# Generated by pormake.
# Topology wgp, (5)-cn, num edge types: 1
# Building blocks:
#     Node 0, Type 0, BuildingBlock: XOMCOT_clean_sbu_1, # of connection points: 5
#     Node 1, Type 0, BuildingBlock: XOMCOT_clean_sbu_1, # of connection points: 5
#     Node 2, Type 0, BuildingBlock: XOMCOT_clean_sbu_1, # of connection points: 5
#     Node 3, Type 0, BuildingBlock: XOMCOT_clean_sbu_1, # of connection points: 5
#     Node 4, Type 0, BuildingBlock: XOMCOT_clean_sbu_1, # of connection points: 5
#     Node 5, Type 0, BuildingBlock: XOMCOT_clean_sbu_1, # of connection points: 5
#     Node 6, Type 0, BuildingBlock: XOMCOT_clean_sbu_1, # of connection points: 5
#     Node 7, Type 0, BuildingBlock: XOMCOT_clean_sbu_1, # of connection points: 5
#     Node 8, Type 0, BuildingBlock: XOMCOT_clean_sbu_1, # of connection points: 5
#     Node 9, Type 0, BuildingBlock: XOMCOT_clean_sbu_1, # of connection points: 5
#     Node 10, Type 0, BuildingBlock: XOMCOT_clean_sbu_1, # of connection points: 5
#     Node 11, Type 0, BuildingBlock: XOMCOT_clean_sbu_1, # of connection points: 5
#     Node 12, Type 0, BuildingBlock: XOMCOT_clean_sbu_1, # of connection points: 5
#     Node 13, Type 0, BuildingBlock: XOMCOT_clean_sbu_1, # of connection points: 5
#     Node 14, Type 0, BuildingBlock: XOMCOT_clean_sbu_1, # of connection points: 5
#     Node 15, Type 0, BuildingBlock: XOMCOT_clean_sbu_1, # of connection points: 5
#     Node 16, Type 0, BuildingBlock: XOMCOT_clean_sbu_1, # of connection points: 5
#     Node 17, Type 0, BuildingBlock: XOMCOT_clean_sbu_1, # of connection points: 5
#     Node 18, Type 0, BuildingBlock: XOMCOT_clean_sbu_1, # of connection points: 5
#     Node 19, Type 0, BuildingBlock: XOMCOT_clean_sbu_1, # of connection points: 5
#     Node 20, Type 0, BuildingBlock: XOMCOT_clean_sbu_1, # of connection points: 5
#     Node 21, Type 0, BuildingBlock: XOMCOT_clean_sbu_1, # of connection points: 5
#     Node 22, Type 0, BuildingBlock: XOMCOT_clean_sbu_1, # of connection points: 5
#     Node 23, Type 0, BuildingBlock: XOMCOT_clean_sbu_1, # of connection points: 5
#     Node 24, Type 0, BuildingBlock: XOMCOT_clean_sbu_1, # of connection points: 5
#     Node 25, Type 0, BuildingBlock: XOMCOT_clean_sbu_1, # of connection points: 5
#     Node 26, Type 0, BuildingBlock: XOMCOT_clean_sbu_1, # of connection points: 5
#     Node 27, Type 0, BuildingBlock: XOMCOT_clean_sbu_1, # of connection points: 5
#     Node 28, Type 0, BuildingBlock: XOMCOT_clean_sbu_1, # of connection points: 5
#     Node 29, Type 0, BuildingBlock: XOMCOT_clean_sbu_1, # of connection points: 5
#     Node 30, Type 0, BuildingBlock: XOMCOT_clean_sbu_1, # of connection points: 5
#     Node 31, Type 0, BuildingBlock: XOMCOT_clean_sbu_1, # of connection points: 5
#     Edge 32, Type (0, 0), BuildingBlock: EZIPEK_clean_linker_0, # of connection points: 2
#     Edge 33, Type (0, 0), BuildingBlock: EZIPEK_clean_linker_0, # of connection points: 2
#     Edge 34, Type (0, 0), BuildingBlock: EZIPEK_clean_linker_0, # of connection points: 2
#     Edge 35, Type (0, 0), BuildingBlock: EZIPEK_clean_linker_0, # of connection points: 2
#     Edge 36, Type (0, 0), BuildingBlock: EZIPEK_clean_linker_0, # of connection points: 2
#     Edge 37, Type (0, 0), BuildingBlock: EZIPEK_clean_linker_0, # of connection points: 2
#     Edge 38, Type (0, 0), BuildingBlock: EZIPEK_clean_linker_0, # of connection points: 2
#     Edge 39, Type (0, 0), BuildingBlock: EZIPEK_clean_linker_0, # of connection points: 2
#     Edge 40, Type (0, 0), BuildingBlock: EZIPEK_clean_linker_0, # of connection points: 2
#     Edge 41, Type (0, 0), BuildingBlock: EZIPEK_clean_linker_0, # of connection points: 2
#     Edge 42, Type (0, 0), BuildingBlock: EZIPEK_clean_linker_0, # of connection points: 2
#     Edge 43, Type (0, 0), BuildingBlock: EZIPEK_clean_linker_0, # of connection points: 2
#     Edge 44, Type (0, 0), BuildingBlock: EZIPEK_clean_linker_0, # of connection points: 2
#     Edge 45, Type (0, 0), BuildingBlock: EZIPEK_clean_linker_0, # of connection points: 2
#     Edge 46, Type (0, 0), BuildingBlock: EZIPEK_clean_linker_0, # of connection points: 2
#     Edge 47, Type (0, 0), BuildingBlock: EZIPEK_clean_linker_0, # of connection points: 2
#     Edge 48, Type (0, 0), BuildingBlock: EZIPEK_clean_linker_0, # of connection points: 2
#     Edge 49, Type (0, 0), BuildingBlock: EZIPEK_clean_linker_0, # of connection points: 2
#     Edge 50, Type (0, 0), BuildingBlock: EZIPEK_clean_linker_0, # of connection points: 2
#     Edge 51, Type (0, 0), BuildingBlock: EZIPEK_clean_linker_0, # of connection points: 2
#     Edge 52, Type (0, 0), BuildingBlock: EZIPEK_clean_linker_0, # of connection points: 2
#     Edge 53, Type (0, 0), BuildingBlock: EZIPEK_clean_linker_0, # of connection points: 2
#     Edge 54, Type (0, 0), BuildingBlock: EZIPEK_clean_linker_0, # of connection points: 2
#     Edge 55, Type (0, 0), BuildingBlock: EZIPEK_clean_linker_0, # of connection points: 2
#     Edge 56, Type (0, 0), BuildingBlock: EZIPEK_clean_linker_0, # of connection points: 2
#     Edge 57, Type (0, 0), BuildingBlock: EZIPEK_clean_linker_0, # of connection points: 2
#     Edge 58, Type (0, 0), BuildingBlock: EZIPEK_clean_linker_0, # of connection points: 2
#     Edge 59, Type (0, 0), BuildingBlock: EZIPEK_clean_linker_0, # of connection points: 2
#     Edge 60, Type (0, 0), BuildingBlock: EZIPEK_clean_linker_0, # of connection points: 2
#     Edge 61, Type (0, 0), BuildingBlock: EZIPEK_clean_linker_0, # of connection points: 2
#     Edge 62, Type (0, 0), BuildingBlock: EZIPEK_clean_linker_0, # of connection points: 2
#     Edge 63, Type (0, 0), BuildingBlock: EZIPEK_clean_linker_0, # of connection points: 2
#     Edge 64, Type (0, 0), BuildingBlock: EZIPEK_clean_linker_0, # of connection points: 2
#     Edge 65, Type (0, 0), BuildingBlock: EZIPEK_clean_linker_0, # of connection points: 2
#     Edge 66, Type (0, 0), BuildingBlock: EZIPEK_clean_linker_0, # of connection points: 2
#     Edge 67, Type (0, 0), BuildingBlock: EZIPEK_clean_linker_0, # of connection points: 2
#     Edge 68, Type (0, 0), BuildingBlock: EZIPEK_clean_linker_0, # of connection points: 2
#     Edge 69, Type (0, 0), BuildingBlock: EZIPEK_clean_linker_0, # of connection points: 2
#     Edge 70, Type (0, 0), BuildingBlock: EZIPEK_clean_linker_0, # of connection points: 2
#     Edge 71, Type (0, 0), BuildingBlock: EZIPEK_clean_linker_0, # of connection points: 2
#     Edge 72, Type (0, 0), BuildingBlock: EZIPEK_clean_linker_0, # of connection points: 2
#     Edge 73, Type (0, 0), BuildingBlock: EZIPEK_clean_linker_0, # of connection points: 2
#     Edge 74, Type (0, 0), BuildingBlock: EZIPEK_clean_linker_0, # of connection points: 2
#     Edge 75, Type (0, 0), BuildingBlock: EZIPEK_clean_linker_0, # of connection points: 2
#     Edge 76, Type (0, 0), BuildingBlock: EZIPEK_clean_linker_0, # of connection points: 2
#     Edge 77, Type (0, 0), BuildingBlock: EZIPEK_clean_linker_0, # of connection points: 2
#     Edge 78, Type (0, 0), BuildingBlock: EZIPEK_clean_linker_0, # of connection points: 2
#     Edge 79, Type (0, 0), BuildingBlock: EZIPEK_clean_linker_0, # of connection points: 2
#     Edge 80, Type (0, 0), BuildingBlock: EZIPEK_clean_linker_0, # of connection points: 2
#     Edge 81, Type (0, 0), BuildingBlock: EZIPEK_clean_linker_0, # of connection points: 2
#     Edge 82, Type (0, 0), BuildingBlock: EZIPEK_clean_linker_0, # of connection points: 2
#     Edge 83, Type (0, 0), BuildingBlock: EZIPEK_clean_linker_0, # of connection points: 2
#     Edge 84, Type (0, 0), BuildingBlock: EZIPEK_clean_linker_0, # of connection points: 2
#     Edge 85, Type (0, 0), BuildingBlock: EZIPEK_clean_linker_0, # of connection points: 2
#     Edge 86, Type (0, 0), BuildingBlock: EZIPEK_clean_linker_0, # of connection points: 2
#     Edge 87, Type (0, 0), BuildingBlock: EZIPEK_clean_linker_0, # of connection points: 2
#     Edge 88, Type (0, 0), BuildingBlock: EZIPEK_clean_linker_0, # of connection points: 2
#     Edge 89, Type (0, 0), BuildingBlock: EZIPEK_clean_linker_0, # of connection points: 2
#     Edge 90, Type (0, 0), BuildingBlock: EZIPEK_clean_linker_0, # of connection points: 2
#     Edge 91, Type (0, 0), BuildingBlock: EZIPEK_clean_linker_0, # of connection points: 2
#     Edge 92, Type (0, 0), BuildingBlock: EZIPEK_clean_linker_0, # of connection points: 2
#     Edge 93, Type (0, 0), BuildingBlock: EZIPEK_clean_linker_0, # of connection points: 2
#     Edge 94, Type (0, 0), BuildingBlock: EZIPEK_clean_linker_0, # of connection points: 2
#     Edge 95, Type (0, 0), BuildingBlock: EZIPEK_clean_linker_0, # of connection points: 2
#     Edge 96, Type (0, 0), BuildingBlock: EZIPEK_clean_linker_0, # of connection points: 2
#     Edge 97, Type (0, 0), BuildingBlock: EZIPEK_clean_linker_0, # of connection points: 2
#     Edge 98, Type (0, 0), BuildingBlock: EZIPEK_clean_linker_0, # of connection points: 2
#     Edge 99, Type (0, 0), BuildingBlock: EZIPEK_clean_linker_0, # of connection points: 2
#     Edge 100, Type (0, 0), BuildingBlock: EZIPEK_clean_linker_0, # of connection points: 2
#     Edge 101, Type (0, 0), BuildingBlock: EZIPEK_clean_linker_0, # of connection points: 2
#     Edge 102, Type (0, 0), BuildingBlock: EZIPEK_clean_linker_0, # of connection points: 2
#     Edge 103, Type (0, 0), BuildingBlock: EZIPEK_clean_linker_0, # of connection points: 2
#     Edge 104, Type (0, 0), BuildingBlock: EZIPEK_clean_linker_0, # of connection points: 2
#     Edge 105, Type (0, 0), BuildingBlock: EZIPEK_clean_linker_0, # of connection points: 2
#     Edge 106, Type (0, 0), BuildingBlock: EZIPEK_clean_linker_0, # of connection points: 2
#     Edge 107, Type (0, 0), BuildingBlock: EZIPEK_clean_linker_0, # of connection points: 2
#     Edge 108, Type (0, 0), BuildingBlock: EZIPEK_clean_linker_0, # of connection points: 2
#     Edge 109, Type (0, 0), BuildingBlock: EZIPEK_clean_linker_0, # of connection points: 2
#     Edge 110, Type (0, 0), BuildingBlock: EZIPEK_clean_linker_0, # of connection points: 2
#     Edge 111, Type (0, 0), BuildingBlock: EZIPEK_clean_linker_0, # of connection points: 2
# Relax obj value: 0.168
# Max RMSD: 0.159
# Mean RMSD: 0.159
data_MOF--net-wgp--node1-XOMCOT_clean_sbu_1--edge1-EZIPEK_clean_linker_0
_symmetry_space_group_name_H-M    P1
_symmetry_Int_Tables_number       1
_symmetry_cell_setting            triclinic
loop_
_symmetry_equiv_pos_as_xyz
'x, y, z'
_cell_length_a     27.469855
_cell_length_b     27.512874
_cell_length_c     76.724224
_cell_angle_alpha  89.92672
_cell_angle_beta   90.066797
_cell_angle_gamma 90.126779
loop_
_atom_site_label
_atom_site_type_symbol
_atom_site_fract_x
_atom_site_fract_y
_atom_site_fract_z
_atom_type_partial_charge
C0 C 0.29108 0.21031 0.10011 0.0
C1 C 0.29031 0.26029 0.10048 0.0
N2 N 0.25499 0.2755 0.08966 0.0
N3 N 0.25674 0.19393 0.08895 0.0
C4 C 0.23482 0.23472 0.0829 0.0
H5 H 0.31584 0.18718 0.10728 0.0
Co6 Co 0.24793 0.12713 0.08399 0.0
C7 C 0.23432 0.11853 0.04652 0.0
O8 O 0.26425 0.08168 0.04859 0.0
N9 N 0.23677 0.05875 0.08002 0.0
C10 C 0.19333 0.99409 0.07164 0.0
C11 C 0.19523 0.04374 0.07215 0.0
C12 C 0.25797 0.0164 0.08527 0.0
N13 N 0.23251 0.97662 0.08001 0.0
O14 O 0.18718 0.12978 0.09557 0.0
H15 H 0.16707 0.06766 0.06733 0.0
H16 H 0.28971 0.01428 0.09353 0.0
O17 O 0.22046 0.14185 0.06024 0.0
C18 C 0.19977 0.11989 0.11119 0.0
O19 O 0.24567 0.10922 0.11422 0.0
N20 N 0.31089 0.12694 0.07438 0.0
C21 C 0.40597 0.15851 0.07037 0.0
C22 C 0.36856 0.18029 0.06097 0.0
C23 C 0.32166 0.16387 0.06301 0.0
C24 C 0.34746 0.10295 0.08279 0.0
C25 C 0.39596 0.11715 0.08045 0.0
H26 H 0.2937 0.18623 0.0573 0.0
H27 H 0.33917 0.0769 0.09283 0.0
H28 H 0.20536 0.23472 0.07356 0.0
H29 H 0.3142 0.28379 0.10792 0.0
H30 H 0.16391 0.97228 0.0664 0.0
H31 H 0.37479 0.21277 0.05326 0.0
H32 H 0.42447 0.09974 0.08795 0.0
C33 C 0.02131 0.05919 0.36342 0.0
C34 C 0.97115 0.05978 0.36364 0.0
N35 N 0.95503 0.03877 0.34896 0.0
N36 N 0.03762 0.03981 0.34829 0.0
C37 C 0.99567 0.02534 0.34022 0.0
H38 H 0.04407 0.0701 0.37419 0.0
Co39 Co 0.10534 0.0274 0.3425 0.0
C40 C 0.06256 0.04091 0.30675 0.0
O41 O 0.03329 0.07552 0.31198 0.0
N42 N 0.17182 0.0128 0.33719 0.0
C43 C 0.23677 0.98623 0.32267 0.0
C44 C 0.18708 0.99045 0.32249 0.0
C45 C 0.2136 0.02052 0.34637 0.0
N46 N 0.25376 0.00485 0.33768 0.0
O47 O 0.09436 0.96136 0.34779 0.0
H48 H 0.16384 0.97716 0.31218 0.0
H49 H 0.21452 0.03674 0.35921 0.0
O50 O 0.08861 0.01791 0.31788 0.0
C51 C 0.10328 0.95604 0.36393 0.0
O52 O 0.11584 0.99464 0.37298 0.0
N53 N 0.11833 0.09338 0.33818 0.0
C54 C 0.11903 0.19068 0.32996 0.0
C55 C 0.10835 0.17599 0.34697 0.0
C56 C 0.10964 0.12661 0.35095 0.0
C57 C 0.13823 0.10831 0.32273 0.0
C58 C 0.13829 0.15725 0.31823 0.0
H59 H 0.10157 0.11509 0.36402 0.0
H60 H 0.1508 0.08236 0.31322 0.0
H61 H 0.99454 0.00441 0.32831 0.0
H62 H 0.9482 0.07363 0.37396 0.0
H63 H 0.25888 0.96927 0.31272 0.0
H64 H 0.09519 0.2017 0.35655 0.0
H65 H 0.14846 0.16815 0.30515 0.0
C66 C 0.22227 0.7761 0.60013 0.0
C67 C 0.23074 0.72708 0.60138 0.0
N68 N 0.26014 0.71402 0.58825 0.0
N69 N 0.24623 0.79493 0.58628 0.0
C70 C 0.2695 0.75577 0.57929 0.0
H71 H 0.1973 0.79622 0.60824 0.0
Co72 Co 0.23291 0.86108 0.57949 0.0
C73 C 0.24163 0.86411 0.54147 0.0
O74 O 0.19823 0.88364 0.54195 0.0
N75 N 0.21902 0.92998 0.57359 0.0
C76 C 0.18198 1.00017 0.5665 0.0
C77 C 0.17752 0.95045 0.56734 0.0
C78 C 0.24827 0.96974 0.57626 0.0
N79 N 0.22623 0.01264 0.57238 0.0
O80 O 0.29192 0.88128 0.59017 0.0
H81 H 0.14513 0.93119 0.56341 0.0
H82 H 0.28458 0.96786 0.58166 0.0
O83 O 0.26326 0.85219 0.55578 0.0
C84 C 0.28002 0.88817 0.60609 0.0
O85 O 0.23499 0.87945 0.61092 0.0
N86 N 0.17278 0.83914 0.57157 0.0
C87 C 0.08579 0.78937 0.56805 0.0
C88 C 0.12706 0.77363 0.5592 0.0
C89 C 0.17002 0.79926 0.561 0.0
C90 C 0.13324 0.85368 0.58088 0.0
C91 C 0.0885 0.83078 0.57862 0.0
H92 H 0.20196 0.78444 0.55501 0.0
H93 H 0.13687 0.88224 0.59048 0.0
H94 H 0.29065 0.75719 0.56744 0.0
H95 H 0.21455 0.7023 0.6107 0.0
H96 H 0.15401 0.02554 0.56252 0.0
H97 H 0.12647 0.74078 0.55142 0.0
H98 H 0.0572 0.84312 0.58595 0.0
C99 C 0.46426 0.98788 0.85238 0.0
C100 C 0.51379 0.99324 0.85306 0.0
N101 N 0.52798 0.01711 0.83869 0.0
N102 N 0.44628 0.00888 0.83782 0.0
C103 C 0.48653 0.02651 0.82961 0.0
H104 H 0.44274 0.96708 0.86152 0.0
Co105 Co 0.37945 0.99582 0.83339 0.0
C106 C 0.35842 0.01007 0.79632 0.0
O107 O 0.33532 0.96852 0.7975 0.0
N108 N 0.31033 0.97995 0.83068 0.0
C109 C 0.24071 0.93783 0.82774 0.0
C110 C 0.29044 0.93581 0.827 0.0
C111 C 0.27039 0.00813 0.83373 0.0
N112 N 0.22799 0.98313 0.83204 0.0
O113 O 0.36348 0.05527 0.84432 0.0
H114 H 0.30991 0.9035 0.82338 0.0
H115 H 0.27204 0.04588 0.83753 0.0
O116 O 0.3799 0.02783 0.80983 0.0
C117 C 0.35726 0.04799 0.86052 0.0
O118 O 0.35638 1.00287 0.86619 0.0
N119 N 0.39936 0.9372 0.82407 0.0
C120 C 0.45642 0.85665 0.81823 0.0
C121 C 0.46089 0.89719 0.80754 0.0
C122 C 0.43195 0.93696 0.81063 0.0
C123 C 0.39501 0.89792 0.83478 0.0
C124 C 0.42168 0.85604 0.83157 0.0
H125 H 0.44077 0.96929 0.80354 0.0
H126 H 0.37258 0.9001 0.84634 0.0
H127 H 0.48613 0.04311 0.81689 0.0
H128 H 0.53799 0.97802 0.86278 0.0
H129 H 0.21561 0.90808 0.8255 0.0
H130 H 0.48894 0.89939 0.79763 0.0
H131 H 0.41843 0.82522 0.8403 0.0
C132 C 0.28224 0.74634 0.41325 0.0
C133 C 0.2802 0.69662 0.41282 0.0
N134 N 0.25392 0.68134 0.42651 0.0
N135 N 0.25763 0.7633 0.4272 0.0
C136 C 0.24029 0.72241 0.4351 0.0
H137 H 0.30124 0.76906 0.40396 0.0
Co138 Co 0.25707 0.83218 0.43053 0.0
C139 C 0.26398 0.85352 0.46768 0.0
O140 O 0.29911 0.88282 0.46263 0.0
N141 N 0.25501 0.90249 0.43252 0.0
C142 C 0.2186 0.97363 0.43798 0.0
C143 C 0.21394 0.92403 0.43843 0.0
C144 C 0.28448 0.94103 0.42853 0.0
N145 N 0.26287 0.98449 0.43175 0.0
O146 O 0.19047 0.83306 0.42377 0.0
H147 H 0.18228 0.90478 0.44319 0.0
H148 H 0.32105 0.93805 0.42357 0.0
O149 O 0.24085 0.82807 0.45617 0.0
C150 C 0.1899 0.83505 0.4072 0.0
O151 O 0.23207 0.83605 0.39912 0.0
N152 N 0.32361 0.82822 0.43539 0.0
C153 C 0.41522 0.7868 0.43338 0.0
C154 C 0.38245 0.77181 0.44615 0.0
C155 C 0.33754 0.79366 0.44721 0.0
C156 C 0.35556 0.84428 0.42306 0.0
C157 C 0.40271 0.82546 0.42233 0.0
H158 H 0.31177 0.77708 0.45588 0.0
H159 H 0.34308 0.8672 0.41255 0.0
H160 H 0.21856 0.72261 0.44686 0.0
H161 H 0.29677 0.67322 0.40317 0.0
H162 H 0.19187 0.9999 0.44225 0.0
H163 H 0.39028 0.74117 0.45459 0.0
H164 H 0.42724 0.83729 0.41211 0.0
C165 C 0.47568 0.95498 0.69535 0.0
C166 C 0.52502 0.9455 0.69489 0.0
N167 N 0.54794 0.98451 0.68813 0.0
N168 N 0.46725 0.99992 0.68897 0.0
C169 C 0.51211 0.01656 0.68439 0.0
H170 H 0.4478 0.93103 0.70041 0.0
Co171 Co 0.40587 0.03245 0.68764 0.0
C172 C 0.36787 0.03321 0.72319 0.0
O173 O 0.35408 0.0779 0.71985 0.0
N174 N 0.34238 0.06446 0.68587 0.0
C175 C 0.28108 0.11784 0.68322 0.0
C176 C 0.33083 0.11222 0.68439 0.0
C177 C 0.29783 0.04209 0.6856 0.0
N178 N 0.2602 0.07376 0.6839 0.0
O179 O 0.37843 0.97769 0.67617 0.0
H180 H 0.35615 0.14211 0.68437 0.0
H181 H 0.29294 1.00314 0.68649 0.0
O182 O 0.38845 0.00807 0.71121 0.0
C183 C 0.39476 0.97488 0.66063 0.0
O184 O 0.42976 0.00447 0.65573 0.0
N185 N 0.43648 0.08734 0.69691 0.0
C186 C 0.5117 0.15319 0.70203 0.0
C187 C 0.50127 0.11858 0.71476 0.0
C188 C 0.46318 0.08609 0.71199 0.0
C189 C 0.44651 0.1211 0.68444 0.0
C190 C 0.48303 0.15536 0.68695 0.0
H191 H 0.45987 0.05648 0.72092 0.0
H192 H 0.42901 0.11868 0.67183 0.0
H193 H 0.51862 0.05204 0.67882 0.0
H194 H 0.54294 0.9132 0.69976 0.0
H195 H 0.26163 0.1518 0.68183 0.0
H196 H 0.52417 0.11483 0.72619 0.0
H197 H 0.49126 0.18104 0.67664 0.0
C198 C 0.19526 0.23877 0.92716 0.0
C199 C 0.1984 0.2884 0.92528 0.0
N200 N 0.23757 0.30425 0.93418 0.0
N201 N 0.23167 0.2228 0.93749 0.0
C202 C 0.2574 0.26369 0.9414 0.0
H203 H 0.1675 0.21564 0.9216 0.0
Co204 Co 0.23609 0.15635 0.94458 0.0
C205 C 0.28998 0.18884 0.97964 0.0
O206 O 0.32849 0.21708 0.97875 0.0
N207 N 0.2393 0.08894 0.95129 0.0
C208 C 0.22101 0.02093 0.96592 0.0
C209 C 0.22132 0.07087 0.96638 0.0
C210 C 0.24926 0.04841 0.94173 0.0
N211 N 0.23841 0.00671 0.95041 0.0
O212 O 0.29549 0.15136 0.93285 0.0
H213 H 0.20612 0.09269 0.97671 0.0
H214 H 0.26197 0.04922 0.9284 0.0
O215 O 0.26838 0.1758 0.9657 0.0
C216 C 0.28418 0.14347 0.91706 0.0
O217 O 0.2378 0.14057 0.91292 0.0
N218 N 0.17612 0.16135 0.95492 0.0
C219 C 0.08013 0.18549 0.95871 0.0
C220 C 0.11605 0.21298 0.96714 0.0
C221 C 0.16436 0.1995 0.96539 0.0
C222 C 0.14123 0.13142 0.94821 0.0
C223 C 0.0924 0.14155 0.95077 0.0
H224 H 0.19223 0.22344 0.97042 0.0
H225 H 0.15117 0.1021 0.93955 0.0
H226 H 0.28943 0.26402 0.94961 0.0
H227 H 0.17377 0.31128 0.91793 0.0
H228 H 0.20753 0.99679 0.97597 0.0
H229 H 0.10732 0.24698 0.97351 0.0
H230 H 0.06502 0.1195 0.94435 0.0
C231 C 0.0159 0.053 0.19938 0.0
C232 C 0.96587 0.05326 0.19913 0.0
N233 N 0.95028 0.00707 0.20026 0.0
N234 N 0.03207 0.00675 0.20054 0.0
C235 C 0.99091 0.97944 0.20122 0.0
H236 H 0.03905 0.08477 0.19869 0.0
Co237 Co 0.09867 0.9885 0.20088 0.0
C238 C 0.09153 1.00035 0.23341 0.0
O239 O 0.0742 0.9572 0.22937 0.0
N240 N 0.16656 0.97116 0.202 0.0
C241 C 0.23326 0.9333 0.21188 0.0
C242 C 0.18328 0.93505 0.21238 0.0
C243 C 0.20816 0.99238 0.19595 0.0
N244 N 0.24884 0.96935 0.20152 0.0
O245 O 0.11241 0.04327 0.18484 0.0
H246 H 0.16056 0.91172 0.22026 0.0
H247 H 0.20938 0.02503 0.18819 0.0
O248 O 0.10793 0.0272 0.22112 0.0
C249 C 0.1308 0.04212 0.16955 0.0
O250 O 0.1492 1.00155 0.16343 0.0
N251 N 0.0866 0.94495 0.18247 0.0
C252 C 0.04359 0.8714 0.16319 0.0
C253 C 0.03704 0.91974 0.15823 0.0
C254 C 0.05784 0.95615 0.16846 0.0
C255 C 0.09573 0.89759 0.18646 0.0
C256 C 0.07523 0.86028 0.17683 0.0
H257 H 0.04655 0.99283 0.16628 0.0
H258 H 0.11396 0.88786 0.19829 0.0
H259 H 0.99074 0.94017 0.20205 0.0
H260 H 0.94259 0.08482 0.19802 0.0
H261 H 0.25651 0.90829 0.2189 0.0
H262 H 0.01166 0.92923 0.14796 0.0
H263 H 0.08007 0.82306 0.18115 0.0
C264 C 0.68575 0.77628 0.91276 0.0
C265 C 0.68615 0.72634 0.91177 0.0
N266 N 0.71894 0.70946 0.92331 0.0
N267 N 0.71773 0.79119 0.92502 0.0
C268 C 0.73796 0.74946 0.93112 0.0
H269 H 0.66327 0.80043 0.90508 0.0
Co270 Co 0.72863 0.85786 0.93042 0.0
C271 C 0.7244 0.86394 0.96869 0.0
O272 O 0.69488 0.90047 0.96552 0.0
N273 N 0.74286 0.92521 0.93496 0.0
C274 C 0.78194 0.98883 0.94655 0.0
C275 C 0.77749 0.93923 0.94648 0.0
C276 C 0.73083 0.96756 0.92683 0.0
N277 N 0.75245 0.00679 0.93419 0.0
O278 O 0.79338 0.85176 0.92182 0.0
H279 H 0.79965 0.91476 0.95412 0.0
H280 H 0.709 0.9699 0.91514 0.0
O281 O 0.74485 0.84179 0.95572 0.0
C282 C 0.78659 0.86129 0.90568 0.0
O283 O 0.7418 0.86996 0.90046 0.0
N284 N 0.66227 0.8637 0.93677 0.0
C285 C 0.56351 0.86404 0.9444 0.0
C286 C 0.59315 0.8259 0.95001 0.0
C287 C 0.64223 0.82679 0.94633 0.0
C288 C 0.63347 0.90076 0.93095 0.0
C289 C 0.58442 0.90314 0.93552 0.0
H290 H 0.66394 0.79676 0.95085 0.0
H291 H 0.64714 0.92769 0.92218 0.0
H292 H 0.766 0.74835 0.94103 0.0
H293 H 0.66432 0.704 0.90316 0.0
H294 H 0.80661 0.01006 0.95452 0.0
H295 H 0.57827 0.79474 0.95685 0.0
H296 H 0.56246 0.93344 0.93113 0.0
C297 C 0.99397 0.98724 0.66568 0.0
C298 C 0.04374 0.99209 0.66531 0.0
N299 N 0.05669 0.02758 0.67644 0.0
N300 N 0.97474 0.01897 0.67719 0.0
C301 C 0.01412 0.04365 0.68345 0.0
H302 H 0.97291 0.96165 0.65808 0.0
Co303 Co 0.90573 0.02119 0.68136 0.0
C304 C 0.89246 0.01968 0.71904 0.0
O305 O 0.86114 0.98503 0.71528 0.0
N306 N 0.83565 0.02579 0.68497 0.0
C307 C 0.76838 0.06572 0.69318 0.0
C308 C 0.81816 0.06724 0.69213 0.0
C309 C 0.7943 0.99948 0.6817 0.0
N310 N 0.75319 0.0232 0.68663 0.0
O311 O 0.90399 0.08572 0.67229 0.0
H312 H 0.84055 0.09711 0.69659 0.0
H313 H 0.79345 0.96377 0.67596 0.0
O314 O 0.91515 0.04134 0.70647 0.0
C315 C 0.90009 0.07856 0.65588 0.0
O316 O 0.90295 0.03361 0.65019 0.0
N317 N 0.90856 0.95577 0.68767 0.0
C318 C 0.93686 0.85937 0.68793 0.0
C319 C 0.95939 0.89284 0.69898 0.0
C320 C 0.94433 0.94066 0.69883 0.0
C321 C 0.8857 0.92337 0.67702 0.0
C322 C 0.89744 0.87418 0.67765 0.0
H323 H 0.96557 0.96643 0.70618 0.0
H324 H 0.86239 0.9361 0.66668 0.0
H325 H 0.01174 0.07272 0.69289 0.0
H326 H 0.0687 0.97144 0.65732 0.0
H327 H 0.74497 0.0935 0.69858 0.0
H328 H 0.99067 0.88284 0.70681 0.0
H329 H 0.87993 0.84908 0.66874 0.0
C330 C 0.80639 0.23408 0.40069 0.0
C331 C 0.80397 0.28343 0.39803 0.0
N332 N 0.78473 0.30409 0.41235 0.0
N333 N 0.78812 0.22308 0.41652 0.0
C334 C 0.77503 0.26666 0.42336 0.0
H335 H 0.82026 0.20761 0.39156 0.0
Co336 Co 0.78092 0.15791 0.42414 0.0
C337 C 0.79434 0.1627 0.46229 0.0
O338 O 0.82668 0.12798 0.4604 0.0
N339 N 0.77047 0.09104 0.43076 0.0
C340 C 0.74186 0.02526 0.44459 0.0
C341 C 0.74573 0.07492 0.4449 0.0
C342 C 0.77742 0.04975 0.42131 0.0
N343 N 0.762 0.00931 0.42977 0.0
O344 O 0.71347 0.16275 0.41894 0.0
H345 H 0.72888 0.09751 0.45456 0.0
H346 H 0.79173 0.04927 0.40818 0.0
O347 O 0.77144 0.17908 0.44885 0.0
C348 C 0.7097 0.15327 0.40276 0.0
O349 O 0.7491 0.14016 0.39428 0.0
N350 N 0.84923 0.15412 0.42789 0.0
C351 C 0.9494 0.1537 0.43346 0.0
C352 C 0.92154 0.19416 0.43795 0.0
C353 C 0.8717 0.19334 0.43535 0.0
C354 C 0.87655 0.11545 0.42252 0.0
C355 C 0.92644 0.11347 0.42595 0.0
H356 H 0.85111 0.22429 0.43975 0.0
H357 H 0.86063 0.08603 0.41538 0.0
H358 H 0.75905 0.27099 0.43615 0.0
H359 H 0.81631 0.30294 0.38659 0.0
H360 H 0.72353 1.00263 0.45411 0.0
H361 H 0.93813 0.22602 0.44379 0.0
H362 H 0.9471 0.08161 0.42227 0.0
C363 C 0.51863 0.0335 0.17746 0.0
C364 C 0.46862 0.03666 0.17748 0.0
N365 N 0.4513 1.00431 0.18907 0.0
N366 N 0.53301 0.99954 0.18906 0.0
C367 C 0.49091 0.98204 0.1959 0.0
H368 H 0.54309 0.05361 0.16913 0.0
Co369 Co 0.59879 0.98157 0.19236 0.0
C370 C 0.60714 0.94073 0.22871 0.0
O371 O 0.65091 0.92255 0.22685 0.0
N372 N 0.66631 0.96215 0.19486 0.0
C373 C 0.73153 0.91355 0.19284 0.0
C374 C 0.6817 0.9161 0.19177 0.0
C375 C 0.70863 0.98674 0.19793 0.0
N376 N 0.74836 0.95799 0.19667 0.0
O377 O 0.58577 0.92511 0.17843 0.0
H378 H 0.65834 0.8855 0.18898 0.0
H379 H 0.71118 0.02491 0.20096 0.0
O380 O 0.58162 0.95194 0.21525 0.0
C381 C 0.59522 0.9405 0.16303 0.0
O382 O 0.61339 0.98459 0.16154 0.0
N383 N 0.60932 0.04072 0.20352 0.0
C384 C 0.58784 0.13839 0.20674 0.0
C385 C 0.56591 0.10439 0.21779 0.0
C386 C 0.57785 0.05568 0.21622 0.0
C387 C 0.6341 0.07401 0.19375 0.0
C388 C 0.62608 0.12357 0.19596 0.0
H389 H 0.55522 0.03023 0.22317 0.0
H390 H 0.65567 0.06221 0.18278 0.0
H391 H 0.48913 0.95305 0.20542 0.0
H392 H 0.44653 0.0601 0.16936 0.0
H393 H 0.75386 0.88173 0.19071 0.0
H394 H 0.53603 0.11454 0.22624 0.0
H395 H 0.64382 0.14922 0.18731 0.0
C396 C 0.81437 0.25172 0.5694 0.0
C397 C 0.81933 0.30158 0.56919 0.0
N398 N 0.77477 0.32113 0.56752 0.0
N399 N 0.76682 0.23985 0.56791 0.0
C400 C 0.74356 0.28315 0.56659 0.0
H401 H 0.84362 0.22573 0.57071 0.0
Co402 Co 0.74077 0.17602 0.56822 0.0
C403 C 0.75474 0.17605 0.53581 0.0
O404 O 0.71304 0.19721 0.53937 0.0
N405 N 0.71537 0.11035 0.56758 0.0
C406 C 0.67011 0.04654 0.55924 0.0
C407 C 0.67408 0.09637 0.55929 0.0
C408 C 0.7373 0.06717 0.57144 0.0
N409 N 0.70982 0.0282 0.56693 0.0
O410 O 0.78987 0.1576 0.58618 0.0
H411 H 0.64972 0.12025 0.55236 0.0
H412 H 0.7735 0.06396 0.57686 0.0
O413 O 0.78042 0.15997 0.54853 0.0
C414 C 0.78224 0.13562 0.60076 0.0
O415 O 0.73932 0.11626 0.60385 0.0
N416 N 0.69775 0.19579 0.58587 0.0
C417 C 0.63196 0.2524 0.60415 0.0
C418 C 0.68065 0.25148 0.60925 0.0
C419 C 0.71334 0.22363 0.59961 0.0
C420 C 0.64977 0.19517 0.58147 0.0
C421 C 0.61612 0.22231 0.59066 0.0
H422 H 0.75172 0.22821 0.60223 0.0
H423 H 0.63777 0.1789 0.56958 0.0
H424 H 0.70448 0.28678 0.56535 0.0
H425 H 0.8529 0.322 0.57038 0.0
H426 H 0.64127 0.02526 0.55335 0.0
H427 H 0.69394 0.27553 0.61937 0.0
H428 H 0.57875 0.22361 0.58612 0.0
C429 C 0.53185 0.9649 0.35673 0.0
C430 C 0.48268 0.96423 0.3601 0.0
N431 N 0.46006 0.99092 0.34786 0.0
N432 N 0.54089 0.9919 0.34237 0.0
C433 C 0.49608 0.00764 0.33731 0.0
H434 H 0.55958 0.94653 0.36427 0.0
Co435 Co 0.60639 1.00274 0.33447 0.0
C436 C 0.5609 0.02279 0.29698 0.0
O437 O 0.528 0.0568 0.29897 0.0
N438 N 0.67252 0.01384 0.32738 0.0
C439 C 0.74146 0.01182 0.31197 0.0
C440 C 0.69162 0.00622 0.31138 0.0
C441 C 0.71204 0.02407 0.3375 0.0
N442 N 0.75436 0.02272 0.32841 0.0
O443 O 0.59903 0.06994 0.33927 0.0
H444 H 0.67121 0.99457 0.30009 0.0
H445 H 0.71016 0.02991 0.35143 0.0
O446 O 0.58575 0.00776 0.30998 0.0
C447 C 0.60634 0.07117 0.35569 0.0
O448 O 0.61699 0.03022 0.36368 0.0
N449 N 0.61446 0.93661 0.33115 0.0
C450 C 0.62538 0.83764 0.32661 0.0
C451 C 0.58354 0.8614 0.32059 0.0
C452 C 0.57927 0.911 0.32266 0.0
C453 C 0.65448 0.9138 0.33782 0.0
C454 C 0.66186 0.86437 0.33494 0.0
H455 H 0.54691 0.92866 0.31787 0.0
H456 H 0.6809 0.93381 0.34536 0.0
H457 H 0.48959 0.03077 0.32622 0.0
H458 H 0.46466 0.94469 0.37053 0.0
H459 H 0.7666 0.00637 0.3013 0.0
H460 H 0.55427 0.84168 0.31425 0.0
H461 H 0.69486 0.84712 0.33956 0.0
C462 C 0.70655 0.75569 0.10358 0.0
C463 C 0.69769 0.70688 0.10499 0.0
N464 N 0.69118 0.68879 0.0889 0.0
N465 N 0.70367 0.76975 0.08676 0.0
C466 C 0.69379 0.72777 0.07805 0.0
H467 H 0.71835 0.77868 0.11416 0.0
Co468 Co 0.7271 0.83289 0.08108 0.0
C469 C 0.73738 0.83406 0.04245 0.0
O470 O 0.78313 0.84543 0.04497 0.0
N471 N 0.75209 0.8987 0.07645 0.0
C472 C 0.80182 0.96137 0.07033 0.0
C473 C 0.79768 0.91176 0.07141 0.0
C474 C 0.72974 0.94263 0.07862 0.0
N475 N 0.75921 0.98103 0.07496 0.0
O476 O 0.66372 0.85878 0.08718 0.0
H477 H 0.82731 0.88727 0.06871 0.0
H478 H 0.69296 0.94691 0.08319 0.0
O479 O 0.70888 0.82685 0.05558 0.0
C480 C 0.66465 0.8685 0.10347 0.0
O481 O 0.70681 0.86762 0.11156 0.0
N482 N 0.78814 0.80452 0.07768 0.0
C483 C 0.87338 0.7513 0.07882 0.0
C484 C 0.83722 0.73942 0.06686 0.0
C485 C 0.79486 0.76635 0.06654 0.0
C486 C 0.822 0.81454 0.09018 0.0
C487 C 0.8659 0.78923 0.09066 0.0
H488 H 0.76709 0.75529 0.05757 0.0
H489 H 0.81464 0.84211 0.09987 0.0
H490 H 0.69322 0.7248 0.064 0.0
H491 H 0.70162 0.6853 0.11673 0.0
H492 H 0.8343 0.98168 0.06698 0.0
H493 H 0.84158 0.70924 0.05794 0.0
H494 H 0.89309 0.79819 0.10038 0.0
C495 C 0.9592 0.05456 0.85416 0.0
C496 C 0.0088 0.05056 0.85602 0.0
N497 N 0.02606 0.02431 0.84262 0.0
N498 N 0.94485 0.03145 0.83951 0.0
C499 C 0.98654 0.01255 0.83285 0.0
H500 H 0.93513 0.07479 0.86261 0.0
Co501 Co 0.87958 0.03442 0.83122 0.0
C502 C 0.90734 0.04461 0.79271 0.0
O503 O 0.90078 0.0917 0.793 0.0
N504 N 0.81283 0.03618 0.82342 0.0
C505 C 0.74573 0.05411 0.80814 0.0
C506 C 0.79559 0.0559 0.80844 0.0
C507 C 0.77166 0.02287 0.83209 0.0
N508 N 0.73064 0.03352 0.82301 0.0
O509 O 0.87279 0.96708 0.83713 0.0
H510 H 0.81704 0.07322 0.79855 0.0
H511 H 0.77148 0.00724 0.84503 0.0
O512 O 0.90052 0.0186 0.80653 0.0
C513 C 0.86442 0.96662 0.85351 0.0
O514 O 0.85925 0.00853 0.86151 0.0
N515 N 0.88612 0.10228 0.82778 0.0
C516 C 0.89571 0.20143 0.8228 0.0
C517 C 0.93587 0.171 0.82099 0.0
C518 C 0.93033 0.12175 0.82345 0.0
C519 C 0.84808 0.1325 0.83165 0.0
C520 C 0.8514 0.18236 0.82848 0.0
H521 H 0.96095 0.09915 0.82033 0.0
H522 H 0.81456 0.11827 0.83695 0.0
H523 H 0.98828 0.99246 0.82075 0.0
H524 H 0.03079 0.06641 0.86628 0.0
H525 H 0.72215 0.06834 0.79805 0.0
H526 H 0.97095 0.18502 0.81687 0.0
H527 H 0.82012 0.20558 0.83048 0.0
C528 C 0.77636 0.75935 0.58809 0.0
C529 C 0.77539 0.80923 0.58838 0.0
N530 N 0.74406 0.82448 0.57609 0.0
N531 N 0.74596 0.74264 0.5756 0.0
C532 C 0.72638 0.78347 0.5685 0.0
H533 H 0.79819 0.73644 0.59646 0.0
Co534 Co 0.73843 0.67477 0.57164 0.0
C535 C 0.73903 0.65956 0.53408 0.0
O536 O 0.77047 0.62548 0.53821 0.0
N537 N 0.72878 0.60557 0.56838 0.0
C538 C 0.68511 0.53951 0.56132 0.0
C539 C 0.68536 0.58932 0.5623 0.0
C540 C 0.7544 0.56377 0.57106 0.0
N541 N 0.72852 0.52354 0.56681 0.0
O542 O 0.67378 0.67811 0.58074 0.0
H543 H 0.65552 0.61252 0.55844 0.0
H544 H 0.79126 0.56182 0.57578 0.0
O545 O 0.71917 0.68491 0.54634 0.0
C546 C 0.68219 0.67085 0.59694 0.0
O547 O 0.72789 0.66663 0.60185 0.0
N548 N 0.80385 0.67264 0.56554 0.0
C549 C 0.90273 0.69078 0.56463 0.0
C550 C 0.87139 0.71563 0.55342 0.0
C551 C 0.82211 0.70588 0.55401 0.0
C552 C 0.83406 0.64835 0.5766 0.0
C553 C 0.88423 0.65461 0.57561 0.0
H554 H 0.79832 0.72891 0.54652 0.0
H555 H 0.81921 0.62783 0.58735 0.0
H556 H 0.69979 0.78323 0.55808 0.0
H557 H 0.79587 0.8327 0.59703 0.0
H558 H 0.65562 0.51671 0.55673 0.0
H559 H 0.88445 0.74476 0.54511 0.0
H560 H 0.90771 0.63578 0.58473 0.0
C561 C 0.53122 0.54909 0.83802 0.0
C562 C 0.48193 0.5414 0.83925 0.0
N563 N 0.46884 0.50885 0.82706 0.0
N564 N 0.5498 0.52209 0.82492 0.0
C565 C 0.51075 0.49707 0.81864 0.0
H566 H 0.55216 0.5744 0.84579 0.0
Co567 Co 0.61666 0.52959 0.81817 0.0
C568 C 0.605 0.53231 0.77911 0.0
O569 O 0.61736 0.57824 0.77904 0.0
N570 N 0.6856 0.53731 0.81211 0.0
C571 C 0.75532 0.5676 0.8013 0.0
C572 C 0.70559 0.57014 0.80096 0.0
C573 C 0.72562 0.51561 0.81927 0.0
N574 N 0.76808 0.53349 0.81284 0.0
O575 O 0.62807 0.46514 0.82587 0.0
H576 H 0.68649 0.59805 0.794 0.0
H577 H 0.72413 0.48862 0.82949 0.0
O578 O 0.60234 0.50819 0.79352 0.0
C579 C 0.63354 0.47142 0.84226 0.0
O580 O 0.63461 0.51619 0.84824 0.0
N581 N 0.6041 0.59426 0.81324 0.0
C582 C 0.57553 0.69008 0.81347 0.0
C583 C 0.54624 0.65492 0.80555 0.0
C584 C 0.56139 0.60729 0.80541 0.0
C585 C 0.63232 0.62806 0.82148 0.0
C586 C 0.62011 0.67697 0.82084 0.0
H587 H 0.53786 0.58036 0.79958 0.0
H588 H 0.66375 0.61696 0.82897 0.0
H589 H 0.51264 0.47175 0.80791 0.0
H590 H 0.45725 0.55901 0.84823 0.0
H591 H 0.78043 0.59086 0.79429 0.0
H592 H 0.51119 0.66401 0.79993 0.0
H593 H 0.6431 0.70367 0.82719 0.0
C594 C 0.71032 0.25309 0.09595 0.0
C595 C 0.71258 0.20343 0.09702 0.0
N596 N 0.73631 0.18691 0.08294 0.0
N597 N 0.73233 0.26862 0.08124 0.0
C598 C 0.74838 0.22711 0.07352 0.0
H599 H 0.69247 0.27672 0.10519 0.0
Co600 Co 0.72946 0.33649 0.07678 0.0
C601 C 0.72461 0.35477 0.03912 0.0
O602 O 0.68766 0.3821 0.04378 0.0
N603 N 0.72836 0.40576 0.07376 0.0
C604 C 0.76197 0.47655 0.06606 0.0
C605 C 0.76662 0.42716 0.06571 0.0
C606 C 0.70183 0.44411 0.07972 0.0
N607 N 0.72132 0.48746 0.07486 0.0
O608 O 0.7948 0.34262 0.0852 0.0
H609 H 0.79704 0.40785 0.0601 0.0
H610 H 0.67068 0.44101 0.0882 0.0
O611 O 0.74878 0.33128 0.05102 0.0
C612 C 0.79093 0.35375 0.10129 0.0
O613 O 0.74685 0.35891 0.10768 0.0
N614 N 0.664 0.32755 0.07055 0.0
C615 C 0.57335 0.28336 0.06935 0.0
C616 C 0.61037 0.26812 0.05831 0.0
C617 C 0.65486 0.29091 0.05894 0.0
C618 C 0.62775 0.34419 0.08108 0.0
C619 C 0.58116 0.32363 0.08022 0.0
H620 H 0.68353 0.27435 0.05157 0.0
H621 H 0.63582 0.36952 0.09139 0.0
H622 H 0.76729 0.22617 0.06117 0.0
H623 H 0.69743 0.18091 0.10725 0.0
H624 H 0.7878 0.50275 0.06098 0.0
H625 H 0.60604 0.23648 0.05004 0.0
H626 H 0.55309 0.33573 0.08911 0.0
C627 C 0.01329 0.57852 0.3123 0.0
C628 C 0.06278 0.58606 0.31351 0.0
N629 N 0.08282 0.54703 0.32123 0.0
N630 N 1.0019 0.53469 0.31911 0.0
C631 C 0.04526 0.51661 0.32471 0.0
H632 H 0.98725 0.60312 0.30647 0.0
Co633 Co 0.93835 0.50688 0.31952 0.0
C634 C 0.91313 0.50165 0.28196 0.0
O635 O 0.89988 0.45641 0.28453 0.0
N636 N 0.87256 0.47901 0.32011 0.0
C637 C 0.80925 0.42766 0.31791 0.0
C638 C 0.85885 0.43257 0.31662 0.0
C639 C 0.82925 0.50125 0.32373 0.0
N640 N 0.79038 0.47071 0.32243 0.0
O641 O 0.91413 0.56646 0.32861 0.0
H642 H 0.88272 0.40352 0.31269 0.0
H643 H 0.82592 0.53923 0.32715 0.0
O644 O 0.92809 0.52738 0.29486 0.0
C645 C 0.92447 0.56376 0.34482 0.0
O646 O 0.94134 0.52196 0.35053 0.0
N647 N 0.96595 0.44814 0.31324 0.0
C648 C 0.02453 0.36689 0.31268 0.0
C649 C 0.02481 0.39884 0.29856 0.0
C650 C 0.99564 0.44009 0.29923 0.0
C651 C 0.96652 0.41755 0.3272 0.0
C652 C 0.99491 0.37605 0.32705 0.0
H653 H 0.9996 0.46672 0.2891 0.0
H654 H 0.94574 0.42639 0.33873 0.0
H655 H 0.04954 0.48142 0.33082 0.0
H656 H 0.08275 0.61738 0.3088 0.0
H657 H 0.78842 0.3948 0.31564 0.0
H658 H 0.04841 0.39273 0.28748 0.0
H659 H 0.99473 0.3519 0.33823 0.0
C660 C 0.77076 0.27693 0.90628 0.0
C661 C 0.76685 0.22759 0.90457 0.0
N662 N 0.74429 0.21008 0.91878 0.0
N663 N 0.74935 0.29159 0.92117 0.0
C664 C 0.73324 0.24961 0.92857 0.0
H665 H 0.79159 0.30037 0.89778 0.0
Co666 Co 0.75978 0.35716 0.92764 0.0
C667 C 0.74371 0.36552 0.96537 0.0
O668 O 0.78541 0.38865 0.96521 0.0
N669 N 0.77227 0.42612 0.93275 0.0
C670 C 0.80981 0.49687 0.93869 0.0
C671 C 0.81418 0.44727 0.93844 0.0
C672 C 0.74295 0.46529 0.92964 0.0
N673 N 0.76516 0.50834 0.93312 0.0
O674 O 0.70103 0.37389 0.9157 0.0
H675 H 0.84652 0.42865 0.94266 0.0
H676 H 0.70649 0.46276 0.92445 0.0
O677 O 0.72556 0.34949 0.95094 0.0
C678 C 0.71232 0.38351 0.89993 0.0
O679 O 0.75877 0.38666 0.89597 0.0
N680 N 0.81865 0.33699 0.93723 0.0
C681 C 0.90462 0.29061 0.94548 0.0
C682 C 0.86174 0.27722 0.95377 0.0
C683 C 0.81925 0.30067 0.94941 0.0
C684 C 0.85987 0.34833 0.92823 0.0
C685 C 0.90409 0.32712 0.93273 0.0
H686 H 0.78641 0.2868 0.95502 0.0
H687 H 0.85815 0.37345 0.91738 0.0
H688 H 0.71742 0.24735 0.94138 0.0
H689 H 0.78364 0.20568 0.89453 0.0
H690 H 0.83764 0.52277 0.94244 0.0
H691 H 0.86078 0.24744 0.96303 0.0
H692 H 0.93684 0.33681 0.92567 0.0
C693 C 0.99975 0.5331 0.15003 0.0
C694 C 0.04923 0.5257 0.15037 0.0
N695 N 0.06121 0.50603 0.16584 0.0
N696 N 0.97981 0.51835 0.16522 0.0
C697 C 0.01843 0.50176 0.17467 0.0
H698 H 0.97957 0.5497 0.13949 0.0
Co699 Co 0.91239 0.52952 0.16989 0.0
C700 C 0.91335 0.54652 0.20844 0.0
O701 O 0.89613 0.59035 0.20607 0.0
N702 N 0.84291 0.54141 0.17433 0.0
C703 C 0.77311 0.57929 0.18115 0.0
C704 C 0.82271 0.58352 0.18005 0.0
C705 C 0.80318 0.51205 0.17203 0.0
N706 N 0.76063 0.53444 0.17611 0.0
O707 O 0.89949 0.46216 0.16589 0.0
H708 H 0.84207 0.61667 0.18295 0.0
H709 H 0.80492 0.47529 0.16716 0.0
O710 O 0.92248 0.51882 0.19537 0.0
C711 C 0.89205 0.46074 0.14944 0.0
O712 O 0.89184 0.50221 0.1409 0.0
N713 N 0.92635 0.59538 0.17069 0.0
C714 C 0.95452 0.68979 0.16357 0.0
C715 C 0.97725 0.66378 0.17696 0.0
C716 C 0.96331 0.61588 0.18005 0.0
C717 C 0.9054 0.61996 0.15718 0.0
C718 C 0.91809 0.66781 0.15369 0.0
H719 H 0.98356 0.5946 0.18932 0.0
H720 H 0.87906 0.60191 0.14892 0.0
H721 H 0.01559 0.48813 0.18787 0.0
H722 H 0.07473 0.53458 0.14009 0.0
H723 H 0.74782 0.60745 0.18498 0.0
H724 H 0.00674 0.67973 0.18441 0.0
H725 H 0.90026 0.68748 0.14329 0.0
C726 C 0.73688 0.73924 0.40003 0.0
C727 C 0.73789 0.78899 0.39874 0.0
N728 N 0.75943 0.80678 0.41314 0.0
N729 N 0.758 0.72521 0.4151 0.0
C730 C 0.77187 0.76743 0.42282 0.0
H731 H 0.72039 0.71464 0.39075 0.0
Co732 Co 0.75979 0.6585 0.42132 0.0
C733 C 0.74515 0.65132 0.45922 0.0
O734 O 0.71226 0.61929 0.45435 0.0
N735 N 0.76483 0.59009 0.42647 0.0
C736 C 0.80211 0.5251 0.43775 0.0
C737 C 0.79897 0.57466 0.43792 0.0
C738 C 0.75024 0.54818 0.41851 0.0
N739 N 0.77169 0.50817 0.4255 0.0
O740 O 0.82668 0.65732 0.41486 0.0
H741 H 0.82265 0.59821 0.44537 0.0
H742 H 0.72789 0.54689 0.40692 0.0
O743 O 0.77134 0.67266 0.44735 0.0
C744 C 0.82306 0.64542 0.39879 0.0
O745 O 0.77949 0.63645 0.39242 0.0
N746 N 0.69227 0.66147 0.42524 0.0
C747 C 0.59404 0.68384 0.42648 0.0
C748 C 0.62802 0.71306 0.43495 0.0
C749 C 0.67635 0.70076 0.43451 0.0
C750 C 0.6597 0.63275 0.41658 0.0
C751 C 0.60972 0.64224 0.4176 0.0
H752 H 0.70131 0.72477 0.44105 0.0
H753 H 0.67207 0.60399 0.40823 0.0
H754 H 0.78874 0.76948 0.43555 0.0
H755 H 0.72202 0.81069 0.38842 0.0
H756 H 0.82751 0.50322 0.44517 0.0
H757 H 0.6173 0.74579 0.4418 0.0
H758 H 0.58399 0.61905 0.41085 0.0
C759 C 0.52703 0.45554 0.6479 0.0
C760 C 0.47726 0.461 0.64682 0.0
N761 N 0.46223 0.48699 0.66061 0.0
N762 N 0.54357 0.47783 0.66242 0.0
C763 C 0.50306 0.49721 0.66983 0.0
H764 H 0.54974 0.43583 0.63884 0.0
Co765 Co 0.60967 0.47826 0.66981 0.0
C766 C 0.58296 0.47234 0.70832 0.0
O767 O 0.58689 0.42498 0.70878 0.0
N768 N 0.6769 0.48094 0.67726 0.0
C769 C 0.74387 0.46899 0.69335 0.0
C770 C 0.69422 0.46483 0.69278 0.0
C771 C 0.71789 0.49461 0.66853 0.0
N772 N 0.75889 0.4875 0.67813 0.0
O773 O 0.61242 0.5453 0.66334 0.0
H774 H 0.67295 0.44817 0.7029 0.0
H775 H 0.71795 0.50804 0.65527 0.0
O776 O 0.58993 0.49583 0.69404 0.0
C777 C 0.61968 0.54769 0.64694 0.0
O778 O 0.62642 0.50693 0.63836 0.0
N779 N 0.60722 0.40974 0.67416 0.0
C780 C 0.60843 0.31245 0.68384 0.0
C781 C 0.56446 0.33785 0.68294 0.0
C782 C 0.56463 0.3865 0.67827 0.0
C783 C 0.64853 0.3826 0.67192 0.0
C784 C 0.65085 0.33476 0.67786 0.0
H785 H 0.53098 0.40598 0.67979 0.0
H786 H 0.68096 0.39821 0.66631 0.0
H787 H 0.50323 0.51769 0.68186 0.0
H788 H 0.45358 0.44679 0.63683 0.0
H789 H 0.76747 0.45772 0.70391 0.0
H790 H 0.53064 0.32123 0.68717 0.0
H791 H 0.68543 0.31594 0.67805 0.0
C792 C 0.34509 0.25767 0.43534 0.0
C793 C 0.35339 0.2083 0.43429 0.0
N794 N 0.31245 0.18661 0.42855 0.0
N795 N 0.29892 0.26737 0.43043 0.0
C796 C 0.28038 0.22319 0.42595 0.0
H797 H 0.37034 0.28452 0.44031 0.0
Co798 Co 0.26744 0.3292 0.43236 0.0
C799 C 0.2693 0.34756 0.47013 0.0
O800 O 0.22241 0.35588 0.46896 0.0
N801 N 0.23666 0.39334 0.43434 0.0
C802 C 0.18517 0.45516 0.43921 0.0
C803 C 0.19055 0.40547 0.43897 0.0
C804 C 0.25828 0.4377 0.43191 0.0
N805 N 0.22772 0.47558 0.43472 0.0
O806 O 0.32244 0.35987 0.42177 0.0
H807 H 0.16216 0.38041 0.44267 0.0
H808 H 0.29586 0.44264 0.42813 0.0
O809 O 0.2937 0.33716 0.45636 0.0
C810 C 0.32184 0.35162 0.40537 0.0
O811 O 0.29045 0.31994 0.39917 0.0
N812 N 0.21189 0.29667 0.44021 0.0
C813 C 0.13422 0.23245 0.44273 0.0
C814 C 0.17281 0.22956 0.45457 0.0
C815 C 0.21123 0.26253 0.45322 0.0
C816 C 0.1755 0.29821 0.42817 0.0
C817 C 0.13537 0.26781 0.4296 0.0
H818 H 0.24226 0.25754 0.46159 0.0
H819 H 0.17847 0.3224 0.4171 0.0
H820 H 0.24305 0.21735 0.42194 0.0
H821 H 0.3859 0.18942 0.43848 0.0
H822 H 0.15236 0.47494 0.44241 0.0
H823 H 0.17391 0.20122 0.46438 0.0
H824 H 0.10661 0.27013 0.41995 0.0
C825 C 0.49624 0.43963 0.16214 0.0
C826 C 0.5452 0.44744 0.16011 0.0
N827 N 0.55921 0.48143 0.1716 0.0
N828 N 0.4786 0.46832 0.17492 0.0
C829 C 0.51817 0.49399 0.18044 0.0
H830 H 0.47476 0.41336 0.155 0.0
Co831 Co 0.41157 0.45985 0.18076 0.0
C832 C 0.40297 0.47705 0.2185 0.0
O833 O 0.38178 0.43444 0.2191 0.0
N834 N 0.34145 0.45013 0.18517 0.0
C835 C 0.2689 0.417 0.19184 0.0
C836 C 0.31852 0.41168 0.19272 0.0
C837 C 0.30327 0.47821 0.17966 0.0
N838 N 0.25908 0.45875 0.1836 0.0
O839 O 0.39795 0.51874 0.16885 0.0
H840 H 0.33597 0.3807 0.19861 0.0
H841 H 0.30734 0.51163 0.17237 0.0
O842 O 0.41822 0.4942 0.20382 0.0
C843 C 0.3951 0.50926 0.15264 0.0
O844 O 0.39337 0.4632 0.14813 0.0
N845 N 0.42911 0.40029 0.1908 0.0
C846 C 0.4763 0.31385 0.1984 0.0
C847 C 0.49159 0.35702 0.2061 0.0
C848 C 0.46747 0.39965 0.2022 0.0
C849 C 0.41447 0.35851 0.18281 0.0
C850 C 0.43618 0.31426 0.18706 0.0
H851 H 0.48282 0.43278 0.20717 0.0
H852 H 0.38721 0.35984 0.17264 0.0
H853 H 0.51729 0.52035 0.19087 0.0
H854 H 0.56906 0.42898 0.15106 0.0
H855 H 0.24189 0.39133 0.19646 0.0
H856 H 0.52361 0.35821 0.21436 0.0
H857 H 0.42443 0.28136 0.18053 0.0
C858 C 0.27116 0.74262 0.91509 0.0
C859 C 0.26438 0.79211 0.91532 0.0
N860 N 0.2488 0.80492 0.93123 0.0
N861 N 0.25942 0.72301 0.93067 0.0
C862 C 0.2461 0.76247 0.94036 0.0
H863 H 0.28789 0.72263 0.90461 0.0
Co864 Co 0.27705 0.65604 0.93442 0.0
C865 C 0.2561 0.62978 0.97063 0.0
O866 O 0.29877 0.60835 0.97007 0.0
N867 N 0.29641 0.58801 0.93688 0.0
C868 C 0.3399 0.51908 0.93706 0.0
C869 C 0.34194 0.56895 0.93655 0.0
C870 C 0.26737 0.54772 0.93774 0.0
N871 N 0.29308 0.50561 0.9378 0.0
O872 O 0.22172 0.63566 0.92085 0.0
H873 H 0.37549 0.58897 0.93579 0.0
H874 H 0.22812 0.54906 0.93808 0.0
O875 O 0.24032 0.65164 0.95688 0.0
C876 C 0.23459 0.62478 0.90533 0.0
O877 O 0.28118 0.62682 0.90149 0.0
N878 N 0.33258 0.67885 0.94574 0.0
C879 C 0.40645 0.74539 0.95162 0.0
C880 C 0.36793 0.74145 0.96338 0.0
C881 C 0.33125 0.70784 0.96023 0.0
C882 C 0.37139 0.68068 0.93476 0.0
C883 C 0.41017 0.71174 0.93802 0.0
H884 H 0.29911 0.71095 0.96811 0.0
H885 H 0.36998 0.66166 0.92244 0.0
H886 H 0.2386 0.76114 0.95413 0.0
H887 H 0.27338 0.81728 0.90494 0.0
H888 H 0.37051 0.4944 0.93659 0.0
H889 H 0.36318 0.76784 0.97371 0.0
H890 H 0.43942 0.7142 0.92859 0.0
C891 C 0.02713 0.5372 0.65207 0.0
C892 C 0.97778 0.53075 0.65101 0.0
N893 N 0.96289 0.50832 0.66559 0.0
N894 N 0.04426 0.51873 0.66719 0.0
C895 C 1.00379 0.501 0.67526 0.0
H896 H 0.04902 0.55686 0.64272 0.0
Co897 Co 0.11123 0.53121 0.67196 0.0
C898 C 0.12389 0.53037 0.71021 0.0
O899 O 0.14172 0.5742 0.70828 0.0
N900 N 0.18095 0.54463 0.67524 0.0
C901 C 0.25273 0.58169 0.6799 0.0
C902 C 0.20307 0.58632 0.68053 0.0
C903 C 0.21956 0.51537 0.67125 0.0
N904 N 0.26328 0.5372 0.67398 0.0
O905 O 0.12585 0.46837 0.66311 0.0
H906 H 0.18504 0.61902 0.68472 0.0
H907 H 0.21616 0.47905 0.66604 0.0
O908 O 0.10803 0.5066 0.69682 0.0
C909 C 0.13029 0.47247 0.64664 0.0
O910 O 0.13293 0.51668 0.64017 0.0
N911 N 0.09264 0.59356 0.67869 0.0
C912 C 0.04474 0.68151 0.68199 0.0
C913 C 0.03064 0.64168 0.69202 0.0
C914 C 0.05537 0.59838 0.69035 0.0
C915 C 0.10547 0.63151 0.66821 0.0
C916 C 0.08364 0.67682 0.67029 0.0
H917 H 0.04184 0.5677 0.69757 0.0
H918 H 0.13191 0.62624 0.65795 0.0
H919 H 1.00376 0.48568 0.68824 0.0
H920 H 0.9541 0.54378 0.64073 0.0
H921 H 0.27926 0.60949 0.68305 0.0
H922 H 0.99974 0.64362 0.70076 0.0
H923 H 0.09479 0.70696 0.66211 0.0
C924 C 0.22684 0.7033 0.10584 0.0
C925 C 0.2335 0.75236 0.10781 0.0
N926 N 0.24518 0.77149 0.09222 0.0
N927 N 0.23573 0.69037 0.08918 0.0
C928 C 0.24747 0.73301 0.08116 0.0
H929 H 0.21356 0.67899 0.11583 0.0
Co930 Co 0.22437 0.62492 0.08182 0.0
C931 C 0.20898 0.64429 0.04324 0.0
O932 O 0.16161 0.64116 0.04478 0.0
N933 N 0.21427 0.55766 0.07515 0.0
C934 C 0.18675 0.48973 0.06233 0.0
C935 C 0.18483 0.53958 0.06249 0.0
C936 C 0.23334 0.5169 0.08258 0.0
N937 N 0.21721 0.47555 0.07497 0.0
O938 O 0.29166 0.61196 0.08585 0.0
H939 H 0.16119 0.56044 0.05427 0.0
H940 H 0.25793 0.51689 0.09355 0.0
O941 O 0.23702 0.641 0.05667 0.0
C942 C 0.29444 0.60239 0.1021 0.0
O943 O 0.25393 0.59933 0.11112 0.0
N944 N 0.15722 0.63821 0.08019 0.0
C945 C 0.05868 0.6597 0.08102 0.0
C946 C 0.09236 0.69472 0.07573 0.0
C947 C 0.14111 0.683 0.07506 0.0
C948 C 0.12503 0.60515 0.08689 0.0
C949 C 0.07511 0.61408 0.08647 0.0
H950 H 0.1653 0.70947 0.06948 0.0
H951 H 0.13773 0.57143 0.09249 0.0
H952 H 0.25325 0.73641 0.06726 0.0
H953 H 0.22605 0.77315 0.11948 0.0
H954 H 0.16653 0.46558 0.05385 0.0
H955 H 0.08081 0.73047 0.07146 0.0
H956 H 0.04979 0.58634 0.09079 0.0
C957 C 0.03477 0.47775 0.84134 0.0
C958 C 0.98569 0.48615 0.8426 0.0
N959 N 0.97059 0.50616 0.82761 0.0
N960 N 0.05181 0.49318 0.82579 0.0
C961 C 0.01123 0.51026 0.81758 0.0
H962 H 0.05623 0.45792 0.85075 0.0
Co963 Co 0.11772 0.47588 0.82074 0.0
C964 C 0.13643 0.48995 0.78329 0.0
O965 O 0.15788 0.4475 0.78428 0.0
N966 N 0.18544 0.45636 0.81722 0.0
C967 C 0.25305 0.41122 0.81471 0.0
C968 C 0.20303 0.41077 0.81477 0.0
C969 C 0.22678 0.48379 0.8185 0.0
N970 N 0.26807 0.45706 0.81712 0.0
O971 O 0.13922 0.534 0.8325 0.0
H972 H 0.1816 0.37836 0.81302 0.0
H973 H 0.22695 0.5224 0.82089 0.0
O974 O 0.11746 0.50863 0.79714 0.0
C975 C 0.14972 0.52459 0.84839 0.0
O976 O 0.1492 0.47889 0.8534 0.0
N977 N 0.09315 0.4183 0.81134 0.0
C978 C 0.02275 0.34649 0.80924 0.0
C979 C 0.02524 0.38255 0.79651 0.0
C980 C 0.06037 0.41846 0.79789 0.0
C981 C 0.09346 0.38102 0.82305 0.0
C982 C 0.05943 0.34362 0.82189 0.0
H983 H 0.05555 0.44957 0.78966 0.0
H984 H 0.11686 0.38299 0.83438 0.0
H985 H 0.01043 0.52258 0.80429 0.0
H986 H 0.96217 0.47534 0.85325 0.0
H987 H 0.27673 0.38004 0.81339 0.0
H988 H 0.99674 0.38631 0.78682 0.0
H989 H 0.0581 0.31616 0.83202 0.0
C990 C 0.31243 0.27271 0.60088 0.0
C991 C 0.30441 0.22329 0.60086 0.0
N992 N 0.28293 0.21106 0.58573 0.0
N993 N 0.2963 0.29231 0.5858 0.0
C994 C 0.27815 0.25358 0.57679 0.0
H995 H 0.32937 0.29322 0.61128 0.0
Co996 Co 0.30171 0.36068 0.58079 0.0
C997 C 0.32817 0.34809 0.54255 0.0
O998 O 0.37483 0.35529 0.54502 0.0
N999 N 0.30677 0.43015 0.57571 0.0
C1000 C 0.33655 0.50012 0.56512 0.0
C1001 C 0.34076 0.4505 0.56517 0.0
C1002 C 0.28262 0.46956 0.58219 0.0
N1003 N 0.3002 0.51236 0.57586 0.0
O1004 O 0.23319 0.36602 0.58239 0.0
H1005 H 0.36936 0.43127 0.55866 0.0
H1006 H 0.25377 0.4673 0.59173 0.0
O1007 O 0.29828 0.34774 0.5554 0.0
C1008 C 0.22897 0.37131 0.59886 0.0
O1009 O 0.26892 0.37298 0.60832 0.0
N1010 N 0.36897 0.35595 0.58252 0.0
C1011 C 0.46153 0.34356 0.59602 0.0
C1012 C 0.44353 0.3113 0.58344 0.0
C1013 C 0.39645 0.31762 0.57704 0.0
C1014 C 0.38631 0.38697 0.59497 0.0
C1015 C 0.43281 0.38187 0.60168 0.0
H1016 H 0.38107 0.29033 0.5685 0.0
H1017 H 0.36288 0.41415 0.60065 0.0
H1018 H 0.26165 0.25639 0.56402 0.0
H1019 H 0.3133 0.19815 0.61125 0.0
H1020 H 0.35983 0.52558 0.55829 0.0
H1021 H 0.46479 0.28027 0.5793 0.0
H1022 H 0.44559 0.4063 0.61168 0.0
C1023 C 0.52243 0.52626 0.34815 0.0
C1024 C 0.57147 0.51752 0.34872 0.0
N1025 N 0.58496 0.49734 0.33357 0.0
N1026 N 0.5036 0.51176 0.33273 0.0
C1027 C 0.54305 0.49369 0.32405 0.0
H1028 H 0.50244 0.54571 0.35802 0.0
Co1029 Co 0.43823 0.53343 0.32816 0.0
C1030 C 0.41965 0.53032 0.29051 0.0
O1031 O 0.40792 0.57618 0.29242 0.0
N1032 N 0.37143 0.55636 0.3249 0.0
C1033 C 0.30483 0.60197 0.32088 0.0
C1034 C 0.3548 0.60195 0.32178 0.0
C1035 C 0.32953 0.5296 0.32597 0.0
N1036 N 0.28869 0.55656 0.32367 0.0
O1037 O 0.41303 0.47539 0.33874 0.0
H1038 H 0.37696 0.63383 0.31983 0.0
H1039 H 0.32858 0.49107 0.32874 0.0
O1040 O 0.43512 0.50568 0.30379 0.0
C1041 C 0.40547 0.48382 0.35491 0.0
O1042 O 0.41453 0.52748 0.36102 0.0
N1043 N 0.46591 0.59103 0.32012 0.0
C1044 C 0.53192 0.66684 0.3176 0.0
C1045 C 0.53339 0.62884 0.30569 0.0
C1046 C 0.50036 0.59103 0.30724 0.0
C1047 C 0.46363 0.62838 0.3317 0.0
C1048 C 0.49534 0.66763 0.33033 0.0
H1049 H 0.50616 0.55968 0.29917 0.0
H1050 H 0.43922 0.62607 0.34273 0.0
H1051 H 0.54198 0.48126 0.31072 0.0
H1052 H 0.59604 0.52747 0.35918 0.0
H1053 H 0.28185 0.63334 0.31873 0.0
H1054 H 0.56206 0.62667 0.29604 0.0
H1055 H 0.49395 0.69633 0.33997 0.0
C1056 C 0.18573 0.13872 0.1423 0.0
C1057 C 0.16635 0.1209 0.12634 0.0
C1058 C 0.10137 0.0822 0.14283 0.0
C1059 C 0.13062 0.08499 0.15792 0.0
N1060 N 0.19601 0.12362 0.17329 0.0
N1061 N 0.10101 0.07861 0.11139 0.0
C1062 C 0.17078 0.11682 0.15817 0.0
C1063 C 0.12195 0.09454 0.12648 0.0
N1064 N 0.21903 0.17559 0.14205 0.0
N1065 N 0.05389 0.06874 0.14436 0.0
H1066 H 0.11367 0.0881 0.09908 0.0
H1067 H 0.07193 0.05421 0.11123 0.0
H1068 H 0.03781 0.0658 0.15663 0.0
H1069 H 0.02971 0.06806 0.13389 0.0
H1070 H 0.23252 0.19208 0.15328 0.0
H1071 H 0.22907 0.19273 0.13044 0.0
H1072 H 0.22922 0.14186 0.17394 0.0
H1073 H 0.18357 0.10962 0.18513 0.0
C1074 C 0.1307 0.86874 0.36654 0.0
C1075 C 0.10293 0.90833 0.37291 0.0
C1076 C 0.10876 0.87664 0.40268 0.0
C1077 C 0.14535 0.84463 0.3967 0.0
N1078 N 0.16995 0.79198 0.37351 0.0
N1079 N 0.04793 0.93724 0.39482 0.0
C1080 C 0.14843 0.83419 0.3787 0.0
C1081 C 0.08567 0.90757 0.39032 0.0
N1082 N 0.14349 0.86607 0.34938 0.0
N1083 N 0.09761 0.87862 0.41998 0.0
H1084 H 0.03043 0.95906 0.3856 0.0
H1085 H 0.03158 0.93743 0.40705 0.0
H1086 H 0.10885 0.85187 0.42872 0.0
H1087 H 0.0762 0.90557 0.42556 0.0
H1088 H 0.16963 0.84208 0.34468 0.0
H1089 H 0.1285 0.88816 0.33978 0.0
H1090 H 0.17075 0.78024 0.36062 0.0
H1091 H 0.18267 0.76665 0.38259 0.0
C1092 C 0.3013 0.95863 0.62503 0.0
C1093 C 0.31282 0.91138 0.61886 0.0
C1094 C 0.375 0.90322 0.64169 0.0
C1095 C 0.36557 0.95173 0.64685 0.0
N1096 N 0.3287 0.02955 0.64062 0.0
N1097 N 0.36336 0.83993 0.61992 0.0
C1098 C 0.3315 0.98061 0.63767 0.0
C1099 C 0.35082 0.88409 0.62671 0.0
N1100 N 0.2603 0.98207 0.61945 0.0
N1101 N 0.40638 0.87546 0.65128 0.0
H1102 H 0.34535 0.82445 0.60931 0.0
H1103 H 0.39344 0.82001 0.624 0.0
H1104 H 0.42494 0.88895 0.66213 0.0
H1105 H 0.41172 0.83846 0.64928 0.0
H1106 H 0.24758 0.01399 0.6251 0.0
H1107 H 0.2363 0.96779 0.61031 0.0
H1108 H 0.30998 0.05312 0.63236 0.0
H1109 H 0.34849 0.04743 0.65028 0.0
C1110 C 0.37785 0.07981 0.88976 0.0
C1111 C 0.3547 0.08785 0.87349 0.0
C1112 C 0.30976 0.15466 0.88661 0.0
C1113 C 0.3204 0.13507 0.90325 0.0
N1114 N 0.36908 0.08062 0.921 0.0
N1115 N 0.30251 0.13881 0.85574 0.0
C1116 C 0.35683 0.09909 0.90505 0.0
C1117 C 0.3228 0.12796 0.87152 0.0
N1118 N 0.41997 0.05377 0.89047 0.0
N1119 N 0.2863 0.19826 0.88543 0.0
H1120 H 0.31311 0.12259 0.84413 0.0
H1121 H 0.27393 0.16329 0.85426 0.0
H1122 H 0.27724 0.21833 0.89651 0.0
H1123 H 0.28063 0.21648 0.87369 0.0
H1124 H 0.44051 0.04961 0.9018 0.0
H1125 H 0.43719 0.04189 0.87919 0.0
H1126 H 0.39012 0.04942 0.9225 0.0
H1127 H 0.35703 0.09494 0.93275 0.0
C1128 C 0.82798 0.88462 0.86111 0.0
C1129 C 0.86239 0.92188 0.86439 0.0
C1130 C 0.86534 0.89957 0.89536 0.0
C1131 C 0.82582 0.86742 0.89248 0.0
N1132 N 0.78657 0.81307 0.87243 0.0
N1133 N 0.92904 0.94881 0.88224 0.0
C1134 C 0.81367 0.854 0.87515 0.0
C1135 C 0.88643 0.92355 0.88077 0.0
N1136 N 0.80616 0.88087 0.84518 0.0
N1137 N 0.88055 0.90978 0.91189 0.0
H1138 H 0.94532 0.96516 0.87144 0.0
H1139 H 0.9504 0.94896 0.89347 0.0
H1140 H 0.86915 0.89002 0.92271 0.0
H1141 H 0.90413 0.93832 0.91485 0.0
H1142 H 0.77634 0.85838 0.84278 0.0
H1143 H 0.81669 0.90163 0.83447 0.0
H1144 H 0.77896 0.79923 0.86009 0.0
H1145 H 0.77604 0.79063 0.88277 0.0
C1146 C 0.83961 0.14083 0.64641 0.0
C1147 C 0.88314 0.11568 0.64316 0.0
C1148 C 0.86763 0.11792 0.61167 0.0
C1149 C 0.81961 0.13505 0.61502 0.0
N1150 N 0.76032 0.16475 0.63604 0.0
N1151 N 0.94806 0.09961 0.62339 0.0
C1152 C 0.806 0.14791 0.63249 0.0
C1153 C 0.90028 0.11121 0.6259 0.0
N1154 N 0.83126 0.15904 0.66268 0.0
N1155 N 0.88052 0.10319 0.59529 0.0
H1156 H 0.97179 0.09475 0.63391 0.0
H1157 H 0.96504 0.09963 0.61127 0.0
H1158 H 0.85758 0.10531 0.58452 0.0
H1159 H 0.91286 0.08522 0.5925 0.0
H1160 H 0.80167 0.18074 0.66592 0.0
H1161 H 0.85757 0.15771 0.67245 0.0
H1162 H 0.74614 0.16792 0.64856 0.0
H1163 H 0.73491 0.17329 0.62656 0.0
C1164 C 0.59229 0.1109 0.38372 0.0
C1165 C 0.60797 0.11609 0.36625 0.0
C1166 C 0.66722 0.17625 0.3757 0.0
C1167 C 0.66367 0.15683 0.39277 0.0
N1168 N 0.61578 0.114 0.41419 0.0
N1169 N 0.65085 0.16375 0.34491 0.0
C1170 C 0.62285 0.1281 0.39733 0.0
C1171 C 0.64135 0.15328 0.36194 0.0
N1172 N 0.55004 0.08643 0.38699 0.0
N1173 N 0.69676 0.21534 0.37283 0.0
H1174 H 0.62956 0.15 0.33479 0.0
H1175 H 0.67946 0.1859 0.34086 0.0
H1176 H 0.71484 0.23246 0.38312 0.0
H1177 H 0.69955 0.23317 0.3609 0.0
H1178 H 0.53471 0.08318 0.39934 0.0
H1179 H 0.52853 0.07309 0.37681 0.0
H1180 H 0.59026 0.08798 0.41792 0.0
H1181 H 0.63603 0.12816 0.42449 0.0
C1182 C 0.60154 0.86236 0.14509 0.0
C1183 C 0.58844 0.91205 0.14658 0.0
C1184 C 0.59928 0.92293 0.11501 0.0
C1185 C 0.62053 0.8765 0.1143 0.0
N1186 N 0.61567 0.79532 0.12513 0.0
N1187 N 0.55121 0.97992 0.13187 0.0
C1188 C 0.61295 0.84389 0.12828 0.0
C1189 C 0.57915 0.93905 0.13106 0.0
N1190 N 0.60505 0.83339 0.15946 0.0
N1191 N 0.60029 0.95199 0.10062 0.0
H1192 H 0.53441 0.99061 0.14344 0.0
H1193 H 0.54069 0.99981 0.12095 0.0
H1194 H 0.61107 0.93862 0.08851 0.0
H1195 H 0.59093 0.98865 0.10077 0.0
H1196 H 0.62103 0.79909 0.1592 0.0
H1197 H 0.59218 0.84354 0.17166 0.0
H1198 H 0.6081 0.76877 0.13444 0.0
H1199 H 0.61898 0.78254 0.11239 0.0
C1200 C 0.65764 0.66922 0.62779 0.0
C1201 C 0.64454 0.65916 0.6103 0.0
C1202 C 0.59202 0.59367 0.62076 0.0
C1203 C 0.61808 0.5938 0.63679 0.0
N1204 N 0.67313 0.6354 0.6564 0.0
N1205 N 0.58902 0.61977 0.59053 0.0
C1206 C 0.64894 0.63357 0.64085 0.0
C1207 C 0.60757 0.62456 0.60693 0.0
N1208 N 0.6806 0.71199 0.63152 0.0
N1209 N 0.55242 0.56403 0.61896 0.0
H1210 H 0.59484 0.64575 0.58087 0.0
H1211 H 0.56759 0.59051 0.5866 0.0
H1212 H 0.53972 0.54272 0.62925 0.0
H1213 H 0.52959 0.56423 0.60812 0.0
H1214 H 0.68843 0.72338 0.64417 0.0
H1215 H 0.6872 0.73794 0.62184 0.0
H1216 H 0.70064 0.66045 0.65904 0.0
H1217 H 0.66754 0.61049 0.66641 0.0
C1218 C 0.68949 0.37079 0.86892 0.0
C1219 C 0.67628 0.38929 0.88554 0.0
C1220 C 0.6136 0.43768 0.87125 0.0
C1221 C 0.63819 0.43156 0.85514 0.0
N1222 N 0.69762 0.38765 0.83815 0.0
N1223 N 0.61972 0.4366 0.90269 0.0
C1224 C 0.67478 0.39583 0.85366 0.0
C1225 C 0.63564 0.4207 0.88686 0.0
N1226 N 0.71568 0.32891 0.86784 0.0
N1227 N 0.56938 0.46016 0.87145 0.0
H1228 H 0.63213 0.42259 0.91447 0.0
H1229 H 0.59482 0.46482 0.90411 0.0
H1230 H 0.55228 0.47104 0.85995 0.0
H1231 H 0.54773 0.46281 0.88255 0.0
H1232 H 0.72372 0.31169 0.85611 0.0
H1233 H 0.72333 0.30838 0.87889 0.0
H1234 H 0.72909 0.36678 0.83708 0.0
H1235 H 0.68638 0.4031 0.82645 0.0
C1236 C 0.82626 0.35086 0.13108 0.0
C1237 C 0.83288 0.36305 0.11323 0.0
C1238 C 0.90082 0.41519 0.12183 0.0
C1239 C 0.8828 0.41565 0.13915 0.0
N1240 N 0.83284 0.37711 0.16111 0.0
N1241 N 0.88258 0.40272 0.09134 0.0
C1242 C 0.84773 0.38054 0.14419 0.0
C1243 C 0.87285 0.39294 0.10842 0.0
N1244 N 0.79914 0.31092 0.13532 0.0
N1245 N 0.9446 0.43661 0.11832 0.0
H1246 H 0.86639 0.38432 0.08103 0.0
H1247 H 0.90647 0.43005 0.08739 0.0
H1248 H 0.96597 0.45179 0.12819 0.0
H1249 H 0.96178 0.43451 0.10625 0.0
H1250 H 0.79571 0.29777 0.148 0.0
H1251 H 0.78451 0.28809 0.12578 0.0
H1252 H 0.80243 0.35713 0.16496 0.0
H1253 H 0.85024 0.39496 0.17131 0.0
C1254 C 0.87992 0.64048 0.35495 0.0
C1255 C 0.91412 0.60283 0.35792 0.0
C1256 C 0.90422 0.61106 0.3895 0.0
C1257 C 0.86452 0.64256 0.38649 0.0
N1258 N 0.82969 0.70354 0.36788 0.0
N1259 N 0.97805 0.57719 0.37741 0.0
C1260 C 0.8575 0.66276 0.36962 0.0
C1261 C 0.93278 0.59644 0.37506 0.0
N1262 N 0.86853 0.65467 0.33841 0.0
N1263 N 0.91293 0.59249 0.4057 0.0
H1264 H 1.00092 0.56973 0.36688 0.0
H1265 H 0.99476 0.57466 0.38958 0.0
H1266 H 0.89381 0.60325 0.41673 0.0
H1267 H 0.93778 0.56457 0.40794 0.0
H1268 H 0.83846 0.67606 0.33538 0.0
H1269 H 0.8902 0.64629 0.32771 0.0
H1270 H 0.82518 0.72237 0.35622 0.0
H1271 H 0.81532 0.72127 0.37872 0.0
C1272 C 0.31497 0.42294 0.38545 0.0
C1273 C 0.34437 0.38602 0.39292 0.0
C1274 C 0.41111 0.40773 0.37305 0.0
C1275 C 0.38316 0.44756 0.36681 0.0
N1276 N 0.31191 0.49857 0.36961 0.0
N1277 N 0.42134 0.34508 0.39523 0.0
C1278 C 0.33613 0.45675 0.37375 0.0
C1279 C 0.39281 0.3789 0.38711 0.0
N1280 N 0.26625 0.425 0.38907 0.0
N1281 N 0.45512 0.39769 0.36558 0.0
H1282 H 0.40854 0.32314 0.40535 0.0
H1283 H 0.45837 0.3409 0.39284 0.0
H1284 H 0.47025 0.41899 0.35572 0.0
H1285 H 0.47534 0.36666 0.36831 0.0
H1286 H 0.24204 0.44706 0.38224 0.0
H1287 H 0.24893 0.40181 0.39784 0.0
H1288 H 0.28062 0.51008 0.37605 0.0
H1289 H 0.32502 0.52404 0.36076 0.0
C1290 C 0.36885 0.5933 0.14179 0.0
C1291 C 0.38993 0.54702 0.13871 0.0
C1292 C 0.36902 0.55213 0.10775 0.0
C1293 C 0.34047 0.59338 0.11151 0.0
N1294 N 0.33147 0.66497 0.12891 0.0
N1295 N 0.43435 0.49985 0.11763 0.0
C1296 C 0.34675 0.61798 0.12756 0.0
C1297 C 0.39824 0.53231 0.12123 0.0
N1298 N 0.36886 0.61319 0.15807 0.0
N1299 N 0.36591 0.53003 0.09188 0.0
H1300 H 0.45806 0.48745 0.12731 0.0
H1301 H 0.44422 0.49016 0.105 0.0
H1302 H 0.34653 0.54488 0.08149 0.0
H1303 H 0.38121 0.49617 0.0893 0.0
H1304 H 0.3472 0.6426 0.16157 0.0
H1305 H 0.3918 0.60135 0.16799 0.0
H1306 H 0.33715 0.68667 0.13983 0.0
H1307 H 0.3177 0.68355 0.11812 0.0
C1308 C 0.19332 0.60086 0.85934 0.0
C1309 C 0.15935 0.56265 0.8619 0.0
C1310 C 0.16297 0.57527 0.89363 0.0
C1311 C 0.19976 0.61086 0.89117 0.0
N1312 N 0.23259 0.6716 0.87182 0.0
N1313 N 0.09643 0.53074 0.88053 0.0
C1314 C 0.20934 0.62814 0.87402 0.0
C1315 C 0.1393 0.55539 0.87879 0.0
N1316 N 0.21202 0.6102 0.84321 0.0
N1317 N 0.15166 0.55858 0.90989 0.0
H1318 H 0.07664 0.51913 0.86975 0.0
H1319 H 0.07768 0.52768 0.89228 0.0
H1320 H 0.16396 0.57467 0.9213 0.0
H1321 H 0.13084 0.52741 0.912 0.0
H1322 H 0.24215 0.63257 0.8412 0.0
H1323 H 0.19862 0.59462 0.83186 0.0
H1324 H 0.23712 0.6883 0.85974 0.0
H1325 H 0.24172 0.69367 0.88235 0.0
C1326 C 0.1795 0.35874 0.62513 0.0
C1327 C 0.18243 0.37891 0.60816 0.0
C1328 C 0.12267 0.43941 0.61661 0.0
C1329 C 0.13456 0.43056 0.63436 0.0
N1330 N 0.16342 0.37253 0.65576 0.0
N1331 N 0.14909 0.43351 0.58662 0.0
C1332 C 0.15861 0.38663 0.63879 0.0
C1333 C 0.15055 0.41686 0.60337 0.0
N1334 N 0.19814 0.31348 0.628 0.0
N1335 N 0.08465 0.46923 0.6126 0.0
H1336 H 0.16595 0.41554 0.57634 0.0
H1337 H 0.13174 0.46566 0.58304 0.0
H1338 H 0.06237 0.48383 0.62227 0.0
H1339 H 0.07204 0.47463 0.59994 0.0
H1340 H 0.19468 0.29473 0.63974 0.0
H1341 H 0.21312 0.29309 0.61787 0.0
H1342 H 0.18699 0.34514 0.6598 0.0
H1343 H 0.14318 0.38751 0.66584 0.0
C1344 C 0.24876 0.20624 0.00848 0.0
C1345 C 0.27094 0.17278 0.99676 0.0
C1346 C 0.24461 0.10539 0.01495 0.0
C1347 C 0.23056 0.13796 0.02828 0.0
N1348 N 0.20565 0.21888 0.03593 0.0
N1349 N 0.30073 0.09188 0.99138 0.0
C1350 C 0.22858 0.18857 0.02455 0.0
C1351 C 0.27185 0.12275 1.0007 0.0
N1352 N 0.24699 0.25443 1.00414 0.0
N1353 N 0.23169 0.05754 0.01601 0.0
H1354 H 0.32231 0.10343 0.98097 0.0
H1355 H 0.30598 0.05565 0.99491 0.0
H1356 H 0.20938 0.04453 0.02601 0.0
H1357 H 0.23848 0.03269 0.00606 0.0
H1358 H 0.23187 0.28141 0.01188 0.0
H1359 H 0.26074 0.26792 0.99242 0.0
H1360 H 0.20596 0.25658 0.03514 0.0
H1361 H 0.18272 0.20555 0.04562 0.0
C1362 C 0.06964 0.07149 0.27545 0.0
C1363 C 0.07046 0.03241 0.28776 0.0
C1364 C 0.10063 0.97921 0.26479 0.0
C1365 C 0.09047 0.01513 0.25201 0.0
N1366 N 0.05506 0.0936 0.24545 0.0
N1367 N 0.07456 0.94528 0.29215 0.0
C1368 C 0.07214 0.06087 0.25735 0.0
C1369 C 0.08253 0.98511 0.28188 0.0
N1370 N 0.06904 0.11886 0.28073 0.0
N1371 N 0.1284 0.93975 0.26074 0.0
H1372 H 0.05698 0.94707 0.30417 0.0
H1373 H 0.07969 0.90987 0.28769 0.0
H1374 H 0.14511 0.93588 0.24865 0.0
H1375 H 0.13969 0.91454 0.27006 0.0
H1376 H 0.07298 0.14785 0.27208 0.0
H1377 H 0.07086 0.12958 0.29366 0.0
H1378 H 0.03648 0.12502 0.24906 0.0
H1379 H 0.0551 0.08751 0.23208 0.0
C1380 C 0.26381 0.90049 0.51355 0.0
C1381 C 0.26231 0.85783 0.52373 0.0
C1382 C 0.25819 0.80884 0.49682 0.0
C1383 C 0.25407 0.85237 0.48684 0.0
N1384 N 0.24051 0.93892 0.48656 0.0
N1385 N 0.26028 0.77085 0.5255 0.0
C1386 C 0.25348 0.89798 0.49551 0.0
C1387 C 0.26061 0.81173 0.51545 0.0
N1388 N 0.27444 0.94377 0.5214 0.0
N1389 N 0.26063 0.76498 0.48858 0.0
H1390 H 0.26843 0.77217 0.53873 0.0
H1391 H 0.25216 0.73624 0.52086 0.0
H1392 H 0.25326 0.76075 0.47539 0.0
H1393 H 0.27032 0.73272 0.49475 0.0
H1394 H 0.2802 0.97598 0.51454 0.0
H1395 H 0.28253 0.9459 0.53468 0.0
H1396 H 0.23535 0.97261 0.49245 0.0
H1397 H 0.22937 0.93785 0.47359 0.0
C1398 C 0.40839 0.02358 0.7696 0.0
C1399 C 0.36355 0.02949 0.77836 0.0
C1400 C 0.32051 0.0245 0.75042 0.0
C1401 C 0.36531 0.01752 0.74174 0.0
N1402 N 0.44896 0.99224 0.74405 0.0
N1403 N 0.27848 0.04741 0.77701 0.0
C1404 C 0.4086 0.01184 0.75158 0.0
C1405 C 0.32 0.03357 0.76863 0.0
N1406 N 0.45076 0.03193 0.77831 0.0
N1407 N 0.27836 0.01887 0.74123 0.0
H1408 H 0.2788 0.05642 0.79022 0.0
H1409 H 0.24568 0.05462 0.77072 0.0
H1410 H 0.27879 0.00784 0.72821 0.0
H1411 H 0.24386 0.0195 0.74681 0.0
H1412 H 0.48483 0.03167 0.77235 0.0
H1413 H 0.45061 0.04584 0.7909 0.0
H1414 H 0.48042 0.98373 0.751 0.0
H1415 H 0.44861 0.97883 0.73136 0.0
C1416 C 0.72509 0.80388 0.99435 0.0
C1417 C 0.73184 0.85174 0.98757 0.0
C1418 C 0.72074 0.88474 0.01701 0.0
C1419 C 0.72048 0.8376 0.02412 0.0
N1420 N 0.72515 0.75131 0.01992 0.0
N1421 N 0.75005 0.93596 0.99386 0.0
C1422 C 0.72327 0.79679 0.01286 0.0
C1423 C 0.73367 0.89161 0.99936 0.0
N1424 N 0.71898 0.7655 0.98332 0.0
N1425 N 0.70928 0.9233 0.02737 0.0
H1426 H 0.76329 0.94177 0.98134 0.0
H1427 H 0.75609 0.96508 1.00227 0.0
H1428 H 0.69889 0.91856 0.04035 0.0
H1429 H 0.70474 0.95845 0.02256 0.0
H1430 H 0.70789 0.73114 0.98745 0.0
H1431 H 0.72295 0.76829 0.9699 0.0
H1432 H 0.73359 0.72027 0.01279 0.0
H1433 H 0.71947 0.74524 0.03318 0.0
C1434 C 0.86589 0.01193 0.7669 0.0
C1435 C 0.91045 0.02355 0.77496 0.0
C1436 C 0.9475 0.03305 0.74584 0.0
C1437 C 0.90039 0.02934 0.73807 0.0
N1438 N 0.81337 0.03103 0.74274 0.0
N1439 N 0.99392 0.04865 0.77232 0.0
C1440 C 0.85919 0.02341 0.7491 0.0
C1441 C 0.95147 0.03489 0.76445 0.0
N1442 N 0.82956 0.99062 0.77631 0.0
N1443 N 0.98839 0.03357 0.73577 0.0
H1444 H 0.99843 0.04734 0.78583 0.0
H1445 H 0.02344 0.06317 0.76556 0.0
H1446 H 0.98765 0.03471 0.72225 0.0
H1447 H 0.02337 0.03026 0.74089 0.0
H1448 H 0.79705 0.97878 0.77069 0.0
H1449 H 0.83474 0.97958 0.78919 0.0
H1450 H 0.78244 0.03051 0.75061 0.0
H1451 H 0.80717 0.04397 0.73015 0.0
C1452 C 0.81209 0.19101 0.51044 0.0
C1453 C 0.76821 0.17105 0.51711 0.0
C1454 C 0.736 0.16488 0.48733 0.0
C1455 C 0.78226 0.17699 0.4805 0.0
N1456 N 0.86572 0.20065 0.48559 0.0
N1457 N 0.69333 0.12788 0.51138 0.0
C1458 C 0.82075 0.18976 0.49211 0.0
C1459 C 0.7316 0.15485 0.50537 0.0
N1460 N 0.84444 0.21315 0.52141 0.0
N1461 N 0.69598 0.16345 0.47678 0.0
H1462 H 0.69054 0.11705 0.52435 0.0
H1463 H 0.66797 0.11138 0.50317 0.0
H1464 H 0.69694 0.17324 0.46368 0.0
H1465 H 0.6608 0.15848 0.48155 0.0
H1466 H 0.87425 0.23321 0.51707 0.0
H1467 H 0.83963 0.21461 0.53486 0.0
H1468 H 0.89679 0.20377 0.49331 0.0
H1469 H 0.87215 0.20478 0.47229 0.0
C1470 C 0.54309 0.96318 0.27258 0.0
C1471 C 0.57098 1.00269 0.27923 0.0
C1472 C 0.62257 1.00095 0.25305 0.0
C1473 C 0.59396 0.96212 0.24608 0.0
N1474 N 0.52357 0.91025 0.24807 0.0
N1475 N 0.63162 0.06458 0.27478 0.0
C1476 C 0.5531 0.9445 0.25552 0.0
C1477 C 0.60922 0.02293 0.26918 0.0
N1478 N 0.50763 0.9429 0.28276 0.0
N1479 N 0.66269 0.01713 0.24421 0.0
H1480 H 0.62359 0.08112 0.28666 0.0
H1481 H 0.6555 0.08501 0.26721 0.0
H1482 H 0.67102 0.00663 0.23155 0.0
H1483 H 0.68909 0.03968 0.24965 0.0
H1484 H 0.48987 0.91049 0.27982 0.0
H1485 H 0.4974 0.95749 0.29474 0.0
H1486 H 0.49037 0.89924 0.25328 0.0
H1487 H 0.53093 0.89456 0.23599 0.0
C1488 C 0.72372 0.62055 0.50597 0.0
C1489 C 0.72895 0.66482 0.51502 0.0
C1490 C 0.74713 0.70488 0.48685 0.0
C1491 C 0.74958 0.65845 0.4786 0.0
N1492 N 0.75515 0.5715 0.48279 0.0
N1493 N 0.74749 0.75038 0.5141 0.0
C1494 C 0.74248 0.6162 0.48897 0.0
C1495 C 0.74102 0.70758 0.50546 0.0
N1496 N 0.70131 0.58203 0.51384 0.0
N1497 N 0.74899 0.74619 0.47704 0.0
H1498 H 0.73887 0.75438 0.52724 0.0
H1499 H 0.76242 0.78129 0.50834 0.0
H1500 H 0.75557 0.74579 0.4637 0.0
H1501 H 0.74168 0.7806 0.48202 0.0
H1502 H 0.69352 0.54964 0.50735 0.0
H1503 H 0.68564 0.58498 0.52616 0.0
H1504 H 0.75419 0.54013 0.49042 0.0
H1505 H 0.77237 0.56698 0.47085 0.0
C1506 C 0.62624 0.51816 0.73156 0.0
C1507 C 0.58247 0.49683 0.72552 0.0
C1508 C 0.55147 0.49633 0.75561 0.0
C1509 C 0.59827 0.51026 0.76168 0.0
N1510 N 0.6833 0.52291 0.75545 0.0
N1511 N 0.50355 0.46278 0.73186 0.0
C1512 C 0.63663 0.51732 0.74961 0.0
C1513 C 0.54508 0.48497 0.73761 0.0
N1514 N 0.6574 0.54045 0.72023 0.0
N1515 N 0.51284 0.49614 0.76677 0.0
H1516 H 0.49634 0.45741 0.71863 0.0
H1517 H 0.47747 0.44812 0.74021 0.0
H1518 H 0.51653 0.50422 0.77995 0.0
H1519 H 0.47693 0.49136 0.76273 0.0
H1520 H 0.6883 0.55938 0.72429 0.0
H1521 H 0.64907 0.54569 0.70713 0.0
H1522 H 0.71327 0.52417 0.74713 0.0
H1523 H 0.6923 0.5206 0.76864 0.0
C1524 C 0.7188 0.40031 0.9931 0.0
C1525 C 0.72251 0.35781 0.98304 0.0
C1526 C 0.73212 0.30978 0.01012 0.0
C1527 C 0.73459 0.35369 0.0199 0.0
N1528 N 0.74221 0.44109 0.01953 0.0
N1529 N 0.72604 0.27104 0.98163 0.0
C1530 C 0.73118 0.399 0.01099 0.0
C1531 C 0.72693 0.31208 0.99151 0.0
N1532 N 0.70426 0.44243 0.98525 0.0
N1533 N 0.73388 0.26614 0.01856 0.0
H1534 H 0.71455 0.27223 0.96872 0.0
H1535 H 0.73526 0.23657 0.98611 0.0
H1536 H 0.74315 0.2631 0.03166 0.0
H1537 H 0.72646 0.23287 0.01271 0.0
H1538 H 0.69675 0.47426 0.99207 0.0
H1539 H 0.69475 0.44353 0.97206 0.0
H1540 H 0.74447 0.47485 0.01341 0.0
H1541 H 0.75505 0.44116 0.03225 0.0
C1542 C 0.87138 0.51005 0.25325 0.0
C1543 C 0.91343 0.51942 0.26354 0.0
C1544 C 0.95821 0.54234 0.23692 0.0
C1545 C 0.91714 0.52926 0.22671 0.0
N1546 N 0.83776 0.49294 0.22467 0.0
N1547 N 0.99847 0.54236 0.26501 0.0
C1548 C 0.87471 0.5107 0.23477 0.0
C1549 C 0.95724 0.53541 0.25536 0.0
N1550 N 0.82759 0.50242 0.26127 0.0
N1551 N 0.99799 0.56218 0.22892 0.0
H1552 H 0.99878 0.54272 0.27852 0.0
H1553 H 0.03301 0.54647 0.25964 0.0
H1554 H 1.00185 0.5628 0.21543 0.0
H1555 H 0.02642 0.57915 0.23553 0.0
H1556 H 0.79458 0.50023 0.25463 0.0
H1557 H 0.82358 0.50331 0.27478 0.0
H1558 H 0.80787 0.47427 0.22968 0.0
H1559 H 0.83942 0.49264 0.21108 0.0
C1560 C 0.32749 0.3076 0.51327 0.0
C1561 C 0.31075 0.3456 0.52425 0.0
C1562 C 0.27894 0.389 0.49877 0.0
C1563 C 0.2912 0.34901 0.48793 0.0
N1564 N 0.32427 0.26799 0.48511 0.0
N1565 N 0.26471 0.41966 0.52784 0.0
C1566 C 0.31519 0.30784 0.49519 0.0
C1567 C 0.28461 0.38536 0.51712 0.0
N1568 N 0.35538 0.27118 0.52017 0.0
N1569 N 0.26339 0.43144 0.49135 0.0
H1570 H 0.26879 0.4195 0.54131 0.0
H1571 H 0.24045 0.44615 0.52355 0.0
H1572 H 0.25916 0.43559 0.47794 0.0
H1573 H 0.25931 0.46384 0.49818 0.0
H1574 H 0.37439 0.24612 0.51266 0.0
H1575 H 0.3614 0.26722 0.53352 0.0
H1576 H 0.33472 0.23441 0.49012 0.0
H1577 H 0.31948 0.26745 0.47169 0.0
C1578 C 0.45474 0.50053 0.24399 0.0
C1579 C 0.40887 0.50181 0.23557 0.0
C1580 C 0.36939 0.51758 0.26373 0.0
C1581 C 0.41481 0.5109 0.27243 0.0
N1582 N 0.4993 0.48796 0.27091 0.0
N1583 N 0.32194 0.51046 0.23713 0.0
C1584 C 0.45708 0.49984 0.26257 0.0
C1585 C 0.36609 0.51038 0.24541 0.0
N1586 N 0.49613 0.50121 0.23419 0.0
N1587 N 0.3294 0.53174 0.27302 0.0
H1588 H 0.31878 0.50964 0.22357 0.0
H1589 H 0.28862 0.50953 0.24357 0.0
H1590 H 0.32928 0.53404 0.28657 0.0
H1591 H 0.297 0.5434 0.26737 0.0
H1592 H 0.53101 0.50403 0.23941 0.0
H1593 H 0.49506 0.50516 0.2207 0.0
H1594 H 0.53027 0.47554 0.26452 0.0
H1595 H 0.50162 0.48529 0.28439 0.0
C1596 C 0.21486 0.68401 0.01403 0.0
C1597 C 0.22771 0.64456 0.0251 0.0
C1598 C 0.23966 0.593 0.99951 0.0
C1599 C 0.23317 0.63351 0.98833 0.0
N1600 N 0.20675 0.71633 0.98471 0.0
N1601 N 0.26033 0.5638 0.02832 0.0
C1602 C 0.21834 0.67877 0.99552 0.0
C1603 C 0.24273 0.59982 0.0178 0.0
N1604 N 0.19798 0.72602 0.02136 0.0
N1605 N 0.2408 0.54744 0.99248 0.0
H1606 H 0.26469 0.5681 0.04171 0.0
H1607 H 0.27558 0.53183 0.02356 0.0
H1608 H 0.23513 0.54167 0.97918 0.0
H1609 H 0.24129 0.51571 0.99989 0.0
H1610 H 0.18289 0.75468 0.01437 0.0
H1611 H 0.19828 0.73187 0.03481 0.0
H1612 H 0.20366 0.75232 0.98868 0.0
H1613 H 0.19778 0.71072 0.97171 0.0
C1614 C 0.08546 0.51416 0.75704 0.0
C1615 C 0.13163 0.51057 0.76529 0.0
C1616 C 0.17126 0.50939 0.7366 0.0
C1617 C 0.12508 0.51117 0.72833 0.0
N1618 N 0.038 0.50723 0.73034 0.0
N1619 N 0.21822 0.51846 0.76325 0.0
C1620 C 0.08204 0.51109 0.73848 0.0
C1621 C 0.17449 0.51199 0.75507 0.0
N1622 N 0.04546 0.52389 0.76688 0.0
N1623 N 0.21201 0.50404 0.72658 0.0
H1624 H 0.22046 0.52388 0.77669 0.0
H1625 H 0.25114 0.52359 0.75681 0.0
H1626 H 0.21012 0.50107 0.71305 0.0
H1627 H 0.24675 0.49826 0.73157 0.0
H1628 H 0.0108 0.5299 0.76186 0.0
H1629 H 0.04871 0.53254 0.77998 0.0
H1630 H 1.00505 0.50308 0.73685 0.0
H1631 H 0.03506 0.50305 0.7169 0.0
C1632 C 0.2 0.84916 0.09255 0.0
C1633 C 0.24259 0.82293 0.08809 0.0
C1634 C 0.28008 0.89939 0.07801 0.0
C1635 C 0.23945 0.9258 0.0844 0.0
N1636 N 0.167 0.92618 0.10196 0.0
N1637 N 0.32624 0.82402 0.07893 0.0
C1638 C 0.20137 0.90065 0.093 0.0
C1639 C 0.28362 0.84834 0.08145 0.0
N1640 N 0.15749 0.82483 0.09564 0.0
N1641 N 0.31416 0.92261 0.0681 0.0
H1642 H 0.32969 0.78689 0.08139 0.0
H1643 H 0.35881 0.84128 0.07572 0.0
H1644 H 0.31228 0.95965 0.06529 0.0
H1645 H 0.34202 0.9045 0.06161 0.0
H1646 H 0.12437 0.84239 0.0976 0.0
H1647 H 0.15431 0.78728 0.09415 0.0
H1648 H 0.14057 0.90957 0.10969 0.0
H1649 H 0.16855 0.96392 0.10324 0.0
C1650 C 0.37925 0.95348 0.34257 0.0
C1651 C 0.40769 0.99556 0.3458 0.0
C1652 C 0.33286 0.04505 0.34537 0.0
C1653 C 0.30442 1.00229 0.34312 0.0
N1654 N 0.29984 0.91524 0.34449 0.0
N1655 N 0.41092 0.07982 0.35391 0.0
C1656 C 0.3276 0.95631 0.34331 0.0
C1657 C 0.38424 0.04099 0.3483 0.0
N1658 N 0.40169 0.91116 0.33798 0.0
N1659 N 0.31128 0.08947 0.3439 0.0
H1660 H 0.44833 0.07762 0.35615 0.0
H1661 H 0.39544 0.11268 0.35769 0.0
H1662 H 0.27406 0.09355 0.34171 0.0
H1663 H 0.33069 0.12202 0.34366 0.0
H1664 H 0.38278 0.88038 0.33386 0.0
H1665 H 0.43935 0.90846 0.33656 0.0
H1666 H 0.3145 0.88066 0.34617 0.0
H1667 H 0.26201 0.91656 0.34572 0.0
C1668 C 0.29434 0.13333 0.56947 0.0
C1669 C 0.26679 0.16225 0.58116 0.0
C1670 C 0.21695 0.09046 0.58859 0.0
C1671 C 0.24232 0.06219 0.57604 0.0
N1672 N 0.30059 0.05829 0.55281 0.0
N1673 N 0.19778 0.17078 0.59997 0.0
C1674 C 0.27992 0.08411 0.56603 0.0
C1675 C 0.22681 0.14135 0.59015 0.0
N1676 N 0.33528 0.15262 0.56211 0.0
N1677 N 0.1844 0.06803 0.59939 0.0
H1678 H 0.2041 0.20806 0.60111 0.0
H1679 H 0.16541 0.15949 0.60575 0.0
H1680 H 0.17792 0.0307 0.59902 0.0
H1681 H 0.1667 0.0853 0.60961 0.0
H1682 H 0.36009 0.13244 0.55489 0.0
H1683 H 0.34603 0.18854 0.56422 0.0
H1684 H 0.32465 0.07321 0.54379 0.0
H1685 H 0.29085 0.02242 0.55015 0.0
C1686 C 0.15182 0.02302 0.82226 0.0
C1687 C 0.17853 0.99843 0.83536 0.0
C1688 C 0.10316 0.9857 0.85196 0.0
C1689 C 0.07698 0.0136 0.83954 0.0
N1690 N 0.07817 0.06654 0.81453 0.0
N1691 N 0.18192 0.96286 0.86388 0.0
C1692 C 0.10182 0.0344 0.82511 0.0
C1693 C 0.15475 0.98187 0.85062 0.0
N1694 N 0.17397 0.03384 0.80683 0.0
N1695 N 0.0782 0.96124 0.86463 0.0
H1696 H 0.21974 0.95998 0.86313 0.0
H1697 H 0.16775 0.95401 0.87606 0.0
H1698 H 0.04032 0.96205 0.8655 0.0
H1699 H 0.09437 0.93675 0.8732 0.0
H1700 H 0.15549 0.04712 0.79597 0.0
H1701 H 0.21047 0.02588 0.80457 0.0
H1702 H 0.09545 0.08654 0.8048 0.0
H1703 H 0.04202 0.07633 0.81648 0.0
C1704 C 0.2976 0.10791 0.41341 0.0
C1705 C 0.30193 0.13491 0.42909 0.0
C1706 C 0.29173 0.0596 0.446 0.0
C1707 C 0.28238 0.0334 0.43047 0.0
N1708 N 0.27189 0.03267 0.3994 0.0
N1709 N 0.29522 0.13813 0.46031 0.0
C1710 C 0.28444 0.05755 0.41412 0.0
C1711 C 0.29705 0.1111 0.44541 0.0
N1712 N 0.30689 0.13048 0.39791 0.0
N1713 N 0.29613 0.03468 0.46131 0.0
H1714 H 0.29754 0.17596 0.46026 0.0
H1715 H 0.28695 0.12363 0.4725 0.0
H1716 H 0.2935 0.99688 0.46188 0.0
H1717 H 0.30699 0.05065 0.47298 0.0
H1718 H 0.30894 0.11232 0.38604 0.0
H1719 H 0.31591 0.16729 0.39717 0.0
H1720 H 0.2679 0.04887 0.38722 0.0
H1721 H 0.26275 0.99585 0.39962 0.0
C1722 C 0.1305 0.03712 0.69526 0.0
C1723 C 0.10641 0.04452 0.6791 0.0
C1724 C 0.18462 0.0694 0.66596 0.0
C1725 C 0.20828 0.06365 0.68228 0.0
N1726 N 0.20061 0.05663 0.71327 0.0
N1727 N 0.10819 0.07781 0.65017 0.0
C1728 C 0.18025 0.05161 0.69718 0.0
C1729 C 0.13295 0.06369 0.66476 0.0
N1730 N 0.10652 0.01448 0.70856 0.0
N1731 N 0.21185 0.07964 0.65156 0.0
H1732 H 0.07034 0.07546 0.64927 0.0
H1733 H 0.12422 0.09605 0.63976 0.0
H1734 H 0.24941 0.08468 0.65215 0.0
H1735 H 0.19794 0.07997 0.63895 0.0
H1736 H 0.12358 1.00372 0.72006 0.0
H1737 H 0.07045 1.00298 0.70749 0.0
H1738 H 0.18101 0.05277 0.7248 0.0
H1739 H 0.23586 0.07008 0.71487 0.0
C1740 C 0.28349 0.87734 0.94644 0.0
C1741 C 0.2445 0.85501 0.93723 0.0
C1742 C 0.2039 0.93491 0.93497 0.0
C1743 C 0.24221 0.95656 0.9447 0.0
N1744 N 0.31629 0.94899 0.96097 0.0
N1745 N 0.16635 0.86085 0.92355 0.0
C1746 C 0.28137 0.92777 0.95079 0.0
C1747 C 0.20434 0.88357 0.93169 0.0
N1748 N 0.32352 0.85039 0.95038 0.0
N1749 N 0.16718 0.96385 0.92895 0.0
H1750 H 0.166 0.82343 0.92132 0.0
H1751 H 0.13433 0.87792 0.91975 0.0
H1752 H 0.16578 1.00101 0.93158 0.0
H1753 H 0.1392 0.95209 0.92085 0.0
H1754 H 0.35564 0.86441 0.95552 0.0
H1755 H 0.32521 0.81365 0.94747 0.0
H1756 H 0.34328 0.92989 0.96756 0.0
H1757 H 0.31697 0.98626 0.96346 0.0
C1758 C 0.32631 0.00987 0.20961 0.0
C1759 C 0.29923 0.98077 0.19781 0.0
C1760 C 0.37373 0.9641 0.1811 0.0
C1761 C 0.40045 0.99461 0.19253 0.0
N1762 N 0.40285 0.05066 0.21641 0.0
N1763 N 0.29464 0.93355 0.17163 0.0
C1764 C 0.37685 0.0186 0.20648 0.0
C1765 C 0.32234 0.95891 0.18331 0.0
N1766 N 0.30352 0.02825 0.22396 0.0
N1767 N 0.39812 0.93939 0.16839 0.0
H1768 H 0.25722 0.92874 0.17322 0.0
H1769 H 0.3077 0.91963 0.15994 0.0
H1770 H 0.43561 0.94289 0.16658 0.0
H1771 H 0.38227 0.91348 0.16031 0.0
H1772 H 0.32147 0.04586 0.2341 0.0
H1773 H 0.26626 0.02383 0.2261 0.0
H1774 H 0.38756 0.07307 0.22583 0.0
H1775 H 0.44001 0.0567 0.21454 0.0
C1776 C 0.79163 0.0837 0.92527 0.0
C1777 C 0.74871 0.05754 0.92938 0.0
C1778 C 0.70142 0.13298 0.92625 0.0
C1779 C 0.74522 0.15954 0.92402 0.0
N1780 N 0.83264 0.16146 0.92627 0.0
N1781 N 0.66358 0.05889 0.93694 0.0
C1782 C 0.79057 0.13519 0.925 0.0
C1783 C 0.70364 0.08259 0.9307 0.0
N1784 N 0.83308 0.05915 0.92103 0.0
N1785 N 0.65787 0.15558 0.92364 0.0
H1786 H 0.66427 0.02251 0.94073 0.0
H1787 H 0.63094 0.07638 0.93977 0.0
H1788 H 0.65541 0.19237 0.92047 0.0
H1789 H 0.62473 0.13711 0.92333 0.0
H1790 H 0.86444 0.07641 0.9165 0.0
H1791 H 0.83416 0.02132 0.92015 0.0
H1792 H 0.86653 0.1456 0.92845 0.0
H1793 H 0.83276 0.19928 0.92718 0.0
C1794 C 0.6753 0.00863 0.67077 0.0
C1795 C 0.70284 0.00712 0.68641 0.0
C1796 C 0.62744 0.99505 0.70314 0.0
C1797 C 0.60019 0.99266 0.68744 0.0
N1798 N 0.59876 0.99013 0.65615 0.0
N1799 N 0.70678 0.98977 0.71701 0.0
C1800 C 0.62437 0.99746 0.67117 0.0
C1801 C 0.67923 0.99737 0.70245 0.0
N1802 N 0.69754 0.02265 0.65567 0.0
N1803 N 0.60356 0.99775 0.71871 0.0
H1804 H 0.74475 0.99024 0.71664 0.0
H1805 H 0.6924 0.97836 0.72888 0.0
H1806 H 0.56569 0.99849 0.7196 0.0
H1807 H 0.62106 1.0042 0.73053 0.0
H1808 H 0.67883 0.02955 0.64413 0.0
H1809 H 0.73468 0.03049 0.65506 0.0
H1810 H 0.61483 0.98857 0.64388 0.0
H1811 H 0.56169 0.98177 0.65616 0.0
C1812 C 0.71759 0.9347 0.42158 0.0
C1813 C 0.76243 0.95924 0.42404 0.0
C1814 C 0.80611 0.88283 0.4185 0.0
C1815 C 0.7611 0.8576 0.41791 0.0
N1816 N 0.67441 0.8578 0.4222 0.0
N1817 N 0.84948 0.95598 0.42721 0.0
C1818 C 0.71689 0.88316 0.42037 0.0
C1819 C 0.80686 0.93314 0.42307 0.0
N1820 N 0.6758 0.96109 0.41992 0.0
N1821 N 0.84787 0.85896 0.41417 0.0
H1822 H 0.85107 0.9926 0.43066 0.0
H1823 H 0.88257 0.93792 0.42847 0.0
H1824 H 0.84816 0.8222 0.41084 0.0
H1825 H 0.88133 0.87627 0.4126 0.0
H1826 H 0.64238 0.9458 0.41654 0.0
H1827 H 0.6757 0.99902 0.42019 0.0
H1828 H 0.64151 0.87397 0.42559 0.0
H1829 H 0.67313 0.8199 0.42208 0.0
C1830 C 0.87761 0.98486 0.18304 0.0
C1831 C 0.90006 0.99167 0.19949 0.0
C1832 C 0.82198 0.97624 0.21414 0.0
C1833 C 0.79906 0.9718 0.19767 0.0
N1834 N 0.80241 0.97673 0.16647 0.0
N1835 N 0.89452 0.99879 0.23056 0.0
C1836 C 0.82629 0.97731 0.1821 0.0
C1837 C 0.87241 0.98863 0.21503 0.0
N1838 N 0.90583 0.98539 0.16839 0.0
N1839 N 0.7955 0.96727 0.22886 0.0
H1840 H 0.93167 0.00641 0.2315 0.0
H1841 H 0.87604 1.00208 0.24233 0.0
H1842 H 0.75845 0.95888 0.22845 0.0
H1843 H 0.81038 0.96543 0.24131 0.0
H1844 H 0.89321 0.97641 0.15602 0.0
H1845 H 0.94325 0.9919 0.16881 0.0
H1846 H 0.81879 0.98439 0.15456 0.0
H1847 H 0.76484 0.97171 0.16554 0.0
C1848 C 0.7037 0.90068 0.58507 0.0
C1849 C 0.73209 0.8749 0.57275 0.0
C1850 C 0.74557 0.95079 0.55637 0.0
C1851 C 0.71997 0.97698 0.56935 0.0
N1852 N 0.67855 0.97888 0.59682 0.0
N1853 N 0.78455 0.87509 0.54776 0.0
C1854 C 0.7001 0.95235 0.58393 0.0
C1855 C 0.75408 0.8999 0.55861 0.0
N1856 N 0.67943 0.87515 0.59764 0.0
N1857 N 0.76085 0.97471 0.54176 0.0
H1858 H 0.7907 0.83784 0.54903 0.0
H1859 H 0.80581 0.89158 0.53821 0.0
H1860 H 0.75621 0.01208 0.54012 0.0
H1861 H 0.77548 0.95744 0.53091 0.0
H1862 H 0.65481 0.89058 0.6063 0.0
H1863 H 0.68124 0.83733 0.59853 0.0
H1864 H 0.66699 0.96436 0.60864 0.0
H1865 H 0.67521 0.01662 0.59612 0.0
C1866 C 0.82969 0.07156 0.33199 0.0
C1867 C 0.80403 0.02745 0.33472 0.0
C1868 C 0.87809 0.99108 0.34743 0.0
C1869 C 0.90451 0.03411 0.34362 0.0
N1870 N 0.90775 0.11372 0.3309 0.0
N1871 N 0.80435 0.94332 0.34307 0.0
C1872 C 0.8808 0.07398 0.33552 0.0
C1873 C 0.82841 0.98668 0.34199 0.0
N1874 N 0.80456 0.1113 0.32629 0.0
N1875 N 0.90051 0.9549 0.35659 0.0
H1876 H 0.76811 0.93938 0.33927 0.0
H1877 H 0.82085 0.91077 0.34662 0.0
H1878 H 0.93702 0.95702 0.3603 0.0
H1879 H 0.8825 0.92444 0.36143 0.0
H1880 H 0.81944 0.146 0.32534 0.0
H1881 H 0.76731 0.11005 0.32361 0.0
H1882 H 0.89435 0.14258 0.32356 0.0
H1883 H 0.94497 0.11633 0.33349 0.0
C1884 C 0.7198 0.05878 0.06583 0.0
C1885 C 0.7507 0.03274 0.07737 0.0
C1886 C 0.77807 0.11016 0.09018 0.0
C1887 C 0.74495 0.13591 0.07945 0.0
N1888 N 0.67914 0.1349 0.05885 0.0
N1889 N 0.80218 0.03268 0.10268 0.0
C1890 C 0.71448 0.11022 0.0677 0.0
C1891 C 0.77796 0.05832 0.09014 0.0
N1892 N 0.69657 0.03437 0.05279 0.0
N1893 N 0.81012 0.13576 0.10024 0.0
H1894 H 0.80109 0.9948 0.10331 0.0
H1895 H 0.81932 0.04867 0.11334 0.0
H1896 H 0.81092 0.17369 0.10033 0.0
H1897 H 0.83836 0.1198 0.10725 0.0
H1898 H 0.67781 0.05137 0.04269 0.0
H1899 H 0.69858 0.99679 0.05161 0.0
H1900 H 0.65211 0.11803 0.0515 0.0
H1901 H 0.67503 0.17248 0.05981 0.0
C1902 C 0.65453 0.98556 0.82314 0.0
C1903 C 0.68022 0.02808 0.82804 0.0
C1904 C 0.60365 0.06584 0.8377 0.0
C1905 C 0.57824 0.02262 0.83341 0.0
N1906 N 0.57868 0.93981 0.82356 0.0
N1907 N 0.68164 0.10771 0.84066 0.0
C1908 C 0.60357 0.98205 0.82649 0.0
C1909 C 0.65531 0.06803 0.83553 0.0
N1910 N 0.67907 0.94919 0.81485 0.0
N1911 N 0.57784 0.10456 0.84387 0.0
H1912 H 0.71933 0.10973 0.83915 0.0
H1913 H 0.66716 0.13761 0.84707 0.0
H1914 H 0.54021 0.10314 0.84566 0.0
H1915 H 0.59268 0.13854 0.84652 0.0
H1916 H 0.66239 0.91899 0.80927 0.0
H1917 H 0.71662 0.95043 0.81284 0.0
H1918 H 0.59502 0.907 0.82028 0.0
H1919 H 0.54113 0.93713 0.8252 0.0
C1920 C 0.75486 0.39687 0.58336 0.0
C1921 C 0.76338 0.37235 0.56742 0.0
C1922 C 0.75608 0.44956 0.55151 0.0
C1923 C 0.74368 0.4733 0.56728 0.0
N1924 N 0.7254 0.46968 0.59783 0.0
N1925 N 0.76927 0.37315 0.53624 0.0
C1926 C 0.74172 0.44698 0.58314 0.0
C1927 C 0.76322 0.3982 0.55144 0.0
N1928 N 0.76022 0.37216 0.59869 0.0
N1929 N 0.76191 0.47669 0.53674 0.0
H1930 H 0.77549 0.33574 0.53599 0.0
H1931 H 0.7654 0.38849 0.52392 0.0
H1932 H 0.75722 0.51432 0.53662 0.0
H1933 H 0.7746 0.46291 0.52497 0.0
H1934 H 0.75931 0.38863 0.61089 0.0
H1935 H 0.76825 0.33512 0.59912 0.0
H1936 H 0.71802 0.45166 0.60947 0.0
H1937 H 0.71614 0.50644 0.598 0.0
C1938 C 0.84309 0.55732 0.82857 0.0
C1939 C 0.81779 0.52344 0.81796 0.0
C1940 C 0.89366 0.47789 0.81368 0.0
C1941 C 0.91986 0.51392 0.82308 0.0
N1942 N 0.92105 0.58965 0.83844 0.0
N1943 N 0.8188 0.45447 0.79891 0.0
C1944 C 0.89481 0.55414 0.83027 0.0
C1945 C 0.84308 0.4844 0.81015 0.0
N1946 N 0.81709 0.59201 0.83719 0.0
N1947 N 0.91702 0.43657 0.80871 0.0
H1948 H 0.78154 0.45779 0.79653 0.0
H1949 H 0.83582 0.42838 0.79124 0.0
H1950 H 0.95387 0.43155 0.8111 0.0
H1951 H 0.89958 0.4063 0.80346 0.0
H1952 H 0.83203 0.61578 0.84629 0.0
H1953 H 0.77929 0.59454 0.83616 0.0
H1954 H 0.90629 0.62218 0.84284 0.0
H1955 H 0.95883 0.58782 0.83975 0.0
C1956 C 0.65989 0.61056 0.07681 0.0
C1957 C 0.69787 0.63799 0.08459 0.0
C1958 C 0.74343 0.56297 0.08989 0.0
C1959 C 0.70875 0.53619 0.08023 0.0
N1960 N 0.6363 0.53495 0.06265 0.0
N1961 N 0.7813 0.64118 0.09421 0.0
C1962 C 0.66731 0.56006 0.07323 0.0
C1963 C 0.74122 0.61435 0.08994 0.0
N1964 N 0.61662 0.63261 0.0732 0.0
N1965 N 0.77839 0.53894 0.09915 0.0
H1966 H 0.782 0.67896 0.09321 0.0
H1967 H 0.81519 0.62565 0.09665 0.0
H1968 H 0.77976 0.50105 0.09972 0.0
H1969 H 0.8023 0.55639 0.10766 0.0
H1970 H 0.58581 0.6138 0.06903 0.0
H1971 H 0.61085 0.6695 0.07555 0.0
H1972 H 0.60813 0.55128 0.0557 0.0
H1973 H 0.64087 0.49808 0.05998 0.0
C1974 C 0.71408 0.45338 0.33865 0.0
C1975 C 0.73884 0.47972 0.32542 0.0
C1976 C 0.66082 0.51697 0.31681 0.0
C1977 C 0.63549 0.48736 0.32903 0.0
N1978 N 0.63725 0.42161 0.34956 0.0
N1979 N 0.73454 0.53085 0.30005 0.0
C1980 C 0.66212 0.45377 0.33931 0.0
C1981 C 0.71181 0.50998 0.31398 0.0
N1982 N 0.74061 0.42948 0.35103 0.0
N1983 N 0.63663 0.55343 0.30851 0.0
H1984 H 0.77169 0.52696 0.29778 0.0
H1985 H 0.71604 0.54885 0.2901 0.0
H1986 H 0.59964 0.55901 0.31029 0.0
H1987 H 0.65375 0.58001 0.30102 0.0
H1988 H 0.7253 0.4132 0.36199 0.0
H1989 H 0.77859 0.43015 0.3512 0.0
H1990 H 0.65381 0.39318 0.35627 0.0
H1991 H 0.59927 0.42074 0.34997 0.0
C1992 C 0.76089 0.58113 0.91424 0.0
C1993 C 0.74843 0.55752 0.93004 0.0
C1994 C 0.71497 0.63431 0.94131 0.0
C1995 C 0.73095 0.65872 0.92604 0.0
N1996 N 0.77432 0.65747 0.89891 0.0
N1997 N 0.71852 0.56151 0.95934 0.0
C1998 C 0.75516 0.63254 0.91271 0.0
C1999 C 0.72669 0.58416 0.94378 0.0
N2000 N 0.77813 0.55399 0.9007 0.0
N2001 N 0.68721 0.65883 0.95313 0.0
H2002 H 0.72554 0.52461 0.9612 0.0
H2003 H 0.70755 0.57953 0.97059 0.0
H2004 H 0.6781 0.69537 0.95157 0.0
H2005 H 0.67041 0.6424 0.96377 0.0
H2006 H 0.78396 0.56763 0.88822 0.0
H2007 H 0.78318 0.51651 0.90167 0.0
H2008 H 0.79612 0.64175 0.88938 0.0
H2009 H 0.7716 0.69516 0.89775 0.0
C2010 C 0.68216 0.5338 0.16024 0.0
C2011 C 0.71084 0.51738 0.17444 0.0
C2012 C 0.63837 0.4784 0.18729 0.0
C2013 C 0.60909 0.49776 0.17372 0.0
N2014 N 0.6012 0.54797 0.14833 0.0
N2015 N 0.71619 0.47911 0.20247 0.0
C2016 C 0.63063 0.52665 0.16048 0.0
C2017 C 0.68884 0.49095 0.18824 0.0
N2018 N 0.70476 0.55551 0.14641 0.0
N2019 N 0.61814 0.44649 0.19886 0.0
H2020 H 0.75332 0.48672 0.20313 0.0
H2021 H 0.70182 0.46449 0.21388 0.0
H2022 H 0.58131 0.43723 0.19858 0.0
H2023 H 0.63818 0.42691 0.20799 0.0
H2024 H 0.68722 0.56493 0.13487 0.0
H2025 H 0.74238 0.56077 0.14601 0.0
H2026 H 0.61334 0.57275 0.13904 0.0
H2027 H 0.56345 0.54353 0.14844 0.0
C2028 C 0.82142 0.38637 0.41374 0.0
C2029 C 0.77989 0.35594 0.41533 0.0
C2030 C 0.73041 0.42788 0.42238 0.0
C2031 C 0.77141 0.45824 0.41951 0.0
N2032 N 0.85196 0.46745 0.40786 0.0
N2033 N 0.69275 0.34899 0.41752 0.0
C2034 C 0.81561 0.43764 0.41364 0.0
C2035 C 0.73364 0.37707 0.41861 0.0
N2036 N 0.86681 0.36628 0.41332 0.0
N2037 N 0.68912 0.44725 0.42934 0.0
H2038 H 0.69396 0.31218 0.41434 0.0
H2039 H 0.65765 0.3631 0.4182 0.0
H2040 H 0.68576 0.48425 0.43202 0.0
H2041 H 0.65972 0.42627 0.43349 0.0
H2042 H 0.89867 0.38688 0.41369 0.0
H2043 H 0.87265 0.32901 0.41463 0.0
H2044 H 0.88367 0.45459 0.40205 0.0
H2045 H 0.84777 0.50511 0.40718 0.0
C2046 C 0.83624 0.45473 0.66661 0.0
C2047 C 0.80947 0.49436 0.67349 0.0
C2048 C 0.88542 0.54102 0.67706 0.0
C2049 C 0.91222 0.50138 0.67017 0.0
N2050 N 0.91431 0.42273 0.65686 0.0
N2051 N 0.80715 0.57348 0.68643 0.0
C2052 C 0.88782 0.45869 0.66461 0.0
C2053 C 0.8338 0.53719 0.67895 0.0
N2054 N 0.81203 0.41278 0.66258 0.0
N2055 N 0.90966 0.58285 0.68121 0.0
H2056 H 0.76925 0.57195 0.68729 0.0
H2057 H 0.822 0.60428 0.6922 0.0
H2058 H 0.94742 0.58573 0.68041 0.0
H2059 H 0.89292 0.61508 0.6849 0.0
H2060 H 0.82894 0.38052 0.65902 0.0
H2061 H 0.77424 0.40979 0.66342 0.0
H2062 H 0.89924 0.39225 0.65093 0.0
H2063 H 0.95216 0.42444 0.65583 0.0
C2064 C 0.27201 0.60497 0.44256 0.0
C2065 C 0.2436 0.63062 0.43016 0.0
C2066 C 0.21092 0.55297 0.41922 0.0
C2067 C 0.23631 0.52744 0.43249 0.0
N2068 N 0.28806 0.52906 0.45774 0.0
N2069 N 0.18182 0.63051 0.40808 0.0
C2070 C 0.26614 0.5535 0.44442 0.0
C2071 C 0.21173 0.60485 0.41893 0.0
N2072 N 0.30614 0.62974 0.452 0.0
N2073 N 0.18775 0.52721 0.40645 0.0
H2074 H 0.18174 0.66845 0.40778 0.0
H2075 H 0.15454 0.61473 0.40054 0.0
H2076 H 0.1878 0.48931 0.40614 0.0
H2077 H 0.17243 0.54299 0.3954 0.0
H2078 H 0.33195 0.613 0.45991 0.0
H2079 H 0.31047 0.66734 0.45107 0.0
H2080 H 0.30565 0.54602 0.46811 0.0
H2081 H 0.28651 0.4914 0.45881 0.0
C2082 C 0.13548 0.52074 0.18399 0.0
C2083 C 0.11046 0.49315 0.17113 0.0
C2084 C 0.18675 0.44978 0.16452 0.0
C2085 C 0.21063 0.47424 0.17836 0.0
N2086 N 0.20693 0.52892 0.20263 0.0
N2087 N 0.11018 0.42662 0.15092 0.0
C2088 C 0.18469 0.5087 0.18847 0.0
C2089 C 0.13571 0.4564 0.16185 0.0
N2090 N 0.11279 0.55965 0.19139 0.0
N2091 N 0.21344 0.42082 0.15373 0.0
H2092 H 0.07269 0.42992 0.1491 0.0
H2093 H 0.12503 0.39613 0.14494 0.0
H2094 H 0.25076 0.4156 0.15543 0.0
H2095 H 0.19977 0.40559 0.14232 0.0
H2096 H 0.13023 0.58427 0.1996 0.0
H2097 H 0.07716 0.5694 0.18828 0.0
H2098 H 0.18891 0.55036 0.21173 0.0
H2099 H 0.24312 0.52161 0.2058 0.0
C2100 C 0.25447 0.37894 0.95173 0.0
C2101 C 0.25334 0.35467 0.93539 0.0
C2102 C 0.27072 0.43259 0.92067 0.0
C2103 C 0.27587 0.45577 0.93705 0.0
N2104 N 0.2821 0.44932 0.96815 0.0
N2105 N 0.26971 0.35655 0.90461 0.0
C2106 C 0.27048 0.42836 0.95259 0.0
C2107 C 0.2639 0.38115 0.91992 0.0
N2108 N 0.23815 0.35553 0.96629 0.0
N2109 N 0.27239 0.46002 0.90584 0.0
H2110 H 0.2674 0.31876 0.90386 0.0
H2111 H 0.28152 0.37281 0.89311 0.0
H2112 H 0.2782 0.49751 0.90609 0.0
H2113 H 0.26425 0.44646 0.89351 0.0
H2114 H 0.23381 0.37264 0.97829 0.0
H2115 H 0.22471 0.32009 0.96602 0.0
H2116 H 0.28365 0.43017 0.97986 0.0
H2117 H 0.29416 0.48521 0.96903 0.0
C2118 C 0.38533 0.47331 0.67698 0.0
C2119 C 0.4122 0.49987 0.66437 0.0
C2120 C 0.33778 0.54371 0.65601 0.0
C2121 C 0.31187 0.52043 0.66966 0.0
N2122 N 0.31135 0.46623 0.6942 0.0
N2123 N 0.41627 0.56423 0.64332 0.0
C2124 C 0.33575 0.48583 0.6804 0.0
C2125 C 0.3889 0.53612 0.65425 0.0
N2126 N 0.40701 0.43516 0.6853 0.0
N2127 N 0.31285 0.57215 0.64447 0.0
H2128 H 0.4537 0.55933 0.64187 0.0
H2129 H 0.40295 0.59479 0.63691 0.0
H2130 H 0.27524 0.57696 0.64522 0.0
H2131 H 0.32836 0.58745 0.63338 0.0
H2132 H 0.38849 0.41101 0.69339 0.0
H2133 H 0.44323 0.42569 0.68315 0.0
H2134 H 0.32776 0.44504 0.70378 0.0
H2135 H 0.27477 0.47351 0.69653 0.0
C2136 C 0.26818 0.34879 0.07158 0.0
C2137 C 0.24396 0.32557 0.08561 0.0
C2138 C 0.20275 0.40211 0.09296 0.0
C2139 C 0.22855 0.42578 0.07938 0.0
N2140 N 0.2889 0.42456 0.05685 0.0
N2141 N 0.19138 0.329 0.11049 0.0
C2142 C 0.26214 0.39978 0.06896 0.0
C2143 C 0.21211 0.35205 0.09656 0.0
N2144 N 0.2965 0.32157 0.06071 0.0
N2145 N 0.16839 0.42749 0.10201 0.0
H2146 H 0.19663 0.29207 0.11296 0.0
H2147 H 0.17063 0.3463 0.11994 0.0
H2148 H 0.1616 0.46425 0.09973 0.0
H2149 H 0.14499 0.4121 0.11113 0.0
H2150 H 0.31213 0.33466 0.04929 0.0
H2151 H 0.30222 0.28449 0.06266 0.0
H2152 H 0.31691 0.4093 0.04959 0.0
H2153 H 0.285 0.46187 0.05483 0.0
C2154 C 0.39318 0.46857 0.83722 0.0
C2155 C 0.41918 0.49297 0.82382 0.0
C2156 C 0.34529 0.49179 0.80561 0.0
C2157 C 0.31828 0.47195 0.81965 0.0
N2158 N 0.31454 0.44705 0.8496 0.0
N2159 N 0.41758 0.53577 0.79644 0.0
C2160 C 0.34178 0.462 0.83571 0.0
C2161 C 0.3946 0.50664 0.80827 0.0
N2162 N 0.4182 0.45038 0.85115 0.0
N2163 N 0.32408 0.49496 0.78958 0.0
H2164 H 0.45302 0.54835 0.79825 0.0
H2165 H 0.40018 0.55084 0.78566 0.0
H2166 H 0.28845 0.48341 0.78737 0.0
H2167 H 0.34293 0.50477 0.77833 0.0
H2168 H 0.40247 0.42853 0.8607 0.0
H2169 H 0.45595 0.45347 0.85226 0.0
H2170 H 0.32833 0.44348 0.86219 0.0
H2171 H 0.27694 0.44208 0.84878 0.0
C2172 C 0.31915 0.58992 0.59087 0.0
C2173 C 0.2873 0.56204 0.58022 0.0
C2174 C 0.2399 0.63589 0.57368 0.0
C2175 C 0.27228 0.66399 0.58406 0.0
N2176 N 0.33999 0.66848 0.60367 0.0
N2177 N 0.22093 0.55821 0.55997 0.0
C2178 C 0.31139 0.64107 0.59289 0.0
C2179 C 0.24839 0.58502 0.5713 0.0
N2180 N 0.35756 0.56711 0.59868 0.0
N2181 N 0.19997 0.65794 0.56663 0.0
H2182 H 0.22583 0.52089 0.55836 0.0
H2183 H 0.19509 0.57287 0.55157 0.0
H2184 H 0.19388 0.69514 0.56781 0.0
H2185 H 0.17179 0.63952 0.56041 0.0
H2186 H 0.38572 0.58498 0.60509 0.0
H2187 H 0.36188 0.52945 0.59836 0.0
H2188 H 0.36688 0.65452 0.61178 0.0
H2189 H 0.33573 0.70602 0.60483 0.0
C2190 C 0.16237 0.51548 0.31106 0.0
C2191 C 0.13443 0.53943 0.32395 0.0
C2192 C 0.20948 0.56433 0.33901 0.0
C2193 C 0.2377 0.54294 0.32551 0.0
N2194 N 0.24169 0.48707 0.30148 0.0
N2195 N 0.12934 0.57794 0.35182 0.0
C2196 C 0.21427 0.51468 0.31246 0.0
C2197 C 0.15756 0.56086 0.33853 0.0
N2198 N 0.13905 0.49552 0.29704 0.0
N2199 N 0.23277 0.58888 0.35206 0.0
H2200 H 0.09141 0.57574 0.3515 0.0
H2201 H 0.14292 0.59132 0.36353 0.0
H2202 H 0.27059 0.58935 0.35322 0.0
H2203 H 0.21525 0.60938 0.36153 0.0
H2204 H 0.15681 0.48208 0.2861 0.0
H2205 H 0.10119 0.49466 0.29599 0.0
H2206 H 0.22718 0.46277 0.29247 0.0
H2207 H 0.27934 0.48489 0.30252 0.0
C2208 C 0.51521 0.23077 0.08636 0.0
C2209 C 0.52924 0.25278 0.07038 0.0
C2210 C 0.47396 0.19894 0.05486 0.0
C2211 C 0.45315 0.18426 0.0709 0.0
N2212 N 0.44713 0.19798 0.10215 0.0
N2213 N 0.51237 0.26552 0.03977 0.0
C2214 C 0.47177 0.20325 0.0868 0.0
C2215 C 0.5056 0.23925 0.05469 0.0
N2216 N 0.54384 0.23401 0.10088 0.0
N2217 N 0.46311 0.17467 0.03983 0.0
H2218 H 0.53345 0.29712 0.03941 0.0
H2219 H 0.49281 0.25884 0.02836 0.0
H2220 H 0.4409 0.14382 0.03969 0.0
H2221 H 0.48023 0.18222 0.02801 0.0
H2222 H 0.5361 0.21487 0.1123 0.0
H2223 H 0.57786 0.25081 0.10096 0.0
H2224 H 0.45809 0.21536 0.11358 0.0
H2225 H 0.4133 0.18114 0.10316 0.0
C2226 C 0.10211 0.32444 0.31996 0.0
C2227 C 0.05452 0.32293 0.3128 0.0
C2228 C 0.05072 0.23539 0.31619 0.0
C2229 C 0.09855 0.23632 0.32327 0.0
N2230 N 0.17361 0.27886 0.32889 0.0
N2231 N 0.98948 0.27779 0.29939 0.0
C2232 C 0.1257 0.28003 0.3241 0.0
C2233 C 0.03103 0.27848 0.30922 0.0
N2234 N 0.12354 0.36825 0.32346 0.0
N2235 N 0.02296 0.19415 0.3171 0.0
H2236 H 0.97409 0.30932 0.29421 0.0
H2237 H 0.9732 0.2459 0.29494 0.0
H2238 H 0.03532 0.16189 0.32262 0.0
H2239 H 0.98614 0.19303 0.31387 0.0
H2240 H 0.15579 0.37204 0.33047 0.0
H2241 H 0.10775 0.40131 0.31994 0.0
H2242 H 0.19663 0.30891 0.32827 0.0
H2243 H 0.19129 0.24672 0.33234 0.0
C2244 C 0.01916 0.74388 0.58302 0.0
C2245 C 0.04111 0.75986 0.56732 0.0
C2246 C 0.98105 0.71402 0.55082 0.0
C2247 C 0.95324 0.70813 0.5662 0.0
N2248 N 0.94199 0.72971 0.5967 0.0
N2249 N 0.03645 0.7676 0.53588 0.0
C2250 C 0.97117 0.72601 0.58235 0.0
C2251 C 0.02054 0.74679 0.55102 0.0
N2252 N 0.044 0.74497 0.59845 0.0
N2253 N 0.96937 0.6889 0.53605 0.0
H2254 H 0.06299 0.79473 0.53553 0.0
H2255 H 0.01935 0.76176 0.52393 0.0
H2256 H 0.9411 0.66349 0.5357 0.0
H2257 H 0.99098 0.68962 0.52489 0.0
H2258 H 0.02981 0.73026 0.60991 0.0
H2259 H 0.08054 0.75512 0.59932 0.0
H2260 H 0.95356 0.74656 0.60816 0.0
H2261 H 0.90495 0.72166 0.59663 0.0
C2262 C 0.52065 0.80487 0.83153 0.0
C2263 C 0.49261 0.81789 0.81674 0.0
C2264 C 0.53899 0.76132 0.79924 0.0
C2265 C 0.55648 0.73959 0.81472 0.0
N2266 N 0.55648 0.73712 0.84644 0.0
N2267 N 0.47039 0.80268 0.78664 0.0
C2268 C 0.54604 0.76058 0.83118 0.0
C2269 C 0.50074 0.79497 0.80049 0.0
N2270 N 0.52358 0.83469 0.84572 0.0
N2271 N 0.55771 0.74836 0.78344 0.0
H2272 H 0.43944 0.82446 0.78736 0.0
H2273 H 0.47309 0.78322 0.77503 0.0
H2274 H 0.5865 0.72383 0.78231 0.0
H2275 H 0.54807 0.76575 0.77186 0.0
H2276 H 0.54676 0.82759 0.85619 0.0
H2277 H 0.50749 0.86899 0.84609 0.0
H2278 H 0.54479 0.75 0.85851 0.0
H2279 H 0.57213 0.70278 0.8471 0.0
C2280 C 0.51703 0.71431 0.41233 0.0
C2281 C 0.54275 0.69913 0.42743 0.0
C2282 C 0.48903 0.74678 0.44568 0.0
C2283 C 0.4601 0.75812 0.43094 0.0
N2284 N 0.43814 0.73694 0.40123 0.0
N2285 N 0.54216 0.68709 0.45858 0.0
C2286 C 0.47133 0.73712 0.4145 0.0
C2287 C 0.52436 0.71019 0.44417 0.0
N2288 N 0.53674 0.70968 0.39609 0.0
N2289 N 0.48461 0.77241 0.46084 0.0
H2290 H 0.56795 0.65937 0.45769 0.0
H2291 H 0.52754 0.6921 0.47099 0.0
H2292 H 0.46157 0.8023 0.46207 0.0
H2293 H 0.50787 0.76735 0.47143 0.0
H2294 H 0.52071 0.72493 0.38503 0.0
H2295 H 0.57082 0.69455 0.39378 0.0
H2296 H 0.44411 0.71854 0.38955 0.0
H2297 H 0.40274 0.7499 0.40262 0.0
C2298 C 0.55629 0.22523 0.71406 0.0
C2299 C 0.55552 0.18404 0.70309 0.0
C2300 C 0.61372 0.22122 0.68326 0.0
C2301 C 0.60841 0.26491 0.69278 0.0
N2302 N 0.59612 0.30176 0.72078 0.0
N2303 N 0.59975 0.13399 0.68301 0.0
C2304 C 0.58789 0.26392 0.70968 0.0
C2305 C 0.59068 0.17889 0.68976 0.0
N2306 N 0.52418 0.22931 0.72754 0.0
N2307 N 0.637 0.22089 0.66756 0.0
H2308 H 0.5831 0.10297 0.68811 0.0
H2309 H 0.62706 0.12709 0.67394 0.0
H2310 H 0.65393 0.25144 0.66232 0.0
H2311 H 0.63806 0.19062 0.65944 0.0
H2312 H 0.51946 0.26123 0.73462 0.0
H2313 H 0.50061 0.20136 0.73116 0.0
H2314 H 0.58424 0.30209 0.73367 0.0
H2315 H 0.61912 0.33051 0.71735 0.0
C2316 C 0.97068 0.23643 0.93516 0.0
C2317 C 0.94855 0.26216 0.94895 0.0
C2318 C 1.00469 0.22505 0.96957 0.0
C2319 C 0.03241 0.20764 0.95539 0.0
N2320 N 0.04721 0.20894 0.92407 0.0
N2321 N 0.94947 0.28755 0.97915 0.0
C2322 C 0.01698 0.21638 0.93795 0.0
C2323 C 0.9668 0.2583 0.9662 0.0
N2324 N 0.94737 0.23009 0.91957 0.0
N2325 N 0.01423 0.20952 0.98614 0.0
H2326 H 0.92312 0.31414 0.97701 0.0
H2327 H 0.96485 0.28871 0.99157 0.0
H2328 H 0.04115 0.18392 0.98892 0.0
H2329 H 0.99218 0.2182 0.99673 0.0
H2330 H 0.9611 0.20774 0.90977 0.0
H2331 H 0.91211 0.24241 0.91718 0.0
H2332 H 0.03795 0.21915 0.9114 0.0
H2333 H 0.08335 0.19831 0.9253 0.0
C2334 C 0.9434 0.7795 0.16507 0.0
C2335 C 0.97099 0.73925 0.15926 0.0
C2336 C 0.03337 0.79382 0.14774 0.0
C2337 C 0.01143 0.83225 0.15697 0.0
N2338 N 0.94486 0.86345 0.17422 0.0
N2339 N 0.04218 0.70673 0.14495 0.0
C2340 C 0.96539 0.82606 0.16511 0.0
C2341 C 0.01562 0.74599 0.15023 0.0
N2342 N 0.89695 0.77303 0.17105 0.0
N2343 N 0.07214 0.80339 0.13714 0.0
H2344 H 0.03014 0.67098 0.14643 0.0
H2345 H 0.07734 0.70928 0.13998 0.0
H2346 H 0.08537 0.83869 0.13539 0.0
H2347 H 0.08788 0.77769 0.12896 0.0
H2348 H 0.87326 0.80166 0.17357 0.0
H2349 H 0.88057 0.739 0.1723 0.0
H2350 H 0.91515 0.85933 0.18251 0.0
H2351 H 0.95885 0.89859 0.17421 0.0
C2352 C 0.43992 0.81634 0.93525 0.0
C2353 C 0.43677 0.78984 0.95114 0.0
C2354 C 0.49566 0.84554 0.96385 0.0
C2355 C 0.51057 0.85851 0.94686 0.0
N2356 N 0.49405 0.85841 0.91579 0.0
N2357 N 0.46375 0.77933 0.98102 0.0
C2358 C 0.48097 0.84611 0.93239 0.0
C2359 C 0.46402 0.80535 0.96584 0.0
N2360 N 0.40439 0.81246 0.92284 0.0
N2361 N 0.51615 0.86829 0.97783 0.0
H2362 H 0.44427 0.74713 0.98262 0.0
H2363 H 0.4867 0.78723 0.99146 0.0
H2364 H 0.54103 0.89672 0.97619 0.0
H2365 H 0.50495 0.86206 0.99062 0.0
H2366 H 0.40326 0.83456 0.9118 0.0
H2367 H 0.37343 0.79097 0.92445 0.0
H2368 H 0.47723 0.8437 0.9048 0.0
H2369 H 0.52281 0.88151 0.91281 0.0
C2370 C 0.99603 0.74804 0.66799 0.0
C2371 C 0.0162 0.72672 0.68319 0.0
C2372 C 0.9708 0.78387 0.701 0.0
C2373 C 0.95924 0.81101 0.68587 0.0
N2374 N 0.97424 0.82435 0.65497 0.0
N2375 N 0.03182 0.7331 0.7142 0.0
C2376 C 0.97536 0.79474 0.66927 0.0
C2377 C 0.0062 0.74709 0.69978 0.0
N2378 N 0.99501 0.72359 0.65251 0.0
N2379 N 0.94803 0.79306 0.71645 0.0
H2380 H 0.06078 0.7087 0.71365 0.0
H2381 H 0.02786 0.75006 0.72626 0.0
H2382 H 0.92027 0.81871 0.7176 0.0
H2383 H 0.95314 0.77154 0.7275 0.0
H2384 H 0.97717 0.73717 0.64153 0.0
H2385 H 0.00661 0.68773 0.65121 0.0
H2386 H 0.98943 0.81421 0.64307 0.0
H2387 H 0.96389 0.86071 0.65543 0.0
C2388 C 0.03684 0.15562 0.42339 0.0
C2389 C 1.00227 0.15519 0.43712 0.0
C2390 C 0.06022 0.19445 0.45666 0.0
C2391 C 0.09404 0.19659 0.44274 0.0
N2392 N 0.12225 0.1613 0.41587 0.0
N2393 N 0.98789 0.15531 0.46808 0.0
C2394 C 0.08503 0.17039 0.42718 0.0
C2395 C 0.01683 0.16749 0.45428 0.0
N2396 N 0.0233 0.14642 0.40657 0.0
N2397 N 0.06708 0.2212 0.47146 0.0
H2398 H 0.95575 0.13543 0.46647 0.0
H2399 H 0.99829 0.16053 0.48101 0.0
H2400 H 0.09757 0.24291 0.4736 0.0
H2401 H 0.0405 0.22479 0.48104 0.0
H2402 H 0.04651 0.15185 0.396 0.0
H2403 H 0.98806 0.13703 0.40289 0.0
H2404 H 0.1183 0.1393 0.40491 0.0
H2405 H 0.15809 0.17156 0.4186 0.0
C2406 C 0.55275 0.21481 0.21915 0.0
C2407 C 0.56424 0.18632 0.20434 0.0
C2408 C 0.52656 0.24735 0.18568 0.0
C2409 C 0.50653 0.27002 0.20057 0.0
N2410 N 0.49388 0.26942 0.23177 0.0
N2411 N 0.54833 0.17032 0.1736 0.0
C2412 C 0.51778 0.25221 0.21746 0.0
C2413 C 0.54759 0.20107 0.18756 0.0
N2414 N 0.57551 0.20658 0.2347 0.0
N2415 N 0.52683 0.27016 0.16985 0.0
H2416 H 0.55911 0.13425 0.17439 0.0
H2417 H 0.53238 0.17916 0.16167 0.0
H2418 H 0.51451 0.30565 0.16805 0.0
H2419 H 0.54471 0.2558 0.15903 0.0
H2420 H 0.57099 0.22907 0.2455 0.0
H2421 H 0.60274 0.18049 0.23617 0.0
H2422 H 0.49812 0.25434 0.24415 0.0
H2423 H 0.46616 0.29518 0.23097 0.0
C2424 C 0.59622 0.33406 0.60036 0.0
C2425 C 0.59811 0.29025 0.61011 0.0
C2426 C 0.51184 0.29572 0.61684 0.0
C2427 C 0.50859 0.33387 0.60446 0.0
N2428 N 0.5469 0.4008 0.58958 0.0
N2429 N 0.56436 0.23827 0.63199 0.0
C2430 C 0.55078 0.3574 0.59815 0.0
C2431 C 0.55803 0.27484 0.62018 0.0
N2432 N 0.63679 0.35013 0.59182 0.0
N2433 N 0.47045 0.27809 0.62445 0.0
H2434 H 0.59841 0.22238 0.63389 0.0
H2435 H 0.53755 0.22586 0.64047 0.0
H2436 H 0.43649 0.29421 0.62254 0.0
H2437 H 0.46933 0.24772 0.63253 0.0
H2438 H 0.63693 0.37816 0.58271 0.0
H2439 H 0.67072 0.33414 0.5936 0.0
H2440 H 0.57662 0.42186 0.58585 0.0
H2441 H 0.51356 0.41784 0.58744 0.0
C2442 C 0.61909 0.76924 0.30662 0.0
C2443 C 0.62847 0.78479 0.32381 0.0
C2444 C 0.59738 0.70772 0.33452 0.0
C2445 C 0.57236 0.70202 0.31847 0.0
N2446 N 0.5593 0.72905 0.2887 0.0
N2447 N 0.63091 0.76609 0.35466 0.0
C2448 C 0.58428 0.73214 0.30407 0.0
C2449 C 0.62052 0.75258 0.33795 0.0
N2450 N 0.63924 0.79388 0.29298 0.0
N2451 N 0.59813 0.6708 0.34644 0.0
H2452 H 0.64899 0.79816 0.35777 0.0
H2453 H 0.61969 0.74609 0.36549 0.0
H2454 H 0.58249 0.63691 0.34389 0.0
H2455 H 0.61867 0.67216 0.35786 0.0
H2456 H 0.6355 0.78276 0.28007 0.0
H2457 H 0.66347 0.82265 0.29504 0.0
H2458 H 0.56407 0.75374 0.27853 0.0
H2459 H 0.53063 0.70492 0.28663 0.0
C2460 C 0.97698 0.67345 0.09504 0.0
C2461 C 0.00659 0.672 0.07994 0.0
C2462 C 0.94873 0.72222 0.06411 0.0
C2463 C 0.91849 0.72276 0.07905 0.0
N2464 N 0.89582 0.68485 0.10625 0.0
N2465 N 0.0115 0.67875 0.04864 0.0
C2466 C 0.92992 0.69377 0.09373 0.0
C2467 C 0.9891 0.69075 0.06392 0.0
N2468 N 0.99437 0.65876 0.11086 0.0
N2469 N 0.94055 0.75335 0.05052 0.0
H2470 H 0.04066 0.65449 0.04817 0.0
H2471 H 0.99783 0.68861 0.03646 0.0
H2472 H 0.91246 0.77879 0.05046 0.0
H2473 H 0.96459 0.75715 0.04011 0.0
H2474 H 0.97471 0.6631 0.12234 0.0
H2475 H 0.02956 0.64597 0.11285 0.0
H2476 H 0.90012 0.65732 0.11546 0.0
H2477 H 0.86136 0.70063 0.10618 0.0
C2478 C 0.95962 0.28842 0.79763 0.0
C2479 C 0.97736 0.31821 0.81134 0.0
C2480 C 0.91638 0.28519 0.83124 0.0
C2481 C 0.90252 0.25256 0.81801 0.0
N2482 N 0.89362 0.2368 0.78753 0.0
N2483 N 0.9593 0.35901 0.83856 0.0
C2484 C 0.91728 0.26045 0.80065 0.0
C2485 C 0.9511 0.32149 0.8273 0.0
N2486 N 0.98528 0.28322 0.7825 0.0
N2487 N 0.89947 0.27884 0.84781 0.0
H2488 H 0.98404 0.38673 0.83592 0.0
H2489 H 0.93812 0.36522 0.84959 0.0
H2490 H 0.87246 0.25349 0.85079 0.0
H2491 H 0.9134 0.29737 0.85856 0.0
H2492 H 0.97583 0.25834 0.77284 0.0
H2493 H 0.0185 0.3004 0.78021 0.0
H2494 H 0.90087 0.2429 0.77437 0.0
H2495 H 0.86355 0.21455 0.79007 0.0
loop_
_geom_bond_atom_site_label_1
_geom_bond_atom_site_label_2
_geom_bond_distance
_geom_bond_site_symmetry_2
_ccdc_geom_bond_type
C0 C1 1.351 . S
C0 N3 1.368 . S
C0 H5 0.931 . S
C1 C0 1.351 . S
C1 N2 1.373 . S
C1 H29 0.930 . S
N2 C1 1.373 . S
N2 C4 1.340 . S
N3 C0 1.368 . S
N3 C4 1.321 . S
N3 Co6 2.135 . S
C4 N2 1.340 . S
C4 N3 1.321 . S
C4 H28 0.930 . S
H5 C0 0.931 . S
Co6 N3 2.135 . S
Co6 N9 2.121 . S
Co6 O14 2.055 . S
Co6 O17 2.039 . S
Co6 N20 2.140 . S
C7 O8 1.227 . S
C7 O17 1.265 . S
O8 C7 1.227 . S
N9 Co6 2.121 . S
N9 C11 1.375 . S
N9 C12 1.313 . S
C10 C11 1.338 . S
C10 N13 1.377 . S
C10 H30 0.930 . S
C11 N9 1.375 . S
C11 C10 1.338 . S
C11 H15 0.931 . S
C12 N9 1.313 . S
C12 N13 1.344 . S
C12 H16 0.930 . S
N13 C10 1.377 . S
N13 C12 1.344 . S
O14 Co6 2.055 . S
O14 C18 1.253 . S
H15 C11 0.931 . S
H16 C12 0.930 . S
O17 Co6 2.039 . S
O17 C7 1.265 . S
C18 O14 1.253 . S
C18 O19 1.227 . S
O19 C18 1.227 . S
N20 Co6 2.140 . S
N20 C23 1.346 . S
N20 C24 1.345 . S
C21 C22 1.387 . S
C21 C25 1.391 . S
C22 C21 1.387 . S
C22 C23 1.369 . S
C22 H31 0.929 . S
C23 N20 1.346 . S
C23 C22 1.369 . S
C23 H26 0.928 . S
C24 N20 1.345 . S
C24 C25 1.371 . S
C24 H27 0.931 . S
C25 C21 1.391 . S
C25 C24 1.371 . S
C25 H32 0.930 . S
H26 C23 0.928 . S
H27 C24 0.931 . S
H28 C4 0.930 . S
H29 C1 0.930 . S
H30 C10 0.930 . S
H31 C22 0.929 . S
H32 C25 0.930 . S
C33 C34 1.351 . S
C33 N36 1.368 . S
C33 H38 0.931 . S
C34 C33 1.351 . S
C34 N35 1.373 . S
C34 H62 0.930 . S
N35 C34 1.373 . S
N35 C37 1.340 . S
N36 C33 1.368 . S
N36 C37 1.321 . S
N36 Co39 2.135 1_655 S
C37 N35 1.340 . S
C37 N36 1.321 . S
C37 H61 0.930 . S
H38 C33 0.931 . S
Co39 N36 2.135 1_455 S
Co39 N42 2.121 1_565 S
Co39 O47 2.055 . S
Co39 O50 2.039 . S
Co39 N53 2.140 1_565 S
C40 O41 1.227 1_565 S
C40 O50 1.265 . S
O41 C40 1.227 1_545 S
N42 Co39 2.121 1_545 S
N42 C44 1.375 . S
N42 C45 1.313 1_545 S
C43 C44 1.338 . S
C43 N46 1.377 . S
C43 H63 0.930 . S
C44 N42 1.375 . S
C44 C43 1.338 . S
C44 H48 0.931 . S
C45 N42 1.313 1_565 S
C45 N46 1.344 1_565 S
C45 H49 0.930 . S
N46 C43 1.377 . S
N46 C45 1.344 1_545 S
O47 Co39 2.055 . S
O47 C51 1.253 . S
H48 C44 0.931 . S
H49 C45 0.930 . S
O50 Co39 2.039 . S
O50 C40 1.265 . S
C51 O47 1.253 . S
C51 O52 1.227 . S
O52 C51 1.227 . S
N53 Co39 2.140 1_545 S
N53 C56 1.351 . S
N53 C57 1.345 . S
C54 C55 1.387 1_455 S
C54 C58 1.391 . S
C55 C54 1.387 1_655 S
C55 C56 1.368 1_655 S
C55 H64 0.929 . S
C56 N53 1.351 . S
C56 C55 1.368 1_455 S
C56 H59 0.924 1_455 S
C57 N53 1.345 . S
C57 C58 1.371 . S
C57 H60 0.931 . S
C58 C54 1.391 . S
C58 C57 1.371 . S
C58 H65 0.930 . S
H59 C56 0.924 1_655 S
H60 C57 0.931 . S
H61 C37 0.930 . S
H62 C34 0.930 . S
H63 C43 0.930 . S
H64 C55 0.929 . S
H65 C58 0.930 . S
C66 C67 1.351 . S
C66 N69 1.368 . S
C66 H71 0.931 . S
C67 C66 1.351 . S
C67 N68 1.373 . S
C67 H95 0.930 . S
N68 C67 1.373 . S
N68 C70 1.340 . S
N69 C66 1.368 . S
N69 C70 1.321 . S
N69 Co72 2.135 . S
C70 N68 1.340 . S
C70 N69 1.321 . S
C70 H94 0.930 . S
H71 C66 0.931 . S
Co72 N69 2.135 . S
Co72 N75 2.121 . S
Co72 O80 2.055 . S
Co72 O83 2.039 . S
Co72 N86 2.140 . S
C73 O74 1.227 . S
C73 O83 1.265 . S
O74 C73 1.227 . S
N75 Co72 2.121 . S
N75 C77 1.375 . S
N75 C78 1.313 . S
C76 C77 1.338 . S
C76 N79 1.377 . S
C76 H96 0.930 . S
C77 N75 1.375 . S
C77 C76 1.338 . S
C77 H81 0.931 . S
C78 N75 1.313 . S
C78 N79 1.344 . S
C78 H82 0.930 . S
N79 C76 1.377 . S
N79 C78 1.344 . S
O80 Co72 2.055 . S
O80 C84 1.253 . S
H81 C77 0.931 . S
H82 C78 0.930 . S
O83 Co72 2.039 . S
O83 C73 1.265 . S
C84 O80 1.253 . S
C84 O85 1.227 . S
O85 C84 1.227 . S
N86 Co72 2.140 . S
N86 C89 1.346 . S
N86 C90 1.345 . S
C87 C88 1.387 . S
C87 C91 1.391 . S
C88 C87 1.387 . S
C88 C89 1.369 . S
C88 H97 0.929 . S
C89 N86 1.346 . S
C89 C88 1.369 . S
C89 H92 0.928 . S
C90 N86 1.345 . S
C90 C91 1.371 . S
C90 H93 0.931 . S
C91 C87 1.391 . S
C91 C90 1.371 . S
C91 H98 0.930 . S
H92 C89 0.928 . S
H93 C90 0.931 . S
H94 C70 0.930 . S
H95 C67 0.930 . S
H96 C76 0.930 . S
H97 C88 0.929 . S
H98 C91 0.930 . S
C99 C100 1.351 . S
C99 N102 1.368 . S
C99 H104 0.931 . S
C100 C99 1.351 . S
C100 N101 1.373 . S
C100 H128 0.930 . S
N101 C100 1.373 . S
N101 C103 1.340 . S
N102 C99 1.368 . S
N102 C103 1.321 . S
N102 Co105 2.135 . S
C103 N101 1.340 . S
C103 N102 1.321 . S
C103 H127 0.930 . S
H104 C99 0.931 . S
Co105 N102 2.135 . S
Co105 N108 2.121 1_545 S
Co105 O113 2.055 . S
Co105 O116 2.039 . S
Co105 N119 2.140 1_545 S
C106 O107 1.227 1_545 S
C106 O116 1.265 . S
O107 C106 1.227 1_565 S
N108 Co105 2.121 1_565 S
N108 C110 1.375 . S
N108 C111 1.313 1_565 S
C109 C110 1.338 . S
C109 N112 1.377 . S
C109 H129 0.930 . S
C110 N108 1.375 . S
C110 C109 1.338 . S
C110 H114 0.931 . S
C111 N108 1.313 1_545 S
C111 N112 1.344 1_545 S
C111 H115 0.930 . S
N112 C109 1.377 . S
N112 C111 1.344 1_565 S
O113 Co105 2.055 . S
O113 C117 1.253 . S
H114 C110 0.931 . S
H115 C111 0.930 . S
O116 Co105 2.039 . S
O116 C106 1.265 . S
C117 O113 1.253 . S
C117 O118 1.227 . S
O118 C117 1.227 . S
N119 Co105 2.140 1_565 S
N119 C122 1.346 . S
N119 C123 1.345 . S
C120 C121 1.387 . S
C120 C124 1.391 . S
C121 C120 1.387 . S
C121 C122 1.369 . S
C121 H130 0.929 . S
C122 N119 1.346 . S
C122 C121 1.369 . S
C122 H125 0.928 . S
C123 N119 1.345 . S
C123 C124 1.371 . S
C123 H126 0.931 . S
C124 C120 1.391 . S
C124 C123 1.371 . S
C124 H131 0.930 . S
H125 C122 0.928 . S
H126 C123 0.931 . S
H127 C103 0.930 . S
H128 C100 0.930 . S
H129 C109 0.930 . S
H130 C121 0.929 . S
H131 C124 0.930 . S
C132 C133 1.351 . S
C132 N135 1.368 . S
C132 H137 0.931 . S
C133 C132 1.351 . S
C133 N134 1.373 . S
C133 H161 0.930 . S
N134 C133 1.373 . S
N134 C136 1.340 . S
N135 C132 1.368 . S
N135 C136 1.321 . S
N135 Co138 2.135 . S
C136 N134 1.340 . S
C136 N135 1.321 . S
C136 H160 0.930 . S
H137 C132 0.931 . S
Co138 N135 2.135 . S
Co138 N141 2.121 . S
Co138 O146 2.055 . S
Co138 O149 2.039 . S
Co138 N152 2.140 . S
C139 O140 1.227 . S
C139 O149 1.265 . S
O140 C139 1.227 . S
N141 Co138 2.121 . S
N141 C143 1.375 . S
N141 C144 1.313 . S
C142 C143 1.338 . S
C142 N145 1.377 . S
C142 H162 0.930 . S
C143 N141 1.375 . S
C143 C142 1.338 . S
C143 H147 0.931 . S
C144 N141 1.313 . S
C144 N145 1.344 . S
C144 H148 0.930 . S
N145 C142 1.377 . S
N145 C144 1.344 . S
O146 Co138 2.055 . S
O146 C150 1.253 . S
H147 C143 0.931 . S
H148 C144 0.930 . S
O149 Co138 2.039 . S
O149 C139 1.265 . S
C150 O146 1.253 . S
C150 O151 1.227 . S
O151 C150 1.227 . S
N152 Co138 2.140 . S
N152 C155 1.346 . S
N152 C156 1.345 . S
C153 C154 1.387 . S
C153 C157 1.391 . S
C154 C153 1.387 . S
C154 C155 1.369 . S
C154 H163 0.929 . S
C155 N152 1.346 . S
C155 C154 1.369 . S
C155 H158 0.928 . S
C156 N152 1.345 . S
C156 C157 1.371 . S
C156 H159 0.931 . S
C157 C153 1.391 . S
C157 C156 1.371 . S
C157 H164 0.930 . S
H158 C155 0.928 . S
H159 C156 0.931 . S
H160 C136 0.930 . S
H161 C133 0.930 . S
H162 C142 0.930 . S
H163 C154 0.929 . S
H164 C157 0.930 . S
C165 C166 1.351 . S
C165 N168 1.368 . S
C165 H170 0.931 . S
C166 C165 1.351 . S
C166 N167 1.373 . S
C166 H194 0.930 . S
N167 C166 1.373 . S
N167 C169 1.340 . S
N168 C165 1.368 . S
N168 C169 1.321 . S
N168 Co171 2.135 . S
C169 N167 1.340 . S
C169 N168 1.321 . S
C169 H193 0.930 . S
H170 C165 0.931 . S
Co171 N168 2.135 . S
Co171 N174 2.121 1_565 S
Co171 O179 2.055 . S
Co171 O182 2.039 . S
Co171 N185 2.140 1_565 S
C172 O173 1.227 1_565 S
C172 O182 1.265 . S
O173 C172 1.227 1_545 S
N174 Co171 2.121 1_545 S
N174 C176 1.375 . S
N174 C177 1.313 1_545 S
C175 C176 1.338 . S
C175 N178 1.377 . S
C175 H195 0.930 . S
C176 N174 1.375 . S
C176 C175 1.338 . S
C176 H180 0.931 . S
C177 N174 1.313 1_565 S
C177 N178 1.344 1_565 S
C177 H181 0.930 . S
N178 C175 1.377 . S
N178 C177 1.344 1_545 S
O179 Co171 2.055 . S
O179 C183 1.253 . S
H180 C176 0.931 . S
H181 C177 0.930 . S
O182 Co171 2.039 . S
O182 C172 1.265 . S
C183 O179 1.253 . S
C183 O184 1.227 . S
O184 C183 1.227 . S
N185 Co171 2.140 1_545 S
N185 C188 1.346 . S
N185 C189 1.345 . S
C186 C187 1.387 . S
C186 C190 1.391 . S
C187 C186 1.387 . S
C187 C188 1.369 . S
C187 H196 0.929 . S
C188 N185 1.346 . S
C188 C187 1.369 . S
C188 H191 0.928 . S
C189 N185 1.345 . S
C189 C190 1.371 . S
C189 H192 0.931 . S
C190 C186 1.391 . S
C190 C189 1.371 . S
C190 H197 0.930 . S
H191 C188 0.928 . S
H192 C189 0.931 . S
H193 C169 0.930 . S
H194 C166 0.930 . S
H195 C175 0.930 . S
H196 C187 0.929 . S
H197 C190 0.930 . S
C198 C199 1.351 . S
C198 N201 1.368 . S
C198 H203 0.931 . S
C199 C198 1.351 . S
C199 N200 1.373 . S
C199 H227 0.930 . S
N200 C199 1.373 . S
N200 C202 1.340 . S
N201 C198 1.368 . S
N201 C202 1.321 . S
N201 Co204 2.135 . S
C202 N200 1.340 . S
C202 N201 1.321 . S
C202 H226 0.930 . S
H203 C198 0.931 . S
Co204 N201 2.135 . S
Co204 N207 2.121 . S
Co204 O212 2.055 . S
Co204 O215 2.039 . S
Co204 N218 2.140 . S
C205 O206 1.227 . S
C205 O215 1.265 . S
O206 C205 1.227 . S
N207 Co204 2.121 . S
N207 C209 1.375 . S
N207 C210 1.313 . S
C208 C209 1.338 . S
C208 N211 1.377 . S
C208 H228 0.930 . S
C209 N207 1.375 . S
C209 C208 1.338 . S
C209 H213 0.931 . S
C210 N207 1.313 . S
C210 N211 1.344 . S
C210 H214 0.930 . S
N211 C208 1.377 . S
N211 C210 1.344 . S
O212 Co204 2.055 . S
O212 C216 1.253 . S
H213 C209 0.931 . S
H214 C210 0.930 . S
O215 Co204 2.039 . S
O215 C205 1.265 . S
C216 O212 1.253 . S
C216 O217 1.227 . S
O217 C216 1.227 . S
N218 Co204 2.140 . S
N218 C221 1.346 . S
N218 C222 1.345 . S
C219 C220 1.387 . S
C219 C223 1.391 . S
C220 C219 1.387 . S
C220 C221 1.369 . S
C220 H229 0.929 . S
C221 N218 1.346 . S
C221 C220 1.369 . S
C221 H224 0.928 . S
C222 N218 1.345 . S
C222 C223 1.371 . S
C222 H225 0.931 . S
C223 C219 1.391 . S
C223 C222 1.371 . S
C223 H230 0.930 . S
H224 C221 0.928 . S
H225 C222 0.931 . S
H226 C202 0.930 . S
H227 C199 0.930 . S
H228 C208 0.930 . S
H229 C220 0.929 . S
H230 C223 0.930 . S
C231 C232 1.351 . S
C231 N234 1.368 . S
C231 H236 0.931 . S
C232 C231 1.351 . S
C232 N233 1.373 . S
C232 H260 0.930 . S
N233 C232 1.373 . S
N233 C235 1.340 . S
N234 C231 1.368 . S
N234 C235 1.321 . S
N234 Co237 2.135 1_655 S
C235 N233 1.340 . S
C235 N234 1.321 . S
C235 H259 0.930 . S
H236 C231 0.931 . S
Co237 N234 2.135 1_455 S
Co237 N240 2.121 1_545 S
Co237 O245 2.055 . S
Co237 O248 2.039 . S
Co237 N251 2.140 1_545 S
C238 O239 1.227 1_545 S
C238 O248 1.265 . S
O239 C238 1.227 1_565 S
N240 Co237 2.121 1_565 S
N240 C242 1.375 . S
N240 C243 1.313 1_565 S
C241 C242 1.338 . S
C241 N244 1.377 . S
C241 H261 0.930 . S
C242 N240 1.375 . S
C242 C241 1.338 . S
C242 H246 0.931 . S
C243 N240 1.313 1_545 S
C243 N244 1.344 1_545 S
C243 H247 0.930 . S
N244 C241 1.377 . S
N244 C243 1.344 1_565 S
O245 Co237 2.055 . S
O245 C249 1.253 . S
H246 C242 0.931 . S
H247 C243 0.930 . S
O248 Co237 2.039 . S
O248 C238 1.265 . S
C249 O245 1.253 . S
C249 O250 1.227 . S
O250 C249 1.227 . S
N251 Co237 2.140 1_565 S
N251 C254 1.351 . S
N251 C255 1.345 . S
C252 C253 1.387 1_455 S
C252 C256 1.391 . S
C253 C252 1.387 1_655 S
C253 C254 1.368 1_655 S
C253 H262 0.929 . S
C254 N251 1.351 . S
C254 C253 1.368 1_455 S
C254 H257 0.924 1_455 S
C255 N251 1.345 . S
C255 C256 1.371 . S
C255 H258 0.931 . S
C256 C252 1.391 . S
C256 C255 1.371 . S
C256 H263 0.930 . S
H257 C254 0.924 1_655 S
H258 C255 0.931 . S
H259 C235 0.930 . S
H260 C232 0.930 . S
H261 C241 0.930 . S
H262 C253 0.929 . S
H263 C256 0.930 . S
C264 C265 1.351 . S
C264 N267 1.368 . S
C264 H269 0.931 . S
C265 C264 1.351 . S
C265 N266 1.373 . S
C265 H293 0.930 . S
N266 C265 1.373 . S
N266 C268 1.340 . S
N267 C264 1.368 . S
N267 C268 1.321 . S
N267 Co270 2.135 . S
C268 N266 1.340 . S
C268 N267 1.321 . S
C268 H292 0.930 . S
H269 C264 0.931 . S
Co270 N267 2.135 . S
Co270 N273 2.121 . S
Co270 O278 2.055 . S
Co270 O281 2.039 . S
Co270 N284 2.140 . S
C271 O272 1.227 . S
C271 O281 1.265 . S
O272 C271 1.227 . S
N273 Co270 2.121 . S
N273 C275 1.375 . S
N273 C276 1.313 . S
C274 C275 1.338 . S
C274 N277 1.377 . S
C274 H294 0.930 . S
C275 N273 1.375 . S
C275 C274 1.338 . S
C275 H279 0.931 . S
C276 N273 1.313 . S
C276 N277 1.344 . S
C276 H280 0.930 . S
N277 C274 1.377 . S
N277 C276 1.344 . S
O278 Co270 2.055 . S
O278 C282 1.253 . S
H279 C275 0.931 . S
H280 C276 0.930 . S
O281 Co270 2.039 . S
O281 C271 1.265 . S
C282 O278 1.253 . S
C282 O283 1.227 . S
O283 C282 1.227 . S
N284 Co270 2.140 . S
N284 C287 1.346 . S
N284 C288 1.345 . S
C285 C286 1.387 . S
C285 C289 1.391 . S
C286 C285 1.387 . S
C286 C287 1.369 . S
C286 H295 0.929 . S
C287 N284 1.346 . S
C287 C286 1.369 . S
C287 H290 0.928 . S
C288 N284 1.345 . S
C288 C289 1.371 . S
C288 H291 0.931 . S
C289 C285 1.391 . S
C289 C288 1.371 . S
C289 H296 0.930 . S
H290 C287 0.928 . S
H291 C288 0.931 . S
H292 C268 0.930 . S
H293 C265 0.930 . S
H294 C274 0.930 . S
H295 C286 0.929 . S
H296 C289 0.930 . S
C297 C298 1.351 . S
C297 N300 1.368 . S
C297 H302 0.931 . S
C298 C297 1.351 . S
C298 N299 1.373 . S
C298 H326 0.930 . S
N299 C298 1.373 . S
N299 C301 1.340 . S
N300 C297 1.368 . S
N300 C301 1.321 . S
N300 Co303 2.135 1_455 S
C301 N299 1.340 . S
C301 N300 1.321 . S
C301 H325 0.930 . S
H302 C297 0.931 . S
Co303 N300 2.135 1_655 S
Co303 N306 2.121 1_545 S
Co303 O311 2.055 . S
Co303 O314 2.039 . S
Co303 N317 2.140 1_545 S
C304 O305 1.227 1_545 S
C304 O314 1.265 . S
O305 C304 1.227 1_565 S
N306 Co303 2.121 1_565 S
N306 C308 1.375 . S
N306 C309 1.313 1_565 S
C307 C308 1.338 . S
C307 N310 1.377 . S
C307 H327 0.930 . S
C308 N306 1.375 . S
C308 C307 1.338 . S
C308 H312 0.931 . S
C309 N306 1.313 1_545 S
C309 N310 1.344 1_545 S
C309 H313 0.930 . S
N310 C307 1.377 . S
N310 C309 1.344 1_565 S
O311 Co303 2.055 . S
O311 C315 1.253 . S
H312 C308 0.931 . S
H313 C309 0.930 . S
O314 Co303 2.039 . S
O314 C304 1.265 . S
C315 O311 1.253 . S
C315 O316 1.227 . S
O316 C315 1.227 . S
N317 Co303 2.140 1_565 S
N317 C320 1.351 . S
N317 C321 1.345 . S
C318 C319 1.387 1_655 S
C318 C322 1.391 . S
C319 C318 1.387 1_455 S
C319 C320 1.368 1_455 S
C319 H328 0.929 . S
C320 N317 1.351 . S
C320 C319 1.368 1_655 S
C320 H323 0.924 1_655 S
C321 N317 1.345 . S
C321 C322 1.371 . S
C321 H324 0.931 . S
C322 C318 1.391 . S
C322 C321 1.371 . S
C322 H329 0.930 . S
H323 C320 0.924 1_455 S
H324 C321 0.931 . S
H325 C301 0.930 . S
H326 C298 0.930 . S
H327 C307 0.930 . S
H328 C319 0.929 . S
H329 C322 0.930 . S
C330 C331 1.351 . S
C330 N333 1.368 . S
C330 H335 0.931 . S
C331 C330 1.351 . S
C331 N332 1.373 . S
C331 H359 0.930 . S
N332 C331 1.373 . S
N332 C334 1.340 . S
N333 C330 1.368 . S
N333 C334 1.321 . S
N333 Co336 2.135 . S
C334 N332 1.340 . S
C334 N333 1.321 . S
C334 H358 0.930 . S
H335 C330 0.931 . S
Co336 N333 2.135 . S
Co336 N339 2.121 . S
Co336 O344 2.055 . S
Co336 O347 2.039 . S
Co336 N350 2.140 . S
C337 O338 1.227 . S
C337 O347 1.265 . S
O338 C337 1.227 . S
N339 Co336 2.121 . S
N339 C341 1.375 . S
N339 C342 1.313 . S
C340 C341 1.338 . S
C340 N343 1.377 . S
C340 H360 0.930 . S
C341 N339 1.375 . S
C341 C340 1.338 . S
C341 H345 0.931 . S
C342 N339 1.313 . S
C342 N343 1.344 . S
C342 H346 0.930 . S
N343 C340 1.377 . S
N343 C342 1.344 . S
O344 Co336 2.055 . S
O344 C348 1.253 . S
H345 C341 0.931 . S
H346 C342 0.930 . S
O347 Co336 2.039 . S
O347 C337 1.265 . S
C348 O344 1.253 . S
C348 O349 1.227 . S
O349 C348 1.227 . S
N350 Co336 2.140 . S
N350 C353 1.346 . S
N350 C354 1.345 . S
C351 C352 1.387 . S
C351 C355 1.391 . S
C352 C351 1.387 . S
C352 C353 1.369 . S
C352 H361 0.929 . S
C353 N350 1.346 . S
C353 C352 1.369 . S
C353 H356 0.928 . S
C354 N350 1.345 . S
C354 C355 1.371 . S
C354 H357 0.931 . S
C355 C351 1.391 . S
C355 C354 1.371 . S
C355 H362 0.930 . S
H356 C353 0.928 . S
H357 C354 0.931 . S
H358 C334 0.930 . S
H359 C331 0.930 . S
H360 C340 0.930 . S
H361 C352 0.929 . S
H362 C355 0.930 . S
C363 C364 1.351 . S
C363 N366 1.368 . S
C363 H368 0.931 . S
C364 C363 1.351 . S
C364 N365 1.373 . S
C364 H392 0.930 . S
N365 C364 1.373 . S
N365 C367 1.340 . S
N366 C363 1.368 . S
N366 C367 1.321 . S
N366 Co369 2.135 . S
C367 N365 1.340 . S
C367 N366 1.321 . S
C367 H391 0.930 . S
H368 C363 0.931 . S
Co369 N366 2.135 . S
Co369 N372 2.121 1_565 S
Co369 O377 2.055 . S
Co369 O380 2.039 . S
Co369 N383 2.140 1_565 S
C370 O371 1.227 1_565 S
C370 O380 1.265 . S
O371 C370 1.227 1_545 S
N372 Co369 2.121 1_545 S
N372 C374 1.375 . S
N372 C375 1.313 1_545 S
C373 C374 1.338 . S
C373 N376 1.377 . S
C373 H393 0.930 . S
C374 N372 1.375 . S
C374 C373 1.338 . S
C374 H378 0.931 . S
C375 N372 1.313 1_565 S
C375 N376 1.344 1_565 S
C375 H379 0.930 . S
N376 C373 1.377 . S
N376 C375 1.344 1_545 S
O377 Co369 2.055 . S
O377 C381 1.253 . S
H378 C374 0.931 . S
H379 C375 0.930 . S
O380 Co369 2.039 . S
O380 C370 1.265 . S
C381 O377 1.253 . S
C381 O382 1.227 . S
O382 C381 1.227 . S
N383 Co369 2.140 1_545 S
N383 C386 1.346 . S
N383 C387 1.345 . S
C384 C385 1.387 . S
C384 C388 1.391 . S
C385 C384 1.387 . S
C385 C386 1.369 . S
C385 H394 0.929 . S
C386 N383 1.346 . S
C386 C385 1.369 . S
C386 H389 0.928 . S
C387 N383 1.345 . S
C387 C388 1.371 . S
C387 H390 0.931 . S
C388 C384 1.391 . S
C388 C387 1.371 . S
C388 H395 0.930 . S
H389 C386 0.928 . S
H390 C387 0.931 . S
H391 C367 0.930 . S
H392 C364 0.930 . S
H393 C373 0.930 . S
H394 C385 0.929 . S
H395 C388 0.930 . S
C396 C397 1.351 . S
C396 N399 1.368 . S
C396 H401 0.931 . S
C397 C396 1.351 . S
C397 N398 1.373 . S
C397 H425 0.930 . S
N398 C397 1.373 . S
N398 C400 1.340 . S
N399 C396 1.368 . S
N399 C400 1.321 . S
N399 Co402 2.135 . S
C400 N398 1.340 . S
C400 N399 1.321 . S
C400 H424 0.930 . S
H401 C396 0.931 . S
Co402 N399 2.135 . S
Co402 N405 2.121 . S
Co402 O410 2.055 . S
Co402 O413 2.039 . S
Co402 N416 2.140 . S
C403 O404 1.227 . S
C403 O413 1.265 . S
O404 C403 1.227 . S
N405 Co402 2.121 . S
N405 C407 1.375 . S
N405 C408 1.313 . S
C406 C407 1.338 . S
C406 N409 1.377 . S
C406 H426 0.930 . S
C407 N405 1.375 . S
C407 C406 1.338 . S
C407 H411 0.931 . S
C408 N405 1.313 . S
C408 N409 1.344 . S
C408 H412 0.930 . S
N409 C406 1.377 . S
N409 C408 1.344 . S
O410 Co402 2.055 . S
O410 C414 1.253 . S
H411 C407 0.931 . S
H412 C408 0.930 . S
O413 Co402 2.039 . S
O413 C403 1.265 . S
C414 O410 1.253 . S
C414 O415 1.227 . S
O415 C414 1.227 . S
N416 Co402 2.140 . S
N416 C419 1.346 . S
N416 C420 1.345 . S
C417 C418 1.387 . S
C417 C421 1.391 . S
C418 C417 1.387 . S
C418 C419 1.369 . S
C418 H427 0.929 . S
C419 N416 1.346 . S
C419 C418 1.369 . S
C419 H422 0.928 . S
C420 N416 1.345 . S
C420 C421 1.371 . S
C420 H423 0.931 . S
C421 C417 1.391 . S
C421 C420 1.371 . S
C421 H428 0.930 . S
H422 C419 0.928 . S
H423 C420 0.931 . S
H424 C400 0.930 . S
H425 C397 0.930 . S
H426 C406 0.930 . S
H427 C418 0.929 . S
H428 C421 0.930 . S
C429 C430 1.351 . S
C429 N432 1.368 . S
C429 H434 0.931 . S
C430 C429 1.351 . S
C430 N431 1.373 . S
C430 H458 0.930 . S
N431 C430 1.373 . S
N431 C433 1.340 . S
N432 C429 1.368 . S
N432 C433 1.321 . S
N432 Co435 2.135 . S
C433 N431 1.340 . S
C433 N432 1.321 . S
C433 H457 0.930 . S
H434 C429 0.931 . S
Co435 N432 2.135 . S
Co435 N438 2.121 1_545 S
Co435 O443 2.055 . S
Co435 O446 2.039 . S
Co435 N449 2.140 1_545 S
C436 O437 1.227 1_545 S
C436 O446 1.265 . S
O437 C436 1.227 1_565 S
N438 Co435 2.121 1_565 S
N438 C440 1.375 . S
N438 C441 1.313 1_565 S
C439 C440 1.338 . S
C439 N442 1.377 . S
C439 H459 0.930 . S
C440 N438 1.375 . S
C440 C439 1.338 . S
C440 H444 0.931 . S
C441 N438 1.313 1_545 S
C441 N442 1.344 1_545 S
C441 H445 0.930 . S
N442 C439 1.377 . S
N442 C441 1.344 1_565 S
O443 Co435 2.055 . S
O443 C447 1.253 . S
H444 C440 0.931 . S
H445 C441 0.930 . S
O446 Co435 2.039 . S
O446 C436 1.265 . S
C447 O443 1.253 . S
C447 O448 1.227 . S
O448 C447 1.227 . S
N449 Co435 2.140 1_565 S
N449 C452 1.346 . S
N449 C453 1.345 . S
C450 C451 1.387 . S
C450 C454 1.391 . S
C451 C450 1.387 . S
C451 C452 1.369 . S
C451 H460 0.929 . S
C452 N449 1.346 . S
C452 C451 1.369 . S
C452 H455 0.928 . S
C453 N449 1.345 . S
C453 C454 1.371 . S
C453 H456 0.931 . S
C454 C450 1.391 . S
C454 C453 1.371 . S
C454 H461 0.930 . S
H455 C452 0.928 . S
H456 C453 0.931 . S
H457 C433 0.930 . S
H458 C430 0.930 . S
H459 C439 0.930 . S
H460 C451 0.929 . S
H461 C454 0.930 . S
C462 C463 1.351 . S
C462 N465 1.368 . S
C462 H467 0.931 . S
C463 C462 1.351 . S
C463 N464 1.373 . S
C463 H491 0.930 . S
N464 C463 1.373 . S
N464 C466 1.340 . S
N465 C462 1.368 . S
N465 C466 1.321 . S
N465 Co468 2.135 . S
C466 N464 1.340 . S
C466 N465 1.321 . S
C466 H490 0.930 . S
H467 C462 0.931 . S
Co468 N465 2.135 . S
Co468 N471 2.121 . S
Co468 O476 2.055 . S
Co468 O479 2.039 . S
Co468 N482 2.140 . S
C469 O470 1.227 . S
C469 O479 1.265 . S
O470 C469 1.227 . S
N471 Co468 2.121 . S
N471 C473 1.375 . S
N471 C474 1.313 . S
C472 C473 1.338 . S
C472 N475 1.377 . S
C472 H492 0.930 . S
C473 N471 1.375 . S
C473 C472 1.338 . S
C473 H477 0.931 . S
C474 N471 1.313 . S
C474 N475 1.344 . S
C474 H478 0.930 . S
N475 C472 1.377 . S
N475 C474 1.344 . S
O476 Co468 2.055 . S
O476 C480 1.253 . S
H477 C473 0.931 . S
H478 C474 0.930 . S
O479 Co468 2.039 . S
O479 C469 1.265 . S
C480 O476 1.253 . S
C480 O481 1.227 . S
O481 C480 1.227 . S
N482 Co468 2.140 . S
N482 C485 1.346 . S
N482 C486 1.345 . S
C483 C484 1.387 . S
C483 C487 1.391 . S
C484 C483 1.387 . S
C484 C485 1.369 . S
C484 H493 0.929 . S
C485 N482 1.346 . S
C485 C484 1.369 . S
C485 H488 0.928 . S
C486 N482 1.345 . S
C486 C487 1.371 . S
C486 H489 0.931 . S
C487 C483 1.391 . S
C487 C486 1.371 . S
C487 H494 0.930 . S
H488 C485 0.928 . S
H489 C486 0.931 . S
H490 C466 0.930 . S
H491 C463 0.930 . S
H492 C472 0.930 . S
H493 C484 0.929 . S
H494 C487 0.930 . S
C495 C496 1.351 . S
C495 N498 1.368 . S
C495 H500 0.931 . S
C496 C495 1.351 . S
C496 N497 1.373 . S
C496 H524 0.930 . S
N497 C496 1.373 . S
N497 C499 1.340 . S
N498 C495 1.368 . S
N498 C499 1.321 . S
N498 Co501 2.135 1_455 S
C499 N497 1.340 . S
C499 N498 1.321 . S
C499 H523 0.930 . S
H500 C495 0.931 . S
Co501 N498 2.135 1_655 S
Co501 N504 2.121 1_565 S
Co501 O509 2.055 . S
Co501 O512 2.039 . S
Co501 N515 2.140 1_565 S
C502 O503 1.227 1_565 S
C502 O512 1.265 . S
O503 C502 1.227 1_545 S
N504 Co501 2.121 1_545 S
N504 C506 1.375 . S
N504 C507 1.313 1_545 S
C505 C506 1.338 . S
C505 N508 1.377 . S
C505 H525 0.930 . S
C506 N504 1.375 . S
C506 C505 1.338 . S
C506 H510 0.931 . S
C507 N504 1.313 1_565 S
C507 N508 1.344 1_565 S
C507 H511 0.930 . S
N508 C505 1.377 . S
N508 C507 1.344 1_545 S
O509 Co501 2.055 . S
O509 C513 1.253 . S
H510 C506 0.931 . S
H511 C507 0.930 . S
O512 Co501 2.039 . S
O512 C502 1.265 . S
C513 O509 1.253 . S
C513 O514 1.227 . S
O514 C513 1.227 . S
N515 Co501 2.140 1_545 S
N515 C518 1.351 . S
N515 C519 1.345 . S
C516 C517 1.387 1_655 S
C516 C520 1.391 . S
C517 C516 1.387 1_455 S
C517 C518 1.368 1_455 S
C517 H526 0.929 . S
C518 N515 1.351 . S
C518 C517 1.368 1_655 S
C518 H521 0.924 1_655 S
C519 N515 1.345 . S
C519 C520 1.371 . S
C519 H522 0.931 . S
C520 C516 1.391 . S
C520 C519 1.371 . S
C520 H527 0.930 . S
H521 C518 0.924 1_455 S
H522 C519 0.931 . S
H523 C499 0.930 . S
H524 C496 0.930 . S
H525 C505 0.930 . S
H526 C517 0.929 . S
H527 C520 0.930 . S
C528 C529 1.351 . S
C528 N531 1.368 . S
C528 H533 0.931 . S
C529 C528 1.351 . S
C529 N530 1.373 . S
C529 H557 0.930 . S
N530 C529 1.373 . S
N530 C532 1.340 . S
N531 C528 1.368 . S
N531 C532 1.321 . S
N531 Co534 2.135 . S
C532 N530 1.340 . S
C532 N531 1.321 . S
C532 H556 0.930 . S
H533 C528 0.931 . S
Co534 N531 2.135 . S
Co534 N537 2.121 . S
Co534 O542 2.055 . S
Co534 O545 2.039 . S
Co534 N548 2.140 . S
C535 O536 1.227 . S
C535 O545 1.265 . S
O536 C535 1.227 . S
N537 Co534 2.121 . S
N537 C539 1.375 . S
N537 C540 1.313 . S
C538 C539 1.338 . S
C538 N541 1.377 . S
C538 H558 0.930 . S
C539 N537 1.375 . S
C539 C538 1.338 . S
C539 H543 0.931 . S
C540 N537 1.313 . S
C540 N541 1.344 . S
C540 H544 0.930 . S
N541 C538 1.377 . S
N541 C540 1.344 . S
O542 Co534 2.055 . S
O542 C546 1.253 . S
H543 C539 0.931 . S
H544 C540 0.930 . S
O545 Co534 2.039 . S
O545 C535 1.265 . S
C546 O542 1.253 . S
C546 O547 1.227 . S
O547 C546 1.227 . S
N548 Co534 2.140 . S
N548 C551 1.346 . S
N548 C552 1.345 . S
C549 C550 1.387 . S
C549 C553 1.391 . S
C550 C549 1.387 . S
C550 C551 1.369 . S
C550 H559 0.929 . S
C551 N548 1.346 . S
C551 C550 1.369 . S
C551 H554 0.928 . S
C552 N548 1.345 . S
C552 C553 1.371 . S
C552 H555 0.931 . S
C553 C549 1.391 . S
C553 C552 1.371 . S
C553 H560 0.930 . S
H554 C551 0.928 . S
H555 C552 0.931 . S
H556 C532 0.930 . S
H557 C529 0.930 . S
H558 C538 0.930 . S
H559 C550 0.929 . S
H560 C553 0.930 . S
C561 C562 1.351 . S
C561 N564 1.368 . S
C561 H566 0.931 . S
C562 C561 1.351 . S
C562 N563 1.373 . S
C562 H590 0.930 . S
N563 C562 1.373 . S
N563 C565 1.340 . S
N564 C561 1.368 . S
N564 C565 1.321 . S
N564 Co567 2.135 . S
C565 N563 1.340 . S
C565 N564 1.321 . S
C565 H589 0.930 . S
H566 C561 0.931 . S
Co567 N564 2.135 . S
Co567 N570 2.121 . S
Co567 O575 2.055 . S
Co567 O578 2.039 . S
Co567 N581 2.140 . S
C568 O569 1.227 . S
C568 O578 1.265 . S
O569 C568 1.227 . S
N570 Co567 2.121 . S
N570 C572 1.375 . S
N570 C573 1.313 . S
C571 C572 1.338 . S
C571 N574 1.377 . S
C571 H591 0.930 . S
C572 N570 1.375 . S
C572 C571 1.338 . S
C572 H576 0.931 . S
C573 N570 1.313 . S
C573 N574 1.344 . S
C573 H577 0.930 . S
N574 C571 1.377 . S
N574 C573 1.344 . S
O575 Co567 2.055 . S
O575 C579 1.253 . S
H576 C572 0.931 . S
H577 C573 0.930 . S
O578 Co567 2.039 . S
O578 C568 1.265 . S
C579 O575 1.253 . S
C579 O580 1.227 . S
O580 C579 1.227 . S
N581 Co567 2.140 . S
N581 C584 1.346 . S
N581 C585 1.345 . S
C582 C583 1.387 . S
C582 C586 1.391 . S
C583 C582 1.387 . S
C583 C584 1.369 . S
C583 H592 0.929 . S
C584 N581 1.346 . S
C584 C583 1.369 . S
C584 H587 0.928 . S
C585 N581 1.345 . S
C585 C586 1.371 . S
C585 H588 0.931 . S
C586 C582 1.391 . S
C586 C585 1.371 . S
C586 H593 0.930 . S
H587 C584 0.928 . S
H588 C585 0.931 . S
H589 C565 0.930 . S
H590 C562 0.930 . S
H591 C571 0.930 . S
H592 C583 0.929 . S
H593 C586 0.930 . S
C594 C595 1.351 . S
C594 N597 1.368 . S
C594 H599 0.931 . S
C595 C594 1.351 . S
C595 N596 1.373 . S
C595 H623 0.930 . S
N596 C595 1.373 . S
N596 C598 1.340 . S
N597 C594 1.368 . S
N597 C598 1.321 . S
N597 Co600 2.135 . S
C598 N596 1.340 . S
C598 N597 1.321 . S
C598 H622 0.930 . S
H599 C594 0.931 . S
Co600 N597 2.135 . S
Co600 N603 2.121 . S
Co600 O608 2.055 . S
Co600 O611 2.039 . S
Co600 N614 2.140 . S
C601 O602 1.227 . S
C601 O611 1.265 . S
O602 C601 1.227 . S
N603 Co600 2.121 . S
N603 C605 1.375 . S
N603 C606 1.313 . S
C604 C605 1.338 . S
C604 N607 1.377 . S
C604 H624 0.930 . S
C605 N603 1.375 . S
C605 C604 1.338 . S
C605 H609 0.931 . S
C606 N603 1.313 . S
C606 N607 1.344 . S
C606 H610 0.930 . S
N607 C604 1.377 . S
N607 C606 1.344 . S
O608 Co600 2.055 . S
O608 C612 1.253 . S
H609 C605 0.931 . S
H610 C606 0.930 . S
O611 Co600 2.039 . S
O611 C601 1.265 . S
C612 O608 1.253 . S
C612 O613 1.227 . S
O613 C612 1.227 . S
N614 Co600 2.140 . S
N614 C617 1.346 . S
N614 C618 1.345 . S
C615 C616 1.387 . S
C615 C619 1.391 . S
C616 C615 1.387 . S
C616 C617 1.369 . S
C616 H625 0.929 . S
C617 N614 1.346 . S
C617 C616 1.369 . S
C617 H620 0.928 . S
C618 N614 1.345 . S
C618 C619 1.371 . S
C618 H621 0.931 . S
C619 C615 1.391 . S
C619 C618 1.371 . S
C619 H626 0.930 . S
H620 C617 0.928 . S
H621 C618 0.931 . S
H622 C598 0.930 . S
H623 C595 0.930 . S
H624 C604 0.930 . S
H625 C616 0.929 . S
H626 C619 0.930 . S
C627 C628 1.351 . S
C627 N630 1.368 . S
C627 H632 0.931 . S
C628 C627 1.351 . S
C628 N629 1.373 . S
C628 H656 0.930 . S
N629 C628 1.373 . S
N629 C631 1.340 . S
N630 C627 1.368 . S
N630 C631 1.321 . S
N630 Co633 2.135 1_455 S
C631 N629 1.340 . S
C631 N630 1.321 . S
C631 H655 0.930 . S
H632 C627 0.931 . S
Co633 N630 2.135 1_655 S
Co633 N636 2.121 . S
Co633 O641 2.055 . S
Co633 O644 2.039 . S
Co633 N647 2.140 . S
C634 O635 1.227 . S
C634 O644 1.265 . S
O635 C634 1.227 . S
N636 Co633 2.121 . S
N636 C638 1.375 . S
N636 C639 1.313 . S
C637 C638 1.338 . S
C637 N640 1.377 . S
C637 H657 0.930 . S
C638 N636 1.375 . S
C638 C637 1.338 . S
C638 H642 0.931 . S
C639 N636 1.313 . S
C639 N640 1.344 . S
C639 H643 0.930 . S
N640 C637 1.377 . S
N640 C639 1.344 . S
O641 Co633 2.055 . S
O641 C645 1.253 . S
H642 C638 0.931 . S
H643 C639 0.930 . S
O644 Co633 2.039 . S
O644 C634 1.265 . S
C645 O641 1.253 . S
C645 O646 1.227 . S
O646 C645 1.227 . S
N647 Co633 2.140 . S
N647 C650 1.351 . S
N647 C651 1.345 . S
C648 C649 1.387 1_655 S
C648 C652 1.391 . S
C649 C648 1.387 1_455 S
C649 C650 1.368 1_455 S
C649 H658 0.929 . S
C650 N647 1.351 . S
C650 C649 1.368 1_655 S
C650 H653 0.924 1_655 S
C651 N647 1.345 . S
C651 C652 1.371 . S
C651 H654 0.931 . S
C652 C648 1.391 . S
C652 C651 1.371 . S
C652 H659 0.930 . S
H653 C650 0.924 1_455 S
H654 C651 0.931 . S
H655 C631 0.930 . S
H656 C628 0.930 . S
H657 C637 0.930 . S
H658 C649 0.929 . S
H659 C652 0.930 . S
C660 C661 1.351 . S
C660 N663 1.368 . S
C660 H665 0.931 . S
C661 C660 1.351 . S
C661 N662 1.373 . S
C661 H689 0.930 . S
N662 C661 1.373 . S
N662 C664 1.340 . S
N663 C660 1.368 . S
N663 C664 1.321 . S
N663 Co666 2.135 . S
C664 N662 1.340 . S
C664 N663 1.321 . S
C664 H688 0.930 . S
H665 C660 0.931 . S
Co666 N663 2.135 . S
Co666 N669 2.121 . S
Co666 O674 2.055 . S
Co666 O677 2.039 . S
Co666 N680 2.140 . S
C667 O668 1.227 . S
C667 O677 1.265 . S
O668 C667 1.227 . S
N669 Co666 2.121 . S
N669 C671 1.375 . S
N669 C672 1.313 . S
C670 C671 1.338 . S
C670 N673 1.377 . S
C670 H690 0.930 . S
C671 N669 1.375 . S
C671 C670 1.338 . S
C671 H675 0.931 . S
C672 N669 1.313 . S
C672 N673 1.344 . S
C672 H676 0.930 . S
N673 C670 1.377 . S
N673 C672 1.344 . S
O674 Co666 2.055 . S
O674 C678 1.253 . S
H675 C671 0.931 . S
H676 C672 0.930 . S
O677 Co666 2.039 . S
O677 C667 1.265 . S
C678 O674 1.253 . S
C678 O679 1.227 . S
O679 C678 1.227 . S
N680 Co666 2.140 . S
N680 C683 1.346 . S
N680 C684 1.345 . S
C681 C682 1.387 . S
C681 C685 1.391 . S
C682 C681 1.387 . S
C682 C683 1.369 . S
C682 H691 0.929 . S
C683 N680 1.346 . S
C683 C682 1.369 . S
C683 H686 0.928 . S
C684 N680 1.345 . S
C684 C685 1.371 . S
C684 H687 0.931 . S
C685 C681 1.391 . S
C685 C684 1.371 . S
C685 H692 0.930 . S
H686 C683 0.928 . S
H687 C684 0.931 . S
H688 C664 0.930 . S
H689 C661 0.930 . S
H690 C670 0.930 . S
H691 C682 0.929 . S
H692 C685 0.930 . S
C693 C694 1.351 . S
C693 N696 1.368 . S
C693 H698 0.931 . S
C694 C693 1.351 . S
C694 N695 1.373 . S
C694 H722 0.930 . S
N695 C694 1.373 . S
N695 C697 1.340 . S
N696 C693 1.368 . S
N696 C697 1.321 . S
N696 Co699 2.135 1_455 S
C697 N695 1.340 . S
C697 N696 1.321 . S
C697 H721 0.930 . S
H698 C693 0.931 . S
Co699 N696 2.135 1_655 S
Co699 N702 2.121 . S
Co699 O707 2.055 . S
Co699 O710 2.039 . S
Co699 N713 2.140 . S
C700 O701 1.227 . S
C700 O710 1.265 . S
O701 C700 1.227 . S
N702 Co699 2.121 . S
N702 C704 1.375 . S
N702 C705 1.313 . S
C703 C704 1.338 . S
C703 N706 1.377 . S
C703 H723 0.930 . S
C704 N702 1.375 . S
C704 C703 1.338 . S
C704 H708 0.931 . S
C705 N702 1.313 . S
C705 N706 1.344 . S
C705 H709 0.930 . S
N706 C703 1.377 . S
N706 C705 1.344 . S
O707 Co699 2.055 . S
O707 C711 1.253 . S
H708 C704 0.931 . S
H709 C705 0.930 . S
O710 Co699 2.039 . S
O710 C700 1.265 . S
C711 O707 1.253 . S
C711 O712 1.227 . S
O712 C711 1.227 . S
N713 Co699 2.140 . S
N713 C716 1.351 . S
N713 C717 1.345 . S
C714 C715 1.387 1_655 S
C714 C718 1.391 . S
C715 C714 1.387 1_455 S
C715 C716 1.368 1_455 S
C715 H724 0.929 . S
C716 N713 1.351 . S
C716 C715 1.368 1_655 S
C716 H719 0.924 1_655 S
C717 N713 1.345 . S
C717 C718 1.371 . S
C717 H720 0.931 . S
C718 C714 1.391 . S
C718 C717 1.371 . S
C718 H725 0.930 . S
H719 C716 0.924 1_455 S
H720 C717 0.931 . S
H721 C697 0.930 . S
H722 C694 0.930 . S
H723 C703 0.930 . S
H724 C715 0.929 . S
H725 C718 0.930 . S
C726 C727 1.351 . S
C726 N729 1.368 . S
C726 H731 0.931 . S
C727 C726 1.351 . S
C727 N728 1.373 . S
C727 H755 0.930 . S
N728 C727 1.373 . S
N728 C730 1.340 . S
N729 C726 1.368 . S
N729 C730 1.321 . S
N729 Co732 2.135 . S
C730 N728 1.340 . S
C730 N729 1.321 . S
C730 H754 0.930 . S
H731 C726 0.931 . S
Co732 N729 2.135 . S
Co732 N735 2.121 . S
Co732 O740 2.055 . S
Co732 O743 2.039 . S
Co732 N746 2.140 . S
C733 O734 1.227 . S
C733 O743 1.265 . S
O734 C733 1.227 . S
N735 Co732 2.121 . S
N735 C737 1.375 . S
N735 C738 1.313 . S
C736 C737 1.338 . S
C736 N739 1.377 . S
C736 H756 0.930 . S
C737 N735 1.375 . S
C737 C736 1.338 . S
C737 H741 0.931 . S
C738 N735 1.313 . S
C738 N739 1.344 . S
C738 H742 0.930 . S
N739 C736 1.377 . S
N739 C738 1.344 . S
O740 Co732 2.055 . S
O740 C744 1.253 . S
H741 C737 0.931 . S
H742 C738 0.930 . S
O743 Co732 2.039 . S
O743 C733 1.265 . S
C744 O740 1.253 . S
C744 O745 1.227 . S
O745 C744 1.227 . S
N746 Co732 2.140 . S
N746 C749 1.346 . S
N746 C750 1.345 . S
C747 C748 1.387 . S
C747 C751 1.391 . S
C748 C747 1.387 . S
C748 C749 1.369 . S
C748 H757 0.929 . S
C749 N746 1.346 . S
C749 C748 1.369 . S
C749 H752 0.928 . S
C750 N746 1.345 . S
C750 C751 1.371 . S
C750 H753 0.931 . S
C751 C747 1.391 . S
C751 C750 1.371 . S
C751 H758 0.930 . S
H752 C749 0.928 . S
H753 C750 0.931 . S
H754 C730 0.930 . S
H755 C727 0.930 . S
H756 C736 0.930 . S
H757 C748 0.929 . S
H758 C751 0.930 . S
C759 C760 1.351 . S
C759 N762 1.368 . S
C759 H764 0.931 . S
C760 C759 1.351 . S
C760 N761 1.373 . S
C760 H788 0.930 . S
N761 C760 1.373 . S
N761 C763 1.340 . S
N762 C759 1.368 . S
N762 C763 1.321 . S
N762 Co765 2.135 . S
C763 N761 1.340 . S
C763 N762 1.321 . S
C763 H787 0.930 . S
H764 C759 0.931 . S
Co765 N762 2.135 . S
Co765 N768 2.121 . S
Co765 O773 2.055 . S
Co765 O776 2.039 . S
Co765 N779 2.140 . S
C766 O767 1.227 . S
C766 O776 1.265 . S
O767 C766 1.227 . S
N768 Co765 2.121 . S
N768 C770 1.375 . S
N768 C771 1.313 . S
C769 C770 1.338 . S
C769 N772 1.377 . S
C769 H789 0.930 . S
C770 N768 1.375 . S
C770 C769 1.338 . S
C770 H774 0.931 . S
C771 N768 1.313 . S
C771 N772 1.344 . S
C771 H775 0.930 . S
N772 C769 1.377 . S
N772 C771 1.344 . S
O773 Co765 2.055 . S
O773 C777 1.253 . S
H774 C770 0.931 . S
H775 C771 0.930 . S
O776 Co765 2.039 . S
O776 C766 1.265 . S
C777 O773 1.253 . S
C777 O778 1.227 . S
O778 C777 1.227 . S
N779 Co765 2.140 . S
N779 C782 1.346 . S
N779 C783 1.345 . S
C780 C781 1.387 . S
C780 C784 1.391 . S
C781 C780 1.387 . S
C781 C782 1.369 . S
C781 H790 0.929 . S
C782 N779 1.346 . S
C782 C781 1.369 . S
C782 H785 0.928 . S
C783 N779 1.345 . S
C783 C784 1.371 . S
C783 H786 0.931 . S
C784 C780 1.391 . S
C784 C783 1.371 . S
C784 H791 0.930 . S
H785 C782 0.928 . S
H786 C783 0.931 . S
H787 C763 0.930 . S
H788 C760 0.930 . S
H789 C769 0.930 . S
H790 C781 0.929 . S
H791 C784 0.930 . S
C792 C793 1.351 . S
C792 N795 1.368 . S
C792 H797 0.931 . S
C793 C792 1.351 . S
C793 N794 1.373 . S
C793 H821 0.930 . S
N794 C793 1.373 . S
N794 C796 1.340 . S
N795 C792 1.368 . S
N795 C796 1.321 . S
N795 Co798 2.135 . S
C796 N794 1.340 . S
C796 N795 1.321 . S
C796 H820 0.930 . S
H797 C792 0.931 . S
Co798 N795 2.135 . S
Co798 N801 2.121 . S
Co798 O806 2.055 . S
Co798 O809 2.039 . S
Co798 N812 2.140 . S
C799 O800 1.227 . S
C799 O809 1.265 . S
O800 C799 1.227 . S
N801 Co798 2.121 . S
N801 C803 1.375 . S
N801 C804 1.313 . S
C802 C803 1.338 . S
C802 N805 1.377 . S
C802 H822 0.930 . S
C803 N801 1.375 . S
C803 C802 1.338 . S
C803 H807 0.931 . S
C804 N801 1.313 . S
C804 N805 1.344 . S
C804 H808 0.930 . S
N805 C802 1.377 . S
N805 C804 1.344 . S
O806 Co798 2.055 . S
O806 C810 1.253 . S
H807 C803 0.931 . S
H808 C804 0.930 . S
O809 Co798 2.039 . S
O809 C799 1.265 . S
C810 O806 1.253 . S
C810 O811 1.227 . S
O811 C810 1.227 . S
N812 Co798 2.140 . S
N812 C815 1.346 . S
N812 C816 1.345 . S
C813 C814 1.387 . S
C813 C817 1.391 . S
C814 C813 1.387 . S
C814 C815 1.369 . S
C814 H823 0.929 . S
C815 N812 1.346 . S
C815 C814 1.369 . S
C815 H818 0.928 . S
C816 N812 1.345 . S
C816 C817 1.371 . S
C816 H819 0.931 . S
C817 C813 1.391 . S
C817 C816 1.371 . S
C817 H824 0.930 . S
H818 C815 0.928 . S
H819 C816 0.931 . S
H820 C796 0.930 . S
H821 C793 0.930 . S
H822 C802 0.930 . S
H823 C814 0.929 . S
H824 C817 0.930 . S
C825 C826 1.351 . S
C825 N828 1.368 . S
C825 H830 0.931 . S
C826 C825 1.351 . S
C826 N827 1.373 . S
C826 H854 0.930 . S
N827 C826 1.373 . S
N827 C829 1.340 . S
N828 C825 1.368 . S
N828 C829 1.321 . S
N828 Co831 2.135 . S
C829 N827 1.340 . S
C829 N828 1.321 . S
C829 H853 0.930 . S
H830 C825 0.931 . S
Co831 N828 2.135 . S
Co831 N834 2.121 . S
Co831 O839 2.055 . S
Co831 O842 2.039 . S
Co831 N845 2.140 . S
C832 O833 1.227 . S
C832 O842 1.265 . S
O833 C832 1.227 . S
N834 Co831 2.121 . S
N834 C836 1.375 . S
N834 C837 1.313 . S
C835 C836 1.338 . S
C835 N838 1.377 . S
C835 H855 0.930 . S
C836 N834 1.375 . S
C836 C835 1.338 . S
C836 H840 0.931 . S
C837 N834 1.313 . S
C837 N838 1.344 . S
C837 H841 0.930 . S
N838 C835 1.377 . S
N838 C837 1.344 . S
O839 Co831 2.055 . S
O839 C843 1.253 . S
H840 C836 0.931 . S
H841 C837 0.930 . S
O842 Co831 2.039 . S
O842 C832 1.265 . S
C843 O839 1.253 . S
C843 O844 1.227 . S
O844 C843 1.227 . S
N845 Co831 2.140 . S
N845 C848 1.346 . S
N845 C849 1.345 . S
C846 C847 1.387 . S
C846 C850 1.391 . S
C847 C846 1.387 . S
C847 C848 1.369 . S
C847 H856 0.929 . S
C848 N845 1.346 . S
C848 C847 1.369 . S
C848 H851 0.928 . S
C849 N845 1.345 . S
C849 C850 1.371 . S
C849 H852 0.931 . S
C850 C846 1.391 . S
C850 C849 1.371 . S
C850 H857 0.930 . S
H851 C848 0.928 . S
H852 C849 0.931 . S
H853 C829 0.930 . S
H854 C826 0.930 . S
H855 C835 0.930 . S
H856 C847 0.929 . S
H857 C850 0.930 . S
C858 C859 1.351 . S
C858 N861 1.368 . S
C858 H863 0.931 . S
C859 C858 1.351 . S
C859 N860 1.373 . S
C859 H887 0.930 . S
N860 C859 1.373 . S
N860 C862 1.340 . S
N861 C858 1.368 . S
N861 C862 1.321 . S
N861 Co864 2.135 . S
C862 N860 1.340 . S
C862 N861 1.321 . S
C862 H886 0.930 . S
H863 C858 0.931 . S
Co864 N861 2.135 . S
Co864 N867 2.121 . S
Co864 O872 2.055 . S
Co864 O875 2.039 . S
Co864 N878 2.140 . S
C865 O866 1.227 . S
C865 O875 1.265 . S
O866 C865 1.227 . S
N867 Co864 2.121 . S
N867 C869 1.375 . S
N867 C870 1.313 . S
C868 C869 1.338 . S
C868 N871 1.377 . S
C868 H888 0.930 . S
C869 N867 1.375 . S
C869 C868 1.338 . S
C869 H873 0.931 . S
C870 N867 1.313 . S
C870 N871 1.344 . S
C870 H874 0.930 . S
N871 C868 1.377 . S
N871 C870 1.344 . S
O872 Co864 2.055 . S
O872 C876 1.253 . S
H873 C869 0.931 . S
H874 C870 0.930 . S
O875 Co864 2.039 . S
O875 C865 1.265 . S
C876 O872 1.253 . S
C876 O877 1.227 . S
O877 C876 1.227 . S
N878 Co864 2.140 . S
N878 C881 1.346 . S
N878 C882 1.345 . S
C879 C880 1.387 . S
C879 C883 1.391 . S
C880 C879 1.387 . S
C880 C881 1.369 . S
C880 H889 0.929 . S
C881 N878 1.346 . S
C881 C880 1.369 . S
C881 H884 0.928 . S
C882 N878 1.345 . S
C882 C883 1.371 . S
C882 H885 0.931 . S
C883 C879 1.391 . S
C883 C882 1.371 . S
C883 H890 0.930 . S
H884 C881 0.928 . S
H885 C882 0.931 . S
H886 C862 0.930 . S
H887 C859 0.930 . S
H888 C868 0.930 . S
H889 C880 0.929 . S
H890 C883 0.930 . S
C891 C892 1.351 . S
C891 N894 1.368 . S
C891 H896 0.931 . S
C892 C891 1.351 . S
C892 N893 1.373 . S
C892 H920 0.930 . S
N893 C892 1.373 . S
N893 C895 1.340 . S
N894 C891 1.368 . S
N894 C895 1.321 . S
N894 Co897 2.135 1_655 S
C895 N893 1.340 . S
C895 N894 1.321 . S
C895 H919 0.930 . S
H896 C891 0.931 . S
Co897 N894 2.135 1_455 S
Co897 N900 2.121 . S
Co897 O905 2.055 . S
Co897 O908 2.039 . S
Co897 N911 2.140 . S
C898 O899 1.227 . S
C898 O908 1.265 . S
O899 C898 1.227 . S
N900 Co897 2.121 . S
N900 C902 1.375 . S
N900 C903 1.313 . S
C901 C902 1.338 . S
C901 N904 1.377 . S
C901 H921 0.930 . S
C902 N900 1.375 . S
C902 C901 1.338 . S
C902 H906 0.931 . S
C903 N900 1.313 . S
C903 N904 1.344 . S
C903 H907 0.930 . S
N904 C901 1.377 . S
N904 C903 1.344 . S
O905 Co897 2.055 . S
O905 C909 1.253 . S
H906 C902 0.931 . S
H907 C903 0.930 . S
O908 Co897 2.039 . S
O908 C898 1.265 . S
C909 O905 1.253 . S
C909 O910 1.227 . S
O910 C909 1.227 . S
N911 Co897 2.140 . S
N911 C914 1.351 . S
N911 C915 1.345 . S
C912 C913 1.387 1_455 S
C912 C916 1.391 . S
C913 C912 1.387 1_655 S
C913 C914 1.368 1_655 S
C913 H922 0.929 . S
C914 N911 1.351 . S
C914 C913 1.368 1_455 S
C914 H917 0.924 1_455 S
C915 N911 1.345 . S
C915 C916 1.371 . S
C915 H918 0.931 . S
C916 C912 1.391 . S
C916 C915 1.371 . S
C916 H923 0.930 . S
H917 C914 0.924 1_655 S
H918 C915 0.931 . S
H919 C895 0.930 . S
H920 C892 0.930 . S
H921 C901 0.930 . S
H922 C913 0.929 . S
H923 C916 0.930 . S
C924 C925 1.351 . S
C924 N927 1.368 . S
C924 H929 0.931 . S
C925 C924 1.351 . S
C925 N926 1.373 . S
C925 H953 0.930 . S
N926 C925 1.373 . S
N926 C928 1.340 . S
N927 C924 1.368 . S
N927 C928 1.321 . S
N927 Co930 2.135 . S
C928 N926 1.340 . S
C928 N927 1.321 . S
C928 H952 0.930 . S
H929 C924 0.931 . S
Co930 N927 2.135 . S
Co930 N933 2.121 . S
Co930 O938 2.055 . S
Co930 O941 2.039 . S
Co930 N944 2.140 . S
C931 O932 1.227 . S
C931 O941 1.265 . S
O932 C931 1.227 . S
N933 Co930 2.121 . S
N933 C935 1.375 . S
N933 C936 1.313 . S
C934 C935 1.338 . S
C934 N937 1.377 . S
C934 H954 0.930 . S
C935 N933 1.375 . S
C935 C934 1.338 . S
C935 H939 0.931 . S
C936 N933 1.313 . S
C936 N937 1.344 . S
C936 H940 0.930 . S
N937 C934 1.377 . S
N937 C936 1.344 . S
O938 Co930 2.055 . S
O938 C942 1.253 . S
H939 C935 0.931 . S
H940 C936 0.930 . S
O941 Co930 2.039 . S
O941 C931 1.265 . S
C942 O938 1.253 . S
C942 O943 1.227 . S
O943 C942 1.227 . S
N944 Co930 2.140 . S
N944 C947 1.346 . S
N944 C948 1.345 . S
C945 C946 1.387 . S
C945 C949 1.391 . S
C946 C945 1.387 . S
C946 C947 1.369 . S
C946 H955 0.929 . S
C947 N944 1.346 . S
C947 C946 1.369 . S
C947 H950 0.928 . S
C948 N944 1.345 . S
C948 C949 1.371 . S
C948 H951 0.931 . S
C949 C945 1.391 . S
C949 C948 1.371 . S
C949 H956 0.930 . S
H950 C947 0.928 . S
H951 C948 0.931 . S
H952 C928 0.930 . S
H953 C925 0.930 . S
H954 C934 0.930 . S
H955 C946 0.929 . S
H956 C949 0.930 . S
C957 C958 1.351 . S
C957 N960 1.368 . S
C957 H962 0.931 . S
C958 C957 1.351 . S
C958 N959 1.373 . S
C958 H986 0.930 . S
N959 C958 1.373 . S
N959 C961 1.340 . S
N960 C957 1.368 . S
N960 C961 1.321 . S
N960 Co963 2.135 1_655 S
C961 N959 1.340 . S
C961 N960 1.321 . S
C961 H985 0.930 . S
H962 C957 0.931 . S
Co963 N960 2.135 1_455 S
Co963 N966 2.121 . S
Co963 O971 2.055 . S
Co963 O974 2.039 . S
Co963 N977 2.140 . S
C964 O965 1.227 . S
C964 O974 1.265 . S
O965 C964 1.227 . S
N966 Co963 2.121 . S
N966 C968 1.375 . S
N966 C969 1.313 . S
C967 C968 1.338 . S
C967 N970 1.377 . S
C967 H987 0.930 . S
C968 N966 1.375 . S
C968 C967 1.338 . S
C968 H972 0.931 . S
C969 N966 1.313 . S
C969 N970 1.344 . S
C969 H973 0.930 . S
N970 C967 1.377 . S
N970 C969 1.344 . S
O971 Co963 2.055 . S
O971 C975 1.253 . S
H972 C968 0.931 . S
H973 C969 0.930 . S
O974 Co963 2.039 . S
O974 C964 1.265 . S
C975 O971 1.253 . S
C975 O976 1.227 . S
O976 C975 1.227 . S
N977 Co963 2.140 . S
N977 C980 1.351 . S
N977 C981 1.345 . S
C978 C979 1.387 1_455 S
C978 C982 1.391 . S
C979 C978 1.387 1_655 S
C979 C980 1.368 1_655 S
C979 H988 0.929 . S
C980 N977 1.351 . S
C980 C979 1.368 1_455 S
C980 H983 0.924 1_455 S
C981 N977 1.345 . S
C981 C982 1.371 . S
C981 H984 0.931 . S
C982 C978 1.391 . S
C982 C981 1.371 . S
C982 H989 0.930 . S
H983 C980 0.924 1_655 S
H984 C981 0.931 . S
H985 C961 0.930 . S
H986 C958 0.930 . S
H987 C967 0.930 . S
H988 C979 0.929 . S
H989 C982 0.930 . S
C990 C991 1.351 . S
C990 N993 1.368 . S
C990 H995 0.931 . S
C991 C990 1.351 . S
C991 N992 1.373 . S
C991 H1019 0.930 . S
N992 C991 1.373 . S
N992 C994 1.340 . S
N993 C990 1.368 . S
N993 C994 1.321 . S
N993 Co996 2.135 . S
C994 N992 1.340 . S
C994 N993 1.321 . S
C994 H1018 0.930 . S
H995 C990 0.931 . S
Co996 N993 2.135 . S
Co996 N999 2.121 . S
Co996 O1004 2.055 . S
Co996 O1007 2.039 . S
Co996 N1010 2.140 . S
C997 O998 1.227 . S
C997 O1007 1.265 . S
O998 C997 1.227 . S
N999 Co996 2.121 . S
N999 C1001 1.375 . S
N999 C1002 1.313 . S
C1000 C1001 1.338 . S
C1000 N1003 1.377 . S
C1000 H1020 0.930 . S
C1001 N999 1.375 . S
C1001 C1000 1.338 . S
C1001 H1005 0.931 . S
C1002 N999 1.313 . S
C1002 N1003 1.344 . S
C1002 H1006 0.930 . S
N1003 C1000 1.377 . S
N1003 C1002 1.344 . S
O1004 Co996 2.055 . S
O1004 C1008 1.253 . S
H1005 C1001 0.931 . S
H1006 C1002 0.930 . S
O1007 Co996 2.039 . S
O1007 C997 1.265 . S
C1008 O1004 1.253 . S
C1008 O1009 1.227 . S
O1009 C1008 1.227 . S
N1010 Co996 2.140 . S
N1010 C1013 1.346 . S
N1010 C1014 1.345 . S
C1011 C1012 1.387 . S
C1011 C1015 1.391 . S
C1012 C1011 1.387 . S
C1012 C1013 1.369 . S
C1012 H1021 0.929 . S
C1013 N1010 1.346 . S
C1013 C1012 1.369 . S
C1013 H1016 0.928 . S
C1014 N1010 1.345 . S
C1014 C1015 1.371 . S
C1014 H1017 0.931 . S
C1015 C1011 1.391 . S
C1015 C1014 1.371 . S
C1015 H1022 0.930 . S
H1016 C1013 0.928 . S
H1017 C1014 0.931 . S
H1018 C994 0.930 . S
H1019 C991 0.930 . S
H1020 C1000 0.930 . S
H1021 C1012 0.929 . S
H1022 C1015 0.930 . S
C1023 C1024 1.351 . S
C1023 N1026 1.368 . S
C1023 H1028 0.931 . S
C1024 C1023 1.351 . S
C1024 N1025 1.373 . S
C1024 H1052 0.930 . S
N1025 C1024 1.373 . S
N1025 C1027 1.340 . S
N1026 C1023 1.368 . S
N1026 C1027 1.321 . S
N1026 Co1029 2.135 . S
C1027 N1025 1.340 . S
C1027 N1026 1.321 . S
C1027 H1051 0.930 . S
H1028 C1023 0.931 . S
Co1029 N1026 2.135 . S
Co1029 N1032 2.121 . S
Co1029 O1037 2.055 . S
Co1029 O1040 2.039 . S
Co1029 N1043 2.140 . S
C1030 O1031 1.227 . S
C1030 O1040 1.265 . S
O1031 C1030 1.227 . S
N1032 Co1029 2.121 . S
N1032 C1034 1.375 . S
N1032 C1035 1.313 . S
C1033 C1034 1.338 . S
C1033 N1036 1.377 . S
C1033 H1053 0.930 . S
C1034 N1032 1.375 . S
C1034 C1033 1.338 . S
C1034 H1038 0.931 . S
C1035 N1032 1.313 . S
C1035 N1036 1.344 . S
C1035 H1039 0.930 . S
N1036 C1033 1.377 . S
N1036 C1035 1.344 . S
O1037 Co1029 2.055 . S
O1037 C1041 1.253 . S
H1038 C1034 0.931 . S
H1039 C1035 0.930 . S
O1040 Co1029 2.039 . S
O1040 C1030 1.265 . S
C1041 O1037 1.253 . S
C1041 O1042 1.227 . S
O1042 C1041 1.227 . S
N1043 Co1029 2.140 . S
N1043 C1046 1.346 . S
N1043 C1047 1.345 . S
C1044 C1045 1.387 . S
C1044 C1048 1.391 . S
C1045 C1044 1.387 . S
C1045 C1046 1.369 . S
C1045 H1054 0.929 . S
C1046 N1043 1.346 . S
C1046 C1045 1.369 . S
C1046 H1049 0.928 . S
C1047 N1043 1.345 . S
C1047 C1048 1.371 . S
C1047 H1050 0.931 . S
C1048 C1044 1.391 . S
C1048 C1047 1.371 . S
C1048 H1055 0.930 . S
H1049 C1046 0.928 . S
H1050 C1047 0.931 . S
H1051 C1027 0.930 . S
H1052 C1024 0.930 . S
H1053 C1033 0.930 . S
H1054 C1045 0.929 . S
H1055 C1048 0.930 . S
C1056 C1057 1.363 . S
C1056 C1062 1.379 . S
C1056 N1064 1.356 . S
C1057 C1056 1.363 . S
C1057 C1063 1.363 . S
C1058 C1059 1.363 . S
C1058 C1063 1.379 . S
C1058 N1065 1.356 . S
C1059 C1058 1.363 . S
C1059 C1062 1.363 . S
N1060 C1062 1.356 . S
N1060 H1072 0.984 . S
N1060 H1073 0.985 . S
N1061 C1063 1.356 . S
N1061 H1066 0.984 . S
N1061 H1067 0.985 . S
C1062 C1056 1.379 . S
C1062 C1059 1.363 . S
C1062 N1060 1.356 . S
C1063 C1057 1.363 . S
C1063 C1058 1.379 . S
C1063 N1061 1.356 . S
N1064 C1056 1.356 . S
N1064 H1070 0.984 . S
N1064 H1071 0.984 . S
N1065 C1058 1.356 . S
N1065 H1068 0.984 . S
N1065 H1069 0.985 . S
H1066 N1061 0.984 . S
H1067 N1061 0.985 . S
H1068 N1065 0.984 . S
H1069 N1065 0.985 . S
H1070 N1064 0.984 . S
H1071 N1064 0.984 . S
H1072 N1060 0.984 . S
H1073 N1060 0.985 . S
C1074 C1075 1.363 . S
C1074 C1080 1.379 . S
C1074 N1082 1.356 . S
C1075 C1074 1.363 . S
C1075 C1081 1.363 . S
C1076 C1077 1.363 . S
C1076 C1081 1.379 . S
C1076 N1083 1.356 . S
C1077 C1076 1.363 . S
C1077 C1080 1.363 . S
N1078 C1080 1.356 . S
N1078 H1090 0.984 . S
N1078 H1091 0.985 . S
N1079 C1081 1.356 . S
N1079 H1084 0.984 . S
N1079 H1085 0.985 . S
C1080 C1074 1.379 . S
C1080 C1077 1.363 . S
C1080 N1078 1.356 . S
C1081 C1075 1.363 . S
C1081 C1076 1.379 . S
C1081 N1079 1.356 . S
N1082 C1074 1.356 . S
N1082 H1088 0.984 . S
N1082 H1089 0.984 . S
N1083 C1076 1.356 . S
N1083 H1086 0.984 . S
N1083 H1087 0.985 . S
H1084 N1079 0.984 . S
H1085 N1079 0.985 . S
H1086 N1083 0.984 . S
H1087 N1083 0.985 . S
H1088 N1082 0.984 . S
H1089 N1082 0.984 . S
H1090 N1078 0.984 . S
H1091 N1078 0.985 . S
C1092 C1093 1.363 . S
C1092 C1098 1.379 . S
C1092 N1100 1.356 . S
C1093 C1092 1.363 . S
C1093 C1099 1.363 . S
C1094 C1095 1.363 . S
C1094 C1099 1.379 . S
C1094 N1101 1.356 . S
C1095 C1094 1.363 . S
C1095 C1098 1.363 . S
N1096 C1098 1.356 . S
N1096 H1108 0.984 . S
N1096 H1109 0.985 . S
N1097 C1099 1.356 . S
N1097 H1102 0.984 . S
N1097 H1103 0.985 . S
C1098 C1092 1.379 . S
C1098 C1095 1.363 . S
C1098 N1096 1.356 . S
C1099 C1093 1.363 . S
C1099 C1094 1.379 . S
C1099 N1097 1.356 . S
N1100 C1092 1.356 . S
N1100 H1106 0.984 . S
N1100 H1107 0.984 . S
N1101 C1094 1.356 . S
N1101 H1104 0.984 . S
N1101 H1105 0.985 . S
H1102 N1097 0.984 . S
H1103 N1097 0.985 . S
H1104 N1101 0.984 . S
H1105 N1101 0.985 . S
H1106 N1100 0.984 . S
H1107 N1100 0.984 . S
H1108 N1096 0.984 . S
H1109 N1096 0.985 . S
C1110 C1111 1.363 . S
C1110 C1116 1.379 . S
C1110 N1118 1.356 . S
C1111 C1110 1.363 . S
C1111 C1117 1.363 . S
C1112 C1113 1.363 . S
C1112 C1117 1.379 . S
C1112 N1119 1.356 . S
C1113 C1112 1.363 . S
C1113 C1116 1.363 . S
N1114 C1116 1.356 . S
N1114 H1126 0.984 . S
N1114 H1127 0.985 . S
N1115 C1117 1.356 . S
N1115 H1120 0.984 . S
N1115 H1121 0.985 . S
C1116 C1110 1.379 . S
C1116 C1113 1.363 . S
C1116 N1114 1.356 . S
C1117 C1111 1.363 . S
C1117 C1112 1.379 . S
C1117 N1115 1.356 . S
N1118 C1110 1.356 . S
N1118 H1124 0.984 . S
N1118 H1125 0.984 . S
N1119 C1112 1.356 . S
N1119 H1122 0.984 . S
N1119 H1123 0.985 . S
H1120 N1115 0.984 . S
H1121 N1115 0.985 . S
H1122 N1119 0.984 . S
H1123 N1119 0.985 . S
H1124 N1118 0.984 . S
H1125 N1118 0.984 . S
H1126 N1114 0.984 . S
H1127 N1114 0.985 . S
C1128 C1129 1.363 . S
C1128 C1134 1.379 . S
C1128 N1136 1.356 . S
C1129 C1128 1.363 . S
C1129 C1135 1.363 . S
C1130 C1131 1.363 . S
C1130 C1135 1.379 . S
C1130 N1137 1.356 . S
C1131 C1130 1.363 . S
C1131 C1134 1.363 . S
N1132 C1134 1.356 . S
N1132 H1144 0.984 . S
N1132 H1145 0.985 . S
N1133 C1135 1.356 . S
N1133 H1138 0.984 . S
N1133 H1139 0.985 . S
C1134 C1128 1.379 . S
C1134 C1131 1.363 . S
C1134 N1132 1.356 . S
C1135 C1129 1.363 . S
C1135 C1130 1.379 . S
C1135 N1133 1.356 . S
N1136 C1128 1.356 . S
N1136 H1142 0.984 . S
N1136 H1143 0.984 . S
N1137 C1130 1.356 . S
N1137 H1140 0.984 . S
N1137 H1141 0.985 . S
H1138 N1133 0.984 . S
H1139 N1133 0.985 . S
H1140 N1137 0.984 . S
H1141 N1137 0.985 . S
H1142 N1136 0.984 . S
H1143 N1136 0.984 . S
H1144 N1132 0.984 . S
H1145 N1132 0.985 . S
C1146 C1147 1.363 . S
C1146 C1152 1.379 . S
C1146 N1154 1.356 . S
C1147 C1146 1.363 . S
C1147 C1153 1.363 . S
C1148 C1149 1.363 . S
C1148 C1153 1.379 . S
C1148 N1155 1.356 . S
C1149 C1148 1.363 . S
C1149 C1152 1.363 . S
N1150 C1152 1.356 . S
N1150 H1162 0.984 . S
N1150 H1163 0.985 . S
N1151 C1153 1.356 . S
N1151 H1156 0.984 . S
N1151 H1157 0.985 . S
C1152 C1146 1.379 . S
C1152 C1149 1.363 . S
C1152 N1150 1.356 . S
C1153 C1147 1.363 . S
C1153 C1148 1.379 . S
C1153 N1151 1.356 . S
N1154 C1146 1.356 . S
N1154 H1160 0.984 . S
N1154 H1161 0.984 . S
N1155 C1148 1.356 . S
N1155 H1158 0.984 . S
N1155 H1159 0.985 . S
H1156 N1151 0.984 . S
H1157 N1151 0.985 . S
H1158 N1155 0.984 . S
H1159 N1155 0.985 . S
H1160 N1154 0.984 . S
H1161 N1154 0.984 . S
H1162 N1150 0.984 . S
H1163 N1150 0.985 . S
C1164 C1165 1.363 . S
C1164 C1170 1.379 . S
C1164 N1172 1.356 . S
C1165 C1164 1.363 . S
C1165 C1171 1.363 . S
C1166 C1167 1.363 . S
C1166 C1171 1.379 . S
C1166 N1173 1.356 . S
C1167 C1166 1.363 . S
C1167 C1170 1.363 . S
N1168 C1170 1.356 . S
N1168 H1180 0.984 . S
N1168 H1181 0.985 . S
N1169 C1171 1.356 . S
N1169 H1174 0.984 . S
N1169 H1175 0.985 . S
C1170 C1164 1.379 . S
C1170 C1167 1.363 . S
C1170 N1168 1.356 . S
C1171 C1165 1.363 . S
C1171 C1166 1.379 . S
C1171 N1169 1.356 . S
N1172 C1164 1.356 . S
N1172 H1178 0.984 . S
N1172 H1179 0.984 . S
N1173 C1166 1.356 . S
N1173 H1176 0.984 . S
N1173 H1177 0.985 . S
H1174 N1169 0.984 . S
H1175 N1169 0.985 . S
H1176 N1173 0.984 . S
H1177 N1173 0.985 . S
H1178 N1172 0.984 . S
H1179 N1172 0.984 . S
H1180 N1168 0.984 . S
H1181 N1168 0.985 . S
C1182 C1183 1.363 . S
C1182 C1188 1.379 . S
C1182 N1190 1.356 . S
C1183 C1182 1.363 . S
C1183 C1189 1.363 . S
C1184 C1185 1.363 . S
C1184 C1189 1.379 . S
C1184 N1191 1.356 . S
C1185 C1184 1.363 . S
C1185 C1188 1.363 . S
N1186 C1188 1.356 . S
N1186 H1198 0.984 . S
N1186 H1199 0.985 . S
N1187 C1189 1.356 . S
N1187 H1192 0.984 . S
N1187 H1193 0.985 . S
C1188 C1182 1.379 . S
C1188 C1185 1.363 . S
C1188 N1186 1.356 . S
C1189 C1183 1.363 . S
C1189 C1184 1.379 . S
C1189 N1187 1.356 . S
N1190 C1182 1.356 . S
N1190 H1196 0.984 . S
N1190 H1197 0.984 . S
N1191 C1184 1.356 . S
N1191 H1194 0.984 . S
N1191 H1195 0.985 . S
H1192 N1187 0.984 . S
H1193 N1187 0.985 . S
H1194 N1191 0.984 . S
H1195 N1191 0.985 . S
H1196 N1190 0.984 . S
H1197 N1190 0.984 . S
H1198 N1186 0.984 . S
H1199 N1186 0.985 . S
C1200 C1201 1.363 . S
C1200 C1206 1.379 . S
C1200 N1208 1.356 . S
C1201 C1200 1.363 . S
C1201 C1207 1.363 . S
C1202 C1203 1.363 . S
C1202 C1207 1.379 . S
C1202 N1209 1.356 . S
C1203 C1202 1.363 . S
C1203 C1206 1.363 . S
N1204 C1206 1.356 . S
N1204 H1216 0.984 . S
N1204 H1217 0.985 . S
N1205 C1207 1.356 . S
N1205 H1210 0.984 . S
N1205 H1211 0.985 . S
C1206 C1200 1.379 . S
C1206 C1203 1.363 . S
C1206 N1204 1.356 . S
C1207 C1201 1.363 . S
C1207 C1202 1.379 . S
C1207 N1205 1.356 . S
N1208 C1200 1.356 . S
N1208 H1214 0.984 . S
N1208 H1215 0.984 . S
N1209 C1202 1.356 . S
N1209 H1212 0.984 . S
N1209 H1213 0.985 . S
H1210 N1205 0.984 . S
H1211 N1205 0.985 . S
H1212 N1209 0.984 . S
H1213 N1209 0.985 . S
H1214 N1208 0.984 . S
H1215 N1208 0.984 . S
H1216 N1204 0.984 . S
H1217 N1204 0.985 . S
C1218 C1219 1.363 . S
C1218 C1224 1.379 . S
C1218 N1226 1.356 . S
C1219 C1218 1.363 . S
C1219 C1225 1.363 . S
C1220 C1221 1.363 . S
C1220 C1225 1.379 . S
C1220 N1227 1.356 . S
C1221 C1220 1.363 . S
C1221 C1224 1.363 . S
N1222 C1224 1.356 . S
N1222 H1234 0.984 . S
N1222 H1235 0.985 . S
N1223 C1225 1.356 . S
N1223 H1228 0.984 . S
N1223 H1229 0.985 . S
C1224 C1218 1.379 . S
C1224 C1221 1.363 . S
C1224 N1222 1.356 . S
C1225 C1219 1.363 . S
C1225 C1220 1.379 . S
C1225 N1223 1.356 . S
N1226 C1218 1.356 . S
N1226 H1232 0.984 . S
N1226 H1233 0.984 . S
N1227 C1220 1.356 . S
N1227 H1230 0.984 . S
N1227 H1231 0.985 . S
H1228 N1223 0.984 . S
H1229 N1223 0.985 . S
H1230 N1227 0.984 . S
H1231 N1227 0.985 . S
H1232 N1226 0.984 . S
H1233 N1226 0.984 . S
H1234 N1222 0.984 . S
H1235 N1222 0.985 . S
C1236 C1237 1.363 . S
C1236 C1242 1.379 . S
C1236 N1244 1.356 . S
C1237 C1236 1.363 . S
C1237 C1243 1.363 . S
C1238 C1239 1.363 . S
C1238 C1243 1.379 . S
C1238 N1245 1.356 . S
C1239 C1238 1.363 . S
C1239 C1242 1.363 . S
N1240 C1242 1.356 . S
N1240 H1252 0.984 . S
N1240 H1253 0.985 . S
N1241 C1243 1.356 . S
N1241 H1246 0.984 . S
N1241 H1247 0.985 . S
C1242 C1236 1.379 . S
C1242 C1239 1.363 . S
C1242 N1240 1.356 . S
C1243 C1237 1.363 . S
C1243 C1238 1.379 . S
C1243 N1241 1.356 . S
N1244 C1236 1.356 . S
N1244 H1250 0.984 . S
N1244 H1251 0.984 . S
N1245 C1238 1.356 . S
N1245 H1248 0.984 . S
N1245 H1249 0.985 . S
H1246 N1241 0.984 . S
H1247 N1241 0.985 . S
H1248 N1245 0.984 . S
H1249 N1245 0.985 . S
H1250 N1244 0.984 . S
H1251 N1244 0.984 . S
H1252 N1240 0.984 . S
H1253 N1240 0.985 . S
C1254 C1255 1.363 . S
C1254 C1260 1.379 . S
C1254 N1262 1.356 . S
C1255 C1254 1.363 . S
C1255 C1261 1.363 . S
C1256 C1257 1.363 . S
C1256 C1261 1.379 . S
C1256 N1263 1.356 . S
C1257 C1256 1.363 . S
C1257 C1260 1.363 . S
N1258 C1260 1.356 . S
N1258 H1270 0.984 . S
N1258 H1271 0.985 . S
N1259 C1261 1.356 . S
N1259 H1264 0.984 . S
N1259 H1265 0.985 . S
C1260 C1254 1.379 . S
C1260 C1257 1.363 . S
C1260 N1258 1.356 . S
C1261 C1255 1.363 . S
C1261 C1256 1.379 . S
C1261 N1259 1.356 . S
N1262 C1254 1.356 . S
N1262 H1268 0.984 . S
N1262 H1269 0.984 . S
N1263 C1256 1.356 . S
N1263 H1266 0.984 . S
N1263 H1267 0.985 . S
H1264 N1259 0.984 . S
H1265 N1259 0.985 . S
H1266 N1263 0.984 . S
H1267 N1263 0.985 . S
H1268 N1262 0.984 . S
H1269 N1262 0.984 . S
H1270 N1258 0.984 . S
H1271 N1258 0.985 . S
C1272 C1273 1.363 . S
C1272 C1278 1.379 . S
C1272 N1280 1.356 . S
C1273 C1272 1.363 . S
C1273 C1279 1.363 . S
C1274 C1275 1.363 . S
C1274 C1279 1.379 . S
C1274 N1281 1.356 . S
C1275 C1274 1.363 . S
C1275 C1278 1.363 . S
N1276 C1278 1.356 . S
N1276 H1288 0.984 . S
N1276 H1289 0.985 . S
N1277 C1279 1.356 . S
N1277 H1282 0.984 . S
N1277 H1283 0.985 . S
C1278 C1272 1.379 . S
C1278 C1275 1.363 . S
C1278 N1276 1.356 . S
C1279 C1273 1.363 . S
C1279 C1274 1.379 . S
C1279 N1277 1.356 . S
N1280 C1272 1.356 . S
N1280 H1286 0.984 . S
N1280 H1287 0.984 . S
N1281 C1274 1.356 . S
N1281 H1284 0.984 . S
N1281 H1285 0.985 . S
H1282 N1277 0.984 . S
H1283 N1277 0.985 . S
H1284 N1281 0.984 . S
H1285 N1281 0.985 . S
H1286 N1280 0.984 . S
H1287 N1280 0.984 . S
H1288 N1276 0.984 . S
H1289 N1276 0.985 . S
C1290 C1291 1.363 . S
C1290 C1296 1.379 . S
C1290 N1298 1.356 . S
C1291 C1290 1.363 . S
C1291 C1297 1.363 . S
C1292 C1293 1.363 . S
C1292 C1297 1.379 . S
C1292 N1299 1.356 . S
C1293 C1292 1.363 . S
C1293 C1296 1.363 . S
N1294 C1296 1.356 . S
N1294 H1306 0.984 . S
N1294 H1307 0.985 . S
N1295 C1297 1.356 . S
N1295 H1300 0.984 . S
N1295 H1301 0.985 . S
C1296 C1290 1.379 . S
C1296 C1293 1.363 . S
C1296 N1294 1.356 . S
C1297 C1291 1.363 . S
C1297 C1292 1.379 . S
C1297 N1295 1.356 . S
N1298 C1290 1.356 . S
N1298 H1304 0.984 . S
N1298 H1305 0.984 . S
N1299 C1292 1.356 . S
N1299 H1302 0.984 . S
N1299 H1303 0.985 . S
H1300 N1295 0.984 . S
H1301 N1295 0.985 . S
H1302 N1299 0.984 . S
H1303 N1299 0.985 . S
H1304 N1298 0.984 . S
H1305 N1298 0.984 . S
H1306 N1294 0.984 . S
H1307 N1294 0.985 . S
C1308 C1309 1.363 . S
C1308 C1314 1.379 . S
C1308 N1316 1.356 . S
C1309 C1308 1.363 . S
C1309 C1315 1.363 . S
C1310 C1311 1.363 . S
C1310 C1315 1.379 . S
C1310 N1317 1.356 . S
C1311 C1310 1.363 . S
C1311 C1314 1.363 . S
N1312 C1314 1.356 . S
N1312 H1324 0.984 . S
N1312 H1325 0.985 . S
N1313 C1315 1.356 . S
N1313 H1318 0.984 . S
N1313 H1319 0.985 . S
C1314 C1308 1.379 . S
C1314 C1311 1.363 . S
C1314 N1312 1.356 . S
C1315 C1309 1.363 . S
C1315 C1310 1.379 . S
C1315 N1313 1.356 . S
N1316 C1308 1.356 . S
N1316 H1322 0.984 . S
N1316 H1323 0.984 . S
N1317 C1310 1.356 . S
N1317 H1320 0.984 . S
N1317 H1321 0.985 . S
H1318 N1313 0.984 . S
H1319 N1313 0.985 . S
H1320 N1317 0.984 . S
H1321 N1317 0.985 . S
H1322 N1316 0.984 . S
H1323 N1316 0.984 . S
H1324 N1312 0.984 . S
H1325 N1312 0.985 . S
C1326 C1327 1.363 . S
C1326 C1332 1.379 . S
C1326 N1334 1.356 . S
C1327 C1326 1.363 . S
C1327 C1333 1.363 . S
C1328 C1329 1.363 . S
C1328 C1333 1.379 . S
C1328 N1335 1.356 . S
C1329 C1328 1.363 . S
C1329 C1332 1.363 . S
N1330 C1332 1.356 . S
N1330 H1342 0.984 . S
N1330 H1343 0.985 . S
N1331 C1333 1.356 . S
N1331 H1336 0.984 . S
N1331 H1337 0.985 . S
C1332 C1326 1.379 . S
C1332 C1329 1.363 . S
C1332 N1330 1.356 . S
C1333 C1327 1.363 . S
C1333 C1328 1.379 . S
C1333 N1331 1.356 . S
N1334 C1326 1.356 . S
N1334 H1340 0.984 . S
N1334 H1341 0.984 . S
N1335 C1328 1.356 . S
N1335 H1338 0.984 . S
N1335 H1339 0.985 . S
H1336 N1331 0.984 . S
H1337 N1331 0.985 . S
H1338 N1335 0.984 . S
H1339 N1335 0.985 . S
H1340 N1334 0.984 . S
H1341 N1334 0.984 . S
H1342 N1330 0.984 . S
H1343 N1330 0.985 . S
C1344 C1345 1.363 . S
C1344 C1350 1.379 1_556 S
C1344 N1352 1.356 . S
C1345 C1344 1.363 . S
C1345 C1351 1.363 . S
C1346 C1347 1.363 . S
C1346 C1351 1.379 1_554 S
C1346 N1353 1.356 . S
C1347 C1346 1.363 . S
C1347 C1350 1.363 . S
N1348 C1350 1.356 . S
N1348 H1360 0.984 . S
N1348 H1361 0.985 . S
N1349 C1351 1.356 . S
N1349 H1354 0.984 . S
N1349 H1355 0.985 . S
C1350 C1344 1.379 1_554 S
C1350 C1347 1.363 . S
C1350 N1348 1.356 . S
C1351 C1345 1.363 . S
C1351 C1346 1.379 1_556 S
C1351 N1349 1.356 . S
N1352 C1344 1.356 . S
N1352 H1358 0.984 . S
N1352 H1359 0.984 . S
N1353 C1346 1.356 . S
N1353 H1356 0.984 . S
N1353 H1357 0.985 . S
H1354 N1349 0.984 . S
H1355 N1349 0.985 . S
H1356 N1353 0.984 . S
H1357 N1353 0.985 . S
H1358 N1352 0.984 . S
H1359 N1352 0.984 . S
H1360 N1348 0.984 . S
H1361 N1348 0.985 . S
C1362 C1363 1.363 1_545 S
C1362 C1368 1.379 . S
C1362 N1370 1.356 . S
C1363 C1362 1.363 1_565 S
C1363 C1369 1.363 . S
C1364 C1365 1.363 1_565 S
C1364 C1369 1.379 . S
C1364 N1371 1.356 . S
C1365 C1364 1.363 1_545 S
C1365 C1368 1.363 . S
N1366 C1368 1.356 . S
N1366 H1378 0.984 . S
N1366 H1379 0.985 . S
N1367 C1369 1.356 . S
N1367 H1372 0.984 . S
N1367 H1373 0.985 1_455 S
C1368 C1362 1.379 . S
C1368 C1365 1.363 . S
C1368 N1366 1.356 . S
C1369 C1363 1.363 . S
C1369 C1364 1.379 . S
C1369 N1367 1.356 . S
N1370 C1362 1.356 . S
N1370 H1376 0.984 . S
N1370 H1377 0.984 . S
N1371 C1364 1.356 . S
N1371 H1374 0.984 . S
N1371 H1375 0.985 1_455 S
H1372 N1367 0.984 . S
H1373 N1367 0.985 1_655 S
H1374 N1371 0.984 . S
H1375 N1371 0.985 1_655 S
H1376 N1370 0.984 . S
H1377 N1370 0.984 . S
H1378 N1366 0.984 . S
H1379 N1366 0.985 . S
C1380 C1381 1.363 . S
C1380 C1386 1.379 . S
C1380 N1388 1.356 . S
C1381 C1380 1.363 . S
C1381 C1387 1.363 . S
C1382 C1383 1.363 . S
C1382 C1387 1.379 . S
C1382 N1389 1.356 . S
C1383 C1382 1.363 . S
C1383 C1386 1.363 . S
N1384 C1386 1.356 . S
N1384 H1396 0.984 . S
N1384 H1397 0.985 . S
N1385 C1387 1.356 . S
N1385 H1390 0.984 . S
N1385 H1391 0.985 . S
C1386 C1380 1.379 . S
C1386 C1383 1.363 . S
C1386 N1384 1.356 . S
C1387 C1381 1.363 . S
C1387 C1382 1.379 . S
C1387 N1385 1.356 . S
N1388 C1380 1.356 . S
N1388 H1394 0.984 . S
N1388 H1395 0.984 . S
N1389 C1382 1.356 . S
N1389 H1392 0.984 . S
N1389 H1393 0.985 . S
H1390 N1385 0.984 . S
H1391 N1385 0.985 . S
H1392 N1389 0.984 . S
H1393 N1389 0.985 . S
H1394 N1388 0.984 . S
H1395 N1388 0.984 . S
H1396 N1384 0.984 . S
H1397 N1384 0.985 . S
C1398 C1399 1.363 1_565 S
C1398 C1404 1.379 . S
C1398 N1406 1.356 . S
C1399 C1398 1.363 1_545 S
C1399 C1405 1.363 . S
C1400 C1401 1.363 1_545 S
C1400 C1405 1.379 . S
C1400 N1407 1.356 . S
C1401 C1400 1.363 1_565 S
C1401 C1404 1.363 . S
N1402 C1404 1.356 . S
N1402 H1414 0.984 . S
N1402 H1415 0.985 . S
N1403 C1405 1.356 . S
N1403 H1408 0.984 . S
N1403 H1409 0.985 . S
C1404 C1398 1.379 . S
C1404 C1401 1.363 . S
C1404 N1402 1.356 . S
C1405 C1399 1.363 . S
C1405 C1400 1.379 . S
C1405 N1403 1.356 . S
N1406 C1398 1.356 . S
N1406 H1412 0.984 . S
N1406 H1413 0.984 1_565 S
N1407 C1400 1.356 . S
N1407 H1410 0.984 1_545 S
N1407 H1411 0.985 . S
H1408 N1403 0.984 . S
H1409 N1403 0.985 . S
H1410 N1407 0.984 1_565 S
H1411 N1407 0.985 . S
H1412 N1406 0.984 . S
H1413 N1406 0.984 1_545 S
H1414 N1402 0.984 . S
H1415 N1402 0.985 . S
C1416 C1417 1.363 . S
C1416 C1422 1.379 1_556 S
C1416 N1424 1.356 . S
C1417 C1416 1.363 . S
C1417 C1423 1.363 . S
C1418 C1419 1.363 . S
C1418 C1423 1.379 1_554 S
C1418 N1425 1.356 . S
C1419 C1418 1.363 . S
C1419 C1422 1.363 . S
N1420 C1422 1.356 . S
N1420 H1432 0.984 . S
N1420 H1433 0.985 . S
N1421 C1423 1.356 . S
N1421 H1426 0.984 . S
N1421 H1427 0.985 . S
C1422 C1416 1.379 1_554 S
C1422 C1419 1.363 . S
C1422 N1420 1.356 . S
C1423 C1417 1.363 . S
C1423 C1418 1.379 1_556 S
C1423 N1421 1.356 . S
N1424 C1416 1.356 . S
N1424 H1430 0.984 . S
N1424 H1431 0.984 . S
N1425 C1418 1.356 . S
N1425 H1428 0.984 . S
N1425 H1429 0.985 . S
H1426 N1421 0.984 . S
H1427 N1421 0.985 . S
H1428 N1425 0.984 . S
H1429 N1425 0.985 . S
H1430 N1424 0.984 . S
H1431 N1424 0.984 . S
H1432 N1420 0.984 . S
H1433 N1420 0.985 . S
C1434 C1435 1.363 1_545 S
C1434 C1440 1.379 . S
C1434 N1442 1.356 . S
C1435 C1434 1.363 1_565 S
C1435 C1441 1.374 . S
C1436 C1437 1.374 1_565 S
C1436 C1441 1.379 . S
C1436 N1443 1.348 1_655 S
C1437 C1436 1.374 1_545 S
C1437 C1440 1.363 . S
N1438 C1440 1.356 . S
N1438 H1450 0.984 . S
N1438 H1451 0.985 . S
N1439 C1441 1.348 1_455 S
N1439 H1444 0.984 . S
N1439 H1445 0.985 . S
C1440 C1434 1.379 . S
C1440 C1437 1.363 . S
C1440 N1438 1.356 . S
C1441 C1435 1.374 . S
C1441 C1436 1.379 . S
C1441 N1439 1.348 1_655 S
N1442 C1434 1.356 . S
N1442 H1448 0.984 . S
N1442 H1449 0.984 . S
N1443 C1436 1.348 1_455 S
N1443 H1446 0.984 . S
N1443 H1447 0.985 . S
H1444 N1439 0.984 . S
H1445 N1439 0.985 . S
H1446 N1443 0.984 . S
H1447 N1443 0.985 . S
H1448 N1442 0.984 . S
H1449 N1442 0.984 . S
H1450 N1438 0.984 . S
H1451 N1438 0.985 . S
C1452 C1453 1.363 . S
C1452 C1458 1.379 . S
C1452 N1460 1.356 . S
C1453 C1452 1.363 . S
C1453 C1459 1.363 . S
C1454 C1455 1.363 . S
C1454 C1459 1.379 . S
C1454 N1461 1.356 . S
C1455 C1454 1.363 . S
C1455 C1458 1.363 . S
N1456 C1458 1.356 . S
N1456 H1468 0.984 . S
N1456 H1469 0.985 . S
N1457 C1459 1.356 . S
N1457 H1462 0.984 . S
N1457 H1463 0.985 . S
C1458 C1452 1.379 . S
C1458 C1455 1.363 . S
C1458 N1456 1.356 . S
C1459 C1453 1.363 . S
C1459 C1454 1.379 . S
C1459 N1457 1.356 . S
N1460 C1452 1.356 . S
N1460 H1466 0.984 . S
N1460 H1467 0.984 . S
N1461 C1454 1.356 . S
N1461 H1464 0.984 . S
N1461 H1465 0.985 . S
H1462 N1457 0.984 . S
H1463 N1457 0.985 . S
H1464 N1461 0.984 . S
H1465 N1461 0.985 . S
H1466 N1460 0.984 . S
H1467 N1460 0.984 . S
H1468 N1456 0.984 . S
H1469 N1456 0.985 . S
C1470 C1471 1.363 1_565 S
C1470 C1476 1.379 . S
C1470 N1478 1.356 . S
C1471 C1470 1.363 1_545 S
C1471 C1477 1.363 . S
C1472 C1473 1.363 1_545 S
C1472 C1477 1.379 . S
C1472 N1479 1.356 . S
C1473 C1472 1.363 1_565 S
C1473 C1476 1.363 . S
N1474 C1476 1.356 . S
N1474 H1486 0.984 . S
N1474 H1487 0.985 . S
N1475 C1477 1.356 . S
N1475 H1480 0.984 . S
N1475 H1481 0.985 . S
C1476 C1470 1.379 . S
C1476 C1473 1.363 . S
C1476 N1474 1.356 . S
C1477 C1471 1.363 . S
C1477 C1472 1.379 . S
C1477 N1475 1.356 . S
N1478 C1470 1.356 . S
N1478 H1484 0.984 . S
N1478 H1485 0.984 . S
N1479 C1472 1.356 . S
N1479 H1482 0.984 . S
N1479 H1483 0.985 . S
H1480 N1475 0.984 . S
H1481 N1475 0.985 . S
H1482 N1479 0.984 . S
H1483 N1479 0.985 . S
H1484 N1478 0.984 . S
H1485 N1478 0.984 . S
H1486 N1474 0.984 . S
H1487 N1474 0.985 . S
C1488 C1489 1.363 . S
C1488 C1494 1.379 . S
C1488 N1496 1.356 . S
C1489 C1488 1.363 . S
C1489 C1495 1.363 . S
C1490 C1491 1.363 . S
C1490 C1495 1.379 . S
C1490 N1497 1.356 . S
C1491 C1490 1.363 . S
C1491 C1494 1.363 . S
N1492 C1494 1.356 . S
N1492 H1504 0.984 . S
N1492 H1505 0.985 . S
N1493 C1495 1.356 . S
N1493 H1498 0.984 . S
N1493 H1499 0.985 . S
C1494 C1488 1.379 . S
C1494 C1491 1.363 . S
C1494 N1492 1.356 . S
C1495 C1489 1.363 . S
C1495 C1490 1.379 . S
C1495 N1493 1.356 . S
N1496 C1488 1.356 . S
N1496 H1502 0.984 . S
N1496 H1503 0.984 . S
N1497 C1490 1.356 . S
N1497 H1500 0.984 . S
N1497 H1501 0.985 . S
H1498 N1493 0.984 . S
H1499 N1493 0.985 . S
H1500 N1497 0.984 . S
H1501 N1497 0.985 . S
H1502 N1496 0.984 . S
H1503 N1496 0.984 . S
H1504 N1492 0.984 . S
H1505 N1492 0.985 . S
C1506 C1507 1.363 . S
C1506 C1512 1.379 . S
C1506 N1514 1.356 . S
C1507 C1506 1.363 . S
C1507 C1513 1.363 . S
C1508 C1509 1.363 . S
C1508 C1513 1.379 . S
C1508 N1515 1.356 . S
C1509 C1508 1.363 . S
C1509 C1512 1.363 . S
N1510 C1512 1.356 . S
N1510 H1522 0.984 . S
N1510 H1523 0.985 . S
N1511 C1513 1.356 . S
N1511 H1516 0.984 . S
N1511 H1517 0.985 . S
C1512 C1506 1.379 . S
C1512 C1509 1.363 . S
C1512 N1510 1.356 . S
C1513 C1507 1.363 . S
C1513 C1508 1.379 . S
C1513 N1511 1.356 . S
N1514 C1506 1.356 . S
N1514 H1520 0.984 . S
N1514 H1521 0.984 . S
N1515 C1508 1.356 . S
N1515 H1518 0.984 . S
N1515 H1519 0.985 . S
H1516 N1511 0.984 . S
H1517 N1511 0.985 . S
H1518 N1515 0.984 . S
H1519 N1515 0.985 . S
H1520 N1514 0.984 . S
H1521 N1514 0.984 . S
H1522 N1510 0.984 . S
H1523 N1510 0.985 . S
C1524 C1525 1.363 . S
C1524 C1530 1.379 1_556 S
C1524 N1532 1.356 . S
C1525 C1524 1.363 . S
C1525 C1531 1.363 . S
C1526 C1527 1.363 . S
C1526 C1531 1.379 1_554 S
C1526 N1533 1.356 . S
C1527 C1526 1.363 . S
C1527 C1530 1.363 . S
N1528 C1530 1.356 . S
N1528 H1540 0.984 . S
N1528 H1541 0.985 . S
N1529 C1531 1.356 . S
N1529 H1534 0.984 . S
N1529 H1535 0.985 . S
C1530 C1524 1.379 1_554 S
C1530 C1527 1.363 . S
C1530 N1528 1.356 . S
C1531 C1525 1.363 . S
C1531 C1526 1.379 1_556 S
C1531 N1529 1.356 . S
N1532 C1524 1.356 . S
N1532 H1538 0.984 . S
N1532 H1539 0.984 . S
N1533 C1526 1.356 . S
N1533 H1536 0.984 . S
N1533 H1537 0.985 . S
H1534 N1529 0.984 . S
H1535 N1529 0.985 . S
H1536 N1533 0.984 . S
H1537 N1533 0.985 . S
H1538 N1532 0.984 . S
H1539 N1532 0.984 . S
H1540 N1528 0.984 . S
H1541 N1528 0.985 . S
C1542 C1543 1.363 . S
C1542 C1548 1.379 . S
C1542 N1550 1.356 . S
C1543 C1542 1.363 . S
C1543 C1549 1.363 1_655 S
C1544 C1545 1.363 1_455 S
C1544 C1549 1.379 . S
C1544 N1551 1.356 . S
C1545 C1544 1.363 1_655 S
C1545 C1548 1.363 . S
N1546 C1548 1.356 . S
N1546 H1558 0.984 . S
N1546 H1559 0.985 . S
N1547 C1549 1.356 . S
N1547 H1552 0.984 . S
N1547 H1553 0.985 . S
C1548 C1542 1.379 . S
C1548 C1545 1.363 . S
C1548 N1546 1.356 . S
C1549 C1543 1.363 1_455 S
C1549 C1544 1.379 . S
C1549 N1547 1.356 . S
N1550 C1542 1.356 . S
N1550 H1556 0.984 . S
N1550 H1557 0.984 . S
N1551 C1544 1.356 . S
N1551 H1554 0.984 . S
N1551 H1555 0.985 . S
H1552 N1547 0.984 . S
H1553 N1547 0.985 . S
H1554 N1551 0.984 . S
H1555 N1551 0.985 . S
H1556 N1550 0.984 . S
H1557 N1550 0.984 . S
H1558 N1546 0.984 . S
H1559 N1546 0.985 . S
C1560 C1561 1.363 . S
C1560 C1566 1.379 . S
C1560 N1568 1.356 . S
C1561 C1560 1.363 . S
C1561 C1567 1.363 . S
C1562 C1563 1.363 . S
C1562 C1567 1.379 . S
C1562 N1569 1.356 . S
C1563 C1562 1.363 . S
C1563 C1566 1.363 . S
N1564 C1566 1.356 . S
N1564 H1576 0.984 . S
N1564 H1577 0.985 . S
N1565 C1567 1.356 . S
N1565 H1570 0.984 . S
N1565 H1571 0.985 . S
C1566 C1560 1.379 . S
C1566 C1563 1.363 . S
C1566 N1564 1.356 . S
C1567 C1561 1.363 . S
C1567 C1562 1.379 . S
C1567 N1565 1.356 . S
N1568 C1560 1.356 . S
N1568 H1574 0.984 . S
N1568 H1575 0.984 . S
N1569 C1562 1.356 . S
N1569 H1572 0.984 . S
N1569 H1573 0.985 . S
H1570 N1565 0.984 . S
H1571 N1565 0.985 . S
H1572 N1569 0.984 . S
H1573 N1569 0.985 . S
H1574 N1568 0.984 . S
H1575 N1568 0.984 . S
H1576 N1564 0.984 . S
H1577 N1564 0.985 . S
C1578 C1579 1.363 . S
C1578 C1584 1.379 . S
C1578 N1586 1.356 . S
C1579 C1578 1.363 . S
C1579 C1585 1.363 . S
C1580 C1581 1.363 . S
C1580 C1585 1.379 . S
C1580 N1587 1.356 . S
C1581 C1580 1.363 . S
C1581 C1584 1.363 . S
N1582 C1584 1.356 . S
N1582 H1594 0.984 . S
N1582 H1595 0.985 . S
N1583 C1585 1.356 . S
N1583 H1588 0.984 . S
N1583 H1589 0.985 . S
C1584 C1578 1.379 . S
C1584 C1581 1.363 . S
C1584 N1582 1.356 . S
C1585 C1579 1.363 . S
C1585 C1580 1.379 . S
C1585 N1583 1.356 . S
N1586 C1578 1.356 . S
N1586 H1592 0.984 . S
N1586 H1593 0.984 . S
N1587 C1580 1.356 . S
N1587 H1590 0.984 . S
N1587 H1591 0.985 . S
H1588 N1583 0.984 . S
H1589 N1583 0.985 . S
H1590 N1587 0.984 . S
H1591 N1587 0.985 . S
H1592 N1586 0.984 . S
H1593 N1586 0.984 . S
H1594 N1582 0.984 . S
H1595 N1582 0.985 . S
C1596 C1597 1.363 . S
C1596 C1602 1.379 1_554 S
C1596 N1604 1.356 . S
C1597 C1596 1.363 . S
C1597 C1603 1.363 . S
C1598 C1599 1.363 . S
C1598 C1603 1.379 1_556 S
C1598 N1605 1.356 . S
C1599 C1598 1.363 . S
C1599 C1602 1.363 . S
N1600 C1602 1.356 . S
N1600 H1612 0.984 . S
N1600 H1613 0.985 . S
N1601 C1603 1.356 . S
N1601 H1606 0.984 . S
N1601 H1607 0.985 . S
C1602 C1596 1.379 1_556 S
C1602 C1599 1.363 . S
C1602 N1600 1.356 . S
C1603 C1597 1.363 . S
C1603 C1598 1.379 1_554 S
C1603 N1601 1.356 . S
N1604 C1596 1.356 . S
N1604 H1610 0.984 . S
N1604 H1611 0.984 . S
N1605 C1598 1.356 . S
N1605 H1608 0.984 . S
N1605 H1609 0.985 . S
H1606 N1601 0.984 . S
H1607 N1601 0.985 . S
H1608 N1605 0.984 . S
H1609 N1605 0.985 . S
H1610 N1604 0.984 . S
H1611 N1604 0.984 . S
H1612 N1600 0.984 . S
H1613 N1600 0.985 . S
C1614 C1615 1.363 1_655 S
C1614 C1620 1.379 . S
C1614 N1622 1.356 . S
C1615 C1614 1.363 1_455 S
C1615 C1621 1.363 . S
C1616 C1617 1.363 . S
C1616 C1621 1.379 . S
C1616 N1623 1.356 . S
C1617 C1616 1.363 . S
C1617 C1620 1.363 1_455 S
N1618 C1620 1.356 . S
N1618 H1630 0.984 . S
N1618 H1631 0.985 . S
N1619 C1621 1.356 . S
N1619 H1624 0.984 . S
N1619 H1625 0.985 . S
C1620 C1614 1.379 . S
C1620 C1617 1.363 1_655 S
C1620 N1618 1.356 . S
C1621 C1615 1.363 . S
C1621 C1616 1.379 . S
C1621 N1619 1.356 . S
N1622 C1614 1.356 . S
N1622 H1628 0.984 . S
N1622 H1629 0.984 . S
N1623 C1616 1.356 . S
N1623 H1626 0.984 . S
N1623 H1627 0.985 . S
H1624 N1619 0.984 . S
H1625 N1619 0.985 . S
H1626 N1623 0.984 . S
H1627 N1623 0.985 . S
H1628 N1622 0.984 . S
H1629 N1622 0.984 . S
H1630 N1618 0.984 . S
H1631 N1618 0.985 . S
C1632 C1633 1.363 . S
C1632 C1638 1.379 . S
C1632 N1640 1.356 . S
C1633 C1632 1.363 . S
C1633 C1639 1.363 . S
C1634 C1635 1.361 1_565 S
C1634 C1639 1.379 . S
C1634 N1641 1.356 1_565 S
C1635 C1634 1.361 1_545 S
C1635 C1638 1.361 1_545 S
N1636 C1638 1.356 1_545 S
N1636 H1648 0.984 . S
N1636 H1649 0.985 . S
N1637 C1639 1.356 . S
N1637 H1642 0.984 . S
N1637 H1643 0.985 . S
C1638 C1632 1.379 . S
C1638 C1635 1.361 1_565 S
C1638 N1636 1.356 1_565 S
C1639 C1633 1.363 . S
C1639 C1634 1.379 . S
C1639 N1637 1.356 . S
N1640 C1632 1.356 . S
N1640 H1646 0.984 . S
N1640 H1647 0.984 . S
N1641 C1634 1.356 1_545 S
N1641 H1644 0.984 . S
N1641 H1645 0.985 . S
H1642 N1637 0.984 . S
H1643 N1637 0.985 . S
H1644 N1641 0.984 . S
H1645 N1641 0.985 . S
H1646 N1640 0.984 . S
H1647 N1640 0.984 . S
H1648 N1636 0.984 . S
H1649 N1636 0.985 . S
C1650 C1651 1.363 1_565 S
C1650 C1656 1.379 . S
C1650 N1658 1.356 . S
C1651 C1650 1.363 1_545 S
C1651 C1657 1.363 . S
C1652 C1653 1.363 . S
C1652 C1657 1.379 . S
C1652 N1659 1.356 . S
C1653 C1652 1.363 . S
C1653 C1656 1.363 1_545 S
N1654 C1656 1.356 . S
N1654 H1666 0.984 . S
N1654 H1667 0.985 . S
N1655 C1657 1.356 . S
N1655 H1660 0.984 . S
N1655 H1661 0.985 . S
C1656 C1650 1.379 . S
C1656 C1653 1.363 1_565 S
C1656 N1654 1.356 . S
C1657 C1651 1.363 . S
C1657 C1652 1.379 . S
C1657 N1655 1.356 . S
N1658 C1650 1.356 . S
N1658 H1664 0.984 . S
N1658 H1665 0.984 . S
N1659 C1652 1.356 . S
N1659 H1662 0.984 . S
N1659 H1663 0.985 . S
H1660 N1655 0.984 . S
H1661 N1655 0.985 . S
H1662 N1659 0.984 . S
H1663 N1659 0.985 . S
H1664 N1658 0.984 . S
H1665 N1658 0.984 . S
H1666 N1654 0.984 . S
H1667 N1654 0.985 . S
C1668 C1669 1.363 . S
C1668 C1674 1.379 . S
C1668 N1676 1.356 . S
C1669 C1668 1.363 . S
C1669 C1675 1.363 . S
C1670 C1671 1.361 1_545 S
C1670 C1675 1.379 . S
C1670 N1677 1.356 1_545 S
C1671 C1670 1.361 1_565 S
C1671 C1674 1.360 1_565 S
N1672 C1674 1.356 1_565 S
N1672 H1684 0.983 1_565 S
N1672 H1685 0.985 . S
N1673 C1675 1.356 . S
N1673 H1678 0.984 . S
N1673 H1679 0.985 . S
C1674 C1668 1.379 . S
C1674 C1671 1.360 1_545 S
C1674 N1672 1.356 1_545 S
C1675 C1669 1.363 . S
C1675 C1670 1.379 . S
C1675 N1673 1.356 . S
N1676 C1668 1.356 . S
N1676 H1682 0.984 . S
N1676 H1683 0.984 . S
N1677 C1670 1.356 1_565 S
N1677 H1680 0.984 . S
N1677 H1681 0.985 . S
H1678 N1673 0.984 . S
H1679 N1673 0.985 . S
H1680 N1677 0.984 . S
H1681 N1677 0.985 . S
H1682 N1676 0.984 . S
H1683 N1676 0.984 . S
H1684 N1672 0.983 1_545 S
H1685 N1672 0.985 . S
C1686 C1687 1.363 . S
C1686 C1692 1.379 . S
C1686 N1694 1.356 . S
C1687 C1686 1.363 . S
C1687 C1693 1.363 . S
C1688 C1689 1.363 . S
C1688 C1693 1.379 . S
C1688 N1695 1.356 . S
C1689 C1688 1.363 . S
C1689 C1692 1.363 . S
N1690 C1692 1.356 . S
N1690 H1702 0.984 . S
N1690 H1703 0.985 . S
N1691 C1693 1.356 . S
N1691 H1696 0.984 . S
N1691 H1697 0.985 . S
C1692 C1686 1.379 . S
C1692 C1689 1.363 . S
C1692 N1690 1.356 . S
C1693 C1687 1.363 . S
C1693 C1688 1.379 . S
C1693 N1691 1.356 . S
N1694 C1686 1.356 . S
N1694 H1700 0.984 . S
N1694 H1701 0.984 . S
N1695 C1688 1.356 . S
N1695 H1698 0.984 . S
N1695 H1699 0.985 . S
H1696 N1691 0.984 . S
H1697 N1691 0.985 . S
H1698 N1695 0.984 . S
H1699 N1695 0.985 . S
H1700 N1694 0.984 . S
H1701 N1694 0.984 . S
H1702 N1690 0.984 . S
H1703 N1690 0.985 . S
C1704 C1705 1.363 . S
C1704 C1710 1.379 . S
C1704 N1712 1.356 . S
C1705 C1704 1.363 . S
C1705 C1711 1.363 . S
C1706 C1707 1.361 1_545 S
C1706 C1711 1.379 . S
C1706 N1713 1.356 1_545 S
C1707 C1706 1.361 1_565 S
C1707 C1710 1.360 1_565 S
N1708 C1710 1.356 1_565 S
N1708 H1720 0.984 1_565 S
N1708 H1721 0.985 . S
N1709 C1711 1.356 . S
N1709 H1714 0.984 . S
N1709 H1715 0.985 . S
C1710 C1704 1.379 . S
C1710 C1707 1.360 1_545 S
C1710 N1708 1.356 1_545 S
C1711 C1705 1.363 . S
C1711 C1706 1.379 . S
C1711 N1709 1.356 . S
N1712 C1704 1.356 . S
N1712 H1718 0.984 . S
N1712 H1719 0.984 . S
N1713 C1706 1.356 1_565 S
N1713 H1716 0.984 . S
N1713 H1717 0.985 . S
H1714 N1709 0.984 . S
H1715 N1709 0.985 . S
H1716 N1713 0.984 . S
H1717 N1713 0.985 . S
H1718 N1712 0.984 . S
H1719 N1712 0.984 . S
H1720 N1708 0.984 1_545 S
H1721 N1708 0.985 . S
C1722 C1723 1.363 1_565 S
C1722 C1728 1.379 . S
C1722 N1730 1.356 . S
C1723 C1722 1.363 1_545 S
C1723 C1729 1.363 . S
C1724 C1725 1.363 . S
C1724 C1729 1.379 . S
C1724 N1731 1.356 . S
C1725 C1724 1.363 . S
C1725 C1728 1.363 1_545 S
N1726 C1728 1.356 . S
N1726 H1738 0.984 . S
N1726 H1739 0.985 . S
N1727 C1729 1.356 . S
N1727 H1732 0.984 . S
N1727 H1733 0.985 . S
C1728 C1722 1.379 . S
C1728 C1725 1.363 1_565 S
C1728 N1726 1.356 . S
C1729 C1723 1.363 . S
C1729 C1724 1.379 . S
C1729 N1727 1.356 . S
N1730 C1722 1.356 . S
N1730 H1736 0.984 . S
N1730 H1737 0.984 . S
N1731 C1724 1.356 . S
N1731 H1734 0.984 . S
N1731 H1735 0.985 . S
H1732 N1727 0.984 . S
H1733 N1727 0.985 . S
H1734 N1731 0.984 . S
H1735 N1731 0.985 . S
H1736 N1730 0.984 . S
H1737 N1730 0.984 . S
H1738 N1726 0.984 . S
H1739 N1726 0.985 . S
C1740 C1741 1.363 . S
C1740 C1746 1.379 . S
C1740 N1748 1.356 . S
C1741 C1740 1.363 . S
C1741 C1747 1.363 . S
C1742 C1743 1.361 1_565 S
C1742 C1747 1.379 . S
C1742 N1749 1.356 1_565 S
C1743 C1742 1.361 1_545 S
C1743 C1746 1.360 1_545 S
N1744 C1746 1.356 1_545 S
N1744 H1756 0.983 1_545 S
N1744 H1757 0.985 . S
N1745 C1747 1.356 . S
N1745 H1750 0.984 . S
N1745 H1751 0.985 . S
C1746 C1740 1.379 . S
C1746 C1743 1.360 1_565 S
C1746 N1744 1.356 1_565 S
C1747 C1741 1.363 . S
C1747 C1742 1.379 . S
C1747 N1745 1.356 . S
N1748 C1740 1.356 . S
N1748 H1754 0.984 . S
N1748 H1755 0.984 . S
N1749 C1742 1.356 1_545 S
N1749 H1752 0.984 . S
N1749 H1753 0.985 . S
H1750 N1745 0.984 . S
H1751 N1745 0.985 . S
H1752 N1749 0.984 . S
H1753 N1749 0.985 . S
H1754 N1748 0.984 . S
H1755 N1748 0.984 . S
H1756 N1744 0.983 1_565 S
H1757 N1744 0.985 . S
C1758 C1759 1.363 1_545 S
C1758 C1764 1.379 . S
C1758 N1766 1.356 . S
C1759 C1758 1.363 1_565 S
C1759 C1765 1.363 . S
C1760 C1761 1.363 . S
C1760 C1765 1.379 . S
C1760 N1767 1.356 . S
C1761 C1760 1.363 . S
C1761 C1764 1.363 1_565 S
N1762 C1764 1.356 . S
N1762 H1774 0.984 . S
N1762 H1775 0.985 . S
N1763 C1765 1.356 . S
N1763 H1768 0.984 . S
N1763 H1769 0.985 . S
C1764 C1758 1.379 . S
C1764 C1761 1.363 1_545 S
C1764 N1762 1.356 . S
C1765 C1759 1.363 . S
C1765 C1760 1.379 . S
C1765 N1763 1.356 . S
N1766 C1758 1.356 . S
N1766 H1772 0.984 . S
N1766 H1773 0.984 . S
N1767 C1760 1.356 . S
N1767 H1770 0.984 . S
N1767 H1771 0.985 . S
H1768 N1763 0.984 . S
H1769 N1763 0.985 . S
H1770 N1767 0.984 . S
H1771 N1767 0.985 . S
H1772 N1766 0.984 . S
H1773 N1766 0.984 . S
H1774 N1762 0.984 . S
H1775 N1762 0.985 . S
C1776 C1777 1.360 1_545 S
C1776 C1782 1.379 . S
C1776 N1784 1.356 1_545 S
C1777 C1776 1.360 1_565 S
C1777 C1783 1.361 1_565 S
C1778 C1779 1.363 . S
C1778 C1783 1.379 . S
C1778 N1785 1.356 . S
C1779 C1778 1.363 . S
C1779 C1782 1.363 . S
N1780 C1782 1.356 . S
N1780 H1792 0.984 . S
N1780 H1793 0.985 . S
N1781 C1783 1.356 1_565 S
N1781 H1786 0.984 . S
N1781 H1787 0.985 . S
C1782 C1776 1.379 . S
C1782 C1779 1.363 . S
C1782 N1780 1.356 . S
C1783 C1777 1.361 1_545 S
C1783 C1778 1.379 . S
C1783 N1781 1.356 1_545 S
N1784 C1776 1.356 1_565 S
N1784 H1790 0.984 1_565 S
N1784 H1791 0.984 . S
N1785 C1778 1.356 . S
N1785 H1788 0.984 . S
N1785 H1789 0.985 . S
H1786 N1781 0.984 . S
H1787 N1781 0.985 . S
H1788 N1785 0.984 . S
H1789 N1785 0.985 . S
H1790 N1784 0.984 1_545 S
H1791 N1784 0.984 . S
H1792 N1780 0.984 . S
H1793 N1780 0.985 . S
C1794 C1795 1.363 1_545 S
C1794 C1800 1.379 . S
C1794 N1802 1.356 . S
C1795 C1794 1.363 1_565 S
C1795 C1801 1.363 . S
C1796 C1797 1.363 . S
C1796 C1801 1.379 . S
C1796 N1803 1.356 . S
C1797 C1796 1.363 . S
C1797 C1800 1.363 1_565 S
N1798 C1800 1.356 . S
N1798 H1810 0.984 . S
N1798 H1811 0.985 . S
N1799 C1801 1.356 . S
N1799 H1804 0.984 . S
N1799 H1805 0.985 . S
C1800 C1794 1.379 . S
C1800 C1797 1.363 1_545 S
C1800 N1798 1.356 . S
C1801 C1795 1.363 . S
C1801 C1796 1.379 . S
C1801 N1799 1.356 . S
N1802 C1794 1.356 . S
N1802 H1808 0.984 . S
N1802 H1809 0.984 . S
N1803 C1796 1.356 . S
N1803 H1806 0.984 . S
N1803 H1807 0.985 . S
H1804 N1799 0.984 . S
H1805 N1799 0.985 . S
H1806 N1803 0.984 . S
H1807 N1803 0.985 . S
H1808 N1802 0.984 . S
H1809 N1802 0.984 . S
H1810 N1798 0.984 . S
H1811 N1798 0.985 . S
C1812 C1813 1.360 1_565 S
C1812 C1818 1.379 . S
C1812 N1820 1.356 1_565 S
C1813 C1812 1.360 1_545 S
C1813 C1819 1.361 1_545 S
C1814 C1815 1.363 . S
C1814 C1819 1.379 . S
C1814 N1821 1.356 . S
C1815 C1814 1.363 . S
C1815 C1818 1.363 . S
N1816 C1818 1.356 . S
N1816 H1828 0.984 . S
N1816 H1829 0.985 . S
N1817 C1819 1.356 1_545 S
N1817 H1822 0.984 . S
N1817 H1823 0.985 . S
C1818 C1812 1.379 . S
C1818 C1815 1.363 . S
C1818 N1816 1.356 . S
C1819 C1813 1.361 1_565 S
C1819 C1814 1.379 . S
C1819 N1817 1.356 1_565 S
N1820 C1812 1.356 1_545 S
N1820 H1826 0.984 . S
N1820 H1827 0.984 . S
N1821 C1814 1.356 . S
N1821 H1824 0.984 . S
N1821 H1825 0.985 . S
H1822 N1817 0.984 . S
H1823 N1817 0.985 . S
H1824 N1821 0.984 . S
H1825 N1821 0.985 . S
H1826 N1820 0.984 . S
H1827 N1820 0.984 . S
H1828 N1816 0.984 . S
H1829 N1816 0.985 . S
C1830 C1831 1.363 1_565 S
C1830 C1836 1.379 . S
C1830 N1838 1.356 . S
C1831 C1830 1.363 1_545 S
C1831 C1837 1.363 . S
C1832 C1833 1.363 . S
C1832 C1837 1.379 . S
C1832 N1839 1.356 . S
C1833 C1832 1.363 . S
C1833 C1836 1.363 1_545 S
N1834 C1836 1.356 . S
N1834 H1846 0.984 . S
N1834 H1847 0.985 . S
N1835 C1837 1.356 . S
N1835 H1840 0.984 . S
N1835 H1841 0.985 . S
C1836 C1830 1.379 . S
C1836 C1833 1.363 1_565 S
C1836 N1834 1.356 . S
C1837 C1831 1.363 . S
C1837 C1832 1.379 . S
C1837 N1835 1.356 . S
N1838 C1830 1.356 . S
N1838 H1844 0.984 . S
N1838 H1845 0.984 . S
N1839 C1832 1.356 . S
N1839 H1842 0.984 . S
N1839 H1843 0.985 . S
H1840 N1835 0.984 . S
H1841 N1835 0.985 . S
H1842 N1839 0.984 . S
H1843 N1839 0.985 . S
H1844 N1838 0.984 . S
H1845 N1838 0.984 . S
H1846 N1834 0.984 . S
H1847 N1834 0.985 . S
C1848 C1849 1.363 . S
C1848 C1854 1.379 . S
C1848 N1856 1.356 . S
C1849 C1848 1.363 . S
C1849 C1855 1.363 . S
C1850 C1851 1.360 1_565 S
C1850 C1855 1.379 . S
C1850 N1857 1.356 1_565 S
C1851 C1850 1.360 1_545 S
C1851 C1854 1.361 1_545 S
N1852 C1854 1.356 1_545 S
N1852 H1864 0.984 . S
N1852 H1865 0.985 . S
N1853 C1855 1.356 . S
N1853 H1858 0.984 . S
N1853 H1859 0.985 . S
C1854 C1848 1.379 . S
C1854 C1851 1.361 1_565 S
C1854 N1852 1.356 1_565 S
C1855 C1849 1.363 . S
C1855 C1850 1.379 . S
C1855 N1853 1.356 . S
N1856 C1848 1.356 . S
N1856 H1862 0.984 . S
N1856 H1863 0.984 . S
N1857 C1850 1.356 1_545 S
N1857 H1860 0.984 . S
N1857 H1861 0.985 1_545 S
H1858 N1853 0.984 . S
H1859 N1853 0.985 . S
H1860 N1857 0.984 . S
H1861 N1857 0.985 1_565 S
H1862 N1856 0.984 . S
H1863 N1856 0.984 . S
H1864 N1852 0.984 . S
H1865 N1852 0.985 . S
C1866 C1867 1.363 . S
C1866 C1872 1.379 . S
C1866 N1874 1.356 1_565 S
C1867 C1866 1.363 . S
C1867 C1873 1.363 . S
C1868 C1869 1.363 . S
C1868 C1873 1.379 . S
C1868 N1875 1.356 . S
C1869 C1868 1.363 . S
C1869 C1872 1.363 . S
N1870 C1872 1.356 . S
N1870 H1882 0.984 . S
N1870 H1883 0.985 . S
N1871 C1873 1.356 . S
N1871 H1876 0.984 . S
N1871 H1877 0.985 . S
C1872 C1866 1.379 . S
C1872 C1869 1.363 . S
C1872 N1870 1.356 . S
C1873 C1867 1.363 . S
C1873 C1868 1.379 . S
C1873 N1871 1.356 . S
N1874 C1866 1.356 1_545 S
N1874 H1880 0.984 . S
N1874 H1881 0.984 . S
N1875 C1868 1.356 . S
N1875 H1878 0.984 . S
N1875 H1879 0.985 . S
H1876 N1871 0.984 . S
H1877 N1871 0.985 . S
H1878 N1875 0.984 . S
H1879 N1875 0.985 . S
H1880 N1874 0.984 . S
H1881 N1874 0.984 . S
H1882 N1870 0.984 . S
H1883 N1870 0.985 . S
C1884 C1885 1.360 1_545 S
C1884 C1890 1.379 . S
C1884 N1892 1.356 1_545 S
C1885 C1884 1.360 1_565 S
C1885 C1891 1.361 1_565 S
C1886 C1887 1.363 . S
C1886 C1891 1.379 . S
C1886 N1893 1.356 . S
C1887 C1886 1.363 . S
C1887 C1890 1.363 . S
N1888 C1890 1.356 . S
N1888 H1900 0.984 . S
N1888 H1901 0.985 . S
N1889 C1891 1.356 1_565 S
N1889 H1894 0.984 . S
N1889 H1895 0.985 . S
C1890 C1884 1.379 . S
C1890 C1887 1.363 . S
C1890 N1888 1.356 . S
C1891 C1885 1.361 1_545 S
C1891 C1886 1.379 . S
C1891 N1889 1.356 1_545 S
N1892 C1884 1.356 1_565 S
N1892 H1898 0.986 . S
N1892 H1899 0.984 . S
N1893 C1886 1.356 . S
N1893 H1896 0.984 . S
N1893 H1897 0.985 . S
H1894 N1889 0.984 . S
H1895 N1889 0.985 . S
H1896 N1893 0.984 . S
H1897 N1893 0.985 . S
H1898 N1892 0.986 . S
H1899 N1892 0.984 . S
H1900 N1888 0.984 . S
H1901 N1888 0.985 . S
C1902 C1903 1.363 1_565 S
C1902 C1908 1.379 . S
C1902 N1910 1.356 . S
C1903 C1902 1.363 1_545 S
C1903 C1909 1.363 . S
C1904 C1905 1.363 . S
C1904 C1909 1.379 . S
C1904 N1911 1.356 . S
C1905 C1904 1.363 . S
C1905 C1908 1.363 1_545 S
N1906 C1908 1.356 . S
N1906 H1918 0.984 . S
N1906 H1919 0.985 . S
N1907 C1909 1.356 . S
N1907 H1912 0.984 . S
N1907 H1913 0.985 . S
C1908 C1902 1.379 . S
C1908 C1905 1.363 1_565 S
C1908 N1906 1.356 . S
C1909 C1903 1.363 . S
C1909 C1904 1.379 . S
C1909 N1907 1.356 . S
N1910 C1902 1.356 . S
N1910 H1916 0.984 . S
N1910 H1917 0.984 . S
N1911 C1904 1.356 . S
N1911 H1914 0.984 . S
N1911 H1915 0.985 . S
H1912 N1907 0.984 . S
H1913 N1907 0.985 . S
H1914 N1911 0.984 . S
H1915 N1911 0.985 . S
H1916 N1910 0.984 . S
H1917 N1910 0.984 . S
H1918 N1906 0.984 . S
H1919 N1906 0.985 . S
C1920 C1921 1.363 . S
C1920 C1926 1.379 . S
C1920 N1928 1.356 . S
C1921 C1920 1.363 . S
C1921 C1927 1.363 . S
C1922 C1923 1.363 . S
C1922 C1927 1.379 . S
C1922 N1929 1.356 . S
C1923 C1922 1.363 . S
C1923 C1926 1.363 . S
N1924 C1926 1.356 . S
N1924 H1936 0.984 . S
N1924 H1937 0.985 . S
N1925 C1927 1.356 . S
N1925 H1930 0.984 . S
N1925 H1931 0.985 . S
C1926 C1920 1.379 . S
C1926 C1923 1.363 . S
C1926 N1924 1.356 . S
C1927 C1921 1.363 . S
C1927 C1922 1.379 . S
C1927 N1925 1.356 . S
N1928 C1920 1.356 . S
N1928 H1934 0.984 . S
N1928 H1935 0.984 . S
N1929 C1922 1.356 . S
N1929 H1932 0.984 . S
N1929 H1933 0.985 . S
H1930 N1925 0.984 . S
H1931 N1925 0.985 . S
H1932 N1929 0.984 . S
H1933 N1929 0.985 . S
H1934 N1928 0.984 . S
H1935 N1928 0.984 . S
H1936 N1924 0.984 . S
H1937 N1924 0.985 . S
C1938 C1939 1.363 . S
C1938 C1944 1.379 . S
C1938 N1946 1.356 . S
C1939 C1938 1.363 . S
C1939 C1945 1.363 . S
C1940 C1941 1.363 . S
C1940 C1945 1.379 . S
C1940 N1947 1.356 . S
C1941 C1940 1.363 . S
C1941 C1944 1.363 . S
N1942 C1944 1.356 . S
N1942 H1954 0.984 . S
N1942 H1955 0.985 . S
N1943 C1945 1.356 . S
N1943 H1948 0.984 . S
N1943 H1949 0.985 . S
C1944 C1938 1.379 . S
C1944 C1941 1.363 . S
C1944 N1942 1.356 . S
C1945 C1939 1.363 . S
C1945 C1940 1.379 . S
C1945 N1943 1.356 . S
N1946 C1938 1.356 . S
N1946 H1952 0.984 . S
N1946 H1953 0.984 . S
N1947 C1940 1.356 . S
N1947 H1950 0.984 . S
N1947 H1951 0.985 . S
H1948 N1943 0.984 . S
H1949 N1943 0.985 . S
H1950 N1947 0.984 . S
H1951 N1947 0.985 . S
H1952 N1946 0.984 . S
H1953 N1946 0.984 . S
H1954 N1942 0.984 . S
H1955 N1942 0.985 . S
C1956 C1957 1.363 . S
C1956 C1962 1.379 . S
C1956 N1964 1.356 . S
C1957 C1956 1.363 . S
C1957 C1963 1.363 . S
C1958 C1959 1.363 . S
C1958 C1963 1.379 . S
C1958 N1965 1.356 . S
C1959 C1958 1.363 . S
C1959 C1962 1.363 . S
N1960 C1962 1.356 . S
N1960 H1972 0.984 . S
N1960 H1973 0.985 . S
N1961 C1963 1.356 . S
N1961 H1966 0.984 . S
N1961 H1967 0.985 . S
C1962 C1956 1.379 . S
C1962 C1959 1.363 . S
C1962 N1960 1.356 . S
C1963 C1957 1.363 . S
C1963 C1958 1.379 . S
C1963 N1961 1.356 . S
N1964 C1956 1.356 . S
N1964 H1970 0.984 . S
N1964 H1971 0.984 . S
N1965 C1958 1.356 . S
N1965 H1968 0.984 . S
N1965 H1969 0.985 . S
H1966 N1961 0.984 . S
H1967 N1961 0.985 . S
H1968 N1965 0.984 . S
H1969 N1965 0.985 . S
H1970 N1964 0.984 . S
H1971 N1964 0.984 . S
H1972 N1960 0.984 . S
H1973 N1960 0.985 . S
C1974 C1975 1.363 . S
C1974 C1980 1.379 . S
C1974 N1982 1.356 . S
C1975 C1974 1.363 . S
C1975 C1981 1.363 . S
C1976 C1977 1.363 . S
C1976 C1981 1.379 . S
C1976 N1983 1.356 . S
C1977 C1976 1.363 . S
C1977 C1980 1.363 . S
N1978 C1980 1.356 . S
N1978 H1990 0.984 . S
N1978 H1991 0.985 . S
N1979 C1981 1.356 . S
N1979 H1984 0.984 . S
N1979 H1985 0.985 . S
C1980 C1974 1.379 . S
C1980 C1977 1.363 . S
C1980 N1978 1.356 . S
C1981 C1975 1.363 . S
C1981 C1976 1.379 . S
C1981 N1979 1.356 . S
N1982 C1974 1.356 . S
N1982 H1988 0.984 . S
N1982 H1989 0.984 . S
N1983 C1976 1.356 . S
N1983 H1986 0.984 . S
N1983 H1987 0.985 . S
H1984 N1979 0.984 . S
H1985 N1979 0.985 . S
H1986 N1983 0.984 . S
H1987 N1983 0.985 . S
H1988 N1982 0.984 . S
H1989 N1982 0.984 . S
H1990 N1978 0.984 . S
H1991 N1978 0.985 . S
C1992 C1993 1.363 . S
C1992 C1998 1.379 . S
C1992 N2000 1.356 . S
C1993 C1992 1.363 . S
C1993 C1999 1.363 . S
C1994 C1995 1.363 . S
C1994 C1999 1.379 . S
C1994 N2001 1.356 . S
C1995 C1994 1.363 . S
C1995 C1998 1.363 . S
N1996 C1998 1.356 . S
N1996 H2008 0.984 . S
N1996 H2009 0.985 . S
N1997 C1999 1.356 . S
N1997 H2002 0.984 . S
N1997 H2003 0.985 . S
C1998 C1992 1.379 . S
C1998 C1995 1.363 . S
C1998 N1996 1.356 . S
C1999 C1993 1.363 . S
C1999 C1994 1.379 . S
C1999 N1997 1.356 . S
N2000 C1992 1.356 . S
N2000 H2006 0.984 . S
N2000 H2007 0.984 . S
N2001 C1994 1.356 . S
N2001 H2004 0.984 . S
N2001 H2005 0.985 . S
H2002 N1997 0.984 . S
H2003 N1997 0.985 . S
H2004 N2001 0.984 . S
H2005 N2001 0.985 . S
H2006 N2000 0.984 . S
H2007 N2000 0.984 . S
H2008 N1996 0.984 . S
H2009 N1996 0.985 . S
C2010 C2011 1.363 . S
C2010 C2016 1.379 . S
C2010 N2018 1.356 . S
C2011 C2010 1.363 . S
C2011 C2017 1.363 . S
C2012 C2013 1.363 . S
C2012 C2017 1.379 . S
C2012 N2019 1.356 . S
C2013 C2012 1.363 . S
C2013 C2016 1.363 . S
N2014 C2016 1.356 . S
N2014 H2026 0.984 . S
N2014 H2027 0.985 . S
N2015 C2017 1.356 . S
N2015 H2020 0.984 . S
N2015 H2021 0.985 . S
C2016 C2010 1.379 . S
C2016 C2013 1.363 . S
C2016 N2014 1.356 . S
C2017 C2011 1.363 . S
C2017 C2012 1.379 . S
C2017 N2015 1.356 . S
N2018 C2010 1.356 . S
N2018 H2024 0.984 . S
N2018 H2025 0.984 . S
N2019 C2012 1.356 . S
N2019 H2022 0.984 . S
N2019 H2023 0.985 . S
H2020 N2015 0.984 . S
H2021 N2015 0.985 . S
H2022 N2019 0.984 . S
H2023 N2019 0.985 . S
H2024 N2018 0.984 . S
H2025 N2018 0.984 . S
H2026 N2014 0.984 . S
H2027 N2014 0.985 . S
C2028 C2029 1.363 . S
C2028 C2034 1.379 . S
C2028 N2036 1.356 . S
C2029 C2028 1.363 . S
C2029 C2035 1.363 . S
C2030 C2031 1.363 . S
C2030 C2035 1.379 . S
C2030 N2037 1.356 . S
C2031 C2030 1.363 . S
C2031 C2034 1.363 . S
N2032 C2034 1.356 . S
N2032 H2044 0.984 . S
N2032 H2045 0.985 . S
N2033 C2035 1.356 . S
N2033 H2038 0.984 . S
N2033 H2039 0.985 . S
C2034 C2028 1.379 . S
C2034 C2031 1.363 . S
C2034 N2032 1.356 . S
C2035 C2029 1.363 . S
C2035 C2030 1.379 . S
C2035 N2033 1.356 . S
N2036 C2028 1.356 . S
N2036 H2042 0.984 . S
N2036 H2043 0.984 . S
N2037 C2030 1.356 . S
N2037 H2040 0.984 . S
N2037 H2041 0.985 . S
H2038 N2033 0.984 . S
H2039 N2033 0.985 . S
H2040 N2037 0.984 . S
H2041 N2037 0.985 . S
H2042 N2036 0.984 . S
H2043 N2036 0.984 . S
H2044 N2032 0.984 . S
H2045 N2032 0.985 . S
C2046 C2047 1.363 . S
C2046 C2052 1.379 . S
C2046 N2054 1.356 . S
C2047 C2046 1.363 . S
C2047 C2053 1.363 . S
C2048 C2049 1.363 . S
C2048 C2053 1.379 . S
C2048 N2055 1.356 . S
C2049 C2048 1.363 . S
C2049 C2052 1.363 . S
N2050 C2052 1.356 . S
N2050 H2062 0.984 . S
N2050 H2063 0.985 . S
N2051 C2053 1.356 . S
N2051 H2056 0.984 . S
N2051 H2057 0.985 . S
C2052 C2046 1.379 . S
C2052 C2049 1.363 . S
C2052 N2050 1.356 . S
C2053 C2047 1.363 . S
C2053 C2048 1.379 . S
C2053 N2051 1.356 . S
N2054 C2046 1.356 . S
N2054 H2060 0.984 . S
N2054 H2061 0.984 . S
N2055 C2048 1.356 . S
N2055 H2058 0.984 . S
N2055 H2059 0.985 . S
H2056 N2051 0.984 . S
H2057 N2051 0.985 . S
H2058 N2055 0.984 . S
H2059 N2055 0.985 . S
H2060 N2054 0.984 . S
H2061 N2054 0.984 . S
H2062 N2050 0.984 . S
H2063 N2050 0.985 . S
C2064 C2065 1.363 . S
C2064 C2070 1.379 . S
C2064 N2072 1.356 . S
C2065 C2064 1.363 . S
C2065 C2071 1.363 . S
C2066 C2067 1.363 . S
C2066 C2071 1.379 . S
C2066 N2073 1.356 . S
C2067 C2066 1.363 . S
C2067 C2070 1.363 . S
N2068 C2070 1.356 . S
N2068 H2080 0.984 . S
N2068 H2081 0.985 . S
N2069 C2071 1.356 . S
N2069 H2074 0.984 . S
N2069 H2075 0.985 . S
C2070 C2064 1.379 . S
C2070 C2067 1.363 . S
C2070 N2068 1.356 . S
C2071 C2065 1.363 . S
C2071 C2066 1.379 . S
C2071 N2069 1.356 . S
N2072 C2064 1.356 . S
N2072 H2078 0.984 . S
N2072 H2079 0.984 . S
N2073 C2066 1.356 . S
N2073 H2076 0.984 . S
N2073 H2077 0.985 . S
H2074 N2069 0.984 . S
H2075 N2069 0.985 . S
H2076 N2073 0.984 . S
H2077 N2073 0.985 . S
H2078 N2072 0.984 . S
H2079 N2072 0.984 . S
H2080 N2068 0.984 . S
H2081 N2068 0.985 . S
C2082 C2083 1.363 . S
C2082 C2088 1.379 . S
C2082 N2090 1.356 . S
C2083 C2082 1.363 . S
C2083 C2089 1.363 . S
C2084 C2085 1.363 . S
C2084 C2089 1.379 . S
C2084 N2091 1.356 . S
C2085 C2084 1.363 . S
C2085 C2088 1.363 . S
N2086 C2088 1.356 . S
N2086 H2098 0.984 . S
N2086 H2099 0.985 . S
N2087 C2089 1.356 . S
N2087 H2092 0.984 . S
N2087 H2093 0.985 . S
C2088 C2082 1.379 . S
C2088 C2085 1.363 . S
C2088 N2086 1.356 . S
C2089 C2083 1.363 . S
C2089 C2084 1.379 . S
C2089 N2087 1.356 . S
N2090 C2082 1.356 . S
N2090 H2096 0.984 . S
N2090 H2097 0.984 . S
N2091 C2084 1.356 . S
N2091 H2094 0.984 . S
N2091 H2095 0.985 . S
H2092 N2087 0.984 . S
H2093 N2087 0.985 . S
H2094 N2091 0.984 . S
H2095 N2091 0.985 . S
H2096 N2090 0.984 . S
H2097 N2090 0.984 . S
H2098 N2086 0.984 . S
H2099 N2086 0.985 . S
C2100 C2101 1.363 . S
C2100 C2106 1.379 . S
C2100 N2108 1.356 . S
C2101 C2100 1.363 . S
C2101 C2107 1.363 . S
C2102 C2103 1.363 . S
C2102 C2107 1.379 . S
C2102 N2109 1.356 . S
C2103 C2102 1.363 . S
C2103 C2106 1.363 . S
N2104 C2106 1.356 . S
N2104 H2116 0.984 . S
N2104 H2117 0.985 . S
N2105 C2107 1.356 . S
N2105 H2110 0.984 . S
N2105 H2111 0.985 . S
C2106 C2100 1.379 . S
C2106 C2103 1.363 . S
C2106 N2104 1.356 . S
C2107 C2101 1.363 . S
C2107 C2102 1.379 . S
C2107 N2105 1.356 . S
N2108 C2100 1.356 . S
N2108 H2114 0.984 . S
N2108 H2115 0.984 . S
N2109 C2102 1.356 . S
N2109 H2112 0.984 . S
N2109 H2113 0.985 . S
H2110 N2105 0.984 . S
H2111 N2105 0.985 . S
H2112 N2109 0.984 . S
H2113 N2109 0.985 . S
H2114 N2108 0.984 . S
H2115 N2108 0.984 . S
H2116 N2104 0.984 . S
H2117 N2104 0.985 . S
C2118 C2119 1.363 . S
C2118 C2124 1.379 . S
C2118 N2126 1.356 . S
C2119 C2118 1.363 . S
C2119 C2125 1.363 . S
C2120 C2121 1.363 . S
C2120 C2125 1.379 . S
C2120 N2127 1.356 . S
C2121 C2120 1.363 . S
C2121 C2124 1.363 . S
N2122 C2124 1.356 . S
N2122 H2134 0.984 . S
N2122 H2135 0.985 . S
N2123 C2125 1.356 . S
N2123 H2128 0.984 . S
N2123 H2129 0.985 . S
C2124 C2118 1.379 . S
C2124 C2121 1.363 . S
C2124 N2122 1.356 . S
C2125 C2119 1.363 . S
C2125 C2120 1.379 . S
C2125 N2123 1.356 . S
N2126 C2118 1.356 . S
N2126 H2132 0.984 . S
N2126 H2133 0.984 . S
N2127 C2120 1.356 . S
N2127 H2130 0.984 . S
N2127 H2131 0.985 . S
H2128 N2123 0.984 . S
H2129 N2123 0.985 . S
H2130 N2127 0.984 . S
H2131 N2127 0.985 . S
H2132 N2126 0.984 . S
H2133 N2126 0.984 . S
H2134 N2122 0.984 . S
H2135 N2122 0.985 . S
C2136 C2137 1.363 . S
C2136 C2142 1.379 . S
C2136 N2144 1.356 . S
C2137 C2136 1.363 . S
C2137 C2143 1.363 . S
C2138 C2139 1.363 . S
C2138 C2143 1.379 . S
C2138 N2145 1.356 . S
C2139 C2138 1.363 . S
C2139 C2142 1.363 . S
N2140 C2142 1.356 . S
N2140 H2152 0.984 . S
N2140 H2153 0.985 . S
N2141 C2143 1.356 . S
N2141 H2146 0.984 . S
N2141 H2147 0.985 . S
C2142 C2136 1.379 . S
C2142 C2139 1.363 . S
C2142 N2140 1.356 . S
C2143 C2137 1.363 . S
C2143 C2138 1.379 . S
C2143 N2141 1.356 . S
N2144 C2136 1.356 . S
N2144 H2150 0.984 . S
N2144 H2151 0.984 . S
N2145 C2138 1.356 . S
N2145 H2148 0.984 . S
N2145 H2149 0.985 . S
H2146 N2141 0.984 . S
H2147 N2141 0.985 . S
H2148 N2145 0.984 . S
H2149 N2145 0.985 . S
H2150 N2144 0.984 . S
H2151 N2144 0.984 . S
H2152 N2140 0.984 . S
H2153 N2140 0.985 . S
C2154 C2155 1.363 . S
C2154 C2160 1.379 . S
C2154 N2162 1.356 . S
C2155 C2154 1.363 . S
C2155 C2161 1.363 . S
C2156 C2157 1.363 . S
C2156 C2161 1.379 . S
C2156 N2163 1.356 . S
C2157 C2156 1.363 . S
C2157 C2160 1.363 . S
N2158 C2160 1.356 . S
N2158 H2170 0.984 . S
N2158 H2171 0.985 . S
N2159 C2161 1.356 . S
N2159 H2164 0.984 . S
N2159 H2165 0.985 . S
C2160 C2154 1.379 . S
C2160 C2157 1.363 . S
C2160 N2158 1.356 . S
C2161 C2155 1.363 . S
C2161 C2156 1.379 . S
C2161 N2159 1.356 . S
N2162 C2154 1.356 . S
N2162 H2168 0.984 . S
N2162 H2169 0.984 . S
N2163 C2156 1.356 . S
N2163 H2166 0.984 . S
N2163 H2167 0.985 . S
H2164 N2159 0.984 . S
H2165 N2159 0.985 . S
H2166 N2163 0.984 . S
H2167 N2163 0.985 . S
H2168 N2162 0.984 . S
H2169 N2162 0.984 . S
H2170 N2158 0.984 . S
H2171 N2158 0.985 . S
C2172 C2173 1.363 . S
C2172 C2178 1.379 . S
C2172 N2180 1.356 . S
C2173 C2172 1.363 . S
C2173 C2179 1.363 . S
C2174 C2175 1.363 . S
C2174 C2179 1.379 . S
C2174 N2181 1.356 . S
C2175 C2174 1.363 . S
C2175 C2178 1.363 . S
N2176 C2178 1.356 . S
N2176 H2188 0.984 . S
N2176 H2189 0.985 . S
N2177 C2179 1.356 . S
N2177 H2182 0.984 . S
N2177 H2183 0.985 . S
C2178 C2172 1.379 . S
C2178 C2175 1.363 . S
C2178 N2176 1.356 . S
C2179 C2173 1.363 . S
C2179 C2174 1.379 . S
C2179 N2177 1.356 . S
N2180 C2172 1.356 . S
N2180 H2186 0.984 . S
N2180 H2187 0.984 . S
N2181 C2174 1.356 . S
N2181 H2184 0.984 . S
N2181 H2185 0.985 . S
H2182 N2177 0.984 . S
H2183 N2177 0.985 . S
H2184 N2181 0.984 . S
H2185 N2181 0.985 . S
H2186 N2180 0.984 . S
H2187 N2180 0.984 . S
H2188 N2176 0.984 . S
H2189 N2176 0.985 . S
C2190 C2191 1.363 . S
C2190 C2196 1.379 . S
C2190 N2198 1.356 . S
C2191 C2190 1.363 . S
C2191 C2197 1.363 . S
C2192 C2193 1.363 . S
C2192 C2197 1.379 . S
C2192 N2199 1.356 . S
C2193 C2192 1.363 . S
C2193 C2196 1.363 . S
N2194 C2196 1.356 . S
N2194 H2206 0.984 . S
N2194 H2207 0.985 . S
N2195 C2197 1.356 . S
N2195 H2200 0.984 . S
N2195 H2201 0.985 . S
C2196 C2190 1.379 . S
C2196 C2193 1.363 . S
C2196 N2194 1.356 . S
C2197 C2191 1.363 . S
C2197 C2192 1.379 . S
C2197 N2195 1.356 . S
N2198 C2190 1.356 . S
N2198 H2204 0.984 . S
N2198 H2205 0.984 . S
N2199 C2192 1.356 . S
N2199 H2202 0.984 . S
N2199 H2203 0.985 . S
H2200 N2195 0.984 . S
H2201 N2195 0.985 . S
H2202 N2199 0.984 . S
H2203 N2199 0.985 . S
H2204 N2198 0.984 . S
H2205 N2198 0.984 . S
H2206 N2194 0.984 . S
H2207 N2194 0.985 . S
C2208 C2209 1.363 . S
C2208 C2214 1.379 . S
C2208 N2216 1.356 . S
C2209 C2208 1.363 . S
C2209 C2215 1.363 . S
C2210 C2211 1.363 . S
C2210 C2215 1.379 . S
C2210 N2217 1.356 . S
C2211 C2210 1.363 . S
C2211 C2214 1.363 . S
N2212 C2214 1.356 . S
N2212 H2224 0.984 . S
N2212 H2225 0.985 . S
N2213 C2215 1.356 . S
N2213 H2218 0.984 . S
N2213 H2219 0.985 . S
C2214 C2208 1.379 . S
C2214 C2211 1.363 . S
C2214 N2212 1.356 . S
C2215 C2209 1.363 . S
C2215 C2210 1.379 . S
C2215 N2213 1.356 . S
N2216 C2208 1.356 . S
N2216 H2222 0.984 . S
N2216 H2223 0.984 . S
N2217 C2210 1.356 . S
N2217 H2220 0.984 . S
N2217 H2221 0.985 . S
H2218 N2213 0.984 . S
H2219 N2213 0.985 . S
H2220 N2217 0.984 . S
H2221 N2217 0.985 . S
H2222 N2216 0.984 . S
H2223 N2216 0.984 . S
H2224 N2212 0.984 . S
H2225 N2212 0.985 . S
C2226 C2227 1.363 1_455 S
C2226 C2232 1.379 . S
C2226 N2234 1.356 . S
C2227 C2226 1.363 1_655 S
C2227 C2233 1.363 . S
C2228 C2229 1.363 1_655 S
C2228 C2233 1.379 . S
C2228 N2235 1.356 . S
C2229 C2228 1.363 1_455 S
C2229 C2232 1.363 . S
N2230 C2232 1.356 . S
N2230 H2242 0.984 . S
N2230 H2243 0.985 . S
N2231 C2233 1.356 . S
N2231 H2236 0.984 . S
N2231 H2237 0.985 . S
C2232 C2226 1.379 . S
C2232 C2229 1.363 . S
C2232 N2230 1.356 . S
C2233 C2227 1.363 . S
C2233 C2228 1.379 . S
C2233 N2231 1.356 . S
N2234 C2226 1.356 . S
N2234 H2240 0.984 . S
N2234 H2241 0.984 . S
N2235 C2228 1.356 . S
N2235 H2238 0.984 . S
N2235 H2239 0.985 . S
H2236 N2231 0.984 . S
H2237 N2231 0.985 . S
H2238 N2235 0.984 . S
H2239 N2235 0.985 . S
H2240 N2234 0.984 . S
H2241 N2234 0.984 . S
H2242 N2230 0.984 . S
H2243 N2230 0.985 . S
C2244 C2245 1.363 . S
C2244 C2250 1.379 1_455 S
C2244 N2252 1.356 . S
C2245 C2244 1.363 . S
C2245 C2251 1.363 . S
C2246 C2247 1.363 . S
C2246 C2251 1.379 1_655 S
C2246 N2253 1.356 . S
C2247 C2246 1.363 . S
C2247 C2250 1.363 . S
N2248 C2250 1.356 . S
N2248 H2260 0.984 . S
N2248 H2261 0.985 . S
N2249 C2251 1.356 . S
N2249 H2254 0.984 . S
N2249 H2255 0.985 . S
C2250 C2244 1.379 1_655 S
C2250 C2247 1.363 . S
C2250 N2248 1.356 . S
C2251 C2245 1.363 . S
C2251 C2246 1.379 1_455 S
C2251 N2249 1.356 . S
N2252 C2244 1.356 . S
N2252 H2258 0.984 . S
N2252 H2259 0.984 . S
N2253 C2246 1.356 . S
N2253 H2256 0.984 . S
N2253 H2257 0.985 . S
H2254 N2249 0.984 . S
H2255 N2249 0.985 . S
H2256 N2253 0.984 . S
H2257 N2253 0.985 . S
H2258 N2252 0.984 . S
H2259 N2252 0.984 . S
H2260 N2248 0.984 . S
H2261 N2248 0.985 . S
C2262 C2263 1.363 . S
C2262 C2268 1.379 . S
C2262 N2270 1.356 . S
C2263 C2262 1.363 . S
C2263 C2269 1.363 . S
C2264 C2265 1.363 . S
C2264 C2269 1.379 . S
C2264 N2271 1.356 . S
C2265 C2264 1.363 . S
C2265 C2268 1.363 . S
N2266 C2268 1.356 . S
N2266 H2278 0.984 . S
N2266 H2279 0.985 . S
N2267 C2269 1.356 . S
N2267 H2272 0.984 . S
N2267 H2273 0.985 . S
C2268 C2262 1.379 . S
C2268 C2265 1.363 . S
C2268 N2266 1.356 . S
C2269 C2263 1.363 . S
C2269 C2264 1.379 . S
C2269 N2267 1.356 . S
N2270 C2262 1.356 . S
N2270 H2276 0.984 . S
N2270 H2277 0.984 . S
N2271 C2264 1.356 . S
N2271 H2274 0.984 . S
N2271 H2275 0.985 . S
H2272 N2267 0.984 . S
H2273 N2267 0.985 . S
H2274 N2271 0.984 . S
H2275 N2271 0.985 . S
H2276 N2270 0.984 . S
H2277 N2270 0.984 . S
H2278 N2266 0.984 . S
H2279 N2266 0.985 . S
C2280 C2281 1.363 . S
C2280 C2286 1.379 . S
C2280 N2288 1.356 . S
C2281 C2280 1.363 . S
C2281 C2287 1.363 . S
C2282 C2283 1.363 . S
C2282 C2287 1.379 . S
C2282 N2289 1.356 . S
C2283 C2282 1.363 . S
C2283 C2286 1.363 . S
N2284 C2286 1.356 . S
N2284 H2296 0.984 . S
N2284 H2297 0.985 . S
N2285 C2287 1.356 . S
N2285 H2290 0.984 . S
N2285 H2291 0.985 . S
C2286 C2280 1.379 . S
C2286 C2283 1.363 . S
C2286 N2284 1.356 . S
C2287 C2281 1.363 . S
C2287 C2282 1.379 . S
C2287 N2285 1.356 . S
N2288 C2280 1.356 . S
N2288 H2294 0.984 . S
N2288 H2295 0.984 . S
N2289 C2282 1.356 . S
N2289 H2292 0.984 . S
N2289 H2293 0.985 . S
H2290 N2285 0.984 . S
H2291 N2285 0.985 . S
H2292 N2289 0.984 . S
H2293 N2289 0.985 . S
H2294 N2288 0.984 . S
H2295 N2288 0.984 . S
H2296 N2284 0.984 . S
H2297 N2284 0.985 . S
C2298 C2299 1.363 . S
C2298 C2304 1.379 . S
C2298 N2306 1.356 . S
C2299 C2298 1.363 . S
C2299 C2305 1.363 . S
C2300 C2301 1.363 . S
C2300 C2305 1.379 . S
C2300 N2307 1.356 . S
C2301 C2300 1.363 . S
C2301 C2304 1.363 . S
N2302 C2304 1.356 . S
N2302 H2314 0.984 . S
N2302 H2315 0.985 . S
N2303 C2305 1.356 . S
N2303 H2308 0.984 . S
N2303 H2309 0.985 . S
C2304 C2298 1.379 . S
C2304 C2301 1.363 . S
C2304 N2302 1.356 . S
C2305 C2299 1.363 . S
C2305 C2300 1.379 . S
C2305 N2303 1.356 . S
N2306 C2298 1.356 . S
N2306 H2312 0.984 . S
N2306 H2313 0.984 . S
N2307 C2300 1.356 . S
N2307 H2310 0.984 . S
N2307 H2311 0.985 . S
H2308 N2303 0.984 . S
H2309 N2303 0.985 . S
H2310 N2307 0.984 . S
H2311 N2307 0.985 . S
H2312 N2306 0.984 . S
H2313 N2306 0.984 . S
H2314 N2302 0.984 . S
H2315 N2302 0.985 . S
C2316 C2317 1.363 . S
C2316 C2322 1.379 1_655 S
C2316 N2324 1.356 . S
C2317 C2316 1.363 . S
C2317 C2323 1.363 . S
C2318 C2319 1.363 . S
C2318 C2323 1.379 1_455 S
C2318 N2325 1.356 . S
C2319 C2318 1.363 . S
C2319 C2322 1.363 . S
N2320 C2322 1.356 . S
N2320 H2332 0.984 . S
N2320 H2333 0.985 . S
N2321 C2323 1.356 . S
N2321 H2326 0.984 . S
N2321 H2327 0.985 . S
C2322 C2316 1.379 1_455 S
C2322 C2319 1.363 . S
C2322 N2320 1.356 . S
C2323 C2317 1.363 . S
C2323 C2318 1.379 1_655 S
C2323 N2321 1.356 . S
N2324 C2316 1.356 . S
N2324 H2330 0.984 . S
N2324 H2331 0.984 . S
N2325 C2318 1.356 . S
N2325 H2328 0.984 . S
N2325 H2329 0.985 . S
H2326 N2321 0.984 . S
H2327 N2321 0.985 . S
H2328 N2325 0.984 . S
H2329 N2325 0.985 . S
H2330 N2324 0.984 . S
H2331 N2324 0.984 . S
H2332 N2320 0.984 . S
H2333 N2320 0.985 . S
C2334 C2335 1.363 . S
C2334 C2340 1.379 . S
C2334 N2342 1.356 . S
C2335 C2334 1.363 . S
C2335 C2341 1.363 1_655 S
C2336 C2337 1.363 . S
C2336 C2341 1.379 . S
C2336 N2343 1.356 . S
C2337 C2336 1.363 . S
C2337 C2340 1.363 1_455 S
N2338 C2340 1.356 . S
N2338 H2350 0.984 . S
N2338 H2351 0.985 . S
N2339 C2341 1.356 . S
N2339 H2344 0.984 . S
N2339 H2345 0.985 . S
C2340 C2334 1.379 . S
C2340 C2337 1.363 1_655 S
C2340 N2338 1.356 . S
C2341 C2335 1.363 1_455 S
C2341 C2336 1.379 . S
C2341 N2339 1.356 . S
N2342 C2334 1.356 . S
N2342 H2348 0.984 . S
N2342 H2349 0.984 . S
N2343 C2336 1.356 . S
N2343 H2346 0.984 . S
N2343 H2347 0.985 . S
H2344 N2339 0.984 . S
H2345 N2339 0.985 . S
H2346 N2343 0.984 . S
H2347 N2343 0.985 . S
H2348 N2342 0.984 . S
H2349 N2342 0.984 . S
H2350 N2338 0.984 . S
H2351 N2338 0.985 . S
C2352 C2353 1.363 . S
C2352 C2358 1.379 . S
C2352 N2360 1.356 . S
C2353 C2352 1.363 . S
C2353 C2359 1.363 . S
C2354 C2355 1.363 . S
C2354 C2359 1.379 . S
C2354 N2361 1.356 . S
C2355 C2354 1.363 . S
C2355 C2358 1.363 . S
N2356 C2358 1.356 . S
N2356 H2368 0.984 . S
N2356 H2369 0.985 . S
N2357 C2359 1.356 . S
N2357 H2362 0.984 . S
N2357 H2363 0.985 . S
C2358 C2352 1.379 . S
C2358 C2355 1.363 . S
C2358 N2356 1.356 . S
C2359 C2353 1.363 . S
C2359 C2354 1.379 . S
C2359 N2357 1.356 . S
N2360 C2352 1.356 . S
N2360 H2366 0.984 . S
N2360 H2367 0.984 . S
N2361 C2354 1.356 . S
N2361 H2364 0.984 . S
N2361 H2365 0.985 . S
H2362 N2357 0.984 . S
H2363 N2357 0.985 . S
H2364 N2361 0.984 . S
H2365 N2361 0.985 . S
H2366 N2360 0.984 . S
H2367 N2360 0.984 . S
H2368 N2356 0.984 . S
H2369 N2356 0.985 . S
C2370 C2371 1.363 . S
C2370 C2376 1.379 . S
C2370 N2378 1.356 . S
C2371 C2370 1.363 . S
C2371 C2377 1.363 1_455 S
C2372 C2373 1.363 . S
C2372 C2377 1.379 . S
C2372 N2379 1.356 . S
C2373 C2372 1.363 . S
C2373 C2376 1.363 1_655 S
N2374 C2376 1.356 . S
N2374 H2386 0.984 . S
N2374 H2387 0.985 . S
N2375 C2377 1.356 . S
N2375 H2380 0.984 . S
N2375 H2381 0.985 . S
C2376 C2370 1.379 . S
C2376 C2373 1.363 1_455 S
C2376 N2374 1.356 . S
C2377 C2371 1.363 1_655 S
C2377 C2372 1.379 . S
C2377 N2375 1.356 . S
N2378 C2370 1.356 . S
N2378 H2384 0.984 . S
N2378 H2385 0.984 . S
N2379 C2372 1.356 . S
N2379 H2382 0.984 . S
N2379 H2383 0.985 . S
H2380 N2375 0.984 . S
H2381 N2375 0.985 . S
H2382 N2379 0.984 . S
H2383 N2379 0.985 . S
H2384 N2378 0.984 . S
H2385 N2378 0.984 . S
H2386 N2374 0.984 . S
H2387 N2374 0.985 . S
C2388 C2389 1.363 . S
C2388 C2394 1.379 1_655 S
C2388 N2396 1.356 . S
C2389 C2388 1.363 . S
C2389 C2395 1.363 . S
C2390 C2391 1.363 . S
C2390 C2395 1.379 1_455 S
C2390 N2397 1.356 . S
C2391 C2390 1.363 . S
C2391 C2394 1.363 . S
N2392 C2394 1.356 . S
N2392 H2404 0.984 . S
N2392 H2405 0.985 . S
N2393 C2395 1.356 . S
N2393 H2398 0.984 . S
N2393 H2399 0.985 . S
C2394 C2388 1.379 1_455 S
C2394 C2391 1.363 . S
C2394 N2392 1.356 . S
C2395 C2389 1.363 . S
C2395 C2390 1.379 1_655 S
C2395 N2393 1.356 . S
N2396 C2388 1.356 . S
N2396 H2402 0.984 . S
N2396 H2403 0.984 . S
N2397 C2390 1.356 . S
N2397 H2400 0.984 . S
N2397 H2401 0.985 . S
H2398 N2393 0.984 . S
H2399 N2393 0.985 . S
H2400 N2397 0.984 . S
H2401 N2397 0.985 . S
H2402 N2396 0.984 . S
H2403 N2396 0.984 . S
H2404 N2392 0.984 . S
H2405 N2392 0.985 . S
C2406 C2407 1.363 . S
C2406 C2412 1.379 . S
C2406 N2414 1.356 . S
C2407 C2406 1.363 . S
C2407 C2413 1.363 . S
C2408 C2409 1.363 . S
C2408 C2413 1.379 . S
C2408 N2415 1.356 . S
C2409 C2408 1.363 . S
C2409 C2412 1.363 . S
N2410 C2412 1.356 . S
N2410 H2422 0.984 . S
N2410 H2423 0.985 . S
N2411 C2413 1.356 . S
N2411 H2416 0.984 . S
N2411 H2417 0.985 . S
C2412 C2406 1.379 . S
C2412 C2409 1.363 . S
C2412 N2410 1.356 . S
C2413 C2407 1.363 . S
C2413 C2408 1.379 . S
C2413 N2411 1.356 . S
N2414 C2406 1.356 . S
N2414 H2420 0.984 . S
N2414 H2421 0.984 . S
N2415 C2408 1.356 . S
N2415 H2418 0.984 . S
N2415 H2419 0.985 . S
H2416 N2411 0.984 . S
H2417 N2411 0.985 . S
H2418 N2415 0.984 . S
H2419 N2415 0.985 . S
H2420 N2414 0.984 . S
H2421 N2414 0.984 . S
H2422 N2410 0.984 . S
H2423 N2410 0.985 . S
C2424 C2425 1.363 . S
C2424 C2430 1.379 . S
C2424 N2432 1.356 . S
C2425 C2424 1.363 . S
C2425 C2431 1.363 . S
C2426 C2427 1.363 . S
C2426 C2431 1.379 . S
C2426 N2433 1.356 . S
C2427 C2426 1.363 . S
C2427 C2430 1.363 . S
N2428 C2430 1.356 . S
N2428 H2440 0.984 . S
N2428 H2441 0.985 . S
N2429 C2431 1.356 . S
N2429 H2434 0.984 . S
N2429 H2435 0.985 . S
C2430 C2424 1.379 . S
C2430 C2427 1.363 . S
C2430 N2428 1.356 . S
C2431 C2425 1.363 . S
C2431 C2426 1.379 . S
C2431 N2429 1.356 . S
N2432 C2424 1.356 . S
N2432 H2438 0.984 . S
N2432 H2439 0.984 . S
N2433 C2426 1.356 . S
N2433 H2436 0.984 . S
N2433 H2437 0.985 . S
H2434 N2429 0.984 . S
H2435 N2429 0.985 . S
H2436 N2433 0.984 . S
H2437 N2433 0.985 . S
H2438 N2432 0.984 . S
H2439 N2432 0.984 . S
H2440 N2428 0.984 . S
H2441 N2428 0.985 . S
C2442 C2443 1.363 . S
C2442 C2448 1.379 . S
C2442 N2450 1.356 . S
C2443 C2442 1.363 . S
C2443 C2449 1.363 . S
C2444 C2445 1.363 . S
C2444 C2449 1.379 . S
C2444 N2451 1.356 . S
C2445 C2444 1.363 . S
C2445 C2448 1.363 . S
N2446 C2448 1.356 . S
N2446 H2458 0.984 . S
N2446 H2459 0.985 . S
N2447 C2449 1.356 . S
N2447 H2452 0.984 . S
N2447 H2453 0.985 . S
C2448 C2442 1.379 . S
C2448 C2445 1.363 . S
C2448 N2446 1.356 . S
C2449 C2443 1.363 . S
C2449 C2444 1.379 . S
C2449 N2447 1.356 . S
N2450 C2442 1.356 . S
N2450 H2456 0.984 . S
N2450 H2457 0.984 . S
N2451 C2444 1.356 . S
N2451 H2454 0.984 . S
N2451 H2455 0.985 . S
H2452 N2447 0.984 . S
H2453 N2447 0.985 . S
H2454 N2451 0.984 . S
H2455 N2451 0.985 . S
H2456 N2450 0.984 . S
H2457 N2450 0.984 . S
H2458 N2446 0.984 . S
H2459 N2446 0.985 . S
C2460 C2461 1.363 . S
C2460 C2466 1.379 1_455 S
C2460 N2468 1.356 . S
C2461 C2460 1.363 . S
C2461 C2467 1.363 . S
C2462 C2463 1.363 . S
C2462 C2467 1.379 1_655 S
C2462 N2469 1.356 . S
C2463 C2462 1.363 . S
C2463 C2466 1.363 . S
N2464 C2466 1.356 . S
N2464 H2476 0.984 . S
N2464 H2477 0.985 . S
N2465 C2467 1.356 . S
N2465 H2470 0.984 . S
N2465 H2471 0.985 . S
C2466 C2460 1.379 1_655 S
C2466 C2463 1.363 . S
C2466 N2464 1.356 . S
C2467 C2461 1.363 . S
C2467 C2462 1.379 1_455 S
C2467 N2465 1.356 . S
N2468 C2460 1.356 . S
N2468 H2474 0.984 . S
N2468 H2475 0.984 . S
N2469 C2462 1.356 . S
N2469 H2472 0.984 . S
N2469 H2473 0.985 . S
H2470 N2465 0.984 . S
H2471 N2465 0.985 . S
H2472 N2469 0.984 . S
H2473 N2469 0.985 . S
H2474 N2468 0.984 . S
H2475 N2468 0.984 . S
H2476 N2464 0.984 . S
H2477 N2464 0.985 . S
C2478 C2479 1.363 1_655 S
C2478 C2484 1.379 . S
C2478 N2486 1.356 . S
C2479 C2478 1.363 1_455 S
C2479 C2485 1.363 . S
C2480 C2481 1.363 1_455 S
C2480 C2485 1.379 . S
C2480 N2487 1.356 . S
C2481 C2480 1.363 1_655 S
C2481 C2484 1.363 . S
N2482 C2484 1.356 . S
N2482 H2494 0.984 . S
N2482 H2495 0.985 . S
N2483 C2485 1.356 . S
N2483 H2488 0.984 . S
N2483 H2489 0.985 . S
C2484 C2478 1.379 . S
C2484 C2481 1.363 . S
C2484 N2482 1.356 . S
C2485 C2479 1.363 . S
C2485 C2480 1.379 . S
C2485 N2483 1.356 . S
N2486 C2478 1.356 . S
N2486 H2492 0.984 . S
N2486 H2493 0.984 . S
N2487 C2480 1.356 . S
N2487 H2490 0.984 . S
N2487 H2491 0.985 . S
H2488 N2483 0.984 . S
H2489 N2483 0.985 . S
H2490 N2487 0.984 . S
H2491 N2487 0.985 . S
H2492 N2486 0.984 . S
H2493 N2486 0.984 . S
H2494 N2482 0.984 . S
H2495 N2482 0.985 . S
C1057 C18 1.510 . S
C1059 C249 1.510 . S
C1075 C51 1.510 . S
C1077 C150 1.510 . S
C1093 C84 1.510 . S
C1095 C183 1.510 . S
C1111 C117 1.510 . S
C1113 C216 1.510 . S
C1129 C513 1.510 . S
C1131 C282 1.510 . S
C1147 C315 1.510 . S
C1149 C414 1.510 . S
C1165 C447 1.510 . S
C1167 C348 1.510 . S
C1183 C381 1.510 . S
C1185 C480 1.510 . S
C1201 C546 1.510 . S
C1203 C777 1.510 . S
C1219 C678 1.510 . S
C1221 C579 1.510 . S
C1237 C612 1.510 . S
C1239 C711 1.510 . S
C1255 C645 1.510 . S
C1257 C744 1.510 . S
C1273 C810 1.510 . S
C1275 C1041 1.510 . S
C1291 C843 1.510 . S
C1293 C942 1.510 . S
C1309 C975 1.510 . S
C1311 C876 1.510 . S
C1327 C1008 1.510 . S
C1329 C909 1.510 . S
C1345 C205 1.621 . S
C1347 C7 1.621 . S
C1363 C40 1.621 . S
C1365 C238 1.621 . S
C1381 C73 1.621 . S
C1383 C139 1.621 . S
C1399 C106 1.621 . S
C1401 C172 1.621 . S
C1417 C271 1.621 . S
C1419 C469 1.621 . S
C1435 C502 1.621 . S
C1437 C304 1.621 . S
C1453 C403 1.621 . S
C1455 C337 1.621 . S
C1471 C436 1.621 . S
C1473 C370 1.621 . S
C1489 C535 1.621 . S
C1491 C733 1.621 . S
C1507 C766 1.621 . S
C1509 C568 1.621 . S
C1525 C667 1.621 . S
C1527 C601 1.621 . S
C1543 C634 1.621 . S
C1545 C700 1.621 . S
C1561 C997 1.621 . S
C1563 C799 1.621 . S
C1579 C832 1.621 . S
C1581 C1030 1.621 . S
C1597 C931 1.621 . S
C1599 C865 1.621 . S
C1615 C964 1.621 . S
C1617 C898 1.621 . S
C1633 N926 1.350 . S
C1635 N13 1.353 . S
C1651 N431 1.350 . S
C1653 N46 1.349 . S
C1669 N992 1.350 . S
C1671 N79 1.353 . S
C1687 N112 1.349 . S
C1689 N497 1.350 . S
C1705 N794 1.350 . S
C1707 N145 1.353 . S
C1723 N299 1.350 . S
C1725 N178 1.349 . S
C1741 N860 1.350 . S
C1743 N211 1.353 . S
C1759 N244 1.349 . S
C1761 N365 1.350 . S
C1777 N277 1.353 . S
C1779 N662 1.350 . S
C1795 N310 1.349 . S
C1797 N167 1.350 . S
C1813 N343 1.353 . S
C1815 N728 1.350 . S
C1831 N233 1.350 . S
C1833 N376 1.349 . S
C1849 N530 1.350 . S
C1851 N409 1.353 . S
C1867 N442 1.349 . S
C1869 N35 1.350 . S
C1885 N475 1.353 . S
C1887 N596 1.350 . S
C1903 N508 1.349 . S
C1905 N101 1.350 . S
C1921 N398 1.350 . S
C1923 N541 1.349 . S
C1939 N574 1.349 . S
C1941 N959 1.350 . S
C1957 N464 1.350 . S
C1959 N607 1.349 . S
C1975 N640 1.349 . S
C1977 N1025 1.350 . S
C1993 N673 1.349 . S
C1995 N266 1.350 . S
C2011 N706 1.349 . S
C2013 N827 1.350 . S
C2029 N332 1.350 . S
C2031 N739 1.349 . S
C2047 N772 1.349 . S
C2049 N893 1.350 . S
C2065 N134 1.350 . S
C2067 N805 1.349 . S
C2083 N695 1.350 . S
C2085 N838 1.349 . S
C2101 N200 1.350 . S
C2103 N871 1.349 . S
C2119 N761 1.350 . S
C2121 N904 1.349 . S
C2137 N2 1.350 . S
C2139 N937 1.349 . S
C2155 N563 1.350 . S
C2157 N970 1.349 . S
C2173 N1003 1.349 . S
C2175 N68 1.350 . S
C2191 N629 1.350 . S
C2193 N1036 1.349 . S
C2209 C615 1.122 . S
C2211 C21 1.122 . S
C2227 C648 1.122 . S
C2229 C54 1.122 . S
C2245 C87 1.122 . S
C2247 C549 1.122 . S
C2263 C120 1.122 . S
C2265 C582 1.122 . S
C2281 C747 1.122 . S
C2283 C153 1.122 . S
C2299 C186 1.122 . S
C2301 C780 1.122 . S
C2317 C681 1.122 . S
C2319 C219 1.122 . S
C2335 C714 1.122 . S
C2337 C252 1.122 . S
C2353 C879 1.122 . S
C2355 C285 1.122 . S
C2371 C912 1.122 . S
C2373 C318 1.122 . S
C2389 C351 1.122 . S
C2391 C813 1.122 . S
C2407 C384 1.122 . S
C2409 C846 1.122 . S
C2425 C417 1.122 . S
C2427 C1011 1.122 . S
C2443 C450 1.122 . S
C2445 C1044 1.122 . S
C2461 C945 1.122 . S
C2463 C483 1.122 . S
C2479 C978 1.122 . S
C2481 C516 1.122 . S
