# Generated by pormake.
# Topology rob, (6)-cn, num edge types: 1
# Building blocks:
#     Node 0, Type 0, BuildingBlock: KUMBOL_clean_sbu_1, # of connection points: 6
#     Node 1, Type 0, BuildingBlock: KUMBOL_clean_sbu_1, # of connection points: 6
#     Node 2, Type 0, BuildingBlock: KUMBOL_clean_sbu_1, # of connection points: 6
#     Node 3, Type 0, BuildingBlock: KUMBOL_clean_sbu_1, # of connection points: 6
#     Edge 4, Type (0, 0), BuildingBlock: AJUNOK_clean_linker_0, # of connection points: 2
#     Edge 5, Type (0, 0), BuildingBlock: AJUNOK_clean_linker_0, # of connection points: 2
#     Edge 6, Type (0, 0), BuildingBlock: AJUNOK_clean_linker_0, # of connection points: 2
#     Edge 7, Type (0, 0), BuildingBlock: AJUNOK_clean_linker_0, # of connection points: 2
#     Edge 8, Type (0, 0), BuildingBlock: AJUNOK_clean_linker_0, # of connection points: 2
#     Edge 9, Type (0, 0), BuildingBlock: AJUNOK_clean_linker_0, # of connection points: 2
#     Edge 10, Type (0, 0), BuildingBlock: AJUNOK_clean_linker_0, # of connection points: 2
#     Edge 11, Type (0, 0), BuildingBlock: AJUNOK_clean_linker_0, # of connection points: 2
#     Edge 12, Type (0, 0), BuildingBlock: AJUNOK_clean_linker_0, # of connection points: 2
#     Edge 13, Type (0, 0), BuildingBlock: AJUNOK_clean_linker_0, # of connection points: 2
#     Edge 14, Type (0, 0), BuildingBlock: AJUNOK_clean_linker_0, # of connection points: 2
#     Edge 15, Type (0, 0), BuildingBlock: AJUNOK_clean_linker_0, # of connection points: 2
# Relax obj value: 0.026
# Max RMSD: 0.136
# Mean RMSD: 0.136
data_MOF--net-rob--node1-KUMBOL_clean_sbu_1--edge1-AJUNOK_clean_linker_0
_symmetry_space_group_name_H-M    P1
_symmetry_Int_Tables_number       1
_symmetry_cell_setting            triclinic
loop_
_symmetry_equiv_pos_as_xyz
'x, y, z'
_cell_length_a     15.100078
_cell_length_b     17.107032
_cell_length_c     26.915454
_cell_angle_alpha  109.50034
_cell_angle_beta   89.749338
_cell_angle_gamma 89.458524
loop_
_atom_site_label
_atom_site_type_symbol
_atom_site_fract_x
_atom_site_fract_y
_atom_site_fract_z
_atom_type_partial_charge
C0 C 0.06302 0.44929 0.07025 0.0
C1 C 0.90818 0.41939 0.05266 0.0
C2 C 0.99415 0.3935 0.05855 0.0
C3 C 0.89644 0.49694 0.04773 0.0
C4 C 0.05096 0.52896 0.0683 0.0
C5 C 0.96982 0.54928 0.05193 0.0
N6 N 0.1416 0.42555 0.084 0.0
C7 C 0.20606 0.48247 0.10512 0.0
C8 C 0.12134 0.58458 0.08147 0.0
C9 C 0.19888 0.56162 0.10125 0.0
Gd10 Gd 0.32796 0.13186 0.96594 0.0
Gd11 Gd 0.15961 0.28252 0.05882 0.0
N12 N 0.01113 0.31438 0.05431 0.0
C13 C 0.83799 0.36465 0.0485 0.0
C14 C 0.9439 0.25947 0.05008 0.0
C15 C 0.85601 0.28424 0.04787 0.0
H16 H 0.95708 0.19738 0.05004 0.0
H17 H 0.80267 0.24118 0.045 0.0
H18 H 0.52527 0.21826 0.96542 0.0
H19 H 0.26704 0.46422 0.11934 0.0
H20 H 0.68141 0.18687 0.97687 0.0
H21 H 0.7703 0.38333 0.04485 0.0
H22 H 0.83153 0.51247 0.03743 0.0
H23 H 0.22343 0.9491 0.92852 0.0
H24 H 0.11537 0.64595 0.07838 0.0
H25 H 0.25355 0.60424 0.11272 0.0
H26 H 0.67064 0.92046 0.99464 0.0
H27 H 0.96603 0.60526 0.04243 0.0
H28 H 0.39334 0.77723 0.96689 0.0
H29 H 0.24677 0.81153 0.93834 0.0
N30 N 0.34865 -0.00542 0.95954 0.0
C31 C 0.43066 0.97522 0.97089 0.0
C32 C 0.28519 0.93508 0.94341 0.0
C33 C 0.38132 0.83814 0.96407 0.0
C34 C 0.29873 0.85722 0.94828 0.0
C35 C 0.44894 0.89666 0.97313 0.0
H36 H 0.54252 0.8233 0.99366 0.0
N37 N 0.4767 0.10866 0.97605 0.0
C38 C 0.49736 0.03307 0.97784 0.0
C39 C 0.65272 0.06777 0.98371 0.0
C40 C 0.58564 0.01122 0.98256 0.0
C41 C 0.54132 0.16278 0.97386 0.0
C42 C 0.63035 0.1438 0.97851 0.0
O43 O 0.13237 0.24748 0.9708 0.0
O44 O 0.19448 0.11937 0.93214 0.0
O45 O 0.34889 0.17834 0.89991 0.0
O46 O 0.35812 0.04701 0.88807 0.0
O47 O 0.10308 0.1551 1.01878 0.0
O48 O 0.22686 0.07542 1.01077 0.0
O49 O 0.37881 0.19178 0.0505 0.0
O50 O 0.29149 0.30652 0.09601 0.0
O51 O 0.18032 0.21688 0.11511 0.0
O52 O 0.08061 0.31541 0.1296 0.0
O53 O 0.37771 0.26468 0.98758 0.0
O54 O 0.26571 0.35622 0.02862 0.0
C55 C 0.14661 0.18053 0.92933 0.0
C56 C 0.13957 0.0844 1.01627 0.0
C57 C 0.45717 0.09649 0.83799 0.0
C58 C 0.54944 0.11619 0.76778 0.0
C59 C 0.61026 0.04805 0.82649 0.0
C60 C 0.52821 0.05292 0.85061 0.0
C61 C 0.62142 0.08088 0.78632 0.0
C62 C 0.46753 0.12689 0.79544 0.0
C63 C 0.37212 0.10487 0.86757 0.0
C64 C 0.60358 0.93435 0.98706 0.0
C65 C 0.53388 0.87919 0.98487 0.0
H66 H 0.72167 0.0526 0.98745 0.0
C67 C 0.36077 0.2589 0.09194 0.0
C68 C 0.34654 0.34108 1.0072 0.0
C69 C 0.13279 0.29055 0.20439 0.0
C70 C 0.07922 0.30287 0.29273 0.0
C71 C 0.19851 0.39012 0.28143 0.0
C72 C 0.19385 0.35364 0.22679 0.0
C73 C 0.14052 0.36597 0.31403 0.0
C74 C 0.07571 0.2648 0.2376 0.0
C75 C 0.1181 0.26073 0.14707 0.0
H76 H 0.6652 0.01743 0.83844 0.0
H77 H 0.52092 0.02187 0.87912 0.0
H78 H 0.6868 0.07668 0.769 0.0
H79 H 0.41178 0.15606 0.78308 0.0
H80 H 0.2457 0.43871 0.29858 0.0
H81 H 0.23648 0.37581 0.20199 0.0
H82 H 0.14195 0.39763 0.35594 0.0
H83 H 0.0265 0.21785 0.22059 0.0
C84 C 0.5983 -0.01396 0.10508 0.0
C85 C 0.43931 0.97582 0.10197 0.0
C86 C 0.52361 0.93971 0.09994 0.0
C87 C 0.43343 0.05694 0.10112 0.0
C88 C 0.59329 0.06932 0.10913 0.0
C89 C 0.51142 0.10197 0.1026 0.0
N90 N 0.67687 0.9475 0.10203 0.0
C91 C 0.75262 -0.00728 0.11462 0.0
C92 C 0.67153 0.11438 0.11446 0.0
C93 C 0.7516 0.07687 0.11999 0.0
Gd94 Gd 0.80939 0.62863 0.9569 0.0
Gd95 Gd 0.6789 0.80221 0.06901 0.0
N96 N 0.53412 0.85757 0.08913 0.0
C97 C 0.36486 0.92691 0.10013 0.0
C98 C 0.46261 0.80996 0.09042 0.0
C99 C 0.37682 0.8439 0.09611 0.0
H100 H 0.47122 0.74591 0.08727 0.0
H101 H 0.32016 0.80552 0.09593 0.0
H102 H 0.01525 0.68938 0.93928 0.0
H103 H 0.81451 0.96283 0.11773 0.0
H104 H 0.16572 0.62994 0.92456 0.0
H105 H 0.29854 0.95242 0.1017 0.0
H106 H 0.36982 0.08264 0.09612 0.0
H107 H 0.67523 0.46447 0.91784 0.0
H108 H 0.67043 0.1779 0.11494 0.0
H109 H 0.81245 0.11169 0.12661 0.0
H110 H 0.12699 0.35736 0.9329 0.0
H111 H 0.51087 0.15912 0.09494 0.0
H112 H 0.82853 0.25853 0.92771 0.0
H113 H 0.68301 0.31977 0.91744 0.0
N114 N 0.81364 0.48412 0.93024 0.0
C115 C 0.89366 0.44861 0.92894 0.0
C116 C 0.73883 0.43727 0.92131 0.0
C117 C 0.82494 0.32088 0.92603 0.0
C118 C 0.74287 0.35547 0.92089 0.0
C119 C 0.90175 0.36659 0.92756 0.0
H120 H 0.98991 0.27839 0.93996 0.0
N121 N 0.95514 0.57804 0.94138 0.0
C122 C 0.96715 0.4966 0.93266 0.0
C123 C 0.12474 0.50998 0.92542 0.0
C124 C 0.05227 0.46186 0.92881 0.0
C125 C 0.02499 0.62588 0.93727 0.0
C126 C 0.11073 0.59223 0.92847 0.0
O127 O 0.68552 0.77973 0.97836 0.0
O128 O 0.67286 0.64445 0.93433 0.0
O129 O 0.8436 0.70391 0.90756 0.0
O130 O 0.78278 0.5835 0.87343 0.0
O131 O 0.59451 0.68589 0.02876 0.0
O132 O 0.69793 0.58019 0.9993 0.0
O133 O 0.81966 0.64878 0.04618 0.0
O134 O 0.81698 0.78633 0.08997 0.0
O135 O 0.64136 0.72341 0.11536 0.0
O136 O 0.72059 0.83263 0.15006 0.0
O137 O 0.89049 0.74751 0.99328 0.0
O138 O 0.79139 0.85556 0.03106 0.0
C139 C 0.64969 0.71913 0.93957 0.0
C140 C 0.6159 0.60592 1.01544 0.0
C141 C 0.90022 0.61362 0.82388 0.0
C142 C 0.01356 0.63688 0.76357 0.0
C143 C 0.99071 0.49859 0.76887 0.0
C144 C 0.92503 0.52915 0.80672 0.0
C145 C 0.03392 0.55121 0.74738 0.0
C146 C 0.94493 0.66758 0.80197 0.0
C147 C 0.82745 0.64244 0.86414 0.0
C148 C 0.06156 0.38179 0.93074 0.0
C149 C 0.98559 0.33582 0.93249 0.0
H150 H 0.19097 0.48369 0.91942 0.0
C151 C 0.84554 0.71339 0.08597 0.0
C152 C 0.87009 0.82769 1.00977 0.0
C153 C 0.59705 0.81749 0.19966 0.0
C154 C 0.47572 0.80885 0.25875 0.0
C155 C 0.50989 0.94051 0.24691 0.0
C156 C 0.57919 0.90316 0.21325 0.0
C157 C 0.45852 0.89414 0.26924 0.0
C158 C 0.54531 0.77036 0.22305 0.0
C159 C 0.66656 0.77971 0.15908 0.0
H160 H 0.00771 0.43316 0.75561 0.0
H161 H 0.89328 0.48558 0.82224 0.0
H162 H 0.08236 0.52325 0.71672 0.0
H163 H 0.92624 0.73236 0.81507 0.0
H164 H 0.49696 0.00631 0.25655 0.0
H165 H 0.61827 0.94216 0.1975 0.0
H166 H 0.40832 0.92727 0.29735 0.0
H167 H 0.55955 0.70485 0.21392 0.0
C168 C 0.09593 0.50117 0.475 0.0
C169 C 0.94187 0.53589 0.50028 0.0
C170 C 0.02731 0.56009 0.49167 0.0
C171 C 0.92875 0.45437 0.49746 0.0
C172 C 0.08258 0.41945 0.47232 0.0
C173 C 0.00069 0.39807 0.48624 0.0
N174 N 0.17543 0.5237 0.46155 0.0
C175 C 0.24249 0.46676 0.44258 0.0
C176 C 0.15247 0.36167 0.45721 0.0
C177 C 0.23293 0.38539 0.44177 0.0
Gd178 Gd 0.31133 0.82067 0.57086 0.0
Gd179 Gd 0.18009 0.66198 0.46926 0.0
N180 N 0.04435 0.64088 0.50033 0.0
C181 C 0.87371 0.59556 0.51518 0.0
C182 C 0.97909 0.69999 0.51448 0.0
C183 C 0.89261 0.67831 0.52252 0.0
H184 H 0.9931 0.76326 0.51834 0.0
H185 H 0.8407 0.72511 0.534 0.0
H186 H 0.49231 0.71453 0.51187 0.0
H187 H 0.3025 0.4822 0.42628 0.0
H188 H 0.63488 0.74664 0.4784 0.0
H189 H 0.80701 0.57865 0.52225 0.0
H190 H 0.8642 0.43745 0.50747 0.0
H191 H 0.2058 0.00088 0.63165 0.0
H192 H 0.14407 0.29817 0.45587 0.0
H193 H 0.28635 0.34066 0.42772 0.0
H194 H 0.61604 0.03602 0.51225 0.0
H195 H 0.99659 0.33835 0.49041 0.0
H196 H 0.36165 0.1887 0.60291 0.0
H197 H 0.22754 0.14823 0.6411 0.0
N198 N 0.32279 0.95971 0.5854 0.0
C199 C 0.39701 0.9799 0.56468 0.0
C200 C 0.26246 0.01825 0.6132 0.0
C201 C 0.35074 0.12392 0.59767 0.0
C202 C 0.27514 0.10153 0.61928 0.0
C203 C 0.41269 0.0626 0.57073 0.0
H204 H 0.4999 0.14538 0.55529 0.0
N205 N 0.44246 0.83794 0.53275 0.0
C206 C 0.4594 0.91801 0.53896 0.0
C207 C 0.60304 0.87653 0.49812 0.0
C208 C 0.53947 0.93869 0.52071 0.0
C209 C 0.50483 0.77691 0.51327 0.0
C210 C 0.58577 0.79506 0.49471 0.0
O211 O 0.15622 0.67812 0.55856 0.0
O212 O 0.17695 0.81574 0.60114 0.0
O213 O 0.38809 0.77189 0.62235 0.0
O214 O 0.35472 0.90213 0.6478 0.0
O215 O 0.1471 0.79652 0.47516 0.0
O216 O 0.17081 0.86965 0.56159 0.0
O217 O 0.32981 0.8113 0.48285 0.0
O218 O 0.31382 0.67363 0.43989 0.0
O219 O 0.10351 0.70076 0.41327 0.0
O220 O 0.14581 0.57303 0.39279 0.0
O221 O 0.33512 0.68459 0.56395 0.0
O222 O 0.32354 0.61945 0.47663 0.0
C223 C 0.14957 0.74492 0.60184 0.0
C224 C 0.12796 0.8608 0.51712 0.0
C225 C 0.37275 0.83945 0.71386 0.0
C226 C 0.4175 0.80084 0.79028 0.0
C227 C 0.26673 0.84856 0.78344 0.0
C228 C 0.2877 0.85952 0.7358 0.0
C229 C 0.3304 0.81807 0.80981 0.0
C230 C 0.43845 0.81196 0.74187 0.0
C231 C 0.39164 0.84252 0.66064 0.0
C232 C 0.55427 0.02086 0.52641 0.0
C233 C 0.4904 0.08203 0.55071 0.0
H234 H 0.6661 0.8911 0.48414 0.0
C235 C 0.33899 0.74545 0.43985 0.0
C236 C 0.3607 0.62394 0.52167 0.0
C237 C 0.12407 0.62721 0.3231 0.0
C238 C 0.07748 0.65946 0.24477 0.0
C239 C 0.23118 0.62275 0.25512 0.0
C240 C 0.21038 0.61145 0.30264 0.0
C241 C 0.16636 0.65027 0.22793 0.0
C242 C 0.05687 0.64857 0.29328 0.0
C243 C 0.10513 0.62787 0.37698 0.0
H244 H 0.20029 0.8622 0.79953 0.0
H245 H 0.23668 0.88144 0.71534 0.0
H246 H 0.31126 0.80766 0.84561 0.0
H247 H 0.50454 0.79699 0.72533 0.0
H248 H 0.29874 0.61393 0.24052 0.0
H249 H 0.26268 0.59448 0.32465 0.0
H250 H 0.18625 0.66582 0.19405 0.0
H251 H 0.98986 0.6598 0.30879 0.0
C252 C 0.50518 0.07532 0.4312 0.0
C253 C 0.37289 0.15727 0.46583 0.0
C254 C 0.46601 0.15037 0.45994 0.0
C255 C 0.32028 0.0879 0.44221 0.0
C256 C 0.45332 0.00447 0.4122 0.0
C257 C 0.3607 0.01108 0.41676 0.0
N258 N 0.59485 0.06916 0.42838 0.0
C259 C 0.63727 -0.00511 0.40561 0.0
C260 C 0.49661 0.92819 0.39269 0.0
C261 C 0.5884 0.92261 0.38763 0.0
Gd262 Gd 0.80719 0.3118 0.58653 0.0
Gd263 Gd 0.67019 0.19176 0.46332 0.0
N264 N 0.51934 0.21228 0.48847 0.0
C265 C 0.33584 0.23164 0.49873 0.0
C266 C 0.48294 0.28116 0.52498 0.0
C267 C 0.39123 0.29323 0.52947 0.0
H268 H 0.52277 0.32505 0.55293 0.0
H269 H 0.36342 0.34893 0.55787 0.0
H270 H 0.00544 0.21794 0.56636 0.0
H271 H 0.7086 -0.00848 0.40228 0.0
H272 H 0.16216 0.25815 0.56983 0.0
H273 H 0.26486 0.23992 0.50301 0.0
H274 H 0.24881 0.09176 0.44656 0.0
H275 H 0.70009 0.4876 0.65981 0.0
H276 H 0.45936 0.87366 0.38363 0.0
H277 H 0.62121 0.86284 0.37152 0.0
H278 H 0.14313 0.54912 0.59411 0.0
H279 H 0.31989 0.95701 0.40217 0.0
H280 H 0.86314 0.68651 0.65229 0.0
H281 H 0.721 0.63793 0.67734 0.0
N282 N 0.82676 0.45406 0.62397 0.0
C283 C 0.90878 0.48046 0.61872 0.0
C284 C 0.76172 0.50921 0.6491 0.0
C285 C 0.8546 0.62141 0.6466 0.0
C286 C 0.77396 0.59414 0.65991 0.0
C287 C 0.92421 0.56421 0.6279 0.0
H288 H 0.01148 0.64459 0.60811 0.0
N289 N 0.95657 0.34176 0.58613 0.0
C290 C 0.97674 0.42282 0.6022 0.0
C291 C 0.1322 0.38836 0.58788 0.0
C292 C 0.06427 0.4482 0.59965 0.0
C293 C 0.02166 0.28249 0.57569 0.0
C294 C 0.1107 0.3051 0.57747 0.0
O295 O 0.6507 0.17409 0.54293 0.0
O296 O 0.6644 0.30241 0.60111 0.0
O297 O 0.81836 0.22381 0.62728 0.0
O298 O 0.84222 0.35533 0.66965 0.0
O299 O 0.68312 0.33332 0.48639 0.0
O300 O 0.68042 0.37954 0.57495 0.0
O301 O 0.85567 0.29996 0.50221 0.0
O302 O 0.8102 0.17796 0.44142 0.0
O303 O 0.65757 0.13637 0.37834 0.0
O304 O 0.63 0.26825 0.41747 0.0
O305 O 0.85067 0.17679 0.55229 0.0
O306 O 0.78377 0.10187 0.47357 0.0
C307 C 0.63666 0.22746 0.59042 0.0
C308 C 0.65508 0.38891 0.53042 0.0
C309 C 0.82682 0.26429 0.71956 0.0
C310 C 0.88221 0.20515 0.78407 0.0
C311 C 0.73045 0.25842 0.7895 0.0
C312 C 0.74614 0.28423 0.74638 0.0
C313 C 0.79699 0.21701 0.80728 0.0
C314 C 0.89386 0.22471 0.738 0.0
C315 C 0.84409 0.27963 0.67073 0.0
C316 C 0.07869 0.53053 0.60351 0.0
C317 C 0.00676 0.5866 0.61446 0.0
H318 H 0.2007 0.40559 0.58612 0.0
C319 C 0.86039 0.24208 0.45452 0.0
C320 C 0.84131 0.10719 0.51261 0.0
C321 C 0.66168 0.22493 0.32614 0.0
C322 C 0.6178 0.26954 0.25243 0.0
C323 C 0.76804 0.21899 0.25754 0.0
C324 C 0.74549 0.20194 0.30322 0.0
C325 C 0.70488 0.25264 0.23229 0.0
C326 C 0.6 0.26202 0.30198 0.0
C327 C 0.63271 0.20646 0.37303 0.0
H328 H 0.66682 0.2708 0.8094 0.0
H329 H 0.69534 0.31767 0.73329 0.0
H330 H 0.78169 0.19702 0.84028 0.0
H331 H 0.95525 0.20927 0.71586 0.0
H332 H 0.83372 0.20345 0.24061 0.0
H333 H 0.79335 0.17174 0.32078 0.0
H334 H 0.7236 0.26146 0.19577 0.0
H335 H 0.53627 0.28132 0.32097 0.0
C336 C 0.56788 0.46336 1.01868 0.0
C337 C 0.54459 0.54117 1.01449 0.0
C338 C 0.50403 0.40171 1.01714 0.0
C339 C 0.41185 0.41217 1.01052 0.0
H340 H 0.63669 0.44996 0.02395 0.0
H341 H 0.52789 0.34549 0.02248 0.0
S342 S 0.3137 0.60391 0.99646 0.0
N343 N 0.42035 0.62441 1.00314 0.0
N344 N 0.30242 0.50939 0.99921 0.0
C345 C 0.38746 0.49003 1.00653 0.0
C346 C 0.45269 0.55352 1.00861 0.0
C347 C 0.48587 0.51866 0.47946 0.0
C348 C 0.43556 0.56437 0.52452 0.0
C349 C 0.55712 0.4647 0.48188 0.0
C350 C 0.58244 0.45244 0.52946 0.0
H351 H 0.47075 0.52517 0.44174 0.0
H352 H 0.59253 0.43205 0.44574 0.0
S353 S 0.46881 0.55293 0.65877 0.0
N354 N 0.41575 0.59082 0.61824 0.0
N355 N 0.54571 0.48985 0.62267 0.0
C356 C 0.53188 0.49753 0.57471 0.0
C357 C 0.45993 0.55281 0.57227 0.0
C358 C 0.0479 -0.00088 0.05971 0.0
C359 C 0.07877 0.01229 1.01348 0.0
C360 C 0.98207 0.93919 0.05834 0.0
C361 C 0.94239 0.88987 1.01074 0.0
H362 H 0.07385 0.0365 0.09755 0.0
H363 H 0.96229 0.93145 0.09508 0.0
S364 S 0.99812 0.89914 0.8784 0.0
N365 N 0.06265 0.9694 0.91849 0.0
N366 N 0.94103 0.85862 0.91611 0.0
C367 C 0.97347 0.90174 0.96435 0.0
C368 C 0.0403 0.96252 0.9657 0.0
C369 C 0.9492 -0.01613 0.46562 0.0
C370 C 0.90742 0.03718 0.51202 0.0
C371 C 0.01933 0.92738 0.46713 0.0
C372 C 0.05224 0.92083 0.51512 0.0
H373 H 0.92967 -0.01247 0.42779 0.0
H374 H 0.04906 0.88942 0.43017 0.0
S375 S 0.95907 0.03626 0.6474 0.0
N376 N 0.90232 0.07245 0.60739 0.0
N377 N 0.02909 0.96744 0.6095 0.0
C378 C 0.00863 0.97114 0.56122 0.0
C379 C 0.93823 0.02854 0.55984 0.0
C380 C 0.55902 0.32408 0.18192 0.0
C381 C 0.54395 0.28304 0.21885 0.0
C382 C 0.49666 0.32173 0.1427 0.0
C383 C 0.4166 0.27923 0.1395 0.0
H384 H 0.62116 0.35497 0.18163 0.0
H385 H 0.51333 0.34917 0.11308 0.0
S386 S 0.33855 0.16968 0.22895 0.0
N387 N 0.4381 0.20255 0.25034 0.0
N388 N 0.32052 0.20406 0.1795 0.0
C389 C 0.39659 0.24559 0.17906 0.0
C390 C 0.46051 0.24559 0.2179 0.0
C391 C 0.47895 0.72198 0.31796 0.0
C392 C 0.429 0.76669 0.29192 0.0
C393 C 0.44823 0.71335 0.36541 0.0
C394 C 0.36778 0.75052 0.38866 0.0
H395 H 0.54579 0.70138 0.30504 0.0
H396 H 0.49037 0.68262 0.38585 0.0
S397 S 0.19825 0.84469 0.3264 0.0
N398 N 0.28341 0.82516 0.28514 0.0
N399 N 0.22895 0.81301 0.37544 0.0
C400 C 0.312 0.78412 0.35931 0.0
C401 C 0.34173 0.79069 0.31041 0.0
C402 C 0.61987 0.79531 0.87452 0.0
C403 C 0.59784 0.73299 0.89586 0.0
C404 C 0.56387 0.81434 0.83806 0.0
C405 C 0.48432 0.77122 0.82126 0.0
H406 H 0.67906 0.83151 0.88751 0.0
H407 H 0.58097 0.86546 0.82476 0.0
S408 S 0.40408 0.59426 0.85902 0.0
N409 N 0.49621 0.62245 0.89282 0.0
N410 N 0.39236 0.65718 0.8244 0.0
C411 C 0.46534 0.705 0.83951 0.0
C412 C 0.52201 0.68581 0.87642 0.0
C413 C 0.55319 0.24377 0.67468 0.0
C414 C 0.61227 0.19776 0.63472 0.0
C415 C 0.52939 0.21591 0.71668 0.0
C416 C 0.56264 0.14022 0.71956 0.0
H417 H 0.52644 0.30234 0.67394 0.0
H418 H 0.48747 0.25534 0.74794 0.0
S419 S 0.71094 -0.00797 0.62111 0.0
N420 N 0.70231 0.07254 0.60066 0.0
N421 N 0.64764 0.01471 0.67415 0.0
C422 C 0.61694 0.09142 0.67768 0.0
C423 C 0.64466 0.12169 0.63686 0.0
C424 C 0.97155 0.75349 0.14885 0.0
C425 C 0.89573 0.70518 0.13163 0.0
C426 C 0.02697 0.74147 0.18755 0.0
C427 C 0.00889 0.68074 0.21096 0.0
H428 H 0.99046 0.7985 0.13052 0.0
H429 H 0.08623 0.77841 0.19799 0.0
S430 S 0.80999 0.54734 0.1856 0.0
N431 N 0.79795 0.60297 0.14627 0.0
N432 N 0.90406 0.57709 0.2171 0.0
C433 C 0.92966 0.636 0.19663 0.0
C434 C 0.87258 0.6491 0.15754 0.0
C435 C 0.98735 0.20508 0.38997 0.0
C436 C 0.91173 0.25425 0.41042 0.0
C437 C 0.03956 0.21872 0.35015 0.0
C438 C 0.01699 0.28104 0.32892 0.0
H439 H 0.00792 0.15775 0.40615 0.0
H440 H 0.09942 0.18208 0.33704 0.0
S441 S 0.82046 0.42043 0.36489 0.0
N442 N 0.81265 0.36245 0.403 0.0
N443 N 0.91158 0.38913 0.32925 0.0
C444 C 0.93963 0.32814 0.34751 0.0
C445 C 0.88643 0.31411 0.38776 0.0
C446 C 0.94613 0.13111 0.84263 0.0
C447 C 0.95949 0.1805 0.81052 0.0
C448 C 0.01025 0.12574 0.8788 0.0
C449 C 0.09163 0.16607 0.88233 0.0
H450 H 0.88336 0.10118 0.84279 0.0
H451 H 0.99227 0.09719 0.90759 0.0
S452 S 0.16993 0.28775 0.80077 0.0
N453 N 0.0671 0.26348 0.78181 0.0
N454 N 0.19002 0.24309 0.84527 0.0
C455 C 0.11137 0.20527 0.84579 0.0
C456 C 0.04473 0.21501 0.81084 0.0
C457 C 0.17725 0.69067 0.67511 0.0
C458 C 0.1247 0.74033 0.65439 0.0
C459 C 0.1467 0.66552 0.71585 0.0
C460 C 0.06159 0.68839 0.73603 0.0
H461 H 0.23964 0.66533 0.65627 0.0
H462 H 0.18686 0.62249 0.72806 0.0
S463 S 0.90373 0.87231 0.7243 0.0
N464 N 0.98273 0.79633 0.71975 0.0
N465 N 0.9475 0.79676 0.74333 0.0
C466 C 0.01746 0.75747 0.72042 0.0
C467 C 0.04644 0.78438 0.67882 0.0
loop_
_geom_bond_atom_site_label_1
_geom_bond_atom_site_label_2
_geom_bond_distance
_geom_bond_site_symmetry_2
_ccdc_geom_bond_type
C0 C2 1.422 1_455 S
C0 C4 1.415 1_455 S
C0 N6 1.369 . S
C1 C2 1.421 . S
C1 C3 1.417 . S
C1 C13 1.422 1_554 S
C2 C0 1.422 1_655 S
C2 C1 1.421 . S
C2 N12 1.363 . S
C3 C1 1.417 . S
C3 C5 1.329 . S
C3 H22 0.930 1_554 S
C4 C0 1.415 1_655 S
C4 C5 1.437 . S
C4 C8 1.413 1_655 S
C5 C3 1.329 . S
C5 C4 1.437 . S
C5 H27 0.929 . S
N6 C0 1.369 . S
N6 C7 1.338 . S
N6 Gd11 2.622 . S
C7 N6 1.338 . S
C7 C9 1.378 . S
C7 H19 0.929 . S
C8 C4 1.413 1_455 S
C8 C9 1.348 . S
C8 H24 0.931 . S
C9 C7 1.378 . S
C9 C8 1.348 . S
C9 H25 0.930 . S
Gd10 N30 2.626 . S
Gd10 N37 2.570 . S
Gd10 O44 2.353 . S
Gd10 O45 2.468 . S
Gd10 O46 2.427 . S
Gd10 O48 2.388 . S
Gd10 O49 2.386 1_556 S
Gd10 O53 2.307 . S
Gd10 C63 2.805 . S
Gd11 N6 2.622 . S
Gd11 N12 2.558 1_455 S
Gd11 O43 2.386 1_554 S
Gd11 O47 2.307 . S
Gd11 O50 2.353 . S
Gd11 O51 2.468 . S
Gd11 O52 2.427 . S
Gd11 O54 2.388 . S
Gd11 C75 2.805 . S
N12 C2 1.363 . S
N12 Gd11 2.558 1_655 S
N12 C14 1.351 . S
C13 C1 1.422 1_556 S
C13 C15 1.321 1_556 S
C13 H21 0.931 . S
C14 N12 1.351 . S
C14 C15 1.390 . S
C14 H16 0.931 . S
C15 C13 1.321 1_554 S
C15 C14 1.390 . S
C15 H17 0.930 1_554 S
H16 C14 0.931 . S
H17 C15 0.930 1_556 S
H18 C41 0.931 . S
H19 C7 0.929 . S
H20 C42 0.930 1_554 S
H21 C13 0.931 . S
H22 C3 0.930 1_556 S
H23 C32 0.929 . S
H24 C8 0.931 . S
H25 C9 0.930 . S
H26 C64 0.930 1_554 S
H27 C5 0.929 . S
H28 C33 0.931 . S
H29 C34 0.930 . S
N30 Gd10 2.626 . S
N30 C31 1.368 1_545 S
N30 C32 1.334 1_545 S
C31 N30 1.368 1_565 S
C31 C35 1.415 . S
C31 C38 1.422 1_565 S
C32 H23 0.929 . S
C32 N30 1.334 1_565 S
C32 C34 1.378 . S
C33 H28 0.931 . S
C33 C34 1.348 . S
C33 C35 1.413 . S
C34 H29 0.930 . S
C34 C32 1.378 . S
C34 C33 1.348 . S
C35 C31 1.415 . S
C35 C33 1.413 . S
C35 C65 1.437 . S
H36 C65 0.929 . S
N37 Gd10 2.570 . S
N37 C38 1.359 . S
N37 C41 1.343 . S
C38 C31 1.422 1_545 S
C38 N37 1.359 . S
C38 C40 1.421 . S
C39 C40 1.422 1_554 S
C39 C42 1.321 1_554 S
C39 H66 0.931 . S
C40 C38 1.421 . S
C40 C39 1.422 1_556 S
C40 C64 1.417 1_545 S
C41 H18 0.931 . S
C41 N37 1.343 . S
C41 C42 1.390 . S
C42 H20 0.930 1_556 S
C42 C39 1.321 1_556 S
C42 C41 1.390 . S
O43 Gd11 2.386 1_556 S
O43 C55 1.265 . S
O44 Gd10 2.353 . S
O44 C55 1.242 . S
O45 Gd10 2.468 . S
O45 C63 1.263 . S
O46 Gd10 2.427 . S
O46 C63 1.252 . S
O47 Gd11 2.307 . S
O47 C56 1.261 1_554 S
O48 Gd10 2.388 . S
O48 C56 1.252 . S
O49 Gd10 2.386 1_554 S
O49 C67 1.265 . S
O50 Gd11 2.353 . S
O50 C67 1.242 . S
O51 Gd11 2.468 . S
O51 C75 1.263 . S
O52 Gd11 2.427 . S
O52 C75 1.252 . S
O53 Gd10 2.307 . S
O53 C68 1.261 1_556 S
O54 Gd11 2.388 . S
O54 C68 1.252 . S
C55 O43 1.265 . S
C55 O44 1.242 . S
C56 O47 1.261 1_556 S
C56 O48 1.252 . S
C57 C60 1.394 . S
C57 C62 1.370 . S
C57 C63 1.500 . S
C58 C61 1.383 . S
C58 C62 1.395 . S
C59 C60 1.396 1_565 S
C59 C61 1.365 1_565 S
C59 H76 0.929 . S
C60 C57 1.394 . S
C60 C59 1.396 1_545 S
C60 H77 0.930 1_545 S
C61 C58 1.383 . S
C61 C59 1.365 1_545 S
C61 H78 0.931 . S
C62 C57 1.370 . S
C62 C58 1.395 . S
C62 H79 0.930 . S
C63 Gd10 2.805 . S
C63 O45 1.263 . S
C63 O46 1.252 . S
C63 C57 1.500 . S
C64 H26 0.930 1_556 S
C64 C40 1.417 1_565 S
C64 C65 1.329 . S
C65 C35 1.437 . S
C65 H36 0.929 . S
C65 C64 1.329 . S
H66 C39 0.931 . S
C67 O49 1.265 . S
C67 O50 1.242 . S
C68 O53 1.261 1_554 S
C68 O54 1.252 . S
C69 C72 1.394 . S
C69 C74 1.370 . S
C69 C75 1.500 . S
C70 C73 1.383 . S
C70 C74 1.395 1_655 S
C71 C72 1.396 . S
C71 C73 1.365 1_455 S
C71 H80 0.929 . S
C72 C69 1.394 . S
C72 C71 1.396 . S
C72 H81 0.930 . S
C73 C70 1.383 . S
C73 C71 1.365 1_655 S
C73 H82 0.931 . S
C74 C69 1.370 . S
C74 C70 1.395 1_455 S
C74 H83 0.930 . S
C75 Gd11 2.805 . S
C75 O51 1.263 . S
C75 O52 1.252 . S
C75 C69 1.500 . S
H76 C59 0.929 . S
H77 C60 0.930 1_565 S
H78 C61 0.931 . S
H79 C62 0.930 . S
H80 C71 0.929 . S
H81 C72 0.930 . S
H82 C73 0.931 . S
H83 C74 0.930 . S
C84 C86 1.422 1_545 S
C84 C88 1.415 . S
C84 N90 1.368 1_545 S
C85 C86 1.421 . S
C85 C87 1.417 1_565 S
C85 C97 1.422 1_554 S
C86 C84 1.422 1_565 S
C86 C85 1.421 . S
C86 N96 1.359 . S
C87 C85 1.417 1_545 S
C87 C89 1.329 . S
C87 H106 0.930 1_554 S
C88 C84 1.415 . S
C88 C89 1.437 . S
C88 C92 1.413 . S
C89 C87 1.329 . S
C89 C88 1.437 . S
C89 H111 0.929 . S
N90 C84 1.368 1_565 S
N90 C91 1.334 1_565 S
N90 Gd95 2.626 . S
C91 N90 1.334 1_545 S
C91 C93 1.378 . S
C91 H103 0.929 . S
C92 C88 1.413 . S
C92 C93 1.348 . S
C92 H108 0.931 . S
C93 C91 1.378 . S
C93 C92 1.348 . S
C93 H109 0.930 . S
Gd94 N114 2.622 . S
Gd94 N121 2.558 1_655 S
Gd94 O128 2.353 . S
Gd94 O129 2.468 . S
Gd94 O130 2.427 . S
Gd94 O132 2.388 . S
Gd94 O133 2.386 1_556 S
Gd94 O137 2.307 . S
Gd94 C147 2.805 . S
Gd95 N90 2.626 . S
Gd95 N96 2.570 . S
Gd95 O127 2.386 1_554 S
Gd95 O131 2.307 . S
Gd95 O134 2.353 . S
Gd95 O135 2.468 . S
Gd95 O136 2.427 . S
Gd95 O138 2.388 . S
Gd95 C159 2.805 . S
N96 C86 1.359 . S
N96 Gd95 2.570 . S
N96 C98 1.343 . S
C97 C85 1.422 1_556 S
C97 C99 1.321 1_556 S
C97 H105 0.931 . S
C98 N96 1.343 . S
C98 C99 1.390 . S
C98 H100 0.931 . S
C99 C97 1.321 1_554 S
C99 C98 1.390 . S
C99 H101 0.930 1_554 S
H100 C98 0.931 . S
H101 C99 0.930 1_556 S
H102 C125 0.931 . S
H103 C91 0.929 . S
H104 C126 0.930 1_554 S
H105 C97 0.931 . S
H106 C87 0.930 1_556 S
H107 C116 0.929 . S
H108 C92 0.931 . S
H109 C93 0.930 . S
H110 C148 0.930 1_554 S
H111 C89 0.929 . S
H112 C117 0.931 . S
H113 C118 0.930 . S
N114 Gd94 2.622 . S
N114 C115 1.369 . S
N114 C116 1.338 . S
C115 N114 1.369 . S
C115 C119 1.415 1_655 S
C115 C122 1.422 1_655 S
C116 H107 0.929 . S
C116 N114 1.338 . S
C116 C118 1.378 . S
C117 H112 0.931 . S
C117 C118 1.348 . S
C117 C119 1.413 1_655 S
C118 H113 0.930 . S
C118 C116 1.378 . S
C118 C117 1.348 . S
C119 C115 1.415 1_455 S
C119 C117 1.413 1_455 S
C119 C149 1.437 . S
H120 C149 0.929 . S
N121 Gd94 2.558 1_455 S
N121 C122 1.363 . S
N121 C125 1.351 . S
C122 C115 1.422 1_455 S
C122 N121 1.363 . S
C122 C124 1.421 . S
C123 C124 1.422 1_554 S
C123 C126 1.321 1_554 S
C123 H150 0.931 . S
C124 C122 1.421 . S
C124 C123 1.422 1_556 S
C124 C148 1.417 . S
C125 H102 0.931 . S
C125 N121 1.351 . S
C125 C126 1.390 . S
C126 H104 0.930 1_556 S
C126 C123 1.321 1_556 S
C126 C125 1.390 . S
O127 Gd95 2.386 1_556 S
O127 C139 1.265 . S
O128 Gd94 2.353 . S
O128 C139 1.242 . S
O129 Gd94 2.468 . S
O129 C147 1.263 . S
O130 Gd94 2.427 . S
O130 C147 1.252 . S
O131 Gd95 2.307 . S
O131 C140 1.261 1_554 S
O132 Gd94 2.388 . S
O132 C140 1.252 . S
O133 Gd94 2.386 1_554 S
O133 C151 1.265 . S
O134 Gd95 2.353 . S
O134 C151 1.242 . S
O135 Gd95 2.468 . S
O135 C159 1.263 . S
O136 Gd95 2.427 . S
O136 C159 1.252 . S
O137 Gd94 2.307 . S
O137 C152 1.261 1_556 S
O138 Gd95 2.388 . S
O138 C152 1.252 . S
C139 O127 1.265 . S
C139 O128 1.242 . S
C140 O131 1.261 1_556 S
C140 O132 1.252 . S
C141 C144 1.394 . S
C141 C146 1.370 . S
C141 C147 1.500 . S
C142 C145 1.383 . S
C142 C146 1.395 1_455 S
C143 C144 1.396 . S
C143 C145 1.365 1_655 S
C143 H160 0.929 . S
C144 C141 1.394 . S
C144 C143 1.396 . S
C144 H161 0.930 . S
C145 C142 1.383 . S
C145 C143 1.365 1_455 S
C145 H162 0.931 . S
C146 C141 1.370 . S
C146 C142 1.395 1_655 S
C146 H163 0.930 . S
C147 Gd94 2.805 . S
C147 O129 1.263 . S
C147 O130 1.252 . S
C147 C141 1.500 . S
C148 H110 0.930 1_556 S
C148 C124 1.417 . S
C148 C149 1.329 . S
C149 C119 1.437 . S
C149 H120 0.929 . S
C149 C148 1.329 . S
H150 C123 0.931 . S
C151 O133 1.265 . S
C151 O134 1.242 . S
C152 O137 1.261 1_554 S
C152 O138 1.252 . S
C153 C156 1.394 . S
C153 C158 1.370 . S
C153 C159 1.500 . S
C154 C157 1.383 . S
C154 C158 1.395 . S
C155 C156 1.396 1_545 S
C155 C157 1.365 1_545 S
C155 H164 0.929 . S
C156 C153 1.394 . S
C156 C155 1.396 1_565 S
C156 H165 0.930 1_565 S
C157 C154 1.383 . S
C157 C155 1.365 1_565 S
C157 H166 0.931 . S
C158 C153 1.370 . S
C158 C154 1.395 . S
C158 H167 0.930 . S
C159 Gd95 2.805 . S
C159 O135 1.263 . S
C159 O136 1.252 . S
C159 C153 1.500 . S
H160 C143 0.929 . S
H161 C144 0.930 . S
H162 C145 0.931 . S
H163 C146 0.930 . S
H164 C155 0.929 . S
H165 C156 0.930 1_545 S
H166 C157 0.931 . S
H167 C158 0.930 . S
C168 C170 1.422 1_455 S
C168 C172 1.415 1_455 S
C168 N174 1.369 . S
C169 C170 1.421 . S
C169 C171 1.417 . S
C169 C181 1.422 . S
C170 C168 1.422 1_655 S
C170 C169 1.421 . S
C170 N180 1.363 . S
C171 C169 1.417 . S
C171 C173 1.329 . S
C171 H190 0.930 . S
C172 C168 1.415 1_655 S
C172 C173 1.437 . S
C172 C176 1.413 1_655 S
C173 C171 1.329 . S
C173 C172 1.437 . S
C173 H195 0.929 . S
N174 C168 1.369 . S
N174 C175 1.338 . S
N174 Gd179 2.622 . S
C175 N174 1.338 . S
C175 C177 1.378 . S
C175 H187 0.929 . S
C176 C172 1.413 1_455 S
C176 C177 1.348 . S
C176 H192 0.931 . S
C177 C175 1.378 . S
C177 C176 1.348 . S
C177 H193 0.930 . S
Gd178 N198 2.626 . S
Gd178 N205 2.570 . S
Gd178 O212 2.353 . S
Gd178 O213 2.468 . S
Gd178 O214 2.427 . S
Gd178 O216 2.388 . S
Gd178 O217 2.386 . S
Gd178 O221 2.307 . S
Gd178 C231 2.805 . S
Gd179 N174 2.622 . S
Gd179 N180 2.558 1_455 S
Gd179 O211 2.386 . S
Gd179 O215 2.307 . S
Gd179 O218 2.353 . S
Gd179 O219 2.468 . S
Gd179 O220 2.427 . S
Gd179 O222 2.388 . S
Gd179 C243 2.805 . S
N180 C170 1.363 . S
N180 Gd179 2.558 1_655 S
N180 C182 1.351 . S
C181 C169 1.422 . S
C181 C183 1.321 . S
C181 H189 0.931 . S
C182 N180 1.351 . S
C182 C183 1.390 . S
C182 H184 0.931 . S
C183 C181 1.321 . S
C183 C182 1.390 . S
C183 H185 0.930 . S
H184 C182 0.931 . S
H185 C183 0.930 . S
H186 C209 0.931 . S
H187 C175 0.929 . S
H188 C210 0.930 . S
H189 C181 0.931 . S
H190 C171 0.930 . S
H191 C200 0.929 . S
H192 C176 0.931 . S
H193 C177 0.930 . S
H194 C232 0.930 . S
H195 C173 0.929 . S
H196 C201 0.931 . S
H197 C202 0.930 . S
N198 Gd178 2.626 . S
N198 C199 1.368 1_565 S
N198 C200 1.334 1_565 S
C199 N198 1.368 1_545 S
C199 C203 1.415 . S
C199 C206 1.422 1_545 S
C200 H191 0.929 . S
C200 N198 1.334 1_545 S
C200 C202 1.378 . S
C201 H196 0.931 . S
C201 C202 1.348 . S
C201 C203 1.413 . S
C202 H197 0.930 . S
C202 C200 1.378 . S
C202 C201 1.348 . S
C203 C199 1.415 . S
C203 C201 1.413 . S
C203 C233 1.437 . S
H204 C233 0.929 . S
N205 Gd178 2.570 . S
N205 C206 1.359 . S
N205 C209 1.343 . S
C206 C199 1.422 1_565 S
C206 N205 1.359 . S
C206 C208 1.421 . S
C207 C208 1.422 . S
C207 C210 1.321 . S
C207 H234 0.931 . S
C208 C206 1.421 . S
C208 C207 1.422 . S
C208 C232 1.417 1_565 S
C209 H186 0.931 . S
C209 N205 1.343 . S
C209 C210 1.390 . S
C210 H188 0.930 . S
C210 C207 1.321 . S
C210 C209 1.390 . S
O211 Gd179 2.386 . S
O211 C223 1.265 . S
O212 Gd178 2.353 . S
O212 C223 1.242 . S
O213 Gd178 2.468 . S
O213 C231 1.263 . S
O214 Gd178 2.427 . S
O214 C231 1.252 . S
O215 Gd179 2.307 . S
O215 C224 1.261 . S
O216 Gd178 2.388 . S
O216 C224 1.252 . S
O217 Gd178 2.386 . S
O217 C235 1.265 . S
O218 Gd179 2.353 . S
O218 C235 1.242 . S
O219 Gd179 2.468 . S
O219 C243 1.263 . S
O220 Gd179 2.427 . S
O220 C243 1.252 . S
O221 Gd178 2.307 . S
O221 C236 1.261 . S
O222 Gd179 2.388 . S
O222 C236 1.252 . S
C223 O211 1.265 . S
C223 O212 1.242 . S
C224 O215 1.261 . S
C224 O216 1.252 . S
C225 C228 1.394 . S
C225 C230 1.370 . S
C225 C231 1.500 . S
C226 C229 1.383 . S
C226 C230 1.395 . S
C227 C228 1.396 1_545 S
C227 C229 1.365 1_545 S
C227 H244 0.929 . S
C228 C225 1.394 . S
C228 C227 1.396 1_565 S
C228 H245 0.930 1_565 S
C229 C226 1.383 . S
C229 C227 1.365 1_565 S
C229 H246 0.931 . S
C230 C225 1.370 . S
C230 C226 1.395 . S
C230 H247 0.930 . S
C231 Gd178 2.805 . S
C231 O213 1.263 . S
C231 O214 1.252 . S
C231 C225 1.500 . S
C232 H194 0.930 . S
C232 C208 1.417 1_545 S
C232 C233 1.329 . S
C233 C203 1.437 . S
C233 H204 0.929 . S
C233 C232 1.329 . S
H234 C207 0.931 . S
C235 O217 1.265 . S
C235 O218 1.242 . S
C236 O221 1.261 . S
C236 O222 1.252 . S
C237 C240 1.394 . S
C237 C242 1.370 . S
C237 C243 1.500 . S
C238 C241 1.383 . S
C238 C242 1.395 1_655 S
C239 C240 1.396 . S
C239 C241 1.365 1_455 S
C239 H248 0.929 . S
C240 C237 1.394 . S
C240 C239 1.396 . S
C240 H249 0.930 . S
C241 C238 1.383 . S
C241 C239 1.365 1_655 S
C241 H250 0.931 . S
C242 C237 1.370 . S
C242 C238 1.395 1_455 S
C242 H251 0.930 . S
C243 Gd179 2.805 . S
C243 O219 1.263 . S
C243 O220 1.252 . S
C243 C237 1.500 . S
H244 C227 0.929 . S
H245 C228 0.930 1_545 S
H246 C229 0.931 . S
H247 C230 0.930 . S
H248 C239 0.929 . S
H249 C240 0.930 . S
H250 C241 0.931 . S
H251 C242 0.930 . S
C252 C254 1.422 1_565 S
C252 C256 1.415 . S
C252 N258 1.368 1_565 S
C253 C254 1.421 . S
C253 C255 1.417 1_545 S
C253 C265 1.422 . S
C254 C252 1.422 1_545 S
C254 C253 1.421 . S
C254 N264 1.359 . S
C255 C253 1.417 1_565 S
C255 C257 1.329 . S
C255 H274 0.930 . S
C256 C252 1.415 . S
C256 C257 1.437 . S
C256 C260 1.413 . S
C257 C255 1.329 . S
C257 C256 1.437 . S
C257 H279 0.929 . S
N258 C252 1.368 1_545 S
N258 C259 1.334 1_545 S
N258 Gd263 2.626 . S
C259 N258 1.334 1_565 S
C259 C261 1.378 . S
C259 H271 0.929 . S
C260 C256 1.413 . S
C260 C261 1.348 . S
C260 H276 0.931 . S
C261 C259 1.378 . S
C261 C260 1.348 . S
C261 H277 0.930 . S
Gd262 N282 2.622 . S
Gd262 N289 2.558 1_655 S
Gd262 O296 2.353 . S
Gd262 O297 2.468 . S
Gd262 O298 2.427 . S
Gd262 O300 2.388 . S
Gd262 O301 2.386 . S
Gd262 O305 2.307 . S
Gd262 C315 2.805 . S
Gd263 N258 2.626 . S
Gd263 N264 2.570 . S
Gd263 O295 2.386 . S
Gd263 O299 2.307 . S
Gd263 O302 2.353 . S
Gd263 O303 2.468 . S
Gd263 O304 2.427 . S
Gd263 O306 2.388 . S
Gd263 C327 2.805 . S
N264 C254 1.359 . S
N264 Gd263 2.570 . S
N264 C266 1.343 . S
C265 C253 1.422 . S
C265 C267 1.321 . S
C265 H273 0.931 . S
C266 N264 1.343 . S
C266 C267 1.390 . S
C266 H268 0.931 . S
C267 C265 1.321 . S
C267 C266 1.390 . S
C267 H269 0.930 . S
H268 C266 0.931 . S
H269 C267 0.930 . S
H270 C293 0.931 . S
H271 C259 0.929 . S
H272 C294 0.930 . S
H273 C265 0.931 . S
H274 C255 0.930 . S
H275 C284 0.929 . S
H276 C260 0.931 . S
H277 C261 0.930 . S
H278 C316 0.930 . S
H279 C257 0.929 . S
H280 C285 0.931 . S
H281 C286 0.930 . S
N282 Gd262 2.622 . S
N282 C283 1.369 . S
N282 C284 1.338 . S
C283 N282 1.369 . S
C283 C287 1.415 1_655 S
C283 C290 1.422 1_655 S
C284 H275 0.929 . S
C284 N282 1.338 . S
C284 C286 1.378 . S
C285 H280 0.931 . S
C285 C286 1.348 . S
C285 C287 1.413 1_655 S
C286 H281 0.930 . S
C286 C284 1.378 . S
C286 C285 1.348 . S
C287 C283 1.415 1_455 S
C287 C285 1.413 1_455 S
C287 C317 1.437 . S
H288 C317 0.929 . S
N289 Gd262 2.558 1_455 S
N289 C290 1.363 . S
N289 C293 1.351 . S
C290 C283 1.422 1_455 S
C290 N289 1.363 . S
C290 C292 1.421 . S
C291 C292 1.422 . S
C291 C294 1.321 . S
C291 H318 0.931 . S
C292 C290 1.421 . S
C292 C291 1.422 . S
C292 C316 1.417 . S
C293 H270 0.931 . S
C293 N289 1.351 . S
C293 C294 1.390 . S
C294 H272 0.930 . S
C294 C291 1.321 . S
C294 C293 1.390 . S
O295 Gd263 2.386 . S
O295 C307 1.265 . S
O296 Gd262 2.353 . S
O296 C307 1.242 . S
O297 Gd262 2.468 . S
O297 C315 1.263 . S
O298 Gd262 2.427 . S
O298 C315 1.252 . S
O299 Gd263 2.307 . S
O299 C308 1.261 . S
O300 Gd262 2.388 . S
O300 C308 1.252 . S
O301 Gd262 2.386 . S
O301 C319 1.265 . S
O302 Gd263 2.353 . S
O302 C319 1.242 . S
O303 Gd263 2.468 . S
O303 C327 1.263 . S
O304 Gd263 2.427 . S
O304 C327 1.252 . S
O305 Gd262 2.307 . S
O305 C320 1.261 . S
O306 Gd263 2.388 . S
O306 C320 1.252 . S
C307 O295 1.265 . S
C307 O296 1.242 . S
C308 O299 1.261 . S
C308 O300 1.252 . S
C309 C312 1.394 . S
C309 C314 1.370 . S
C309 C315 1.500 . S
C310 C313 1.383 . S
C310 C314 1.395 1_455 S
C311 C312 1.396 . S
C311 C313 1.365 1_655 S
C311 H328 0.929 . S
C312 C309 1.394 . S
C312 C311 1.396 . S
C312 H329 0.930 . S
C313 C310 1.383 . S
C313 C311 1.365 1_455 S
C313 H330 0.931 . S
C314 C309 1.370 . S
C314 C310 1.395 1_655 S
C314 H331 0.930 . S
C315 Gd262 2.805 . S
C315 O297 1.263 . S
C315 O298 1.252 . S
C315 C309 1.500 . S
C316 H278 0.930 . S
C316 C292 1.417 . S
C316 C317 1.329 . S
C317 C287 1.437 . S
C317 H288 0.929 . S
C317 C316 1.329 . S
H318 C291 0.931 . S
C319 O301 1.265 . S
C319 O302 1.242 . S
C320 O305 1.261 . S
C320 O306 1.252 . S
C321 C324 1.394 . S
C321 C326 1.370 . S
C321 C327 1.500 . S
C322 C325 1.383 . S
C322 C326 1.395 . S
C323 C324 1.396 1_565 S
C323 C325 1.365 1_565 S
C323 H332 0.929 . S
C324 C321 1.394 . S
C324 C323 1.396 1_545 S
C324 H333 0.930 1_545 S
C325 C322 1.383 . S
C325 C323 1.365 1_545 S
C325 H334 0.931 . S
C326 C321 1.370 . S
C326 C322 1.395 . S
C326 H335 0.930 . S
C327 Gd263 2.805 . S
C327 O303 1.263 . S
C327 O304 1.252 . S
C327 C321 1.500 . S
H328 C311 0.929 . S
H329 C312 0.930 . S
H330 C313 0.931 . S
H331 C314 0.930 . S
H332 C323 0.929 . S
H333 C324 0.930 1_565 S
H334 C325 0.931 . S
H335 C326 0.930 . S
C336 C337 1.369 1_554 S
C336 C338 1.419 . S
C336 H340 0.930 . S
C337 C336 1.369 1_556 S
C337 C346 1.429 . S
C338 C336 1.419 . S
C338 C339 1.363 . S
C338 H341 0.929 . S
C339 C338 1.363 . S
C339 C345 1.428 1_554 S
H340 C336 0.930 . S
H341 C338 0.929 . S
S342 N343 1.613 . S
S342 N344 1.610 . S
N343 S342 1.613 . S
N343 C346 1.350 . S
N344 S342 1.610 . S
N344 C345 1.351 . S
C345 C339 1.428 1_556 S
C345 N344 1.351 . S
C345 C346 1.434 . S
C346 C337 1.429 . S
C346 N343 1.350 . S
C346 C345 1.434 . S
C347 C348 1.369 . S
C347 C349 1.419 . S
C347 H351 0.930 . S
C348 C347 1.369 . S
C348 C357 1.429 . S
C349 C347 1.419 . S
C349 C350 1.363 . S
C349 H352 0.929 . S
C350 C349 1.363 . S
C350 C356 1.428 . S
H351 C347 0.930 . S
H352 C349 0.929 . S
S353 N354 1.613 . S
S353 N355 1.610 . S
N354 S353 1.613 . S
N354 C357 1.350 . S
N355 S353 1.610 . S
N355 C356 1.351 . S
C356 C350 1.428 . S
C356 N355 1.351 . S
C356 C357 1.434 . S
C357 C348 1.429 . S
C357 N354 1.350 . S
C357 C356 1.434 . S
C358 C359 1.369 1_554 S
C358 C360 1.423 1_455 S
C358 H362 0.930 . S
C359 C358 1.369 1_556 S
C359 C368 1.426 1_545 S
C360 C358 1.423 1_655 S
C360 C361 1.361 1_545 S
C360 H363 0.927 . S
C361 C360 1.361 1_565 S
C361 C367 1.428 1_554 S
H362 C358 0.930 . S
H363 C360 0.927 . S
S364 N365 1.613 1_655 S
S364 N366 1.610 . S
N365 S364 1.613 1_455 S
N365 C368 1.347 . S
N366 S364 1.610 . S
N366 C367 1.351 . S
C367 C361 1.428 1_556 S
C367 N366 1.351 . S
C367 C368 1.441 1_655 S
C368 C359 1.426 1_565 S
C368 N365 1.347 . S
C368 C367 1.441 1_455 S
C369 C370 1.369 1_455 S
C369 C371 1.419 . S
C369 H373 0.930 . S
C370 C369 1.369 1_655 S
C370 C379 1.429 1_545 S
C371 C369 1.419 . S
C371 C372 1.363 1_545 S
C371 H374 0.929 . S
C372 C371 1.363 1_565 S
C372 C378 1.428 1_455 S
H373 C369 0.930 . S
H374 C371 0.929 . S
S375 N376 1.613 . S
S375 N377 1.610 . S
N376 S375 1.613 . S
N376 C379 1.350 . S
N377 S375 1.610 . S
N377 C378 1.351 . S
C378 C372 1.428 1_655 S
C378 N377 1.351 . S
C378 C379 1.434 . S
C379 C370 1.429 1_565 S
C379 N376 1.350 . S
C379 C378 1.434 . S
C380 C381 1.369 . S
C380 C382 1.419 . S
C380 H384 0.930 . S
C381 C380 1.369 . S
C381 C390 1.429 . S
C382 C380 1.419 . S
C382 C383 1.363 . S
C382 H385 0.929 . S
C383 C382 1.363 . S
C383 C389 1.428 . S
H384 C380 0.930 . S
H385 C382 0.929 . S
S386 N387 1.613 . S
S386 N388 1.610 . S
N387 S386 1.613 . S
N387 C390 1.350 . S
N388 S386 1.610 . S
N388 C389 1.351 . S
C389 C383 1.428 . S
C389 N388 1.351 . S
C389 C390 1.434 . S
C390 C381 1.429 . S
C390 N387 1.350 . S
C390 C389 1.434 . S
C391 C392 1.369 . S
C391 C393 1.419 . S
C391 H395 0.930 . S
C392 C391 1.369 . S
C392 C401 1.429 . S
C393 C391 1.419 . S
C393 C394 1.363 . S
C393 H396 0.929 . S
C394 C393 1.363 . S
C394 C400 1.428 . S
H395 C391 0.930 . S
H396 C393 0.929 . S
S397 N398 1.613 1_545 S
S397 N399 1.610 1_545 S
N398 S397 1.613 1_565 S
N398 C401 1.350 . S
N399 S397 1.610 1_565 S
N399 C400 1.351 . S
C400 C394 1.428 . S
C400 N399 1.351 . S
C400 C401 1.434 . S
C401 C392 1.429 . S
C401 N398 1.350 . S
C401 C400 1.434 . S
C402 C403 1.369 . S
C402 C404 1.419 . S
C402 H406 0.930 . S
C403 C402 1.369 . S
C403 C412 1.429 . S
C404 C402 1.419 . S
C404 C405 1.363 . S
C404 H407 0.929 . S
C405 C404 1.363 . S
C405 C411 1.428 . S
H406 C402 0.930 . S
H407 C404 0.929 . S
S408 N409 1.613 . S
S408 N410 1.610 . S
N409 S408 1.613 . S
N409 C412 1.350 . S
N410 S408 1.610 . S
N410 C411 1.351 . S
C411 C405 1.428 . S
C411 N410 1.351 . S
C411 C412 1.434 . S
C412 C403 1.429 . S
C412 N409 1.350 . S
C412 C411 1.434 . S
C413 C414 1.369 . S
C413 C415 1.419 . S
C413 H417 0.930 . S
C414 C413 1.369 . S
C414 C423 1.429 . S
C415 C413 1.419 . S
C415 C416 1.363 . S
C415 H418 0.929 . S
C416 C415 1.363 . S
C416 C422 1.428 . S
H417 C413 0.930 . S
H418 C415 0.929 . S
S419 N420 1.613 . S
S419 N421 1.610 . S
N420 S419 1.613 . S
N420 C423 1.350 . S
N421 S419 1.610 . S
N421 C422 1.351 . S
C422 C416 1.428 . S
C422 N421 1.351 . S
C422 C423 1.434 . S
C423 C414 1.429 . S
C423 N420 1.350 . S
C423 C422 1.434 . S
C424 C425 1.369 . S
C424 C426 1.419 . S
C424 H428 0.930 . S
C425 C424 1.369 . S
C425 C434 1.429 . S
C426 C424 1.419 . S
C426 C427 1.363 . S
C426 H429 0.929 . S
C427 C426 1.363 . S
C427 C433 1.428 . S
H428 C424 0.930 . S
H429 C426 0.929 . S
S430 N431 1.613 . S
S430 N432 1.610 . S
N431 S430 1.613 . S
N431 C434 1.350 . S
N432 S430 1.610 . S
N432 C433 1.351 . S
C433 C427 1.428 . S
C433 N432 1.351 . S
C433 C434 1.434 . S
C434 C425 1.429 . S
C434 N431 1.350 . S
C434 C433 1.434 . S
C435 C436 1.369 . S
C435 C437 1.419 . S
C435 H439 0.930 . S
C436 C435 1.369 . S
C436 C445 1.429 . S
C437 C435 1.419 . S
C437 C438 1.363 . S
C437 H440 0.929 . S
C438 C437 1.363 . S
C438 C444 1.428 . S
H439 C435 0.930 . S
H440 C437 0.929 . S
S441 N442 1.613 . S
S441 N443 1.610 . S
N442 S441 1.613 . S
N442 C445 1.350 . S
N443 S441 1.610 . S
N443 C444 1.351 . S
C444 C438 1.428 . S
C444 N443 1.351 . S
C444 C445 1.434 . S
C445 C436 1.429 . S
C445 N442 1.350 . S
C445 C444 1.434 . S
C446 C447 1.369 . S
C446 C448 1.419 . S
C446 H450 0.930 1_455 S
C447 C446 1.369 . S
C447 C456 1.429 . S
C448 C446 1.419 . S
C448 C449 1.363 . S
C448 H451 0.929 . S
C449 C448 1.363 . S
C449 C455 1.428 . S
H450 C446 0.930 1_655 S
H451 C448 0.929 . S
S452 N453 1.613 . S
S452 N454 1.610 . S
N453 S452 1.613 . S
N453 C456 1.350 . S
N454 S452 1.610 . S
N454 C455 1.351 . S
C455 C449 1.428 . S
C455 N454 1.351 . S
C455 C456 1.434 . S
C456 C447 1.429 . S
C456 N453 1.350 . S
C456 C455 1.434 . S
C457 C458 1.369 . S
C457 C459 1.419 . S
C457 H461 0.930 . S
C458 C457 1.369 . S
C458 C467 1.429 . S
C459 C457 1.419 . S
C459 C460 1.363 . S
C459 H462 0.929 . S
C460 C459 1.363 . S
C460 C466 1.428 . S
H461 C457 0.930 . S
H462 C459 0.929 . S
S463 N464 1.613 1_655 S
S463 N465 1.610 . S
N464 S463 1.613 1_455 S
N464 C467 1.350 . S
N465 S463 1.610 . S
N465 C466 1.351 1_655 S
C466 C460 1.428 . S
C466 N465 1.351 1_455 S
C466 C467 1.434 . S
C467 C458 1.429 . S
C467 N464 1.350 . S
C467 C466 1.434 . S
C337 C140 1.535 . S
C339 C68 1.539 . S
C348 C236 1.540 . S
C350 C308 1.535 . S
C359 C56 1.534 . S
C361 C152 1.539 . S
C370 C320 1.540 . S
C372 C224 1.535 . S
C381 C322 1.328 . S
C383 C67 1.385 . S
C392 C154 1.326 . S
C394 C235 1.386 . S
C403 C139 1.391 . S
C405 C226 1.334 . S
C414 C307 1.390 . S
C416 C58 1.330 . S
C425 C151 1.386 . S
C427 C238 1.327 . S
C436 C319 1.386 . S
C438 C70 1.327 . S
C447 C310 1.339 . S
C449 C55 1.390 . S
C458 C223 1.390 . S
C460 C142 1.330 . S
