# Generated by pormake.
# Topology vbb, (4)-cn, num edge types: 1
# Building blocks:
#     Node 0, Type 0, BuildingBlock: QUQFOY_clean_sbu_1, # of connection points: 4
#     Node 1, Type 0, BuildingBlock: QUQFOY_clean_sbu_1, # of connection points: 4
#     Node 2, Type 0, BuildingBlock: QUQFOY_clean_sbu_1, # of connection points: 4
#     Node 3, Type 0, BuildingBlock: QUQFOY_clean_sbu_1, # of connection points: 4
#     Node 4, Type 0, BuildingBlock: QUQFOY_clean_sbu_1, # of connection points: 4
#     Node 5, Type 0, BuildingBlock: QUQFOY_clean_sbu_1, # of connection points: 4
#     Node 6, Type 0, BuildingBlock: QUQFOY_clean_sbu_1, # of connection points: 4
#     Node 7, Type 0, BuildingBlock: QUQFOY_clean_sbu_1, # of connection points: 4
#     Node 8, Type 0, BuildingBlock: QUQFOY_clean_sbu_1, # of connection points: 4
#     Node 9, Type 0, BuildingBlock: QUQFOY_clean_sbu_1, # of connection points: 4
#     Node 10, Type 0, BuildingBlock: QUQFOY_clean_sbu_1, # of connection points: 4
#     Node 11, Type 0, BuildingBlock: QUQFOY_clean_sbu_1, # of connection points: 4
#     Node 12, Type 0, BuildingBlock: QUQFOY_clean_sbu_1, # of connection points: 4
#     Node 13, Type 0, BuildingBlock: QUQFOY_clean_sbu_1, # of connection points: 4
#     Node 14, Type 0, BuildingBlock: QUQFOY_clean_sbu_1, # of connection points: 4
#     Node 15, Type 0, BuildingBlock: QUQFOY_clean_sbu_1, # of connection points: 4
#     Node 16, Type 0, BuildingBlock: QUQFOY_clean_sbu_1, # of connection points: 4
#     Node 17, Type 0, BuildingBlock: QUQFOY_clean_sbu_1, # of connection points: 4
#     Node 18, Type 0, BuildingBlock: QUQFOY_clean_sbu_1, # of connection points: 4
#     Node 19, Type 0, BuildingBlock: QUQFOY_clean_sbu_1, # of connection points: 4
#     Node 20, Type 0, BuildingBlock: QUQFOY_clean_sbu_1, # of connection points: 4
#     Node 21, Type 0, BuildingBlock: QUQFOY_clean_sbu_1, # of connection points: 4
#     Node 22, Type 0, BuildingBlock: QUQFOY_clean_sbu_1, # of connection points: 4
#     Node 23, Type 0, BuildingBlock: QUQFOY_clean_sbu_1, # of connection points: 4
#     Node 24, Type 0, BuildingBlock: QUQFOY_clean_sbu_1, # of connection points: 4
#     Node 25, Type 0, BuildingBlock: QUQFOY_clean_sbu_1, # of connection points: 4
#     Node 26, Type 0, BuildingBlock: QUQFOY_clean_sbu_1, # of connection points: 4
#     Node 27, Type 0, BuildingBlock: QUQFOY_clean_sbu_1, # of connection points: 4
#     Node 28, Type 0, BuildingBlock: QUQFOY_clean_sbu_1, # of connection points: 4
#     Node 29, Type 0, BuildingBlock: QUQFOY_clean_sbu_1, # of connection points: 4
#     Node 30, Type 0, BuildingBlock: QUQFOY_clean_sbu_1, # of connection points: 4
#     Node 31, Type 0, BuildingBlock: QUQFOY_clean_sbu_1, # of connection points: 4
#     Edge 32, Type (0, 0), BuildingBlock: XUDNAN_clean_linker_2, # of connection points: 2
#     Edge 33, Type (0, 0), BuildingBlock: XUDNAN_clean_linker_2, # of connection points: 2
#     Edge 34, Type (0, 0), BuildingBlock: XUDNAN_clean_linker_2, # of connection points: 2
#     Edge 35, Type (0, 0), BuildingBlock: XUDNAN_clean_linker_2, # of connection points: 2
#     Edge 36, Type (0, 0), BuildingBlock: XUDNAN_clean_linker_2, # of connection points: 2
#     Edge 37, Type (0, 0), BuildingBlock: XUDNAN_clean_linker_2, # of connection points: 2
#     Edge 38, Type (0, 0), BuildingBlock: XUDNAN_clean_linker_2, # of connection points: 2
#     Edge 39, Type (0, 0), BuildingBlock: XUDNAN_clean_linker_2, # of connection points: 2
#     Edge 40, Type (0, 0), BuildingBlock: XUDNAN_clean_linker_2, # of connection points: 2
#     Edge 41, Type (0, 0), BuildingBlock: XUDNAN_clean_linker_2, # of connection points: 2
#     Edge 42, Type (0, 0), BuildingBlock: XUDNAN_clean_linker_2, # of connection points: 2
#     Edge 43, Type (0, 0), BuildingBlock: XUDNAN_clean_linker_2, # of connection points: 2
#     Edge 44, Type (0, 0), BuildingBlock: XUDNAN_clean_linker_2, # of connection points: 2
#     Edge 45, Type (0, 0), BuildingBlock: XUDNAN_clean_linker_2, # of connection points: 2
#     Edge 46, Type (0, 0), BuildingBlock: XUDNAN_clean_linker_2, # of connection points: 2
#     Edge 47, Type (0, 0), BuildingBlock: XUDNAN_clean_linker_2, # of connection points: 2
#     Edge 48, Type (0, 0), BuildingBlock: XUDNAN_clean_linker_2, # of connection points: 2
#     Edge 49, Type (0, 0), BuildingBlock: XUDNAN_clean_linker_2, # of connection points: 2
#     Edge 50, Type (0, 0), BuildingBlock: XUDNAN_clean_linker_2, # of connection points: 2
#     Edge 51, Type (0, 0), BuildingBlock: XUDNAN_clean_linker_2, # of connection points: 2
#     Edge 52, Type (0, 0), BuildingBlock: XUDNAN_clean_linker_2, # of connection points: 2
#     Edge 53, Type (0, 0), BuildingBlock: XUDNAN_clean_linker_2, # of connection points: 2
#     Edge 54, Type (0, 0), BuildingBlock: XUDNAN_clean_linker_2, # of connection points: 2
#     Edge 55, Type (0, 0), BuildingBlock: XUDNAN_clean_linker_2, # of connection points: 2
#     Edge 56, Type (0, 0), BuildingBlock: XUDNAN_clean_linker_2, # of connection points: 2
#     Edge 57, Type (0, 0), BuildingBlock: XUDNAN_clean_linker_2, # of connection points: 2
#     Edge 58, Type (0, 0), BuildingBlock: XUDNAN_clean_linker_2, # of connection points: 2
#     Edge 59, Type (0, 0), BuildingBlock: XUDNAN_clean_linker_2, # of connection points: 2
#     Edge 60, Type (0, 0), BuildingBlock: XUDNAN_clean_linker_2, # of connection points: 2
#     Edge 61, Type (0, 0), BuildingBlock: XUDNAN_clean_linker_2, # of connection points: 2
#     Edge 62, Type (0, 0), BuildingBlock: XUDNAN_clean_linker_2, # of connection points: 2
#     Edge 63, Type (0, 0), BuildingBlock: XUDNAN_clean_linker_2, # of connection points: 2
#     Edge 64, Type (0, 0), BuildingBlock: XUDNAN_clean_linker_2, # of connection points: 2
#     Edge 65, Type (0, 0), BuildingBlock: XUDNAN_clean_linker_2, # of connection points: 2
#     Edge 66, Type (0, 0), BuildingBlock: XUDNAN_clean_linker_2, # of connection points: 2
#     Edge 67, Type (0, 0), BuildingBlock: XUDNAN_clean_linker_2, # of connection points: 2
#     Edge 68, Type (0, 0), BuildingBlock: XUDNAN_clean_linker_2, # of connection points: 2
#     Edge 69, Type (0, 0), BuildingBlock: XUDNAN_clean_linker_2, # of connection points: 2
#     Edge 70, Type (0, 0), BuildingBlock: XUDNAN_clean_linker_2, # of connection points: 2
#     Edge 71, Type (0, 0), BuildingBlock: XUDNAN_clean_linker_2, # of connection points: 2
#     Edge 72, Type (0, 0), BuildingBlock: XUDNAN_clean_linker_2, # of connection points: 2
#     Edge 73, Type (0, 0), BuildingBlock: XUDNAN_clean_linker_2, # of connection points: 2
#     Edge 74, Type (0, 0), BuildingBlock: XUDNAN_clean_linker_2, # of connection points: 2
#     Edge 75, Type (0, 0), BuildingBlock: XUDNAN_clean_linker_2, # of connection points: 2
#     Edge 76, Type (0, 0), BuildingBlock: XUDNAN_clean_linker_2, # of connection points: 2
#     Edge 77, Type (0, 0), BuildingBlock: XUDNAN_clean_linker_2, # of connection points: 2
#     Edge 78, Type (0, 0), BuildingBlock: XUDNAN_clean_linker_2, # of connection points: 2
#     Edge 79, Type (0, 0), BuildingBlock: XUDNAN_clean_linker_2, # of connection points: 2
#     Edge 80, Type (0, 0), BuildingBlock: XUDNAN_clean_linker_2, # of connection points: 2
#     Edge 81, Type (0, 0), BuildingBlock: XUDNAN_clean_linker_2, # of connection points: 2
#     Edge 82, Type (0, 0), BuildingBlock: XUDNAN_clean_linker_2, # of connection points: 2
#     Edge 83, Type (0, 0), BuildingBlock: XUDNAN_clean_linker_2, # of connection points: 2
#     Edge 84, Type (0, 0), BuildingBlock: XUDNAN_clean_linker_2, # of connection points: 2
#     Edge 85, Type (0, 0), BuildingBlock: XUDNAN_clean_linker_2, # of connection points: 2
#     Edge 86, Type (0, 0), BuildingBlock: XUDNAN_clean_linker_2, # of connection points: 2
#     Edge 87, Type (0, 0), BuildingBlock: XUDNAN_clean_linker_2, # of connection points: 2
#     Edge 88, Type (0, 0), BuildingBlock: XUDNAN_clean_linker_2, # of connection points: 2
#     Edge 89, Type (0, 0), BuildingBlock: XUDNAN_clean_linker_2, # of connection points: 2
#     Edge 90, Type (0, 0), BuildingBlock: XUDNAN_clean_linker_2, # of connection points: 2
#     Edge 91, Type (0, 0), BuildingBlock: XUDNAN_clean_linker_2, # of connection points: 2
#     Edge 92, Type (0, 0), BuildingBlock: XUDNAN_clean_linker_2, # of connection points: 2
#     Edge 93, Type (0, 0), BuildingBlock: XUDNAN_clean_linker_2, # of connection points: 2
#     Edge 94, Type (0, 0), BuildingBlock: XUDNAN_clean_linker_2, # of connection points: 2
#     Edge 95, Type (0, 0), BuildingBlock: XUDNAN_clean_linker_2, # of connection points: 2
# Relax obj value: 0.072
# Max RMSD: 0.229
# Mean RMSD: 0.229
data_MOF--net-vbb--node1-QUQFOY_clean_sbu_1--edge1-XUDNAN_clean_linker_2
_symmetry_space_group_name_H-M    P1
_symmetry_Int_Tables_number       1
_symmetry_cell_setting            triclinic
loop_
_symmetry_equiv_pos_as_xyz
'x, y, z'
_cell_length_a     44.332703
_cell_length_b     38.354023
_cell_length_c     107.36825
_cell_angle_alpha  89.913684
_cell_angle_beta   90.097333
_cell_angle_gamma 90.01721
loop_
_atom_site_label
_atom_site_type_symbol
_atom_site_fract_x
_atom_site_fract_y
_atom_site_fract_z
_atom_type_partial_charge
O0 O 0.4935 0.99594 0.07791 0.0
Cd1 Cd 0.49433 0.98781 0.09684 0.0
Cd2 Cd 0.47378 0.05576 0.0973 0.0
O3 O 0.4659 0.04407 0.07837 0.0
O4 O 0.48105 0.93866 0.10162 0.0
O5 O 0.45345 0.98592 0.10421 0.0
C6 C 0.45591 0.95263 0.10512 0.0
C7 C 0.4427 0.07805 0.11321 0.0
C8 C 0.47907 0.01984 0.07222 0.0
C9 C 0.53698 0.04284 0.106 0.0
O10 O 0.51799 0.06435 0.10156 0.0
O11 O 0.53095 0.01026 0.10632 0.0
O12 O 0.4508 0.09767 0.104 0.0
O13 O 0.44968 0.04558 0.11268 0.0
O14 O 0.73566 0.258 0.083 0.0
Cd15 Cd 0.74516 0.25245 0.10132 0.0
Cd16 Cd 0.77534 0.19732 0.09482 0.0
O17 O 0.77517 0.22629 0.07771 0.0
O18 O 0.74912 0.29872 0.11051 0.0
O19 O 0.78799 0.26861 0.10359 0.0
C20 C 0.77801 0.29599 0.10909 0.0
C21 C 0.80737 0.18687 0.11207 0.0
C22 C 0.75368 0.24711 0.07468 0.0
C23 C 0.71882 0.18044 0.10583 0.0
O24 O 0.73703 0.17011 0.0975 0.0
O25 O 0.72061 0.21157 0.11011 0.0
O26 O 0.81172 0.17051 0.10167 0.0
O27 O 0.7869 0.21054 0.1122 0.0
O28 O 0.5027 0.26187 0.21959 0.0
Cd29 Cd 0.49878 0.25807 0.20042 0.0
Cd30 Cd 0.48205 0.18978 0.20917 0.0
O31 O 0.48136 0.21357 0.22676 0.0
O32 O 0.48938 0.30686 0.1935 0.0
O33 O 0.45742 0.26302 0.19328 0.0
C34 C 0.46267 0.29526 0.191 0.0
C35 C 0.44468 0.16783 0.19593 0.0
C36 C 0.49389 0.24313 0.2287 0.0
C37 C 0.54004 0.19791 0.19446 0.0
O38 O 0.52407 0.18057 0.2021 0.0
O39 O 0.53268 0.22905 0.19142 0.0
O40 O 0.45634 0.14772 0.20435 0.0
O41 O 0.45187 0.20023 0.19621 0.0
O42 O 0.75877 0.01002 0.2208 0.0
Cd43 Cd 0.76546 0.01096 0.20177 0.0
Cd44 Cd 0.78108 0.07966 0.20885 0.0
O45 O 0.77997 0.05925 0.22713 0.0
O46 O 0.77805 0.96239 0.19583 0.0
O47 O 0.80825 1.00795 0.1962 0.0
C48 C 0.80468 0.97526 0.19409 0.0
C49 C 0.81763 0.10517 0.19604 0.0
C50 C 0.76684 0.0303 0.2296 0.0
C51 C 0.72488 0.06873 0.19331 0.0
O52 O 0.73992 0.08759 0.20078 0.0
O53 O 0.73222 0.03703 0.1913 0.0
O54 O 0.80389 0.12386 0.2043 0.0
O55 O 0.8136 0.072 0.19642 0.0
O56 O 0.50156 0.00912 0.97334 0.0
Cd57 Cd 0.51027 1.00553 0.95476 0.0
Cd58 Cd 0.52818 0.94135 0.9612 0.0
O59 O 0.53194 0.9661 0.97888 0.0
O60 O 0.52338 0.05269 0.94749 0.0
O61 O 0.55478 0.00998 0.95202 0.0
C62 C 0.55082 0.04129 0.94809 0.0
C63 C 0.55956 0.92025 0.94521 0.0
C64 C 0.51517 0.99205 0.98182 0.0
C65 C 0.47095 0.94332 0.94849 0.0
O66 O 0.48547 0.92763 0.95701 0.0
O67 O 0.47931 0.97355 0.94471 0.0
O68 O 0.55647 0.90259 0.95543 0.0
O69 O 0.54749 0.95068 0.94477 0.0
O70 O 0.24079 0.77139 0.97831 0.0
Cd71 Cd 0.24105 0.76227 0.9594 0.0
Cd72 Cd 0.2201 0.83073 0.95935 0.0
O73 O 0.21285 0.81933 0.97829 0.0
O74 O 0.22915 0.71182 0.95573 0.0
O75 O 0.19984 0.75728 0.95239 0.0
C76 C 0.20317 0.72399 0.95235 0.0
C77 C 0.18764 0.85082 0.94351 0.0
C78 C 0.22636 0.79483 0.98421 0.0
C79 C 0.28309 0.81729 0.94994 0.0
O80 O 0.26423 0.8384 0.95464 0.0
O81 O 0.27707 0.78471 0.94944 0.0
O82 O 0.19819 0.87228 0.95171 0.0
O83 O 0.19316 0.81822 0.94508 0.0
O84 O 0.5077 0.7579 0.82508 0.0
Cd85 Cd 0.50389 0.74717 0.84375 0.0
Cd86 Cd 0.53147 0.81405 0.84538 0.0
O87 O 0.53699 0.80481 0.82606 0.0
O88 O 0.51496 0.69654 0.84756 0.0
O89 O 0.54362 0.74189 0.8519 0.0
C90 C 0.54036 0.70859 0.85167 0.0
C91 C 0.56501 0.83293 0.86114 0.0
C92 C 0.52314 0.78146 0.81967 0.0
C93 C 0.46617 0.80492 0.85395 0.0
O94 O 0.48816 0.82427 0.85085 0.0
O95 O 0.46774 0.77182 0.8528 0.0
O96 O 0.55451 0.85476 0.85304 0.0
O97 O 0.55943 0.80043 0.85934 0.0
O98 O 0.2452 0.99897 0.82314 0.0
Cd99 Cd 0.2438 1.00301 0.84224 0.0
Cd100 Cd 0.2194 0.94136 0.84093 0.0
O101 O 0.20978 0.95853 0.82276 0.0
O102 O 0.24046 0.05363 0.84752 0.0
O103 O 0.20225 0.01676 0.84793 0.0
C104 C 0.21208 0.04804 0.84948 0.0
C105 C 0.18958 0.927 0.85824 0.0
C106 C 0.22668 0.9803 0.81702 0.0
C107 C 0.28157 0.94117 0.84947 0.0
O108 O 0.26239 0.92393 0.84321 0.0
O109 O 0.27647 0.97324 0.85198 0.0
O110 O 0.19103 0.90627 0.84876 0.0
O111 O 0.20276 0.95682 0.85733 0.0
O112 O 0.50316 0.49492 0.58232 0.0
Cd113 Cd 0.49602 0.5001 0.60105 0.0
Cd114 Cd 0.48234 0.56522 0.59418 0.0
O115 O 0.47549 0.54031 0.57681 0.0
O116 O 0.48349 0.45368 0.60887 0.0
O117 O 0.45192 0.49675 0.60495 0.0
C118 C 0.45621 0.46564 0.60902 0.0
C119 C 0.45296 0.5867 0.61072 0.0
C120 C 0.49034 0.51289 0.57386 0.0
C121 C 0.53967 0.55866 0.60634 0.0
O122 O 0.5263 0.5749 0.59763 0.0
O123 O 0.5289 0.53016 0.6107 0.0
O124 O 0.45569 0.60482 0.60058 0.0
O125 O 0.46455 0.55603 0.61084 0.0
O126 O 0.75511 0.76092 0.57762 0.0
Cd127 Cd 0.75735 0.76339 0.59664 0.0
Cd128 Cd 0.78148 0.70118 0.59506 0.0
O129 O 0.7919 0.72203 0.57728 0.0
O130 O 0.77049 0.811 0.60334 0.0
O131 O 0.80089 0.76602 0.60099 0.0
C132 C 0.79738 0.79804 0.60413 0.0
C133 C 0.80911 0.68241 0.61272 0.0
C134 C 0.77459 0.74356 0.57155 0.0
C135 C 0.71962 0.70096 0.60295 0.0
O136 O 0.73832 0.68482 0.59614 0.0
O137 O 0.72523 0.73232 0.60632 0.0
O138 O 0.80935 0.66438 0.60253 0.0
O139 O 0.79517 0.71179 0.61253 0.0
O140 O 0.50037 0.76933 0.72038 0.0
Cd141 Cd 0.49537 0.76772 0.70121 0.0
Cd142 Cd 0.48013 0.69828 0.70845 0.0
O143 O 0.4787 0.72004 0.72647 0.0
O144 O 0.48395 0.81629 0.69466 0.0
O145 O 0.45296 0.77152 0.69514 0.0
C146 C 0.45727 0.80385 0.69267 0.0
C147 C 0.44498 0.67513 0.69444 0.0
C148 C 0.49125 0.74924 0.72907 0.0
C149 C 0.53668 0.70896 0.6937 0.0
O150 O 0.52219 0.69044 0.70145 0.0
O151 O 0.52854 0.74015 0.69116 0.0
O152 O 0.45643 0.65532 0.703 0.0
O153 O 0.4506 0.70792 0.69506 0.0
O154 O 0.74956 0.49937 0.71927 0.0
Cd155 Cd 0.75311 0.50439 0.70014 0.0
Cd156 Cd 0.77305 0.5705 0.70931 0.0
O157 O 0.77365 0.54551 0.72674 0.0
O158 O 0.76126 0.45583 0.69288 0.0
O159 O 0.79427 0.49867 0.69303 0.0
C160 C 0.78825 0.46674 0.69053 0.0
C161 C 0.81002 0.59345 0.6961 0.0
C162 C 0.75977 0.51665 0.7285 0.0
C163 C 0.7143 0.56689 0.69486 0.0
O164 O 0.7311 0.58232 0.70271 0.0
O165 O 0.72032 0.53579 0.69136 0.0
O166 O 0.79892 0.61271 0.70485 0.0
O167 O 0.80275 0.56106 0.69602 0.0
O168 O 0.51242 0.51284 0.47796 0.0
Cd169 Cd 0.50926 0.52412 0.45923 0.0
Cd170 Cd 0.53532 0.45639 0.45767 0.0
O171 O 0.53915 0.46394 0.47705 0.0
O172 O 0.52145 0.57436 0.45534 0.0
O173 O 0.54886 0.52815 0.45086 0.0
C174 C 0.54628 0.56153 0.45099 0.0
C175 C 0.57002 0.43605 0.44274 0.0
C176 C 0.52611 0.48787 0.4834 0.0
C177 C 0.47074 0.4681 0.44831 0.0
O178 O 0.49238 0.44807 0.45128 0.0
O179 O 0.47264 0.50098 0.44998 0.0
O180 O 0.55748 0.41465 0.45047 0.0
O181 O 0.56575 0.4688 0.44455 0.0
O182 O 0.25079 0.27095 0.47656 0.0
Cd183 Cd 0.24959 0.26862 0.45743 0.0
Cd184 Cd 0.22404 0.33003 0.45936 0.0
O185 O 0.21504 0.31094 0.47735 0.0
O186 O 0.24712 0.21838 0.45163 0.0
O187 O 0.20843 0.25454 0.45142 0.0
C188 C 0.21871 0.2236 0.44959 0.0
C189 C 0.19311 0.34455 0.44232 0.0
C190 C 0.23207 0.28879 0.48286 0.0
C191 C 0.28626 0.33188 0.45076 0.0
O192 O 0.26679 0.34844 0.45707 0.0
O193 O 0.28172 0.29981 0.44806 0.0
O194 O 0.19457 0.3648 0.45194 0.0
O195 O 0.20713 0.3152 0.44292 0.0
O196 O 0.51079 0.27031 0.32435 0.0
Cd197 Cd 0.51113 0.26632 0.34341 0.0
Cd198 Cd 0.53324 0.33184 0.34193 0.0
O199 O 0.54306 0.3143 0.32378 0.0
O200 O 0.52236 0.21709 0.34914 0.0
O201 O 0.55324 0.26212 0.3496 0.0
C202 C 0.549 0.22937 0.35141 0.0
C203 C 0.56315 0.35233 0.35858 0.0
C204 C 0.52787 0.2906 0.31818 0.0
C205 C 0.47042 0.32605 0.35033 0.0
O206 O 0.4892 0.34475 0.34441 0.0
O207 O 0.47654 0.29408 0.3527 0.0
O208 O 0.55909 0.37138 0.34876 0.0
O209 O 0.5524 0.32121 0.35842 0.0
O210 O 0.24133 0.50297 0.32348 0.0
Cd211 Cd 0.24386 0.51239 0.34233 0.0
Cd212 Cd 0.21761 0.44453 0.34293 0.0
O213 O 0.21386 0.45452 0.32366 0.0
O214 O 0.23121 0.56215 0.34668 0.0
O215 O 0.20379 0.51533 0.35032 0.0
C216 C 0.20615 0.54872 0.35057 0.0
C217 C 0.18293 0.42262 0.3576 0.0
C218 C 0.22731 0.47895 0.31767 0.0
C219 C 0.28193 0.45518 0.35275 0.0
O220 O 0.26046 0.43553 0.34929 0.0
O221 O 0.28001 0.48825 0.35161 0.0
O222 O 0.19557 0.402 0.34966 0.0
O223 O 0.18705 0.45554 0.35615 0.0
O224 O 0.99704 0.01328 0.57738 0.0
Cd225 Cd 0.99777 1.00572 0.59634 0.0
Cd226 Cd 0.97003 0.06958 0.59654 0.0
O227 O 0.96543 0.05802 0.57737 0.0
O228 O 0.99379 0.95452 0.60056 0.0
O229 O 0.95738 0.99311 0.60314 0.0
C230 C 0.96621 0.96119 0.60366 0.0
C231 C 0.93532 0.0852 0.61209 0.0
C232 C 0.98083 0.03511 0.57145 0.0
C233 C 0.03322 0.06523 0.60666 0.0
O234 O 0.01221 0.08402 0.60225 0.0
O235 O 0.03148 0.03206 0.60626 0.0
O236 O 0.94357 0.10764 0.60376 0.0
O237 O 0.94384 0.05339 0.61061 0.0
O238 O 0.2536 0.2582 0.5815 0.0
Cd239 Cd 0.26017 0.25417 0.60042 0.0
Cd240 Cd 0.27825 0.18948 0.59238 0.0
O241 O 0.2803 0.21343 0.5747 0.0
O242 O 0.26267 0.3034 0.60741 0.0
O243 O 0.30169 0.26812 0.60617 0.0
C244 C 0.29127 0.29839 0.60889 0.0
C245 C 0.3133 0.17265 0.60754 0.0
C246 C 0.26483 0.24095 0.57251 0.0
C247 C 0.22045 0.19282 0.60618 0.0
O248 O 0.23573 0.17693 0.59795 0.0
O249 O 0.22847 0.22312 0.60988 0.0
O250 O 0.30624 0.15118 0.5987 0.0
O251 O 0.30296 0.20388 0.6068 0.0
O252 O 0.99909 0.26846 0.72047 0.0
Cd253 Cd 0.99053 0.26278 0.70172 0.0
Cd254 Cd 0.97504 0.19871 0.70949 0.0
O255 O 0.97297 0.22302 0.7271 0.0
O256 O 0.98419 0.31043 0.6939 0.0
O257 O 0.94731 0.27296 0.6971 0.0
C258 C 0.95573 0.3033 0.69336 0.0
C259 C 0.94047 0.17679 0.69502 0.0
C260 C 0.98805 0.25074 0.72941 0.0
C261 C 0.03095 0.20245 0.6952 0.0
O262 O 0.01733 0.186 0.70378 0.0
O263 O 0.02192 0.23254 0.69169 0.0
O264 O 0.9474 0.15865 0.7048 0.0
O265 O 0.95029 0.20834 0.69444 0.0
O266 O 0.24597 1.00391 0.71812 0.0
Cd267 Cd 0.2545 0.00912 0.6995 0.0
Cd268 Cd 0.27377 0.07114 0.70703 0.0
O269 O 0.27693 0.04538 0.72445 0.0
O270 O 0.25986 0.96118 0.69173 0.0
O271 O 0.29761 0.99702 0.69553 0.0
C272 C 0.28859 0.96705 0.69171 0.0
C273 C 0.30701 0.08964 0.69136 0.0
C274 C 0.25953 0.01963 0.72693 0.0
C275 C 0.21586 0.0718 0.69416 0.0
O276 O 0.23119 0.08637 0.7027 0.0
O277 O 0.22384 0.04195 0.68996 0.0
O278 O 0.30361 0.10828 0.70132 0.0
O279 O 0.29401 0.0597 0.69107 0.0
O280 O 0.00789 0.01894 0.47251 0.0
Cd281 Cd 0.01448 0.01793 0.45349 0.0
Cd282 Cd 0.02738 0.9486 0.46037 0.0
O283 O 0.02791 0.96888 0.47867 0.0
O284 O 0.02737 0.06664 0.44781 0.0
O285 O 0.05742 0.02096 0.44797 0.0
C286 C 0.054 0.05381 0.4461 0.0
C287 C 0.06307 0.92319 0.44713 0.0
C288 C 0.01575 0.99829 0.48124 0.0
C289 C 0.97145 0.96226 0.44517 0.0
O290 O 0.98556 0.94258 0.4527 0.0
O291 O 0.98037 0.99337 0.44302 0.0
O292 O 0.04961 0.9043 0.45543 0.0
O293 O 0.05898 0.95635 0.44756 0.0
O294 O 0.75584 0.77158 0.47266 0.0
Cd295 Cd 0.74649 0.77409 0.45394 0.0
Cd296 Cd 0.72881 0.83794 0.46123 0.0
O297 O 0.72682 0.81475 0.47911 0.0
O298 O 0.74149 0.72458 0.44738 0.0
O299 O 0.70343 0.76059 0.45015 0.0
C300 C 0.71271 0.72995 0.44721 0.0
C301 C 0.69458 0.85571 0.44582 0.0
C302 C 0.7438 0.78857 0.48153 0.0
C303 C 0.78576 0.83498 0.44729 0.0
O304 O 0.77137 0.85041 0.45588 0.0
O305 O 0.77705 0.80496 0.44351 0.0
O306 O 0.70154 0.8768 0.4548 0.0
O307 O 0.70449 0.82426 0.4465 0.0
O308 O 0.00617 0.7661 0.32715 0.0
Cd309 Cd 0.00608 0.75986 0.34607 0.0
Cd310 Cd 0.03552 0.8197 0.34638 0.0
O311 O 0.04358 0.8042 0.32772 0.0
O312 O 0.01005 0.70895 0.35092 0.0
O313 O 0.04755 0.7468 0.35178 0.0
C314 C 0.03834 0.71513 0.35294 0.0
C315 C 0.06614 0.83394 0.36358 0.0
C316 C 0.02593 0.78419 0.3215 0.0
C317 C 0.97229 0.82311 0.35443 0.0
O318 O 0.99371 0.83975 0.34933 0.0
O319 O 0.97373 0.79 0.35563 0.0
O320 O 0.06485 0.8543 0.35397 0.0
O321 O 0.05287 0.80415 0.36279 0.0
O322 O 0.74712 0.01153 0.3257 0.0
Cd323 Cd 0.74597 0.01564 0.34478 0.0
Cd324 Cd 0.72329 0.95306 0.34374 0.0
O325 O 0.71366 0.96893 0.32533 0.0
O326 O 0.7419 0.06619 0.3498 0.0
O327 O 0.70454 0.02821 0.35088 0.0
C328 C 0.71381 0.05985 0.35211 0.0
C329 C 0.69374 0.93646 0.36094 0.0
C330 C 0.7296 0.99166 0.31957 0.0
C331 C 0.78581 0.95616 0.35224 0.0
O332 O 0.76684 0.93771 0.34632 0.0
O333 O 0.78006 0.98825 0.35439 0.0
O334 O 0.69656 0.91603 0.35143 0.0
O335 O 0.70513 0.96729 0.36009 0.0
O336 O 0.99361 0.48903 0.08558 0.0
Cd337 Cd 0.98604 0.4943 0.10443 0.0
Cd338 Cd 0.9777 0.56019 0.09671 0.0
O339 O 0.97111 0.53713 0.07912 0.0
O340 O 0.97254 0.44726 0.11133 0.0
O341 O 0.94231 0.49252 0.10923 0.0
C342 C 0.94576 0.46033 0.11225 0.0
C343 C 0.94811 0.58747 0.11192 0.0
C344 C 0.98388 0.50802 0.0767 0.0
C345 C 0.03354 0.54724 0.11022 0.0
O346 O 0.02189 0.56445 0.10133 0.0
O347 O 0.02052 0.52002 0.11454 0.0
O348 O 0.95592 0.60445 0.10199 0.0
O349 O 0.95437 0.55476 0.11237 0.0
O350 O 0.23659 0.76192 0.0829 0.0
Cd351 Cd 0.24664 0.755 0.10127 0.0
Cd352 Cd 0.26882 0.69637 0.09362 0.0
O353 O 0.2723 0.72562 0.07687 0.0
O354 O 0.25445 0.80127 0.10993 0.0
O355 O 0.29059 0.76607 0.10356 0.0
C356 C 0.28296 0.79523 0.10852 0.0
C357 C 0.30106 0.67755 0.10978 0.0
C358 C 0.25298 0.74943 0.07428 0.0
C359 C 0.21181 0.68914 0.10588 0.0
O360 O 0.22682 0.67767 0.09669 0.0
O361 O 0.21913 0.71832 0.11083 0.0
O362 O 0.30038 0.66092 0.09928 0.0
O363 O 0.2857 0.70586 0.11053 0.0
O364 O 0.01039 0.7653 0.22218 0.0
Cd365 Cd 0.00281 0.76274 0.20329 0.0
Cd366 Cd 0.98275 0.69911 0.21047 0.0
O367 O 0.98023 0.72263 0.22823 0.0
O368 O 0.99957 0.81211 0.19633 0.0
O369 O 0.96055 0.77725 0.19866 0.0
C370 C 0.97075 0.8074 0.19561 0.0
C371 C 0.94885 0.68302 0.19472 0.0
C372 C 0.99733 0.74851 0.23088 0.0
C373 C 0.04042 0.6999 0.19707 0.0
O374 O 0.02518 0.68493 0.20554 0.0
O375 O 0.03291 0.73036 0.19328 0.0
O376 O 0.9542 0.66173 0.20383 0.0
O377 O 0.96018 0.7138 0.19542 0.0
O378 O 0.25341 0.49692 0.21878 0.0
Cd379 Cd 0.26089 0.50116 0.19989 0.0
Cd380 Cd 0.27666 0.56648 0.20755 0.0
O381 O 0.27885 0.54307 0.2253 0.0
O382 O 0.26647 0.45256 0.19265 0.0
O383 O 0.30373 0.48992 0.19507 0.0
C384 C 0.29496 0.45929 0.19186 0.0
C385 C 0.3112 0.58619 0.19272 0.0
C386 C 0.26424 0.51505 0.22766 0.0
C387 C 0.2203 0.56131 0.19322 0.0
O388 O 0.23425 0.57793 0.20165 0.0
O389 O 0.22911 0.53108 0.1898 0.0
O390 O 0.30313 0.60656 0.20174 0.0
O391 O 0.3024 0.55427 0.19314 0.0
O392 O 0.00983 0.49647 0.98094 0.0
Cd393 Cd 0.01003 0.50407 0.96193 0.0
Cd394 Cd 0.03074 0.4383 0.96217 0.0
O395 O 0.03877 0.44949 0.98106 0.0
O396 O 0.01292 0.55579 0.95824 0.0
O397 O 0.05046 0.51899 0.95528 0.0
C398 C 0.04067 0.55057 0.95508 0.0
C399 C 0.062 0.42563 0.94514 0.0
C400 C 0.02466 0.47349 0.98694 0.0
C401 C 0.96805 0.44765 0.95324 0.0
O402 O 0.98681 0.427 0.95829 0.0
O403 O 0.97441 0.48003 0.95218 0.0
O404 O 0.05572 0.40172 0.95325 0.0
O405 O 0.05301 0.4569 0.94745 0.0
O406 O 0.74262 0.26417 0.97835 0.0
Cd407 Cd 0.74398 0.25857 0.95933 0.0
Cd408 Cd 0.71363 0.31882 0.95939 0.0
O409 O 0.70672 0.3042 0.97814 0.0
O410 O 0.74219 0.20759 0.95447 0.0
O411 O 0.70397 0.24399 0.95235 0.0
C412 C 0.71425 0.2127 0.95149 0.0
C413 C 0.68088 0.33447 0.94306 0.0
C414 C 0.72387 0.28322 0.98417 0.0
C415 C 0.77753 0.32206 0.95103 0.0
O416 O 0.75542 0.33844 0.9557 0.0
O417 O 0.77689 0.28885 0.95022 0.0
O418 O 0.68477 0.35494 0.95249 0.0
O419 O 0.69276 0.30387 0.94366 0.0
O420 O 0.00881 0.26305 0.82534 0.0
Cd421 Cd 0.00808 0.25459 0.84422 0.0
Cd422 Cd 0.03232 0.3209 0.84469 0.0
O423 O 0.03886 0.30922 0.82563 0.0
O424 O 0.0207 0.2048 0.84845 0.0
O425 O 0.04938 0.2511 0.85131 0.0
C426 C 0.04652 0.21773 0.85168 0.0
C427 C 0.06411 0.34398 0.86028 0.0
C428 C 0.02434 0.2858 0.81957 0.0
C429 C 0.96851 0.31168 0.85373 0.0
O430 O 0.9888 0.33172 0.84945 0.0
O431 O 0.97218 0.27863 0.85375 0.0
O432 O 0.05547 0.36303 0.851 0.0
O433 O 0.05777 0.31125 0.85988 0.0
O434 O 0.7368 0.4868 0.82397 0.0
Cd435 Cd 0.73557 0.49157 0.84308 0.0
Cd436 Cd 0.71445 0.42614 0.84139 0.0
O437 O 0.70671 0.4409 0.8228 0.0
O438 O 0.73226 0.54273 0.84769 0.0
O439 O 0.69454 0.50552 0.84932 0.0
C440 C 0.7042 0.53704 0.85023 0.0
C441 C 0.68244 0.4116 0.85798 0.0
C442 C 0.72149 0.46541 0.81747 0.0
C443 C 0.77661 0.43325 0.85101 0.0
O444 O 0.75822 0.41383 0.84518 0.0
O445 O 0.77017 0.46533 0.85286 0.0
O446 O 0.68883 0.38867 0.84956 0.0
O447 O 0.69199 0.44296 0.85628 0.0
H448 H 0.44685 0.05021 0.13644 0.0
H449 H 0.41238 0.14006 0.11645 0.0
H450 H 0.3987 0.16758 0.13653 0.0
H451 H 0.39421 0.05277 0.16391 0.0
H452 H 0.4242 0.04118 0.17449 0.0
H453 H 0.42459 0.02521 0.1587 0.0
H454 H 0.47787 0.05157 0.1555 0.0
H455 H 0.47766 0.06741 0.17122 0.0
H456 H 0.48385 0.09729 0.15851 0.0
H457 H 0.39557 0.1886 0.15857 0.0
H458 H 0.40831 0.20434 0.18018 0.0
H459 H 0.44752 0.10204 0.18592 0.0
C460 C 0.43531 0.07509 0.13625 0.0
C461 C 0.43002 0.09269 0.12486 0.0
C462 C 0.41616 0.12589 0.12505 0.0
C463 C 0.40822 0.14161 0.13641 0.0
C464 C 0.41451 0.12391 0.14751 0.0
C465 C 0.42792 0.09139 0.1475 0.0
C466 C 0.43683 0.08025 0.16057 0.0
C467 C 0.41888 0.04793 0.16466 0.0
C468 C 0.47107 0.07378 0.1615 0.0
C469 C 0.42745 0.11215 0.16794 0.0
C470 C 0.41383 0.1366 0.16027 0.0
C471 C 0.40572 0.16941 0.16468 0.0
C472 C 0.41299 0.17809 0.17701 0.0
C473 C 0.42863 0.15428 0.18481 0.0
C474 C 0.43477 0.12039 0.18033 0.0
H475 H 0.80423 0.16766 0.18511 0.0
H476 H 0.85967 0.07552 0.18081 0.0
H477 H 0.87049 0.09225 0.15906 0.0
H478 H 0.76859 0.15999 0.15773 0.0
H479 H 0.76572 0.20573 0.15404 0.0
H480 H 0.76868 0.19205 0.16999 0.0
H481 H 0.81575 0.23119 0.17306 0.0
H482 H 0.8127 0.24551 0.15711 0.0
H483 H 0.84745 0.22673 0.1627 0.0
H484 H 0.86651 0.11226 0.13667 0.0
H485 H 0.84955 0.13501 0.11621 0.0
H486 H 0.79685 0.21408 0.13511 0.0
C487 C 0.82004 0.15211 0.17982 0.0
C488 C 0.83166 0.1207 0.18477 0.0
C489 C 0.85101 0.10005 0.17731 0.0
C490 C 0.85719 0.10931 0.1649 0.0
C491 C 0.84396 0.1394 0.16005 0.0
C492 C 0.82613 0.16081 0.16735 0.0
C493 C 0.81116 0.18888 0.15953 0.0
C494 C 0.77651 0.18649 0.16038 0.0
C495 C 0.82245 0.22523 0.16333 0.0
C496 C 0.82232 0.17909 0.14666 0.0
C497 C 0.84155 0.1508 0.14712 0.0
C498 C 0.85211 0.135 0.13623 0.0
C499 C 0.84236 0.14807 0.12463 0.0
C500 C 0.82214 0.17658 0.12399 0.0
C501 C 0.81277 0.19267 0.13521 0.0
H502 H 0.56095 0.89747 0.8721 0.0
H503 H 0.59589 0.7932 0.87803 0.0
H504 H 0.60563 0.80723 0.90009 0.0
H505 H 0.61193 0.94343 0.89531 0.0
H506 H 0.58175 0.972 0.9 0.0
H507 H 0.58342 0.95618 0.88421 0.0
H508 H 0.52914 0.93189 0.88638 0.0
H509 H 0.5274 0.94726 0.90216 0.0
H510 H 0.5207 0.90186 0.89883 0.0
H511 H 0.60243 0.82878 0.92232 0.0
H512 H 0.58892 0.85724 0.94226 0.0
H513 H 0.55747 0.94782 0.92179 0.0
C514 C 0.57196 0.87814 0.87789 0.0
C515 C 0.578 0.84437 0.87325 0.0
C516 C 0.59135 0.81938 0.8813 0.0
C517 C 0.59695 0.82711 0.89389 0.0
C518 C 0.58935 0.86008 0.89833 0.0
C519 C 0.57759 0.88543 0.89051 0.0
C520 C 0.56829 0.91744 0.89783 0.0
C521 C 0.58751 0.94914 0.89412 0.0
C522 C 0.53439 0.92502 0.8962 0.0
C523 C 0.57548 0.90564 0.911 0.0
C524 C 0.5879 0.87262 0.91112 0.0
C525 C 0.59346 0.85502 0.92231 0.0
C526 C 0.58571 0.87135 0.93361 0.0
C527 C 0.57256 0.90498 0.93366 0.0
C528 C 0.56814 0.92245 0.92216 0.0
H529 H 0.19772 0.95745 0.881 0.0
H530 H 0.15456 0.86932 0.86304 0.0
H531 H 0.14093 0.84552 0.8837 0.0
H532 H 0.23248 0.9102 0.90378 0.0
H533 H 0.22887 0.94219 0.91596 0.0
H534 H 0.22952 0.95587 0.89996 0.0
H535 H 0.17835 0.9874 0.9029 0.0
H536 H 0.17755 0.97379 0.91898 0.0
H537 H 0.14641 0.96348 0.90881 0.0
H538 H 0.13913 0.82684 0.90609 0.0
H539 H 0.15102 0.81359 0.92805 0.0
H540 H 0.19595 0.91348 0.93162 0.0
C541 C 0.18441 0.93379 0.88137 0.0
C542 C 0.1768 0.9155 0.87036 0.0
C543 C 0.16031 0.884 0.87132 0.0
C544 C 0.15242 0.87035 0.88303 0.0
C545 C 0.16113 0.88849 0.89372 0.0
C546 C 0.1767 0.91964 0.89299 0.0
C547 C 0.18687 0.93175 0.90578 0.0
C548 C 0.22147 0.93518 0.9064 0.0
C549 C 0.17136 0.96615 0.90932 0.0
C550 C 0.17567 0.90188 0.9138 0.0
C551 C 0.16035 0.87753 0.90669 0.0
C552 C 0.15049 0.84608 0.91178 0.0
C553 C 0.15732 0.83879 0.92428 0.0
C554 C 0.17397 0.86274 0.93162 0.0
C555 C 0.18234 0.89517 0.92638 0.0
H556 H 0.46034 0.56094 0.63415 0.0
H557 H 0.41899 0.64646 0.61392 0.0
H558 H 0.40384 0.67322 0.63398 0.0
H559 H 0.4077 0.55764 0.66102 0.0
H560 H 0.43797 0.54916 0.67184 0.0
H561 H 0.44058 0.53388 0.65601 0.0
H562 H 0.49148 0.5664 0.65337 0.0
H563 H 0.48909 0.5815 0.66917 0.0
H564 H 0.49334 0.61244 0.65665 0.0
H565 H 0.39877 0.69386 0.65623 0.0
H566 H 0.40811 0.70935 0.67819 0.0
H567 H 0.45423 0.61097 0.68385 0.0
C568 C 0.44725 0.58477 0.63388 0.0
C569 C 0.44034 0.60131 0.62242 0.0
C570 C 0.42416 0.63309 0.62255 0.0
C571 C 0.4154 0.64837 0.63391 0.0
C572 C 0.42311 0.63162 0.64506 0.0
C573 C 0.43883 0.60055 0.64509 0.0
C574 C 0.44791 0.58999 0.6582 0.0
C575 C 0.43262 0.55562 0.66199 0.0
C576 C 0.48249 0.58746 0.65941 0.0
C577 C 0.43551 0.6204 0.66558 0.0
C578 C 0.42078 0.64382 0.65786 0.0
C579 C 0.40977 0.6754 0.66236 0.0
C580 C 0.41507 0.68391 0.6749 0.0
C581 C 0.43145 0.66111 0.68282 0.0
C582 C 0.44076 0.6284 0.67817 0.0
H583 H 0.80208 0.65806 0.68575 0.0
H584 H 0.8492 0.56021 0.68065 0.0
H585 H 0.86129 0.57684 0.65902 0.0
H586 H 0.76601 0.65696 0.6583 0.0
H587 H 0.76757 0.70299 0.65495 0.0
H588 H 0.76916 0.68808 0.67081 0.0
H589 H 0.81968 0.72068 0.67416 0.0
H590 H 0.81804 0.7363 0.65833 0.0
H591 H 0.85077 0.71283 0.66374 0.0
H592 H 0.85873 0.59812 0.63687 0.0
H593 H 0.84458 0.6243 0.61659 0.0
H594 H 0.79967 0.70863 0.63601 0.0
C595 C 0.81642 0.64108 0.6803 0.0
C596 C 0.82525 0.60816 0.68498 0.0
C597 C 0.84269 0.58583 0.67734 0.0
C598 C 0.84958 0.59502 0.665 0.0
C599 C 0.83901 0.62677 0.66041 0.0
C600 C 0.82325 0.64979 0.6679 0.0
C601 C 0.81107 0.68007 0.6603 0.0
C602 C 0.77642 0.6821 0.66114 0.0
C603 C 0.82578 0.71451 0.66438 0.0
C604 C 0.82125 0.66971 0.64735 0.0
C605 C 0.83764 0.6391 0.64759 0.0
C606 C 0.84664 0.62261 0.6366 0.0
C607 C 0.83843 0.63759 0.62511 0.0
C608 C 0.82139 0.66877 0.62467 0.0
C609 C 0.81332 0.68522 0.63599 0.0
H610 H 0.56459 0.37186 0.43171 0.0
H611 H 0.60352 0.4745 0.42638 0.0
H612 H 0.61339 0.46062 0.40435 0.0
H613 H 0.61449 0.32417 0.40837 0.0
H614 H 0.58329 0.29729 0.40349 0.0
H615 H 0.58557 0.3123 0.41937 0.0
H616 H 0.5322 0.33915 0.41729 0.0
H617 H 0.52987 0.32473 0.40141 0.0
H618 H 0.52483 0.37023 0.40504 0.0
H619 H 0.60907 0.4405 0.38209 0.0
H620 H 0.59426 0.41388 0.36198 0.0
H621 H 0.55969 0.32375 0.3818 0.0
C622 C 0.57655 0.39076 0.42607 0.0
C623 C 0.58357 0.42413 0.43084 0.0
C624 C 0.5982 0.44862 0.423 0.0
C625 C 0.60388 0.44099 0.41043 0.0
C626 C 0.59513 0.40856 0.40582 0.0
C627 C 0.58231 0.38354 0.41347 0.0
C628 C 0.57182 0.35233 0.40597 0.0
C629 C 0.58988 0.31958 0.40951 0.0
C630 C 0.53767 0.34629 0.40752 0.0
C631 C 0.57942 0.36439 0.39289 0.0
C632 C 0.59314 0.39673 0.39297 0.0
C633 C 0.59913 0.41473 0.38192 0.0
C634 C 0.59058 0.39948 0.37053 0.0
C635 C 0.57626 0.36651 0.37027 0.0
C636 C 0.57131 0.34859 0.38162 0.0
H637 H 0.19292 0.35976 0.36903 0.0
H638 H 0.14549 0.45777 0.37336 0.0
H639 H 0.13553 0.44358 0.39539 0.0
H640 H 0.14655 0.3073 0.39242 0.0
H641 H 0.17981 0.28463 0.3977 0.0
H642 H 0.17684 0.2985 0.38169 0.0
H643 H 0.2274 0.33181 0.3839 0.0
H644 H 0.23035 0.31854 0.3999 0.0
H645 H 0.23139 0.36421 0.39594 0.0
H646 H 0.14006 0.42478 0.41775 0.0
H647 H 0.15633 0.40124 0.43816 0.0
H648 H 0.20015 0.31504 0.41937 0.0
C649 C 0.17907 0.37737 0.37443 0.0
C650 C 0.16956 0.40962 0.3694 0.0
C651 C 0.15263 0.43268 0.37696 0.0
C652 C 0.14691 0.42486 0.38951 0.0
C653 C 0.15806 0.39372 0.3944 0.0
C654 C 0.17337 0.37002 0.38704 0.0
C655 C 0.18632 0.34063 0.39486 0.0
C656 C 0.17149 0.30569 0.39147 0.0
C657 C 0.22089 0.33873 0.39357 0.0
C658 C 0.17712 0.35232 0.4078 0.0
C659 C 0.16051 0.38276 0.40735 0.0
C660 C 0.15234 0.40043 0.4182 0.0
C661 C 0.16174 0.38693 0.42977 0.0
C662 C 0.17913 0.35603 0.43041 0.0
C663 C 0.18622 0.33823 0.41925 0.0
H664 H 0.93449 0.15062 0.62237 0.0
H665 H 0.90805 0.04361 0.62945 0.0
H666 H 0.89785 0.0583 0.65141 0.0
H667 H 0.97536 0.16076 0.64864 0.0
H668 H 0.96561 0.20557 0.65165 0.0
H669 H 0.96409 0.18903 0.63603 0.0
H670 H 0.90814 0.2079 0.63417 0.0
H671 H 0.90956 0.22484 0.64982 0.0
H672 H 0.88127 0.19318 0.64562 0.0
H673 H 0.90056 0.08153 0.67334 0.0
H674 H 0.9141 0.11193 0.69289 0.0
H675 H 0.93754 0.20413 0.67157 0.0
C676 C 0.92514 0.1307 0.62839 0.0
C677 C 0.92166 0.09607 0.62412 0.0
C678 C 0.91054 0.07042 0.63245 0.0
C679 C 0.9047 0.07853 0.64497 0.0
C680 C 0.90983 0.11252 0.64906 0.0
C681 C 0.91937 0.13836 0.64096 0.0
C682 C 0.92675 0.17164 0.64794 0.0
C683 C 0.95991 0.18234 0.64595 0.0
C684 C 0.90513 0.20113 0.64416 0.0
C685 C 0.92117 0.16005 0.66126 0.0
C686 C 0.91106 0.12601 0.66173 0.0
C687 C 0.90766 0.10851 0.67307 0.0
C688 C 0.9154 0.12598 0.68415 0.0
C689 C 0.92641 0.16063 0.68384 0.0
C690 C 0.92842 0.178 0.67222 0.0
H691 H 0.31138 0.10793 0.61834 0.0
H692 H 0.34492 0.21287 0.62387 0.0
H693 H 0.35565 0.19928 0.64589 0.0
H694 H 0.27143 0.10393 0.64477 0.0
H695 H 0.27823 0.05877 0.64849 0.0
H696 H 0.2804 0.07328 0.63261 0.0
H697 H 0.33487 0.04936 0.63091 0.0
H698 H 0.33277 0.03431 0.6468 0.0
H699 H 0.36297 0.06285 0.64206 0.0
H700 H 0.3524 0.17868 0.6681 0.0
H701 H 0.33746 0.15179 0.68814 0.0
H702 H 0.30682 0.05993 0.66828 0.0
C703 C 0.32253 0.12738 0.62402 0.0
C704 C 0.32785 0.16124 0.61931 0.0
C705 C 0.34111 0.18657 0.62721 0.0
C706 C 0.34724 0.1791 0.63977 0.0
C707 C 0.34016 0.14605 0.64434 0.0
C708 C 0.32854 0.12037 0.63664 0.0
C709 C 0.31913 0.08865 0.64415 0.0
C710 C 0.28531 0.08073 0.6424 0.0
C711 C 0.33861 0.05691 0.64078 0.0
C712 C 0.32588 0.10115 0.65727 0.0
C713 C 0.33841 0.13411 0.6572 0.0
C714 C 0.34338 0.15246 0.66826 0.0
C715 C 0.33481 0.13701 0.67962 0.0
C716 C 0.32135 0.10355 0.67986 0.0
C717 C 0.3177 0.0852 0.66851 0.0
H718 H 0.05327 0.80798 0.38667 0.0
H719 H 0.10429 0.88915 0.36806 0.0
H720 H 0.11712 0.91483 0.38853 0.0
H721 H 0.01929 0.86231 0.40768 0.0
H722 H 0.01895 0.83192 0.4205 0.0
H723 H 0.01917 0.81602 0.40478 0.0
H724 H 0.06727 0.77995 0.40954 0.0
H725 H 0.06722 0.79588 0.42533 0.0
H726 H 0.10019 0.80146 0.41573 0.0
H727 H 0.11801 0.93645 0.41063 0.0
H728 H 0.10462 0.95406 0.43201 0.0
H729 H 0.05207 0.85955 0.43637 0.0
C730 C 0.06813 0.83038 0.38691 0.0
C731 C 0.0783 0.84616 0.37574 0.0
C732 C 0.09663 0.87631 0.37647 0.0
C733 C 0.10406 0.89102 0.38808 0.0
C734 C 0.09292 0.87538 0.3989 0.0
C735 C 0.07532 0.84567 0.3984 0.0
C736 C 0.06276 0.8366 0.41115 0.0
C737 C 0.028 0.83674 0.41101 0.0
C738 C 0.07511 0.80138 0.41571 0.0
C739 C 0.07523 0.86644 0.41887 0.0
C740 C 0.09303 0.88816 0.41166 0.0
C741 C 0.10465 0.91923 0.4164 0.0
C742 C 0.097 0.92898 0.4286 0.0
C743 C 0.07778 0.90787 0.43598 0.0
C744 C 0.06765 0.87562 0.43115 0.0
H745 H 0.70008 0.91948 0.43445 0.0
H746 H 0.65979 0.81732 0.43008 0.0
H747 H 0.64773 0.83094 0.40816 0.0
H748 H 0.64907 0.96789 0.41164 0.0
H749 H 0.68024 0.99376 0.40609 0.0
H750 H 0.67944 0.97922 0.42206 0.0
H751 H 0.73193 0.95076 0.41918 0.0
H752 H 0.73277 0.96479 0.40321 0.0
H753 H 0.73727 0.91925 0.40693 0.0
H754 H 0.64877 0.85095 0.3859 0.0
H755 H 0.66134 0.87661 0.36541 0.0
H756 H 0.70078 0.96608 0.38397 0.0
C757 C 0.6873 0.90076 0.42905 0.0
C758 C 0.68022 0.86763 0.43406 0.0
C759 C 0.6649 0.84308 0.4265 0.0
C760 C 0.65802 0.85058 0.41401 0.0
C761 C 0.66657 0.88282 0.40915 0.0
C762 C 0.68056 0.90774 0.41648 0.0
C763 C 0.69083 0.93848 0.40862 0.0
C764 C 0.67388 0.97182 0.41232 0.0
C765 C 0.72523 0.94359 0.40954 0.0
C766 C 0.68153 0.92635 0.39571 0.0
C767 C 0.66722 0.89438 0.39623 0.0
C768 C 0.65927 0.87638 0.38541 0.0
C769 C 0.66653 0.89114 0.37378 0.0
C770 C 0.68161 0.92362 0.37303 0.0
C771 C 0.68853 0.94166 0.38419 0.0
H772 H 0.94675 0.61707 0.18476 0.0
H773 H 0.92207 0.72442 0.17729 0.0
H774 H 0.91158 0.70947 0.15537 0.0
H775 H 0.98704 0.60503 0.15837 0.0
H776 H 0.97626 0.56045 0.15549 0.0
H777 H 0.97542 0.57735 0.17108 0.0
H778 H 0.91912 0.56017 0.17312 0.0
H779 H 0.91985 0.54279 0.15753 0.0
H780 H 0.89235 0.57535 0.16168 0.0
H781 H 0.91374 0.68579 0.13353 0.0
H782 H 0.92526 0.65411 0.11401 0.0
H783 H 0.94695 0.5618 0.13562 0.0
C784 C 0.93768 0.63699 0.17866 0.0
C785 C 0.93477 0.6718 0.18281 0.0
C786 C 0.92409 0.69748 0.17438 0.0
C787 C 0.91811 0.68925 0.16188 0.0
C788 C 0.92268 0.65509 0.1579 0.0
C789 C 0.93173 0.62919 0.1661 0.0
C790 C 0.93824 0.59553 0.1592 0.0
C791 C 0.97119 0.58394 0.16115 0.0
C792 C 0.91606 0.56676 0.16312 0.0
C793 C 0.93265 0.60694 0.14585 0.0
C794 C 0.92344 0.64129 0.14528 0.0
C795 C 0.92012 0.65857 0.13388 0.0
C796 C 0.92674 0.64042 0.12282 0.0
C797 C 0.93646 0.60529 0.12323 0.0
C798 C 0.93874 0.58832 0.13492 0.0
H799 H 0.30526 0.65133 0.18262 0.0
H800 H 0.34474 0.54981 0.1759 0.0
H801 H 0.35443 0.56623 0.15403 0.0
H802 H 0.26484 0.65404 0.15609 0.0
H803 H 0.26868 0.70002 0.15297 0.0
H804 H 0.27169 0.68414 0.16867 0.0
H805 H 0.32443 0.71258 0.17089 0.0
H806 H 0.32145 0.72906 0.15519 0.0
H807 H 0.35341 0.70279 0.15966 0.0
H808 H 0.35044 0.58911 0.13204 0.0
H809 H 0.33465 0.61729 0.1123 0.0
H810 H 0.298 0.70392 0.13332 0.0
C811 C 0.31744 0.63331 0.17672 0.0
C812 C 0.32485 0.59957 0.18105 0.0
C813 C 0.33937 0.57603 0.17285 0.0
C814 C 0.3449 0.58512 0.16038 0.0
C815 C 0.33585 0.61793 0.1562 0.0
C816 C 0.32279 0.64188 0.16419 0.0
C817 C 0.31141 0.67344 0.15707 0.0
C818 C 0.27714 0.67815 0.1588 0.0
C819 C 0.32872 0.70642 0.16093 0.0
C820 C 0.31902 0.66293 0.14383 0.0
C821 C 0.33346 0.63105 0.1435 0.0
C822 C 0.33984 0.61451 0.13221 0.0
C823 C 0.33079 0.63069 0.12102 0.0
C824 C 0.31542 0.66303 0.1212 0.0
C825 C 0.31026 0.67955 0.13279 0.0
H826 H 0.06656 0.31404 0.88338 0.0
H827 H 0.0863 0.41027 0.86376 0.0
H828 H 0.09664 0.43926 0.88389 0.0
H829 H 0.02507 0.3516 0.90641 0.0
H830 H 0.03704 0.32303 0.91882 0.0
H831 H 0.03768 0.30797 0.90299 0.0
H832 H 0.09443 0.29299 0.9051 0.0
H833 H 0.09395 0.3079 0.92102 0.0
H834 H 0.12058 0.32612 0.91014 0.0
H835 H 0.09713 0.45993 0.90612 0.0
H836 H 0.08618 0.47109 0.92828 0.0
H837 H 0.06483 0.36173 0.93357 0.0
C838 C 0.07424 0.34085 0.88326 0.0
C839 C 0.07614 0.35972 0.87193 0.0
C840 C 0.08513 0.39513 0.87227 0.0
C841 C 0.09106 0.41179 0.88368 0.0
C842 C 0.0879 0.39274 0.89471 0.0
C843 C 0.07981 0.35795 0.89457 0.0
C844 C 0.07411 0.34449 0.90767 0.0
C845 C 0.04155 0.331 0.90904 0.0
C846 C 0.09715 0.3162 0.91119 0.0
C847 C 0.07915 0.37743 0.91519 0.0
C848 C 0.08765 0.40481 0.90756 0.0
C849 C 0.09105 0.43852 0.9122 0.0
C850 C 0.08478 0.44461 0.92483 0.0
C851 C 0.07499 0.41722 0.93274 0.0
C852 C 0.07303 0.38303 0.92788 0.0
H853 H 0.68312 0.30288 0.92025 0.0
H854 H 0.65133 0.39634 0.93873 0.0
H855 H 0.6395 0.42252 0.91825 0.0
H856 H 0.72184 0.34452 0.89745 0.0
H857 H 0.7139 0.31396 0.88513 0.0
H858 H 0.71349 0.29961 0.90106 0.0
H859 H 0.65887 0.27685 0.89833 0.0
H860 H 0.65914 0.29101 0.88231 0.0
H861 H 0.62995 0.30591 0.89268 0.0
H862 H 0.63977 0.44236 0.89598 0.0
H863 H 0.65228 0.45428 0.87399 0.0
H864 H 0.68398 0.34808 0.86976 0.0
C865 C 0.67252 0.3283 0.92004 0.0
C866 C 0.66776 0.34735 0.93115 0.0
C867 C 0.65482 0.38103 0.93039 0.0
C868 C 0.64801 0.39611 0.91877 0.0
C869 C 0.65413 0.37716 0.90797 0.0
C870 C 0.66587 0.34381 0.90851 0.0
C871 C 0.67399 0.33065 0.89561 0.0
C872 C 0.7078 0.32168 0.89477 0.0
C873 C 0.65431 0.29924 0.89202 0.0
C874 C 0.66624 0.36233 0.88776 0.0
C875 C 0.65432 0.38867 0.89505 0.0
C876 C 0.64837 0.42165 0.89015 0.0
C877 C 0.65555 0.42819 0.87762 0.0
C878 C 0.66859 0.40194 0.87008 0.0
C879 C 0.67311 0.3683 0.87516 0.0
H880 H 0.34338 0.7911 0.1037 0.0
H881 H 0.27565 0.85912 0.11978 0.0
H882 H 0.31456 0.90465 0.12283 0.0
H883 H 0.40762 0.81942 0.12328 0.0
H884 H 0.43384 0.81653 0.11051 0.0
H885 H 0.4016 0.78792 0.11108 0.0
H886 H 0.38525 0.80898 0.08915 0.0
H887 H 0.41732 0.83765 0.08852 0.0
H888 H 0.37986 0.85494 0.08638 0.0
H889 H 0.35958 0.94453 0.12219 0.0
H890 H 0.40659 0.9763 0.1176 0.0
H891 H 0.44514 0.88239 0.10173 0.0
C892 C 0.33677 0.81527 0.10812 0.0
C893 C 0.30644 0.82145 0.11159 0.0
C894 C 0.29874 0.8537 0.11713 0.0
C895 C 0.32072 0.87967 0.11891 0.0
C896 C 0.35029 0.87293 0.11515 0.0
C897 C 0.35835 0.84145 0.1099 0.0
C898 C 0.39104 0.84167 0.10573 0.0
C899 C 0.40962 0.81479 0.1131 0.0
C900 C 0.39349 0.83545 0.09161 0.0
C901 C 0.39999 0.87857 0.10915 0.0
C902 C 0.37624 0.89599 0.11471 0.0
C903 C 0.37841 0.931 0.118 0.0
C904 C 0.40524 0.94884 0.11532 0.0
C905 C 0.42966 0.93178 0.10937 0.0
C906 C 0.42712 0.89597 0.10648 0.0
H907 H 0.83956 0.29416 0.10782 0.0
H908 H 0.76513 0.36077 0.1188 0.0
H909 H 0.80129 0.40845 0.1232 0.0
H910 H 0.89539 0.32772 0.13053 0.0
H911 H 0.92591 0.32429 0.11953 0.0
H912 H 0.89457 0.29441 0.1187 0.0
H913 H 0.88559 0.31184 0.09567 0.0
H914 H 0.9168 0.34172 0.09642 0.0
H915 H 0.88006 0.35712 0.09176 0.0
H916 H 0.84496 0.45063 0.12404 0.0
H917 H 0.8922 0.48386 0.12136 0.0
H918 H 0.93838 0.38933 0.11016 0.0
C919 C 0.83081 0.31854 0.11138 0.0
C920 C 0.79943 0.32369 0.113 0.0
C921 C 0.78902 0.35613 0.11756 0.0
C922 C 0.80943 0.38334 0.12009 0.0
C923 C 0.84017 0.37755 0.11814 0.0
C924 C 0.85082 0.34583 0.11397 0.0
C925 C 0.88461 0.34692 0.11179 0.0
C926 C 0.90109 0.32185 0.12067 0.0
C927 C 0.89219 0.33894 0.0981 0.0
C928 C 0.89129 0.38458 0.11501 0.0
C929 C 0.86539 0.40171 0.11877 0.0
C930 C 0.86543 0.43731 0.12132 0.0
C931 C 0.89239 0.45598 0.11975 0.0
C932 C 0.91907 0.43911 0.11569 0.0
C933 C 0.91856 0.40277 0.11356 0.0
H934 H 0.45566 0.36623 0.19423 0.0
H935 H 0.41197 0.27468 0.17885 0.0
H936 H 0.36556 0.3086 0.17533 0.0
H937 H 0.39457 0.39517 0.21106 0.0
H938 H 0.40034 0.44114 0.20849 0.0
H939 H 0.43188 0.41171 0.20792 0.0
H940 H 0.44496 0.43322 0.1857 0.0
H941 H 0.41357 0.46306 0.18624 0.0
H942 H 0.41649 0.43207 0.17369 0.0
H943 H 0.32163 0.34949 0.17638 0.0
H944 H 0.28437 0.39582 0.18085 0.0
H945 H 0.35621 0.4615 0.19513 0.0
C946 C 0.43669 0.35375 0.18969 0.0
C947 C 0.43756 0.31788 0.18671 0.0
C948 C 0.4119 0.30217 0.18116 0.0
C949 C 0.38539 0.32124 0.17911 0.0
C950 C 0.38478 0.35617 0.18259 0.0
C951 C 0.40986 0.37248 0.18762 0.0
C952 C 0.40233 0.40948 0.19152 0.0
C953 C 0.40759 0.41465 0.20558 0.0
C954 C 0.42041 0.43603 0.18383 0.0
C955 C 0.36899 0.41091 0.1883 0.0
C956 C 0.35936 0.37998 0.18307 0.0
C957 C 0.32903 0.37413 0.18023 0.0
C958 C 0.30798 0.40052 0.18284 0.0
C959 C 0.31735 0.43242 0.1882 0.0
C960 C 0.34836 0.43767 0.1908 0.0
H961 H 0.81126 0.90377 0.19591 0.0
H962 H 0.85871 0.99814 0.18525 0.0
H963 H 0.90553 0.96443 0.18255 0.0
H964 H 0.86898 0.869 0.214 0.0
H965 H 0.86298 0.82415 0.20966 0.0
H966 H 0.83212 0.85455 0.20912 0.0
H967 H 0.82289 0.83958 0.1859 0.0
H968 H 0.85368 0.80891 0.18639 0.0
H969 H 0.85349 0.84333 0.17494 0.0
H970 H 0.94871 0.92195 0.18337 0.0
H971 H 0.98429 0.87331 0.18712 0.0
H972 H 0.90907 0.80635 0.19698 0.0
C973 C 0.83129 0.91711 0.19265 0.0
C974 C 0.8312 0.95358 0.19071 0.0
C975 C 0.85813 0.97021 0.18676 0.0
C976 C 0.8849 0.95127 0.18517 0.0
C977 C 0.88451 0.91556 0.18752 0.0
C978 C 0.85836 0.89854 0.19107 0.0
C979 C 0.86463 0.86045 0.19388 0.0
C980 C 0.85671 0.85154 0.20747 0.0
C981 C 0.84766 0.83666 0.18473 0.0
C982 C 0.89843 0.85903 0.1917 0.0
C983 C 0.90945 0.89101 0.18794 0.0
C984 C 0.94026 0.89661 0.18612 0.0
C985 C 0.96034 0.86885 0.18829 0.0
C986 C 0.94955 0.83592 0.19224 0.0
C987 C 0.91809 0.83103 0.19379 0.0
H988 H 0.65236 0.21325 0.95032 0.0
H989 H 0.72989 0.14562 0.94544 0.0
H990 H 0.6957 0.09582 0.94162 0.0
H991 H 0.60921 0.15375 0.96735 0.0
H992 H 0.57339 0.16618 0.96074 0.0
H993 H 0.60369 0.19733 0.96146 0.0
H994 H 0.59963 0.20724 0.93765 0.0
H995 H 0.56924 0.17607 0.93685 0.0
H996 H 0.60221 0.17049 0.92726 0.0
H997 H 0.65358 0.05261 0.94021 0.0
H998 H 0.6068 0.01835 0.94203 0.0
H999 H 0.55585 0.11336 0.94812 0.0
C1000 C 0.66218 0.18813 0.94816 0.0
C1001 C 0.6939 0.18343 0.94805 0.0
C1002 C 0.70575 0.14993 0.94549 0.0
C1003 C 0.68647 0.12151 0.94328 0.0
C1004 C 0.65535 0.12692 0.94367 0.0
C1005 C 0.64324 0.1594 0.94604 0.0
C1006 C 0.60905 0.15758 0.94696 0.0
C1007 C 0.59821 0.1694 0.9599 0.0
C1008 C 0.59416 0.17913 0.93656 0.0
C1009 C 0.60385 0.11884 0.94504 0.0
C1010 C 0.63089 0.10179 0.94299 0.0
C1011 C 0.63227 0.06573 0.94167 0.0
C1012 C 0.60551 0.04649 0.94273 0.0
C1013 C 0.57757 0.06314 0.94513 0.0
C1014 C 0.57671 0.09994 0.94604 0.0
H1015 H 0.1981 0.65229 0.95498 0.0
H1016 H 0.14814 0.74449 0.94373 0.0
H1017 H 0.10197 0.70934 0.94176 0.0
H1018 H 0.15656 0.59021 0.93443 0.0
H1019 H 0.15758 0.5559 0.94592 0.0
H1020 H 0.18759 0.58757 0.94527 0.0
H1021 H 0.17875 0.60243 0.9685 0.0
H1022 H 0.14862 0.57104 0.9692 0.0
H1023 H 0.14171 0.61572 0.97353 0.0
H1024 H 0.05979 0.66614 0.94352 0.0
H1025 H 0.02545 0.6164 0.94736 0.0
H1026 H 0.10241 0.55127 0.95644 0.0
C1027 C 0.17763 0.66488 0.95181 0.0
C1028 C 0.17688 0.70122 0.9495 0.0
C1029 C 0.14943 0.71674 0.94555 0.0
C1030 C 0.12298 0.69698 0.9444 0.0
C1031 C 0.12423 0.6615 0.94708 0.0
C1032 C 0.1509 0.64541 0.95052 0.0
C1033 C 0.14562 0.60712 0.9534 0.0
C1034 C 0.16286 0.58382 0.9442 0.0
C1035 C 0.15418 0.5986 0.96696 0.0
C1036 C 0.11178 0.60455 0.95136 0.0
C1037 C 0.09989 0.63623 0.94771 0.0
C1038 C 0.0689 0.641 0.94614 0.0
C1039 C 0.04954 0.61267 0.94838 0.0
C1040 C 0.06124 0.57987 0.95203 0.0
C1041 C 0.09282 0.57582 0.9534 0.0
H1042 H 0.54623 0.63721 0.84845 0.0
H1043 H 0.59398 0.72868 0.86182 0.0
H1044 H 0.64013 0.69377 0.86438 0.0
H1045 H 0.58576 0.57337 0.86912 0.0
H1046 H 0.58638 0.54031 0.85721 0.0
H1047 H 0.55606 0.57159 0.85764 0.0
H1048 H 0.56751 0.589 0.83481 0.0
H1049 H 0.59796 0.55802 0.83434 0.0
H1050 H 0.60499 0.6032 0.83072 0.0
H1051 H 0.68292 0.65112 0.86292 0.0
H1052 H 0.71806 0.60215 0.85912 0.0
H1053 H 0.64271 0.53738 0.84773 0.0
C1054 C 0.56616 0.64965 0.85223 0.0
C1055 C 0.56633 0.68575 0.85495 0.0
C1056 C 0.59313 0.70111 0.85967 0.0
C1057 C 0.61956 0.68148 0.86117 0.0
C1058 C 0.61895 0.64628 0.85805 0.0
C1059 C 0.59285 0.6303 0.85386 0.0
C1060 C 0.59878 0.59241 0.85062 0.0
C1061 C 0.58067 0.56798 0.85916 0.0
C1062 C 0.59191 0.58526 0.8368 0.0
C1063 C 0.63236 0.58995 0.85331 0.0
C1064 C 0.64355 0.62132 0.85759 0.0
C1065 C 0.67431 0.6262 0.85981 0.0
C1066 C 0.69414 0.5983 0.85759 0.0
C1067 C 0.68313 0.56583 0.8533 0.0
C1068 C 0.65176 0.56166 0.85127 0.0
H1069 H 0.05305 0.14634 0.84887 0.0
H1070 H 0.10085 0.2393 0.86079 0.0
H1071 H 0.14754 0.2051 0.86306 0.0
H1072 H 0.09459 0.08424 0.86941 0.0
H1073 H 0.09471 0.05053 0.85773 0.0
H1074 H 0.06415 0.08148 0.85829 0.0
H1075 H 0.0739 0.09776 0.83523 0.0
H1076 H 0.10456 0.06708 0.83462 0.0
H1077 H 0.11096 0.11212 0.83059 0.0
H1078 H 0.19056 0.16255 0.86171 0.0
H1079 H 0.22584 0.1137 0.85794 0.0
H1080 H 0.15037 0.04771 0.8476 0.0
C1081 C 0.07314 0.15929 0.85226 0.0
C1082 C 0.07313 0.19556 0.85469 0.0
C1083 C 0.10014 0.21158 0.85889 0.0
C1084 C 0.12687 0.19235 0.86022 0.0
C1085 C 0.12637 0.15692 0.85742 0.0
C1086 C 0.10014 0.14039 0.85367 0.0
C1087 C 0.10619 0.10238 0.85063 0.0
C1088 C 0.08888 0.07823 0.85955 0.0
C1089 C 0.09845 0.09439 0.83696 0.0
C1090 C 0.13996 0.10045 0.85295 0.0
C1091 C 0.15115 0.13217 0.85689 0.0
C1092 C 0.18198 0.1374 0.85883 0.0
C1093 C 0.20188 0.10954 0.85664 0.0
C1094 C 0.19091 0.07676 0.85262 0.0
C1095 C 0.15946 0.07224 0.8509 0.0
H1096 H 0.45045 0.39402 0.60933 0.0
H1097 H 0.40198 0.48984 0.61694 0.0
H1098 H 0.35525 0.45635 0.62029 0.0
H1099 H 0.39448 0.35586 0.59167 0.0
H1100 H 0.40013 0.31187 0.59712 0.0
H1101 H 0.43093 0.34237 0.59739 0.0
H1102 H 0.43826 0.33145 0.62102 0.0
H1103 H 0.4075 0.30069 0.62081 0.0
H1104 H 0.40679 0.337 0.63144 0.0
H1105 H 0.31239 0.41383 0.61995 0.0
H1106 H 0.27703 0.36495 0.61632 0.0
H1107 H 0.35295 0.29652 0.6091 0.0
C1108 C 0.43022 0.40775 0.61212 0.0
C1109 C 0.42991 0.4445 0.61297 0.0
C1110 C 0.40277 0.46167 0.61627 0.0
C1111 C 0.37609 0.44287 0.61823 0.0
C1112 C 0.37682 0.40678 0.6169 0.0
C1113 C 0.40322 0.3893 0.61403 0.0
C1114 C 0.39719 0.3508 0.61201 0.0
C1115 C 0.40621 0.33959 0.59876 0.0
C1116 C 0.4134 0.32868 0.62191 0.0
C1117 C 0.36325 0.34969 0.61376 0.0
C1118 C 0.35196 0.38216 0.61673 0.0
C1119 C 0.32101 0.3881 0.61787 0.0
C1120 C 0.30107 0.36022 0.61577 0.0
C1121 C 0.31215 0.32684 0.61254 0.0
C1122 C 0.34371 0.32156 0.61176 0.0
H1123 H 0.8047 0.86972 0.60381 0.0
H1124 H 0.85126 0.77289 0.6121 0.0
H1125 H 0.89876 0.80508 0.61497 0.0
H1126 H 0.8614 0.90616 0.58589 0.0
H1127 H 0.8568 0.95038 0.59123 0.0
H1128 H 0.82533 0.92079 0.59158 0.0
H1129 H 0.81848 0.93217 0.61519 0.0
H1130 H 0.84988 0.96205 0.61489 0.0
H1131 H 0.84994 0.92585 0.62561 0.0
H1132 H 0.94249 0.84595 0.61403 0.0
H1133 H 0.97889 0.89382 0.61048 0.0
H1134 H 0.90455 0.96479 0.60347 0.0
C1135 C 0.8247 0.85551 0.60661 0.0
C1136 C 0.8242 0.8188 0.60777 0.0
C1137 C 0.85104 0.80102 0.61116 0.0
C1138 C 0.87819 0.81908 0.61284 0.0
C1139 C 0.87825 0.85506 0.61121 0.0
C1140 C 0.85218 0.87324 0.60833 0.0
C1141 C 0.85902 0.91156 0.60621 0.0
C1142 C 0.85012 0.92286 0.59294 0.0
C1143 C 0.8434 0.93425 0.61606 0.0
C1144 C 0.89302 0.91173 0.60794 0.0
C1145 C 0.90363 0.8789 0.6109 0.0
C1146 C 0.93443 0.87196 0.61197 0.0
C1147 C 0.95496 0.89925 0.6099 0.0
C1148 C 0.9446 0.93309 0.60685 0.0
C1149 C 0.91317 0.93936 0.60604 0.0
H1150 H 0.44961 0.87508 0.6949 0.0
H1151 H 0.40566 0.781 0.68173 0.0
H1152 H 0.35894 0.81408 0.6779 0.0
H1153 H 0.38876 0.90645 0.71158 0.0
H1154 H 0.39446 0.95192 0.70803 0.0
H1155 H 0.42598 0.92241 0.70792 0.0
H1156 H 0.43839 0.94036 0.68523 0.0
H1157 H 0.40695 0.97018 0.68529 0.0
H1158 H 0.40959 0.93719 0.67341 0.0
H1159 H 0.31502 0.85525 0.67807 0.0
H1160 H 0.27783 0.90222 0.68171 0.0
H1161 H 0.34993 0.96986 0.69455 0.0
C1162 C 0.43046 0.86177 0.69082 0.0
C1163 C 0.4314 0.82551 0.68852 0.0
C1164 C 0.40554 0.80879 0.68352 0.0
C1165 C 0.37886 0.82737 0.68129 0.0
C1166 C 0.37827 0.86281 0.68404 0.0
C1167 C 0.40345 0.87998 0.68858 0.0
C1168 C 0.39597 0.91753 0.69175 0.0
C1169 C 0.40162 0.92499 0.70564 0.0
C1170 C 0.41379 0.94281 0.68342 0.0
C1171 C 0.36256 0.91837 0.68865 0.0
C1172 C 0.35283 0.88665 0.6841 0.0
C1173 C 0.32247 0.88042 0.68141 0.0
C1174 C 0.30147 0.90722 0.68354 0.0
C1175 C 0.31091 0.93983 0.68831 0.0
C1176 C 0.34197 0.94544 0.69071 0.0
H1177 H 0.79492 0.39611 0.69453 0.0
H1178 H 0.83833 0.48592 0.67775 0.0
H1179 H 0.88452 0.45145 0.67447 0.0
H1180 H 0.85617 0.36918 0.71156 0.0
H1181 H 0.85046 0.32293 0.70977 0.0
H1182 H 0.81885 0.35217 0.70876 0.0
H1183 H 0.80542 0.32801 0.68693 0.0
H1184 H 0.83686 0.29831 0.68792 0.0
H1185 H 0.83369 0.32773 0.67488 0.0
H1186 H 0.92836 0.41073 0.676 0.0
H1187 H 0.96583 0.36522 0.68122 0.0
H1188 H 0.89449 0.30116 0.69677 0.0
C1189 C 0.81373 0.408 0.6897 0.0
C1190 C 0.81289 0.44357 0.68625 0.0
C1191 C 0.83838 0.45863 0.68037 0.0
C1192 C 0.86476 0.43925 0.67847 0.0
C1193 C 0.86539 0.40469 0.68244 0.0
C1194 C 0.84045 0.38898 0.68779 0.0
C1195 C 0.84811 0.3525 0.6923 0.0
C1196 C 0.8431 0.34902 0.70643 0.0
C1197 C 0.82994 0.32501 0.68508 0.0
C1198 C 0.88139 0.35073 0.68904 0.0
C1199 C 0.89085 0.38099 0.68326 0.0
C1200 C 0.9211 0.3866 0.68028 0.0
C1201 C 0.94227 0.36067 0.68333 0.0
C1202 C 0.93311 0.32949 0.68928 0.0
C1203 C 0.90216 0.32442 0.692 0.0
H1204 H 0.55424 0.63261 0.45418 0.0
H1205 H 0.59775 0.54013 0.43942 0.0
H1206 H 0.6438 0.57413 0.43532 0.0
H1207 H 0.59024 0.69569 0.43242 0.0
H1208 H 0.59388 0.72864 0.44428 0.0
H1209 H 0.56314 0.69791 0.44489 0.0
H1210 H 0.57919 0.68002 0.46722 0.0
H1211 H 0.61 0.71052 0.46665 0.0
H1212 H 0.61721 0.6652 0.46998 0.0
H1213 H 0.68723 0.61648 0.43492 0.0
H1214 H 0.72365 0.66492 0.43744 0.0
H1215 H 0.65194 0.7304 0.45182 0.0
C1216 C 0.57319 0.61973 0.44981 0.0
C1217 C 0.57221 0.58366 0.44709 0.0
C1218 C 0.5978 0.56771 0.44158 0.0
C1219 C 0.62415 0.58683 0.43919 0.0
C1220 C 0.62468 0.62208 0.44227 0.0
C1221 C 0.59978 0.63852 0.44733 0.0
C1222 C 0.60691 0.67627 0.45037 0.0
C1223 C 0.58738 0.70109 0.44252 0.0
C1224 C 0.60311 0.6834 0.46438 0.0
C1225 C 0.63981 0.67816 0.44652 0.0
C1226 C 0.64962 0.64666 0.44182 0.0
C1227 C 0.67966 0.64145 0.4384 0.0
C1228 C 0.70023 0.66909 0.43988 0.0
C1229 C 0.69067 0.70159 0.44469 0.0
C1230 C 0.65993 0.7061 0.4479 0.0
H1231 H 0.0599 0.12544 0.44781 0.0
H1232 H 0.10905 0.03144 0.43821 0.0
H1233 H 0.15584 0.06562 0.43622 0.0
H1234 H 0.10364 0.18584 0.42729 0.0
H1235 H 0.10246 0.22057 0.43857 0.0
H1236 H 0.07198 0.18953 0.43773 0.0
H1237 H 0.0791 0.1753 0.46114 0.0
H1238 H 0.10967 0.20606 0.46204 0.0
H1239 H 0.11559 0.1614 0.46669 0.0
H1240 H 0.19856 0.10845 0.43773 0.0
H1241 H 0.23341 0.15755 0.44182 0.0
H1242 H 0.15688 0.22416 0.44999 0.0
C1243 C 0.08033 0.11226 0.44494 0.0
C1244 C 0.08069 0.07574 0.4431 0.0
C1245 C 0.1081 0.05937 0.43964 0.0
C1246 C 0.13487 0.07859 0.43846 0.0
C1247 C 0.13399 0.11432 0.4407 0.0
C1248 C 0.10739 0.13112 0.44374 0.0
C1249 C 0.11309 0.16937 0.44647 0.0
C1250 C 0.09683 0.19271 0.43695 0.0
C1251 C 0.10382 0.17855 0.45988 0.0
C1252 C 0.14707 0.17114 0.44484 0.0
C1253 C 0.15868 0.13915 0.44143 0.0
C1254 C 0.18968 0.1338 0.44019 0.0
C1255 C 0.20933 0.16181 0.44255 0.0
C1256 C 0.19794 0.19481 0.4461 0.0
C1257 C 0.16633 0.19945 0.44708 0.0
H1258 H 0.65215 0.05873 0.34999 0.0
H1259 H 0.72689 0.12549 0.36059 0.0
H1260 H 0.69131 0.17421 0.36394 0.0
H1261 H 0.61408 0.1216 0.33238 0.0
H1262 H 0.57663 0.10772 0.33664 0.0
H1263 H 0.6072 0.07688 0.33674 0.0
H1264 H 0.59586 0.06192 0.3598 0.0
H1265 H 0.56519 0.09277 0.35977 0.0
H1266 H 0.59485 0.09635 0.3712 0.0
H1267 H 0.64858 0.21666 0.3645 0.0
H1268 H 0.6024 0.25106 0.36117 0.0
H1269 H 0.55487 0.15762 0.34956 0.0
C1270 C 0.66095 0.08337 0.35331 0.0
C1271 C 0.69232 0.08821 0.35519 0.0
C1272 C 0.70299 0.12112 0.35919 0.0
C1273 C 0.68291 0.1489 0.36115 0.0
C1274 C 0.65221 0.14342 0.35902 0.0
C1275 C 0.64124 0.11151 0.35516 0.0
C1276 C 0.60763 0.11343 0.35243 0.0
C1277 C 0.60101 0.10438 0.33874 0.0
C1278 C 0.58983 0.08971 0.36133 0.0
C1279 C 0.60151 0.15163 0.3551 0.0
C1280 C 0.6275 0.16824 0.35907 0.0
C1281 C 0.62806 0.20386 0.36151 0.0
C1282 C 0.60164 0.22319 0.35957 0.0
C1283 C 0.5749 0.20707 0.35515 0.0
C1284 C 0.57475 0.17061 0.35314 0.0
H1285 H 0.1983 0.62017 0.34838 0.0
H1286 H 0.15344 0.52561 0.36068 0.0
H1287 H 0.10668 0.55871 0.36418 0.0
H1288 H 0.15879 0.68006 0.37028 0.0
H1289 H 0.15663 0.71456 0.35889 0.0
H1290 H 0.18763 0.68418 0.35855 0.0
H1291 H 0.17497 0.66926 0.3356 0.0
H1292 H 0.14388 0.69938 0.3359 0.0
H1293 H 0.13753 0.65451 0.33167 0.0
H1294 H 0.06291 0.60036 0.36394 0.0
H1295 H 0.02649 0.64871 0.36121 0.0
H1296 H 0.09966 0.71691 0.34997 0.0
C1297 C 0.17887 0.60663 0.3521 0.0
C1298 C 0.1797 0.57023 0.35427 0.0
C1299 C 0.15353 0.55344 0.35895 0.0
C1300 C 0.12676 0.57203 0.36098 0.0
C1301 C 0.1264 0.60762 0.35843 0.0
C1302 C 0.15186 0.6249 0.35425 0.0
C1303 C 0.1449 0.66297 0.35165 0.0
C1304 C 0.16307 0.68685 0.36036 0.0
C1305 C 0.15066 0.67204 0.33789 0.0
C1306 C 0.11148 0.66408 0.3547 0.0
C1307 C 0.10124 0.63189 0.35862 0.0
C1308 C 0.07077 0.62588 0.36111 0.0
C1309 C 0.05021 0.65345 0.35951 0.0
C1310 C 0.06021 0.6867 0.35555 0.0
C1311 C 0.09135 0.69201 0.35327 0.0
H1312 H 0.50426 0.97142 0.05634 0.0
H1313 H 0.45659 0.07034 0.05655 0.0
H1314 H 0.46214 0.07409 0.0337 0.0
H1315 H 0.55794 0.99347 0.03283 0.0
H1316 H 0.55793 0.95102 1.02565 0.0
H1317 H 0.54959 0.95525 0.042 0.0
H1318 H 0.49873 0.92326 0.03878 0.0
H1319 H 0.50706 0.91857 1.02245 0.0
H1320 H 0.47249 0.93925 0.02727 0.0
H1321 H 0.47437 0.06837 1.01107 0.0
H1322 H 0.48877 0.05194 0.98983 0.0
H1323 H 0.52838 0.95591 1.0038 0.0
C1324 C 0.49471 0.99378 0.0516 0.0
C1325 C 0.47989 0.02064 0.05833 0.0
C1326 C 0.46787 0.04938 0.05168 0.0
C1327 C 0.47105 0.0518 0.03868 0.0
C1328 C 0.48623 0.02523 0.03241 0.0
C1329 C 0.49761 0.99657 0.03861 0.0
C1330 C 0.51289 0.97161 0.0296 0.0
C1331 C 0.54659 0.96761 0.03271 0.0
C1332 C 0.49683 0.93607 0.02952 0.0
C1333 C 0.50842 0.99078 1.01734 0.0
C1334 C 0.49309 0.02172 1.01925 0.0
C1335 C 0.48623 0.04413 1.00947 0.0
C1336 C 0.49461 0.03446 0.99739 0.0
C1337 C 0.50972 1.00248 0.99503 0.0
C1338 C 0.51705 0.98057 1.00524 0.0
H1339 H 0.77617 0.21963 0.05244 0.0
H1340 H 0.71813 0.3009 0.06717 0.0
H1341 H 0.70405 0.31812 0.04594 0.0
H1342 H 0.80207 0.26944 1.02521 0.0
H1343 H 0.80213 0.23204 1.01507 0.0
H1344 H 0.80878 0.22654 0.03151 0.0
H1345 H 0.76476 0.18223 0.0326 0.0
H1346 H 0.7578 0.18787 1.01618 0.0
H1347 H 0.72783 0.19501 0.02721 0.0
H1348 H 0.69399 0.32554 1.02318 0.0
H1349 H 0.69162 0.32476 1.00019 0.0
H1350 H 0.75613 0.23956 0.99971 0.0
C1351 C 0.76086 0.24134 0.05118 0.0
C1352 C 0.74829 0.25876 0.06158 0.0
C1353 C 0.72806 0.28688 0.05945 0.0
C1354 C 0.71982 0.29696 0.04738 0.0
C1355 C 0.73197 0.27887 0.03737 0.0
C1356 C 0.75227 0.25188 0.03908 0.0
C1357 C 0.76163 0.23674 0.02659 0.0
C1358 C 0.79568 0.24148 1.02447 0.0
C1359 C 0.75245 0.19818 1.02559 0.0
C1360 C 0.7433 0.25933 1.0177 0.0
C1361 C 0.72629 0.28339 1.02414 0.0
C1362 C 0.70733 0.30689 1.01801 0.0
C1363 C 0.70601 0.30617 1.00493 0.0
C1364 C 0.72361 0.28217 0.99806 0.0
C1365 C 0.74233 0.2583 1.00463 0.0
H1366 H 0.47994 0.21238 0.25157 0.0
H1367 H 0.52367 0.30273 0.23508 0.0
H1368 H 0.53846 0.32307 0.25586 0.0
H1369 H 0.45087 0.25825 0.27867 0.0
H1370 H 0.45688 0.22211 0.28913 0.0
H1371 H 0.44962 0.21418 0.27287 0.0
H1372 H 0.49909 0.1785 0.27142 0.0
H1373 H 0.50662 0.1866 0.28765 0.0
H1374 H 0.53422 0.19832 0.27607 0.0
H1375 H 0.55005 0.33357 0.27836 0.0
H1376 H 0.55377 0.33551 0.30132 0.0
H1377 H 0.5018 0.2397 0.3036 0.0
C1378 C 0.49245 0.23652 0.25233 0.0
C1379 C 0.50059 0.25576 0.24157 0.0
C1380 C 0.51703 0.2873 0.24308 0.0
C1381 C 0.52571 0.29916 0.25488 0.0
C1382 C 0.51774 0.27946 0.26524 0.0
C1383 C 0.5012 0.24902 0.26414 0.0
C1384 C 0.49517 0.23332 0.2769 0.0
C1385 C 0.46111 0.23189 0.27955 0.0
C1386 C 0.50964 0.19703 0.27807 0.0
C1387 C 0.51092 0.25966 0.28525 0.0
C1388 C 0.52398 0.28592 0.27831 0.0
C1389 C 0.53984 0.31318 0.28391 0.0
C1390 C 0.54196 0.314 0.29697 0.0
C1391 C 0.52812 0.28785 0.30433 0.0
C1392 C 0.51268 0.26016 0.2983 0.0
H1393 H 0.78176 0.06239 0.25223 0.0
H1394 H 0.73299 0.97435 0.23659 0.0
H1395 H 0.71689 0.95684 0.2575 0.0
H1396 H 0.80804 0.01648 0.27979 0.0
H1397 H 0.80405 0.05353 0.28996 0.0
H1398 H 0.81161 0.06005 0.27364 0.0
H1399 H 0.76414 0.09908 0.27184 0.0
H1400 H 0.75633 0.09247 0.28814 0.0
H1401 H 0.72805 0.08209 0.27665 0.0
H1402 H 0.70499 0.94844 0.28003 0.0
H1403 H 0.70141 0.94786 0.30298 0.0
H1404 H 0.75844 0.03984 0.3046 0.0
C1405 C 0.76777 0.03942 0.25321 0.0
C1406 C 0.75875 0.01992 0.24262 0.0
C1407 C 0.74042 0.98991 0.24443 0.0
C1408 C 0.73096 0.97968 0.25632 0.0
C1409 C 0.73999 0.99944 0.2665 0.0
C1410 C 0.75819 0.0285 0.26513 0.0
C1411 C 0.76515 0.04442 0.27778 0.0
C1412 C 0.79924 0.04356 0.28045 0.0
C1413 C 0.75267 0.08173 0.27865 0.0
C1414 C 0.74807 0.01973 0.28636 0.0
C1415 C 0.73352 0.99415 0.27963 0.0
C1416 C 0.71633 0.96833 0.28543 0.0
C1417 C 0.71432 0.96827 0.29849 0.0
C1418 C 0.72957 0.99372 0.30568 0.0
C1419 C 0.74643 0.01996 0.29943 0.0
H1420 H 0.25368 0.74634 0.99944 0.0
H1421 H 0.20023 0.84117 1.00054 0.0
H1422 H 0.20282 0.84043 1.02355 0.0
H1423 H 0.22059 0.70543 0.0264 0.0
H1424 H 0.25559 0.68644 0.03163 0.0
H1425 H 0.24949 0.69445 1.01528 0.0
H1426 H 0.29848 0.73118 1.01448 0.0
H1427 H 0.30463 0.7235 0.03085 0.0
H1428 H 0.30298 0.7675 1.02496 0.0
H1429 H 0.21127 0.82949 0.04636 0.0
H1430 H 0.22318 0.80849 0.06744 0.0
H1431 H 0.27165 0.72052 0.05178 0.0
C1432 C 0.24238 0.76697 1.00449 0.0
C1433 C 0.22667 0.79388 0.9981 0.0
C1434 C 0.21232 0.82027 1.00515 0.0
C1435 C 0.21375 0.82011 1.01824 0.0
C1436 C 0.22964 0.79339 1.02418 0.0
C1437 C 0.24361 0.76722 1.01754 0.0
C1438 C 0.25907 0.74138 1.02621 0.0
C1439 C 0.24536 0.70476 1.02479 0.0
C1440 C 0.29332 0.74088 1.02399 0.0
C1441 C 0.25155 0.75704 0.03881 0.0
C1442 C 0.23461 0.78708 0.03737 0.0
C1443 C 0.22451 0.80602 0.04758 0.0
C1444 C 0.23144 0.79377 0.05955 0.0
C1445 C 0.24841 0.76275 0.06135 0.0
C1446 C 0.25888 0.74442 0.05077 0.0
H1447 H 0.47973 0.71318 0.75117 0.0
H1448 H 0.51685 0.81016 0.73691 0.0
H1449 H 0.53024 0.82797 0.75817 0.0
H1450 H 0.44784 0.75055 0.77937 0.0
H1451 H 0.45668 0.71314 0.78888 0.0
H1452 H 0.44975 0.7078 0.77246 0.0
H1453 H 0.50165 0.67755 0.77006 0.0
H1454 H 0.50883 0.68308 0.78646 0.0
H1455 H 0.53527 0.69979 0.7752 0.0
H1456 H 0.54106 0.83532 0.78107 0.0
H1457 H 0.54508 0.83271 0.80405 0.0
H1458 H 0.50055 0.73185 0.80368 0.0
C1459 C 0.49047 0.73824 0.75252 0.0
C1460 C 0.49718 0.7601 0.74224 0.0
C1461 C 0.51138 0.79272 0.74452 0.0
C1462 C 0.51922 0.80317 0.75661 0.0
C1463 C 0.51271 0.78092 0.76649 0.0
C1464 C 0.49842 0.74927 0.76462 0.0
C1465 C 0.49379 0.73053 0.77694 0.0
C1466 C 0.46001 0.7252 0.77956 0.0
C1467 C 0.51091 0.69567 0.77717 0.0
C1468 C 0.50768 0.75658 0.78595 0.0
C1469 C 0.51863 0.78539 0.77972 0.0
C1470 C 0.5325 0.81288 0.78606 0.0
C1471 C 0.53481 0.81113 0.79913 0.0
C1472 C 0.52318 0.78217 0.80576 0.0
C1473 C 0.50971 0.75446 0.79897 0.0
H1474 H 0.27894 0.0487 0.74944 0.0
H1475 H 0.22471 0.96468 0.73405 0.0
H1476 H 0.20974 0.94706 0.75509 0.0
H1477 H 0.30505 0.99979 0.77665 0.0
H1478 H 0.30355 0.03687 0.78693 0.0
H1479 H 0.31055 0.04316 0.77056 0.0
H1480 H 0.26513 0.08548 0.7693 0.0
H1481 H 0.25784 0.07906 0.78565 0.0
H1482 H 0.22849 0.07091 0.77439 0.0
H1483 H 0.19873 0.939 0.77765 0.0
H1484 H 0.19587 0.93858 0.8006 0.0
H1485 H 0.25769 0.0264 0.80196 0.0
C1486 C 0.26414 0.02644 0.75051 0.0
C1487 C 0.25303 0.00827 0.73997 0.0
C1488 C 0.2336 0.97927 0.74186 0.0
C1489 C 0.22482 0.96897 0.75383 0.0
C1490 C 0.23567 0.98765 0.76396 0.0
C1491 C 0.25516 0.01553 0.7625 0.0
C1492 C 0.26361 0.03071 0.77511 0.0
C1493 C 0.29772 0.02742 0.77745 0.0
C1494 C 0.25313 0.0688 0.77617 0.0
C1495 C 0.24574 1.00706 0.78378 0.0
C1496 C 0.22966 0.98256 0.77712 0.0
C1497 C 0.21132 0.95799 0.78299 0.0
C1498 C 0.20973 0.95804 0.79605 0.0
C1499 C 0.2265 0.98238 0.80316 0.0
C1500 C 0.24454 1.00739 0.79685 0.0
H1501 H 0.50322 0.53665 0.49966 0.0
H1502 H 0.54505 0.43432 0.49863 0.0
H1503 H 0.53859 0.42922 0.52143 0.0
H1504 H 0.53608 0.56406 0.52902 0.0
H1505 H 0.50274 0.58714 0.53391 0.0
H1506 H 0.51108 0.58284 0.51757 0.0
H1507 H 0.45849 0.5552 0.51395 0.0
H1508 H 0.45011 0.55903 0.53031 0.0
H1509 H 0.4477 0.51716 0.52277 0.0
H1510 H 0.52628 0.43446 0.54418 0.0
H1511 H 0.51284 0.45106 0.56556 0.0
H1512 H 0.47919 0.55063 0.55213 0.0
C1513 C 0.51126 0.5132 0.50421 0.0
C1514 C 0.52471 0.48583 0.49727 0.0
C1515 C 0.53484 0.45569 0.50367 0.0
C1516 C 0.53111 0.4525 0.51663 0.0
C1517 C 0.5173 0.4797 0.5231 0.0
C1518 C 0.5078 0.50963 0.51714 0.0
C1519 C 0.49388 0.53516 0.52631 0.0
C1520 C 0.51203 0.56932 0.52672 0.0
C1521 C 0.46057 0.54203 0.52314 0.0
C1522 C 0.49697 0.51488 0.5384 0.0
C1523 C 0.51041 0.48289 0.53628 0.0
C1524 C 0.51586 0.45949 0.54593 0.0
C1525 C 0.50804 0.46924 0.55809 0.0
C1526 C 0.49491 0.50225 0.56063 0.0
C1527 C 0.48894 0.52514 0.55055 0.0
H1528 H 0.74203 0.78875 0.55668 0.0
H1529 H 0.80911 0.70638 0.555 0.0
H1530 H 0.80816 0.70962 0.53203 0.0
H1531 H 0.69852 0.76144 0.53047 0.0
H1532 H 0.69056 0.8049 0.52496 0.0
H1533 H 0.6971 0.79727 0.5413 0.0
H1534 H 0.73992 0.84319 0.54125 0.0
H1535 H 0.73339 0.85116 0.52493 0.0
H1536 H 0.77047 0.83901 0.5303 0.0
H1537 H 0.79839 0.71961 0.50943 0.0
H1538 H 0.78306 0.73756 0.48847 0.0
H1539 H 0.7225 0.81487 0.50423 0.0
C1540 C 0.75675 0.77156 0.5515 0.0
C1541 C 0.77573 0.74724 0.55772 0.0
C1542 C 0.7945 0.72526 0.55053 0.0
C1543 C 0.79403 0.72686 0.53745 0.0
C1544 C 0.77479 0.75071 0.53166 0.0
C1545 C 0.75667 0.7729 0.53842 0.0
C1546 C 0.73792 0.79597 0.52983 0.0
C1547 C 0.70402 0.7895 0.53176 0.0
C1548 C 0.74591 0.83462 0.53169 0.0
C1549 C 0.74819 0.78306 0.51715 0.0
C1550 C 0.7694 0.75688 0.5185 0.0
C1551 C 0.78195 0.74022 0.50827 0.0
C1552 C 0.77291 0.75068 0.49634 0.0
C1553 C 0.75148 0.77782 0.49456 0.0
C1554 C 0.73892 0.79415 0.50519 0.0
H1555 H 0.74725 0.51754 0.80333 0.0
H1556 H 0.6992 0.41924 0.80019 0.0
H1557 H 0.70494 0.42161 0.77731 0.0
H1558 H 0.7156 0.5575 0.77548 0.0
H1559 H 0.75019 0.57936 0.77138 0.0
H1560 H 0.74186 0.57025 0.78748 0.0
H1561 H 0.79265 0.53746 0.78962 0.0
H1562 H 0.80103 0.54617 0.7735 0.0
H1563 H 0.80097 0.50194 0.7792 0.0
H1564 H 0.71757 0.43326 0.75499 0.0
H1565 H 0.73251 0.45511 0.73443 0.0
H1566 H 0.77181 0.5471 0.75162 0.0
C1567 C 0.73771 0.49658 0.79785 0.0
C1568 C 0.72273 0.46811 0.80363 0.0
C1569 C 0.71063 0.44134 0.79604 0.0
C1570 C 0.71391 0.44241 0.78303 0.0
C1571 C 0.7292 0.47051 0.77769 0.0
C1572 C 0.74064 0.49732 0.78483 0.0
C1573 C 0.75596 0.52462 0.77671 0.0
C1574 C 0.73994 0.56003 0.77783 0.0
C1575 C 0.78965 0.52771 0.77995 0.0
C1576 C 0.75147 0.50888 0.76387 0.0
C1577 C 0.73611 0.47757 0.76471 0.0
C1578 C 0.72944 0.45783 0.75422 0.0
C1579 C 0.73816 0.47058 0.74254 0.0
C1580 C 0.75337 0.50303 0.74128 0.0
C1581 C 0.76032 0.52223 0.75219 0.0
H1582 H 0.26301 0.2412 0.49738 0.0
H1583 H 0.20078 0.3284 0.49972 0.0
H1584 H 0.20311 0.32528 0.52266 0.0
H1585 H 0.23331 0.19338 0.5241 0.0
H1586 H 0.26991 0.17835 0.5291 0.0
H1587 H 0.26289 0.18678 0.51284 0.0
H1588 H 0.30831 0.22921 0.51233 0.0
H1589 H 0.31533 0.22114 0.52861 0.0
H1590 H 0.30964 0.2651 0.52314 0.0
H1591 H 0.21386 0.31491 0.54511 0.0
H1592 H 0.22905 0.29563 0.56594 0.0
H1593 H 0.28377 0.21348 0.54966 0.0
C1594 C 0.24965 0.2595 0.5027 0.0
C1595 C 0.23166 0.28513 0.49668 0.0
C1596 C 0.21461 0.3085 0.50405 0.0
C1597 C 0.21588 0.30699 0.51711 0.0
C1598 C 0.23416 0.28183 0.52271 0.0
C1599 C 0.25051 0.25823 0.51578 0.0
C1600 C 0.26834 0.23376 0.5242 0.0
C1601 C 0.25799 0.19582 0.52245 0.0
C1602 C 0.30243 0.23754 0.52193 0.0
C1603 C 0.25961 0.2475 0.53697 0.0
C1604 C 0.23998 0.27534 0.5358 0.0
C1605 C 0.22904 0.293 0.54614 0.0
C1606 C 0.23799 0.28176 0.55798 0.0
C1607 C 0.25768 0.25284 0.55957 0.0
C1608 C 0.26872 0.2356 0.54883 0.0
H1609 H 0.25163 0.52899 0.30223 0.0
H1610 H 0.20637 0.42856 0.30156 0.0
H1611 H 0.21193 0.42684 0.27866 0.0
H1612 H 0.21901 0.56251 0.27359 0.0
H1613 H 0.25303 0.58473 0.26896 0.0
H1614 H 0.24493 0.57832 0.28524 0.0
H1615 H 0.29654 0.5477 0.2881 0.0
H1616 H 0.3047 0.55372 0.27181 0.0
H1617 H 0.30576 0.51064 0.27853 0.0
H1618 H 0.22383 0.43513 0.25597 0.0
H1619 H 0.23815 0.45391 0.23493 0.0
H1620 H 0.27557 0.54967 0.25003 0.0
C1621 C 0.24265 0.50666 0.29729 0.0
C1622 C 0.22849 0.47883 0.30378 0.0
C1623 C 0.21716 0.45023 0.29688 0.0
C1624 C 0.22034 0.44898 0.28385 0.0
C1625 C 0.23481 0.47658 0.27782 0.0
C1626 C 0.24556 0.50503 0.28429 0.0
C1627 C 0.26019 0.53129 0.27555 0.0
C1628 C 0.24328 0.56628 0.27585 0.0
C1629 C 0.29379 0.53611 0.27869 0.0
C1630 C 0.2561 0.5131 0.26311 0.0
C1631 C 0.24149 0.48153 0.26469 0.0
C1632 C 0.23516 0.45985 0.25465 0.0
C1633 C 0.24349 0.47086 0.24268 0.0
C1634 C 0.25804 0.50342 0.2407 0.0
C1635 C 0.26464 0.52463 0.25116 0.0
H1636 H 0.02854 0.96395 0.5037 0.0
H1637 H 0.98658 0.0573 0.48857 0.0
H1638 H 0.97212 0.07547 0.50959 0.0
H1639 H 0.97368 0.94859 0.52798 0.0
H1640 H 1.001 0.93474 0.53941 0.0
H1641 H 0.00835 0.92829 0.52307 0.0
H1642 H 0.05861 0.96225 0.52512 0.0
H1643 H 0.05149 0.9686 0.54148 0.0
H1644 H 0.05835 1.00567 0.53154 0.0
H1645 H 0.96083 0.08383 0.53221 0.0
H1646 H 0.95676 0.0831 0.55517 0.0
H1647 H 0.00668 0.98571 0.55616 0.0
C1648 C 0.01643 0.98825 0.50482 0.0
C1649 C 0.00878 0.009 0.49433 0.0
C1650 C 0.99287 0.0407 0.49632 0.0
C1651 C 0.98438 0.05136 0.50828 0.0
C1652 C 0.99197 0.03031 0.51835 0.0
C1653 C 0.00785 0.99957 0.51681 0.0
C1654 C 0.0135 0.98229 0.52935 0.0
C1655 C 0.99822 0.94635 0.52999 0.0
C1656 C 0.04751 0.97955 0.53203 0.0
C1657 C 0.99833 0.00813 0.53808 0.0
C1658 C 0.98588 0.03551 0.53151 0.0
C1659 C 0.97057 0.06254 0.53748 0.0
C1660 C 0.96826 0.06186 0.55054 0.0
C1661 C 0.98136 0.03446 0.55755 0.0
C1662 C 0.99639 1.00714 0.55113 0.0
H1663 H 0.97456 0.21736 0.75182 0.0
H1664 H 0.01721 0.31009 0.73663 0.0
H1665 H 0.032 0.32821 0.75771 0.0
H1666 H 0.94567 0.25896 0.77988 0.0
H1667 H 0.9525 0.22146 0.78962 0.0
H1668 H 0.94476 0.21578 0.77327 0.0
H1669 H 0.9946 0.18124 0.77087 0.0
H1670 H 0.00262 0.18709 0.78719 0.0
H1671 H 0.02965 0.20097 0.77568 0.0
H1672 H 0.04372 0.33607 0.7805 0.0
H1673 H 0.04845 0.33437 0.80345 0.0
H1674 H 0.99804 0.23728 0.80409 0.0
C1675 C 0.98677 0.24162 0.75293 0.0
C1676 C 0.99465 0.26216 0.74245 0.0
C1677 C 0.01082 0.29369 0.74441 0.0
C1678 C 0.01945 0.30429 0.75639 0.0
C1679 C 0.01177 0.28328 0.76647 0.0
C1680 C 0.99558 0.25274 0.76491 0.0
C1681 C 0.9902 0.23511 0.77739 0.0
C1682 C 0.95627 0.2327 0.7802 0.0
C1683 C 0.00516 0.19896 0.7778 0.0
C1684 C 0.00591 0.26046 0.78613 0.0
C1685 C 0.01833 0.288 0.77964 0.0
C1686 C 0.03402 0.31465 0.78569 0.0
C1687 C 0.03671 0.3134 0.79875 0.0
C1688 C 0.02369 0.28576 0.80566 0.0
C1689 C 0.00832 0.25885 0.79915 0.0
H1690 H 0.97639 0.71943 0.25317 0.0
H1691 H 0.03392 0.8015 0.2385 0.0
H1692 H 0.04821 0.81816 0.25973 0.0
H1693 H 0.95002 0.76869 0.28001 0.0
H1694 H 0.94982 0.73148 0.29028 0.0
H1695 H 0.94381 0.7256 0.27382 0.0
H1696 H 0.98818 0.68172 0.27313 0.0
H1697 H 0.99444 0.68767 0.28958 0.0
H1698 H 0.0248 0.69492 0.27873 0.0
H1699 H 0.05778 0.82571 0.28258 0.0
H1700 H 0.05893 0.82559 0.3056 0.0
H1701 H 0.99482 0.73995 0.30587 0.0
C1702 C 0.99184 0.741 0.25442 0.0
C1703 C 0.00397 0.75897 0.24402 0.0
C1704 C 0.02419 0.7871 0.24619 0.0
C1705 C 0.0326 0.79685 0.25827 0.0
C1706 C 0.02061 0.77847 0.26827 0.0
C1707 C 1.00046 0.75134 0.26653 0.0
C1708 C 0.99073 0.73634 0.279 0.0
C1709 C 0.95657 0.7408 0.28089 0.0
C1710 C 1.0001 0.69788 0.28017 0.0
C1711 C 0.00858 0.75924 0.28792 0.0
C1712 C 0.02581 0.78323 0.28152 0.0
C1713 C 0.04431 0.80708 0.28771 0.0
C1714 C 0.04492 0.80675 0.30081 0.0
C1715 C 0.02702 0.78285 0.30762 0.0
C1716 C 0.00881 0.75865 0.301 0.0
H1717 H 1.00069 0.52404 1.00225 0.0
H1718 H 0.04445 0.42279 1.00315 0.0
H1719 H 0.03744 0.42052 1.02596 0.0
H1720 H 0.03225 0.55596 0.03145 0.0
H1721 H 0.99833 0.57883 0.03576 0.0
H1722 H 0.00743 0.57281 1.01956 0.0
H1723 H 0.95547 0.5436 1.016 0.0
H1724 H 0.94633 0.54915 0.03222 0.0
H1725 H 0.94494 0.50638 1.02531 0.0
H1726 H 0.02361 0.42787 0.04844 0.0
H1727 H 0.0083 0.44612 0.0694 0.0
H1728 H 0.97419 0.54371 0.05436 0.0
C1729 C 0.00908 0.50147 1.00723 0.0
C1730 C 0.02319 0.47352 1.00082 0.0
C1731 C 0.03376 0.44457 1.00778 0.0
C1732 C 0.02971 0.44299 1.02075 0.0
C1733 C 0.01522 0.47064 0.0267 0.0
C1734 C 0.00539 0.49955 1.0202 0.0
C1735 C 0.99066 0.52582 0.02889 0.0
C1736 C 0.00822 0.5604 0.02892 0.0
C1737 C 0.95737 0.53157 1.02539 0.0
C1738 C 0.99356 0.50706 0.0413 0.0
C1739 C 0.00766 0.47519 0.03976 0.0
C1740 C 0.01274 0.45286 0.04976 0.0
C1741 C 0.00382 0.46355 0.06167 0.0
C1742 C 0.99 0.49651 0.06365 0.0
C1743 C 0.98454 0.51835 0.05323 0.0
H1744 H 0.55209 0.11084 0.11011 0.0
H1745 H 0.58937 1.00624 0.11054 0.0
H1746 H 0.64024 0.03097 0.11407 0.0
H1747 H 0.60724 0.14871 0.09287 0.0
H1748 H 0.60774 0.18992 0.10092 0.0
H1749 H 0.57398 0.16401 0.10081 0.0
H1750 H 0.57302 0.16428 0.12494 0.0
H1751 H 0.60682 0.19044 0.12513 0.0
H1752 H 0.60568 0.1497 0.13351 0.0
H1753 H 0.68727 0.06715 0.11375 0.0
H1754 H 0.72667 0.11149 0.11017 0.0
H1755 H 0.65894 0.19288 0.11056 0.0
C1756 C 0.57081 0.09298 0.11127 0.0
C1757 C 0.56673 0.05652 0.11004 0.0
C1758 C 0.59188 0.03418 0.11153 0.0
C1759 C 0.62084 0.04804 0.11355 0.0
C1760 C 0.62415 0.08421 0.11428 0.0
C1761 C 0.59971 0.10636 0.11335 0.0
C1762 C 0.60949 0.14427 0.11324 0.0
C1763 C 0.599 0.16278 0.10125 0.0
C1764 C 0.59808 0.16329 0.1249 0.0
C1765 C 0.64344 0.14007 0.11357 0.0
C1766 C 0.6514 0.10521 0.11436 0.0
C1767 C 0.68132 0.0945 0.11345 0.0
C1768 C 0.70352 0.11986 0.11138 0.0
C1769 C 0.6958 0.15557 0.11029 0.0
C1770 C 0.66548 0.16587 0.11175 0.0
H1771 H 0.55758 0.13034 0.19783 0.0
H1772 H 0.58591 0.22712 0.18041 0.0
H1773 H 0.6343 0.19931 0.17454 0.0
H1774 H 0.6247 0.11124 0.2118 0.0
H1775 H 0.62233 0.06468 0.20975 0.0
H1776 H 0.58845 0.09022 0.21048 0.0
H1777 H 0.57158 0.06549 0.18912 0.0
H1778 H 0.60564 0.03992 0.1883 0.0
H1779 H 0.59619 0.06957 0.17585 0.0
H1780 H 0.68223 0.16397 0.17369 0.0
H1781 H 0.72551 0.12558 0.17846 0.0
H1782 H 0.66557 0.05153 0.19612 0.0
C1783 C 0.57361 0.14565 0.19253 0.0
C1784 C 0.56784 0.18105 0.18957 0.0
C1785 C 0.58966 0.19998 0.18273 0.0
C1786 C 0.61717 0.18431 0.17932 0.0
C1787 C 0.62234 0.14957 0.18269 0.0
C1788 C 0.60099 0.13045 0.18909 0.0
C1789 C 0.61297 0.09489 0.1928 0.0
C1790 C 0.61207 0.09001 0.20705 0.0
C1791 C 0.59556 0.06574 0.18612 0.0
C1792 C 0.64503 0.09744 0.18805 0.0
C1793 C 0.64982 0.12894 0.18202 0.0
C1794 C 0.67849 0.13891 0.17806 0.0
C1795 C 0.70292 0.11688 0.18076 0.0
C1796 C 0.69859 0.08515 0.18728 0.0
C1797 C 0.66919 0.07485 0.19062 0.0
H1798 H 0.41127 0.96164 0.94881 0.0
H1799 H 0.47306 0.88073 0.93719 0.0
H1800 H 0.43024 0.8409 0.93338 0.0
H1801 H 0.36663 0.90964 0.96615 0.0
H1802 H 0.331 0.92989 0.96252 0.0
H1803 H 0.36523 0.95478 0.96146 0.0
H1804 H 0.35343 0.97015 0.93847 0.0
H1805 H 0.31877 0.94571 0.93949 0.0
H1806 H 0.3458 0.93568 0.9275 0.0
H1807 H 0.38187 0.80658 0.93463 0.0
H1808 H 0.33173 0.78204 0.93985 0.0
H1809 H 0.30152 0.88526 0.95072 0.0
C1810 C 0.4155 0.9362 0.94481 0.0
C1811 C 0.44527 0.92448 0.94293 0.0
C1812 C 0.45026 0.89035 0.93837 0.0
C1813 C 0.42608 0.86752 0.93623 0.0
C1814 C 0.39696 0.87918 0.93871 0.0
C1815 C 0.3915 0.91293 0.94273 0.0
C1816 C 0.35862 0.91761 0.94617 0.0
C1817 C 0.3552 0.92861 0.95988 0.0
C1818 C 0.34325 0.94384 0.93738 0.0
C1819 C 0.34686 0.88097 0.94403 0.0
C1820 C 0.36913 0.85923 0.93955 0.0
C1821 C 0.36405 0.82356 0.93787 0.0
C1822 C 0.33553 0.80977 0.9409 0.0
C1823 C 0.31252 0.83159 0.94565 0.0
C1824 C 0.31838 0.86774 0.94699 0.0
H1825 H 0.40766 0.79304 0.84656 0.0
H1826 H 0.46305 0.85917 0.86995 0.0
H1827 H 0.41995 0.89884 0.87314 0.0
H1828 H 0.37312 0.85944 0.83076 0.0
H1829 H 0.33634 0.83973 0.82947 0.0
H1830 H 0.36924 0.81265 0.83097 0.0
H1831 H 0.34638 0.7825 0.85039 0.0
H1832 H 0.31308 0.80912 0.84883 0.0
H1833 H 0.33375 0.80868 0.8633 0.0
H1834 H 0.37353 0.93612 0.87115 0.0
H1835 H 0.32616 0.96594 0.8651 0.0
H1836 H 0.30103 0.87601 0.84287 0.0
C1837 C 0.41018 0.81496 0.85282 0.0
C1838 C 0.43845 0.82269 0.85822 0.0
C1839 C 0.44139 0.85254 0.86589 0.0
C1840 C 0.41706 0.87529 0.86773 0.0
C1841 C 0.38982 0.86793 0.86182 0.0
C1842 C 0.38608 0.83824 0.85465 0.0
C1843 C 0.35549 0.83831 0.84831 0.0
C1844 C 0.35877 0.8375 0.83404 0.0
C1845 C 0.33602 0.80785 0.85299 0.0
C1846 C 0.34314 0.87306 0.85271 0.0
C1847 C 0.36312 0.88964 0.86059 0.0
C1848 C 0.35743 0.92308 0.86516 0.0
C1849 C 0.33054 0.93994 0.86163 0.0
C1850 C 0.30971 0.92337 0.85357 0.0
C1851 C 0.31622 0.88936 0.84917 0.0
H1852 H 0.69696 0.642 0.59261 0.0
H1853 H 0.67942 0.71715 0.62187 0.0
H1854 H 0.63417 0.6831 0.62813 0.0
H1855 H 0.62155 0.63057 0.58356 0.0
H1856 H 0.62612 0.58498 0.57998 0.0
H1857 H 0.6578 0.61403 0.57881 0.0
H1858 H 0.68798 0.57423 0.5939 0.0
H1859 H 0.65607 0.54539 0.5953 0.0
H1860 H 0.67272 0.56429 0.60905 0.0
H1861 H 0.58893 0.64144 0.63024 0.0
H1862 H 0.54609 0.60107 0.62647 0.0
H1863 H 0.59452 0.55465 0.59576 0.0
C1864 C 0.68389 0.65128 0.60044 0.0
C1865 C 0.69189 0.68216 0.60682 0.0
C1866 C 0.67372 0.69358 0.61685 0.0
C1867 C 0.64816 0.67423 0.62052 0.0
C1868 C 0.64116 0.64363 0.61405 0.0
C1869 C 0.65847 0.63255 0.60414 0.0
C1870 C 0.64528 0.60055 0.59799 0.0
C1871 C 0.6372 0.60799 0.58428 0.0
C1872 C 0.6668 0.56927 0.59913 0.0
C1873 C 0.61741 0.59538 0.60585 0.0
C1874 C 0.61553 0.62007 0.61521 0.0
C1875 C 0.59052 0.62169 0.62308 0.0
C1876 C 0.56645 0.59846 0.62098 0.0
C1877 C 0.56768 0.5741 0.61112 0.0
C1878 C 0.5937 0.57211 0.60367 0.0
H1879 H 0.59621 0.72109 0.69809 0.0
H1880 H 0.53465 0.65607 0.67718 0.0
H1881 H 0.57617 0.61526 0.67238 0.0
H1882 H 0.66704 0.70165 0.67882 0.0
H1883 H 0.68991 0.70144 0.69272 0.0
H1884 H 0.65745 0.72962 0.6917 0.0
H1885 H 0.63673 0.70252 0.71208 0.0
H1886 H 0.66865 0.67385 0.71304 0.0
H1887 H 0.63103 0.65603 0.71297 0.0
H1888 H 0.6219 0.5758 0.67349 0.0
H1889 H 0.66815 0.54344 0.67952 0.0
H1890 H 0.69932 0.63437 0.69984 0.0
C1891 C 0.59205 0.69938 0.69187 0.0
C1892 C 0.56263 0.69227 0.6876 0.0
C1893 C 0.55736 0.66245 0.68016 0.0
C1894 C 0.58078 0.63903 0.67746 0.0
C1895 C 0.60938 0.64578 0.68231 0.0
C1896 C 0.61521 0.67561 0.68919 0.0
C1897 C 0.64663 0.67457 0.69472 0.0
C1898 C 0.66643 0.70354 0.68915 0.0
C1899 C 0.64567 0.67686 0.70904 0.0
C1900 C 0.65693 0.63892 0.69043 0.0
C1901 C 0.63545 0.62282 0.68311 0.0
C1902 C 0.63917 0.5885 0.67898 0.0
C1903 C 0.66545 0.57022 0.68249 0.0
C1904 C 0.68748 0.58621 0.69015 0.0
C1905 C 0.68313 0.62123 0.69392 0.0
H1906 H 0.4123 0.47961 0.45573 0.0
H1907 H 0.46736 0.41612 0.43139 0.0
H1908 H 0.42408 0.37712 0.42752 0.0
H1909 H 0.37771 0.41175 0.47046 0.0
H1910 H 0.34095 0.43131 0.47204 0.0
H1911 H 0.37387 0.45853 0.47093 0.0
H1912 H 0.35089 0.49085 0.45196 0.0
H1913 H 0.31756 0.4641 0.45314 0.0
H1914 H 0.33812 0.46617 0.43869 0.0
H1915 H 0.37775 0.3397 0.42902 0.0
H1916 H 0.33059 0.30907 0.43473 0.0
H1917 H 0.30556 0.39645 0.4582 0.0
C1918 C 0.4147 0.4585 0.44912 0.0
C1919 C 0.44293 0.45126 0.44364 0.0
C1920 C 0.44573 0.42239 0.4355 0.0
C1921 C 0.4213 0.40003 0.43328 0.0
C1922 C 0.3941 0.4068 0.43928 0.0
C1923 C 0.39049 0.43562 0.4469 0.0
C1924 C 0.35995 0.43485 0.45324 0.0
C1925 C 0.36335 0.43405 0.46751 0.0
C1926 C 0.34048 0.46583 0.449 0.0
C1927 C 0.34751 0.40065 0.44833 0.0
C1928 C 0.3674 0.38499 0.4402 0.0
C1929 C 0.36171 0.35204 0.43519 0.0
C1930 C 0.33494 0.33472 0.43854 0.0
C1931 C 0.3142 0.35033 0.44684 0.0
C1932 C 0.32067 0.38388 0.45169 0.0
H1933 H 0.44991 0.39123 0.34435 0.0
H1934 H 0.42487 0.29773 0.36471 0.0
H1935 H 0.37604 0.32513 0.37016 0.0
H1936 H 0.41303 0.45486 0.36496 0.0
H1937 H 0.40144 0.48203 0.35211 0.0
H1938 H 0.43554 0.45663 0.35101 0.0
H1939 H 0.41574 0.42763 0.3308 0.0
H1940 H 0.3818 0.4531 0.33178 0.0
H1941 H 0.37952 0.40624 0.33093 0.0
H1942 H 0.32835 0.3606 0.37166 0.0
H1943 H 0.28464 0.39914 0.36805 0.0
H1944 H 0.34093 0.46987 0.34683 0.0
C1945 C 0.43444 0.37656 0.35014 0.0
C1946 C 0.44139 0.34226 0.35416 0.0
C1947 C 0.42017 0.324 0.36154 0.0
C1948 C 0.39245 0.33947 0.36474 0.0
C1949 C 0.38635 0.37325 0.36053 0.0
C1950 C 0.40678 0.39152 0.35336 0.0
C1951 C 0.39394 0.42626 0.34913 0.0
C1952 C 0.41207 0.45675 0.35463 0.0
C1953 C 0.39267 0.42841 0.33481 0.0
C1954 C 0.36265 0.42441 0.35473 0.0
C1955 C 0.35891 0.39381 0.36143 0.0
C1956 C 0.33122 0.38484 0.36663 0.0
C1957 C 0.30654 0.40697 0.36456 0.0
C1958 C 0.30957 0.43779 0.35736 0.0
C1959 C 0.33822 0.44712 0.35271 0.0
H1960 H 0.09273 0.04883 0.60307 0.0
H1961 H 0.03366 0.1237 0.62078 0.0
H1962 H 0.07741 0.16111 0.62567 0.0
H1963 H 0.16156 0.06456 0.62352 0.0
H1964 H 0.1865 0.06038 0.61037 0.0
H1965 H 0.15184 0.0358 0.61087 0.0
H1966 H 0.13637 0.06187 0.58951 0.0
H1967 H 0.1707 0.0867 0.589 0.0
H1968 H 0.13486 0.10857 0.58765 0.0
H1969 H 0.12593 0.19475 0.62561 0.0
H1970 H 0.17505 0.2217 0.62035 0.0
H1971 H 0.20225 0.12574 0.60217 0.0
C1972 C 0.08932 0.07232 0.60846 0.0
C1973 C 0.06001 0.08316 0.61175 0.0
C1974 C 0.05607 0.11483 0.61832 0.0
C1975 C 0.08079 0.1362 0.62116 0.0
C1976 C 0.10935 0.12563 0.61733 0.0
C1977 C 0.11379 0.09428 0.6112 0.0
C1978 C 0.14597 0.09122 0.60661 0.0
C1979 C 0.16244 0.06121 0.61324 0.0
C1980 C 0.14701 0.08686 0.59235 0.0
C1981 C 0.15842 0.12629 0.61059 0.0
C1982 C 0.13722 0.14549 0.61701 0.0
C1983 C 0.14293 0.1797 0.62079 0.0
C1984 C 0.17087 0.19485 0.61775 0.0
C1985 C 0.19253 0.17593 0.61085 0.0
C1986 C 0.18628 0.14095 0.60751 0.0
H1987 H 0.1982 0.13831 0.69931 0.0
H1988 H 0.17041 0.04562 0.6792 0.0
H1989 H 0.12176 0.07414 0.67412 0.0
H1990 H 0.13091 0.15387 0.71366 0.0
H1991 H 0.13296 0.20076 0.71285 0.0
H1992 H 0.16702 0.17542 0.71298 0.0
H1993 H 0.18384 0.20472 0.69236 0.0
H1994 H 0.14966 0.2302 0.69216 0.0
H1995 H 0.15926 0.20337 0.67897 0.0
H1996 H 0.07342 0.10912 0.67428 0.0
H1997 H 0.03015 0.14703 0.67965 0.0
H1998 H 0.0901 0.21723 0.69919 0.0
C1999 C 0.18222 0.12416 0.69359 0.0
C2000 C 0.18817 0.08965 0.68965 0.0
C2001 C 0.16648 0.07211 0.68226 0.0
C2002 C 0.1388 0.08818 0.67932 0.0
C2003 C 0.1334 0.12193 0.68367 0.0
C2004 C 0.1547 0.13979 0.69056 0.0
C2005 C 0.14257 0.17436 0.69518 0.0
C2006 C 0.14341 0.17617 0.70951 0.0
C2007 C 0.15987 0.20497 0.68931 0.0
C2008 C 0.11056 0.17261 0.69032 0.0
C2009 C 0.1058 0.14241 0.68352 0.0
C2010 C 0.07714 0.13327 0.67926 0.0
C2011 C 0.05273 0.15496 0.6823 0.0
C2012 C 0.05716 0.18549 0.68944 0.0
C2013 C 0.08648 0.1948 0.69325 0.0
H2014 H 0.91296 0.97928 0.44974 0.0
H2015 H 0.96962 0.90884 0.42882 0.0
H2016 H 0.92537 0.87184 0.42411 0.0
H2017 H 0.87444 0.91716 0.46477 0.0
H2018 H 0.83812 0.93826 0.465 0.0
H2019 H 0.87184 0.96402 0.46394 0.0
H2020 H 0.85231 0.99302 0.44367 0.0
H2021 H 0.81812 0.96773 0.44477 0.0
H2022 H 0.84054 0.96609 0.4308 0.0
H2023 H 0.8771 0.83679 0.42515 0.0
H2024 H 0.82921 0.80832 0.43142 0.0
H2025 H 0.80461 0.90133 0.452 0.0
C2026 C 0.91555 0.95721 0.44355 0.0
C2027 C 0.94434 0.94751 0.43923 0.0
C2028 C 0.94746 0.91723 0.43183 0.0
C2029 C 0.92248 0.89598 0.42917 0.0
C2030 C 0.89449 0.90528 0.43405 0.0
C2031 C 0.89082 0.93551 0.44095 0.0
C2032 C 0.85957 0.93716 0.4466 0.0
C2033 C 0.86111 0.93925 0.46092 0.0
C2034 C 0.84157 0.96782 0.44113 0.0
C2035 C 0.84681 0.90254 0.44232 0.0
C2036 C 0.86696 0.8847 0.4349 0.0
C2037 C 0.86088 0.85087 0.43074 0.0
C2038 C 0.83366 0.83482 0.43436 0.0
C2039 C 0.81306 0.85247 0.44219 0.0
C2040 C 0.8197 0.88703 0.44595 0.0
H2041 H 0.91212 0.80845 0.35099 0.0
H2042 H 0.97349 0.88489 0.36651 0.0
H2043 H 0.93098 0.92522 0.37001 0.0
H2044 H 0.87069 0.86682 0.33381 0.0
H2045 H 0.83443 0.84639 0.33593 0.0
H2046 H 0.86826 0.82068 0.3369 0.0
H2047 H 0.85318 0.7995 0.35895 0.0
H2048 H 0.81904 0.8249 0.35799 0.0
H2049 H 0.84464 0.83106 0.37086 0.0
H2050 H 0.88332 0.96038 0.36916 0.0
H2051 H 0.83391 0.98708 0.36422 0.0
H2052 H 0.80363 0.88846 0.34881 0.0
C2053 C 0.91629 0.83309 0.35559 0.0
C2054 C 0.94592 0.84339 0.35869 0.0
C2055 C 0.95083 0.87643 0.36421 0.0
C2056 C 0.92684 0.89951 0.36625 0.0
C2057 C 0.89798 0.88926 0.36265 0.0
C2058 C 0.89252 0.85673 0.35753 0.0
C2059 C 0.86005 0.85372 0.35322 0.0
C2060 C 0.85828 0.84649 0.33913 0.0
C2061 C 0.84324 0.82563 0.36071 0.0
C2062 C 0.84851 0.88991 0.35632 0.0
C2063 C 0.87057 0.90986 0.36193 0.0
C2064 C 0.86569 0.94482 0.36495 0.0
C2065 C 0.83758 0.95983 0.36208 0.0
C2066 C 0.81479 0.93997 0.35615 0.0
C2067 C 0.82041 0.90442 0.35342 0.0
H2068 H 0.18982 0.62943 0.09568 0.0
H2069 H 0.17549 0.70055 0.1265 0.0
H2070 H 0.13198 0.66461 0.13339 0.0
H2071 H 0.11468 0.61844 0.08808 0.0
H2072 H 0.11858 0.57332 0.08369 0.0
H2073 H 0.15032 0.6022 0.08248 0.0
H2074 H 0.18161 0.56041 0.09646 0.0
H2075 H 0.14965 0.53162 0.09786 0.0
H2076 H 0.16764 0.54859 0.11164 0.0
H2077 H 0.08663 0.62334 0.13546 0.0
H2078 H 0.04249 0.58518 0.13135 0.0
H2079 H 0.08765 0.54242 0.09915 0.0
C2080 C 0.17795 0.63734 0.10401 0.0
C2081 C 0.18622 0.66783 0.11058 0.0
C2082 C 0.16964 0.67729 0.12132 0.0
C2083 C 0.14503 0.65687 0.12534 0.0
C2084 C 0.13745 0.62702 0.11855 0.0
C2085 C 0.1535 0.61749 0.10808 0.0
C2086 C 0.13949 0.58643 0.10163 0.0
C2087 C 0.13021 0.59567 0.08818 0.0
C2088 C 0.16088 0.5549 0.10192 0.0
C2089 C 0.11234 0.58043 0.10984 0.0
C2090 C 0.11173 0.60356 0.11973 0.0
C2091 C 0.08729 0.60466 0.12792 0.0
C2092 C 0.06246 0.58266 0.12561 0.0
C2093 C 0.06233 0.56012 0.1152 0.0
C2094 C 0.08787 0.55841 0.10746 0.0
H2095 H 0.05725 0.63298 0.20206 0.0
H2096 H 0.08432 0.72422 0.18089 0.0
H2097 H 0.13072 0.6932 0.17431 0.0
H2098 H 0.1269 0.61409 0.21417 0.0
H2099 H 0.12253 0.56739 0.21362 0.0
H2100 H 0.08985 0.5948 0.21486 0.0
H2101 H 0.06739 0.56621 0.19504 0.0
H2102 H 0.10026 0.53881 0.19369 0.0
H2103 H 0.08894 0.56607 0.18081 0.0
H2104 H 0.17743 0.65516 0.17275 0.0
H2105 H 0.22012 0.61512 0.17688 0.0
H2106 H 0.16165 0.54873 0.19872 0.0
C2107 C 0.07257 0.6464 0.19584 0.0
C2108 C 0.06707 0.68116 0.19199 0.0
C2109 C 0.08793 0.6976 0.18392 0.0
C2110 C 0.11429 0.68009 0.18011 0.0
C2111 C 0.11923 0.64604 0.18432 0.0
C2112 C 0.09876 0.62938 0.19197 0.0
C2113 C 0.11034 0.59419 0.19625 0.0
C2114 C 0.11255 0.59256 0.21057 0.0
C2115 C 0.09055 0.56457 0.19114 0.0
C2116 C 0.1412 0.59405 0.19026 0.0
C2117 C 0.14577 0.62391 0.18322 0.0
C2118 C 0.17376 0.6313 0.17792 0.0
C2119 C 0.19783 0.60833 0.18024 0.0
C2120 C 0.1937 0.57827 0.1877 0.0
C2121 C 0.16489 0.57065 0.19249 0.0
H2122 H 0.83773 0.30486 0.95286 0.0
H2123 H 0.77689 0.38692 0.94099 0.0
H2124 H 0.82008 0.42643 0.93778 0.0
H2125 H 0.8834 0.35737 0.97067 0.0
H2126 H 0.91855 0.3361 0.96705 0.0
H2127 H 0.88378 0.31208 0.9662 0.0
H2128 H 0.89503 0.2957 0.94327 0.0
H2129 H 0.93006 0.31949 0.94408 0.0
H2130 H 0.90288 0.32968 0.93211 0.0
H2131 H 0.86887 0.45959 0.93859 0.0
H2132 H 0.91966 0.48317 0.94318 0.0
H2133 H 0.94875 0.37997 0.95474 0.0
C2134 C 0.8337 0.3307 0.94914 0.0
C2135 C 0.80403 0.34271 0.94703 0.0
C2136 C 0.79949 0.37714 0.94259 0.0
C2137 C 0.82389 0.39978 0.94071 0.0
C2138 C 0.85282 0.38768 0.94332 0.0
C2139 C 0.8579 0.35385 0.94734 0.0
C2140 C 0.8908 0.34858 0.95071 0.0
C2141 C 0.89432 0.33792 0.96447 0.0
C2142 C 0.90556 0.32177 0.94202 0.0
C2143 C 0.90307 0.38493 0.94837 0.0
C2144 C 0.88094 0.40701 0.94394 0.0
C2145 C 0.88654 0.4424 0.94187 0.0
C2146 C 0.91544 0.45562 0.94452 0.0
C2147 C 0.93831 0.43353 0.94929 0.0
C2148 C 0.93194 0.39763 0.95102 0.0
H2149 H 0.90967 0.29386 0.84856 0.0
H2150 H 0.96494 0.36909 0.86818 0.0
H2151 H 0.9202 0.40592 0.8718 0.0
H2152 H 0.86827 0.35366 0.83229 0.0
H2153 H 0.83268 0.33097 0.83278 0.0
H2154 H 0.86735 0.30687 0.8339 0.0
H2155 H 0.84999 0.27959 0.85478 0.0
H2156 H 0.81496 0.30328 0.85364 0.0
H2157 H 0.83824 0.30762 0.86733 0.0
H2158 H 0.87146 0.43905 0.87039 0.0
H2159 H 0.82175 0.4642 0.86488 0.0
H2160 H 0.79812 0.36781 0.84608 0.0
C2161 C 0.91197 0.31727 0.85411 0.0
C2162 C 0.94058 0.32835 0.85831 0.0
C2163 C 0.94307 0.35995 0.86505 0.0
C2164 C 0.9178 0.38108 0.86714 0.0
C2165 C 0.89006 0.37032 0.86241 0.0
C2166 C 0.88687 0.33894 0.85617 0.0
C2167 C 0.85528 0.33531 0.8509 0.0
C2168 C 0.85596 0.33149 0.83663 0.0
C2169 C 0.83863 0.30463 0.85703 0.0
C2170 C 0.8417 0.36995 0.85476 0.0
C2171 C 0.86196 0.38964 0.86152 0.0
C2172 C 0.85516 0.42358 0.86531 0.0
C2173 C 0.82692 0.43774 0.8621 0.0
C2174 C 0.80586 0.41805 0.85511 0.0
C2175 C 0.81345 0.38356 0.85156 0.0
loop_
_geom_bond_atom_site_label_1
_geom_bond_atom_site_label_2
_geom_bond_distance
_geom_bond_site_symmetry_2
_ccdc_geom_bond_type
O0 Cd1 2.223 . S
O0 C8 1.315 . S
Cd1 O0 2.223 . S
Cd1 O4 2.297 1_545 S
Cd1 O5 2.439 1_545 S
Cd1 O11 2.240 . S
Cd2 O3 2.240 . S
Cd2 O10 2.223 . S
Cd2 O12 2.297 . S
Cd2 O13 2.439 . S
O3 Cd2 2.240 . S
O3 C8 1.279 . S
O4 Cd1 2.297 1_565 S
O4 C6 1.247 . S
O5 Cd1 2.439 1_565 S
O5 C6 1.208 . S
C6 O4 1.247 . S
C6 O5 1.208 . S
C7 O12 1.247 . S
C7 O13 1.208 . S
C8 O0 1.315 . S
C8 O3 1.279 . S
C9 O10 1.315 . S
C9 O11 1.279 . S
O10 Cd2 2.223 . S
O10 C9 1.315 . S
O11 Cd1 2.240 . S
O11 C9 1.279 . S
O12 Cd2 2.297 . S
O12 C7 1.247 . S
O13 Cd2 2.439 . S
O13 C7 1.208 . S
O14 Cd15 2.223 . S
O14 C22 1.315 . S
Cd15 O14 2.223 . S
Cd15 O18 2.297 . S
Cd15 O19 2.439 . S
Cd15 O25 2.240 . S
Cd16 O17 2.240 . S
Cd16 O24 2.223 . S
Cd16 O26 2.297 . S
Cd16 O27 2.439 . S
O17 Cd16 2.240 . S
O17 C22 1.279 . S
O18 Cd15 2.297 . S
O18 C20 1.247 . S
O19 Cd15 2.439 . S
O19 C20 1.208 . S
C20 O18 1.247 . S
C20 O19 1.208 . S
C21 O26 1.247 . S
C21 O27 1.208 . S
C22 O14 1.315 . S
C22 O17 1.279 . S
C23 O24 1.315 . S
C23 O25 1.279 . S
O24 Cd16 2.223 . S
O24 C23 1.315 . S
O25 Cd15 2.240 . S
O25 C23 1.279 . S
O26 Cd16 2.297 . S
O26 C21 1.247 . S
O27 Cd16 2.439 . S
O27 C21 1.208 . S
O28 Cd29 2.223 . S
O28 C36 1.315 . S
Cd29 O28 2.223 . S
Cd29 O32 2.297 . S
Cd29 O33 2.439 . S
Cd29 O39 2.240 . S
Cd30 O31 2.240 . S
Cd30 O38 2.223 . S
Cd30 O40 2.297 . S
Cd30 O41 2.439 . S
O31 Cd30 2.240 . S
O31 C36 1.279 . S
O32 Cd29 2.297 . S
O32 C34 1.247 . S
O33 Cd29 2.439 . S
O33 C34 1.208 . S
C34 O32 1.247 . S
C34 O33 1.208 . S
C35 O40 1.247 . S
C35 O41 1.208 . S
C36 O28 1.315 . S
C36 O31 1.279 . S
C37 O38 1.315 . S
C37 O39 1.279 . S
O38 Cd30 2.223 . S
O38 C37 1.315 . S
O39 Cd29 2.240 . S
O39 C37 1.279 . S
O40 Cd30 2.297 . S
O40 C35 1.247 . S
O41 Cd30 2.439 . S
O41 C35 1.208 . S
O42 Cd43 2.223 . S
O42 C50 1.315 . S
Cd43 O42 2.223 . S
Cd43 O46 2.297 1_545 S
Cd43 O47 2.439 1_545 S
Cd43 O53 2.240 . S
Cd44 O45 2.240 . S
Cd44 O52 2.223 . S
Cd44 O54 2.297 . S
Cd44 O55 2.439 . S
O45 Cd44 2.240 . S
O45 C50 1.279 . S
O46 Cd43 2.297 1_565 S
O46 C48 1.247 . S
O47 Cd43 2.439 1_565 S
O47 C48 1.208 . S
C48 O46 1.247 . S
C48 O47 1.208 . S
C49 O54 1.247 . S
C49 O55 1.208 . S
C50 O42 1.315 . S
C50 O45 1.279 . S
C51 O52 1.315 . S
C51 O53 1.279 . S
O52 Cd44 2.223 . S
O52 C51 1.315 . S
O53 Cd43 2.240 . S
O53 C51 1.279 . S
O54 Cd44 2.297 . S
O54 C49 1.247 . S
O55 Cd44 2.439 . S
O55 C49 1.208 . S
O56 Cd57 2.223 . S
O56 C64 1.315 . S
Cd57 O56 2.223 . S
Cd57 O60 2.297 1_565 S
Cd57 O61 2.439 1_565 S
Cd57 O67 2.240 . S
Cd58 O59 2.240 . S
Cd58 O66 2.223 . S
Cd58 O68 2.297 . S
Cd58 O69 2.439 . S
O59 Cd58 2.240 . S
O59 C64 1.279 . S
O60 Cd57 2.297 1_545 S
O60 C62 1.247 . S
O61 Cd57 2.439 1_545 S
O61 C62 1.208 . S
C62 O60 1.247 . S
C62 O61 1.208 . S
C63 O68 1.247 . S
C63 O69 1.208 . S
C64 O56 1.315 . S
C64 O59 1.279 . S
C65 O66 1.315 . S
C65 O67 1.279 . S
O66 Cd58 2.223 . S
O66 C65 1.315 . S
O67 Cd57 2.240 . S
O67 C65 1.279 . S
O68 Cd58 2.297 . S
O68 C63 1.247 . S
O69 Cd58 2.439 . S
O69 C63 1.208 . S
O70 Cd71 2.223 . S
O70 C78 1.315 . S
Cd71 O70 2.223 . S
Cd71 O74 2.297 . S
Cd71 O75 2.439 . S
Cd71 O81 2.240 . S
Cd72 O73 2.240 . S
Cd72 O80 2.223 . S
Cd72 O82 2.297 . S
Cd72 O83 2.439 . S
O73 Cd72 2.240 . S
O73 C78 1.279 . S
O74 Cd71 2.297 . S
O74 C76 1.247 . S
O75 Cd71 2.439 . S
O75 C76 1.208 . S
C76 O74 1.247 . S
C76 O75 1.208 . S
C77 O82 1.247 . S
C77 O83 1.208 . S
C78 O70 1.315 . S
C78 O73 1.279 . S
C79 O80 1.315 . S
C79 O81 1.279 . S
O80 Cd72 2.223 . S
O80 C79 1.315 . S
O81 Cd71 2.240 . S
O81 C79 1.279 . S
O82 Cd72 2.297 . S
O82 C77 1.247 . S
O83 Cd72 2.439 . S
O83 C77 1.208 . S
O84 Cd85 2.223 . S
O84 C92 1.315 . S
Cd85 O84 2.223 . S
Cd85 O88 2.297 . S
Cd85 O89 2.439 . S
Cd85 O95 2.240 . S
Cd86 O87 2.240 . S
Cd86 O94 2.223 . S
Cd86 O96 2.297 . S
Cd86 O97 2.439 . S
O87 Cd86 2.240 . S
O87 C92 1.279 . S
O88 Cd85 2.297 . S
O88 C90 1.247 . S
O89 Cd85 2.439 . S
O89 C90 1.208 . S
C90 O88 1.247 . S
C90 O89 1.208 . S
C91 O96 1.247 . S
C91 O97 1.208 . S
C92 O84 1.315 . S
C92 O87 1.279 . S
C93 O94 1.315 . S
C93 O95 1.279 . S
O94 Cd86 2.223 . S
O94 C93 1.315 . S
O95 Cd85 2.240 . S
O95 C93 1.279 . S
O96 Cd86 2.297 . S
O96 C91 1.247 . S
O97 Cd86 2.439 . S
O97 C91 1.208 . S
O98 Cd99 2.223 . S
O98 C106 1.315 . S
Cd99 O98 2.223 . S
Cd99 O102 2.297 1_565 S
Cd99 O103 2.439 1_565 S
Cd99 O109 2.240 . S
Cd100 O101 2.240 . S
Cd100 O108 2.223 . S
Cd100 O110 2.297 . S
Cd100 O111 2.439 . S
O101 Cd100 2.240 . S
O101 C106 1.279 . S
O102 Cd99 2.297 1_545 S
O102 C104 1.247 . S
O103 Cd99 2.439 1_545 S
O103 C104 1.208 . S
C104 O102 1.247 . S
C104 O103 1.208 . S
C105 O110 1.247 . S
C105 O111 1.208 . S
C106 O98 1.315 . S
C106 O101 1.279 . S
C107 O108 1.315 . S
C107 O109 1.279 . S
O108 Cd100 2.223 . S
O108 C107 1.315 . S
O109 Cd99 2.240 . S
O109 C107 1.279 . S
O110 Cd100 2.297 . S
O110 C105 1.247 . S
O111 Cd100 2.439 . S
O111 C105 1.208 . S
O112 Cd113 2.223 . S
O112 C120 1.315 . S
Cd113 O112 2.223 . S
Cd113 O116 2.297 . S
Cd113 O117 2.439 . S
Cd113 O123 2.240 . S
Cd114 O115 2.240 . S
Cd114 O122 2.223 . S
Cd114 O124 2.297 . S
Cd114 O125 2.439 . S
O115 Cd114 2.240 . S
O115 C120 1.279 . S
O116 Cd113 2.297 . S
O116 C118 1.247 . S
O117 Cd113 2.439 . S
O117 C118 1.208 . S
C118 O116 1.247 . S
C118 O117 1.208 . S
C119 O124 1.247 . S
C119 O125 1.208 . S
C120 O112 1.315 . S
C120 O115 1.279 . S
C121 O122 1.315 . S
C121 O123 1.279 . S
O122 Cd114 2.223 . S
O122 C121 1.315 . S
O123 Cd113 2.240 . S
O123 C121 1.279 . S
O124 Cd114 2.297 . S
O124 C119 1.247 . S
O125 Cd114 2.439 . S
O125 C119 1.208 . S
O126 Cd127 2.223 . S
O126 C134 1.315 . S
Cd127 O126 2.223 . S
Cd127 O130 2.297 . S
Cd127 O131 2.439 . S
Cd127 O137 2.240 . S
Cd128 O129 2.240 . S
Cd128 O136 2.223 . S
Cd128 O138 2.297 . S
Cd128 O139 2.439 . S
O129 Cd128 2.240 . S
O129 C134 1.279 . S
O130 Cd127 2.297 . S
O130 C132 1.247 . S
O131 Cd127 2.439 . S
O131 C132 1.208 . S
C132 O130 1.247 . S
C132 O131 1.208 . S
C133 O138 1.247 . S
C133 O139 1.208 . S
C134 O126 1.315 . S
C134 O129 1.279 . S
C135 O136 1.315 . S
C135 O137 1.279 . S
O136 Cd128 2.223 . S
O136 C135 1.315 . S
O137 Cd127 2.240 . S
O137 C135 1.279 . S
O138 Cd128 2.297 . S
O138 C133 1.247 . S
O139 Cd128 2.439 . S
O139 C133 1.208 . S
O140 Cd141 2.223 . S
O140 C148 1.315 . S
Cd141 O140 2.223 . S
Cd141 O144 2.297 . S
Cd141 O145 2.439 . S
Cd141 O151 2.240 . S
Cd142 O143 2.240 . S
Cd142 O150 2.223 . S
Cd142 O152 2.297 . S
Cd142 O153 2.439 . S
O143 Cd142 2.240 . S
O143 C148 1.279 . S
O144 Cd141 2.297 . S
O144 C146 1.247 . S
O145 Cd141 2.439 . S
O145 C146 1.208 . S
C146 O144 1.247 . S
C146 O145 1.208 . S
C147 O152 1.247 . S
C147 O153 1.208 . S
C148 O140 1.315 . S
C148 O143 1.279 . S
C149 O150 1.315 . S
C149 O151 1.279 . S
O150 Cd142 2.223 . S
O150 C149 1.315 . S
O151 Cd141 2.240 . S
O151 C149 1.279 . S
O152 Cd142 2.297 . S
O152 C147 1.247 . S
O153 Cd142 2.439 . S
O153 C147 1.208 . S
O154 Cd155 2.223 . S
O154 C162 1.315 . S
Cd155 O154 2.223 . S
Cd155 O158 2.297 . S
Cd155 O159 2.439 . S
Cd155 O165 2.240 . S
Cd156 O157 2.240 . S
Cd156 O164 2.223 . S
Cd156 O166 2.297 . S
Cd156 O167 2.439 . S
O157 Cd156 2.240 . S
O157 C162 1.279 . S
O158 Cd155 2.297 . S
O158 C160 1.247 . S
O159 Cd155 2.439 . S
O159 C160 1.208 . S
C160 O158 1.247 . S
C160 O159 1.208 . S
C161 O166 1.247 . S
C161 O167 1.208 . S
C162 O154 1.315 . S
C162 O157 1.279 . S
C163 O164 1.315 . S
C163 O165 1.279 . S
O164 Cd156 2.223 . S
O164 C163 1.315 . S
O165 Cd155 2.240 . S
O165 C163 1.279 . S
O166 Cd156 2.297 . S
O166 C161 1.247 . S
O167 Cd156 2.439 . S
O167 C161 1.208 . S
O168 Cd169 2.223 . S
O168 C176 1.315 . S
Cd169 O168 2.223 . S
Cd169 O172 2.297 . S
Cd169 O173 2.439 . S
Cd169 O179 2.240 . S
Cd170 O171 2.240 . S
Cd170 O178 2.223 . S
Cd170 O180 2.297 . S
Cd170 O181 2.439 . S
O171 Cd170 2.240 . S
O171 C176 1.279 . S
O172 Cd169 2.297 . S
O172 C174 1.247 . S
O173 Cd169 2.439 . S
O173 C174 1.208 . S
C174 O172 1.247 . S
C174 O173 1.208 . S
C175 O180 1.247 . S
C175 O181 1.208 . S
C176 O168 1.315 . S
C176 O171 1.279 . S
C177 O178 1.315 . S
C177 O179 1.279 . S
O178 Cd170 2.223 . S
O178 C177 1.315 . S
O179 Cd169 2.240 . S
O179 C177 1.279 . S
O180 Cd170 2.297 . S
O180 C175 1.247 . S
O181 Cd170 2.439 . S
O181 C175 1.208 . S
O182 Cd183 2.223 . S
O182 C190 1.315 . S
Cd183 O182 2.223 . S
Cd183 O186 2.297 . S
Cd183 O187 2.439 . S
Cd183 O193 2.240 . S
Cd184 O185 2.240 . S
Cd184 O192 2.223 . S
Cd184 O194 2.297 . S
Cd184 O195 2.439 . S
O185 Cd184 2.240 . S
O185 C190 1.279 . S
O186 Cd183 2.297 . S
O186 C188 1.247 . S
O187 Cd183 2.439 . S
O187 C188 1.208 . S
C188 O186 1.247 . S
C188 O187 1.208 . S
C189 O194 1.247 . S
C189 O195 1.208 . S
C190 O182 1.315 . S
C190 O185 1.279 . S
C191 O192 1.315 . S
C191 O193 1.279 . S
O192 Cd184 2.223 . S
O192 C191 1.315 . S
O193 Cd183 2.240 . S
O193 C191 1.279 . S
O194 Cd184 2.297 . S
O194 C189 1.247 . S
O195 Cd184 2.439 . S
O195 C189 1.208 . S
O196 Cd197 2.223 . S
O196 C204 1.315 . S
Cd197 O196 2.223 . S
Cd197 O200 2.297 . S
Cd197 O201 2.439 . S
Cd197 O207 2.240 . S
Cd198 O199 2.240 . S
Cd198 O206 2.223 . S
Cd198 O208 2.297 . S
Cd198 O209 2.439 . S
O199 Cd198 2.240 . S
O199 C204 1.279 . S
O200 Cd197 2.297 . S
O200 C202 1.247 . S
O201 Cd197 2.439 . S
O201 C202 1.208 . S
C202 O200 1.247 . S
C202 O201 1.208 . S
C203 O208 1.247 . S
C203 O209 1.208 . S
C204 O196 1.315 . S
C204 O199 1.279 . S
C205 O206 1.315 . S
C205 O207 1.279 . S
O206 Cd198 2.223 . S
O206 C205 1.315 . S
O207 Cd197 2.240 . S
O207 C205 1.279 . S
O208 Cd198 2.297 . S
O208 C203 1.247 . S
O209 Cd198 2.439 . S
O209 C203 1.208 . S
O210 Cd211 2.223 . S
O210 C218 1.315 . S
Cd211 O210 2.223 . S
Cd211 O214 2.297 . S
Cd211 O215 2.439 . S
Cd211 O221 2.240 . S
Cd212 O213 2.240 . S
Cd212 O220 2.223 . S
Cd212 O222 2.297 . S
Cd212 O223 2.439 . S
O213 Cd212 2.240 . S
O213 C218 1.279 . S
O214 Cd211 2.297 . S
O214 C216 1.247 . S
O215 Cd211 2.439 . S
O215 C216 1.208 . S
C216 O214 1.247 . S
C216 O215 1.208 . S
C217 O222 1.247 . S
C217 O223 1.208 . S
C218 O210 1.315 . S
C218 O213 1.279 . S
C219 O220 1.315 . S
C219 O221 1.279 . S
O220 Cd212 2.223 . S
O220 C219 1.315 . S
O221 Cd211 2.240 . S
O221 C219 1.279 . S
O222 Cd212 2.297 . S
O222 C217 1.247 . S
O223 Cd212 2.439 . S
O223 C217 1.208 . S
O224 Cd225 2.223 . S
O224 C232 1.315 . S
Cd225 O224 2.223 . S
Cd225 O228 2.297 1_545 S
Cd225 O229 2.439 1_545 S
Cd225 O235 2.240 1_655 S
Cd226 O227 2.240 . S
Cd226 O234 2.223 1_655 S
Cd226 O236 2.297 . S
Cd226 O237 2.439 . S
O227 Cd226 2.240 . S
O227 C232 1.279 . S
O228 Cd225 2.297 1_565 S
O228 C230 1.247 . S
O229 Cd225 2.439 1_565 S
O229 C230 1.208 . S
C230 O228 1.247 . S
C230 O229 1.208 . S
C231 O236 1.247 . S
C231 O237 1.208 . S
C232 O224 1.315 . S
C232 O227 1.279 . S
C233 O234 1.315 . S
C233 O235 1.279 . S
O234 Cd226 2.223 1_455 S
O234 C233 1.315 . S
O235 Cd225 2.240 1_455 S
O235 C233 1.279 . S
O236 Cd226 2.297 . S
O236 C231 1.247 . S
O237 Cd226 2.439 . S
O237 C231 1.208 . S
O238 Cd239 2.223 . S
O238 C246 1.315 . S
Cd239 O238 2.223 . S
Cd239 O242 2.297 . S
Cd239 O243 2.439 . S
Cd239 O249 2.240 . S
Cd240 O241 2.240 . S
Cd240 O248 2.223 . S
Cd240 O250 2.297 . S
Cd240 O251 2.439 . S
O241 Cd240 2.240 . S
O241 C246 1.279 . S
O242 Cd239 2.297 . S
O242 C244 1.247 . S
O243 Cd239 2.439 . S
O243 C244 1.208 . S
C244 O242 1.247 . S
C244 O243 1.208 . S
C245 O250 1.247 . S
C245 O251 1.208 . S
C246 O238 1.315 . S
C246 O241 1.279 . S
C247 O248 1.315 . S
C247 O249 1.279 . S
O248 Cd240 2.223 . S
O248 C247 1.315 . S
O249 Cd239 2.240 . S
O249 C247 1.279 . S
O250 Cd240 2.297 . S
O250 C245 1.247 . S
O251 Cd240 2.439 . S
O251 C245 1.208 . S
O252 Cd253 2.223 . S
O252 C260 1.315 . S
Cd253 O252 2.223 . S
Cd253 O256 2.297 . S
Cd253 O257 2.439 . S
Cd253 O263 2.240 1_655 S
Cd254 O255 2.240 . S
Cd254 O262 2.223 1_655 S
Cd254 O264 2.297 . S
Cd254 O265 2.439 . S
O255 Cd254 2.240 . S
O255 C260 1.279 . S
O256 Cd253 2.297 . S
O256 C258 1.247 . S
O257 Cd253 2.439 . S
O257 C258 1.208 . S
C258 O256 1.247 . S
C258 O257 1.208 . S
C259 O264 1.247 . S
C259 O265 1.208 . S
C260 O252 1.315 . S
C260 O255 1.279 . S
C261 O262 1.315 . S
C261 O263 1.279 . S
O262 Cd254 2.223 1_455 S
O262 C261 1.315 . S
O263 Cd253 2.240 1_455 S
O263 C261 1.279 . S
O264 Cd254 2.297 . S
O264 C259 1.247 . S
O265 Cd254 2.439 . S
O265 C259 1.208 . S
O266 Cd267 2.223 . S
O266 C274 1.315 . S
Cd267 O266 2.223 . S
Cd267 O270 2.297 1_545 S
Cd267 O271 2.439 1_545 S
Cd267 O277 2.240 . S
Cd268 O269 2.240 . S
Cd268 O276 2.223 . S
Cd268 O278 2.297 . S
Cd268 O279 2.439 . S
O269 Cd268 2.240 . S
O269 C274 1.279 . S
O270 Cd267 2.297 1_565 S
O270 C272 1.247 . S
O271 Cd267 2.439 1_565 S
O271 C272 1.208 . S
C272 O270 1.247 . S
C272 O271 1.208 . S
C273 O278 1.247 . S
C273 O279 1.208 . S
C274 O266 1.315 . S
C274 O269 1.279 . S
C275 O276 1.315 . S
C275 O277 1.279 . S
O276 Cd268 2.223 . S
O276 C275 1.315 . S
O277 Cd267 2.240 . S
O277 C275 1.279 . S
O278 Cd268 2.297 . S
O278 C273 1.247 . S
O279 Cd268 2.439 . S
O279 C273 1.208 . S
O280 Cd281 2.223 . S
O280 C288 1.315 . S
Cd281 O280 2.223 . S
Cd281 O284 2.297 1_565 S
Cd281 O285 2.439 1_565 S
Cd281 O291 2.240 1_455 S
Cd282 O283 2.240 . S
Cd282 O290 2.223 1_455 S
Cd282 O292 2.297 . S
Cd282 O293 2.439 . S
O283 Cd282 2.240 . S
O283 C288 1.279 . S
O284 Cd281 2.297 1_545 S
O284 C286 1.247 . S
O285 Cd281 2.439 1_545 S
O285 C286 1.208 . S
C286 O284 1.247 . S
C286 O285 1.208 . S
C287 O292 1.247 . S
C287 O293 1.208 . S
C288 O280 1.315 . S
C288 O283 1.279 . S
C289 O290 1.315 . S
C289 O291 1.279 . S
O290 Cd282 2.223 1_655 S
O290 C289 1.315 . S
O291 Cd281 2.240 1_655 S
O291 C289 1.279 . S
O292 Cd282 2.297 . S
O292 C287 1.247 . S
O293 Cd282 2.439 . S
O293 C287 1.208 . S
O294 Cd295 2.223 . S
O294 C302 1.315 . S
Cd295 O294 2.223 . S
Cd295 O298 2.297 . S
Cd295 O299 2.439 . S
Cd295 O305 2.240 . S
Cd296 O297 2.240 . S
Cd296 O304 2.223 . S
Cd296 O306 2.297 . S
Cd296 O307 2.439 . S
O297 Cd296 2.240 . S
O297 C302 1.279 . S
O298 Cd295 2.297 . S
O298 C300 1.247 . S
O299 Cd295 2.439 . S
O299 C300 1.208 . S
C300 O298 1.247 . S
C300 O299 1.208 . S
C301 O306 1.247 . S
C301 O307 1.208 . S
C302 O294 1.315 . S
C302 O297 1.279 . S
C303 O304 1.315 . S
C303 O305 1.279 . S
O304 Cd296 2.223 . S
O304 C303 1.315 . S
O305 Cd295 2.240 . S
O305 C303 1.279 . S
O306 Cd296 2.297 . S
O306 C301 1.247 . S
O307 Cd296 2.439 . S
O307 C301 1.208 . S
O308 Cd309 2.223 . S
O308 C316 1.315 . S
Cd309 O308 2.223 . S
Cd309 O312 2.297 . S
Cd309 O313 2.439 . S
Cd309 O319 2.240 1_455 S
Cd310 O311 2.240 . S
Cd310 O318 2.223 1_455 S
Cd310 O320 2.297 . S
Cd310 O321 2.439 . S
O311 Cd310 2.240 . S
O311 C316 1.279 . S
O312 Cd309 2.297 . S
O312 C314 1.247 . S
O313 Cd309 2.439 . S
O313 C314 1.208 . S
C314 O312 1.247 . S
C314 O313 1.208 . S
C315 O320 1.247 . S
C315 O321 1.208 . S
C316 O308 1.315 . S
C316 O311 1.279 . S
C317 O318 1.315 . S
C317 O319 1.279 . S
O318 Cd310 2.223 1_655 S
O318 C317 1.315 . S
O319 Cd309 2.240 1_655 S
O319 C317 1.279 . S
O320 Cd310 2.297 . S
O320 C315 1.247 . S
O321 Cd310 2.439 . S
O321 C315 1.208 . S
O322 Cd323 2.223 . S
O322 C330 1.315 . S
Cd323 O322 2.223 . S
Cd323 O326 2.297 1_565 S
Cd323 O327 2.439 1_565 S
Cd323 O333 2.240 . S
Cd324 O325 2.240 . S
Cd324 O332 2.223 . S
Cd324 O334 2.297 . S
Cd324 O335 2.439 . S
O325 Cd324 2.240 . S
O325 C330 1.279 . S
O326 Cd323 2.297 1_545 S
O326 C328 1.247 . S
O327 Cd323 2.439 1_545 S
O327 C328 1.208 . S
C328 O326 1.247 . S
C328 O327 1.208 . S
C329 O334 1.247 . S
C329 O335 1.208 . S
C330 O322 1.315 . S
C330 O325 1.279 . S
C331 O332 1.315 . S
C331 O333 1.279 . S
O332 Cd324 2.223 . S
O332 C331 1.315 . S
O333 Cd323 2.240 . S
O333 C331 1.279 . S
O334 Cd324 2.297 . S
O334 C329 1.247 . S
O335 Cd324 2.439 . S
O335 C329 1.208 . S
O336 Cd337 2.223 . S
O336 C344 1.315 . S
Cd337 O336 2.223 . S
Cd337 O340 2.297 . S
Cd337 O341 2.439 . S
Cd337 O347 2.240 1_655 S
Cd338 O339 2.240 . S
Cd338 O346 2.223 1_655 S
Cd338 O348 2.297 . S
Cd338 O349 2.439 . S
O339 Cd338 2.240 . S
O339 C344 1.279 . S
O340 Cd337 2.297 . S
O340 C342 1.247 . S
O341 Cd337 2.439 . S
O341 C342 1.208 . S
C342 O340 1.247 . S
C342 O341 1.208 . S
C343 O348 1.247 . S
C343 O349 1.208 . S
C344 O336 1.315 . S
C344 O339 1.279 . S
C345 O346 1.315 . S
C345 O347 1.279 . S
O346 Cd338 2.223 1_455 S
O346 C345 1.315 . S
O347 Cd337 2.240 1_455 S
O347 C345 1.279 . S
O348 Cd338 2.297 . S
O348 C343 1.247 . S
O349 Cd338 2.439 . S
O349 C343 1.208 . S
O350 Cd351 2.223 . S
O350 C358 1.315 . S
Cd351 O350 2.223 . S
Cd351 O354 2.297 . S
Cd351 O355 2.439 . S
Cd351 O361 2.240 . S
Cd352 O353 2.240 . S
Cd352 O360 2.223 . S
Cd352 O362 2.297 . S
Cd352 O363 2.439 . S
O353 Cd352 2.240 . S
O353 C358 1.279 . S
O354 Cd351 2.297 . S
O354 C356 1.247 . S
O355 Cd351 2.439 . S
O355 C356 1.208 . S
C356 O354 1.247 . S
C356 O355 1.208 . S
C357 O362 1.247 . S
C357 O363 1.208 . S
C358 O350 1.315 . S
C358 O353 1.279 . S
C359 O360 1.315 . S
C359 O361 1.279 . S
O360 Cd352 2.223 . S
O360 C359 1.315 . S
O361 Cd351 2.240 . S
O361 C359 1.279 . S
O362 Cd352 2.297 . S
O362 C357 1.247 . S
O363 Cd352 2.439 . S
O363 C357 1.208 . S
O364 Cd365 2.223 . S
O364 C372 1.315 . S
Cd365 O364 2.223 . S
Cd365 O368 2.297 . S
Cd365 O369 2.439 . S
Cd365 O375 2.240 1_655 S
Cd366 O367 2.240 . S
Cd366 O374 2.223 1_655 S
Cd366 O376 2.297 . S
Cd366 O377 2.439 . S
O367 Cd366 2.240 . S
O367 C372 1.279 . S
O368 Cd365 2.297 . S
O368 C370 1.247 . S
O369 Cd365 2.439 . S
O369 C370 1.208 . S
C370 O368 1.247 . S
C370 O369 1.208 . S
C371 O376 1.247 . S
C371 O377 1.208 . S
C372 O364 1.315 . S
C372 O367 1.279 . S
C373 O374 1.315 . S
C373 O375 1.279 . S
O374 Cd366 2.223 1_455 S
O374 C373 1.315 . S
O375 Cd365 2.240 1_455 S
O375 C373 1.279 . S
O376 Cd366 2.297 . S
O376 C371 1.247 . S
O377 Cd366 2.439 . S
O377 C371 1.208 . S
O378 Cd379 2.223 . S
O378 C386 1.315 . S
Cd379 O378 2.223 . S
Cd379 O382 2.297 . S
Cd379 O383 2.439 . S
Cd379 O389 2.240 . S
Cd380 O381 2.240 . S
Cd380 O388 2.223 . S
Cd380 O390 2.297 . S
Cd380 O391 2.439 . S
O381 Cd380 2.240 . S
O381 C386 1.279 . S
O382 Cd379 2.297 . S
O382 C384 1.247 . S
O383 Cd379 2.439 . S
O383 C384 1.208 . S
C384 O382 1.247 . S
C384 O383 1.208 . S
C385 O390 1.247 . S
C385 O391 1.208 . S
C386 O378 1.315 . S
C386 O381 1.279 . S
C387 O388 1.315 . S
C387 O389 1.279 . S
O388 Cd380 2.223 . S
O388 C387 1.315 . S
O389 Cd379 2.240 . S
O389 C387 1.279 . S
O390 Cd380 2.297 . S
O390 C385 1.247 . S
O391 Cd380 2.439 . S
O391 C385 1.208 . S
O392 Cd393 2.223 . S
O392 C400 1.315 . S
Cd393 O392 2.223 . S
Cd393 O396 2.297 . S
Cd393 O397 2.439 . S
Cd393 O403 2.240 1_455 S
Cd394 O395 2.240 . S
Cd394 O402 2.223 1_455 S
Cd394 O404 2.297 . S
Cd394 O405 2.439 . S
O395 Cd394 2.240 . S
O395 C400 1.279 . S
O396 Cd393 2.297 . S
O396 C398 1.247 . S
O397 Cd393 2.439 . S
O397 C398 1.208 . S
C398 O396 1.247 . S
C398 O397 1.208 . S
C399 O404 1.247 . S
C399 O405 1.208 . S
C400 O392 1.315 . S
C400 O395 1.279 . S
C401 O402 1.315 . S
C401 O403 1.279 . S
O402 Cd394 2.223 1_655 S
O402 C401 1.315 . S
O403 Cd393 2.240 1_655 S
O403 C401 1.279 . S
O404 Cd394 2.297 . S
O404 C399 1.247 . S
O405 Cd394 2.439 . S
O405 C399 1.208 . S
O406 Cd407 2.223 . S
O406 C414 1.315 . S
Cd407 O406 2.223 . S
Cd407 O410 2.297 . S
Cd407 O411 2.439 . S
Cd407 O417 2.240 . S
Cd408 O409 2.240 . S
Cd408 O416 2.223 . S
Cd408 O418 2.297 . S
Cd408 O419 2.439 . S
O409 Cd408 2.240 . S
O409 C414 1.279 . S
O410 Cd407 2.297 . S
O410 C412 1.247 . S
O411 Cd407 2.439 . S
O411 C412 1.208 . S
C412 O410 1.247 . S
C412 O411 1.208 . S
C413 O418 1.247 . S
C413 O419 1.208 . S
C414 O406 1.315 . S
C414 O409 1.279 . S
C415 O416 1.315 . S
C415 O417 1.279 . S
O416 Cd408 2.223 . S
O416 C415 1.315 . S
O417 Cd407 2.240 . S
O417 C415 1.279 . S
O418 Cd408 2.297 . S
O418 C413 1.247 . S
O419 Cd408 2.439 . S
O419 C413 1.208 . S
O420 Cd421 2.223 . S
O420 C428 1.315 . S
Cd421 O420 2.223 . S
Cd421 O424 2.297 . S
Cd421 O425 2.439 . S
Cd421 O431 2.240 1_455 S
Cd422 O423 2.240 . S
Cd422 O430 2.223 1_455 S
Cd422 O432 2.297 . S
Cd422 O433 2.439 . S
O423 Cd422 2.240 . S
O423 C428 1.279 . S
O424 Cd421 2.297 . S
O424 C426 1.247 . S
O425 Cd421 2.439 . S
O425 C426 1.208 . S
C426 O424 1.247 . S
C426 O425 1.208 . S
C427 O432 1.247 . S
C427 O433 1.208 . S
C428 O420 1.315 . S
C428 O423 1.279 . S
C429 O430 1.315 . S
C429 O431 1.279 . S
O430 Cd422 2.223 1_655 S
O430 C429 1.315 . S
O431 Cd421 2.240 1_655 S
O431 C429 1.279 . S
O432 Cd422 2.297 . S
O432 C427 1.247 . S
O433 Cd422 2.439 . S
O433 C427 1.208 . S
O434 Cd435 2.223 . S
O434 C442 1.315 . S
Cd435 O434 2.223 . S
Cd435 O438 2.297 . S
Cd435 O439 2.439 . S
Cd435 O445 2.240 . S
Cd436 O437 2.240 . S
Cd436 O444 2.223 . S
Cd436 O446 2.297 . S
Cd436 O447 2.439 . S
O437 Cd436 2.240 . S
O437 C442 1.279 . S
O438 Cd435 2.297 . S
O438 C440 1.247 . S
O439 Cd435 2.439 . S
O439 C440 1.208 . S
C440 O438 1.247 . S
C440 O439 1.208 . S
C441 O446 1.247 . S
C441 O447 1.208 . S
C442 O434 1.315 . S
C442 O437 1.279 . S
C443 O444 1.315 . S
C443 O445 1.279 . S
O444 Cd436 2.223 . S
O444 C443 1.315 . S
O445 Cd435 2.240 . S
O445 C443 1.279 . S
O446 Cd436 2.297 . S
O446 C441 1.247 . S
O447 Cd436 2.439 . S
O447 C441 1.208 . S
H448 C460 0.930 . S
H449 C462 0.930 . S
H450 C463 0.930 . S
H451 C467 0.959 . S
H452 C467 0.959 . S
H453 C467 0.961 . S
H454 C468 0.960 . S
H455 C468 0.961 . S
H456 C468 0.959 . S
H457 C471 0.929 . S
H458 C472 0.931 . S
H459 C474 0.930 . S
C460 H448 0.930 . S
C460 C461 1.399 . S
C460 C465 1.399 . S
C461 C460 1.399 . S
C461 C462 1.376 . S
C462 H449 0.930 . S
C462 C461 1.376 . S
C462 C463 1.388 . S
C463 H450 0.930 . S
C463 C462 1.388 . S
C463 C464 1.390 . S
C464 C463 1.390 . S
C464 C465 1.394 . S
C464 C470 1.465 . S
C465 C460 1.399 . S
C465 C464 1.394 . S
C465 C466 1.516 . S
C466 C465 1.516 . S
C466 C467 1.502 . S
C466 C468 1.561 . S
C466 C469 1.526 . S
C467 H451 0.959 . S
C467 H452 0.959 . S
C467 H453 0.961 . S
C467 C466 1.502 . S
C468 H454 0.960 . S
C468 H455 0.961 . S
C468 H456 0.959 . S
C468 C466 1.561 . S
C469 C466 1.526 . S
C469 C470 1.396 . S
C469 C474 1.390 . S
C470 C464 1.465 . S
C470 C469 1.396 . S
C470 C471 1.399 . S
C471 H457 0.929 . S
C471 C470 1.399 . S
C471 C472 1.385 . S
C472 H458 0.931 . S
C472 C471 1.385 . S
C472 C473 1.389 . S
C473 C472 1.389 . S
C473 C474 1.387 . S
C474 H459 0.930 . S
C474 C469 1.390 . S
C474 C473 1.387 . S
H475 C487 0.930 . S
H476 C489 0.930 . S
H477 C490 0.930 . S
H478 C494 0.959 . S
H479 C494 0.959 . S
H480 C494 0.961 . S
H481 C495 0.960 . S
H482 C495 0.961 . S
H483 C495 0.959 . S
H484 C498 0.929 . S
H485 C499 0.931 . S
H486 C501 0.930 . S
C487 H475 0.930 . S
C487 C488 1.399 . S
C487 C492 1.399 . S
C488 C487 1.399 . S
C488 C489 1.376 . S
C489 H476 0.930 . S
C489 C488 1.376 . S
C489 C490 1.388 . S
C490 H477 0.930 . S
C490 C489 1.388 . S
C490 C491 1.390 . S
C491 C490 1.390 . S
C491 C492 1.394 . S
C491 C497 1.465 . S
C492 C487 1.399 . S
C492 C491 1.394 . S
C492 C493 1.516 . S
C493 C492 1.516 . S
C493 C494 1.502 . S
C493 C495 1.561 . S
C493 C496 1.526 . S
C494 H478 0.959 . S
C494 H479 0.959 . S
C494 H480 0.961 . S
C494 C493 1.502 . S
C495 H481 0.960 . S
C495 H482 0.961 . S
C495 H483 0.959 . S
C495 C493 1.561 . S
C496 C493 1.526 . S
C496 C497 1.396 . S
C496 C501 1.390 . S
C497 C491 1.465 . S
C497 C496 1.396 . S
C497 C498 1.399 . S
C498 H484 0.929 . S
C498 C497 1.399 . S
C498 C499 1.385 . S
C499 H485 0.931 . S
C499 C498 1.385 . S
C499 C500 1.389 . S
C500 C499 1.389 . S
C500 C501 1.387 . S
C501 H486 0.930 . S
C501 C496 1.390 . S
C501 C500 1.387 . S
H502 C514 0.930 . S
H503 C516 0.930 . S
H504 C517 0.930 . S
H505 C521 0.959 . S
H506 C521 0.959 . S
H507 C521 0.961 . S
H508 C522 0.960 . S
H509 C522 0.961 . S
H510 C522 0.959 . S
H511 C525 0.929 . S
H512 C526 0.931 . S
H513 C528 0.930 . S
C514 H502 0.930 . S
C514 C515 1.399 . S
C514 C519 1.399 . S
C515 C514 1.399 . S
C515 C516 1.376 . S
C516 H503 0.930 . S
C516 C515 1.376 . S
C516 C517 1.388 . S
C517 H504 0.930 . S
C517 C516 1.388 . S
C517 C518 1.390 . S
C518 C517 1.390 . S
C518 C519 1.394 . S
C518 C524 1.465 . S
C519 C514 1.399 . S
C519 C518 1.394 . S
C519 C520 1.516 . S
C520 C519 1.516 . S
C520 C521 1.502 . S
C520 C522 1.561 . S
C520 C523 1.526 . S
C521 H505 0.959 . S
C521 H506 0.959 . S
C521 H507 0.961 . S
C521 C520 1.502 . S
C522 H508 0.960 . S
C522 H509 0.961 . S
C522 H510 0.959 . S
C522 C520 1.561 . S
C523 C520 1.526 . S
C523 C524 1.396 . S
C523 C528 1.390 . S
C524 C518 1.465 . S
C524 C523 1.396 . S
C524 C525 1.399 . S
C525 H511 0.929 . S
C525 C524 1.399 . S
C525 C526 1.385 . S
C526 H512 0.931 . S
C526 C525 1.385 . S
C526 C527 1.389 . S
C527 C526 1.389 . S
C527 C528 1.387 . S
C528 H513 0.930 . S
C528 C523 1.390 . S
C528 C527 1.387 . S
H529 C541 0.930 . S
H530 C543 0.930 . S
H531 C544 0.930 . S
H532 C548 0.959 . S
H533 C548 0.959 . S
H534 C548 0.961 . S
H535 C549 0.960 . S
H536 C549 0.961 . S
H537 C549 0.959 . S
H538 C552 0.929 . S
H539 C553 0.931 . S
H540 C555 0.930 . S
C541 H529 0.930 . S
C541 C542 1.399 . S
C541 C546 1.399 . S
C542 C541 1.399 . S
C542 C543 1.376 . S
C543 H530 0.930 . S
C543 C542 1.376 . S
C543 C544 1.388 . S
C544 H531 0.930 . S
C544 C543 1.388 . S
C544 C545 1.390 . S
C545 C544 1.390 . S
C545 C546 1.394 . S
C545 C551 1.465 . S
C546 C541 1.399 . S
C546 C545 1.394 . S
C546 C547 1.516 . S
C547 C546 1.516 . S
C547 C548 1.502 . S
C547 C549 1.561 . S
C547 C550 1.526 . S
C548 H532 0.959 . S
C548 H533 0.959 . S
C548 H534 0.961 . S
C548 C547 1.502 . S
C549 H535 0.960 . S
C549 H536 0.961 . S
C549 H537 0.959 . S
C549 C547 1.561 . S
C550 C547 1.526 . S
C550 C551 1.396 . S
C550 C555 1.390 . S
C551 C545 1.465 . S
C551 C550 1.396 . S
C551 C552 1.399 . S
C552 H538 0.929 . S
C552 C551 1.399 . S
C552 C553 1.385 . S
C553 H539 0.931 . S
C553 C552 1.385 . S
C553 C554 1.389 . S
C554 C553 1.389 . S
C554 C555 1.387 . S
C555 H540 0.930 . S
C555 C550 1.390 . S
C555 C554 1.387 . S
H556 C568 0.930 . S
H557 C570 0.930 . S
H558 C571 0.930 . S
H559 C575 0.959 . S
H560 C575 0.959 . S
H561 C575 0.961 . S
H562 C576 0.960 . S
H563 C576 0.961 . S
H564 C576 0.959 . S
H565 C579 0.929 . S
H566 C580 0.931 . S
H567 C582 0.930 . S
C568 H556 0.930 . S
C568 C569 1.399 . S
C568 C573 1.399 . S
C569 C568 1.399 . S
C569 C570 1.376 . S
C570 H557 0.930 . S
C570 C569 1.376 . S
C570 C571 1.388 . S
C571 H558 0.930 . S
C571 C570 1.388 . S
C571 C572 1.390 . S
C572 C571 1.390 . S
C572 C573 1.394 . S
C572 C578 1.465 . S
C573 C568 1.399 . S
C573 C572 1.394 . S
C573 C574 1.516 . S
C574 C573 1.516 . S
C574 C575 1.502 . S
C574 C576 1.561 . S
C574 C577 1.526 . S
C575 H559 0.959 . S
C575 H560 0.959 . S
C575 H561 0.961 . S
C575 C574 1.502 . S
C576 H562 0.960 . S
C576 H563 0.961 . S
C576 H564 0.959 . S
C576 C574 1.561 . S
C577 C574 1.526 . S
C577 C578 1.396 . S
C577 C582 1.390 . S
C578 C572 1.465 . S
C578 C577 1.396 . S
C578 C579 1.399 . S
C579 H565 0.929 . S
C579 C578 1.399 . S
C579 C580 1.385 . S
C580 H566 0.931 . S
C580 C579 1.385 . S
C580 C581 1.389 . S
C581 C580 1.389 . S
C581 C582 1.387 . S
C582 H567 0.930 . S
C582 C577 1.390 . S
C582 C581 1.387 . S
H583 C595 0.930 . S
H584 C597 0.930 . S
H585 C598 0.930 . S
H586 C602 0.959 . S
H587 C602 0.959 . S
H588 C602 0.961 . S
H589 C603 0.960 . S
H590 C603 0.961 . S
H591 C603 0.959 . S
H592 C606 0.929 . S
H593 C607 0.931 . S
H594 C609 0.930 . S
C595 H583 0.930 . S
C595 C596 1.399 . S
C595 C600 1.399 . S
C596 C595 1.399 . S
C596 C597 1.376 . S
C597 H584 0.930 . S
C597 C596 1.376 . S
C597 C598 1.388 . S
C598 H585 0.930 . S
C598 C597 1.388 . S
C598 C599 1.390 . S
C599 C598 1.390 . S
C599 C600 1.394 . S
C599 C605 1.465 . S
C600 C595 1.399 . S
C600 C599 1.394 . S
C600 C601 1.516 . S
C601 C600 1.516 . S
C601 C602 1.502 . S
C601 C603 1.561 . S
C601 C604 1.526 . S
C602 H586 0.959 . S
C602 H587 0.959 . S
C602 H588 0.961 . S
C602 C601 1.502 . S
C603 H589 0.960 . S
C603 H590 0.961 . S
C603 H591 0.959 . S
C603 C601 1.561 . S
C604 C601 1.526 . S
C604 C605 1.396 . S
C604 C609 1.390 . S
C605 C599 1.465 . S
C605 C604 1.396 . S
C605 C606 1.399 . S
C606 H592 0.929 . S
C606 C605 1.399 . S
C606 C607 1.385 . S
C607 H593 0.931 . S
C607 C606 1.385 . S
C607 C608 1.389 . S
C608 C607 1.389 . S
C608 C609 1.387 . S
C609 H594 0.930 . S
C609 C604 1.390 . S
C609 C608 1.387 . S
H610 C622 0.930 . S
H611 C624 0.930 . S
H612 C625 0.930 . S
H613 C629 0.959 . S
H614 C629 0.959 . S
H615 C629 0.961 . S
H616 C630 0.960 . S
H617 C630 0.961 . S
H618 C630 0.959 . S
H619 C633 0.929 . S
H620 C634 0.931 . S
H621 C636 0.930 . S
C622 H610 0.930 . S
C622 C623 1.399 . S
C622 C627 1.399 . S
C623 C622 1.399 . S
C623 C624 1.376 . S
C624 H611 0.930 . S
C624 C623 1.376 . S
C624 C625 1.388 . S
C625 H612 0.930 . S
C625 C624 1.388 . S
C625 C626 1.390 . S
C626 C625 1.390 . S
C626 C627 1.394 . S
C626 C632 1.465 . S
C627 C622 1.399 . S
C627 C626 1.394 . S
C627 C628 1.516 . S
C628 C627 1.516 . S
C628 C629 1.502 . S
C628 C630 1.561 . S
C628 C631 1.526 . S
C629 H613 0.959 . S
C629 H614 0.959 . S
C629 H615 0.961 . S
C629 C628 1.502 . S
C630 H616 0.960 . S
C630 H617 0.961 . S
C630 H618 0.959 . S
C630 C628 1.561 . S
C631 C628 1.526 . S
C631 C632 1.396 . S
C631 C636 1.390 . S
C632 C626 1.465 . S
C632 C631 1.396 . S
C632 C633 1.399 . S
C633 H619 0.929 . S
C633 C632 1.399 . S
C633 C634 1.385 . S
C634 H620 0.931 . S
C634 C633 1.385 . S
C634 C635 1.389 . S
C635 C634 1.389 . S
C635 C636 1.387 . S
C636 H621 0.930 . S
C636 C631 1.390 . S
C636 C635 1.387 . S
H637 C649 0.930 . S
H638 C651 0.930 . S
H639 C652 0.930 . S
H640 C656 0.959 . S
H641 C656 0.959 . S
H642 C656 0.961 . S
H643 C657 0.960 . S
H644 C657 0.961 . S
H645 C657 0.959 . S
H646 C660 0.929 . S
H647 C661 0.931 . S
H648 C663 0.930 . S
C649 H637 0.930 . S
C649 C650 1.399 . S
C649 C654 1.399 . S
C650 C649 1.399 . S
C650 C651 1.376 . S
C651 H638 0.930 . S
C651 C650 1.376 . S
C651 C652 1.388 . S
C652 H639 0.930 . S
C652 C651 1.388 . S
C652 C653 1.390 . S
C653 C652 1.390 . S
C653 C654 1.394 . S
C653 C659 1.465 . S
C654 C649 1.399 . S
C654 C653 1.394 . S
C654 C655 1.516 . S
C655 C654 1.516 . S
C655 C656 1.502 . S
C655 C657 1.561 . S
C655 C658 1.526 . S
C656 H640 0.959 . S
C656 H641 0.959 . S
C656 H642 0.961 . S
C656 C655 1.502 . S
C657 H643 0.960 . S
C657 H644 0.961 . S
C657 H645 0.959 . S
C657 C655 1.561 . S
C658 C655 1.526 . S
C658 C659 1.396 . S
C658 C663 1.390 . S
C659 C653 1.465 . S
C659 C658 1.396 . S
C659 C660 1.399 . S
C660 H646 0.929 . S
C660 C659 1.399 . S
C660 C661 1.385 . S
C661 H647 0.931 . S
C661 C660 1.385 . S
C661 C662 1.389 . S
C662 C661 1.389 . S
C662 C663 1.387 . S
C663 H648 0.930 . S
C663 C658 1.390 . S
C663 C662 1.387 . S
H664 C676 0.930 . S
H665 C678 0.930 . S
H666 C679 0.930 . S
H667 C683 0.959 1_455 S
H668 C683 0.959 . S
H669 C683 0.961 . S
H670 C684 0.960 . S
H671 C684 0.961 . S
H672 C684 0.959 . S
H673 C687 0.929 . S
H674 C688 0.931 . S
H675 C690 0.930 . S
C676 H664 0.930 . S
C676 C677 1.399 . S
C676 C681 1.399 . S
C677 C676 1.399 . S
C677 C678 1.376 . S
C678 H665 0.930 . S
C678 C677 1.376 . S
C678 C679 1.388 . S
C679 H666 0.930 . S
C679 C678 1.388 . S
C679 C680 1.390 . S
C680 C679 1.390 . S
C680 C681 1.394 . S
C680 C686 1.465 . S
C681 C676 1.399 . S
C681 C680 1.394 . S
C681 C682 1.516 . S
C682 C681 1.516 . S
C682 C683 1.502 . S
C682 C684 1.561 . S
C682 C685 1.526 . S
C683 H667 0.959 1_655 S
C683 H668 0.959 . S
C683 H669 0.961 . S
C683 C682 1.502 . S
C684 H670 0.960 . S
C684 H671 0.961 . S
C684 H672 0.959 . S
C684 C682 1.561 . S
C685 C682 1.526 . S
C685 C686 1.396 . S
C685 C690 1.390 . S
C686 C680 1.465 . S
C686 C685 1.396 . S
C686 C687 1.399 . S
C687 H673 0.929 . S
C687 C686 1.399 . S
C687 C688 1.385 . S
C688 H674 0.931 . S
C688 C687 1.385 . S
C688 C689 1.389 . S
C689 C688 1.389 . S
C689 C690 1.387 . S
C690 H675 0.930 . S
C690 C685 1.390 . S
C690 C689 1.387 . S
H691 C703 0.930 . S
H692 C705 0.930 . S
H693 C706 0.930 . S
H694 C710 0.959 . S
H695 C710 0.959 . S
H696 C710 0.961 . S
H697 C711 0.960 . S
H698 C711 0.961 . S
H699 C711 0.959 . S
H700 C714 0.929 . S
H701 C715 0.931 . S
H702 C717 0.930 . S
C703 H691 0.930 . S
C703 C704 1.399 . S
C703 C708 1.399 . S
C704 C703 1.399 . S
C704 C705 1.376 . S
C705 H692 0.930 . S
C705 C704 1.376 . S
C705 C706 1.388 . S
C706 H693 0.930 . S
C706 C705 1.388 . S
C706 C707 1.390 . S
C707 C706 1.390 . S
C707 C708 1.394 . S
C707 C713 1.465 . S
C708 C703 1.399 . S
C708 C707 1.394 . S
C708 C709 1.516 . S
C709 C708 1.516 . S
C709 C710 1.502 . S
C709 C711 1.561 . S
C709 C712 1.526 . S
C710 H694 0.959 . S
C710 H695 0.959 . S
C710 H696 0.961 . S
C710 C709 1.502 . S
C711 H697 0.960 . S
C711 H698 0.961 . S
C711 H699 0.959 . S
C711 C709 1.561 . S
C712 C709 1.526 . S
C712 C713 1.396 . S
C712 C717 1.390 . S
C713 C707 1.465 . S
C713 C712 1.396 . S
C713 C714 1.399 . S
C714 H700 0.929 . S
C714 C713 1.399 . S
C714 C715 1.385 . S
C715 H701 0.931 . S
C715 C714 1.385 . S
C715 C716 1.389 . S
C716 C715 1.389 . S
C716 C717 1.387 . S
C717 H702 0.930 . S
C717 C712 1.390 . S
C717 C716 1.387 . S
H718 C730 0.930 . S
H719 C732 0.930 . S
H720 C733 0.930 . S
H721 C737 0.959 1_655 S
H722 C737 0.959 . S
H723 C737 0.961 . S
H724 C738 0.960 . S
H725 C738 0.961 . S
H726 C738 0.959 . S
H727 C741 0.929 . S
H728 C742 0.931 . S
H729 C744 0.930 . S
C730 H718 0.930 . S
C730 C731 1.399 . S
C730 C735 1.399 . S
C731 C730 1.399 . S
C731 C732 1.376 . S
C732 H719 0.930 . S
C732 C731 1.376 . S
C732 C733 1.388 . S
C733 H720 0.930 . S
C733 C732 1.388 . S
C733 C734 1.390 . S
C734 C733 1.390 . S
C734 C735 1.394 . S
C734 C740 1.465 . S
C735 C730 1.399 . S
C735 C734 1.394 . S
C735 C736 1.516 . S
C736 C735 1.516 . S
C736 C737 1.502 . S
C736 C738 1.561 . S
C736 C739 1.526 . S
C737 H721 0.959 1_455 S
C737 H722 0.959 . S
C737 H723 0.961 . S
C737 C736 1.502 . S
C738 H724 0.960 . S
C738 H725 0.961 . S
C738 H726 0.959 . S
C738 C736 1.561 . S
C739 C736 1.526 . S
C739 C740 1.396 . S
C739 C744 1.390 . S
C740 C734 1.465 . S
C740 C739 1.396 . S
C740 C741 1.399 . S
C741 H727 0.929 . S
C741 C740 1.399 . S
C741 C742 1.385 . S
C742 H728 0.931 . S
C742 C741 1.385 . S
C742 C743 1.389 . S
C743 C742 1.389 . S
C743 C744 1.387 . S
C744 H729 0.930 . S
C744 C739 1.390 . S
C744 C743 1.387 . S
H745 C757 0.930 . S
H746 C759 0.930 . S
H747 C760 0.930 . S
H748 C764 0.959 . S
H749 C764 0.959 . S
H750 C764 0.961 . S
H751 C765 0.960 . S
H752 C765 0.961 . S
H753 C765 0.959 . S
H754 C768 0.929 . S
H755 C769 0.931 . S
H756 C771 0.930 . S
C757 H745 0.930 . S
C757 C758 1.399 . S
C757 C762 1.399 . S
C758 C757 1.399 . S
C758 C759 1.376 . S
C759 H746 0.930 . S
C759 C758 1.376 . S
C759 C760 1.388 . S
C760 H747 0.930 . S
C760 C759 1.388 . S
C760 C761 1.390 . S
C761 C760 1.390 . S
C761 C762 1.394 . S
C761 C767 1.465 . S
C762 C757 1.399 . S
C762 C761 1.394 . S
C762 C763 1.516 . S
C763 C762 1.516 . S
C763 C764 1.502 . S
C763 C765 1.561 . S
C763 C766 1.526 . S
C764 H748 0.959 . S
C764 H749 0.959 . S
C764 H750 0.961 . S
C764 C763 1.502 . S
C765 H751 0.960 . S
C765 H752 0.961 . S
C765 H753 0.959 . S
C765 C763 1.561 . S
C766 C763 1.526 . S
C766 C767 1.396 . S
C766 C771 1.390 . S
C767 C761 1.465 . S
C767 C766 1.396 . S
C767 C768 1.399 . S
C768 H754 0.929 . S
C768 C767 1.399 . S
C768 C769 1.385 . S
C769 H755 0.931 . S
C769 C768 1.385 . S
C769 C770 1.389 . S
C770 C769 1.389 . S
C770 C771 1.387 . S
C771 H756 0.930 . S
C771 C766 1.390 . S
C771 C770 1.387 . S
H772 C784 0.930 . S
H773 C786 0.930 . S
H774 C787 0.930 . S
H775 C791 0.947 1_455 S
H776 C791 0.951 1_455 S
H777 C791 0.952 1_455 S
H778 C792 0.960 . S
H779 C792 0.961 . S
H780 C792 0.959 . S
H781 C795 0.929 . S
H782 C796 0.931 . S
H783 C798 0.930 . S
C784 H772 0.930 . S
C784 C785 1.399 . S
C784 C789 1.399 . S
C785 C784 1.399 . S
C785 C786 1.376 . S
C786 H773 0.930 . S
C786 C785 1.376 . S
C786 C787 1.388 . S
C787 H774 0.930 . S
C787 C786 1.388 . S
C787 C788 1.390 . S
C788 C787 1.390 . S
C788 C789 1.394 . S
C788 C794 1.465 . S
C789 C784 1.399 . S
C789 C788 1.394 . S
C789 C790 1.516 . S
C790 C789 1.516 . S
C790 C791 1.533 . S
C790 C792 1.561 . S
C790 C793 1.526 . S
C791 H775 0.947 1_655 S
C791 H776 0.951 1_655 S
C791 H777 0.952 1_655 S
C791 C790 1.533 . S
C792 H778 0.960 . S
C792 H779 0.961 . S
C792 H780 0.959 . S
C792 C790 1.561 . S
C793 C790 1.526 . S
C793 C794 1.396 . S
C793 C798 1.390 . S
C794 C788 1.465 . S
C794 C793 1.396 . S
C794 C795 1.399 . S
C795 H781 0.929 . S
C795 C794 1.399 . S
C795 C796 1.385 . S
C796 H782 0.931 . S
C796 C795 1.385 . S
C796 C797 1.389 . S
C797 C796 1.389 . S
C797 C798 1.387 . S
C798 H783 0.930 . S
C798 C793 1.390 . S
C798 C797 1.387 . S
H799 C811 0.930 . S
H800 C813 0.930 . S
H801 C814 0.930 . S
H802 C818 0.959 . S
H803 C818 0.959 . S
H804 C818 0.961 . S
H805 C819 0.960 . S
H806 C819 0.961 . S
H807 C819 0.959 . S
H808 C822 0.929 . S
H809 C823 0.931 . S
H810 C825 0.930 . S
C811 H799 0.930 . S
C811 C812 1.399 . S
C811 C816 1.399 . S
C812 C811 1.399 . S
C812 C813 1.376 . S
C813 H800 0.930 . S
C813 C812 1.376 . S
C813 C814 1.388 . S
C814 H801 0.930 . S
C814 C813 1.388 . S
C814 C815 1.390 . S
C815 C814 1.390 . S
C815 C816 1.394 . S
C815 C821 1.465 . S
C816 C811 1.399 . S
C816 C815 1.394 . S
C816 C817 1.516 . S
C817 C816 1.516 . S
C817 C818 1.502 . S
C817 C819 1.561 . S
C817 C820 1.526 . S
C818 H802 0.959 . S
C818 H803 0.959 . S
C818 H804 0.961 . S
C818 C817 1.502 . S
C819 H805 0.960 . S
C819 H806 0.961 . S
C819 H807 0.959 . S
C819 C817 1.561 . S
C820 C817 1.526 . S
C820 C821 1.396 . S
C820 C825 1.390 . S
C821 C815 1.465 . S
C821 C820 1.396 . S
C821 C822 1.399 . S
C822 H808 0.929 . S
C822 C821 1.399 . S
C822 C823 1.385 . S
C823 H809 0.931 . S
C823 C822 1.385 . S
C823 C824 1.389 . S
C824 C823 1.389 . S
C824 C825 1.387 . S
C825 H810 0.930 . S
C825 C820 1.390 . S
C825 C824 1.387 . S
H826 C838 0.930 . S
H827 C840 0.930 . S
H828 C841 0.930 . S
H829 C845 0.959 . S
H830 C845 0.959 . S
H831 C845 0.961 . S
H832 C846 0.960 . S
H833 C846 0.961 . S
H834 C846 0.959 . S
H835 C849 0.929 . S
H836 C850 0.931 . S
H837 C852 0.930 . S
C838 H826 0.930 . S
C838 C839 1.399 . S
C838 C843 1.399 . S
C839 C838 1.399 . S
C839 C840 1.376 . S
C840 H827 0.930 . S
C840 C839 1.376 . S
C840 C841 1.388 . S
C841 H828 0.930 . S
C841 C840 1.388 . S
C841 C842 1.390 . S
C842 C841 1.390 . S
C842 C843 1.394 . S
C842 C848 1.465 . S
C843 C838 1.399 . S
C843 C842 1.394 . S
C843 C844 1.516 . S
C844 C843 1.516 . S
C844 C845 1.502 . S
C844 C846 1.561 . S
C844 C847 1.526 . S
C845 H829 0.959 . S
C845 H830 0.959 . S
C845 H831 0.961 . S
C845 C844 1.502 . S
C846 H832 0.960 . S
C846 H833 0.961 . S
C846 H834 0.959 . S
C846 C844 1.561 . S
C847 C844 1.526 . S
C847 C848 1.396 . S
C847 C852 1.390 . S
C848 C842 1.465 . S
C848 C847 1.396 . S
C848 C849 1.399 . S
C849 H835 0.929 . S
C849 C848 1.399 . S
C849 C850 1.385 . S
C850 H836 0.931 . S
C850 C849 1.385 . S
C850 C851 1.389 . S
C851 C850 1.389 . S
C851 C852 1.387 . S
C852 H837 0.930 . S
C852 C847 1.390 . S
C852 C851 1.387 . S
H853 C865 0.930 . S
H854 C867 0.930 . S
H855 C868 0.930 . S
H856 C872 0.959 . S
H857 C872 0.959 . S
H858 C872 0.961 . S
H859 C873 0.960 . S
H860 C873 0.961 . S
H861 C873 0.959 . S
H862 C876 0.929 . S
H863 C877 0.931 . S
H864 C879 0.930 . S
C865 H853 0.930 . S
C865 C866 1.399 . S
C865 C870 1.399 . S
C866 C865 1.399 . S
C866 C867 1.376 . S
C867 H854 0.930 . S
C867 C866 1.376 . S
C867 C868 1.388 . S
C868 H855 0.930 . S
C868 C867 1.388 . S
C868 C869 1.390 . S
C869 C868 1.390 . S
C869 C870 1.394 . S
C869 C875 1.465 . S
C870 C865 1.399 . S
C870 C869 1.394 . S
C870 C871 1.516 . S
C871 C870 1.516 . S
C871 C872 1.502 . S
C871 C873 1.561 . S
C871 C874 1.526 . S
C872 H856 0.959 . S
C872 H857 0.959 . S
C872 H858 0.961 . S
C872 C871 1.502 . S
C873 H859 0.960 . S
C873 H860 0.961 . S
C873 H861 0.959 . S
C873 C871 1.561 . S
C874 C871 1.526 . S
C874 C875 1.396 . S
C874 C879 1.390 . S
C875 C869 1.465 . S
C875 C874 1.396 . S
C875 C876 1.399 . S
C876 H862 0.929 . S
C876 C875 1.399 . S
C876 C877 1.385 . S
C877 H863 0.931 . S
C877 C876 1.385 . S
C877 C878 1.389 . S
C878 C877 1.389 . S
C878 C879 1.387 . S
C879 H864 0.930 . S
C879 C874 1.390 . S
C879 C878 1.387 . S
H880 C892 0.930 . S
H881 C894 0.930 . S
H882 C895 0.930 . S
H883 C899 0.959 . S
H884 C899 0.959 . S
H885 C899 0.961 . S
H886 C900 0.960 . S
H887 C900 0.961 . S
H888 C900 0.959 . S
H889 C903 0.929 . S
H890 C904 0.931 . S
H891 C906 0.930 . S
C892 H880 0.930 . S
C892 C893 1.399 . S
C892 C897 1.399 . S
C893 C892 1.399 . S
C893 C894 1.376 . S
C894 H881 0.930 . S
C894 C893 1.376 . S
C894 C895 1.388 . S
C895 H882 0.930 . S
C895 C894 1.388 . S
C895 C896 1.390 . S
C896 C895 1.390 . S
C896 C897 1.394 . S
C896 C902 1.465 . S
C897 C892 1.399 . S
C897 C896 1.394 . S
C897 C898 1.516 . S
C898 C897 1.516 . S
C898 C899 1.502 . S
C898 C900 1.561 . S
C898 C901 1.526 . S
C899 H883 0.959 . S
C899 H884 0.959 . S
C899 H885 0.961 . S
C899 C898 1.502 . S
C900 H886 0.960 . S
C900 H887 0.961 . S
C900 H888 0.959 . S
C900 C898 1.561 . S
C901 C898 1.526 . S
C901 C902 1.396 . S
C901 C906 1.390 . S
C902 C896 1.465 . S
C902 C901 1.396 . S
C902 C903 1.399 . S
C903 H889 0.929 . S
C903 C902 1.399 . S
C903 C904 1.385 . S
C904 H890 0.931 . S
C904 C903 1.385 . S
C904 C905 1.389 . S
C905 C904 1.389 . S
C905 C906 1.387 . S
C906 H891 0.930 . S
C906 C901 1.390 . S
C906 C905 1.387 . S
H907 C919 0.930 . S
H908 C921 0.930 . S
H909 C922 0.930 . S
H910 C926 0.959 . S
H911 C926 0.959 . S
H912 C926 0.961 . S
H913 C927 0.960 . S
H914 C927 0.961 . S
H915 C927 0.959 . S
H916 C930 0.929 . S
H917 C931 0.931 . S
H918 C933 0.930 . S
C919 H907 0.930 . S
C919 C920 1.399 . S
C919 C924 1.399 . S
C920 C919 1.399 . S
C920 C921 1.376 . S
C921 H908 0.930 . S
C921 C920 1.376 . S
C921 C922 1.388 . S
C922 H909 0.930 . S
C922 C921 1.388 . S
C922 C923 1.390 . S
C923 C922 1.390 . S
C923 C924 1.394 . S
C923 C929 1.465 . S
C924 C919 1.399 . S
C924 C923 1.394 . S
C924 C925 1.516 . S
C925 C924 1.516 . S
C925 C926 1.502 . S
C925 C927 1.561 . S
C925 C928 1.526 . S
C926 H910 0.959 . S
C926 H911 0.959 . S
C926 H912 0.961 . S
C926 C925 1.502 . S
C927 H913 0.960 . S
C927 H914 0.961 . S
C927 H915 0.959 . S
C927 C925 1.561 . S
C928 C925 1.526 . S
C928 C929 1.396 . S
C928 C933 1.390 . S
C929 C923 1.465 . S
C929 C928 1.396 . S
C929 C930 1.399 . S
C930 H916 0.929 . S
C930 C929 1.399 . S
C930 C931 1.385 . S
C931 H917 0.931 . S
C931 C930 1.385 . S
C931 C932 1.389 . S
C932 C931 1.389 . S
C932 C933 1.387 . S
C933 H918 0.930 . S
C933 C928 1.390 . S
C933 C932 1.387 . S
H934 C946 0.930 . S
H935 C948 0.930 . S
H936 C949 0.930 . S
H937 C953 0.959 . S
H938 C953 0.959 . S
H939 C953 0.961 . S
H940 C954 0.960 . S
H941 C954 0.961 . S
H942 C954 0.959 . S
H943 C957 0.929 . S
H944 C958 0.931 . S
H945 C960 0.930 . S
C946 H934 0.930 . S
C946 C947 1.399 . S
C946 C951 1.399 . S
C947 C946 1.399 . S
C947 C948 1.376 . S
C948 H935 0.930 . S
C948 C947 1.376 . S
C948 C949 1.388 . S
C949 H936 0.930 . S
C949 C948 1.388 . S
C949 C950 1.390 . S
C950 C949 1.390 . S
C950 C951 1.394 . S
C950 C956 1.465 . S
C951 C946 1.399 . S
C951 C950 1.394 . S
C951 C952 1.516 . S
C952 C951 1.516 . S
C952 C953 1.502 . S
C952 C954 1.561 . S
C952 C955 1.526 . S
C953 H937 0.959 . S
C953 H938 0.959 . S
C953 H939 0.961 . S
C953 C952 1.502 . S
C954 H940 0.960 . S
C954 H941 0.961 . S
C954 H942 0.959 . S
C954 C952 1.561 . S
C955 C952 1.526 . S
C955 C956 1.396 . S
C955 C960 1.390 . S
C956 C950 1.465 . S
C956 C955 1.396 . S
C956 C957 1.399 . S
C957 H943 0.929 . S
C957 C956 1.399 . S
C957 C958 1.385 . S
C958 H944 0.931 . S
C958 C957 1.385 . S
C958 C959 1.389 . S
C959 C958 1.389 . S
C959 C960 1.387 . S
C960 H945 0.930 . S
C960 C955 1.390 . S
C960 C959 1.387 . S
H961 C973 0.930 . S
H962 C975 0.930 . S
H963 C976 0.930 . S
H964 C980 0.959 . S
H965 C980 0.959 . S
H966 C980 0.961 . S
H967 C981 0.960 . S
H968 C981 0.961 . S
H969 C981 0.959 . S
H970 C984 0.929 . S
H971 C985 0.931 . S
H972 C987 0.930 . S
C973 H961 0.930 . S
C973 C974 1.399 . S
C973 C978 1.399 . S
C974 C973 1.399 . S
C974 C975 1.376 . S
C975 H962 0.930 . S
C975 C974 1.376 . S
C975 C976 1.388 . S
C976 H963 0.930 . S
C976 C975 1.388 . S
C976 C977 1.390 . S
C977 C976 1.390 . S
C977 C978 1.394 . S
C977 C983 1.465 . S
C978 C973 1.399 . S
C978 C977 1.394 . S
C978 C979 1.516 . S
C979 C978 1.516 . S
C979 C980 1.502 . S
C979 C981 1.561 . S
C979 C982 1.526 . S
C980 H964 0.959 . S
C980 H965 0.959 . S
C980 H966 0.961 . S
C980 C979 1.502 . S
C981 H967 0.960 . S
C981 H968 0.961 . S
C981 H969 0.959 . S
C981 C979 1.561 . S
C982 C979 1.526 . S
C982 C983 1.396 . S
C982 C987 1.390 . S
C983 C977 1.465 . S
C983 C982 1.396 . S
C983 C984 1.399 . S
C984 H970 0.929 . S
C984 C983 1.399 . S
C984 C985 1.385 . S
C985 H971 0.931 . S
C985 C984 1.385 . S
C985 C986 1.389 . S
C986 C985 1.389 . S
C986 C987 1.387 . S
C987 H972 0.930 . S
C987 C982 1.390 . S
C987 C986 1.387 . S
H988 C1000 0.930 . S
H989 C1002 0.930 . S
H990 C1003 0.930 . S
H991 C1007 0.959 . S
H992 C1007 0.959 . S
H993 C1007 0.961 . S
H994 C1008 0.960 . S
H995 C1008 0.961 . S
H996 C1008 0.959 . S
H997 C1011 0.929 . S
H998 C1012 0.931 . S
H999 C1014 0.930 . S
C1000 H988 0.930 . S
C1000 C1001 1.399 . S
C1000 C1005 1.399 . S
C1001 C1000 1.399 . S
C1001 C1002 1.376 . S
C1002 H989 0.930 . S
C1002 C1001 1.376 . S
C1002 C1003 1.388 . S
C1003 H990 0.930 . S
C1003 C1002 1.388 . S
C1003 C1004 1.390 . S
C1004 C1003 1.390 . S
C1004 C1005 1.394 . S
C1004 C1010 1.465 . S
C1005 C1000 1.399 . S
C1005 C1004 1.394 . S
C1005 C1006 1.516 . S
C1006 C1005 1.516 . S
C1006 C1007 1.502 . S
C1006 C1008 1.561 . S
C1006 C1009 1.526 . S
C1007 H991 0.959 . S
C1007 H992 0.959 . S
C1007 H993 0.961 . S
C1007 C1006 1.502 . S
C1008 H994 0.960 . S
C1008 H995 0.961 . S
C1008 H996 0.959 . S
C1008 C1006 1.561 . S
C1009 C1006 1.526 . S
C1009 C1010 1.396 . S
C1009 C1014 1.390 . S
C1010 C1004 1.465 . S
C1010 C1009 1.396 . S
C1010 C1011 1.399 . S
C1011 H997 0.929 . S
C1011 C1010 1.399 . S
C1011 C1012 1.385 . S
C1012 H998 0.931 . S
C1012 C1011 1.385 . S
C1012 C1013 1.389 . S
C1013 C1012 1.389 . S
C1013 C1014 1.387 . S
C1014 H999 0.930 . S
C1014 C1009 1.390 . S
C1014 C1013 1.387 . S
H1015 C1027 0.930 . S
H1016 C1029 0.930 . S
H1017 C1030 0.930 . S
H1018 C1034 0.959 . S
H1019 C1034 0.959 . S
H1020 C1034 0.961 . S
H1021 C1035 0.960 . S
H1022 C1035 0.961 . S
H1023 C1035 0.959 . S
H1024 C1038 0.929 . S
H1025 C1039 0.931 . S
H1026 C1041 0.930 . S
C1027 H1015 0.930 . S
C1027 C1028 1.399 . S
C1027 C1032 1.399 . S
C1028 C1027 1.399 . S
C1028 C1029 1.376 . S
C1029 H1016 0.930 . S
C1029 C1028 1.376 . S
C1029 C1030 1.388 . S
C1030 H1017 0.930 . S
C1030 C1029 1.388 . S
C1030 C1031 1.390 . S
C1031 C1030 1.390 . S
C1031 C1032 1.394 . S
C1031 C1037 1.465 . S
C1032 C1027 1.399 . S
C1032 C1031 1.394 . S
C1032 C1033 1.516 . S
C1033 C1032 1.516 . S
C1033 C1034 1.502 . S
C1033 C1035 1.561 . S
C1033 C1036 1.526 . S
C1034 H1018 0.959 . S
C1034 H1019 0.959 . S
C1034 H1020 0.961 . S
C1034 C1033 1.502 . S
C1035 H1021 0.960 . S
C1035 H1022 0.961 . S
C1035 H1023 0.959 . S
C1035 C1033 1.561 . S
C1036 C1033 1.526 . S
C1036 C1037 1.396 . S
C1036 C1041 1.390 . S
C1037 C1031 1.465 . S
C1037 C1036 1.396 . S
C1037 C1038 1.399 . S
C1038 H1024 0.929 . S
C1038 C1037 1.399 . S
C1038 C1039 1.385 . S
C1039 H1025 0.931 . S
C1039 C1038 1.385 . S
C1039 C1040 1.389 . S
C1040 C1039 1.389 . S
C1040 C1041 1.387 . S
C1041 H1026 0.930 . S
C1041 C1036 1.390 . S
C1041 C1040 1.387 . S
H1042 C1054 0.930 . S
H1043 C1056 0.930 . S
H1044 C1057 0.930 . S
H1045 C1061 0.959 . S
H1046 C1061 0.959 . S
H1047 C1061 0.961 . S
H1048 C1062 0.960 . S
H1049 C1062 0.961 . S
H1050 C1062 0.959 . S
H1051 C1065 0.929 . S
H1052 C1066 0.931 . S
H1053 C1068 0.930 . S
C1054 H1042 0.930 . S
C1054 C1055 1.399 . S
C1054 C1059 1.399 . S
C1055 C1054 1.399 . S
C1055 C1056 1.376 . S
C1056 H1043 0.930 . S
C1056 C1055 1.376 . S
C1056 C1057 1.388 . S
C1057 H1044 0.930 . S
C1057 C1056 1.388 . S
C1057 C1058 1.390 . S
C1058 C1057 1.390 . S
C1058 C1059 1.394 . S
C1058 C1064 1.465 . S
C1059 C1054 1.399 . S
C1059 C1058 1.394 . S
C1059 C1060 1.516 . S
C1060 C1059 1.516 . S
C1060 C1061 1.502 . S
C1060 C1062 1.561 . S
C1060 C1063 1.526 . S
C1061 H1045 0.959 . S
C1061 H1046 0.959 . S
C1061 H1047 0.961 . S
C1061 C1060 1.502 . S
C1062 H1048 0.960 . S
C1062 H1049 0.961 . S
C1062 H1050 0.959 . S
C1062 C1060 1.561 . S
C1063 C1060 1.526 . S
C1063 C1064 1.396 . S
C1063 C1068 1.390 . S
C1064 C1058 1.465 . S
C1064 C1063 1.396 . S
C1064 C1065 1.399 . S
C1065 H1051 0.929 . S
C1065 C1064 1.399 . S
C1065 C1066 1.385 . S
C1066 H1052 0.931 . S
C1066 C1065 1.385 . S
C1066 C1067 1.389 . S
C1067 C1066 1.389 . S
C1067 C1068 1.387 . S
C1068 H1053 0.930 . S
C1068 C1063 1.390 . S
C1068 C1067 1.387 . S
H1069 C1081 0.930 . S
H1070 C1083 0.930 . S
H1071 C1084 0.930 . S
H1072 C1088 0.959 . S
H1073 C1088 0.959 . S
H1074 C1088 0.961 . S
H1075 C1089 0.960 . S
H1076 C1089 0.961 . S
H1077 C1089 0.959 . S
H1078 C1092 0.929 . S
H1079 C1093 0.931 . S
H1080 C1095 0.930 . S
C1081 H1069 0.930 . S
C1081 C1082 1.399 . S
C1081 C1086 1.399 . S
C1082 C1081 1.399 . S
C1082 C1083 1.376 . S
C1083 H1070 0.930 . S
C1083 C1082 1.376 . S
C1083 C1084 1.388 . S
C1084 H1071 0.930 . S
C1084 C1083 1.388 . S
C1084 C1085 1.390 . S
C1085 C1084 1.390 . S
C1085 C1086 1.394 . S
C1085 C1091 1.465 . S
C1086 C1081 1.399 . S
C1086 C1085 1.394 . S
C1086 C1087 1.516 . S
C1087 C1086 1.516 . S
C1087 C1088 1.502 . S
C1087 C1089 1.561 . S
C1087 C1090 1.526 . S
C1088 H1072 0.959 . S
C1088 H1073 0.959 . S
C1088 H1074 0.961 . S
C1088 C1087 1.502 . S
C1089 H1075 0.960 . S
C1089 H1076 0.961 . S
C1089 H1077 0.959 . S
C1089 C1087 1.561 . S
C1090 C1087 1.526 . S
C1090 C1091 1.396 . S
C1090 C1095 1.390 . S
C1091 C1085 1.465 . S
C1091 C1090 1.396 . S
C1091 C1092 1.399 . S
C1092 H1078 0.929 . S
C1092 C1091 1.399 . S
C1092 C1093 1.385 . S
C1093 H1079 0.931 . S
C1093 C1092 1.385 . S
C1093 C1094 1.389 . S
C1094 C1093 1.389 . S
C1094 C1095 1.387 . S
C1095 H1080 0.930 . S
C1095 C1090 1.390 . S
C1095 C1094 1.387 . S
H1096 C1108 0.930 . S
H1097 C1110 0.930 . S
H1098 C1111 0.930 . S
H1099 C1115 0.959 . S
H1100 C1115 0.959 . S
H1101 C1115 0.961 . S
H1102 C1116 0.960 . S
H1103 C1116 0.961 . S
H1104 C1116 0.959 . S
H1105 C1119 0.929 . S
H1106 C1120 0.931 . S
H1107 C1122 0.930 . S
C1108 H1096 0.930 . S
C1108 C1109 1.399 . S
C1108 C1113 1.399 . S
C1109 C1108 1.399 . S
C1109 C1110 1.376 . S
C1110 H1097 0.930 . S
C1110 C1109 1.376 . S
C1110 C1111 1.388 . S
C1111 H1098 0.930 . S
C1111 C1110 1.388 . S
C1111 C1112 1.390 . S
C1112 C1111 1.390 . S
C1112 C1113 1.394 . S
C1112 C1118 1.465 . S
C1113 C1108 1.399 . S
C1113 C1112 1.394 . S
C1113 C1114 1.516 . S
C1114 C1113 1.516 . S
C1114 C1115 1.502 . S
C1114 C1116 1.561 . S
C1114 C1117 1.526 . S
C1115 H1099 0.959 . S
C1115 H1100 0.959 . S
C1115 H1101 0.961 . S
C1115 C1114 1.502 . S
C1116 H1102 0.960 . S
C1116 H1103 0.961 . S
C1116 H1104 0.959 . S
C1116 C1114 1.561 . S
C1117 C1114 1.526 . S
C1117 C1118 1.396 . S
C1117 C1122 1.390 . S
C1118 C1112 1.465 . S
C1118 C1117 1.396 . S
C1118 C1119 1.399 . S
C1119 H1105 0.929 . S
C1119 C1118 1.399 . S
C1119 C1120 1.385 . S
C1120 H1106 0.931 . S
C1120 C1119 1.385 . S
C1120 C1121 1.389 . S
C1121 C1120 1.389 . S
C1121 C1122 1.387 . S
C1122 H1107 0.930 . S
C1122 C1117 1.390 . S
C1122 C1121 1.387 . S
H1123 C1135 0.930 . S
H1124 C1137 0.930 . S
H1125 C1138 0.930 . S
H1126 C1142 0.959 . S
H1127 C1142 0.959 . S
H1128 C1142 0.961 . S
H1129 C1143 0.960 . S
H1130 C1143 0.961 . S
H1131 C1143 0.959 . S
H1132 C1146 0.929 . S
H1133 C1147 0.931 . S
H1134 C1149 0.930 . S
C1135 H1123 0.930 . S
C1135 C1136 1.399 . S
C1135 C1140 1.399 . S
C1136 C1135 1.399 . S
C1136 C1137 1.376 . S
C1137 H1124 0.930 . S
C1137 C1136 1.376 . S
C1137 C1138 1.388 . S
C1138 H1125 0.930 . S
C1138 C1137 1.388 . S
C1138 C1139 1.390 . S
C1139 C1138 1.390 . S
C1139 C1140 1.394 . S
C1139 C1145 1.465 . S
C1140 C1135 1.399 . S
C1140 C1139 1.394 . S
C1140 C1141 1.516 . S
C1141 C1140 1.516 . S
C1141 C1142 1.502 . S
C1141 C1143 1.561 . S
C1141 C1144 1.526 . S
C1142 H1126 0.959 . S
C1142 H1127 0.959 . S
C1142 H1128 0.961 . S
C1142 C1141 1.502 . S
C1143 H1129 0.960 . S
C1143 H1130 0.961 . S
C1143 H1131 0.959 . S
C1143 C1141 1.561 . S
C1144 C1141 1.526 . S
C1144 C1145 1.396 . S
C1144 C1149 1.390 . S
C1145 C1139 1.465 . S
C1145 C1144 1.396 . S
C1145 C1146 1.399 . S
C1146 H1132 0.929 . S
C1146 C1145 1.399 . S
C1146 C1147 1.385 . S
C1147 H1133 0.931 . S
C1147 C1146 1.385 . S
C1147 C1148 1.389 . S
C1148 C1147 1.389 . S
C1148 C1149 1.387 . S
C1149 H1134 0.930 . S
C1149 C1144 1.390 . S
C1149 C1148 1.387 . S
H1150 C1162 0.930 . S
H1151 C1164 0.930 . S
H1152 C1165 0.930 . S
H1153 C1169 0.959 . S
H1154 C1169 0.959 . S
H1155 C1169 0.961 . S
H1156 C1170 0.960 . S
H1157 C1170 0.961 . S
H1158 C1170 0.959 . S
H1159 C1173 0.929 . S
H1160 C1174 0.931 . S
H1161 C1176 0.930 . S
C1162 H1150 0.930 . S
C1162 C1163 1.399 . S
C1162 C1167 1.399 . S
C1163 C1162 1.399 . S
C1163 C1164 1.376 . S
C1164 H1151 0.930 . S
C1164 C1163 1.376 . S
C1164 C1165 1.388 . S
C1165 H1152 0.930 . S
C1165 C1164 1.388 . S
C1165 C1166 1.390 . S
C1166 C1165 1.390 . S
C1166 C1167 1.394 . S
C1166 C1172 1.465 . S
C1167 C1162 1.399 . S
C1167 C1166 1.394 . S
C1167 C1168 1.516 . S
C1168 C1167 1.516 . S
C1168 C1169 1.502 . S
C1168 C1170 1.561 . S
C1168 C1171 1.526 . S
C1169 H1153 0.959 . S
C1169 H1154 0.959 . S
C1169 H1155 0.961 . S
C1169 C1168 1.502 . S
C1170 H1156 0.960 . S
C1170 H1157 0.961 . S
C1170 H1158 0.959 . S
C1170 C1168 1.561 . S
C1171 C1168 1.526 . S
C1171 C1172 1.396 . S
C1171 C1176 1.390 . S
C1172 C1166 1.465 . S
C1172 C1171 1.396 . S
C1172 C1173 1.399 . S
C1173 H1159 0.929 . S
C1173 C1172 1.399 . S
C1173 C1174 1.385 . S
C1174 H1160 0.931 . S
C1174 C1173 1.385 . S
C1174 C1175 1.389 . S
C1175 C1174 1.389 . S
C1175 C1176 1.387 . S
C1176 H1161 0.930 . S
C1176 C1171 1.390 . S
C1176 C1175 1.387 . S
H1177 C1189 0.930 . S
H1178 C1191 0.930 . S
H1179 C1192 0.930 . S
H1180 C1196 0.959 . S
H1181 C1196 0.959 . S
H1182 C1196 0.961 . S
H1183 C1197 0.960 . S
H1184 C1197 0.961 . S
H1185 C1197 0.959 . S
H1186 C1200 0.929 . S
H1187 C1201 0.931 . S
H1188 C1203 0.930 . S
C1189 H1177 0.930 . S
C1189 C1190 1.399 . S
C1189 C1194 1.399 . S
C1190 C1189 1.399 . S
C1190 C1191 1.376 . S
C1191 H1178 0.930 . S
C1191 C1190 1.376 . S
C1191 C1192 1.388 . S
C1192 H1179 0.930 . S
C1192 C1191 1.388 . S
C1192 C1193 1.390 . S
C1193 C1192 1.390 . S
C1193 C1194 1.394 . S
C1193 C1199 1.465 . S
C1194 C1189 1.399 . S
C1194 C1193 1.394 . S
C1194 C1195 1.516 . S
C1195 C1194 1.516 . S
C1195 C1196 1.502 . S
C1195 C1197 1.561 . S
C1195 C1198 1.526 . S
C1196 H1180 0.959 . S
C1196 H1181 0.959 . S
C1196 H1182 0.961 . S
C1196 C1195 1.502 . S
C1197 H1183 0.960 . S
C1197 H1184 0.961 . S
C1197 H1185 0.959 . S
C1197 C1195 1.561 . S
C1198 C1195 1.526 . S
C1198 C1199 1.396 . S
C1198 C1203 1.390 . S
C1199 C1193 1.465 . S
C1199 C1198 1.396 . S
C1199 C1200 1.399 . S
C1200 H1186 0.929 . S
C1200 C1199 1.399 . S
C1200 C1201 1.385 . S
C1201 H1187 0.931 . S
C1201 C1200 1.385 . S
C1201 C1202 1.389 . S
C1202 C1201 1.389 . S
C1202 C1203 1.387 . S
C1203 H1188 0.930 . S
C1203 C1198 1.390 . S
C1203 C1202 1.387 . S
H1204 C1216 0.930 . S
H1205 C1218 0.930 . S
H1206 C1219 0.930 . S
H1207 C1223 0.959 . S
H1208 C1223 0.959 . S
H1209 C1223 0.961 . S
H1210 C1224 0.960 . S
H1211 C1224 0.961 . S
H1212 C1224 0.959 . S
H1213 C1227 0.929 . S
H1214 C1228 0.931 . S
H1215 C1230 0.930 . S
C1216 H1204 0.930 . S
C1216 C1217 1.399 . S
C1216 C1221 1.399 . S
C1217 C1216 1.399 . S
C1217 C1218 1.376 . S
C1218 H1205 0.930 . S
C1218 C1217 1.376 . S
C1218 C1219 1.388 . S
C1219 H1206 0.930 . S
C1219 C1218 1.388 . S
C1219 C1220 1.390 . S
C1220 C1219 1.390 . S
C1220 C1221 1.394 . S
C1220 C1226 1.465 . S
C1221 C1216 1.399 . S
C1221 C1220 1.394 . S
C1221 C1222 1.516 . S
C1222 C1221 1.516 . S
C1222 C1223 1.502 . S
C1222 C1224 1.561 . S
C1222 C1225 1.526 . S
C1223 H1207 0.959 . S
C1223 H1208 0.959 . S
C1223 H1209 0.961 . S
C1223 C1222 1.502 . S
C1224 H1210 0.960 . S
C1224 H1211 0.961 . S
C1224 H1212 0.959 . S
C1224 C1222 1.561 . S
C1225 C1222 1.526 . S
C1225 C1226 1.396 . S
C1225 C1230 1.390 . S
C1226 C1220 1.465 . S
C1226 C1225 1.396 . S
C1226 C1227 1.399 . S
C1227 H1213 0.929 . S
C1227 C1226 1.399 . S
C1227 C1228 1.385 . S
C1228 H1214 0.931 . S
C1228 C1227 1.385 . S
C1228 C1229 1.389 . S
C1229 C1228 1.389 . S
C1229 C1230 1.387 . S
C1230 H1215 0.930 . S
C1230 C1225 1.390 . S
C1230 C1229 1.387 . S
H1231 C1243 0.930 . S
H1232 C1245 0.930 . S
H1233 C1246 0.930 . S
H1234 C1250 0.959 . S
H1235 C1250 0.959 . S
H1236 C1250 0.961 . S
H1237 C1251 0.960 . S
H1238 C1251 0.961 . S
H1239 C1251 0.959 . S
H1240 C1254 0.929 . S
H1241 C1255 0.931 . S
H1242 C1257 0.930 . S
C1243 H1231 0.930 . S
C1243 C1244 1.399 . S
C1243 C1248 1.399 . S
C1244 C1243 1.399 . S
C1244 C1245 1.376 . S
C1245 H1232 0.930 . S
C1245 C1244 1.376 . S
C1245 C1246 1.388 . S
C1246 H1233 0.930 . S
C1246 C1245 1.388 . S
C1246 C1247 1.390 . S
C1247 C1246 1.390 . S
C1247 C1248 1.394 . S
C1247 C1253 1.465 . S
C1248 C1243 1.399 . S
C1248 C1247 1.394 . S
C1248 C1249 1.516 . S
C1249 C1248 1.516 . S
C1249 C1250 1.502 . S
C1249 C1251 1.561 . S
C1249 C1252 1.526 . S
C1250 H1234 0.959 . S
C1250 H1235 0.959 . S
C1250 H1236 0.961 . S
C1250 C1249 1.502 . S
C1251 H1237 0.960 . S
C1251 H1238 0.961 . S
C1251 H1239 0.959 . S
C1251 C1249 1.561 . S
C1252 C1249 1.526 . S
C1252 C1253 1.396 . S
C1252 C1257 1.390 . S
C1253 C1247 1.465 . S
C1253 C1252 1.396 . S
C1253 C1254 1.399 . S
C1254 H1240 0.929 . S
C1254 C1253 1.399 . S
C1254 C1255 1.385 . S
C1255 H1241 0.931 . S
C1255 C1254 1.385 . S
C1255 C1256 1.389 . S
C1256 C1255 1.389 . S
C1256 C1257 1.387 . S
C1257 H1242 0.930 . S
C1257 C1252 1.390 . S
C1257 C1256 1.387 . S
H1258 C1270 0.930 . S
H1259 C1272 0.930 . S
H1260 C1273 0.930 . S
H1261 C1277 0.959 . S
H1262 C1277 0.959 . S
H1263 C1277 0.961 . S
H1264 C1278 0.960 . S
H1265 C1278 0.961 . S
H1266 C1278 0.959 . S
H1267 C1281 0.929 . S
H1268 C1282 0.931 . S
H1269 C1284 0.930 . S
C1270 H1258 0.930 . S
C1270 C1271 1.399 . S
C1270 C1275 1.399 . S
C1271 C1270 1.399 . S
C1271 C1272 1.376 . S
C1272 H1259 0.930 . S
C1272 C1271 1.376 . S
C1272 C1273 1.388 . S
C1273 H1260 0.930 . S
C1273 C1272 1.388 . S
C1273 C1274 1.390 . S
C1274 C1273 1.390 . S
C1274 C1275 1.394 . S
C1274 C1280 1.465 . S
C1275 C1270 1.399 . S
C1275 C1274 1.394 . S
C1275 C1276 1.516 . S
C1276 C1275 1.516 . S
C1276 C1277 1.502 . S
C1276 C1278 1.561 . S
C1276 C1279 1.526 . S
C1277 H1261 0.959 . S
C1277 H1262 0.959 . S
C1277 H1263 0.961 . S
C1277 C1276 1.502 . S
C1278 H1264 0.960 . S
C1278 H1265 0.961 . S
C1278 H1266 0.959 . S
C1278 C1276 1.561 . S
C1279 C1276 1.526 . S
C1279 C1280 1.396 . S
C1279 C1284 1.390 . S
C1280 C1274 1.465 . S
C1280 C1279 1.396 . S
C1280 C1281 1.399 . S
C1281 H1267 0.929 . S
C1281 C1280 1.399 . S
C1281 C1282 1.385 . S
C1282 H1268 0.931 . S
C1282 C1281 1.385 . S
C1282 C1283 1.389 . S
C1283 C1282 1.389 . S
C1283 C1284 1.387 . S
C1284 H1269 0.930 . S
C1284 C1279 1.390 . S
C1284 C1283 1.387 . S
H1285 C1297 0.930 . S
H1286 C1299 0.930 . S
H1287 C1300 0.930 . S
H1288 C1304 0.959 . S
H1289 C1304 0.959 . S
H1290 C1304 0.961 . S
H1291 C1305 0.960 . S
H1292 C1305 0.961 . S
H1293 C1305 0.959 . S
H1294 C1308 0.929 . S
H1295 C1309 0.931 . S
H1296 C1311 0.930 . S
C1297 H1285 0.930 . S
C1297 C1298 1.399 . S
C1297 C1302 1.399 . S
C1298 C1297 1.399 . S
C1298 C1299 1.376 . S
C1299 H1286 0.930 . S
C1299 C1298 1.376 . S
C1299 C1300 1.388 . S
C1300 H1287 0.930 . S
C1300 C1299 1.388 . S
C1300 C1301 1.390 . S
C1301 C1300 1.390 . S
C1301 C1302 1.394 . S
C1301 C1307 1.465 . S
C1302 C1297 1.399 . S
C1302 C1301 1.394 . S
C1302 C1303 1.516 . S
C1303 C1302 1.516 . S
C1303 C1304 1.502 . S
C1303 C1305 1.561 . S
C1303 C1306 1.526 . S
C1304 H1288 0.959 . S
C1304 H1289 0.959 . S
C1304 H1290 0.961 . S
C1304 C1303 1.502 . S
C1305 H1291 0.960 . S
C1305 H1292 0.961 . S
C1305 H1293 0.959 . S
C1305 C1303 1.561 . S
C1306 C1303 1.526 . S
C1306 C1307 1.396 . S
C1306 C1311 1.390 . S
C1307 C1301 1.465 . S
C1307 C1306 1.396 . S
C1307 C1308 1.399 . S
C1308 H1294 0.929 . S
C1308 C1307 1.399 . S
C1308 C1309 1.385 . S
C1309 H1295 0.931 . S
C1309 C1308 1.385 . S
C1309 C1310 1.389 . S
C1310 C1309 1.389 . S
C1310 C1311 1.387 . S
C1311 H1296 0.930 . S
C1311 C1306 1.390 . S
C1311 C1310 1.387 . S
H1312 C1324 0.930 . S
H1313 C1326 0.930 . S
H1314 C1327 0.930 1_556 S
H1315 C1331 0.959 . S
H1316 C1331 0.959 . S
H1317 C1331 0.961 . S
H1318 C1332 0.960 . S
H1319 C1332 0.961 . S
H1320 C1332 0.959 . S
H1321 C1335 0.929 . S
H1322 C1336 0.931 . S
H1323 C1338 0.930 . S
C1324 H1312 0.930 . S
C1324 C1325 1.399 . S
C1324 C1329 1.399 . S
C1325 C1324 1.399 . S
C1325 C1326 1.376 . S
C1326 H1313 0.930 . S
C1326 C1325 1.376 . S
C1326 C1327 1.388 . S
C1327 H1314 0.930 1_554 S
C1327 C1326 1.388 . S
C1327 C1328 1.390 . S
C1328 C1327 1.390 . S
C1328 C1329 1.394 . S
C1328 C1334 1.465 1_554 S
C1329 C1324 1.399 . S
C1329 C1328 1.394 . S
C1329 C1330 1.516 1_545 S
C1330 C1329 1.516 1_565 S
C1330 C1331 1.502 . S
C1330 C1332 1.561 . S
C1330 C1333 1.526 1_554 S
C1331 H1315 0.959 . S
C1331 H1316 0.959 . S
C1331 H1317 0.961 . S
C1331 C1330 1.502 . S
C1332 H1318 0.960 . S
C1332 H1319 0.961 . S
C1332 H1320 0.959 . S
C1332 C1330 1.561 . S
C1333 C1330 1.526 1_556 S
C1333 C1334 1.396 1_565 S
C1333 C1338 1.390 . S
C1334 C1328 1.465 1_556 S
C1334 C1333 1.396 1_545 S
C1334 C1335 1.399 . S
C1335 H1321 0.929 . S
C1335 C1334 1.399 . S
C1335 C1336 1.385 1_545 S
C1336 H1322 0.931 . S
C1336 C1335 1.385 1_565 S
C1336 C1337 1.389 . S
C1337 C1336 1.389 . S
C1337 C1338 1.387 . S
C1338 H1323 0.930 . S
C1338 C1333 1.390 . S
C1338 C1337 1.387 . S
H1339 C1351 0.930 . S
H1340 C1353 0.930 . S
H1341 C1354 0.930 . S
H1342 C1358 0.959 . S
H1343 C1358 0.959 . S
H1344 C1358 0.961 . S
H1345 C1359 0.989 . S
H1346 C1359 0.961 . S
H1347 C1359 0.954 1_554 S
H1348 C1362 0.929 1_554 S
H1349 C1363 0.931 . S
H1350 C1365 0.930 . S
C1351 H1339 0.930 . S
C1351 C1352 1.399 . S
C1351 C1356 1.399 . S
C1352 C1351 1.399 . S
C1352 C1353 1.376 . S
C1353 H1340 0.930 . S
C1353 C1352 1.376 . S
C1353 C1354 1.388 . S
C1354 H1341 0.930 . S
C1354 C1353 1.388 . S
C1354 C1355 1.390 . S
C1355 C1354 1.390 . S
C1355 C1356 1.394 . S
C1355 C1361 1.465 1_554 S
C1356 C1351 1.399 . S
C1356 C1355 1.394 . S
C1356 C1357 1.516 1_554 S
C1357 C1356 1.516 1_556 S
C1357 C1358 1.502 . S
C1357 C1359 1.561 . S
C1357 C1360 1.526 . S
C1358 H1342 0.959 . S
C1358 H1343 0.959 . S
C1358 H1344 0.961 . S
C1358 C1357 1.502 . S
C1359 H1345 0.989 . S
C1359 H1346 0.961 . S
C1359 H1347 0.954 1_556 S
C1359 C1357 1.561 . S
C1360 C1357 1.526 . S
C1360 C1361 1.396 . S
C1360 C1365 1.390 . S
C1361 C1355 1.465 1_556 S
C1361 C1360 1.396 . S
C1361 C1362 1.399 . S
C1362 H1348 0.929 1_556 S
C1362 C1361 1.399 . S
C1362 C1363 1.385 . S
C1363 H1349 0.931 . S
C1363 C1362 1.385 . S
C1363 C1364 1.389 . S
C1364 C1363 1.389 . S
C1364 C1365 1.387 . S
C1365 H1350 0.930 . S
C1365 C1360 1.390 . S
C1365 C1364 1.387 . S
H1366 C1378 0.930 . S
H1367 C1380 0.930 . S
H1368 C1381 0.930 . S
H1369 C1385 0.959 . S
H1370 C1385 0.959 . S
H1371 C1385 0.961 . S
H1372 C1386 0.960 . S
H1373 C1386 0.961 . S
H1374 C1386 0.959 . S
H1375 C1389 0.929 . S
H1376 C1390 0.931 . S
H1377 C1392 0.930 . S
C1378 H1366 0.930 . S
C1378 C1379 1.399 . S
C1378 C1383 1.399 . S
C1379 C1378 1.399 . S
C1379 C1380 1.376 . S
C1380 H1367 0.930 . S
C1380 C1379 1.376 . S
C1380 C1381 1.388 . S
C1381 H1368 0.930 . S
C1381 C1380 1.388 . S
C1381 C1382 1.390 . S
C1382 C1381 1.390 . S
C1382 C1383 1.394 . S
C1382 C1388 1.465 . S
C1383 C1378 1.399 . S
C1383 C1382 1.394 . S
C1383 C1384 1.516 . S
C1384 C1383 1.516 . S
C1384 C1385 1.502 . S
C1384 C1386 1.561 . S
C1384 C1387 1.526 . S
C1385 H1369 0.959 . S
C1385 H1370 0.959 . S
C1385 H1371 0.961 . S
C1385 C1384 1.502 . S
C1386 H1372 0.960 . S
C1386 H1373 0.961 . S
C1386 H1374 0.959 . S
C1386 C1384 1.561 . S
C1387 C1384 1.526 . S
C1387 C1388 1.396 . S
C1387 C1392 1.390 . S
C1388 C1382 1.465 . S
C1388 C1387 1.396 . S
C1388 C1389 1.399 . S
C1389 H1375 0.929 . S
C1389 C1388 1.399 . S
C1389 C1390 1.385 . S
C1390 H1376 0.931 . S
C1390 C1389 1.385 . S
C1390 C1391 1.389 . S
C1391 C1390 1.389 . S
C1391 C1392 1.387 . S
C1392 H1377 0.930 . S
C1392 C1387 1.390 . S
C1392 C1391 1.387 . S
H1393 C1405 0.930 . S
H1394 C1407 0.930 . S
H1395 C1408 0.930 . S
H1396 C1412 0.959 . S
H1397 C1412 0.959 . S
H1398 C1412 0.961 . S
H1399 C1413 0.960 . S
H1400 C1413 0.961 . S
H1401 C1413 0.959 . S
H1402 C1416 0.929 . S
H1403 C1417 0.931 . S
H1404 C1419 0.930 . S
C1405 H1393 0.930 . S
C1405 C1406 1.399 . S
C1405 C1410 1.399 . S
C1406 C1405 1.399 . S
C1406 C1407 1.376 . S
C1407 H1394 0.930 . S
C1407 C1406 1.376 . S
C1407 C1408 1.388 1_545 S
C1408 H1395 0.930 . S
C1408 C1407 1.388 1_565 S
C1408 C1409 1.390 . S
C1409 C1408 1.390 . S
C1409 C1410 1.394 1_565 S
C1409 C1415 1.465 . S
C1410 C1405 1.399 . S
C1410 C1409 1.394 1_545 S
C1410 C1411 1.516 . S
C1411 C1410 1.516 . S
C1411 C1412 1.502 . S
C1411 C1413 1.561 . S
C1411 C1414 1.526 1_545 S
C1412 H1396 0.959 . S
C1412 H1397 0.959 . S
C1412 H1398 0.961 . S
C1412 C1411 1.502 . S
C1413 H1399 0.960 . S
C1413 H1400 0.961 . S
C1413 H1401 0.959 . S
C1413 C1411 1.561 . S
C1414 C1411 1.526 1_565 S
C1414 C1415 1.396 . S
C1414 C1419 1.390 . S
C1415 C1409 1.465 . S
C1415 C1414 1.396 . S
C1415 C1416 1.399 . S
C1416 H1402 0.929 . S
C1416 C1415 1.399 . S
C1416 C1417 1.385 . S
C1417 H1403 0.931 . S
C1417 C1416 1.385 . S
C1417 C1418 1.389 . S
C1418 C1417 1.389 . S
C1418 C1419 1.387 . S
C1419 H1404 0.930 . S
C1419 C1414 1.390 . S
C1419 C1418 1.387 . S
H1420 C1432 0.930 . S
H1421 C1434 0.930 . S
H1422 C1435 0.930 . S
H1423 C1439 0.959 . S
H1424 C1439 0.959 . S
H1425 C1439 0.961 . S
H1426 C1440 0.960 1_556 S
H1427 C1440 0.961 . S
H1428 C1440 0.959 1_556 S
H1429 C1443 0.894 1_556 S
H1430 C1444 0.931 . S
H1431 C1446 0.930 . S
C1432 H1420 0.930 . S
C1432 C1433 1.399 . S
C1432 C1437 1.399 . S
C1433 C1432 1.399 . S
C1433 C1434 1.376 . S
C1434 H1421 0.930 . S
C1434 C1433 1.376 . S
C1434 C1435 1.388 . S
C1435 H1422 0.930 . S
C1435 C1434 1.388 . S
C1435 C1436 1.390 . S
C1436 C1435 1.390 . S
C1436 C1437 1.394 . S
C1436 C1442 1.465 1_556 S
C1437 C1432 1.399 . S
C1437 C1436 1.394 . S
C1437 C1438 1.516 1_556 S
C1438 C1437 1.516 1_554 S
C1438 C1439 1.502 . S
C1438 C1440 1.561 . S
C1438 C1441 1.526 . S
C1439 H1423 0.959 . S
C1439 H1424 0.959 . S
C1439 H1425 0.961 . S
C1439 C1438 1.502 . S
C1440 H1426 0.960 1_554 S
C1440 H1427 0.961 . S
C1440 H1428 0.959 1_554 S
C1440 C1438 1.561 . S
C1441 C1438 1.526 . S
C1441 C1442 1.396 . S
C1441 C1446 1.390 . S
C1442 C1436 1.465 1_554 S
C1442 C1441 1.396 . S
C1442 C1443 1.399 . S
C1443 H1429 0.894 1_554 S
C1443 C1442 1.399 . S
C1443 C1444 1.385 . S
C1444 H1430 0.931 . S
C1444 C1443 1.385 . S
C1444 C1445 1.389 . S
C1445 C1444 1.389 . S
C1445 C1446 1.387 . S
C1446 H1431 0.930 . S
C1446 C1441 1.390 . S
C1446 C1445 1.387 . S
H1447 C1459 0.930 . S
H1448 C1461 0.930 . S
H1449 C1462 0.930 . S
H1450 C1466 0.959 . S
H1451 C1466 0.959 . S
H1452 C1466 0.961 . S
H1453 C1467 0.960 . S
H1454 C1467 0.961 . S
H1455 C1467 0.959 . S
H1456 C1470 0.929 . S
H1457 C1471 0.931 . S
H1458 C1473 0.930 . S
C1459 H1447 0.930 . S
C1459 C1460 1.399 . S
C1459 C1464 1.399 . S
C1460 C1459 1.399 . S
C1460 C1461 1.376 . S
C1461 H1448 0.930 . S
C1461 C1460 1.376 . S
C1461 C1462 1.388 . S
C1462 H1449 0.930 . S
C1462 C1461 1.388 . S
C1462 C1463 1.390 . S
C1463 C1462 1.390 . S
C1463 C1464 1.394 . S
C1463 C1469 1.465 . S
C1464 C1459 1.399 . S
C1464 C1463 1.394 . S
C1464 C1465 1.516 . S
C1465 C1464 1.516 . S
C1465 C1466 1.502 . S
C1465 C1467 1.561 . S
C1465 C1468 1.526 . S
C1466 H1450 0.959 . S
C1466 H1451 0.959 . S
C1466 H1452 0.961 . S
C1466 C1465 1.502 . S
C1467 H1453 0.960 . S
C1467 H1454 0.961 . S
C1467 H1455 0.959 . S
C1467 C1465 1.561 . S
C1468 C1465 1.526 . S
C1468 C1469 1.396 . S
C1468 C1473 1.390 . S
C1469 C1463 1.465 . S
C1469 C1468 1.396 . S
C1469 C1470 1.399 . S
C1470 H1456 0.929 . S
C1470 C1469 1.399 . S
C1470 C1471 1.385 . S
C1471 H1457 0.931 . S
C1471 C1470 1.385 . S
C1471 C1472 1.389 . S
C1472 C1471 1.389 . S
C1472 C1473 1.387 . S
C1473 H1458 0.930 . S
C1473 C1468 1.390 . S
C1473 C1472 1.387 . S
H1474 C1486 0.930 . S
H1475 C1488 0.930 . S
H1476 C1489 0.930 . S
H1477 C1493 0.959 . S
H1478 C1493 0.959 . S
H1479 C1493 0.961 . S
H1480 C1494 0.960 . S
H1481 C1494 0.961 . S
H1482 C1494 0.959 . S
H1483 C1497 0.929 . S
H1484 C1498 0.931 . S
H1485 C1500 0.944 . S
C1486 H1474 0.930 . S
C1486 C1487 1.399 . S
C1486 C1491 1.399 . S
C1487 C1486 1.399 . S
C1487 C1488 1.376 . S
C1488 H1475 0.930 . S
C1488 C1487 1.376 . S
C1488 C1489 1.388 1_545 S
C1489 H1476 0.930 . S
C1489 C1488 1.388 1_565 S
C1489 C1490 1.390 . S
C1490 C1489 1.390 . S
C1490 C1491 1.394 1_565 S
C1490 C1496 1.465 . S
C1491 C1486 1.399 . S
C1491 C1490 1.394 1_545 S
C1491 C1492 1.516 . S
C1492 C1491 1.516 . S
C1492 C1493 1.502 . S
C1492 C1494 1.561 . S
C1492 C1495 1.526 1_545 S
C1493 H1477 0.959 . S
C1493 H1478 0.959 . S
C1493 H1479 0.961 . S
C1493 C1492 1.502 . S
C1494 H1480 0.960 . S
C1494 H1481 0.961 . S
C1494 H1482 0.959 . S
C1494 C1492 1.561 . S
C1495 C1492 1.526 1_565 S
C1495 C1496 1.396 . S
C1495 C1500 1.390 . S
C1496 C1490 1.465 . S
C1496 C1495 1.396 . S
C1496 C1497 1.399 . S
C1497 H1483 0.929 . S
C1497 C1496 1.399 . S
C1497 C1498 1.385 . S
C1498 H1484 0.931 . S
C1498 C1497 1.385 . S
C1498 C1499 1.389 . S
C1499 C1498 1.389 . S
C1499 C1500 1.387 . S
C1500 H1485 0.944 . S
C1500 C1495 1.390 . S
C1500 C1499 1.387 . S
H1501 C1513 0.930 . S
H1502 C1515 0.930 . S
H1503 C1516 0.930 . S
H1504 C1520 0.959 . S
H1505 C1520 0.959 . S
H1506 C1520 0.961 . S
H1507 C1521 0.960 . S
H1508 C1521 0.961 . S
H1509 C1521 0.959 . S
H1510 C1524 0.929 . S
H1511 C1525 0.931 . S
H1512 C1527 0.930 . S
C1513 H1501 0.930 . S
C1513 C1514 1.399 . S
C1513 C1518 1.399 . S
C1514 C1513 1.399 . S
C1514 C1515 1.376 . S
C1515 H1502 0.930 . S
C1515 C1514 1.376 . S
C1515 C1516 1.388 . S
C1516 H1503 0.930 . S
C1516 C1515 1.388 . S
C1516 C1517 1.390 . S
C1517 C1516 1.390 . S
C1517 C1518 1.394 . S
C1517 C1523 1.465 . S
C1518 C1513 1.399 . S
C1518 C1517 1.394 . S
C1518 C1519 1.516 . S
C1519 C1518 1.516 . S
C1519 C1520 1.502 . S
C1519 C1521 1.561 . S
C1519 C1522 1.526 . S
C1520 H1504 0.959 . S
C1520 H1505 0.959 . S
C1520 H1506 0.961 . S
C1520 C1519 1.502 . S
C1521 H1507 0.960 . S
C1521 H1508 0.961 . S
C1521 H1509 0.959 . S
C1521 C1519 1.561 . S
C1522 C1519 1.526 . S
C1522 C1523 1.396 . S
C1522 C1527 1.390 . S
C1523 C1517 1.465 . S
C1523 C1522 1.396 . S
C1523 C1524 1.399 . S
C1524 H1510 0.929 . S
C1524 C1523 1.399 . S
C1524 C1525 1.385 . S
C1525 H1511 0.931 . S
C1525 C1524 1.385 . S
C1525 C1526 1.389 . S
C1526 C1525 1.389 . S
C1526 C1527 1.387 . S
C1527 H1512 0.930 . S
C1527 C1522 1.390 . S
C1527 C1526 1.387 . S
H1528 C1540 0.930 . S
H1529 C1542 0.930 . S
H1530 C1543 0.930 . S
H1531 C1547 0.959 . S
H1532 C1547 0.959 . S
H1533 C1547 0.961 . S
H1534 C1548 0.960 . S
H1535 C1548 0.961 . S
H1536 C1548 0.959 . S
H1537 C1551 0.929 . S
H1538 C1552 0.931 . S
H1539 C1554 0.930 . S
C1540 H1528 0.930 . S
C1540 C1541 1.399 . S
C1540 C1545 1.399 . S
C1541 C1540 1.399 . S
C1541 C1542 1.376 . S
C1542 H1529 0.930 . S
C1542 C1541 1.376 . S
C1542 C1543 1.388 . S
C1543 H1530 0.930 . S
C1543 C1542 1.388 . S
C1543 C1544 1.390 . S
C1544 C1543 1.390 . S
C1544 C1545 1.394 . S
C1544 C1550 1.465 . S
C1545 C1540 1.399 . S
C1545 C1544 1.394 . S
C1545 C1546 1.516 . S
C1546 C1545 1.516 . S
C1546 C1547 1.502 . S
C1546 C1548 1.561 . S
C1546 C1549 1.526 . S
C1547 H1531 0.959 . S
C1547 H1532 0.959 . S
C1547 H1533 0.961 . S
C1547 C1546 1.502 . S
C1548 H1534 0.960 . S
C1548 H1535 0.961 . S
C1548 H1536 0.959 . S
C1548 C1546 1.561 . S
C1549 C1546 1.526 . S
C1549 C1550 1.396 . S
C1549 C1554 1.390 . S
C1550 C1544 1.465 . S
C1550 C1549 1.396 . S
C1550 C1551 1.399 . S
C1551 H1537 0.929 . S
C1551 C1550 1.399 . S
C1551 C1552 1.385 . S
C1552 H1538 0.931 . S
C1552 C1551 1.385 . S
C1552 C1553 1.389 . S
C1553 C1552 1.389 . S
C1553 C1554 1.387 . S
C1554 H1539 0.930 . S
C1554 C1549 1.390 . S
C1554 C1553 1.387 . S
H1555 C1567 0.930 . S
H1556 C1569 0.930 . S
H1557 C1570 0.930 . S
H1558 C1574 0.959 . S
H1559 C1574 0.959 . S
H1560 C1574 0.961 . S
H1561 C1575 0.960 . S
H1562 C1575 0.961 . S
H1563 C1575 0.959 . S
H1564 C1578 0.929 . S
H1565 C1579 0.931 . S
H1566 C1581 0.930 . S
C1567 H1555 0.930 . S
C1567 C1568 1.399 . S
C1567 C1572 1.399 . S
C1568 C1567 1.399 . S
C1568 C1569 1.376 . S
C1569 H1556 0.930 . S
C1569 C1568 1.376 . S
C1569 C1570 1.388 . S
C1570 H1557 0.930 . S
C1570 C1569 1.388 . S
C1570 C1571 1.390 . S
C1571 C1570 1.390 . S
C1571 C1572 1.394 . S
C1571 C1577 1.465 . S
C1572 C1567 1.399 . S
C1572 C1571 1.394 . S
C1572 C1573 1.516 . S
C1573 C1572 1.516 . S
C1573 C1574 1.502 . S
C1573 C1575 1.561 . S
C1573 C1576 1.526 . S
C1574 H1558 0.959 . S
C1574 H1559 0.959 . S
C1574 H1560 0.961 . S
C1574 C1573 1.502 . S
C1575 H1561 0.960 . S
C1575 H1562 0.961 . S
C1575 H1563 0.959 . S
C1575 C1573 1.561 . S
C1576 C1573 1.526 . S
C1576 C1577 1.396 . S
C1576 C1581 1.390 . S
C1577 C1571 1.465 . S
C1577 C1576 1.396 . S
C1577 C1578 1.399 . S
C1578 H1564 0.929 . S
C1578 C1577 1.399 . S
C1578 C1579 1.385 . S
C1579 H1565 0.931 . S
C1579 C1578 1.385 . S
C1579 C1580 1.389 . S
C1580 C1579 1.389 . S
C1580 C1581 1.387 . S
C1581 H1566 0.930 . S
C1581 C1576 1.390 . S
C1581 C1580 1.387 . S
H1582 C1594 0.930 . S
H1583 C1596 0.930 . S
H1584 C1597 0.930 . S
H1585 C1601 0.959 . S
H1586 C1601 0.959 . S
H1587 C1601 0.961 . S
H1588 C1602 0.960 . S
H1589 C1602 0.961 . S
H1590 C1602 0.959 . S
H1591 C1605 0.929 . S
H1592 C1606 0.931 . S
H1593 C1608 0.930 . S
C1594 H1582 0.930 . S
C1594 C1595 1.399 . S
C1594 C1599 1.399 . S
C1595 C1594 1.399 . S
C1595 C1596 1.376 . S
C1596 H1583 0.930 . S
C1596 C1595 1.376 . S
C1596 C1597 1.388 . S
C1597 H1584 0.930 . S
C1597 C1596 1.388 . S
C1597 C1598 1.390 . S
C1598 C1597 1.390 . S
C1598 C1599 1.394 . S
C1598 C1604 1.465 . S
C1599 C1594 1.399 . S
C1599 C1598 1.394 . S
C1599 C1600 1.516 . S
C1600 C1599 1.516 . S
C1600 C1601 1.502 . S
C1600 C1602 1.561 . S
C1600 C1603 1.526 . S
C1601 H1585 0.959 . S
C1601 H1586 0.959 . S
C1601 H1587 0.961 . S
C1601 C1600 1.502 . S
C1602 H1588 0.960 . S
C1602 H1589 0.961 . S
C1602 H1590 0.959 . S
C1602 C1600 1.561 . S
C1603 C1600 1.526 . S
C1603 C1604 1.396 . S
C1603 C1608 1.390 . S
C1604 C1598 1.465 . S
C1604 C1603 1.396 . S
C1604 C1605 1.399 . S
C1605 H1591 0.929 . S
C1605 C1604 1.399 . S
C1605 C1606 1.385 . S
C1606 H1592 0.931 . S
C1606 C1605 1.385 . S
C1606 C1607 1.389 . S
C1607 C1606 1.389 . S
C1607 C1608 1.387 . S
C1608 H1593 0.930 . S
C1608 C1603 1.390 . S
C1608 C1607 1.387 . S
H1609 C1621 0.930 . S
H1610 C1623 0.930 . S
H1611 C1624 0.930 . S
H1612 C1628 0.959 . S
H1613 C1628 0.959 . S
H1614 C1628 0.961 . S
H1615 C1629 0.960 . S
H1616 C1629 0.961 . S
H1617 C1629 0.959 . S
H1618 C1632 0.929 . S
H1619 C1633 0.931 . S
H1620 C1635 0.930 . S
C1621 H1609 0.930 . S
C1621 C1622 1.399 . S
C1621 C1626 1.399 . S
C1622 C1621 1.399 . S
C1622 C1623 1.376 . S
C1623 H1610 0.930 . S
C1623 C1622 1.376 . S
C1623 C1624 1.388 . S
C1624 H1611 0.930 . S
C1624 C1623 1.388 . S
C1624 C1625 1.390 . S
C1625 C1624 1.390 . S
C1625 C1626 1.394 . S
C1625 C1631 1.465 . S
C1626 C1621 1.399 . S
C1626 C1625 1.394 . S
C1626 C1627 1.516 . S
C1627 C1626 1.516 . S
C1627 C1628 1.502 . S
C1627 C1629 1.561 . S
C1627 C1630 1.526 . S
C1628 H1612 0.959 . S
C1628 H1613 0.959 . S
C1628 H1614 0.961 . S
C1628 C1627 1.502 . S
C1629 H1615 0.960 . S
C1629 H1616 0.961 . S
C1629 H1617 0.959 . S
C1629 C1627 1.561 . S
C1630 C1627 1.526 . S
C1630 C1631 1.396 . S
C1630 C1635 1.390 . S
C1631 C1625 1.465 . S
C1631 C1630 1.396 . S
C1631 C1632 1.399 . S
C1632 H1618 0.929 . S
C1632 C1631 1.399 . S
C1632 C1633 1.385 . S
C1633 H1619 0.931 . S
C1633 C1632 1.385 . S
C1633 C1634 1.389 . S
C1634 C1633 1.389 . S
C1634 C1635 1.387 . S
C1635 H1620 0.930 . S
C1635 C1630 1.390 . S
C1635 C1634 1.387 . S
H1636 C1648 0.930 . S
H1637 C1650 0.930 . S
H1638 C1651 0.930 . S
H1639 C1655 0.959 . S
H1640 C1655 0.959 . S
H1641 C1655 0.961 . S
H1642 C1656 0.960 . S
H1643 C1656 0.961 . S
H1644 C1656 0.959 . S
H1645 C1659 0.929 . S
H1646 C1660 0.931 . S
H1647 C1662 0.937 . S
C1648 H1636 0.930 . S
C1648 C1649 1.399 . S
C1648 C1653 1.399 . S
C1649 C1648 1.399 . S
C1649 C1650 1.376 . S
C1650 H1637 0.930 . S
C1650 C1649 1.376 . S
C1650 C1651 1.388 1_565 S
C1651 H1638 0.930 . S
C1651 C1650 1.388 1_545 S
C1651 C1652 1.390 . S
C1652 C1651 1.390 . S
C1652 C1653 1.394 1_545 S
C1652 C1658 1.465 . S
C1653 C1648 1.399 . S
C1653 C1652 1.394 1_565 S
C1653 C1654 1.516 1_455 S
C1654 C1653 1.516 1_655 S
C1654 C1655 1.502 . S
C1654 C1656 1.561 1_655 S
C1654 C1657 1.526 1_565 S
C1655 H1639 0.959 . S
C1655 H1640 0.959 . S
C1655 H1641 0.961 . S
C1655 C1654 1.502 . S
C1656 H1642 0.960 . S
C1656 H1643 0.961 . S
C1656 H1644 0.959 . S
C1656 C1654 1.561 1_455 S
C1657 C1654 1.526 1_545 S
C1657 C1658 1.396 1_655 S
C1657 C1662 1.390 . S
C1658 C1652 1.465 . S
C1658 C1657 1.396 1_455 S
C1658 C1659 1.399 . S
C1659 H1645 0.929 . S
C1659 C1658 1.399 . S
C1659 C1660 1.385 1_455 S
C1660 H1646 0.931 . S
C1660 C1659 1.385 1_655 S
C1660 C1661 1.389 . S
C1661 C1660 1.389 . S
C1661 C1662 1.387 . S
C1662 H1647 0.937 . S
C1662 C1657 1.390 . S
C1662 C1661 1.387 . S
H1663 C1675 0.930 . S
H1664 C1677 0.930 . S
H1665 C1678 0.930 . S
H1666 C1682 0.959 . S
H1667 C1682 0.959 . S
H1668 C1682 0.961 . S
H1669 C1683 0.960 . S
H1670 C1683 0.961 . S
H1671 C1683 0.959 . S
H1672 C1686 0.929 . S
H1673 C1687 0.931 . S
H1674 C1689 0.912 1_655 S
C1675 H1663 0.930 . S
C1675 C1676 1.399 . S
C1675 C1680 1.399 . S
C1676 C1675 1.399 . S
C1676 C1677 1.376 1_655 S
C1677 H1664 0.930 . S
C1677 C1676 1.376 1_455 S
C1677 C1678 1.388 . S
C1678 H1665 0.930 . S
C1678 C1677 1.388 . S
C1678 C1679 1.390 . S
C1679 C1678 1.390 . S
C1679 C1680 1.394 1_455 S
C1679 C1685 1.465 . S
C1680 C1675 1.399 . S
C1680 C1679 1.394 1_655 S
C1680 C1681 1.516 . S
C1681 C1680 1.516 . S
C1681 C1682 1.502 . S
C1681 C1683 1.561 . S
C1681 C1684 1.526 . S
C1682 H1666 0.959 . S
C1682 H1667 0.959 . S
C1682 H1668 0.961 . S
C1682 C1681 1.502 . S
C1683 H1669 0.960 . S
C1683 H1670 0.961 . S
C1683 H1671 0.959 . S
C1683 C1681 1.561 . S
C1684 C1681 1.526 . S
C1684 C1685 1.396 1_655 S
C1684 C1689 1.386 1_655 S
C1685 C1679 1.465 . S
C1685 C1684 1.396 1_455 S
C1685 C1686 1.399 . S
C1686 H1672 0.929 . S
C1686 C1685 1.399 . S
C1686 C1687 1.385 . S
C1687 H1673 0.931 . S
C1687 C1686 1.385 . S
C1687 C1688 1.389 . S
C1688 C1687 1.389 . S
C1688 C1689 1.408 . S
C1689 H1674 0.912 1_455 S
C1689 C1684 1.386 1_455 S
C1689 C1688 1.408 . S
H1690 C1702 0.930 . S
H1691 C1704 0.930 . S
H1692 C1705 0.930 . S
H1693 C1709 0.959 . S
H1694 C1709 0.959 . S
H1695 C1709 0.961 . S
H1696 C1710 0.960 . S
H1697 C1710 0.961 . S
H1698 C1710 0.959 . S
H1699 C1713 0.929 . S
H1700 C1714 0.931 . S
H1701 C1716 0.930 . S
C1702 H1690 0.930 . S
C1702 C1703 1.399 . S
C1702 C1707 1.399 . S
C1703 C1702 1.399 . S
C1703 C1704 1.376 . S
C1704 H1691 0.930 . S
C1704 C1703 1.376 . S
C1704 C1705 1.388 . S
C1705 H1692 0.930 . S
C1705 C1704 1.388 . S
C1705 C1706 1.390 . S
C1706 C1705 1.390 . S
C1706 C1707 1.394 . S
C1706 C1712 1.465 1_655 S
C1707 C1702 1.399 . S
C1707 C1706 1.394 . S
C1707 C1708 1.516 1_655 S
C1708 C1707 1.516 1_455 S
C1708 C1709 1.502 1_455 S
C1708 C1710 1.561 . S
C1708 C1711 1.526 . S
C1709 H1693 0.959 . S
C1709 H1694 0.959 . S
C1709 H1695 0.961 . S
C1709 C1708 1.502 1_655 S
C1710 H1696 0.960 . S
C1710 H1697 0.961 . S
C1710 H1698 0.959 . S
C1710 C1708 1.561 . S
C1711 C1708 1.526 . S
C1711 C1712 1.396 . S
C1711 C1716 1.390 . S
C1712 C1706 1.465 1_455 S
C1712 C1711 1.396 . S
C1712 C1713 1.399 . S
C1713 H1699 0.929 . S
C1713 C1712 1.399 . S
C1713 C1714 1.385 . S
C1714 H1700 0.931 . S
C1714 C1713 1.385 . S
C1714 C1715 1.389 . S
C1715 C1714 1.389 . S
C1715 C1716 1.387 . S
C1716 H1701 0.930 . S
C1716 C1711 1.390 . S
C1716 C1715 1.387 . S
H1717 C1729 0.930 . S
H1718 C1731 0.930 . S
H1719 C1732 0.930 . S
H1720 C1736 0.898 1_554 S
H1721 C1736 0.959 . S
H1722 C1736 0.961 . S
H1723 C1737 0.950 1_455 S
H1724 C1737 0.961 . S
H1725 C1737 0.959 . S
H1726 C1740 0.929 . S
H1727 C1741 0.931 . S
H1728 C1743 0.930 . S
C1729 H1717 0.930 . S
C1729 C1730 1.399 . S
C1729 C1734 1.399 . S
C1730 C1729 1.399 . S
C1730 C1731 1.376 . S
C1731 H1718 0.930 . S
C1731 C1730 1.376 . S
C1731 C1732 1.388 1_455 S
C1732 H1719 0.930 . S
C1732 C1731 1.388 1_655 S
C1732 C1733 1.390 . S
C1733 C1732 1.390 . S
C1733 C1734 1.394 1_655 S
C1733 C1739 1.465 1_556 S
C1734 C1729 1.399 . S
C1734 C1733 1.394 1_455 S
C1734 C1735 1.516 . S
C1735 C1734 1.516 . S
C1735 C1736 1.502 . S
C1735 C1737 1.561 1_455 S
C1735 C1738 1.526 1_456 S
C1736 H1720 0.898 1_556 S
C1736 H1721 0.959 . S
C1736 H1722 0.961 . S
C1736 C1735 1.502 . S
C1737 H1723 0.950 1_655 S
C1737 H1724 0.961 . S
C1737 H1725 0.959 . S
C1737 C1735 1.561 1_655 S
C1738 C1735 1.526 1_654 S
C1738 C1739 1.396 . S
C1738 C1743 1.390 . S
C1739 C1733 1.465 1_554 S
C1739 C1738 1.396 . S
C1739 C1740 1.399 . S
C1740 H1726 0.929 . S
C1740 C1739 1.399 . S
C1740 C1741 1.385 . S
C1741 H1727 0.931 . S
C1741 C1740 1.385 . S
C1741 C1742 1.389 . S
C1742 C1741 1.389 . S
C1742 C1743 1.387 . S
C1743 H1728 0.930 . S
C1743 C1738 1.390 . S
C1743 C1742 1.387 . S
H1744 C1756 0.930 . S
H1745 C1758 0.930 . S
H1746 C1759 0.930 . S
H1747 C1763 0.959 . S
H1748 C1763 0.959 . S
H1749 C1763 0.961 . S
H1750 C1764 0.960 . S
H1751 C1764 0.961 . S
H1752 C1764 0.959 . S
H1753 C1767 0.929 . S
H1754 C1768 0.931 . S
H1755 C1770 0.930 . S
C1756 H1744 0.930 . S
C1756 C1757 1.399 . S
C1756 C1761 1.399 . S
C1757 C1756 1.399 . S
C1757 C1758 1.376 . S
C1758 H1745 0.930 . S
C1758 C1757 1.376 . S
C1758 C1759 1.388 . S
C1759 H1746 0.930 . S
C1759 C1758 1.388 . S
C1759 C1760 1.390 . S
C1760 C1759 1.390 . S
C1760 C1761 1.394 . S
C1760 C1766 1.465 . S
C1761 C1756 1.399 . S
C1761 C1760 1.394 . S
C1761 C1762 1.516 . S
C1762 C1761 1.516 . S
C1762 C1763 1.502 . S
C1762 C1764 1.561 . S
C1762 C1765 1.526 . S
C1763 H1747 0.959 . S
C1763 H1748 0.959 . S
C1763 H1749 0.961 . S
C1763 C1762 1.502 . S
C1764 H1750 0.960 . S
C1764 H1751 0.961 . S
C1764 H1752 0.959 . S
C1764 C1762 1.561 . S
C1765 C1762 1.526 . S
C1765 C1766 1.396 . S
C1765 C1770 1.390 . S
C1766 C1760 1.465 . S
C1766 C1765 1.396 . S
C1766 C1767 1.399 . S
C1767 H1753 0.929 . S
C1767 C1766 1.399 . S
C1767 C1768 1.385 . S
C1768 H1754 0.931 . S
C1768 C1767 1.385 . S
C1768 C1769 1.389 . S
C1769 C1768 1.389 . S
C1769 C1770 1.387 . S
C1770 H1755 0.930 . S
C1770 C1765 1.390 . S
C1770 C1769 1.387 . S
H1771 C1783 0.930 . S
H1772 C1785 0.930 . S
H1773 C1786 0.930 . S
H1774 C1790 0.959 . S
H1775 C1790 0.959 . S
H1776 C1790 0.961 . S
H1777 C1791 0.960 . S
H1778 C1791 0.961 . S
H1779 C1791 0.959 . S
H1780 C1794 0.929 . S
H1781 C1795 0.931 . S
H1782 C1797 0.930 . S
C1783 H1771 0.930 . S
C1783 C1784 1.399 . S
C1783 C1788 1.399 . S
C1784 C1783 1.399 . S
C1784 C1785 1.376 . S
C1785 H1772 0.930 . S
C1785 C1784 1.376 . S
C1785 C1786 1.388 . S
C1786 H1773 0.930 . S
C1786 C1785 1.388 . S
C1786 C1787 1.390 . S
C1787 C1786 1.390 . S
C1787 C1788 1.394 . S
C1787 C1793 1.465 . S
C1788 C1783 1.399 . S
C1788 C1787 1.394 . S
C1788 C1789 1.516 . S
C1789 C1788 1.516 . S
C1789 C1790 1.502 . S
C1789 C1791 1.561 . S
C1789 C1792 1.526 . S
C1790 H1774 0.959 . S
C1790 H1775 0.959 . S
C1790 H1776 0.961 . S
C1790 C1789 1.502 . S
C1791 H1777 0.960 . S
C1791 H1778 0.961 . S
C1791 H1779 0.959 . S
C1791 C1789 1.561 . S
C1792 C1789 1.526 . S
C1792 C1793 1.396 . S
C1792 C1797 1.390 . S
C1793 C1787 1.465 . S
C1793 C1792 1.396 . S
C1793 C1794 1.399 . S
C1794 H1780 0.929 . S
C1794 C1793 1.399 . S
C1794 C1795 1.385 . S
C1795 H1781 0.931 . S
C1795 C1794 1.385 . S
C1795 C1796 1.389 . S
C1796 C1795 1.389 . S
C1796 C1797 1.387 . S
C1797 H1782 0.930 . S
C1797 C1792 1.390 . S
C1797 C1796 1.387 . S
H1798 C1810 0.930 . S
H1799 C1812 0.930 . S
H1800 C1813 0.930 . S
H1801 C1817 0.959 . S
H1802 C1817 0.959 . S
H1803 C1817 0.961 . S
H1804 C1818 0.960 . S
H1805 C1818 0.961 . S
H1806 C1818 0.959 . S
H1807 C1821 0.929 . S
H1808 C1822 0.931 . S
H1809 C1824 0.930 . S
C1810 H1798 0.930 . S
C1810 C1811 1.399 . S
C1810 C1815 1.399 . S
C1811 C1810 1.399 . S
C1811 C1812 1.376 . S
C1812 H1799 0.930 . S
C1812 C1811 1.376 . S
C1812 C1813 1.388 . S
C1813 H1800 0.930 . S
C1813 C1812 1.388 . S
C1813 C1814 1.390 . S
C1814 C1813 1.390 . S
C1814 C1815 1.394 . S
C1814 C1820 1.465 . S
C1815 C1810 1.399 . S
C1815 C1814 1.394 . S
C1815 C1816 1.516 . S
C1816 C1815 1.516 . S
C1816 C1817 1.502 . S
C1816 C1818 1.561 . S
C1816 C1819 1.526 . S
C1817 H1801 0.959 . S
C1817 H1802 0.959 . S
C1817 H1803 0.961 . S
C1817 C1816 1.502 . S
C1818 H1804 0.960 . S
C1818 H1805 0.961 . S
C1818 H1806 0.959 . S
C1818 C1816 1.561 . S
C1819 C1816 1.526 . S
C1819 C1820 1.396 . S
C1819 C1824 1.390 . S
C1820 C1814 1.465 . S
C1820 C1819 1.396 . S
C1820 C1821 1.399 . S
C1821 H1807 0.929 . S
C1821 C1820 1.399 . S
C1821 C1822 1.385 . S
C1822 H1808 0.931 . S
C1822 C1821 1.385 . S
C1822 C1823 1.389 . S
C1823 C1822 1.389 . S
C1823 C1824 1.387 . S
C1824 H1809 0.930 . S
C1824 C1819 1.390 . S
C1824 C1823 1.387 . S
H1825 C1837 0.930 . S
H1826 C1839 0.930 . S
H1827 C1840 0.930 . S
H1828 C1844 0.959 . S
H1829 C1844 0.959 . S
H1830 C1844 0.961 . S
H1831 C1845 0.960 . S
H1832 C1845 0.961 . S
H1833 C1845 0.959 . S
H1834 C1848 0.929 . S
H1835 C1849 0.931 . S
H1836 C1851 0.930 . S
C1837 H1825 0.930 . S
C1837 C1838 1.399 . S
C1837 C1842 1.399 . S
C1838 C1837 1.399 . S
C1838 C1839 1.376 . S
C1839 H1826 0.930 . S
C1839 C1838 1.376 . S
C1839 C1840 1.388 . S
C1840 H1827 0.930 . S
C1840 C1839 1.388 . S
C1840 C1841 1.390 . S
C1841 C1840 1.390 . S
C1841 C1842 1.394 . S
C1841 C1847 1.465 . S
C1842 C1837 1.399 . S
C1842 C1841 1.394 . S
C1842 C1843 1.516 . S
C1843 C1842 1.516 . S
C1843 C1844 1.502 . S
C1843 C1845 1.561 . S
C1843 C1846 1.526 . S
C1844 H1828 0.959 . S
C1844 H1829 0.959 . S
C1844 H1830 0.961 . S
C1844 C1843 1.502 . S
C1845 H1831 0.960 . S
C1845 H1832 0.961 . S
C1845 H1833 0.959 . S
C1845 C1843 1.561 . S
C1846 C1843 1.526 . S
C1846 C1847 1.396 . S
C1846 C1851 1.390 . S
C1847 C1841 1.465 . S
C1847 C1846 1.396 . S
C1847 C1848 1.399 . S
C1848 H1834 0.929 . S
C1848 C1847 1.399 . S
C1848 C1849 1.385 . S
C1849 H1835 0.931 . S
C1849 C1848 1.385 . S
C1849 C1850 1.389 . S
C1850 C1849 1.389 . S
C1850 C1851 1.387 . S
C1851 H1836 0.930 . S
C1851 C1846 1.390 . S
C1851 C1850 1.387 . S
H1852 C1864 0.930 . S
H1853 C1866 0.930 . S
H1854 C1867 0.930 . S
H1855 C1871 0.959 . S
H1856 C1871 0.959 . S
H1857 C1871 0.961 . S
H1858 C1872 0.960 . S
H1859 C1872 0.961 . S
H1860 C1872 0.959 . S
H1861 C1875 0.929 . S
H1862 C1876 0.931 . S
H1863 C1878 0.930 . S
C1864 H1852 0.930 . S
C1864 C1865 1.399 . S
C1864 C1869 1.399 . S
C1865 C1864 1.399 . S
C1865 C1866 1.376 . S
C1866 H1853 0.930 . S
C1866 C1865 1.376 . S
C1866 C1867 1.388 . S
C1867 H1854 0.930 . S
C1867 C1866 1.388 . S
C1867 C1868 1.390 . S
C1868 C1867 1.390 . S
C1868 C1869 1.394 . S
C1868 C1874 1.465 . S
C1869 C1864 1.399 . S
C1869 C1868 1.394 . S
C1869 C1870 1.516 . S
C1870 C1869 1.516 . S
C1870 C1871 1.502 . S
C1870 C1872 1.561 . S
C1870 C1873 1.526 . S
C1871 H1855 0.959 . S
C1871 H1856 0.959 . S
C1871 H1857 0.961 . S
C1871 C1870 1.502 . S
C1872 H1858 0.960 . S
C1872 H1859 0.961 . S
C1872 H1860 0.959 . S
C1872 C1870 1.561 . S
C1873 C1870 1.526 . S
C1873 C1874 1.396 . S
C1873 C1878 1.390 . S
C1874 C1868 1.465 . S
C1874 C1873 1.396 . S
C1874 C1875 1.399 . S
C1875 H1861 0.929 . S
C1875 C1874 1.399 . S
C1875 C1876 1.385 . S
C1876 H1862 0.931 . S
C1876 C1875 1.385 . S
C1876 C1877 1.389 . S
C1877 C1876 1.389 . S
C1877 C1878 1.387 . S
C1878 H1863 0.930 . S
C1878 C1873 1.390 . S
C1878 C1877 1.387 . S
H1879 C1891 0.930 . S
H1880 C1893 0.930 . S
H1881 C1894 0.930 . S
H1882 C1898 0.959 . S
H1883 C1898 0.959 . S
H1884 C1898 0.961 . S
H1885 C1899 0.960 . S
H1886 C1899 0.961 . S
H1887 C1899 0.959 . S
H1888 C1902 0.929 . S
H1889 C1903 0.931 . S
H1890 C1905 0.930 . S
C1891 H1879 0.930 . S
C1891 C1892 1.399 . S
C1891 C1896 1.399 . S
C1892 C1891 1.399 . S
C1892 C1893 1.376 . S
C1893 H1880 0.930 . S
C1893 C1892 1.376 . S
C1893 C1894 1.388 . S
C1894 H1881 0.930 . S
C1894 C1893 1.388 . S
C1894 C1895 1.390 . S
C1895 C1894 1.390 . S
C1895 C1896 1.394 . S
C1895 C1901 1.465 . S
C1896 C1891 1.399 . S
C1896 C1895 1.394 . S
C1896 C1897 1.516 . S
C1897 C1896 1.516 . S
C1897 C1898 1.502 . S
C1897 C1899 1.561 . S
C1897 C1900 1.526 . S
C1898 H1882 0.959 . S
C1898 H1883 0.959 . S
C1898 H1884 0.961 . S
C1898 C1897 1.502 . S
C1899 H1885 0.960 . S
C1899 H1886 0.961 . S
C1899 H1887 0.959 . S
C1899 C1897 1.561 . S
C1900 C1897 1.526 . S
C1900 C1901 1.396 . S
C1900 C1905 1.390 . S
C1901 C1895 1.465 . S
C1901 C1900 1.396 . S
C1901 C1902 1.399 . S
C1902 H1888 0.929 . S
C1902 C1901 1.399 . S
C1902 C1903 1.385 . S
C1903 H1889 0.931 . S
C1903 C1902 1.385 . S
C1903 C1904 1.389 . S
C1904 C1903 1.389 . S
C1904 C1905 1.387 . S
C1905 H1890 0.930 . S
C1905 C1900 1.390 . S
C1905 C1904 1.387 . S
H1906 C1918 0.930 . S
H1907 C1920 0.930 . S
H1908 C1921 0.930 . S
H1909 C1925 0.959 . S
H1910 C1925 0.959 . S
H1911 C1925 0.961 . S
H1912 C1926 0.960 . S
H1913 C1926 0.961 . S
H1914 C1926 0.959 . S
H1915 C1929 0.929 . S
H1916 C1930 0.931 . S
H1917 C1932 0.930 . S
C1918 H1906 0.930 . S
C1918 C1919 1.399 . S
C1918 C1923 1.399 . S
C1919 C1918 1.399 . S
C1919 C1920 1.376 . S
C1920 H1907 0.930 . S
C1920 C1919 1.376 . S
C1920 C1921 1.388 . S
C1921 H1908 0.930 . S
C1921 C1920 1.388 . S
C1921 C1922 1.390 . S
C1922 C1921 1.390 . S
C1922 C1923 1.394 . S
C1922 C1928 1.465 . S
C1923 C1918 1.399 . S
C1923 C1922 1.394 . S
C1923 C1924 1.516 . S
C1924 C1923 1.516 . S
C1924 C1925 1.502 . S
C1924 C1926 1.561 . S
C1924 C1927 1.526 . S
C1925 H1909 0.959 . S
C1925 H1910 0.959 . S
C1925 H1911 0.961 . S
C1925 C1924 1.502 . S
C1926 H1912 0.960 . S
C1926 H1913 0.961 . S
C1926 H1914 0.959 . S
C1926 C1924 1.561 . S
C1927 C1924 1.526 . S
C1927 C1928 1.396 . S
C1927 C1932 1.390 . S
C1928 C1922 1.465 . S
C1928 C1927 1.396 . S
C1928 C1929 1.399 . S
C1929 H1915 0.929 . S
C1929 C1928 1.399 . S
C1929 C1930 1.385 . S
C1930 H1916 0.931 . S
C1930 C1929 1.385 . S
C1930 C1931 1.389 . S
C1931 C1930 1.389 . S
C1931 C1932 1.387 . S
C1932 H1917 0.930 . S
C1932 C1927 1.390 . S
C1932 C1931 1.387 . S
H1933 C1945 0.930 . S
H1934 C1947 0.930 . S
H1935 C1948 0.930 . S
H1936 C1952 0.959 . S
H1937 C1952 0.959 . S
H1938 C1952 0.961 . S
H1939 C1953 0.960 . S
H1940 C1953 0.961 . S
H1941 C1953 0.959 . S
H1942 C1956 0.929 . S
H1943 C1957 0.931 . S
H1944 C1959 0.930 . S
C1945 H1933 0.930 . S
C1945 C1946 1.399 . S
C1945 C1950 1.399 . S
C1946 C1945 1.399 . S
C1946 C1947 1.376 . S
C1947 H1934 0.930 . S
C1947 C1946 1.376 . S
C1947 C1948 1.388 . S
C1948 H1935 0.930 . S
C1948 C1947 1.388 . S
C1948 C1949 1.390 . S
C1949 C1948 1.390 . S
C1949 C1950 1.394 . S
C1949 C1955 1.465 . S
C1950 C1945 1.399 . S
C1950 C1949 1.394 . S
C1950 C1951 1.516 . S
C1951 C1950 1.516 . S
C1951 C1952 1.502 . S
C1951 C1953 1.561 . S
C1951 C1954 1.526 . S
C1952 H1936 0.959 . S
C1952 H1937 0.959 . S
C1952 H1938 0.961 . S
C1952 C1951 1.502 . S
C1953 H1939 0.960 . S
C1953 H1940 0.961 . S
C1953 H1941 0.959 . S
C1953 C1951 1.561 . S
C1954 C1951 1.526 . S
C1954 C1955 1.396 . S
C1954 C1959 1.390 . S
C1955 C1949 1.465 . S
C1955 C1954 1.396 . S
C1955 C1956 1.399 . S
C1956 H1942 0.929 . S
C1956 C1955 1.399 . S
C1956 C1957 1.385 . S
C1957 H1943 0.931 . S
C1957 C1956 1.385 . S
C1957 C1958 1.389 . S
C1958 C1957 1.389 . S
C1958 C1959 1.387 . S
C1959 H1944 0.930 . S
C1959 C1954 1.390 . S
C1959 C1958 1.387 . S
H1960 C1972 0.930 . S
H1961 C1974 0.930 . S
H1962 C1975 0.930 . S
H1963 C1979 0.959 . S
H1964 C1979 0.959 . S
H1965 C1979 0.961 . S
H1966 C1980 0.960 . S
H1967 C1980 0.961 . S
H1968 C1980 0.959 . S
H1969 C1983 0.929 . S
H1970 C1984 0.931 . S
H1971 C1986 0.930 . S
C1972 H1960 0.930 . S
C1972 C1973 1.399 . S
C1972 C1977 1.399 . S
C1973 C1972 1.399 . S
C1973 C1974 1.376 . S
C1974 H1961 0.930 . S
C1974 C1973 1.376 . S
C1974 C1975 1.388 . S
C1975 H1962 0.930 . S
C1975 C1974 1.388 . S
C1975 C1976 1.390 . S
C1976 C1975 1.390 . S
C1976 C1977 1.394 . S
C1976 C1982 1.465 . S
C1977 C1972 1.399 . S
C1977 C1976 1.394 . S
C1977 C1978 1.516 . S
C1978 C1977 1.516 . S
C1978 C1979 1.502 . S
C1978 C1980 1.561 . S
C1978 C1981 1.526 . S
C1979 H1963 0.959 . S
C1979 H1964 0.959 . S
C1979 H1965 0.961 . S
C1979 C1978 1.502 . S
C1980 H1966 0.960 . S
C1980 H1967 0.961 . S
C1980 H1968 0.959 . S
C1980 C1978 1.561 . S
C1981 C1978 1.526 . S
C1981 C1982 1.396 . S
C1981 C1986 1.390 . S
C1982 C1976 1.465 . S
C1982 C1981 1.396 . S
C1982 C1983 1.399 . S
C1983 H1969 0.929 . S
C1983 C1982 1.399 . S
C1983 C1984 1.385 . S
C1984 H1970 0.931 . S
C1984 C1983 1.385 . S
C1984 C1985 1.389 . S
C1985 C1984 1.389 . S
C1985 C1986 1.387 . S
C1986 H1971 0.930 . S
C1986 C1981 1.390 . S
C1986 C1985 1.387 . S
H1987 C1999 0.930 . S
H1988 C2001 0.930 . S
H1989 C2002 0.930 . S
H1990 C2006 0.959 . S
H1991 C2006 0.959 . S
H1992 C2006 0.961 . S
H1993 C2007 0.960 . S
H1994 C2007 0.961 . S
H1995 C2007 0.959 . S
H1996 C2010 0.929 . S
H1997 C2011 0.931 . S
H1998 C2013 0.930 . S
C1999 H1987 0.930 . S
C1999 C2000 1.399 . S
C1999 C2004 1.399 . S
C2000 C1999 1.399 . S
C2000 C2001 1.376 . S
C2001 H1988 0.930 . S
C2001 C2000 1.376 . S
C2001 C2002 1.388 . S
C2002 H1989 0.930 . S
C2002 C2001 1.388 . S
C2002 C2003 1.390 . S
C2003 C2002 1.390 . S
C2003 C2004 1.394 . S
C2003 C2009 1.465 . S
C2004 C1999 1.399 . S
C2004 C2003 1.394 . S
C2004 C2005 1.516 . S
C2005 C2004 1.516 . S
C2005 C2006 1.502 . S
C2005 C2007 1.561 . S
C2005 C2008 1.526 . S
C2006 H1990 0.959 . S
C2006 H1991 0.959 . S
C2006 H1992 0.961 . S
C2006 C2005 1.502 . S
C2007 H1993 0.960 . S
C2007 H1994 0.961 . S
C2007 H1995 0.959 . S
C2007 C2005 1.561 . S
C2008 C2005 1.526 . S
C2008 C2009 1.396 . S
C2008 C2013 1.390 . S
C2009 C2003 1.465 . S
C2009 C2008 1.396 . S
C2009 C2010 1.399 . S
C2010 H1996 0.929 . S
C2010 C2009 1.399 . S
C2010 C2011 1.385 . S
C2011 H1997 0.931 . S
C2011 C2010 1.385 . S
C2011 C2012 1.389 . S
C2012 C2011 1.389 . S
C2012 C2013 1.387 . S
C2013 H1998 0.930 . S
C2013 C2008 1.390 . S
C2013 C2012 1.387 . S
H2014 C2026 0.930 . S
H2015 C2028 0.930 . S
H2016 C2029 0.930 . S
H2017 C2033 0.959 . S
H2018 C2033 0.959 . S
H2019 C2033 0.961 . S
H2020 C2034 0.960 . S
H2021 C2034 0.961 . S
H2022 C2034 0.959 . S
H2023 C2037 0.929 . S
H2024 C2038 0.931 . S
H2025 C2040 0.930 . S
C2026 H2014 0.930 . S
C2026 C2027 1.399 . S
C2026 C2031 1.399 . S
C2027 C2026 1.399 . S
C2027 C2028 1.376 . S
C2028 H2015 0.930 . S
C2028 C2027 1.376 . S
C2028 C2029 1.388 . S
C2029 H2016 0.930 . S
C2029 C2028 1.388 . S
C2029 C2030 1.390 . S
C2030 C2029 1.390 . S
C2030 C2031 1.394 . S
C2030 C2036 1.465 . S
C2031 C2026 1.399 . S
C2031 C2030 1.394 . S
C2031 C2032 1.516 . S
C2032 C2031 1.516 . S
C2032 C2033 1.502 . S
C2032 C2034 1.561 . S
C2032 C2035 1.526 . S
C2033 H2017 0.959 . S
C2033 H2018 0.959 . S
C2033 H2019 0.961 . S
C2033 C2032 1.502 . S
C2034 H2020 0.960 . S
C2034 H2021 0.961 . S
C2034 H2022 0.959 . S
C2034 C2032 1.561 . S
C2035 C2032 1.526 . S
C2035 C2036 1.396 . S
C2035 C2040 1.390 . S
C2036 C2030 1.465 . S
C2036 C2035 1.396 . S
C2036 C2037 1.399 . S
C2037 H2023 0.929 . S
C2037 C2036 1.399 . S
C2037 C2038 1.385 . S
C2038 H2024 0.931 . S
C2038 C2037 1.385 . S
C2038 C2039 1.389 . S
C2039 C2038 1.389 . S
C2039 C2040 1.387 . S
C2040 H2025 0.930 . S
C2040 C2035 1.390 . S
C2040 C2039 1.387 . S
H2041 C2053 0.930 . S
H2042 C2055 0.930 . S
H2043 C2056 0.930 . S
H2044 C2060 0.959 . S
H2045 C2060 0.959 . S
H2046 C2060 0.961 . S
H2047 C2061 0.960 . S
H2048 C2061 0.961 . S
H2049 C2061 0.959 . S
H2050 C2064 0.929 . S
H2051 C2065 0.931 . S
H2052 C2067 0.930 . S
C2053 H2041 0.930 . S
C2053 C2054 1.399 . S
C2053 C2058 1.399 . S
C2054 C2053 1.399 . S
C2054 C2055 1.376 . S
C2055 H2042 0.930 . S
C2055 C2054 1.376 . S
C2055 C2056 1.388 . S
C2056 H2043 0.930 . S
C2056 C2055 1.388 . S
C2056 C2057 1.390 . S
C2057 C2056 1.390 . S
C2057 C2058 1.394 . S
C2057 C2063 1.465 . S
C2058 C2053 1.399 . S
C2058 C2057 1.394 . S
C2058 C2059 1.516 . S
C2059 C2058 1.516 . S
C2059 C2060 1.502 . S
C2059 C2061 1.561 . S
C2059 C2062 1.526 . S
C2060 H2044 0.959 . S
C2060 H2045 0.959 . S
C2060 H2046 0.961 . S
C2060 C2059 1.502 . S
C2061 H2047 0.960 . S
C2061 H2048 0.961 . S
C2061 H2049 0.959 . S
C2061 C2059 1.561 . S
C2062 C2059 1.526 . S
C2062 C2063 1.396 . S
C2062 C2067 1.390 . S
C2063 C2057 1.465 . S
C2063 C2062 1.396 . S
C2063 C2064 1.399 . S
C2064 H2050 0.929 . S
C2064 C2063 1.399 . S
C2064 C2065 1.385 . S
C2065 H2051 0.931 . S
C2065 C2064 1.385 . S
C2065 C2066 1.389 . S
C2066 C2065 1.389 . S
C2066 C2067 1.387 . S
C2067 H2052 0.930 . S
C2067 C2062 1.390 . S
C2067 C2066 1.387 . S
H2068 C2080 0.930 . S
H2069 C2082 0.930 . S
H2070 C2083 0.930 . S
H2071 C2087 0.959 . S
H2072 C2087 0.959 . S
H2073 C2087 0.961 . S
H2074 C2088 0.960 . S
H2075 C2088 0.961 . S
H2076 C2088 0.959 . S
H2077 C2091 0.929 . S
H2078 C2092 0.931 . S
H2079 C2094 0.930 . S
C2080 H2068 0.930 . S
C2080 C2081 1.399 . S
C2080 C2085 1.399 . S
C2081 C2080 1.399 . S
C2081 C2082 1.376 . S
C2082 H2069 0.930 . S
C2082 C2081 1.376 . S
C2082 C2083 1.388 . S
C2083 H2070 0.930 . S
C2083 C2082 1.388 . S
C2083 C2084 1.390 . S
C2084 C2083 1.390 . S
C2084 C2085 1.394 . S
C2084 C2090 1.465 . S
C2085 C2080 1.399 . S
C2085 C2084 1.394 . S
C2085 C2086 1.516 . S
C2086 C2085 1.516 . S
C2086 C2087 1.502 . S
C2086 C2088 1.561 . S
C2086 C2089 1.526 . S
C2087 H2071 0.959 . S
C2087 H2072 0.959 . S
C2087 H2073 0.961 . S
C2087 C2086 1.502 . S
C2088 H2074 0.960 . S
C2088 H2075 0.961 . S
C2088 H2076 0.959 . S
C2088 C2086 1.561 . S
C2089 C2086 1.526 . S
C2089 C2090 1.396 . S
C2089 C2094 1.390 . S
C2090 C2084 1.465 . S
C2090 C2089 1.396 . S
C2090 C2091 1.399 . S
C2091 H2077 0.929 . S
C2091 C2090 1.399 . S
C2091 C2092 1.385 . S
C2092 H2078 0.931 . S
C2092 C2091 1.385 . S
C2092 C2093 1.389 . S
C2093 C2092 1.389 . S
C2093 C2094 1.387 . S
C2094 H2079 0.930 . S
C2094 C2089 1.390 . S
C2094 C2093 1.387 . S
H2095 C2107 0.930 . S
H2096 C2109 0.930 . S
H2097 C2110 0.930 . S
H2098 C2114 0.959 . S
H2099 C2114 0.959 . S
H2100 C2114 0.961 . S
H2101 C2115 0.960 . S
H2102 C2115 0.961 . S
H2103 C2115 0.959 . S
H2104 C2118 0.929 . S
H2105 C2119 0.931 . S
H2106 C2121 0.930 . S
C2107 H2095 0.930 . S
C2107 C2108 1.399 . S
C2107 C2112 1.399 . S
C2108 C2107 1.399 . S
C2108 C2109 1.376 . S
C2109 H2096 0.930 . S
C2109 C2108 1.376 . S
C2109 C2110 1.388 . S
C2110 H2097 0.930 . S
C2110 C2109 1.388 . S
C2110 C2111 1.390 . S
C2111 C2110 1.390 . S
C2111 C2112 1.394 . S
C2111 C2117 1.465 . S
C2112 C2107 1.399 . S
C2112 C2111 1.394 . S
C2112 C2113 1.516 . S
C2113 C2112 1.516 . S
C2113 C2114 1.502 . S
C2113 C2115 1.561 . S
C2113 C2116 1.526 . S
C2114 H2098 0.959 . S
C2114 H2099 0.959 . S
C2114 H2100 0.961 . S
C2114 C2113 1.502 . S
C2115 H2101 0.960 . S
C2115 H2102 0.961 . S
C2115 H2103 0.959 . S
C2115 C2113 1.561 . S
C2116 C2113 1.526 . S
C2116 C2117 1.396 . S
C2116 C2121 1.390 . S
C2117 C2111 1.465 . S
C2117 C2116 1.396 . S
C2117 C2118 1.399 . S
C2118 H2104 0.929 . S
C2118 C2117 1.399 . S
C2118 C2119 1.385 . S
C2119 H2105 0.931 . S
C2119 C2118 1.385 . S
C2119 C2120 1.389 . S
C2120 C2119 1.389 . S
C2120 C2121 1.387 . S
C2121 H2106 0.930 . S
C2121 C2116 1.390 . S
C2121 C2120 1.387 . S
H2122 C2134 0.930 . S
H2123 C2136 0.930 . S
H2124 C2137 0.930 . S
H2125 C2141 0.959 . S
H2126 C2141 0.959 . S
H2127 C2141 0.961 . S
H2128 C2142 0.960 . S
H2129 C2142 0.961 . S
H2130 C2142 0.959 . S
H2131 C2145 0.929 . S
H2132 C2146 0.931 . S
H2133 C2148 0.930 . S
C2134 H2122 0.930 . S
C2134 C2135 1.399 . S
C2134 C2139 1.399 . S
C2135 C2134 1.399 . S
C2135 C2136 1.376 . S
C2136 H2123 0.930 . S
C2136 C2135 1.376 . S
C2136 C2137 1.388 . S
C2137 H2124 0.930 . S
C2137 C2136 1.388 . S
C2137 C2138 1.390 . S
C2138 C2137 1.390 . S
C2138 C2139 1.394 . S
C2138 C2144 1.465 . S
C2139 C2134 1.399 . S
C2139 C2138 1.394 . S
C2139 C2140 1.516 . S
C2140 C2139 1.516 . S
C2140 C2141 1.502 . S
C2140 C2142 1.561 . S
C2140 C2143 1.526 . S
C2141 H2125 0.959 . S
C2141 H2126 0.959 . S
C2141 H2127 0.961 . S
C2141 C2140 1.502 . S
C2142 H2128 0.960 . S
C2142 H2129 0.961 . S
C2142 H2130 0.959 . S
C2142 C2140 1.561 . S
C2143 C2140 1.526 . S
C2143 C2144 1.396 . S
C2143 C2148 1.390 . S
C2144 C2138 1.465 . S
C2144 C2143 1.396 . S
C2144 C2145 1.399 . S
C2145 H2131 0.929 . S
C2145 C2144 1.399 . S
C2145 C2146 1.385 . S
C2146 H2132 0.931 . S
C2146 C2145 1.385 . S
C2146 C2147 1.389 . S
C2147 C2146 1.389 . S
C2147 C2148 1.387 . S
C2148 H2133 0.930 . S
C2148 C2143 1.390 . S
C2148 C2147 1.387 . S
H2149 C2161 0.930 . S
H2150 C2163 0.930 . S
H2151 C2164 0.930 . S
H2152 C2168 0.959 . S
H2153 C2168 0.959 . S
H2154 C2168 0.961 . S
H2155 C2169 0.960 . S
H2156 C2169 0.961 . S
H2157 C2169 0.959 . S
H2158 C2172 0.929 . S
H2159 C2173 0.931 . S
H2160 C2175 0.930 . S
C2161 H2149 0.930 . S
C2161 C2162 1.399 . S
C2161 C2166 1.399 . S
C2162 C2161 1.399 . S
C2162 C2163 1.376 . S
C2163 H2150 0.930 . S
C2163 C2162 1.376 . S
C2163 C2164 1.388 . S
C2164 H2151 0.930 . S
C2164 C2163 1.388 . S
C2164 C2165 1.390 . S
C2165 C2164 1.390 . S
C2165 C2166 1.394 . S
C2165 C2171 1.465 . S
C2166 C2161 1.399 . S
C2166 C2165 1.394 . S
C2166 C2167 1.516 . S
C2167 C2166 1.516 . S
C2167 C2168 1.502 . S
C2167 C2169 1.561 . S
C2167 C2170 1.526 . S
C2168 H2152 0.959 . S
C2168 H2153 0.959 . S
C2168 H2154 0.961 . S
C2168 C2167 1.502 . S
C2169 H2155 0.960 . S
C2169 H2156 0.961 . S
C2169 H2157 0.959 . S
C2169 C2167 1.561 . S
C2170 C2167 1.526 . S
C2170 C2171 1.396 . S
C2170 C2175 1.390 . S
C2171 C2165 1.465 . S
C2171 C2170 1.396 . S
C2171 C2172 1.399 . S
C2172 H2158 0.929 . S
C2172 C2171 1.399 . S
C2172 C2173 1.385 . S
C2173 H2159 0.931 . S
C2173 C2172 1.385 . S
C2173 C2174 1.389 . S
C2174 C2173 1.389 . S
C2174 C2175 1.387 . S
C2175 H2160 0.930 . S
C2175 C2170 1.390 . S
C2175 C2174 1.387 . S
C461 C7 1.656 . S
C473 C35 1.643 . S
C488 C49 1.664 . S
C500 C21 1.677 . S
C515 C91 1.640 . S
C527 C63 1.660 . S
C542 C105 1.676 . S
C554 C77 1.651 . S
C569 C119 1.653 . S
C581 C147 1.642 . S
C596 C161 1.662 . S
C608 C133 1.676 . S
C623 C175 1.641 . S
C635 C203 1.661 . S
C650 C217 1.641 . S
C662 C189 1.662 . S
C677 C231 1.663 . S
C689 C259 1.676 . S
C704 C245 1.664 . S
C716 C273 1.676 . S
C731 C315 1.678 . S
C743 C287 1.657 . S
C758 C301 1.641 . S
C770 C329 1.663 . S
C785 C371 1.667 . S
C797 C343 1.677 . S
C812 C385 1.663 . S
C824 C357 1.676 . S
C839 C427 1.677 . S
C851 C399 1.655 . S
C866 C413 1.678 . S
C878 C441 1.658 . S
C893 C356 1.199 . S
C905 C6 1.231 . S
C920 C20 1.191 . S
C932 C342 1.234 . S
C947 C34 1.210 . S
C959 C384 1.186 . S
C974 C48 1.216 . S
C986 C370 1.183 . S
C1001 C412 1.223 . S
C1013 C62 1.226 . S
C1028 C76 1.235 . S
C1040 C398 1.200 . S
C1055 C90 1.235 . S
C1067 C440 1.209 . S
C1082 C426 1.184 . S
C1094 C104 1.195 . S
C1109 C118 1.213 . S
C1121 C244 1.184 . S
C1136 C132 1.204 . S
C1148 C230 1.191 . S
C1163 C146 1.213 . S
C1175 C272 1.184 . S
C1190 C160 1.217 . S
C1202 C258 1.182 . S
C1217 C174 1.234 . S
C1229 C300 1.210 . S
C1244 C286 1.228 . S
C1256 C188 1.184 . S
C1271 C328 1.182 . S
C1283 C202 1.198 . S
C1298 C216 1.233 . S
C1310 C314 1.213 . S
C1325 C8 1.419 . S
C1337 C64 1.278 . S
C1352 C22 1.278 . S
C1364 C414 1.415 . S
C1379 C36 1.284 . S
C1391 C204 1.420 . S
C1406 C50 1.277 . S
C1418 C330 1.416 . S
C1433 C78 1.290 . S
C1445 C358 1.396 . S
C1460 C148 1.307 . S
C1472 C92 1.408 . S
C1487 C274 1.279 . S
C1499 C106 1.410 . S
C1514 C176 1.342 . S
C1526 C120 1.338 . S
C1541 C134 1.398 . S
C1553 C302 1.290 . S
C1568 C442 1.378 . S
C1580 C162 1.305 . S
C1595 C190 1.419 . S
C1607 C246 1.278 . S
C1622 C218 1.400 . S
C1634 C386 1.320 . S
C1649 C288 1.320 . S
C1661 C232 1.399 . S
C1676 C260 1.344 . S
C1688 C428 1.380 . S
C1703 C372 1.277 . S
C1715 C316 1.419 . S
C1730 C400 1.376 . S
C1742 C344 1.306 . S
C1757 C9 1.593 . S
C1769 C23 1.541 . S
C1784 C37 1.586 . S
C1796 C51 1.556 . S
C1811 C65 1.560 . S
C1823 C79 1.565 . S
C1838 C93 1.569 . S
C1850 C107 1.551 . S
C1865 C135 1.536 . S
C1877 C121 1.566 . S
C1892 C149 1.529 . S
C1904 C163 1.578 . S
C1919 C177 1.574 . S
C1931 C191 1.547 . S
C1946 C205 1.585 . S
C1958 C219 1.537 . S
C1973 C233 1.533 . S
C1985 C247 1.572 . S
C2000 C275 1.588 . S
C2012 C261 1.553 . S
C2027 C289 1.540 . S
C2039 C303 1.584 . S
C2054 C317 1.543 . S
C2066 C331 1.581 . S
C2081 C359 1.538 . S
C2093 C345 1.564 . S
C2108 C373 1.542 . S
C2120 C387 1.559 . S
C2135 C415 1.539 . S
C2147 C401 1.584 . S
C2162 C429 1.541 . S
C2174 C443 1.582 . S
