# Generated by pormake.
# Topology tfs, (6)-cn, num edge types: 1
# Building blocks:
#     Node 0, Type 0, BuildingBlock: PAMTOO_clean_sbu_0, # of connection points: 6
#     Node 1, Type 0, BuildingBlock: PAMTOO_clean_sbu_0, # of connection points: 6
#     Node 2, Type 0, BuildingBlock: PAMTOO_clean_sbu_0, # of connection points: 6
#     Node 3, Type 0, BuildingBlock: PAMTOO_clean_sbu_0, # of connection points: 6
#     Node 4, Type 0, BuildingBlock: PAMTOO_clean_sbu_0, # of connection points: 6
#     Node 5, Type 0, BuildingBlock: PAMTOO_clean_sbu_0, # of connection points: 6
#     Edge 6, Type (0, 0), BuildingBlock: XUDNAN_clean_linker_2, # of connection points: 2
#     Edge 7, Type (0, 0), BuildingBlock: XUDNAN_clean_linker_2, # of connection points: 2
#     Edge 8, Type (0, 0), BuildingBlock: XUDNAN_clean_linker_2, # of connection points: 2
#     Edge 9, Type (0, 0), BuildingBlock: XUDNAN_clean_linker_2, # of connection points: 2
#     Edge 10, Type (0, 0), BuildingBlock: XUDNAN_clean_linker_2, # of connection points: 2
#     Edge 11, Type (0, 0), BuildingBlock: XUDNAN_clean_linker_2, # of connection points: 2
#     Edge 12, Type (0, 0), BuildingBlock: XUDNAN_clean_linker_2, # of connection points: 2
#     Edge 13, Type (0, 0), BuildingBlock: XUDNAN_clean_linker_2, # of connection points: 2
#     Edge 14, Type (0, 0), BuildingBlock: XUDNAN_clean_linker_2, # of connection points: 2
#     Edge 15, Type (0, 0), BuildingBlock: XUDNAN_clean_linker_2, # of connection points: 2
#     Edge 16, Type (0, 0), BuildingBlock: XUDNAN_clean_linker_2, # of connection points: 2
#     Edge 17, Type (0, 0), BuildingBlock: XUDNAN_clean_linker_2, # of connection points: 2
#     Edge 18, Type (0, 0), BuildingBlock: XUDNAN_clean_linker_2, # of connection points: 2
#     Edge 19, Type (0, 0), BuildingBlock: XUDNAN_clean_linker_2, # of connection points: 2
#     Edge 20, Type (0, 0), BuildingBlock: XUDNAN_clean_linker_2, # of connection points: 2
#     Edge 21, Type (0, 0), BuildingBlock: XUDNAN_clean_linker_2, # of connection points: 2
#     Edge 22, Type (0, 0), BuildingBlock: XUDNAN_clean_linker_2, # of connection points: 2
#     Edge 23, Type (0, 0), BuildingBlock: XUDNAN_clean_linker_2, # of connection points: 2
# Relax obj value: 0.578
# Max RMSD: 0.443
# Mean RMSD: 0.335
data_MOF--net-tfs--node1-PAMTOO_clean_sbu_0--edge1-XUDNAN_clean_linker_2
_symmetry_space_group_name_H-M    P1
_symmetry_Int_Tables_number       1
_symmetry_cell_setting            triclinic
loop_
_symmetry_equiv_pos_as_xyz
'x, y, z'
_cell_length_a     53.167069
_cell_length_b     46.45247
_cell_length_c     13.514762
_cell_angle_alpha  101.09688
_cell_angle_beta   97.148182
_cell_angle_gamma 122.63377
loop_
_atom_site_label
_atom_site_type_symbol
_atom_site_fract_x
_atom_site_fract_y
_atom_site_fract_z
_atom_type_partial_charge
Dy0 Dy 0.32657 0.5186 0.61114 0.0
Dy1 Dy 0.33496 0.45499 0.52722 0.0
C2 C 0.33259 0.49901 0.38577 0.0
O3 O 0.27895 0.47084 0.51815 0.0
O4 O 0.28623 0.42944 0.55216 0.0
O5 O 0.31941 0.55993 0.60762 0.0
O6 O 0.31958 0.54313 0.74683 0.0
O7 O 0.36685 0.48468 0.68683 0.0
O8 O 0.33442 0.49772 0.73723 0.0
O9 O 0.38238 0.50569 0.53746 0.0
O10 O 0.37843 0.54937 0.63393 0.0
O11 O 0.33165 0.40893 0.55535 0.0
O12 O 0.3404 0.42163 0.40917 0.0
C13 C 0.26729 0.43845 0.52461 0.0
O14 O 0.33984 0.52583 0.46464 0.0
O15 O 0.31757 0.46629 0.39253 0.0
C16 C 0.34048 0.60408 0.77444 0.0
C17 C 0.37065 0.67569 0.89566 0.0
C18 C 0.3745 0.66762 0.79553 0.0
C19 C 0.35953 0.63196 0.73514 0.0
C20 C 0.33931 0.61235 0.87858 0.0
C21 C 0.35455 0.64804 0.9393 0.0
C22 C 0.31994 0.56658 0.70654 0.0
C23 C 0.35915 0.49801 0.76039 0.0
C24 C 0.3948 0.5399 0.58901 0.0
C25 C 0.33755 0.36914 0.43041 0.0
C26 C 0.34893 0.31656 0.37718 0.0
C27 C 0.34019 0.32165 0.46906 0.0
C28 C 0.3346 0.34791 0.49575 0.0
C29 C 0.34413 0.36214 0.33495 0.0
C30 C 0.34982 0.33609 0.30867 0.0
C31 C 0.33662 0.40045 0.46558 0.0
H32 H 0.38661 0.68871 0.76041 0.0
H33 H 0.36126 0.62633 0.65567 0.0
H34 H 0.32491 0.59119 0.91059 0.0
H35 H 0.35094 0.65374 0.01579 0.0
H36 H 0.33956 0.30695 0.52309 0.0
H37 H 0.32943 0.35272 0.5697 0.0
H38 H 0.34632 0.3779 0.28279 0.0
H39 H 0.35637 0.33234 0.23698 0.0
Dy40 Dy 0.80102 0.14103 0.29194 0.0
Dy41 Dy 0.87887 0.17554 0.35355 0.0
C42 C 0.8324 0.1285 0.12799 0.0
O43 O 0.8051 0.10498 0.37124 0.0
O44 O 0.85256 0.11686 0.35742 0.0
O45 O 0.75904 0.12222 0.1765 0.0
O46 O 0.75784 0.1185 0.33391 0.0
O47 O 0.86295 0.17946 0.49532 0.0
O48 O 0.82507 0.18686 0.43855 0.0
O49 O 0.87511 0.22091 0.33151 0.0
O50 O 0.82314 0.19072 0.2429 0.0
O51 O 0.92546 0.21481 0.46024 0.0
O52 O 0.91834 0.1761 0.32164 0.0
C53 C 0.82469 0.09586 0.37287 0.0
O54 O 0.81069 0.11129 0.17262 0.0
O55 O 0.85927 0.15843 0.18275 0.0
C56 C 0.71856 0.12154 0.2402 0.0
C57 C 0.66796 0.12752 0.22685 0.0
C58 C 0.68344 0.13233 0.14778 0.0
C59 C 0.70841 0.12925 0.15419 0.0
C60 C 0.70327 0.1171 0.31939 0.0
C61 C 0.67834 0.11995 0.31275 0.0
C62 C 0.74214 0.11359 0.24234 0.0
C63 C 0.84589 0.19124 0.51422 0.0
C64 C 0.85165 0.22031 0.28022 0.0
C65 C 0.97164 0.22973 0.4032 0.0
C66 C 1.03637 0.27528 0.40861 0.0
C67 C 1.02667 0.27613 0.50102 0.0
C68 C 0.99497 0.25383 0.49823 0.0
C69 C 0.98119 0.22874 0.3107 0.0
C70 C 1.01286 0.25109 0.31335 0.0
C71 C 0.93859 0.20336 0.40505 0.0
H72 H 0.67627 0.1384 0.08079 0.0
H73 H 0.71933 0.13223 0.0908 0.0
H74 H 0.70995 0.11029 0.38544 0.0
H75 H 0.66663 0.1151 0.37398 0.0
H76 H 1.04354 0.29431 0.57597 0.0
H77 H 0.98873 0.25503 0.57147 0.0
H78 H 0.96425 0.21022 0.23607 0.0
H79 H 1.01892 0.24875 0.2401 0.0
Dy80 Dy 0.65103 0.82197 0.59396 0.0
Dy81 Dy 0.66876 0.76687 0.4798 0.0
C82 C 0.69668 0.81226 0.71648 0.0
O83 O 0.68184 0.85415 0.50613 0.0
O84 O 0.7054 0.8249 0.47312 0.0
O85 O 0.66644 0.86593 0.73234 0.0
O86 O 0.62317 0.84203 0.61332 0.0
O87 O 0.63119 0.75896 0.36021 0.0
O88 O 0.63472 0.81092 0.42229 0.0
O89 O 0.61866 0.72909 0.48881 0.0
O90 O 0.61829 0.76902 0.61775 0.0
O91 O 0.68852 0.75129 0.36598 0.0
O92 O 0.66985 0.72055 0.47175 0.0
C93 C 0.70377 0.85294 0.4754 0.0
O94 O 0.69647 0.8352 0.67536 0.0
O95 O 0.68387 0.77992 0.6537 0.0
C96 C 0.6279 0.87126 0.78725 0.0
C97 C 0.59906 0.89387 0.90906 0.0
C98 C 0.58154 0.85933 0.83576 0.0
C99 C 0.59588 0.84797 0.77534 0.0
C100 C 0.64584 0.90402 0.86909 0.0
C101 C 0.63148 0.9153 0.92984 0.0
C102 C 0.64185 0.86555 0.70472 0.0
C103 C 0.62951 0.78489 0.34413 0.0
C104 C 0.60562 0.73585 0.55903 0.0
C105 C 0.70338 0.71084 0.38799 0.0
C106 C 0.73593 0.6786 0.34971 0.0
C107 C 0.74275 0.70859 0.31706 0.0
C108 C 0.72661 0.7243 0.3353 0.0
C109 C 0.69678 0.68114 0.42146 0.0
C110 C 0.71275 0.66532 0.40275 0.0
C111 C 0.68283 0.72359 0.39517 0.0
H112 H 0.55643 0.84259 0.81818 0.0
H113 H 0.58155 0.82239 0.71353 0.0
H114 H 0.6706 0.92234 0.87979 0.0
H115 H 0.6453 0.94222 -0.01486 0.0
H116 H 0.76006 0.71945 0.27464 0.0
H117 H 0.73188 0.74649 0.30588 0.0
H118 H 0.6786 0.66944 0.46023 0.0
H119 H 0.70692 0.64263 0.43028 0.0
Dy120 Dy 0.79339 0.44358 0.13071 0.0
Dy121 Dy 0.86522 0.50894 0.26977 0.0
C122 C 0.80691 0.47966 0.3727 0.0
O123 O 0.79408 0.49405 0.16885 0.0
O124 O 0.84545 0.5402 0.25414 0.0
O125 O 0.75142 0.3897 0.05954 0.0
O126 O 0.75956 0.4331 -0.00214 0.0
O127 O 0.85842 0.5154 0.11223 0.0
O128 O 0.83145 0.45667 0.05696 0.0
O129 O 0.86142 0.45702 0.24545 0.0
O130 O 0.80883 0.41235 0.19369 0.0
O131 O 0.91349 0.53662 0.27294 0.0
O132 O 0.90029 0.54955 0.41188 0.0
C133 C 0.81647 0.52857 0.21559 0.0
O134 O 0.78594 0.456 0.28446 0.0
O135 O 0.83714 0.49842 0.38473 0.0
C136 C 0.72993 0.37512 0.87578 0.0
C137 C 0.69508 0.32271 0.67791 0.0
C138 C 0.71606 0.32099 0.74696 0.0
C139 C 0.73321 0.34691 0.84589 0.0
C140 C 0.71251 0.37954 0.80158 0.0
C141 C 0.69557 0.3539 0.70313 0.0
C142 C 0.742 0.39871 -0.01531 0.0
C143 C 0.84376 0.4863 0.03319 0.0
C144 C 0.83791 0.42313 0.22605 0.0
C145 C 0.94049 0.59712 0.37114 0.0
C146 C 0.9743 0.67006 0.38496 0.0
C147 C 0.94664 0.64493 0.3048 0.0
C148 C 0.92967 0.60864 0.29845 0.0
C149 C 0.96796 0.62208 0.45126 0.0
C150 C 0.98479 0.65833 0.45817 0.0
C151 C 0.92243 0.55929 0.36555 0.0
H152 H 0.71668 0.29766 0.72904 0.0
H153 H 0.7473 0.34353 0.90099 0.0
H154 H 0.71029 0.40165 0.82221 0.0
H155 H 0.67997 0.35657 0.6526 0.0
H156 H 0.93826 0.65334 0.24732 0.0
H157 H 0.90819 0.58956 0.23663 0.0
H158 H 0.97644 0.61352 0.50802 0.0
H159 H 1.00648 0.67711 0.51933 0.0
Dy160 Dy 0.35373 0.93979 0.06043 0.0
Dy161 Dy 0.28176 0.86968 0.92322 0.0
C162 C 0.34133 0.89547 0.83298 0.0
O163 O 0.33544 0.95711 0.94365 0.0
O164 O 0.28434 0.91949 0.9375 0.0
O165 O 0.39771 0.98964 0.08105 0.0
O166 O 0.38624 0.97074 0.21455 0.0
O167 O 0.28638 0.87334 0.09138 0.0
O168 O 0.31623 0.93294 0.13017 0.0
O169 O 0.3049 0.84412 0.96226 0.0
O170 O 0.35017 0.89196 0.08859 0.0
O171 O 0.23251 0.83701 0.90568 0.0
O172 O 0.25059 0.82827 0.77606 0.0
C173 C 0.30662 0.94716 0.91745 0.0
O174 O 0.36083 0.91189 0.92673 0.0
O175 O 0.31246 0.88562 0.81662 0.0
C176 C 0.4368 0.99391 0.19725 0.0
C177 C 0.48496 0.98714 0.16882 0.0
C178 C 0.45959 0.96044 0.19487 0.0
C179 C 0.43553 0.96367 0.2084 0.0
C180 C 0.46368 1.02225 0.18227 0.0
C181 C 0.48758 1.01883 0.1676 0.0
C182 C 0.40826 0.99246 0.17758 0.0
C183 C 0.30181 0.9049 0.16219 0.0
C184 C 0.33073 0.8576 0.03429 0.0
C185 C 0.20685 0.82914 0.73714 0.0
C186 C 0.16768 0.83894 0.61092 0.0
C187 C 0.18601 0.86343 0.7113 0.0
C188 C 0.20561 0.85872 0.77369 0.0
C189 C 0.19028 0.80619 0.63423 0.0
C190 C 0.17085 0.81108 0.57138 0.0
C191 C 0.2263 0.82309 0.80468 0.0
H192 H 0.45696 0.93562 0.19491 0.0
H193 H 0.4149 0.94121 0.21893 0.0
H194 H 0.46496 0.04558 0.17287 0.0
H195 H 0.50701 0.03972 0.14752 0.0
H196 H 0.18392 0.88505 0.74338 0.0
H197 H 0.21899 0.87757 0.85182 0.0
H198 H 0.19159 0.78383 0.60372 0.0
H199 H 0.15668 0.79153 0.49461 0.0
Dy200 Dy 0.45014 0.1629 0.06877 0.0
Dy201 Dy 0.407 0.08533 0.11133 0.0
C202 C 0.40586 0.09073 0.88527 0.0
O203 O 0.40042 0.14202 0.04378 0.0
O204 O 0.39235 0.12024 0.1779 0.0
O205 O 0.44585 0.19707 -0.00841 0.0
O206 O 0.49145 0.21367 0.07411 0.0
O207 O 0.45127 0.12522 0.23519 0.0
O208 O 0.45395 0.17526 0.24178 0.0
O209 O 0.44595 0.0837 0.0668 0.0
O210 O 0.48115 0.14461 0.0888 0.0
O211 O 0.39771 0.05395 0.2178 0.0
O212 O 0.36423 1.03217 0.06746 0.0
C213 C 0.38923 0.13922 0.12451 0.0
O214 O 0.43485 0.11852 0.92542 0.0
O215 O 0.38774 0.07782 0.9452 0.0
C216 C 0.48573 0.2243 0.9121 0.0
C217 C 0.51036 0.22953 0.73943 0.0
C218 C 0.48249 0.19789 0.7338 0.0
C219 C 0.47017 0.19509 0.81926 0.0
C220 C 0.51247 0.25704 0.91529 0.0
C221 C 0.52481 0.25962 0.82919 0.0
C222 C 0.47574 0.21922 0.00751 0.0
C223 C 0.45606 0.15467 0.29133 0.0
C224 C 0.47434 0.11203 0.07689 0.0
C225 C 0.34519 1.027 0.21597 0.0
C226 C 0.30208 1.01736 0.33079 0.0
C227 C 0.3324 0.04916 0.36489 0.0
C228 C 0.35361 0.05393 0.30765 0.0
C229 C 0.31397 0.99772 0.17462 0.0
C230 C 0.29253 0.99276 0.23156 0.0
C231 C 0.36878 1.03052 0.1625 0.0
H232 H 0.47188 0.17455 0.66668 0.0
H233 H 0.44957 0.16941 0.81482 0.0
H234 H 0.52477 0.2798 -0.01373 0.0
H235 H 0.54689 0.2841 0.83579 0.0
H236 H 0.3407 0.06915 0.43987 0.0
H237 H 0.377 0.07808 0.33728 0.0
H238 H 0.30628 0.97809 0.10019 0.0
H239 H 0.26903 0.96856 0.20103 0.0
H240 H 0.34448 0.13878 0.21109 0.0
H241 H 0.43502 0.20888 0.16436 0.0
H242 H 0.43662 0.26157 0.24672 0.0
H243 H 0.31475 0.18505 0.1435 0.0
H244 H 0.2934 0.18048 0.24003 0.0
H245 H 0.30094 0.14757 0.19442 0.0
H246 H 0.32721 0.15855 0.38547 0.0
H247 H 0.31959 0.19143 0.43197 0.0
H248 H 0.35868 0.20353 0.4658 0.0
H249 H 0.42705 0.3056 0.31046 0.0
H250 H 0.40566 0.34047 0.35319 0.0
H251 H 0.3205 0.24482 0.36045 0.0
C252 C 0.36474 0.16535 0.22038 0.0
C253 C 0.38953 0.16984 0.18054 0.0
C254 C 0.41559 0.2048 0.19265 0.0
C255 C 0.41693 0.23503 0.24071 0.0
C256 C 0.39194 0.22996 0.27646 0.0
C257 C 0.36627 0.19621 0.26751 0.0
C258 C 0.34141 0.19888 0.30334 0.0
C259 C 0.31082 0.17669 0.21502 0.0
C260 C 0.33643 0.18742 0.40255 0.0
C261 C 0.35662 0.23902 0.32752 0.0
C262 C 0.38608 0.25627 0.31365 0.0
C263 C 0.40422 0.29268 0.32337 0.0
C264 C 0.39182 0.31216 0.34668 0.0
C265 C 0.36154 0.29516 0.3594 0.0
C266 C 0.34387 0.25831 0.35193 0.0
H267 H 0.22617 0.393 0.62642 0.0
H268 H 0.22895 0.42493 0.34472 0.0
H269 H 0.17169 0.38669 0.28572 0.0
H270 H 0.15649 0.29965 0.50852 0.0
H271 H 0.14082 0.29946 0.61944 0.0
H272 H 0.18223 0.32759 0.63848 0.0
H273 H 0.18427 0.38323 0.73104 0.0
H274 H 0.14285 0.3553 0.71192 0.0
H275 H 0.16006 0.39361 0.66436 0.0
H276 H 0.1141 0.34651 0.25683 0.0
H277 H 0.05987 0.30748 0.26025 0.0
H278 H 0.09116 0.30033 0.56142 0.0
C279 C 0.21465 0.3913 0.55139 0.0
C280 C 0.2324 0.41171 0.48916 0.0
C281 C 0.21617 0.40946 0.39325 0.0
C282 C 0.1835 0.38777 0.35906 0.0
C283 C 0.16669 0.36843 0.42197 0.0
C284 C 0.18156 0.36996 0.51642 0.0
C285 C 0.15736 0.34747 0.57023 0.0
C286 C 0.15935 0.31671 0.58503 0.0
C287 C 0.16138 0.37133 0.67565 0.0
C288 C 0.12681 0.33297 0.49081 0.0
C289 C 0.13299 0.34551 0.40601 0.0
C290 C 0.10902 0.33633 0.32263 0.0
C291 C 0.07799 0.3137 0.32502 0.0
C292 C 0.0704 0.29989 0.41017 0.0
C293 C 0.0956 0.31016 0.49477 0.0
H294 H 0.76642 0.04419 0.38599 0.0
H295 H 0.85617 0.06365 0.39357 0.0
H296 H 0.83572 1.0033 0.41358 0.0
H297 H 0.74853 0.99722 0.57633 0.0
H298 H 0.70772 0.96638 0.5084 0.0
H299 H 0.72988 1.01063 0.49458 0.0
H300 H 0.71269 0.98238 0.29271 0.0
H301 H 0.69066 0.93803 0.30619 0.0
H302 H 0.71983 0.94989 0.23623 0.0
H303 H 0.8029 0.9372 0.43394 0.0
H304 H 0.76424 0.87861 0.45839 0.0
H305 H 0.69705 0.90444 0.43356 0.0
C306 C 0.78208 0.03613 0.39216 0.0
C307 C 0.8133 0.05951 0.38843 0.0
C308 C 0.83234 0.04686 0.3963 0.0
C309 C 0.82077 1.01233 0.40751 0.0
C310 C 0.78982 0.99002 0.4102 0.0
C311 C 0.77086 1.00178 0.40264 0.0
C312 C 0.73851 0.97332 0.40739 0.0
C313 C 0.73072 0.98775 0.50232 0.0
C314 C 0.71399 0.96014 0.30453 0.0
C315 C 0.74207 0.94376 0.42043 0.0
C316 C 0.77165 0.95341 0.42127 0.0
C317 C 0.77975 0.92975 0.43322 0.0
C318 C 0.7575 0.89618 0.44652 0.0
C319 C 0.72724 0.88618 0.44846 0.0
C320 C 0.71979 0.91061 0.43333 0.0
H321 H 0.75952 0.51832 0.21134 0.0
H322 H 0.85693 0.60116 0.25544 0.0
H323 H 0.84676 0.64746 0.29126 0.0
H324 H 0.72811 0.55989 0.08667 0.0
H325 H 0.6978 0.54679 0.15199 0.0
H326 H 0.7123 0.51972 0.12513 0.0
H327 H 0.72481 0.52526 0.32198 0.0
H328 H 0.71048 0.55247 0.3496 0.0
H329 H 0.74936 0.56924 0.41829 0.0
H330 H 0.82652 0.68558 0.32625 0.0
H331 H 0.79789 0.71245 0.35905 0.0
H332 H 0.71323 0.60594 0.29511 0.0
C333 C 0.77862 0.54615 0.22707 0.0
C334 C 0.80908 0.55583 0.22967 0.0
C335 C 0.83342 0.59277 0.25266 0.0
C336 C 0.82786 0.61941 0.27318 0.0
C337 C 0.79779 0.60907 0.27132 0.0
C338 C 0.77353 0.57334 0.24893 0.0
C339 C 0.7436 0.5698 0.25532 0.0
C340 C 0.719 0.54774 0.14841 0.0
C341 C 0.73135 0.55321 0.34142 0.0
C342 C 0.75484 0.60905 0.28466 0.0
C343 C 0.78618 0.63118 0.29304 0.0
C344 C 0.80192 0.66842 0.31934 0.0
C345 C 0.78532 0.6835 0.33728 0.0
C346 C 0.75309 0.66162 0.32945 0.0
C347 C 0.73783 0.62372 0.30285 0.0
H348 H 0.12458 0.83743 0.69745 0.0
H349 H 0.14873 0.83204 0.40423 0.0
H350 H 0.09446 0.80369 0.30815 0.0
H351 H 0.0707 0.7586 0.63762 0.0
H352 H 1.04333 0.76045 0.70013 0.0
H353 H 0.08345 0.7967 0.74815 0.0
H354 H 0.07079 0.84174 0.72265 0.0
H355 H 1.03003 0.80524 0.67543 0.0
H356 H 0.04818 0.83398 0.59694 0.0
H357 H 1.03983 0.75597 0.24504 0.0
H358 H 0.99335 0.69606 0.2244 0.0
H359 H 1.00101 0.7285 0.55479 0.0
C360 C 0.11867 0.8326 0.61357 0.0
C361 C 0.14052 0.8369 0.55786 0.0
C362 C 0.13217 0.8291 0.44796 0.0
C363 C 0.10135 0.81309 0.39302 0.0
C364 C 0.07925 0.80499 0.44925 0.0
C365 C 0.08772 0.81534 0.55811 0.0
C366 C 0.05978 0.79533 0.5993 0.0
C367 C 0.06463 0.77666 0.67543 0.0
C368 C 0.05172 0.82059 0.65161 0.0
C369 C 1.03532 0.76852 0.49747 0.0
C370 C 1.04642 0.77582 0.4114 0.0
C371 C 1.03043 0.75075 0.31116 0.0
C372 C 1.00397 0.71667 0.29988 0.0
C373 C 0.99403 0.70804 0.38862 0.0
C374 C 1.00839 0.73502 0.48631 0.0
H375 H 0.27914 0.9124 0.71334 0.0
H376 H 0.31282 1.01129 0.95225 0.0
H377 H 0.29892 1.03335 0.81722 0.0
H378 H 0.31121 0.95081 0.53283 0.0
H379 H 0.27979 0.91432 0.42183 0.0
H380 H 0.28704 0.9063 0.54297 0.0
H381 H 0.22884 0.87953 0.53551 0.0
H382 H 0.22327 0.89115 0.41879 0.0
H383 H 0.21516 0.90754 0.53385 0.0
H384 H 0.28986 0.04829 0.65644 0.0
H385 H 0.29669 0.05975 0.48818 0.0
H386 H 0.26926 0.95102 0.35389 0.0
C387 C 0.28279 0.93833 0.73693 0.0
C388 C 0.29732 0.96053 0.84174 0.0
C389 C 0.3023 0.99439 0.8714 0.0
C390 C 0.29379 1.00668 0.79559 0.0
C391 C 0.27987 0.98435 0.69157 0.0
C392 C 0.27457 0.95089 0.66232 0.0
C393 C 0.26481 0.93481 0.5446 0.0
C394 C 0.28704 0.9261 0.50847 0.0
C395 C 0.231 0.90128 0.50594 0.0
C396 C 0.26787 0.96567 0.51186 0.0
C397 C 0.27512 0.99332 0.59742 0.0
C398 C 0.28369 1.02665 0.5887 0.0
C399 C 0.28763 1.03299 0.49275 0.0
C400 C 0.28416 1.00652 0.4085 0.0
C401 C 0.27157 0.97163 0.41581 0.0
H402 H 0.31118 0.79662 0.88661 0.0
H403 H 0.3725 0.86543 0.19936 0.0
H404 H 0.39164 0.82703 0.19989 0.0
H405 H 0.29177 0.71238 0.9178 0.0
H406 H 0.29144 0.69594 0.78514 0.0
H407 H 0.28157 0.72742 0.81649 0.0
H408 H 0.32423 0.77002 0.73841 0.0
H409 H 0.33473 0.73908 0.70883 0.0
H410 H 0.36378 0.78503 0.78874 0.0
H411 H 0.40278 0.7789 0.16257 0.0
H412 H 0.40542 0.72733 0.08972 0.0
H413 H 0.34019 0.69697 0.79783 0.0
C414 C 0.32818 0.80338 0.95644 0.0
C415 C 0.34016 0.83364 0.04342 0.0
C416 C 0.36297 0.84208 0.13208 0.0
C417 C 0.37396 0.82053 0.13291 0.0
C418 C 0.36211 0.79128 0.04395 0.0
C419 C 0.33973 0.78292 0.95757 0.0
C420 C 0.3314 0.75137 0.86953 0.0
C421 C 0.29702 0.71993 0.84594 0.0
C422 C 0.33902 0.76204 0.77061 0.0
C423 C 0.35277 0.7432 0.91908 0.0
C424 C 0.37006 0.76594 0.02017 0.0
C425 C 0.38977 0.76136 0.08289 0.0
C426 C 0.39132 0.73235 0.04115 0.0
C427 C 0.37385 0.70935 0.93743 0.0
C428 C 0.35473 0.71519 0.87594 0.0
H429 H 0.50511 0.09201 0.96033 0.0
H430 H 0.50491 0.13285 0.27687 0.0
H431 H 0.55492 0.14305 0.34731 0.0
H432 H 0.54285 0.04709 0.03341 0.0
H433 H 0.56316 0.05724 0.93452 0.0
H434 H 0.52601 0.0507 0.916 0.0
H435 H 0.554 0.11449 0.88941 0.0
H436 H 0.59103 0.12091 0.91788 0.0
H437 H 0.58611 0.15296 -0.00558 0.0
H438 H 0.60597 0.15327 0.38395 0.0
H439 H 0.65332 0.15555 0.38858 0.0
H440 H 0.62087 0.10471 0.05062 0.0
C441 C 0.51537 0.1022 0.04439 0.0
C442 C 0.50105 0.11113 0.11364 0.0
C443 C 0.51533 0.12529 0.22298 0.0
C444 C 0.54386 0.13145 0.26369 0.0
C445 C 0.55786 0.12324 0.19396 0.0
C446 C 0.54403 0.10832 0.0869 0.0
C447 C 0.56453 0.10205 0.03066 0.0
C448 C 0.5481 0.06184 -0.02501 0.0
C449 C 0.57451 0.12392 0.95355 0.0
C450 C 0.59192 0.11601 0.12296 0.0
C451 C 0.58753 0.12838 0.21596 0.0
C452 C 0.60946 0.14299 0.31193 0.0
C453 C 0.63624 0.14391 0.31372 0.0
C454 C 0.64076 0.12963 0.22046 0.0
C455 C 0.61838 0.11605 0.12345 0.0
H456 H 0.55735 0.66287 0.43285 0.0
H457 H 0.58566 0.74221 0.73136 0.0
H458 H 0.53733 0.70046 0.76864 0.0
H459 H 0.47562 0.62728 0.37213 0.0
H460 H 0.461 0.58076 0.31802 0.0
H461 H 0.49876 0.61573 0.31214 0.0
H462 H 0.52361 0.58997 0.40684 0.0
H463 H 0.48581 0.5548 0.41222 0.0
H464 H 0.51719 0.5835 0.53102 0.0
H465 H 0.48547 0.65331 0.77501 0.0
H466 H 0.43257 0.60119 0.75189 0.0
H467 H 0.43332 0.54738 0.45267 0.0
C468 C 0.55354 0.67124 0.50656 0.0
C469 C 0.57607 0.7066 0.57872 0.0
C470 C 0.56943 0.71594 0.67366 0.0
C471 C 0.54174 0.69218 0.69618 0.0
C472 C 0.52003 0.65829 0.62379 0.0
C473 C 0.52538 0.64737 0.53101 0.0
C474 C 0.49712 0.609 0.46777 0.0
C475 C 0.48225 0.60815 0.36117 0.0
C476 C 0.5065 0.58276 0.45359 0.0
C477 C 0.47524 0.60082 0.53898 0.0
C478 C 0.48937 0.62995 0.62851 0.0
C479 C 0.47427 0.63021 0.70559 0.0
C480 C 0.44398 0.60025 0.6915 0.0
C481 C 0.42835 0.5696 0.60112 0.0
C482 C 0.44454 0.56991 0.52378 0.0
H483 H 0.79839 0.34777 0.17142 0.0
H484 H 0.89493 0.43845 0.31064 0.0
H485 H 0.909 0.39712 0.33232 0.0
H486 H 0.79735 0.29516 0.33765 0.0
H487 H 0.77272 0.25262 0.23485 0.0
H488 H 0.77007 0.28928 0.22816 0.0
H489 H 0.7802 0.2842 0.04524 0.0
H490 H 0.78299 0.24759 0.05172 0.0
H491 H 0.81446 0.28675 0.02961 0.0
H492 H 0.91312 0.34574 0.34328 0.0
H493 H 0.90625 0.28876 0.34487 0.0
H494 H 0.80752 0.2305 0.19716 0.0
C495 C 0.82248 0.35898 0.20661 0.0
C496 C 0.84542 0.39679 0.2393 0.0
C497 C 0.8767 0.40988 0.28451 0.0
C498 C 0.88505 0.38649 0.29725 0.0
C499 C 0.86204 0.34959 0.26416 0.0
C500 C 0.83136 0.33582 0.21964 0.0
C501 C 0.81122 0.29494 0.19155 0.0
C502 C 0.78637 0.28226 0.25165 0.0
C503 C 0.79634 0.27733 0.07245 0.0
C504 C 0.83526 0.28805 0.22873 0.0
C505 C 0.86448 0.31996 0.26983 0.0
C506 C 0.89031 0.32057 0.31084 0.0
C507 C 0.8862 0.28792 0.31126 0.0
C508 C 0.85643 0.2547 0.27095 0.0
C509 C 0.83075 0.25512 0.22814 0.0
H510 H 0.52129 0.96748 0.25368 0.0
H511 H 0.49019 0.98471 -0.02703 0.0
H512 H 0.51924 0.96663 0.88254 0.0
H513 H 0.59948 0.99748 0.22416 0.0
H514 H 0.59914 0.9634 0.27041 0.0
H515 H 0.57829 0.98095 0.31763 0.0
H516 H 0.52771 0.91636 0.25801 0.0
H517 H 0.54835 0.89864 0.21048 0.0
H518 H 0.51422 0.88876 0.12346 0.0
H519 H 0.54751 0.94323 0.81819 0.0
H520 H 0.57463 0.91476 0.7805 0.0
H521 H 0.58856 0.91161 0.10025 0.0
C522 C 0.52124 0.96803 0.17392 0.0
C523 C 0.50448 0.97859 0.12089 0.0
C524 C 0.50381 0.97783 0.01554 0.0
C525 C 0.5201 0.96749 0.96355 0.0
C526 C 0.53664 0.95754 0.01777 0.0
C527 C 0.53746 0.95765 0.12045 0.0
C528 C 0.55576 0.94364 0.15746 0.0
C529 C 0.5849 0.97313 0.24776 0.0
C530 C 0.53528 0.90984 0.18919 0.0
C531 C 0.56426 0.93476 0.05837 0.0
C532 C 0.5531 0.94339 -0.02051 0.0
C533 C 0.5566 0.93657 0.87927 0.0
C534 C 0.57183 0.92029 0.85848 0.0
C535 C 0.58335 0.91102 0.93736 0.0
C536 C 0.57989 0.91861 0.03906 0.0
H537 H 0.66191 0.2585 0.71089 0.0
H538 H 0.66212 0.31238 0.48314 0.0
H539 H 0.605 0.27435 0.43035 0.0
H540 H 0.5777 0.1676 0.58215 0.0
H541 H 0.57308 0.16931 0.71268 0.0
H542 H 0.61043 0.18427 0.69067 0.0
H543 H 0.63476 0.245 0.83295 0.0
H544 H 0.59788 0.2313 0.85281 0.0
H545 H 0.62036 0.27172 0.81745 0.0
H546 H 0.55442 0.25492 0.46285 0.0
H547 H 0.51545 0.24848 0.5578 0.0
H548 H 0.54685 0.20787 0.76735 0.0
C549 C 0.65 0.26046 0.64439 0.0
C550 C 0.66637 0.28919 0.60382 0.0
C551 C 0.64996 0.29093 0.51695 0.0
C552 C 0.61736 0.26943 0.48679 0.0
C553 C 0.60175 0.24587 0.54266 0.0
C554 C 0.6176 0.24026 0.61749 0.0
C555 C 0.59775 0.22172 0.68632 0.0
C556 C 0.58921 0.18343 0.66665 0.0
C557 C 0.61363 0.24378 0.80404 0.0
C558 C 0.56966 0.22109 0.6459 0.0
C559 C 0.57178 0.23415 0.56115 0.0
C560 C 0.5518 0.24319 0.52597 0.0
C561 C 0.52998 0.23986 0.58058 0.0
C562 C 0.52855 0.22759 0.66869 0.0
C563 C 0.54748 0.21661 0.69833 0.0
H564 H 0.34954 0.55144 0.29409 0.0
H565 H 0.36027 0.46713 0.31939 0.0
H566 H 0.3931 0.48132 0.20052 0.0
H567 H 0.3301 0.53145 0.0539 0.0
H568 H 0.35133 0.57462 0.03166 0.0
H569 H 0.34368 0.57214 0.15554 0.0
H570 H 0.40256 0.61748 0.24763 0.0
H571 H 0.41013 0.61961 0.12178 0.0
H572 H 0.42953 0.60846 0.20951 0.0
H573 H 0.40753 0.48769 0.04404 0.0
H574 H 0.39061 0.47527 0.85407 0.0
H575 H 0.3683 0.55267 0.90911 0.0
C576 C 0.35965 0.53684 0.27574 0.0
C577 C 0.35198 0.5078 0.31344 0.0
C578 C 0.36522 0.48889 0.28902 0.0
C579 C 0.38475 0.49757 0.22372 0.0
C580 C 0.39051 0.52493 0.18156 0.0
C581 C 0.37837 0.54452 0.20697 0.0
C582 C 0.38037 0.56498 0.13049 0.0
C583 C 0.3495 0.56037 0.09047 0.0
C584 C 0.40725 0.605 0.18032 0.0
C585 C 0.38822 0.547 0.04635 0.0
C586 C 0.39767 0.52742 0.08276 0.0
C587 C 0.40079 0.5034 0.01511 0.0
C588 C 0.3908 0.49612 0.90722 0.0
C589 C 0.37737 0.51236 0.86937 0.0
C590 C 0.37826 0.53987 0.93864 0.0
H591 H 0.8693 0.14118 0.00114 0.0
H592 H 0.77647 0.10807 0.00994 0.0
H593 H 0.77221 0.13056 0.8619 0.0
H594 H 0.8938 0.22175 -0.02333 0.0
H595 H 0.91709 0.22338 0.88874 0.0
H596 H 0.91077 0.19703 -0.02342 0.0
H597 H 0.88673 0.13817 0.82359 0.0
H598 H 0.89634 0.16524 0.73702 0.0
H599 H 0.85706 0.12647 0.71128 0.0
H600 H 0.78083 0.16211 0.72409 0.0
H601 H 0.79643 0.18522 0.5768 0.0
H602 H 0.88729 0.20788 0.68871 0.0
C603 C 0.84751 0.13702 0.96822 0.0
C604 C 0.82348 0.1236 0.01683 0.0
C605 C 0.7952 0.11847 -0.02691 0.0
C606 C 0.79279 0.13175 0.89049 0.0
C607 C 0.81877 0.14944 0.85363 0.0
C608 C 0.84514 0.15092 0.88864 0.0
C609 C 0.87057 0.17299 0.84161 0.0
C610 C 0.89976 0.20572 0.92599 0.0
C611 C 0.8781 0.14932 0.77434 0.0
C612 C 0.85462 0.18421 0.77536 0.0
C613 C 0.82468 0.17027 0.78254 0.0
C614 C 0.80422 0.17324 0.71781 0.0
C615 C 0.81347 0.18699 0.6355 0.0
C616 C 0.84271 0.19712 0.62053 0.0
C617 C 0.86469 0.19988 0.69838 0.0
H618 H 0.62693 0.74161 0.1681 0.0
H619 H 0.64441 0.84606 0.29641 0.0
H620 H 0.67039 0.86672 0.16111 0.0
H621 H 0.69851 0.7739 0.11313 0.0
H622 H 0.68344 0.73838 -0.00791 0.0
H623 H 0.66389 0.72995 0.09377 0.0
H624 H 0.61234 0.70873 0.96602 0.0
H625 H 0.63114 0.71538 0.86239 0.0
H626 H 0.61222 0.73721 0.8926 0.0
H627 H 0.69939 0.87817 0.02533 0.0
H628 H 0.71592 0.87439 0.86393 0.0
H629 H 0.67794 0.76193 0.82063 0.0
C630 C 0.63525 0.76845 0.16593 0.0
C631 C 0.63391 0.79229 0.24395 0.0
C632 C 0.64515 0.82721 0.23785 0.0
C633 C 0.66042 0.83945 0.16225 0.0
C634 C 0.66367 0.8162 0.0924 0.0
C635 C 0.65046 0.78107 0.09099 0.0
C636 C 0.65684 0.76139 0.00636 0.0
C637 C 0.67685 0.75025 0.05422 0.0
C638 C 0.62633 0.72876 0.92711 0.0
C639 C 0.67498 0.79072 0.95836 0.0
C640 C 0.67952 0.82244 0.01151 0.0
C641 C 0.69554 0.85334 -0.01807 0.0
C642 C 0.70497 0.85093 0.89042 0.0
C643 C 0.69735 0.81756 0.82814 0.0
C644 C 0.68388 0.78772 0.86608 0.0
H645 H 0.85985 0.54246 0.95487 0.0
H646 H 0.79431 0.42733 0.88228 0.0
H647 H 0.76325 0.42548 0.73004 0.0
H648 H 0.80388 0.5601 0.79598 0.0
H649 H 0.83461 0.58898 0.74403 0.0
H650 H 0.84356 0.58807 0.87617 0.0
H651 H 0.88221 0.57314 0.83461 0.0
H652 H 0.87396 0.57516 0.70491 0.0
H653 H 0.86914 0.53515 0.72326 0.0
H654 H 0.74267 0.43112 0.57784 0.0
H655 H 0.75241 0.43113 0.40602 0.0
H656 H 0.83678 0.53886 0.54352 0.0
C657 C 0.83829 0.51722 0.90817 0.0
C658 C 0.82818 0.48548 0.93431 0.0
C659 C 0.80142 0.4524 0.86764 0.0
C660 C 0.78313 0.45121 0.78199 0.0
C661 C 0.79283 0.48296 0.75896 0.0
C662 C 0.8209 0.51513 0.8169 0.0
C663 C 0.83229 0.54117 0.75398 0.0
C664 C 0.82832 0.57135 0.79497 0.0
C665 C 0.86637 0.55697 0.75407 0.0
C666 C 0.80929 0.5161 0.64745 0.0
C667 C 0.78428 0.4848 0.65648 0.0
C668 C 0.76211 0.45533 0.56936 0.0
C669 C 0.76798 0.45537 0.47207 0.0
C670 C 0.79609 0.4844 0.46443 0.0
C671 C 0.8155 0.51619 0.55006 0.0
H672 H 0.28801 0.85076 0.24663 0.0
H673 H 0.34545 0.96699 0.32067 0.0
H674 H 0.37485 0.9724 0.4869 0.0
H675 H 0.27659 0.84882 0.48848 0.0
H676 H 0.27742 0.8105 0.48658 0.0
H677 H 0.2666 0.81663 0.36558 0.0
H678 H 0.30997 0.81247 0.30971 0.0
H679 H 0.32171 0.80871 0.43501 0.0
H680 H 0.34963 0.84378 0.38923 0.0
H681 H 0.39568 0.96695 0.64648 0.0
H682 H 0.39153 0.95433 0.81414 0.0
H683 H 0.31704 0.84287 0.64852 0.0
C684 C 0.30699 0.87735 0.29746 0.0
C685 C 0.31522 0.90835 0.2691 0.0
C686 C 0.33942 0.94274 0.33921 0.0
C687 C 0.3567 0.94611 0.43278 0.0
C688 C 0.34911 0.91493 0.45608 0.0
C689 C 0.32401 0.88128 0.39245 0.0
C690 C 0.31667 0.85287 0.44526 0.0
C691 C 0.28233 0.83103 0.44664 0.0
C692 C 0.32501 0.828 0.39166 0.0
C693 C 0.33891 0.87664 0.55349 0.0
C694 C 0.35934 0.9118 0.55462 0.0
C695 C 0.38012 0.93957 0.64687 0.0
C696 C 0.37774 0.93213 0.74181 0.0
C697 C 0.3538 0.89773 0.74255 0.0
C698 C 0.33576 0.86913 0.64816 0.0
H699 H 0.42029 0.0627 0.72977 0.0
H700 H 0.3667 0.10447 0.79804 0.0
H701 H 0.37271 0.12547 0.64267 0.0
H702 H 0.47453 0.12769 0.6905 0.0
H703 H 0.48253 0.10979 0.5778 0.0
H704 H 0.46421 0.08265 0.65909 0.0
H705 H 0.41738 1.03267 0.5118 0.0
H706 H 0.43418 0.05536 0.41941 0.0
H707 H 0.39567 0.04155 0.42503 0.0
H708 H 0.39811 0.15756 0.51668 0.0
H709 H 0.4272 0.1817 0.38938 0.0
H710 H 0.46685 0.12186 0.41618 0.0
C711 C 0.40773 0.07358 0.70645 0.0
C712 C 0.39305 0.08203 0.77399 0.0
C713 C 0.3776 0.09737 0.74512 0.0
C714 C 0.38136 0.10989 0.65808 0.0
C715 C 0.39968 0.10553 0.60031 0.0
C716 C 0.41121 0.08596 0.61974 0.0
C717 C 0.43333 0.08887 0.55559 0.0
C718 C 0.46552 0.10317 0.6248 0.0
C719 C 0.41926 0.05248 0.47293 0.0
C720 C 0.43463 0.11568 0.50492 0.0
C721 C 0.41476 0.12459 0.52977 0.0
C722 C 0.41317 0.15008 0.49448 0.0
C723 C 0.43038 0.16441 0.42452 0.0
C724 C 0.44901 0.15336 0.39259 0.0
C725 C 0.45261 0.13061 0.43896 0.0
loop_
_geom_bond_atom_site_label_1
_geom_bond_atom_site_label_2
_geom_bond_distance
_geom_bond_site_symmetry_2
_ccdc_geom_bond_type
Dy0 O3 2.307 . S
Dy0 O5 2.395 . S
Dy0 O6 2.379 1_556 S
Dy0 O8 2.339 1_556 S
Dy0 O10 2.298 . S
Dy0 O14 2.275 . S
Dy0 C22 2.738 . S
Dy1 O4 2.298 . S
Dy1 O7 2.275 . S
Dy1 O9 2.307 . S
Dy1 O11 2.395 . S
Dy1 O12 2.379 . S
Dy1 O15 2.339 . S
Dy1 C31 2.738 . S
C2 O14 1.254 . S
C2 O15 1.257 . S
O3 Dy0 2.307 . S
O3 C13 1.266 . S
O4 Dy1 2.298 . S
O4 C13 1.236 . S
O5 Dy0 2.395 . S
O5 C22 1.255 . S
O6 Dy0 2.379 1_554 S
O6 C22 1.249 1_554 S
O7 Dy1 2.275 . S
O7 C23 1.254 1_556 S
O8 Dy0 2.339 1_554 S
O8 C23 1.257 . S
O9 Dy1 2.307 . S
O9 C24 1.266 . S
O10 Dy0 2.298 . S
O10 C24 1.236 . S
O11 Dy1 2.395 . S
O11 C31 1.255 . S
O12 Dy1 2.379 . S
O12 C31 1.249 . S
C13 O3 1.266 . S
C13 O4 1.236 . S
O14 Dy0 2.275 . S
O14 C2 1.254 . S
O15 Dy1 2.339 . S
O15 C2 1.257 . S
C16 C19 1.344 . S
C16 C20 1.328 1_556 S
C16 C22 1.516 . S
C17 C18 1.304 . S
C17 C21 1.323 1_556 S
C18 C17 1.304 . S
C18 C19 1.371 . S
C18 H32 0.930 . S
C19 C16 1.344 . S
C19 C18 1.371 . S
C19 H33 0.931 . S
C20 C16 1.328 1_554 S
C20 C21 1.433 . S
C20 H34 0.931 . S
C21 C17 1.323 1_554 S
C21 C20 1.433 . S
C21 H35 0.933 . S
C22 Dy0 2.738 . S
C22 O5 1.255 . S
C22 O6 1.249 1_556 S
C22 C16 1.516 . S
C23 O7 1.254 1_554 S
C23 O8 1.257 . S
C24 O9 1.266 . S
C24 O10 1.236 . S
C25 C28 1.344 . S
C25 C29 1.328 . S
C25 C31 1.516 . S
C26 C27 1.304 . S
C26 C30 1.323 . S
C27 C26 1.304 . S
C27 C28 1.371 . S
C27 H36 0.930 . S
C28 C25 1.344 . S
C28 C27 1.371 . S
C28 H37 0.931 . S
C29 C25 1.328 . S
C29 C30 1.433 . S
C29 H38 0.931 . S
C30 C26 1.323 . S
C30 C29 1.433 . S
C30 H39 0.933 . S
C31 Dy1 2.738 . S
C31 O11 1.255 . S
C31 O12 1.249 . S
C31 C25 1.516 . S
H32 C18 0.930 . S
H33 C19 0.931 . S
H34 C20 0.931 . S
H35 C21 0.933 . S
H36 C27 0.930 . S
H37 C28 0.931 . S
H38 C29 0.931 . S
H39 C30 0.933 . S
Dy40 O43 2.307 . S
Dy40 O45 2.395 1_554 S
Dy40 O46 2.379 . S
Dy40 O48 2.339 . S
Dy40 O50 2.298 . S
Dy40 O54 2.275 1_554 S
Dy40 C62 2.738 1_554 S
Dy41 O44 2.298 . S
Dy41 O47 2.275 . S
Dy41 O49 2.307 . S
Dy41 O51 2.395 . S
Dy41 O52 2.379 . S
Dy41 O55 2.339 1_554 S
Dy41 C71 2.738 . S
C42 O54 1.254 . S
C42 O55 1.257 . S
O43 Dy40 2.307 . S
O43 C53 1.266 . S
O44 Dy41 2.298 . S
O44 C53 1.236 . S
O45 Dy40 2.395 1_556 S
O45 C62 1.255 . S
O46 Dy40 2.379 . S
O46 C62 1.249 1_554 S
O47 Dy41 2.275 . S
O47 C63 1.254 . S
O48 Dy40 2.339 . S
O48 C63 1.257 . S
O49 Dy41 2.307 . S
O49 C64 1.266 . S
O50 Dy40 2.298 . S
O50 C64 1.236 . S
O51 Dy41 2.395 . S
O51 C71 1.255 . S
O52 Dy41 2.379 . S
O52 C71 1.249 . S
C53 O43 1.266 . S
C53 O44 1.236 . S
O54 Dy40 2.275 1_556 S
O54 C42 1.254 . S
O55 Dy41 2.339 1_556 S
O55 C42 1.257 . S
C56 C59 1.344 . S
C56 C60 1.328 1_556 S
C56 C62 1.516 . S
C57 C58 1.304 . S
C57 C61 1.323 . S
C58 C57 1.304 . S
C58 C59 1.371 . S
C58 H72 0.930 . S
C59 C56 1.344 . S
C59 C58 1.371 . S
C59 H73 0.931 . S
C60 C56 1.328 1_554 S
C60 C61 1.433 1_554 S
C60 H74 0.931 . S
C61 C57 1.323 . S
C61 C60 1.433 1_556 S
C61 H75 0.933 . S
C62 Dy40 2.738 1_556 S
C62 O45 1.255 . S
C62 O46 1.249 1_556 S
C62 C56 1.516 . S
C63 O47 1.254 . S
C63 O48 1.257 . S
C64 O49 1.266 . S
C64 O50 1.236 . S
C65 C68 1.344 . S
C65 C69 1.328 . S
C65 C71 1.516 . S
C66 C67 1.304 . S
C66 C70 1.323 . S
C67 C66 1.304 . S
C67 C68 1.371 . S
C67 H76 0.930 . S
C68 C65 1.344 . S
C68 C67 1.371 . S
C68 H77 0.931 . S
C69 C65 1.328 . S
C69 C70 1.433 . S
C69 H78 0.931 . S
C70 C66 1.323 . S
C70 C69 1.433 . S
C70 H79 0.933 . S
C71 Dy41 2.738 . S
C71 O51 1.255 . S
C71 O52 1.249 . S
C71 C65 1.516 . S
H72 C58 0.930 . S
H73 C59 0.931 . S
H74 C60 0.931 . S
H75 C61 0.933 . S
H76 C67 0.930 . S
H77 C68 0.931 . S
H78 C69 0.931 . S
H79 C70 0.933 . S
Dy80 O83 2.307 . S
Dy80 O85 2.395 1_556 S
Dy80 O86 2.379 . S
Dy80 O88 2.339 . S
Dy80 O90 2.298 . S
Dy80 O94 2.275 1_556 S
Dy80 C102 2.738 . S
Dy81 O84 2.298 . S
Dy81 O87 2.275 . S
Dy81 O89 2.307 . S
Dy81 O91 2.395 . S
Dy81 O92 2.379 . S
Dy81 O95 2.339 1_556 S
Dy81 C111 2.738 . S
C82 O94 1.254 . S
C82 O95 1.257 . S
O83 Dy80 2.307 . S
O83 C93 1.266 . S
O84 Dy81 2.298 . S
O84 C93 1.236 . S
O85 Dy80 2.395 1_554 S
O85 C102 1.255 1_554 S
O86 Dy80 2.379 . S
O86 C102 1.249 . S
O87 Dy81 2.275 . S
O87 C103 1.254 . S
O88 Dy80 2.339 . S
O88 C103 1.257 . S
O89 Dy81 2.307 . S
O89 C104 1.266 . S
O90 Dy80 2.298 . S
O90 C104 1.236 . S
O91 Dy81 2.395 . S
O91 C111 1.255 . S
O92 Dy81 2.379 . S
O92 C111 1.249 . S
C93 O83 1.266 . S
C93 O84 1.236 . S
O94 Dy80 2.275 1_554 S
O94 C82 1.254 . S
O95 Dy81 2.339 1_554 S
O95 C82 1.257 . S
C96 C99 1.344 1_556 S
C96 C100 1.328 . S
C96 C102 1.516 . S
C97 C98 1.304 . S
C97 C101 1.323 1_554 S
C98 C97 1.304 . S
C98 C99 1.371 . S
C98 H112 0.930 . S
C99 C96 1.344 1_554 S
C99 C98 1.371 . S
C99 H113 0.931 . S
C100 C96 1.328 . S
C100 C101 1.433 . S
C100 H114 0.931 . S
C101 C97 1.323 1_556 S
C101 C100 1.433 . S
C101 H115 0.933 . S
C102 Dy80 2.738 . S
C102 O85 1.255 1_556 S
C102 O86 1.249 . S
C102 C96 1.516 . S
C103 O87 1.254 . S
C103 O88 1.257 . S
C104 O89 1.266 . S
C104 O90 1.236 . S
C105 C108 1.344 . S
C105 C109 1.328 . S
C105 C111 1.516 . S
C106 C107 1.304 . S
C106 C110 1.323 . S
C107 C106 1.304 . S
C107 C108 1.371 . S
C107 H116 0.930 . S
C108 C105 1.344 . S
C108 C107 1.371 . S
C108 H117 0.931 . S
C109 C105 1.328 . S
C109 C110 1.433 . S
C109 H118 0.931 . S
C110 C106 1.323 . S
C110 C109 1.433 . S
C110 H119 0.933 . S
C111 Dy81 2.738 . S
C111 O91 1.255 . S
C111 O92 1.249 . S
C111 C105 1.516 . S
H112 C98 0.930 . S
H113 C99 0.931 . S
H114 C100 0.931 . S
H115 C101 0.933 . S
H116 C107 0.930 . S
H117 C108 0.931 . S
H118 C109 0.931 . S
H119 C110 0.933 . S
Dy120 O123 2.307 . S
Dy120 O125 2.395 . S
Dy120 O126 2.379 . S
Dy120 O128 2.339 . S
Dy120 O130 2.298 . S
Dy120 O134 2.275 1_556 S
Dy120 C142 2.738 . S
Dy121 O124 2.298 . S
Dy121 O127 2.275 1_554 S
Dy121 O129 2.307 . S
Dy121 O131 2.395 . S
Dy121 O132 2.379 . S
Dy121 O135 2.339 . S
Dy121 C151 2.738 . S
C122 O134 1.254 . S
C122 O135 1.257 . S
O123 Dy120 2.307 . S
O123 C133 1.266 1_556 S
O124 Dy121 2.298 . S
O124 C133 1.236 . S
O125 Dy120 2.395 . S
O125 C142 1.255 . S
O126 Dy120 2.379 . S
O126 C142 1.249 . S
O127 Dy121 2.275 1_556 S
O127 C143 1.254 . S
O128 Dy120 2.339 . S
O128 C143 1.257 . S
O129 Dy121 2.307 . S
O129 C144 1.266 1_554 S
O130 Dy120 2.298 . S
O130 C144 1.236 . S
O131 Dy121 2.395 . S
O131 C151 1.255 . S
O132 Dy121 2.379 . S
O132 C151 1.249 . S
C133 O123 1.266 1_554 S
C133 O124 1.236 . S
O134 Dy120 2.275 1_554 S
O134 C122 1.254 . S
O135 Dy121 2.339 . S
O135 C122 1.257 . S
C136 C139 1.344 . S
C136 C140 1.328 . S
C136 C142 1.516 . S
C137 C138 1.304 . S
C137 C141 1.323 . S
C138 C137 1.304 . S
C138 C139 1.371 . S
C138 H152 0.930 . S
C139 C136 1.344 . S
C139 C138 1.371 . S
C139 H153 0.931 1_556 S
C140 C136 1.328 . S
C140 C141 1.433 . S
C140 H154 0.931 . S
C141 C137 1.323 . S
C141 C140 1.433 . S
C141 H155 0.933 . S
C142 Dy120 2.738 . S
C142 O125 1.255 . S
C142 O126 1.249 . S
C142 C136 1.516 . S
C143 O127 1.254 . S
C143 O128 1.257 . S
C144 O129 1.266 1_556 S
C144 O130 1.236 . S
C145 C148 1.344 . S
C145 C149 1.328 . S
C145 C151 1.516 . S
C146 C147 1.304 . S
C146 C150 1.323 . S
C147 C146 1.304 . S
C147 C148 1.371 . S
C147 H156 0.930 . S
C148 C145 1.344 . S
C148 C147 1.371 . S
C148 H157 0.931 1_554 S
C149 C145 1.328 . S
C149 C150 1.433 . S
C149 H158 0.931 . S
C150 C146 1.323 . S
C150 C149 1.433 . S
C150 H159 0.933 . S
C151 Dy121 2.738 . S
C151 O131 1.255 . S
C151 O132 1.249 . S
C151 C145 1.516 . S
H152 C138 0.930 . S
H153 C139 0.931 1_554 S
H154 C140 0.931 . S
H155 C141 0.933 . S
H156 C147 0.930 . S
H157 C148 0.931 1_556 S
H158 C149 0.931 . S
H159 C150 0.933 . S
Dy160 O163 2.307 . S
Dy160 O165 2.395 . S
Dy160 O166 2.379 . S
Dy160 O168 2.339 . S
Dy160 O170 2.298 . S
Dy160 O174 2.275 1_554 S
Dy160 C182 2.738 . S
Dy161 O164 2.298 . S
Dy161 O167 2.275 1_556 S
Dy161 O169 2.307 . S
Dy161 O171 2.395 . S
Dy161 O172 2.379 . S
Dy161 O175 2.339 . S
Dy161 C191 2.738 . S
C162 O174 1.254 . S
C162 O175 1.257 . S
O163 Dy160 2.307 . S
O163 C173 1.266 1_554 S
O164 Dy161 2.298 . S
O164 C173 1.236 . S
O165 Dy160 2.395 . S
O165 C182 1.255 . S
O166 Dy160 2.379 . S
O166 C182 1.249 . S
O167 Dy161 2.275 1_554 S
O167 C183 1.254 . S
O168 Dy160 2.339 . S
O168 C183 1.257 . S
O169 Dy161 2.307 . S
O169 C184 1.266 1_556 S
O170 Dy160 2.298 . S
O170 C184 1.236 . S
O171 Dy161 2.395 . S
O171 C191 1.255 . S
O172 Dy161 2.379 . S
O172 C191 1.249 . S
C173 O163 1.266 1_556 S
C173 O164 1.236 . S
O174 Dy160 2.275 1_556 S
O174 C162 1.254 . S
O175 Dy161 2.339 . S
O175 C162 1.257 . S
C176 C179 1.344 . S
C176 C180 1.328 . S
C176 C182 1.516 . S
C177 C178 1.304 . S
C177 C181 1.323 . S
C178 C177 1.304 . S
C178 C179 1.371 . S
C178 H192 0.930 1_554 S
C179 C176 1.344 . S
C179 C178 1.371 . S
C179 H193 0.931 1_554 S
C180 C176 1.328 . S
C180 C181 1.433 . S
C180 H194 0.931 . S
C181 C177 1.323 . S
C181 C180 1.433 . S
C181 H195 0.933 . S
C182 Dy160 2.738 . S
C182 O165 1.255 . S
C182 O166 1.249 . S
C182 C176 1.516 . S
C183 O167 1.254 . S
C183 O168 1.257 . S
C184 O169 1.266 1_554 S
C184 O170 1.236 . S
C185 C188 1.344 . S
C185 C189 1.328 . S
C185 C191 1.516 . S
C186 C187 1.304 . S
C186 C190 1.323 . S
C187 C186 1.304 . S
C187 C188 1.371 . S
C187 H196 0.930 1_556 S
C188 C185 1.344 . S
C188 C187 1.371 . S
C188 H197 0.931 1_556 S
C189 C185 1.328 . S
C189 C190 1.433 . S
C189 H198 0.931 . S
C190 C186 1.323 . S
C190 C189 1.433 . S
C190 H199 0.933 . S
C191 Dy161 2.738 . S
C191 O171 1.255 . S
C191 O172 1.249 . S
C191 C185 1.516 . S
H192 C178 0.930 1_556 S
H193 C179 0.931 1_556 S
H194 C180 0.931 . S
H195 C181 0.933 . S
H196 C187 0.930 1_554 S
H197 C188 0.931 1_554 S
H198 C189 0.931 . S
H199 C190 0.933 . S
Dy200 O203 2.307 . S
Dy200 O205 2.395 1_554 S
Dy200 O206 2.379 . S
Dy200 O208 2.339 . S
Dy200 O210 2.298 . S
Dy200 O214 2.275 1_554 S
Dy200 C222 2.738 1_554 S
Dy201 O204 2.298 1_565 S
Dy201 O207 2.275 1_566 S
Dy201 O209 2.303 . S
Dy201 O211 2.395 1_556 S
Dy201 O212 2.379 . S
Dy201 O215 2.339 . S
Dy201 C231 2.738 1_556 S
C202 O214 1.254 . S
C202 O215 1.257 1_545 S
O203 Dy200 2.307 . S
O203 C213 1.266 . S
O204 Dy201 2.298 1_545 S
O204 C213 1.236 1_556 S
O205 Dy200 2.395 1_556 S
O205 C222 1.255 . S
O206 Dy200 2.379 . S
O206 C222 1.249 1_554 S
O207 Dy201 2.275 1_544 S
O207 C223 1.254 . S
O208 Dy200 2.339 . S
O208 C223 1.257 . S
O209 Dy201 2.303 . S
O209 C224 1.261 1_565 S
O210 Dy200 2.298 . S
O210 C224 1.236 1_554 S
O211 Dy201 2.395 1_554 S
O211 C231 1.255 . S
O212 Dy201 2.379 . S
O212 C231 1.249 1_556 S
C213 O203 1.266 . S
C213 O204 1.236 1_554 S
O214 Dy200 2.275 1_556 S
O214 C202 1.254 . S
O215 Dy201 2.339 . S
O215 C202 1.257 1_565 S
C216 C219 1.344 . S
C216 C220 1.328 1_556 S
C216 C222 1.516 . S
C217 C218 1.304 . S
C217 C221 1.323 1_556 S
C218 C217 1.304 . S
C218 C219 1.371 . S
C218 H232 0.930 . S
C219 C216 1.344 . S
C219 C218 1.371 . S
C219 H233 0.931 . S
C220 C216 1.328 1_554 S
C220 C221 1.433 . S
C220 H234 0.931 . S
C221 C217 1.323 1_554 S
C221 C220 1.433 . S
C221 H235 0.933 . S
C222 Dy200 2.738 1_556 S
C222 O205 1.255 . S
C222 O206 1.249 1_556 S
C222 C216 1.516 . S
C223 O207 1.254 . S
C223 O208 1.257 . S
C224 O209 1.261 1_545 S
C224 O210 1.236 1_556 S
C225 C228 1.344 . S
C225 C229 1.328 1_554 S
C225 C231 1.516 . S
C226 C227 1.304 . S
C226 C230 1.323 1_554 S
C227 C226 1.304 . S
C227 C228 1.371 . S
C227 H236 0.930 . S
C228 C225 1.344 . S
C228 C227 1.371 . S
C228 H237 0.931 . S
C229 C225 1.328 1_556 S
C229 C230 1.433 . S
C229 H238 0.931 . S
C230 C226 1.323 1_556 S
C230 C229 1.433 . S
C230 H239 0.933 . S
C231 Dy201 2.738 1_554 S
C231 O211 1.255 . S
C231 O212 1.249 1_554 S
C231 C225 1.516 . S
H232 C218 0.930 . S
H233 C219 0.931 . S
H234 C220 0.931 . S
H235 C221 0.933 . S
H236 C227 0.930 . S
H237 C228 0.931 . S
H238 C229 0.931 . S
H239 C230 0.933 . S
H240 C252 0.930 . S
H241 C254 0.930 . S
H242 C255 0.930 . S
H243 C259 0.959 . S
H244 C259 0.959 . S
H245 C259 0.961 . S
H246 C260 0.960 . S
H247 C260 0.961 . S
H248 C260 0.959 . S
H249 C263 0.929 . S
H250 C264 0.931 . S
H251 C266 0.930 . S
C252 H240 0.930 . S
C252 C253 1.399 . S
C252 C257 1.399 . S
C253 C252 1.399 . S
C253 C254 1.376 . S
C254 H241 0.930 . S
C254 C253 1.376 . S
C254 C255 1.388 . S
C255 H242 0.930 . S
C255 C254 1.388 . S
C255 C256 1.390 . S
C256 C255 1.390 . S
C256 C257 1.394 . S
C256 C262 1.465 . S
C257 C252 1.399 . S
C257 C256 1.394 . S
C257 C258 1.516 . S
C258 C257 1.516 . S
C258 C259 1.502 . S
C258 C260 1.561 . S
C258 C261 1.526 . S
C259 H243 0.959 . S
C259 H244 0.959 . S
C259 H245 0.961 . S
C259 C258 1.502 . S
C260 H246 0.960 . S
C260 H247 0.961 . S
C260 H248 0.959 . S
C260 C258 1.561 . S
C261 C258 1.526 . S
C261 C262 1.396 . S
C261 C266 1.390 . S
C262 C256 1.465 . S
C262 C261 1.396 . S
C262 C263 1.399 . S
C263 H249 0.929 . S
C263 C262 1.399 . S
C263 C264 1.385 . S
C264 H250 0.931 . S
C264 C263 1.385 . S
C264 C265 1.389 . S
C265 C264 1.389 . S
C265 C266 1.387 . S
C266 H251 0.930 . S
C266 C261 1.390 . S
C266 C265 1.387 . S
H267 C279 0.930 . S
H268 C281 0.930 . S
H269 C282 0.930 . S
H270 C286 0.959 . S
H271 C286 0.959 . S
H272 C286 0.961 . S
H273 C287 0.960 . S
H274 C287 0.961 . S
H275 C287 0.959 . S
H276 C290 0.929 . S
H277 C291 0.931 . S
H278 C293 0.930 . S
C279 H267 0.930 . S
C279 C280 1.399 . S
C279 C284 1.399 . S
C280 C279 1.399 . S
C280 C281 1.376 . S
C281 H268 0.930 . S
C281 C280 1.376 . S
C281 C282 1.388 . S
C282 H269 0.930 . S
C282 C281 1.388 . S
C282 C283 1.390 . S
C283 C282 1.390 . S
C283 C284 1.394 . S
C283 C289 1.465 . S
C284 C279 1.399 . S
C284 C283 1.394 . S
C284 C285 1.516 . S
C285 C284 1.516 . S
C285 C286 1.502 . S
C285 C287 1.561 . S
C285 C288 1.526 . S
C286 H270 0.959 . S
C286 H271 0.959 . S
C286 H272 0.961 . S
C286 C285 1.502 . S
C287 H273 0.960 . S
C287 H274 0.961 . S
C287 H275 0.959 . S
C287 C285 1.561 . S
C288 C285 1.526 . S
C288 C289 1.396 . S
C288 C293 1.390 . S
C289 C283 1.465 . S
C289 C288 1.396 . S
C289 C290 1.399 . S
C290 H276 0.929 . S
C290 C289 1.399 . S
C290 C291 1.385 . S
C291 H277 0.931 . S
C291 C290 1.385 . S
C291 C292 1.389 . S
C292 C291 1.389 . S
C292 C293 1.387 . S
C293 H278 0.930 . S
C293 C288 1.390 . S
C293 C292 1.387 . S
H294 C306 0.930 . S
H295 C308 0.930 . S
H296 C309 0.930 . S
H297 C313 0.959 . S
H298 C313 0.959 . S
H299 C313 0.961 . S
H300 C314 0.960 . S
H301 C314 0.961 . S
H302 C314 0.959 . S
H303 C317 0.929 . S
H304 C318 0.931 . S
H305 C320 0.930 . S
C306 H294 0.930 . S
C306 C307 1.399 1_565 S
C306 C311 1.399 . S
C307 C306 1.399 1_545 S
C307 C308 1.376 . S
C308 H295 0.930 . S
C308 C307 1.376 . S
C308 C309 1.388 . S
C309 H296 0.930 . S
C309 C308 1.388 . S
C309 C310 1.390 1_545 S
C310 C309 1.390 1_565 S
C310 C311 1.394 . S
C310 C316 1.465 . S
C311 C306 1.399 . S
C311 C310 1.394 . S
C311 C312 1.516 . S
C312 C311 1.516 . S
C312 C313 1.502 . S
C312 C314 1.561 . S
C312 C315 1.526 . S
C313 H297 0.959 . S
C313 H298 0.959 . S
C313 H299 0.961 . S
C313 C312 1.502 . S
C314 H300 0.960 . S
C314 H301 0.961 . S
C314 H302 0.959 . S
C314 C312 1.561 . S
C315 C312 1.526 . S
C315 C316 1.396 . S
C315 C320 1.390 . S
C316 C310 1.465 . S
C316 C315 1.396 . S
C316 C317 1.399 . S
C317 H303 0.929 . S
C317 C316 1.399 . S
C317 C318 1.385 . S
C318 H304 0.931 . S
C318 C317 1.385 . S
C318 C319 1.389 . S
C319 C318 1.389 . S
C319 C320 1.387 . S
C320 H305 0.930 . S
C320 C315 1.390 . S
C320 C319 1.387 . S
H321 C333 0.930 . S
H322 C335 0.930 . S
H323 C336 0.930 . S
H324 C340 0.959 . S
H325 C340 0.959 . S
H326 C340 0.961 . S
H327 C341 0.960 . S
H328 C341 0.961 . S
H329 C341 0.959 . S
H330 C344 0.929 . S
H331 C345 0.931 . S
H332 C347 0.930 . S
C333 H321 0.930 . S
C333 C334 1.399 . S
C333 C338 1.399 . S
C334 C333 1.399 . S
C334 C335 1.376 . S
C335 H322 0.930 . S
C335 C334 1.376 . S
C335 C336 1.388 . S
C336 H323 0.930 . S
C336 C335 1.388 . S
C336 C337 1.390 . S
C337 C336 1.390 . S
C337 C338 1.394 . S
C337 C343 1.465 . S
C338 C333 1.399 . S
C338 C337 1.394 . S
C338 C339 1.516 . S
C339 C338 1.516 . S
C339 C340 1.502 . S
C339 C341 1.561 . S
C339 C342 1.526 . S
C340 H324 0.959 . S
C340 H325 0.959 . S
C340 H326 0.961 . S
C340 C339 1.502 . S
C341 H327 0.960 . S
C341 H328 0.961 . S
C341 H329 0.959 . S
C341 C339 1.561 . S
C342 C339 1.526 . S
C342 C343 1.396 . S
C342 C347 1.390 . S
C343 C337 1.465 . S
C343 C342 1.396 . S
C343 C344 1.399 . S
C344 H330 0.929 . S
C344 C343 1.399 . S
C344 C345 1.385 . S
C345 H331 0.931 . S
C345 C344 1.385 . S
C345 C346 1.389 . S
C346 C345 1.389 . S
C346 C347 1.387 . S
C347 H332 0.930 . S
C347 C342 1.390 . S
C347 C346 1.387 . S
H348 C360 0.930 . S
H349 C362 0.930 . S
H350 C363 0.930 . S
H351 C367 0.959 . S
H352 C367 0.959 1_655 S
H353 C367 0.961 . S
H354 C368 0.960 . S
H355 C368 0.961 . S
H356 C368 0.959 . S
H357 C371 0.929 . S
H358 C372 0.931 . S
H359 C374 0.930 . S
C360 H348 0.930 . S
C360 C361 1.399 . S
C360 C365 1.399 . S
C361 C360 1.399 . S
C361 C362 1.376 . S
C362 H349 0.930 . S
C362 C361 1.376 . S
C362 C363 1.388 . S
C363 H350 0.930 . S
C363 C362 1.388 . S
C363 C364 1.390 . S
C364 C363 1.390 . S
C364 C365 1.394 . S
C364 C370 1.465 . S
C365 C360 1.399 . S
C365 C364 1.394 . S
C365 C366 1.516 . S
C366 C365 1.516 . S
C366 C367 1.502 . S
C366 C368 1.561 1_455 S
C366 C369 1.523 1_455 S
C367 H351 0.959 . S
C367 H352 0.959 1_455 S
C367 H353 0.961 . S
C367 C366 1.502 . S
C368 H354 0.960 . S
C368 H355 0.961 . S
C368 H356 0.959 . S
C368 C366 1.561 1_655 S
C369 C366 1.523 1_655 S
C369 C370 1.392 1_655 S
C369 C374 1.396 . S
C370 C364 1.465 . S
C370 C369 1.392 1_455 S
C370 C371 1.399 . S
C371 H357 0.929 . S
C371 C370 1.399 . S
C371 C372 1.385 1_455 S
C372 H358 0.931 . S
C372 C371 1.385 1_655 S
C372 C373 1.389 . S
C373 C372 1.389 . S
C373 C374 1.387 . S
C374 H359 0.930 . S
C374 C369 1.396 . S
C374 C373 1.387 . S
H375 C387 0.930 . S
H376 C389 0.930 . S
H377 C390 0.930 . S
H378 C394 0.959 . S
H379 C394 0.959 . S
H380 C394 0.961 . S
H381 C395 0.960 . S
H382 C395 0.961 . S
H383 C395 0.959 . S
H384 C398 0.929 . S
H385 C399 0.931 . S
H386 C401 0.930 . S
C387 H375 0.930 . S
C387 C388 1.399 . S
C387 C392 1.399 . S
C388 C387 1.399 . S
C388 C389 1.376 . S
C389 H376 0.930 . S
C389 C388 1.376 . S
C389 C390 1.388 . S
C390 H377 0.930 . S
C390 C389 1.388 . S
C390 C391 1.390 . S
C391 C390 1.390 . S
C391 C392 1.394 . S
C391 C397 1.465 . S
C392 C387 1.399 . S
C392 C391 1.394 . S
C392 C393 1.516 . S
C393 C392 1.516 . S
C393 C394 1.502 . S
C393 C395 1.561 . S
C393 C396 1.526 . S
C394 H378 0.959 . S
C394 H379 0.959 . S
C394 H380 0.961 . S
C394 C393 1.502 . S
C395 H381 0.960 . S
C395 H382 0.961 . S
C395 H383 0.959 . S
C395 C393 1.561 . S
C396 C393 1.526 . S
C396 C397 1.396 . S
C396 C401 1.390 . S
C397 C391 1.465 . S
C397 C396 1.396 . S
C397 C398 1.399 . S
C398 H384 0.929 . S
C398 C397 1.399 . S
C398 C399 1.385 . S
C399 H385 0.931 . S
C399 C398 1.385 . S
C399 C400 1.389 . S
C400 C399 1.389 . S
C400 C401 1.387 . S
C401 H386 0.930 . S
C401 C396 1.390 . S
C401 C400 1.387 . S
H402 C414 0.930 . S
H403 C416 0.930 . S
H404 C417 0.930 . S
H405 C421 0.959 . S
H406 C421 0.959 . S
H407 C421 0.961 . S
H408 C422 0.960 . S
H409 C422 0.961 . S
H410 C422 0.959 . S
H411 C425 0.929 . S
H412 C426 0.931 . S
H413 C428 0.930 . S
C414 H402 0.930 . S
C414 C415 1.399 1_556 S
C414 C419 1.399 . S
C415 C414 1.399 1_554 S
C415 C416 1.376 . S
C416 H403 0.930 . S
C416 C415 1.376 . S
C416 C417 1.388 . S
C417 H404 0.930 . S
C417 C416 1.388 . S
C417 C418 1.390 . S
C418 C417 1.390 . S
C418 C419 1.394 1_554 S
C418 C424 1.465 . S
C419 C414 1.399 . S
C419 C418 1.394 1_556 S
C419 C420 1.516 . S
C420 C419 1.516 . S
C420 C421 1.502 . S
C420 C422 1.561 . S
C420 C423 1.526 . S
C421 H405 0.959 . S
C421 H406 0.959 . S
C421 H407 0.961 . S
C421 C420 1.502 . S
C422 H408 0.960 . S
C422 H409 0.961 . S
C422 H410 0.959 . S
C422 C420 1.561 . S
C423 C420 1.526 . S
C423 C424 1.396 1_556 S
C423 C428 1.390 . S
C424 C418 1.465 . S
C424 C423 1.396 1_554 S
C424 C425 1.399 . S
C425 H411 0.929 . S
C425 C424 1.399 . S
C425 C426 1.385 . S
C426 H412 0.931 . S
C426 C425 1.385 . S
C426 C427 1.389 . S
C427 C426 1.389 . S
C427 C428 1.387 1_554 S
C428 H413 0.930 . S
C428 C423 1.390 . S
C428 C427 1.387 1_556 S
H429 C441 0.930 1_565 S
H430 C443 0.930 1_554 S
H431 C444 0.930 1_554 S
H432 C448 0.959 . S
H433 C448 0.959 . S
H434 C448 0.961 . S
H435 C449 0.960 . S
H436 C449 0.961 . S
H437 C449 0.959 1_545 S
H438 C452 0.929 1_554 S
H439 C453 0.931 . S
H440 C455 0.930 1_565 S
C441 H429 0.930 1_545 S
C441 C442 1.399 . S
C441 C446 1.399 . S
C442 C441 1.399 . S
C442 C443 1.376 . S
C443 H430 0.930 1_556 S
C443 C442 1.376 . S
C443 C444 1.388 . S
C444 H431 0.930 1_556 S
C444 C443 1.388 . S
C444 C445 1.390 . S
C445 C444 1.390 . S
C445 C446 1.394 . S
C445 C451 1.465 . S
C446 C441 1.399 . S
C446 C445 1.394 . S
C446 C447 1.516 1_545 S
C447 C446 1.516 1_565 S
C447 C448 1.502 . S
C447 C449 1.561 . S
C447 C450 1.526 1_565 S
C448 H432 0.959 . S
C448 H433 0.959 . S
C448 H434 0.961 . S
C448 C447 1.502 . S
C449 H435 0.960 . S
C449 H436 0.961 . S
C449 H437 0.959 1_565 S
C449 C447 1.561 . S
C450 C447 1.526 1_545 S
C450 C451 1.396 . S
C450 C455 1.390 . S
C451 C445 1.465 . S
C451 C450 1.396 . S
C451 C452 1.399 . S
C452 H438 0.929 1_556 S
C452 C451 1.399 . S
C452 C453 1.385 . S
C453 H439 0.931 . S
C453 C452 1.385 . S
C453 C454 1.389 . S
C454 C453 1.389 . S
C454 C455 1.387 . S
C455 H440 0.930 1_545 S
C455 C450 1.390 . S
C455 C454 1.387 . S
H456 C468 0.930 . S
H457 C470 0.930 . S
H458 C471 0.930 . S
H459 C475 0.959 . S
H460 C475 0.959 . S
H461 C475 0.961 . S
H462 C476 0.960 . S
H463 C476 0.961 . S
H464 C476 0.959 . S
H465 C479 0.929 . S
H466 C480 0.931 . S
H467 C482 0.930 . S
C468 H456 0.930 . S
C468 C469 1.399 . S
C468 C473 1.399 . S
C469 C468 1.399 . S
C469 C470 1.376 1_556 S
C470 H457 0.930 . S
C470 C469 1.376 1_554 S
C470 C471 1.388 . S
C471 H458 0.930 . S
C471 C470 1.388 . S
C471 C472 1.390 1_554 S
C472 C471 1.390 1_556 S
C472 C473 1.394 . S
C472 C478 1.465 . S
C473 C468 1.399 . S
C473 C472 1.394 . S
C473 C474 1.516 . S
C474 C473 1.516 . S
C474 C475 1.502 . S
C474 C476 1.561 . S
C474 C477 1.526 . S
C475 H459 0.959 . S
C475 H460 0.959 . S
C475 H461 0.961 . S
C475 C474 1.502 . S
C476 H462 0.960 . S
C476 H463 0.961 . S
C476 H464 0.959 . S
C476 C474 1.561 . S
C477 C474 1.526 . S
C477 C478 1.396 . S
C477 C482 1.390 . S
C478 C472 1.465 . S
C478 C477 1.396 . S
C478 C479 1.399 1_556 S
C479 H465 0.929 . S
C479 C478 1.399 1_554 S
C479 C480 1.385 . S
C480 H466 0.931 . S
C480 C479 1.385 . S
C480 C481 1.389 1_554 S
C481 C480 1.389 1_556 S
C481 C482 1.387 . S
C482 H467 0.930 . S
C482 C477 1.390 . S
C482 C481 1.387 . S
H483 C495 0.930 . S
H484 C497 0.930 . S
H485 C498 0.930 . S
H486 C502 0.959 1_554 S
H487 C502 0.959 . S
H488 C502 0.961 . S
H489 C503 0.960 . S
H490 C503 0.961 . S
H491 C503 0.959 . S
H492 C506 0.929 . S
H493 C507 0.931 . S
H494 C509 0.930 . S
C495 H483 0.930 . S
C495 C496 1.399 . S
C495 C500 1.399 . S
C496 C495 1.399 . S
C496 C497 1.376 1_556 S
C497 H484 0.930 . S
C497 C496 1.376 1_554 S
C497 C498 1.388 . S
C498 H485 0.930 . S
C498 C497 1.388 . S
C498 C499 1.390 . S
C499 C498 1.390 . S
C499 C500 1.394 1_554 S
C499 C505 1.465 . S
C500 C495 1.399 . S
C500 C499 1.394 1_556 S
C500 C501 1.516 . S
C501 C500 1.516 . S
C501 C502 1.502 . S
C501 C503 1.561 . S
C501 C504 1.526 . S
C502 H486 0.959 1_556 S
C502 H487 0.959 . S
C502 H488 0.961 . S
C502 C501 1.502 . S
C503 H489 0.960 . S
C503 H490 0.961 . S
C503 H491 0.959 . S
C503 C501 1.561 . S
C504 C501 1.526 . S
C504 C505 1.396 1_556 S
C504 C509 1.390 . S
C505 C499 1.465 . S
C505 C504 1.396 1_554 S
C505 C506 1.399 . S
C506 H492 0.929 . S
C506 C505 1.399 . S
C506 C507 1.385 . S
C507 H493 0.931 . S
C507 C506 1.385 . S
C507 C508 1.389 . S
C508 C507 1.389 . S
C508 C509 1.387 1_554 S
C509 H494 0.930 . S
C509 C504 1.390 . S
C509 C508 1.387 1_556 S
H510 C522 0.930 . S
H511 C524 0.930 1_556 S
H512 C525 0.930 . S
H513 C529 0.959 . S
H514 C529 0.959 . S
H515 C529 0.961 . S
H516 C530 0.960 . S
H517 C530 0.961 . S
H518 C530 0.959 . S
H519 C533 0.929 . S
H520 C534 0.931 . S
H521 C536 0.930 . S
C522 H510 0.930 . S
C522 C523 1.399 . S
C522 C527 1.399 . S
C523 C522 1.399 . S
C523 C524 1.376 . S
C524 H511 0.930 1_554 S
C524 C523 1.376 . S
C524 C525 1.388 1_554 S
C525 H512 0.930 . S
C525 C524 1.388 1_556 S
C525 C526 1.390 1_556 S
C526 C525 1.390 1_554 S
C526 C527 1.394 . S
C526 C532 1.465 . S
C527 C522 1.399 . S
C527 C526 1.394 . S
C527 C528 1.516 . S
C528 C527 1.516 . S
C528 C529 1.502 . S
C528 C530 1.561 . S
C528 C531 1.526 . S
C529 H513 0.959 . S
C529 H514 0.959 . S
C529 H515 0.961 . S
C529 C528 1.502 . S
C530 H516 0.960 . S
C530 H517 0.961 . S
C530 H518 0.959 . S
C530 C528 1.561 . S
C531 C528 1.526 . S
C531 C532 1.396 . S
C531 C536 1.390 . S
C532 C526 1.465 . S
C532 C531 1.396 . S
C532 C533 1.399 1_554 S
C533 H519 0.929 . S
C533 C532 1.399 1_556 S
C533 C534 1.385 . S
C534 H520 0.931 . S
C534 C533 1.385 . S
C534 C535 1.389 1_556 S
C535 C534 1.389 1_554 S
C535 C536 1.387 . S
C536 H521 0.930 . S
C536 C531 1.390 . S
C536 C535 1.387 . S
H537 C549 0.930 . S
H538 C551 0.930 . S
H539 C552 0.930 . S
H540 C556 0.959 . S
H541 C556 0.959 . S
H542 C556 0.961 . S
H543 C557 0.960 . S
H544 C557 0.961 . S
H545 C557 0.959 . S
H546 C560 0.929 . S
H547 C561 0.931 . S
H548 C563 0.930 1_554 S
C549 H537 0.930 . S
C549 C550 1.399 . S
C549 C554 1.399 . S
C550 C549 1.399 . S
C550 C551 1.376 . S
C551 H538 0.930 . S
C551 C550 1.376 . S
C551 C552 1.388 . S
C552 H539 0.930 . S
C552 C551 1.388 . S
C552 C553 1.390 . S
C553 C552 1.390 . S
C553 C554 1.394 . S
C553 C559 1.465 . S
C554 C549 1.399 . S
C554 C553 1.394 . S
C554 C555 1.516 . S
C555 C554 1.516 . S
C555 C556 1.502 1_556 S
C555 C557 1.561 1_556 S
C555 C558 1.526 . S
C556 H540 0.959 . S
C556 H541 0.959 . S
C556 H542 0.961 . S
C556 C555 1.502 1_554 S
C557 H543 0.960 . S
C557 H544 0.961 . S
C557 H545 0.959 . S
C557 C555 1.561 1_554 S
C558 C555 1.526 . S
C558 C559 1.396 . S
C558 C563 1.390 . S
C559 C553 1.465 . S
C559 C558 1.396 . S
C559 C560 1.399 . S
C560 H546 0.929 . S
C560 C559 1.399 . S
C560 C561 1.385 . S
C561 H547 0.931 . S
C561 C560 1.385 . S
C561 C562 1.389 . S
C562 C561 1.389 . S
C562 C563 1.387 . S
C563 H548 0.930 1_556 S
C563 C558 1.390 . S
C563 C562 1.387 . S
H564 C576 0.930 . S
H565 C578 0.930 . S
H566 C579 0.930 . S
H567 C583 0.959 . S
H568 C583 0.959 . S
H569 C583 0.961 . S
H570 C584 0.960 . S
H571 C584 0.961 . S
H572 C584 0.959 . S
H573 C587 0.929 . S
H574 C588 0.931 . S
H575 C590 0.930 . S
C576 H564 0.930 . S
C576 C577 1.399 . S
C576 C581 1.399 . S
C577 C576 1.399 . S
C577 C578 1.376 . S
C578 H565 0.930 . S
C578 C577 1.376 . S
C578 C579 1.388 . S
C579 H566 0.930 . S
C579 C578 1.388 . S
C579 C580 1.390 . S
C580 C579 1.390 . S
C580 C581 1.394 . S
C580 C586 1.465 . S
C581 C576 1.399 . S
C581 C580 1.394 . S
C581 C582 1.516 . S
C582 C581 1.516 . S
C582 C583 1.502 . S
C582 C584 1.561 . S
C582 C585 1.526 . S
C583 H567 0.959 . S
C583 H568 0.959 . S
C583 H569 0.961 . S
C583 C582 1.502 . S
C584 H570 0.960 . S
C584 H571 0.961 . S
C584 H572 0.959 . S
C584 C582 1.561 . S
C585 C582 1.526 . S
C585 C586 1.396 . S
C585 C590 1.390 . S
C586 C580 1.465 . S
C586 C585 1.396 . S
C586 C587 1.399 . S
C587 H573 0.929 . S
C587 C586 1.399 . S
C587 C588 1.385 . S
C588 H574 0.931 . S
C588 C587 1.385 . S
C588 C589 1.389 . S
C589 C588 1.389 . S
C589 C590 1.387 . S
C590 H575 0.930 . S
C590 C585 1.390 . S
C590 C589 1.387 . S
H591 C603 0.930 . S
H592 C605 0.930 . S
H593 C606 0.930 . S
H594 C610 0.959 . S
H595 C610 0.959 . S
H596 C610 0.961 . S
H597 C611 0.960 . S
H598 C611 0.961 . S
H599 C611 0.959 . S
H600 C614 0.929 . S
H601 C615 0.931 . S
H602 C617 0.930 . S
C603 H591 0.930 . S
C603 C604 1.399 . S
C603 C608 1.399 . S
C604 C603 1.399 . S
C604 C605 1.376 . S
C605 H592 0.930 . S
C605 C604 1.376 . S
C605 C606 1.388 . S
C606 H593 0.930 . S
C606 C605 1.388 . S
C606 C607 1.390 . S
C607 C606 1.390 . S
C607 C608 1.394 . S
C607 C613 1.465 . S
C608 C603 1.399 . S
C608 C607 1.394 . S
C608 C609 1.516 . S
C609 C608 1.516 . S
C609 C610 1.502 . S
C609 C611 1.561 . S
C609 C612 1.526 . S
C610 H594 0.959 . S
C610 H595 0.959 . S
C610 H596 0.961 . S
C610 C609 1.502 . S
C611 H597 0.960 . S
C611 H598 0.961 . S
C611 H599 0.959 . S
C611 C609 1.561 . S
C612 C609 1.526 . S
C612 C613 1.396 . S
C612 C617 1.390 . S
C613 C607 1.465 . S
C613 C612 1.396 . S
C613 C614 1.399 . S
C614 H600 0.929 . S
C614 C613 1.399 . S
C614 C615 1.385 . S
C615 H601 0.931 . S
C615 C614 1.385 . S
C615 C616 1.389 . S
C616 C615 1.389 . S
C616 C617 1.387 . S
C617 H602 0.930 . S
C617 C612 1.390 . S
C617 C616 1.387 . S
H618 C630 0.930 . S
H619 C632 0.930 . S
H620 C633 0.930 . S
H621 C637 0.959 . S
H622 C637 0.959 . S
H623 C637 0.961 . S
H624 C638 0.960 . S
H625 C638 0.961 . S
H626 C638 0.959 . S
H627 C641 0.929 . S
H628 C642 0.931 . S
H629 C644 0.930 . S
C630 H618 0.930 . S
C630 C631 1.399 . S
C630 C635 1.399 . S
C631 C630 1.399 . S
C631 C632 1.376 . S
C632 H619 0.930 . S
C632 C631 1.376 . S
C632 C633 1.388 . S
C633 H620 0.930 . S
C633 C632 1.388 . S
C633 C634 1.390 . S
C634 C633 1.390 . S
C634 C635 1.394 . S
C634 C640 1.465 . S
C635 C630 1.399 . S
C635 C634 1.394 . S
C635 C636 1.516 . S
C636 C635 1.516 . S
C636 C637 1.502 . S
C636 C638 1.561 . S
C636 C639 1.526 . S
C637 H621 0.959 . S
C637 H622 0.959 . S
C637 H623 0.961 . S
C637 C636 1.502 . S
C638 H624 0.960 . S
C638 H625 0.961 . S
C638 H626 0.959 . S
C638 C636 1.561 . S
C639 C636 1.526 . S
C639 C640 1.396 . S
C639 C644 1.390 . S
C640 C634 1.465 . S
C640 C639 1.396 . S
C640 C641 1.399 . S
C641 H627 0.929 . S
C641 C640 1.399 . S
C641 C642 1.385 . S
C642 H628 0.931 . S
C642 C641 1.385 . S
C642 C643 1.389 . S
C643 C642 1.389 . S
C643 C644 1.387 . S
C644 H629 0.930 . S
C644 C639 1.390 . S
C644 C643 1.387 . S
H645 C657 0.930 . S
H646 C659 0.930 . S
H647 C660 0.930 . S
H648 C664 0.959 . S
H649 C664 0.959 . S
H650 C664 0.961 . S
H651 C665 0.960 . S
H652 C665 0.961 . S
H653 C665 0.959 . S
H654 C668 0.929 . S
H655 C669 0.931 . S
H656 C671 0.930 . S
C657 H645 0.930 . S
C657 C658 1.399 . S
C657 C662 1.399 . S
C658 C657 1.399 . S
C658 C659 1.376 . S
C659 H646 0.930 . S
C659 C658 1.376 . S
C659 C660 1.388 . S
C660 H647 0.930 . S
C660 C659 1.388 . S
C660 C661 1.390 . S
C661 C660 1.390 . S
C661 C662 1.394 . S
C661 C667 1.465 . S
C662 C657 1.399 . S
C662 C661 1.394 . S
C662 C663 1.516 . S
C663 C662 1.516 . S
C663 C664 1.502 . S
C663 C665 1.561 . S
C663 C666 1.526 . S
C664 H648 0.959 . S
C664 H649 0.959 . S
C664 H650 0.961 . S
C664 C663 1.502 . S
C665 H651 0.960 . S
C665 H652 0.961 . S
C665 H653 0.959 . S
C665 C663 1.561 . S
C666 C663 1.526 . S
C666 C667 1.396 . S
C666 C671 1.390 . S
C667 C661 1.465 . S
C667 C666 1.396 . S
C667 C668 1.399 . S
C668 H654 0.929 . S
C668 C667 1.399 . S
C668 C669 1.385 . S
C669 H655 0.931 . S
C669 C668 1.385 . S
C669 C670 1.389 . S
C670 C669 1.389 . S
C670 C671 1.387 . S
C671 H656 0.930 . S
C671 C666 1.390 . S
C671 C670 1.387 . S
H672 C684 0.930 . S
H673 C686 0.930 . S
H674 C687 0.930 . S
H675 C691 0.959 . S
H676 C691 0.959 . S
H677 C691 0.961 . S
H678 C692 0.960 . S
H679 C692 0.961 . S
H680 C692 0.959 . S
H681 C695 0.929 . S
H682 C696 0.931 . S
H683 C698 0.930 . S
C684 H672 0.930 . S
C684 C685 1.399 . S
C684 C689 1.399 . S
C685 C684 1.399 . S
C685 C686 1.376 . S
C686 H673 0.930 . S
C686 C685 1.376 . S
C686 C687 1.388 . S
C687 H674 0.930 . S
C687 C686 1.388 . S
C687 C688 1.390 . S
C688 C687 1.390 . S
C688 C689 1.394 . S
C688 C694 1.465 . S
C689 C684 1.399 . S
C689 C688 1.394 . S
C689 C690 1.516 . S
C690 C689 1.516 . S
C690 C691 1.502 . S
C690 C692 1.561 . S
C690 C693 1.526 . S
C691 H675 0.959 . S
C691 H676 0.959 . S
C691 H677 0.961 . S
C691 C690 1.502 . S
C692 H678 0.960 . S
C692 H679 0.961 . S
C692 H680 0.959 . S
C692 C690 1.561 . S
C693 C690 1.526 . S
C693 C694 1.396 . S
C693 C698 1.390 . S
C694 C688 1.465 . S
C694 C693 1.396 . S
C694 C695 1.399 . S
C695 H681 0.929 . S
C695 C694 1.399 . S
C695 C696 1.385 . S
C696 H682 0.931 . S
C696 C695 1.385 . S
C696 C697 1.389 . S
C697 C696 1.389 . S
C697 C698 1.387 . S
C698 H683 0.930 . S
C698 C693 1.390 . S
C698 C697 1.387 . S
H699 C711 0.930 . S
H700 C713 0.930 . S
H701 C714 0.930 . S
H702 C718 0.959 . S
H703 C718 0.959 . S
H704 C718 0.961 . S
H705 C719 0.960 . S
H706 C719 0.961 . S
H707 C719 0.959 . S
H708 C722 0.929 . S
H709 C723 0.931 . S
H710 C725 0.930 . S
C711 H699 0.930 . S
C711 C712 1.399 . S
C711 C716 1.399 . S
C712 C711 1.399 . S
C712 C713 1.376 . S
C713 H700 0.930 . S
C713 C712 1.376 . S
C713 C714 1.388 . S
C714 H701 0.930 . S
C714 C713 1.388 . S
C714 C715 1.390 . S
C715 C714 1.390 . S
C715 C716 1.394 . S
C715 C721 1.465 . S
C716 C711 1.399 . S
C716 C715 1.394 . S
C716 C717 1.516 . S
C717 C716 1.516 . S
C717 C718 1.502 . S
C717 C719 1.561 1_545 S
C717 C720 1.526 . S
C718 H702 0.959 . S
C718 H703 0.959 . S
C718 H704 0.961 . S
C718 C717 1.502 . S
C719 H705 0.960 . S
C719 H706 0.961 . S
C719 H707 0.959 . S
C719 C717 1.561 1_565 S
C720 C717 1.526 . S
C720 C721 1.396 . S
C720 C725 1.390 . S
C721 C715 1.465 . S
C721 C720 1.396 . S
C721 C722 1.399 . S
C722 H708 0.929 . S
C722 C721 1.399 . S
C722 C723 1.385 . S
C723 H709 0.931 . S
C723 C722 1.385 . S
C723 C724 1.389 . S
C724 C723 1.389 . S
C724 C725 1.387 . S
C725 H710 0.930 . S
C725 C720 1.390 . S
C725 C724 1.387 . S
C253 C213 2.721 . S
C265 C26 2.742 . S
C280 C13 3.855 . S
C292 C66 3.771 1_455 S
C307 C53 3.265 . S
C319 C93 3.164 . S
C334 C133 2.891 . S
C346 C106 2.754 . S
C361 C186 1.950 . S
C373 C146 2.048 . S
C388 C173 2.705 . S
C400 C226 2.410 . S
C415 C184 1.414 . S
C427 C17 1.424 1_554 S
C442 C224 3.304 . S
C454 C57 3.302 . S
C469 C104 4.526 . S
C481 C24 4.524 . S
C496 C144 3.418 . S
C508 C64 3.429 . S
C523 C177 0.736 . S
C535 C97 0.819 . S
C550 C137 0.662 . S
C562 C217 0.346 . S
C577 C2 0.497 . S
C589 C23 0.674 . S
C604 C42 0.631 . S
C616 C63 0.676 . S
C631 C103 0.622 . S
C643 C82 0.777 . S
C658 C143 0.548 . S
C670 C122 0.595 . S
C685 C183 0.667 . S
C697 C162 0.839 . S
C712 C202 0.744 . S
C724 C223 0.690 . S
