# Generated by pormake.
# Topology deh, (3)-cn, num edge types: 1
# Building blocks:
#     Node 0, Type 0, BuildingBlock: WUSLED_clean_sbu_0, # of connection points: 3
#     Node 1, Type 0, BuildingBlock: WUSLED_clean_sbu_0, # of connection points: 3
#     Node 2, Type 0, BuildingBlock: WUSLED_clean_sbu_0, # of connection points: 3
#     Node 3, Type 0, BuildingBlock: WUSLED_clean_sbu_0, # of connection points: 3
#     Node 4, Type 0, BuildingBlock: WUSLED_clean_sbu_0, # of connection points: 3
#     Node 5, Type 0, BuildingBlock: WUSLED_clean_sbu_0, # of connection points: 3
#     Node 6, Type 0, BuildingBlock: WUSLED_clean_sbu_0, # of connection points: 3
#     Node 7, Type 0, BuildingBlock: WUSLED_clean_sbu_0, # of connection points: 3
#     Node 8, Type 0, BuildingBlock: WUSLED_clean_sbu_0, # of connection points: 3
#     Node 9, Type 0, BuildingBlock: WUSLED_clean_sbu_0, # of connection points: 3
#     Node 10, Type 0, BuildingBlock: WUSLED_clean_sbu_0, # of connection points: 3
#     Node 11, Type 0, BuildingBlock: WUSLED_clean_sbu_0, # of connection points: 3
#     Node 12, Type 0, BuildingBlock: WUSLED_clean_sbu_0, # of connection points: 3
#     Node 13, Type 0, BuildingBlock: WUSLED_clean_sbu_0, # of connection points: 3
#     Node 14, Type 0, BuildingBlock: WUSLED_clean_sbu_0, # of connection points: 3
#     Node 15, Type 0, BuildingBlock: WUSLED_clean_sbu_0, # of connection points: 3
#     Node 16, Type 0, BuildingBlock: WUSLED_clean_sbu_0, # of connection points: 3
#     Node 17, Type 0, BuildingBlock: WUSLED_clean_sbu_0, # of connection points: 3
#     Node 18, Type 0, BuildingBlock: WUSLED_clean_sbu_0, # of connection points: 3
#     Node 19, Type 0, BuildingBlock: WUSLED_clean_sbu_0, # of connection points: 3
#     Node 20, Type 0, BuildingBlock: WUSLED_clean_sbu_0, # of connection points: 3
#     Node 21, Type 0, BuildingBlock: WUSLED_clean_sbu_0, # of connection points: 3
#     Node 22, Type 0, BuildingBlock: WUSLED_clean_sbu_0, # of connection points: 3
#     Node 23, Type 0, BuildingBlock: WUSLED_clean_sbu_0, # of connection points: 3
#     Node 24, Type 0, BuildingBlock: WUSLED_clean_sbu_0, # of connection points: 3
#     Node 25, Type 0, BuildingBlock: WUSLED_clean_sbu_0, # of connection points: 3
#     Node 26, Type 0, BuildingBlock: WUSLED_clean_sbu_0, # of connection points: 3
#     Node 27, Type 0, BuildingBlock: WUSLED_clean_sbu_0, # of connection points: 3
#     Node 28, Type 0, BuildingBlock: WUSLED_clean_sbu_0, # of connection points: 3
#     Node 29, Type 0, BuildingBlock: WUSLED_clean_sbu_0, # of connection points: 3
#     Node 30, Type 0, BuildingBlock: WUSLED_clean_sbu_0, # of connection points: 3
#     Node 31, Type 0, BuildingBlock: WUSLED_clean_sbu_0, # of connection points: 3
#     Edge 32, Type (0, 0), BuildingBlock: ZUJKAS_clean_linker_0, # of connection points: 2
#     Edge 33, Type (0, 0), BuildingBlock: ZUJKAS_clean_linker_0, # of connection points: 2
#     Edge 34, Type (0, 0), BuildingBlock: ZUJKAS_clean_linker_0, # of connection points: 2
#     Edge 35, Type (0, 0), BuildingBlock: ZUJKAS_clean_linker_0, # of connection points: 2
#     Edge 36, Type (0, 0), BuildingBlock: ZUJKAS_clean_linker_0, # of connection points: 2
#     Edge 37, Type (0, 0), BuildingBlock: ZUJKAS_clean_linker_0, # of connection points: 2
#     Edge 38, Type (0, 0), BuildingBlock: ZUJKAS_clean_linker_0, # of connection points: 2
#     Edge 39, Type (0, 0), BuildingBlock: ZUJKAS_clean_linker_0, # of connection points: 2
#     Edge 40, Type (0, 0), BuildingBlock: ZUJKAS_clean_linker_0, # of connection points: 2
#     Edge 41, Type (0, 0), BuildingBlock: ZUJKAS_clean_linker_0, # of connection points: 2
#     Edge 42, Type (0, 0), BuildingBlock: ZUJKAS_clean_linker_0, # of connection points: 2
#     Edge 43, Type (0, 0), BuildingBlock: ZUJKAS_clean_linker_0, # of connection points: 2
#     Edge 44, Type (0, 0), BuildingBlock: ZUJKAS_clean_linker_0, # of connection points: 2
#     Edge 45, Type (0, 0), BuildingBlock: ZUJKAS_clean_linker_0, # of connection points: 2
#     Edge 46, Type (0, 0), BuildingBlock: ZUJKAS_clean_linker_0, # of connection points: 2
#     Edge 47, Type (0, 0), BuildingBlock: ZUJKAS_clean_linker_0, # of connection points: 2
#     Edge 48, Type (0, 0), BuildingBlock: ZUJKAS_clean_linker_0, # of connection points: 2
#     Edge 49, Type (0, 0), BuildingBlock: ZUJKAS_clean_linker_0, # of connection points: 2
#     Edge 50, Type (0, 0), BuildingBlock: ZUJKAS_clean_linker_0, # of connection points: 2
#     Edge 51, Type (0, 0), BuildingBlock: ZUJKAS_clean_linker_0, # of connection points: 2
#     Edge 52, Type (0, 0), BuildingBlock: ZUJKAS_clean_linker_0, # of connection points: 2
#     Edge 53, Type (0, 0), BuildingBlock: ZUJKAS_clean_linker_0, # of connection points: 2
#     Edge 54, Type (0, 0), BuildingBlock: ZUJKAS_clean_linker_0, # of connection points: 2
#     Edge 55, Type (0, 0), BuildingBlock: ZUJKAS_clean_linker_0, # of connection points: 2
#     Edge 56, Type (0, 0), BuildingBlock: ZUJKAS_clean_linker_0, # of connection points: 2
#     Edge 57, Type (0, 0), BuildingBlock: ZUJKAS_clean_linker_0, # of connection points: 2
#     Edge 58, Type (0, 0), BuildingBlock: ZUJKAS_clean_linker_0, # of connection points: 2
#     Edge 59, Type (0, 0), BuildingBlock: ZUJKAS_clean_linker_0, # of connection points: 2
#     Edge 60, Type (0, 0), BuildingBlock: ZUJKAS_clean_linker_0, # of connection points: 2
#     Edge 61, Type (0, 0), BuildingBlock: ZUJKAS_clean_linker_0, # of connection points: 2
#     Edge 62, Type (0, 0), BuildingBlock: ZUJKAS_clean_linker_0, # of connection points: 2
#     Edge 63, Type (0, 0), BuildingBlock: ZUJKAS_clean_linker_0, # of connection points: 2
#     Edge 64, Type (0, 0), BuildingBlock: ZUJKAS_clean_linker_0, # of connection points: 2
#     Edge 65, Type (0, 0), BuildingBlock: ZUJKAS_clean_linker_0, # of connection points: 2
#     Edge 66, Type (0, 0), BuildingBlock: ZUJKAS_clean_linker_0, # of connection points: 2
#     Edge 67, Type (0, 0), BuildingBlock: ZUJKAS_clean_linker_0, # of connection points: 2
#     Edge 68, Type (0, 0), BuildingBlock: ZUJKAS_clean_linker_0, # of connection points: 2
#     Edge 69, Type (0, 0), BuildingBlock: ZUJKAS_clean_linker_0, # of connection points: 2
#     Edge 70, Type (0, 0), BuildingBlock: ZUJKAS_clean_linker_0, # of connection points: 2
#     Edge 71, Type (0, 0), BuildingBlock: ZUJKAS_clean_linker_0, # of connection points: 2
#     Edge 72, Type (0, 0), BuildingBlock: ZUJKAS_clean_linker_0, # of connection points: 2
#     Edge 73, Type (0, 0), BuildingBlock: ZUJKAS_clean_linker_0, # of connection points: 2
#     Edge 74, Type (0, 0), BuildingBlock: ZUJKAS_clean_linker_0, # of connection points: 2
#     Edge 75, Type (0, 0), BuildingBlock: ZUJKAS_clean_linker_0, # of connection points: 2
#     Edge 76, Type (0, 0), BuildingBlock: ZUJKAS_clean_linker_0, # of connection points: 2
#     Edge 77, Type (0, 0), BuildingBlock: ZUJKAS_clean_linker_0, # of connection points: 2
#     Edge 78, Type (0, 0), BuildingBlock: ZUJKAS_clean_linker_0, # of connection points: 2
#     Edge 79, Type (0, 0), BuildingBlock: ZUJKAS_clean_linker_0, # of connection points: 2
# Relax obj value: 0.006
# Max RMSD: 0.035
# Mean RMSD: 0.011
data_MOF--net-deh--node1-WUSLED_clean_sbu_0--edge1-ZUJKAS_clean_linker_0
_symmetry_space_group_name_H-M    P1
_symmetry_Int_Tables_number       1
_symmetry_cell_setting            triclinic
loop_
_symmetry_equiv_pos_as_xyz
'x, y, z'
_cell_length_a     84.007516
_cell_length_b     86.729549
_cell_length_c     183.89557
_cell_angle_alpha  89.97771
_cell_angle_beta   90.009694
_cell_angle_gamma 89.919327
loop_
_atom_site_label
_atom_site_type_symbol
_atom_site_fract_x
_atom_site_fract_y
_atom_site_fract_z
_atom_type_partial_charge
C0 C 0.13407 0.02611 0.3187 0.0
C1 C 0.12682 0.02898 0.32543 0.0
C2 C 0.10066 0.02458 0.32009 0.0
C3 C 0.11025 0.02823 0.32612 0.0
C4 C 0.10806 0.02162 0.31336 0.0
C5 C 0.12461 0.02239 0.31268 0.0
U6 U 0.17529 0.03267 0.3267 0.0
O7 O 0.19806 0.02106 0.32439 0.0
O8 O 0.19554 0.04591 0.32245 0.0
C9 C 0.20452 0.03359 0.32167 0.0
C10 C 0.15142 0.02715 0.31786 0.0
C11 C 0.21196 0.03185 0.31448 0.0
C12 C 0.20994 0.02971 0.30134 0.0
C13 C 0.20266 0.03084 0.30816 0.0
C14 C 0.23587 0.03035 0.3071 0.0
C15 C 0.22665 0.02956 0.30072 0.0
C16 C 0.22858 0.0315 0.31392 0.0
C17 C 0.17916 0.04143 0.34703 0.0
C18 C 0.20424 0.0419 0.35362 0.0
C19 C 0.18046 0.05264 0.35911 0.0
C20 C 0.17172 0.04872 0.35292 0.0
C21 C 0.19683 0.0493 0.35953 0.0
C22 C 0.19549 0.03806 0.3474 0.0
C23 C 0.16969 0.03771 0.34054 0.0
O24 O 0.15746 0.04096 0.31886 0.0
O25 O 0.15966 0.01619 0.32107 0.0
O26 O 0.17181 0.02385 0.3378 0.0
O27 O 0.16905 0.04858 0.33557 0.0
H28 H 0.13398 0.03183 0.33015 0.0
H29 H 0.10495 0.0304 0.3314 0.0
H30 H 0.10103 0.01899 0.30858 0.0
H31 H 0.13003 0.02019 0.30743 0.0
H32 H 0.20247 0.0293 0.29654 0.0
H33 H 0.18978 0.03112 0.30851 0.0
H34 H 0.24874 0.03002 0.30684 0.0
H35 H 0.23593 0.0322 0.31875 0.0
H36 H 0.21686 0.03932 0.35376 0.0
H37 H 0.17437 0.05816 0.3636 0.0
H38 H 0.15913 0.05141 0.35272 0.0
H39 H 0.20146 0.03253 0.34288 0.0
C40 C 0.30134 0.87591 0.56392 0.0
C41 C 0.29757 0.86834 0.57044 0.0
C42 C 0.30402 0.84353 0.56495 0.0
C43 C 0.29889 0.8523 0.57095 0.0
C44 C 0.30798 0.85124 0.55845 0.0
C45 C 0.30664 0.86729 0.55795 0.0
U46 U 0.29131 0.91443 0.57248 0.0
O47 O 0.30185 0.93744 0.57108 0.0
O48 O 0.27667 0.93368 0.56843 0.0
C49 C 0.28876 0.94327 0.56827 0.0
C50 C 0.29944 0.8927 0.56327 0.0
C51 C 0.29065 0.95207 0.56148 0.0
C52 C 0.30198 0.95546 0.54941 0.0
C53 C 0.30036 0.94677 0.5558 0.0
C54 C 0.28401 0.9747 0.55431 0.0
C55 C 0.29384 0.96957 0.5486 0.0
C56 C 0.28247 0.96605 0.56068 0.0
C57 C 0.28014 0.91483 0.59267 0.0
C58 C 0.27211 0.93807 0.59908 0.0
C59 C 0.27259 0.91354 0.60539 0.0
C60 C 0.27779 0.90628 0.59904 0.0
C61 C 0.26962 0.92951 0.60549 0.0
C62 C 0.27734 0.93078 0.59272 0.0
C63 C 0.2852 0.90685 0.58602 0.0
O64 O 0.28476 0.89773 0.56401 0.0
O65 O 0.30987 0.901 0.56688 0.0
O66 O 0.29955 0.91022 0.58366 0.0
O67 O 0.27453 0.90627 0.5808 0.0
H68 H 0.29343 0.87484 0.5751 0.0
H69 H 0.29556 0.84675 0.576 0.0
H70 H 0.31218 0.84489 0.55376 0.0
H71 H 0.30964 0.87297 0.55288 0.0
H72 H 0.30975 0.95121 0.54517 0.0
H73 H 0.30674 0.93595 0.5563 0.0
H74 H 0.27732 0.98534 0.55383 0.0
H75 H 0.27482 0.97027 0.56499 0.0
H76 H 0.2701 0.9504 0.59899 0.0
H77 H 0.27055 0.90655 0.61018 0.0
H78 H 0.27984 0.89394 0.59908 0.0
H79 H 0.27912 0.93755 0.58783 0.0
C80 C 0.39494 1.00143 0.81796 0.0
C81 C 0.4026 0.999 0.82464 0.0
C82 C 0.42845 1.00261 0.81886 0.0
C83 C 0.41922 0.99959 0.82509 0.0
C84 C 0.42063 1.00519 0.8122 0.0
C85 C 0.40403 1.00459 0.81176 0.0
U86 U 0.35394 0.99623 0.82649 0.0
O87 O 0.33129 1.00797 0.82409 0.0
O88 O 0.33333 0.98293 0.82267 0.0
C89 C 0.32455 0.9953 0.82166 0.0
C90 C 0.37753 1.00052 0.81735 0.0
C91 C 0.31702 0.99653 0.81447 0.0
C92 C 0.31894 0.99803 0.80131 0.0
C93 C 0.32627 0.99724 0.80813 0.0
C94 C 0.29305 0.99758 0.80711 0.0
C95 C 0.30223 0.99813 0.80071 0.0
C96 C 0.3004 0.99678 0.81393 0.0
C97 C 0.35054 0.98976 0.84699 0.0
C98 C 0.32521 0.98538 0.85302 0.0
C99 C 0.34969 0.98507 0.86 0.0
C100 C 0.35836 0.98811 0.85367 0.0
C101 C 0.33301 0.98362 0.85975 0.0
C102 C 0.33392 0.98843 0.84669 0.0
C103 C 0.35995 0.9926 0.8404 0.0
O104 O 0.37137 0.98691 0.81873 0.0
O105 O 0.3696 1.0119 0.82038 0.0
O106 O 0.35792 1.00617 0.83734 0.0
O107 O 0.36023 0.98121 0.83569 0.0
H108 H 0.39572 0.99652 0.82949 0.0
H109 H 0.42485 0.9974 0.83029 0.0
H110 H 0.42733 1.00778 0.80732 0.0
H111 H 0.39829 1.00655 0.80656 0.0
H112 H 0.32637 0.99826 0.7965 0.0
H113 H 0.33915 0.99704 0.80846 0.0
H114 H 0.28017 0.99788 0.80686 0.0
H115 H 0.29308 0.9963 0.81878 0.0
H116 H 0.31238 0.98449 0.85265 0.0
H117 H 0.35611 0.98354 0.86505 0.0
H118 H 0.3712 0.98904 0.85399 0.0
H119 H 0.3277 0.9897 0.84156 0.0
C120 C 0.22637 0.1531 0.06388 0.0
C121 C 0.23068 0.16063 0.07034 0.0
C122 C 0.22433 0.18552 0.06488 0.0
C123 C 0.22967 0.1767 0.07083 0.0
C124 C 0.21987 0.17783 0.05845 0.0
C125 C 0.2209 0.16177 0.05796 0.0
U126 U 0.23532 0.11424 0.07243 0.0
O127 O 0.22382 0.09163 0.071 0.0
O128 O 0.24912 0.09452 0.06837 0.0
C129 C 0.23666 0.08537 0.06817 0.0
C130 C 0.22777 0.13625 0.06326 0.0
C131 C 0.23434 0.07696 0.06131 0.0
C132 C 0.23206 0.07647 0.04813 0.0
C133 C 0.23359 0.08475 0.05463 0.0
C134 C 0.23166 0.05256 0.05495 0.0
C135 C 0.23117 0.06025 0.04822 0.0
C136 C 0.23325 0.06085 0.06143 0.0
C137 C 0.24688 0.11342 0.09259 0.0
C138 C 0.25417 0.08994 0.099 0.0
C139 C 0.25516 0.11455 0.10522 0.0
C140 C 0.24994 0.12194 0.0989 0.0
C141 C 0.25741 0.09847 0.10535 0.0
C142 C 0.24895 0.09737 0.09266 0.0
C143 C 0.24192 0.12155 0.08596 0.0
O144 O 0.24229 0.13079 0.06396 0.0
O145 O 0.21713 0.12829 0.0669 0.0
O146 O 0.22742 0.11862 0.08366 0.0
O147 O 0.25251 0.12182 0.0807 0.0
H148 H 0.23496 0.15409 0.07496 0.0
H149 H 0.23338 0.18223 0.07583 0.0
H150 H 0.21548 0.18423 0.0538 0.0
H151 H 0.21747 0.15611 0.05295 0.0
H152 H 0.23152 0.08275 0.04305 0.0
H153 H 0.23435 0.09722 0.05444 0.0
H154 H 0.23121 0.04009 0.05521 0.0
H155 H 0.23384 0.05465 0.06654 0.0
H156 H 0.25562 0.07754 0.09893 0.0
H157 H 0.25778 0.12151 0.10996 0.0
H158 H 0.24847 0.13435 0.09892 0.0
H159 H 0.24662 0.09063 0.08782 0.0
C160 C 0.13382 1.00284 0.71279 0.0
C161 C 0.12631 0.99997 0.70611 0.0
C162 C 0.10038 1.00468 0.71163 0.0
C163 C 0.10972 1.00086 0.70554 0.0
C164 C 0.10803 1.00763 0.7183 0.0
C165 C 0.1246 1.00671 0.71886 0.0
U166 U 0.17489 0.99686 0.70449 0.0
O167 O 0.19763 1.00839 0.70688 0.0
O168 O 0.19531 0.98342 0.70846 0.0
C169 C 0.20419 0.99572 0.70942 0.0
C170 C 0.15119 1.00169 0.71351 0.0
C171 C 0.21154 0.9971 0.71664 0.0
C172 C 0.20925 0.99917 0.72978 0.0
C173 C 0.20211 0.99819 0.72292 0.0
C174 C 0.2353 0.99814 0.72414 0.0
C175 C 0.22594 0.9991 0.73047 0.0
C176 C 0.22815 0.99713 0.71729 0.0
C177 C 0.17832 0.98991 0.68399 0.0
C178 C 0.20355 0.98515 0.67793 0.0
C179 C 0.179 0.98502 0.671 0.0
C180 C 0.17043 0.98825 0.67733 0.0
C181 C 0.19567 0.9834 0.67122 0.0
C182 C 0.19494 0.98839 0.68427 0.0
C183 C 0.16899 0.99298 0.69059 0.0
O184 O 0.15723 0.98797 0.71224 0.0
O185 O 0.15933 1.01289 0.71046 0.0
O186 O 0.17114 1.00659 0.69357 0.0
O187 O 0.1686 0.9817 0.69535 0.0
H188 H 0.13329 0.99701 0.70135 0.0
H189 H 0.10423 0.99869 0.70031 0.0
H190 H 0.1012 1.0104 0.72312 0.0
H191 H 0.13022 1.00892 0.72406 0.0
H192 H 0.2017 1.00008 0.73453 0.0
H193 H 0.18925 0.99824 0.7225 0.0
H194 H 0.24817 0.99787 0.72449 0.0
H195 H 0.2356 0.99626 0.7125 0.0
H196 H 0.21638 0.98413 0.67827 0.0
H197 H 0.17252 0.98351 0.66596 0.0
H198 H 0.15759 0.98932 0.67704 0.0
H199 H 0.20121 0.98965 0.68938 0.0
C200 C 0.22772 0.87664 0.96698 0.0
C201 C 0.22422 0.86972 0.96027 0.0
C202 C 0.22572 0.84421 0.96582 0.0
C203 C 0.22314 0.85368 0.9597 0.0
C204 C 0.22924 0.85126 0.97253 0.0
C205 C 0.2302 0.86731 0.9731 0.0
U206 U 0.23658 0.91543 0.95837 0.0
O207 O 0.22545 0.9382 0.95988 0.0
O208 O 0.25082 0.93497 0.96229 0.0
C209 C 0.2385 0.94431 0.96256 0.0
C210 C 0.22939 0.89348 0.96761 0.0
C211 C 0.2366 0.95293 0.96939 0.0
C212 C 0.23368 0.95376 0.98254 0.0
C213 C 0.23494 0.94529 0.97607 0.0
C214 C 0.23546 0.97753 0.97566 0.0
C215 C 0.23405 0.97 0.98241 0.0
C216 C 0.23673 0.96907 0.96922 0.0
C217 C 0.24711 0.91609 0.9381 0.0
C218 C 0.25506 0.93936 0.93171 0.0
C219 C 0.25451 0.91489 0.92536 0.0
C220 C 0.24936 0.9076 0.93171 0.0
C221 C 0.25751 0.93085 0.92528 0.0
C222 C 0.2499 0.93203 0.93807 0.0
C223 C 0.24238 0.90801 0.94478 0.0
O224 O 0.24393 0.89872 0.96674 0.0
O225 O 0.21861 0.90172 0.96416 0.0
O226 O 0.22804 0.91114 0.94723 0.0
O227 O 0.25323 0.9076 0.94992 0.0
H228 H 0.22236 0.87673 0.95547 0.0
H229 H 0.22021 0.8487 0.95447 0.0
H230 H 0.23156 0.84437 0.97732 0.0
H231 H 0.23307 0.87245 0.97831 0.0
H232 H 0.23276 0.94758 0.98764 0.0
H233 H 0.23482 0.93281 0.9763 0.0
H234 H 0.23551 0.99 0.97534 0.0
H235 H 0.23792 0.97514 0.9641 0.0
H236 H 0.2571 0.95169 0.93182 0.0
H237 H 0.25651 0.90794 0.92055 0.0
H238 H 0.24734 0.89526 0.93165 0.0
H239 H 0.24821 0.93875 0.94298 0.0
C240 C 0.39453 0.02814 0.21249 0.0
C241 C 0.40209 0.0199 0.20688 0.0
C242 C 0.42807 0.02765 0.21148 0.0
C243 C 0.41871 0.01959 0.20641 0.0
C244 C 0.42044 0.03598 0.21704 0.0
C245 C 0.40384 0.03617 0.21755 0.0
U246 U 0.35295 0.03185 0.20419 0.0
O247 O 0.33073 0.01964 0.20681 0.0
O248 O 0.33207 0.04475 0.20807 0.0
C249 C 0.32369 0.03219 0.2092 0.0
C250 C 0.37703 0.02861 0.21315 0.0
C251 C 0.31642 0.03096 0.21644 0.0
C252 C 0.31883 0.02916 0.22958 0.0
C253 C 0.3259 0.03004 0.22271 0.0
C254 C 0.29272 0.02995 0.22398 0.0
C255 C 0.30214 0.02915 0.2303 0.0
C256 C 0.29982 0.03085 0.21712 0.0
C257 C 0.34888 0.03762 0.18364 0.0
C258 C 0.32339 0.04158 0.17767 0.0
C259 C 0.34776 0.04216 0.17063 0.0
C260 C 0.35657 0.0393 0.17694 0.0
C261 C 0.33107 0.0434 0.17092 0.0
C262 C 0.33223 0.03871 0.18399 0.0
C263 C 0.35846 0.03518 0.19022 0.0
O264 O 0.37039 0.04201 0.21174 0.0
O265 O 0.36919 0.01689 0.21038 0.0
O266 O 0.35688 0.02166 0.19338 0.0
O267 O 0.35851 0.04672 0.19485 0.0
H268 H 0.39517 1.01373 0.20285 0.0
H269 H 0.42425 1.01321 0.20202 0.0
H270 H 0.42733 0.04217 0.22107 0.0
H271 H 0.39825 0.04259 0.22191 0.0
H272 H 0.32642 0.02837 0.23433 0.0
H273 H 0.33877 0.03006 0.22227 0.0
H274 H 0.27986 0.03017 0.22434 0.0
H275 H 0.29233 0.03159 0.21233 0.0
H276 H 0.31055 0.04232 0.17807 0.0
H277 H 0.35409 0.04375 0.16556 0.0
H278 H 0.36942 0.03857 0.17659 0.0
H279 H 0.32612 0.03744 0.18914 0.0
C280 C 0.30219 0.15262 0.46767 0.0
C281 C 0.30538 0.15972 0.46097 0.0
C282 C 0.3046 0.18505 0.46672 0.0
C283 C 0.30665 0.17578 0.4605 0.0
C284 C 0.30142 0.17781 0.47342 0.0
C285 C 0.30024 0.16175 0.47389 0.0
U286 U 0.29257 0.11426 0.4588 0.0
O287 O 0.30317 0.09124 0.46014 0.0
O288 O 0.27791 0.0949 0.46266 0.0
C289 C 0.29005 0.08534 0.46287 0.0
C290 C 0.30023 0.13579 0.46819 0.0
C291 C 0.29191 0.07665 0.46968 0.0
C292 C 0.30132 0.07457 0.48215 0.0
C293 C 0.29972 0.08306 0.47571 0.0
C294 C 0.28719 0.05326 0.47661 0.0
C295 C 0.29507 0.05955 0.48268 0.0
C296 C 0.28565 0.06173 0.47018 0.0
C297 C 0.28209 0.11483 0.43846 0.0
C298 C 0.27143 0.09294 0.43181 0.0
C299 C 0.2769 0.11691 0.42552 0.0
C300 C 0.28225 0.12342 0.43202 0.0
C301 C 0.27124 0.10166 0.42534 0.0
C302 C 0.2768 0.09949 0.43832 0.0
C303 C 0.28696 0.1223 0.44527 0.0
O304 O 0.28559 0.13084 0.46728 0.0
O305 O 0.31084 0.12748 0.46467 0.0
O306 O 0.30121 0.11873 0.44769 0.0
O307 O 0.2761 0.12268 0.45041 0.0
H308 H 0.30681 0.15286 0.45609 0.0
H309 H 0.30931 0.1809 0.45528 0.0
H310 H 0.29949 0.18456 0.4783 0.0
H311 H 0.29762 0.15647 0.47909 0.0
H312 H 0.30759 0.07972 0.48668 0.0
H313 H 0.30461 0.0946 0.47542 0.0
H314 H 0.28197 0.04186 0.47686 0.0
H315 H 0.27949 0.05664 0.4656 0.0
H316 H 0.26704 0.08121 0.43187 0.0
H317 H 0.27718 0.12385 0.42062 0.0
H318 H 0.28636 0.13526 0.43202 0.0
H319 H 0.27659 0.0927 0.44327 0.0
C320 C 0.89552 1.00265 0.71246 0.0
C321 C 0.90301 1.00003 0.70575 0.0
C322 C 0.92894 1.00462 0.71129 0.0
C323 C 0.91959 1.00099 0.70517 0.0
C324 C 0.92129 1.00732 0.71799 0.0
C325 C 0.90473 1.00634 0.71855 0.0
U326 U 0.8547 0.99606 0.70408 0.0
O327 O 0.83441 0.98245 0.70802 0.0
O328 O 0.83172 1.00735 0.7063 0.0
C329 C 0.82531 0.99465 0.70888 0.0
C330 C 0.87815 1.0014 0.71316 0.0
C331 C 0.81777 0.99608 0.71606 0.0
C332 C 0.81973 0.99812 0.7292 0.0
C333 C 0.82704 0.99716 0.72238 0.0
C334 C 0.79382 0.99716 0.72343 0.0
C335 C 0.80303 0.99807 0.72981 0.0
C336 C 0.80115 0.99616 0.71662 0.0
C337 C 0.8521 0.98837 0.68358 0.0
C338 C 0.82718 0.98408 0.67719 0.0
C339 C 0.85227 0.98163 0.67078 0.0
C340 C 0.86045 0.98535 0.67715 0.0
C341 C 0.83554 0.98086 0.67072 0.0
C342 C 0.83541 0.98777 0.68358 0.0
C343 C 0.86106 0.99183 0.69024 0.0
O344 O 0.8699 1.01242 0.71001 0.0
O345 O 0.8723 0.98758 0.71198 0.0
O346 O 0.8615 0.9807 0.69509 0.0
O347 O 0.85852 1.0055 0.69311 0.0
H348 H 0.89604 0.99721 0.70098 0.0
H349 H 0.92508 0.99901 0.69993 0.0
H350 H 0.92813 1.00993 0.72282 0.0
H351 H 0.89912 1.00835 0.72377 0.0
H352 H 0.82716 0.999 0.734 0.0
H353 H 0.83992 0.99718 0.72204 0.0
H354 H 0.78095 0.99691 0.72371 0.0
H355 H 0.79383 0.9953 0.71178 0.0
H356 H 0.81431 0.98344 0.67734 0.0
H357 H 0.85905 0.97945 0.66588 0.0
H358 H 0.87334 0.9858 0.67707 0.0
H359 H 0.82878 0.99002 0.68852 0.0
C360 C 0.72954 0.15307 0.46709 0.0
C361 C 0.7372 0.16067 0.46133 0.0
C362 C 0.72767 0.18545 0.4658 0.0
C363 C 0.73634 0.17672 0.46071 0.0
C364 C 0.71981 0.17775 0.4715 0.0
C365 C 0.72077 0.16169 0.47214 0.0
U366 U 0.73791 0.11416 0.45863 0.0
O367 O 0.75139 0.09416 0.46263 0.0
O368 O 0.72607 0.09168 0.45994 0.0
C369 C 0.73881 0.08516 0.46274 0.0
C370 C 0.73058 0.1362 0.4678 0.0
C371 C 0.73635 0.07644 0.4695 0.0
C372 C 0.73392 0.07526 0.48266 0.0
C373 C 0.73557 0.08388 0.47626 0.0
C374 C 0.73353 0.05173 0.47557 0.0
C375 C 0.73303 0.05905 0.48239 0.0
C376 C 0.73519 0.06035 0.46919 0.0
C377 C 0.74949 0.11382 0.43843 0.0
C378 C 0.75789 0.09083 0.43192 0.0
C379 C 0.75588 0.11526 0.42559 0.0
C380 C 0.75094 0.12238 0.43202 0.0
C381 C 0.75947 0.09941 0.42546 0.0
C382 C 0.75291 0.09798 0.43836 0.0
C383 C 0.74469 0.12171 0.44515 0.0
O384 O 0.71984 0.12839 0.46414 0.0
O385 O 0.74499 0.13041 0.4672 0.0
O386 O 0.75527 0.12164 0.45041 0.0
O387 O 0.73014 0.11891 0.44742 0.0
H388 H 0.74389 0.15419 0.45732 0.0
H389 H 0.74235 0.18228 0.45621 0.0
H390 H 0.71314 0.18416 0.47553 0.0
H391 H 0.71474 0.156 0.4766 0.0
H392 H 0.73373 0.08126 0.48782 0.0
H393 H 0.73645 0.09633 0.4766 0.0
H394 H 0.7326 0.03931 0.47514 0.0
H395 H 0.73571 0.05443 0.46401 0.0
H396 H 0.76041 0.07858 0.43199 0.0
H397 H 0.75721 0.12227 0.42075 0.0
H398 H 0.7484 0.13463 0.43199 0.0
H399 H 0.75181 0.0912 0.44329 0.0
C400 C 0.63289 0.02692 0.2124 0.0
C401 C 0.62508 0.03575 0.20708 0.0
C402 C 0.59944 0.02582 0.21111 0.0
C403 C 0.60849 0.03527 0.20647 0.0
C404 C 0.60736 0.01677 0.21633 0.0
C405 C 0.62394 0.01736 0.21698 0.0
U406 U 0.67444 0.03247 0.20452 0.0
O407 O 0.69495 0.0454 0.20873 0.0
O408 O 0.69693 0.02046 0.20696 0.0
C409 C 0.70364 0.03293 0.20961 0.0
C410 C 0.65031 0.02761 0.21327 0.0
C411 C 0.71097 0.03124 0.21682 0.0
C412 C 0.70871 0.02854 0.22993 0.0
C413 C 0.70156 0.02962 0.22307 0.0
C414 C 0.73474 0.03048 0.22433 0.0
C415 C 0.72539 0.02903 0.23064 0.0
C416 C 0.72758 0.03159 0.21748 0.0
C417 C 0.6787 0.04039 0.18414 0.0
C418 C 0.70433 0.04391 0.17825 0.0
C419 C 0.67998 0.04673 0.1713 0.0
C420 C 0.67107 0.04344 0.17753 0.0
C421 C 0.69672 0.04703 0.17158 0.0
C422 C 0.69538 0.04062 0.18448 0.0
C423 C 0.66906 0.03716 0.19063 0.0
O424 O 0.65835 0.01639 0.21017 0.0
O425 O 0.65679 0.04125 0.2123 0.0
O426 O 0.66867 0.04821 0.19551 0.0
O427 O 0.67089 0.02337 0.19348 0.0
H428 H 0.63178 0.04309 0.20343 0.0
H429 H 0.60274 0.04222 0.20233 0.0
H430 H 0.60071 1.00948 0.22002 0.0
H431 H 0.62976 1.01044 0.22111 0.0
H432 H 0.70117 0.02725 0.23467 0.0
H433 H 0.6887 0.0293 0.22265 0.0
H434 H 0.74759 0.03111 0.22468 0.0
H435 H 0.73501 0.03288 0.21271 0.0
H436 H 0.71719 0.04389 0.17864 0.0
H437 H 0.67372 0.04933 0.1663 0.0
H438 H 0.6582 0.04337 0.17718 0.0
H439 H 0.70145 0.03828 0.18956 0.0
C440 C 0.80128 0.87638 0.9673 0.0
C441 C 0.79732 0.86889 0.96078 0.0
C442 C 0.80351 0.84398 0.96624 0.0
C443 C 0.79843 0.85284 0.96026 0.0
C444 C 0.80764 0.85161 0.97273 0.0
C445 C 0.80652 0.86767 0.97325 0.0
U446 U 0.79173 0.91521 0.95886 0.0
O447 O 0.77768 0.93469 0.96303 0.0
O448 O 0.80289 0.93795 0.96032 0.0
C449 C 0.79 0.94401 0.9632 0.0
C450 C 0.79968 0.89319 0.96796 0.0
C451 C 0.79233 0.95241 0.97006 0.0
C452 C 0.79599 0.9528 0.98317 0.0
C453 C 0.79425 0.94455 0.97667 0.0
C454 C 0.79414 0.97681 0.97648 0.0
C455 C 0.79588 0.96904 0.98315 0.0
C456 C 0.79237 0.96856 0.97 0.0
C457 C 0.78006 0.91607 0.93862 0.0
C458 C 0.76263 0.93389 0.93221 0.0
C459 C 0.78147 0.91831 0.92547 0.0
C460 C 0.78683 0.91175 0.93196 0.0
C461 C 0.7691 0.92928 0.92549 0.0
C462 C 0.76808 0.92739 0.93871 0.0
C463 C 0.78518 0.90809 0.94532 0.0
O464 O 0.81017 0.90133 0.96431 0.0
O465 O 0.78508 0.89848 0.96731 0.0
O466 O 0.77468 0.90738 0.95061 0.0
O467 O 0.79967 0.91115 0.94759 0.0
H468 H 0.79322 0.87547 0.95613 0.0
H469 H 0.79497 0.84734 0.95521 0.0
H470 H 0.81182 0.84518 0.97741 0.0
H471 H 0.80967 0.87328 0.97831 0.0
H472 H 0.79748 0.94646 0.9882 0.0
H473 H 0.79431 0.93206 0.9768 0.0
H474 H 0.79379 0.98928 0.97627 0.0
H475 H 0.79087 0.9748 0.96494 0.0
H476 H 0.753 0.94219 0.93244 0.0
H477 H 0.78696 0.9147 0.92042 0.0
H478 H 0.79614 0.90309 0.93178 0.0
H479 H 0.7627 0.93098 0.94379 0.0
C480 C 0.89586 0.02677 0.31828 0.0
C481 C 0.90308 0.02929 0.32506 0.0
C482 C 0.92929 0.0254 0.31966 0.0
C483 C 0.91966 0.02862 0.32574 0.0
C484 C 0.92192 0.0228 0.3129 0.0
C485 C 0.90535 0.02349 0.31222 0.0
U486 U 0.85467 0.03246 0.32643 0.0
O487 O 0.83414 0.04567 0.3224 0.0
O488 O 0.83204 0.0207 0.32407 0.0
C489 C 0.82533 0.03329 0.32152 0.0
C490 C 0.87849 0.02769 0.31747 0.0
C491 C 0.81773 0.0318 0.31436 0.0
C492 C 0.81941 0.03039 0.30118 0.0
C493 C 0.82686 0.0314 0.30797 0.0
C494 C 0.79366 0.02995 0.30711 0.0
C495 C 0.8027 0.02974 0.30066 0.0
C496 C 0.80112 0.03098 0.31389 0.0
C497 C 0.85096 0.03983 0.34686 0.0
C498 C 0.82547 0.04313 0.35291 0.0
C499 C 0.84999 0.04656 0.35966 0.0
C500 C 0.85875 0.0432 0.3534 0.0
C501 C 0.83324 0.0466 0.3595 0.0
C502 C 0.83427 0.03978 0.34664 0.0
C503 C 0.86044 0.03668 0.34032 0.0
O504 O 0.87042 0.01647 0.32054 0.0
O505 O 0.87227 0.04138 0.31866 0.0
O506 O 0.8608 0.04786 0.3355 0.0
O507 O 0.85846 0.02299 0.33739 0.0
H508 H 0.89589 0.0318 0.32981 0.0
H509 H 0.92492 0.0305 0.33104 0.0
H510 H 0.92897 0.0205 0.30809 0.0
H511 H 0.89996 0.02156 0.30695 0.0
H512 H 0.82674 0.03042 0.29633 0.0
H513 H 0.83973 0.03203 0.30824 0.0
H514 H 0.7808 0.02922 0.30692 0.0
H515 H 0.7939 0.03121 0.31877 0.0
H516 H 0.8126 0.0429 0.35261 0.0
H517 H 0.85637 0.04943 0.3646 0.0
H518 H 0.87164 0.04337 0.35365 0.0
H519 H 0.82807 0.0372 0.34162 0.0
C520 C 0.80069 0.15354 0.06398 0.0
C521 C 0.79197 0.16159 0.06927 0.0
C522 C 0.80312 0.18595 0.06506 0.0
C523 C 0.7931 0.17763 0.06978 0.0
C524 C 0.81201 0.17777 0.05984 0.0
C525 C 0.81077 0.16171 0.05929 0.0
U526 U 0.79207 0.11478 0.07261 0.0
O527 O 0.77833 0.09491 0.06871 0.0
O528 O 0.80369 0.09216 0.0713 0.0
C529 C 0.79083 0.08578 0.06856 0.0
C530 C 0.79946 0.13665 0.06336 0.0
C531 C 0.79306 0.07702 0.06179 0.0
C532 C 0.79481 0.07577 0.04861 0.0
C533 C 0.79348 0.08443 0.05501 0.0
C534 C 0.79566 0.05228 0.05573 0.0
C535 C 0.79574 0.05956 0.04889 0.0
C536 C 0.79431 0.06093 0.06211 0.0
C537 C 0.78077 0.11469 0.09283 0.0
C538 C 0.77186 0.0919 0.09934 0.0
C539 C 0.77481 0.11619 0.10572 0.0
C540 C 0.77978 0.12321 0.09927 0.0
C541 C 0.77072 0.10046 0.10583 0.0
C542 C 0.77687 0.09897 0.09289 0.0
C543 C 0.78557 0.12251 0.08609 0.0
O544 O 0.81019 0.12878 0.06701 0.0
O545 O 0.78501 0.13101 0.06401 0.0
O546 O 0.77492 0.12256 0.08086 0.0
O547 O 0.80005 0.11951 0.08379 0.0
H548 H 0.78418 0.15547 0.07297 0.0
H549 H 0.78591 0.18351 0.0738 0.0
H550 H 0.82004 0.18373 0.0562 0.0
H551 H 0.81771 0.15568 0.05522 0.0
H552 H 0.79469 0.08175 0.04344 0.0
H553 H 0.79254 0.09687 0.05466 0.0
H554 H 0.79664 0.03986 0.05616 0.0
H555 H 0.79408 0.05503 0.06731 0.0
H556 H 0.76894 0.07974 0.09926 0.0
H557 H 0.77383 0.12318 0.11058 0.0
H558 H 0.7827 0.13538 0.09931 0.0
H559 H 0.77761 0.09221 0.08795 0.0
C560 C 0.63336 1.00102 0.81763 0.0
C561 C 0.62591 0.99863 0.82436 0.0
C562 C 0.59989 1.00229 0.81874 0.0
C563 C 0.6093 0.99927 0.82492 0.0
C564 C 0.6075 1.00485 0.81203 0.0
C565 C 0.62408 1.00421 0.81149 0.0
U566 U 0.67459 0.9952 0.82586 0.0
O567 O 0.69487 0.98158 0.82187 0.0
O568 O 0.69733 1.00658 0.82331 0.0
C569 C 0.70381 0.99382 0.82084 0.0
C570 C 0.65074 0.99992 0.8169 0.0
C571 C 0.71124 0.99497 0.81362 0.0
C572 C 0.70917 0.99655 0.80046 0.0
C573 C 0.70191 0.9958 0.80731 0.0
C574 C 0.73512 0.99583 0.80621 0.0
C575 C 0.72588 0.9965 0.79983 0.0
C576 C 0.72785 0.99506 0.81304 0.0
C577 C 0.67886 0.98845 0.8463 0.0
C578 C 0.70272 0.97813 0.85199 0.0
C579 C 0.68153 0.98859 0.85945 0.0
C580 C 0.67276 0.99201 0.85319 0.0
C581 C 0.69654 0.98147 0.85893 0.0
C582 C 0.69398 0.98165 0.84573 0.0
C583 C 0.66916 0.99158 0.83981 0.0
O584 O 0.6589 1.01117 0.81991 0.0
O585 O 0.6568 0.98622 0.8182 0.0
O586 O 0.66832 0.98027 0.83507 0.0
O587 O 0.67127 1.00515 0.83678 0.0
H588 H 0.63293 0.99612 0.82916 0.0
H589 H 0.60383 0.99709 0.83015 0.0
H590 H 0.60064 1.00744 0.80719 0.0
H591 H 0.62966 1.00613 0.80625 0.0
H592 H 0.70169 0.99689 0.79567 0.0
H593 H 0.68904 0.99573 0.80767 0.0
H594 H 0.748 0.99601 0.80593 0.0
H595 H 0.73522 0.99449 0.81787 0.0
H596 H 0.71433 0.97281 0.85141 0.0
H597 H 0.67636 0.99116 0.86471 0.0
H598 H 0.66111 0.99727 0.85373 0.0
H599 H 0.69893 0.97892 0.84044 0.0
C600 C 0.72671 0.87535 0.56372 0.0
C601 C 0.73049 0.86803 0.5703 0.0
C602 C 0.72432 0.843 0.56499 0.0
C603 C 0.72931 0.85201 0.57094 0.0
C604 C 0.7204 0.85045 0.55842 0.0
C605 C 0.72161 0.86649 0.5578 0.0
U606 U 0.73711 0.91389 0.57205 0.0
O607 O 0.75108 0.93331 0.56782 0.0
O608 O 0.72609 0.93681 0.57088 0.0
C609 C 0.73885 0.94278 0.56786 0.0
C610 C 0.72836 0.89214 0.56298 0.0
C611 C 0.73621 0.9514 0.56108 0.0
C612 C 0.73256 0.95222 0.54797 0.0
C613 C 0.73444 0.94376 0.5544 0.0
C614 C 0.73391 0.976 0.55485 0.0
C615 C 0.73236 0.96846 0.54811 0.0
C616 C 0.73583 0.96754 0.56126 0.0
C617 C 0.75031 0.91372 0.59205 0.0
C618 C 0.75718 0.93677 0.59887 0.0
C619 C 0.76122 0.91152 0.60423 0.0
C620 C 0.75525 0.90463 0.59793 0.0
C621 C 0.76236 0.92766 0.60476 0.0
C622 C 0.75125 0.92983 0.59255 0.0
C623 C 0.7446 0.90608 0.58542 0.0
O624 O 0.71818 0.90037 0.56679 0.0
O625 O 0.74303 0.8973 0.56343 0.0
O626 O 0.75476 0.9057 0.58 0.0
O627 O 0.73002 0.90951 0.58339 0.0
H628 H 0.73441 0.87473 0.57494 0.0
H629 H 0.73221 0.84668 0.5761 0.0
H630 H 0.7167 0.84386 0.55372 0.0
H631 H 0.71869 0.87196 0.55267 0.0
H632 H 0.73121 0.94605 0.54289 0.0
H633 H 0.73463 0.93128 0.55416 0.0
H634 H 0.73402 0.98847 0.55515 0.0
H635 H 0.73722 0.97362 0.56637 0.0
H636 H 0.75804 0.94922 0.5991 0.0
H637 H 0.76488 0.90419 0.6087 0.0
H638 H 0.75458 0.89217 0.59763 0.0
H639 H 0.74753 0.93701 0.58803 0.0
C640 C 0.63366 0.50015 0.81861 0.0
C641 C 0.62628 0.49107 0.82397 0.0
C642 C 0.60011 0.49907 0.81964 0.0
C643 C 0.60965 0.49048 0.82446 0.0
C644 C 0.60755 0.50821 0.81432 0.0
C645 C 0.62414 0.50869 0.8138 0.0
U646 U 0.67532 0.50603 0.82661 0.0
O647 O 0.69788 0.4941 0.82424 0.0
O648 O 0.69569 0.51896 0.82227 0.0
C649 C 0.7045 0.50653 0.8215 0.0
C650 C 0.65116 0.50093 0.8179 0.0
C651 C 0.71194 0.50461 0.81432 0.0
C652 C 0.70999 0.50226 0.80118 0.0
C653 C 0.70267 0.50366 0.80799 0.0
C654 C 0.73588 0.50253 0.80699 0.0
C655 C 0.7267 0.50178 0.80059 0.0
C656 C 0.72855 0.50395 0.81378 0.0
C657 C 0.67973 0.5149 0.84689 0.0
C658 C 0.70529 0.5203 0.85252 0.0
C659 C 0.6811 0.52184 0.85966 0.0
C660 C 0.67219 0.51769 0.85355 0.0
C661 C 0.69776 0.52328 0.85921 0.0
C662 C 0.69634 0.51614 0.8464 0.0
C663 C 0.67003 0.5112 0.84047 0.0
O664 O 0.65745 0.51465 0.81884 0.0
O665 O 0.6594 0.48982 0.821 0.0
O666 O 0.67199 0.49731 0.83775 0.0
O667 O 0.66943 0.52203 0.83548 0.0
H668 H 0.63331 0.48444 0.82779 0.0
H669 H 0.60427 0.48345 0.82866 0.0
H670 H 0.60052 0.51482 0.81049 0.0
H671 H 0.62956 0.51573 0.80961 0.0
H672 H 0.70257 0.50188 0.79637 0.0
H673 H 0.6898 0.50416 0.80831 0.0
H674 H 0.74875 0.50194 0.80675 0.0
H675 H 0.73588 0.50459 0.81862 0.0
H676 H 0.7181 0.52114 0.852 0.0
H677 H 0.67488 0.52429 0.86468 0.0
H678 H 0.65936 0.51686 0.854 0.0
H679 H 0.70235 0.51402 0.84128 0.0
C680 C 0.79823 0.38458 0.06627 0.0
C681 C 0.8043 0.37722 0.07249 0.0
C682 C 0.80057 0.35208 0.06679 0.0
C683 C 0.80552 0.36112 0.07273 0.0
C684 C 0.79435 0.35957 0.06061 0.0
C685 C 0.79325 0.37564 0.06036 0.0
U686 U 0.79031 0.42398 0.07492 0.0
O687 O 0.80207 0.44631 0.07307 0.0
O688 O 0.77661 0.44369 0.07073 0.0
C689 C 0.78923 0.45256 0.07022 0.0
C690 C 0.79686 0.4015 0.06585 0.0
C691 C 0.79147 0.46011 0.06314 0.0
C692 C 0.79493 0.4587 0.05004 0.0
C693 C 0.79322 0.45137 0.05677 0.0
C694 C 0.79339 0.48358 0.05599 0.0
C695 C 0.79497 0.47491 0.04957 0.0
C696 C 0.79164 0.47623 0.06272 0.0
C697 C 0.77986 0.42648 0.09513 0.0
C698 C 0.77369 0.45073 0.10112 0.0
C699 C 0.77154 0.42669 0.10776 0.0
C700 C 0.7764 0.4186 0.10158 0.0
C701 C 0.77004 0.44285 0.10761 0.0
C702 C 0.77855 0.44261 0.09493 0.0
C703 C 0.78433 0.41767 0.08861 0.0
O704 O 0.78243 0.40705 0.06676 0.0
O705 O 0.80786 0.40947 0.06927 0.0
O706 O 0.79876 0.42013 0.0861 0.0
O707 O 0.77346 0.41719 0.08348 0.0
H708 H 0.80815 0.38389 0.07715 0.0
H709 H 0.81052 0.3558 0.07755 0.0
H710 H 0.79012 0.35301 0.05599 0.0
H711 H 0.78842 0.3811 0.05554 0.0
H712 H 0.79631 0.45169 0.04521 0.0
H713 H 0.79318 0.43888 0.05701 0.0
H714 H 0.79318 0.49606 0.05582 0.0
H715 H 0.79027 0.48314 0.06758 0.0
H716 H 0.77282 0.46318 0.10083 0.0
H717 H 0.76858 0.42022 0.11261 0.0
H718 H 0.77727 0.40614 0.1018 0.0
H719 H 0.78118 0.44887 0.08997 0.0
C720 C 0.8951 0.53226 0.31842 0.0
C721 C 0.90266 0.52833 0.32497 0.0
C722 C 0.92849 0.53454 0.31968 0.0
C723 C 0.91923 0.52943 0.32559 0.0
C724 C 0.92077 0.53859 0.31316 0.0
C725 C 0.90423 0.53744 0.31254 0.0
U726 U 0.854 0.52444 0.32639 0.0
O727 O 0.83099 0.53566 0.32414 0.0
O728 O 0.83407 0.51095 0.322 0.0
C729 C 0.82482 0.5231 0.32131 0.0
C730 C 0.87776 0.53082 0.31761 0.0
C731 C 0.81734 0.52498 0.31414 0.0
C732 C 0.81931 0.52772 0.30101 0.0
C733 C 0.82662 0.52638 0.30783 0.0
C734 C 0.7934 0.5265 0.30678 0.0
C735 C 0.80259 0.5277 0.3004 0.0
C736 C 0.80072 0.52514 0.31358 0.0
C737 C 0.85021 0.5151 0.34665 0.0
C738 C 0.82499 0.50859 0.35235 0.0
C739 C 0.84919 0.50899 0.35952 0.0
C740 C 0.85787 0.51321 0.35335 0.0
C741 C 0.83265 0.50658 0.3591 0.0
C742 C 0.83371 0.51282 0.34617 0.0
C743 C 0.85966 0.51916 0.34021 0.0
O744 O 0.87207 0.51684 0.31851 0.0
O745 O 0.86927 0.54147 0.3209 0.0
O746 O 0.85718 0.53303 0.33755 0.0
O747 O 0.86055 0.50845 0.33517 0.0
H748 H 0.89575 0.52435 0.32957 0.0
H749 H 0.92477 0.52639 0.33071 0.0
H750 H 0.92755 0.54236 0.30848 0.0
H751 H 0.89857 0.54049 0.30744 0.0
H752 H 0.82675 0.52846 0.29622 0.0
H753 H 0.83949 0.52627 0.30817 0.0
H754 H 0.78052 0.5267 0.30652 0.0
H755 H 0.79339 0.52414 0.3184 0.0
H756 H 0.81226 0.50698 0.35185 0.0
H757 H 0.85552 0.50731 0.36459 0.0
H758 H 0.87062 0.51485 0.3538 0.0
H759 H 0.8276 0.51426 0.34102 0.0
C760 C 0.7273 0.64454 0.56619 0.0
C761 C 0.73147 0.65239 0.57258 0.0
C762 C 0.72456 0.67693 0.56692 0.0
C763 C 0.73013 0.66846 0.57294 0.0
C764 C 0.72025 0.66892 0.56056 0.0
C765 C 0.72163 0.65287 0.56021 0.0
U766 U 0.73766 0.60564 0.57462 0.0
O767 O 0.72651 0.58289 0.57312 0.0
O768 O 0.75156 0.58634 0.57017 0.0
C769 C 0.73923 0.57704 0.57 0.0
C770 C 0.72909 0.62772 0.56566 0.0
C771 C 0.73653 0.56929 0.563 0.0
C772 C 0.73204 0.57034 0.54995 0.0
C773 C 0.73396 0.57785 0.55663 0.0
C774 C 0.73494 0.54564 0.55597 0.0
C775 C 0.73261 0.55414 0.54954 0.0
C776 C 0.7369 0.55317 0.56264 0.0
C777 C 0.75076 0.60414 0.59458 0.0
C778 C 0.75479 0.58046 0.60143 0.0
C779 C 0.7639 0.60483 0.60633 0.0
C780 C 0.75815 0.61243 0.60017 0.0
C781 C 0.76233 0.58875 0.60703 0.0
C782 C 0.7491 0.58809 0.59523 0.0
C783 C 0.74515 0.61246 0.5881 0.0
O784 O 0.74377 0.62259 0.56618 0.0
O785 O 0.71887 0.61957 0.56946 0.0
O786 O 0.73053 0.60944 0.58598 0.0
O787 O 0.75534 0.61318 0.58269 0.0
H788 H 0.73584 0.6461 0.57727 0.0
H789 H 0.73336 0.67424 0.57795 0.0
H790 H 0.71613 0.67509 0.5558 0.0
H791 H 0.7184 0.64698 0.55523 0.0
H792 H 0.73007 0.57722 0.54512 0.0
H793 H 0.73358 0.59034 0.55682 0.0
H794 H 0.73563 0.53317 0.55584 0.0
H795 H 0.73891 0.54639 0.56751 0.0
H796 H 0.75353 0.56805 0.60178 0.0
H797 H 0.76944 0.61158 0.61059 0.0
H798 H 0.75952 0.62483 0.59975 0.0
H799 H 0.7435 0.58149 0.59094 0.0
C800 C 0.63377 0.53259 0.21193 0.0
C801 C 0.6264 0.52904 0.2053 0.0
C802 C 0.60039 0.53475 0.21054 0.0
C803 C 0.60984 0.53009 0.2046 0.0
C804 C 0.60791 0.53839 0.21715 0.0
C805 C 0.62445 0.53731 0.21784 0.0
U806 U 0.67507 0.525 0.20411 0.0
O807 O 0.69794 0.53635 0.20644 0.0
O808 O 0.69504 0.51162 0.20858 0.0
C809 C 0.70415 0.52383 0.20931 0.0
C810 C 0.65111 0.53123 0.2128 0.0
C811 C 0.71139 0.52579 0.21653 0.0
C812 C 0.70895 0.5287 0.22963 0.0
C813 C 0.70189 0.52723 0.22277 0.0
C814 C 0.73507 0.52753 0.22406 0.0
C815 C 0.72563 0.52881 0.23036 0.0
C816 C 0.72799 0.52602 0.21721 0.0
C817 C 0.67922 0.51571 0.18385 0.0
C818 C 0.7044 0.50869 0.17824 0.0
C819 C 0.68045 0.51022 0.17092 0.0
C820 C 0.67172 0.51441 0.17708 0.0
C821 C 0.69689 0.50725 0.17142 0.0
C822 C 0.69563 0.5129 0.1844 0.0
C823 C 0.66968 0.51972 0.19027 0.0
O824 O 0.65692 0.51728 0.21191 0.0
O825 O 0.65956 0.54193 0.20954 0.0
O826 O 0.67201 0.53359 0.19293 0.0
O827 O 0.66882 0.50899 0.1953 0.0
H828 H 0.63345 0.52542 0.20067 0.0
H829 H 0.60445 0.52737 0.19941 0.0
H830 H 0.601 0.5418 0.22186 0.0
H831 H 0.62996 0.54004 0.22301 0.0
H832 H 0.70134 0.52985 0.23435 0.0
H833 H 0.68902 0.52714 0.22233 0.0
H834 H 0.74793 0.52738 0.22443 0.0
H835 H 0.7355 0.52489 0.21245 0.0
H836 H 0.71706 0.50664 0.1788 0.0
H837 H 0.67424 0.50899 0.16579 0.0
H838 H 0.65904 0.51648 0.17657 0.0
H839 H 0.70161 0.5139 0.1896 0.0
C840 C 0.73088 0.38385 0.46402 0.0
C841 C 0.72073 0.3765 0.45903 0.0
C842 C 0.72908 0.35132 0.46352 0.0
C843 C 0.71979 0.36039 0.45881 0.0
C844 C 0.73927 0.35871 0.46848 0.0
C845 C 0.7401 0.3748 0.46875 0.0
U846 U 0.73831 0.42352 0.45547 0.0
O847 O 0.72625 0.44574 0.45733 0.0
O848 O 0.75174 0.44332 0.45968 0.0
C849 C 0.73902 0.4521 0.46016 0.0
C850 C 0.73199 0.40084 0.46447 0.0
C851 C 0.73671 0.45983 0.4672 0.0
C852 C 0.73457 0.45897 0.48037 0.0
C853 C 0.73629 0.45137 0.4737 0.0
C854 C 0.73338 0.48349 0.47408 0.0
C855 C 0.7332 0.47515 0.48065 0.0
C856 C 0.73514 0.47589 0.46742 0.0
C857 C 0.7489 0.4262 0.43528 0.0
C858 C 0.75562 0.45042 0.4294 0.0
C859 C 0.75678 0.42653 0.42259 0.0
C860 C 0.75187 0.41841 0.42876 0.0
C861 C 0.75881 0.44263 0.42283 0.0
C862 C 0.75071 0.44227 0.43557 0.0
C863 C 0.74446 0.41733 0.44178 0.0
O864 O 0.74633 0.40662 0.46363 0.0
O865 O 0.72089 0.40883 0.46109 0.0
O866 O 0.72999 0.41968 0.44427 0.0
O867 O 0.75528 0.41689 0.44693 0.0
H868 H 0.71351 0.38316 0.45528 0.0
H869 H 0.71195 0.35503 0.45488 0.0
H870 H 0.74644 0.35205 0.47225 0.0
H871 H 0.74795 0.38019 0.47267 0.0
H872 H 0.73465 0.45219 0.48531 0.0
H873 H 0.73748 0.43893 0.47362 0.0
H874 H 0.73209 0.49592 0.47407 0.0
H875 H 0.73535 0.48258 0.46245 0.0
H876 H 0.7569 0.46282 0.42975 0.0
H877 H 0.75937 0.42012 0.41767 0.0
H878 H 0.75062 0.406 0.42846 0.0
H879 H 0.74845 0.44846 0.44058 0.0
C880 C 0.89517 0.49876 0.71218 0.0
C881 C 0.90243 0.49061 0.70646 0.0
C882 C 0.92868 0.49782 0.71094 0.0
C883 C 0.91903 0.49007 0.70588 0.0
C884 C 0.92137 0.50601 0.71664 0.0
C885 C 0.90479 0.50642 0.71726 0.0
U886 U 0.85362 0.50508 0.70422 0.0
O887 O 0.83094 0.49336 0.70654 0.0
O888 O 0.83333 0.51818 0.70857 0.0
C889 C 0.82445 0.50582 0.70933 0.0
C890 C 0.87769 0.49963 0.71294 0.0
C891 C 0.81713 0.50388 0.71654 0.0
C892 C 0.81941 0.50125 0.72965 0.0
C893 C 0.82656 0.50269 0.72281 0.0
C894 C 0.79337 0.50195 0.72399 0.0
C895 C 0.80272 0.50093 0.73033 0.0
C896 C 0.80053 0.50343 0.71716 0.0
C897 C 0.84984 0.51439 0.68389 0.0
C898 C 0.82507 0.52224 0.67814 0.0
C899 C 0.84928 0.52049 0.67101 0.0
C900 C 0.85763 0.51575 0.67719 0.0
C901 C 0.83294 0.524 0.67143 0.0
C902 C 0.83348 0.5175 0.68433 0.0
C903 C 0.85916 0.51038 0.69038 0.0
O904 O 0.87148 0.51341 0.71204 0.0
O905 O 0.8694 0.48863 0.70979 0.0
O906 O 0.85688 0.49649 0.69304 0.0
O907 O 0.85978 0.52112 0.69542 0.0
H908 H 0.89529 0.48471 0.70243 0.0
H909 H 0.92433 0.4838 0.7014 0.0
H910 H 0.92848 0.51195 0.72067 0.0
H911 H 0.89946 0.51276 0.72171 0.0
H912 H 0.82696 0.5003 0.73441 0.0
H913 H 0.83943 0.50295 0.72241 0.0
H914 H 0.7805 0.50194 0.72432 0.0
H915 H 0.79308 0.50436 0.71237 0.0
H916 H 0.81254 0.52497 0.67865 0.0
H917 H 0.85564 0.52148 0.66591 0.0
H918 H 0.87026 0.51335 0.67676 0.0
H919 H 0.82729 0.51654 0.68948 0.0
C920 C 0.79913 0.64549 0.96455 0.0
C921 C 0.79526 0.65348 0.95815 0.0
C922 C 0.8014 0.67794 0.96405 0.0
C923 C 0.79638 0.66957 0.9579 0.0
C924 C 0.80545 0.6698 0.97041 0.0
C925 C 0.80432 0.65372 0.97065 0.0
U926 U 0.79037 0.60652 0.95582 0.0
O927 O 0.80185 0.58397 0.95751 0.0
O928 O 0.77647 0.58695 0.95995 0.0
C929 C 0.78896 0.57785 0.96035 0.0
C930 C 0.79757 0.62864 0.96498 0.0
C931 C 0.79116 0.57001 0.96737 0.0
C932 C 0.79424 0.57082 0.98051 0.0
C933 C 0.79267 0.57846 0.97384 0.0
C934 C 0.79305 0.54623 0.97428 0.0
C935 C 0.79434 0.5546 0.98082 0.0
C936 C 0.79146 0.55388 0.96763 0.0
C937 C 0.77958 0.60464 0.93563 0.0
C938 C 0.77191 0.5808 0.92965 0.0
C939 C 0.77273 0.60468 0.92281 0.0
C940 C 0.77759 0.61255 0.92906 0.0
C941 C 0.76976 0.58871 0.92303 0.0
C942 C 0.77679 0.5887 0.9359 0.0
C943 C 0.78424 0.61325 0.94218 0.0
O944 O 0.78305 0.62332 0.96412 0.0
O945 O 0.80834 0.62069 0.96139 0.0
O946 O 0.79867 0.6105 0.94462 0.0
O947 O 0.77347 0.61379 0.94735 0.0
H948 H 0.79121 0.64727 0.95339 0.0
H949 H 0.79302 0.67548 0.95294 0.0
H950 H 0.8096 0.67584 0.9752 0.0
H951 H 0.80742 0.64772 0.97562 0.0
H952 H 0.79503 0.57763 0.98543 0.0
H953 H 0.79246 0.59095 0.97373 0.0
H954 H 0.79334 0.53375 0.9743 0.0
H955 H 0.79038 0.54719 0.96268 0.0
H956 H 0.76989 0.56849 0.92999 0.0
H957 H 0.77096 0.61118 0.91785 0.0
H958 H 0.77963 0.62487 0.92877 0.0
H959 H 0.77831 0.58242 0.94095 0.0
C960 C 0.39558 0.53176 0.2123 0.0
C961 C 0.40307 0.52799 0.20571 0.0
C962 C 0.42895 0.53413 0.21096 0.0
C963 C 0.41962 0.52914 0.20505 0.0
C964 C 0.42131 0.53802 0.21752 0.0
C965 C 0.40478 0.53683 0.21818 0.0
U966 U 0.35463 0.52339 0.20437 0.0
O967 O 0.33479 0.50982 0.20881 0.0
O968 O 0.33147 0.53444 0.2065 0.0
C969 C 0.32543 0.52191 0.20942 0.0
C970 C 0.37826 0.53024 0.21313 0.0
C971 C 0.31798 0.52395 0.21658 0.0
C972 C 0.32003 0.52707 0.22968 0.0
C973 C 0.32729 0.52557 0.22287 0.0
C974 C 0.29408 0.52557 0.22397 0.0
C975 C 0.30332 0.52702 0.23032 0.0
C976 C 0.30136 0.52403 0.21717 0.0
C977 C 0.3516 0.51332 0.18409 0.0
C978 C 0.32703 0.5055 0.17817 0.0
C979 C 0.35149 0.50712 0.17123 0.0
C980 C 0.35963 0.51184 0.17746 0.0
C981 C 0.33512 0.50375 0.17151 0.0
C982 C 0.33522 0.51023 0.18442 0.0
C983 C 0.36062 0.51774 0.19061 0.0
O984 O 0.36968 0.54072 0.20976 0.0
O985 O 0.37267 0.51619 0.21234 0.0
O986 O 0.36149 0.5072 0.19573 0.0
O987 O 0.35782 0.53165 0.19315 0.0
H988 H 0.39611 0.5241 0.20111 0.0
H989 H 0.4251 0.52623 0.1999 0.0
H990 H 0.42814 0.5417 0.2222 0.0
H991 H 0.39918 0.53974 0.22331 0.0
H992 H 0.32749 0.52836 0.23445 0.0
H993 H 0.34017 0.5256 0.22251 0.0
H994 H 0.28121 0.5253 0.22428 0.0
H995 H 0.29399 0.52276 0.21237 0.0
H996 H 0.31446 0.50289 0.17859 0.0
H997 H 0.35803 0.50615 0.16618 0.0
H998 H 0.37227 0.51424 0.17712 0.0
H999 H 0.32885 0.5113 0.18952 0.0
C1000 C 0.22827 0.64561 0.96405 0.0
C1001 C 0.23895 0.65424 0.95981 0.0
C1002 C 0.22556 0.67807 0.96334 0.0
C1003 C 0.23765 0.67031 0.95949 0.0
C1004 C 0.21469 0.6693 0.96744 0.0
C1005 C 0.21607 0.65324 0.9678 0.0
U1006 U 0.23854 0.60614 0.95608 0.0
O1007 O 0.25195 0.58684 0.96082 0.0
O1008 O 0.22698 0.58361 0.95768 0.0
C1009 C 0.23949 0.5777 0.96096 0.0
C1010 C 0.2298 0.62873 0.9647 0.0
C1011 C 0.23641 0.57019 0.96799 0.0
C1012 C 0.23197 0.57164 0.98103 0.0
C1013 C 0.23411 0.57895 0.97431 0.0
C1014 C 0.23408 0.54674 0.97513 0.0
C1015 C 0.23204 0.55544 0.98152 0.0
C1016 C 0.23627 0.55407 0.96843 0.0
C1017 C 0.25263 0.60374 0.93627 0.0
C1018 C 0.25559 0.57997 0.92938 0.0
C1019 C 0.26706 0.60371 0.92483 0.0
C1020 C 0.26124 0.61158 0.9309 0.0
C1021 C 0.26433 0.58781 0.924 0.0
C1022 C 0.24984 0.58786 0.93549 0.0
C1023 C 0.24682 0.61234 0.94263 0.0
O1024 O 0.21963 0.62058 0.96087 0.0
O1025 O 0.24439 0.62323 0.96448 0.0
O1026 O 0.25675 0.61314 0.94814 0.0
O1027 O 0.23205 0.60961 0.94461 0.0
H1028 H 0.24842 0.64859 0.95683 0.0
H1029 H 0.24636 0.67665 0.95635 0.0
H1030 H 0.20505 0.67482 0.97036 0.0
H1031 H 0.20765 0.64677 0.97105 0.0
H1032 H 0.23023 0.57867 0.98583 0.0
H1033 H 0.23413 0.59144 0.97406 0.0
H1034 H 0.23439 0.53427 0.97532 0.0
H1035 H 0.23808 0.54714 0.96359 0.0
H1036 H 0.25343 0.5677 0.92893 0.0
H1037 H 0.27356 0.61013 0.92075 0.0
H1038 H 0.26349 0.62384 0.93142 0.0
H1039 H 0.24329 0.58158 0.93961 0.0
C1040 C 0.13351 0.49806 0.71167 0.0
C1041 C 0.12565 0.50678 0.70633 0.0
C1042 C 0.10007 0.49666 0.71034 0.0
C1043 C 0.10906 0.50614 0.70569 0.0
C1044 C 0.10805 0.4877 0.71558 0.0
C1045 C 0.12462 0.48844 0.71625 0.0
U1046 U 0.17503 0.50539 0.70406 0.0
O1047 O 0.19516 0.51825 0.70868 0.0
O1048 O 0.19775 0.49359 0.70629 0.0
C1049 C 0.20412 0.50588 0.70928 0.0
C1050 C 0.15089 0.49901 0.71259 0.0
C1051 C 0.21134 0.50351 0.71648 0.0
C1052 C 0.20887 0.49986 0.72954 0.0
C1053 C 0.20183 0.50158 0.72268 0.0
C1054 C 0.235 0.50177 0.72403 0.0
C1055 C 0.22555 0.50001 0.7303 0.0
C1056 C 0.22794 0.50352 0.71719 0.0
C1057 C 0.17915 0.51575 0.68387 0.0
C1058 C 0.20433 0.52238 0.67817 0.0
C1059 C 0.18012 0.52193 0.67101 0.0
C1060 C 0.17147 0.51766 0.67717 0.0
C1061 C 0.19665 0.52438 0.67142 0.0
C1062 C 0.19564 0.51808 0.68434 0.0
C1063 C 0.16969 0.51154 0.69029 0.0
O1064 O 0.15921 0.48834 0.70922 0.0
O1065 O 0.15706 0.51288 0.71198 0.0
O1066 O 0.16902 0.522 0.69545 0.0
O1067 O 0.17189 0.49749 0.69278 0.0
H1068 H 0.13231 0.51417 0.70268 0.0
H1069 H 0.10328 0.51303 0.70154 0.0
H1070 H 0.10145 0.48039 0.71928 0.0
H1071 H 0.13048 0.48161 0.72039 0.0
H1072 H 0.20126 0.49835 0.73423 0.0
H1073 H 0.18897 0.5015 0.72223 0.0
H1074 H 0.24785 0.50214 0.72442 0.0
H1075 H 0.23545 0.50505 0.71245 0.0
H1076 H 0.21706 0.52402 0.67866 0.0
H1077 H 0.17378 0.52361 0.66594 0.0
H1078 H 0.15873 0.51597 0.67672 0.0
H1079 H 0.20175 0.51662 0.68949 0.0
C1080 C 0.30013 0.38362 0.46425 0.0
C1081 C 0.28982 0.37465 0.45999 0.0
C1082 C 0.30353 0.3512 0.46382 0.0
C1083 C 0.29146 0.3586 0.45981 0.0
C1084 C 0.31405 0.36032 0.46795 0.0
C1085 C 0.31232 0.37636 0.46817 0.0
U1086 U 0.28903 0.42249 0.45591 0.0
O1087 O 0.27489 0.44158 0.46042 0.0
O1088 O 0.29979 0.44541 0.45731 0.0
C1089 C 0.28703 0.45111 0.46047 0.0
C1090 C 0.29817 0.40049 0.46478 0.0
C1091 C 0.28969 0.45921 0.46739 0.0
C1092 C 0.30002 0.45996 0.47973 0.0
C1093 C 0.298 0.45218 0.47312 0.0
C1094 C 0.28541 0.48181 0.47493 0.0
C1095 C 0.29371 0.47487 0.48072 0.0
C1096 C 0.28345 0.47405 0.46833 0.0
C1097 C 0.27553 0.42379 0.43602 0.0
C1098 C 0.26919 0.44758 0.42964 0.0
C1099 C 0.26423 0.42293 0.42388 0.0
C1100 C 0.27014 0.41535 0.43002 0.0
C1101 C 0.26361 0.43913 0.42362 0.0
C1102 C 0.27506 0.43996 0.4358 0.0
C1103 C 0.28135 0.41551 0.44246 0.0
O1104 O 0.30822 0.40876 0.46093 0.0
O1105 O 0.28345 0.40561 0.46443 0.0
O1106 O 0.27129 0.41467 0.44792 0.0
O1107 O 0.29596 0.41875 0.44451 0.0
H1108 H 0.28037 0.38001 0.45688 0.0
H1109 H 0.28301 0.35199 0.45664 0.0
H1110 H 0.32367 0.35508 0.471 0.0
H1111 H 0.32047 0.38309 0.47145 0.0
H1112 H 0.30662 0.45433 0.48404 0.0
H1113 H 0.30285 0.44068 0.4725 0.0
H1114 H 0.28014 0.49314 0.47552 0.0
H1115 H 0.27689 0.47959 0.46397 0.0
H1116 H 0.26873 0.46006 0.42964 0.0
H1117 H 0.26025 0.41608 0.4193 0.0
H1118 H 0.27046 0.40286 0.43009 0.0
H1119 H 0.27912 0.44666 0.44041 0.0
C1120 C 0.39528 0.4976 0.81859 0.0
C1121 C 0.40307 0.50604 0.82405 0.0
C1122 C 0.42872 0.4962 0.81994 0.0
C1123 C 0.41965 0.5054 0.82469 0.0
C1124 C 0.42081 0.48751 0.81459 0.0
C1125 C 0.40424 0.48826 0.81391 0.0
U1126 U 0.35391 0.50496 0.82632 0.0
O1127 O 0.33374 0.51803 0.82184 0.0
O1128 O 0.33111 0.49334 0.82414 0.0
C1129 C 0.32472 0.50573 0.82122 0.0
C1130 C 0.37789 0.49857 0.81768 0.0
C1131 C 0.31726 0.50357 0.81406 0.0
C1132 C 0.31921 0.50106 0.80093 0.0
C1133 C 0.32653 0.50254 0.80773 0.0
C1134 C 0.29333 0.50136 0.80674 0.0
C1135 C 0.3025 0.50057 0.80034 0.0
C1136 C 0.30065 0.50286 0.81353 0.0
C1137 C 0.35047 0.5152 0.84658 0.0
C1138 C 0.32596 0.52356 0.8524 0.0
C1139 C 0.35004 0.52054 0.85952 0.0
C1140 C 0.35826 0.51592 0.85329 0.0
C1141 C 0.33383 0.52457 0.85915 0.0
C1142 C 0.33423 0.51892 0.84616 0.0
C1143 C 0.35962 0.51091 0.84007 0.0
O1144 O 0.3696 0.4879 0.82106 0.0
O1145 O 0.37173 0.51245 0.81833 0.0
O1146 O 0.36025 0.52141 0.83493 0.0
O1147 O 0.3572 0.49692 0.83758 0.0
H1148 H 0.39635 0.51321 0.82777 0.0
H1149 H 0.42538 0.51206 0.82893 0.0
H1150 H 0.42747 0.48042 0.81081 0.0
H1151 H 0.39842 0.48164 0.80968 0.0
H1152 H 0.32664 0.50065 0.79612 0.0
H1153 H 0.33939 0.50307 0.80805 0.0
H1154 H 0.28046 0.50077 0.80651 0.0
H1155 H 0.29333 0.50358 0.81837 0.0
H1156 H 0.31352 0.52668 0.85192 0.0
H1157 H 0.35639 0.52093 0.86465 0.0
H1158 H 0.37078 0.51302 0.85371 0.0
H1159 H 0.32803 0.51842 0.841 0.0
C1160 C 0.30063 0.64505 0.56596 0.0
C1161 C 0.2964 0.65312 0.57228 0.0
C1162 C 0.30344 0.67746 0.56647 0.0
C1163 C 0.2978 0.6692 0.57254 0.0
C1164 C 0.30788 0.66922 0.56019 0.0
C1165 C 0.30647 0.65317 0.55994 0.0
U1166 U 0.29033 0.60627 0.57454 0.0
O1167 O 0.276 0.58716 0.57018 0.0
O1168 O 0.3011 0.58338 0.57297 0.0
C1169 C 0.28821 0.5777 0.56993 0.0
C1170 C 0.29864 0.62825 0.56549 0.0
C1171 C 0.29055 0.56975 0.56294 0.0
C1172 C 0.30181 0.56858 0.55078 0.0
C1173 C 0.29995 0.57623 0.55742 0.0
C1174 C 0.28476 0.548 0.55507 0.0
C1175 C 0.2942 0.55436 0.5495 0.0
C1176 C 0.28298 0.55561 0.56172 0.0
C1177 C 0.27849 0.60458 0.59461 0.0
C1178 C 0.27197 0.58061 0.60076 0.0
C1179 C 0.26926 0.60495 0.60711 0.0
C1180 C 0.27452 0.61276 0.60092 0.0
C1181 C 0.26789 0.58877 0.60712 0.0
C1182 C 0.27722 0.58845 0.59456 0.0
C1183 C 0.28369 0.61308 0.58812 0.0
O1184 O 0.30899 0.61999 0.56918 0.0
O1185 O 0.28394 0.6233 0.56618 0.0
O1186 O 0.27319 0.61392 0.58283 0.0
O1187 O 0.29816 0.60999 0.58582 0.0
H1188 H 0.29185 0.647 0.57698 0.0
H1189 H 0.29413 0.67517 0.57743 0.0
H1190 H 0.3125 0.67517 0.55546 0.0
H1191 H 0.30983 0.64709 0.55503 0.0
H1192 H 0.30931 0.57375 0.54666 0.0
H1193 H 0.30584 0.58719 0.55826 0.0
H1194 H 0.27848 0.53724 0.55425 0.0
H1195 H 0.27557 0.55051 0.56589 0.0
H1196 H 0.27121 0.56815 0.6006 0.0
H1197 H 0.26597 0.61163 0.61185 0.0
H1198 H 0.27536 0.62522 0.60103 0.0
H1199 H 0.28026 0.58196 0.58972 0.0
C1200 C 0.13329 0.53171 0.31815 0.0
C1201 C 0.12588 0.52807 0.32477 0.0
C1202 C 0.09993 0.53414 0.31956 0.0
C1203 C 0.10934 0.52926 0.32546 0.0
C1204 C 0.10749 0.5379 0.31296 0.0
C1205 C 0.12403 0.53668 0.31227 0.0
U1206 U 0.17415 0.5229 0.32605 0.0
O1207 O 0.19397 0.50933 0.3216 0.0
O1208 O 0.19737 0.53386 0.32404 0.0
C1209 C 0.2034 0.52136 0.32108 0.0
C1210 C 0.15061 0.53014 0.3173 0.0
C1211 C 0.21106 0.52349 0.31397 0.0
C1212 C 0.20949 0.52601 0.30082 0.0
C1213 C 0.20198 0.5245 0.30758 0.0
C1214 C 0.2352 0.52578 0.30679 0.0
C1215 C 0.22622 0.52656 0.30034 0.0
C1216 C 0.22769 0.52425 0.31353 0.0
C1217 C 0.17691 0.51214 0.34626 0.0
C1218 C 0.20178 0.5064 0.35246 0.0
C1219 C 0.17667 0.5032 0.35876 0.0
C1220 C 0.16853 0.50813 0.35256 0.0
C1221 C 0.19338 0.50218 0.35878 0.0
C1222 C 0.1936 0.5113 0.34624 0.0
C1223 C 0.16797 0.51685 0.33976 0.0
O1224 O 0.1592 0.54048 0.32074 0.0
O1225 O 0.15616 0.51605 0.318 0.0
O1226 O 0.16712 0.50647 0.33457 0.0
O1227 O 0.17085 0.53082 0.33732 0.0
H1228 H 0.13289 0.52425 0.32938 0.0
H1229 H 0.10392 0.52645 0.33064 0.0
H1230 H 0.10061 0.5415 0.30828 0.0
H1231 H 0.12957 0.53949 0.30712 0.0
H1232 H 0.2022 0.52641 0.29597 0.0
H1233 H 0.18911 0.52395 0.30782 0.0
H1234 H 0.24807 0.52643 0.30664 0.0
H1235 H 0.23487 0.52356 0.31842 0.0
H1236 H 0.21464 0.50561 0.35228 0.0
H1237 H 0.16985 0.50027 0.36357 0.0
H1238 H 0.15564 0.50875 0.35267 0.0
H1239 H 0.20025 0.51431 0.34139 0.0
C1240 C 0.22912 0.38401 0.0663 0.0
C1241 C 0.23344 0.37601 0.07263 0.0
C1242 C 0.22674 0.35157 0.06683 0.0
C1243 C 0.23225 0.35992 0.0729 0.0
C1244 C 0.22225 0.35974 0.06054 0.0
C1245 C 0.22344 0.37581 0.06028 0.0
U1246 U 0.23915 0.42282 0.07488 0.0
O1247 O 0.25286 0.44227 0.0705 0.0
O1248 O 0.22778 0.44552 0.07346 0.0
C1249 C 0.24045 0.45151 0.07037 0.0
C1250 C 0.23076 0.40085 0.06584 0.0
C1251 C 0.2377 0.45945 0.06341 0.0
C1252 C 0.23402 0.45886 0.05031 0.0
C1253 C 0.23598 0.45111 0.05692 0.0
C1254 C 0.23515 0.48335 0.05663 0.0
C1255 C 0.23371 0.47509 0.05007 0.0
C1256 C 0.23714 0.47558 0.06323 0.0
C1257 C 0.25227 0.42417 0.09482 0.0
C1258 C 0.2565 0.44794 0.10156 0.0
C1259 C 0.26516 0.42353 0.10663 0.0
C1260 C 0.25943 0.41588 0.10048 0.0
C1261 C 0.26383 0.43966 0.10723 0.0
C1262 C 0.25082 0.44026 0.09538 0.0
C1263 C 0.24673 0.41584 0.08834 0.0
O1264 O 0.22047 0.40886 0.06968 0.0
O1265 O 0.2454 0.40605 0.06638 0.0
O1266 O 0.25691 0.41524 0.08292 0.0
O1267 O 0.23207 0.41879 0.08624 0.0
H1268 H 0.23787 0.38219 0.07733 0.0
H1269 H 0.23596 0.354 0.0778 0.0
H1270 H 0.21772 0.35372 0.05581 0.0
H1271 H 0.22001 0.38183 0.05536 0.0
H1272 H 0.23312 0.45214 0.04536 0.0
H1273 H 0.23639 0.43862 0.05697 0.0
H1274 H 0.23469 0.49583 0.05666 0.0
H1275 H 0.23837 0.4822 0.0682 0.0
H1276 H 0.25543 0.46037 0.10183 0.0
H1277 H 0.27056 0.4168 0.11094 0.0
H1278 H 0.26064 0.40346 0.10014 0.0
H1279 H 0.24541 0.44686 0.09103 0.0
H1280 H 0.27597 1.01252 0.23451 0.0
H1281 H 0.263 1.01235 0.24643 0.0
H1282 H 0.29838 0.04386 0.25461 0.0
H1283 H 0.31117 0.04444 0.24267 0.0
H1284 H 0.27565 1.00404 0.26016 0.0
H1285 H 0.25605 0.06519 0.25962 0.0
H1286 H 0.26263 0.05512 0.25157 0.0
H1287 H 0.27693 0.0624 0.25798 0.0
C1288 C 0.28091 0.01953 0.23883 0.0
C1289 C 0.29456 0.02858 0.23762 0.0
C1290 C 0.27354 0.01934 0.24565 0.0
C1291 C 0.27959 0.02827 0.25137 0.0
C1292 C 0.29336 0.03708 0.25023 0.0
H1293 H 0.2529 0.04546 0.29608 0.0
H1294 H 0.26575 0.04435 0.28417 0.0
C1295 C 0.30076 0.03727 0.24342 0.0
C1296 C 0.27155 0.0283 0.25855 0.0
H1297 H 0.25279 0.05177 0.27076 0.0
C1298 C 0.27058 1.01444 0.26247 0.0
C1299 C 0.26493 0.0419 0.26154 0.0
C1300 C 0.26503 0.05698 0.25745 0.0
C1301 C 0.26349 1.01389 0.26939 0.0
C1302 C 0.25695 0.02752 0.2724 0.0
C1303 C 0.25784 0.04135 0.26845 0.0
C1304 C 0.24928 0.02776 0.27967 0.0
C1305 C 0.26344 0.99882 0.27349 0.0
C1306 C 0.23566 0.01888 0.28108 0.0
C1307 C 0.22835 0.01939 0.28791 0.0
C1308 C 0.23446 0.02886 0.29346 0.0
C1309 C 0.24803 0.03783 0.29199 0.0
C1310 C 0.25533 0.0373 0.28517 0.0
H1311 H 0.27239 0.99061 0.2713 0.0
H1312 H 0.26591 1.00069 0.27936 0.0
H1313 H 0.25153 0.99341 0.27299 0.0
H1314 H 0.2306 1.01165 0.27687 0.0
H1315 H 0.21798 1.01226 0.28886 0.0
H1316 H 0.29228 0.06992 0.49673 0.0
H1317 H 0.29403 0.05487 0.50795 0.0
H1318 H 0.30208 1.01357 0.49543 0.0
H1319 H 0.30106 0.0286 0.48421 0.0
H1320 H 0.27492 0.03135 0.51226 0.0
H1321 H 0.3372 1.01054 0.51039 0.0
H1322 H 0.3296 0.02587 0.50473 0.0
H1323 H 0.32557 1.00606 0.50249 0.0
C1324 C 0.29474 0.05769 0.49636 0.0
C1325 C 0.29656 0.0505 0.48955 0.0
C1326 C 0.29563 0.04908 0.50278 0.0
C1327 C 0.29841 0.03312 0.50255 0.0
C1328 C 0.30026 0.02591 0.49577 0.0
H1329 H 0.29553 0.95932 0.53447 0.0
H1330 H 0.29716 0.97485 0.52337 0.0
C1331 C 0.29944 0.03451 0.48934 0.0
C1332 C 0.29855 0.02391 0.50936 0.0
H1333 H 0.32083 0.99861 0.51938 0.0
C1334 C 0.28501 0.02429 0.51384 0.0
C1335 C 0.31171 1.01466 0.51142 0.0
C1336 C 0.32691 1.01435 0.50705 0.0
C1337 C 0.28415 0.01547 0.52023 0.0
C1338 C 0.29724 1.00614 0.52224 0.0
C1339 C 0.3108 1.00575 0.51779 0.0
C1340 C 0.29704 0.99676 0.52898 0.0
C1341 C 0.26913 0.01597 0.52472 0.0
C1342 C 0.29677 1.00394 0.53581 0.0
C1343 C 0.29598 0.99512 0.54216 0.0
C1344 C 0.29543 0.9789 0.54182 0.0
C1345 C 0.29608 0.97175 0.53496 0.0
C1346 C 0.29693 0.9806 0.5286 0.0
H1347 H 0.25902 0.02113 0.52168 0.0
H1348 H 0.26572 1.0042 0.52652 0.0
H1349 H 0.27124 0.02305 0.52965 0.0
H1350 H 0.29712 0.01639 0.53622 0.0
H1351 H 0.29586 1.00102 0.54735 0.0
H1352 H 0.21705 0.98389 0.74287 0.0
H1353 H 0.2299 0.98463 0.75481 0.0
H1354 H 0.26521 0.01605 0.74649 0.0
H1355 H 0.25221 0.0157 0.73458 0.0
H1356 H 0.26156 0.9762 0.75807 0.0
H1357 H 0.24972 0.0374 0.76517 0.0
H1358 H 0.23912 0.0275 0.75802 0.0
H1359 H 0.25896 0.03448 0.75647 0.0
C1360 C 0.22741 0.99115 0.74361 0.0
C1361 C 0.23356 0.99978 0.73777 0.0
C1362 C 0.23479 0.99148 0.75042 0.0
C1363 C 0.24839 1.00053 0.75156 0.0
C1364 C 0.25458 1.00918 0.74576 0.0
H1365 H 0.31075 0.01513 0.78874 0.0
H1366 H 0.29804 0.01539 0.77675 0.0
C1367 C 0.24722 1.00883 0.73894 0.0
C1368 C 0.25642 1.00047 0.75874 0.0
H1369 H 0.26691 0.0235 0.77302 0.0
C1370 C 0.26268 0.98652 0.76135 0.0
C1371 C 0.25794 1.01398 0.763 0.0
C1372 C 0.25097 0.02918 0.76057 0.0
C1373 C 0.27059 0.98573 0.76807 0.0
C1374 C 0.272 0.99921 0.77236 0.0
C1375 C 0.26582 1.01319 0.76973 0.0
C1376 C 0.2797 0.99899 0.77962 0.0
C1377 C 0.27765 0.97053 0.77045 0.0
C1378 C 0.27349 0.98983 0.78523 0.0
C1379 C 0.28078 0.98957 0.79207 0.0
C1380 C 0.29439 0.99856 0.79345 0.0
C1381 C 0.30045 1.00789 0.78783 0.0
C1382 C 0.29313 1.00814 0.78099 0.0
H1383 H 0.2794 0.96258 0.76578 0.0
H1384 H 0.28928 0.97224 0.7732 0.0
H1385 H 0.26944 0.96488 0.77435 0.0
H1386 H 0.26296 0.9829 0.78434 0.0
H1387 H 0.27587 0.98215 0.79624 0.0
H1388 H 0.2476 0.06525 0.03558 0.0
H1389 H 0.24686 0.04994 0.02441 0.0
H1390 H 0.21242 0.01944 0.03413 0.0
H1391 H 0.21277 0.03491 0.04526 0.0
H1392 H 0.2545 0.01834 0.0232 0.0
H1393 H 0.19241 0.02994 1.01431 0.0
H1394 H 0.2025 0.04173 0.02095 0.0
H1395 H 0.19444 0.02335 0.02352 0.0
C1396 C 0.23965 0.05545 0.0353 0.0
C1397 C 0.23021 0.05133 0.04131 0.0
C1398 C 0.23933 0.04665 0.02893 0.0
C1399 C 0.22946 0.03365 0.02841 0.0
C1400 C 0.21993 0.02957 0.03437 0.0
H1401 H 0.21524 0.96485 0.99439 0.0
H1402 H 0.21433 0.9798 1.00569 0.0
C1403 C 0.22027 0.03833 0.04076 0.0
C1404 C 0.22974 0.02398 0.02176 0.0
H1405 H 0.20674 1.01098 1.00772 0.0
C1406 C 0.24408 0.01677 0.0198 0.0
C1407 C 0.21609 0.02186 0.01736 0.0
C1408 C 0.20051 0.02971 0.01909 0.0
C1409 C 0.24512 1.00739 1.0136 0.0
C1410 C 0.23153 1.00542 1.00915 0.0
C1411 C 0.21714 1.01251 1.01114 0.0
C1412 C 0.23213 0.99632 1.00231 0.0
C1413 C 0.2607 0.99945 1.01194 0.0
C1414 C 0.2423 1.00075 0.99664 0.0
C1415 C 0.24293 0.99219 0.9902 0.0
C1416 C 0.2333 0.97907 0.98928 0.0
C1417 C 0.22298 0.97476 0.99496 0.0
C1418 C 0.22236 0.98334 1.0014 0.0
H1419 H 0.26838 0.9986 0.01684 0.0
H1420 H 0.2587 0.98767 1.00976 0.0
H1421 H 0.26724 1.00621 1.00778 0.0
H1422 H 0.24973 1.01087 0.99717 0.0
H1423 H 0.25112 0.99577 0.98598 0.0
H1424 H 0.71737 1.0137 0.78791 0.0
H1425 H 0.73006 1.01405 0.77592 0.0
H1426 H 0.76497 0.98116 0.78338 0.0
H1427 H 0.75207 0.98032 0.79527 0.0
H1428 H 0.76121 0.02203 0.77225 0.0
H1429 H 0.74856 0.96134 0.76471 0.0
H1430 H 0.73868 0.97091 0.77217 0.0
H1431 H 0.75848 0.96338 0.7733 0.0
C1432 C 0.72762 1.00638 0.78697 0.0
C1433 C 0.73365 0.99692 0.79255 0.0
C1434 C 0.73492 1.00668 0.78013 0.0
C1435 C 0.74831 0.99746 0.77872 0.0
C1436 C 0.75447 0.98816 0.7843 0.0
H1437 H 0.81161 0.9827 0.74222 0.0
H1438 H 0.79846 0.98333 0.75409 0.0
C1439 C 0.74719 0.98784 0.79113 0.0
C1440 C 0.75605 0.99778 0.77147 0.0
H1441 H 0.76663 0.97496 0.75712 0.0
C1442 C 0.76231 1.01177 0.76891 0.0
C1443 C 0.75746 0.98437 0.76713 0.0
C1444 C 0.75031 0.96917 0.76943 0.0
C1445 C 0.77029 1.01264 0.76221 0.0
C1446 C 0.77184 0.99919 0.75792 0.0
C1447 C 0.76548 0.98523 0.76045 0.0
C1448 C 0.78004 0.99932 0.75077 0.0
C1449 C 0.77734 0.02783 0.75986 0.0
C1450 C 0.774 1.00804 0.74497 0.0
C1451 C 0.78153 1.00776 0.73818 0.0
C1452 C 0.79522 0.99869 0.73707 0.0
C1453 C 0.80123 0.98998 0.74291 0.0
C1454 C 0.79367 0.99024 0.74969 0.0
H1455 H 0.77848 0.036 0.76449 0.0
H1456 H 0.78926 0.02613 0.75738 0.0
H1457 H 0.76948 0.03321 0.75573 0.0
H1458 H 0.76335 0.01494 0.74566 0.0
H1459 H 0.77665 1.01469 0.73381 0.0
H1460 H 0.74694 0.96296 0.53504 0.0
H1461 H 0.74556 0.97855 0.52396 0.0
H1462 H 0.71336 1.01007 0.53459 0.0
H1463 H 0.71463 0.99452 0.54568 0.0
H1464 H 0.71951 0.98692 0.51534 0.0
H1465 H 0.74864 0.03855 0.52725 0.0
H1466 H 0.74897 0.01995 0.53166 0.0
H1467 H 0.73147 0.03186 0.53213 0.0
C1468 C 0.73944 0.97313 0.535 0.0
C1469 C 0.73097 0.97754 0.54127 0.0
C1470 C 0.73872 0.98206 0.52868 0.0
C1471 C 0.72959 0.99562 0.52849 0.0
C1472 C 0.72079 0.99986 0.53466 0.0
H1473 H 0.71546 0.06515 0.49467 0.0
H1474 H 0.71387 0.04975 0.50582 0.0
C1475 C 0.72152 0.99095 0.541 0.0
C1476 C 0.72928 1.00528 0.52182 0.0
H1477 H 0.73867 0.04101 0.51527 0.0
C1478 C 0.72371 0.99874 0.51532 0.0
C1479 C 0.73473 0.02072 0.52181 0.0
C1480 C 0.74142 0.02819 0.52856 0.0
C1481 C 0.72335 1.00725 0.50882 0.0
C1482 C 0.72897 0.02262 0.5088 0.0
C1483 C 0.73435 0.02923 0.51531 0.0
C1484 C 0.72982 0.03189 0.50202 0.0
C1485 C 0.71678 0.99976 0.50205 0.0
C1486 C 0.73951 0.02708 0.49624 0.0
C1487 C 0.74052 0.03588 0.48989 0.0
C1488 C 0.73191 0.04974 0.48919 0.0
C1489 C 0.72234 0.05462 0.49504 0.0
C1490 C 0.72135 0.04579 0.5014 0.0
H1491 H 0.70908 0.98974 0.50338 0.0
H1492 H 0.70979 1.00813 0.49878 0.0
H1493 H 0.7268 0.99553 0.49866 0.0
H1494 H 0.74646 0.0166 0.49667 0.0
H1495 H 0.74827 0.03194 0.48556 0.0
H1496 H 0.77569 0.0449 0.29633 0.0
H1497 H 0.76246 0.04375 0.28451 0.0
H1498 H 0.79863 1.01258 0.27669 0.0
H1499 H 0.81166 1.01322 0.28859 0.0
H1500 H 0.7745 0.05206 0.27106 0.0
H1501 H 0.7576 0.9902 0.27128 0.0
H1502 H 0.76398 1.00025 0.27936 0.0
H1503 H 0.77839 0.9937 0.27282 0.0
C1504 C 0.78071 0.0376 0.29214 0.0
C1505 C 0.79469 0.02907 0.29344 0.0
C1506 C 0.77319 0.03704 0.28537 0.0
C1507 C 0.77942 0.02791 0.27975 0.0
C1508 C 0.79344 0.01948 0.28099 0.0
H1509 H 0.75225 1.01316 0.23465 0.0
H1510 H 0.76541 1.01305 0.24653 0.0
C1511 C 0.80098 0.02001 0.28777 0.0
C1512 C 0.77148 0.02762 0.27254 0.0
H1513 H 0.75345 1.00382 0.26025 0.0
C1514 C 0.76984 0.04153 0.26871 0.0
C1515 C 0.76544 1.01385 0.26947 0.0
C1516 C 0.76629 0.99866 0.27346 0.0
C1517 C 0.76251 0.04203 0.26185 0.0
C1518 C 0.75642 0.02828 0.2588 0.0
C1519 C 0.75812 1.01434 0.26261 0.0
C1520 C 0.74823 0.02815 0.25165 0.0
C1521 C 0.76162 0.05722 0.25787 0.0
C1522 C 0.73406 0.03646 0.25062 0.0
C1523 C 0.72655 0.03661 0.24384 0.0
C1524 C 0.73304 0.02839 0.23794 0.0
C1525 C 0.74707 0.01981 0.23904 0.0
C1526 C 0.75456 0.01965 0.24584 0.0
H1527 H 0.77027 0.06572 0.26006 0.0
H1528 H 0.76396 0.05565 0.25197 0.0
H1529 H 0.7495 0.06213 0.2585 0.0
H1530 H 0.72883 0.04289 0.25507 0.0
H1531 H 0.71584 0.04342 0.24317 0.0
H1532 H 0.81256 0.0655 0.03638 0.0
H1533 H 0.81302 0.05028 0.02516 0.0
H1534 H 0.78134 0.01708 0.03488 0.0
H1535 H 0.78036 0.03243 0.04599 0.0
H1536 H 0.82255 0.01959 0.02301 0.0
H1537 H 0.75895 0.02765 0.0158 0.0
H1538 H 0.76886 0.03936 0.02253 0.0
H1539 H 0.76202 0.02034 0.02483 0.0
C1540 C 0.80554 0.05505 0.0361 0.0
C1541 C 0.79637 0.05024 0.04209 0.0
C1542 C 0.80591 0.04632 0.0297 0.0
C1543 C 0.79704 0.03267 0.02915 0.0
C1544 C 0.78806 0.02772 0.03514 0.0
H1545 H 0.78149 0.96289 0.9962 0.0
H1546 H 0.78277 0.97805 1.0074 0.0
C1547 C 0.78767 0.03643 0.04153 0.0
C1548 C 0.79727 0.02347 0.02234 0.0
H1549 H 0.77329 1.00892 1.00901 0.0
C1550 C 0.8118 0.01733 0.01992 0.0
C1551 C 0.78324 0.02054 0.01832 0.0
C1552 C 0.7674 0.02743 0.02045 0.0
C1553 C 0.81261 1.00801 1.01367 0.0
C1554 C 0.79854 1.00496 1.0097 0.0
C1555 C 0.78404 1.0112 1.01209 0.0
C1556 C 0.79856 0.99539 1.00301 0.0
C1557 C 0.82844 1.0012 1.01148 0.0
C1558 C 0.80701 1.00012 0.99681 0.0
C1559 C 0.80636 0.99144 0.99041 0.0
C1560 C 0.79719 0.97789 0.99006 0.0
C1561 C 0.78884 0.97313 0.9963 0.0
C1562 C 0.78947 0.98184 1.0027 0.0
H1563 H 0.83713 1.0014 0.01604 0.0
H1564 H 0.82702 0.98912 1.0096 0.0
H1565 H 0.83347 1.00804 1.00693 0.0
H1566 H 0.81388 1.01067 0.99689 0.0
H1567 H 0.81303 0.99536 0.98572 0.0
H1568 H 0.71781 0.48434 0.78881 0.0
H1569 H 0.73077 0.48291 0.77689 0.0
H1570 H 0.76627 0.51539 0.78405 0.0
H1571 H 0.75334 0.51703 0.79592 0.0
H1572 H 0.7366 0.50696 0.76696 0.0
H1573 H 0.79301 0.47966 0.77598 0.0
H1574 H 0.77535 0.48002 0.78158 0.0
H1575 H 0.78783 0.49679 0.78093 0.0
C1576 C 0.72833 0.49124 0.78784 0.0
C1577 C 0.73458 0.50074 0.79335 0.0
C1578 C 0.73577 0.49034 0.78104 0.0
C1579 C 0.74964 0.49884 0.77963 0.0
C1580 C 0.75581 0.50844 0.78508 0.0
H1581 H 0.81127 0.51577 0.74288 0.0
H1582 H 0.79814 0.5146 0.75475 0.0
C1583 C 0.74839 0.50935 0.79187 0.0
C1584 C 0.75739 0.49809 0.77239 0.0
H1585 H 0.79246 0.48948 0.7639 0.0
C1586 C 0.74876 0.50302 0.76627 0.0
C1587 C 0.77327 0.49297 0.77151 0.0
C1588 C 0.78289 0.48692 0.77783 0.0
C1589 C 0.75575 0.50338 0.75933 0.0
C1590 C 0.77169 0.49841 0.75847 0.0
C1591 C 0.78025 0.49332 0.76457 0.0
C1592 C 0.77981 0.4987 0.7513 0.0
C1593 C 0.74615 0.50954 0.75303 0.0
C1594 C 0.77405 0.48992 0.74546 0.0
C1595 C 0.78155 0.49053 0.73868 0.0
C1596 C 0.79505 0.49985 0.73761 0.0
C1597 C 0.80099 0.50837 0.74353 0.0
C1598 C 0.79346 0.50777 0.7503 0.0
H1599 H 0.73572 0.51638 0.75489 0.0
H1600 H 0.75359 0.51691 0.74945 0.0
H1601 H 0.74166 0.49974 0.74975 0.0
H1602 H 0.76376 0.48255 0.74615 0.0
H1603 H 0.77684 0.48361 0.73427 0.0
H1604 H 0.77821 0.52875 0.98517 0.0
H1605 H 0.77991 0.51542 0.99686 0.0
H1606 H 0.81448 0.54854 1.0043 0.0
H1607 H 0.81303 0.56187 0.99258 0.0
H1608 H 0.80707 0.50225 1.00375 0.0
H1609 H 0.78001 0.5491 0.02029 0.0
H1610 H 0.7785 0.54854 1.0105 0.0
H1611 H 0.79666 0.5547 1.01475 0.0
C1612 C 0.7863 0.53314 0.98926 0.0
C1613 C 0.79547 0.54642 0.98793 0.0
C1614 C 0.78719 0.52554 0.99595 0.0
C1615 C 0.79716 0.5311 1.00147 0.0
C1616 C 0.80647 0.54423 1.00015 0.0
H1617 H 0.81251 0.50055 0.04614 0.0
H1618 H 0.81398 0.51389 0.03442 0.0
C1619 C 0.80561 0.55185 0.99345 0.0
C1620 C 0.79786 0.52304 1.00858 0.0
H1621 H 0.78958 0.52732 0.02665 0.0
C1622 C 0.80325 0.50771 1.00876 0.0
C1623 C 0.79293 0.53023 1.0151 0.0
C1624 C 0.78657 0.54651 1.01519 0.0
C1625 C 0.80391 0.49939 1.01531 0.0
C1626 C 0.79873 0.5065 0.02182 0.0
C1627 C 0.79354 0.52189 0.02165 0.0
C1628 C 0.79824 0.49808 0.02885 0.0
C1629 C 0.81038 0.48315 1.01521 0.0
C1630 C 0.78881 0.48483 0.02963 0.0
C1631 C 0.78792 0.47721 0.03632 0.0
C1632 C 0.79634 0.48276 0.04239 0.0
C1633 C 0.80576 0.49605 0.04159 0.0
C1634 C 0.80667 0.50365 0.03489 0.0
H1635 H 0.81799 0.48108 1.01037 0.0
H1636 H 0.81745 0.48069 0.02018 0.0
H1637 H 0.80031 0.47491 1.015 0.0
H1638 H 0.78188 0.48055 0.0251 0.0
H1639 H 0.78033 0.46717 0.03678 0.0
H1640 H 0.77641 0.51188 0.29561 0.0
H1641 H 0.76357 0.51343 0.2837 0.0
H1642 H 0.79814 0.54709 0.27681 0.0
H1643 H 0.81098 0.54577 0.28875 0.0
H1644 H 0.75033 0.53959 0.27664 0.0
H1645 H 0.80007 0.51391 0.26078 0.0
H1646 H 0.79882 0.5124 0.27056 0.0
H1647 H 0.80535 0.53004 0.26641 0.0
C1648 C 0.78123 0.51972 0.29159 0.0
C1649 C 0.79476 0.52868 0.29314 0.0
C1650 C 0.77391 0.52053 0.28477 0.0
C1651 C 0.78001 0.53022 0.27935 0.0
C1652 C 0.79342 0.5393 0.28088 0.0
H1653 H 0.75174 0.54582 0.2343 0.0
H1654 H 0.76461 0.54698 0.24623 0.0
C1655 C 0.80075 0.53852 0.2877 0.0
C1656 C 0.7722 0.5309 0.27212 0.0
H1657 H 0.77803 0.52321 0.2541 0.0
C1658 C 0.75636 0.536 0.2717 0.0
C1659 C 0.78014 0.52627 0.26569 0.0
C1660 C 0.79699 0.52022 0.26585 0.0
C1661 C 0.74827 0.5367 0.26503 0.0
C1662 C 0.75612 0.53185 0.25861 0.0
C1663 C 0.77203 0.52692 0.25902 0.0
C1664 C 0.74798 0.53149 0.25145 0.0
C1665 C 0.73146 0.54285 0.26489 0.0
C1666 C 0.73443 0.52231 0.2504 0.0
C1667 C 0.72706 0.5216 0.24359 0.0
C1668 C 0.73319 0.52995 0.23766 0.0
C1669 C 0.7468 0.53912 0.23873 0.0
C1670 C 0.75413 0.53986 0.24555 0.0
H1671 H 0.72888 0.55009 0.26973 0.0
H1672 H 0.72925 0.5498 0.25992 0.0
H1673 H 0.723 0.53303 0.26491 0.0
H1674 H 0.72971 0.51545 0.25482 0.0
H1675 H 0.71679 0.5142 0.24292 0.0
H1676 H 0.71611 0.46659 0.49273 0.0
H1677 H 0.71441 0.47998 0.50443 0.0
H1678 H 0.74557 0.51553 0.49635 0.0
H1679 H 0.74752 0.50217 0.4847 0.0
H1680 H 0.73959 0.48771 0.51395 0.0
H1681 H 0.70749 0.53993 0.50445 0.0
H1682 H 0.70851 0.52242 0.49916 0.0
H1683 H 0.7251 0.53548 0.49932 0.0
C1684 C 0.72266 0.47722 0.49345 0.0
C1685 C 0.73189 0.48333 0.48774 0.0
C1686 C 0.7216 0.4849 0.50012 0.0
C1687 C 0.72965 0.49888 0.50121 0.0
C1688 C 0.73895 0.50495 0.49556 0.0
H1689 H 0.74615 0.56229 0.53655 0.0
H1690 H 0.74464 0.5486 0.52495 0.0
C1691 C 0.74004 0.49729 0.4889 0.0
C1692 C 0.72883 0.50685 0.50834 0.0
H1693 H 0.71843 0.5409 0.51639 0.0
C1694 C 0.73484 0.49929 0.5145 0.0
C1695 C 0.72265 0.52196 0.50904 0.0
C1696 C 0.71543 0.5304 0.50266 0.0
C1697 C 0.73528 0.5066 0.52132 0.0
C1698 C 0.72926 0.52179 0.522 0.0
C1699 C 0.72306 0.52927 0.51585 0.0
C1700 C 0.72966 0.53025 0.52901 0.0
C1701 C 0.74267 0.49819 0.52767 0.0
C1702 C 0.72149 0.52464 0.53512 0.0
C1703 C 0.7223 0.53246 0.54176 0.0
C1704 C 0.7312 0.54612 0.54241 0.0
C1705 C 0.73906 0.55189 0.53623 0.0
C1706 C 0.73827 0.54404 0.5296 0.0
H1707 H 0.75019 0.48836 0.52586 0.0
H1708 H 0.75009 0.5061 0.53099 0.0
H1709 H 0.73309 0.49355 0.53119 0.0
H1710 H 0.71446 0.51421 0.53475 0.0
H1711 H 0.71588 0.52785 0.54638 0.0
H1712 H 0.31211 0.51275 0.243 0.0
H1713 H 0.29881 0.51398 0.25482 0.0
H1714 H 0.26373 0.54505 0.24593 0.0
H1715 H 0.27696 0.5439 0.23408 0.0
H1716 H 0.29243 0.53911 0.2638 0.0
H1717 H 0.2364 0.51102 0.25482 0.0
H1718 H 0.25432 0.51072 0.24941 0.0
H1719 H 0.24197 0.52765 0.2496 0.0
C1720 C 0.30164 0.51995 0.24357 0.0
C1721 C 0.29555 0.52816 0.23758 0.0
C1722 C 0.29402 0.52059 0.25032 0.0
C1723 C 0.28013 0.52939 0.25122 0.0
C1724 C 0.27421 0.53788 0.24531 0.0
H1725 H 0.21743 0.54388 0.28847 0.0
H1726 H 0.2306 0.54524 0.27661 0.0
C1727 C 0.2818 0.53722 0.23854 0.0
C1728 C 0.27192 0.52972 0.25837 0.0
H1729 H 0.23688 0.52084 0.26683 0.0
C1730 C 0.2803 0.5351 0.26447 0.0
C1731 C 0.25606 0.52451 0.25923 0.0
C1732 C 0.24667 0.51802 0.25294 0.0
C1733 C 0.27322 0.53551 0.27139 0.0
C1734 C 0.25743 0.53017 0.27225 0.0
C1735 C 0.24898 0.52496 0.26615 0.0
C1736 C 0.24959 0.52951 0.27947 0.0
C1737 C 0.28264 0.54184 0.2777 0.0
C1738 C 0.25578 0.52005 0.28498 0.0
C1739 C 0.24824 0.51915 0.29175 0.0
C1740 C 0.23428 0.52766 0.29314 0.0
C1741 C 0.22806 0.53706 0.28757 0.0
C1742 C 0.23561 0.53792 0.2808 0.0
H1743 H 0.29271 0.54914 0.27584 0.0
H1744 H 0.27494 0.54879 0.28136 0.0
H1745 H 0.28764 0.53212 0.2809 0.0
H1746 H 0.26635 0.51317 0.28402 0.0
H1747 H 0.25319 0.51155 0.29584 0.0
H1748 H 0.21467 0.52961 0.98484 0.0
H1749 H 0.2131 0.5162 0.99654 0.0
H1750 H 0.24446 0.54994 1.00606 0.0
H1751 H 0.2461 0.56339 0.99441 0.0
H1752 H 0.23747 0.50303 1.00434 0.0
H1753 H 0.20831 0.54865 0.02072 0.0
H1754 H 0.20899 0.54924 1.01091 0.0
H1755 H 0.22597 0.55515 0.01617 0.0
C1756 C 0.22122 0.53419 0.98943 0.0
C1757 C 0.23047 0.54762 0.98869 0.0
C1758 C 0.22025 0.52655 0.99612 0.0
C1759 C 0.22845 0.53219 1.00221 0.0
C1760 C 0.23769 0.54559 1.00149 0.0
H1761 H 0.24933 0.50124 0.04573 0.0
H1762 H 0.2472 0.51471 0.03409 0.0
C1763 C 0.23863 0.55326 0.99482 0.0
C1764 C 0.22801 0.52367 1.00921 0.0
H1765 H 0.21966 0.52761 0.0273 0.0
C1766 C 0.23342 0.50834 1.00935 0.0
C1767 C 0.22273 0.53063 0.01574 0.0
C1768 C 0.21603 0.54677 0.01589 0.0
C1769 C 0.23416 0.49994 0.01587 0.0
C1770 C 0.22915 0.507 0.02242 0.0
C1771 C 0.22353 0.52225 0.02227 0.0
C1772 C 0.23005 0.49888 0.02951 0.0
C1773 C 0.24075 0.48375 0.01575 0.0
C1774 C 0.22094 0.48562 0.03083 0.0
C1775 C 0.22204 0.47793 0.0375 0.0
C1776 C 0.23225 0.4834 0.043 0.0
C1777 C 0.2412 0.49681 0.04167 0.0
C1778 C 0.24006 0.50449 0.035 0.0
H1779 H 0.24726 0.48127 1.01062 0.0
H1780 H 0.24893 0.48182 0.02041 0.0
H1781 H 0.2308 0.47542 0.01621 0.0
H1782 H 0.21291 0.48127 0.02671 0.0
H1783 H 0.21478 0.4678 0.03838 0.0
H1784 H 0.25209 0.48342 0.73411 0.0
H1785 H 0.26497 0.48207 0.74604 0.0
H1786 H 0.22915 0.51236 0.75489 0.0
H1787 H 0.21623 0.51381 0.743 0.0
H1788 H 0.27767 0.50592 0.7541 0.0
H1789 H 0.22941 0.4771 0.76951 0.0
H1790 H 0.22977 0.47776 0.7597 0.0
H1791 H 0.223 0.49417 0.76483 0.0
C1792 C 0.24695 0.48979 0.7386 0.0
C1793 C 0.23309 0.49868 0.7376 0.0
C1794 C 0.25429 0.48896 0.74542 0.0
C1795 C 0.24789 0.49692 0.75138 0.0
C1796 C 0.23408 0.50581 0.75041 0.0
H1797 H 0.27572 0.5157 0.79568 0.0
H1798 H 0.26289 0.51415 0.78378 0.0
C1799 C 0.22671 0.50663 0.7436 0.0
C1800 C 0.25606 0.49649 0.75855 0.0
H1801 H 0.25053 0.48791 0.7765 0.0
C1802 C 0.27179 0.50185 0.75899 0.0
C1803 C 0.24837 0.49118 0.76492 0.0
C1804 C 0.23176 0.48459 0.76473 0.0
C1805 C 0.27989 0.50247 0.76567 0.0
C1806 C 0.27211 0.49737 0.77206 0.0
C1807 C 0.25645 0.49184 0.7716 0.0
C1808 C 0.2799 0.49801 0.77929 0.0
C1809 C 0.29653 0.50899 0.76588 0.0
C1810 C 0.29362 0.48929 0.78076 0.0
C1811 C 0.30095 0.49007 0.78758 0.0
C1812 C 0.29464 0.49954 0.79309 0.0
C1813 C 0.28079 0.50814 0.79161 0.0
C1814 C 0.27347 0.50733 0.78479 0.0
H1815 H 0.29939 0.51558 0.76086 0.0
H1816 H 0.29809 0.51668 0.77065 0.0
H1817 H 0.30521 0.49939 0.76636 0.0
H1818 H 0.29859 0.48179 0.77663 0.0
H1819 H 0.31143 0.4831 0.78857 0.0
H1820 H 0.29184 0.46278 0.4945 0.0
H1821 H 0.29359 0.47656 0.50609 0.0
H1822 H 0.3009 0.5193 0.49461 0.0
H1823 H 0.29955 0.50562 0.483 0.0
H1824 H 0.31929 0.4967 0.51158 0.0
H1825 H 0.26125 0.52672 0.50801 0.0
H1826 H 0.26662 0.50977 0.50286 0.0
H1827 H 0.27501 0.52816 0.50055 0.0
C1828 C 0.29405 0.47507 0.49443 0.0
C1829 C 0.29544 0.48309 0.4878 0.0
C1830 C 0.29496 0.48293 0.50106 0.0
C1831 C 0.29716 0.49896 0.50119 0.0
C1832 C 0.29893 0.50696 0.49462 0.0
H1833 H 0.29497 0.56713 0.53584 0.0
H1834 H 0.29706 0.5538 0.52417 0.0
C1835 C 0.29809 0.49911 0.48799 0.0
C1836 C 0.29735 0.50735 0.50821 0.0
H1837 H 0.27643 0.53343 0.51832 0.0
C1838 C 0.30993 0.50473 0.51308 0.0
C1839 C 0.28515 0.51785 0.51011 0.0
C1840 C 0.27115 0.52077 0.50515 0.0
C1841 C 0.31074 0.51249 0.51977 0.0
C1842 C 0.29842 0.52286 0.52172 0.0
C1843 C 0.28588 0.52551 0.51682 0.0
C1844 C 0.2981 0.53093 0.52885 0.0
C1845 C 0.32496 0.50976 0.52462 0.0
C1846 C 0.29796 0.52252 0.53537 0.0
C1847 C 0.29697 0.53011 0.54206 0.0
C1848 C 0.29589 0.5463 0.54238 0.0
C1849 C 0.29604 0.55469 0.53583 0.0
C1850 C 0.29711 0.54708 0.52914 0.0
H1851 H 0.33534 0.5054 0.52148 0.0
H1852 H 0.32852 0.52048 0.52749 0.0
H1853 H 0.32189 0.50094 0.52876 0.0
H1854 H 0.29835 0.51004 0.53529 0.0
H1855 H 0.29704 0.52328 0.54699 0.0
H1856 H 0.27568 0.07257 0.41975 0.0
H1857 H 0.26512 0.06217 0.40832 0.0
H1858 H 0.24152 0.10543 0.40408 0.0
H1859 H 0.25191 0.11586 0.41545 0.0
H1860 H 0.23367 0.05877 0.40377 0.0
H1861 H 0.26621 0.09811 0.3853 0.0
H1862 H 0.27146 0.09581 0.39476 0.0
H1863 H 0.25519 0.10818 0.39218 0.0
C1864 C 0.2682 0.07984 0.41639 0.0
C1865 C 0.26478 0.09511 0.41847 0.0
C1866 C 0.26224 0.07391 0.40985 0.0
C1867 C 0.25282 0.08314 0.40527 0.0
C1868 C 0.24914 0.09825 0.40742 0.0
H1869 H 0.19547 0.07642 0.36706 0.0
H1870 H 0.21 0.08343 0.37809 0.0
C1871 C 0.25509 0.10419 0.41393 0.0
C1872 C 0.24642 0.07695 0.39835 0.0
H1873 H 0.24427 0.08435 0.38013 0.0
C1874 C 0.23615 0.06421 0.39858 0.0
C1875 C 0.24973 0.08404 0.39158 0.0
C1876 C 0.26138 0.09719 0.39091 0.0
C1877 C 0.22852 0.05881 0.39228 0.0
C1878 C 0.2314 0.06627 0.38556 0.0
C1879 C 0.24203 0.07871 0.38529 0.0
C1880 C 0.22286 0.06186 0.37883 0.0
C1881 C 0.21696 0.04557 0.39287 0.0
C1882 C 0.22545 0.04748 0.37554 0.0
C1883 C 0.21714 0.04343 0.36922 0.0
C1884 C 0.20608 0.05369 0.36611 0.0
C1885 C 0.20372 0.06817 0.36938 0.0
C1886 C 0.21208 0.07223 0.37566 0.0
H1887 H 0.21399 0.04284 0.39862 0.0
H1888 H 0.20578 0.04824 0.3899 0.0
H1889 H 0.2223 0.03515 0.39036 0.0
H1890 H 0.23388 0.0394 0.37786 0.0
H1891 H 0.21916 0.03217 0.36685 0.0
H1892 H 0.24652 0.95173 0.60666 0.0
H1893 H 0.23558 0.96303 0.61777 0.0
H1894 H 0.26742 0.93515 0.63066 0.0
H1895 H 0.27883 0.92421 0.61958 0.0
H1896 H 0.22027 0.94728 0.62866 0.0
H1897 H 0.27305 0.97744 0.63981 0.0
H1898 H 0.2721 0.97074 0.63053 0.0
H1899 H 0.27663 0.9575 0.63777 0.0
C1900 C 0.25145 0.94824 0.61185 0.0
C1901 C 0.26357 0.93706 0.61222 0.0
C1902 C 0.24511 0.95465 0.6182 0.0
C1903 C 0.25081 0.95008 0.62504 0.0
C1904 C 0.26304 0.93908 0.62544 0.0
H1905 H 0.22061 0.96322 0.66964 0.0
H1906 H 0.23428 0.95593 0.65839 0.0
C1907 C 0.26941 0.93268 0.61909 0.0
C1908 C 0.24325 0.95604 0.63177 0.0
H1909 H 0.25088 0.97452 0.64781 0.0
C1910 C 0.22693 0.95337 0.63282 0.0
C1911 C 0.25198 0.96391 0.63721 0.0
C1912 C 0.26938 0.96771 0.63626 0.0
C1913 C 0.21917 0.95804 0.63921 0.0
C1914 C 0.22793 0.9658 0.64466 0.0
C1915 C 0.24422 0.96856 0.64362 0.0
C1916 C 0.22032 0.97099 0.65151 0.0
C1917 C 0.20176 0.95428 0.64015 0.0
C1918 C 0.20822 0.98214 0.65138 0.0
C1919 C 0.20045 0.98639 0.65779 0.0
C1920 C 0.20465 0.9796 0.66447 0.0
C1921 C 0.21715 0.96877 0.66461 0.0
C1922 C 0.22493 0.96454 0.65818 0.0
H1923 H 0.19774 0.94528 0.63627 0.0
H1924 H 0.19931 0.95024 0.64578 0.0
H1925 H 0.19458 0.96482 0.63918 0.0
H1926 H 0.20471 0.98748 0.6463 0.0
H1927 H 0.19111 0.99499 0.65751 0.0
H1928 H 0.28073 0.95291 0.9242 0.0
H1929 H 0.29194 0.96412 0.91312 0.0
H1930 H 0.26012 0.93655 0.90012 0.0
H1931 H 0.24844 0.92571 0.91116 0.0
H1932 H 0.30735 0.9482 0.90233 0.0
H1933 H 0.25506 0.97883 0.89088 0.0
H1934 H 0.25574 0.97214 0.90018 0.0
H1935 H 0.25127 0.95893 0.89292 0.0
C1936 C 0.27586 0.94948 0.91899 0.0
C1937 C 0.26366 0.93841 0.91858 0.0
C1938 C 0.28236 0.95583 0.91266 0.0
C1939 C 0.27674 0.95132 0.90579 0.0
C1940 C 0.26443 0.94043 0.90536 0.0
H1941 H 0.30789 0.96372 0.86131 0.0
H1942 H 0.29398 0.95671 0.87253 0.0
C1943 C 0.25791 0.9341 0.91168 0.0
C1944 C 0.28451 0.95717 0.89909 0.0
H1945 H 0.27737 0.97559 0.88298 0.0
C1946 C 0.30083 0.95433 0.89813 0.0
C1947 C 0.27596 0.96509 0.8936 0.0
C1948 C 0.25857 0.96907 0.89446 0.0
C1949 C 0.30876 0.95887 0.89177 0.0
C1950 C 0.30019 0.96666 0.88626 0.0
C1951 C 0.28389 0.9696 0.88722 0.0
C1952 C 0.30797 0.97168 0.87942 0.0
C1953 C 0.32616 0.95491 0.89091 0.0
C1954 C 0.32018 0.98269 0.87956 0.0
C1955 C 0.32809 0.98678 0.87316 0.0
C1956 C 0.32392 0.97997 0.86648 0.0
C1957 C 0.31133 0.96928 0.86634 0.0
C1958 C 0.30341 0.96521 0.87275 0.0
H1959 H 0.33003 0.94592 0.89483 0.0
H1960 H 0.32869 0.95079 0.88531 0.0
H1961 H 0.33341 0.9654 0.89188 0.0
H1962 H 0.32366 0.98804 0.88464 0.0
H1963 H 0.33751 0.99528 0.87345 0.0
H1964 H 0.24929 0.10434 0.11952 0.0
H1965 H 0.26095 0.09316 0.13051 0.0
H1966 H 0.29057 0.06365 0.11734 0.0
H1967 H 0.27941 0.07516 0.10632 0.0
H1968 H 0.26232 0.06282 0.1356 0.0
H1969 H 0.32281 0.08596 0.13021 0.0
H1970 H 0.30546 0.09245 0.1253 0.0
H1971 H 0.31478 0.07443 0.12298 0.0
C1972 C 0.25836 0.09554 0.11895 0.0
C1973 C 0.26354 0.09078 0.11203 0.0
C1974 C 0.26492 0.08908 0.12524 0.0
C1975 C 0.27682 0.07777 0.12474 0.0
C1976 C 0.28161 0.07257 0.11785 0.0
H1977 H 0.33563 0.032 0.15717 0.0
H1978 H 0.32171 0.03936 0.14602 0.0
C1979 C 0.27508 0.07905 0.11155 0.0
C1980 C 0.28444 0.07169 0.13144 0.0
H1981 H 0.32007 0.06933 0.14032 0.0
C1982 C 0.27495 0.06423 0.13664 0.0
C1983 C 0.30091 0.0736 0.13279 0.0
C1984 C 0.31159 0.08216 0.12757 0.0
C1985 C 0.28152 0.05847 0.14313 0.0
C1986 C 0.29797 0.06043 0.14447 0.0
C1987 C 0.30747 0.06779 0.13925 0.0
C1988 C 0.30559 0.05523 0.15133 0.0
C1989 C 0.27086 0.05017 0.14844 0.0
C1990 C 0.30114 0.06171 0.15802 0.0
C1991 C 0.30915 0.05761 0.16441 0.0
C1992 C 0.32183 0.047 0.16421 0.0
C1993 C 0.32607 0.04035 0.15751 0.0
C1994 C 0.31807 0.04448 0.15113 0.0
H1995 H 0.2597 0.04615 0.14581 0.0
H1996 H 0.27706 0.04008 0.15086 0.0
H1997 H 0.26758 0.05816 0.1529 0.0
H1998 H 0.29177 0.07029 0.15827 0.0
H1999 H 0.30574 0.06314 0.16945 0.0
H2000 H 0.78865 0.91846 0.61235 0.0
H2001 H 0.79955 0.92965 0.62347 0.0
H2002 H 0.7629 0.9645 0.62325 0.0
H2003 H 0.75167 0.95315 0.61216 0.0
H2004 H 0.81056 0.96057 0.62566 0.0
H2005 H 0.76012 0.94535 0.64393 0.0
H2006 H 0.76294 0.93633 0.63518 0.0
H2007 H 0.7552 0.95559 0.63573 0.0
C2008 C 0.7828 0.92842 0.6147 0.0
C2009 C 0.7692 0.93484 0.6114 0.0
C2010 C 0.78911 0.93486 0.62103 0.0
C2011 C 0.78192 0.94778 0.62423 0.0
C2012 C 0.76849 0.95439 0.62092 0.0
H2013 H 0.80823 0.99358 0.66509 0.0
H2014 H 0.79475 0.98671 0.6537 0.0
C2015 C 0.76218 0.94798 0.61455 0.0
C2016 C 0.7887 0.9543 0.631 0.0
H2017 H 0.78168 0.95866 0.64918 0.0
C2018 C 0.80422 0.96023 0.6308 0.0
C2019 C 0.78035 0.95393 0.63768 0.0
C2020 C 0.76377 0.94738 0.63821 0.0
C2021 C 0.81172 0.96563 0.63712 0.0
C2022 C 0.8036 0.96475 0.64385 0.0
C2023 C 0.78789 0.95926 0.64402 0.0
C2024 C 0.81152 0.96878 0.65081 0.0
C2025 C 0.82827 0.97226 0.63653 0.0
C2026 C 0.82518 0.96074 0.65303 0.0
C2027 C 0.83286 0.9646 0.65951 0.0
C2028 C 0.82697 0.97651 0.66395 0.0
C2029 C 0.81302 0.9843 0.66181 0.0
C2030 C 0.80535 0.98044 0.6553 0.0
H2031 H 0.83081 0.97637 0.63093 0.0
H2032 H 0.82994 0.98201 0.64037 0.0
H2033 H 0.8371 0.96317 0.63788 0.0
H2034 H 0.82989 0.95142 0.64975 0.0
H2035 H 0.84336 0.95814 0.66108 0.0
H2036 H 0.74863 0.10411 0.41158 0.0
H2037 H 0.75946 0.09354 0.40028 0.0
H2038 H 0.79412 0.06762 0.41254 0.0
H2039 H 0.78348 0.07824 0.42386 0.0
H2040 H 0.79077 0.09729 0.39541 0.0
H2041 H 0.77589 0.03529 0.39851 0.0
H2042 H 0.76653 0.05019 0.40388 0.0
H2043 H 0.78619 0.04353 0.40614 0.0
C2044 C 0.75854 0.09613 0.41188 0.0
C2045 C 0.76522 0.09206 0.41863 0.0
C2046 C 0.76465 0.09004 0.40542 0.0
C2047 C 0.77747 0.07966 0.40557 0.0
C2048 C 0.784 0.07535 0.4123 0.0
H2049 H 0.83924 0.03782 0.37356 0.0
H2050 H 0.82512 0.04582 0.38457 0.0
C2051 C 0.7779 0.08144 0.41877 0.0
C2052 C 0.78468 0.0742 0.39868 0.0
H2053 H 0.79354 0.04186 0.38888 0.0
C2054 C 0.79126 0.08518 0.39395 0.0
C2055 C 0.78538 0.0584 0.39681 0.0
C2056 C 0.778 0.04616 0.40156 0.0
C2057 C 0.79886 0.08077 0.38748 0.0
C2058 C 0.7996 0.06496 0.38561 0.0
C2059 C 0.79293 0.05397 0.39032 0.0
C2060 C 0.80762 0.0596 0.37888 0.0
C2061 C 0.80645 0.09306 0.38282 0.0
C2062 C 0.80226 0.06444 0.37202 0.0
C2063 C 0.81039 0.06002 0.36572 0.0
C2064 C 0.824 0.05057 0.36615 0.0
C2065 C 0.829 0.04534 0.37303 0.0
C2066 C 0.82087 0.0498 0.37933 0.0
H2067 H 0.80835 0.10393 0.38588 0.0
H2068 H 0.81809 0.08909 0.38064 0.0
H2069 H 0.79853 0.09566 0.37815 0.0
H2070 H 0.79187 0.07178 0.37154 0.0
H2071 H 0.80626 0.06433 0.36052 0.0
H2072 H 0.74611 0.08002 0.10749 0.0
H2073 H 0.7354 0.0696 0.11886 0.0
H2074 H 0.7712 0.09419 0.13099 0.0
H2075 H 0.7821 0.10453 0.11966 0.0
H2076 H 0.7504 0.0521 0.1303 0.0
H2077 H 0.72854 0.10923 0.13972 0.0
H2078 H 0.73431 0.10565 0.13042 0.0
H2079 H 0.74924 0.10853 0.13728 0.0
C2080 C 0.75186 0.08304 0.11257 0.0
C2081 C 0.76488 0.09323 0.11267 0.0
C2082 C 0.74568 0.07713 0.11906 0.0
C2083 C 0.75235 0.08133 0.12576 0.0
C2084 C 0.76568 0.09105 0.12588 0.0
H2085 H 0.72323 0.06531 0.17056 0.0
H2086 H 0.73786 0.07251 0.15957 0.0
C2087 C 0.77187 0.09697 0.1194 0.0
C2088 C 0.74512 0.07587 0.13265 0.0
H2089 H 0.72586 0.0884 0.14789 0.0
C2090 C 0.74502 0.06001 0.13415 0.0
C2091 C 0.73815 0.08625 0.13766 0.0
C2092 C 0.7374 0.10336 0.13619 0.0
C2093 C 0.73827 0.05424 0.1406 0.0
C2094 C 0.73116 0.06461 0.14558 0.0
C2095 C 0.73137 0.08048 0.14408 0.0
C2096 C 0.723 0.05928 0.15228 0.0
C2097 C 0.73905 0.03714 0.14206 0.0
C2098 C 0.70979 0.04944 0.15183 0.0
C2099 C 0.70148 0.04521 0.1581 0.0
C2100 C 0.70611 0.05085 0.16496 0.0
C2101 C 0.71946 0.06059 0.16539 0.0
C2102 C 0.72778 0.06479 0.15911 0.0
H2103 H 0.74874 0.03154 0.1389 0.0
H2104 H 0.74096 0.03477 0.14793 0.0
H2105 H 0.72763 0.03177 0.14041 0.0
H2106 H 0.70567 0.04529 0.1466 0.0
H2107 H 0.69135 0.03757 0.15757 0.0
H2108 H 0.75917 0.95881 0.9224 0.0
H2109 H 0.74722 0.9683 0.91111 0.0
H2110 H 0.75298 0.92337 0.90142 0.0
H2111 H 0.76421 0.9136 0.91275 0.0
H2112 H 0.75912 0.96976 0.89714 0.0
H2113 H 0.70609 0.93183 0.89807 0.0
H2114 H 0.71913 0.93437 0.90577 0.0
H2115 H 0.72451 0.9214 0.89854 0.0
C2116 C 0.75773 0.95089 0.9179 0.0
C2117 C 0.76257 0.9354 0.91852 0.0
C2118 C 0.75101 0.95637 0.91143 0.0
C2119 C 0.74895 0.94648 0.90547 0.0
C2120 C 0.75414 0.93114 0.906 0.0
H2121 H 0.71219 0.95443 0.86167 0.0
H2122 H 0.72568 0.94668 0.8729 0.0
C2123 C 0.76078 0.92563 0.91247 0.0
C2124 C 0.74139 0.95215 0.89867 0.0
H2125 H 0.71054 0.94539 0.887 0.0
C2126 C 0.74844 0.96451 0.89494 0.0
C2127 C 0.72741 0.94531 0.89583 0.0
C2128 C 0.71874 0.9326 0.89979 0.0
C2129 C 0.74211 0.96995 0.88834 0.0
C2130 C 0.72832 0.96292 0.88546 0.0
C2131 C 0.72119 0.95067 0.88921 0.0
C2132 C 0.72101 0.96809 0.87854 0.0
C2133 C 0.7504 0.98294 0.88442 0.0
C2134 C 0.71392 0.9827 0.878 0.0
C2135 C 0.7062 0.98717 0.87159 0.0
C2136 C 0.70544 0.97709 0.86561 0.0
C2137 C 0.71275 0.96253 0.86615 0.0
C2138 C 0.72038 0.95805 0.87257 0.0
H2139 H 0.76261 0.98491 0.88655 0.0
H2140 H 0.75114 0.98053 0.8785 0.0
H2141 H 0.74346 0.99372 0.88515 0.0
H2142 H 0.71409 0.99054 0.88258 0.0
H2143 H 0.70077 0.99849 0.87133 0.0
H2144 H 0.72277 0.54354 0.85963 0.0
H2145 H 0.7371 0.55291 0.87033 0.0
H2146 H 0.70774 0.52454 0.88413 0.0
H2147 H 0.69375 0.51468 0.87345 0.0
H2148 H 0.72411 0.56897 0.88171 0.0
H2149 H 0.75202 0.51512 0.89184 0.0
H2150 H 0.74374 0.51677 0.88281 0.0
H2151 H 0.73092 0.51354 0.89049 0.0
C2152 C 0.71959 0.53902 0.86492 0.0
C2153 C 0.70711 0.52833 0.86567 0.0
C2154 C 0.72772 0.54447 0.87104 0.0
C2155 C 0.72363 0.53928 0.87802 0.0
C2156 C 0.71132 0.52848 0.87879 0.0
H2157 H 0.74675 0.5664 0.92208 0.0
H2158 H 0.73639 0.55408 0.91107 0.0
C2159 C 0.70319 0.52301 0.87268 0.0
C2160 C 0.73149 0.54595 0.88453 0.0
H2161 H 0.75226 0.53666 0.89991 0.0
C2162 C 0.7304 0.56192 0.88565 0.0
C2163 C 0.73963 0.53673 0.88969 0.0
C2164 C 0.7418 0.51961 0.88863 0.0
C2165 C 0.7369 0.56889 0.89187 0.0
C2166 C 0.74491 0.55966 0.89705 0.0
C2167 C 0.74609 0.5437 0.89593 0.0
C2168 C 0.75194 0.56642 0.90373 0.0
C2169 C 0.73475 0.58603 0.89293 0.0
C2170 C 0.76437 0.57715 0.90325 0.0
C2171 C 0.77037 0.58415 0.90952 0.0
C2172 C 0.76408 0.58052 0.91641 0.0
C2173 C 0.75196 0.56938 0.91688 0.0
C2174 C 0.74597 0.56237 0.91059 0.0
H2175 H 0.72526 0.59078 0.88937 0.0
H2176 H 0.73173 0.5887 0.89868 0.0
H2177 H 0.74605 0.59199 0.89159 0.0
H2178 H 0.76936 0.58019 0.89801 0.0
H2179 H 0.77992 0.59244 0.90898 0.0
H2180 H 0.74909 0.4671 0.10812 0.0
H2181 H 0.73851 0.48006 0.1189 0.0
H2182 H 0.76657 0.45028 0.13265 0.0
H2183 H 0.77766 0.43766 0.12191 0.0
H2184 H 0.72095 0.46662 0.12972 0.0
H2185 H 0.77566 0.49237 0.14136 0.0
H2186 H 0.77475 0.48515 0.13216 0.0
H2187 H 0.77737 0.47206 0.13966 0.0
C2188 C 0.75329 0.46353 0.11343 0.0
C2189 C 0.76425 0.45133 0.11414 0.0
C2190 C 0.74714 0.47088 0.11959 0.0
C2191 C 0.75189 0.46628 0.12658 0.0
C2192 C 0.76296 0.45425 0.12731 0.0
H2193 H 0.71997 0.48493 0.17048 0.0
H2194 H 0.73368 0.4758 0.15955 0.0
C2195 C 0.76913 0.4469 0.12116 0.0
C2196 C 0.74446 0.47335 0.13311 0.0
H2197 H 0.75273 0.49203 0.14903 0.0
C2198 C 0.72788 0.47231 0.13391 0.0
C2199 C 0.75354 0.48071 0.13858 0.0
C2200 C 0.7713 0.48279 0.13789 0.0
C2201 C 0.72016 0.47809 0.1401 0.0
C2202 C 0.72924 0.48533 0.1456 0.0
C2203 C 0.74581 0.48646 0.1448 0.0
C2204 C 0.7217 0.4916 0.15227 0.0
C2205 C 0.70238 0.47605 0.1408 0.0
C2206 C 0.71072 0.50376 0.15181 0.0
C2207 C 0.70292 0.50905 0.15805 0.0
C2208 C 0.70599 0.50232 0.16487 0.0
C2209 C 0.71741 0.49046 0.16533 0.0
C2210 C 0.72521 0.48518 0.15909 0.0
H2211 H 0.69777 0.46722 0.13697 0.0
H2212 H 0.69911 0.47264 0.14642 0.0
H2213 H 0.69638 0.48715 0.13956 0.0
H2214 H 0.70808 0.50908 0.14662 0.0
H2215 H 0.69445 0.51841 0.15752 0.0
H2216 H 0.78061 0.4661 0.42236 0.0
H2217 H 0.7914 0.47899 0.41161 0.0
H2218 H 0.76187 0.45074 0.39783 0.0
H2219 H 0.7506 0.43819 0.40855 0.0
H2220 H 0.80815 0.46515 0.4006 0.0
H2221 H 0.7542 0.49347 0.38945 0.0
H2222 H 0.75509 0.48595 0.3986 0.0
H2223 H 0.75173 0.4732 0.39104 0.0
C2224 C 0.77614 0.46286 0.41705 0.0
C2225 C 0.76471 0.45111 0.41633 0.0
C2226 C 0.7824 0.47017 0.41091 0.0
C2227 C 0.77731 0.46597 0.40391 0.0
C2228 C 0.76577 0.45439 0.40317 0.0
H2229 H 0.80882 0.48507 0.35998 0.0
H2230 H 0.79507 0.47599 0.37091 0.0
C2231 C 0.75948 0.44709 0.40931 0.0
C2232 C 0.78484 0.47295 0.39739 0.0
H2233 H 0.77691 0.49253 0.38167 0.0
C2234 C 0.80134 0.47126 0.39649 0.0
C2235 C 0.77592 0.48086 0.39203 0.0
C2236 C 0.75828 0.48362 0.39284 0.0
C2237 C 0.80913 0.47696 0.3903 0.0
C2238 C 0.8002 0.48476 0.38491 0.0
C2239 C 0.78371 0.48653 0.38581 0.0
C2240 C 0.80782 0.491 0.37826 0.0
C2241 C 0.82678 0.47422 0.38948 0.0
C2242 C 0.81927 0.50272 0.37876 0.0
C2243 C 0.82709 0.50798 0.37253 0.0
C2244 C 0.82358 0.50167 0.36566 0.0
C2245 C 0.81173 0.49027 0.36516 0.0
C2246 C 0.8039 0.48502 0.3714 0.0
H2247 H 0.83114 0.46506 0.39321 0.0
H2248 H 0.82977 0.47091 0.38381 0.0
H2249 H 0.83326 0.48502 0.39078 0.0
H2250 H 0.82224 0.50771 0.38398 0.0
H2251 H 0.83591 0.51699 0.37309 0.0
H2252 H 0.79083 0.5936 0.6138 0.0
H2253 H 0.80092 0.58131 0.62484 0.0
H2254 H 0.7584 0.55364 0.62616 0.0
H2255 H 0.74822 0.56589 0.61508 0.0
H2256 H 0.78717 0.58165 0.63849 0.0
H2257 H 0.79363 0.5215 0.62845 0.0
H2258 H 0.79091 0.53768 0.62239 0.0
H2259 H 0.77423 0.52987 0.62727 0.0
C2260 C 0.78361 0.5849 0.61644 0.0
C2261 C 0.7687 0.58075 0.61357 0.0
C2262 C 0.78942 0.57785 0.62273 0.0
C2263 C 0.7805 0.56644 0.62629 0.0
C2264 C 0.76564 0.56218 0.62343 0.0
H2265 H 0.80302 0.51638 0.66657 0.0
H2266 H 0.78906 0.52662 0.65587 0.0
C2267 C 0.75983 0.5692 0.6171 0.0
C2268 C 0.78659 0.55957 0.63314 0.0
H2269 H 0.79916 0.52585 0.64089 0.0
C2270 C 0.78976 0.56944 0.63901 0.0
C2271 C 0.78985 0.54362 0.63384 0.0
C2272 C 0.78712 0.53253 0.62764 0.0
C2273 C 0.79626 0.56385 0.64553 0.0
C2274 C 0.79992 0.54799 0.64616 0.0
C2275 C 0.79635 0.53801 0.64038 0.0
C2276 C 0.80825 0.54174 0.65263 0.0
C2277 C 0.79917 0.57498 0.65169 0.0
C2278 C 0.8237 0.54672 0.65429 0.0
C2279 C 0.83166 0.54094 0.66038 0.0
C2280 C 0.82437 0.52999 0.66493 0.0
C2281 C 0.8089 0.52492 0.66322 0.0
C2282 C 0.80095 0.53069 0.6571 0.0
H2283 H 0.79186 0.58559 0.65112 0.0
H2284 H 0.79649 0.56955 0.65703 0.0
H2285 H 0.81189 0.57843 0.65169 0.0
H2286 H 0.82964 0.55508 0.65086 0.0
H2287 H 0.84349 0.54522 0.66157 0.0
H2288 H 0.29223 0.43454 0.11406 0.0
H2289 H 0.30262 0.44725 0.12494 0.0
H2290 H 0.26075 0.47598 0.1259 0.0
H2291 H 0.2501 0.4631 0.11506 0.0
H2292 H 0.30854 0.47967 0.12699 0.0
H2293 H 0.26401 0.45638 0.14652 0.0
H2294 H 0.26723 0.44795 0.13766 0.0
H2295 H 0.25631 0.46566 0.13851 0.0
C2296 C 0.28515 0.44347 0.11662 0.0
C2297 C 0.27028 0.44773 0.11373 0.0
C2298 C 0.29115 0.45078 0.12281 0.0
C2299 C 0.28237 0.46241 0.12627 0.0
C2300 C 0.26761 0.46687 0.12336 0.0
H2301 H 0.30537 0.51186 0.16658 0.0
H2302 H 0.29196 0.50291 0.15551 0.0
C2303 C 0.26162 0.45961 0.11714 0.0
C2304 C 0.28885 0.4699 0.13288 0.0
H2305 H 0.28354 0.47309 0.15123 0.0
C2306 C 0.30305 0.4783 0.13229 0.0
C2307 C 0.28158 0.46817 0.13977 0.0
C2308 C 0.2665 0.45897 0.14071 0.0
C2309 C 0.31029 0.4849 0.13842 0.0
C2310 C 0.30333 0.48273 0.14535 0.0
C2311 C 0.28888 0.4747 0.14592 0.0
C2312 C 0.31128 0.48807 0.1521 0.0
C2313 C 0.3253 0.49419 0.13741 0.0
C2314 C 0.32642 0.48243 0.15394 0.0
C2315 C 0.33407 0.48747 0.16024 0.0
C2316 C 0.32669 0.49819 0.1649 0.0
C2317 C 0.31134 0.50355 0.16314 0.0
C2318 C 0.3037 0.4985 0.1568 0.0
H2319 H 0.32635 0.49863 0.13176 0.0
H2320 H 0.32571 0.50409 0.14123 0.0
H2321 H 0.33577 0.48671 0.13848 0.0
H2322 H 0.33232 0.47405 0.1505 0.0
H2323 H 0.34572 0.48283 0.16151 0.0
H2324 H 0.24925 0.56633 0.9155 0.0
H2325 H 0.25971 0.55331 0.90465 0.0
H2326 H 0.30401 0.57785 0.90699 0.0
H2327 H 0.2938 0.59065 0.91787 0.0
H2328 H 0.27098 0.56761 0.89165 0.0
H2329 H 0.31794 0.53249 0.9049 0.0
H2330 H 0.30171 0.54111 0.90991 0.0
H2331 H 0.31859 0.55256 0.90728 0.0
C2332 C 0.26129 0.56878 0.91375 0.0
C2333 C 0.2707 0.57951 0.91755 0.0
C2334 C 0.26721 0.5614 0.90754 0.0
C2335 C 0.28269 0.56448 0.90507 0.0
C2336 C 0.29212 0.57513 0.90886 0.0
H2337 H 0.3449 0.54431 0.86956 0.0
H2338 H 0.33137 0.55302 0.88057 0.0
C2339 C 0.2862 0.58255 0.91504 0.0
C2340 C 0.2889 0.55706 0.89838 0.0
H2341 H 0.31955 0.53502 0.892 0.0
C2342 C 0.28147 0.56031 0.89172 0.0
C2343 C 0.30258 0.54754 0.8985 0.0
C2344 C 0.3106 0.54308 0.90554 0.0
C2345 C 0.2878 0.55486 0.88512 0.0
C2346 C 0.30176 0.54571 0.88523 0.0
C2347 C 0.30889 0.54209 0.89192 0.0
C2348 C 0.30966 0.54041 0.87846 0.0
C2349 C 0.27989 0.55946 0.87808 0.0
C2350 C 0.30197 0.53034 0.87362 0.0
C2351 C 0.30972 0.52528 0.86731 0.0
C2352 C 0.32535 0.5301 0.86577 0.0
C2353 C 0.33297 0.54019 0.87064 0.0
C2354 C 0.32522 0.54524 0.87692 0.0
H2355 H 0.27139 0.56916 0.87884 0.0
H2356 H 0.28889 0.56288 0.87397 0.0
H2357 H 0.27317 0.54948 0.87589 0.0
H2358 H 0.29006 0.52624 0.87478 0.0
H2359 H 0.30359 0.51736 0.86373 0.0
H2360 H 0.19332 0.51399 0.65743 0.0
H2361 H 0.20687 0.52335 0.64652 0.0
H2362 H 0.2339 0.55524 0.65957 0.0
H2363 H 0.22031 0.54606 0.67051 0.0
H2364 H 0.20625 0.55369 0.64136 0.0
H2365 H 0.26818 0.53467 0.64693 0.0
H2366 H 0.25124 0.52698 0.65176 0.0
H2367 H 0.25914 0.54555 0.65415 0.0
C2368 C 0.20217 0.52298 0.65799 0.0
C2369 C 0.20569 0.5293 0.66485 0.0
C2370 C 0.20995 0.52826 0.65175 0.0
C2371 C 0.22152 0.53986 0.65225 0.0
C2372 C 0.22526 0.54604 0.65909 0.0
H2373 H 0.27488 0.59468 0.62142 0.0
H2374 H 0.26364 0.58232 0.63221 0.0
C2375 C 0.21747 0.54078 0.66534 0.0
C2376 C 0.22889 0.54616 0.64554 0.0
H2377 H 0.26448 0.55176 0.63695 0.0
C2378 C 0.21897 0.55317 0.64036 0.0
C2379 C 0.24549 0.54553 0.64428 0.0
C2380 C 0.25665 0.53766 0.64954 0.0
C2381 C 0.22521 0.55986 0.63403 0.0
C2382 C 0.24182 0.55925 0.63276 0.0
C2383 C 0.25175 0.55219 0.63793 0.0
C2384 C 0.2491 0.56621 0.62618 0.0
C2385 C 0.214 0.56793 0.62885 0.0
C2386 C 0.24491 0.56104 0.61921 0.0
C2387 C 0.25119 0.56818 0.61302 0.0
C2388 C 0.26189 0.58057 0.61369 0.0
C2389 C 0.26645 0.58537 0.6207 0.0
C2390 C 0.26014 0.57824 0.62688 0.0
H2391 H 0.20247 0.57079 0.63149 0.0
H2392 H 0.21936 0.57873 0.62674 0.0
H2393 H 0.21151 0.56025 0.62417 0.0
H2394 H 0.23664 0.55158 0.61855 0.0
H2395 H 0.24734 0.56423 0.60772 0.0
H2396 H 0.2751 0.46481 0.41666 0.0
H2397 H 0.26409 0.47757 0.40585 0.0
H2398 H 0.22636 0.44396 0.40503 0.0
H2399 H 0.23703 0.43139 0.41588 0.0
H2400 H 0.2588 0.46434 0.39182 0.0
H2401 H 0.20272 0.48556 0.4042 0.0
H2402 H 0.21956 0.47938 0.40957 0.0
H2403 H 0.2063 0.46538 0.40567 0.0
C2404 C 0.26434 0.46026 0.41422 0.0
C2405 C 0.25693 0.44709 0.41713 0.0
C2406 C 0.25813 0.4675 0.40803 0.0
C2407 C 0.2443 0.46181 0.4047 0.0
C2408 C 0.2369 0.44868 0.40758 0.0
H2409 H 0.18523 0.478 0.36755 0.0
H2410 H 0.19857 0.46917 0.3786 0.0
C2411 C 0.24312 0.44141 0.41374 0.0
C2412 C 0.23776 0.46927 0.39808 0.0
H2413 H 0.20409 0.48593 0.39125 0.0
C2414 C 0.24691 0.46924 0.3917 0.0
C2415 C 0.22227 0.47566 0.39796 0.0
C2416 C 0.21218 0.47666 0.40473 0.0
C2417 C 0.24071 0.47483 0.3851 0.0
C2418 C 0.22504 0.48083 0.38493 0.0
C2419 C 0.21607 0.48125 0.39137 0.0
C2420 C 0.21739 0.48613 0.3781 0.0
C2421 C 0.25073 0.4737 0.37831 0.0
C2422 C 0.22353 0.49864 0.37414 0.0
C2423 C 0.2159 0.50375 0.36781 0.0
C2424 C 0.2019 0.49652 0.36536 0.0
C2425 C 0.19585 0.48396 0.36933 0.0
C2426 C 0.2035 0.47886 0.37564 0.0
H2427 H 0.26096 0.46572 0.37903 0.0
H2428 H 0.24348 0.46969 0.37363 0.0
H2429 H 0.25551 0.48527 0.37696 0.0
H2430 H 0.23407 0.50462 0.37602 0.0
H2431 H 0.22074 0.51357 0.36493 0.0
H2432 H 0.08123 0.04447 0.32753 0.0
H2433 H 0.05215 0.044 0.32833 0.0
H2434 H 0.05103 1.00355 0.31472 0.0
H2435 H 0.0801 1.00364 0.31408 0.0
H2436 H 0.03074 0.04628 0.31685 0.0
H2437 H 0.02238 0.99122 0.3317 0.0
H2438 H 0.04133 1.00096 0.33126 0.0
H2439 H 0.03456 0.98951 0.32372 0.0
C2440 C 0.07482 0.03531 0.32481 0.0
C2441 C 0.08301 0.02407 0.32076 0.0
C2442 C 0.05819 0.03512 0.32524 0.0
C2443 C 0.04944 0.02363 0.32167 0.0
C2444 C 0.05756 1.01236 0.31763 0.0
H2445 H 0.95003 1.00488 0.31343 0.0
H2446 H 0.97912 1.00484 0.31414 0.0
C2447 C 0.07417 1.01254 0.3172 0.0
C2448 C 0.03178 0.02386 0.32185 0.0
H2449 H 0.99918 1.00245 0.32644 0.0
C2450 C 0.02383 0.03676 0.319 0.0
C2451 C 0.0228 1.01141 0.32465 0.0
C2452 C 0.03068 0.99754 0.32807 0.0
C2453 C 1.00714 0.03738 0.31869 0.0
C2454 C 0.99816 0.02486 0.32142 0.0
C2455 C 1.0061 1.01201 0.32434 0.0
C2456 C 0.98051 0.02477 0.32118 0.0
C2457 C 0.99926 0.05122 0.31525 0.0
C2458 C 0.97165 0.03585 0.32499 0.0
C2459 C 0.95502 0.03597 0.32456 0.0
C2460 C 0.94694 0.02496 0.32033 0.0
C2461 C 0.95588 1.01368 0.31664 0.0
C2462 C 0.9725 1.01356 0.31708 0.0
H2463 H 1.00774 0.058 0.31189 0.0
H2464 H 0.9891 0.04767 0.31177 0.0
H2465 H 0.99461 0.05889 0.31959 0.0
H2466 H 0.97759 0.04445 0.32828 0.0
H2467 H 0.94853 0.04488 0.32744 0.0
H2468 H 0.29535 0.82242 0.55461 0.0
H2469 H 0.29648 0.79431 0.55541 0.0
H2470 H 0.31563 0.79764 0.57711 0.0
H2471 H 0.31471 0.82581 0.57633 0.0
H2472 H 0.32315 0.77511 0.55798 0.0
H2473 H 0.27724 0.76861 0.57954 0.0
H2474 H 0.27974 0.78624 0.57445 0.0
H2475 H 0.2933 0.7815 0.58166 0.0
C2476 C 0.29994 0.8172 0.55953 0.0
C2477 C 0.3049 0.8264 0.56541 0.0
C2478 C 0.3005 0.80112 0.55999 0.0
C2479 C 0.30593 0.79389 0.56635 0.0
C2480 C 0.31108 0.80299 0.5722 0.0
H2481 H 0.31339 0.69612 0.57765 0.0
H2482 H 0.31479 0.72434 0.57779 0.0
C2483 C 0.31054 0.81909 0.57175 0.0
C2484 C 0.30636 0.77681 0.56679 0.0
H2485 H 0.29035 0.74592 0.57569 0.0
C2486 C 0.31599 0.76872 0.56185 0.0
C2487 C 0.29707 0.76852 0.57187 0.0
C2488 C 0.28614 0.77661 0.57715 0.0
C2489 C 0.31659 0.75254 0.56186 0.0
C2490 C 0.30705 0.74423 0.56685 0.0
C2491 C 0.29764 0.75232 0.57187 0.0
C2492 C 0.30627 0.72713 0.56676 0.0
C2493 C 0.32756 0.74449 0.55659 0.0
C2494 C 0.30077 0.71936 0.56056 0.0
C2495 C 0.29989 0.70328 0.56047 0.0
C2496 C 0.3044 0.6946 0.56661 0.0
C2497 C 0.30972 0.70244 0.57285 0.0
C2498 C 0.3106 0.71856 0.57293 0.0
H2499 H 0.33718 0.75226 0.55466 0.0
H2500 H 0.33306 0.73413 0.5591 0.0
H2501 H 0.32061 0.74073 0.55177 0.0
H2502 H 0.29699 0.72576 0.55581 0.0
H2503 H 0.29542 0.69766 0.55563 0.0
H2504 H 0.44726 0.01516 0.82954 0.0
H2505 H 0.47641 0.01589 0.83002 0.0
H2506 H 0.47876 0.99149 0.80963 0.0
H2507 H 0.44972 0.99058 0.80912 0.0
H2508 H 0.49859 0.99132 0.82987 0.0
H2509 H 0.50644 0.02971 0.80602 0.0
H2510 H 0.48753 0.02734 0.81055 0.0
H2511 H 0.49441 1.01305 0.8042 0.0
C2512 C 0.45398 1.00986 0.82518 0.0
C2513 C 0.44614 1.00293 0.81926 0.0
C2514 C 0.47063 1.01035 0.82545 0.0
C2515 C 0.47973 1.00399 0.8198 0.0
C2516 C 0.47196 0.9968 0.81396 0.0
H2517 H 0.57839 0.99026 0.80912 0.0
H2518 H 0.54935 0.99106 0.80981 0.0
C2519 C 0.45535 0.99631 0.81368 0.0
C2520 C 0.49737 1.00464 0.82001 0.0
H2521 H 0.52973 0.01728 0.81051 0.0
C2522 C 0.50542 0.99711 0.82568 0.0
C2523 C 0.50623 1.01224 0.81454 0.0
C2524 C 0.49823 0.02117 0.80852 0.0
C2525 C 0.52214 0.9965 0.82589 0.0
C2526 C 0.53099 1.00383 0.82033 0.0
C2527 C 0.52292 1.01161 0.81474 0.0
C2528 C 0.54863 1.00321 0.82007 0.0
C2529 C 0.53018 0.9876 0.83191 0.0
C2530 C 0.55786 1.00989 0.8256 0.0
C2531 C 0.5745 1.00952 0.8252 0.0
C2532 C 0.5822 1.00256 0.81925 0.0
C2533 C 0.57286 0.9959 0.81373 0.0
C2534 C 0.55626 0.99628 0.81413 0.0
H2535 H 0.52176 0.9798 0.83477 0.0
H2536 H 0.54022 0.98063 0.82975 0.0
H2537 H 0.53506 0.99582 0.83596 0.0
H2538 H 0.55221 0.01558 0.83016 0.0
H2539 H 0.58133 0.01494 0.82949 0.0
H2540 H 0.21462 0.2034 0.07638 0.0
H2541 H 0.21392 0.23159 0.0771 0.0
H2542 H 0.23181 0.23459 0.05518 0.0
H2543 H 0.23272 0.20649 0.05443 0.0
H2544 H 0.23916 0.2526 0.07541 0.0
H2545 H 0.19223 0.26232 0.05469 0.0
H2546 H 0.19583 0.24369 0.05876 0.0
H2547 H 0.20843 0.25055 0.05155 0.0
C2548 C 0.21847 0.21005 0.07172 0.0
C2549 C 0.22365 0.20265 0.06533 0.0
C2550 C 0.21799 0.22616 0.07214 0.0
C2551 C 0.22257 0.23518 0.06616 0.0
C2552 C 0.22786 0.22786 0.0598 0.0
H2553 H 0.23491 0.33134 0.05604 0.0
H2554 H 0.23347 0.3032 0.05627 0.0
C2555 C 0.22836 0.21177 0.05938 0.0
C2556 C 0.22226 0.25226 0.06661 0.0
H2557 H 0.20673 0.28442 0.05855 0.0
C2558 C 0.23197 0.25958 0.07178 0.0
C2559 C 0.21285 0.26131 0.06187 0.0
C2560 C 0.20162 0.25409 0.05645 0.0
C2561 C 0.23292 0.27574 0.07216 0.0
C2562 C 0.22373 0.28478 0.06732 0.0
C2563 C 0.21382 0.27745 0.06224 0.0
C2564 C 0.22454 0.30187 0.06728 0.0
C2565 C 0.24416 0.28298 0.07757 0.0
C2566 C 0.21983 0.31049 0.07337 0.0
C2567 C 0.22057 0.32661 0.07325 0.0
C2568 C 0.22593 0.33443 0.06701 0.0
C2569 C 0.23053 0.32572 0.0609 0.0
C2570 C 0.22979 0.30963 0.06103 0.0
H2571 H 0.25298 0.27453 0.07968 0.0
H2572 H 0.25066 0.29279 0.07508 0.0
H2573 H 0.23722 0.28746 0.08225 0.0
H2574 H 0.21543 0.30474 0.0782 0.0
H2575 H 0.21671 0.33295 0.07801 0.0
H2576 H 0.94899 0.02574 0.71751 0.0
H2577 H 0.97808 0.02635 0.71699 0.0
H2578 H 0.97797 0.98588 0.70338 0.0
H2579 H 0.94889 0.98512 0.7039 0.0
H2580 H 0.99897 1.00349 0.72165 0.0
H2581 H 1.00714 0.0153 0.69222 0.0
H2582 H 0.98831 0.018 0.69678 0.0
H2583 H 0.99469 0.999 0.69418 0.0
C2584 C 0.95514 0.01695 0.71441 0.0
C2585 C 0.94659 1.00538 0.71074 0.0
C2586 C 0.97176 0.01737 0.71408 0.0
C2587 C 0.98018 1.00629 0.71006 0.0
C2588 C 0.97171 0.99476 0.70637 0.0
H2589 H 0.08047 0.98493 0.70439 0.0
H2590 H 0.05135 0.98561 0.70392 0.0
C2591 C 0.95508 0.99434 0.70668 0.0
C2592 C 0.99784 1.00637 0.71004 0.0
H2593 H 0.03036 1.00881 0.69894 0.0
C2594 C 1.00584 1.00475 0.71669 0.0
C2595 C 1.00677 1.00794 0.70355 0.0
C2596 C 0.99882 1.0103 0.69628 0.0
C2597 C 0.02253 1.00439 0.71704 0.0
C2598 C 0.03146 1.00599 0.71056 0.0
C2599 C 0.02348 1.00759 0.7039 0.0
C2600 C 0.04912 1.006 0.71061 0.0
C2601 C 0.03044 1.00196 0.72432 0.0
C2602 C 0.05752 0.01743 0.7144 0.0
C2603 C 0.07415 0.0171 0.71466 0.0
C2604 C 0.08272 1.00539 0.7111 0.0
C2605 C 0.07426 0.99418 0.70714 0.0
C2606 C 0.05761 0.99451 0.7069 0.0
H2607 H 0.02208 0.99703 0.72838 0.0
H2608 H 0.04087 0.99414 0.72382 0.0
H2609 H 0.03469 1.01321 0.72643 0.0
H2610 H 0.05121 0.02661 0.71717 0.0
H2611 H 0.0803 0.02608 0.71763 0.0
H2612 H 0.21354 0.82346 0.97563 0.0
H2613 H 0.21335 0.79535 0.97477 0.0
H2614 H 0.23514 0.798 0.95358 0.0
H2615 H 0.23615 0.82605 0.95454 0.0
H2616 H 0.199 0.77623 0.96509 0.0
H2617 H 0.26448 0.76821 0.96384 0.0
H2618 H 0.25544 0.78637 0.96627 0.0
H2619 H 0.25687 0.78069 0.95688 0.0
C2620 C 0.21852 0.81808 0.97083 0.0
C2621 C 0.225 0.82708 0.96519 0.0
C2622 C 0.21827 0.802 0.97032 0.0
C2623 C 0.22449 0.79454 0.96417 0.0
C2624 C 0.2306 0.80347 0.95845 0.0
H2625 H 0.2311 0.69766 0.95184 0.0
H2626 H 0.23036 0.72587 0.95185 0.0
C2627 C 0.23096 0.81955 0.95897 0.0
C2628 C 0.22444 0.77743 0.96374 0.0
H2629 H 0.24865 0.746 0.96177 0.0
C2630 C 0.20986 0.76963 0.96438 0.0
C2631 C 0.23863 0.7688 0.96283 0.0
C2632 C 0.25476 0.77642 0.96248 0.0
C2633 C 0.20908 0.75346 0.96408 0.0
C2634 C 0.22325 0.74489 0.96315 0.0
C2635 C 0.23781 0.75265 0.96245 0.0
C2636 C 0.2233 0.72781 0.96311 0.0
C2637 C 0.19311 0.74564 0.96468 0.0
C2638 C 0.2197 0.71959 0.96947 0.0
C2639 C 0.22032 0.70348 0.96952 0.0
C2640 C 0.22452 0.69524 0.96321 0.0
C2641 C 0.22803 0.70358 0.95683 0.0
C2642 C 0.22751 0.7197 0.9568 0.0
H2643 H 0.18311 0.75386 0.96384 0.0
H2644 H 0.1921 0.73617 0.96065 0.0
H2645 H 0.19189 0.74053 0.97019 0.0
H2646 H 0.21668 0.72566 0.97443 0.0
H2647 H 0.21785 0.69752 0.97457 0.0
H2648 H 0.4474 1.00271 0.20914 0.0
H2649 H 0.47655 1.00214 0.20885 0.0
H2650 H 0.4777 0.05131 0.2123 0.0
H2651 H 0.4486 0.05191 0.21272 0.0
H2652 H 0.498 0.01612 0.20001 0.0
H2653 H 0.5066 0.03634 0.22833 0.0
H2654 H 0.48747 0.03033 0.22491 0.0
H2655 H 0.49485 0.04938 0.22298 0.0
C2656 C 0.45388 1.0134 0.20981 0.0
C2657 C 0.44572 0.02734 0.21103 0.0
C2658 C 0.47053 1.01306 0.20966 0.0
C2659 C 0.47933 0.02663 0.21071 0.0
C2660 C 0.47119 0.04062 0.2117 0.0
H2661 H 0.57938 0.0505 0.20983 0.0
H2662 H 0.55023 0.05031 0.20941 0.0
C2663 C 0.45456 0.04096 0.21192 0.0
C2664 C 0.49701 0.02618 0.21071 0.0
H2665 H 0.52971 0.03555 0.22084 0.0
C2666 C 0.50492 0.02027 0.20459 0.0
C2667 C 0.50606 0.03153 0.2167 0.0
C2668 C 0.49832 0.0371 0.22363 0.0
C2669 C 0.52163 0.01991 0.20422 0.0
C2670 C 0.53061 0.02554 0.21015 0.0
C2671 C 0.52274 0.03134 0.21629 0.0
C2672 C 0.54823 0.0255 0.2101 0.0
C2673 C 0.52961 1.01377 0.19747 0.0
C2674 C 0.5567 1.0116 0.21065 0.0
C2675 C 0.57334 1.01167 0.21092 0.0
C2676 C 0.58179 0.02566 0.21061 0.0
C2677 C 0.57323 0.03954 0.20999 0.0
C2678 C 0.55659 0.03946 0.20978 0.0
H2679 H 0.52106 1.0122 0.19292 0.0
H2680 H 0.53922 0.02169 0.19568 0.0
H2681 H 0.53515 1.00244 0.19871 0.0
H2682 H 0.55042 1.00072 0.21097 0.0
H2683 H 0.57961 1.00079 0.21135 0.0
H2684 H 0.31115 0.33231 0.47528 0.0
H2685 H 0.31291 0.30423 0.4754 0.0
H2686 H 0.29966 0.30294 0.45276 0.0
H2687 H 0.29874 0.33108 0.45247 0.0
H2688 H 0.28974 0.28365 0.47301 0.0
H2689 H 0.33768 0.27469 0.45273 0.0
H2690 H 0.33332 0.29337 0.45656 0.0
H2691 H 0.32136 0.28584 0.44926 0.0
C2692 C 0.30896 0.32611 0.47027 0.0
C2693 C 0.30489 0.33404 0.46385 0.0
C2694 C 0.30983 0.31002 0.47037 0.0
C2695 C 0.30665 0.30145 0.46406 0.0
C2696 C 0.30253 0.30929 0.45765 0.0
H2697 H 0.29354 0.20373 0.45575 0.0
H2698 H 0.29453 0.23189 0.45508 0.0
C2699 C 0.30177 0.32541 0.45753 0.0
C2700 C 0.30691 0.28432 0.46432 0.0
H2701 H 0.32331 0.25233 0.45643 0.0
C2702 C 0.29717 0.27682 0.46941 0.0
C2703 C 0.3166 0.27539 0.45962 0.0
C2704 C 0.32795 0.28272 0.45428 0.0
C2705 C 0.29668 0.26067 0.46988 0.0
C2706 C 0.30624 0.25178 0.46514 0.0
C2707 C 0.31597 0.25922 0.46003 0.0
C2708 C 0.30627 0.23472 0.46545 0.0
C2709 C 0.28575 0.25318 0.47534 0.0
C2710 C 0.3128 0.22701 0.47146 0.0
C2711 C 0.31243 0.21091 0.47183 0.0
C2712 C 0.30549 0.20219 0.46621 0.0
C2713 C 0.29917 0.21002 0.46014 0.0
C2714 C 0.29963 0.22612 0.45976 0.0
H2715 H 0.27705 0.26151 0.47765 0.0
H2716 H 0.27913 0.2435 0.4728 0.0
H2717 H 0.29295 0.2484 0.47987 0.0
H2718 H 0.31817 0.23346 0.47586 0.0
H2719 H 0.31769 0.2053 0.47652 0.0
H2720 H 0.70172 0.20433 0.46739 0.0
H2721 H 0.70081 0.2325 0.4664 0.0
H2722 H 0.75126 0.2333 0.46207 0.0
H2723 H 0.75221 0.2052 0.46296 0.0
H2724 H 0.71573 0.25425 0.47436 0.0
H2725 H 0.73467 0.25948 0.44562 0.0
H2726 H 0.7288 0.24132 0.44959 0.0
H2727 H 0.74859 0.24869 0.451 0.0
C2728 C 0.71261 0.21053 0.46622 0.0
C2729 C 0.72702 0.20253 0.4652 0.0
C2730 C 0.71207 0.22661 0.46563 0.0
C2731 C 0.7259 0.235 0.46401 0.0
C2732 C 0.74034 0.22706 0.4631 0.0
H2733 H 0.75367 0.33064 0.46381 0.0
H2734 H 0.75207 0.30243 0.46381 0.0
C2735 C 0.74087 0.21099 0.46364 0.0
C2736 C 0.72539 0.25211 0.46355 0.0
H2737 H 0.73516 0.28265 0.45268 0.0
C2738 C 0.71981 0.26045 0.46959 0.0
C2739 C 0.73068 0.26021 0.45731 0.0
C2740 C 0.73587 0.25196 0.45049 0.0
C2741 C 0.71985 0.27665 0.46963 0.0
C2742 C 0.72554 0.28469 0.46348 0.0
C2743 C 0.73089 0.2764 0.45741 0.0
C2744 C 0.72636 0.30174 0.46332 0.0
C2745 C 0.71419 0.28509 0.47632 0.0
C2746 C 0.71243 0.31063 0.46296 0.0
C2747 C 0.7133 0.32674 0.46294 0.0
C2748 C 0.72813 0.33422 0.46332 0.0
C2749 C 0.74207 0.32523 0.4636 0.0
C2750 C 0.74119 0.30913 0.46357 0.0
H2751 H 0.71242 0.27721 0.48102 0.0
H2752 H 0.72287 0.29415 0.47789 0.0
H2753 H 0.70269 0.29086 0.47512 0.0
H2754 H 0.70089 0.30511 0.46271 0.0
H2755 H 0.70236 0.33335 0.46276 0.0
H2756 H 0.79239 0.69815 0.97472 0.0
H2757 H 0.7938 0.72628 0.97453 0.0
H2758 H 0.81341 0.72481 0.95287 0.0
H2759 H 0.81216 0.6966 0.95303 0.0
H2760 H 0.82077 0.74505 0.97263 0.0
H2761 H 0.77593 0.75505 0.95089 0.0
H2762 H 0.7779 0.73679 0.95552 0.0
H2763 H 0.79183 0.74209 0.94855 0.0
C2764 C 0.7971 0.70378 0.96993 0.0
C2765 C 0.80216 0.69509 0.96389 0.0
C2766 C 0.79783 0.71987 0.96981 0.0
C2767 C 0.80352 0.72764 0.96365 0.0
C2768 C 0.80867 0.71906 0.95763 0.0
H2769 H 0.81386 0.8262 0.95482 0.0
H2770 H 0.81464 0.79802 0.95405 0.0
C2771 C 0.80794 0.70293 0.95773 0.0
C2772 C 0.80434 0.74473 0.96364 0.0
H2773 H 0.78942 0.77696 0.95539 0.0
C2774 C 0.81392 0.75203 0.96886 0.0
C2775 C 0.79546 0.75381 0.95869 0.0
C2776 C 0.78458 0.74659 0.95312 0.0
C2777 C 0.81487 0.76817 0.96926 0.0
C2778 C 0.80575 0.77725 0.96441 0.0
C2779 C 0.79638 0.76996 0.95911 0.0
C2780 C 0.8054 0.79433 0.96489 0.0
C2781 C 0.82576 0.77536 0.97484 0.0
C2782 C 0.79975 0.8016 0.9712 0.0
C2783 C 0.79921 0.81767 0.97165 0.0
C2784 C 0.80424 0.82685 0.96577 0.0
C2785 C 0.80977 0.81951 0.95942 0.0
C2786 C 0.81029 0.8034 0.95898 0.0
H2787 H 0.83506 0.76713 0.97669 0.0
H2788 H 0.83166 0.7858 0.97262 0.0
H2789 H 0.81865 0.77882 0.97966 0.0
H2790 H 0.79555 0.79482 0.97576 0.0
H2791 H 0.79458 0.82292 0.97655 0.0
H2792 H 0.80878 0.33244 0.05571 0.0
H2793 H 0.8096 0.30431 0.05593 0.0
H2794 H 0.79698 0.30464 0.07865 0.0
H2795 H 0.79527 0.33276 0.0784 0.0
H2796 H 0.82783 0.28452 0.06367 0.0
H2797 H 0.7642 0.27541 0.07054 0.0
H2798 H 0.77188 0.29394 0.0678 0.0
H2799 H 0.77459 0.28723 0.07698 0.0
C2800 C 0.80592 0.32655 0.06073 0.0
C2801 C 0.80177 0.33492 0.06701 0.0
C2802 C 0.80655 0.31045 0.06086 0.0
C2803 C 0.80307 0.30233 0.06727 0.0
C2804 C 0.79935 0.31063 0.0736 0.0
H2805 H 0.80279 0.20406 0.07733 0.0
H2806 H 0.80332 0.23223 0.07803 0.0
C2807 C 0.7986 0.32674 0.07347 0.0
C2808 C 0.80345 0.2852 0.06729 0.0
H2809 H 0.78075 0.25324 0.0705 0.0
C2810 C 0.81752 0.27769 0.06515 0.0
C2811 C 0.78998 0.27628 0.06922 0.0
C2812 C 0.77426 0.2836 0.0712 0.0
C2813 C 0.81851 0.26153 0.06492 0.0
C2814 C 0.80506 0.25266 0.06684 0.0
C2815 C 0.79105 0.26011 0.06906 0.0
C2816 C 0.80514 0.23561 0.06641 0.0
C2817 C 0.83395 0.25402 0.06268 0.0
C2818 C 0.80586 0.22822 0.05964 0.0
C2819 C 0.80533 0.21213 0.0592 0.0
C2820 C 0.8041 0.2031 0.06554 0.0
C2821 C 0.8035 0.21061 0.07233 0.0
C2822 C 0.80391 0.22671 0.07275 0.0
H2823 H 0.84405 0.26226 0.06279 0.0
H2824 H 0.83677 0.24413 0.0663 0.0
H2825 H 0.83276 0.24953 0.05705 0.0
H2826 H 0.80656 0.23492 0.05468 0.0
H2827 H 0.80553 0.2068 0.05388 0.0
H2828 H 0.70126 0.8237 0.55967 0.0
H2829 H 0.70025 0.79554 0.56047 0.0
H2830 H 0.74439 0.79546 0.57245 0.0
H2831 H 0.74553 0.82357 0.57164 0.0
H2832 H 0.72224 0.7744 0.55524 0.0
H2833 H 0.71578 0.7686 0.58513 0.0
H2834 H 0.71257 0.78663 0.58044 0.0
H2835 H 0.73246 0.78016 0.5824 0.0
C2836 C 0.71077 0.81769 0.56246 0.0
C2837 C 0.72345 0.82591 0.56561 0.0
C2838 C 0.71013 0.80161 0.56295 0.0
C2839 C 0.72211 0.79342 0.56662 0.0
C2840 C 0.7348 0.80156 0.56975 0.0
H2841 H 0.74594 0.69715 0.57288 0.0
H2842 H 0.74473 0.72535 0.57288 0.0
C2843 C 0.73544 0.81764 0.56927 0.0
C2844 C 0.72169 0.77632 0.56691 0.0
H2845 H 0.72145 0.74561 0.57855 0.0
C2846 C 0.72194 0.7681 0.56033 0.0
C2847 C 0.72135 0.76812 0.57356 0.0
C2848 C 0.72037 0.77631 0.58079 0.0
C2849 C 0.72224 0.75191 0.56023 0.0
C2850 C 0.722 0.74372 0.56689 0.0
C2851 C 0.72165 0.75192 0.57346 0.0
C2852 C 0.72231 0.72662 0.56712 0.0
C2853 C 0.72324 0.74373 0.553 0.0
C2854 C 0.70994 0.71798 0.56402 0.0
C2855 C 0.71057 0.70187 0.56403 0.0
C2856 C 0.72354 0.69406 0.56719 0.0
C2857 C 0.73572 0.70277 0.57046 0.0
C2858 C 0.73508 0.71889 0.57044 0.0
H2859 H 0.72723 0.75157 0.54859 0.0
H2860 H 0.73156 0.73379 0.5533 0.0
H2861 H 0.71129 0.73928 0.55153 0.0
H2862 H 0.6998 0.72371 0.56158 0.0
H2863 H 0.70084 0.69552 0.56159 0.0
H2864 H 0.58117 0.47364 0.82133 0.0
H2865 H 0.55203 0.47268 0.82161 0.0
H2866 H 0.5501 0.52218 0.81949 0.0
H2867 H 0.57918 0.52318 0.8191 0.0
H2868 H 0.53028 0.48536 0.8308 0.0
H2869 H 0.52153 0.5088 0.80304 0.0
H2870 H 0.54073 0.50257 0.80633 0.0
H2871 H 0.5331 0.5213 0.80873 0.0
C2872 C 0.57452 0.48432 0.82096 0.0
C2873 C 0.58246 0.49848 0.82012 0.0
C2874 C 0.55788 0.48375 0.8211 0.0
C2875 C 0.54886 0.49733 0.82041 0.0
C2876 C 0.55678 0.51152 0.81981 0.0
H2877 H 0.44875 0.52073 0.82165 0.0
H2878 H 0.47789 0.52047 0.82208 0.0
C2879 C 0.5734 0.51208 0.81961 0.0
C2880 C 0.53119 0.49668 0.82038 0.0
H2881 H 0.49841 0.50702 0.81049 0.0
C2882 C 0.52332 0.49 0.82634 0.0
C2883 C 0.52209 0.50266 0.81453 0.0
C2884 C 0.52979 0.50909 0.80776 0.0
C2885 C 0.50661 0.4895 0.82668 0.0
C2886 C 0.49758 0.49577 0.82091 0.0
C2887 C 0.50541 0.50232 0.81493 0.0
C2888 C 0.47995 0.49572 0.82097 0.0
C2889 C 0.49869 0.48255 0.83327 0.0
C2890 C 0.4715 0.48189 0.82018 0.0
C2891 C 0.45485 0.482 0.8199 0.0
C2892 C 0.44638 0.49595 0.82045 0.0
C2893 C 0.45492 0.50977 0.82131 0.0
C2894 C 0.47155 0.50966 0.82152 0.0
H2895 H 0.50724 0.48059 0.83779 0.0
H2896 H 0.48895 0.49015 0.83523 0.0
H2897 H 0.49334 0.4713 0.83176 0.0
H2898 H 0.47779 0.47103 0.81967 0.0
H2899 H 0.4486 0.47116 0.81929 0.0
H2900 H 0.08004 0.5566 0.31428 0.0
H2901 H 0.05096 0.55751 0.31493 0.0
H2902 H 0.0508 0.51474 0.3269 0.0
H2903 H 0.07985 0.5137 0.32624 0.0
H2904 H 0.02976 0.53597 0.30944 0.0
H2905 H 0.02202 0.54224 0.33926 0.0
H2906 H 0.04084 0.54552 0.33478 0.0
H2907 H 0.03427 0.5262 0.33664 0.0
C2908 C 0.07382 0.54738 0.31705 0.0
C2909 C 0.08229 0.53508 0.32022 0.0
C2910 C 0.05721 0.54796 0.31745 0.0
C2911 C 0.04872 0.53631 0.32105 0.0
C2912 C 0.05712 0.52405 0.32424 0.0
H2913 H 0.94875 0.51377 0.32608 0.0
H2914 H 0.97786 0.51466 0.32652 0.0
C2915 C 0.07374 0.52346 0.32386 0.0
C2916 C 0.03105 0.53659 0.32113 0.0
H2917 H 0.99868 0.53695 0.33238 0.0
C2918 C 0.02296 0.53629 0.31445 0.0
C2919 C 0.02221 0.53694 0.32768 0.0
C2920 C 0.03025 0.53788 0.335 0.0
C2921 C 1.00626 0.53604 0.31414 0.0
C2922 C 0.99741 0.53637 0.32069 0.0
C2923 C 1.0055 0.53669 0.32737 0.0
C2924 C 0.97975 0.53625 0.32069 0.0
C2925 C 0.99825 0.53502 0.30681 0.0
C2926 C 0.97114 0.54827 0.31741 0.0
C2927 C 0.95452 0.54781 0.31717 0.0
C2928 C 0.94615 0.53538 0.32025 0.0
C2929 C 0.95481 0.52357 0.32371 0.0
C2930 C 0.97145 0.52403 0.32394 0.0
H2931 H 1.00658 0.53096 0.30253 0.0
H2932 H 0.98789 0.5271 0.307 0.0
H2933 H 0.99388 0.54662 0.30522 0.0
H2934 H 0.9773 0.55799 0.31502 0.0
H2935 H 0.94821 0.55724 0.31459 0.0
H2936 H 0.44916 0.51357 0.20438 0.0
H2937 H 0.47826 0.51456 0.20384 0.0
H2938 H 0.47779 0.55758 0.21558 0.0
H2939 H 0.44871 0.55673 0.21612 0.0
H2940 H 0.49888 0.53709 0.19802 0.0
H2941 H 0.50742 0.5303 0.22779 0.0
H2942 H 0.48865 0.52648 0.22337 0.0
H2943 H 0.4946 0.54598 0.22525 0.0
C2944 C 0.45523 0.52333 0.20679 0.0
C2945 C 0.4466 0.53502 0.21035 0.0
C2946 C 0.47186 0.52384 0.20649 0.0
C2947 C 0.48019 0.53601 0.20977 0.0
C2948 C 0.47161 0.5479 0.21316 0.0
H2949 H 0.58036 0.55693 0.21593 0.0
H2950 H 0.55127 0.55759 0.21536 0.0
C2951 C 0.45499 0.54739 0.21346 0.0
C2952 C 0.49785 0.53619 0.20971 0.0
H2953 H 0.53043 0.53567 0.22082 0.0
C2954 C 0.5058 0.53673 0.20299 0.0
C2955 C 0.50684 0.53572 0.21621 0.0
C2956 C 0.49898 0.53445 0.22357 0.0
C2957 C 0.5225 0.53709 0.20262 0.0
C2958 C 0.53148 0.53662 0.20913 0.0
C2959 C 0.52352 0.53608 0.21583 0.0
C2960 C 0.54915 0.53652 0.20914 0.0
C2961 C 0.53039 0.53828 0.19527 0.0
C2962 C 0.55762 0.52442 0.20586 0.0
C2963 C 0.57426 0.52398 0.2062 0.0
C2964 C 0.58274 0.53557 0.20989 0.0
C2965 C 0.57419 0.54772 0.21313 0.0
C2966 C 0.55757 0.54816 0.21277 0.0
H2967 H 0.52203 0.54265 0.19106 0.0
H2968 H 0.5409 0.54602 0.19548 0.0
H2969 H 0.53451 0.52668 0.19356 0.0
H2970 H 0.55136 0.51513 0.20317 0.0
H2971 H 0.58044 0.51433 0.20375 0.0
H2972 H 0.94944 0.52187 0.71227 0.0
H2973 H 0.97851 0.52115 0.71153 0.0
H2974 H 0.97686 0.47212 0.70767 0.0
H2975 H 0.94775 0.47284 0.70827 0.0
H2976 H 0.99923 0.50599 0.72005 0.0
H2977 H 1.00626 0.48575 0.69162 0.0
H2978 H 0.98746 0.49247 0.69517 0.0
H2979 H 0.99423 0.47319 0.69708 0.0
C2980 C 0.95528 0.51095 0.71124 0.0
C2981 C 0.94631 0.49742 0.71031 0.0
C2982 C 0.97189 0.51055 0.7108 0.0
C2983 C 0.97989 0.49662 0.70944 0.0
C2984 C 0.97096 0.48307 0.70853 0.0
H2985 H 0.08031 0.47155 0.71071 0.0
H2986 H 0.05111 0.47139 0.7104 0.0
C2987 C 0.95432 0.48349 0.7089 0.0
C2988 C 0.99757 0.49624 0.7093 0.0
H2989 H 0.02971 0.48623 0.6989 0.0
C2990 C 1.00587 0.50175 0.7154 0.0
C2991 C 1.00627 0.49067 0.70324 0.0
C2992 C 0.99811 0.48532 0.69638 0.0
C2993 C 0.02257 0.50171 0.71564 0.0
C2994 C 0.03121 0.49609 0.7096 0.0
C2995 C 0.02299 0.49049 0.70352 0.0
C2996 C 0.04883 0.49615 0.70952 0.0
C2997 C 0.0309 0.50754 0.72236 0.0
C2998 C 0.05715 0.51012 0.70902 0.0
C2999 C 0.07379 0.51026 0.70917 0.0
C3000 C 0.0824 0.49641 0.70986 0.0
C3001 C 0.074 0.48241 0.71026 0.0
C3002 C 0.05735 0.48228 0.71004 0.0
H3003 H 0.02258 0.50895 0.72701 0.0
H3004 H 0.04059 0.49951 0.72398 0.0
H3005 H 0.03637 0.5189 0.72118 0.0
H3006 H 0.05075 0.52093 0.70857 0.0
H3007 H 0.0799 0.52123 0.70892 0.0
loop_
_geom_bond_atom_site_label_1
_geom_bond_atom_site_label_2
_geom_bond_distance
_geom_bond_site_symmetry_2
_ccdc_geom_bond_type
C0 C1 1.264 . S
C0 C5 1.479 . S
C0 C10 1.465 . S
C1 C0 1.264 . S
C1 C3 1.339 . S
C1 H28 0.931 . S
C2 C3 1.395 . S
C2 C4 1.320 . S
C3 C1 1.339 . S
C3 C2 1.395 . S
C3 H29 0.929 . S
C4 C2 1.320 . S
C4 C5 1.405 . S
C4 H30 0.930 . S
C5 C0 1.479 . S
C5 C4 1.405 . S
C5 H31 0.931 . S
U6 O7 2.454 . S
U6 O8 2.458 . S
U6 C9 2.984 . S
U6 C10 2.847 . S
U6 C23 2.882 . S
U6 O24 2.441 . S
U6 O25 2.420 . S
U6 O26 2.455 . S
U6 O27 2.449 . S
O7 U6 2.454 . S
O7 C9 1.353 . S
O8 U6 2.458 . S
O8 C9 1.286 . S
C9 U6 2.984 . S
C9 O7 1.353 . S
C9 O8 1.286 . S
C9 C11 1.363 . S
C10 C0 1.465 . S
C10 U6 2.847 . S
C10 O24 1.249 . S
C10 O25 1.202 . S
C11 C9 1.363 . S
C11 C13 1.408 . S
C11 C16 1.342 . S
C12 C13 1.310 . S
C12 C15 1.461 . S
C12 H32 0.932 . S
C13 C11 1.408 . S
C13 C12 1.310 . S
C13 H33 0.930 . S
C14 C15 1.474 . S
C14 C16 1.285 . S
C14 H34 0.929 . S
C15 C12 1.461 . S
C15 C14 1.474 . S
C16 C11 1.342 . S
C16 C14 1.285 . S
C16 H35 0.930 . S
C17 C20 1.424 . S
C17 C22 1.245 . S
C17 C23 1.428 1_545 S
C18 C21 1.260 . S
C18 C22 1.477 . S
C18 H36 0.932 . S
C19 C20 1.384 . S
C19 C21 1.479 . S
C19 H37 0.929 . S
C20 C17 1.424 . S
C20 C19 1.384 . S
C20 H38 0.928 . S
C21 C18 1.260 . S
C21 C19 1.479 . S
C22 C17 1.245 . S
C22 C18 1.477 . S
C22 H39 0.932 . S
C23 U6 2.882 . S
C23 C17 1.428 1_565 S
C23 O26 1.301 . S
C23 O27 1.282 . S
O24 U6 2.441 . S
O24 C10 1.249 . S
O25 U6 2.420 . S
O25 C10 1.202 . S
O26 U6 2.455 . S
O26 C23 1.301 . S
O27 U6 2.449 . S
O27 C23 1.282 . S
H28 C1 0.931 . S
H29 C3 0.929 . S
H30 C4 0.930 . S
H31 C5 0.931 . S
H32 C12 0.932 . S
H33 C13 0.930 . S
H34 C14 0.929 . S
H35 C16 0.930 . S
H36 C18 0.932 . S
H37 C19 0.929 . S
H38 C20 0.928 . S
H39 C22 0.932 . S
C40 C41 1.264 . S
C40 C45 1.479 . S
C40 C50 1.465 . S
C41 C40 1.264 . S
C41 C43 1.339 . S
C41 H68 0.931 . S
C42 C43 1.395 . S
C42 C44 1.320 . S
C43 C41 1.339 . S
C43 C42 1.395 . S
C43 H69 0.929 . S
C44 C42 1.320 . S
C44 C45 1.405 . S
C44 H70 0.930 . S
C45 C40 1.479 . S
C45 C44 1.405 . S
C45 H71 0.931 . S
U46 O47 2.454 . S
U46 O48 2.458 . S
U46 C49 2.984 . S
U46 C50 2.847 . S
U46 C63 2.882 . S
U46 O64 2.441 . S
U46 O65 2.420 . S
U46 O66 2.455 . S
U46 O67 2.449 . S
O47 U46 2.454 . S
O47 C49 1.353 . S
O48 U46 2.458 . S
O48 C49 1.286 . S
C49 U46 2.984 . S
C49 O47 1.353 . S
C49 O48 1.286 . S
C49 C51 1.363 . S
C50 C40 1.465 . S
C50 U46 2.847 . S
C50 O64 1.249 . S
C50 O65 1.202 . S
C51 C49 1.363 . S
C51 C53 1.408 . S
C51 C56 1.342 . S
C52 C53 1.310 . S
C52 C55 1.461 . S
C52 H72 0.932 . S
C53 C51 1.408 . S
C53 C52 1.310 . S
C53 H73 0.930 . S
C54 C55 1.474 . S
C54 C56 1.285 . S
C54 H74 0.929 . S
C55 C52 1.461 . S
C55 C54 1.474 . S
C56 C51 1.342 . S
C56 C54 1.285 . S
C56 H75 0.930 . S
C57 C60 1.424 . S
C57 C62 1.245 . S
C57 C63 1.428 . S
C58 C61 1.260 . S
C58 C62 1.477 . S
C58 H76 0.932 . S
C59 C60 1.384 . S
C59 C61 1.479 . S
C59 H77 0.929 . S
C60 C57 1.424 . S
C60 C59 1.384 . S
C60 H78 0.928 . S
C61 C58 1.260 . S
C61 C59 1.479 . S
C62 C57 1.245 . S
C62 C58 1.477 . S
C62 H79 0.932 . S
C63 U46 2.882 . S
C63 C57 1.428 . S
C63 O66 1.301 . S
C63 O67 1.282 . S
O64 U46 2.441 . S
O64 C50 1.249 . S
O65 U46 2.420 . S
O65 C50 1.202 . S
O66 U46 2.455 . S
O66 C63 1.301 . S
O67 U46 2.449 . S
O67 C63 1.282 . S
H68 C41 0.931 . S
H69 C43 0.929 . S
H70 C44 0.930 . S
H71 C45 0.931 . S
H72 C52 0.932 . S
H73 C53 0.930 . S
H74 C54 0.929 . S
H75 C56 0.930 . S
H76 C58 0.932 . S
H77 C59 0.929 . S
H78 C60 0.928 . S
H79 C62 0.932 . S
C80 C81 1.264 . S
C80 C85 1.479 . S
C80 C90 1.465 . S
C81 C80 1.264 . S
C81 C83 1.339 . S
C81 H108 0.931 . S
C82 C83 1.395 . S
C82 C84 1.320 . S
C83 C81 1.339 . S
C83 C82 1.395 . S
C83 H109 0.929 . S
C84 C82 1.320 . S
C84 C85 1.405 . S
C84 H110 0.930 . S
C85 C80 1.479 . S
C85 C84 1.405 . S
C85 H111 0.931 . S
U86 O87 2.454 . S
U86 O88 2.458 . S
U86 C89 2.984 . S
U86 C90 2.847 . S
U86 C103 2.882 . S
U86 O104 2.441 . S
U86 O105 2.420 . S
U86 O106 2.455 . S
U86 O107 2.449 . S
O87 U86 2.454 . S
O87 C89 1.353 . S
O88 U86 2.458 . S
O88 C89 1.286 . S
C89 U86 2.984 . S
C89 O87 1.353 . S
C89 O88 1.286 . S
C89 C91 1.363 . S
C90 C80 1.465 . S
C90 U86 2.847 . S
C90 O104 1.249 . S
C90 O105 1.202 . S
C91 C89 1.363 . S
C91 C93 1.408 . S
C91 C96 1.342 . S
C92 C93 1.310 . S
C92 C95 1.461 . S
C92 H112 0.932 . S
C93 C91 1.408 . S
C93 C92 1.310 . S
C93 H113 0.930 . S
C94 C95 1.474 . S
C94 C96 1.285 . S
C94 H114 0.929 . S
C95 C92 1.461 . S
C95 C94 1.474 . S
C96 C91 1.342 . S
C96 C94 1.285 . S
C96 H115 0.930 . S
C97 C100 1.424 . S
C97 C102 1.245 . S
C97 C103 1.428 1_565 S
C98 C101 1.260 . S
C98 C102 1.477 . S
C98 H116 0.932 . S
C99 C100 1.384 . S
C99 C101 1.479 . S
C99 H117 0.929 . S
C100 C97 1.424 . S
C100 C99 1.384 . S
C100 H118 0.928 . S
C101 C98 1.260 . S
C101 C99 1.479 . S
C102 C97 1.245 . S
C102 C98 1.477 . S
C102 H119 0.932 . S
C103 U86 2.882 . S
C103 C97 1.428 1_545 S
C103 O106 1.301 . S
C103 O107 1.282 . S
O104 U86 2.441 . S
O104 C90 1.249 . S
O105 U86 2.420 . S
O105 C90 1.202 . S
O106 U86 2.455 . S
O106 C103 1.301 . S
O107 U86 2.449 . S
O107 C103 1.282 . S
H108 C81 0.931 . S
H109 C83 0.929 . S
H110 C84 0.930 . S
H111 C85 0.931 . S
H112 C92 0.932 . S
H113 C93 0.930 . S
H114 C94 0.929 . S
H115 C96 0.930 . S
H116 C98 0.932 . S
H117 C99 0.929 . S
H118 C100 0.928 . S
H119 C102 0.932 . S
C120 C121 1.264 . S
C120 C125 1.479 . S
C120 C130 1.465 . S
C121 C120 1.264 . S
C121 C123 1.339 . S
C121 H148 0.931 . S
C122 C123 1.395 . S
C122 C124 1.320 . S
C123 C121 1.339 . S
C123 C122 1.395 . S
C123 H149 0.929 . S
C124 C122 1.320 . S
C124 C125 1.405 . S
C124 H150 0.930 . S
C125 C120 1.479 . S
C125 C124 1.405 . S
C125 H151 0.931 . S
U126 O127 2.454 . S
U126 O128 2.458 . S
U126 C129 2.984 . S
U126 C130 2.847 . S
U126 C143 2.882 . S
U126 O144 2.441 . S
U126 O145 2.420 . S
U126 O146 2.455 . S
U126 O147 2.449 . S
O127 U126 2.454 . S
O127 C129 1.353 . S
O128 U126 2.458 . S
O128 C129 1.286 . S
C129 U126 2.984 . S
C129 O127 1.353 . S
C129 O128 1.286 . S
C129 C131 1.363 . S
C130 C120 1.465 . S
C130 U126 2.847 . S
C130 O144 1.249 . S
C130 O145 1.202 . S
C131 C129 1.363 . S
C131 C133 1.408 . S
C131 C136 1.342 . S
C132 C133 1.310 . S
C132 C135 1.461 . S
C132 H152 0.932 . S
C133 C131 1.408 . S
C133 C132 1.310 . S
C133 H153 0.930 . S
C134 C135 1.474 . S
C134 C136 1.285 . S
C134 H154 0.929 . S
C135 C132 1.461 . S
C135 C134 1.474 . S
C136 C131 1.342 . S
C136 C134 1.285 . S
C136 H155 0.930 . S
C137 C140 1.424 . S
C137 C142 1.245 . S
C137 C143 1.428 . S
C138 C141 1.260 . S
C138 C142 1.477 . S
C138 H156 0.932 . S
C139 C140 1.384 . S
C139 C141 1.479 . S
C139 H157 0.929 . S
C140 C137 1.424 . S
C140 C139 1.384 . S
C140 H158 0.928 . S
C141 C138 1.260 . S
C141 C139 1.479 . S
C142 C137 1.245 . S
C142 C138 1.477 . S
C142 H159 0.932 . S
C143 U126 2.882 . S
C143 C137 1.428 . S
C143 O146 1.301 . S
C143 O147 1.282 . S
O144 U126 2.441 . S
O144 C130 1.249 . S
O145 U126 2.420 . S
O145 C130 1.202 . S
O146 U126 2.455 . S
O146 C143 1.301 . S
O147 U126 2.449 . S
O147 C143 1.282 . S
H148 C121 0.931 . S
H149 C123 0.929 . S
H150 C124 0.930 . S
H151 C125 0.931 . S
H152 C132 0.932 . S
H153 C133 0.930 . S
H154 C134 0.929 . S
H155 C136 0.930 . S
H156 C138 0.932 . S
H157 C139 0.929 . S
H158 C140 0.928 . S
H159 C142 0.932 . S
C160 C161 1.264 . S
C160 C165 1.479 . S
C160 C170 1.465 . S
C161 C160 1.264 . S
C161 C163 1.339 . S
C161 H188 0.931 . S
C162 C163 1.395 . S
C162 C164 1.320 . S
C163 C161 1.339 . S
C163 C162 1.395 . S
C163 H189 0.929 . S
C164 C162 1.320 . S
C164 C165 1.405 . S
C164 H190 0.930 . S
C165 C160 1.479 . S
C165 C164 1.405 . S
C165 H191 0.931 . S
U166 O167 2.454 . S
U166 O168 2.458 . S
U166 C169 2.984 . S
U166 C170 2.847 . S
U166 C183 2.882 . S
U166 O184 2.441 . S
U166 O185 2.420 . S
U166 O186 2.455 . S
U166 O187 2.449 . S
O167 U166 2.454 . S
O167 C169 1.353 . S
O168 U166 2.458 . S
O168 C169 1.286 . S
C169 U166 2.984 . S
C169 O167 1.353 . S
C169 O168 1.286 . S
C169 C171 1.363 . S
C170 C160 1.465 . S
C170 U166 2.847 . S
C170 O184 1.249 . S
C170 O185 1.202 . S
C171 C169 1.363 . S
C171 C173 1.408 . S
C171 C176 1.342 . S
C172 C173 1.310 . S
C172 C175 1.461 . S
C172 H192 0.932 . S
C173 C171 1.408 . S
C173 C172 1.310 . S
C173 H193 0.930 . S
C174 C175 1.474 . S
C174 C176 1.285 . S
C174 H194 0.929 . S
C175 C172 1.461 . S
C175 C174 1.474 . S
C176 C171 1.342 . S
C176 C174 1.285 . S
C176 H195 0.930 . S
C177 C180 1.424 . S
C177 C182 1.245 . S
C177 C183 1.428 1_565 S
C178 C181 1.260 . S
C178 C182 1.477 . S
C178 H196 0.932 . S
C179 C180 1.384 . S
C179 C181 1.479 . S
C179 H197 0.929 . S
C180 C177 1.424 . S
C180 C179 1.384 . S
C180 H198 0.928 . S
C181 C178 1.260 . S
C181 C179 1.479 . S
C182 C177 1.245 . S
C182 C178 1.477 . S
C182 H199 0.932 . S
C183 U166 2.882 . S
C183 C177 1.428 1_545 S
C183 O186 1.301 . S
C183 O187 1.282 . S
O184 U166 2.441 . S
O184 C170 1.249 . S
O185 U166 2.420 . S
O185 C170 1.202 . S
O186 U166 2.455 . S
O186 C183 1.301 . S
O187 U166 2.449 . S
O187 C183 1.282 . S
H188 C161 0.931 . S
H189 C163 0.929 . S
H190 C164 0.930 . S
H191 C165 0.931 . S
H192 C172 0.932 . S
H193 C173 0.930 . S
H194 C174 0.929 . S
H195 C176 0.930 . S
H196 C178 0.932 . S
H197 C179 0.929 . S
H198 C180 0.928 . S
H199 C182 0.932 . S
C200 C201 1.264 . S
C200 C205 1.479 . S
C200 C210 1.465 . S
C201 C200 1.264 . S
C201 C203 1.339 . S
C201 H228 0.931 . S
C202 C203 1.395 . S
C202 C204 1.320 . S
C203 C201 1.339 . S
C203 C202 1.395 . S
C203 H229 0.929 . S
C204 C202 1.320 . S
C204 C205 1.405 . S
C204 H230 0.930 . S
C205 C200 1.479 . S
C205 C204 1.405 . S
C205 H231 0.931 . S
U206 O207 2.454 . S
U206 O208 2.458 . S
U206 C209 2.984 . S
U206 C210 2.847 . S
U206 C223 2.882 . S
U206 O224 2.441 . S
U206 O225 2.420 . S
U206 O226 2.455 . S
U206 O227 2.449 . S
O207 U206 2.454 . S
O207 C209 1.353 . S
O208 U206 2.458 . S
O208 C209 1.286 . S
C209 U206 2.984 . S
C209 O207 1.353 . S
C209 O208 1.286 . S
C209 C211 1.363 . S
C210 C200 1.465 . S
C210 U206 2.847 . S
C210 O224 1.249 . S
C210 O225 1.202 . S
C211 C209 1.363 . S
C211 C213 1.408 . S
C211 C216 1.342 . S
C212 C213 1.310 . S
C212 C215 1.461 . S
C212 H232 0.932 . S
C213 C211 1.408 . S
C213 C212 1.310 . S
C213 H233 0.930 . S
C214 C215 1.474 . S
C214 C216 1.285 . S
C214 H234 0.929 . S
C215 C212 1.461 . S
C215 C214 1.474 . S
C216 C211 1.342 . S
C216 C214 1.285 . S
C216 H235 0.930 . S
C217 C220 1.424 . S
C217 C222 1.245 . S
C217 C223 1.428 . S
C218 C221 1.260 . S
C218 C222 1.477 . S
C218 H236 0.932 . S
C219 C220 1.384 . S
C219 C221 1.479 . S
C219 H237 0.929 . S
C220 C217 1.424 . S
C220 C219 1.384 . S
C220 H238 0.928 . S
C221 C218 1.260 . S
C221 C219 1.479 . S
C222 C217 1.245 . S
C222 C218 1.477 . S
C222 H239 0.932 . S
C223 U206 2.882 . S
C223 C217 1.428 . S
C223 O226 1.301 . S
C223 O227 1.282 . S
O224 U206 2.441 . S
O224 C210 1.249 . S
O225 U206 2.420 . S
O225 C210 1.202 . S
O226 U206 2.455 . S
O226 C223 1.301 . S
O227 U206 2.449 . S
O227 C223 1.282 . S
H228 C201 0.931 . S
H229 C203 0.929 . S
H230 C204 0.930 . S
H231 C205 0.931 . S
H232 C212 0.932 . S
H233 C213 0.930 . S
H234 C214 0.929 . S
H235 C216 0.930 . S
H236 C218 0.932 . S
H237 C219 0.929 . S
H238 C220 0.928 . S
H239 C222 0.932 . S
C240 C241 1.264 . S
C240 C245 1.479 . S
C240 C250 1.465 . S
C241 C240 1.264 . S
C241 C243 1.339 . S
C241 H268 0.931 . S
C242 C243 1.395 . S
C242 C244 1.320 . S
C243 C241 1.339 . S
C243 C242 1.395 . S
C243 H269 0.929 . S
C244 C242 1.320 . S
C244 C245 1.405 . S
C244 H270 0.930 . S
C245 C240 1.479 . S
C245 C244 1.405 . S
C245 H271 0.931 . S
U246 O247 2.454 . S
U246 O248 2.458 . S
U246 C249 2.984 . S
U246 C250 2.847 . S
U246 C263 2.882 . S
U246 O264 2.441 . S
U246 O265 2.420 . S
U246 O266 2.455 . S
U246 O267 2.449 . S
O247 U246 2.454 . S
O247 C249 1.353 . S
O248 U246 2.458 . S
O248 C249 1.286 . S
C249 U246 2.984 . S
C249 O247 1.353 . S
C249 O248 1.286 . S
C249 C251 1.363 . S
C250 C240 1.465 . S
C250 U246 2.847 . S
C250 O264 1.249 . S
C250 O265 1.202 . S
C251 C249 1.363 . S
C251 C253 1.408 . S
C251 C256 1.342 . S
C252 C253 1.310 . S
C252 C255 1.461 . S
C252 H272 0.932 . S
C253 C251 1.408 . S
C253 C252 1.310 . S
C253 H273 0.930 . S
C254 C255 1.474 . S
C254 C256 1.285 . S
C254 H274 0.929 . S
C255 C252 1.461 . S
C255 C254 1.474 . S
C256 C251 1.342 . S
C256 C254 1.285 . S
C256 H275 0.930 . S
C257 C260 1.424 . S
C257 C262 1.245 . S
C257 C263 1.428 1_545 S
C258 C261 1.260 . S
C258 C262 1.477 . S
C258 H276 0.932 . S
C259 C260 1.384 . S
C259 C261 1.479 . S
C259 H277 0.929 . S
C260 C257 1.424 . S
C260 C259 1.384 . S
C260 H278 0.928 . S
C261 C258 1.260 . S
C261 C259 1.479 . S
C262 C257 1.245 . S
C262 C258 1.477 . S
C262 H279 0.932 . S
C263 U246 2.882 . S
C263 C257 1.428 1_565 S
C263 O266 1.301 . S
C263 O267 1.282 . S
O264 U246 2.441 . S
O264 C250 1.249 . S
O265 U246 2.420 . S
O265 C250 1.202 . S
O266 U246 2.455 . S
O266 C263 1.301 . S
O267 U246 2.449 . S
O267 C263 1.282 . S
H268 C241 0.931 . S
H269 C243 0.929 . S
H270 C244 0.930 . S
H271 C245 0.931 . S
H272 C252 0.932 . S
H273 C253 0.930 . S
H274 C254 0.929 . S
H275 C256 0.930 . S
H276 C258 0.932 . S
H277 C259 0.929 . S
H278 C260 0.928 . S
H279 C262 0.932 . S
C280 C281 1.264 . S
C280 C285 1.479 . S
C280 C290 1.465 . S
C281 C280 1.264 . S
C281 C283 1.339 . S
C281 H308 0.931 . S
C282 C283 1.395 . S
C282 C284 1.320 . S
C283 C281 1.339 . S
C283 C282 1.395 . S
C283 H309 0.929 . S
C284 C282 1.320 . S
C284 C285 1.405 . S
C284 H310 0.930 . S
C285 C280 1.479 . S
C285 C284 1.405 . S
C285 H311 0.931 . S
U286 O287 2.454 . S
U286 O288 2.458 . S
U286 C289 2.984 . S
U286 C290 2.847 . S
U286 C303 2.882 . S
U286 O304 2.441 . S
U286 O305 2.420 . S
U286 O306 2.455 . S
U286 O307 2.449 . S
O287 U286 2.454 . S
O287 C289 1.353 . S
O288 U286 2.458 . S
O288 C289 1.286 . S
C289 U286 2.984 . S
C289 O287 1.353 . S
C289 O288 1.286 . S
C289 C291 1.363 . S
C290 C280 1.465 . S
C290 U286 2.847 . S
C290 O304 1.249 . S
C290 O305 1.202 . S
C291 C289 1.363 . S
C291 C293 1.408 . S
C291 C296 1.342 . S
C292 C293 1.310 . S
C292 C295 1.461 . S
C292 H312 0.932 . S
C293 C291 1.408 . S
C293 C292 1.310 . S
C293 H313 0.930 . S
C294 C295 1.474 . S
C294 C296 1.285 . S
C294 H314 0.929 . S
C295 C292 1.461 . S
C295 C294 1.474 . S
C296 C291 1.342 . S
C296 C294 1.285 . S
C296 H315 0.930 . S
C297 C300 1.424 . S
C297 C302 1.245 . S
C297 C303 1.428 . S
C298 C301 1.260 . S
C298 C302 1.477 . S
C298 H316 0.932 . S
C299 C300 1.384 . S
C299 C301 1.479 . S
C299 H317 0.929 . S
C300 C297 1.424 . S
C300 C299 1.384 . S
C300 H318 0.928 . S
C301 C298 1.260 . S
C301 C299 1.479 . S
C302 C297 1.245 . S
C302 C298 1.477 . S
C302 H319 0.932 . S
C303 U286 2.882 . S
C303 C297 1.428 . S
C303 O306 1.301 . S
C303 O307 1.282 . S
O304 U286 2.441 . S
O304 C290 1.249 . S
O305 U286 2.420 . S
O305 C290 1.202 . S
O306 U286 2.455 . S
O306 C303 1.301 . S
O307 U286 2.449 . S
O307 C303 1.282 . S
H308 C281 0.931 . S
H309 C283 0.929 . S
H310 C284 0.930 . S
H311 C285 0.931 . S
H312 C292 0.932 . S
H313 C293 0.930 . S
H314 C294 0.929 . S
H315 C296 0.930 . S
H316 C298 0.932 . S
H317 C299 0.929 . S
H318 C300 0.928 . S
H319 C302 0.932 . S
C320 C321 1.264 . S
C320 C325 1.479 1_565 S
C320 C330 1.465 . S
C321 C320 1.264 . S
C321 C323 1.343 . S
C321 H348 0.931 . S
C322 C323 1.388 1_545 S
C322 C324 1.320 . S
C323 C321 1.343 . S
C323 C322 1.388 1_565 S
C323 H349 0.932 . S
C324 C322 1.320 . S
C324 C325 1.405 . S
C324 H350 0.930 . S
C325 C320 1.479 1_545 S
C325 C324 1.405 . S
C325 H351 0.931 . S
U326 O327 2.441 1_565 S
U326 O328 2.458 . S
U326 C329 2.998 . S
U326 C330 2.847 . S
U326 C343 2.882 . S
U326 O344 2.441 . S
U326 O345 2.420 . S
U326 O346 2.455 . S
U326 O347 2.449 . S
O327 U326 2.441 1_545 S
O327 C329 1.349 1_545 S
O328 U326 2.458 . S
O328 C329 1.300 . S
C329 U326 2.998 . S
C329 O327 1.349 1_565 S
C329 O328 1.300 . S
C329 C331 1.353 1_565 S
C330 C320 1.465 . S
C330 U326 2.847 . S
C330 O344 1.249 . S
C330 O345 1.202 . S
C331 C329 1.353 1_545 S
C331 C333 1.408 . S
C331 C336 1.342 . S
C332 C333 1.310 . S
C332 C335 1.461 . S
C332 H352 0.932 . S
C333 C331 1.408 . S
C333 C332 1.310 . S
C333 H353 0.930 . S
C334 C335 1.474 . S
C334 C336 1.285 . S
C334 H354 0.929 . S
C335 C332 1.461 . S
C335 C334 1.474 . S
C336 C331 1.342 . S
C336 C334 1.285 . S
C336 H355 0.937 . S
C337 C340 1.424 . S
C337 C342 1.245 . S
C337 C343 1.428 . S
C338 C341 1.260 . S
C338 C342 1.477 . S
C338 H356 0.932 . S
C339 C340 1.384 . S
C339 C341 1.479 . S
C339 H357 0.929 . S
C340 C337 1.424 . S
C340 C339 1.384 . S
C340 H358 0.928 . S
C341 C338 1.260 . S
C341 C339 1.479 . S
C342 C337 1.245 . S
C342 C338 1.477 . S
C342 H359 0.932 . S
C343 U326 2.882 . S
C343 C337 1.428 . S
C343 O346 1.301 . S
C343 O347 1.282 . S
O344 U326 2.441 . S
O344 C330 1.249 . S
O345 U326 2.420 . S
O345 C330 1.202 . S
O346 U326 2.455 . S
O346 C343 1.301 . S
O347 U326 2.449 . S
O347 C343 1.282 . S
H348 C321 0.931 . S
H349 C323 0.932 . S
H350 C324 0.930 . S
H351 C325 0.931 . S
H352 C332 0.932 . S
H353 C333 0.930 . S
H354 C334 0.929 . S
H355 C336 0.937 . S
H356 C338 0.932 . S
H357 C339 0.929 . S
H358 C340 0.928 . S
H359 C342 0.932 . S
C360 C361 1.264 . S
C360 C365 1.479 . S
C360 C370 1.465 . S
C361 C360 1.264 . S
C361 C363 1.339 . S
C361 H388 0.931 . S
C362 C363 1.395 . S
C362 C364 1.320 . S
C363 C361 1.339 . S
C363 C362 1.395 . S
C363 H389 0.929 . S
C364 C362 1.320 . S
C364 C365 1.405 . S
C364 H390 0.930 . S
C365 C360 1.479 . S
C365 C364 1.405 . S
C365 H391 0.931 . S
U366 O367 2.454 . S
U366 O368 2.458 . S
U366 C369 2.984 . S
U366 C370 2.847 . S
U366 C383 2.882 . S
U366 O384 2.441 . S
U366 O385 2.420 . S
U366 O386 2.455 . S
U366 O387 2.449 . S
O367 U366 2.454 . S
O367 C369 1.353 . S
O368 U366 2.458 . S
O368 C369 1.286 . S
C369 U366 2.984 . S
C369 O367 1.353 . S
C369 O368 1.286 . S
C369 C371 1.363 . S
C370 C360 1.465 . S
C370 U366 2.847 . S
C370 O384 1.249 . S
C370 O385 1.202 . S
C371 C369 1.363 . S
C371 C373 1.408 . S
C371 C376 1.342 . S
C372 C373 1.310 . S
C372 C375 1.461 . S
C372 H392 0.932 . S
C373 C371 1.408 . S
C373 C372 1.310 . S
C373 H393 0.930 . S
C374 C375 1.474 . S
C374 C376 1.285 . S
C374 H394 0.929 . S
C375 C372 1.461 . S
C375 C374 1.474 . S
C376 C371 1.342 . S
C376 C374 1.285 . S
C376 H395 0.930 . S
C377 C380 1.424 . S
C377 C382 1.245 . S
C377 C383 1.428 . S
C378 C381 1.260 . S
C378 C382 1.477 . S
C378 H396 0.932 . S
C379 C380 1.384 . S
C379 C381 1.479 . S
C379 H397 0.929 . S
C380 C377 1.424 . S
C380 C379 1.384 . S
C380 H398 0.928 . S
C381 C378 1.260 . S
C381 C379 1.479 . S
C382 C377 1.245 . S
C382 C378 1.477 . S
C382 H399 0.932 . S
C383 U366 2.882 . S
C383 C377 1.428 . S
C383 O386 1.301 . S
C383 O387 1.282 . S
O384 U366 2.441 . S
O384 C370 1.249 . S
O385 U366 2.420 . S
O385 C370 1.202 . S
O386 U366 2.455 . S
O386 C383 1.301 . S
O387 U366 2.449 . S
O387 C383 1.282 . S
H388 C361 0.931 . S
H389 C363 0.929 . S
H390 C364 0.930 . S
H391 C365 0.931 . S
H392 C372 0.932 . S
H393 C373 0.930 . S
H394 C374 0.929 . S
H395 C376 0.930 . S
H396 C378 0.932 . S
H397 C379 0.929 . S
H398 C380 0.928 . S
H399 C382 0.932 . S
C400 C401 1.264 . S
C400 C405 1.479 1_545 S
C400 C410 1.465 . S
C401 C400 1.264 . S
C401 C403 1.343 . S
C401 H428 0.931 . S
C402 C403 1.388 1_565 S
C402 C404 1.320 . S
C403 C401 1.343 . S
C403 C402 1.388 1_545 S
C403 H429 0.932 . S
C404 C402 1.320 . S
C404 C405 1.405 . S
C404 H430 0.930 . S
C405 C400 1.479 1_565 S
C405 C404 1.405 . S
C405 H431 0.931 . S
U406 O407 2.441 1_545 S
U406 O408 2.458 . S
U406 C409 2.998 . S
U406 C410 2.847 . S
U406 C423 2.882 . S
U406 O424 2.441 . S
U406 O425 2.420 . S
U406 O426 2.455 . S
U406 O427 2.449 . S
O407 U406 2.441 1_565 S
O407 C409 1.349 1_565 S
O408 U406 2.458 . S
O408 C409 1.300 . S
C409 U406 2.998 . S
C409 O407 1.349 1_545 S
C409 O408 1.300 . S
C409 C411 1.353 1_545 S
C410 C400 1.465 . S
C410 U406 2.847 . S
C410 O424 1.249 . S
C410 O425 1.202 . S
C411 C409 1.353 1_565 S
C411 C413 1.408 . S
C411 C416 1.342 . S
C412 C413 1.310 . S
C412 C415 1.461 . S
C412 H432 0.932 . S
C413 C411 1.408 . S
C413 C412 1.310 . S
C413 H433 0.930 . S
C414 C415 1.474 . S
C414 C416 1.285 . S
C414 H434 0.929 . S
C415 C412 1.461 . S
C415 C414 1.474 . S
C416 C411 1.342 . S
C416 C414 1.285 . S
C416 H435 0.937 . S
C417 C420 1.424 . S
C417 C422 1.245 . S
C417 C423 1.428 . S
C418 C421 1.260 . S
C418 C422 1.477 . S
C418 H436 0.932 . S
C419 C420 1.384 . S
C419 C421 1.479 . S
C419 H437 0.929 . S
C420 C417 1.424 . S
C420 C419 1.384 . S
C420 H438 0.928 . S
C421 C418 1.260 . S
C421 C419 1.479 . S
C422 C417 1.245 . S
C422 C418 1.477 . S
C422 H439 0.932 . S
C423 U406 2.882 . S
C423 C417 1.428 . S
C423 O426 1.301 . S
C423 O427 1.282 . S
O424 U406 2.441 . S
O424 C410 1.249 . S
O425 U406 2.420 . S
O425 C410 1.202 . S
O426 U406 2.455 . S
O426 C423 1.301 . S
O427 U406 2.449 . S
O427 C423 1.282 . S
H428 C401 0.931 . S
H429 C403 0.932 . S
H430 C404 0.930 . S
H431 C405 0.931 . S
H432 C412 0.932 . S
H433 C413 0.930 . S
H434 C414 0.929 . S
H435 C416 0.937 . S
H436 C418 0.932 . S
H437 C419 0.929 . S
H438 C420 0.928 . S
H439 C422 0.932 . S
C440 C441 1.264 . S
C440 C445 1.479 . S
C440 C450 1.465 . S
C441 C440 1.264 . S
C441 C443 1.339 . S
C441 H468 0.931 . S
C442 C443 1.395 . S
C442 C444 1.320 . S
C443 C441 1.339 . S
C443 C442 1.395 . S
C443 H469 0.929 . S
C444 C442 1.320 . S
C444 C445 1.405 . S
C444 H470 0.930 . S
C445 C440 1.479 . S
C445 C444 1.405 . S
C445 H471 0.931 . S
U446 O447 2.454 . S
U446 O448 2.458 . S
U446 C449 2.984 . S
U446 C450 2.847 . S
U446 C463 2.882 . S
U446 O464 2.441 . S
U446 O465 2.420 . S
U446 O466 2.455 . S
U446 O467 2.449 . S
O447 U446 2.454 . S
O447 C449 1.353 . S
O448 U446 2.458 . S
O448 C449 1.286 . S
C449 U446 2.984 . S
C449 O447 1.353 . S
C449 O448 1.286 . S
C449 C451 1.363 . S
C450 C440 1.465 . S
C450 U446 2.847 . S
C450 O464 1.249 . S
C450 O465 1.202 . S
C451 C449 1.363 . S
C451 C453 1.408 . S
C451 C456 1.342 . S
C452 C453 1.310 . S
C452 C455 1.461 . S
C452 H472 0.932 . S
C453 C451 1.408 . S
C453 C452 1.310 . S
C453 H473 0.930 . S
C454 C455 1.474 . S
C454 C456 1.285 . S
C454 H474 0.929 . S
C455 C452 1.461 . S
C455 C454 1.474 . S
C456 C451 1.342 . S
C456 C454 1.285 . S
C456 H475 0.930 . S
C457 C460 1.424 . S
C457 C462 1.245 . S
C457 C463 1.428 . S
C458 C461 1.260 . S
C458 C462 1.477 . S
C458 H476 0.932 . S
C459 C460 1.384 . S
C459 C461 1.479 . S
C459 H477 0.929 . S
C460 C457 1.424 . S
C460 C459 1.384 . S
C460 H478 0.928 . S
C461 C458 1.260 . S
C461 C459 1.479 . S
C462 C457 1.245 . S
C462 C458 1.477 . S
C462 H479 0.932 . S
C463 U446 2.882 . S
C463 C457 1.428 . S
C463 O466 1.301 . S
C463 O467 1.282 . S
O464 U446 2.441 . S
O464 C450 1.249 . S
O465 U446 2.420 . S
O465 C450 1.202 . S
O466 U446 2.455 . S
O466 C463 1.301 . S
O467 U446 2.449 . S
O467 C463 1.282 . S
H468 C441 0.931 . S
H469 C443 0.929 . S
H470 C444 0.930 . S
H471 C445 0.931 . S
H472 C452 0.932 . S
H473 C453 0.930 . S
H474 C454 0.929 . S
H475 C456 0.930 . S
H476 C458 0.932 . S
H477 C459 0.929 . S
H478 C460 0.928 . S
H479 C462 0.932 . S
C480 C481 1.264 . S
C480 C485 1.479 1_545 S
C480 C490 1.465 . S
C481 C480 1.264 . S
C481 C483 1.343 . S
C481 H508 0.931 . S
C482 C483 1.388 1_565 S
C482 C484 1.320 . S
C483 C481 1.343 . S
C483 C482 1.388 1_545 S
C483 H509 0.932 . S
C484 C482 1.320 . S
C484 C485 1.405 . S
C484 H510 0.930 . S
C485 C480 1.479 1_565 S
C485 C484 1.405 . S
C485 H511 0.931 . S
U486 O487 2.441 1_545 S
U486 O488 2.458 . S
U486 C489 2.998 . S
U486 C490 2.847 . S
U486 C503 2.882 . S
U486 O504 2.441 . S
U486 O505 2.420 . S
U486 O506 2.455 . S
U486 O507 2.449 . S
O487 U486 2.441 1_565 S
O487 C489 1.349 1_565 S
O488 U486 2.458 . S
O488 C489 1.300 . S
C489 U486 2.998 . S
C489 O487 1.349 1_545 S
C489 O488 1.300 . S
C489 C491 1.353 1_545 S
C490 C480 1.465 . S
C490 U486 2.847 . S
C490 O504 1.249 . S
C490 O505 1.202 . S
C491 C489 1.353 1_565 S
C491 C493 1.408 . S
C491 C496 1.342 . S
C492 C493 1.310 . S
C492 C495 1.461 . S
C492 H512 0.932 . S
C493 C491 1.408 . S
C493 C492 1.310 . S
C493 H513 0.930 . S
C494 C495 1.474 . S
C494 C496 1.285 . S
C494 H514 0.929 . S
C495 C492 1.461 . S
C495 C494 1.474 . S
C496 C491 1.342 . S
C496 C494 1.285 . S
C496 H515 0.937 . S
C497 C500 1.424 . S
C497 C502 1.245 . S
C497 C503 1.428 . S
C498 C501 1.260 . S
C498 C502 1.477 . S
C498 H516 0.932 . S
C499 C500 1.384 . S
C499 C501 1.479 . S
C499 H517 0.929 . S
C500 C497 1.424 . S
C500 C499 1.384 . S
C500 H518 0.928 . S
C501 C498 1.260 . S
C501 C499 1.479 . S
C502 C497 1.245 . S
C502 C498 1.477 . S
C502 H519 0.932 . S
C503 U486 2.882 . S
C503 C497 1.428 . S
C503 O506 1.301 . S
C503 O507 1.282 . S
O504 U486 2.441 . S
O504 C490 1.249 . S
O505 U486 2.420 . S
O505 C490 1.202 . S
O506 U486 2.455 . S
O506 C503 1.301 . S
O507 U486 2.449 . S
O507 C503 1.282 . S
H508 C481 0.931 . S
H509 C483 0.932 . S
H510 C484 0.930 . S
H511 C485 0.931 . S
H512 C492 0.932 . S
H513 C493 0.930 . S
H514 C494 0.929 . S
H515 C496 0.937 . S
H516 C498 0.932 . S
H517 C499 0.929 . S
H518 C500 0.928 . S
H519 C502 0.932 . S
C520 C521 1.264 . S
C520 C525 1.479 . S
C520 C530 1.465 . S
C521 C520 1.264 . S
C521 C523 1.339 . S
C521 H548 0.931 . S
C522 C523 1.395 . S
C522 C524 1.320 . S
C523 C521 1.339 . S
C523 C522 1.395 . S
C523 H549 0.929 . S
C524 C522 1.320 . S
C524 C525 1.405 . S
C524 H550 0.930 . S
C525 C520 1.479 . S
C525 C524 1.405 . S
C525 H551 0.931 . S
U526 O527 2.454 . S
U526 O528 2.458 . S
U526 C529 2.984 . S
U526 C530 2.847 . S
U526 C543 2.882 . S
U526 O544 2.441 . S
U526 O545 2.420 . S
U526 O546 2.455 . S
U526 O547 2.449 . S
O527 U526 2.454 . S
O527 C529 1.353 . S
O528 U526 2.458 . S
O528 C529 1.286 . S
C529 U526 2.984 . S
C529 O527 1.353 . S
C529 O528 1.286 . S
C529 C531 1.363 . S
C530 C520 1.465 . S
C530 U526 2.847 . S
C530 O544 1.249 . S
C530 O545 1.202 . S
C531 C529 1.363 . S
C531 C533 1.408 . S
C531 C536 1.342 . S
C532 C533 1.310 . S
C532 C535 1.461 . S
C532 H552 0.932 . S
C533 C531 1.408 . S
C533 C532 1.310 . S
C533 H553 0.930 . S
C534 C535 1.474 . S
C534 C536 1.285 . S
C534 H554 0.929 . S
C535 C532 1.461 . S
C535 C534 1.474 . S
C536 C531 1.342 . S
C536 C534 1.285 . S
C536 H555 0.930 . S
C537 C540 1.424 . S
C537 C542 1.245 . S
C537 C543 1.428 . S
C538 C541 1.260 . S
C538 C542 1.477 . S
C538 H556 0.932 . S
C539 C540 1.384 . S
C539 C541 1.479 . S
C539 H557 0.929 . S
C540 C537 1.424 . S
C540 C539 1.384 . S
C540 H558 0.928 . S
C541 C538 1.260 . S
C541 C539 1.479 . S
C542 C537 1.245 . S
C542 C538 1.477 . S
C542 H559 0.932 . S
C543 U526 2.882 . S
C543 C537 1.428 . S
C543 O546 1.301 . S
C543 O547 1.282 . S
O544 U526 2.441 . S
O544 C530 1.249 . S
O545 U526 2.420 . S
O545 C530 1.202 . S
O546 U526 2.455 . S
O546 C543 1.301 . S
O547 U526 2.449 . S
O547 C543 1.282 . S
H548 C521 0.931 . S
H549 C523 0.929 . S
H550 C524 0.930 . S
H551 C525 0.931 . S
H552 C532 0.932 . S
H553 C533 0.930 . S
H554 C534 0.929 . S
H555 C536 0.930 . S
H556 C538 0.932 . S
H557 C539 0.929 . S
H558 C540 0.928 . S
H559 C542 0.932 . S
C560 C561 1.264 . S
C560 C565 1.479 1_565 S
C560 C570 1.465 . S
C561 C560 1.264 . S
C561 C563 1.343 . S
C561 H588 0.931 . S
C562 C563 1.388 1_545 S
C562 C564 1.320 . S
C563 C561 1.343 . S
C563 C562 1.388 1_565 S
C563 H589 0.932 . S
C564 C562 1.320 . S
C564 C565 1.405 . S
C564 H590 0.930 . S
C565 C560 1.479 1_545 S
C565 C564 1.405 . S
C565 H591 0.931 . S
U566 O567 2.441 1_565 S
U566 O568 2.458 . S
U566 C569 2.998 . S
U566 C570 2.847 . S
U566 C583 2.882 . S
U566 O584 2.441 . S
U566 O585 2.420 . S
U566 O586 2.455 . S
U566 O587 2.449 . S
O567 U566 2.441 1_545 S
O567 C569 1.349 1_545 S
O568 U566 2.458 . S
O568 C569 1.300 . S
C569 U566 2.998 . S
C569 O567 1.349 1_565 S
C569 O568 1.300 . S
C569 C571 1.353 1_565 S
C570 C560 1.465 . S
C570 U566 2.847 . S
C570 O584 1.249 . S
C570 O585 1.202 . S
C571 C569 1.353 1_545 S
C571 C573 1.408 . S
C571 C576 1.342 . S
C572 C573 1.310 . S
C572 C575 1.461 . S
C572 H592 0.932 . S
C573 C571 1.408 . S
C573 C572 1.310 . S
C573 H593 0.930 . S
C574 C575 1.474 . S
C574 C576 1.285 . S
C574 H594 0.929 . S
C575 C572 1.461 . S
C575 C574 1.474 . S
C576 C571 1.342 . S
C576 C574 1.285 . S
C576 H595 0.937 . S
C577 C580 1.424 . S
C577 C582 1.245 . S
C577 C583 1.428 . S
C578 C581 1.260 . S
C578 C582 1.477 . S
C578 H596 0.932 . S
C579 C580 1.384 . S
C579 C581 1.479 . S
C579 H597 0.929 . S
C580 C577 1.424 . S
C580 C579 1.384 . S
C580 H598 0.928 . S
C581 C578 1.260 . S
C581 C579 1.479 . S
C582 C577 1.245 . S
C582 C578 1.477 . S
C582 H599 0.932 . S
C583 U566 2.882 . S
C583 C577 1.428 . S
C583 O586 1.301 . S
C583 O587 1.282 . S
O584 U566 2.441 . S
O584 C570 1.249 . S
O585 U566 2.420 . S
O585 C570 1.202 . S
O586 U566 2.455 . S
O586 C583 1.301 . S
O587 U566 2.449 . S
O587 C583 1.282 . S
H588 C561 0.931 . S
H589 C563 0.932 . S
H590 C564 0.930 . S
H591 C565 0.931 . S
H592 C572 0.932 . S
H593 C573 0.930 . S
H594 C574 0.929 . S
H595 C576 0.937 . S
H596 C578 0.932 . S
H597 C579 0.929 . S
H598 C580 0.928 . S
H599 C582 0.932 . S
C600 C601 1.264 . S
C600 C605 1.479 . S
C600 C610 1.465 . S
C601 C600 1.264 . S
C601 C603 1.339 . S
C601 H628 0.931 . S
C602 C603 1.395 . S
C602 C604 1.320 . S
C603 C601 1.339 . S
C603 C602 1.395 . S
C603 H629 0.929 . S
C604 C602 1.320 . S
C604 C605 1.405 . S
C604 H630 0.930 . S
C605 C600 1.479 . S
C605 C604 1.405 . S
C605 H631 0.931 . S
U606 O607 2.454 . S
U606 O608 2.458 . S
U606 C609 2.984 . S
U606 C610 2.847 . S
U606 C623 2.882 . S
U606 O624 2.441 . S
U606 O625 2.420 . S
U606 O626 2.455 . S
U606 O627 2.449 . S
O607 U606 2.454 . S
O607 C609 1.353 . S
O608 U606 2.458 . S
O608 C609 1.286 . S
C609 U606 2.984 . S
C609 O607 1.353 . S
C609 O608 1.286 . S
C609 C611 1.363 . S
C610 C600 1.465 . S
C610 U606 2.847 . S
C610 O624 1.249 . S
C610 O625 1.202 . S
C611 C609 1.363 . S
C611 C613 1.408 . S
C611 C616 1.342 . S
C612 C613 1.310 . S
C612 C615 1.461 . S
C612 H632 0.932 . S
C613 C611 1.408 . S
C613 C612 1.310 . S
C613 H633 0.930 . S
C614 C615 1.474 . S
C614 C616 1.285 . S
C614 H634 0.929 . S
C615 C612 1.461 . S
C615 C614 1.474 . S
C616 C611 1.342 . S
C616 C614 1.285 . S
C616 H635 0.930 . S
C617 C620 1.424 . S
C617 C622 1.245 . S
C617 C623 1.428 . S
C618 C621 1.260 . S
C618 C622 1.477 . S
C618 H636 0.932 . S
C619 C620 1.384 . S
C619 C621 1.479 . S
C619 H637 0.929 . S
C620 C617 1.424 . S
C620 C619 1.384 . S
C620 H638 0.928 . S
C621 C618 1.260 . S
C621 C619 1.479 . S
C622 C617 1.245 . S
C622 C618 1.477 . S
C622 H639 0.932 . S
C623 U606 2.882 . S
C623 C617 1.428 . S
C623 O626 1.301 . S
C623 O627 1.282 . S
O624 U606 2.441 . S
O624 C610 1.249 . S
O625 U606 2.420 . S
O625 C610 1.202 . S
O626 U606 2.455 . S
O626 C623 1.301 . S
O627 U606 2.449 . S
O627 C623 1.282 . S
H628 C601 0.931 . S
H629 C603 0.929 . S
H630 C604 0.930 . S
H631 C605 0.931 . S
H632 C612 0.932 . S
H633 C613 0.930 . S
H634 C614 0.929 . S
H635 C616 0.930 . S
H636 C618 0.932 . S
H637 C619 0.929 . S
H638 C620 0.928 . S
H639 C622 0.932 . S
C640 C641 1.264 . S
C640 C645 1.479 . S
C640 C650 1.465 . S
C641 C640 1.264 . S
C641 C643 1.339 . S
C641 H668 0.931 . S
C642 C643 1.395 . S
C642 C644 1.320 . S
C643 C641 1.339 . S
C643 C642 1.395 . S
C643 H669 0.929 . S
C644 C642 1.320 . S
C644 C645 1.405 . S
C644 H670 0.930 . S
C645 C640 1.479 . S
C645 C644 1.405 . S
C645 H671 0.931 . S
U646 O647 2.454 . S
U646 O648 2.458 . S
U646 C649 2.984 . S
U646 C650 2.847 . S
U646 C663 2.882 . S
U646 O664 2.441 . S
U646 O665 2.420 . S
U646 O666 2.455 . S
U646 O667 2.449 . S
O647 U646 2.454 . S
O647 C649 1.353 . S
O648 U646 2.458 . S
O648 C649 1.286 . S
C649 U646 2.984 . S
C649 O647 1.353 . S
C649 O648 1.286 . S
C649 C651 1.363 . S
C650 C640 1.465 . S
C650 U646 2.847 . S
C650 O664 1.249 . S
C650 O665 1.202 . S
C651 C649 1.363 . S
C651 C653 1.408 . S
C651 C656 1.342 . S
C652 C653 1.310 . S
C652 C655 1.461 . S
C652 H672 0.932 . S
C653 C651 1.408 . S
C653 C652 1.310 . S
C653 H673 0.930 . S
C654 C655 1.474 . S
C654 C656 1.285 . S
C654 H674 0.929 . S
C655 C652 1.461 . S
C655 C654 1.474 . S
C656 C651 1.342 . S
C656 C654 1.285 . S
C656 H675 0.930 . S
C657 C660 1.424 . S
C657 C662 1.245 . S
C657 C663 1.428 . S
C658 C661 1.260 . S
C658 C662 1.477 . S
C658 H676 0.932 . S
C659 C660 1.384 . S
C659 C661 1.479 . S
C659 H677 0.929 . S
C660 C657 1.424 . S
C660 C659 1.384 . S
C660 H678 0.928 . S
C661 C658 1.260 . S
C661 C659 1.479 . S
C662 C657 1.245 . S
C662 C658 1.477 . S
C662 H679 0.932 . S
C663 U646 2.882 . S
C663 C657 1.428 . S
C663 O666 1.301 . S
C663 O667 1.282 . S
O664 U646 2.441 . S
O664 C650 1.249 . S
O665 U646 2.420 . S
O665 C650 1.202 . S
O666 U646 2.455 . S
O666 C663 1.301 . S
O667 U646 2.449 . S
O667 C663 1.282 . S
H668 C641 0.931 . S
H669 C643 0.929 . S
H670 C644 0.930 . S
H671 C645 0.931 . S
H672 C652 0.932 . S
H673 C653 0.930 . S
H674 C654 0.929 . S
H675 C656 0.930 . S
H676 C658 0.932 . S
H677 C659 0.929 . S
H678 C660 0.928 . S
H679 C662 0.932 . S
C680 C681 1.264 . S
C680 C685 1.479 . S
C680 C690 1.465 . S
C681 C680 1.264 . S
C681 C683 1.339 . S
C681 H708 0.931 . S
C682 C683 1.395 . S
C682 C684 1.320 . S
C683 C681 1.339 . S
C683 C682 1.395 . S
C683 H709 0.929 . S
C684 C682 1.320 . S
C684 C685 1.405 . S
C684 H710 0.930 . S
C685 C680 1.479 . S
C685 C684 1.405 . S
C685 H711 0.931 . S
U686 O687 2.454 . S
U686 O688 2.458 . S
U686 C689 2.984 . S
U686 C690 2.847 . S
U686 C703 2.882 . S
U686 O704 2.441 . S
U686 O705 2.420 . S
U686 O706 2.455 . S
U686 O707 2.449 . S
O687 U686 2.454 . S
O687 C689 1.353 . S
O688 U686 2.458 . S
O688 C689 1.286 . S
C689 U686 2.984 . S
C689 O687 1.353 . S
C689 O688 1.286 . S
C689 C691 1.363 . S
C690 C680 1.465 . S
C690 U686 2.847 . S
C690 O704 1.249 . S
C690 O705 1.202 . S
C691 C689 1.363 . S
C691 C693 1.408 . S
C691 C696 1.342 . S
C692 C693 1.310 . S
C692 C695 1.461 . S
C692 H712 0.932 . S
C693 C691 1.408 . S
C693 C692 1.310 . S
C693 H713 0.930 . S
C694 C695 1.474 . S
C694 C696 1.285 . S
C694 H714 0.929 . S
C695 C692 1.461 . S
C695 C694 1.474 . S
C696 C691 1.342 . S
C696 C694 1.285 . S
C696 H715 0.930 . S
C697 C700 1.424 . S
C697 C702 1.245 . S
C697 C703 1.428 . S
C698 C701 1.260 . S
C698 C702 1.477 . S
C698 H716 0.932 . S
C699 C700 1.384 . S
C699 C701 1.479 . S
C699 H717 0.929 . S
C700 C697 1.424 . S
C700 C699 1.384 . S
C700 H718 0.928 . S
C701 C698 1.260 . S
C701 C699 1.479 . S
C702 C697 1.245 . S
C702 C698 1.477 . S
C702 H719 0.932 . S
C703 U686 2.882 . S
C703 C697 1.428 . S
C703 O706 1.301 . S
C703 O707 1.282 . S
O704 U686 2.441 . S
O704 C690 1.249 . S
O705 U686 2.420 . S
O705 C690 1.202 . S
O706 U686 2.455 . S
O706 C703 1.301 . S
O707 U686 2.449 . S
O707 C703 1.282 . S
H708 C681 0.931 . S
H709 C683 0.929 . S
H710 C684 0.930 . S
H711 C685 0.931 . S
H712 C692 0.932 . S
H713 C693 0.930 . S
H714 C694 0.929 . S
H715 C696 0.930 . S
H716 C698 0.932 . S
H717 C699 0.929 . S
H718 C700 0.928 . S
H719 C702 0.932 . S
C720 C721 1.264 . S
C720 C725 1.479 . S
C720 C730 1.465 . S
C721 C720 1.264 . S
C721 C723 1.339 . S
C721 H748 0.931 . S
C722 C723 1.395 . S
C722 C724 1.320 . S
C723 C721 1.339 . S
C723 C722 1.395 . S
C723 H749 0.929 . S
C724 C722 1.320 . S
C724 C725 1.405 . S
C724 H750 0.930 . S
C725 C720 1.479 . S
C725 C724 1.405 . S
C725 H751 0.931 . S
U726 O727 2.454 . S
U726 O728 2.458 . S
U726 C729 2.984 . S
U726 C730 2.847 . S
U726 C743 2.882 . S
U726 O744 2.441 . S
U726 O745 2.420 . S
U726 O746 2.455 . S
U726 O747 2.449 . S
O727 U726 2.454 . S
O727 C729 1.353 . S
O728 U726 2.458 . S
O728 C729 1.286 . S
C729 U726 2.984 . S
C729 O727 1.353 . S
C729 O728 1.286 . S
C729 C731 1.363 . S
C730 C720 1.465 . S
C730 U726 2.847 . S
C730 O744 1.249 . S
C730 O745 1.202 . S
C731 C729 1.363 . S
C731 C733 1.408 . S
C731 C736 1.342 . S
C732 C733 1.310 . S
C732 C735 1.461 . S
C732 H752 0.932 . S
C733 C731 1.408 . S
C733 C732 1.310 . S
C733 H753 0.930 . S
C734 C735 1.474 . S
C734 C736 1.285 . S
C734 H754 0.929 . S
C735 C732 1.461 . S
C735 C734 1.474 . S
C736 C731 1.342 . S
C736 C734 1.285 . S
C736 H755 0.930 . S
C737 C740 1.424 . S
C737 C742 1.245 . S
C737 C743 1.428 . S
C738 C741 1.260 . S
C738 C742 1.477 . S
C738 H756 0.932 . S
C739 C740 1.384 . S
C739 C741 1.479 . S
C739 H757 0.929 . S
C740 C737 1.424 . S
C740 C739 1.384 . S
C740 H758 0.928 . S
C741 C738 1.260 . S
C741 C739 1.479 . S
C742 C737 1.245 . S
C742 C738 1.477 . S
C742 H759 0.932 . S
C743 U726 2.882 . S
C743 C737 1.428 . S
C743 O746 1.301 . S
C743 O747 1.282 . S
O744 U726 2.441 . S
O744 C730 1.249 . S
O745 U726 2.420 . S
O745 C730 1.202 . S
O746 U726 2.455 . S
O746 C743 1.301 . S
O747 U726 2.449 . S
O747 C743 1.282 . S
H748 C721 0.931 . S
H749 C723 0.929 . S
H750 C724 0.930 . S
H751 C725 0.931 . S
H752 C732 0.932 . S
H753 C733 0.930 . S
H754 C734 0.929 . S
H755 C736 0.930 . S
H756 C738 0.932 . S
H757 C739 0.929 . S
H758 C740 0.928 . S
H759 C742 0.932 . S
C760 C761 1.264 . S
C760 C765 1.479 . S
C760 C770 1.465 . S
C761 C760 1.264 . S
C761 C763 1.339 . S
C761 H788 0.931 . S
C762 C763 1.395 . S
C762 C764 1.320 . S
C763 C761 1.339 . S
C763 C762 1.395 . S
C763 H789 0.929 . S
C764 C762 1.320 . S
C764 C765 1.405 . S
C764 H790 0.930 . S
C765 C760 1.479 . S
C765 C764 1.405 . S
C765 H791 0.931 . S
U766 O767 2.454 . S
U766 O768 2.458 . S
U766 C769 2.984 . S
U766 C770 2.847 . S
U766 C783 2.882 . S
U766 O784 2.441 . S
U766 O785 2.420 . S
U766 O786 2.455 . S
U766 O787 2.449 . S
O767 U766 2.454 . S
O767 C769 1.353 . S
O768 U766 2.458 . S
O768 C769 1.286 . S
C769 U766 2.984 . S
C769 O767 1.353 . S
C769 O768 1.286 . S
C769 C771 1.363 . S
C770 C760 1.465 . S
C770 U766 2.847 . S
C770 O784 1.249 . S
C770 O785 1.202 . S
C771 C769 1.363 . S
C771 C773 1.408 . S
C771 C776 1.342 . S
C772 C773 1.310 . S
C772 C775 1.461 . S
C772 H792 0.932 . S
C773 C771 1.408 . S
C773 C772 1.310 . S
C773 H793 0.930 . S
C774 C775 1.474 . S
C774 C776 1.285 . S
C774 H794 0.929 . S
C775 C772 1.461 . S
C775 C774 1.474 . S
C776 C771 1.342 . S
C776 C774 1.285 . S
C776 H795 0.930 . S
C777 C780 1.424 . S
C777 C782 1.245 . S
C777 C783 1.428 . S
C778 C781 1.260 . S
C778 C782 1.477 . S
C778 H796 0.932 . S
C779 C780 1.384 . S
C779 C781 1.479 . S
C779 H797 0.929 . S
C780 C777 1.424 . S
C780 C779 1.384 . S
C780 H798 0.928 . S
C781 C778 1.260 . S
C781 C779 1.479 . S
C782 C777 1.245 . S
C782 C778 1.477 . S
C782 H799 0.932 . S
C783 U766 2.882 . S
C783 C777 1.428 . S
C783 O786 1.301 . S
C783 O787 1.282 . S
O784 U766 2.441 . S
O784 C770 1.249 . S
O785 U766 2.420 . S
O785 C770 1.202 . S
O786 U766 2.455 . S
O786 C783 1.301 . S
O787 U766 2.449 . S
O787 C783 1.282 . S
H788 C761 0.931 . S
H789 C763 0.929 . S
H790 C764 0.930 . S
H791 C765 0.931 . S
H792 C772 0.932 . S
H793 C773 0.930 . S
H794 C774 0.929 . S
H795 C776 0.930 . S
H796 C778 0.932 . S
H797 C779 0.929 . S
H798 C780 0.928 . S
H799 C782 0.932 . S
C800 C801 1.264 . S
C800 C805 1.479 . S
C800 C810 1.465 . S
C801 C800 1.264 . S
C801 C803 1.339 . S
C801 H828 0.931 . S
C802 C803 1.395 . S
C802 C804 1.320 . S
C803 C801 1.339 . S
C803 C802 1.395 . S
C803 H829 0.929 . S
C804 C802 1.320 . S
C804 C805 1.405 . S
C804 H830 0.930 . S
C805 C800 1.479 . S
C805 C804 1.405 . S
C805 H831 0.931 . S
U806 O807 2.454 . S
U806 O808 2.458 . S
U806 C809 2.984 . S
U806 C810 2.847 . S
U806 C823 2.882 . S
U806 O824 2.441 . S
U806 O825 2.420 . S
U806 O826 2.455 . S
U806 O827 2.449 . S
O807 U806 2.454 . S
O807 C809 1.353 . S
O808 U806 2.458 . S
O808 C809 1.286 . S
C809 U806 2.984 . S
C809 O807 1.353 . S
C809 O808 1.286 . S
C809 C811 1.363 . S
C810 C800 1.465 . S
C810 U806 2.847 . S
C810 O824 1.249 . S
C810 O825 1.202 . S
C811 C809 1.363 . S
C811 C813 1.408 . S
C811 C816 1.342 . S
C812 C813 1.310 . S
C812 C815 1.461 . S
C812 H832 0.932 . S
C813 C811 1.408 . S
C813 C812 1.310 . S
C813 H833 0.930 . S
C814 C815 1.474 . S
C814 C816 1.285 . S
C814 H834 0.929 . S
C815 C812 1.461 . S
C815 C814 1.474 . S
C816 C811 1.342 . S
C816 C814 1.285 . S
C816 H835 0.930 . S
C817 C820 1.424 . S
C817 C822 1.245 . S
C817 C823 1.428 . S
C818 C821 1.260 . S
C818 C822 1.477 . S
C818 H836 0.932 . S
C819 C820 1.384 . S
C819 C821 1.479 . S
C819 H837 0.929 . S
C820 C817 1.424 . S
C820 C819 1.384 . S
C820 H838 0.928 . S
C821 C818 1.260 . S
C821 C819 1.479 . S
C822 C817 1.245 . S
C822 C818 1.477 . S
C822 H839 0.932 . S
C823 U806 2.882 . S
C823 C817 1.428 . S
C823 O826 1.301 . S
C823 O827 1.282 . S
O824 U806 2.441 . S
O824 C810 1.249 . S
O825 U806 2.420 . S
O825 C810 1.202 . S
O826 U806 2.455 . S
O826 C823 1.301 . S
O827 U806 2.449 . S
O827 C823 1.282 . S
H828 C801 0.931 . S
H829 C803 0.929 . S
H830 C804 0.930 . S
H831 C805 0.931 . S
H832 C812 0.932 . S
H833 C813 0.930 . S
H834 C814 0.929 . S
H835 C816 0.930 . S
H836 C818 0.932 . S
H837 C819 0.929 . S
H838 C820 0.928 . S
H839 C822 0.932 . S
C840 C841 1.264 . S
C840 C845 1.479 . S
C840 C850 1.465 . S
C841 C840 1.264 . S
C841 C843 1.339 . S
C841 H868 0.931 . S
C842 C843 1.395 . S
C842 C844 1.320 . S
C843 C841 1.339 . S
C843 C842 1.395 . S
C843 H869 0.929 . S
C844 C842 1.320 . S
C844 C845 1.405 . S
C844 H870 0.930 . S
C845 C840 1.479 . S
C845 C844 1.405 . S
C845 H871 0.931 . S
U846 O847 2.454 . S
U846 O848 2.458 . S
U846 C849 2.984 . S
U846 C850 2.847 . S
U846 C863 2.882 . S
U846 O864 2.441 . S
U846 O865 2.420 . S
U846 O866 2.455 . S
U846 O867 2.449 . S
O847 U846 2.454 . S
O847 C849 1.353 . S
O848 U846 2.458 . S
O848 C849 1.286 . S
C849 U846 2.984 . S
C849 O847 1.353 . S
C849 O848 1.286 . S
C849 C851 1.363 . S
C850 C840 1.465 . S
C850 U846 2.847 . S
C850 O864 1.249 . S
C850 O865 1.202 . S
C851 C849 1.363 . S
C851 C853 1.408 . S
C851 C856 1.342 . S
C852 C853 1.310 . S
C852 C855 1.461 . S
C852 H872 0.932 . S
C853 C851 1.408 . S
C853 C852 1.310 . S
C853 H873 0.930 . S
C854 C855 1.474 . S
C854 C856 1.285 . S
C854 H874 0.929 . S
C855 C852 1.461 . S
C855 C854 1.474 . S
C856 C851 1.342 . S
C856 C854 1.285 . S
C856 H875 0.930 . S
C857 C860 1.424 . S
C857 C862 1.245 . S
C857 C863 1.428 . S
C858 C861 1.260 . S
C858 C862 1.477 . S
C858 H876 0.932 . S
C859 C860 1.384 . S
C859 C861 1.479 . S
C859 H877 0.929 . S
C860 C857 1.424 . S
C860 C859 1.384 . S
C860 H878 0.928 . S
C861 C858 1.260 . S
C861 C859 1.479 . S
C862 C857 1.245 . S
C862 C858 1.477 . S
C862 H879 0.932 . S
C863 U846 2.882 . S
C863 C857 1.428 . S
C863 O866 1.301 . S
C863 O867 1.282 . S
O864 U846 2.441 . S
O864 C850 1.249 . S
O865 U846 2.420 . S
O865 C850 1.202 . S
O866 U846 2.455 . S
O866 C863 1.301 . S
O867 U846 2.449 . S
O867 C863 1.282 . S
H868 C841 0.931 . S
H869 C843 0.929 . S
H870 C844 0.930 . S
H871 C845 0.931 . S
H872 C852 0.932 . S
H873 C853 0.930 . S
H874 C854 0.929 . S
H875 C856 0.930 . S
H876 C858 0.932 . S
H877 C859 0.929 . S
H878 C860 0.928 . S
H879 C862 0.932 . S
C880 C881 1.264 . S
C880 C885 1.479 . S
C880 C890 1.465 . S
C881 C880 1.264 . S
C881 C883 1.339 . S
C881 H908 0.931 . S
C882 C883 1.395 . S
C882 C884 1.320 . S
C883 C881 1.339 . S
C883 C882 1.395 . S
C883 H909 0.929 . S
C884 C882 1.320 . S
C884 C885 1.405 . S
C884 H910 0.930 . S
C885 C880 1.479 . S
C885 C884 1.405 . S
C885 H911 0.931 . S
U886 O887 2.454 . S
U886 O888 2.458 . S
U886 C889 2.984 . S
U886 C890 2.847 . S
U886 C903 2.882 . S
U886 O904 2.441 . S
U886 O905 2.420 . S
U886 O906 2.455 . S
U886 O907 2.449 . S
O887 U886 2.454 . S
O887 C889 1.353 . S
O888 U886 2.458 . S
O888 C889 1.286 . S
C889 U886 2.984 . S
C889 O887 1.353 . S
C889 O888 1.286 . S
C889 C891 1.363 . S
C890 C880 1.465 . S
C890 U886 2.847 . S
C890 O904 1.249 . S
C890 O905 1.202 . S
C891 C889 1.363 . S
C891 C893 1.408 . S
C891 C896 1.342 . S
C892 C893 1.310 . S
C892 C895 1.461 . S
C892 H912 0.932 . S
C893 C891 1.408 . S
C893 C892 1.310 . S
C893 H913 0.930 . S
C894 C895 1.474 . S
C894 C896 1.285 . S
C894 H914 0.929 . S
C895 C892 1.461 . S
C895 C894 1.474 . S
C896 C891 1.342 . S
C896 C894 1.285 . S
C896 H915 0.930 . S
C897 C900 1.424 . S
C897 C902 1.245 . S
C897 C903 1.428 . S
C898 C901 1.260 . S
C898 C902 1.477 . S
C898 H916 0.932 . S
C899 C900 1.384 . S
C899 C901 1.479 . S
C899 H917 0.929 . S
C900 C897 1.424 . S
C900 C899 1.384 . S
C900 H918 0.928 . S
C901 C898 1.260 . S
C901 C899 1.479 . S
C902 C897 1.245 . S
C902 C898 1.477 . S
C902 H919 0.932 . S
C903 U886 2.882 . S
C903 C897 1.428 . S
C903 O906 1.301 . S
C903 O907 1.282 . S
O904 U886 2.441 . S
O904 C890 1.249 . S
O905 U886 2.420 . S
O905 C890 1.202 . S
O906 U886 2.455 . S
O906 C903 1.301 . S
O907 U886 2.449 . S
O907 C903 1.282 . S
H908 C881 0.931 . S
H909 C883 0.929 . S
H910 C884 0.930 . S
H911 C885 0.931 . S
H912 C892 0.932 . S
H913 C893 0.930 . S
H914 C894 0.929 . S
H915 C896 0.930 . S
H916 C898 0.932 . S
H917 C899 0.929 . S
H918 C900 0.928 . S
H919 C902 0.932 . S
C920 C921 1.264 . S
C920 C925 1.479 . S
C920 C930 1.465 . S
C921 C920 1.264 . S
C921 C923 1.339 . S
C921 H948 0.931 . S
C922 C923 1.395 . S
C922 C924 1.320 . S
C923 C921 1.339 . S
C923 C922 1.395 . S
C923 H949 0.929 . S
C924 C922 1.320 . S
C924 C925 1.405 . S
C924 H950 0.930 . S
C925 C920 1.479 . S
C925 C924 1.405 . S
C925 H951 0.931 . S
U926 O927 2.454 . S
U926 O928 2.458 . S
U926 C929 2.984 . S
U926 C930 2.847 . S
U926 C943 2.882 . S
U926 O944 2.441 . S
U926 O945 2.420 . S
U926 O946 2.455 . S
U926 O947 2.449 . S
O927 U926 2.454 . S
O927 C929 1.353 . S
O928 U926 2.458 . S
O928 C929 1.286 . S
C929 U926 2.984 . S
C929 O927 1.353 . S
C929 O928 1.286 . S
C929 C931 1.363 . S
C930 C920 1.465 . S
C930 U926 2.847 . S
C930 O944 1.249 . S
C930 O945 1.202 . S
C931 C929 1.363 . S
C931 C933 1.408 . S
C931 C936 1.342 . S
C932 C933 1.310 . S
C932 C935 1.461 . S
C932 H952 0.932 . S
C933 C931 1.408 . S
C933 C932 1.310 . S
C933 H953 0.930 . S
C934 C935 1.474 . S
C934 C936 1.285 . S
C934 H954 0.929 . S
C935 C932 1.461 . S
C935 C934 1.474 . S
C936 C931 1.342 . S
C936 C934 1.285 . S
C936 H955 0.930 . S
C937 C940 1.424 . S
C937 C942 1.245 . S
C937 C943 1.428 . S
C938 C941 1.260 . S
C938 C942 1.477 . S
C938 H956 0.932 . S
C939 C940 1.384 . S
C939 C941 1.479 . S
C939 H957 0.929 . S
C940 C937 1.424 . S
C940 C939 1.384 . S
C940 H958 0.928 . S
C941 C938 1.260 . S
C941 C939 1.479 . S
C942 C937 1.245 . S
C942 C938 1.477 . S
C942 H959 0.932 . S
C943 U926 2.882 . S
C943 C937 1.428 . S
C943 O946 1.301 . S
C943 O947 1.282 . S
O944 U926 2.441 . S
O944 C930 1.249 . S
O945 U926 2.420 . S
O945 C930 1.202 . S
O946 U926 2.455 . S
O946 C943 1.301 . S
O947 U926 2.449 . S
O947 C943 1.282 . S
H948 C921 0.931 . S
H949 C923 0.929 . S
H950 C924 0.930 . S
H951 C925 0.931 . S
H952 C932 0.932 . S
H953 C933 0.930 . S
H954 C934 0.929 . S
H955 C936 0.930 . S
H956 C938 0.932 . S
H957 C939 0.929 . S
H958 C940 0.928 . S
H959 C942 0.932 . S
C960 C961 1.264 . S
C960 C965 1.479 . S
C960 C970 1.465 . S
C961 C960 1.264 . S
C961 C963 1.339 . S
C961 H988 0.931 . S
C962 C963 1.395 . S
C962 C964 1.320 . S
C963 C961 1.339 . S
C963 C962 1.395 . S
C963 H989 0.929 . S
C964 C962 1.320 . S
C964 C965 1.405 . S
C964 H990 0.930 . S
C965 C960 1.479 . S
C965 C964 1.405 . S
C965 H991 0.931 . S
U966 O967 2.454 . S
U966 O968 2.458 . S
U966 C969 2.984 . S
U966 C970 2.847 . S
U966 C983 2.882 . S
U966 O984 2.441 . S
U966 O985 2.420 . S
U966 O986 2.455 . S
U966 O987 2.449 . S
O967 U966 2.454 . S
O967 C969 1.353 . S
O968 U966 2.458 . S
O968 C969 1.286 . S
C969 U966 2.984 . S
C969 O967 1.353 . S
C969 O968 1.286 . S
C969 C971 1.363 . S
C970 C960 1.465 . S
C970 U966 2.847 . S
C970 O984 1.249 . S
C970 O985 1.202 . S
C971 C969 1.363 . S
C971 C973 1.408 . S
C971 C976 1.342 . S
C972 C973 1.310 . S
C972 C975 1.461 . S
C972 H992 0.932 . S
C973 C971 1.408 . S
C973 C972 1.310 . S
C973 H993 0.930 . S
C974 C975 1.474 . S
C974 C976 1.285 . S
C974 H994 0.929 . S
C975 C972 1.461 . S
C975 C974 1.474 . S
C976 C971 1.342 . S
C976 C974 1.285 . S
C976 H995 0.930 . S
C977 C980 1.424 . S
C977 C982 1.245 . S
C977 C983 1.428 . S
C978 C981 1.260 . S
C978 C982 1.477 . S
C978 H996 0.932 . S
C979 C980 1.384 . S
C979 C981 1.479 . S
C979 H997 0.929 . S
C980 C977 1.424 . S
C980 C979 1.384 . S
C980 H998 0.928 . S
C981 C978 1.260 . S
C981 C979 1.479 . S
C982 C977 1.245 . S
C982 C978 1.477 . S
C982 H999 0.932 . S
C983 U966 2.882 . S
C983 C977 1.428 . S
C983 O986 1.301 . S
C983 O987 1.282 . S
O984 U966 2.441 . S
O984 C970 1.249 . S
O985 U966 2.420 . S
O985 C970 1.202 . S
O986 U966 2.455 . S
O986 C983 1.301 . S
O987 U966 2.449 . S
O987 C983 1.282 . S
H988 C961 0.931 . S
H989 C963 0.929 . S
H990 C964 0.930 . S
H991 C965 0.931 . S
H992 C972 0.932 . S
H993 C973 0.930 . S
H994 C974 0.929 . S
H995 C976 0.930 . S
H996 C978 0.932 . S
H997 C979 0.929 . S
H998 C980 0.928 . S
H999 C982 0.932 . S
C1000 C1001 1.264 . S
C1000 C1005 1.479 . S
C1000 C1010 1.465 . S
C1001 C1000 1.264 . S
C1001 C1003 1.339 . S
C1001 H1028 0.931 . S
C1002 C1003 1.395 . S
C1002 C1004 1.320 . S
C1003 C1001 1.339 . S
C1003 C1002 1.395 . S
C1003 H1029 0.929 . S
C1004 C1002 1.320 . S
C1004 C1005 1.405 . S
C1004 H1030 0.930 . S
C1005 C1000 1.479 . S
C1005 C1004 1.405 . S
C1005 H1031 0.931 . S
U1006 O1007 2.454 . S
U1006 O1008 2.458 . S
U1006 C1009 2.984 . S
U1006 C1010 2.847 . S
U1006 C1023 2.882 . S
U1006 O1024 2.441 . S
U1006 O1025 2.420 . S
U1006 O1026 2.455 . S
U1006 O1027 2.449 . S
O1007 U1006 2.454 . S
O1007 C1009 1.353 . S
O1008 U1006 2.458 . S
O1008 C1009 1.286 . S
C1009 U1006 2.984 . S
C1009 O1007 1.353 . S
C1009 O1008 1.286 . S
C1009 C1011 1.363 . S
C1010 C1000 1.465 . S
C1010 U1006 2.847 . S
C1010 O1024 1.249 . S
C1010 O1025 1.202 . S
C1011 C1009 1.363 . S
C1011 C1013 1.408 . S
C1011 C1016 1.342 . S
C1012 C1013 1.310 . S
C1012 C1015 1.461 . S
C1012 H1032 0.932 . S
C1013 C1011 1.408 . S
C1013 C1012 1.310 . S
C1013 H1033 0.930 . S
C1014 C1015 1.474 . S
C1014 C1016 1.285 . S
C1014 H1034 0.929 . S
C1015 C1012 1.461 . S
C1015 C1014 1.474 . S
C1016 C1011 1.342 . S
C1016 C1014 1.285 . S
C1016 H1035 0.930 . S
C1017 C1020 1.424 . S
C1017 C1022 1.245 . S
C1017 C1023 1.428 . S
C1018 C1021 1.260 . S
C1018 C1022 1.477 . S
C1018 H1036 0.932 . S
C1019 C1020 1.384 . S
C1019 C1021 1.479 . S
C1019 H1037 0.929 . S
C1020 C1017 1.424 . S
C1020 C1019 1.384 . S
C1020 H1038 0.928 . S
C1021 C1018 1.260 . S
C1021 C1019 1.479 . S
C1022 C1017 1.245 . S
C1022 C1018 1.477 . S
C1022 H1039 0.932 . S
C1023 U1006 2.882 . S
C1023 C1017 1.428 . S
C1023 O1026 1.301 . S
C1023 O1027 1.282 . S
O1024 U1006 2.441 . S
O1024 C1010 1.249 . S
O1025 U1006 2.420 . S
O1025 C1010 1.202 . S
O1026 U1006 2.455 . S
O1026 C1023 1.301 . S
O1027 U1006 2.449 . S
O1027 C1023 1.282 . S
H1028 C1001 0.931 . S
H1029 C1003 0.929 . S
H1030 C1004 0.930 . S
H1031 C1005 0.931 . S
H1032 C1012 0.932 . S
H1033 C1013 0.930 . S
H1034 C1014 0.929 . S
H1035 C1016 0.930 . S
H1036 C1018 0.932 . S
H1037 C1019 0.929 . S
H1038 C1020 0.928 . S
H1039 C1022 0.932 . S
C1040 C1041 1.264 . S
C1040 C1045 1.479 . S
C1040 C1050 1.465 . S
C1041 C1040 1.264 . S
C1041 C1043 1.339 . S
C1041 H1068 0.931 . S
C1042 C1043 1.395 . S
C1042 C1044 1.320 . S
C1043 C1041 1.339 . S
C1043 C1042 1.395 . S
C1043 H1069 0.929 . S
C1044 C1042 1.320 . S
C1044 C1045 1.405 . S
C1044 H1070 0.930 . S
C1045 C1040 1.479 . S
C1045 C1044 1.405 . S
C1045 H1071 0.931 . S
U1046 O1047 2.454 . S
U1046 O1048 2.458 . S
U1046 C1049 2.984 . S
U1046 C1050 2.847 . S
U1046 C1063 2.882 . S
U1046 O1064 2.441 . S
U1046 O1065 2.420 . S
U1046 O1066 2.455 . S
U1046 O1067 2.449 . S
O1047 U1046 2.454 . S
O1047 C1049 1.353 . S
O1048 U1046 2.458 . S
O1048 C1049 1.286 . S
C1049 U1046 2.984 . S
C1049 O1047 1.353 . S
C1049 O1048 1.286 . S
C1049 C1051 1.363 . S
C1050 C1040 1.465 . S
C1050 U1046 2.847 . S
C1050 O1064 1.249 . S
C1050 O1065 1.202 . S
C1051 C1049 1.363 . S
C1051 C1053 1.408 . S
C1051 C1056 1.342 . S
C1052 C1053 1.310 . S
C1052 C1055 1.461 . S
C1052 H1072 0.932 . S
C1053 C1051 1.408 . S
C1053 C1052 1.310 . S
C1053 H1073 0.930 . S
C1054 C1055 1.474 . S
C1054 C1056 1.285 . S
C1054 H1074 0.929 . S
C1055 C1052 1.461 . S
C1055 C1054 1.474 . S
C1056 C1051 1.342 . S
C1056 C1054 1.285 . S
C1056 H1075 0.930 . S
C1057 C1060 1.424 . S
C1057 C1062 1.245 . S
C1057 C1063 1.428 . S
C1058 C1061 1.260 . S
C1058 C1062 1.477 . S
C1058 H1076 0.932 . S
C1059 C1060 1.384 . S
C1059 C1061 1.479 . S
C1059 H1077 0.929 . S
C1060 C1057 1.424 . S
C1060 C1059 1.384 . S
C1060 H1078 0.928 . S
C1061 C1058 1.260 . S
C1061 C1059 1.479 . S
C1062 C1057 1.245 . S
C1062 C1058 1.477 . S
C1062 H1079 0.932 . S
C1063 U1046 2.882 . S
C1063 C1057 1.428 . S
C1063 O1066 1.301 . S
C1063 O1067 1.282 . S
O1064 U1046 2.441 . S
O1064 C1050 1.249 . S
O1065 U1046 2.420 . S
O1065 C1050 1.202 . S
O1066 U1046 2.455 . S
O1066 C1063 1.301 . S
O1067 U1046 2.449 . S
O1067 C1063 1.282 . S
H1068 C1041 0.931 . S
H1069 C1043 0.929 . S
H1070 C1044 0.930 . S
H1071 C1045 0.931 . S
H1072 C1052 0.932 . S
H1073 C1053 0.930 . S
H1074 C1054 0.929 . S
H1075 C1056 0.930 . S
H1076 C1058 0.932 . S
H1077 C1059 0.929 . S
H1078 C1060 0.928 . S
H1079 C1062 0.932 . S
C1080 C1081 1.264 . S
C1080 C1085 1.479 . S
C1080 C1090 1.465 . S
C1081 C1080 1.264 . S
C1081 C1083 1.339 . S
C1081 H1108 0.931 . S
C1082 C1083 1.395 . S
C1082 C1084 1.320 . S
C1083 C1081 1.339 . S
C1083 C1082 1.395 . S
C1083 H1109 0.929 . S
C1084 C1082 1.320 . S
C1084 C1085 1.405 . S
C1084 H1110 0.930 . S
C1085 C1080 1.479 . S
C1085 C1084 1.405 . S
C1085 H1111 0.931 . S
U1086 O1087 2.454 . S
U1086 O1088 2.458 . S
U1086 C1089 2.984 . S
U1086 C1090 2.847 . S
U1086 C1103 2.882 . S
U1086 O1104 2.441 . S
U1086 O1105 2.420 . S
U1086 O1106 2.455 . S
U1086 O1107 2.449 . S
O1087 U1086 2.454 . S
O1087 C1089 1.353 . S
O1088 U1086 2.458 . S
O1088 C1089 1.286 . S
C1089 U1086 2.984 . S
C1089 O1087 1.353 . S
C1089 O1088 1.286 . S
C1089 C1091 1.363 . S
C1090 C1080 1.465 . S
C1090 U1086 2.847 . S
C1090 O1104 1.249 . S
C1090 O1105 1.202 . S
C1091 C1089 1.363 . S
C1091 C1093 1.408 . S
C1091 C1096 1.342 . S
C1092 C1093 1.310 . S
C1092 C1095 1.461 . S
C1092 H1112 0.932 . S
C1093 C1091 1.408 . S
C1093 C1092 1.310 . S
C1093 H1113 0.930 . S
C1094 C1095 1.474 . S
C1094 C1096 1.285 . S
C1094 H1114 0.929 . S
C1095 C1092 1.461 . S
C1095 C1094 1.474 . S
C1096 C1091 1.342 . S
C1096 C1094 1.285 . S
C1096 H1115 0.930 . S
C1097 C1100 1.424 . S
C1097 C1102 1.245 . S
C1097 C1103 1.428 . S
C1098 C1101 1.260 . S
C1098 C1102 1.477 . S
C1098 H1116 0.932 . S
C1099 C1100 1.384 . S
C1099 C1101 1.479 . S
C1099 H1117 0.929 . S
C1100 C1097 1.424 . S
C1100 C1099 1.384 . S
C1100 H1118 0.928 . S
C1101 C1098 1.260 . S
C1101 C1099 1.479 . S
C1102 C1097 1.245 . S
C1102 C1098 1.477 . S
C1102 H1119 0.932 . S
C1103 U1086 2.882 . S
C1103 C1097 1.428 . S
C1103 O1106 1.301 . S
C1103 O1107 1.282 . S
O1104 U1086 2.441 . S
O1104 C1090 1.249 . S
O1105 U1086 2.420 . S
O1105 C1090 1.202 . S
O1106 U1086 2.455 . S
O1106 C1103 1.301 . S
O1107 U1086 2.449 . S
O1107 C1103 1.282 . S
H1108 C1081 0.931 . S
H1109 C1083 0.929 . S
H1110 C1084 0.930 . S
H1111 C1085 0.931 . S
H1112 C1092 0.932 . S
H1113 C1093 0.930 . S
H1114 C1094 0.929 . S
H1115 C1096 0.930 . S
H1116 C1098 0.932 . S
H1117 C1099 0.929 . S
H1118 C1100 0.928 . S
H1119 C1102 0.932 . S
C1120 C1121 1.264 . S
C1120 C1125 1.479 . S
C1120 C1130 1.465 . S
C1121 C1120 1.264 . S
C1121 C1123 1.339 . S
C1121 H1148 0.931 . S
C1122 C1123 1.395 . S
C1122 C1124 1.320 . S
C1123 C1121 1.339 . S
C1123 C1122 1.395 . S
C1123 H1149 0.929 . S
C1124 C1122 1.320 . S
C1124 C1125 1.405 . S
C1124 H1150 0.930 . S
C1125 C1120 1.479 . S
C1125 C1124 1.405 . S
C1125 H1151 0.931 . S
U1126 O1127 2.454 . S
U1126 O1128 2.458 . S
U1126 C1129 2.984 . S
U1126 C1130 2.847 . S
U1126 C1143 2.882 . S
U1126 O1144 2.441 . S
U1126 O1145 2.420 . S
U1126 O1146 2.455 . S
U1126 O1147 2.449 . S
O1127 U1126 2.454 . S
O1127 C1129 1.353 . S
O1128 U1126 2.458 . S
O1128 C1129 1.286 . S
C1129 U1126 2.984 . S
C1129 O1127 1.353 . S
C1129 O1128 1.286 . S
C1129 C1131 1.363 . S
C1130 C1120 1.465 . S
C1130 U1126 2.847 . S
C1130 O1144 1.249 . S
C1130 O1145 1.202 . S
C1131 C1129 1.363 . S
C1131 C1133 1.408 . S
C1131 C1136 1.342 . S
C1132 C1133 1.310 . S
C1132 C1135 1.461 . S
C1132 H1152 0.932 . S
C1133 C1131 1.408 . S
C1133 C1132 1.310 . S
C1133 H1153 0.930 . S
C1134 C1135 1.474 . S
C1134 C1136 1.285 . S
C1134 H1154 0.929 . S
C1135 C1132 1.461 . S
C1135 C1134 1.474 . S
C1136 C1131 1.342 . S
C1136 C1134 1.285 . S
C1136 H1155 0.930 . S
C1137 C1140 1.424 . S
C1137 C1142 1.245 . S
C1137 C1143 1.428 . S
C1138 C1141 1.260 . S
C1138 C1142 1.477 . S
C1138 H1156 0.932 . S
C1139 C1140 1.384 . S
C1139 C1141 1.479 . S
C1139 H1157 0.929 . S
C1140 C1137 1.424 . S
C1140 C1139 1.384 . S
C1140 H1158 0.928 . S
C1141 C1138 1.260 . S
C1141 C1139 1.479 . S
C1142 C1137 1.245 . S
C1142 C1138 1.477 . S
C1142 H1159 0.932 . S
C1143 U1126 2.882 . S
C1143 C1137 1.428 . S
C1143 O1146 1.301 . S
C1143 O1147 1.282 . S
O1144 U1126 2.441 . S
O1144 C1130 1.249 . S
O1145 U1126 2.420 . S
O1145 C1130 1.202 . S
O1146 U1126 2.455 . S
O1146 C1143 1.301 . S
O1147 U1126 2.449 . S
O1147 C1143 1.282 . S
H1148 C1121 0.931 . S
H1149 C1123 0.929 . S
H1150 C1124 0.930 . S
H1151 C1125 0.931 . S
H1152 C1132 0.932 . S
H1153 C1133 0.930 . S
H1154 C1134 0.929 . S
H1155 C1136 0.930 . S
H1156 C1138 0.932 . S
H1157 C1139 0.929 . S
H1158 C1140 0.928 . S
H1159 C1142 0.932 . S
C1160 C1161 1.264 . S
C1160 C1165 1.479 . S
C1160 C1170 1.465 . S
C1161 C1160 1.264 . S
C1161 C1163 1.339 . S
C1161 H1188 0.931 . S
C1162 C1163 1.395 . S
C1162 C1164 1.320 . S
C1163 C1161 1.339 . S
C1163 C1162 1.395 . S
C1163 H1189 0.929 . S
C1164 C1162 1.320 . S
C1164 C1165 1.405 . S
C1164 H1190 0.930 . S
C1165 C1160 1.479 . S
C1165 C1164 1.405 . S
C1165 H1191 0.931 . S
U1166 O1167 2.454 . S
U1166 O1168 2.458 . S
U1166 C1169 2.984 . S
U1166 C1170 2.847 . S
U1166 C1183 2.882 . S
U1166 O1184 2.441 . S
U1166 O1185 2.420 . S
U1166 O1186 2.455 . S
U1166 O1187 2.449 . S
O1167 U1166 2.454 . S
O1167 C1169 1.353 . S
O1168 U1166 2.458 . S
O1168 C1169 1.286 . S
C1169 U1166 2.984 . S
C1169 O1167 1.353 . S
C1169 O1168 1.286 . S
C1169 C1171 1.363 . S
C1170 C1160 1.465 . S
C1170 U1166 2.847 . S
C1170 O1184 1.249 . S
C1170 O1185 1.202 . S
C1171 C1169 1.363 . S
C1171 C1173 1.408 . S
C1171 C1176 1.342 . S
C1172 C1173 1.310 . S
C1172 C1175 1.461 . S
C1172 H1192 0.932 . S
C1173 C1171 1.408 . S
C1173 C1172 1.310 . S
C1173 H1193 0.930 . S
C1174 C1175 1.474 . S
C1174 C1176 1.285 . S
C1174 H1194 0.929 . S
C1175 C1172 1.461 . S
C1175 C1174 1.474 . S
C1176 C1171 1.342 . S
C1176 C1174 1.285 . S
C1176 H1195 0.930 . S
C1177 C1180 1.424 . S
C1177 C1182 1.245 . S
C1177 C1183 1.428 . S
C1178 C1181 1.260 . S
C1178 C1182 1.477 . S
C1178 H1196 0.932 . S
C1179 C1180 1.384 . S
C1179 C1181 1.479 . S
C1179 H1197 0.929 . S
C1180 C1177 1.424 . S
C1180 C1179 1.384 . S
C1180 H1198 0.928 . S
C1181 C1178 1.260 . S
C1181 C1179 1.479 . S
C1182 C1177 1.245 . S
C1182 C1178 1.477 . S
C1182 H1199 0.932 . S
C1183 U1166 2.882 . S
C1183 C1177 1.428 . S
C1183 O1186 1.301 . S
C1183 O1187 1.282 . S
O1184 U1166 2.441 . S
O1184 C1170 1.249 . S
O1185 U1166 2.420 . S
O1185 C1170 1.202 . S
O1186 U1166 2.455 . S
O1186 C1183 1.301 . S
O1187 U1166 2.449 . S
O1187 C1183 1.282 . S
H1188 C1161 0.931 . S
H1189 C1163 0.929 . S
H1190 C1164 0.930 . S
H1191 C1165 0.931 . S
H1192 C1172 0.932 . S
H1193 C1173 0.930 . S
H1194 C1174 0.929 . S
H1195 C1176 0.930 . S
H1196 C1178 0.932 . S
H1197 C1179 0.929 . S
H1198 C1180 0.928 . S
H1199 C1182 0.932 . S
C1200 C1201 1.264 . S
C1200 C1205 1.479 . S
C1200 C1210 1.465 . S
C1201 C1200 1.264 . S
C1201 C1203 1.339 . S
C1201 H1228 0.931 . S
C1202 C1203 1.395 . S
C1202 C1204 1.320 . S
C1203 C1201 1.339 . S
C1203 C1202 1.395 . S
C1203 H1229 0.929 . S
C1204 C1202 1.320 . S
C1204 C1205 1.405 . S
C1204 H1230 0.930 . S
C1205 C1200 1.479 . S
C1205 C1204 1.405 . S
C1205 H1231 0.931 . S
U1206 O1207 2.454 . S
U1206 O1208 2.458 . S
U1206 C1209 2.984 . S
U1206 C1210 2.847 . S
U1206 C1223 2.882 . S
U1206 O1224 2.441 . S
U1206 O1225 2.420 . S
U1206 O1226 2.455 . S
U1206 O1227 2.449 . S
O1207 U1206 2.454 . S
O1207 C1209 1.353 . S
O1208 U1206 2.458 . S
O1208 C1209 1.286 . S
C1209 U1206 2.984 . S
C1209 O1207 1.353 . S
C1209 O1208 1.286 . S
C1209 C1211 1.363 . S
C1210 C1200 1.465 . S
C1210 U1206 2.847 . S
C1210 O1224 1.249 . S
C1210 O1225 1.202 . S
C1211 C1209 1.363 . S
C1211 C1213 1.408 . S
C1211 C1216 1.342 . S
C1212 C1213 1.310 . S
C1212 C1215 1.461 . S
C1212 H1232 0.932 . S
C1213 C1211 1.408 . S
C1213 C1212 1.310 . S
C1213 H1233 0.930 . S
C1214 C1215 1.474 . S
C1214 C1216 1.285 . S
C1214 H1234 0.929 . S
C1215 C1212 1.461 . S
C1215 C1214 1.474 . S
C1216 C1211 1.342 . S
C1216 C1214 1.285 . S
C1216 H1235 0.930 . S
C1217 C1220 1.424 . S
C1217 C1222 1.245 . S
C1217 C1223 1.428 . S
C1218 C1221 1.260 . S
C1218 C1222 1.477 . S
C1218 H1236 0.932 . S
C1219 C1220 1.384 . S
C1219 C1221 1.479 . S
C1219 H1237 0.929 . S
C1220 C1217 1.424 . S
C1220 C1219 1.384 . S
C1220 H1238 0.928 . S
C1221 C1218 1.260 . S
C1221 C1219 1.479 . S
C1222 C1217 1.245 . S
C1222 C1218 1.477 . S
C1222 H1239 0.932 . S
C1223 U1206 2.882 . S
C1223 C1217 1.428 . S
C1223 O1226 1.301 . S
C1223 O1227 1.282 . S
O1224 U1206 2.441 . S
O1224 C1210 1.249 . S
O1225 U1206 2.420 . S
O1225 C1210 1.202 . S
O1226 U1206 2.455 . S
O1226 C1223 1.301 . S
O1227 U1206 2.449 . S
O1227 C1223 1.282 . S
H1228 C1201 0.931 . S
H1229 C1203 0.929 . S
H1230 C1204 0.930 . S
H1231 C1205 0.931 . S
H1232 C1212 0.932 . S
H1233 C1213 0.930 . S
H1234 C1214 0.929 . S
H1235 C1216 0.930 . S
H1236 C1218 0.932 . S
H1237 C1219 0.929 . S
H1238 C1220 0.928 . S
H1239 C1222 0.932 . S
C1240 C1241 1.264 . S
C1240 C1245 1.479 . S
C1240 C1250 1.465 . S
C1241 C1240 1.264 . S
C1241 C1243 1.339 . S
C1241 H1268 0.931 . S
C1242 C1243 1.395 . S
C1242 C1244 1.320 . S
C1243 C1241 1.339 . S
C1243 C1242 1.395 . S
C1243 H1269 0.929 . S
C1244 C1242 1.320 . S
C1244 C1245 1.405 . S
C1244 H1270 0.930 . S
C1245 C1240 1.479 . S
C1245 C1244 1.405 . S
C1245 H1271 0.931 . S
U1246 O1247 2.454 . S
U1246 O1248 2.458 . S
U1246 C1249 2.984 . S
U1246 C1250 2.847 . S
U1246 C1263 2.882 . S
U1246 O1264 2.441 . S
U1246 O1265 2.420 . S
U1246 O1266 2.455 . S
U1246 O1267 2.449 . S
O1247 U1246 2.454 . S
O1247 C1249 1.353 . S
O1248 U1246 2.458 . S
O1248 C1249 1.286 . S
C1249 U1246 2.984 . S
C1249 O1247 1.353 . S
C1249 O1248 1.286 . S
C1249 C1251 1.363 . S
C1250 C1240 1.465 . S
C1250 U1246 2.847 . S
C1250 O1264 1.249 . S
C1250 O1265 1.202 . S
C1251 C1249 1.363 . S
C1251 C1253 1.408 . S
C1251 C1256 1.342 . S
C1252 C1253 1.310 . S
C1252 C1255 1.461 . S
C1252 H1272 0.932 . S
C1253 C1251 1.408 . S
C1253 C1252 1.310 . S
C1253 H1273 0.930 . S
C1254 C1255 1.474 . S
C1254 C1256 1.285 . S
C1254 H1274 0.929 . S
C1255 C1252 1.461 . S
C1255 C1254 1.474 . S
C1256 C1251 1.342 . S
C1256 C1254 1.285 . S
C1256 H1275 0.930 . S
C1257 C1260 1.424 . S
C1257 C1262 1.245 . S
C1257 C1263 1.428 . S
C1258 C1261 1.260 . S
C1258 C1262 1.477 . S
C1258 H1276 0.932 . S
C1259 C1260 1.384 . S
C1259 C1261 1.479 . S
C1259 H1277 0.929 . S
C1260 C1257 1.424 . S
C1260 C1259 1.384 . S
C1260 H1278 0.928 . S
C1261 C1258 1.260 . S
C1261 C1259 1.479 . S
C1262 C1257 1.245 . S
C1262 C1258 1.477 . S
C1262 H1279 0.932 . S
C1263 U1246 2.882 . S
C1263 C1257 1.428 . S
C1263 O1266 1.301 . S
C1263 O1267 1.282 . S
O1264 U1246 2.441 . S
O1264 C1250 1.249 . S
O1265 U1246 2.420 . S
O1265 C1250 1.202 . S
O1266 U1246 2.455 . S
O1266 C1263 1.301 . S
O1267 U1246 2.449 . S
O1267 C1263 1.282 . S
H1268 C1241 0.931 . S
H1269 C1243 0.929 . S
H1270 C1244 0.930 . S
H1271 C1245 0.931 . S
H1272 C1252 0.932 . S
H1273 C1253 0.930 . S
H1274 C1254 0.929 . S
H1275 C1256 0.930 . S
H1276 C1258 0.932 . S
H1277 C1259 0.929 . S
H1278 C1260 0.928 . S
H1279 C1262 0.932 . S
H1280 C1288 0.929 . S
H1281 C1290 0.930 . S
H1282 C1292 0.964 . S
H1283 C1295 0.974 . S
H1284 C1298 0.930 . S
H1285 C1300 0.960 . S
H1286 C1300 0.960 . S
H1287 C1300 0.960 . S
C1288 H1280 0.929 . S
C1288 C1289 1.377 . S
C1288 C1290 1.384 . S
C1289 C1288 1.377 . S
C1289 C1295 1.348 1_565 S
C1290 H1281 0.930 . S
C1290 C1288 1.384 . S
C1290 C1291 1.372 . S
C1291 C1290 1.372 . S
C1291 C1292 1.367 1_565 S
C1291 C1296 1.490 . S
C1292 H1282 0.964 . S
C1292 C1291 1.367 1_545 S
C1292 C1295 1.386 . S
H1293 C1309 0.930 1_545 S
H1294 C1310 0.931 1_545 S
C1295 H1283 0.974 . S
C1295 C1289 1.348 1_545 S
C1295 C1292 1.386 . S
C1296 C1291 1.490 . S
C1296 C1298 1.395 . S
C1296 C1299 1.403 1_565 S
H1297 C1303 0.930 . S
C1298 H1284 0.930 . S
C1298 C1296 1.395 . S
C1298 C1301 1.403 . S
C1299 C1296 1.403 1_545 S
C1299 C1300 1.524 . S
C1299 C1303 1.400 . S
C1300 H1285 0.960 . S
C1300 H1286 0.960 . S
C1300 H1287 0.960 . S
C1300 C1299 1.524 . S
C1301 C1298 1.403 . S
C1301 C1302 1.392 . S
C1301 C1305 1.495 . S
C1302 C1301 1.392 . S
C1302 C1303 1.385 1_565 S
C1302 C1304 1.478 . S
C1303 H1297 0.930 . S
C1303 C1299 1.400 . S
C1303 C1302 1.385 1_545 S
C1304 C1302 1.478 . S
C1304 C1306 1.381 . S
C1304 C1310 1.383 . S
C1305 C1301 1.495 . S
C1305 H1311 0.959 . S
C1305 H1312 0.961 . S
C1305 H1313 0.960 . S
C1306 C1304 1.381 . S
C1306 C1307 1.394 . S
C1306 H1314 0.930 . S
C1307 C1306 1.394 . S
C1307 C1308 1.383 . S
C1307 H1315 0.929 . S
C1308 C1307 1.383 . S
C1308 C1309 1.377 . S
C1309 H1293 0.930 1_565 S
C1309 C1308 1.377 . S
C1309 C1310 1.379 . S
C1310 H1294 0.931 1_565 S
C1310 C1304 1.383 . S
C1310 C1309 1.379 . S
H1311 C1305 0.959 . S
H1312 C1305 0.961 . S
H1313 C1305 0.960 . S
H1314 C1306 0.930 . S
H1315 C1307 0.929 . S
H1316 C1324 0.929 . S
H1317 C1326 0.930 . S
H1318 C1328 0.930 . S
H1319 C1331 0.929 . S
H1320 C1334 0.930 . S
H1321 C1336 0.960 1_565 S
H1322 C1336 0.960 . S
H1323 C1336 0.983 . S
C1324 H1316 0.929 . S
C1324 C1325 1.377 . S
C1324 C1326 1.384 . S
C1325 C1324 1.377 . S
C1325 C1331 1.390 . S
C1326 H1317 0.930 . S
C1326 C1324 1.384 . S
C1326 C1327 1.372 . S
C1327 C1326 1.372 . S
C1327 C1328 1.400 . S
C1327 C1332 1.490 . S
C1328 H1318 0.930 . S
C1328 C1327 1.400 . S
C1328 C1331 1.386 . S
H1329 C1345 0.930 . S
H1330 C1346 0.931 . S
C1331 H1319 0.929 . S
C1331 C1325 1.390 . S
C1331 C1328 1.386 . S
C1332 C1327 1.490 . S
C1332 C1334 1.395 . S
C1332 C1335 1.403 . S
H1333 C1339 0.930 . S
C1334 H1320 0.930 . S
C1334 C1332 1.395 . S
C1334 C1337 1.369 1_545 S
C1335 C1332 1.403 . S
C1335 C1336 1.524 . S
C1335 C1339 1.400 1_545 S
C1336 H1321 0.960 1_545 S
C1336 H1322 0.960 . S
C1336 H1323 0.983 . S
C1336 C1335 1.524 . S
C1337 C1334 1.369 1_565 S
C1337 C1338 1.423 . S
C1337 C1341 1.502 . S
C1338 C1337 1.423 . S
C1338 C1339 1.385 . S
C1338 C1340 1.478 . S
C1339 H1333 0.930 . S
C1339 C1335 1.400 1_565 S
C1339 C1338 1.385 . S
C1340 C1338 1.478 . S
C1340 C1342 1.381 . S
C1340 C1346 1.383 . S
C1341 C1337 1.502 . S
C1341 H1347 0.959 1_565 S
C1341 H1348 0.961 . S
C1341 H1349 0.960 1_565 S
C1342 C1340 1.381 . S
C1342 C1343 1.394 . S
C1342 H1350 0.930 . S
C1343 C1342 1.394 . S
C1343 C1344 1.383 . S
C1343 H1351 0.929 . S
C1344 C1343 1.383 . S
C1344 C1345 1.377 . S
C1345 H1329 0.930 . S
C1345 C1344 1.377 . S
C1345 C1346 1.379 . S
C1346 H1330 0.931 . S
C1346 C1340 1.383 . S
C1346 C1345 1.379 . S
H1347 C1341 0.959 1_545 S
H1348 C1341 0.961 . S
H1349 C1341 0.960 1_545 S
H1350 C1342 0.930 . S
H1351 C1343 0.929 . S
H1352 C1360 0.929 . S
H1353 C1362 0.930 . S
H1354 C1364 0.930 . S
H1355 C1367 0.929 . S
H1356 C1370 0.930 . S
H1357 C1372 0.960 . S
H1358 C1372 0.960 . S
H1359 C1372 0.960 . S
C1360 H1352 0.929 . S
C1360 C1361 1.377 1_565 S
C1360 C1362 1.384 . S
C1361 C1360 1.377 1_545 S
C1361 C1367 1.390 . S
C1362 H1353 0.930 . S
C1362 C1360 1.384 . S
C1362 C1363 1.372 1_565 S
C1363 C1362 1.372 1_545 S
C1363 C1364 1.400 . S
C1363 C1368 1.490 . S
C1364 H1354 0.930 . S
C1364 C1363 1.400 . S
C1364 C1367 1.386 . S
H1365 C1381 0.930 . S
H1366 C1382 0.931 . S
C1367 H1355 0.929 . S
C1367 C1361 1.390 . S
C1367 C1364 1.386 . S
C1368 C1363 1.490 . S
C1368 C1370 1.395 1_545 S
C1368 C1371 1.403 . S
H1369 C1375 0.930 . S
C1370 H1356 0.930 . S
C1370 C1368 1.395 1_565 S
C1370 C1373 1.403 . S
C1371 C1368 1.403 . S
C1371 C1372 1.524 . S
C1371 C1375 1.400 . S
C1372 H1357 0.960 . S
C1372 H1358 0.960 . S
C1372 H1359 0.960 . S
C1372 C1371 1.524 . S
C1373 C1370 1.403 . S
C1373 C1374 1.392 1_565 S
C1373 C1377 1.495 . S
C1374 C1373 1.392 1_545 S
C1374 C1375 1.385 . S
C1374 C1376 1.478 . S
C1375 H1369 0.930 . S
C1375 C1371 1.400 . S
C1375 C1374 1.385 . S
C1376 C1374 1.478 . S
C1376 C1378 1.381 1_545 S
C1376 C1382 1.383 . S
C1377 C1373 1.495 . S
C1377 H1383 0.959 . S
C1377 H1384 0.961 . S
C1377 H1385 0.960 . S
C1378 C1376 1.381 1_565 S
C1378 C1379 1.394 . S
C1378 H1386 0.930 . S
C1379 C1378 1.394 . S
C1379 C1380 1.383 1_565 S
C1379 H1387 0.929 . S
C1380 C1379 1.383 1_545 S
C1380 C1381 1.377 . S
C1381 H1365 0.930 . S
C1381 C1380 1.377 . S
C1381 C1382 1.379 . S
C1382 H1366 0.931 . S
C1382 C1376 1.383 . S
C1382 C1381 1.379 . S
H1383 C1377 0.959 . S
H1384 C1377 0.961 . S
H1385 C1377 0.960 . S
H1386 C1378 0.930 . S
H1387 C1379 0.929 . S
H1388 C1396 0.929 . S
H1389 C1398 0.930 . S
H1390 C1400 0.930 . S
H1391 C1403 0.929 . S
H1392 C1406 0.930 . S
H1393 C1408 0.934 1_556 S
H1394 C1408 0.960 . S
H1395 C1408 0.986 . S
C1396 H1388 0.929 . S
C1396 C1397 1.377 . S
C1396 C1398 1.384 . S
C1397 C1396 1.377 . S
C1397 C1403 1.390 . S
C1398 H1389 0.930 . S
C1398 C1396 1.384 . S
C1398 C1399 1.372 . S
C1399 C1398 1.372 . S
C1399 C1400 1.400 . S
C1399 C1404 1.490 . S
C1400 H1390 0.930 . S
C1400 C1399 1.400 . S
C1400 C1403 1.386 . S
H1401 C1417 0.930 . S
H1402 C1418 0.931 . S
C1403 H1391 0.929 . S
C1403 C1397 1.390 . S
C1403 C1400 1.386 . S
C1404 C1399 1.490 . S
C1404 C1406 1.395 1_545 S
C1404 C1407 1.448 . S
H1405 C1411 0.930 . S
C1406 H1392 0.930 . S
C1406 C1404 1.395 1_565 S
C1406 C1409 1.380 1_554 S
C1407 C1404 1.448 . S
C1407 C1408 1.523 . S
C1407 C1411 1.354 1_554 S
C1408 H1393 0.934 1_554 S
C1408 H1394 0.960 . S
C1408 H1395 0.986 . S
C1408 C1407 1.523 . S
C1409 C1406 1.380 1_556 S
C1409 C1410 1.414 . S
C1409 C1413 1.495 . S
C1410 C1409 1.414 . S
C1410 C1411 1.385 1_565 S
C1410 C1412 1.478 . S
C1411 H1405 0.930 . S
C1411 C1407 1.354 1_556 S
C1411 C1410 1.385 1_545 S
C1412 C1410 1.478 . S
C1412 C1414 1.381 . S
C1412 C1418 1.383 . S
C1413 C1409 1.495 . S
C1413 H1419 0.922 1_556 S
C1413 H1420 0.960 . S
C1413 H1421 0.996 . S
C1414 C1412 1.381 . S
C1414 C1415 1.394 . S
C1414 H1422 0.930 . S
C1415 C1414 1.394 . S
C1415 C1416 1.383 . S
C1415 H1423 0.929 . S
C1416 C1415 1.383 . S
C1416 C1417 1.377 . S
C1417 H1401 0.930 . S
C1417 C1416 1.377 . S
C1417 C1418 1.379 . S
C1418 H1402 0.931 . S
C1418 C1412 1.383 . S
C1418 C1417 1.379 . S
H1419 C1413 0.922 1_554 S
H1420 C1413 0.960 . S
H1421 C1413 0.996 . S
H1422 C1414 0.930 . S
H1423 C1415 0.929 . S
H1424 C1432 0.929 . S
H1425 C1434 0.930 . S
H1426 C1436 0.930 . S
H1427 C1439 0.929 . S
H1428 C1442 0.930 . S
H1429 C1444 0.960 . S
H1430 C1444 0.960 . S
H1431 C1444 0.960 . S
C1432 H1424 0.929 . S
C1432 C1433 1.377 . S
C1432 C1434 1.384 . S
C1433 C1432 1.377 . S
C1433 C1439 1.390 1_545 S
C1434 H1425 0.930 . S
C1434 C1432 1.384 . S
C1434 C1435 1.372 . S
C1435 C1434 1.372 . S
C1435 C1436 1.400 1_545 S
C1435 C1440 1.490 . S
C1436 H1426 0.930 . S
C1436 C1435 1.400 1_565 S
C1436 C1439 1.386 . S
H1437 C1453 0.930 . S
H1438 C1454 0.945 . S
C1439 H1427 0.929 . S
C1439 C1433 1.390 1_565 S
C1439 C1436 1.386 . S
C1440 C1435 1.490 . S
C1440 C1442 1.395 . S
C1440 C1443 1.403 1_545 S
H1441 C1447 0.926 . S
C1442 H1428 0.930 . S
C1442 C1440 1.395 . S
C1442 C1445 1.403 . S
C1443 C1440 1.403 1_565 S
C1443 C1444 1.524 . S
C1443 C1447 1.399 . S
C1444 H1429 0.960 . S
C1444 H1430 0.960 . S
C1444 H1431 0.960 . S
C1444 C1443 1.524 . S
C1445 C1442 1.403 . S
C1445 C1446 1.392 . S
C1445 C1449 1.495 . S
C1446 C1445 1.392 . S
C1446 C1447 1.390 1_545 S
C1446 C1448 1.478 . S
C1447 H1441 0.926 . S
C1447 C1443 1.399 . S
C1447 C1446 1.390 1_565 S
C1448 C1446 1.478 . S
C1448 C1450 1.381 . S
C1448 C1454 1.368 1_545 S
C1449 C1445 1.495 . S
C1449 H1455 0.959 . S
C1449 H1456 0.961 . S
C1449 H1457 0.960 . S
C1450 C1448 1.381 . S
C1450 C1451 1.394 . S
C1450 H1458 0.930 . S
C1451 C1450 1.394 . S
C1451 C1452 1.383 . S
C1451 H1459 0.929 . S
C1452 C1451 1.383 . S
C1452 C1453 1.377 1_545 S
C1453 H1437 0.930 . S
C1453 C1452 1.377 1_565 S
C1453 C1454 1.381 . S
C1454 H1438 0.945 . S
C1454 C1448 1.368 1_565 S
C1454 C1453 1.381 . S
H1455 C1449 0.959 . S
H1456 C1449 0.961 . S
H1457 C1449 0.960 . S
H1458 C1450 0.930 . S
H1459 C1451 0.929 . S
H1460 C1468 0.929 . S
H1461 C1470 0.930 . S
H1462 C1472 0.930 . S
H1463 C1475 0.929 . S
H1464 C1478 0.930 . S
H1465 C1480 0.960 . S
H1466 C1480 0.960 . S
H1467 C1480 0.960 . S
C1468 H1460 0.929 . S
C1468 C1469 1.377 . S
C1468 C1470 1.384 . S
C1469 C1468 1.377 . S
C1469 C1475 1.390 . S
C1470 H1461 0.930 . S
C1470 C1468 1.384 . S
C1470 C1471 1.372 . S
C1471 C1470 1.372 . S
C1471 C1472 1.400 . S
C1471 C1476 1.490 . S
C1472 H1462 0.930 . S
C1472 C1471 1.400 . S
C1472 C1475 1.386 . S
H1473 C1489 0.930 . S
H1474 C1490 0.931 . S
C1475 H1463 0.929 . S
C1475 C1469 1.390 . S
C1475 C1472 1.386 . S
C1476 C1471 1.490 . S
C1476 C1478 1.395 . S
C1476 C1479 1.403 1_565 S
H1477 C1483 0.930 . S
C1478 H1464 0.930 . S
C1478 C1476 1.395 . S
C1478 C1481 1.403 . S
C1479 C1476 1.403 1_545 S
C1479 C1480 1.524 . S
C1479 C1483 1.400 . S
C1480 H1465 0.960 . S
C1480 H1466 0.960 . S
C1480 H1467 0.960 . S
C1480 C1479 1.524 . S
C1481 C1478 1.403 . S
C1481 C1482 1.392 1_565 S
C1481 C1485 1.495 . S
C1482 C1481 1.392 1_545 S
C1482 C1483 1.385 . S
C1482 C1484 1.478 . S
C1483 H1477 0.930 . S
C1483 C1479 1.400 . S
C1483 C1482 1.385 . S
C1484 C1482 1.478 . S
C1484 C1486 1.381 . S
C1484 C1490 1.383 . S
C1485 C1481 1.495 . S
C1485 H1491 0.959 . S
C1485 H1492 0.961 . S
C1485 H1493 0.960 . S
C1486 C1484 1.381 . S
C1486 C1487 1.394 . S
C1486 H1494 0.930 . S
C1487 C1486 1.394 . S
C1487 C1488 1.383 . S
C1487 H1495 0.929 . S
C1488 C1487 1.383 . S
C1488 C1489 1.377 . S
C1489 H1473 0.930 . S
C1489 C1488 1.377 . S
C1489 C1490 1.379 . S
C1490 H1474 0.931 . S
C1490 C1484 1.383 . S
C1490 C1489 1.379 . S
H1491 C1485 0.959 . S
H1492 C1485 0.961 . S
H1493 C1485 0.960 . S
H1494 C1486 0.930 . S
H1495 C1487 0.929 . S
H1496 C1504 0.929 . S
H1497 C1506 0.930 . S
H1498 C1508 0.930 . S
H1499 C1511 0.929 . S
H1500 C1514 0.930 . S
H1501 C1516 0.960 . S
H1502 C1516 0.960 . S
H1503 C1516 0.960 . S
C1504 H1496 0.929 . S
C1504 C1505 1.377 . S
C1504 C1506 1.384 . S
C1505 C1504 1.377 . S
C1505 C1511 1.390 . S
C1506 H1497 0.930 . S
C1506 C1504 1.384 . S
C1506 C1507 1.372 . S
C1507 C1506 1.372 . S
C1507 C1508 1.400 . S
C1507 C1512 1.490 . S
C1508 H1498 0.930 . S
C1508 C1507 1.400 . S
C1508 C1511 1.386 . S
H1509 C1525 0.930 . S
H1510 C1526 0.931 . S
C1511 H1499 0.929 . S
C1511 C1505 1.390 . S
C1511 C1508 1.386 . S
C1512 C1507 1.490 . S
C1512 C1514 1.395 1_565 S
C1512 C1515 1.403 . S
H1513 C1519 0.930 . S
C1514 H1500 0.930 . S
C1514 C1512 1.395 1_545 S
C1514 C1517 1.403 . S
C1515 C1512 1.403 . S
C1515 C1516 1.524 . S
C1515 C1519 1.400 . S
C1516 H1501 0.960 . S
C1516 H1502 0.960 . S
C1516 H1503 0.960 . S
C1516 C1515 1.524 . S
C1517 C1514 1.403 . S
C1517 C1518 1.392 1_545 S
C1517 C1521 1.495 . S
C1518 C1517 1.392 1_565 S
C1518 C1519 1.385 . S
C1518 C1520 1.478 . S
C1519 H1513 0.930 . S
C1519 C1515 1.400 . S
C1519 C1518 1.385 . S
C1520 C1518 1.478 . S
C1520 C1522 1.381 . S
C1520 C1526 1.383 . S
C1521 C1517 1.495 . S
C1521 H1527 0.959 . S
C1521 H1528 0.961 . S
C1521 H1529 0.960 . S
C1522 C1520 1.381 . S
C1522 C1523 1.394 . S
C1522 H1530 0.930 . S
C1523 C1522 1.394 . S
C1523 C1524 1.383 . S
C1523 H1531 0.929 . S
C1524 C1523 1.383 . S
C1524 C1525 1.377 . S
C1525 H1509 0.930 . S
C1525 C1524 1.377 . S
C1525 C1526 1.379 . S
C1526 H1510 0.931 . S
C1526 C1520 1.383 . S
C1526 C1525 1.379 . S
H1527 C1521 0.959 . S
H1528 C1521 0.961 . S
H1529 C1521 0.960 . S
H1530 C1522 0.930 . S
H1531 C1523 0.929 . S
H1532 C1540 0.929 . S
H1533 C1542 0.930 . S
H1534 C1544 0.930 . S
H1535 C1547 0.929 . S
H1536 C1550 0.930 . S
H1537 C1552 1.000 . S
H1538 C1552 0.960 . S
H1539 C1552 0.960 . S
C1540 H1532 0.929 . S
C1540 C1541 1.377 . S
C1540 C1542 1.384 . S
C1541 C1540 1.377 . S
C1541 C1547 1.390 . S
C1542 H1533 0.930 . S
C1542 C1540 1.384 . S
C1542 C1543 1.372 . S
C1543 C1542 1.372 . S
C1543 C1544 1.400 . S
C1543 C1548 1.490 . S
C1544 H1534 0.930 . S
C1544 C1543 1.400 . S
C1544 C1547 1.386 . S
H1545 C1561 0.930 . S
H1546 C1562 0.931 . S
C1547 H1535 0.929 . S
C1547 C1541 1.390 . S
C1547 C1544 1.386 . S
C1548 C1543 1.490 . S
C1548 C1550 1.395 . S
C1548 C1551 1.403 . S
H1549 C1555 0.930 . S
C1550 H1536 0.930 . S
C1550 C1548 1.395 . S
C1550 C1553 1.403 1_544 S
C1551 C1548 1.403 . S
C1551 C1552 1.524 . S
C1551 C1555 1.400 1_544 S
C1552 H1537 1.000 . S
C1552 H1538 0.960 . S
C1552 H1539 0.960 . S
C1552 C1551 1.524 . S
C1553 C1550 1.403 1_566 S
C1553 C1554 1.392 . S
C1553 C1557 1.495 . S
C1554 C1553 1.392 . S
C1554 C1555 1.385 . S
C1554 C1556 1.478 . S
C1555 H1549 0.930 . S
C1555 C1551 1.400 1_566 S
C1555 C1554 1.385 . S
C1556 C1554 1.478 . S
C1556 C1558 1.381 . S
C1556 C1562 1.383 . S
C1557 C1553 1.495 . S
C1557 H1563 0.959 . S
C1557 H1564 0.961 . S
C1557 H1565 0.960 . S
C1558 C1556 1.381 . S
C1558 C1559 1.394 . S
C1558 H1566 0.930 . S
C1559 C1558 1.394 . S
C1559 C1560 1.383 . S
C1559 H1567 0.929 . S
C1560 C1559 1.383 . S
C1560 C1561 1.377 . S
C1561 H1545 0.930 . S
C1561 C1560 1.377 . S
C1561 C1562 1.379 . S
C1562 H1546 0.931 . S
C1562 C1556 1.383 . S
C1562 C1561 1.379 . S
H1563 C1557 0.959 . S
H1564 C1557 0.961 . S
H1565 C1557 0.960 . S
H1566 C1558 0.930 . S
H1567 C1559 0.929 . S
H1568 C1576 0.929 . S
H1569 C1578 0.930 . S
H1570 C1580 0.930 . S
H1571 C1583 0.929 . S
H1572 C1586 0.930 . S
H1573 C1588 0.960 . S
H1574 C1588 0.960 . S
H1575 C1588 0.960 . S
C1576 H1568 0.929 . S
C1576 C1577 1.377 . S
C1576 C1578 1.384 . S
C1577 C1576 1.377 . S
C1577 C1583 1.390 . S
C1578 H1569 0.930 . S
C1578 C1576 1.384 . S
C1578 C1579 1.372 . S
C1579 C1578 1.372 . S
C1579 C1580 1.400 . S
C1579 C1584 1.490 . S
C1580 H1570 0.930 . S
C1580 C1579 1.400 . S
C1580 C1583 1.386 . S
H1581 C1597 0.930 . S
H1582 C1598 0.931 . S
C1583 H1571 0.929 . S
C1583 C1577 1.390 . S
C1583 C1580 1.386 . S
C1584 C1579 1.490 . S
C1584 C1586 1.395 . S
C1584 C1587 1.403 . S
H1585 C1591 0.930 . S
C1586 H1572 0.930 . S
C1586 C1584 1.395 . S
C1586 C1589 1.403 . S
C1587 C1584 1.403 . S
C1587 C1588 1.524 . S
C1587 C1591 1.400 . S
C1588 H1573 0.960 . S
C1588 H1574 0.960 . S
C1588 H1575 0.960 . S
C1588 C1587 1.524 . S
C1589 C1586 1.403 . S
C1589 C1590 1.392 . S
C1589 C1593 1.495 . S
C1590 C1589 1.392 . S
C1590 C1591 1.385 . S
C1590 C1592 1.478 . S
C1591 H1585 0.930 . S
C1591 C1587 1.400 . S
C1591 C1590 1.385 . S
C1592 C1590 1.478 . S
C1592 C1594 1.381 . S
C1592 C1598 1.383 . S
C1593 C1589 1.495 . S
C1593 H1599 0.959 . S
C1593 H1600 0.961 . S
C1593 H1601 0.960 . S
C1594 C1592 1.381 . S
C1594 C1595 1.394 . S
C1594 H1602 0.930 . S
C1595 C1594 1.394 . S
C1595 C1596 1.383 . S
C1595 H1603 0.929 . S
C1596 C1595 1.383 . S
C1596 C1597 1.377 . S
C1597 H1581 0.930 . S
C1597 C1596 1.377 . S
C1597 C1598 1.379 . S
C1598 H1582 0.931 . S
C1598 C1592 1.383 . S
C1598 C1597 1.379 . S
H1599 C1593 0.959 . S
H1600 C1593 0.961 . S
H1601 C1593 0.960 . S
H1602 C1594 0.930 . S
H1603 C1595 0.929 . S
H1604 C1612 0.929 . S
H1605 C1614 0.930 . S
H1606 C1616 0.930 . S
H1607 C1619 0.929 . S
H1608 C1622 0.930 . S
H1609 C1624 0.960 . S
H1610 C1624 0.932 1_556 S
H1611 C1624 0.960 1_556 S
C1612 H1604 0.929 . S
C1612 C1613 1.377 . S
C1612 C1614 1.384 . S
C1613 C1612 1.377 . S
C1613 C1619 1.390 . S
C1614 H1605 0.930 . S
C1614 C1612 1.384 . S
C1614 C1615 1.372 . S
C1615 C1614 1.372 . S
C1615 C1616 1.400 . S
C1615 C1620 1.490 . S
C1616 H1606 0.930 . S
C1616 C1615 1.400 . S
C1616 C1619 1.386 . S
H1617 C1633 0.930 . S
H1618 C1634 0.931 . S
C1619 H1607 0.929 . S
C1619 C1613 1.390 . S
C1619 C1616 1.386 . S
C1620 C1615 1.490 . S
C1620 C1622 1.395 . S
C1620 C1623 1.388 1_556 S
H1621 C1627 0.930 . S
C1622 H1608 0.930 . S
C1622 C1620 1.395 . S
C1622 C1625 1.523 . S
C1623 C1620 1.388 1_554 S
C1623 C1624 1.526 . S
C1623 C1627 1.413 . S
C1624 H1609 0.960 . S
C1624 H1610 0.932 1_554 S
C1624 H1611 0.960 1_554 S
C1624 C1623 1.526 . S
C1625 C1622 1.523 . S
C1625 C1626 1.265 1_556 S
C1625 C1629 1.517 . S
C1626 C1625 1.265 1_554 S
C1626 C1627 1.385 . S
C1626 C1628 1.478 . S
C1627 H1621 0.930 . S
C1627 C1623 1.413 . S
C1627 C1626 1.385 . S
C1628 C1626 1.478 . S
C1628 C1630 1.381 . S
C1628 C1634 1.383 . S
C1629 C1625 1.517 . S
C1629 H1635 0.959 . S
C1629 H1636 0.959 1_556 S
C1629 H1637 0.895 1_556 S
C1630 C1628 1.381 . S
C1630 C1631 1.394 . S
C1630 H1638 0.930 . S
C1631 C1630 1.394 . S
C1631 C1632 1.383 . S
C1631 H1639 0.929 . S
C1632 C1631 1.383 . S
C1632 C1633 1.377 . S
C1633 H1617 0.930 . S
C1633 C1632 1.377 . S
C1633 C1634 1.379 . S
C1634 H1618 0.931 . S
C1634 C1628 1.383 . S
C1634 C1633 1.379 . S
H1635 C1629 0.959 . S
H1636 C1629 0.959 1_554 S
H1637 C1629 0.895 1_554 S
H1638 C1630 0.930 . S
H1639 C1631 0.929 . S
H1640 C1648 0.929 . S
H1641 C1650 0.930 . S
H1642 C1652 0.930 . S
H1643 C1655 0.929 . S
H1644 C1658 0.930 . S
H1645 C1660 0.960 . S
H1646 C1660 0.960 . S
H1647 C1660 0.960 . S
C1648 H1640 0.929 . S
C1648 C1649 1.377 . S
C1648 C1650 1.384 . S
C1649 C1648 1.377 . S
C1649 C1655 1.390 . S
C1650 H1641 0.930 . S
C1650 C1648 1.384 . S
C1650 C1651 1.372 . S
C1651 C1650 1.372 . S
C1651 C1652 1.400 . S
C1651 C1656 1.490 . S
C1652 H1642 0.930 . S
C1652 C1651 1.400 . S
C1652 C1655 1.386 . S
H1653 C1669 0.930 . S
H1654 C1670 0.931 . S
C1655 H1643 0.929 . S
C1655 C1649 1.390 . S
C1655 C1652 1.386 . S
C1656 C1651 1.490 . S
C1656 C1658 1.395 . S
C1656 C1659 1.403 . S
H1657 C1663 0.930 . S
C1658 H1644 0.930 . S
C1658 C1656 1.395 . S
C1658 C1661 1.403 . S
C1659 C1656 1.403 . S
C1659 C1660 1.524 . S
C1659 C1663 1.400 . S
C1660 H1645 0.960 . S
C1660 H1646 0.960 . S
C1660 H1647 0.960 . S
C1660 C1659 1.524 . S
C1661 C1658 1.403 . S
C1661 C1662 1.392 . S
C1661 C1665 1.495 . S
C1662 C1661 1.392 . S
C1662 C1663 1.385 . S
C1662 C1664 1.478 . S
C1663 H1657 0.930 . S
C1663 C1659 1.400 . S
C1663 C1662 1.385 . S
C1664 C1662 1.478 . S
C1664 C1666 1.381 . S
C1664 C1670 1.383 . S
C1665 C1661 1.495 . S
C1665 H1671 0.959 . S
C1665 H1672 0.961 . S
C1665 H1673 0.960 . S
C1666 C1664 1.381 . S
C1666 C1667 1.394 . S
C1666 H1674 0.930 . S
C1667 C1666 1.394 . S
C1667 C1668 1.383 . S
C1667 H1675 0.929 . S
C1668 C1667 1.383 . S
C1668 C1669 1.377 . S
C1669 H1653 0.930 . S
C1669 C1668 1.377 . S
C1669 C1670 1.379 . S
C1670 H1654 0.931 . S
C1670 C1664 1.383 . S
C1670 C1669 1.379 . S
H1671 C1665 0.959 . S
H1672 C1665 0.961 . S
H1673 C1665 0.960 . S
H1674 C1666 0.930 . S
H1675 C1667 0.929 . S
H1676 C1684 0.929 . S
H1677 C1686 0.930 . S
H1678 C1688 0.930 . S
H1679 C1691 0.929 . S
H1680 C1694 0.930 . S
H1681 C1696 0.960 . S
H1682 C1696 0.960 . S
H1683 C1696 0.960 . S
C1684 H1676 0.929 . S
C1684 C1685 1.377 . S
C1684 C1686 1.384 . S
C1685 C1684 1.377 . S
C1685 C1691 1.390 . S
C1686 H1677 0.930 . S
C1686 C1684 1.384 . S
C1686 C1687 1.372 . S
C1687 C1686 1.372 . S
C1687 C1688 1.400 . S
C1687 C1692 1.490 . S
C1688 H1678 0.930 . S
C1688 C1687 1.400 . S
C1688 C1691 1.386 . S
H1689 C1705 0.930 . S
H1690 C1706 0.931 . S
C1691 H1679 0.929 . S
C1691 C1685 1.390 . S
C1691 C1688 1.386 . S
C1692 C1687 1.490 . S
C1692 C1694 1.395 . S
C1692 C1695 1.403 . S
H1693 C1699 0.930 . S
C1694 H1680 0.930 . S
C1694 C1692 1.395 . S
C1694 C1697 1.403 . S
C1695 C1692 1.403 . S
C1695 C1696 1.524 . S
C1695 C1699 1.400 . S
C1696 H1681 0.960 . S
C1696 H1682 0.960 . S
C1696 H1683 0.960 . S
C1696 C1695 1.524 . S
C1697 C1694 1.403 . S
C1697 C1698 1.392 . S
C1697 C1701 1.495 . S
C1698 C1697 1.392 . S
C1698 C1699 1.385 . S
C1698 C1700 1.478 . S
C1699 H1693 0.930 . S
C1699 C1695 1.400 . S
C1699 C1698 1.385 . S
C1700 C1698 1.478 . S
C1700 C1702 1.381 . S
C1700 C1706 1.383 . S
C1701 C1697 1.495 . S
C1701 H1707 0.959 . S
C1701 H1708 0.961 . S
C1701 H1709 0.960 . S
C1702 C1700 1.381 . S
C1702 C1703 1.394 . S
C1702 H1710 0.930 . S
C1703 C1702 1.394 . S
C1703 C1704 1.383 . S
C1703 H1711 0.929 . S
C1704 C1703 1.383 . S
C1704 C1705 1.377 . S
C1705 H1689 0.930 . S
C1705 C1704 1.377 . S
C1705 C1706 1.379 . S
C1706 H1690 0.931 . S
C1706 C1700 1.383 . S
C1706 C1705 1.379 . S
H1707 C1701 0.959 . S
H1708 C1701 0.961 . S
H1709 C1701 0.960 . S
H1710 C1702 0.930 . S
H1711 C1703 0.929 . S
H1712 C1720 0.929 . S
H1713 C1722 0.930 . S
H1714 C1724 0.930 . S
H1715 C1727 0.929 . S
H1716 C1730 0.930 . S
H1717 C1732 0.960 . S
H1718 C1732 0.960 . S
H1719 C1732 0.960 . S
C1720 H1712 0.929 . S
C1720 C1721 1.377 . S
C1720 C1722 1.384 . S
C1721 C1720 1.377 . S
C1721 C1727 1.390 . S
C1722 H1713 0.930 . S
C1722 C1720 1.384 . S
C1722 C1723 1.372 . S
C1723 C1722 1.372 . S
C1723 C1724 1.400 . S
C1723 C1728 1.490 . S
C1724 H1714 0.930 . S
C1724 C1723 1.400 . S
C1724 C1727 1.386 . S
H1725 C1741 0.930 . S
H1726 C1742 0.931 . S
C1727 H1715 0.929 . S
C1727 C1721 1.390 . S
C1727 C1724 1.386 . S
C1728 C1723 1.490 . S
C1728 C1730 1.395 . S
C1728 C1731 1.403 . S
H1729 C1735 0.930 . S
C1730 H1716 0.930 . S
C1730 C1728 1.395 . S
C1730 C1733 1.403 . S
C1731 C1728 1.403 . S
C1731 C1732 1.524 . S
C1731 C1735 1.400 . S
C1732 H1717 0.960 . S
C1732 H1718 0.960 . S
C1732 H1719 0.960 . S
C1732 C1731 1.524 . S
C1733 C1730 1.403 . S
C1733 C1734 1.392 . S
C1733 C1737 1.495 . S
C1734 C1733 1.392 . S
C1734 C1735 1.385 . S
C1734 C1736 1.478 . S
C1735 H1729 0.930 . S
C1735 C1731 1.400 . S
C1735 C1734 1.385 . S
C1736 C1734 1.478 . S
C1736 C1738 1.381 . S
C1736 C1742 1.383 . S
C1737 C1733 1.495 . S
C1737 H1743 0.959 . S
C1737 H1744 0.961 . S
C1737 H1745 0.960 . S
C1738 C1736 1.381 . S
C1738 C1739 1.394 . S
C1738 H1746 0.930 . S
C1739 C1738 1.394 . S
C1739 C1740 1.383 . S
C1739 H1747 0.929 . S
C1740 C1739 1.383 . S
C1740 C1741 1.377 . S
C1741 H1725 0.930 . S
C1741 C1740 1.377 . S
C1741 C1742 1.379 . S
C1742 H1726 0.931 . S
C1742 C1736 1.383 . S
C1742 C1741 1.379 . S
H1743 C1737 0.959 . S
H1744 C1737 0.961 . S
H1745 C1737 0.960 . S
H1746 C1738 0.930 . S
H1747 C1739 0.929 . S
H1748 C1756 0.929 . S
H1749 C1758 0.930 . S
H1750 C1760 0.930 . S
H1751 C1763 0.929 . S
H1752 C1766 0.930 . S
H1753 C1768 0.960 . S
H1754 C1768 0.960 1_556 S
H1755 C1768 0.960 1_556 S
C1756 H1748 0.929 . S
C1756 C1757 1.377 . S
C1756 C1758 1.384 . S
C1757 C1756 1.377 . S
C1757 C1763 1.390 . S
C1758 H1749 0.930 . S
C1758 C1756 1.384 . S
C1758 C1759 1.372 . S
C1759 C1758 1.372 . S
C1759 C1760 1.400 . S
C1759 C1764 1.490 . S
C1760 H1750 0.930 . S
C1760 C1759 1.400 . S
C1760 C1763 1.386 . S
H1761 C1777 0.930 . S
H1762 C1778 0.931 . S
C1763 H1751 0.929 . S
C1763 C1757 1.390 . S
C1763 C1760 1.386 . S
C1764 C1759 1.490 . S
C1764 C1766 1.395 . S
C1764 C1767 1.392 1_556 S
H1765 C1771 0.930 . S
C1766 H1752 0.930 . S
C1766 C1764 1.395 . S
C1766 C1769 1.532 . S
C1767 C1764 1.392 1_554 S
C1767 C1768 1.525 . S
C1767 C1771 1.409 . S
C1768 H1753 0.960 . S
C1768 H1754 0.960 1_554 S
C1768 H1755 0.960 1_554 S
C1768 C1767 1.525 . S
C1769 C1766 1.532 . S
C1769 C1770 1.256 1_556 S
C1769 C1773 1.519 . S
C1770 C1769 1.256 1_554 S
C1770 C1771 1.385 . S
C1770 C1772 1.478 . S
C1771 H1765 0.930 . S
C1771 C1767 1.409 . S
C1771 C1770 1.385 . S
C1772 C1770 1.478 . S
C1772 C1774 1.381 . S
C1772 C1778 1.383 . S
C1773 C1769 1.519 . S
C1773 H1779 0.959 . S
C1773 H1780 0.930 1_556 S
C1773 H1781 0.938 1_556 S
C1774 C1772 1.381 . S
C1774 C1775 1.394 . S
C1774 H1782 0.930 . S
C1775 C1774 1.394 . S
C1775 C1776 1.383 . S
C1775 H1783 0.929 . S
C1776 C1775 1.383 . S
C1776 C1777 1.377 . S
C1777 H1761 0.930 . S
C1777 C1776 1.377 . S
C1777 C1778 1.379 . S
C1778 H1762 0.931 . S
C1778 C1772 1.383 . S
C1778 C1777 1.379 . S
H1779 C1773 0.959 . S
H1780 C1773 0.930 1_554 S
H1781 C1773 0.938 1_554 S
H1782 C1774 0.930 . S
H1783 C1775 0.929 . S
H1784 C1792 0.929 . S
H1785 C1794 0.930 . S
H1786 C1796 0.930 . S
H1787 C1799 0.929 . S
H1788 C1802 0.930 . S
H1789 C1804 0.960 . S
H1790 C1804 0.960 . S
H1791 C1804 0.960 . S
C1792 H1784 0.929 . S
C1792 C1793 1.377 . S
C1792 C1794 1.384 . S
C1793 C1792 1.377 . S
C1793 C1799 1.390 . S
C1794 H1785 0.930 . S
C1794 C1792 1.384 . S
C1794 C1795 1.372 . S
C1795 C1794 1.372 . S
C1795 C1796 1.400 . S
C1795 C1800 1.490 . S
C1796 H1786 0.930 . S
C1796 C1795 1.400 . S
C1796 C1799 1.386 . S
H1797 C1813 0.930 . S
H1798 C1814 0.931 . S
C1799 H1787 0.929 . S
C1799 C1793 1.390 . S
C1799 C1796 1.386 . S
C1800 C1795 1.490 . S
C1800 C1802 1.395 . S
C1800 C1803 1.403 . S
H1801 C1807 0.930 . S
C1802 H1788 0.930 . S
C1802 C1800 1.395 . S
C1802 C1805 1.403 . S
C1803 C1800 1.403 . S
C1803 C1804 1.524 . S
C1803 C1807 1.400 . S
C1804 H1789 0.960 . S
C1804 H1790 0.960 . S
C1804 H1791 0.960 . S
C1804 C1803 1.524 . S
C1805 C1802 1.403 . S
C1805 C1806 1.392 . S
C1805 C1809 1.495 . S
C1806 C1805 1.392 . S
C1806 C1807 1.385 . S
C1806 C1808 1.478 . S
C1807 H1801 0.930 . S
C1807 C1803 1.400 . S
C1807 C1806 1.385 . S
C1808 C1806 1.478 . S
C1808 C1810 1.381 . S
C1808 C1814 1.383 . S
C1809 C1805 1.495 . S
C1809 H1815 0.959 . S
C1809 H1816 0.961 . S
C1809 H1817 0.960 . S
C1810 C1808 1.381 . S
C1810 C1811 1.394 . S
C1810 H1818 0.930 . S
C1811 C1810 1.394 . S
C1811 C1812 1.383 . S
C1811 H1819 0.929 . S
C1812 C1811 1.383 . S
C1812 C1813 1.377 . S
C1813 H1797 0.930 . S
C1813 C1812 1.377 . S
C1813 C1814 1.379 . S
C1814 H1798 0.931 . S
C1814 C1808 1.383 . S
C1814 C1813 1.379 . S
H1815 C1809 0.959 . S
H1816 C1809 0.961 . S
H1817 C1809 0.960 . S
H1818 C1810 0.930 . S
H1819 C1811 0.929 . S
H1820 C1828 0.929 . S
H1821 C1830 0.930 . S
H1822 C1832 0.930 . S
H1823 C1835 0.929 . S
H1824 C1838 0.930 . S
H1825 C1840 0.960 . S
H1826 C1840 0.960 . S
H1827 C1840 0.960 . S
C1828 H1820 0.929 . S
C1828 C1829 1.377 . S
C1828 C1830 1.384 . S
C1829 C1828 1.377 . S
C1829 C1835 1.390 . S
C1830 H1821 0.930 . S
C1830 C1828 1.384 . S
C1830 C1831 1.372 . S
C1831 C1830 1.372 . S
C1831 C1832 1.400 . S
C1831 C1836 1.490 . S
C1832 H1822 0.930 . S
C1832 C1831 1.400 . S
C1832 C1835 1.386 . S
H1833 C1849 0.930 . S
H1834 C1850 0.931 . S
C1835 H1823 0.929 . S
C1835 C1829 1.390 . S
C1835 C1832 1.386 . S
C1836 C1831 1.490 . S
C1836 C1838 1.395 . S
C1836 C1839 1.403 . S
H1837 C1843 0.930 . S
C1838 H1824 0.930 . S
C1838 C1836 1.395 . S
C1838 C1841 1.403 . S
C1839 C1836 1.403 . S
C1839 C1840 1.524 . S
C1839 C1843 1.400 . S
C1840 H1825 0.960 . S
C1840 H1826 0.960 . S
C1840 H1827 0.960 . S
C1840 C1839 1.524 . S
C1841 C1838 1.403 . S
C1841 C1842 1.392 . S
C1841 C1845 1.495 . S
C1842 C1841 1.392 . S
C1842 C1843 1.385 . S
C1842 C1844 1.478 . S
C1843 H1837 0.930 . S
C1843 C1839 1.400 . S
C1843 C1842 1.385 . S
C1844 C1842 1.478 . S
C1844 C1846 1.381 . S
C1844 C1850 1.383 . S
C1845 C1841 1.495 . S
C1845 H1851 0.959 . S
C1845 H1852 0.961 . S
C1845 H1853 0.960 . S
C1846 C1844 1.381 . S
C1846 C1847 1.394 . S
C1846 H1854 0.930 . S
C1847 C1846 1.394 . S
C1847 C1848 1.383 . S
C1847 H1855 0.929 . S
C1848 C1847 1.383 . S
C1848 C1849 1.377 . S
C1849 H1833 0.930 . S
C1849 C1848 1.377 . S
C1849 C1850 1.379 . S
C1850 H1834 0.931 . S
C1850 C1844 1.383 . S
C1850 C1849 1.379 . S
H1851 C1845 0.959 . S
H1852 C1845 0.961 . S
H1853 C1845 0.960 . S
H1854 C1846 0.930 . S
H1855 C1847 0.929 . S
H1856 C1864 0.929 . S
H1857 C1866 0.930 . S
H1858 C1868 0.930 . S
H1859 C1871 0.929 . S
H1860 C1874 0.930 . S
H1861 C1876 0.960 . S
H1862 C1876 0.960 . S
H1863 C1876 0.960 . S
C1864 H1856 0.929 . S
C1864 C1865 1.377 . S
C1864 C1866 1.384 . S
C1865 C1864 1.377 . S
C1865 C1871 1.390 . S
C1866 H1857 0.930 . S
C1866 C1864 1.384 . S
C1866 C1867 1.372 . S
C1867 C1866 1.372 . S
C1867 C1868 1.400 . S
C1867 C1872 1.490 . S
C1868 H1858 0.930 . S
C1868 C1867 1.400 . S
C1868 C1871 1.386 . S
H1869 C1885 0.930 . S
H1870 C1886 0.931 . S
C1871 H1859 0.929 . S
C1871 C1865 1.390 . S
C1871 C1868 1.386 . S
C1872 C1867 1.490 . S
C1872 C1874 1.395 . S
C1872 C1875 1.403 . S
H1873 C1879 0.930 . S
C1874 H1860 0.930 . S
C1874 C1872 1.395 . S
C1874 C1877 1.403 . S
C1875 C1872 1.403 . S
C1875 C1876 1.524 . S
C1875 C1879 1.400 . S
C1876 H1861 0.960 . S
C1876 H1862 0.960 . S
C1876 H1863 0.960 . S
C1876 C1875 1.524 . S
C1877 C1874 1.403 . S
C1877 C1878 1.392 . S
C1877 C1881 1.495 . S
C1878 C1877 1.392 . S
C1878 C1879 1.385 . S
C1878 C1880 1.478 . S
C1879 H1873 0.930 . S
C1879 C1875 1.400 . S
C1879 C1878 1.385 . S
C1880 C1878 1.478 . S
C1880 C1882 1.381 . S
C1880 C1886 1.383 . S
C1881 C1877 1.495 . S
C1881 H1887 0.959 . S
C1881 H1888 0.961 . S
C1881 H1889 0.960 . S
C1882 C1880 1.381 . S
C1882 C1883 1.394 . S
C1882 H1890 0.930 . S
C1883 C1882 1.394 . S
C1883 C1884 1.383 . S
C1883 H1891 0.882 1_545 S
C1884 C1883 1.383 . S
C1884 C1885 1.377 . S
C1885 H1869 0.930 . S
C1885 C1884 1.377 . S
C1885 C1886 1.379 . S
C1886 H1870 0.931 . S
C1886 C1880 1.383 . S
C1886 C1885 1.379 . S
H1887 C1881 0.959 . S
H1888 C1881 0.961 . S
H1889 C1881 0.960 . S
H1890 C1882 0.930 . S
H1891 C1883 0.882 1_565 S
H1892 C1900 0.929 . S
H1893 C1902 0.930 . S
H1894 C1904 0.930 . S
H1895 C1907 0.929 . S
H1896 C1910 0.930 . S
H1897 C1912 0.960 . S
H1898 C1912 0.960 . S
H1899 C1912 0.960 . S
C1900 H1892 0.929 . S
C1900 C1901 1.377 . S
C1900 C1902 1.384 . S
C1901 C1900 1.377 . S
C1901 C1907 1.390 . S
C1902 H1893 0.930 . S
C1902 C1900 1.384 . S
C1902 C1903 1.372 . S
C1903 C1902 1.372 . S
C1903 C1904 1.400 . S
C1903 C1908 1.490 . S
C1904 H1894 0.930 . S
C1904 C1903 1.400 . S
C1904 C1907 1.386 . S
H1905 C1921 0.930 . S
H1906 C1922 0.931 . S
C1907 H1895 0.929 . S
C1907 C1901 1.390 . S
C1907 C1904 1.386 . S
C1908 C1903 1.490 . S
C1908 C1910 1.395 . S
C1908 C1911 1.403 . S
H1909 C1915 0.930 . S
C1910 H1896 0.930 . S
C1910 C1908 1.395 . S
C1910 C1913 1.403 . S
C1911 C1908 1.403 . S
C1911 C1912 1.524 . S
C1911 C1915 1.400 . S
C1912 H1897 0.960 . S
C1912 H1898 0.960 . S
C1912 H1899 0.960 . S
C1912 C1911 1.524 . S
C1913 C1910 1.403 . S
C1913 C1914 1.392 . S
C1913 C1917 1.495 . S
C1914 C1913 1.392 . S
C1914 C1915 1.385 . S
C1914 C1916 1.478 . S
C1915 H1909 0.930 . S
C1915 C1911 1.400 . S
C1915 C1914 1.385 . S
C1916 C1914 1.478 . S
C1916 C1918 1.381 . S
C1916 C1922 1.383 . S
C1917 C1913 1.495 . S
C1917 H1923 0.959 . S
C1917 H1924 0.961 . S
C1917 H1925 0.960 . S
C1918 C1916 1.381 . S
C1918 C1919 1.394 . S
C1918 H1926 0.930 . S
C1919 C1918 1.394 . S
C1919 C1920 1.383 . S
C1919 H1927 0.929 . S
C1920 C1919 1.383 . S
C1920 C1921 1.377 . S
C1921 H1905 0.930 . S
C1921 C1920 1.377 . S
C1921 C1922 1.379 . S
C1922 H1906 0.931 . S
C1922 C1916 1.383 . S
C1922 C1921 1.379 . S
H1923 C1917 0.959 . S
H1924 C1917 0.961 . S
H1925 C1917 0.960 . S
H1926 C1918 0.930 . S
H1927 C1919 0.929 . S
H1928 C1936 0.929 . S
H1929 C1938 0.930 . S
H1930 C1940 0.930 . S
H1931 C1943 0.929 . S
H1932 C1946 0.930 . S
H1933 C1948 0.960 . S
H1934 C1948 0.960 . S
H1935 C1948 0.960 . S
C1936 H1928 0.929 . S
C1936 C1937 1.377 . S
C1936 C1938 1.384 . S
C1937 C1936 1.377 . S
C1937 C1943 1.390 . S
C1938 H1929 0.930 . S
C1938 C1936 1.384 . S
C1938 C1939 1.372 . S
C1939 C1938 1.372 . S
C1939 C1940 1.400 . S
C1939 C1944 1.490 . S
C1940 H1930 0.930 . S
C1940 C1939 1.400 . S
C1940 C1943 1.386 . S
H1941 C1957 0.930 . S
H1942 C1958 0.931 . S
C1943 H1931 0.929 . S
C1943 C1937 1.390 . S
C1943 C1940 1.386 . S
C1944 C1939 1.490 . S
C1944 C1946 1.395 . S
C1944 C1947 1.403 . S
H1945 C1951 0.930 . S
C1946 H1932 0.930 . S
C1946 C1944 1.395 . S
C1946 C1949 1.403 . S
C1947 C1944 1.403 . S
C1947 C1948 1.524 . S
C1947 C1951 1.400 . S
C1948 H1933 0.960 . S
C1948 H1934 0.960 . S
C1948 H1935 0.960 . S
C1948 C1947 1.524 . S
C1949 C1946 1.403 . S
C1949 C1950 1.392 . S
C1949 C1953 1.495 . S
C1950 C1949 1.392 . S
C1950 C1951 1.385 . S
C1950 C1952 1.478 . S
C1951 H1945 0.930 . S
C1951 C1947 1.400 . S
C1951 C1950 1.385 . S
C1952 C1950 1.478 . S
C1952 C1954 1.381 . S
C1952 C1958 1.383 . S
C1953 C1949 1.495 . S
C1953 H1959 0.959 . S
C1953 H1960 0.961 . S
C1953 H1961 0.960 . S
C1954 C1952 1.381 . S
C1954 C1955 1.394 . S
C1954 H1962 0.930 . S
C1955 C1954 1.394 . S
C1955 C1956 1.383 . S
C1955 H1963 0.929 . S
C1956 C1955 1.383 . S
C1956 C1957 1.377 . S
C1957 H1941 0.930 . S
C1957 C1956 1.377 . S
C1957 C1958 1.379 . S
C1958 H1942 0.931 . S
C1958 C1952 1.383 . S
C1958 C1957 1.379 . S
H1959 C1953 0.959 . S
H1960 C1953 0.961 . S
H1961 C1953 0.960 . S
H1962 C1954 0.930 . S
H1963 C1955 0.929 . S
H1964 C1972 0.929 . S
H1965 C1974 0.930 . S
H1966 C1976 0.930 . S
H1967 C1979 0.929 . S
H1968 C1982 0.930 . S
H1969 C1984 0.960 . S
H1970 C1984 0.960 . S
H1971 C1984 0.960 . S
C1972 H1964 0.929 . S
C1972 C1973 1.377 . S
C1972 C1974 1.384 . S
C1973 C1972 1.377 . S
C1973 C1979 1.390 . S
C1974 H1965 0.930 . S
C1974 C1972 1.384 . S
C1974 C1975 1.372 . S
C1975 C1974 1.372 . S
C1975 C1976 1.400 . S
C1975 C1980 1.490 . S
C1976 H1966 0.930 . S
C1976 C1975 1.400 . S
C1976 C1979 1.386 . S
H1977 C1993 0.930 . S
H1978 C1994 0.931 . S
C1979 H1967 0.929 . S
C1979 C1973 1.390 . S
C1979 C1976 1.386 . S
C1980 C1975 1.490 . S
C1980 C1982 1.395 . S
C1980 C1983 1.403 . S
H1981 C1987 0.930 . S
C1982 H1968 0.930 . S
C1982 C1980 1.395 . S
C1982 C1985 1.403 . S
C1983 C1980 1.403 . S
C1983 C1984 1.524 . S
C1983 C1987 1.400 . S
C1984 H1969 0.960 . S
C1984 H1970 0.960 . S
C1984 H1971 0.960 . S
C1984 C1983 1.524 . S
C1985 C1982 1.403 . S
C1985 C1986 1.392 . S
C1985 C1989 1.495 . S
C1986 C1985 1.392 . S
C1986 C1987 1.385 . S
C1986 C1988 1.478 . S
C1987 H1981 0.930 . S
C1987 C1983 1.400 . S
C1987 C1986 1.385 . S
C1988 C1986 1.478 . S
C1988 C1990 1.381 . S
C1988 C1994 1.383 . S
C1989 C1985 1.495 . S
C1989 H1995 0.959 . S
C1989 H1996 0.961 . S
C1989 H1997 0.960 . S
C1990 C1988 1.381 . S
C1990 C1991 1.394 . S
C1990 H1998 0.930 . S
C1991 C1990 1.394 . S
C1991 C1992 1.383 . S
C1991 H1999 0.929 . S
C1992 C1991 1.383 . S
C1992 C1993 1.377 . S
C1993 H1977 0.930 . S
C1993 C1992 1.377 . S
C1993 C1994 1.379 . S
C1994 H1978 0.931 . S
C1994 C1988 1.383 . S
C1994 C1993 1.379 . S
H1995 C1989 0.959 . S
H1996 C1989 0.961 . S
H1997 C1989 0.960 . S
H1998 C1990 0.930 . S
H1999 C1991 0.929 . S
H2000 C2008 0.929 . S
H2001 C2010 0.930 . S
H2002 C2012 0.930 . S
H2003 C2015 0.929 . S
H2004 C2018 0.930 . S
H2005 C2020 0.960 . S
H2006 C2020 0.960 . S
H2007 C2020 0.960 . S
C2008 H2000 0.929 . S
C2008 C2009 1.377 . S
C2008 C2010 1.384 . S
C2009 C2008 1.377 . S
C2009 C2015 1.390 . S
C2010 H2001 0.930 . S
C2010 C2008 1.384 . S
C2010 C2011 1.372 . S
C2011 C2010 1.372 . S
C2011 C2012 1.400 . S
C2011 C2016 1.490 . S
C2012 H2002 0.930 . S
C2012 C2011 1.400 . S
C2012 C2015 1.386 . S
H2013 C2029 0.930 . S
H2014 C2030 0.931 . S
C2015 H2003 0.929 . S
C2015 C2009 1.390 . S
C2015 C2012 1.386 . S
C2016 C2011 1.490 . S
C2016 C2018 1.395 . S
C2016 C2019 1.403 . S
H2017 C2023 0.930 . S
C2018 H2004 0.930 . S
C2018 C2016 1.395 . S
C2018 C2021 1.403 . S
C2019 C2016 1.403 . S
C2019 C2020 1.524 . S
C2019 C2023 1.400 . S
C2020 H2005 0.960 . S
C2020 H2006 0.960 . S
C2020 H2007 0.960 . S
C2020 C2019 1.524 . S
C2021 C2018 1.403 . S
C2021 C2022 1.392 . S
C2021 C2025 1.495 . S
C2022 C2021 1.392 . S
C2022 C2023 1.385 . S
C2022 C2024 1.478 . S
C2023 H2017 0.930 . S
C2023 C2019 1.400 . S
C2023 C2022 1.385 . S
C2024 C2022 1.478 . S
C2024 C2026 1.381 . S
C2024 C2030 1.383 . S
C2025 C2021 1.495 . S
C2025 H2031 0.959 . S
C2025 H2032 0.961 . S
C2025 H2033 0.960 . S
C2026 C2024 1.381 . S
C2026 C2027 1.394 . S
C2026 H2034 0.930 . S
C2027 C2026 1.394 . S
C2027 C2028 1.383 . S
C2027 H2035 0.929 . S
C2028 C2027 1.383 . S
C2028 C2029 1.377 . S
C2029 H2013 0.930 . S
C2029 C2028 1.377 . S
C2029 C2030 1.379 . S
C2030 H2014 0.931 . S
C2030 C2024 1.383 . S
C2030 C2029 1.379 . S
H2031 C2025 0.959 . S
H2032 C2025 0.961 . S
H2033 C2025 0.960 . S
H2034 C2026 0.930 . S
H2035 C2027 0.929 . S
H2036 C2044 0.929 . S
H2037 C2046 0.930 . S
H2038 C2048 0.930 . S
H2039 C2051 0.929 . S
H2040 C2054 0.930 . S
H2041 C2056 0.960 . S
H2042 C2056 0.960 . S
H2043 C2056 0.960 . S
C2044 H2036 0.929 . S
C2044 C2045 1.377 . S
C2044 C2046 1.384 . S
C2045 C2044 1.377 . S
C2045 C2051 1.390 . S
C2046 H2037 0.930 . S
C2046 C2044 1.384 . S
C2046 C2047 1.372 . S
C2047 C2046 1.372 . S
C2047 C2048 1.400 . S
C2047 C2052 1.490 . S
C2048 H2038 0.930 . S
C2048 C2047 1.400 . S
C2048 C2051 1.386 . S
H2049 C2065 0.930 . S
H2050 C2066 0.931 . S
C2051 H2039 0.929 . S
C2051 C2045 1.390 . S
C2051 C2048 1.386 . S
C2052 C2047 1.490 . S
C2052 C2054 1.395 . S
C2052 C2055 1.403 . S
H2053 C2059 0.930 . S
C2054 H2040 0.930 . S
C2054 C2052 1.395 . S
C2054 C2057 1.403 . S
C2055 C2052 1.403 . S
C2055 C2056 1.524 . S
C2055 C2059 1.400 . S
C2056 H2041 0.960 . S
C2056 H2042 0.960 . S
C2056 H2043 0.960 . S
C2056 C2055 1.524 . S
C2057 C2054 1.403 . S
C2057 C2058 1.392 . S
C2057 C2061 1.495 . S
C2058 C2057 1.392 . S
C2058 C2059 1.385 . S
C2058 C2060 1.478 . S
C2059 H2053 0.930 . S
C2059 C2055 1.400 . S
C2059 C2058 1.385 . S
C2060 C2058 1.478 . S
C2060 C2062 1.381 . S
C2060 C2066 1.383 . S
C2061 C2057 1.495 . S
C2061 H2067 0.959 . S
C2061 H2068 0.961 . S
C2061 H2069 0.960 . S
C2062 C2060 1.381 . S
C2062 C2063 1.394 . S
C2062 H2070 0.930 . S
C2063 C2062 1.394 . S
C2063 C2064 1.383 . S
C2063 H2071 0.929 . S
C2064 C2063 1.383 . S
C2064 C2065 1.377 . S
C2065 H2049 0.930 . S
C2065 C2064 1.377 . S
C2065 C2066 1.379 . S
C2066 H2050 0.931 . S
C2066 C2060 1.383 . S
C2066 C2065 1.379 . S
H2067 C2061 0.959 . S
H2068 C2061 0.961 . S
H2069 C2061 0.960 . S
H2070 C2062 0.930 . S
H2071 C2063 0.929 . S
H2072 C2080 0.929 . S
H2073 C2082 0.930 . S
H2074 C2084 0.930 . S
H2075 C2087 0.929 . S
H2076 C2090 0.930 . S
H2077 C2092 0.960 . S
H2078 C2092 0.960 . S
H2079 C2092 0.960 . S
C2080 H2072 0.929 . S
C2080 C2081 1.377 . S
C2080 C2082 1.384 . S
C2081 C2080 1.377 . S
C2081 C2087 1.390 . S
C2082 H2073 0.930 . S
C2082 C2080 1.384 . S
C2082 C2083 1.372 . S
C2083 C2082 1.372 . S
C2083 C2084 1.400 . S
C2083 C2088 1.490 . S
C2084 H2074 0.930 . S
C2084 C2083 1.400 . S
C2084 C2087 1.386 . S
H2085 C2101 0.930 . S
H2086 C2102 0.931 . S
C2087 H2075 0.929 . S
C2087 C2081 1.390 . S
C2087 C2084 1.386 . S
C2088 C2083 1.490 . S
C2088 C2090 1.395 . S
C2088 C2091 1.403 . S
H2089 C2095 0.930 . S
C2090 H2076 0.930 . S
C2090 C2088 1.395 . S
C2090 C2093 1.403 . S
C2091 C2088 1.403 . S
C2091 C2092 1.524 . S
C2091 C2095 1.400 . S
C2092 H2077 0.960 . S
C2092 H2078 0.960 . S
C2092 H2079 0.960 . S
C2092 C2091 1.524 . S
C2093 C2090 1.403 . S
C2093 C2094 1.392 . S
C2093 C2097 1.495 . S
C2094 C2093 1.392 . S
C2094 C2095 1.385 . S
C2094 C2096 1.478 . S
C2095 H2089 0.930 . S
C2095 C2091 1.400 . S
C2095 C2094 1.385 . S
C2096 C2094 1.478 . S
C2096 C2098 1.381 . S
C2096 C2102 1.383 . S
C2097 C2093 1.495 . S
C2097 H2103 0.959 . S
C2097 H2104 0.961 . S
C2097 H2105 0.960 . S
C2098 C2096 1.381 . S
C2098 C2099 1.394 . S
C2098 H2106 0.930 . S
C2099 C2098 1.394 . S
C2099 C2100 1.383 . S
C2099 H2107 0.929 . S
C2100 C2099 1.383 . S
C2100 C2101 1.377 . S
C2101 H2085 0.930 . S
C2101 C2100 1.377 . S
C2101 C2102 1.379 . S
C2102 H2086 0.931 . S
C2102 C2096 1.383 . S
C2102 C2101 1.379 . S
H2103 C2097 0.959 . S
H2104 C2097 0.961 . S
H2105 C2097 0.960 . S
H2106 C2098 0.930 . S
H2107 C2099 0.929 . S
H2108 C2116 0.929 . S
H2109 C2118 0.930 . S
H2110 C2120 0.930 . S
H2111 C2123 0.929 . S
H2112 C2126 0.930 . S
H2113 C2128 0.960 . S
H2114 C2128 0.960 . S
H2115 C2128 0.960 . S
C2116 H2108 0.929 . S
C2116 C2117 1.377 . S
C2116 C2118 1.384 . S
C2117 C2116 1.377 . S
C2117 C2123 1.390 . S
C2118 H2109 0.930 . S
C2118 C2116 1.384 . S
C2118 C2119 1.372 . S
C2119 C2118 1.372 . S
C2119 C2120 1.400 . S
C2119 C2124 1.490 . S
C2120 H2110 0.930 . S
C2120 C2119 1.400 . S
C2120 C2123 1.386 . S
H2121 C2137 0.930 . S
H2122 C2138 0.931 . S
C2123 H2111 0.929 . S
C2123 C2117 1.390 . S
C2123 C2120 1.386 . S
C2124 C2119 1.490 . S
C2124 C2126 1.395 . S
C2124 C2127 1.403 . S
H2125 C2131 0.930 . S
C2126 H2112 0.930 . S
C2126 C2124 1.395 . S
C2126 C2129 1.403 . S
C2127 C2124 1.403 . S
C2127 C2128 1.524 . S
C2127 C2131 1.400 . S
C2128 H2113 0.960 . S
C2128 H2114 0.960 . S
C2128 H2115 0.960 . S
C2128 C2127 1.524 . S
C2129 C2126 1.403 . S
C2129 C2130 1.392 . S
C2129 C2133 1.495 . S
C2130 C2129 1.392 . S
C2130 C2131 1.385 . S
C2130 C2132 1.478 . S
C2131 H2125 0.930 . S
C2131 C2127 1.400 . S
C2131 C2130 1.385 . S
C2132 C2130 1.478 . S
C2132 C2134 1.381 . S
C2132 C2138 1.383 . S
C2133 C2129 1.495 . S
C2133 H2139 0.959 . S
C2133 H2140 0.961 . S
C2133 H2141 0.960 . S
C2134 C2132 1.381 . S
C2134 C2135 1.394 . S
C2134 H2142 0.930 . S
C2135 C2134 1.394 . S
C2135 C2136 1.383 . S
C2135 H2143 0.863 1_565 S
C2136 C2135 1.383 . S
C2136 C2137 1.377 . S
C2137 H2121 0.930 . S
C2137 C2136 1.377 . S
C2137 C2138 1.379 . S
C2138 H2122 0.931 . S
C2138 C2132 1.383 . S
C2138 C2137 1.379 . S
H2139 C2133 0.959 . S
H2140 C2133 0.961 . S
H2141 C2133 0.960 . S
H2142 C2134 0.930 . S
H2143 C2135 0.863 1_545 S
H2144 C2152 0.929 . S
H2145 C2154 0.930 . S
H2146 C2156 0.930 . S
H2147 C2159 0.929 . S
H2148 C2162 0.930 . S
H2149 C2164 0.960 . S
H2150 C2164 0.960 . S
H2151 C2164 0.960 . S
C2152 H2144 0.929 . S
C2152 C2153 1.377 . S
C2152 C2154 1.384 . S
C2153 C2152 1.377 . S
C2153 C2159 1.390 . S
C2154 H2145 0.930 . S
C2154 C2152 1.384 . S
C2154 C2155 1.372 . S
C2155 C2154 1.372 . S
C2155 C2156 1.400 . S
C2155 C2160 1.490 . S
C2156 H2146 0.930 . S
C2156 C2155 1.400 . S
C2156 C2159 1.386 . S
H2157 C2173 0.930 . S
H2158 C2174 0.931 . S
C2159 H2147 0.929 . S
C2159 C2153 1.390 . S
C2159 C2156 1.386 . S
C2160 C2155 1.490 . S
C2160 C2162 1.395 . S
C2160 C2163 1.403 . S
H2161 C2167 0.930 . S
C2162 H2148 0.930 . S
C2162 C2160 1.395 . S
C2162 C2165 1.403 . S
C2163 C2160 1.403 . S
C2163 C2164 1.524 . S
C2163 C2167 1.400 . S
C2164 H2149 0.960 . S
C2164 H2150 0.960 . S
C2164 H2151 0.960 . S
C2164 C2163 1.524 . S
C2165 C2162 1.403 . S
C2165 C2166 1.392 . S
C2165 C2169 1.495 . S
C2166 C2165 1.392 . S
C2166 C2167 1.385 . S
C2166 C2168 1.478 . S
C2167 H2161 0.930 . S
C2167 C2163 1.400 . S
C2167 C2166 1.385 . S
C2168 C2166 1.478 . S
C2168 C2170 1.381 . S
C2168 C2174 1.383 . S
C2169 C2165 1.495 . S
C2169 H2175 0.959 . S
C2169 H2176 0.961 . S
C2169 H2177 0.960 . S
C2170 C2168 1.381 . S
C2170 C2171 1.394 . S
C2170 H2178 0.930 . S
C2171 C2170 1.394 . S
C2171 C2172 1.383 . S
C2171 H2179 0.929 . S
C2172 C2171 1.383 . S
C2172 C2173 1.377 . S
C2173 H2157 0.930 . S
C2173 C2172 1.377 . S
C2173 C2174 1.379 . S
C2174 H2158 0.931 . S
C2174 C2168 1.383 . S
C2174 C2173 1.379 . S
H2175 C2169 0.959 . S
H2176 C2169 0.961 . S
H2177 C2169 0.960 . S
H2178 C2170 0.930 . S
H2179 C2171 0.929 . S
H2180 C2188 0.929 . S
H2181 C2190 0.930 . S
H2182 C2192 0.930 . S
H2183 C2195 0.929 . S
H2184 C2198 0.930 . S
H2185 C2200 0.960 . S
H2186 C2200 0.960 . S
H2187 C2200 0.960 . S
C2188 H2180 0.929 . S
C2188 C2189 1.377 . S
C2188 C2190 1.384 . S
C2189 C2188 1.377 . S
C2189 C2195 1.390 . S
C2190 H2181 0.930 . S
C2190 C2188 1.384 . S
C2190 C2191 1.372 . S
C2191 C2190 1.372 . S
C2191 C2192 1.400 . S
C2191 C2196 1.490 . S
C2192 H2182 0.930 . S
C2192 C2191 1.400 . S
C2192 C2195 1.386 . S
H2193 C2209 0.930 . S
H2194 C2210 0.931 . S
C2195 H2183 0.929 . S
C2195 C2189 1.390 . S
C2195 C2192 1.386 . S
C2196 C2191 1.490 . S
C2196 C2198 1.395 . S
C2196 C2199 1.403 . S
H2197 C2203 0.930 . S
C2198 H2184 0.930 . S
C2198 C2196 1.395 . S
C2198 C2201 1.403 . S
C2199 C2196 1.403 . S
C2199 C2200 1.524 . S
C2199 C2203 1.400 . S
C2200 H2185 0.960 . S
C2200 H2186 0.960 . S
C2200 H2187 0.960 . S
C2200 C2199 1.524 . S
C2201 C2198 1.403 . S
C2201 C2202 1.392 . S
C2201 C2205 1.495 . S
C2202 C2201 1.392 . S
C2202 C2203 1.385 . S
C2202 C2204 1.478 . S
C2203 H2197 0.930 . S
C2203 C2199 1.400 . S
C2203 C2202 1.385 . S
C2204 C2202 1.478 . S
C2204 C2206 1.381 . S
C2204 C2210 1.383 . S
C2205 C2201 1.495 . S
C2205 H2211 0.959 . S
C2205 H2212 0.961 . S
C2205 H2213 0.960 . S
C2206 C2204 1.381 . S
C2206 C2207 1.394 . S
C2206 H2214 0.930 . S
C2207 C2206 1.394 . S
C2207 C2208 1.383 . S
C2207 H2215 0.929 . S
C2208 C2207 1.383 . S
C2208 C2209 1.377 . S
C2209 H2193 0.930 . S
C2209 C2208 1.377 . S
C2209 C2210 1.379 . S
C2210 H2194 0.931 . S
C2210 C2204 1.383 . S
C2210 C2209 1.379 . S
H2211 C2205 0.959 . S
H2212 C2205 0.961 . S
H2213 C2205 0.960 . S
H2214 C2206 0.930 . S
H2215 C2207 0.929 . S
H2216 C2224 0.929 . S
H2217 C2226 0.930 . S
H2218 C2228 0.930 . S
H2219 C2231 0.929 . S
H2220 C2234 0.930 . S
H2221 C2236 0.960 . S
H2222 C2236 0.960 . S
H2223 C2236 0.960 . S
C2224 H2216 0.929 . S
C2224 C2225 1.377 . S
C2224 C2226 1.384 . S
C2225 C2224 1.377 . S
C2225 C2231 1.390 . S
C2226 H2217 0.930 . S
C2226 C2224 1.384 . S
C2226 C2227 1.372 . S
C2227 C2226 1.372 . S
C2227 C2228 1.400 . S
C2227 C2232 1.490 . S
C2228 H2218 0.930 . S
C2228 C2227 1.400 . S
C2228 C2231 1.386 . S
H2229 C2245 0.930 . S
H2230 C2246 0.931 . S
C2231 H2219 0.929 . S
C2231 C2225 1.390 . S
C2231 C2228 1.386 . S
C2232 C2227 1.490 . S
C2232 C2234 1.395 . S
C2232 C2235 1.403 . S
H2233 C2239 0.930 . S
C2234 H2220 0.930 . S
C2234 C2232 1.395 . S
C2234 C2237 1.403 . S
C2235 C2232 1.403 . S
C2235 C2236 1.524 . S
C2235 C2239 1.400 . S
C2236 H2221 0.960 . S
C2236 H2222 0.960 . S
C2236 H2223 0.960 . S
C2236 C2235 1.524 . S
C2237 C2234 1.403 . S
C2237 C2238 1.392 . S
C2237 C2241 1.495 . S
C2238 C2237 1.392 . S
C2238 C2239 1.385 . S
C2238 C2240 1.478 . S
C2239 H2233 0.930 . S
C2239 C2235 1.400 . S
C2239 C2238 1.385 . S
C2240 C2238 1.478 . S
C2240 C2242 1.381 . S
C2240 C2246 1.383 . S
C2241 C2237 1.495 . S
C2241 H2247 0.959 . S
C2241 H2248 0.961 . S
C2241 H2249 0.960 . S
C2242 C2240 1.381 . S
C2242 C2243 1.394 . S
C2242 H2250 0.930 . S
C2243 C2242 1.394 . S
C2243 C2244 1.383 . S
C2243 H2251 0.929 . S
C2244 C2243 1.383 . S
C2244 C2245 1.377 . S
C2245 H2229 0.930 . S
C2245 C2244 1.377 . S
C2245 C2246 1.379 . S
C2246 H2230 0.931 . S
C2246 C2240 1.383 . S
C2246 C2245 1.379 . S
H2247 C2241 0.959 . S
H2248 C2241 0.961 . S
H2249 C2241 0.960 . S
H2250 C2242 0.930 . S
H2251 C2243 0.929 . S
H2252 C2260 0.929 . S
H2253 C2262 0.930 . S
H2254 C2264 0.930 . S
H2255 C2267 0.929 . S
H2256 C2270 0.930 . S
H2257 C2272 0.960 . S
H2258 C2272 0.960 . S
H2259 C2272 0.960 . S
C2260 H2252 0.929 . S
C2260 C2261 1.377 . S
C2260 C2262 1.384 . S
C2261 C2260 1.377 . S
C2261 C2267 1.390 . S
C2262 H2253 0.930 . S
C2262 C2260 1.384 . S
C2262 C2263 1.372 . S
C2263 C2262 1.372 . S
C2263 C2264 1.400 . S
C2263 C2268 1.490 . S
C2264 H2254 0.930 . S
C2264 C2263 1.400 . S
C2264 C2267 1.386 . S
H2265 C2281 0.930 . S
H2266 C2282 0.931 . S
C2267 H2255 0.929 . S
C2267 C2261 1.390 . S
C2267 C2264 1.386 . S
C2268 C2263 1.490 . S
C2268 C2270 1.395 . S
C2268 C2271 1.403 . S
H2269 C2275 0.930 . S
C2270 H2256 0.930 . S
C2270 C2268 1.395 . S
C2270 C2273 1.403 . S
C2271 C2268 1.403 . S
C2271 C2272 1.524 . S
C2271 C2275 1.400 . S
C2272 H2257 0.960 . S
C2272 H2258 0.960 . S
C2272 H2259 0.960 . S
C2272 C2271 1.524 . S
C2273 C2270 1.403 . S
C2273 C2274 1.392 . S
C2273 C2277 1.495 . S
C2274 C2273 1.392 . S
C2274 C2275 1.385 . S
C2274 C2276 1.478 . S
C2275 H2269 0.930 . S
C2275 C2271 1.400 . S
C2275 C2274 1.385 . S
C2276 C2274 1.478 . S
C2276 C2278 1.381 . S
C2276 C2282 1.383 . S
C2277 C2273 1.495 . S
C2277 H2283 0.959 . S
C2277 H2284 0.961 . S
C2277 H2285 0.960 . S
C2278 C2276 1.381 . S
C2278 C2279 1.394 . S
C2278 H2286 0.930 . S
C2279 C2278 1.394 . S
C2279 C2280 1.383 . S
C2279 H2287 0.929 . S
C2280 C2279 1.383 . S
C2280 C2281 1.377 . S
C2281 H2265 0.930 . S
C2281 C2280 1.377 . S
C2281 C2282 1.379 . S
C2282 H2266 0.931 . S
C2282 C2276 1.383 . S
C2282 C2281 1.379 . S
H2283 C2277 0.959 . S
H2284 C2277 0.961 . S
H2285 C2277 0.960 . S
H2286 C2278 0.930 . S
H2287 C2279 0.929 . S
H2288 C2296 0.929 . S
H2289 C2298 0.930 . S
H2290 C2300 0.930 . S
H2291 C2303 0.929 . S
H2292 C2306 0.930 . S
H2293 C2308 0.960 . S
H2294 C2308 0.960 . S
H2295 C2308 0.960 . S
C2296 H2288 0.929 . S
C2296 C2297 1.377 . S
C2296 C2298 1.384 . S
C2297 C2296 1.377 . S
C2297 C2303 1.390 . S
C2298 H2289 0.930 . S
C2298 C2296 1.384 . S
C2298 C2299 1.372 . S
C2299 C2298 1.372 . S
C2299 C2300 1.400 . S
C2299 C2304 1.490 . S
C2300 H2290 0.930 . S
C2300 C2299 1.400 . S
C2300 C2303 1.386 . S
H2301 C2317 0.930 . S
H2302 C2318 0.931 . S
C2303 H2291 0.929 . S
C2303 C2297 1.390 . S
C2303 C2300 1.386 . S
C2304 C2299 1.490 . S
C2304 C2306 1.395 . S
C2304 C2307 1.403 . S
H2305 C2311 0.930 . S
C2306 H2292 0.930 . S
C2306 C2304 1.395 . S
C2306 C2309 1.403 . S
C2307 C2304 1.403 . S
C2307 C2308 1.524 . S
C2307 C2311 1.400 . S
C2308 H2293 0.960 . S
C2308 H2294 0.960 . S
C2308 H2295 0.960 . S
C2308 C2307 1.524 . S
C2309 C2306 1.403 . S
C2309 C2310 1.392 . S
C2309 C2313 1.495 . S
C2310 C2309 1.392 . S
C2310 C2311 1.385 . S
C2310 C2312 1.478 . S
C2311 H2305 0.930 . S
C2311 C2307 1.400 . S
C2311 C2310 1.385 . S
C2312 C2310 1.478 . S
C2312 C2314 1.381 . S
C2312 C2318 1.383 . S
C2313 C2309 1.495 . S
C2313 H2319 0.959 . S
C2313 H2320 0.961 . S
C2313 H2321 0.960 . S
C2314 C2312 1.381 . S
C2314 C2315 1.394 . S
C2314 H2322 0.930 . S
C2315 C2314 1.394 . S
C2315 C2316 1.383 . S
C2315 H2323 0.929 . S
C2316 C2315 1.383 . S
C2316 C2317 1.377 . S
C2317 H2301 0.930 . S
C2317 C2316 1.377 . S
C2317 C2318 1.379 . S
C2318 H2302 0.931 . S
C2318 C2312 1.383 . S
C2318 C2317 1.379 . S
H2319 C2313 0.959 . S
H2320 C2313 0.961 . S
H2321 C2313 0.960 . S
H2322 C2314 0.930 . S
H2323 C2315 0.929 . S
H2324 C2332 0.929 . S
H2325 C2334 0.930 . S
H2326 C2336 0.930 . S
H2327 C2339 0.929 . S
H2328 C2342 0.930 . S
H2329 C2344 0.960 . S
H2330 C2344 0.960 . S
H2331 C2344 0.960 . S
C2332 H2324 0.929 . S
C2332 C2333 1.377 . S
C2332 C2334 1.384 . S
C2333 C2332 1.377 . S
C2333 C2339 1.390 . S
C2334 H2325 0.930 . S
C2334 C2332 1.384 . S
C2334 C2335 1.372 . S
C2335 C2334 1.372 . S
C2335 C2336 1.400 . S
C2335 C2340 1.490 . S
C2336 H2326 0.930 . S
C2336 C2335 1.400 . S
C2336 C2339 1.386 . S
H2337 C2353 0.930 . S
H2338 C2354 0.931 . S
C2339 H2327 0.929 . S
C2339 C2333 1.390 . S
C2339 C2336 1.386 . S
C2340 C2335 1.490 . S
C2340 C2342 1.395 . S
C2340 C2343 1.403 . S
H2341 C2347 0.930 . S
C2342 H2328 0.930 . S
C2342 C2340 1.395 . S
C2342 C2345 1.403 . S
C2343 C2340 1.403 . S
C2343 C2344 1.524 . S
C2343 C2347 1.400 . S
C2344 H2329 0.960 . S
C2344 H2330 0.960 . S
C2344 H2331 0.960 . S
C2344 C2343 1.524 . S
C2345 C2342 1.403 . S
C2345 C2346 1.392 . S
C2345 C2349 1.495 . S
C2346 C2345 1.392 . S
C2346 C2347 1.385 . S
C2346 C2348 1.478 . S
C2347 H2341 0.930 . S
C2347 C2343 1.400 . S
C2347 C2346 1.385 . S
C2348 C2346 1.478 . S
C2348 C2350 1.381 . S
C2348 C2354 1.383 . S
C2349 C2345 1.495 . S
C2349 H2355 0.959 . S
C2349 H2356 0.961 . S
C2349 H2357 0.960 . S
C2350 C2348 1.381 . S
C2350 C2351 1.394 . S
C2350 H2358 0.930 . S
C2351 C2350 1.394 . S
C2351 C2352 1.383 . S
C2351 H2359 0.929 . S
C2352 C2351 1.383 . S
C2352 C2353 1.377 . S
C2353 H2337 0.930 . S
C2353 C2352 1.377 . S
C2353 C2354 1.379 . S
C2354 H2338 0.931 . S
C2354 C2348 1.383 . S
C2354 C2353 1.379 . S
H2355 C2349 0.959 . S
H2356 C2349 0.961 . S
H2357 C2349 0.960 . S
H2358 C2350 0.930 . S
H2359 C2351 0.929 . S
H2360 C2368 0.929 . S
H2361 C2370 0.930 . S
H2362 C2372 0.930 . S
H2363 C2375 0.929 . S
H2364 C2378 0.930 . S
H2365 C2380 0.960 . S
H2366 C2380 0.960 . S
H2367 C2380 0.960 . S
C2368 H2360 0.929 . S
C2368 C2369 1.377 . S
C2368 C2370 1.384 . S
C2369 C2368 1.377 . S
C2369 C2375 1.390 . S
C2370 H2361 0.930 . S
C2370 C2368 1.384 . S
C2370 C2371 1.372 . S
C2371 C2370 1.372 . S
C2371 C2372 1.400 . S
C2371 C2376 1.490 . S
C2372 H2362 0.930 . S
C2372 C2371 1.400 . S
C2372 C2375 1.386 . S
H2373 C2389 0.930 . S
H2374 C2390 0.931 . S
C2375 H2363 0.929 . S
C2375 C2369 1.390 . S
C2375 C2372 1.386 . S
C2376 C2371 1.490 . S
C2376 C2378 1.395 . S
C2376 C2379 1.403 . S
H2377 C2383 0.930 . S
C2378 H2364 0.930 . S
C2378 C2376 1.395 . S
C2378 C2381 1.403 . S
C2379 C2376 1.403 . S
C2379 C2380 1.524 . S
C2379 C2383 1.400 . S
C2380 H2365 0.960 . S
C2380 H2366 0.960 . S
C2380 H2367 0.960 . S
C2380 C2379 1.524 . S
C2381 C2378 1.403 . S
C2381 C2382 1.392 . S
C2381 C2385 1.495 . S
C2382 C2381 1.392 . S
C2382 C2383 1.385 . S
C2382 C2384 1.478 . S
C2383 H2377 0.930 . S
C2383 C2379 1.400 . S
C2383 C2382 1.385 . S
C2384 C2382 1.478 . S
C2384 C2386 1.381 . S
C2384 C2390 1.383 . S
C2385 C2381 1.495 . S
C2385 H2391 0.959 . S
C2385 H2392 0.961 . S
C2385 H2393 0.960 . S
C2386 C2384 1.381 . S
C2386 C2387 1.394 . S
C2386 H2394 0.930 . S
C2387 C2386 1.394 . S
C2387 C2388 1.383 . S
C2387 H2395 0.929 . S
C2388 C2387 1.383 . S
C2388 C2389 1.377 . S
C2389 H2373 0.930 . S
C2389 C2388 1.377 . S
C2389 C2390 1.379 . S
C2390 H2374 0.931 . S
C2390 C2384 1.383 . S
C2390 C2389 1.379 . S
H2391 C2385 0.959 . S
H2392 C2385 0.961 . S
H2393 C2385 0.960 . S
H2394 C2386 0.930 . S
H2395 C2387 0.929 . S
H2396 C2404 0.929 . S
H2397 C2406 0.930 . S
H2398 C2408 0.930 . S
H2399 C2411 0.929 . S
H2400 C2414 0.930 . S
H2401 C2416 0.960 . S
H2402 C2416 0.960 . S
H2403 C2416 0.960 . S
C2404 H2396 0.929 . S
C2404 C2405 1.377 . S
C2404 C2406 1.384 . S
C2405 C2404 1.377 . S
C2405 C2411 1.390 . S
C2406 H2397 0.930 . S
C2406 C2404 1.384 . S
C2406 C2407 1.372 . S
C2407 C2406 1.372 . S
C2407 C2408 1.400 . S
C2407 C2412 1.490 . S
C2408 H2398 0.930 . S
C2408 C2407 1.400 . S
C2408 C2411 1.386 . S
H2409 C2425 0.930 . S
H2410 C2426 0.931 . S
C2411 H2399 0.929 . S
C2411 C2405 1.390 . S
C2411 C2408 1.386 . S
C2412 C2407 1.490 . S
C2412 C2414 1.395 . S
C2412 C2415 1.403 . S
H2413 C2419 0.930 . S
C2414 H2400 0.930 . S
C2414 C2412 1.395 . S
C2414 C2417 1.403 . S
C2415 C2412 1.403 . S
C2415 C2416 1.524 . S
C2415 C2419 1.400 . S
C2416 H2401 0.960 . S
C2416 H2402 0.960 . S
C2416 H2403 0.960 . S
C2416 C2415 1.524 . S
C2417 C2414 1.403 . S
C2417 C2418 1.392 . S
C2417 C2421 1.495 . S
C2418 C2417 1.392 . S
C2418 C2419 1.385 . S
C2418 C2420 1.478 . S
C2419 H2413 0.930 . S
C2419 C2415 1.400 . S
C2419 C2418 1.385 . S
C2420 C2418 1.478 . S
C2420 C2422 1.381 . S
C2420 C2426 1.383 . S
C2421 C2417 1.495 . S
C2421 H2427 0.959 . S
C2421 H2428 0.961 . S
C2421 H2429 0.960 . S
C2422 C2420 1.381 . S
C2422 C2423 1.394 . S
C2422 H2430 0.930 . S
C2423 C2422 1.394 . S
C2423 C2424 1.383 . S
C2423 H2431 0.929 . S
C2424 C2423 1.383 . S
C2424 C2425 1.377 . S
C2425 H2409 0.930 . S
C2425 C2424 1.377 . S
C2425 C2426 1.379 . S
C2426 H2410 0.931 . S
C2426 C2420 1.383 . S
C2426 C2425 1.379 . S
H2427 C2421 0.959 . S
H2428 C2421 0.961 . S
H2429 C2421 0.960 . S
H2430 C2422 0.930 . S
H2431 C2423 0.929 . S
H2432 C2440 0.929 . S
H2433 C2442 0.930 . S
H2434 C2444 0.930 . S
H2435 C2447 0.929 . S
H2436 C2450 0.930 1_545 S
H2437 C2452 0.960 . S
H2438 C2452 0.960 . S
H2439 C2452 0.960 . S
C2440 H2432 0.929 . S
C2440 C2441 1.377 1_545 S
C2440 C2442 1.384 . S
C2441 C2440 1.377 1_565 S
C2441 C2447 1.390 . S
C2442 H2433 0.930 . S
C2442 C2440 1.384 . S
C2442 C2443 1.372 1_545 S
C2443 C2442 1.372 1_565 S
C2443 C2444 1.400 . S
C2443 C2448 1.490 . S
C2444 H2434 0.930 . S
C2444 C2443 1.400 . S
C2444 C2447 1.386 . S
H2445 C2461 0.930 . S
H2446 C2462 0.931 . S
C2447 H2435 0.929 . S
C2447 C2441 1.390 . S
C2447 C2444 1.386 . S
C2448 C2443 1.490 . S
C2448 C2450 1.395 . S
C2448 C2451 1.403 . S
H2449 C2455 0.930 . S
C2450 H2436 0.930 1_565 S
C2450 C2448 1.395 . S
C2450 C2453 1.403 1_455 S
C2451 C2448 1.403 . S
C2451 C2452 1.524 . S
C2451 C2455 1.400 1_455 S
C2452 H2437 0.960 . S
C2452 H2438 0.960 . S
C2452 H2439 0.960 . S
C2452 C2451 1.524 . S
C2453 C2450 1.403 1_655 S
C2453 C2454 1.392 . S
C2453 C2457 1.495 1_565 S
C2454 C2453 1.392 . S
C2454 C2455 1.385 . S
C2454 C2456 1.478 . S
C2455 H2449 0.930 . S
C2455 C2451 1.400 1_655 S
C2455 C2454 1.385 . S
C2456 C2454 1.478 . S
C2456 C2458 1.381 1_565 S
C2456 C2462 1.383 . S
C2457 C2453 1.495 1_545 S
C2457 H2463 0.959 . S
C2457 H2464 0.961 1_545 S
C2457 H2465 0.960 . S
C2458 C2456 1.381 1_545 S
C2458 C2459 1.394 . S
C2458 H2466 0.930 . S
C2459 C2458 1.394 . S
C2459 C2460 1.383 1_545 S
C2459 H2467 0.929 . S
C2460 C2459 1.383 1_565 S
C2460 C2461 1.377 . S
C2461 H2445 0.930 . S
C2461 C2460 1.377 . S
C2461 C2462 1.379 . S
C2462 H2446 0.931 . S
C2462 C2456 1.383 . S
C2462 C2461 1.379 . S
H2463 C2457 0.959 . S
H2464 C2457 0.961 1_565 S
H2465 C2457 0.960 . S
H2466 C2458 0.930 . S
H2467 C2459 0.929 . S
H2468 C2476 0.929 . S
H2469 C2478 0.930 . S
H2470 C2480 0.930 . S
H2471 C2483 0.929 . S
H2472 C2486 0.930 . S
H2473 C2488 0.960 . S
H2474 C2488 0.960 . S
H2475 C2488 0.960 . S
C2476 H2468 0.929 . S
C2476 C2477 1.377 . S
C2476 C2478 1.384 . S
C2477 C2476 1.377 . S
C2477 C2483 1.390 . S
C2478 H2469 0.930 . S
C2478 C2476 1.384 . S
C2478 C2479 1.372 . S
C2479 C2478 1.372 . S
C2479 C2480 1.400 . S
C2479 C2484 1.490 . S
C2480 H2470 0.930 . S
C2480 C2479 1.400 . S
C2480 C2483 1.386 . S
H2481 C2497 0.930 . S
H2482 C2498 0.931 . S
C2483 H2471 0.929 . S
C2483 C2477 1.390 . S
C2483 C2480 1.386 . S
C2484 C2479 1.490 . S
C2484 C2486 1.395 . S
C2484 C2487 1.403 . S
H2485 C2491 0.930 . S
C2486 H2472 0.930 . S
C2486 C2484 1.395 . S
C2486 C2489 1.403 . S
C2487 C2484 1.403 . S
C2487 C2488 1.524 . S
C2487 C2491 1.400 . S
C2488 H2473 0.960 . S
C2488 H2474 0.960 . S
C2488 H2475 0.960 . S
C2488 C2487 1.524 . S
C2489 C2486 1.403 . S
C2489 C2490 1.392 . S
C2489 C2493 1.495 . S
C2490 C2489 1.392 . S
C2490 C2491 1.385 . S
C2490 C2492 1.478 . S
C2491 H2485 0.930 . S
C2491 C2487 1.400 . S
C2491 C2490 1.385 . S
C2492 C2490 1.478 . S
C2492 C2494 1.381 . S
C2492 C2498 1.383 . S
C2493 C2489 1.495 . S
C2493 H2499 0.959 . S
C2493 H2500 0.961 . S
C2493 H2501 0.960 . S
C2494 C2492 1.381 . S
C2494 C2495 1.394 . S
C2494 H2502 0.930 . S
C2495 C2494 1.394 . S
C2495 C2496 1.383 . S
C2495 H2503 0.929 . S
C2496 C2495 1.383 . S
C2496 C2497 1.377 . S
C2497 H2481 0.930 . S
C2497 C2496 1.377 . S
C2497 C2498 1.379 . S
C2498 H2482 0.931 . S
C2498 C2492 1.383 . S
C2498 C2497 1.379 . S
H2499 C2493 0.959 . S
H2500 C2493 0.961 . S
H2501 C2493 0.960 . S
H2502 C2494 0.930 . S
H2503 C2495 0.929 . S
H2504 C2512 0.929 . S
H2505 C2514 0.930 . S
H2506 C2516 0.954 . S
H2507 C2519 0.974 . S
H2508 C2522 0.930 . S
H2509 C2524 0.960 . S
H2510 C2524 0.960 . S
H2511 C2524 0.960 . S
C2512 H2504 0.929 . S
C2512 C2513 1.377 . S
C2512 C2514 1.384 . S
C2513 C2512 1.377 . S
C2513 C2519 1.349 1_545 S
C2514 H2505 0.930 . S
C2514 C2512 1.384 . S
C2514 C2515 1.372 . S
C2515 C2514 1.372 . S
C2515 C2516 1.376 1_545 S
C2515 C2520 1.490 . S
C2516 H2506 0.954 . S
C2516 C2515 1.376 1_565 S
C2516 C2519 1.385 . S
H2517 C2533 0.930 . S
H2518 C2534 0.931 . S
C2519 H2507 0.974 . S
C2519 C2513 1.349 1_565 S
C2519 C2516 1.385 . S
C2520 C2515 1.490 . S
C2520 C2522 1.395 . S
C2520 C2523 1.403 . S
H2521 C2527 0.930 . S
C2522 H2508 0.930 . S
C2522 C2520 1.395 . S
C2522 C2525 1.403 . S
C2523 C2520 1.403 . S
C2523 C2524 1.524 . S
C2523 C2527 1.400 . S
C2524 H2509 0.960 . S
C2524 H2510 0.960 . S
C2524 H2511 0.960 . S
C2524 C2523 1.524 . S
C2525 C2522 1.403 . S
C2525 C2526 1.392 . S
C2525 C2529 1.495 . S
C2526 C2525 1.392 . S
C2526 C2527 1.385 . S
C2526 C2528 1.478 . S
C2527 H2521 0.930 . S
C2527 C2523 1.400 . S
C2527 C2526 1.385 . S
C2528 C2526 1.478 . S
C2528 C2530 1.381 . S
C2528 C2534 1.383 1_545 S
C2529 C2525 1.495 . S
C2529 H2535 0.961 . S
C2529 H2536 0.961 1_545 S
C2529 H2537 0.960 . S
C2530 C2528 1.381 . S
C2530 C2531 1.394 . S
C2530 H2538 0.930 . S
C2531 C2530 1.394 . S
C2531 C2532 1.383 . S
C2531 H2539 0.929 . S
C2532 C2531 1.383 . S
C2532 C2533 1.377 1_545 S
C2533 H2517 0.930 . S
C2533 C2532 1.377 1_565 S
C2533 C2534 1.379 . S
C2534 H2518 0.931 . S
C2534 C2528 1.383 1_565 S
C2534 C2533 1.379 . S
H2535 C2529 0.961 . S
H2536 C2529 0.961 1_565 S
H2537 C2529 0.960 . S
H2538 C2530 0.930 . S
H2539 C2531 0.929 . S
H2540 C2548 0.929 . S
H2541 C2550 0.930 . S
H2542 C2552 0.930 . S
H2543 C2555 0.929 . S
H2544 C2558 0.930 . S
H2545 C2560 0.960 . S
H2546 C2560 0.960 . S
H2547 C2560 0.960 . S
C2548 H2540 0.929 . S
C2548 C2549 1.377 . S
C2548 C2550 1.384 . S
C2549 C2548 1.377 . S
C2549 C2555 1.390 . S
C2550 H2541 0.930 . S
C2550 C2548 1.384 . S
C2550 C2551 1.372 . S
C2551 C2550 1.372 . S
C2551 C2552 1.400 . S
C2551 C2556 1.490 . S
C2552 H2542 0.930 . S
C2552 C2551 1.400 . S
C2552 C2555 1.386 . S
H2553 C2569 0.930 . S
H2554 C2570 0.931 . S
C2555 H2543 0.929 . S
C2555 C2549 1.390 . S
C2555 C2552 1.386 . S
C2556 C2551 1.490 . S
C2556 C2558 1.395 . S
C2556 C2559 1.403 . S
H2557 C2563 0.930 . S
C2558 H2544 0.930 . S
C2558 C2556 1.395 . S
C2558 C2561 1.403 . S
C2559 C2556 1.403 . S
C2559 C2560 1.524 . S
C2559 C2563 1.400 . S
C2560 H2545 0.960 . S
C2560 H2546 0.960 . S
C2560 H2547 0.960 . S
C2560 C2559 1.524 . S
C2561 C2558 1.403 . S
C2561 C2562 1.392 . S
C2561 C2565 1.495 . S
C2562 C2561 1.392 . S
C2562 C2563 1.385 . S
C2562 C2564 1.478 . S
C2563 H2557 0.930 . S
C2563 C2559 1.400 . S
C2563 C2562 1.385 . S
C2564 C2562 1.478 . S
C2564 C2566 1.381 . S
C2564 C2570 1.383 . S
C2565 C2561 1.495 . S
C2565 H2571 0.959 . S
C2565 H2572 0.961 . S
C2565 H2573 0.960 . S
C2566 C2564 1.381 . S
C2566 C2567 1.394 . S
C2566 H2574 0.930 . S
C2567 C2566 1.394 . S
C2567 C2568 1.383 . S
C2567 H2575 0.929 . S
C2568 C2567 1.383 . S
C2568 C2569 1.377 . S
C2569 H2553 0.930 . S
C2569 C2568 1.377 . S
C2569 C2570 1.379 . S
C2570 H2554 0.931 . S
C2570 C2564 1.383 . S
C2570 C2569 1.379 . S
H2571 C2565 0.959 . S
H2572 C2565 0.961 . S
H2573 C2565 0.960 . S
H2574 C2566 0.930 . S
H2575 C2567 0.929 . S
H2576 C2584 0.929 . S
H2577 C2586 0.930 . S
H2578 C2588 0.934 . S
H2579 C2591 0.923 1_565 S
H2580 C2594 0.911 1_565 S
H2581 C2596 0.960 . S
H2582 C2596 0.960 . S
H2583 C2596 0.960 . S
C2584 H2576 0.929 . S
C2584 C2585 1.377 . S
C2584 C2586 1.384 . S
C2585 C2584 1.377 . S
C2585 C2591 1.390 . S
C2586 H2577 0.930 . S
C2586 C2584 1.384 . S
C2586 C2587 1.372 . S
C2587 C2586 1.372 . S
C2587 C2588 1.400 . S
C2587 C2592 1.490 . S
C2588 H2578 0.934 . S
C2588 C2587 1.400 . S
C2588 C2591 1.386 . S
H2589 C2605 0.902 1_565 S
H2590 C2606 0.922 1_565 S
C2591 H2579 0.923 1_545 S
C2591 C2585 1.390 . S
C2591 C2588 1.386 . S
C2592 C2587 1.490 . S
C2592 C2594 1.416 . S
C2592 C2595 1.403 . S
H2593 C2599 0.930 . S
C2594 H2580 0.911 1_545 S
C2594 C2592 1.416 . S
C2594 C2597 1.401 1_645 S
C2595 C2592 1.403 . S
C2595 C2596 1.524 . S
C2595 C2599 1.400 1_655 S
C2596 H2581 0.960 . S
C2596 H2582 0.960 . S
C2596 H2583 0.960 . S
C2596 C2595 1.524 . S
C2597 C2594 1.401 1_465 S
C2597 C2598 1.379 1_565 S
C2597 C2601 1.510 . S
C2598 C2597 1.379 1_545 S
C2598 C2599 1.385 . S
C2598 C2600 1.478 . S
C2599 H2593 0.930 . S
C2599 C2595 1.400 1_455 S
C2599 C2598 1.385 . S
C2600 C2598 1.478 . S
C2600 C2602 1.381 . S
C2600 C2606 1.391 . S
C2601 C2597 1.510 . S
C2601 H2607 0.959 . S
C2601 H2608 0.961 . S
C2601 H2609 0.960 . S
C2602 C2600 1.381 . S
C2602 C2603 1.394 . S
C2602 H2610 0.930 . S
C2603 C2602 1.394 . S
C2603 C2604 1.383 . S
C2603 H2611 0.929 . S
C2604 C2603 1.383 . S
C2604 C2605 1.410 . S
C2605 H2589 0.902 1_545 S
C2605 C2604 1.410 . S
C2605 C2606 1.379 . S
C2606 H2590 0.922 1_545 S
C2606 C2600 1.391 . S
C2606 C2605 1.379 . S
H2607 C2601 0.959 . S
H2608 C2601 0.961 . S
H2609 C2601 0.960 . S
H2610 C2602 0.930 . S
H2611 C2603 0.929 . S
H2612 C2620 0.929 . S
H2613 C2622 0.930 . S
H2614 C2624 0.930 . S
H2615 C2627 0.929 . S
H2616 C2630 0.930 . S
H2617 C2632 0.960 . S
H2618 C2632 0.960 . S
H2619 C2632 0.960 . S
C2620 H2612 0.929 . S
C2620 C2621 1.377 . S
C2620 C2622 1.384 . S
C2621 C2620 1.377 . S
C2621 C2627 1.390 . S
C2622 H2613 0.930 . S
C2622 C2620 1.384 . S
C2622 C2623 1.372 . S
C2623 C2622 1.372 . S
C2623 C2624 1.400 . S
C2623 C2628 1.490 . S
C2624 H2614 0.930 . S
C2624 C2623 1.400 . S
C2624 C2627 1.386 . S
H2625 C2641 0.930 . S
H2626 C2642 0.931 . S
C2627 H2615 0.929 . S
C2627 C2621 1.390 . S
C2627 C2624 1.386 . S
C2628 C2623 1.490 . S
C2628 C2630 1.395 . S
C2628 C2631 1.403 . S
H2629 C2635 0.930 . S
C2630 H2616 0.930 . S
C2630 C2628 1.395 . S
C2630 C2633 1.403 . S
C2631 C2628 1.403 . S
C2631 C2632 1.524 . S
C2631 C2635 1.400 . S
C2632 H2617 0.960 . S
C2632 H2618 0.960 . S
C2632 H2619 0.960 . S
C2632 C2631 1.524 . S
C2633 C2630 1.403 . S
C2633 C2634 1.392 . S
C2633 C2637 1.495 . S
C2634 C2633 1.392 . S
C2634 C2635 1.385 . S
C2634 C2636 1.478 . S
C2635 H2629 0.930 . S
C2635 C2631 1.400 . S
C2635 C2634 1.385 . S
C2636 C2634 1.478 . S
C2636 C2638 1.381 . S
C2636 C2642 1.383 . S
C2637 C2633 1.495 . S
C2637 H2643 0.959 . S
C2637 H2644 0.961 . S
C2637 H2645 0.960 . S
C2638 C2636 1.381 . S
C2638 C2639 1.394 . S
C2638 H2646 0.930 . S
C2639 C2638 1.394 . S
C2639 C2640 1.383 . S
C2639 H2647 0.929 . S
C2640 C2639 1.383 . S
C2640 C2641 1.377 . S
C2641 H2625 0.930 . S
C2641 C2640 1.377 . S
C2641 C2642 1.379 . S
C2642 H2626 0.931 . S
C2642 C2636 1.383 . S
C2642 C2641 1.379 . S
H2643 C2637 0.959 . S
H2644 C2637 0.961 . S
H2645 C2637 0.960 . S
H2646 C2638 0.930 . S
H2647 C2639 0.929 . S
H2648 C2656 0.929 . S
H2649 C2658 0.930 . S
H2650 C2660 0.930 . S
H2651 C2663 0.929 . S
H2652 C2666 0.930 . S
H2653 C2668 0.960 . S
H2654 C2668 0.960 . S
H2655 C2668 0.960 1_545 S
C2656 H2648 0.929 . S
C2656 C2657 1.377 . S
C2656 C2658 1.384 . S
C2657 C2656 1.377 . S
C2657 C2663 1.390 1_565 S
C2658 H2649 0.930 . S
C2658 C2656 1.384 . S
C2658 C2659 1.372 . S
C2659 C2658 1.372 . S
C2659 C2660 1.400 1_565 S
C2659 C2664 1.490 . S
C2660 H2650 0.930 . S
C2660 C2659 1.400 1_545 S
C2660 C2663 1.386 . S
H2661 C2677 0.930 . S
H2662 C2678 0.931 . S
C2663 H2651 0.929 . S
C2663 C2657 1.390 1_545 S
C2663 C2660 1.386 . S
C2664 C2659 1.490 . S
C2664 C2666 1.395 . S
C2664 C2667 1.403 . S
H2665 C2671 0.930 . S
C2666 H2652 0.930 . S
C2666 C2664 1.395 . S
C2666 C2669 1.403 . S
C2667 C2664 1.403 . S
C2667 C2668 1.524 . S
C2667 C2671 1.400 . S
C2668 H2653 0.960 . S
C2668 H2654 0.960 . S
C2668 H2655 0.960 1_565 S
C2668 C2667 1.524 . S
C2669 C2666 1.403 . S
C2669 C2670 1.392 . S
C2669 C2673 1.495 . S
C2670 C2669 1.392 . S
C2670 C2671 1.385 . S
C2670 C2672 1.478 . S
C2671 H2665 0.930 . S
C2671 C2667 1.400 . S
C2671 C2670 1.385 . S
C2672 C2670 1.478 . S
C2672 C2674 1.381 . S
C2672 C2678 1.383 1_565 S
C2673 C2669 1.495 . S
C2673 H2679 0.959 . S
C2673 H2680 0.961 . S
C2673 H2681 0.960 . S
C2674 C2672 1.381 . S
C2674 C2675 1.394 . S
C2674 H2682 0.930 . S
C2675 C2674 1.394 . S
C2675 C2676 1.383 . S
C2675 H2683 0.929 . S
C2676 C2675 1.383 . S
C2676 C2677 1.377 1_565 S
C2677 H2661 0.930 . S
C2677 C2676 1.377 1_545 S
C2677 C2678 1.379 . S
C2678 H2662 0.931 . S
C2678 C2672 1.383 1_545 S
C2678 C2677 1.379 . S
H2679 C2673 0.959 . S
H2680 C2673 0.961 . S
H2681 C2673 0.960 . S
H2682 C2674 0.930 . S
H2683 C2675 0.929 . S
H2684 C2692 0.929 . S
H2685 C2694 0.930 . S
H2686 C2696 0.930 . S
H2687 C2699 0.929 . S
H2688 C2702 0.930 . S
H2689 C2704 0.960 . S
H2690 C2704 0.960 . S
H2691 C2704 0.960 . S
C2692 H2684 0.929 . S
C2692 C2693 1.377 . S
C2692 C2694 1.384 . S
C2693 C2692 1.377 . S
C2693 C2699 1.390 . S
C2694 H2685 0.930 . S
C2694 C2692 1.384 . S
C2694 C2695 1.372 . S
C2695 C2694 1.372 . S
C2695 C2696 1.400 . S
C2695 C2700 1.490 . S
C2696 H2686 0.930 . S
C2696 C2695 1.400 . S
C2696 C2699 1.386 . S
H2697 C2713 0.930 . S
H2698 C2714 0.931 . S
C2699 H2687 0.929 . S
C2699 C2693 1.390 . S
C2699 C2696 1.386 . S
C2700 C2695 1.490 . S
C2700 C2702 1.395 . S
C2700 C2703 1.403 . S
H2701 C2707 0.930 . S
C2702 H2688 0.930 . S
C2702 C2700 1.395 . S
C2702 C2705 1.403 . S
C2703 C2700 1.403 . S
C2703 C2704 1.524 . S
C2703 C2707 1.400 . S
C2704 H2689 0.960 . S
C2704 H2690 0.960 . S
C2704 H2691 0.960 . S
C2704 C2703 1.524 . S
C2705 C2702 1.403 . S
C2705 C2706 1.392 . S
C2705 C2709 1.495 . S
C2706 C2705 1.392 . S
C2706 C2707 1.385 . S
C2706 C2708 1.478 . S
C2707 H2701 0.930 . S
C2707 C2703 1.400 . S
C2707 C2706 1.385 . S
C2708 C2706 1.478 . S
C2708 C2710 1.381 . S
C2708 C2714 1.383 . S
C2709 C2705 1.495 . S
C2709 H2715 0.959 . S
C2709 H2716 0.961 . S
C2709 H2717 0.960 . S
C2710 C2708 1.381 . S
C2710 C2711 1.394 . S
C2710 H2718 0.930 . S
C2711 C2710 1.394 . S
C2711 C2712 1.383 . S
C2711 H2719 0.929 . S
C2712 C2711 1.383 . S
C2712 C2713 1.377 . S
C2713 H2697 0.930 . S
C2713 C2712 1.377 . S
C2713 C2714 1.379 . S
C2714 H2698 0.931 . S
C2714 C2708 1.383 . S
C2714 C2713 1.379 . S
H2715 C2709 0.959 . S
H2716 C2709 0.961 . S
H2717 C2709 0.960 . S
H2718 C2710 0.930 . S
H2719 C2711 0.929 . S
H2720 C2728 0.929 . S
H2721 C2730 0.930 . S
H2722 C2732 0.930 . S
H2723 C2735 0.929 . S
H2724 C2738 0.930 . S
H2725 C2740 0.960 . S
H2726 C2740 0.960 . S
H2727 C2740 0.960 . S
C2728 H2720 0.929 . S
C2728 C2729 1.377 . S
C2728 C2730 1.384 . S
C2729 C2728 1.377 . S
C2729 C2735 1.390 . S
C2730 H2721 0.930 . S
C2730 C2728 1.384 . S
C2730 C2731 1.372 . S
C2731 C2730 1.372 . S
C2731 C2732 1.400 . S
C2731 C2736 1.490 . S
C2732 H2722 0.930 . S
C2732 C2731 1.400 . S
C2732 C2735 1.386 . S
H2733 C2749 0.930 . S
H2734 C2750 0.931 . S
C2735 H2723 0.929 . S
C2735 C2729 1.390 . S
C2735 C2732 1.386 . S
C2736 C2731 1.490 . S
C2736 C2738 1.395 . S
C2736 C2739 1.403 . S
H2737 C2743 0.930 . S
C2738 H2724 0.930 . S
C2738 C2736 1.395 . S
C2738 C2741 1.403 . S
C2739 C2736 1.403 . S
C2739 C2740 1.524 . S
C2739 C2743 1.400 . S
C2740 H2725 0.960 . S
C2740 H2726 0.960 . S
C2740 H2727 0.960 . S
C2740 C2739 1.524 . S
C2741 C2738 1.403 . S
C2741 C2742 1.392 . S
C2741 C2745 1.495 . S
C2742 C2741 1.392 . S
C2742 C2743 1.385 . S
C2742 C2744 1.478 . S
C2743 H2737 0.930 . S
C2743 C2739 1.400 . S
C2743 C2742 1.385 . S
C2744 C2742 1.478 . S
C2744 C2746 1.381 . S
C2744 C2750 1.383 . S
C2745 C2741 1.495 . S
C2745 H2751 0.959 . S
C2745 H2752 0.961 . S
C2745 H2753 0.960 . S
C2746 C2744 1.381 . S
C2746 C2747 1.394 . S
C2746 H2754 0.930 . S
C2747 C2746 1.394 . S
C2747 C2748 1.383 . S
C2747 H2755 0.929 . S
C2748 C2747 1.383 . S
C2748 C2749 1.377 . S
C2749 H2733 0.930 . S
C2749 C2748 1.377 . S
C2749 C2750 1.379 . S
C2750 H2734 0.931 . S
C2750 C2744 1.383 . S
C2750 C2749 1.379 . S
H2751 C2745 0.959 . S
H2752 C2745 0.961 . S
H2753 C2745 0.960 . S
H2754 C2746 0.930 . S
H2755 C2747 0.929 . S
H2756 C2764 0.929 . S
H2757 C2766 0.930 . S
H2758 C2768 0.930 . S
H2759 C2771 0.929 . S
H2760 C2774 0.930 . S
H2761 C2776 0.960 . S
H2762 C2776 0.960 . S
H2763 C2776 0.960 . S
C2764 H2756 0.929 . S
C2764 C2765 1.377 . S
C2764 C2766 1.384 . S
C2765 C2764 1.377 . S
C2765 C2771 1.390 . S
C2766 H2757 0.930 . S
C2766 C2764 1.384 . S
C2766 C2767 1.372 . S
C2767 C2766 1.372 . S
C2767 C2768 1.400 . S
C2767 C2772 1.490 . S
C2768 H2758 0.930 . S
C2768 C2767 1.400 . S
C2768 C2771 1.386 . S
H2769 C2785 0.930 . S
H2770 C2786 0.931 . S
C2771 H2759 0.929 . S
C2771 C2765 1.390 . S
C2771 C2768 1.386 . S
C2772 C2767 1.490 . S
C2772 C2774 1.395 . S
C2772 C2775 1.403 . S
H2773 C2779 0.930 . S
C2774 H2760 0.930 . S
C2774 C2772 1.395 . S
C2774 C2777 1.403 . S
C2775 C2772 1.403 . S
C2775 C2776 1.524 . S
C2775 C2779 1.400 . S
C2776 H2761 0.960 . S
C2776 H2762 0.960 . S
C2776 H2763 0.960 . S
C2776 C2775 1.524 . S
C2777 C2774 1.403 . S
C2777 C2778 1.392 . S
C2777 C2781 1.495 . S
C2778 C2777 1.392 . S
C2778 C2779 1.385 . S
C2778 C2780 1.478 . S
C2779 H2773 0.930 . S
C2779 C2775 1.400 . S
C2779 C2778 1.385 . S
C2780 C2778 1.478 . S
C2780 C2782 1.381 . S
C2780 C2786 1.383 . S
C2781 C2777 1.495 . S
C2781 H2787 0.959 . S
C2781 H2788 0.961 . S
C2781 H2789 0.960 . S
C2782 C2780 1.381 . S
C2782 C2783 1.394 . S
C2782 H2790 0.930 . S
C2783 C2782 1.394 . S
C2783 C2784 1.383 . S
C2783 H2791 0.929 . S
C2784 C2783 1.383 . S
C2784 C2785 1.377 . S
C2785 H2769 0.930 . S
C2785 C2784 1.377 . S
C2785 C2786 1.379 . S
C2786 H2770 0.931 . S
C2786 C2780 1.383 . S
C2786 C2785 1.379 . S
H2787 C2781 0.959 . S
H2788 C2781 0.961 . S
H2789 C2781 0.960 . S
H2790 C2782 0.930 . S
H2791 C2783 0.929 . S
H2792 C2800 0.929 . S
H2793 C2802 0.930 . S
H2794 C2804 0.930 . S
H2795 C2807 0.929 . S
H2796 C2810 0.930 . S
H2797 C2812 0.960 . S
H2798 C2812 0.960 . S
H2799 C2812 0.960 . S
C2800 H2792 0.929 . S
C2800 C2801 1.377 . S
C2800 C2802 1.384 . S
C2801 C2800 1.377 . S
C2801 C2807 1.390 . S
C2802 H2793 0.930 . S
C2802 C2800 1.384 . S
C2802 C2803 1.372 . S
C2803 C2802 1.372 . S
C2803 C2804 1.400 . S
C2803 C2808 1.490 . S
C2804 H2794 0.930 . S
C2804 C2803 1.400 . S
C2804 C2807 1.386 . S
H2805 C2821 0.930 . S
H2806 C2822 0.931 . S
C2807 H2795 0.929 . S
C2807 C2801 1.390 . S
C2807 C2804 1.386 . S
C2808 C2803 1.490 . S
C2808 C2810 1.395 . S
C2808 C2811 1.403 . S
H2809 C2815 0.930 . S
C2810 H2796 0.930 . S
C2810 C2808 1.395 . S
C2810 C2813 1.403 . S
C2811 C2808 1.403 . S
C2811 C2812 1.524 . S
C2811 C2815 1.400 . S
C2812 H2797 0.960 . S
C2812 H2798 0.960 . S
C2812 H2799 0.960 . S
C2812 C2811 1.524 . S
C2813 C2810 1.403 . S
C2813 C2814 1.392 . S
C2813 C2817 1.495 . S
C2814 C2813 1.392 . S
C2814 C2815 1.385 . S
C2814 C2816 1.478 . S
C2815 H2809 0.930 . S
C2815 C2811 1.400 . S
C2815 C2814 1.385 . S
C2816 C2814 1.478 . S
C2816 C2818 1.381 . S
C2816 C2822 1.383 . S
C2817 C2813 1.495 . S
C2817 H2823 0.959 . S
C2817 H2824 0.961 . S
C2817 H2825 0.960 . S
C2818 C2816 1.381 . S
C2818 C2819 1.394 . S
C2818 H2826 0.930 . S
C2819 C2818 1.394 . S
C2819 C2820 1.383 . S
C2819 H2827 0.929 . S
C2820 C2819 1.383 . S
C2820 C2821 1.377 . S
C2821 H2805 0.930 . S
C2821 C2820 1.377 . S
C2821 C2822 1.379 . S
C2822 H2806 0.931 . S
C2822 C2816 1.383 . S
C2822 C2821 1.379 . S
H2823 C2817 0.959 . S
H2824 C2817 0.961 . S
H2825 C2817 0.960 . S
H2826 C2818 0.930 . S
H2827 C2819 0.929 . S
H2828 C2836 0.929 . S
H2829 C2838 0.930 . S
H2830 C2840 0.930 . S
H2831 C2843 0.929 . S
H2832 C2846 0.930 . S
H2833 C2848 0.960 . S
H2834 C2848 0.960 . S
H2835 C2848 0.960 . S
C2836 H2828 0.929 . S
C2836 C2837 1.377 . S
C2836 C2838 1.384 . S
C2837 C2836 1.377 . S
C2837 C2843 1.390 . S
C2838 H2829 0.930 . S
C2838 C2836 1.384 . S
C2838 C2839 1.372 . S
C2839 C2838 1.372 . S
C2839 C2840 1.400 . S
C2839 C2844 1.490 . S
C2840 H2830 0.930 . S
C2840 C2839 1.400 . S
C2840 C2843 1.386 . S
H2841 C2857 0.930 . S
H2842 C2858 0.931 . S
C2843 H2831 0.929 . S
C2843 C2837 1.390 . S
C2843 C2840 1.386 . S
C2844 C2839 1.490 . S
C2844 C2846 1.395 . S
C2844 C2847 1.403 . S
H2845 C2851 0.930 . S
C2846 H2832 0.930 . S
C2846 C2844 1.395 . S
C2846 C2849 1.403 . S
C2847 C2844 1.403 . S
C2847 C2848 1.524 . S
C2847 C2851 1.400 . S
C2848 H2833 0.960 . S
C2848 H2834 0.960 . S
C2848 H2835 0.960 . S
C2848 C2847 1.524 . S
C2849 C2846 1.403 . S
C2849 C2850 1.392 . S
C2849 C2853 1.495 . S
C2850 C2849 1.392 . S
C2850 C2851 1.385 . S
C2850 C2852 1.478 . S
C2851 H2845 0.930 . S
C2851 C2847 1.400 . S
C2851 C2850 1.385 . S
C2852 C2850 1.478 . S
C2852 C2854 1.381 . S
C2852 C2858 1.383 . S
C2853 C2849 1.495 . S
C2853 H2859 0.959 . S
C2853 H2860 0.961 . S
C2853 H2861 0.960 . S
C2854 C2852 1.381 . S
C2854 C2855 1.394 . S
C2854 H2862 0.930 . S
C2855 C2854 1.394 . S
C2855 C2856 1.383 . S
C2855 H2863 0.929 . S
C2856 C2855 1.383 . S
C2856 C2857 1.377 . S
C2857 H2841 0.930 . S
C2857 C2856 1.377 . S
C2857 C2858 1.379 . S
C2858 H2842 0.931 . S
C2858 C2852 1.383 . S
C2858 C2857 1.379 . S
H2859 C2853 0.959 . S
H2860 C2853 0.961 . S
H2861 C2853 0.960 . S
H2862 C2854 0.930 . S
H2863 C2855 0.929 . S
H2864 C2872 0.929 . S
H2865 C2874 0.930 . S
H2866 C2876 0.930 . S
H2867 C2879 0.929 . S
H2868 C2882 0.930 . S
H2869 C2884 0.960 . S
H2870 C2884 0.960 . S
H2871 C2884 0.960 . S
C2872 H2864 0.929 . S
C2872 C2873 1.377 . S
C2872 C2874 1.384 . S
C2873 C2872 1.377 . S
C2873 C2879 1.390 . S
C2874 H2865 0.930 . S
C2874 C2872 1.384 . S
C2874 C2875 1.372 . S
C2875 C2874 1.372 . S
C2875 C2876 1.400 . S
C2875 C2880 1.490 . S
C2876 H2866 0.930 . S
C2876 C2875 1.400 . S
C2876 C2879 1.386 . S
H2877 C2893 0.930 . S
H2878 C2894 0.931 . S
C2879 H2867 0.929 . S
C2879 C2873 1.390 . S
C2879 C2876 1.386 . S
C2880 C2875 1.490 . S
C2880 C2882 1.395 . S
C2880 C2883 1.403 . S
H2881 C2887 0.930 . S
C2882 H2868 0.930 . S
C2882 C2880 1.395 . S
C2882 C2885 1.403 . S
C2883 C2880 1.403 . S
C2883 C2884 1.524 . S
C2883 C2887 1.400 . S
C2884 H2869 0.960 . S
C2884 H2870 0.960 . S
C2884 H2871 0.960 . S
C2884 C2883 1.524 . S
C2885 C2882 1.403 . S
C2885 C2886 1.392 . S
C2885 C2889 1.495 . S
C2886 C2885 1.392 . S
C2886 C2887 1.385 . S
C2886 C2888 1.478 . S
C2887 H2881 0.930 . S
C2887 C2883 1.400 . S
C2887 C2886 1.385 . S
C2888 C2886 1.478 . S
C2888 C2890 1.381 . S
C2888 C2894 1.383 . S
C2889 C2885 1.495 . S
C2889 H2895 0.959 . S
C2889 H2896 0.961 . S
C2889 H2897 0.960 . S
C2890 C2888 1.381 . S
C2890 C2891 1.394 . S
C2890 H2898 0.930 . S
C2891 C2890 1.394 . S
C2891 C2892 1.383 . S
C2891 H2899 0.929 . S
C2892 C2891 1.383 . S
C2892 C2893 1.377 . S
C2893 H2877 0.930 . S
C2893 C2892 1.377 . S
C2893 C2894 1.379 . S
C2894 H2878 0.931 . S
C2894 C2888 1.383 . S
C2894 C2893 1.379 . S
H2895 C2889 0.959 . S
H2896 C2889 0.961 . S
H2897 C2889 0.960 . S
H2898 C2890 0.930 . S
H2899 C2891 0.929 . S
H2900 C2908 0.929 . S
H2901 C2910 0.930 . S
H2902 C2912 0.930 . S
H2903 C2915 0.929 . S
H2904 C2918 0.930 . S
H2905 C2920 0.960 . S
H2906 C2920 0.960 . S
H2907 C2920 0.960 . S
C2908 H2900 0.929 . S
C2908 C2909 1.377 . S
C2908 C2910 1.384 . S
C2909 C2908 1.377 . S
C2909 C2915 1.390 . S
C2910 H2901 0.930 . S
C2910 C2908 1.384 . S
C2910 C2911 1.372 . S
C2911 C2910 1.372 . S
C2911 C2912 1.400 . S
C2911 C2916 1.490 . S
C2912 H2902 0.930 . S
C2912 C2911 1.400 . S
C2912 C2915 1.386 . S
H2913 C2929 0.930 . S
H2914 C2930 0.931 . S
C2915 H2903 0.929 . S
C2915 C2909 1.390 . S
C2915 C2912 1.386 . S
C2916 C2911 1.490 . S
C2916 C2918 1.395 . S
C2916 C2919 1.403 . S
H2917 C2923 0.930 . S
C2918 H2904 0.930 . S
C2918 C2916 1.395 . S
C2918 C2921 1.403 1_455 S
C2919 C2916 1.403 . S
C2919 C2920 1.524 . S
C2919 C2923 1.400 1_455 S
C2920 H2905 0.960 . S
C2920 H2906 0.960 . S
C2920 H2907 0.960 . S
C2920 C2919 1.524 . S
C2921 C2918 1.403 1_655 S
C2921 C2922 1.392 . S
C2921 C2925 1.495 . S
C2922 C2921 1.392 . S
C2922 C2923 1.385 . S
C2922 C2924 1.478 . S
C2923 H2917 0.930 . S
C2923 C2919 1.400 1_655 S
C2923 C2922 1.385 . S
C2924 C2922 1.478 . S
C2924 C2926 1.381 . S
C2924 C2930 1.383 . S
C2925 C2921 1.495 . S
C2925 H2931 0.959 . S
C2925 H2932 0.961 . S
C2925 H2933 0.960 . S
C2926 C2924 1.381 . S
C2926 C2927 1.394 . S
C2926 H2934 0.930 . S
C2927 C2926 1.394 . S
C2927 C2928 1.383 . S
C2927 H2935 0.929 . S
C2928 C2927 1.383 . S
C2928 C2929 1.377 . S
C2929 H2913 0.930 . S
C2929 C2928 1.377 . S
C2929 C2930 1.379 . S
C2930 H2914 0.931 . S
C2930 C2924 1.383 . S
C2930 C2929 1.379 . S
H2931 C2925 0.959 . S
H2932 C2925 0.961 . S
H2933 C2925 0.960 . S
H2934 C2926 0.930 . S
H2935 C2927 0.929 . S
H2936 C2944 0.929 . S
H2937 C2946 0.930 . S
H2938 C2948 0.930 . S
H2939 C2951 0.929 . S
H2940 C2954 0.930 . S
H2941 C2956 0.960 . S
H2942 C2956 0.960 . S
H2943 C2956 0.960 . S
C2944 H2936 0.929 . S
C2944 C2945 1.377 . S
C2944 C2946 1.384 . S
C2945 C2944 1.377 . S
C2945 C2951 1.390 . S
C2946 H2937 0.930 . S
C2946 C2944 1.384 . S
C2946 C2947 1.372 . S
C2947 C2946 1.372 . S
C2947 C2948 1.400 . S
C2947 C2952 1.490 . S
C2948 H2938 0.930 . S
C2948 C2947 1.400 . S
C2948 C2951 1.386 . S
H2949 C2965 0.930 . S
H2950 C2966 0.931 . S
C2951 H2939 0.929 . S
C2951 C2945 1.390 . S
C2951 C2948 1.386 . S
C2952 C2947 1.490 . S
C2952 C2954 1.395 . S
C2952 C2955 1.403 . S
H2953 C2959 0.930 . S
C2954 H2940 0.930 . S
C2954 C2952 1.395 . S
C2954 C2957 1.403 . S
C2955 C2952 1.403 . S
C2955 C2956 1.524 . S
C2955 C2959 1.400 . S
C2956 H2941 0.960 . S
C2956 H2942 0.960 . S
C2956 H2943 0.960 . S
C2956 C2955 1.524 . S
C2957 C2954 1.403 . S
C2957 C2958 1.392 . S
C2957 C2961 1.495 . S
C2958 C2957 1.392 . S
C2958 C2959 1.385 . S
C2958 C2960 1.478 . S
C2959 H2953 0.930 . S
C2959 C2955 1.400 . S
C2959 C2958 1.385 . S
C2960 C2958 1.478 . S
C2960 C2962 1.381 . S
C2960 C2966 1.383 . S
C2961 C2957 1.495 . S
C2961 H2967 0.959 . S
C2961 H2968 0.961 . S
C2961 H2969 0.960 . S
C2962 C2960 1.381 . S
C2962 C2963 1.394 . S
C2962 H2970 0.930 . S
C2963 C2962 1.394 . S
C2963 C2964 1.383 . S
C2963 H2971 0.929 . S
C2964 C2963 1.383 . S
C2964 C2965 1.377 . S
C2965 H2949 0.930 . S
C2965 C2964 1.377 . S
C2965 C2966 1.379 . S
C2966 H2950 0.931 . S
C2966 C2960 1.383 . S
C2966 C2965 1.379 . S
H2967 C2961 0.959 . S
H2968 C2961 0.961 . S
H2969 C2961 0.960 . S
H2970 C2962 0.930 . S
H2971 C2963 0.929 . S
H2972 C2980 0.929 . S
H2973 C2982 0.930 . S
H2974 C2984 0.930 . S
H2975 C2987 0.929 . S
H2976 C2990 0.930 . S
H2977 C2992 0.960 . S
H2978 C2992 0.960 . S
H2979 C2992 0.960 . S
C2980 H2972 0.929 . S
C2980 C2981 1.377 . S
C2980 C2982 1.384 . S
C2981 C2980 1.377 . S
C2981 C2987 1.390 . S
C2982 H2973 0.930 . S
C2982 C2980 1.384 . S
C2982 C2983 1.372 . S
C2983 C2982 1.372 . S
C2983 C2984 1.400 . S
C2983 C2988 1.490 . S
C2984 H2974 0.930 . S
C2984 C2983 1.400 . S
C2984 C2987 1.386 . S
H2985 C3001 0.930 . S
H2986 C3002 0.931 . S
C2987 H2975 0.929 . S
C2987 C2981 1.390 . S
C2987 C2984 1.386 . S
C2988 C2983 1.490 . S
C2988 C2990 1.395 . S
C2988 C2991 1.403 . S
H2989 C2995 0.930 . S
C2990 H2976 0.930 . S
C2990 C2988 1.395 . S
C2990 C2993 1.403 1_655 S
C2991 C2988 1.403 . S
C2991 C2992 1.524 . S
C2991 C2995 1.400 1_655 S
C2992 H2977 0.960 . S
C2992 H2978 0.960 . S
C2992 H2979 0.960 . S
C2992 C2991 1.524 . S
C2993 C2990 1.403 1_455 S
C2993 C2994 1.392 . S
C2993 C2997 1.495 . S
C2994 C2993 1.392 . S
C2994 C2995 1.385 . S
C2994 C2996 1.478 . S
C2995 H2989 0.930 . S
C2995 C2991 1.400 1_455 S
C2995 C2994 1.385 . S
C2996 C2994 1.478 . S
C2996 C2998 1.381 . S
C2996 C3002 1.383 . S
C2997 C2993 1.495 . S
C2997 H3003 0.959 . S
C2997 H3004 0.961 . S
C2997 H3005 0.960 . S
C2998 C2996 1.381 . S
C2998 C2999 1.394 . S
C2998 H3006 0.930 . S
C2999 C2998 1.394 . S
C2999 C3000 1.383 . S
C2999 H3007 0.929 . S
C3000 C2999 1.383 . S
C3000 C3001 1.377 . S
C3001 H2985 0.930 . S
C3001 C3000 1.377 . S
C3001 C3002 1.379 . S
C3002 H2986 0.931 . S
C3002 C2996 1.383 . S
C3002 C3001 1.379 . S
H3003 C2997 0.959 . S
H3004 C2997 0.961 . S
H3005 C2997 0.960 . S
H3006 C2998 0.930 . S
H3007 C2999 0.929 . S
C1289 C255 1.496 . S
C1308 C15 1.496 . S
C1325 C295 1.736 . S
C1344 C55 1.727 . S
C1361 C175 1.495 . S
C1380 C95 1.488 . S
C1397 C135 1.735 . S
C1416 C215 1.727 . S
C1433 C575 1.494 . S
C1452 C335 1.494 . S
C1469 C615 1.732 . S
C1488 C375 1.731 . S
C1505 C495 1.495 . S
C1524 C415 1.484 . S
C1541 C535 1.732 . S
C1560 C455 1.736 . S
C1577 C655 1.725 . S
C1596 C895 1.723 . S
C1613 C935 1.507 . S
C1632 C695 1.503 . S
C1649 C735 1.722 . S
C1668 C815 1.717 . S
C1685 C855 1.510 . S
C1704 C775 1.505 . S
C1721 C975 1.720 . S
C1740 C1215 1.724 . S
C1757 C1015 1.508 . S
C1776 C1255 1.498 . S
C1793 C1055 1.722 . S
C1812 C1135 1.710 . S
C1829 C1095 1.504 . S
C1848 C1175 1.512 . S
C1865 C301 1.481 . S
C1884 C21 1.470 . S
C1901 C61 1.482 . S
C1920 C181 1.479 . S
C1937 C221 1.482 . S
C1956 C101 1.478 . S
C1973 C141 1.480 . S
C1992 C261 1.466 . S
C2009 C621 1.443 . S
C2028 C341 1.460 . S
C2045 C381 1.447 . S
C2064 C501 1.440 . S
C2081 C541 1.438 . S
C2100 C421 1.472 . S
C2117 C461 1.440 . S
C2136 C581 1.463 . S
C2153 C661 1.818 . S
C2172 C941 1.817 . S
C2189 C701 1.820 . S
C2208 C821 1.818 . S
C2225 C861 1.820 . S
C2244 C741 1.819 . S
C2261 C781 1.820 . S
C2280 C901 1.818 . S
C2297 C1261 1.771 . S
C2316 C981 1.786 . S
C2333 C1021 1.774 . S
C2352 C1141 1.763 . S
C2369 C1061 1.783 . S
C2388 C1181 1.750 . S
C2405 C1101 1.771 . S
C2424 C1221 1.770 . S
C2441 C2 1.486 . S
C2460 C482 1.451 . S
C2477 C42 1.663 . S
C2496 C1162 1.629 . S
C2513 C82 1.483 . S
C2532 C562 1.469 . S
C2549 C122 1.661 . S
C2568 C1242 1.620 . S
C2585 C322 1.470 . S
C2604 C162 1.483 . S
C2621 C202 1.662 . S
C2640 C1002 1.639 . S
C2657 C242 1.483 . S
C2676 C402 1.474 . S
C2693 C1082 1.631 . S
C2712 C282 1.662 . S
C2729 C362 1.640 . S
C2748 C842 1.649 . S
C2765 C922 1.660 . S
C2784 C442 1.639 . S
C2801 C682 1.658 . S
C2820 C522 1.649 . S
C2837 C602 1.641 . S
C2856 C762 1.652 . S
C2873 C642 1.732 . S
C2892 C1122 1.715 . S
C2909 C1202 1.710 . S
C2928 C722 1.723 . S
C2945 C962 1.704 . S
C2964 C802 1.730 . S
C2981 C882 1.734 . S
C3000 C1042 1.693 . S
