# Generated by pormake.
# Topology qtz-e, (6)-cn, num edge types: 1
# Building blocks:
#     Node 0, Type 0, BuildingBlock: CIFDUS_clean_sbu_1, # of connection points: 6
#     Node 1, Type 0, BuildingBlock: CIFDUS_clean_sbu_1, # of connection points: 6
#     Node 2, Type 0, BuildingBlock: CIFDUS_clean_sbu_1, # of connection points: 6
#     Node 3, Type 0, BuildingBlock: CIFDUS_clean_sbu_1, # of connection points: 6
#     Node 4, Type 0, BuildingBlock: CIFDUS_clean_sbu_1, # of connection points: 6
#     Node 5, Type 0, BuildingBlock: CIFDUS_clean_sbu_1, # of connection points: 6
#     Edge 6, Type (0, 0), BuildingBlock: ZUJKAS_clean_linker_0, # of connection points: 2
#     Edge 7, Type (0, 0), BuildingBlock: ZUJKAS_clean_linker_0, # of connection points: 2
#     Edge 8, Type (0, 0), BuildingBlock: ZUJKAS_clean_linker_0, # of connection points: 2
#     Edge 9, Type (0, 0), BuildingBlock: ZUJKAS_clean_linker_0, # of connection points: 2
#     Edge 10, Type (0, 0), BuildingBlock: ZUJKAS_clean_linker_0, # of connection points: 2
#     Edge 11, Type (0, 0), BuildingBlock: ZUJKAS_clean_linker_0, # of connection points: 2
#     Edge 12, Type (0, 0), BuildingBlock: ZUJKAS_clean_linker_0, # of connection points: 2
#     Edge 13, Type (0, 0), BuildingBlock: ZUJKAS_clean_linker_0, # of connection points: 2
#     Edge 14, Type (0, 0), BuildingBlock: ZUJKAS_clean_linker_0, # of connection points: 2
#     Edge 15, Type (0, 0), BuildingBlock: ZUJKAS_clean_linker_0, # of connection points: 2
#     Edge 16, Type (0, 0), BuildingBlock: ZUJKAS_clean_linker_0, # of connection points: 2
#     Edge 17, Type (0, 0), BuildingBlock: ZUJKAS_clean_linker_0, # of connection points: 2
#     Edge 18, Type (0, 0), BuildingBlock: ZUJKAS_clean_linker_0, # of connection points: 2
#     Edge 19, Type (0, 0), BuildingBlock: ZUJKAS_clean_linker_0, # of connection points: 2
#     Edge 20, Type (0, 0), BuildingBlock: ZUJKAS_clean_linker_0, # of connection points: 2
#     Edge 21, Type (0, 0), BuildingBlock: ZUJKAS_clean_linker_0, # of connection points: 2
#     Edge 22, Type (0, 0), BuildingBlock: ZUJKAS_clean_linker_0, # of connection points: 2
#     Edge 23, Type (0, 0), BuildingBlock: ZUJKAS_clean_linker_0, # of connection points: 2
# Relax obj value: 0.336
# Max RMSD: 0.228
# Mean RMSD: 0.228
data_MOF--net-qtz-e--node1-CIFDUS_clean_sbu_1--edge1-ZUJKAS_clean_linker_0
_symmetry_space_group_name_H-M    P1
_symmetry_Int_Tables_number       1
_symmetry_cell_setting            triclinic
loop_
_symmetry_equiv_pos_as_xyz
'x, y, z'
_cell_length_a     35.746464
_cell_length_b     35.883012
_cell_length_c     39.563072
_cell_angle_alpha  90.074594
_cell_angle_beta   90.123916
_cell_angle_gamma 120.02574
loop_
_atom_site_label
_atom_site_type_symbol
_atom_site_fract_x
_atom_site_fract_y
_atom_site_fract_z
_atom_type_partial_charge
O0 O 0.27004 0.42794 0.03646 0.0
Mn1 Mn 0.22654 0.43903 0.00837 0.0
O2 O 0.31969 0.49282 0.05761 0.0
Mn3 Mn 0.30973 0.52611 0.02725 0.0
O4 O 0.1852 0.45241 0.98105 0.0
O5 O 0.19921 0.37959 0.98862 0.0
Mn6 Mn 0.14228 0.3557 0.98885 0.0
O7 O 0.18269 0.41735 0.04932 0.0
O8 O 0.12835 0.39068 0.96315 0.0
O9 O 0.26946 0.46063 0.96792 0.0
O10 O 0.3268 0.52418 0.98315 0.0
O11 O 0.15492 0.31662 0.96874 0.0
O12 O 0.12723 0.35263 0.03394 0.0
C13 C 0.25322 0.53262 0.03466 0.0
C14 C 0.30274 0.45193 0.05562 0.0
C15 C 0.14958 0.43172 0.9647 0.0
C16 C 0.19494 0.34588 0.97329 0.0
C17 C 0.14618 0.38309 0.05544 0.0
C18 C 0.30669 0.49356 0.9619 0.0
O19 O 0.25337 0.49842 0.02597 0.0
O20 O 0.29154 0.56486 0.03976 0.0
O21 O 0.82263 0.2671 0.36388 0.0
Mn22 Mn 0.77197 0.2199 0.33466 0.0
O23 O 0.80034 0.31321 0.38062 0.0
Mn24 Mn 0.7571 0.29759 0.34857 0.0
O25 O 0.72086 0.17471 0.30592 0.0
O26 O 0.81026 0.19714 0.31862 0.0
Mn27 Mn 0.78071 0.14008 0.32057 0.0
O28 O 0.75066 0.17775 0.37647 0.0
O29 O 0.73272 0.12089 0.2923 0.0
O30 O 0.79278 0.26173 0.29348 0.0
O31 O 0.77705 0.31398 0.30472 0.0
O32 O 0.83445 0.15517 0.3035 0.0
O33 O 0.76655 0.12571 0.36548 0.0
C34 C 0.69693 0.23825 0.35688 0.0
C35 C 0.82707 0.29938 0.38148 0.0
C36 C 0.70989 0.13907 0.29088 0.0
C37 C 0.84206 0.19438 0.30575 0.0
C38 C 0.75132 0.14334 0.38482 0.0
C39 C 0.79273 0.29647 0.28559 0.0
O40 O 0.73312 0.24161 0.3487 0.0
O41 O 0.69899 0.27508 0.35992 0.0
O42 O 0.54412 0.82096 0.69567 0.0
Mn43 Mn 0.55248 0.77688 0.66661 0.0
O44 O 0.47205 0.79055 0.7039 0.0
Mn45 Mn 0.45435 0.74858 0.67068 0.0
O46 O 0.55938 0.73218 0.63854 0.0
O47 O 0.61395 0.822 0.65645 0.0
Mn48 Mn 0.64831 0.80096 0.66564 0.0
O49 O 0.57089 0.75644 0.71036 0.0
O50 O 0.62974 0.75182 0.63875 0.0
O51 O 0.5333 0.79653 0.62318 0.0
O52 O 0.46126 0.76894 0.62683 0.0
O53 O 0.68295 0.85545 0.6484 0.0
O54 O 0.64338 0.79019 0.71159 0.0
C55 C 0.46103 0.6937 0.68322 0.0
C56 C 0.51106 0.81985 0.70968 0.0
C57 C 0.59043 0.72575 0.63058 0.0
C58 C 0.64736 0.85636 0.64522 0.0
C59 C 0.60678 0.76639 0.72525 0.0
C60 C 0.49716 0.79081 0.6114 0.0
O61 O 0.49178 0.73118 0.67508 0.0
O62 O 0.42336 0.6904 0.68187 0.0
O63 O 0.73062 0.53402 0.01001 0.0
Mn64 Mn 0.79169 0.55848 0.98834 0.0
O65 O 0.6934 0.4654 0.99016 0.0
Mn66 Mn 0.73603 0.46318 0.96468 0.0
O67 O 0.85088 0.57947 0.96612 0.0
O68 O 0.80264 0.61877 0.98926 0.0
Mn69 Mn 0.85432 0.65548 0.00548 0.0
O70 O 0.82082 0.56734 0.03677 0.0
O71 O 0.89498 0.64867 0.98034 0.0
O72 O 0.76304 0.5516 0.94054 0.0
O73 O 0.74268 0.48525 0.92152 0.0
O74 O 0.83102 0.68742 0.98739 0.0
O75 O 0.84997 0.63781 0.04989 0.0
C76 C 0.78998 0.46801 0.99274 0.0
C77 C 0.69589 0.49689 0.00741 0.0
C78 C 0.88777 0.61392 0.96565 0.0
C79 C 0.799 0.65054 0.97829 0.0
C80 C 0.83946 0.59928 0.05775 0.0
C81 C 0.74883 0.52299 0.91701 0.0
O82 O 0.78301 0.49913 0.98648 0.0
O83 O 0.76182 0.43195 0.97912 0.0
O84 O 0.16881 0.72851 0.36103 0.0
Mn85 Mn 0.2143 0.78168 0.33319 0.0
O86 O 0.19934 0.68749 0.37108 0.0
Mn87 Mn 0.24175 0.71159 0.3383 0.0
O88 O 0.26042 0.83328 0.30579 0.0
O89 O 0.16898 0.79725 0.32155 0.0
Mn90 Mn 0.19101 0.85348 0.32644 0.0
O91 O 0.2327 0.82024 0.37722 0.0
O92 O 0.23774 0.88048 0.29694 0.0
O93 O 0.19699 0.74449 0.28939 0.0
O94 O 0.22116 0.69753 0.29426 0.0
O95 O 0.13484 0.83136 0.31113 0.0
O96 O 0.20672 0.86561 0.37149 0.0
C97 C 0.29754 0.77339 0.35025 0.0
C98 C 0.16936 0.69655 0.37543 0.0
C99 C 0.26536 0.86821 0.29296 0.0
C100 C 0.13371 0.79473 0.31044 0.0
C101 C 0.22716 0.85099 0.38825 0.0
C102 C 0.20153 0.71347 0.27802 0.0
O103 O 0.25971 0.76658 0.34281 0.0
O104 O 0.30037 0.73888 0.3493 0.0
O105 O 0.43498 0.16232 0.70022 0.0
Mn106 Mn 0.44095 0.21521 0.67296 0.0
O107 O 0.50193 0.18146 0.71858 0.0
Mn108 Mn 0.52986 0.22202 0.68534 0.0
O109 O 0.44757 0.26792 0.64674 0.0
O110 O 0.37942 0.17972 0.65748 0.0
Mn111 Mn 0.35185 0.20868 0.66291 0.0
O112 O 0.42217 0.23528 0.71683 0.0
O113 O 0.38165 0.25923 0.63771 0.0
O114 O 0.45924 0.19484 0.62987 0.0
O115 O 0.52346 0.20037 0.64162 0.0
O116 O 0.31344 0.15663 0.64264 0.0
O117 O 0.35268 0.21729 0.70911 0.0
C118 C 0.53953 0.28583 0.69279 0.0
C119 C 0.46113 0.15649 0.7189 0.0
C120 C 0.42274 0.2809 0.63479 0.0
C121 C 0.34524 0.14907 0.64333 0.0
C122 C 0.38647 0.23174 0.72756 0.0
C123 C 0.4914 0.19004 0.62185 0.0
O124 O 0.50315 0.25188 0.68597 0.0
O125 O 0.57121 0.27826 0.69538 0.0
H126 H 0.18819 0.75219 0.22322 0.0
H127 H 0.16361 0.72074 0.16668 0.0
H128 H 0.14582 0.59955 0.20289 0.0
H129 H 0.1708 0.63073 0.25869 0.0
H130 H 0.20897 0.69335 0.13176 0.0
H131 H 0.04303 0.55799 0.14011 0.0
H132 H 0.06583 0.59995 0.17181 0.0
H133 H 0.07394 0.5543 0.17429 0.0
C134 C 0.17822 0.71863 0.21913 0.0
C135 C 0.18218 0.69408 0.24506 0.0
C136 C 0.16396 0.70066 0.18696 0.0
C137 C 0.15196 0.6575 0.1807 0.0
C138 C 0.15356 0.63246 0.20725 0.0
H139 H 0.19621 0.49559 0.08509 0.0
H140 H 0.15368 0.5248 0.10948 0.0
C141 C 0.16865 0.65058 0.23903 0.0
C142 C 0.14682 0.6408 0.14574 0.0
H143 H 0.09199 0.54627 0.10218 0.0
C144 C 0.18268 0.66188 0.12447 0.0
C145 C 0.11224 0.6 0.13618 0.0
C146 C 0.07144 0.57709 0.15676 0.0
C147 C 0.18811 0.64076 0.09675 0.0
C148 C 0.15563 0.59774 0.08935 0.0
C149 C 0.11707 0.57893 0.10801 0.0
C150 C 0.16567 0.56945 0.06847 0.0
C151 C 0.23096 0.66313 0.07851 0.0
C152 C 0.18304 0.58171 0.03589 0.0
C153 C 0.20851 0.56585 0.02253 0.0
C154 C 0.21458 0.53578 0.04074 0.0
C155 C 0.19133 0.5183 0.07051 0.0
C156 C 0.1671 0.53518 0.08444 0.0
H157 H 0.2544 0.69419 0.09057 0.0
H158 H 0.24583 0.64239 0.07794 0.0
H159 H 0.22591 0.67011 0.05213 0.0
H160 H 0.18086 0.60684 0.02247 0.0
H161 H 0.22637 0.57976 0.99947 0.0
H162 H 0.55387 0.17558 0.59643 0.0
H163 H 0.5579 0.15027 0.54042 0.0
H164 H 0.43345 0.13478 0.51524 0.0
H165 H 0.42949 0.16148 0.57148 0.0
H166 H 0.50628 0.07609 0.50035 0.0
H167 H 0.51436 0.22418 0.44742 0.0
H168 H 0.51825 0.21809 0.49226 0.0
H169 H 0.46731 0.18734 0.47095 0.0
C170 C 0.52709 0.16667 0.57921 0.0
C171 C 0.49176 0.17154 0.58835 0.0
C172 C 0.52927 0.15166 0.54722 0.0
C173 C 0.49621 0.14102 0.52352 0.0
C174 C 0.45962 0.14341 0.53302 0.0
H175 H 0.61612 0.20424 0.33063 0.0
H176 H 0.54963 0.15744 0.36161 0.0
C177 C 0.4575 0.15877 0.56514 0.0
C178 C 0.50396 0.1334 0.48804 0.0
H179 H 0.54215 0.19008 0.41517 0.0
C180 C 0.51296 0.10023 0.4812 0.0
C181 C 0.51181 0.16432 0.4628 0.0
C182 C 0.50265 0.20064 0.46851 0.0
C183 C 0.53387 0.09991 0.45124 0.0
C184 C 0.54673 0.13407 0.42797 0.0
C185 C 0.53278 0.164 0.43302 0.0
C186 C 0.58199 0.1456 0.40304 0.0
C187 C 0.54406 0.06435 0.44582 0.0
C188 C 0.62201 0.15185 0.41456 0.0
C189 C 0.65974 0.17785 0.39647 0.0
C190 C 0.65816 0.19827 0.36688 0.0
C191 C 0.61793 0.18833 0.35333 0.0
C192 C 0.57998 0.16167 0.37109 0.0
H193 H 0.51693 0.03319 0.45472 0.0
H194 H 0.5504 0.06107 0.41883 0.0
H195 H 0.57291 0.07111 0.46105 0.0
H196 H 0.62514 0.14122 0.43946 0.0
H197 H 0.69049 0.18659 0.40793 0.0
H198 H 0.2758 0.43676 0.90829 0.0
H199 H 0.31013 0.44473 0.85315 0.0
H200 H 0.4194 0.5645 0.88625 0.0
H201 H 0.38614 0.55661 0.94109 0.0
H202 H 0.32645 0.50964 0.81171 0.0
H203 H 0.48028 0.51398 0.83424 0.0
H204 H 0.4365 0.49113 0.86437 0.0
H205 H 0.47453 0.54822 0.86423 0.0
C206 C 0.30746 0.46446 0.90399 0.0
C207 C 0.32791 0.49633 0.92906 0.0
C208 C 0.32716 0.46876 0.87254 0.0
C209 C 0.36776 0.50478 0.86574 0.0
C210 C 0.38874 0.53574 0.89114 0.0
H211 H 0.49887 0.70101 0.74337 0.0
H212 H 0.48153 0.64133 0.78154 0.0
C213 C 0.36921 0.53151 0.92243 0.0
C214 C 0.38513 0.51463 0.83086 0.0
H215 H 0.48125 0.56184 0.78877 0.0
C216 C 0.35983 0.51953 0.80611 0.0
C217 C 0.42858 0.52718 0.82351 0.0
C218 C 0.4563 0.51935 0.84797 0.0
C219 C 0.37811 0.54145 0.77592 0.0
C220 C 0.42283 0.55813 0.77009 0.0
C221 C 0.44709 0.54928 0.79332 0.0
C222 C 0.44579 0.59178 0.7442 0.0
C223 C 0.35028 0.55039 0.75225 0.0
C224 C 0.43441 0.58377 0.70987 0.0
C225 C 0.44427 0.61809 0.68801 0.0
C226 C 0.46673 0.66059 0.70008 0.0
C227 C 0.48269 0.66858 0.73323 0.0
C228 C 0.47243 0.63437 0.75515 0.0
H229 H 0.31753 0.53932 0.76264 0.0
H230 H 0.36575 0.5854 0.747 0.0
H231 H 0.34644 0.53343 0.72791 0.0
H232 H 0.41433 0.55111 0.70082 0.0
H233 H 0.43109 0.61132 0.6626 0.0
H234 H 0.82961 0.27138 0.23581 0.0
H235 H 0.86212 0.30895 0.18275 0.0
H236 H 0.83398 0.40876 0.21005 0.0
H237 H 0.80257 0.37245 0.26275 0.0
H238 H 0.81908 0.32317 0.13408 0.0
H239 H 0.95364 0.48066 0.17261 0.0
H240 H 0.9302 0.43505 0.20089 0.0
H241 H 0.90696 0.46941 0.19693 0.0
C242 C 0.83089 0.30162 0.23067 0.0
C243 C 0.81314 0.31867 0.25353 0.0
C244 C 0.84976 0.32319 0.20046 0.0
C245 C 0.85153 0.36227 0.1928 0.0
C246 C 0.83445 0.3795 0.21585 0.0
H247 H 0.79356 0.48899 0.05845 0.0
H248 H 0.82658 0.46891 0.10367 0.0
C249 C 0.8157 0.35815 0.24584 0.0
C250 C 0.8646 0.38213 0.1589 0.0
H251 H 0.91289 0.48119 0.12181 0.0
C252 C 0.84091 0.35744 0.13097 0.0
C253 C 0.89347 0.42676 0.15477 0.0
C254 C 0.92283 0.45428 0.18293 0.0
C255 C 0.84114 0.37698 0.10025 0.0
C256 C 0.86615 0.42234 0.09744 0.0
C257 C 0.8934 0.44649 0.12417 0.0
C258 C 0.85755 0.44503 0.07002 0.0
C259 C 0.81129 0.34942 0.07223 0.0
C260 C 0.86583 0.44019 0.03613 0.0
C261 C 0.84698 0.45182 0.01024 0.0
C262 C 0.82056 0.46927 0.01803 0.0
C263 C 0.81523 0.47726 0.05182 0.0
C264 C 0.83374 0.46536 0.07766 0.0
H265 H 0.79134 0.3151 0.07968 0.0
H266 H 0.78934 0.3615 0.06467 0.0
H267 H 0.83064 0.3511 0.0498 0.0
H268 H 0.88412 0.42454 0.02978 0.0
H269 H 0.85064 0.44456 0.98428 0.0
H270 H 0.42943 0.79606 0.58575 0.0
H271 H 0.42573 0.82965 0.53392 0.0
H272 H 0.55879 0.86948 0.51254 0.0
H273 H 0.56297 0.83517 0.56517 0.0
H274 H 0.47465 0.91583 0.50842 0.0
H275 H 0.49151 0.79542 0.43028 0.0
H276 H 0.48143 0.78721 0.47505 0.0
H277 H 0.53312 0.82841 0.46016 0.0
C278 C 0.45817 0.81187 0.57026 0.0
C279 C 0.49636 0.81219 0.57952 0.0
C280 C 0.45607 0.83161 0.5407 0.0
C281 C 0.49193 0.85216 0.51937 0.0
C282 C 0.53066 0.85368 0.52866 0.0
H283 H 0.37869 0.8217 0.32553 0.0
H284 H 0.44242 0.8669 0.36029 0.0
C285 C 0.53293 0.83392 0.55863 0.0
C286 C 0.48566 0.86733 0.48615 0.0
H287 H 0.45493 0.82724 0.40667 0.0
C288 C 0.47165 0.89761 0.48567 0.0
C289 C 0.48264 0.8443 0.45632 0.0
C290 C 0.49785 0.81193 0.45516 0.0
C291 C 0.44996 0.9016 0.45746 0.0
C292 C 0.44149 0.87403 0.42935 0.0
C293 C 0.46076 0.84812 0.42825 0.0
C294 C 0.40591 0.86393 0.40483 0.0
C295 C 0.43406 0.93334 0.45904 0.0
C296 C 0.36409 0.85019 0.41722 0.0
C297 C 0.32784 0.82547 0.39698 0.0
C298 C 0.33273 0.81353 0.36433 0.0
C299 C 0.37428 0.83109 0.35059 0.0
C300 C 0.41067 0.85671 0.37055 0.0
H301 H 0.4576 0.96292 0.47278 0.0
H302 H 0.42848 0.94231 0.43344 0.0
H303 H 0.40337 0.91905 0.47345 0.0
H304 H 0.35892 0.85384 0.44366 0.0
H305 H 0.29617 0.81089 0.4084 0.0
H306 H 0.68617 0.54375 0.91547 0.0
H307 H 0.63749 0.53305 0.86813 0.0
H308 H 0.71301 0.4984 0.80424 0.0
H309 H 0.76235 0.51049 0.8514 0.0
H310 H 0.67266 0.54204 0.76922 0.0
H311 H 0.55831 0.40387 0.84959 0.0
H312 H 0.58057 0.45768 0.86579 0.0
H313 H 0.61488 0.4349 0.86024 0.0
C314 C 0.69391 0.53671 0.89074 0.0
C315 C 0.72864 0.52922 0.88673 0.0
C316 C 0.66555 0.52963 0.86389 0.0
C317 C 0.67137 0.51451 0.83275 0.0
C318 C 0.70812 0.51044 0.82798 0.0
H319 H 0.61505 0.35975 0.68663 0.0
H320 H 0.63419 0.42792 0.71253 0.0
C321 C 0.73633 0.51735 0.85486 0.0
C322 C 0.63608 0.49503 0.80737 0.0
H323 H 0.54566 0.39849 0.79194 0.0
C324 C 0.64409 0.51124 0.77429 0.0
C325 C 0.59806 0.45544 0.8141 0.0
C326 C 0.58718 0.43666 0.84926 0.0
C327 C 0.61777 0.48651 0.74724 0.0
C328 C 0.58371 0.44413 0.75342 0.0
C329 C 0.57216 0.43068 0.78699 0.0
C330 C 0.56885 0.40983 0.7272 0.0
C331 C 0.62858 0.50486 0.71205 0.0
C332 C 0.52526 0.37702 0.72499 0.0
C333 C 0.51423 0.33728 0.71008 0.0
C334 C 0.54675 0.32974 0.69802 0.0
C335 C 0.58932 0.36429 0.69644 0.0
C336 C 0.60027 0.40383 0.71088 0.0
H337 H 0.6369 0.53913 0.71234 0.0
H338 H 0.65744 0.504 0.70283 0.0
H339 H 0.60139 0.48674 0.69412 0.0
H340 H 0.50032 0.38082 0.7373 0.0
H341 H 0.48105 0.31165 0.7107 0.0
H342 H 0.3182 0.39028 0.03008 0.0
H343 H 0.38392 0.3875 0.04138 0.0
H344 H 0.4129 0.47355 0.12608 0.0
H345 H 0.34746 0.47676 0.11468 0.0
H346 H 0.46962 0.508 0.0714 0.0
H347 H 0.44822 0.34939 0.10749 0.0
H348 H 0.41273 0.34678 0.07417 0.0
H349 H 0.40773 0.36443 0.1156 0.0
C350 C 0.33719 0.40658 0.05227 0.0
C351 C 0.32824 0.43439 0.07111 0.0
C352 C 0.3749 0.40503 0.05872 0.0
C353 C 0.40351 0.4307 0.08438 0.0
C354 C 0.3913 0.45359 0.10613 0.0
H355 H 0.68619 0.54097 0.06079 0.0
H356 H 0.61804 0.52594 0.08761 0.0
C357 C 0.35382 0.45529 0.09962 0.0
C358 C 0.44938 0.44196 0.083 0.0
H359 H 0.51517 0.39868 0.08028 0.0
C360 C 0.47993 0.48439 0.07413 0.0
C361 C 0.46246 0.41102 0.08633 0.0
C362 C 0.43115 0.36541 0.09672 0.0
C363 C 0.5226 0.49607 0.06612 0.0
C364 C 0.53538 0.46465 0.06804 0.0
C365 C 0.50538 0.42278 0.07888 0.0
C366 C 0.57739 0.47275 0.05435 0.0
C367 C 0.55252 0.54102 0.05329 0.0
C368 C 0.57723 0.44728 0.02744 0.0
C369 C 0.61577 0.45535 0.01256 0.0
C370 C 0.65563 0.48934 0.02404 0.0
C371 C 0.65599 0.51483 0.0512 0.0
C372 C 0.61711 0.5063 0.06648 0.0
H373 H 0.53494 0.55835 0.04699 0.0
H374 H 0.57678 0.5598 0.07309 0.0
H375 H 0.57001 0.54019 0.03039 0.0
H376 H 0.54706 0.42149 0.01744 0.0
H377 H 0.61412 0.43519 0.99154 0.0
H378 H 0.0852 0.65992 0.3567 0.0
H379 H 0.02696 0.59091 0.37688 0.0
H380 H 0.11016 0.59083 0.45613 0.0
H381 H 0.1691 0.65885 0.43475 0.0
H382 H 0.08141 0.52133 0.42177 0.0
H383 H 0.94106 0.53999 0.45027 0.0
H384 H 0.96051 0.56069 0.40891 0.0
H385 H 0.99455 0.58586 0.44529 0.0
C386 C 0.09036 0.64609 0.37932 0.0
C387 C 0.13144 0.66456 0.39425 0.0
C388 C 0.05703 0.60655 0.39093 0.0
C389 C 0.064 0.58557 0.4182 0.0
C390 C 0.10398 0.60625 0.43504 0.0
H391 H 0.83761 0.33333 0.44438 0.0
H392 H 0.90119 0.39941 0.46389 0.0
C393 C 0.13752 0.64524 0.423 0.0
C394 C 0.03248 0.53968 0.42539 0.0
H395 H 0.9246 0.46861 0.4311 0.0
C396 C 0.04719 0.50991 0.42468 0.0
C397 C 0.98795 0.5245 0.42988 0.0
C398 C 0.97027 0.55461 0.43402 0.0
C399 C 0.01831 0.46541 0.42594 0.0
C400 C 0.97343 0.45018 0.42683 0.0
C401 C 0.95897 0.48001 0.42997 0.0
C402 C 0.94065 0.40427 0.42082 0.0
C403 C 0.03635 0.43534 0.42571 0.0
C404 C 0.94261 0.38332 0.39134 0.0
C405 C 0.90672 0.34478 0.38078 0.0
C406 C 0.86802 0.32738 0.39904 0.0
C407 C 0.8673 0.34608 0.43005 0.0
C408 C 0.90347 0.38404 0.44101 0.0
H409 H 0.06802 0.45008 0.43899 0.0
H410 H 0.01406 0.40411 0.43789 0.0
H411 H 0.04189 0.42924 0.39919 0.0
H412 H 0.97035 0.39859 0.3748 0.0
H413 H 0.90775 0.33146 0.35644 0.0
H414 H 0.41214 0.07583 0.69422 0.0
H415 H 0.41382 0.01301 0.71543 0.0
H416 H 0.47924 0.08322 0.80581 0.0
H417 H 0.47961 0.14692 0.78355 0.0
H418 H 0.52668 0.05921 0.7762 0.0
H419 H 0.36449 0.91667 0.78012 0.0
H420 H 0.37087 0.94211 0.74001 0.0
H421 H 0.37233 0.9704 0.77823 0.0
C422 C 0.42477 0.07706 0.71938 0.0
C423 C 0.44581 0.11599 0.73729 0.0
C424 C 0.42573 0.04104 0.73161 0.0
C425 C 0.44673 0.04325 0.76231 0.0
C426 C 0.46303 0.08075 0.78205 0.0
H427 H 0.47253 0.81545 0.76949 0.0
H428 H 0.4635 0.87259 0.79491 0.0
C429 C 0.46293 0.11701 0.76947 0.0
C430 C 0.45953 0.01064 0.76984 0.0
H431 H 0.42314 0.90333 0.76294 0.0
C432 C 0.50377 0.02501 0.77433 0.0
C433 C 0.42994 0.96597 0.76817 0.0
C434 C 0.38175 0.94804 0.76677 0.0
C435 C 0.51948 0.9962 0.77414 0.0
C436 C 0.49039 0.95206 0.76821 0.0
C437 C 0.44579 0.9373 0.76683 0.0
C438 C 0.50529 0.92143 0.75927 0.0
C439 C 0.56723 0.0137 0.77933 0.0
C440 C 0.53377 0.93045 0.73198 0.0
C441 C 0.53988 0.89809 0.71805 0.0
C442 C 0.51666 0.85606 0.73065 0.0
C443 C 0.49086 0.8478 0.75948 0.0
C444 C 0.48551 0.88033 0.77387 0.0
H445 H 0.58089 0.04158 0.79698 0.0
H446 H 0.57406 0.98888 0.7895 0.0
H447 H 0.58414 0.02535 0.75481 0.0
H448 H 0.54856 0.96148 0.71962 0.0
H449 H 0.55929 0.90494 0.69544 0.0
H450 H 0.51029 0.66116 0.61163 0.0
H451 H 0.48903 0.58649 0.5999 0.0
H452 H 0.62237 0.61855 0.60443 0.0
H453 H 0.64422 0.69359 0.61671 0.0
H454 H 0.51167 0.54166 0.55157 0.0
H455 H 0.56243 0.53278 0.68296 0.0
H456 H 0.55854 0.5781 0.6679 0.0
H457 H 0.60414 0.57249 0.65656 0.0
C458 C 0.53537 0.65275 0.60939 0.0
C459 C 0.579 0.68341 0.61566 0.0
C460 C 0.52306 0.60994 0.60262 0.0
C461 C 0.55405 0.59695 0.60194 0.0
C462 C 0.59793 0.62795 0.60539 0.0
H463 H 0.50896 0.33673 0.62523 0.0
H464 H 0.54346 0.4129 0.61114 0.0
C465 C 0.61035 0.67087 0.61223 0.0
C466 C 0.53977 0.55048 0.6012 0.0
H467 H 0.53259 0.46935 0.65066 0.0
C468 C 0.51656 0.52581 0.57305 0.0
C469 C 0.54593 0.52996 0.62944 0.0
C470 C 0.56878 0.5545 0.66108 0.0
C471 C 0.4991 0.48097 0.57248 0.0
C472 C 0.50456 0.46041 0.60098 0.0
C473 C 0.52867 0.48526 0.62876 0.0
C474 C 0.48354 0.413 0.60378 0.0
C475 C 0.4749 0.456 0.54145 0.0
C476 C 0.4383 0.38754 0.6037 0.0
C477 C 0.41831 0.34381 0.61178 0.0
C478 C 0.44326 0.32487 0.62039 0.0
C479 C 0.48862 0.35012 0.61879 0.0
C480 C 0.50851 0.39375 0.61073 0.0
H481 H 0.48455 0.47687 0.5187 0.0
H482 H 0.48047 0.42867 0.53661 0.0
H483 H 0.43977 0.44282 0.54537 0.0
H484 H 0.4184 0.40193 0.59912 0.0
H485 H 0.38337 0.32546 0.6129 0.0
H486 H 0.18885 0.51874 0.9557 0.0
H487 H 0.15354 0.56099 0.94522 0.0
H488 H 0.03134 0.44418 0.93248 0.0
H489 H 0.06612 0.40143 0.94348 0.0
H490 H 0.06739 0.53413 0.88361 0.0
H491 H 0.05428 0.54152 0.02376 0.0
H492 H 0.10015 0.54176 0.00463 0.0
H493 H 0.04861 0.49356 0.00397 0.0
C494 C 0.15459 0.50194 0.95008 0.0
C495 C 0.13019 0.45666 0.95096 0.0
C496 C 0.13458 0.52619 0.94392 0.0
C497 C 0.08995 0.50558 0.93825 0.0
C498 C 0.06593 0.46052 0.93674 0.0
H499 H 0.88324 0.55404 0.92089 0.0
H500 H 0.93941 0.5364 0.9092 0.0
C501 C 0.08589 0.43618 0.94297 0.0
C502 C 0.06758 0.53075 0.9379 0.0
H503 H 0.02035 0.57027 0.99062 0.0
C504 C 0.05741 0.5425 0.90692 0.0
C505 C 0.05505 0.54177 0.96842 0.0
C506 C 0.06494 0.52918 0.00224 0.0
C507 C 0.0339 0.5643 0.90572 0.0
C508 C 0.0199 0.57389 0.93627 0.0
C509 C 0.03144 0.56329 0.96723 0.0
C510 C 0.98934 0.59045 0.93705 0.0
C511 C 0.02395 0.57652 0.87182 0.0
C512 C 0.99891 0.62733 0.956 0.0
C513 C 0.96665 0.63752 0.96287 0.0
C514 C 0.92418 0.61055 0.95129 0.0
C515 C 0.9156 0.57545 0.93027 0.0
C516 C 0.94782 0.56545 0.92332 0.0
H517 H 0.04812 0.58017 0.85256 0.0
H518 H 0.9918 0.55067 0.86308 0.0
H519 H 0.02317 0.60702 0.87342 0.0
H520 H 0.03072 0.64689 0.96702 0.0
H521 H 0.97426 0.6646 0.9793 0.0
H522 H 0.29761 0.95251 0.27444 0.0
H523 H 0.37213 0.00382 0.25845 0.0
H524 H 0.40291 0.90198 0.25999 0.0
H525 H 0.3288 0.85054 0.2756 0.0
H526 H 0.43898 0.01758 0.30258 0.0
H527 H 0.46741 0.97074 0.1759 0.0
H528 H 0.41393 0.95434 0.19162 0.0
H529 H 0.44149 0.92637 0.20469 0.0
C530 C 0.31985 0.94075 0.27036 0.0
C531 C 0.30723 0.89743 0.27655 0.0
C532 C 0.36245 0.97015 0.26126 0.0
C533 C 0.39292 0.95663 0.25775 0.0
C534 C 0.37975 0.91297 0.26187 0.0
H535 H 0.6631 0.05393 0.27295 0.0
H536 H 0.58607 0.01337 0.25927 0.0
C537 C 0.33732 0.88363 0.27107 0.0
C538 C 0.43952 0.98862 0.25505 0.0
H539 H 0.53052 0.01451 0.20976 0.0
C540 C 0.45894 0.01757 0.28196 0.0
C541 C 0.46541 0.98805 0.22832 0.0
C542 C 0.44597 0.95846 0.19832 0.0
C543 C 0.50383 0.04463 0.28372 0.0
C544 C 0.52995 0.04349 0.25732 0.0
C545 C 0.51041 0.01542 0.22987 0.0
C546 C 0.5777 0.06908 0.25926 0.0
C547 C 0.52298 0.07256 0.31472 0.0
C548 C 0.59891 0.11405 0.26208 0.0
C549 C 0.64281 0.13728 0.27021 0.0
C550 C 0.66643 0.11597 0.27518 0.0
C551 C 0.6459 0.07134 0.26936 0.0
C552 C 0.60183 0.04808 0.26156 0.0
H553 H 0.49955 0.06227 0.33591 0.0
H554 H 0.5522 0.072 0.32357 0.0
H555 H 0.53256 0.10627 0.30834 0.0
H556 H 0.58106 0.13097 0.25961 0.0
H557 H 0.65772 0.1717 0.27413 0.0
H558 H 0.31429 0.20492 0.76528 0.0
H559 H 0.3061 0.23609 0.81741 0.0
H560 H 0.44324 0.32525 0.82017 0.0
H561 H 0.45197 0.29352 0.7676 0.0
H562 H 0.35256 0.2494 0.88424 0.0
H563 H 0.37867 0.39934 0.82084 0.0
H564 H 0.36258 0.3511 0.79635 0.0
H565 H 0.41572 0.37966 0.81436 0.0
C566 C 0.34295 0.23082 0.77704 0.0
C567 C 0.38376 0.24701 0.76194 0.0
C568 C 0.33816 0.2486 0.80692 0.0
C569 C 0.37391 0.28331 0.82243 0.0
C570 C 0.41515 0.29869 0.80839 0.0
H571 H 0.28408 0.40084 0.97689 0.0
H572 H 0.33974 0.39337 0.94615 0.0
C573 C 0.4201 0.28039 0.77845 0.0
C574 C 0.3663 0.30343 0.85251 0.0
H575 H 0.34141 0.38117 0.8726 0.0
C576 C 0.35145 0.27898 0.88217 0.0
C577 C 0.3652 0.34222 0.84994 0.0
C578 C 0.38136 0.36988 0.81875 0.0
C579 C 0.33215 0.29031 0.90804 0.0
C580 C 0.32669 0.32644 0.90381 0.0
C581 C 0.34537 0.3533 0.87571 0.0
C582 C 0.29468 0.33148 0.92428 0.0
C583 C 0.31525 0.26191 0.93879 0.0
C584 C 0.25108 0.29951 0.92205 0.0
C585 C 0.21947 0.30418 0.93885 0.0
C586 C 0.23044 0.34107 0.95835 0.0
C587 C 0.27434 0.37267 0.96145 0.0
C588 C 0.30623 0.36822 0.94413 0.0
H589 H 0.33422 0.24571 0.944 0.0
H590 H 0.31623 0.28065 0.96147 0.0
H591 H 0.28123 0.23653 0.93419 0.0
H592 H 0.24126 0.27121 0.90649 0.0
H593 H 0.1861 0.27903 0.93583 0.0
H594 H 0.90482 0.18778 0.2734 0.0
H595 H 0.96574 0.24217 0.24216 0.0
H596 H 0.93178 0.33736 0.27109 0.0
H597 H 0.87008 0.28224 0.30344 0.0
H598 H 0.94582 0.3375 0.20245 0.0
H599 H 0.0822 0.3406 0.26946 0.0
H600 H 0.04186 0.28588 0.26104 0.0
H601 H 0.0293 0.31846 0.28829 0.0
C602 C 0.9104 0.22036 0.27379 0.0
C603 C 0.88181 0.23031 0.29055 0.0
C604 C 0.94572 0.25167 0.25599 0.0
C605 C 0.95398 0.29415 0.25457 0.0
C606 C 0.92627 0.30483 0.27197 0.0
H607 H 0.17601 0.42987 0.11523 0.0
H608 H 0.13364 0.42226 0.16646 0.0
C609 C 0.89075 0.27322 0.29023 0.0
C610 C 0.98914 0.3252 0.23204 0.0
H611 H 0.09156 0.35277 0.20802 0.0
C612 C 0.9781 0.34197 0.20418 0.0
C613 C 0.03178 0.3323 0.23451 0.0
C614 C 0.04706 0.31873 0.2652 0.0
C615 C 0.00692 0.36127 0.17712 0.0
C616 C 0.04744 0.36299 0.17761 0.0
C617 C 0.06022 0.35066 0.20713 0.0
C618 C 0.07349 0.37069 0.14631 0.0
C619 C 0.99282 0.37788 0.14758 0.0
C620 C 0.05423 0.34376 0.1183 0.0
C621 C 0.07815 0.34792 0.08936 0.0
C622 C 0.12237 0.37907 0.08742 0.0
C623 C 0.14199 0.40596 0.11561 0.0
C624 C 0.1178 0.40161 0.14491 0.0
H625 H 0.97106 0.38986 0.156 0.0
H626 H 0.02092 0.40424 0.13428 0.0
H627 H 0.97443 0.35119 0.12942 0.0
H628 H 0.02057 0.31872 0.11901 0.0
H629 H 0.06159 0.32652 0.06834 0.0
H630 H 0.71251 0.91675 0.60826 0.0
H631 H 0.71395 0.9729 0.57373 0.0
H632 H 0.58319 0.93363 0.60289 0.0
H633 H 0.58162 0.87641 0.63849 0.0
H634 H 0.59589 0.94681 0.53404 0.0
H635 H 0.72616 0.08709 0.59918 0.0
H636 H 0.74329 0.04862 0.59202 0.0
H637 H 0.69744 0.03477 0.6189 0.0
C638 C 0.68402 0.92008 0.6079 0.0
C639 C 0.64673 0.89162 0.62603 0.0
C640 C 0.68508 0.95264 0.58819 0.0
C641 C 0.64913 0.95835 0.58622 0.0
C642 C 0.61157 0.93017 0.60432 0.0
H643 H 0.73582 0.17498 0.44399 0.0
H644 H 0.69915 0.13383 0.49503 0.0
C645 C 0.61052 0.89724 0.6244 0.0
C646 C 0.65123 0.99202 0.56304 0.0
H647 H 0.72373 0.09387 0.53725 0.0
C648 C 0.62311 0.97933 0.53518 0.0
C649 C 0.68574 0.03511 0.56488 0.0
C650 C 0.71449 0.05224 0.59563 0.0
C651 C 0.6317 0.00689 0.5074 0.0
C652 C 0.66997 0.04775 0.5072 0.0
C653 C 0.69502 0.06223 0.53679 0.0
C654 C 0.68805 0.07271 0.47543 0.0
C655 C 0.60052 0.99107 0.47802 0.0
C656 C 0.69472 0.05245 0.44764 0.0
C657 C 0.71523 0.07567 0.41864 0.0
C658 C 0.73019 0.1201 0.41654 0.0
C659 C 0.7239 0.14069 0.44445 0.0
C660 C 0.70308 0.1172 0.47367 0.0
H661 H 0.56677 0.97117 0.4871 0.0
H662 H 0.60284 0.01806 0.46273 0.0
H663 H 0.60756 0.97027 0.46157 0.0
H664 H 0.68501 0.01863 0.44861 0.0
H665 H 0.71935 0.05853 0.39774 0.0
H666 H 0.56687 0.68046 0.73653 0.0
H667 H 0.5798 0.644 0.78374 0.0
H668 H 0.66385 0.76704 0.83032 0.0
H669 H 0.65055 0.80338 0.78329 0.0
H670 H 0.66623 0.66282 0.79646 0.0
H671 H 0.59362 0.68898 0.91118 0.0
H672 H 0.5753 0.69097 0.86892 0.0
H673 H 0.62326 0.73634 0.88573 0.0
C674 C 0.58623 0.69946 0.75775 0.0
C675 C 0.60662 0.7446 0.75688 0.0
C676 C 0.59408 0.67868 0.78447 0.0
C677 C 0.62231 0.70274 0.81083 0.0
C678 C 0.64117 0.74775 0.81069 0.0
H679 H 0.81785 0.69903 0.9226 0.0
H680 H 0.76821 0.7019 0.88176 0.0
C681 C 0.63364 0.76852 0.78383 0.0
C682 C 0.63747 0.68202 0.83557 0.0
H683 H 0.65135 0.67388 0.92015 0.0
C684 C 0.66214 0.66434 0.8235 0.0
C685 C 0.63193 0.68367 0.8708 0.0
C686 C 0.60424 0.70065 0.88502 0.0
C687 C 0.68407 0.65129 0.84569 0.0
C688 C 0.68111 0.65585 0.88101 0.0
C689 C 0.65379 0.67049 0.89312 0.0
C690 C 0.71045 0.65136 0.90525 0.0
C691 C 0.71183 0.63479 0.83068 0.0
C692 C 0.69453 0.62227 0.93244 0.0
C693 C 0.7232 0.62 0.95567 0.0
C694 C 0.76791 0.64779 0.95245 0.0
C695 C 0.78351 0.67697 0.92544 0.0
C696 C 0.75518 0.67858 0.90204 0.0
H697 H 0.69529 0.61357 0.80865 0.0
H698 H 0.74234 0.66252 0.82135 0.0
H699 H 0.72005 0.61679 0.84913 0.0
H700 H 0.66007 0.60128 0.93559 0.0
H701 H 0.71045 0.59768 0.97661 0.0
H702 H 0.11923 0.71118 0.30203 0.0
H703 H 0.06355 0.65429 0.26607 0.0
H704 H 0.00784 0.73457 0.2471 0.0
H705 H 0.06374 0.79154 0.28128 0.0
H706 H 0.9467 0.63809 0.26346 0.0
H707 H 0.06338 0.67361 0.15837 0.0
H708 H 0.07672 0.66847 0.20148 0.0
H709 H 0.07343 0.71478 0.18926 0.0
C710 C 0.09552 0.71687 0.28987 0.0
C711 C 0.09715 0.75667 0.29362 0.0
C712 C 0.06333 0.68411 0.26967 0.0
C713 C 0.03177 0.69042 0.25361 0.0
C714 C 0.03188 0.72901 0.25912 0.0
H715 H 0.8348 0.63344 0.11757 0.0
H716 H 0.87723 0.64224 0.16827 0.0
C717 C 0.06409 0.76166 0.27874 0.0
C718 C 1.00002 0.65896 0.22907 0.0
H719 H 0.98952 0.63641 0.14459 0.0
C720 C 0.95604 0.63672 0.23762 0.0
C721 C 0.01214 0.65676 0.19548 0.0
C722 C 0.05895 0.67959 0.18523 0.0
C723 C 0.92383 0.61454 0.21302 0.0
C724 C 0.93582 0.616 0.17869 0.0
C725 C 0.97999 0.63541 0.17072 0.0
C726 C 0.90394 0.60335 0.15033 0.0
C727 C 0.87726 0.59067 0.22406 0.0
C728 C 0.90441 0.5785 0.12293 0.0
C729 C 0.88038 0.57397 0.09352 0.0
C730 C 0.85514 0.59384 0.09106 0.0
C731 C 0.85309 0.61687 0.11905 0.0
C732 C 0.87726 0.62168 0.14823 0.0
H733 H 0.87429 0.57711 0.24979 0.0
H734 H 0.8648 0.61343 0.22523 0.0
H735 H 0.85675 0.56406 0.20639 0.0
H736 H 0.92515 0.56453 0.12356 0.0
H737 H 0.88436 0.55795 0.07179 0.0
H738 H 0.27934 0.09283 0.6039 0.0
H739 H 0.27348 0.03318 0.57088 0.0
H740 H 0.39741 0.05837 0.60823 0.0
H741 H 0.40292 0.11812 0.64272 0.0
H742 H 0.38667 0.04957 0.53538 0.0
H743 H 0.25054 0.91347 0.60028 0.0
H744 H 0.23968 0.95651 0.59304 0.0
H745 H 0.28368 0.96516 0.6204 0.0
C746 C 0.3053 0.0856 0.60564 0.0
C747 C 0.34209 0.11101 0.62561 0.0
C748 C 0.30173 0.05118 0.58675 0.0
C749 C 0.33471 0.0409 0.58729 0.0
C750 C 0.37142 0.06562 0.60754 0.0
H751 H 0.24919 0.8214 0.44554 0.0
H752 H 0.28611 0.86339 0.49665 0.0
C753 C 0.37478 0.10008 0.62696 0.0
C754 C 0.33093 0.00613 0.56454 0.0
H755 H 0.25622 0.9043 0.53968 0.0
C756 C 0.35892 0.01736 0.53681 0.0
C757 C 0.2953 0.96375 0.56663 0.0
C758 C 0.26586 0.94886 0.59693 0.0
C759 C 0.34947 0.98887 0.50947 0.0
C760 C 0.31079 0.94841 0.50974 0.0
C761 C 0.28551 0.93548 0.53912 0.0
C762 C 0.29217 0.92295 0.47821 0.0
C763 C 0.37985 0.00342 0.47975 0.0
C764 C 0.28274 0.94216 0.4512 0.0
C765 C 0.2616 0.91841 0.42245 0.0
C766 C 0.24917 0.87459 0.41973 0.0
C767 C 0.25878 0.85516 0.44668 0.0
C768 C 0.27981 0.87911 0.47586 0.0
H769 H 0.41382 0.02433 0.48821 0.0
H770 H 0.37749 0.97572 0.46539 0.0
H771 H 0.3717 0.02272 0.46251 0.0
H772 H 0.29083 0.97553 0.45266 0.0
H773 H 0.25511 0.93466 0.40216 0.0
loop_
_geom_bond_atom_site_label_1
_geom_bond_atom_site_label_2
_geom_bond_distance
_geom_bond_site_symmetry_2
_ccdc_geom_bond_type
O0 Mn1 2.163 1_554 S
O0 C14 1.244 . S
Mn1 O0 2.163 1_556 S
Mn1 O4 2.160 . S
Mn1 O5 2.221 . S
Mn1 O7 2.163 1_556 S
Mn1 O9 2.160 . S
Mn1 O19 2.221 1_556 S
O2 Mn3 2.087 . S
O2 C14 1.256 . S
Mn3 O2 2.087 . S
Mn3 O10 2.089 1_554 S
Mn3 O19 2.290 . S
Mn3 O20 2.251 . S
O4 Mn1 2.160 . S
O4 C15 1.239 . S
O5 Mn1 2.221 . S
O5 Mn6 2.290 . S
O5 C16 1.278 . S
Mn6 O5 2.290 . S
Mn6 O8 2.089 . S
Mn6 O11 2.251 . S
Mn6 O12 2.087 1_556 S
O7 Mn1 2.163 1_554 S
O7 C17 1.244 . S
O8 Mn6 2.089 . S
O8 C15 1.256 . S
O9 Mn1 2.160 . S
O9 C18 1.239 . S
O10 Mn3 2.089 1_556 S
O10 C18 1.256 . S
O11 Mn6 2.251 . S
O11 C16 1.241 . S
O12 Mn6 2.087 1_554 S
O12 C17 1.256 . S
C13 O19 1.278 . S
C13 O20 1.241 . S
C14 O0 1.244 . S
C14 O2 1.256 . S
C15 O4 1.239 . S
C15 O8 1.256 . S
C16 O5 1.278 . S
C16 O11 1.241 . S
C17 O7 1.244 . S
C17 O12 1.256 . S
C18 O9 1.239 . S
C18 O10 1.256 . S
O19 Mn1 2.221 1_554 S
O19 Mn3 2.290 . S
O19 C13 1.278 . S
O20 Mn3 2.251 . S
O20 C13 1.241 . S
O21 Mn22 2.163 . S
O21 C35 1.244 . S
Mn22 O21 2.163 . S
Mn22 O25 2.160 . S
Mn22 O26 2.221 . S
Mn22 O28 2.163 . S
Mn22 O30 2.160 . S
Mn22 O40 2.221 . S
O23 Mn24 2.087 . S
O23 C35 1.256 . S
Mn24 O23 2.087 . S
Mn24 O31 2.089 . S
Mn24 O40 2.290 . S
Mn24 O41 2.251 . S
O25 Mn22 2.160 . S
O25 C36 1.239 . S
O26 Mn22 2.221 . S
O26 Mn27 2.290 . S
O26 C37 1.278 . S
Mn27 O26 2.290 . S
Mn27 O29 2.089 . S
Mn27 O32 2.251 . S
Mn27 O33 2.087 . S
O28 Mn22 2.163 . S
O28 C38 1.244 . S
O29 Mn27 2.089 . S
O29 C36 1.256 . S
O30 Mn22 2.160 . S
O30 C39 1.239 . S
O31 Mn24 2.089 . S
O31 C39 1.256 . S
O32 Mn27 2.251 . S
O32 C37 1.241 . S
O33 Mn27 2.087 . S
O33 C38 1.256 . S
C34 O40 1.278 . S
C34 O41 1.241 . S
C35 O21 1.244 . S
C35 O23 1.256 . S
C36 O25 1.239 . S
C36 O29 1.256 . S
C37 O26 1.278 . S
C37 O32 1.241 . S
C38 O28 1.244 . S
C38 O33 1.256 . S
C39 O30 1.239 . S
C39 O31 1.256 . S
O40 Mn22 2.221 . S
O40 Mn24 2.290 . S
O40 C34 1.278 . S
O41 Mn24 2.251 . S
O41 C34 1.241 . S
O42 Mn43 2.163 . S
O42 C56 1.244 . S
Mn43 O42 2.163 . S
Mn43 O46 2.160 . S
Mn43 O47 2.221 . S
Mn43 O49 2.163 . S
Mn43 O51 2.160 . S
Mn43 O61 2.221 . S
O44 Mn45 2.087 . S
O44 C56 1.256 . S
Mn45 O44 2.087 . S
Mn45 O52 2.089 . S
Mn45 O61 2.290 . S
Mn45 O62 2.251 . S
O46 Mn43 2.160 . S
O46 C57 1.239 . S
O47 Mn43 2.221 . S
O47 Mn48 2.290 . S
O47 C58 1.278 . S
Mn48 O47 2.290 . S
Mn48 O50 2.089 . S
Mn48 O53 2.251 . S
Mn48 O54 2.087 . S
O49 Mn43 2.163 . S
O49 C59 1.244 . S
O50 Mn48 2.089 . S
O50 C57 1.256 . S
O51 Mn43 2.160 . S
O51 C60 1.239 . S
O52 Mn45 2.089 . S
O52 C60 1.256 . S
O53 Mn48 2.251 . S
O53 C58 1.241 . S
O54 Mn48 2.087 . S
O54 C59 1.256 . S
C55 O61 1.278 . S
C55 O62 1.241 . S
C56 O42 1.244 . S
C56 O44 1.256 . S
C57 O46 1.239 . S
C57 O50 1.256 . S
C58 O47 1.278 . S
C58 O53 1.241 . S
C59 O49 1.244 . S
C59 O54 1.256 . S
C60 O51 1.239 . S
C60 O52 1.256 . S
O61 Mn43 2.221 . S
O61 Mn45 2.290 . S
O61 C55 1.278 . S
O62 Mn45 2.251 . S
O62 C55 1.241 . S
O63 Mn64 2.163 1_554 S
O63 C77 1.244 . S
Mn64 O63 2.163 1_556 S
Mn64 O67 2.160 . S
Mn64 O68 2.221 . S
Mn64 O70 2.163 1_556 S
Mn64 O72 2.160 . S
Mn64 O82 2.221 1_556 S
O65 Mn66 2.087 . S
O65 C77 1.256 . S
Mn66 O65 2.087 . S
Mn66 O73 2.089 1_554 S
Mn66 O82 2.290 . S
Mn66 O83 2.251 . S
O67 Mn64 2.160 . S
O67 C78 1.239 . S
O68 Mn64 2.221 . S
O68 Mn69 2.290 . S
O68 C79 1.278 . S
Mn69 O68 2.290 . S
Mn69 O71 2.089 . S
Mn69 O74 2.251 . S
Mn69 O75 2.087 1_556 S
O70 Mn64 2.163 1_554 S
O70 C80 1.244 . S
O71 Mn69 2.089 . S
O71 C78 1.256 . S
O72 Mn64 2.160 . S
O72 C81 1.239 . S
O73 Mn66 2.089 1_556 S
O73 C81 1.256 . S
O74 Mn69 2.251 . S
O74 C79 1.241 . S
O75 Mn69 2.087 1_554 S
O75 C80 1.256 . S
C76 O82 1.278 . S
C76 O83 1.241 . S
C77 O63 1.244 . S
C77 O65 1.256 . S
C78 O67 1.239 . S
C78 O71 1.256 . S
C79 O68 1.278 . S
C79 O74 1.241 . S
C80 O70 1.244 . S
C80 O75 1.256 . S
C81 O72 1.239 . S
C81 O73 1.256 . S
O82 Mn64 2.221 1_554 S
O82 Mn66 2.290 . S
O82 C76 1.278 . S
O83 Mn66 2.251 . S
O83 C76 1.241 . S
O84 Mn85 2.163 . S
O84 C98 1.244 . S
Mn85 O84 2.163 . S
Mn85 O88 2.160 . S
Mn85 O89 2.221 . S
Mn85 O91 2.163 . S
Mn85 O93 2.160 . S
Mn85 O103 2.221 . S
O86 Mn87 2.087 . S
O86 C98 1.256 . S
Mn87 O86 2.087 . S
Mn87 O94 2.089 . S
Mn87 O103 2.290 . S
Mn87 O104 2.251 . S
O88 Mn85 2.160 . S
O88 C99 1.239 . S
O89 Mn85 2.221 . S
O89 Mn90 2.290 . S
O89 C100 1.278 . S
Mn90 O89 2.290 . S
Mn90 O92 2.089 . S
Mn90 O95 2.251 . S
Mn90 O96 2.087 . S
O91 Mn85 2.163 . S
O91 C101 1.244 . S
O92 Mn90 2.089 . S
O92 C99 1.256 . S
O93 Mn85 2.160 . S
O93 C102 1.239 . S
O94 Mn87 2.089 . S
O94 C102 1.256 . S
O95 Mn90 2.251 . S
O95 C100 1.241 . S
O96 Mn90 2.087 . S
O96 C101 1.256 . S
C97 O103 1.278 . S
C97 O104 1.241 . S
C98 O84 1.244 . S
C98 O86 1.256 . S
C99 O88 1.239 . S
C99 O92 1.256 . S
C100 O89 1.278 . S
C100 O95 1.241 . S
C101 O91 1.244 . S
C101 O96 1.256 . S
C102 O93 1.239 . S
C102 O94 1.256 . S
O103 Mn85 2.221 . S
O103 Mn87 2.290 . S
O103 C97 1.278 . S
O104 Mn87 2.251 . S
O104 C97 1.241 . S
O105 Mn106 2.163 . S
O105 C119 1.244 . S
Mn106 O105 2.163 . S
Mn106 O109 2.160 . S
Mn106 O110 2.221 . S
Mn106 O112 2.163 . S
Mn106 O114 2.160 . S
Mn106 O124 2.221 . S
O107 Mn108 2.087 . S
O107 C119 1.256 . S
Mn108 O107 2.087 . S
Mn108 O115 2.089 . S
Mn108 O124 2.290 . S
Mn108 O125 2.251 . S
O109 Mn106 2.160 . S
O109 C120 1.239 . S
O110 Mn106 2.221 . S
O110 Mn111 2.290 . S
O110 C121 1.278 . S
Mn111 O110 2.290 . S
Mn111 O113 2.089 . S
Mn111 O116 2.251 . S
Mn111 O117 2.087 . S
O112 Mn106 2.163 . S
O112 C122 1.244 . S
O113 Mn111 2.089 . S
O113 C120 1.256 . S
O114 Mn106 2.160 . S
O114 C123 1.239 . S
O115 Mn108 2.089 . S
O115 C123 1.256 . S
O116 Mn111 2.251 . S
O116 C121 1.241 . S
O117 Mn111 2.087 . S
O117 C122 1.256 . S
C118 O124 1.278 . S
C118 O125 1.241 . S
C119 O105 1.244 . S
C119 O107 1.256 . S
C120 O109 1.239 . S
C120 O113 1.256 . S
C121 O110 1.278 . S
C121 O116 1.241 . S
C122 O112 1.244 . S
C122 O117 1.256 . S
C123 O114 1.239 . S
C123 O115 1.256 . S
O124 Mn106 2.221 . S
O124 Mn108 2.290 . S
O124 C118 1.278 . S
O125 Mn108 2.251 . S
O125 C118 1.241 . S
H126 C134 0.929 . S
H127 C136 0.930 . S
H128 C138 0.930 . S
H129 C141 0.929 . S
H130 C144 0.930 . S
H131 C146 0.960 . S
H132 C146 0.960 . S
H133 C146 0.960 . S
C134 H126 0.929 . S
C134 C135 1.377 . S
C134 C136 1.384 . S
C135 C134 1.377 . S
C135 C141 1.390 . S
C136 H127 0.930 . S
C136 C134 1.384 . S
C136 C137 1.372 . S
C137 C136 1.372 . S
C137 C138 1.400 . S
C137 C142 1.490 . S
C138 H128 0.930 . S
C138 C137 1.400 . S
C138 C141 1.386 . S
H139 C155 0.930 . S
H140 C156 0.931 . S
C141 H129 0.929 . S
C141 C135 1.390 . S
C141 C138 1.386 . S
C142 C137 1.490 . S
C142 C144 1.395 . S
C142 C145 1.403 . S
H143 C149 0.930 . S
C144 H130 0.930 . S
C144 C142 1.395 . S
C144 C147 1.403 . S
C145 C142 1.403 . S
C145 C146 1.524 . S
C145 C149 1.400 . S
C146 H131 0.960 . S
C146 H132 0.960 . S
C146 H133 0.960 . S
C146 C145 1.524 . S
C147 C144 1.403 . S
C147 C148 1.392 . S
C147 C151 1.495 . S
C148 C147 1.392 . S
C148 C149 1.385 . S
C148 C150 1.478 . S
C149 H143 0.930 . S
C149 C145 1.400 . S
C149 C148 1.385 . S
C150 C148 1.478 . S
C150 C152 1.381 . S
C150 C156 1.383 . S
C151 C147 1.495 . S
C151 H157 0.959 . S
C151 H158 0.961 . S
C151 H159 0.960 . S
C152 C150 1.381 . S
C152 C153 1.394 . S
C152 H160 0.930 . S
C153 C152 1.394 . S
C153 C154 1.383 . S
C153 H161 0.929 . S
C154 C153 1.383 . S
C154 C155 1.377 . S
C155 H139 0.930 . S
C155 C154 1.377 . S
C155 C156 1.379 . S
C156 H140 0.931 . S
C156 C150 1.383 . S
C156 C155 1.379 . S
H157 C151 0.959 . S
H158 C151 0.961 . S
H159 C151 0.960 . S
H160 C152 0.930 . S
H161 C153 0.929 . S
H162 C170 0.929 . S
H163 C172 0.930 . S
H164 C174 0.930 . S
H165 C177 0.929 . S
H166 C180 0.930 . S
H167 C182 0.960 . S
H168 C182 0.960 . S
H169 C182 0.960 . S
C170 H162 0.929 . S
C170 C171 1.377 . S
C170 C172 1.384 . S
C171 C170 1.377 . S
C171 C177 1.390 . S
C172 H163 0.930 . S
C172 C170 1.384 . S
C172 C173 1.372 . S
C173 C172 1.372 . S
C173 C174 1.400 . S
C173 C178 1.490 . S
C174 H164 0.930 . S
C174 C173 1.400 . S
C174 C177 1.386 . S
H175 C191 0.930 . S
H176 C192 0.931 . S
C177 H165 0.929 . S
C177 C171 1.390 . S
C177 C174 1.386 . S
C178 C173 1.490 . S
C178 C180 1.395 . S
C178 C181 1.403 . S
H179 C185 0.930 . S
C180 H166 0.930 . S
C180 C178 1.395 . S
C180 C183 1.403 . S
C181 C178 1.403 . S
C181 C182 1.524 . S
C181 C185 1.400 . S
C182 H167 0.960 . S
C182 H168 0.960 . S
C182 H169 0.960 . S
C182 C181 1.524 . S
C183 C180 1.403 . S
C183 C184 1.392 . S
C183 C187 1.495 . S
C184 C183 1.392 . S
C184 C185 1.385 . S
C184 C186 1.478 . S
C185 H179 0.930 . S
C185 C181 1.400 . S
C185 C184 1.385 . S
C186 C184 1.478 . S
C186 C188 1.381 . S
C186 C192 1.383 . S
C187 C183 1.495 . S
C187 H193 0.959 . S
C187 H194 0.961 . S
C187 H195 0.960 . S
C188 C186 1.381 . S
C188 C189 1.394 . S
C188 H196 0.930 . S
C189 C188 1.394 . S
C189 C190 1.383 . S
C189 H197 0.929 . S
C190 C189 1.383 . S
C190 C191 1.377 . S
C191 H175 0.930 . S
C191 C190 1.377 . S
C191 C192 1.379 . S
C192 H176 0.931 . S
C192 C186 1.383 . S
C192 C191 1.379 . S
H193 C187 0.959 . S
H194 C187 0.961 . S
H195 C187 0.960 . S
H196 C188 0.930 . S
H197 C189 0.929 . S
H198 C206 0.929 . S
H199 C208 0.930 . S
H200 C210 0.930 . S
H201 C213 0.929 . S
H202 C216 0.930 . S
H203 C218 0.960 . S
H204 C218 0.960 . S
H205 C218 0.960 . S
C206 H198 0.929 . S
C206 C207 1.377 . S
C206 C208 1.384 . S
C207 C206 1.377 . S
C207 C213 1.390 . S
C208 H199 0.930 . S
C208 C206 1.384 . S
C208 C209 1.372 . S
C209 C208 1.372 . S
C209 C210 1.400 . S
C209 C214 1.490 . S
C210 H200 0.930 . S
C210 C209 1.400 . S
C210 C213 1.386 . S
H211 C227 0.930 . S
H212 C228 0.931 . S
C213 H201 0.929 . S
C213 C207 1.390 . S
C213 C210 1.386 . S
C214 C209 1.490 . S
C214 C216 1.395 . S
C214 C217 1.403 . S
H215 C221 0.930 . S
C216 H202 0.930 . S
C216 C214 1.395 . S
C216 C219 1.403 . S
C217 C214 1.403 . S
C217 C218 1.524 . S
C217 C221 1.400 . S
C218 H203 0.960 . S
C218 H204 0.960 . S
C218 H205 0.960 . S
C218 C217 1.524 . S
C219 C216 1.403 . S
C219 C220 1.392 . S
C219 C223 1.495 . S
C220 C219 1.392 . S
C220 C221 1.385 . S
C220 C222 1.478 . S
C221 H215 0.930 . S
C221 C217 1.400 . S
C221 C220 1.385 . S
C222 C220 1.478 . S
C222 C224 1.381 . S
C222 C228 1.383 . S
C223 C219 1.495 . S
C223 H229 0.959 . S
C223 H230 0.961 . S
C223 H231 0.960 . S
C224 C222 1.381 . S
C224 C225 1.394 . S
C224 H232 0.930 . S
C225 C224 1.394 . S
C225 C226 1.383 . S
C225 H233 0.929 . S
C226 C225 1.383 . S
C226 C227 1.377 . S
C227 H211 0.930 . S
C227 C226 1.377 . S
C227 C228 1.379 . S
C228 H212 0.931 . S
C228 C222 1.383 . S
C228 C227 1.379 . S
H229 C223 0.959 . S
H230 C223 0.961 . S
H231 C223 0.960 . S
H232 C224 0.930 . S
H233 C225 0.929 . S
H234 C242 0.929 . S
H235 C244 0.930 . S
H236 C246 0.930 . S
H237 C249 0.929 . S
H238 C252 0.930 . S
H239 C254 0.960 . S
H240 C254 0.960 . S
H241 C254 0.960 . S
C242 H234 0.929 . S
C242 C243 1.377 . S
C242 C244 1.384 . S
C243 C242 1.377 . S
C243 C249 1.390 . S
C244 H235 0.930 . S
C244 C242 1.384 . S
C244 C245 1.372 . S
C245 C244 1.372 . S
C245 C246 1.400 . S
C245 C250 1.490 . S
C246 H236 0.930 . S
C246 C245 1.400 . S
C246 C249 1.386 . S
H247 C263 0.930 . S
H248 C264 0.931 . S
C249 H237 0.929 . S
C249 C243 1.390 . S
C249 C246 1.386 . S
C250 C245 1.490 . S
C250 C252 1.395 . S
C250 C253 1.403 . S
H251 C257 0.930 . S
C252 H238 0.930 . S
C252 C250 1.395 . S
C252 C255 1.403 . S
C253 C250 1.403 . S
C253 C254 1.524 . S
C253 C257 1.400 . S
C254 H239 0.960 . S
C254 H240 0.960 . S
C254 H241 0.960 . S
C254 C253 1.524 . S
C255 C252 1.403 . S
C255 C256 1.392 . S
C255 C259 1.495 . S
C256 C255 1.392 . S
C256 C257 1.385 . S
C256 C258 1.478 . S
C257 H251 0.930 . S
C257 C253 1.400 . S
C257 C256 1.385 . S
C258 C256 1.478 . S
C258 C260 1.381 . S
C258 C264 1.383 . S
C259 C255 1.495 . S
C259 H265 0.959 . S
C259 H266 0.961 . S
C259 H267 0.960 . S
C260 C258 1.381 . S
C260 C261 1.394 . S
C260 H268 0.930 . S
C261 C260 1.394 . S
C261 C262 1.383 . S
C261 H269 0.929 . S
C262 C261 1.383 . S
C262 C263 1.377 . S
C263 H247 0.930 . S
C263 C262 1.377 . S
C263 C264 1.379 . S
C264 H248 0.931 . S
C264 C258 1.383 . S
C264 C263 1.379 . S
H265 C259 0.959 . S
H266 C259 0.961 . S
H267 C259 0.960 . S
H268 C260 0.930 . S
H269 C261 0.929 . S
H270 C278 0.929 . S
H271 C280 0.930 . S
H272 C282 0.930 . S
H273 C285 0.929 . S
H274 C288 0.930 . S
H275 C290 0.960 . S
H276 C290 0.960 . S
H277 C290 0.960 . S
C278 H270 0.929 . S
C278 C279 1.377 . S
C278 C280 1.384 . S
C279 C278 1.377 . S
C279 C285 1.390 . S
C280 H271 0.930 . S
C280 C278 1.384 . S
C280 C281 1.372 . S
C281 C280 1.372 . S
C281 C282 1.400 . S
C281 C286 1.490 . S
C282 H272 0.930 . S
C282 C281 1.400 . S
C282 C285 1.386 . S
H283 C299 0.930 . S
H284 C300 0.931 . S
C285 H273 0.929 . S
C285 C279 1.390 . S
C285 C282 1.386 . S
C286 C281 1.490 . S
C286 C288 1.395 . S
C286 C289 1.403 . S
H287 C293 0.930 . S
C288 H274 0.930 . S
C288 C286 1.395 . S
C288 C291 1.403 . S
C289 C286 1.403 . S
C289 C290 1.524 . S
C289 C293 1.400 . S
C290 H275 0.960 . S
C290 H276 0.960 . S
C290 H277 0.960 . S
C290 C289 1.524 . S
C291 C288 1.403 . S
C291 C292 1.392 . S
C291 C295 1.495 . S
C292 C291 1.392 . S
C292 C293 1.385 . S
C292 C294 1.478 . S
C293 H287 0.930 . S
C293 C289 1.400 . S
C293 C292 1.385 . S
C294 C292 1.478 . S
C294 C296 1.381 . S
C294 C300 1.383 . S
C295 C291 1.495 . S
C295 H301 0.959 . S
C295 H302 0.961 . S
C295 H303 0.960 . S
C296 C294 1.381 . S
C296 C297 1.394 . S
C296 H304 0.930 . S
C297 C296 1.394 . S
C297 C298 1.383 . S
C297 H305 0.929 . S
C298 C297 1.383 . S
C298 C299 1.377 . S
C299 H283 0.930 . S
C299 C298 1.377 . S
C299 C300 1.379 . S
C300 H284 0.931 . S
C300 C294 1.383 . S
C300 C299 1.379 . S
H301 C295 0.959 . S
H302 C295 0.961 . S
H303 C295 0.960 . S
H304 C296 0.930 . S
H305 C297 0.929 . S
H306 C314 0.929 . S
H307 C316 0.930 . S
H308 C318 0.930 . S
H309 C321 0.929 . S
H310 C324 0.930 . S
H311 C326 0.960 . S
H312 C326 0.960 . S
H313 C326 0.960 . S
C314 H306 0.929 . S
C314 C315 1.377 . S
C314 C316 1.384 . S
C315 C314 1.377 . S
C315 C321 1.390 . S
C316 H307 0.930 . S
C316 C314 1.384 . S
C316 C317 1.372 . S
C317 C316 1.372 . S
C317 C318 1.400 . S
C317 C322 1.490 . S
C318 H308 0.930 . S
C318 C317 1.400 . S
C318 C321 1.386 . S
H319 C335 0.930 . S
H320 C336 0.931 . S
C321 H309 0.929 . S
C321 C315 1.390 . S
C321 C318 1.386 . S
C322 C317 1.490 . S
C322 C324 1.395 . S
C322 C325 1.403 . S
H323 C329 0.930 . S
C324 H310 0.930 . S
C324 C322 1.395 . S
C324 C327 1.403 . S
C325 C322 1.403 . S
C325 C326 1.524 . S
C325 C329 1.400 . S
C326 H311 0.960 . S
C326 H312 0.960 . S
C326 H313 0.960 . S
C326 C325 1.524 . S
C327 C324 1.403 . S
C327 C328 1.392 . S
C327 C331 1.495 . S
C328 C327 1.392 . S
C328 C329 1.385 . S
C328 C330 1.478 . S
C329 H323 0.930 . S
C329 C325 1.400 . S
C329 C328 1.385 . S
C330 C328 1.478 . S
C330 C332 1.381 . S
C330 C336 1.383 . S
C331 C327 1.495 . S
C331 H337 0.959 . S
C331 H338 0.961 . S
C331 H339 0.960 . S
C332 C330 1.381 . S
C332 C333 1.394 . S
C332 H340 0.930 . S
C333 C332 1.394 . S
C333 C334 1.383 . S
C333 H341 0.929 . S
C334 C333 1.383 . S
C334 C335 1.377 . S
C335 H319 0.930 . S
C335 C334 1.377 . S
C335 C336 1.379 . S
C336 H320 0.931 . S
C336 C330 1.383 . S
C336 C335 1.379 . S
H337 C331 0.959 . S
H338 C331 0.961 . S
H339 C331 0.960 . S
H340 C332 0.930 . S
H341 C333 0.929 . S
H342 C350 0.929 . S
H343 C352 0.930 . S
H344 C354 0.930 . S
H345 C357 0.929 . S
H346 C360 0.930 . S
H347 C362 0.957 1_556 S
H348 C362 0.930 1_556 S
H349 C362 0.986 . S
C350 H342 0.929 . S
C350 C351 1.377 1_556 S
C350 C352 1.384 . S
C351 C350 1.377 1_554 S
C351 C357 1.390 . S
C352 H343 0.930 . S
C352 C350 1.384 . S
C352 C353 1.372 1_556 S
C353 C352 1.372 1_554 S
C353 C354 1.400 . S
C353 C358 1.490 . S
C354 H344 0.930 . S
C354 C353 1.400 . S
C354 C357 1.386 . S
H355 C371 0.930 . S
H356 C372 0.931 . S
C357 H345 0.929 . S
C357 C351 1.390 . S
C357 C354 1.386 . S
C358 C353 1.490 . S
C358 C360 1.395 . S
C358 C361 1.403 . S
H359 C365 0.930 . S
C360 H346 0.930 . S
C360 C358 1.395 . S
C360 C363 1.403 . S
C361 C358 1.403 . S
C361 C362 1.532 . S
C361 C365 1.400 . S
C362 H347 0.957 1_554 S
C362 H348 0.930 1_554 S
C362 H349 0.986 . S
C362 C361 1.532 . S
C363 C360 1.403 . S
C363 C364 1.392 . S
C363 C367 1.495 . S
C364 C363 1.392 . S
C364 C365 1.385 . S
C364 C366 1.478 . S
C365 H359 0.930 . S
C365 C361 1.400 . S
C365 C364 1.385 . S
C366 C364 1.478 . S
C366 C368 1.381 1_554 S
C366 C372 1.383 . S
C367 C363 1.495 . S
C367 H373 0.959 . S
C367 H374 0.961 . S
C367 H375 0.960 . S
C368 C366 1.381 1_556 S
C368 C369 1.394 . S
C368 H376 0.930 . S
C369 C368 1.394 . S
C369 C370 1.383 1_556 S
C369 H377 0.929 . S
C370 C369 1.383 1_554 S
C370 C371 1.377 . S
C371 H355 0.930 . S
C371 C370 1.377 . S
C371 C372 1.379 . S
C372 H356 0.931 . S
C372 C366 1.383 . S
C372 C371 1.379 . S
H373 C367 0.959 . S
H374 C367 0.961 . S
H375 C367 0.960 . S
H376 C368 0.930 . S
H377 C369 0.929 . S
H378 C386 0.929 . S
H379 C388 0.930 . S
H380 C390 0.930 . S
H381 C393 0.929 . S
H382 C396 0.925 . S
H383 C398 0.960 . S
H384 C398 0.960 . S
H385 C398 0.960 . S
C386 H378 0.929 . S
C386 C387 1.377 . S
C386 C388 1.384 . S
C387 C386 1.377 . S
C387 C393 1.390 . S
C388 H379 0.930 . S
C388 C386 1.384 . S
C388 C389 1.372 . S
C389 C388 1.372 . S
C389 C390 1.400 . S
C389 C394 1.490 . S
C390 H380 0.930 . S
C390 C389 1.400 . S
C390 C393 1.386 . S
H391 C407 0.930 . S
H392 C408 0.931 . S
C393 H381 0.929 . S
C393 C387 1.390 . S
C393 C390 1.386 . S
C394 C389 1.490 . S
C394 C396 1.402 . S
C394 C397 1.403 . S
H395 C401 0.930 . S
C396 H382 0.925 . S
C396 C394 1.402 . S
C396 C399 1.402 1_455 S
C397 C394 1.403 . S
C397 C398 1.524 . S
C397 C401 1.400 1_455 S
C398 H383 0.960 . S
C398 H384 0.960 . S
C398 H385 0.960 . S
C398 C397 1.524 . S
C399 C396 1.402 1_655 S
C399 C400 1.392 . S
C399 C403 1.495 . S
C400 C399 1.392 . S
C400 C401 1.385 . S
C400 C402 1.478 . S
C401 H395 0.930 . S
C401 C397 1.400 1_655 S
C401 C400 1.385 . S
C402 C400 1.478 . S
C402 C404 1.381 . S
C402 C408 1.383 . S
C403 C399 1.495 . S
C403 H409 0.959 . S
C403 H410 0.961 . S
C403 H411 0.960 . S
C404 C402 1.381 . S
C404 C405 1.394 . S
C404 H412 0.930 . S
C405 C404 1.394 . S
C405 C406 1.383 . S
C405 H413 0.929 . S
C406 C405 1.383 . S
C406 C407 1.377 . S
C407 H391 0.930 . S
C407 C406 1.377 . S
C407 C408 1.379 . S
C408 H392 0.931 . S
C408 C402 1.383 . S
C408 C407 1.379 . S
H409 C403 0.959 . S
H410 C403 0.961 . S
H411 C403 0.960 . S
H412 C404 0.930 . S
H413 C405 0.929 . S
H414 C422 0.929 . S
H415 C424 0.930 . S
H416 C426 0.930 . S
H417 C429 0.929 . S
H418 C432 0.930 . S
H419 C434 0.960 . S
H420 C434 0.960 . S
H421 C434 0.960 . S
C422 H414 0.929 . S
C422 C423 1.377 . S
C422 C424 1.384 . S
C423 C422 1.377 . S
C423 C429 1.390 . S
C424 H415 0.930 . S
C424 C422 1.384 . S
C424 C425 1.372 . S
C425 C424 1.372 . S
C425 C426 1.400 . S
C425 C430 1.490 . S
C426 H416 0.930 . S
C426 C425 1.400 . S
C426 C429 1.386 . S
H427 C443 0.930 . S
H428 C444 0.931 . S
C429 H417 0.929 . S
C429 C423 1.390 . S
C429 C426 1.386 . S
C430 C425 1.490 . S
C430 C432 1.395 . S
C430 C433 1.403 1_545 S
H431 C437 0.930 . S
C432 H418 0.930 . S
C432 C430 1.395 . S
C432 C435 1.403 . S
C433 C430 1.403 1_565 S
C433 C434 1.524 . S
C433 C437 1.400 . S
C434 H419 0.960 . S
C434 H420 0.960 . S
C434 H421 0.960 . S
C434 C433 1.524 . S
C435 C432 1.403 . S
C435 C436 1.392 1_545 S
C435 C439 1.495 . S
C436 C435 1.392 1_565 S
C436 C437 1.385 . S
C436 C438 1.478 . S
C437 H431 0.930 . S
C437 C433 1.400 . S
C437 C436 1.385 . S
C438 C436 1.478 . S
C438 C440 1.381 . S
C438 C444 1.383 . S
C439 C435 1.495 . S
C439 H445 0.959 . S
C439 H446 0.961 . S
C439 H447 0.960 . S
C440 C438 1.381 . S
C440 C441 1.394 . S
C440 H448 0.930 . S
C441 C440 1.394 . S
C441 C442 1.383 . S
C441 H449 0.929 . S
C442 C441 1.383 . S
C442 C443 1.377 . S
C443 H427 0.930 . S
C443 C442 1.377 . S
C443 C444 1.379 . S
C444 H428 0.931 . S
C444 C438 1.383 . S
C444 C443 1.379 . S
H445 C439 0.959 . S
H446 C439 0.961 . S
H447 C439 0.960 . S
H448 C440 0.930 . S
H449 C441 0.929 . S
H450 C458 0.929 . S
H451 C460 0.930 . S
H452 C462 0.930 . S
H453 C465 0.929 . S
H454 C468 0.930 . S
H455 C470 0.960 . S
H456 C470 0.960 . S
H457 C470 0.960 . S
C458 H450 0.929 . S
C458 C459 1.377 . S
C458 C460 1.384 . S
C459 C458 1.377 . S
C459 C465 1.390 . S
C460 H451 0.930 . S
C460 C458 1.384 . S
C460 C461 1.372 . S
C461 C460 1.372 . S
C461 C462 1.400 . S
C461 C466 1.490 . S
C462 H452 0.930 . S
C462 C461 1.400 . S
C462 C465 1.386 . S
H463 C479 0.930 . S
H464 C480 0.931 . S
C465 H453 0.929 . S
C465 C459 1.390 . S
C465 C462 1.386 . S
C466 C461 1.490 . S
C466 C468 1.395 . S
C466 C469 1.403 . S
H467 C473 0.930 . S
C468 H454 0.930 . S
C468 C466 1.395 . S
C468 C471 1.403 . S
C469 C466 1.403 . S
C469 C470 1.524 . S
C469 C473 1.400 . S
C470 H455 0.960 . S
C470 H456 0.960 . S
C470 H457 0.960 . S
C470 C469 1.524 . S
C471 C468 1.403 . S
C471 C472 1.392 . S
C471 C475 1.495 . S
C472 C471 1.392 . S
C472 C473 1.385 . S
C472 C474 1.478 . S
C473 H467 0.930 . S
C473 C469 1.400 . S
C473 C472 1.385 . S
C474 C472 1.478 . S
C474 C476 1.381 . S
C474 C480 1.383 . S
C475 C471 1.495 . S
C475 H481 0.959 . S
C475 H482 0.961 . S
C475 H483 0.960 . S
C476 C474 1.381 . S
C476 C477 1.394 . S
C476 H484 0.930 . S
C477 C476 1.394 . S
C477 C478 1.383 . S
C477 H485 0.929 . S
C478 C477 1.383 . S
C478 C479 1.377 . S
C479 H463 0.930 . S
C479 C478 1.377 . S
C479 C480 1.379 . S
C480 H464 0.931 . S
C480 C474 1.383 . S
C480 C479 1.379 . S
H481 C475 0.959 . S
H482 C475 0.961 . S
H483 C475 0.960 . S
H484 C476 0.930 . S
H485 C477 0.929 . S
H486 C494 0.929 . S
H487 C496 0.930 . S
H488 C498 0.930 . S
H489 C501 0.929 . S
H490 C504 0.930 . S
H491 C506 0.960 . S
H492 C506 0.960 1_554 S
H493 C506 0.960 . S
C494 H486 0.929 . S
C494 C495 1.377 1_554 S
C494 C496 1.384 . S
C495 C494 1.377 1_556 S
C495 C501 1.390 . S
C496 H487 0.930 . S
C496 C494 1.384 . S
C496 C497 1.372 1_554 S
C497 C496 1.372 1_556 S
C497 C498 1.400 . S
C497 C502 1.490 . S
C498 H488 0.930 . S
C498 C497 1.400 . S
C498 C501 1.386 . S
H499 C515 0.930 . S
H500 C516 0.931 . S
C501 H489 0.929 . S
C501 C495 1.390 . S
C501 C498 1.386 . S
C502 C497 1.490 . S
C502 C504 1.395 . S
C502 C505 1.403 1_455 S
H503 C509 0.930 . S
C504 H490 0.930 . S
C504 C502 1.395 . S
C504 C507 1.403 . S
C505 C502 1.403 1_655 S
C505 C506 1.524 . S
C505 C509 1.400 . S
C506 H491 0.960 . S
C506 H492 0.960 1_556 S
C506 H493 0.960 . S
C506 C505 1.524 . S
C507 C504 1.403 . S
C507 C508 1.392 1_455 S
C507 C511 1.495 . S
C508 C507 1.392 1_655 S
C508 C509 1.385 . S
C508 C510 1.478 . S
C509 H503 0.930 . S
C509 C505 1.400 . S
C509 C508 1.385 . S
C510 C508 1.478 . S
C510 C512 1.381 1_556 S
C510 C516 1.383 . S
C511 C507 1.495 . S
C511 H517 0.959 . S
C511 H518 0.961 . S
C511 H519 0.960 . S
C512 C510 1.381 1_554 S
C512 C513 1.394 . S
C512 H520 0.930 . S
C513 C512 1.394 . S
C513 C514 1.383 1_554 S
C513 H521 0.929 . S
C514 C513 1.383 1_556 S
C514 C515 1.377 . S
C515 H499 0.930 . S
C515 C514 1.377 . S
C515 C516 1.379 . S
C516 H500 0.931 . S
C516 C510 1.383 . S
C516 C515 1.379 . S
H517 C511 0.959 . S
H518 C511 0.961 . S
H519 C511 0.960 . S
H520 C512 0.930 . S
H521 C513 0.929 . S
H522 C530 0.929 . S
H523 C532 0.936 . S
H524 C534 0.930 . S
H525 C537 0.929 . S
H526 C540 0.924 . S
H527 C542 0.960 . S
H528 C542 0.960 . S
H529 C542 0.960 . S
C530 H522 0.929 . S
C530 C531 1.377 . S
C530 C532 1.384 . S
C531 C530 1.377 . S
C531 C537 1.390 . S
C532 H523 0.936 . S
C532 C530 1.384 . S
C532 C533 1.372 . S
C533 C532 1.372 . S
C533 C534 1.400 . S
C533 C538 1.490 . S
C534 H524 0.930 . S
C534 C533 1.400 . S
C534 C537 1.386 . S
H535 C551 0.930 . S
H536 C552 0.931 . S
C537 H525 0.929 . S
C537 C531 1.390 . S
C537 C534 1.386 . S
C538 C533 1.490 . S
C538 C540 1.403 . S
C538 C541 1.403 . S
H539 C545 0.930 . S
C540 H526 0.924 . S
C540 C538 1.403 . S
C540 C543 1.402 1_565 S
C541 C538 1.403 . S
C541 C542 1.524 . S
C541 C545 1.400 1_565 S
C542 H527 0.960 . S
C542 H528 0.960 . S
C542 H529 0.960 . S
C542 C541 1.524 . S
C543 C540 1.402 1_545 S
C543 C544 1.392 . S
C543 C547 1.495 . S
C544 C543 1.392 . S
C544 C545 1.385 . S
C544 C546 1.478 . S
C545 H539 0.930 . S
C545 C541 1.400 1_545 S
C545 C544 1.385 . S
C546 C544 1.478 . S
C546 C548 1.381 . S
C546 C552 1.383 . S
C547 C543 1.495 . S
C547 H553 0.959 . S
C547 H554 0.961 . S
C547 H555 0.960 . S
C548 C546 1.381 . S
C548 C549 1.394 . S
C548 H556 0.930 . S
C549 C548 1.394 . S
C549 C550 1.383 . S
C549 H557 0.929 . S
C550 C549 1.383 . S
C550 C551 1.377 . S
C551 H535 0.930 . S
C551 C550 1.377 . S
C551 C552 1.379 . S
C552 H536 0.931 . S
C552 C546 1.383 . S
C552 C551 1.379 . S
H553 C547 0.959 . S
H554 C547 0.961 . S
H555 C547 0.960 . S
H556 C548 0.930 . S
H557 C549 0.929 . S
H558 C566 0.929 . S
H559 C568 0.930 . S
H560 C570 0.930 . S
H561 C573 0.929 . S
H562 C576 0.930 . S
H563 C578 0.960 . S
H564 C578 0.960 . S
H565 C578 0.960 . S
C566 H558 0.929 . S
C566 C567 1.377 . S
C566 C568 1.384 . S
C567 C566 1.377 . S
C567 C573 1.390 . S
C568 H559 0.930 . S
C568 C566 1.384 . S
C568 C569 1.372 . S
C569 C568 1.372 . S
C569 C570 1.400 . S
C569 C574 1.490 . S
C570 H560 0.930 . S
C570 C569 1.400 . S
C570 C573 1.386 . S
H571 C587 0.930 . S
H572 C588 0.931 . S
C573 H561 0.929 . S
C573 C567 1.390 . S
C573 C570 1.386 . S
C574 C569 1.490 . S
C574 C576 1.395 . S
C574 C577 1.403 . S
H575 C581 0.930 . S
C576 H562 0.930 . S
C576 C574 1.395 . S
C576 C579 1.403 . S
C577 C574 1.403 . S
C577 C578 1.524 . S
C577 C581 1.400 . S
C578 H563 0.960 . S
C578 H564 0.960 . S
C578 H565 0.960 . S
C578 C577 1.524 . S
C579 C576 1.403 . S
C579 C580 1.392 . S
C579 C583 1.495 . S
C580 C579 1.392 . S
C580 C581 1.385 . S
C580 C582 1.478 . S
C581 H575 0.930 . S
C581 C577 1.400 . S
C581 C580 1.385 . S
C582 C580 1.478 . S
C582 C584 1.381 . S
C582 C588 1.383 . S
C583 C579 1.495 . S
C583 H589 0.959 . S
C583 H590 0.961 . S
C583 H591 0.960 . S
C584 C582 1.381 . S
C584 C585 1.394 . S
C584 H592 0.930 . S
C585 C584 1.394 . S
C585 C586 1.383 . S
C585 H593 0.929 . S
C586 C585 1.383 . S
C586 C587 1.377 . S
C587 H571 0.930 . S
C587 C586 1.377 . S
C587 C588 1.379 . S
C588 H572 0.931 . S
C588 C582 1.383 . S
C588 C587 1.379 . S
H589 C583 0.959 . S
H590 C583 0.961 . S
H591 C583 0.960 . S
H592 C584 0.930 . S
H593 C585 0.929 . S
H594 C602 0.929 . S
H595 C604 0.930 . S
H596 C606 0.930 . S
H597 C609 0.929 . S
H598 C612 0.930 . S
H599 C614 0.960 . S
H600 C614 0.960 . S
H601 C614 0.960 . S
C602 H594 0.929 . S
C602 C603 1.377 . S
C602 C604 1.384 . S
C603 C602 1.377 . S
C603 C609 1.390 . S
C604 H595 0.930 . S
C604 C602 1.384 . S
C604 C605 1.372 . S
C605 C604 1.372 . S
C605 C606 1.400 . S
C605 C610 1.490 . S
C606 H596 0.930 . S
C606 C605 1.400 . S
C606 C609 1.386 . S
H607 C623 0.930 . S
H608 C624 0.931 . S
C609 H597 0.929 . S
C609 C603 1.390 . S
C609 C606 1.386 . S
C610 C605 1.490 . S
C610 C612 1.395 . S
C610 C613 1.403 1_655 S
H611 C617 0.930 . S
C612 H598 0.930 . S
C612 C610 1.395 . S
C612 C615 1.403 . S
C613 C610 1.403 1_455 S
C613 C614 1.524 . S
C613 C617 1.400 . S
C614 H599 0.960 . S
C614 H600 0.960 . S
C614 H601 0.960 . S
C614 C613 1.524 . S
C615 C612 1.403 . S
C615 C616 1.392 1_655 S
C615 C619 1.495 . S
C616 C615 1.392 1_455 S
C616 C617 1.385 . S
C616 C618 1.478 . S
C617 H611 0.930 . S
C617 C613 1.400 . S
C617 C616 1.385 . S
C618 C616 1.478 . S
C618 C620 1.381 . S
C618 C624 1.383 . S
C619 C615 1.495 . S
C619 H625 0.959 . S
C619 H626 0.961 . S
C619 H627 0.960 . S
C620 C618 1.381 . S
C620 C621 1.394 . S
C620 H628 0.930 . S
C621 C620 1.394 . S
C621 C622 1.383 . S
C621 H629 0.929 . S
C622 C621 1.383 . S
C622 C623 1.377 . S
C623 H607 0.930 . S
C623 C622 1.377 . S
C623 C624 1.379 . S
C624 H608 0.931 . S
C624 C618 1.383 . S
C624 C623 1.379 . S
H625 C619 0.959 . S
H626 C619 0.961 . S
H627 C619 0.960 . S
H628 C620 0.930 . S
H629 C621 0.929 . S
H630 C638 0.929 . S
H631 C640 0.930 . S
H632 C642 0.930 . S
H633 C645 0.929 . S
H634 C648 0.930 . S
H635 C650 0.960 . S
H636 C650 0.960 . S
H637 C650 0.960 . S
C638 H630 0.929 . S
C638 C639 1.377 . S
C638 C640 1.384 . S
C639 C638 1.377 . S
C639 C645 1.390 . S
C640 H631 0.930 . S
C640 C638 1.384 . S
C640 C641 1.372 . S
C641 C640 1.372 . S
C641 C642 1.400 . S
C641 C646 1.490 . S
C642 H632 0.930 . S
C642 C641 1.400 . S
C642 C645 1.386 . S
H643 C659 0.930 . S
H644 C660 0.931 . S
C645 H633 0.929 . S
C645 C639 1.390 . S
C645 C642 1.386 . S
C646 C641 1.490 . S
C646 C648 1.395 . S
C646 C649 1.403 1_565 S
H647 C653 0.930 . S
C648 H634 0.930 . S
C648 C646 1.395 . S
C648 C651 1.403 . S
C649 C646 1.403 1_545 S
C649 C650 1.524 . S
C649 C653 1.400 . S
C650 H635 0.960 . S
C650 H636 0.960 . S
C650 H637 0.960 . S
C650 C649 1.524 . S
C651 C648 1.403 . S
C651 C652 1.392 1_565 S
C651 C655 1.495 . S
C652 C651 1.392 1_545 S
C652 C653 1.385 . S
C652 C654 1.478 . S
C653 H647 0.930 . S
C653 C649 1.400 . S
C653 C652 1.385 . S
C654 C652 1.478 . S
C654 C656 1.381 . S
C654 C660 1.383 . S
C655 C651 1.495 . S
C655 H661 0.959 . S
C655 H662 0.961 . S
C655 H663 0.960 . S
C656 C654 1.381 . S
C656 C657 1.394 . S
C656 H664 0.930 . S
C657 C656 1.394 . S
C657 C658 1.383 . S
C657 H665 0.929 . S
C658 C657 1.383 . S
C658 C659 1.377 . S
C659 H643 0.930 . S
C659 C658 1.377 . S
C659 C660 1.379 . S
C660 H644 0.931 . S
C660 C654 1.383 . S
C660 C659 1.379 . S
H661 C655 0.959 . S
H662 C655 0.961 . S
H663 C655 0.960 . S
H664 C656 0.930 . S
H665 C657 0.929 . S
H666 C674 0.929 . S
H667 C676 0.930 . S
H668 C678 0.930 . S
H669 C681 0.929 . S
H670 C684 0.930 . S
H671 C686 0.960 . S
H672 C686 0.960 . S
H673 C686 0.960 . S
C674 H666 0.929 . S
C674 C675 1.377 . S
C674 C676 1.384 . S
C675 C674 1.377 . S
C675 C681 1.390 . S
C676 H667 0.930 . S
C676 C674 1.384 . S
C676 C677 1.372 . S
C677 C676 1.372 . S
C677 C678 1.400 . S
C677 C682 1.490 . S
C678 H668 0.930 . S
C678 C677 1.400 . S
C678 C681 1.386 . S
H679 C695 0.930 . S
H680 C696 0.931 . S
C681 H669 0.929 . S
C681 C675 1.390 . S
C681 C678 1.386 . S
C682 C677 1.490 . S
C682 C684 1.395 . S
C682 C685 1.403 . S
H683 C689 0.930 . S
C684 H670 0.930 . S
C684 C682 1.395 . S
C684 C687 1.403 . S
C685 C682 1.403 . S
C685 C686 1.524 . S
C685 C689 1.400 . S
C686 H671 0.960 . S
C686 H672 0.960 . S
C686 H673 0.960 . S
C686 C685 1.524 . S
C687 C684 1.403 . S
C687 C688 1.392 . S
C687 C691 1.495 . S
C688 C687 1.392 . S
C688 C689 1.385 . S
C688 C690 1.478 . S
C689 H683 0.930 . S
C689 C685 1.400 . S
C689 C688 1.385 . S
C690 C688 1.478 . S
C690 C692 1.381 . S
C690 C696 1.383 . S
C691 C687 1.495 . S
C691 H697 0.959 . S
C691 H698 0.961 . S
C691 H699 0.960 . S
C692 C690 1.381 . S
C692 C693 1.394 . S
C692 H700 0.930 . S
C693 C692 1.394 . S
C693 C694 1.383 . S
C693 H701 0.929 . S
C694 C693 1.383 . S
C694 C695 1.377 . S
C695 H679 0.930 . S
C695 C694 1.377 . S
C695 C696 1.379 . S
C696 H680 0.931 . S
C696 C690 1.383 . S
C696 C695 1.379 . S
H697 C691 0.959 . S
H698 C691 0.961 . S
H699 C691 0.960 . S
H700 C692 0.930 . S
H701 C693 0.929 . S
H702 C710 0.929 . S
H703 C712 0.930 . S
H704 C714 0.930 . S
H705 C717 0.929 . S
H706 C720 0.930 . S
H707 C722 0.960 . S
H708 C722 0.960 . S
H709 C722 0.960 . S
C710 H702 0.929 . S
C710 C711 1.377 . S
C710 C712 1.384 . S
C711 C710 1.377 . S
C711 C717 1.390 . S
C712 H703 0.930 . S
C712 C710 1.384 . S
C712 C713 1.372 . S
C713 C712 1.372 . S
C713 C714 1.400 . S
C713 C718 1.490 . S
C714 H704 0.930 . S
C714 C713 1.400 . S
C714 C717 1.386 . S
H715 C731 0.930 . S
H716 C732 0.931 . S
C717 H705 0.929 . S
C717 C711 1.390 . S
C717 C714 1.386 . S
C718 C713 1.490 . S
C718 C720 1.395 . S
C718 C721 1.403 . S
H719 C725 0.930 . S
C720 H706 0.930 . S
C720 C718 1.395 . S
C720 C723 1.403 1_455 S
C721 C718 1.403 . S
C721 C722 1.524 . S
C721 C725 1.400 1_455 S
C722 H707 0.960 . S
C722 H708 0.960 . S
C722 H709 0.960 . S
C722 C721 1.524 . S
C723 C720 1.403 1_655 S
C723 C724 1.392 . S
C723 C727 1.495 . S
C724 C723 1.392 . S
C724 C725 1.385 . S
C724 C726 1.478 . S
C725 H719 0.930 . S
C725 C721 1.400 1_655 S
C725 C724 1.385 . S
C726 C724 1.478 . S
C726 C728 1.381 . S
C726 C732 1.383 . S
C727 C723 1.495 . S
C727 H733 0.959 . S
C727 H734 0.961 . S
C727 H735 0.960 . S
C728 C726 1.381 . S
C728 C729 1.394 . S
C728 H736 0.930 . S
C729 C728 1.394 . S
C729 C730 1.383 . S
C729 H737 0.929 . S
C730 C729 1.383 . S
C730 C731 1.377 . S
C731 H715 0.930 . S
C731 C730 1.377 . S
C731 C732 1.379 . S
C732 H716 0.931 . S
C732 C726 1.383 . S
C732 C731 1.379 . S
H733 C727 0.959 . S
H734 C727 0.961 . S
H735 C727 0.960 . S
H736 C728 0.930 . S
H737 C729 0.929 . S
H738 C746 0.929 . S
H739 C748 0.930 . S
H740 C750 0.930 . S
H741 C753 0.929 . S
H742 C756 0.930 . S
H743 C758 0.960 . S
H744 C758 0.960 . S
H745 C758 0.960 . S
C746 H738 0.929 . S
C746 C747 1.377 . S
C746 C748 1.384 . S
C747 C746 1.377 . S
C747 C753 1.390 . S
C748 H739 0.930 . S
C748 C746 1.384 . S
C748 C749 1.372 . S
C749 C748 1.372 . S
C749 C750 1.400 . S
C749 C754 1.490 . S
C750 H740 0.930 . S
C750 C749 1.400 . S
C750 C753 1.386 . S
H751 C767 0.930 . S
H752 C768 0.931 . S
C753 H741 0.929 . S
C753 C747 1.390 . S
C753 C750 1.386 . S
C754 C749 1.490 . S
C754 C756 1.395 . S
C754 C757 1.403 1_545 S
H755 C761 0.930 . S
C756 H742 0.930 . S
C756 C754 1.395 . S
C756 C759 1.403 . S
C757 C754 1.403 1_565 S
C757 C758 1.524 . S
C757 C761 1.400 . S
C758 H743 0.960 . S
C758 H744 0.960 . S
C758 H745 0.960 . S
C758 C757 1.524 . S
C759 C756 1.403 . S
C759 C760 1.392 1_545 S
C759 C763 1.495 . S
C760 C759 1.392 1_565 S
C760 C761 1.385 . S
C760 C762 1.478 . S
C761 H755 0.930 . S
C761 C757 1.400 . S
C761 C760 1.385 . S
C762 C760 1.478 . S
C762 C764 1.381 . S
C762 C768 1.383 . S
C763 C759 1.495 . S
C763 H769 0.959 . S
C763 H770 0.961 . S
C763 H771 0.960 . S
C764 C762 1.381 . S
C764 C765 1.394 . S
C764 H772 0.930 . S
C765 C764 1.394 . S
C765 C766 1.383 . S
C765 H773 0.929 . S
C766 C765 1.383 . S
C766 C767 1.377 . S
C767 H751 0.930 . S
C767 C766 1.377 . S
C767 C768 1.379 . S
C768 H752 0.931 . S
C768 C762 1.383 . S
C768 C767 1.379 . S
H769 C763 0.959 . S
H770 C763 0.961 . S
H771 C763 0.960 . S
H772 C764 0.930 . S
H773 C765 0.929 . S
C135 C102 0.775 . S
C154 C13 0.716 . S
C171 C123 0.756 . S
C190 C34 0.838 . S
C207 C18 0.771 . S
C226 C55 0.677 . S
C243 C39 0.762 . S
C262 C76 0.715 . S
C279 C60 0.761 . S
C298 C97 0.834 . S
C315 C81 0.755 . S
C334 C118 0.826 . S
C351 C14 0.893 . S
C370 C77 0.949 . S
C387 C98 0.898 . S
C406 C35 0.880 . S
C423 C119 0.895 . S
C442 C56 0.951 . S
C459 C57 0.886 . S
C478 C120 0.894 . S
C495 C15 0.886 . S
C514 C78 0.888 . S
C531 C99 0.889 . S
C550 C36 0.878 . S
C567 C122 0.922 . S
C586 C16 0.941 . S
C603 C37 0.897 . S
C622 C17 0.886 . S
C639 C58 0.899 . S
C658 C38 0.884 . S
C675 C59 0.927 . S
C694 C79 0.948 . S
C711 C100 0.905 . S
C730 C80 0.932 . S
C747 C121 0.900 . S
C766 C101 0.885 . S
