# Generated by pormake.
# Topology upb, (4)-cn, num edge types: 1
# Building blocks:
#     Node 0, Type 0, BuildingBlock: NAHDIM_clean_sbu_0, # of connection points: 4
#     Node 1, Type 0, BuildingBlock: NAHDIM_clean_sbu_0, # of connection points: 4
#     Node 2, Type 0, BuildingBlock: NAHDIM_clean_sbu_0, # of connection points: 4
#     Node 3, Type 0, BuildingBlock: NAHDIM_clean_sbu_0, # of connection points: 4
#     Node 4, Type 0, BuildingBlock: NAHDIM_clean_sbu_0, # of connection points: 4
#     Node 5, Type 0, BuildingBlock: NAHDIM_clean_sbu_0, # of connection points: 4
#     Node 6, Type 0, BuildingBlock: NAHDIM_clean_sbu_0, # of connection points: 4
#     Node 7, Type 0, BuildingBlock: NAHDIM_clean_sbu_0, # of connection points: 4
#     Node 8, Type 0, BuildingBlock: NAHDIM_clean_sbu_0, # of connection points: 4
#     Node 9, Type 0, BuildingBlock: NAHDIM_clean_sbu_0, # of connection points: 4
#     Node 10, Type 0, BuildingBlock: NAHDIM_clean_sbu_0, # of connection points: 4
#     Node 11, Type 0, BuildingBlock: NAHDIM_clean_sbu_0, # of connection points: 4
#     Node 12, Type 0, BuildingBlock: NAHDIM_clean_sbu_0, # of connection points: 4
#     Node 13, Type 0, BuildingBlock: NAHDIM_clean_sbu_0, # of connection points: 4
#     Node 14, Type 0, BuildingBlock: NAHDIM_clean_sbu_0, # of connection points: 4
#     Node 15, Type 0, BuildingBlock: NAHDIM_clean_sbu_0, # of connection points: 4
#     Edge 16, Type (0, 0), BuildingBlock: AJUNOK_clean_linker_0, # of connection points: 2
#     Edge 17, Type (0, 0), BuildingBlock: AJUNOK_clean_linker_0, # of connection points: 2
#     Edge 18, Type (0, 0), BuildingBlock: AJUNOK_clean_linker_0, # of connection points: 2
#     Edge 19, Type (0, 0), BuildingBlock: AJUNOK_clean_linker_0, # of connection points: 2
#     Edge 20, Type (0, 0), BuildingBlock: AJUNOK_clean_linker_0, # of connection points: 2
#     Edge 21, Type (0, 0), BuildingBlock: AJUNOK_clean_linker_0, # of connection points: 2
#     Edge 22, Type (0, 0), BuildingBlock: AJUNOK_clean_linker_0, # of connection points: 2
#     Edge 23, Type (0, 0), BuildingBlock: AJUNOK_clean_linker_0, # of connection points: 2
#     Edge 24, Type (0, 0), BuildingBlock: AJUNOK_clean_linker_0, # of connection points: 2
#     Edge 25, Type (0, 0), BuildingBlock: AJUNOK_clean_linker_0, # of connection points: 2
#     Edge 26, Type (0, 0), BuildingBlock: AJUNOK_clean_linker_0, # of connection points: 2
#     Edge 27, Type (0, 0), BuildingBlock: AJUNOK_clean_linker_0, # of connection points: 2
#     Edge 28, Type (0, 0), BuildingBlock: AJUNOK_clean_linker_0, # of connection points: 2
#     Edge 29, Type (0, 0), BuildingBlock: AJUNOK_clean_linker_0, # of connection points: 2
#     Edge 30, Type (0, 0), BuildingBlock: AJUNOK_clean_linker_0, # of connection points: 2
#     Edge 31, Type (0, 0), BuildingBlock: AJUNOK_clean_linker_0, # of connection points: 2
#     Edge 32, Type (0, 0), BuildingBlock: AJUNOK_clean_linker_0, # of connection points: 2
#     Edge 33, Type (0, 0), BuildingBlock: AJUNOK_clean_linker_0, # of connection points: 2
#     Edge 34, Type (0, 0), BuildingBlock: AJUNOK_clean_linker_0, # of connection points: 2
#     Edge 35, Type (0, 0), BuildingBlock: AJUNOK_clean_linker_0, # of connection points: 2
#     Edge 36, Type (0, 0), BuildingBlock: AJUNOK_clean_linker_0, # of connection points: 2
#     Edge 37, Type (0, 0), BuildingBlock: AJUNOK_clean_linker_0, # of connection points: 2
#     Edge 38, Type (0, 0), BuildingBlock: AJUNOK_clean_linker_0, # of connection points: 2
#     Edge 39, Type (0, 0), BuildingBlock: AJUNOK_clean_linker_0, # of connection points: 2
#     Edge 40, Type (0, 0), BuildingBlock: AJUNOK_clean_linker_0, # of connection points: 2
#     Edge 41, Type (0, 0), BuildingBlock: AJUNOK_clean_linker_0, # of connection points: 2
#     Edge 42, Type (0, 0), BuildingBlock: AJUNOK_clean_linker_0, # of connection points: 2
#     Edge 43, Type (0, 0), BuildingBlock: AJUNOK_clean_linker_0, # of connection points: 2
#     Edge 44, Type (0, 0), BuildingBlock: AJUNOK_clean_linker_0, # of connection points: 2
#     Edge 45, Type (0, 0), BuildingBlock: AJUNOK_clean_linker_0, # of connection points: 2
#     Edge 46, Type (0, 0), BuildingBlock: AJUNOK_clean_linker_0, # of connection points: 2
#     Edge 47, Type (0, 0), BuildingBlock: AJUNOK_clean_linker_0, # of connection points: 2
# Relax obj value: 0.223
# Max RMSD: 0.106
# Mean RMSD: 0.106
data_MOF--net-upb--node1-NAHDIM_clean_sbu_0--edge1-AJUNOK_clean_linker_0
_symmetry_space_group_name_H-M    P1
_symmetry_Int_Tables_number       1
_symmetry_cell_setting            triclinic
loop_
_symmetry_equiv_pos_as_xyz
'x, y, z'
_cell_length_a     29.296903
_cell_length_b     29.310558
_cell_length_c     33.422284
_cell_angle_alpha  89.960794
_cell_angle_beta   89.983834
_cell_angle_gamma 90.040958
loop_
_atom_site_label
_atom_site_type_symbol
_atom_site_fract_x
_atom_site_fract_y
_atom_site_fract_z
_atom_type_partial_charge
C0 C 0.03993 0.35725 0.30474 0.0
O1 O 0.04962 0.36718 0.3421 0.0
O2 O 0.9963 0.30768 0.39539 0.0
Zn3 Zn 0.00598 0.27637 0.34237 0.0
O4 O 0.05941 0.23394 0.34796 0.0
C5 C 0.94558 0.20846 0.36267 0.0
O6 O 0.9744 0.21052 0.39271 0.0
O7 O 0.01873 0.32036 0.29731 0.0
C8 C 0.0744 0.20972 0.31935 0.0
O9 O 0.0559 0.21409 0.28375 0.0
C10 C 0.02831 0.31085 0.4209 0.0
O11 O 0.06962 0.29805 0.41055 0.0
O12 O 0.95116 0.23595 0.33356 0.0
C13 C 0.64327 0.04016 0.30132 0.0
O14 O 0.63511 0.04454 0.33975 0.0
O15 O 0.71075 0.99851 0.38395 0.0
Zn16 Zn 0.73334 0.01286 0.32829 0.0
O17 O 0.77456 0.0678 0.33101 0.0
C18 C 0.7745 0.92293 0.3267 0.0
O19 O 0.7471 0.91561 0.35714 0.0
O20 O 0.68213 0.02594 0.28995 0.0
C21 C 0.80721 0.06579 0.35594 0.0
O22 O 0.81161 0.02892 0.37799 0.0
C23 C 0.70354 0.02919 0.41003 0.0
O24 O 0.70821 0.07223 0.3998 0.0
O25 O 0.77275 0.96112 0.30875 0.0
C26 C 0.96305 0.64118 0.30377 0.0
O27 O 0.95901 0.63535 0.34256 0.0
O28 O 0.00535 0.71068 0.38436 0.0
Zn29 Zn 0.99166 0.73123 0.32811 0.0
O30 O 0.93535 0.77029 0.32986 0.0
C31 C 0.08246 0.76906 0.32607 0.0
O32 O 0.0899 0.73662 0.35238 0.0
O33 O 0.97902 0.67876 0.29081 0.0
C34 C 0.92568 0.79742 0.30144 0.0
O35 O 0.95276 0.79913 0.27015 0.0
C36 C 0.97459 0.70738 0.41099 0.0
O37 O 0.93183 0.71435 0.40086 0.0
O38 O 0.04347 0.77149 0.30951 0.0
C39 C 0.35663 0.96343 0.31063 0.0
O40 O 0.36037 0.95501 0.34907 0.0
O41 O 0.2907 0.00708 0.39163 0.0
Zn42 Zn 0.26845 0.99371 0.33585 0.0
O43 O 0.23001 0.93681 0.33727 0.0
C44 C 0.20284 0.06159 0.34683 0.0
O45 O 0.20249 0.04041 0.38148 0.0
O46 O 0.32051 0.98259 0.2979 0.0
C47 C 0.20376 0.92531 0.30876 0.0
O48 O 0.20058 0.95198 0.27727 0.0
C49 C 0.29139 0.97691 0.41892 0.0
O50 O 0.28164 0.93448 0.40958 0.0
O51 O 0.22902 0.0469 0.31935 0.0
C52 C 0.03626 0.64237 0.68563 0.0
O53 O 0.04677 0.64147 0.64745 0.0
O54 O 0.98854 0.70916 0.60578 0.0
Zn55 Zn 0.0006 0.72929 0.66257 0.0
O56 O 0.0561 0.7698 0.66252 0.0
C57 C 0.93589 0.79876 0.65686 0.0
O58 O 0.96006 0.80418 0.62406 0.0
O59 O 0.0138 0.67614 0.69909 0.0
C60 C 0.0667 0.79521 0.69187 0.0
O61 O 0.0405 0.7953 0.72377 0.0
C62 C 0.02042 0.7089 0.57995 0.0
O63 O 0.06205 0.71926 0.59135 0.0
O64 O 0.9467 0.7667 0.68067 0.0
C65 C 0.35729 0.03179 0.69241 0.0
O66 O 0.36044 0.03955 0.65381 0.0
O67 O 0.28532 0.9923 0.61304 0.0
Zn68 Zn 0.26646 0.00497 0.67003 0.0
O69 O 0.22962 0.06286 0.67002 0.0
C70 C 0.22224 0.91672 0.67057 0.0
O71 O 0.24989 0.90928 0.64033 0.0
O72 O 0.32064 0.01462 0.7062 0.0
C73 C 0.20083 0.07224 0.69723 0.0
O74 O 0.19536 0.04356 0.72706 0.0
C75 C 0.28837 0.02436 0.58755 0.0
O76 O 0.28164 0.06653 0.5994 0.0
O77 O 0.22495 0.95443 0.68916 0.0
C78 C 0.96863 0.36487 0.69934 0.0
O79 O 0.96946 0.37732 0.6616 0.0
O80 O 0.01366 0.30204 0.61446 0.0
Zn81 Zn 0.99644 0.27622 0.66829 0.0
O82 O 0.94171 0.23599 0.65999 0.0
C83 C 0.08386 0.22983 0.67046 0.0
O84 O 0.09254 0.25567 0.63924 0.0
O85 O 0.98031 0.32449 0.70865 0.0
C86 C 0.92006 0.21818 0.68901 0.0
O87 O 0.93295 0.22757 0.72574 0.0
C88 C 0.98278 0.31199 0.58921 0.0
O89 O 0.93982 0.30843 0.60003 0.0
O90 O 0.04606 0.23463 0.68861 0.0
C91 C 0.64339 0.96096 0.68841 0.0
O92 O 0.63764 0.95118 0.6504 0.0
O93 O 0.70285 0.01401 0.6045 0.0
Zn94 Zn 0.72752 0.00176 0.65981 0.0
O95 O 0.77417 0.95155 0.65559 0.0
C96 C 0.78811 0.07545 0.65273 0.0
O97 O 0.7903 0.05732 0.61683 0.0
O98 O 0.67852 0.9834 0.69894 0.0
C99 C 0.78644 0.92632 0.6846 0.0
O100 O 0.76735 0.93218 0.71978 0.0
C101 C 0.70166 0.9823 0.5786 0.0
O102 O 0.71295 0.94075 0.58952 0.0
O103 O 0.76134 0.05769 0.67832 0.0
C104 C 0.54563 0.85768 0.80877 0.0
O105 O 0.55979 0.85965 0.846 0.0
O106 O 0.49857 0.79752 0.89334 0.0
Zn107 Zn 0.51229 0.77348 0.83821 0.0
O108 O 0.57032 0.7369 0.83986 0.0
C109 C 0.45751 0.6974 0.84869 0.0
O110 O 0.48721 0.69445 0.87805 0.0
O111 O 0.52139 0.82383 0.79806 0.0
C112 C 0.58072 0.70998 0.81153 0.0
O113 O 0.55292 0.70623 0.78087 0.0
C114 C 0.52835 0.79835 0.92095 0.0
O115 O 0.57055 0.78676 0.91243 0.0
O116 O 0.46083 0.73066 0.82441 0.0
C117 C 0.14405 0.53505 0.79596 0.0
O118 O 0.13517 0.5325 0.83439 0.0
O119 O 0.21481 0.49806 0.87704 0.0
Zn120 Zn 0.23585 0.50903 0.8204 0.0
O121 O 0.27983 0.56182 0.82042 0.0
C122 C 0.27561 0.41855 0.82201 0.0
O123 O 0.25216 0.41528 0.85539 0.0
O124 O 0.18375 0.52463 0.78357 0.0
C125 C 0.31634 0.55737 0.84052 0.0
O126 O 0.32275 0.51942 0.8607 0.0
C127 C 0.20954 0.53012 0.90221 0.0
O128 O 0.2156 0.57245 0.89042 0.0
O129 O 0.27176 0.45451 0.80098 0.0
C130 C 0.46856 0.1356 0.80198 0.0
O131 O 0.46851 0.12824 0.84072 0.0
O132 O 0.50668 0.20779 0.88219 0.0
Zn133 Zn 0.49332 0.22753 0.82565 0.0
O134 O 0.43692 0.26658 0.82702 0.0
C135 C 0.58312 0.26838 0.82355 0.0
O136 O 0.59057 0.23983 0.85314 0.0
O137 O 0.48065 0.17456 0.78898 0.0
C138 C 0.425 0.29079 0.79725 0.0
O139 O 0.4499 0.28968 0.76457 0.0
C140 C 0.47472 0.2022 0.90744 0.0
O141 O 0.43226 0.20652 0.89542 0.0
O142 O 0.54471 0.26747 0.8059 0.0
C143 C 0.85468 0.4592 0.81349 0.0
O144 O 0.85333 0.4463 0.85109 0.0
O145 O 0.78421 0.50644 0.89149 0.0
Zn146 Zn 0.76658 0.49226 0.83459 0.0
O147 O 0.7289 0.43488 0.83416 0.0
C148 C 0.73235 0.58364 0.82931 0.0
O149 O 0.76676 0.59124 0.85358 0.0
O150 O 0.82142 0.48207 0.79959 0.0
C151 C 0.70518 0.42348 0.80395 0.0
O152 O 0.70572 0.44969 0.77206 0.0
C153 C 0.7839 0.4767 0.91913 0.0
O154 O 0.77465 0.43408 0.91003 0.0
O155 O 0.72699 0.54379 0.81506 0.0
C156 C 0.53786 0.14095 0.1851 0.0
O157 O 0.54778 0.13818 0.14687 0.0
O158 O 0.49073 0.20346 0.10337 0.0
Zn159 Zn 0.50264 0.22672 0.15917 0.0
O160 O 0.55744 0.26817 0.15829 0.0
C161 C 0.43226 0.28951 0.14793 0.0
O162 O 0.45312 0.29013 0.11315 0.0
O163 O 0.51593 0.17556 0.19752 0.0
C164 C 0.56741 0.29318 0.18809 0.0
O165 O 0.5412 0.29181 0.21996 0.0
C166 C 0.52114 0.20419 0.07628 0.0
O167 O 0.56283 0.21666 0.08578 0.0
O168 O 0.44784 0.26391 0.17546 0.0
C169 C 0.85205 0.5382 0.19302 0.0
O170 O 0.85256 0.54982 0.15507 0.0
O171 O 0.78176 0.495 0.11346 0.0
Zn172 Zn 0.76321 0.50714 0.17064 0.0
O173 O 0.72652 0.56512 0.17143 0.0
C174 C 0.72089 0.41811 0.17056 0.0
O175 O 0.74984 0.41122 0.14116 0.0
O176 O 0.81763 0.51673 0.20657 0.0
C177 C 0.69604 0.57357 0.19742 0.0
O178 O 0.68754 0.54323 0.22541 0.0
C179 C 0.78272 0.52656 0.08736 0.0
O180 O 0.77407 0.56863 0.0985 0.0
O181 O 0.72206 0.45593 0.18914 0.0
C182 C 0.46013 0.8592 0.19576 0.0
O183 O 0.45301 0.8651 0.15733 0.0
O184 O 0.50375 0.79091 0.11435 0.0
Zn185 Zn 0.48662 0.76945 0.16966 0.0
O186 O 0.42788 0.73422 0.16533 0.0
C187 C 0.57616 0.73001 0.17669 0.0
O188 O 0.5868 0.76464 0.15353 0.0
O189 O 0.47653 0.82149 0.20782 0.0
C190 C 0.41475 0.70624 0.192 0.0
O191 O 0.44034 0.69992 0.2238 0.0
C192 C 0.47358 0.79765 0.08768 0.0
O193 O 0.43035 0.79309 0.09729 0.0
O194 O 0.5353 0.72628 0.18907 0.0
C195 C 0.14192 0.45048 0.18024 0.0
O196 O 0.14083 0.43651 0.14294 0.0
O197 O 0.20318 0.51056 0.09814 0.0
Zn198 Zn 0.22501 0.49376 0.15354 0.0
O199 O 0.26712 0.44019 0.14765 0.0
C200 C 0.26156 0.58514 0.16026 0.0
O201 O 0.23109 0.59374 0.13247 0.0
O202 O 0.17402 0.47689 0.19118 0.0
C203 C 0.28632 0.41991 0.1767 0.0
O204 O 0.27774 0.43354 0.21338 0.0
C205 C 0.20183 0.48087 0.07046 0.0
O206 O 0.21054 0.4381 0.0794 0.0
O207 O 0.26335 0.54529 0.17521 0.0
C208 C 0.12762 0.14886 0.29475 0.0
C209 C 0.10965 0.17432 0.32684 0.0
C210 C 0.15869 0.1132 0.30127 0.0
C211 C 0.17255 0.10129 0.34017 0.0
H212 H 0.11719 0.15605 0.2643 0.0
H213 H 0.17095 0.09406 0.27572 0.0
S214 S 0.13856 0.15922 0.43435 0.0
N215 N 0.11036 0.18652 0.39896 0.0
N216 N 0.16829 0.11949 0.41107 0.0
C217 C 0.15591 0.12721 0.37244 0.0
C218 C 0.12463 0.16373 0.36582 0.0
C219 C 0.87988 0.1689 0.32901 0.0
C220 C 0.90881 0.17349 0.3624 0.0
C221 C 0.84639 0.13466 0.32749 0.0
C222 C 0.84077 0.10347 0.35917 0.0
H223 H 0.88347 0.19149 0.30354 0.0
H224 H 0.82549 0.13199 0.30086 0.0
S225 S 0.90492 0.10295 0.45491 0.0
N226 N 0.92743 0.14536 0.42909 0.0
N227 N 0.86491 0.08114 0.42594 0.0
C228 C 0.86857 0.1084 0.39315 0.0
C229 C 0.90244 0.14336 0.39485 0.0
C230 C 0.81697 0.85093 0.34152 0.0
C231 C 0.81075 0.88935 0.31684 0.0
C232 C 0.85362 0.82103 0.33572 0.0
C233 C 0.88552 0.82803 0.30482 0.0
H234 H 0.79406 0.84437 0.36631 0.0
H235 H 0.85725 0.79251 0.3561 0.0
S236 S 0.88322 0.92189 0.23011 0.0
N237 N 0.83853 0.93157 0.25895 0.0
N238 N 0.9073 0.87525 0.24799 0.0
C239 C 0.87887 0.86539 0.27896 0.0
C240 C 0.84157 0.89605 0.28499 0.0
C241 C 0.10879 0.83953 0.29033 0.0
C242 C 0.11654 0.80596 0.31972 0.0
C243 C 0.13782 0.87731 0.28633 0.0
C244 C 0.17557 0.88335 0.3118 0.0
H245 H 0.0795 0.83718 0.27066 0.0
H246 H 0.12978 0.9026 0.26376 0.0
S247 S 0.21314 0.80374 0.39178 0.0
N248 N 0.1666 0.78005 0.3733 0.0
N249 N 0.22082 0.85109 0.3659 0.0
C250 C 0.18465 0.84933 0.34047 0.0
C251 C 0.15529 0.81064 0.34436 0.0
C252 C 0.1389 0.81871 0.65773 0.0
C253 C 0.10767 0.82494 0.68926 0.0
C254 C 0.17664 0.84751 0.65294 0.0
C255 C 0.18469 0.88409 0.67927 0.0
H256 H 0.13398 0.79161 0.63612 0.0
H257 H 0.19898 0.84161 0.62764 0.0
S258 S 0.11462 0.91389 0.76815 0.0
N259 N 0.08846 0.86936 0.74842 0.0
N260 N 0.15929 0.9237 0.73928 0.0
C261 C 0.15448 0.89001 0.71167 0.0
C262 C 0.11606 0.86042 0.7167 0.0
C263 C 0.18282 0.14669 0.66431 0.0
C264 C 0.17237 0.11396 0.69377 0.0
C265 C 0.15494 0.18483 0.65814 0.0
C266 C 0.11524 0.19187 0.68102 0.0
H267 H 0.21246 0.14256 0.64527 0.0
H268 H 0.16416 0.20834 0.63445 0.0
S269 S 0.07376 0.1176 0.76358 0.0
N270 N 0.12049 0.09218 0.74739 0.0
N271 N 0.06802 0.16378 0.73577 0.0
C272 C 0.10513 0.16021 0.71155 0.0
C273 C 0.13368 0.12133 0.71792 0.0
C274 C 0.87473 0.17068 0.64134 0.0
C275 C 0.88343 0.18432 0.68099 0.0
C276 C 0.84311 0.13631 0.63267 0.0
C277 C 0.81851 0.11416 0.66319 0.0
H278 H 0.8932 0.18591 0.61663 0.0
H279 H 0.83848 0.12665 0.60165 0.0
S280 S 0.8261 0.13907 0.77192 0.0
N281 N 0.86303 0.17442 0.7511 0.0
N282 N 0.80339 0.10983 0.7347 0.0
C283 C 0.82558 0.12847 0.70292 0.0
C284 C 0.85807 0.16348 0.71183 0.0
C285 C 0.84675 0.89095 0.64186 0.0
C286 C 0.82341 0.89228 0.67865 0.0
C287 C 0.88272 0.86051 0.63531 0.0
C288 C 0.89692 0.82974 0.66515 0.0
H289 H 0.83758 0.91397 0.6178 0.0
H290 H 0.89951 0.86129 0.60644 0.0
S291 S 0.84656 0.81827 0.76663 0.0
N292 N 0.81667 0.85937 0.74531 0.0
N293 N 0.8843 0.80194 0.73288 0.0
C294 C 0.87359 0.83014 0.70199 0.0
C295 C 0.83691 0.86143 0.70876 0.0
C296 C 0.62609 0.64223 0.78955 0.0
C297 C 0.6219 0.68075 0.81437 0.0
C298 C 0.6627 0.61186 0.79374 0.0
C299 C 0.6969 0.619 0.82265 0.0
H300 H 0.60018 0.63458 0.76743 0.0
H301 H 0.66363 0.58204 0.77463 0.0
S302 S 0.70386 0.71695 0.89295 0.0
N303 N 0.65657 0.72594 0.86733 0.0
N304 N 0.72548 0.66914 0.87508 0.0
C305 C 0.69415 0.65847 0.84658 0.0
C306 C 0.65662 0.68921 0.84251 0.0
C307 C 0.42287 0.62323 0.86921 0.0
C308 C 0.42103 0.66247 0.84497 0.0
C309 C 0.38894 0.58971 0.86739 0.0
C310 C 0.35143 0.59395 0.8414 0.0
H311 H 0.45085 0.6181 0.88989 0.0
H312 H 0.39222 0.56027 0.88679 0.0
S313 S 0.3302 0.6902 0.77144 0.0
N314 N 0.37852 0.70369 0.79394 0.0
N315 N 0.31449 0.64068 0.79059 0.0
C316 C 0.34903 0.63302 0.81688 0.0
C317 C 0.38387 0.66721 0.8186 0.0
C318 C 0.31969 0.34844 0.8398 0.0
C319 C 0.31075 0.38373 0.81231 0.0
C320 C 0.35595 0.31807 0.8341 0.0
C321 C 0.38479 0.32141 0.80054 0.0
H322 H 0.29935 0.34487 0.86669 0.0
H323 H 0.36182 0.29221 0.85669 0.0
S324 S 0.3741 0.40553 0.71788 0.0
N325 N 0.33229 0.41863 0.74892 0.0
N326 N 0.40037 0.36141 0.73814 0.0
C327 C 0.37521 0.35536 0.77191 0.0
C328 C 0.33826 0.38652 0.7778 0.0
C329 C 0.68166 0.35085 0.83733 0.0
C330 C 0.67592 0.38215 0.80578 0.0
C331 C 0.6527 0.31317 0.84172 0.0
C332 C 0.61642 0.30535 0.81499 0.0
H333 H 0.70837 0.35577 0.85932 0.0
H334 H 0.65805 0.29085 0.86714 0.0
S335 S 0.58843 0.37528 0.72558 0.0
N336 N 0.63267 0.40135 0.74592 0.0
N337 N 0.578 0.33068 0.75436 0.0
C338 C 0.61121 0.33546 0.78244 0.0
C339 C 0.64099 0.37376 0.77779 0.0
C340 C 0.67667 0.34867 0.15102 0.0
C341 C 0.68373 0.38469 0.17816 0.0
C342 C 0.63939 0.31907 0.15487 0.0
C343 C 0.6077 0.3239 0.18624 0.0
H344 H 0.69942 0.34383 0.12584 0.0
H345 H 0.63522 0.29243 0.13271 0.0
S346 S 0.61207 0.41094 0.2669 0.0
N347 N 0.65689 0.4223 0.23865 0.0
N348 N 0.58697 0.36647 0.24606 0.0
C349 C 0.61509 0.35885 0.21441 0.0
C350 C 0.65301 0.38926 0.21033 0.0
C351 C 0.59761 0.6565 0.21 0.0
C352 C 0.60955 0.69294 0.18455 0.0
C353 C 0.62642 0.61877 0.21495 0.0
C354 C 0.66823 0.6157 0.19442 0.0
H355 H 0.56523 0.65654 0.22565 0.0
H356 H 0.61508 0.59118 0.23412 0.0
S357 S 0.71756 0.70356 0.12691 0.0
N358 N 0.66779 0.72479 0.1406 0.0
N359 N 0.72169 0.65383 0.14978 0.0
C360 C 0.68146 0.65261 0.17004 0.0
C361 C 0.65224 0.69122 0.16518 0.0
C362 C 0.36572 0.63895 0.2088 0.0
C363 C 0.37295 0.67851 0.18579 0.0
C364 C 0.32874 0.60986 0.20121 0.0
C365 C 0.29721 0.61929 0.1705 0.0
H366 H 0.38959 0.62948 0.23211 0.0
H367 H 0.32554 0.57916 0.21906 0.0
S368 S 0.29826 0.72107 0.10412 0.0
N369 N 0.34365 0.72737 0.13281 0.0
N370 N 0.27409 0.67295 0.11865 0.0
C371 C 0.30286 0.65988 0.14844 0.0
C372 C 0.34073 0.68937 0.15601 0.0
C373 C 0.34604 0.36509 0.20087 0.0
C374 C 0.32076 0.38377 0.16897 0.0
C375 C 0.38118 0.33352 0.19402 0.0
C376 C 0.39258 0.3197 0.155 0.0
H377 H 0.33941 0.3756 0.23138 0.0
H378 H 0.40044 0.32097 0.21941 0.0
S379 S 0.33379 0.35432 0.06138 0.0
N380 N 0.30743 0.383 0.097 0.0
N381 N 0.37347 0.32411 0.08429 0.0
C382 C 0.3665 0.3367 0.12297 0.0
C383 C 0.33059 0.36858 0.12991 0.0
C384 C 0.09089 0.42013 0.2811 0.0
C385 C 0.05986 0.38499 0.27187 0.0
C386 C 0.1156 0.44255 0.2511 0.0
C387 C 0.1103 0.43091 0.21052 0.0
H388 H 0.09769 0.42931 0.31191 0.0
H389 H 0.14031 0.46806 0.2601 0.0
S390 S 0.02828 0.34603 0.16984 0.0
N391 N 0.02149 0.34304 0.2188 0.0
N392 N 0.06781 0.38528 0.16235 0.0
C393 C 0.07714 0.39796 0.20059 0.0
C394 C 0.05197 0.375 0.23125 0.0
C395 C 0.57858 0.09178 0.28369 0.0
C396 C 0.6109 0.05909 0.27165 0.0
C397 C 0.55309 0.11628 0.2555 0.0
C398 C 0.55872 0.10885 0.21418 0.0
H399 H 0.57461 0.10041 0.315 0.0
H400 H 0.53037 0.1427 0.26627 0.0
S401 S 0.63269 0.02066 0.16762 0.0
N402 N 0.64271 0.0161 0.21605 0.0
N403 N 0.59455 0.06174 0.163 0.0
C404 C 0.58816 0.07352 0.20193 0.0
C405 C 0.61434 0.04878 0.23068 0.0
C406 C 0.91501 0.59323 0.20738 0.0
C407 C 0.88651 0.55765 0.22071 0.0
C408 C 0.94188 0.61822 0.23418 0.0
C409 C 0.94156 0.60857 0.27544 0.0
H410 H 0.91488 0.60364 0.17628 0.0
H411 H 0.96135 0.64674 0.22256 0.0
S412 S 0.87964 0.51298 0.32448 0.0
N413 N 0.86443 0.50986 0.27701 0.0
N414 N 0.91519 0.55658 0.32746 0.0
C415 C 0.91627 0.57051 0.28868 0.0
C416 C 0.88866 0.54516 0.26132 0.0
C417 C 0.38175 0.94802 0.24043 0.0
C418 C 0.3896 0.94353 0.2818 0.0
C419 C 0.40696 0.92283 0.21257 0.0
C420 C 0.44086 0.89193 0.22496 0.0
H421 H 0.35441 0.96949 0.22942 0.0
H422 H 0.39788 0.92579 0.18126 0.0
S423 S 0.48089 0.874 0.32911 0.0
N424 N 0.43844 0.9107 0.33331 0.0
N425 N 0.48548 0.86307 0.28084 0.0
C426 C 0.45169 0.88989 0.26591 0.0
C427 C 0.42618 0.91579 0.29434 0.0
C428 C 0.12069 0.55672 0.72666 0.0
C429 C 0.11099 0.55624 0.7679 0.0
C430 C 0.09448 0.5825 0.69997 0.0
C431 C 0.05767 0.60923 0.71341 0.0
H432 H 0.14989 0.53841 0.71495 0.0
H433 H 0.10475 0.58315 0.66884 0.0
S434 S 0.01347 0.61434 0.81739 0.0
N435 N 0.05843 0.58057 0.82019 0.0
N436 N 0.00941 0.62938 0.76992 0.0
C437 C 0.04554 0.6066 0.75408 0.0
C438 C 0.07209 0.57999 0.78132 0.0
C439 C 0.44817 0.11098 0.73273 0.0
C440 C 0.44701 0.10252 0.77417 0.0
C441 C 0.42128 0.08571 0.70615 0.0
C442 C 0.39179 0.05122 0.71997 0.0
H443 H 0.46847 0.13872 0.72076 0.0
H444 H 0.42181 0.09519 0.67483 0.0
S445 S 0.38192 0.01006 0.82463 0.0
N446 N 0.41848 0.05286 0.82708 0.0
N447 N 0.36755 0.00575 0.77703 0.0
C448 C 0.39294 0.03994 0.76086 0.0
C449 C 0.42069 0.06545 0.78798 0.0
C450 C 0.91594 0.42858 0.71729 0.0
C451 C 0.94647 0.39432 0.72961 0.0
C452 C 0.88817 0.45131 0.74496 0.0
C453 C 0.89007 0.44089 0.78607 0.0
H454 H 0.91151 0.43624 0.68582 0.0
H455 H 0.86361 0.47576 0.7337 0.0
S456 S 0.97058 0.35985 0.83433 0.0
N457 N 0.9814 0.35532 0.78604 0.0
N458 N 0.92965 0.39827 0.83818 0.0
C459 C 0.92321 0.40939 0.79909 0.0
C460 C 0.95126 0.38602 0.77083 0.0
C461 C 0.58348 0.90453 0.70834 0.0
C462 C 0.61311 0.94032 0.71906 0.0
C463 C 0.55965 0.87963 0.73743 0.0
C464 C 0.56443 0.88956 0.77841 0.0
H465 H 0.5802 0.89412 0.67739 0.0
H466 H 0.53905 0.85102 0.7277 0.0
S467 S 0.63134 0.98526 0.82167 0.0
N468 N 0.64128 0.98823 0.77313 0.0
N469 N 0.5964 0.94161 0.82777 0.0
C470 C 0.59123 0.92747 0.78931 0.0
C471 C 0.6156 0.95278 0.75966 0.0
C472 C 0.05104 0.31202 0.49293 0.0
C473 C 0.01761 0.32008 0.46353 0.0
C474 C 0.03999 0.31212 0.53369 0.0
C475 C 0.99504 0.32025 0.54674 0.0
H476 H 0.08564 0.30329 0.48449 0.0
H477 H 0.06657 0.30351 0.55491 0.0
S478 S 0.89664 0.35137 0.48226 0.0
N479 N 0.93895 0.34244 0.45061 0.0
N480 N 0.9182 0.34259 0.52723 0.0
C481 C 0.96206 0.33189 0.51787 0.0
C482 C 0.97333 0.33184 0.47629 0.0
C483 C 0.69663 0.03922 0.52298 0.0
C484 C 0.69489 0.99345 0.5357 0.0
C485 C 0.69725 0.05051 0.48226 0.0
C486 C 0.69607 0.01653 0.45255 0.0
H487 H 0.69955 0.06662 0.54457 0.0
H488 H 0.70051 0.08615 0.47416 0.0
S489 S 0.68439 0.89186 0.47001 0.0
N490 N 0.68694 0.91417 0.51528 0.0
N491 N 0.68794 0.93535 0.43877 0.0
C492 C 0.69133 0.97078 0.46483 0.0
C493 C 0.69079 0.95927 0.50637 0.0
C494 C 0.96402 0.70301 0.52403 0.0
C495 C 0.00973 0.70235 0.53696 0.0
C496 C 0.95298 0.70265 0.48327 0.0
C497 C 0.98718 0.70147 0.4537 0.0
H498 H 0.9364 0.70556 0.54547 0.0
H499 H 0.91731 0.70484 0.47498 0.0
S500 S 0.11209 0.6935 0.47181 0.0
N501 N 0.08938 0.69617 0.51694 0.0
N502 N 0.0687 0.69533 0.44038 0.0
C503 C 0.03298 0.69815 0.46624 0.0
C504 C 0.04423 0.69867 0.50781 0.0
C505 C 0.29659 0.96784 0.53197 0.0
C506 C 0.29488 0.01365 0.54453 0.0
C507 C 0.29746 0.95641 0.49131 0.0
C508 C 0.29679 0.99027 0.46147 0.0
H509 H 0.29579 0.94035 0.55364 0.0
H510 H 0.2973 0.9206 0.48331 0.0
S511 S 0.29662 0.11559 0.47838 0.0
N512 N 0.29585 0.09329 0.52372 0.0
N513 N 0.29749 0.07183 0.44737 0.0
C514 C 0.29738 0.03631 0.47357 0.0
C515 C 0.29639 0.04798 0.51505 0.0
C516 C 0.54655 0.79916 0.994 0.0
C517 C 0.51441 0.80539 0.9632 0.0
C518 C 0.53333 0.79888 0.03426 0.0
C519 C 0.48737 0.80473 0.04542 0.0
H520 H 0.58208 0.79268 0.98706 0.0
H521 H 0.55922 0.79217 0.05663 0.0
S522 S 0.39072 0.82883 0.97672 0.0
N523 N 0.43519 0.82242 0.94692 0.0
N524 N 0.41037 0.82179 0.02258 0.0
C525 C 0.45528 0.81383 0.01511 0.0
C526 C 0.46878 0.81421 0.97404 0.0
C527 C 0.2004 0.47311 0.9573 0.0
C528 C 0.20153 0.51906 0.94502 0.0
C529 C 0.19834 0.46125 0.99783 0.0
C530 C 0.19721 0.49479 0.02792 0.0
H531 H 0.20265 0.44582 0.93555 0.0
H532 H 0.19913 0.42536 0.00554 0.0
S533 S 0.19423 0.62018 0.01168 0.0
N534 N 0.19747 0.5984 0.96623 0.0
N535 N 0.19349 0.57611 0.04243 0.0
C536 C 0.19575 0.54091 0.01605 0.0
C537 C 0.19796 0.55303 0.97465 0.0
C538 C 0.54258 0.19927 0.00403 0.0
C539 C 0.50857 0.19714 0.03371 0.0
C540 C 0.53138 0.19882 0.96331 0.0
C541 C 0.48567 0.19636 0.9505 0.0
H542 H 0.57818 0.20278 0.01219 0.0
H543 H 0.55886 0.20206 0.9418 0.0
S544 S 0.38388 0.18515 0.0161 0.0
N545 N 0.42732 0.18867 0.04737 0.0
N546 N 0.40632 0.18786 0.97087 0.0
C547 C 0.45143 0.19174 0.9798 0.0
C548 C 0.46285 0.1921 0.02136 0.0
C549 C 0.78862 0.45706 0.99181 0.0
C550 C 0.78908 0.49052 0.96161 0.0
C551 C 0.78844 0.46906 0.03234 0.0
C552 C 0.78849 0.51507 0.04443 0.0
H553 H 0.7872 0.42117 0.9842 0.0
H554 H 0.78673 0.44191 0.0543 0.0
S555 S 0.79401 0.61597 0.97727 0.0
N556 N 0.79295 0.57181 0.94669 0.0
N557 N 0.79246 0.59431 0.02284 0.0
C558 C 0.79105 0.54892 0.0146 0.0
C559 C 0.7914 0.53667 0.97324 0.0
loop_
_geom_bond_atom_site_label_1
_geom_bond_atom_site_label_2
_geom_bond_distance
_geom_bond_site_symmetry_2
_ccdc_geom_bond_type
C0 O1 1.160 . S
C0 O7 1.185 . S
O1 C0 1.160 . S
O2 Zn3 1.899 1_655 S
O2 C10 1.284 1_655 S
Zn3 O2 1.899 1_455 S
Zn3 O4 2.032 . S
Zn3 O7 2.086 . S
Zn3 O12 1.977 1_455 S
O4 Zn3 2.032 . S
O4 C8 1.278 . S
C5 O6 1.203 . S
C5 O12 1.267 . S
O6 C5 1.203 . S
O7 C0 1.185 . S
O7 Zn3 2.086 . S
C8 O4 1.278 . S
C8 O9 1.211 . S
O9 C8 1.211 . S
C10 O2 1.284 1_455 S
C10 O11 1.273 . S
O11 C10 1.273 . S
O12 Zn3 1.977 1_655 S
O12 C5 1.267 . S
C13 O14 1.160 . S
C13 O20 1.185 . S
O14 C13 1.160 . S
O15 Zn16 1.899 1_565 S
O15 C23 1.284 1_565 S
Zn16 O15 1.899 1_545 S
Zn16 O17 2.032 . S
Zn16 O20 2.086 . S
Zn16 O25 1.977 1_545 S
O17 Zn16 2.032 . S
O17 C21 1.278 . S
C18 O19 1.203 . S
C18 O25 1.267 . S
O19 C18 1.203 . S
O20 C13 1.185 . S
O20 Zn16 2.086 . S
C21 O17 1.278 . S
C21 O22 1.211 . S
O22 C21 1.211 . S
C23 O15 1.284 1_545 S
C23 O24 1.273 . S
O24 C23 1.273 . S
O25 Zn16 1.977 1_565 S
O25 C18 1.267 . S
C26 O27 1.160 . S
C26 O33 1.185 . S
O27 C26 1.160 . S
O28 Zn29 1.899 1_455 S
O28 C36 1.284 1_455 S
Zn29 O28 1.899 1_655 S
Zn29 O30 2.032 . S
Zn29 O33 2.086 . S
Zn29 O38 1.977 1_655 S
O30 Zn29 2.032 . S
O30 C34 1.278 . S
C31 O32 1.203 . S
C31 O38 1.267 . S
O32 C31 1.203 . S
O33 C26 1.185 . S
O33 Zn29 2.086 . S
C34 O30 1.278 . S
C34 O35 1.211 . S
O35 C34 1.211 . S
C36 O28 1.284 1_655 S
C36 O37 1.273 . S
O37 C36 1.273 . S
O38 Zn29 1.977 1_455 S
O38 C31 1.267 . S
C39 O40 1.160 . S
C39 O46 1.185 . S
O40 C39 1.160 . S
O41 Zn42 1.899 1_545 S
O41 C49 1.284 1_545 S
Zn42 O41 1.899 1_565 S
Zn42 O43 2.032 . S
Zn42 O46 2.086 . S
Zn42 O51 1.977 1_565 S
O43 Zn42 2.032 . S
O43 C47 1.278 . S
C44 O45 1.203 . S
C44 O51 1.267 . S
O45 C44 1.203 . S
O46 C39 1.185 . S
O46 Zn42 2.086 . S
C47 O43 1.278 . S
C47 O48 1.211 . S
O48 C47 1.211 . S
C49 O41 1.284 1_565 S
C49 O50 1.273 . S
O50 C49 1.273 . S
O51 Zn42 1.977 1_545 S
O51 C44 1.267 . S
C52 O53 1.160 . S
C52 O59 1.185 . S
O53 C52 1.160 . S
O54 Zn55 1.899 1_655 S
O54 C62 1.284 1_655 S
Zn55 O54 1.899 1_455 S
Zn55 O56 2.032 . S
Zn55 O59 2.086 . S
Zn55 O64 1.977 1_455 S
O56 Zn55 2.032 . S
O56 C60 1.278 . S
C57 O58 1.203 . S
C57 O64 1.267 . S
O58 C57 1.203 . S
O59 C52 1.185 . S
O59 Zn55 2.086 . S
C60 O56 1.278 . S
C60 O61 1.211 . S
O61 C60 1.211 . S
C62 O54 1.284 1_455 S
C62 O63 1.273 . S
O63 C62 1.273 . S
O64 Zn55 1.977 1_655 S
O64 C57 1.267 . S
C65 O66 1.160 . S
C65 O72 1.185 . S
O66 C65 1.160 . S
O67 Zn68 1.899 1_565 S
O67 C75 1.284 1_565 S
Zn68 O67 1.899 1_545 S
Zn68 O69 2.032 . S
Zn68 O72 2.086 . S
Zn68 O77 1.977 1_545 S
O69 Zn68 2.032 . S
O69 C73 1.278 . S
C70 O71 1.203 . S
C70 O77 1.267 . S
O71 C70 1.203 . S
O72 C65 1.185 . S
O72 Zn68 2.086 . S
C73 O69 1.278 . S
C73 O74 1.211 . S
O74 C73 1.211 . S
C75 O67 1.284 1_545 S
C75 O76 1.273 . S
O76 C75 1.273 . S
O77 Zn68 1.977 1_565 S
O77 C70 1.267 . S
C78 O79 1.160 . S
C78 O85 1.185 . S
O79 C78 1.160 . S
O80 Zn81 1.899 1_455 S
O80 C88 1.284 1_455 S
Zn81 O80 1.899 1_655 S
Zn81 O82 2.032 . S
Zn81 O85 2.086 . S
Zn81 O90 1.977 1_655 S
O82 Zn81 2.032 . S
O82 C86 1.278 . S
C83 O84 1.203 . S
C83 O90 1.267 . S
O84 C83 1.203 . S
O85 C78 1.185 . S
O85 Zn81 2.086 . S
C86 O82 1.278 . S
C86 O87 1.211 . S
O87 C86 1.211 . S
C88 O80 1.284 1_655 S
C88 O89 1.273 . S
O89 C88 1.273 . S
O90 Zn81 1.977 1_455 S
O90 C83 1.267 . S
C91 O92 1.160 . S
C91 O98 1.185 . S
O92 C91 1.160 . S
O93 Zn94 1.899 1_545 S
O93 C101 1.284 1_545 S
Zn94 O93 1.899 1_565 S
Zn94 O95 2.032 . S
Zn94 O98 2.086 . S
Zn94 O103 1.977 1_565 S
O95 Zn94 2.032 . S
O95 C99 1.278 . S
C96 O97 1.203 . S
C96 O103 1.267 . S
O97 C96 1.203 . S
O98 C91 1.185 . S
O98 Zn94 2.086 . S
C99 O95 1.278 . S
C99 O100 1.211 . S
O100 C99 1.211 . S
C101 O93 1.284 1_565 S
C101 O102 1.273 . S
O102 C101 1.273 . S
O103 Zn94 1.977 1_545 S
O103 C96 1.267 . S
C104 O105 1.160 . S
C104 O111 1.185 . S
O105 C104 1.160 . S
O106 Zn107 1.899 . S
O106 C114 1.284 . S
Zn107 O106 1.899 . S
Zn107 O108 2.032 . S
Zn107 O111 2.086 . S
Zn107 O116 1.977 . S
O108 Zn107 2.032 . S
O108 C112 1.278 . S
C109 O110 1.203 . S
C109 O116 1.267 . S
O110 C109 1.203 . S
O111 C104 1.185 . S
O111 Zn107 2.086 . S
C112 O108 1.278 . S
C112 O113 1.211 . S
O113 C112 1.211 . S
C114 O106 1.284 . S
C114 O115 1.273 . S
O115 C114 1.273 . S
O116 Zn107 1.977 . S
O116 C109 1.267 . S
C117 O118 1.160 . S
C117 O124 1.185 . S
O118 C117 1.160 . S
O119 Zn120 1.899 . S
O119 C127 1.284 . S
Zn120 O119 1.899 . S
Zn120 O121 2.032 . S
Zn120 O124 2.086 . S
Zn120 O129 1.977 . S
O121 Zn120 2.032 . S
O121 C125 1.278 . S
C122 O123 1.203 . S
C122 O129 1.267 . S
O123 C122 1.203 . S
O124 C117 1.185 . S
O124 Zn120 2.086 . S
C125 O121 1.278 . S
C125 O126 1.211 . S
O126 C125 1.211 . S
C127 O119 1.284 . S
C127 O128 1.273 . S
O128 C127 1.273 . S
O129 Zn120 1.977 . S
O129 C122 1.267 . S
C130 O131 1.160 . S
C130 O137 1.185 . S
O131 C130 1.160 . S
O132 Zn133 1.899 . S
O132 C140 1.284 . S
Zn133 O132 1.899 . S
Zn133 O134 2.032 . S
Zn133 O137 2.086 . S
Zn133 O142 1.977 . S
O134 Zn133 2.032 . S
O134 C138 1.278 . S
C135 O136 1.203 . S
C135 O142 1.267 . S
O136 C135 1.203 . S
O137 C130 1.185 . S
O137 Zn133 2.086 . S
C138 O134 1.278 . S
C138 O139 1.211 . S
O139 C138 1.211 . S
C140 O132 1.284 . S
C140 O141 1.273 . S
O141 C140 1.273 . S
O142 Zn133 1.977 . S
O142 C135 1.267 . S
C143 O144 1.160 . S
C143 O150 1.185 . S
O144 C143 1.160 . S
O145 Zn146 1.899 . S
O145 C153 1.284 . S
Zn146 O145 1.899 . S
Zn146 O147 2.032 . S
Zn146 O150 2.086 . S
Zn146 O155 1.977 . S
O147 Zn146 2.032 . S
O147 C151 1.278 . S
C148 O149 1.203 . S
C148 O155 1.267 . S
O149 C148 1.203 . S
O150 C143 1.185 . S
O150 Zn146 2.086 . S
C151 O147 1.278 . S
C151 O152 1.211 . S
O152 C151 1.211 . S
C153 O145 1.284 . S
C153 O154 1.273 . S
O154 C153 1.273 . S
O155 Zn146 1.977 . S
O155 C148 1.267 . S
C156 O157 1.160 . S
C156 O163 1.185 . S
O157 C156 1.160 . S
O158 Zn159 1.899 . S
O158 C166 1.284 . S
Zn159 O158 1.899 . S
Zn159 O160 2.032 . S
Zn159 O163 2.086 . S
Zn159 O168 1.977 . S
O160 Zn159 2.032 . S
O160 C164 1.278 . S
C161 O162 1.203 . S
C161 O168 1.267 . S
O162 C161 1.203 . S
O163 C156 1.185 . S
O163 Zn159 2.086 . S
C164 O160 1.278 . S
C164 O165 1.211 . S
O165 C164 1.211 . S
C166 O158 1.284 . S
C166 O167 1.273 . S
O167 C166 1.273 . S
O168 Zn159 1.977 . S
O168 C161 1.267 . S
C169 O170 1.160 . S
C169 O176 1.185 . S
O170 C169 1.160 . S
O171 Zn172 1.899 . S
O171 C179 1.284 . S
Zn172 O171 1.899 . S
Zn172 O173 2.032 . S
Zn172 O176 2.086 . S
Zn172 O181 1.977 . S
O173 Zn172 2.032 . S
O173 C177 1.278 . S
C174 O175 1.203 . S
C174 O181 1.267 . S
O175 C174 1.203 . S
O176 C169 1.185 . S
O176 Zn172 2.086 . S
C177 O173 1.278 . S
C177 O178 1.211 . S
O178 C177 1.211 . S
C179 O171 1.284 . S
C179 O180 1.273 . S
O180 C179 1.273 . S
O181 Zn172 1.977 . S
O181 C174 1.267 . S
C182 O183 1.160 . S
C182 O189 1.185 . S
O183 C182 1.160 . S
O184 Zn185 1.899 . S
O184 C192 1.284 . S
Zn185 O184 1.899 . S
Zn185 O186 2.032 . S
Zn185 O189 2.086 . S
Zn185 O194 1.977 . S
O186 Zn185 2.032 . S
O186 C190 1.278 . S
C187 O188 1.203 . S
C187 O194 1.267 . S
O188 C187 1.203 . S
O189 C182 1.185 . S
O189 Zn185 2.086 . S
C190 O186 1.278 . S
C190 O191 1.211 . S
O191 C190 1.211 . S
C192 O184 1.284 . S
C192 O193 1.273 . S
O193 C192 1.273 . S
O194 Zn185 1.977 . S
O194 C187 1.267 . S
C195 O196 1.160 . S
C195 O202 1.185 . S
O196 C195 1.160 . S
O197 Zn198 1.899 . S
O197 C205 1.284 . S
Zn198 O197 1.899 . S
Zn198 O199 2.032 . S
Zn198 O202 2.086 . S
Zn198 O207 1.977 . S
O199 Zn198 2.032 . S
O199 C203 1.278 . S
C200 O201 1.203 . S
C200 O207 1.267 . S
O201 C200 1.203 . S
O202 C195 1.185 . S
O202 Zn198 2.086 . S
C203 O199 1.278 . S
C203 O204 1.211 . S
O204 C203 1.211 . S
C205 O197 1.284 . S
C205 O206 1.273 . S
O206 C205 1.273 . S
O207 Zn198 1.977 . S
O207 C200 1.267 . S
C208 C209 1.369 . S
C208 C210 1.419 . S
C208 H212 0.930 . S
C209 C208 1.369 . S
C209 C218 1.429 . S
C210 C208 1.419 . S
C210 C211 1.363 . S
C210 H213 0.929 . S
C211 C210 1.363 . S
C211 C217 1.428 . S
H212 C208 0.930 . S
H213 C210 0.929 . S
S214 N215 1.613 . S
S214 N216 1.610 . S
N215 S214 1.613 . S
N215 C218 1.350 . S
N216 S214 1.610 . S
N216 C217 1.351 . S
C217 C211 1.428 . S
C217 N216 1.351 . S
C217 C218 1.434 . S
C218 C209 1.429 . S
C218 N215 1.350 . S
C218 C217 1.434 . S
C219 C220 1.369 . S
C219 C221 1.419 . S
C219 H223 0.930 . S
C220 C219 1.369 . S
C220 C229 1.429 . S
C221 C219 1.419 . S
C221 C222 1.363 . S
C221 H224 0.929 . S
C222 C221 1.363 . S
C222 C228 1.428 . S
H223 C219 0.930 . S
H224 C221 0.929 . S
S225 N226 1.613 . S
S225 N227 1.610 . S
N226 S225 1.613 . S
N226 C229 1.350 . S
N227 S225 1.610 . S
N227 C228 1.351 . S
C228 C222 1.428 . S
C228 N227 1.351 . S
C228 C229 1.434 . S
C229 C220 1.429 . S
C229 N226 1.350 . S
C229 C228 1.434 . S
C230 C231 1.369 . S
C230 C232 1.419 . S
C230 H234 0.930 . S
C231 C230 1.369 . S
C231 C240 1.429 . S
C232 C230 1.419 . S
C232 C233 1.363 . S
C232 H235 0.929 . S
C233 C232 1.363 . S
C233 C239 1.428 . S
H234 C230 0.930 . S
H235 C232 0.929 . S
S236 N237 1.613 . S
S236 N238 1.610 . S
N237 S236 1.613 . S
N237 C240 1.350 . S
N238 S236 1.610 . S
N238 C239 1.351 . S
C239 C233 1.428 . S
C239 N238 1.351 . S
C239 C240 1.434 . S
C240 C231 1.429 . S
C240 N237 1.350 . S
C240 C239 1.434 . S
C241 C242 1.369 . S
C241 C243 1.419 . S
C241 H245 0.930 . S
C242 C241 1.369 . S
C242 C251 1.429 . S
C243 C241 1.419 . S
C243 C244 1.363 . S
C243 H246 0.929 . S
C244 C243 1.363 . S
C244 C250 1.428 . S
H245 C241 0.930 . S
H246 C243 0.929 . S
S247 N248 1.613 . S
S247 N249 1.610 . S
N248 S247 1.613 . S
N248 C251 1.350 . S
N249 S247 1.610 . S
N249 C250 1.351 . S
C250 C244 1.428 . S
C250 N249 1.351 . S
C250 C251 1.434 . S
C251 C242 1.429 . S
C251 N248 1.350 . S
C251 C250 1.434 . S
C252 C253 1.369 . S
C252 C254 1.419 . S
C252 H256 0.930 . S
C253 C252 1.369 . S
C253 C262 1.429 . S
C254 C252 1.419 . S
C254 C255 1.363 . S
C254 H257 0.929 . S
C255 C254 1.363 . S
C255 C261 1.428 . S
H256 C252 0.930 . S
H257 C254 0.929 . S
S258 N259 1.613 . S
S258 N260 1.610 . S
N259 S258 1.613 . S
N259 C262 1.350 . S
N260 S258 1.610 . S
N260 C261 1.351 . S
C261 C255 1.428 . S
C261 N260 1.351 . S
C261 C262 1.434 . S
C262 C253 1.429 . S
C262 N259 1.350 . S
C262 C261 1.434 . S
C263 C264 1.369 . S
C263 C265 1.419 . S
C263 H267 0.930 . S
C264 C263 1.369 . S
C264 C273 1.429 . S
C265 C263 1.419 . S
C265 C266 1.363 . S
C265 H268 0.929 . S
C266 C265 1.363 . S
C266 C272 1.428 . S
H267 C263 0.930 . S
H268 C265 0.929 . S
S269 N270 1.613 . S
S269 N271 1.610 . S
N270 S269 1.613 . S
N270 C273 1.350 . S
N271 S269 1.610 . S
N271 C272 1.351 . S
C272 C266 1.428 . S
C272 N271 1.351 . S
C272 C273 1.434 . S
C273 C264 1.429 . S
C273 N270 1.350 . S
C273 C272 1.434 . S
C274 C275 1.369 . S
C274 C276 1.419 . S
C274 H278 0.930 . S
C275 C274 1.369 . S
C275 C284 1.429 . S
C276 C274 1.419 . S
C276 C277 1.363 . S
C276 H279 0.929 . S
C277 C276 1.363 . S
C277 C283 1.428 . S
H278 C274 0.930 . S
H279 C276 0.929 . S
S280 N281 1.613 . S
S280 N282 1.610 . S
N281 S280 1.613 . S
N281 C284 1.350 . S
N282 S280 1.610 . S
N282 C283 1.351 . S
C283 C277 1.428 . S
C283 N282 1.351 . S
C283 C284 1.434 . S
C284 C275 1.429 . S
C284 N281 1.350 . S
C284 C283 1.434 . S
C285 C286 1.369 . S
C285 C287 1.419 . S
C285 H289 0.930 . S
C286 C285 1.369 . S
C286 C295 1.429 . S
C287 C285 1.419 . S
C287 C288 1.363 . S
C287 H290 0.929 . S
C288 C287 1.363 . S
C288 C294 1.428 . S
H289 C285 0.930 . S
H290 C287 0.929 . S
S291 N292 1.613 . S
S291 N293 1.610 . S
N292 S291 1.613 . S
N292 C295 1.350 . S
N293 S291 1.610 . S
N293 C294 1.351 . S
C294 C288 1.428 . S
C294 N293 1.351 . S
C294 C295 1.434 . S
C295 C286 1.429 . S
C295 N292 1.350 . S
C295 C294 1.434 . S
C296 C297 1.369 . S
C296 C298 1.419 . S
C296 H300 0.930 . S
C297 C296 1.369 . S
C297 C306 1.429 . S
C298 C296 1.419 . S
C298 C299 1.363 . S
C298 H301 0.929 . S
C299 C298 1.363 . S
C299 C305 1.428 . S
H300 C296 0.930 . S
H301 C298 0.929 . S
S302 N303 1.613 . S
S302 N304 1.610 . S
N303 S302 1.613 . S
N303 C306 1.350 . S
N304 S302 1.610 . S
N304 C305 1.351 . S
C305 C299 1.428 . S
C305 N304 1.351 . S
C305 C306 1.434 . S
C306 C297 1.429 . S
C306 N303 1.350 . S
C306 C305 1.434 . S
C307 C308 1.369 . S
C307 C309 1.419 . S
C307 H311 0.930 . S
C308 C307 1.369 . S
C308 C317 1.429 . S
C309 C307 1.419 . S
C309 C310 1.363 . S
C309 H312 0.929 . S
C310 C309 1.363 . S
C310 C316 1.428 . S
H311 C307 0.930 . S
H312 C309 0.929 . S
S313 N314 1.613 . S
S313 N315 1.610 . S
N314 S313 1.613 . S
N314 C317 1.350 . S
N315 S313 1.610 . S
N315 C316 1.351 . S
C316 C310 1.428 . S
C316 N315 1.351 . S
C316 C317 1.434 . S
C317 C308 1.429 . S
C317 N314 1.350 . S
C317 C316 1.434 . S
C318 C319 1.369 . S
C318 C320 1.419 . S
C318 H322 0.930 . S
C319 C318 1.369 . S
C319 C328 1.429 . S
C320 C318 1.419 . S
C320 C321 1.363 . S
C320 H323 0.929 . S
C321 C320 1.363 . S
C321 C327 1.428 . S
H322 C318 0.930 . S
H323 C320 0.929 . S
S324 N325 1.613 . S
S324 N326 1.610 . S
N325 S324 1.613 . S
N325 C328 1.350 . S
N326 S324 1.610 . S
N326 C327 1.351 . S
C327 C321 1.428 . S
C327 N326 1.351 . S
C327 C328 1.434 . S
C328 C319 1.429 . S
C328 N325 1.350 . S
C328 C327 1.434 . S
C329 C330 1.369 . S
C329 C331 1.419 . S
C329 H333 0.930 . S
C330 C329 1.369 . S
C330 C339 1.429 . S
C331 C329 1.419 . S
C331 C332 1.363 . S
C331 H334 0.929 . S
C332 C331 1.363 . S
C332 C338 1.428 . S
H333 C329 0.930 . S
H334 C331 0.929 . S
S335 N336 1.613 . S
S335 N337 1.610 . S
N336 S335 1.613 . S
N336 C339 1.350 . S
N337 S335 1.610 . S
N337 C338 1.351 . S
C338 C332 1.428 . S
C338 N337 1.351 . S
C338 C339 1.434 . S
C339 C330 1.429 . S
C339 N336 1.350 . S
C339 C338 1.434 . S
C340 C341 1.369 . S
C340 C342 1.419 . S
C340 H344 0.930 . S
C341 C340 1.369 . S
C341 C350 1.429 . S
C342 C340 1.419 . S
C342 C343 1.363 . S
C342 H345 0.929 . S
C343 C342 1.363 . S
C343 C349 1.428 . S
H344 C340 0.930 . S
H345 C342 0.929 . S
S346 N347 1.613 . S
S346 N348 1.610 . S
N347 S346 1.613 . S
N347 C350 1.350 . S
N348 S346 1.610 . S
N348 C349 1.351 . S
C349 C343 1.428 . S
C349 N348 1.351 . S
C349 C350 1.434 . S
C350 C341 1.429 . S
C350 N347 1.350 . S
C350 C349 1.434 . S
C351 C352 1.369 . S
C351 C353 1.419 . S
C351 H355 0.930 . S
C352 C351 1.369 . S
C352 C361 1.429 . S
C353 C351 1.419 . S
C353 C354 1.363 . S
C353 H356 0.929 . S
C354 C353 1.363 . S
C354 C360 1.428 . S
H355 C351 0.930 . S
H356 C353 0.929 . S
S357 N358 1.613 . S
S357 N359 1.610 . S
N358 S357 1.613 . S
N358 C361 1.350 . S
N359 S357 1.610 . S
N359 C360 1.351 . S
C360 C354 1.428 . S
C360 N359 1.351 . S
C360 C361 1.434 . S
C361 C352 1.429 . S
C361 N358 1.350 . S
C361 C360 1.434 . S
C362 C363 1.369 . S
C362 C364 1.419 . S
C362 H366 0.930 . S
C363 C362 1.369 . S
C363 C372 1.429 . S
C364 C362 1.419 . S
C364 C365 1.363 . S
C364 H367 0.929 . S
C365 C364 1.363 . S
C365 C371 1.428 . S
H366 C362 0.930 . S
H367 C364 0.929 . S
S368 N369 1.613 . S
S368 N370 1.610 . S
N369 S368 1.613 . S
N369 C372 1.350 . S
N370 S368 1.610 . S
N370 C371 1.351 . S
C371 C365 1.428 . S
C371 N370 1.351 . S
C371 C372 1.434 . S
C372 C363 1.429 . S
C372 N369 1.350 . S
C372 C371 1.434 . S
C373 C374 1.369 . S
C373 C375 1.419 . S
C373 H377 0.930 . S
C374 C373 1.369 . S
C374 C383 1.429 . S
C375 C373 1.419 . S
C375 C376 1.363 . S
C375 H378 0.929 . S
C376 C375 1.363 . S
C376 C382 1.428 . S
H377 C373 0.930 . S
H378 C375 0.929 . S
S379 N380 1.613 . S
S379 N381 1.610 . S
N380 S379 1.613 . S
N380 C383 1.350 . S
N381 S379 1.610 . S
N381 C382 1.351 . S
C382 C376 1.428 . S
C382 N381 1.351 . S
C382 C383 1.434 . S
C383 C374 1.429 . S
C383 N380 1.350 . S
C383 C382 1.434 . S
C384 C385 1.369 . S
C384 C386 1.419 . S
C384 H388 0.930 . S
C385 C384 1.369 . S
C385 C394 1.429 . S
C386 C384 1.419 . S
C386 C387 1.363 . S
C386 H389 0.929 . S
C387 C386 1.363 . S
C387 C393 1.428 . S
H388 C384 0.930 . S
H389 C386 0.929 . S
S390 N391 1.613 . S
S390 N392 1.610 . S
N391 S390 1.613 . S
N391 C394 1.350 . S
N392 S390 1.610 . S
N392 C393 1.351 . S
C393 C387 1.428 . S
C393 N392 1.351 . S
C393 C394 1.434 . S
C394 C385 1.429 . S
C394 N391 1.350 . S
C394 C393 1.434 . S
C395 C396 1.369 . S
C395 C397 1.419 . S
C395 H399 0.930 . S
C396 C395 1.369 . S
C396 C405 1.429 . S
C397 C395 1.419 . S
C397 C398 1.363 . S
C397 H400 0.929 . S
C398 C397 1.363 . S
C398 C404 1.428 . S
H399 C395 0.930 . S
H400 C397 0.929 . S
S401 N402 1.613 . S
S401 N403 1.610 . S
N402 S401 1.613 . S
N402 C405 1.350 . S
N403 S401 1.610 . S
N403 C404 1.351 . S
C404 C398 1.428 . S
C404 N403 1.351 . S
C404 C405 1.434 . S
C405 C396 1.429 . S
C405 N402 1.350 . S
C405 C404 1.434 . S
C406 C407 1.369 . S
C406 C408 1.419 . S
C406 H410 0.930 . S
C407 C406 1.369 . S
C407 C416 1.429 . S
C408 C406 1.419 . S
C408 C409 1.363 . S
C408 H411 0.929 . S
C409 C408 1.363 . S
C409 C415 1.428 . S
H410 C406 0.930 . S
H411 C408 0.929 . S
S412 N413 1.613 . S
S412 N414 1.610 . S
N413 S412 1.613 . S
N413 C416 1.350 . S
N414 S412 1.610 . S
N414 C415 1.351 . S
C415 C409 1.428 . S
C415 N414 1.351 . S
C415 C416 1.434 . S
C416 C407 1.429 . S
C416 N413 1.350 . S
C416 C415 1.434 . S
C417 C418 1.369 . S
C417 C419 1.419 . S
C417 H421 0.930 . S
C418 C417 1.369 . S
C418 C427 1.429 . S
C419 C417 1.419 . S
C419 C420 1.363 . S
C419 H422 0.929 . S
C420 C419 1.363 . S
C420 C426 1.428 . S
H421 C417 0.930 . S
H422 C419 0.929 . S
S423 N424 1.613 . S
S423 N425 1.610 . S
N424 S423 1.613 . S
N424 C427 1.350 . S
N425 S423 1.610 . S
N425 C426 1.351 . S
C426 C420 1.428 . S
C426 N425 1.351 . S
C426 C427 1.434 . S
C427 C418 1.429 . S
C427 N424 1.350 . S
C427 C426 1.434 . S
C428 C429 1.369 . S
C428 C430 1.419 . S
C428 H432 0.930 . S
C429 C428 1.369 . S
C429 C438 1.429 . S
C430 C428 1.419 . S
C430 C431 1.363 . S
C430 H433 0.929 . S
C431 C430 1.363 . S
C431 C437 1.428 . S
H432 C428 0.930 . S
H433 C430 0.929 . S
S434 N435 1.613 . S
S434 N436 1.610 . S
N435 S434 1.613 . S
N435 C438 1.350 . S
N436 S434 1.610 . S
N436 C437 1.351 . S
C437 C431 1.428 . S
C437 N436 1.351 . S
C437 C438 1.434 . S
C438 C429 1.429 . S
C438 N435 1.350 . S
C438 C437 1.434 . S
C439 C440 1.369 . S
C439 C441 1.419 . S
C439 H443 0.930 . S
C440 C439 1.369 . S
C440 C449 1.429 . S
C441 C439 1.419 . S
C441 C442 1.363 . S
C441 H444 0.929 . S
C442 C441 1.363 . S
C442 C448 1.428 . S
H443 C439 0.930 . S
H444 C441 0.929 . S
S445 N446 1.613 . S
S445 N447 1.610 . S
N446 S445 1.613 . S
N446 C449 1.350 . S
N447 S445 1.610 . S
N447 C448 1.351 . S
C448 C442 1.428 . S
C448 N447 1.351 . S
C448 C449 1.434 . S
C449 C440 1.429 . S
C449 N446 1.350 . S
C449 C448 1.434 . S
C450 C451 1.369 . S
C450 C452 1.419 . S
C450 H454 0.930 . S
C451 C450 1.369 . S
C451 C460 1.429 . S
C452 C450 1.419 . S
C452 C453 1.363 . S
C452 H455 0.929 . S
C453 C452 1.363 . S
C453 C459 1.428 . S
H454 C450 0.930 . S
H455 C452 0.929 . S
S456 N457 1.613 . S
S456 N458 1.610 . S
N457 S456 1.613 . S
N457 C460 1.350 . S
N458 S456 1.610 . S
N458 C459 1.351 . S
C459 C453 1.428 . S
C459 N458 1.351 . S
C459 C460 1.434 . S
C460 C451 1.429 . S
C460 N457 1.350 . S
C460 C459 1.434 . S
C461 C462 1.369 . S
C461 C463 1.419 . S
C461 H465 0.930 . S
C462 C461 1.369 . S
C462 C471 1.429 . S
C463 C461 1.419 . S
C463 C464 1.363 . S
C463 H466 0.929 . S
C464 C463 1.363 . S
C464 C470 1.428 . S
H465 C461 0.930 . S
H466 C463 0.929 . S
S467 N468 1.613 . S
S467 N469 1.610 . S
N468 S467 1.613 . S
N468 C471 1.350 . S
N469 S467 1.610 . S
N469 C470 1.351 . S
C470 C464 1.428 . S
C470 N469 1.351 . S
C470 C471 1.434 . S
C471 C462 1.429 . S
C471 N468 1.350 . S
C471 C470 1.434 . S
C472 C473 1.369 . S
C472 C474 1.419 . S
C472 H476 0.930 . S
C473 C472 1.369 . S
C473 C482 1.429 1_455 S
C474 C472 1.419 . S
C474 C475 1.363 1_455 S
C474 H477 0.929 . S
C475 C474 1.363 1_655 S
C475 C481 1.428 . S
H476 C472 0.930 . S
H477 C474 0.929 . S
S478 N479 1.613 . S
S478 N480 1.610 . S
N479 S478 1.613 . S
N479 C482 1.350 . S
N480 S478 1.610 . S
N480 C481 1.351 . S
C481 C475 1.428 . S
C481 N480 1.351 . S
C481 C482 1.434 . S
C482 C473 1.429 1_655 S
C482 N479 1.350 . S
C482 C481 1.434 . S
C483 C484 1.369 1_545 S
C483 C485 1.419 . S
C483 H487 0.930 . S
C484 C483 1.369 1_565 S
C484 C493 1.429 . S
C485 C483 1.419 . S
C485 C486 1.363 . S
C485 H488 0.929 . S
C486 C485 1.363 . S
C486 C492 1.428 1_545 S
H487 C483 0.930 . S
H488 C485 0.929 . S
S489 N490 1.613 . S
S489 N491 1.610 . S
N490 S489 1.613 . S
N490 C493 1.350 . S
N491 S489 1.610 . S
N491 C492 1.351 . S
C492 C486 1.428 1_565 S
C492 N491 1.351 . S
C492 C493 1.434 . S
C493 C484 1.429 . S
C493 N490 1.350 . S
C493 C492 1.434 . S
C494 C495 1.369 1_655 S
C494 C496 1.419 . S
C494 H498 0.930 . S
C495 C494 1.369 1_455 S
C495 C504 1.429 . S
C496 C494 1.419 . S
C496 C497 1.363 . S
C496 H499 0.929 . S
C497 C496 1.363 . S
C497 C503 1.428 1_655 S
H498 C494 0.930 . S
H499 C496 0.929 . S
S500 N501 1.613 . S
S500 N502 1.610 . S
N501 S500 1.613 . S
N501 C504 1.350 . S
N502 S500 1.610 . S
N502 C503 1.351 . S
C503 C497 1.428 1_455 S
C503 N502 1.351 . S
C503 C504 1.434 . S
C504 C495 1.429 . S
C504 N501 1.350 . S
C504 C503 1.434 . S
C505 C506 1.369 1_565 S
C505 C507 1.419 . S
C505 H509 0.930 . S
C506 C505 1.369 1_545 S
C506 C515 1.429 . S
C507 C505 1.419 . S
C507 C508 1.363 . S
C507 H510 0.929 . S
C508 C507 1.363 . S
C508 C514 1.428 1_565 S
H509 C505 0.930 . S
H510 C507 0.929 . S
S511 N512 1.613 . S
S511 N513 1.610 . S
N512 S511 1.613 . S
N512 C515 1.350 . S
N513 S511 1.610 . S
N513 C514 1.351 . S
C514 C508 1.428 1_545 S
C514 N513 1.351 . S
C514 C515 1.434 . S
C515 C506 1.429 . S
C515 N512 1.350 . S
C515 C514 1.434 . S
C516 C517 1.369 . S
C516 C518 1.419 1_556 S
C516 H520 0.930 . S
C517 C516 1.369 . S
C517 C526 1.429 . S
C518 C516 1.419 1_554 S
C518 C519 1.363 . S
C518 H521 0.929 . S
C519 C518 1.363 . S
C519 C525 1.428 . S
H520 C516 0.930 . S
H521 C518 0.929 . S
S522 N523 1.613 . S
S522 N524 1.610 1_556 S
N523 S522 1.613 . S
N523 C526 1.350 . S
N524 S522 1.610 1_554 S
N524 C525 1.351 . S
C525 C519 1.428 . S
C525 N524 1.351 . S
C525 C526 1.434 1_554 S
C526 C517 1.429 . S
C526 N523 1.350 . S
C526 C525 1.434 1_556 S
C527 C528 1.369 . S
C527 C529 1.419 1_556 S
C527 H531 0.930 . S
C528 C527 1.369 . S
C528 C537 1.429 . S
C529 C527 1.419 1_554 S
C529 C530 1.363 . S
C529 H532 0.929 . S
C530 C529 1.363 . S
C530 C536 1.428 . S
H531 C527 0.930 . S
H532 C529 0.929 . S
S533 N534 1.613 1_554 S
S533 N535 1.610 . S
N534 S533 1.613 1_556 S
N534 C537 1.350 . S
N535 S533 1.610 . S
N535 C536 1.351 . S
C536 C530 1.428 . S
C536 N535 1.351 . S
C536 C537 1.434 1_554 S
C537 C528 1.429 . S
C537 N534 1.350 . S
C537 C536 1.434 1_556 S
C538 C539 1.369 . S
C538 C540 1.419 1_554 S
C538 H542 0.930 . S
C539 C538 1.369 . S
C539 C548 1.429 . S
C540 C538 1.419 1_556 S
C540 C541 1.363 . S
C540 H543 0.929 . S
C541 C540 1.363 . S
C541 C547 1.428 . S
H542 C538 0.930 . S
H543 C540 0.929 . S
S544 N545 1.613 . S
S544 N546 1.610 1_554 S
N545 S544 1.613 . S
N545 C548 1.350 . S
N546 S544 1.610 1_556 S
N546 C547 1.351 . S
C547 C541 1.428 . S
C547 N546 1.351 . S
C547 C548 1.434 1_556 S
C548 C539 1.429 . S
C548 N545 1.350 . S
C548 C547 1.434 1_554 S
C549 C550 1.369 . S
C549 C551 1.419 1_556 S
C549 H553 0.930 . S
C550 C549 1.369 . S
C550 C559 1.429 . S
C551 C549 1.419 1_554 S
C551 C552 1.363 . S
C551 H554 0.929 . S
C552 C551 1.363 . S
C552 C558 1.428 . S
H553 C549 0.930 . S
H554 C551 0.929 . S
S555 N556 1.613 . S
S555 N557 1.610 1_556 S
N556 S555 1.613 . S
N556 C559 1.350 . S
N557 S555 1.610 1_554 S
N557 C558 1.351 . S
C558 C552 1.428 . S
C558 N557 1.351 . S
C558 C559 1.434 1_554 S
C559 C550 1.429 . S
C559 N556 1.350 . S
C559 C558 1.434 1_556 S
C209 C8 1.487 . S
C211 C44 1.356 . S
C220 C5 1.350 . S
C222 C21 1.485 . S
C231 C18 1.356 . S
C233 C34 1.484 . S
C242 C31 1.350 . S
C244 C47 1.485 . S
C253 C60 1.484 . S
C255 C70 1.353 . S
C264 C73 1.484 . S
C266 C83 1.352 . S
C275 C86 1.483 . S
C277 C96 1.358 . S
C286 C99 1.483 . S
C288 C57 1.360 . S
C297 C112 1.487 . S
C299 C148 1.354 . S
C308 C109 1.365 . S
C310 C125 1.486 . S
C319 C122 1.362 . S
C321 C138 1.484 . S
C330 C151 1.484 . S
C332 C135 1.353 . S
C341 C174 1.358 . S
C343 C164 1.484 . S
C352 C187 1.363 . S
C354 C177 1.487 . S
C363 C190 1.486 . S
C365 C200 1.363 . S
C374 C203 1.487 . S
C376 C161 1.354 . S
C385 C0 1.202 . S
C387 C195 1.193 . S
C396 C13 1.201 . S
C398 C156 1.194 . S
C407 C169 1.202 . S
C409 C26 1.195 . S
C418 C39 1.193 . S
C420 C182 1.200 . S
C429 C117 1.193 . S
C431 C52 1.200 . S
C440 C130 1.196 . S
C442 C65 1.200 . S
C451 C78 1.197 . S
C453 C143 1.195 . S
C462 C91 1.197 . S
C464 C104 1.196 . S
C473 C10 1.439 . S
C475 C88 1.438 . S
C484 C101 1.434 . S
C486 C23 1.437 . S
C495 C62 1.430 . S
C497 C36 1.432 . S
C506 C75 1.437 . S
C508 C49 1.438 . S
C517 C114 1.439 . S
C519 C192 1.436 . S
C528 C127 1.432 . S
C530 C205 1.437 . S
C539 C166 1.439 . S
C541 C140 1.437 . S
C550 C153 1.433 . S
C552 C179 1.431 . S
