# Generated by pormake.
# Topology wjg, (4)-cn, num edge types: 1
# Building blocks:
#     Node 0, Type 0, BuildingBlock: CEKHIL_clean_sbu_0, # of connection points: 4
#     Node 1, Type 0, BuildingBlock: CEKHIL_clean_sbu_0, # of connection points: 4
#     Node 2, Type 0, BuildingBlock: CEKHIL_clean_sbu_0, # of connection points: 4
#     Node 3, Type 0, BuildingBlock: CEKHIL_clean_sbu_0, # of connection points: 4
#     Node 4, Type 0, BuildingBlock: CEKHIL_clean_sbu_0, # of connection points: 4
#     Node 5, Type 0, BuildingBlock: CEKHIL_clean_sbu_0, # of connection points: 4
#     Node 6, Type 0, BuildingBlock: CEKHIL_clean_sbu_0, # of connection points: 4
#     Node 7, Type 0, BuildingBlock: CEKHIL_clean_sbu_0, # of connection points: 4
#     Node 8, Type 0, BuildingBlock: CEKHIL_clean_sbu_0, # of connection points: 4
#     Node 9, Type 0, BuildingBlock: CEKHIL_clean_sbu_0, # of connection points: 4
#     Node 10, Type 0, BuildingBlock: CEKHIL_clean_sbu_0, # of connection points: 4
#     Node 11, Type 0, BuildingBlock: CEKHIL_clean_sbu_0, # of connection points: 4
#     Edge 12, Type (0, 0), BuildingBlock: ZUJKAS_clean_linker_0, # of connection points: 2
#     Edge 13, Type (0, 0), BuildingBlock: ZUJKAS_clean_linker_0, # of connection points: 2
#     Edge 14, Type (0, 0), BuildingBlock: ZUJKAS_clean_linker_0, # of connection points: 2
#     Edge 15, Type (0, 0), BuildingBlock: ZUJKAS_clean_linker_0, # of connection points: 2
#     Edge 16, Type (0, 0), BuildingBlock: ZUJKAS_clean_linker_0, # of connection points: 2
#     Edge 17, Type (0, 0), BuildingBlock: ZUJKAS_clean_linker_0, # of connection points: 2
#     Edge 18, Type (0, 0), BuildingBlock: ZUJKAS_clean_linker_0, # of connection points: 2
#     Edge 19, Type (0, 0), BuildingBlock: ZUJKAS_clean_linker_0, # of connection points: 2
#     Edge 20, Type (0, 0), BuildingBlock: ZUJKAS_clean_linker_0, # of connection points: 2
#     Edge 21, Type (0, 0), BuildingBlock: ZUJKAS_clean_linker_0, # of connection points: 2
#     Edge 22, Type (0, 0), BuildingBlock: ZUJKAS_clean_linker_0, # of connection points: 2
#     Edge 23, Type (0, 0), BuildingBlock: ZUJKAS_clean_linker_0, # of connection points: 2
#     Edge 24, Type (0, 0), BuildingBlock: ZUJKAS_clean_linker_0, # of connection points: 2
#     Edge 25, Type (0, 0), BuildingBlock: ZUJKAS_clean_linker_0, # of connection points: 2
#     Edge 26, Type (0, 0), BuildingBlock: ZUJKAS_clean_linker_0, # of connection points: 2
#     Edge 27, Type (0, 0), BuildingBlock: ZUJKAS_clean_linker_0, # of connection points: 2
#     Edge 28, Type (0, 0), BuildingBlock: ZUJKAS_clean_linker_0, # of connection points: 2
#     Edge 29, Type (0, 0), BuildingBlock: ZUJKAS_clean_linker_0, # of connection points: 2
#     Edge 30, Type (0, 0), BuildingBlock: ZUJKAS_clean_linker_0, # of connection points: 2
#     Edge 31, Type (0, 0), BuildingBlock: ZUJKAS_clean_linker_0, # of connection points: 2
#     Edge 32, Type (0, 0), BuildingBlock: ZUJKAS_clean_linker_0, # of connection points: 2
#     Edge 33, Type (0, 0), BuildingBlock: ZUJKAS_clean_linker_0, # of connection points: 2
#     Edge 34, Type (0, 0), BuildingBlock: ZUJKAS_clean_linker_0, # of connection points: 2
#     Edge 35, Type (0, 0), BuildingBlock: ZUJKAS_clean_linker_0, # of connection points: 2
# Relax obj value: 0.339
# Max RMSD: 0.121
# Mean RMSD: 0.111
data_MOF--net-wjg--node1-CEKHIL_clean_sbu_0--edge1-ZUJKAS_clean_linker_0
_symmetry_space_group_name_H-M    P1
_symmetry_Int_Tables_number       1
_symmetry_cell_setting            triclinic
loop_
_symmetry_equiv_pos_as_xyz
'x, y, z'
_cell_length_a     39.762381
_cell_length_b     39.565405
_cell_length_c     52.231099
_cell_angle_alpha  89.968433
_cell_angle_beta   90.056114
_cell_angle_gamma 120.11208
loop_
_atom_site_label
_atom_site_type_symbol
_atom_site_fract_x
_atom_site_fract_y
_atom_site_fract_z
_atom_type_partial_charge
Co0 Co 0.15448 0.42741 0.31813 0.0
O1 O 0.15245 0.42464 0.28164 0.0
O2 O 0.10158 0.39102 0.30685 0.0
C3 C 0.18992 0.49311 0.32003 0.0
O4 O 0.14798 0.42404 0.35718 0.0
Co5 Co 0.23632 0.46378 0.34396 0.0
O6 O 0.20678 0.46651 0.37361 0.0
C7 C 0.19544 0.381 0.32734 0.0
C8 C 0.11581 0.39945 0.28371 0.0
C9 C 0.17043 0.44297 0.37617 0.0
O10 O 0.16613 0.38358 0.31962 0.0
O11 O 0.22667 0.41 0.33619 0.0
O12 O 0.15245 0.47595 0.31728 0.0
O13 O 0.20449 0.47047 0.31911 0.0
Co14 Co 0.72039 0.13509 0.64878 0.0
O15 O 0.7058 0.1195 0.61416 0.0
O16 O 0.69947 0.07884 0.64544 0.0
C17 C 0.69341 0.17329 0.65052 0.0
O18 O 0.73246 0.14348 0.68721 0.0
Co19 Co 0.77726 0.22417 0.65787 0.0
O20 O 0.76019 0.2085 0.69377 0.0
C21 C 0.80753 0.17442 0.63895 0.0
C22 C 0.69524 0.08431 0.62128 0.0
C23 C 0.74536 0.17357 0.70208 0.0
O24 O 0.77397 0.14392 0.64207 0.0
O25 O 0.81401 0.20931 0.64203 0.0
O26 O 0.67202 0.13593 0.65444 0.0
O27 O 0.72859 0.18503 0.64343 0.0
Co28 Co 0.57101 0.72852 0.97729 0.0
O29 O 0.57245 0.7146 0.94259 0.0
O30 O 0.6077 0.70964 0.97368 0.0
C31 C 0.50572 0.6986 0.9791 0.0
O32 O 0.57458 0.74015 0.01577 0.0
Co33 Co 0.53565 0.78216 0.98712 0.0
O34 O 0.53579 0.76565 0.02299 0.0
C35 C 0.61636 0.81663 0.96872 0.0
C36 C 0.59771 0.70503 0.94957 0.0
C37 C 0.55705 0.7521 0.03097 0.0
O38 O 0.61433 0.78332 0.9708 0.0
O39 O 0.58721 0.82155 0.97224 0.0
O40 O 0.52309 0.67863 0.9829 0.0
O41 O 0.52796 0.73436 0.97216 0.0
Co42 Co 0.86324 0.58558 0.31694 0.0
O43 O 0.88299 0.58947 0.2832 0.0
O44 O 0.9188 0.6237 0.31635 0.0
C45 C 0.82838 0.51995 0.31724 0.0
O46 O 0.85026 0.58659 0.35483 0.0
Co47 Co 0.77336 0.54837 0.32177 0.0
O48 O 0.78552 0.54575 0.35837 0.0
C49 C 0.8209 0.63023 0.30523 0.0
C50 C 0.9165 0.61536 0.29202 0.0
C51 C 0.81906 0.56704 0.36829 0.0
O52 O 0.85191 0.62872 0.30955 0.0
O53 O 0.78665 0.60041 0.30682 0.0
O54 O 0.86512 0.53765 0.32302 0.0
O55 O 0.81549 0.54216 0.30926 0.0
Co56 Co 0.2664 0.84815 0.65299 0.0
O57 O 0.27436 0.8537 0.61694 0.0
O58 O 0.28538 0.90234 0.64289 0.0
C59 C 0.29549 0.81245 0.65882 0.0
O60 O 0.2608 0.85036 0.69194 0.0
Co61 Co 0.21316 0.76255 0.67242 0.0
O62 O 0.23545 0.78805 0.70575 0.0
C63 C 0.17803 0.80506 0.64873 0.0
C64 C 0.28519 0.89022 0.61961 0.0
C65 C 0.25077 0.82462 0.70995 0.0
O66 O 0.21142 0.8364 0.64832 0.0
O67 O 0.17313 0.77174 0.65546 0.0
O68 O 0.3164 0.85029 0.65772 0.0
O69 O 0.25913 0.79804 0.65365 0.0
Co70 Co 0.4201 0.2661 0.98124 0.0
O71 O 0.42022 0.27349 0.94519 0.0
O72 O 0.38206 0.28157 0.97224 0.0
C73 C 0.48517 0.29913 0.98561 0.0
O74 O 0.41405 0.2604 0.02025 0.0
Co75 Co 0.45777 0.21731 0.99953 0.0
O76 O 0.45434 0.23885 0.03309 0.0
C77 C 0.37827 0.17703 0.97867 0.0
C78 C 0.39317 0.28203 0.94866 0.0
C79 C 0.43138 0.2518 0.03787 0.0
O80 O 0.37891 0.20975 0.97743 0.0
O81 O 0.40789 0.17412 0.9849 0.0
O82 O 0.46628 0.31802 0.98508 0.0
O83 O 0.46475 0.26227 0.9808 0.0
Co84 Co 0.5949 0.85618 0.35196 0.0
O85 O 0.60212 0.86887 0.38751 0.0
O86 O 0.634 0.91114 0.35637 0.0
C87 C 0.52949 0.82323 0.35314 0.0
O88 O 0.59309 0.85082 0.31285 0.0
Co89 Co 0.55407 0.76728 0.33874 0.0
O90 O 0.55062 0.78724 0.30454 0.0
C91 C 0.63654 0.80924 0.35396 0.0
C92 C 0.62794 0.90386 0.38081 0.0
C93 C 0.57234 0.8225 0.29726 0.0
O94 O 0.63659 0.84171 0.35347 0.0
O95 O 0.6058 0.77593 0.35084 0.0
O96 O 0.54823 0.86105 0.35107 0.0
O97 O 0.55082 0.8077 0.3571 0.0
Co98 Co 0.73131 0.5854 0.68821 0.0
O99 O 0.72561 0.59352 0.72355 0.0
O100 O 0.71303 0.6226 0.69163 0.0
C101 C 0.70178 0.51985 0.6907 0.0
O102 O 0.73492 0.58265 0.6492 0.0
Co103 Co 0.78231 0.5479 0.67571 0.0
O104 O 0.75941 0.54309 0.64119 0.0
C105 C 0.81963 0.63113 0.69004 0.0
C106 C 0.71502 0.61797 0.71621 0.0
C107 C 0.74428 0.56322 0.63373 0.0
O108 O 0.78656 0.62945 0.68927 0.0
O109 O 0.82362 0.60112 0.68746 0.0
O110 O 0.68107 0.53663 0.68796 0.0
O111 O 0.73841 0.54315 0.69431 0.0
Co112 Co 0.13578 0.72803 0.02501 0.0
O113 O 0.11629 0.71335 0.05893 0.0
O114 O 0.08056 0.71158 0.02573 0.0
C115 C 0.16904 0.69581 0.02516 0.0
O116 O 0.14864 0.74126 0.98699 0.0
Co117 Co 0.226 0.77912 0.01992 0.0
O118 O 0.21334 0.76555 0.98322 0.0
C119 C 0.18049 0.81551 0.03597 0.0
C120 C 0.08298 0.70614 0.05015 0.0
C121 C 0.17978 0.75344 0.9734 0.0
O122 O 0.14886 0.78326 0.03175 0.0
O123 O 0.21425 0.81896 0.03464 0.0
O124 O 0.13221 0.67726 0.01959 0.0
O125 O 0.18292 0.73137 0.03268 0.0
Co126 Co 0.41365 0.15193 0.35311 0.0
O127 O 0.41024 0.14632 0.3894 0.0
O128 O 0.37821 0.09744 0.36229 0.0
C129 C 0.47899 0.18898 0.35237 0.0
O130 O 0.41152 0.1495 0.3139 0.0
Co131 Co 0.44834 0.23698 0.33208 0.0
O132 O 0.45022 0.21131 0.29995 0.0
C133 C 0.36703 0.19349 0.35023 0.0
C134 C 0.38592 0.10961 0.38595 0.0
C135 C 0.42916 0.1747 0.29589 0.0
O136 O 0.36931 0.16248 0.35312 0.0
O137 O 0.39608 0.22676 0.34413 0.0
O138 O 0.46258 0.15116 0.35303 0.0
O139 O 0.4557 0.20258 0.35438 0.0
Co140 Co 0.25171 0.40519 0.68635 0.0
O141 O 0.2506 0.39765 0.72245 0.0
O142 O 0.26729 0.36678 0.69436 0.0
C143 C 0.28334 0.47092 0.68849 0.0
O144 O 0.25498 0.40693 0.64716 0.0
Co145 Co 0.20827 0.44681 0.66515 0.0
O146 O 0.23974 0.45208 0.63443 0.0
C147 C 0.16445 0.36205 0.67705 0.0
C148 C 0.26166 0.37254 0.71819 0.0
C149 C 0.25187 0.4284 0.62974 0.0
O150 O 0.19588 0.36264 0.68364 0.0
O151 O 0.16321 0.39266 0.67059 0.0
O152 O 0.30282 0.45265 0.68891 0.0
O153 O 0.24606 0.44897 0.68902 0.0
Co154 Co 0.84858 0.2662 0.02055 0.0
O155 O 0.8565 0.27319 0.05657 0.0
O156 O 0.90242 0.28217 0.029 0.0
C157 C 0.81605 0.29896 0.01698 0.0
O158 O 0.84815 0.26104 0.98144 0.0
Co159 Co 0.76176 0.2174 0.003 0.0
O160 O 0.78599 0.23942 0.96935 0.0
C161 C 0.80149 0.17726 0.02347 0.0
C162 C 0.89213 0.28221 0.05273 0.0
C163 C 0.8218 0.25268 0.96416 0.0
O164 O 0.8338 0.20981 0.02401 0.0
O165 O 0.76888 0.17465 0.01791 0.0
O166 O 0.8538 0.31804 0.01719 0.0
O167 O 0.80003 0.26211 0.02167 0.0
H168 H 0.26385 0.53035 0.33779 0.0
H169 H 0.30632 0.59998 0.34462 0.0
H170 H 0.21538 0.62173 0.31992 0.0
H171 H 0.17169 0.55097 0.31351 0.0
H172 H 0.3018 0.66482 0.29482 0.0
H173 H 0.29152 0.67492 0.40008 0.0
H174 H 0.29058 0.63131 0.38921 0.0
H175 H 0.25153 0.63964 0.38064 0.0
C176 C 0.25253 0.54969 0.33405 0.0
C177 C 0.21444 0.53523 0.32513 0.0
C178 C 0.27683 0.58948 0.33804 0.0
C179 C 0.26375 0.61571 0.33294 0.0
C180 C 0.22569 0.60167 0.32414 0.0
H181 H 0.47763 0.84766 0.34175 0.0
H182 H 0.4068 0.80628 0.3362 0.0
C183 C 0.20092 0.56144 0.32051 0.0
C184 C 0.29182 0.65774 0.33546 0.0
H185 H 0.35369 0.71959 0.38074 0.0
C186 C 0.3123 0.67792 0.31349 0.0
C187 C 0.30529 0.67442 0.35985 0.0
C188 C 0.28341 0.65413 0.38384 0.0
C189 C 0.34856 0.71221 0.31555 0.0
C190 C 0.36415 0.72626 0.34011 0.0
C191 C 0.34154 0.70858 0.36192 0.0
C192 C 0.40626 0.75226 0.34366 0.0
C193 C 0.37199 0.73071 0.29169 0.0
C194 C 0.42889 0.73531 0.34965 0.0
C195 C 0.4689 0.75854 0.35274 0.0
C196 C 0.48704 0.79924 0.34995 0.0
C197 C 0.46431 0.81632 0.34403 0.0
C198 C 0.42402 0.79287 0.34087 0.0
H199 H 0.35438 0.71869 0.27401 0.0
H200 H 0.38397 0.7628 0.29215 0.0
H201 H 0.39692 0.72547 0.29093 0.0
H202 H 0.41552 0.70392 0.35177 0.0
H203 H 0.48559 0.74452 0.3573 0.0
H204 H 0.73332 0.25128 0.64196 0.0
H205 H 0.71166 0.29814 0.64905 0.0
H206 H 0.60015 0.20546 0.67479 0.0
H207 H 0.62189 0.15787 0.66785 0.0
H208 H 0.64357 0.29793 0.62766 0.0
H209 H 0.64396 0.28826 0.73425 0.0
H210 H 0.66944 0.27077 0.71467 0.0
H211 H 0.61734 0.24425 0.71565 0.0
C212 C 0.70414 0.24071 0.64909 0.0
C213 C 0.67934 0.20096 0.65449 0.0
C214 C 0.69175 0.26751 0.653 0.0
C215 C 0.65439 0.25519 0.66244 0.0
C216 C 0.62918 0.21544 0.66759 0.0
H217 H 0.62826 0.46435 0.67566 0.0
H218 H 0.6036 0.39403 0.66977 0.0
C219 C 0.64161 0.1884 0.66362 0.0
C220 C 0.64345 0.28505 0.66769 0.0
H221 H 0.64392 0.34258 0.7164 0.0
C222 C 0.64228 0.30711 0.64702 0.0
C223 C 0.64192 0.29674 0.69301 0.0
C224 C 0.6433 0.274 0.71579 0.0
C225 C 0.64309 0.34254 0.65104 0.0
C226 C 0.64479 0.35581 0.67637 0.0
C227 C 0.64247 0.33206 0.69703 0.0
C228 C 0.6572 0.39706 0.68162 0.0
C229 C 0.6458 0.36728 0.62827 0.0
C230 C 0.69513 0.42157 0.69052 0.0
C231 C 0.70921 0.46134 0.69375 0.0
C232 C 0.68553 0.47737 0.68828 0.0
C233 C 0.64711 0.45268 0.67998 0.0
C234 C 0.63302 0.41265 0.6766 0.0
H235 H 0.64566 0.35329 0.60981 0.0
H236 H 0.62086 0.3725 0.6284 0.0
H237 H 0.67287 0.39616 0.62944 0.0
H238 H 0.71424 0.41001 0.69436 0.0
H239 H 0.73887 0.47958 0.70028 0.0
H240 H 0.45272 0.62655 0.99805 0.0
H241 H 0.38271 0.60063 0.00442 0.0
H242 H 0.39459 0.7078 0.97463 0.0
H243 H 0.46384 0.73363 0.9682 0.0
H244 H 0.34959 0.63392 0.03539 0.0
H245 H 0.30006 0.62416 0.93562 0.0
H246 H 0.34525 0.6262 0.94378 0.0
H247 H 0.34292 0.67043 0.94139 0.0
C248 C 0.44019 0.64432 0.99266 0.0
C249 C 0.46362 0.68206 0.98261 0.0
C250 C 0.4003 0.62946 0.99622 0.0
C251 C 0.38343 0.65196 0.9894 0.0
C252 C 0.40686 0.68953 0.97932 0.0
H253 H 0.24344 0.72667 0.04115 0.0
H254 H 0.28708 0.70124 0.03422 0.0
C255 C 0.44653 0.70442 0.97591 0.0
C256 C 0.34221 0.63858 0.9949 0.0
H257 H 0.2646 0.63925 0.9678 0.0
C258 C 0.33036 0.63371 0.02056 0.0
C259 C 0.31678 0.63736 0.97552 0.0
C260 C 0.32678 0.63938 0.94751 0.0
C261 C 0.29571 0.63241 0.02754 0.0
C262 C 0.27295 0.63665 0.00838 0.0
C263 C 0.28244 0.63667 0.98253 0.0
C264 C 0.24436 0.64873 0.01479 0.0
C265 C 0.2851 0.62911 0.0555 0.0
C266 C 0.20597 0.62797 0.00571 0.0
C267 C 0.18082 0.64265 0.00958 0.0
C268 C 0.19409 0.67855 0.02216 0.0
C269 C 0.23238 0.69891 0.03141 0.0
C270 C 0.25724 0.68418 0.02773 0.0
H271 H 0.29562 0.61179 0.06604 0.0
H272 H 0.29927 0.65875 0.0641 0.0
H273 H 0.25317 0.61529 0.05816 0.0
H274 H 0.19574 0.60086 0.99531 0.0
H275 H 0.15143 0.62648 0.00219 0.0
H276 H 0.53551 0.1688 0.34836 0.0
H277 H 0.60623 0.21352 0.34637 0.0
H278 H 0.588 0.31208 0.3496 0.0
H279 H 0.51801 0.26812 0.35158 0.0
H280 H 0.64823 0.27505 0.30871 0.0
H281 H 0.66826 0.33308 0.40729 0.0
H282 H 0.62681 0.28691 0.3979 0.0
H283 H 0.62771 0.33205 0.39141 0.0
C284 C 0.54672 0.20003 0.34866 0.0
C285 C 0.52134 0.21504 0.35025 0.0
C286 C 0.58698 0.22542 0.34761 0.0
C287 C 0.60216 0.26595 0.34844 0.0
C288 C 0.57679 0.28083 0.34958 0.0
H289 H 0.75821 0.47546 0.29514 0.0
H290 H 0.71158 0.40689 0.3033 0.0
C291 C 0.53679 0.25566 0.35052 0.0
C292 C 0.64434 0.29359 0.34682 0.0
H293 H 0.71433 0.37663 0.3755 0.0
C294 C 0.66328 0.29658 0.3236 0.0
C295 C 0.66409 0.32118 0.36645 0.0
C296 C 0.64578 0.31794 0.39228 0.0
C297 C 0.69992 0.32903 0.31848 0.0
C298 C 0.71754 0.35897 0.337 0.0
C299 C 0.70055 0.35374 0.36125 0.0
C300 C 0.74854 0.3986 0.32996 0.0
C301 C 0.71834 0.33241 0.29269 0.0
C302 C 0.78471 0.41665 0.34241 0.0
C303 C 0.81167 0.45601 0.33761 0.0
C304 C 0.80219 0.47777 0.32083 0.0
C305 C 0.76621 0.45935 0.30818 0.0
C306 C 0.73971 0.42011 0.31264 0.0
H307 H 0.70856 0.30314 0.28427 0.0
H308 H 0.70959 0.34859 0.27946 0.0
H309 H 0.75056 0.34859 0.29413 0.0
H310 H 0.79167 0.40057 0.35615 0.0
H311 H 0.83918 0.46974 0.34771 0.0
H312 H 0.25501 0.73636 0.67288 0.0
H313 H 0.28044 0.69343 0.68318 0.0
H314 H 0.39747 0.78804 0.67098 0.0
H315 H 0.37205 0.83197 0.66101 0.0
H316 H 0.36731 0.70905 0.6424 0.0
H317 H 0.34896 0.69732 0.74769 0.0
H318 H 0.30941 0.69744 0.73108 0.0
H319 H 0.35711 0.74005 0.72987 0.0
C320 C 0.28618 0.7483 0.67265 0.0
C321 C 0.31157 0.78748 0.66616 0.0
C322 C 0.30067 0.72378 0.67866 0.0
C323 C 0.34077 0.73782 0.6781 0.0
C324 C 0.36644 0.77696 0.67175 0.0
H325 H 0.36138 0.5252 0.68757 0.0
H326 H 0.39101 0.59685 0.68641 0.0
C327 C 0.3519 0.80186 0.66607 0.0
C328 C 0.35432 0.7098 0.68233 0.0
H329 H 0.34027 0.63942 0.72548 0.0
C330 C 0.36328 0.6947 0.66077 0.0
C331 C 0.34911 0.69142 0.70632 0.0
C332 C 0.34097 0.7076 0.73015 0.0
C333 C 0.36218 0.65873 0.66203 0.0
C334 C 0.35208 0.63799 0.68539 0.0
C335 C 0.34791 0.65549 0.70757 0.0
C336 C 0.33594 0.59541 0.68575 0.0
C337 C 0.36735 0.64097 0.63789 0.0
C338 C 0.29543 0.57143 0.68562 0.0
C339 C 0.2786 0.53102 0.68625 0.0
C340 C 0.30199 0.51378 0.68705 0.0
C341 C 0.34271 0.53782 0.68696 0.0
C342 C 0.35965 0.57857 0.68632 0.0
H343 H 0.3789 0.66234 0.62189 0.0
H344 H 0.38748 0.62969 0.64144 0.0
H345 H 0.33889 0.61587 0.63201 0.0
H346 H 0.27677 0.58409 0.68508 0.0
H347 H 0.24718 0.51335 0.68628 0.0
H348 H 0.74002 0.26254 0.00358 0.0
H349 H 0.69988 0.29196 0.99597 0.0
H350 H 0.7983 0.4064 0.01022 0.0
H351 H 0.83945 0.37699 0.01736 0.0
H352 H 0.71739 0.37259 0.04093 0.0
H353 H 0.71004 0.37263 0.9349 0.0
H354 H 0.70966 0.33065 0.94849 0.0
H355 H 0.752 0.37816 0.9522 0.0
C356 C 0.75338 0.29399 0.00481 0.0
C357 C 0.79281 0.3175 0.01109 0.0
C358 C 0.73045 0.31075 1.00035 0.0
C359 C 0.74635 0.35125 0.00235 0.0
C360 C 0.78579 0.37509 0.00838 0.0
H361 H 0.53987 0.3766 0.98099 0.0
H362 H 0.61073 0.40622 0.98638 0.0
C363 C 0.8091 0.35828 0.01245 0.0
C364 C 0.71991 0.367 1.00007 0.0
H365 H 0.65297 0.36327 0.95775 0.0
C366 C 0.70425 0.37245 0.02269 0.0
C367 C 0.70306 0.36683 0.97625 0.0
C368 C 0.71972 0.36209 0.9515 0.0
C369 C 0.66915 0.37272 0.02225 0.0
C370 C 0.6498 0.36759 0.99868 0.0
C371 C 0.66801 0.36719 0.97581 0.0
C372 C 0.6076 0.35223 0.99792 0.0
C373 C 0.65084 0.37434 0.04712 0.0
C374 C 0.58292 0.31234 0.00269 0.0
C375 C 0.54301 0.29537 0.99918 0.0
C376 C 0.52702 0.31815 0.99116 0.0
C377 C 0.5516 0.3585 0.9873 0.0
C378 C 0.59188 0.37543 0.99036 0.0
H379 H 0.67282 0.3877 0.06262 0.0
H380 H 0.63561 0.39123 0.04479 0.0
H381 H 0.62901 0.34418 0.05301 0.0
H382 H 0.59476 0.29403 0.00834 0.0
H383 H 0.52479 0.26429 0.00239 0.0
H384 H 0.14196 0.31351 0.30281 0.0
H385 H 0.13525 0.24838 0.30675 0.0
H386 H 0.23285 0.29566 0.35863 0.0
H387 H 0.24001 0.35997 0.35474 0.0
H388 H 0.19633 0.23141 0.29499 0.0
H389 H 0.15052 0.19494 0.39523 0.0
H390 H 0.13996 0.22696 0.37638 0.0
H391 H 0.18597 0.24587 0.39267 0.0
C392 C 0.16189 0.30985 0.31508 0.0
C393 C 0.19172 0.34196 0.32832 0.0
C394 C 0.15775 0.27266 0.31746 0.0
C395 C 0.18278 0.26712 0.33358 0.0
C396 C 0.21247 0.29913 0.34669 0.0
H397 H 0.35123 0.25162 0.35961 0.0
H398 H 0.28857 0.24831 0.35582 0.0
C399 C 0.21695 0.33609 0.34409 0.0
C400 C 0.18224 0.22964 0.33494 0.0
H401 H 0.20437 0.1835 0.38124 0.0
C402 C 0.19598 0.2189 0.31354 0.0
C403 C 0.18084 0.21259 0.35898 0.0
C404 C 0.16304 0.22042 0.38204 0.0
C405 C 0.21533 0.19775 0.31663 0.0
C406 C 0.2208 0.18763 0.3416 0.0
C407 C 0.2007 0.192 0.36215 0.0
C408 C 0.25633 0.1864 0.34747 0.0
C409 C 0.23502 0.19174 0.29386 0.0
C410 C 0.25844 0.15233 0.34467 0.0
C411 C 0.29436 0.15409 0.34704 0.0
C412 C 0.32843 0.19006 0.35184 0.0
C413 C 0.32561 0.22362 0.35574 0.0
C414 C 0.28985 0.22172 0.35368 0.0
H415 H 0.22247 0.19456 0.27552 0.0
H416 H 0.26644 0.21401 0.29418 0.0
H417 H 0.23237 0.16246 0.29471 0.0
H418 H 0.23275 0.12493 0.33976 0.0
H419 H 0.29573 0.12777 0.34382 0.0
H420 H 0.8132 0.1095 0.64927 0.0
H421 H 0.87345 0.10705 0.65261 0.0
H422 H 0.93818 0.22489 0.62367 0.0
H423 H 0.87856 0.22758 0.6202 0.0
H424 H 0.96685 0.17255 0.60783 0.0
H425 H 0.94373 0.17394 0.71318 0.0
H426 H 0.90813 0.13526 0.69333 0.0
H427 H 0.91415 0.18328 0.69136 0.0
C428 C 0.84014 0.13443 0.64285 0.0
C429 C 0.84134 0.16909 0.63494 0.0
C430 C 0.87448 0.13295 0.64485 0.0
C431 C 0.91019 0.16596 0.63874 0.0
C432 C 0.91083 0.19907 0.62848 0.0
H433 H 0.09891 0.34683 0.6514 0.0
H434 H 0.04191 0.28372 0.64302 0.0
C435 C 0.87676 0.20069 0.62666 0.0
C436 C 0.94761 0.16986 0.6467 0.0
H437 H 0.00783 0.20869 0.69811 0.0
C438 C 0.97575 0.17865 0.62773 0.0
C439 C 0.95911 0.17709 0.67272 0.0
C440 C 0.92986 0.16692 0.69395 0.0
C441 C 0.01541 0.20028 0.6337 0.0
C442 C 0.02666 0.21347 0.65906 0.0
C443 C -0.00116 0.19888 0.6786 0.0
C444 C 0.06277 0.25061 0.66392 0.0
C445 C 0.04482 0.21313 0.6124 0.0
C446 C 0.09282 0.25285 0.67919 0.0
C447 C 0.12584 0.28925 0.68406 0.0
C448 C 0.12861 0.32373 0.67417 0.0
C449 C 0.09775 0.32106 0.6595 0.0
C450 C 0.06532 0.28492 0.65439 0.0
H451 H 0.03437 0.19117 0.59673 0.0
H452 H 0.04935 0.24105 0.60429 0.0
H453 H 0.0732 0.21789 0.61954 0.0
H454 H 0.09086 0.22659 0.68708 0.0
H455 H 0.14919 0.29039 0.69543 0.0
H456 H 0.86451 0.16712 0.0184 0.0
H457 H 0.86263 0.10498 0.01131 0.0
H458 H 0.73921 0.04283 0.02584 0.0
H459 H 0.74077 0.10433 0.0331 0.0
H460 H 0.78073 0.00436 0.04381 0.0
H461 H 0.81132 0.05287 0.94189 0.0
H462 H 0.84512 0.08178 0.96664 0.0
H463 H 0.79874 0.07901 0.96463 0.0
C464 C 0.83718 0.14014 0.02088 0.0
C465 C 0.80256 0.1406 0.02578 0.0
C466 C 0.83621 0.10473 0.01671 0.0
C467 C 0.80069 0.06951 0.01759 0.0
C468 C 0.76693 0.06979 0.02499 0.0
H469 H 0.63314 0.89033 0.956 0.0
H470 H 0.69418 0.95032 0.96394 0.0
C471 C 0.7678 0.10499 0.02901 0.0
C472 C 0.79632 0.03284 0.00717 0.0
H473 H 0.77518 0.98571 0.9497 0.0
C474 C 0.78099 0.00015 0.0233 0.0
C475 C 0.7971 0.02776 0.9804 0.0
C476 C 0.81389 0.06206 0.96223 0.0
C477 C 0.76165 0.96221 0.01319 0.0
C478 C 0.75801 0.95723 0.98629 0.0
C479 C 0.77794 0.98981 0.97029 0.0
C480 C 0.72573 0.92122 0.97515 0.0
C481 C 0.74127 0.92805 0.03131 0.0
C482 C 0.72399 0.88508 0.97732 0.0
C483 C 0.6889 0.85053 0.97278 0.0
C484 C 0.6552 0.85187 0.96618 0.0
C485 C 0.65835 0.88827 0.96142 0.0
C486 C 0.69333 0.92262 0.96585 0.0
H487 H 0.74617 0.93726 0.05171 0.0
H488 H 0.70949 0.91219 0.02753 0.0
H489 H 0.75201 0.90735 0.0282 0.0
H490 H 0.7489 0.88351 0.98414 0.0
H491 H 0.68754 0.82291 0.97642 0.0
H492 H 0.64972 0.75 0.36658 0.0
H493 H 0.70971 0.74861 0.36049 0.0
H494 H 0.76879 0.86961 0.33742 0.0
H495 H 0.70866 0.87139 0.34361 0.0
H496 H 0.77073 0.81943 0.30089 0.0
H497 H 0.81628 0.79174 0.39443 0.0
H498 H 0.76468 0.76154 0.39067 0.0
H499 H 0.78624 0.81393 0.39141 0.0
C500 C 0.67569 0.77664 0.3609 0.0
C501 C 0.67433 0.81064 0.35533 0.0
C502 C 0.71011 0.77594 0.35766 0.0
C503 C 0.74378 0.80916 0.34876 0.0
C504 C 0.74319 0.84384 0.34457 0.0
H505 H 0.88211 0.70122 0.31909 0.0
H506 H 0.8804 0.76164 0.32497 0.0
C507 C 0.70879 0.84472 0.34811 0.0
C508 C 0.77661 0.80477 0.33981 0.0
H509 H 0.82475 0.75773 0.35755 0.0
C510 C 0.78386 0.80732 0.31337 0.0
C511 C 0.7946 0.79002 0.35608 0.0
C512 C 0.79036 0.78958 0.38477 0.0
C513 C 0.80401 0.79025 0.30249 0.0
C514 C 0.81664 0.77002 0.31848 0.0
C515 C 0.81437 0.7726 0.34518 0.0
C516 C 0.82323 0.73894 0.30837 0.0
C517 C 0.80884 0.79128 0.27384 0.0
C518 C 0.79223 0.70668 0.29622 0.0
C519 C 0.79284 0.67201 0.29313 0.0
C520 C 0.82453 0.66903 0.3021 0.0
C521 C 0.85721 0.70256 0.31198 0.0
C522 C 0.85636 0.73717 0.31536 0.0
H523 H 0.81253 0.81895 0.26579 0.0
H524 H 0.83423 0.78836 0.26832 0.0
H525 H 0.78228 0.76682 0.26515 0.0
H526 H 0.76602 0.70709 0.29112 0.0
H527 H 0.76737 0.6468 0.2853 0.0
H528 H 0.17223 0.87125 0.64994 0.0
H529 H 0.11206 0.87391 0.65266 0.0
H530 H 0.04515 0.74926 0.64102 0.0
H531 H 0.10466 0.74629 0.63816 0.0
H532 H 0.01348 0.79471 0.61748 0.0
H533 H 0.05139 0.82772 0.72086 0.0
H534 H 0.08392 0.85922 0.69639 0.0
H535 H 0.07783 0.81155 0.70115 0.0
C536 C 0.1447 0.84458 0.64721 0.0
C537 C 0.14309 0.80836 0.64436 0.0
C538 C 0.11043 0.84622 0.64883 0.0
C539 C 0.07432 0.81173 0.64742 0.0
C540 C 0.07283 0.77623 0.64218 0.0
H541 H 0.893 0.64774 0.70204 0.0
H542 H 0.95296 0.70899 0.69446 0.0
C543 C 0.10687 0.77451 0.64071 0.0
C544 C 0.03797 0.81025 0.65527 0.0
H545 H 0.98538 0.79107 0.71022 0.0
C546 C 0.00729 0.7956 0.63761 0.0
C547 C 0.0303 0.81199 0.68154 0.0
C548 C 0.06244 0.82847 0.70122 0.0
C549 C 0.96859 0.77717 0.64596 0.0
C550 C 0.96089 0.77367 0.67256 0.0
C551 C 0.9916 0.79363 0.68987 0.0
C552 C 0.92439 0.74072 0.68244 0.0
C553 C 0.93638 0.75713 0.62653 0.0
C554 C 0.88853 0.73889 0.67928 0.0
C555 C 0.854 0.7037 0.68364 0.0
C556 C 0.85511 0.66997 0.69097 0.0
C557 C 0.89117 0.673 0.69609 0.0
C558 C 0.92546 0.70808 0.69191 0.0
H559 H 0.94741 0.76321 0.60654 0.0
H560 H 0.9209 0.72504 0.62966 0.0
H561 H 0.915 0.7671 0.62886 0.0
H562 H 0.88724 0.76393 0.67216 0.0
H563 H 0.82661 0.70233 0.67966 0.0
H564 H 0.36461 0.10332 0.96935 0.0
H565 H 0.30344 0.04253 0.9756 0.0
H566 H 0.24494 0.10743 0.99033 0.0
H567 H 0.30608 0.16863 0.98387 0.0
H568 H 0.2414 0.05854 0.03076 0.0
H569 H 0.19767 0.97674 0.93981 0.0
H570 H 0.24903 -0.00142 0.94496 0.0
H571 H 0.22801 0.02937 0.94107 0.0
C572 C 0.33853 0.10469 0.9731 0.0
C573 C 0.34028 0.14075 0.97635 0.0
C574 C 0.30349 0.06991 0.97648 0.0
C575 C 0.26966 0.07056 0.98325 0.0
C576 C 0.27069 0.1064 0.98487 0.0
H577 H 0.12135 0.82704 0.02048 0.0
H578 H 0.12653 0.89021 0.01196 0.0
C579 C 0.30568 0.14129 0.98115 0.0
C580 C 0.23599 0.03437 0.99295 0.0
H581 H 0.18525 0.93747 0.97879 0.0
C582 C 0.22786 0.03215 0.01925 0.0
C583 C 0.21765 0.00019 0.97789 0.0
C584 C 0.22323 0.0014 0.94929 0.0
C585 C 0.20611 0.9959 0.03141 0.0
C586 C 0.19262 0.96144 0.01685 0.0
C587 C 0.19614 0.96395 0.99006 0.0
C588 C 0.18363 0.92403 0.02887 0.0
C589 C 0.20039 0.99471 0.05999 0.0
C590 C 0.21334 0.92216 0.0422 0.0
C591 C 0.21076 0.88624 0.04679 0.0
C592 C 0.17836 0.85158 0.03817 0.0
C593 C 0.14678 0.85326 0.02733 0.0
C594 C 0.14961 0.88932 0.02243 0.0
H595 H 0.19818 0.02025 0.0665 0.0
H596 H 0.17386 0.96744 0.066 0.0
H597 H 0.22592 0.9961 0.06967 0.0
H598 H 0.24017 0.9486 0.04695 0.0
H599 H 0.23539 0.88585 0.05536 0.0
H600 H 0.97105 0.3081 0.05354 0.0
H601 H 0.01256 0.32339 0.09187 0.0
H602 H 0.91314 0.29181 0.14008 0.0
H603 H 0.87206 0.27655 0.10261 0.0
H604 H 0.02279 0.37909 0.13126 0.0
H605 H 0.96071 0.22967 0.17099 0.0
H606 H 0.95426 0.23882 0.13796 0.0
H607 H 0.92458 0.24229 0.16262 0.0
C608 C 0.95816 0.30419 0.07234 0.0
C609 C 0.9183 0.29107 0.075 0.0
C610 C 0.98179 0.31287 0.09417 0.0
C611 C 0.96566 0.30797 0.11879 0.0
C612 C 0.92599 0.29491 0.12132 0.0
H613 H 0.03605 0.35979 0.27781 0.0
H614 H -0.00012 0.33623 0.23725 0.0
C615 C 0.90261 0.28649 0.09975 0.0
C616 C 0.99001 0.31855 0.14215 0.0
H617 H -0.00252 0.28251 0.20003 0.0
C618 C 0.01778 0.35793 0.14614 0.0
C619 C 0.98291 0.2909 0.16165 0.0
C620 C 0.95423 0.24799 0.15805 0.0
C621 C 0.03772 0.37068 0.16951 0.0
C622 C 0.03021 0.34311 0.18918 0.0
C623 C 0.00295 0.3036 0.185 0.0
C624 C 0.05124 0.3548 0.21394 0.0
C625 C 0.06566 0.41379 0.17323 0.0
C626 C 0.09173 0.37178 0.21429 0.0
C627 C 0.1122 0.38534 0.23716 0.0
C628 C 0.09262 0.38178 0.26031 0.0
C629 C 0.05185 0.36304 0.26024 0.0
C630 C 0.03126 0.34966 0.23713 0.0
H631 H 0.06014 0.43181 0.1594 0.0
H632 H 0.06366 0.42311 0.19295 0.0
H633 H 0.0958 0.41986 0.17017 0.0
H634 H 0.10762 0.37505 0.19675 0.0
H635 H 0.14359 0.39904 0.23659 0.0
H636 H 0.64313 0.07134 0.58446 0.0
H637 H 0.636 0.03765 0.54396 0.0
H638 H 0.7128 0.99814 0.5714 0.0
H639 H 0.71963 0.03175 0.61241 0.0
H640 H 0.70571 0.06202 0.51431 0.0
H641 H 0.62349 0.9017 0.5327 0.0
H642 H 0.61985 0.93617 0.55355 0.0
H643 H 0.66265 0.9319 0.55419 0.0
C644 C 0.65719 0.05409 0.58225 0.0
C645 C 0.68162 0.05375 0.60155 0.0
C646 C 0.65337 0.03516 0.55905 0.0
C647 C 0.67405 0.01565 0.55463 0.0
C648 C 0.69628 0.01274 0.57456 0.0
H649 H 0.67946 0.90216 0.41322 0.0
H650 H 0.69843 0.93437 0.45501 0.0
C651 C 0.69993 0.03161 0.59802 0.0
C652 C 0.67564 0.00277 0.52824 0.0
H653 H 0.64489 0.92221 0.49056 0.0
C654 C 0.69263 0.03144 0.50909 0.0
C655 C 0.65891 0.96299 0.52161 0.0
C656 C 0.63995 0.93121 0.54147 0.0
C657 C 0.69274 0.02135 0.48334 0.0
C658 C 0.67468 0.98146 0.4765 0.0
C659 C 0.65872 0.95282 0.49581 0.0
C660 C 0.67019 0.96845 0.4494 0.0
C661 C 0.71228 0.05353 0.46378 0.0
C662 C 0.64943 0.97814 0.43188 0.0
C663 C 0.63929 0.9603 0.40775 0.0
C664 C 0.64954 0.93239 0.40097 0.0
C665 C 0.67214 0.92439 0.41787 0.0
C666 C 0.68256 0.94241 0.44183 0.0
H667 H 0.73497 0.0811 0.47273 0.0
H668 H 0.72586 0.0452 0.44831 0.0
H669 H 0.69026 0.05939 0.45505 0.0
H670 H 0.63875 0.99741 0.43748 0.0
H671 H 0.62071 0.96583 0.39535 0.0
H672 H 0.55849 0.65588 0.91125 0.0
H673 H 0.58553 0.64575 0.87207 0.0
H674 H 0.70129 0.71493 0.90281 0.0
H675 H 0.67396 0.72483 0.94259 0.0
H676 H 0.63792 0.71267 0.84205 0.0
H677 H 0.69972 0.61837 0.86841 0.0
H678 H 0.66261 0.62004 0.88738 0.0
H679 H 0.71171 0.65994 0.88845 0.0
C680 C 0.58966 0.66789 0.91 0.0
C681 C 0.61421 0.691 0.92988 0.0
C682 C 0.60505 0.66228 0.88756 0.0
C683 C 0.64535 0.67979 0.88448 0.0
C684 C 0.67004 0.70089 0.90495 0.0
H685 H 0.7671 0.66671 0.7503 0.0
H686 H 0.75318 0.68926 0.79035 0.0
C687 C 0.65448 0.70633 0.92768 0.0
C688 C 0.66085 0.67869 0.85892 0.0
H689 H 0.70562 0.63844 0.82547 0.0
C690 C 0.65301 0.69669 0.8384 0.0
C691 C 0.68062 0.65803 0.85433 0.0
C692 C 0.6891 0.63773 0.87569 0.0
C693 C 0.6639 0.69406 0.81325 0.0
C694 C 0.68249 0.67223 0.80847 0.0
C695 C 0.6913 0.65515 0.82915 0.0
C696 C 0.69202 0.66541 0.78219 0.0
C697 C 0.6555 0.71479 0.79212 0.0
C698 C 0.66258 0.64592 0.76377 0.0
C699 C 0.67075 0.63371 0.74058 0.0
C700 C 0.7083 0.64049 0.73576 0.0
C701 C 0.73805 0.66178 0.75353 0.0
C702 C 0.73005 0.67434 0.77647 0.0
H703 H 0.65268 0.73949 0.79968 0.0
H704 H 0.6787 0.72616 0.77735 0.0
H705 H 0.62757 0.69393 0.7828 0.0
H706 H 0.63284 0.63794 0.76798 0.0
H707 H 0.64721 0.61637 0.72742 0.0
H708 H 0.05805 0.75261 0.07038 0.0
H709 H 0.02992 0.74366 0.11341 0.0
H710 H 0.01305 0.62723 0.11607 0.0
H711 H 0.04164 0.63642 0.07336 0.0
H712 H 0.95986 0.68435 0.14138 0.0
H713 H 0.09755 0.69214 0.17134 0.0
H714 H 0.09056 0.70617 0.13975 0.0
H715 H 0.07046 0.65542 0.14768 0.0
C716 C 0.04624 0.72437 0.07961 0.0
C717 C 0.05127 0.6949 0.0685 0.0
C718 C 0.03071 0.71947 0.1043 0.0
C719 C 0.02028 0.68512 0.11808 0.0
C720 C 0.02142 0.65414 0.10584 0.0
H721 H 0.94724 0.58188 0.26287 0.0
H722 H 0.97946 0.60679 0.22173 0.0
C723 C 0.03712 0.65913 0.0813 0.0
C724 C 0.01303 0.68328 0.14601 0.0
H725 H 0.04889 0.67371 0.20336 0.0
C726 C 0.97948 0.68253 0.15502 0.0
C727 C 0.03906 0.68142 0.16373 0.0
C728 C 0.07664 0.6842 0.15523 0.0
C729 C 0.97012 0.67771 0.18123 0.0
C730 C 0.99542 0.67429 0.19883 0.0
C731 C 0.02969 0.67654 0.18986 0.0
C732 C 0.98431 0.66347 0.22598 0.0
C733 C 0.93228 0.6743 0.18975 0.0
C734 C 0.97878 0.68803 0.24275 0.0
C735 C 0.96097 0.67397 0.26659 0.0
C736 C 0.94859 0.63528 0.27377 0.0
C737 C 0.95732 0.61208 0.25793 0.0
C738 C 0.97532 0.62617 0.23432 0.0
H739 H 0.91332 0.67155 0.17331 0.0
H740 H 0.91614 0.64857 0.20245 0.0
H741 H 0.93846 0.70076 0.20079 0.0
H742 H 0.98599 0.71712 0.23675 0.0
H743 H 0.95359 0.69199 0.27822 0.0
H744 H 0.38155 0.13309 0.43367 0.0
H745 H 0.36041 0.09437 0.47265 0.0
H746 H 0.32977 0.99022 0.42914 0.0
H747 H 0.35133 0.02931 0.3895 0.0
H748 H 0.28814 0.02814 0.48699 0.0
H749 H 0.41055 0.99798 0.48335 0.0
H750 H 0.4095 0.03523 0.46396 0.0
H751 H 0.38005 0.98467 0.4554 0.0
C752 C 0.37007 0.10187 0.43224 0.0
C753 C 0.36853 0.08424 0.40854 0.0
C754 C 0.35784 0.07979 0.45459 0.0
C755 C 0.34404 0.03961 0.45383 0.0
C756 C 0.34084 0.02139 0.4301 0.0
H757 H 0.28603 0.86803 0.57082 0.0
H758 H 0.2999 0.90614 0.53196 0.0
C759 C 0.35291 0.0436 0.4075 0.0
C760 C 0.3351 0.01776 0.47826 0.0
H761 H 0.36733 0.97164 0.51809 0.0
C762 C 0.30528 0.01559 0.49381 0.0
C763 C 0.35802 0.00212 0.4872 0.0
C764 C 0.39156 0.00526 0.47178 0.0
C765 C 0.29714 0.99728 0.51788 0.0
C766 C 0.31999 0.98149 0.52678 0.0
C767 C 0.34999 0.98397 0.51127 0.0
C768 C 0.31139 0.95932 0.5511 0.0
C769 C 0.26361 0.99412 0.53329 0.0
C770 C 0.3135 0.97667 0.57503 0.0
C771 C 0.30535 0.95467 0.59765 0.0
C772 C 0.29524 0.91519 0.59654 0.0
C773 C 0.29369 0.89835 0.57251 0.0
C774 C 0.30164 0.92011 0.55015 0.0
H775 H 0.24414 0.00049 0.52153 0.0
H776 H 0.24619 0.96445 0.54166 0.0
H777 H 0.27511 0.01547 0.54927 0.0
H778 H 0.32165 0.00717 0.5762 0.0
H779 H 0.30683 0.96842 0.61586 0.0
H780 H 0.41591 0.28685 0.89939 0.0
H781 H 0.3872 0.29716 0.86133 0.0
H782 H 0.30206 0.30543 0.90784 0.0
H783 H 0.33109 0.29512 0.94667 0.0
H784 H 0.30975 0.2509 0.84363 0.0
H785 H 0.35077 0.40539 0.86256 0.0
H786 H 0.37297 0.38162 0.8793 0.0
H787 H 0.32478 0.37079 0.88761 0.0
C788 C 0.39116 0.29099 0.90173 0.0
C789 C 0.37579 0.29023 0.92614 0.0
C790 C 0.37472 0.29676 0.87985 0.0
C791 C 0.34263 0.30212 0.88175 0.0
C792 C 0.32713 0.30167 0.90604 0.0
H793 H 0.22696 0.35935 0.76426 0.0
H794 H 0.24346 0.33733 0.80331 0.0
C795 C 0.34366 0.29579 0.92816 0.0
C796 C 0.32594 0.30812 0.858 0.0
H797 H 0.31644 0.37689 0.82455 0.0
C798 C 0.31091 0.27833 0.83947 0.0
C799 C 0.32793 0.34405 0.8526 0.0
C800 C 0.34522 0.37751 0.87141 0.0
C801 C 0.29763 0.2835 0.81567 0.0
C802 C 0.30003 0.31961 0.81017 0.0
C803 C 0.31469 0.34922 0.82882 0.0
C804 C 0.28682 0.32743 0.78548 0.0
C805 C 0.28078 0.25022 0.79674 0.0
C806 C 0.30498 0.3281 0.76221 0.0
C807 C 0.2953 0.34047 0.73958 0.0
C808 C 0.2678 0.35281 0.74017 0.0
C809 C 0.24854 0.35033 0.76326 0.0
C810 C 0.25792 0.33776 0.78563 0.0
H811 H 0.2724 0.22184 0.80609 0.0
H812 H 0.25484 0.24794 0.78706 0.0
H813 H 0.30286 0.25564 0.78188 0.0
H814 H 0.32781 0.32077 0.76175 0.0
H815 H 0.31076 0.34243 0.72208 0.0
H816 H 0.18456 0.49017 0.41718 0.0
H817 H 0.18945 0.47252 0.46135 0.0
H818 H 0.13727 0.35158 0.43932 0.0
H819 H 0.13166 0.36904 0.39504 0.0
H820 H 0.12855 0.39652 0.49901 0.0
H821 H 0.26551 0.41041 0.46 0.0
H822 H 0.2455 0.43842 0.44628 0.0
H823 H 0.22089 0.38656 0.44182 0.0
C824 C 0.17211 0.45956 0.42205 0.0
C825 C 0.15752 0.43095 0.40275 0.0
C826 C 0.17524 0.44955 0.44723 0.0
C827 C 0.16416 0.41086 0.45344 0.0
C828 C 0.14587 0.38158 0.43484 0.0
H829 H 0.21766 0.35703 0.60691 0.0
H830 H 0.19658 0.34465 0.56199 0.0
C831 C 0.14226 0.39155 0.40962 0.0
C832 C 0.17776 0.4029 0.47789 0.0
H833 H 0.25814 0.40695 0.5048 0.0
C834 C 0.1564 0.39782 0.50029 0.0
C835 C 0.21428 0.40495 0.47938 0.0
C836 C 0.23813 0.41035 0.45567 0.0
C837 C 0.17141 0.39623 0.52437 0.0
C838 C 0.20873 0.40005 0.52595 0.0
C839 C 0.22945 0.40372 0.50345 0.0
C840 C 0.22839 0.40553 0.55098 0.0
C841 C 0.14831 0.39259 0.54814 0.0
C842 C 0.25505 0.44352 0.55912 0.0
C843 C 0.26705 0.45064 0.58466 0.0
C844 C 0.25294 0.41979 0.60238 0.0
C845 C 0.2296 0.38126 0.59355 0.0
C846 C 0.21712 0.37419 0.568 0.0
H847 H 0.12057 0.39176 0.54371 0.0
H848 H 0.14155 0.36541 0.55852 0.0
H849 H 0.16576 0.41756 0.56119 0.0
H850 H 0.2641 0.46806 0.54623 0.0
H851 H 0.28465 0.48061 0.59105 0.0
H852 H 0.85712 0.21707 0.94075 0.0
H853 H 0.84894 0.19753 0.89547 0.0
H854 H 0.79497 0.26683 0.8809 0.0
H855 H 0.80237 0.28558 0.92599 0.0
H856 H 0.74772 0.18635 0.87003 0.0
H857 H 0.89355 0.24786 0.82464 0.0
H858 H 0.88632 0.22362 0.85501 0.0
H859 H 0.88582 0.26864 0.85329 0.0
C860 C 0.84533 0.22962 0.92756 0.0
C861 C 0.8307 0.25312 0.93673 0.0
C862 C 0.84037 0.21821 0.90173 0.0
C863 C 0.82118 0.23059 0.88482 0.0
C864 C 0.80977 0.25685 0.89361 0.0
H865 H 0.72914 0.21212 0.73815 0.0
H866 H 0.74488 0.21751 0.78367 0.0
C867 C 0.81435 0.26788 0.91931 0.0
C868 C 0.80794 0.21252 0.85914 0.0
H869 H 0.83892 0.20887 0.79875 0.0
C870 C 0.76772 0.191 0.85451 0.0
C871 C 0.83397 0.21797 0.83904 0.0
C872 C 0.87737 0.24093 0.84302 0.0
C873 C 0.75285 0.1763 0.83011 0.0
C874 C 0.77884 0.18363 0.80965 0.0
C875 C 0.81905 0.20327 0.8145 0.0
C876 C 0.76507 0.17592 0.78272 0.0
C877 C 0.70939 0.15387 0.82624 0.0
C878 C 0.77047 0.1501 0.7671 0.0
C879 C 0.76085 0.1465 0.74096 0.0
C880 C 0.74651 0.16933 0.73012 0.0
C881 C 0.73983 0.19395 0.74606 0.0
C882 C 0.74887 0.1971 0.77207 0.0
H883 H 0.69381 0.14079 0.84444 0.0
H884 H 0.69975 0.17411 0.81915 0.0
H885 H 0.70089 0.13026 0.81187 0.0
H886 H 0.78313 0.13365 0.77496 0.0
H887 H 0.76694 0.12787 0.72898 0.0
H888 H 0.51455 0.79303 0.26218 0.0
H889 H 0.52129 0.78568 0.21634 0.0
H890 H 0.646 0.85489 0.2233 0.0
H891 H 0.63926 0.86312 0.26939 0.0
H892 H 0.61545 0.86638 0.17608 0.0
H893 H 0.55918 0.70968 0.19649 0.0
H894 H 0.52723 0.72627 0.2076 0.0
H895 H 0.57492 0.74607 0.22145 0.0
C896 C 0.54335 0.80779 0.25378 0.0
C897 C 0.57638 0.82858 0.26928 0.0
C898 C 0.5472 0.80322 0.22765 0.0
C899 C 0.58417 0.81869 0.21659 0.0
C900 C 0.6172 0.84237 0.23154 0.0
H901 H 0.62442 0.77034 0.05666 0.0
H902 H 0.63752 0.78649 0.10252 0.0
C903 C 0.61333 0.84737 0.25778 0.0
C904 C 0.5878 0.80729 0.19008 0.0
H905 H 0.55941 0.72679 0.15238 0.0
C906 C 0.60391 0.83598 0.17093 0.0
C907 C 0.57323 0.76759 0.18344 0.0
C908 C 0.55804 0.73566 0.20337 0.0
C909 C 0.60341 0.82566 0.14508 0.0
C910 C 0.58652 0.78577 0.13836 0.0
C911 C 0.57226 0.75733 0.15763 0.0
C912 C 0.57885 0.7728 0.11132 0.0
C913 C 0.61905 0.85711 0.12487 0.0
C914 C 0.54136 0.75856 0.10146 0.0
C915 C 0.5339 0.74947 0.07552 0.0
C916 C 0.56369 0.75397 0.05893 0.0
C917 C 0.60082 0.76612 0.06908 0.0
C918 C 0.60842 0.77573 0.09515 0.0
H919 H 0.63074 0.88678 0.13317 0.0
H920 H 0.64259 0.85619 0.11404 0.0
H921 H 0.59566 0.85173 0.11102 0.0
H922 H 0.51814 0.75589 0.11368 0.0
H923 H 0.50503 0.7402 0.06823 0.0
H924 H 0.86021 0.63337 0.39716 0.0
H925 H 0.84916 0.64114 0.44255 0.0
H926 H 0.76837 0.51728 0.44792 0.0
H927 H 0.77835 0.50977 0.40267 0.0
H928 H 0.73646 0.5589 0.46482 0.0
H929 H 0.88183 0.61553 0.50973 0.0
H930 H 0.88063 0.6433 0.48289 0.0
H931 H 0.8707 0.59414 0.47815 0.0
C932 C 0.84105 0.60773 0.40831 0.0
C933 C 0.82018 0.57096 0.39647 0.0
C934 C 0.83466 0.61217 0.43423 0.0
C935 C 0.80789 0.57976 0.44873 0.0
C936 C 0.78893 0.54276 0.43716 0.0
H937 H 0.7225 0.5066 0.59785 0.0
H938 H 0.73524 0.51585 0.55183 0.0
C939 C 0.79484 0.53844 0.41133 0.0
C940 C 0.79684 0.58413 0.47524 0.0
H941 H 0.83124 0.60983 0.53635 0.0
C942 C 0.75731 0.57029 0.48039 0.0
C943 C 0.82401 0.59934 0.49559 0.0
C944 C 0.86662 0.61365 0.49147 0.0
C945 C 0.74408 0.56992 0.50536 0.0
C946 C 0.771 0.58386 0.52573 0.0
C947 C 0.81072 0.59936 0.52056 0.0
C948 C 0.75802 0.57826 0.55278 0.0
C949 C 0.70126 0.55374 0.50996 0.0
C950 C 0.76546 0.61017 0.5684 0.0
C951 C 0.75737 0.60479 0.59471 0.0
C952 C 0.74258 0.56756 0.60574 0.0
C953 C 0.73355 0.53552 0.58979 0.0
C954 C 0.74097 0.54079 0.56354 0.0
H955 H 0.68541 0.55162 0.49196 0.0
H956 H 0.6886 0.52403 0.51833 0.0
H957 H 0.6966 0.57229 0.52382 0.0
H958 H 0.77878 0.63933 0.5604 0.0
H959 H 0.7653 0.63007 0.60666 0.0
H960 H 0.22637 0.74709 0.93825 0.0
H961 H 0.23535 0.76791 0.89363 0.0
H962 H 0.1416 0.79246 0.90007 0.0
H963 H 0.13206 0.77102 0.9451 0.0
H964 H 0.14389 0.75762 0.85233 0.0
H965 H 0.28726 0.88488 0.87621 0.0
H966 H 0.2827 0.83965 0.88686 0.0
H967 H 0.25181 0.85618 0.90035 0.0
C968 C 0.20715 0.75625 0.9301 0.0
C969 C 0.17872 0.75774 0.94527 0.0
C970 C 0.21254 0.76846 0.90463 0.0
C971 C 0.19 0.78292 0.89377 0.0
C972 C 0.15968 0.78189 0.90822 0.0
H973 H 0.21762 0.86302 0.73247 0.0
H974 H 0.20249 0.86082 0.77838 0.0
C975 C 0.15403 0.76934 0.93385 0.0
C976 C 0.19951 0.80013 0.86764 0.0
H977 H 0.27588 0.86695 0.83166 0.0
C978 C 0.17239 0.78208 0.84784 0.0
C979 C 0.23665 0.83235 0.86185 0.0
C980 C 0.26614 0.85467 0.88249 0.0
C981 C 0.18244 0.79363 0.82218 0.0
C982 C 0.22045 0.82413 0.81629 0.0
C983 C 0.24681 0.84355 0.83622 0.0
C984 C 0.23475 0.83248 0.78951 0.0
C985 C 0.15321 0.77167 0.80134 0.0
C986 C 0.25944 0.81914 0.78089 0.0
C987 C 0.26804 0.8204 0.75488 0.0
C988 C 0.25267 0.83565 0.73707 0.0
C989 C 0.23055 0.85197 0.74592 0.0
C990 C 0.22146 0.85021 0.77203 0.0
H991 H 0.12591 0.74679 0.80897 0.0
H992 H 0.14594 0.79184 0.7912 0.0
H993 H 0.16581 0.76035 0.78708 0.0
H994 H 0.27001 0.8054 0.79407 0.0
H995 H 0.2846 0.80706 0.74844 0.0
H996 H 0.48025 0.19605 0.25668 0.0
H997 H 0.46523 0.19812 0.2115 0.0
H998 H 0.34268 0.13408 0.22865 0.0
H999 H 0.35769 0.13144 0.27406 0.0
H1000 H 0.41179 0.13832 0.17262 0.0
H1001 H 0.37145 0.24839 0.20331 0.0
H1002 H 0.40007 0.23537 0.22351 0.0
H1003 H 0.34924 0.20161 0.21912 0.0
C1004 C 0.45011 0.18087 0.25062 0.0
C1005 C 0.42014 0.16335 0.26878 0.0
C1006 C 0.44154 0.18232 0.22486 0.0
C1007 C 0.40289 0.16684 0.21686 0.0
C1008 C 0.37271 0.1464 0.23453 0.0
H1009 H 0.35885 0.21758 0.05899 0.0
H1010 H 0.34346 0.19525 0.1037 0.0
C1011 C 0.3813 0.14444 0.26036 0.0
C1012 C 0.39521 0.17649 0.19086 0.0
H1013 H 0.37942 0.24305 0.15921 0.0
C1014 C 0.40378 0.1605 0.16963 0.0
C1015 C 0.38497 0.20566 0.18706 0.0
C1016 C 0.37598 0.22404 0.20936 0.0
C1017 C 0.40394 0.17407 0.14476 0.0
C1018 C 0.396 0.20483 0.14112 0.0
C1019 C 0.38545 0.21946 0.16214 0.0
C1020 C 0.40346 0.2249 0.11608 0.0
C1021 C 0.41438 0.15676 0.12254 0.0
C1022 C 0.442 0.25057 0.10878 0.0
C1023 C 0.45076 0.26332 0.08348 0.0
C1024 C 0.4211 0.25088 0.06507 0.0
C1025 C 0.38216 0.22823 0.07293 0.0
C1026 C 0.37338 0.21512 0.09836 0.0
H1027 H 0.41302 0.12888 0.12778 0.0
H1028 H 0.39454 0.15141 0.10613 0.0
H1029 H 0.44441 0.17776 0.11615 0.0
H1030 H 0.46555 0.25849 0.12224 0.0
H1031 H 0.481 0.28041 0.07783 0.0
loop_
_geom_bond_atom_site_label_1
_geom_bond_atom_site_label_2
_geom_bond_distance
_geom_bond_site_symmetry_2
_ccdc_geom_bond_type
Co0 O1 2.216 . S
Co0 O2 2.091 . S
Co0 O4 2.004 . S
Co0 O10 2.021 . S
Co0 O12 2.137 . S
Co0 O13 2.244 . S
O1 Co0 2.216 . S
O1 C8 1.247 . S
O2 Co0 2.091 . S
O2 C8 1.261 . S
C3 O12 1.247 . S
C3 O13 1.272 . S
O4 Co0 2.004 . S
O4 C9 1.259 . S
Co5 O6 2.061 . S
Co5 O11 2.052 . S
Co5 O13 2.135 . S
O6 Co5 2.061 . S
O6 C9 1.235 . S
C7 O10 1.238 . S
C7 O11 1.241 . S
C8 O1 1.247 . S
C8 O2 1.261 . S
C9 O4 1.259 . S
C9 O6 1.235 . S
O10 Co0 2.021 . S
O10 C7 1.238 . S
O11 Co5 2.052 . S
O11 C7 1.241 . S
O12 Co0 2.137 . S
O12 C3 1.247 . S
O13 Co0 2.244 . S
O13 C3 1.272 . S
O13 Co5 2.135 . S
Co14 O15 2.216 . S
Co14 O16 2.091 . S
Co14 O18 2.004 . S
Co14 O24 2.021 . S
Co14 O26 2.137 . S
Co14 O27 2.244 . S
O15 Co14 2.216 . S
O15 C22 1.247 . S
O16 Co14 2.091 . S
O16 C22 1.261 . S
C17 O26 1.247 . S
C17 O27 1.272 . S
O18 Co14 2.004 . S
O18 C23 1.259 . S
Co19 O20 2.061 . S
Co19 O25 2.052 . S
Co19 O27 2.135 . S
O20 Co19 2.061 . S
O20 C23 1.235 . S
C21 O24 1.238 . S
C21 O25 1.241 . S
C22 O15 1.247 . S
C22 O16 1.261 . S
C23 O18 1.259 . S
C23 O20 1.235 . S
O24 Co14 2.021 . S
O24 C21 1.238 . S
O25 Co19 2.052 . S
O25 C21 1.241 . S
O26 Co14 2.137 . S
O26 C17 1.247 . S
O27 Co14 2.244 . S
O27 C17 1.272 . S
O27 Co19 2.135 . S
Co28 O29 2.216 . S
Co28 O30 2.091 . S
Co28 O32 2.004 1_556 S
Co28 O38 2.021 . S
Co28 O40 2.137 . S
Co28 O41 2.244 . S
O29 Co28 2.216 . S
O29 C36 1.247 . S
O30 Co28 2.091 . S
O30 C36 1.261 . S
C31 O40 1.247 . S
C31 O41 1.272 . S
O32 Co28 2.004 1_554 S
O32 C37 1.259 . S
Co33 O34 2.061 . S
Co33 O39 2.052 . S
Co33 O41 2.134 1_554 S
O34 Co33 2.061 . S
O34 C37 1.235 . S
C35 O38 1.238 . S
C35 O39 1.241 1_556 S
C36 O29 1.247 . S
C36 O30 1.261 . S
C37 O32 1.259 . S
C37 O34 1.235 . S
O38 Co28 2.021 . S
O38 C35 1.238 . S
O39 Co33 2.052 . S
O39 C35 1.241 1_554 S
O40 Co28 2.137 . S
O40 C31 1.247 . S
O41 Co28 2.244 . S
O41 C31 1.272 . S
O41 Co33 2.134 1_556 S
Co42 O43 2.216 . S
Co42 O44 2.091 . S
Co42 O46 2.004 . S
Co42 O52 2.021 . S
Co42 O54 2.137 . S
Co42 O55 2.244 . S
O43 Co42 2.216 . S
O43 C50 1.247 . S
O44 Co42 2.091 . S
O44 C50 1.261 . S
C45 O54 1.247 . S
C45 O55 1.272 . S
O46 Co42 2.004 . S
O46 C51 1.259 . S
Co47 O48 2.061 . S
Co47 O53 2.052 . S
Co47 O55 2.135 . S
O48 Co47 2.061 . S
O48 C51 1.235 . S
C49 O52 1.238 . S
C49 O53 1.241 . S
C50 O43 1.247 . S
C50 O44 1.261 . S
C51 O46 1.259 . S
C51 O48 1.235 . S
O52 Co42 2.021 . S
O52 C49 1.238 . S
O53 Co47 2.052 . S
O53 C49 1.241 . S
O54 Co42 2.137 . S
O54 C45 1.247 . S
O55 Co42 2.244 . S
O55 C45 1.272 . S
O55 Co47 2.135 . S
Co56 O57 2.216 . S
Co56 O58 2.091 . S
Co56 O60 2.004 . S
Co56 O66 2.021 . S
Co56 O68 2.137 . S
Co56 O69 2.244 . S
O57 Co56 2.216 . S
O57 C64 1.247 . S
O58 Co56 2.091 . S
O58 C64 1.261 . S
C59 O68 1.247 . S
C59 O69 1.272 . S
O60 Co56 2.004 . S
O60 C65 1.259 . S
Co61 O62 2.061 . S
Co61 O67 2.052 . S
Co61 O69 2.135 . S
O62 Co61 2.061 . S
O62 C65 1.235 . S
C63 O66 1.238 . S
C63 O67 1.241 . S
C64 O57 1.247 . S
C64 O58 1.261 . S
C65 O60 1.259 . S
C65 O62 1.235 . S
O66 Co56 2.021 . S
O66 C63 1.238 . S
O67 Co61 2.052 . S
O67 C63 1.241 . S
O68 Co56 2.137 . S
O68 C59 1.247 . S
O69 Co56 2.244 . S
O69 C59 1.272 . S
O69 Co61 2.135 . S
Co70 O71 2.216 . S
Co70 O72 2.091 . S
Co70 O74 2.004 1_556 S
Co70 O80 2.021 . S
Co70 O82 2.137 . S
Co70 O83 2.244 . S
O71 Co70 2.216 . S
O71 C78 1.247 . S
O72 Co70 2.091 . S
O72 C78 1.261 . S
C73 O82 1.247 . S
C73 O83 1.272 . S
O74 Co70 2.004 1_554 S
O74 C79 1.259 . S
Co75 O76 2.061 . S
Co75 O81 2.052 . S
Co75 O83 2.134 1_554 S
O76 Co75 2.061 . S
O76 C79 1.235 . S
C77 O80 1.238 . S
C77 O81 1.241 1_556 S
C78 O71 1.247 . S
C78 O72 1.261 . S
C79 O74 1.259 . S
C79 O76 1.235 . S
O80 Co70 2.021 . S
O80 C77 1.238 . S
O81 Co75 2.052 . S
O81 C77 1.241 1_554 S
O82 Co70 2.137 . S
O82 C73 1.247 . S
O83 Co70 2.244 . S
O83 C73 1.272 . S
O83 Co75 2.134 1_556 S
Co84 O85 2.216 . S
Co84 O86 2.091 . S
Co84 O88 2.004 . S
Co84 O94 2.021 . S
Co84 O96 2.137 . S
Co84 O97 2.244 . S
O85 Co84 2.216 . S
O85 C92 1.247 . S
O86 Co84 2.091 . S
O86 C92 1.261 . S
C87 O96 1.247 . S
C87 O97 1.272 . S
O88 Co84 2.004 . S
O88 C93 1.259 . S
Co89 O90 2.061 . S
Co89 O95 2.052 . S
Co89 O97 2.135 . S
O90 Co89 2.061 . S
O90 C93 1.235 . S
C91 O94 1.238 . S
C91 O95 1.241 . S
C92 O85 1.247 . S
C92 O86 1.261 . S
C93 O88 1.259 . S
C93 O90 1.235 . S
O94 Co84 2.021 . S
O94 C91 1.238 . S
O95 Co89 2.052 . S
O95 C91 1.241 . S
O96 Co84 2.137 . S
O96 C87 1.247 . S
O97 Co84 2.244 . S
O97 C87 1.272 . S
O97 Co89 2.135 . S
Co98 O99 2.216 . S
Co98 O100 2.091 . S
Co98 O102 2.004 . S
Co98 O108 2.021 . S
Co98 O110 2.137 . S
Co98 O111 2.244 . S
O99 Co98 2.216 . S
O99 C106 1.247 . S
O100 Co98 2.091 . S
O100 C106 1.261 . S
C101 O110 1.247 . S
C101 O111 1.272 . S
O102 Co98 2.004 . S
O102 C107 1.259 . S
Co103 O104 2.061 . S
Co103 O109 2.052 . S
Co103 O111 2.135 . S
O104 Co103 2.061 . S
O104 C107 1.235 . S
C105 O108 1.238 . S
C105 O109 1.241 . S
C106 O99 1.247 . S
C106 O100 1.261 . S
C107 O102 1.259 . S
C107 O104 1.235 . S
O108 Co98 2.021 . S
O108 C105 1.238 . S
O109 Co103 2.052 . S
O109 C105 1.241 . S
O110 Co98 2.137 . S
O110 C101 1.247 . S
O111 Co98 2.244 . S
O111 C101 1.272 . S
O111 Co103 2.135 . S
Co112 O113 2.216 . S
Co112 O114 2.091 . S
Co112 O116 2.004 1_554 S
Co112 O122 2.021 . S
Co112 O124 2.137 . S
Co112 O125 2.244 . S
O113 Co112 2.216 . S
O113 C120 1.247 . S
O114 Co112 2.091 . S
O114 C120 1.261 . S
C115 O124 1.247 . S
C115 O125 1.272 . S
O116 Co112 2.004 1_556 S
O116 C121 1.259 . S
Co117 O118 2.061 . S
Co117 O123 2.052 . S
Co117 O125 2.134 1_556 S
O118 Co117 2.061 . S
O118 C121 1.235 . S
C119 O122 1.238 . S
C119 O123 1.241 1_554 S
C120 O113 1.247 . S
C120 O114 1.261 . S
C121 O116 1.259 . S
C121 O118 1.235 . S
O122 Co112 2.021 . S
O122 C119 1.238 . S
O123 Co117 2.052 . S
O123 C119 1.241 1_556 S
O124 Co112 2.137 . S
O124 C115 1.247 . S
O125 Co112 2.244 . S
O125 C115 1.272 . S
O125 Co117 2.134 1_554 S
Co126 O127 2.216 . S
Co126 O128 2.091 . S
Co126 O130 2.004 . S
Co126 O136 2.021 . S
Co126 O138 2.137 . S
Co126 O139 2.244 . S
O127 Co126 2.216 . S
O127 C134 1.247 . S
O128 Co126 2.091 . S
O128 C134 1.261 . S
C129 O138 1.247 . S
C129 O139 1.272 . S
O130 Co126 2.004 . S
O130 C135 1.259 . S
Co131 O132 2.061 . S
Co131 O137 2.052 . S
Co131 O139 2.135 . S
O132 Co131 2.061 . S
O132 C135 1.235 . S
C133 O136 1.238 . S
C133 O137 1.241 . S
C134 O127 1.247 . S
C134 O128 1.261 . S
C135 O130 1.259 . S
C135 O132 1.235 . S
O136 Co126 2.021 . S
O136 C133 1.238 . S
O137 Co131 2.052 . S
O137 C133 1.241 . S
O138 Co126 2.137 . S
O138 C129 1.247 . S
O139 Co126 2.244 . S
O139 C129 1.272 . S
O139 Co131 2.135 . S
Co140 O141 2.216 . S
Co140 O142 2.091 . S
Co140 O144 2.004 . S
Co140 O150 2.021 . S
Co140 O152 2.137 . S
Co140 O153 2.244 . S
O141 Co140 2.216 . S
O141 C148 1.247 . S
O142 Co140 2.091 . S
O142 C148 1.261 . S
C143 O152 1.247 . S
C143 O153 1.272 . S
O144 Co140 2.004 . S
O144 C149 1.259 . S
Co145 O146 2.061 . S
Co145 O151 2.052 . S
Co145 O153 2.135 . S
O146 Co145 2.061 . S
O146 C149 1.235 . S
C147 O150 1.238 . S
C147 O151 1.241 . S
C148 O141 1.247 . S
C148 O142 1.261 . S
C149 O144 1.259 . S
C149 O146 1.235 . S
O150 Co140 2.021 . S
O150 C147 1.238 . S
O151 Co145 2.052 . S
O151 C147 1.241 . S
O152 Co140 2.137 . S
O152 C143 1.247 . S
O153 Co140 2.244 . S
O153 C143 1.272 . S
O153 Co145 2.135 . S
Co154 O155 2.216 . S
Co154 O156 2.091 . S
Co154 O158 2.004 1_554 S
Co154 O164 2.021 . S
Co154 O166 2.137 . S
Co154 O167 2.244 . S
O155 Co154 2.216 . S
O155 C162 1.247 . S
O156 Co154 2.091 . S
O156 C162 1.261 . S
C157 O166 1.247 . S
C157 O167 1.272 . S
O158 Co154 2.004 1_556 S
O158 C163 1.259 . S
Co159 O160 2.061 . S
Co159 O165 2.052 . S
Co159 O167 2.134 1_556 S
O160 Co159 2.061 . S
O160 C163 1.235 . S
C161 O164 1.238 . S
C161 O165 1.241 1_554 S
C162 O155 1.247 . S
C162 O156 1.261 . S
C163 O158 1.259 . S
C163 O160 1.235 . S
O164 Co154 2.021 . S
O164 C161 1.238 . S
O165 Co159 2.052 . S
O165 C161 1.241 1_556 S
O166 Co154 2.137 . S
O166 C157 1.247 . S
O167 Co154 2.244 . S
O167 C157 1.272 . S
O167 Co159 2.134 1_554 S
H168 C176 0.929 . S
H169 C178 0.930 . S
H170 C180 0.930 . S
H171 C183 0.929 . S
H172 C186 0.930 . S
H173 C188 0.960 . S
H174 C188 0.960 . S
H175 C188 0.960 . S
C176 H168 0.929 . S
C176 C177 1.377 . S
C176 C178 1.384 . S
C177 C176 1.377 . S
C177 C183 1.390 . S
C178 H169 0.930 . S
C178 C176 1.384 . S
C178 C179 1.372 . S
C179 C178 1.372 . S
C179 C180 1.400 . S
C179 C184 1.490 . S
C180 H170 0.930 . S
C180 C179 1.400 . S
C180 C183 1.386 . S
H181 C197 0.930 . S
H182 C198 0.931 . S
C183 H171 0.929 . S
C183 C177 1.390 . S
C183 C180 1.386 . S
C184 C179 1.490 . S
C184 C186 1.395 . S
C184 C187 1.403 . S
H185 C191 0.930 . S
C186 H172 0.930 . S
C186 C184 1.395 . S
C186 C189 1.403 . S
C187 C184 1.403 . S
C187 C188 1.524 . S
C187 C191 1.400 . S
C188 H173 0.960 . S
C188 H174 0.960 . S
C188 H175 0.960 . S
C188 C187 1.524 . S
C189 C186 1.403 . S
C189 C190 1.392 . S
C189 C193 1.495 . S
C190 C189 1.392 . S
C190 C191 1.385 . S
C190 C192 1.478 . S
C191 H185 0.930 . S
C191 C187 1.400 . S
C191 C190 1.385 . S
C192 C190 1.478 . S
C192 C194 1.381 . S
C192 C198 1.383 . S
C193 C189 1.495 . S
C193 H199 0.959 . S
C193 H200 0.961 . S
C193 H201 0.960 . S
C194 C192 1.381 . S
C194 C195 1.394 . S
C194 H202 0.930 . S
C195 C194 1.394 . S
C195 C196 1.383 . S
C195 H203 0.929 . S
C196 C195 1.383 . S
C196 C197 1.377 . S
C197 H181 0.930 . S
C197 C196 1.377 . S
C197 C198 1.379 . S
C198 H182 0.931 . S
C198 C192 1.383 . S
C198 C197 1.379 . S
H199 C193 0.959 . S
H200 C193 0.961 . S
H201 C193 0.960 . S
H202 C194 0.930 . S
H203 C195 0.929 . S
H204 C212 0.929 . S
H205 C214 0.930 . S
H206 C216 0.930 . S
H207 C219 0.929 . S
H208 C222 0.930 . S
H209 C224 0.960 . S
H210 C224 0.960 . S
H211 C224 0.960 . S
C212 H204 0.929 . S
C212 C213 1.377 . S
C212 C214 1.384 . S
C213 C212 1.377 . S
C213 C219 1.390 . S
C214 H205 0.930 . S
C214 C212 1.384 . S
C214 C215 1.372 . S
C215 C214 1.372 . S
C215 C216 1.400 . S
C215 C220 1.490 . S
C216 H206 0.930 . S
C216 C215 1.400 . S
C216 C219 1.386 . S
H217 C233 0.930 . S
H218 C234 0.931 . S
C219 H207 0.929 . S
C219 C213 1.390 . S
C219 C216 1.386 . S
C220 C215 1.490 . S
C220 C222 1.395 . S
C220 C223 1.403 . S
H221 C227 0.930 . S
C222 H208 0.930 . S
C222 C220 1.395 . S
C222 C225 1.403 . S
C223 C220 1.403 . S
C223 C224 1.524 . S
C223 C227 1.400 . S
C224 H209 0.960 . S
C224 H210 0.960 . S
C224 H211 0.960 . S
C224 C223 1.524 . S
C225 C222 1.403 . S
C225 C226 1.392 . S
C225 C229 1.495 . S
C226 C225 1.392 . S
C226 C227 1.385 . S
C226 C228 1.478 . S
C227 H221 0.930 . S
C227 C223 1.400 . S
C227 C226 1.385 . S
C228 C226 1.478 . S
C228 C230 1.381 . S
C228 C234 1.383 . S
C229 C225 1.495 . S
C229 H235 0.959 . S
C229 H236 0.961 . S
C229 H237 0.960 . S
C230 C228 1.381 . S
C230 C231 1.394 . S
C230 H238 0.930 . S
C231 C230 1.394 . S
C231 C232 1.383 . S
C231 H239 0.929 . S
C232 C231 1.383 . S
C232 C233 1.377 . S
C233 H217 0.930 . S
C233 C232 1.377 . S
C233 C234 1.379 . S
C234 H218 0.931 . S
C234 C228 1.383 . S
C234 C233 1.379 . S
H235 C229 0.959 . S
H236 C229 0.961 . S
H237 C229 0.960 . S
H238 C230 0.930 . S
H239 C231 0.929 . S
H240 C248 0.928 1_554 S
H241 C250 0.930 . S
H242 C252 0.930 . S
H243 C255 0.929 . S
H244 C258 0.930 . S
H245 C260 0.960 . S
H246 C260 0.960 . S
H247 C260 0.960 . S
C248 H240 0.928 1_556 S
C248 C249 1.380 . S
C248 C250 1.383 1_556 S
C249 C248 1.380 . S
C249 C255 1.390 . S
C250 H241 0.930 . S
C250 C248 1.383 1_554 S
C250 C251 1.372 1_554 S
C251 C250 1.372 1_556 S
C251 C252 1.400 . S
C251 C256 1.491 . S
C252 H242 0.930 . S
C252 C251 1.400 . S
C252 C255 1.386 . S
H253 C269 0.930 . S
H254 C270 0.931 . S
C255 H243 0.929 . S
C255 C249 1.390 . S
C255 C252 1.386 . S
C256 C251 1.491 . S
C256 C258 1.384 1_556 S
C256 C259 1.412 . S
H257 C263 0.930 . S
C258 H244 0.930 . S
C258 C256 1.384 1_554 S
C258 C261 1.403 . S
C259 C256 1.412 . S
C259 C260 1.524 . S
C259 C263 1.400 . S
C260 H245 0.960 . S
C260 H246 0.960 . S
C260 H247 0.960 . S
C260 C259 1.524 . S
C261 C258 1.403 . S
C261 C262 1.392 . S
C261 C265 1.495 . S
C262 C261 1.392 . S
C262 C263 1.385 1_554 S
C262 C264 1.478 . S
C263 H257 0.930 . S
C263 C259 1.400 . S
C263 C262 1.385 1_556 S
C264 C262 1.478 . S
C264 C266 1.381 . S
C264 C270 1.383 . S
C265 C261 1.495 . S
C265 H271 0.959 . S
C265 H272 0.961 . S
C265 H273 0.960 . S
C266 C264 1.381 . S
C266 C267 1.394 . S
C266 H274 0.930 . S
C267 C266 1.394 . S
C267 C268 1.383 . S
C267 H275 0.929 . S
C268 C267 1.383 . S
C268 C269 1.377 . S
C269 H253 0.930 . S
C269 C268 1.377 . S
C269 C270 1.379 . S
C270 H254 0.931 . S
C270 C264 1.383 . S
C270 C269 1.379 . S
H271 C265 0.959 . S
H272 C265 0.961 . S
H273 C265 0.960 . S
H274 C266 0.930 . S
H275 C267 0.929 . S
H276 C284 0.929 . S
H277 C286 0.930 . S
H278 C288 0.930 . S
H279 C291 0.929 . S
H280 C294 0.930 . S
H281 C296 0.960 . S
H282 C296 0.960 . S
H283 C296 0.960 . S
C284 H276 0.929 . S
C284 C285 1.377 . S
C284 C286 1.384 . S
C285 C284 1.377 . S
C285 C291 1.390 . S
C286 H277 0.930 . S
C286 C284 1.384 . S
C286 C287 1.372 . S
C287 C286 1.372 . S
C287 C288 1.400 . S
C287 C292 1.490 . S
C288 H278 0.930 . S
C288 C287 1.400 . S
C288 C291 1.386 . S
H289 C305 0.930 . S
H290 C306 0.931 . S
C291 H279 0.929 . S
C291 C285 1.390 . S
C291 C288 1.386 . S
C292 C287 1.490 . S
C292 C294 1.395 . S
C292 C295 1.403 . S
H293 C299 0.930 . S
C294 H280 0.930 . S
C294 C292 1.395 . S
C294 C297 1.403 . S
C295 C292 1.403 . S
C295 C296 1.524 . S
C295 C299 1.400 . S
C296 H281 0.960 . S
C296 H282 0.960 . S
C296 H283 0.960 . S
C296 C295 1.524 . S
C297 C294 1.403 . S
C297 C298 1.392 . S
C297 C301 1.495 . S
C298 C297 1.392 . S
C298 C299 1.385 . S
C298 C300 1.478 . S
C299 H293 0.930 . S
C299 C295 1.400 . S
C299 C298 1.385 . S
C300 C298 1.478 . S
C300 C302 1.381 . S
C300 C306 1.383 . S
C301 C297 1.495 . S
C301 H307 0.959 . S
C301 H308 0.961 . S
C301 H309 0.960 . S
C302 C300 1.381 . S
C302 C303 1.394 . S
C302 H310 0.930 . S
C303 C302 1.394 . S
C303 C304 1.383 . S
C303 H311 0.929 . S
C304 C303 1.383 . S
C304 C305 1.377 . S
C305 H289 0.930 . S
C305 C304 1.377 . S
C305 C306 1.379 . S
C306 H290 0.931 . S
C306 C300 1.383 . S
C306 C305 1.379 . S
H307 C301 0.959 . S
H308 C301 0.961 . S
H309 C301 0.960 . S
H310 C302 0.930 . S
H311 C303 0.929 . S
H312 C320 0.929 . S
H313 C322 0.930 . S
H314 C324 0.930 . S
H315 C327 0.929 . S
H316 C330 0.930 . S
H317 C332 0.960 . S
H318 C332 0.960 . S
H319 C332 0.960 . S
C320 H312 0.929 . S
C320 C321 1.377 . S
C320 C322 1.384 . S
C321 C320 1.377 . S
C321 C327 1.390 . S
C322 H313 0.930 . S
C322 C320 1.384 . S
C322 C323 1.372 . S
C323 C322 1.372 . S
C323 C324 1.400 . S
C323 C328 1.490 . S
C324 H314 0.930 . S
C324 C323 1.400 . S
C324 C327 1.386 . S
H325 C341 0.930 . S
H326 C342 0.931 . S
C327 H315 0.929 . S
C327 C321 1.390 . S
C327 C324 1.386 . S
C328 C323 1.490 . S
C328 C330 1.395 . S
C328 C331 1.403 . S
H329 C335 0.930 . S
C330 H316 0.930 . S
C330 C328 1.395 . S
C330 C333 1.403 . S
C331 C328 1.403 . S
C331 C332 1.524 . S
C331 C335 1.400 . S
C332 H317 0.960 . S
C332 H318 0.960 . S
C332 H319 0.960 . S
C332 C331 1.524 . S
C333 C330 1.403 . S
C333 C334 1.392 . S
C333 C337 1.495 . S
C334 C333 1.392 . S
C334 C335 1.385 . S
C334 C336 1.478 . S
C335 H329 0.930 . S
C335 C331 1.400 . S
C335 C334 1.385 . S
C336 C334 1.478 . S
C336 C338 1.381 . S
C336 C342 1.383 . S
C337 C333 1.495 . S
C337 H343 0.959 . S
C337 H344 0.961 . S
C337 H345 0.960 . S
C338 C336 1.381 . S
C338 C339 1.394 . S
C338 H346 0.930 . S
C339 C338 1.394 . S
C339 C340 1.383 . S
C339 H347 0.929 . S
C340 C339 1.383 . S
C340 C341 1.377 . S
C341 H325 0.930 . S
C341 C340 1.377 . S
C341 C342 1.379 . S
C342 H326 0.931 . S
C342 C336 1.383 . S
C342 C341 1.379 . S
H343 C337 0.959 . S
H344 C337 0.961 . S
H345 C337 0.960 . S
H346 C338 0.930 . S
H347 C339 0.929 . S
H348 C356 0.929 . S
H349 C358 0.930 . S
H350 C360 0.930 . S
H351 C363 0.929 . S
H352 C366 0.930 . S
H353 C368 0.960 . S
H354 C368 0.960 . S
H355 C368 0.960 . S
C356 H348 0.929 . S
C356 C357 1.377 . S
C356 C358 1.384 . S
C357 C356 1.377 . S
C357 C363 1.390 1_554 S
C358 H349 0.930 . S
C358 C356 1.384 . S
C358 C359 1.372 . S
C359 C358 1.372 . S
C359 C360 1.400 1_554 S
C359 C364 1.490 . S
C360 H350 0.930 . S
C360 C359 1.400 1_556 S
C360 C363 1.386 . S
H361 C377 0.930 . S
H362 C378 0.931 . S
C363 H351 0.929 . S
C363 C357 1.390 1_556 S
C363 C360 1.386 . S
C364 C359 1.490 . S
C364 C366 1.395 . S
C364 C367 1.403 1_554 S
H365 C371 0.930 . S
C366 H352 0.930 . S
C366 C364 1.395 . S
C366 C369 1.403 . S
C367 C364 1.403 1_556 S
C367 C368 1.524 . S
C367 C371 1.400 . S
C368 H353 0.960 . S
C368 H354 0.960 . S
C368 H355 0.960 . S
C368 C367 1.524 . S
C369 C366 1.403 . S
C369 C370 1.392 . S
C369 C373 1.495 . S
C370 C369 1.392 . S
C370 C371 1.385 1_554 S
C370 C372 1.480 . S
C371 H365 0.930 . S
C371 C367 1.400 . S
C371 C370 1.385 1_556 S
C372 C370 1.480 . S
C372 C374 1.405 . S
C372 C378 1.356 1_554 S
C373 C369 1.495 . S
C373 H379 0.959 . S
C373 H380 0.961 . S
C373 H381 0.960 . S
C374 C372 1.405 . S
C374 C375 1.394 . S
C374 H382 0.930 . S
C375 C374 1.394 . S
C375 C376 1.383 1_554 S
C375 H383 0.929 . S
C376 C375 1.383 1_556 S
C376 C377 1.377 . S
C377 H361 0.930 . S
C377 C376 1.377 . S
C377 C378 1.379 . S
C378 H362 0.931 . S
C378 C372 1.356 1_556 S
C378 C377 1.379 . S
H379 C373 0.959 . S
H380 C373 0.961 . S
H381 C373 0.960 . S
H382 C374 0.930 . S
H383 C375 0.929 . S
H384 C392 0.929 . S
H385 C394 0.930 . S
H386 C396 0.930 . S
H387 C399 0.929 . S
H388 C402 0.930 . S
H389 C404 0.960 . S
H390 C404 0.960 . S
H391 C404 0.960 . S
C392 H384 0.929 . S
C392 C393 1.377 . S
C392 C394 1.384 . S
C393 C392 1.377 . S
C393 C399 1.390 . S
C394 H385 0.930 . S
C394 C392 1.384 . S
C394 C395 1.372 . S
C395 C394 1.372 . S
C395 C396 1.400 . S
C395 C400 1.490 . S
C396 H386 0.930 . S
C396 C395 1.400 . S
C396 C399 1.386 . S
H397 C413 0.930 . S
H398 C414 0.931 . S
C399 H387 0.929 . S
C399 C393 1.390 . S
C399 C396 1.386 . S
C400 C395 1.490 . S
C400 C402 1.395 . S
C400 C403 1.403 . S
H401 C407 0.930 . S
C402 H388 0.930 . S
C402 C400 1.395 . S
C402 C405 1.403 . S
C403 C400 1.403 . S
C403 C404 1.524 . S
C403 C407 1.400 . S
C404 H389 0.960 . S
C404 H390 0.960 . S
C404 H391 0.960 . S
C404 C403 1.524 . S
C405 C402 1.403 . S
C405 C406 1.392 . S
C405 C409 1.495 . S
C406 C405 1.392 . S
C406 C407 1.385 . S
C406 C408 1.478 . S
C407 H401 0.930 . S
C407 C403 1.400 . S
C407 C406 1.385 . S
C408 C406 1.478 . S
C408 C410 1.381 . S
C408 C414 1.383 . S
C409 C405 1.495 . S
C409 H415 0.959 . S
C409 H416 0.961 . S
C409 H417 0.960 . S
C410 C408 1.381 . S
C410 C411 1.394 . S
C410 H418 0.930 . S
C411 C410 1.394 . S
C411 C412 1.383 . S
C411 H419 0.929 . S
C412 C411 1.383 . S
C412 C413 1.377 . S
C413 H397 0.930 . S
C413 C412 1.377 . S
C413 C414 1.379 . S
C414 H398 0.931 . S
C414 C408 1.383 . S
C414 C413 1.379 . S
H415 C409 0.959 . S
H416 C409 0.961 . S
H417 C409 0.960 . S
H418 C410 0.930 . S
H419 C411 0.929 . S
H420 C428 0.929 . S
H421 C430 0.930 . S
H422 C432 0.930 . S
H423 C435 0.929 . S
H424 C438 0.930 . S
H425 C440 0.960 . S
H426 C440 0.960 . S
H427 C440 0.960 . S
C428 H420 0.929 . S
C428 C429 1.377 . S
C428 C430 1.384 . S
C429 C428 1.377 . S
C429 C435 1.390 . S
C430 H421 0.930 . S
C430 C428 1.384 . S
C430 C431 1.372 . S
C431 C430 1.372 . S
C431 C432 1.400 . S
C431 C436 1.490 . S
C432 H422 0.930 . S
C432 C431 1.400 . S
C432 C435 1.386 . S
H433 C449 0.930 . S
H434 C450 0.931 . S
C435 H423 0.929 . S
C435 C429 1.390 . S
C435 C432 1.386 . S
C436 C431 1.490 . S
C436 C438 1.395 . S
C436 C439 1.403 . S
H437 C443 0.930 . S
C438 H424 0.930 . S
C438 C436 1.395 . S
C438 C441 1.403 1_655 S
C439 C436 1.403 . S
C439 C440 1.524 . S
C439 C443 1.400 1_655 S
C440 H425 0.960 . S
C440 H426 0.960 . S
C440 H427 0.960 . S
C440 C439 1.524 . S
C441 C438 1.403 1_455 S
C441 C442 1.392 . S
C441 C445 1.495 . S
C442 C441 1.392 . S
C442 C443 1.385 . S
C442 C444 1.478 . S
C443 H437 0.930 . S
C443 C439 1.400 1_455 S
C443 C442 1.385 . S
C444 C442 1.478 . S
C444 C446 1.381 . S
C444 C450 1.383 . S
C445 C441 1.495 . S
C445 H451 0.959 . S
C445 H452 0.961 . S
C445 H453 0.960 . S
C446 C444 1.381 . S
C446 C447 1.394 . S
C446 H454 0.930 . S
C447 C446 1.394 . S
C447 C448 1.383 . S
C447 H455 0.929 . S
C448 C447 1.383 . S
C448 C449 1.377 . S
C449 H433 0.930 . S
C449 C448 1.377 . S
C449 C450 1.379 . S
C450 H434 0.931 . S
C450 C444 1.383 . S
C450 C449 1.379 . S
H451 C445 0.959 . S
H452 C445 0.961 . S
H453 C445 0.960 . S
H454 C446 0.930 . S
H455 C447 0.929 . S
H456 C464 0.927 1_556 S
H457 C466 0.929 1_556 S
H458 C468 0.930 . S
H459 C471 0.929 . S
H460 C474 0.930 . S
H461 C476 0.960 . S
H462 C476 0.960 . S
H463 C476 0.960 . S
C464 H456 0.927 1_554 S
C464 C465 1.377 . S
C464 C466 1.384 . S
C465 C464 1.377 . S
C465 C471 1.390 . S
C466 H457 0.929 1_554 S
C466 C464 1.384 . S
C466 C467 1.372 . S
C467 C466 1.372 . S
C467 C468 1.400 . S
C467 C472 1.490 . S
C468 H458 0.930 . S
C468 C467 1.400 . S
C468 C471 1.386 . S
H469 C485 0.930 . S
H470 C486 0.931 . S
C471 H459 0.929 . S
C471 C465 1.390 . S
C471 C468 1.386 . S
C472 C467 1.490 . S
C472 C474 1.395 . S
C472 C475 1.403 1_554 S
H473 C479 0.930 . S
C474 H460 0.930 . S
C474 C472 1.395 . S
C474 C477 1.403 1_545 S
C475 C472 1.403 1_556 S
C475 C476 1.524 . S
C475 C479 1.400 1_545 S
C476 H461 0.960 . S
C476 H462 0.960 . S
C476 H463 0.960 . S
C476 C475 1.524 . S
C477 C474 1.403 1_565 S
C477 C478 1.392 . S
C477 C481 1.495 . S
C478 C477 1.392 . S
C478 C479 1.385 1_554 S
C478 C480 1.480 . S
C479 H473 0.930 . S
C479 C475 1.400 1_565 S
C479 C478 1.385 1_556 S
C480 C478 1.480 . S
C480 C482 1.371 1_554 S
C480 C486 1.390 . S
C481 C477 1.495 . S
C481 H487 0.959 . S
C481 H488 0.961 . S
C481 H489 0.960 . S
C482 C480 1.371 1_556 S
C482 C483 1.394 . S
C482 H490 0.930 . S
C483 C482 1.394 . S
C483 C484 1.383 . S
C483 H491 0.929 . S
C484 C483 1.383 . S
C484 C485 1.377 1_556 S
C485 H469 0.930 . S
C485 C484 1.377 1_554 S
C485 C486 1.379 . S
C486 H470 0.931 . S
C486 C480 1.390 . S
C486 C485 1.379 . S
H487 C481 0.959 . S
H488 C481 0.961 . S
H489 C481 0.960 . S
H490 C482 0.930 . S
H491 C483 0.929 . S
H492 C500 0.929 . S
H493 C502 0.930 . S
H494 C504 0.930 . S
H495 C507 0.929 . S
H496 C510 0.930 . S
H497 C512 0.960 . S
H498 C512 0.960 . S
H499 C512 0.960 . S
C500 H492 0.929 . S
C500 C501 1.377 . S
C500 C502 1.384 . S
C501 C500 1.377 . S
C501 C507 1.390 . S
C502 H493 0.930 . S
C502 C500 1.384 . S
C502 C503 1.372 . S
C503 C502 1.372 . S
C503 C504 1.400 . S
C503 C508 1.490 . S
C504 H494 0.930 . S
C504 C503 1.400 . S
C504 C507 1.386 . S
H505 C521 0.930 . S
H506 C522 0.931 . S
C507 H495 0.929 . S
C507 C501 1.390 . S
C507 C504 1.386 . S
C508 C503 1.490 . S
C508 C510 1.395 . S
C508 C511 1.403 . S
H509 C515 0.930 . S
C510 H496 0.930 . S
C510 C508 1.395 . S
C510 C513 1.403 . S
C511 C508 1.403 . S
C511 C512 1.524 . S
C511 C515 1.400 . S
C512 H497 0.960 . S
C512 H498 0.960 . S
C512 H499 0.960 . S
C512 C511 1.524 . S
C513 C510 1.403 . S
C513 C514 1.392 . S
C513 C517 1.495 . S
C514 C513 1.392 . S
C514 C515 1.385 . S
C514 C516 1.478 . S
C515 H509 0.930 . S
C515 C511 1.400 . S
C515 C514 1.385 . S
C516 C514 1.478 . S
C516 C518 1.381 . S
C516 C522 1.383 . S
C517 C513 1.495 . S
C517 H523 0.959 . S
C517 H524 0.961 . S
C517 H525 0.960 . S
C518 C516 1.381 . S
C518 C519 1.394 . S
C518 H526 0.930 . S
C519 C518 1.394 . S
C519 C520 1.383 . S
C519 H527 0.929 . S
C520 C519 1.383 . S
C520 C521 1.377 . S
C521 H505 0.930 . S
C521 C520 1.377 . S
C521 C522 1.379 . S
C522 H506 0.931 . S
C522 C516 1.383 . S
C522 C521 1.379 . S
H523 C517 0.959 . S
H524 C517 0.961 . S
H525 C517 0.960 . S
H526 C518 0.930 . S
H527 C519 0.929 . S
H528 C536 0.929 . S
H529 C538 0.930 . S
H530 C540 0.930 . S
H531 C543 0.929 . S
H532 C546 0.930 . S
H533 C548 0.960 . S
H534 C548 0.960 . S
H535 C548 0.960 . S
C536 H528 0.929 . S
C536 C537 1.377 . S
C536 C538 1.384 . S
C537 C536 1.377 . S
C537 C543 1.390 . S
C538 H529 0.930 . S
C538 C536 1.384 . S
C538 C539 1.372 . S
C539 C538 1.372 . S
C539 C540 1.400 . S
C539 C544 1.490 . S
C540 H530 0.930 . S
C540 C539 1.400 . S
C540 C543 1.386 . S
H541 C557 0.930 . S
H542 C558 0.931 . S
C543 H531 0.929 . S
C543 C537 1.390 . S
C543 C540 1.386 . S
C544 C539 1.490 . S
C544 C546 1.395 . S
C544 C547 1.403 . S
H545 C551 0.930 . S
C546 H532 0.930 . S
C546 C544 1.395 . S
C546 C549 1.403 1_455 S
C547 C544 1.403 . S
C547 C548 1.524 . S
C547 C551 1.400 1_455 S
C548 H533 0.960 . S
C548 H534 0.960 . S
C548 H535 0.960 . S
C548 C547 1.524 . S
C549 C546 1.403 1_655 S
C549 C550 1.392 . S
C549 C553 1.495 . S
C550 C549 1.392 . S
C550 C551 1.385 . S
C550 C552 1.478 . S
C551 H545 0.930 . S
C551 C547 1.400 1_655 S
C551 C550 1.385 . S
C552 C550 1.478 . S
C552 C554 1.381 . S
C552 C558 1.383 . S
C553 C549 1.495 . S
C553 H559 0.959 . S
C553 H560 0.961 . S
C553 H561 0.960 . S
C554 C552 1.381 . S
C554 C555 1.394 . S
C554 H562 0.930 . S
C555 C554 1.394 . S
C555 C556 1.383 . S
C555 H563 0.929 . S
C556 C555 1.383 . S
C556 C557 1.377 . S
C557 H541 0.930 . S
C557 C556 1.377 . S
C557 C558 1.379 . S
C558 H542 0.931 . S
C558 C552 1.383 . S
C558 C557 1.379 . S
H559 C553 0.959 . S
H560 C553 0.961 . S
H561 C553 0.960 . S
H562 C554 0.930 . S
H563 C555 0.929 . S
H564 C572 0.929 . S
H565 C574 0.930 . S
H566 C576 0.930 . S
H567 C579 0.929 . S
H568 C582 0.930 . S
H569 C584 0.960 . S
H570 C584 0.960 . S
H571 C584 0.960 . S
C572 H564 0.929 . S
C572 C573 1.377 1_554 S
C572 C574 1.384 . S
C573 C572 1.377 1_556 S
C573 C579 1.390 . S
C574 H565 0.930 . S
C574 C572 1.384 . S
C574 C575 1.372 1_554 S
C575 C574 1.372 1_556 S
C575 C576 1.400 . S
C575 C580 1.490 1_556 S
C576 H566 0.930 . S
C576 C575 1.400 . S
C576 C579 1.386 . S
H577 C593 0.930 . S
H578 C594 0.931 . S
C579 H567 0.929 . S
C579 C573 1.390 . S
C579 C576 1.386 . S
C580 C575 1.490 1_554 S
C580 C582 1.396 . S
C580 C583 1.401 1_554 S
H581 C587 0.930 . S
C582 H568 0.930 . S
C582 C580 1.396 . S
C582 C585 1.403 1_545 S
C583 C580 1.401 1_556 S
C583 C584 1.524 . S
C583 C587 1.400 1_545 S
C584 H569 0.960 . S
C584 H570 0.960 . S
C584 H571 0.960 . S
C584 C583 1.524 . S
C585 C582 1.403 1_565 S
C585 C586 1.392 . S
C585 C589 1.495 . S
C586 C585 1.392 . S
C586 C587 1.385 1_554 S
C586 C588 1.478 . S
C587 H581 0.930 . S
C587 C583 1.400 1_565 S
C587 C586 1.385 1_556 S
C588 C586 1.478 . S
C588 C590 1.381 . S
C588 C594 1.383 1_554 S
C589 C585 1.495 . S
C589 H595 0.959 . S
C589 H596 0.961 . S
C589 H597 0.960 . S
C590 C588 1.381 . S
C590 C591 1.394 . S
C590 H598 0.930 . S
C591 C590 1.394 . S
C591 C592 1.383 . S
C591 H599 0.929 . S
C592 C591 1.383 . S
C592 C593 1.377 1_554 S
C593 H577 0.930 . S
C593 C592 1.377 1_556 S
C593 C594 1.379 . S
C594 H578 0.931 . S
C594 C588 1.383 1_556 S
C594 C593 1.379 . S
H595 C589 0.959 . S
H596 C589 0.961 . S
H597 C589 0.960 . S
H598 C590 0.930 . S
H599 C591 0.929 . S
H600 C608 0.929 . S
H601 C610 0.930 1_455 S
H602 C612 0.930 . S
H603 C615 0.929 . S
H604 C618 0.930 . S
H605 C620 0.960 . S
H606 C620 0.960 . S
H607 C620 0.960 . S
C608 H600 0.929 . S
C608 C609 1.377 . S
C608 C610 1.384 . S
C609 C608 1.377 . S
C609 C615 1.390 . S
C610 H601 0.930 1_655 S
C610 C608 1.384 . S
C610 C611 1.372 . S
C611 C610 1.372 . S
C611 C612 1.400 . S
C611 C616 1.490 . S
C612 H602 0.930 . S
C612 C611 1.400 . S
C612 C615 1.386 . S
H613 C629 0.930 . S
H614 C630 0.931 1_655 S
C615 H603 0.929 . S
C615 C609 1.390 . S
C615 C612 1.386 . S
C616 C611 1.490 . S
C616 C618 1.395 1_655 S
C616 C619 1.403 . S
H617 C623 0.930 . S
C618 H604 0.930 . S
C618 C616 1.395 1_455 S
C618 C621 1.403 . S
C619 C616 1.403 . S
C619 C620 1.524 . S
C619 C623 1.400 . S
C620 H605 0.960 . S
C620 H606 0.960 . S
C620 H607 0.960 . S
C620 C619 1.524 . S
C621 C618 1.403 . S
C621 C622 1.392 . S
C621 C625 1.495 . S
C622 C621 1.392 . S
C622 C623 1.385 1_455 S
C622 C624 1.478 . S
C623 H617 0.930 . S
C623 C619 1.400 . S
C623 C622 1.385 1_655 S
C624 C622 1.478 . S
C624 C626 1.381 . S
C624 C630 1.383 . S
C625 C621 1.495 . S
C625 H631 0.959 . S
C625 H632 0.961 . S
C625 H633 0.960 . S
C626 C624 1.381 . S
C626 C627 1.394 . S
C626 H634 0.930 . S
C627 C626 1.394 . S
C627 C628 1.383 . S
C627 H635 0.929 . S
C628 C627 1.383 . S
C628 C629 1.377 . S
C629 H613 0.930 . S
C629 C628 1.377 . S
C629 C630 1.379 . S
C630 H614 0.931 1_455 S
C630 C624 1.383 . S
C630 C629 1.379 . S
H631 C625 0.959 . S
H632 C625 0.961 . S
H633 C625 0.960 . S
H634 C626 0.930 . S
H635 C627 0.929 . S
H636 C644 0.929 . S
H637 C646 0.930 . S
H638 C648 0.930 . S
H639 C651 0.929 . S
H640 C654 0.930 . S
H641 C656 0.960 . S
H642 C656 0.960 . S
H643 C656 0.960 . S
C644 H636 0.929 . S
C644 C645 1.377 . S
C644 C646 1.384 . S
C645 C644 1.377 . S
C645 C651 1.390 . S
C646 H637 0.930 . S
C646 C644 1.384 . S
C646 C647 1.372 . S
C647 C646 1.372 . S
C647 C648 1.400 . S
C647 C652 1.490 . S
C648 H638 0.930 . S
C648 C647 1.400 . S
C648 C651 1.386 . S
H649 C665 0.930 . S
H650 C666 0.931 . S
C651 H639 0.929 . S
C651 C645 1.390 . S
C651 C648 1.386 . S
C652 C647 1.490 . S
C652 C654 1.395 . S
C652 C655 1.403 1_545 S
H653 C659 0.930 . S
C654 H640 0.930 . S
C654 C652 1.395 . S
C654 C657 1.403 . S
C655 C652 1.403 1_565 S
C655 C656 1.524 . S
C655 C659 1.400 . S
C656 H641 0.960 . S
C656 H642 0.960 . S
C656 H643 0.960 . S
C656 C655 1.524 . S
C657 C654 1.403 . S
C657 C658 1.392 1_545 S
C657 C661 1.495 . S
C658 C657 1.392 1_565 S
C658 C659 1.385 . S
C658 C660 1.478 . S
C659 H653 0.930 . S
C659 C655 1.400 . S
C659 C658 1.385 . S
C660 C658 1.478 . S
C660 C662 1.381 . S
C660 C666 1.383 . S
C661 C657 1.495 . S
C661 H667 0.959 . S
C661 H668 0.961 . S
C661 H669 0.960 . S
C662 C660 1.381 . S
C662 C663 1.394 . S
C662 H670 0.930 . S
C663 C662 1.394 . S
C663 C664 1.383 . S
C663 H671 0.929 . S
C664 C663 1.383 . S
C664 C665 1.377 . S
C665 H649 0.930 . S
C665 C664 1.377 . S
C665 C666 1.379 . S
C666 H650 0.931 . S
C666 C660 1.383 . S
C666 C665 1.379 . S
H667 C661 0.959 . S
H668 C661 0.961 . S
H669 C661 0.960 . S
H670 C662 0.930 . S
H671 C663 0.929 . S
H672 C680 0.929 . S
H673 C682 0.930 . S
H674 C684 0.930 . S
H675 C687 0.929 . S
H676 C690 0.930 . S
H677 C692 0.960 . S
H678 C692 0.960 . S
H679 C692 0.960 . S
C680 H672 0.929 . S
C680 C681 1.377 . S
C680 C682 1.384 . S
C681 C680 1.377 . S
C681 C687 1.390 . S
C682 H673 0.930 . S
C682 C680 1.384 . S
C682 C683 1.372 . S
C683 C682 1.372 . S
C683 C684 1.400 . S
C683 C688 1.490 . S
C684 H674 0.930 . S
C684 C683 1.400 . S
C684 C687 1.386 . S
H685 C701 0.930 . S
H686 C702 0.931 . S
C687 H675 0.929 . S
C687 C681 1.390 . S
C687 C684 1.386 . S
C688 C683 1.490 . S
C688 C690 1.395 . S
C688 C691 1.403 . S
H689 C695 0.930 . S
C690 H676 0.930 . S
C690 C688 1.395 . S
C690 C693 1.403 . S
C691 C688 1.403 . S
C691 C692 1.524 . S
C691 C695 1.400 . S
C692 H677 0.960 . S
C692 H678 0.960 . S
C692 H679 0.960 . S
C692 C691 1.524 . S
C693 C690 1.403 . S
C693 C694 1.392 . S
C693 C697 1.495 . S
C694 C693 1.392 . S
C694 C695 1.385 . S
C694 C696 1.478 . S
C695 H689 0.930 . S
C695 C691 1.400 . S
C695 C694 1.385 . S
C696 C694 1.478 . S
C696 C698 1.381 . S
C696 C702 1.383 . S
C697 C693 1.495 . S
C697 H703 0.959 . S
C697 H704 0.961 . S
C697 H705 0.960 . S
C698 C696 1.381 . S
C698 C699 1.394 . S
C698 H706 0.930 . S
C699 C698 1.394 . S
C699 C700 1.383 . S
C699 H707 0.929 . S
C700 C699 1.383 . S
C700 C701 1.377 . S
C701 H685 0.930 . S
C701 C700 1.377 . S
C701 C702 1.379 . S
C702 H686 0.931 . S
C702 C696 1.383 . S
C702 C701 1.379 . S
H703 C697 0.959 . S
H704 C697 0.961 . S
H705 C697 0.960 . S
H706 C698 0.930 . S
H707 C699 0.929 . S
H708 C716 0.929 . S
H709 C718 0.930 . S
H710 C720 0.930 . S
H711 C723 0.929 . S
H712 C726 0.930 . S
H713 C728 0.960 . S
H714 C728 0.960 . S
H715 C728 0.960 . S
C716 H708 0.929 . S
C716 C717 1.377 . S
C716 C718 1.384 . S
C717 C716 1.377 . S
C717 C723 1.390 . S
C718 H709 0.930 . S
C718 C716 1.384 . S
C718 C719 1.372 . S
C719 C718 1.372 . S
C719 C720 1.400 . S
C719 C724 1.490 . S
C720 H710 0.930 . S
C720 C719 1.400 . S
C720 C723 1.386 . S
H721 C737 0.930 . S
H722 C738 0.931 . S
C723 H711 0.929 . S
C723 C717 1.390 . S
C723 C720 1.386 . S
C724 C719 1.490 . S
C724 C726 1.395 1_455 S
C724 C727 1.403 . S
H725 C731 0.930 . S
C726 H712 0.930 . S
C726 C724 1.395 1_655 S
C726 C729 1.403 . S
C727 C724 1.403 . S
C727 C728 1.524 . S
C727 C731 1.400 . S
C728 H713 0.960 . S
C728 H714 0.960 . S
C728 H715 0.960 . S
C728 C727 1.524 . S
C729 C726 1.403 . S
C729 C730 1.392 . S
C729 C733 1.495 . S
C730 C729 1.392 . S
C730 C731 1.385 1_655 S
C730 C732 1.478 . S
C731 H725 0.930 . S
C731 C727 1.400 . S
C731 C730 1.385 1_455 S
C732 C730 1.478 . S
C732 C734 1.381 . S
C732 C738 1.383 . S
C733 C729 1.495 . S
C733 H739 0.959 . S
C733 H740 0.961 . S
C733 H741 0.960 . S
C734 C732 1.381 . S
C734 C735 1.394 . S
C734 H742 0.930 . S
C735 C734 1.394 . S
C735 C736 1.383 . S
C735 H743 0.929 . S
C736 C735 1.383 . S
C736 C737 1.377 . S
C737 H721 0.930 . S
C737 C736 1.377 . S
C737 C738 1.379 . S
C738 H722 0.931 . S
C738 C732 1.383 . S
C738 C737 1.379 . S
H739 C733 0.959 . S
H740 C733 0.961 . S
H741 C733 0.960 . S
H742 C734 0.930 . S
H743 C735 0.929 . S
H744 C752 0.929 . S
H745 C754 0.930 . S
H746 C756 0.930 1_565 S
H747 C759 0.946 . S
H748 C762 0.930 . S
H749 C764 0.960 1_565 S
H750 C764 0.960 . S
H751 C764 0.960 1_565 S
C752 H744 0.929 . S
C752 C753 1.377 . S
C752 C754 1.384 . S
C753 C752 1.377 . S
C753 C759 1.390 . S
C754 H745 0.930 . S
C754 C752 1.384 . S
C754 C755 1.372 . S
C755 C754 1.372 . S
C755 C756 1.400 . S
C755 C760 1.490 . S
C756 H746 0.930 1_545 S
C756 C755 1.400 . S
C756 C759 1.386 . S
H757 C773 0.930 . S
H758 C774 0.931 . S
C759 H747 0.946 . S
C759 C753 1.390 . S
C759 C756 1.386 . S
C760 C755 1.490 . S
C760 C762 1.395 . S
C760 C763 1.403 . S
H761 C767 0.930 . S
C762 H748 0.930 . S
C762 C760 1.395 . S
C762 C765 1.409 . S
C763 C760 1.403 . S
C763 C764 1.524 . S
C763 C767 1.400 1_545 S
C764 H749 0.960 1_545 S
C764 H750 0.960 . S
C764 H751 0.960 1_545 S
C764 C763 1.524 . S
C765 C762 1.409 . S
C765 C766 1.377 1_545 S
C765 C769 1.516 1_545 S
C766 C765 1.377 1_565 S
C766 C767 1.385 . S
C766 C768 1.478 . S
C767 H761 0.930 . S
C767 C763 1.400 1_565 S
C767 C766 1.385 . S
C768 C766 1.478 . S
C768 C770 1.381 . S
C768 C774 1.383 . S
C769 C765 1.516 1_565 S
C769 H775 0.944 1_565 S
C769 H776 0.979 . S
C769 H777 0.948 1_565 S
C770 C768 1.381 . S
C770 C771 1.394 . S
C770 H778 0.930 1_565 S
C771 C770 1.394 . S
C771 C772 1.383 . S
C771 H779 0.907 1_565 S
C772 C771 1.383 . S
C772 C773 1.377 . S
C773 H757 0.930 . S
C773 C772 1.377 . S
C773 C774 1.379 . S
C774 H758 0.931 . S
C774 C768 1.383 . S
C774 C773 1.379 . S
H775 C769 0.944 1_545 S
H776 C769 0.979 . S
H777 C769 0.948 1_545 S
H778 C770 0.930 1_545 S
H779 C771 0.907 1_545 S
H780 C788 0.929 . S
H781 C790 0.930 . S
H782 C792 0.930 . S
H783 C795 0.929 . S
H784 C798 0.930 . S
H785 C800 0.960 . S
H786 C800 0.960 . S
H787 C800 0.960 . S
C788 H780 0.929 . S
C788 C789 1.377 . S
C788 C790 1.384 . S
C789 C788 1.377 . S
C789 C795 1.390 . S
C790 H781 0.930 . S
C790 C788 1.384 . S
C790 C791 1.372 . S
C791 C790 1.372 . S
C791 C792 1.400 . S
C791 C796 1.490 . S
C792 H782 0.930 . S
C792 C791 1.400 . S
C792 C795 1.386 . S
H793 C809 0.930 . S
H794 C810 0.931 . S
C795 H783 0.929 . S
C795 C789 1.390 . S
C795 C792 1.386 . S
C796 C791 1.490 . S
C796 C798 1.395 . S
C796 C799 1.403 . S
H797 C803 0.930 . S
C798 H784 0.930 . S
C798 C796 1.395 . S
C798 C801 1.403 . S
C799 C796 1.403 . S
C799 C800 1.524 . S
C799 C803 1.400 . S
C800 H785 0.960 . S
C800 H786 0.960 . S
C800 H787 0.960 . S
C800 C799 1.524 . S
C801 C798 1.403 . S
C801 C802 1.392 . S
C801 C805 1.495 . S
C802 C801 1.392 . S
C802 C803 1.385 . S
C802 C804 1.478 . S
C803 H797 0.930 . S
C803 C799 1.400 . S
C803 C802 1.385 . S
C804 C802 1.478 . S
C804 C806 1.381 . S
C804 C810 1.383 . S
C805 C801 1.495 . S
C805 H811 0.959 . S
C805 H812 0.961 . S
C805 H813 0.960 . S
C806 C804 1.381 . S
C806 C807 1.394 . S
C806 H814 0.930 . S
C807 C806 1.394 . S
C807 C808 1.383 . S
C807 H815 0.929 . S
C808 C807 1.383 . S
C808 C809 1.377 . S
C809 H793 0.930 . S
C809 C808 1.377 . S
C809 C810 1.379 . S
C810 H794 0.931 . S
C810 C804 1.383 . S
C810 C809 1.379 . S
H811 C805 0.959 . S
H812 C805 0.961 . S
H813 C805 0.960 . S
H814 C806 0.930 . S
H815 C807 0.929 . S
H816 C824 0.929 . S
H817 C826 0.930 . S
H818 C828 0.930 . S
H819 C831 0.929 . S
H820 C834 0.930 . S
H821 C836 0.960 . S
H822 C836 0.960 . S
H823 C836 0.960 . S
C824 H816 0.929 . S
C824 C825 1.377 . S
C824 C826 1.384 . S
C825 C824 1.377 . S
C825 C831 1.390 . S
C826 H817 0.930 . S
C826 C824 1.384 . S
C826 C827 1.372 . S
C827 C826 1.372 . S
C827 C828 1.400 . S
C827 C832 1.490 . S
C828 H818 0.930 . S
C828 C827 1.400 . S
C828 C831 1.386 . S
H829 C845 0.930 . S
H830 C846 0.931 . S
C831 H819 0.929 . S
C831 C825 1.390 . S
C831 C828 1.386 . S
C832 C827 1.490 . S
C832 C834 1.395 . S
C832 C835 1.403 . S
H833 C839 0.930 . S
C834 H820 0.930 . S
C834 C832 1.395 . S
C834 C837 1.403 . S
C835 C832 1.403 . S
C835 C836 1.524 . S
C835 C839 1.400 . S
C836 H821 0.960 . S
C836 H822 0.960 . S
C836 H823 0.960 . S
C836 C835 1.524 . S
C837 C834 1.403 . S
C837 C838 1.392 . S
C837 C841 1.495 . S
C838 C837 1.392 . S
C838 C839 1.385 . S
C838 C840 1.478 . S
C839 H833 0.930 . S
C839 C835 1.400 . S
C839 C838 1.385 . S
C840 C838 1.478 . S
C840 C842 1.381 . S
C840 C846 1.383 . S
C841 C837 1.495 . S
C841 H847 0.959 . S
C841 H848 0.961 . S
C841 H849 0.960 . S
C842 C840 1.381 . S
C842 C843 1.394 . S
C842 H850 0.930 . S
C843 C842 1.394 . S
C843 C844 1.383 . S
C843 H851 0.929 . S
C844 C843 1.383 . S
C844 C845 1.377 . S
C845 H829 0.930 . S
C845 C844 1.377 . S
C845 C846 1.379 . S
C846 H830 0.931 . S
C846 C840 1.383 . S
C846 C845 1.379 . S
H847 C841 0.959 . S
H848 C841 0.961 . S
H849 C841 0.960 . S
H850 C842 0.930 . S
H851 C843 0.929 . S
H852 C860 0.929 . S
H853 C862 0.930 . S
H854 C864 0.930 . S
H855 C867 0.929 . S
H856 C870 0.930 . S
H857 C872 0.960 . S
H858 C872 0.960 . S
H859 C872 0.960 . S
C860 H852 0.929 . S
C860 C861 1.377 . S
C860 C862 1.384 . S
C861 C860 1.377 . S
C861 C867 1.390 . S
C862 H853 0.930 . S
C862 C860 1.384 . S
C862 C863 1.372 . S
C863 C862 1.372 . S
C863 C864 1.400 . S
C863 C868 1.490 . S
C864 H854 0.930 . S
C864 C863 1.400 . S
C864 C867 1.386 . S
H865 C881 0.930 . S
H866 C882 0.931 . S
C867 H855 0.929 . S
C867 C861 1.390 . S
C867 C864 1.386 . S
C868 C863 1.490 . S
C868 C870 1.395 . S
C868 C871 1.403 . S
H869 C875 0.930 . S
C870 H856 0.930 . S
C870 C868 1.395 . S
C870 C873 1.403 . S
C871 C868 1.403 . S
C871 C872 1.524 . S
C871 C875 1.400 . S
C872 H857 0.960 . S
C872 H858 0.960 . S
C872 H859 0.960 . S
C872 C871 1.524 . S
C873 C870 1.403 . S
C873 C874 1.392 . S
C873 C877 1.495 . S
C874 C873 1.392 . S
C874 C875 1.385 . S
C874 C876 1.478 . S
C875 H869 0.930 . S
C875 C871 1.400 . S
C875 C874 1.385 . S
C876 C874 1.478 . S
C876 C878 1.381 . S
C876 C882 1.383 . S
C877 C873 1.495 . S
C877 H883 0.959 . S
C877 H884 0.961 . S
C877 H885 0.960 . S
C878 C876 1.381 . S
C878 C879 1.394 . S
C878 H886 0.930 . S
C879 C878 1.394 . S
C879 C880 1.383 . S
C879 H887 0.929 . S
C880 C879 1.383 . S
C880 C881 1.377 . S
C881 H865 0.930 . S
C881 C880 1.377 . S
C881 C882 1.379 . S
C882 H866 0.931 . S
C882 C876 1.383 . S
C882 C881 1.379 . S
H883 C877 0.959 . S
H884 C877 0.961 . S
H885 C877 0.960 . S
H886 C878 0.930 . S
H887 C879 0.929 . S
H888 C896 0.929 . S
H889 C898 0.930 . S
H890 C900 0.930 . S
H891 C903 0.929 . S
H892 C906 0.930 . S
H893 C908 0.960 . S
H894 C908 0.960 . S
H895 C908 0.960 . S
C896 H888 0.929 . S
C896 C897 1.377 . S
C896 C898 1.384 . S
C897 C896 1.377 . S
C897 C903 1.390 . S
C898 H889 0.930 . S
C898 C896 1.384 . S
C898 C899 1.372 . S
C899 C898 1.372 . S
C899 C900 1.400 . S
C899 C904 1.490 . S
C900 H890 0.930 . S
C900 C899 1.400 . S
C900 C903 1.386 . S
H901 C917 0.930 . S
H902 C918 0.931 . S
C903 H891 0.929 . S
C903 C897 1.390 . S
C903 C900 1.386 . S
C904 C899 1.490 . S
C904 C906 1.395 . S
C904 C907 1.403 . S
H905 C911 0.930 . S
C906 H892 0.930 . S
C906 C904 1.395 . S
C906 C909 1.403 . S
C907 C904 1.403 . S
C907 C908 1.524 . S
C907 C911 1.400 . S
C908 H893 0.960 . S
C908 H894 0.960 . S
C908 H895 0.960 . S
C908 C907 1.524 . S
C909 C906 1.403 . S
C909 C910 1.392 . S
C909 C913 1.495 . S
C910 C909 1.392 . S
C910 C911 1.385 . S
C910 C912 1.478 . S
C911 H905 0.930 . S
C911 C907 1.400 . S
C911 C910 1.385 . S
C912 C910 1.478 . S
C912 C914 1.381 . S
C912 C918 1.383 . S
C913 C909 1.495 . S
C913 H919 0.959 . S
C913 H920 0.961 . S
C913 H921 0.960 . S
C914 C912 1.381 . S
C914 C915 1.394 . S
C914 H922 0.930 . S
C915 C914 1.394 . S
C915 C916 1.383 . S
C915 H923 0.929 . S
C916 C915 1.383 . S
C916 C917 1.377 . S
C917 H901 0.930 . S
C917 C916 1.377 . S
C917 C918 1.379 . S
C918 H902 0.931 . S
C918 C912 1.383 . S
C918 C917 1.379 . S
H919 C913 0.959 . S
H920 C913 0.961 . S
H921 C913 0.960 . S
H922 C914 0.930 . S
H923 C915 0.929 . S
H924 C932 0.929 . S
H925 C934 0.930 . S
H926 C936 0.930 . S
H927 C939 0.929 . S
H928 C942 0.930 . S
H929 C944 0.960 . S
H930 C944 0.960 . S
H931 C944 0.960 . S
C932 H924 0.929 . S
C932 C933 1.377 . S
C932 C934 1.384 . S
C933 C932 1.377 . S
C933 C939 1.390 . S
C934 H925 0.930 . S
C934 C932 1.384 . S
C934 C935 1.372 . S
C935 C934 1.372 . S
C935 C936 1.400 . S
C935 C940 1.490 . S
C936 H926 0.930 . S
C936 C935 1.400 . S
C936 C939 1.386 . S
H937 C953 0.930 . S
H938 C954 0.931 . S
C939 H927 0.929 . S
C939 C933 1.390 . S
C939 C936 1.386 . S
C940 C935 1.490 . S
C940 C942 1.395 . S
C940 C943 1.403 . S
H941 C947 0.930 . S
C942 H928 0.930 . S
C942 C940 1.395 . S
C942 C945 1.403 . S
C943 C940 1.403 . S
C943 C944 1.524 . S
C943 C947 1.400 . S
C944 H929 0.960 . S
C944 H930 0.960 . S
C944 H931 0.960 . S
C944 C943 1.524 . S
C945 C942 1.403 . S
C945 C946 1.392 . S
C945 C949 1.495 . S
C946 C945 1.392 . S
C946 C947 1.385 . S
C946 C948 1.478 . S
C947 H941 0.930 . S
C947 C943 1.400 . S
C947 C946 1.385 . S
C948 C946 1.478 . S
C948 C950 1.381 . S
C948 C954 1.383 . S
C949 C945 1.495 . S
C949 H955 0.959 . S
C949 H956 0.961 . S
C949 H957 0.960 . S
C950 C948 1.381 . S
C950 C951 1.394 . S
C950 H958 0.930 . S
C951 C950 1.394 . S
C951 C952 1.383 . S
C951 H959 0.929 . S
C952 C951 1.383 . S
C952 C953 1.377 . S
C953 H937 0.930 . S
C953 C952 1.377 . S
C953 C954 1.379 . S
C954 H938 0.931 . S
C954 C948 1.383 . S
C954 C953 1.379 . S
H955 C949 0.959 . S
H956 C949 0.961 . S
H957 C949 0.960 . S
H958 C950 0.930 . S
H959 C951 0.929 . S
H960 C968 0.929 . S
H961 C970 0.930 . S
H962 C972 0.930 . S
H963 C975 0.929 . S
H964 C978 0.930 . S
H965 C980 0.960 . S
H966 C980 0.960 . S
H967 C980 0.960 . S
C968 H960 0.929 . S
C968 C969 1.377 . S
C968 C970 1.384 . S
C969 C968 1.377 . S
C969 C975 1.390 . S
C970 H961 0.930 . S
C970 C968 1.384 . S
C970 C971 1.372 . S
C971 C970 1.372 . S
C971 C972 1.400 . S
C971 C976 1.490 . S
C972 H962 0.930 . S
C972 C971 1.400 . S
C972 C975 1.386 . S
H973 C989 0.930 . S
H974 C990 0.931 . S
C975 H963 0.929 . S
C975 C969 1.390 . S
C975 C972 1.386 . S
C976 C971 1.490 . S
C976 C978 1.395 . S
C976 C979 1.403 . S
H977 C983 0.930 . S
C978 H964 0.930 . S
C978 C976 1.395 . S
C978 C981 1.403 . S
C979 C976 1.403 . S
C979 C980 1.524 . S
C979 C983 1.400 . S
C980 H965 0.960 . S
C980 H966 0.960 . S
C980 H967 0.960 . S
C980 C979 1.524 . S
C981 C978 1.403 . S
C981 C982 1.392 . S
C981 C985 1.495 . S
C982 C981 1.392 . S
C982 C983 1.385 . S
C982 C984 1.478 . S
C983 H977 0.930 . S
C983 C979 1.400 . S
C983 C982 1.385 . S
C984 C982 1.478 . S
C984 C986 1.381 . S
C984 C990 1.383 . S
C985 C981 1.495 . S
C985 H991 0.959 . S
C985 H992 0.961 . S
C985 H993 0.960 . S
C986 C984 1.381 . S
C986 C987 1.394 . S
C986 H994 0.930 . S
C987 C986 1.394 . S
C987 C988 1.383 . S
C987 H995 0.929 . S
C988 C987 1.383 . S
C988 C989 1.377 . S
C989 H973 0.930 . S
C989 C988 1.377 . S
C989 C990 1.379 . S
C990 H974 0.931 . S
C990 C984 1.383 . S
C990 C989 1.379 . S
H991 C985 0.959 . S
H992 C985 0.961 . S
H993 C985 0.960 . S
H994 C986 0.930 . S
H995 C987 0.929 . S
H996 C1004 0.929 . S
H997 C1006 0.930 . S
H998 C1008 0.930 . S
H999 C1011 0.929 . S
H1000 C1014 0.930 . S
H1001 C1016 0.960 . S
H1002 C1016 0.960 . S
H1003 C1016 0.960 . S
C1004 H996 0.929 . S
C1004 C1005 1.377 . S
C1004 C1006 1.384 . S
C1005 C1004 1.377 . S
C1005 C1011 1.390 . S
C1006 H997 0.930 . S
C1006 C1004 1.384 . S
C1006 C1007 1.372 . S
C1007 C1006 1.372 . S
C1007 C1008 1.400 . S
C1007 C1012 1.490 . S
C1008 H998 0.930 . S
C1008 C1007 1.400 . S
C1008 C1011 1.386 . S
H1009 C1025 0.930 . S
H1010 C1026 0.931 . S
C1011 H999 0.929 . S
C1011 C1005 1.390 . S
C1011 C1008 1.386 . S
C1012 C1007 1.490 . S
C1012 C1014 1.395 . S
C1012 C1015 1.403 . S
H1013 C1019 0.930 . S
C1014 H1000 0.930 . S
C1014 C1012 1.395 . S
C1014 C1017 1.403 . S
C1015 C1012 1.403 . S
C1015 C1016 1.524 . S
C1015 C1019 1.400 . S
C1016 H1001 0.960 . S
C1016 H1002 0.960 . S
C1016 H1003 0.960 . S
C1016 C1015 1.524 . S
C1017 C1014 1.403 . S
C1017 C1018 1.392 . S
C1017 C1021 1.495 . S
C1018 C1017 1.392 . S
C1018 C1019 1.385 . S
C1018 C1020 1.478 . S
C1019 H1013 0.930 . S
C1019 C1015 1.400 . S
C1019 C1018 1.385 . S
C1020 C1018 1.478 . S
C1020 C1022 1.381 . S
C1020 C1026 1.383 . S
C1021 C1017 1.495 . S
C1021 H1027 0.959 . S
C1021 H1028 0.961 . S
C1021 H1029 0.960 . S
C1022 C1020 1.381 . S
C1022 C1023 1.394 . S
C1022 H1030 0.930 . S
C1023 C1022 1.394 . S
C1023 C1024 1.383 . S
C1023 H1031 0.929 . S
C1024 C1023 1.383 . S
C1024 C1025 1.377 . S
C1025 H1009 0.930 . S
C1025 C1024 1.377 . S
C1025 C1026 1.379 . S
C1026 H1010 0.931 . S
C1026 C1020 1.383 . S
C1026 C1025 1.379 . S
H1027 C1021 0.959 . S
H1028 C1021 0.961 . S
H1029 C1021 0.960 . S
H1030 C1022 0.930 . S
H1031 C1023 0.929 . S
C177 C3 1.541 . S
C196 C87 1.534 . S
C213 C17 1.545 . S
C232 C101 1.528 . S
C249 C31 1.434 . S
C268 C115 1.436 . S
C285 C129 1.545 . S
C304 C45 1.552 . S
C321 C59 1.544 . S
C340 C143 1.548 . S
C357 C157 1.429 . S
C376 C73 1.437 . S
C393 C7 0.898 . S
C412 C133 0.839 . S
C429 C21 0.881 . S
C448 C147 0.928 . S
C465 C161 0.826 . S
C484 C35 0.825 . S
C501 C91 0.878 . S
C520 C49 0.940 . S
C537 C63 0.892 . S
C556 C105 0.879 . S
C573 C77 0.815 . S
C592 C119 0.883 . S
C609 C162 1.748 . S
C628 C8 1.727 . S
C645 C22 1.967 . S
C664 C92 1.973 . S
C681 C36 1.749 . S
C700 C106 1.748 . S
C717 C120 1.746 . S
C736 C50 1.723 . S
C753 C134 1.964 . S
C772 C64 1.960 . S
C789 C78 1.747 . S
C808 C148 1.742 . S
C825 C9 0.705 . S
C844 C149 0.641 . S
C861 C163 0.839 . S
C880 C23 0.884 . S
C897 C93 0.846 . S
C916 C37 0.819 . S
C933 C51 0.708 . S
C952 C107 0.767 . S
C969 C121 0.831 . S
C988 C65 0.775 . S
C1005 C135 0.827 . S
C1024 C79 0.800 . S
