# Generated by pormake.
# Topology tfs, (6)-cn, num edge types: 1
# Building blocks:
#     Node 0, Type 0, BuildingBlock: FUNLAD_clean_sbu_0, # of connection points: 6
#     Node 1, Type 0, BuildingBlock: FUNLAD_clean_sbu_0, # of connection points: 6
#     Node 2, Type 0, BuildingBlock: FUNLAD_clean_sbu_0, # of connection points: 6
#     Node 3, Type 0, BuildingBlock: FUNLAD_clean_sbu_0, # of connection points: 6
#     Node 4, Type 0, BuildingBlock: FUNLAD_clean_sbu_0, # of connection points: 6
#     Node 5, Type 0, BuildingBlock: FUNLAD_clean_sbu_0, # of connection points: 6
#     Edge 6, Type (0, 0), BuildingBlock: UVAHIK_clean_linker_0, # of connection points: 2
#     Edge 7, Type (0, 0), BuildingBlock: UVAHIK_clean_linker_0, # of connection points: 2
#     Edge 8, Type (0, 0), BuildingBlock: UVAHIK_clean_linker_0, # of connection points: 2
#     Edge 9, Type (0, 0), BuildingBlock: UVAHIK_clean_linker_0, # of connection points: 2
#     Edge 10, Type (0, 0), BuildingBlock: UVAHIK_clean_linker_0, # of connection points: 2
#     Edge 11, Type (0, 0), BuildingBlock: UVAHIK_clean_linker_0, # of connection points: 2
#     Edge 12, Type (0, 0), BuildingBlock: UVAHIK_clean_linker_0, # of connection points: 2
#     Edge 13, Type (0, 0), BuildingBlock: UVAHIK_clean_linker_0, # of connection points: 2
#     Edge 14, Type (0, 0), BuildingBlock: UVAHIK_clean_linker_0, # of connection points: 2
#     Edge 15, Type (0, 0), BuildingBlock: UVAHIK_clean_linker_0, # of connection points: 2
#     Edge 16, Type (0, 0), BuildingBlock: UVAHIK_clean_linker_0, # of connection points: 2
#     Edge 17, Type (0, 0), BuildingBlock: UVAHIK_clean_linker_0, # of connection points: 2
#     Edge 18, Type (0, 0), BuildingBlock: UVAHIK_clean_linker_0, # of connection points: 2
#     Edge 19, Type (0, 0), BuildingBlock: UVAHIK_clean_linker_0, # of connection points: 2
#     Edge 20, Type (0, 0), BuildingBlock: UVAHIK_clean_linker_0, # of connection points: 2
#     Edge 21, Type (0, 0), BuildingBlock: UVAHIK_clean_linker_0, # of connection points: 2
#     Edge 22, Type (0, 0), BuildingBlock: UVAHIK_clean_linker_0, # of connection points: 2
#     Edge 23, Type (0, 0), BuildingBlock: UVAHIK_clean_linker_0, # of connection points: 2
# Relax obj value: 0.140
# Max RMSD: 0.157
# Mean RMSD: 0.155
data_MOF--net-tfs--node1-FUNLAD_clean_sbu_0--edge1-UVAHIK_clean_linker_0
_symmetry_space_group_name_H-M    P1
_symmetry_Int_Tables_number       1
_symmetry_cell_setting            triclinic
loop_
_symmetry_equiv_pos_as_xyz
'x, y, z'
_cell_length_a     52.77211
_cell_length_b     52.818074
_cell_length_c     26.298561
_cell_angle_alpha  90.558821
_cell_angle_beta   91.028118
_cell_angle_gamma 120.07124
loop_
_atom_site_label
_atom_site_type_symbol
_atom_site_fract_x
_atom_site_fract_y
_atom_site_fract_z
_atom_type_partial_charge
C0 C 0.13361 0.36321 0.03335 0.0
N1 N 0.19156 0.41292 0.15162 0.0
C2 C 0.1683 0.41139 0.17595 0.0
C3 C 0.16777 0.41148 0.22901 0.0
C4 C 0.19139 0.41317 0.25741 0.0
C5 C 0.21528 0.41512 0.23126 0.0
C6 C 0.21489 0.41494 0.17815 0.0
Zn7 Zn 0.19069 0.41073 0.07385 0.0
C8 C 0.20838 0.36913 0.03604 0.0
N9 N 0.18807 0.405 0.91143 0.0
C10 C 0.16463 0.40278 0.88493 0.0
C11 C 0.21127 0.40644 0.88708 0.0
C12 C 0.21163 0.406 0.83401 0.0
C13 C 0.18789 0.40406 0.80563 0.0
C14 C 0.16407 0.40225 0.83181 0.0
Zn15 Zn 0.18899 0.40729 0.98915 0.0
O16 O 0.14764 0.37594 0.07415 0.0
C17 C 0.17034 0.44842 0.02718 0.0
O18 O 0.14548 0.37229 0.99072 0.0
H19 H 0.22965 0.40812 0.90886 0.0
H20 H 0.14998 0.40983 0.15415 0.0
H21 H 0.14645 0.40175 0.90504 0.0
O22 O 0.17583 0.44103 0.07 0.0
O23 O 0.17404 0.43753 0.98662 0.0
H24 H 0.2331 0.416 0.15807 0.0
O25 O 0.2328 0.44224 0.98903 0.0
O26 O 0.23419 0.44523 0.07245 0.0
O27 O 0.20364 0.37693 0.99303 0.0
O28 O 0.20506 0.38037 0.07643 0.0
C29 C 0.2468 0.45415 0.03036 0.0
H30 H 0.14908 0.41034 0.24757 0.0
H31 H 0.2338 0.41611 0.25158 0.0
H32 H 0.23027 0.40703 0.81543 0.0
H33 H 0.14546 0.40108 0.81151 0.0
C34 C 0.83214 0.21216 0.04891 0.0
N35 N 0.77507 0.2021 0.92824 0.0
C36 C 0.79836 0.22368 0.90411 0.0
C37 C 0.7989 0.22402 0.85107 0.0
C38 C 0.77525 0.20193 0.8225 0.0
C39 C 0.75143 0.18 0.84845 0.0
C40 C 0.75179 0.18051 0.90156 0.0
Zn41 Zn 0.77541 0.20183 1.00593 0.0
C42 C 0.75713 0.14312 0.04563 0.0
N43 N 0.77675 0.20118 0.16833 0.0
C44 C 0.80023 0.22262 0.19484 0.0
C45 C 0.75356 0.17957 0.19264 0.0
C46 C 0.75339 0.17901 0.2457 0.0
C47 C 0.77729 0.20092 0.27409 0.0
C48 C 0.80094 0.22292 0.24795 0.0
Zn49 Zn 0.77629 0.20148 0.09064 0.0
O50 O 0.81885 0.21038 1.00714 0.0
C51 C 0.7952 0.2606 0.05139 0.0
O52 O 0.81944 0.20974 0.0906 0.0
H53 H 0.73509 0.16277 0.17083 0.0
H54 H 0.81669 0.24057 0.92606 0.0
H55 H 0.81847 0.23954 0.17477 0.0
O56 O 0.79022 0.24712 0.00883 0.0
O57 O 0.79122 0.24663 0.09227 0.0
H58 H 0.73348 0.16359 0.9215 0.0
O59 O 0.73271 0.19269 0.08943 0.0
O60 O 0.73176 0.19292 1.00596 0.0
O61 O 0.76173 0.15671 0.0879 0.0
O62 O 0.76079 0.15672 1.0044 0.0
C63 C 0.71896 0.19002 0.04775 0.0
H64 H 0.81787 0.24114 0.83267 0.0
H65 H 0.73258 0.16277 0.82796 0.0
H66 H 0.73453 0.16185 0.26426 0.0
H67 H 0.81998 0.24002 0.26829 0.0
C68 C 0.60813 0.76367 0.02672 0.0
N69 N 0.56442 0.77607 0.14663 0.0
C70 C 0.5654 0.75409 0.17149 0.0
C71 C 0.56565 0.7537 0.22457 0.0
C72 C 0.56491 0.77616 0.25239 0.0
C73 C 0.56396 0.79859 0.22568 0.0
C74 C 0.56371 0.7981 0.17259 0.0
Zn75 Zn 0.564 0.776 0.06892 0.0
C76 C 0.60505 0.83424 0.02917 0.0
N77 N 0.56305 0.77612 0.90652 0.0
C78 C 0.5639 0.75411 0.88076 0.0
C79 C 0.56222 0.79812 0.88148 0.0
C80 C 0.5623 0.79857 0.8284 0.0
C81 C 0.56321 0.77615 0.80079 0.0
C82 C 0.56398 0.75369 0.82769 0.0
Zn83 Zn 0.56338 0.77619 0.98421 0.0
O84 O 0.59776 0.76601 0.06855 0.0
C85 C 0.52241 0.71758 0.02457 0.0
O86 O 0.59734 0.76649 0.98508 0.0
H87 H 0.56149 0.81538 0.9027 0.0
H88 H 0.56604 0.73683 0.15012 0.0
H89 H 0.56466 0.73689 0.90143 0.0
O90 O 0.53253 0.73135 0.06663 0.0
O91 O 0.5316 0.73104 0.98316 0.0
H92 H 0.56287 0.81532 0.15207 0.0
O93 O 0.52967 0.78637 0.98455 0.0
O94 O 0.53018 0.78633 0.06802 0.0
O95 O 0.59495 0.82102 0.98664 0.0
O96 O 0.59555 0.82044 0.07011 0.0
C97 C 0.51971 0.78952 0.02627 0.0
H98 H 0.56676 0.73618 0.2436 0.0
H99 H 0.56299 0.81612 0.24556 0.0
H100 H 0.56131 0.81612 0.8092 0.0
H101 H 0.56508 0.73617 0.80799 0.0
C102 C 0.75879 0.61111 0.04412 0.0
N103 N 0.77075 0.56413 0.92804 0.0
C104 C 0.74855 0.56458 0.90171 0.0
C105 C 0.74809 0.56442 0.84862 0.0
C106 C 0.77071 0.56382 0.82226 0.0
C107 C 0.79322 0.56311 0.85044 0.0
C108 C 0.7928 0.56327 0.90352 0.0
Zn109 Zn 0.77141 0.56585 1.00577 0.0
C110 C 0.82977 0.60927 0.04778 0.0
N111 N 0.77298 0.57038 0.16821 0.0
C112 C 0.75085 0.57118 0.19253 0.0
C113 C 0.79528 0.57022 0.19474 0.0
C114 C 0.79575 0.57064 0.24785 0.0
C115 C 0.77304 0.57121 0.27401 0.0
C116 C 0.75044 0.57161 0.2456 0.0
Zn117 Zn 0.77234 0.56857 0.09048 0.0
O118 O 0.76132 0.59933 1.0037 0.0
C119 C 0.71339 0.52576 0.04759 0.0
O120 O 0.76163 0.60193 0.08712 0.0
H121 H 0.81262 0.5695 0.17467 0.0
H122 H 0.7313 0.56539 0.92194 0.0
H123 H 0.73337 0.57136 0.17071 0.0
O124 O 0.72675 0.53434 1.00606 0.0
O125 O 0.72733 0.53633 0.08951 0.0
H126 H 0.81022 0.56289 0.92518 0.0
O127 O 0.78348 0.5354 0.09247 0.0
O128 O 0.78215 0.53251 0.00905 0.0
O129 O 0.8171 0.60083 0.08996 0.0
O130 O 0.81566 0.59761 1.00652 0.0
C131 C 0.7863 0.52398 0.05178 0.0
H132 H 0.73051 0.56535 0.82848 0.0
H133 H 0.81089 0.56226 0.83169 0.0
H134 H 0.81341 0.56995 0.26816 0.0
H135 H 0.73271 0.57244 0.26417 0.0
C136 C 0.24899 0.78754 0.0325 0.0
N137 N 0.1904 0.77673 0.91377 0.0
C138 C 0.21341 0.79851 0.88939 0.0
C139 C 0.21355 0.79903 0.83632 0.0
C140 C 0.18979 0.77691 0.80799 0.0
C141 C 0.16623 0.75484 0.8342 0.0
C142 C 0.16698 0.75518 0.8873 0.0
Zn143 Zn 0.19132 0.77592 0.99146 0.0
C144 C 0.17292 0.71631 0.02885 0.0
N145 N 0.19333 0.77364 0.15379 0.0
C146 C 0.21658 0.79537 0.1803 0.0
C147 C 0.17035 0.75181 0.17812 0.0
C148 C 0.17005 0.75141 0.23119 0.0
C149 C 0.19363 0.77373 0.25957 0.0
C150 C 0.21718 0.79584 0.23341 0.0
Zn151 Zn 0.19246 0.77441 0.07609 0.0
O152 O 0.23494 0.78506 0.99129 0.0
C153 C 0.20999 0.83355 0.03873 0.0
O154 O 0.23639 0.78408 0.07468 0.0
H155 H 0.15203 0.7348 0.15632 0.0
H156 H 0.23185 0.81538 0.91115 0.0
H157 H 0.23465 0.8125 0.16021 0.0
O158 O 0.20573 0.8208 0.99566 0.0
O159 O 0.20627 0.81919 0.07905 0.0
H160 H 0.14887 0.73812 0.90742 0.0
O161 O 0.14883 0.76505 0.07622 0.0
O162 O 0.148 0.76718 0.99291 0.0
O163 O 0.17826 0.72939 0.07185 0.0
O164 O 0.17657 0.73067 0.98852 0.0
C165 C 0.1353 0.76368 0.03494 0.0
H166 H 0.23234 0.81627 0.81771 0.0
H167 H 0.14729 0.73758 0.8139 0.0
H168 H 0.15127 0.73414 0.24975 0.0
H169 H 0.23598 0.81325 0.25374 0.0
C170 C 0.35847 0.21253 0.0475 0.0
N171 N 0.40494 0.20166 0.16707 0.0
C172 C 0.40403 0.22362 0.19294 0.0
C173 C 0.40402 0.22401 0.24604 0.0
C174 C 0.40492 0.20157 0.27282 0.0
C175 C 0.40604 0.1793 0.24509 0.0
C176 C 0.40604 0.17978 0.19204 0.0
Zn177 Zn 0.40387 0.20099 0.08936 0.0
C178 C 0.36197 0.14198 0.04727 0.0
N179 N 0.40098 0.19874 0.92686 0.0
C180 C 0.39964 0.22049 0.9019 0.0
C181 C 0.40192 0.1768 0.90098 0.0
C182 C 0.40169 0.17629 0.84786 0.0
C183 C 0.40052 0.19859 0.82108 0.0
C184 C 0.39939 0.22085 0.84883 0.0
Zn185 Zn 0.40212 0.19945 1.0046 0.0
O186 O 0.37002 0.21071 0.08903 0.0
C187 C 0.44371 0.25888 0.04692 0.0
O188 O 0.36795 0.20901 1.00553 0.0
H189 H 0.40306 0.15976 0.92157 0.0
H190 H 0.40306 0.24075 0.17234 0.0
H191 H 0.39882 0.23768 0.92319 0.0
O192 O 0.43528 0.24592 0.08891 0.0
O193 O 0.43325 0.2445 1.00543 0.0
H194 H 0.40681 0.16256 0.17075 0.0
O195 O 0.43639 0.18974 1.00501 0.0
O196 O 0.43766 0.19091 0.0885 0.0
O197 O 0.37092 0.15459 1.00512 0.0
O198 O 0.37247 0.15642 0.08863 0.0
C199 C 0.44733 0.18729 0.04682 0.0
H200 H 0.40278 0.24141 0.26585 0.0
H201 H 0.40716 0.1618 0.26418 0.0
H202 H 0.40293 0.15889 0.82803 0.0
H203 H 0.39808 0.23825 0.82975 0.0
C204 C 0.32266 0.2209 0.09452 0.0
C205 C 0.33479 0.21951 0.04819 0.0
C206 C 0.30204 0.22997 0.09585 0.0
C207 C 0.25343 0.24598 0.01612 0.0
H208 H 0.27458 0.30802 0.11673 0.0
C209 C 0.22373 0.33623 0.9953 0.0
C210 C 0.21704 0.34672 0.03933 0.0
C211 C 0.23252 0.31542 0.99884 0.0
C212 C 0.26793 0.29034 0.08908 0.0
H213 H 0.33375 0.22495 0.96662 0.0
H214 H 0.29822 0.24147 0.96914 0.0
H215 H 0.29919 0.27968 0.11882 0.0
H216 H 0.21309 0.34285 0.12133 0.0
H217 H 0.2282 0.30636 0.12735 0.0
H218 H 0.22281 0.25752 0.9854 0.0
C219 C 0.30433 0.23516 1.0043 0.0
C220 C 0.28201 0.27406 0.09031 0.0
C221 C 0.32487 0.22595 1.00292 0.0
C222 C 0.21848 0.33545 0.08677 0.0
C223 C 0.22711 0.31456 0.09026 0.0
C224 C 0.23928 0.2623 0.01491 0.0
C225 C 0.2933 0.23795 0.05093 0.0
C226 C 0.27535 0.25215 0.05324 0.0
C227 C 0.23463 0.30468 0.04644 0.0
C228 C 0.24687 0.28503 0.05077 0.0
H229 H 0.32959 0.21565 0.12997 0.0
H230 H 0.29353 0.23151 0.13221 0.0
H231 H 0.24768 0.22897 0.98745 0.0
H232 H 0.22273 0.34448 0.95821 0.0
H233 H 0.23859 0.30849 0.96451 0.0
C234 C 0.09351 0.32421 0.08263 0.0
C235 C 0.10386 0.33793 0.03599 0.0
C236 C 0.06474 0.3015 0.08632 0.0
C237 C -0.0028 0.25113 0.01167 0.0
H238 H 0.95922 0.26639 0.1231 0.0
C239 C 0.87786 0.22395 1.004 0.0
C240 C 0.8621 0.21698 0.04908 0.0
C241 C 0.90689 0.23036 1.00486 0.0
C242 C 0.96945 0.26121 0.09249 0.0
H243 H 0.09288 0.33773 0.95608 0.0
H244 H 0.04217 0.29866 0.96288 0.0
H245 H 0.01209 0.29291 0.11996 0.0
H246 H 0.86355 0.20925 0.12973 0.0
H247 H 0.91424 0.22024 0.13107 0.0
H248 H 0.95413 0.22035 0.98305 0.0
C249 C 0.05645 0.30505 0.99636 0.0
C250 C -0.00017 0.27646 0.09066 0.0
C251 C 0.08537 0.32763 0.99256 0.0
C252 C 0.87535 0.21505 0.09453 0.0
C253 C 0.90432 0.22127 0.09531 0.0
C254 C 0.96668 0.23581 0.0135 0.0
C255 C 0.04568 0.2923 0.04358 0.0
C256 C 0.01398 0.27226 0.04945 0.0
C257 C 0.92059 0.22974 0.05075 0.0
C258 C 0.95254 0.24144 0.05312 0.0
H259 H 0.10749 0.33134 0.11657 0.0
H260 H 0.05715 0.29172 0.12299 0.0
H261 H 0.00761 0.24718 0.97987 0.0
H262 H 0.86813 0.22543 0.96834 0.0
H263 H 0.91899 0.23721 0.97004 0.0
C264 C 0.74724 0.09779 0.09009 0.0
C265 C 0.74786 0.11183 0.04468 0.0
C266 C 0.73759 0.06796 0.08968 0.0
C267 C 0.72083 0.00457 1.00612 0.0
H268 H 0.66362 0.96125 0.10817 0.0
C269 C 0.63515 0.88205 0.98699 0.0
C270 C 0.62741 0.86545 0.03129 0.0
C271 C 0.65495 0.91205 0.98983 0.0
C272 C 0.67998 0.97302 0.08004 0.0
H273 H 0.73977 0.10598 0.96303 0.0
H274 H 0.72218 0.05361 0.96253 0.0
H275 H 0.68923 0.01431 0.11105 0.0
H276 H 0.6355 0.86674 0.1128 0.0
H277 H 0.67025 0.91904 0.11756 0.0
H278 H 0.71075 0.96297 0.9743 0.0
C279 C 0.72962 0.06578 0.99828 0.0
C280 C 0.69465 0.00342 0.08168 0.0
C281 C 0.73942 0.09569 0.99864 0.0
C282 C 0.64074 0.87907 0.07809 0.0
C283 C 0.66061 0.90899 0.08087 0.0
C284 C 0.7061 0.97404 1.00446 0.0
C285 C 0.72821 0.05159 0.04392 0.0
C286 C 0.71489 0.01948 0.04435 0.0
C287 C 0.66739 0.92586 0.03697 0.0
C288 C 0.68524 0.95803 0.04103 0.0
H289 H 0.75398 0.10975 0.1261 0.0
H290 H 0.73711 0.05762 0.1253 0.0
H291 H 0.73661 0.01649 0.97723 0.0
H292 H 0.62528 0.87207 0.95036 0.0
H293 H 0.65956 0.9246 0.95546 0.0
C294 C 0.74525 0.64562 0.084 0.0
C295 C 0.75294 0.63548 0.04074 0.0
C296 C 0.73813 0.66764 0.07983 0.0
C297 C 0.70737 0.69521 0.98577 0.0
H298 H 0.72134 0.75268 0.09173 0.0
C299 C 0.64633 0.75867 0.98075 0.0
C300 C 0.63253 0.75776 0.02641 0.0
C301 C 0.66841 0.75154 0.97994 0.0
C302 C 0.7174 0.73681 0.06177 0.0
H303 H 0.76114 0.6416 0.95991 0.0
H304 H 0.74896 0.68019 0.95283 0.0
H305 H 0.74768 0.72557 0.09516 0.0
H306 H 0.63185 0.75004 0.10742 0.0
H307 H 0.66977 0.73672 0.1057 0.0
H308 H 0.67619 0.70525 0.95356 0.0
C309 C 0.74787 0.67076 0.98969 0.0
C310 C 0.73242 0.72134 0.06374 0.0
C311 C 0.75477 0.64864 0.99377 0.0
C312 C 0.642 0.75077 0.0716 0.0
C313 C 0.66396 0.74347 0.07072 0.0
C314 C 0.6924 0.71062 0.98382 0.0
C315 C 0.73878 0.67996 0.0324 0.0
C316 C 0.72687 0.6998 0.02651 0.0
C317 C 0.67692 0.74318 0.02468 0.0
C318 C 0.69662 0.73093 0.02257 0.0
H319 H 0.74382 0.63595 0.12074 0.0
H320 H 0.73083 0.67403 0.11328 0.0
H321 H 0.70228 0.67844 0.95692 0.0
H322 H 0.63978 0.76443 0.94544 0.0
H323 H 0.67832 0.75186 0.94405 0.0
C324 C 0.08943 0.74974 0.08115 0.0
C325 C 0.10487 0.75747 0.03569 0.0
C326 C 0.05988 0.7415 0.081 0.0
C327 C -0.00326 0.70722 0.99479 0.0
H328 H 0.95723 0.72061 0.10594 0.0
C329 C 0.87221 0.64608 0.99978 0.0
C330 C 0.86048 0.63278 0.04615 0.0
C331 C 0.90156 0.66755 0.99729 0.0
C332 C 0.96803 0.71674 0.07467 0.0
H333 H 0.10218 0.76464 0.9551 0.0
H334 H 0.05057 0.75043 0.95499 0.0
H335 H 0.01074 0.7485 0.10338 0.0
H336 H 0.86981 0.63221 0.12665 0.0
H337 H 0.92154 0.66917 0.12198 0.0
H338 H 0.95446 0.67473 0.96704 0.0
C339 C 0.0612 0.75025 0.99051 0.0
C340 C -0.00145 0.73268 0.07316 0.0
C341 C 0.0907 0.75835 0.9906 0.0
C342 C 0.87837 0.64204 0.09037 0.0
C343 C 0.90787 0.66338 0.08778 0.0
C344 C 0.96636 0.69133 0.99631 0.0
C345 C 0.04533 0.74098 0.03542 0.0
C346 C 0.01317 0.72758 0.03374 0.0
C347 C 0.91984 0.67592 0.04098 0.0
C348 C 0.95173 0.69547 0.03678 0.0
H349 H 0.09985 0.74903 0.11656 0.0
H350 H 0.04812 0.73413 0.11608 0.0
H351 H 0.0074 0.7024 0.96445 0.0
H352 H 0.85879 0.63974 0.9652 0.0
H353 H 0.9101 0.67721 0.9609 0.0
C354 C 0.22574 0.88143 0.99786 0.0
C355 C 0.21903 0.86477 0.04203 0.0
C356 C 0.23527 0.91123 1.00125 0.0
C357 C 0.27284 0.97286 0.09043 0.0
H358 H 0.25312 0.01363 0.98932 0.0
C359 C 0.32823 0.09757 0.09505 0.0
C360 C 0.33968 0.11077 0.04846 0.0
C361 C 0.30823 0.06771 0.0967 0.0
C362 C 0.25877 0.00248 0.01779 0.0
H363 H 0.21578 0.86585 0.12413 0.0
H364 H 0.23223 0.9179 0.1299 0.0
H365 H 0.22701 0.96014 0.98809 0.0
H366 H 0.33838 0.10341 0.96688 0.0
H367 H 0.30385 0.05104 0.96995 0.0
H368 H 0.30516 0.01498 0.11922 0.0
C369 C 0.23055 0.90799 0.09281 0.0
C370 C 0.24389 0.97196 0.01708 0.0
C371 C 0.22114 0.87822 0.08947 0.0
C372 C 0.33 0.09378 1.00336 0.0
C373 C 0.31003 0.06387 1.00506 0.0
C374 C 0.28767 0.00329 0.09116 0.0
C375 C 0.23814 0.92485 0.04883 0.0
C376 C 0.25122 0.95692 0.0528 0.0
C377 C 0.29939 0.0505 0.05185 0.0
C378 C 0.28118 0.01838 0.05426 0.0
H379 H 0.22424 0.87162 0.96075 0.0
H380 H 0.24136 0.92379 0.96677 0.0
H381 H 0.2793 0.96188 0.11794 0.0
H382 H 0.33503 0.11019 0.1304 0.0
H383 H 0.30004 0.05799 0.1332 0.0
C384 C 0.16167 0.66947 0.06994 0.0
C385 C 0.16356 0.68492 0.02566 0.0
C386 C 0.15503 0.64039 0.06664 0.0
C387 C 0.16186 0.59043 0.97858 0.0
H388 H 0.11689 0.53245 0.07871 0.0
C389 C 0.15504 0.47871 0.97707 0.0
C390 C 0.16104 0.47047 0.02441 0.0
C391 C 0.1488 0.5014 0.97412 0.0
C392 C 0.1295 0.54844 0.0505 0.0
H393 H 0.1585 0.68159 0.94334 0.0
H394 H 0.14669 0.63073 0.9377 0.0
H395 H 0.11758 0.57907 0.07897 0.0
H396 H 0.16383 0.47856 0.10595 0.0
H397 H 0.15343 0.51846 0.10069 0.0
H398 H 0.1746 0.56039 0.9511 0.0
C399 C 0.15081 0.64126 0.97488 0.0
C400 C 0.1299 0.57508 0.05065 0.0
C401 C 0.1575 0.67036 0.97815 0.0
C402 C 0.15941 0.48448 0.06888 0.0
C403 C 0.15322 0.50719 0.06591 0.0
C404 C 0.16145 0.56385 0.97842 0.0
C405 C 0.15007 0.62616 0.01902 0.0
C406 C 0.14658 0.59658 0.01533 0.0
C407 C 0.14847 0.5163 0.01842 0.0
C408 C 0.14577 0.54282 0.01501 0.0
H409 H 0.16614 0.68005 0.10713 0.0
H410 H 0.15497 0.62945 0.10131 0.0
H411 H 0.1753 0.60671 0.95137 0.0
H412 H 0.15583 0.46812 0.94213 0.0
H413 H 0.1448 0.50767 0.93705 0.0
C414 C 0.48478 0.18036 1.00156 0.0
C415 C 0.47182 0.18135 0.04718 0.0
C416 C 0.5093 0.17685 1.00241 0.0
C417 C 0.57086 0.19017 0.08677 0.0
H418 H 0.58388 0.144 0.98613 0.0
C419 C 0.67426 0.1804 0.09428 0.0
C420 C 0.68858 0.18424 0.04806 0.0
C421 C 0.64606 0.17637 0.09491 0.0
C422 C 0.58057 0.15709 0.0143 0.0
H423 H 0.47349 0.17806 0.12926 0.0
H424 H 0.51607 0.17166 0.13061 0.0
H425 H 0.53714 0.14315 0.98594 0.0
H426 H 0.68427 0.18603 0.96612 0.0
H427 H 0.63514 0.17941 0.96737 0.0
H428 H 0.61433 0.20454 0.11464 0.0
C429 C 0.50762 0.17413 0.0943 0.0
C430 C 0.55386 0.1566 0.01419 0.0
C431 C 0.48318 0.1777 0.09348 0.0
C432 C 0.67383 0.18319 1.00237 0.0
C433 C 0.64561 0.17919 1.00303 0.0
C434 C 0.59749 0.19065 0.08689 0.0
C435 C 0.52126 0.17421 0.04887 0.0
C436 C 0.54884 0.1733 0.05025 0.0
C437 C 0.63162 0.17615 0.04938 0.0
C438 C 0.60271 0.17428 0.05047 0.0
H439 H 0.47648 0.18306 0.96526 0.0
H440 H 0.51951 0.17726 0.96682 0.0
H441 H 0.56787 0.20372 0.11443 0.0
H442 H 0.68494 0.18084 0.13011 0.0
H443 H 0.63563 0.17364 0.13114 0.0
C444 C 0.48933 0.67192 0.07024 0.0
C445 C 0.4987 0.68675 0.02423 0.0
C446 C 0.46468 0.64406 0.071 0.0
C447 C 0.41281 0.58029 0.99131 0.0
H448 H 0.35763 0.57265 0.09391 0.0
C449 C 0.29068 0.49042 0.9834 0.0
C450 C 0.27744 0.47824 0.02962 0.0
C451 C 0.31938 0.51388 0.98307 0.0
C452 C 0.37295 0.57418 0.06556 0.0
H453 H 0.49063 0.68338 0.94257 0.0
H454 H 0.44726 0.63472 0.94404 0.0
H455 H 0.40544 0.61665 0.09276 0.0
H456 H 0.28419 0.48038 0.11157 0.0
H457 H 0.33432 0.52102 0.11089 0.0
H458 H 0.37995 0.53782 0.96373 0.0
C459 C 0.45912 0.64461 0.97943 0.0
C460 C 0.40037 0.59941 0.06491 0.0
C461 C 0.48386 0.67253 0.97864 0.0
C462 C 0.29367 0.48949 0.07536 0.0
C463 C 0.32237 0.51283 0.075 0.0
C464 C 0.38532 0.55492 0.99203 0.0
C465 C 0.44887 0.63047 0.02581 0.0
C466 C 0.42052 0.60281 0.02767 0.0
C467 C 0.33539 0.52553 0.02893 0.0
C468 C 0.36506 0.55171 0.02903 0.0
H469 H 0.50051 0.68216 0.10597 0.0
H470 H 0.45757 0.63343 0.10717 0.0
H471 H 0.42802 0.58227 0.9624 0.0
H472 H 0.27873 0.48218 0.94752 0.0
H473 H 0.32871 0.52342 0.94701 0.0
C474 C 0.79574 0.48704 0.0094 0.0
C475 C 0.79407 0.5008 0.05419 0.0
C476 C 0.80196 0.46434 0.0118 0.0
C477 C 0.79593 0.40775 0.09797 0.0
H478 H 0.84307 0.39679 0.99824 0.0
C479 C 0.80903 0.30658 0.10064 0.0
C480 C 0.80367 0.29178 0.05351 0.0
C481 C 0.8138 0.33503 0.10314 0.0
C482 C 0.82983 0.39959 0.02629 0.0
H483 H 0.79864 0.50226 0.13653 0.0
H484 H 0.8097 0.46272 0.14062 0.0
H485 H 0.84021 0.44156 0.99836 0.0
H486 H 0.80068 0.29572 0.97184 0.0
H487 H 0.80858 0.34524 0.97631 0.0
H488 H 0.78488 0.36557 0.12507 0.0
C489 C 0.80578 0.46923 0.10373 0.0
C490 C 0.82817 0.42515 0.02633 0.0
C491 C 0.79951 0.49191 0.10135 0.0
C492 C 0.80465 0.30651 0.00875 0.0
C493 C 0.80937 0.33497 0.01128 0.0
C494 C 0.79761 0.38225 0.09794 0.0
C495 C 0.8067 0.45497 0.05902 0.0
C496 C 0.81081 0.42926 0.06167 0.0
C497 C 0.81327 0.34923 0.05859 0.0
C498 C 0.81419 0.37769 0.06161 0.0
H499 H 0.79171 0.49344 0.97246 0.0
H500 H 0.80214 0.45351 0.97673 0.0
H501 H 0.782 0.41005 0.12515 0.0
H502 H 0.80873 0.29592 0.13579 0.0
H503 H 0.81723 0.34569 0.14007 0.0
C504 C 0.29352 0.79819 0.98445 0.0
C505 C 0.2795 0.79377 0.03113 0.0
C506 C 0.32182 0.80257 0.98272 0.0
C507 C 0.38797 0.82161 0.06128 0.0
H508 H 0.40001 0.77547 0.95915 0.0
C509 C 0.48261 0.79683 0.07182 0.0
C510 C 0.4955 0.79587 0.0261 0.0
C511 C 0.45841 0.80084 0.07123 0.0
C512 C 0.39721 0.78891 0.98733 0.0
H513 H 0.28445 0.79138 0.11276 0.0
H514 H 0.33378 0.79862 0.10959 0.0
H515 H 0.35366 0.77485 0.96031 0.0
H516 H 0.49402 0.79968 0.94411 0.0
H517 H 0.45194 0.80694 0.94322 0.0
H518 H 0.43145 0.83518 0.08886 0.0
C519 C 0.32298 0.79901 0.07443 0.0
C520 C 0.37064 0.78854 0.98801 0.0
C521 C 0.29466 0.79465 0.07619 0.0
C522 C 0.48439 0.80003 0.97996 0.0
C523 C 0.46024 0.80409 0.9794 0.0
C524 C 0.41461 0.82199 0.06059 0.0
C525 C 0.33667 0.80259 0.02759 0.0
C526 C 0.36563 0.80465 0.02526 0.0
C527 C 0.44669 0.80402 0.02493 0.0
C528 C 0.41937 0.80541 0.02389 0.0
H529 H 0.28252 0.7979 0.94909 0.0
H530 H 0.33201 0.8057 0.94616 0.0
H531 H 0.38481 0.83452 0.09005 0.0
H532 H 0.49073 0.79375 0.108 0.0
H533 H 0.44825 0.80039 0.10689 0.0
C534 C 0.66811 0.49014 0.09214 0.0
C535 C 0.68216 0.50303 0.04685 0.0
C536 C 0.6392 0.46703 0.09072 0.0
C537 C 0.58785 0.40816 1.00437 0.0
H538 H 0.53112 0.39572 0.10707 0.0
C539 C 0.47503 0.30461 0.99974 0.0
C540 C 0.46645 0.29007 0.04614 0.0
C541 C 0.4983 0.33331 0.99844 0.0
C542 C 0.54679 0.39892 0.07821 0.0
H543 H 0.67648 0.50302 0.96488 0.0
H544 H 0.62599 0.46298 0.96256 0.0
H545 H 0.57791 0.44168 0.10738 0.0
H546 H 0.47458 0.29463 0.12783 0.0
H547 H 0.51557 0.34458 0.12541 0.0
H548 H 0.5573 0.36528 0.97593 0.0
C549 C 0.63748 0.47029 0.99902 0.0
C550 C 0.57352 0.42517 0.0784 0.0
C551 C 0.66638 0.49326 1.00039 0.0
C552 C 0.48075 0.30522 0.09145 0.0
C553 C 0.5041 0.33392 0.09012 0.0
C554 C 0.5612 0.382 1.00417 0.0
C555 C 0.6238 0.45651 0.04402 0.0
C556 C 0.59446 0.42988 0.04183 0.0
C557 C 0.51351 0.34801 0.04348 0.0
C558 C 0.54054 0.37693 0.04143 0.0
H559 H 0.6797 0.49726 0.12854 0.0
H560 H 0.62933 0.45667 0.126 0.0
H561 H 0.60373 0.41087 0.97626 0.0
H562 H 0.46421 0.29362 0.96421 0.0
H563 H 0.50477 0.3438 0.96202 0.0
C564 C 0.21398 0.42333 0.7238 0.0
C565 C 0.18818 0.40442 0.74912 0.0
C566 C 0.21423 0.42399 0.6707 0.0
C567 C 0.16539 0.40563 0.55738 0.0
H568 H 0.23169 0.41125 0.48621 0.0
C569 C 0.16501 0.39331 0.33883 0.0
C570 C 0.1909 0.41239 0.31389 0.0
C571 C 0.1646 0.39227 0.39189 0.0
C572 C 0.21316 0.41001 0.50553 0.0
H573 H 0.14253 0.37101 0.73835 0.0
H574 H 0.14296 0.37216 0.64565 0.0
H575 H 0.23108 0.40928 0.57879 0.0
H576 H 0.23654 0.4457 0.32532 0.0
H577 H 0.23581 0.4439 0.41795 0.0
H578 H 0.14748 0.4064 0.48412 0.0
C579 C 0.1629 0.3868 0.66693 0.0
C580 C 0.2128 0.40887 0.5586 0.0
C581 C 0.16265 0.38613 0.72006 0.0
C582 C 0.21635 0.43046 0.34331 0.0
C583 C 0.21593 0.42941 0.39639 0.0
C584 C 0.16575 0.40678 0.50431 0.0
C585 C 0.18868 0.40577 0.64164 0.0
C586 C 0.18893 0.4067 0.58516 0.0
C587 C 0.19006 0.41027 0.42131 0.0
C588 C 0.18965 0.40902 0.47776 0.0
H589 H 0.2339 0.43806 0.74503 0.0
H590 H 0.23433 0.43919 0.65244 0.0
H591 H 0.14687 0.40442 0.57671 0.0
H592 H 0.14515 0.37875 0.3173 0.0
H593 H 0.14442 0.37696 0.40985 0.0
C594 C 0.76532 0.17527 0.73837 0.0
C595 C 0.77551 0.20168 0.76601 0.0
C596 C 0.76571 0.17505 0.68526 0.0
C597 C 0.80077 0.22281 0.57638 0.0
H598 H 0.73442 0.16198 0.49929 0.0
C599 C 0.78794 0.22717 0.35872 0.0
C600 C 0.77748 0.20089 0.33059 0.0
C601 C 0.78795 0.22714 0.41185 0.0
C602 C 0.75327 0.17892 0.52027 0.0
H603 H 0.79367 0.2485 0.75937 0.0
H604 H 0.79434 0.24811 0.66671 0.0
H605 H 0.73391 0.16216 0.59198 0.0
H606 H 0.75931 0.15402 0.33631 0.0
H607 H 0.75932 0.15396 0.42904 0.0
H608 H 0.82012 0.2396 0.50467 0.0
C609 C 0.78647 0.22763 0.68617 0.0
C610 C 0.75297 0.17903 0.57338 0.0
C611 C 0.78608 0.22785 0.73928 0.0
C612 C 0.76709 0.17458 0.35683 0.0
C613 C 0.7671 0.17455 0.40997 0.0
C614 C 0.80107 0.22271 0.52327 0.0
C615 C 0.7763 0.20123 0.65854 0.0
C616 C 0.7767 0.201 0.60206 0.0
C617 C 0.77749 0.20082 0.43809 0.0
C618 C 0.7773 0.20079 0.49458 0.0
H619 H 0.75747 0.15479 0.75782 0.0
H620 H 0.75813 0.1544 0.66515 0.0
H621 H 0.8196 0.23978 0.59736 0.0
H622 H 0.79567 0.24775 0.33967 0.0
H623 H 0.79568 0.2477 0.43235 0.0
C624 C 0.54683 0.75005 0.71591 0.0
C625 C 0.56342 0.7762 0.7443 0.0
C626 C 0.54709 0.75007 0.66279 0.0
C627 C 0.59052 0.79309 0.55475 0.0
H628 H 0.51794 0.74647 0.47745 0.0
C629 C 0.58176 0.8023 0.3372 0.0
C630 C 0.56503 0.77614 0.30889 0.0
C631 C 0.58174 0.8023 0.39033 0.0
C632 C 0.53844 0.75935 0.49847 0.0
H633 H 0.59354 0.82284 0.73909 0.0
H634 H 0.59359 0.82296 0.64637 0.0
H635 H 0.51753 0.74652 0.57013 0.0
H636 H 0.53496 0.7295 0.31429 0.0
H637 H 0.53532 0.72942 0.40699 0.0
H638 H 0.61143 0.80592 0.48306 0.0
C639 C 0.58058 0.80239 0.66522 0.0
C640 C 0.53821 0.75938 0.55159 0.0
C641 C 0.58028 0.80237 0.71834 0.0
C642 C 0.54832 0.74998 0.33495 0.0
C643 C 0.54825 0.74999 0.38808 0.0
C644 C 0.59076 0.79306 0.50162 0.0
C645 C 0.56398 0.77624 0.63683 0.0
C646 C 0.56424 0.77624 0.58035 0.0
C647 C 0.56494 0.77615 0.41638 0.0
C648 C 0.56472 0.77618 0.47287 0.0
H649 H 0.53338 0.72956 0.73471 0.0
H650 H 0.53429 0.72951 0.64207 0.0
H651 H 0.61102 0.80597 0.57578 0.0
H652 H 0.59512 0.82278 0.3183 0.0
H653 H 0.59461 0.82288 0.41099 0.0
C654 C 0.7973 0.5815 0.74041 0.0
C655 C 0.77101 0.56432 0.76578 0.0
C656 C 0.79752 0.58232 0.68731 0.0
C657 C 0.75499 0.54126 0.57232 0.0
H658 H 0.80162 0.61537 0.50614 0.0
C659 C 0.74646 0.55385 0.35594 0.0
C660 C 0.77274 0.57097 0.33051 0.0
C661 C 0.74622 0.55322 0.40903 0.0
C662 C 0.78873 0.59445 0.52402 0.0
H663 H 0.72439 0.5342 0.75515 0.0
H664 H 0.72471 0.53601 0.66254 0.0
H665 H 0.80131 0.61376 0.59878 0.0
H666 H 0.81933 0.60123 0.3411 0.0
H667 H 0.81899 0.59974 0.43374 0.0
H668 H 0.74242 0.52194 0.49759 0.0
C669 C 0.7452 0.54866 0.68371 0.0
C670 C 0.78856 0.59353 0.57712 0.0
C671 C 0.74497 0.54788 0.7368 0.0
C672 C 0.79876 0.58758 0.35947 0.0
C673 C 0.79851 0.58698 0.41259 0.0
C674 C 0.75516 0.54218 0.51924 0.0
C675 C 0.77147 0.56594 0.65834 0.0
C676 C 0.77169 0.56692 0.60188 0.0
C677 C 0.77225 0.56972 0.43799 0.0
C678 C 0.77203 0.56879 0.49446 0.0
H679 H 0.81769 0.59467 0.76159 0.0
H680 H 0.81817 0.59561 0.66894 0.0
H681 H 0.74211 0.52034 0.5902 0.0
H682 H 0.72608 0.54055 0.33479 0.0
H683 H 0.72557 0.53995 0.42742 0.0
C684 C 0.18328 0.74807 0.34307 0.0
C685 C 0.19348 0.77412 0.31608 0.0
C686 C 0.1829 0.74844 0.39618 0.0
C687 C 0.18322 0.79271 0.50606 0.0
H688 H 0.20698 0.74522 0.58223 0.0
C689 C 0.20002 0.80274 0.72467 0.0
C690 C 0.18978 0.77663 0.75147 0.0
C691 C 0.20032 0.80248 0.67154 0.0
C692 C 0.19997 0.75836 0.5615 0.0
H693 H 0.21101 0.82095 0.32386 0.0
H694 H 0.21086 0.82166 0.41654 0.0
H695 H 0.20794 0.7447 0.48959 0.0
H696 H 0.17201 0.72978 0.74337 0.0
H697 H 0.17205 0.72925 0.65069 0.0
H698 H 0.17527 0.80637 0.57801 0.0
C699 C 0.2029 0.8009 0.39659 0.0
C700 C 0.20051 0.75806 0.50841 0.0
C701 C 0.20332 0.80054 0.34348 0.0
C702 C 0.17976 0.75024 0.72389 0.0
C703 C 0.1801 0.74998 0.67079 0.0
C704 C 0.18268 0.79301 0.55917 0.0
C705 C 0.19266 0.77485 0.42357 0.0
C706 C 0.19213 0.77522 0.48005 0.0
C707 C 0.19044 0.7761 0.64398 0.0
C708 C 0.19103 0.77582 0.58751 0.0
H709 H 0.17581 0.72739 0.32315 0.0
H710 H 0.17461 0.72795 0.41578 0.0
H711 H 0.1762 0.80584 0.48533 0.0
H712 H 0.20763 0.82341 0.74475 0.0
H713 H 0.20866 0.82301 0.65206 0.0
C714 C 0.41742 0.22512 0.73891 0.0
C715 C 0.40076 0.1988 0.76459 0.0
C716 C 0.4178 0.22535 0.68582 0.0
C717 C 0.3761 0.18264 0.57149 0.0
H718 H 0.44952 0.23024 0.50415 0.0
C719 C 0.38762 0.17489 0.35479 0.0
C720 C 0.40445 0.20125 0.32929 0.0
C721 C 0.38711 0.17456 0.40788 0.0
C722 C 0.42879 0.21709 0.52237 0.0
H723 H 0.37115 0.15211 0.7545 0.0
H724 H 0.37218 0.15244 0.66181 0.0
H725 H 0.44871 0.22967 0.5968 0.0
H726 H 0.43414 0.2479 0.33969 0.0
H727 H 0.43284 0.24741 0.43233 0.0
H728 H 0.35618 0.17007 0.49704 0.0
C729 C 0.38476 0.17295 0.68278 0.0
C730 C 0.42832 0.21676 0.57547 0.0
C731 C 0.38443 0.17271 0.73591 0.0
C732 C 0.42074 0.22727 0.35814 0.0
C733 C 0.42026 0.22694 0.41124 0.0
C734 C 0.37657 0.18298 0.51838 0.0
C735 C 0.40149 0.19927 0.65712 0.0
C736 C 0.40197 0.19954 0.60065 0.0
C737 C 0.40343 0.20058 0.43673 0.0
C738 C 0.40292 0.20022 0.4932 0.0
H739 H 0.43049 0.24556 0.75987 0.0
H740 H 0.43066 0.24604 0.66722 0.0
H741 H 0.35537 0.16949 0.58973 0.0
H742 H 0.37457 0.1545 0.3337 0.0
H743 H 0.37415 0.15385 0.42635 0.0
loop_
_geom_bond_atom_site_label_1
_geom_bond_atom_site_label_2
_geom_bond_distance
_geom_bond_site_symmetry_2
_ccdc_geom_bond_type
C0 O16 1.251 . S
C0 O18 1.254 1_554 S
N1 C2 1.333 . S
N1 C6 1.307 . S
N1 Zn7 2.020 . S
C2 N1 1.333 . S
C2 C3 1.379 . S
C2 H20 0.952 . S
C3 C2 1.379 . S
C3 C4 1.390 . S
C3 H30 0.949 . S
C4 C3 1.390 . S
C4 C5 1.357 . S
C5 C4 1.357 . S
C5 C6 1.370 . S
C5 H31 0.950 . S
C6 N1 1.307 . S
C6 C5 1.370 . S
C6 H24 0.948 . S
Zn7 N1 2.020 . S
Zn7 O16 2.039 . S
Zn7 O22 2.034 . S
Zn7 O26 2.025 . S
Zn7 O28 2.024 . S
C8 O27 1.246 1_554 S
C8 O28 1.249 . S
N9 C10 1.307 . S
N9 C11 1.333 . S
N9 Zn15 2.020 . S
C10 N9 1.307 . S
C10 C14 1.370 . S
C10 H21 0.948 . S
C11 N9 1.333 . S
C11 C12 1.379 . S
C11 H19 0.952 . S
C12 C11 1.379 . S
C12 C13 1.390 . S
C12 H32 0.949 . S
C13 C12 1.390 . S
C13 C14 1.357 . S
C14 C10 1.370 . S
C14 C13 1.357 . S
C14 H33 0.950 . S
Zn15 N9 2.020 . S
Zn15 O18 2.025 . S
Zn15 O23 2.024 . S
Zn15 O25 2.039 . S
Zn15 O27 2.034 . S
O16 C0 1.251 . S
O16 Zn7 2.039 . S
C17 O22 1.246 . S
C17 O23 1.249 1_554 S
O18 C0 1.254 1_556 S
O18 Zn15 2.025 . S
H19 C11 0.952 . S
H20 C2 0.952 . S
H21 C10 0.948 . S
O22 Zn7 2.034 . S
O22 C17 1.246 . S
O23 Zn15 2.024 . S
O23 C17 1.249 1_556 S
H24 C6 0.948 . S
O25 Zn15 2.039 . S
O25 C29 1.251 1_556 S
O26 Zn7 2.025 . S
O26 C29 1.254 . S
O27 C8 1.246 1_556 S
O27 Zn15 2.034 . S
O28 Zn7 2.024 . S
O28 C8 1.249 . S
C29 O25 1.251 1_554 S
C29 O26 1.254 . S
H30 C3 0.949 . S
H31 C5 0.950 . S
H32 C12 0.949 . S
H33 C14 0.950 . S
C34 O50 1.251 1_554 S
C34 O52 1.254 . S
N35 C36 1.333 . S
N35 C40 1.307 . S
N35 Zn41 2.020 . S
C36 N35 1.333 . S
C36 C37 1.379 . S
C36 H54 0.952 . S
C37 C36 1.379 . S
C37 C38 1.390 . S
C37 H64 0.949 . S
C38 C37 1.390 . S
C38 C39 1.357 . S
C39 C38 1.357 . S
C39 C40 1.370 . S
C39 H65 0.950 . S
C40 N35 1.307 . S
C40 C39 1.370 . S
C40 H58 0.948 . S
Zn41 N35 2.020 . S
Zn41 O50 2.039 . S
Zn41 O56 2.034 . S
Zn41 O60 2.025 . S
Zn41 O62 2.024 . S
C42 O61 1.246 . S
C42 O62 1.249 1_554 S
N43 C44 1.307 . S
N43 C45 1.333 . S
N43 Zn49 2.020 . S
C44 N43 1.307 . S
C44 C48 1.370 . S
C44 H55 0.948 . S
C45 N43 1.333 . S
C45 C46 1.379 . S
C45 H53 0.952 . S
C46 C45 1.379 . S
C46 C47 1.390 . S
C46 H66 0.949 . S
C47 C46 1.390 . S
C47 C48 1.357 . S
C48 C44 1.370 . S
C48 C47 1.357 . S
C48 H67 0.950 . S
Zn49 N43 2.020 . S
Zn49 O52 2.025 . S
Zn49 O57 2.024 . S
Zn49 O59 2.039 . S
Zn49 O61 2.034 . S
O50 C34 1.251 1_556 S
O50 Zn41 2.039 . S
C51 O56 1.246 1_554 S
C51 O57 1.249 . S
O52 C34 1.254 . S
O52 Zn49 2.025 . S
H53 C45 0.952 . S
H54 C36 0.952 . S
H55 C44 0.948 . S
O56 Zn41 2.034 . S
O56 C51 1.246 1_556 S
O57 Zn49 2.024 . S
O57 C51 1.249 . S
H58 C40 0.948 . S
O59 Zn49 2.039 . S
O59 C63 1.251 . S
O60 Zn41 2.025 . S
O60 C63 1.254 1_556 S
O61 C42 1.246 . S
O61 Zn49 2.034 . S
O62 Zn41 2.024 . S
O62 C42 1.249 1_556 S
C63 O59 1.251 . S
C63 O60 1.254 1_554 S
H64 C37 0.949 . S
H65 C39 0.950 . S
H66 C46 0.949 . S
H67 C48 0.950 . S
C68 O84 1.251 . S
C68 O86 1.254 1_554 S
N69 C70 1.333 . S
N69 C74 1.307 . S
N69 Zn75 2.020 . S
C70 N69 1.333 . S
C70 C71 1.379 . S
C70 H88 0.952 . S
C71 C70 1.379 . S
C71 C72 1.390 . S
C71 H98 0.949 . S
C72 C71 1.390 . S
C72 C73 1.357 . S
C73 C72 1.357 . S
C73 C74 1.370 . S
C73 H99 0.950 . S
C74 N69 1.307 . S
C74 C73 1.370 . S
C74 H92 0.948 . S
Zn75 N69 2.020 . S
Zn75 O84 2.039 . S
Zn75 O90 2.034 . S
Zn75 O94 2.025 . S
Zn75 O96 2.024 . S
C76 O95 1.246 1_554 S
C76 O96 1.249 . S
N77 C78 1.307 . S
N77 C79 1.333 . S
N77 Zn83 2.020 . S
C78 N77 1.307 . S
C78 C82 1.370 . S
C78 H89 0.948 . S
C79 N77 1.333 . S
C79 C80 1.379 . S
C79 H87 0.952 . S
C80 C79 1.379 . S
C80 C81 1.390 . S
C80 H100 0.949 . S
C81 C80 1.390 . S
C81 C82 1.357 . S
C82 C78 1.370 . S
C82 C81 1.357 . S
C82 H101 0.950 . S
Zn83 N77 2.020 . S
Zn83 O86 2.025 . S
Zn83 O91 2.024 . S
Zn83 O93 2.039 . S
Zn83 O95 2.034 . S
O84 C68 1.251 . S
O84 Zn75 2.039 . S
C85 O90 1.246 . S
C85 O91 1.249 1_554 S
O86 C68 1.254 1_556 S
O86 Zn83 2.025 . S
H87 C79 0.952 . S
H88 C70 0.952 . S
H89 C78 0.948 . S
O90 Zn75 2.034 . S
O90 C85 1.246 . S
O91 Zn83 2.024 . S
O91 C85 1.249 1_556 S
H92 C74 0.948 . S
O93 Zn83 2.039 . S
O93 C97 1.251 1_556 S
O94 Zn75 2.025 . S
O94 C97 1.254 . S
O95 C76 1.246 1_556 S
O95 Zn83 2.034 . S
O96 Zn75 2.024 . S
O96 C76 1.249 . S
C97 O93 1.251 1_554 S
C97 O94 1.254 . S
H98 C71 0.949 . S
H99 C73 0.950 . S
H100 C80 0.949 . S
H101 C82 0.950 . S
C102 O118 1.251 . S
C102 O120 1.254 . S
N103 C104 1.333 . S
N103 C108 1.307 . S
N103 Zn109 2.020 . S
C104 N103 1.333 . S
C104 C105 1.379 . S
C104 H122 0.952 . S
C105 C104 1.379 . S
C105 C106 1.390 . S
C105 H132 0.949 . S
C106 C105 1.390 . S
C106 C107 1.357 . S
C107 C106 1.357 . S
C107 C108 1.370 . S
C107 H133 0.950 . S
C108 N103 1.307 . S
C108 C107 1.370 . S
C108 H126 0.948 . S
Zn109 N103 2.020 . S
Zn109 O118 2.039 1_556 S
Zn109 O124 2.034 1_556 S
Zn109 O128 2.025 1_556 S
Zn109 O130 2.024 1_556 S
C110 O129 1.246 . S
C110 O130 1.249 . S
N111 C112 1.307 . S
N111 C113 1.333 . S
N111 Zn117 2.020 . S
C112 N111 1.307 . S
C112 C116 1.370 . S
C112 H123 0.948 . S
C113 N111 1.333 . S
C113 C114 1.379 . S
C113 H121 0.952 . S
C114 C113 1.379 . S
C114 C115 1.390 . S
C114 H134 0.949 . S
C115 C114 1.390 . S
C115 C116 1.357 . S
C116 C112 1.370 . S
C116 C115 1.357 . S
C116 H135 0.950 . S
Zn117 N111 2.020 . S
Zn117 O120 2.025 . S
Zn117 O125 2.024 . S
Zn117 O127 2.039 . S
Zn117 O129 2.034 . S
O118 C102 1.251 . S
O118 Zn109 2.039 1_554 S
C119 O124 1.246 . S
C119 O125 1.249 . S
O120 C102 1.254 . S
O120 Zn117 2.025 . S
H121 C113 0.952 . S
H122 C104 0.952 . S
H123 C112 0.948 . S
O124 Zn109 2.034 1_554 S
O124 C119 1.246 . S
O125 Zn117 2.024 . S
O125 C119 1.249 . S
H126 C108 0.948 . S
O127 Zn117 2.039 . S
O127 C131 1.251 . S
O128 Zn109 2.025 1_554 S
O128 C131 1.254 . S
O129 C110 1.246 . S
O129 Zn117 2.034 . S
O130 Zn109 2.024 1_554 S
O130 C110 1.249 . S
C131 O127 1.251 . S
C131 O128 1.254 . S
H132 C105 0.949 . S
H133 C107 0.950 . S
H134 C114 0.949 . S
H135 C116 0.950 . S
C136 O152 1.251 1_554 S
C136 O154 1.254 . S
N137 C138 1.333 . S
N137 C142 1.307 . S
N137 Zn143 2.020 . S
C138 N137 1.333 . S
C138 C139 1.379 . S
C138 H156 0.952 . S
C139 C138 1.379 . S
C139 C140 1.390 . S
C139 H166 0.949 . S
C140 C139 1.390 . S
C140 C141 1.357 . S
C141 C140 1.357 . S
C141 C142 1.370 . S
C141 H167 0.950 . S
C142 N137 1.307 . S
C142 C141 1.370 . S
C142 H160 0.948 . S
Zn143 N137 2.020 . S
Zn143 O152 2.039 . S
Zn143 O158 2.034 . S
Zn143 O162 2.025 . S
Zn143 O164 2.024 . S
C144 O163 1.246 . S
C144 O164 1.249 1_554 S
N145 C146 1.307 . S
N145 C147 1.333 . S
N145 Zn151 2.020 . S
C146 N145 1.307 . S
C146 C150 1.370 . S
C146 H157 0.948 . S
C147 N145 1.333 . S
C147 C148 1.379 . S
C147 H155 0.952 . S
C148 C147 1.379 . S
C148 C149 1.390 . S
C148 H168 0.949 . S
C149 C148 1.390 . S
C149 C150 1.357 . S
C150 C146 1.370 . S
C150 C149 1.357 . S
C150 H169 0.950 . S
Zn151 N145 2.020 . S
Zn151 O154 2.025 . S
Zn151 O159 2.024 . S
Zn151 O161 2.039 . S
Zn151 O163 2.034 . S
O152 C136 1.251 1_556 S
O152 Zn143 2.039 . S
C153 O158 1.246 1_554 S
C153 O159 1.249 . S
O154 C136 1.254 . S
O154 Zn151 2.025 . S
H155 C147 0.952 . S
H156 C138 0.952 . S
H157 C146 0.948 . S
O158 Zn143 2.034 . S
O158 C153 1.246 1_556 S
O159 Zn151 2.024 . S
O159 C153 1.249 . S
H160 C142 0.948 . S
O161 Zn151 2.039 . S
O161 C165 1.251 . S
O162 Zn143 2.025 . S
O162 C165 1.254 1_556 S
O163 C144 1.246 . S
O163 Zn151 2.034 . S
O164 Zn143 2.024 . S
O164 C144 1.249 1_556 S
C165 O161 1.251 . S
C165 O162 1.254 1_554 S
H166 C139 0.949 . S
H167 C141 0.950 . S
H168 C148 0.949 . S
H169 C150 0.950 . S
C170 O186 1.251 . S
C170 O188 1.254 1_554 S
N171 C172 1.333 . S
N171 C176 1.307 . S
N171 Zn177 2.020 . S
C172 N171 1.333 . S
C172 C173 1.379 . S
C172 H190 0.952 . S
C173 C172 1.379 . S
C173 C174 1.390 . S
C173 H200 0.949 . S
C174 C173 1.390 . S
C174 C175 1.357 . S
C175 C174 1.357 . S
C175 C176 1.370 . S
C175 H201 0.950 . S
C176 N171 1.307 . S
C176 C175 1.370 . S
C176 H194 0.948 . S
Zn177 N171 2.020 . S
Zn177 O186 2.039 . S
Zn177 O192 2.034 . S
Zn177 O196 2.025 . S
Zn177 O198 2.024 . S
C178 O197 1.246 1_554 S
C178 O198 1.249 . S
N179 C180 1.307 . S
N179 C181 1.333 . S
N179 Zn185 2.020 . S
C180 N179 1.307 . S
C180 C184 1.370 . S
C180 H191 0.948 . S
C181 N179 1.333 . S
C181 C182 1.379 . S
C181 H189 0.952 . S
C182 C181 1.379 . S
C182 C183 1.390 . S
C182 H202 0.949 . S
C183 C182 1.390 . S
C183 C184 1.357 . S
C184 C180 1.370 . S
C184 C183 1.357 . S
C184 H203 0.950 . S
Zn185 N179 2.020 . S
Zn185 O188 2.025 . S
Zn185 O193 2.024 . S
Zn185 O195 2.039 . S
Zn185 O197 2.034 . S
O186 C170 1.251 . S
O186 Zn177 2.039 . S
C187 O192 1.246 . S
C187 O193 1.249 1_554 S
O188 C170 1.254 1_556 S
O188 Zn185 2.025 . S
H189 C181 0.952 . S
H190 C172 0.952 . S
H191 C180 0.948 . S
O192 Zn177 2.034 . S
O192 C187 1.246 . S
O193 Zn185 2.024 . S
O193 C187 1.249 1_556 S
H194 C176 0.948 . S
O195 Zn185 2.039 . S
O195 C199 1.251 1_556 S
O196 Zn177 2.025 . S
O196 C199 1.254 . S
O197 C178 1.246 1_556 S
O197 Zn185 2.034 . S
O198 Zn177 2.024 . S
O198 C178 1.249 . S
C199 O195 1.251 1_554 S
C199 O196 1.254 . S
H200 C173 0.949 . S
H201 C175 0.950 . S
H202 C182 0.949 . S
H203 C184 0.950 . S
C204 C205 1.349 . S
C204 C206 1.327 . S
C204 H229 0.950 . S
C205 C204 1.349 . S
C205 C221 1.349 1_554 S
C206 C204 1.327 . S
C206 C225 1.429 . S
C206 H230 0.950 . S
C207 C224 1.574 . S
C207 C226 1.368 1_556 S
C207 H231 0.949 . S
H208 C212 0.949 . S
C209 C210 1.349 1_556 S
C209 C211 1.327 . S
C209 H232 0.950 . S
C210 C209 1.349 1_554 S
C210 C222 1.349 . S
C211 C209 1.327 . S
C211 C227 1.429 1_556 S
C211 H233 0.950 . S
C212 H208 0.949 . S
C212 C220 1.574 . S
C212 C228 1.368 . S
H213 C221 0.950 . S
H214 C219 0.950 . S
H215 C220 0.949 . S
H216 C222 0.950 . S
H217 C223 0.950 . S
H218 C224 0.949 . S
C219 H214 0.950 . S
C219 C221 1.327 . S
C219 C225 1.429 1_556 S
C220 C212 1.574 . S
C220 H215 0.949 . S
C220 C226 1.368 . S
C221 C205 1.349 1_556 S
C221 H213 0.950 . S
C221 C219 1.327 . S
C222 C210 1.349 . S
C222 H216 0.950 . S
C222 C223 1.327 . S
C223 H217 0.950 . S
C223 C222 1.327 . S
C223 C227 1.429 . S
C224 C207 1.574 . S
C224 H218 0.949 . S
C224 C228 1.368 1_556 S
C225 C206 1.429 . S
C225 C219 1.429 1_554 S
C225 C226 1.523 . S
C226 C207 1.368 1_554 S
C226 C220 1.368 . S
C226 C225 1.523 . S
C227 C211 1.429 1_554 S
C227 C223 1.429 . S
C227 C228 1.523 . S
C228 C212 1.368 . S
C228 C224 1.368 1_554 S
C228 C227 1.523 . S
H229 C204 0.950 . S
H230 C206 0.950 . S
H231 C207 0.949 . S
H232 C209 0.950 . S
H233 C211 0.950 . S
C234 C235 1.349 . S
C234 C236 1.327 . S
C234 H259 0.950 . S
C235 C234 1.349 . S
C235 C251 1.349 1_554 S
C236 C234 1.327 . S
C236 C255 1.429 . S
C236 H260 0.950 . S
C237 C254 1.574 1_455 S
C237 C256 1.368 1_556 S
C237 H261 0.949 . S
H238 C242 0.949 . S
C239 C240 1.349 1_556 S
C239 C241 1.327 . S
C239 H262 0.950 . S
C240 C239 1.349 1_554 S
C240 C252 1.349 . S
C241 C239 1.327 . S
C241 C257 1.429 1_556 S
C241 H263 0.950 . S
C242 H238 0.949 . S
C242 C250 1.574 1_655 S
C242 C258 1.368 . S
H243 C251 0.950 . S
H244 C249 0.950 . S
H245 C250 0.949 . S
H246 C252 0.950 . S
H247 C253 0.950 . S
H248 C254 0.949 . S
C249 H244 0.950 . S
C249 C251 1.327 . S
C249 C255 1.429 1_556 S
C250 C242 1.574 1_455 S
C250 H245 0.949 . S
C250 C256 1.368 . S
C251 C235 1.349 1_556 S
C251 H243 0.950 . S
C251 C249 1.327 . S
C252 C240 1.349 . S
C252 H246 0.950 . S
C252 C253 1.327 . S
C253 H247 0.950 . S
C253 C252 1.327 . S
C253 C257 1.429 . S
C254 C237 1.574 1_655 S
C254 H248 0.949 . S
C254 C258 1.368 1_556 S
C255 C236 1.429 . S
C255 C249 1.429 1_554 S
C255 C256 1.523 . S
C256 C237 1.368 1_554 S
C256 C250 1.368 . S
C256 C255 1.523 . S
C257 C241 1.429 1_554 S
C257 C253 1.429 . S
C257 C258 1.523 . S
C258 C242 1.368 . S
C258 C254 1.368 1_554 S
C258 C257 1.523 . S
H259 C234 0.950 . S
H260 C236 0.950 . S
H261 C237 0.949 . S
H262 C239 0.950 . S
H263 C241 0.950 . S
C264 C265 1.349 . S
C264 C266 1.327 . S
C264 H289 0.950 . S
C265 C264 1.349 . S
C265 C281 1.335 1_554 S
C266 C264 1.327 . S
C266 C285 1.429 . S
C266 H290 0.950 . S
C267 C284 1.574 1_545 S
C267 C286 1.368 1_556 S
C267 H291 0.949 . S
H268 C272 0.949 . S
C269 C270 1.349 1_556 S
C269 C271 1.327 . S
C269 H292 0.950 . S
C270 C269 1.349 1_554 S
C270 C282 1.349 . S
C271 C269 1.327 . S
C271 C287 1.429 1_556 S
C271 H293 0.950 . S
C272 H268 0.949 . S
C272 C280 1.574 1_565 S
C272 C288 1.368 . S
H273 C281 0.963 . S
H274 C279 0.950 . S
H275 C280 0.949 . S
H276 C282 0.950 . S
H277 C283 0.950 . S
H278 C284 0.949 . S
C279 H274 0.950 . S
C279 C281 1.328 . S
C279 C285 1.429 1_556 S
C280 C272 1.574 1_545 S
C280 H275 0.949 . S
C280 C286 1.368 . S
C281 C265 1.335 1_556 S
C281 H273 0.963 . S
C281 C279 1.328 . S
C282 C270 1.349 . S
C282 H276 0.950 . S
C282 C283 1.327 . S
C283 H277 0.950 . S
C283 C282 1.327 . S
C283 C287 1.429 . S
C284 C267 1.574 1_565 S
C284 H278 0.949 . S
C284 C288 1.368 1_556 S
C285 C266 1.429 . S
C285 C279 1.429 1_554 S
C285 C286 1.523 . S
C286 C267 1.368 1_554 S
C286 C280 1.368 . S
C286 C285 1.523 . S
C287 C271 1.429 1_554 S
C287 C283 1.429 . S
C287 C288 1.523 . S
C288 C272 1.368 . S
C288 C284 1.368 1_554 S
C288 C287 1.523 . S
H289 C264 0.950 . S
H290 C266 0.950 . S
H291 C267 0.949 . S
H292 C269 0.950 . S
H293 C271 0.950 . S
C294 C295 1.349 . S
C294 C296 1.327 . S
C294 H319 0.950 . S
C295 C294 1.349 . S
C295 C311 1.349 . S
C296 C294 1.327 . S
C296 C315 1.429 . S
C296 H320 0.950 . S
C297 C314 1.574 . S
C297 C316 1.368 1_556 S
C297 H321 0.949 . S
H298 C302 0.949 . S
C299 C300 1.349 1_556 S
C299 C301 1.327 . S
C299 H322 0.950 . S
C300 C299 1.349 1_554 S
C300 C312 1.349 . S
C301 C299 1.327 . S
C301 C317 1.429 1_556 S
C301 H323 0.950 . S
C302 H298 0.949 . S
C302 C310 1.574 . S
C302 C318 1.368 . S
H303 C311 0.950 1_556 S
H304 C309 0.950 1_556 S
H305 C310 0.949 . S
H306 C312 0.950 . S
H307 C313 0.950 . S
H308 C314 0.949 . S
C309 H304 0.950 1_554 S
C309 C311 1.327 . S
C309 C315 1.429 . S
C310 C302 1.574 . S
C310 H305 0.949 . S
C310 C316 1.368 . S
C311 C295 1.349 . S
C311 H303 0.950 1_554 S
C311 C309 1.327 . S
C312 C300 1.349 . S
C312 H306 0.950 . S
C312 C313 1.327 . S
C313 H307 0.950 . S
C313 C312 1.327 . S
C313 C317 1.429 . S
C314 C297 1.574 . S
C314 H308 0.949 . S
C314 C318 1.368 1_556 S
C315 C296 1.429 . S
C315 C309 1.429 . S
C315 C316 1.523 . S
C316 C297 1.368 1_554 S
C316 C310 1.368 . S
C316 C315 1.523 . S
C317 C301 1.429 1_554 S
C317 C313 1.429 . S
C317 C318 1.523 . S
C318 C302 1.368 . S
C318 C314 1.368 1_554 S
C318 C317 1.523 . S
H319 C294 0.950 . S
H320 C296 0.950 . S
H321 C297 0.949 . S
H322 C299 0.950 . S
H323 C301 0.950 . S
C324 C325 1.349 . S
C324 C326 1.327 . S
C324 H349 0.950 . S
C325 C324 1.349 . S
C325 C341 1.349 1_554 S
C326 C324 1.327 . S
C326 C345 1.429 . S
C326 H350 0.950 . S
C327 C344 1.573 1_456 S
C327 C346 1.368 1_556 S
C327 H351 0.949 . S
H328 C332 0.949 . S
C329 C330 1.349 . S
C329 C331 1.327 . S
C329 H352 0.950 1_554 S
C330 C329 1.349 . S
C330 C342 1.349 . S
C331 C329 1.327 . S
C331 C347 1.429 . S
C331 H353 0.950 1_554 S
C332 H328 0.949 . S
C332 C340 1.574 1_655 S
C332 C348 1.368 . S
H333 C341 0.950 . S
H334 C339 0.950 . S
H335 C340 0.949 . S
H336 C342 0.950 . S
H337 C343 0.950 . S
H338 C344 0.945 1_556 S
C339 H334 0.950 . S
C339 C341 1.327 . S
C339 C345 1.429 1_556 S
C340 C332 1.574 1_455 S
C340 H335 0.949 . S
C340 C346 1.368 . S
C341 C325 1.349 1_556 S
C341 H333 0.950 . S
C341 C339 1.327 . S
C342 C330 1.349 . S
C342 H336 0.950 . S
C342 C343 1.327 . S
C343 H337 0.950 . S
C343 C342 1.327 . S
C343 C347 1.429 . S
C344 C327 1.573 1_654 S
C344 H338 0.945 1_554 S
C344 C348 1.373 . S
C345 C326 1.429 . S
C345 C339 1.429 1_554 S
C345 C346 1.523 . S
C346 C327 1.368 1_554 S
C346 C340 1.368 . S
C346 C345 1.523 . S
C347 C331 1.429 . S
C347 C343 1.429 . S
C347 C348 1.523 . S
C348 C332 1.368 . S
C348 C344 1.373 . S
C348 C347 1.523 . S
H349 C324 0.950 . S
H350 C326 0.950 . S
H351 C327 0.949 . S
H352 C329 0.950 1_556 S
H353 C331 0.950 1_556 S
C354 C355 1.349 1_556 S
C354 C356 1.327 . S
C354 H379 0.950 . S
C355 C354 1.349 1_554 S
C355 C371 1.349 . S
C356 C354 1.327 . S
C356 C375 1.429 1_556 S
C356 H380 0.950 . S
C357 C374 1.574 1_565 S
C357 C376 1.368 . S
C357 H381 0.949 . S
H358 C362 0.949 . S
C359 C360 1.349 . S
C359 C361 1.327 . S
C359 H382 0.950 . S
C360 C359 1.349 . S
C360 C372 1.349 1_554 S
C361 C359 1.327 . S
C361 C377 1.429 . S
C361 H383 0.950 . S
C362 H358 0.949 . S
C362 C370 1.574 1_545 S
C362 C378 1.368 1_556 S
H363 C371 0.950 . S
H364 C369 0.950 . S
H365 C370 0.949 . S
H366 C372 0.950 . S
H367 C373 0.950 . S
H368 C374 0.949 . S
C369 H364 0.950 . S
C369 C371 1.327 . S
C369 C375 1.429 . S
C370 C362 1.574 1_565 S
C370 H365 0.949 . S
C370 C376 1.368 1_556 S
C371 C355 1.349 . S
C371 H363 0.950 . S
C371 C369 1.327 . S
C372 C360 1.349 1_556 S
C372 H366 0.950 . S
C372 C373 1.327 . S
C373 H367 0.950 . S
C373 C372 1.327 . S
C373 C377 1.429 1_556 S
C374 C357 1.574 1_545 S
C374 H368 0.949 . S
C374 C378 1.368 . S
C375 C356 1.429 1_554 S
C375 C369 1.429 . S
C375 C376 1.523 . S
C376 C357 1.368 . S
C376 C370 1.368 1_554 S
C376 C375 1.523 . S
C377 C361 1.429 . S
C377 C373 1.429 1_554 S
C377 C378 1.523 . S
C378 C362 1.368 1_554 S
C378 C374 1.368 . S
C378 C377 1.523 . S
H379 C354 0.950 . S
H380 C356 0.950 . S
H381 C357 0.949 . S
H382 C359 0.950 . S
H383 C361 0.950 . S
C384 C385 1.349 . S
C384 C386 1.327 . S
C384 H409 0.950 . S
C385 C384 1.349 . S
C385 C401 1.349 1_554 S
C386 C384 1.327 . S
C386 C405 1.429 . S
C386 H410 0.950 . S
C387 C404 1.574 . S
C387 C406 1.368 1_556 S
C387 H411 0.949 . S
H388 C392 0.949 . S
C389 C390 1.349 1_556 S
C389 C391 1.327 . S
C389 H412 0.950 . S
C390 C389 1.349 1_554 S
C390 C402 1.349 . S
C391 C389 1.327 . S
C391 C407 1.429 1_556 S
C391 H413 0.950 . S
C392 H388 0.949 . S
C392 C400 1.574 . S
C392 C408 1.368 . S
H393 C401 0.950 . S
H394 C399 0.950 . S
H395 C400 0.949 . S
H396 C402 0.950 . S
H397 C403 0.950 . S
H398 C404 0.949 . S
C399 H394 0.950 . S
C399 C401 1.327 . S
C399 C405 1.429 1_556 S
C400 C392 1.574 . S
C400 H395 0.949 . S
C400 C406 1.368 . S
C401 C385 1.349 1_556 S
C401 H393 0.950 . S
C401 C399 1.327 . S
C402 C390 1.349 . S
C402 H396 0.950 . S
C402 C403 1.327 . S
C403 H397 0.950 . S
C403 C402 1.327 . S
C403 C407 1.429 . S
C404 C387 1.574 . S
C404 H398 0.949 . S
C404 C408 1.368 1_556 S
C405 C386 1.429 . S
C405 C399 1.429 1_554 S
C405 C406 1.523 . S
C406 C387 1.368 1_554 S
C406 C400 1.368 . S
C406 C405 1.523 . S
C407 C391 1.429 1_554 S
C407 C403 1.429 . S
C407 C408 1.523 . S
C408 C392 1.368 . S
C408 C404 1.368 1_554 S
C408 C407 1.523 . S
H409 C384 0.950 . S
H410 C386 0.950 . S
H411 C387 0.949 . S
H412 C389 0.950 . S
H413 C391 0.950 . S
C414 C415 1.353 . S
C414 C416 1.327 . S
C414 H439 0.946 1_554 S
C415 C414 1.353 . S
C415 C431 1.349 . S
C416 C414 1.327 . S
C416 C435 1.439 . S
C416 H440 0.939 1_554 S
C417 C434 1.574 . S
C417 C436 1.368 . S
C417 H441 0.949 . S
H418 C422 0.949 1_556 S
C419 C420 1.349 . S
C419 C421 1.327 . S
C419 H442 0.950 . S
C420 C419 1.349 . S
C420 C432 1.349 . S
C421 C419 1.327 . S
C421 C437 1.429 . S
C421 H443 0.950 . S
C422 H418 0.949 1_554 S
C422 C430 1.574 . S
C422 C438 1.368 . S
H423 C431 0.950 . S
H424 C429 0.950 . S
H425 C430 0.949 1_556 S
H426 C432 0.950 1_556 S
H427 C433 0.950 1_556 S
H428 C434 0.949 . S
C429 H424 0.950 . S
C429 C431 1.327 . S
C429 C435 1.429 . S
C430 C422 1.574 . S
C430 H425 0.949 1_554 S
C430 C436 1.368 . S
C431 C415 1.349 . S
C431 H423 0.950 . S
C431 C429 1.327 . S
C432 C420 1.349 . S
C432 H426 0.950 1_554 S
C432 C433 1.327 . S
C433 H427 0.950 1_554 S
C433 C432 1.327 . S
C433 C437 1.429 . S
C434 C417 1.574 . S
C434 H428 0.949 . S
C434 C438 1.368 . S
C435 C416 1.439 . S
C435 C429 1.429 . S
C435 C436 1.523 . S
C436 C417 1.368 . S
C436 C430 1.368 . S
C436 C435 1.523 . S
C437 C421 1.429 . S
C437 C433 1.429 . S
C437 C438 1.523 . S
C438 C422 1.368 . S
C438 C434 1.368 . S
C438 C437 1.523 . S
H439 C414 0.946 1_556 S
H440 C416 0.939 1_556 S
H441 C417 0.949 . S
H442 C419 0.950 . S
H443 C421 0.950 . S
C444 C445 1.349 . S
C444 C446 1.327 . S
C444 H469 0.950 . S
C445 C444 1.349 . S
C445 C461 1.349 1_554 S
C446 C444 1.327 . S
C446 C465 1.429 . S
C446 H470 0.950 . S
C447 C464 1.574 . S
C447 C466 1.368 1_556 S
C447 H471 0.949 . S
H448 C452 0.949 . S
C449 C450 1.349 1_556 S
C449 C451 1.327 . S
C449 H472 0.950 . S
C450 C449 1.349 1_554 S
C450 C462 1.349 . S
C451 C449 1.327 . S
C451 C467 1.429 1_556 S
C451 H473 0.950 . S
C452 H448 0.949 . S
C452 C460 1.574 . S
C452 C468 1.368 . S
H453 C461 0.950 . S
H454 C459 0.950 . S
H455 C460 0.949 . S
H456 C462 0.950 . S
H457 C463 0.950 . S
H458 C464 0.949 . S
C459 H454 0.950 . S
C459 C461 1.327 . S
C459 C465 1.429 1_556 S
C460 C452 1.574 . S
C460 H455 0.949 . S
C460 C466 1.368 . S
C461 C445 1.349 1_556 S
C461 H453 0.950 . S
C461 C459 1.327 . S
C462 C450 1.349 . S
C462 H456 0.950 . S
C462 C463 1.327 . S
C463 H457 0.950 . S
C463 C462 1.327 . S
C463 C467 1.429 . S
C464 C447 1.574 . S
C464 H458 0.949 . S
C464 C468 1.368 1_556 S
C465 C446 1.429 . S
C465 C459 1.429 1_554 S
C465 C466 1.523 . S
C466 C447 1.368 1_554 S
C466 C460 1.368 . S
C466 C465 1.523 . S
C467 C451 1.429 1_554 S
C467 C463 1.429 . S
C467 C468 1.523 . S
C468 C452 1.368 . S
C468 C464 1.368 1_554 S
C468 C467 1.523 . S
H469 C444 0.950 . S
H470 C446 0.950 . S
H471 C447 0.949 . S
H472 C449 0.950 . S
H473 C451 0.950 . S
C474 C475 1.349 . S
C474 C476 1.327 . S
C474 H499 0.950 1_554 S
C475 C474 1.349 . S
C475 C491 1.349 . S
C476 C474 1.327 . S
C476 C495 1.429 . S
C476 H500 0.950 1_554 S
C477 C494 1.574 . S
C477 C496 1.368 . S
C477 H501 0.949 . S
H478 C482 0.949 1_556 S
C479 C480 1.349 . S
C479 C481 1.327 . S
C479 H502 0.950 . S
C480 C479 1.349 . S
C480 C492 1.349 . S
C481 C479 1.327 . S
C481 C497 1.429 . S
C481 H503 0.950 . S
C482 H478 0.949 1_554 S
C482 C490 1.574 . S
C482 C498 1.368 . S
H483 C491 0.950 . S
H484 C489 0.950 . S
H485 C490 0.949 1_556 S
H486 C492 0.950 1_556 S
H487 C493 0.950 1_556 S
H488 C494 0.949 . S
C489 H484 0.950 . S
C489 C491 1.327 . S
C489 C495 1.429 . S
C490 C482 1.574 . S
C490 H485 0.949 1_554 S
C490 C496 1.368 . S
C491 C475 1.349 . S
C491 H483 0.950 . S
C491 C489 1.327 . S
C492 C480 1.349 . S
C492 H486 0.950 1_554 S
C492 C493 1.327 . S
C493 H487 0.950 1_554 S
C493 C492 1.327 . S
C493 C497 1.429 . S
C494 C477 1.574 . S
C494 H488 0.949 . S
C494 C498 1.368 . S
C495 C476 1.429 . S
C495 C489 1.429 . S
C495 C496 1.523 . S
C496 C477 1.368 . S
C496 C490 1.368 . S
C496 C495 1.523 . S
C497 C481 1.429 . S
C497 C493 1.429 . S
C497 C498 1.523 . S
C498 C482 1.368 . S
C498 C494 1.368 . S
C498 C497 1.523 . S
H499 C474 0.950 1_556 S
H500 C476 0.950 1_556 S
H501 C477 0.949 . S
H502 C479 0.950 . S
H503 C481 0.950 . S
C504 C505 1.349 1_556 S
C504 C506 1.327 . S
C504 H529 0.950 . S
C505 C504 1.349 1_554 S
C505 C521 1.349 . S
C506 C504 1.327 . S
C506 C525 1.429 1_556 S
C506 H530 0.950 . S
C507 C524 1.574 . S
C507 C526 1.368 . S
C507 H531 0.949 . S
H508 C512 0.949 . S
C509 C510 1.349 . S
C509 C511 1.327 . S
C509 H532 0.950 . S
C510 C509 1.349 . S
C510 C522 1.349 1_554 S
C511 C509 1.327 . S
C511 C527 1.429 . S
C511 H533 0.950 . S
C512 H508 0.949 . S
C512 C520 1.574 . S
C512 C528 1.368 1_556 S
H513 C521 0.950 . S
H514 C519 0.950 . S
H515 C520 0.949 . S
H516 C522 0.950 . S
H517 C523 0.950 . S
H518 C524 0.949 . S
C519 H514 0.950 . S
C519 C521 1.327 . S
C519 C525 1.429 . S
C520 C512 1.574 . S
C520 H515 0.949 . S
C520 C526 1.368 1_556 S
C521 C505 1.349 . S
C521 H513 0.950 . S
C521 C519 1.327 . S
C522 C510 1.349 1_556 S
C522 H516 0.950 . S
C522 C523 1.327 . S
C523 H517 0.950 . S
C523 C522 1.327 . S
C523 C527 1.429 1_556 S
C524 C507 1.574 . S
C524 H518 0.949 . S
C524 C528 1.368 . S
C525 C506 1.429 1_554 S
C525 C519 1.429 . S
C525 C526 1.523 . S
C526 C507 1.368 . S
C526 C520 1.368 1_554 S
C526 C525 1.523 . S
C527 C511 1.429 . S
C527 C523 1.429 1_554 S
C527 C528 1.523 . S
C528 C512 1.368 1_554 S
C528 C524 1.368 . S
C528 C527 1.523 . S
H529 C504 0.950 . S
H530 C506 0.950 . S
H531 C507 0.949 . S
H532 C509 0.950 . S
H533 C511 0.950 . S
C534 C535 1.349 . S
C534 C536 1.327 . S
C534 H559 0.950 . S
C535 C534 1.349 . S
C535 C551 1.349 . S
C536 C534 1.327 . S
C536 C555 1.429 . S
C536 H560 0.950 . S
C537 C554 1.574 1_554 S
C537 C556 1.372 . S
C537 H561 0.946 1_554 S
H538 C542 0.949 . S
C539 C540 1.356 . S
C539 C541 1.327 . S
C539 H562 0.943 1_554 S
C540 C539 1.356 . S
C540 C552 1.349 . S
C541 C539 1.327 . S
C541 C557 1.429 . S
C541 H563 0.949 1_554 S
C542 H538 0.949 . S
C542 C550 1.574 . S
C542 C558 1.368 . S
H543 C551 0.950 1_556 S
H544 C549 0.950 1_556 S
H545 C550 0.949 . S
H546 C552 0.950 . S
H547 C553 0.950 . S
H548 C554 0.956 . S
C549 H544 0.950 1_554 S
C549 C551 1.327 . S
C549 C555 1.429 . S
C550 C542 1.574 . S
C550 H545 0.949 . S
C550 C556 1.368 . S
C551 C535 1.349 . S
C551 H543 0.950 1_554 S
C551 C549 1.327 . S
C552 C540 1.349 . S
C552 H546 0.950 . S
C552 C553 1.327 . S
C553 H547 0.950 . S
C553 C552 1.327 . S
C553 C557 1.429 . S
C554 C537 1.574 1_556 S
C554 H548 0.956 . S
C554 C558 1.361 1_556 S
C555 C536 1.429 . S
C555 C549 1.429 . S
C555 C556 1.523 . S
C556 C537 1.372 . S
C556 C550 1.368 . S
C556 C555 1.523 . S
C557 C541 1.429 . S
C557 C553 1.429 . S
C557 C558 1.523 . S
C558 C542 1.368 . S
C558 C554 1.361 1_554 S
C558 C557 1.523 . S
H559 C534 0.950 . S
H560 C536 0.950 . S
H561 C537 0.946 1_556 S
H562 C539 0.943 1_556 S
H563 C541 0.949 1_556 S
C564 C565 1.349 . S
C564 C566 1.327 . S
C564 H589 0.950 . S
C565 C564 1.349 . S
C565 C581 1.349 . S
C566 C564 1.327 . S
C566 C585 1.429 . S
C566 H590 0.950 . S
C567 C584 1.574 . S
C567 C586 1.368 . S
C567 H591 0.949 . S
H568 C572 0.949 . S
C569 C570 1.349 . S
C569 C571 1.327 . S
C569 H592 0.950 . S
C570 C569 1.349 . S
C570 C582 1.349 . S
C571 C569 1.327 . S
C571 C587 1.429 . S
C571 H593 0.950 . S
C572 H568 0.949 . S
C572 C580 1.574 . S
C572 C588 1.368 . S
H573 C581 0.950 . S
H574 C579 0.950 . S
H575 C580 0.949 . S
H576 C582 0.950 . S
H577 C583 0.950 . S
H578 C584 0.949 . S
C579 H574 0.950 . S
C579 C581 1.327 . S
C579 C585 1.429 . S
C580 C572 1.574 . S
C580 H575 0.949 . S
C580 C586 1.368 . S
C581 C565 1.349 . S
C581 H573 0.950 . S
C581 C579 1.327 . S
C582 C570 1.349 . S
C582 H576 0.950 . S
C582 C583 1.327 . S
C583 H577 0.950 . S
C583 C582 1.327 . S
C583 C587 1.429 . S
C584 C567 1.574 . S
C584 H578 0.949 . S
C584 C588 1.368 . S
C585 C566 1.429 . S
C585 C579 1.429 . S
C585 C586 1.523 . S
C586 C567 1.368 . S
C586 C580 1.368 . S
C586 C585 1.523 . S
C587 C571 1.429 . S
C587 C583 1.429 . S
C587 C588 1.523 . S
C588 C572 1.368 . S
C588 C584 1.368 . S
C588 C587 1.523 . S
H589 C564 0.950 . S
H590 C566 0.950 . S
H591 C567 0.949 . S
H592 C569 0.950 . S
H593 C571 0.950 . S
C594 C595 1.349 . S
C594 C596 1.327 . S
C594 H619 0.950 . S
C595 C594 1.349 . S
C595 C611 1.349 . S
C596 C594 1.327 . S
C596 C615 1.429 . S
C596 H620 0.950 . S
C597 C614 1.574 . S
C597 C616 1.368 . S
C597 H621 0.949 . S
H598 C602 0.949 . S
C599 C600 1.349 . S
C599 C601 1.327 . S
C599 H622 0.950 . S
C600 C599 1.349 . S
C600 C612 1.349 . S
C601 C599 1.327 . S
C601 C617 1.429 . S
C601 H623 0.950 . S
C602 H598 0.949 . S
C602 C610 1.574 . S
C602 C618 1.368 . S
H603 C611 0.950 . S
H604 C609 0.950 . S
H605 C610 0.949 . S
H606 C612 0.950 . S
H607 C613 0.950 . S
H608 C614 0.949 . S
C609 H604 0.950 . S
C609 C611 1.327 . S
C609 C615 1.429 . S
C610 C602 1.574 . S
C610 H605 0.949 . S
C610 C616 1.368 . S
C611 C595 1.349 . S
C611 H603 0.950 . S
C611 C609 1.327 . S
C612 C600 1.349 . S
C612 H606 0.950 . S
C612 C613 1.327 . S
C613 H607 0.950 . S
C613 C612 1.327 . S
C613 C617 1.429 . S
C614 C597 1.574 . S
C614 H608 0.949 . S
C614 C618 1.368 . S
C615 C596 1.429 . S
C615 C609 1.429 . S
C615 C616 1.523 . S
C616 C597 1.368 . S
C616 C610 1.368 . S
C616 C615 1.523 . S
C617 C601 1.429 . S
C617 C613 1.429 . S
C617 C618 1.523 . S
C618 C602 1.368 . S
C618 C614 1.368 . S
C618 C617 1.523 . S
H619 C594 0.950 . S
H620 C596 0.950 . S
H621 C597 0.949 . S
H622 C599 0.950 . S
H623 C601 0.950 . S
C624 C625 1.349 . S
C624 C626 1.327 . S
C624 H649 0.950 . S
C625 C624 1.349 . S
C625 C641 1.349 . S
C626 C624 1.327 . S
C626 C645 1.429 . S
C626 H650 0.950 . S
C627 C644 1.574 . S
C627 C646 1.368 . S
C627 H651 0.949 . S
H628 C632 0.949 . S
C629 C630 1.349 . S
C629 C631 1.327 . S
C629 H652 0.950 . S
C630 C629 1.349 . S
C630 C642 1.349 . S
C631 C629 1.327 . S
C631 C647 1.429 . S
C631 H653 0.950 . S
C632 H628 0.949 . S
C632 C640 1.574 . S
C632 C648 1.368 . S
H633 C641 0.950 . S
H634 C639 0.950 . S
H635 C640 0.949 . S
H636 C642 0.950 . S
H637 C643 0.950 . S
H638 C644 0.949 . S
C639 H634 0.950 . S
C639 C641 1.327 . S
C639 C645 1.429 . S
C640 C632 1.574 . S
C640 H635 0.949 . S
C640 C646 1.368 . S
C641 C625 1.349 . S
C641 H633 0.950 . S
C641 C639 1.327 . S
C642 C630 1.349 . S
C642 H636 0.950 . S
C642 C643 1.327 . S
C643 H637 0.950 . S
C643 C642 1.327 . S
C643 C647 1.429 . S
C644 C627 1.574 . S
C644 H638 0.949 . S
C644 C648 1.368 . S
C645 C626 1.429 . S
C645 C639 1.429 . S
C645 C646 1.523 . S
C646 C627 1.368 . S
C646 C640 1.368 . S
C646 C645 1.523 . S
C647 C631 1.429 . S
C647 C643 1.429 . S
C647 C648 1.523 . S
C648 C632 1.368 . S
C648 C644 1.368 . S
C648 C647 1.523 . S
H649 C624 0.950 . S
H650 C626 0.950 . S
H651 C627 0.949 . S
H652 C629 0.950 . S
H653 C631 0.950 . S
C654 C655 1.349 . S
C654 C656 1.327 . S
C654 H679 0.950 . S
C655 C654 1.349 . S
C655 C671 1.349 . S
C656 C654 1.327 . S
C656 C675 1.429 . S
C656 H680 0.950 . S
C657 C674 1.574 . S
C657 C676 1.368 . S
C657 H681 0.949 . S
H658 C662 0.949 . S
C659 C660 1.349 . S
C659 C661 1.327 . S
C659 H682 0.950 . S
C660 C659 1.349 . S
C660 C672 1.349 . S
C661 C659 1.327 . S
C661 C677 1.429 . S
C661 H683 0.950 . S
C662 H658 0.949 . S
C662 C670 1.574 . S
C662 C678 1.368 . S
H663 C671 0.950 . S
H664 C669 0.950 . S
H665 C670 0.949 . S
H666 C672 0.950 . S
H667 C673 0.950 . S
H668 C674 0.949 . S
C669 H664 0.950 . S
C669 C671 1.327 . S
C669 C675 1.429 . S
C670 C662 1.574 . S
C670 H665 0.949 . S
C670 C676 1.368 . S
C671 C655 1.349 . S
C671 H663 0.950 . S
C671 C669 1.327 . S
C672 C660 1.349 . S
C672 H666 0.950 . S
C672 C673 1.327 . S
C673 H667 0.950 . S
C673 C672 1.327 . S
C673 C677 1.429 . S
C674 C657 1.574 . S
C674 H668 0.949 . S
C674 C678 1.368 . S
C675 C656 1.429 . S
C675 C669 1.429 . S
C675 C676 1.523 . S
C676 C657 1.368 . S
C676 C670 1.368 . S
C676 C675 1.523 . S
C677 C661 1.429 . S
C677 C673 1.429 . S
C677 C678 1.523 . S
C678 C662 1.368 . S
C678 C674 1.368 . S
C678 C677 1.523 . S
H679 C654 0.950 . S
H680 C656 0.950 . S
H681 C657 0.949 . S
H682 C659 0.950 . S
H683 C661 0.950 . S
C684 C685 1.349 . S
C684 C686 1.327 . S
C684 H709 0.950 . S
C685 C684 1.349 . S
C685 C701 1.349 . S
C686 C684 1.327 . S
C686 C705 1.429 . S
C686 H710 0.950 . S
C687 C704 1.574 . S
C687 C706 1.368 . S
C687 H711 0.949 . S
H688 C692 0.949 . S
C689 C690 1.349 . S
C689 C691 1.327 . S
C689 H712 0.950 . S
C690 C689 1.349 . S
C690 C702 1.349 . S
C691 C689 1.327 . S
C691 C707 1.429 . S
C691 H713 0.950 . S
C692 H688 0.949 . S
C692 C700 1.574 . S
C692 C708 1.368 . S
H693 C701 0.950 . S
H694 C699 0.950 . S
H695 C700 0.949 . S
H696 C702 0.950 . S
H697 C703 0.950 . S
H698 C704 0.949 . S
C699 H694 0.950 . S
C699 C701 1.327 . S
C699 C705 1.429 . S
C700 C692 1.574 . S
C700 H695 0.949 . S
C700 C706 1.368 . S
C701 C685 1.349 . S
C701 H693 0.950 . S
C701 C699 1.327 . S
C702 C690 1.349 . S
C702 H696 0.950 . S
C702 C703 1.327 . S
C703 H697 0.950 . S
C703 C702 1.327 . S
C703 C707 1.429 . S
C704 C687 1.574 . S
C704 H698 0.949 . S
C704 C708 1.368 . S
C705 C686 1.429 . S
C705 C699 1.429 . S
C705 C706 1.523 . S
C706 C687 1.368 . S
C706 C700 1.368 . S
C706 C705 1.523 . S
C707 C691 1.429 . S
C707 C703 1.429 . S
C707 C708 1.523 . S
C708 C692 1.368 . S
C708 C704 1.368 . S
C708 C707 1.523 . S
H709 C684 0.950 . S
H710 C686 0.950 . S
H711 C687 0.949 . S
H712 C689 0.950 . S
H713 C691 0.950 . S
C714 C715 1.349 . S
C714 C716 1.327 . S
C714 H739 0.950 . S
C715 C714 1.349 . S
C715 C731 1.349 . S
C716 C714 1.327 . S
C716 C735 1.429 . S
C716 H740 0.950 . S
C717 C734 1.574 . S
C717 C736 1.368 . S
C717 H741 0.949 . S
H718 C722 0.949 . S
C719 C720 1.349 . S
C719 C721 1.327 . S
C719 H742 0.950 . S
C720 C719 1.349 . S
C720 C732 1.349 . S
C721 C719 1.327 . S
C721 C737 1.429 . S
C721 H743 0.950 . S
C722 H718 0.949 . S
C722 C730 1.574 . S
C722 C738 1.368 . S
H723 C731 0.950 . S
H724 C729 0.950 . S
H725 C730 0.949 . S
H726 C732 0.950 . S
H727 C733 0.950 . S
H728 C734 0.949 . S
C729 H724 0.950 . S
C729 C731 1.327 . S
C729 C735 1.429 . S
C730 C722 1.574 . S
C730 H725 0.949 . S
C730 C736 1.368 . S
C731 C715 1.349 . S
C731 H723 0.950 . S
C731 C729 1.327 . S
C732 C720 1.349 . S
C732 H726 0.950 . S
C732 C733 1.327 . S
C733 H727 0.950 . S
C733 C732 1.327 . S
C733 C737 1.429 . S
C734 C717 1.574 . S
C734 H728 0.949 . S
C734 C738 1.368 . S
C735 C716 1.429 . S
C735 C729 1.429 . S
C735 C736 1.523 . S
C736 C717 1.368 . S
C736 C730 1.368 . S
C736 C735 1.523 . S
C737 C721 1.429 . S
C737 C733 1.429 . S
C737 C738 1.523 . S
C738 C722 1.368 . S
C738 C734 1.368 . S
C738 C737 1.523 . S
H739 C714 0.950 . S
H740 C716 0.950 . S
H741 C717 0.949 . S
H742 C719 0.950 . S
H743 C721 0.950 . S
C205 C170 1.328 . S
C210 C8 1.317 . S
C235 C0 1.322 . S
C240 C34 1.322 . S
C265 C42 1.311 . S
C270 C76 1.311 . S
C295 C102 1.327 . S
C300 C68 1.327 . S
C325 C165 1.331 . S
C330 C110 1.318 . S
C355 C153 1.316 . S
C360 C178 1.316 . S
C385 C144 1.457 . S
C390 C17 1.456 . S
C415 C199 1.445 . S
C420 C63 1.445 . S
C445 C85 1.449 . S
C450 C29 1.444 . S
C475 C131 1.446 . S
C480 C51 1.451 . S
C505 C136 1.448 . S
C510 C97 1.447 . S
C535 C119 1.457 . S
C540 C187 1.457 . S
C565 C13 1.500 . S
C570 C4 1.500 . S
C595 C38 1.500 . S
C600 C47 1.500 . S
C625 C81 1.502 . S
C630 C72 1.502 . S
C655 C106 1.505 . S
C660 C115 1.505 . S
C685 C149 1.498 . S
C690 C140 1.498 . S
C715 C183 1.503 . S
C720 C174 1.503 . S
