# Generated by pormake.
# Topology crr, (4)-cn, num edge types: 1
# Building blocks:
#     Node 0, Type 0, BuildingBlock: KOZSID_clean_sbu_0, # of connection points: 4
#     Node 1, Type 0, BuildingBlock: KOZSID_clean_sbu_0, # of connection points: 4
#     Node 2, Type 0, BuildingBlock: KOZSID_clean_sbu_0, # of connection points: 4
#     Node 3, Type 0, BuildingBlock: KOZSID_clean_sbu_0, # of connection points: 4
#     Node 4, Type 0, BuildingBlock: KOZSID_clean_sbu_0, # of connection points: 4
#     Node 5, Type 0, BuildingBlock: KOZSID_clean_sbu_0, # of connection points: 4
#     Node 6, Type 0, BuildingBlock: KOZSID_clean_sbu_0, # of connection points: 4
#     Node 7, Type 0, BuildingBlock: KOZSID_clean_sbu_0, # of connection points: 4
#     Node 8, Type 0, BuildingBlock: KOZSID_clean_sbu_0, # of connection points: 4
#     Node 9, Type 0, BuildingBlock: KOZSID_clean_sbu_0, # of connection points: 4
#     Node 10, Type 0, BuildingBlock: KOZSID_clean_sbu_0, # of connection points: 4
#     Node 11, Type 0, BuildingBlock: KOZSID_clean_sbu_0, # of connection points: 4
#     Edge 12, Type (0, 0), None
#     Edge 13, Type (0, 0), None
#     Edge 14, Type (0, 0), None
#     Edge 15, Type (0, 0), None
#     Edge 16, Type (0, 0), None
#     Edge 17, Type (0, 0), None
#     Edge 18, Type (0, 0), None
#     Edge 19, Type (0, 0), None
#     Edge 20, Type (0, 0), None
#     Edge 21, Type (0, 0), None
#     Edge 22, Type (0, 0), None
#     Edge 23, Type (0, 0), None
#     Edge 24, Type (0, 0), None
#     Edge 25, Type (0, 0), None
#     Edge 26, Type (0, 0), None
#     Edge 27, Type (0, 0), None
#     Edge 28, Type (0, 0), None
#     Edge 29, Type (0, 0), None
#     Edge 30, Type (0, 0), None
#     Edge 31, Type (0, 0), None
#     Edge 32, Type (0, 0), None
#     Edge 33, Type (0, 0), None
#     Edge 34, Type (0, 0), None
#     Edge 35, Type (0, 0), None
# Relax obj value: 0.031
# Max RMSD: 0.118
# Mean RMSD: 0.078
data_MOF--net-crr--node1-KOZSID_clean_sbu_0--edge1-none
_symmetry_space_group_name_H-M    P1
_symmetry_Int_Tables_number       1
_symmetry_cell_setting            triclinic
loop_
_symmetry_equiv_pos_as_xyz
'x, y, z'
_cell_length_a     28.879879
_cell_length_b     27.114185
_cell_length_c     25.466673
_cell_angle_alpha  93.689493
_cell_angle_beta   83.086817
_cell_angle_gamma 86.039335
loop_
_atom_site_label
_atom_site_type_symbol
_atom_site_fract_x
_atom_site_fract_y
_atom_site_fract_z
_atom_type_partial_charge
C0 C 0.01545 0.32636 0.43728 0.0
C1 C 0.9822 0.29304 0.42834 0.0
C2 C 0.99439 0.27159 0.37809 0.0
C3 C 0.0347 0.29208 0.35953 0.0
N4 N 0.04906 0.3249 0.39464 0.0
Co5 Co 0.10843 0.35861 0.38318 0.0
N6 N 0.11359 0.34704 0.30361 0.0
C7 C 0.08954 0.31333 0.27904 0.0
C8 C 0.10627 0.30192 0.22713 0.0
C9 C 0.14375 0.32925 0.21794 0.0
C10 C 0.14663 0.35926 0.26398 0.0
N11 N 0.16907 0.38985 0.37288 0.0
C12 C 0.19969 0.39093 0.32777 0.0
C13 C 0.24531 0.39136 0.34042 0.0
C14 C 0.24282 0.39603 0.39426 0.0
C15 C 0.1964 0.39505 0.41209 0.0
N16 N 0.10047 0.3723 0.46225 0.0
C17 C 0.1336 0.38806 0.49064 0.0
C18 C 0.11777 0.3993 0.54332 0.0
C19 C 0.07151 0.38991 0.54874 0.0
C20 C 0.06185 0.37206 0.49911 0.0
N21 N 0.14716 0.29445 0.38791 0.0
C22 C 0.22229 0.22212 0.39459 0.0
C23 C 0.19076 0.23907 0.43966 0.0
C24 C 0.153 0.27452 0.43532 0.0
C25 C 0.213 0.23921 0.34637 0.0
C26 C 0.17611 0.2742 0.34387 0.0
N27 N 0.07248 0.42247 0.37822 0.0
C28 C 0.0581 0.51046 0.4027 0.0
C29 C 0.01796 0.51275 0.3768 0.0
C30 C 1.00635 0.46912 0.35055 0.0
C31 C 0.03411 0.4246 0.35143 0.0
C32 C 0.08485 0.46514 0.40287 0.0
H33 H 0.02392 0.39166 0.33126 0.0
H34 H 0.11501 0.46448 0.42402 0.0
H35 H 0.12986 0.28659 0.4709 0.0
H36 H 0.17413 0.28544 0.30521 0.0
C37 C 0.05539 0.28815 0.30723 0.0
C38 C 0.01567 0.35553 0.48829 0.0
C39 C 0.18748 0.38867 0.27237 0.0
C40 C 0.17788 0.39513 0.46535 0.0
H41 H 0.95212 0.28521 0.45527 0.0
H42 H 0.97518 0.24558 0.35697 0.0
H43 H 0.09607 0.27266 0.20093 0.0
H44 H 0.16978 0.3196 0.18438 0.0
H45 H 0.2777 0.38637 0.31392 0.0
H46 H 0.27174 0.39691 0.41761 0.0
H47 H 0.13711 0.41407 0.57383 0.0
H48 H 0.04769 0.39578 0.58514 0.0
H49 H 0.19565 0.22582 0.47797 0.0
H50 H 0.23514 0.22666 0.30995 0.0
H51 H 0.06794 0.54318 0.42407 0.0
H52 H 0.97532 0.4692 0.33052 0.0
C53 C 0.25982 0.89161 0.67582 0.0
C54 C 0.21804 0.91267 0.70354 0.0
C55 C 0.22945 0.9467 0.74108 0.0
C56 C 0.27742 0.94475 0.7343 0.0
N57 N 0.29696 0.91233 0.69405 0.0
Co58 Co 0.36541 0.89705 0.67302 0.0
N59 N 0.38077 0.95671 0.71448 0.0
C60 C 0.35276 0.98287 0.75406 0.0
C61 C 0.37277 0.02383 0.77322 0.0
C62 C 0.41581 0.02338 0.74347 0.0
C63 C 0.41948 0.98214 0.70769 0.0
N64 N 0.43339 0.88271 0.65157 0.0
C65 C 0.46798 0.9139 0.65152 0.0
C66 C 0.51117 0.88863 0.63486 0.0
C67 C 0.50286 0.84002 0.62352 0.0
C68 C 0.45525 0.83841 0.63384 0.0
N69 N 0.35059 0.83666 0.63185 0.0
C70 C 0.38144 0.79794 0.61356 0.0
C71 C 0.36152 0.7604 0.58789 0.0
C72 C 0.31507 0.77586 0.59117 0.0
C73 C 0.30905 0.8221 0.6191 0.0
N74 N 0.36197 0.93581 0.61102 0.0
C75 C 0.36522 0.99541 0.52484 0.0
C76 C 0.38496 0.94641 0.51845 0.0
C77 C 0.38325 0.91736 0.56209 0.0
C78 C 0.34257 0.01338 0.57479 0.0
C79 C 0.34085 0.9829 0.61706 0.0
N80 N 0.36958 0.85787 0.73536 0.0
C81 C 0.33639 0.79752 0.7911 0.0
C82 C 0.37724 0.79152 0.81507 0.0
C83 C 0.41356 0.82161 0.80046 0.0
C84 C 0.40869 0.85526 0.76112 0.0
C85 C 0.3336 0.83011 0.75141 0.0
H86 H 0.43705 0.87811 0.75065 0.0
H87 H 0.30253 0.83183 0.73288 0.0
H88 H 0.40024 0.88042 0.55653 0.0
H89 H 0.3234 0.99798 0.65503 0.0
C90 C 0.30507 0.97507 0.76217 0.0
C91 C 0.26266 0.84595 0.64051 0.0
C92 C 0.46037 0.96683 0.66882 0.0
C93 C 0.42931 0.79983 0.61748 0.0
H94 H 0.18307 0.90264 0.69877 0.0
H95 H 0.20559 0.96986 0.77004 0.0
H96 H 0.3568 0.05248 0.80269 0.0
H97 H 0.44115 0.05064 0.74694 0.0
H98 H 0.54503 0.90364 0.6305 0.0
H99 H 0.52824 0.8102 0.60676 0.0
H100 H 0.37865 0.72586 0.56915 0.0
H101 H 0.28822 0.75449 0.5769 0.0
H102 H 0.40296 0.9312 0.48048 0.0
H103 H 0.32638 0.05088 0.58121 0.0
H104 H 0.30683 0.7763 0.80182 0.0
H105 H 0.44559 0.81857 0.81858 0.0
C106 C 0.94087 0.56038 0.4168 0.0
C107 C 0.9287 0.52188 0.44773 0.0
C108 C 0.88659 0.53682 0.4764 0.0
C109 C 0.87507 0.58293 0.4613 0.0
N110 N 0.90795 0.59933 0.42566 0.0
Co111 Co 0.90829 0.66794 0.40084 0.0
N112 N 0.8462 0.68911 0.44344 0.0
C113 C 0.82261 0.66337 0.48009 0.0
C114 C 0.77951 0.68568 0.50031 0.0
C115 C 0.77469 0.72754 0.4738 0.0
C116 C 0.81527 0.7282 0.43877 0.0
N117 N 0.90662 0.73616 0.37424 0.0
C118 C 0.86923 0.76983 0.37406 0.0
C119 C 0.88116 0.80935 0.34469 0.0
C120 C 0.9272 0.79968 0.32426 0.0
C121 C 0.94075 0.75485 0.34213 0.0
N122 N 0.97095 0.64734 0.35927 0.0
C123 C 0.99839 0.67712 0.33088 0.0
C124 C 0.04062 0.65387 0.3089 0.0
C125 C 0.04043 0.60666 0.32487 0.0
C126 C 0.99796 0.6037 0.35591 0.0
N127 N 0.87573 0.64674 0.33959 0.0
C128 C 0.82138 0.637 0.25517 0.0
C129 C 0.86588 0.65413 0.24728 0.0
C130 C 0.89258 0.65788 0.28941 0.0
C131 C 0.80577 0.62123 0.3051 0.0
C132 C 0.83356 0.62612 0.34663 0.0
N133 N 0.94256 0.68922 0.46219 0.0
C134 C 0.01057 0.72593 0.49153 0.0
C135 C 0.00826 0.69864 0.53631 0.0
C136 C 0.96978 0.67069 0.54628 0.0
C137 C 0.93735 0.667 0.50942 0.0
C138 C 0.97744 0.72116 0.45571 0.0
H139 H 0.9091 0.64492 0.51975 0.0
H140 H 0.98171 0.74286 0.42243 0.0
H141 H 0.92588 0.6723 0.28108 0.0
H142 H 0.81964 0.61525 0.38479 0.0
C143 C 0.83712 0.61422 0.48569 0.0
C144 C 0.98531 0.55899 0.38218 0.0
C145 C 0.82141 0.76426 0.39885 0.0
C146 C 0.98259 0.72613 0.32396 0.0
H147 H 0.94926 0.48766 0.45119 0.0
H148 H 0.86779 0.51809 0.50728 0.0
H149 H 0.75316 0.67119 0.5278 0.0
H150 H 0.74383 0.75319 0.47768 0.0
H151 H 0.85836 0.84079 0.3371 0.0
H152 H 0.94746 0.82124 0.29688 0.0
H153 H 0.06829 0.66938 0.28416 0.0
H154 H 0.06853 0.57779 0.31519 0.0
H155 H 0.87929 0.66654 0.20918 0.0
H156 H 0.77133 0.60779 0.31281 0.0
H157 H 0.03854 0.75008 0.48349 0.0
H158 H 0.9654 0.65054 0.58173 0.0
C159 C 0.57875 0.19494 0.68741 0.0
C160 C 0.547 0.23545 0.68593 0.0
C161 C 0.53278 0.23248 0.63672 0.0
C162 C 0.55654 0.19046 0.6112 0.0
N163 N 0.58431 0.16585 0.64142 0.0
Co164 Co 0.62572 0.10369 0.61949 0.0
N165 N 0.61237 0.10486 0.5439 0.0
C166 C 0.58567 0.14023 0.524 0.0
C167 C 0.58259 0.13185 0.47121 0.0
C168 C 0.60778 0.08784 0.45626 0.0
C169 C 0.62556 0.0719 0.50123 0.0
N170 N 0.66539 0.04036 0.59776 0.0
C171 C 0.66983 0.0109 0.5517 0.0
C172 C 0.69857 0.9682 0.55481 0.0
C173 C 0.71108 0.96978 0.60489 0.0
C174 C 0.68986 0.01338 0.62952 0.0
N175 N 0.64071 0.10416 0.69457 0.0
C176 C 0.66911 0.07043 0.71467 0.0
C177 C 0.67713 0.08352 0.76556 0.0
C178 C 0.65351 0.12902 0.77818 0.0
C179 C 0.6323 0.14094 0.73418 0.0
N180 N 0.57143 0.0632 0.63691 0.0
C181 C 0.49815 1.0008 0.6582 0.0
C182 C 0.53802 0.99634 0.68366 0.0
C183 C 0.57395 0.02731 0.67232 0.0
C184 C 0.49451 0.03797 0.62309 0.0
C185 C 0.53133 0.06871 0.61311 0.0
N186 N 0.68017 0.14404 0.60336 0.0
C187 C 0.75681 0.16515 0.6229 0.0
C188 C 0.75099 0.21206 0.60323 0.0
C189 C 0.71018 0.22174 0.5791 0.0
C190 C 0.67542 0.188 0.58029 0.0
C191 C 0.72206 0.13177 0.62119 0.0
H192 H 0.64431 0.19885 0.56374 0.0
H193 H 0.72921 0.09688 0.63659 0.0
H194 H 0.60361 0.02083 0.69246 0.0
H195 H 0.52677 0.09629 0.5857 0.0
C196 C 0.55953 0.17779 0.55702 0.0
C197 C 0.60674 0.18879 0.7307 0.0
C198 C 0.64851 0.02223 0.50355 0.0
C199 C 0.69054 0.02896 0.68299 0.0
H200 H 0.53702 0.26532 0.71632 0.0
H201 H 0.51018 0.25943 0.62037 0.0
H202 H 0.56239 0.15411 0.44739 0.0
H203 H 0.61044 0.06859 0.41735 0.0
H204 H 0.70883 0.93858 0.52425 0.0
H205 H 0.73229 0.94188 0.62171 0.0
H206 H 0.69921 0.06343 0.78972 0.0
H207 H 0.65305 0.15169 0.81484 0.0
H208 H 0.54173 0.96849 0.71186 0.0
H209 H 0.46365 0.04291 0.60305 0.0
H210 H 0.78716 0.15391 0.64142 0.0
H211 H 0.70387 0.25551 0.55994 0.0
C212 C 0.14207 0.66529 0.77986 0.0
C213 C 0.12746 0.68479 0.8314 0.0
C214 C 0.09384 0.72236 0.82848 0.0
C215 C 0.08957 0.72383 0.77552 0.0
N216 N 0.11762 0.68879 0.74479 0.0
Co217 Co 0.12307 0.68071 0.66558 0.0
N218 N 0.06534 0.7245 0.66326 0.0
C219 C 0.04461 0.75707 0.70253 0.0
C220 C 1.00431 0.78106 0.69003 0.0
C221 C 0.99932 0.76217 0.63987 0.0
C222 C 0.03687 0.7275 0.62465 0.0
N223 N 0.1276 0.6721 0.58682 0.0
C224 C 0.09382 0.67908 0.55458 0.0
C225 C 0.11132 0.66559 0.50208 0.0
C226 C 0.15762 0.65007 0.50161 0.0
C227 C 0.16581 0.65461 0.55367 0.0
N228 N 0.18142 0.6372 0.66747 0.0
C229 C 0.21334 0.62293 0.62514 0.0
C230 C 0.25124 0.59481 0.63765 0.0
C231 C 0.24338 0.59197 0.69141 0.0
C232 C 0.20103 0.61882 0.70895 0.0
N233 N 0.08573 0.62347 0.67029 0.0
C234 C 0.02686 0.54648 0.66683 0.0
C235 C 0.07055 0.54218 0.63614 0.0
C236 C 0.09954 0.58114 0.63848 0.0
C237 C 0.01371 0.5889 0.70078 0.0
C238 C 0.04387 0.62687 0.70226 0.0
N239 N 0.16078 0.73839 0.66016 0.0
C240 C 0.22419 0.78083 0.68994 0.0
C241 C 0.224 0.81225 0.64876 0.0
C242 C 0.18995 0.80758 0.61422 0.0
C243 C 0.15818 0.77054 0.62097 0.0
C244 C 0.19268 0.74469 0.69482 0.0
H245 H 0.13248 0.76707 0.59374 0.0
H246 H 0.19547 0.72078 0.72589 0.0
H247 H 0.13242 0.5776 0.61322 0.0
H248 H 0.03261 0.65962 0.72801 0.0
C249 C 0.05789 0.7555 0.75351 0.0
C250 C 0.18515 0.6321 0.7657 0.0
C251 C 0.04551 0.69945 0.5727 0.0
C252 C 0.20484 0.63335 0.57385 0.0
H253 H 0.14143 0.67459 0.86711 0.0
H254 H 0.07514 0.74613 0.86109 0.0
H255 H 0.97993 0.80694 0.71548 0.0
H256 H 0.97104 0.77218 0.61736 0.0
H257 H 0.09261 0.666 0.46777 0.0
H258 H 0.18159 0.63446 0.46773 0.0
H259 H 0.28109 0.57838 0.61092 0.0
H260 H 0.26705 0.57395 0.71539 0.0
H261 H 0.08159 0.50959 0.60949 0.0
H262 H 0.98004 0.59304 0.72515 0.0
H263 H 0.24977 0.78235 0.71736 0.0
H264 H 0.1887 0.8313 0.58172 0.0
C265 C 0.62486 0.94139 0.46925 0.0
C266 C 0.60066 0.93043 0.51714 0.0
C267 C 0.58104 0.88694 0.50756 0.0
C268 C 0.59352 0.87394 0.45479 0.0
N269 N 0.62 0.90645 0.42977 0.0
Co270 Co 0.64538 0.90005 0.35266 0.0
N271 N 0.60728 0.84308 0.33707 0.0
C272 C 0.57569 0.8244 0.37211 0.0
C273 C 0.54498 0.79633 0.34882 0.0
C274 C 0.55908 0.79555 0.29557 0.0
C275 C 0.59936 0.82101 0.2897 0.0
N276 N 0.67272 0.89089 0.27557 0.0
C277 C 0.66928 0.85312 0.23766 0.0
C278 C 0.7083 0.85005 0.19927 0.0
C279 C 0.73411 0.88863 0.21012 0.0
C280 C 0.71177 0.91183 0.25626 0.0
N281 N 0.68158 0.95854 0.36788 0.0
C282 C 0.71686 0.97383 0.33518 0.0
C283 C 0.73553 0.01513 0.35511 0.0
C284 C 0.71052 0.02674 0.40394 0.0
C285 C 0.67771 0.99178 0.41097 0.0
N286 N 0.69824 0.85449 0.36953 0.0
C287 C 0.77985 0.79647 0.38712 0.0
C288 C 0.76601 0.84149 0.41656 0.0
C289 C 0.72525 0.86948 0.40756 0.0
C290 C 0.75109 0.7801 0.35006 0.0
C291 C 0.71069 0.80943 0.34194 0.0
N292 N 0.59337 0.9476 0.33682 0.0
C293 C 0.56806 0.02346 0.29845 0.0
C294 C 0.52273 0.02385 0.32568 0.0
C295 C 0.51331 0.98433 0.35713 0.0
C296 C 0.54875 0.94717 0.36243 0.0
C297 C 0.60253 0.98517 0.30431 0.0
H298 H 0.53968 0.91886 0.38842 0.0
H299 H 0.63699 0.98678 0.28328 0.0
H300 H 0.71605 0.90357 0.43154 0.0
H301 H 0.68994 0.7953 0.31313 0.0
C302 C 0.57327 0.83761 0.42608 0.0
C303 C 0.64885 0.98717 0.46208 0.0
C304 C 0.63359 0.81527 0.24099 0.0
C305 C 0.72987 0.94954 0.28541 0.0
H306 H 0.59603 0.9524 0.55466 0.0
H307 H 0.55786 0.86841 0.53476 0.0
H308 H 0.51582 0.77857 0.36821 0.0
H309 H 0.54412 0.77474 0.26493 0.0
H310 H 0.71972 0.82115 0.16851 0.0
H311 H 0.76746 0.8963 0.18922 0.0
H312 H 0.764 0.0344 0.33649 0.0
H313 H 0.7168 0.0565 0.432 0.0
H314 H 0.78632 0.85479 0.44689 0.0
H315 H 0.75963 0.74464 0.32766 0.0
H316 H 0.57689 0.0526 0.27274 0.0
H317 H 0.4787 0.98253 0.3784 0.0
C318 C 0.85118 0.38367 0.7549 0.0
C319 C 0.8645 0.37234 0.80358 0.0
C320 C 0.90427 0.34074 0.79269 0.0
C321 C 0.9142 0.33687 0.73836 0.0
N322 N 0.88481 0.36618 0.71458 0.0
Co323 Co 0.8911 0.37928 0.63762 0.0
N324 N 0.94879 0.33298 0.61991 0.0
C325 C 0.96892 0.30466 0.65405 0.0
C326 C 0.01044 0.27987 0.63205 0.0
C327 C 0.01813 0.29479 0.58164 0.0
C328 C 0.98118 0.32882 0.57586 0.0
N329 N 0.89569 0.39078 0.56052 0.0
C330 C 0.93062 0.377 0.52021 0.0
C331 C 0.91823 0.39273 0.47256 0.0
C332 C 0.87475 0.4173 0.48355 0.0
C333 C 0.86322 0.41689 0.53736 0.0
N334 N 0.83586 0.42847 0.65633 0.0
C335 C 0.81885 0.46027 0.62368 0.0
C336 C 0.78598 0.49535 0.64978 0.0
C337 C 0.78069 0.4835 0.70179 0.0
C338 C 0.80884 0.44011 0.70354 0.0
N339 N 0.93271 0.43331 0.64929 0.0
C340 C 0.99419 0.50784 0.66149 0.0
C341 C 0.96053 0.51241 0.62699 0.0
C342 C 0.93047 0.47483 0.6213 0.0
C343 C 0.997 0.4658 0.68979 0.0
C344 C 0.96605 0.42919 0.68321 0.0
N345 N 0.84894 0.32536 0.62513 0.0
C346 C 0.7739 0.30088 0.60337 0.0
C347 C 0.78584 0.25076 0.60945 0.0
C348 C 0.83092 0.23918 0.62343 0.0
C349 C 0.86114 0.27665 0.63191 0.0
C350 C 0.80573 0.33655 0.60992 0.0
H351 H 0.89413 0.26528 0.64407 0.0
H352 H 0.79397 0.37329 0.60286 0.0
H353 H 0.90634 0.47986 0.59323 0.0
H354 H 0.9705 0.39759 0.70522 0.0
C355 C 0.95143 0.30792 0.7082 0.0
C356 C 0.8046 0.40589 0.74654 0.0
C357 C 0.978 0.35608 0.52766 0.0
C358 C 0.82986 0.45064 0.56844 0.0
H359 H 0.84527 0.38232 0.8424 0.0
H360 H 0.92305 0.32207 0.82095 0.0
H361 H 0.03371 0.25599 0.6513 0.0
H362 H 0.04844 0.2834 0.55306 0.0
H363 H 0.93949 0.39024 0.4344 0.0
H364 H 0.8562 0.43765 0.4563 0.0
H365 H 0.76597 0.52399 0.63259 0.0
H366 H 0.7553 0.50123 0.73327 0.0
H367 H 0.95787 0.54452 0.60396 0.0
H368 H 0.02316 0.46105 0.71657 0.0
H369 H 0.73977 0.3138 0.59428 0.0
H370 H 0.8436 0.20153 0.6281 0.0
C371 C 0.27248 0.14389 0.35647 0.0
C372 C 0.23546 0.12342 0.33503 0.0
C373 C 0.25432 0.09343 0.29127 0.0
C374 C 0.30174 0.09651 0.28859 0.0
N375 N 0.31403 0.12575 0.32864 0.0
Co376 Co 0.37935 0.1373 0.34052 0.0
N377 N 0.40615 0.08133 0.28897 0.0
C378 C 0.38418 0.05954 0.25113 0.0
C379 C 0.41059 0.01969 0.22389 0.0
C380 C 0.45147 0.01593 0.24643 0.0
C381 C 0.44762 0.05369 0.28635 0.0
N382 N 0.44481 0.14726 0.35232 0.0
C383 C 0.48368 0.11497 0.343 0.0
C384 C 0.52265 0.13788 0.35568 0.0
C385 C 0.50726 0.18577 0.37439 0.0
C386 C 0.45985 0.18942 0.37217 0.0
N387 N 0.35308 0.19366 0.39212 0.0
C388 C 0.37828 0.22995 0.40966 0.0
C389 C 0.3514 0.26664 0.44134 0.0
C390 C 0.30633 0.25329 0.44295 0.0
C391 C 0.30797 0.2089 0.41205 0.0
N392 N 0.37526 0.09193 0.39756 0.0
C393 C 0.36926 0.0283 0.48031 0.0
C394 C 0.38563 0.07537 0.48739 0.0
C395 C 0.38875 0.10632 0.44553 0.0
C396 C 0.35653 0.01341 0.43069 0.0
C397 C 0.35932 0.04594 0.39005 0.0
N398 N 0.38332 0.18447 0.28378 0.0
C399 C 0.34895 0.25688 0.24759 0.0
C400 C 0.3899 0.26122 0.21373 0.0
C401 C 0.42738 0.22536 0.21429 0.0
C402 C 0.42337 0.18721 0.24955 0.0
C403 C 0.34639 0.21856 0.28177 0.0
H404 H 0.45288 0.16052 0.24984 0.0
H405 H 0.31457 0.21761 0.3076 0.0
H406 H 0.40217 0.14199 0.45206 0.0
H407 H 0.3485 0.03384 0.35262 0.0
C408 C 0.33572 0.06863 0.2526 0.0
C409 C 0.2657 0.18767 0.39525 0.0
C410 C 0.48442 0.06351 0.31994 0.0
C411 C 0.4273 0.2269 0.39756 0.0
H412 H 0.19849 0.13161 0.34802 0.0
H413 H 0.23565 0.07181 0.26474 0.0
H414 H 0.40005 0.99408 0.19399 0.0
H415 H 0.48033 0.98809 0.23562 0.0
H416 H 0.55826 0.12165 0.35221 0.0
H417 H 0.52782 0.21365 0.39041 0.0
H418 H 0.36304 0.29955 0.46045 0.0
H419 H 0.27559 0.27505 0.46262 0.0
H420 H 0.39646 0.08801 0.52494 0.0
H421 H 0.3436 0.97731 0.42368 0.0
H422 H 0.31893 0.28325 0.24786 0.0
H423 H 0.45948 0.22691 0.18788 0.0
C424 C 0.37043 0.29529 0.12702 0.0
C425 C 0.35845 0.2495 0.10767 0.0
C426 C 0.33654 0.25762 0.06417 0.0
C427 C 0.33647 0.30766 0.05932 0.0
N428 N 0.35756 0.33214 0.09661 0.0
Co429 Co 0.36357 0.40564 0.10431 0.0
N430 N 0.33193 0.41694 0.03954 0.0
C431 C 0.31219 0.3826 0.01045 0.0
C432 C 0.29013 0.40139 0.9706 0.0
C433 C 0.29739 0.45056 0.97327 0.0
C434 C 0.32497 0.45863 0.01374 0.0
N435 N 0.36924 0.4792 0.1117 0.0
C436 C 0.36016 0.51503 0.07819 0.0
C437 C 0.3731 0.56066 0.09715 0.0
C438 C 0.39052 0.55352 0.14383 0.0
C439 C 0.38789 0.50405 0.15082 0.0
N440 N 0.39565 0.39376 0.16876 0.0
C441 C 0.41209 0.42872 0.20034 0.0
C442 C 0.43101 0.41017 0.24258 0.0
C443 C 0.42605 0.36036 0.238 0.0
C444 C 0.40431 0.35128 0.19306 0.0
N445 N 0.42548 0.39739 0.05871 0.0
C446 C 0.51124 0.39255 0.99078 0.0
C447 C 0.50582 0.41918 0.04005 0.0
C448 C 0.46309 0.42108 0.07311 0.0
C449 C 0.47353 0.36692 0.97672 0.0
C450 C 0.43129 0.36976 0.01101 0.0
N451 N 0.30163 0.41431 0.15091 0.0
C452 C 0.25754 0.43702 0.23752 0.0
C453 C 0.22168 0.4066 0.22701 0.0
C454 C 0.22136 0.3937 0.17257 0.0
C455 C 0.262 0.39518 0.13624 0.0
C456 C 0.29714 0.43929 0.20005 0.0
H457 H 0.26025 0.38078 0.09667 0.0
H458 H 0.32391 0.46074 0.21234 0.0
H459 H 0.46114 0.44269 0.10982 0.0
H460 H 0.40342 0.35002 0.99797 0.0
C461 C 0.31574 0.33282 0.02112 0.0
C462 C 0.39144 0.30184 0.17619 0.0
C463 C 0.34443 0.50626 0.02547 0.0
C464 C 0.40736 0.4789 0.1903 0.0
H465 H 0.36406 0.21404 0.12408 0.0
H466 H 0.32162 0.23042 0.03957 0.0
H467 H 0.27154 0.38159 0.94249 0.0
H468 H 0.28506 0.47718 0.9472 0.0
H469 H 0.37204 0.5952 0.07819 0.0
H470 H 0.40561 0.58068 0.16832 0.0
H471 H 0.44588 0.43057 0.27357 0.0
H472 H 0.43664 0.33373 0.265 0.0
H473 H 0.53418 0.43933 0.05261 0.0
H474 H 0.47642 0.34544 0.93894 0.0
H475 H 0.2563 0.4581 0.27522 0.0
H476 H 0.19022 0.38434 0.15639 0.0
C477 C 0.34776 0.75469 0.90106 0.0
C478 C 0.32337 0.79889 0.92211 0.0
C479 C 0.28804 0.7868 0.95873 0.0
C480 C 0.29289 0.7361 0.95839 0.0
N481 N 0.32975 0.71545 0.92474 0.0
Co482 Co 0.34703 0.64298 0.9114 0.0
N483 N 0.30669 0.6275 0.97593 0.0
C484 C 0.2708 0.65706 1.00194 0.0
C485 C 0.2497 0.63673 0.04582 0.0
C486 C 0.27419 0.59183 0.04772 0.0
C487 C 0.3095 0.58745 1.00508 0.0
N488 N 0.36372 0.57049 0.89889 0.0
C489 C 0.36206 0.53476 0.93408 0.0
C490 C 0.38287 0.48996 0.90966 0.0
C491 C 0.39573 0.49762 0.85745 0.0
C492 C 0.38381 0.54686 0.85284 0.0
N493 N 0.38827 0.65813 0.84672 0.0
C494 C 0.40639 0.62467 0.80687 0.0
C495 C 0.43224 0.64521 0.76631 0.0
C496 C 0.42938 0.69494 0.78084 0.0
C497 C 0.40177 0.70214 0.82972 0.0
N498 N 0.39952 0.64902 0.95329 0.0
C499 C 0.47573 0.65943 0.01097 0.0
C500 C 0.48143 0.6331 0.96121 0.0
C501 C 0.44299 0.62791 0.9334 0.0
C502 C 0.43085 0.67961 0.03189 0.0
C503 C 0.39333 0.67448 1.00217 0.0
N504 N 0.29431 0.63727 0.86855 0.0
C505 C 0.25431 0.66878 0.79824 0.0
C506 C 0.22208 0.63286 0.80287 0.0
C507 C 0.22666 0.59857 0.84153 0.0
C508 C 0.26327 0.60125 0.87388 0.0
C509 C 0.28922 0.67055 0.83123 0.0
H510 H 0.26665 0.57422 0.90285 0.0
H511 H 0.31254 0.69893 0.82569 0.0
H512 H 0.44866 0.60703 0.89549 0.0
H513 H 0.35936 0.69133 0.01865 0.0
C514 C 0.26565 0.70702 0.99149 0.0
C515 C 0.38167 0.7515 0.8526 0.0
C516 C 0.34265 0.54321 0.99097 0.0
C517 C 0.4018 0.574 0.81121 0.0
H518 H 0.32915 0.83582 0.91023 0.0
H519 H 0.26179 0.81197 0.98248 0.0
H520 H 0.22171 0.65371 0.0748 0.0
H521 H 0.26722 0.56558 0.07741 0.0
H522 H 0.38961 0.45558 0.92769 0.0
H523 H 0.415 0.47132 0.82758 0.0
H524 H 0.45083 0.62635 0.73036 0.0
H525 H 0.44405 0.72297 0.75691 0.0
H526 H 0.51549 0.61647 0.9439 0.0
H527 H 0.42504 0.70028 0.07023 0.0
H528 H 0.25325 0.69554 0.76875 0.0
H529 H 0.20261 0.56981 0.84631 0.0
C530 C 0.6971 0.60783 0.00779 0.0
C531 C 0.72415 0.61409 0.96022 0.0
C532 C 0.73686 0.66179 0.96311 0.0
C533 C 0.7174 0.68196 0.01231 0.0
N534 N 0.69363 0.64971 0.04114 0.0
Co535 Co 0.66069 0.66471 0.11488 0.0
N536 N 0.66516 0.73787 0.11184 0.0
C537 C 0.68347 0.76034 0.06944 0.0
C538 C 0.67143 0.8104 0.07286 0.0
C539 C 0.64552 0.82051 0.12158 0.0
C540 C 0.64578 0.77636 0.14648 0.0
N541 N 0.63105 0.67958 0.19025 0.0
C542 C 0.63025 0.7222 0.22268 0.0
C543 C 0.62879 0.71054 0.27538 0.0
C544 C 0.62377 0.66116 0.27674 0.0
C545 C 0.62559 0.64405 0.22492 0.0
N546 N 0.6526 0.59186 0.11539 0.0
C547 C 0.63766 0.56815 0.15819 0.0
C548 C 0.63065 0.51934 0.14669 0.0
C549 C 0.64187 0.51149 0.09289 0.0
C550 C 0.65591 0.55597 0.07461 0.0
N551 N 0.72156 0.65651 0.14431 0.0
C552 C 0.78932 0.64281 0.21415 0.0
C553 C 0.77576 0.60244 0.1842 0.0
C554 C 0.7429 0.61024 0.14838 0.0
C555 C 0.77193 0.69021 0.20472 0.0
C556 C 0.73851 0.69626 0.1699 0.0
N557 N 0.59974 0.67195 0.08714 0.0
C558 C 0.51911 0.65183 0.09071 0.0
C559 C 0.51707 0.66683 0.03939 0.0
C560 C 0.5562 0.68691 0.01379 0.0
C561 C 0.59667 0.68977 0.03847 0.0
C562 C 0.56081 0.65444 0.11372 0.0
H563 H 0.62579 0.70489 0.01675 0.0
H564 H 0.5619 0.64041 0.15216 0.0
H565 H 0.7339 0.57821 0.12571 0.0
H566 H 0.72537 0.73352 0.16656 0.0
C567 C 0.7102 0.73283 0.02661 0.0
C568 C 0.67446 0.56198 0.01894 0.0
C569 C 0.63542 0.77351 0.20484 0.0
C570 C 0.628 0.594 0.20761 0.0
H571 H 0.73237 0.58756 0.9262 0.0
H572 H 0.75506 0.68058 0.9315 0.0
H573 H 0.68086 0.83655 0.04379 0.0
H574 H 0.63207 0.85699 0.13879 0.0
H575 H 0.63322 0.73429 0.30976 0.0
H576 H 0.62267 0.63965 0.31117 0.0
H577 H 0.61785 0.49289 0.17394 0.0
H578 H 0.63988 0.47686 0.07005 0.0
H579 H 0.79002 0.56519 0.1888 0.0
H580 H 0.78268 0.7226 0.22589 0.0
H581 H 0.48947 0.63615 0.11192 0.0
H582 H 0.5558 0.69968 0.97438 0.0
C583 C 0.554 0.4156 0.90263 0.0
C584 C 0.51391 0.43994 0.88853 0.0
C585 C 0.52364 0.44929 0.8364 0.0
C586 C 0.56903 0.43075 0.82187 0.0
N587 N 0.58908 0.41113 0.86154 0.0
Co588 Co 0.65506 0.38199 0.85632 0.0
N589 N 0.67357 0.4122 0.78778 0.0
C590 C 0.64248 0.42556 0.75474 0.0
C591 C 0.66186 0.42768 0.70342 0.0
C592 C 0.70823 0.41501 0.70372 0.0
C593 C 0.71561 0.40938 0.75611 0.0
N594 N 0.72096 0.35146 0.8501 0.0
C595 C 0.75787 0.35416 0.81144 0.0
C596 C 0.78707 0.31066 0.80731 0.0
C597 C 0.7719 0.28341 0.84827 0.0
C598 C 0.73216 0.30945 0.87297 0.0
N599 N 0.63608 0.35147 0.92412 0.0
C600 C 0.65996 0.31342 0.94261 0.0
C601 C 0.63842 0.29834 0.98921 0.0
C602 C 0.59788 0.32847 1.00059 0.0
C603 C 0.59691 0.36018 0.95999 0.0
N604 N 0.63815 0.32221 0.81577 0.0
C605 C 0.61789 0.23377 0.76205 0.0
C606 C 0.588 0.25504 0.80628 0.0
C607 C 0.59872 0.29925 0.83254 0.0
C608 C 0.65744 0.2577 0.74476 0.0
C609 C 0.66676 0.30162 0.77175 0.0
N610 N 0.6712 0.44111 0.89847 0.0
C611 C 0.69894 0.47399 0.97884 0.0
C612 C 0.67526 0.52052 0.9757 0.0
C613 C 0.65256 0.52727 0.93057 0.0
C614 C 0.65127 0.48742 0.89236 0.0
C615 C 0.69632 0.43498 0.94025 0.0
H616 H 0.63225 0.49356 0.8591 0.0
H617 H 0.71287 0.39908 0.94566 0.0
H618 H 0.5751 0.31462 0.86651 0.0
H619 H 0.69755 0.31821 0.75642 0.0
C620 C 0.59496 0.43395 0.77276 0.0
C621 C 0.55554 0.39292 0.95329 0.0
C622 C 0.76173 0.39251 0.77204 0.0
C623 C 0.70289 0.29404 0.91559 0.0
H624 H 0.48076 0.44894 0.91299 0.0
H625 H 0.50063 0.46786 0.81211 0.0
H626 H 0.64403 0.43474 0.66931 0.0
H627 H 0.73316 0.40813 0.66852 0.0
H628 H 0.81493 0.29819 0.77606 0.0
H629 H 0.78637 0.24734 0.85684 0.0
H630 H 0.65045 0.26869 0.01193 0.0
H631 H 0.57116 0.32597 0.03376 0.0
H632 H 0.55649 0.23785 0.82018 0.0
H633 H 0.68088 0.24279 0.71006 0.0
H634 H 0.71833 0.46729 0.01187 0.0
H635 H 0.63472 0.56281 0.92558 0.0
loop_
_geom_bond_atom_site_label_1
_geom_bond_atom_site_label_2
_geom_bond_distance
_geom_bond_site_symmetry_2
_ccdc_geom_bond_type
C0 C1 1.432 1_455 S
C0 N4 1.383 . S
C0 C38 1.393 . S
C1 C0 1.432 1_655 S
C1 C2 1.340 . S
C1 H41 0.951 . S
C2 C1 1.340 . S
C2 C3 1.439 1_655 S
C2 H42 0.950 . S
C3 C2 1.439 1_455 S
C3 N4 1.374 . S
C3 C37 1.395 . S
N4 C0 1.383 . S
N4 C3 1.374 . S
N4 Co5 2.008 . S
Co5 N4 2.008 . S
Co5 N6 1.995 . S
Co5 N11 2.008 . S
Co5 N16 1.995 . S
Co5 N21 2.282 . S
Co5 N27 2.282 . S
N6 Co5 1.995 . S
N6 C7 1.376 . S
N6 C10 1.383 . S
C7 N6 1.376 . S
C7 C8 1.446 . S
C7 C37 1.391 . S
C8 C7 1.446 . S
C8 C9 1.339 . S
C8 H43 0.949 . S
C9 C8 1.339 . S
C9 C10 1.439 . S
C9 H44 0.950 . S
C10 N6 1.383 . S
C10 C9 1.439 . S
C10 C39 1.392 . S
N11 Co5 2.008 . S
N11 C12 1.376 . S
N11 C15 1.374 . S
C12 N11 1.376 . S
C12 C13 1.443 . S
C12 C39 1.389 . S
C13 C12 1.443 . S
C13 C14 1.340 . S
C13 H45 0.951 . S
C14 C13 1.340 . S
C14 C15 1.439 . S
C14 H46 0.950 . S
C15 N11 1.374 . S
C15 C14 1.439 . S
C15 C40 1.395 . S
N16 Co5 1.995 . S
N16 C17 1.376 . S
N16 C20 1.383 . S
C17 N16 1.376 . S
C17 C18 1.446 . S
C17 C40 1.391 . S
C18 C17 1.446 . S
C18 C19 1.339 . S
C18 H47 0.949 . S
C19 C18 1.339 . S
C19 C20 1.439 . S
C19 H48 0.950 . S
C20 N16 1.383 . S
C20 C19 1.439 . S
C20 C38 1.392 . S
N21 Co5 2.282 . S
N21 C24 1.332 . S
N21 C26 1.332 . S
C22 C23 1.386 . S
C22 C25 1.388 . S
C23 C22 1.386 . S
C23 C24 1.382 . S
C23 H49 0.950 . S
C24 N21 1.332 . S
C24 C23 1.382 . S
C24 H35 0.952 . S
C25 C22 1.388 . S
C25 C26 1.382 . S
C25 H50 0.950 . S
C26 N21 1.332 . S
C26 C25 1.382 . S
C26 H36 0.948 . S
N27 Co5 2.282 . S
N27 C31 1.332 . S
N27 C32 1.332 . S
C28 C29 1.388 1_455 S
C28 C32 1.382 . S
C28 H51 0.950 . S
C29 C28 1.388 1_655 S
C29 C30 1.386 . S
C30 C29 1.386 . S
C30 C31 1.382 1_655 S
C30 H52 0.950 . S
C31 N27 1.332 . S
C31 C30 1.382 1_455 S
C31 H33 0.952 . S
C32 N27 1.332 . S
C32 C28 1.382 . S
C32 H34 0.948 . S
H33 C31 0.952 . S
H34 C32 0.948 . S
H35 C24 0.952 . S
H36 C26 0.948 . S
C37 C3 1.395 . S
C37 C7 1.391 . S
C38 C0 1.393 . S
C38 C20 1.392 . S
C39 C10 1.392 . S
C39 C12 1.389 . S
C40 C15 1.395 . S
C40 C17 1.391 . S
H41 C1 0.951 . S
H42 C2 0.950 . S
H43 C8 0.949 . S
H44 C9 0.950 . S
H45 C13 0.951 . S
H46 C14 0.950 . S
H47 C18 0.949 . S
H48 C19 0.950 . S
H49 C23 0.950 . S
H50 C25 0.950 . S
H51 C28 0.950 . S
H52 C30 0.950 . S
C53 C54 1.443 . S
C53 N57 1.376 . S
C53 C91 1.389 . S
C54 C53 1.443 . S
C54 C55 1.340 . S
C54 H94 0.951 . S
C55 C54 1.340 . S
C55 C56 1.439 . S
C55 H95 0.950 . S
C56 C55 1.439 . S
C56 N57 1.374 . S
C56 C90 1.395 1_565 S
N57 C53 1.376 . S
N57 C56 1.374 . S
N57 Co58 2.008 . S
Co58 N57 2.008 . S
Co58 N59 1.995 . S
Co58 N64 2.008 . S
Co58 N69 1.995 . S
Co58 N74 2.282 . S
Co58 N80 2.282 . S
N59 Co58 1.995 . S
N59 C60 1.376 1_565 S
N59 C63 1.383 . S
C60 N59 1.376 1_545 S
C60 C61 1.446 . S
C60 C90 1.391 . S
C61 C60 1.446 . S
C61 C62 1.339 . S
C61 H96 0.949 . S
C62 C61 1.339 . S
C62 C63 1.439 1_545 S
C62 H97 0.950 . S
C63 N59 1.383 . S
C63 C62 1.439 1_565 S
C63 C92 1.392 . S
N64 Co58 2.008 . S
N64 C65 1.376 . S
N64 C68 1.374 . S
C65 N64 1.376 . S
C65 C66 1.443 . S
C65 C92 1.389 . S
C66 C65 1.443 . S
C66 C67 1.340 . S
C66 H98 0.951 . S
C67 C66 1.340 . S
C67 C68 1.439 . S
C67 H99 0.950 . S
C68 N64 1.374 . S
C68 C67 1.439 . S
C68 C93 1.395 . S
N69 Co58 1.995 . S
N69 C70 1.376 . S
N69 C73 1.383 . S
C70 N69 1.376 . S
C70 C71 1.446 . S
C70 C93 1.391 . S
C71 C70 1.446 . S
C71 C72 1.339 . S
C71 H100 0.949 . S
C72 C71 1.339 . S
C72 C73 1.439 . S
C72 H101 0.950 . S
C73 N69 1.383 . S
C73 C72 1.439 . S
C73 C91 1.392 . S
N74 Co58 2.282 . S
N74 C77 1.332 . S
N74 C79 1.332 1_565 S
C75 C76 1.386 1_545 S
C75 C78 1.388 . S
C76 C75 1.386 1_565 S
C76 C77 1.382 . S
C76 H102 0.950 . S
C77 N74 1.332 . S
C77 C76 1.382 . S
C77 H88 0.952 . S
C78 C75 1.388 . S
C78 C79 1.382 . S
C78 H103 0.950 . S
C79 N74 1.332 1_545 S
C79 C78 1.382 . S
C79 H89 0.948 . S
N80 Co58 2.282 . S
N80 C84 1.332 . S
N80 C85 1.332 . S
C81 C82 1.388 . S
C81 C85 1.382 . S
C81 H104 0.950 . S
C82 C81 1.388 . S
C82 C83 1.386 . S
C83 C82 1.386 . S
C83 C84 1.382 . S
C83 H105 0.950 . S
C84 N80 1.332 . S
C84 C83 1.382 . S
C84 H86 0.952 . S
C85 N80 1.332 . S
C85 C81 1.382 . S
C85 H87 0.948 . S
H86 C84 0.952 . S
H87 C85 0.948 . S
H88 C77 0.952 . S
H89 C79 0.948 . S
C90 C56 1.395 1_545 S
C90 C60 1.391 . S
C91 C53 1.389 . S
C91 C73 1.392 . S
C92 C63 1.392 . S
C92 C65 1.389 . S
C93 C68 1.395 . S
C93 C70 1.391 . S
H94 C54 0.951 . S
H95 C55 0.950 . S
H96 C61 0.949 . S
H97 C62 0.950 . S
H98 C66 0.951 . S
H99 C67 0.950 . S
H100 C71 0.949 . S
H101 C72 0.950 . S
H102 C76 0.950 . S
H103 C78 0.950 . S
H104 C81 0.950 . S
H105 C83 0.950 . S
C106 C107 1.443 . S
C106 N110 1.376 . S
C106 C144 1.389 . S
C107 C106 1.443 . S
C107 C108 1.340 . S
C107 H147 0.951 . S
C108 C107 1.340 . S
C108 C109 1.439 . S
C108 H148 0.950 . S
C109 C108 1.439 . S
C109 N110 1.374 . S
C109 C143 1.395 . S
N110 C106 1.376 . S
N110 C109 1.374 . S
N110 Co111 2.008 . S
Co111 N110 2.008 . S
Co111 N112 1.995 . S
Co111 N117 2.008 . S
Co111 N122 1.995 . S
Co111 N127 2.282 . S
Co111 N133 2.282 . S
N112 Co111 1.995 . S
N112 C113 1.376 . S
N112 C116 1.383 . S
C113 N112 1.376 . S
C113 C114 1.446 . S
C113 C143 1.391 . S
C114 C113 1.446 . S
C114 C115 1.339 . S
C114 H149 0.949 . S
C115 C114 1.339 . S
C115 C116 1.439 . S
C115 H150 0.950 . S
C116 N112 1.383 . S
C116 C115 1.439 . S
C116 C145 1.392 . S
N117 Co111 2.008 . S
N117 C118 1.376 . S
N117 C121 1.374 . S
C118 N117 1.376 . S
C118 C119 1.443 . S
C118 C145 1.389 . S
C119 C118 1.443 . S
C119 C120 1.340 . S
C119 H151 0.951 . S
C120 C119 1.340 . S
C120 C121 1.439 . S
C120 H152 0.950 . S
C121 N117 1.374 . S
C121 C120 1.439 . S
C121 C146 1.395 1_655 S
N122 Co111 1.995 . S
N122 C123 1.376 1_655 S
N122 C126 1.383 1_655 S
C123 N122 1.376 1_455 S
C123 C124 1.446 . S
C123 C146 1.391 . S
C124 C123 1.446 . S
C124 C125 1.339 . S
C124 H153 0.949 . S
C125 C124 1.339 . S
C125 C126 1.439 . S
C125 H154 0.950 . S
C126 N122 1.383 1_455 S
C126 C125 1.439 . S
C126 C144 1.392 1_455 S
N127 Co111 2.282 . S
N127 C130 1.332 . S
N127 C132 1.332 . S
C128 C129 1.386 . S
C128 C131 1.388 . S
C129 C128 1.386 . S
C129 C130 1.382 . S
C129 H155 0.950 . S
C130 N127 1.332 . S
C130 C129 1.382 . S
C130 H141 0.952 . S
C131 C128 1.388 . S
C131 C132 1.382 . S
C131 H156 0.950 . S
C132 N127 1.332 . S
C132 C131 1.382 . S
C132 H142 0.948 . S
N133 Co111 2.282 . S
N133 C137 1.332 . S
N133 C138 1.332 1_655 S
C134 C135 1.388 . S
C134 C138 1.382 . S
C134 H157 0.950 . S
C135 C134 1.388 . S
C135 C136 1.386 1_455 S
C136 C135 1.386 1_655 S
C136 C137 1.382 . S
C136 H158 0.950 . S
C137 N133 1.332 . S
C137 C136 1.382 . S
C137 H139 0.952 . S
C138 N133 1.332 1_455 S
C138 C134 1.382 . S
C138 H140 0.948 . S
H139 C137 0.952 . S
H140 C138 0.948 . S
H141 C130 0.952 . S
H142 C132 0.948 . S
C143 C109 1.395 . S
C143 C113 1.391 . S
C144 C106 1.389 . S
C144 C126 1.392 1_655 S
C145 C116 1.392 . S
C145 C118 1.389 . S
C146 C121 1.395 1_455 S
C146 C123 1.391 . S
H147 C107 0.951 . S
H148 C108 0.950 . S
H149 C114 0.949 . S
H150 C115 0.950 . S
H151 C119 0.951 . S
H152 C120 0.950 . S
H153 C124 0.949 . S
H154 C125 0.950 . S
H155 C129 0.950 . S
H156 C131 0.950 . S
H157 C134 0.950 . S
H158 C136 0.950 . S
C159 C160 1.443 . S
C159 N163 1.376 . S
C159 C197 1.389 . S
C160 C159 1.443 . S
C160 C161 1.340 . S
C160 H200 0.951 . S
C161 C160 1.340 . S
C161 C162 1.439 . S
C161 H201 0.950 . S
C162 C161 1.439 . S
C162 N163 1.374 . S
C162 C196 1.395 . S
N163 C159 1.376 . S
N163 C162 1.374 . S
N163 Co164 2.008 . S
Co164 N163 2.008 . S
Co164 N165 1.995 . S
Co164 N170 2.012 . S
Co164 N175 1.995 . S
Co164 N180 2.282 . S
Co164 N186 2.282 . S
N165 Co164 1.995 . S
N165 C166 1.376 . S
N165 C169 1.383 . S
C166 N165 1.376 . S
C166 C167 1.446 . S
C166 C196 1.391 . S
C167 C166 1.446 . S
C167 C168 1.339 . S
C167 H202 0.949 . S
C168 C167 1.339 . S
C168 C169 1.439 . S
C168 H203 0.950 . S
C169 N165 1.383 . S
C169 C168 1.439 . S
C169 C198 1.392 1_545 S
N170 Co164 2.012 . S
N170 C171 1.374 1_545 S
N170 C174 1.371 1_545 S
C171 N170 1.374 1_565 S
C171 C172 1.443 . S
C171 C198 1.389 . S
C172 C171 1.443 . S
C172 C173 1.340 . S
C172 H204 0.951 . S
C173 C172 1.340 . S
C173 C174 1.439 . S
C173 H205 0.950 . S
C174 N170 1.371 1_565 S
C174 C173 1.439 . S
C174 C199 1.395 . S
N175 Co164 1.995 . S
N175 C176 1.376 . S
N175 C179 1.383 . S
C176 N175 1.376 . S
C176 C177 1.446 . S
C176 C199 1.391 1_545 S
C177 C176 1.446 . S
C177 C178 1.339 . S
C177 H206 0.949 . S
C178 C177 1.339 . S
C178 C179 1.439 . S
C178 H207 0.950 . S
C179 N175 1.383 . S
C179 C178 1.439 . S
C179 C197 1.392 . S
N180 Co164 2.282 . S
N180 C183 1.332 1_545 S
N180 C185 1.332 . S
C181 C182 1.386 . S
C181 C184 1.388 1_565 S
C182 C181 1.386 . S
C182 C183 1.382 . S
C182 H208 0.950 . S
C183 N180 1.332 1_565 S
C183 C182 1.382 . S
C183 H194 0.952 . S
C184 C181 1.388 1_545 S
C184 C185 1.382 . S
C184 H209 0.950 . S
C185 N180 1.332 . S
C185 C184 1.382 . S
C185 H195 0.948 . S
N186 Co164 2.282 . S
N186 C190 1.332 . S
N186 C191 1.332 . S
C187 C188 1.388 . S
C187 C191 1.382 . S
C187 H210 0.950 . S
C188 C187 1.388 . S
C188 C189 1.386 . S
C189 C188 1.386 . S
C189 C190 1.382 . S
C189 H211 0.950 . S
C190 N186 1.332 . S
C190 C189 1.382 . S
C190 H192 0.952 . S
C191 N186 1.332 . S
C191 C187 1.382 . S
C191 H193 0.948 . S
H192 C190 0.952 . S
H193 C191 0.948 . S
H194 C183 0.952 . S
H195 C185 0.948 . S
C196 C162 1.395 . S
C196 C166 1.391 . S
C197 C159 1.389 . S
C197 C179 1.392 . S
C198 C169 1.392 1_565 S
C198 C171 1.389 . S
C199 C174 1.395 . S
C199 C176 1.391 1_565 S
H200 C160 0.951 . S
H201 C161 0.950 . S
H202 C167 0.949 . S
H203 C168 0.950 . S
H204 C172 0.951 . S
H205 C173 0.950 . S
H206 C177 0.949 . S
H207 C178 0.950 . S
H208 C182 0.950 . S
H209 C184 0.950 . S
H210 C187 0.950 . S
H211 C189 0.950 . S
C212 C213 1.443 . S
C212 N216 1.376 . S
C212 C250 1.389 . S
C213 C212 1.443 . S
C213 C214 1.340 . S
C213 H253 0.951 . S
C214 C213 1.340 . S
C214 C215 1.439 . S
C214 H254 0.950 . S
C215 C214 1.439 . S
C215 N216 1.374 . S
C215 C249 1.395 . S
N216 C212 1.376 . S
N216 C215 1.374 . S
N216 Co217 2.008 . S
Co217 N216 2.008 . S
Co217 N218 1.995 . S
Co217 N223 2.008 . S
Co217 N228 1.995 . S
Co217 N233 2.282 . S
Co217 N239 2.282 . S
N218 Co217 1.995 . S
N218 C219 1.376 1_455 S
N218 C222 1.383 . S
C219 N218 1.376 1_655 S
C219 C220 1.446 . S
C219 C249 1.391 1_655 S
C220 C219 1.446 . S
C220 C221 1.339 . S
C220 H255 0.949 . S
C221 C220 1.339 . S
C221 C222 1.439 1_655 S
C221 H256 0.950 . S
C222 N218 1.383 . S
C222 C221 1.439 1_455 S
C222 C251 1.392 . S
N223 Co217 2.008 . S
N223 C224 1.376 . S
N223 C227 1.374 . S
C224 N223 1.376 . S
C224 C225 1.443 . S
C224 C251 1.389 . S
C225 C224 1.443 . S
C225 C226 1.340 . S
C225 H257 0.951 . S
C226 C225 1.340 . S
C226 C227 1.439 . S
C226 H258 0.950 . S
C227 N223 1.374 . S
C227 C226 1.439 . S
C227 C252 1.395 . S
N228 Co217 1.995 . S
N228 C229 1.376 . S
N228 C232 1.383 . S
C229 N228 1.376 . S
C229 C230 1.446 . S
C229 C252 1.391 . S
C230 C229 1.446 . S
C230 C231 1.339 . S
C230 H259 0.949 . S
C231 C230 1.339 . S
C231 C232 1.439 . S
C231 H260 0.950 . S
C232 N228 1.383 . S
C232 C231 1.439 . S
C232 C250 1.392 . S
N233 Co217 2.282 . S
N233 C236 1.332 . S
N233 C238 1.332 1_455 S
C234 C235 1.386 1_655 S
C234 C237 1.388 . S
C235 C234 1.386 1_455 S
C235 C236 1.382 . S
C235 H261 0.950 . S
C236 N233 1.332 . S
C236 C235 1.382 . S
C236 H247 0.952 . S
C237 C234 1.388 . S
C237 C238 1.382 . S
C237 H262 0.950 . S
C238 N233 1.332 1_655 S
C238 C237 1.382 . S
C238 H248 0.948 . S
N239 Co217 2.282 . S
N239 C243 1.332 . S
N239 C244 1.332 . S
C240 C241 1.388 . S
C240 C244 1.382 . S
C240 H263 0.950 . S
C241 C240 1.388 . S
C241 C242 1.386 . S
C242 C241 1.386 . S
C242 C243 1.382 . S
C242 H264 0.950 . S
C243 N239 1.332 . S
C243 C242 1.382 . S
C243 H245 0.952 . S
C244 N239 1.332 . S
C244 C240 1.382 . S
C244 H246 0.948 . S
H245 C243 0.952 . S
H246 C244 0.948 . S
H247 C236 0.952 . S
H248 C238 0.948 . S
C249 C215 1.395 . S
C249 C219 1.391 1_455 S
C250 C212 1.389 . S
C250 C232 1.392 . S
C251 C222 1.392 . S
C251 C224 1.389 . S
C252 C227 1.395 . S
C252 C229 1.391 . S
H253 C213 0.951 . S
H254 C214 0.950 . S
H255 C220 0.949 . S
H256 C221 0.950 . S
H257 C225 0.951 . S
H258 C226 0.950 . S
H259 C230 0.949 . S
H260 C231 0.950 . S
H261 C235 0.950 . S
H262 C237 0.950 . S
H263 C240 0.950 . S
H264 C242 0.950 . S
C265 C266 1.443 . S
C265 N269 1.376 . S
C265 C303 1.389 . S
C266 C265 1.443 . S
C266 C267 1.340 . S
C266 H306 0.951 . S
C267 C266 1.340 . S
C267 C268 1.439 . S
C267 H307 0.950 . S
C268 C267 1.439 . S
C268 N269 1.374 . S
C268 C302 1.395 . S
N269 C265 1.376 . S
N269 C268 1.374 . S
N269 Co270 2.008 . S
Co270 N269 2.008 . S
Co270 N271 1.995 . S
Co270 N276 2.008 . S
Co270 N281 1.995 . S
Co270 N286 2.282 . S
Co270 N292 2.282 . S
N271 Co270 1.995 . S
N271 C272 1.376 . S
N271 C275 1.383 . S
C272 N271 1.376 . S
C272 C273 1.446 . S
C272 C302 1.391 . S
C273 C272 1.446 . S
C273 C274 1.339 . S
C273 H308 0.949 . S
C274 C273 1.339 . S
C274 C275 1.439 . S
C274 H309 0.950 . S
C275 N271 1.383 . S
C275 C274 1.439 . S
C275 C304 1.392 . S
N276 Co270 2.008 . S
N276 C277 1.376 . S
N276 C280 1.374 . S
C277 N276 1.376 . S
C277 C278 1.443 . S
C277 C304 1.389 . S
C278 C277 1.443 . S
C278 C279 1.340 . S
C278 H310 0.951 . S
C279 C278 1.340 . S
C279 C280 1.439 . S
C279 H311 0.950 . S
C280 N276 1.374 . S
C280 C279 1.439 . S
C280 C305 1.395 . S
N281 Co270 1.995 . S
N281 C282 1.384 . S
N281 C285 1.383 1_565 S
C282 N281 1.384 . S
C282 C283 1.435 1_565 S
C282 C305 1.394 . S
C283 C282 1.435 1_545 S
C283 C284 1.339 . S
C283 H312 0.949 . S
C284 C283 1.339 . S
C284 C285 1.439 . S
C284 H313 0.950 . S
C285 N281 1.383 1_545 S
C285 C284 1.439 . S
C285 C303 1.392 1_545 S
N286 Co270 2.282 . S
N286 C289 1.332 . S
N286 C291 1.332 . S
C287 C288 1.386 . S
C287 C290 1.388 . S
C288 C287 1.386 . S
C288 C289 1.382 . S
C288 H314 0.950 . S
C289 N286 1.332 . S
C289 C288 1.382 . S
C289 H300 0.952 . S
C290 C287 1.388 . S
C290 C291 1.382 . S
C290 H315 0.950 . S
C291 N286 1.332 . S
C291 C290 1.382 . S
C291 H301 0.948 . S
N292 Co270 2.282 . S
N292 C296 1.332 . S
N292 C297 1.332 1_565 S
C293 C294 1.388 . S
C293 C297 1.382 . S
C293 H316 0.950 . S
C294 C293 1.388 . S
C294 C295 1.386 1_545 S
C295 C294 1.386 1_565 S
C295 C296 1.382 . S
C295 H317 0.950 . S
C296 N292 1.332 . S
C296 C295 1.382 . S
C296 H298 0.952 . S
C297 N292 1.332 1_545 S
C297 C293 1.382 . S
C297 H299 0.948 . S
H298 C296 0.952 . S
H299 C297 0.948 . S
H300 C289 0.952 . S
H301 C291 0.948 . S
C302 C268 1.395 . S
C302 C272 1.391 . S
C303 C265 1.389 . S
C303 C285 1.392 1_565 S
C304 C275 1.392 . S
C304 C277 1.389 . S
C305 C280 1.395 . S
C305 C282 1.394 . S
H306 C266 0.951 . S
H307 C267 0.950 . S
H308 C273 0.949 . S
H309 C274 0.950 . S
H310 C278 0.951 . S
H311 C279 0.950 . S
H312 C283 0.949 . S
H313 C284 0.950 . S
H314 C288 0.950 . S
H315 C290 0.950 . S
H316 C293 0.950 . S
H317 C295 0.950 . S
C318 C319 1.443 . S
C318 N322 1.376 . S
C318 C356 1.389 . S
C319 C318 1.443 . S
C319 C320 1.340 . S
C319 H359 0.951 . S
C320 C319 1.340 . S
C320 C321 1.439 . S
C320 H360 0.950 . S
C321 C320 1.439 . S
C321 N322 1.374 . S
C321 C355 1.395 . S
N322 C318 1.376 . S
N322 C321 1.374 . S
N322 Co323 2.008 . S
Co323 N322 2.008 . S
Co323 N324 1.995 . S
Co323 N329 2.008 . S
Co323 N334 1.995 . S
Co323 N339 2.282 . S
Co323 N345 2.282 . S
N324 Co323 1.995 . S
N324 C325 1.376 . S
N324 C328 1.383 . S
C325 N324 1.376 . S
C325 C326 1.446 1_655 S
C325 C355 1.391 . S
C326 C325 1.446 1_455 S
C326 C327 1.339 . S
C326 H361 0.949 . S
C327 C326 1.339 . S
C327 C328 1.439 1_455 S
C327 H362 0.950 . S
C328 N324 1.383 . S
C328 C327 1.439 1_655 S
C328 C357 1.392 . S
N329 Co323 2.008 . S
N329 C330 1.376 . S
N329 C333 1.374 . S
C330 N329 1.376 . S
C330 C331 1.443 . S
C330 C357 1.389 . S
C331 C330 1.443 . S
C331 C332 1.340 . S
C331 H363 0.951 . S
C332 C331 1.340 . S
C332 C333 1.439 . S
C332 H364 0.950 . S
C333 N329 1.374 . S
C333 C332 1.439 . S
C333 C358 1.395 . S
N334 Co323 1.995 . S
N334 C335 1.376 . S
N334 C338 1.383 . S
C335 N334 1.376 . S
C335 C336 1.446 . S
C335 C358 1.391 . S
C336 C335 1.446 . S
C336 C337 1.339 . S
C336 H365 0.949 . S
C337 C336 1.339 . S
C337 C338 1.439 . S
C337 H366 0.950 . S
C338 N334 1.383 . S
C338 C337 1.439 . S
C338 C356 1.392 . S
N339 Co323 2.282 . S
N339 C342 1.332 . S
N339 C344 1.332 . S
C340 C341 1.386 1_455 S
C340 C343 1.388 . S
C341 C340 1.386 1_655 S
C341 C342 1.382 . S
C341 H367 0.950 . S
C342 N339 1.332 . S
C342 C341 1.382 . S
C342 H353 0.952 . S
C343 C340 1.388 . S
C343 C344 1.382 1_455 S
C343 H368 0.950 . S
C344 N339 1.332 . S
C344 C343 1.382 1_655 S
C344 H354 0.948 1_655 S
N345 Co323 2.282 . S
N345 C349 1.332 . S
N345 C350 1.332 . S
C346 C347 1.388 . S
C346 C350 1.382 . S
C346 H369 0.950 . S
C347 C346 1.388 . S
C347 C348 1.386 . S
C348 C347 1.386 . S
C348 C349 1.382 . S
C348 H370 0.950 . S
C349 N345 1.332 . S
C349 C348 1.382 . S
C349 H351 0.952 . S
C350 N345 1.332 . S
C350 C346 1.382 . S
C350 H352 0.948 . S
H351 C349 0.952 . S
H352 C350 0.948 . S
H353 C342 0.952 . S
H354 C344 0.948 1_455 S
C355 C321 1.395 . S
C355 C325 1.391 . S
C356 C318 1.389 . S
C356 C338 1.392 . S
C357 C328 1.392 . S
C357 C330 1.389 . S
C358 C333 1.395 . S
C358 C335 1.391 . S
H359 C319 0.951 . S
H360 C320 0.950 . S
H361 C326 0.949 . S
H362 C327 0.950 . S
H363 C331 0.951 . S
H364 C332 0.950 . S
H365 C336 0.949 . S
H366 C337 0.950 . S
H367 C341 0.950 . S
H368 C343 0.950 . S
H369 C346 0.950 . S
H370 C348 0.950 . S
C371 C372 1.443 . S
C371 N375 1.376 . S
C371 C409 1.389 . S
C372 C371 1.443 . S
C372 C373 1.340 . S
C372 H412 0.951 . S
C373 C372 1.340 . S
C373 C374 1.439 . S
C373 H413 0.950 . S
C374 C373 1.439 . S
C374 N375 1.374 . S
C374 C408 1.395 . S
N375 C371 1.376 . S
N375 C374 1.374 . S
N375 Co376 2.008 . S
Co376 N375 2.008 . S
Co376 N377 1.995 . S
Co376 N382 2.008 . S
Co376 N387 1.995 . S
Co376 N392 2.282 . S
Co376 N398 2.282 . S
N377 Co376 1.995 . S
N377 C378 1.376 . S
N377 C381 1.383 . S
C378 N377 1.376 . S
C378 C379 1.446 1_545 S
C378 C408 1.391 . S
C379 C378 1.446 1_565 S
C379 C380 1.339 . S
C379 H414 0.949 . S
C380 C379 1.339 . S
C380 C381 1.439 1_565 S
C380 H415 0.950 . S
C381 N377 1.383 . S
C381 C380 1.439 1_545 S
C381 C410 1.392 . S
N382 Co376 2.008 . S
N382 C383 1.376 . S
N382 C386 1.374 . S
C383 N382 1.376 . S
C383 C384 1.443 . S
C383 C410 1.389 . S
C384 C383 1.443 . S
C384 C385 1.340 . S
C384 H416 0.951 . S
C385 C384 1.340 . S
C385 C386 1.439 . S
C385 H417 0.950 . S
C386 N382 1.374 . S
C386 C385 1.439 . S
C386 C411 1.395 . S
N387 Co376 1.995 . S
N387 C388 1.376 . S
N387 C391 1.383 . S
C388 N387 1.376 . S
C388 C389 1.446 . S
C388 C411 1.391 . S
C389 C388 1.446 . S
C389 C390 1.339 . S
C389 H418 0.949 . S
C390 C389 1.339 . S
C390 C391 1.439 . S
C390 H419 0.950 . S
C391 N387 1.383 . S
C391 C390 1.439 . S
C391 C409 1.392 . S
N392 Co376 2.282 . S
N392 C395 1.332 . S
N392 C397 1.332 . S
C393 C394 1.386 . S
C393 C396 1.388 1_545 S
C394 C393 1.386 . S
C394 C395 1.382 . S
C394 H420 0.950 . S
C395 N392 1.332 . S
C395 C394 1.382 . S
C395 H406 0.952 . S
C396 C393 1.388 1_565 S
C396 C397 1.382 1_565 S
C396 H421 0.950 . S
C397 N392 1.332 . S
C397 C396 1.382 1_545 S
C397 H407 0.948 . S
N398 Co376 2.282 . S
N398 C402 1.332 . S
N398 C403 1.332 . S
C399 C400 1.388 . S
C399 C403 1.382 . S
C399 H422 0.950 . S
C400 C399 1.388 . S
C400 C401 1.386 . S
C401 C400 1.386 . S
C401 C402 1.382 . S
C401 H423 0.950 . S
C402 N398 1.332 . S
C402 C401 1.382 . S
C402 H404 0.952 . S
C403 N398 1.332 . S
C403 C399 1.382 . S
C403 H405 0.948 . S
H404 C402 0.952 . S
H405 C403 0.948 . S
H406 C395 0.952 . S
H407 C397 0.948 . S
C408 C374 1.395 . S
C408 C378 1.391 . S
C409 C371 1.389 . S
C409 C391 1.392 . S
C410 C381 1.392 . S
C410 C383 1.389 . S
C411 C386 1.395 . S
C411 C388 1.391 . S
H412 C372 0.951 . S
H413 C373 0.950 . S
H414 C379 0.949 . S
H415 C380 0.950 . S
H416 C384 0.951 . S
H417 C385 0.950 . S
H418 C389 0.949 . S
H419 C390 0.950 . S
H420 C394 0.950 . S
H421 C396 0.950 . S
H422 C399 0.950 . S
H423 C401 0.950 . S
C424 C425 1.443 . S
C424 N428 1.376 . S
C424 C462 1.389 . S
C425 C424 1.443 . S
C425 C426 1.340 . S
C425 H465 0.951 . S
C426 C425 1.340 . S
C426 C427 1.439 . S
C426 H466 0.950 . S
C427 C426 1.439 . S
C427 N428 1.374 . S
C427 C461 1.395 1_554 S
N428 C424 1.376 . S
N428 C427 1.374 . S
N428 Co429 2.008 . S
Co429 N428 2.008 . S
Co429 N430 1.995 . S
Co429 N435 2.008 . S
Co429 N440 1.995 . S
Co429 N445 2.282 . S
Co429 N451 2.282 . S
N430 Co429 1.995 . S
N430 C431 1.376 1_554 S
N430 C434 1.383 1_554 S
C431 N430 1.376 1_556 S
C431 C432 1.446 . S
C431 C461 1.391 . S
C432 C431 1.446 . S
C432 C433 1.339 . S
C432 H467 0.949 . S
C433 C432 1.339 . S
C433 C434 1.439 . S
C433 H468 0.950 . S
C434 N430 1.383 1_556 S
C434 C433 1.439 . S
C434 C463 1.392 1_556 S
N435 Co429 2.008 . S
N435 C436 1.376 . S
N435 C439 1.374 . S
C436 N435 1.376 . S
C436 C437 1.443 . S
C436 C463 1.389 . S
C437 C436 1.443 . S
C437 C438 1.340 . S
C437 H469 0.951 . S
C438 C437 1.340 . S
C438 C439 1.439 . S
C438 H470 0.950 . S
C439 N435 1.374 . S
C439 C438 1.439 . S
C439 C464 1.395 . S
N440 Co429 1.995 . S
N440 C441 1.376 . S
N440 C444 1.383 . S
C441 N440 1.376 . S
C441 C442 1.446 . S
C441 C464 1.391 . S
C442 C441 1.446 . S
C442 C443 1.339 . S
C442 H471 0.949 . S
C443 C442 1.339 . S
C443 C444 1.439 . S
C443 H472 0.950 . S
C444 N440 1.383 . S
C444 C443 1.439 . S
C444 C462 1.392 . S
N445 Co429 2.282 . S
N445 C448 1.332 . S
N445 C450 1.332 1_554 S
C446 C447 1.386 1_556 S
C446 C449 1.388 . S
C447 C446 1.386 1_554 S
C447 C448 1.382 . S
C447 H473 0.950 . S
C448 N445 1.332 . S
C448 C447 1.382 . S
C448 H459 0.952 . S
C449 C446 1.388 . S
C449 C450 1.382 . S
C449 H474 0.950 . S
C450 N445 1.332 1_556 S
C450 C449 1.382 . S
C450 H460 0.948 . S
N451 Co429 2.282 . S
N451 C455 1.332 . S
N451 C456 1.332 . S
C452 C453 1.388 . S
C452 C456 1.382 . S
C452 H475 0.950 . S
C453 C452 1.388 . S
C453 C454 1.386 . S
C454 C453 1.386 . S
C454 C455 1.382 . S
C454 H476 0.950 . S
C455 N451 1.332 . S
C455 C454 1.382 . S
C455 H457 0.952 . S
C456 N451 1.332 . S
C456 C452 1.382 . S
C456 H458 0.948 . S
H457 C455 0.952 . S
H458 C456 0.948 . S
H459 C448 0.952 . S
H460 C450 0.948 . S
C461 C427 1.395 1_556 S
C461 C431 1.391 . S
C462 C424 1.389 . S
C462 C444 1.392 . S
C463 C434 1.392 1_554 S
C463 C436 1.389 . S
C464 C439 1.395 . S
C464 C441 1.391 . S
H465 C425 0.951 . S
H466 C426 0.950 . S
H467 C432 0.949 . S
H468 C433 0.950 . S
H469 C437 0.951 . S
H470 C438 0.950 . S
H471 C442 0.949 . S
H472 C443 0.950 . S
H473 C447 0.950 . S
H474 C449 0.950 . S
H475 C452 0.950 . S
H476 C454 0.950 . S
C477 C478 1.443 . S
C477 N481 1.376 . S
C477 C515 1.389 . S
C478 C477 1.443 . S
C478 C479 1.340 . S
C478 H518 0.951 . S
C479 C478 1.340 . S
C479 C480 1.439 . S
C479 H519 0.950 1_556 S
C480 C479 1.439 . S
C480 N481 1.374 . S
C480 C514 1.395 1_556 S
N481 C477 1.376 . S
N481 C480 1.374 . S
N481 Co482 2.008 . S
Co482 N481 2.008 . S
Co482 N483 1.995 . S
Co482 N488 2.008 . S
Co482 N493 1.995 . S
Co482 N498 2.282 . S
Co482 N504 2.282 . S
N483 Co482 1.995 . S
N483 C484 1.376 1_556 S
N483 C487 1.383 1_556 S
C484 N483 1.376 1_554 S
C484 C485 1.446 . S
C484 C514 1.391 . S
C485 C484 1.446 . S
C485 C486 1.339 . S
C485 H520 0.949 . S
C486 C485 1.339 . S
C486 C487 1.439 . S
C486 H521 0.950 . S
C487 N483 1.383 1_554 S
C487 C486 1.439 . S
C487 C516 1.392 1_554 S
N488 Co482 2.008 . S
N488 C489 1.376 . S
N488 C492 1.374 . S
C489 N488 1.376 . S
C489 C490 1.443 . S
C489 C516 1.389 . S
C490 C489 1.443 . S
C490 C491 1.340 . S
C490 H522 0.951 . S
C491 C490 1.340 . S
C491 C492 1.439 . S
C491 H523 0.950 . S
C492 N488 1.374 . S
C492 C491 1.439 . S
C492 C517 1.395 . S
N493 Co482 1.995 . S
N493 C494 1.376 . S
N493 C497 1.383 . S
C494 N493 1.376 . S
C494 C495 1.446 . S
C494 C517 1.391 . S
C495 C494 1.446 . S
C495 C496 1.339 . S
C495 H524 0.949 . S
C496 C495 1.339 . S
C496 C497 1.439 . S
C496 H525 0.950 . S
C497 N493 1.383 . S
C497 C496 1.439 . S
C497 C515 1.392 . S
N498 Co482 2.282 . S
N498 C501 1.332 . S
N498 C503 1.332 1_556 S
C499 C500 1.386 1_554 S
C499 C502 1.388 . S
C500 C499 1.386 1_556 S
C500 C501 1.382 . S
C500 H526 0.950 . S
C501 N498 1.332 . S
C501 C500 1.382 . S
C501 H512 0.952 . S
C502 C499 1.388 . S
C502 C503 1.382 . S
C502 H527 0.950 . S
C503 N498 1.332 1_554 S
C503 C502 1.382 . S
C503 H513 0.948 . S
N504 Co482 2.282 . S
N504 C508 1.332 . S
N504 C509 1.332 . S
C505 C506 1.388 . S
C505 C509 1.382 . S
C505 H528 0.950 . S
C506 C505 1.388 . S
C506 C507 1.386 . S
C507 C506 1.386 . S
C507 C508 1.382 . S
C507 H529 0.950 . S
C508 N504 1.332 . S
C508 C507 1.382 . S
C508 H510 0.952 . S
C509 N504 1.332 . S
C509 C505 1.382 . S
C509 H511 0.948 . S
H510 C508 0.952 . S
H511 C509 0.948 . S
H512 C501 0.952 . S
H513 C503 0.948 . S
C514 C480 1.395 1_554 S
C514 C484 1.391 . S
C515 C477 1.389 . S
C515 C497 1.392 . S
C516 C487 1.392 1_556 S
C516 C489 1.389 . S
C517 C492 1.395 . S
C517 C494 1.391 . S
H518 C478 0.951 . S
H519 C479 0.950 1_554 S
H520 C485 0.949 . S
H521 C486 0.950 . S
H522 C490 0.951 . S
H523 C491 0.950 . S
H524 C495 0.949 . S
H525 C496 0.950 . S
H526 C500 0.950 . S
H527 C502 0.950 . S
H528 C505 0.950 . S
H529 C507 0.950 . S
C530 C531 1.443 1_554 S
C530 N534 1.376 . S
C530 C568 1.389 . S
C531 C530 1.443 1_556 S
C531 C532 1.340 . S
C531 H571 0.951 . S
C532 C531 1.340 . S
C532 C533 1.439 . S
C532 H572 0.950 . S
C533 C532 1.439 . S
C533 N534 1.374 1_556 S
C533 C567 1.393 1_556 S
N534 C530 1.376 . S
N534 C533 1.374 1_554 S
N534 Co535 2.008 . S
Co535 N534 2.008 . S
Co535 N536 1.995 . S
Co535 N541 2.008 . S
Co535 N546 1.995 . S
Co535 N551 2.282 . S
Co535 N557 2.282 . S
N536 Co535 1.995 . S
N536 C537 1.376 . S
N536 C540 1.383 . S
C537 N536 1.376 . S
C537 C538 1.446 . S
C537 C567 1.405 . S
C538 C537 1.446 . S
C538 C539 1.339 . S
C538 H573 0.949 . S
C539 C538 1.339 . S
C539 C540 1.439 . S
C539 H574 0.950 . S
C540 N536 1.383 . S
C540 C539 1.439 . S
C540 C569 1.392 . S
N541 Co535 2.008 . S
N541 C542 1.376 . S
N541 C545 1.374 . S
C542 N541 1.376 . S
C542 C543 1.443 . S
C542 C569 1.389 . S
C543 C542 1.443 . S
C543 C544 1.340 . S
C543 H575 0.951 . S
C544 C543 1.340 . S
C544 C545 1.439 . S
C544 H576 0.950 . S
C545 N541 1.374 . S
C545 C544 1.439 . S
C545 C570 1.395 . S
N546 Co535 1.995 . S
N546 C547 1.376 . S
N546 C550 1.383 . S
C547 N546 1.376 . S
C547 C548 1.446 . S
C547 C570 1.391 . S
C548 C547 1.446 . S
C548 C549 1.339 . S
C548 H577 0.949 . S
C549 C548 1.339 . S
C549 C550 1.439 . S
C549 H578 0.950 . S
C550 N546 1.383 . S
C550 C549 1.439 . S
C550 C568 1.392 . S
N551 Co535 2.282 . S
N551 C554 1.332 . S
N551 C556 1.332 . S
C552 C553 1.386 . S
C552 C555 1.388 . S
C553 C552 1.386 . S
C553 C554 1.382 . S
C553 H579 0.950 . S
C554 N551 1.332 . S
C554 C553 1.382 . S
C554 H565 0.952 . S
C555 C552 1.388 . S
C555 C556 1.382 . S
C555 H580 0.950 . S
C556 N551 1.332 . S
C556 C555 1.382 . S
C556 H566 0.948 . S
N557 Co535 2.282 . S
N557 C561 1.332 . S
N557 C562 1.332 . S
C558 C559 1.388 . S
C558 C562 1.382 . S
C558 H581 0.950 . S
C559 C558 1.388 . S
C559 C560 1.382 1_554 S
C560 C559 1.382 1_556 S
C560 C561 1.368 1_556 S
C560 H582 0.967 . S
C561 N557 1.332 . S
C561 C560 1.368 1_554 S
C561 H563 0.952 . S
C562 N557 1.332 . S
C562 C558 1.382 . S
C562 H564 0.948 . S
H563 C561 0.952 . S
H564 C562 0.948 . S
H565 C554 0.952 . S
H566 C556 0.948 . S
C567 C533 1.393 1_554 S
C567 C537 1.405 . S
C568 C530 1.389 . S
C568 C550 1.392 . S
C569 C540 1.392 . S
C569 C542 1.389 . S
C570 C545 1.395 . S
C570 C547 1.391 . S
H571 C531 0.951 . S
H572 C532 0.950 . S
H573 C538 0.949 . S
H574 C539 0.950 . S
H575 C543 0.951 . S
H576 C544 0.950 . S
H577 C548 0.949 . S
H578 C549 0.950 . S
H579 C553 0.950 . S
H580 C555 0.950 . S
H581 C558 0.950 . S
H582 C560 0.967 . S
C583 C584 1.443 . S
C583 N587 1.376 . S
C583 C621 1.389 . S
C584 C583 1.443 . S
C584 C585 1.340 . S
C584 H624 0.951 . S
C585 C584 1.340 . S
C585 C586 1.439 . S
C585 H625 0.950 . S
C586 C585 1.439 . S
C586 N587 1.374 . S
C586 C620 1.395 . S
N587 C583 1.376 . S
N587 C586 1.374 . S
N587 Co588 2.008 . S
Co588 N587 2.008 . S
Co588 N589 1.995 . S
Co588 N594 2.008 . S
Co588 N599 1.995 . S
Co588 N604 2.282 . S
Co588 N610 2.282 . S
N589 Co588 1.995 . S
N589 C590 1.376 . S
N589 C593 1.383 . S
C590 N589 1.376 . S
C590 C591 1.446 . S
C590 C620 1.391 . S
C591 C590 1.446 . S
C591 C592 1.339 . S
C591 H626 0.949 . S
C592 C591 1.339 . S
C592 C593 1.439 . S
C592 H627 0.950 . S
C593 N589 1.383 . S
C593 C592 1.439 . S
C593 C622 1.392 . S
N594 Co588 2.008 . S
N594 C595 1.376 . S
N594 C598 1.374 . S
C595 N594 1.376 . S
C595 C596 1.443 . S
C595 C622 1.389 . S
C596 C595 1.443 . S
C596 C597 1.340 . S
C596 H628 0.951 . S
C597 C596 1.340 . S
C597 C598 1.439 . S
C597 H629 0.950 . S
C598 N594 1.374 . S
C598 C597 1.439 . S
C598 C623 1.395 . S
N599 Co588 1.995 . S
N599 C600 1.376 . S
N599 C603 1.383 . S
C600 N599 1.376 . S
C600 C601 1.446 1_556 S
C600 C623 1.391 . S
C601 C600 1.446 1_554 S
C601 C602 1.339 . S
C601 H630 0.949 . S
C602 C601 1.339 . S
C602 C603 1.439 1_554 S
C602 H631 0.950 . S
C603 N599 1.383 . S
C603 C602 1.439 1_556 S
C603 C621 1.392 . S
N604 Co588 2.282 . S
N604 C607 1.332 . S
N604 C609 1.332 . S
C605 C606 1.386 . S
C605 C608 1.388 . S
C606 C605 1.386 . S
C606 C607 1.382 . S
C606 H632 0.950 . S
C607 N604 1.332 . S
C607 C606 1.382 . S
C607 H618 0.952 . S
C608 C605 1.388 . S
C608 C609 1.382 . S
C608 H633 0.950 . S
C609 N604 1.332 . S
C609 C608 1.382 . S
C609 H619 0.948 . S
N610 Co588 2.282 . S
N610 C614 1.332 . S
N610 C615 1.332 . S
C611 C612 1.388 1_554 S
C611 C615 1.382 1_554 S
C611 H634 0.950 . S
C612 C611 1.388 1_556 S
C612 C613 1.386 . S
C613 C612 1.386 . S
C613 C614 1.382 . S
C613 H635 0.950 . S
C614 N610 1.332 . S
C614 C613 1.382 . S
C614 H616 0.952 . S
C615 N610 1.332 . S
C615 C611 1.382 1_556 S
C615 H617 0.948 . S
H616 C614 0.952 . S
H617 C615 0.948 . S
H618 C607 0.952 . S
H619 C609 0.948 . S
C620 C586 1.395 . S
C620 C590 1.391 . S
C621 C583 1.389 . S
C621 C603 1.392 . S
C622 C593 1.392 . S
C622 C595 1.389 . S
C623 C598 1.395 . S
C623 C600 1.391 . S
H624 C584 0.951 . S
H625 C585 0.950 . S
H626 C591 0.949 . S
H627 C592 0.950 . S
H628 C596 0.951 . S
H629 C597 0.950 . S
H630 C601 0.949 . S
H631 C602 0.950 . S
H632 C606 0.950 . S
H633 C608 0.950 . S
H634 C611 0.950 . S
H635 C613 0.950 . S
C22 C409 1.601 . S
C91 C241 1.605 . S
C287 C145 1.918 . S
C347 C188 1.230 . S
C462 C400 1.648 . S
C506 C250 1.719 . S
C569 C304 2.035 . S
C622 C356 1.937 . S
C82 C515 1.562 . S
C552 C128 0.979 . S
C197 C605 1.786 . S
C453 C39 1.535 . S
C357 C38 2.161 1_655 S
C393 C75 1.833 . S
C251 C135 2.085 . S
C198 C303 2.198 . S
C410 C294 1.953 . S
C234 C340 2.059 1_655 S
C181 C92 2.026 . S
C144 C29 2.220 . S
C463 C516 2.083 1_554 S
C499 C559 1.666 . S
C612 C568 1.639 1_556 S
C446 C621 1.804 . S
