# Generated by pormake.
# Topology uov, (4)-cn, num edge types: 1
# Building blocks:
#     Node 0, Type 0, BuildingBlock: AZAVOO_clean_sbu_0, # of connection points: 4
#     Node 1, Type 0, BuildingBlock: AZAVOO_clean_sbu_0, # of connection points: 4
#     Node 2, Type 0, BuildingBlock: AZAVOO_clean_sbu_0, # of connection points: 4
#     Node 3, Type 0, BuildingBlock: AZAVOO_clean_sbu_0, # of connection points: 4
#     Node 4, Type 0, BuildingBlock: AZAVOO_clean_sbu_0, # of connection points: 4
#     Node 5, Type 0, BuildingBlock: AZAVOO_clean_sbu_0, # of connection points: 4
#     Node 6, Type 0, BuildingBlock: AZAVOO_clean_sbu_0, # of connection points: 4
#     Node 7, Type 0, BuildingBlock: AZAVOO_clean_sbu_0, # of connection points: 4
#     Edge 8, Type (0, 0), BuildingBlock: XIVTED_clean_linker_0, # of connection points: 2
#     Edge 9, Type (0, 0), BuildingBlock: XIVTED_clean_linker_0, # of connection points: 2
#     Edge 10, Type (0, 0), BuildingBlock: XIVTED_clean_linker_0, # of connection points: 2
#     Edge 11, Type (0, 0), BuildingBlock: XIVTED_clean_linker_0, # of connection points: 2
#     Edge 12, Type (0, 0), BuildingBlock: XIVTED_clean_linker_0, # of connection points: 2
#     Edge 13, Type (0, 0), BuildingBlock: XIVTED_clean_linker_0, # of connection points: 2
#     Edge 14, Type (0, 0), BuildingBlock: XIVTED_clean_linker_0, # of connection points: 2
#     Edge 15, Type (0, 0), BuildingBlock: XIVTED_clean_linker_0, # of connection points: 2
#     Edge 16, Type (0, 0), BuildingBlock: XIVTED_clean_linker_0, # of connection points: 2
#     Edge 17, Type (0, 0), BuildingBlock: XIVTED_clean_linker_0, # of connection points: 2
#     Edge 18, Type (0, 0), BuildingBlock: XIVTED_clean_linker_0, # of connection points: 2
#     Edge 19, Type (0, 0), BuildingBlock: XIVTED_clean_linker_0, # of connection points: 2
#     Edge 20, Type (0, 0), BuildingBlock: XIVTED_clean_linker_0, # of connection points: 2
#     Edge 21, Type (0, 0), BuildingBlock: XIVTED_clean_linker_0, # of connection points: 2
#     Edge 22, Type (0, 0), BuildingBlock: XIVTED_clean_linker_0, # of connection points: 2
#     Edge 23, Type (0, 0), BuildingBlock: XIVTED_clean_linker_0, # of connection points: 2
# Relax obj value: 0.238
# Max RMSD: 0.250
# Mean RMSD: 0.233
data_MOF--net-uov--node1-AZAVOO_clean_sbu_0--edge1-XIVTED_clean_linker_0
_symmetry_space_group_name_H-M    P1
_symmetry_Int_Tables_number       1
_symmetry_cell_setting            triclinic
loop_
_symmetry_equiv_pos_as_xyz
'x, y, z'
_cell_length_a     30.361729
_cell_length_b     29.219727
_cell_length_c     42.798508
_cell_angle_alpha  90.031711
_cell_angle_beta   90.01593
_cell_angle_gamma 92.587929
loop_
_atom_site_label
_atom_site_type_symbol
_atom_site_fract_x
_atom_site_fract_y
_atom_site_fract_z
_atom_type_partial_charge
Mg0 Mg 0.95027 0.22561 0.6282 0.0
O1 O 0.98678 0.22359 0.58113 0.0
O2 O 0.94043 0.24346 0.54332 0.0
Mg3 Mg 0.87603 0.26208 0.56629 0.0
C4 C 0.97805 0.23073 0.55236 0.0
C5 C 0.03458 0.17914 0.64875 0.0
O6 O 0.01791 0.15042 0.62779 0.0
O7 O 0.96025 0.30353 0.6284 0.0
O8 O 0.91445 0.32205 0.59002 0.0
O9 O 0.92475 0.15408 0.62126 0.0
O10 O 0.89023 0.21402 0.60413 0.0
C11 C 0.94271 0.33327 0.6111 0.0
C12 C 0.89328 0.17009 0.60477 0.0
O13 O 0.01517 0.21607 0.65408 0.0
Mg14 Mg 0.25366 0.09187 0.37129 0.0
O15 O 0.23447 0.04437 0.41262 0.0
O16 O 0.25524 0.07911 0.45729 0.0
Mg17 Mg 0.28717 0.14849 0.44449 0.0
C18 C 0.23773 0.04508 0.4424 0.0
C19 C 0.20738 0.00731 0.34049 0.0
O20 O 0.17991 0.01651 0.36312 0.0
O21 O 0.32477 0.07394 0.37781 0.0
O22 O 0.34319 0.10882 0.42269 0.0
O23 O 0.18878 0.12201 0.37403 0.0
O24 O 0.24667 0.14752 0.40144 0.0
C25 C 0.35253 0.08373 0.39939 0.0
C26 C 0.2047 0.14789 0.39624 0.0
O27 O 0.2422 0.03261 0.33707 0.0
Mg28 Mg 0.03925 0.76994 0.61802 0.0
O29 O 0.00072 0.76492 0.57181 0.0
O30 O 0.04708 0.74578 0.5338 0.0
Mg31 Mg 0.11297 0.73093 0.55633 0.0
C32 C 0.00899 0.75672 0.5431 0.0
C33 C 0.97401 0.8211 0.65702 0.0
O34 O 0.0086 0.84928 0.6538 0.0
O35 O 0.03249 0.69182 0.62242 0.0
O36 O 0.07677 0.67268 0.58325 0.0
O37 O 0.06049 0.84074 0.60461 0.0
O38 O 0.09861 0.78049 0.59276 0.0
C39 C 0.05011 0.66171 0.60539 0.0
C40 C 0.09261 0.82357 0.58952 0.0
O41 O 0.97514 0.78121 0.64513 0.0
Mg42 Mg 0.73896 0.92471 0.3746 0.0
O43 O 0.75426 0.96219 0.4212 0.0
O44 O 0.73277 0.91531 0.46023 0.0
Mg45 Mg 0.69997 0.85115 0.43877 0.0
C46 C 0.75035 0.9531 0.45035 0.0
C47 C 0.73381 -0.00209 0.32171 0.0
O48 O 0.70662 0.96606 0.31006 0.0
O49 O 0.66752 0.94011 0.37984 0.0
O50 O 0.64503 0.89581 0.41976 0.0
O51 O 0.80384 0.89439 0.37627 0.0
O52 O 0.74387 0.8623 0.39798 0.0
C53 C 0.63777 0.92568 0.3988 0.0
C54 C 0.78618 0.86303 0.39426 0.0
O55 O 0.75182 0.9912 0.34802 0.0
Mg56 Mg 0.95119 0.23487 0.13074 0.0
O57 O 0.91875 0.21616 0.08316 0.0
O58 O 0.9666 0.23799 0.04587 0.0
Mg59 Mg 0.0265 0.27415 0.06851 0.0
C60 C 0.92987 0.21904 0.05438 0.0
C61 C 0.88589 0.22535 0.18478 0.0
O62 O 0.91935 0.24888 0.19729 0.0
O63 O 0.93594 0.31059 0.12584 0.0
O64 O 0.9836 0.32977 0.08759 0.0
O65 O 0.98511 0.16853 0.12849 0.0
O66 O 0.01376 0.23484 0.11132 0.0
C67 C 0.9536 0.33989 0.10697 0.0
C68 C 0.01664 0.1914 0.1143 0.0
O69 O 0.88699 0.21631 0.15577 0.0
Mg70 Mg 0.26037 0.10837 0.89528 0.0
O71 O 0.22651 0.03865 0.90913 0.0
O72 O 0.1538 0.04808 0.91052 0.0
Mg73 Mg 0.14083 0.12157 0.8977 0.0
C74 C 0.18699 0.02332 0.91393 0.0
C75 C 0.33852 0.04721 0.90751 0.0
O76 O 0.31491 0.0412 0.93303 0.0
O77 O 0.23912 0.10128 0.84395 0.0
O78 O 0.16663 0.11051 0.84839 0.0
O79 O 0.263 0.12524 0.94589 0.0
O80 O 0.20748 0.14141 0.91492 0.0
C81 C 0.20075 0.10366 0.832 0.0
C82 C 0.22332 0.13904 0.9428 0.0
O83 O 0.32478 0.07335 0.88623 0.0
Mg84 Mg 0.05158 0.74606 0.12677 0.0
O85 O 0.08532 0.77068 0.07961 0.0
O86 O 0.04153 0.74681 0.0399 0.0
Mg87 Mg 0.00177 0.68647 0.05977 0.0
C88 C 0.07423 0.77118 0.05059 0.0
C89 C 0.09987 0.77417 0.18517 0.0
O90 O 0.06756 0.7457 0.19407 0.0
O91 O 0.08215 0.67529 0.13022 0.0
O92 O 0.06778 0.67571 0.08118 0.0
O93 O 0.00428 0.80027 0.11904 0.0
O94 O 0.99209 0.72913 0.10209 0.0
C95 C 0.07163 0.65265 0.10587 0.0
C96 C 0.98021 0.77088 0.10315 0.0
O97 O 0.10555 0.78102 0.1561 0.0
Mg98 Mg 0.73258 0.89614 0.89418 0.0
O99 O 0.76384 0.96635 0.91007 0.0
O100 O 0.8369 0.9587 0.91084 0.0
Mg101 Mg 0.85242 0.8851 0.89927 0.0
C102 C 0.80318 0.98264 0.91457 0.0
C103 C 0.63391 0.9081 0.89747 0.0
O104 O 0.63994 0.87066 0.91361 0.0
O105 O 0.75619 0.90575 0.84348 0.0
O106 O 0.82835 0.89522 0.84944 0.0
O107 O 0.7278 0.87506 0.94437 0.0
O108 O 0.78542 0.86427 0.91402 0.0
C109 C 0.79498 0.90256 0.83236 0.0
C110 C 0.76788 0.86253 0.94135 0.0
O111 O 0.66707 0.92841 0.8846 0.0
H112 H 0.05701 0.59451 0.56211 0.0
H113 H 0.97867 0.37983 0.66187 0.0
H114 H 0.01247 0.61702 0.6565 0.0
H115 H 0.94124 0.39749 0.56545 0.0
H116 H 0.00554 0.46086 0.66322 0.0
H117 H 0.031 0.51478 0.56595 0.0
C118 C 0.04218 0.58263 0.58383 0.0
C119 C 0.03676 0.61264 0.60902 0.0
C120 C 0.99112 0.44672 0.64197 0.0
C121 C 0.00713 0.521 0.61345 0.0
C122 C 0.97602 0.40069 0.6411 0.0
C123 C 0.95765 0.382 0.61351 0.0
C124 C 0.9889 0.47339 0.6148 0.0
C125 C 0.95488 0.41046 0.58726 0.0
C126 C 0.02713 0.53714 0.58587 0.0
C127 C 0.01701 0.59508 0.63648 0.0
N128 N 0.97082 0.45449 0.58846 0.0
N129 N 0.00298 0.55012 0.63807 0.0
H130 H 0.60025 0.9678 0.34908 0.0
H131 H 0.40752 0.06965 0.44855 0.0
H132 H 0.57702 0.93127 0.44561 0.0
H133 H 0.39526 0.04847 0.349 0.0
H134 H 0.47631 0.02937 0.4479 0.0
H135 H 0.5305 0.00677 0.34853 0.0
C136 C 0.58036 0.96779 0.3701 0.0
C137 C 0.59435 0.94626 0.39745 0.0
C138 C 0.45853 0.03364 0.42622 0.0
C139 C 0.5153 0.99136 0.39706 0.0
C140 C 0.41952 0.05695 0.4265 0.0
C141 C 0.39567 0.06243 0.39876 0.0
C142 C 0.4742 0.01639 0.39795 0.0
C143 C 0.41258 0.04487 0.37092 0.0
C144 C 0.54064 0.98993 0.36972 0.0
C145 C 0.56732 0.9472 0.42399 0.0
N146 N 0.45103 0.02279 0.37117 0.0
N147 N 0.52925 0.96985 0.42324 0.0
H148 H 0.93517 0.39997 0.06128 0.0
H149 H 0.05015 0.60366 0.15938 0.0
H150 H 0.95981 0.39083 0.16014 0.0
H151 H 0.03261 0.60231 0.05923 0.0
H152 H 0.0049 0.53206 0.16269 0.0
H153 H 0.95354 0.48199 0.06333 0.0
C154 C 0.94279 0.41576 0.08367 0.0
C155 C 0.94623 0.38887 0.11054 0.0
C156 C 0.01064 0.54783 0.14008 0.0
C157 C 0.96978 0.48203 0.11287 0.0
C158 C 0.03672 0.58846 0.13814 0.0
C159 C 0.0453 0.60901 0.10896 0.0
C160 C 0.99311 0.52772 0.11266 0.0
C161 C 0.02689 0.58787 0.08224 0.0
C162 C 0.95395 0.46245 0.08481 0.0
C163 C 0.95664 0.41066 0.13896 0.0
N164 N 0.00186 0.54847 0.08475 0.0
N165 N 0.96925 0.45595 0.13929 0.0
H166 H 0.37053 0.98041 0.94447 0.0
H167 H 0.60731 0.98171 0.86334 0.0
H168 H 0.40324 0.06304 0.86343 0.0
H169 H 0.5599 0.87854 0.92886 0.0
H170 H 0.53435 0.01449 0.86398 0.0
H171 H 0.44157 0.94531 0.94029 0.0
C172 C 0.39264 0.99113 0.92571 0.0
C173 C 0.38095 0.02477 0.90428 0.0
C174 C 0.53996 0.98453 0.87804 0.0
C175 C 0.46263 0.98476 0.89944 0.0
C176 C 0.58156 0.96585 0.87774 0.0
C177 C 0.58976 0.92739 0.89615 0.0
C178 C 0.50656 0.96484 0.89713 0.0
C179 C 0.55516 0.90819 0.91431 0.0
C180 C 0.4332 0.97095 0.9233 0.0
C181 C 0.41092 0.03716 0.88042 0.0
N182 N 0.51525 0.92728 0.91448 0.0
N183 N 0.45056 0.01734 0.87875 0.0
H184 H 0.22222 0.18805 0.45367 0.0
H185 H 0.96864 0.22923 0.48881 0.0
H186 H 0.11691 0.15851 0.38791 0.0
H187 H 0.06615 0.21741 0.56155 0.0
H188 H 0.02538 0.21681 0.44982 0.0
H189 H 0.16803 0.21313 0.49149 0.0
C190 C 0.18791 0.18712 0.44701 0.0
C191 C 0.17411 0.17018 0.41774 0.0
C192 C 0.03437 0.21708 0.47431 0.0
C193 C 0.11203 0.19935 0.46079 0.0
C194 C 0.00201 0.22421 0.49662 0.0
C195 C 0.01254 0.22407 0.52857 0.0
C196 C 0.07775 0.21009 0.4839 0.0
C197 C 0.05644 0.21744 0.53721 0.0
C198 C 0.15696 0.2014 0.46868 0.0
C199 C 0.12907 0.17069 0.41034 0.0
N200 N 0.08747 0.21066 0.51497 0.0
N201 N 0.09966 0.18476 0.43176 0.0
H202 H 0.16309 0.99267 0.43014 0.0
H203 H 0.18007 0.82327 0.57409 0.0
H204 H 0.27027 0.00924 0.49597 0.0
H205 H 0.05825 0.88523 0.55031 0.0
H206 H 0.21853 0.87278 0.53508 0.0
H207 H 0.12893 0.933 0.4639 0.0
C208 C 0.17974 0.98315 0.4514 0.0
C209 C 0.21925 0.00599 0.46054 0.0
C210 C 0.18332 0.87505 0.53839 0.0
C211 C 0.18108 0.93774 0.49855 0.0
C212 C 0.16151 0.847 0.56046 0.0
C213 C 0.11625 0.85092 0.56554 0.0
C214 C 0.15919 0.90573 0.52075 0.0
C215 C 0.09337 0.88186 0.54733 0.0
C216 C 0.16023 0.94941 0.4706 0.0
C217 C 0.2395 0.99265 0.48837 0.0
N218 N 0.11506 0.90798 0.52555 0.0
N219 N 0.22021 0.95921 0.50645 0.0
H220 H 0.76624 0.81503 0.44837 0.0
H221 H 0.0171 0.75732 0.47941 0.0
H222 H 0.87244 0.84692 0.38388 0.0
H223 H 0.92085 0.7685 0.55303 0.0
H224 H 0.9602 0.77277 0.44108 0.0
H225 H 0.81858 0.78027 0.4835 0.0
C226 C 0.80029 0.81421 0.44131 0.0
C227 C 0.81504 0.83475 0.41336 0.0
C228 C 0.9515 0.77146 0.46561 0.0
C229 C 0.87501 0.79471 0.45336 0.0
C230 C 0.98393 0.76257 0.48755 0.0
C231 C 0.9739 0.76216 0.51958 0.0
C232 C 0.90861 0.77972 0.47569 0.0
C233 C 0.93022 0.76903 0.52863 0.0
C234 C 0.83021 0.79445 0.46147 0.0
C235 C 0.8597 0.83211 0.40541 0.0
N236 N 0.8992 0.77777 0.50679 0.0
N237 N 0.88815 0.81278 0.4254 0.0
H238 H 0.77124 0.04482 0.44206 0.0
H239 H 0.88562 0.077 0.60769 0.0
H240 H 0.76904 0.93802 0.51182 0.0
H241 H 0.83952 0.19153 0.55526 0.0
H242 H 0.84746 0.02489 0.57107 0.0
H243 H 0.8015 0.09894 0.4812 0.0
C244 C 0.77705 0.03276 0.46556 0.0
C245 C 0.76766 0.98679 0.47365 0.0
C246 C 0.8455 0.06148 0.5677 0.0
C247 C 0.80244 0.04832 0.51832 0.0
C248 C 0.86732 0.09129 0.58858 0.0
C249 C 0.8663 0.13888 0.5844 0.0
C250 C 0.82302 0.07927 0.54211 0.0
C251 C 0.84175 0.1553 0.5593 0.0
C252 C 0.79406 0.06369 0.4879 0.0
C253 C 0.77564 0.97313 0.50452 0.0
N254 N 0.82153 0.12553 0.53884 0.0
N255 N 0.79292 0.00364 0.52563 0.0
H256 H 0.75326 0.02448 0.95859 0.0
H257 H 0.94393 0.21641 0.99125 0.0
H258 H 0.87161 0.04377 0.90362 0.0
H259 H 0.85202 0.16773 0.0621 0.0
H260 H 0.90469 0.16828 0.95294 0.0
H261 H 0.77652 0.09162 0.99021 0.0
C262 C 0.78341 0.0437 0.95257 0.0
C263 C 0.81071 0.02855 0.92858 0.0
C264 C 0.89277 0.16856 0.97679 0.0
C265 C 0.8375 0.10478 0.96459 0.0
C266 C 0.91513 0.19613 -0.00124 0.0
C267 C 0.90181 0.19564 0.03021 0.0
C268 C 0.85666 0.14019 0.98614 0.0
C269 C 0.86383 0.16888 0.03824 0.0
C270 C 0.79685 0.08165 0.97079 0.0
C271 C 0.84976 0.05421 0.92203 0.0
N272 N 0.84287 0.1418 0.01642 0.0
N273 N 0.8621 0.09084 0.94005 0.0
H274 H 0.13777 0.16478 0.94396 0.0
H275 H 0.10529 0.20222 0.11954 0.0
H276 H 0.24372 0.12682 0.00467 0.0
H277 H 0.00215 0.1341 0.06542 0.0
H278 H 0.15891 0.18304 0.07909 0.0
H279 H 0.08855 0.16512 0.98881 0.0
C280 C 0.15068 0.15599 0.96658 0.0
C281 C 0.1947 0.14444 0.97034 0.0
C282 C 0.12477 0.17112 0.07661 0.0
C283 C 0.13876 0.1465 0.0219 0.0
C284 C 0.09439 0.18174 0.09963 0.0
C285 C 0.04973 0.16884 0.09581 0.0
C286 C 0.10972 0.14927 0.04923 0.0
C287 C 0.0366 0.14366 0.06933 0.0
C288 C 0.1225 0.15626 0.99216 0.0
C289 C 0.2099 0.1355 0.00066 0.0
N290 N 0.06639 0.13558 0.04656 0.0
N291 N 0.18198 0.13711 0.02546 0.0
H292 H 0.14659 0.82993 0.06169 0.0
H293 H 0.11794 0.96312 0.90291 0.0
H294 H 0.05735 0.7832 0.98853 0.0
H295 H 0.23629 0.98123 0.95807 0.0
H296 H 0.09648 0.89568 0.93391 0.0
H297 H 0.18125 0.88488 0.02476 0.0
C298 C 0.13451 0.83086 0.03789 0.0
C299 C 0.09857 0.80216 0.02841 0.0
C300 C 0.12756 0.91381 0.93896 0.0
C301 C 0.13795 0.86493 0.98621 0.0
C302 C 0.13984 0.95222 0.92118 0.0
C303 C 0.17892 0.9776 0.92793 0.0
C304 C 0.15395 0.90133 0.96427 0.0
C305 C 0.20605 0.96224 0.95199 0.0
C306 C 0.15444 0.8621 0.01682 0.0
C307 C 0.08459 0.8048 -0.00284 0.0
N308 N 0.19264 0.92553 0.96974 0.0
N309 N 0.10393 0.8359 0.97739 0.0
H310 H 0.84545 0.90456 0.95806 0.0
H311 H 0.91348 0.71769 0.07737 0.0
H312 H 0.75119 0.79793 0.98634 0.0
H313 H 0.96447 0.85767 0.08408 0.0
H314 H 0.85655 0.7425 0.04127 0.0
H315 H 0.89321 0.88448 0.00133 0.0
C316 C 0.83487 0.87694 0.97348 0.0
C317 C 0.79475 0.85254 0.96869 0.0
C318 C 0.87989 0.76774 0.05103 0.0
C319 C 0.84912 0.82908 0.01788 0.0
C320 C 0.91244 0.75367 0.07143 0.0
C321 C 0.94374 0.78572 0.08354 0.0
C322 C 0.87944 0.81394 0.04226 0.0
C323 C 0.94092 0.8319 0.07525 0.0
C324 C 0.86191 0.86572 -0.00173 0.0
C325 C 0.78206 0.81741 0.98949 0.0
N326 N 0.90968 0.84456 0.05472 0.0
N327 N 0.80962 0.8061 0.01305 0.0
H328 H 0.06365 0.09309 0.65761 0.0
H329 H 0.23386 0.16857 0.79222 0.0
H330 H 0.08919 0.23374 0.6856 0.0
H331 H 0.15105 0.04507 0.79592 0.0
H332 H 0.20327 0.18542 0.74049 0.0
H333 H 0.11752 0.0693 0.69621 0.0
C334 C 0.08119 0.11909 0.67142 0.0
C335 C 0.07146 0.16546 0.66874 0.0
C336 C 0.19297 0.1539 0.75223 0.0
C337 C 0.1335 0.13837 0.71243 0.0
C338 C 0.21077 0.14399 0.78145 0.0
C339 C 0.19504 0.10525 0.798 0.0
C340 C 0.15983 0.12442 0.73955 0.0
C341 C 0.16416 0.07506 0.78361 0.0
C342 C 0.11185 0.10541 0.69342 0.0
C343 C 0.09528 0.19761 0.68724 0.0
N344 N 0.14726 0.08543 0.75523 0.0
N345 N 0.12509 0.18342 0.70848 0.0
H346 H 0.16539 0.84082 0.17545 0.0
H347 H 0.14514 0.93816 0.34816 0.0
H348 H 0.08891 0.77309 0.24837 0.0
H349 H 0.24561 0.98868 0.28397 0.0
H350 H 0.12503 0.87695 0.3115 0.0
H351 H 0.19704 0.89425 0.21445 0.0
C352 C 0.15568 0.83679 0.19969 0.0
C353 C 0.12409 0.80272 0.2086 0.0
C354 C 0.15172 0.90116 0.30547 0.0
C355 C 0.15972 0.86393 0.25315 0.0
C356 C 0.16311 0.93628 0.32635 0.0
C357 C 0.1969 0.96877 0.319 0.0
C358 C 0.17388 0.8987 0.27675 0.0
C359 C 0.21928 0.96438 0.29051 0.0
C360 C 0.17373 0.86732 0.22191 0.0
C361 C 0.11285 0.79901 0.24034 0.0
N362 N 0.20705 0.93022 0.27024 0.0
N363 N 0.13026 0.82955 0.26135 0.0
H364 H 0.90224 0.76937 0.67924 0.0
H365 H 0.84326 0.96394 0.79789 0.0
H366 H 0.95893 0.90747 0.67644 0.0
H367 H 0.76739 0.83621 0.79159 0.0
H368 H 0.87699 0.94809 0.74751 0.0
H369 H 0.84516 0.79541 0.71495 0.0
C370 C 0.90235 0.80519 0.68578 0.0
C371 C 0.93595 0.83606 0.6754 0.0
C372 C 0.85207 0.92395 0.75657 0.0
C373 C 0.87096 0.86606 0.71602 0.0
C374 C 0.83248 0.93338 0.78516 0.0
C375 C 0.80232 0.90155 0.79853 0.0
C376 C 0.84254 0.88159 0.74184 0.0
C377 C 0.79015 0.86183 0.78165 0.0
C378 C 0.86972 0.82008 0.70608 0.0
C379 C 0.93427 0.88218 0.68437 0.0
N380 N 0.81109 0.85238 0.75444 0.0
N381 N 0.90277 0.89558 0.70439 0.0
H382 H 0.78431 0.07284 0.34047 0.0
H383 H 0.81617 0.16783 0.16744 0.0
H384 H 0.71299 0.01683 0.26088 0.0
H385 H 0.87983 0.22909 0.24847 0.0
H386 H 0.77035 0.11906 0.20193 0.0
H387 H 0.81222 0.13632 0.30805 0.0
C388 C 0.77418 0.07409 0.31622 0.0
C389 C 0.74677 0.03909 0.30325 0.0
C390 C 0.7939 0.14363 0.21218 0.0
C391 C 0.77887 0.11166 0.26588 0.0
C392 C 0.82003 0.17159 0.19249 0.0
C393 C 0.85244 0.20206 0.20507 0.0
C394 C 0.80045 0.14595 0.24465 0.0
C395 C 0.85568 0.20569 0.2377 0.0
C396 C 0.79009 0.11045 0.29771 0.0
C397 C 0.73436 0.04284 0.27179 0.0
N398 N 0.83049 0.17749 0.25633 0.0
N399 N 0.75097 0.07815 0.25407 0.0
loop_
_geom_bond_atom_site_label_1
_geom_bond_atom_site_label_2
_geom_bond_distance
_geom_bond_site_symmetry_2
_ccdc_geom_bond_type
Mg0 O1 2.028 . S
Mg0 O7 1.986 . S
Mg0 O9 2.114 1_455 S
Mg0 O10 2.251 1_455 S
Mg0 O13 2.010 . S
O1 Mg0 2.028 . S
O1 C4 1.250 . S
O2 Mg3 2.028 . S
O2 C4 1.248 . S
Mg3 O2 2.028 . S
Mg3 O8 2.032 . S
Mg3 O10 2.079 1_455 S
C4 O1 1.250 . S
C4 O2 1.248 . S
C5 O6 1.264 . S
C5 O13 1.249 . S
O6 C5 1.264 . S
O7 Mg0 1.986 . S
O7 C11 1.246 . S
O8 Mg3 2.032 . S
O8 C11 1.259 . S
O9 Mg0 2.114 1_655 S
O9 C12 1.252 . S
O10 Mg0 2.251 1_655 S
O10 Mg3 2.079 1_655 S
O10 C12 1.273 . S
C11 O7 1.246 . S
C11 O8 1.259 . S
C12 O9 1.252 . S
C12 O10 1.273 . S
O13 Mg0 2.010 . S
O13 C5 1.249 . S
Mg14 O15 2.028 1_545 S
Mg14 O21 1.986 1_545 S
Mg14 O23 2.114 . S
Mg14 O24 2.251 . S
Mg14 O27 2.010 1_545 S
O15 Mg14 2.028 1_565 S
O15 C18 1.250 . S
O16 Mg17 2.028 1_565 S
O16 C18 1.248 . S
Mg17 O16 2.028 1_545 S
Mg17 O22 2.032 1_545 S
Mg17 O24 2.079 . S
C18 O15 1.250 . S
C18 O16 1.248 . S
C19 O20 1.264 . S
C19 O27 1.249 . S
O20 C19 1.264 . S
O21 Mg14 1.986 1_565 S
O21 C25 1.246 . S
O22 Mg17 2.032 1_565 S
O22 C25 1.259 . S
O23 Mg14 2.114 . S
O23 C26 1.252 . S
O24 Mg14 2.251 . S
O24 Mg17 2.079 . S
O24 C26 1.273 . S
C25 O21 1.246 . S
C25 O22 1.259 . S
C26 O23 1.252 . S
C26 O24 1.273 . S
O27 Mg14 2.010 1_565 S
O27 C19 1.249 . S
Mg28 O29 2.028 . S
Mg28 O35 1.986 . S
Mg28 O37 2.114 1_655 S
Mg28 O38 2.251 1_655 S
Mg28 O41 2.010 . S
O29 Mg28 2.028 . S
O29 C32 1.250 . S
O30 Mg31 2.028 . S
O30 C32 1.248 . S
Mg31 O30 2.028 . S
Mg31 O36 2.032 . S
Mg31 O38 2.079 1_655 S
C32 O29 1.250 . S
C32 O30 1.248 . S
C33 O34 1.264 . S
C33 O41 1.249 . S
O34 C33 1.264 . S
O35 Mg28 1.986 . S
O35 C39 1.246 . S
O36 Mg31 2.032 . S
O36 C39 1.259 . S
O37 Mg28 2.114 1_455 S
O37 C40 1.252 . S
O38 Mg28 2.251 1_455 S
O38 Mg31 2.079 1_455 S
O38 C40 1.273 . S
C39 O35 1.246 . S
C39 O36 1.259 . S
C40 O37 1.252 . S
C40 O38 1.273 . S
O41 Mg28 2.010 . S
O41 C33 1.249 . S
Mg42 O43 2.028 1_565 S
Mg42 O49 1.986 1_565 S
Mg42 O51 2.114 . S
Mg42 O52 2.251 . S
Mg42 O55 2.010 1_565 S
O43 Mg42 2.028 1_545 S
O43 C46 1.250 . S
O44 Mg45 2.028 1_545 S
O44 C46 1.248 . S
Mg45 O44 2.028 1_565 S
Mg45 O50 2.032 1_565 S
Mg45 O52 2.079 . S
C46 O43 1.250 . S
C46 O44 1.248 . S
C47 O48 1.264 . S
C47 O55 1.249 . S
O48 C47 1.264 . S
O49 Mg42 1.986 1_545 S
O49 C53 1.246 . S
O50 Mg45 2.032 1_545 S
O50 C53 1.259 . S
O51 Mg42 2.114 . S
O51 C54 1.252 . S
O52 Mg42 2.251 . S
O52 Mg45 2.079 . S
O52 C54 1.273 . S
C53 O49 1.246 . S
C53 O50 1.259 . S
C54 O51 1.252 . S
C54 O52 1.273 . S
O55 Mg42 2.010 1_545 S
O55 C47 1.249 . S
Mg56 O57 2.028 . S
Mg56 O63 1.986 . S
Mg56 O65 2.114 1_655 S
Mg56 O66 2.251 1_655 S
Mg56 O69 2.010 . S
O57 Mg56 2.028 . S
O57 C60 1.250 . S
O58 Mg59 2.028 . S
O58 C60 1.248 . S
Mg59 O58 2.028 . S
Mg59 O64 2.032 . S
Mg59 O66 2.079 1_655 S
C60 O57 1.250 . S
C60 O58 1.248 . S
C61 O62 1.264 . S
C61 O69 1.249 . S
O62 C61 1.264 . S
O63 Mg56 1.986 . S
O63 C67 1.246 . S
O64 Mg59 2.032 . S
O64 C67 1.259 . S
O65 Mg56 2.114 1_455 S
O65 C68 1.252 . S
O66 Mg56 2.251 1_455 S
O66 Mg59 2.079 1_455 S
O66 C68 1.273 . S
C67 O63 1.246 . S
C67 O64 1.259 . S
C68 O65 1.252 . S
C68 O66 1.273 . S
O69 Mg56 2.010 . S
O69 C61 1.249 . S
Mg70 O71 2.028 1_545 S
Mg70 O77 1.986 . S
Mg70 O79 2.114 . S
Mg70 O80 2.251 . S
Mg70 O83 2.010 . S
O71 Mg70 2.028 1_565 S
O71 C74 1.250 . S
O72 Mg73 2.028 1_565 S
O72 C74 1.248 . S
Mg73 O72 2.028 1_545 S
Mg73 O78 2.032 . S
Mg73 O80 2.079 . S
C74 O71 1.250 . S
C74 O72 1.248 . S
C75 O76 1.264 . S
C75 O83 1.249 . S
O76 C75 1.264 . S
O77 Mg70 1.986 . S
O77 C81 1.246 . S
O78 Mg73 2.032 . S
O78 C81 1.259 . S
O79 Mg70 2.114 . S
O79 C82 1.252 . S
O80 Mg70 2.251 . S
O80 Mg73 2.079 . S
O80 C82 1.273 . S
C81 O77 1.246 . S
C81 O78 1.259 . S
C82 O79 1.252 . S
C82 O80 1.273 . S
O83 Mg70 2.010 . S
O83 C75 1.249 . S
Mg84 O85 2.028 . S
Mg84 O91 1.986 . S
Mg84 O93 2.114 1_455 S
Mg84 O94 2.251 1_455 S
Mg84 O97 2.010 . S
O85 Mg84 2.028 . S
O85 C88 1.250 . S
O86 Mg87 2.028 . S
O86 C88 1.248 . S
Mg87 O86 2.028 . S
Mg87 O92 2.032 . S
Mg87 O94 2.079 1_455 S
C88 O85 1.250 . S
C88 O86 1.248 . S
C89 O90 1.264 . S
C89 O97 1.249 . S
O90 C89 1.264 . S
O91 Mg84 1.986 . S
O91 C95 1.246 . S
O92 Mg87 2.032 . S
O92 C95 1.259 . S
O93 Mg84 2.114 1_655 S
O93 C96 1.252 . S
O94 Mg84 2.251 1_655 S
O94 Mg87 2.079 1_655 S
O94 C96 1.273 . S
C95 O91 1.246 . S
C95 O92 1.259 . S
C96 O93 1.252 . S
C96 O94 1.273 . S
O97 Mg84 2.010 . S
O97 C89 1.249 . S
Mg98 O99 2.028 1_565 S
Mg98 O105 1.986 . S
Mg98 O107 2.114 . S
Mg98 O108 2.251 . S
Mg98 O111 2.010 . S
O99 Mg98 2.028 1_545 S
O99 C102 1.250 . S
O100 Mg101 2.028 1_545 S
O100 C102 1.248 . S
Mg101 O100 2.028 1_565 S
Mg101 O106 2.032 . S
Mg101 O108 2.079 . S
C102 O99 1.250 . S
C102 O100 1.248 . S
C103 O104 1.264 . S
C103 O111 1.249 . S
O104 C103 1.264 . S
O105 Mg98 1.986 . S
O105 C109 1.246 . S
O106 Mg101 2.032 . S
O106 C109 1.259 . S
O107 Mg98 2.114 . S
O107 C110 1.252 . S
O108 Mg98 2.251 . S
O108 Mg101 2.079 . S
O108 C110 1.273 . S
C109 O105 1.246 . S
C109 O106 1.259 . S
C110 O107 1.252 . S
C110 O108 1.273 . S
O111 Mg98 2.010 . S
O111 C103 1.249 . S
H112 C118 0.930 1_455 S
H113 C122 0.930 1_655 S
H114 C127 0.929 . S
H115 C125 0.929 . S
H116 C120 0.929 . S
H117 C126 0.929 . S
C118 H112 0.930 1_655 S
C118 C119 1.367 . S
C118 C126 1.378 1_655 S
C119 C118 1.367 . S
C119 C127 1.433 . S
C120 H116 0.929 . S
C120 C122 1.378 1_655 S
C120 C124 1.350 1_655 S
C121 C124 1.463 1_655 S
C121 C126 1.350 1_655 S
C121 N129 1.427 . S
C122 H113 0.930 1_455 S
C122 C120 1.378 1_455 S
C122 C123 1.367 . S
C123 C122 1.367 . S
C123 C125 1.433 . S
C124 C120 1.350 1_455 S
C124 C121 1.463 1_455 S
C124 N128 1.427 . S
C125 H115 0.929 . S
C125 C123 1.433 . S
C125 N128 1.384 . S
C126 H117 0.929 . S
C126 C118 1.378 1_455 S
C126 C121 1.350 1_455 S
C127 H114 0.929 . S
C127 C119 1.433 . S
C127 N129 1.384 . S
N128 C124 1.427 . S
N128 C125 1.384 . S
N129 C121 1.427 . S
N129 C127 1.384 . S
H130 C136 0.930 . S
H131 C140 0.930 . S
H132 C145 0.929 . S
H133 C143 0.929 . S
H134 C138 0.929 . S
H135 C144 0.929 . S
C136 H130 0.930 . S
C136 C137 1.367 1_565 S
C136 C144 1.378 . S
C137 C136 1.367 1_545 S
C137 C145 1.433 . S
C138 H134 0.929 . S
C138 C140 1.378 . S
C138 C142 1.350 1_545 S
C139 C142 1.463 1_545 S
C139 C144 1.350 1_545 S
C139 N147 1.427 . S
C140 H131 0.930 . S
C140 C138 1.378 . S
C140 C141 1.367 1_545 S
C141 C140 1.367 1_565 S
C141 C143 1.433 . S
C142 C138 1.350 1_565 S
C142 C139 1.463 1_565 S
C142 N146 1.427 . S
C143 H133 0.929 . S
C143 C141 1.433 . S
C143 N146 1.384 . S
C144 H135 0.929 . S
C144 C136 1.378 . S
C144 C139 1.350 1_565 S
C145 H132 0.929 . S
C145 C137 1.433 . S
C145 N147 1.384 . S
N146 C142 1.427 . S
N146 C143 1.384 . S
N147 C139 1.427 . S
N147 C145 1.384 . S
H148 C154 0.930 . S
H149 C158 0.930 . S
H150 C163 0.929 . S
H151 C161 0.929 . S
H152 C156 0.929 . S
H153 C162 0.929 . S
C154 H148 0.930 . S
C154 C155 1.367 . S
C154 C162 1.378 . S
C155 C154 1.367 . S
C155 C163 1.433 1_655 S
C156 H152 0.929 . S
C156 C158 1.378 . S
C156 C160 1.350 . S
C157 C160 1.463 1_655 S
C157 C162 1.350 . S
C157 N165 1.427 1_655 S
C158 H149 0.930 . S
C158 C156 1.378 . S
C158 C159 1.367 . S
C159 C158 1.367 . S
C159 C161 1.433 1_455 S
C160 C156 1.350 . S
C160 C157 1.463 1_455 S
C160 N164 1.427 1_455 S
C161 H151 0.929 . S
C161 C159 1.433 1_655 S
C161 N164 1.384 . S
C162 H153 0.929 . S
C162 C154 1.378 . S
C162 C157 1.350 . S
C163 H150 0.929 . S
C163 C155 1.433 1_455 S
C163 N165 1.384 . S
N164 C160 1.427 1_655 S
N164 C161 1.384 . S
N165 C157 1.427 1_455 S
N165 C163 1.384 . S
H166 C172 0.930 1_565 S
H167 C176 0.930 1_545 S
H168 C181 0.929 . S
H169 C179 0.929 . S
H170 C174 0.929 . S
H171 C180 0.929 . S
C172 H166 0.930 1_545 S
C172 C173 1.367 . S
C172 C180 1.378 1_545 S
C173 C172 1.367 . S
C173 C181 1.433 . S
C174 H170 0.929 . S
C174 C176 1.378 1_545 S
C174 C178 1.350 1_545 S
C175 C178 1.463 1_545 S
C175 C180 1.350 1_545 S
C175 N183 1.427 . S
C176 H167 0.930 1_565 S
C176 C174 1.378 1_565 S
C176 C177 1.367 . S
C177 C176 1.367 . S
C177 C179 1.433 . S
C178 C174 1.350 1_565 S
C178 C175 1.463 1_565 S
C178 N182 1.427 . S
C179 H169 0.929 . S
C179 C177 1.433 . S
C179 N182 1.384 . S
C180 H171 0.929 . S
C180 C172 1.378 1_565 S
C180 C175 1.350 1_565 S
C181 H168 0.929 . S
C181 C173 1.433 . S
C181 N183 1.384 . S
N182 C178 1.427 . S
N182 C179 1.384 . S
N183 C175 1.427 . S
N183 C181 1.384 . S
H184 C190 0.930 . S
H185 C194 0.930 . S
H186 C199 0.929 . S
H187 C197 0.929 . S
H188 C192 0.929 . S
H189 C198 0.929 . S
C190 H184 0.930 . S
C190 C191 1.367 . S
C190 C198 1.378 . S
C191 C190 1.367 . S
C191 C199 1.433 . S
C192 H188 0.929 . S
C192 C194 1.378 . S
C192 C196 1.350 . S
C193 C196 1.463 . S
C193 C198 1.350 . S
C193 N201 1.427 . S
C194 H185 0.930 . S
C194 C192 1.378 . S
C194 C195 1.367 . S
C195 C194 1.367 . S
C195 C197 1.433 . S
C196 C192 1.350 . S
C196 C193 1.463 . S
C196 N200 1.427 . S
C197 H187 0.929 . S
C197 C195 1.433 . S
C197 N200 1.384 . S
C198 H189 0.929 . S
C198 C190 1.378 . S
C198 C193 1.350 . S
C199 H186 0.929 . S
C199 C191 1.433 . S
C199 N201 1.384 . S
N200 C196 1.427 . S
N200 C197 1.384 . S
N201 C193 1.427 . S
N201 C199 1.384 . S
H202 C208 0.930 . S
H203 C212 0.930 . S
H204 C217 0.929 . S
H205 C215 0.929 . S
H206 C210 0.929 . S
H207 C216 0.929 . S
C208 H202 0.930 . S
C208 C209 1.367 . S
C208 C216 1.378 . S
C209 C208 1.367 . S
C209 C217 1.433 . S
C210 H206 0.929 . S
C210 C212 1.378 . S
C210 C214 1.350 . S
C211 C214 1.463 . S
C211 C216 1.350 . S
C211 N219 1.427 . S
C212 H203 0.930 . S
C212 C210 1.378 . S
C212 C213 1.367 . S
C213 C212 1.367 . S
C213 C215 1.433 . S
C214 C210 1.350 . S
C214 C211 1.463 . S
C214 N218 1.427 . S
C215 H205 0.929 . S
C215 C213 1.433 . S
C215 N218 1.384 . S
C216 H207 0.929 . S
C216 C208 1.378 . S
C216 C211 1.350 . S
C217 H204 0.929 . S
C217 C209 1.433 . S
C217 N219 1.384 . S
N218 C214 1.427 . S
N218 C215 1.384 . S
N219 C211 1.427 . S
N219 C217 1.384 . S
H220 C226 0.930 . S
H221 C230 0.930 . S
H222 C235 0.929 . S
H223 C233 0.929 . S
H224 C228 0.929 . S
H225 C234 0.929 . S
C226 H220 0.930 . S
C226 C227 1.367 . S
C226 C234 1.378 . S
C227 C226 1.367 . S
C227 C235 1.433 . S
C228 H224 0.929 . S
C228 C230 1.378 . S
C228 C232 1.350 . S
C229 C232 1.463 . S
C229 C234 1.350 . S
C229 N237 1.427 . S
C230 H221 0.930 . S
C230 C228 1.378 . S
C230 C231 1.367 . S
C231 C230 1.367 . S
C231 C233 1.433 . S
C232 C228 1.350 . S
C232 C229 1.463 . S
C232 N236 1.427 . S
C233 H223 0.929 . S
C233 C231 1.433 . S
C233 N236 1.384 . S
C234 H225 0.929 . S
C234 C226 1.378 . S
C234 C229 1.350 . S
C235 H222 0.929 . S
C235 C227 1.433 . S
C235 N237 1.384 . S
N236 C232 1.427 . S
N236 C233 1.384 . S
N237 C229 1.427 . S
N237 C235 1.384 . S
H238 C244 0.930 . S
H239 C248 0.930 . S
H240 C253 0.929 . S
H241 C251 0.929 . S
H242 C246 0.929 . S
H243 C252 0.929 . S
C244 H238 0.930 . S
C244 C245 1.367 . S
C244 C252 1.378 . S
C245 C244 1.367 . S
C245 C253 1.433 . S
C246 H242 0.929 . S
C246 C248 1.378 . S
C246 C250 1.350 . S
C247 C250 1.463 . S
C247 C252 1.350 . S
C247 N255 1.427 . S
C248 H239 0.930 . S
C248 C246 1.378 . S
C248 C249 1.367 . S
C249 C248 1.367 . S
C249 C251 1.433 . S
C250 C246 1.350 . S
C250 C247 1.463 . S
C250 N254 1.427 . S
C251 H241 0.929 . S
C251 C249 1.433 . S
C251 N254 1.384 . S
C252 H243 0.929 . S
C252 C244 1.378 . S
C252 C247 1.350 . S
C253 H240 0.929 . S
C253 C245 1.433 . S
C253 N255 1.384 . S
N254 C250 1.427 . S
N254 C251 1.384 . S
N255 C247 1.427 . S
N255 C253 1.384 . S
H256 C262 0.930 . S
H257 C266 0.930 . S
H258 C271 0.929 . S
H259 C269 0.929 . S
H260 C264 0.929 . S
H261 C270 0.929 1_554 S
C262 H256 0.930 . S
C262 C263 1.367 . S
C262 C270 1.378 . S
C263 C262 1.367 . S
C263 C271 1.433 . S
C264 H260 0.929 . S
C264 C266 1.378 1_556 S
C264 C268 1.350 1_556 S
C265 C268 1.463 1_556 S
C265 C270 1.350 . S
C265 N273 1.427 . S
C266 H257 0.930 . S
C266 C264 1.378 1_554 S
C266 C267 1.367 . S
C267 C266 1.367 . S
C267 C269 1.433 . S
C268 C264 1.350 1_554 S
C268 C265 1.463 1_554 S
C268 N272 1.427 . S
C269 H259 0.929 . S
C269 C267 1.433 . S
C269 N272 1.384 . S
C270 H261 0.929 1_556 S
C270 C262 1.378 . S
C270 C265 1.350 . S
C271 H258 0.929 . S
C271 C263 1.433 . S
C271 N273 1.384 . S
N272 C268 1.427 . S
N272 C269 1.384 . S
N273 C265 1.427 . S
N273 C271 1.384 . S
H274 C280 0.930 . S
H275 C284 0.930 . S
H276 C289 0.929 . S
H277 C287 0.929 . S
H278 C282 0.929 . S
H279 C288 0.929 . S
C280 H274 0.930 . S
C280 C281 1.367 . S
C280 C288 1.378 . S
C281 C280 1.367 . S
C281 C289 1.433 . S
C282 H278 0.929 . S
C282 C284 1.378 . S
C282 C286 1.350 . S
C283 C286 1.477 . S
C283 C288 1.332 1_554 S
C283 N291 1.433 . S
C284 H275 0.930 . S
C284 C282 1.378 . S
C284 C285 1.367 . S
C285 C284 1.367 . S
C285 C287 1.433 . S
C286 C282 1.350 . S
C286 C283 1.477 . S
C286 N290 1.427 . S
C287 H277 0.929 . S
C287 C285 1.433 . S
C287 N290 1.384 . S
C288 H279 0.929 . S
C288 C280 1.378 . S
C288 C283 1.332 1_556 S
C289 H276 0.929 . S
C289 C281 1.433 . S
C289 N291 1.384 1_556 S
N290 C286 1.427 . S
N290 C287 1.384 . S
N291 C283 1.433 . S
N291 C289 1.384 1_554 S
H292 C298 0.930 . S
H293 C302 0.930 . S
H294 C307 0.929 . S
H295 C305 0.929 . S
H296 C300 0.929 . S
H297 C306 0.929 . S
C298 H292 0.930 . S
C298 C299 1.367 . S
C298 C306 1.378 . S
C299 C298 1.367 . S
C299 C307 1.433 . S
C300 H296 0.929 . S
C300 C302 1.378 . S
C300 C304 1.350 . S
C301 C304 1.463 1_554 S
C301 C306 1.350 . S
C301 N309 1.427 1_554 S
C302 H293 0.930 . S
C302 C300 1.378 . S
C302 C303 1.367 . S
C303 C302 1.367 . S
C303 C305 1.433 . S
C304 C300 1.350 . S
C304 C301 1.463 1_556 S
C304 N308 1.427 . S
C305 H295 0.929 . S
C305 C303 1.433 . S
C305 N308 1.384 . S
C306 H297 0.929 . S
C306 C298 1.378 . S
C306 C301 1.350 . S
C307 H294 0.929 . S
C307 C299 1.433 . S
C307 N309 1.384 1_554 S
N308 C304 1.427 . S
N308 C305 1.384 . S
N309 C301 1.427 1_556 S
N309 C307 1.384 1_556 S
H310 C316 0.930 . S
H311 C320 0.930 . S
H312 C325 0.929 . S
H313 C323 0.929 . S
H314 C318 0.929 . S
H315 C324 0.929 . S
C316 H310 0.930 . S
C316 C317 1.367 . S
C316 C324 1.378 1_556 S
C317 C316 1.367 . S
C317 C325 1.433 . S
C318 H314 0.929 . S
C318 C320 1.378 . S
C318 C322 1.350 . S
C319 C322 1.463 . S
C319 C324 1.350 . S
C319 N327 1.427 1_554 S
C320 H311 0.930 . S
C320 C318 1.378 . S
C320 C321 1.367 . S
C321 C320 1.367 . S
C321 C323 1.433 . S
C322 C318 1.350 . S
C322 C319 1.463 . S
C322 N326 1.427 . S
C323 H313 0.929 . S
C323 C321 1.433 . S
C323 N326 1.384 . S
C324 H315 0.929 . S
C324 C316 1.378 1_554 S
C324 C319 1.350 . S
C325 H312 0.929 . S
C325 C317 1.433 . S
C325 N327 1.384 . S
N326 C322 1.427 . S
N326 C323 1.384 . S
N327 C319 1.427 1_556 S
N327 C325 1.384 . S
H328 C334 0.930 . S
H329 C338 0.930 . S
H330 C343 0.929 . S
H331 C341 0.929 . S
H332 C336 0.929 . S
H333 C342 0.929 . S
C334 H328 0.930 . S
C334 C335 1.367 . S
C334 C342 1.378 . S
C335 C334 1.367 . S
C335 C343 1.433 . S
C336 H332 0.929 . S
C336 C338 1.378 . S
C336 C340 1.350 . S
C337 C340 1.463 . S
C337 C342 1.350 . S
C337 N345 1.427 . S
C338 H329 0.930 . S
C338 C336 1.378 . S
C338 C339 1.367 . S
C339 C338 1.367 . S
C339 C341 1.433 . S
C340 C336 1.350 . S
C340 C337 1.463 . S
C340 N344 1.427 . S
C341 H331 0.929 . S
C341 C339 1.433 . S
C341 N344 1.384 . S
C342 H333 0.929 . S
C342 C334 1.378 . S
C342 C337 1.350 . S
C343 H330 0.929 . S
C343 C335 1.433 . S
C343 N345 1.384 . S
N344 C340 1.427 . S
N344 C341 1.384 . S
N345 C337 1.427 . S
N345 C343 1.384 . S
H346 C352 0.930 . S
H347 C356 0.930 . S
H348 C361 0.929 . S
H349 C359 0.929 . S
H350 C354 0.929 . S
H351 C360 0.929 . S
C352 H346 0.930 . S
C352 C353 1.367 . S
C352 C360 1.378 . S
C353 C352 1.367 . S
C353 C361 1.433 . S
C354 H350 0.929 . S
C354 C356 1.378 . S
C354 C358 1.350 . S
C355 C358 1.463 . S
C355 C360 1.350 . S
C355 N363 1.427 . S
C356 H347 0.930 . S
C356 C354 1.378 . S
C356 C357 1.367 . S
C357 C356 1.367 . S
C357 C359 1.433 . S
C358 C354 1.350 . S
C358 C355 1.463 . S
C358 N362 1.427 . S
C359 H349 0.929 . S
C359 C357 1.433 . S
C359 N362 1.384 . S
C360 H351 0.929 . S
C360 C352 1.378 . S
C360 C355 1.350 . S
C361 H348 0.929 . S
C361 C353 1.433 . S
C361 N363 1.384 . S
N362 C358 1.427 . S
N362 C359 1.384 . S
N363 C355 1.427 . S
N363 C361 1.384 . S
H364 C370 0.930 . S
H365 C374 0.930 . S
H366 C379 0.929 . S
H367 C377 0.929 . S
H368 C372 0.929 . S
H369 C378 0.929 . S
C370 H364 0.930 . S
C370 C371 1.367 . S
C370 C378 1.378 . S
C371 C370 1.367 . S
C371 C379 1.433 . S
C372 H368 0.929 . S
C372 C374 1.378 . S
C372 C376 1.350 . S
C373 C376 1.463 . S
C373 C378 1.350 . S
C373 N381 1.427 . S
C374 H365 0.930 . S
C374 C372 1.378 . S
C374 C375 1.367 . S
C375 C374 1.367 . S
C375 C377 1.433 . S
C376 C372 1.350 . S
C376 C373 1.463 . S
C376 N380 1.427 . S
C377 H367 0.929 . S
C377 C375 1.433 . S
C377 N380 1.384 . S
C378 H369 0.929 . S
C378 C370 1.378 . S
C378 C373 1.350 . S
C379 H366 0.929 . S
C379 C371 1.433 . S
C379 N381 1.384 . S
N380 C376 1.427 . S
N380 C377 1.384 . S
N381 C373 1.427 . S
N381 C379 1.384 . S
H382 C388 0.930 . S
H383 C392 0.930 . S
H384 C397 0.929 . S
H385 C395 0.929 . S
H386 C390 0.929 . S
H387 C396 0.929 . S
C388 H382 0.930 . S
C388 C389 1.367 . S
C388 C396 1.378 . S
C389 C388 1.367 . S
C389 C397 1.433 . S
C390 H386 0.929 . S
C390 C392 1.378 . S
C390 C394 1.350 . S
C391 C394 1.463 . S
C391 C396 1.350 . S
C391 N399 1.427 . S
C392 H383 0.930 . S
C392 C390 1.378 . S
C392 C393 1.367 . S
C393 C392 1.367 . S
C393 C395 1.433 . S
C394 C390 1.350 . S
C394 C391 1.463 . S
C394 N398 1.427 . S
C395 H385 0.929 . S
C395 C393 1.433 . S
C395 N398 1.384 . S
C396 H387 0.929 . S
C396 C388 1.378 . S
C396 C391 1.350 . S
C397 H384 0.929 . S
C397 C389 1.433 . S
C397 N399 1.384 . S
N398 C394 1.427 . S
N398 C395 1.384 . S
N399 C391 1.427 . S
N399 C397 1.384 . S
C119 C39 1.240 . S
C123 C11 1.249 . S
C137 C53 1.218 . S
C141 C25 1.210 . S
C155 C67 1.239 . S
C159 C95 1.246 . S
C173 C75 1.069 . S
C177 C103 1.059 . S
C191 C26 0.818 . S
C195 C4 0.809 . S
C209 C18 0.902 . S
C213 C40 0.922 . S
C227 C54 0.817 . S
C231 C32 0.810 . S
C245 C46 0.909 . S
C249 C12 0.918 . S
C263 C102 0.903 . S
C267 C60 0.917 . S
C281 C82 0.760 . S
C285 C68 0.775 . S
C299 C88 0.931 . S
C303 C74 0.922 . S
C317 C110 0.758 . S
C321 C96 0.765 . S
C335 C5 1.598 . S
C339 C81 1.671 . S
C353 C89 1.537 . S
C357 C19 1.543 . S
C371 C33 1.594 . S
C375 C109 1.676 . S
C389 C47 1.553 . S
C393 C61 1.541 . S
