# Generated by pormake.
# Topology wjd, (6)-cn, num edge types: 1
# Building blocks:
#     Node 0, Type 0, BuildingBlock: KUMJIN_clean_sbu_1, # of connection points: 6
#     Node 1, Type 0, BuildingBlock: KUMJIN_clean_sbu_1, # of connection points: 6
#     Node 2, Type 0, BuildingBlock: KUMJIN_clean_sbu_1, # of connection points: 6
#     Node 3, Type 0, BuildingBlock: KUMJIN_clean_sbu_1, # of connection points: 6
#     Node 4, Type 0, BuildingBlock: KUMJIN_clean_sbu_1, # of connection points: 6
#     Node 5, Type 0, BuildingBlock: KUMJIN_clean_sbu_1, # of connection points: 6
#     Node 6, Type 0, BuildingBlock: KUMJIN_clean_sbu_1, # of connection points: 6
#     Node 7, Type 0, BuildingBlock: KUMJIN_clean_sbu_1, # of connection points: 6
#     Node 8, Type 0, BuildingBlock: KUMJIN_clean_sbu_1, # of connection points: 6
#     Node 9, Type 0, BuildingBlock: KUMJIN_clean_sbu_1, # of connection points: 6
#     Node 10, Type 0, BuildingBlock: KUMJIN_clean_sbu_1, # of connection points: 6
#     Node 11, Type 0, BuildingBlock: KUMJIN_clean_sbu_1, # of connection points: 6
#     Edge 12, Type (0, 0), BuildingBlock: KIFKEQ_clean_linker_1, # of connection points: 2
#     Edge 13, Type (0, 0), BuildingBlock: KIFKEQ_clean_linker_1, # of connection points: 2
#     Edge 14, Type (0, 0), BuildingBlock: KIFKEQ_clean_linker_1, # of connection points: 2
#     Edge 15, Type (0, 0), BuildingBlock: KIFKEQ_clean_linker_1, # of connection points: 2
#     Edge 16, Type (0, 0), BuildingBlock: KIFKEQ_clean_linker_1, # of connection points: 2
#     Edge 17, Type (0, 0), BuildingBlock: KIFKEQ_clean_linker_1, # of connection points: 2
#     Edge 18, Type (0, 0), BuildingBlock: KIFKEQ_clean_linker_1, # of connection points: 2
#     Edge 19, Type (0, 0), BuildingBlock: KIFKEQ_clean_linker_1, # of connection points: 2
#     Edge 20, Type (0, 0), BuildingBlock: KIFKEQ_clean_linker_1, # of connection points: 2
#     Edge 21, Type (0, 0), BuildingBlock: KIFKEQ_clean_linker_1, # of connection points: 2
#     Edge 22, Type (0, 0), BuildingBlock: KIFKEQ_clean_linker_1, # of connection points: 2
#     Edge 23, Type (0, 0), BuildingBlock: KIFKEQ_clean_linker_1, # of connection points: 2
#     Edge 24, Type (0, 0), BuildingBlock: KIFKEQ_clean_linker_1, # of connection points: 2
#     Edge 25, Type (0, 0), BuildingBlock: KIFKEQ_clean_linker_1, # of connection points: 2
#     Edge 26, Type (0, 0), BuildingBlock: KIFKEQ_clean_linker_1, # of connection points: 2
#     Edge 27, Type (0, 0), BuildingBlock: KIFKEQ_clean_linker_1, # of connection points: 2
#     Edge 28, Type (0, 0), BuildingBlock: KIFKEQ_clean_linker_1, # of connection points: 2
#     Edge 29, Type (0, 0), BuildingBlock: KIFKEQ_clean_linker_1, # of connection points: 2
#     Edge 30, Type (0, 0), BuildingBlock: KIFKEQ_clean_linker_1, # of connection points: 2
#     Edge 31, Type (0, 0), BuildingBlock: KIFKEQ_clean_linker_1, # of connection points: 2
#     Edge 32, Type (0, 0), BuildingBlock: KIFKEQ_clean_linker_1, # of connection points: 2
#     Edge 33, Type (0, 0), BuildingBlock: KIFKEQ_clean_linker_1, # of connection points: 2
#     Edge 34, Type (0, 0), BuildingBlock: KIFKEQ_clean_linker_1, # of connection points: 2
#     Edge 35, Type (0, 0), BuildingBlock: KIFKEQ_clean_linker_1, # of connection points: 2
#     Edge 36, Type (0, 0), BuildingBlock: KIFKEQ_clean_linker_1, # of connection points: 2
#     Edge 37, Type (0, 0), BuildingBlock: KIFKEQ_clean_linker_1, # of connection points: 2
#     Edge 38, Type (0, 0), BuildingBlock: KIFKEQ_clean_linker_1, # of connection points: 2
#     Edge 39, Type (0, 0), BuildingBlock: KIFKEQ_clean_linker_1, # of connection points: 2
#     Edge 40, Type (0, 0), BuildingBlock: KIFKEQ_clean_linker_1, # of connection points: 2
#     Edge 41, Type (0, 0), BuildingBlock: KIFKEQ_clean_linker_1, # of connection points: 2
#     Edge 42, Type (0, 0), BuildingBlock: KIFKEQ_clean_linker_1, # of connection points: 2
#     Edge 43, Type (0, 0), BuildingBlock: KIFKEQ_clean_linker_1, # of connection points: 2
#     Edge 44, Type (0, 0), BuildingBlock: KIFKEQ_clean_linker_1, # of connection points: 2
#     Edge 45, Type (0, 0), BuildingBlock: KIFKEQ_clean_linker_1, # of connection points: 2
#     Edge 46, Type (0, 0), BuildingBlock: KIFKEQ_clean_linker_1, # of connection points: 2
#     Edge 47, Type (0, 0), BuildingBlock: KIFKEQ_clean_linker_1, # of connection points: 2
# Relax obj value: 0.073
# Max RMSD: 0.186
# Mean RMSD: 0.186
data_MOF--net-wjd--node1-KUMJIN_clean_sbu_1--edge1-KIFKEQ_clean_linker_1
_symmetry_space_group_name_H-M    P1
_symmetry_Int_Tables_number       1
_symmetry_cell_setting            triclinic
loop_
_symmetry_equiv_pos_as_xyz
'x, y, z'
_cell_length_a     39.619869
_cell_length_b     39.646683
_cell_length_c     55.17828
_cell_angle_alpha  89.910682
_cell_angle_beta   90.044913
_cell_angle_gamma 119.96463
loop_
_atom_site_label
_atom_site_type_symbol
_atom_site_fract_x
_atom_site_fract_y
_atom_site_fract_z
_atom_type_partial_charge
Eu0 Eu 0.30573 0.07101 0.13345 0.0
C1 C 0.32652 0.21831 0.07812 0.0
N2 N 0.34434 0.19739 0.07293 0.0
C3 C 0.33469 0.20189 0.03044 0.0
C4 C 0.31144 0.2313 0.05944 0.0
C5 C 0.34919 0.18958 0.04953 0.0
C6 C 0.31562 0.2227 0.03541 0.0
C7 C 0.30366 0.2472 0.10813 0.0
C8 C 0.32263 0.22619 0.10228 0.0
C9 C 0.28886 0.26031 0.08952 0.0
C10 C 0.29266 0.25232 0.06527 0.0
Eu11 Eu 0.36868 0.17945 0.10651 0.0
N12 N 0.33611 0.21209 0.12005 0.0
C13 C 0.29976 0.25407 0.13257 0.0
C14 C 0.33371 0.21994 0.14383 0.0
C15 C 0.31508 0.2406 0.15047 0.0
H16 H 0.36482 0.17446 0.04544 0.0
H17 H 0.3127 0.24627 0.16939 0.0
H18 H 0.2873 0.0706 0.19271 0.0
H19 H 0.36518 0.99333 0.08372 0.0
H20 H 0.34633 0.21059 0.15771 0.0
H21 H 0.28516 0.26988 0.1378 0.0
H22 H 0.33404 0.0335 0.08844 0.0
H23 H 0.33846 0.19555 0.01189 0.0
H24 H 0.27427 0.27654 0.09369 0.0
H25 H 0.28091 0.26252 0.05114 0.0
H26 H 0.29865 0.04485 0.23075 0.0
H27 H 0.30445 0.2322 0.02055 0.0
H28 H 0.38239 0.96843 0.12006 0.0
N29 N 0.31546 0.04822 0.17068 0.0
C30 C 0.33299 0.02627 0.16954 0.0
C31 C 0.30893 0.03985 0.21373 0.0
C32 C 0.3398 0.01072 0.19077 0.0
C33 C 0.30289 0.05474 0.19222 0.0
C34 C 0.32766 0.01791 0.21302 0.0
N35 N 0.33562 0.03315 0.12681 0.0
C36 C 0.34207 0.02339 0.10429 0.0
C37 C 0.36042 0.99477 0.14524 0.0
C38 C 0.34308 0.01826 0.14702 0.0
C39 C 0.36903 0.98634 0.12219 0.0
C40 C 0.35944 1.0004 0.10162 0.0
H41 H 0.33194 1.006 0.22967 0.0
H42 H 0.3634 0.97592 0.20523 0.0
H43 H 0.38156 0.96208 0.16539 0.0
O44 O 0.25652 0.03179 0.1109 0.0
O45 O 0.37215 0.09409 0.1301 0.0
O46 O 0.39899 0.14486 0.10215 0.0
O47 O 0.25299 0.02322 0.14971 0.0
O48 O 0.30202 0.08702 0.09476 0.0
O49 O 0.36004 0.13198 0.07885 0.0
O50 O 0.41293 0.23338 0.12311 0.0
O51 O 0.30198 0.14846 0.1059 0.0
O52 O 0.28256 0.11235 0.14087 0.0
O53 O 0.41666 0.22437 0.08486 0.0
O54 O 0.37933 0.16846 0.14622 0.0
O55 O 0.319 0.1203 0.15876 0.0
C56 C 0.40087 0.11865 0.11578 0.0
C57 C 0.21395 0.96826 0.12514 0.0
C58 C 0.15155 0.90867 0.11903 0.0
C59 C 0.17169 0.88822 0.11543 0.0
C60 C 0.2335 0.94737 0.12166 0.0
C61 C 0.21236 0.90748 0.11684 0.0
C62 C 0.17307 0.94883 0.12397 0.0
C63 C 0.32821 0.09736 0.07776 0.0
C64 C 0.23546 0.01054 0.12898 0.0
C65 C 0.35778 0.98795 0.18909 0.0
C66 C 0.3681 0.98005 0.1664 0.0
C67 C 0.27695 0.13222 0.12376 0.0
C68 C 0.47526 0.26774 0.10576 0.0
C69 C 0.53664 0.32819 0.11322 0.0
C70 C 0.55577 0.30637 0.11445 0.0
C71 C 0.49489 0.24663 0.10716 0.0
C72 C 0.49621 0.30848 0.10867 0.0
C73 C 0.53502 0.26596 0.11134 0.0
C74 C 0.35416 0.14879 0.1636 0.0
C75 C 0.43261 0.24774 0.10322 0.0
H76 H 0.15596 0.85723 0.11183 0.0
H77 H 0.26495 0.96188 0.1225 0.0
H78 H 0.22754 0.89144 0.11414 0.0
H79 H 0.15809 0.96519 0.12641 0.0
H80 H 0.58688 0.32061 0.11761 0.0
H81 H 0.4791 0.21527 0.10534 0.0
H82 H 0.4808 0.32465 0.10807 0.0
H83 H 0.55007 0.24951 0.11237 0.0
Eu84 Eu 0.8239 0.65614 0.40079 0.0
C85 C 0.68806 0.66503 0.35106 0.0
N86 N 0.72486 0.67794 0.34276 0.0
C87 C 0.69989 0.64831 0.30417 0.0
C88 C 0.6555 0.64219 0.33621 0.0
C89 C 0.73126 0.67089 0.31952 0.0
C90 C 0.66183 0.63372 0.31257 0.0
C91 C 0.64519 0.66116 0.38368 0.0
C92 C 0.68304 0.67405 0.37469 0.0
C93 C 0.61268 0.63776 0.3691 0.0
C94 C 0.61782 0.6283 0.34545 0.0
Eu95 Eu 0.77583 0.71529 0.37007 0.0
N96 N 0.71505 0.69658 0.38853 0.0
C97 C 0.64114 0.67314 0.40681 0.0
C98 C 0.71119 0.71147 0.40992 0.0
C99 C 0.67432 0.69909 0.41977 0.0
H100 H 0.76058 0.68316 0.31275 0.0
H101 H 0.67154 0.7103 0.43708 0.0
H102 H 0.83034 0.6756 0.4601 0.0
H103 H 0.93954 0.6929 0.33377 0.0
H104 H 0.73632 0.73401 0.41904 0.0
H105 H 0.61258 0.66392 0.41436 0.0
H106 H 0.87229 0.66146 0.34848 0.0
H107 H 0.70512 0.64228 0.28587 0.0
H108 H 0.58341 0.62737 0.37581 0.0
H109 H 0.59244 0.61048 0.33438 0.0
H110 H 0.88152 0.7096 0.49101 0.0
H111 H 0.63758 0.61618 0.30063 0.0
H112 H 0.99418 0.73025 0.36201 0.0
N113 N 0.8706 0.68837 0.43134 0.0
C114 C 0.9086 0.70484 0.42458 0.0
C115 C 0.88951 0.70859 0.47238 0.0
C116 C 0.93872 0.72429 0.44166 0.0
C117 C 0.86061 0.68962 0.45483 0.0
C118 C 0.92873 0.72605 0.46578 0.0
N119 N 0.88759 0.68454 0.38417 0.0
C120 C 0.89531 0.67952 0.36076 0.0
C121 C 0.95654 0.72012 0.39286 0.0
C122 C 0.91733 0.70289 0.40037 0.0
C123 C 0.96446 0.71728 0.3685 0.0
C124 C 0.9337 0.6965 0.35246 0.0
H125 H 0.95103 0.74074 0.47943 0.0
H126 H 1.00125 0.75664 0.44702 0.0
H127 H 0.01682 0.75274 0.40436 0.0
O128 O 0.82448 0.60318 0.3896 0.0
O129 O 0.8564 0.72235 0.40308 0.0
O130 O 0.84203 0.74242 0.36751 0.0
O131 O 0.82068 0.61359 0.4274 0.0
O132 O 0.80634 0.64478 0.36039 0.0
O133 O 0.81654 0.70433 0.3476 0.0
O134 O 0.7811 0.77346 0.376 0.0
O135 O 0.74032 0.64773 0.3699 0.0
O136 O 0.75937 0.63141 0.4051 0.0
O137 O 0.77674 0.75014 0.3396 0.0
O138 O 0.79273 0.72609 0.40994 0.0
O139 O 0.78472 0.66831 0.426 0.0
C140 C 0.86651 0.74717 0.38508 0.0
C141 C 0.85711 0.58262 0.41699 0.0
C142 C 0.8866 0.54103 0.41195 0.0
C143 C 0.9177 0.56695 0.42678 0.0
C144 C 0.88845 0.60727 0.43202 0.0
C145 C 0.91851 0.59962 0.43669 0.0
C146 C 0.85611 0.54909 0.40712 0.0
C147 C 0.8117 0.66984 0.34292 0.0
C148 C 0.82595 0.59222 0.41163 0.0
C149 C 0.97772 0.74151 0.43416 0.0
C150 C 0.98658 0.73938 0.40985 0.0
C151 C 0.73431 0.62262 0.38745 0.0
C152 C 0.78067 0.81298 0.34111 0.0
C153 C 0.7935 0.88047 0.34119 0.0
C154 C 0.78158 0.87576 0.31678 0.0
C155 C 0.76862 0.80954 0.31683 0.0
C156 C 0.79328 0.84877 0.35334 0.0
C157 C 0.76919 0.84066 0.30482 0.0
C158 C 0.78372 0.7012 0.42802 0.0
C159 C 0.77979 0.77869 0.35275 0.0
H160 H 0.94115 0.56147 0.43129 0.0
H161 H 0.88973 0.63242 0.44044 0.0
H162 H 0.94243 0.61897 0.44831 0.0
H163 H 0.83196 0.52964 0.39566 0.0
H164 H 0.78227 0.89956 0.30669 0.0
H165 H 0.75865 0.78259 0.30695 0.0
H166 H 0.80254 0.85184 0.37208 0.0
H167 H 0.76007 0.8376 0.28607 0.0
Eu168 Eu 0.93898 0.2417 0.13958 0.0
C169 C 0.8038 0.10619 0.08803 0.0
N170 N 0.82347 0.14257 0.07836 0.0
C171 C 0.8274 0.11633 0.04007 0.0
C172 C 0.7958 0.07329 0.07403 0.0
C173 C 0.83487 0.1481 0.05468 0.0
C174 C 0.80796 0.07878 0.04981 0.0
C175 C 0.77153 0.06453 0.12257 0.0
C176 C 0.79226 0.10202 0.11215 0.0
C177 C 0.76424 0.03177 0.10883 0.0
C178 C 0.77631 0.03614 0.08463 0.0
Eu179 Eu 0.83562 0.19464 0.10427 0.0
N180 N 0.80043 0.13438 0.12523 0.0
C181 C 0.75786 0.06095 0.14632 0.0
C182 C 0.78352 0.13044 0.14738 0.0
C183 C 0.76308 0.09397 0.15855 0.0
H184 H 0.84965 0.17705 0.04703 0.0
H185 H 0.75066 0.09128 0.1764 0.0
H186 H 0.92303 0.21064 0.19715 0.0
H187 H 0.02365 0.38949 0.10368 0.0
H188 H 0.78436 0.15494 0.1563 0.0
H189 H 0.7418 0.03269 0.15496 0.0
H190 H 0.98753 0.31768 0.10173 0.0
H191 H 0.83666 0.12081 0.02132 0.0
H192 H 0.74877 1.00285 0.11667 0.0
H193 H 0.77024 0.01056 0.07422 0.0
H194 H 0.92951 0.23854 0.23813 0.0
H195 H 0.80239 0.05423 0.03847 0.0
H196 H 0.03209 0.42267 0.14303 0.0
N197 N 0.94857 0.26559 0.17951 0.0
C198 C 0.96679 0.30488 0.18196 0.0
C199 C 0.94013 0.25752 0.22249 0.0
C200 C 0.97157 0.32209 0.20495 0.0
C201 C 0.93632 0.24181 0.19931 0.0
C202 C 0.95715 0.29781 0.22526 0.0
N203 N 0.97566 0.31039 0.13951 0.0
C204 C 0.99135 0.33185 0.11898 0.0
C205 C 1.00132 0.36888 0.16338 0.0
C206 C 0.98127 0.32798 0.16143 0.0
C207 C 0.01645 0.39115 0.1423 0.0
C208 C 1.01174 0.37253 0.12004 0.0
H209 H 0.95934 0.30996 0.2431 0.0
H210 H 0.99454 0.37658 0.22448 0.0
H211 H 0.02083 0.41758 0.18809 0.0
O212 O 0.97909 0.2272 0.1213 0.0
O213 O 0.91321 0.2821 0.13412 0.0
O214 O 0.87165 0.25985 0.10082 0.0
O215 O 0.98548 0.23961 0.15967 0.0
O216 O 0.94298 0.24548 0.09862 0.0
O217 O 0.88584 0.23075 0.07758 0.0
O218 O 0.78098 0.19418 0.11171 0.0
O219 O 0.87485 0.16768 0.10263 0.0
O220 O 0.89663 0.17692 0.14132 0.0
O221 O 0.79702 0.19201 0.07486 0.0
O222 O 0.83962 0.21641 0.14367 0.0
O223 O 0.88323 0.20024 0.15832 0.0
C224 C 0.89258 0.28671 0.11688 0.0
C225 C 0.04216 0.25218 0.13808 0.0
C226 C 0.10328 0.25107 0.13428 0.0
C227 C 0.12345 0.29204 0.13302 0.0
C228 C 0.06296 0.29291 0.1367 0.0
C229 C 0.10341 0.31266 0.13422 0.0
C230 C 0.06236 0.23133 0.13694 0.0
C231 C 0.92396 0.24337 0.0785 0.0
C232 C 0.99945 0.23111 0.14077 0.0
C233 C 0.99073 0.36284 0.20695 0.0
C234 C 1.00572 0.38618 0.18623 0.0
C235 C 0.8856 0.15564 0.12166 0.0
C236 C 0.72924 0.1559 0.08485 0.0
C237 C 0.65813 0.12534 0.09031 0.0
C238 C 0.65369 0.09235 0.07792 0.0
C239 C 0.72342 0.12248 0.07249 0.0
C240 C 0.69633 0.15727 0.09366 0.0
C241 C 0.686 0.09103 0.06913 0.0
C242 C 0.85717 0.21056 0.16216 0.0
C243 C 0.76946 0.18859 0.08929 0.0
H244 H 0.15488 0.30826 0.13136 0.0
H245 H 0.04795 0.30939 0.13764 0.0
H246 H 0.11934 0.34414 0.13328 0.0
H247 H 0.04615 0.1998 0.13777 0.0
H248 H 0.62503 0.06767 0.07452 0.0
H249 H 0.74776 0.12052 0.06533 0.0
H250 H 0.70054 0.18286 0.10332 0.0
H251 H 0.68199 0.0655 0.05953 0.0
Eu252 Eu 0.37749 0.18549 0.40126 0.0
C253 C 0.34537 0.0491 0.32286 0.0
N254 N 0.32692 0.06974 0.32644 0.0
C255 C 0.32406 0.07791 0.28363 0.0
C256 C 0.35453 0.04257 0.29929 0.0
C257 C 0.31503 0.08307 0.30732 0.0
C258 C 0.34445 0.05812 0.27962 0.0
C259 C 0.37179 0.01054 0.33969 0.0
C260 C 0.35433 0.03369 0.34281 0.0
C261 C 0.38139 1.0043 0.31624 0.0
C262 C 0.37301 0.02049 0.29611 0.0
Eu263 Eu 0.31695 0.08068 0.36702 0.0
N264 N 0.3456 0.04104 0.36529 0.0
C265 C 0.37884 0.99416 0.36023 0.0
C266 C 0.35163 0.02459 0.38535 0.0
C267 C 0.36842 1.00097 0.38313 0.0
H268 H 0.29899 0.09813 0.3104 0.0
H269 H 0.37347 0.98819 0.39909 0.0
H270 H 0.34938 0.17207 0.45923 0.0
H271 H 0.35549 0.27021 0.33053 0.0
H272 H 0.34366 0.02978 0.40307 0.0
H273 H 0.39207 0.97606 0.35859 0.0
H274 H 0.38586 0.23579 0.34924 0.0
H275 H 0.31549 0.08938 0.2685 0.0
H276 H 0.3951 0.98684 0.31348 0.0
H277 H 0.38036 0.01525 0.27812 0.0
H278 H 0.30859 0.18638 0.48646 0.0
H279 H 0.35192 0.05463 0.26132 0.0
H280 H 0.30827 0.28079 0.35377 0.0
N281 N 0.3398 0.19862 0.42853 0.0
C282 C 0.32306 0.21877 0.41962 0.0
C283 C 0.31232 0.19553 0.46769 0.0
C284 C 0.29955 0.22753 0.43451 0.0
C285 C 0.33525 0.18734 0.45223 0.0
C286 C 0.29424 0.21555 0.45878 0.0
N287 N 0.35185 0.22116 0.38147 0.0
C288 C 0.36326 0.23744 0.35902 0.0
C289 C 0.31214 0.25126 0.38578 0.0
C290 C 0.32902 0.23009 0.39542 0.0
C291 C 0.32064 0.26445 0.36184 0.0
C292 C 0.34702 0.25826 0.3486 0.0
H293 H 0.27635 0.22169 0.47078 0.0
H294 H 0.26337 0.25423 0.43583 0.0
H295 H 0.27454 0.27517 0.39321 0.0
O296 O 0.43191 0.23912 0.39272 0.0
O297 O 0.3114 0.14701 0.40452 0.0
O298 O 0.2964 0.12453 0.36609 0.0
O299 O 0.41567 0.22403 0.42994 0.0
O300 O 0.39241 0.18082 0.36141 0.0
O301 O 0.33168 0.13678 0.34848 0.0
O302 O 0.26346 0.04322 0.38718 0.0
O303 O 0.38322 0.10463 0.37026 0.0
O304 O 0.40526 0.14804 0.40258 0.0
O305 O 0.26569 0.03445 0.34872 0.0
O306 O 0.32075 0.07816 0.40784 0.0
O307 O 0.36511 0.13563 0.4278 0.0
C308 C 0.28756 0.13621 0.38603 0.0
C309 C 0.44806 0.29157 0.41939 0.0
C310 C 0.48943 0.36225 0.41304 0.0
C311 C 0.46154 0.36779 0.42541 0.0
C312 C 0.42118 0.29843 0.43186 0.0
C313 C 0.42788 0.3362 0.43476 0.0
C314 C 0.48248 0.32377 0.41016 0.0
C315 C 0.3679 0.16224 0.34365 0.0
C316 C 0.43938 0.251 0.41503 0.0
C317 C 0.28182 0.24756 0.42472 0.0
C318 C 0.28806 0.25935 0.40042 0.0
C319 C 0.41079 0.12822 0.38553 0.0
C320 C 0.2222 0.97965 0.37207 0.0
C321 C 0.15924 0.9198 0.37726 0.0
C322 C 0.17921 0.89892 0.37966 0.0
C323 C 0.24126 0.95809 0.37448 0.0
C324 C 0.18115 0.96041 0.37331 0.0
C325 C 0.21982 0.91795 0.37823 0.0
C326 C 0.33924 0.09762 0.42747 0.0
C327 C 0.2448 0.02215 0.36839 0.0
H328 H 0.46611 0.3968 0.42832 0.0
H329 H 0.39485 0.27464 0.43939 0.0
H330 H 0.40687 0.34102 0.44439 0.0
H331 H 0.5034 0.31882 0.40047 0.0
H332 H 0.16337 0.86768 0.38237 0.0
H333 H 0.27266 0.97227 0.37341 0.0
H334 H 0.16642 0.97712 0.37161 0.0
H335 H 0.23475 0.90148 0.38002 0.0
Eu336 Eu 0.77656 0.70723 0.14126 0.0
C337 C 0.90678 0.69965 0.08249 0.0
N338 N 0.86895 0.68227 0.0753 0.0
C339 C 0.88842 0.70332 0.03444 0.0
C340 C 0.93713 0.72021 0.06567 0.0
C341 C 0.85932 0.68302 0.05167 0.0
C342 C 0.92749 0.72213 0.04148 0.0
C343 C 0.95447 0.71489 0.11444 0.0
C344 C 0.91527 0.69706 0.10674 0.0
C345 C 0.98464 0.73556 0.09774 0.0
C346 C 0.97601 0.73814 0.07344 0.0
Eu347 Eu 0.82239 0.64727 0.1052 0.0
N348 N 0.88548 0.67664 0.12265 0.0
C349 C 0.9623 0.71077 0.13863 0.0
C350 C 0.8933 0.66976 0.14563 0.0
C351 C 0.9316 0.6876 0.15419 0.0
H352 H 0.82924 0.66761 0.04603 0.0
H353 H 0.93745 0.68261 0.17261 0.0
H354 H 0.83138 0.74184 0.19099 0.0
H355 H 0.6191 0.64395 0.13254 0.0
H356 H 0.87053 0.64927 0.15723 0.0
H357 H 0.99198 0.72418 0.14525 0.0
H358 H 0.6877 0.67742 0.11839 0.0
H359 H 0.88072 0.70414 0.01571 0.0
H360 H 1.01484 0.74944 0.10341 0.0
H361 H 0.99966 0.75404 0.06077 0.0
H362 H 0.8231 0.73574 0.23558 0.0
H363 H 0.94999 0.73773 0.02806 0.0
H364 H 0.60427 0.62717 0.17595 0.0
N365 N 0.77107 0.70533 0.18383 0.0
C366 C 0.73458 0.68508 0.19311 0.0
C367 C 0.79798 0.72105 0.22385 0.0
C368 C 0.72836 0.68084 0.21835 0.0
C369 C 0.8026 0.72443 0.19866 0.0
C370 C 0.76076 0.69856 0.23375 0.0
N371 N 0.71064 0.67803 0.15328 0.0
C372 C 0.68121 0.67019 0.13735 0.0
C373 C 0.66488 0.65232 0.18626 0.0
C374 C 0.70333 0.67104 0.17732 0.0
C375 C 0.63425 0.64166 0.16981 0.0
C376 C 0.6425 0.65119 0.1453 0.0
H377 H 0.75727 0.69599 0.25327 0.0
H378 H 0.68464 0.65657 0.24665 0.0
H379 H 0.62905 0.63147 0.21855 0.0
O380 O 0.79212 0.75788 0.11816 0.0
O381 O 0.73136 0.64332 0.1341 0.0
O382 O 0.75906 0.61064 0.11422 0.0
O383 O 0.77575 0.75836 0.15533 0.0
O384 O 0.7601 0.6946 0.10172 0.0
O385 O 0.78421 0.66028 0.07975 0.0
O386 O 0.84584 0.60778 0.10646 0.0
O387 O 0.84531 0.71245 0.10036 0.0
O388 O 0.84093 0.728 0.13917 0.0
O389 O 0.80454 0.60011 0.07866 0.0
O390 O 0.80508 0.63155 0.1452 0.0
O391 O 0.81939 0.69179 0.15678 0.0
C392 C 0.72975 0.61224 0.12414 0.0
C393 C 0.82416 0.81786 0.13887 0.0
C394 C 0.85611 0.88876 0.13523 0.0
C395 C 0.8908 0.89149 0.14388 0.0
C396 C 0.85884 0.82154 0.1481 0.0
C397 C 0.89202 0.8581 0.15036 0.0
C398 C 0.82268 0.85162 0.13272 0.0
C399 C 0.76414 0.67893 0.0816 0.0
C400 C 0.78986 0.77878 0.13564 0.0
C401 C 0.69009 0.6604 0.22734 0.0
C402 C 0.6584 0.64614 0.21132 0.0
C403 C 0.85969 0.73702 0.11849 0.0
C404 C 0.80309 0.54333 0.09479 0.0
C405 C 0.80519 0.48415 0.10534 0.0
C406 C 0.7648 0.46506 0.10969 0.0
C407 C 0.76285 0.52346 0.09934 0.0
C408 C 0.82412 0.52341 0.09765 0.0
C409 C 0.74389 0.48455 0.10662 0.0
C410 C 0.80815 0.65577 0.16245 0.0
C411 C 0.82395 0.58551 0.08913 0.0
H412 H 0.91682 0.91961 0.14618 0.0
H413 H 0.86023 0.79614 0.15367 0.0
H414 H 0.91872 0.86058 0.15733 0.0
H415 H 0.79583 0.84898 0.12585 0.0
H416 H 0.74922 0.43481 0.11526 0.0
H417 H 0.7461 0.53811 0.09758 0.0
H418 H 0.85531 0.53881 0.09457 0.0
H419 H 0.71284 0.46949 0.11009 0.0
Eu420 Eu 0.84613 0.20204 0.39963 0.0
C421 C 0.99396 0.32585 0.33565 0.0
N422 N 0.97303 0.28641 0.33401 0.0
C423 C 0.97879 0.29001 0.29082 0.0
C424 C 1.00751 0.3491 0.31463 0.0
C425 C 0.96554 0.26821 0.31212 0.0
C426 C 0.99954 0.33066 0.29202 0.0
C427 C 0.0245 0.38387 0.36075 0.0
C428 C 1.00257 0.34304 0.35846 0.0
C429 C 0.03742 0.40716 0.33982 0.0
C430 C 0.02902 0.38983 0.31683 0.0
Eu431 Eu 0.95341 0.25224 0.37087 0.0
N432 N 0.98914 0.31979 0.37841 0.0
C433 C 0.0329 0.40005 0.38404 0.0
C434 C 0.99861 0.33525 0.40113 0.0
C435 C 0.02016 0.3756 0.4043 0.0
H436 H 0.95045 0.23681 0.3112 0.0
H437 H 0.02708 0.38782 0.42236 0.0
H438 H 0.86213 0.18412 0.45652 0.0
H439 H 0.7651 0.10033 0.32597 0.0
H440 H 0.98941 0.31655 0.41678 0.0
H441 H 0.04961 0.4313 0.38656 0.0
H442 H 0.80025 0.16407 0.34565 0.0
H443 H 0.97344 0.27534 0.27357 0.0
H444 H 0.0542 0.4386 0.34123 0.0
H445 H 0.03954 0.40817 0.30087 0.0
H446 H 0.84617 0.12723 0.48255 0.0
H447 H 1.00986 0.3475 0.27546 0.0
H448 H 0.75028 0.04083 0.34882 0.0
N449 N 0.83363 0.14987 0.42555 0.0
C450 C 0.81167 0.11353 0.41614 0.0
C451 C 0.83645 0.12301 0.46389 0.0
C452 C 0.80194 0.0803 0.43035 0.0
C453 C 0.84563 0.15513 0.44911 0.0
C454 C 0.81461 0.08544 0.45447 0.0
N455 N 0.8108 0.14228 0.37839 0.0
C456 C 0.7967 0.13902 0.3554 0.0
C457 C 0.7786 0.0722 0.38159 0.0
C458 C 0.80037 0.10965 0.3919 0.0
C459 C 0.76689 0.06905 0.35739 0.0
C460 C 0.7755 0.10258 0.34437 0.0
H461 H 0.80774 0.06063 0.46595 0.0
H462 H 0.77295 0.01728 0.43063 0.0
H463 H 0.75244 0.01019 0.38802 0.0
O464 O 0.7886 0.19665 0.39221 0.0
O465 O 0.883 0.17229 0.40127 0.0
O466 O 0.9116 0.18802 0.36435 0.0
O467 O 0.80875 0.19954 0.42935 0.0
O468 O 0.85359 0.22469 0.36003 0.0
O469 O 0.90251 0.21423 0.34703 0.0
O470 O 0.99601 0.24236 0.39019 0.0
O471 O 0.92712 0.2926 0.37402 0.0
O472 O 0.87879 0.26724 0.4034 0.0
O473 O 1.00129 0.25167 0.35156 0.0
O474 O 0.94705 0.23882 0.41101 0.0
O475 O 0.89412 0.24128 0.42664 0.0
C476 C 0.89579 0.16281 0.38205 0.0
C477 C 0.74448 0.19257 0.42502 0.0
C478 C 0.67616 0.17567 0.42094 0.0
C479 C 0.67502 0.18173 0.4459 0.0
C480 C 0.74238 0.19867 0.44995 0.0
C481 C 0.70796 0.1934 0.46023 0.0
C482 C 0.71119 0.18152 0.41039 0.0
C483 C 0.87393 0.22088 0.34228 0.0
C484 C 0.78084 0.19577 0.4152 0.0
C485 C 0.78051 0.04312 0.42002 0.0
C486 C 0.76894 0.0391 0.39572 0.0
C487 C 0.90231 0.29539 0.38879 0.0
C488 C 0.0182 0.20692 0.36749 0.0
C489 C 0.05599 0.17401 0.37275 0.0
C490 C 0.02436 0.13963 0.36361 0.0
C491 C 0.98755 0.17252 0.35774 0.0
C492 C 0.05269 0.20773 0.37474 0.0
C493 C 0.99048 0.13902 0.35606 0.0
C494 C 0.92957 0.24609 0.42875 0.0
C495 C 1.01369 0.24144 0.37048 0.0
H496 H 0.64853 0.17767 0.45431 0.0
H497 H 0.76733 0.20723 0.46165 0.0
H498 H 0.70674 0.19812 0.47945 0.0
H499 H 0.71215 0.17654 0.39116 0.0
H500 H 0.02623 0.11342 0.36168 0.0
H501 H 0.96139 0.17154 0.35124 0.0
H502 H 0.07666 0.23431 0.38203 0.0
H503 H 0.96653 0.11259 0.34868 0.0
Eu504 Eu 0.18573 0.37296 0.60688 0.0
C505 C 0.04608 0.35923 0.66871 0.0
N506 N 0.06558 0.33949 0.67217 0.0
C507 C 0.06818 0.35088 0.71491 0.0
C508 C 0.03741 0.37621 0.68842 0.0
C509 C 0.07585 0.33428 0.69485 0.0
C510 C 0.04902 0.37208 0.7117 0.0
C511 C 1.01479 0.38309 0.64119 0.0
C512 C 0.03502 0.36276 0.64531 0.0
C513 C 1.00627 0.40017 0.66078 0.0
C514 C 0.01759 0.39679 0.68432 0.0
Eu515 Eu 0.07967 0.31507 0.63706 0.0
N516 N 0.04468 0.34689 0.62655 0.0
C517 C 1.00362 0.38555 0.61747 0.0
C518 C 0.03222 0.34761 0.60363 0.0
C519 C 1.012 0.36735 0.59867 0.0
H520 H 0.08944 0.31682 0.69749 0.0
H521 H 1.0026 0.36823 0.58037 0.0
H522 H 0.17911 0.37089 0.54623 0.0
H523 H 0.25181 0.31212 0.66721 0.0
H524 H 0.03709 0.33245 0.58918 0.0
H525 H 0.98798 0.40086 0.61356 0.0
H526 H 0.21886 0.3488 0.65698 0.0
H527 H 0.07694 0.34719 0.7328 0.0
H528 H 0.99086 0.416 0.65793 0.0
H529 H 1.01076 0.4101 0.69924 0.0
H530 H 0.1974 0.34394 0.5116 0.0
H531 H 0.04305 0.38485 0.72729 0.0
H532 H 0.27172 0.28289 0.63465 0.0
N533 N 0.20206 0.34868 0.57265 0.0
C534 C 0.22151 0.32912 0.577 0.0
C535 C 0.2042 0.33944 0.5299 0.0
C536 C 0.23279 0.31355 0.55774 0.0
C537 C 0.1936 0.35438 0.54956 0.0
C538 C 0.22381 0.31887 0.534 0.0
N539 N 0.21703 0.33811 0.61916 0.0
C540 C 0.22595 0.33513 0.64266 0.0
C541 C 0.24927 0.30341 0.60589 0.0
C542 C 0.22946 0.32392 0.60087 0.0
C543 C 0.25678 0.29865 0.63006 0.0
C544 C 0.24536 0.31489 0.64849 0.0
H545 H 0.23198 0.30734 0.51872 0.0
H546 H 0.26142 0.28099 0.54816 0.0
H547 H 0.27622 0.27252 0.59025 0.0
O548 O 0.24071 0.41803 0.62212 0.0
O549 O 0.15126 0.30688 0.6034 0.0
O550 O 0.11951 0.28913 0.63962 0.0
O551 O 0.22876 0.42086 0.5843 0.0
O552 O 0.17923 0.38304 0.64758 0.0
O553 O 0.13021 0.32313 0.65971 0.0
O554 O 0.03068 0.2619 0.62213 0.0
O555 O 0.11104 0.38245 0.63689 0.0
O556 O 0.14859 0.40061 0.6024 0.0
O557 O 0.03577 0.27058 0.66077 0.0
O558 O 0.08407 0.30725 0.59664 0.0
O559 O 0.13613 0.36363 0.58095 0.0
C560 C 0.13503 0.28143 0.62093 0.0
C561 C 0.2723 0.48025 0.60434 0.0
C562 C 0.33131 0.54289 0.61216 0.0
C563 C 0.30827 0.5608 0.6121 0.0
C564 C 0.25009 0.4988 0.60447 0.0
C565 C 0.26806 0.53891 0.60823 0.0
C566 C 0.31293 0.50239 0.60804 0.0
C567 C 0.1598 0.35748 0.66486 0.0
C568 C 0.25333 0.43757 0.60202 0.0
C569 C 0.25249 0.29311 0.56273 0.0
C570 C 0.26084 0.2882 0.58671 0.0
C571 C 0.1307 0.408 0.6197 0.0
C572 C 1.01325 0.20672 0.64656 0.0
C573 C 0.97558 0.136 0.64147 0.0
C574 C 1.00751 0.13338 0.65025 0.0
C575 C 0.04431 0.20306 0.65583 0.0
C576 C 0.97856 0.17293 0.63967 0.0
C577 C 0.0415 0.16668 0.6575 0.0
C578 C 0.10175 0.33151 0.57858 0.0
C579 C 0.01802 0.2459 0.64331 0.0
H580 H 0.3214 0.59188 0.61489 0.0
H581 H 0.21887 0.48218 0.60191 0.0
H582 H 0.25071 0.55306 0.60831 0.0
H583 H 0.32999 0.4879 0.60839 0.0
H584 H 1.00587 0.10537 0.65194 0.0
H585 H 0.07084 0.22837 0.66181 0.0
H586 H 0.95433 0.17538 0.63262 0.0
H587 H 0.06574 0.16428 0.66452 0.0
Eu588 Eu 0.25216 0.9534 0.88075 0.0
C589 C 0.12209 0.80937 0.92652 0.0
N590 N 0.1607 0.82598 0.93177 0.0
C591 C 0.14652 0.82627 0.97409 0.0
C592 C 0.09443 0.80247 0.94478 0.0
C593 C 0.17272 0.832 0.95541 0.0
C594 C 0.10733 0.81223 0.9687 0.0
C595 C 0.06987 0.77717 0.89719 0.0
C596 C 0.10984 0.79687 0.90308 0.0
C597 C 0.04245 0.77204 0.91503 0.0
C598 C 0.05472 0.78478 0.93876 0.0
Eu599 Eu 0.2031 0.83825 0.89811 0.0
N600 N 0.13708 0.80329 0.88604 0.0
C601 C 0.05869 0.76284 0.87361 0.0
C602 C 0.12637 0.78753 0.86341 0.0
C603 C 0.08705 0.76755 0.85674 0.0
H604 H 0.20242 0.84084 0.96018 0.0
H605 H 0.07866 0.756 0.8386 0.0
H606 H 0.28881 0.95401 0.82618 0.0
H607 H 0.32547 0.04573 0.95893 0.0
H608 H 0.14847 0.79159 0.85037 0.0
H609 H 0.02827 0.74758 0.86837 0.0
H610 H 0.26936 1.00236 0.93309 0.0
H611 H 0.1565 0.83213 0.99268 0.0
H612 H 1.01165 0.75761 0.91076 0.0
H613 H 0.03315 0.77978 0.95249 0.0
H614 H 0.35332 0.97947 0.8067 0.0
H615 H 0.08704 0.80743 0.98324 0.0
H616 H 0.39253 0.06713 0.945 0.0
N617 N 0.31251 0.97797 0.86064 0.0
C618 C 0.34502 1.00111 0.87372 0.0
C619 C 0.35139 0.98554 0.82561 0.0
C620 C 0.38236 0.01639 0.8634 0.0
C621 C 0.31497 0.97109 0.83665 0.0
C622 C 0.38526 1.0079 0.83912 0.0
N623 N 0.30409 0.99628 0.90617 0.0
C624 C 0.29841 0.01013 0.92745 0.0
C625 C 0.37365 0.03573 0.91106 0.0
C626 C 0.34066 0.01023 0.89729 0.0
C627 C 0.36798 0.04745 0.93389 0.0
C628 C 0.33016 0.03531 0.94186 0.0
H629 H 0.41344 0.01911 0.83051 0.0
H630 H 0.4444 0.05204 0.86992 0.0
H631 H 0.43677 0.06924 0.91162 0.0
O632 O 0.25008 1.00666 0.88594 0.0
O633 O 0.28916 0.92313 0.8776 0.0
O634 O 0.26606 0.87749 0.90812 0.0
O635 O 0.23669 0.97972 0.85067 0.0
O636 O 0.22561 0.93166 0.91779 0.0
O637 O 0.23814 0.88304 0.92824 0.0
O638 O 0.21315 0.79621 0.8787 0.0
O639 O 0.16913 0.86213 0.87837 0.0
O640 O 0.19106 0.92046 0.89684 0.0
O641 O 0.19406 0.78455 0.9158 0.0
O642 O 0.22779 0.85627 0.85952 0.0
O643 O 0.22308 0.91103 0.84992 0.0
C644 C 0.29391 0.90059 0.89326 0.0
C645 C 0.2587 0.04796 0.85335 0.0
C646 C 0.25925 0.10974 0.85006 0.0
C647 C 0.29654 0.1266 0.83961 0.0
C648 C 0.29583 0.06513 0.84283 0.0
C649 C 0.31447 0.10427 0.83581 0.0
C650 C 0.24036 0.07019 0.85662 0.0
C651 C 0.23734 0.91516 0.93366 0.0
C652 C 0.24021 1.00863 0.8638 0.0
C653 C 0.41541 0.04022 0.87745 0.0
C654 C 0.41106 0.04992 0.90123 0.0
C655 C 0.16269 0.88912 0.88691 0.0
C656 C 0.22569 0.75168 0.89968 0.0
C657 C 0.22776 0.69099 0.89755 0.0
C658 C 0.26844 0.7127 0.90057 0.0
C659 C 0.26619 0.77268 0.90279 0.0
C660 C 0.20654 0.71084 0.89734 0.0
C661 C 0.2874 0.75318 0.90334 0.0
C662 C 0.22497 0.87989 0.84366 0.0
C663 C 0.20322 0.77181 0.89663 0.0
H664 H 0.31175 0.15701 0.83437 0.0
H665 H 0.31063 0.0486 0.84056 0.0
H666 H 0.34323 0.11755 0.82779 0.0
H667 H 0.21202 0.05712 0.86529 0.0
H668 H 0.28557 0.69831 0.90098 0.0
H669 H 0.28137 0.80409 0.90438 0.0
H670 H 0.17527 0.69468 0.89454 0.0
H671 H 0.31871 0.76955 0.90564 0.0
Eu672 Eu 0.65652 0.8284 0.60765 0.0
C673 C 0.68165 0.70274 0.66948 0.0
N674 N 0.70029 0.74215 0.67141 0.0
C675 C 0.70119 0.73763 0.71466 0.0
C676 C 0.67176 0.67908 0.69033 0.0
C677 C 0.71068 0.75989 0.69346 0.0
C678 C 0.6815 0.69703 0.7131 0.0
C679 C 0.65457 0.64522 0.64395 0.0
C680 C 0.67294 0.68599 0.64654 0.0
C681 C 0.64439 0.62155 0.6647 0.0
C682 C 0.65287 0.63842 0.68781 0.0
Eu683 Eu 0.71426 0.77693 0.63477 0.0
N684 N 0.6825 0.70956 0.62676 0.0
C685 C 0.64731 0.62949 0.62056 0.0
C686 C 0.67654 0.69452 0.60394 0.0
C687 C 0.65863 0.65428 0.60048 0.0
H688 H 0.72705 0.79124 0.69462 0.0
H689 H 0.65366 0.64241 0.58233 0.0
H690 H 0.67247 0.83604 0.54769 0.0
H691 H 0.7064 0.94228 0.67716 0.0
H692 H 0.68582 0.71337 0.58836 0.0
H693 H 0.63336 0.59832 0.6178 0.0
H694 H 0.66898 0.87578 0.66138 0.0
H695 H 0.70943 0.75181 0.73213 0.0
H696 H 0.63013 0.59016 0.66306 0.0
H697 H 0.645 0.61977 0.70363 0.0
H698 H 0.70861 0.88764 0.5174 0.0
H699 H 0.67443 0.67983 0.72954 0.0
H700 H 0.74593 0.99695 0.64935 0.0
N701 N 0.68991 0.87533 0.57738 0.0
C702 C 0.70939 0.91309 0.58482 0.0
C703 C 0.70921 0.89514 0.53631 0.0
C704 C 0.73038 0.94345 0.56809 0.0
C705 C 0.68903 0.86597 0.55353 0.0
C706 C 0.73008 0.93403 0.54362 0.0
N707 N 0.69019 0.89128 0.62533 0.0
C708 C 0.68762 0.89869 0.64919 0.0
C709 C 0.73062 0.96014 0.61761 0.0
C710 C 0.70963 0.92126 0.60941 0.0
C711 C 0.73008 0.96753 0.64234 0.0
C712 C 0.70808 0.93671 0.65813 0.0
H713 H 0.74585 0.95654 0.53023 0.0
H714 H 0.76779 1.00573 0.56373 0.0
H715 H 0.76799 0.02033 0.60702 0.0
O716 O 0.61131 0.84059 0.62015 0.0
O717 O 0.72256 0.85589 0.60355 0.0
O718 O 0.73876 0.84165 0.64006 0.0
O719 O 0.61373 0.82844 0.58239 0.0
O720 O 0.64477 0.80795 0.6476 0.0
O721 O 0.70443 0.81696 0.65869 0.0
O722 O 0.76657 0.78948 0.61458 0.0
O723 O 0.64739 0.73854 0.63466 0.0
O724 O 0.62351 0.76306 0.60516 0.0
O725 O 0.7638 0.77794 0.65308 0.0
O726 O 0.71645 0.78639 0.59431 0.0
O727 O 0.66186 0.78785 0.58006 0.0
C728 C 0.74711 0.86542 0.62164 0.0
C729 C 0.55213 0.8143 0.59852 0.0
C730 C 0.49018 0.81281 0.60534 0.0
C731 C 0.47034 0.7728 0.5999 0.0
C732 C 0.53159 0.77458 0.59274 0.0
C733 C 0.49092 0.75398 0.59354 0.0
C734 C 0.5313 0.83341 0.60457 0.0
C735 C 0.66979 0.81094 0.66448 0.0
C736 C 0.59517 0.83609 0.59899 0.0
C737 C 0.75138 0.98207 0.5763 0.0
C738 C 0.75153 0.99038 0.60097 0.0
C739 C 0.6189 0.73654 0.62113 0.0
C740 C 0.80546 0.76438 0.62938 0.0
C741 C 0.86742 0.7661 0.62309 0.0
C742 C 0.84678 0.72541 0.62009 0.0
C743 C 0.78545 0.72388 0.62642 0.0
C744 C 0.84634 0.78534 0.6278 0.0
C745 C 0.80612 0.70454 0.62182 0.0
C746 C 0.69203 0.78248 0.57693 0.0
C747 C 0.78439 0.78562 0.63334 0.0
H748 H 0.4388 0.75618 0.6001 0.0
H749 H 0.54698 0.75944 0.5878 0.0
H750 H 0.47526 0.72326 0.58919 0.0
H751 H 0.54711 0.86415 0.609 0.0
H752 H 0.86209 0.70964 0.61673 0.0
H753 H 0.75398 0.70732 0.62754 0.0
H754 H 0.86163 0.81674 0.62981 0.0
H755 H 0.79058 0.67324 0.61956 0.0
Eu756 Eu 0.08351 0.31131 0.87021 0.0
C757 C 0.2238 0.32228 0.92845 0.0
N758 N 0.20018 0.33664 0.93467 0.0
C759 C 0.19619 0.31404 0.97542 0.0
C760 C 0.23424 0.30276 0.94566 0.0
C761 C 0.18664 0.33324 0.95777 0.0
C762 C 0.22002 0.29868 0.96934 0.0
C763 C 0.26143 0.31175 0.89773 0.0
C764 C 0.23716 0.32669 0.90467 0.0
C765 C 0.2719 0.29236 0.91486 0.0
C766 C 0.25833 0.28785 0.93873 0.0
Eu767 Eu 0.18746 0.37014 0.90401 0.0
N768 N 0.22604 0.34504 0.8883 0.0
C769 C 0.27449 0.31675 0.87374 0.0
C770 C 0.24076 0.35211 0.86536 0.0
C771 C 0.26443 0.33737 0.85757 0.0
H772 H 0.16901 0.34585 0.96276 0.0
H773 H 0.27548 0.34255 0.8392 0.0
H774 H 0.09595 0.3029 0.81085 0.0
H775 H 1.00555 0.37361 0.91645 0.0
H776 H 0.23546 0.37006 0.85314 0.0
H777 H 0.29297 0.3055 0.86767 0.0
H778 H 0.04259 0.33881 0.91344 0.0
H779 H 0.18538 0.31134 0.99374 0.0
H780 H 0.29049 0.28071 0.90981 0.0
H781 H 0.26661 0.27274 0.95171 0.0
H782 H 0.08189 0.3241 0.77196 0.0
H783 H 0.22739 0.28386 0.98308 0.0
H784 H 0.98928 0.39753 0.87926 0.0
N785 N 0.06977 0.32834 0.8321 0.0
C786 C 0.0497 0.34786 0.83232 0.0
C787 C 0.07273 0.33109 0.78876 0.0
C788 C 0.04065 0.36017 0.81051 0.0
C789 C 0.08091 0.31935 0.81082 0.0
C790 C 0.05265 0.35174 0.78858 0.0
N791 N 0.04801 0.34401 0.87522 0.0
C792 C 0.03581 0.34934 0.89722 0.0
C793 C 0.017 0.37546 0.85525 0.0
C794 C 0.03806 0.35549 0.85444 0.0
C795 C 1.00552 0.38228 0.87787 0.0
C796 C 1.01473 0.3689 0.89892 0.0
H797 H 0.04631 0.36077 0.77145 0.0
H798 H 1.01275 0.3901 0.79469 0.0
H799 H 0.992 0.40342 0.83382 0.0
O800 O 0.03609 0.25954 0.8875 0.0
O801 O 0.11089 0.37808 0.87282 0.0
O802 O 0.14774 0.39516 0.90763 0.0
O803 O 0.03923 0.26335 0.84857 0.0
O804 O 0.08663 0.30156 0.91064 0.0
O805 O 0.1353 0.35732 0.92859 0.0
O806 O 0.24101 0.42419 0.89427 0.0
O807 O 0.1555 0.30338 0.90296 0.0
O808 O 0.12591 0.28906 0.86588 0.0
O809 O 0.22506 0.41106 0.93177 0.0
O810 O 0.18374 0.38459 0.8637 0.0
O811 O 0.13715 0.32537 0.84872 0.0
C812 C 0.13123 0.40351 0.88988 0.0
C813 C 0.01626 0.20118 0.86602 0.0
C814 C 0.97566 0.13075 0.87216 0.0
C815 C 1.00767 0.12647 0.86574 0.0
C816 C 0.04741 0.1958 0.85932 0.0
C817 C 0.04316 0.15874 0.85929 0.0
C818 C 0.98013 0.16844 0.87221 0.0
C819 C 0.10018 0.32576 0.92905 0.0
C820 C 0.02212 0.24102 0.86717 0.0
C821 C 0.01991 0.38035 0.81126 0.0
C822 C 1.00809 0.38793 0.83356 0.0
C823 C 0.14347 0.28144 0.88348 0.0
C824 C 0.29289 0.44373 0.92247 0.0
C825 C 0.36382 0.48609 0.91802 0.0
C826 C 0.36922 0.46024 0.93281 0.0
C827 C 0.29965 0.41916 0.9376 0.0
C828 C 0.32529 0.47762 0.9129 0.0
C829 C 0.33742 0.42723 0.94254 0.0
C830 C 0.16551 0.36111 0.8453 0.0
C831 C 0.25223 0.43374 0.91663 0.0
H832 H 1.00503 0.09793 0.86527 0.0
H833 H 0.07507 0.22028 0.85404 0.0
H834 H 0.06747 0.15501 0.85416 0.0
H835 H 0.95589 0.17232 0.87736 0.0
H836 H 0.39824 0.46605 0.93738 0.0
H837 H 0.27578 0.39375 0.94586 0.0
H838 H 0.32054 0.49705 0.9014 0.0
H839 H 0.3421 0.40791 0.95416 0.0
Eu840 Eu 0.20188 0.83986 0.60549 0.0
C841 C 0.29916 0.9739 0.6868 0.0
N842 N 0.26066 0.95467 0.68124 0.0
C843 C 0.24406 0.949 0.72333 0.0
C844 C 0.31169 0.9806 0.71113 0.0
C845 C 0.23306 0.94292 0.69893 0.0
C846 C 0.28352 0.96741 0.72949 0.0
C847 C 0.36631 1.00952 0.67317 0.0
C848 C 0.3261 0.9882 0.66809 0.0
C849 C 0.37901 0.01535 0.69738 0.0
C850 C 0.35176 1.00091 0.71631 0.0
Eu851 Eu 0.24476 0.94408 0.63981 0.0
N852 N 0.31293 0.98191 0.64488 0.0
C853 C 0.3925 0.0248 0.65376 0.0
C854 C 0.33816 0.99799 0.6259 0.0
C855 C 0.37832 0.0193 0.63004 0.0
H856 H 0.20254 0.92886 0.69415 0.0
H857 H 0.39832 0.03146 0.61495 0.0
H858 H 0.19787 0.8477 0.5452 0.0
H859 H 0.08348 0.76486 0.67148 0.0
H860 H 0.32732 0.99373 0.60755 0.0
H861 H 0.42363 0.04136 0.65691 0.0
H862 H 0.15122 0.79869 0.65762 0.0
H863 H 0.22213 0.93964 0.73733 0.0
H864 H 0.4098 0.03147 0.70165 0.0
H865 H 0.36197 1.00615 0.7349 0.0
H866 H 0.14792 0.82958 0.5134 0.0
H867 H 0.29192 0.97201 0.74842 0.0
H868 H 0.03017 0.74747 0.64211 0.0
N869 N 0.15669 0.82426 0.5739 0.0
C870 C 0.11847 0.80386 0.58031 0.0
C871 C 0.13927 0.8224 0.53215 0.0
C872 C 0.08898 0.79241 0.56264 0.0
C873 C 0.1675 0.833 0.55024 0.0
C874 C 0.09984 0.80218 0.53838 0.0
N875 N 0.13771 0.80633 0.62146 0.0
C876 C 0.12888 0.79426 0.64494 0.0
C877 C 0.06918 0.77334 0.61162 0.0
C878 C 0.10873 0.79468 0.60466 0.0
C879 C 0.06017 0.76365 0.63606 0.0
C880 C 0.09016 0.77371 0.65272 0.0
H881 H 0.07803 0.79392 0.5243 0.0
H882 H 0.02668 0.76258 0.55634 0.0
H883 H 1.00939 0.74551 0.59914 0.0
O884 O 0.18434 0.77939 0.61351 0.0
O885 O 0.17374 0.87772 0.60078 0.0
O886 O 0.18014 0.90072 0.63906 0.0
O887 O 0.21555 0.80516 0.58052 0.0
O888 O 0.22061 0.84445 0.64552 0.0
O889 O 0.20234 0.88766 0.65726 0.0
O890 O 0.2305 0.98123 0.61784 0.0
O891 O 0.28731 0.92042 0.63741 0.0
O892 O 0.26728 0.87468 0.60616 0.0
O893 O 0.23969 0.99138 0.65639 0.0
O894 O 0.25574 0.94764 0.59951 0.0
O895 O 0.23805 0.88964 0.57874 0.0
C896 C 0.16022 0.88905 0.61882 0.0
C897 C 0.22366 0.7551 0.59911 0.0
C898 C 0.22511 0.69524 0.60861 0.0
C899 C 0.26584 0.71783 0.61127 0.0
C900 C 0.2642 0.77684 0.60207 0.0
C901 C 0.28511 0.75821 0.608 0.0
C902 C 0.20426 0.71433 0.60235 0.0
C903 C 0.21395 0.86314 0.66285 0.0
C904 C 0.20072 0.77455 0.59451 0.0
C905 C 0.0497 0.77155 0.56966 0.0
C906 C 0.03985 0.76194 0.59405 0.0
C907 C 0.29324 0.89866 0.62173 0.0
C908 C 0.25306 0.04542 0.63179 0.0
C909 C 0.25133 0.10593 0.62675 0.0
C910 C 0.29209 0.12603 0.62382 0.0
C911 C 0.29358 0.06607 0.62877 0.0
C912 C 0.23202 0.06539 0.63085 0.0
C913 C 0.31294 0.10619 0.62483 0.0
C914 C 0.25348 0.92812 0.57967 0.0
C915 C 0.23237 1.00312 0.63602 0.0
H916 H 0.28298 0.70426 0.61564 0.0
H917 H 0.27963 0.80822 0.60006 0.0
H918 H 0.31642 0.77518 0.6102 0.0
H919 H 0.17283 0.69769 0.60061 0.0
H920 H 0.308 0.15724 0.62101 0.0
H921 H 0.31018 0.0512 0.62953 0.0
H922 H 0.20063 0.04924 0.63297 0.0
H923 H 0.34427 0.12203 0.62261 0.0
Eu924 Eu 0.71387 0.7778 0.87281 0.0
C925 C 0.70274 0.90672 0.92469 0.0
N926 N 0.68625 0.86897 0.93207 0.0
C927 C 0.71033 0.88931 0.97233 0.0
C928 C 0.72498 0.93738 0.94093 0.0
C929 C 0.6888 0.85983 0.95557 0.0
C930 C 0.72871 0.92822 0.96495 0.0
C931 C 0.7165 0.95363 0.8924 0.0
C932 C 0.69849 0.91469 0.90056 0.0
C933 C 0.73903 0.98412 0.90851 0.0
C934 C 0.74316 0.97604 0.93269 0.0
Eu935 Eu 0.6499 0.82177 0.90273 0.0
N936 N 0.6771 0.88456 0.8851 0.0
C937 C 0.71119 0.96086 0.86828 0.0
C938 C 0.66975 0.89173 0.86205 0.0
C939 C 0.68729 0.92981 0.85316 0.0
H940 H 0.67413 0.82985 0.96145 0.0
H941 H 0.68185 0.93522 0.83473 0.0
H942 H 0.73142 0.8079 0.81472 0.0
H943 H 0.66114 0.63068 0.90796 0.0
H944 H 0.64952 0.86851 0.85057 0.0
H945 H 0.72464 0.99034 0.86132 0.0
H946 H 0.69478 0.70273 0.90983 0.0
H947 H 0.71266 0.88202 0.99093 0.0
H948 H 0.75326 0.01413 0.90246 0.0
H949 H 0.76059 0.99993 0.94487 0.0
H950 H 0.71011 0.77968 0.77389 0.0
H951 H 0.74555 0.95097 0.97796 0.0
H952 H 0.63266 0.59693 0.86923 0.0
N953 N 0.69933 0.75348 0.83284 0.0
C954 C 0.67825 0.71418 0.83054 0.0
C955 C 0.70073 0.76091 0.78966 0.0
C956 C 0.66621 0.69669 0.80755 0.0
C957 C 0.71241 0.77683 0.81282 0.0
C958 C 0.67688 0.72071 0.78704 0.0
N959 N 0.68444 0.7091 0.87277 0.0
C960 C 0.68258 0.688 0.89288 0.0
C961 C 0.6516 0.65039 0.84913 0.0
C962 C 0.67095 0.6913 0.85106 0.0
C963 C 0.6474 0.62842 0.86997 0.0
C964 C 0.66349 0.64736 0.89187 0.0
H965 H 0.66791 0.70841 0.7691 0.0
H966 H 0.6353 0.64196 0.7882 0.0
H967 H 0.62254 0.60141 0.82462 0.0
O968 O 0.76972 0.80067 0.89155 0.0
O969 O 0.65342 0.7346 0.88802 0.0
O970 O 0.61647 0.76427 0.88319 0.0
O971 O 0.76273 0.77477 0.85638 0.0
O972 O 0.71506 0.78363 0.91366 0.0
O973 O 0.65867 0.78075 0.92869 0.0
O974 O 0.61144 0.84644 0.9029 0.0
O975 O 0.71622 0.84994 0.90641 0.0
O976 O 0.73318 0.84156 0.86864 0.0
O977 O 0.59955 0.79945 0.92731 0.0
O978 O 0.63812 0.80533 0.8624 0.0
O979 O 0.6981 0.816 0.85045 0.0
C980 C 0.61956 0.73315 0.88637 0.0
C981 C 0.80925 0.77328 0.88289 0.0
C982 C 0.87286 0.77972 0.89175 0.0
C983 C 0.85364 0.74113 0.90036 0.0
C984 C 0.79092 0.7349 0.89147 0.0
C985 C 0.81302 0.71896 0.90014 0.0
C986 C 0.85027 0.79558 0.88293 0.0
C987 C 0.68846 0.77421 0.93068 0.0
C988 C 0.78605 0.79088 0.87468 0.0
C989 C 0.64513 0.65591 0.80569 0.0
C990 C 0.6379 0.63281 0.82642 0.0
C991 C 0.73988 0.86356 0.88774 0.0
C992 C 0.54544 0.80307 0.91064 0.0
C993 C 0.48825 0.80882 0.89978 0.0
C994 C 0.46913 0.7696 0.89241 0.0
C995 C 0.52571 0.76434 0.90265 0.0
C996 C 0.52647 0.82526 0.90924 0.0
C997 C 0.48772 0.74765 0.89388 0.0
C998 C 0.66265 0.80826 0.84524 0.0
C999 C 0.58683 0.82154 0.91825 0.0
H1000 H 0.87004 0.72783 0.90693 0.0
H1001 H 0.7596 0.71731 0.89152 0.0
H1002 H 0.7986 0.68925 0.90671 0.0
H1003 H 0.8645 0.8254 0.87648 0.0
H1004 H 0.43957 0.75572 0.88556 0.0
H1005 H 0.53988 0.74716 0.90277 0.0
H1006 H 0.54191 0.85552 0.91477 0.0
H1007 H 0.47275 0.71763 0.88791 0.0
H1008 H 0.16353 0.26573 0.10382 0.0
H1009 H 0.09296 0.18759 0.16083 0.0
H1010 H 0.20165 0.2332 0.10197 0.0
H1011 H 0.1307 0.15406 0.15849 0.0
H1012 H 0.24081 0.13827 0.16479 0.0
H1013 H 0.19601 0.16399 0.16743 0.0
H1014 H 0.19695 0.17322 0.08938 0.0
H1015 H 0.24182 0.14828 0.08688 0.0
C1016 C 0.15609 0.24153 0.11598 0.0
C1017 C 0.1252 0.22948 0.13255 0.0
C1018 C 0.17776 0.22254 0.11474 0.0
C1019 C 0.16929 0.19082 0.13002 0.0
C1020 C 0.13826 0.17853 0.14656 0.0
C1021 C 0.11635 0.1975 0.14772 0.0
C1022 C 0.23072 0.14505 0.14822 0.0
C1023 C 0.24508 0.14154 0.12565 0.0
C1024 C 0.20511 0.15987 0.14971 0.0
C1025 C 0.19322 0.17126 0.12863 0.0
C1026 C 0.20606 0.16562 0.10604 0.0
C1027 C 0.23161 0.15101 0.10458 0.0
H1028 H 0.11309 0.86397 0.41006 0.0
H1029 H 0.10687 0.92783 0.34844 0.0
H1030 H 0.04238 0.8263 0.41166 0.0
H1031 H 0.03556 0.89036 0.35027 0.0
H1032 H 0.91118 0.77955 0.34449 0.0
H1033 H 0.98163 0.82441 0.3428 0.0
H1034 H 0.98545 0.83017 0.42101 0.0
H1035 H 0.91548 0.7851 0.42257 0.0
C1036 C 0.09658 0.87005 0.39686 0.0
C1037 C 0.11578 0.89882 0.37903 0.0
C1038 C 0.05588 0.8486 0.39789 0.0
C1039 C 0.033 0.85507 0.38105 0.0
C1040 C 0.05216 0.88426 0.36339 0.0
C1041 C 0.09305 0.90603 0.36248 0.0
C1042 C 0.92705 0.79109 0.36126 0.0
C1043 C 0.90786 0.77864 0.38366 0.0
C1044 C 0.96745 0.81678 0.36032 0.0
C1045 C 0.98948 0.83072 0.38178 0.0
C1046 C 0.96973 0.81955 0.40411 0.0
C1047 C 0.92952 0.79386 0.40503 0.0
H1048 H 0.86699 0.10734 0.1607 0.0
H1049 H 0.88896 0.11321 0.08379 0.0
H1050 H 0.8552 0.04064 0.16159 0.0
H1051 H 0.8772 0.04639 0.08465 0.0
H1052 H 0.90762 0.95019 0.10766 0.0
H1053 H 0.91178 0.01343 0.10286 0.0
H1054 H 0.80755 0.97318 0.14581 0.0
H1055 H 0.80346 0.9097 0.15065 0.0
C1056 C 0.86952 0.09441 0.14402 0.0
C1057 C 0.87922 0.11553 0.12221 0.0
C1058 C 0.86227 0.05605 0.14446 0.0
C1059 C 0.86521 0.03821 0.12318 0.0
C1060 C 0.87496 0.05942 0.10136 0.0
C1061 C 0.88168 0.09761 0.10087 0.0
C1062 C 0.88532 0.95471 0.11581 0.0
C1063 C 0.85531 0.92508 0.12962 0.0
C1064 C 0.88758 0.99084 0.11296 0.0
C1065 C 0.86016 0.9984 0.1241 0.0
C1066 C 0.82933 0.96832 0.13722 0.0
C1067 C 0.82677 0.93191 0.1398 0.0
H1068 H 0.24374 0.13493 0.42454 0.0
H1069 H 0.25858 0.15655 0.34752 0.0
H1070 H 0.19033 0.14936 0.42439 0.0
H1071 H 0.20545 0.17099 0.34734 0.0
H1072 H 0.13016 0.22608 0.35831 0.0
H1073 H 0.18867 0.22058 0.36368 0.0
H1074 H 0.12232 0.11644 0.40636 0.0
H1075 H 0.06407 0.12203 0.40105 0.0
C1076 C 0.23551 0.14272 0.40761 0.0
C1077 C 0.25498 0.1443 0.38602 0.0
C1078 C 0.20503 0.15098 0.40752 0.0
C1079 C 0.1938 0.16142 0.38587 0.0
C1080 C 0.21372 0.16347 0.36435 0.0
C1081 C 0.24377 0.15469 0.36439 0.0
C1082 C 0.12837 0.20255 0.36927 0.0
C1083 C 0.09257 0.17435 0.37915 0.0
C1084 C 0.16171 0.1992 0.37217 0.0
C1085 C 0.15995 0.16788 0.38526 0.0
C1086 C 0.12463 0.14097 0.39628 0.0
C1087 C 0.09126 0.14405 0.39313 0.0
H1088 H 0.1043 0.8563 0.08492 0.0
H1089 H 0.10094 0.91465 0.15007 0.0
H1090 H 0.03332 0.82006 0.08384 0.0
H1091 H 0.02979 0.87854 0.14896 0.0
H1092 H 0.90941 0.76665 0.1568 0.0
H1093 H 0.97915 0.812 0.15593 0.0
H1094 H 0.97406 0.82314 0.0783 0.0
H1095 H 0.90386 0.77705 0.07921 0.0
C1096 C 0.08834 0.86138 0.09901 0.0
C1097 C 0.10825 0.88806 0.11771 0.0
C1098 C 0.04759 0.84082 0.09829 0.0
C1099 C 0.02569 0.84598 0.11647 0.0
C1100 C 0.04568 0.87341 0.13485 0.0
C1101 C 0.08646 0.89432 0.13541 0.0
C1102 C 0.923 0.77928 0.13957 0.0
C1103 C 0.90121 0.76798 0.11801 0.0
C1104 C 0.96306 0.80543 0.13908 0.0
C1105 C 0.98239 0.82118 0.11703 0.0
C1106 C 0.96023 0.81118 0.09556 0.0
C1107 C 0.92003 0.78493 0.09607 0.0
H1108 H 0.85783 0.92397 0.37029 0.0
H1109 H 0.75882 0.92495 0.33832 0.0
H1110 H 0.88447 0.99236 0.38252 0.0
H1111 H 0.7859 0.99292 0.34977 0.0
H1112 H 0.87503 0.12299 0.3395 0.0
H1113 H 0.85003 0.05354 0.33314 0.0
H1114 H 0.86589 0.03927 0.40907 0.0
H1115 H 0.89041 0.10914 0.41556 0.0
C1116 C 0.84138 0.9384 0.36631 0.0
C1117 C 0.80652 0.91909 0.35292 0.0
C1118 C 0.85673 0.97759 0.37319 0.0
C1119 C 0.83765 0.99816 0.36661 0.0
C1120 C 0.80167 0.97809 0.35464 0.0
C1121 C 0.78619 0.93909 0.34808 0.0
C1122 C 0.87371 0.10521 0.35479 0.0
C1123 C 0.88449 0.12145 0.37805 0.0
C1124 C 0.85914 0.06538 0.35119 0.0
C1125 C 0.85577 0.04091 0.37064 0.0
C1126 C 0.86826 0.05743 0.39374 0.0
C1127 C 0.88216 0.09731 0.39745 0.0
H1128 H 0.19087 0.09755 0.65555 0.0
H1129 H 0.26214 0.16325 0.59478 0.0
H1130 H 0.15695 0.13487 0.6539 0.0
H1131 H 0.22931 0.20108 0.59357 0.0
H1132 H 0.14632 0.24476 0.5829 0.0
H1133 H 0.16967 0.19844 0.5839 0.0
H1134 H 0.16789 0.19955 0.66219 0.0
H1135 H 0.14365 0.2454 0.66106 0.0
C1136 C 0.19916 0.11978 0.64176 0.0
C1137 C 0.2294 0.12748 0.62537 0.0
C1138 C 0.17998 0.14147 0.64097 0.0
C1139 C 0.19038 0.17119 0.62365 0.0
C1140 C 0.22017 0.1783 0.60704 0.0
C1141 C 0.23937 0.15682 0.60789 0.0
C1142 C 0.15026 0.23456 0.60032 0.0
C1143 C 0.14329 0.24885 0.62189 0.0
C1144 C 0.16397 0.20822 0.60092 0.0
C1145 C 0.1713 0.19557 0.62313 0.0
C1146 C 0.16236 0.20836 0.64474 0.0
C1147 C 0.14839 0.23464 0.64412 0.0
H1148 H 0.10972 0.85703 0.85083 0.0
H1149 H 0.12439 0.90324 0.92319 0.0
H1150 H 0.04037 0.83594 0.8523 0.0
H1151 H 0.05462 0.882 0.92482 0.0
H1152 H 0.92139 0.82618 0.8556 0.0
H1153 H 0.99259 0.85907 0.85437 0.0
H1154 H 0.99373 0.81721 0.92647 0.0
H1155 H 0.92274 0.7849 0.92785 0.0
C1156 C 0.09811 0.86332 0.86689 0.0
C1157 C 0.1223 0.88184 0.88686 0.0
C1158 C 0.05843 0.8514 0.86771 0.0
C1159 C 0.04189 0.85726 0.88868 0.0
C1160 C 0.06643 0.87689 0.90845 0.0
C1161 C 0.10638 0.88941 0.90745 0.0
C1162 C 0.93688 0.82456 0.87134 0.0
C1163 C 0.91632 0.8027 0.89175 0.0
C1164 C 0.97766 0.84314 0.87056 0.0
C1165 C 0.99887 0.84067 0.89029 0.0
C1166 C 0.97837 0.82001 0.91105 0.0
C1167 C 0.93763 0.80116 0.91173 0.0
H1168 H 0.7889 0.91354 0.58441 0.0
H1169 H 0.77912 0.90865 0.6624 0.0
H1170 H 0.84165 0.98138 0.58693 0.0
H1171 H 0.83156 0.97647 0.66491 0.0
H1172 H 0.90181 0.10958 0.65859 0.0
H1173 H 0.84462 0.04475 0.65251 0.0
H1174 H 0.91129 0.01542 0.60383 0.0
H1175 H 0.96826 0.07986 0.61008 0.0
C1176 C 0.79815 0.92697 0.60207 0.0
C1177 C 0.78016 0.90579 0.62321 0.0
C1178 C 0.82826 0.96574 0.60351 0.0
C1179 C 0.8406 0.98428 0.62611 0.0
C1180 C 0.8224 0.96309 0.64723 0.0
C1181 C 0.79276 0.92414 0.64582 0.0
C1182 C 0.90387 0.08949 0.64623 0.0
C1183 C 0.93939 0.09963 0.63483 0.0
C1184 C 0.87134 0.05234 0.64292 0.0
C1185 C 0.87361 0.02494 0.62784 0.0
C1186 C 0.90859 0.03593 0.61546 0.0
C1187 C 0.9412 0.07274 0.61908 0.0
H1188 H 0.16489 0.24444 0.91706 0.0
H1189 H 0.15011 0.25219 0.84008 0.0
H1190 H 0.19277 0.20247 0.90925 0.0
H1191 H 0.17592 0.20865 0.8325 0.0
H1192 H 0.18675 0.09496 0.83655 0.0
H1193 H 0.15604 0.13431 0.84508 0.0
H1194 H 0.25868 0.21687 0.88412 0.0
H1195 H 0.28978 0.1781 0.87508 0.0
C1196 C 0.16745 0.23711 0.89852 0.0
C1197 C 0.15608 0.25239 0.8792 0.0
C1198 C 0.1832 0.21297 0.89408 0.0
C1199 C 0.18669 0.20258 0.87026 0.0
C1200 C 0.17352 0.21621 0.85103 0.0
C1201 C 0.15864 0.24106 0.85542 0.0
C1202 C 0.2027 0.12155 0.84692 0.0
C1203 C 0.24068 0.13362 0.85506 0.0
C1204 C 0.18519 0.14402 0.85175 0.0
C1205 C 0.20496 0.17846 0.86536 0.0
C1206 C 0.24274 0.19028 0.87376 0.0
C1207 C 0.26059 0.1683 0.86844 0.0
H1208 H 0.11332 0.87889 0.57982 0.0
H1209 H 0.11254 0.87312 0.65796 0.0
H1210 H 0.04288 0.85309 0.57991 0.0
H1211 H 0.04238 0.84676 0.6581 0.0
H1212 H 0.91919 0.82501 0.65248 0.0
H1213 H 0.99023 0.85983 0.65046 0.0
H1214 H 0.98469 0.79181 0.58792 0.0
H1215 H 0.91377 0.75754 0.58974 0.0
C1216 C 0.09813 0.87246 0.59701 0.0
C1217 C 0.11845 0.87782 0.61885 0.0
C1218 C 0.05775 0.85746 0.59708 0.0
C1219 C 0.03678 0.84756 0.61901 0.0
C1220 C 0.0575 0.85447 0.64088 0.0
C1221 C 0.09783 0.86958 0.6408 0.0
C1222 C 0.93317 0.81777 0.63816 0.0
C1223 C 0.91077 0.78828 0.62137 0.0
C1224 C 0.97393 0.83749 0.63712 0.0
C1225 C 0.99336 0.82843 0.61917 0.0
C1226 C 0.97087 0.79966 0.60199 0.0
C1227 C 0.93014 0.77971 0.60316 0.0
H1228 H 0.90298 0.10875 0.85417 0.0
H1229 H 0.96334 0.0723 0.90338 0.0
H1230 H 0.84312 0.04591 0.85973 0.0
H1231 H 0.90394 1.00969 0.90883 0.0
H1232 H 0.78245 0.90885 0.92594 0.0
H1233 H 0.83614 0.97638 0.92472 0.0
H1234 H 0.82337 0.97804 0.84707 0.0
H1235 H 0.76968 0.91085 0.84838 0.0
C1236 C 0.90324 0.08763 0.86653 0.0
C1237 C 0.9379 0.09536 0.87822 0.0
C1238 C 0.8691 0.05153 0.86955 0.0
C1239 C 0.86881 0.02262 0.88458 0.0
C1240 C 0.90301 0.03128 0.89724 0.0
C1241 C 0.93713 0.06709 0.89401 0.0
C1242 C 0.79106 0.92381 0.90866 0.0
C1243 C 0.77207 0.90455 0.88725 0.0
C1244 C 0.82184 0.9624 0.90794 0.0
C1245 C 0.83409 0.98267 0.88579 0.0
C1246 C 0.81445 0.96351 0.86446 0.0
C1247 C 0.78402 0.92484 0.86516 0.0
H1248 H 0.42208 0.15862 0.31458 0.0
H1249 H 0.33327 0.19108 0.31501 0.0
H1250 H 0.42462 0.16284 0.27009 0.0
H1251 H 0.33757 0.19816 0.27126 0.0
H1252 H 0.30245 0.1396 0.19846 0.0
H1253 H 0.31294 0.1503 0.24145 0.0
H1254 H 0.4366 0.1973 0.23111 0.0
H1255 H 0.42543 0.18452 0.18729 0.0
C1256 C 0.40453 0.16849 0.30521 0.0
C1257 C 0.37781 0.17498 0.31818 0.0
C1258 C 0.40588 0.17087 0.27973 0.0
C1259 C 0.38074 0.18013 0.2669 0.0
C1260 C 0.35659 0.18986 0.28031 0.0
C1261 C 0.35457 0.18652 0.3055 0.0
C1262 C 0.332 0.1523 0.20521 0.0
C1263 C 0.36304 0.1608 0.1894 0.0
C1264 C 0.33816 0.159 0.23 0.0
C1265 C 0.37575 0.17515 0.23998 0.0
C1266 C 0.40722 0.18469 0.22412 0.0
C1267 C 0.40093 0.17776 0.19901 0.0
H1268 H 0.77652 0.59895 0.31908 0.0
H1269 H 0.85452 0.72192 0.3083 0.0
H1270 H 0.77728 0.58836 0.27514 0.0
H1271 H 0.85466 0.7119 0.26522 0.0
H1272 H 0.8722 0.69151 0.1907 0.0
H1273 H 0.87624 0.68746 0.23436 0.0
H1274 H 0.75377 0.60123 0.23695 0.0
H1275 H 0.75082 0.60332 0.19249 0.0
C1276 C 0.79433 0.62352 0.30742 0.0
C1277 C 0.81552 0.66123 0.31717 0.0
C1278 C 0.79442 0.61758 0.28224 0.0
C1279 C 0.81612 0.64921 0.26644 0.0
C1280 C 0.8381 0.68659 0.27657 0.0
C1281 C 0.83784 0.69245 0.30144 0.0
C1282 C 0.84657 0.67037 0.20046 0.0
C1283 C 0.81144 0.64708 0.18816 0.0
C1284 C 0.84863 0.66853 0.22563 0.0
C1285 C 0.81516 0.64455 0.23944 0.0
C1286 C 0.78027 0.61973 0.227 0.0
C1287 C 0.7785 0.62088 0.20154 0.0
H1288 H 0.86031 0.26996 0.18952 0.0
H1289 H 0.82822 0.14898 0.19236 0.0
H1290 H 0.85649 0.27103 0.23398 0.0
H1291 H 0.82148 0.14888 0.23604 0.0
H1292 H 0.88165 0.17635 0.30832 0.0
H1293 H 0.86968 0.17359 0.26544 0.0
H1294 H 0.82391 0.25161 0.27378 0.0
H1295 H 0.83789 0.25567 0.31763 0.0
C1296 C 0.85052 0.24315 0.19956 0.0
C1297 C 0.84412 0.20925 0.18749 0.0
C1298 C 0.84839 0.24371 0.22507 0.0
C1299 C 0.83951 0.21024 0.23885 0.0
C1300 C 0.82962 0.1756 0.2263 0.0
C1301 C 0.83274 0.17536 0.20111 0.0
C1302 C 0.86883 0.19289 0.30121 0.0
C1303 C 0.86103 0.21649 0.31651 0.0
C1304 C 0.86143 0.19091 0.27642 0.0
C1305 C 0.84524 0.21195 0.26585 0.0
C1306 C 0.83647 0.23505 0.28119 0.0
C1307 C 0.84408 0.23711 0.30634 0.0
H1308 H 0.19236 0.4268 0.69036 0.0
H1309 H 0.1542 0.30463 0.69786 0.0
H1310 H 0.2032 0.43505 0.73443 0.0
H1311 H 0.1631 0.31207 0.7412 0.0
H1312 H 0.19711 0.32884 0.81688 0.0
H1313 H 0.20617 0.33504 0.77321 0.0
H1314 H 0.16793 0.41985 0.7722 0.0
H1315 H 0.16171 0.41538 0.81651 0.0
C1316 C 0.187 0.40193 0.70134 0.0
C1317 C 0.17246 0.36509 0.69063 0.0
C1318 C 0.19267 0.40648 0.72663 0.0
C1319 C 0.1842 0.3743 0.74165 0.0
C1320 C 0.17092 0.33788 0.73052 0.0
C1321 C 0.16546 0.33345 0.7055 0.0
C1322 C 0.19225 0.35001 0.80742 0.0
C1323 C 0.17954 0.37223 0.82011 0.0
C1324 C 0.19669 0.35309 0.78224 0.0
C1325 C 0.18696 0.37733 0.76882 0.0
C1326 C 0.17613 0.40116 0.78176 0.0
C1327 C 0.17265 0.39875 0.80718 0.0
H1328 H 0.19037 0.90122 0.8093 0.0
H1329 H 0.25145 0.83735 0.81854 0.0
H1330 H 0.18576 0.88896 0.76619 0.0
H1331 H 0.24716 0.82521 0.77458 0.0
H1332 H 0.27167 0.8638 0.6907 0.0
H1333 H 0.27302 0.86195 0.73526 0.0
H1334 H 0.15387 0.83747 0.73729 0.0
H1335 H 0.15335 0.84098 0.69331 0.0
C1336 C 0.20288 0.88448 0.80209 0.0
C1337 C 0.22136 0.87035 0.81742 0.0
C1338 C 0.20005 0.87723 0.77725 0.0
C1339 C 0.21608 0.85605 0.76676 0.0
C1340 C 0.23465 0.84177 0.78204 0.0
C1341 C 0.23689 0.8485 0.8072 0.0
C1342 C 0.2455 0.85678 0.70078 0.0
C1343 C 0.21233 0.85227 0.68864 0.0
C1344 C 0.24624 0.85582 0.72627 0.0
C1345 C 0.21372 0.85014 0.73992 0.0
C1346 C 0.17971 0.84271 0.72746 0.0
C1347 C 0.17919 0.84422 0.70221 0.0
H1348 H 0.72381 0.85408 0.69806 0.0
H1349 H 0.60017 0.7765 0.68982 0.0
H1350 H 0.71631 0.85443 0.74134 0.0
H1351 H 0.59189 0.77853 0.73393 0.0
H1352 H 0.60749 0.7528 0.81579 0.0
H1353 H 0.6042 0.75577 0.77148 0.0
H1354 H 0.69565 0.87644 0.77333 0.0
H1355 H 0.70059 0.87209 0.81701 0.0
C1356 C 0.69472 0.8375 0.70555 0.0
C1357 C 0.66265 0.81482 0.69049 0.0
C1358 C 0.69027 0.8381 0.73054 0.0
C1359 C 0.65338 0.81674 0.74145 0.0
C1360 C 0.62083 0.79509 0.72628 0.0
C1361 C 0.62542 0.79424 0.701 0.0
C1362 C 0.62608 0.7801 0.8066 0.0
C1363 C 0.65414 0.81229 0.81969 0.0
C1364 C 0.62425 0.7819 0.78121 0.0
C1365 C 0.65015 0.81616 0.76855 0.0
C1366 C 0.67604 0.84914 0.78216 0.0
C1367 C 0.67854 0.84695 0.8073 0.0
H1368 H 0.3012 0.93119 0.96193 0.0
H1369 H 0.19863 0.94257 0.95937 0.0
H1370 H 0.32529 0.97577 0.99689 0.0
H1371 H 0.22282 0.98781 0.99286 0.0
H1372 H 0.25498 0.0433 0.06463 0.0
H1373 H 0.23399 0.9946 0.0337 0.0
H1374 H 0.35238 0.04465 0.0079 0.0
H1375 H 0.37437 0.09279 0.04109 0.0
C1376 C 0.2833 0.94226 0.96932 0.0
C1377 C 0.24784 0.93313 0.9581 0.0
C1378 C 0.29745 0.96849 0.98898 0.0
C1379 C 0.27629 0.98588 0.99782 0.0
C1380 C 0.23993 0.97488 0.9871 0.0
C1381 C 0.22585 0.94873 0.96779 0.0
C1382 C 0.277 0.04417 0.05264 0.0
C1383 C 0.31662 0.07215 0.05567 0.0
C1384 C 0.26468 0.01614 0.03449 0.0
C1385 C 0.29121 0.01542 0.01794 0.0
C1386 C 0.33102 0.04389 0.02046 0.0
C1387 C 0.34362 0.07198 0.03917 0.0
H1388 H 0.811 0.7736 0.44626 0.0
H1389 H 0.72856 0.65311 0.46146 0.0
H1390 H 0.78574 0.79364 0.47993 0.0
H1391 H 0.70349 0.67323 0.49607 0.0
H1392 H 0.64449 0.72816 0.5427 0.0
H1393 H 0.66631 0.70679 0.50696 0.0
H1394 H 0.78538 0.79378 0.52274 0.0
H1395 H 0.76364 0.81519 0.55744 0.0
C1396 C 0.78789 0.75126 0.45717 0.0
C1397 C 0.77206 0.71172 0.45125 0.0
C1398 C 0.77327 0.76278 0.47655 0.0
C1399 C 0.74239 0.73517 0.49087 0.0
C1400 C 0.72695 0.69538 0.48531 0.0
C1401 C 0.74178 0.68377 0.46577 0.0
C1402 C 0.67511 0.74332 0.53797 0.0
C1403 C 0.70227 0.77372 0.5527 0.0
C1404 C 0.68776 0.73065 0.51779 0.0
C1405 C 0.72775 0.74841 0.51187 0.0
C1406 C 0.7544 0.77959 0.52633 0.0
C1407 C 0.74189 0.79195 0.54633 0.0
H1408 H 0.02657 0.26357 0.93538 0.0
H1409 H 0.11497 0.36486 0.97292 0.0
H1410 H 0.98389 0.2466 0.97026 0.0
H1411 H 0.07177 0.34759 0.00817 0.0
H1412 H 1.00327 0.27624 0.0752 0.0
H1413 H 0.04451 0.29801 0.03974 0.0
H1414 H 0.94396 0.26538 0.99452 0.0
H1415 H 0.90186 0.24333 0.03051 0.0
C1416 C 0.03711 0.28241 0.95105 0.0
C1417 C 0.07471 0.31565 0.95114 0.0
C1418 C 1.01221 0.27272 0.9711 0.0
C1419 C 0.02402 0.29564 0.99217 0.0
C1420 C 0.06163 0.32895 0.99237 0.0
C1421 C 0.08652 0.33892 0.97211 0.0
C1422 C 0.9895 0.27382 0.05784 0.0
C1423 C 0.94871 0.25779 0.05602 0.0
C1424 C 1.01356 0.28669 0.03735 0.0
C1425 C 0.99791 0.28374 0.0141 0.0
C1426 C 0.95717 0.26791 0.01211 0.0
C1427 C 0.93292 0.25532 0.03279 0.0
H1428 H 0.28567 0.0203 0.43304 0.0
H1429 H 0.37186 0.11934 0.47347 0.0
H1430 H 0.26867 0.9803 0.46893 0.0
H1431 H 0.35527 0.07837 0.50977 0.0
H1432 H 0.28269 1.00668 0.57499 0.0
H1433 H 0.30591 0.04688 0.53916 0.0
H1434 H 0.28627 0.94692 0.49705 0.0
H1435 H 0.26172 0.90588 0.53324 0.0
C1436 C 0.30148 0.03372 0.44954 0.0
C1437 C 0.33033 0.07353 0.4501 0.0
C1438 C 0.29177 0.01033 0.47028 0.0
C1439 C 0.31052 0.02564 0.49249 0.0
C1440 C 0.33972 0.0654 0.49312 0.0
C1441 C 0.34945 0.08902 0.47224 0.0
C1442 C 0.28332 0.99289 0.55821 0.0
C1443 C 0.26979 0.95249 0.55724 0.0
C1444 C 0.29713 0.01637 0.53751 0.0
C1445 C 0.29815 1.00056 0.51494 0.0
C1446 C 0.28543 0.96029 0.51396 0.0
C1447 C 0.27142 0.9366 0.5348 0.0
H1448 H 0.72196 0.7166 0.07859 0.0
H1449 H 0.76559 0.65738 0.03386 0.0
H1450 H 0.70006 0.73556 0.04286 0.0
H1451 H 0.74262 0.67583 0.99783 0.0
H1452 H 0.74816 0.7602 0.93961 0.0
H1453 H 0.76096 0.73279 0.97494 0.0
H1454 H 0.65697 0.71969 0.00899 0.0
H1455 H 0.6442 0.74844 0.97309 0.0
C1456 C 0.72651 0.70698 0.06117 0.0
C1457 C 0.74634 0.68573 0.05937 0.0
C1458 C 0.71352 0.71781 0.04051 0.0
C1459 C 0.71975 0.70778 0.0172 0.0
C1460 C 0.73794 0.68495 0.01539 0.0
C1461 C 0.75103 0.6741 0.03614 0.0
C1462 C 0.72766 0.75163 0.95448 0.0
C1463 C 0.69501 0.75698 0.95326 0.0
C1464 C 0.73496 0.73527 0.97486 0.0
C1465 C 0.70998 0.72345 0.99499 0.0
C1466 C 0.67714 0.72862 0.99394 0.0
C1467 C 0.6697 0.74509 0.97331 0.0
H1468 H 0.09746 0.37972 0.54372 0.0
H1469 H 0.05534 0.25903 0.56104 0.0
H1470 H 0.05348 0.35949 0.50833 0.0
H1471 H 1.012 0.23906 0.52626 0.0
H1472 H 0.97419 0.21832 0.44706 0.0
H1473 H 0.0174 0.24123 0.48189 0.0
H1474 H 0.97905 0.32313 0.49845 0.0
H1475 H 0.93518 0.29983 0.46298 0.0
C1476 C 0.07946 0.34901 0.53972 0.0
C1477 C 0.08026 0.32102 0.55506 0.0
C1478 C 0.05381 0.33738 0.51971 0.0
C1479 C 0.02899 0.29757 0.51444 0.0
C1480 C 0.03073 0.26991 0.52956 0.0
C1481 C 0.05574 0.28142 0.54954 0.0
C1482 C 0.97444 0.24087 0.45826 0.0
C1483 C 0.95083 0.25692 0.45233 0.0
C1484 C 0.99936 0.25409 0.47828 0.0
C1485 C 1.00196 0.28417 0.49303 0.0
C1486 C 0.97804 0.30013 0.48736 0.0
C1487 C 0.95245 0.28639 0.46731 0.0
H1488 H 0.5921 0.06622 0.11145 0.0
H1489 H 0.64272 0.18574 0.08809 0.0
H1490 H 0.53033 0.06376 0.11925 0.0
H1491 H 0.58132 0.18377 0.09677 0.0
H1492 H 0.45624 0.15115 0.08058 0.0
H1493 H 0.51846 0.15401 0.07781 0.0
H1494 H 0.49272 0.08536 0.14314 0.0
H1495 H 0.42943 0.08247 0.14601 0.0
C1496 C 0.59023 0.09218 0.10821 0.0
C1497 C 0.62244 0.12603 0.09872 0.0
C1498 C 0.55478 0.09085 0.11295 0.0
C1499 C 0.55038 0.12333 0.10832 0.0
C1500 C 0.58323 0.15785 0.10009 0.0
C1501 C 0.61873 0.1592 0.09538 0.0
C1502 C 0.46359 0.13665 0.09453 0.0
C1503 C 0.43762 0.11688 0.11372 0.0
C1504 C 0.4997 0.1386 0.09299 0.0
C1505 C 0.5113 0.12063 0.11047 0.0
C1506 C 0.48491 0.09967 0.12933 0.0
C1507 C 0.44852 0.09788 0.13096 0.0
H1508 H 0.67548 0.5865 0.35322 0.0
H1509 H 0.71173 0.56875 0.42364 0.0
H1510 H 0.61685 0.52199 0.35596 0.0
H1511 H 0.6543 0.50482 0.42609 0.0
H1512 H 0.56517 0.37838 0.4174 0.0
H1513 H 0.62463 0.43968 0.40822 0.0
H1514 H 0.55543 0.48716 0.37995 0.0
H1515 H 0.49615 0.42574 0.38875 0.0
C1516 C 0.6709 0.5692 0.36933 0.0
C1517 C 0.69829 0.58341 0.3883 0.0
C1518 C 0.63739 0.53204 0.37085 0.0
C1519 C 0.63087 0.5079 0.39119 0.0
C1520 C 0.65852 0.52209 0.40995 0.0
C1521 C 0.69152 0.55915 0.40857 0.0
C1522 C 0.56268 0.40158 0.40874 0.0
C1523 C 0.52581 0.39717 0.40406 0.0
C1524 C 0.59676 0.43693 0.40369 0.0
C1525 C 0.59492 0.46871 0.39362 0.0
C1526 C 0.5581 0.46344 0.38764 0.0
C1527 C 0.52405 0.42825 0.39287 0.0
H1528 H 0.90343 0.33833 0.15357 0.0
H1529 H 0.87696 0.3176 0.07727 0.0
H1530 H 0.8896 0.39218 0.15205 0.0
H1531 H 0.86325 0.37086 0.07578 0.0
H1532 H 0.85995 0.48265 0.0755 0.0
H1533 H 0.88972 0.4416 0.0792 0.0
H1534 H 0.82859 0.39521 0.14663 0.0
H1535 H 0.79933 0.4365 0.14307 0.0
C1536 C 0.89545 0.34572 0.13641 0.0
C1537 C 0.89092 0.32337 0.11561 0.0
C1538 C 0.88723 0.37637 0.13556 0.0
C1539 C 0.87502 0.38576 0.11381 0.0
C1540 C 0.87283 0.36478 0.09279 0.0
C1541 C 0.88047 0.33397 0.0937 0.0
C1542 C 0.85345 0.46423 0.09133 0.0
C1543 C 0.82689 0.4626 0.10884 0.0
C1544 C 0.8703 0.44049 0.09339 0.0
C1545 C 0.86141 0.41484 0.11316 0.0
C1546 C 0.83639 0.41473 0.13127 0.0
C1547 C 0.81925 0.43813 0.12908 0.0
H1548 H 0.43406 0.07695 0.36875 0.0
H1549 H 0.4781 0.19145 0.39942 0.0
H1550 H 0.49983 0.08523 0.37102 0.0
H1551 H 0.5431 0.20002 0.40106 0.0
H1552 H 0.66194 0.21914 0.38867 0.0
H1553 H 0.59785 0.20565 0.37409 0.0
H1554 H 0.54464 0.09241 0.408 0.0
H1555 H 0.60866 0.10626 0.42275 0.0
C1556 C 0.45764 0.10386 0.37575 0.0
C1557 C 0.45052 0.13308 0.38439 0.0
C1558 C 0.49531 0.10869 0.377 0.0
C1559 C 0.52674 0.14337 0.38616 0.0
C1560 C 0.51975 0.17314 0.39368 0.0
C1561 C 0.48225 0.16798 0.39296 0.0
C1562 C 0.6367 0.19088 0.3922 0.0
C1563 C 0.64017 0.16363 0.40665 0.0
C1564 C 0.6 0.18323 0.38404 0.0
C1565 C 0.56612 0.14802 0.39002 0.0
C1566 C 0.57013 0.1196 0.40289 0.0
C1567 C 0.60675 0.1275 0.41133 0.0
H1568 H 0.53203 0.3843 0.08666 0.0
H1569 H 0.59189 0.36974 0.14765 0.0
H1570 H 0.57178 0.45506 0.09073 0.0
H1571 H 0.63182 0.44042 0.15157 0.0
H1572 H 0.68234 0.57107 0.1621 0.0
H1573 H 0.62996 0.50248 0.16108 0.0
H1574 H 0.64294 0.50115 0.08345 0.0
H1575 H 0.69507 0.56892 0.08464 0.0
C1576 C 0.55329 0.39617 0.10113 0.0
C1577 C 0.55895 0.37131 0.1167 0.0
C1578 C 0.57618 0.43672 0.1034 0.0
C1579 C 0.60495 0.45342 0.1215 0.0
C1580 C 0.60964 0.42855 0.13762 0.0
C1581 C 0.58707 0.38803 0.13518 0.0
C1582 C 0.67297 0.5563 0.14482 0.0
C1583 C 0.69239 0.57518 0.12342 0.0
C1584 C 0.6434 0.51701 0.14423 0.0
C1585 C 0.63239 0.4963 0.12218 0.0
C1586 C 0.65033 0.51623 0.10068 0.0
C1587 C 0.68015 0.55507 0.10134 0.0
H1588 H 0.82566 0.46544 0.41111 0.0
H1589 H 0.94731 0.53537 0.39258 0.0
H1590 H 0.82863 0.40642 0.40267 0.0
H1591 H 0.95072 0.47664 0.38497 0.0
H1592 H 0.93853 0.36064 0.35917 0.0
H1593 H 0.93275 0.4193 0.3609 0.0
H1594 H 0.85595 0.3719 0.42256 0.0
H1595 H 0.86142 0.31386 0.42079 0.0
C1596 C 0.85286 0.46829 0.40483 0.0
C1597 C 0.8863 0.50525 0.40282 0.0
C1598 C 0.85478 0.43439 0.4003 0.0
C1599 C 0.89016 0.4365 0.39353 0.0
C1600 C 0.92296 0.47359 0.39009 0.0
C1601 C 0.92104 0.50739 0.39466 0.0
C1602 C 0.92067 0.36287 0.3732 0.0
C1603 C 0.90068 0.3323 0.38987 0.0
C1604 C 0.91723 0.39654 0.37417 0.0
C1605 C 0.89348 0.40042 0.39174 0.0
C1606 C 0.87375 0.36986 0.4084 0.0
C1607 C 0.87728 0.33648 0.40749 0.0
H1608 H 0.16488 0.63803 0.58215 0.0
H1609 H 0.2393 0.65416 0.64343 0.0
H1610 H 0.13486 0.56753 0.58658 0.0
H1611 H 0.21009 0.58373 0.64739 0.0
H1612 H 0.1325 0.45264 0.65845 0.0
H1613 H 0.15019 0.52157 0.65742 0.0
H1614 H 0.15624 0.52055 0.5793 0.0
H1615 H 0.13848 0.45237 0.58039 0.0
C1616 C 0.17459 0.62662 0.59673 0.0
C1617 C 0.20482 0.652 0.61228 0.0
C1618 C 0.15756 0.58612 0.59916 0.0
C1619 C 0.1701 0.56979 0.6173 0.0
C1620 C 0.19938 0.59514 0.63337 0.0
C1621 C 0.21653 0.63563 0.63087 0.0
C1622 C 0.1368 0.46705 0.6411 0.0
C1623 C 0.13439 0.44718 0.61953 0.0
C1624 C 0.14732 0.5066 0.64049 0.0
C1625 C 0.15495 0.52682 0.61827 0.0
C1626 C 0.15031 0.50606 0.59672 0.0
C1627 C 0.14026 0.4669 0.59736 0.0
H1628 H 0.34651 0.91429 0.85646 0.0
H1629 H 0.32317 0.88109 0.93176 0.0
H1630 H 0.40009 0.8999 0.85709 0.0
H1631 H 0.37569 0.86634 0.93235 0.0
H1632 H 0.4852 0.85964 0.93247 0.0
H1633 H 0.44527 0.89078 0.93018 0.0
H1634 H 0.40395 0.83996 0.85956 0.0
H1635 H 0.44451 0.80984 0.86159 0.0
C1636 C 0.35329 0.9047 0.87323 0.0
C1637 C 0.33036 0.89853 0.89398 0.0
C1638 C 0.38373 0.89609 0.87357 0.0
C1639 C 0.39219 0.88169 0.89476 0.0
C1640 C 0.3705 0.87772 0.91578 0.0
C1641 C 0.34008 0.88595 0.91538 0.0
C1642 C 0.46822 0.85578 0.91625 0.0
C1643 C 0.46774 0.83177 0.89737 0.0
C1644 C 0.44504 0.87338 0.915 0.0
C1645 C 0.42101 0.86768 0.89475 0.0
C1646 C 0.42218 0.84532 0.87536 0.0
C1647 C 0.44514 0.82761 0.87666 0.0
H1648 H 0.58898 0.65702 0.61779 0.0
H1649 H 0.55738 0.74437 0.6322 0.0
H1650 H 0.51971 0.60644 0.61835 0.0
H1651 H 0.48881 0.69496 0.6321 0.0
H1652 H 0.3685 0.59888 0.64671 0.0
H1653 H 0.43817 0.64153 0.65255 0.0
H1654 H 0.46141 0.58419 0.59374 0.0
H1655 H 0.3913 0.54079 0.58829 0.0
C1656 C 0.56724 0.66525 0.6214 0.0
C1657 C 0.57837 0.70455 0.62475 0.0
C1658 C 0.52753 0.63644 0.62145 0.0
C1659 C 0.49832 0.64644 0.62511 0.0
C1660 C 0.51009 0.68577 0.62946 0.0
C1661 C 0.54946 0.71428 0.62931 0.0
C1662 C 0.38844 0.59527 0.63504 0.0
C1663 C 0.37418 0.56671 0.61681 0.0
C1664 C 0.42853 0.61982 0.63836 0.0
C1665 C 0.45575 0.61688 0.62341 0.0
C1666 C 0.44152 0.58724 0.60577 0.0
C1667 C 0.40125 0.56238 0.60257 0.0
H1668 H 0.24783 0.64954 0.86699 0.0
H1669 H 0.16275 0.63496 0.92093 0.0
H1670 H 0.21766 0.57874 0.86345 0.0
H1671 H 0.13277 0.56405 0.91756 0.0
H1672 H 0.13995 0.44918 0.92877 0.0
H1673 H 0.15788 0.51764 0.92889 0.0
H1674 H 0.15304 0.51691 0.85075 0.0
H1675 H 0.1342 0.44765 0.85064 0.0
C1676 C 0.22255 0.63118 0.87801 0.0
C1677 C 0.20783 0.64787 0.89435 0.0
C1678 C 0.20505 0.59064 0.87581 0.0
C1679 C 0.17279 0.56576 0.8902 0.0
C1680 C 0.15763 0.58244 0.90625 0.0
C1681 C 0.17471 0.62301 0.90813 0.0
C1682 C 0.14198 0.46338 0.9116 0.0
C1683 C 0.13584 0.44305 0.88968 0.0
C1684 C 0.15213 0.50261 0.91169 0.0
C1685 C 0.15714 0.52281 0.88984 0.0
C1686 C 0.14965 0.50217 0.86788 0.0
C1687 C 0.13861 0.4625 0.86781 0.0
H1688 H 0.33524 0.90062 0.58262 0.0
H1689 H 0.33394 0.89416 0.66066 0.0
H1690 H 0.3882 0.88604 0.58121 0.0
H1691 H 0.38682 0.87865 0.65929 0.0
H1692 H 0.50041 0.8817 0.58715 0.0
H1693 H 0.45897 0.91057 0.59345 0.0
H1694 H 0.3871 0.8175 0.64277 0.0
H1695 H 0.42842 0.78861 0.63645 0.0
C1696 C 0.34706 0.89704 0.59953 0.0
C1697 C 0.33064 0.89871 0.62175 0.0
C1698 C 0.37739 0.88868 0.59872 0.0
C1699 C 0.39162 0.88098 0.62012 0.0
C1700 C 0.37634 0.88428 0.64249 0.0
C1701 C 0.34641 0.89354 0.64331 0.0
C1702 C 0.4762 0.86781 0.59968 0.0
C1703 C 0.46762 0.83274 0.61119 0.0
C1704 C 0.45235 0.88423 0.60319 0.0
C1705 C 0.41975 0.86636 0.61864 0.0
C1706 C 0.4122 0.83223 0.63097 0.0
C1707 C 0.43567 0.81549 0.62717 0.0
H1708 H 0.58836 0.66825 0.85762 0.0
H1709 H 0.56864 0.71401 0.92346 0.0
H1710 H 0.52515 0.60851 0.86255 0.0
H1711 H 0.5053 0.65499 0.92835 0.0
H1712 H 0.37859 0.56159 0.91906 0.0
H1713 H 0.44022 0.62093 0.91002 0.0
H1714 H 0.49085 0.55112 0.88857 0.0
H1715 H 0.42924 0.49211 0.89718 0.0
C1716 C 0.57065 0.66523 0.87329 0.0
C1717 C 0.58317 0.69567 0.89012 0.0
C1718 C 0.53433 0.63118 0.87608 0.0
C1719 C 0.50969 0.62702 0.8957 0.0
C1720 C 0.52291 0.65741 0.91273 0.0
C1721 C 0.55927 0.69116 0.91003 0.0
C1722 C 0.40263 0.55896 0.91192 0.0
C1723 C 0.39899 0.52208 0.90898 0.0
C1724 C 0.43815 0.59297 0.90702 0.0
C1725 C 0.47082 0.59093 0.89885 0.0
C1726 C 0.46645 0.55396 0.89475 0.0
C1727 C 0.43111 0.52006 0.89982 0.0
loop_
_geom_bond_atom_site_label_1
_geom_bond_atom_site_label_2
_geom_bond_distance
_geom_bond_site_symmetry_2
_ccdc_geom_bond_type
Eu0 N29 2.600 . S
Eu0 N35 2.562 . S
Eu0 O44 2.462 . S
Eu0 O45 2.373 . S
Eu0 O47 2.432 . S
Eu0 O48 2.291 . S
Eu0 O52 2.335 . S
Eu0 O55 2.372 . S
Eu0 C64 2.787 . S
C1 N2 1.365 . S
C1 C4 1.405 . S
C1 C8 1.448 . S
N2 C1 1.365 . S
N2 C5 1.319 . S
N2 Eu11 2.600 . S
C3 C5 1.397 . S
C3 C6 1.367 . S
C3 H23 0.931 1_554 S
C4 C1 1.405 . S
C4 C6 1.403 . S
C4 C10 1.439 . S
C5 N2 1.319 . S
C5 C3 1.397 . S
C5 H16 0.930 . S
C6 C3 1.367 . S
C6 C4 1.403 . S
C6 H27 0.929 . S
C7 C8 1.430 . S
C7 C9 1.387 . S
C7 C13 1.404 . S
C8 C1 1.448 . S
C8 C7 1.430 . S
C8 N12 1.351 . S
C9 C7 1.387 . S
C9 C10 1.374 . S
C9 H24 0.931 . S
C10 C4 1.439 . S
C10 C9 1.374 . S
C10 H25 0.931 . S
Eu11 N2 2.600 . S
Eu11 N12 2.562 . S
Eu11 O46 2.335 . S
Eu11 O49 2.372 . S
Eu11 O50 2.462 . S
Eu11 O51 2.373 . S
Eu11 O53 2.432 . S
Eu11 O54 2.291 . S
Eu11 C75 2.787 . S
N12 C8 1.351 . S
N12 Eu11 2.562 . S
N12 C14 1.325 . S
C13 C7 1.404 . S
C13 C15 1.366 . S
C13 H21 0.930 . S
C14 N12 1.325 . S
C14 C15 1.416 . S
C14 H20 0.929 . S
C15 C13 1.366 . S
C15 C14 1.416 . S
C15 H17 0.930 . S
H16 C5 0.930 . S
H17 C15 0.930 . S
H18 C33 0.930 . S
H19 C40 0.930 . S
H20 C14 0.929 . S
H21 C13 0.930 . S
H22 C36 0.929 . S
H23 C3 0.931 1_556 S
H24 C9 0.931 . S
H25 C10 0.931 . S
H26 C31 0.931 . S
H27 C6 0.929 . S
H28 C39 0.930 . S
N29 Eu0 2.600 . S
N29 C30 1.365 . S
N29 C33 1.319 . S
C30 N29 1.365 . S
C30 C32 1.405 . S
C30 C38 1.448 . S
C31 H26 0.931 . S
C31 C33 1.397 . S
C31 C34 1.367 . S
C32 C30 1.405 . S
C32 C34 1.403 . S
C32 C65 1.439 . S
C33 H18 0.930 . S
C33 N29 1.319 . S
C33 C31 1.397 . S
C34 C31 1.367 . S
C34 C32 1.403 . S
C34 H41 0.929 . S
N35 Eu0 2.562 . S
N35 C36 1.325 . S
N35 C38 1.351 . S
C36 H22 0.929 . S
C36 N35 1.325 . S
C36 C40 1.416 . S
C37 C38 1.430 . S
C37 C39 1.404 1_545 S
C37 C66 1.387 1_545 S
C38 C30 1.448 . S
C38 N35 1.351 . S
C38 C37 1.430 . S
C39 H28 0.930 . S
C39 C37 1.404 1_565 S
C39 C40 1.366 1_565 S
C40 H19 0.930 . S
C40 C36 1.416 . S
C40 C39 1.366 1_545 S
H41 C34 0.929 . S
H42 C65 0.948 . S
H43 C66 0.931 . S
O44 Eu0 2.462 . S
O44 C64 1.252 . S
O45 Eu0 2.373 . S
O45 C56 1.249 . S
O46 Eu11 2.335 . S
O46 C56 1.264 . S
O47 Eu0 2.432 . S
O47 C64 1.268 . S
O48 Eu0 2.291 . S
O48 C63 1.255 . S
O49 Eu11 2.372 . S
O49 C63 1.257 . S
O50 Eu11 2.462 . S
O50 C75 1.252 . S
O51 Eu11 2.373 . S
O51 C67 1.249 . S
O52 Eu0 2.335 . S
O52 C67 1.264 . S
O53 Eu11 2.432 . S
O53 C75 1.268 . S
O54 Eu11 2.291 . S
O54 C74 1.255 . S
O55 Eu0 2.372 . S
O55 C74 1.257 . S
C56 O45 1.249 . S
C56 O46 1.264 . S
C57 C60 1.382 . S
C57 C62 1.391 . S
C57 C64 1.505 1_565 S
C58 C59 1.398 . S
C58 C62 1.392 . S
C59 C58 1.398 . S
C59 C61 1.372 . S
C59 H76 0.931 . S
C60 C57 1.382 . S
C60 C61 1.390 . S
C60 H77 0.923 1_565 S
C61 C59 1.372 . S
C61 C60 1.390 . S
C61 H78 0.929 . S
C62 C57 1.391 . S
C62 C58 1.392 . S
C62 H79 0.930 . S
C63 O48 1.255 . S
C63 O49 1.257 . S
C64 Eu0 2.787 . S
C64 O44 1.252 . S
C64 O47 1.268 . S
C64 C57 1.505 1_545 S
C65 C32 1.439 . S
C65 H42 0.948 . S
C65 C66 1.374 1_545 S
C66 C37 1.387 1_565 S
C66 H43 0.931 . S
C66 C65 1.374 1_565 S
C67 O51 1.249 . S
C67 O52 1.264 . S
C68 C71 1.382 . S
C68 C72 1.390 . S
C68 C75 1.506 . S
C69 C70 1.398 . S
C69 C72 1.392 . S
C70 C69 1.398 . S
C70 C73 1.372 . S
C70 H80 0.931 . S
C71 C68 1.382 . S
C71 C73 1.390 . S
C71 H81 0.931 . S
C72 C68 1.390 . S
C72 C69 1.392 . S
C72 H82 0.930 . S
C73 C70 1.372 . S
C73 C71 1.390 . S
C73 H83 0.929 . S
C74 O54 1.255 . S
C74 O55 1.257 . S
C75 Eu11 2.787 . S
C75 O50 1.252 . S
C75 O53 1.268 . S
C75 C68 1.506 . S
H76 C59 0.931 . S
H77 C60 0.923 1_545 S
H78 C61 0.929 . S
H79 C62 0.930 . S
H80 C70 0.931 . S
H81 C71 0.931 . S
H82 C72 0.930 . S
H83 C73 0.929 . S
Eu84 N113 2.600 . S
Eu84 N119 2.562 . S
Eu84 O128 2.462 . S
Eu84 O129 2.373 . S
Eu84 O131 2.432 . S
Eu84 O132 2.291 . S
Eu84 O136 2.335 . S
Eu84 O139 2.372 . S
Eu84 C148 2.787 . S
C85 N86 1.365 . S
C85 C88 1.405 . S
C85 C92 1.448 . S
N86 C85 1.365 . S
N86 C89 1.319 . S
N86 Eu95 2.600 . S
C87 C89 1.397 . S
C87 C90 1.367 . S
C87 H107 0.931 . S
C88 C85 1.405 . S
C88 C90 1.403 . S
C88 C94 1.439 . S
C89 N86 1.319 . S
C89 C87 1.397 . S
C89 H100 0.930 . S
C90 C87 1.367 . S
C90 C88 1.403 . S
C90 H111 0.929 . S
C91 C92 1.430 . S
C91 C93 1.387 . S
C91 C97 1.404 . S
C92 C85 1.448 . S
C92 C91 1.430 . S
C92 N96 1.351 . S
C93 C91 1.387 . S
C93 C94 1.374 . S
C93 H108 0.931 . S
C94 C88 1.439 . S
C94 C93 1.374 . S
C94 H109 0.931 . S
Eu95 N86 2.600 . S
Eu95 N96 2.562 . S
Eu95 O130 2.335 . S
Eu95 O133 2.372 . S
Eu95 O134 2.462 . S
Eu95 O135 2.373 . S
Eu95 O137 2.432 . S
Eu95 O138 2.291 . S
Eu95 C159 2.787 . S
N96 C92 1.351 . S
N96 Eu95 2.562 . S
N96 C98 1.325 . S
C97 C91 1.404 . S
C97 C99 1.366 . S
C97 H105 0.930 . S
C98 N96 1.325 . S
C98 C99 1.416 . S
C98 H104 0.929 . S
C99 C97 1.366 . S
C99 C98 1.416 . S
C99 H101 0.930 . S
H100 C89 0.930 . S
H101 C99 0.930 . S
H102 C117 0.930 . S
H103 C124 0.930 . S
H104 C98 0.929 . S
H105 C97 0.930 . S
H106 C120 0.929 . S
H107 C87 0.931 . S
H108 C93 0.931 . S
H109 C94 0.931 . S
H110 C115 0.931 . S
H111 C90 0.929 . S
H112 C123 0.930 1_455 S
N113 Eu84 2.600 . S
N113 C114 1.365 . S
N113 C117 1.319 . S
C114 N113 1.365 . S
C114 C116 1.405 . S
C114 C122 1.448 . S
C115 H110 0.931 . S
C115 C117 1.397 . S
C115 C118 1.367 . S
C116 C114 1.405 . S
C116 C118 1.403 . S
C116 C149 1.439 . S
C117 H102 0.930 . S
C117 N113 1.319 . S
C117 C115 1.397 . S
C118 C115 1.367 . S
C118 C116 1.403 . S
C118 H125 0.929 . S
N119 Eu84 2.562 . S
N119 C120 1.325 . S
N119 C122 1.351 . S
C120 H106 0.929 . S
C120 N119 1.325 . S
C120 C124 1.416 . S
C121 C122 1.430 . S
C121 C123 1.404 . S
C121 C150 1.387 1_655 S
C122 C114 1.448 . S
C122 N119 1.351 . S
C122 C121 1.430 . S
C123 H112 0.930 1_655 S
C123 C121 1.404 . S
C123 C124 1.366 . S
C124 H103 0.930 . S
C124 C120 1.416 . S
C124 C123 1.366 . S
H125 C118 0.929 . S
H126 C149 0.931 1_455 S
H127 C150 0.931 . S
O128 Eu84 2.462 . S
O128 C148 1.252 . S
O129 Eu84 2.373 . S
O129 C140 1.249 . S
O130 Eu95 2.335 . S
O130 C140 1.264 . S
O131 Eu84 2.432 . S
O131 C148 1.268 . S
O132 Eu84 2.291 . S
O132 C147 1.255 . S
O133 Eu95 2.372 . S
O133 C147 1.257 . S
O134 Eu95 2.462 . S
O134 C159 1.252 . S
O135 Eu95 2.373 . S
O135 C151 1.249 . S
O136 Eu84 2.335 . S
O136 C151 1.264 . S
O137 Eu95 2.432 . S
O137 C159 1.268 . S
O138 Eu95 2.291 . S
O138 C158 1.255 . S
O139 Eu84 2.372 . S
O139 C158 1.257 . S
C140 O129 1.249 . S
C140 O130 1.264 . S
C141 C144 1.382 . S
C141 C146 1.390 . S
C141 C148 1.506 . S
C142 C143 1.398 . S
C142 C146 1.392 . S
C143 C142 1.398 . S
C143 C145 1.372 . S
C143 H160 0.931 . S
C144 C141 1.382 . S
C144 C145 1.390 . S
C144 H161 0.931 . S
C145 C143 1.372 . S
C145 C144 1.390 . S
C145 H162 0.929 . S
C146 C141 1.390 . S
C146 C142 1.392 . S
C146 H163 0.930 . S
C147 O132 1.255 . S
C147 O133 1.257 . S
C148 Eu84 2.787 . S
C148 O128 1.252 . S
C148 O131 1.268 . S
C148 C141 1.506 . S
C149 C116 1.439 . S
C149 H126 0.931 1_655 S
C149 C150 1.374 1_655 S
C150 C121 1.387 1_455 S
C150 H127 0.931 . S
C150 C149 1.374 1_455 S
C151 O135 1.249 . S
C151 O136 1.264 . S
C152 C155 1.382 . S
C152 C156 1.390 . S
C152 C159 1.506 . S
C153 C154 1.398 . S
C153 C156 1.392 . S
C154 C153 1.398 . S
C154 C157 1.372 . S
C154 H164 0.931 . S
C155 C152 1.382 . S
C155 C157 1.390 . S
C155 H165 0.931 . S
C156 C152 1.390 . S
C156 C153 1.392 . S
C156 H166 0.930 . S
C157 C154 1.372 . S
C157 C155 1.390 . S
C157 H167 0.929 . S
C158 O138 1.255 . S
C158 O139 1.257 . S
C159 Eu95 2.787 . S
C159 O134 1.252 . S
C159 O137 1.268 . S
C159 C152 1.506 . S
H160 C143 0.931 . S
H161 C144 0.931 . S
H162 C145 0.929 . S
H163 C146 0.930 . S
H164 C154 0.931 . S
H165 C155 0.931 . S
H166 C156 0.930 . S
H167 C157 0.929 . S
Eu168 N197 2.600 . S
Eu168 N203 2.562 . S
Eu168 O212 2.462 . S
Eu168 O213 2.373 . S
Eu168 O215 2.432 . S
Eu168 O216 2.291 . S
Eu168 O220 2.335 . S
Eu168 O223 2.372 . S
Eu168 C232 2.787 . S
C169 N170 1.365 . S
C169 C172 1.405 . S
C169 C176 1.448 . S
N170 C169 1.365 . S
N170 C173 1.319 . S
N170 Eu179 2.600 . S
C171 C173 1.397 . S
C171 C174 1.367 . S
C171 H191 0.931 1_554 S
C172 C169 1.405 . S
C172 C174 1.403 . S
C172 C178 1.439 . S
C173 N170 1.319 . S
C173 C171 1.397 . S
C173 H184 0.930 . S
C174 C171 1.367 . S
C174 C172 1.403 . S
C174 H195 0.929 . S
C175 C176 1.430 . S
C175 C177 1.387 1_545 S
C175 C181 1.404 . S
C176 C169 1.448 . S
C176 C175 1.430 . S
C176 N180 1.351 . S
C177 C175 1.387 1_565 S
C177 C178 1.374 1_565 S
C177 H192 0.931 . S
C178 C172 1.439 . S
C178 C177 1.374 1_545 S
C178 H193 0.931 1_545 S
Eu179 N170 2.600 . S
Eu179 N180 2.562 . S
Eu179 O214 2.335 . S
Eu179 O217 2.372 . S
Eu179 O218 2.462 . S
Eu179 O219 2.373 . S
Eu179 O221 2.432 . S
Eu179 O222 2.291 . S
Eu179 C243 2.787 . S
N180 C176 1.351 . S
N180 Eu179 2.562 . S
N180 C182 1.325 . S
C181 C175 1.404 . S
C181 C183 1.366 . S
C181 H189 0.930 1_545 S
C182 N180 1.325 . S
C182 C183 1.416 . S
C182 H188 0.929 . S
C183 C181 1.366 . S
C183 C182 1.416 . S
C183 H185 0.930 . S
H184 C173 0.930 . S
H185 C183 0.930 . S
H186 C201 0.930 . S
H187 C208 0.930 . S
H188 C182 0.929 . S
H189 C181 0.930 1_565 S
H190 C204 0.929 . S
H191 C171 0.931 1_556 S
H192 C177 0.931 . S
H193 C178 0.931 1_565 S
H194 C199 0.931 . S
H195 C174 0.929 . S
H196 C207 0.930 . S
N197 Eu168 2.600 . S
N197 C198 1.365 . S
N197 C201 1.319 . S
C198 N197 1.365 . S
C198 C200 1.405 . S
C198 C206 1.448 . S
C199 H194 0.931 . S
C199 C201 1.397 . S
C199 C202 1.367 . S
C200 C198 1.405 . S
C200 C202 1.403 . S
C200 C233 1.439 . S
C201 H186 0.930 . S
C201 N197 1.319 . S
C201 C199 1.397 . S
C202 C199 1.367 . S
C202 C200 1.403 . S
C202 H209 0.929 . S
N203 Eu168 2.562 . S
N203 C204 1.325 . S
N203 C206 1.351 . S
C204 H190 0.929 . S
C204 N203 1.325 . S
C204 C208 1.416 . S
C205 C206 1.430 . S
C205 C207 1.404 1_655 S
C205 C234 1.387 1_655 S
C206 C198 1.448 . S
C206 N203 1.351 . S
C206 C205 1.430 . S
C207 H196 0.930 . S
C207 C205 1.404 1_455 S
C207 C208 1.366 1_455 S
C208 H187 0.930 . S
C208 C204 1.416 . S
C208 C207 1.366 1_655 S
H209 C202 0.929 . S
H210 C233 0.930 . S
H211 C234 0.931 . S
O212 Eu168 2.462 . S
O212 C232 1.252 . S
O213 Eu168 2.373 . S
O213 C224 1.249 . S
O214 Eu179 2.335 . S
O214 C224 1.264 . S
O215 Eu168 2.432 . S
O215 C232 1.268 . S
O216 Eu168 2.291 . S
O216 C231 1.255 . S
O217 Eu179 2.372 . S
O217 C231 1.257 . S
O218 Eu179 2.462 . S
O218 C243 1.252 . S
O219 Eu179 2.373 . S
O219 C235 1.249 . S
O220 Eu168 2.335 . S
O220 C235 1.264 . S
O221 Eu179 2.432 . S
O221 C243 1.268 . S
O222 Eu179 2.291 . S
O222 C242 1.255 . S
O223 Eu168 2.372 . S
O223 C242 1.257 . S
C224 O213 1.249 . S
C224 O214 1.264 . S
C225 C228 1.383 . S
C225 C230 1.392 . S
C225 C232 1.503 1_455 S
C226 C227 1.398 . S
C226 C230 1.392 . S
C227 C226 1.398 . S
C227 C229 1.372 . S
C227 H244 0.931 . S
C228 C225 1.383 . S
C228 C229 1.390 . S
C228 H245 0.916 1_455 S
C229 C227 1.372 . S
C229 C228 1.390 . S
C229 H246 0.929 . S
C230 C225 1.392 . S
C230 C226 1.392 . S
C230 H247 0.930 . S
C231 O216 1.255 . S
C231 O217 1.257 . S
C232 Eu168 2.787 . S
C232 O212 1.252 . S
C232 O215 1.268 . S
C232 C225 1.503 1_655 S
C233 C200 1.439 . S
C233 H210 0.930 . S
C233 C234 1.374 1_655 S
C234 C205 1.387 1_455 S
C234 H211 0.931 . S
C234 C233 1.374 1_455 S
C235 O219 1.249 . S
C235 O220 1.264 . S
C236 C239 1.382 . S
C236 C240 1.390 . S
C236 C243 1.506 . S
C237 C238 1.398 . S
C237 C240 1.392 . S
C238 C237 1.398 . S
C238 C241 1.372 . S
C238 H248 0.931 . S
C239 C236 1.382 . S
C239 C241 1.390 . S
C239 H249 0.931 . S
C240 C236 1.390 . S
C240 C237 1.392 . S
C240 H250 0.930 . S
C241 C238 1.372 . S
C241 C239 1.390 . S
C241 H251 0.929 . S
C242 O222 1.255 . S
C242 O223 1.257 . S
C243 Eu179 2.787 . S
C243 O218 1.252 . S
C243 O221 1.268 . S
C243 C236 1.506 . S
H244 C227 0.931 . S
H245 C228 0.916 1_655 S
H246 C229 0.929 . S
H247 C230 0.930 . S
H248 C238 0.931 . S
H249 C239 0.931 . S
H250 C240 0.930 . S
H251 C241 0.929 . S
Eu252 N281 2.600 . S
Eu252 N287 2.562 . S
Eu252 O296 2.462 . S
Eu252 O297 2.373 . S
Eu252 O299 2.432 . S
Eu252 O300 2.291 . S
Eu252 O304 2.335 . S
Eu252 O307 2.372 . S
Eu252 C316 2.787 . S
C253 N254 1.365 . S
C253 C256 1.405 . S
C253 C260 1.448 . S
N254 C253 1.365 . S
N254 C257 1.319 . S
N254 Eu263 2.600 . S
C255 C257 1.397 . S
C255 C258 1.367 . S
C255 H275 0.931 . S
C256 C253 1.405 . S
C256 C258 1.403 . S
C256 C262 1.439 . S
C257 N254 1.319 . S
C257 C255 1.397 . S
C257 H268 0.930 . S
C258 C255 1.367 . S
C258 C256 1.403 . S
C258 H279 0.929 . S
C259 C260 1.430 . S
C259 C261 1.387 1_545 S
C259 C265 1.404 1_545 S
C260 C253 1.448 . S
C260 C259 1.430 . S
C260 N264 1.351 . S
C261 C259 1.387 1_565 S
C261 C262 1.374 1_565 S
C261 H276 0.931 . S
C262 C256 1.439 . S
C262 C261 1.374 1_545 S
C262 H277 0.948 . S
Eu263 N254 2.600 . S
Eu263 N264 2.562 . S
Eu263 O298 2.335 . S
Eu263 O301 2.372 . S
Eu263 O302 2.462 . S
Eu263 O303 2.373 . S
Eu263 O305 2.432 . S
Eu263 O306 2.291 . S
Eu263 C327 2.787 . S
N264 C260 1.351 . S
N264 Eu263 2.562 . S
N264 C266 1.325 . S
C265 C259 1.404 1_565 S
C265 C267 1.366 1_565 S
C265 H273 0.930 . S
C266 N264 1.325 . S
C266 C267 1.416 . S
C266 H272 0.929 . S
C267 C265 1.366 1_545 S
C267 C266 1.416 . S
C267 H269 0.930 . S
H268 C257 0.930 . S
H269 C267 0.930 . S
H270 C285 0.930 . S
H271 C292 0.930 . S
H272 C266 0.929 . S
H273 C265 0.930 . S
H274 C288 0.929 . S
H275 C255 0.931 . S
H276 C261 0.931 . S
H277 C262 0.948 . S
H278 C283 0.931 . S
H279 C258 0.929 . S
H280 C291 0.930 . S
N281 Eu252 2.600 . S
N281 C282 1.365 . S
N281 C285 1.319 . S
C282 N281 1.365 . S
C282 C284 1.405 . S
C282 C290 1.448 . S
C283 H278 0.931 . S
C283 C285 1.397 . S
C283 C286 1.367 . S
C284 C282 1.405 . S
C284 C286 1.403 . S
C284 C317 1.439 . S
C285 H270 0.930 . S
C285 N281 1.319 . S
C285 C283 1.397 . S
C286 C283 1.367 . S
C286 C284 1.403 . S
C286 H293 0.929 . S
N287 Eu252 2.562 . S
N287 C288 1.325 . S
N287 C290 1.351 . S
C288 H274 0.929 . S
C288 N287 1.325 . S
C288 C292 1.416 . S
C289 C290 1.430 . S
C289 C291 1.404 . S
C289 C318 1.387 . S
C290 C282 1.448 . S
C290 N287 1.351 . S
C290 C289 1.430 . S
C291 H280 0.930 . S
C291 C289 1.404 . S
C291 C292 1.366 . S
C292 H271 0.930 . S
C292 C288 1.416 . S
C292 C291 1.366 . S
H293 C286 0.929 . S
H294 C317 0.931 . S
H295 C318 0.931 . S
O296 Eu252 2.462 . S
O296 C316 1.252 . S
O297 Eu252 2.373 . S
O297 C308 1.249 . S
O298 Eu263 2.335 . S
O298 C308 1.264 . S
O299 Eu252 2.432 . S
O299 C316 1.268 . S
O300 Eu252 2.291 . S
O300 C315 1.255 . S
O301 Eu263 2.372 . S
O301 C315 1.257 . S
O302 Eu263 2.462 . S
O302 C327 1.252 . S
O303 Eu263 2.373 . S
O303 C319 1.249 . S
O304 Eu252 2.335 . S
O304 C319 1.264 . S
O305 Eu263 2.432 . S
O305 C327 1.268 . S
O306 Eu263 2.291 . S
O306 C326 1.255 . S
O307 Eu252 2.372 . S
O307 C326 1.257 . S
C308 O297 1.249 . S
C308 O298 1.264 . S
C309 C312 1.382 . S
C309 C314 1.390 . S
C309 C316 1.506 . S
C310 C311 1.398 . S
C310 C314 1.392 . S
C311 C310 1.398 . S
C311 C313 1.372 . S
C311 H328 0.931 . S
C312 C309 1.382 . S
C312 C313 1.390 . S
C312 H329 0.931 . S
C313 C311 1.372 . S
C313 C312 1.390 . S
C313 H330 0.929 . S
C314 C309 1.390 . S
C314 C310 1.392 . S
C314 H331 0.930 . S
C315 O300 1.255 . S
C315 O301 1.257 . S
C316 Eu252 2.787 . S
C316 O296 1.252 . S
C316 O299 1.268 . S
C316 C309 1.506 . S
C317 C284 1.439 . S
C317 H294 0.931 . S
C317 C318 1.374 . S
C318 C289 1.387 . S
C318 H295 0.931 . S
C318 C317 1.374 . S
C319 O303 1.249 . S
C319 O304 1.264 . S
C320 C323 1.382 . S
C320 C324 1.391 . S
C320 C327 1.505 1_565 S
C321 C322 1.398 . S
C321 C324 1.392 . S
C322 C321 1.398 . S
C322 C325 1.372 . S
C322 H332 0.931 . S
C323 C320 1.382 . S
C323 C325 1.390 . S
C323 H333 0.923 1_565 S
C324 C320 1.391 . S
C324 C321 1.392 . S
C324 H334 0.930 . S
C325 C322 1.372 . S
C325 C323 1.390 . S
C325 H335 0.929 . S
C326 O306 1.255 . S
C326 O307 1.257 . S
C327 Eu263 2.787 . S
C327 O302 1.252 . S
C327 O305 1.268 . S
C327 C320 1.505 1_545 S
H328 C311 0.931 . S
H329 C312 0.931 . S
H330 C313 0.929 . S
H331 C314 0.930 . S
H332 C322 0.931 . S
H333 C323 0.923 1_545 S
H334 C324 0.930 . S
H335 C325 0.929 . S
Eu336 N365 2.600 . S
Eu336 N371 2.562 . S
Eu336 O380 2.462 . S
Eu336 O381 2.373 . S
Eu336 O383 2.432 . S
Eu336 O384 2.291 . S
Eu336 O388 2.335 . S
Eu336 O391 2.372 . S
Eu336 C400 2.787 . S
C337 N338 1.365 . S
C337 C340 1.405 . S
C337 C344 1.448 . S
N338 C337 1.365 . S
N338 C341 1.319 . S
N338 Eu347 2.600 . S
C339 C341 1.397 . S
C339 C342 1.367 . S
C339 H359 0.931 1_554 S
C340 C337 1.405 . S
C340 C342 1.403 . S
C340 C346 1.439 . S
C341 N338 1.319 . S
C341 C339 1.397 . S
C341 H352 0.930 . S
C342 C339 1.367 . S
C342 C340 1.403 . S
C342 H363 0.929 . S
C343 C344 1.430 . S
C343 C345 1.387 1_655 S
C343 C349 1.404 . S
C344 C337 1.448 . S
C344 C343 1.430 . S
C344 N348 1.351 . S
C345 C343 1.387 1_455 S
C345 C346 1.374 1_455 S
C345 H360 0.931 . S
C346 C340 1.439 . S
C346 C345 1.374 1_655 S
C346 H361 0.931 1_655 S
Eu347 N338 2.600 . S
Eu347 N348 2.562 . S
Eu347 O382 2.335 . S
Eu347 O385 2.372 . S
Eu347 O386 2.462 . S
Eu347 O387 2.373 . S
Eu347 O389 2.432 . S
Eu347 O390 2.291 . S
Eu347 C411 2.787 . S
N348 C344 1.351 . S
N348 Eu347 2.562 . S
N348 C350 1.325 . S
C349 C343 1.404 . S
C349 C351 1.366 . S
C349 H357 0.930 1_655 S
C350 N348 1.325 . S
C350 C351 1.416 . S
C350 H356 0.929 . S
C351 C349 1.366 . S
C351 C350 1.416 . S
C351 H353 0.930 . S
H352 C341 0.930 . S
H353 C351 0.930 . S
H354 C369 0.930 . S
H355 C376 0.930 . S
H356 C350 0.929 . S
H357 C349 0.930 1_455 S
H358 C372 0.929 . S
H359 C339 0.931 1_556 S
H360 C345 0.931 . S
H361 C346 0.931 1_455 S
H362 C367 0.931 . S
H363 C342 0.929 . S
H364 C375 0.930 . S
N365 Eu336 2.600 . S
N365 C366 1.365 . S
N365 C369 1.319 . S
C366 N365 1.365 . S
C366 C368 1.405 . S
C366 C374 1.448 . S
C367 H362 0.931 . S
C367 C369 1.397 . S
C367 C370 1.367 . S
C368 C366 1.405 . S
C368 C370 1.403 . S
C368 C401 1.439 . S
C369 H354 0.930 . S
C369 N365 1.319 . S
C369 C367 1.397 . S
C370 C367 1.367 . S
C370 C368 1.403 . S
C370 H377 0.929 . S
N371 Eu336 2.562 . S
N371 C372 1.325 . S
N371 C374 1.351 . S
C372 H358 0.929 . S
C372 N371 1.325 . S
C372 C376 1.416 . S
C373 C374 1.430 . S
C373 C375 1.404 . S
C373 C402 1.387 . S
C374 C366 1.448 . S
C374 N371 1.351 . S
C374 C373 1.430 . S
C375 H364 0.930 . S
C375 C373 1.404 . S
C375 C376 1.366 . S
C376 H355 0.930 . S
C376 C372 1.416 . S
C376 C375 1.366 . S
H377 C370 0.929 . S
H378 C401 0.931 . S
H379 C402 0.931 . S
O380 Eu336 2.462 . S
O380 C400 1.252 . S
O381 Eu336 2.373 . S
O381 C392 1.249 . S
O382 Eu347 2.335 . S
O382 C392 1.264 . S
O383 Eu336 2.432 . S
O383 C400 1.268 . S
O384 Eu336 2.291 . S
O384 C399 1.255 . S
O385 Eu347 2.372 . S
O385 C399 1.257 . S
O386 Eu347 2.462 . S
O386 C411 1.252 . S
O387 Eu347 2.373 . S
O387 C403 1.249 . S
O388 Eu336 2.335 . S
O388 C403 1.264 . S
O389 Eu347 2.432 . S
O389 C411 1.268 . S
O390 Eu347 2.291 . S
O390 C410 1.255 . S
O391 Eu336 2.372 . S
O391 C410 1.257 . S
C392 O381 1.249 . S
C392 O382 1.264 . S
C393 C396 1.382 . S
C393 C398 1.390 . S
C393 C400 1.506 . S
C394 C395 1.398 . S
C394 C398 1.392 . S
C395 C394 1.398 . S
C395 C397 1.372 . S
C395 H412 0.931 . S
C396 C393 1.382 . S
C396 C397 1.390 . S
C396 H413 0.931 . S
C397 C395 1.372 . S
C397 C396 1.390 . S
C397 H414 0.929 . S
C398 C393 1.390 . S
C398 C394 1.392 . S
C398 H415 0.930 . S
C399 O384 1.255 . S
C399 O385 1.257 . S
C400 Eu336 2.787 . S
C400 O380 1.252 . S
C400 O383 1.268 . S
C400 C393 1.506 . S
C401 C368 1.439 . S
C401 H378 0.931 . S
C401 C402 1.374 . S
C402 C373 1.387 . S
C402 H379 0.931 . S
C402 C401 1.374 . S
C403 O387 1.249 . S
C403 O388 1.264 . S
C404 C407 1.382 . S
C404 C408 1.390 . S
C404 C411 1.506 . S
C405 C406 1.398 . S
C405 C408 1.392 . S
C406 C405 1.398 . S
C406 C409 1.372 . S
C406 H416 0.931 . S
C407 C404 1.382 . S
C407 C409 1.390 . S
C407 H417 0.931 . S
C408 C404 1.390 . S
C408 C405 1.392 . S
C408 H418 0.930 . S
C409 C406 1.372 . S
C409 C407 1.390 . S
C409 H419 0.929 . S
C410 O390 1.255 . S
C410 O391 1.257 . S
C411 Eu347 2.787 . S
C411 O386 1.252 . S
C411 O389 1.268 . S
C411 C404 1.506 . S
H412 C395 0.931 . S
H413 C396 0.931 . S
H414 C397 0.929 . S
H415 C398 0.930 . S
H416 C406 0.931 . S
H417 C407 0.931 . S
H418 C408 0.930 . S
H419 C409 0.929 . S
Eu420 N449 2.600 . S
Eu420 N455 2.562 . S
Eu420 O464 2.462 . S
Eu420 O465 2.373 . S
Eu420 O467 2.432 . S
Eu420 O468 2.291 . S
Eu420 O472 2.335 . S
Eu420 O475 2.372 . S
Eu420 C484 2.787 . S
C421 N422 1.365 . S
C421 C424 1.405 . S
C421 C428 1.448 . S
N422 C421 1.365 . S
N422 C425 1.319 . S
N422 Eu431 2.600 . S
C423 C425 1.397 . S
C423 C426 1.367 . S
C423 H443 0.931 . S
C424 C421 1.405 . S
C424 C426 1.403 . S
C424 C430 1.439 . S
C425 N422 1.319 . S
C425 C423 1.397 . S
C425 H436 0.930 . S
C426 C423 1.367 . S
C426 C424 1.403 . S
C426 H447 0.929 . S
C427 C428 1.430 . S
C427 C429 1.387 1_655 S
C427 C433 1.404 1_655 S
C428 C421 1.448 . S
C428 C427 1.430 . S
C428 N432 1.351 . S
C429 C427 1.387 1_455 S
C429 C430 1.374 1_455 S
C429 H444 0.931 . S
C430 C424 1.439 . S
C430 C429 1.374 1_655 S
C430 H445 0.930 . S
Eu431 N422 2.600 . S
Eu431 N432 2.562 . S
Eu431 O466 2.335 . S
Eu431 O469 2.372 . S
Eu431 O470 2.462 . S
Eu431 O471 2.373 . S
Eu431 O473 2.432 . S
Eu431 O474 2.291 . S
Eu431 C495 2.787 . S
N432 C428 1.351 . S
N432 Eu431 2.562 . S
N432 C434 1.325 . S
C433 C427 1.404 1_455 S
C433 C435 1.366 1_455 S
C433 H441 0.930 . S
C434 N432 1.325 . S
C434 C435 1.416 . S
C434 H440 0.929 . S
C435 C433 1.366 1_655 S
C435 C434 1.416 . S
C435 H437 0.930 . S
H436 C425 0.930 . S
H437 C435 0.930 . S
H438 C453 0.930 . S
H439 C460 0.930 . S
H440 C434 0.929 . S
H441 C433 0.930 . S
H442 C456 0.929 . S
H443 C423 0.931 . S
H444 C429 0.931 . S
H445 C430 0.930 . S
H446 C451 0.931 . S
H447 C426 0.929 . S
H448 C459 0.930 1_565 S
N449 Eu420 2.600 . S
N449 C450 1.365 . S
N449 C453 1.319 . S
C450 N449 1.365 . S
C450 C452 1.405 . S
C450 C458 1.448 . S
C451 H446 0.931 . S
C451 C453 1.397 . S
C451 C454 1.367 . S
C452 C450 1.405 . S
C452 C454 1.403 . S
C452 C485 1.439 . S
C453 H438 0.930 . S
C453 N449 1.319 . S
C453 C451 1.397 . S
C454 C451 1.367 . S
C454 C452 1.403 . S
C454 H461 0.929 . S
N455 Eu420 2.562 . S
N455 C456 1.325 . S
N455 C458 1.351 . S
C456 H442 0.929 . S
C456 N455 1.325 . S
C456 C460 1.416 . S
C457 C458 1.430 . S
C457 C459 1.404 . S
C457 C486 1.387 1_545 S
C458 C450 1.448 . S
C458 N455 1.351 . S
C458 C457 1.430 . S
C459 H448 0.930 1_545 S
C459 C457 1.404 . S
C459 C460 1.366 . S
C460 H439 0.930 . S
C460 C456 1.416 . S
C460 C459 1.366 . S
H461 C454 0.929 . S
H462 C485 0.931 1_565 S
H463 C486 0.931 . S
O464 Eu420 2.462 . S
O464 C484 1.252 . S
O465 Eu420 2.373 . S
O465 C476 1.249 . S
O466 Eu431 2.335 . S
O466 C476 1.264 . S
O467 Eu420 2.432 . S
O467 C484 1.268 . S
O468 Eu420 2.291 . S
O468 C483 1.255 . S
O469 Eu431 2.372 . S
O469 C483 1.257 . S
O470 Eu431 2.462 . S
O470 C495 1.252 . S
O471 Eu431 2.373 . S
O471 C487 1.249 . S
O472 Eu420 2.335 . S
O472 C487 1.264 . S
O473 Eu431 2.432 . S
O473 C495 1.268 . S
O474 Eu431 2.291 . S
O474 C494 1.255 . S
O475 Eu420 2.372 . S
O475 C494 1.257 . S
C476 O465 1.249 . S
C476 O466 1.264 . S
C477 C480 1.382 . S
C477 C482 1.390 . S
C477 C484 1.506 . S
C478 C479 1.398 . S
C478 C482 1.392 . S
C479 C478 1.398 . S
C479 C481 1.372 . S
C479 H496 0.931 . S
C480 C477 1.382 . S
C480 C481 1.390 . S
C480 H497 0.931 . S
C481 C479 1.372 . S
C481 C480 1.390 . S
C481 H498 0.929 . S
C482 C477 1.390 . S
C482 C478 1.392 . S
C482 H499 0.930 . S
C483 O468 1.255 . S
C483 O469 1.257 . S
C484 Eu420 2.787 . S
C484 O464 1.252 . S
C484 O467 1.268 . S
C484 C477 1.506 . S
C485 C452 1.439 . S
C485 H462 0.931 1_545 S
C485 C486 1.374 1_545 S
C486 C457 1.387 1_565 S
C486 H463 0.931 . S
C486 C485 1.374 1_565 S
C487 O471 1.249 . S
C487 O472 1.264 . S
C488 C491 1.383 . S
C488 C492 1.392 . S
C488 C495 1.503 1_455 S
C489 C490 1.398 . S
C489 C492 1.392 . S
C490 C489 1.398 . S
C490 C493 1.372 . S
C490 H500 0.931 . S
C491 C488 1.383 . S
C491 C493 1.390 . S
C491 H501 0.916 1_455 S
C492 C488 1.392 . S
C492 C489 1.392 . S
C492 H502 0.930 . S
C493 C490 1.372 . S
C493 C491 1.390 . S
C493 H503 0.929 . S
C494 O474 1.255 . S
C494 O475 1.257 . S
C495 Eu431 2.787 . S
C495 O470 1.252 . S
C495 O473 1.268 . S
C495 C488 1.503 1_655 S
H496 C479 0.931 . S
H497 C480 0.931 . S
H498 C481 0.929 . S
H499 C482 0.930 . S
H500 C490 0.931 . S
H501 C491 0.916 1_655 S
H502 C492 0.930 . S
H503 C493 0.929 . S
Eu504 N533 2.600 . S
Eu504 N539 2.562 . S
Eu504 O548 2.462 . S
Eu504 O549 2.373 . S
Eu504 O551 2.432 . S
Eu504 O552 2.291 . S
Eu504 O556 2.335 . S
Eu504 O559 2.372 . S
Eu504 C568 2.787 . S
C505 N506 1.365 . S
C505 C508 1.405 . S
C505 C512 1.448 . S
N506 C505 1.365 . S
N506 C509 1.319 . S
N506 Eu515 2.600 . S
C507 C509 1.397 . S
C507 C510 1.367 . S
C507 H527 0.931 . S
C508 C505 1.405 . S
C508 C510 1.403 . S
C508 C514 1.439 . S
C509 N506 1.319 . S
C509 C507 1.397 . S
C509 H520 0.930 . S
C510 C507 1.367 . S
C510 C508 1.403 . S
C510 H531 0.929 . S
C511 C512 1.430 . S
C511 C513 1.387 1_455 S
C511 C517 1.404 1_455 S
C512 C505 1.448 . S
C512 C511 1.430 . S
C512 N516 1.351 . S
C513 C511 1.387 1_655 S
C513 C514 1.374 1_655 S
C513 H528 0.931 . S
C514 C508 1.439 . S
C514 C513 1.374 1_455 S
C514 H529 0.948 . S
Eu515 N506 2.600 . S
Eu515 N516 2.562 . S
Eu515 O550 2.335 . S
Eu515 O553 2.372 . S
Eu515 O554 2.462 . S
Eu515 O555 2.373 . S
Eu515 O557 2.432 . S
Eu515 O558 2.291 . S
Eu515 C579 2.787 . S
N516 C512 1.351 . S
N516 Eu515 2.562 . S
N516 C518 1.325 . S
C517 C511 1.404 1_655 S
C517 C519 1.366 1_655 S
C517 H525 0.930 . S
C518 N516 1.325 . S
C518 C519 1.416 . S
C518 H524 0.929 . S
C519 C517 1.366 1_455 S
C519 C518 1.416 . S
C519 H521 0.930 . S
H520 C509 0.930 . S
H521 C519 0.930 . S
H522 C537 0.930 . S
H523 C544 0.930 . S
H524 C518 0.929 . S
H525 C517 0.930 . S
H526 C540 0.929 . S
H527 C507 0.931 . S
H528 C513 0.931 . S
H529 C514 0.948 . S
H530 C535 0.931 . S
H531 C510 0.929 . S
H532 C543 0.930 . S
N533 Eu504 2.600 . S
N533 C534 1.365 . S
N533 C537 1.319 . S
C534 N533 1.365 . S
C534 C536 1.405 . S
C534 C542 1.448 . S
C535 H530 0.931 . S
C535 C537 1.397 . S
C535 C538 1.367 . S
C536 C534 1.405 . S
C536 C538 1.403 . S
C536 C569 1.439 . S
C537 H522 0.930 . S
C537 N533 1.319 . S
C537 C535 1.397 . S
C538 C535 1.367 . S
C538 C536 1.403 . S
C538 H545 0.929 . S
N539 Eu504 2.562 . S
N539 C540 1.325 . S
N539 C542 1.351 . S
C540 H526 0.929 . S
C540 N539 1.325 . S
C540 C544 1.416 . S
C541 C542 1.430 . S
C541 C543 1.404 . S
C541 C570 1.387 . S
C542 C534 1.448 . S
C542 N539 1.351 . S
C542 C541 1.430 . S
C543 H532 0.930 . S
C543 C541 1.404 . S
C543 C544 1.366 . S
C544 H523 0.930 . S
C544 C540 1.416 . S
C544 C543 1.366 . S
H545 C538 0.929 . S
H546 C569 0.931 . S
H547 C570 0.931 . S
O548 Eu504 2.462 . S
O548 C568 1.252 . S
O549 Eu504 2.373 . S
O549 C560 1.249 . S
O550 Eu515 2.335 . S
O550 C560 1.264 . S
O551 Eu504 2.432 . S
O551 C568 1.268 . S
O552 Eu504 2.291 . S
O552 C567 1.255 . S
O553 Eu515 2.372 . S
O553 C567 1.257 . S
O554 Eu515 2.462 . S
O554 C579 1.252 . S
O555 Eu515 2.373 . S
O555 C571 1.249 . S
O556 Eu504 2.335 . S
O556 C571 1.264 . S
O557 Eu515 2.432 . S
O557 C579 1.268 . S
O558 Eu515 2.291 . S
O558 C578 1.255 . S
O559 Eu504 2.372 . S
O559 C578 1.257 . S
C560 O549 1.249 . S
C560 O550 1.264 . S
C561 C564 1.382 . S
C561 C566 1.390 . S
C561 C568 1.506 . S
C562 C563 1.398 . S
C562 C566 1.392 . S
C563 C562 1.398 . S
C563 C565 1.372 . S
C563 H580 0.931 . S
C564 C561 1.382 . S
C564 C565 1.390 . S
C564 H581 0.931 . S
C565 C563 1.372 . S
C565 C564 1.390 . S
C565 H582 0.929 . S
C566 C561 1.390 . S
C566 C562 1.392 . S
C566 H583 0.930 . S
C567 O552 1.255 . S
C567 O553 1.257 . S
C568 Eu504 2.787 . S
C568 O548 1.252 . S
C568 O551 1.268 . S
C568 C561 1.506 . S
C569 C536 1.439 . S
C569 H546 0.931 . S
C569 C570 1.374 . S
C570 C541 1.387 . S
C570 H547 0.931 . S
C570 C569 1.374 . S
C571 O555 1.249 . S
C571 O556 1.264 . S
C572 C575 1.382 . S
C572 C576 1.391 . S
C572 C579 1.505 1_655 S
C573 C574 1.398 . S
C573 C576 1.392 . S
C574 C573 1.398 . S
C574 C577 1.372 . S
C574 H584 0.931 . S
C575 C572 1.382 . S
C575 C577 1.390 . S
C575 H585 0.923 1_655 S
C576 C572 1.391 . S
C576 C573 1.392 . S
C576 H586 0.930 . S
C577 C574 1.372 . S
C577 C575 1.390 . S
C577 H587 0.929 . S
C578 O558 1.255 . S
C578 O559 1.257 . S
C579 Eu515 2.787 . S
C579 O554 1.252 . S
C579 O557 1.268 . S
C579 C572 1.505 1_455 S
H580 C563 0.931 . S
H581 C564 0.931 . S
H582 C565 0.929 . S
H583 C566 0.930 . S
H584 C574 0.931 . S
H585 C575 0.923 1_455 S
H586 C576 0.930 . S
H587 C577 0.929 . S
Eu588 N617 2.600 . S
Eu588 N623 2.562 . S
Eu588 O632 2.462 . S
Eu588 O633 2.373 . S
Eu588 O635 2.432 . S
Eu588 O636 2.291 . S
Eu588 O640 2.335 . S
Eu588 O643 2.372 . S
Eu588 C652 2.787 . S
C589 N590 1.365 . S
C589 C592 1.405 . S
C589 C596 1.448 . S
N590 C589 1.365 . S
N590 C593 1.319 . S
N590 Eu599 2.600 . S
C591 C593 1.397 . S
C591 C594 1.367 . S
C591 H611 0.931 1_556 S
C592 C589 1.405 . S
C592 C594 1.403 . S
C592 C598 1.439 . S
C593 N590 1.319 . S
C593 C591 1.397 . S
C593 H604 0.930 . S
C594 C591 1.367 . S
C594 C592 1.403 . S
C594 H615 0.929 . S
C595 C596 1.430 . S
C595 C597 1.387 1_455 S
C595 C601 1.404 . S
C596 C589 1.448 . S
C596 C595 1.430 . S
C596 N600 1.351 . S
C597 C595 1.387 1_655 S
C597 C598 1.374 1_655 S
C597 H612 0.931 . S
C598 C592 1.439 . S
C598 C597 1.374 1_455 S
C598 H613 0.931 1_455 S
Eu599 N590 2.600 . S
Eu599 N600 2.562 . S
Eu599 O634 2.335 . S
Eu599 O637 2.372 . S
Eu599 O638 2.462 . S
Eu599 O639 2.373 . S
Eu599 O641 2.432 . S
Eu599 O642 2.291 . S
Eu599 C663 2.787 . S
N600 C596 1.351 . S
N600 Eu599 2.562 . S
N600 C602 1.325 . S
C601 C595 1.404 . S
C601 C603 1.366 . S
C601 H609 0.930 1_455 S
C602 N600 1.325 . S
C602 C603 1.416 . S
C602 H608 0.929 . S
C603 C601 1.366 . S
C603 C602 1.416 . S
C603 H605 0.930 . S
H604 C593 0.930 . S
H605 C603 0.930 . S
H606 C621 0.930 . S
H607 C628 0.930 . S
H608 C602 0.929 . S
H609 C601 0.930 1_655 S
H610 C624 0.929 . S
H611 C591 0.931 1_554 S
H612 C597 0.931 . S
H613 C598 0.931 1_655 S
H614 C619 0.931 . S
H615 C594 0.929 . S
H616 C627 0.930 . S
N617 Eu588 2.600 . S
N617 C618 1.365 . S
N617 C621 1.319 . S
C618 N617 1.365 . S
C618 C620 1.405 . S
C618 C626 1.448 . S
C619 H614 0.931 . S
C619 C621 1.397 . S
C619 C622 1.367 . S
C620 C618 1.405 . S
C620 C622 1.403 . S
C620 C653 1.439 . S
C621 H606 0.930 . S
C621 N617 1.319 . S
C621 C619 1.397 . S
C622 C619 1.367 . S
C622 C620 1.403 . S
C622 H629 0.929 . S
N623 Eu588 2.562 . S
N623 C624 1.325 . S
N623 C626 1.351 . S
C624 H610 0.929 . S
C624 N623 1.325 . S
C624 C628 1.416 . S
C625 C626 1.430 . S
C625 C627 1.404 1_565 S
C625 C654 1.387 1_565 S
C626 C618 1.448 . S
C626 N623 1.351 . S
C626 C625 1.430 . S
C627 H616 0.930 . S
C627 C625 1.404 1_545 S
C627 C628 1.366 1_545 S
C628 H607 0.930 . S
C628 C624 1.416 . S
C628 C627 1.366 1_565 S
H629 C622 0.929 . S
H630 C653 0.930 . S
H631 C654 0.931 . S
O632 Eu588 2.462 . S
O632 C652 1.252 . S
O633 Eu588 2.373 . S
O633 C644 1.249 . S
O634 Eu599 2.335 . S
O634 C644 1.264 . S
O635 Eu588 2.432 . S
O635 C652 1.268 . S
O636 Eu588 2.291 . S
O636 C651 1.255 . S
O637 Eu599 2.372 . S
O637 C651 1.257 . S
O638 Eu599 2.462 . S
O638 C663 1.252 . S
O639 Eu599 2.373 . S
O639 C655 1.249 . S
O640 Eu588 2.335 . S
O640 C655 1.264 . S
O641 Eu599 2.432 . S
O641 C663 1.268 . S
O642 Eu599 2.291 . S
O642 C662 1.255 . S
O643 Eu588 2.372 . S
O643 C662 1.257 . S
C644 O633 1.249 . S
C644 O634 1.264 . S
C645 C648 1.383 . S
C645 C650 1.392 . S
C645 C652 1.503 1_545 S
C646 C647 1.398 . S
C646 C650 1.392 . S
C647 C646 1.398 . S
C647 C649 1.372 . S
C647 H664 0.931 . S
C648 C645 1.383 . S
C648 C649 1.390 . S
C648 H665 0.916 1_545 S
C649 C647 1.372 . S
C649 C648 1.390 . S
C649 H666 0.929 . S
C650 C645 1.392 . S
C650 C646 1.392 . S
C650 H667 0.930 . S
C651 O636 1.255 . S
C651 O637 1.257 . S
C652 Eu588 2.787 . S
C652 O632 1.252 . S
C652 O635 1.268 . S
C652 C645 1.503 1_565 S
C653 C620 1.439 . S
C653 H630 0.930 . S
C653 C654 1.374 1_565 S
C654 C625 1.387 1_545 S
C654 H631 0.931 . S
C654 C653 1.374 1_545 S
C655 O639 1.249 . S
C655 O640 1.264 . S
C656 C659 1.382 . S
C656 C660 1.390 . S
C656 C663 1.506 . S
C657 C658 1.398 . S
C657 C660 1.392 . S
C658 C657 1.398 . S
C658 C661 1.372 . S
C658 H668 0.931 . S
C659 C656 1.382 . S
C659 C661 1.390 . S
C659 H669 0.931 . S
C660 C656 1.390 . S
C660 C657 1.392 . S
C660 H670 0.930 . S
C661 C658 1.372 . S
C661 C659 1.390 . S
C661 H671 0.929 . S
C662 O642 1.255 . S
C662 O643 1.257 . S
C663 Eu599 2.787 . S
C663 O638 1.252 . S
C663 O641 1.268 . S
C663 C656 1.506 . S
H664 C647 0.931 . S
H665 C648 0.916 1_565 S
H666 C649 0.929 . S
H667 C650 0.930 . S
H668 C658 0.931 . S
H669 C659 0.931 . S
H670 C660 0.930 . S
H671 C661 0.929 . S
Eu672 N701 2.600 . S
Eu672 N707 2.562 . S
Eu672 O716 2.462 . S
Eu672 O717 2.373 . S
Eu672 O719 2.432 . S
Eu672 O720 2.291 . S
Eu672 O724 2.335 . S
Eu672 O727 2.372 . S
Eu672 C736 2.787 . S
C673 N674 1.365 . S
C673 C676 1.405 . S
C673 C680 1.448 . S
N674 C673 1.365 . S
N674 C677 1.319 . S
N674 Eu683 2.600 . S
C675 C677 1.397 . S
C675 C678 1.367 . S
C675 H695 0.931 . S
C676 C673 1.405 . S
C676 C678 1.403 . S
C676 C682 1.439 . S
C677 N674 1.319 . S
C677 C675 1.397 . S
C677 H688 0.930 . S
C678 C675 1.367 . S
C678 C676 1.403 . S
C678 H699 0.929 . S
C679 C680 1.430 . S
C679 C681 1.387 . S
C679 C685 1.404 . S
C680 C673 1.448 . S
C680 C679 1.430 . S
C680 N684 1.351 . S
C681 C679 1.387 . S
C681 C682 1.374 . S
C681 H696 0.931 . S
C682 C676 1.439 . S
C682 C681 1.374 . S
C682 H697 0.931 . S
Eu683 N674 2.600 . S
Eu683 N684 2.562 . S
Eu683 O718 2.335 . S
Eu683 O721 2.372 . S
Eu683 O722 2.462 . S
Eu683 O723 2.373 . S
Eu683 O725 2.432 . S
Eu683 O726 2.291 . S
Eu683 C747 2.787 . S
N684 C680 1.351 . S
N684 Eu683 2.562 . S
N684 C686 1.325 . S
C685 C679 1.404 . S
C685 C687 1.366 . S
C685 H693 0.930 . S
C686 N684 1.325 . S
C686 C687 1.416 . S
C686 H692 0.929 . S
C687 C685 1.366 . S
C687 C686 1.416 . S
C687 H689 0.930 . S
H688 C677 0.930 . S
H689 C687 0.930 . S
H690 C705 0.930 . S
H691 C712 0.930 . S
H692 C686 0.929 . S
H693 C685 0.930 . S
H694 C708 0.929 . S
H695 C675 0.931 . S
H696 C681 0.931 . S
H697 C682 0.931 . S
H698 C703 0.931 . S
H699 C678 0.929 . S
H700 C711 0.930 1_545 S
N701 Eu672 2.600 . S
N701 C702 1.365 . S
N701 C705 1.319 . S
C702 N701 1.365 . S
C702 C704 1.405 . S
C702 C710 1.448 . S
C703 H698 0.931 . S
C703 C705 1.397 . S
C703 C706 1.367 . S
C704 C702 1.405 . S
C704 C706 1.403 . S
C704 C737 1.439 . S
C705 H690 0.930 . S
C705 N701 1.319 . S
C705 C703 1.397 . S
C706 C703 1.367 . S
C706 C704 1.403 . S
C706 H713 0.929 . S
N707 Eu672 2.562 . S
N707 C708 1.325 . S
N707 C710 1.351 . S
C708 H694 0.929 . S
C708 N707 1.325 . S
C708 C712 1.416 . S
C709 C710 1.430 . S
C709 C711 1.404 . S
C709 C738 1.387 1_565 S
C710 C702 1.448 . S
C710 N707 1.351 . S
C710 C709 1.430 . S
C711 H700 0.930 1_565 S
C711 C709 1.404 . S
C711 C712 1.366 . S
C712 H691 0.930 . S
C712 C708 1.416 . S
C712 C711 1.366 . S
H713 C706 0.929 . S
H714 C737 0.931 1_545 S
H715 C738 0.931 . S
O716 Eu672 2.462 . S
O716 C736 1.252 . S
O717 Eu672 2.373 . S
O717 C728 1.249 . S
O718 Eu683 2.335 . S
O718 C728 1.264 . S
O719 Eu672 2.432 . S
O719 C736 1.268 . S
O720 Eu672 2.291 . S
O720 C735 1.255 . S
O721 Eu683 2.372 . S
O721 C735 1.257 . S
O722 Eu683 2.462 . S
O722 C747 1.252 . S
O723 Eu683 2.373 . S
O723 C739 1.249 . S
O724 Eu672 2.335 . S
O724 C739 1.264 . S
O725 Eu683 2.432 . S
O725 C747 1.268 . S
O726 Eu683 2.291 . S
O726 C746 1.255 . S
O727 Eu672 2.372 . S
O727 C746 1.257 . S
C728 O717 1.249 . S
C728 O718 1.264 . S
C729 C732 1.382 . S
C729 C734 1.390 . S
C729 C736 1.506 . S
C730 C731 1.398 . S
C730 C734 1.392 . S
C731 C730 1.398 . S
C731 C733 1.372 . S
C731 H748 0.931 . S
C732 C729 1.382 . S
C732 C733 1.390 . S
C732 H749 0.931 . S
C733 C731 1.372 . S
C733 C732 1.390 . S
C733 H750 0.929 . S
C734 C729 1.390 . S
C734 C730 1.392 . S
C734 H751 0.930 . S
C735 O720 1.255 . S
C735 O721 1.257 . S
C736 Eu672 2.787 . S
C736 O716 1.252 . S
C736 O719 1.268 . S
C736 C729 1.506 . S
C737 C704 1.439 . S
C737 H714 0.931 1_565 S
C737 C738 1.374 1_565 S
C738 C709 1.387 1_545 S
C738 H715 0.931 . S
C738 C737 1.374 1_545 S
C739 O723 1.249 . S
C739 O724 1.264 . S
C740 C743 1.382 . S
C740 C744 1.390 . S
C740 C747 1.506 . S
C741 C742 1.398 . S
C741 C744 1.392 . S
C742 C741 1.398 . S
C742 C745 1.372 . S
C742 H752 0.931 . S
C743 C740 1.382 . S
C743 C745 1.390 . S
C743 H753 0.931 . S
C744 C740 1.390 . S
C744 C741 1.392 . S
C744 H754 0.930 . S
C745 C742 1.372 . S
C745 C743 1.390 . S
C745 H755 0.929 . S
C746 O726 1.255 . S
C746 O727 1.257 . S
C747 Eu683 2.787 . S
C747 O722 1.252 . S
C747 O725 1.268 . S
C747 C740 1.506 . S
H748 C731 0.931 . S
H749 C732 0.931 . S
H750 C733 0.929 . S
H751 C734 0.930 . S
H752 C742 0.931 . S
H753 C743 0.931 . S
H754 C744 0.930 . S
H755 C745 0.929 . S
Eu756 N785 2.600 . S
Eu756 N791 2.562 . S
Eu756 O800 2.462 . S
Eu756 O801 2.373 . S
Eu756 O803 2.432 . S
Eu756 O804 2.291 . S
Eu756 O808 2.335 . S
Eu756 O811 2.372 . S
Eu756 C820 2.787 . S
C757 N758 1.365 . S
C757 C760 1.405 . S
C757 C764 1.448 . S
N758 C757 1.365 . S
N758 C761 1.319 . S
N758 Eu767 2.600 . S
C759 C761 1.397 . S
C759 C762 1.367 . S
C759 H779 0.931 1_556 S
C760 C757 1.405 . S
C760 C762 1.403 . S
C760 C766 1.439 . S
C761 N758 1.319 . S
C761 C759 1.397 . S
C761 H772 0.930 . S
C762 C759 1.367 . S
C762 C760 1.403 . S
C762 H783 0.929 . S
C763 C764 1.430 . S
C763 C765 1.387 . S
C763 C769 1.404 . S
C764 C757 1.448 . S
C764 C763 1.430 . S
C764 N768 1.351 . S
C765 C763 1.387 . S
C765 C766 1.374 . S
C765 H780 0.931 . S
C766 C760 1.439 . S
C766 C765 1.374 . S
C766 H781 0.931 . S
Eu767 N758 2.600 . S
Eu767 N768 2.562 . S
Eu767 O802 2.335 . S
Eu767 O805 2.372 . S
Eu767 O806 2.462 . S
Eu767 O807 2.373 . S
Eu767 O809 2.432 . S
Eu767 O810 2.291 . S
Eu767 C831 2.787 . S
N768 C764 1.351 . S
N768 Eu767 2.562 . S
N768 C770 1.325 . S
C769 C763 1.404 . S
C769 C771 1.366 . S
C769 H777 0.930 . S
C770 N768 1.325 . S
C770 C771 1.416 . S
C770 H776 0.929 . S
C771 C769 1.366 . S
C771 C770 1.416 . S
C771 H773 0.930 . S
H772 C761 0.930 . S
H773 C771 0.930 . S
H774 C789 0.930 . S
H775 C796 0.930 . S
H776 C770 0.929 . S
H777 C769 0.930 . S
H778 C792 0.929 . S
H779 C759 0.931 1_554 S
H780 C765 0.931 . S
H781 C766 0.931 . S
H782 C787 0.931 . S
H783 C762 0.929 . S
H784 C795 0.930 . S
N785 Eu756 2.600 . S
N785 C786 1.365 . S
N785 C789 1.319 . S
C786 N785 1.365 . S
C786 C788 1.405 . S
C786 C794 1.448 . S
C787 H782 0.931 . S
C787 C789 1.397 . S
C787 C790 1.367 . S
C788 C786 1.405 . S
C788 C790 1.403 . S
C788 C821 1.439 . S
C789 H774 0.930 . S
C789 N785 1.319 . S
C789 C787 1.397 . S
C790 C787 1.367 . S
C790 C788 1.403 . S
C790 H797 0.929 . S
N791 Eu756 2.562 . S
N791 C792 1.325 . S
N791 C794 1.351 . S
C792 H778 0.929 . S
C792 N791 1.325 . S
C792 C796 1.416 . S
C793 C794 1.430 . S
C793 C795 1.404 1_455 S
C793 C822 1.387 1_455 S
C794 C786 1.448 . S
C794 N791 1.351 . S
C794 C793 1.430 . S
C795 H784 0.930 . S
C795 C793 1.404 1_655 S
C795 C796 1.366 1_655 S
C796 H775 0.930 . S
C796 C792 1.416 . S
C796 C795 1.366 1_455 S
H797 C790 0.929 . S
H798 C821 0.948 . S
H799 C822 0.931 . S
O800 Eu756 2.462 . S
O800 C820 1.252 . S
O801 Eu756 2.373 . S
O801 C812 1.249 . S
O802 Eu767 2.335 . S
O802 C812 1.264 . S
O803 Eu756 2.432 . S
O803 C820 1.268 . S
O804 Eu756 2.291 . S
O804 C819 1.255 . S
O805 Eu767 2.372 . S
O805 C819 1.257 . S
O806 Eu767 2.462 . S
O806 C831 1.252 . S
O807 Eu767 2.373 . S
O807 C823 1.249 . S
O808 Eu756 2.335 . S
O808 C823 1.264 . S
O809 Eu767 2.432 . S
O809 C831 1.268 . S
O810 Eu767 2.291 . S
O810 C830 1.255 . S
O811 Eu756 2.372 . S
O811 C830 1.257 . S
C812 O801 1.249 . S
C812 O802 1.264 . S
C813 C816 1.382 . S
C813 C818 1.391 . S
C813 C820 1.505 1_655 S
C814 C815 1.398 . S
C814 C818 1.392 . S
C815 C814 1.398 . S
C815 C817 1.372 . S
C815 H832 0.931 . S
C816 C813 1.382 . S
C816 C817 1.390 . S
C816 H833 0.923 1_655 S
C817 C815 1.372 . S
C817 C816 1.390 . S
C817 H834 0.929 . S
C818 C813 1.391 . S
C818 C814 1.392 . S
C818 H835 0.930 . S
C819 O804 1.255 . S
C819 O805 1.257 . S
C820 Eu756 2.787 . S
C820 O800 1.252 . S
C820 O803 1.268 . S
C820 C813 1.505 1_455 S
C821 C788 1.439 . S
C821 H798 0.948 . S
C821 C822 1.374 1_455 S
C822 C793 1.387 1_655 S
C822 H799 0.931 . S
C822 C821 1.374 1_655 S
C823 O807 1.249 . S
C823 O808 1.264 . S
C824 C827 1.382 . S
C824 C828 1.390 . S
C824 C831 1.506 . S
C825 C826 1.398 . S
C825 C828 1.392 . S
C826 C825 1.398 . S
C826 C829 1.372 . S
C826 H836 0.931 . S
C827 C824 1.382 . S
C827 C829 1.390 . S
C827 H837 0.931 . S
C828 C824 1.390 . S
C828 C825 1.392 . S
C828 H838 0.930 . S
C829 C826 1.372 . S
C829 C827 1.390 . S
C829 H839 0.929 . S
C830 O810 1.255 . S
C830 O811 1.257 . S
C831 Eu767 2.787 . S
C831 O806 1.252 . S
C831 O809 1.268 . S
C831 C824 1.506 . S
H832 C815 0.931 . S
H833 C816 0.923 1_455 S
H834 C817 0.929 . S
H835 C818 0.930 . S
H836 C826 0.931 . S
H837 C827 0.931 . S
H838 C828 0.930 . S
H839 C829 0.929 . S
Eu840 N869 2.600 . S
Eu840 N875 2.562 . S
Eu840 O884 2.462 . S
Eu840 O885 2.373 . S
Eu840 O887 2.432 . S
Eu840 O888 2.291 . S
Eu840 O892 2.335 . S
Eu840 O895 2.372 . S
Eu840 C904 2.787 . S
C841 N842 1.365 . S
C841 C844 1.405 . S
C841 C848 1.448 . S
N842 C841 1.365 . S
N842 C845 1.319 . S
N842 Eu851 2.600 . S
C843 C845 1.397 . S
C843 C846 1.367 . S
C843 H863 0.931 . S
C844 C841 1.405 . S
C844 C846 1.403 . S
C844 C850 1.439 . S
C845 N842 1.319 . S
C845 C843 1.397 . S
C845 H856 0.930 . S
C846 C843 1.367 . S
C846 C844 1.403 . S
C846 H867 0.929 . S
C847 C848 1.430 . S
C847 C849 1.387 1_565 S
C847 C853 1.404 1_565 S
C848 C841 1.448 . S
C848 C847 1.430 . S
C848 N852 1.351 . S
C849 C847 1.387 1_545 S
C849 C850 1.374 1_545 S
C849 H864 0.931 . S
C850 C844 1.439 . S
C850 C849 1.374 1_565 S
C850 H865 0.930 . S
Eu851 N842 2.600 . S
Eu851 N852 2.562 . S
Eu851 O886 2.335 . S
Eu851 O889 2.372 . S
Eu851 O890 2.462 . S
Eu851 O891 2.373 . S
Eu851 O893 2.432 . S
Eu851 O894 2.291 . S
Eu851 C915 2.787 . S
N852 C848 1.351 . S
N852 Eu851 2.562 . S
N852 C854 1.325 . S
C853 C847 1.404 1_545 S
C853 C855 1.366 1_545 S
C853 H861 0.930 . S
C854 N852 1.325 . S
C854 C855 1.416 . S
C854 H860 0.929 . S
C855 C853 1.366 1_565 S
C855 C854 1.416 . S
C855 H857 0.930 . S
H856 C845 0.930 . S
H857 C855 0.930 . S
H858 C873 0.930 . S
H859 C880 0.930 . S
H860 C854 0.929 . S
H861 C853 0.930 . S
H862 C876 0.929 . S
H863 C843 0.931 . S
H864 C849 0.931 . S
H865 C850 0.930 . S
H866 C871 0.931 . S
H867 C846 0.929 . S
H868 C879 0.930 1_655 S
N869 Eu840 2.600 . S
N869 C870 1.365 . S
N869 C873 1.319 . S
C870 N869 1.365 . S
C870 C872 1.405 . S
C870 C878 1.448 . S
C871 H866 0.931 . S
C871 C873 1.397 . S
C871 C874 1.367 . S
C872 C870 1.405 . S
C872 C874 1.403 . S
C872 C905 1.439 . S
C873 H858 0.930 . S
C873 N869 1.319 . S
C873 C871 1.397 . S
C874 C871 1.367 . S
C874 C872 1.403 . S
C874 H881 0.929 . S
N875 Eu840 2.562 . S
N875 C876 1.325 . S
N875 C878 1.351 . S
C876 H862 0.929 . S
C876 N875 1.325 . S
C876 C880 1.416 . S
C877 C878 1.430 . S
C877 C879 1.404 . S
C877 C906 1.387 1_455 S
C878 C870 1.448 . S
C878 N875 1.351 . S
C878 C877 1.430 . S
C879 H868 0.930 1_455 S
C879 C877 1.404 . S
C879 C880 1.366 . S
C880 H859 0.930 . S
C880 C876 1.416 . S
C880 C879 1.366 . S
H881 C874 0.929 . S
H882 C905 0.931 1_655 S
H883 C906 0.931 . S
O884 Eu840 2.462 . S
O884 C904 1.252 . S
O885 Eu840 2.373 . S
O885 C896 1.249 . S
O886 Eu851 2.335 . S
O886 C896 1.264 . S
O887 Eu840 2.432 . S
O887 C904 1.268 . S
O888 Eu840 2.291 . S
O888 C903 1.255 . S
O889 Eu851 2.372 . S
O889 C903 1.257 . S
O890 Eu851 2.462 . S
O890 C915 1.252 . S
O891 Eu851 2.373 . S
O891 C907 1.249 . S
O892 Eu840 2.335 . S
O892 C907 1.264 . S
O893 Eu851 2.432 . S
O893 C915 1.268 . S
O894 Eu851 2.291 . S
O894 C914 1.255 . S
O895 Eu840 2.372 . S
O895 C914 1.257 . S
C896 O885 1.249 . S
C896 O886 1.264 . S
C897 C900 1.382 . S
C897 C902 1.390 . S
C897 C904 1.506 . S
C898 C899 1.398 . S
C898 C902 1.392 . S
C899 C898 1.398 . S
C899 C901 1.372 . S
C899 H916 0.931 . S
C900 C897 1.382 . S
C900 C901 1.390 . S
C900 H917 0.931 . S
C901 C899 1.372 . S
C901 C900 1.390 . S
C901 H918 0.929 . S
C902 C897 1.390 . S
C902 C898 1.392 . S
C902 H919 0.930 . S
C903 O888 1.255 . S
C903 O889 1.257 . S
C904 Eu840 2.787 . S
C904 O884 1.252 . S
C904 O887 1.268 . S
C904 C897 1.506 . S
C905 C872 1.439 . S
C905 H882 0.931 1_455 S
C905 C906 1.374 1_455 S
C906 C877 1.387 1_655 S
C906 H883 0.931 . S
C906 C905 1.374 1_655 S
C907 O891 1.249 . S
C907 O892 1.264 . S
C908 C911 1.383 . S
C908 C912 1.392 . S
C908 C915 1.503 1_545 S
C909 C910 1.398 . S
C909 C912 1.392 . S
C910 C909 1.398 . S
C910 C913 1.372 . S
C910 H920 0.931 . S
C911 C908 1.383 . S
C911 C913 1.390 . S
C911 H921 0.916 1_545 S
C912 C908 1.392 . S
C912 C909 1.392 . S
C912 H922 0.930 . S
C913 C910 1.372 . S
C913 C911 1.390 . S
C913 H923 0.929 . S
C914 O894 1.255 . S
C914 O895 1.257 . S
C915 Eu851 2.787 . S
C915 O890 1.252 . S
C915 O893 1.268 . S
C915 C908 1.503 1_565 S
H916 C899 0.931 . S
H917 C900 0.931 . S
H918 C901 0.929 . S
H919 C902 0.930 . S
H920 C910 0.931 . S
H921 C911 0.916 1_565 S
H922 C912 0.930 . S
H923 C913 0.929 . S
Eu924 N953 2.600 . S
Eu924 N959 2.562 . S
Eu924 O968 2.462 . S
Eu924 O969 2.373 . S
Eu924 O971 2.432 . S
Eu924 O972 2.291 . S
Eu924 O976 2.335 . S
Eu924 O979 2.372 . S
Eu924 C988 2.787 . S
C925 N926 1.365 . S
C925 C928 1.405 . S
C925 C932 1.448 . S
N926 C925 1.365 . S
N926 C929 1.319 . S
N926 Eu935 2.600 . S
C927 C929 1.397 . S
C927 C930 1.367 . S
C927 H947 0.931 1_556 S
C928 C925 1.405 . S
C928 C930 1.403 . S
C928 C934 1.439 . S
C929 N926 1.319 . S
C929 C927 1.397 . S
C929 H940 0.930 . S
C930 C927 1.367 . S
C930 C928 1.403 . S
C930 H951 0.929 . S
C931 C932 1.430 . S
C931 C933 1.387 1_565 S
C931 C937 1.404 . S
C932 C925 1.448 . S
C932 C931 1.430 . S
C932 N936 1.351 . S
C933 C931 1.387 1_545 S
C933 C934 1.374 1_545 S
C933 H948 0.931 . S
C934 C928 1.439 . S
C934 C933 1.374 1_565 S
C934 H949 0.931 1_565 S
Eu935 N926 2.600 . S
Eu935 N936 2.562 . S
Eu935 O970 2.335 . S
Eu935 O973 2.372 . S
Eu935 O974 2.462 . S
Eu935 O975 2.373 . S
Eu935 O977 2.432 . S
Eu935 O978 2.291 . S
Eu935 C999 2.787 . S
N936 C932 1.351 . S
N936 Eu935 2.562 . S
N936 C938 1.325 . S
C937 C931 1.404 . S
C937 C939 1.366 . S
C937 H945 0.930 1_565 S
C938 N936 1.325 . S
C938 C939 1.416 . S
C938 H944 0.929 . S
C939 C937 1.366 . S
C939 C938 1.416 . S
C939 H941 0.930 . S
H940 C929 0.930 . S
H941 C939 0.930 . S
H942 C957 0.930 . S
H943 C964 0.930 . S
H944 C938 0.929 . S
H945 C937 0.930 1_545 S
H946 C960 0.929 . S
H947 C927 0.931 1_554 S
H948 C933 0.931 . S
H949 C934 0.931 1_545 S
H950 C955 0.931 . S
H951 C930 0.929 . S
H952 C963 0.930 . S
N953 Eu924 2.600 . S
N953 C954 1.365 . S
N953 C957 1.319 . S
C954 N953 1.365 . S
C954 C956 1.405 . S
C954 C962 1.448 . S
C955 H950 0.931 . S
C955 C957 1.397 . S
C955 C958 1.367 . S
C956 C954 1.405 . S
C956 C958 1.403 . S
C956 C989 1.439 . S
C957 H942 0.930 . S
C957 N953 1.319 . S
C957 C955 1.397 . S
C958 C955 1.367 . S
C958 C956 1.403 . S
C958 H965 0.929 . S
N959 Eu924 2.562 . S
N959 C960 1.325 . S
N959 C962 1.351 . S
C960 H946 0.929 . S
C960 N959 1.325 . S
C960 C964 1.416 . S
C961 C962 1.430 . S
C961 C963 1.404 . S
C961 C990 1.387 . S
C962 C954 1.448 . S
C962 N959 1.351 . S
C962 C961 1.430 . S
C963 H952 0.930 . S
C963 C961 1.404 . S
C963 C964 1.366 . S
C964 H943 0.930 . S
C964 C960 1.416 . S
C964 C963 1.366 . S
H965 C958 0.929 . S
H966 C989 0.931 . S
H967 C990 0.931 . S
O968 Eu924 2.462 . S
O968 C988 1.252 . S
O969 Eu924 2.373 . S
O969 C980 1.249 . S
O970 Eu935 2.335 . S
O970 C980 1.264 . S
O971 Eu924 2.432 . S
O971 C988 1.268 . S
O972 Eu924 2.291 . S
O972 C987 1.255 . S
O973 Eu935 2.372 . S
O973 C987 1.257 . S
O974 Eu935 2.462 . S
O974 C999 1.252 . S
O975 Eu935 2.373 . S
O975 C991 1.249 . S
O976 Eu924 2.335 . S
O976 C991 1.264 . S
O977 Eu935 2.432 . S
O977 C999 1.268 . S
O978 Eu935 2.291 . S
O978 C998 1.255 . S
O979 Eu924 2.372 . S
O979 C998 1.257 . S
C980 O969 1.249 . S
C980 O970 1.264 . S
C981 C984 1.382 . S
C981 C986 1.390 . S
C981 C988 1.506 . S
C982 C983 1.398 . S
C982 C986 1.392 . S
C983 C982 1.398 . S
C983 C985 1.372 . S
C983 H1000 0.931 . S
C984 C981 1.382 . S
C984 C985 1.390 . S
C984 H1001 0.931 . S
C985 C983 1.372 . S
C985 C984 1.390 . S
C985 H1002 0.929 . S
C986 C981 1.390 . S
C986 C982 1.392 . S
C986 H1003 0.930 . S
C987 O972 1.255 . S
C987 O973 1.257 . S
C988 Eu924 2.787 . S
C988 O968 1.252 . S
C988 O971 1.268 . S
C988 C981 1.506 . S
C989 C956 1.439 . S
C989 H966 0.931 . S
C989 C990 1.374 . S
C990 C961 1.387 . S
C990 H967 0.931 . S
C990 C989 1.374 . S
C991 O975 1.249 . S
C991 O976 1.264 . S
C992 C995 1.382 . S
C992 C996 1.390 . S
C992 C999 1.506 . S
C993 C994 1.398 . S
C993 C996 1.392 . S
C994 C993 1.398 . S
C994 C997 1.372 . S
C994 H1004 0.931 . S
C995 C992 1.382 . S
C995 C997 1.390 . S
C995 H1005 0.931 . S
C996 C992 1.390 . S
C996 C993 1.392 . S
C996 H1006 0.930 . S
C997 C994 1.372 . S
C997 C995 1.390 . S
C997 H1007 0.929 . S
C998 O978 1.255 . S
C998 O979 1.257 . S
C999 Eu935 2.787 . S
C999 O974 1.252 . S
C999 O977 1.268 . S
C999 C992 1.506 . S
H1000 C983 0.931 . S
H1001 C984 0.931 . S
H1002 C985 0.929 . S
H1003 C986 0.930 . S
H1004 C994 0.931 . S
H1005 C995 0.931 . S
H1006 C996 0.930 . S
H1007 C997 0.929 . S
H1008 C1016 0.950 . S
H1009 C1021 0.950 . S
H1010 C1018 0.950 . S
H1011 C1020 0.950 . S
H1012 C1022 0.950 . S
H1013 C1024 0.950 . S
H1014 C1026 0.950 . S
H1015 C1027 0.950 . S
C1016 H1008 0.950 . S
C1016 C1017 1.386 . S
C1016 C1018 1.391 . S
C1017 C1016 1.386 . S
C1017 C1021 1.393 . S
C1018 H1010 0.950 . S
C1018 C1016 1.391 . S
C1018 C1019 1.400 . S
C1019 C1018 1.400 . S
C1019 C1020 1.398 . S
C1019 C1025 1.491 . S
C1020 H1011 0.950 . S
C1020 C1019 1.398 . S
C1020 C1021 1.391 . S
C1021 H1009 0.950 . S
C1021 C1017 1.393 . S
C1021 C1020 1.391 . S
C1022 H1012 0.950 . S
C1022 C1023 1.386 . S
C1022 C1024 1.391 . S
C1023 C1022 1.386 . S
C1023 C1027 1.393 . S
C1024 H1013 0.950 . S
C1024 C1022 1.391 . S
C1024 C1025 1.400 . S
C1025 C1019 1.491 . S
C1025 C1024 1.400 . S
C1025 C1026 1.398 . S
C1026 H1014 0.950 . S
C1026 C1025 1.398 . S
C1026 C1027 1.391 . S
C1027 H1015 0.950 . S
C1027 C1023 1.393 . S
C1027 C1026 1.391 . S
H1028 C1036 0.950 . S
H1029 C1041 0.950 . S
H1030 C1038 0.950 . S
H1031 C1040 0.950 . S
H1032 C1042 0.950 . S
H1033 C1044 0.950 . S
H1034 C1046 0.950 1_455 S
H1035 C1047 0.950 . S
C1036 H1028 0.950 . S
C1036 C1037 1.386 . S
C1036 C1038 1.391 . S
C1037 C1036 1.386 . S
C1037 C1041 1.393 . S
C1038 H1030 0.950 . S
C1038 C1036 1.391 . S
C1038 C1039 1.400 . S
C1039 C1038 1.400 . S
C1039 C1040 1.398 . S
C1039 C1045 1.491 1_455 S
C1040 H1031 0.950 . S
C1040 C1039 1.398 . S
C1040 C1041 1.391 . S
C1041 H1029 0.950 . S
C1041 C1037 1.393 . S
C1041 C1040 1.391 . S
C1042 H1032 0.950 . S
C1042 C1043 1.386 . S
C1042 C1044 1.391 . S
C1043 C1042 1.386 . S
C1043 C1047 1.393 . S
C1044 H1033 0.950 . S
C1044 C1042 1.391 . S
C1044 C1045 1.400 . S
C1045 C1039 1.491 1_655 S
C1045 C1044 1.400 . S
C1045 C1046 1.398 . S
C1046 H1034 0.950 1_655 S
C1046 C1045 1.398 . S
C1046 C1047 1.391 . S
C1047 H1035 0.950 . S
C1047 C1043 1.393 . S
C1047 C1046 1.391 . S
H1048 C1056 0.950 . S
H1049 C1061 0.950 . S
H1050 C1058 0.961 . S
H1051 C1060 0.950 . S
H1052 C1062 0.950 . S
H1053 C1064 0.950 . S
H1054 C1066 0.950 . S
H1055 C1067 0.950 . S
C1056 H1048 0.950 . S
C1056 C1057 1.386 . S
C1056 C1058 1.391 . S
C1057 C1056 1.386 . S
C1057 C1061 1.393 . S
C1058 H1050 0.961 . S
C1058 C1056 1.391 . S
C1058 C1059 1.400 . S
C1059 C1058 1.400 . S
C1059 C1060 1.398 . S
C1059 C1065 1.491 1_545 S
C1060 H1051 0.950 . S
C1060 C1059 1.398 . S
C1060 C1061 1.391 . S
C1061 H1049 0.950 . S
C1061 C1057 1.393 . S
C1061 C1060 1.391 . S
C1062 H1052 0.950 . S
C1062 C1063 1.386 . S
C1062 C1064 1.391 . S
C1063 C1062 1.386 . S
C1063 C1067 1.393 . S
C1064 H1053 0.950 . S
C1064 C1062 1.391 . S
C1064 C1065 1.400 . S
C1065 C1059 1.491 1_565 S
C1065 C1064 1.400 . S
C1065 C1066 1.398 . S
C1066 H1054 0.950 . S
C1066 C1065 1.398 . S
C1066 C1067 1.391 . S
C1067 H1055 0.950 . S
C1067 C1063 1.393 . S
C1067 C1066 1.391 . S
H1068 C1076 0.950 . S
H1069 C1081 0.950 . S
H1070 C1078 0.950 . S
H1071 C1080 0.950 . S
H1072 C1082 0.950 . S
H1073 C1084 0.950 . S
H1074 C1086 0.950 . S
H1075 C1087 0.950 . S
C1076 H1068 0.950 . S
C1076 C1077 1.386 . S
C1076 C1078 1.391 . S
C1077 C1076 1.386 . S
C1077 C1081 1.393 . S
C1078 H1070 0.950 . S
C1078 C1076 1.391 . S
C1078 C1079 1.400 . S
C1079 C1078 1.400 . S
C1079 C1080 1.398 . S
C1079 C1085 1.491 . S
C1080 H1071 0.950 . S
C1080 C1079 1.398 . S
C1080 C1081 1.391 . S
C1081 H1069 0.950 . S
C1081 C1077 1.393 . S
C1081 C1080 1.391 . S
C1082 H1072 0.950 . S
C1082 C1083 1.386 . S
C1082 C1084 1.391 . S
C1083 C1082 1.386 . S
C1083 C1087 1.393 . S
C1084 H1073 0.950 . S
C1084 C1082 1.391 . S
C1084 C1085 1.400 . S
C1085 C1079 1.491 . S
C1085 C1084 1.400 . S
C1085 C1086 1.398 . S
C1086 H1074 0.950 . S
C1086 C1085 1.398 . S
C1086 C1087 1.391 . S
C1087 H1075 0.950 . S
C1087 C1083 1.393 . S
C1087 C1086 1.391 . S
H1088 C1096 0.950 . S
H1089 C1101 0.950 . S
H1090 C1098 0.950 . S
H1091 C1100 0.950 . S
H1092 C1102 0.950 . S
H1093 C1104 0.950 . S
H1094 C1106 0.950 . S
H1095 C1107 0.950 . S
C1096 H1088 0.950 . S
C1096 C1097 1.386 . S
C1096 C1098 1.391 . S
C1097 C1096 1.386 . S
C1097 C1101 1.393 . S
C1098 H1090 0.950 . S
C1098 C1096 1.391 . S
C1098 C1099 1.400 . S
C1099 C1098 1.400 . S
C1099 C1100 1.398 . S
C1099 C1105 1.491 1_455 S
C1100 H1091 0.950 . S
C1100 C1099 1.398 . S
C1100 C1101 1.391 . S
C1101 H1089 0.950 . S
C1101 C1097 1.393 . S
C1101 C1100 1.391 . S
C1102 H1092 0.950 . S
C1102 C1103 1.386 . S
C1102 C1104 1.391 . S
C1103 C1102 1.386 . S
C1103 C1107 1.393 . S
C1104 H1093 0.950 . S
C1104 C1102 1.391 . S
C1104 C1105 1.400 . S
C1105 C1099 1.491 1_655 S
C1105 C1104 1.400 . S
C1105 C1106 1.398 . S
C1106 H1094 0.950 . S
C1106 C1105 1.398 . S
C1106 C1107 1.391 . S
C1107 H1095 0.950 . S
C1107 C1103 1.393 . S
C1107 C1106 1.391 . S
H1108 C1116 0.950 . S
H1109 C1121 0.950 . S
H1110 C1118 0.950 . S
H1111 C1120 0.950 . S
H1112 C1122 0.950 . S
H1113 C1124 0.950 1_565 S
H1114 C1126 0.950 . S
H1115 C1127 0.950 . S
C1116 H1108 0.950 . S
C1116 C1117 1.386 . S
C1116 C1118 1.391 . S
C1117 C1116 1.386 . S
C1117 C1121 1.393 . S
C1118 H1110 0.950 . S
C1118 C1116 1.391 . S
C1118 C1119 1.400 . S
C1119 C1118 1.400 . S
C1119 C1120 1.398 . S
C1119 C1125 1.491 1_565 S
C1120 H1111 0.950 . S
C1120 C1119 1.398 . S
C1120 C1121 1.391 . S
C1121 H1109 0.950 . S
C1121 C1117 1.393 . S
C1121 C1120 1.391 . S
C1122 H1112 0.950 . S
C1122 C1123 1.386 . S
C1122 C1124 1.391 . S
C1123 C1122 1.386 . S
C1123 C1127 1.393 . S
C1124 H1113 0.950 1_545 S
C1124 C1122 1.391 . S
C1124 C1125 1.400 . S
C1125 C1119 1.491 1_545 S
C1125 C1124 1.400 . S
C1125 C1126 1.398 . S
C1126 H1114 0.950 . S
C1126 C1125 1.398 . S
C1126 C1127 1.391 . S
C1127 H1115 0.950 . S
C1127 C1123 1.393 . S
C1127 C1126 1.391 . S
H1128 C1136 0.950 . S
H1129 C1141 0.950 . S
H1130 C1138 0.950 . S
H1131 C1140 0.950 . S
H1132 C1142 0.950 . S
H1133 C1144 0.950 . S
H1134 C1146 0.950 . S
H1135 C1147 0.950 . S
C1136 H1128 0.950 . S
C1136 C1137 1.386 . S
C1136 C1138 1.391 . S
C1137 C1136 1.386 . S
C1137 C1141 1.393 . S
C1138 H1130 0.950 . S
C1138 C1136 1.391 . S
C1138 C1139 1.400 . S
C1139 C1138 1.400 . S
C1139 C1140 1.398 . S
C1139 C1145 1.491 . S
C1140 H1131 0.950 . S
C1140 C1139 1.398 . S
C1140 C1141 1.391 . S
C1141 H1129 0.950 . S
C1141 C1137 1.393 . S
C1141 C1140 1.391 . S
C1142 H1132 0.950 . S
C1142 C1143 1.386 . S
C1142 C1144 1.391 . S
C1143 C1142 1.386 . S
C1143 C1147 1.393 . S
C1144 H1133 0.950 . S
C1144 C1142 1.391 . S
C1144 C1145 1.400 . S
C1145 C1139 1.491 . S
C1145 C1144 1.400 . S
C1145 C1146 1.398 . S
C1146 H1134 0.950 . S
C1146 C1145 1.398 . S
C1146 C1147 1.391 . S
C1147 H1135 0.950 . S
C1147 C1143 1.393 . S
C1147 C1146 1.391 . S
H1148 C1156 0.950 . S
H1149 C1161 0.950 . S
H1150 C1158 0.950 1_655 S
H1151 C1160 0.950 . S
H1152 C1162 0.950 . S
H1153 C1164 0.950 . S
H1154 C1166 0.950 . S
H1155 C1167 0.950 . S
C1156 H1148 0.950 . S
C1156 C1157 1.386 . S
C1156 C1158 1.391 . S
C1157 C1156 1.386 . S
C1157 C1161 1.393 . S
C1158 H1150 0.950 1_455 S
C1158 C1156 1.391 . S
C1158 C1159 1.400 . S
C1159 C1158 1.400 . S
C1159 C1160 1.398 . S
C1159 C1165 1.491 1_455 S
C1160 H1151 0.950 . S
C1160 C1159 1.398 . S
C1160 C1161 1.391 . S
C1161 H1149 0.950 . S
C1161 C1157 1.393 . S
C1161 C1160 1.391 . S
C1162 H1152 0.950 . S
C1162 C1163 1.386 . S
C1162 C1164 1.391 . S
C1163 C1162 1.386 . S
C1163 C1167 1.393 . S
C1164 H1153 0.950 . S
C1164 C1162 1.391 . S
C1164 C1165 1.400 . S
C1165 C1159 1.491 1_655 S
C1165 C1164 1.400 . S
C1165 C1166 1.398 . S
C1166 H1154 0.950 . S
C1166 C1165 1.398 . S
C1166 C1167 1.391 . S
C1167 H1155 0.950 . S
C1167 C1163 1.393 . S
C1167 C1166 1.391 . S
H1168 C1176 0.950 . S
H1169 C1181 0.950 . S
H1170 C1178 0.950 . S
H1171 C1180 0.950 1_545 S
H1172 C1182 0.950 . S
H1173 C1184 0.950 . S
H1174 C1186 0.950 . S
H1175 C1187 0.950 . S
C1176 H1168 0.950 . S
C1176 C1177 1.386 . S
C1176 C1178 1.391 . S
C1177 C1176 1.386 . S
C1177 C1181 1.393 . S
C1178 H1170 0.950 . S
C1178 C1176 1.391 . S
C1178 C1179 1.400 . S
C1179 C1178 1.400 . S
C1179 C1180 1.398 . S
C1179 C1185 1.491 1_565 S
C1180 H1171 0.950 1_565 S
C1180 C1179 1.398 . S
C1180 C1181 1.391 . S
C1181 H1169 0.950 . S
C1181 C1177 1.393 . S
C1181 C1180 1.391 . S
C1182 H1172 0.950 . S
C1182 C1183 1.386 . S
C1182 C1184 1.391 . S
C1183 C1182 1.386 . S
C1183 C1187 1.393 . S
C1184 H1173 0.950 . S
C1184 C1182 1.391 . S
C1184 C1185 1.400 . S
C1185 C1179 1.491 1_545 S
C1185 C1184 1.400 . S
C1185 C1186 1.398 . S
C1186 H1174 0.950 . S
C1186 C1185 1.398 . S
C1186 C1187 1.391 . S
C1187 H1175 0.950 . S
C1187 C1183 1.393 . S
C1187 C1186 1.391 . S
H1188 C1196 0.950 . S
H1189 C1201 0.950 . S
H1190 C1198 0.950 . S
H1191 C1200 0.950 . S
H1192 C1202 0.950 . S
H1193 C1204 0.950 . S
H1194 C1206 0.950 . S
H1195 C1207 0.950 . S
C1196 H1188 0.950 . S
C1196 C1197 1.386 . S
C1196 C1198 1.391 . S
C1197 C1196 1.386 . S
C1197 C1201 1.393 . S
C1198 H1190 0.950 . S
C1198 C1196 1.391 . S
C1198 C1199 1.400 . S
C1199 C1198 1.400 . S
C1199 C1200 1.398 . S
C1199 C1205 1.491 . S
C1200 H1191 0.950 . S
C1200 C1199 1.398 . S
C1200 C1201 1.391 . S
C1201 H1189 0.950 . S
C1201 C1197 1.393 . S
C1201 C1200 1.391 . S
C1202 H1192 0.950 . S
C1202 C1203 1.386 . S
C1202 C1204 1.391 . S
C1203 C1202 1.386 . S
C1203 C1207 1.393 . S
C1204 H1193 0.950 . S
C1204 C1202 1.391 . S
C1204 C1205 1.400 . S
C1205 C1199 1.491 . S
C1205 C1204 1.400 . S
C1205 C1206 1.398 . S
C1206 H1194 0.950 . S
C1206 C1205 1.398 . S
C1206 C1207 1.391 . S
C1207 H1195 0.950 . S
C1207 C1203 1.393 . S
C1207 C1206 1.391 . S
H1208 C1216 0.950 . S
H1209 C1221 0.950 . S
H1210 C1218 0.948 1_655 S
H1211 C1220 0.950 . S
H1212 C1222 0.950 . S
H1213 C1224 0.950 . S
H1214 C1226 0.950 . S
H1215 C1227 0.950 . S
C1216 H1208 0.950 . S
C1216 C1217 1.386 . S
C1216 C1218 1.391 . S
C1217 C1216 1.386 . S
C1217 C1221 1.393 . S
C1218 H1210 0.948 1_455 S
C1218 C1216 1.391 . S
C1218 C1219 1.400 . S
C1219 C1218 1.400 . S
C1219 C1220 1.398 . S
C1219 C1225 1.491 1_455 S
C1220 H1211 0.950 . S
C1220 C1219 1.398 . S
C1220 C1221 1.391 . S
C1221 H1209 0.950 . S
C1221 C1217 1.393 . S
C1221 C1220 1.391 . S
C1222 H1212 0.950 . S
C1222 C1223 1.386 . S
C1222 C1224 1.391 . S
C1223 C1222 1.386 . S
C1223 C1227 1.393 . S
C1224 H1213 0.950 . S
C1224 C1222 1.391 . S
C1224 C1225 1.400 . S
C1225 C1219 1.491 1_655 S
C1225 C1224 1.400 . S
C1225 C1226 1.398 . S
C1226 H1214 0.950 . S
C1226 C1225 1.398 . S
C1226 C1227 1.391 . S
C1227 H1215 0.950 . S
C1227 C1223 1.393 . S
C1227 C1226 1.391 . S
H1228 C1236 0.950 . S
H1229 C1241 0.950 . S
H1230 C1238 0.950 . S
H1231 C1240 0.950 . S
H1232 C1242 0.950 . S
H1233 C1244 0.950 . S
H1234 C1246 0.950 1_545 S
H1235 C1247 0.950 . S
C1236 H1228 0.950 . S
C1236 C1237 1.386 . S
C1236 C1238 1.391 . S
C1237 C1236 1.386 . S
C1237 C1241 1.393 . S
C1238 H1230 0.950 . S
C1238 C1236 1.391 . S
C1238 C1239 1.400 . S
C1239 C1238 1.400 . S
C1239 C1240 1.398 . S
C1239 C1245 1.491 1_545 S
C1240 H1231 0.950 . S
C1240 C1239 1.398 . S
C1240 C1241 1.391 . S
C1241 H1229 0.950 . S
C1241 C1237 1.393 . S
C1241 C1240 1.391 . S
C1242 H1232 0.950 . S
C1242 C1243 1.386 . S
C1242 C1244 1.391 . S
C1243 C1242 1.386 . S
C1243 C1247 1.393 . S
C1244 H1233 0.950 . S
C1244 C1242 1.391 . S
C1244 C1245 1.400 . S
C1245 C1239 1.491 1_565 S
C1245 C1244 1.400 . S
C1245 C1246 1.398 . S
C1246 H1234 0.950 1_565 S
C1246 C1245 1.398 . S
C1246 C1247 1.391 . S
C1247 H1235 0.950 . S
C1247 C1243 1.393 . S
C1247 C1246 1.391 . S
H1248 C1256 0.950 . S
H1249 C1261 0.950 . S
H1250 C1258 0.950 . S
H1251 C1260 0.950 . S
H1252 C1262 0.950 . S
H1253 C1264 0.950 . S
H1254 C1266 0.950 . S
H1255 C1267 0.950 . S
C1256 H1248 0.950 . S
C1256 C1257 1.386 . S
C1256 C1258 1.391 . S
C1257 C1256 1.386 . S
C1257 C1261 1.393 . S
C1258 H1250 0.950 . S
C1258 C1256 1.391 . S
C1258 C1259 1.400 . S
C1259 C1258 1.400 . S
C1259 C1260 1.398 . S
C1259 C1265 1.491 . S
C1260 H1251 0.950 . S
C1260 C1259 1.398 . S
C1260 C1261 1.391 . S
C1261 H1249 0.950 . S
C1261 C1257 1.393 . S
C1261 C1260 1.391 . S
C1262 H1252 0.950 . S
C1262 C1263 1.386 . S
C1262 C1264 1.391 . S
C1263 C1262 1.386 . S
C1263 C1267 1.393 . S
C1264 H1253 0.950 . S
C1264 C1262 1.391 . S
C1264 C1265 1.400 . S
C1265 C1259 1.491 . S
C1265 C1264 1.400 . S
C1265 C1266 1.398 . S
C1266 H1254 0.950 . S
C1266 C1265 1.398 . S
C1266 C1267 1.391 . S
C1267 H1255 0.950 . S
C1267 C1263 1.393 . S
C1267 C1266 1.391 . S
H1268 C1276 0.950 . S
H1269 C1281 0.950 . S
H1270 C1278 0.950 . S
H1271 C1280 0.950 . S
H1272 C1282 0.950 . S
H1273 C1284 0.950 . S
H1274 C1286 0.950 . S
H1275 C1287 0.950 . S
C1276 H1268 0.950 . S
C1276 C1277 1.386 . S
C1276 C1278 1.391 . S
C1277 C1276 1.386 . S
C1277 C1281 1.393 . S
C1278 H1270 0.950 . S
C1278 C1276 1.391 . S
C1278 C1279 1.400 . S
C1279 C1278 1.400 . S
C1279 C1280 1.398 . S
C1279 C1285 1.491 . S
C1280 H1271 0.950 . S
C1280 C1279 1.398 . S
C1280 C1281 1.391 . S
C1281 H1269 0.950 . S
C1281 C1277 1.393 . S
C1281 C1280 1.391 . S
C1282 H1272 0.950 . S
C1282 C1283 1.386 . S
C1282 C1284 1.391 . S
C1283 C1282 1.386 . S
C1283 C1287 1.393 . S
C1284 H1273 0.950 . S
C1284 C1282 1.391 . S
C1284 C1285 1.400 . S
C1285 C1279 1.491 . S
C1285 C1284 1.400 . S
C1285 C1286 1.398 . S
C1286 H1274 0.950 . S
C1286 C1285 1.398 . S
C1286 C1287 1.391 . S
C1287 H1275 0.950 . S
C1287 C1283 1.393 . S
C1287 C1286 1.391 . S
H1288 C1296 0.950 . S
H1289 C1301 0.950 . S
H1290 C1298 0.950 . S
H1291 C1300 0.950 . S
H1292 C1302 0.950 . S
H1293 C1304 0.950 . S
H1294 C1306 0.950 . S
H1295 C1307 0.950 . S
C1296 H1288 0.950 . S
C1296 C1297 1.386 . S
C1296 C1298 1.391 . S
C1297 C1296 1.386 . S
C1297 C1301 1.393 . S
C1298 H1290 0.950 . S
C1298 C1296 1.391 . S
C1298 C1299 1.400 . S
C1299 C1298 1.400 . S
C1299 C1300 1.398 . S
C1299 C1305 1.491 . S
C1300 H1291 0.950 . S
C1300 C1299 1.398 . S
C1300 C1301 1.391 . S
C1301 H1289 0.950 . S
C1301 C1297 1.393 . S
C1301 C1300 1.391 . S
C1302 H1292 0.950 . S
C1302 C1303 1.386 . S
C1302 C1304 1.391 . S
C1303 C1302 1.386 . S
C1303 C1307 1.393 . S
C1304 H1293 0.950 . S
C1304 C1302 1.391 . S
C1304 C1305 1.400 . S
C1305 C1299 1.491 . S
C1305 C1304 1.400 . S
C1305 C1306 1.398 . S
C1306 H1294 0.950 . S
C1306 C1305 1.398 . S
C1306 C1307 1.391 . S
C1307 H1295 0.950 . S
C1307 C1303 1.393 . S
C1307 C1306 1.391 . S
H1308 C1316 0.950 . S
H1309 C1321 0.950 . S
H1310 C1318 0.950 . S
H1311 C1320 0.950 . S
H1312 C1322 0.950 . S
H1313 C1324 0.950 . S
H1314 C1326 0.950 . S
H1315 C1327 0.950 . S
C1316 H1308 0.950 . S
C1316 C1317 1.386 . S
C1316 C1318 1.391 . S
C1317 C1316 1.386 . S
C1317 C1321 1.393 . S
C1318 H1310 0.950 . S
C1318 C1316 1.391 . S
C1318 C1319 1.400 . S
C1319 C1318 1.400 . S
C1319 C1320 1.398 . S
C1319 C1325 1.491 . S
C1320 H1311 0.950 . S
C1320 C1319 1.398 . S
C1320 C1321 1.391 . S
C1321 H1309 0.950 . S
C1321 C1317 1.393 . S
C1321 C1320 1.391 . S
C1322 H1312 0.950 . S
C1322 C1323 1.386 . S
C1322 C1324 1.391 . S
C1323 C1322 1.386 . S
C1323 C1327 1.393 . S
C1324 H1313 0.950 . S
C1324 C1322 1.391 . S
C1324 C1325 1.400 . S
C1325 C1319 1.491 . S
C1325 C1324 1.400 . S
C1325 C1326 1.398 . S
C1326 H1314 0.950 . S
C1326 C1325 1.398 . S
C1326 C1327 1.391 . S
C1327 H1315 0.950 . S
C1327 C1323 1.393 . S
C1327 C1326 1.391 . S
H1328 C1336 0.950 . S
H1329 C1341 0.950 . S
H1330 C1338 0.950 . S
H1331 C1340 0.950 . S
H1332 C1342 0.950 . S
H1333 C1344 0.950 . S
H1334 C1346 0.950 . S
H1335 C1347 0.950 . S
C1336 H1328 0.950 . S
C1336 C1337 1.386 . S
C1336 C1338 1.391 . S
C1337 C1336 1.386 . S
C1337 C1341 1.393 . S
C1338 H1330 0.950 . S
C1338 C1336 1.391 . S
C1338 C1339 1.400 . S
C1339 C1338 1.400 . S
C1339 C1340 1.398 . S
C1339 C1345 1.491 . S
C1340 H1331 0.950 . S
C1340 C1339 1.398 . S
C1340 C1341 1.391 . S
C1341 H1329 0.950 . S
C1341 C1337 1.393 . S
C1341 C1340 1.391 . S
C1342 H1332 0.950 . S
C1342 C1343 1.386 . S
C1342 C1344 1.391 . S
C1343 C1342 1.386 . S
C1343 C1347 1.393 . S
C1344 H1333 0.950 . S
C1344 C1342 1.391 . S
C1344 C1345 1.400 . S
C1345 C1339 1.491 . S
C1345 C1344 1.400 . S
C1345 C1346 1.398 . S
C1346 H1334 0.950 . S
C1346 C1345 1.398 . S
C1346 C1347 1.391 . S
C1347 H1335 0.950 . S
C1347 C1343 1.393 . S
C1347 C1346 1.391 . S
H1348 C1356 0.950 . S
H1349 C1361 0.950 . S
H1350 C1358 0.950 . S
H1351 C1360 0.950 . S
H1352 C1362 0.950 . S
H1353 C1364 0.950 . S
H1354 C1366 0.950 . S
H1355 C1367 0.950 . S
C1356 H1348 0.950 . S
C1356 C1357 1.386 . S
C1356 C1358 1.391 . S
C1357 C1356 1.386 . S
C1357 C1361 1.393 . S
C1358 H1350 0.950 . S
C1358 C1356 1.391 . S
C1358 C1359 1.400 . S
C1359 C1358 1.400 . S
C1359 C1360 1.398 . S
C1359 C1365 1.491 . S
C1360 H1351 0.950 . S
C1360 C1359 1.398 . S
C1360 C1361 1.391 . S
C1361 H1349 0.950 . S
C1361 C1357 1.393 . S
C1361 C1360 1.391 . S
C1362 H1352 0.950 . S
C1362 C1363 1.386 . S
C1362 C1364 1.391 . S
C1363 C1362 1.386 . S
C1363 C1367 1.393 . S
C1364 H1353 0.950 . S
C1364 C1362 1.391 . S
C1364 C1365 1.400 . S
C1365 C1359 1.491 . S
C1365 C1364 1.400 . S
C1365 C1366 1.398 . S
C1366 H1354 0.950 . S
C1366 C1365 1.398 . S
C1366 C1367 1.391 . S
C1367 H1355 0.950 . S
C1367 C1363 1.393 . S
C1367 C1366 1.391 . S
H1368 C1376 0.950 . S
H1369 C1381 0.950 . S
H1370 C1378 0.960 . S
H1371 C1380 0.950 1_554 S
H1372 C1382 0.950 . S
H1373 C1384 0.960 . S
H1374 C1386 0.950 1_556 S
H1375 C1387 0.950 . S
C1376 H1368 0.950 . S
C1376 C1377 1.386 . S
C1376 C1378 1.391 . S
C1377 C1376 1.386 . S
C1377 C1381 1.393 . S
C1378 H1370 0.960 . S
C1378 C1376 1.391 . S
C1378 C1379 1.400 . S
C1379 C1378 1.400 . S
C1379 C1380 1.398 . S
C1379 C1385 1.491 1_566 S
C1380 H1371 0.950 1_556 S
C1380 C1379 1.398 . S
C1380 C1381 1.391 . S
C1381 H1369 0.950 . S
C1381 C1377 1.393 . S
C1381 C1380 1.391 . S
C1382 H1372 0.950 . S
C1382 C1383 1.386 . S
C1382 C1384 1.391 . S
C1383 C1382 1.386 . S
C1383 C1387 1.393 . S
C1384 H1373 0.960 . S
C1384 C1382 1.391 . S
C1384 C1385 1.400 . S
C1385 C1379 1.491 1_544 S
C1385 C1384 1.400 . S
C1385 C1386 1.398 . S
C1386 H1374 0.950 1_554 S
C1386 C1385 1.398 . S
C1386 C1387 1.391 . S
C1387 H1375 0.950 . S
C1387 C1383 1.393 . S
C1387 C1386 1.391 . S
H1388 C1396 0.950 . S
H1389 C1401 0.950 . S
H1390 C1398 0.950 . S
H1391 C1400 0.950 . S
H1392 C1402 0.950 . S
H1393 C1404 0.950 . S
H1394 C1406 0.950 . S
H1395 C1407 0.950 . S
C1396 H1388 0.950 . S
C1396 C1397 1.386 . S
C1396 C1398 1.391 . S
C1397 C1396 1.386 . S
C1397 C1401 1.393 . S
C1398 H1390 0.950 . S
C1398 C1396 1.391 . S
C1398 C1399 1.400 . S
C1399 C1398 1.400 . S
C1399 C1400 1.398 . S
C1399 C1405 1.491 . S
C1400 H1391 0.950 . S
C1400 C1399 1.398 . S
C1400 C1401 1.391 . S
C1401 H1389 0.950 . S
C1401 C1397 1.393 . S
C1401 C1400 1.391 . S
C1402 H1392 0.950 . S
C1402 C1403 1.386 . S
C1402 C1404 1.391 . S
C1403 C1402 1.386 . S
C1403 C1407 1.393 . S
C1404 H1393 0.950 . S
C1404 C1402 1.391 . S
C1404 C1405 1.400 . S
C1405 C1399 1.491 . S
C1405 C1404 1.400 . S
C1405 C1406 1.398 . S
C1406 H1394 0.950 . S
C1406 C1405 1.398 . S
C1406 C1407 1.391 . S
C1407 H1395 0.950 . S
C1407 C1403 1.393 . S
C1407 C1406 1.391 . S
H1408 C1416 0.950 . S
H1409 C1421 0.950 . S
H1410 C1418 0.950 1_655 S
H1411 C1420 0.950 . S
H1412 C1422 0.950 . S
H1413 C1424 0.950 1_455 S
H1414 C1426 0.950 . S
H1415 C1427 0.950 . S
C1416 H1408 0.950 . S
C1416 C1417 1.386 . S
C1416 C1418 1.391 . S
C1417 C1416 1.386 . S
C1417 C1421 1.393 . S
C1418 H1410 0.950 1_455 S
C1418 C1416 1.391 . S
C1418 C1419 1.400 . S
C1419 C1418 1.400 . S
C1419 C1420 1.398 1_556 S
C1419 C1425 1.491 1_456 S
C1420 H1411 0.950 . S
C1420 C1419 1.398 1_554 S
C1420 C1421 1.391 1_554 S
C1421 H1409 0.950 . S
C1421 C1417 1.393 . S
C1421 C1420 1.391 1_556 S
C1422 H1412 0.950 . S
C1422 C1423 1.386 . S
C1422 C1424 1.391 . S
C1423 C1422 1.386 . S
C1423 C1427 1.393 . S
C1424 H1413 0.950 1_655 S
C1424 C1422 1.391 . S
C1424 C1425 1.400 . S
C1425 C1419 1.491 1_654 S
C1425 C1424 1.400 . S
C1425 C1426 1.398 1_554 S
C1426 H1414 0.950 . S
C1426 C1425 1.398 1_556 S
C1426 C1427 1.391 1_556 S
C1427 H1415 0.950 . S
C1427 C1423 1.393 . S
C1427 C1426 1.391 1_554 S
H1428 C1436 0.950 . S
H1429 C1441 0.950 . S
H1430 C1438 0.950 1_565 S
H1431 C1440 0.950 . S
H1432 C1442 0.950 . S
H1433 C1444 0.950 1_545 S
H1434 C1446 0.950 . S
H1435 C1447 0.950 . S
C1436 H1428 0.950 . S
C1436 C1437 1.386 . S
C1436 C1438 1.391 . S
C1437 C1436 1.386 . S
C1437 C1441 1.393 . S
C1438 H1430 0.950 1_545 S
C1438 C1436 1.391 . S
C1438 C1439 1.400 . S
C1439 C1438 1.400 . S
C1439 C1440 1.398 . S
C1439 C1445 1.491 1_545 S
C1440 H1431 0.950 . S
C1440 C1439 1.398 . S
C1440 C1441 1.391 . S
C1441 H1429 0.950 . S
C1441 C1437 1.393 . S
C1441 C1440 1.391 . S
C1442 H1432 0.950 . S
C1442 C1443 1.386 . S
C1442 C1444 1.391 . S
C1443 C1442 1.386 . S
C1443 C1447 1.393 . S
C1444 H1433 0.950 1_565 S
C1444 C1442 1.391 . S
C1444 C1445 1.400 . S
C1445 C1439 1.491 1_565 S
C1445 C1444 1.400 . S
C1445 C1446 1.398 . S
C1446 H1434 0.950 . S
C1446 C1445 1.398 . S
C1446 C1447 1.391 . S
C1447 H1435 0.950 . S
C1447 C1443 1.393 . S
C1447 C1446 1.391 . S
H1448 C1456 0.950 . S
H1449 C1461 0.950 . S
H1450 C1458 0.950 . S
H1451 C1460 0.999 . S
H1452 C1462 0.950 . S
H1453 C1464 0.950 . S
H1454 C1466 0.999 . S
H1455 C1467 0.950 . S
C1456 H1448 0.950 . S
C1456 C1457 1.386 . S
C1456 C1458 1.391 . S
C1457 C1456 1.386 . S
C1457 C1461 1.393 . S
C1458 H1450 0.950 . S
C1458 C1456 1.391 . S
C1458 C1459 1.400 . S
C1459 C1458 1.400 . S
C1459 C1460 1.381 1_554 S
C1459 C1465 1.491 1_554 S
C1460 H1451 0.999 . S
C1460 C1459 1.381 1_556 S
C1460 C1461 1.361 1_556 S
C1461 H1449 0.950 . S
C1461 C1457 1.393 . S
C1461 C1460 1.361 1_554 S
C1462 H1452 0.950 . S
C1462 C1463 1.386 . S
C1462 C1464 1.391 . S
C1463 C1462 1.386 . S
C1463 C1467 1.393 . S
C1464 H1453 0.950 . S
C1464 C1462 1.391 . S
C1464 C1465 1.400 . S
C1465 C1459 1.491 1_556 S
C1465 C1464 1.400 . S
C1465 C1466 1.381 1_556 S
C1466 H1454 0.999 . S
C1466 C1465 1.381 1_554 S
C1466 C1467 1.361 1_554 S
C1467 H1455 0.950 . S
C1467 C1463 1.393 . S
C1467 C1466 1.361 1_556 S
H1468 C1476 0.950 . S
H1469 C1481 0.950 . S
H1470 C1478 0.950 . S
H1471 C1480 0.950 1_655 S
H1472 C1482 0.950 . S
H1473 C1484 0.950 . S
H1474 C1486 0.950 1_455 S
H1475 C1487 0.950 . S
C1476 H1468 0.950 . S
C1476 C1477 1.386 . S
C1476 C1478 1.391 . S
C1477 C1476 1.386 . S
C1477 C1481 1.393 . S
C1478 H1470 0.950 . S
C1478 C1476 1.391 . S
C1478 C1479 1.400 . S
C1479 C1478 1.400 . S
C1479 C1480 1.398 . S
C1479 C1485 1.491 1_455 S
C1480 H1471 0.950 1_455 S
C1480 C1479 1.398 . S
C1480 C1481 1.391 . S
C1481 H1469 0.950 . S
C1481 C1477 1.393 . S
C1481 C1480 1.391 . S
C1482 H1472 0.950 . S
C1482 C1483 1.386 . S
C1482 C1484 1.391 . S
C1483 C1482 1.386 . S
C1483 C1487 1.393 . S
C1484 H1473 0.950 . S
C1484 C1482 1.391 . S
C1484 C1485 1.400 . S
C1485 C1479 1.491 1_655 S
C1485 C1484 1.400 . S
C1485 C1486 1.398 . S
C1486 H1474 0.950 1_655 S
C1486 C1485 1.398 . S
C1486 C1487 1.391 . S
C1487 H1475 0.950 . S
C1487 C1483 1.393 . S
C1487 C1486 1.391 . S
H1488 C1496 0.950 . S
H1489 C1501 0.950 . S
H1490 C1498 0.950 . S
H1491 C1500 0.950 . S
H1492 C1502 0.950 . S
H1493 C1504 0.950 . S
H1494 C1506 0.950 . S
H1495 C1507 0.950 . S
C1496 H1488 0.950 . S
C1496 C1497 1.386 . S
C1496 C1498 1.391 . S
C1497 C1496 1.386 . S
C1497 C1501 1.393 . S
C1498 H1490 0.950 . S
C1498 C1496 1.391 . S
C1498 C1499 1.400 . S
C1499 C1498 1.400 . S
C1499 C1500 1.398 . S
C1499 C1505 1.491 . S
C1500 H1491 0.950 . S
C1500 C1499 1.398 . S
C1500 C1501 1.391 . S
C1501 H1489 0.950 . S
C1501 C1497 1.393 . S
C1501 C1500 1.391 . S
C1502 H1492 0.950 . S
C1502 C1503 1.386 . S
C1502 C1504 1.391 . S
C1503 C1502 1.386 . S
C1503 C1507 1.393 . S
C1504 H1493 0.950 . S
C1504 C1502 1.391 . S
C1504 C1505 1.400 . S
C1505 C1499 1.491 . S
C1505 C1504 1.400 . S
C1505 C1506 1.398 . S
C1506 H1494 0.950 . S
C1506 C1505 1.398 . S
C1506 C1507 1.391 . S
C1507 H1495 0.950 . S
C1507 C1503 1.393 . S
C1507 C1506 1.391 . S
H1508 C1516 0.950 . S
H1509 C1521 0.950 . S
H1510 C1518 0.950 . S
H1511 C1520 0.950 . S
H1512 C1522 0.950 . S
H1513 C1524 0.950 . S
H1514 C1526 0.950 . S
H1515 C1527 0.950 . S
C1516 H1508 0.950 . S
C1516 C1517 1.386 . S
C1516 C1518 1.391 . S
C1517 C1516 1.386 . S
C1517 C1521 1.393 . S
C1518 H1510 0.950 . S
C1518 C1516 1.391 . S
C1518 C1519 1.400 . S
C1519 C1518 1.400 . S
C1519 C1520 1.398 . S
C1519 C1525 1.491 . S
C1520 H1511 0.950 . S
C1520 C1519 1.398 . S
C1520 C1521 1.391 . S
C1521 H1509 0.950 . S
C1521 C1517 1.393 . S
C1521 C1520 1.391 . S
C1522 H1512 0.950 . S
C1522 C1523 1.386 . S
C1522 C1524 1.391 . S
C1523 C1522 1.386 . S
C1523 C1527 1.393 . S
C1524 H1513 0.950 . S
C1524 C1522 1.391 . S
C1524 C1525 1.400 . S
C1525 C1519 1.491 . S
C1525 C1524 1.400 . S
C1525 C1526 1.398 . S
C1526 H1514 0.950 . S
C1526 C1525 1.398 . S
C1526 C1527 1.391 . S
C1527 H1515 0.950 . S
C1527 C1523 1.393 . S
C1527 C1526 1.391 . S
H1528 C1536 0.950 . S
H1529 C1541 0.950 . S
H1530 C1538 0.950 . S
H1531 C1540 0.950 . S
H1532 C1542 0.950 . S
H1533 C1544 0.950 . S
H1534 C1546 0.950 . S
H1535 C1547 0.950 . S
C1536 H1528 0.950 . S
C1536 C1537 1.386 . S
C1536 C1538 1.391 . S
C1537 C1536 1.386 . S
C1537 C1541 1.393 . S
C1538 H1530 0.950 . S
C1538 C1536 1.391 . S
C1538 C1539 1.400 . S
C1539 C1538 1.400 . S
C1539 C1540 1.398 . S
C1539 C1545 1.491 . S
C1540 H1531 0.950 . S
C1540 C1539 1.398 . S
C1540 C1541 1.391 . S
C1541 H1529 0.950 . S
C1541 C1537 1.393 . S
C1541 C1540 1.391 . S
C1542 H1532 0.950 . S
C1542 C1543 1.386 . S
C1542 C1544 1.391 . S
C1543 C1542 1.386 . S
C1543 C1547 1.393 . S
C1544 H1533 0.950 . S
C1544 C1542 1.391 . S
C1544 C1545 1.400 . S
C1545 C1539 1.491 . S
C1545 C1544 1.400 . S
C1545 C1546 1.398 . S
C1546 H1534 0.950 . S
C1546 C1545 1.398 . S
C1546 C1547 1.391 . S
C1547 H1535 0.950 . S
C1547 C1543 1.393 . S
C1547 C1546 1.391 . S
H1548 C1556 0.950 . S
H1549 C1561 0.950 . S
H1550 C1558 0.950 . S
H1551 C1560 0.950 . S
H1552 C1562 0.950 . S
H1553 C1564 0.950 . S
H1554 C1566 0.950 . S
H1555 C1567 0.950 . S
C1556 H1548 0.950 . S
C1556 C1557 1.386 . S
C1556 C1558 1.391 . S
C1557 C1556 1.386 . S
C1557 C1561 1.393 . S
C1558 H1550 0.950 . S
C1558 C1556 1.391 . S
C1558 C1559 1.400 . S
C1559 C1558 1.400 . S
C1559 C1560 1.398 . S
C1559 C1565 1.491 . S
C1560 H1551 0.950 . S
C1560 C1559 1.398 . S
C1560 C1561 1.391 . S
C1561 H1549 0.950 . S
C1561 C1557 1.393 . S
C1561 C1560 1.391 . S
C1562 H1552 0.950 . S
C1562 C1563 1.386 . S
C1562 C1564 1.391 . S
C1563 C1562 1.386 . S
C1563 C1567 1.393 . S
C1564 H1553 0.950 . S
C1564 C1562 1.391 . S
C1564 C1565 1.400 . S
C1565 C1559 1.491 . S
C1565 C1564 1.400 . S
C1565 C1566 1.398 . S
C1566 H1554 0.950 . S
C1566 C1565 1.398 . S
C1566 C1567 1.391 . S
C1567 H1555 0.950 . S
C1567 C1563 1.393 . S
C1567 C1566 1.391 . S
H1568 C1576 0.950 . S
H1569 C1581 0.950 . S
H1570 C1578 0.950 . S
H1571 C1580 0.950 . S
H1572 C1582 0.950 . S
H1573 C1584 0.950 . S
H1574 C1586 0.950 . S
H1575 C1587 0.950 . S
C1576 H1568 0.950 . S
C1576 C1577 1.386 . S
C1576 C1578 1.391 . S
C1577 C1576 1.386 . S
C1577 C1581 1.393 . S
C1578 H1570 0.950 . S
C1578 C1576 1.391 . S
C1578 C1579 1.400 . S
C1579 C1578 1.400 . S
C1579 C1580 1.398 . S
C1579 C1585 1.491 . S
C1580 H1571 0.950 . S
C1580 C1579 1.398 . S
C1580 C1581 1.391 . S
C1581 H1569 0.950 . S
C1581 C1577 1.393 . S
C1581 C1580 1.391 . S
C1582 H1572 0.950 . S
C1582 C1583 1.386 . S
C1582 C1584 1.391 . S
C1583 C1582 1.386 . S
C1583 C1587 1.393 . S
C1584 H1573 0.950 . S
C1584 C1582 1.391 . S
C1584 C1585 1.400 . S
C1585 C1579 1.491 . S
C1585 C1584 1.400 . S
C1585 C1586 1.398 . S
C1586 H1574 0.950 . S
C1586 C1585 1.398 . S
C1586 C1587 1.391 . S
C1587 H1575 0.950 . S
C1587 C1583 1.393 . S
C1587 C1586 1.391 . S
H1588 C1596 0.950 . S
H1589 C1601 0.950 . S
H1590 C1598 0.950 . S
H1591 C1600 0.950 . S
H1592 C1602 0.950 . S
H1593 C1604 0.950 . S
H1594 C1606 0.950 . S
H1595 C1607 0.950 . S
C1596 H1588 0.950 . S
C1596 C1597 1.386 . S
C1596 C1598 1.391 . S
C1597 C1596 1.386 . S
C1597 C1601 1.393 . S
C1598 H1590 0.950 . S
C1598 C1596 1.391 . S
C1598 C1599 1.400 . S
C1599 C1598 1.400 . S
C1599 C1600 1.398 . S
C1599 C1605 1.491 . S
C1600 H1591 0.950 . S
C1600 C1599 1.398 . S
C1600 C1601 1.391 . S
C1601 H1589 0.950 . S
C1601 C1597 1.393 . S
C1601 C1600 1.391 . S
C1602 H1592 0.950 . S
C1602 C1603 1.386 . S
C1602 C1604 1.391 . S
C1603 C1602 1.386 . S
C1603 C1607 1.393 . S
C1604 H1593 0.950 . S
C1604 C1602 1.391 . S
C1604 C1605 1.400 . S
C1605 C1599 1.491 . S
C1605 C1604 1.400 . S
C1605 C1606 1.398 . S
C1606 H1594 0.950 . S
C1606 C1605 1.398 . S
C1606 C1607 1.391 . S
C1607 H1595 0.950 . S
C1607 C1603 1.393 . S
C1607 C1606 1.391 . S
H1608 C1616 0.950 . S
H1609 C1621 0.950 . S
H1610 C1618 0.950 . S
H1611 C1620 0.950 . S
H1612 C1622 0.950 . S
H1613 C1624 0.950 . S
H1614 C1626 0.950 . S
H1615 C1627 0.950 . S
C1616 H1608 0.950 . S
C1616 C1617 1.386 . S
C1616 C1618 1.391 . S
C1617 C1616 1.386 . S
C1617 C1621 1.393 . S
C1618 H1610 0.950 . S
C1618 C1616 1.391 . S
C1618 C1619 1.400 . S
C1619 C1618 1.400 . S
C1619 C1620 1.398 . S
C1619 C1625 1.491 . S
C1620 H1611 0.950 . S
C1620 C1619 1.398 . S
C1620 C1621 1.391 . S
C1621 H1609 0.950 . S
C1621 C1617 1.393 . S
C1621 C1620 1.391 . S
C1622 H1612 0.950 . S
C1622 C1623 1.386 . S
C1622 C1624 1.391 . S
C1623 C1622 1.386 . S
C1623 C1627 1.393 . S
C1624 H1613 0.950 . S
C1624 C1622 1.391 . S
C1624 C1625 1.400 . S
C1625 C1619 1.491 . S
C1625 C1624 1.400 . S
C1625 C1626 1.398 . S
C1626 H1614 0.950 . S
C1626 C1625 1.398 . S
C1626 C1627 1.391 . S
C1627 H1615 0.950 . S
C1627 C1623 1.393 . S
C1627 C1626 1.391 . S
H1628 C1636 0.950 . S
H1629 C1641 0.950 . S
H1630 C1638 0.950 . S
H1631 C1640 0.950 . S
H1632 C1642 0.950 . S
H1633 C1644 0.950 . S
H1634 C1646 0.950 . S
H1635 C1647 0.950 . S
C1636 H1628 0.950 . S
C1636 C1637 1.386 . S
C1636 C1638 1.391 . S
C1637 C1636 1.386 . S
C1637 C1641 1.393 . S
C1638 H1630 0.950 . S
C1638 C1636 1.391 . S
C1638 C1639 1.400 . S
C1639 C1638 1.400 . S
C1639 C1640 1.398 . S
C1639 C1645 1.491 . S
C1640 H1631 0.950 . S
C1640 C1639 1.398 . S
C1640 C1641 1.391 . S
C1641 H1629 0.950 . S
C1641 C1637 1.393 . S
C1641 C1640 1.391 . S
C1642 H1632 0.950 . S
C1642 C1643 1.386 . S
C1642 C1644 1.391 . S
C1643 C1642 1.386 . S
C1643 C1647 1.393 . S
C1644 H1633 0.950 . S
C1644 C1642 1.391 . S
C1644 C1645 1.400 . S
C1645 C1639 1.491 . S
C1645 C1644 1.400 . S
C1645 C1646 1.398 . S
C1646 H1634 0.950 . S
C1646 C1645 1.398 . S
C1646 C1647 1.391 . S
C1647 H1635 0.950 . S
C1647 C1643 1.393 . S
C1647 C1646 1.391 . S
H1648 C1656 0.950 . S
H1649 C1661 0.950 . S
H1650 C1658 0.950 . S
H1651 C1660 0.950 . S
H1652 C1662 0.950 . S
H1653 C1664 0.950 . S
H1654 C1666 0.950 . S
H1655 C1667 0.950 . S
C1656 H1648 0.950 . S
C1656 C1657 1.386 . S
C1656 C1658 1.391 . S
C1657 C1656 1.386 . S
C1657 C1661 1.393 . S
C1658 H1650 0.950 . S
C1658 C1656 1.391 . S
C1658 C1659 1.400 . S
C1659 C1658 1.400 . S
C1659 C1660 1.398 . S
C1659 C1665 1.491 . S
C1660 H1651 0.950 . S
C1660 C1659 1.398 . S
C1660 C1661 1.391 . S
C1661 H1649 0.950 . S
C1661 C1657 1.393 . S
C1661 C1660 1.391 . S
C1662 H1652 0.950 . S
C1662 C1663 1.386 . S
C1662 C1664 1.391 . S
C1663 C1662 1.386 . S
C1663 C1667 1.393 . S
C1664 H1653 0.950 . S
C1664 C1662 1.391 . S
C1664 C1665 1.400 . S
C1665 C1659 1.491 . S
C1665 C1664 1.400 . S
C1665 C1666 1.398 . S
C1666 H1654 0.950 . S
C1666 C1665 1.398 . S
C1666 C1667 1.391 . S
C1667 H1655 0.950 . S
C1667 C1663 1.393 . S
C1667 C1666 1.391 . S
H1668 C1676 0.950 . S
H1669 C1681 0.950 . S
H1670 C1678 0.950 . S
H1671 C1680 0.950 . S
H1672 C1682 0.950 . S
H1673 C1684 0.950 . S
H1674 C1686 0.950 . S
H1675 C1687 0.950 . S
C1676 H1668 0.950 . S
C1676 C1677 1.386 . S
C1676 C1678 1.391 . S
C1677 C1676 1.386 . S
C1677 C1681 1.393 . S
C1678 H1670 0.950 . S
C1678 C1676 1.391 . S
C1678 C1679 1.400 . S
C1679 C1678 1.400 . S
C1679 C1680 1.398 . S
C1679 C1685 1.491 . S
C1680 H1671 0.950 . S
C1680 C1679 1.398 . S
C1680 C1681 1.391 . S
C1681 H1669 0.950 . S
C1681 C1677 1.393 . S
C1681 C1680 1.391 . S
C1682 H1672 0.950 . S
C1682 C1683 1.386 . S
C1682 C1684 1.391 . S
C1683 C1682 1.386 . S
C1683 C1687 1.393 . S
C1684 H1673 0.950 . S
C1684 C1682 1.391 . S
C1684 C1685 1.400 . S
C1685 C1679 1.491 . S
C1685 C1684 1.400 . S
C1685 C1686 1.398 . S
C1686 H1674 0.950 . S
C1686 C1685 1.398 . S
C1686 C1687 1.391 . S
C1687 H1675 0.950 . S
C1687 C1683 1.393 . S
C1687 C1686 1.391 . S
H1688 C1696 0.950 . S
H1689 C1701 0.950 . S
H1690 C1698 0.950 . S
H1691 C1700 0.950 . S
H1692 C1702 0.950 . S
H1693 C1704 0.950 . S
H1694 C1706 0.950 . S
H1695 C1707 0.950 . S
C1696 H1688 0.950 . S
C1696 C1697 1.386 . S
C1696 C1698 1.391 . S
C1697 C1696 1.386 . S
C1697 C1701 1.393 . S
C1698 H1690 0.950 . S
C1698 C1696 1.391 . S
C1698 C1699 1.400 . S
C1699 C1698 1.400 . S
C1699 C1700 1.398 . S
C1699 C1705 1.491 . S
C1700 H1691 0.950 . S
C1700 C1699 1.398 . S
C1700 C1701 1.391 . S
C1701 H1689 0.950 . S
C1701 C1697 1.393 . S
C1701 C1700 1.391 . S
C1702 H1692 0.950 . S
C1702 C1703 1.386 . S
C1702 C1704 1.391 . S
C1703 C1702 1.386 . S
C1703 C1707 1.393 . S
C1704 H1693 0.950 . S
C1704 C1702 1.391 . S
C1704 C1705 1.400 . S
C1705 C1699 1.491 . S
C1705 C1704 1.400 . S
C1705 C1706 1.398 . S
C1706 H1694 0.950 . S
C1706 C1705 1.398 . S
C1706 C1707 1.391 . S
C1707 H1695 0.950 . S
C1707 C1703 1.393 . S
C1707 C1706 1.391 . S
H1708 C1716 0.950 . S
H1709 C1721 0.950 . S
H1710 C1718 0.950 . S
H1711 C1720 0.950 . S
H1712 C1722 0.950 . S
H1713 C1724 0.950 . S
H1714 C1726 0.950 . S
H1715 C1727 0.950 . S
C1716 H1708 0.950 . S
C1716 C1717 1.386 . S
C1716 C1718 1.391 . S
C1717 C1716 1.386 . S
C1717 C1721 1.393 . S
C1718 H1710 0.950 . S
C1718 C1716 1.391 . S
C1718 C1719 1.400 . S
C1719 C1718 1.400 . S
C1719 C1720 1.398 . S
C1719 C1725 1.491 . S
C1720 H1711 0.950 . S
C1720 C1719 1.398 . S
C1720 C1721 1.391 . S
C1721 H1709 0.950 . S
C1721 C1717 1.393 . S
C1721 C1720 1.391 . S
C1722 H1712 0.950 . S
C1722 C1723 1.386 . S
C1722 C1724 1.391 . S
C1723 C1722 1.386 . S
C1723 C1727 1.393 . S
C1724 H1713 0.950 . S
C1724 C1722 1.391 . S
C1724 C1725 1.400 . S
C1725 C1719 1.491 . S
C1725 C1724 1.400 . S
C1725 C1726 1.398 . S
C1726 H1714 0.950 . S
C1726 C1725 1.398 . S
C1726 C1727 1.391 . S
C1727 H1715 0.950 . S
C1727 C1723 1.393 . S
C1727 C1726 1.391 . S
C1017 C226 1.091 . S
C1023 C67 1.257 . S
C1037 C321 1.134 . S
C1043 C140 1.266 . S
C1057 C235 1.259 . S
C1063 C394 1.102 . S
C1077 C308 1.261 . S
C1083 C489 1.114 . S
C1097 C58 1.102 . S
C1103 C403 1.259 . S
C1117 C153 1.090 . S
C1123 C476 1.256 . S
C1137 C909 1.095 . S
C1143 C560 1.258 . S
C1157 C655 1.257 . S
C1163 C982 1.092 . S
C1177 C728 1.259 . S
C1183 C573 1.102 . S
C1197 C823 1.262 . S
C1203 C646 1.112 . S
C1217 C896 1.266 . S
C1223 C741 1.135 . S
C1237 C814 1.094 . S
C1243 C991 1.257 . S
C1257 C315 1.923 . S
C1263 C74 1.935 . S
C1277 C147 1.930 . S
C1283 C410 1.929 . S
C1297 C242 1.928 . S
C1303 C483 1.930 . S
C1317 C567 1.919 . S
C1323 C830 1.939 . S
C1337 C662 1.918 . S
C1343 C903 1.940 . S
C1357 C735 1.937 . S
C1363 C998 1.921 . S
C1377 C651 2.157 . S
C1383 C63 2.151 . S
C1397 C158 2.157 . S
C1403 C746 2.150 . S
C1417 C819 2.163 . S
C1423 C231 2.154 . S
C1437 C326 2.155 . S
C1443 C914 2.163 . S
C1457 C399 2.163 . S
C1463 C987 2.155 . S
C1477 C578 2.163 . S
C1483 C494 2.155 . S
C1497 C237 1.274 . S
C1503 C56 1.421 . S
C1517 C151 1.409 . S
C1523 C310 1.253 . S
C1537 C224 1.413 . S
C1543 C405 1.237 . S
C1557 C319 1.409 . S
C1563 C478 1.231 . S
C1577 C69 1.279 . S
C1583 C392 1.419 . S
C1597 C142 1.277 . S
C1603 C487 1.421 . S
C1617 C898 1.259 . S
C1623 C571 1.419 . S
C1637 C644 1.415 . S
C1643 C993 1.244 . S
C1657 C739 1.407 . S
C1663 C562 1.231 . S
C1677 C657 1.231 . S
C1683 C812 1.409 . S
C1697 C907 1.421 . S
C1703 C730 1.278 . S
C1717 C980 1.420 . S
C1723 C825 1.262 . S
