# Generated by pormake.
# Topology ull, (4)-cn, num edge types: 1
# Building blocks:
#     Node 0, Type 0, BuildingBlock: NAHDIM_clean_sbu_0, # of connection points: 4
#     Node 1, Type 0, BuildingBlock: NAHDIM_clean_sbu_0, # of connection points: 4
#     Node 2, Type 0, BuildingBlock: NAHDIM_clean_sbu_0, # of connection points: 4
#     Node 3, Type 0, BuildingBlock: NAHDIM_clean_sbu_0, # of connection points: 4
#     Node 4, Type 0, BuildingBlock: NAHDIM_clean_sbu_0, # of connection points: 4
#     Node 5, Type 0, BuildingBlock: NAHDIM_clean_sbu_0, # of connection points: 4
#     Node 6, Type 0, BuildingBlock: NAHDIM_clean_sbu_0, # of connection points: 4
#     Node 7, Type 0, BuildingBlock: NAHDIM_clean_sbu_0, # of connection points: 4
#     Node 8, Type 0, BuildingBlock: NAHDIM_clean_sbu_0, # of connection points: 4
#     Node 9, Type 0, BuildingBlock: NAHDIM_clean_sbu_0, # of connection points: 4
#     Node 10, Type 0, BuildingBlock: NAHDIM_clean_sbu_0, # of connection points: 4
#     Node 11, Type 0, BuildingBlock: NAHDIM_clean_sbu_0, # of connection points: 4
#     Node 12, Type 0, BuildingBlock: NAHDIM_clean_sbu_0, # of connection points: 4
#     Node 13, Type 0, BuildingBlock: NAHDIM_clean_sbu_0, # of connection points: 4
#     Node 14, Type 0, BuildingBlock: NAHDIM_clean_sbu_0, # of connection points: 4
#     Node 15, Type 0, BuildingBlock: NAHDIM_clean_sbu_0, # of connection points: 4
#     Node 16, Type 0, BuildingBlock: NAHDIM_clean_sbu_0, # of connection points: 4
#     Node 17, Type 0, BuildingBlock: NAHDIM_clean_sbu_0, # of connection points: 4
#     Node 18, Type 0, BuildingBlock: NAHDIM_clean_sbu_0, # of connection points: 4
#     Node 19, Type 0, BuildingBlock: NAHDIM_clean_sbu_0, # of connection points: 4
#     Node 20, Type 0, BuildingBlock: NAHDIM_clean_sbu_0, # of connection points: 4
#     Node 21, Type 0, BuildingBlock: NAHDIM_clean_sbu_0, # of connection points: 4
#     Node 22, Type 0, BuildingBlock: NAHDIM_clean_sbu_0, # of connection points: 4
#     Node 23, Type 0, BuildingBlock: NAHDIM_clean_sbu_0, # of connection points: 4
#     Node 24, Type 0, BuildingBlock: NAHDIM_clean_sbu_0, # of connection points: 4
#     Node 25, Type 0, BuildingBlock: NAHDIM_clean_sbu_0, # of connection points: 4
#     Node 26, Type 0, BuildingBlock: NAHDIM_clean_sbu_0, # of connection points: 4
#     Node 27, Type 0, BuildingBlock: NAHDIM_clean_sbu_0, # of connection points: 4
#     Node 28, Type 0, BuildingBlock: NAHDIM_clean_sbu_0, # of connection points: 4
#     Node 29, Type 0, BuildingBlock: NAHDIM_clean_sbu_0, # of connection points: 4
#     Node 30, Type 0, BuildingBlock: NAHDIM_clean_sbu_0, # of connection points: 4
#     Node 31, Type 0, BuildingBlock: NAHDIM_clean_sbu_0, # of connection points: 4
#     Node 32, Type 0, BuildingBlock: NAHDIM_clean_sbu_0, # of connection points: 4
#     Node 33, Type 0, BuildingBlock: NAHDIM_clean_sbu_0, # of connection points: 4
#     Node 34, Type 0, BuildingBlock: NAHDIM_clean_sbu_0, # of connection points: 4
#     Node 35, Type 0, BuildingBlock: NAHDIM_clean_sbu_0, # of connection points: 4
#     Node 36, Type 0, BuildingBlock: NAHDIM_clean_sbu_0, # of connection points: 4
#     Node 37, Type 0, BuildingBlock: NAHDIM_clean_sbu_0, # of connection points: 4
#     Node 38, Type 0, BuildingBlock: NAHDIM_clean_sbu_0, # of connection points: 4
#     Node 39, Type 0, BuildingBlock: NAHDIM_clean_sbu_0, # of connection points: 4
#     Node 40, Type 0, BuildingBlock: NAHDIM_clean_sbu_0, # of connection points: 4
#     Node 41, Type 0, BuildingBlock: NAHDIM_clean_sbu_0, # of connection points: 4
#     Node 42, Type 0, BuildingBlock: NAHDIM_clean_sbu_0, # of connection points: 4
#     Node 43, Type 0, BuildingBlock: NAHDIM_clean_sbu_0, # of connection points: 4
#     Node 44, Type 0, BuildingBlock: NAHDIM_clean_sbu_0, # of connection points: 4
#     Node 45, Type 0, BuildingBlock: NAHDIM_clean_sbu_0, # of connection points: 4
#     Node 46, Type 0, BuildingBlock: NAHDIM_clean_sbu_0, # of connection points: 4
#     Node 47, Type 0, BuildingBlock: NAHDIM_clean_sbu_0, # of connection points: 4
#     Edge 48, Type (0, 0), None
#     Edge 49, Type (0, 0), None
#     Edge 50, Type (0, 0), None
#     Edge 51, Type (0, 0), None
#     Edge 52, Type (0, 0), None
#     Edge 53, Type (0, 0), None
#     Edge 54, Type (0, 0), None
#     Edge 55, Type (0, 0), None
#     Edge 56, Type (0, 0), None
#     Edge 57, Type (0, 0), None
#     Edge 58, Type (0, 0), None
#     Edge 59, Type (0, 0), None
#     Edge 60, Type (0, 0), None
#     Edge 61, Type (0, 0), None
#     Edge 62, Type (0, 0), None
#     Edge 63, Type (0, 0), None
#     Edge 64, Type (0, 0), None
#     Edge 65, Type (0, 0), None
#     Edge 66, Type (0, 0), None
#     Edge 67, Type (0, 0), None
#     Edge 68, Type (0, 0), None
#     Edge 69, Type (0, 0), None
#     Edge 70, Type (0, 0), None
#     Edge 71, Type (0, 0), None
#     Edge 72, Type (0, 0), None
#     Edge 73, Type (0, 0), None
#     Edge 74, Type (0, 0), None
#     Edge 75, Type (0, 0), None
#     Edge 76, Type (0, 0), None
#     Edge 77, Type (0, 0), None
#     Edge 78, Type (0, 0), None
#     Edge 79, Type (0, 0), None
#     Edge 80, Type (0, 0), None
#     Edge 81, Type (0, 0), None
#     Edge 82, Type (0, 0), None
#     Edge 83, Type (0, 0), None
#     Edge 84, Type (0, 0), None
#     Edge 85, Type (0, 0), None
#     Edge 86, Type (0, 0), None
#     Edge 87, Type (0, 0), None
#     Edge 88, Type (0, 0), None
#     Edge 89, Type (0, 0), None
#     Edge 90, Type (0, 0), None
#     Edge 91, Type (0, 0), None
#     Edge 92, Type (0, 0), None
#     Edge 93, Type (0, 0), None
#     Edge 94, Type (0, 0), None
#     Edge 95, Type (0, 0), None
#     Edge 96, Type (0, 0), None
#     Edge 97, Type (0, 0), None
#     Edge 98, Type (0, 0), None
#     Edge 99, Type (0, 0), None
#     Edge 100, Type (0, 0), None
#     Edge 101, Type (0, 0), None
#     Edge 102, Type (0, 0), None
#     Edge 103, Type (0, 0), None
#     Edge 104, Type (0, 0), None
#     Edge 105, Type (0, 0), None
#     Edge 106, Type (0, 0), None
#     Edge 107, Type (0, 0), None
#     Edge 108, Type (0, 0), None
#     Edge 109, Type (0, 0), None
#     Edge 110, Type (0, 0), None
#     Edge 111, Type (0, 0), None
#     Edge 112, Type (0, 0), None
#     Edge 113, Type (0, 0), None
#     Edge 114, Type (0, 0), None
#     Edge 115, Type (0, 0), None
#     Edge 116, Type (0, 0), None
#     Edge 117, Type (0, 0), None
#     Edge 118, Type (0, 0), None
#     Edge 119, Type (0, 0), None
#     Edge 120, Type (0, 0), None
#     Edge 121, Type (0, 0), None
#     Edge 122, Type (0, 0), None
#     Edge 123, Type (0, 0), None
#     Edge 124, Type (0, 0), None
#     Edge 125, Type (0, 0), None
#     Edge 126, Type (0, 0), None
#     Edge 127, Type (0, 0), None
#     Edge 128, Type (0, 0), None
#     Edge 129, Type (0, 0), None
#     Edge 130, Type (0, 0), None
#     Edge 131, Type (0, 0), None
#     Edge 132, Type (0, 0), None
#     Edge 133, Type (0, 0), None
#     Edge 134, Type (0, 0), None
#     Edge 135, Type (0, 0), None
#     Edge 136, Type (0, 0), None
#     Edge 137, Type (0, 0), None
#     Edge 138, Type (0, 0), None
#     Edge 139, Type (0, 0), None
#     Edge 140, Type (0, 0), None
#     Edge 141, Type (0, 0), None
#     Edge 142, Type (0, 0), None
#     Edge 143, Type (0, 0), None
# Relax obj value: 0.168
# Max RMSD: 0.224
# Mean RMSD: 0.215
data_MOF--net-ull--node1-NAHDIM_clean_sbu_0--edge1-none
_symmetry_space_group_name_H-M    P1
_symmetry_Int_Tables_number       1
_symmetry_cell_setting            triclinic
loop_
_symmetry_equiv_pos_as_xyz
'x, y, z'
_cell_length_a     27.289857
_cell_length_b     27.866149
_cell_length_c     28.517508
_cell_angle_alpha  89.999233
_cell_angle_beta   89.998431
_cell_angle_gamma 89.999492
loop_
_atom_site_label
_atom_site_type_symbol
_atom_site_fract_x
_atom_site_fract_y
_atom_site_fract_z
_atom_type_partial_charge
C0 C 0.07803 0.32624 0.08495 0.0
O1 O 0.06888 0.37206 0.09104 0.0
O2 O 0.02906 0.38343 0.17837 0.0
Zn3 Zn 0.00327 0.32032 0.15288 0.0
O4 O 0.94284 0.32511 0.1126 0.0
C5 C 0.95037 0.2688 0.22488 0.0
O6 O 0.91395 0.29661 0.21198 0.0
O7 O 0.05512 0.29531 0.10925 0.0
C8 C 0.92905 0.28556 0.09452 0.0
O9 O 0.95255 0.24588 0.10506 0.0
C10 C 0.02819 0.39536 0.22134 0.0
O11 O 0.00346 0.36906 0.25132 0.0
O12 O -0.00813 0.27279 0.205 0.0
C13 C 0.5651 0.04933 0.21761 0.0
O14 O 0.59742 0.03141 0.24686 0.0
O15 O 0.64229 0.07064 0.08851 0.0
Zn16 Zn 0.63691 0.02609 0.14412 0.0
O17 O 0.69296 0.03484 0.19049 0.0
C18 C 0.67559 0.93439 0.11131 0.0
O19 O 0.71805 0.95274 0.12339 0.0
O20 O 0.57288 0.0468 0.17377 0.0
C21 C 0.70449 0.00032 0.21755 0.0
O22 O 0.6796 0.96004 0.21566 0.0
C23 C 0.67206 0.06359 0.05508 0.0
O24 O 0.70405 0.02857 0.05787 0.0
O25 O 0.6363 0.95817 0.11814 0.0
C26 C 0.89693 0.65246 0.08501 0.0
O27 O 0.90608 0.60663 0.09112 0.0
O28 O 0.9459 0.59527 0.17844 0.0
Zn29 Zn 0.97168 0.65838 0.15295 0.0
O30 O 0.03213 0.65362 0.1127 0.0
C31 C 0.02452 0.7099 0.22499 0.0
O32 O 0.06095 0.68209 0.21212 0.0
O33 O 0.91984 0.68338 0.10931 0.0
C34 C 0.04595 0.69318 0.09466 0.0
O35 O 0.02245 0.73286 0.10523 0.0
C36 C 0.94674 0.58333 0.2214 0.0
O37 O 0.97147 0.60964 0.25139 0.0
O38 O 0.98304 0.70592 0.20509 0.0
C39 C 0.40975 0.92935 0.21769 0.0
O40 O 0.37741 0.94726 0.24693 0.0
O41 O 0.33265 0.90809 0.08855 0.0
Zn42 Zn 0.338 0.95264 0.14417 0.0
O43 O 0.28192 0.94389 0.19051 0.0
C44 C 0.29936 0.04436 0.11137 0.0
O45 O 0.2569 0.02601 0.12344 0.0
O46 O 0.40201 0.93191 0.17385 0.0
C47 C 0.27038 0.9784 0.21758 0.0
O48 O 0.29529 0.01867 0.21571 0.0
C49 C 0.30294 0.91519 0.05508 0.0
O50 O 0.271 0.95026 0.05783 0.0
O51 O 0.33864 0.02056 0.1182 0.0
C52 C 0.07804 0.65251 0.87141 0.0
O53 O 0.06886 0.60669 0.86533 0.0
O54 O 0.0291 0.59531 0.77798 0.0
Zn55 Zn 0.00331 0.65841 0.80347 0.0
O56 O 0.94287 0.65362 0.84374 0.0
C57 C 0.9504 0.70992 0.73146 0.0
O58 O 0.91399 0.6821 0.74435 0.0
O59 O 0.05514 0.68343 0.8471 0.0
C60 C 0.92907 0.69317 0.86182 0.0
O61 O 0.95257 0.73285 0.85127 0.0
C62 C 0.02823 0.58336 0.73502 0.0
O63 O 0.00348 0.60964 0.70504 0.0
O64 O -0.0081 0.70594 0.75134 0.0
C65 C 0.40976 0.04936 0.73869 0.0
O66 O 0.37742 0.03145 0.70945 0.0
O67 O 0.33264 0.07062 0.86784 0.0
Zn68 Zn 0.33799 0.02608 0.81221 0.0
O69 O 0.28192 0.03483 0.76587 0.0
C70 C 0.29936 0.93436 0.84502 0.0
O71 O 0.2569 0.9527 0.83295 0.0
O72 O 0.40201 0.04681 0.78253 0.0
C73 C 0.27038 0.00032 0.73881 0.0
O74 O 0.29528 0.96005 0.74067 0.0
C75 C 0.30293 0.06352 0.9013 0.0
O76 O 0.27099 0.02846 0.89855 0.0
O77 O 0.33864 0.95815 0.83818 0.0
C78 C 0.89692 0.32628 0.87135 0.0
O79 O 0.90604 0.37211 0.86522 0.0
O80 O 0.94593 0.38347 0.77793 0.0
Zn81 Zn 0.97169 0.32035 0.80342 0.0
O82 O 0.03215 0.32512 0.84367 0.0
C83 C 0.02453 0.26881 0.73139 0.0
O84 O 0.06097 0.29662 0.74426 0.0
O85 O 0.91986 0.29536 0.84707 0.0
C86 C 0.04595 0.28555 0.86173 0.0
O87 O 0.02245 0.24588 0.85116 0.0
C88 C 0.94677 0.39539 0.73496 0.0
O89 O 0.97148 0.36907 0.70498 0.0
O90 O 0.98306 0.27281 0.7513 0.0
C91 C 0.56509 0.92936 0.73873 0.0
O92 O 0.59741 0.94729 0.70947 0.0
O93 O 0.64228 0.90805 0.86782 0.0
Zn94 Zn 0.63691 0.9526 0.81221 0.0
O95 O 0.69295 0.94386 0.76583 0.0
C96 C 0.67559 0.0443 0.84502 0.0
O97 O 0.71804 0.02594 0.83293 0.0
O98 O 0.57287 0.9319 0.78256 0.0
C99 C 0.70448 0.97838 0.73877 0.0
O100 O 0.67958 0.01865 0.74067 0.0
C101 C 0.67204 0.91511 0.90126 0.0
O102 O 0.70401 0.95014 0.89847 0.0
O103 O 0.6363 0.02053 0.83819 0.0
C104 C 0.2231 0.08459 0.36723 0.0
O105 O 0.20766 0.09986 0.32625 0.0
O106 O 0.1129 0.05583 0.32462 0.0
Zn107 Zn 0.17136 0.01195 0.3305 0.0
O108 O 0.21475 0.01033 0.27288 0.0
C109 C 0.11564 0.92887 0.31815 0.0
O110 O 0.10601 0.9519 0.27904 0.0
O111 O 0.21217 0.0424 0.38053 0.0
C112 C 0.23139 0.97311 0.25256 0.0
O113 O 0.21734 0.93027 0.26614 0.0
C114 C 0.09675 0.07386 0.28688 0.0
O115 O 0.11782 0.06328 0.24679 0.0
O116 O 0.14575 0.94683 0.34726 0.0
C117 C 0.88781 0.09228 0.3306 0.0
O118 O 0.88285 0.11156 0.37231 0.0
O119 O 0.94853 0.18437 0.3846 0.0
Zn120 Zn 0.97194 0.15524 0.32347 0.0
O121 O 0.03557 0.11884 0.3271 0.0
C122 C 0.9432 0.23283 0.2617 0.0
O123 O 0.90019 0.22761 0.2817 0.0
O124 O 0.92172 0.10654 0.30339 0.0
C125 C 0.05338 0.10484 0.28814 0.0
O126 O 0.03139 0.11663 0.24884 0.0
C127 C 0.95283 0.22843 0.39522 0.0
O128 O 0.98017 0.25642 0.36898 0.0
O129 O 0.97871 0.20628 0.27405 0.0
C130 C 0.75169 0.89416 0.36724 0.0
O131 O 0.76712 0.87889 0.32626 0.0
O132 O 0.86193 0.92287 0.32465 0.0
Zn133 Zn 0.80347 0.96677 0.3305 0.0
O134 O 0.76011 0.96838 0.27286 0.0
C135 C 0.85919 0.04984 0.31811 0.0
O136 O 0.86881 0.0268 0.279 0.0
O137 O 0.76264 0.93635 0.38053 0.0
C138 C 0.74346 0.00561 0.25255 0.0
O139 O 0.75747 0.04845 0.26617 0.0
C140 C 0.87807 0.90482 0.28692 0.0
O141 O 0.85701 0.91537 0.24683 0.0
O142 O 0.8291 0.03189 0.34724 0.0
C143 C 0.08703 0.88643 0.33066 0.0
O144 O 0.09202 0.86715 0.37237 0.0
O145 O 0.0263 0.79435 0.38468 0.0
Zn146 Zn 0.00289 0.82347 0.32355 0.0
O147 O 0.93926 0.85986 0.32717 0.0
C148 C 0.03166 0.74587 0.26181 0.0
O149 O 0.07466 0.7511 0.28184 0.0
O150 O 0.05311 0.87217 0.30346 0.0
C151 C 0.92144 0.87383 0.2882 0.0
O152 O 0.94344 0.86204 0.24891 0.0
C153 C 0.02199 0.75029 0.3953 0.0
O154 O -0.00536 0.72231 0.36908 0.0
O155 O -0.00386 0.77242 0.27413 0.0
C156 C 0.22311 0.89414 0.58915 0.0
O157 O 0.20767 0.87888 0.63013 0.0
O158 O 0.1129 0.92291 0.63174 0.0
Zn159 Zn 0.17137 0.96679 0.62588 0.0
O160 O 0.21475 0.9684 0.6835 0.0
C161 C 0.11565 0.04986 0.63823 0.0
O162 O 0.10601 0.02682 0.67733 0.0
O163 O 0.21218 0.93634 0.57585 0.0
C164 C 0.23139 0.00561 0.70383 0.0
O165 O 0.21735 0.04846 0.69024 0.0
C166 C 0.09675 0.90487 0.66948 0.0
O167 O 0.1178 0.91544 0.70957 0.0
O168 O 0.14576 0.03191 0.60912 0.0
C169 C 0.08704 0.0923 0.62573 0.0
O170 O 0.09204 0.1116 0.58402 0.0
O171 O 0.0263 0.18437 0.5717 0.0
Zn172 Zn 0.00289 0.15525 0.63283 0.0
O173 O 0.93925 0.11887 0.62921 0.0
C174 C 0.03167 0.23284 0.69457 0.0
O175 O 0.07467 0.2276 0.67455 0.0
O176 O 0.0531 0.10655 0.65292 0.0
C177 C 0.92143 0.10489 0.66818 0.0
O178 O 0.94342 0.11669 0.70747 0.0
C179 C 0.02199 0.22844 0.56108 0.0
O180 O -0.00535 0.25642 0.58732 0.0
O181 O -0.00386 0.2063 0.68225 0.0
C182 C 0.75169 0.08456 0.5891 0.0
O183 O 0.76712 0.09984 0.63009 0.0
O184 O 0.86193 0.05585 0.63171 0.0
Zn185 Zn 0.80348 0.01195 0.62584 0.0
O186 O 0.7601 0.01032 0.68347 0.0
C187 C 0.8592 0.92888 0.63822 0.0
O188 O 0.8688 0.95191 0.67734 0.0
O189 O 0.76265 0.04237 0.57581 0.0
C190 C 0.74345 0.9731 0.70378 0.0
O191 O 0.75748 0.93026 0.69016 0.0
C192 C 0.87806 0.07391 0.66945 0.0
O193 O 0.85699 0.06335 0.70953 0.0
O194 O 0.82911 0.94684 0.6091 0.0
C195 C 0.88783 0.88645 0.62573 0.0
O196 O 0.88288 0.86718 0.58401 0.0
O197 O 0.94855 0.79436 0.57174 0.0
Zn198 Zn 0.97195 0.82349 0.63287 0.0
O199 O 0.03557 0.85989 0.62924 0.0
C200 C 0.94323 0.74588 0.69464 0.0
O201 O 0.90021 0.75109 0.67463 0.0
O202 O 0.92172 0.87217 0.65295 0.0
C203 C 0.05338 0.87388 0.66821 0.0
O204 O 0.03138 0.8621 0.7075 0.0
C205 C 0.95285 0.75029 0.56112 0.0
O206 O 0.98019 0.72231 0.58735 0.0
O207 O 0.97873 0.77244 0.68229 0.0
C208 C 0.41645 0.22893 0.02941 0.0
O209 O 0.38238 0.25632 0.01095 0.0
O210 O 0.33911 0.09993 0.06198 0.0
Zn211 Zn 0.34501 0.15319 0.0147 0.0
O212 O 0.2913 0.2035 0.02196 0.0
C213 C 0.30689 0.09143 0.94467 0.0
O214 O 0.27557 0.08354 -0.02127 0.0
O215 O 0.41033 0.18375 0.03003 0.0
C216 C 0.25954 0.21216 -0.0096 0.0
O217 O 0.25927 0.18684 0.95164 0.0
C218 C 0.30069 0.08919 0.08464 0.0
O219 O 0.26062 0.1146 0.07889 0.0
O220 O 0.34151 0.12149 0.95073 0.0
C221 C 0.41646 0.74979 0.92696 0.0
O222 O 0.38239 0.72239 0.94542 0.0
O223 O 0.33911 0.87878 0.8944 0.0
Zn224 Zn 0.34502 0.82552 0.94168 0.0
O225 O 0.29131 0.77522 0.93442 0.0
C226 C 0.3069 0.88729 0.01171 0.0
O227 O 0.27559 0.89518 0.97765 0.0
O228 O 0.41034 0.79497 0.92635 0.0
C229 C 0.25954 0.76656 0.96598 0.0
O230 O 0.25927 0.79189 0.00473 0.0
C231 C 0.30069 0.88953 0.87175 0.0
O232 O 0.26062 0.86411 0.8775 0.0
O233 O 0.34152 0.85722 0.00565 0.0
C234 C 0.22076 0.36264 0.89524 0.0
O235 O 0.20755 0.32095 0.87786 0.0
O236 O 0.10446 0.32276 0.91112 0.0
Zn237 Zn 0.15884 0.32508 0.95891 0.0
O238 O 0.19616 0.26253 0.96219 0.0
C239 C 0.10898 0.31125 0.04582 0.0
O240 O 0.1103 0.26602 0.03296 0.0
O241 O 0.20476 0.37525 0.93515 0.0
C242 C 0.2269 0.25376 -0.00543 0.0
O243 O 0.23291 0.28472 0.0288 0.0
C244 C 0.0862 0.28404 0.89571 0.0
O245 O 0.10206 0.2427 0.91176 0.0
O246 O 0.12927 0.34298 0.02047 0.0
C247 C 0.55854 0.22893 0.92688 0.0
O248 O 0.59262 0.25633 0.94534 0.0
O249 O 0.63587 0.09991 0.89439 0.0
Zn250 Zn 0.62998 0.15319 0.94164 0.0
O251 O 0.6837 0.20349 0.93435 0.0
C252 C 0.66812 0.09149 0.01171 0.0
O253 O 0.69947 0.08363 0.97767 0.0
O254 O 0.56466 0.18375 0.92628 0.0
C255 C 0.71542 0.21221 0.96593 0.0
O256 O 0.71562 0.18696 0.00474 0.0
C257 C 0.67429 0.08913 0.87174 0.0
O258 O 0.71437 0.11453 0.87747 0.0
O259 O 0.63347 0.12152 0.00561 0.0
C260 C 0.75429 0.61603 0.89526 0.0
O261 O 0.76751 0.65771 0.87788 0.0
O262 O 0.87055 0.65594 0.91119 0.0
Zn263 Zn 0.81616 0.6536 0.95896 0.0
O264 O 0.77881 0.71614 0.96223 0.0
C265 C 0.86599 0.66744 0.04587 0.0
O266 O 0.86468 0.71267 0.03301 0.0
O267 O 0.77025 0.60342 0.93518 0.0
C268 C 0.74807 0.72492 -0.0054 0.0
O269 O 0.74209 0.69398 0.02886 0.0
C270 C 0.88883 0.69467 0.89581 0.0
O271 O 0.87297 0.736 0.91189 0.0
O272 O 0.84571 0.6357 0.02053 0.0
C273 C 0.55851 0.74977 0.02947 0.0
O274 O 0.59259 0.72237 0.01101 0.0
O275 O 0.63587 0.87878 0.06195 0.0
Zn276 Zn 0.62996 0.8255 0.0147 0.0
O277 O 0.68368 0.7752 0.02198 0.0
C278 C 0.66809 0.88721 0.94463 0.0
O279 O 0.69943 0.89508 -0.02133 0.0
O280 O 0.56464 0.79495 0.03006 0.0
C281 C 0.71543 0.76651 -0.00959 0.0
O282 O 0.71566 0.79179 0.95162 0.0
C283 C 0.67428 0.88955 0.08459 0.0
O284 O 0.71436 0.86415 0.07885 0.0
O285 O 0.63345 0.85717 0.95072 0.0
C286 C 0.22073 0.61608 0.06113 0.0
O287 O 0.20752 0.65776 0.07852 0.0
O288 O 0.10444 0.65598 0.04525 0.0
Zn289 Zn 0.15882 0.65365 -0.00254 0.0
O290 O 0.19615 0.7162 -0.00582 0.0
C291 C 0.10899 0.66749 0.91054 0.0
O292 O 0.11032 0.71273 0.92339 0.0
O293 O 0.20474 0.60348 0.02122 0.0
C294 C 0.2269 0.72496 0.96181 0.0
O295 O 0.23291 0.694 0.92758 0.0
C296 C 0.08619 0.6947 0.06068 0.0
O297 O 0.10207 0.73604 0.04463 0.0
O298 O 0.12926 0.63576 0.9359 0.0
C299 C 0.75426 0.3627 0.0611 0.0
O300 O 0.76748 0.32101 0.07847 0.0
O301 O 0.87052 0.32279 0.04516 0.0
Zn302 Zn 0.81613 0.32514 -0.00261 0.0
O303 O 0.77878 0.26259 -0.00587 0.0
C304 C 0.86598 0.3113 0.91049 0.0
O305 O 0.8647 0.26607 0.92337 0.0
O306 O 0.77022 0.37531 0.02118 0.0
C307 C 0.74807 0.25379 0.96174 0.0
O308 O 0.74211 0.2847 0.92745 0.0
C309 C 0.88881 0.28406 0.06053 0.0
O310 O 0.87296 0.24274 0.04444 0.0
O311 O 0.84567 0.34303 0.93582 0.0
C312 C 0.57801 0.82627 0.58502 0.0
O313 O 0.5689 0.8721 0.59116 0.0
O314 O 0.52897 0.88344 0.67843 0.0
Zn315 Zn 0.5032 0.82033 0.65291 0.0
O316 O 0.44275 0.82512 0.61265 0.0
C317 C 0.45032 0.76878 0.72492 0.0
O318 O 0.4139 0.7966 0.71204 0.0
O319 O 0.55505 0.79535 0.60927 0.0
C320 C 0.42896 0.78557 0.59457 0.0
O321 O 0.45248 0.74589 0.60511 0.0
C322 C 0.52814 0.89533 0.72141 0.0
O323 O 0.50346 0.86899 0.7514 0.0
O324 O 0.49181 0.77278 0.70502 0.0
C325 C 0.06517 0.54931 0.7177 0.0
O326 O 0.09754 0.53145 0.74694 0.0
O327 O 0.14224 0.57059 0.58856 0.0
Zn328 Zn 0.1369 0.52602 0.64416 0.0
O329 O 0.19298 0.53475 0.6905 0.0
C330 C 0.17554 0.43432 0.61131 0.0
O331 O 0.21801 0.45266 0.62337 0.0
O332 O 0.07288 0.54672 0.67385 0.0
C333 C 0.20453 0.50022 0.71755 0.0
O334 O 0.17964 0.45994 0.71567 0.0
C335 C 0.17199 0.56355 0.55511 0.0
O336 O 0.20397 0.52852 0.55787 0.0
O337 O 0.13626 0.4581 0.61816 0.0
C338 C 0.39685 0.15247 0.58496 0.0
O339 O 0.406 0.10665 0.59106 0.0
O340 O 0.44585 0.0953 0.67838 0.0
Zn341 Zn 0.47163 0.1584 0.65285 0.0
O342 O 0.53205 0.15359 0.61256 0.0
C343 C 0.52458 0.20993 0.72481 0.0
O344 O 0.56098 0.18211 0.7119 0.0
O345 O 0.41977 0.1834 0.60924 0.0
C346 C 0.54582 0.19313 0.59443 0.0
O347 O 0.52229 0.2328 0.60495 0.0
C348 C 0.44669 0.0834 0.72136 0.0
O349 O 0.4714 0.10973 0.75134 0.0
O350 O 0.48307 0.20594 0.70496 0.0
C351 C 0.90983 0.42944 0.71764 0.0
O352 O 0.8775 0.44734 0.74689 0.0
O353 O 0.83268 0.40809 0.58855 0.0
Zn354 Zn 0.83804 0.45267 0.64414 0.0
O355 O 0.782 0.44394 0.69051 0.0
C356 C 0.79937 0.54435 0.61128 0.0
O357 O 0.75691 0.526 0.62337 0.0
O358 O 0.90208 0.43198 0.6738 0.0
C359 C 0.77045 0.47848 0.71756 0.0
O360 O 0.79534 0.51876 0.71565 0.0
C361 C 0.80287 0.4151 0.55514 0.0
O362 O 0.77086 0.4501 0.55793 0.0
O363 O 0.83866 0.52058 0.61813 0.0
C364 C 0.57801 0.15242 0.37132 0.0
O365 O 0.5689 0.1066 0.36519 0.0
O366 O 0.52898 0.09526 0.27791 0.0
Zn367 Zn 0.5032 0.15836 0.30343 0.0
O368 O 0.44276 0.15358 0.3437 0.0
C369 C 0.45032 0.20991 0.23143 0.0
O370 O 0.4139 0.18209 0.24431 0.0
O371 O 0.55505 0.18335 0.34706 0.0
C372 C 0.42897 0.19313 0.36178 0.0
O373 O 0.45249 0.2328 0.35124 0.0
C374 C 0.52815 0.08337 0.23493 0.0
O375 O 0.50347 0.10971 0.20494 0.0
O376 O 0.49181 0.20591 0.25132 0.0
C377 C 0.90981 0.54929 0.23872 0.0
O378 O 0.87746 0.53141 0.20946 0.0
O379 O 0.83266 0.57063 0.36781 0.0
Zn380 Zn 0.83802 0.52604 0.31222 0.0
O381 O 0.78197 0.53477 0.26585 0.0
C382 C 0.79934 0.43437 0.34508 0.0
O383 O 0.75688 0.45272 0.333 0.0
O384 O 0.90206 0.54673 0.28256 0.0
C385 C 0.77042 0.50024 0.23881 0.0
O386 O 0.79531 0.45996 0.24072 0.0
C387 C 0.80286 0.56362 0.40123 0.0
O388 O 0.77085 0.52862 0.39845 0.0
O389 O 0.83863 0.45813 0.33823 0.0
C390 C 0.39683 0.82623 0.37141 0.0
O391 O 0.40597 0.87205 0.36529 0.0
O392 O 0.44584 0.88341 0.27799 0.0
Zn393 Zn 0.47162 0.8203 0.30352 0.0
O394 O 0.53205 0.82511 0.3438 0.0
C395 C 0.52456 0.76877 0.23155 0.0
O396 O 0.56097 0.79659 0.24445 0.0
O397 O 0.41977 0.7953 0.34714 0.0
C398 C 0.54582 0.78557 0.36193 0.0
O399 O 0.52229 0.7459 0.35142 0.0
C400 C 0.44669 0.89531 0.23502 0.0
O401 O 0.47141 0.86899 0.20504 0.0
O402 O 0.48305 0.77276 0.25141 0.0
C403 C 0.06512 0.42941 0.23867 0.0
O404 O 0.09748 0.44729 0.20942 0.0
O405 O 0.14221 0.40812 0.3678 0.0
Zn406 Zn 0.13686 0.45269 0.3122 0.0
O407 O 0.19294 0.44396 0.26585 0.0
C408 C 0.1755 0.54439 0.34505 0.0
O409 O 0.21797 0.52605 0.33297 0.0
O410 O 0.07285 0.43198 0.28251 0.0
C411 C 0.20449 0.47848 0.2388 0.0
O412 O 0.17959 0.51876 0.24068 0.0
C413 C 0.17197 0.41516 0.40124 0.0
O414 O 0.20394 0.45019 0.39847 0.0
O415 O 0.13622 0.5206 0.3382 0.0
C416 C 0.72321 0.58464 0.86724 0.0
O417 O 0.70777 0.59993 0.82626 0.0
O418 O 0.61298 0.55591 0.82463 0.0
Zn419 Zn 0.67145 0.51202 0.83048 0.0
O420 O 0.71482 0.51042 0.77285 0.0
C421 C 0.61575 0.42894 0.81808 0.0
O422 O 0.60615 0.45197 0.77896 0.0
O423 O 0.71227 0.54244 0.88052 0.0
C424 C 0.73149 0.47319 0.75256 0.0
O425 O 0.71749 0.43035 0.7662 0.0
C426 C 0.59683 0.57394 0.78689 0.0
O427 O 0.61789 0.56337 0.7468 0.0
O428 O 0.64583 0.4469 0.84722 0.0
C429 C 0.38785 0.59222 0.83061 0.0
O430 O 0.38287 0.6115 0.87232 0.0
O431 O 0.44853 0.68436 0.88461 0.0
Zn432 Zn 0.47196 0.65522 0.82349 0.0
O433 O 0.53561 0.61887 0.82712 0.0
C434 C 0.44318 0.73282 0.76173 0.0
O435 O 0.40017 0.72758 0.78175 0.0
O436 O 0.42176 0.6065 0.80341 0.0
C437 C 0.55344 0.6049 0.78815 0.0
O438 O 0.53144 0.61668 0.74886 0.0
C439 C 0.45286 0.72842 0.89522 0.0
O440 O 0.48022 0.75641 0.86901 0.0
O441 O 0.4787 0.70626 0.77406 0.0
C442 C 0.25183 0.39403 0.86723 0.0
O443 O 0.26728 0.37876 0.82625 0.0
O444 O 0.36203 0.42282 0.82459 0.0
Zn445 Zn 0.30355 0.46669 0.83047 0.0
O446 O 0.26017 0.46829 0.77285 0.0
C447 C 0.35925 0.54977 0.81811 0.0
O448 O 0.36888 0.52675 0.779 0.0
O449 O 0.26275 0.43624 0.8805 0.0
C450 C 0.24352 0.50551 0.75254 0.0
O451 O 0.25754 0.54836 0.76614 0.0
C452 C 0.3782 0.40482 0.78684 0.0
O453 O 0.35714 0.41541 0.74676 0.0
O454 O 0.32916 0.53181 0.84723 0.0
C455 C 0.58714 0.38649 0.83057 0.0
O456 O 0.59208 0.36723 0.87229 0.0
O457 O 0.52647 0.29434 0.88452 0.0
Zn458 Zn 0.50304 0.32349 0.82341 0.0
O459 O 0.43941 0.35986 0.82706 0.0
C460 C 0.53177 0.24589 0.76162 0.0
O461 O 0.57479 0.25111 0.78162 0.0
O462 O 0.55326 0.3722 0.80333 0.0
C463 C 0.42158 0.37386 0.7881 0.0
O464 O 0.44358 0.3621 0.7488 0.0
C465 C 0.52215 0.25028 0.89514 0.0
O466 O 0.49479 0.22229 0.86892 0.0
O467 O 0.49627 0.27246 0.77398 0.0
C468 C 0.72318 0.39408 0.08912 0.0
O469 O 0.70774 0.37879 0.1301 0.0
O470 O 0.61295 0.42282 0.13174 0.0
Zn471 Zn 0.67142 0.4667 0.12589 0.0
O472 O 0.71479 0.4683 0.18352 0.0
C473 C 0.61572 0.54978 0.13828 0.0
O474 O 0.60611 0.52675 0.1774 0.0
O475 O 0.71224 0.43628 0.07585 0.0
C476 C 0.73146 0.50553 0.20381 0.0
O477 O 0.71746 0.54837 0.19017 0.0
C478 C 0.59679 0.40479 0.16948 0.0
O479 O 0.61785 0.41536 0.20957 0.0
O480 O 0.6458 0.53182 0.10915 0.0
C481 C 0.58711 0.59223 0.12579 0.0
O482 O 0.59206 0.6115 0.08408 0.0
O483 O 0.52643 0.68436 0.07183 0.0
Zn484 Zn 0.503 0.65522 0.13295 0.0
O485 O 0.43937 0.61885 0.1293 0.0
C486 C 0.53174 0.73281 0.19473 0.0
O487 O 0.57476 0.72758 0.17474 0.0
O488 O 0.55322 0.60651 0.15302 0.0
C489 C 0.42154 0.60486 0.16826 0.0
O490 O 0.44354 0.61662 0.20756 0.0
C491 C 0.52212 0.72843 0.06121 0.0
O492 O 0.49477 0.75642 0.08743 0.0
O493 O 0.49623 0.70625 0.18237 0.0
C494 C 0.2518 0.58468 0.08914 0.0
O495 O 0.26725 0.59995 0.13012 0.0
O496 O 0.362 0.55588 0.13177 0.0
Zn497 Zn 0.30352 0.51202 0.12589 0.0
O498 O 0.26013 0.51041 0.18351 0.0
C499 C 0.35922 0.42893 0.13825 0.0
O500 O 0.36884 0.45196 0.17736 0.0
O501 O 0.26272 0.54248 0.07586 0.0
C502 C 0.24347 0.47319 0.20382 0.0
O503 O 0.2575 0.43035 0.19021 0.0
C504 C 0.37816 0.57389 0.16952 0.0
O505 O 0.3571 0.56331 0.2096 0.0
O506 O 0.32912 0.4469 0.10913 0.0
C507 C 0.38782 0.38648 0.12575 0.0
O508 O 0.38284 0.36721 0.08404 0.0
O509 O 0.44852 0.29435 0.07176 0.0
Zn510 Zn 0.47193 0.32349 0.13288 0.0
O511 O 0.53558 0.35985 0.12924 0.0
C512 C 0.44316 0.24588 0.19462 0.0
O513 O 0.40016 0.25111 0.1746 0.0
O514 O 0.42172 0.37221 0.15296 0.0
C515 C 0.55341 0.37382 0.16822 0.0
O516 O 0.53141 0.36204 0.20751 0.0
C517 C 0.45285 0.2503 0.06114 0.0
O518 O 0.48022 0.22231 0.08736 0.0
O519 O 0.47868 0.27245 0.1823 0.0
C520 C 0.91646 0.72895 0.52937 0.0
O521 O 0.8824 0.75637 0.51091 0.0
O522 O 0.83909 0.59995 0.56191 0.0
Zn523 Zn 0.84499 0.65323 0.51465 0.0
O524 O 0.79129 0.70353 0.52195 0.0
C525 C 0.80682 0.59153 0.44459 0.0
O526 O 0.77546 0.5837 0.47863 0.0
O527 O 0.91032 0.68377 0.52998 0.0
C528 C 0.75955 0.71226 0.49037 0.0
O529 O 0.75934 0.68701 0.45156 0.0
C530 C 0.80068 0.58918 0.58455 0.0
O531 O 0.7606 0.61458 0.5788 0.0
O532 O 0.84148 0.62154 0.45068 0.0
C533 C 0.91644 0.24977 0.42698 0.0
O534 O 0.88239 0.22235 0.44544 0.0
O535 O 0.83907 0.37877 0.39445 0.0
Zn536 Zn 0.84498 0.32549 0.44171 0.0
O537 O 0.79128 0.27518 0.43441 0.0
C538 C 0.80682 0.38718 0.51178 0.0
O539 O 0.77546 0.39503 0.47774 0.0
O540 O 0.9103 0.29495 0.42636 0.0
C541 C 0.75953 0.26646 0.46597 0.0
O542 O 0.75929 0.29173 0.50477 0.0
C543 C 0.80065 0.38954 0.37181 0.0
O544 O 0.76057 0.36414 0.37757 0.0
O545 O 0.84147 0.35717 0.50568 0.0
C546 C 0.72062 0.86277 0.39526 0.0
O547 O 0.70739 0.82109 0.37787 0.0
O548 O 0.60439 0.82281 0.41122 0.0
Zn549 Zn 0.6588 0.82516 0.45898 0.0
O550 O 0.69616 0.76263 0.46221 0.0
C551 C 0.60895 0.8113 0.54588 0.0
O552 O 0.61023 0.76608 0.53298 0.0
O553 O 0.70467 0.87536 0.43519 0.0
C554 C 0.72689 0.75383 0.49459 0.0
O555 O 0.73287 0.78474 0.52887 0.0
C556 C 0.58606 0.78408 0.39591 0.0
O557 O 0.60187 0.74276 0.41206 0.0
O558 O 0.62926 0.84304 0.52056 0.0
C559 C 0.05838 0.72893 0.42705 0.0
O560 O 0.09244 0.75635 0.44551 0.0
O561 O 0.13575 0.59995 0.39444 0.0
Zn562 Zn 0.12985 0.6532 0.44173 0.0
O563 O 0.18355 0.70352 0.43445 0.0
C564 C 0.16802 0.59147 0.51176 0.0
O565 O 0.19936 0.58363 0.47771 0.0
O566 O 0.06452 0.68375 0.42642 0.0
C567 C 0.21529 0.71222 0.46603 0.0
O568 O 0.21551 0.68695 0.50482 0.0
C569 C 0.17417 0.58921 0.37179 0.0
O570 O 0.21424 0.61462 0.37754 0.0
O571 O 0.13337 0.62149 0.50569 0.0
C572 C 0.25417 0.11599 0.39524 0.0
O573 O 0.26739 0.15767 0.37785 0.0
O574 O 0.37044 0.15591 0.41114 0.0
Zn575 Zn 0.31605 0.15358 0.45892 0.0
O576 O 0.27871 0.21613 0.46217 0.0
C577 C 0.36589 0.16745 0.54583 0.0
O578 O 0.36457 0.21267 0.53296 0.0
O579 O 0.27014 0.1034 0.43516 0.0
C580 C 0.24795 0.2249 0.49453 0.0
O581 O 0.24194 0.19395 0.52877 0.0
C582 C 0.38873 0.19464 0.39577 0.0
O583 O 0.3729 0.23596 0.41186 0.0
O584 O 0.34561 0.13571 0.52049 0.0
C585 C 0.05838 0.24979 0.52933 0.0
O586 O 0.09244 0.22237 0.51086 0.0
O587 O 0.13578 0.37876 0.56192 0.0
Zn588 Zn 0.12986 0.3255 0.51464 0.0
O589 O 0.18355 0.27518 0.5219 0.0
C590 C 0.16801 0.38725 0.4446 0.0
O591 O 0.19935 0.3951 0.47865 0.0
O592 O 0.06453 0.29497 0.52997 0.0
C593 C 0.21532 0.2665 0.49035 0.0
O594 O 0.2156 0.29181 0.45158 0.0
C595 C 0.17421 0.3895 0.58456 0.0
O596 O 0.21428 0.36408 0.5788 0.0
O597 O 0.13337 0.35721 0.45067 0.0
C598 C 0.72062 0.11595 0.56108 0.0
O599 O 0.70739 0.15763 0.57846 0.0
O600 O 0.60439 0.15588 0.54512 0.0
Zn601 Zn 0.65879 0.15354 0.49736 0.0
O602 O 0.69614 0.21609 0.49413 0.0
C603 C 0.60895 0.1674 0.41046 0.0
O604 O 0.61023 0.21262 0.42335 0.0
O605 O 0.70468 0.10336 0.52115 0.0
C606 C 0.72688 0.22488 0.46176 0.0
O607 O 0.73288 0.19396 0.42749 0.0
C608 C 0.58605 0.19462 0.56044 0.0
O609 O 0.60186 0.23594 0.5443 0.0
O610 O 0.62926 0.13566 0.43579 0.0
C611 C 0.25418 0.86274 0.56114 0.0
O612 O 0.26739 0.82106 0.57853 0.0
O613 O 0.37042 0.82279 0.54522 0.0
Zn614 Zn 0.31603 0.82513 0.49745 0.0
O615 O 0.27867 0.76259 0.49421 0.0
C616 C 0.36588 0.81125 0.41054 0.0
O617 O 0.36457 0.76603 0.42343 0.0
O618 O 0.27014 0.87532 0.52121 0.0
C619 C 0.24794 0.75381 0.46183 0.0
O620 O 0.24196 0.78473 0.42756 0.0
C621 C 0.38872 0.78406 0.56059 0.0
O622 O 0.37288 0.74274 0.54449 0.0
O623 O 0.34558 0.843 0.43588 0.0
loop_
_geom_bond_atom_site_label_1
_geom_bond_atom_site_label_2
_geom_bond_distance
_geom_bond_site_symmetry_2
_ccdc_geom_bond_type
C0 O1 1.160 . S
C0 O7 1.185 . S
O1 C0 1.160 . S
O2 Zn3 1.899 . S
O2 C10 1.284 . S
Zn3 O2 1.899 . S
Zn3 O4 2.032 1_455 S
Zn3 O7 2.086 . S
Zn3 O12 1.977 . S
O4 Zn3 2.032 1_655 S
O4 C8 1.278 . S
C5 O6 1.203 1_455 S
C5 O12 1.267 . S
O6 C5 1.203 1_655 S
O7 C0 1.185 . S
O7 Zn3 2.086 . S
C8 O4 1.278 . S
C8 O9 1.211 . S
O9 C8 1.211 . S
C10 O2 1.284 . S
C10 O11 1.273 1_455 S
O11 C10 1.273 1_655 S
O12 Zn3 1.977 . S
O12 C5 1.267 . S
C13 O14 1.160 . S
C13 O20 1.185 . S
O14 C13 1.160 . S
O15 Zn16 1.899 . S
O15 C23 1.284 . S
Zn16 O15 1.899 . S
Zn16 O17 2.032 . S
Zn16 O20 2.086 . S
Zn16 O25 1.977 1_545 S
O17 Zn16 2.032 . S
O17 C21 1.278 1_545 S
C18 O19 1.203 . S
C18 O25 1.267 . S
O19 C18 1.203 . S
O20 C13 1.185 . S
O20 Zn16 2.086 . S
C21 O17 1.278 1_565 S
C21 O22 1.211 . S
O22 C21 1.211 . S
C23 O15 1.284 . S
C23 O24 1.273 . S
O24 C23 1.273 . S
O25 Zn16 1.977 1_565 S
O25 C18 1.267 . S
C26 O27 1.160 . S
C26 O33 1.185 . S
O27 C26 1.160 . S
O28 Zn29 1.899 . S
O28 C36 1.284 . S
Zn29 O28 1.899 . S
Zn29 O30 2.032 1_655 S
Zn29 O33 2.086 . S
Zn29 O38 1.977 . S
O30 Zn29 2.032 1_455 S
O30 C34 1.278 . S
C31 O32 1.203 1_655 S
C31 O38 1.267 . S
O32 C31 1.203 1_455 S
O33 C26 1.185 . S
O33 Zn29 2.086 . S
C34 O30 1.278 . S
C34 O35 1.211 . S
O35 C34 1.211 . S
C36 O28 1.284 . S
C36 O37 1.273 1_655 S
O37 C36 1.273 1_455 S
O38 Zn29 1.977 . S
O38 C31 1.267 . S
C39 O40 1.160 . S
C39 O46 1.185 . S
O40 C39 1.160 . S
O41 Zn42 1.899 . S
O41 C49 1.284 . S
Zn42 O41 1.899 . S
Zn42 O43 2.032 . S
Zn42 O46 2.086 . S
Zn42 O51 1.977 1_565 S
O43 Zn42 2.032 . S
O43 C47 1.278 1_565 S
C44 O45 1.203 . S
C44 O51 1.267 . S
O45 C44 1.203 . S
O46 C39 1.185 . S
O46 Zn42 2.086 . S
C47 O43 1.278 1_545 S
C47 O48 1.211 . S
O48 C47 1.211 . S
C49 O41 1.284 . S
C49 O50 1.273 . S
O50 C49 1.273 . S
O51 Zn42 1.977 1_545 S
O51 C44 1.267 . S
C52 O53 1.160 . S
C52 O59 1.185 . S
O53 C52 1.160 . S
O54 Zn55 1.899 . S
O54 C62 1.284 . S
Zn55 O54 1.899 . S
Zn55 O56 2.032 1_455 S
Zn55 O59 2.086 . S
Zn55 O64 1.977 . S
O56 Zn55 2.032 1_655 S
O56 C60 1.278 . S
C57 O58 1.203 1_455 S
C57 O64 1.267 . S
O58 C57 1.203 1_655 S
O59 C52 1.185 . S
O59 Zn55 2.086 . S
C60 O56 1.278 . S
C60 O61 1.211 . S
O61 C60 1.211 . S
C62 O54 1.284 . S
C62 O63 1.273 1_455 S
O63 C62 1.273 1_655 S
O64 Zn55 1.977 . S
O64 C57 1.267 . S
C65 O66 1.160 . S
C65 O72 1.185 . S
O66 C65 1.160 . S
O67 Zn68 1.899 . S
O67 C75 1.284 . S
Zn68 O67 1.899 . S
Zn68 O69 2.032 . S
Zn68 O72 2.086 . S
Zn68 O77 1.977 1_545 S
O69 Zn68 2.032 . S
O69 C73 1.278 1_545 S
C70 O71 1.203 . S
C70 O77 1.267 . S
O71 C70 1.203 . S
O72 C65 1.185 . S
O72 Zn68 2.086 . S
C73 O69 1.278 1_565 S
C73 O74 1.211 . S
O74 C73 1.211 . S
C75 O67 1.284 . S
C75 O76 1.273 . S
O76 C75 1.273 . S
O77 Zn68 1.977 1_565 S
O77 C70 1.267 . S
C78 O79 1.160 . S
C78 O85 1.185 . S
O79 C78 1.160 . S
O80 Zn81 1.899 . S
O80 C88 1.284 . S
Zn81 O80 1.899 . S
Zn81 O82 2.032 1_655 S
Zn81 O85 2.086 . S
Zn81 O90 1.977 . S
O82 Zn81 2.032 1_455 S
O82 C86 1.278 . S
C83 O84 1.203 1_655 S
C83 O90 1.267 . S
O84 C83 1.203 1_455 S
O85 C78 1.185 . S
O85 Zn81 2.086 . S
C86 O82 1.278 . S
C86 O87 1.211 . S
O87 C86 1.211 . S
C88 O80 1.284 . S
C88 O89 1.273 1_655 S
O89 C88 1.273 1_455 S
O90 Zn81 1.977 . S
O90 C83 1.267 . S
C91 O92 1.160 . S
C91 O98 1.185 . S
O92 C91 1.160 . S
O93 Zn94 1.899 . S
O93 C101 1.284 . S
Zn94 O93 1.899 . S
Zn94 O95 2.032 . S
Zn94 O98 2.086 . S
Zn94 O103 1.977 1_565 S
O95 Zn94 2.032 . S
O95 C99 1.278 1_565 S
C96 O97 1.203 . S
C96 O103 1.267 . S
O97 C96 1.203 . S
O98 C91 1.185 . S
O98 Zn94 2.086 . S
C99 O95 1.278 1_545 S
C99 O100 1.211 . S
O100 C99 1.211 . S
C101 O93 1.284 . S
C101 O102 1.273 . S
O102 C101 1.273 . S
O103 Zn94 1.977 1_545 S
O103 C96 1.267 . S
C104 O105 1.160 . S
C104 O111 1.185 . S
O105 C104 1.160 . S
O106 Zn107 1.899 . S
O106 C114 1.284 . S
Zn107 O106 1.899 . S
Zn107 O108 2.032 . S
Zn107 O111 2.086 . S
Zn107 O116 1.977 1_545 S
O108 Zn107 2.032 . S
O108 C112 1.278 . S
C109 O110 1.203 . S
C109 O116 1.267 . S
O110 C109 1.203 . S
O111 C104 1.185 . S
O111 Zn107 2.086 . S
C112 O108 1.278 . S
C112 O113 1.211 1_545 S
O113 C112 1.211 1_565 S
C114 O106 1.284 . S
C114 O115 1.273 . S
O115 C114 1.273 . S
O116 Zn107 1.977 1_565 S
O116 C109 1.267 . S
C117 O118 1.160 . S
C117 O124 1.185 . S
O118 C117 1.160 . S
O119 Zn120 1.899 . S
O119 C127 1.284 . S
Zn120 O119 1.899 . S
Zn120 O121 2.032 1_655 S
Zn120 O124 2.086 . S
Zn120 O129 1.977 . S
O121 Zn120 2.032 1_455 S
O121 C125 1.278 . S
C122 O123 1.203 1_655 S
C122 O129 1.267 . S
O123 C122 1.203 1_455 S
O124 C117 1.185 . S
O124 Zn120 2.086 . S
C125 O121 1.278 . S
C125 O126 1.211 . S
O126 C125 1.211 . S
C127 O119 1.284 . S
C127 O128 1.273 1_655 S
O128 C127 1.273 1_455 S
O129 Zn120 1.977 . S
O129 C122 1.267 . S
C130 O131 1.160 . S
C130 O137 1.185 . S
O131 C130 1.160 . S
O132 Zn133 1.899 . S
O132 C140 1.284 . S
Zn133 O132 1.899 . S
Zn133 O134 2.032 . S
Zn133 O137 2.086 . S
Zn133 O142 1.977 1_565 S
O134 Zn133 2.032 . S
O134 C138 1.278 . S
C135 O136 1.203 . S
C135 O142 1.267 . S
O136 C135 1.203 . S
O137 C130 1.185 . S
O137 Zn133 2.086 . S
C138 O134 1.278 . S
C138 O139 1.211 1_565 S
O139 C138 1.211 1_545 S
C140 O132 1.284 . S
C140 O141 1.273 . S
O141 C140 1.273 . S
O142 Zn133 1.977 1_545 S
O142 C135 1.267 . S
C143 O144 1.160 . S
C143 O150 1.185 . S
O144 C143 1.160 . S
O145 Zn146 1.899 . S
O145 C153 1.284 . S
Zn146 O145 1.899 . S
Zn146 O147 2.032 1_455 S
Zn146 O150 2.086 . S
Zn146 O155 1.977 . S
O147 Zn146 2.032 1_655 S
O147 C151 1.278 . S
C148 O149 1.203 1_455 S
C148 O155 1.267 . S
O149 C148 1.203 1_655 S
O150 C143 1.185 . S
O150 Zn146 2.086 . S
C151 O147 1.278 . S
C151 O152 1.211 . S
O152 C151 1.211 . S
C153 O145 1.284 . S
C153 O154 1.273 1_455 S
O154 C153 1.273 1_655 S
O155 Zn146 1.977 . S
O155 C148 1.267 . S
C156 O157 1.160 . S
C156 O163 1.185 . S
O157 C156 1.160 . S
O158 Zn159 1.899 . S
O158 C166 1.284 . S
Zn159 O158 1.899 . S
Zn159 O160 2.032 . S
Zn159 O163 2.086 . S
Zn159 O168 1.977 1_565 S
O160 Zn159 2.032 . S
O160 C164 1.278 . S
C161 O162 1.203 . S
C161 O168 1.267 . S
O162 C161 1.203 . S
O163 C156 1.185 . S
O163 Zn159 2.086 . S
C164 O160 1.278 . S
C164 O165 1.211 1_565 S
O165 C164 1.211 1_545 S
C166 O158 1.284 . S
C166 O167 1.273 . S
O167 C166 1.273 . S
O168 Zn159 1.977 1_545 S
O168 C161 1.267 . S
C169 O170 1.160 . S
C169 O176 1.185 . S
O170 C169 1.160 . S
O171 Zn172 1.899 . S
O171 C179 1.284 . S
Zn172 O171 1.899 . S
Zn172 O173 2.032 1_455 S
Zn172 O176 2.086 . S
Zn172 O181 1.977 . S
O173 Zn172 2.032 1_655 S
O173 C177 1.278 . S
C174 O175 1.203 1_455 S
C174 O181 1.267 . S
O175 C174 1.203 1_655 S
O176 C169 1.185 . S
O176 Zn172 2.086 . S
C177 O173 1.278 . S
C177 O178 1.211 . S
O178 C177 1.211 . S
C179 O171 1.284 . S
C179 O180 1.273 1_455 S
O180 C179 1.273 1_655 S
O181 Zn172 1.977 . S
O181 C174 1.267 . S
C182 O183 1.160 . S
C182 O189 1.185 . S
O183 C182 1.160 . S
O184 Zn185 1.899 . S
O184 C192 1.284 . S
Zn185 O184 1.899 . S
Zn185 O186 2.032 . S
Zn185 O189 2.086 . S
Zn185 O194 1.977 1_545 S
O186 Zn185 2.032 . S
O186 C190 1.278 . S
C187 O188 1.203 . S
C187 O194 1.267 . S
O188 C187 1.203 . S
O189 C182 1.185 . S
O189 Zn185 2.086 . S
C190 O186 1.278 . S
C190 O191 1.211 1_545 S
O191 C190 1.211 1_565 S
C192 O184 1.284 . S
C192 O193 1.273 . S
O193 C192 1.273 . S
O194 Zn185 1.977 1_565 S
O194 C187 1.267 . S
C195 O196 1.160 . S
C195 O202 1.185 . S
O196 C195 1.160 . S
O197 Zn198 1.899 . S
O197 C205 1.284 . S
Zn198 O197 1.899 . S
Zn198 O199 2.032 1_655 S
Zn198 O202 2.086 . S
Zn198 O207 1.977 . S
O199 Zn198 2.032 1_455 S
O199 C203 1.278 . S
C200 O201 1.203 1_655 S
C200 O207 1.267 . S
O201 C200 1.203 1_455 S
O202 C195 1.185 . S
O202 Zn198 2.086 . S
C203 O199 1.278 . S
C203 O204 1.211 . S
O204 C203 1.211 . S
C205 O197 1.284 . S
C205 O206 1.273 1_655 S
O206 C205 1.273 1_455 S
O207 Zn198 1.977 . S
O207 C200 1.267 . S
C208 O209 1.160 . S
C208 O215 1.185 . S
O209 C208 1.160 . S
O210 Zn211 1.899 . S
O210 C218 1.284 . S
Zn211 O210 1.899 . S
Zn211 O212 2.032 . S
Zn211 O215 2.086 . S
Zn211 O220 1.977 1_554 S
O212 Zn211 2.032 . S
O212 C216 1.278 1_554 S
C213 O214 1.203 . S
C213 O220 1.267 . S
O214 C213 1.203 . S
O215 C208 1.185 . S
O215 Zn211 2.086 . S
C216 O212 1.278 1_556 S
C216 O217 1.211 . S
O217 C216 1.211 . S
C218 O210 1.284 . S
C218 O219 1.273 . S
O219 C218 1.273 . S
O220 Zn211 1.977 1_556 S
O220 C213 1.267 . S
C221 O222 1.160 . S
C221 O228 1.185 . S
O222 C221 1.160 . S
O223 Zn224 1.899 . S
O223 C231 1.284 . S
Zn224 O223 1.899 . S
Zn224 O225 2.032 . S
Zn224 O228 2.086 . S
Zn224 O233 1.977 1_556 S
O225 Zn224 2.032 . S
O225 C229 1.278 1_556 S
C226 O227 1.203 . S
C226 O233 1.267 . S
O227 C226 1.203 . S
O228 C221 1.185 . S
O228 Zn224 2.086 . S
C229 O225 1.278 1_554 S
C229 O230 1.211 . S
O230 C229 1.211 . S
C231 O223 1.284 . S
C231 O232 1.273 . S
O232 C231 1.273 . S
O233 Zn224 1.977 1_554 S
O233 C226 1.267 . S
C234 O235 1.160 . S
C234 O241 1.185 . S
O235 C234 1.160 . S
O236 Zn237 1.899 . S
O236 C244 1.284 . S
Zn237 O236 1.899 . S
Zn237 O238 2.032 . S
Zn237 O241 2.086 . S
Zn237 O246 1.977 1_556 S
O238 Zn237 2.032 . S
O238 C242 1.278 . S
C239 O240 1.203 . S
C239 O246 1.267 . S
O240 C239 1.203 . S
O241 C234 1.185 . S
O241 Zn237 2.086 . S
C242 O238 1.278 . S
C242 O243 1.211 1_556 S
O243 C242 1.211 1_554 S
C244 O236 1.284 . S
C244 O245 1.273 . S
O245 C244 1.273 . S
O246 Zn237 1.977 1_554 S
O246 C239 1.267 . S
C247 O248 1.160 . S
C247 O254 1.185 . S
O248 C247 1.160 . S
O249 Zn250 1.899 . S
O249 C257 1.284 . S
Zn250 O249 1.899 . S
Zn250 O251 2.032 . S
Zn250 O254 2.086 . S
Zn250 O259 1.977 1_556 S
O251 Zn250 2.032 . S
O251 C255 1.278 1_556 S
C252 O253 1.203 . S
C252 O259 1.267 . S
O253 C252 1.203 . S
O254 C247 1.185 . S
O254 Zn250 2.086 . S
C255 O251 1.278 1_554 S
C255 O256 1.211 . S
O256 C255 1.211 . S
C257 O249 1.284 . S
C257 O258 1.273 . S
O258 C257 1.273 . S
O259 Zn250 1.977 1_554 S
O259 C252 1.267 . S
C260 O261 1.160 . S
C260 O267 1.185 . S
O261 C260 1.160 . S
O262 Zn263 1.899 . S
O262 C270 1.284 . S
Zn263 O262 1.899 . S
Zn263 O264 2.032 . S
Zn263 O267 2.086 . S
Zn263 O272 1.977 1_556 S
O264 Zn263 2.032 . S
O264 C268 1.278 . S
C265 O266 1.203 . S
C265 O272 1.267 . S
O266 C265 1.203 . S
O267 C260 1.185 . S
O267 Zn263 2.086 . S
C268 O264 1.278 . S
C268 O269 1.211 1_556 S
O269 C268 1.211 1_554 S
C270 O262 1.284 . S
C270 O271 1.273 . S
O271 C270 1.273 . S
O272 Zn263 1.977 1_554 S
O272 C265 1.267 . S
C273 O274 1.160 . S
C273 O280 1.185 . S
O274 C273 1.160 . S
O275 Zn276 1.899 . S
O275 C283 1.284 . S
Zn276 O275 1.899 . S
Zn276 O277 2.032 . S
Zn276 O280 2.086 . S
Zn276 O285 1.977 1_554 S
O277 Zn276 2.032 . S
O277 C281 1.278 1_554 S
C278 O279 1.203 . S
C278 O285 1.267 . S
O279 C278 1.203 . S
O280 C273 1.185 . S
O280 Zn276 2.086 . S
C281 O277 1.278 1_556 S
C281 O282 1.211 . S
O282 C281 1.211 . S
C283 O275 1.284 . S
C283 O284 1.273 . S
O284 C283 1.273 . S
O285 Zn276 1.977 1_556 S
O285 C278 1.267 . S
C286 O287 1.160 . S
C286 O293 1.185 . S
O287 C286 1.160 . S
O288 Zn289 1.899 . S
O288 C296 1.284 . S
Zn289 O288 1.899 . S
Zn289 O290 2.032 . S
Zn289 O293 2.086 . S
Zn289 O298 1.977 1_554 S
O290 Zn289 2.032 . S
O290 C294 1.278 . S
C291 O292 1.203 . S
C291 O298 1.267 . S
O292 C291 1.203 . S
O293 C286 1.185 . S
O293 Zn289 2.086 . S
C294 O290 1.278 . S
C294 O295 1.211 1_554 S
O295 C294 1.211 1_556 S
C296 O288 1.284 . S
C296 O297 1.273 . S
O297 C296 1.273 . S
O298 Zn289 1.977 1_556 S
O298 C291 1.267 . S
C299 O300 1.160 . S
C299 O306 1.185 . S
O300 C299 1.160 . S
O301 Zn302 1.899 . S
O301 C309 1.284 . S
Zn302 O301 1.899 . S
Zn302 O303 2.032 . S
Zn302 O306 2.086 . S
Zn302 O311 1.977 1_554 S
O303 Zn302 2.032 . S
O303 C307 1.278 . S
C304 O305 1.203 . S
C304 O311 1.267 . S
O305 C304 1.203 . S
O306 C299 1.185 . S
O306 Zn302 2.086 . S
C307 O303 1.278 . S
C307 O308 1.211 1_554 S
O308 C307 1.211 1_556 S
C309 O301 1.284 . S
C309 O310 1.273 . S
O310 C309 1.273 . S
O311 Zn302 1.977 1_556 S
O311 C304 1.267 . S
C312 O313 1.160 . S
C312 O319 1.185 . S
O313 C312 1.160 . S
O314 Zn315 1.899 . S
O314 C322 1.284 . S
Zn315 O314 1.899 . S
Zn315 O316 2.032 . S
Zn315 O319 2.086 . S
Zn315 O324 1.977 . S
O316 Zn315 2.032 . S
O316 C320 1.278 . S
C317 O318 1.203 . S
C317 O324 1.267 . S
O318 C317 1.203 . S
O319 C312 1.185 . S
O319 Zn315 2.086 . S
C320 O316 1.278 . S
C320 O321 1.211 . S
O321 C320 1.211 . S
C322 O314 1.284 . S
C322 O323 1.273 . S
O323 C322 1.273 . S
O324 Zn315 1.977 . S
O324 C317 1.267 . S
C325 O326 1.160 . S
C325 O332 1.185 . S
O326 C325 1.160 . S
O327 Zn328 1.899 . S
O327 C335 1.284 . S
Zn328 O327 1.899 . S
Zn328 O329 2.032 . S
Zn328 O332 2.086 . S
Zn328 O337 1.977 . S
O329 Zn328 2.032 . S
O329 C333 1.278 . S
C330 O331 1.203 . S
C330 O337 1.267 . S
O331 C330 1.203 . S
O332 C325 1.185 . S
O332 Zn328 2.086 . S
C333 O329 1.278 . S
C333 O334 1.211 . S
O334 C333 1.211 . S
C335 O327 1.284 . S
C335 O336 1.273 . S
O336 C335 1.273 . S
O337 Zn328 1.977 . S
O337 C330 1.267 . S
C338 O339 1.160 . S
C338 O345 1.185 . S
O339 C338 1.160 . S
O340 Zn341 1.899 . S
O340 C348 1.284 . S
Zn341 O340 1.899 . S
Zn341 O342 2.032 . S
Zn341 O345 2.086 . S
Zn341 O350 1.977 . S
O342 Zn341 2.032 . S
O342 C346 1.278 . S
C343 O344 1.203 . S
C343 O350 1.267 . S
O344 C343 1.203 . S
O345 C338 1.185 . S
O345 Zn341 2.086 . S
C346 O342 1.278 . S
C346 O347 1.211 . S
O347 C346 1.211 . S
C348 O340 1.284 . S
C348 O349 1.273 . S
O349 C348 1.273 . S
O350 Zn341 1.977 . S
O350 C343 1.267 . S
C351 O352 1.160 . S
C351 O358 1.185 . S
O352 C351 1.160 . S
O353 Zn354 1.899 . S
O353 C361 1.284 . S
Zn354 O353 1.899 . S
Zn354 O355 2.032 . S
Zn354 O358 2.086 . S
Zn354 O363 1.977 . S
O355 Zn354 2.032 . S
O355 C359 1.278 . S
C356 O357 1.203 . S
C356 O363 1.267 . S
O357 C356 1.203 . S
O358 C351 1.185 . S
O358 Zn354 2.086 . S
C359 O355 1.278 . S
C359 O360 1.211 . S
O360 C359 1.211 . S
C361 O353 1.284 . S
C361 O362 1.273 . S
O362 C361 1.273 . S
O363 Zn354 1.977 . S
O363 C356 1.267 . S
C364 O365 1.160 . S
C364 O371 1.185 . S
O365 C364 1.160 . S
O366 Zn367 1.899 . S
O366 C374 1.284 . S
Zn367 O366 1.899 . S
Zn367 O368 2.032 . S
Zn367 O371 2.086 . S
Zn367 O376 1.977 . S
O368 Zn367 2.032 . S
O368 C372 1.278 . S
C369 O370 1.203 . S
C369 O376 1.267 . S
O370 C369 1.203 . S
O371 C364 1.185 . S
O371 Zn367 2.086 . S
C372 O368 1.278 . S
C372 O373 1.211 . S
O373 C372 1.211 . S
C374 O366 1.284 . S
C374 O375 1.273 . S
O375 C374 1.273 . S
O376 Zn367 1.977 . S
O376 C369 1.267 . S
C377 O378 1.160 . S
C377 O384 1.185 . S
O378 C377 1.160 . S
O379 Zn380 1.899 . S
O379 C387 1.284 . S
Zn380 O379 1.899 . S
Zn380 O381 2.032 . S
Zn380 O384 2.086 . S
Zn380 O389 1.977 . S
O381 Zn380 2.032 . S
O381 C385 1.278 . S
C382 O383 1.203 . S
C382 O389 1.267 . S
O383 C382 1.203 . S
O384 C377 1.185 . S
O384 Zn380 2.086 . S
C385 O381 1.278 . S
C385 O386 1.211 . S
O386 C385 1.211 . S
C387 O379 1.284 . S
C387 O388 1.273 . S
O388 C387 1.273 . S
O389 Zn380 1.977 . S
O389 C382 1.267 . S
C390 O391 1.160 . S
C390 O397 1.185 . S
O391 C390 1.160 . S
O392 Zn393 1.899 . S
O392 C400 1.284 . S
Zn393 O392 1.899 . S
Zn393 O394 2.032 . S
Zn393 O397 2.086 . S
Zn393 O402 1.977 . S
O394 Zn393 2.032 . S
O394 C398 1.278 . S
C395 O396 1.203 . S
C395 O402 1.267 . S
O396 C395 1.203 . S
O397 C390 1.185 . S
O397 Zn393 2.086 . S
C398 O394 1.278 . S
C398 O399 1.211 . S
O399 C398 1.211 . S
C400 O392 1.284 . S
C400 O401 1.273 . S
O401 C400 1.273 . S
O402 Zn393 1.977 . S
O402 C395 1.267 . S
C403 O404 1.160 . S
C403 O410 1.185 . S
O404 C403 1.160 . S
O405 Zn406 1.899 . S
O405 C413 1.284 . S
Zn406 O405 1.899 . S
Zn406 O407 2.032 . S
Zn406 O410 2.086 . S
Zn406 O415 1.977 . S
O407 Zn406 2.032 . S
O407 C411 1.278 . S
C408 O409 1.203 . S
C408 O415 1.267 . S
O409 C408 1.203 . S
O410 C403 1.185 . S
O410 Zn406 2.086 . S
C411 O407 1.278 . S
C411 O412 1.211 . S
O412 C411 1.211 . S
C413 O405 1.284 . S
C413 O414 1.273 . S
O414 C413 1.273 . S
O415 Zn406 1.977 . S
O415 C408 1.267 . S
C416 O417 1.160 . S
C416 O423 1.185 . S
O417 C416 1.160 . S
O418 Zn419 1.899 . S
O418 C426 1.284 . S
Zn419 O418 1.899 . S
Zn419 O420 2.032 . S
Zn419 O423 2.086 . S
Zn419 O428 1.977 . S
O420 Zn419 2.032 . S
O420 C424 1.278 . S
C421 O422 1.203 . S
C421 O428 1.267 . S
O422 C421 1.203 . S
O423 C416 1.185 . S
O423 Zn419 2.086 . S
C424 O420 1.278 . S
C424 O425 1.211 . S
O425 C424 1.211 . S
C426 O418 1.284 . S
C426 O427 1.273 . S
O427 C426 1.273 . S
O428 Zn419 1.977 . S
O428 C421 1.267 . S
C429 O430 1.160 . S
C429 O436 1.185 . S
O430 C429 1.160 . S
O431 Zn432 1.899 . S
O431 C439 1.284 . S
Zn432 O431 1.899 . S
Zn432 O433 2.032 . S
Zn432 O436 2.086 . S
Zn432 O441 1.977 . S
O433 Zn432 2.032 . S
O433 C437 1.278 . S
C434 O435 1.203 . S
C434 O441 1.267 . S
O435 C434 1.203 . S
O436 C429 1.185 . S
O436 Zn432 2.086 . S
C437 O433 1.278 . S
C437 O438 1.211 . S
O438 C437 1.211 . S
C439 O431 1.284 . S
C439 O440 1.273 . S
O440 C439 1.273 . S
O441 Zn432 1.977 . S
O441 C434 1.267 . S
C442 O443 1.160 . S
C442 O449 1.185 . S
O443 C442 1.160 . S
O444 Zn445 1.899 . S
O444 C452 1.284 . S
Zn445 O444 1.899 . S
Zn445 O446 2.032 . S
Zn445 O449 2.086 . S
Zn445 O454 1.977 . S
O446 Zn445 2.032 . S
O446 C450 1.278 . S
C447 O448 1.203 . S
C447 O454 1.267 . S
O448 C447 1.203 . S
O449 C442 1.185 . S
O449 Zn445 2.086 . S
C450 O446 1.278 . S
C450 O451 1.211 . S
O451 C450 1.211 . S
C452 O444 1.284 . S
C452 O453 1.273 . S
O453 C452 1.273 . S
O454 Zn445 1.977 . S
O454 C447 1.267 . S
C455 O456 1.160 . S
C455 O462 1.185 . S
O456 C455 1.160 . S
O457 Zn458 1.899 . S
O457 C465 1.284 . S
Zn458 O457 1.899 . S
Zn458 O459 2.032 . S
Zn458 O462 2.086 . S
Zn458 O467 1.977 . S
O459 Zn458 2.032 . S
O459 C463 1.278 . S
C460 O461 1.203 . S
C460 O467 1.267 . S
O461 C460 1.203 . S
O462 C455 1.185 . S
O462 Zn458 2.086 . S
C463 O459 1.278 . S
C463 O464 1.211 . S
O464 C463 1.211 . S
C465 O457 1.284 . S
C465 O466 1.273 . S
O466 C465 1.273 . S
O467 Zn458 1.977 . S
O467 C460 1.267 . S
C468 O469 1.160 . S
C468 O475 1.185 . S
O469 C468 1.160 . S
O470 Zn471 1.899 . S
O470 C478 1.284 . S
Zn471 O470 1.899 . S
Zn471 O472 2.032 . S
Zn471 O475 2.086 . S
Zn471 O480 1.977 . S
O472 Zn471 2.032 . S
O472 C476 1.278 . S
C473 O474 1.203 . S
C473 O480 1.267 . S
O474 C473 1.203 . S
O475 C468 1.185 . S
O475 Zn471 2.086 . S
C476 O472 1.278 . S
C476 O477 1.211 . S
O477 C476 1.211 . S
C478 O470 1.284 . S
C478 O479 1.273 . S
O479 C478 1.273 . S
O480 Zn471 1.977 . S
O480 C473 1.267 . S
C481 O482 1.160 . S
C481 O488 1.185 . S
O482 C481 1.160 . S
O483 Zn484 1.899 . S
O483 C491 1.284 . S
Zn484 O483 1.899 . S
Zn484 O485 2.032 . S
Zn484 O488 2.086 . S
Zn484 O493 1.977 . S
O485 Zn484 2.032 . S
O485 C489 1.278 . S
C486 O487 1.203 . S
C486 O493 1.267 . S
O487 C486 1.203 . S
O488 C481 1.185 . S
O488 Zn484 2.086 . S
C489 O485 1.278 . S
C489 O490 1.211 . S
O490 C489 1.211 . S
C491 O483 1.284 . S
C491 O492 1.273 . S
O492 C491 1.273 . S
O493 Zn484 1.977 . S
O493 C486 1.267 . S
C494 O495 1.160 . S
C494 O501 1.185 . S
O495 C494 1.160 . S
O496 Zn497 1.899 . S
O496 C504 1.284 . S
Zn497 O496 1.899 . S
Zn497 O498 2.032 . S
Zn497 O501 2.086 . S
Zn497 O506 1.977 . S
O498 Zn497 2.032 . S
O498 C502 1.278 . S
C499 O500 1.203 . S
C499 O506 1.267 . S
O500 C499 1.203 . S
O501 C494 1.185 . S
O501 Zn497 2.086 . S
C502 O498 1.278 . S
C502 O503 1.211 . S
O503 C502 1.211 . S
C504 O496 1.284 . S
C504 O505 1.273 . S
O505 C504 1.273 . S
O506 Zn497 1.977 . S
O506 C499 1.267 . S
C507 O508 1.160 . S
C507 O514 1.185 . S
O508 C507 1.160 . S
O509 Zn510 1.899 . S
O509 C517 1.284 . S
Zn510 O509 1.899 . S
Zn510 O511 2.032 . S
Zn510 O514 2.086 . S
Zn510 O519 1.977 . S
O511 Zn510 2.032 . S
O511 C515 1.278 . S
C512 O513 1.203 . S
C512 O519 1.267 . S
O513 C512 1.203 . S
O514 C507 1.185 . S
O514 Zn510 2.086 . S
C515 O511 1.278 . S
C515 O516 1.211 . S
O516 C515 1.211 . S
C517 O509 1.284 . S
C517 O518 1.273 . S
O518 C517 1.273 . S
O519 Zn510 1.977 . S
O519 C512 1.267 . S
C520 O521 1.160 . S
C520 O527 1.185 . S
O521 C520 1.160 . S
O522 Zn523 1.899 . S
O522 C530 1.284 . S
Zn523 O522 1.899 . S
Zn523 O524 2.032 . S
Zn523 O527 2.086 . S
Zn523 O532 1.977 . S
O524 Zn523 2.032 . S
O524 C528 1.278 . S
C525 O526 1.203 . S
C525 O532 1.267 . S
O526 C525 1.203 . S
O527 C520 1.185 . S
O527 Zn523 2.086 . S
C528 O524 1.278 . S
C528 O529 1.211 . S
O529 C528 1.211 . S
C530 O522 1.284 . S
C530 O531 1.273 . S
O531 C530 1.273 . S
O532 Zn523 1.977 . S
O532 C525 1.267 . S
C533 O534 1.160 . S
C533 O540 1.185 . S
O534 C533 1.160 . S
O535 Zn536 1.899 . S
O535 C543 1.284 . S
Zn536 O535 1.899 . S
Zn536 O537 2.032 . S
Zn536 O540 2.086 . S
Zn536 O545 1.977 . S
O537 Zn536 2.032 . S
O537 C541 1.278 . S
C538 O539 1.203 . S
C538 O545 1.267 . S
O539 C538 1.203 . S
O540 C533 1.185 . S
O540 Zn536 2.086 . S
C541 O537 1.278 . S
C541 O542 1.211 . S
O542 C541 1.211 . S
C543 O535 1.284 . S
C543 O544 1.273 . S
O544 C543 1.273 . S
O545 Zn536 1.977 . S
O545 C538 1.267 . S
C546 O547 1.160 . S
C546 O553 1.185 . S
O547 C546 1.160 . S
O548 Zn549 1.899 . S
O548 C556 1.284 . S
Zn549 O548 1.899 . S
Zn549 O550 2.032 . S
Zn549 O553 2.086 . S
Zn549 O558 1.977 . S
O550 Zn549 2.032 . S
O550 C554 1.278 . S
C551 O552 1.203 . S
C551 O558 1.267 . S
O552 C551 1.203 . S
O553 C546 1.185 . S
O553 Zn549 2.086 . S
C554 O550 1.278 . S
C554 O555 1.211 . S
O555 C554 1.211 . S
C556 O548 1.284 . S
C556 O557 1.273 . S
O557 C556 1.273 . S
O558 Zn549 1.977 . S
O558 C551 1.267 . S
C559 O560 1.160 . S
C559 O566 1.185 . S
O560 C559 1.160 . S
O561 Zn562 1.899 . S
O561 C569 1.284 . S
Zn562 O561 1.899 . S
Zn562 O563 2.032 . S
Zn562 O566 2.086 . S
Zn562 O571 1.977 . S
O563 Zn562 2.032 . S
O563 C567 1.278 . S
C564 O565 1.203 . S
C564 O571 1.267 . S
O565 C564 1.203 . S
O566 C559 1.185 . S
O566 Zn562 2.086 . S
C567 O563 1.278 . S
C567 O568 1.211 . S
O568 C567 1.211 . S
C569 O561 1.284 . S
C569 O570 1.273 . S
O570 C569 1.273 . S
O571 Zn562 1.977 . S
O571 C564 1.267 . S
C572 O573 1.160 . S
C572 O579 1.185 . S
O573 C572 1.160 . S
O574 Zn575 1.899 . S
O574 C582 1.284 . S
Zn575 O574 1.899 . S
Zn575 O576 2.032 . S
Zn575 O579 2.086 . S
Zn575 O584 1.977 . S
O576 Zn575 2.032 . S
O576 C580 1.278 . S
C577 O578 1.203 . S
C577 O584 1.267 . S
O578 C577 1.203 . S
O579 C572 1.185 . S
O579 Zn575 2.086 . S
C580 O576 1.278 . S
C580 O581 1.211 . S
O581 C580 1.211 . S
C582 O574 1.284 . S
C582 O583 1.273 . S
O583 C582 1.273 . S
O584 Zn575 1.977 . S
O584 C577 1.267 . S
C585 O586 1.160 . S
C585 O592 1.185 . S
O586 C585 1.160 . S
O587 Zn588 1.899 . S
O587 C595 1.284 . S
Zn588 O587 1.899 . S
Zn588 O589 2.032 . S
Zn588 O592 2.086 . S
Zn588 O597 1.977 . S
O589 Zn588 2.032 . S
O589 C593 1.278 . S
C590 O591 1.203 . S
C590 O597 1.267 . S
O591 C590 1.203 . S
O592 C585 1.185 . S
O592 Zn588 2.086 . S
C593 O589 1.278 . S
C593 O594 1.211 . S
O594 C593 1.211 . S
C595 O587 1.284 . S
C595 O596 1.273 . S
O596 C595 1.273 . S
O597 Zn588 1.977 . S
O597 C590 1.267 . S
C598 O599 1.160 . S
C598 O605 1.185 . S
O599 C598 1.160 . S
O600 Zn601 1.899 . S
O600 C608 1.284 . S
Zn601 O600 1.899 . S
Zn601 O602 2.032 . S
Zn601 O605 2.086 . S
Zn601 O610 1.977 . S
O602 Zn601 2.032 . S
O602 C606 1.278 . S
C603 O604 1.203 . S
C603 O610 1.267 . S
O604 C603 1.203 . S
O605 C598 1.185 . S
O605 Zn601 2.086 . S
C606 O602 1.278 . S
C606 O607 1.211 . S
O607 C606 1.211 . S
C608 O600 1.284 . S
C608 O609 1.273 . S
O609 C608 1.273 . S
O610 Zn601 1.977 . S
O610 C603 1.267 . S
C611 O612 1.160 . S
C611 O618 1.185 . S
O612 C611 1.160 . S
O613 Zn614 1.899 . S
O613 C621 1.284 . S
Zn614 O613 1.899 . S
Zn614 O615 2.032 . S
Zn614 O618 2.086 . S
Zn614 O623 1.977 . S
O615 Zn614 2.032 . S
O615 C619 1.278 . S
C616 O617 1.203 . S
C616 O623 1.267 . S
O617 C616 1.203 . S
O618 C611 1.185 . S
O618 Zn614 2.086 . S
C619 O615 1.278 . S
C619 O620 1.211 . S
O620 C619 1.211 . S
C621 O613 1.284 . S
C621 O622 1.273 . S
O622 C621 1.273 . S
O623 Zn614 1.977 . S
O623 C616 1.267 . S
C403 C10 1.535 . S
C13 C374 1.535 . S
C36 C377 1.535 . S
C400 C39 1.535 . S
C325 C62 1.535 . S
C65 C348 1.535 . S
C351 C88 1.535 . S
C91 C322 1.535 . S
C104 C572 0.957 . S
C533 C127 1.535 . S
C546 C130 0.957 . S
C153 C559 1.535 . S
C156 C611 0.957 . S
C179 C585 1.535 . S
C182 C598 0.957 . S
C520 C205 1.535 . S
C517 C208 1.535 . S
C221 C439 1.535 . S
C442 C234 0.957 . S
C247 C465 1.535 . S
C416 C260 0.957 . S
C491 C273 1.535 . S
C286 C494 0.957 . S
C468 C299 0.957 . S
C122 C5 1.040 1_655 S
C138 C21 1.352 . S
C31 C148 1.040 1_655 S
C112 C47 1.352 . S
C57 C200 1.040 1_455 S
C164 C73 1.352 . S
C174 C83 1.040 1_455 S
C190 C99 1.352 . S
C242 C216 1.352 . S
C294 C229 1.352 . S
C307 C255 1.352 . S
C268 C281 1.352 . S
C434 C317 1.040 . S
C450 C333 1.352 . S
C460 C343 1.040 . S
C359 C424 1.352 . S
C369 C512 1.040 . S
C385 C476 1.352 . S
C486 C395 1.040 . S
C502 C411 1.352 . S
C528 C554 1.352 . S
C606 C541 1.352 . S
C619 C567 1.352 . S
C593 C580 1.352 . S
C0 C239 1.064 . S
C23 C252 1.725 . S
C26 C265 1.064 . S
C226 C49 1.725 . S
C52 C291 1.064 . S
C75 C213 1.725 . S
C304 C78 1.064 . S
C278 C101 1.725 . S
C114 C125 2.026 . S
C117 C135 1.064 . S
C140 C151 2.026 . S
C109 C143 1.064 . S
C203 C166 2.026 . S
C161 C169 1.064 . S
C177 C192 2.026 . S
C195 C187 1.064 . S
C44 C218 1.725 . S
C70 C231 1.725 . S
C86 C244 2.026 . S
C257 C96 1.725 . S
C60 C270 2.026 . S
C18 C283 1.725 . S
C34 C296 2.026 . S
C8 C309 2.026 . S
C551 C312 1.064 . S
C335 C564 1.725 . S
C577 C338 1.064 . S
C538 C361 1.725 . S
C364 C603 1.064 . S
C387 C525 1.725 . S
C616 C390 1.064 . S
C413 C590 1.725 . S
C426 C437 2.026 . S
C429 C447 1.064 . S
C452 C463 2.026 . S
C455 C421 1.064 . S
C515 C478 2.026 . S
C473 C481 1.064 . S
C489 C504 2.026 . S
C507 C499 1.064 . S
C356 C530 1.725 . S
C382 C543 1.725 . S
C398 C556 2.026 . S
C569 C408 1.725 . S
C372 C582 2.026 . S
C330 C595 1.725 . S
C608 C346 2.026 . S
C320 C621 2.026 . S
