# Generated by pormake.
# Topology sma, (6)-cn, num edge types: 1
# Building blocks:
#     Node 0, Type 0, BuildingBlock: UKALOJ_clean_sbu_0, # of connection points: 6
#     Node 1, Type 0, BuildingBlock: UKALOJ_clean_sbu_0, # of connection points: 6
#     Node 2, Type 0, BuildingBlock: UKALOJ_clean_sbu_0, # of connection points: 6
#     Edge 3, Type (0, 0), BuildingBlock: UKIBUN_clean_linker_0, # of connection points: 2
#     Edge 4, Type (0, 0), BuildingBlock: UKIBUN_clean_linker_0, # of connection points: 2
#     Edge 5, Type (0, 0), BuildingBlock: UKIBUN_clean_linker_0, # of connection points: 2
#     Edge 6, Type (0, 0), BuildingBlock: UKIBUN_clean_linker_0, # of connection points: 2
#     Edge 7, Type (0, 0), BuildingBlock: UKIBUN_clean_linker_0, # of connection points: 2
#     Edge 8, Type (0, 0), BuildingBlock: UKIBUN_clean_linker_0, # of connection points: 2
#     Edge 9, Type (0, 0), BuildingBlock: UKIBUN_clean_linker_0, # of connection points: 2
#     Edge 10, Type (0, 0), BuildingBlock: UKIBUN_clean_linker_0, # of connection points: 2
#     Edge 11, Type (0, 0), BuildingBlock: UKIBUN_clean_linker_0, # of connection points: 2
# Relax obj value: 0.471
# Max RMSD: 0.321
# Mean RMSD: 0.321
data_MOF--net-sma--node1-UKALOJ_clean_sbu_0--edge1-UKIBUN_clean_linker_0
_symmetry_space_group_name_H-M    P1
_symmetry_Int_Tables_number       1
_symmetry_cell_setting            triclinic
loop_
_symmetry_equiv_pos_as_xyz
'x, y, z'
_cell_length_a     44.21694
_cell_length_b     44.238219
_cell_length_c     29.399777
_cell_angle_alpha  89.638449
_cell_angle_beta   90.354918
_cell_angle_gamma 119.70078
loop_
_atom_site_label
_atom_site_type_symbol
_atom_site_fract_x
_atom_site_fract_y
_atom_site_fract_z
_atom_type_partial_charge
Zn0 Zn 0.02423 0.51406 0.08552 0.0
O1 O 0.06978 0.56819 0.08514 0.0
C2 C 0.0798 0.49822 0.10518 0.0
Zn3 Zn 0.03029 0.5118 0.15647 0.0
C4 C 0.07607 0.5828 0.12429 0.0
O5 O 0.05942 0.56475 0.15834 0.0
C6 C 0.97684 0.44411 0.12927 0.0
O7 O 0.98182 0.5146 0.16213 0.0
O8 O 0.99118 0.53389 0.09181 0.0
N9 N 0.03753 0.50994 0.22463 0.0
C10 C 1.01811 0.50424 0.2623 0.0
C11 C 0.06679 0.50963 0.28339 0.0
N12 N 0.06761 0.51308 0.23796 0.0
N13 N 0.03602 0.50396 0.2995 0.0
C14 C 0.03906 0.51803 -0.01871 0.0
C15 C 0.98718 0.49008 -0.04441 0.0
N16 N 1.01727 0.5117 0.01663 0.0
N17 N 0.98513 0.49463 0.0004 0.0
N18 N 0.02069 0.50428 0.94261 0.0
H19 H 0.08684 0.53989 0.02095 0.0
H20 H 0.08941 0.56173 -0.03123 0.0
H21 H 0.08794 0.52045 -0.03272 0.0
C22 C 0.07798 0.53575 -0.01483 0.0
C23 C 0.98266 0.50074 0.26257 0.0
H24 H 0.98448 0.52507 0.24907 0.0
H25 H 0.97159 0.49605 0.29731 0.0
H26 H 0.96501 0.47902 0.23999 0.0
O27 O 1.00116 0.45859 0.15798 0.0
O28 O 0.97809 0.46111 0.09332 0.0
C29 C 0.97313 0.52645 0.12761 0.0
O30 O 0.05647 0.49293 0.07634 0.0
O31 O 0.07812 0.50949 0.14429 0.0
Zn32 Zn 0.51723 0.01968 0.48818 0.0
O33 O 0.57052 0.06663 0.48976 0.0
C34 C 0.50272 0.07369 0.4614 0.0
Zn35 Zn 0.52095 0.02359 0.41688 0.0
C36 C 0.58781 0.0738 0.45254 0.0
O37 O 0.57386 0.05453 0.41834 0.0
C38 C 0.45088 0.97086 0.44093 0.0
O39 O 0.52516 0.9757 0.41508 0.0
O40 O 0.53802 0.98722 0.48709 0.0
N41 N 0.52073 0.02962 0.34867 0.0
C42 C 0.51864 1.01023 0.3124 0.0
C43 C 0.51515 0.05392 0.28776 0.0
N44 N 0.51841 0.05661 0.33321 0.0
N45 N 0.51482 0.02486 0.27412 0.0
C46 C 0.52256 0.03378 0.59262 0.0
C47 C 0.49083 0.98161 0.61611 0.0
N48 N 0.51286 0.01279 0.55605 0.0
N49 N 0.49332 0.98048 0.5708 0.0
N50 N 0.50873 0.01472 0.63068 0.0
H51 H 0.54094 0.08258 0.55708 0.0
H52 H 0.5717 0.08051 0.59526 0.0
H53 H 0.5362 0.08459 0.61805 0.0
C54 C 0.54384 0.07266 0.59056 0.0
C55 C 0.52191 0.97813 0.31422 0.0
H56 H 0.54619 0.98395 0.33256 0.0
H57 H 0.52262 0.96855 0.2797 0.0
H58 H 0.49958 0.95736 0.33306 0.0
O59 O 0.46841 0.99344 0.41134 0.0
O60 O 0.4645 0.97323 0.48006 0.0
C61 C 0.53354 0.96793 0.4533 0.0
O62 O 0.49565 0.05164 0.49285 0.0
O63 O 0.51628 0.0705 0.42491 0.0
Zn64 Zn 0.53192 0.52745 0.82116 0.0
O65 O 0.52547 0.47442 0.82461 0.0
C66 C 0.60203 0.54215 0.79857 0.0
Zn67 Zn 0.53646 0.52552 0.74988 0.0
C68 C 0.51625 0.45761 0.78704 0.0
O69 O 0.51423 0.4727 0.75152 0.0
C70 C 0.55154 0.59478 0.77353 0.0
O71 O 0.48448 0.52107 0.74591 0.0
O72 O 0.47885 0.50713 0.81826 0.0
N73 N 0.54195 0.52467 0.68153 0.0
C74 C 0.52909 0.53453 0.64636 0.0
C75 C 0.56717 0.52326 0.61967 0.0
N76 N 0.56554 0.51763 0.66485 0.0
N77 N 0.54454 0.53383 0.60738 0.0
C78 C 0.53995 0.52161 0.92603 0.0
C79 C 0.5297 0.56141 0.94863 0.0
N80 N 0.53067 0.53356 0.88927 0.0
N81 N 0.52429 0.55819 0.90349 0.0
N82 N 0.53973 0.53893 -0.03652 0.0
H83 H 0.5281 0.46914 0.91578 0.0
H84 H 0.56157 0.49222 -0.04208 0.0
H85 H 0.57084 0.50132 0.8978 0.0
C86 C 0.55095 0.49462 0.92464 0.0
C87 C 0.50335 0.54705 0.65062 0.0
H88 H 0.47724 0.52443 0.65755 0.0
H89 H 0.50183 0.56005 0.61901 0.0
H90 H 0.51062 0.56545 0.67941 0.0
O91 O 0.55917 0.57868 0.74465 0.0
O92 O 0.53777 0.57947 0.81087 0.0
C93 C 0.46597 0.51148 0.78199 0.0
O94 O 0.58504 0.54849 0.82762 0.0
O95 O 0.58772 0.52952 0.76029 0.0
C96 C 0.106 0.47249 0.05494 0.0
C97 C 0.11063 0.49683 0.08872 0.0
C98 C 0.13422 0.47612 0.02951 0.0
C99 C 0.23564 0.48794 0.91784 0.0
C100 C 0.43826 0.5435 0.81245 0.0
C101 C 0.43469 0.51495 0.78733 0.0
C102 C 0.40907 0.54388 0.82968 0.0
C103 C 0.30428 0.54281 0.92359 0.0
H104 H 0.08015 0.45156 0.04659 0.0
H105 H 0.1297 0.45762 0.00269 0.0
H106 H 0.20921 0.46642 0.91545 0.0
H107 H 0.4639 0.56466 0.82113 0.0
H108 H 0.41272 0.56556 0.85055 0.0
H109 H 0.33082 0.56405 0.92649 0.0
C110 C 0.14446 0.52411 0.09792 0.0
C111 C 0.17278 0.52788 0.07209 0.0
C112 C 0.27868 0.54203 0.9523 0.0
C113 C 0.40118 0.48715 0.77846 0.0
C114 C 0.37177 0.48761 0.79563 0.0
C115 C 0.26123 0.48872 0.88914 0.0
C116 C 0.1676 0.50431 0.03708 0.0
C117 C 0.19587 0.50956 0.00741 0.0
C118 C 0.21827 0.51239 -0.01861 0.0
C119 C 0.24432 0.51435 0.94998 0.0
H120 H 0.14865 0.54382 0.12274 0.0
H121 H 0.19843 0.54993 0.07827 0.0
H122 H 0.28583 0.56271 -0.02321 0.0
H123 H 0.39786 0.46436 0.76058 0.0
H124 H 0.34615 0.46541 0.78988 0.0
H125 H 0.25418 0.46774 0.86516 0.0
C126 C 0.3757 0.51565 0.82224 0.0
C127 C 0.3462 0.5146 0.845 0.0
C128 C 0.32273 0.51539 0.86502 0.0
C129 C 0.29576 0.51595 0.8922 0.0
C130 C 0.61678 0.12566 0.40294 0.0
C131 C 0.61844 0.1084 0.44255 0.0
C132 C 0.64586 0.15575 0.38719 0.0
C133 C 0.74572 0.25954 0.29977 0.0
C134 C 0.94735 0.39431 0.18324 0.0
C135 C 0.94481 0.41236 0.14499 0.0
C136 C 0.91779 0.37108 0.20766 0.0
C137 C 0.81643 0.29279 0.32267 0.0
H138 H 0.59291 0.11525 0.38323 0.0
H139 H 0.64376 0.16776 0.35596 0.0
H140 H 0.71845 0.24665 0.29021 0.0
H141 H 0.97256 0.39968 0.19605 0.0
H142 H 0.92089 0.35883 0.23802 0.0
H143 H 0.84375 0.30524 0.33185 0.0
C144 C 0.64986 0.12285 0.46714 0.0
C145 C 0.67937 0.1533 0.45105 0.0
C146 C 0.79159 0.26822 0.35249 0.0
C147 C 0.91142 0.40467 0.13012 0.0
C148 C 0.88161 0.38113 0.15472 0.0
C149 C 0.77055 0.2841 0.26996 0.0
C150 C 0.67753 0.16954 0.41052 0.0
C151 C 0.70786 0.19918 0.39073 0.0
C152 C 0.73054 0.22368 0.36995 0.0
C153 C 0.7561 0.25111 0.34097 0.0
H154 H 0.65201 0.10993 0.49738 0.0
H155 H 0.70374 0.16357 0.4695 0.0
H156 H 0.80017 0.26212 0.38409 0.0
H157 H 0.90844 0.4183 0.10129 0.0
H158 H 0.85626 0.37657 0.14374 0.0
H159 H 0.76203 0.28974 0.23799 0.0
C160 C 0.88482 0.36492 0.19433 0.0
C161 C 0.85497 0.34282 0.22258 0.0
C162 C 0.83207 0.324 0.2487 0.0
C163 C 0.80611 0.30052 0.28092 0.0
C164 C 0.51242 0.91715 0.50472 0.0
C165 C 0.52951 0.93325 0.46387 0.0
C166 C 0.51095 0.88665 0.52017 0.0
C167 C 0.50758 0.78449 0.60888 0.0
C168 C 0.56987 0.643 0.71742 0.0
C169 C 0.55196 0.62694 0.75785 0.0
C170 C 0.56376 0.66719 0.69457 0.0
C171 C 0.53967 0.74622 0.584 0.0
H172 H 0.50059 0.9286 0.52549 0.0
H173 H 0.49834 0.87555 0.55234 0.0
H174 H 0.49536 0.79938 0.61915 0.0
H175 H 0.58726 0.63541 0.70192 0.0
H176 H 0.57681 0.67793 0.66254 0.0
H177 H 0.55244 0.73178 0.57408 0.0
C178 C 0.54382 0.91705 0.43757 0.0
C179 C 0.54245 0.88618 0.4534 0.0
C180 C 0.53908 0.77045 0.55356 0.0
C181 C 0.5294 0.63748 0.7764 0.0
C182 C 0.52337 0.66198 0.75337 0.0
C183 C 0.50818 0.76026 0.63934 0.0
C184 C 0.52645 0.87127 0.49523 0.0
C185 C 0.52696 0.84136 0.51478 0.0
C186 C 0.52506 0.81697 0.53613 0.0
C187 C 0.52339 0.79001 0.56603 0.0
H188 H 0.55714 0.92886 0.40609 0.0
H189 H 0.5546 0.87452 0.43367 0.0
H190 H 0.55145 0.77438 0.52068 0.0
H191 H 0.51491 0.62536 0.80708 0.0
H192 H 0.50489 0.6688 0.76719 0.0
H193 H 0.49638 0.75678 0.67255 0.0
C194 C 0.53989 0.6762 0.71173 0.0
C195 C 0.53181 0.69893 0.68509 0.0
C196 C 0.52743 0.71804 0.65963 0.0
C197 C 0.52462 0.74134 0.62726 0.0
C198 C 0.65336 0.56668 0.85014 0.0
C199 C 0.63459 0.54367 0.81457 0.0
C200 C 0.67767 0.56228 0.87567 0.0
C201 C 0.76228 0.54592 -0.00832 0.0
C202 C 0.91534 0.49549 0.09162 0.0
C203 C 0.93787 0.52165 0.1218 0.0
C204 C 0.88565 0.49507 0.07439 0.0
C205 C 0.78405 0.497 -0.0211 0.0
H206 H 0.64774 0.58694 0.86001 0.0
H207 H 0.69063 0.57952 0.90404 0.0
H208 H 0.75427 0.56516 -0.00317 0.0
H209 H 0.92198 0.47657 0.07898 0.0
H210 H 0.86963 0.47543 0.04969 0.0
H211 H 0.79249 0.47814 -0.02673 0.0
C212 C 0.64235 0.51742 0.80326 0.0
C213 C 0.6667 0.51292 0.82913 0.0
C214 C 0.75954 0.49787 0.94921 0.0
C215 C 0.92948 0.54692 0.13565 0.0
C216 C 0.89947 0.54644 0.11837 0.0
C217 C 0.78679 0.54505 0.02137 0.0
C218 C 0.68374 0.5348 0.86622 0.0
C219 C 0.70621 0.52851 0.89613 0.0
C220 C 0.72532 0.52507 0.92275 0.0
C221 C 0.7489 0.52264 -0.04492 0.0
H222 H 0.62793 0.49894 0.77668 0.0
H223 H 0.67114 0.49153 0.82133 0.0
H224 H 0.7494 0.47963 0.92123 0.0
H225 H 0.94705 0.56802 0.15756 0.0
H226 H 0.89401 0.56685 0.12801 0.0
H227 H 0.79737 0.56368 0.04889 0.0
C228 C 0.8779 0.52094 0.08681 0.0
C229 C 0.84951 0.52248 0.06409 0.0
C230 C 0.82536 0.52162 0.04328 0.0
C231 C 0.7981 0.52085 0.01483 0.0
C232 C 0.38864 0.92063 0.44981 0.0
C233 C 0.4192 0.93951 0.42423 0.0
C234 C 0.35857 0.89343 0.4292 0.0
C235 C 0.24788 0.78935 0.31446 0.0
C236 C 0.13432 0.63691 0.10768 0.0
C237 C 0.10388 0.61919 0.13392 0.0
C238 C 0.16277 0.66818 0.12373 0.0
C239 C 0.26996 0.78746 0.22593 0.0
H240 H 0.38763 0.92762 0.48478 0.0
H241 H 0.33484 0.87964 0.44876 0.0
H242 H 0.23902 0.78965 0.34865 0.0
H243 H 0.1368 0.62579 0.07617 0.0
H244 H 0.18646 0.68091 0.1039 0.0
H245 H 0.27892 0.78689 0.1919 0.0
C246 C 0.41951 0.92964 0.37881 0.0
C247 C 0.39002 0.9027 0.35871 0.0
C248 C 0.293 0.81216 0.25714 0.0
C249 C 0.10206 0.63432 0.17522 0.0
C250 C 0.13022 0.66509 0.19109 0.0
C251 C 0.22486 0.76469 0.28329 0.0
C252 C 0.35919 0.88478 0.38327 0.0
C253 C 0.32874 0.85829 0.35974 0.0
C254 C 0.30649 0.83742 0.33455 0.0
C255 C 0.28217 0.813 0.30173 0.0
H256 H 0.44268 0.94325 0.35817 0.0
H257 H 0.39121 0.89631 0.32345 0.0
H258 H 0.31939 0.8303 0.24662 0.0
H259 H 0.07915 0.62154 0.19654 0.0
H260 H 0.12825 0.67517 0.22379 0.0
H261 H 0.1986 0.74633 0.29403 0.0
C262 C 0.16098 0.68195 0.16605 0.0
C263 C 0.1906 0.71213 0.18598 0.0
C264 C 0.21223 0.7365 0.2079 0.0
C265 C 0.23582 0.76337 0.23898 0.0
C266 C 0.48458 0.39335 0.7762 0.0
C267 C 0.51627 0.42478 0.77906 0.0
C268 C 0.48199 0.36567 0.75003 0.0
C269 C 0.4745 0.2625 0.63363 0.0
C270 C 0.52503 0.13799 0.4574 0.0
C271 C 0.49928 0.10457 0.47116 0.0
C272 C 0.52551 0.16763 0.47516 0.0
C273 C 0.53041 0.27892 0.5753 0.0
H274 H 0.46125 0.3912 0.79113 0.0
H275 H 0.45695 0.34221 0.74663 0.0
H276 H 0.45278 0.25571 0.65624 0.0
H277 H 0.5459 0.14124 0.43517 0.0
H278 H 0.54638 0.19321 0.46571 0.0
H279 H 0.55238 0.28551 0.55322 0.0
C280 C 0.54562 0.42732 0.75702 0.0
C281 C 0.54295 0.39994 0.73051 0.0
C282 C 0.5313 0.30433 0.60445 0.0
C283 C 0.4733 0.10132 0.5014 0.0
C284 C 0.47361 0.13081 0.5187 0.0
C285 C 0.47361 0.23711 0.60449 0.0
C286 C 0.51089 0.36934 0.72576 0.0
C287 C 0.50733 0.34304 0.6936 0.0
C288 C 0.50536 0.32164 0.66643 0.0
C289 C 0.50355 0.2961 0.63424 0.0
H290 H 0.56989 0.45181 0.75668 0.0
H291 H 0.56549 0.40346 0.71168 0.0
H292 H 0.5539 0.33018 0.6043 0.0
H293 H 0.4534 0.07588 0.51301 0.0
H294 H 0.45383 0.12758 0.54292 0.0
H295 H 0.45127 0.2111 0.6052 0.0
C296 C 0.50009 0.16411 0.50647 0.0
C297 C 0.50207 0.19422 0.52845 0.0
C298 C 0.50194 0.21804 0.5483 0.0
C299 C 0.50174 0.24508 0.57558 0.0
C300 C 0.06012 0.52753 0.876 0.0
C301 C 0.0319 0.49987 0.89847 0.0
C302 C 0.0674 0.52393 0.83066 0.0
C303 C 0.06936 0.50591 0.64008 0.0
C304 C 0.99916 0.46891 0.36338 0.0
C305 C 0.02712 0.5 0.34672 0.0
C306 C 0.9954 0.46246 0.41034 0.0
C307 C 1.0054 0.45363 0.60616 0.0
H308 H 0.07519 0.55248 0.89232 0.0
H309 H 0.08816 0.54603 0.81313 0.0
H310 H 0.09394 0.52661 0.65289 0.0
H311 H 0.98161 0.44898 0.34004 0.0
H312 H 0.97465 0.43779 0.42281 0.0
H313 H 0.98044 0.43354 0.59345 0.0
C314 C 1.01233 0.46811 0.87551 0.0
C315 C 1.01952 0.4646 0.83035 0.0
C316 C 1.01228 0.45579 0.65287 0.0
C317 C 0.0501 0.52512 0.3774 0.0
C318 C 0.04629 0.51879 0.42403 0.0
C319 C 0.06249 0.50373 0.59336 0.0
C320 C 0.0464 0.49278 0.80739 0.0
C321 C 0.04908 0.49086 0.75887 0.0
C322 C 0.04919 0.48677 0.71839 0.0
C323 C 0.04411 0.48219 0.67 0.0
H324 H 0.99064 0.44631 0.89215 0.0
H325 H 1.00302 0.44038 0.81277 0.0
H326 H 0.99242 0.43746 0.6757 0.0
H327 H 0.07193 0.54904 0.36495 0.0
H328 H 0.06514 0.53807 0.44703 0.0
H329 H 0.08198 0.52264 0.57063 0.0
C330 C 1.01959 0.4871 0.44061 0.0
C331 C 1.01925 0.47952 0.48829 0.0
C332 C 0.02268 0.47723 0.52863 0.0
C333 C 0.0303 0.47789 0.57638 0.0
C334 C 0.54117 0.03522 0.19916 0.0
C335 C 0.51349 0.0145 0.22809 0.0
C336 C 0.53928 0.02693 0.1533 0.0
C337 C 0.54377 0.02466 -0.01738 0.0
C338 C 0.48141 1.00768 0.70479 0.0
C339 C 0.5111 0.02483 0.67728 0.0
C340 C 0.48447 1.01006 0.75192 0.0
C341 C 0.48985 0.98173 0.9234 0.0
H342 H 0.564 0.058 0.21217 0.0
H343 H 0.56074 0.04353 0.13113 0.0
H344 H 0.56451 0.04177 0.00544 0.0
H345 H 0.45617 0.99068 0.68976 0.0
H346 H 0.46158 0.99487 0.77263 0.0
H347 H 0.46873 0.96514 0.90071 0.0
C348 C 0.48383 0.98517 0.21109 0.0
C349 C 0.48179 0.97697 0.16492 0.0
C350 C 0.487 0.97393 -0.03021 0.0
C351 C 0.54355 0.04685 0.69743 0.0
C352 C 0.54662 0.04927 0.74482 0.0
C353 C 0.5466 0.03247 0.93628 0.0
C354 C 0.50951 0.99804 0.13604 0.0
C355 C 0.50707 0.99196 0.08811 0.0
C356 C 0.50919 0.99075 0.04758 0.0
C357 C 0.51375 0.9957 -0.00053 0.0
H358 H 0.4621 0.96938 0.23327 0.0
H359 H 0.45844 0.95484 0.15165 0.0
H360 H 0.46361 0.95162 -0.0174 0.0
H361 H 0.56682 0.05987 0.67691 0.0
H362 H 0.57212 0.06452 0.76016 0.0
H363 H 0.56959 0.05532 0.92367 0.0
C364 C 0.51727 0.02965 0.77195 0.0
C365 C 0.521 0.02566 0.81963 0.0
C366 C 0.52124 0.02044 0.8597 0.0
C367 C 0.51937 1.01137 0.9068 0.0
C368 C 0.50933 0.52356 0.53847 0.0
C369 C 0.54034 0.54381 0.56253 0.0
C370 C 0.50705 0.53044 0.4925 0.0
C371 C 0.50926 0.53633 0.30875 0.0
C372 C 0.57589 0.56382 0.03102 0.0
C373 C 0.54745 0.53567 0.00985 0.0
C374 C 0.57788 0.56606 0.0784 0.0
C375 C 0.56995 0.58387 0.26312 0.0
H376 H 0.48763 0.50152 0.55474 0.0
H377 H 0.48356 0.51352 0.47363 0.0
H378 H 0.48595 0.51738 0.32627 0.0
H379 H 0.59515 0.58515 0.01078 0.0
H380 H 0.59892 0.58896 0.09422 0.0
H381 H 0.59365 0.60223 0.24582 0.0
C382 C 0.56843 0.57206 0.54106 0.0
C383 C 0.56605 0.5792 0.49528 0.0
C384 C 0.56669 0.58762 0.30972 0.0
C385 C 0.52243 0.50845 0.0364 0.0
C386 C 0.52422 0.51081 0.08382 0.0
C387 C 0.51252 0.53257 0.26221 0.0
C388 C 0.53569 0.55782 0.47063 0.0
C389 C 0.53545 0.56137 0.42211 0.0
C390 C 0.53516 0.56427 0.38143 0.0
C391 C 0.53653 0.56355 0.33271 0.0
H392 H 0.59246 0.58787 0.55949 0.0
H393 H 0.58839 0.60037 0.47868 0.0
H394 H 0.58807 0.6086 0.328 0.0
H395 H 0.50006 0.48694 0.02038 0.0
H396 H 0.5034 0.49076 0.10391 0.0
H397 H 0.49153 0.511 0.24421 0.0
C398 C 0.55119 0.54032 0.10477 0.0
C399 C 0.54919 0.5462 0.15235 0.0
C400 C 0.54715 0.55076 0.19226 0.0
C401 C 0.54313 0.55595 0.23951 0.0
loop_
_geom_bond_atom_site_label_1
_geom_bond_atom_site_label_2
_geom_bond_distance
_geom_bond_site_symmetry_2
_ccdc_geom_bond_type
Zn0 O1 2.055 . S
Zn0 O8 2.046 1_455 S
Zn0 N16 2.038 . S
Zn0 O28 2.053 1_455 S
Zn0 O30 2.066 . S
O1 Zn0 2.055 . S
O1 C4 1.259 . S
C2 O30 1.256 . S
C2 O31 1.244 . S
Zn3 O5 2.046 . S
Zn3 O7 2.055 1_455 S
Zn3 N9 2.036 . S
Zn3 O27 2.066 1_455 S
Zn3 O31 2.053 . S
C4 O1 1.259 . S
C4 O5 1.254 . S
O5 Zn3 2.046 . S
O5 C4 1.254 . S
C6 O27 1.256 . S
C6 O28 1.244 . S
O7 Zn3 2.055 1_655 S
O7 C29 1.259 . S
O8 Zn0 2.046 1_655 S
O8 C29 1.254 . S
N9 Zn3 2.036 . S
N9 C10 1.298 1_455 S
N9 N12 1.398 . S
C10 N9 1.298 1_655 S
C10 N13 1.367 1_655 S
C10 C23 1.481 . S
C11 N12 1.299 . S
C11 N13 1.379 . S
N12 N9 1.398 . S
N12 C11 1.299 . S
N13 C10 1.367 1_455 S
N13 C11 1.379 . S
C14 N16 1.314 1_556 S
C14 N18 1.369 . S
C14 C22 1.480 1_556 S
C15 N17 1.299 1_556 S
C15 N18 1.379 1_655 S
N16 Zn0 2.038 . S
N16 C14 1.314 1_554 S
N16 N17 1.384 1_455 S
N17 C15 1.299 1_554 S
N17 N16 1.384 1_655 S
N18 C14 1.369 . S
N18 C15 1.379 1_455 S
H19 C22 0.980 . S
H20 C22 0.981 1_556 S
H21 C22 0.981 . S
C22 C14 1.480 1_554 S
C22 H19 0.980 . S
C22 H20 0.981 1_554 S
C22 H21 0.981 . S
C23 C10 1.481 . S
C23 H24 0.980 . S
C23 H25 0.981 . S
C23 H26 0.981 . S
H24 C23 0.980 . S
H25 C23 0.981 . S
H26 C23 0.981 . S
O27 Zn3 2.066 1_655 S
O27 C6 1.256 . S
O28 Zn0 2.053 1_655 S
O28 C6 1.244 . S
C29 O7 1.259 . S
C29 O8 1.254 . S
O30 Zn0 2.066 . S
O30 C2 1.256 . S
O31 C2 1.244 . S
O31 Zn3 2.053 . S
Zn32 O33 2.055 . S
Zn32 O40 2.046 1_545 S
Zn32 N48 2.038 . S
Zn32 O60 2.053 1_545 S
Zn32 O62 2.066 . S
O33 Zn32 2.055 . S
O33 C36 1.259 . S
C34 O62 1.256 . S
C34 O63 1.244 . S
Zn35 O37 2.046 . S
Zn35 O39 2.055 1_545 S
Zn35 N41 2.036 . S
Zn35 O59 2.066 1_545 S
Zn35 O63 2.053 . S
C36 O33 1.259 . S
C36 O37 1.254 . S
O37 Zn35 2.046 . S
O37 C36 1.254 . S
C38 O59 1.256 . S
C38 O60 1.244 . S
O39 Zn35 2.055 1_565 S
O39 C61 1.259 . S
O40 Zn32 2.046 1_565 S
O40 C61 1.254 . S
N41 Zn35 2.036 . S
N41 C42 1.298 1_545 S
N41 N44 1.398 . S
C42 N41 1.298 1_565 S
C42 N45 1.367 1_565 S
C42 C55 1.481 . S
C43 N44 1.299 . S
C43 N45 1.379 . S
N44 N41 1.398 . S
N44 C43 1.299 . S
N45 C42 1.367 1_545 S
N45 C43 1.379 . S
C46 N48 1.316 . S
C46 N50 1.367 . S
C46 C54 1.481 . S
C47 N49 1.299 . S
C47 N50 1.379 1_565 S
N48 Zn32 2.038 . S
N48 C46 1.316 . S
N48 N49 1.384 1_545 S
N49 C47 1.299 . S
N49 N48 1.384 1_565 S
N50 C46 1.367 . S
N50 C47 1.379 1_545 S
H51 C54 0.980 . S
H52 C54 0.981 . S
H53 C54 0.981 . S
C54 C46 1.481 . S
C54 H51 0.980 . S
C54 H52 0.981 . S
C54 H53 0.981 . S
C55 C42 1.481 . S
C55 H56 0.980 . S
C55 H57 0.981 . S
C55 H58 0.981 . S
H56 C55 0.980 . S
H57 C55 0.981 . S
H58 C55 0.981 . S
O59 Zn35 2.066 1_565 S
O59 C38 1.256 . S
O60 Zn32 2.053 1_565 S
O60 C38 1.244 . S
C61 O39 1.259 . S
C61 O40 1.254 . S
O62 Zn32 2.066 . S
O62 C34 1.256 . S
O63 C34 1.244 . S
O63 Zn35 2.053 . S
Zn64 O65 2.055 . S
Zn64 O72 2.046 . S
Zn64 N80 2.036 . S
Zn64 O92 2.053 . S
Zn64 O94 2.066 . S
O65 Zn64 2.055 . S
O65 C68 1.259 . S
C66 O94 1.256 . S
C66 O95 1.244 . S
Zn67 O69 2.046 . S
Zn67 O71 2.055 . S
Zn67 N73 2.036 . S
Zn67 O91 2.066 . S
Zn67 O95 2.053 . S
C68 O65 1.259 . S
C68 O69 1.254 . S
O69 Zn67 2.046 . S
O69 C68 1.254 . S
C70 O91 1.256 . S
C70 O92 1.244 . S
O71 Zn67 2.055 . S
O71 C93 1.259 . S
O72 Zn64 2.046 . S
O72 C93 1.254 . S
N73 Zn67 2.036 . S
N73 C74 1.298 . S
N73 N76 1.398 . S
C74 N73 1.298 . S
C74 N77 1.367 . S
C74 C87 1.481 . S
C75 N76 1.299 . S
C75 N77 1.379 . S
N76 N73 1.398 . S
N76 C75 1.299 . S
N77 C74 1.367 . S
N77 C75 1.379 . S
C78 N80 1.296 1_554 S
C78 N82 1.369 . S
C78 C86 1.480 1_554 S
C79 N81 1.299 1_554 S
C79 N82 1.379 . S
N80 Zn64 2.036 . S
N80 C78 1.296 1_556 S
N80 N81 1.398 . S
N81 C79 1.299 1_556 S
N81 N80 1.398 . S
N82 C78 1.369 . S
N82 C79 1.379 . S
H83 C86 0.980 . S
H84 C86 0.981 1_554 S
H85 C86 0.981 . S
C86 C78 1.480 1_556 S
C86 H83 0.980 . S
C86 H84 0.981 1_556 S
C86 H85 0.981 . S
C87 C74 1.481 . S
C87 H88 0.980 . S
C87 H89 0.981 . S
C87 H90 0.981 . S
H88 C87 0.980 . S
H89 C87 0.981 . S
H90 C87 0.981 . S
O91 Zn67 2.066 . S
O91 C70 1.256 . S
O92 Zn64 2.053 . S
O92 C70 1.244 . S
C93 O71 1.259 . S
C93 O72 1.254 . S
O94 Zn64 2.066 . S
O94 C66 1.256 . S
O95 C66 1.244 . S
O95 Zn67 2.053 . S
C96 C97 1.420 . S
C96 C98 1.385 . S
C96 H104 0.928 . S
C97 C96 1.420 . S
C97 C110 1.420 . S
C98 C96 1.385 . S
C98 H105 0.929 . S
C98 C116 1.407 . S
C99 H106 0.928 . S
C99 C115 1.374 . S
C99 C119 1.388 . S
C100 C101 1.420 . S
C100 C102 1.385 . S
C100 H107 0.928 . S
C101 C100 1.420 . S
C101 C113 1.420 . S
C102 C100 1.385 . S
C102 H108 0.929 . S
C102 C126 1.407 . S
C103 H109 0.928 . S
C103 C112 1.374 . S
C103 C129 1.388 . S
H104 C96 0.928 . S
H105 C98 0.929 . S
H106 C99 0.928 . S
H107 C100 0.928 . S
H108 C102 0.929 . S
H109 C103 0.928 . S
C110 C97 1.420 . S
C110 C111 1.385 . S
C110 H120 0.928 . S
C111 C110 1.385 . S
C111 C116 1.407 . S
C111 H121 0.929 . S
C112 C103 1.374 . S
C112 C119 1.388 . S
C112 H122 0.928 1_556 S
C113 C101 1.420 . S
C113 C114 1.385 . S
C113 H123 0.928 . S
C114 C113 1.385 . S
C114 H124 0.929 . S
C114 C126 1.407 . S
C115 C99 1.374 . S
C115 H125 0.928 . S
C115 C129 1.388 . S
C116 C98 1.407 . S
C116 C111 1.407 . S
C116 C117 1.428 . S
C117 C116 1.428 . S
C117 C118 1.230 . S
C118 C117 1.230 . S
C118 C119 1.405 1_554 S
C119 C99 1.388 . S
C119 C112 1.388 . S
C119 C118 1.405 1_556 S
H120 C110 0.928 . S
H121 C111 0.929 . S
H122 C112 0.928 1_554 S
H123 C113 0.928 . S
H124 C114 0.929 . S
H125 C115 0.928 . S
C126 C102 1.407 . S
C126 C114 1.407 . S
C126 C127 1.428 . S
C127 C126 1.428 . S
C127 C128 1.230 . S
C128 C127 1.230 . S
C128 C129 1.405 . S
C129 C103 1.388 . S
C129 C115 1.388 . S
C129 C128 1.405 . S
C130 C131 1.420 . S
C130 C132 1.385 . S
C130 H138 0.928 . S
C131 C130 1.420 . S
C131 C144 1.420 . S
C132 C130 1.385 . S
C132 H139 0.929 . S
C132 C150 1.407 . S
C133 H140 0.928 . S
C133 C149 1.374 . S
C133 C153 1.388 . S
C134 C135 1.420 . S
C134 C136 1.385 . S
C134 H141 0.928 . S
C135 C134 1.420 . S
C135 C147 1.420 . S
C136 C134 1.385 . S
C136 H142 0.929 . S
C136 C160 1.407 . S
C137 H143 0.928 . S
C137 C146 1.374 . S
C137 C163 1.388 . S
H138 C130 0.928 . S
H139 C132 0.929 . S
H140 C133 0.928 . S
H141 C134 0.928 . S
H142 C136 0.929 . S
H143 C137 0.928 . S
C144 C131 1.420 . S
C144 C145 1.385 . S
C144 H154 0.928 . S
C145 C144 1.385 . S
C145 C150 1.407 . S
C145 H155 0.929 . S
C146 C137 1.374 . S
C146 C153 1.388 . S
C146 H156 0.928 . S
C147 C135 1.420 . S
C147 C148 1.385 . S
C147 H157 0.928 . S
C148 C147 1.385 . S
C148 H158 0.929 . S
C148 C160 1.407 . S
C149 C133 1.374 . S
C149 H159 0.928 . S
C149 C163 1.388 . S
C150 C132 1.407 . S
C150 C145 1.407 . S
C150 C151 1.428 . S
C151 C150 1.428 . S
C151 C152 1.230 . S
C152 C151 1.230 . S
C152 C153 1.405 . S
C153 C133 1.388 . S
C153 C146 1.388 . S
C153 C152 1.405 . S
H154 C144 0.928 . S
H155 C145 0.929 . S
H156 C146 0.928 . S
H157 C147 0.928 . S
H158 C148 0.929 . S
H159 C149 0.928 . S
C160 C136 1.407 . S
C160 C148 1.407 . S
C160 C161 1.428 . S
C161 C160 1.428 . S
C161 C162 1.230 . S
C162 C161 1.230 . S
C162 C163 1.405 . S
C163 C137 1.388 . S
C163 C149 1.388 . S
C163 C162 1.405 . S
C164 C165 1.420 . S
C164 C166 1.385 . S
C164 H172 0.928 . S
C165 C164 1.420 . S
C165 C178 1.420 . S
C166 C164 1.385 . S
C166 H173 0.929 . S
C166 C184 1.407 . S
C167 H174 0.928 . S
C167 C183 1.374 . S
C167 C187 1.388 . S
C168 C169 1.420 . S
C168 C170 1.385 . S
C168 H175 0.928 . S
C169 C168 1.420 . S
C169 C181 1.420 . S
C170 C168 1.385 . S
C170 H176 0.929 . S
C170 C194 1.407 . S
C171 H177 0.928 . S
C171 C180 1.374 . S
C171 C197 1.388 . S
H172 C164 0.928 . S
H173 C166 0.929 . S
H174 C167 0.928 . S
H175 C168 0.928 . S
H176 C170 0.929 . S
H177 C171 0.928 . S
C178 C165 1.420 . S
C178 C179 1.385 . S
C178 H188 0.928 . S
C179 C178 1.385 . S
C179 C184 1.407 . S
C179 H189 0.929 . S
C180 C171 1.374 . S
C180 C187 1.388 . S
C180 H190 0.928 . S
C181 C169 1.420 . S
C181 C182 1.385 . S
C181 H191 0.928 . S
C182 C181 1.385 . S
C182 H192 0.929 . S
C182 C194 1.407 . S
C183 C167 1.374 . S
C183 H193 0.928 . S
C183 C197 1.388 . S
C184 C166 1.407 . S
C184 C179 1.407 . S
C184 C185 1.428 . S
C185 C184 1.428 . S
C185 C186 1.230 . S
C186 C185 1.230 . S
C186 C187 1.405 . S
C187 C167 1.388 . S
C187 C180 1.388 . S
C187 C186 1.405 . S
H188 C178 0.928 . S
H189 C179 0.929 . S
H190 C180 0.928 . S
H191 C181 0.928 . S
H192 C182 0.929 . S
H193 C183 0.928 . S
C194 C170 1.407 . S
C194 C182 1.407 . S
C194 C195 1.428 . S
C195 C194 1.428 . S
C195 C196 1.230 . S
C196 C195 1.230 . S
C196 C197 1.405 . S
C197 C171 1.388 . S
C197 C183 1.388 . S
C197 C196 1.405 . S
C198 C199 1.420 . S
C198 C200 1.385 . S
C198 H206 0.928 . S
C199 C198 1.420 . S
C199 C212 1.420 . S
C200 C198 1.385 . S
C200 H207 0.929 . S
C200 C218 1.407 . S
C201 H208 0.928 . S
C201 C217 1.374 . S
C201 C221 1.388 . S
C202 C203 1.420 . S
C202 C204 1.385 . S
C202 H209 0.928 . S
C203 C202 1.420 . S
C203 C215 1.420 . S
C204 C202 1.385 . S
C204 H210 0.929 . S
C204 C228 1.407 . S
C205 H211 0.928 . S
C205 C214 1.374 1_554 S
C205 C231 1.388 . S
H206 C198 0.928 . S
H207 C200 0.929 . S
H208 C201 0.928 . S
H209 C202 0.928 . S
H210 C204 0.929 . S
H211 C205 0.928 . S
C212 C199 1.420 . S
C212 C213 1.385 . S
C212 H222 0.928 . S
C213 C212 1.385 . S
C213 C218 1.407 . S
C213 H223 0.929 . S
C214 C205 1.374 1_556 S
C214 C221 1.388 1_556 S
C214 H224 0.928 . S
C215 C203 1.420 . S
C215 C216 1.385 . S
C215 H225 0.928 . S
C216 C215 1.385 . S
C216 H226 0.929 . S
C216 C228 1.407 . S
C217 C201 1.374 . S
C217 H227 0.928 . S
C217 C231 1.388 . S
C218 C200 1.407 . S
C218 C213 1.407 . S
C218 C219 1.428 . S
C219 C218 1.428 . S
C219 C220 1.230 . S
C220 C219 1.230 . S
C220 C221 1.405 1_556 S
C221 C201 1.388 . S
C221 C214 1.388 1_554 S
C221 C220 1.405 1_554 S
H222 C212 0.928 . S
H223 C213 0.929 . S
H224 C214 0.928 . S
H225 C215 0.928 . S
H226 C216 0.929 . S
H227 C217 0.928 . S
C228 C204 1.407 . S
C228 C216 1.407 . S
C228 C229 1.428 . S
C229 C228 1.428 . S
C229 C230 1.230 . S
C230 C229 1.230 . S
C230 C231 1.405 . S
C231 C205 1.388 . S
C231 C217 1.388 . S
C231 C230 1.405 . S
C232 C233 1.420 . S
C232 C234 1.385 . S
C232 H240 0.928 . S
C233 C232 1.420 . S
C233 C246 1.420 . S
C234 C232 1.385 . S
C234 H241 0.929 . S
C234 C252 1.407 . S
C235 H242 0.928 . S
C235 C251 1.374 . S
C235 C255 1.388 . S
C236 C237 1.420 . S
C236 C238 1.385 . S
C236 H243 0.928 . S
C237 C236 1.420 . S
C237 C249 1.420 . S
C238 C236 1.385 . S
C238 H244 0.929 . S
C238 C262 1.407 . S
C239 H245 0.928 . S
C239 C248 1.374 . S
C239 C265 1.388 . S
H240 C232 0.928 . S
H241 C234 0.929 . S
H242 C235 0.928 . S
H243 C236 0.928 . S
H244 C238 0.929 . S
H245 C239 0.928 . S
C246 C233 1.420 . S
C246 C247 1.385 . S
C246 H256 0.928 . S
C247 C246 1.385 . S
C247 C252 1.407 . S
C247 H257 0.929 . S
C248 C239 1.374 . S
C248 C255 1.388 . S
C248 H258 0.928 . S
C249 C237 1.420 . S
C249 C250 1.385 . S
C249 H259 0.928 . S
C250 C249 1.385 . S
C250 H260 0.929 . S
C250 C262 1.407 . S
C251 C235 1.374 . S
C251 H261 0.928 . S
C251 C265 1.388 . S
C252 C234 1.407 . S
C252 C247 1.407 . S
C252 C253 1.428 . S
C253 C252 1.428 . S
C253 C254 1.230 . S
C254 C253 1.230 . S
C254 C255 1.405 . S
C255 C235 1.388 . S
C255 C248 1.388 . S
C255 C254 1.405 . S
H256 C246 0.928 . S
H257 C247 0.929 . S
H258 C248 0.928 . S
H259 C249 0.928 . S
H260 C250 0.929 . S
H261 C251 0.928 . S
C262 C238 1.407 . S
C262 C250 1.407 . S
C262 C263 1.428 . S
C263 C262 1.428 . S
C263 C264 1.230 . S
C264 C263 1.230 . S
C264 C265 1.405 . S
C265 C239 1.388 . S
C265 C251 1.388 . S
C265 C264 1.405 . S
C266 C267 1.420 . S
C266 C268 1.385 . S
C266 H274 0.928 . S
C267 C266 1.420 . S
C267 C280 1.420 . S
C268 C266 1.385 . S
C268 H275 0.929 . S
C268 C286 1.407 . S
C269 H276 0.928 . S
C269 C285 1.374 . S
C269 C289 1.388 . S
C270 C271 1.420 . S
C270 C272 1.385 . S
C270 H277 0.928 . S
C271 C270 1.420 . S
C271 C283 1.420 . S
C272 C270 1.385 . S
C272 H278 0.929 . S
C272 C296 1.407 . S
C273 H279 0.928 . S
C273 C282 1.374 . S
C273 C299 1.388 . S
H274 C266 0.928 . S
H275 C268 0.929 . S
H276 C269 0.928 . S
H277 C270 0.928 . S
H278 C272 0.929 . S
H279 C273 0.928 . S
C280 C267 1.420 . S
C280 C281 1.385 . S
C280 H290 0.928 . S
C281 C280 1.385 . S
C281 C286 1.407 . S
C281 H291 0.929 . S
C282 C273 1.374 . S
C282 C289 1.388 . S
C282 H292 0.928 . S
C283 C271 1.420 . S
C283 C284 1.385 . S
C283 H293 0.928 . S
C284 C283 1.385 . S
C284 H294 0.929 . S
C284 C296 1.407 . S
C285 C269 1.374 . S
C285 H295 0.928 . S
C285 C299 1.388 . S
C286 C268 1.407 . S
C286 C281 1.407 . S
C286 C287 1.428 . S
C287 C286 1.428 . S
C287 C288 1.230 . S
C288 C287 1.230 . S
C288 C289 1.405 . S
C289 C269 1.388 . S
C289 C282 1.388 . S
C289 C288 1.405 . S
H290 C280 0.928 . S
H291 C281 0.929 . S
H292 C282 0.928 . S
H293 C283 0.928 . S
H294 C284 0.929 . S
H295 C285 0.928 . S
C296 C272 1.407 . S
C296 C284 1.407 . S
C296 C297 1.428 . S
C297 C296 1.428 . S
C297 C298 1.230 . S
C298 C297 1.230 . S
C298 C299 1.405 . S
C299 C273 1.388 . S
C299 C285 1.388 . S
C299 C298 1.405 . S
C300 C301 1.420 . S
C300 C302 1.385 . S
C300 H308 0.928 . S
C301 C300 1.420 . S
C301 C314 1.420 1_455 S
C302 C300 1.385 . S
C302 H309 0.929 . S
C302 C320 1.407 . S
C303 H310 0.928 . S
C303 C319 1.374 . S
C303 C323 1.388 . S
C304 C305 1.420 . S
C304 C306 1.385 . S
C304 H311 0.928 . S
C305 C304 1.420 . S
C305 C317 1.420 1_655 S
C306 C304 1.385 . S
C306 H312 0.929 . S
C306 C330 1.407 1_655 S
C307 H313 0.928 . S
C307 C316 1.374 . S
C307 C333 1.388 1_655 S
H308 C300 0.928 . S
H309 C302 0.929 . S
H310 C303 0.928 . S
H311 C304 0.928 . S
H312 C306 0.929 . S
H313 C307 0.928 . S
C314 C301 1.420 1_655 S
C314 C315 1.385 . S
C314 H324 0.928 . S
C315 C314 1.385 . S
C315 C320 1.407 1_655 S
C315 H325 0.929 . S
C316 C307 1.374 . S
C316 C323 1.388 1_655 S
C316 H326 0.928 . S
C317 C305 1.420 1_455 S
C317 C318 1.385 . S
C317 H327 0.928 . S
C318 C317 1.385 . S
C318 H328 0.929 . S
C318 C330 1.407 . S
C319 C303 1.374 . S
C319 H329 0.928 . S
C319 C333 1.388 . S
C320 C302 1.407 . S
C320 C315 1.407 1_455 S
C320 C321 1.428 . S
C321 C320 1.428 . S
C321 C322 1.230 . S
C322 C321 1.230 . S
C322 C323 1.405 . S
C323 C303 1.388 . S
C323 C316 1.388 1_455 S
C323 C322 1.405 . S
H324 C314 0.928 . S
H325 C315 0.929 . S
H326 C316 0.928 . S
H327 C317 0.928 . S
H328 C318 0.929 . S
H329 C319 0.928 . S
C330 C306 1.407 1_455 S
C330 C318 1.407 . S
C330 C331 1.428 . S
C331 C330 1.428 . S
C331 C332 1.230 . S
C332 C331 1.230 . S
C332 C333 1.405 . S
C333 C307 1.388 1_455 S
C333 C319 1.388 . S
C333 C332 1.405 . S
C334 C335 1.420 1_545 S
C334 C336 1.385 . S
C334 H342 0.928 . S
C335 C334 1.420 1_565 S
C335 C348 1.420 . S
C336 C334 1.385 . S
C336 H343 0.929 . S
C336 C354 1.407 1_545 S
C337 H344 0.928 . S
C337 C353 1.374 1_554 S
C337 C357 1.388 1_545 S
C338 C339 1.420 1_565 S
C338 C340 1.385 . S
C338 H345 0.928 . S
C339 C338 1.420 1_545 S
C339 C351 1.420 . S
C340 C338 1.385 . S
C340 H346 0.929 . S
C340 C364 1.407 1_565 S
C341 H347 0.928 . S
C341 C350 1.374 1_556 S
C341 C367 1.388 . S
H342 C334 0.928 . S
H343 C336 0.929 . S
H344 C337 0.928 . S
H345 C338 0.928 . S
H346 C340 0.929 . S
H347 C341 0.928 . S
C348 C335 1.420 . S
C348 C349 1.385 . S
C348 H358 0.928 . S
C349 C348 1.385 . S
C349 C354 1.407 . S
C349 H359 0.929 . S
C350 C341 1.374 1_554 S
C350 C357 1.388 . S
C350 H360 0.928 . S
C351 C339 1.420 . S
C351 C352 1.385 . S
C351 H361 0.928 . S
C352 C351 1.385 . S
C352 H362 0.929 . S
C352 C364 1.407 . S
C353 C337 1.374 1_556 S
C353 H363 0.928 . S
C353 C367 1.388 1_545 S
C354 C336 1.407 1_565 S
C354 C349 1.407 . S
C354 C355 1.428 . S
C355 C354 1.428 . S
C355 C356 1.230 . S
C356 C355 1.230 . S
C356 C357 1.405 . S
C357 C337 1.388 1_565 S
C357 C350 1.388 . S
C357 C356 1.405 . S
H358 C348 0.928 . S
H359 C349 0.929 . S
H360 C350 0.928 . S
H361 C351 0.928 . S
H362 C352 0.929 . S
H363 C353 0.928 . S
C364 C340 1.407 1_545 S
C364 C352 1.407 . S
C364 C365 1.428 . S
C365 C364 1.428 . S
C365 C366 1.223 1_545 S
C366 C365 1.223 1_565 S
C366 C367 1.409 . S
C367 C341 1.388 . S
C367 C353 1.388 1_565 S
C367 C366 1.409 . S
C368 C369 1.420 . S
C368 C370 1.385 . S
C368 H376 0.928 . S
C369 C368 1.420 . S
C369 C382 1.420 . S
C370 C368 1.385 . S
C370 H377 0.929 . S
C370 C388 1.407 . S
C371 H378 0.928 . S
C371 C387 1.374 . S
C371 C391 1.388 . S
C372 C373 1.420 . S
C372 C374 1.385 . S
C372 H379 0.928 . S
C373 C372 1.420 . S
C373 C385 1.420 . S
C374 C372 1.385 . S
C374 H380 0.929 . S
C374 C398 1.407 . S
C375 H381 0.928 . S
C375 C384 1.374 . S
C375 C401 1.388 . S
H376 C368 0.928 . S
H377 C370 0.929 . S
H378 C371 0.928 . S
H379 C372 0.928 . S
H380 C374 0.929 . S
H381 C375 0.928 . S
C382 C369 1.420 . S
C382 C383 1.385 . S
C382 H392 0.928 . S
C383 C382 1.385 . S
C383 C388 1.407 . S
C383 H393 0.929 . S
C384 C375 1.374 . S
C384 C391 1.388 . S
C384 H394 0.928 . S
C385 C373 1.420 . S
C385 C386 1.385 . S
C385 H395 0.928 . S
C386 C385 1.385 . S
C386 H396 0.929 . S
C386 C398 1.407 . S
C387 C371 1.374 . S
C387 H397 0.928 . S
C387 C401 1.388 . S
C388 C370 1.407 . S
C388 C383 1.407 . S
C388 C389 1.428 . S
C389 C388 1.428 . S
C389 C390 1.230 . S
C390 C389 1.230 . S
C390 C391 1.405 . S
C391 C371 1.388 . S
C391 C384 1.388 . S
C391 C390 1.405 . S
H392 C382 0.928 . S
H393 C383 0.929 . S
H394 C384 0.928 . S
H395 C385 0.928 . S
H396 C386 0.929 . S
H397 C387 0.928 . S
C398 C374 1.407 . S
C398 C386 1.407 . S
C398 C399 1.428 . S
C399 C398 1.428 . S
C399 C400 1.230 . S
C400 C399 1.230 . S
C400 C401 1.405 . S
C401 C375 1.388 . S
C401 C387 1.388 . S
C401 C400 1.405 . S
C97 C2 1.734 . S
C101 C93 1.743 . S
C131 C36 1.740 . S
C135 C6 1.736 . S
C165 C61 1.739 . S
C169 C70 1.736 . S
C199 C66 1.735 . S
C203 C29 1.742 . S
C233 C38 1.744 . S
C237 C4 1.737 . S
C267 C68 1.722 . S
C271 C34 1.755 . S
C301 N18 0.653 . S
C305 N13 0.626 1_655 S
C335 N45 0.649 1_565 S
C339 N50 0.609 . S
C369 N77 0.669 . S
C373 N82 0.600 . S
