# Generated by pormake.
# Topology dei, (4)-cn, num edge types: 1
# Building blocks:
#     Node 0, Type 0, BuildingBlock: GALJAG_clean_sbu_0, # of connection points: 4
#     Node 1, Type 0, BuildingBlock: GALJAG_clean_sbu_0, # of connection points: 4
#     Node 2, Type 0, BuildingBlock: GALJAG_clean_sbu_0, # of connection points: 4
#     Node 3, Type 0, BuildingBlock: GALJAG_clean_sbu_0, # of connection points: 4
#     Node 4, Type 0, BuildingBlock: GALJAG_clean_sbu_0, # of connection points: 4
#     Node 5, Type 0, BuildingBlock: GALJAG_clean_sbu_0, # of connection points: 4
#     Node 6, Type 0, BuildingBlock: GALJAG_clean_sbu_0, # of connection points: 4
#     Node 7, Type 0, BuildingBlock: GALJAG_clean_sbu_0, # of connection points: 4
#     Node 8, Type 0, BuildingBlock: GALJAG_clean_sbu_0, # of connection points: 4
#     Node 9, Type 0, BuildingBlock: GALJAG_clean_sbu_0, # of connection points: 4
#     Node 10, Type 0, BuildingBlock: GALJAG_clean_sbu_0, # of connection points: 4
#     Node 11, Type 0, BuildingBlock: GALJAG_clean_sbu_0, # of connection points: 4
#     Node 12, Type 0, BuildingBlock: GALJAG_clean_sbu_0, # of connection points: 4
#     Node 13, Type 0, BuildingBlock: GALJAG_clean_sbu_0, # of connection points: 4
#     Node 14, Type 0, BuildingBlock: GALJAG_clean_sbu_0, # of connection points: 4
#     Node 15, Type 0, BuildingBlock: GALJAG_clean_sbu_0, # of connection points: 4
#     Node 16, Type 0, BuildingBlock: GALJAG_clean_sbu_0, # of connection points: 4
#     Node 17, Type 0, BuildingBlock: GALJAG_clean_sbu_0, # of connection points: 4
#     Node 18, Type 0, BuildingBlock: GALJAG_clean_sbu_0, # of connection points: 4
#     Node 19, Type 0, BuildingBlock: GALJAG_clean_sbu_0, # of connection points: 4
#     Node 20, Type 0, BuildingBlock: GALJAG_clean_sbu_0, # of connection points: 4
#     Node 21, Type 0, BuildingBlock: GALJAG_clean_sbu_0, # of connection points: 4
#     Node 22, Type 0, BuildingBlock: GALJAG_clean_sbu_0, # of connection points: 4
#     Node 23, Type 0, BuildingBlock: GALJAG_clean_sbu_0, # of connection points: 4
#     Node 24, Type 0, BuildingBlock: GALJAG_clean_sbu_0, # of connection points: 4
#     Node 25, Type 0, BuildingBlock: GALJAG_clean_sbu_0, # of connection points: 4
#     Node 26, Type 0, BuildingBlock: GALJAG_clean_sbu_0, # of connection points: 4
#     Node 27, Type 0, BuildingBlock: GALJAG_clean_sbu_0, # of connection points: 4
#     Node 28, Type 0, BuildingBlock: GALJAG_clean_sbu_0, # of connection points: 4
#     Node 29, Type 0, BuildingBlock: GALJAG_clean_sbu_0, # of connection points: 4
#     Node 30, Type 0, BuildingBlock: GALJAG_clean_sbu_0, # of connection points: 4
#     Node 31, Type 0, BuildingBlock: GALJAG_clean_sbu_0, # of connection points: 4
#     Edge 32, Type (0, 0), BuildingBlock: EZIPEK_clean_linker_0, # of connection points: 2
#     Edge 33, Type (0, 0), BuildingBlock: EZIPEK_clean_linker_0, # of connection points: 2
#     Edge 34, Type (0, 0), BuildingBlock: EZIPEK_clean_linker_0, # of connection points: 2
#     Edge 35, Type (0, 0), BuildingBlock: EZIPEK_clean_linker_0, # of connection points: 2
#     Edge 36, Type (0, 0), BuildingBlock: EZIPEK_clean_linker_0, # of connection points: 2
#     Edge 37, Type (0, 0), BuildingBlock: EZIPEK_clean_linker_0, # of connection points: 2
#     Edge 38, Type (0, 0), BuildingBlock: EZIPEK_clean_linker_0, # of connection points: 2
#     Edge 39, Type (0, 0), BuildingBlock: EZIPEK_clean_linker_0, # of connection points: 2
#     Edge 40, Type (0, 0), BuildingBlock: EZIPEK_clean_linker_0, # of connection points: 2
#     Edge 41, Type (0, 0), BuildingBlock: EZIPEK_clean_linker_0, # of connection points: 2
#     Edge 42, Type (0, 0), BuildingBlock: EZIPEK_clean_linker_0, # of connection points: 2
#     Edge 43, Type (0, 0), BuildingBlock: EZIPEK_clean_linker_0, # of connection points: 2
#     Edge 44, Type (0, 0), BuildingBlock: EZIPEK_clean_linker_0, # of connection points: 2
#     Edge 45, Type (0, 0), BuildingBlock: EZIPEK_clean_linker_0, # of connection points: 2
#     Edge 46, Type (0, 0), BuildingBlock: EZIPEK_clean_linker_0, # of connection points: 2
#     Edge 47, Type (0, 0), BuildingBlock: EZIPEK_clean_linker_0, # of connection points: 2
#     Edge 48, Type (0, 0), BuildingBlock: EZIPEK_clean_linker_0, # of connection points: 2
#     Edge 49, Type (0, 0), BuildingBlock: EZIPEK_clean_linker_0, # of connection points: 2
#     Edge 50, Type (0, 0), BuildingBlock: EZIPEK_clean_linker_0, # of connection points: 2
#     Edge 51, Type (0, 0), BuildingBlock: EZIPEK_clean_linker_0, # of connection points: 2
#     Edge 52, Type (0, 0), BuildingBlock: EZIPEK_clean_linker_0, # of connection points: 2
#     Edge 53, Type (0, 0), BuildingBlock: EZIPEK_clean_linker_0, # of connection points: 2
#     Edge 54, Type (0, 0), BuildingBlock: EZIPEK_clean_linker_0, # of connection points: 2
#     Edge 55, Type (0, 0), BuildingBlock: EZIPEK_clean_linker_0, # of connection points: 2
#     Edge 56, Type (0, 0), BuildingBlock: EZIPEK_clean_linker_0, # of connection points: 2
#     Edge 57, Type (0, 0), BuildingBlock: EZIPEK_clean_linker_0, # of connection points: 2
#     Edge 58, Type (0, 0), BuildingBlock: EZIPEK_clean_linker_0, # of connection points: 2
#     Edge 59, Type (0, 0), BuildingBlock: EZIPEK_clean_linker_0, # of connection points: 2
#     Edge 60, Type (0, 0), BuildingBlock: EZIPEK_clean_linker_0, # of connection points: 2
#     Edge 61, Type (0, 0), BuildingBlock: EZIPEK_clean_linker_0, # of connection points: 2
#     Edge 62, Type (0, 0), BuildingBlock: EZIPEK_clean_linker_0, # of connection points: 2
#     Edge 63, Type (0, 0), BuildingBlock: EZIPEK_clean_linker_0, # of connection points: 2
#     Edge 64, Type (0, 0), BuildingBlock: EZIPEK_clean_linker_0, # of connection points: 2
#     Edge 65, Type (0, 0), BuildingBlock: EZIPEK_clean_linker_0, # of connection points: 2
#     Edge 66, Type (0, 0), BuildingBlock: EZIPEK_clean_linker_0, # of connection points: 2
#     Edge 67, Type (0, 0), BuildingBlock: EZIPEK_clean_linker_0, # of connection points: 2
#     Edge 68, Type (0, 0), BuildingBlock: EZIPEK_clean_linker_0, # of connection points: 2
#     Edge 69, Type (0, 0), BuildingBlock: EZIPEK_clean_linker_0, # of connection points: 2
#     Edge 70, Type (0, 0), BuildingBlock: EZIPEK_clean_linker_0, # of connection points: 2
#     Edge 71, Type (0, 0), BuildingBlock: EZIPEK_clean_linker_0, # of connection points: 2
#     Edge 72, Type (0, 0), BuildingBlock: EZIPEK_clean_linker_0, # of connection points: 2
#     Edge 73, Type (0, 0), BuildingBlock: EZIPEK_clean_linker_0, # of connection points: 2
#     Edge 74, Type (0, 0), BuildingBlock: EZIPEK_clean_linker_0, # of connection points: 2
#     Edge 75, Type (0, 0), BuildingBlock: EZIPEK_clean_linker_0, # of connection points: 2
#     Edge 76, Type (0, 0), BuildingBlock: EZIPEK_clean_linker_0, # of connection points: 2
#     Edge 77, Type (0, 0), BuildingBlock: EZIPEK_clean_linker_0, # of connection points: 2
#     Edge 78, Type (0, 0), BuildingBlock: EZIPEK_clean_linker_0, # of connection points: 2
#     Edge 79, Type (0, 0), BuildingBlock: EZIPEK_clean_linker_0, # of connection points: 2
#     Edge 80, Type (0, 0), BuildingBlock: EZIPEK_clean_linker_0, # of connection points: 2
#     Edge 81, Type (0, 0), BuildingBlock: EZIPEK_clean_linker_0, # of connection points: 2
#     Edge 82, Type (0, 0), BuildingBlock: EZIPEK_clean_linker_0, # of connection points: 2
#     Edge 83, Type (0, 0), BuildingBlock: EZIPEK_clean_linker_0, # of connection points: 2
#     Edge 84, Type (0, 0), BuildingBlock: EZIPEK_clean_linker_0, # of connection points: 2
#     Edge 85, Type (0, 0), BuildingBlock: EZIPEK_clean_linker_0, # of connection points: 2
#     Edge 86, Type (0, 0), BuildingBlock: EZIPEK_clean_linker_0, # of connection points: 2
#     Edge 87, Type (0, 0), BuildingBlock: EZIPEK_clean_linker_0, # of connection points: 2
#     Edge 88, Type (0, 0), BuildingBlock: EZIPEK_clean_linker_0, # of connection points: 2
#     Edge 89, Type (0, 0), BuildingBlock: EZIPEK_clean_linker_0, # of connection points: 2
#     Edge 90, Type (0, 0), BuildingBlock: EZIPEK_clean_linker_0, # of connection points: 2
#     Edge 91, Type (0, 0), BuildingBlock: EZIPEK_clean_linker_0, # of connection points: 2
#     Edge 92, Type (0, 0), BuildingBlock: EZIPEK_clean_linker_0, # of connection points: 2
#     Edge 93, Type (0, 0), BuildingBlock: EZIPEK_clean_linker_0, # of connection points: 2
#     Edge 94, Type (0, 0), BuildingBlock: EZIPEK_clean_linker_0, # of connection points: 2
#     Edge 95, Type (0, 0), BuildingBlock: EZIPEK_clean_linker_0, # of connection points: 2
# Relax obj value: 0.292
# Max RMSD: 0.107
# Mean RMSD: 0.106
data_MOF--net-dei--node1-GALJAG_clean_sbu_0--edge1-EZIPEK_clean_linker_0
_symmetry_space_group_name_H-M    P1
_symmetry_Int_Tables_number       1
_symmetry_cell_setting            triclinic
loop_
_symmetry_equiv_pos_as_xyz
'x, y, z'
_cell_length_a     41.786749
_cell_length_b     41.854418
_cell_length_c     60.045339
_cell_angle_alpha  89.971893
_cell_angle_beta   89.949033
_cell_angle_gamma 90.178038
loop_
_atom_site_label
_atom_site_type_symbol
_atom_site_fract_x
_atom_site_fract_y
_atom_site_fract_z
_atom_type_partial_charge
In0 In 0.13289 0.62326 0.02936 0.0
O1 O 0.17134 0.59162 0.01234 0.0
O2 O 0.12829 0.56993 0.02373 0.0
C3 C 0.15449 0.68322 0.01996 0.0
C4 C 0.07244 0.63007 0.01472 0.0
C5 C 0.1375 0.61372 0.07352 0.0
O6 O 0.15588 0.66088 0.00584 0.0
O7 O 0.14425 0.67481 0.03877 0.0
O8 O 0.11195 0.6099 0.0627 0.0
O9 O 0.16168 0.62138 0.06195 0.0
C10 C 0.15478 0.56637 0.01413 0.0
O11 O 0.08086 0.63616 0.03435 0.0
O12 O 0.09464 0.62131 0.00188 0.0
In13 In 0.62912 0.8827 0.28224 0.0
O14 O 0.63663 0.86609 0.31769 0.0
O15 O 0.63921 0.91621 0.31169 0.0
C16 C 0.62071 0.82179 0.26943 0.0
C17 C 0.56937 0.90468 0.27329 0.0
C18 C 0.6866 0.89884 0.2645 0.0
O19 O 0.62486 0.82983 0.28945 0.0
O20 O 0.62022 0.84451 0.25558 0.0
O21 O 0.66454 0.9192 0.2667 0.0
O22 O 0.67941 0.87105 0.27069 0.0
C23 C 0.64063 0.89366 0.32566 0.0
O24 O 0.5921 0.90776 0.25955 0.0
O25 O 0.57714 0.89221 0.29155 0.0
In26 In 0.38632 0.3855 0.52897 0.0
O27 O 0.43887 0.37488 0.53327 0.0
O28 O 0.42232 0.38243 0.50014 0.0
C29 C 0.38131 0.39556 0.57311 0.0
C30 C 0.36606 0.44327 0.51424 0.0
C31 C 0.36411 0.3257 0.52044 0.0
O32 O 0.40681 0.40001 0.56231 0.0
O33 O 0.35759 0.38674 0.56156 0.0
O34 O 0.35952 0.34854 0.50701 0.0
O35 O 0.37816 0.33343 0.53816 0.0
C36 C 0.44564 0.37674 0.51288 0.0
O37 O 0.34737 0.41942 0.51489 0.0
O38 O 0.3941 0.43771 0.52071 0.0
In39 In 0.88888 0.13253 0.78579 0.0
O40 O 0.88522 0.14781 0.82175 0.0
O41 O 0.88105 0.09795 0.81491 0.0
C42 C 0.88946 0.19444 0.7737 0.0
C43 C 0.9491 0.1107 0.77795 0.0
C44 C 0.83073 0.11687 0.76869 0.0
O45 O 0.88884 0.18546 0.79371 0.0
O46 O 0.88985 0.17228 0.75947 0.0
O47 O 0.85543 0.11867 0.75656 0.0
O48 O 0.83594 0.12085 0.78912 0.0
C49 C 0.881 0.11998 0.82936 0.0
O50 O 0.92476 0.09461 0.77225 0.0
O51 O 0.94288 0.13669 0.78739 0.0
In52 In 0.13302 0.38177 0.96528 0.0
O53 O 0.07975 0.37581 0.95998 0.0
O54 O 0.09583 0.37948 0.9935 0.0
C55 C 0.14207 0.3913 0.92146 0.0
C56 C 0.15334 0.43904 0.98097 0.0
C57 C 0.15415 0.3215 0.9735 0.0
O58 O 0.11484 0.38745 0.93012 0.0
O59 O 0.16528 0.39084 0.93498 0.0
O60 O 0.15699 0.34361 0.98768 0.0
O61 O 0.14244 0.33017 0.95521 0.0
C62 C 0.07252 0.37654 0.98031 0.0
O63 O 0.17015 0.4141 0.98297 0.0
O64 O 0.1271 0.43501 0.97108 0.0
In65 In 0.87358 0.8826 0.21586 0.0
O66 O 0.91122 0.91952 0.22867 0.0
O67 O 0.92721 0.87448 0.21711 0.0
C68 C 0.81647 0.90343 0.23204 0.0
C69 C 0.86948 0.89014 0.17156 0.0
C70 C 0.86894 0.82096 0.22775 0.0
O71 O 0.83787 0.89198 0.24448 0.0
O72 O 0.82498 0.90713 0.21211 0.0
O73 O 0.86639 0.83026 0.20785 0.0
O74 O 0.87319 0.84279 0.24196 0.0
C75 C 0.93469 0.90132 0.22483 0.0
O76 O 0.86843 0.86313 0.18089 0.0
O77 O 0.87273 0.91369 0.18459 0.0
In78 In 0.38202 0.62806 0.46425 0.0
O79 O 0.35144 0.59792 0.48866 0.0
O80 O 0.38391 0.57409 0.46709 0.0
C81 C 0.36238 0.68946 0.46987 0.0
C82 C 0.44247 0.62941 0.47946 0.0
C83 C 0.36907 0.61883 0.42081 0.0
O84 O 0.34865 0.66646 0.47973 0.0
O85 O 0.38495 0.68133 0.45723 0.0
O86 O 0.39644 0.62592 0.42808 0.0
O87 O 0.34748 0.61664 0.43551 0.0
C88 C 0.36349 0.5717 0.4824 0.0
O89 O 0.43534 0.62255 0.45969 0.0
O90 O 0.41913 0.63574 0.49204 0.0
In91 In 0.64472 0.13447 0.71608 0.0
O92 O 0.60786 0.09666 0.72814 0.0
O93 O 0.59099 0.14167 0.71678 0.0
C94 C 0.70186 0.11621 0.73318 0.0
C95 C 0.64651 0.1243 0.67192 0.0
C96 C 0.64476 0.19491 0.73106 0.0
O97 O 0.67569 0.10926 0.74261 0.0
O98 O 0.69902 0.13077 0.71498 0.0
O99 O 0.65132 0.1876 0.71124 0.0
O100 O 0.63848 0.1717 0.74379 0.0
C101 C 0.58405 0.11444 0.72426 0.0
O102 O 0.64565 0.1517 0.68054 0.0
O103 O 0.64657 0.10131 0.6856 0.0
In104 In 0.87789 0.38655 0.96646 0.0
O105 O 0.89374 0.3945 0.93082 0.0
O106 O 0.8437 0.39606 0.9373 0.0
C107 C 0.93821 0.37993 0.98083 0.0
C108 C 0.85834 0.32566 0.97436 0.0
C109 C 0.8605 0.44333 0.98423 0.0
O110 O 0.93121 0.38469 0.96069 0.0
O111 O 0.91478 0.37842 0.99411 0.0
O112 O 0.84098 0.42024 0.98297 0.0
O113 O 0.88821 0.43746 0.97718 0.0
C114 C 0.86595 0.39802 0.9231 0.0
O115 O 0.85047 0.34843 0.98705 0.0
O116 O 0.87428 0.33391 0.95753 0.0
In117 In 0.38829 0.13155 0.71416 0.0
O118 O 0.38687 0.15208 0.6793 0.0
O119 O 0.38715 0.10129 0.68246 0.0
C120 C 0.38304 0.19264 0.72726 0.0
C121 C 0.4488 0.11229 0.72369 0.0
C122 C 0.33092 0.11037 0.72989 0.0
O123 O 0.37841 0.18386 0.70743 0.0
O124 O 0.38972 0.17057 0.7408 0.0
O125 O 0.35267 0.12063 0.74257 0.0
O126 O 0.33913 0.10798 0.70981 0.0
C127 C 0.38638 0.12529 0.66965 0.0
O128 O 0.42504 0.0941 0.727 0.0
O129 O 0.44189 0.13935 0.71614 0.0
In130 In 0.63903 0.62337 0.46772 0.0
O131 O 0.61634 0.61775 0.43375 0.0
O132 O 0.66735 0.61881 0.43516 0.0
C133 C 0.57742 0.62668 0.48049 0.0
C134 C 0.6597 0.68414 0.47652 0.0
C135 C 0.6621 0.56744 0.48411 0.0
O136 O 0.58679 0.63438 0.46127 0.0
O137 O 0.59911 0.6176 0.49365 0.0
O138 O 0.67414 0.59406 0.48961 0.0
O139 O 0.63985 0.56926 0.47012 0.0
C140 C 0.64248 0.61695 0.42322 0.0
O141 O 0.66842 0.66855 0.45967 0.0
O142 O 0.64242 0.66844 0.48981 0.0
In143 In 0.13079 0.87988 0.21338 0.0
O144 O 0.12988 0.86071 0.17816 0.0
O145 O 0.14318 0.9095 0.18227 0.0
C146 C 0.12763 0.81958 0.22869 0.0
C147 C 0.07057 0.90105 0.22217 0.0
C148 C 0.18736 0.90016 0.23053 0.0
O149 O 0.1378 0.82664 0.20956 0.0
O150 O 0.11894 0.84295 0.2405 0.0
O151 O 0.16428 0.91924 0.22776 0.0
O152 O 0.18165 0.87179 0.22497 0.0
C153 C 0.13835 0.88649 0.16903 0.0
O154 O 0.09343 0.90548 0.23561 0.0
O155 O 0.07837 0.8875 0.2043 0.0
In156 In 0.87644 0.62991 0.0303 0.0
O157 O 0.84176 0.66624 0.01383 0.0
O158 O 0.87771 0.68342 0.03582 0.0
C159 C 0.85367 0.57386 0.01355 0.0
C160 C 0.87434 0.62408 0.07482 0.0
C161 C 0.93733 0.63068 0.01616 0.0
O162 O 0.87145 0.59238 0.00256 0.0
O163 O 0.84503 0.58475 0.03213 0.0
O164 O 0.92866 0.61675 0.0338 0.0
O165 O 0.91523 0.64381 0.00519 0.0
C166 C 0.85487 0.69008 0.02308 0.0
O167 O 0.89999 0.62192 0.06382 0.0
O168 O 0.84942 0.62907 0.0634 0.0
In169 In 0.14517 0.13162 0.78162 0.0
O170 O 0.10778 0.09509 0.76855 0.0
O171 O 0.09149 0.13687 0.78516 0.0
C172 C 0.20177 0.11231 0.76419 0.0
C173 C 0.14835 0.12209 0.82586 0.0
C174 C 0.1431 0.19134 0.76523 0.0
O175 O 0.1753 0.10266 0.75649 0.0
O176 O 0.19957 0.13027 0.78088 0.0
O177 O 0.15143 0.18499 0.78486 0.0
O178 O 0.13598 0.16751 0.75333 0.0
C179 C 0.08422 0.11125 0.77545 0.0
O180 O 0.14794 0.14934 0.81699 0.0
O181 O 0.1478 0.09889 0.81238 0.0
In182 In 0.638 0.38223 0.53161 0.0
O183 O 0.61725 0.3927 0.56556 0.0
O184 O 0.66746 0.38411 0.56386 0.0
C185 C 0.57902 0.37561 0.51437 0.0
C186 C 0.65802 0.32155 0.52398 0.0
C187 C 0.65965 0.43979 0.51689 0.0
O188 O 0.58444 0.37686 0.53497 0.0
O189 O 0.60345 0.37733 0.50205 0.0
O190 O 0.67726 0.41524 0.51651 0.0
O191 O 0.63207 0.43515 0.52463 0.0
C192 C 0.64333 0.39002 0.57592 0.0
O193 O 0.6637 0.34388 0.51031 0.0
O194 O 0.64389 0.33013 0.54146 0.0
In195 In 0.37269 0.88789 0.2816 0.0
O196 O 0.41037 0.92459 0.26857 0.0
O197 O 0.42585 0.87835 0.27791 0.0
C198 C 0.31577 0.90827 0.26478 0.0
C199 C 0.36997 0.8973 0.32579 0.0
C200 C 0.36829 0.8251 0.27296 0.0
O201 O 0.33723 0.89617 0.2527 0.0
O202 O 0.32409 0.91277 0.28466 0.0
O203 O 0.3684 0.83639 0.29242 0.0
O204 O 0.36988 0.84554 0.2575 0.0
C205 C 0.43356 0.90559 0.27101 0.0
O206 O 0.36489 0.87054 0.3168 0.0
O207 O 0.37618 0.9199 0.31244 0.0
In208 In 0.63768 0.12388 0.5313 0.0
O209 O 0.58406 0.12434 0.53452 0.0
O210 O 0.60314 0.12397 0.50151 0.0
C211 C 0.6441 0.11979 0.57588 0.0
C212 C 0.66022 0.06765 0.51511 0.0
C213 C 0.65537 0.18533 0.52333 0.0
O214 O 0.61828 0.11424 0.56583 0.0
O215 O 0.66742 0.12703 0.56346 0.0
O216 O 0.675 0.16255 0.52134 0.0
O217 O 0.62754 0.17705 0.52886 0.0
C218 C 0.57865 0.12425 0.51389 0.0
O219 O 0.67092 0.09426 0.50839 0.0
O220 O 0.6394 0.06968 0.53016 0.0
In221 In 0.13553 0.3856 0.78126 0.0
O222 O 0.13864 0.36611 0.81635 0.0
O223 O 0.13808 0.4168 0.81246 0.0
C224 C 0.13761 0.32512 0.76629 0.0
C225 C 0.07533 0.40677 0.77266 0.0
C226 C 0.194 0.40443 0.76626 0.0
O227 O 0.13622 0.33205 0.78669 0.0
O228 O 0.1379 0.34863 0.75313 0.0
O229 O 0.17012 0.40231 0.75344 0.0
O230 O 0.18771 0.39956 0.78646 0.0
C231 C 0.13949 0.39319 0.8256 0.0
O232 O 0.0994 0.42485 0.77022 0.0
O233 O 0.08184 0.37885 0.77875 0.0
In234 In 0.87794 0.88551 0.03145 0.0
O235 O 0.84846 0.9162 0.00692 0.0
O236 O 0.87788 0.93969 0.03065 0.0
C237 C 0.85765 0.82502 0.02314 0.0
C238 C 0.93803 0.88681 0.01573 0.0
C239 C 0.86829 0.88918 0.07573 0.0
O240 O 0.83985 0.84887 0.01956 0.0
O241 O 0.88504 0.83179 0.03042 0.0
O242 O 0.89505 0.88321 0.06709 0.0
O243 O 0.84568 0.89299 0.06205 0.0
C244 C 0.85902 0.94241 0.01446 0.0
O245 O 0.93106 0.89241 0.03575 0.0
O246 O 0.91458 0.88086 0.0031 0.0
In247 In 0.37406 0.6253 0.2816 0.0
O248 O 0.41099 0.58685 0.2704 0.0
O249 O 0.42686 0.63445 0.27481 0.0
C250 C 0.31676 0.60671 0.26444 0.0
C251 C 0.3692 0.61431 0.32561 0.0
C252 C 0.37038 0.68828 0.2735 0.0
O253 O 0.34067 0.61247 0.25216 0.0
O254 O 0.3225 0.60811 0.28498 0.0
O255 O 0.37849 0.67701 0.29211 0.0
O256 O 0.36421 0.66783 0.25862 0.0
C257 C 0.43429 0.60616 0.27032 0.0
O258 O 0.36787 0.64182 0.31714 0.0
O259 O 0.37307 0.59177 0.31185 0.0
In260 In 0.64078 0.88346 0.46516 0.0
O261 O 0.58876 0.87506 0.45649 0.0
O262 O 0.5996 0.88832 0.48999 0.0
C263 C 0.6477 0.89162 0.42099 0.0
C264 C 0.66161 0.93998 0.48202 0.0
C265 C 0.66063 0.82296 0.47523 0.0
O266 O 0.62136 0.88444 0.42999 0.0
O267 O 0.671 0.89469 0.43425 0.0
O268 O 0.67093 0.83837 0.45869 0.0
O269 O 0.64223 0.83875 0.48761 0.0
C270 C 0.57845 0.88152 0.47572 0.0
O271 O 0.67625 0.91416 0.48602 0.0
O272 O 0.63753 0.93692 0.46969 0.0
In273 In 0.37996 0.3885 0.71354 0.0
O274 O 0.4166 0.42761 0.72365 0.0
O275 O 0.43346 0.38075 0.71686 0.0
C276 C 0.32321 0.40681 0.73131 0.0
C277 C 0.37924 0.39767 0.66921 0.0
C278 C 0.37863 0.32763 0.72759 0.0
O279 O 0.34953 0.41272 0.74083 0.0
O280 O 0.32572 0.39344 0.71266 0.0
O281 O 0.37166 0.33577 0.708 0.0
O282 O 0.38589 0.35025 0.74058 0.0
C283 C 0.44032 0.409 0.72215 0.0
O284 O 0.38179 0.37061 0.67818 0.0
O285 O 0.37707 0.42086 0.68261 0.0
In286 In 0.88208 0.12903 0.96838 0.0
O287 O 0.93572 0.13189 0.96449 0.0
O288 O 0.91736 0.13276 0.99762 0.0
C289 C 0.87333 0.12008 0.92455 0.0
C290 C 0.86189 0.07125 0.98315 0.0
C291 C 0.86149 0.1896 0.9757 0.0
O292 O 0.90057 0.12333 0.93328 0.0
O293 O 0.84999 0.12103 0.93797 0.0
O294 O 0.8557 0.16729 0.98935 0.0
O295 O 0.8763 0.18112 0.95847 0.0
C296 C 0.94157 0.13302 0.98504 0.0
O297 O 0.84441 0.0958 0.9848 0.0
O298 O 0.88873 0.07609 0.97424 0.0
In299 In 0.12962 0.62564 0.21378 0.0
O300 O 0.09283 0.58799 0.2263 0.0
O301 O 0.07585 0.63277 0.21464 0.0
C302 C 0.18728 0.60762 0.23019 0.0
C303 C 0.1334 0.61554 0.16963 0.0
C304 C 0.12844 0.68574 0.22934 0.0
O305 O 0.16131 0.59895 0.23921 0.0
O306 O 0.18404 0.62417 0.21287 0.0
O307 O 0.13087 0.6791 0.20897 0.0
O308 O 0.12681 0.66206 0.24233 0.0
C309 C 0.06899 0.60574 0.22249 0.0
O310 O 0.13323 0.64289 0.17832 0.0
O311 O 0.13151 0.5925 0.1832 0.0
In312 In 0.37995 0.88698 0.46577 0.0
O313 O 0.39702 0.88264 0.43003 0.0
O314 O 0.35043 0.9016 0.43531 0.0
C315 C 0.44217 0.8851 0.47615 0.0
C316 C 0.35811 0.82646 0.47359 0.0
C317 C 0.3616 0.94296 0.48474 0.0
O318 O 0.43217 0.88512 0.45632 0.0
O319 O 0.42079 0.88599 0.49106 0.0
O320 O 0.34851 0.91671 0.49001 0.0
O321 O 0.38314 0.9407 0.47023 0.0
C322 C 0.37193 0.89396 0.42154 0.0
O323 O 0.34163 0.84699 0.46339 0.0
O324 O 0.38375 0.83726 0.48155 0.0
In325 In 0.87296 0.62374 0.2156 0.0
O326 O 0.8682 0.64527 0.18124 0.0
O327 O 0.87732 0.59521 0.18316 0.0
C328 C 0.86884 0.68523 0.22781 0.0
C329 C 0.93365 0.60479 0.22482 0.0
C330 C 0.81625 0.60157 0.232 0.0
O331 O 0.86113 0.67546 0.20869 0.0
O332 O 0.87798 0.66386 0.24123 0.0
O333 O 0.83757 0.61352 0.24428 0.0
O334 O 0.82467 0.59796 0.21204 0.0
C335 C 0.8728 0.61942 0.17096 0.0
O336 O 0.91007 0.5862 0.22773 0.0
O337 O 0.92643 0.63219 0.21801 0.0
In338 In 0.13339 0.12482 0.96622 0.0
O339 O 0.17124 0.16228 0.97738 0.0
O340 O 0.12526 0.17823 0.96716 0.0
C341 C 0.1528 0.0676 0.98231 0.0
C342 C 0.14155 0.11958 0.92188 0.0
C343 C 0.07451 0.12818 0.98389 0.0
O344 O 0.16367 0.09363 0.98995 0.0
O345 O 0.13335 0.07059 0.96649 0.0
O346 O 0.07984 0.12963 0.96326 0.0
O347 O 0.09893 0.12492 0.99606 0.0
C348 C 0.15267 0.18566 0.97407 0.0
O349 O 0.1152 0.11466 0.93149 0.0
O350 O 0.16448 0.12679 0.93466 0.0
In351 In 0.63647 0.38998 0.71668 0.0
O352 O 0.64274 0.36723 0.68283 0.0
O353 O 0.63631 0.41783 0.68387 0.0
C354 C 0.63973 0.32933 0.73108 0.0
C355 C 0.57562 0.41009 0.72399 0.0
C356 C 0.69308 0.41243 0.73278 0.0
O357 O 0.64643 0.33747 0.7114 0.0
O358 O 0.63181 0.35186 0.74391 0.0
O359 O 0.6718 0.40068 0.74523 0.0
O360 O 0.68469 0.41565 0.7128 0.0
C361 C 0.64054 0.3931 0.67214 0.0
O362 O 0.59939 0.42746 0.72893 0.0
O363 O 0.58261 0.38341 0.71583 0.0
In364 In 0.38429 0.12998 0.52868 0.0
O365 O 0.40806 0.12701 0.56265 0.0
O366 O 0.35713 0.12484 0.56151 0.0
C367 C 0.44483 0.12814 0.51385 0.0
C368 C 0.36349 0.19034 0.52008 0.0
C369 C 0.36064 0.07317 0.5137 0.0
O370 O 0.43678 0.1185 0.53298 0.0
O371 O 0.42221 0.13813 0.50179 0.0
O372 O 0.38224 0.08851 0.50372 0.0
O373 O 0.34891 0.08749 0.53023 0.0
C374 C 0.38213 0.1248 0.57335 0.0
O375 O 0.35112 0.16637 0.51055 0.0
O376 O 0.38518 0.18373 0.53373 0.0
In377 In 0.63003 0.62621 0.28287 0.0
O378 O 0.59318 0.60145 0.25967 0.0
O379 O 0.57765 0.61744 0.29139 0.0
C380 C 0.68717 0.60762 0.2657 0.0
C381 C 0.64009 0.61869 0.32688 0.0
C382 C 0.62114 0.6869 0.26964 0.0
O383 O 0.66488 0.5877 0.26915 0.0
O384 O 0.68039 0.63599 0.27056 0.0
O385 O 0.62178 0.67866 0.28982 0.0
O386 O 0.62434 0.66445 0.25578 0.0
C387 C 0.57012 0.60494 0.27309 0.0
O388 O 0.64369 0.64494 0.31689 0.0
O389 O 0.63242 0.59542 0.31455 0.0
In390 In 0.13392 0.87957 0.02856 0.0
O391 O 0.17098 0.8427 0.01527 0.0
O392 O 0.12639 0.82588 0.02751 0.0
C393 C 0.15536 0.93699 0.01313 0.0
C394 C 0.14034 0.88298 0.07303 0.0
C395 C 0.07273 0.88356 0.01531 0.0
O396 O 0.14379 0.91597 0.00042 0.0
O397 O 0.15889 0.92798 0.03295 0.0
O398 O 0.0812 0.88742 0.03529 0.0
O399 O 0.09514 0.87819 0.00171 0.0
C400 C 0.1531 0.81895 0.0193 0.0
O401 O 0.11356 0.88479 0.06337 0.0
O402 O 0.16414 0.8792 0.06026 0.0
In403 In 0.87897 0.39114 0.78461 0.0
O404 O 0.91698 0.41452 0.76162 0.0
O405 O 0.93103 0.40043 0.79406 0.0
C406 C 0.82218 0.40773 0.76623 0.0
C407 C 0.86756 0.40252 0.82799 0.0
C408 C 0.88578 0.3297 0.77282 0.0
O409 O 0.84452 0.4279 0.76858 0.0
O410 O 0.82877 0.37994 0.77266 0.0
O411 O 0.88092 0.33844 0.79261 0.0
O412 O 0.88758 0.35194 0.75865 0.0
C413 C 0.93946 0.41168 0.77554 0.0
O414 O 0.87257 0.37505 0.82021 0.0
O415 O 0.86784 0.42486 0.8138 0.0
C416 C 0.15856 0.59522 0.13413 0.0
C417 C 0.13348 0.61172 0.14514 0.0
C418 C 0.11438 0.63238 0.10952 0.0
C419 C 0.1374 0.61352 0.0982 0.0
N420 N 0.17823 0.57293 0.09943 0.0
N421 N 0.08291 0.63918 0.14294 0.0
C422 C 0.15868 0.59375 0.11041 0.0
C423 C 0.10997 0.6282 0.13269 0.0
N424 N 0.18295 0.58217 0.14621 0.0
N425 N 0.09785 0.65561 0.0984 0.0
H426 H 0.07829 0.63567 0.15985 0.0
H427 H 0.06355 0.6486 0.13422 0.0
H428 H 0.10158 0.66091 0.08163 0.0
H429 H 0.08314 0.67206 0.1064 0.0
H430 H 0.20366 0.57301 0.13901 0.0
H431 H 0.18367 0.58269 0.16357 0.0
H432 H 0.19173 0.55553 0.10748 0.0
H433 H 0.179 0.5713 0.08212 0.0
C434 C 0.67134 0.87758 0.38368 0.0
C435 C 0.6503 0.89655 0.39664 0.0
C436 C 0.62487 0.91692 0.36273 0.0
C437 C 0.64634 0.89843 0.34976 0.0
N438 N 0.69546 0.86862 0.34749 0.0
N439 N 0.61371 0.94087 0.39863 0.0
C440 C 0.67138 0.88117 0.36015 0.0
C441 C 0.6292 0.91838 0.38617 0.0
N442 N 0.68983 0.85477 0.3936 0.0
N443 N 0.59919 0.93145 0.35296 0.0
H444 H 0.61694 0.94304 0.4158 0.0
H445 H 0.60039 0.95936 0.39169 0.0
H446 H 0.59481 0.93084 0.33589 0.0
H447 H 0.58076 0.94199 0.36202 0.0
H448 H 0.70274 0.83779 0.38467 0.0
H449 H 0.69035 0.851 0.41075 0.0
H450 H 0.71596 0.85838 0.35427 0.0
H451 H 0.69652 0.87145 0.33023 0.0
C452 C 0.35521 0.41493 0.63259 0.0
C453 C 0.38088 0.40124 0.64473 0.0
C454 C 0.40463 0.38161 0.61019 0.0
C455 C 0.38058 0.39755 0.59776 0.0
N456 N 0.33647 0.43467 0.59695 0.0
N457 N 0.43425 0.37949 0.64471 0.0
C458 C 0.35682 0.41578 0.60889 0.0
C459 C 0.40693 0.38711 0.63338 0.0
N460 N 0.32869 0.42575 0.64354 0.0
N461 N 0.42413 0.35968 0.60019 0.0
H462 H 0.4372 0.38413 0.66167 0.0
H463 H 0.45511 0.37194 0.63682 0.0
H464 H 0.42205 0.35315 0.5835 0.0
H465 H 0.4399 0.34524 0.60906 0.0
H466 H 0.30779 0.43258 0.63541 0.0
H467 H 0.3266 0.4256 0.66084 0.0
H468 H 0.32095 0.451 0.6043 0.0
H469 H 0.33706 0.43616 0.57963 0.0
C470 C 0.85193 0.13796 0.88746 0.0
C471 C 0.86976 0.11578 0.90023 0.0
C472 C 0.89195 0.09241 0.86613 0.0
C473 C 0.87411 0.11467 0.85335 0.0
N474 N 0.82912 0.15056 0.85149 0.0
N475 N 0.89899 0.06631 0.90186 0.0
C476 C 0.85149 0.13486 0.86393 0.0
C477 C 0.88728 0.09117 0.88957 0.0
N478 N 0.83704 0.16316 0.89754 0.0
N479 N 0.91459 0.0737 0.85624 0.0
H480 H 0.89549 0.06448 0.91903 0.0
H481 H 0.90923 0.04604 0.89482 0.0
H482 H 0.91828 0.07299 0.83913 0.0
H483 H 0.93115 0.06026 0.86516 0.0
H484 H 0.82697 0.18204 0.88869 0.0
H485 H 0.83696 0.16672 0.91471 0.0
H486 H 0.81023 0.1633 0.85846 0.0
H487 H 0.82731 0.14781 0.83426 0.0
C488 C 0.12594 0.41797 0.88601 0.0
C489 C 0.14574 0.39552 0.89708 0.0
C490 C 0.16727 0.37856 0.86107 0.0
C491 C 0.14322 0.3965 0.85006 0.0
N492 N 0.09658 0.43039 0.85246 0.0
N493 N 0.18249 0.35106 0.89482 0.0
C494 C 0.12189 0.41576 0.86258 0.0
C495 C 0.16598 0.37508 0.88458 0.0
N496 N 0.11146 0.44176 0.89786 0.0
N497 N 0.19182 0.36547 0.84914 0.0
H498 H 0.18178 0.34693 0.91192 0.0
H499 H 0.19462 0.33336 0.88605 0.0
H500 H 0.19427 0.36851 0.83198 0.0
H501 H 0.21157 0.35471 0.85659 0.0
H502 H 0.09913 0.46051 0.89038 0.0
H503 H 0.11477 0.44468 0.91497 0.0
H504 H 0.07844 0.44183 0.86127 0.0
H505 H 0.09192 0.42857 0.83547 0.0
C506 C 0.84252 0.87439 0.1123 0.0
C507 C 0.86483 0.89307 0.10011 0.0
C508 C 0.88982 0.91094 0.13483 0.0
C509 C 0.86655 0.89353 0.14709 0.0
N510 N 0.81557 0.86621 0.14757 0.0
N511 N 0.90319 0.93628 0.0998 0.0
C512 C 0.84124 0.87758 0.13584 0.0
C513 C 0.88641 0.91366 0.11141 0.0
N514 N 0.82375 0.85238 0.10167 0.0
N515 N 0.91624 0.92321 0.1452 0.0
H516 H 0.9005 0.93967 0.08268 0.0
H517 H 0.91698 0.95388 0.10748 0.0
H518 H 0.92049 0.92076 0.1622 0.0
H519 H 0.93552 0.9331 0.13658 0.0
H520 H 0.80976 0.83565 0.1101 0.0
H521 H 0.82415 0.84894 0.08448 0.0
H522 H 0.79509 0.85704 0.14 0.0
H523 H 0.81323 0.86912 0.16475 0.0
C524 C 0.38578 0.59146 0.3859 0.0
C525 C 0.36397 0.6121 0.39685 0.0
C526 C 0.33944 0.62467 0.36092 0.0
C527 C 0.36539 0.60957 0.34991 0.0
N528 N 0.41533 0.58069 0.35214 0.0
N529 N 0.32059 0.65005 0.39462 0.0
C530 C 0.38891 0.59304 0.3624 0.0
C531 C 0.34055 0.62883 0.38439 0.0
N532 N 0.40317 0.57 0.39801 0.0
N533 N 0.31346 0.63453 0.34895 0.0
H534 H 0.32017 0.65362 0.41176 0.0
H535 H 0.30595 0.66581 0.38591 0.0
H536 H 0.31147 0.63096 0.3318 0.0
H537 H 0.29256 0.64303 0.35629 0.0
H538 H 0.41732 0.55239 0.39075 0.0
H539 H 0.40062 0.56753 0.41523 0.0
H540 H 0.43487 0.57169 0.36085 0.0
H541 H 0.41912 0.58188 0.33502 0.0
C542 C 0.62034 0.13571 0.63564 0.0
C543 C 0.64513 0.12019 0.64749 0.0
C544 C 0.66805 0.10146 0.61223 0.0
C545 C 0.64558 0.12046 0.60049 0.0
N546 N 0.60488 0.16137 0.60132 0.0
N547 N 0.69536 0.09184 0.64722 0.0
C548 C 0.62292 0.13915 0.61227 0.0
C549 C 0.66974 0.10386 0.63586 0.0
N550 N 0.59375 0.14634 0.64665 0.0
N551 N 0.68695 0.08036 0.60095 0.0
H552 H 0.6975 0.09316 0.66449 0.0
H553 H 0.71566 0.08285 0.63937 0.0
H554 H 0.6862 0.07774 0.58369 0.0
H555 H 0.70133 0.06352 0.60884 0.0
H556 H 0.57358 0.15503 0.63848 0.0
H557 H 0.59039 0.14322 0.66373 0.0
H558 H 0.59035 0.17779 0.60952 0.0
H559 H 0.60703 0.16588 0.5843 0.0
C560 C 0.88212 0.42764 0.86481 0.0
C561 C 0.86196 0.40727 0.85213 0.0
C562 C 0.84075 0.38327 0.88634 0.0
C563 C 0.86064 0.40389 0.89905 0.0
N564 N 0.89232 0.45204 0.90071 0.0
N565 N 0.81534 0.37333 0.85074 0.0
C566 C 0.87872 0.4282 0.88835 0.0
C567 C 0.839 0.38762 0.86292 0.0
N568 N 0.90592 0.44482 0.85469 0.0
N569 N 0.82527 0.35819 0.89625 0.0
H570 H 0.81303 0.3767 0.83359 0.0
H571 H 0.7962 0.36107 0.85793 0.0
H572 H 0.82625 0.35356 0.91328 0.0
H573 H 0.81358 0.34034 0.88729 0.0
H574 H 0.92361 0.45699 0.86351 0.0
H575 H 0.90967 0.44497 0.83755 0.0
H576 H 0.90332 0.47201 0.89367 0.0
H577 H 0.88955 0.45355 0.91796 0.0
C578 C 0.40542 0.10368 0.63274 0.0
C579 C 0.38364 0.12268 0.6451 0.0
C580 C 0.36155 0.14403 0.61039 0.0
C581 C 0.38137 0.12301 0.59802 0.0
N582 N 0.4163 0.07713 0.59776 0.0
N583 N 0.33516 0.15398 0.64554 0.0
C584 C 0.40157 0.10108 0.60929 0.0
C585 C 0.3599 0.14074 0.63388 0.0
N586 N 0.43074 0.08943 0.64311 0.0
N587 N 0.34566 0.16832 0.59999 0.0
H588 H 0.33229 0.15101 0.66268 0.0
H589 H 0.31563 0.16479 0.63787 0.0
H590 H 0.34728 0.17273 0.58295 0.0
H591 H 0.33359 0.18619 0.60865 0.0
H592 H 0.44916 0.07817 0.63446 0.0
H593 H 0.43511 0.09147 0.66013 0.0
H594 H 0.42877 0.05869 0.6055 0.0
H595 H 0.41321 0.0737 0.58069 0.0
C596 C 0.65998 0.59338 0.38647 0.0
C597 C 0.64332 0.6173 0.39856 0.0
C598 C 0.62128 0.63836 0.36384 0.0
C599 C 0.64061 0.61686 0.35153 0.0
N600 N 0.68214 0.57697 0.35089 0.0
N601 N 0.6146 0.66731 0.39828 0.0
C602 C 0.66101 0.59511 0.36276 0.0
C603 C 0.62582 0.64117 0.38711 0.0
N604 N 0.67375 0.56842 0.39753 0.0
N605 N 0.5975 0.65516 0.3535 0.0
H606 H 0.61856 0.6711 0.41523 0.0
H607 H 0.60451 0.68694 0.39027 0.0
H608 H 0.59221 0.65278 0.33661 0.0
H609 H 0.58072 0.66871 0.36216 0.0
H610 H 0.68327 0.54855 0.3895 0.0
H611 H 0.67326 0.56623 0.41483 0.0
H612 H 0.69993 0.56321 0.35829 0.0
H613 H 0.68365 0.57773 0.33356 0.0
C614 C 0.16159 0.86564 0.13356 0.0
C615 C 0.14248 0.88876 0.14456 0.0
C616 C 0.12872 0.9123 0.10848 0.0
C617 C 0.14329 0.886 0.09754 0.0
N618 N 0.17 0.83498 0.09994 0.0
N619 N 0.10419 0.93182 0.14234 0.0
C620 C 0.15905 0.86205 0.11011 0.0
C621 C 0.12525 0.91172 0.13202 0.0
N622 N 0.18272 0.84758 0.14549 0.0
N623 N 0.11899 0.93824 0.09645 0.0
H624 H 0.10038 0.93193 0.15949 0.0
H625 H 0.0884 0.94645 0.13366 0.0
H626 H 0.12207 0.93999 0.07925 0.0
H627 H 0.11104 0.95933 0.10378 0.0
H628 H 0.19944 0.83253 0.13807 0.0
H629 H 0.1859 0.85022 0.16262 0.0
H630 H 0.1785 0.81528 0.10872 0.0
H631 H 0.16784 0.83081 0.0829 0.0
C632 C 0.89345 0.6434 0.11191 0.0
C633 C 0.87398 0.62217 0.09942 0.0
C634 C 0.85289 0.59905 0.13401 0.0
C635 C 0.87437 0.61849 0.14636 0.0
N636 N 0.92029 0.6536 0.14688 0.0
N637 N 0.83989 0.57554 0.09824 0.0
C638 C 0.8962 0.63904 0.13524 0.0
C639 C 0.85498 0.59876 0.11036 0.0
N640 N 0.9082 0.66868 0.10167 0.0
N641 N 0.82962 0.58196 0.14477 0.0
H642 H 0.8412 0.57427 0.08092 0.0
H643 H 0.82852 0.55591 0.10545 0.0
H644 H 0.82717 0.58166 0.16205 0.0
H645 H 0.8111 0.57023 0.1365 0.0
H646 H 0.91987 0.6868 0.11038 0.0
H647 H 0.90609 0.67339 0.08468 0.0
H648 H 0.93882 0.66623 0.13926 0.0
H649 H 0.92371 0.65028 0.16393 0.0
C650 C 0.12061 0.13423 0.86146 0.0
C651 C 0.14591 0.11844 0.8503 0.0
C652 C 0.16706 0.10029 0.88623 0.0
C653 C 0.14414 0.11964 0.89729 0.0
N654 N 0.10376 0.16078 0.89512 0.0
N655 N 0.19576 0.08962 0.85187 0.0
C656 C 0.12215 0.13818 0.88483 0.0
C657 C 0.16984 0.10217 0.8626 0.0
N658 N 0.09451 0.14461 0.84982 0.0
N659 N 0.18531 0.07933 0.89813 0.0
H660 H 0.19852 0.09043 0.83462 0.0
H661 H 0.21565 0.0806 0.86019 0.0
H662 H 0.18368 0.07701 0.91539 0.0
H663 H 0.20002 0.06231 0.89074 0.0
H664 H 0.07399 0.15344 0.85749 0.0
H665 H 0.09188 0.1411 0.83272 0.0
H666 H 0.08971 0.17707 0.8864 0.0
H667 H 0.1052 0.16573 0.91211 0.0
C668 C 0.62283 0.37027 0.61247 0.0
C669 C 0.6443 0.39036 0.60059 0.0
C670 C 0.66524 0.41106 0.63595 0.0
C671 C 0.64122 0.39364 0.64752 0.0
N672 N 0.59286 0.36199 0.64645 0.0
N673 N 0.68325 0.43306 0.60073 0.0
C674 C 0.61878 0.37476 0.63568 0.0
C675 C 0.66489 0.41161 0.61223 0.0
N676 N 0.60734 0.34586 0.6018 0.0
N677 N 0.6891 0.426 0.64756 0.0
H678 H 0.68401 0.43392 0.5834 0.0
H679 H 0.69586 0.45158 0.60833 0.0
H680 H 0.69022 0.42606 0.66491 0.0
H681 H 0.70919 0.43606 0.64001 0.0
H682 H 0.59392 0.32857 0.61013 0.0
H683 H 0.61073 0.34067 0.58497 0.0
H684 H 0.57401 0.35084 0.63815 0.0
H685 H 0.58849 0.36544 0.66339 0.0
C686 C 0.395 0.91372 0.36216 0.0
C687 C 0.36846 0.90122 0.35026 0.0
C688 C 0.34302 0.885 0.3853 0.0
C689 C 0.36887 0.89882 0.39722 0.0
N690 N 0.41461 0.93417 0.39732 0.0
N691 N 0.31359 0.88309 0.35059 0.0
C692 C 0.39335 0.91568 0.38574 0.0
C693 C 0.34129 0.88942 0.36188 0.0
N694 N 0.42254 0.92189 0.35122 0.0
N695 N 0.3211 0.86617 0.39602 0.0
H696 H 0.31118 0.88696 0.3335 0.0
H697 H 0.29213 0.8773 0.35849 0.0
H698 H 0.32164 0.86182 0.41311 0.0
H699 H 0.30398 0.85257 0.38767 0.0
H700 H 0.44373 0.92773 0.35942 0.0
H701 H 0.42527 0.92007 0.33403 0.0
H702 H 0.43101 0.94939 0.38963 0.0
H703 H 0.41356 0.93693 0.41458 0.0
C704 C 0.02235 0.66067 0.00874 0.0
C705 C 0.03843 0.63096 0.00825 0.0
C706 C 0.98722 0.60286 0.00487 0.0
C707 C 0.97128 0.63191 0.0095 0.0
N708 N 0.97275 0.68886 0.01577 0.0
N709 N 0.03707 0.57343 0.00578 0.0
C710 C 0.98849 0.66111 0.01091 0.0
C711 C 0.02117 0.60194 0.00579 0.0
N712 N 0.03966 0.68834 0.00719 0.0
N713 N 0.96973 0.57626 -0.00044 0.0
H714 H 0.06195 0.57178 0.00582 0.0
H715 H 0.0257 0.55132 0.0069 0.0
H716 H 0.94478 0.57646 -0.00131 0.0
H717 H 0.97982 0.55497 0.99406 0.0
H718 H 0.02944 0.71084 0.00542 0.0
H719 H 0.06454 0.68844 0.00567 0.0
H720 H 0.98428 0.7102 0.01967 0.0
H721 H 0.94793 0.69028 0.01713 0.0
C722 C 0.64434 0.73775 0.25442 0.0
C723 C 0.61772 0.72078 0.26323 0.0
C724 C 0.58959 0.77089 0.27053 0.0
C725 C 0.61701 0.78788 0.26315 0.0
N726 N 0.66673 0.78877 0.2428 0.0
N727 N 0.56223 0.71972 0.27376 0.0
C728 C 0.64304 0.77168 0.25312 0.0
C729 C 0.58934 0.73698 0.26933 0.0
N730 N 0.67161 0.72165 0.2488 0.0
N731 N 0.56427 0.78728 0.27929 0.0
H732 H 0.56151 0.69483 0.27262 0.0
H733 H 0.53992 0.72988 0.27666 0.0
H734 H 0.56296 0.81219 0.279 0.0
H735 H 0.54508 0.77647 0.28742 0.0
H736 H 0.69323 0.73277 0.24497 0.0
H737 H 0.67322 0.69681 0.249 0.0
H738 H 0.68487 0.77844 0.23338 0.0
H739 H 0.66685 0.81366 0.24209 0.0
C740 C 0.49632 0.40115 0.4984 0.0
C741 C 0.47901 0.37358 0.50517 0.0
C742 C 0.52877 0.34405 0.51061 0.0
C743 C 0.54605 0.37244 0.50591 0.0
N744 N 0.54794 0.42473 0.48927 0.0
N745 N 0.47722 0.31689 0.51126 0.0
C746 C 0.53031 0.39982 0.4975 0.0
C747 C 0.49486 0.34427 0.50902 0.0
N748 N 0.48045 0.42911 0.4945 0.0
N749 N 0.5449 0.3174 0.51741 0.0
H750 H 0.4523 0.31675 0.50989 0.0
H751 H 0.48707 0.29418 0.51259 0.0
H752 H 0.56985 0.31621 0.51747 0.0
H753 H 0.53384 0.29689 0.52352 0.0
H754 H 0.49176 0.45106 0.49227 0.0
H755 H 0.45556 0.43072 0.49442 0.0
H756 H 0.53805 0.44434 0.48118 0.0
H757 H 0.57288 0.42452 0.48884 0.0
C758 C 0.91796 0.27983 0.77468 0.0
C759 C 0.89001 0.29567 0.76725 0.0
C760 C 0.86423 0.24443 0.75889 0.0
C761 C 0.89136 0.22863 0.76779 0.0
N762 N 0.94686 0.22982 0.77833 0.0
N763 N 0.83988 0.29457 0.74752 0.0
C764 C 0.91921 0.24596 0.7738 0.0
C765 C 0.8643 0.2784 0.75759 0.0
N766 N 0.94284 0.2973 0.78317 0.0
N767 N 0.83787 0.22702 0.75289 0.0
H768 H 0.8391 0.31945 0.74672 0.0
H769 H 0.82165 0.2836 0.73852 0.0
H770 H 0.83763 0.20211 0.75276 0.0
H771 H 0.81586 0.23699 0.74884 0.0
H772 H 0.96235 0.28736 0.79137 0.0
H773 H 0.94348 0.32223 0.78264 0.0
H774 H 0.96885 0.24085 0.78109 0.0
H775 H 0.94842 0.20497 0.77744 0.0
C776 C 0.98771 0.34705 0.98246 0.0
C777 C 0.97176 0.37587 0.98781 0.0
C778 C 0.02286 0.40276 0.99468 0.0
C779 C 0.03884 0.37468 0.98758 0.0
N780 N 0.03804 0.31812 0.98074 0.0
N781 N 0.97246 0.42796 0.00468 0.0
C782 C 0.02165 0.34606 0.98353 0.0
C783 C 0.98886 0.40262 0.99603 0.0
N784 N 0.9703 0.32116 0.97557 0.0
N785 N 0.04004 0.43001 -0.00133 0.0
H786 H 0.94753 0.42844 0.00556 0.0
H787 H 0.98334 0.44722 0.01262 0.0
H788 H 0.06498 0.43068 0.99842 0.0
H789 H 0.02976 0.45231 0.00129 0.0
H790 H 0.98034 0.3005 0.96899 0.0
H791 H 0.94532 0.32076 0.97588 0.0
H792 H 0.02717 0.29581 0.97934 0.0
H793 H 0.06296 0.31699 0.98168 0.0
C794 C 0.89543 0.77039 0.23989 0.0
C795 C 0.86719 0.78671 0.23352 0.0
C796 C 0.83824 0.73588 0.23104 0.0
C797 C 0.86767 0.71953 0.23348 0.0
N798 N 0.92478 0.72053 0.23961 0.0
N799 N 0.81122 0.7861 0.22399 0.0
C800 C 0.89633 0.7365 0.23828 0.0
C801 C 0.83832 0.76974 0.22958 0.0
N802 N 0.92155 0.78729 0.247 0.0
N803 N 0.81025 0.71886 0.23052 0.0
H804 H 0.80991 0.81097 0.22449 0.0
H805 H 0.79043 0.77525 0.21813 0.0
H806 H 0.80957 0.69402 0.23209 0.0
H807 H 0.78766 0.72925 0.23058 0.0
H808 H 0.94162 0.77673 0.2541 0.0
H809 H 0.92225 0.81216 0.24754 0.0
H810 H 0.94698 0.73183 0.24022 0.0
H811 H 0.92661 0.69575 0.23867 0.0
C812 C 0.49165 0.60098 0.49132 0.0
C813 C 0.47612 0.63024 0.48671 0.0
C814 C 0.52765 0.65811 0.48621 0.0
C815 C 0.54325 0.62809 0.48665 0.0
N816 N 0.54098 0.57064 0.48984 0.0
N817 N 0.47801 0.68704 0.48059 0.0
C818 C 0.52557 0.59942 0.4898 0.0
C819 C 0.49372 0.65908 0.4848 0.0
N820 N 0.47376 0.57478 0.49691 0.0
N821 N 0.54544 0.68553 0.4873 0.0
H822 H 0.45309 0.68864 0.48047 0.0
H823 H 0.48947 0.7083 0.47633 0.0
H824 H 0.57034 0.68529 0.48872 0.0
H825 H 0.53564 0.70826 0.48879 0.0
H826 H 0.48351 0.55328 0.50231 0.0
H827 H 0.44883 0.57554 0.49806 0.0
H828 H 0.52921 0.5487 0.48939 0.0
H829 H 0.56581 0.56856 0.4891 0.0
C830 C 0.61405 0.2441 0.74099 0.0
C831 C 0.64393 0.2286 0.73819 0.0
C832 C 0.67181 0.28005 0.73728 0.0
C833 C 0.64173 0.2956 0.73817 0.0
N834 N 0.58532 0.29387 0.74653 0.0
N835 N 0.70138 0.23017 0.73951 0.0
C836 C 0.6132 0.27805 0.74216 0.0
C837 C 0.67293 0.24616 0.73833 0.0
N838 N 0.58644 0.22645 0.74097 0.0
N839 N 0.69909 0.29786 0.7348 0.0
H840 H 0.70257 0.2053 0.74041 0.0
H841 H 0.72354 0.24124 0.74131 0.0
H842 H 0.6991 0.32276 0.73567 0.0
H843 H 0.72152 0.28829 0.73144 0.0
H844 H 0.56362 0.23624 0.74016 0.0
H845 H 0.58629 0.20155 0.74083 0.0
H846 H 0.56428 0.28263 0.75155 0.0
H847 H 0.58372 0.31871 0.74682 0.0
C848 C 0.40865 0.2779 0.73745 0.0
C849 C 0.37901 0.29366 0.73416 0.0
C850 C 0.35095 0.24235 0.73199 0.0
C851 C 0.38084 0.2266 0.73373 0.0
N852 N 0.43672 0.22796 0.74369 0.0
N853 N 0.3215 0.29229 0.73422 0.0
C854 C 0.40921 0.24395 0.73854 0.0
C855 C 0.34994 0.27622 0.7334 0.0
N856 N 0.43643 0.29526 0.73794 0.0
N857 N 0.32376 0.22482 0.72846 0.0
H858 H 0.32034 0.31713 0.73552 0.0
H859 H 0.29925 0.28121 0.73547 0.0
H860 H 0.32351 0.1999 0.72906 0.0
H861 H 0.3017 0.23467 0.72438 0.0
H862 H 0.45915 0.28518 0.73737 0.0
H863 H 0.43693 0.32015 0.73783 0.0
H864 H 0.45739 0.2391 0.74949 0.0
H865 H 0.43829 0.20312 0.74385 0.0
C866 C 0.09826 0.73516 0.23852 0.0
C867 C 0.128 0.7192 0.23692 0.0
C868 C 0.15649 0.77016 0.23936 0.0
C869 C 0.12698 0.78613 0.23642 0.0
N870 N 0.06941 0.78518 0.23458 0.0
N871 N 0.18556 0.72006 0.23742 0.0
C872 C 0.09762 0.76908 0.23696 0.0
C873 C 0.15723 0.73628 0.23824 0.0
N874 N 0.07081 0.71771 0.24111 0.0
N875 N 0.18363 0.7876 0.24324 0.0
H876 H 0.18668 0.69515 0.23766 0.0
H877 H 0.2078 0.73105 0.23571 0.0
H878 H 0.18332 0.81247 0.24453 0.0
H879 H 0.20568 0.77759 0.24717 0.0
H880 H 0.04845 0.72772 0.24409 0.0
H881 H 0.07091 0.69282 0.24212 0.0
H882 H 0.04734 0.77408 0.2323 0.0
H883 H 0.06819 0.81005 0.23402 0.0
C884 C 0.10972 0.24012 0.76106 0.0
C885 C 0.13953 0.22472 0.75788 0.0
C886 C 0.16653 0.27628 0.7533 0.0
C887 C 0.13734 0.2916 0.75873 0.0
N888 N 0.07998 0.28998 0.76137 0.0
N889 N 0.19421 0.22631 0.7456 0.0
C890 C 0.10845 0.27402 0.76041 0.0
C891 C 0.16729 0.24232 0.75206 0.0
N892 N 0.08312 0.2223 0.76589 0.0
N893 N 0.19358 0.29423 0.75033 0.0
H894 H 0.1949 0.20142 0.74449 0.0
H895 H 0.21495 0.23734 0.73983 0.0
H896 H 0.19309 0.31914 0.74987 0.0
H897 H 0.21645 0.2848 0.74867 0.0
H898 H 0.06141 0.23192 0.77104 0.0
H899 H 0.08306 0.19739 0.76538 0.0
H900 H 0.05769 0.27885 0.76095 0.0
H901 H 0.07865 0.31486 0.76068 0.0
C902 C 0.38896 0.73972 0.25635 0.0
C903 C 0.36687 0.72302 0.27007 0.0
C904 C 0.34068 0.77334 0.27972 0.0
C905 C 0.3658 0.7903 0.26911 0.0
N906 N 0.41562 0.79007 0.24867 0.0
N907 N 0.32285 0.72368 0.29621 0.0
C908 C 0.39016 0.77369 0.2574 0.0
C909 C 0.34294 0.73974 0.28208 0.0
N910 N 0.40923 0.72316 0.24274 0.0
N911 N 0.31422 0.78938 0.28703 0.0
H912 H 0.32276 0.6989 0.29785 0.0
H913 H 0.3077 0.73506 0.30744 0.0
H914 H 0.31143 0.81394 0.2849 0.0
H915 H 0.29371 0.77806 0.293 0.0
H916 H 0.4234 0.734 0.23061 0.0
H917 H 0.41018 0.69828 0.24235 0.0
H918 H 0.43596 0.77901 0.24232 0.0
H919 H 0.41769 0.81486 0.24921 0.0
C920 C 0.49424 0.09707 0.50549 0.0
C921 C 0.47854 0.12708 0.50643 0.0
C922 C 0.52995 0.15509 0.50387 0.0
C923 C 0.54557 0.1252 0.50548 0.0
N924 N 0.5445 0.06813 0.50201 0.0
N925 N 0.47985 0.18424 0.5012 0.0
C926 C 0.5282 0.09623 0.50419 0.0
C927 C 0.49591 0.15601 0.50357 0.0
N928 N 0.4765 0.06958 0.50652 0.0
N929 N 0.54789 0.18249 0.50385 0.0
H930 H 0.45499 0.18587 0.50162 0.0
H931 H 0.4908 0.20592 0.49743 0.0
H932 H 0.57281 0.18217 0.50283 0.0
H933 H 0.53853 0.20539 0.50524 0.0
H934 H 0.48613 0.04683 0.50816 0.0
H935 H 0.45153 0.06959 0.50601 0.0
H936 H 0.53371 0.04594 0.49979 0.0
H937 H 0.56943 0.06736 0.50085 0.0
C938 C 0.98887 0.91601 0.00911 0.0
C939 C 0.97167 0.88685 0.00829 0.0
C940 C 0.02166 0.85714 0.0037 0.0
C941 C 0.03879 0.88556 0.00869 0.0
N942 N 0.04015 0.94251 0.0142 0.0
N943 N 0.97034 0.82967 0.00387 0.0
C944 C 0.0228 0.91527 0.01051 0.0
C945 C 0.98763 0.85744 0.00473 0.0
N946 N 0.9725 0.94423 0.00847 0.0
N947 N 0.03795 0.82986 -0.00151 0.0
H948 H 0.94539 0.82919 0.00386 0.0
H949 H 0.98049 0.807 0.0041 0.0
H950 H 0.06286 0.82866 0.99826 0.0
H951 H 0.02703 0.80907 0.99275 0.0
H952 H 0.98336 0.96658 0.00741 0.0
H953 H 0.9476 0.94511 0.00712 0.0
H954 H 0.0301 0.96446 0.01826 0.0
H955 H 0.06512 0.94294 0.01376 0.0
C956 C 0.49388 0.90995 0.4879 0.0
C957 C 0.47661 0.88246 0.48111 0.0
C958 C 0.52654 0.85239 0.47759 0.0
C959 C 0.54387 0.88117 0.48074 0.0
N960 N 0.54481 0.9379 0.48806 0.0
N961 N 0.47539 0.8272 0.46984 0.0
C962 C 0.52784 0.91004 0.48614 0.0
C963 C 0.49263 0.85346 0.47626 0.0
N964 N 0.47777 0.93607 0.49565 0.0
N965 N 0.54262 0.82402 0.47631 0.0
H966 H 0.45042 0.82653 0.4701 0.0
H967 H 0.48564 0.80656 0.46338 0.0
H968 H 0.56748 0.82254 0.47764 0.0
H969 H 0.53143 0.80178 0.47598 0.0
H970 H 0.48897 0.95571 0.50292 0.0
H971 H 0.45286 0.93707 0.4965 0.0
H972 H 0.53426 0.96032 0.48929 0.0
H973 H 0.56968 0.93902 0.48698 0.0
C974 C 0.0266 0.16117 0.99154 0.0
C975 C 0.04169 0.13099 0.99264 0.0
C976 C 0.99 0.10489 -0.00111 0.0
C977 C 0.9748 0.13397 0.99319 0.0
N978 N 0.97705 0.19055 0.9864 0.0
N979 N 0.03949 0.07441 -0.0005 0.0
C980 C 0.99266 0.16254 0.99065 0.0
C981 C 0.02394 0.10297 0.99753 0.0
N982 N 0.04496 0.18825 0.99119 0.0
N983 N 0.97181 0.07914 0.005 0.0
H984 H 0.0644 0.07269 -0.00064 0.0
H985 H 0.028 0.05239 0.00063 0.0
H986 H 0.9469 0.08013 0.00591 0.0
H987 H 0.9812 0.0577 0.01079 0.0
H988 H 0.03575 0.2113 0.9918 0.0
H989 H 0.06988 0.18748 0.99218 0.0
H990 H 0.98845 0.21174 0.98193 0.0
H991 H 0.95213 0.1923 0.98681 0.0
C992 C 0.1652 0.49678 0.97407 0.0
C993 C 0.16286 0.47107 0.98941 0.0
C994 C 0.16787 0.50894 0.02041 0.0
C995 C 0.16425 0.53465 0.00525 0.0
N996 N 0.15906 0.55366 0.96754 0.0
N997 N 0.16128 0.45219 0.02736 0.0
C998 C 0.16347 0.52881 0.98199 0.0
C999 C 0.1647 0.47692 0.01266 0.0
N1000 N 0.16924 0.49039 0.95192 0.0
N1001 N 0.17438 0.51535 0.04226 0.0
H1002 H 0.15933 0.42841 0.02238 0.0
H1003 H 0.15844 0.45531 0.04444 0.0
H1004 H 0.17707 0.53864 0.04818 0.0
H1005 H 0.18012 0.49789 0.05393 0.0
H1006 H 0.17398 0.50787 0.94002 0.0
H1007 H 0.17086 0.46713 0.94575 0.0
H1008 H 0.15419 0.55067 0.95067 0.0
H1009 H 0.15851 0.57746 0.97266 0.0
C1010 C 0.75873 0.88757 0.22774 0.0
C1011 C 0.7824 0.90594 0.23907 0.0
C1012 C 0.74194 0.92302 0.26632 0.0
C1013 C 0.71827 0.90571 0.25436 0.0
N1014 N 0.70228 0.87831 0.22096 0.0
N1015 N 0.79555 0.94579 0.26652 0.0
C1016 C 0.72614 0.89028 0.23414 0.0
C1017 C 0.77367 0.92512 0.25759 0.0
N1018 N 0.76745 0.86574 0.21191 0.0
N1019 N 0.73446 0.93615 0.28649 0.0
H1020 H 0.81885 0.94791 0.26043 0.0
H1021 H 0.7899 0.96266 0.27862 0.0
H1022 H 0.71135 0.93569 0.29308 0.0
H1023 H 0.75142 0.94577 0.29728 0.0
H1024 H 0.7516 0.84918 0.20509 0.0
H1025 H 0.79103 0.8617 0.20708 0.0
H1026 H 0.70617 0.86969 0.20491 0.0
H1027 H 0.6781 0.88001 0.22518 0.0
C1028 C 0.34757 0.48279 0.48519 0.0
C1029 C 0.35654 0.47608 0.50748 0.0
C1030 C 0.36409 0.53336 0.51477 0.0
C1031 C 0.35572 0.54008 0.49236 0.0
N1032 N 0.33137 0.52277 0.45812 0.0
N1033 N 0.36414 0.49484 0.545 0.0
C1034 C 0.34471 0.51521 0.47821 0.0
C1035 C 0.36168 0.50143 0.52277 0.0
N1036 N 0.34377 0.45834 0.47034 0.0
N1037 N 0.37645 0.55694 0.528 0.0
H1038 H 0.36221 0.47168 0.55131 0.0
H1039 H 0.36487 0.5124 0.55727 0.0
H1040 H 0.37847 0.58067 0.52292 0.0
H1041 H 0.38676 0.55262 0.54348 0.0
H1042 H 0.34115 0.46179 0.45327 0.0
H1043 H 0.34517 0.43435 0.47488 0.0
H1044 H 0.32023 0.50612 0.44782 0.0
H1045 H 0.32873 0.54634 0.45274 0.0
C1046 C 0.77501 0.13879 0.76666 0.0
C1047 C 0.79751 0.11532 0.75977 0.0
C1048 C 0.75657 0.09124 0.73556 0.0
C1049 C 0.73359 0.11301 0.74404 0.0
N1050 N 0.71946 0.15375 0.77072 0.0
N1051 N 0.80843 0.06608 0.74043 0.0
C1052 C 0.74232 0.13537 0.7607 0.0
C1053 C 0.78797 0.09066 0.74492 0.0
N1054 N 0.78516 0.16568 0.77757 0.0
N1055 N 0.74847 0.0714 0.71839 0.0
H1056 H 0.83136 0.0647 0.74719 0.0
H1057 H 0.8018 0.04575 0.73155 0.0
H1058 H 0.72529 0.07007 0.71198 0.0
H1059 H 0.76503 0.05766 0.70969 0.0
H1060 H 0.77042 0.18521 0.78067 0.0
H1061 H 0.80905 0.17032 0.78135 0.0
H1062 H 0.72397 0.16777 0.78471 0.0
H1063 H 0.69535 0.15302 0.76635 0.0
C1064 C 0.86914 0.51681 0.02003 0.0
C1065 C 0.85078 0.53944 0.00786 0.0
C1066 C 0.83474 0.49754 0.98144 0.0
C1067 C 0.85267 0.47496 0.99389 0.0
N1068 N 0.88053 0.46101 0.02752 0.0
N1069 N 0.81166 0.5508 0.97963 0.0
C1070 C 0.86773 0.484 0.01403 0.0
C1071 C 0.8321 0.52958 0.98938 0.0
N1072 N 0.88952 0.52685 0.03645 0.0
N1073 N 0.8216 0.48872 0.96153 0.0
H1074 H 0.80951 0.57439 0.98506 0.0
H1075 H 0.7951 0.54453 0.96744 0.0
H1076 H 0.8224 0.46533 0.95556 0.0
H1077 H 0.81145 0.50476 0.95035 0.0
H1078 H 0.90639 0.51207 0.04393 0.0
H1079 H 0.8916 0.55058 0.0415 0.0
H1080 H 0.88901 0.46554 0.04351 0.0
H1081 H 0.87983 0.43674 0.02355 0.0
C1082 C 0.24052 0.12294 0.73326 0.0
C1083 C 0.23316 0.10654 0.7533 0.0
C1084 C 0.28875 0.08753 0.75553 0.0
C1085 C 0.29695 0.10732 0.73718 0.0
N1086 N 0.28144 0.14859 0.71106 0.0
N1087 N 0.25009 0.07449 0.78443 0.0
C1088 C 0.273 0.12596 0.72647 0.0
C1089 C 0.25725 0.0891 0.76467 0.0
N1090 N 0.21659 0.13635 0.7209 0.0
N1091 N 0.31082 0.06662 0.76379 0.0
H1092 H 0.2269 0.07349 0.79086 0.0
H1093 H 0.26726 0.06473 0.79496 0.0
H1094 H 0.33389 0.06468 0.75728 0.0
H1095 H 0.30556 0.04935 0.77573 0.0
H1096 H 0.22009 0.14524 0.70487 0.0
H1097 H 0.19265 0.13625 0.72574 0.0
H1098 H 0.26557 0.1655 0.70482 0.0
H1099 H 0.30491 0.15298 0.70606 0.0
C1100 C 0.66748 0.49785 0.52485 0.0
C1101 C 0.66981 0.47223 0.50948 0.0
C1102 C 0.67965 0.51079 0.4794 0.0
C1103 C 0.67111 0.53609 0.49395 0.0
N1104 N 0.65553 0.55382 0.53065 0.0
N1105 N 0.67766 0.45386 0.47182 0.0
C1106 C 0.66533 0.5298 0.51684 0.0
C1107 C 0.67646 0.47851 0.48671 0.0
N1108 N 0.66737 0.49149 0.54717 0.0
N1109 N 0.69086 0.51782 0.45857 0.0
H1110 H 0.67592 0.42996 0.47655 0.0
H1111 H 0.67845 0.4571 0.45463 0.0
H1112 H 0.69376 0.54129 0.45301 0.0
H1113 H 0.70015 0.5008 0.44773 0.0
H1114 H 0.66881 0.50911 0.55937 0.0
H1115 H 0.66908 0.46831 0.55342 0.0
H1116 H 0.64695 0.54991 0.54671 0.0
H1117 H 0.65393 0.5776 0.52566 0.0
C1118 C 0.22566 0.89396 0.26183 0.0
C1119 C 0.21819 0.90872 0.24129 0.0
C1120 C 0.27327 0.92926 0.23874 0.0
C1121 C 0.28178 0.9105 0.25753 0.0
N1122 N 0.26661 0.8709 0.28509 0.0
N1123 N 0.23462 0.93938 0.20932 0.0
C1124 C 0.25805 0.89206 0.26878 0.0
C1125 C 0.24182 0.92647 0.2296 0.0
N1126 N 0.20157 0.88178 0.27476 0.0
N1127 N 0.2951 0.9501 0.22992 0.0
H1128 H 0.21166 0.93852 0.20253 0.0
H1129 H 0.25164 0.94936 0.1987 0.0
H1130 H 0.31818 0.95267 0.23631 0.0
H1131 H 0.2896 0.96666 0.21757 0.0
H1132 H 0.20504 0.87358 0.29095 0.0
H1133 H 0.17752 0.88293 0.27013 0.0
H1134 H 0.25089 0.85414 0.29184 0.0
H1135 H 0.29003 0.86769 0.29052 0.0
C1136 C 0.67633 0.0107 0.52092 0.0
C1137 C 0.66968 0.03602 0.50586 0.0
C1138 C 0.67184 0.99778 0.47498 0.0
C1139 C 0.67114 0.9721 0.49041 0.0
N1140 N 0.67143 0.95411 0.52865 0.0
N1141 N 0.65857 0.05305 0.46811 0.0
C1142 C 0.67369 0.97845 0.51356 0.0
C1143 C 0.66739 0.02958 0.48268 0.0
N1144 N 0.68537 0.0176 0.54225 0.0
N1145 N 0.67672 0.99163 0.45289 0.0
H1146 H 0.65441 0.07661 0.4728 0.0
H1147 H 0.65278 0.04855 0.45153 0.0
H1148 H 0.68069 0.96858 0.44687 0.0
H1149 H 0.68031 0.00952 0.44107 0.0
H1150 H 0.69325 1.00036 0.55348 0.0
H1151 H 0.68828 0.04101 0.5479 0.0
H1152 H 0.66913 0.95785 0.54573 0.0
H1153 H 0.66964 0.93017 0.52411 0.0
C1154 C 0.23715 0.43203 0.74364 0.0
C1155 C 0.22763 0.40692 0.75814 0.0
C1156 C 0.28293 0.38707 0.75887 0.0
C1157 C 0.29159 0.40982 0.74241 0.0
N1158 N 0.2767 0.45227 0.71743 0.0
N1159 N 0.24026 0.35635 0.77564 0.0
C1160 C 0.26859 0.43184 0.73429 0.0
C1161 C 0.25025 0.38347 0.76489 0.0
N1162 N 0.21659 0.45663 0.73944 0.0
N1163 N 0.30583 0.36841 0.76858 0.0
H1164 H 0.21645 0.35155 0.77958 0.0
H1165 H 0.25504 0.33679 0.7785 0.0
H1166 H 0.32988 0.36905 0.76405 0.0
H1167 H 0.30144 0.35417 0.78249 0.0
H1168 H 0.22313 0.47723 0.73082 0.0
H1169 H 0.19365 0.45773 0.74625 0.0
H1170 H 0.26015 0.46625 0.70894 0.0
H1171 H 0.29991 0.45394 0.7111 0.0
C1172 C 0.84204 0.99919 0.01965 0.0
C1173 C 0.85145 0.97435 0.00495 0.0
C1174 C 0.85507 0.01337 0.97459 0.0
C1175 C 0.85226 0.03858 0.99023 0.0
N1176 N 0.84433 0.05574 0.0282 0.0
N1177 N 0.86957 0.95821 0.96838 0.0
C1178 C 0.84547 0.03164 0.01288 0.0
C1179 C 0.8581 0.98138 0.98226 0.0
N1180 N 0.82957 0.99165 0.04004 0.0
N1181 N 0.85472 0.02014 0.95232 0.0
H1182 H 0.87269 0.93452 0.97318 0.0
H1183 H 0.87847 0.96303 0.95251 0.0
H1184 H 0.85182 0.04333 0.94625 0.0
H1185 H 0.8538 1.00262 0.94002 0.0
H1186 H 0.81961 0.00849 0.05075 0.0
H1187 H 0.82618 0.96808 0.04524 0.0
H1188 H 0.84342 0.05177 0.04531 0.0
H1189 H 0.84648 0.07979 0.02396 0.0
C1190 C 0.2608 0.62803 0.26384 0.0
C1191 C 0.28332 0.6053 0.25591 0.0
C1192 C 0.24211 0.58269 0.23127 0.0
C1193 C 0.21915 0.60368 0.24071 0.0
N1194 N 0.20522 0.6423 0.2689 0.0
N1195 N 0.29457 0.55808 0.23442 0.0
C1196 C 0.22802 0.62483 0.25807 0.0
C1197 C 0.27376 0.58178 0.24023 0.0
N1198 N 0.27102 0.65415 0.27556 0.0
N1199 N 0.23375 0.56403 0.21352 0.0
H1200 H 0.3178 0.55679 0.2407 0.0
H1201 H 0.28811 0.5384 0.22481 0.0
H1202 H 0.21043 0.563 0.20733 0.0
H1203 H 0.25015 0.55095 0.20422 0.0
H1204 H 0.25625 0.67329 0.27963 0.0
H1205 H 0.29502 0.65865 0.279 0.0
H1206 H 0.20989 0.65543 0.28328 0.0
H1207 H 0.18102 0.64152 0.26478 0.0
C1208 C 0.36293 0.01458 0.52322 0.0
C1209 C 0.35352 0.0392 0.50825 0.0
C1210 C 0.34242 0.99917 0.47937 0.0
C1211 C 0.35277 0.97468 0.4941 0.0
N1212 N 0.36522 0.95781 0.53146 0.0
N1213 N 0.32761 0.05489 0.47428 0.0
C1214 C 0.36016 0.98198 0.51657 0.0
C1215 C 0.3411 0.03141 0.48698 0.0
N1216 N 0.37682 0.02234 0.54314 0.0
N1217 N 0.33454 0.99154 0.45792 0.0
H1218 H 0.32614 0.07857 0.47961 0.0
H1219 H 0.31556 0.0507 0.4594 0.0
H1220 H 0.33272 0.96797 0.45237 0.0
H1221 H 0.33077 0.00835 0.44543 0.0
H1222 H 0.38795 1.00581 0.55348 0.0
H1223 H 0.37941 0.04573 0.54879 0.0
H1224 H 0.36732 0.96137 0.54855 0.0
H1225 H 0.36453 0.93375 0.52703 0.0
C1226 C 0.72604 0.61481 0.23473 0.0
C1227 C 0.71837 0.59977 0.25516 0.0
C1228 C 0.77358 0.57991 0.25785 0.0
C1229 C 0.7822 0.59896 0.23919 0.0
N1230 N 0.76721 0.63938 0.21226 0.0
N1231 N 0.73483 0.56938 0.28722 0.0
C1232 C 0.75854 0.61743 0.22806 0.0
C1233 C 0.74204 0.58232 0.26692 0.0
N1234 N 0.70209 0.62656 0.2216 0.0
N1235 N 0.7954 0.55921 0.26666 0.0
H1236 H 0.71186 0.57005 0.29402 0.0
H1237 H 0.75188 0.55967 0.29786 0.0
H1238 H 0.81854 0.55692 0.26033 0.0
H1239 H 0.78981 0.54247 0.27891 0.0
H1240 H 0.70586 0.63494 0.20547 0.0
H1241 H 0.67795 0.62479 0.22596 0.0
H1242 H 0.75134 0.65595 0.20558 0.0
H1243 H 0.79078 0.64357 0.20738 0.0
C1244 C 0.14019 0.99462 0.01824 0.0
C1245 C 0.15821 0.97118 0.00652 0.0
C1246 C 0.17581 0.01224 0.97985 0.0
C1247 C 0.1591 0.03576 0.99229 0.0
N1248 N 0.13099 0.05069 0.02578 0.0
N1249 N 0.19758 0.95845 0.97863 0.0
C1250 C 0.14344 0.02739 0.01241 0.0
C1251 C 0.17735 0.98023 0.98801 0.0
N1252 N 0.11791 0.98548 0.03372 0.0
N1253 N 0.18967 0.02043 0.96002 0.0
H1254 H 0.19938 0.93498 0.98435 0.0
H1255 H 0.21443 0.96421 0.96649 0.0
H1256 H 0.19066 0.04395 0.95428 0.0
H1257 H 0.19882 1.00385 0.94879 0.0
H1258 H 0.1015 1.00116 0.04082 0.0
H1259 H 0.1132 0.96177 0.03788 0.0
H1260 H 0.1225 0.04629 0.04181 0.0
H1261 H 0.1317 0.07489 0.02176 0.0
C1262 C 0.78302 0.39814 0.73582 0.0
C1263 C 0.79093 0.41471 0.7556 0.0
C1264 C 0.73597 0.43532 0.75777 0.0
C1265 C 0.72711 0.41508 0.73983 0.0
N1266 N 0.74147 0.37287 0.71411 0.0
N1267 N 0.77497 0.44761 0.78656 0.0
C1268 C 0.75049 0.39557 0.72927 0.0
C1269 C 0.76751 0.43327 0.76679 0.0
N1270 N 0.80679 0.38496 0.72317 0.0
N1271 N 0.71437 0.4568 0.76592 0.0
H1272 H 0.79793 0.44716 0.79335 0.0
H1273 H 0.75808 0.4583 0.79689 0.0
H1274 H 0.69118 0.45877 0.75964 0.0
H1275 H 0.72015 0.47436 0.77752 0.0
H1276 H 0.80292 0.37535 0.7074 0.0
H1277 H 0.83094 0.3866 0.72747 0.0
H1278 H 0.75701 0.35557 0.70797 0.0
H1279 H 0.71787 0.36899 0.70921 0.0
C1280 C 0.14473 0.76835 0.99817 0.0
C1281 C 0.16171 0.78511 0.01491 0.0
C1282 C 0.183 0.73435 0.02897 0.0
C1283 C 0.16143 0.71747 0.01497 0.0
N1284 N 0.12092 0.71836 0.98625 0.0
N1285 N 0.1975 0.78485 0.04627 0.0
C1286 C 0.14259 0.73438 -0.00083 0.0
C1287 C 0.18153 0.76836 0.03007 0.0
N1288 N 0.13051 0.78515 0.98136 0.0
N1289 N 0.205 0.71768 0.04111 0.0
H1290 H 0.19787 0.80975 0.04696 0.0
H1291 H 0.20909 0.77397 0.0596 0.0
H1292 H 0.20678 0.69283 0.04031 0.0
H1293 H 0.22325 0.72841 0.05025 0.0
H1294 H 0.12021 0.77451 0.96742 0.0
H1295 H 0.13178 0.81003 0.98036 0.0
H1296 H 0.10358 0.72967 0.97666 0.0
H1297 H 0.11876 0.69358 0.98606 0.0
C1298 C 0.51865 0.93395 0.28187 0.0
C1299 C 0.53534 0.91198 0.26815 0.0
C1300 C 0.4846 0.89628 0.25061 0.0
C1301 C 0.46771 0.91378 0.26699 0.0
N1302 N 0.46797 0.94972 0.29831 0.0
N1303 N 0.53435 0.87105 0.23981 0.0
C1304 C 0.48453 0.93333 0.28237 0.0
C1305 C 0.51845 0.89331 0.25223 0.0
N1306 N 0.53561 0.95541 0.29435 0.0
N1307 N 0.46801 0.88238 0.23354 0.0
H1308 H 0.5591 0.86819 0.24024 0.0
H1309 H 0.52288 0.85393 0.23007 0.0
H1310 H 0.4432 0.88437 0.23205 0.0
H1311 H 0.47891 0.87167 0.21986 0.0
H1312 H 0.52514 0.97394 0.30328 0.0
H1313 H 0.56058 0.95638 0.29413 0.0
H1314 H 0.47876 0.96104 0.3118 0.0
H1315 H 0.44305 0.95076 0.29864 0.0
C1316 C 0.33683 0.24111 0.53188 0.0
C1317 C 0.35464 0.22411 0.51568 0.0
C1318 C 0.3726 0.27461 0.49891 0.0
C1319 C 0.35596 0.29168 0.51579 0.0
N1320 N 0.31584 0.29214 0.54449 0.0
N1321 N 0.38245 0.22368 0.48065 0.0
C1322 C 0.33588 0.27513 0.531 0.0
C1323 C 0.36993 0.24064 0.49802 0.0
N1324 N 0.3219 0.22465 0.54861 0.0
N1325 N 0.39287 0.29053 0.48485 0.0
H1326 H 0.38119 0.1988 0.47985 0.0
H1327 H 0.39144 0.23418 0.46622 0.0
H1328 H 0.39528 0.31531 0.48472 0.0
H1329 H 0.4088 0.27917 0.47415 0.0
H1330 H 0.31185 0.23542 0.56257 0.0
H1331 H 0.32063 0.19973 0.54885 0.0
H1332 H 0.29866 0.28175 0.55477 0.0
H1333 H 0.3145 0.31704 0.54389 0.0
C1334 C 1.00062 0.09323 0.79514 0.0
C1335 C 0.98282 0.09996 0.77557 0.0
C1336 C 0.03268 0.10521 0.75414 0.0
C1337 C 0.05034 0.1007 0.77407 0.0
N1338 N 0.0524 0.0822 0.81192 0.0
N1339 N 0.98074 0.10462 0.73571 0.0
C1340 C 0.0346 0.09184 0.79404 0.0
C1341 C 0.99855 0.10305 0.75474 0.0
N1342 N 0.98489 0.08952 0.81495 0.0
N1343 N 0.04849 0.11342 0.73504 0.0
H1344 H 0.9558 0.1035 0.73587 0.0
H1345 H 0.99047 0.10448 0.71975 0.0
H1346 H 0.07341 0.11417 0.73404 0.0
H1347 H 0.03717 0.12064 0.72046 0.0
H1348 H 0.99618 0.0885 0.83037 0.0
H1349 H 0.96001 0.08858 0.81595 0.0
H1350 H 0.04267 0.07305 0.82655 0.0
H1351 H 0.07733 0.08083 0.81137 0.0
C1352 C 0.14415 0.23632 0.99495 0.0
C1353 C 0.16111 0.21964 0.97818 0.0
C1354 C 0.1822 0.27052 0.96393 0.0
C1355 C 0.16077 0.28721 0.97809 0.0
N1356 N 0.11985 0.28607 0.00655 0.0
N1357 N 0.19644 0.22013 0.9465 0.0
C1358 C 0.14182 0.27021 0.99383 0.0
C1359 C 0.18074 0.2365 0.96286 0.0
N1360 N 0.13015 0.21953 0.01191 0.0
N1361 N 0.20396 0.28736 0.95159 0.0
H1362 H 0.19661 0.19523 0.94568 0.0
H1363 H 0.20794 0.2311 0.93313 0.0
H1364 H 0.2056 0.31224 0.95225 0.0
H1365 H 0.22213 0.27677 0.94233 0.0
H1366 H 0.11988 0.23023 0.02582 0.0
H1367 H 0.1316 0.19468 0.01306 0.0
H1368 H 0.10249 0.27458 0.01612 0.0
H1369 H 0.11736 0.31082 0.00649 0.0
C1370 C 0.98541 0.92883 0.21277 0.0
C1371 C 0.96882 0.90981 0.22859 0.0
C1372 C 0.0198 0.89052 0.24373 0.0
C1373 C 0.03647 0.90839 0.22723 0.0
N1374 N 0.03634 0.95029 0.19983 0.0
N1375 N 0.96938 0.87967 0.2626 0.0
C1376 C 0.01956 0.92952 0.21301 0.0
C1377 C 0.98588 0.89312 0.24529 0.0
N1378 N 0.96853 0.94481 0.19681 0.0
N1379 N 0.03603 0.86936 0.25686 0.0
H1380 H 0.94454 0.88136 0.26402 0.0
H1381 H 0.9803 0.86956 0.27649 0.0
H1382 H 0.06084 0.8671 0.25662 0.0
H1383 H 0.02487 0.85265 0.26712 0.0
H1384 H 0.97897 0.95581 0.18304 0.0
H1385 H 0.9436 0.94596 0.19688 0.0
H1386 H 0.02577 0.96822 0.19037 0.0
H1387 H 0.06131 0.95134 0.19987 0.0
C1388 C 0.35595 0.73993 0.49276 0.0
C1389 C 0.35307 0.72368 0.47209 0.0
C1390 C 0.34886 0.775 0.45253 0.0
C1391 C 0.35134 0.79144 0.47321 0.0
N1392 N 0.34916 0.78955 0.51323 0.0
N1393 N 0.33715 0.72516 0.43363 0.0
C1394 C 0.35219 0.77381 0.49342 0.0
C1395 C 0.34624 0.74112 0.45244 0.0
N1396 N 0.36419 0.72338 0.5115 0.0
N1397 N 0.35157 0.79125 0.43284 0.0
H1398 H 0.33466 0.70036 0.43319 0.0
H1399 H 0.32884 0.73659 0.41935 0.0
H1400 H 0.35456 0.81588 0.43174 0.0
H1401 H 0.35381 0.77991 0.41748 0.0
H1402 H 0.37045 0.73436 0.52644 0.0
H1403 H 0.36686 0.69863 0.51178 0.0
H1404 H 0.34662 0.77795 0.52848 0.0
H1405 H 0.34603 0.81425 0.51414 0.0
C1406 C 0.49993 0.08444 0.71323 0.0
C1407 C 0.48262 0.10382 0.72841 0.0
C1408 C 0.5328 0.12296 0.74494 0.0
C1409 C 0.55018 0.10548 0.72872 0.0
N1410 N 0.55153 0.064 0.70099 0.0
N1411 N 0.48135 0.13466 0.76209 0.0
C1412 C 0.53408 0.08406 0.71418 0.0
C1413 C 0.49879 0.12076 0.74545 0.0
N1414 N 0.48372 0.0681 0.69706 0.0
N1415 N 0.54893 0.14254 0.75933 0.0
H1416 H 0.45643 0.13298 0.76281 0.0
H1417 H 0.49134 0.14548 0.77605 0.0
H1418 H 0.57386 0.14294 0.76037 0.0
H1419 H 0.53791 0.15905 0.76974 0.0
H1420 H 0.49468 0.05662 0.68373 0.0
H1421 H 0.45879 0.06701 0.69652 0.0
H1422 H 0.54154 0.04595 0.6913 0.0
H1423 H 0.57648 0.0638 0.701 0.0
C1424 C 0.8678 0.27549 0.99641 0.0
C1425 C 0.85145 0.29134 0.97888 0.0
C1426 C 0.83303 0.2395 0.96441 0.0
C1427 C 0.85361 0.22377 0.97961 0.0
N1428 N 0.8916 0.22621 0.00976 0.0
N1429 N 0.81723 0.28925 0.9467 0.0
C1430 C 0.8707 0.24154 0.9959 0.0
C1431 C 0.83336 0.27351 0.96317 0.0
N1432 N 0.88121 0.2929 0.01327 0.0
N1433 N 0.81301 0.2217 0.95133 0.0
H1434 H 0.81509 0.31408 0.94636 0.0
H1435 H 0.80687 0.278 0.93303 0.0
H1436 H 0.81212 0.1968 0.95219 0.0
H1437 H 0.79548 0.23138 0.94108 0.0
H1438 H 0.89056 0.28275 0.02768 0.0
H1439 H 0.88069 0.31776 0.01381 0.0
H1440 H 0.90801 0.23798 0.01991 0.0
H1441 H 0.89404 0.20145 0.01021 0.0
C1442 C 0.63879 0.77031 0.46266 0.0
C1443 C 0.66125 0.78742 0.47586 0.0
C1444 C 0.68411 0.73662 0.48903 0.0
C1445 C 0.66051 0.71969 0.47676 0.0
N1446 N 0.61209 0.72013 0.45484 0.0
N1447 N 0.70294 0.78778 0.50344 0.0
C1448 C 0.63698 0.73648 0.46437 0.0
C1449 C 0.68326 0.77081 0.48962 0.0
N1450 N 0.61943 0.78638 0.4481 0.0
N1451 N 0.70765 0.71997 0.49967 0.0
H1452 H 0.70333 0.81271 0.50373 0.0
H1453 H 0.71744 0.7774 0.5155 0.0
H1454 H 0.70836 0.69505 0.49986 0.0
H1455 H 0.72744 0.7306 0.50716 0.0
H1456 H 0.60571 0.77516 0.43592 0.0
H1457 H 0.61854 0.81121 0.44701 0.0
H1458 H 0.59194 0.73111 0.44817 0.0
H1459 H 0.61011 0.69532 0.45512 0.0
C1460 C 0.8286 0.74104 0.03498 0.0
C1461 C 0.84625 0.72389 0.01875 0.0
C1462 C 0.86418 0.77414 0.00173 0.0
C1463 C 0.84829 0.7913 0.01884 0.0
N1464 N 0.80945 0.79242 0.04844 0.0
N1465 N 0.87423 0.72299 0.98379 0.0
C1466 C 0.82824 0.77512 0.03426 0.0
C1467 C 0.86167 0.74019 0.00104 0.0
N1468 N 0.81351 0.7246 0.05166 0.0
N1469 N 0.88272 0.79039 0.98671 0.0
H1470 H 0.87278 0.69812 0.98306 0.0
H1471 H 0.88378 0.73317 0.96943 0.0
H1472 H 0.88342 0.81531 0.98599 0.0
H1473 H 0.89815 0.77948 0.97546 0.0
H1474 H 0.80327 0.73529 0.06557 0.0
H1475 H 0.81216 0.69968 0.05188 0.0
H1476 H 0.79246 0.78238 0.05902 0.0
H1477 H 0.80913 0.81733 0.04841 0.0
C1478 C 0.68491 0.27022 0.53411 0.0
C1479 C 0.66434 0.28718 0.51955 0.0
C1480 C 0.64721 0.23648 0.50269 0.0
C1481 C 0.66346 0.21957 0.51971 0.0
N1482 N 0.69746 0.21982 0.55211 0.0
N1483 N 0.62467 0.28677 0.49036 0.0
C1484 C 0.68279 0.23624 0.53532 0.0
C1485 C 0.6456 0.27044 0.50361 0.0
N1486 N 0.7065 0.28679 0.54674 0.0
N1487 N 0.63338 0.21988 0.48561 0.0
H1488 H 0.62316 0.31162 0.49015 0.0
H1489 H 0.60736 0.2757 0.48055 0.0
H1490 H 0.63438 0.195 0.48451 0.0
H1491 H 0.62364 0.23069 0.47155 0.0
H1492 H 0.72421 0.27596 0.55627 0.0
H1493 H 0.70853 0.31164 0.54603 0.0
H1494 H 0.7086 0.23079 0.56561 0.0
H1495 H 0.69699 0.19497 0.55327 0.0
C1496 C 0.98976 0.39781 0.75447 0.0
C1497 C 0.97384 0.41741 0.7703 0.0
C1498 C 0.02576 0.43674 0.78422 0.0
C1499 C 0.04153 0.41638 0.76887 0.0
N1500 N 0.03943 0.38496 0.73545 0.0
N1501 N 0.97588 0.46117 0.7962 0.0
C1502 C 0.02369 0.3995 0.75262 0.0
C1503 C 0.99168 0.43882 0.78382 0.0
N1504 N 0.97287 0.37581 0.74238 0.0
N1505 N 0.04319 0.45256 0.80001 0.0
H1506 H 0.95098 0.46325 0.79603 0.0
H1507 H 0.98731 0.47935 0.80497 0.0
H1508 H 0.06813 0.45252 0.80024 0.0
H1509 H 0.03303 0.46448 0.81348 0.0
H1510 H 0.98361 0.35808 0.73281 0.0
H1511 H 0.94806 0.37369 0.74301 0.0
H1512 H 0.02786 0.3747 0.72185 0.0
H1513 H 0.06428 0.38602 0.73375 0.0
C1514 C 0.48575 0.61399 0.24991 0.0
C1515 C 0.46835 0.59726 0.26653 0.0
C1516 C 0.51885 0.57629 0.28147 0.0
C1517 C 0.53608 0.59783 0.26768 0.0
N1518 N 0.5361 0.63828 0.23899 0.0
N1519 N 0.46803 0.56219 0.29844 0.0
C1520 C 0.51967 0.61649 0.25158 0.0
C1521 C 0.48476 0.5777 0.28211 0.0
N1522 N 0.46962 0.62752 0.23253 0.0
N1523 N 0.53526 0.55449 0.29394 0.0
H1524 H 0.44313 0.56174 0.2991 0.0
H1525 H 0.47878 0.55111 0.31203 0.0
H1526 H 0.56019 0.55296 0.29361 0.0
H1527 H 0.52429 0.53615 0.30286 0.0
H1528 H 0.4809 0.63763 0.21875 0.0
H1529 H 0.4448 0.62572 0.23091 0.0
H1530 H 0.525 0.65542 0.22911 0.0
H1531 H 0.56091 0.6407 0.23944 0.0
C1532 C 0.49112 0.43298 0.70757 0.0
C1533 C 0.47413 0.41886 0.72553 0.0
C1534 C 0.52461 0.41078 0.74572 0.0
C1535 C 0.54167 0.41987 0.72633 0.0
N1536 N 0.54236 0.44075 0.68901 0.0
N1537 N 0.47353 0.39556 0.76215 0.0
C1538 C 0.52524 0.43193 0.70745 0.0
C1539 C 0.49056 0.40861 0.74493 0.0
N1540 N 0.47451 0.44677 0.6905 0.0
N1541 N 0.54118 0.40395 0.76474 0.0
H1542 H 0.44855 0.3952 0.76244 0.0
H1543 H 0.48389 0.38419 0.77575 0.0
H1544 H 0.5661 0.40538 0.76555 0.0
H1545 H 0.53046 0.39939 0.78006 0.0
H1546 H 0.48514 0.45971 0.67767 0.0
H1547 H 0.44956 0.44733 0.69004 0.0
H1548 H 0.53214 0.44611 0.67367 0.0
H1549 H 0.56732 0.44162 0.68887 0.0
C1550 C 0.98416 0.57697 0.21288 0.0
C1551 C 0.96766 0.59612 0.22865 0.0
C1552 C 0.01873 0.61451 0.24428 0.0
C1553 C 0.03524 0.59709 0.22759 0.0
N1554 N 0.03501 0.55595 0.19964 0.0
N1555 N 0.96818 0.6263 0.26264 0.0
C1556 C 0.01833 0.5761 0.21323 0.0
C1557 C 0.98474 0.61259 0.2455 0.0
N1558 N 0.96723 0.56142 0.19669 0.0
N1559 N 0.03565 0.63376 0.25844 0.0
H1560 H 0.94329 0.62483 0.26389 0.0
H1561 H 0.97891 0.63672 0.27649 0.0
H1562 H 0.06063 0.63393 0.25894 0.0
H1563 H 0.02523 0.65023 0.26918 0.0
H1564 H 0.97766 0.55024 0.18304 0.0
H1565 H 0.94228 0.56085 0.19638 0.0
H1566 H 0.02441 0.5381 0.19008 0.0
H1567 H 0.05995 0.55539 0.19925 0.0
loop_
_geom_bond_atom_site_label_1
_geom_bond_atom_site_label_2
_geom_bond_distance
_geom_bond_site_symmetry_2
_ccdc_geom_bond_type
In0 O1 2.294 . S
In0 O2 2.326 . S
In0 O6 2.266 . S
In0 O7 2.326 . S
In0 O8 2.266 . S
In0 O9 2.326 . S
In0 O11 2.294 . S
In0 O12 2.326 . S
O1 In0 2.294 . S
O1 C10 1.240 . S
O2 In0 2.326 . S
O2 C10 1.252 . S
C3 O6 1.252 . S
C3 O7 1.260 . S
C4 O11 1.240 . S
C4 O12 1.252 . S
C5 O8 1.252 . S
C5 O9 1.260 . S
O6 In0 2.266 . S
O6 C3 1.252 . S
O7 In0 2.326 . S
O7 C3 1.260 . S
O8 In0 2.266 . S
O8 C5 1.252 . S
O9 In0 2.326 . S
O9 C5 1.260 . S
C10 O1 1.240 . S
C10 O2 1.252 . S
O11 In0 2.294 . S
O11 C4 1.240 . S
O12 In0 2.326 . S
O12 C4 1.252 . S
In13 O14 2.294 . S
In13 O15 2.326 . S
In13 O19 2.266 . S
In13 O20 2.326 . S
In13 O21 2.266 . S
In13 O22 2.326 . S
In13 O24 2.294 . S
In13 O25 2.326 . S
O14 In13 2.294 . S
O14 C23 1.240 . S
O15 In13 2.326 . S
O15 C23 1.252 . S
C16 O19 1.252 . S
C16 O20 1.260 . S
C17 O24 1.240 . S
C17 O25 1.252 . S
C18 O21 1.252 . S
C18 O22 1.260 . S
O19 In13 2.266 . S
O19 C16 1.252 . S
O20 In13 2.326 . S
O20 C16 1.260 . S
O21 In13 2.266 . S
O21 C18 1.252 . S
O22 In13 2.326 . S
O22 C18 1.260 . S
C23 O14 1.240 . S
C23 O15 1.252 . S
O24 In13 2.294 . S
O24 C17 1.240 . S
O25 In13 2.326 . S
O25 C17 1.252 . S
In26 O27 2.294 . S
In26 O28 2.326 . S
In26 O32 2.266 . S
In26 O33 2.326 . S
In26 O34 2.266 . S
In26 O35 2.326 . S
In26 O37 2.294 . S
In26 O38 2.326 . S
O27 In26 2.294 . S
O27 C36 1.240 . S
O28 In26 2.326 . S
O28 C36 1.252 . S
C29 O32 1.252 . S
C29 O33 1.260 . S
C30 O37 1.240 . S
C30 O38 1.252 . S
C31 O34 1.252 . S
C31 O35 1.260 . S
O32 In26 2.266 . S
O32 C29 1.252 . S
O33 In26 2.326 . S
O33 C29 1.260 . S
O34 In26 2.266 . S
O34 C31 1.252 . S
O35 In26 2.326 . S
O35 C31 1.260 . S
C36 O27 1.240 . S
C36 O28 1.252 . S
O37 In26 2.294 . S
O37 C30 1.240 . S
O38 In26 2.326 . S
O38 C30 1.252 . S
In39 O40 2.294 . S
In39 O41 2.326 . S
In39 O45 2.266 . S
In39 O46 2.326 . S
In39 O47 2.266 . S
In39 O48 2.326 . S
In39 O50 2.294 . S
In39 O51 2.326 . S
O40 In39 2.294 . S
O40 C49 1.240 . S
O41 In39 2.326 . S
O41 C49 1.252 . S
C42 O45 1.252 . S
C42 O46 1.260 . S
C43 O50 1.240 . S
C43 O51 1.252 . S
C44 O47 1.252 . S
C44 O48 1.260 . S
O45 In39 2.266 . S
O45 C42 1.252 . S
O46 In39 2.326 . S
O46 C42 1.260 . S
O47 In39 2.266 . S
O47 C44 1.252 . S
O48 In39 2.326 . S
O48 C44 1.260 . S
C49 O40 1.240 . S
C49 O41 1.252 . S
O50 In39 2.294 . S
O50 C43 1.240 . S
O51 In39 2.326 . S
O51 C43 1.252 . S
In52 O53 2.294 . S
In52 O54 2.326 . S
In52 O58 2.266 . S
In52 O59 2.326 . S
In52 O60 2.266 . S
In52 O61 2.326 . S
In52 O63 2.294 . S
In52 O64 2.326 . S
O53 In52 2.294 . S
O53 C62 1.240 . S
O54 In52 2.326 . S
O54 C62 1.252 . S
C55 O58 1.252 . S
C55 O59 1.260 . S
C56 O63 1.240 . S
C56 O64 1.252 . S
C57 O60 1.252 . S
C57 O61 1.260 . S
O58 In52 2.266 . S
O58 C55 1.252 . S
O59 In52 2.326 . S
O59 C55 1.260 . S
O60 In52 2.266 . S
O60 C57 1.252 . S
O61 In52 2.326 . S
O61 C57 1.260 . S
C62 O53 1.240 . S
C62 O54 1.252 . S
O63 In52 2.294 . S
O63 C56 1.240 . S
O64 In52 2.326 . S
O64 C56 1.252 . S
In65 O66 2.294 . S
In65 O67 2.326 . S
In65 O71 2.266 . S
In65 O72 2.326 . S
In65 O73 2.266 . S
In65 O74 2.326 . S
In65 O76 2.294 . S
In65 O77 2.326 . S
O66 In65 2.294 . S
O66 C75 1.240 . S
O67 In65 2.326 . S
O67 C75 1.252 . S
C68 O71 1.252 . S
C68 O72 1.260 . S
C69 O76 1.240 . S
C69 O77 1.252 . S
C70 O73 1.252 . S
C70 O74 1.260 . S
O71 In65 2.266 . S
O71 C68 1.252 . S
O72 In65 2.326 . S
O72 C68 1.260 . S
O73 In65 2.266 . S
O73 C70 1.252 . S
O74 In65 2.326 . S
O74 C70 1.260 . S
C75 O66 1.240 . S
C75 O67 1.252 . S
O76 In65 2.294 . S
O76 C69 1.240 . S
O77 In65 2.326 . S
O77 C69 1.252 . S
In78 O79 2.294 . S
In78 O80 2.326 . S
In78 O84 2.266 . S
In78 O85 2.326 . S
In78 O86 2.266 . S
In78 O87 2.326 . S
In78 O89 2.294 . S
In78 O90 2.326 . S
O79 In78 2.294 . S
O79 C88 1.240 . S
O80 In78 2.326 . S
O80 C88 1.252 . S
C81 O84 1.252 . S
C81 O85 1.260 . S
C82 O89 1.240 . S
C82 O90 1.252 . S
C83 O86 1.252 . S
C83 O87 1.260 . S
O84 In78 2.266 . S
O84 C81 1.252 . S
O85 In78 2.326 . S
O85 C81 1.260 . S
O86 In78 2.266 . S
O86 C83 1.252 . S
O87 In78 2.326 . S
O87 C83 1.260 . S
C88 O79 1.240 . S
C88 O80 1.252 . S
O89 In78 2.294 . S
O89 C82 1.240 . S
O90 In78 2.326 . S
O90 C82 1.252 . S
In91 O92 2.294 . S
In91 O93 2.326 . S
In91 O97 2.266 . S
In91 O98 2.326 . S
In91 O99 2.266 . S
In91 O100 2.326 . S
In91 O102 2.294 . S
In91 O103 2.326 . S
O92 In91 2.294 . S
O92 C101 1.240 . S
O93 In91 2.326 . S
O93 C101 1.252 . S
C94 O97 1.252 . S
C94 O98 1.260 . S
C95 O102 1.240 . S
C95 O103 1.252 . S
C96 O99 1.252 . S
C96 O100 1.260 . S
O97 In91 2.266 . S
O97 C94 1.252 . S
O98 In91 2.326 . S
O98 C94 1.260 . S
O99 In91 2.266 . S
O99 C96 1.252 . S
O100 In91 2.326 . S
O100 C96 1.260 . S
C101 O92 1.240 . S
C101 O93 1.252 . S
O102 In91 2.294 . S
O102 C95 1.240 . S
O103 In91 2.326 . S
O103 C95 1.252 . S
In104 O105 2.294 . S
In104 O106 2.326 . S
In104 O110 2.266 . S
In104 O111 2.326 . S
In104 O112 2.266 . S
In104 O113 2.326 . S
In104 O115 2.294 . S
In104 O116 2.326 . S
O105 In104 2.294 . S
O105 C114 1.240 . S
O106 In104 2.326 . S
O106 C114 1.252 . S
C107 O110 1.252 . S
C107 O111 1.260 . S
C108 O115 1.240 . S
C108 O116 1.252 . S
C109 O112 1.252 . S
C109 O113 1.260 . S
O110 In104 2.266 . S
O110 C107 1.252 . S
O111 In104 2.326 . S
O111 C107 1.260 . S
O112 In104 2.266 . S
O112 C109 1.252 . S
O113 In104 2.326 . S
O113 C109 1.260 . S
C114 O105 1.240 . S
C114 O106 1.252 . S
O115 In104 2.294 . S
O115 C108 1.240 . S
O116 In104 2.326 . S
O116 C108 1.252 . S
In117 O118 2.294 . S
In117 O119 2.326 . S
In117 O123 2.266 . S
In117 O124 2.326 . S
In117 O125 2.266 . S
In117 O126 2.326 . S
In117 O128 2.294 . S
In117 O129 2.326 . S
O118 In117 2.294 . S
O118 C127 1.240 . S
O119 In117 2.326 . S
O119 C127 1.252 . S
C120 O123 1.252 . S
C120 O124 1.260 . S
C121 O128 1.240 . S
C121 O129 1.252 . S
C122 O125 1.252 . S
C122 O126 1.260 . S
O123 In117 2.266 . S
O123 C120 1.252 . S
O124 In117 2.326 . S
O124 C120 1.260 . S
O125 In117 2.266 . S
O125 C122 1.252 . S
O126 In117 2.326 . S
O126 C122 1.260 . S
C127 O118 1.240 . S
C127 O119 1.252 . S
O128 In117 2.294 . S
O128 C121 1.240 . S
O129 In117 2.326 . S
O129 C121 1.252 . S
In130 O131 2.294 . S
In130 O132 2.326 . S
In130 O136 2.266 . S
In130 O137 2.326 . S
In130 O138 2.266 . S
In130 O139 2.326 . S
In130 O141 2.294 . S
In130 O142 2.326 . S
O131 In130 2.294 . S
O131 C140 1.240 . S
O132 In130 2.326 . S
O132 C140 1.252 . S
C133 O136 1.252 . S
C133 O137 1.260 . S
C134 O141 1.240 . S
C134 O142 1.252 . S
C135 O138 1.252 . S
C135 O139 1.260 . S
O136 In130 2.266 . S
O136 C133 1.252 . S
O137 In130 2.326 . S
O137 C133 1.260 . S
O138 In130 2.266 . S
O138 C135 1.252 . S
O139 In130 2.326 . S
O139 C135 1.260 . S
C140 O131 1.240 . S
C140 O132 1.252 . S
O141 In130 2.294 . S
O141 C134 1.240 . S
O142 In130 2.326 . S
O142 C134 1.252 . S
In143 O144 2.294 . S
In143 O145 2.326 . S
In143 O149 2.266 . S
In143 O150 2.326 . S
In143 O151 2.266 . S
In143 O152 2.326 . S
In143 O154 2.294 . S
In143 O155 2.326 . S
O144 In143 2.294 . S
O144 C153 1.240 . S
O145 In143 2.326 . S
O145 C153 1.252 . S
C146 O149 1.252 . S
C146 O150 1.260 . S
C147 O154 1.240 . S
C147 O155 1.252 . S
C148 O151 1.252 . S
C148 O152 1.260 . S
O149 In143 2.266 . S
O149 C146 1.252 . S
O150 In143 2.326 . S
O150 C146 1.260 . S
O151 In143 2.266 . S
O151 C148 1.252 . S
O152 In143 2.326 . S
O152 C148 1.260 . S
C153 O144 1.240 . S
C153 O145 1.252 . S
O154 In143 2.294 . S
O154 C147 1.240 . S
O155 In143 2.326 . S
O155 C147 1.252 . S
In156 O157 2.294 . S
In156 O158 2.326 . S
In156 O162 2.266 . S
In156 O163 2.326 . S
In156 O164 2.266 . S
In156 O165 2.326 . S
In156 O167 2.294 . S
In156 O168 2.326 . S
O157 In156 2.294 . S
O157 C166 1.240 . S
O158 In156 2.326 . S
O158 C166 1.252 . S
C159 O162 1.252 . S
C159 O163 1.260 . S
C160 O167 1.240 . S
C160 O168 1.252 . S
C161 O164 1.252 . S
C161 O165 1.260 . S
O162 In156 2.266 . S
O162 C159 1.252 . S
O163 In156 2.326 . S
O163 C159 1.260 . S
O164 In156 2.266 . S
O164 C161 1.252 . S
O165 In156 2.326 . S
O165 C161 1.260 . S
C166 O157 1.240 . S
C166 O158 1.252 . S
O167 In156 2.294 . S
O167 C160 1.240 . S
O168 In156 2.326 . S
O168 C160 1.252 . S
In169 O170 2.294 . S
In169 O171 2.326 . S
In169 O175 2.266 . S
In169 O176 2.326 . S
In169 O177 2.266 . S
In169 O178 2.326 . S
In169 O180 2.294 . S
In169 O181 2.326 . S
O170 In169 2.294 . S
O170 C179 1.240 . S
O171 In169 2.326 . S
O171 C179 1.252 . S
C172 O175 1.252 . S
C172 O176 1.260 . S
C173 O180 1.240 . S
C173 O181 1.252 . S
C174 O177 1.252 . S
C174 O178 1.260 . S
O175 In169 2.266 . S
O175 C172 1.252 . S
O176 In169 2.326 . S
O176 C172 1.260 . S
O177 In169 2.266 . S
O177 C174 1.252 . S
O178 In169 2.326 . S
O178 C174 1.260 . S
C179 O170 1.240 . S
C179 O171 1.252 . S
O180 In169 2.294 . S
O180 C173 1.240 . S
O181 In169 2.326 . S
O181 C173 1.252 . S
In182 O183 2.294 . S
In182 O184 2.326 . S
In182 O188 2.266 . S
In182 O189 2.326 . S
In182 O190 2.266 . S
In182 O191 2.326 . S
In182 O193 2.294 . S
In182 O194 2.326 . S
O183 In182 2.294 . S
O183 C192 1.240 . S
O184 In182 2.326 . S
O184 C192 1.252 . S
C185 O188 1.252 . S
C185 O189 1.260 . S
C186 O193 1.240 . S
C186 O194 1.252 . S
C187 O190 1.252 . S
C187 O191 1.260 . S
O188 In182 2.266 . S
O188 C185 1.252 . S
O189 In182 2.326 . S
O189 C185 1.260 . S
O190 In182 2.266 . S
O190 C187 1.252 . S
O191 In182 2.326 . S
O191 C187 1.260 . S
C192 O183 1.240 . S
C192 O184 1.252 . S
O193 In182 2.294 . S
O193 C186 1.240 . S
O194 In182 2.326 . S
O194 C186 1.252 . S
In195 O196 2.294 . S
In195 O197 2.326 . S
In195 O201 2.266 . S
In195 O202 2.326 . S
In195 O203 2.266 . S
In195 O204 2.326 . S
In195 O206 2.294 . S
In195 O207 2.326 . S
O196 In195 2.294 . S
O196 C205 1.240 . S
O197 In195 2.326 . S
O197 C205 1.252 . S
C198 O201 1.252 . S
C198 O202 1.260 . S
C199 O206 1.240 . S
C199 O207 1.252 . S
C200 O203 1.252 . S
C200 O204 1.260 . S
O201 In195 2.266 . S
O201 C198 1.252 . S
O202 In195 2.326 . S
O202 C198 1.260 . S
O203 In195 2.266 . S
O203 C200 1.252 . S
O204 In195 2.326 . S
O204 C200 1.260 . S
C205 O196 1.240 . S
C205 O197 1.252 . S
O206 In195 2.294 . S
O206 C199 1.240 . S
O207 In195 2.326 . S
O207 C199 1.252 . S
In208 O209 2.294 . S
In208 O210 2.326 . S
In208 O214 2.266 . S
In208 O215 2.326 . S
In208 O216 2.266 . S
In208 O217 2.326 . S
In208 O219 2.294 . S
In208 O220 2.326 . S
O209 In208 2.294 . S
O209 C218 1.240 . S
O210 In208 2.326 . S
O210 C218 1.252 . S
C211 O214 1.252 . S
C211 O215 1.260 . S
C212 O219 1.240 . S
C212 O220 1.252 . S
C213 O216 1.252 . S
C213 O217 1.260 . S
O214 In208 2.266 . S
O214 C211 1.252 . S
O215 In208 2.326 . S
O215 C211 1.260 . S
O216 In208 2.266 . S
O216 C213 1.252 . S
O217 In208 2.326 . S
O217 C213 1.260 . S
C218 O209 1.240 . S
C218 O210 1.252 . S
O219 In208 2.294 . S
O219 C212 1.240 . S
O220 In208 2.326 . S
O220 C212 1.252 . S
In221 O222 2.294 . S
In221 O223 2.326 . S
In221 O227 2.266 . S
In221 O228 2.326 . S
In221 O229 2.266 . S
In221 O230 2.326 . S
In221 O232 2.294 . S
In221 O233 2.326 . S
O222 In221 2.294 . S
O222 C231 1.240 . S
O223 In221 2.326 . S
O223 C231 1.252 . S
C224 O227 1.252 . S
C224 O228 1.260 . S
C225 O232 1.240 . S
C225 O233 1.252 . S
C226 O229 1.252 . S
C226 O230 1.260 . S
O227 In221 2.266 . S
O227 C224 1.252 . S
O228 In221 2.326 . S
O228 C224 1.260 . S
O229 In221 2.266 . S
O229 C226 1.252 . S
O230 In221 2.326 . S
O230 C226 1.260 . S
C231 O222 1.240 . S
C231 O223 1.252 . S
O232 In221 2.294 . S
O232 C225 1.240 . S
O233 In221 2.326 . S
O233 C225 1.252 . S
In234 O235 2.294 . S
In234 O236 2.326 . S
In234 O240 2.266 . S
In234 O241 2.326 . S
In234 O242 2.266 . S
In234 O243 2.326 . S
In234 O245 2.294 . S
In234 O246 2.326 . S
O235 In234 2.294 . S
O235 C244 1.240 . S
O236 In234 2.326 . S
O236 C244 1.252 . S
C237 O240 1.252 . S
C237 O241 1.260 . S
C238 O245 1.240 . S
C238 O246 1.252 . S
C239 O242 1.252 . S
C239 O243 1.260 . S
O240 In234 2.266 . S
O240 C237 1.252 . S
O241 In234 2.326 . S
O241 C237 1.260 . S
O242 In234 2.266 . S
O242 C239 1.252 . S
O243 In234 2.326 . S
O243 C239 1.260 . S
C244 O235 1.240 . S
C244 O236 1.252 . S
O245 In234 2.294 . S
O245 C238 1.240 . S
O246 In234 2.326 . S
O246 C238 1.252 . S
In247 O248 2.294 . S
In247 O249 2.326 . S
In247 O253 2.266 . S
In247 O254 2.326 . S
In247 O255 2.266 . S
In247 O256 2.326 . S
In247 O258 2.294 . S
In247 O259 2.326 . S
O248 In247 2.294 . S
O248 C257 1.240 . S
O249 In247 2.326 . S
O249 C257 1.252 . S
C250 O253 1.252 . S
C250 O254 1.260 . S
C251 O258 1.240 . S
C251 O259 1.252 . S
C252 O255 1.252 . S
C252 O256 1.260 . S
O253 In247 2.266 . S
O253 C250 1.252 . S
O254 In247 2.326 . S
O254 C250 1.260 . S
O255 In247 2.266 . S
O255 C252 1.252 . S
O256 In247 2.326 . S
O256 C252 1.260 . S
C257 O248 1.240 . S
C257 O249 1.252 . S
O258 In247 2.294 . S
O258 C251 1.240 . S
O259 In247 2.326 . S
O259 C251 1.252 . S
In260 O261 2.294 . S
In260 O262 2.326 . S
In260 O266 2.266 . S
In260 O267 2.326 . S
In260 O268 2.266 . S
In260 O269 2.326 . S
In260 O271 2.294 . S
In260 O272 2.326 . S
O261 In260 2.294 . S
O261 C270 1.240 . S
O262 In260 2.326 . S
O262 C270 1.252 . S
C263 O266 1.252 . S
C263 O267 1.260 . S
C264 O271 1.240 . S
C264 O272 1.252 . S
C265 O268 1.252 . S
C265 O269 1.260 . S
O266 In260 2.266 . S
O266 C263 1.252 . S
O267 In260 2.326 . S
O267 C263 1.260 . S
O268 In260 2.266 . S
O268 C265 1.252 . S
O269 In260 2.326 . S
O269 C265 1.260 . S
C270 O261 1.240 . S
C270 O262 1.252 . S
O271 In260 2.294 . S
O271 C264 1.240 . S
O272 In260 2.326 . S
O272 C264 1.252 . S
In273 O274 2.294 . S
In273 O275 2.326 . S
In273 O279 2.266 . S
In273 O280 2.326 . S
In273 O281 2.266 . S
In273 O282 2.326 . S
In273 O284 2.294 . S
In273 O285 2.326 . S
O274 In273 2.294 . S
O274 C283 1.240 . S
O275 In273 2.326 . S
O275 C283 1.252 . S
C276 O279 1.252 . S
C276 O280 1.260 . S
C277 O284 1.240 . S
C277 O285 1.252 . S
C278 O281 1.252 . S
C278 O282 1.260 . S
O279 In273 2.266 . S
O279 C276 1.252 . S
O280 In273 2.326 . S
O280 C276 1.260 . S
O281 In273 2.266 . S
O281 C278 1.252 . S
O282 In273 2.326 . S
O282 C278 1.260 . S
C283 O274 1.240 . S
C283 O275 1.252 . S
O284 In273 2.294 . S
O284 C277 1.240 . S
O285 In273 2.326 . S
O285 C277 1.252 . S
In286 O287 2.294 . S
In286 O288 2.326 . S
In286 O292 2.266 . S
In286 O293 2.326 . S
In286 O294 2.266 . S
In286 O295 2.326 . S
In286 O297 2.294 . S
In286 O298 2.326 . S
O287 In286 2.294 . S
O287 C296 1.240 . S
O288 In286 2.326 . S
O288 C296 1.252 . S
C289 O292 1.252 . S
C289 O293 1.260 . S
C290 O297 1.240 . S
C290 O298 1.252 . S
C291 O294 1.252 . S
C291 O295 1.260 . S
O292 In286 2.266 . S
O292 C289 1.252 . S
O293 In286 2.326 . S
O293 C289 1.260 . S
O294 In286 2.266 . S
O294 C291 1.252 . S
O295 In286 2.326 . S
O295 C291 1.260 . S
C296 O287 1.240 . S
C296 O288 1.252 . S
O297 In286 2.294 . S
O297 C290 1.240 . S
O298 In286 2.326 . S
O298 C290 1.252 . S
In299 O300 2.294 . S
In299 O301 2.326 . S
In299 O305 2.266 . S
In299 O306 2.326 . S
In299 O307 2.266 . S
In299 O308 2.326 . S
In299 O310 2.294 . S
In299 O311 2.326 . S
O300 In299 2.294 . S
O300 C309 1.240 . S
O301 In299 2.326 . S
O301 C309 1.252 . S
C302 O305 1.252 . S
C302 O306 1.260 . S
C303 O310 1.240 . S
C303 O311 1.252 . S
C304 O307 1.252 . S
C304 O308 1.260 . S
O305 In299 2.266 . S
O305 C302 1.252 . S
O306 In299 2.326 . S
O306 C302 1.260 . S
O307 In299 2.266 . S
O307 C304 1.252 . S
O308 In299 2.326 . S
O308 C304 1.260 . S
C309 O300 1.240 . S
C309 O301 1.252 . S
O310 In299 2.294 . S
O310 C303 1.240 . S
O311 In299 2.326 . S
O311 C303 1.252 . S
In312 O313 2.294 . S
In312 O314 2.326 . S
In312 O318 2.266 . S
In312 O319 2.326 . S
In312 O320 2.266 . S
In312 O321 2.326 . S
In312 O323 2.294 . S
In312 O324 2.326 . S
O313 In312 2.294 . S
O313 C322 1.240 . S
O314 In312 2.326 . S
O314 C322 1.252 . S
C315 O318 1.252 . S
C315 O319 1.260 . S
C316 O323 1.240 . S
C316 O324 1.252 . S
C317 O320 1.252 . S
C317 O321 1.260 . S
O318 In312 2.266 . S
O318 C315 1.252 . S
O319 In312 2.326 . S
O319 C315 1.260 . S
O320 In312 2.266 . S
O320 C317 1.252 . S
O321 In312 2.326 . S
O321 C317 1.260 . S
C322 O313 1.240 . S
C322 O314 1.252 . S
O323 In312 2.294 . S
O323 C316 1.240 . S
O324 In312 2.326 . S
O324 C316 1.252 . S
In325 O326 2.294 . S
In325 O327 2.326 . S
In325 O331 2.266 . S
In325 O332 2.326 . S
In325 O333 2.266 . S
In325 O334 2.326 . S
In325 O336 2.294 . S
In325 O337 2.326 . S
O326 In325 2.294 . S
O326 C335 1.240 . S
O327 In325 2.326 . S
O327 C335 1.252 . S
C328 O331 1.252 . S
C328 O332 1.260 . S
C329 O336 1.240 . S
C329 O337 1.252 . S
C330 O333 1.252 . S
C330 O334 1.260 . S
O331 In325 2.266 . S
O331 C328 1.252 . S
O332 In325 2.326 . S
O332 C328 1.260 . S
O333 In325 2.266 . S
O333 C330 1.252 . S
O334 In325 2.326 . S
O334 C330 1.260 . S
C335 O326 1.240 . S
C335 O327 1.252 . S
O336 In325 2.294 . S
O336 C329 1.240 . S
O337 In325 2.326 . S
O337 C329 1.252 . S
In338 O339 2.294 . S
In338 O340 2.326 . S
In338 O344 2.266 . S
In338 O345 2.326 . S
In338 O346 2.266 . S
In338 O347 2.326 . S
In338 O349 2.294 . S
In338 O350 2.326 . S
O339 In338 2.294 . S
O339 C348 1.240 . S
O340 In338 2.326 . S
O340 C348 1.252 . S
C341 O344 1.252 . S
C341 O345 1.260 . S
C342 O349 1.240 . S
C342 O350 1.252 . S
C343 O346 1.252 . S
C343 O347 1.260 . S
O344 In338 2.266 . S
O344 C341 1.252 . S
O345 In338 2.326 . S
O345 C341 1.260 . S
O346 In338 2.266 . S
O346 C343 1.252 . S
O347 In338 2.326 . S
O347 C343 1.260 . S
C348 O339 1.240 . S
C348 O340 1.252 . S
O349 In338 2.294 . S
O349 C342 1.240 . S
O350 In338 2.326 . S
O350 C342 1.252 . S
In351 O352 2.294 . S
In351 O353 2.326 . S
In351 O357 2.266 . S
In351 O358 2.326 . S
In351 O359 2.266 . S
In351 O360 2.326 . S
In351 O362 2.294 . S
In351 O363 2.326 . S
O352 In351 2.294 . S
O352 C361 1.240 . S
O353 In351 2.326 . S
O353 C361 1.252 . S
C354 O357 1.252 . S
C354 O358 1.260 . S
C355 O362 1.240 . S
C355 O363 1.252 . S
C356 O359 1.252 . S
C356 O360 1.260 . S
O357 In351 2.266 . S
O357 C354 1.252 . S
O358 In351 2.326 . S
O358 C354 1.260 . S
O359 In351 2.266 . S
O359 C356 1.252 . S
O360 In351 2.326 . S
O360 C356 1.260 . S
C361 O352 1.240 . S
C361 O353 1.252 . S
O362 In351 2.294 . S
O362 C355 1.240 . S
O363 In351 2.326 . S
O363 C355 1.252 . S
In364 O365 2.294 . S
In364 O366 2.326 . S
In364 O370 2.266 . S
In364 O371 2.326 . S
In364 O372 2.266 . S
In364 O373 2.326 . S
In364 O375 2.294 . S
In364 O376 2.326 . S
O365 In364 2.294 . S
O365 C374 1.240 . S
O366 In364 2.326 . S
O366 C374 1.252 . S
C367 O370 1.252 . S
C367 O371 1.260 . S
C368 O375 1.240 . S
C368 O376 1.252 . S
C369 O372 1.252 . S
C369 O373 1.260 . S
O370 In364 2.266 . S
O370 C367 1.252 . S
O371 In364 2.326 . S
O371 C367 1.260 . S
O372 In364 2.266 . S
O372 C369 1.252 . S
O373 In364 2.326 . S
O373 C369 1.260 . S
C374 O365 1.240 . S
C374 O366 1.252 . S
O375 In364 2.294 . S
O375 C368 1.240 . S
O376 In364 2.326 . S
O376 C368 1.252 . S
In377 O378 2.294 . S
In377 O379 2.326 . S
In377 O383 2.266 . S
In377 O384 2.326 . S
In377 O385 2.266 . S
In377 O386 2.326 . S
In377 O388 2.294 . S
In377 O389 2.326 . S
O378 In377 2.294 . S
O378 C387 1.240 . S
O379 In377 2.326 . S
O379 C387 1.252 . S
C380 O383 1.252 . S
C380 O384 1.260 . S
C381 O388 1.240 . S
C381 O389 1.252 . S
C382 O385 1.252 . S
C382 O386 1.260 . S
O383 In377 2.266 . S
O383 C380 1.252 . S
O384 In377 2.326 . S
O384 C380 1.260 . S
O385 In377 2.266 . S
O385 C382 1.252 . S
O386 In377 2.326 . S
O386 C382 1.260 . S
C387 O378 1.240 . S
C387 O379 1.252 . S
O388 In377 2.294 . S
O388 C381 1.240 . S
O389 In377 2.326 . S
O389 C381 1.252 . S
In390 O391 2.294 . S
In390 O392 2.326 . S
In390 O396 2.266 . S
In390 O397 2.326 . S
In390 O398 2.266 . S
In390 O399 2.326 . S
In390 O401 2.294 . S
In390 O402 2.326 . S
O391 In390 2.294 . S
O391 C400 1.240 . S
O392 In390 2.326 . S
O392 C400 1.252 . S
C393 O396 1.252 . S
C393 O397 1.260 . S
C394 O401 1.240 . S
C394 O402 1.252 . S
C395 O398 1.252 . S
C395 O399 1.260 . S
O396 In390 2.266 . S
O396 C393 1.252 . S
O397 In390 2.326 . S
O397 C393 1.260 . S
O398 In390 2.266 . S
O398 C395 1.252 . S
O399 In390 2.326 . S
O399 C395 1.260 . S
C400 O391 1.240 . S
C400 O392 1.252 . S
O401 In390 2.294 . S
O401 C394 1.240 . S
O402 In390 2.326 . S
O402 C394 1.252 . S
In403 O404 2.294 . S
In403 O405 2.326 . S
In403 O409 2.266 . S
In403 O410 2.326 . S
In403 O411 2.266 . S
In403 O412 2.326 . S
In403 O414 2.294 . S
In403 O415 2.326 . S
O404 In403 2.294 . S
O404 C413 1.240 . S
O405 In403 2.326 . S
O405 C413 1.252 . S
C406 O409 1.252 . S
C406 O410 1.260 . S
C407 O414 1.240 . S
C407 O415 1.252 . S
C408 O411 1.252 . S
C408 O412 1.260 . S
O409 In403 2.266 . S
O409 C406 1.252 . S
O410 In403 2.326 . S
O410 C406 1.260 . S
O411 In403 2.266 . S
O411 C408 1.252 . S
O412 In403 2.326 . S
O412 C408 1.260 . S
C413 O404 1.240 . S
C413 O405 1.252 . S
O414 In403 2.294 . S
O414 C407 1.240 . S
O415 In403 2.326 . S
O415 C407 1.252 . S
C416 C417 1.363 . S
C416 C422 1.379 . S
C416 N424 1.356 . S
C417 C416 1.363 . S
C417 C423 1.363 . S
C418 C419 1.363 . S
C418 C423 1.379 . S
C418 N425 1.356 . S
C419 C418 1.363 . S
C419 C422 1.363 . S
N420 C422 1.356 . S
N420 H432 0.984 . S
N420 H433 0.985 . S
N421 C423 1.356 . S
N421 H426 0.984 . S
N421 H427 0.985 . S
C422 C416 1.379 . S
C422 C419 1.363 . S
C422 N420 1.356 . S
C423 C417 1.363 . S
C423 C418 1.379 . S
C423 N421 1.356 . S
N424 C416 1.356 . S
N424 H430 0.984 . S
N424 H431 0.984 . S
N425 C418 1.356 . S
N425 H428 0.984 . S
N425 H429 0.985 . S
H426 N421 0.984 . S
H427 N421 0.985 . S
H428 N425 0.984 . S
H429 N425 0.985 . S
H430 N424 0.984 . S
H431 N424 0.984 . S
H432 N420 0.984 . S
H433 N420 0.985 . S
C434 C435 1.363 . S
C434 C440 1.379 . S
C434 N442 1.356 . S
C435 C434 1.363 . S
C435 C441 1.363 . S
C436 C437 1.363 . S
C436 C441 1.379 . S
C436 N443 1.356 . S
C437 C436 1.363 . S
C437 C440 1.363 . S
N438 C440 1.356 . S
N438 H450 0.984 . S
N438 H451 0.985 . S
N439 C441 1.356 . S
N439 H444 0.984 . S
N439 H445 0.985 . S
C440 C434 1.379 . S
C440 C437 1.363 . S
C440 N438 1.356 . S
C441 C435 1.363 . S
C441 C436 1.379 . S
C441 N439 1.356 . S
N442 C434 1.356 . S
N442 H448 0.984 . S
N442 H449 0.984 . S
N443 C436 1.356 . S
N443 H446 0.984 . S
N443 H447 0.985 . S
H444 N439 0.984 . S
H445 N439 0.985 . S
H446 N443 0.984 . S
H447 N443 0.985 . S
H448 N442 0.984 . S
H449 N442 0.984 . S
H450 N438 0.984 . S
H451 N438 0.985 . S
C452 C453 1.363 . S
C452 C458 1.379 . S
C452 N460 1.356 . S
C453 C452 1.363 . S
C453 C459 1.363 . S
C454 C455 1.363 . S
C454 C459 1.379 . S
C454 N461 1.356 . S
C455 C454 1.363 . S
C455 C458 1.363 . S
N456 C458 1.356 . S
N456 H468 0.984 . S
N456 H469 0.985 . S
N457 C459 1.356 . S
N457 H462 0.984 . S
N457 H463 0.985 . S
C458 C452 1.379 . S
C458 C455 1.363 . S
C458 N456 1.356 . S
C459 C453 1.363 . S
C459 C454 1.379 . S
C459 N457 1.356 . S
N460 C452 1.356 . S
N460 H466 0.984 . S
N460 H467 0.984 . S
N461 C454 1.356 . S
N461 H464 0.984 . S
N461 H465 0.985 . S
H462 N457 0.984 . S
H463 N457 0.985 . S
H464 N461 0.984 . S
H465 N461 0.985 . S
H466 N460 0.984 . S
H467 N460 0.984 . S
H468 N456 0.984 . S
H469 N456 0.985 . S
C470 C471 1.363 . S
C470 C476 1.379 . S
C470 N478 1.356 . S
C471 C470 1.363 . S
C471 C477 1.363 . S
C472 C473 1.363 . S
C472 C477 1.379 . S
C472 N479 1.356 . S
C473 C472 1.363 . S
C473 C476 1.363 . S
N474 C476 1.356 . S
N474 H486 0.984 . S
N474 H487 0.985 . S
N475 C477 1.356 . S
N475 H480 0.984 . S
N475 H481 0.985 . S
C476 C470 1.379 . S
C476 C473 1.363 . S
C476 N474 1.356 . S
C477 C471 1.363 . S
C477 C472 1.379 . S
C477 N475 1.356 . S
N478 C470 1.356 . S
N478 H484 0.984 . S
N478 H485 0.984 . S
N479 C472 1.356 . S
N479 H482 0.984 . S
N479 H483 0.985 . S
H480 N475 0.984 . S
H481 N475 0.985 . S
H482 N479 0.984 . S
H483 N479 0.985 . S
H484 N478 0.984 . S
H485 N478 0.984 . S
H486 N474 0.984 . S
H487 N474 0.985 . S
C488 C489 1.363 . S
C488 C494 1.379 . S
C488 N496 1.356 . S
C489 C488 1.363 . S
C489 C495 1.363 . S
C490 C491 1.363 . S
C490 C495 1.379 . S
C490 N497 1.356 . S
C491 C490 1.363 . S
C491 C494 1.363 . S
N492 C494 1.356 . S
N492 H504 0.984 . S
N492 H505 0.985 . S
N493 C495 1.356 . S
N493 H498 0.984 . S
N493 H499 0.985 . S
C494 C488 1.379 . S
C494 C491 1.363 . S
C494 N492 1.356 . S
C495 C489 1.363 . S
C495 C490 1.379 . S
C495 N493 1.356 . S
N496 C488 1.356 . S
N496 H502 0.984 . S
N496 H503 0.984 . S
N497 C490 1.356 . S
N497 H500 0.984 . S
N497 H501 0.985 . S
H498 N493 0.984 . S
H499 N493 0.985 . S
H500 N497 0.984 . S
H501 N497 0.985 . S
H502 N496 0.984 . S
H503 N496 0.984 . S
H504 N492 0.984 . S
H505 N492 0.985 . S
C506 C507 1.363 . S
C506 C512 1.379 . S
C506 N514 1.356 . S
C507 C506 1.363 . S
C507 C513 1.363 . S
C508 C509 1.363 . S
C508 C513 1.379 . S
C508 N515 1.356 . S
C509 C508 1.363 . S
C509 C512 1.363 . S
N510 C512 1.356 . S
N510 H522 0.984 . S
N510 H523 0.985 . S
N511 C513 1.356 . S
N511 H516 0.984 . S
N511 H517 0.985 . S
C512 C506 1.379 . S
C512 C509 1.363 . S
C512 N510 1.356 . S
C513 C507 1.363 . S
C513 C508 1.379 . S
C513 N511 1.356 . S
N514 C506 1.356 . S
N514 H520 0.984 . S
N514 H521 0.984 . S
N515 C508 1.356 . S
N515 H518 0.984 . S
N515 H519 0.985 . S
H516 N511 0.984 . S
H517 N511 0.985 . S
H518 N515 0.984 . S
H519 N515 0.985 . S
H520 N514 0.984 . S
H521 N514 0.984 . S
H522 N510 0.984 . S
H523 N510 0.985 . S
C524 C525 1.363 . S
C524 C530 1.379 . S
C524 N532 1.356 . S
C525 C524 1.363 . S
C525 C531 1.363 . S
C526 C527 1.363 . S
C526 C531 1.379 . S
C526 N533 1.356 . S
C527 C526 1.363 . S
C527 C530 1.363 . S
N528 C530 1.356 . S
N528 H540 0.984 . S
N528 H541 0.985 . S
N529 C531 1.356 . S
N529 H534 0.984 . S
N529 H535 0.985 . S
C530 C524 1.379 . S
C530 C527 1.363 . S
C530 N528 1.356 . S
C531 C525 1.363 . S
C531 C526 1.379 . S
C531 N529 1.356 . S
N532 C524 1.356 . S
N532 H538 0.984 . S
N532 H539 0.984 . S
N533 C526 1.356 . S
N533 H536 0.984 . S
N533 H537 0.985 . S
H534 N529 0.984 . S
H535 N529 0.985 . S
H536 N533 0.984 . S
H537 N533 0.985 . S
H538 N532 0.984 . S
H539 N532 0.984 . S
H540 N528 0.984 . S
H541 N528 0.985 . S
C542 C543 1.363 . S
C542 C548 1.379 . S
C542 N550 1.356 . S
C543 C542 1.363 . S
C543 C549 1.363 . S
C544 C545 1.363 . S
C544 C549 1.379 . S
C544 N551 1.356 . S
C545 C544 1.363 . S
C545 C548 1.363 . S
N546 C548 1.356 . S
N546 H558 0.984 . S
N546 H559 0.985 . S
N547 C549 1.356 . S
N547 H552 0.984 . S
N547 H553 0.985 . S
C548 C542 1.379 . S
C548 C545 1.363 . S
C548 N546 1.356 . S
C549 C543 1.363 . S
C549 C544 1.379 . S
C549 N547 1.356 . S
N550 C542 1.356 . S
N550 H556 0.984 . S
N550 H557 0.984 . S
N551 C544 1.356 . S
N551 H554 0.984 . S
N551 H555 0.985 . S
H552 N547 0.984 . S
H553 N547 0.985 . S
H554 N551 0.984 . S
H555 N551 0.985 . S
H556 N550 0.984 . S
H557 N550 0.984 . S
H558 N546 0.984 . S
H559 N546 0.985 . S
C560 C561 1.363 . S
C560 C566 1.379 . S
C560 N568 1.356 . S
C561 C560 1.363 . S
C561 C567 1.363 . S
C562 C563 1.363 . S
C562 C567 1.379 . S
C562 N569 1.356 . S
C563 C562 1.363 . S
C563 C566 1.363 . S
N564 C566 1.356 . S
N564 H576 0.984 . S
N564 H577 0.985 . S
N565 C567 1.356 . S
N565 H570 0.984 . S
N565 H571 0.985 . S
C566 C560 1.379 . S
C566 C563 1.363 . S
C566 N564 1.356 . S
C567 C561 1.363 . S
C567 C562 1.379 . S
C567 N565 1.356 . S
N568 C560 1.356 . S
N568 H574 0.984 . S
N568 H575 0.984 . S
N569 C562 1.356 . S
N569 H572 0.984 . S
N569 H573 0.985 . S
H570 N565 0.984 . S
H571 N565 0.985 . S
H572 N569 0.984 . S
H573 N569 0.985 . S
H574 N568 0.984 . S
H575 N568 0.984 . S
H576 N564 0.984 . S
H577 N564 0.985 . S
C578 C579 1.363 . S
C578 C584 1.379 . S
C578 N586 1.356 . S
C579 C578 1.363 . S
C579 C585 1.363 . S
C580 C581 1.363 . S
C580 C585 1.379 . S
C580 N587 1.356 . S
C581 C580 1.363 . S
C581 C584 1.363 . S
N582 C584 1.356 . S
N582 H594 0.984 . S
N582 H595 0.985 . S
N583 C585 1.356 . S
N583 H588 0.984 . S
N583 H589 0.985 . S
C584 C578 1.379 . S
C584 C581 1.363 . S
C584 N582 1.356 . S
C585 C579 1.363 . S
C585 C580 1.379 . S
C585 N583 1.356 . S
N586 C578 1.356 . S
N586 H592 0.984 . S
N586 H593 0.984 . S
N587 C580 1.356 . S
N587 H590 0.984 . S
N587 H591 0.985 . S
H588 N583 0.984 . S
H589 N583 0.985 . S
H590 N587 0.984 . S
H591 N587 0.985 . S
H592 N586 0.984 . S
H593 N586 0.984 . S
H594 N582 0.984 . S
H595 N582 0.985 . S
C596 C597 1.363 . S
C596 C602 1.379 . S
C596 N604 1.356 . S
C597 C596 1.363 . S
C597 C603 1.363 . S
C598 C599 1.363 . S
C598 C603 1.379 . S
C598 N605 1.356 . S
C599 C598 1.363 . S
C599 C602 1.363 . S
N600 C602 1.356 . S
N600 H612 0.984 . S
N600 H613 0.985 . S
N601 C603 1.356 . S
N601 H606 0.984 . S
N601 H607 0.985 . S
C602 C596 1.379 . S
C602 C599 1.363 . S
C602 N600 1.356 . S
C603 C597 1.363 . S
C603 C598 1.379 . S
C603 N601 1.356 . S
N604 C596 1.356 . S
N604 H610 0.984 . S
N604 H611 0.984 . S
N605 C598 1.356 . S
N605 H608 0.984 . S
N605 H609 0.985 . S
H606 N601 0.984 . S
H607 N601 0.985 . S
H608 N605 0.984 . S
H609 N605 0.985 . S
H610 N604 0.984 . S
H611 N604 0.984 . S
H612 N600 0.984 . S
H613 N600 0.985 . S
C614 C615 1.363 . S
C614 C620 1.379 . S
C614 N622 1.356 . S
C615 C614 1.363 . S
C615 C621 1.363 . S
C616 C617 1.363 . S
C616 C621 1.379 . S
C616 N623 1.356 . S
C617 C616 1.363 . S
C617 C620 1.363 . S
N618 C620 1.356 . S
N618 H630 0.984 . S
N618 H631 0.985 . S
N619 C621 1.356 . S
N619 H624 0.984 . S
N619 H625 0.985 . S
C620 C614 1.379 . S
C620 C617 1.363 . S
C620 N618 1.356 . S
C621 C615 1.363 . S
C621 C616 1.379 . S
C621 N619 1.356 . S
N622 C614 1.356 . S
N622 H628 0.984 . S
N622 H629 0.984 . S
N623 C616 1.356 . S
N623 H626 0.984 . S
N623 H627 0.985 . S
H624 N619 0.984 . S
H625 N619 0.985 . S
H626 N623 0.984 . S
H627 N623 0.985 . S
H628 N622 0.984 . S
H629 N622 0.984 . S
H630 N618 0.984 . S
H631 N618 0.985 . S
C632 C633 1.363 . S
C632 C638 1.379 . S
C632 N640 1.356 . S
C633 C632 1.363 . S
C633 C639 1.363 . S
C634 C635 1.363 . S
C634 C639 1.379 . S
C634 N641 1.356 . S
C635 C634 1.363 . S
C635 C638 1.363 . S
N636 C638 1.356 . S
N636 H648 0.984 . S
N636 H649 0.985 . S
N637 C639 1.356 . S
N637 H642 0.984 . S
N637 H643 0.985 . S
C638 C632 1.379 . S
C638 C635 1.363 . S
C638 N636 1.356 . S
C639 C633 1.363 . S
C639 C634 1.379 . S
C639 N637 1.356 . S
N640 C632 1.356 . S
N640 H646 0.984 . S
N640 H647 0.984 . S
N641 C634 1.356 . S
N641 H644 0.984 . S
N641 H645 0.985 . S
H642 N637 0.984 . S
H643 N637 0.985 . S
H644 N641 0.984 . S
H645 N641 0.985 . S
H646 N640 0.984 . S
H647 N640 0.984 . S
H648 N636 0.984 . S
H649 N636 0.985 . S
C650 C651 1.363 . S
C650 C656 1.379 . S
C650 N658 1.356 . S
C651 C650 1.363 . S
C651 C657 1.363 . S
C652 C653 1.363 . S
C652 C657 1.379 . S
C652 N659 1.356 . S
C653 C652 1.363 . S
C653 C656 1.363 . S
N654 C656 1.356 . S
N654 H666 0.984 . S
N654 H667 0.985 . S
N655 C657 1.356 . S
N655 H660 0.984 . S
N655 H661 0.985 . S
C656 C650 1.379 . S
C656 C653 1.363 . S
C656 N654 1.356 . S
C657 C651 1.363 . S
C657 C652 1.379 . S
C657 N655 1.356 . S
N658 C650 1.356 . S
N658 H664 0.984 . S
N658 H665 0.984 . S
N659 C652 1.356 . S
N659 H662 0.984 . S
N659 H663 0.985 . S
H660 N655 0.984 . S
H661 N655 0.985 . S
H662 N659 0.984 . S
H663 N659 0.985 . S
H664 N658 0.984 . S
H665 N658 0.984 . S
H666 N654 0.984 . S
H667 N654 0.985 . S
C668 C669 1.363 . S
C668 C674 1.379 . S
C668 N676 1.356 . S
C669 C668 1.363 . S
C669 C675 1.363 . S
C670 C671 1.363 . S
C670 C675 1.379 . S
C670 N677 1.356 . S
C671 C670 1.363 . S
C671 C674 1.363 . S
N672 C674 1.356 . S
N672 H684 0.984 . S
N672 H685 0.985 . S
N673 C675 1.356 . S
N673 H678 0.984 . S
N673 H679 0.985 . S
C674 C668 1.379 . S
C674 C671 1.363 . S
C674 N672 1.356 . S
C675 C669 1.363 . S
C675 C670 1.379 . S
C675 N673 1.356 . S
N676 C668 1.356 . S
N676 H682 0.984 . S
N676 H683 0.984 . S
N677 C670 1.356 . S
N677 H680 0.984 . S
N677 H681 0.985 . S
H678 N673 0.984 . S
H679 N673 0.985 . S
H680 N677 0.984 . S
H681 N677 0.985 . S
H682 N676 0.984 . S
H683 N676 0.984 . S
H684 N672 0.984 . S
H685 N672 0.985 . S
C686 C687 1.363 . S
C686 C692 1.379 . S
C686 N694 1.356 . S
C687 C686 1.363 . S
C687 C693 1.363 . S
C688 C689 1.363 . S
C688 C693 1.379 . S
C688 N695 1.356 . S
C689 C688 1.363 . S
C689 C692 1.363 . S
N690 C692 1.356 . S
N690 H702 0.984 . S
N690 H703 0.985 . S
N691 C693 1.356 . S
N691 H696 0.984 . S
N691 H697 0.985 . S
C692 C686 1.379 . S
C692 C689 1.363 . S
C692 N690 1.356 . S
C693 C687 1.363 . S
C693 C688 1.379 . S
C693 N691 1.356 . S
N694 C686 1.356 . S
N694 H700 0.984 . S
N694 H701 0.984 . S
N695 C688 1.356 . S
N695 H698 0.984 . S
N695 H699 0.985 . S
H696 N691 0.984 . S
H697 N691 0.985 . S
H698 N695 0.984 . S
H699 N695 0.985 . S
H700 N694 0.984 . S
H701 N694 0.984 . S
H702 N690 0.984 . S
H703 N690 0.985 . S
C704 C705 1.363 1_556 S
C704 C710 1.379 1_455 S
C704 N712 1.356 . S
C705 C704 1.363 1_554 S
C705 C711 1.363 . S
C706 C707 1.363 . S
C706 C711 1.379 1_655 S
C706 N713 1.356 . S
C707 C706 1.363 . S
C707 C710 1.363 1_554 S
N708 C710 1.356 . S
N708 H720 0.984 . S
N708 H721 0.985 . S
N709 C711 1.356 . S
N709 H714 0.984 . S
N709 H715 0.985 . S
C710 C704 1.379 1_655 S
C710 C707 1.363 1_556 S
C710 N708 1.356 . S
C711 C705 1.363 . S
C711 C706 1.379 1_455 S
C711 N709 1.356 . S
N712 C704 1.356 . S
N712 H718 0.984 . S
N712 H719 0.984 . S
N713 C706 1.356 . S
N713 H716 0.984 . S
N713 H717 0.985 . S
H714 N709 0.984 . S
H715 N709 0.985 . S
H716 N713 0.984 . S
H717 N713 0.985 . S
H718 N712 0.984 . S
H719 N712 0.984 . S
H720 N708 0.984 . S
H721 N708 0.985 . S
C722 C723 1.363 . S
C722 C728 1.379 . S
C722 N730 1.356 . S
C723 C722 1.363 . S
C723 C729 1.363 . S
C724 C725 1.363 . S
C724 C729 1.379 . S
C724 N731 1.356 . S
C725 C724 1.363 . S
C725 C728 1.363 . S
N726 C728 1.356 . S
N726 H738 0.984 . S
N726 H739 0.985 . S
N727 C729 1.356 . S
N727 H732 0.984 . S
N727 H733 0.985 . S
C728 C722 1.379 . S
C728 C725 1.363 . S
C728 N726 1.356 . S
C729 C723 1.363 . S
C729 C724 1.379 . S
C729 N727 1.356 . S
N730 C722 1.356 . S
N730 H736 0.984 . S
N730 H737 0.984 . S
N731 C724 1.356 . S
N731 H734 0.984 . S
N731 H735 0.985 . S
H732 N727 0.984 . S
H733 N727 0.985 . S
H734 N731 0.984 . S
H735 N731 0.985 . S
H736 N730 0.984 . S
H737 N730 0.984 . S
H738 N726 0.984 . S
H739 N726 0.985 . S
C740 C741 1.363 . S
C740 C746 1.379 . S
C740 N748 1.356 . S
C741 C740 1.363 . S
C741 C747 1.363 . S
C742 C743 1.363 . S
C742 C747 1.379 . S
C742 N749 1.356 . S
C743 C742 1.363 . S
C743 C746 1.363 . S
N744 C746 1.356 . S
N744 H756 0.984 . S
N744 H757 0.985 . S
N745 C747 1.356 . S
N745 H750 0.984 . S
N745 H751 0.985 . S
C746 C740 1.379 . S
C746 C743 1.363 . S
C746 N744 1.356 . S
C747 C741 1.363 . S
C747 C742 1.379 . S
C747 N745 1.356 . S
N748 C740 1.356 . S
N748 H754 0.984 . S
N748 H755 0.984 . S
N749 C742 1.356 . S
N749 H752 0.984 . S
N749 H753 0.985 . S
H750 N745 0.984 . S
H751 N745 0.985 . S
H752 N749 0.984 . S
H753 N749 0.985 . S
H754 N748 0.984 . S
H755 N748 0.984 . S
H756 N744 0.984 . S
H757 N744 0.985 . S
C758 C759 1.363 . S
C758 C764 1.379 . S
C758 N766 1.356 . S
C759 C758 1.363 . S
C759 C765 1.363 . S
C760 C761 1.363 . S
C760 C765 1.379 . S
C760 N767 1.356 . S
C761 C760 1.363 . S
C761 C764 1.363 . S
N762 C764 1.356 . S
N762 H774 0.984 . S
N762 H775 0.985 . S
N763 C765 1.356 . S
N763 H768 0.984 . S
N763 H769 0.985 . S
C764 C758 1.379 . S
C764 C761 1.363 . S
C764 N762 1.356 . S
C765 C759 1.363 . S
C765 C760 1.379 . S
C765 N763 1.356 . S
N766 C758 1.356 . S
N766 H772 0.984 . S
N766 H773 0.984 . S
N767 C760 1.356 . S
N767 H770 0.984 . S
N767 H771 0.985 . S
H768 N763 0.984 . S
H769 N763 0.985 . S
H770 N767 0.984 . S
H771 N767 0.985 . S
H772 N766 0.984 . S
H773 N766 0.984 . S
H774 N762 0.984 . S
H775 N762 0.985 . S
C776 C777 1.363 . S
C776 C782 1.379 1_655 S
C776 N784 1.356 . S
C777 C776 1.363 . S
C777 C783 1.363 1_556 S
C778 C779 1.363 1_554 S
C778 C783 1.379 1_455 S
C778 N785 1.356 . S
C779 C778 1.363 1_556 S
C779 C782 1.363 . S
N780 C782 1.356 . S
N780 H792 0.984 . S
N780 H793 0.985 . S
N781 C783 1.356 . S
N781 H786 0.984 . S
N781 H787 0.985 . S
C782 C776 1.379 1_455 S
C782 C779 1.363 . S
C782 N780 1.356 . S
C783 C777 1.363 1_554 S
C783 C778 1.379 1_655 S
C783 N781 1.356 . S
N784 C776 1.356 . S
N784 H790 0.984 . S
N784 H791 0.984 . S
N785 C778 1.356 . S
N785 H788 0.984 . S
N785 H789 0.985 . S
H786 N781 0.984 . S
H787 N781 0.985 . S
H788 N785 0.984 . S
H789 N785 0.985 . S
H790 N784 0.984 . S
H791 N784 0.984 . S
H792 N780 0.984 . S
H793 N780 0.985 . S
C794 C795 1.363 . S
C794 C800 1.379 . S
C794 N802 1.356 . S
C795 C794 1.363 . S
C795 C801 1.363 . S
C796 C797 1.363 . S
C796 C801 1.379 . S
C796 N803 1.356 . S
C797 C796 1.363 . S
C797 C800 1.363 . S
N798 C800 1.356 . S
N798 H810 0.984 . S
N798 H811 0.985 . S
N799 C801 1.356 . S
N799 H804 0.984 . S
N799 H805 0.985 . S
C800 C794 1.379 . S
C800 C797 1.363 . S
C800 N798 1.356 . S
C801 C795 1.363 . S
C801 C796 1.379 . S
C801 N799 1.356 . S
N802 C794 1.356 . S
N802 H808 0.984 . S
N802 H809 0.984 . S
N803 C796 1.356 . S
N803 H806 0.984 . S
N803 H807 0.985 . S
H804 N799 0.984 . S
H805 N799 0.985 . S
H806 N803 0.984 . S
H807 N803 0.985 . S
H808 N802 0.984 . S
H809 N802 0.984 . S
H810 N798 0.984 . S
H811 N798 0.985 . S
C812 C813 1.363 . S
C812 C818 1.379 . S
C812 N820 1.356 . S
C813 C812 1.363 . S
C813 C819 1.363 . S
C814 C815 1.363 . S
C814 C819 1.379 . S
C814 N821 1.356 . S
C815 C814 1.363 . S
C815 C818 1.363 . S
N816 C818 1.356 . S
N816 H828 0.984 . S
N816 H829 0.985 . S
N817 C819 1.356 . S
N817 H822 0.984 . S
N817 H823 0.985 . S
C818 C812 1.379 . S
C818 C815 1.363 . S
C818 N816 1.356 . S
C819 C813 1.363 . S
C819 C814 1.379 . S
C819 N817 1.356 . S
N820 C812 1.356 . S
N820 H826 0.984 . S
N820 H827 0.984 . S
N821 C814 1.356 . S
N821 H824 0.984 . S
N821 H825 0.985 . S
H822 N817 0.984 . S
H823 N817 0.985 . S
H824 N821 0.984 . S
H825 N821 0.985 . S
H826 N820 0.984 . S
H827 N820 0.984 . S
H828 N816 0.984 . S
H829 N816 0.985 . S
C830 C831 1.363 . S
C830 C836 1.379 . S
C830 N838 1.356 . S
C831 C830 1.363 . S
C831 C837 1.363 . S
C832 C833 1.363 . S
C832 C837 1.379 . S
C832 N839 1.356 . S
C833 C832 1.363 . S
C833 C836 1.363 . S
N834 C836 1.356 . S
N834 H846 0.984 . S
N834 H847 0.985 . S
N835 C837 1.356 . S
N835 H840 0.984 . S
N835 H841 0.985 . S
C836 C830 1.379 . S
C836 C833 1.363 . S
C836 N834 1.356 . S
C837 C831 1.363 . S
C837 C832 1.379 . S
C837 N835 1.356 . S
N838 C830 1.356 . S
N838 H844 0.984 . S
N838 H845 0.984 . S
N839 C832 1.356 . S
N839 H842 0.984 . S
N839 H843 0.985 . S
H840 N835 0.984 . S
H841 N835 0.985 . S
H842 N839 0.984 . S
H843 N839 0.985 . S
H844 N838 0.984 . S
H845 N838 0.984 . S
H846 N834 0.984 . S
H847 N834 0.985 . S
C848 C849 1.363 . S
C848 C854 1.379 . S
C848 N856 1.356 . S
C849 C848 1.363 . S
C849 C855 1.363 . S
C850 C851 1.363 . S
C850 C855 1.379 . S
C850 N857 1.356 . S
C851 C850 1.363 . S
C851 C854 1.363 . S
N852 C854 1.356 . S
N852 H864 0.984 . S
N852 H865 0.985 . S
N853 C855 1.356 . S
N853 H858 0.984 . S
N853 H859 0.985 . S
C854 C848 1.379 . S
C854 C851 1.363 . S
C854 N852 1.356 . S
C855 C849 1.363 . S
C855 C850 1.379 . S
C855 N853 1.356 . S
N856 C848 1.356 . S
N856 H862 0.984 . S
N856 H863 0.984 . S
N857 C850 1.356 . S
N857 H860 0.984 . S
N857 H861 0.985 . S
H858 N853 0.984 . S
H859 N853 0.985 . S
H860 N857 0.984 . S
H861 N857 0.985 . S
H862 N856 0.984 . S
H863 N856 0.984 . S
H864 N852 0.984 . S
H865 N852 0.985 . S
C866 C867 1.363 . S
C866 C872 1.379 . S
C866 N874 1.356 . S
C867 C866 1.363 . S
C867 C873 1.363 . S
C868 C869 1.363 . S
C868 C873 1.379 . S
C868 N875 1.356 . S
C869 C868 1.363 . S
C869 C872 1.363 . S
N870 C872 1.356 . S
N870 H882 0.984 . S
N870 H883 0.985 . S
N871 C873 1.356 . S
N871 H876 0.984 . S
N871 H877 0.985 . S
C872 C866 1.379 . S
C872 C869 1.363 . S
C872 N870 1.356 . S
C873 C867 1.363 . S
C873 C868 1.379 . S
C873 N871 1.356 . S
N874 C866 1.356 . S
N874 H880 0.984 . S
N874 H881 0.984 . S
N875 C868 1.356 . S
N875 H878 0.984 . S
N875 H879 0.985 . S
H876 N871 0.984 . S
H877 N871 0.985 . S
H878 N875 0.984 . S
H879 N875 0.985 . S
H880 N874 0.984 . S
H881 N874 0.984 . S
H882 N870 0.984 . S
H883 N870 0.985 . S
C884 C885 1.363 . S
C884 C890 1.379 . S
C884 N892 1.356 . S
C885 C884 1.363 . S
C885 C891 1.363 . S
C886 C887 1.363 . S
C886 C891 1.379 . S
C886 N893 1.356 . S
C887 C886 1.363 . S
C887 C890 1.363 . S
N888 C890 1.356 . S
N888 H900 0.984 . S
N888 H901 0.985 . S
N889 C891 1.356 . S
N889 H894 0.984 . S
N889 H895 0.985 . S
C890 C884 1.379 . S
C890 C887 1.363 . S
C890 N888 1.356 . S
C891 C885 1.363 . S
C891 C886 1.379 . S
C891 N889 1.356 . S
N892 C884 1.356 . S
N892 H898 0.984 . S
N892 H899 0.984 . S
N893 C886 1.356 . S
N893 H896 0.984 . S
N893 H897 0.985 . S
H894 N889 0.984 . S
H895 N889 0.985 . S
H896 N893 0.984 . S
H897 N893 0.985 . S
H898 N892 0.984 . S
H899 N892 0.984 . S
H900 N888 0.984 . S
H901 N888 0.985 . S
C902 C903 1.363 . S
C902 C908 1.379 . S
C902 N910 1.356 . S
C903 C902 1.363 . S
C903 C909 1.363 . S
C904 C905 1.363 . S
C904 C909 1.379 . S
C904 N911 1.356 . S
C905 C904 1.363 . S
C905 C908 1.363 . S
N906 C908 1.356 . S
N906 H918 0.984 . S
N906 H919 0.985 . S
N907 C909 1.356 . S
N907 H912 0.984 . S
N907 H913 0.985 . S
C908 C902 1.379 . S
C908 C905 1.363 . S
C908 N906 1.356 . S
C909 C903 1.363 . S
C909 C904 1.379 . S
C909 N907 1.356 . S
N910 C902 1.356 . S
N910 H916 0.984 . S
N910 H917 0.984 . S
N911 C904 1.356 . S
N911 H914 0.984 . S
N911 H915 0.985 . S
H912 N907 0.984 . S
H913 N907 0.985 . S
H914 N911 0.984 . S
H915 N911 0.985 . S
H916 N910 0.984 . S
H917 N910 0.984 . S
H918 N906 0.984 . S
H919 N906 0.985 . S
C920 C921 1.363 . S
C920 C926 1.379 . S
C920 N928 1.356 . S
C921 C920 1.363 . S
C921 C927 1.363 . S
C922 C923 1.363 . S
C922 C927 1.379 . S
C922 N929 1.356 . S
C923 C922 1.363 . S
C923 C926 1.363 . S
N924 C926 1.356 . S
N924 H936 0.984 . S
N924 H937 0.985 . S
N925 C927 1.356 . S
N925 H930 0.984 . S
N925 H931 0.985 . S
C926 C920 1.379 . S
C926 C923 1.363 . S
C926 N924 1.356 . S
C927 C921 1.363 . S
C927 C922 1.379 . S
C927 N925 1.356 . S
N928 C920 1.356 . S
N928 H934 0.984 . S
N928 H935 0.984 . S
N929 C922 1.356 . S
N929 H932 0.984 . S
N929 H933 0.985 . S
H930 N925 0.984 . S
H931 N925 0.985 . S
H932 N929 0.984 . S
H933 N929 0.985 . S
H934 N928 0.984 . S
H935 N928 0.984 . S
H936 N924 0.984 . S
H937 N924 0.985 . S
C938 C939 1.363 . S
C938 C944 1.379 1_655 S
C938 N946 1.356 . S
C939 C938 1.363 . S
C939 C945 1.363 . S
C940 C941 1.363 . S
C940 C945 1.379 1_455 S
C940 N947 1.356 1_554 S
C941 C940 1.363 . S
C941 C944 1.363 . S
N942 C944 1.356 . S
N942 H954 0.984 . S
N942 H955 0.985 . S
N943 C945 1.356 1_556 S
N943 H948 0.984 . S
N943 H949 0.985 . S
C944 C938 1.379 1_455 S
C944 C941 1.363 . S
C944 N942 1.356 . S
C945 C939 1.363 . S
C945 C940 1.379 1_655 S
C945 N943 1.356 1_554 S
N946 C938 1.356 . S
N946 H952 0.984 . S
N946 H953 0.984 . S
N947 C940 1.356 1_556 S
N947 H950 0.984 . S
N947 H951 0.985 . S
H948 N943 0.984 . S
H949 N943 0.985 . S
H950 N947 0.984 . S
H951 N947 0.985 . S
H952 N946 0.984 . S
H953 N946 0.984 . S
H954 N942 0.984 . S
H955 N942 0.985 . S
C956 C957 1.363 . S
C956 C962 1.379 . S
C956 N964 1.356 . S
C957 C956 1.363 . S
C957 C963 1.363 . S
C958 C959 1.363 . S
C958 C963 1.379 . S
C958 N965 1.356 . S
C959 C958 1.363 . S
C959 C962 1.363 . S
N960 C962 1.356 . S
N960 H972 0.984 . S
N960 H973 0.985 . S
N961 C963 1.356 . S
N961 H966 0.984 . S
N961 H967 0.985 . S
C962 C956 1.379 . S
C962 C959 1.363 . S
C962 N960 1.356 . S
C963 C957 1.363 . S
C963 C958 1.379 . S
C963 N961 1.356 . S
N964 C956 1.356 . S
N964 H970 0.984 . S
N964 H971 0.984 . S
N965 C958 1.356 . S
N965 H968 0.984 . S
N965 H969 0.985 . S
H966 N961 0.984 . S
H967 N961 0.985 . S
H968 N965 0.984 . S
H969 N965 0.985 . S
H970 N964 0.984 . S
H971 N964 0.984 . S
H972 N960 0.984 . S
H973 N960 0.985 . S
C974 C975 1.363 . S
C974 C980 1.379 1_455 S
C974 N982 1.356 . S
C975 C974 1.363 . S
C975 C981 1.363 . S
C976 C977 1.363 . S
C976 C981 1.379 1_655 S
C976 N983 1.356 1_556 S
C977 C976 1.363 . S
C977 C980 1.363 . S
N978 C980 1.356 . S
N978 H990 0.984 . S
N978 H991 0.985 . S
N979 C981 1.356 1_554 S
N979 H984 0.984 . S
N979 H985 0.985 . S
C980 C974 1.379 1_655 S
C980 C977 1.363 . S
C980 N978 1.356 . S
C981 C975 1.363 . S
C981 C976 1.379 1_455 S
C981 N979 1.356 1_556 S
N982 C974 1.356 . S
N982 H988 0.984 . S
N982 H989 0.984 . S
N983 C976 1.356 1_554 S
N983 H986 0.984 . S
N983 H987 0.985 . S
H984 N979 0.984 . S
H985 N979 0.985 . S
H986 N983 0.984 . S
H987 N983 0.985 . S
H988 N982 0.984 . S
H989 N982 0.984 . S
H990 N978 0.984 . S
H991 N978 0.985 . S
C992 C993 1.363 . S
C992 C998 1.379 . S
C992 N1000 1.356 . S
C993 C992 1.363 . S
C993 C999 1.363 1_556 S
C994 C995 1.363 . S
C994 C999 1.379 . S
C994 N1001 1.356 . S
C995 C994 1.363 . S
C995 C998 1.363 1_554 S
N996 C998 1.356 . S
N996 H1008 0.984 . S
N996 H1009 0.985 . S
N997 C999 1.356 . S
N997 H1002 0.984 . S
N997 H1003 0.985 . S
C998 C992 1.379 . S
C998 C995 1.363 1_556 S
C998 N996 1.356 . S
C999 C993 1.363 1_554 S
C999 C994 1.379 . S
C999 N997 1.356 . S
N1000 C992 1.356 . S
N1000 H1006 0.984 . S
N1000 H1007 0.984 . S
N1001 C994 1.356 . S
N1001 H1004 0.984 . S
N1001 H1005 0.985 . S
H1002 N997 0.984 . S
H1003 N997 0.985 . S
H1004 N1001 0.984 . S
H1005 N1001 0.985 . S
H1006 N1000 0.984 . S
H1007 N1000 0.984 . S
H1008 N996 0.984 . S
H1009 N996 0.985 . S
C1010 C1011 1.363 . S
C1010 C1016 1.379 . S
C1010 N1018 1.356 . S
C1011 C1010 1.363 . S
C1011 C1017 1.363 . S
C1012 C1013 1.363 . S
C1012 C1017 1.379 . S
C1012 N1019 1.356 . S
C1013 C1012 1.363 . S
C1013 C1016 1.363 . S
N1014 C1016 1.356 . S
N1014 H1026 0.984 . S
N1014 H1027 0.985 . S
N1015 C1017 1.356 . S
N1015 H1020 0.984 . S
N1015 H1021 0.985 . S
C1016 C1010 1.379 . S
C1016 C1013 1.363 . S
C1016 N1014 1.356 . S
C1017 C1011 1.363 . S
C1017 C1012 1.379 . S
C1017 N1015 1.356 . S
N1018 C1010 1.356 . S
N1018 H1024 0.984 . S
N1018 H1025 0.984 . S
N1019 C1012 1.356 . S
N1019 H1022 0.984 . S
N1019 H1023 0.985 . S
H1020 N1015 0.984 . S
H1021 N1015 0.985 . S
H1022 N1019 0.984 . S
H1023 N1019 0.985 . S
H1024 N1018 0.984 . S
H1025 N1018 0.984 . S
H1026 N1014 0.984 . S
H1027 N1014 0.985 . S
C1028 C1029 1.363 . S
C1028 C1034 1.379 . S
C1028 N1036 1.356 . S
C1029 C1028 1.363 . S
C1029 C1035 1.363 . S
C1030 C1031 1.363 . S
C1030 C1035 1.379 . S
C1030 N1037 1.356 . S
C1031 C1030 1.363 . S
C1031 C1034 1.363 . S
N1032 C1034 1.356 . S
N1032 H1044 0.984 . S
N1032 H1045 0.985 . S
N1033 C1035 1.356 . S
N1033 H1038 0.984 . S
N1033 H1039 0.985 . S
C1034 C1028 1.379 . S
C1034 C1031 1.363 . S
C1034 N1032 1.356 . S
C1035 C1029 1.363 . S
C1035 C1030 1.379 . S
C1035 N1033 1.356 . S
N1036 C1028 1.356 . S
N1036 H1042 0.984 . S
N1036 H1043 0.984 . S
N1037 C1030 1.356 . S
N1037 H1040 0.984 . S
N1037 H1041 0.985 . S
H1038 N1033 0.984 . S
H1039 N1033 0.985 . S
H1040 N1037 0.984 . S
H1041 N1037 0.985 . S
H1042 N1036 0.984 . S
H1043 N1036 0.984 . S
H1044 N1032 0.984 . S
H1045 N1032 0.985 . S
C1046 C1047 1.363 . S
C1046 C1052 1.379 . S
C1046 N1054 1.356 . S
C1047 C1046 1.363 . S
C1047 C1053 1.363 . S
C1048 C1049 1.363 . S
C1048 C1053 1.379 . S
C1048 N1055 1.356 . S
C1049 C1048 1.363 . S
C1049 C1052 1.363 . S
N1050 C1052 1.356 . S
N1050 H1062 0.984 . S
N1050 H1063 0.985 . S
N1051 C1053 1.356 . S
N1051 H1056 0.984 . S
N1051 H1057 0.985 . S
C1052 C1046 1.379 . S
C1052 C1049 1.363 . S
C1052 N1050 1.356 . S
C1053 C1047 1.363 . S
C1053 C1048 1.379 . S
C1053 N1051 1.356 . S
N1054 C1046 1.356 . S
N1054 H1060 0.984 . S
N1054 H1061 0.984 . S
N1055 C1048 1.356 . S
N1055 H1058 0.984 . S
N1055 H1059 0.985 . S
H1056 N1051 0.984 . S
H1057 N1051 0.985 . S
H1058 N1055 0.984 . S
H1059 N1055 0.985 . S
H1060 N1054 0.984 . S
H1061 N1054 0.984 . S
H1062 N1050 0.984 . S
H1063 N1050 0.985 . S
C1064 C1065 1.363 . S
C1064 C1070 1.379 . S
C1064 N1072 1.356 . S
C1065 C1064 1.363 . S
C1065 C1071 1.363 1_554 S
C1066 C1067 1.363 . S
C1066 C1071 1.379 . S
C1066 N1073 1.356 . S
C1067 C1066 1.363 . S
C1067 C1070 1.363 1_556 S
N1068 C1070 1.356 . S
N1068 H1080 0.984 . S
N1068 H1081 0.985 . S
N1069 C1071 1.356 . S
N1069 H1074 0.984 . S
N1069 H1075 0.985 . S
C1070 C1064 1.379 . S
C1070 C1067 1.363 1_554 S
C1070 N1068 1.356 . S
C1071 C1065 1.363 1_556 S
C1071 C1066 1.379 . S
C1071 N1069 1.356 . S
N1072 C1064 1.356 . S
N1072 H1078 0.984 . S
N1072 H1079 0.984 . S
N1073 C1066 1.356 . S
N1073 H1076 0.984 . S
N1073 H1077 0.985 . S
H1074 N1069 0.984 . S
H1075 N1069 0.985 . S
H1076 N1073 0.984 . S
H1077 N1073 0.985 . S
H1078 N1072 0.984 . S
H1079 N1072 0.984 . S
H1080 N1068 0.984 . S
H1081 N1068 0.985 . S
C1082 C1083 1.363 . S
C1082 C1088 1.379 . S
C1082 N1090 1.356 . S
C1083 C1082 1.363 . S
C1083 C1089 1.363 . S
C1084 C1085 1.363 . S
C1084 C1089 1.379 . S
C1084 N1091 1.356 . S
C1085 C1084 1.363 . S
C1085 C1088 1.363 . S
N1086 C1088 1.356 . S
N1086 H1098 0.984 . S
N1086 H1099 0.985 . S
N1087 C1089 1.356 . S
N1087 H1092 0.984 . S
N1087 H1093 0.985 . S
C1088 C1082 1.379 . S
C1088 C1085 1.363 . S
C1088 N1086 1.356 . S
C1089 C1083 1.363 . S
C1089 C1084 1.379 . S
C1089 N1087 1.356 . S
N1090 C1082 1.356 . S
N1090 H1096 0.984 . S
N1090 H1097 0.984 . S
N1091 C1084 1.356 . S
N1091 H1094 0.984 . S
N1091 H1095 0.985 . S
H1092 N1087 0.984 . S
H1093 N1087 0.985 . S
H1094 N1091 0.984 . S
H1095 N1091 0.985 . S
H1096 N1090 0.984 . S
H1097 N1090 0.984 . S
H1098 N1086 0.984 . S
H1099 N1086 0.985 . S
C1100 C1101 1.363 . S
C1100 C1106 1.379 . S
C1100 N1108 1.356 . S
C1101 C1100 1.363 . S
C1101 C1107 1.363 . S
C1102 C1103 1.363 . S
C1102 C1107 1.379 . S
C1102 N1109 1.356 . S
C1103 C1102 1.363 . S
C1103 C1106 1.363 . S
N1104 C1106 1.356 . S
N1104 H1116 0.984 . S
N1104 H1117 0.985 . S
N1105 C1107 1.356 . S
N1105 H1110 0.984 . S
N1105 H1111 0.985 . S
C1106 C1100 1.379 . S
C1106 C1103 1.363 . S
C1106 N1104 1.356 . S
C1107 C1101 1.363 . S
C1107 C1102 1.379 . S
C1107 N1105 1.356 . S
N1108 C1100 1.356 . S
N1108 H1114 0.984 . S
N1108 H1115 0.984 . S
N1109 C1102 1.356 . S
N1109 H1112 0.984 . S
N1109 H1113 0.985 . S
H1110 N1105 0.984 . S
H1111 N1105 0.985 . S
H1112 N1109 0.984 . S
H1113 N1109 0.985 . S
H1114 N1108 0.984 . S
H1115 N1108 0.984 . S
H1116 N1104 0.984 . S
H1117 N1104 0.985 . S
C1118 C1119 1.363 . S
C1118 C1124 1.379 . S
C1118 N1126 1.356 . S
C1119 C1118 1.363 . S
C1119 C1125 1.363 . S
C1120 C1121 1.363 . S
C1120 C1125 1.379 . S
C1120 N1127 1.356 . S
C1121 C1120 1.363 . S
C1121 C1124 1.363 . S
N1122 C1124 1.356 . S
N1122 H1134 0.984 . S
N1122 H1135 0.985 . S
N1123 C1125 1.356 . S
N1123 H1128 0.984 . S
N1123 H1129 0.985 . S
C1124 C1118 1.379 . S
C1124 C1121 1.363 . S
C1124 N1122 1.356 . S
C1125 C1119 1.363 . S
C1125 C1120 1.379 . S
C1125 N1123 1.356 . S
N1126 C1118 1.356 . S
N1126 H1132 0.984 . S
N1126 H1133 0.984 . S
N1127 C1120 1.356 . S
N1127 H1130 0.984 . S
N1127 H1131 0.985 . S
H1128 N1123 0.984 . S
H1129 N1123 0.985 . S
H1130 N1127 0.984 . S
H1131 N1127 0.985 . S
H1132 N1126 0.984 . S
H1133 N1126 0.984 . S
H1134 N1122 0.984 . S
H1135 N1122 0.985 . S
C1136 C1137 1.363 . S
C1136 C1142 1.379 1_545 S
C1136 N1144 1.356 . S
C1137 C1136 1.363 . S
C1137 C1143 1.363 . S
C1138 C1139 1.363 . S
C1138 C1143 1.379 1_565 S
C1138 N1145 1.356 . S
C1139 C1138 1.363 . S
C1139 C1142 1.363 . S
N1140 C1142 1.356 . S
N1140 H1152 0.984 . S
N1140 H1153 0.985 . S
N1141 C1143 1.356 . S
N1141 H1146 0.984 . S
N1141 H1147 0.985 . S
C1142 C1136 1.379 1_565 S
C1142 C1139 1.363 . S
C1142 N1140 1.356 . S
C1143 C1137 1.363 . S
C1143 C1138 1.379 1_545 S
C1143 N1141 1.356 . S
N1144 C1136 1.356 . S
N1144 H1150 0.984 . S
N1144 H1151 0.984 . S
N1145 C1138 1.356 . S
N1145 H1148 0.984 . S
N1145 H1149 0.985 . S
H1146 N1141 0.984 . S
H1147 N1141 0.985 . S
H1148 N1145 0.984 . S
H1149 N1145 0.985 . S
H1150 N1144 0.984 . S
H1151 N1144 0.984 . S
H1152 N1140 0.984 . S
H1153 N1140 0.985 . S
C1154 C1155 1.363 . S
C1154 C1160 1.379 . S
C1154 N1162 1.356 . S
C1155 C1154 1.363 . S
C1155 C1161 1.363 . S
C1156 C1157 1.363 . S
C1156 C1161 1.379 . S
C1156 N1163 1.356 . S
C1157 C1156 1.363 . S
C1157 C1160 1.363 . S
N1158 C1160 1.356 . S
N1158 H1170 0.984 . S
N1158 H1171 0.985 . S
N1159 C1161 1.356 . S
N1159 H1164 0.984 . S
N1159 H1165 0.985 . S
C1160 C1154 1.379 . S
C1160 C1157 1.363 . S
C1160 N1158 1.356 . S
C1161 C1155 1.363 . S
C1161 C1156 1.379 . S
C1161 N1159 1.356 . S
N1162 C1154 1.356 . S
N1162 H1168 0.984 . S
N1162 H1169 0.984 . S
N1163 C1156 1.356 . S
N1163 H1166 0.984 . S
N1163 H1167 0.985 . S
H1164 N1159 0.984 . S
H1165 N1159 0.985 . S
H1166 N1163 0.984 . S
H1167 N1163 0.985 . S
H1168 N1162 0.984 . S
H1169 N1162 0.984 . S
H1170 N1158 0.984 . S
H1171 N1158 0.985 . S
C1172 C1173 1.363 . S
C1172 C1178 1.379 1_565 S
C1172 N1180 1.356 . S
C1173 C1172 1.363 . S
C1173 C1179 1.363 1_554 S
C1174 C1175 1.363 . S
C1174 C1179 1.379 1_545 S
C1174 N1181 1.356 . S
C1175 C1174 1.363 . S
C1175 C1178 1.363 1_556 S
N1176 C1178 1.356 . S
N1176 H1188 0.984 . S
N1176 H1189 0.985 . S
N1177 C1179 1.356 . S
N1177 H1182 0.984 . S
N1177 H1183 0.985 . S
C1178 C1172 1.379 1_545 S
C1178 C1175 1.363 1_554 S
C1178 N1176 1.356 . S
C1179 C1173 1.363 1_556 S
C1179 C1174 1.379 1_565 S
C1179 N1177 1.356 . S
N1180 C1172 1.356 . S
N1180 H1186 0.984 . S
N1180 H1187 0.984 . S
N1181 C1174 1.356 . S
N1181 H1184 0.984 . S
N1181 H1185 0.985 . S
H1182 N1177 0.984 . S
H1183 N1177 0.985 . S
H1184 N1181 0.984 . S
H1185 N1181 0.985 . S
H1186 N1180 0.984 . S
H1187 N1180 0.984 . S
H1188 N1176 0.984 . S
H1189 N1176 0.985 . S
C1190 C1191 1.363 . S
C1190 C1196 1.379 . S
C1190 N1198 1.356 . S
C1191 C1190 1.363 . S
C1191 C1197 1.363 . S
C1192 C1193 1.363 . S
C1192 C1197 1.379 . S
C1192 N1199 1.356 . S
C1193 C1192 1.363 . S
C1193 C1196 1.363 . S
N1194 C1196 1.356 . S
N1194 H1206 0.984 . S
N1194 H1207 0.985 . S
N1195 C1197 1.356 . S
N1195 H1200 0.984 . S
N1195 H1201 0.985 . S
C1196 C1190 1.379 . S
C1196 C1193 1.363 . S
C1196 N1194 1.356 . S
C1197 C1191 1.363 . S
C1197 C1192 1.379 . S
C1197 N1195 1.356 . S
N1198 C1190 1.356 . S
N1198 H1204 0.984 . S
N1198 H1205 0.984 . S
N1199 C1192 1.356 . S
N1199 H1202 0.984 . S
N1199 H1203 0.985 . S
H1200 N1195 0.984 . S
H1201 N1195 0.985 . S
H1202 N1199 0.984 . S
H1203 N1199 0.985 . S
H1204 N1198 0.984 . S
H1205 N1198 0.984 . S
H1206 N1194 0.984 . S
H1207 N1194 0.985 . S
C1208 C1209 1.363 . S
C1208 C1214 1.379 1_545 S
C1208 N1216 1.356 . S
C1209 C1208 1.363 . S
C1209 C1215 1.363 . S
C1210 C1211 1.363 . S
C1210 C1215 1.379 1_565 S
C1210 N1217 1.356 . S
C1211 C1210 1.363 . S
C1211 C1214 1.363 . S
N1212 C1214 1.356 . S
N1212 H1224 0.984 . S
N1212 H1225 0.985 . S
N1213 C1215 1.356 . S
N1213 H1218 0.984 . S
N1213 H1219 0.985 . S
C1214 C1208 1.379 1_565 S
C1214 C1211 1.363 . S
C1214 N1212 1.356 . S
C1215 C1209 1.363 . S
C1215 C1210 1.379 1_545 S
C1215 N1213 1.356 . S
N1216 C1208 1.356 . S
N1216 H1222 0.984 . S
N1216 H1223 0.984 . S
N1217 C1210 1.356 . S
N1217 H1220 0.984 . S
N1217 H1221 0.985 . S
H1218 N1213 0.984 . S
H1219 N1213 0.985 . S
H1220 N1217 0.984 . S
H1221 N1217 0.985 . S
H1222 N1216 0.984 . S
H1223 N1216 0.984 . S
H1224 N1212 0.984 . S
H1225 N1212 0.985 . S
C1226 C1227 1.363 . S
C1226 C1232 1.379 . S
C1226 N1234 1.356 . S
C1227 C1226 1.363 . S
C1227 C1233 1.363 . S
C1228 C1229 1.363 . S
C1228 C1233 1.379 . S
C1228 N1235 1.356 . S
C1229 C1228 1.363 . S
C1229 C1232 1.363 . S
N1230 C1232 1.356 . S
N1230 H1242 0.984 . S
N1230 H1243 0.985 . S
N1231 C1233 1.356 . S
N1231 H1236 0.984 . S
N1231 H1237 0.985 . S
C1232 C1226 1.379 . S
C1232 C1229 1.363 . S
C1232 N1230 1.356 . S
C1233 C1227 1.363 . S
C1233 C1228 1.379 . S
C1233 N1231 1.356 . S
N1234 C1226 1.356 . S
N1234 H1240 0.984 . S
N1234 H1241 0.984 . S
N1235 C1228 1.356 . S
N1235 H1238 0.984 . S
N1235 H1239 0.985 . S
H1236 N1231 0.984 . S
H1237 N1231 0.985 . S
H1238 N1235 0.984 . S
H1239 N1235 0.985 . S
H1240 N1234 0.984 . S
H1241 N1234 0.984 . S
H1242 N1230 0.984 . S
H1243 N1230 0.985 . S
C1244 C1245 1.363 . S
C1244 C1250 1.379 1_565 S
C1244 N1252 1.356 . S
C1245 C1244 1.363 . S
C1245 C1251 1.363 1_554 S
C1246 C1247 1.363 . S
C1246 C1251 1.379 1_545 S
C1246 N1253 1.356 . S
C1247 C1246 1.363 . S
C1247 C1250 1.363 1_556 S
N1248 C1250 1.356 . S
N1248 H1260 0.984 . S
N1248 H1261 0.985 . S
N1249 C1251 1.356 . S
N1249 H1254 0.984 . S
N1249 H1255 0.985 . S
C1250 C1244 1.379 1_545 S
C1250 C1247 1.363 1_554 S
C1250 N1248 1.356 . S
C1251 C1245 1.363 1_556 S
C1251 C1246 1.379 1_565 S
C1251 N1249 1.356 . S
N1252 C1244 1.356 . S
N1252 H1258 0.984 . S
N1252 H1259 0.984 . S
N1253 C1246 1.356 . S
N1253 H1256 0.984 . S
N1253 H1257 0.985 . S
H1254 N1249 0.984 . S
H1255 N1249 0.985 . S
H1256 N1253 0.984 . S
H1257 N1253 0.985 . S
H1258 N1252 0.984 . S
H1259 N1252 0.984 . S
H1260 N1248 0.984 . S
H1261 N1248 0.985 . S
C1262 C1263 1.363 . S
C1262 C1268 1.379 . S
C1262 N1270 1.356 . S
C1263 C1262 1.363 . S
C1263 C1269 1.363 . S
C1264 C1265 1.363 . S
C1264 C1269 1.379 . S
C1264 N1271 1.356 . S
C1265 C1264 1.363 . S
C1265 C1268 1.363 . S
N1266 C1268 1.356 . S
N1266 H1278 0.984 . S
N1266 H1279 0.985 . S
N1267 C1269 1.356 . S
N1267 H1272 0.984 . S
N1267 H1273 0.985 . S
C1268 C1262 1.379 . S
C1268 C1265 1.363 . S
C1268 N1266 1.356 . S
C1269 C1263 1.363 . S
C1269 C1264 1.379 . S
C1269 N1267 1.356 . S
N1270 C1262 1.356 . S
N1270 H1276 0.984 . S
N1270 H1277 0.984 . S
N1271 C1264 1.356 . S
N1271 H1274 0.984 . S
N1271 H1275 0.985 . S
H1272 N1267 0.984 . S
H1273 N1267 0.985 . S
H1274 N1271 0.984 . S
H1275 N1271 0.985 . S
H1276 N1270 0.984 . S
H1277 N1270 0.984 . S
H1278 N1266 0.984 . S
H1279 N1266 0.985 . S
C1280 C1281 1.363 . S
C1280 C1286 1.379 . S
C1280 N1288 1.356 1_554 S
C1281 C1280 1.363 . S
C1281 C1287 1.363 . S
C1282 C1283 1.363 . S
C1282 C1287 1.379 . S
C1282 N1289 1.356 . S
C1283 C1282 1.363 . S
C1283 C1286 1.363 . S
N1284 C1286 1.356 1_556 S
N1284 H1296 0.984 . S
N1284 H1297 0.985 1_556 S
N1285 C1287 1.356 . S
N1285 H1290 0.984 . S
N1285 H1291 0.985 . S
C1286 C1280 1.379 . S
C1286 C1283 1.363 . S
C1286 N1284 1.356 1_554 S
C1287 C1281 1.363 . S
C1287 C1282 1.379 . S
C1287 N1285 1.356 . S
N1288 C1280 1.356 1_556 S
N1288 H1294 0.984 . S
N1288 H1295 0.984 1_556 S
N1289 C1282 1.356 . S
N1289 H1292 0.984 . S
N1289 H1293 0.985 . S
H1290 N1285 0.984 . S
H1291 N1285 0.985 . S
H1292 N1289 0.984 . S
H1293 N1289 0.985 . S
H1294 N1288 0.984 . S
H1295 N1288 0.984 1_554 S
H1296 N1284 0.984 . S
H1297 N1284 0.985 1_554 S
C1298 C1299 1.363 . S
C1298 C1304 1.379 . S
C1298 N1306 1.356 . S
C1299 C1298 1.363 . S
C1299 C1305 1.363 . S
C1300 C1301 1.363 . S
C1300 C1305 1.379 . S
C1300 N1307 1.356 . S
C1301 C1300 1.363 . S
C1301 C1304 1.363 . S
N1302 C1304 1.356 . S
N1302 H1314 0.984 . S
N1302 H1315 0.985 . S
N1303 C1305 1.356 . S
N1303 H1308 0.984 . S
N1303 H1309 0.985 . S
C1304 C1298 1.379 . S
C1304 C1301 1.363 . S
C1304 N1302 1.356 . S
C1305 C1299 1.363 . S
C1305 C1300 1.379 . S
C1305 N1303 1.356 . S
N1306 C1298 1.356 . S
N1306 H1312 0.984 . S
N1306 H1313 0.984 . S
N1307 C1300 1.356 . S
N1307 H1310 0.984 . S
N1307 H1311 0.985 . S
H1308 N1303 0.984 . S
H1309 N1303 0.985 . S
H1310 N1307 0.984 . S
H1311 N1307 0.985 . S
H1312 N1306 0.984 . S
H1313 N1306 0.984 . S
H1314 N1302 0.984 . S
H1315 N1302 0.985 . S
C1316 C1317 1.363 . S
C1316 C1322 1.379 . S
C1316 N1324 1.356 . S
C1317 C1316 1.363 . S
C1317 C1323 1.363 . S
C1318 C1319 1.363 . S
C1318 C1323 1.379 . S
C1318 N1325 1.356 . S
C1319 C1318 1.363 . S
C1319 C1322 1.363 . S
N1320 C1322 1.356 . S
N1320 H1332 0.984 . S
N1320 H1333 0.985 . S
N1321 C1323 1.356 . S
N1321 H1326 0.984 . S
N1321 H1327 0.985 . S
C1322 C1316 1.379 . S
C1322 C1319 1.363 . S
C1322 N1320 1.356 . S
C1323 C1317 1.363 . S
C1323 C1318 1.379 . S
C1323 N1321 1.356 . S
N1324 C1316 1.356 . S
N1324 H1330 0.984 . S
N1324 H1331 0.984 . S
N1325 C1318 1.356 . S
N1325 H1328 0.984 . S
N1325 H1329 0.985 . S
H1326 N1321 0.984 . S
H1327 N1321 0.985 . S
H1328 N1325 0.984 . S
H1329 N1325 0.985 . S
H1330 N1324 0.984 . S
H1331 N1324 0.984 . S
H1332 N1320 0.984 . S
H1333 N1320 0.985 . S
C1334 C1335 1.363 . S
C1334 C1340 1.379 1_655 S
C1334 N1342 1.356 . S
C1335 C1334 1.363 . S
C1335 C1341 1.363 . S
C1336 C1337 1.363 . S
C1336 C1341 1.379 1_455 S
C1336 N1343 1.356 . S
C1337 C1336 1.363 . S
C1337 C1340 1.363 . S
N1338 C1340 1.356 . S
N1338 H1350 0.984 . S
N1338 H1351 0.985 . S
N1339 C1341 1.356 . S
N1339 H1344 0.984 . S
N1339 H1345 0.985 . S
C1340 C1334 1.379 1_455 S
C1340 C1337 1.363 . S
C1340 N1338 1.356 . S
C1341 C1335 1.363 . S
C1341 C1336 1.379 1_655 S
C1341 N1339 1.356 . S
N1342 C1334 1.356 . S
N1342 H1348 0.984 . S
N1342 H1349 0.984 . S
N1343 C1336 1.356 . S
N1343 H1346 0.984 . S
N1343 H1347 0.985 . S
H1344 N1339 0.984 . S
H1345 N1339 0.985 . S
H1346 N1343 0.984 . S
H1347 N1343 0.985 . S
H1348 N1342 0.984 . S
H1349 N1342 0.984 . S
H1350 N1338 0.984 . S
H1351 N1338 0.985 . S
C1352 C1353 1.363 . S
C1352 C1358 1.379 . S
C1352 N1360 1.356 1_556 S
C1353 C1352 1.363 . S
C1353 C1359 1.363 . S
C1354 C1355 1.363 . S
C1354 C1359 1.379 . S
C1354 N1361 1.356 . S
C1355 C1354 1.363 . S
C1355 C1358 1.363 . S
N1356 C1358 1.356 1_554 S
N1356 H1368 0.984 . S
N1356 H1369 0.985 1_554 S
N1357 C1359 1.356 . S
N1357 H1362 0.984 . S
N1357 H1363 0.985 . S
C1358 C1352 1.379 . S
C1358 C1355 1.363 . S
C1358 N1356 1.356 1_556 S
C1359 C1353 1.363 . S
C1359 C1354 1.379 . S
C1359 N1357 1.356 . S
N1360 C1352 1.356 1_554 S
N1360 H1366 0.984 . S
N1360 H1367 0.984 1_554 S
N1361 C1354 1.356 . S
N1361 H1364 0.984 . S
N1361 H1365 0.985 . S
H1362 N1357 0.984 . S
H1363 N1357 0.985 . S
H1364 N1361 0.984 . S
H1365 N1361 0.985 . S
H1366 N1360 0.984 . S
H1367 N1360 0.984 1_556 S
H1368 N1356 0.984 . S
H1369 N1356 0.985 1_556 S
C1370 C1371 1.363 . S
C1370 C1376 1.379 1_655 S
C1370 N1378 1.356 . S
C1371 C1370 1.363 . S
C1371 C1377 1.363 . S
C1372 C1373 1.363 . S
C1372 C1377 1.379 1_455 S
C1372 N1379 1.356 . S
C1373 C1372 1.363 . S
C1373 C1376 1.363 . S
N1374 C1376 1.356 . S
N1374 H1386 0.984 . S
N1374 H1387 0.985 . S
N1375 C1377 1.356 . S
N1375 H1380 0.984 . S
N1375 H1381 0.985 . S
C1376 C1370 1.379 1_455 S
C1376 C1373 1.363 . S
C1376 N1374 1.356 . S
C1377 C1371 1.363 . S
C1377 C1372 1.379 1_655 S
C1377 N1375 1.356 . S
N1378 C1370 1.356 . S
N1378 H1384 0.984 . S
N1378 H1385 0.984 . S
N1379 C1372 1.356 . S
N1379 H1382 0.984 . S
N1379 H1383 0.985 . S
H1380 N1375 0.984 . S
H1381 N1375 0.985 . S
H1382 N1379 0.984 . S
H1383 N1379 0.985 . S
H1384 N1378 0.984 . S
H1385 N1378 0.984 . S
H1386 N1374 0.984 . S
H1387 N1374 0.985 . S
C1388 C1389 1.363 . S
C1388 C1394 1.379 . S
C1388 N1396 1.356 . S
C1389 C1388 1.363 . S
C1389 C1395 1.363 . S
C1390 C1391 1.363 . S
C1390 C1395 1.379 . S
C1390 N1397 1.356 . S
C1391 C1390 1.363 . S
C1391 C1394 1.363 . S
N1392 C1394 1.356 . S
N1392 H1404 0.984 . S
N1392 H1405 0.985 . S
N1393 C1395 1.356 . S
N1393 H1398 0.984 . S
N1393 H1399 0.985 . S
C1394 C1388 1.379 . S
C1394 C1391 1.363 . S
C1394 N1392 1.356 . S
C1395 C1389 1.363 . S
C1395 C1390 1.379 . S
C1395 N1393 1.356 . S
N1396 C1388 1.356 . S
N1396 H1402 0.984 . S
N1396 H1403 0.984 . S
N1397 C1390 1.356 . S
N1397 H1400 0.984 . S
N1397 H1401 0.985 . S
H1398 N1393 0.984 . S
H1399 N1393 0.985 . S
H1400 N1397 0.984 . S
H1401 N1397 0.985 . S
H1402 N1396 0.984 . S
H1403 N1396 0.984 . S
H1404 N1392 0.984 . S
H1405 N1392 0.985 . S
C1406 C1407 1.363 . S
C1406 C1412 1.379 . S
C1406 N1414 1.356 . S
C1407 C1406 1.363 . S
C1407 C1413 1.363 . S
C1408 C1409 1.363 . S
C1408 C1413 1.379 . S
C1408 N1415 1.356 . S
C1409 C1408 1.363 . S
C1409 C1412 1.363 . S
N1410 C1412 1.356 . S
N1410 H1422 0.984 . S
N1410 H1423 0.985 . S
N1411 C1413 1.356 . S
N1411 H1416 0.984 . S
N1411 H1417 0.985 . S
C1412 C1406 1.379 . S
C1412 C1409 1.363 . S
C1412 N1410 1.356 . S
C1413 C1407 1.363 . S
C1413 C1408 1.379 . S
C1413 N1411 1.356 . S
N1414 C1406 1.356 . S
N1414 H1420 0.984 . S
N1414 H1421 0.984 . S
N1415 C1408 1.356 . S
N1415 H1418 0.984 . S
N1415 H1419 0.985 . S
H1416 N1411 0.984 . S
H1417 N1411 0.985 . S
H1418 N1415 0.984 . S
H1419 N1415 0.985 . S
H1420 N1414 0.984 . S
H1421 N1414 0.984 . S
H1422 N1410 0.984 . S
H1423 N1410 0.985 . S
C1424 C1425 1.363 . S
C1424 C1430 1.379 . S
C1424 N1432 1.356 1_556 S
C1425 C1424 1.363 . S
C1425 C1431 1.363 . S
C1426 C1427 1.363 . S
C1426 C1431 1.379 . S
C1426 N1433 1.356 . S
C1427 C1426 1.363 . S
C1427 C1430 1.363 . S
N1428 C1430 1.356 1_554 S
N1428 H1440 0.984 . S
N1428 H1441 0.985 1_554 S
N1429 C1431 1.356 . S
N1429 H1434 0.984 . S
N1429 H1435 0.985 . S
C1430 C1424 1.379 . S
C1430 C1427 1.363 . S
C1430 N1428 1.356 1_556 S
C1431 C1425 1.363 . S
C1431 C1426 1.379 . S
C1431 N1429 1.356 . S
N1432 C1424 1.356 1_554 S
N1432 H1438 0.984 . S
N1432 H1439 0.984 1_554 S
N1433 C1426 1.356 . S
N1433 H1436 0.984 . S
N1433 H1437 0.985 . S
H1434 N1429 0.984 . S
H1435 N1429 0.985 . S
H1436 N1433 0.984 . S
H1437 N1433 0.985 . S
H1438 N1432 0.984 . S
H1439 N1432 0.984 1_556 S
H1440 N1428 0.984 . S
H1441 N1428 0.985 1_556 S
C1442 C1443 1.363 . S
C1442 C1448 1.379 . S
C1442 N1450 1.356 . S
C1443 C1442 1.363 . S
C1443 C1449 1.363 . S
C1444 C1445 1.363 . S
C1444 C1449 1.379 . S
C1444 N1451 1.356 . S
C1445 C1444 1.363 . S
C1445 C1448 1.363 . S
N1446 C1448 1.356 . S
N1446 H1458 0.984 . S
N1446 H1459 0.985 . S
N1447 C1449 1.356 . S
N1447 H1452 0.984 . S
N1447 H1453 0.985 . S
C1448 C1442 1.379 . S
C1448 C1445 1.363 . S
C1448 N1446 1.356 . S
C1449 C1443 1.363 . S
C1449 C1444 1.379 . S
C1449 N1447 1.356 . S
N1450 C1442 1.356 . S
N1450 H1456 0.984 . S
N1450 H1457 0.984 . S
N1451 C1444 1.356 . S
N1451 H1454 0.984 . S
N1451 H1455 0.985 . S
H1452 N1447 0.984 . S
H1453 N1447 0.985 . S
H1454 N1451 0.984 . S
H1455 N1451 0.985 . S
H1456 N1450 0.984 . S
H1457 N1450 0.984 . S
H1458 N1446 0.984 . S
H1459 N1446 0.985 . S
C1460 C1461 1.363 . S
C1460 C1466 1.379 . S
C1460 N1468 1.356 . S
C1461 C1460 1.363 . S
C1461 C1467 1.363 . S
C1462 C1463 1.363 . S
C1462 C1467 1.379 . S
C1462 N1469 1.356 1_554 S
C1463 C1462 1.363 . S
C1463 C1466 1.363 . S
N1464 C1466 1.356 . S
N1464 H1476 0.984 . S
N1464 H1477 0.985 . S
N1465 C1467 1.356 1_556 S
N1465 H1470 0.984 1_556 S
N1465 H1471 0.985 . S
C1466 C1460 1.379 . S
C1466 C1463 1.363 . S
C1466 N1464 1.356 . S
C1467 C1461 1.363 . S
C1467 C1462 1.379 . S
C1467 N1465 1.356 1_554 S
N1468 C1460 1.356 . S
N1468 H1474 0.984 . S
N1468 H1475 0.984 . S
N1469 C1462 1.356 1_556 S
N1469 H1472 0.984 1_556 S
N1469 H1473 0.985 . S
H1470 N1465 0.984 1_554 S
H1471 N1465 0.985 . S
H1472 N1469 0.984 1_554 S
H1473 N1469 0.985 . S
H1474 N1468 0.984 . S
H1475 N1468 0.984 . S
H1476 N1464 0.984 . S
H1477 N1464 0.985 . S
C1478 C1479 1.363 . S
C1478 C1484 1.379 . S
C1478 N1486 1.356 . S
C1479 C1478 1.363 . S
C1479 C1485 1.363 . S
C1480 C1481 1.363 . S
C1480 C1485 1.379 . S
C1480 N1487 1.356 . S
C1481 C1480 1.363 . S
C1481 C1484 1.363 . S
N1482 C1484 1.356 . S
N1482 H1494 0.984 . S
N1482 H1495 0.985 . S
N1483 C1485 1.356 . S
N1483 H1488 0.984 . S
N1483 H1489 0.985 . S
C1484 C1478 1.379 . S
C1484 C1481 1.363 . S
C1484 N1482 1.356 . S
C1485 C1479 1.363 . S
C1485 C1480 1.379 . S
C1485 N1483 1.356 . S
N1486 C1478 1.356 . S
N1486 H1492 0.984 . S
N1486 H1493 0.984 . S
N1487 C1480 1.356 . S
N1487 H1490 0.984 . S
N1487 H1491 0.985 . S
H1488 N1483 0.984 . S
H1489 N1483 0.985 . S
H1490 N1487 0.984 . S
H1491 N1487 0.985 . S
H1492 N1486 0.984 . S
H1493 N1486 0.984 . S
H1494 N1482 0.984 . S
H1495 N1482 0.985 . S
C1496 C1497 1.363 . S
C1496 C1502 1.379 1_655 S
C1496 N1504 1.356 . S
C1497 C1496 1.363 . S
C1497 C1503 1.363 . S
C1498 C1499 1.363 . S
C1498 C1503 1.379 1_455 S
C1498 N1505 1.356 . S
C1499 C1498 1.363 . S
C1499 C1502 1.363 . S
N1500 C1502 1.356 . S
N1500 H1512 0.984 . S
N1500 H1513 0.985 . S
N1501 C1503 1.356 . S
N1501 H1506 0.984 . S
N1501 H1507 0.985 . S
C1502 C1496 1.379 1_455 S
C1502 C1499 1.363 . S
C1502 N1500 1.356 . S
C1503 C1497 1.363 . S
C1503 C1498 1.379 1_655 S
C1503 N1501 1.356 . S
N1504 C1496 1.356 . S
N1504 H1510 0.984 . S
N1504 H1511 0.984 . S
N1505 C1498 1.356 . S
N1505 H1508 0.984 . S
N1505 H1509 0.985 . S
H1506 N1501 0.984 . S
H1507 N1501 0.985 . S
H1508 N1505 0.984 . S
H1509 N1505 0.985 . S
H1510 N1504 0.984 . S
H1511 N1504 0.984 . S
H1512 N1500 0.984 . S
H1513 N1500 0.985 . S
C1514 C1515 1.363 . S
C1514 C1520 1.379 . S
C1514 N1522 1.356 . S
C1515 C1514 1.363 . S
C1515 C1521 1.363 . S
C1516 C1517 1.363 . S
C1516 C1521 1.379 . S
C1516 N1523 1.356 . S
C1517 C1516 1.363 . S
C1517 C1520 1.363 . S
N1518 C1520 1.356 . S
N1518 H1530 0.984 . S
N1518 H1531 0.985 . S
N1519 C1521 1.356 . S
N1519 H1524 0.984 . S
N1519 H1525 0.985 . S
C1520 C1514 1.379 . S
C1520 C1517 1.363 . S
C1520 N1518 1.356 . S
C1521 C1515 1.363 . S
C1521 C1516 1.379 . S
C1521 N1519 1.356 . S
N1522 C1514 1.356 . S
N1522 H1528 0.984 . S
N1522 H1529 0.984 . S
N1523 C1516 1.356 . S
N1523 H1526 0.984 . S
N1523 H1527 0.985 . S
H1524 N1519 0.984 . S
H1525 N1519 0.985 . S
H1526 N1523 0.984 . S
H1527 N1523 0.985 . S
H1528 N1522 0.984 . S
H1529 N1522 0.984 . S
H1530 N1518 0.984 . S
H1531 N1518 0.985 . S
C1532 C1533 1.363 . S
C1532 C1538 1.379 . S
C1532 N1540 1.356 . S
C1533 C1532 1.363 . S
C1533 C1539 1.363 . S
C1534 C1535 1.363 . S
C1534 C1539 1.379 . S
C1534 N1541 1.356 . S
C1535 C1534 1.363 . S
C1535 C1538 1.363 . S
N1536 C1538 1.356 . S
N1536 H1548 0.984 . S
N1536 H1549 0.985 . S
N1537 C1539 1.356 . S
N1537 H1542 0.984 . S
N1537 H1543 0.985 . S
C1538 C1532 1.379 . S
C1538 C1535 1.363 . S
C1538 N1536 1.356 . S
C1539 C1533 1.363 . S
C1539 C1534 1.379 . S
C1539 N1537 1.356 . S
N1540 C1532 1.356 . S
N1540 H1546 0.984 . S
N1540 H1547 0.984 . S
N1541 C1534 1.356 . S
N1541 H1544 0.984 . S
N1541 H1545 0.985 . S
H1542 N1537 0.984 . S
H1543 N1537 0.985 . S
H1544 N1541 0.984 . S
H1545 N1541 0.985 . S
H1546 N1540 0.984 . S
H1547 N1540 0.984 . S
H1548 N1536 0.984 . S
H1549 N1536 0.985 . S
C1550 C1551 1.363 . S
C1550 C1556 1.379 1_655 S
C1550 N1558 1.356 . S
C1551 C1550 1.363 . S
C1551 C1557 1.363 . S
C1552 C1553 1.363 . S
C1552 C1557 1.379 1_455 S
C1552 N1559 1.356 . S
C1553 C1552 1.363 . S
C1553 C1556 1.363 . S
N1554 C1556 1.356 . S
N1554 H1566 0.984 . S
N1554 H1567 0.985 . S
N1555 C1557 1.356 . S
N1555 H1560 0.984 . S
N1555 H1561 0.985 . S
C1556 C1550 1.379 1_455 S
C1556 C1553 1.363 . S
C1556 N1554 1.356 . S
C1557 C1551 1.363 . S
C1557 C1552 1.379 1_655 S
C1557 N1555 1.356 . S
N1558 C1550 1.356 . S
N1558 H1564 0.984 . S
N1558 H1565 0.984 . S
N1559 C1552 1.356 . S
N1559 H1562 0.984 . S
N1559 H1563 0.985 . S
H1560 N1555 0.984 . S
H1561 N1555 0.985 . S
H1562 N1559 0.984 . S
H1563 N1559 0.985 . S
H1564 N1558 0.984 . S
H1565 N1558 0.984 . S
H1566 N1554 0.984 . S
H1567 N1554 0.985 . S
C417 C303 1.821 . S
C419 C5 1.824 . S
C435 C263 1.824 . S
C437 C23 1.821 . S
C453 C277 1.821 . S
C455 C29 1.824 . S
C471 C289 1.824 . S
C473 C49 1.821 . S
C489 C55 1.824 . S
C491 C231 1.821 . S
C507 C239 1.824 . S
C509 C69 1.821 . S
C525 C83 1.824 . S
C527 C251 1.821 . S
C543 C95 1.821 . S
C545 C211 1.824 . S
C561 C407 1.811 . S
C563 C114 1.811 . S
C579 C127 1.811 . S
C581 C374 1.811 . S
C597 C140 1.811 . S
C599 C381 1.811 . S
C615 C153 1.811 . S
C617 C394 1.811 . S
C633 C160 1.811 . S
C635 C335 1.811 . S
C651 C173 1.811 . S
C653 C342 1.811 . S
C669 C192 1.811 . S
C671 C361 1.811 . S
C687 C199 1.811 . S
C689 C322 1.811 . S
C705 C4 1.328 . S
C707 C161 1.328 . S
C723 C382 1.327 . S
C725 C16 1.327 . S
C741 C36 1.328 . S
C743 C185 1.328 . S
C759 C408 1.327 . S
C761 C42 1.327 . S
C777 C107 1.328 . S
C779 C62 1.328 . S
C795 C70 1.327 . S
C797 C328 1.327 . S
C813 C82 1.328 . S
C815 C133 1.328 . S
C831 C96 1.327 . S
C833 C354 1.327 . S
C849 C278 1.327 . S
C851 C120 1.327 . S
C867 C304 1.327 . S
C869 C146 1.327 . S
C885 C174 1.327 . S
C887 C224 1.327 . S
C903 C252 1.327 . S
C905 C200 1.327 . S
C921 C367 1.328 . S
C923 C218 1.328 . S
C939 C238 1.328 . S
C941 C395 1.328 . S
C957 C315 1.328 . S
C959 C270 1.328 . S
C975 C343 1.328 . S
C977 C296 1.328 . S
C993 C56 1.287 . S
C995 C10 1.287 . S
C1011 C68 1.286 . S
C1013 C18 1.286 . S
C1029 C30 1.287 . S
C1031 C88 1.287 . S
C1047 C44 1.286 . S
C1049 C94 1.286 . S
C1065 C159 1.297 . S
C1067 C109 1.297 . S
C1083 C172 1.290 . S
C1085 C122 1.290 . S
C1101 C187 1.297 . S
C1103 C135 1.297 . S
C1119 C148 1.290 . S
C1121 C198 1.290 . S
C1137 C212 1.287 . S
C1139 C264 1.287 . S
C1155 C226 1.286 . S
C1157 C276 1.286 . S
C1173 C244 1.287 . S
C1175 C290 1.287 . S
C1191 C250 1.287 . S
C1193 C302 1.287 . S
C1209 C369 1.297 . S
C1211 C317 1.297 . S
C1227 C380 1.290 . S
C1229 C330 1.290 . S
C1245 C393 1.297 . S
C1247 C341 1.297 . S
C1263 C406 1.290 . S
C1265 C356 1.290 . S
C1281 C400 1.786 . S
C1283 C3 1.781 . S
C1299 C17 1.785 . S
C1301 C205 1.784 . S
C1317 C368 1.786 . S
C1319 C31 1.781 . S
C1335 C43 1.785 . S
C1337 C179 1.784 . S
C1353 C348 1.786 . S
C1355 C57 1.781 . S
C1371 C75 1.785 . S
C1373 C147 1.784 . S
C1389 C81 1.781 . S
C1391 C316 1.786 . S
C1407 C121 1.784 . S
C1409 C101 1.785 . S
C1425 C108 1.786 . S
C1427 C291 1.781 . S
C1443 C265 1.781 . S
C1445 C134 1.786 . S
C1461 C166 1.786 . S
C1463 C237 1.781 . S
C1479 C186 1.786 . S
C1481 C213 1.781 . S
C1497 C413 1.784 . S
C1499 C225 1.785 . S
C1515 C257 1.785 . S
C1517 C387 1.784 . S
C1533 C283 1.785 . S
C1535 C355 1.784 . S
C1551 C329 1.784 . S
C1553 C309 1.785 . S
