# Generated by pormake.
# Topology zfp, (5)-cn, num edge types: 1
# Building blocks:
#     Node 0, Type 0, BuildingBlock: XOMCOT_clean_sbu_1, # of connection points: 5
#     Node 1, Type 0, BuildingBlock: XOMCOT_clean_sbu_1, # of connection points: 5
#     Node 2, Type 0, BuildingBlock: XOMCOT_clean_sbu_1, # of connection points: 5
#     Node 3, Type 0, BuildingBlock: XOMCOT_clean_sbu_1, # of connection points: 5
#     Node 4, Type 0, BuildingBlock: XOMCOT_clean_sbu_1, # of connection points: 5
#     Node 5, Type 0, BuildingBlock: XOMCOT_clean_sbu_1, # of connection points: 5
#     Node 6, Type 0, BuildingBlock: XOMCOT_clean_sbu_1, # of connection points: 5
#     Node 7, Type 0, BuildingBlock: XOMCOT_clean_sbu_1, # of connection points: 5
#     Node 8, Type 0, BuildingBlock: XOMCOT_clean_sbu_1, # of connection points: 5
#     Node 9, Type 0, BuildingBlock: XOMCOT_clean_sbu_1, # of connection points: 5
#     Node 10, Type 0, BuildingBlock: XOMCOT_clean_sbu_1, # of connection points: 5
#     Node 11, Type 0, BuildingBlock: XOMCOT_clean_sbu_1, # of connection points: 5
#     Node 12, Type 0, BuildingBlock: XOMCOT_clean_sbu_1, # of connection points: 5
#     Node 13, Type 0, BuildingBlock: XOMCOT_clean_sbu_1, # of connection points: 5
#     Node 14, Type 0, BuildingBlock: XOMCOT_clean_sbu_1, # of connection points: 5
#     Node 15, Type 0, BuildingBlock: XOMCOT_clean_sbu_1, # of connection points: 5
#     Edge 16, Type (0, 0), BuildingBlock: XIVTED_clean_linker_0, # of connection points: 2
#     Edge 17, Type (0, 0), BuildingBlock: XIVTED_clean_linker_0, # of connection points: 2
#     Edge 18, Type (0, 0), BuildingBlock: XIVTED_clean_linker_0, # of connection points: 2
#     Edge 19, Type (0, 0), BuildingBlock: XIVTED_clean_linker_0, # of connection points: 2
#     Edge 20, Type (0, 0), BuildingBlock: XIVTED_clean_linker_0, # of connection points: 2
#     Edge 21, Type (0, 0), BuildingBlock: XIVTED_clean_linker_0, # of connection points: 2
#     Edge 22, Type (0, 0), BuildingBlock: XIVTED_clean_linker_0, # of connection points: 2
#     Edge 23, Type (0, 0), BuildingBlock: XIVTED_clean_linker_0, # of connection points: 2
#     Edge 24, Type (0, 0), BuildingBlock: XIVTED_clean_linker_0, # of connection points: 2
#     Edge 25, Type (0, 0), BuildingBlock: XIVTED_clean_linker_0, # of connection points: 2
#     Edge 26, Type (0, 0), BuildingBlock: XIVTED_clean_linker_0, # of connection points: 2
#     Edge 27, Type (0, 0), BuildingBlock: XIVTED_clean_linker_0, # of connection points: 2
#     Edge 28, Type (0, 0), BuildingBlock: XIVTED_clean_linker_0, # of connection points: 2
#     Edge 29, Type (0, 0), BuildingBlock: XIVTED_clean_linker_0, # of connection points: 2
#     Edge 30, Type (0, 0), BuildingBlock: XIVTED_clean_linker_0, # of connection points: 2
#     Edge 31, Type (0, 0), BuildingBlock: XIVTED_clean_linker_0, # of connection points: 2
#     Edge 32, Type (0, 0), BuildingBlock: XIVTED_clean_linker_0, # of connection points: 2
#     Edge 33, Type (0, 0), BuildingBlock: XIVTED_clean_linker_0, # of connection points: 2
#     Edge 34, Type (0, 0), BuildingBlock: XIVTED_clean_linker_0, # of connection points: 2
#     Edge 35, Type (0, 0), BuildingBlock: XIVTED_clean_linker_0, # of connection points: 2
#     Edge 36, Type (0, 0), BuildingBlock: XIVTED_clean_linker_0, # of connection points: 2
#     Edge 37, Type (0, 0), BuildingBlock: XIVTED_clean_linker_0, # of connection points: 2
#     Edge 38, Type (0, 0), BuildingBlock: XIVTED_clean_linker_0, # of connection points: 2
#     Edge 39, Type (0, 0), BuildingBlock: XIVTED_clean_linker_0, # of connection points: 2
#     Edge 40, Type (0, 0), BuildingBlock: XIVTED_clean_linker_0, # of connection points: 2
#     Edge 41, Type (0, 0), BuildingBlock: XIVTED_clean_linker_0, # of connection points: 2
#     Edge 42, Type (0, 0), BuildingBlock: XIVTED_clean_linker_0, # of connection points: 2
#     Edge 43, Type (0, 0), BuildingBlock: XIVTED_clean_linker_0, # of connection points: 2
#     Edge 44, Type (0, 0), BuildingBlock: XIVTED_clean_linker_0, # of connection points: 2
#     Edge 45, Type (0, 0), BuildingBlock: XIVTED_clean_linker_0, # of connection points: 2
#     Edge 46, Type (0, 0), BuildingBlock: XIVTED_clean_linker_0, # of connection points: 2
#     Edge 47, Type (0, 0), BuildingBlock: XIVTED_clean_linker_0, # of connection points: 2
#     Edge 48, Type (0, 0), BuildingBlock: XIVTED_clean_linker_0, # of connection points: 2
#     Edge 49, Type (0, 0), BuildingBlock: XIVTED_clean_linker_0, # of connection points: 2
#     Edge 50, Type (0, 0), BuildingBlock: XIVTED_clean_linker_0, # of connection points: 2
#     Edge 51, Type (0, 0), BuildingBlock: XIVTED_clean_linker_0, # of connection points: 2
#     Edge 52, Type (0, 0), BuildingBlock: XIVTED_clean_linker_0, # of connection points: 2
#     Edge 53, Type (0, 0), BuildingBlock: XIVTED_clean_linker_0, # of connection points: 2
#     Edge 54, Type (0, 0), BuildingBlock: XIVTED_clean_linker_0, # of connection points: 2
#     Edge 55, Type (0, 0), BuildingBlock: XIVTED_clean_linker_0, # of connection points: 2
# Relax obj value: 0.300
# Max RMSD: 0.217
# Mean RMSD: 0.217
data_MOF--net-zfp--node1-XOMCOT_clean_sbu_1--edge1-XIVTED_clean_linker_0
_symmetry_space_group_name_H-M    P1
_symmetry_Int_Tables_number       1
_symmetry_cell_setting            triclinic
loop_
_symmetry_equiv_pos_as_xyz
'x, y, z'
_cell_length_a     30.472773
_cell_length_b     30.107667
_cell_length_c     70.960089
_cell_angle_alpha  89.938984
_cell_angle_beta   89.958557
_cell_angle_gamma 89.876608
loop_
_atom_site_label
_atom_site_type_symbol
_atom_site_fract_x
_atom_site_fract_y
_atom_site_fract_z
_atom_type_partial_charge
C0 C 0.15589 0.19162 0.10507 0.0
C1 C 0.15302 0.18553 0.08598 0.0
N2 N 0.14826 0.22553 0.07769 0.0
N3 N 0.15329 0.23516 0.10917 0.0
C4 C 0.14873 0.25509 0.0921 0.0
H5 H 0.15975 0.16572 0.11552 0.0
Co6 Co 0.15494 0.24807 0.13507 0.0
C7 C 0.06427 0.27886 0.14539 0.0
O8 O 0.08264 0.30521 0.1578 0.0
N9 N 0.15521 0.25418 0.16147 0.0
C10 C 0.14009 0.2233 0.18925 0.0
C11 C 0.13854 0.21807 0.17012 0.0
C12 C 0.16662 0.28152 0.17595 0.0
N13 N 0.1579 0.26309 0.19294 0.0
O14 O 0.22096 0.24201 0.13512 0.0
H15 H 0.12608 0.1893 0.16276 0.0
H16 H 0.18143 0.31382 0.17442 0.0
O17 O 0.08865 0.25352 0.13514 0.0
C18 C 0.24867 0.25447 0.12246 0.0
O19 O 0.23414 0.27226 0.10677 0.0
N20 N 0.16059 0.31013 0.131 0.0
C21 C 0.16012 0.40209 0.1299 0.0
C22 C 0.12899 0.37786 0.11976 0.0
C23 C 0.12941 0.332 0.12075 0.0
C24 C 0.19403 0.33357 0.13916 0.0
C25 C 0.19385 0.37979 0.13916 0.0
H26 H 0.10306 0.31434 0.11394 0.0
H27 H 0.21947 0.31702 0.14706 0.0
H28 H 0.14682 0.29047 0.09011 0.0
H29 H 0.15487 0.15382 0.0789 0.0
H30 H 0.12934 0.19948 0.19971 0.0
H31 H 0.10179 0.39417 0.11273 0.0
H32 H 0.21791 0.39779 0.14737 0.0
C33 C 0.69018 0.21071 0.60035 0.0
C34 C 0.69419 0.20892 0.58113 0.0
N35 N 0.727 0.18075 0.57695 0.0
N36 N 0.72052 0.18393 0.60829 0.0
C37 C 0.74275 0.16598 0.59361 0.0
H38 H 0.66678 0.23058 0.60812 0.0
Co39 Co 0.7262 0.17887 0.63439 0.0
C40 C 0.74743 0.08459 0.64308 0.0
O41 O 0.72013 0.09135 0.65711 0.0
N42 N 0.73356 0.17553 0.66099 0.0
C43 C 0.77216 0.16589 0.68734 0.0
C44 C 0.77408 0.16817 0.66809 0.0
C45 C 0.70753 0.17864 0.67649 0.0
N46 N 0.7303 0.17238 0.69267 0.0
O47 O 0.77652 0.2184 0.63316 0.0
H48 H 0.80339 0.16392 0.65968 0.0
H49 H 0.67261 0.18441 0.67614 0.0
O50 O 0.75752 0.1178 0.63212 0.0
C51 C 0.75578 0.25543 0.63548 0.0
O52 O 0.71349 0.25408 0.63898 0.0
N53 N 0.67283 0.14985 0.63459 0.0
C54 C 0.58832 0.12734 0.62422 0.0
C55 C 0.62418 0.10298 0.61751 0.0
C56 C 0.66599 0.11516 0.62257 0.0
C57 C 0.63826 0.17437 0.64106 0.0
C58 C 0.59532 0.16291 0.63644 0.0
H59 H 0.69265 0.09906 0.6153 0.0
H60 H 0.64396 0.2049 0.64862 0.0
H61 H 0.77023 0.14341 0.59508 0.0
H62 H 0.67488 0.22728 0.57094 0.0
H63 H 0.7997 0.1606 0.69671 0.0
H64 H 0.62011 0.07463 0.60827 0.0
H65 H 0.56806 0.18209 0.64193 0.0
C66 C 0.81127 0.69039 0.09838 0.0
C67 C 0.81632 0.6926 0.07919 0.0
N68 N 0.84051 0.72867 0.07507 0.0
N69 N 0.83268 0.72458 0.10641 0.0
C70 C 0.84967 0.74798 0.0918 0.0
H71 H 0.79439 0.66459 0.10611 0.0
Co72 Co 0.83769 0.73035 0.13251 0.0
C73 C 0.93089 0.75609 0.1405 0.0
O74 O 0.92606 0.72808 0.15456 0.0
N75 N 0.84083 0.73819 0.15921 0.0
C76 C 0.8532 0.77496 0.18602 0.0
C77 C 0.85294 0.77764 0.16672 0.0
C78 C 0.83066 0.71312 0.17453 0.0
N79 N 0.83918 0.73434 0.19088 0.0
O80 O 0.79423 0.77859 0.13168 0.0
H81 H 0.86153 0.80675 0.15859 0.0
H82 H 0.81626 0.68053 0.17404 0.0
O83 O 0.89687 0.76553 0.12998 0.0
C84 C 0.75866 0.75599 0.13428 0.0
O85 O 0.76244 0.71312 0.13737 0.0
N86 N 0.87177 0.67858 0.13263 0.0
C87 C 0.92381 0.6037 0.13323 0.0
C88 C 0.93305 0.63804 0.12066 0.0
C89 C 0.90608 0.67479 0.12031 0.0
C90 C 0.85856 0.64247 0.14272 0.0
C91 C 0.88536 0.60502 0.14395 0.0
H92 H 0.91391 0.70099 0.11051 0.0
H93 H 0.8271 0.64226 0.14957 0.0
H94 H 0.87003 0.77714 0.09343 0.0
H95 H 0.80372 0.66912 0.069 0.0
H96 H 0.86165 0.80125 0.19576 0.0
H97 H 0.96212 0.63766 0.11185 0.0
H98 H 0.87642 0.57772 0.15312 0.0
C99 C 0.31104 0.797 0.59975 0.0
C100 C 0.30721 0.79916 0.58053 0.0
N101 N 0.27981 0.83271 0.57628 0.0
N102 N 0.28584 0.82881 0.60764 0.0
C103 C 0.26711 0.85035 0.59291 0.0
H104 H 0.33093 0.77359 0.60756 0.0
Co105 Co 0.28151 0.83496 0.63373 0.0
C106 C 0.26287 0.92977 0.64202 0.0
O107 O 0.29157 0.92296 0.65553 0.0
N108 N 0.27514 0.83934 0.66036 0.0
C109 C 0.23603 0.84881 0.68654 0.0
C110 C 0.23526 0.85016 0.66733 0.0
C111 C 0.29958 0.83042 0.67594 0.0
N112 N 0.27629 0.8359 0.69207 0.0
O113 O 0.23049 0.79629 0.63324 0.0
H114 H 0.20692 0.85832 0.65883 0.0
H115 H 0.33298 0.81846 0.67559 0.0
O116 O 0.25135 0.89656 0.63138 0.0
C117 C 0.25066 0.75941 0.63672 0.0
O118 O 0.29269 0.76082 0.64075 0.0
N119 N 0.33553 0.8627 0.63322 0.0
C120 C 0.41997 0.88042 0.62088 0.0
C121 C 0.38458 0.90642 0.61477 0.0
C122 C 0.3428 0.8967 0.62085 0.0
C123 C 0.36958 0.83698 0.63933 0.0
C124 C 0.41242 0.84579 0.63359 0.0
H125 H 0.31624 0.91415 0.61409 0.0
H126 H 0.36336 0.80731 0.6474 0.0
H127 H 0.24441 0.87785 0.59432 0.0
H128 H 0.32332 0.77781 0.57038 0.0
H129 H 0.20867 0.85645 0.69571 0.0
H130 H 0.38891 0.93433 0.6053 0.0
H131 H 0.43922 0.82545 0.63874 0.0
C132 C 0.70296 0.18713 0.9214 0.0
C133 C 0.69739 0.19178 0.9405 0.0
N134 N 0.67276 0.22816 0.94355 0.0
N135 N 0.6814 0.22013 0.91246 0.0
C136 C 0.66358 0.24508 0.92638 0.0
H137 H 0.72051 0.16063 0.91438 0.0
Co138 Co 0.67767 0.22451 0.88627 0.0
C139 C 0.58471 0.24931 0.87699 0.0
O140 O 0.59141 0.22216 0.8628 0.0
N141 N 0.67566 0.23135 0.85953 0.0
C142 C 0.66744 0.27123 0.83323 0.0
C143 C 0.66902 0.27259 0.8525 0.0
C144 C 0.67957 0.20555 0.84388 0.0
N145 N 0.67395 0.22903 0.82777 0.0
O146 O 0.72055 0.27318 0.88714 0.0
H147 H 0.66478 0.30209 0.861 0.0
H148 H 0.68588 0.17036 0.84398 0.0
O149 O 0.61781 0.25915 0.88793 0.0
C150 C 0.75669 0.25078 0.88571 0.0
O151 O 0.75389 0.20758 0.88345 0.0
N152 N 0.64463 0.17246 0.88635 0.0
C153 C 0.59754 0.0945 0.88821 0.0
C154 C 0.58566 0.1306 0.89942 0.0
C155 C 0.60995 0.16896 0.89848 0.0
C156 C 0.66019 0.13559 0.8774 0.0
C157 C 0.63582 0.0964 0.87739 0.0
H158 H 0.60035 0.1961 0.90749 0.0
H159 H 0.69173 0.13631 0.87052 0.0
H160 H 0.64306 0.27392 0.92399 0.0
H161 H 0.70977 0.16979 0.95135 0.0
H162 H 0.6626 0.29935 0.82395 0.0
H163 H 0.55645 0.13009 0.90815 0.0
H164 H 0.64643 0.06825 0.86905 0.0
C165 C 0.81536 0.7125 0.41614 0.0
C166 C 0.81839 0.70698 0.43527 0.0
N167 N 0.79036 0.67473 0.44047 0.0
N168 N 0.78593 0.68354 0.40918 0.0
C169 C 0.77057 0.66121 0.42442 0.0
H170 H 0.83457 0.73514 0.40767 0.0
Co171 Co 0.77792 0.67773 0.38324 0.0
C172 C 0.75678 0.58251 0.37545 0.0
O173 O 0.78329 0.58895 0.36111 0.0
N174 N 0.76836 0.67343 0.35685 0.0
C175 C 0.72783 0.66308 0.33122 0.0
C176 C 0.72777 0.66397 0.35047 0.0
C177 C 0.79247 0.67934 0.34094 0.0
N178 N 0.76846 0.67313 0.32506 0.0
O179 O 0.72782 0.71834 0.38512 0.0
H180 H 0.6997 0.65756 0.35939 0.0
H181 H 0.82656 0.68881 0.34088 0.0
O182 O 0.74706 0.61612 0.38631 0.0
C183 C 0.74628 0.75539 0.38036 0.0
O184 O 0.78681 0.75396 0.37409 0.0
N185 N 0.83141 0.64872 0.38236 0.0
C186 C 0.91655 0.63034 0.39335 0.0
C187 C 0.88182 0.60396 0.39966 0.0
C188 C 0.83964 0.61409 0.39431 0.0
C189 C 0.86502 0.6744 0.37583 0.0
C190 C 0.90829 0.66514 0.38084 0.0
H191 H 0.81378 0.59684 0.40157 0.0
H192 H 0.85816 0.70466 0.36824 0.0
H193 H 0.74718 0.63426 0.42368 0.0
H194 H 0.84 0.72489 0.44467 0.0
H195 H 0.6997 0.6554 0.32257 0.0
H196 H 0.887 0.57593 0.40901 0.0
H197 H 0.93474 0.68566 0.37556 0.0
C198 C 0.30682 0.72358 0.91556 0.0
C199 C 0.31042 0.71461 0.93439 0.0
N200 N 0.34503 0.73705 0.94112 0.0
N201 N 0.33737 0.75366 0.91025 0.0
C202 C 0.36171 0.75919 0.92616 0.0
H203 H 0.28382 0.70765 0.90617 0.0
Co204 Co 0.34569 0.76752 0.88425 0.0
C205 C 0.43692 0.80329 0.88261 0.0
O206 O 0.42169 0.83516 0.87177 0.0
N207 N 0.35614 0.77373 0.85779 0.0
C208 C 0.39401 0.75786 0.83161 0.0
C209 C 0.39163 0.75235 0.85069 0.0
C210 C 0.33549 0.7891 0.84206 0.0
N211 N 0.35873 0.78111 0.8261 0.0
O212 O 0.27993 0.76391 0.87994 0.0
H213 H 0.41408 0.73223 0.85883 0.0
H214 H 0.3032 0.80371 0.84187 0.0
O215 O 0.41094 0.77278 0.88873 0.0
C216 C 0.2509 0.78271 0.89058 0.0
O217 O 0.26388 0.80555 0.90534 0.0
N218 N 0.33898 0.83063 0.88802 0.0
C219 C 0.34009 0.92303 0.88987 0.0
C220 C 0.36177 0.89743 0.90347 0.0
C221 C 0.36113 0.85158 0.90215 0.0
C222 C 0.31266 0.85543 0.87639 0.0
C223 C 0.31315 0.90165 0.87689 0.0
H224 H 0.38275 0.83401 0.9113 0.0
H225 H 0.29119 0.84006 0.86644 0.0
H226 H 0.39305 0.77576 0.92669 0.0
H227 H 0.28934 0.69279 0.94244 0.0
H228 H 0.41866 0.74376 0.82237 0.0
H229 H 0.3838 0.91228 0.91364 0.0
H230 H 0.29525 0.92036 0.86634 0.0
C231 C 0.1897 0.30815 0.41452 0.0
C232 C 0.18764 0.31204 0.43377 0.0
N233 N 0.21966 0.33972 0.43936 0.0
N234 N 0.22255 0.33371 0.40788 0.0
C235 C 0.24073 0.35219 0.42345 0.0
H236 H 0.16708 0.28976 0.4058 0.0
Co237 Co 0.22971 0.34528 0.38208 0.0
C238 C 0.28942 0.4345 0.3917 0.0
O239 O 0.32992 0.42793 0.3974 0.0
N240 N 0.23606 0.35717 0.3559 0.0
C241 C 0.24615 0.39334 0.32878 0.0
C242 C 0.25278 0.39428 0.34788 0.0
C243 C 0.22011 0.33379 0.34107 0.0
N244 N 0.22554 0.35534 0.32449 0.0
O245 O 0.27707 0.30053 0.38154 0.0
H246 H 0.26834 0.42124 0.35518 0.0
H247 H 0.20314 0.30244 0.34241 0.0
O248 O 0.26613 0.39978 0.38795 0.0
C249 C 0.25636 0.26376 0.37844 0.0
O250 O 0.21427 0.26622 0.37469 0.0
N251 N 0.18002 0.37886 0.38288 0.0
C252 C 0.09684 0.39508 0.39668 0.0
C253 C 0.13254 0.4212 0.40245 0.0
C254 C 0.17401 0.41225 0.39554 0.0
C255 C 0.14542 0.35517 0.3761 0.0
C256 C 0.10333 0.36258 0.38292 0.0
H257 H 0.20124 0.42902 0.402 0.0
H258 H 0.15103 0.3272 0.36691 0.0
H259 H 0.26695 0.37633 0.42314 0.0
H260 H 0.16369 0.29665 0.44296 0.0
H261 H 0.25589 0.41867 0.31879 0.0
H262 H 0.12879 0.44808 0.41246 0.0
H263 H 0.07636 0.34254 0.37782 0.0
C264 C 0.80002 0.72795 0.91694 0.0
C265 C 0.80601 0.72851 0.93609 0.0
N266 N 0.83979 0.75561 0.93991 0.0
N267 N 0.83001 0.75445 0.90867 0.0
C268 C 0.85407 0.77101 0.9231 0.0
H269 H 0.77565 0.70885 0.90943 0.0
Co270 Co 0.83169 0.76124 0.88257 0.0
C271 C 0.92321 0.78322 0.87167 0.0
O272 O 0.91553 0.75707 0.85725 0.0
N273 N 0.83168 0.76915 0.85566 0.0
C274 C 0.83956 0.80624 0.82862 0.0
C275 C 0.8386 0.80959 0.8479 0.0
C276 C 0.82702 0.74197 0.84048 0.0
N277 N 0.83246 0.76361 0.82395 0.0
O278 O 0.79625 0.81405 0.88483 0.0
H279 H 0.84407 0.83967 0.85587 0.0
H280 H 0.82092 0.70684 0.84119 0.0
O281 O 0.89189 0.7912 0.88362 0.0
C282 C 0.75886 0.79594 0.88161 0.0
O283 O 0.7576 0.75323 0.87787 0.0
N284 N 0.85852 0.70666 0.88112 0.0
C285 C 0.89774 0.62843 0.87186 0.0
C286 C 0.91927 0.65785 0.88396 0.0
C287 C 0.89814 0.69676 0.88899 0.0
C288 C 0.83372 0.6739 0.87337 0.0
C289 C 0.85332 0.63439 0.86789 0.0
H290 H 0.91481 0.72007 0.89805 0.0
H291 H 0.79978 0.6801 0.86983 0.0
H292 H 0.88174 0.79311 0.92135 0.0
H293 H 0.78744 0.70999 0.94646 0.0
H294 H 0.84498 0.83321 0.8188 0.0
H295 H 0.95285 0.65218 0.8884 0.0
H296 H 0.83519 0.6108 0.85942 0.0
C297 C 0.32333 0.81196 0.4157 0.0
C298 C 0.32288 0.81519 0.43503 0.0
N299 N 0.28705 0.83839 0.44007 0.0
N300 N 0.28821 0.83363 0.40859 0.0
C301 C 0.26622 0.84881 0.42389 0.0
H302 H 0.34845 0.79605 0.40732 0.0
Co303 Co 0.27903 0.84487 0.38292 0.0
C304 C 0.22154 0.93519 0.39362 0.0
O305 O 0.18211 0.92973 0.40072 0.0
N306 N 0.27 0.85682 0.35689 0.0
C307 C 0.25195 0.8916 0.33023 0.0
C308 C 0.24623 0.89047 0.34938 0.0
C309 C 0.28889 0.83718 0.3417 0.0
N310 N 0.2789 0.85819 0.32539 0.0
O311 O 0.23144 0.80074 0.38328 0.0
H312 H 0.22594 0.91351 0.35704 0.0
H313 H 0.31053 0.80874 0.34254 0.0
O314 O 0.24374 0.89987 0.38948 0.0
C315 C 0.25202 0.76408 0.37962 0.0
O316 O 0.29356 0.76679 0.37489 0.0
N317 N 0.32918 0.87772 0.38277 0.0
C318 C 0.4138 0.89398 0.3947 0.0
C319 C 0.37883 0.92082 0.40088 0.0
C320 C 0.33662 0.91184 0.39492 0.0
C321 C 0.36301 0.8531 0.37572 0.0
C322 C 0.40578 0.86061 0.38155 0.0
H323 H 0.31019 0.92937 0.40167 0.0
H324 H 0.35652 0.8243 0.36719 0.0
H325 H 0.23634 0.86819 0.42325 0.0
H326 H 0.347 0.80173 0.44469 0.0
H327 H 0.23698 0.91496 0.32055 0.0
H328 H 0.38379 0.94834 0.41046 0.0
H329 H 0.43216 0.84005 0.37615 0.0
C330 C 0.20357 0.32649 0.91745 0.0
C331 C 0.19768 0.32734 0.93659 0.0
N332 N 0.17149 0.29322 0.94145 0.0
N333 N 0.18108 0.29212 0.91016 0.0
C334 C 0.16211 0.27198 0.92515 0.0
H335 H 0.22268 0.3498 0.90927 0.0
Co336 Co 0.17924 0.2809 0.88444 0.0
C337 C 0.08566 0.25636 0.87544 0.0
O338 O 0.09329 0.27943 0.86007 0.0
N339 N 0.17863 0.26826 0.858 0.0
C340 C 0.16657 0.2287 0.83188 0.0
C341 C 0.16779 0.2277 0.85126 0.0
C342 C 0.18645 0.29253 0.84219 0.0
N343 N 0.17832 0.26957 0.82625 0.0
O344 O 0.22004 0.23105 0.88797 0.0
H345 H 0.15971 0.1994 0.85999 0.0
H346 H 0.19758 0.32642 0.84197 0.0
O347 O 0.11816 0.24924 0.88707 0.0
C348 C 0.25664 0.25226 0.88576 0.0
O349 O 0.25472 0.29472 0.8816 0.0
N350 N 0.14952 0.33375 0.8815 0.0
C351 C 0.10579 0.40851 0.87081 0.0
C352 C 0.08717 0.3805 0.88436 0.0
C353 C 0.1107 0.34364 0.89013 0.0
C354 C 0.17181 0.36604 0.87213 0.0
C355 C 0.14983 0.40357 0.86588 0.0
H356 H 0.09653 0.32166 0.90051 0.0
H357 H 0.20596 0.36137 0.86858 0.0
H358 H 0.14124 0.24304 0.92412 0.0
H359 H 0.21198 0.35105 0.94624 0.0
H360 H 0.15827 0.20142 0.82263 0.0
H361 H 0.05417 0.3858 0.88961 0.0
H362 H 0.16603 0.42663 0.85645 0.0
C363 C 0.67958 0.20361 0.41663 0.0
C364 C 0.68154 0.20195 0.43598 0.0
N365 N 0.71833 0.1801 0.44082 0.0
N366 N 0.71508 0.18287 0.40936 0.0
C367 C 0.73834 0.16918 0.42454 0.0
H368 H 0.65372 0.21869 0.40838 0.0
Co369 Co 0.72671 0.17368 0.3837 0.0
C370 C 0.78082 0.08293 0.39533 0.0
O371 O 0.81803 0.09067 0.40405 0.0
N372 N 0.73881 0.16368 0.35786 0.0
C373 C 0.76301 0.13248 0.33141 0.0
C374 C 0.76501 0.13167 0.35067 0.0
C375 C 0.72218 0.18434 0.34243 0.0
N376 N 0.73596 0.1656 0.32608 0.0
O377 O 0.77623 0.21458 0.38559 0.0
H378 H 0.78451 0.10848 0.35866 0.0
H379 H 0.70055 0.21273 0.34317 0.0
O380 O 0.75723 0.11637 0.39025 0.0
C381 C 0.75525 0.25154 0.38316 0.0
O382 O 0.71308 0.2497 0.37954 0.0
N383 N 0.67483 0.1439 0.38172 0.0
C384 C 0.58781 0.12855 0.3897 0.0
C385 C 0.62042 0.09967 0.3965 0.0
C386 C 0.66398 0.10819 0.39253 0.0
C387 C 0.64324 0.17037 0.37393 0.0
C388 C 0.59917 0.16307 0.37765 0.0
H389 H 0.68841 0.08858 0.39967 0.0
H390 H 0.65212 0.20004 0.3664 0.0
H391 H 0.76943 0.15193 0.42376 0.0
H392 H 0.65791 0.2157 0.44578 0.0
H393 H 0.77978 0.10953 0.32216 0.0
H394 H 0.61242 0.07122 0.40522 0.0
H395 H 0.57445 0.18497 0.37176 0.0
C396 C 0.31422 0.82498 0.0983 0.0
C397 C 0.32241 0.82263 0.07932 0.0
N398 N 0.34714 0.78641 0.07609 0.0
N399 N 0.33432 0.79073 0.10705 0.0
C400 C 0.35359 0.76718 0.09306 0.0
H401 H 0.29599 0.85086 0.10541 0.0
Co402 Co 0.3365 0.78456 0.13322 0.0
C403 C 0.42946 0.76075 0.14298 0.0
O404 O 0.42213 0.78758 0.15722 0.0
N405 N 0.3373 0.77639 0.15977 0.0
C406 C 0.34291 0.73473 0.18557 0.0
C407 C 0.3445 0.73492 0.16634 0.0
C408 C 0.33041 0.80092 0.17559 0.0
N409 N 0.33368 0.77613 0.19151 0.0
O410 O 0.2945 0.73543 0.13139 0.0
H411 H 0.35093 0.7063 0.15756 0.0
H412 H 0.32216 0.83577 0.17562 0.0
O413 O 0.3969 0.75113 0.13174 0.0
C414 C 0.2586 0.75823 0.13302 0.0
O415 O 0.26186 0.80123 0.13576 0.0
N416 N 0.36726 0.83733 0.13407 0.0
C417 C 0.39404 0.92217 0.12486 0.0
C418 C 0.41666 0.8853 0.11789 0.0
C419 C 0.40242 0.84336 0.1224 0.0
C420 C 0.34436 0.87298 0.14075 0.0
C421 C 0.35794 0.91609 0.1367 0.0
H422 H 0.41738 0.81615 0.11493 0.0
H423 H 0.31353 0.86821 0.14793 0.0
H424 H 0.3732 0.73763 0.09531 0.0
H425 H 0.31119 0.84574 0.06865 0.0
H426 H 0.3484 0.70605 0.19446 0.0
H427 H 0.44524 0.88869 0.1089 0.0
H428 H 0.34001 0.94421 0.14231 0.0
C429 C 0.18998 0.30604 0.59904 0.0
C430 C 0.18986 0.31199 0.57989 0.0
N431 N 0.22178 0.34093 0.57547 0.0
N432 N 0.22147 0.33158 0.60677 0.0
C433 C 0.24086 0.35226 0.59196 0.0
H434 H 0.16722 0.28583 0.60698 0.0
Co435 Co 0.22753 0.33657 0.63294 0.0
C436 C 0.24982 0.43046 0.64143 0.0
O437 O 0.22192 0.42443 0.65532 0.0
N438 N 0.23552 0.33971 0.65956 0.0
C439 C 0.27631 0.34913 0.68521 0.0
C440 C 0.27604 0.34937 0.666 0.0
C441 C 0.21185 0.33209 0.6755 0.0
N442 N 0.23606 0.33778 0.6914 0.0
O443 O 0.27716 0.29616 0.63172 0.0
H444 H 0.30403 0.35655 0.65714 0.0
H445 H 0.17811 0.32144 0.67558 0.0
O446 O 0.25978 0.39703 0.63058 0.0
C447 C 0.25599 0.25957 0.63431 0.0
O448 O 0.2137 0.26172 0.6378 0.0
N449 N 0.17467 0.36717 0.63323 0.0
C450 C 0.09103 0.3951 0.62388 0.0
C451 C 0.12767 0.41616 0.61621 0.0
C452 C 0.16892 0.40148 0.62086 0.0
C453 C 0.13924 0.34551 0.64054 0.0
C454 C 0.09671 0.3599 0.63648 0.0
H455 H 0.19591 0.41566 0.61316 0.0
H456 H 0.14364 0.31518 0.6484 0.0
H457 H 0.26661 0.37675 0.59331 0.0
H458 H 0.1673 0.29714 0.56996 0.0
H459 H 0.30455 0.35679 0.69379 0.0
H460 H 0.12461 0.44416 0.60667 0.0
H461 H 0.06873 0.34333 0.64273 0.0
C462 C 0.70009 0.2189 0.10221 0.0
C463 C 0.69482 0.2189 0.08304 0.0
N464 N 0.66441 0.24953 0.07866 0.0
N465 N 0.67273 0.24907 0.10998 0.0
C466 C 0.65144 0.26769 0.09517 0.0
H467 H 0.72175 0.19731 0.11008 0.0
Co468 Co 0.66792 0.25494 0.13618 0.0
C469 C 0.57467 0.27496 0.14505 0.0
O470 O 0.58116 0.24759 0.1592 0.0
N471 N 0.66488 0.26177 0.16279 0.0
C472 C 0.65623 0.29843 0.1898 0.0
C473 C 0.65632 0.30185 0.17055 0.0
C474 C 0.67084 0.23457 0.17785 0.0
N475 N 0.66538 0.2561 0.19443 0.0
O476 O 0.70362 0.30778 0.13491 0.0
H477 H 0.6502 0.33189 0.1626 0.0
H478 H 0.67859 0.19969 0.17693 0.0
O479 O 0.60731 0.28458 0.13401 0.0
C480 C 0.74117 0.28893 0.13734 0.0
O481 O 0.74239 0.24601 0.14058 0.0
N482 N 0.64189 0.1997 0.13654 0.0
C483 C 0.62784 0.11373 0.12434 0.0
C484 C 0.59899 0.14789 0.11919 0.0
C485 C 0.60693 0.19065 0.12516 0.0
C486 C 0.66999 0.16664 0.14187 0.0
C487 C 0.66309 0.12301 0.1362 0.0
H488 H 0.58755 0.21658 0.11883 0.0
H489 H 0.7002 0.17451 0.14901 0.0
H490 H 0.62623 0.29288 0.09647 0.0
H491 H 0.7117 0.19779 0.07302 0.0
H492 H 0.65093 0.32534 0.19965 0.0
H493 H 0.57063 0.14184 0.11035 0.0
H494 H 0.68561 0.09708 0.14056 0.0
C495 C 0.80988 0.71587 0.59976 0.0
C496 C 0.81133 0.70966 0.58066 0.0
N497 N 0.7852 0.67526 0.57633 0.0
N498 N 0.78328 0.68524 0.60759 0.0
C499 C 0.76821 0.66096 0.59286 0.0
H500 H 0.82874 0.73996 0.6076 0.0
Co501 Co 0.77885 0.67986 0.63379 0.0
C502 C 0.76049 0.58511 0.64256 0.0
O503 O 0.78889 0.59211 0.65614 0.0
N504 N 0.77301 0.67602 0.66044 0.0
C505 C 0.73677 0.6652 0.68731 0.0
C506 C 0.73349 0.66653 0.66808 0.0
C507 C 0.79973 0.68152 0.67557 0.0
N508 N 0.77841 0.67463 0.69207 0.0
O509 O 0.7274 0.71829 0.63314 0.0
H510 H 0.70393 0.66055 0.66006 0.0
H511 H 0.83404 0.69004 0.67471 0.0
O512 O 0.74917 0.61816 0.63174 0.0
C513 C 0.74721 0.75553 0.63613 0.0
O514 O 0.7893 0.75468 0.64001 0.0
N515 N 0.83326 0.65268 0.63346 0.0
C516 C 0.91754 0.63873 0.62002 0.0
C517 C 0.8834 0.60989 0.61511 0.0
C518 C 0.84155 0.61779 0.62168 0.0
C519 C 0.86629 0.68059 0.63868 0.0
C520 C 0.90898 0.67388 0.63231 0.0
H521 H 0.81559 0.59841 0.61557 0.0
H522 H 0.85907 0.7106 0.64636 0.0
H523 H 0.74744 0.63203 0.5943 0.0
H524 H 0.83112 0.72811 0.57069 0.0
H525 H 0.71016 0.659 0.69708 0.0
H526 H 0.88865 0.58147 0.60601 0.0
H527 H 0.93477 0.69647 0.63654 0.0
H528 H 0.14653 0.34657 0.20696 0.0
H529 H 0.22728 0.27209 0.3102 0.0
H530 H 0.19378 0.2158 0.22106 0.0
H531 H 0.19433 0.40747 0.29636 0.0
H532 H 0.21067 0.25049 0.27772 0.0
H533 H 0.16071 0.37019 0.2397 0.0
C534 C 0.16036 0.32312 0.21691 0.0
C535 C 0.16891 0.27919 0.21143 0.0
C536 C 0.20683 0.28495 0.28177 0.0
C537 C 0.18495 0.30549 0.24866 0.0
C538 C 0.216 0.2971 0.30035 0.0
C539 C 0.21238 0.34155 0.3059 0.0
C540 C 0.19347 0.31742 0.26867 0.0
C541 C 0.1981 0.3729 0.29252 0.0
C542 C 0.16819 0.3364 0.23556 0.0
C543 C 0.18628 0.24979 0.22484 0.0
N544 N 0.18915 0.36027 0.27453 0.0
N545 N 0.19369 0.26341 0.24276 0.0
H546 H 0.72228 0.16056 0.81372 0.0
H547 H 0.66213 0.22073 0.70664 0.0
H548 H 0.62948 0.26221 0.79782 0.0
H549 H 0.76282 0.12717 0.72262 0.0
H550 H 0.6422 0.22886 0.73993 0.0
H551 H 0.73021 0.14042 0.78043 0.0
C552 C 0.70316 0.17823 0.80326 0.0
C553 C 0.67569 0.21354 0.80854 0.0
C554 C 0.66846 0.20629 0.73613 0.0
C555 C 0.68473 0.19097 0.77041 0.0
C556 C 0.67963 0.20146 0.71711 0.0
C557 C 0.71464 0.17378 0.71186 0.0
C558 C 0.69235 0.1831 0.74998 0.0
C559 C 0.7363 0.14969 0.72606 0.0
C560 C 0.70785 0.16693 0.78425 0.0
C561 C 0.6518 0.23545 0.79435 0.0
N562 N 0.72505 0.15514 0.74444 0.0
N563 N 0.65708 0.22403 0.77597 0.0
H564 H 0.85209 0.67905 0.31076 0.0
H565 H 0.76888 0.68926 0.20388 0.0
H566 H 0.71557 0.67904 0.29414 0.0
H567 H 0.893 0.74442 0.22082 0.0
H568 H 0.75392 0.66959 0.23683 0.0
H569 H 0.87243 0.68923 0.27759 0.0
C570 C 0.82633 0.68112 0.30033 0.0
C571 C 0.78185 0.6781 0.30556 0.0
C572 C 0.78465 0.68562 0.23332 0.0
C573 C 0.80519 0.68878 0.26752 0.0
C574 C 0.79322 0.69651 0.21455 0.0
C575 C 0.832 0.71867 0.20978 0.0
C576 C 0.81542 0.69635 0.24735 0.0
C577 C 0.86248 0.72779 0.22409 0.0
C578 C 0.83807 0.68675 0.28136 0.0
C579 C 0.75023 0.68043 0.29112 0.0
N580 N 0.85359 0.7166 0.24228 0.0
N581 N 0.76252 0.68552 0.27289 0.0
H582 H 0.4151 0.79771 0.79742 0.0
H583 H 0.22328 0.81262 0.7211 0.0
H584 H 0.2773 0.78849 0.81071 0.0
H585 H 0.35885 0.83798 0.70718 0.0
H586 H 0.24375 0.80162 0.75372 0.0
H587 H 0.39638 0.81076 0.76436 0.0
C588 C 0.38086 0.79842 0.79337 0.0
C589 C 0.34767 0.79177 0.80686 0.0
C590 C 0.26915 0.8097 0.74361 0.0
C591 C 0.32605 0.80684 0.76902 0.0
C592 C 0.25744 0.81628 0.72489 0.0
C593 C 0.28927 0.82699 0.71129 0.0
C594 C 0.3132 0.81345 0.749 0.0
C595 C 0.33322 0.82973 0.71713 0.0
C596 C 0.37024 0.80605 0.77451 0.0
C597 C 0.30391 0.7938 0.80088 0.0
N598 N 0.34391 0.82311 0.73559 0.0
N599 N 0.29441 0.80089 0.7824 0.0
H600 H 0.87665 0.79333 0.79324 0.0
H601 H 0.75187 0.62949 0.72304 0.0
H602 H 0.78694 0.69149 0.81165 0.0
H603 H 0.84155 0.73115 0.70452 0.0
H604 H 0.77104 0.64581 0.7557 0.0
H605 H 0.87054 0.76572 0.76102 0.0
C606 C 0.85559 0.76518 0.79051 0.0
C607 C 0.83163 0.74526 0.80516 0.0
C608 C 0.7869 0.66432 0.74453 0.0
C609 C 0.82478 0.71309 0.76821 0.0
C610 C 0.77586 0.65509 0.72587 0.0
C611 C 0.79459 0.67954 0.71104 0.0
C612 C 0.81676 0.69848 0.74848 0.0
C613 C 0.82628 0.71158 0.7155 0.0
C614 C 0.85237 0.7492 0.7721 0.0
C615 C 0.80591 0.70799 0.80083 0.0
N616 N 0.83594 0.72053 0.73383 0.0
N617 N 0.8028 0.69343 0.78273 0.0
H618 H 0.2968 0.91594 0.29713 0.0
H619 H 0.30887 0.72324 0.22054 0.0
H620 H 0.29262 0.77642 0.31059 0.0
H621 H 0.34248 0.85886 0.2071 0.0
H622 H 0.30094 0.74361 0.25334 0.0
H623 H 0.31284 0.89727 0.26421 0.0
C624 C 0.29942 0.88135 0.29312 0.0
C625 C 0.29292 0.84758 0.30653 0.0
C626 C 0.31031 0.769 0.2433 0.0
C627 C 0.31096 0.82602 0.26893 0.0
C628 C 0.31506 0.75735 0.22445 0.0
C629 C 0.32701 0.7892 0.21091 0.0
C630 C 0.31699 0.81309 0.24887 0.0
C631 C 0.33308 0.8332 0.21698 0.0
C632 C 0.30871 0.87075 0.27437 0.0
C633 C 0.29748 0.80339 0.30072 0.0
N634 N 0.32796 0.84389 0.23554 0.0
N635 N 0.30573 0.79389 0.28232 0.0
H636 H 0.15329 0.32743 0.70635 0.0
H637 H 0.2429 0.32102 0.81221 0.0
H638 H 0.29046 0.33205 0.72186 0.0
H639 H 0.12374 0.25343 0.79687 0.0
H640 H 0.25329 0.34233 0.77919 0.0
H641 H 0.135 0.31499 0.73971 0.0
C642 C 0.17958 0.32595 0.71656 0.0
C643 C 0.22365 0.33105 0.71096 0.0
C644 C 0.22465 0.32312 0.78306 0.0
C645 C 0.20264 0.31783 0.74914 0.0
C646 C 0.21867 0.31119 0.80188 0.0
C647 C 0.18279 0.28501 0.80714 0.0
C648 C 0.19413 0.3094 0.76941 0.0
C649 C 0.15227 0.27297 0.79322 0.0
C650 C 0.169 0.319 0.73561 0.0
C651 C 0.25601 0.32924 0.72511 0.0
N652 N 0.1586 0.28524 0.77493 0.0
N653 N 0.24483 0.32297 0.74339 0.0
H654 H 0.77623 0.13909 0.29359 0.0
H655 H 0.62394 0.28421 0.22606 0.0
H656 H 0.668 0.21843 0.3142 0.0
H657 H 0.71887 0.18896 0.20595 0.0
H658 H 0.63869 0.26031 0.25837 0.0
H659 H 0.75501 0.15685 0.26161 0.0
C660 C 0.7478 0.16003 0.29155 0.0
C661 C 0.72395 0.17707 0.30693 0.0
C662 C 0.65609 0.2444 0.2469 0.0
C663 C 0.69982 0.1983 0.2698 0.0
C664 C 0.64784 0.25817 0.22845 0.0
C665 C 0.67061 0.23893 0.21328 0.0
C666 C 0.68761 0.21131 0.25028 0.0
C667 C 0.7005 0.20464 0.21717 0.0
C668 C 0.73578 0.17029 0.27311 0.0
C669 C 0.68786 0.20479 0.30298 0.0
N670 N 0.70844 0.19224 0.2353 0.0
N671 N 0.67703 0.21464 0.28483 0.0
H672 H 0.1373 0.16542 0.04904 0.0
H673 H 0.1529 0.3515 0.9691 0.0
H674 H 0.14966 0.30627 0.05978 0.0
H675 H 0.15835 0.2114 0.95693 0.0
H676 H 0.14023 0.33456 1.00222 0.0
H677 H 0.13515 0.18092 0.01545 0.0
C678 C 0.13967 0.19961 0.04455 0.0
C679 C 0.14448 0.23443 0.05765 0.0
C680 C 0.14391 0.30738 0.99236 0.0
C681 C 0.14109 0.25227 0.01879 0.0
C682 C 0.15122 0.31707 0.97344 0.0
C683 C 0.15757 0.28281 0.96034 0.0
C684 C 0.14313 0.26299 0.99837 0.0
C685 C 0.15384 0.23875 0.96662 0.0
C686 C 0.13813 0.20835 0.02522 0.0
C687 C 0.14618 0.27802 0.05055 0.0
N688 N 0.14742 0.23003 0.98528 0.0
N689 N 0.1447 0.28555 0.03168 0.0
H690 H 0.70995 0.10536 0.46152 0.0
H691 H 0.7709 0.23789 0.55525 0.0
H692 H 0.75921 0.23898 0.46286 0.0
H693 H 0.71576 0.10664 0.55607 0.0
H694 H 0.78107 0.23208 0.52114 0.0
H695 H 0.72466 0.09843 0.49558 0.0
C696 C 0.72485 0.13276 0.46902 0.0
C697 C 0.73357 0.17276 0.45966 0.0
C698 C 0.76761 0.204 0.52872 0.0
C699 C 0.74994 0.16564 0.49829 0.0
C700 C 0.76226 0.20728 0.54817 0.0
C701 C 0.74297 0.17257 0.55828 0.0
C702 C 0.75263 0.16598 0.51923 0.0
C703 C 0.73129 0.13379 0.54863 0.0
C704 C 0.73307 0.12898 0.48838 0.0
C705 C 0.75228 0.20769 0.46976 0.0
N706 N 0.73568 0.13172 0.52952 0.0
N707 N 0.75955 0.20347 0.48856 0.0
H708 H 0.89465 0.70124 0.95825 0.0
H709 H 0.83556 0.80957 0.0582 0.0
H710 H 0.82184 0.82293 0.96375 0.0
H711 H 0.87815 0.67471 0.04966 0.0
H712 H 0.84836 0.82462 0.02442 0.0
H713 H 0.90802 0.70134 0.99232 0.0
C714 C 0.88289 0.7288 0.96667 0.0
C715 C 0.85768 0.76236 0.95836 0.0
C716 C 0.85565 0.79198 0.03004 0.0
C717 C 0.87114 0.76215 0.99733 0.0
C718 C 0.8486 0.78356 0.04927 0.0
C719 C 0.85536 0.74074 0.05652 0.0
C720 C 0.87008 0.7574 0.0182 0.0
C721 C 0.87204 0.70796 0.04447 0.0
C722 C 0.89002 0.72871 0.98609 0.0
C723 C 0.84199 0.79689 0.96977 0.0
N724 N 0.87853 0.71685 0.02592 0.0
N725 N 0.84846 0.79567 0.98877 0.0
H726 H 0.22045 0.80246 0.45955 0.0
H727 H 0.30007 0.90803 0.55748 0.0
H728 H 0.32608 0.89641 0.46355 0.0
H729 H 0.23308 0.78308 0.55239 0.0
H730 H 0.29273 0.91901 0.52313 0.0
H731 H 0.20768 0.80995 0.49363 0.0
C732 C 0.24007 0.82555 0.46763 0.0
C733 C 0.27425 0.84883 0.45899 0.0
C734 C 0.27873 0.88971 0.52962 0.0
C735 C 0.26034 0.85756 0.49772 0.0
C736 C 0.28255 0.88374 0.54914 0.0
C737 C 0.26684 0.84477 0.55755 0.0
C738 C 0.25875 0.85653 0.51863 0.0
C739 C 0.24523 0.81363 0.54628 0.0
C740 C 0.23307 0.82968 0.48701 0.0
C741 C 0.29946 0.87795 0.46991 0.0
N742 N 0.24201 0.82001 0.52739 0.0
N743 N 0.2922 0.88138 0.48879 0.0
H744 H 0.68525 0.31984 0.05702 0.0
H745 H 0.61184 0.18774 0.96466 0.0
H746 H 0.61314 0.19733 0.05749 0.0
H747 H 0.70009 0.29889 0.96364 0.0
H748 H 0.59687 0.20204 0.99809 0.0
H749 H 0.67635 0.32387 0.02257 0.0
C750 C 0.66611 0.29476 0.04985 0.0
C751 C 0.64939 0.25853 0.05991 0.0
C752 C 0.61892 0.22392 0.99055 0.0
C753 C 0.63997 0.26198 0.02073 0.0
C754 C 0.62714 0.21587 0.9715 0.0
C755 C 0.65698 0.24235 0.9616 0.0
C756 C 0.64139 0.25829 0.99982 0.0
C757 C 0.67656 0.27815 0.97092 0.0
C758 C 0.66142 0.2967 0.03024 0.0
C759 C 0.62595 0.22599 0.0501 0.0
N760 N 0.66893 0.28476 0.98963 0.0
N761 N 0.62225 0.22824 0.03104 0.0
H762 H 0.85122 0.64214 0.55583 0.0
H763 H 0.71495 0.65901 0.45986 0.0
H764 H 0.71226 0.6671 0.55476 0.0
H765 H 0.85572 0.65279 0.46406 0.0
H766 H 0.70971 0.6444 0.49404 0.0
H767 H 0.84973 0.62701 0.52202 0.0
C768 C 0.82016 0.64325 0.54842 0.0
C769 C 0.78187 0.65591 0.55791 0.0
C770 C 0.74168 0.64543 0.48739 0.0
C771 C 0.7798 0.6402 0.51909 0.0
C772 C 0.7446 0.65347 0.46793 0.0
C773 C 0.78584 0.65766 0.45932 0.0
C774 C 0.78034 0.64115 0.49811 0.0
C775 C 0.82338 0.65044 0.47029 0.0
C776 C 0.81925 0.63496 0.52912 0.0
C777 C 0.74235 0.65721 0.54782 0.0
N778 N 0.81975 0.64295 0.48908 0.0
N779 N 0.74239 0.65027 0.52882 0.0
H780 H 0.39567 0.83421 0.05187 0.0
H781 H 0.33571 0.6718 0.96718 0.0
H782 H 0.33203 0.70794 0.05899 0.0
H783 H 0.38767 0.80368 0.95938 0.0
H784 H 0.34866 0.67812 1.00094 0.0
H785 H 0.40843 0.8168 0.01853 0.0
C786 C 0.38521 0.80241 0.04637 0.0
C787 C 0.36267 0.77245 0.05796 0.0
C788 C 0.35777 0.70551 0.99186 0.0
C789 C 0.37583 0.75272 0.01992 0.0
C790 C 0.35018 0.70202 0.97255 0.0
C791 C 0.35965 0.73767 0.96045 0.0
C792 C 0.37488 0.74506 0.99924 0.0
C793 C 0.37961 0.77549 0.96818 0.0
C794 C 0.39227 0.79252 0.02739 0.0
C795 C 0.34975 0.73163 0.05041 0.0
N796 N 0.38596 0.77846 0.98713 0.0
N797 N 0.35584 0.72322 0.03175 0.0
H798 H 0.16411 0.38696 0.55476 0.0
H799 H 0.29599 0.34254 0.45901 0.0
H800 H 0.29471 0.33267 0.55389 0.0
H801 H 0.15787 0.37122 0.46287 0.0
H802 H 0.30299 0.35636 0.49318 0.0
H803 H 0.16877 0.40053 0.52083 0.0
C804 C 0.19423 0.37901 0.54737 0.0
C805 C 0.22902 0.35868 0.55695 0.0
C806 C 0.27133 0.36037 0.48646 0.0
C807 C 0.23434 0.37255 0.51805 0.0
C808 C 0.26744 0.35272 0.46702 0.0
C809 C 0.2262 0.35517 0.45833 0.0
C810 C 0.23373 0.3711 0.49707 0.0
C811 C 0.19006 0.36834 0.4692 0.0
C812 C 0.19686 0.38639 0.52801 0.0
C813 C 0.26737 0.34864 0.54688 0.0
N814 N 0.1946 0.3755 0.48798 0.0
N815 N 0.2688 0.35496 0.52785 0.0
H816 H 0.13913 0.43222 0.16431 0.0
H817 H 0.9629 0.58225 0.16621 0.0
H818 H 0.1506 0.47246 0.10624 0.0
H819 H 0.96277 0.55258 0.10676 0.0
H820 H 0.03398 0.54502 0.16921 0.0
H821 H 0.08062 0.486 0.16872 0.0
C822 C 0.13134 0.45469 0.15284 0.0
C823 C 0.14878 0.44771 0.13479 0.0
C824 C 0.01796 0.5457 0.15562 0.0
C825 C 0.08177 0.50835 0.13954 0.0
C826 C 0.97721 0.56627 0.15398 0.0
C827 C 0.95738 0.56996 0.13625 0.0
C828 C 0.03836 0.52901 0.13936 0.0
C829 C 0.9773 0.55007 0.12066 0.0
C830 C 0.09737 0.48501 0.15528 0.0
C831 C 0.1374 0.47691 0.12029 0.0
N832 N 0.0171 0.53087 0.12254 0.0
N833 N 0.10334 0.50512 0.12281 0.0
H834 H 0.45595 0.90332 0.58663 0.0
H835 H 0.52906 0.10315 0.65037 0.0
H836 H 0.48467 0.89652 0.64595 0.0
H837 H 0.54969 0.10787 0.59036 0.0
H838 H 0.49522 0.03076 0.64694 0.0
H839 H 0.48924 0.97705 0.58539 0.0
C840 C 0.47176 0.91621 0.59916 0.0
C841 C 0.46433 0.89625 0.61678 0.0
C842 C 0.50654 0.04794 0.63443 0.0
C843 C 0.50119 0.97901 0.61556 0.0
C844 C 0.52426 0.09 0.63631 0.0
C845 C 0.54459 0.1095 0.62075 0.0
C846 C 0.50854 0.02678 0.61683 0.0
C847 C 0.53595 0.09219 0.60277 0.0
C848 C 0.48939 0.95878 0.59854 0.0
C849 C 0.48723 0.91253 0.63232 0.0
N850 N 0.5204 0.05024 0.60128 0.0
N851 N 0.50284 0.95442 0.63163 0.0
H852 H 0.36708 0.95548 0.8561 0.0
H853 H 0.5625 0.04344 0.91577 0.0
H854 H 0.35549 0.99082 0.91479 0.0
H855 H 0.5572 0.06997 0.8561 0.0
H856 H 0.48791 0.01433 0.91439 0.0
H857 H 0.43385 0.99903 0.85401 0.0
C858 C 0.37714 0.97439 0.86833 0.0
C859 C 0.35726 0.96769 0.88597 0.0
C860 C 0.50328 0.02605 0.90156 0.0
C861 C 0.43398 0.01557 0.88377 0.0
C862 C 0.54611 0.04127 0.90225 0.0
C863 C 0.56533 0.05925 0.88605 0.0
C864 C 0.48021 0.02832 0.88448 0.0
C865 C 0.54314 0.05618 0.86884 0.0
C866 C 0.41591 0.99843 0.86719 0.0
C867 C 0.37114 0.99383 0.90114 0.0
N868 N 0.50114 0.04156 0.86851 0.0
N869 N 0.41012 0.0151 0.89998 0.0
H870 H 0.06671 0.41744 0.43209 0.0
H871 H 0.97942 0.60861 0.36841 0.0
H872 H 0.02499 0.40465 0.37438 0.0
H873 H 0.95356 0.61521 0.42801 0.0
H874 H 0.01537 0.53747 0.37303 0.0
H875 H 0.02741 0.48818 0.43414 0.0
C876 C 0.04713 0.42826 0.42018 0.0
C877 C 0.0525 0.40824 0.40245 0.0
C878 C 1.00239 0.55486 0.38519 0.0
C879 C 0.0086 0.48713 0.40465 0.0
C880 C 0.98351 0.59625 0.38266 0.0
C881 C 0.961 0.61555 0.39769 0.0
C882 C 0.99959 0.53443 0.40294 0.0
C883 C 0.96894 0.59947 0.41598 0.0
C884 C 0.02573 0.46902 0.42125 0.0
C885 C 0.02439 0.4212 0.38791 0.0
N886 N 0.98578 0.5581 0.41811 0.0
N887 N 0.00525 0.46154 0.38894 0.0
H888 H 0.88076 0.53998 0.8689 0.0
H889 H 0.12122 0.49644 0.86523 0.0
H890 H 0.97103 0.64245 0.85163 0.0
H891 H 0.0287 0.39159 0.85382 0.0
H892 H 0.06778 0.55051 0.85387 0.0
H893 H 0.93184 0.48406 0.85702 0.0
C894 C 0.91096 0.55048 0.86218 0.0
C895 C 0.92314 0.59509 0.86188 0.0
C896 C 0.0596 0.51555 0.85324 0.0
C897 C 0.98107 0.53249 0.8484 0.0
C898 C 0.08996 0.48495 0.85986 0.0
C899 C 0.07814 0.44032 0.86104 0.0
C900 C 0.01738 0.50094 0.84821 0.0
C901 C 0.03783 0.42635 0.85375 0.0
C902 C 0.93991 0.51884 0.85525 0.0
C903 C 0.96185 0.60781 0.85276 0.0
N904 N 0.0082 0.45684 0.84801 0.0
N905 N 0.9902 0.57643 0.84674 0.0
H906 H 0.52628 0.11028 0.3636 0.0
H907 H 0.44957 0.91556 0.4292 0.0
H908 H 0.54538 0.11872 0.42354 0.0
H909 H 0.48148 0.90516 0.37029 0.0
H910 H 0.48322 0.9891 0.42993 0.0
H911 H 0.49009 0.03926 0.36783 0.0
C912 C 0.52056 0.09833 0.37781 0.0
C913 C 0.54202 0.11743 0.39314 0.0
C914 C 0.48385 0.97011 0.41697 0.0
C915 C 0.50298 0.03699 0.39802 0.0
C916 C 0.46604 0.92765 0.41667 0.0
C917 C 0.45874 0.90733 0.39916 0.0
C918 C 0.49617 0.98938 0.3998 0.0
C919 C 0.48323 0.92201 0.38375 0.0
C920 C 0.50152 0.05702 0.38015 0.0
C921 C 0.53139 0.10259 0.41131 0.0
N922 N 0.49889 0.96386 0.38405 0.0
N923 N 0.51472 0.06125 0.41333 0.0
H924 H 0.4186 0.97915 0.1519 0.0
H925 H 0.60712 0.0788 0.08984 0.0
H926 H 0.41753 0.9614 0.09163 0.0
H927 H 0.6177 0.04589 0.14875 0.0
H928 H 0.53979 0.0352 0.08798 0.0
H929 H 0.48811 0.01786 0.14927 0.0
C930 C 0.43198 0.98544 0.138 0.0
C931 C 0.41392 0.96558 0.12204 0.0
C932 C 0.55773 0.0363 0.10114 0.0
C933 C 0.49372 1.00694 0.11902 0.0
C934 C 0.5967 0.06005 0.1021 0.0
C935 C 0.61554 0.06818 0.1198 0.0
C936 C 0.53965 0.02005 0.11793 0.0
C937 C 0.60245 0.04213 0.13506 0.0
C938 C 0.47238 1.006 0.13655 0.0
C939 C 0.43178 0.97537 0.10428 0.0
N940 N 0.56373 0.02063 0.13405 0.0
N941 N 0.47204 0.99408 0.10323 0.0
H942 H 0.04906 0.41175 0.5906 0.0
H943 H 0.98807 0.63387 0.64314 0.0
H944 H 0.04009 0.43113 0.6506 0.0
H945 H 0.94983 0.61339 0.58538 0.0
H946 H 0.03118 0.56629 0.64192 0.0
H947 H 0.02034 0.48688 0.58568 0.0
C948 C 0.03845 0.43091 0.6027 0.0
C949 C 0.04876 0.41668 0.62104 0.0
C950 C 0.01407 0.57705 0.62934 0.0
C951 C 0.01835 0.50169 0.61562 0.0
C952 C 0.99058 0.61645 0.62983 0.0
C953 C 0.96249 0.62644 0.61485 0.0
C954 C 0.00939 0.54908 0.61366 0.0
C955 C 0.96907 0.6044 0.59765 0.0
C956 C 0.02374 0.47417 0.59989 0.0
C957 C 0.0339 0.44179 0.63626 0.0
N958 N 0.98988 0.56463 0.59775 0.0
N959 N 0.02096 0.48411 0.63325 0.0
H960 H 0.50956 0.29097 0.17007 0.0
H961 H 0.31372 0.25493 0.09611 0.0
H962 H 0.5315 0.27581 0.11044 0.0
H963 H 0.29442 0.25818 0.15627 0.0
H964 H 0.39246 0.26548 0.10083 0.0
H965 H 0.4306 0.28525 0.16487 0.0
C966 C 0.49769 0.28769 0.15575 0.0
C967 C 0.52757 0.28449 0.14066 0.0
C968 C 0.3712 0.26372 0.11304 0.0
C969 C 0.43622 0.27633 0.13462 0.0
C970 C 0.32608 0.25748 0.11038 0.0
C971 C 0.29713 0.25534 0.12582 0.0
C972 C 0.38804 0.26851 0.13132 0.0
C973 C 0.31535 0.259 0.14394 0.0
C974 C 0.45243 0.28381 0.15284 0.0
C975 C 0.50996 0.27938 0.12248 0.0
N976 N 0.35946 0.26565 0.14617 0.0
N977 N 0.46558 0.27508 0.12001 0.0
H978 H 0.7846 0.3062 0.66429 0.0
H979 H 0.75887 0.53816 0.60847 0.0
H980 H 0.76137 0.30893 0.60454 0.0
H981 H 0.74616 0.52149 0.66853 0.0
H982 H 0.76615 0.45654 0.60531 0.0
H983 H 0.78282 0.38743 0.66476 0.0
C984 C 0.78152 0.324 0.65107 0.0
C985 C 0.77499 0.30056 0.63425 0.0
C986 C 0.76108 0.47087 0.61913 0.0
C987 C 0.76991 0.39436 0.63476 0.0
C988 C 0.75608 0.51746 0.6209 0.0
C989 C 0.75113 0.53703 0.63879 0.0
C990 C 0.76185 0.44377 0.63539 0.0
C991 C 0.74939 0.50818 0.65442 0.0
C992 C 0.77929 0.37053 0.65139 0.0
C993 C 0.76837 0.32565 0.61771 0.0
N994 N 0.75515 0.46361 0.65238 0.0
N995 N 0.76571 0.37104 0.61837 0.0
H996 H 0.49106 0.74002 0.16883 0.0
H997 H 0.70519 0.77435 0.10398 0.0
H998 H 0.47887 0.76619 0.10939 0.0
H999 H 0.70594 0.76921 0.16452 0.0
H1000 H 0.62413 0.77298 0.10452 0.0
H1001 H 0.57036 0.74722 0.16625 0.0
C1002 C 0.50512 0.74595 0.15502 0.0
C1003 C 0.47749 0.75153 0.13928 0.0
C1004 C 0.64193 0.77337 0.11771 0.0
C1005 C 0.57023 0.76167 0.13626 0.0
C1006 C 0.68834 0.77519 0.11742 0.0
C1007 C 0.71277 0.77378 0.13427 0.0
C1008 C 0.61949 0.76897 0.135 0.0
C1009 C 0.68881 0.77206 0.1512 0.0
C1010 C 0.55074 0.75086 0.15362 0.0
C1011 C 0.49836 0.76049 0.1219 0.0
N1012 N 0.64404 0.76934 0.15111 0.0
N1013 N 0.54324 0.76543 0.12088 0.0
H1014 H 0.27731 0.49059 0.66675 0.0
H1015 H 0.23367 0.70952 0.60535 0.0
H1016 H 0.24069 0.48018 0.60832 0.0
H1017 H 0.23393 0.70484 0.66591 0.0
H1018 H 0.23732 0.62765 0.60459 0.0
H1019 H 0.2689 0.57091 0.66492 0.0
C1020 C 0.26903 0.50536 0.65327 0.0
C1021 C 0.26055 0.47814 0.6376 0.0
C1022 C 0.23519 0.64446 0.61805 0.0
C1023 C 0.24874 0.57136 0.63556 0.0
C1024 C 0.23196 0.6912 0.61848 0.0
C1025 C 0.23164 0.7142 0.63574 0.0
C1026 C 0.2393 0.62053 0.63502 0.0
C1027 C 0.23241 0.68864 0.6523 0.0
C1028 C 0.26328 0.5514 0.65234 0.0
C1029 C 0.24855 0.49956 0.62068 0.0
N1030 N 0.23678 0.64361 0.65153 0.0
N1031 N 0.24275 0.5448 0.62014 0.0
H1032 H 0.0395 0.25737 0.91002 0.0
H1033 H 0.80632 0.27932 0.8562 0.0
H1034 H 0.02043 0.24427 0.85012 0.0
H1035 H 0.81242 0.25536 0.91587 0.0
H1036 H 0.88676 0.27925 0.85499 0.0
H1037 H 0.95878 0.26412 0.91383 0.0
C1038 C 0.0186 0.25465 0.89775 0.0
C1039 C 0.03743 0.2495 0.87972 0.0
C1040 C 0.87074 0.27513 0.8685 0.0
C1041 C 0.94477 0.25956 0.88388 0.0
C1042 C 0.82458 0.27627 0.86923 0.0
C1043 C 0.8022 0.26921 0.88628 0.0
C1044 C 0.89544 0.26628 0.88491 0.0
C1045 C 0.82812 0.26272 0.90253 0.0
C1046 C 0.97242 0.25928 0.89989 0.0
C1047 C 0.00803 0.24782 0.86435 0.0
N1048 N 0.87306 0.26122 0.90146 0.0
N1049 N 0.96394 0.25318 0.86675 0.0
H1050 H 0.74236 0.79838 0.41409 0.0
H1051 H 0.7296 0.04311 0.36731 0.0
H1052 H 0.71985 0.81775 0.35485 0.0
H1053 H 0.79694 0.01326 0.41918 0.0
H1054 H 0.71069 0.96359 0.3643 0.0
H1055 H 0.74505 0.87939 0.41826 0.0
C1056 C 0.73549 0.81966 0.40212 0.0
C1057 C 0.72892 0.80089 0.38422 0.0
C1058 C 0.7293 0.97459 0.37641 0.0
C1059 C 0.73421 0.8945 0.38869 0.0
C1060 C 0.74007 0.02012 0.37816 0.0
C1061 C 0.76537 0.03535 0.39347 0.0
C1062 C 0.74285 0.94389 0.3903 0.0
C1063 C 0.77785 1.00344 0.40703 0.0
C1064 C 0.7381 0.86607 0.40441 0.0
C1065 C 0.72318 0.83057 0.36903 0.0
N1066 N 0.76643 0.95977 0.40517 0.0
N1067 N 0.72607 0.87557 0.37156 0.0
H1068 H 0.96719 0.79378 0.9057 0.0
H1069 H 0.20562 0.76868 0.85709 0.0
H1070 H 0.98767 0.79086 0.84558 0.0
H1071 H 0.18615 0.79225 0.91646 0.0
H1072 H 0.12543 0.77284 0.85261 0.0
H1073 H 0.04736 0.79236 0.91012 0.0
C1074 C 0.98842 0.79414 0.89346 0.0
C1075 C 0.97048 0.79298 0.87526 0.0
C1076 C 0.13881 0.77694 0.86663 0.0
C1077 C 0.06231 0.78963 0.88015 0.0
C1078 C 0.18455 0.77413 0.86918 0.0
C1079 C 0.20273 0.78012 0.88715 0.0
C1080 C 0.11109 0.78546 0.88219 0.0
C1081 C 0.17376 0.78769 0.9023 0.0
C1082 C 0.03424 0.79263 0.89595 0.0
C1083 C 0.99989 0.79202 0.8599 0.0
N1084 N 0.12969 0.79011 0.89949 0.0
N1085 N 0.04402 0.79002 0.86267 0.0
H1086 H 0.25759 0.22007 0.41199 0.0
H1087 H 0.27952 0.97389 0.36718 0.0
H1088 H 0.28511 0.20101 0.35313 0.0
H1089 H 0.20261 1.00578 0.41633 0.0
H1090 H 0.29836 0.05357 0.36404 0.0
H1091 H 0.25579 0.13912 0.41625 0.0
C1092 C 0.26565 0.19891 0.40013 0.0
C1093 C 0.27345 0.21789 0.38232 0.0
C1094 C 0.27766 0.04293 0.3756 0.0
C1095 C 0.26938 0.12394 0.38691 0.0
C1096 C 0.26697 0.99723 0.37745 0.0
C1097 C 0.23895 0.98242 0.39201 0.0
C1098 C 0.26123 0.07428 0.38864 0.0
C1099 C 0.22396 0.01504 0.40479 0.0
C1100 C 0.26364 0.15245 0.40248 0.0
C1101 C 0.2808 0.18817 0.36726 0.0
N1102 N 0.23527 0.05875 0.40285 0.0
N1103 N 0.27854 0.14302 0.36986 0.0
H1104 H 0.49585 0.74988 0.86503 0.0
H1105 H 0.71477 0.8339 0.91126 0.0
H1106 H 0.48666 0.85611 0.90542 0.0
H1107 H 0.7044 0.80289 0.85223 0.0
H1108 H 0.6339 0.83791 0.91306 0.0
H1109 H 0.57588 0.75881 0.86457 0.0
C1110 C 0.51088 0.77413 0.87424 0.0
C1111 C 0.48488 0.80153 0.88562 0.0
C1112 C 0.64953 0.83166 0.89961 0.0
C1113 C 0.5762 0.81278 0.88486 0.0
C1114 C 0.69561 0.83035 0.89849 0.0
C1115 C 0.71625 0.81906 0.88146 0.0
C1116 C 0.62439 0.82022 0.88372 0.0
C1117 C 0.68976 0.81257 0.86553 0.0
C1118 C 0.5564 0.77976 0.87375 0.0
C1119 C 0.50586 0.83368 0.89679 0.0
N1120 N 0.64536 0.81218 0.86713 0.0
N1121 N 0.55042 0.83829 0.89626 0.0
H1122 H 0.22231 0.47431 0.36959 0.0
H1123 H 0.26143 0.71946 0.41258 0.0
H1124 H 0.31818 0.50543 0.4122 0.0
H1125 H 0.21491 0.70218 0.35589 0.0
H1126 H 0.26448 0.63847 0.41631 0.0
H1127 H 0.20348 0.55411 0.36765 0.0
C1128 C 0.2393 0.49745 0.37864 0.0
C1129 C 0.27254 0.48224 0.39097 0.0
C1130 C 0.25224 0.65219 0.40322 0.0
C1131 C 0.25002 0.57444 0.38908 0.0
C1132 C 0.24956 0.69867 0.40122 0.0
C1133 C 0.23609 0.71819 0.38415 0.0
C1134 C 0.2414 0.62413 0.38804 0.0
C1135 C 0.22377 0.68894 0.36956 0.0
C1136 C 0.22846 0.54327 0.37749 0.0
C1137 C 0.2927 0.51482 0.40235 0.0
N1138 N 0.22676 0.64369 0.3718 0.0
N1139 N 0.28114 0.55866 0.40118 0.0
H1140 H 0.53846 0.2502 0.91149 0.0
H1141 H 0.30723 0.22165 0.85708 0.0
H1142 H 0.52012 0.26239 0.85151 0.0
H1143 H 0.31099 0.2491 0.91649 0.0
H1144 H 0.38758 0.22342 0.85625 0.0
H1145 H 0.4579 0.24229 0.91511 0.0
C1146 C 0.51771 0.25268 0.89915 0.0
C1147 C 0.53672 0.25784 0.88115 0.0
C1148 C 0.37111 0.22787 0.86965 0.0
C1149 C 0.44423 0.24633 0.88512 0.0
C1150 C 0.32501 0.22568 0.87019 0.0
C1151 C 0.30191 0.2333 0.88703 0.0
C1152 C 0.3951 0.23831 0.88605 0.0
C1153 C 0.32723 0.24117 0.90334 0.0
C1154 C 0.47162 0.24733 0.9012 0.0
C1155 C 0.5075 0.25908 0.86571 0.0
N1156 N 0.37216 0.24369 0.90245 0.0
N1157 N 0.46348 0.25296 0.86802 0.0
H1158 H 0.76828 0.30354 0.41441 0.0
H1159 H 0.7337 0.52002 0.35028 0.0
H1160 H 0.77511 0.30527 0.35391 0.0
H1161 H 0.76455 0.53379 0.4092 0.0
H1162 H 0.74204 0.43989 0.35303 0.0
H1163 H 0.76573 0.38554 0.41441 0.0
C1164 C 0.77169 0.32117 0.40118 0.0
C1165 C 0.77393 0.29719 0.38415 0.0
C1166 C 0.74642 0.46005 0.36551 0.0
C1167 C 0.7675 0.39134 0.38394 0.0
C1168 C 0.74081 0.50609 0.36404 0.0
C1169 C 0.74749 0.53433 0.37957 0.0
C1170 C 0.75891 0.44085 0.38275 0.0
C1171 C 0.75794 0.51372 0.39689 0.0
C1172 C 0.76915 0.36807 0.40116 0.0
C1173 C 0.77525 0.32208 0.3674 0.0
N1174 N 0.76346 0.46838 0.39799 0.0
N1175 N 0.7715 0.36727 0.36772 0.0
H1176 H 0.99148 0.78476 0.16525 0.0
H1177 H 0.20642 0.74156 0.10227 0.0
H1178 H 0.97942 0.74646 0.10706 0.0
H1179 H 0.20493 0.7444 0.16282 0.0
H1180 H 0.12544 0.7449 0.10224 0.0
H1181 H 0.07094 0.77727 0.1629 0.0
C1182 C 0.00563 0.77638 0.15169 0.0
C1183 C 0.97804 0.76735 0.13625 0.0
C1184 C 0.14272 0.74348 0.11555 0.0
C1185 C 0.0707 0.7566 0.1336 0.0
C1186 C 0.18905 0.74049 0.11558 0.0
C1187 C 0.21283 0.74061 0.13261 0.0
C1188 C 0.11974 0.74798 0.13269 0.0
C1189 C 0.18825 0.74235 0.14938 0.0
C1190 C 0.05127 0.77116 0.15047 0.0
C1191 C 0.99891 0.75501 0.11926 0.0
N1192 N 0.14359 0.74641 0.14898 0.0
N1193 N 0.04377 0.74984 0.11842 0.0
H1194 H 0.28192 0.209 0.66372 0.0
H1195 H 0.26127 0.9768 0.60797 0.0
H1196 H 0.26372 0.20548 0.60367 0.0
H1197 H 0.24719 0.993 0.66799 0.0
H1198 H 0.26772 0.05844 0.60485 0.0
H1199 H 0.28047 0.12778 0.66444 0.0
C1200 C 0.27998 0.19101 0.65053 0.0
C1201 C 0.27484 0.2142 0.63352 0.0
C1202 C 0.2625 0.04402 0.61865 0.0
C1203 C 0.27015 0.12046 0.63428 0.0
C1204 C 0.25796 0.99742 0.62039 0.0
C1205 C 0.25285 0.97773 0.63826 0.0
C1206 C 0.2626 0.07102 0.63491 0.0
C1207 C 0.25049 1.00644 0.65389 0.0
C1208 C 0.27797 0.1445 0.65097 0.0
C1209 C 0.26966 0.18893 0.61698 0.0
N1210 N 0.25579 0.05106 0.65188 0.0
N1211 N 0.26717 0.14356 0.61776 0.0
H1212 H 0.78774 0.32099 0.16662 0.0
H1213 H 0.01461 0.27075 0.11273 0.0
H1214 H 0.79426 0.29785 0.1069 0.0
H1215 H 1.0035 0.29745 0.1722 0.0
H1216 H 0.9352 0.28525 0.10938 0.0
H1217 H 0.8679 0.32118 0.16793 0.0
C1218 C 0.80614 0.31858 0.15358 0.0
C1219 C 0.7842 0.31111 0.13652 0.0
C1220 C 0.95018 0.28772 0.12317 0.0
C1221 C 0.87654 0.30811 0.13801 0.0
C1222 C 0.99541 0.27892 0.12511 0.0
C1223 C 0.01575 0.28243 0.14282 0.0
C1224 C 0.92507 0.2998 0.13907 0.0
C1225 C 0.98934 0.29427 0.15828 0.0
C1226 C 0.85205 0.31751 0.15437 0.0
C1227 C 0.80987 0.30537 0.12022 0.0
N1228 N 0.94568 0.30228 0.15607 0.0
N1229 N 0.85457 0.30337 0.12138 0.0
H1230 H 0.74531 0.03797 0.60886 0.0
H1231 H 0.7199 0.80677 0.66505 0.0
H1232 H 0.76442 0.02054 0.66857 0.0
H1233 H 0.73962 0.80842 0.60506 0.0
H1234 H 0.72316 0.88791 0.66536 0.0
H1235 H 0.73627 0.95658 0.60577 0.0
C1236 C 0.74914 0.01714 0.6212 0.0
C1237 C 0.75634 0.03649 0.639 0.0
C1238 C 0.72554 0.87082 0.65198 0.0
C1239 C 0.74365 0.94347 0.63571 0.0
C1240 C 0.7224 0.82436 0.65176 0.0
C1241 C 0.72759 0.80056 0.63492 0.0
C1242 C 0.73443 0.89428 0.63521 0.0
C1243 C 0.73357 0.8254 0.61826 0.0
C1244 C 0.74315 0.97067 0.61948 0.0
C1245 C 0.75945 1.00743 0.65453 0.0
N1246 N 0.73716 0.87073 0.61882 0.0
N1247 N 0.75264 0.96301 0.65256 0.0
loop_
_geom_bond_atom_site_label_1
_geom_bond_atom_site_label_2
_geom_bond_distance
_geom_bond_site_symmetry_2
_ccdc_geom_bond_type
C0 C1 1.351 . S
C0 N3 1.368 . S
C0 H5 0.931 . S
C1 C0 1.351 . S
C1 N2 1.373 . S
C1 H29 0.930 . S
N2 C1 1.373 . S
N2 C4 1.340 . S
N3 C0 1.368 . S
N3 C4 1.321 . S
N3 Co6 2.135 . S
C4 N2 1.340 . S
C4 N3 1.321 . S
C4 H28 0.930 . S
H5 C0 0.931 . S
Co6 N3 2.135 . S
Co6 N9 2.121 . S
Co6 O14 2.055 . S
Co6 O17 2.039 . S
Co6 N20 2.140 . S
C7 O8 1.227 . S
C7 O17 1.265 . S
O8 C7 1.227 . S
N9 Co6 2.121 . S
N9 C11 1.375 . S
N9 C12 1.313 . S
C10 C11 1.338 . S
C10 N13 1.377 . S
C10 H30 0.930 . S
C11 N9 1.375 . S
C11 C10 1.338 . S
C11 H15 0.931 . S
C12 N9 1.313 . S
C12 N13 1.344 . S
C12 H16 0.930 . S
N13 C10 1.377 . S
N13 C12 1.344 . S
O14 Co6 2.055 . S
O14 C18 1.253 . S
H15 C11 0.931 . S
H16 C12 0.930 . S
O17 Co6 2.039 . S
O17 C7 1.265 . S
C18 O14 1.253 . S
C18 O19 1.227 . S
O19 C18 1.227 . S
N20 Co6 2.140 . S
N20 C23 1.346 . S
N20 C24 1.345 . S
C21 C22 1.387 . S
C21 C25 1.391 . S
C22 C21 1.387 . S
C22 C23 1.369 . S
C22 H31 0.929 . S
C23 N20 1.346 . S
C23 C22 1.369 . S
C23 H26 0.928 . S
C24 N20 1.345 . S
C24 C25 1.371 . S
C24 H27 0.931 . S
C25 C21 1.391 . S
C25 C24 1.371 . S
C25 H32 0.930 . S
H26 C23 0.928 . S
H27 C24 0.931 . S
H28 C4 0.930 . S
H29 C1 0.930 . S
H30 C10 0.930 . S
H31 C22 0.929 . S
H32 C25 0.930 . S
C33 C34 1.351 . S
C33 N36 1.368 . S
C33 H38 0.931 . S
C34 C33 1.351 . S
C34 N35 1.373 . S
C34 H62 0.930 . S
N35 C34 1.373 . S
N35 C37 1.340 . S
N36 C33 1.368 . S
N36 C37 1.321 . S
N36 Co39 2.135 . S
C37 N35 1.340 . S
C37 N36 1.321 . S
C37 H61 0.930 . S
H38 C33 0.931 . S
Co39 N36 2.135 . S
Co39 N42 2.121 . S
Co39 O47 2.055 . S
Co39 O50 2.039 . S
Co39 N53 2.140 . S
C40 O41 1.227 . S
C40 O50 1.265 . S
O41 C40 1.227 . S
N42 Co39 2.121 . S
N42 C44 1.375 . S
N42 C45 1.313 . S
C43 C44 1.338 . S
C43 N46 1.377 . S
C43 H63 0.930 . S
C44 N42 1.375 . S
C44 C43 1.338 . S
C44 H48 0.931 . S
C45 N42 1.313 . S
C45 N46 1.344 . S
C45 H49 0.930 . S
N46 C43 1.377 . S
N46 C45 1.344 . S
O47 Co39 2.055 . S
O47 C51 1.253 . S
H48 C44 0.931 . S
H49 C45 0.930 . S
O50 Co39 2.039 . S
O50 C40 1.265 . S
C51 O47 1.253 . S
C51 O52 1.227 . S
O52 C51 1.227 . S
N53 Co39 2.140 . S
N53 C56 1.346 . S
N53 C57 1.345 . S
C54 C55 1.387 . S
C54 C58 1.391 . S
C55 C54 1.387 . S
C55 C56 1.369 . S
C55 H64 0.929 . S
C56 N53 1.346 . S
C56 C55 1.369 . S
C56 H59 0.928 . S
C57 N53 1.345 . S
C57 C58 1.371 . S
C57 H60 0.931 . S
C58 C54 1.391 . S
C58 C57 1.371 . S
C58 H65 0.930 . S
H59 C56 0.928 . S
H60 C57 0.931 . S
H61 C37 0.930 . S
H62 C34 0.930 . S
H63 C43 0.930 . S
H64 C55 0.929 . S
H65 C58 0.930 . S
C66 C67 1.351 . S
C66 N69 1.368 . S
C66 H71 0.931 . S
C67 C66 1.351 . S
C67 N68 1.373 . S
C67 H95 0.930 . S
N68 C67 1.373 . S
N68 C70 1.340 . S
N69 C66 1.368 . S
N69 C70 1.321 . S
N69 Co72 2.135 . S
C70 N68 1.340 . S
C70 N69 1.321 . S
C70 H94 0.930 . S
H71 C66 0.931 . S
Co72 N69 2.135 . S
Co72 N75 2.121 . S
Co72 O80 2.055 . S
Co72 O83 2.039 . S
Co72 N86 2.140 . S
C73 O74 1.227 . S
C73 O83 1.265 . S
O74 C73 1.227 . S
N75 Co72 2.121 . S
N75 C77 1.375 . S
N75 C78 1.313 . S
C76 C77 1.338 . S
C76 N79 1.377 . S
C76 H96 0.930 . S
C77 N75 1.375 . S
C77 C76 1.338 . S
C77 H81 0.931 . S
C78 N75 1.313 . S
C78 N79 1.344 . S
C78 H82 0.930 . S
N79 C76 1.377 . S
N79 C78 1.344 . S
O80 Co72 2.055 . S
O80 C84 1.253 . S
H81 C77 0.931 . S
H82 C78 0.930 . S
O83 Co72 2.039 . S
O83 C73 1.265 . S
C84 O80 1.253 . S
C84 O85 1.227 . S
O85 C84 1.227 . S
N86 Co72 2.140 . S
N86 C89 1.346 . S
N86 C90 1.345 . S
C87 C88 1.387 . S
C87 C91 1.391 . S
C88 C87 1.387 . S
C88 C89 1.369 . S
C88 H97 0.929 . S
C89 N86 1.346 . S
C89 C88 1.369 . S
C89 H92 0.928 . S
C90 N86 1.345 . S
C90 C91 1.371 . S
C90 H93 0.931 . S
C91 C87 1.391 . S
C91 C90 1.371 . S
C91 H98 0.930 . S
H92 C89 0.928 . S
H93 C90 0.931 . S
H94 C70 0.930 . S
H95 C67 0.930 . S
H96 C76 0.930 . S
H97 C88 0.929 . S
H98 C91 0.930 . S
C99 C100 1.351 . S
C99 N102 1.368 . S
C99 H104 0.931 . S
C100 C99 1.351 . S
C100 N101 1.373 . S
C100 H128 0.930 . S
N101 C100 1.373 . S
N101 C103 1.340 . S
N102 C99 1.368 . S
N102 C103 1.321 . S
N102 Co105 2.135 . S
C103 N101 1.340 . S
C103 N102 1.321 . S
C103 H127 0.930 . S
H104 C99 0.931 . S
Co105 N102 2.135 . S
Co105 N108 2.121 . S
Co105 O113 2.055 . S
Co105 O116 2.039 . S
Co105 N119 2.140 . S
C106 O107 1.227 . S
C106 O116 1.265 . S
O107 C106 1.227 . S
N108 Co105 2.121 . S
N108 C110 1.375 . S
N108 C111 1.313 . S
C109 C110 1.338 . S
C109 N112 1.377 . S
C109 H129 0.930 . S
C110 N108 1.375 . S
C110 C109 1.338 . S
C110 H114 0.931 . S
C111 N108 1.313 . S
C111 N112 1.344 . S
C111 H115 0.930 . S
N112 C109 1.377 . S
N112 C111 1.344 . S
O113 Co105 2.055 . S
O113 C117 1.253 . S
H114 C110 0.931 . S
H115 C111 0.930 . S
O116 Co105 2.039 . S
O116 C106 1.265 . S
C117 O113 1.253 . S
C117 O118 1.227 . S
O118 C117 1.227 . S
N119 Co105 2.140 . S
N119 C122 1.346 . S
N119 C123 1.345 . S
C120 C121 1.387 . S
C120 C124 1.391 . S
C121 C120 1.387 . S
C121 C122 1.369 . S
C121 H130 0.929 . S
C122 N119 1.346 . S
C122 C121 1.369 . S
C122 H125 0.928 . S
C123 N119 1.345 . S
C123 C124 1.371 . S
C123 H126 0.931 . S
C124 C120 1.391 . S
C124 C123 1.371 . S
C124 H131 0.930 . S
H125 C122 0.928 . S
H126 C123 0.931 . S
H127 C103 0.930 . S
H128 C100 0.930 . S
H129 C109 0.930 . S
H130 C121 0.929 . S
H131 C124 0.930 . S
C132 C133 1.351 . S
C132 N135 1.368 . S
C132 H137 0.931 . S
C133 C132 1.351 . S
C133 N134 1.373 . S
C133 H161 0.930 . S
N134 C133 1.373 . S
N134 C136 1.340 . S
N135 C132 1.368 . S
N135 C136 1.321 . S
N135 Co138 2.135 . S
C136 N134 1.340 . S
C136 N135 1.321 . S
C136 H160 0.930 . S
H137 C132 0.931 . S
Co138 N135 2.135 . S
Co138 N141 2.121 . S
Co138 O146 2.055 . S
Co138 O149 2.039 . S
Co138 N152 2.140 . S
C139 O140 1.227 . S
C139 O149 1.265 . S
O140 C139 1.227 . S
N141 Co138 2.121 . S
N141 C143 1.375 . S
N141 C144 1.313 . S
C142 C143 1.338 . S
C142 N145 1.377 . S
C142 H162 0.930 . S
C143 N141 1.375 . S
C143 C142 1.338 . S
C143 H147 0.931 . S
C144 N141 1.313 . S
C144 N145 1.344 . S
C144 H148 0.930 . S
N145 C142 1.377 . S
N145 C144 1.344 . S
O146 Co138 2.055 . S
O146 C150 1.253 . S
H147 C143 0.931 . S
H148 C144 0.930 . S
O149 Co138 2.039 . S
O149 C139 1.265 . S
C150 O146 1.253 . S
C150 O151 1.227 . S
O151 C150 1.227 . S
N152 Co138 2.140 . S
N152 C155 1.346 . S
N152 C156 1.345 . S
C153 C154 1.387 . S
C153 C157 1.391 . S
C154 C153 1.387 . S
C154 C155 1.369 . S
C154 H163 0.929 . S
C155 N152 1.346 . S
C155 C154 1.369 . S
C155 H158 0.928 . S
C156 N152 1.345 . S
C156 C157 1.371 . S
C156 H159 0.931 . S
C157 C153 1.391 . S
C157 C156 1.371 . S
C157 H164 0.930 . S
H158 C155 0.928 . S
H159 C156 0.931 . S
H160 C136 0.930 . S
H161 C133 0.930 . S
H162 C142 0.930 . S
H163 C154 0.929 . S
H164 C157 0.930 . S
C165 C166 1.351 . S
C165 N168 1.368 . S
C165 H170 0.931 . S
C166 C165 1.351 . S
C166 N167 1.373 . S
C166 H194 0.930 . S
N167 C166 1.373 . S
N167 C169 1.340 . S
N168 C165 1.368 . S
N168 C169 1.321 . S
N168 Co171 2.135 . S
C169 N167 1.340 . S
C169 N168 1.321 . S
C169 H193 0.930 . S
H170 C165 0.931 . S
Co171 N168 2.135 . S
Co171 N174 2.121 . S
Co171 O179 2.055 . S
Co171 O182 2.039 . S
Co171 N185 2.140 . S
C172 O173 1.227 . S
C172 O182 1.265 . S
O173 C172 1.227 . S
N174 Co171 2.121 . S
N174 C176 1.375 . S
N174 C177 1.313 . S
C175 C176 1.338 . S
C175 N178 1.377 . S
C175 H195 0.930 . S
C176 N174 1.375 . S
C176 C175 1.338 . S
C176 H180 0.931 . S
C177 N174 1.313 . S
C177 N178 1.344 . S
C177 H181 0.930 . S
N178 C175 1.377 . S
N178 C177 1.344 . S
O179 Co171 2.055 . S
O179 C183 1.253 . S
H180 C176 0.931 . S
H181 C177 0.930 . S
O182 Co171 2.039 . S
O182 C172 1.265 . S
C183 O179 1.253 . S
C183 O184 1.227 . S
O184 C183 1.227 . S
N185 Co171 2.140 . S
N185 C188 1.346 . S
N185 C189 1.345 . S
C186 C187 1.387 . S
C186 C190 1.391 . S
C187 C186 1.387 . S
C187 C188 1.369 . S
C187 H196 0.929 . S
C188 N185 1.346 . S
C188 C187 1.369 . S
C188 H191 0.928 . S
C189 N185 1.345 . S
C189 C190 1.371 . S
C189 H192 0.931 . S
C190 C186 1.391 . S
C190 C189 1.371 . S
C190 H197 0.930 . S
H191 C188 0.928 . S
H192 C189 0.931 . S
H193 C169 0.930 . S
H194 C166 0.930 . S
H195 C175 0.930 . S
H196 C187 0.929 . S
H197 C190 0.930 . S
C198 C199 1.351 . S
C198 N201 1.368 . S
C198 H203 0.931 . S
C199 C198 1.351 . S
C199 N200 1.373 . S
C199 H227 0.930 . S
N200 C199 1.373 . S
N200 C202 1.340 . S
N201 C198 1.368 . S
N201 C202 1.321 . S
N201 Co204 2.135 . S
C202 N200 1.340 . S
C202 N201 1.321 . S
C202 H226 0.930 . S
H203 C198 0.931 . S
Co204 N201 2.135 . S
Co204 N207 2.121 . S
Co204 O212 2.055 . S
Co204 O215 2.039 . S
Co204 N218 2.140 . S
C205 O206 1.227 . S
C205 O215 1.265 . S
O206 C205 1.227 . S
N207 Co204 2.121 . S
N207 C209 1.375 . S
N207 C210 1.313 . S
C208 C209 1.338 . S
C208 N211 1.377 . S
C208 H228 0.930 . S
C209 N207 1.375 . S
C209 C208 1.338 . S
C209 H213 0.931 . S
C210 N207 1.313 . S
C210 N211 1.344 . S
C210 H214 0.930 . S
N211 C208 1.377 . S
N211 C210 1.344 . S
O212 Co204 2.055 . S
O212 C216 1.253 . S
H213 C209 0.931 . S
H214 C210 0.930 . S
O215 Co204 2.039 . S
O215 C205 1.265 . S
C216 O212 1.253 . S
C216 O217 1.227 . S
O217 C216 1.227 . S
N218 Co204 2.140 . S
N218 C221 1.346 . S
N218 C222 1.345 . S
C219 C220 1.387 . S
C219 C223 1.391 . S
C220 C219 1.387 . S
C220 C221 1.369 . S
C220 H229 0.929 . S
C221 N218 1.346 . S
C221 C220 1.369 . S
C221 H224 0.928 . S
C222 N218 1.345 . S
C222 C223 1.371 . S
C222 H225 0.931 . S
C223 C219 1.391 . S
C223 C222 1.371 . S
C223 H230 0.930 . S
H224 C221 0.928 . S
H225 C222 0.931 . S
H226 C202 0.930 . S
H227 C199 0.930 . S
H228 C208 0.930 . S
H229 C220 0.929 . S
H230 C223 0.930 . S
C231 C232 1.351 . S
C231 N234 1.368 . S
C231 H236 0.931 . S
C232 C231 1.351 . S
C232 N233 1.373 . S
C232 H260 0.930 . S
N233 C232 1.373 . S
N233 C235 1.340 . S
N234 C231 1.368 . S
N234 C235 1.321 . S
N234 Co237 2.135 . S
C235 N233 1.340 . S
C235 N234 1.321 . S
C235 H259 0.930 . S
H236 C231 0.931 . S
Co237 N234 2.135 . S
Co237 N240 2.121 . S
Co237 O245 2.055 . S
Co237 O248 2.039 . S
Co237 N251 2.140 . S
C238 O239 1.227 . S
C238 O248 1.265 . S
O239 C238 1.227 . S
N240 Co237 2.121 . S
N240 C242 1.375 . S
N240 C243 1.313 . S
C241 C242 1.338 . S
C241 N244 1.377 . S
C241 H261 0.930 . S
C242 N240 1.375 . S
C242 C241 1.338 . S
C242 H246 0.931 . S
C243 N240 1.313 . S
C243 N244 1.344 . S
C243 H247 0.930 . S
N244 C241 1.377 . S
N244 C243 1.344 . S
O245 Co237 2.055 . S
O245 C249 1.253 . S
H246 C242 0.931 . S
H247 C243 0.930 . S
O248 Co237 2.039 . S
O248 C238 1.265 . S
C249 O245 1.253 . S
C249 O250 1.227 . S
O250 C249 1.227 . S
N251 Co237 2.140 . S
N251 C254 1.346 . S
N251 C255 1.345 . S
C252 C253 1.387 . S
C252 C256 1.391 . S
C253 C252 1.387 . S
C253 C254 1.369 . S
C253 H262 0.929 . S
C254 N251 1.346 . S
C254 C253 1.369 . S
C254 H257 0.928 . S
C255 N251 1.345 . S
C255 C256 1.371 . S
C255 H258 0.931 . S
C256 C252 1.391 . S
C256 C255 1.371 . S
C256 H263 0.930 . S
H257 C254 0.928 . S
H258 C255 0.931 . S
H259 C235 0.930 . S
H260 C232 0.930 . S
H261 C241 0.930 . S
H262 C253 0.929 . S
H263 C256 0.930 . S
C264 C265 1.351 . S
C264 N267 1.368 . S
C264 H269 0.931 . S
C265 C264 1.351 . S
C265 N266 1.373 . S
C265 H293 0.930 . S
N266 C265 1.373 . S
N266 C268 1.340 . S
N267 C264 1.368 . S
N267 C268 1.321 . S
N267 Co270 2.135 . S
C268 N266 1.340 . S
C268 N267 1.321 . S
C268 H292 0.930 . S
H269 C264 0.931 . S
Co270 N267 2.135 . S
Co270 N273 2.121 . S
Co270 O278 2.055 . S
Co270 O281 2.039 . S
Co270 N284 2.140 . S
C271 O272 1.227 . S
C271 O281 1.265 . S
O272 C271 1.227 . S
N273 Co270 2.121 . S
N273 C275 1.375 . S
N273 C276 1.313 . S
C274 C275 1.338 . S
C274 N277 1.377 . S
C274 H294 0.930 . S
C275 N273 1.375 . S
C275 C274 1.338 . S
C275 H279 0.931 . S
C276 N273 1.313 . S
C276 N277 1.344 . S
C276 H280 0.930 . S
N277 C274 1.377 . S
N277 C276 1.344 . S
O278 Co270 2.055 . S
O278 C282 1.253 . S
H279 C275 0.931 . S
H280 C276 0.930 . S
O281 Co270 2.039 . S
O281 C271 1.265 . S
C282 O278 1.253 . S
C282 O283 1.227 . S
O283 C282 1.227 . S
N284 Co270 2.140 . S
N284 C287 1.346 . S
N284 C288 1.345 . S
C285 C286 1.387 . S
C285 C289 1.391 . S
C286 C285 1.387 . S
C286 C287 1.369 . S
C286 H295 0.929 . S
C287 N284 1.346 . S
C287 C286 1.369 . S
C287 H290 0.928 . S
C288 N284 1.345 . S
C288 C289 1.371 . S
C288 H291 0.931 . S
C289 C285 1.391 . S
C289 C288 1.371 . S
C289 H296 0.930 . S
H290 C287 0.928 . S
H291 C288 0.931 . S
H292 C268 0.930 . S
H293 C265 0.930 . S
H294 C274 0.930 . S
H295 C286 0.929 . S
H296 C289 0.930 . S
C297 C298 1.351 . S
C297 N300 1.368 . S
C297 H302 0.931 . S
C298 C297 1.351 . S
C298 N299 1.373 . S
C298 H326 0.930 . S
N299 C298 1.373 . S
N299 C301 1.340 . S
N300 C297 1.368 . S
N300 C301 1.321 . S
N300 Co303 2.135 . S
C301 N299 1.340 . S
C301 N300 1.321 . S
C301 H325 0.930 . S
H302 C297 0.931 . S
Co303 N300 2.135 . S
Co303 N306 2.121 . S
Co303 O311 2.055 . S
Co303 O314 2.039 . S
Co303 N317 2.140 . S
C304 O305 1.227 . S
C304 O314 1.265 . S
O305 C304 1.227 . S
N306 Co303 2.121 . S
N306 C308 1.375 . S
N306 C309 1.313 . S
C307 C308 1.338 . S
C307 N310 1.377 . S
C307 H327 0.930 . S
C308 N306 1.375 . S
C308 C307 1.338 . S
C308 H312 0.931 . S
C309 N306 1.313 . S
C309 N310 1.344 . S
C309 H313 0.930 . S
N310 C307 1.377 . S
N310 C309 1.344 . S
O311 Co303 2.055 . S
O311 C315 1.253 . S
H312 C308 0.931 . S
H313 C309 0.930 . S
O314 Co303 2.039 . S
O314 C304 1.265 . S
C315 O311 1.253 . S
C315 O316 1.227 . S
O316 C315 1.227 . S
N317 Co303 2.140 . S
N317 C320 1.346 . S
N317 C321 1.345 . S
C318 C319 1.387 . S
C318 C322 1.391 . S
C319 C318 1.387 . S
C319 C320 1.369 . S
C319 H328 0.929 . S
C320 N317 1.346 . S
C320 C319 1.369 . S
C320 H323 0.928 . S
C321 N317 1.345 . S
C321 C322 1.371 . S
C321 H324 0.931 . S
C322 C318 1.391 . S
C322 C321 1.371 . S
C322 H329 0.930 . S
H323 C320 0.928 . S
H324 C321 0.931 . S
H325 C301 0.930 . S
H326 C298 0.930 . S
H327 C307 0.930 . S
H328 C319 0.929 . S
H329 C322 0.930 . S
C330 C331 1.351 . S
C330 N333 1.368 . S
C330 H335 0.931 . S
C331 C330 1.351 . S
C331 N332 1.373 . S
C331 H359 0.930 . S
N332 C331 1.373 . S
N332 C334 1.340 . S
N333 C330 1.368 . S
N333 C334 1.321 . S
N333 Co336 2.135 . S
C334 N332 1.340 . S
C334 N333 1.321 . S
C334 H358 0.930 . S
H335 C330 0.931 . S
Co336 N333 2.135 . S
Co336 N339 2.121 . S
Co336 O344 2.055 . S
Co336 O347 2.039 . S
Co336 N350 2.140 . S
C337 O338 1.227 . S
C337 O347 1.265 . S
O338 C337 1.227 . S
N339 Co336 2.121 . S
N339 C341 1.375 . S
N339 C342 1.313 . S
C340 C341 1.338 . S
C340 N343 1.377 . S
C340 H360 0.930 . S
C341 N339 1.375 . S
C341 C340 1.338 . S
C341 H345 0.931 . S
C342 N339 1.313 . S
C342 N343 1.344 . S
C342 H346 0.930 . S
N343 C340 1.377 . S
N343 C342 1.344 . S
O344 Co336 2.055 . S
O344 C348 1.253 . S
H345 C341 0.931 . S
H346 C342 0.930 . S
O347 Co336 2.039 . S
O347 C337 1.265 . S
C348 O344 1.253 . S
C348 O349 1.227 . S
O349 C348 1.227 . S
N350 Co336 2.140 . S
N350 C353 1.346 . S
N350 C354 1.345 . S
C351 C352 1.387 . S
C351 C355 1.391 . S
C352 C351 1.387 . S
C352 C353 1.369 . S
C352 H361 0.929 . S
C353 N350 1.346 . S
C353 C352 1.369 . S
C353 H356 0.928 . S
C354 N350 1.345 . S
C354 C355 1.371 . S
C354 H357 0.931 . S
C355 C351 1.391 . S
C355 C354 1.371 . S
C355 H362 0.930 . S
H356 C353 0.928 . S
H357 C354 0.931 . S
H358 C334 0.930 . S
H359 C331 0.930 . S
H360 C340 0.930 . S
H361 C352 0.929 . S
H362 C355 0.930 . S
C363 C364 1.351 . S
C363 N366 1.368 . S
C363 H368 0.931 . S
C364 C363 1.351 . S
C364 N365 1.373 . S
C364 H392 0.930 . S
N365 C364 1.373 . S
N365 C367 1.340 . S
N366 C363 1.368 . S
N366 C367 1.321 . S
N366 Co369 2.135 . S
C367 N365 1.340 . S
C367 N366 1.321 . S
C367 H391 0.930 . S
H368 C363 0.931 . S
Co369 N366 2.135 . S
Co369 N372 2.121 . S
Co369 O377 2.055 . S
Co369 O380 2.039 . S
Co369 N383 2.140 . S
C370 O371 1.227 . S
C370 O380 1.265 . S
O371 C370 1.227 . S
N372 Co369 2.121 . S
N372 C374 1.375 . S
N372 C375 1.313 . S
C373 C374 1.338 . S
C373 N376 1.377 . S
C373 H393 0.930 . S
C374 N372 1.375 . S
C374 C373 1.338 . S
C374 H378 0.931 . S
C375 N372 1.313 . S
C375 N376 1.344 . S
C375 H379 0.930 . S
N376 C373 1.377 . S
N376 C375 1.344 . S
O377 Co369 2.055 . S
O377 C381 1.253 . S
H378 C374 0.931 . S
H379 C375 0.930 . S
O380 Co369 2.039 . S
O380 C370 1.265 . S
C381 O377 1.253 . S
C381 O382 1.227 . S
O382 C381 1.227 . S
N383 Co369 2.140 . S
N383 C386 1.346 . S
N383 C387 1.345 . S
C384 C385 1.387 . S
C384 C388 1.391 . S
C385 C384 1.387 . S
C385 C386 1.369 . S
C385 H394 0.929 . S
C386 N383 1.346 . S
C386 C385 1.369 . S
C386 H389 0.928 . S
C387 N383 1.345 . S
C387 C388 1.371 . S
C387 H390 0.931 . S
C388 C384 1.391 . S
C388 C387 1.371 . S
C388 H395 0.930 . S
H389 C386 0.928 . S
H390 C387 0.931 . S
H391 C367 0.930 . S
H392 C364 0.930 . S
H393 C373 0.930 . S
H394 C385 0.929 . S
H395 C388 0.930 . S
C396 C397 1.351 . S
C396 N399 1.368 . S
C396 H401 0.931 . S
C397 C396 1.351 . S
C397 N398 1.373 . S
C397 H425 0.930 . S
N398 C397 1.373 . S
N398 C400 1.340 . S
N399 C396 1.368 . S
N399 C400 1.321 . S
N399 Co402 2.135 . S
C400 N398 1.340 . S
C400 N399 1.321 . S
C400 H424 0.930 . S
H401 C396 0.931 . S
Co402 N399 2.135 . S
Co402 N405 2.121 . S
Co402 O410 2.055 . S
Co402 O413 2.039 . S
Co402 N416 2.140 . S
C403 O404 1.227 . S
C403 O413 1.265 . S
O404 C403 1.227 . S
N405 Co402 2.121 . S
N405 C407 1.375 . S
N405 C408 1.313 . S
C406 C407 1.338 . S
C406 N409 1.377 . S
C406 H426 0.930 . S
C407 N405 1.375 . S
C407 C406 1.338 . S
C407 H411 0.931 . S
C408 N405 1.313 . S
C408 N409 1.344 . S
C408 H412 0.930 . S
N409 C406 1.377 . S
N409 C408 1.344 . S
O410 Co402 2.055 . S
O410 C414 1.253 . S
H411 C407 0.931 . S
H412 C408 0.930 . S
O413 Co402 2.039 . S
O413 C403 1.265 . S
C414 O410 1.253 . S
C414 O415 1.227 . S
O415 C414 1.227 . S
N416 Co402 2.140 . S
N416 C419 1.346 . S
N416 C420 1.345 . S
C417 C418 1.387 . S
C417 C421 1.391 . S
C418 C417 1.387 . S
C418 C419 1.369 . S
C418 H427 0.929 . S
C419 N416 1.346 . S
C419 C418 1.369 . S
C419 H422 0.928 . S
C420 N416 1.345 . S
C420 C421 1.371 . S
C420 H423 0.931 . S
C421 C417 1.391 . S
C421 C420 1.371 . S
C421 H428 0.930 . S
H422 C419 0.928 . S
H423 C420 0.931 . S
H424 C400 0.930 . S
H425 C397 0.930 . S
H426 C406 0.930 . S
H427 C418 0.929 . S
H428 C421 0.930 . S
C429 C430 1.351 . S
C429 N432 1.368 . S
C429 H434 0.931 . S
C430 C429 1.351 . S
C430 N431 1.373 . S
C430 H458 0.930 . S
N431 C430 1.373 . S
N431 C433 1.340 . S
N432 C429 1.368 . S
N432 C433 1.321 . S
N432 Co435 2.135 . S
C433 N431 1.340 . S
C433 N432 1.321 . S
C433 H457 0.930 . S
H434 C429 0.931 . S
Co435 N432 2.135 . S
Co435 N438 2.121 . S
Co435 O443 2.055 . S
Co435 O446 2.039 . S
Co435 N449 2.140 . S
C436 O437 1.227 . S
C436 O446 1.265 . S
O437 C436 1.227 . S
N438 Co435 2.121 . S
N438 C440 1.375 . S
N438 C441 1.313 . S
C439 C440 1.338 . S
C439 N442 1.377 . S
C439 H459 0.930 . S
C440 N438 1.375 . S
C440 C439 1.338 . S
C440 H444 0.931 . S
C441 N438 1.313 . S
C441 N442 1.344 . S
C441 H445 0.930 . S
N442 C439 1.377 . S
N442 C441 1.344 . S
O443 Co435 2.055 . S
O443 C447 1.253 . S
H444 C440 0.931 . S
H445 C441 0.930 . S
O446 Co435 2.039 . S
O446 C436 1.265 . S
C447 O443 1.253 . S
C447 O448 1.227 . S
O448 C447 1.227 . S
N449 Co435 2.140 . S
N449 C452 1.346 . S
N449 C453 1.345 . S
C450 C451 1.387 . S
C450 C454 1.391 . S
C451 C450 1.387 . S
C451 C452 1.369 . S
C451 H460 0.929 . S
C452 N449 1.346 . S
C452 C451 1.369 . S
C452 H455 0.928 . S
C453 N449 1.345 . S
C453 C454 1.371 . S
C453 H456 0.931 . S
C454 C450 1.391 . S
C454 C453 1.371 . S
C454 H461 0.930 . S
H455 C452 0.928 . S
H456 C453 0.931 . S
H457 C433 0.930 . S
H458 C430 0.930 . S
H459 C439 0.930 . S
H460 C451 0.929 . S
H461 C454 0.930 . S
C462 C463 1.351 . S
C462 N465 1.368 . S
C462 H467 0.931 . S
C463 C462 1.351 . S
C463 N464 1.373 . S
C463 H491 0.930 . S
N464 C463 1.373 . S
N464 C466 1.340 . S
N465 C462 1.368 . S
N465 C466 1.321 . S
N465 Co468 2.135 . S
C466 N464 1.340 . S
C466 N465 1.321 . S
C466 H490 0.930 . S
H467 C462 0.931 . S
Co468 N465 2.135 . S
Co468 N471 2.121 . S
Co468 O476 2.055 . S
Co468 O479 2.039 . S
Co468 N482 2.140 . S
C469 O470 1.227 . S
C469 O479 1.265 . S
O470 C469 1.227 . S
N471 Co468 2.121 . S
N471 C473 1.375 . S
N471 C474 1.313 . S
C472 C473 1.338 . S
C472 N475 1.377 . S
C472 H492 0.930 . S
C473 N471 1.375 . S
C473 C472 1.338 . S
C473 H477 0.931 . S
C474 N471 1.313 . S
C474 N475 1.344 . S
C474 H478 0.930 . S
N475 C472 1.377 . S
N475 C474 1.344 . S
O476 Co468 2.055 . S
O476 C480 1.253 . S
H477 C473 0.931 . S
H478 C474 0.930 . S
O479 Co468 2.039 . S
O479 C469 1.265 . S
C480 O476 1.253 . S
C480 O481 1.227 . S
O481 C480 1.227 . S
N482 Co468 2.140 . S
N482 C485 1.346 . S
N482 C486 1.345 . S
C483 C484 1.387 . S
C483 C487 1.391 . S
C484 C483 1.387 . S
C484 C485 1.369 . S
C484 H493 0.929 . S
C485 N482 1.346 . S
C485 C484 1.369 . S
C485 H488 0.928 . S
C486 N482 1.345 . S
C486 C487 1.371 . S
C486 H489 0.931 . S
C487 C483 1.391 . S
C487 C486 1.371 . S
C487 H494 0.930 . S
H488 C485 0.928 . S
H489 C486 0.931 . S
H490 C466 0.930 . S
H491 C463 0.930 . S
H492 C472 0.930 . S
H493 C484 0.929 . S
H494 C487 0.930 . S
C495 C496 1.351 . S
C495 N498 1.368 . S
C495 H500 0.931 . S
C496 C495 1.351 . S
C496 N497 1.373 . S
C496 H524 0.930 . S
N497 C496 1.373 . S
N497 C499 1.340 . S
N498 C495 1.368 . S
N498 C499 1.321 . S
N498 Co501 2.135 . S
C499 N497 1.340 . S
C499 N498 1.321 . S
C499 H523 0.930 . S
H500 C495 0.931 . S
Co501 N498 2.135 . S
Co501 N504 2.121 . S
Co501 O509 2.055 . S
Co501 O512 2.039 . S
Co501 N515 2.140 . S
C502 O503 1.227 . S
C502 O512 1.265 . S
O503 C502 1.227 . S
N504 Co501 2.121 . S
N504 C506 1.375 . S
N504 C507 1.313 . S
C505 C506 1.338 . S
C505 N508 1.377 . S
C505 H525 0.930 . S
C506 N504 1.375 . S
C506 C505 1.338 . S
C506 H510 0.931 . S
C507 N504 1.313 . S
C507 N508 1.344 . S
C507 H511 0.930 . S
N508 C505 1.377 . S
N508 C507 1.344 . S
O509 Co501 2.055 . S
O509 C513 1.253 . S
H510 C506 0.931 . S
H511 C507 0.930 . S
O512 Co501 2.039 . S
O512 C502 1.265 . S
C513 O509 1.253 . S
C513 O514 1.227 . S
O514 C513 1.227 . S
N515 Co501 2.140 . S
N515 C518 1.346 . S
N515 C519 1.345 . S
C516 C517 1.387 . S
C516 C520 1.391 . S
C517 C516 1.387 . S
C517 C518 1.369 . S
C517 H526 0.929 . S
C518 N515 1.346 . S
C518 C517 1.369 . S
C518 H521 0.928 . S
C519 N515 1.345 . S
C519 C520 1.371 . S
C519 H522 0.931 . S
C520 C516 1.391 . S
C520 C519 1.371 . S
C520 H527 0.930 . S
H521 C518 0.928 . S
H522 C519 0.931 . S
H523 C499 0.930 . S
H524 C496 0.930 . S
H525 C505 0.930 . S
H526 C517 0.929 . S
H527 C520 0.930 . S
H528 C534 0.930 . S
H529 C538 0.930 . S
H530 C543 0.929 . S
H531 C541 0.929 . S
H532 C536 0.929 . S
H533 C542 0.929 . S
C534 H528 0.930 . S
C534 C535 1.367 . S
C534 C542 1.378 . S
C535 C534 1.367 . S
C535 C543 1.433 . S
C536 H532 0.929 . S
C536 C538 1.378 . S
C536 C540 1.350 . S
C537 C540 1.463 . S
C537 C542 1.350 . S
C537 N545 1.427 . S
C538 H529 0.930 . S
C538 C536 1.378 . S
C538 C539 1.367 . S
C539 C538 1.367 . S
C539 C541 1.433 . S
C540 C536 1.350 . S
C540 C537 1.463 . S
C540 N544 1.427 . S
C541 H531 0.929 . S
C541 C539 1.433 . S
C541 N544 1.384 . S
C542 H533 0.929 . S
C542 C534 1.378 . S
C542 C537 1.350 . S
C543 H530 0.929 . S
C543 C535 1.433 . S
C543 N545 1.384 . S
N544 C540 1.427 . S
N544 C541 1.384 . S
N545 C537 1.427 . S
N545 C543 1.384 . S
H546 C552 0.930 . S
H547 C556 0.930 . S
H548 C561 0.929 . S
H549 C559 0.929 . S
H550 C554 0.929 . S
H551 C560 0.929 . S
C552 H546 0.930 . S
C552 C553 1.367 . S
C552 C560 1.378 . S
C553 C552 1.367 . S
C553 C561 1.433 . S
C554 H550 0.929 . S
C554 C556 1.378 . S
C554 C558 1.350 . S
C555 C558 1.463 . S
C555 C560 1.350 . S
C555 N563 1.427 . S
C556 H547 0.930 . S
C556 C554 1.378 . S
C556 C557 1.367 . S
C557 C556 1.367 . S
C557 C559 1.433 . S
C558 C554 1.350 . S
C558 C555 1.463 . S
C558 N562 1.427 . S
C559 H549 0.929 . S
C559 C557 1.433 . S
C559 N562 1.384 . S
C560 H551 0.929 . S
C560 C552 1.378 . S
C560 C555 1.350 . S
C561 H548 0.929 . S
C561 C553 1.433 . S
C561 N563 1.384 . S
N562 C558 1.427 . S
N562 C559 1.384 . S
N563 C555 1.427 . S
N563 C561 1.384 . S
H564 C570 0.930 . S
H565 C574 0.930 . S
H566 C579 0.929 . S
H567 C577 0.929 . S
H568 C572 0.929 . S
H569 C578 0.929 . S
C570 H564 0.930 . S
C570 C571 1.367 . S
C570 C578 1.378 . S
C571 C570 1.367 . S
C571 C579 1.433 . S
C572 H568 0.929 . S
C572 C574 1.378 . S
C572 C576 1.350 . S
C573 C576 1.463 . S
C573 C578 1.350 . S
C573 N581 1.427 . S
C574 H565 0.930 . S
C574 C572 1.378 . S
C574 C575 1.367 . S
C575 C574 1.367 . S
C575 C577 1.433 . S
C576 C572 1.350 . S
C576 C573 1.463 . S
C576 N580 1.427 . S
C577 H567 0.929 . S
C577 C575 1.433 . S
C577 N580 1.384 . S
C578 H569 0.929 . S
C578 C570 1.378 . S
C578 C573 1.350 . S
C579 H566 0.929 . S
C579 C571 1.433 . S
C579 N581 1.384 . S
N580 C576 1.427 . S
N580 C577 1.384 . S
N581 C573 1.427 . S
N581 C579 1.384 . S
H582 C588 0.930 . S
H583 C592 0.930 . S
H584 C597 0.929 . S
H585 C595 0.929 . S
H586 C590 0.929 . S
H587 C596 0.929 . S
C588 H582 0.930 . S
C588 C589 1.367 . S
C588 C596 1.378 . S
C589 C588 1.367 . S
C589 C597 1.433 . S
C590 H586 0.929 . S
C590 C592 1.378 . S
C590 C594 1.350 . S
C591 C594 1.463 . S
C591 C596 1.350 . S
C591 N599 1.427 . S
C592 H583 0.930 . S
C592 C590 1.378 . S
C592 C593 1.367 . S
C593 C592 1.367 . S
C593 C595 1.433 . S
C594 C590 1.350 . S
C594 C591 1.463 . S
C594 N598 1.427 . S
C595 H585 0.929 . S
C595 C593 1.433 . S
C595 N598 1.384 . S
C596 H587 0.929 . S
C596 C588 1.378 . S
C596 C591 1.350 . S
C597 H584 0.929 . S
C597 C589 1.433 . S
C597 N599 1.384 . S
N598 C594 1.427 . S
N598 C595 1.384 . S
N599 C591 1.427 . S
N599 C597 1.384 . S
H600 C606 0.930 . S
H601 C610 0.930 . S
H602 C615 0.929 . S
H603 C613 0.929 . S
H604 C608 0.929 . S
H605 C614 0.929 . S
C606 H600 0.930 . S
C606 C607 1.367 . S
C606 C614 1.378 . S
C607 C606 1.367 . S
C607 C615 1.433 . S
C608 H604 0.929 . S
C608 C610 1.378 . S
C608 C612 1.350 . S
C609 C612 1.463 . S
C609 C614 1.350 . S
C609 N617 1.427 . S
C610 H601 0.930 . S
C610 C608 1.378 . S
C610 C611 1.367 . S
C611 C610 1.367 . S
C611 C613 1.433 . S
C612 C608 1.350 . S
C612 C609 1.463 . S
C612 N616 1.427 . S
C613 H603 0.929 . S
C613 C611 1.433 . S
C613 N616 1.384 . S
C614 H605 0.929 . S
C614 C606 1.378 . S
C614 C609 1.350 . S
C615 H602 0.929 . S
C615 C607 1.433 . S
C615 N617 1.384 . S
N616 C612 1.427 . S
N616 C613 1.384 . S
N617 C609 1.427 . S
N617 C615 1.384 . S
H618 C624 0.930 . S
H619 C628 0.930 . S
H620 C633 0.929 . S
H621 C631 0.929 . S
H622 C626 0.929 . S
H623 C632 0.929 . S
C624 H618 0.930 . S
C624 C625 1.367 . S
C624 C632 1.378 . S
C625 C624 1.367 . S
C625 C633 1.433 . S
C626 H622 0.929 . S
C626 C628 1.378 . S
C626 C630 1.350 . S
C627 C630 1.463 . S
C627 C632 1.350 . S
C627 N635 1.427 . S
C628 H619 0.930 . S
C628 C626 1.378 . S
C628 C629 1.367 . S
C629 C628 1.367 . S
C629 C631 1.433 . S
C630 C626 1.350 . S
C630 C627 1.463 . S
C630 N634 1.427 . S
C631 H621 0.929 . S
C631 C629 1.433 . S
C631 N634 1.384 . S
C632 H623 0.929 . S
C632 C624 1.378 . S
C632 C627 1.350 . S
C633 H620 0.929 . S
C633 C625 1.433 . S
C633 N635 1.384 . S
N634 C630 1.427 . S
N634 C631 1.384 . S
N635 C627 1.427 . S
N635 C633 1.384 . S
H636 C642 0.930 . S
H637 C646 0.930 . S
H638 C651 0.929 . S
H639 C649 0.929 . S
H640 C644 0.929 . S
H641 C650 0.929 . S
C642 H636 0.930 . S
C642 C643 1.367 . S
C642 C650 1.378 . S
C643 C642 1.367 . S
C643 C651 1.433 . S
C644 H640 0.929 . S
C644 C646 1.378 . S
C644 C648 1.350 . S
C645 C648 1.463 . S
C645 C650 1.350 . S
C645 N653 1.427 . S
C646 H637 0.930 . S
C646 C644 1.378 . S
C646 C647 1.367 . S
C647 C646 1.367 . S
C647 C649 1.433 . S
C648 C644 1.350 . S
C648 C645 1.463 . S
C648 N652 1.427 . S
C649 H639 0.929 . S
C649 C647 1.433 . S
C649 N652 1.384 . S
C650 H641 0.929 . S
C650 C642 1.378 . S
C650 C645 1.350 . S
C651 H638 0.929 . S
C651 C643 1.433 . S
C651 N653 1.384 . S
N652 C648 1.427 . S
N652 C649 1.384 . S
N653 C645 1.427 . S
N653 C651 1.384 . S
H654 C660 0.930 . S
H655 C664 0.930 . S
H656 C669 0.929 . S
H657 C667 0.929 . S
H658 C662 0.929 . S
H659 C668 0.929 . S
C660 H654 0.930 . S
C660 C661 1.367 . S
C660 C668 1.378 . S
C661 C660 1.367 . S
C661 C669 1.433 . S
C662 H658 0.929 . S
C662 C664 1.378 . S
C662 C666 1.350 . S
C663 C666 1.463 . S
C663 C668 1.350 . S
C663 N671 1.427 . S
C664 H655 0.930 . S
C664 C662 1.378 . S
C664 C665 1.367 . S
C665 C664 1.367 . S
C665 C667 1.433 . S
C666 C662 1.350 . S
C666 C663 1.463 . S
C666 N670 1.427 . S
C667 H657 0.929 . S
C667 C665 1.433 . S
C667 N670 1.384 . S
C668 H659 0.929 . S
C668 C660 1.378 . S
C668 C663 1.350 . S
C669 H656 0.929 . S
C669 C661 1.433 . S
C669 N671 1.384 . S
N670 C666 1.427 . S
N670 C667 1.384 . S
N671 C663 1.427 . S
N671 C669 1.384 . S
H672 C678 0.930 . S
H673 C682 0.930 . S
H674 C687 0.929 . S
H675 C685 0.929 . S
H676 C680 0.929 . S
H677 C686 0.929 . S
C678 H672 0.930 . S
C678 C679 1.367 . S
C678 C686 1.378 . S
C679 C678 1.367 . S
C679 C687 1.433 . S
C680 H676 0.929 . S
C680 C682 1.378 . S
C680 C684 1.350 . S
C681 C684 1.463 1_554 S
C681 C686 1.350 . S
C681 N689 1.427 . S
C682 H673 0.930 . S
C682 C680 1.378 . S
C682 C683 1.367 . S
C683 C682 1.367 . S
C683 C685 1.433 . S
C684 C680 1.350 . S
C684 C681 1.463 1_556 S
C684 N688 1.427 . S
C685 H675 0.929 . S
C685 C683 1.433 . S
C685 N688 1.384 . S
C686 H677 0.929 . S
C686 C678 1.378 . S
C686 C681 1.350 . S
C687 H674 0.929 . S
C687 C679 1.433 . S
C687 N689 1.384 . S
N688 C684 1.427 . S
N688 C685 1.384 . S
N689 C681 1.427 . S
N689 C687 1.384 . S
H690 C696 0.930 . S
H691 C700 0.930 . S
H692 C705 0.929 . S
H693 C703 0.929 . S
H694 C698 0.929 . S
H695 C704 0.929 . S
C696 H690 0.930 . S
C696 C697 1.367 . S
C696 C704 1.378 . S
C697 C696 1.367 . S
C697 C705 1.433 . S
C698 H694 0.929 . S
C698 C700 1.378 . S
C698 C702 1.350 . S
C699 C702 1.463 . S
C699 C704 1.350 . S
C699 N707 1.427 . S
C700 H691 0.930 . S
C700 C698 1.378 . S
C700 C701 1.367 . S
C701 C700 1.367 . S
C701 C703 1.433 . S
C702 C698 1.350 . S
C702 C699 1.463 . S
C702 N706 1.427 . S
C703 H693 0.929 . S
C703 C701 1.433 . S
C703 N706 1.384 . S
C704 H695 0.929 . S
C704 C696 1.378 . S
C704 C699 1.350 . S
C705 H692 0.929 . S
C705 C697 1.433 . S
C705 N707 1.384 . S
N706 C702 1.427 . S
N706 C703 1.384 . S
N707 C699 1.427 . S
N707 C705 1.384 . S
H708 C714 0.930 . S
H709 C718 0.930 . S
H710 C723 0.929 . S
H711 C721 0.929 . S
H712 C716 0.929 . S
H713 C722 0.929 . S
C714 H708 0.930 . S
C714 C715 1.367 . S
C714 C722 1.378 . S
C715 C714 1.367 . S
C715 C723 1.433 . S
C716 H712 0.929 . S
C716 C718 1.378 . S
C716 C720 1.350 . S
C717 C720 1.463 1_556 S
C717 C722 1.350 . S
C717 N725 1.427 . S
C718 H709 0.930 . S
C718 C716 1.378 . S
C718 C719 1.367 . S
C719 C718 1.367 . S
C719 C721 1.433 . S
C720 C716 1.350 . S
C720 C717 1.463 1_554 S
C720 N724 1.427 . S
C721 H711 0.929 . S
C721 C719 1.433 . S
C721 N724 1.384 . S
C722 H713 0.929 . S
C722 C714 1.378 . S
C722 C717 1.350 . S
C723 H710 0.929 . S
C723 C715 1.433 . S
C723 N725 1.384 . S
N724 C720 1.427 . S
N724 C721 1.384 . S
N725 C717 1.427 . S
N725 C723 1.384 . S
H726 C732 0.930 . S
H727 C736 0.930 . S
H728 C741 0.929 . S
H729 C739 0.929 . S
H730 C734 0.929 . S
H731 C740 0.929 . S
C732 H726 0.930 . S
C732 C733 1.367 . S
C732 C740 1.378 . S
C733 C732 1.367 . S
C733 C741 1.433 . S
C734 H730 0.929 . S
C734 C736 1.378 . S
C734 C738 1.350 . S
C735 C738 1.463 . S
C735 C740 1.350 . S
C735 N743 1.427 . S
C736 H727 0.930 . S
C736 C734 1.378 . S
C736 C737 1.367 . S
C737 C736 1.367 . S
C737 C739 1.433 . S
C738 C734 1.350 . S
C738 C735 1.463 . S
C738 N742 1.427 . S
C739 H729 0.929 . S
C739 C737 1.433 . S
C739 N742 1.384 . S
C740 H731 0.929 . S
C740 C732 1.378 . S
C740 C735 1.350 . S
C741 H728 0.929 . S
C741 C733 1.433 . S
C741 N743 1.384 . S
N742 C738 1.427 . S
N742 C739 1.384 . S
N743 C735 1.427 . S
N743 C741 1.384 . S
H744 C750 0.930 . S
H745 C754 0.930 . S
H746 C759 0.929 . S
H747 C757 0.929 . S
H748 C752 0.929 . S
H749 C758 0.929 . S
C750 H744 0.930 . S
C750 C751 1.367 . S
C750 C758 1.378 . S
C751 C750 1.367 . S
C751 C759 1.433 . S
C752 H748 0.929 . S
C752 C754 1.378 . S
C752 C756 1.350 . S
C753 C756 1.463 1_554 S
C753 C758 1.350 . S
C753 N761 1.427 . S
C754 H745 0.930 . S
C754 C752 1.378 . S
C754 C755 1.367 . S
C755 C754 1.367 . S
C755 C757 1.433 . S
C756 C752 1.350 . S
C756 C753 1.463 1_556 S
C756 N760 1.427 . S
C757 H747 0.929 . S
C757 C755 1.433 . S
C757 N760 1.384 . S
C758 H749 0.929 . S
C758 C750 1.378 . S
C758 C753 1.350 . S
C759 H746 0.929 . S
C759 C751 1.433 . S
C759 N761 1.384 . S
N760 C756 1.427 . S
N760 C757 1.384 . S
N761 C753 1.427 . S
N761 C759 1.384 . S
H762 C768 0.930 . S
H763 C772 0.930 . S
H764 C777 0.929 . S
H765 C775 0.929 . S
H766 C770 0.929 . S
H767 C776 0.929 . S
C768 H762 0.930 . S
C768 C769 1.367 . S
C768 C776 1.378 . S
C769 C768 1.367 . S
C769 C777 1.433 . S
C770 H766 0.929 . S
C770 C772 1.378 . S
C770 C774 1.350 . S
C771 C774 1.463 . S
C771 C776 1.350 . S
C771 N779 1.427 . S
C772 H763 0.930 . S
C772 C770 1.378 . S
C772 C773 1.367 . S
C773 C772 1.367 . S
C773 C775 1.433 . S
C774 C770 1.350 . S
C774 C771 1.463 . S
C774 N778 1.427 . S
C775 H765 0.929 . S
C775 C773 1.433 . S
C775 N778 1.384 . S
C776 H767 0.929 . S
C776 C768 1.378 . S
C776 C771 1.350 . S
C777 H764 0.929 . S
C777 C769 1.433 . S
C777 N779 1.384 . S
N778 C774 1.427 . S
N778 C775 1.384 . S
N779 C771 1.427 . S
N779 C777 1.384 . S
H780 C786 0.930 . S
H781 C790 0.930 . S
H782 C795 0.929 . S
H783 C793 0.929 . S
H784 C788 0.929 . S
H785 C794 0.929 . S
C786 H780 0.930 . S
C786 C787 1.367 . S
C786 C794 1.378 . S
C787 C786 1.367 . S
C787 C795 1.433 . S
C788 H784 0.929 . S
C788 C790 1.378 . S
C788 C792 1.350 . S
C789 C792 1.463 1_554 S
C789 C794 1.350 . S
C789 N797 1.427 . S
C790 H781 0.930 . S
C790 C788 1.378 . S
C790 C791 1.367 . S
C791 C790 1.367 . S
C791 C793 1.433 . S
C792 C788 1.350 . S
C792 C789 1.463 1_556 S
C792 N796 1.427 . S
C793 H783 0.929 . S
C793 C791 1.433 . S
C793 N796 1.384 . S
C794 H785 0.929 . S
C794 C786 1.378 . S
C794 C789 1.350 . S
C795 H782 0.929 . S
C795 C787 1.433 . S
C795 N797 1.384 . S
N796 C792 1.427 . S
N796 C793 1.384 . S
N797 C789 1.427 . S
N797 C795 1.384 . S
H798 C804 0.930 . S
H799 C808 0.930 . S
H800 C813 0.929 . S
H801 C811 0.929 . S
H802 C806 0.929 . S
H803 C812 0.929 . S
C804 H798 0.930 . S
C804 C805 1.367 . S
C804 C812 1.378 . S
C805 C804 1.367 . S
C805 C813 1.433 . S
C806 H802 0.929 . S
C806 C808 1.378 . S
C806 C810 1.350 . S
C807 C810 1.463 . S
C807 C812 1.350 . S
C807 N815 1.427 . S
C808 H799 0.930 . S
C808 C806 1.378 . S
C808 C809 1.367 . S
C809 C808 1.367 . S
C809 C811 1.433 . S
C810 C806 1.350 . S
C810 C807 1.463 . S
C810 N814 1.427 . S
C811 H801 0.929 . S
C811 C809 1.433 . S
C811 N814 1.384 . S
C812 H803 0.929 . S
C812 C804 1.378 . S
C812 C807 1.350 . S
C813 H800 0.929 . S
C813 C805 1.433 . S
C813 N815 1.384 . S
N814 C810 1.427 . S
N814 C811 1.384 . S
N815 C807 1.427 . S
N815 C813 1.384 . S
H816 C822 0.930 . S
H817 C826 0.930 . S
H818 C831 0.929 . S
H819 C829 0.929 . S
H820 C824 0.929 1_455 S
H821 C830 0.929 1_655 S
C822 H816 0.930 . S
C822 C823 1.367 . S
C822 C830 1.378 . S
C823 C822 1.367 . S
C823 C831 1.433 . S
C824 H820 0.929 1_655 S
C824 C826 1.378 . S
C824 C828 1.350 . S
C825 C828 1.463 1_455 S
C825 C830 1.350 . S
C825 N833 1.427 . S
C826 H817 0.930 . S
C826 C824 1.378 . S
C826 C827 1.367 . S
C827 C826 1.367 . S
C827 C829 1.433 . S
C828 C824 1.350 . S
C828 C825 1.463 1_655 S
C828 N832 1.427 . S
C829 H819 0.929 . S
C829 C827 1.433 . S
C829 N832 1.384 . S
C830 H821 0.929 1_455 S
C830 C822 1.378 . S
C830 C825 1.350 . S
C831 H818 0.929 . S
C831 C823 1.433 . S
C831 N833 1.384 . S
N832 C828 1.427 . S
N832 C829 1.384 . S
N833 C825 1.427 . S
N833 C831 1.384 . S
H834 C840 0.930 . S
H835 C844 0.930 . S
H836 C849 0.929 . S
H837 C847 0.929 . S
H838 C842 0.929 . S
H839 C848 0.929 . S
C840 H834 0.930 . S
C840 C841 1.367 . S
C840 C848 1.378 . S
C841 C840 1.367 . S
C841 C849 1.433 . S
C842 H838 0.929 . S
C842 C844 1.378 . S
C842 C846 1.350 . S
C843 C846 1.463 1_565 S
C843 C848 1.350 . S
C843 N851 1.427 . S
C844 H835 0.930 . S
C844 C842 1.378 . S
C844 C845 1.367 . S
C845 C844 1.367 . S
C845 C847 1.433 . S
C846 C842 1.350 . S
C846 C843 1.463 1_545 S
C846 N850 1.427 . S
C847 H837 0.929 . S
C847 C845 1.433 . S
C847 N850 1.384 . S
C848 H839 0.929 . S
C848 C840 1.378 . S
C848 C843 1.350 . S
C849 H836 0.929 . S
C849 C841 1.433 . S
C849 N851 1.384 . S
N850 C846 1.427 . S
N850 C847 1.384 . S
N851 C843 1.427 . S
N851 C849 1.384 . S
H852 C858 0.930 . S
H853 C862 0.930 . S
H854 C867 0.929 . S
H855 C865 0.929 . S
H856 C860 0.929 1_565 S
H857 C866 0.929 1_545 S
C858 H852 0.930 . S
C858 C859 1.367 . S
C858 C866 1.378 . S
C859 C858 1.367 . S
C859 C867 1.433 . S
C860 H856 0.929 1_545 S
C860 C862 1.378 . S
C860 C864 1.350 . S
C861 C864 1.463 1_565 S
C861 C866 1.350 . S
C861 N869 1.427 . S
C862 H853 0.930 . S
C862 C860 1.378 . S
C862 C863 1.367 . S
C863 C862 1.367 . S
C863 C865 1.433 . S
C864 C860 1.350 . S
C864 C861 1.463 1_545 S
C864 N868 1.427 . S
C865 H855 0.929 . S
C865 C863 1.433 . S
C865 N868 1.384 . S
C866 H857 0.929 1_565 S
C866 C858 1.378 . S
C866 C861 1.350 . S
C867 H854 0.929 . S
C867 C859 1.433 . S
C867 N869 1.384 . S
N868 C864 1.427 . S
N868 C865 1.384 . S
N869 C861 1.427 . S
N869 C867 1.384 . S
H870 C876 0.930 . S
H871 C880 0.930 . S
H872 C885 0.929 . S
H873 C883 0.929 . S
H874 C878 0.929 . S
H875 C884 0.929 . S
C876 H870 0.930 . S
C876 C877 1.367 . S
C876 C884 1.378 . S
C877 C876 1.367 . S
C877 C885 1.433 . S
C878 H874 0.929 . S
C878 C880 1.378 . S
C878 C882 1.350 . S
C879 C882 1.463 1_455 S
C879 C884 1.350 . S
C879 N887 1.427 . S
C880 H871 0.930 . S
C880 C878 1.378 . S
C880 C881 1.367 . S
C881 C880 1.367 . S
C881 C883 1.433 . S
C882 C878 1.350 . S
C882 C879 1.463 1_655 S
C882 N886 1.427 . S
C883 H873 0.929 . S
C883 C881 1.433 . S
C883 N886 1.384 . S
C884 H875 0.929 . S
C884 C876 1.378 . S
C884 C879 1.350 . S
C885 H872 0.929 . S
C885 C877 1.433 . S
C885 N887 1.384 . S
N886 C882 1.427 . S
N886 C883 1.384 . S
N887 C879 1.427 . S
N887 C885 1.384 . S
H888 C894 0.930 . S
H889 C898 0.930 . S
H890 C903 0.929 . S
H891 C901 0.929 . S
H892 C896 0.929 . S
H893 C902 0.929 . S
C894 H888 0.930 . S
C894 C895 1.367 . S
C894 C902 1.378 . S
C895 C894 1.367 . S
C895 C903 1.433 . S
C896 H892 0.929 . S
C896 C898 1.378 . S
C896 C900 1.350 . S
C897 C900 1.463 1_655 S
C897 C902 1.350 . S
C897 N905 1.427 . S
C898 H889 0.930 . S
C898 C896 1.378 . S
C898 C899 1.367 . S
C899 C898 1.367 . S
C899 C901 1.433 . S
C900 C896 1.350 . S
C900 C897 1.463 1_455 S
C900 N904 1.427 . S
C901 H891 0.929 . S
C901 C899 1.433 . S
C901 N904 1.384 . S
C902 H893 0.929 . S
C902 C894 1.378 . S
C902 C897 1.350 . S
C903 H890 0.929 . S
C903 C895 1.433 . S
C903 N905 1.384 . S
N904 C900 1.427 . S
N904 C901 1.384 . S
N905 C897 1.427 . S
N905 C903 1.384 . S
H906 C912 0.930 . S
H907 C916 0.930 . S
H908 C921 0.929 . S
H909 C919 0.929 . S
H910 C914 0.929 . S
H911 C920 0.929 . S
C912 H906 0.930 . S
C912 C913 1.367 . S
C912 C920 1.378 . S
C913 C912 1.367 . S
C913 C921 1.433 . S
C914 H910 0.929 . S
C914 C916 1.378 . S
C914 C918 1.350 . S
C915 C918 1.463 1_545 S
C915 C920 1.350 . S
C915 N923 1.427 . S
C916 H907 0.930 . S
C916 C914 1.378 . S
C916 C917 1.367 . S
C917 C916 1.367 . S
C917 C919 1.433 . S
C918 C914 1.350 . S
C918 C915 1.463 1_565 S
C918 N922 1.427 . S
C919 H909 0.929 . S
C919 C917 1.433 . S
C919 N922 1.384 . S
C920 H911 0.929 . S
C920 C912 1.378 . S
C920 C915 1.350 . S
C921 H908 0.929 . S
C921 C913 1.433 . S
C921 N923 1.384 . S
N922 C918 1.427 . S
N922 C919 1.384 . S
N923 C915 1.427 . S
N923 C921 1.384 . S
H924 C930 0.930 . S
H925 C934 0.930 . S
H926 C939 0.929 . S
H927 C937 0.929 . S
H928 C932 0.929 . S
H929 C938 0.929 . S
C930 H924 0.930 . S
C930 C931 1.367 . S
C930 C938 1.378 . S
C931 C930 1.367 . S
C931 C939 1.433 . S
C932 H928 0.929 . S
C932 C934 1.378 . S
C932 C936 1.350 . S
C933 C936 1.463 1_565 S
C933 C938 1.350 . S
C933 N941 1.427 . S
C934 H925 0.930 . S
C934 C932 1.378 . S
C934 C935 1.367 . S
C935 C934 1.367 . S
C935 C937 1.433 . S
C936 C932 1.350 . S
C936 C933 1.463 1_545 S
C936 N940 1.427 . S
C937 H927 0.929 . S
C937 C935 1.433 . S
C937 N940 1.384 . S
C938 H929 0.929 . S
C938 C930 1.378 . S
C938 C933 1.350 . S
C939 H926 0.929 . S
C939 C931 1.433 . S
C939 N941 1.384 . S
N940 C936 1.427 . S
N940 C937 1.384 . S
N941 C933 1.427 . S
N941 C939 1.384 . S
H942 C948 0.930 . S
H943 C952 0.930 . S
H944 C957 0.929 . S
H945 C955 0.929 . S
H946 C950 0.930 . S
H947 C956 0.930 . S
C948 H942 0.930 . S
C948 C949 1.367 . S
C948 C956 1.378 . S
C949 C948 1.367 . S
C949 C957 1.433 . S
C950 H946 0.930 . S
C950 C952 1.378 . S
C950 C954 1.350 . S
C951 C954 1.463 1_455 S
C951 C956 1.350 . S
C951 N959 1.427 . S
C952 H943 0.930 . S
C952 C950 1.378 . S
C952 C953 1.367 . S
C953 C952 1.367 . S
C953 C955 1.433 . S
C954 C950 1.350 . S
C954 C951 1.463 1_655 S
C954 N958 1.427 . S
C955 H945 0.929 . S
C955 C953 1.433 . S
C955 N958 1.384 . S
C956 H947 0.930 . S
C956 C948 1.378 . S
C956 C951 1.350 . S
C957 H944 0.929 . S
C957 C949 1.433 . S
C957 N959 1.384 . S
N958 C954 1.427 . S
N958 C955 1.384 . S
N959 C951 1.427 . S
N959 C957 1.384 . S
H960 C966 0.930 . S
H961 C970 0.930 . S
H962 C975 0.929 . S
H963 C973 0.929 . S
H964 C968 0.929 . S
H965 C974 0.929 . S
C966 H960 0.930 . S
C966 C967 1.367 . S
C966 C974 1.378 . S
C967 C966 1.367 . S
C967 C975 1.433 . S
C968 H964 0.929 . S
C968 C970 1.378 . S
C968 C972 1.350 . S
C969 C972 1.463 . S
C969 C974 1.350 . S
C969 N977 1.427 . S
C970 H961 0.930 . S
C970 C968 1.378 . S
C970 C971 1.367 . S
C971 C970 1.367 . S
C971 C973 1.433 . S
C972 C968 1.350 . S
C972 C969 1.463 . S
C972 N976 1.427 . S
C973 H963 0.929 . S
C973 C971 1.433 . S
C973 N976 1.384 . S
C974 H965 0.929 . S
C974 C966 1.378 . S
C974 C969 1.350 . S
C975 H962 0.929 . S
C975 C967 1.433 . S
C975 N977 1.384 . S
N976 C972 1.427 . S
N976 C973 1.384 . S
N977 C969 1.427 . S
N977 C975 1.384 . S
H978 C984 0.930 . S
H979 C988 0.930 . S
H980 C993 0.929 . S
H981 C991 0.929 . S
H982 C986 0.929 . S
H983 C992 0.929 . S
C984 H978 0.930 . S
C984 C985 1.367 . S
C984 C992 1.378 . S
C985 C984 1.367 . S
C985 C993 1.433 . S
C986 H982 0.929 . S
C986 C988 1.378 . S
C986 C990 1.350 . S
C987 C990 1.463 . S
C987 C992 1.350 . S
C987 N995 1.427 . S
C988 H979 0.930 . S
C988 C986 1.378 . S
C988 C989 1.367 . S
C989 C988 1.367 . S
C989 C991 1.433 . S
C990 C986 1.350 . S
C990 C987 1.463 . S
C990 N994 1.427 . S
C991 H981 0.929 . S
C991 C989 1.433 . S
C991 N994 1.384 . S
C992 H983 0.929 . S
C992 C984 1.378 . S
C992 C987 1.350 . S
C993 H980 0.929 . S
C993 C985 1.433 . S
C993 N995 1.384 . S
N994 C990 1.427 . S
N994 C991 1.384 . S
N995 C987 1.427 . S
N995 C993 1.384 . S
H996 C1002 0.930 . S
H997 C1006 0.930 . S
H998 C1011 0.929 . S
H999 C1009 0.929 . S
H1000 C1004 0.929 . S
H1001 C1010 0.929 . S
C1002 H996 0.930 . S
C1002 C1003 1.367 . S
C1002 C1010 1.378 . S
C1003 C1002 1.367 . S
C1003 C1011 1.433 . S
C1004 H1000 0.929 . S
C1004 C1006 1.378 . S
C1004 C1008 1.350 . S
C1005 C1008 1.463 . S
C1005 C1010 1.350 . S
C1005 N1013 1.427 . S
C1006 H997 0.930 . S
C1006 C1004 1.378 . S
C1006 C1007 1.367 . S
C1007 C1006 1.367 . S
C1007 C1009 1.433 . S
C1008 C1004 1.350 . S
C1008 C1005 1.463 . S
C1008 N1012 1.427 . S
C1009 H999 0.929 . S
C1009 C1007 1.433 . S
C1009 N1012 1.384 . S
C1010 H1001 0.929 . S
C1010 C1002 1.378 . S
C1010 C1005 1.350 . S
C1011 H998 0.929 . S
C1011 C1003 1.433 . S
C1011 N1013 1.384 . S
N1012 C1008 1.427 . S
N1012 C1009 1.384 . S
N1013 C1005 1.427 . S
N1013 C1011 1.384 . S
H1014 C1020 0.930 . S
H1015 C1024 0.930 . S
H1016 C1029 0.929 . S
H1017 C1027 0.929 . S
H1018 C1022 0.929 . S
H1019 C1028 0.929 . S
C1020 H1014 0.930 . S
C1020 C1021 1.367 . S
C1020 C1028 1.378 . S
C1021 C1020 1.367 . S
C1021 C1029 1.433 . S
C1022 H1018 0.929 . S
C1022 C1024 1.378 . S
C1022 C1026 1.350 . S
C1023 C1026 1.463 . S
C1023 C1028 1.350 . S
C1023 N1031 1.427 . S
C1024 H1015 0.930 . S
C1024 C1022 1.378 . S
C1024 C1025 1.367 . S
C1025 C1024 1.367 . S
C1025 C1027 1.433 . S
C1026 C1022 1.350 . S
C1026 C1023 1.463 . S
C1026 N1030 1.427 . S
C1027 H1017 0.929 . S
C1027 C1025 1.433 . S
C1027 N1030 1.384 . S
C1028 H1019 0.929 . S
C1028 C1020 1.378 . S
C1028 C1023 1.350 . S
C1029 H1016 0.929 . S
C1029 C1021 1.433 . S
C1029 N1031 1.384 . S
N1030 C1026 1.427 . S
N1030 C1027 1.384 . S
N1031 C1023 1.427 . S
N1031 C1029 1.384 . S
H1032 C1038 0.930 . S
H1033 C1042 0.930 . S
H1034 C1047 0.929 . S
H1035 C1045 0.929 . S
H1036 C1040 0.929 . S
H1037 C1046 0.929 . S
C1038 H1032 0.930 . S
C1038 C1039 1.367 . S
C1038 C1046 1.378 . S
C1039 C1038 1.367 . S
C1039 C1047 1.433 . S
C1040 H1036 0.929 . S
C1040 C1042 1.378 . S
C1040 C1044 1.350 . S
C1041 C1044 1.463 . S
C1041 C1046 1.350 . S
C1041 N1049 1.427 . S
C1042 H1033 0.930 . S
C1042 C1040 1.378 . S
C1042 C1043 1.367 . S
C1043 C1042 1.367 . S
C1043 C1045 1.433 . S
C1044 C1040 1.350 . S
C1044 C1041 1.463 . S
C1044 N1048 1.427 . S
C1045 H1035 0.929 . S
C1045 C1043 1.433 . S
C1045 N1048 1.384 . S
C1046 H1037 0.929 . S
C1046 C1038 1.378 . S
C1046 C1041 1.350 . S
C1047 H1034 0.929 . S
C1047 C1039 1.433 . S
C1047 N1049 1.384 . S
N1048 C1044 1.427 . S
N1048 C1045 1.384 . S
N1049 C1041 1.427 . S
N1049 C1047 1.384 . S
H1050 C1056 0.930 . S
H1051 C1060 0.930 . S
H1052 C1065 0.929 . S
H1053 C1063 0.929 . S
H1054 C1058 0.929 . S
H1055 C1064 0.929 . S
C1056 H1050 0.930 . S
C1056 C1057 1.367 . S
C1056 C1064 1.378 . S
C1057 C1056 1.367 . S
C1057 C1065 1.433 . S
C1058 H1054 0.929 . S
C1058 C1060 1.378 . S
C1058 C1062 1.350 . S
C1059 C1062 1.463 . S
C1059 C1064 1.350 . S
C1059 N1067 1.427 . S
C1060 H1051 0.930 . S
C1060 C1058 1.378 . S
C1060 C1061 1.367 . S
C1061 C1060 1.367 . S
C1061 C1063 1.433 . S
C1062 C1058 1.350 . S
C1062 C1059 1.463 . S
C1062 N1066 1.427 . S
C1063 H1053 0.929 . S
C1063 C1061 1.433 . S
C1063 N1066 1.384 . S
C1064 H1055 0.929 . S
C1064 C1056 1.378 . S
C1064 C1059 1.350 . S
C1065 H1052 0.929 . S
C1065 C1057 1.433 . S
C1065 N1067 1.384 . S
N1066 C1062 1.427 . S
N1066 C1063 1.384 . S
N1067 C1059 1.427 . S
N1067 C1065 1.384 . S
H1068 C1074 0.930 . S
H1069 C1078 0.930 . S
H1070 C1083 0.929 . S
H1071 C1081 0.929 . S
H1072 C1076 0.929 . S
H1073 C1082 0.929 . S
C1074 H1068 0.930 . S
C1074 C1075 1.367 . S
C1074 C1082 1.378 . S
C1075 C1074 1.367 . S
C1075 C1083 1.433 . S
C1076 H1072 0.929 . S
C1076 C1078 1.378 . S
C1076 C1080 1.350 . S
C1077 C1080 1.463 . S
C1077 C1082 1.350 . S
C1077 N1085 1.427 . S
C1078 H1069 0.930 . S
C1078 C1076 1.378 . S
C1078 C1079 1.367 . S
C1079 C1078 1.367 . S
C1079 C1081 1.433 . S
C1080 C1076 1.350 . S
C1080 C1077 1.463 . S
C1080 N1084 1.427 . S
C1081 H1071 0.929 . S
C1081 C1079 1.433 . S
C1081 N1084 1.384 . S
C1082 H1073 0.929 . S
C1082 C1074 1.378 . S
C1082 C1077 1.350 . S
C1083 H1070 0.929 . S
C1083 C1075 1.433 . S
C1083 N1085 1.384 . S
N1084 C1080 1.427 . S
N1084 C1081 1.384 . S
N1085 C1077 1.427 . S
N1085 C1083 1.384 . S
H1086 C1092 0.930 . S
H1087 C1096 0.930 . S
H1088 C1101 0.929 . S
H1089 C1099 0.929 . S
H1090 C1094 0.929 . S
H1091 C1100 0.929 . S
C1092 H1086 0.930 . S
C1092 C1093 1.367 . S
C1092 C1100 1.378 . S
C1093 C1092 1.367 . S
C1093 C1101 1.433 . S
C1094 H1090 0.929 . S
C1094 C1096 1.378 . S
C1094 C1098 1.350 . S
C1095 C1098 1.463 . S
C1095 C1100 1.350 . S
C1095 N1103 1.427 . S
C1096 H1087 0.930 . S
C1096 C1094 1.378 . S
C1096 C1097 1.367 . S
C1097 C1096 1.367 . S
C1097 C1099 1.433 . S
C1098 C1094 1.350 . S
C1098 C1095 1.463 . S
C1098 N1102 1.427 . S
C1099 H1089 0.929 . S
C1099 C1097 1.433 . S
C1099 N1102 1.384 . S
C1100 H1091 0.929 . S
C1100 C1092 1.378 . S
C1100 C1095 1.350 . S
C1101 H1088 0.929 . S
C1101 C1093 1.433 . S
C1101 N1103 1.384 . S
N1102 C1098 1.427 . S
N1102 C1099 1.384 . S
N1103 C1095 1.427 . S
N1103 C1101 1.384 . S
H1104 C1110 0.930 . S
H1105 C1114 0.930 . S
H1106 C1119 0.929 . S
H1107 C1117 0.929 . S
H1108 C1112 0.929 . S
H1109 C1118 0.929 . S
C1110 H1104 0.930 . S
C1110 C1111 1.367 . S
C1110 C1118 1.378 . S
C1111 C1110 1.367 . S
C1111 C1119 1.433 . S
C1112 H1108 0.929 . S
C1112 C1114 1.378 . S
C1112 C1116 1.350 . S
C1113 C1116 1.463 . S
C1113 C1118 1.350 . S
C1113 N1121 1.427 . S
C1114 H1105 0.930 . S
C1114 C1112 1.378 . S
C1114 C1115 1.367 . S
C1115 C1114 1.367 . S
C1115 C1117 1.433 . S
C1116 C1112 1.350 . S
C1116 C1113 1.463 . S
C1116 N1120 1.427 . S
C1117 H1107 0.929 . S
C1117 C1115 1.433 . S
C1117 N1120 1.384 . S
C1118 H1109 0.929 . S
C1118 C1110 1.378 . S
C1118 C1113 1.350 . S
C1119 H1106 0.929 . S
C1119 C1111 1.433 . S
C1119 N1121 1.384 . S
N1120 C1116 1.427 . S
N1120 C1117 1.384 . S
N1121 C1113 1.427 . S
N1121 C1119 1.384 . S
H1122 C1128 0.930 . S
H1123 C1132 0.930 . S
H1124 C1137 0.929 . S
H1125 C1135 0.929 . S
H1126 C1130 0.929 . S
H1127 C1136 0.929 . S
C1128 H1122 0.930 . S
C1128 C1129 1.367 . S
C1128 C1136 1.378 . S
C1129 C1128 1.367 . S
C1129 C1137 1.433 . S
C1130 H1126 0.929 . S
C1130 C1132 1.378 . S
C1130 C1134 1.350 . S
C1131 C1134 1.463 . S
C1131 C1136 1.350 . S
C1131 N1139 1.427 . S
C1132 H1123 0.930 . S
C1132 C1130 1.378 . S
C1132 C1133 1.367 . S
C1133 C1132 1.367 . S
C1133 C1135 1.433 . S
C1134 C1130 1.350 . S
C1134 C1131 1.463 . S
C1134 N1138 1.427 . S
C1135 H1125 0.929 . S
C1135 C1133 1.433 . S
C1135 N1138 1.384 . S
C1136 H1127 0.929 . S
C1136 C1128 1.378 . S
C1136 C1131 1.350 . S
C1137 H1124 0.929 . S
C1137 C1129 1.433 . S
C1137 N1139 1.384 . S
N1138 C1134 1.427 . S
N1138 C1135 1.384 . S
N1139 C1131 1.427 . S
N1139 C1137 1.384 . S
H1140 C1146 0.930 . S
H1141 C1150 0.930 . S
H1142 C1155 0.929 . S
H1143 C1153 0.929 . S
H1144 C1148 0.929 . S
H1145 C1154 0.929 . S
C1146 H1140 0.930 . S
C1146 C1147 1.367 . S
C1146 C1154 1.378 . S
C1147 C1146 1.367 . S
C1147 C1155 1.433 . S
C1148 H1144 0.929 . S
C1148 C1150 1.378 . S
C1148 C1152 1.350 . S
C1149 C1152 1.463 . S
C1149 C1154 1.350 . S
C1149 N1157 1.427 . S
C1150 H1141 0.930 . S
C1150 C1148 1.378 . S
C1150 C1151 1.367 . S
C1151 C1150 1.367 . S
C1151 C1153 1.433 . S
C1152 C1148 1.350 . S
C1152 C1149 1.463 . S
C1152 N1156 1.427 . S
C1153 H1143 0.929 . S
C1153 C1151 1.433 . S
C1153 N1156 1.384 . S
C1154 H1145 0.929 . S
C1154 C1146 1.378 . S
C1154 C1149 1.350 . S
C1155 H1142 0.929 . S
C1155 C1147 1.433 . S
C1155 N1157 1.384 . S
N1156 C1152 1.427 . S
N1156 C1153 1.384 . S
N1157 C1149 1.427 . S
N1157 C1155 1.384 . S
H1158 C1164 0.930 . S
H1159 C1168 0.930 . S
H1160 C1173 0.929 . S
H1161 C1171 0.929 . S
H1162 C1166 0.929 . S
H1163 C1172 0.929 . S
C1164 H1158 0.930 . S
C1164 C1165 1.367 . S
C1164 C1172 1.378 . S
C1165 C1164 1.367 . S
C1165 C1173 1.433 . S
C1166 H1162 0.929 . S
C1166 C1168 1.378 . S
C1166 C1170 1.350 . S
C1167 C1170 1.463 . S
C1167 C1172 1.350 . S
C1167 N1175 1.427 . S
C1168 H1159 0.930 . S
C1168 C1166 1.378 . S
C1168 C1169 1.367 . S
C1169 C1168 1.367 . S
C1169 C1171 1.433 . S
C1170 C1166 1.350 . S
C1170 C1167 1.463 . S
C1170 N1174 1.427 . S
C1171 H1161 0.929 . S
C1171 C1169 1.433 . S
C1171 N1174 1.384 . S
C1172 H1163 0.929 . S
C1172 C1164 1.378 . S
C1172 C1167 1.350 . S
C1173 H1160 0.929 . S
C1173 C1165 1.433 . S
C1173 N1175 1.384 . S
N1174 C1170 1.427 . S
N1174 C1171 1.384 . S
N1175 C1167 1.427 . S
N1175 C1173 1.384 . S
H1176 C1182 0.930 . S
H1177 C1186 0.930 . S
H1178 C1191 0.929 . S
H1179 C1189 0.929 . S
H1180 C1184 0.929 . S
H1181 C1190 0.929 . S
C1182 H1176 0.930 . S
C1182 C1183 1.367 . S
C1182 C1190 1.378 . S
C1183 C1182 1.367 . S
C1183 C1191 1.433 . S
C1184 H1180 0.929 . S
C1184 C1186 1.378 . S
C1184 C1188 1.350 . S
C1185 C1188 1.463 . S
C1185 C1190 1.350 . S
C1185 N1193 1.427 . S
C1186 H1177 0.930 . S
C1186 C1184 1.378 . S
C1186 C1187 1.367 . S
C1187 C1186 1.367 . S
C1187 C1189 1.433 . S
C1188 C1184 1.350 . S
C1188 C1185 1.463 . S
C1188 N1192 1.427 . S
C1189 H1179 0.929 . S
C1189 C1187 1.433 . S
C1189 N1192 1.384 . S
C1190 H1181 0.929 . S
C1190 C1182 1.378 . S
C1190 C1185 1.350 . S
C1191 H1178 0.929 . S
C1191 C1183 1.433 . S
C1191 N1193 1.384 . S
N1192 C1188 1.427 . S
N1192 C1189 1.384 . S
N1193 C1185 1.427 . S
N1193 C1191 1.384 . S
H1194 C1200 0.930 . S
H1195 C1204 0.930 . S
H1196 C1209 0.929 . S
H1197 C1207 0.929 . S
H1198 C1202 0.929 . S
H1199 C1208 0.929 . S
C1200 H1194 0.930 . S
C1200 C1201 1.367 . S
C1200 C1208 1.378 . S
C1201 C1200 1.367 . S
C1201 C1209 1.433 . S
C1202 H1198 0.929 . S
C1202 C1204 1.378 . S
C1202 C1206 1.350 . S
C1203 C1206 1.463 . S
C1203 C1208 1.350 . S
C1203 N1211 1.427 . S
C1204 H1195 0.930 . S
C1204 C1202 1.378 . S
C1204 C1205 1.367 . S
C1205 C1204 1.367 . S
C1205 C1207 1.433 . S
C1206 C1202 1.350 . S
C1206 C1203 1.463 . S
C1206 N1210 1.427 . S
C1207 H1197 0.929 . S
C1207 C1205 1.433 . S
C1207 N1210 1.384 . S
C1208 H1199 0.929 . S
C1208 C1200 1.378 . S
C1208 C1203 1.350 . S
C1209 H1196 0.929 . S
C1209 C1201 1.433 . S
C1209 N1211 1.384 . S
N1210 C1206 1.427 . S
N1210 C1207 1.384 . S
N1211 C1203 1.427 . S
N1211 C1209 1.384 . S
H1212 C1218 0.930 . S
H1213 C1222 0.930 . S
H1214 C1227 0.929 . S
H1215 C1225 0.929 . S
H1216 C1220 0.929 . S
H1217 C1226 0.929 . S
C1218 H1212 0.930 . S
C1218 C1219 1.367 . S
C1218 C1226 1.378 . S
C1219 C1218 1.367 . S
C1219 C1227 1.433 . S
C1220 H1216 0.929 . S
C1220 C1222 1.378 . S
C1220 C1224 1.350 . S
C1221 C1224 1.463 . S
C1221 C1226 1.350 . S
C1221 N1229 1.427 . S
C1222 H1213 0.930 . S
C1222 C1220 1.378 . S
C1222 C1223 1.367 . S
C1223 C1222 1.367 . S
C1223 C1225 1.433 . S
C1224 C1220 1.350 . S
C1224 C1221 1.463 . S
C1224 N1228 1.427 . S
C1225 H1215 0.929 . S
C1225 C1223 1.433 . S
C1225 N1228 1.384 . S
C1226 H1217 0.929 . S
C1226 C1218 1.378 . S
C1226 C1221 1.350 . S
C1227 H1214 0.929 . S
C1227 C1219 1.433 . S
C1227 N1229 1.384 . S
N1228 C1224 1.427 . S
N1228 C1225 1.384 . S
N1229 C1221 1.427 . S
N1229 C1227 1.384 . S
H1230 C1236 0.930 . S
H1231 C1240 0.930 . S
H1232 C1245 0.929 . S
H1233 C1243 0.929 . S
H1234 C1238 0.929 . S
H1235 C1244 0.929 . S
C1236 H1230 0.930 . S
C1236 C1237 1.367 . S
C1236 C1244 1.378 . S
C1237 C1236 1.367 . S
C1237 C1245 1.433 . S
C1238 H1234 0.929 . S
C1238 C1240 1.378 . S
C1238 C1242 1.350 . S
C1239 C1242 1.463 . S
C1239 C1244 1.350 . S
C1239 N1247 1.427 . S
C1240 H1231 0.930 . S
C1240 C1238 1.378 . S
C1240 C1241 1.367 . S
C1241 C1240 1.367 . S
C1241 C1243 1.433 . S
C1242 C1238 1.350 . S
C1242 C1239 1.463 . S
C1242 N1246 1.427 . S
C1243 H1233 0.929 . S
C1243 C1241 1.433 . S
C1243 N1246 1.384 . S
C1244 H1235 0.929 . S
C1244 C1236 1.378 . S
C1244 C1239 1.350 . S
C1245 H1232 0.929 . S
C1245 C1237 1.433 . S
C1245 N1247 1.384 . S
N1246 C1242 1.427 . S
N1246 C1243 1.384 . S
N1247 C1239 1.427 . S
N1247 C1245 1.384 . S
C535 N13 1.774 . S
C539 N244 1.781 . S
C553 N145 1.777 . S
C557 N46 1.777 . S
C571 N178 1.773 . S
C575 N79 1.781 . S
C589 N211 1.774 . S
C593 N112 1.781 . S
C607 N277 1.779 . S
C611 N508 1.777 . S
C625 N310 1.774 . S
C629 N409 1.781 . S
C643 N442 1.773 . S
C647 N343 1.781 . S
C661 N376 1.777 . S
C665 N475 1.779 . S
C679 N2 1.556 . S
C683 N332 1.545 . S
C697 N365 1.558 . S
C701 N35 1.543 . S
C715 N266 1.554 . S
C719 N68 1.547 . S
C733 N299 1.543 . S
C737 N101 1.558 . S
C751 N464 1.544 . S
C755 N134 1.557 . S
C769 N497 1.545 . S
C773 N167 1.557 . S
C787 N398 1.558 . S
C791 N200 1.543 . S
C805 N431 1.553 . S
C809 N233 1.549 . S
C823 C21 0.534 . S
C827 C87 0.534 . S
C841 C120 0.552 . S
C845 C54 0.548 . S
C859 C219 0.573 . S
C863 C153 0.575 . S
C877 C252 0.548 . S
C881 C186 0.544 . S
C895 C285 0.578 . S
C899 C351 0.578 . S
C913 C384 0.549 . S
C917 C318 0.554 . S
C931 C417 0.547 . S
C935 C483 0.552 . S
C949 C450 0.567 . S
C953 C516 0.563 . S
C967 C469 1.622 . S
C971 C18 1.731 . S
C985 C51 1.725 . S
C989 C502 1.608 . S
C1003 C403 1.619 . S
C1007 C84 1.729 . S
C1021 C436 1.621 . S
C1025 C117 1.730 . S
C1039 C337 1.612 1_655 S
C1043 C150 1.728 . S
C1057 C183 1.724 . S
C1061 C370 1.611 1_565 S
C1075 C271 1.613 1_455 S
C1079 C216 1.729 . S
C1093 C249 1.724 . S
C1097 C304 1.609 1_545 S
C1111 C205 1.624 . S
C1115 C282 1.733 . S
C1129 C238 1.605 . S
C1133 C315 1.722 . S
C1147 C139 1.617 . S
C1151 C348 1.731 . S
C1165 C381 1.727 . S
C1169 C172 1.615 . S
C1183 C73 1.616 1_455 S
C1187 C414 1.727 . S
C1201 C447 1.725 . S
C1205 C106 1.608 1_545 S
C1219 C480 1.725 . S
C1223 C7 1.606 1_655 S
C1237 C40 1.608 1_565 S
C1241 C513 1.726 . S
