# Generated by pormake.
# Topology zfg, (5)-cn, num edge types: 1
# Building blocks:
#     Node 0, Type 0, BuildingBlock: XOMCOT_clean_sbu_0, # of connection points: 5
#     Node 1, Type 0, BuildingBlock: XOMCOT_clean_sbu_0, # of connection points: 5
#     Node 2, Type 0, BuildingBlock: XOMCOT_clean_sbu_0, # of connection points: 5
#     Node 3, Type 0, BuildingBlock: XOMCOT_clean_sbu_0, # of connection points: 5
#     Node 4, Type 0, BuildingBlock: XOMCOT_clean_sbu_0, # of connection points: 5
#     Node 5, Type 0, BuildingBlock: XOMCOT_clean_sbu_0, # of connection points: 5
#     Node 6, Type 0, BuildingBlock: XOMCOT_clean_sbu_0, # of connection points: 5
#     Node 7, Type 0, BuildingBlock: XOMCOT_clean_sbu_0, # of connection points: 5
#     Node 8, Type 0, BuildingBlock: XOMCOT_clean_sbu_0, # of connection points: 5
#     Node 9, Type 0, BuildingBlock: XOMCOT_clean_sbu_0, # of connection points: 5
#     Node 10, Type 0, BuildingBlock: XOMCOT_clean_sbu_0, # of connection points: 5
#     Node 11, Type 0, BuildingBlock: XOMCOT_clean_sbu_0, # of connection points: 5
#     Node 12, Type 0, BuildingBlock: XOMCOT_clean_sbu_0, # of connection points: 5
#     Node 13, Type 0, BuildingBlock: XOMCOT_clean_sbu_0, # of connection points: 5
#     Node 14, Type 0, BuildingBlock: XOMCOT_clean_sbu_0, # of connection points: 5
#     Node 15, Type 0, BuildingBlock: XOMCOT_clean_sbu_0, # of connection points: 5
#     Edge 16, Type (0, 0), BuildingBlock: AJUNOK_clean_linker_0, # of connection points: 2
#     Edge 17, Type (0, 0), BuildingBlock: AJUNOK_clean_linker_0, # of connection points: 2
#     Edge 18, Type (0, 0), BuildingBlock: AJUNOK_clean_linker_0, # of connection points: 2
#     Edge 19, Type (0, 0), BuildingBlock: AJUNOK_clean_linker_0, # of connection points: 2
#     Edge 20, Type (0, 0), BuildingBlock: AJUNOK_clean_linker_0, # of connection points: 2
#     Edge 21, Type (0, 0), BuildingBlock: AJUNOK_clean_linker_0, # of connection points: 2
#     Edge 22, Type (0, 0), BuildingBlock: AJUNOK_clean_linker_0, # of connection points: 2
#     Edge 23, Type (0, 0), BuildingBlock: AJUNOK_clean_linker_0, # of connection points: 2
#     Edge 24, Type (0, 0), BuildingBlock: AJUNOK_clean_linker_0, # of connection points: 2
#     Edge 25, Type (0, 0), BuildingBlock: AJUNOK_clean_linker_0, # of connection points: 2
#     Edge 26, Type (0, 0), BuildingBlock: AJUNOK_clean_linker_0, # of connection points: 2
#     Edge 27, Type (0, 0), BuildingBlock: AJUNOK_clean_linker_0, # of connection points: 2
#     Edge 28, Type (0, 0), BuildingBlock: AJUNOK_clean_linker_0, # of connection points: 2
#     Edge 29, Type (0, 0), BuildingBlock: AJUNOK_clean_linker_0, # of connection points: 2
#     Edge 30, Type (0, 0), BuildingBlock: AJUNOK_clean_linker_0, # of connection points: 2
#     Edge 31, Type (0, 0), BuildingBlock: AJUNOK_clean_linker_0, # of connection points: 2
#     Edge 32, Type (0, 0), BuildingBlock: AJUNOK_clean_linker_0, # of connection points: 2
#     Edge 33, Type (0, 0), BuildingBlock: AJUNOK_clean_linker_0, # of connection points: 2
#     Edge 34, Type (0, 0), BuildingBlock: AJUNOK_clean_linker_0, # of connection points: 2
#     Edge 35, Type (0, 0), BuildingBlock: AJUNOK_clean_linker_0, # of connection points: 2
#     Edge 36, Type (0, 0), BuildingBlock: AJUNOK_clean_linker_0, # of connection points: 2
#     Edge 37, Type (0, 0), BuildingBlock: AJUNOK_clean_linker_0, # of connection points: 2
#     Edge 38, Type (0, 0), BuildingBlock: AJUNOK_clean_linker_0, # of connection points: 2
#     Edge 39, Type (0, 0), BuildingBlock: AJUNOK_clean_linker_0, # of connection points: 2
#     Edge 40, Type (0, 0), BuildingBlock: AJUNOK_clean_linker_0, # of connection points: 2
#     Edge 41, Type (0, 0), BuildingBlock: AJUNOK_clean_linker_0, # of connection points: 2
#     Edge 42, Type (0, 0), BuildingBlock: AJUNOK_clean_linker_0, # of connection points: 2
#     Edge 43, Type (0, 0), BuildingBlock: AJUNOK_clean_linker_0, # of connection points: 2
#     Edge 44, Type (0, 0), BuildingBlock: AJUNOK_clean_linker_0, # of connection points: 2
#     Edge 45, Type (0, 0), BuildingBlock: AJUNOK_clean_linker_0, # of connection points: 2
#     Edge 46, Type (0, 0), BuildingBlock: AJUNOK_clean_linker_0, # of connection points: 2
#     Edge 47, Type (0, 0), BuildingBlock: AJUNOK_clean_linker_0, # of connection points: 2
#     Edge 48, Type (0, 0), BuildingBlock: AJUNOK_clean_linker_0, # of connection points: 2
#     Edge 49, Type (0, 0), BuildingBlock: AJUNOK_clean_linker_0, # of connection points: 2
#     Edge 50, Type (0, 0), BuildingBlock: AJUNOK_clean_linker_0, # of connection points: 2
#     Edge 51, Type (0, 0), BuildingBlock: AJUNOK_clean_linker_0, # of connection points: 2
#     Edge 52, Type (0, 0), BuildingBlock: AJUNOK_clean_linker_0, # of connection points: 2
#     Edge 53, Type (0, 0), BuildingBlock: AJUNOK_clean_linker_0, # of connection points: 2
#     Edge 54, Type (0, 0), BuildingBlock: AJUNOK_clean_linker_0, # of connection points: 2
#     Edge 55, Type (0, 0), BuildingBlock: AJUNOK_clean_linker_0, # of connection points: 2
# Relax obj value: 0.142
# Max RMSD: 0.172
# Mean RMSD: 0.172
data_MOF--net-zfg--node1-XOMCOT_clean_sbu_0--edge1-AJUNOK_clean_linker_0
_symmetry_space_group_name_H-M    P1
_symmetry_Int_Tables_number       1
_symmetry_cell_setting            triclinic
loop_
_symmetry_equiv_pos_as_xyz
'x, y, z'
_cell_length_a     32.119546
_cell_length_b     32.050968
_cell_length_c     39.281976
_cell_angle_alpha  90.17086
_cell_angle_beta   89.538814
_cell_angle_gamma 89.993362
loop_
_atom_site_label
_atom_site_type_symbol
_atom_site_fract_x
_atom_site_fract_y
_atom_site_fract_z
_atom_type_partial_charge
Co0 Co 0.10229 0.32245 0.12745 0.0
C1 C 0.14587 0.24359 0.15118 0.0
C2 C 0.1858 0.28433 0.12271 0.0
C3 C 0.20853 0.25032 0.13246 0.0
N4 N 0.14607 0.28033 0.13386 0.0
N5 N 0.18368 0.22469 0.15052 0.0
H6 H 0.11913 0.23096 0.16445 0.0
H7 H 0.19821 0.31014 0.10827 0.0
C8 C 0.10447 0.37356 0.19371 0.0
O9 O 0.06865 0.39192 0.18817 0.0
N10 N 0.06046 0.36549 0.12043 0.0
C11 C 1.02078 0.36056 0.1103 0.0
C12 C 1.00371 0.39939 0.10449 0.0
C13 C 0.06738 0.4071 0.11922 0.0
N14 N 0.03305 0.42873 0.1101 0.0
C15 C 0.05223 0.24931 0.1271 0.0
C16 C 0.99597 0.27354 0.17678 0.0
C17 C 0.98664 0.2384 0.15671 0.0
C18 C 1.01634 0.22557 0.13251 0.0
C19 C 0.03298 0.29577 0.1712 0.0
N20 N 0.05989 0.28458 0.14567 0.0
H21 H 0.07334 0.2401 0.10688 0.0
H22 H 0.03793 0.32367 0.18568 0.0
H23 H 1.00551 0.33085 0.10655 0.0
H24 H 0.09684 0.42107 0.12591 0.0
O25 O 0.0969 0.30654 0.08063 0.0
O26 O 0.14007 0.3555 0.09921 0.0
O27 O 0.11831 0.34526 0.17356 0.0
C28 C 0.12517 0.33419 0.07376 0.0
H29 H 0.24076 0.24434 0.12581 0.0
H30 H 0.97229 0.40546 0.09607 0.0
H31 H 0.97379 0.28559 0.19521 0.0
H32 H 1.01113 0.19831 0.11676 0.0
Co33 Co 0.71716 0.09868 0.13494 0.0
C34 C 0.80116 0.13904 0.14435 0.0
C35 C 0.75029 0.17526 0.16421 0.0
C36 C 0.78673 0.19608 0.17101 0.0
N37 N 0.75919 0.13909 0.14815 0.0
N38 N 0.81856 0.17324 0.1586 0.0
H39 H 0.81887 0.11498 0.13156 0.0
H40 H 0.71919 0.18613 0.17003 0.0
C41 C 0.6619 0.08867 0.19858 0.0
O42 O 0.64734 0.05266 0.188 0.0
N43 N 0.67403 0.05957 0.12145 0.0
C44 C 0.67798 1.01882 0.11334 0.0
C45 C 0.6389 1.00236 0.1081 0.0
C46 C 0.63277 0.06769 0.11953 0.0
N47 N 0.61063 0.03307 0.11223 0.0
C48 C 0.78328 0.03952 0.12766 0.0
C49 C 0.76604 0.99128 0.18398 0.0
C50 C 0.79569 0.97681 0.16022 0.0
C51 C 0.80515 1.00248 0.13249 0.0
C52 C 0.74567 0.02947 0.17874 0.0
N53 N 0.75289 0.05239 0.14996 0.0
H54 H 0.79026 0.05701 0.10497 0.0
H55 H 0.72328 0.03912 0.19746 0.0
H56 H 0.70691 1.00167 0.11228 0.0
H57 H 0.61897 0.09754 0.12595 0.0
O58 O 0.73607 0.10093 0.08852 0.0
O59 O 0.68764 0.14249 0.1103 0.0
O60 O 0.69033 0.1076 0.18155 0.0
C61 C 0.70985 0.13102 0.08401 0.0
H62 H 0.78963 0.2262 0.18332 0.0
H63 H 0.63165 0.97002 0.10274 0.0
H64 H 0.75713 0.97261 0.20575 0.0
H65 H 0.82852 0.99346 0.11385 0.0
Co66 Co 0.94335 0.71215 0.13673 0.0
C67 C 0.89735 0.79372 0.14786 0.0
C68 C 0.87259 0.74344 0.17742 0.0
C69 C 0.84985 0.77873 0.18472 0.0
N70 N 0.90376 0.75295 0.15543 0.0
N71 N 0.86559 0.81023 0.1662 0.0
H72 H 0.91393 0.81099 0.12859 0.0
H73 H 0.86602 0.71258 0.18708 0.0
C74 C 0.94311 0.69399 0.21088 0.0
O75 O 0.95106 0.73381 0.21562 0.0
N76 N 0.98061 0.67011 0.11819 0.0
C77 C 1.01007 0.67496 0.09399 0.0
C78 C 0.02712 0.63641 0.0866 0.0
C79 C 0.97997 0.62886 0.12508 0.0
N80 N 1.00841 0.60737 0.1064 0.0
C81 C 0.99884 0.7822 0.1372 0.0
C82 C 0.0619 0.74454 0.17313 0.0
C83 C 0.06913 0.78361 0.15822 0.0
C84 C 0.0367 0.80291 0.14092 0.0
C85 C 0.0231 0.72516 0.16938 0.0
N86 N 0.99185 0.74406 0.15163 0.0
H87 H 0.97688 0.79545 0.11992 0.0
H88 H 1.01923 0.69374 0.17875 0.0
H89 H 1.01788 0.70428 0.08195 0.0
H90 H 0.9587 0.61482 0.14314 0.0
O91 O 0.93847 0.73686 0.09277 0.0
O92 O 0.89789 0.68589 0.11202 0.0
O93 O 0.94 0.67954 0.18065 0.0
C94 C 0.90803 0.71122 0.08736 0.0
H95 H 0.8229 0.78082 0.20137 0.0
H96 H 0.05032 0.63033 0.06711 0.0
H97 H 0.08668 0.72823 0.18608 0.0
H98 H 0.04167 0.83228 0.1279 0.0
Co99 Co 0.32832 0.94231 0.13555 0.0
C100 C 0.24704 0.89384 0.14145 0.0
C101 C 0.30255 0.8582 0.14966 0.0
C102 C 0.26916 0.83206 0.15299 0.0
N103 N 0.2891 0.89701 0.14262 0.0
N104 N 0.23424 0.85417 0.14744 0.0
H105 H 0.22619 0.9193 0.13586 0.0
H106 H 0.33488 0.84943 0.15222 0.0
C107 C 0.37878 0.94216 0.20195 0.0
O108 O 0.39574 0.97875 0.1962 0.0
N109 N 0.36984 0.98552 0.12836 0.0
C110 C 0.36501 0.02696 0.12399 0.0
C111 C 0.40386 0.04482 0.1196 0.0
C112 C 0.41121 0.97873 0.12555 0.0
N113 N 0.43288 1.01442 0.12102 0.0
C114 C 0.25845 0.99705 0.1324 0.0
C115 C 0.27172 0.04068 0.19191 0.0
C116 C 0.24354 0.057 0.16816 0.0
C117 C 0.23581 0.03341 0.13885 0.0
C118 C 0.29409 1.00401 0.18435 0.0
N119 N 0.28877 0.98361 0.15404 0.0
H120 H 0.25282 0.98107 0.10872 0.0
H121 H 0.31687 0.99376 0.2023 0.0
H122 H 0.33557 0.04329 0.12406 0.0
H123 H 0.42513 0.94808 0.12716 0.0
O124 O 0.31258 0.9464 0.08867 0.0
O125 O 0.36199 0.90438 0.10744 0.0
O126 O 0.35163 0.92725 0.18163 0.0
C127 C 0.34012 0.91799 0.08203 0.0
H128 H 0.2705 0.7993 0.15949 0.0
H129 H 0.4103 0.07771 0.1163 0.0
H130 H 0.27771 0.05689 0.21558 0.0
H131 H 0.21432 0.0443 0.11971 0.0
Co132 Co 0.59854 0.21895 0.38538 0.0
C133 C 0.64584 0.30026 0.3756 0.0
C134 C 0.67736 0.24584 0.35683 0.0
C135 C 0.70208 0.27982 0.3506 0.0
N136 N 0.64171 0.25835 0.37194 0.0
N137 N 0.68273 0.31413 0.36281 0.0
H138 H 0.62327 0.32018 0.38802 0.0
H139 H 0.68521 0.21377 0.35111 0.0
C140 C 0.59189 0.1589 0.32435 0.0
O141 O 0.55586 0.14426 0.33481 0.0
N142 N 0.55734 0.17759 0.399 0.0
C143 C 0.5158 0.18128 0.40318 0.0
C144 C 0.49941 0.1422 0.40968 0.0
C145 C 0.56566 0.13682 0.40444 0.0
N146 N 0.53078 0.11412 0.40987 0.0
C147 C 0.5431 0.28861 0.38578 0.0
C148 C 0.49406 0.26498 0.3318 0.0
C149 C 0.48026 0.29717 0.35335 0.0
C150 C 0.50624 0.3102 0.37957 0.0
C151 C 0.5319 0.24472 0.3384 0.0
N152 N 0.55496 0.25501 0.36636 0.0
H153 H 0.56058 0.29774 0.40784 0.0
H154 H 0.54075 0.2195 0.32197 0.0
H155 H 0.49827 0.20987 0.40071 0.0
H156 H 0.5967 0.12391 0.40299 0.0
O157 O 0.59736 0.24128 0.43069 0.0
O158 O 0.63915 0.1902 0.41403 0.0
O159 O 0.60975 0.18867 0.3405 0.0
C160 C 0.6259 0.21456 0.43844 0.0
H161 H 0.73193 0.27911 0.33767 0.0
H162 H 0.46668 0.13483 0.41252 0.0
H163 H 0.47487 0.25435 0.31095 0.0
H164 H 0.49667 0.33492 0.39681 0.0
Co165 Co 0.82697 0.60186 0.38974 0.0
C166 C 0.7442 0.64715 0.38366 0.0
C167 C 0.79694 0.681 0.3645 0.0
C168 C 0.76211 0.70499 0.36009 0.0
N169 N 0.78604 0.64453 0.37897 0.0
N170 N 0.7288 0.6839 0.37205 0.0
H171 H 0.72557 0.62362 0.39608 0.0
H172 H 0.82842 0.68986 0.35793 0.0
C173 C 0.88193 0.59661 0.32556 0.0
O174 O 0.89584 0.55914 0.33264 0.0
N175 N 0.86987 0.56108 0.40028 0.0
C176 C 0.86696 0.5194 0.40414 0.0
C177 C 0.90662 0.50325 0.40753 0.0
C178 C 0.91096 0.56969 0.40258 0.0
N179 N 0.93437 0.53489 0.40598 0.0
C180 C 0.75871 0.545 0.39394 0.0
C181 C 0.77664 0.4979 0.33688 0.0
C182 C 0.74687 0.4832 0.36024 0.0
C183 C 0.73667 0.5082 0.38818 0.0
C184 C 0.79733 0.53574 0.34313 0.0
N185 N 0.78998 0.55779 0.37246 0.0
H186 H 0.75169 0.56189 0.41701 0.0
H187 H 0.82036 0.54561 0.32503 0.0
H188 H 0.8384 0.50161 0.40349 0.0
H189 H 0.92339 0.60091 0.40054 0.0
O190 O 0.80855 0.60071 0.4363 0.0
O191 O 0.85753 0.64302 0.41656 0.0
O192 O 0.85375 0.61396 0.34397 0.0
C193 C 0.8353 0.62997 0.44224 0.0
H194 H 0.76138 0.73573 0.34876 0.0
H195 H 0.91445 0.47051 0.4095 0.0
H196 H 0.78501 0.47948 0.31469 0.0
H197 H 0.71386 0.49792 0.40681 0.0
Co198 Co 0.44072 0.83245 0.39295 0.0
C199 C 0.39309 0.75139 0.37943 0.0
C200 C 0.36119 0.8074 0.36542 0.0
C201 C 0.33606 0.77412 0.35793 0.0
N202 N 0.39729 0.79356 0.37856 0.0
N203 N 0.35578 0.73885 0.36707 0.0
H204 H 0.41589 0.73006 0.38925 0.0
H205 H 0.35381 0.83988 0.36115 0.0
C206 C 0.43218 0.84443 0.31874 0.0
O207 O 0.43512 0.80367 0.31594 0.0
N208 N 0.48137 0.87349 0.40697 0.0
C209 C 0.51873 0.8679 0.42171 0.0
C210 C 0.53693 0.90655 0.42655 0.0
C211 C 0.47691 0.91515 0.40377 0.0
N212 N 0.51036 0.93597 0.41541 0.0
C213 C 0.49361 0.76055 0.39532 0.0
C214 C 0.55339 0.78902 0.35021 0.0
C215 C 0.56164 0.75287 0.36912 0.0
C216 C 0.53071 0.73822 0.39129 0.0
C217 C 0.51555 0.81025 0.35471 0.0
N218 N 0.48603 0.79607 0.37717 0.0
H219 H 0.47247 0.75077 0.41518 0.0
H220 H 0.5116 0.83986 0.34211 0.0
H221 H 0.53195 0.83796 0.42824 0.0
H222 H 0.44994 0.92993 0.39267 0.0
O223 O 0.43693 0.81187 0.43859 0.0
O224 O 0.39864 0.86373 0.41845 0.0
O225 O 0.43614 0.86193 0.34777 0.0
C226 C 0.40846 0.83986 0.44395 0.0
H227 H 0.30582 0.77586 0.34609 0.0
H228 H 0.56715 0.91264 0.4375 0.0
H229 H 0.57682 0.8019 0.33327 0.0
H230 H 0.53631 0.71141 0.40734 0.0
Co231 Co 0.21731 0.448 0.38016 0.0
C232 C 0.29869 0.39962 0.3695 0.0
C233 C 0.24352 0.36756 0.35396 0.0
C234 C 0.27696 0.34213 0.34761 0.0
N235 N 0.25676 0.40411 0.36708 0.0
N236 N 0.31174 0.36188 0.3578 0.0
H237 H 0.31945 0.42241 0.3802 0.0
H238 H 0.21131 0.36 0.34899 0.0
C239 C 0.20484 0.43399 0.30652 0.0
O240 O 0.24534 0.43835 0.30312 0.0
N241 N 0.17562 0.48896 0.39305 0.0
C242 C 0.18073 0.52742 0.40642 0.0
C243 C 0.14191 0.5451 0.41159 0.0
C244 C 0.13404 0.48338 0.39107 0.0
N245 N 0.1128 0.51718 0.40207 0.0
C246 C 0.28803 0.50215 0.37943 0.0
C247 C 0.25619 0.56004 0.33477 0.0
C248 C 0.29164 0.57042 0.35367 0.0
C249 C 0.30845 0.54023 0.37512 0.0
C250 C 0.23696 0.52114 0.33941 0.0
N251 N 0.25245 0.49285 0.36208 0.0
H252 H 0.29883 0.48212 0.39943 0.0
H253 H 0.20747 0.51561 0.32719 0.0
H254 H 0.21045 0.54165 0.41197 0.0
H255 H 0.11959 0.4552 0.38153 0.0
O256 O 0.23861 0.44843 0.42543 0.0
O257 O 0.18741 0.4073 0.40795 0.0
O258 O 0.18758 0.43938 0.33562 0.0
C259 C 0.21133 0.41995 0.43257 0.0
H260 H 0.27559 0.31162 0.33583 0.0
H261 H 0.13549 0.5758 0.42193 0.0
H262 H 0.24198 0.58276 0.31813 0.0
H263 H 0.33513 0.54736 0.39082 0.0
Co264 Co 0.94165 0.71647 0.89443 0.0
C265 C 0.89618 0.79899 0.88269 0.0
C266 C 0.86298 0.74429 0.86713 0.0
C267 C 0.83854 0.77837 0.8608 0.0
N268 N 0.89953 0.75684 0.88038 0.0
N269 N 0.85925 0.81287 0.87054 0.0
H270 H 0.91898 0.81915 0.89405 0.0
H271 H 0.85455 0.71211 0.8625 0.0
C272 C 0.93136 0.70363 0.82046 0.0
O273 O 0.93664 0.74412 0.81756 0.0
N274 N 0.98097 0.67401 0.90811 0.0
C275 C 1.0187 0.67852 0.92249 0.0
C276 C 0.03648 0.63948 0.92591 0.0
C277 C 0.9759 0.63254 0.90372 0.0
N278 N 1.00935 0.61082 0.91421 0.0
C279 C 0.99755 0.78621 0.8948 0.0
C280 C 0.0552 0.75355 0.84957 0.0
C281 C 0.06548 0.78969 0.86795 0.0
C282 C 0.03553 0.80669 0.88994 0.0
C283 C 1.01655 0.73422 0.85488 0.0
N284 N 0.9881 0.75042 0.87745 0.0
H285 H 0.9774 0.79748 0.91484 0.0
H286 H 1.01107 0.70441 0.84285 0.0
H287 H 0.03263 0.70805 0.9294 0.0
H288 H 0.94868 0.61859 0.89226 0.0
O289 O 0.93999 0.73836 0.9398 0.0
O290 O 0.89883 0.68783 0.92101 0.0
O291 O 0.93461 0.68639 0.8496 0.0
C292 C 0.91014 0.71215 0.94593 0.0
H293 H 0.80768 0.77777 0.84993 0.0
H294 H 0.06694 0.63262 0.93609 0.0
H295 H 0.07768 0.73916 0.83252 0.0
H296 H 0.04262 0.83388 0.9053 0.0
Co297 Co 0.32783 0.9421 0.88844 0.0
C298 C 0.24703 0.89439 0.88028 0.0
C299 C 0.30094 0.86294 0.8604 0.0
C300 C 0.26702 0.83765 0.85575 0.0
N301 N 0.28866 0.89877 0.87538 0.0
N302 N 0.23313 0.8571 0.86855 0.0
H303 H 0.22739 0.91698 0.893 0.0
H304 H 0.33282 0.85529 0.85394 0.0
C305 C 0.38429 0.95299 0.82558 0.0
O306 O 0.39793 0.98941 0.83604 0.0
N307 N 0.36864 0.98367 0.90186 0.0
C308 C 0.36276 0.02339 0.91213 0.0
C309 C 0.40097 0.04044 0.92018 0.0
C310 C 0.40997 0.9768 0.90485 0.0
N311 N 0.43069 1.01108 0.91556 0.0
C312 C 0.25782 0.99689 0.89357 0.0
C313 C 0.27634 0.04716 0.83872 0.0
C314 C 0.24562 0.06007 0.86201 0.0
C315 C 0.23515 0.03352 0.88878 0.0
C316 C 0.29779 1.00965 0.84403 0.0
N317 N 0.29001 0.98591 0.87225 0.0
H318 H 0.25059 0.97875 0.91586 0.0
H319 H 0.32162 1.00136 0.82606 0.0
H320 H 0.333 0.03905 0.9137 0.0
H321 H 0.42463 0.9478 0.89737 0.0
O322 O 0.30805 0.94024 0.93452 0.0
O323 O 0.35918 0.90073 0.91431 0.0
O324 O 0.35593 0.93362 0.84235 0.0
C325 C 0.33581 0.91186 0.94002 0.0
H326 H 0.26737 0.80719 0.84378 0.0
H327 H 0.4064 0.07208 0.92876 0.0
H328 H 0.28484 0.06673 0.81733 0.0
H329 H 0.21158 0.04239 0.90732 0.0
Co330 Co 0.09589 0.32555 0.88006 0.0
C331 C 0.14274 0.24335 0.8744 0.0
C332 C 0.17207 0.29422 0.84836 0.0
C333 C 0.19634 0.25953 0.84404 0.0
N334 N 0.13796 0.28442 0.86694 0.0
N335 N 0.17835 0.22758 0.86071 0.0
H336 H 0.12179 0.22553 0.89027 0.0
H337 H 0.17979 0.32482 0.83902 0.0
C338 C 0.12463 0.38143 0.82449 0.0
O339 O 0.14494 0.40311 0.84738 0.0
N340 N 0.05549 0.36852 0.89247 0.0
C341 C 1.01449 0.36483 0.8994 0.0
C342 C 0.99811 0.40412 0.90493 0.0
C343 C 0.06349 0.40982 0.89498 0.0
N344 N 0.02893 0.4326 0.90191 0.0
C345 C 0.04005 0.25618 0.88385 0.0
C346 C 0.98782 0.28082 0.83217 0.0
C347 C 0.97521 0.24842 0.85385 0.0
C348 C 1.00263 0.23499 0.87895 0.0
C349 C 0.02601 0.30086 0.83754 0.0
N350 N 0.05101 0.28945 0.86399 0.0
H351 H 0.05853 0.24754 0.90546 0.0
H352 H 0.03328 0.32779 0.8222 0.0
H353 H 0.99734 0.33584 0.90021 0.0
H354 H 0.09436 0.42265 0.89286 0.0
O355 O 0.09691 0.30679 0.92619 0.0
O356 O 0.13828 0.35606 0.90552 0.0
O357 O 0.10214 0.35066 0.83364 0.0
C358 C 0.12622 0.33366 0.9314 0.0
H359 H 0.22513 0.25804 0.82959 0.0
H360 H 0.96572 0.41105 0.9102 0.0
H361 H 0.96728 0.29211 0.81249 0.0
H362 H 0.99376 0.21044 0.89647 0.0
Co363 Co 0.71247 0.10212 0.89094 0.0
C364 C 0.79338 0.14926 0.87676 0.0
C365 C 0.73804 0.18029 0.86038 0.0
C366 C 0.77148 0.20502 0.8524 0.0
N367 N 0.75143 0.14482 0.87509 0.0
N368 N 0.80634 0.18587 0.86307 0.0
H369 H 0.81425 0.12732 0.88834 0.0
H370 H 0.70576 0.18758 0.85548 0.0
C371 C 0.69925 0.10969 0.81683 0.0
O372 O 0.73964 0.10415 0.81372 0.0
N373 N 0.67159 0.06205 0.90666 0.0
C374 C 0.67646 0.03245 0.93051 0.0
C375 C 0.63801 1.01534 0.93787 0.0
C376 C 0.63046 0.06264 0.89988 0.0
N377 N 0.60902 0.03418 0.91842 0.0
C378 C 0.78345 0.04804 0.89146 0.0
C379 C 0.75164 0.98773 0.84868 0.0
C380 C 0.78896 0.97955 0.86579 0.0
C381 C 0.80514 1.01066 0.88691 0.0
C382 C 0.73105 0.02587 0.8537 0.0
N383 N 0.74712 0.05582 0.87472 0.0
H384 H 0.79443 0.06913 0.91077 0.0
H385 H 0.70077 0.03003 0.84244 0.0
H386 H 0.70556 0.02518 0.94283 0.0
H387 H 0.6164 0.08433 0.88235 0.0
O388 O 0.73503 0.10576 0.9358 0.0
O389 O 0.68304 0.1449 0.91726 0.0
O390 O 0.68197 0.10714 0.84621 0.0
C391 C 0.70773 0.13455 0.94207 0.0
H392 H 0.7701 0.2346 0.83928 0.0
H393 H 0.6319 0.9924 0.95741 0.0
H394 H 0.73753 0.96412 0.83271 0.0
H395 H 0.83277 1.00501 0.90184 0.0
Co396 Co 0.44263 0.83186 0.63522 0.0
C397 C 0.39684 0.74994 0.64332 0.0
C398 C 0.364 0.80312 0.66308 0.0
C399 C 0.33984 0.76842 0.66823 0.0
N400 N 0.39994 0.79177 0.64782 0.0
N401 N 0.36019 0.73499 0.65551 0.0
H402 H 0.42003 0.73082 0.63081 0.0
H403 H 0.35572 0.83483 0.66972 0.0
C404 C 0.45523 0.88399 0.69989 0.0
O405 O 0.49173 0.89761 0.68956 0.0
N406 N 0.48378 0.87371 0.62255 0.0
C407 C 0.52457 0.86867 0.61513 0.0
C408 C 0.5423 0.90748 0.6104 0.0
C409 C 0.47704 0.91534 0.6209 0.0
N410 N 0.51239 0.93669 0.61428 0.0
C411 C 0.49741 0.76283 0.62565 0.0
C412 C 0.54777 0.77488 0.68133 0.0
C413 C 0.56056 0.7471 0.65566 0.0
C414 C 0.53393 0.73984 0.62847 0.0
C415 C 0.51043 0.79736 0.67763 0.0
N416 N 0.48673 0.79286 0.64902 0.0
H417 H 0.47895 0.75745 0.60334 0.0
H418 H 0.5022 0.81936 0.69715 0.0
H419 H 0.5408 0.83917 0.61405 0.0
H420 H 0.44744 0.92993 0.62683 0.0
O421 O 0.4395 0.81475 0.5886 0.0
O422 O 0.40027 0.86445 0.61133 0.0
O423 O 0.4352 0.8571 0.6823 0.0
C424 C 0.41041 0.84213 0.58477 0.0
H425 H 0.30969 0.76789 0.68073 0.0
H426 H 0.57484 0.91382 0.60524 0.0
H427 H 0.56753 0.78093 0.703 0.0
H428 H 0.54244 0.7181 0.6084 0.0
Co429 Co 0.22183 0.44692 0.62945 0.0
C430 C 0.29891 0.40276 0.65506 0.0
C431 C 0.26119 0.364 0.62321 0.0
C432 C 0.29458 0.34107 0.63379 0.0
N433 N 0.26363 0.40305 0.63614 0.0
N434 N 0.31826 0.36513 0.65399 0.0
H435 H 0.31018 0.42912 0.66954 0.0
H436 H 0.23691 0.35223 0.60696 0.0
C437 C 0.17854 0.4019 0.6836 0.0
O438 O 0.17301 0.37275 0.66054 0.0
N439 N 0.17901 0.48875 0.62315 0.0
C440 C 0.183 0.52841 0.61224 0.0
C441 C 0.14391 0.54637 0.61116 0.0
C442 C 0.13773 0.48283 0.62778 0.0
N443 N 0.11564 0.51755 0.62085 0.0
C444 C 0.29405 0.49841 0.62993 0.0
C445 C 0.26552 0.55328 0.67926 0.0
C446 C 0.29963 0.56481 0.65881 0.0
C447 C 0.31517 0.53598 0.63511 0.0
C448 C 0.24553 0.51513 0.67355 0.0
N449 N 0.25873 0.4892 0.648 0.0
H450 H 0.3045 0.47787 0.60974 0.0
H451 H 0.21713 0.50848 0.68742 0.0
H452 H 0.21215 0.54318 0.60539 0.0
H453 H 0.12409 0.45365 0.63607 0.0
O454 O 0.2385 0.45226 0.58272 0.0
O455 O 0.18883 0.40959 0.60088 0.0
O456 O 0.19838 0.43487 0.67566 0.0
C457 C 0.21065 0.42444 0.57558 0.0
H458 H 0.30159 0.30931 0.62622 0.0
H459 H 0.1367 0.57784 0.60318 0.0
H460 H 0.2528 0.57475 0.69799 0.0
H461 H 0.34143 0.54376 0.61886 0.0
Co462 Co 0.59925 0.22221 0.63732 0.0
C463 C 0.64201 0.30337 0.65684 0.0
C464 C 0.68394 0.25469 0.64159 0.0
C465 C 0.70696 0.28884 0.65074 0.0
N466 N 0.64303 0.26356 0.64484 0.0
N467 N 0.68079 0.31943 0.66074 0.0
H468 H 0.61395 0.32024 0.66334 0.0
H469 H 0.69667 0.22507 0.63347 0.0
C470 C 0.60169 0.16858 0.70182 0.0
O471 O 0.56459 0.1527 0.69668 0.0
N472 N 0.55752 0.17923 0.62978 0.0
C473 C 0.51596 0.18285 0.62627 0.0
C474 C 0.49929 0.1435 0.6216 0.0
C475 C 0.56555 0.13805 0.62608 0.0
N476 N 0.53052 0.11529 0.62192 0.0
C477 C 0.54401 0.29147 0.63722 0.0
C478 C 0.49985 0.27397 0.6959 0.0
C479 C 0.484 0.30406 0.67343 0.0
C480 C 0.50782 0.3138 0.64457 0.0
C481 C 0.53647 0.252 0.68747 0.0
N482 N 0.5571 0.2595 0.6575 0.0
H483 H 0.56077 0.2993 0.61424 0.0
H484 H 0.54667 0.22805 0.70448 0.0
H485 H 0.49874 0.21181 0.62723 0.0
H486 H 0.59661 0.12508 0.6269 0.0
O487 O 0.59315 0.24011 0.59098 0.0
O488 O 0.63697 0.19096 0.60703 0.0
O489 O 0.61629 0.19694 0.68222 0.0
C490 C 0.62168 0.21345 0.58258 0.0
H491 H 0.74053 0.29113 0.64926 0.0
H492 H 0.46658 0.13616 0.61898 0.0
H493 H 0.4834 0.26635 0.71922 0.0
H494 H 0.49737 0.33688 0.62645 0.0
Co495 Co 0.82853 0.60187 0.63786 0.0
C496 C 0.74423 0.64388 0.64542 0.0
C497 C 0.79643 0.68554 0.64783 0.0
C498 C 0.76075 0.70867 0.65117 0.0
N499 N 0.78643 0.64493 0.64402 0.0
N500 N 0.72808 0.68257 0.64972 0.0
H501 H 0.72554 0.6161 0.6426 0.0
H502 H 0.82779 0.69775 0.64768 0.0
C503 C 0.87693 0.60389 0.70459 0.0
O504 O 0.89217 0.56625 0.70011 0.0
N505 N 0.87248 0.56064 0.63178 0.0
C506 C 0.86974 0.51873 0.62978 0.0
C507 C 0.90942 0.50244 0.62685 0.0
C508 C 0.91364 0.56914 0.62921 0.0
N509 N 0.9371 0.53416 0.62686 0.0
C510 C 0.76284 0.54262 0.6328 0.0
C511 C 0.76941 0.50604 0.69591 0.0
C512 C 0.74392 0.48696 0.67135 0.0
C513 C 0.7399 0.50687 0.63995 0.0
C514 C 0.79236 0.5421 0.68757 0.0
N515 N 0.79029 0.55905 0.65569 0.0
H516 H 0.75896 0.55618 0.60802 0.0
H517 H 0.81231 0.55519 0.70662 0.0
H518 H 0.8412 0.50093 0.63078 0.0
H519 H 0.92601 0.6005 0.62941 0.0
O520 O 0.81443 0.5964 0.5907 0.0
O521 O 0.86109 0.64105 0.61009 0.0
O522 O 0.85025 0.61879 0.68395 0.0
C523 C 0.84064 0.62601 0.58438 0.0
H524 H 0.7588 0.74224 0.654 0.0
H525 H 0.91727 0.46963 0.62564 0.0
H526 H 0.77237 0.49282 0.72109 0.0
H527 H 0.72067 0.49383 0.62005 0.0
C528 C 0.15126 0.30299 0.98459 0.0
C529 C 0.14164 0.33916 0.96619 0.0
C530 C 0.15019 0.30297 0.02014 0.0
C531 C 0.13959 0.33915 0.03845 0.0
H532 H 0.15595 0.27358 0.97139 0.0
H533 H 0.15443 0.27363 0.03333 0.0
S534 S 0.11587 0.44293 1.00235 0.0
N535 N 0.12475 0.41298 0.96872 0.0
N536 N 0.12298 0.41296 0.03599 0.0
C537 C 0.13375 0.37651 0.02057 0.0
C538 C 0.13477 0.37652 0.98416 0.0
C539 C 0.74003 0.15881 0.99517 0.0
C540 C 0.7034 0.15015 0.97718 0.0
C541 C 0.74062 0.15767 0.03075 0.0
C542 C 0.70456 0.14797 0.04956 0.0
H543 H 0.76929 0.16265 0.98159 0.0
H544 H 0.77028 0.16073 0.04349 0.0
S545 S 0.59984 0.12698 0.01468 0.0
N546 N 0.62938 0.13524 0.98071 0.0
N547 N 0.63044 0.13332 0.04793 0.0
C548 C 0.66683 0.14333 0.03211 0.0
C549 C 0.66625 0.14441 0.99569 0.0
C550 C 0.89476 0.6715 0.99856 0.0
C551 C 0.89292 0.70938 0.98065 0.0
C552 C 0.8937 0.67119 0.03441 0.0
C553 C 0.8907 0.70875 0.0529 0.0
H554 H 0.90154 0.64269 0.98511 0.0
H555 H 0.89996 0.64219 0.04752 0.0
S556 S 0.87598 0.81458 0.01744 0.0
N557 N 0.88105 0.78408 0.98369 0.0
N558 N 0.87892 0.78347 0.05077 0.0
C559 C 0.88374 0.7459 0.03506 0.0
C560 C 0.88494 0.74623 0.99888 0.0
C561 C 0.37919 0.90626 0.99199 0.0
C562 C 0.34182 0.89719 0.97502 0.0
C563 C 0.3802 0.90848 0.0278 0.0
C564 C 0.34385 0.90163 0.04717 0.0
H565 H 0.40644 0.91593 0.9776 0.0
H566 H 0.40824 0.9195 0.04005 0.0
S567 S 0.2407 0.86958 0.01482 0.0
N568 N 0.26964 0.87574 0.98025 0.0
N569 N 0.27154 0.87973 0.04724 0.0
C570 C 0.30776 0.88831 0.03052 0.0
C571 C 0.30675 0.88608 0.9944 0.0
C572 C 0.6422 0.2483 0.49313 0.0
C573 C 0.63873 0.21118 0.47428 0.0
C574 C 0.64051 0.24804 0.52867 0.0
C575 C 0.63541 0.21063 0.54675 0.0
H576 H 0.64309 0.27815 0.48023 0.0
H577 H 0.64042 0.27767 0.54205 0.0
S578 S 0.62858 0.10456 0.50959 0.0
N579 N 0.63326 0.13561 0.47624 0.0
N580 N 0.63031 0.13514 0.54353 0.0
C581 C 0.63547 0.17289 0.52848 0.0
C582 C 0.63711 0.17316 0.49201 0.0
C583 C 0.87875 0.6365 0.49419 0.0
C584 C 0.84105 0.64447 0.47739 0.0
C585 C 0.88018 0.63528 0.53 0.0
C586 C 0.84397 0.6422 0.54955 0.0
H587 H 0.90604 0.62705 0.47972 0.0
H588 H 0.9085 0.62497 0.54219 0.0
S589 S 0.73989 0.67149 0.51756 0.0
N590 N 0.76853 0.66474 0.48285 0.0
N591 N 0.77129 0.66287 0.54987 0.0
C592 C 0.80746 0.65441 0.53299 0.0
C593 C 0.80596 0.65545 0.49685 0.0
C594 C 0.40008 0.88369 0.53217 0.0
C595 C 0.39216 0.84717 0.55087 0.0
C596 C 0.39984 0.88293 0.49632 0.0
C597 C 0.39188 0.84557 0.47862 0.0
H598 H 0.41104 0.91151 0.54503 0.0
H599 H 0.41047 0.91026 0.4826 0.0
S600 S 0.36168 0.74415 0.51623 0.0
N601 N 0.36993 0.77486 0.54934 0.0
N602 N 0.36984 0.77334 0.48224 0.0
C603 C 0.37932 0.81043 0.49717 0.0
C604 C 0.37933 0.81127 0.53336 0.0
C605 C 0.24325 0.40103 0.52201 0.0
C606 C 0.20657 0.40993 0.54028 0.0
C607 C 0.24336 0.39923 0.4865 0.0
C608 C 0.2068 0.40635 0.46807 0.0
H609 H 0.27269 0.39848 0.53516 0.0
H610 H 0.27292 0.39566 0.47329 0.0
S611 S 0.10189 0.42699 0.50416 0.0
N612 N 0.13209 0.42232 0.53783 0.0
N613 N 0.13228 0.41916 0.47057 0.0
C614 C 0.16916 0.41159 0.48605 0.0
C615 C 0.16905 0.41336 0.52245 0.0
C616 C 0.18423 0.10809 0.16098 0.0
C617 C 0.22553 0.10005 0.17127 0.0
C618 C 0.16942 0.1491 0.15671 0.0
C619 C 0.19535 0.1837 0.16249 0.0
H620 H 0.16374 0.08244 0.15464 0.0
H621 H 0.13845 0.15368 0.14671 0.0
S622 S 0.30371 0.18053 0.19435 0.0
N623 N 0.29065 0.131 0.19007 0.0
N624 N 0.26226 0.20753 0.18322 0.0
C625 C 0.23541 0.17625 0.1754 0.0
C626 C 0.2506 0.13463 0.17956 0.0
C627 C 0.8841 0.18938 0.12833 0.0
C628 C 0.86177 0.18506 0.15893 0.0
C629 C 0.92467 0.20574 0.12801 0.0
C630 C 0.9448 0.21776 0.15838 0.0
H631 H 0.86936 0.18173 0.10441 0.0
H632 H 0.93973 0.21036 0.10355 0.0
S633 S 0.90063 0.20702 0.24562 0.0
N634 N 0.86292 0.19103 0.22039 0.0
N635 N 0.93986 0.21981 0.22028 0.0
C636 C 0.92316 0.21152 0.18932 0.0
C637 C 0.88155 0.19563 0.18947 0.0
C638 C 0.82059 0.91005 0.13287 0.0
C639 C 0.81493 0.93436 0.16265 0.0
C640 C 0.83811 0.86996 0.13404 0.0
C641 C 0.84983 0.8522 0.16508 0.0
H642 H 0.81073 0.92171 0.10838 0.0
H643 H 0.8415 0.85223 0.11067 0.0
S644 S 0.84484 0.90256 0.24997 0.0
N645 N 0.82561 0.9379 0.22391 0.0
N646 N 0.85654 0.86173 0.226 0.0
C647 C 0.84477 0.87583 0.19496 0.0
C648 C 0.82775 0.91703 0.19379 0.0
C649 C 0.15979 0.85999 0.16391 0.0
C650 C 0.19249 0.8376 0.14832 0.0
C651 C 0.11991 0.84226 0.16754 0.0
C652 C 0.11165 0.80146 0.15601 0.0
H653 H 0.16536 0.89094 0.174 0.0
H654 H 0.09547 0.86036 0.17971 0.0
S655 S 0.18486 0.73225 0.10926 0.0
N656 N 0.21252 0.77427 0.1181 0.0
N657 N 0.13817 0.74085 0.12569 0.0
C658 C 0.1437 0.77937 0.1395 0.0
C659 C 0.18395 0.79747 0.13546 0.0
C660 C 0.6876 0.43184 0.357 0.0
C661 C 0.73065 0.43985 0.35856 0.0
C662 C 0.67202 0.39078 0.35857 0.0
C663 C 0.6989 0.35635 0.36229 0.0
H664 H 0.66589 0.4575 0.35461 0.0
H665 H 0.63878 0.38593 0.3566 0.0
S666 S 0.81385 0.36182 0.37221 0.0
N667 N 0.79951 0.4107 0.36637 0.0
N668 N 0.77061 0.33408 0.37071 0.0
C669 C 0.74198 0.36438 0.36489 0.0
C670 C 0.75772 0.40596 0.3627 0.0
C671 C 0.63893 0.75944 0.37446 0.0
C672 C 0.60404 0.73384 0.36921 0.0
C673 C 0.67915 0.74266 0.37621 0.0
C674 C 0.68646 0.69949 0.37258 0.0
H675 H 0.6351 0.79279 0.37783 0.0
H676 H 0.7048 0.76382 0.38065 0.0
S677 S 0.60571 0.61896 0.35723 0.0
N678 N 0.57927 0.66308 0.36003 0.0
N679 N 0.65509 0.63155 0.3627 0.0
C680 C 0.65181 0.6734 0.36741 0.0
C681 C 0.61063 0.69056 0.36583 0.0
C682 C 0.35026 0.62271 0.35079 0.0
C683 C 0.30756 0.61404 0.35524 0.0
C684 C 0.366 0.66342 0.35497 0.0
C685 C 0.33965 0.69685 0.36402 0.0
H686 H 0.37163 0.59782 0.34404 0.0
H687 H 0.39889 0.66886 0.35072 0.0
S688 S 0.22636 0.68937 0.3829 0.0
N689 N 0.23989 0.64157 0.37167 0.0
N690 N 0.2693 0.7175 0.38012 0.0
C691 C 0.29707 0.68822 0.36937 0.0
C692 C 0.28109 0.64701 0.36483 0.0
C693 C 0.38801 0.372 0.35051 0.0
C694 C 0.35376 0.34545 0.35647 0.0
C695 C 0.42889 0.35624 0.34854 0.0
C696 C 0.43693 0.31328 0.35194 0.0
H697 H 0.38316 0.40515 0.34716 0.0
H698 H 0.45443 0.37777 0.34443 0.0
S699 S 0.35936 0.23106 0.37144 0.0
N700 N 0.33167 0.27429 0.36866 0.0
N701 N 0.40798 0.24493 0.36368 0.0
C702 C 0.40319 0.28651 0.35819 0.0
C703 C 0.36178 0.3025 0.36076 0.0
C704 C 0.80002 0.86199 0.87409 0.0
C705 C 0.84304 0.85498 0.86953 0.0
C706 C 0.78288 0.9021 0.87199 0.0
C707 C 0.80798 0.93712 0.86537 0.0
H708 H 0.77935 0.83624 0.8798 0.0
H709 H 0.74974 0.9058 0.8764 0.0
S710 S 0.92204 0.93592 0.84957 0.0
N711 N 0.91011 0.88654 0.85663 0.0
N712 N 0.87794 0.96216 0.85317 0.0
C713 C 0.85102 0.93072 0.86059 0.0
C714 C 0.86853 0.88968 0.86258 0.0
C715 C 0.15668 0.86614 0.86329 0.0
C716 C 0.19128 0.84045 0.86968 0.0
C717 C 0.11606 0.8496 0.86234 0.0
C718 C 0.10865 0.80673 0.86756 0.0
H719 H 0.16115 0.89906 0.85836 0.0
H720 H 0.09029 0.87039 0.85718 0.0
S721 S 0.18782 0.72736 0.88986 0.0
N722 N 0.21474 0.77078 0.88461 0.0
N723 N 0.1389 0.73983 0.88237 0.0
C724 C 0.14285 0.78105 0.87491 0.0
C725 C 0.184 0.79784 0.8761 0.0
C726 C 0.18501 0.10999 0.85996 0.0
C727 C 0.22828 0.103 0.86116 0.0
C728 C 0.16859 0.15076 0.86067 0.0
C729 C 0.19491 0.18576 0.86299 0.0
H730 H 0.16383 0.0838 0.8581 0.0
H731 H 0.13526 0.15498 0.85867 0.0
S732 S 0.30991 0.18346 0.87218 0.0
N733 N 0.29662 0.13399 0.86791 0.0
N734 N 0.26603 0.21015 0.87021 0.0
C735 C 0.23808 0.17885 0.86567 0.0
C736 C 0.25468 0.1376 0.86451 0.0
C737 C 0.88221 0.17456 0.85494 0.0
C738 C 0.84839 0.2018 0.86053 0.0
C739 C 0.92317 0.18975 0.8519 0.0
C740 C 0.9317 0.23276 0.85393 0.0
H741 H 0.87694 0.14131 0.85268 0.0
H742 H 0.94838 0.16775 0.84801 0.0
S743 S 0.85524 0.31676 0.87187 0.0
N744 N 0.8271 0.2737 0.87069 0.0
N745 N 0.9036 0.30201 0.86403 0.0
C746 C 0.89834 0.26022 0.85984 0.0
C747 C 0.85684 0.24483 0.86335 0.0
C748 C 0.37248 0.65887 0.66103 0.0
C749 C 0.34521 0.69247 0.6552 0.0
C750 C 0.3577 0.61754 0.66258 0.0
C751 C 0.31511 0.60851 0.65864 0.0
H752 H 0.4053 0.66466 0.665 0.0
H753 H 0.37962 0.59253 0.66719 0.0
S754 S 0.23191 0.68442 0.63826 0.0
N755 N 0.27428 0.71314 0.64209 0.0
N756 N 0.24662 0.63598 0.64568 0.0
C757 C 0.28782 0.64167 0.65189 0.0
C758 C 0.30282 0.68349 0.65002 0.0
C759 C 0.39298 0.37942 0.6636 0.0
C760 C 0.35829 0.35308 0.66735 0.0
C761 C 0.43365 0.36427 0.6684 0.0
C762 C 0.44119 0.32219 0.67713 0.0
H763 H 0.38887 0.41102 0.65456 0.0
H764 H 0.45952 0.38512 0.66344 0.0
S765 S 0.35996 0.24267 0.69533 0.0
N766 N 0.33354 0.28491 0.68506 0.0
N767 N 0.40954 0.25592 0.69282 0.0
C768 C 0.40638 0.29668 0.68375 0.0
C769 C 0.3651 0.31223 0.6791 0.0
C770 C 0.66912 0.39581 0.65949 0.0
C771 C 0.69273 0.36143 0.67025 0.0
C772 C 0.68444 0.43673 0.66254 0.0
C773 C 0.72415 0.44501 0.67624 0.0
H774 H 0.63973 0.39095 0.64677 0.0
H775 H 0.66581 0.46196 0.6525 0.0
S776 S 0.79481 0.36614 0.71383 0.0
N777 N 0.75464 0.33883 0.70027 0.0
N778 N 0.78448 0.41514 0.70423 0.0
C779 C 0.74648 0.41108 0.68962 0.0
C780 C 0.73059 0.3695 0.68695 0.0
C781 C 0.61758 0.70108 0.67866 0.0
C782 C 0.60337 0.72973 0.65425 0.0
C783 C 0.65794 0.68391 0.67627 0.0
C784 C 0.68521 0.69539 0.6497 0.0
H785 H 0.59737 0.69186 0.69952 0.0
H786 H 0.66838 0.66257 0.69574 0.0
S787 S 0.66301 0.76897 0.57971 0.0
N788 N 0.61975 0.76839 0.60272 0.0
N789 N 0.69531 0.73657 0.59869 0.0
C790 C 0.6712 0.72373 0.62524 0.0
C791 C 0.63035 0.7408 0.62741 0.0
C792 C 0.13728 0.42801 0.2755 0.0
C793 C 0.17991 0.41849 0.27758 0.0
C794 C 0.11304 0.41307 0.2485 0.0
C795 C 0.13034 0.38737 0.22287 0.0
H796 H 0.1226 0.44758 0.29468 0.0
H797 H 0.08048 0.42178 0.24778 0.0
S798 S 0.24022 0.35119 0.21795 0.0
N799 N 0.23818 0.38054 0.25251 0.0
N800 N 0.19281 0.35207 0.2021 0.0
C801 C 0.17286 0.37693 0.22512 0.0
C802 C 0.19759 0.39262 0.25235 0.0
C803 C 0.61194 0.08781 0.24807 0.0
C804 C 0.64581 0.10678 0.23116 0.0
C805 C 0.5949 0.10488 0.27803 0.0
C806 C 0.61083 0.14182 0.29246 0.0
H807 H 0.59806 0.0596 0.23802 0.0
H808 H 0.56899 0.0888 0.28996 0.0
S809 S 0.69968 0.20373 0.25859 0.0
N810 N 0.69537 0.16419 0.23189 0.0
N811 N 0.66247 0.19698 0.28722 0.0
C812 C 0.64477 0.16108 0.27592 0.0
C813 C 0.66243 0.14344 0.24558 0.0
C814 C 0.89821 0.66385 0.29672 0.0
C815 C 0.89922 0.61997 0.29617 0.0
C816 C 0.91377 0.68734 0.26949 0.0
C817 C 0.93054 0.66795 0.24031 0.0
H818 H 0.88548 0.6804 0.31848 0.0
H819 H 0.91156 0.72102 0.27106 0.0
S820 S 0.94232 0.55394 0.22656 0.0
N821 N 0.92001 0.55795 0.26447 0.0
N822 N 0.94877 0.60223 0.21293 0.0
C823 C 0.93247 0.62409 0.23955 0.0
C824 C 0.91704 0.60008 0.26759 0.0
C825 C 0.43486 0.90913 0.28294 0.0
C826 C 0.41848 0.8692 0.28922 0.0
C827 C 0.42174 0.93268 0.25482 0.0
C828 C 0.39103 0.91753 0.23245 0.0
H829 H 0.45847 0.92193 0.29952 0.0
H830 H 0.43596 0.96287 0.25057 0.0
S831 S 0.33512 0.81628 0.24074 0.0
N832 N 0.36849 0.81644 0.27243 0.0
N833 N 0.34256 0.86084 0.2207 0.0
C834 C 0.37346 0.87808 0.23948 0.0
C835 C 0.38751 0.85389 0.26756 0.0
C836 C 0.92555 0.63551 0.78911 0.0
C837 C 0.91806 0.67875 0.79061 0.0
C838 C 0.91231 0.61148 0.76122 0.0
C839 C 0.8904 0.62966 0.7341 0.0
H840 H 0.94204 0.62015 0.8095 0.0
H841 H 0.91907 0.57837 0.76111 0.0
S842 S 0.86179 0.74168 0.72649 0.0
N843 N 0.88676 0.73866 0.76291 0.0
N844 N 0.86171 0.69384 0.71093 0.0
C845 C 0.88249 0.6729 0.73556 0.0
C846 C 0.89637 0.69734 0.76367 0.0
C847 C 0.45478 0.935 0.74849 0.0
C848 C 0.43706 0.9 0.73241 0.0
C849 C 0.43731 0.952 0.77832 0.0
C850 C 0.40133 0.93477 0.79344 0.0
H851 H 0.48223 0.94981 0.73783 0.0
H852 H 0.4524 0.97881 0.78965 0.0
S853 S 0.34277 0.84273 0.76167 0.0
N854 N 0.38177 0.84812 0.73448 0.0
N855 N 0.34829 0.88079 0.78962 0.0
C856 C 0.38325 0.89976 0.77762 0.0
C857 C 0.40124 0.88223 0.7474 0.0
C858 C 0.15292 0.4245 0.77657 0.0
C859 C 0.13456 0.38716 0.78786 0.0
C860 C 0.16637 0.42918 0.74275 0.0
C861 C 0.16229 0.39656 0.71885 0.0
H862 H 0.15744 0.45023 0.79411 0.0
H863 H 0.18059 0.4585 0.73547 0.0
S864 S 0.11624 0.29218 0.73552 0.0
N865 N 0.11265 0.31692 0.7723 0.0
N866 N 0.13807 0.32561 0.70897 0.0
C867 C 0.14334 0.35923 0.72968 0.0
C868 C 0.12942 0.35456 0.76408 0.0
C869 C 0.60847 0.13056 0.75747 0.0
C870 C 0.62699 0.15389 0.73101 0.0
C871 C 0.63193 0.11628 0.78517 0.0
C872 C 0.67496 0.12402 0.78711 0.0
H873 H 0.57549 0.12356 0.75702 0.0
H874 H 0.61631 0.09879 0.80508 0.0
S875 S 0.73856 0.18398 0.72482 0.0
N876 N 0.69118 0.18434 0.70893 0.0
N877 N 0.73503 0.15722 0.76054 0.0
C878 C 0.6939 0.14714 0.7608 0.0
C879 C 0.67 0.16215 0.73291 0.0
C880 C 0.98281 0.53512 0.11532 0.0
C881 C 1.01547 0.56261 0.10674 0.0
C882 C 0.98878 0.49172 0.11609 0.0
C883 C 0.02771 0.47363 0.10834 0.0
H884 H 0.9521 0.54712 0.12125 0.0
H885 H 0.96271 0.47221 0.12332 0.0
S886 S 0.12361 0.53134 0.08387 0.0
N887 N 0.08862 0.56819 0.09075 0.0
N888 N 0.09926 0.4868 0.09077 0.0
C889 C 0.06062 0.50063 0.09942 0.0
C890 C 0.05463 0.54496 0.09888 0.0
C891 C 0.49595 0.04976 0.09827 0.0
C892 C 0.47764 1.01916 0.11933 0.0
C893 C 0.53948 0.05439 0.0961 0.0
C894 C 0.56613 0.02831 0.11462 0.0
H895 H 0.47651 0.06988 0.08304 0.0
H896 H 0.55247 0.07805 0.07951 0.0
S897 S 0.53439 0.94745 0.17681 0.0
N898 N 0.49008 0.96542 0.1617 0.0
N899 N 0.57148 0.97349 0.15674 0.0
C900 C 0.54836 0.99841 0.13632 0.0
C901 C 0.50422 0.99396 0.13888 0.0
C902 C 0.49433 0.05079 0.43077 0.0
C903 C 0.52702 0.0691 0.41184 0.0
C904 C 0.48911 1.00725 0.43199 0.0
C905 C 0.51674 0.98039 0.41478 0.0
H906 H 0.47262 0.07028 0.44479 0.0
H907 H 0.46347 0.99436 0.44662 0.0
S908 S 0.60477 1.01135 0.3591 0.0
N909 N 0.58541 0.05596 0.37317 0.0
N910 N 0.57633 0.97442 0.37704 0.0
C911 C 0.54932 0.99791 0.39574 0.0
C912 C 0.55432 0.04217 0.3939 0.0
C913 C 0.99954 0.49864 0.42236 0.0
C914 C 0.97943 0.53143 0.40512 0.0
C915 C 0.0431 0.49401 0.42119 0.0
C916 C 0.06827 0.52236 0.4032 0.0
H917 H 0.98149 0.47645 0.43704 0.0
H918 H 0.05733 0.4684 0.43474 0.0
S919 S 0.03205 0.61085 0.35091 0.0
N920 N 0.9889 0.59057 0.3669 0.0
N921 N 0.07055 0.58267 0.36632 0.0
C922 C 0.04892 0.55496 0.38568 0.0
C923 C 1.00459 0.55933 0.38625 0.0
C924 C 0.98708 0.53883 0.92711 0.0
C925 C 1.01542 0.56639 0.91171 0.0
C926 C 0.99211 0.49537 0.92426 0.0
C927 C 0.02522 0.47767 0.90522 0.0
H928 H 0.96108 0.55109 0.94173 0.0
H929 H 0.96986 0.47558 0.93725 0.0
S930 S 0.10553 0.53782 0.85722 0.0
N931 N 0.07659 0.5739 0.87593 0.0
N932 N 0.08519 0.49264 0.86868 0.0
C933 C 0.05332 0.50542 0.8891 0.0
C934 C 0.04859 0.54962 0.89278 0.0
C935 C 0.5371 0.06091 0.91114 0.0
C936 C 0.56426 0.02778 0.91886 0.0
C937 C 0.49371 0.05541 0.91072 0.0
C938 C 0.47539 1.01651 0.91808 0.0
H939 H 0.54936 0.09158 0.90544 0.0
H940 H 0.47445 0.08172 0.90387 0.0
S941 S 0.53211 0.91988 0.94138 0.0
N942 N 0.56921 0.95447 0.93429 0.0
N943 N 0.48787 0.94478 0.9352 0.0
C944 C 0.50204 0.98331 0.92663 0.0
C945 C 0.54632 0.98879 0.9267 0.0
C946 C 0.49072 1.00808 0.59835 0.0
C947 C 0.51787 0.98134 0.61579 0.0
C948 C 0.49524 0.05171 0.60019 0.0
C949 C 0.52682 0.07028 0.61986 0.0
H950 H 0.46607 0.99505 0.58297 0.0
H951 H 0.47402 0.07106 0.58592 0.0
S952 S 0.60246 1.01354 0.67384 0.0
N953 N 0.5754 0.97628 0.65516 0.0
N954 N 0.58333 0.05789 0.65951 0.0
C955 C 0.55348 0.04365 0.6381 0.0
C956 C 0.54912 0.99933 0.63586 0.0
C957 C 1.00131 0.49713 0.60829 0.0
C958 C 0.98214 0.53082 0.6255 0.0
C959 C 0.04486 0.49283 0.60702 0.0
C960 C 0.07103 0.52233 0.62249 0.0
H961 H 0.98253 0.47403 0.5954 0.0
H962 H 0.05829 0.46659 0.5934 0.0
S963 S 0.03751 0.61388 0.67348 0.0
N964 N 0.99356 0.59237 0.66078 0.0
N965 N 0.07517 0.58491 0.65702 0.0
C966 C 0.05258 0.55587 0.63998 0.0
C967 C 1.00824 0.55999 0.64182 0.0
loop_
_geom_bond_atom_site_label_1
_geom_bond_atom_site_label_2
_geom_bond_distance
_geom_bond_site_symmetry_2
_ccdc_geom_bond_type
Co0 N4 2.148 . S
Co0 N10 2.128 . S
Co0 N20 2.194 . S
Co0 O25 2.351 . S
Co0 O26 2.155 . S
Co0 O27 2.096 . S
C1 N4 1.301 . S
C1 N5 1.328 . S
C1 H6 0.930 . S
C2 C3 1.333 . S
C2 N4 1.317 . S
C2 H7 0.930 . S
C3 C2 1.333 . S
C3 N5 1.350 . S
C3 H29 0.931 . S
N4 Co0 2.148 . S
N4 C1 1.301 . S
N4 C2 1.317 . S
N5 C1 1.328 . S
N5 C3 1.350 . S
H6 C1 0.930 . S
H7 C2 0.930 . S
C8 O9 1.224 . S
C8 O27 1.247 . S
O9 C8 1.224 . S
N10 Co0 2.128 . S
N10 C11 1.355 . S
N10 C13 1.311 . S
C11 N10 1.355 . S
C11 C12 1.363 1_455 S
C11 H23 0.929 . S
C12 C11 1.363 1_655 S
C12 N14 1.375 1_655 S
C12 H30 0.931 . S
C13 N10 1.311 . S
C13 N14 1.347 . S
C13 H24 0.929 . S
N14 C12 1.375 1_455 S
N14 C13 1.347 . S
C15 C18 1.365 1_455 S
C15 N20 1.328 . S
C15 H21 0.929 . S
C16 C17 1.362 . S
C16 C19 1.378 1_655 S
C16 H31 0.929 . S
C17 C16 1.362 . S
C17 C18 1.366 . S
C18 C15 1.365 1_655 S
C18 C17 1.366 . S
C18 H32 0.930 . S
C19 C16 1.378 1_455 S
C19 N20 1.315 . S
C19 H22 0.930 . S
N20 Co0 2.194 . S
N20 C15 1.328 . S
N20 C19 1.315 . S
H21 C15 0.929 . S
H22 C19 0.930 . S
H23 C11 0.929 . S
H24 C13 0.929 . S
O25 Co0 2.351 . S
O25 C28 1.244 . S
O26 Co0 2.155 . S
O26 C28 1.240 . S
O27 Co0 2.096 . S
O27 C8 1.247 . S
C28 O25 1.244 . S
C28 O26 1.240 . S
H29 C3 0.931 . S
H30 C12 0.931 . S
H31 C16 0.929 . S
H32 C18 0.930 . S
Co33 N37 2.148 . S
Co33 N43 2.128 . S
Co33 N53 2.194 . S
Co33 O58 2.351 . S
Co33 O59 2.155 . S
Co33 O60 2.096 . S
C34 N37 1.301 . S
C34 N38 1.328 . S
C34 H39 0.930 . S
C35 C36 1.333 . S
C35 N37 1.317 . S
C35 H40 0.930 . S
C36 C35 1.333 . S
C36 N38 1.350 . S
C36 H62 0.931 . S
N37 Co33 2.148 . S
N37 C34 1.301 . S
N37 C35 1.317 . S
N38 C34 1.328 . S
N38 C36 1.350 . S
H39 C34 0.930 . S
H40 C35 0.930 . S
C41 O42 1.224 . S
C41 O60 1.247 . S
O42 C41 1.224 . S
N43 Co33 2.128 . S
N43 C44 1.355 . S
N43 C46 1.311 . S
C44 N43 1.355 . S
C44 C45 1.363 1_545 S
C44 H56 0.929 . S
C45 C44 1.363 1_565 S
C45 N47 1.375 1_565 S
C45 H63 0.931 . S
C46 N43 1.311 . S
C46 N47 1.347 . S
C46 H57 0.929 . S
N47 C45 1.375 1_545 S
N47 C46 1.347 . S
C48 C51 1.365 1_545 S
C48 N53 1.328 . S
C48 H54 0.929 . S
C49 C50 1.362 . S
C49 C52 1.378 1_565 S
C49 H64 0.929 . S
C50 C49 1.362 . S
C50 C51 1.366 . S
C51 C48 1.365 1_565 S
C51 C50 1.366 . S
C51 H65 0.930 . S
C52 C49 1.378 1_545 S
C52 N53 1.315 . S
C52 H55 0.930 . S
N53 Co33 2.194 . S
N53 C48 1.328 . S
N53 C52 1.315 . S
H54 C48 0.929 . S
H55 C52 0.930 . S
H56 C44 0.929 . S
H57 C46 0.929 . S
O58 Co33 2.351 . S
O58 C61 1.244 . S
O59 Co33 2.155 . S
O59 C61 1.240 . S
O60 Co33 2.096 . S
O60 C41 1.247 . S
C61 O58 1.244 . S
C61 O59 1.240 . S
H62 C36 0.931 . S
H63 C45 0.931 . S
H64 C49 0.929 . S
H65 C51 0.930 . S
Co66 N70 2.148 . S
Co66 N76 2.128 . S
Co66 N86 2.194 . S
Co66 O91 2.351 . S
Co66 O92 2.155 . S
Co66 O93 2.096 . S
C67 N70 1.301 . S
C67 N71 1.328 . S
C67 H72 0.930 . S
C68 C69 1.333 . S
C68 N70 1.317 . S
C68 H73 0.930 . S
C69 C68 1.333 . S
C69 N71 1.350 . S
C69 H95 0.931 . S
N70 Co66 2.148 . S
N70 C67 1.301 . S
N70 C68 1.317 . S
N71 C67 1.328 . S
N71 C69 1.350 . S
H72 C67 0.930 . S
H73 C68 0.930 . S
C74 O75 1.224 . S
C74 O93 1.247 . S
O75 C74 1.224 . S
N76 Co66 2.128 . S
N76 C77 1.355 . S
N76 C79 1.311 . S
C77 N76 1.355 . S
C77 C78 1.363 1_655 S
C77 H89 0.929 . S
C78 C77 1.363 1_455 S
C78 N80 1.375 1_455 S
C78 H96 0.931 . S
C79 N76 1.311 . S
C79 N80 1.347 . S
C79 H90 0.929 . S
N80 C78 1.375 1_655 S
N80 C79 1.347 . S
C81 C84 1.365 1_655 S
C81 N86 1.328 . S
C81 H87 0.929 . S
C82 C83 1.362 . S
C82 C85 1.378 1_455 S
C82 H97 0.929 . S
C83 C82 1.362 . S
C83 C84 1.366 . S
C84 C81 1.365 1_455 S
C84 C83 1.366 . S
C84 H98 0.930 . S
C85 C82 1.378 1_655 S
C85 N86 1.315 . S
C85 H88 0.930 . S
N86 Co66 2.194 . S
N86 C81 1.328 . S
N86 C85 1.315 . S
H87 C81 0.929 . S
H88 C85 0.930 . S
H89 C77 0.929 . S
H90 C79 0.929 . S
O91 Co66 2.351 . S
O91 C94 1.244 . S
O92 Co66 2.155 . S
O92 C94 1.240 . S
O93 Co66 2.096 . S
O93 C74 1.247 . S
C94 O91 1.244 . S
C94 O92 1.240 . S
H95 C69 0.931 . S
H96 C78 0.931 . S
H97 C82 0.929 . S
H98 C84 0.930 . S
Co99 N103 2.148 . S
Co99 N109 2.128 . S
Co99 N119 2.194 . S
Co99 O124 2.351 . S
Co99 O125 2.155 . S
Co99 O126 2.096 . S
C100 N103 1.301 . S
C100 N104 1.328 . S
C100 H105 0.930 . S
C101 C102 1.333 . S
C101 N103 1.317 . S
C101 H106 0.930 . S
C102 C101 1.333 . S
C102 N104 1.350 . S
C102 H128 0.931 . S
N103 Co99 2.148 . S
N103 C100 1.301 . S
N103 C101 1.317 . S
N104 C100 1.328 . S
N104 C102 1.350 . S
H105 C100 0.930 . S
H106 C101 0.930 . S
C107 O108 1.224 . S
C107 O126 1.247 . S
O108 C107 1.224 . S
N109 Co99 2.128 . S
N109 C110 1.355 . S
N109 C112 1.311 . S
C110 N109 1.355 . S
C110 C111 1.363 1_565 S
C110 H122 0.929 . S
C111 C110 1.363 1_545 S
C111 N113 1.375 1_545 S
C111 H129 0.931 . S
C112 N109 1.311 . S
C112 N113 1.347 . S
C112 H123 0.929 . S
N113 C111 1.375 1_565 S
N113 C112 1.347 . S
C114 C117 1.365 1_565 S
C114 N119 1.328 . S
C114 H120 0.929 . S
C115 C116 1.362 . S
C115 C118 1.378 1_545 S
C115 H130 0.929 . S
C116 C115 1.362 . S
C116 C117 1.366 . S
C117 C114 1.365 1_545 S
C117 C116 1.366 . S
C117 H131 0.930 . S
C118 C115 1.378 1_565 S
C118 N119 1.315 . S
C118 H121 0.930 . S
N119 Co99 2.194 . S
N119 C114 1.328 . S
N119 C118 1.315 . S
H120 C114 0.929 . S
H121 C118 0.930 . S
H122 C110 0.929 . S
H123 C112 0.929 . S
O124 Co99 2.351 . S
O124 C127 1.244 . S
O125 Co99 2.155 . S
O125 C127 1.240 . S
O126 Co99 2.096 . S
O126 C107 1.247 . S
C127 O124 1.244 . S
C127 O125 1.240 . S
H128 C102 0.931 . S
H129 C111 0.931 . S
H130 C115 0.929 . S
H131 C117 0.930 . S
Co132 N136 2.148 . S
Co132 N142 2.128 . S
Co132 N152 2.194 . S
Co132 O157 2.351 . S
Co132 O158 2.155 . S
Co132 O159 2.096 . S
C133 N136 1.301 . S
C133 N137 1.328 . S
C133 H138 0.930 . S
C134 C135 1.333 . S
C134 N136 1.317 . S
C134 H139 0.930 . S
C135 C134 1.333 . S
C135 N137 1.350 . S
C135 H161 0.931 . S
N136 Co132 2.148 . S
N136 C133 1.301 . S
N136 C134 1.317 . S
N137 C133 1.328 . S
N137 C135 1.350 . S
H138 C133 0.930 . S
H139 C134 0.930 . S
C140 O141 1.224 . S
C140 O159 1.247 . S
O141 C140 1.224 . S
N142 Co132 2.128 . S
N142 C143 1.355 . S
N142 C145 1.311 . S
C143 N142 1.355 . S
C143 C144 1.363 . S
C143 H155 0.929 . S
C144 C143 1.363 . S
C144 N146 1.375 . S
C144 H162 0.931 . S
C145 N142 1.311 . S
C145 N146 1.347 . S
C145 H156 0.929 . S
N146 C144 1.375 . S
N146 C145 1.347 . S
C147 C150 1.365 . S
C147 N152 1.328 . S
C147 H153 0.929 . S
C148 C149 1.362 . S
C148 C151 1.378 . S
C148 H163 0.929 . S
C149 C148 1.362 . S
C149 C150 1.366 . S
C150 C147 1.365 . S
C150 C149 1.366 . S
C150 H164 0.930 . S
C151 C148 1.378 . S
C151 N152 1.315 . S
C151 H154 0.930 . S
N152 Co132 2.194 . S
N152 C147 1.328 . S
N152 C151 1.315 . S
H153 C147 0.929 . S
H154 C151 0.930 . S
H155 C143 0.929 . S
H156 C145 0.929 . S
O157 Co132 2.351 . S
O157 C160 1.244 . S
O158 Co132 2.155 . S
O158 C160 1.240 . S
O159 Co132 2.096 . S
O159 C140 1.247 . S
C160 O157 1.244 . S
C160 O158 1.240 . S
H161 C135 0.931 . S
H162 C144 0.931 . S
H163 C148 0.929 . S
H164 C150 0.930 . S
Co165 N169 2.148 . S
Co165 N175 2.128 . S
Co165 N185 2.194 . S
Co165 O190 2.351 . S
Co165 O191 2.155 . S
Co165 O192 2.096 . S
C166 N169 1.301 . S
C166 N170 1.328 . S
C166 H171 0.930 . S
C167 C168 1.333 . S
C167 N169 1.317 . S
C167 H172 0.930 . S
C168 C167 1.333 . S
C168 N170 1.350 . S
C168 H194 0.931 . S
N169 Co165 2.148 . S
N169 C166 1.301 . S
N169 C167 1.317 . S
N170 C166 1.328 . S
N170 C168 1.350 . S
H171 C166 0.930 . S
H172 C167 0.930 . S
C173 O174 1.224 . S
C173 O192 1.247 . S
O174 C173 1.224 . S
N175 Co165 2.128 . S
N175 C176 1.355 . S
N175 C178 1.311 . S
C176 N175 1.355 . S
C176 C177 1.363 . S
C176 H188 0.929 . S
C177 C176 1.363 . S
C177 N179 1.375 . S
C177 H195 0.931 . S
C178 N175 1.311 . S
C178 N179 1.347 . S
C178 H189 0.929 . S
N179 C177 1.375 . S
N179 C178 1.347 . S
C180 C183 1.365 . S
C180 N185 1.328 . S
C180 H186 0.929 . S
C181 C182 1.362 . S
C181 C184 1.378 . S
C181 H196 0.929 . S
C182 C181 1.362 . S
C182 C183 1.366 . S
C183 C180 1.365 . S
C183 C182 1.366 . S
C183 H197 0.930 . S
C184 C181 1.378 . S
C184 N185 1.315 . S
C184 H187 0.930 . S
N185 Co165 2.194 . S
N185 C180 1.328 . S
N185 C184 1.315 . S
H186 C180 0.929 . S
H187 C184 0.930 . S
H188 C176 0.929 . S
H189 C178 0.929 . S
O190 Co165 2.351 . S
O190 C193 1.244 . S
O191 Co165 2.155 . S
O191 C193 1.240 . S
O192 Co165 2.096 . S
O192 C173 1.247 . S
C193 O190 1.244 . S
C193 O191 1.240 . S
H194 C168 0.931 . S
H195 C177 0.931 . S
H196 C181 0.929 . S
H197 C183 0.930 . S
Co198 N202 2.148 . S
Co198 N208 2.128 . S
Co198 N218 2.194 . S
Co198 O223 2.351 . S
Co198 O224 2.155 . S
Co198 O225 2.096 . S
C199 N202 1.301 . S
C199 N203 1.328 . S
C199 H204 0.930 . S
C200 C201 1.333 . S
C200 N202 1.317 . S
C200 H205 0.930 . S
C201 C200 1.333 . S
C201 N203 1.350 . S
C201 H227 0.931 . S
N202 Co198 2.148 . S
N202 C199 1.301 . S
N202 C200 1.317 . S
N203 C199 1.328 . S
N203 C201 1.350 . S
H204 C199 0.930 . S
H205 C200 0.930 . S
C206 O207 1.224 . S
C206 O225 1.247 . S
O207 C206 1.224 . S
N208 Co198 2.128 . S
N208 C209 1.355 . S
N208 C211 1.311 . S
C209 N208 1.355 . S
C209 C210 1.363 . S
C209 H221 0.929 . S
C210 C209 1.363 . S
C210 N212 1.375 . S
C210 H228 0.931 . S
C211 N208 1.311 . S
C211 N212 1.347 . S
C211 H222 0.929 . S
N212 C210 1.375 . S
N212 C211 1.347 . S
C213 C216 1.365 . S
C213 N218 1.328 . S
C213 H219 0.929 . S
C214 C215 1.362 . S
C214 C217 1.378 . S
C214 H229 0.929 . S
C215 C214 1.362 . S
C215 C216 1.366 . S
C216 C213 1.365 . S
C216 C215 1.366 . S
C216 H230 0.930 . S
C217 C214 1.378 . S
C217 N218 1.315 . S
C217 H220 0.930 . S
N218 Co198 2.194 . S
N218 C213 1.328 . S
N218 C217 1.315 . S
H219 C213 0.929 . S
H220 C217 0.930 . S
H221 C209 0.929 . S
H222 C211 0.929 . S
O223 Co198 2.351 . S
O223 C226 1.244 . S
O224 Co198 2.155 . S
O224 C226 1.240 . S
O225 Co198 2.096 . S
O225 C206 1.247 . S
C226 O223 1.244 . S
C226 O224 1.240 . S
H227 C201 0.931 . S
H228 C210 0.931 . S
H229 C214 0.929 . S
H230 C216 0.930 . S
Co231 N235 2.148 . S
Co231 N241 2.128 . S
Co231 N251 2.194 . S
Co231 O256 2.351 . S
Co231 O257 2.155 . S
Co231 O258 2.096 . S
C232 N235 1.301 . S
C232 N236 1.328 . S
C232 H237 0.930 . S
C233 C234 1.333 . S
C233 N235 1.317 . S
C233 H238 0.930 . S
C234 C233 1.333 . S
C234 N236 1.350 . S
C234 H260 0.931 . S
N235 Co231 2.148 . S
N235 C232 1.301 . S
N235 C233 1.317 . S
N236 C232 1.328 . S
N236 C234 1.350 . S
H237 C232 0.930 . S
H238 C233 0.930 . S
C239 O240 1.224 . S
C239 O258 1.247 . S
O240 C239 1.224 . S
N241 Co231 2.128 . S
N241 C242 1.355 . S
N241 C244 1.311 . S
C242 N241 1.355 . S
C242 C243 1.363 . S
C242 H254 0.929 . S
C243 C242 1.363 . S
C243 N245 1.375 . S
C243 H261 0.931 . S
C244 N241 1.311 . S
C244 N245 1.347 . S
C244 H255 0.929 . S
N245 C243 1.375 . S
N245 C244 1.347 . S
C246 C249 1.365 . S
C246 N251 1.328 . S
C246 H252 0.929 . S
C247 C248 1.362 . S
C247 C250 1.378 . S
C247 H262 0.929 . S
C248 C247 1.362 . S
C248 C249 1.366 . S
C249 C246 1.365 . S
C249 C248 1.366 . S
C249 H263 0.930 . S
C250 C247 1.378 . S
C250 N251 1.315 . S
C250 H253 0.930 . S
N251 Co231 2.194 . S
N251 C246 1.328 . S
N251 C250 1.315 . S
H252 C246 0.929 . S
H253 C250 0.930 . S
H254 C242 0.929 . S
H255 C244 0.929 . S
O256 Co231 2.351 . S
O256 C259 1.244 . S
O257 Co231 2.155 . S
O257 C259 1.240 . S
O258 Co231 2.096 . S
O258 C239 1.247 . S
C259 O256 1.244 . S
C259 O257 1.240 . S
H260 C234 0.931 . S
H261 C243 0.931 . S
H262 C247 0.929 . S
H263 C249 0.930 . S
Co264 N268 2.148 . S
Co264 N274 2.128 . S
Co264 N284 2.194 . S
Co264 O289 2.351 . S
Co264 O290 2.155 . S
Co264 O291 2.096 . S
C265 N268 1.301 . S
C265 N269 1.328 . S
C265 H270 0.930 . S
C266 C267 1.333 . S
C266 N268 1.317 . S
C266 H271 0.930 . S
C267 C266 1.333 . S
C267 N269 1.350 . S
C267 H293 0.931 . S
N268 Co264 2.148 . S
N268 C265 1.301 . S
N268 C266 1.317 . S
N269 C265 1.328 . S
N269 C267 1.350 . S
H270 C265 0.930 . S
H271 C266 0.930 . S
C272 O273 1.224 . S
C272 O291 1.247 . S
O273 C272 1.224 . S
N274 Co264 2.128 . S
N274 C275 1.355 . S
N274 C277 1.311 . S
C275 N274 1.355 . S
C275 C276 1.363 1_655 S
C275 H287 0.929 . S
C276 C275 1.363 1_455 S
C276 N278 1.375 1_455 S
C276 H294 0.931 . S
C277 N274 1.311 . S
C277 N278 1.347 . S
C277 H288 0.929 . S
N278 C276 1.375 1_655 S
N278 C277 1.347 . S
C279 C282 1.365 1_655 S
C279 N284 1.328 . S
C279 H285 0.929 . S
C280 C281 1.362 . S
C280 C283 1.378 1_455 S
C280 H295 0.929 . S
C281 C280 1.362 . S
C281 C282 1.366 . S
C282 C279 1.365 1_455 S
C282 C281 1.366 . S
C282 H296 0.930 . S
C283 C280 1.378 1_655 S
C283 N284 1.315 . S
C283 H286 0.930 . S
N284 Co264 2.194 . S
N284 C279 1.328 . S
N284 C283 1.315 . S
H285 C279 0.929 . S
H286 C283 0.930 . S
H287 C275 0.929 . S
H288 C277 0.929 . S
O289 Co264 2.351 . S
O289 C292 1.244 . S
O290 Co264 2.155 . S
O290 C292 1.240 . S
O291 Co264 2.096 . S
O291 C272 1.247 . S
C292 O289 1.244 . S
C292 O290 1.240 . S
H293 C267 0.931 . S
H294 C276 0.931 . S
H295 C280 0.929 . S
H296 C282 0.930 . S
Co297 N301 2.148 . S
Co297 N307 2.128 . S
Co297 N317 2.194 . S
Co297 O322 2.351 . S
Co297 O323 2.155 . S
Co297 O324 2.096 . S
C298 N301 1.301 . S
C298 N302 1.328 . S
C298 H303 0.930 . S
C299 C300 1.333 . S
C299 N301 1.317 . S
C299 H304 0.930 . S
C300 C299 1.333 . S
C300 N302 1.350 . S
C300 H326 0.931 . S
N301 Co297 2.148 . S
N301 C298 1.301 . S
N301 C299 1.317 . S
N302 C298 1.328 . S
N302 C300 1.350 . S
H303 C298 0.930 . S
H304 C299 0.930 . S
C305 O306 1.224 . S
C305 O324 1.247 . S
O306 C305 1.224 . S
N307 Co297 2.128 . S
N307 C308 1.355 . S
N307 C310 1.311 . S
C308 N307 1.355 . S
C308 C309 1.363 1_565 S
C308 H320 0.929 . S
C309 C308 1.363 1_545 S
C309 N311 1.375 1_545 S
C309 H327 0.931 . S
C310 N307 1.311 . S
C310 N311 1.347 . S
C310 H321 0.929 . S
N311 C309 1.375 1_565 S
N311 C310 1.347 . S
C312 C315 1.365 1_565 S
C312 N317 1.328 . S
C312 H318 0.929 . S
C313 C314 1.362 . S
C313 C316 1.378 1_545 S
C313 H328 0.929 . S
C314 C313 1.362 . S
C314 C315 1.366 . S
C315 C312 1.365 1_545 S
C315 C314 1.366 . S
C315 H329 0.930 . S
C316 C313 1.378 1_565 S
C316 N317 1.315 . S
C316 H319 0.930 . S
N317 Co297 2.194 . S
N317 C312 1.328 . S
N317 C316 1.315 . S
H318 C312 0.929 . S
H319 C316 0.930 . S
H320 C308 0.929 . S
H321 C310 0.929 . S
O322 Co297 2.351 . S
O322 C325 1.244 . S
O323 Co297 2.155 . S
O323 C325 1.240 . S
O324 Co297 2.096 . S
O324 C305 1.247 . S
C325 O322 1.244 . S
C325 O323 1.240 . S
H326 C300 0.931 . S
H327 C309 0.931 . S
H328 C313 0.929 . S
H329 C315 0.930 . S
Co330 N334 2.148 . S
Co330 N340 2.128 . S
Co330 N350 2.194 . S
Co330 O355 2.351 . S
Co330 O356 2.155 . S
Co330 O357 2.096 . S
C331 N334 1.301 . S
C331 N335 1.328 . S
C331 H336 0.930 . S
C332 C333 1.333 . S
C332 N334 1.317 . S
C332 H337 0.930 . S
C333 C332 1.333 . S
C333 N335 1.350 . S
C333 H359 0.931 . S
N334 Co330 2.148 . S
N334 C331 1.301 . S
N334 C332 1.317 . S
N335 C331 1.328 . S
N335 C333 1.350 . S
H336 C331 0.930 . S
H337 C332 0.930 . S
C338 O339 1.224 . S
C338 O357 1.247 . S
O339 C338 1.224 . S
N340 Co330 2.128 . S
N340 C341 1.355 . S
N340 C343 1.311 . S
C341 N340 1.355 . S
C341 C342 1.363 1_455 S
C341 H353 0.929 . S
C342 C341 1.363 1_655 S
C342 N344 1.375 1_655 S
C342 H360 0.931 . S
C343 N340 1.311 . S
C343 N344 1.347 . S
C343 H354 0.929 . S
N344 C342 1.375 1_455 S
N344 C343 1.347 . S
C345 C348 1.365 1_455 S
C345 N350 1.328 . S
C345 H351 0.929 . S
C346 C347 1.362 . S
C346 C349 1.378 1_655 S
C346 H361 0.929 . S
C347 C346 1.362 . S
C347 C348 1.366 . S
C348 C345 1.365 1_655 S
C348 C347 1.366 . S
C348 H362 0.930 . S
C349 C346 1.378 1_455 S
C349 N350 1.315 . S
C349 H352 0.930 . S
N350 Co330 2.194 . S
N350 C345 1.328 . S
N350 C349 1.315 . S
H351 C345 0.929 . S
H352 C349 0.930 . S
H353 C341 0.929 . S
H354 C343 0.929 . S
O355 Co330 2.351 . S
O355 C358 1.244 . S
O356 Co330 2.155 . S
O356 C358 1.240 . S
O357 Co330 2.096 . S
O357 C338 1.247 . S
C358 O355 1.244 . S
C358 O356 1.240 . S
H359 C333 0.931 . S
H360 C342 0.931 . S
H361 C346 0.929 . S
H362 C348 0.930 . S
Co363 N367 2.148 . S
Co363 N373 2.128 . S
Co363 N383 2.194 . S
Co363 O388 2.351 . S
Co363 O389 2.155 . S
Co363 O390 2.096 . S
C364 N367 1.301 . S
C364 N368 1.328 . S
C364 H369 0.930 . S
C365 C366 1.333 . S
C365 N367 1.317 . S
C365 H370 0.930 . S
C366 C365 1.333 . S
C366 N368 1.350 . S
C366 H392 0.931 . S
N367 Co363 2.148 . S
N367 C364 1.301 . S
N367 C365 1.317 . S
N368 C364 1.328 . S
N368 C366 1.350 . S
H369 C364 0.930 . S
H370 C365 0.930 . S
C371 O372 1.224 . S
C371 O390 1.247 . S
O372 C371 1.224 . S
N373 Co363 2.128 . S
N373 C374 1.355 . S
N373 C376 1.311 . S
C374 N373 1.355 . S
C374 C375 1.363 1_545 S
C374 H386 0.929 . S
C375 C374 1.363 1_565 S
C375 N377 1.375 1_565 S
C375 H393 0.931 . S
C376 N373 1.311 . S
C376 N377 1.347 . S
C376 H387 0.929 . S
N377 C375 1.375 1_545 S
N377 C376 1.347 . S
C378 C381 1.365 1_545 S
C378 N383 1.328 . S
C378 H384 0.929 . S
C379 C380 1.362 . S
C379 C382 1.378 1_565 S
C379 H394 0.929 . S
C380 C379 1.362 . S
C380 C381 1.366 . S
C381 C378 1.365 1_565 S
C381 C380 1.366 . S
C381 H395 0.930 . S
C382 C379 1.378 1_545 S
C382 N383 1.315 . S
C382 H385 0.930 . S
N383 Co363 2.194 . S
N383 C378 1.328 . S
N383 C382 1.315 . S
H384 C378 0.929 . S
H385 C382 0.930 . S
H386 C374 0.929 . S
H387 C376 0.929 . S
O388 Co363 2.351 . S
O388 C391 1.244 . S
O389 Co363 2.155 . S
O389 C391 1.240 . S
O390 Co363 2.096 . S
O390 C371 1.247 . S
C391 O388 1.244 . S
C391 O389 1.240 . S
H392 C366 0.931 . S
H393 C375 0.931 . S
H394 C379 0.929 . S
H395 C381 0.930 . S
Co396 N400 2.148 . S
Co396 N406 2.128 . S
Co396 N416 2.194 . S
Co396 O421 2.351 . S
Co396 O422 2.155 . S
Co396 O423 2.096 . S
C397 N400 1.301 . S
C397 N401 1.328 . S
C397 H402 0.930 . S
C398 C399 1.333 . S
C398 N400 1.317 . S
C398 H403 0.930 . S
C399 C398 1.333 . S
C399 N401 1.350 . S
C399 H425 0.931 . S
N400 Co396 2.148 . S
N400 C397 1.301 . S
N400 C398 1.317 . S
N401 C397 1.328 . S
N401 C399 1.350 . S
H402 C397 0.930 . S
H403 C398 0.930 . S
C404 O405 1.224 . S
C404 O423 1.247 . S
O405 C404 1.224 . S
N406 Co396 2.128 . S
N406 C407 1.355 . S
N406 C409 1.311 . S
C407 N406 1.355 . S
C407 C408 1.363 . S
C407 H419 0.929 . S
C408 C407 1.363 . S
C408 N410 1.375 . S
C408 H426 0.931 . S
C409 N406 1.311 . S
C409 N410 1.347 . S
C409 H420 0.929 . S
N410 C408 1.375 . S
N410 C409 1.347 . S
C411 C414 1.365 . S
C411 N416 1.328 . S
C411 H417 0.929 . S
C412 C413 1.362 . S
C412 C415 1.378 . S
C412 H427 0.929 . S
C413 C412 1.362 . S
C413 C414 1.366 . S
C414 C411 1.365 . S
C414 C413 1.366 . S
C414 H428 0.930 . S
C415 C412 1.378 . S
C415 N416 1.315 . S
C415 H418 0.930 . S
N416 Co396 2.194 . S
N416 C411 1.328 . S
N416 C415 1.315 . S
H417 C411 0.929 . S
H418 C415 0.930 . S
H419 C407 0.929 . S
H420 C409 0.929 . S
O421 Co396 2.351 . S
O421 C424 1.244 . S
O422 Co396 2.155 . S
O422 C424 1.240 . S
O423 Co396 2.096 . S
O423 C404 1.247 . S
C424 O421 1.244 . S
C424 O422 1.240 . S
H425 C399 0.931 . S
H426 C408 0.931 . S
H427 C412 0.929 . S
H428 C414 0.930 . S
Co429 N433 2.148 . S
Co429 N439 2.128 . S
Co429 N449 2.194 . S
Co429 O454 2.351 . S
Co429 O455 2.155 . S
Co429 O456 2.096 . S
C430 N433 1.301 . S
C430 N434 1.328 . S
C430 H435 0.930 . S
C431 C432 1.333 . S
C431 N433 1.317 . S
C431 H436 0.930 . S
C432 C431 1.333 . S
C432 N434 1.350 . S
C432 H458 0.931 . S
N433 Co429 2.148 . S
N433 C430 1.301 . S
N433 C431 1.317 . S
N434 C430 1.328 . S
N434 C432 1.350 . S
H435 C430 0.930 . S
H436 C431 0.930 . S
C437 O438 1.224 . S
C437 O456 1.247 . S
O438 C437 1.224 . S
N439 Co429 2.128 . S
N439 C440 1.355 . S
N439 C442 1.311 . S
C440 N439 1.355 . S
C440 C441 1.363 . S
C440 H452 0.929 . S
C441 C440 1.363 . S
C441 N443 1.375 . S
C441 H459 0.931 . S
C442 N439 1.311 . S
C442 N443 1.347 . S
C442 H453 0.929 . S
N443 C441 1.375 . S
N443 C442 1.347 . S
C444 C447 1.365 . S
C444 N449 1.328 . S
C444 H450 0.929 . S
C445 C446 1.362 . S
C445 C448 1.378 . S
C445 H460 0.929 . S
C446 C445 1.362 . S
C446 C447 1.366 . S
C447 C444 1.365 . S
C447 C446 1.366 . S
C447 H461 0.930 . S
C448 C445 1.378 . S
C448 N449 1.315 . S
C448 H451 0.930 . S
N449 Co429 2.194 . S
N449 C444 1.328 . S
N449 C448 1.315 . S
H450 C444 0.929 . S
H451 C448 0.930 . S
H452 C440 0.929 . S
H453 C442 0.929 . S
O454 Co429 2.351 . S
O454 C457 1.244 . S
O455 Co429 2.155 . S
O455 C457 1.240 . S
O456 Co429 2.096 . S
O456 C437 1.247 . S
C457 O454 1.244 . S
C457 O455 1.240 . S
H458 C432 0.931 . S
H459 C441 0.931 . S
H460 C445 0.929 . S
H461 C447 0.930 . S
Co462 N466 2.148 . S
Co462 N472 2.128 . S
Co462 N482 2.194 . S
Co462 O487 2.351 . S
Co462 O488 2.155 . S
Co462 O489 2.096 . S
C463 N466 1.301 . S
C463 N467 1.328 . S
C463 H468 0.930 . S
C464 C465 1.333 . S
C464 N466 1.317 . S
C464 H469 0.930 . S
C465 C464 1.333 . S
C465 N467 1.350 . S
C465 H491 0.931 . S
N466 Co462 2.148 . S
N466 C463 1.301 . S
N466 C464 1.317 . S
N467 C463 1.328 . S
N467 C465 1.350 . S
H468 C463 0.930 . S
H469 C464 0.930 . S
C470 O471 1.224 . S
C470 O489 1.247 . S
O471 C470 1.224 . S
N472 Co462 2.128 . S
N472 C473 1.355 . S
N472 C475 1.311 . S
C473 N472 1.355 . S
C473 C474 1.363 . S
C473 H485 0.929 . S
C474 C473 1.363 . S
C474 N476 1.375 . S
C474 H492 0.931 . S
C475 N472 1.311 . S
C475 N476 1.347 . S
C475 H486 0.929 . S
N476 C474 1.375 . S
N476 C475 1.347 . S
C477 C480 1.365 . S
C477 N482 1.328 . S
C477 H483 0.929 . S
C478 C479 1.362 . S
C478 C481 1.378 . S
C478 H493 0.929 . S
C479 C478 1.362 . S
C479 C480 1.366 . S
C480 C477 1.365 . S
C480 C479 1.366 . S
C480 H494 0.930 . S
C481 C478 1.378 . S
C481 N482 1.315 . S
C481 H484 0.930 . S
N482 Co462 2.194 . S
N482 C477 1.328 . S
N482 C481 1.315 . S
H483 C477 0.929 . S
H484 C481 0.930 . S
H485 C473 0.929 . S
H486 C475 0.929 . S
O487 Co462 2.351 . S
O487 C490 1.244 . S
O488 Co462 2.155 . S
O488 C490 1.240 . S
O489 Co462 2.096 . S
O489 C470 1.247 . S
C490 O487 1.244 . S
C490 O488 1.240 . S
H491 C465 0.931 . S
H492 C474 0.931 . S
H493 C478 0.929 . S
H494 C480 0.930 . S
Co495 N499 2.148 . S
Co495 N505 2.128 . S
Co495 N515 2.194 . S
Co495 O520 2.351 . S
Co495 O521 2.155 . S
Co495 O522 2.096 . S
C496 N499 1.301 . S
C496 N500 1.328 . S
C496 H501 0.930 . S
C497 C498 1.333 . S
C497 N499 1.317 . S
C497 H502 0.930 . S
C498 C497 1.333 . S
C498 N500 1.350 . S
C498 H524 0.931 . S
N499 Co495 2.148 . S
N499 C496 1.301 . S
N499 C497 1.317 . S
N500 C496 1.328 . S
N500 C498 1.350 . S
H501 C496 0.930 . S
H502 C497 0.930 . S
C503 O504 1.224 . S
C503 O522 1.247 . S
O504 C503 1.224 . S
N505 Co495 2.128 . S
N505 C506 1.355 . S
N505 C508 1.311 . S
C506 N505 1.355 . S
C506 C507 1.363 . S
C506 H518 0.929 . S
C507 C506 1.363 . S
C507 N509 1.375 . S
C507 H525 0.931 . S
C508 N505 1.311 . S
C508 N509 1.347 . S
C508 H519 0.929 . S
N509 C507 1.375 . S
N509 C508 1.347 . S
C510 C513 1.365 . S
C510 N515 1.328 . S
C510 H516 0.929 . S
C511 C512 1.362 . S
C511 C514 1.378 . S
C511 H526 0.929 . S
C512 C511 1.362 . S
C512 C513 1.366 . S
C513 C510 1.365 . S
C513 C512 1.366 . S
C513 H527 0.930 . S
C514 C511 1.378 . S
C514 N515 1.315 . S
C514 H517 0.930 . S
N515 Co495 2.194 . S
N515 C510 1.328 . S
N515 C514 1.315 . S
H516 C510 0.929 . S
H517 C514 0.930 . S
H518 C506 0.929 . S
H519 C508 0.929 . S
O520 Co495 2.351 . S
O520 C523 1.244 . S
O521 Co495 2.155 . S
O521 C523 1.240 . S
O522 Co495 2.096 . S
O522 C503 1.247 . S
C523 O520 1.244 . S
C523 O521 1.240 . S
H524 C498 0.931 . S
H525 C507 0.931 . S
H526 C511 0.929 . S
H527 C513 0.930 . S
C528 C529 1.369 . S
C528 C530 1.419 1_556 S
C528 H532 0.930 . S
C529 C528 1.369 . S
C529 C538 1.429 . S
C530 C528 1.419 1_554 S
C530 C531 1.363 . S
C530 H533 0.929 . S
C531 C530 1.363 . S
C531 C537 1.428 . S
H532 C528 0.930 . S
H533 C530 0.929 . S
S534 N535 1.616 1_554 S
S534 N536 1.608 . S
N535 S534 1.616 1_556 S
N535 C538 1.350 . S
N536 S534 1.608 . S
N536 C537 1.351 . S
C537 C531 1.428 . S
C537 N536 1.351 . S
C537 C538 1.434 1_554 S
C538 C529 1.429 . S
C538 N535 1.350 . S
C538 C537 1.434 1_556 S
C539 C540 1.369 . S
C539 C541 1.419 1_556 S
C539 H543 0.930 . S
C540 C539 1.369 . S
C540 C549 1.429 . S
C541 C539 1.419 1_554 S
C541 C542 1.363 . S
C541 H544 0.929 . S
C542 C541 1.363 . S
C542 C548 1.428 . S
H543 C539 0.930 . S
H544 C541 0.929 . S
S545 N546 1.616 1_554 S
S545 N547 1.608 . S
N546 S545 1.616 1_556 S
N546 C549 1.350 . S
N547 S545 1.608 . S
N547 C548 1.351 . S
C548 C542 1.428 . S
C548 N547 1.351 . S
C548 C549 1.434 1_554 S
C549 C540 1.429 . S
C549 N546 1.350 . S
C549 C548 1.434 1_556 S
C550 C551 1.369 . S
C550 C552 1.419 1_556 S
C550 H554 0.930 . S
C551 C550 1.369 . S
C551 C560 1.429 . S
C552 C550 1.419 1_554 S
C552 C553 1.363 . S
C552 H555 0.929 . S
C553 C552 1.363 . S
C553 C559 1.428 . S
H554 C550 0.930 . S
H555 C552 0.929 . S
S556 N557 1.616 1_554 S
S556 N558 1.608 . S
N557 S556 1.616 1_556 S
N557 C560 1.350 . S
N558 S556 1.608 . S
N558 C559 1.351 . S
C559 C553 1.428 . S
C559 N558 1.351 . S
C559 C560 1.434 1_554 S
C560 C551 1.429 . S
C560 N557 1.350 . S
C560 C559 1.434 1_556 S
C561 C562 1.369 . S
C561 C563 1.419 1_556 S
C561 H565 0.930 . S
C562 C561 1.369 . S
C562 C571 1.429 . S
C563 C561 1.419 1_554 S
C563 C564 1.363 . S
C563 H566 0.929 . S
C564 C563 1.363 . S
C564 C570 1.428 . S
H565 C561 0.930 . S
H566 C563 0.929 . S
S567 N568 1.616 1_554 S
S567 N569 1.608 . S
N568 S567 1.616 1_556 S
N568 C571 1.350 . S
N569 S567 1.608 . S
N569 C570 1.351 . S
C570 C564 1.428 . S
C570 N569 1.351 . S
C570 C571 1.434 1_554 S
C571 C562 1.429 . S
C571 N568 1.350 . S
C571 C570 1.434 1_556 S
C572 C573 1.369 . S
C572 C574 1.419 . S
C572 H576 0.930 . S
C573 C572 1.369 . S
C573 C582 1.429 . S
C574 C572 1.419 . S
C574 C575 1.363 . S
C574 H577 0.929 . S
C575 C574 1.363 . S
C575 C581 1.428 . S
H576 C572 0.930 . S
H577 C574 0.929 . S
S578 N579 1.613 . S
S578 N580 1.610 . S
N579 S578 1.613 . S
N579 C582 1.350 . S
N580 S578 1.610 . S
N580 C581 1.351 . S
C581 C575 1.428 . S
C581 N580 1.351 . S
C581 C582 1.434 . S
C582 C573 1.429 . S
C582 N579 1.350 . S
C582 C581 1.434 . S
C583 C584 1.369 . S
C583 C585 1.419 . S
C583 H587 0.930 . S
C584 C583 1.369 . S
C584 C593 1.429 . S
C585 C583 1.419 . S
C585 C586 1.363 . S
C585 H588 0.929 . S
C586 C585 1.363 . S
C586 C592 1.428 . S
H587 C583 0.930 . S
H588 C585 0.929 . S
S589 N590 1.613 . S
S589 N591 1.610 . S
N590 S589 1.613 . S
N590 C593 1.350 . S
N591 S589 1.610 . S
N591 C592 1.351 . S
C592 C586 1.428 . S
C592 N591 1.351 . S
C592 C593 1.434 . S
C593 C584 1.429 . S
C593 N590 1.350 . S
C593 C592 1.434 . S
C594 C595 1.369 . S
C594 C596 1.419 . S
C594 H598 0.930 . S
C595 C594 1.369 . S
C595 C604 1.429 . S
C596 C594 1.419 . S
C596 C597 1.363 . S
C596 H599 0.929 . S
C597 C596 1.363 . S
C597 C603 1.428 . S
H598 C594 0.930 . S
H599 C596 0.929 . S
S600 N601 1.613 . S
S600 N602 1.610 . S
N601 S600 1.613 . S
N601 C604 1.350 . S
N602 S600 1.610 . S
N602 C603 1.351 . S
C603 C597 1.428 . S
C603 N602 1.351 . S
C603 C604 1.434 . S
C604 C595 1.429 . S
C604 N601 1.350 . S
C604 C603 1.434 . S
C605 C606 1.369 . S
C605 C607 1.419 . S
C605 H609 0.930 . S
C606 C605 1.369 . S
C606 C615 1.429 . S
C607 C605 1.419 . S
C607 C608 1.363 . S
C607 H610 0.929 . S
C608 C607 1.363 . S
C608 C614 1.428 . S
H609 C605 0.930 . S
H610 C607 0.929 . S
S611 N612 1.613 . S
S611 N613 1.610 . S
N612 S611 1.613 . S
N612 C615 1.350 . S
N613 S611 1.610 . S
N613 C614 1.351 . S
C614 C608 1.428 . S
C614 N613 1.351 . S
C614 C615 1.434 . S
C615 C606 1.429 . S
C615 N612 1.350 . S
C615 C614 1.434 . S
C616 C617 1.369 . S
C616 C618 1.419 . S
C616 H620 0.930 . S
C617 C616 1.369 . S
C617 C626 1.429 . S
C618 C616 1.419 . S
C618 C619 1.363 . S
C618 H621 0.929 . S
C619 C618 1.363 . S
C619 C625 1.428 . S
H620 C616 0.930 . S
H621 C618 0.929 . S
S622 N623 1.613 . S
S622 N624 1.610 . S
N623 S622 1.613 . S
N623 C626 1.350 . S
N624 S622 1.610 . S
N624 C625 1.351 . S
C625 C619 1.428 . S
C625 N624 1.351 . S
C625 C626 1.434 . S
C626 C617 1.429 . S
C626 N623 1.350 . S
C626 C625 1.434 . S
C627 C628 1.369 . S
C627 C629 1.419 . S
C627 H631 0.930 . S
C628 C627 1.369 . S
C628 C637 1.429 . S
C629 C627 1.419 . S
C629 C630 1.363 . S
C629 H632 0.929 . S
C630 C629 1.363 . S
C630 C636 1.428 . S
H631 C627 0.930 . S
H632 C629 0.929 . S
S633 N634 1.613 . S
S633 N635 1.610 . S
N634 S633 1.613 . S
N634 C637 1.350 . S
N635 S633 1.610 . S
N635 C636 1.351 . S
C636 C630 1.428 . S
C636 N635 1.351 . S
C636 C637 1.434 . S
C637 C628 1.429 . S
C637 N634 1.350 . S
C637 C636 1.434 . S
C638 C639 1.369 . S
C638 C640 1.419 . S
C638 H642 0.930 . S
C639 C638 1.369 . S
C639 C648 1.429 . S
C640 C638 1.419 . S
C640 C641 1.363 . S
C640 H643 0.929 . S
C641 C640 1.363 . S
C641 C647 1.428 . S
H642 C638 0.930 . S
H643 C640 0.929 . S
S644 N645 1.613 . S
S644 N646 1.610 . S
N645 S644 1.613 . S
N645 C648 1.350 . S
N646 S644 1.610 . S
N646 C647 1.351 . S
C647 C641 1.428 . S
C647 N646 1.351 . S
C647 C648 1.434 . S
C648 C639 1.429 . S
C648 N645 1.350 . S
C648 C647 1.434 . S
C649 C650 1.369 . S
C649 C651 1.419 . S
C649 H653 0.930 . S
C650 C649 1.369 . S
C650 C659 1.429 . S
C651 C649 1.419 . S
C651 C652 1.363 . S
C651 H654 0.929 . S
C652 C651 1.363 . S
C652 C658 1.428 . S
H653 C649 0.930 . S
H654 C651 0.929 . S
S655 N656 1.613 . S
S655 N657 1.610 . S
N656 S655 1.613 . S
N656 C659 1.350 . S
N657 S655 1.610 . S
N657 C658 1.351 . S
C658 C652 1.428 . S
C658 N657 1.351 . S
C658 C659 1.434 . S
C659 C650 1.429 . S
C659 N656 1.350 . S
C659 C658 1.434 . S
C660 C661 1.369 . S
C660 C662 1.419 . S
C660 H664 0.930 . S
C661 C660 1.369 . S
C661 C670 1.429 . S
C662 C660 1.419 . S
C662 C663 1.363 . S
C662 H665 0.929 . S
C663 C662 1.363 . S
C663 C669 1.428 . S
H664 C660 0.930 . S
H665 C662 0.929 . S
S666 N667 1.613 . S
S666 N668 1.610 . S
N667 S666 1.613 . S
N667 C670 1.350 . S
N668 S666 1.610 . S
N668 C669 1.351 . S
C669 C663 1.428 . S
C669 N668 1.351 . S
C669 C670 1.434 . S
C670 C661 1.429 . S
C670 N667 1.350 . S
C670 C669 1.434 . S
C671 C672 1.369 . S
C671 C673 1.419 . S
C671 H675 0.930 . S
C672 C671 1.369 . S
C672 C681 1.429 . S
C673 C671 1.419 . S
C673 C674 1.363 . S
C673 H676 0.929 . S
C674 C673 1.363 . S
C674 C680 1.428 . S
H675 C671 0.930 . S
H676 C673 0.929 . S
S677 N678 1.613 . S
S677 N679 1.610 . S
N678 S677 1.613 . S
N678 C681 1.350 . S
N679 S677 1.610 . S
N679 C680 1.351 . S
C680 C674 1.428 . S
C680 N679 1.351 . S
C680 C681 1.434 . S
C681 C672 1.429 . S
C681 N678 1.350 . S
C681 C680 1.434 . S
C682 C683 1.369 . S
C682 C684 1.419 . S
C682 H686 0.930 . S
C683 C682 1.369 . S
C683 C692 1.429 . S
C684 C682 1.419 . S
C684 C685 1.363 . S
C684 H687 0.929 . S
C685 C684 1.363 . S
C685 C691 1.428 . S
H686 C682 0.930 . S
H687 C684 0.929 . S
S688 N689 1.613 . S
S688 N690 1.610 . S
N689 S688 1.613 . S
N689 C692 1.350 . S
N690 S688 1.610 . S
N690 C691 1.351 . S
C691 C685 1.428 . S
C691 N690 1.351 . S
C691 C692 1.434 . S
C692 C683 1.429 . S
C692 N689 1.350 . S
C692 C691 1.434 . S
C693 C694 1.369 . S
C693 C695 1.419 . S
C693 H697 0.930 . S
C694 C693 1.369 . S
C694 C703 1.429 . S
C695 C693 1.419 . S
C695 C696 1.363 . S
C695 H698 0.929 . S
C696 C695 1.363 . S
C696 C702 1.428 . S
H697 C693 0.930 . S
H698 C695 0.929 . S
S699 N700 1.613 . S
S699 N701 1.610 . S
N700 S699 1.613 . S
N700 C703 1.350 . S
N701 S699 1.610 . S
N701 C702 1.351 . S
C702 C696 1.428 . S
C702 N701 1.351 . S
C702 C703 1.434 . S
C703 C694 1.429 . S
C703 N700 1.350 . S
C703 C702 1.434 . S
C704 C705 1.369 . S
C704 C706 1.419 . S
C704 H708 0.930 . S
C705 C704 1.369 . S
C705 C714 1.429 . S
C706 C704 1.419 . S
C706 C707 1.363 . S
C706 H709 0.929 . S
C707 C706 1.363 . S
C707 C713 1.428 . S
H708 C704 0.930 . S
H709 C706 0.929 . S
S710 N711 1.613 . S
S710 N712 1.610 . S
N711 S710 1.613 . S
N711 C714 1.350 . S
N712 S710 1.610 . S
N712 C713 1.351 . S
C713 C707 1.428 . S
C713 N712 1.351 . S
C713 C714 1.434 . S
C714 C705 1.429 . S
C714 N711 1.350 . S
C714 C713 1.434 . S
C715 C716 1.369 . S
C715 C717 1.419 . S
C715 H719 0.930 . S
C716 C715 1.369 . S
C716 C725 1.429 . S
C717 C715 1.419 . S
C717 C718 1.363 . S
C717 H720 0.929 . S
C718 C717 1.363 . S
C718 C724 1.428 . S
H719 C715 0.930 . S
H720 C717 0.929 . S
S721 N722 1.613 . S
S721 N723 1.610 . S
N722 S721 1.613 . S
N722 C725 1.350 . S
N723 S721 1.610 . S
N723 C724 1.351 . S
C724 C718 1.428 . S
C724 N723 1.351 . S
C724 C725 1.434 . S
C725 C716 1.429 . S
C725 N722 1.350 . S
C725 C724 1.434 . S
C726 C727 1.369 . S
C726 C728 1.419 . S
C726 H730 0.930 . S
C727 C726 1.369 . S
C727 C736 1.429 . S
C728 C726 1.419 . S
C728 C729 1.363 . S
C728 H731 0.929 . S
C729 C728 1.363 . S
C729 C735 1.428 . S
H730 C726 0.930 . S
H731 C728 0.929 . S
S732 N733 1.613 . S
S732 N734 1.610 . S
N733 S732 1.613 . S
N733 C736 1.350 . S
N734 S732 1.610 . S
N734 C735 1.351 . S
C735 C729 1.428 . S
C735 N734 1.351 . S
C735 C736 1.434 . S
C736 C727 1.429 . S
C736 N733 1.350 . S
C736 C735 1.434 . S
C737 C738 1.369 . S
C737 C739 1.419 . S
C737 H741 0.930 . S
C738 C737 1.369 . S
C738 C747 1.429 . S
C739 C737 1.419 . S
C739 C740 1.363 . S
C739 H742 0.929 . S
C740 C739 1.363 . S
C740 C746 1.428 . S
H741 C737 0.930 . S
H742 C739 0.929 . S
S743 N744 1.613 . S
S743 N745 1.610 . S
N744 S743 1.613 . S
N744 C747 1.350 . S
N745 S743 1.610 . S
N745 C746 1.351 . S
C746 C740 1.428 . S
C746 N745 1.351 . S
C746 C747 1.434 . S
C747 C738 1.429 . S
C747 N744 1.350 . S
C747 C746 1.434 . S
C748 C749 1.369 . S
C748 C750 1.419 . S
C748 H752 0.930 . S
C749 C748 1.369 . S
C749 C758 1.429 . S
C750 C748 1.419 . S
C750 C751 1.363 . S
C750 H753 0.929 . S
C751 C750 1.363 . S
C751 C757 1.428 . S
H752 C748 0.930 . S
H753 C750 0.929 . S
S754 N755 1.613 . S
S754 N756 1.610 . S
N755 S754 1.613 . S
N755 C758 1.350 . S
N756 S754 1.610 . S
N756 C757 1.351 . S
C757 C751 1.428 . S
C757 N756 1.351 . S
C757 C758 1.434 . S
C758 C749 1.429 . S
C758 N755 1.350 . S
C758 C757 1.434 . S
C759 C760 1.369 . S
C759 C761 1.419 . S
C759 H763 0.930 . S
C760 C759 1.369 . S
C760 C769 1.429 . S
C761 C759 1.419 . S
C761 C762 1.363 . S
C761 H764 0.929 . S
C762 C761 1.363 . S
C762 C768 1.428 . S
H763 C759 0.930 . S
H764 C761 0.929 . S
S765 N766 1.613 . S
S765 N767 1.610 . S
N766 S765 1.613 . S
N766 C769 1.350 . S
N767 S765 1.610 . S
N767 C768 1.351 . S
C768 C762 1.428 . S
C768 N767 1.351 . S
C768 C769 1.434 . S
C769 C760 1.429 . S
C769 N766 1.350 . S
C769 C768 1.434 . S
C770 C771 1.369 . S
C770 C772 1.419 . S
C770 H774 0.930 . S
C771 C770 1.369 . S
C771 C780 1.429 . S
C772 C770 1.419 . S
C772 C773 1.363 . S
C772 H775 0.929 . S
C773 C772 1.363 . S
C773 C779 1.428 . S
H774 C770 0.930 . S
H775 C772 0.929 . S
S776 N777 1.613 . S
S776 N778 1.610 . S
N777 S776 1.613 . S
N777 C780 1.350 . S
N778 S776 1.610 . S
N778 C779 1.351 . S
C779 C773 1.428 . S
C779 N778 1.351 . S
C779 C780 1.434 . S
C780 C771 1.429 . S
C780 N777 1.350 . S
C780 C779 1.434 . S
C781 C782 1.369 . S
C781 C783 1.419 . S
C781 H785 0.930 . S
C782 C781 1.369 . S
C782 C791 1.429 . S
C783 C781 1.419 . S
C783 C784 1.363 . S
C783 H786 0.929 . S
C784 C783 1.363 . S
C784 C790 1.428 . S
H785 C781 0.930 . S
H786 C783 0.929 . S
S787 N788 1.613 . S
S787 N789 1.610 . S
N788 S787 1.613 . S
N788 C791 1.350 . S
N789 S787 1.610 . S
N789 C790 1.351 . S
C790 C784 1.428 . S
C790 N789 1.351 . S
C790 C791 1.434 . S
C791 C782 1.429 . S
C791 N788 1.350 . S
C791 C790 1.434 . S
C792 C793 1.369 . S
C792 C794 1.419 . S
C792 H796 0.930 . S
C793 C792 1.369 . S
C793 C802 1.429 . S
C794 C792 1.419 . S
C794 C795 1.363 . S
C794 H797 0.929 . S
C795 C794 1.363 . S
C795 C801 1.428 . S
H796 C792 0.930 . S
H797 C794 0.929 . S
S798 N799 1.613 . S
S798 N800 1.610 . S
N799 S798 1.613 . S
N799 C802 1.350 . S
N800 S798 1.610 . S
N800 C801 1.351 . S
C801 C795 1.428 . S
C801 N800 1.351 . S
C801 C802 1.434 . S
C802 C793 1.429 . S
C802 N799 1.350 . S
C802 C801 1.434 . S
C803 C804 1.369 . S
C803 C805 1.419 . S
C803 H807 0.930 . S
C804 C803 1.369 . S
C804 C813 1.429 . S
C805 C803 1.419 . S
C805 C806 1.363 . S
C805 H808 0.929 . S
C806 C805 1.363 . S
C806 C812 1.428 . S
H807 C803 0.930 . S
H808 C805 0.929 . S
S809 N810 1.613 . S
S809 N811 1.610 . S
N810 S809 1.613 . S
N810 C813 1.350 . S
N811 S809 1.610 . S
N811 C812 1.351 . S
C812 C806 1.428 . S
C812 N811 1.351 . S
C812 C813 1.434 . S
C813 C804 1.429 . S
C813 N810 1.350 . S
C813 C812 1.434 . S
C814 C815 1.369 . S
C814 C816 1.419 . S
C814 H818 0.930 . S
C815 C814 1.369 . S
C815 C824 1.429 . S
C816 C814 1.419 . S
C816 C817 1.363 . S
C816 H819 0.929 . S
C817 C816 1.363 . S
C817 C823 1.428 . S
H818 C814 0.930 . S
H819 C816 0.929 . S
S820 N821 1.613 . S
S820 N822 1.610 . S
N821 S820 1.613 . S
N821 C824 1.350 . S
N822 S820 1.610 . S
N822 C823 1.351 . S
C823 C817 1.428 . S
C823 N822 1.351 . S
C823 C824 1.434 . S
C824 C815 1.429 . S
C824 N821 1.350 . S
C824 C823 1.434 . S
C825 C826 1.369 . S
C825 C827 1.419 . S
C825 H829 0.930 . S
C826 C825 1.369 . S
C826 C835 1.429 . S
C827 C825 1.419 . S
C827 C828 1.363 . S
C827 H830 0.929 . S
C828 C827 1.363 . S
C828 C834 1.428 . S
H829 C825 0.930 . S
H830 C827 0.929 . S
S831 N832 1.613 . S
S831 N833 1.610 . S
N832 S831 1.613 . S
N832 C835 1.350 . S
N833 S831 1.610 . S
N833 C834 1.351 . S
C834 C828 1.428 . S
C834 N833 1.351 . S
C834 C835 1.434 . S
C835 C826 1.429 . S
C835 N832 1.350 . S
C835 C834 1.434 . S
C836 C837 1.369 . S
C836 C838 1.419 . S
C836 H840 0.930 . S
C837 C836 1.369 . S
C837 C846 1.429 . S
C838 C836 1.419 . S
C838 C839 1.363 . S
C838 H841 0.929 . S
C839 C838 1.363 . S
C839 C845 1.428 . S
H840 C836 0.930 . S
H841 C838 0.929 . S
S842 N843 1.613 . S
S842 N844 1.610 . S
N843 S842 1.613 . S
N843 C846 1.350 . S
N844 S842 1.610 . S
N844 C845 1.351 . S
C845 C839 1.428 . S
C845 N844 1.351 . S
C845 C846 1.434 . S
C846 C837 1.429 . S
C846 N843 1.350 . S
C846 C845 1.434 . S
C847 C848 1.369 . S
C847 C849 1.419 . S
C847 H851 0.930 . S
C848 C847 1.369 . S
C848 C857 1.429 . S
C849 C847 1.419 . S
C849 C850 1.363 . S
C849 H852 0.929 . S
C850 C849 1.363 . S
C850 C856 1.428 . S
H851 C847 0.930 . S
H852 C849 0.929 . S
S853 N854 1.613 . S
S853 N855 1.610 . S
N854 S853 1.613 . S
N854 C857 1.350 . S
N855 S853 1.610 . S
N855 C856 1.351 . S
C856 C850 1.428 . S
C856 N855 1.351 . S
C856 C857 1.434 . S
C857 C848 1.429 . S
C857 N854 1.350 . S
C857 C856 1.434 . S
C858 C859 1.369 . S
C858 C860 1.419 . S
C858 H862 0.930 . S
C859 C858 1.369 . S
C859 C868 1.429 . S
C860 C858 1.419 . S
C860 C861 1.363 . S
C860 H863 0.929 . S
C861 C860 1.363 . S
C861 C867 1.428 . S
H862 C858 0.930 . S
H863 C860 0.929 . S
S864 N865 1.613 . S
S864 N866 1.610 . S
N865 S864 1.613 . S
N865 C868 1.350 . S
N866 S864 1.610 . S
N866 C867 1.351 . S
C867 C861 1.428 . S
C867 N866 1.351 . S
C867 C868 1.434 . S
C868 C859 1.429 . S
C868 N865 1.350 . S
C868 C867 1.434 . S
C869 C870 1.369 . S
C869 C871 1.419 . S
C869 H873 0.930 . S
C870 C869 1.369 . S
C870 C879 1.429 . S
C871 C869 1.419 . S
C871 C872 1.363 . S
C871 H874 0.929 . S
C872 C871 1.363 . S
C872 C878 1.428 . S
H873 C869 0.930 . S
H874 C871 0.929 . S
S875 N876 1.613 . S
S875 N877 1.610 . S
N876 S875 1.613 . S
N876 C879 1.350 . S
N877 S875 1.610 . S
N877 C878 1.351 . S
C878 C872 1.428 . S
C878 N877 1.351 . S
C878 C879 1.434 . S
C879 C870 1.429 . S
C879 N876 1.350 . S
C879 C878 1.434 . S
C880 C881 1.369 . S
C880 C882 1.419 . S
C880 H884 0.930 . S
C881 C880 1.369 . S
C881 C890 1.429 1_655 S
C882 C880 1.419 . S
C882 C883 1.363 1_655 S
C882 H885 0.929 . S
C883 C882 1.363 1_455 S
C883 C889 1.428 . S
H884 C880 0.930 . S
H885 C882 0.929 . S
S886 N887 1.613 . S
S886 N888 1.610 . S
N887 S886 1.613 . S
N887 C890 1.350 . S
N888 S886 1.610 . S
N888 C889 1.351 . S
C889 C883 1.428 . S
C889 N888 1.351 . S
C889 C890 1.434 . S
C890 C881 1.429 1_455 S
C890 N887 1.350 . S
C890 C889 1.434 . S
C891 C892 1.369 1_545 S
C891 C893 1.419 . S
C891 H895 0.930 . S
C892 C891 1.369 1_565 S
C892 C901 1.429 . S
C893 C891 1.419 . S
C893 C894 1.363 . S
C893 H896 0.929 . S
C894 C893 1.363 . S
C894 C900 1.428 1_545 S
H895 C891 0.930 . S
H896 C893 0.929 . S
S897 N898 1.613 . S
S897 N899 1.610 . S
N898 S897 1.613 . S
N898 C901 1.350 . S
N899 S897 1.610 . S
N899 C900 1.351 . S
C900 C894 1.428 1_565 S
C900 N899 1.351 . S
C900 C901 1.434 . S
C901 C892 1.429 . S
C901 N898 1.350 . S
C901 C900 1.434 . S
C902 C903 1.369 . S
C902 C904 1.419 1_545 S
C902 H906 0.930 . S
C903 C902 1.369 . S
C903 C912 1.429 . S
C904 C902 1.419 1_565 S
C904 C905 1.363 . S
C904 H907 0.929 . S
C905 C904 1.363 . S
C905 C911 1.428 . S
H906 C902 0.930 . S
H907 C904 0.929 . S
S908 N909 1.613 1_565 S
S908 N910 1.610 . S
N909 S908 1.613 1_545 S
N909 C912 1.350 . S
N910 S908 1.610 . S
N910 C911 1.351 . S
C911 C905 1.428 . S
C911 N910 1.351 . S
C911 C912 1.434 1_565 S
C912 C903 1.429 . S
C912 N909 1.350 . S
C912 C911 1.434 1_545 S
C913 C914 1.369 . S
C913 C915 1.419 1_655 S
C913 H917 0.930 . S
C914 C913 1.369 . S
C914 C923 1.429 . S
C915 C913 1.419 1_455 S
C915 C916 1.363 . S
C915 H918 0.929 . S
C916 C915 1.363 . S
C916 C922 1.428 . S
H917 C913 0.930 . S
H918 C915 0.929 . S
S919 N920 1.613 1_455 S
S919 N921 1.610 . S
N920 S919 1.613 1_655 S
N920 C923 1.350 . S
N921 S919 1.610 . S
N921 C922 1.351 . S
C922 C916 1.428 . S
C922 N921 1.351 . S
C922 C923 1.434 1_455 S
C923 C914 1.429 . S
C923 N920 1.350 . S
C923 C922 1.434 1_655 S
C924 C925 1.369 . S
C924 C926 1.419 . S
C924 H928 0.930 . S
C925 C924 1.369 . S
C925 C934 1.429 1_655 S
C926 C924 1.419 . S
C926 C927 1.363 1_655 S
C926 H929 0.929 . S
C927 C926 1.363 1_455 S
C927 C933 1.428 . S
H928 C924 0.930 . S
H929 C926 0.929 . S
S930 N931 1.613 . S
S930 N932 1.610 . S
N931 S930 1.613 . S
N931 C934 1.350 . S
N932 S930 1.610 . S
N932 C933 1.351 . S
C933 C927 1.428 . S
C933 N932 1.351 . S
C933 C934 1.434 . S
C934 C925 1.429 1_455 S
C934 N931 1.350 . S
C934 C933 1.434 . S
C935 C936 1.369 . S
C935 C937 1.419 . S
C935 H939 0.930 . S
C936 C935 1.369 . S
C936 C945 1.429 1_545 S
C937 C935 1.419 . S
C937 C938 1.363 1_545 S
C937 H940 0.929 . S
C938 C937 1.363 1_565 S
C938 C944 1.428 . S
H939 C935 0.930 . S
H940 C937 0.929 . S
S941 N942 1.613 . S
S941 N943 1.610 . S
N942 S941 1.613 . S
N942 C945 1.350 . S
N943 S941 1.610 . S
N943 C944 1.351 . S
C944 C938 1.428 . S
C944 N943 1.351 . S
C944 C945 1.434 . S
C945 C936 1.429 1_565 S
C945 N942 1.350 . S
C945 C944 1.434 . S
C946 C947 1.369 . S
C946 C948 1.419 1_565 S
C946 H950 0.930 . S
C947 C946 1.369 . S
C947 C956 1.429 . S
C948 C946 1.419 1_545 S
C948 C949 1.363 . S
C948 H951 0.929 . S
C949 C948 1.363 . S
C949 C955 1.428 . S
H950 C946 0.930 . S
H951 C948 0.929 . S
S952 N953 1.613 . S
S952 N954 1.610 1_565 S
N953 S952 1.613 . S
N953 C956 1.350 . S
N954 S952 1.610 1_545 S
N954 C955 1.351 . S
C955 C949 1.428 . S
C955 N954 1.351 . S
C955 C956 1.434 1_545 S
C956 C947 1.429 . S
C956 N953 1.350 . S
C956 C955 1.434 1_565 S
C957 C958 1.369 . S
C957 C959 1.419 1_655 S
C957 H961 0.930 . S
C958 C957 1.369 . S
C958 C967 1.429 . S
C959 C957 1.419 1_455 S
C959 C960 1.363 . S
C959 H962 0.929 . S
C960 C959 1.363 . S
C960 C966 1.428 . S
H961 C957 0.930 . S
H962 C959 0.929 . S
S963 N964 1.613 1_455 S
S963 N965 1.610 . S
N964 S963 1.613 1_655 S
N964 C967 1.350 . S
N965 S963 1.610 . S
N965 C966 1.351 . S
C966 C960 1.428 . S
C966 N965 1.351 . S
C966 C967 1.434 1_455 S
C967 C958 1.429 . S
C967 N964 1.350 . S
C967 C966 1.434 1_655 S
C529 C358 1.458 . S
C531 C28 1.458 . S
C540 C391 1.456 . S
C542 C61 1.457 . S
C551 C292 1.459 . S
C553 C94 1.459 . S
C562 C325 1.462 . S
C564 C127 1.461 . S
C573 C160 1.458 . S
C575 C490 1.459 . S
C584 C193 1.462 . S
C586 C523 1.461 . S
C595 C424 1.459 . S
C597 C226 1.459 . S
C606 C457 1.456 . S
C608 C259 1.457 . S
C617 C116 1.587 . S
C619 N5 1.525 . S
C628 N38 1.524 . S
C630 C17 1.586 . S
C639 C50 1.586 . S
C641 N71 1.527 . S
C650 N104 1.532 . S
C652 C83 1.582 . S
C661 C182 1.587 . S
C663 N137 1.525 . S
C672 C215 1.583 . S
C674 N170 1.530 . S
C683 C248 1.583 . S
C685 N203 1.529 . S
C694 N236 1.530 . S
C696 C149 1.582 . S
C705 N269 1.532 . S
C707 C380 1.582 . S
C716 N302 1.525 . S
C718 C281 1.585 . S
C727 C314 1.583 . S
C729 N335 1.529 . S
C738 N368 1.524 . S
C740 C347 1.586 . S
C749 N401 1.525 . S
C751 C446 1.585 . S
C760 N434 1.524 . S
C762 C479 1.586 . S
C771 N467 1.524 . S
C773 C512 1.586 . S
C782 C413 1.585 . S
C784 N500 1.526 . S
C793 C239 1.067 . S
C795 C8 1.068 . S
C804 C41 1.072 . S
C806 C140 1.064 . S
C815 C173 1.062 . S
C817 C74 1.071 . S
C826 C206 1.065 . S
C828 C107 1.068 . S
C837 C272 1.072 . S
C839 C503 1.064 . S
C848 C404 1.063 . S
C850 C305 1.071 . S
C859 C338 1.065 . S
C861 C437 1.070 . S
C870 C470 1.069 . S
C872 C371 1.064 . S
C881 N80 1.569 . S
C883 N14 1.571 . S
C892 N113 1.575 . S
C894 N47 1.574 . S
C903 N146 1.575 . S
C905 N212 1.573 . S
C914 N179 1.575 . S
C916 N245 1.573 . S
C925 N278 1.574 . S
C927 N344 1.574 . S
C936 N377 1.570 . S
C938 N311 1.572 . S
C947 N410 1.573 . S
C949 N476 1.574 . S
C958 N509 1.574 . S
C960 N443 1.573 . S
