# Generated by pormake.
# Topology sxa, (6)-cn, num edge types: 1
# Building blocks:
#     Node 0, Type 0, BuildingBlock: IZENUY_clean_sbu_0, # of connection points: 6
#     Node 1, Type 0, BuildingBlock: IZENUY_clean_sbu_0, # of connection points: 6
#     Node 2, Type 0, BuildingBlock: IZENUY_clean_sbu_0, # of connection points: 6
#     Node 3, Type 0, BuildingBlock: IZENUY_clean_sbu_0, # of connection points: 6
#     Edge 4, Type (0, 0), BuildingBlock: TEMPAE_clean_linker_10, # of connection points: 2
#     Edge 5, Type (0, 0), BuildingBlock: TEMPAE_clean_linker_10, # of connection points: 2
#     Edge 6, Type (0, 0), BuildingBlock: TEMPAE_clean_linker_10, # of connection points: 2
#     Edge 7, Type (0, 0), BuildingBlock: TEMPAE_clean_linker_10, # of connection points: 2
#     Edge 8, Type (0, 0), BuildingBlock: TEMPAE_clean_linker_10, # of connection points: 2
#     Edge 9, Type (0, 0), BuildingBlock: TEMPAE_clean_linker_10, # of connection points: 2
#     Edge 10, Type (0, 0), BuildingBlock: TEMPAE_clean_linker_10, # of connection points: 2
#     Edge 11, Type (0, 0), BuildingBlock: TEMPAE_clean_linker_10, # of connection points: 2
#     Edge 12, Type (0, 0), BuildingBlock: TEMPAE_clean_linker_10, # of connection points: 2
#     Edge 13, Type (0, 0), BuildingBlock: TEMPAE_clean_linker_10, # of connection points: 2
#     Edge 14, Type (0, 0), BuildingBlock: TEMPAE_clean_linker_10, # of connection points: 2
#     Edge 15, Type (0, 0), BuildingBlock: TEMPAE_clean_linker_10, # of connection points: 2
# Relax obj value: 0.274
# Max RMSD: 0.267
# Mean RMSD: 0.267
data_MOF--net-sxa--node1-IZENUY_clean_sbu_0--edge1-TEMPAE_clean_linker_10
_symmetry_space_group_name_H-M    P1
_symmetry_Int_Tables_number       1
_symmetry_cell_setting            triclinic
loop_
_symmetry_equiv_pos_as_xyz
'x, y, z'
_cell_length_a     23.740751
_cell_length_b     28.164856
_cell_length_c     18.638689
_cell_angle_alpha  90.082619
_cell_angle_beta   90.111789
_cell_angle_gamma 89.96179
loop_
_atom_site_label
_atom_site_type_symbol
_atom_site_fract_x
_atom_site_fract_y
_atom_site_fract_z
_atom_type_partial_charge
Fe0 Fe 0.02986 0.83643 0.27745 0.0
Fe1 Fe 0.00915 0.726 0.28438 0.0
O2 O 0.01955 0.77988 0.23502 0.0
Fe3 Fe 0.01947 0.77709 0.13979 0.0
O4 O 0.0933 0.7907 0.13956 0.0
O5 O 0.08731 0.85196 0.21535 0.0
O6 O 0.08474 0.81401 0.33666 0.0
C7 C 0.09437 0.77442 0.36583 0.0
C8 C 0.98144 0.8727 0.15563 0.0
O9 O 0.06368 0.7385 0.35289 0.0
C10 C 0.92555 0.72771 0.17458 0.0
O11 O 0.97391 0.82812 0.34511 0.0
O12 O 0.95319 0.75173 0.33818 0.0
O13 O 0.0037 0.83942 0.12104 0.0
O14 O 0.97702 0.86847 0.22277 0.0
C15 C 0.06119 0.68458 0.16832 0.0
O16 O 0.95326 0.70598 0.22295 0.0
O17 O 0.94533 0.76312 0.1408 0.0
C18 C 0.94285 0.793 0.36108 0.0
O19 O 0.06295 0.69156 0.23528 0.0
O20 O 0.03639 0.71418 0.12926 0.0
C21 C 0.11422 0.82719 0.16943 0.0
Fe22 Fe 0.54025 0.2831 0.13797 0.0
Fe23 Fe 0.53224 0.33894 0.2792 0.0
O24 O 0.52802 0.28317 0.23221 0.0
Fe25 Fe 0.51335 0.22811 0.27703 0.0
O26 O 0.57026 0.19352 0.23456 0.0
O27 O 0.5619 0.22149 0.12675 0.0
O28 O 0.61271 0.29966 0.15328 0.0
C29 C 0.62701 0.33692 0.18678 0.0
C30 C 0.44513 0.22971 0.15044 0.0
O31 O 0.59268 0.35953 0.22619 0.0
C32 C 0.44143 0.29207 0.35171 0.0
O33 O 0.52138 0.34523 0.12113 0.0
O34 O 0.48203 0.37002 0.21933 0.0
O35 O 0.46329 0.20994 0.2073 0.0
O36 O 0.46852 0.26548 0.1216 0.0
C37 C 0.59266 0.27521 0.36881 0.0
O38 O 0.47293 0.32758 0.34073 0.0
O39 O 0.45292 0.25201 0.32528 0.0
C40 C 0.49221 0.37593 0.15327 0.0
O41 O 0.58382 0.31575 0.34211 0.0
O42 O 0.56268 0.23946 0.35202 0.0
C43 C 0.57721 0.18881 0.16781 0.0
Fe44 Fe 0.02542 0.28709 0.90566 0.0
Fe45 Fe 0.0103 0.33909 0.76246 0.0
O46 O 0.02217 0.28493 0.81047 0.0
Fe47 Fe 0.03125 0.22867 0.76672 0.0
O48 O 0.97969 0.19655 0.82303 0.0
O49 O 0.01018 0.2246 0.92389 0.0
O50 O 0.95132 0.30105 0.90887 0.0
C51 C 0.93024 0.33659 0.87654 0.0
C52 C 0.11914 0.23736 0.86984 0.0
O53 O 0.95592 0.35842 0.82653 0.0
C54 C 0.0939 0.29137 0.67761 0.0
O55 O 0.04219 0.35005 0.91658 0.0
O56 O 0.06524 0.37324 0.80985 0.0
O57 O 0.0902 0.21245 0.82618 0.0
O58 O 0.09931 0.2736 0.90157 0.0
C59 C 0.94248 0.27278 0.68655 0.0
O60 O 0.06329 0.32716 0.69189 0.0
O61 O 0.08476 0.25148 0.70607 0.0
C62 C 0.06533 0.38003 0.87681 0.0
O63 O 0.9531 0.31381 0.71018 0.0
O64 O 0.97384 0.23755 0.70106 0.0
C65 C 0.9859 0.19194 0.88998 0.0
Fe66 Fe 0.51299 0.84334 0.76728 0.0
Fe67 Fe 0.53195 0.73259 0.76787 0.0
O68 O 0.52761 0.78881 0.8136 0.0
Fe69 Fe 0.5397 0.78984 0.90797 0.0
O70 O 0.4681 0.80799 0.92344 0.0
O71 O 0.46276 0.86243 0.83617 0.0
O72 O 0.45256 0.819 0.71934 0.0
C73 C 0.4415 0.77876 0.69331 0.0
C74 C 0.5771 0.88357 0.8758 0.0
O75 O 0.47326 0.74349 0.70503 0.0
C76 C 0.62603 0.73469 0.86178 0.0
O77 O 0.56245 0.83104 0.69284 0.0
O78 O 0.58411 0.75501 0.70543 0.0
O79 O 0.56168 0.85154 0.91783 0.0
O80 O 0.56989 0.87815 0.8092 0.0
C81 C 0.49104 0.69706 0.89402 0.0
O82 O 0.59169 0.71216 0.82228 0.0
O83 O 0.61215 0.77264 0.89375 0.0
C84 C 0.59284 0.79521 0.67758 0.0
O85 O 0.48125 0.70236 0.82767 0.0
O86 O 0.52018 0.72796 0.92594 0.0
C87 C 0.44468 0.84344 0.89358 0.0
C88 C 0.03783 0.46454 0.90181 0.0
C89 C 0.07728 0.42768 0.90931 0.0
C90 C 0.03964 0.50549 0.94596 0.0
C91 C 0.08278 0.51076 0.99841 0.0
C92 C 0.12402 0.47435 1.00418 0.0
C93 C 0.12005 0.43303 0.96091 0.0
C94 C 0.99371 0.54223 0.93861 0.0
C95 C 0.17156 0.47835 0.05765 0.0
C96 C 0.10563 0.63808 0.06814 0.0
C97 C 0.07692 0.63813 0.13408 0.0
C98 C 0.11026 0.59663 0.02558 0.0
C99 C 0.08389 0.55387 0.04763 0.0
C100 C 0.05592 0.5534 0.11513 0.0
C101 C 0.05325 0.5952 0.15765 0.0
C102 C 0.14164 0.59921 0.95538 0.0
C103 C 0.02595 0.50936 0.14069 0.0
H104 H 0.00338 0.46002 0.86415 0.0
H105 H 0.14971 0.4042 0.96871 0.0
H106 H 0.97189 0.54678 0.99074 0.0
H107 H 0.01224 0.57707 0.92424 0.0
H108 H 0.96202 0.5324 0.89725 0.0
H109 H 0.20281 0.44924 0.05165 0.0
H110 H 0.19349 0.51287 0.05124 0.0
H111 H 0.15445 0.4773 0.11296 0.0
H112 H 0.12315 0.67117 0.04864 0.0
H113 H 0.02941 0.59505 0.20719 0.0
H114 H 0.11149 0.59569 0.91014 0.0
H115 H 0.1721 0.56943 0.95118 0.0
H116 H 0.1648 0.63322 0.94925 0.0
H117 H 0.99098 0.50072 0.1033 0.0
H118 H 0.00836 0.51373 0.19549 0.0
H119 H 0.05518 0.47863 0.14068 0.0
C120 C 0.44359 0.45715 0.13842 0.0
C121 C 0.48243 0.42272 0.11509 0.0
C122 C 0.43748 0.50131 0.10198 0.0
C123 C 0.47208 0.51233 0.04182 0.0
C124 C 0.51118 0.47761 1.01838 0.0
C125 C 0.51517 0.43361 0.05415 0.0
C126 C 0.39441 0.53652 0.12847 0.0
C127 C 0.55073 0.48752 0.95678 0.0
C128 C 0.4453 0.61459 0.90675 0.0
C129 C 0.48077 0.65065 0.93306 0.0
C130 C 0.43971 0.57043 0.94323 0.0
C131 C 0.47139 0.56112 1.00674 0.0
C132 C 0.50677 0.5976 0.03352 0.0
C133 C 0.51033 0.6415 0.99741 0.0
C134 C 0.40065 0.53326 0.91296 0.0
C135 C 0.54303 0.58967 0.09912 0.0
H136 H 0.41787 0.44961 0.18499 0.0
H137 H 0.54587 0.40803 0.03519 0.0
H138 H 0.41602 0.5683 0.15041 0.0
H139 H 0.36749 0.54859 0.08327 0.0
H140 H 0.36709 0.52134 0.17096 0.0
H141 H 0.57738 0.45636 0.94318 0.0
H142 H 0.52654 0.49797 0.90836 0.0
H143 H 0.57878 0.51766 0.97083 0.0
H144 H 0.4221 0.62071 0.8575 0.0
H145 H 0.5384 0.66835 1.01885 0.0
H146 H 0.37237 0.51971 0.95563 0.0
H147 H 0.42556 0.50269 0.89288 0.0
H148 H 0.37455 0.54723 0.86817 0.0
H149 H 0.51662 0.57862 0.14516 0.0
H150 H 0.56705 0.62193 0.11472 0.0
H151 H 0.57346 0.56055 0.08862 0.0
C152 C 0.55144 0.96885 0.89985 0.0
C153 C 0.58971 0.93119 0.9085 0.0
C154 C 0.55378 1.00994 0.94382 0.0
C155 C 0.59633 1.01455 0.99723 0.0
C156 C 0.63657 0.97741 1.00393 0.0
C157 C 0.63197 0.93599 0.96097 0.0
C158 C 0.50889 0.04751 0.93532 0.0
C159 C 0.68378 0.98081 0.05799 0.0
C160 C 0.62149 0.14148 0.06781 0.0
C161 C 0.59204 0.14204 0.13331 0.0
C162 C 0.62546 0.10002 0.0251 0.0
C163 C 0.59786 0.05767 0.04654 0.0
C164 C 0.5694 0.05758 0.11372 0.0
C165 C 0.56732 0.09938 0.15639 0.0
C166 C 0.65756 0.10216 0.95538 0.0
C167 C 0.53836 1.01396 0.13883 0.0
H168 H 0.51733 0.96488 0.86155 0.0
H169 H 0.66084 0.90669 0.96953 0.0
H170 H 0.48481 0.05105 0.98604 0.0
H171 H 0.52851 0.08247 0.92433 0.0
H172 H 0.47893 0.03914 0.89122 0.0
H173 H 0.7145 0.95127 0.05242 0.0
H174 H 0.70646 1.015 0.05176 0.0
H175 H 0.66625 0.98005 0.11309 0.0
H176 H 0.64015 0.17422 0.04868 0.0
H177 H 0.54314 0.09945 0.20565 0.0
H178 H 0.62779 0.09911 0.90967 0.0
H179 H 0.68742 0.07193 0.95161 0.0
H180 H 0.68149 0.13582 0.94965 0.0
H181 H 0.50343 1.00588 0.10107 0.0
H182 H 0.52055 1.0185 0.19348 0.0
H183 H 0.56694 0.98279 0.13902 0.0
C184 C 0.009 0.92974 0.05798 0.0
C185 C 0.97436 0.91973 0.11747 0.0
C186 C 0.00619 0.97328 1.02075 0.0
C187 C 0.96664 1.00843 0.04145 0.0
C188 C 0.93063 0.99843 0.10068 0.0
C189 C 0.93545 0.9547 0.13854 0.0
C190 C 0.04711 0.98212 0.96025 0.0
C191 C 0.88717 0.03417 0.12437 0.0
C192 C 0.00551 0.137 0.99384 0.0
C193 C 0.9766 0.14536 0.92882 0.0
C194 C 0.00159 0.09353 0.0311 0.0
C195 C 0.96675 0.05662 1.00451 0.0
C196 C 0.93614 0.06499 0.93986 0.0
C197 C 0.94193 0.10878 0.90242 0.0
C198 C 0.03668 0.08659 0.09799 0.0
C199 C 0.89774 1.0273 0.90966 0.0
H200 H 0.04001 0.90371 0.04133 0.0
H201 H 0.90836 0.94772 0.18404 0.0
H202 H 0.02389 0.99092 0.91032 0.0
H203 H 0.07423 1.013 0.97347 0.0
H204 H 0.07466 0.951 0.94962 0.0
H205 H 0.85953 1.02008 0.16738 0.0
H206 H 0.90839 0.06664 0.14454 0.0
H207 H 0.86059 0.04484 0.07806 0.0
H208 H 0.03312 0.16424 1.01513 0.0
H209 H 0.91926 0.11434 0.85262 0.0
H210 H 0.0673 0.05736 0.08937 0.0
H211 H 0.00943 0.0762 0.14359 0.0
H212 H 0.06037 0.1191 0.1132 0.0
H213 H 0.92301 0.99617 0.89242 0.0
H214 H 0.87304 0.04031 0.86297 0.0
H215 H 0.86816 1.01486 0.95165 0.0
C216 C 0.34282 0.80353 0.65874 0.0
C217 C 0.38939 0.77346 0.64781 0.0
C218 C 0.2939 0.80049 0.61564 0.0
C219 C 0.29132 0.76743 0.55815 0.0
C220 C 0.33806 0.7367 0.5471 0.0
C221 C 0.38595 0.7396 0.59248 0.0
C222 C 0.2451 0.83326 0.63126 0.0
C223 C 0.33827 0.70169 0.48578 0.0
C224 C 0.14723 0.73834 0.47191 0.0
C225 C 0.14488 0.77063 0.41453 0.0
C226 C 0.1943 0.73675 0.51891 0.0
C227 C 0.24125 0.76717 0.50746 0.0
C228 C 0.23959 0.79876 0.44828 0.0
C229 C 0.19156 0.80052 0.40356 0.0
C230 C 0.19322 0.70327 0.58196 0.0
C231 C 0.28866 0.83108 0.43214 0.0
H232 H 0.34445 0.82951 0.70167 0.0
H233 H 0.42155 0.7163 0.5831 0.0
H234 H 0.23959 0.85861 0.5863 0.0
H235 H 0.2055 0.81258 0.63583 0.0
H236 H 0.25137 0.85383 0.68155 0.0
H237 H 0.37681 0.67929 0.48536 0.0
H238 H 0.30088 0.67822 0.48893 0.0
H239 H 0.33559 0.72109 0.43409 0.0
H240 H 0.11158 0.71516 0.48126 0.0
H241 H 0.19087 0.82523 0.35901 0.0
H242 H 0.19639 0.72381 0.63267 0.0
H243 H 0.23005 0.67907 0.57997 0.0
H244 H 0.15416 0.68158 0.58341 0.0
H245 H 0.29451 0.85674 0.47673 0.0
H246 H 0.28259 0.85129 0.38157 0.0
H247 H 0.32804 0.81003 0.42778 0.0
C248 C 0.14608 0.32853 0.57195 0.0
C249 C 0.14415 0.29577 0.62873 0.0
C250 C 0.19314 0.33087 0.52517 0.0
C251 C 0.24054 0.30079 0.53631 0.0
C252 C 0.23926 0.2687 0.5949 0.0
C253 C 0.19124 0.26618 0.63934 0.0
C254 C 0.19161 0.36485 0.46274 0.0
C255 C 0.28879 0.23671 0.61077 0.0
C256 C 0.34287 0.26645 0.38506 0.0
C257 C 0.38907 0.29678 0.39682 0.0
C258 C 0.29384 0.26878 0.42785 0.0
C259 C 0.29071 0.30137 0.48589 0.0
C260 C 0.33705 0.3324 0.49775 0.0
C261 C 0.38508 0.33022 0.45269 0.0
C262 C 0.2455 0.23571 0.41133 0.0
C263 C 0.33673 0.36695 0.55967 0.0
H264 H 0.11015 0.35153 0.56291 0.0
H265 H 0.19092 0.24114 0.68348 0.0
H266 H 0.22801 0.38944 0.46551 0.0
H267 H 0.19526 0.34476 0.41169 0.0
H268 H 0.15218 0.38609 0.46135 0.0
H269 H 0.28296 0.21604 0.66094 0.0
H270 H 0.29504 0.21146 0.56577 0.0
H271 H 0.32786 0.25808 0.61578 0.0
H272 H 0.3449 0.24077 0.34174 0.0
H273 H 0.42036 0.35371 0.46274 0.0
H274 H 0.20561 0.25608 0.4069 0.0
H275 H 0.24032 0.20995 0.45579 0.0
H276 H 0.25208 0.2156 0.36071 0.0
H277 H 0.29899 0.3901 0.5567 0.0
H278 H 0.37493 0.38969 0.56068 0.0
H279 H 0.33431 0.34714 0.611 0.0
C280 C 0.84281 0.29527 0.657 0.0
C281 C 0.88999 0.2666 0.6427 0.0
C282 C 0.79331 0.2923 0.61538 0.0
C283 C 0.79075 0.26072 0.55617 0.0
C284 C 0.83791 0.231 0.54208 0.0
C285 C 0.88657 0.2338 0.58604 0.0
C286 C 0.74408 0.32394 0.63402 0.0
C287 C 0.83783 0.19754 0.47884 0.0
C288 C 0.64565 0.23527 0.47128 0.0
C289 C 0.64297 0.26971 0.41695 0.0
C290 C 0.69345 0.23148 0.51664 0.0
C291 C 0.74055 0.26187 0.50627 0.0
C292 C 0.73853 0.29556 0.4499 0.0
C293 C 0.6899 0.29941 0.4069 0.0
C294 C 0.69301 0.19574 0.5768 0.0
C295 C 0.78775 0.32805 0.43518 0.0
H296 H 0.84453 0.32025 0.70128 0.0
H297 H 0.9227 0.21156 0.5744 0.0
H298 H 0.73788 0.35069 0.59109 0.0
H299 H 0.70483 0.30272 0.63753 0.0
H300 H 0.75043 0.34293 0.6857 0.0
H301 H 0.87613 0.17488 0.47729 0.0
H302 H 0.80015 0.17431 0.48044 0.0
H303 H 0.83554 0.21827 0.42833 0.0
H304 H 0.60986 0.21205 0.47948 0.0
H305 H 0.689 0.32557 0.36428 0.0
H306 H 0.69624 0.21445 0.62909 0.0
H307 H 0.73005 0.1719 0.57256 0.0
H308 H 0.65415 0.17379 0.57677 0.0
H309 H 0.79405 0.35247 0.48124 0.0
H310 H 0.78145 0.34966 0.38598 0.0
H311 H 0.82697 0.30699 0.42903 0.0
C312 C 0.84334 0.77093 0.39167 0.0
C313 C 0.89063 0.79967 0.40517 0.0
C314 C 0.7939 0.77456 0.43306 0.0
C315 C 0.79144 0.80694 0.4913 0.0
C316 C 0.83873 0.83668 0.50462 0.0
C317 C 0.88734 0.83319 0.46086 0.0
C318 C 0.74457 0.74284 0.41517 0.0
C319 C 0.83879 0.87099 0.56683 0.0
C320 C 0.64622 0.83389 0.57449 0.0
C321 C 0.64336 0.80015 0.6298 0.0
C322 C 0.69413 0.837 0.5294 0.0
C323 C 0.74118 0.80664 0.54099 0.0
C324 C 0.739 0.7737 0.59834 0.0
C325 C 0.69027 0.77051 0.64108 0.0
C326 C 0.69384 0.87195 0.46818 0.0
C327 C 0.78811 0.74127 0.61436 0.0
H328 H 0.8449 0.74541 0.3481 0.0
H329 H 0.9235 0.85554 0.47185 0.0
H330 H 0.73827 0.71672 0.45891 0.0
H331 H 0.70539 0.76415 0.41079 0.0
H332 H 0.75085 0.72312 0.36413 0.0
H333 H 0.87723 0.89344 0.56796 0.0
H334 H 0.80127 0.8944 0.56421 0.0
H335 H 0.83628 0.85096 0.61795 0.0
H336 H 0.61046 0.85705 0.56529 0.0
H337 H 0.68926 0.74488 0.68441 0.0
H338 H 0.69697 0.85254 0.41648 0.0
H339 H 0.73099 0.89568 0.47188 0.0
H340 H 0.65507 0.89405 0.46738 0.0
H341 H 0.79435 0.71621 0.5691 0.0
H342 H 0.78173 0.72036 0.66419 0.0
H343 H 0.82739 0.76229 0.62007 0.0
C344 C 0.40788 0.87991 1.00368 0.0
C345 C 0.39948 0.867 0.93202 0.0
C346 C 0.36218 0.89273 0.04644 0.0
C347 C 0.30751 0.89028 1.01676 0.0
C348 C 0.30023 0.88471 0.94173 0.0
C349 C 0.34697 0.87309 0.89966 0.0
C350 C 0.3716 0.90158 0.12536 0.0
C351 C 0.24246 0.88354 0.90791 0.0
C352 C 0.20719 0.81229 0.11731 0.0
C353 C 0.16721 0.84499 0.1409 0.0
C354 C 0.25419 0.82722 0.07918 0.0
C355 C 0.26089 0.87624 0.06401 0.0
C356 C 0.22182 0.90984 0.09051 0.0
C357 C 0.17531 0.89369 0.12968 0.0
C358 C 0.29526 0.79002 0.0526 0.0
C359 C 0.22835 0.96237 0.07671 0.0
H360 H 0.44954 0.87699 0.02733 0.0
H361 H 0.34147 0.86433 0.84338 0.0
H362 H 0.341 0.92791 0.14633 0.0
H363 H 0.36555 0.8679 0.15523 0.0
H364 H 0.41505 0.9145 0.136 0.0
H365 H 0.24454 0.88941 0.84903 0.0
H366 H 0.22315 0.84822 0.91747 0.0
H367 H 0.21455 0.91076 0.93214 0.0
H368 H 0.2007 0.7747 0.12697 0.0
H369 H 0.14389 0.91884 0.14816 0.0
H370 H 0.33818 0.79767 0.07315 0.0
H371 H 0.29703 0.79053 0.99313 0.0
H372 H 0.28353 0.75359 0.06979 0.0
H373 H 0.26008 0.97705 0.11445 0.0
H374 H 0.18815 0.98184 0.085 0.0
H375 H 0.2435 0.96936 1.02146 0.0
C376 C 0.18196 0.17156 0.90771 0.0
C377 C 0.1737 0.21993 0.89372 0.0
C378 C 0.22995 0.15633 0.94495 0.0
C379 C 0.26964 0.19058 0.96781 0.0
C380 C 0.26354 0.23887 0.94762 0.0
C381 C 0.2153 0.25289 0.91093 0.0
C382 C 0.23549 0.10445 0.96387 0.0
C383 C 0.30569 0.27658 0.9693 0.0
C384 C 0.34733 0.20159 0.13832 0.0
C385 C 0.40142 0.20563 0.11013 0.0
C386 C 0.30275 0.1882 0.09363 0.0
C387 C 0.3138 0.17882 1.02024 0.0
C388 C 0.36978 0.17458 0.99579 0.0
C389 C 0.41336 0.18923 0.04097 0.0
C390 C 0.24341 0.19107 0.12216 0.0
C391 C 0.38307 0.16118 0.91932 0.0
H392 H 0.14934 0.14615 0.89399 0.0
H393 H 0.20873 0.29014 0.89861 0.0
H394 H 0.27993 0.09389 0.9732 0.0
H395 H 0.21125 0.09726 1.01352 0.0
H396 H 0.21751 0.08179 0.92071 0.0
H397 H 0.29512 0.31201 0.94681 0.0
H398 H 0.30715 0.27974 0.02862 0.0
H399 H 0.34844 0.26673 0.95061 0.0
H400 H 0.33918 0.21295 0.19297 0.0
H401 H 0.45621 0.19054 1.02094 0.0
H402 H 0.21762 0.16126 0.10135 0.0
H403 H 0.22367 0.2247 0.10385 0.0
H404 H 0.24251 0.1904 0.18175 0.0
H405 H 0.35235 0.13485 0.89845 0.0
H406 H 0.42627 0.14629 0.91473 0.0
H407 H 0.38059 0.19331 0.88504 0.0
C408 C 0.72903 0.33708 0.16615 0.0
C409 C 0.67766 0.36083 0.16237 0.0
C410 C 0.77384 0.35126 0.12288 0.0
C411 C 0.76536 0.38854 0.07292 0.0
C412 C 0.71602 0.41655 0.07615 0.0
C413 C 0.67241 0.4024 0.12178 0.0
C414 C 0.82726 0.32212 0.12374 0.0
C415 C 0.70614 0.45735 0.02529 0.0
C416 C 0.89371 0.3979 0.95789 0.0
C417 C 0.88311 0.36014 0.91092 0.0
C418 C 0.85256 0.41252 1.00678 0.0
C419 C 0.80033 0.3885 1.00763 0.0
C420 C 0.78734 0.35472 0.95343 0.0
C421 C 0.82961 0.34024 0.90623 0.0
C422 C 0.8678 0.44954 0.06206 0.0
C423 C 0.73115 0.32963 0.95065 0.0
H424 H 0.73268 0.3053 0.19869 0.0
H425 H 0.63232 0.42083 0.11988 0.0
H426 H 0.82748 0.29772 0.07691 0.0
H427 H 0.86479 0.34539 0.11973 0.0
H428 H 0.83087 0.30044 0.1733 0.0
H429 H 0.67484 0.48284 0.04729 0.0
H430 H 0.74586 0.47654 1.01361 0.0
H431 H 0.68938 0.44335 0.97382 0.0
H432 H 0.93559 0.41319 0.96063 0.0
H433 H 0.82199 0.31133 0.86892 0.0
H434 H 0.89119 0.43229 0.10658 0.0
H435 H 0.83009 0.46726 0.08477 0.0
H436 H 0.89585 0.4769 0.03837 0.0
H437 H 0.72894 0.30315 0.99461 0.0
H438 H 0.72477 0.31073 0.8989 0.0
H439 H 0.69612 0.35522 0.95821 0.0
C440 C 0.88597 0.66505 0.09809 0.0
C441 C 0.87718 0.70408 0.14322 0.0
C442 C 0.84402 0.65094 0.0498 0.0
C443 C 0.79292 0.67665 0.04801 0.0
C444 C 0.78127 0.71116 0.10155 0.0
C445 C 0.82438 0.72529 0.14786 0.0
C446 C 0.85763 0.61265 0.9959 0.0
C447 C 0.72603 0.73776 0.10376 0.0
C448 C 0.72737 0.73152 0.88779 0.0
C449 C 0.67489 0.70955 0.88927 0.0
C450 C 0.77052 0.71545 0.93249 0.0
C451 C 0.75913 0.67831 0.9817 0.0
C452 C 0.70855 0.65217 0.97641 0.0
C453 C 0.66671 0.66807 0.92927 0.0
C454 C 0.82557 0.7423 0.93355 0.0
C455 C 0.69575 0.61145 0.02626 0.0
H456 H 0.92724 0.6485 0.09574 0.0
H457 H 0.8181 0.75506 0.18399 0.0
H458 H 0.81974 0.59912 0.96764 0.0
H459 H 0.88741 0.62697 0.95551 0.0
H460 H 0.87889 0.58248 0.0231 0.0
H461 H 0.72006 0.7565 0.1557 0.0
H462 H 0.72519 0.76459 0.0602 0.0
H463 H 0.69009 0.71323 0.09525 0.0
H464 H 0.7333 0.76317 0.85558 0.0
H465 H 0.62577 0.65101 0.92929 0.0
H466 H 0.86162 0.71738 0.93805 0.0
H467 H 0.82663 0.76631 0.98083 0.0
H468 H 0.83112 0.76416 0.8845 0.0
H469 H 0.73422 0.59057 0.03848 0.0
H470 H 0.66334 0.58744 1.00305 0.0
H471 H 0.6792 0.62572 0.07759 0.0
loop_
_geom_bond_atom_site_label_1
_geom_bond_atom_site_label_2
_geom_bond_distance
_geom_bond_site_symmetry_2
_ccdc_geom_bond_type
Fe0 O2 1.918 . S
Fe0 O5 1.997 . S
Fe0 O6 2.002 . S
Fe0 O11 1.976 . S
Fe0 O14 1.996 . S
Fe1 O2 1.918 1_655 S
Fe1 O9 1.997 1_655 S
Fe1 O12 1.996 . S
Fe1 O16 1.976 . S
Fe1 O19 2.002 1_655 S
O2 Fe0 1.918 . S
O2 Fe1 1.918 1_455 S
O2 Fe3 1.918 . S
Fe3 O2 1.918 . S
Fe3 O4 2.002 . S
Fe3 O13 1.976 . S
Fe3 O17 1.996 1_455 S
Fe3 O20 1.997 . S
O4 Fe3 2.002 . S
O4 C21 1.295 . S
O5 Fe0 1.997 . S
O5 C21 1.235 . S
O6 Fe0 2.002 . S
O6 C7 1.295 . S
C7 O6 1.295 . S
C7 O9 1.235 . S
C8 O13 1.287 . S
C8 O14 1.255 . S
O9 Fe1 1.997 1_455 S
O9 C7 1.235 . S
C10 O16 1.287 . S
C10 O17 1.255 . S
O11 Fe0 1.976 . S
O11 C18 1.287 1_455 S
O12 Fe1 1.996 . S
O12 C18 1.255 . S
O13 Fe3 1.976 . S
O13 C8 1.287 . S
O14 Fe0 1.996 . S
O14 C8 1.255 . S
C15 O19 1.295 . S
C15 O20 1.235 . S
O16 Fe1 1.976 . S
O16 C10 1.287 . S
O17 Fe3 1.996 1_655 S
O17 C10 1.255 . S
C18 O11 1.287 1_655 S
C18 O12 1.255 . S
O19 Fe1 2.002 1_455 S
O19 C15 1.295 . S
O20 Fe3 1.997 . S
O20 C15 1.235 . S
C21 O4 1.295 . S
C21 O5 1.235 . S
Fe22 O24 1.918 . S
Fe22 O27 1.997 . S
Fe22 O28 2.002 . S
Fe22 O33 1.976 . S
Fe22 O36 1.996 . S
Fe23 O24 1.918 . S
Fe23 O31 1.997 . S
Fe23 O34 1.996 . S
Fe23 O38 1.976 . S
Fe23 O41 2.002 . S
O24 Fe22 1.918 . S
O24 Fe23 1.918 . S
O24 Fe25 1.918 . S
Fe25 O24 1.918 . S
Fe25 O26 2.002 . S
Fe25 O35 1.976 . S
Fe25 O39 1.996 . S
Fe25 O42 1.997 . S
O26 Fe25 2.002 . S
O26 C43 1.295 . S
O27 Fe22 1.997 . S
O27 C43 1.235 . S
O28 Fe22 2.002 . S
O28 C29 1.295 . S
C29 O28 1.295 . S
C29 O31 1.235 . S
C30 O35 1.287 . S
C30 O36 1.255 . S
O31 Fe23 1.997 . S
O31 C29 1.235 . S
C32 O38 1.287 . S
C32 O39 1.255 . S
O33 Fe22 1.976 . S
O33 C40 1.287 . S
O34 Fe23 1.996 . S
O34 C40 1.255 . S
O35 Fe25 1.976 . S
O35 C30 1.287 . S
O36 Fe22 1.996 . S
O36 C30 1.255 . S
C37 O41 1.295 . S
C37 O42 1.235 . S
O38 Fe23 1.976 . S
O38 C32 1.287 . S
O39 Fe25 1.996 . S
O39 C32 1.255 . S
C40 O33 1.287 . S
C40 O34 1.255 . S
O41 Fe23 2.002 . S
O41 C37 1.295 . S
O42 Fe25 1.997 . S
O42 C37 1.235 . S
C43 O26 1.295 . S
C43 O27 1.235 . S
Fe44 O46 1.918 . S
Fe44 O49 1.997 . S
Fe44 O50 2.002 1_455 S
Fe44 O55 1.976 . S
Fe44 O58 1.996 . S
Fe45 O46 1.918 1_655 S
Fe45 O53 1.997 . S
Fe45 O56 1.996 1_655 S
Fe45 O60 1.976 1_655 S
Fe45 O63 2.002 . S
O46 Fe44 1.918 . S
O46 Fe45 1.918 1_455 S
O46 Fe47 1.918 . S
Fe47 O46 1.918 . S
Fe47 O48 2.002 . S
Fe47 O57 1.976 . S
Fe47 O61 1.996 . S
Fe47 O64 1.997 . S
O48 Fe47 2.002 . S
O48 C65 1.295 . S
O49 Fe44 1.997 . S
O49 C65 1.235 . S
O50 Fe44 2.002 1_655 S
O50 C51 1.295 . S
C51 O50 1.295 . S
C51 O53 1.235 . S
C52 O57 1.287 . S
C52 O58 1.255 . S
O53 Fe45 1.997 . S
O53 C51 1.235 . S
C54 O60 1.287 . S
C54 O61 1.255 . S
O55 Fe44 1.976 . S
O55 C62 1.287 . S
O56 Fe45 1.996 1_455 S
O56 C62 1.255 . S
O57 Fe47 1.976 . S
O57 C52 1.287 . S
O58 Fe44 1.996 . S
O58 C52 1.255 . S
C59 O63 1.295 . S
C59 O64 1.235 1_655 S
O60 Fe45 1.976 1_455 S
O60 C54 1.287 . S
O61 Fe47 1.996 . S
O61 C54 1.255 . S
C62 O55 1.287 . S
C62 O56 1.255 . S
O63 Fe45 2.002 . S
O63 C59 1.295 . S
O64 Fe47 1.997 . S
O64 C59 1.235 1_455 S
C65 O48 1.295 . S
C65 O49 1.235 . S
Fe66 O68 1.918 . S
Fe66 O71 1.997 . S
Fe66 O72 2.002 . S
Fe66 O77 1.976 . S
Fe66 O80 1.996 . S
Fe67 O68 1.918 . S
Fe67 O75 1.997 . S
Fe67 O78 1.996 . S
Fe67 O82 1.976 . S
Fe67 O85 2.002 . S
O68 Fe66 1.918 . S
O68 Fe67 1.918 . S
O68 Fe69 1.918 . S
Fe69 O68 1.918 . S
Fe69 O70 2.002 . S
Fe69 O79 1.976 . S
Fe69 O83 1.996 . S
Fe69 O86 1.997 . S
O70 Fe69 2.002 . S
O70 C87 1.295 . S
O71 Fe66 1.997 . S
O71 C87 1.235 . S
O72 Fe66 2.002 . S
O72 C73 1.295 . S
C73 O72 1.295 . S
C73 O75 1.235 . S
C74 O79 1.287 . S
C74 O80 1.255 . S
O75 Fe67 1.997 . S
O75 C73 1.235 . S
C76 O82 1.287 . S
C76 O83 1.255 . S
O77 Fe66 1.976 . S
O77 C84 1.287 . S
O78 Fe67 1.996 . S
O78 C84 1.255 . S
O79 Fe69 1.976 . S
O79 C74 1.287 . S
O80 Fe66 1.996 . S
O80 C74 1.255 . S
C81 O85 1.295 . S
C81 O86 1.235 . S
O82 Fe67 1.976 . S
O82 C76 1.287 . S
O83 Fe69 1.996 . S
O83 C76 1.255 . S
C84 O77 1.287 . S
C84 O78 1.255 . S
O85 Fe67 2.002 . S
O85 C81 1.295 . S
O86 Fe69 1.997 . S
O86 C81 1.235 . S
C87 O70 1.295 . S
C87 O71 1.235 . S
C88 C89 1.391 1_655 S
C88 C90 1.394 . S
C88 H104 0.931 . S
C89 C88 1.391 1_455 S
C89 C93 1.376 . S
C90 C88 1.394 . S
C90 C91 1.369 1_655 S
C90 C94 1.531 . S
C91 C90 1.369 1_455 S
C91 C92 1.410 . S
C91 C99 1.503 1_556 S
C92 C91 1.410 . S
C92 C93 1.392 . S
C92 C95 1.511 1_556 S
C93 C89 1.376 . S
C93 C92 1.392 . S
C93 H105 0.929 . S
C94 C90 1.531 . S
C94 H106 0.960 1_556 S
C94 H107 0.962 . S
C94 H108 0.960 . S
C95 C92 1.511 1_554 S
C95 H109 0.961 1_554 S
C95 H110 0.961 . S
C95 H111 0.961 . S
C96 C97 1.370 . S
C96 C98 1.363 1_554 S
C96 H112 0.931 1_554 S
C97 C96 1.370 . S
C97 C101 1.408 . S
C98 C96 1.363 1_556 S
C98 C99 1.370 1_556 S
C98 C102 1.524 . S
C99 C91 1.503 1_554 S
C99 C98 1.370 1_554 S
C99 C100 1.403 . S
C100 C99 1.403 . S
C100 C101 1.404 . S
C100 C103 1.539 . S
C101 C97 1.408 . S
C101 C100 1.404 . S
C101 H113 0.930 . S
C102 C98 1.524 . S
C102 H114 0.956 . S
C102 H115 0.961 . S
C102 H116 0.961 . S
C103 C100 1.539 . S
C103 H117 0.958 1_455 S
C103 H118 0.961 . S
C103 H119 0.960 . S
H104 C88 0.931 . S
H105 C93 0.929 . S
H106 C94 0.960 1_554 S
H107 C94 0.962 . S
H108 C94 0.960 . S
H109 C95 0.961 1_556 S
H110 C95 0.961 . S
H111 C95 0.961 . S
H112 C96 0.931 1_556 S
H113 C101 0.930 . S
H114 C102 0.956 . S
H115 C102 0.961 . S
H116 C102 0.961 . S
H117 C103 0.958 1_655 S
H118 C103 0.961 . S
H119 C103 0.960 . S
C120 C121 1.391 . S
C120 C122 1.394 . S
C120 H136 0.931 . S
C121 C120 1.391 . S
C121 C125 1.376 . S
C122 C120 1.394 . S
C122 C123 1.369 . S
C122 C126 1.531 . S
C123 C122 1.369 . S
C123 C124 1.410 . S
C123 C131 1.503 1_554 S
C124 C123 1.410 . S
C124 C125 1.392 . S
C124 C127 1.511 1_554 S
C125 C121 1.376 . S
C125 C124 1.392 . S
C125 H137 0.929 . S
C126 C122 1.531 . S
C126 H138 0.960 . S
C126 H139 0.962 . S
C126 H140 0.960 . S
C127 C124 1.511 1_556 S
C127 H141 0.961 . S
C127 H142 0.961 . S
C127 H143 0.961 . S
C128 C129 1.370 . S
C128 C130 1.363 . S
C128 H144 0.931 . S
C129 C128 1.370 . S
C129 C133 1.408 . S
C130 C128 1.363 . S
C130 C131 1.370 . S
C130 C134 1.524 . S
C131 C123 1.503 1_556 S
C131 C130 1.370 . S
C131 C132 1.403 1_556 S
C132 C131 1.403 1_554 S
C132 C133 1.404 1_554 S
C132 C135 1.539 . S
C133 C129 1.408 . S
C133 C132 1.404 1_556 S
C133 H145 0.930 . S
C134 C130 1.524 . S
C134 H146 0.956 . S
C134 H147 0.961 . S
C134 H148 0.961 . S
C135 C132 1.539 . S
C135 H149 0.958 . S
C135 H150 0.961 . S
C135 H151 0.960 . S
H136 C120 0.931 . S
H137 C125 0.929 . S
H138 C126 0.960 . S
H139 C126 0.962 . S
H140 C126 0.960 . S
H141 C127 0.961 . S
H142 C127 0.961 . S
H143 C127 0.961 . S
H144 C128 0.931 . S
H145 C133 0.930 . S
H146 C134 0.956 . S
H147 C134 0.961 . S
H148 C134 0.961 . S
H149 C135 0.958 . S
H150 C135 0.961 . S
H151 C135 0.960 . S
C152 C153 1.391 . S
C152 C154 1.394 1_556 S
C152 H168 0.931 . S
C153 C152 1.391 . S
C153 C157 1.376 . S
C154 C152 1.394 1_554 S
C154 C155 1.369 1_554 S
C154 C158 1.531 . S
C155 C154 1.369 1_556 S
C155 C156 1.410 . S
C155 C163 1.503 1_566 S
C156 C155 1.410 . S
C156 C157 1.392 . S
C156 C159 1.511 . S
C157 C153 1.376 . S
C157 C156 1.392 . S
C157 H169 0.929 . S
C158 C154 1.531 . S
C158 H170 0.960 . S
C158 H171 0.962 . S
C158 H172 0.960 . S
C159 C156 1.511 . S
C159 H173 0.961 . S
C159 H174 0.961 1_565 S
C159 H175 0.961 . S
C160 C161 1.370 . S
C160 C162 1.363 1_554 S
C160 H176 0.931 . S
C161 C160 1.370 . S
C161 C165 1.408 . S
C162 C160 1.363 1_556 S
C162 C163 1.370 1_556 S
C162 C166 1.524 . S
C163 C155 1.503 1_544 S
C163 C162 1.370 1_554 S
C163 C164 1.403 . S
C164 C163 1.403 . S
C164 C165 1.404 . S
C164 C167 1.539 1_545 S
C165 C161 1.408 . S
C165 C164 1.404 . S
C165 H177 0.930 . S
C166 C162 1.524 . S
C166 H178 0.956 . S
C166 H179 0.961 . S
C166 H180 0.961 . S
C167 C164 1.539 1_565 S
C167 H181 0.958 . S
C167 H182 0.961 1_565 S
C167 H183 0.960 . S
H168 C152 0.931 . S
H169 C157 0.929 . S
H170 C158 0.960 . S
H171 C158 0.962 . S
H172 C158 0.960 . S
H173 C159 0.961 . S
H174 C159 0.961 1_545 S
H175 C159 0.961 . S
H176 C160 0.931 . S
H177 C165 0.930 . S
H178 C166 0.956 . S
H179 C166 0.961 . S
H180 C166 0.961 . S
H181 C167 0.958 . S
H182 C167 0.961 1_545 S
H183 C167 0.960 . S
C184 C185 1.391 . S
C184 C186 1.394 . S
C184 H200 0.931 . S
C185 C184 1.391 . S
C185 C189 1.376 1_455 S
C186 C184 1.394 . S
C186 C187 1.369 . S
C186 C190 1.531 1_554 S
C187 C186 1.369 . S
C187 C188 1.410 1_455 S
C187 C195 1.503 1_564 S
C188 C187 1.410 1_655 S
C188 C189 1.392 . S
C188 C191 1.511 . S
C189 C185 1.376 1_655 S
C189 C188 1.392 . S
C189 H201 0.929 . S
C190 C186 1.531 1_556 S
C190 H202 0.960 . S
C190 H203 0.962 1_556 S
C190 H204 0.960 . S
C191 C188 1.511 . S
C191 H205 0.961 . S
C191 H206 0.961 1_565 S
C191 H207 0.961 1_554 S
C192 C193 1.370 . S
C192 C194 1.363 1_556 S
C192 H208 0.931 1_556 S
C193 C192 1.370 . S
C193 C197 1.408 . S
C194 C192 1.363 1_554 S
C194 C195 1.370 1_554 S
C194 C198 1.524 . S
C195 C187 1.503 1_546 S
C195 C194 1.370 1_556 S
C195 C196 1.403 . S
C196 C195 1.403 . S
C196 C197 1.404 . S
C196 C199 1.539 1_445 S
C197 C193 1.408 . S
C197 C196 1.404 . S
C197 H209 0.930 1_455 S
C198 C194 1.524 . S
C198 H210 0.956 . S
C198 H211 0.961 1_455 S
C198 H212 0.961 . S
C199 C196 1.539 1_665 S
C199 H213 0.958 1_655 S
C199 H214 0.961 . S
C199 H215 0.960 . S
H200 C184 0.931 . S
H201 C189 0.929 . S
H202 C190 0.960 . S
H203 C190 0.962 1_554 S
H204 C190 0.960 . S
H205 C191 0.961 . S
H206 C191 0.961 1_545 S
H207 C191 0.961 1_556 S
H208 C192 0.931 1_554 S
H209 C197 0.930 1_655 S
H210 C198 0.956 . S
H211 C198 0.961 1_655 S
H212 C198 0.961 . S
H213 C199 0.958 1_455 S
H214 C199 0.961 . S
H215 C199 0.960 . S
C216 C217 1.391 . S
C216 C218 1.394 . S
C216 H232 0.931 . S
C217 C216 1.391 . S
C217 C221 1.376 . S
C218 C216 1.394 . S
C218 C219 1.369 . S
C218 C222 1.531 . S
C219 C218 1.369 . S
C219 C220 1.410 . S
C219 C227 1.503 . S
C220 C219 1.410 . S
C220 C221 1.392 . S
C220 C223 1.511 . S
C221 C217 1.376 . S
C221 C220 1.392 . S
C221 H233 0.929 . S
C222 C218 1.531 . S
C222 H234 0.960 . S
C222 H235 0.962 . S
C222 H236 0.960 . S
C223 C220 1.511 . S
C223 H237 0.961 . S
C223 H238 0.961 . S
C223 H239 0.961 . S
C224 C225 1.370 . S
C224 C226 1.363 . S
C224 H240 0.931 . S
C225 C224 1.370 . S
C225 C229 1.408 . S
C226 C224 1.363 . S
C226 C227 1.370 . S
C226 C230 1.524 . S
C227 C219 1.503 . S
C227 C226 1.370 . S
C227 C228 1.403 . S
C228 C227 1.403 . S
C228 C229 1.404 . S
C228 C231 1.539 . S
C229 C225 1.408 . S
C229 C228 1.404 . S
C229 H241 0.930 . S
C230 C226 1.524 . S
C230 H242 0.956 . S
C230 H243 0.961 . S
C230 H244 0.961 . S
C231 C228 1.539 . S
C231 H245 0.958 . S
C231 H246 0.961 . S
C231 H247 0.960 . S
H232 C216 0.931 . S
H233 C221 0.929 . S
H234 C222 0.960 . S
H235 C222 0.962 . S
H236 C222 0.960 . S
H237 C223 0.961 . S
H238 C223 0.961 . S
H239 C223 0.961 . S
H240 C224 0.931 . S
H241 C229 0.930 . S
H242 C230 0.956 . S
H243 C230 0.961 . S
H244 C230 0.961 . S
H245 C231 0.958 . S
H246 C231 0.961 . S
H247 C231 0.960 . S
C248 C249 1.391 . S
C248 C250 1.394 . S
C248 H264 0.931 . S
C249 C248 1.391 . S
C249 C253 1.376 . S
C250 C248 1.394 . S
C250 C251 1.369 . S
C250 C254 1.531 . S
C251 C250 1.369 . S
C251 C252 1.410 . S
C251 C259 1.503 . S
C252 C251 1.410 . S
C252 C253 1.392 . S
C252 C255 1.511 . S
C253 C249 1.376 . S
C253 C252 1.392 . S
C253 H265 0.929 . S
C254 C250 1.531 . S
C254 H266 0.960 . S
C254 H267 0.962 . S
C254 H268 0.960 . S
C255 C252 1.511 . S
C255 H269 0.961 . S
C255 H270 0.961 . S
C255 H271 0.961 . S
C256 C257 1.370 . S
C256 C258 1.363 . S
C256 H272 0.931 . S
C257 C256 1.370 . S
C257 C261 1.408 . S
C258 C256 1.363 . S
C258 C259 1.370 . S
C258 C262 1.524 . S
C259 C251 1.503 . S
C259 C258 1.370 . S
C259 C260 1.403 . S
C260 C259 1.403 . S
C260 C261 1.404 . S
C260 C263 1.539 . S
C261 C257 1.408 . S
C261 C260 1.404 . S
C261 H273 0.930 . S
C262 C258 1.524 . S
C262 H274 0.956 . S
C262 H275 0.961 . S
C262 H276 0.961 . S
C263 C260 1.539 . S
C263 H277 0.958 . S
C263 H278 0.961 . S
C263 H279 0.960 . S
H264 C248 0.931 . S
H265 C253 0.929 . S
H266 C254 0.960 . S
H267 C254 0.962 . S
H268 C254 0.960 . S
H269 C255 0.961 . S
H270 C255 0.961 . S
H271 C255 0.961 . S
H272 C256 0.931 . S
H273 C261 0.930 . S
H274 C262 0.956 . S
H275 C262 0.961 . S
H276 C262 0.961 . S
H277 C263 0.958 . S
H278 C263 0.961 . S
H279 C263 0.960 . S
C280 C281 1.391 . S
C280 C282 1.394 . S
C280 H296 0.931 . S
C281 C280 1.391 . S
C281 C285 1.376 . S
C282 C280 1.394 . S
C282 C283 1.369 . S
C282 C286 1.531 . S
C283 C282 1.369 . S
C283 C284 1.410 . S
C283 C291 1.503 . S
C284 C283 1.410 . S
C284 C285 1.392 . S
C284 C287 1.511 . S
C285 C281 1.376 . S
C285 C284 1.392 . S
C285 H297 0.929 . S
C286 C282 1.531 . S
C286 H298 0.960 . S
C286 H299 0.962 . S
C286 H300 0.960 . S
C287 C284 1.511 . S
C287 H301 0.961 . S
C287 H302 0.961 . S
C287 H303 0.961 . S
C288 C289 1.370 . S
C288 C290 1.363 . S
C288 H304 0.931 . S
C289 C288 1.370 . S
C289 C293 1.408 . S
C290 C288 1.363 . S
C290 C291 1.370 . S
C290 C294 1.524 . S
C291 C283 1.503 . S
C291 C290 1.370 . S
C291 C292 1.403 . S
C292 C291 1.403 . S
C292 C293 1.404 . S
C292 C295 1.539 . S
C293 C289 1.408 . S
C293 C292 1.404 . S
C293 H305 0.930 . S
C294 C290 1.524 . S
C294 H306 0.956 . S
C294 H307 0.961 . S
C294 H308 0.961 . S
C295 C292 1.539 . S
C295 H309 0.958 . S
C295 H310 0.961 . S
C295 H311 0.960 . S
H296 C280 0.931 . S
H297 C285 0.929 . S
H298 C286 0.960 . S
H299 C286 0.962 . S
H300 C286 0.960 . S
H301 C287 0.961 . S
H302 C287 0.961 . S
H303 C287 0.961 . S
H304 C288 0.931 . S
H305 C293 0.930 . S
H306 C294 0.956 . S
H307 C294 0.961 . S
H308 C294 0.961 . S
H309 C295 0.958 . S
H310 C295 0.961 . S
H311 C295 0.960 . S
C312 C313 1.391 . S
C312 C314 1.394 . S
C312 H328 0.931 . S
C313 C312 1.391 . S
C313 C317 1.376 . S
C314 C312 1.394 . S
C314 C315 1.369 . S
C314 C318 1.531 . S
C315 C314 1.369 . S
C315 C316 1.410 . S
C315 C323 1.503 . S
C316 C315 1.410 . S
C316 C317 1.392 . S
C316 C319 1.511 . S
C317 C313 1.376 . S
C317 C316 1.392 . S
C317 H329 0.929 . S
C318 C314 1.531 . S
C318 H330 0.960 . S
C318 H331 0.962 . S
C318 H332 0.960 . S
C319 C316 1.511 . S
C319 H333 0.961 . S
C319 H334 0.961 . S
C319 H335 0.961 . S
C320 C321 1.370 . S
C320 C322 1.363 . S
C320 H336 0.931 . S
C321 C320 1.370 . S
C321 C325 1.408 . S
C322 C320 1.363 . S
C322 C323 1.370 . S
C322 C326 1.524 . S
C323 C315 1.503 . S
C323 C322 1.370 . S
C323 C324 1.403 . S
C324 C323 1.403 . S
C324 C325 1.404 . S
C324 C327 1.539 . S
C325 C321 1.408 . S
C325 C324 1.404 . S
C325 H337 0.930 . S
C326 C322 1.524 . S
C326 H338 0.956 . S
C326 H339 0.961 . S
C326 H340 0.961 . S
C327 C324 1.539 . S
C327 H341 0.958 . S
C327 H342 0.961 . S
C327 H343 0.960 . S
H328 C312 0.931 . S
H329 C317 0.929 . S
H330 C318 0.960 . S
H331 C318 0.962 . S
H332 C318 0.960 . S
H333 C319 0.961 . S
H334 C319 0.961 . S
H335 C319 0.961 . S
H336 C320 0.931 . S
H337 C325 0.930 . S
H338 C326 0.956 . S
H339 C326 0.961 . S
H340 C326 0.961 . S
H341 C327 0.958 . S
H342 C327 0.961 . S
H343 C327 0.960 . S
C344 C345 1.391 . S
C344 C346 1.394 . S
C344 H360 0.931 . S
C345 C344 1.391 . S
C345 C349 1.376 . S
C346 C344 1.394 . S
C346 C347 1.369 . S
C346 C350 1.531 1_556 S
C347 C346 1.369 . S
C347 C348 1.410 . S
C347 C355 1.503 1_556 S
C348 C347 1.410 . S
C348 C349 1.392 . S
C348 C351 1.511 . S
C349 C345 1.376 . S
C349 C348 1.392 . S
C349 H361 0.929 . S
C350 C346 1.531 1_554 S
C350 H362 0.960 . S
C350 H363 0.962 . S
C350 H364 0.960 . S
C351 C348 1.511 . S
C351 H365 0.961 . S
C351 H366 0.961 . S
C351 H367 0.961 . S
C352 C353 1.370 . S
C352 C354 1.363 . S
C352 H368 0.931 . S
C353 C352 1.370 . S
C353 C357 1.408 . S
C354 C352 1.363 . S
C354 C355 1.370 . S
C354 C358 1.524 1_554 S
C355 C347 1.503 1_554 S
C355 C354 1.370 . S
C355 C356 1.403 . S
C356 C355 1.403 . S
C356 C357 1.404 . S
C356 C359 1.539 . S
C357 C353 1.408 . S
C357 C356 1.404 . S
C357 H369 0.930 . S
C358 C354 1.524 1_556 S
C358 H370 0.956 . S
C358 H371 0.961 . S
C358 H372 0.961 . S
C359 C356 1.539 . S
C359 H373 0.958 . S
C359 H374 0.961 . S
C359 H375 0.960 . S
H360 C344 0.931 . S
H361 C349 0.929 . S
H362 C350 0.960 . S
H363 C350 0.962 . S
H364 C350 0.960 . S
H365 C351 0.961 . S
H366 C351 0.961 . S
H367 C351 0.961 . S
H368 C352 0.931 . S
H369 C357 0.930 . S
H370 C358 0.956 . S
H371 C358 0.961 . S
H372 C358 0.961 . S
H373 C359 0.958 . S
H374 C359 0.961 . S
H375 C359 0.960 . S
C376 C377 1.391 . S
C376 C378 1.394 . S
C376 H392 0.931 . S
C377 C376 1.391 . S
C377 C381 1.376 . S
C378 C376 1.394 . S
C378 C379 1.369 . S
C378 C382 1.531 . S
C379 C378 1.369 . S
C379 C380 1.410 . S
C379 C387 1.503 1_556 S
C380 C379 1.410 . S
C380 C381 1.392 . S
C380 C383 1.511 1_556 S
C381 C377 1.376 . S
C381 C380 1.392 . S
C381 H393 0.929 . S
C382 C378 1.531 . S
C382 H394 0.960 . S
C382 H395 0.962 . S
C382 H396 0.960 . S
C383 C380 1.511 1_554 S
C383 H397 0.961 . S
C383 H398 0.961 . S
C383 H399 0.961 . S
C384 C385 1.370 . S
C384 C386 1.363 . S
C384 H400 0.931 . S
C385 C384 1.370 . S
C385 C389 1.408 . S
C386 C384 1.363 . S
C386 C387 1.370 . S
C386 C390 1.524 . S
C387 C379 1.503 1_554 S
C387 C386 1.370 . S
C387 C388 1.403 . S
C388 C387 1.403 . S
C388 C389 1.404 . S
C388 C391 1.539 1_554 S
C389 C385 1.408 . S
C389 C388 1.404 . S
C389 H401 0.930 . S
C390 C386 1.524 . S
C390 H402 0.956 . S
C390 H403 0.961 . S
C390 H404 0.961 . S
C391 C388 1.539 1_556 S
C391 H405 0.958 . S
C391 H406 0.961 . S
C391 H407 0.960 . S
H392 C376 0.931 . S
H393 C381 0.929 . S
H394 C382 0.960 . S
H395 C382 0.962 . S
H396 C382 0.960 . S
H397 C383 0.961 . S
H398 C383 0.961 . S
H399 C383 0.961 . S
H400 C384 0.931 . S
H401 C389 0.930 . S
H402 C390 0.956 . S
H403 C390 0.961 . S
H404 C390 0.961 . S
H405 C391 0.958 . S
H406 C391 0.961 . S
H407 C391 0.960 . S
C408 C409 1.391 . S
C408 C410 1.394 . S
C408 H424 0.931 . S
C409 C408 1.391 . S
C409 C413 1.376 . S
C410 C408 1.394 . S
C410 C411 1.369 . S
C410 C414 1.531 1_554 S
C411 C410 1.369 . S
C411 C412 1.410 . S
C411 C419 1.503 1_554 S
C412 C411 1.410 . S
C412 C413 1.392 . S
C412 C415 1.511 . S
C413 C409 1.376 . S
C413 C412 1.392 . S
C413 H425 0.929 . S
C414 C410 1.531 1_556 S
C414 H426 0.960 . S
C414 H427 0.962 1_556 S
C414 H428 0.960 . S
C415 C412 1.511 . S
C415 H429 0.961 . S
C415 H430 0.961 . S
C415 H431 0.961 1_554 S
C416 C417 1.370 . S
C416 C418 1.363 . S
C416 H432 0.931 . S
C417 C416 1.370 . S
C417 C421 1.408 . S
C418 C416 1.363 . S
C418 C419 1.370 . S
C418 C422 1.524 1_556 S
C419 C411 1.503 1_556 S
C419 C418 1.370 . S
C419 C420 1.403 . S
C420 C419 1.403 . S
C420 C421 1.404 . S
C420 C423 1.539 . S
C421 C417 1.408 . S
C421 C420 1.404 . S
C421 H433 0.930 . S
C422 C418 1.524 1_554 S
C422 H434 0.956 . S
C422 H435 0.961 . S
C422 H436 0.961 . S
C423 C420 1.539 . S
C423 H437 0.958 . S
C423 H438 0.961 . S
C423 H439 0.960 . S
H424 C408 0.931 . S
H425 C413 0.929 . S
H426 C414 0.960 . S
H427 C414 0.962 1_554 S
H428 C414 0.960 . S
H429 C415 0.961 . S
H430 C415 0.961 . S
H431 C415 0.961 1_556 S
H432 C416 0.931 . S
H433 C421 0.930 . S
H434 C422 0.956 . S
H435 C422 0.961 . S
H436 C422 0.961 . S
H437 C423 0.958 . S
H438 C423 0.961 . S
H439 C423 0.960 . S
C440 C441 1.391 . S
C440 C442 1.394 . S
C440 H456 0.931 . S
C441 C440 1.391 . S
C441 C445 1.376 . S
C442 C440 1.394 . S
C442 C443 1.369 . S
C442 C446 1.531 1_554 S
C443 C442 1.369 . S
C443 C444 1.410 . S
C443 C451 1.503 1_554 S
C444 C443 1.410 . S
C444 C445 1.392 . S
C444 C447 1.511 . S
C445 C441 1.376 . S
C445 C444 1.392 . S
C445 H457 0.929 . S
C446 C442 1.531 1_556 S
C446 H458 0.960 . S
C446 H459 0.962 . S
C446 H460 0.960 . S
C447 C444 1.511 . S
C447 H461 0.961 . S
C447 H462 0.961 . S
C447 H463 0.961 . S
C448 C449 1.370 . S
C448 C450 1.363 . S
C448 H464 0.931 . S
C449 C448 1.370 . S
C449 C453 1.408 . S
C450 C448 1.363 . S
C450 C451 1.370 . S
C450 C454 1.524 . S
C451 C443 1.503 1_556 S
C451 C450 1.370 . S
C451 C452 1.403 . S
C452 C451 1.403 . S
C452 C453 1.404 . S
C452 C455 1.539 1_556 S
C453 C449 1.408 . S
C453 C452 1.404 . S
C453 H465 0.930 . S
C454 C450 1.524 . S
C454 H466 0.956 . S
C454 H467 0.961 . S
C454 H468 0.961 . S
C455 C452 1.539 1_554 S
C455 H469 0.958 1_554 S
C455 H470 0.961 . S
C455 H471 0.960 . S
H456 C440 0.931 . S
H457 C445 0.929 . S
H458 C446 0.960 . S
H459 C446 0.962 . S
H460 C446 0.960 . S
H461 C447 0.961 . S
H462 C447 0.961 . S
H463 C447 0.961 . S
H464 C448 0.931 . S
H465 C453 0.930 . S
H466 C454 0.956 . S
H467 C454 0.961 . S
H468 C454 0.961 . S
H469 C455 0.958 1_556 S
H470 C455 0.961 . S
H471 C455 0.960 . S
C89 C62 1.580 . S
C97 C15 1.573 . S
C121 C40 1.579 . S
C129 C81 1.563 . S
C153 C74 1.587 . S
C161 C43 1.578 . S
C185 C8 1.582 . S
C193 C65 1.575 . S
C217 C73 2.210 . S
C225 C7 2.213 . S
C249 C54 2.147 . S
C257 C32 2.160 . S
C281 C59 2.193 . S
C289 C37 2.207 . S
C313 C18 2.149 . S
C321 C84 2.146 . S
C345 C87 0.370 . S
C353 C21 0.447 . S
C377 C52 0.368 . S
C385 C30 0.281 . S
C409 C29 0.349 . S
C417 C51 0.458 . S
C441 C10 0.387 . S
C449 C76 0.308 . S
