# Generated by pormake.
# Topology acs-a, (4)-cn, num edge types: 1
# Building blocks:
#     Node 0, Type 0, BuildingBlock: TATPOV_clean_sbu_0, # of connection points: 4
#     Node 1, Type 0, BuildingBlock: TATPOV_clean_sbu_0, # of connection points: 4
#     Node 2, Type 0, BuildingBlock: TATPOV_clean_sbu_0, # of connection points: 4
#     Node 3, Type 0, BuildingBlock: TATPOV_clean_sbu_0, # of connection points: 4
#     Node 4, Type 0, BuildingBlock: TATPOV_clean_sbu_0, # of connection points: 4
#     Node 5, Type 0, BuildingBlock: TATPOV_clean_sbu_0, # of connection points: 4
#     Node 6, Type 0, BuildingBlock: TATPOV_clean_sbu_0, # of connection points: 4
#     Node 7, Type 0, BuildingBlock: TATPOV_clean_sbu_0, # of connection points: 4
#     Node 8, Type 0, BuildingBlock: TATPOV_clean_sbu_0, # of connection points: 4
#     Node 9, Type 0, BuildingBlock: TATPOV_clean_sbu_0, # of connection points: 4
#     Node 10, Type 0, BuildingBlock: TATPOV_clean_sbu_0, # of connection points: 4
#     Node 11, Type 0, BuildingBlock: TATPOV_clean_sbu_0, # of connection points: 4
#     Edge 12, Type (0, 0), BuildingBlock: XUDNAN_clean_linker_2, # of connection points: 2
#     Edge 13, Type (0, 0), BuildingBlock: XUDNAN_clean_linker_2, # of connection points: 2
#     Edge 14, Type (0, 0), BuildingBlock: XUDNAN_clean_linker_2, # of connection points: 2
#     Edge 15, Type (0, 0), BuildingBlock: XUDNAN_clean_linker_2, # of connection points: 2
#     Edge 16, Type (0, 0), BuildingBlock: XUDNAN_clean_linker_2, # of connection points: 2
#     Edge 17, Type (0, 0), BuildingBlock: XUDNAN_clean_linker_2, # of connection points: 2
#     Edge 18, Type (0, 0), BuildingBlock: XUDNAN_clean_linker_2, # of connection points: 2
#     Edge 19, Type (0, 0), BuildingBlock: XUDNAN_clean_linker_2, # of connection points: 2
#     Edge 20, Type (0, 0), BuildingBlock: XUDNAN_clean_linker_2, # of connection points: 2
#     Edge 21, Type (0, 0), BuildingBlock: XUDNAN_clean_linker_2, # of connection points: 2
#     Edge 22, Type (0, 0), BuildingBlock: XUDNAN_clean_linker_2, # of connection points: 2
#     Edge 23, Type (0, 0), BuildingBlock: XUDNAN_clean_linker_2, # of connection points: 2
#     Edge 24, Type (0, 0), BuildingBlock: XUDNAN_clean_linker_2, # of connection points: 2
#     Edge 25, Type (0, 0), BuildingBlock: XUDNAN_clean_linker_2, # of connection points: 2
#     Edge 26, Type (0, 0), BuildingBlock: XUDNAN_clean_linker_2, # of connection points: 2
#     Edge 27, Type (0, 0), BuildingBlock: XUDNAN_clean_linker_2, # of connection points: 2
#     Edge 28, Type (0, 0), BuildingBlock: XUDNAN_clean_linker_2, # of connection points: 2
#     Edge 29, Type (0, 0), BuildingBlock: XUDNAN_clean_linker_2, # of connection points: 2
#     Edge 30, Type (0, 0), BuildingBlock: XUDNAN_clean_linker_2, # of connection points: 2
#     Edge 31, Type (0, 0), BuildingBlock: XUDNAN_clean_linker_2, # of connection points: 2
#     Edge 32, Type (0, 0), BuildingBlock: XUDNAN_clean_linker_2, # of connection points: 2
#     Edge 33, Type (0, 0), BuildingBlock: XUDNAN_clean_linker_2, # of connection points: 2
#     Edge 34, Type (0, 0), BuildingBlock: XUDNAN_clean_linker_2, # of connection points: 2
#     Edge 35, Type (0, 0), BuildingBlock: XUDNAN_clean_linker_2, # of connection points: 2
# Relax obj value: 0.368
# Max RMSD: 0.178
# Mean RMSD: 0.173
data_MOF--net-acs-a--node1-TATPOV_clean_sbu_0--edge1-XUDNAN_clean_linker_2
_symmetry_space_group_name_H-M    P1
_symmetry_Int_Tables_number       1
_symmetry_cell_setting            triclinic
loop_
_symmetry_equiv_pos_as_xyz
'x, y, z'
_cell_length_a     46.189783
_cell_length_b     46.269081
_cell_length_c     45.609491
_cell_angle_alpha  90.064407
_cell_angle_beta   90.16882
_cell_angle_gamma 115.09649
loop_
_atom_site_label
_atom_site_type_symbol
_atom_site_fract_x
_atom_site_fract_y
_atom_site_fract_z
_atom_type_partial_charge
Zn0 Zn 0.70397 0.19718 0.13535 0.0
Zn1 Zn 0.65148 0.15377 0.11411 0.0
O2 O 0.68833 0.15619 0.08654 0.0
O3 O 0.73289 0.18782 0.10846 0.0
O4 O 0.61314 0.11825 0.09517 0.0
O5 O 0.69491 0.17917 0.1754 0.0
O6 O 0.65013 0.14152 0.15846 0.0
C7 C 0.71883 0.16986 0.0871 0.0
C8 C 0.66043 0.2226 0.11425 0.0
O9 O 0.64239 0.1933 0.10929 0.0
O10 O 0.68832 0.23057 0.1245 0.0
C11 C 0.60656 0.12303 0.06902 0.0
O12 O 0.62422 0.15047 0.05653 0.0
C13 C 0.66902 0.15487 0.1799 0.0
Zn14 Zn 0.40575 0.58636 0.6529 0.0
Zn15 Zn 0.40847 0.55406 0.60814 0.0
O16 O 0.4355 0.60023 0.59427 0.0
O17 O 0.43791 0.62668 0.63493 0.0
O18 O 0.41109 0.52807 0.57401 0.0
O19 O 0.42058 0.56257 0.68048 0.0
O20 O 0.42877 0.53827 0.642 0.0
C21 C 0.44594 0.62646 0.60845 0.0
C22 C 0.34454 0.55448 0.62672 0.0
O23 O 0.35995 0.54366 0.61018 0.0
O24 O 0.35907 0.57384 0.64708 0.0
C25 C 0.43791 0.52875 0.56672 0.0
O26 O 0.46358 0.54662 0.58183 0.0
C27 C 0.4306 0.54346 0.66954 0.0
Zn28 Zn 0.79352 0.3659 0.04033 0.0
Zn29 Zn 0.85472 0.39882 0.02861 0.0
O30 O 0.83349 0.42862 0.01658 0.0
O31 O 0.78248 0.40116 0.02678 0.0
O32 O 0.90017 0.42509 0.01705 0.0
O33 O 0.80685 0.36347 0.08282 0.0
O34 O 0.85722 0.39434 0.07291 0.0
C35 C 0.80497 0.42618 0.01714 0.0
C36 C 0.81611 0.33207 0.00176 0.0
O37 O 0.84283 0.35546 0.00744 0.0
O38 O 0.79049 0.33187 0.01168 0.0
C39 C 0.92425 0.42269 0.02832 0.0
O40 O 0.91992 0.40102 0.04851 0.0
C41 C 0.83566 0.37833 0.09123 0.0
Zn42 Zn 0.35415 0.78225 0.62321 0.0
Zn43 Zn 0.38035 0.83943 0.6016 0.0
O44 O 0.33603 0.82095 0.58113 0.0
O45 O 0.31822 0.77048 0.59392 0.0
O46 O 0.40292 0.88252 0.5832 0.0
O47 O 0.35239 0.79966 0.66322 0.0
O48 O 0.38076 0.84806 0.64648 0.0
C49 C 0.31522 0.79213 0.57905 0.0
C50 C 0.41249 0.79363 0.59597 0.0
O51 O 0.41034 0.81904 0.58825 0.0
O52 O 0.39201 0.77402 0.61296 0.0
C53 C 0.4063 0.88186 0.5556 0.0
O54 O 0.39317 0.85428 0.54188 0.0
C55 C 0.36761 0.82932 0.66787 0.0
Zn56 Zn 0.65324 0.48378 0.12895 0.0
Zn57 Zn 0.60907 0.46978 0.08884 0.0
O58 O 0.60597 0.42468 0.09097 0.0
O59 O 0.64469 0.43678 0.12367 0.0
O60 O 0.57711 0.47114 0.05959 0.0
O61 O 0.62974 0.49614 0.16006 0.0
O62 O 0.59179 0.48059 0.12681 0.0
C63 C 0.62405 0.41652 0.10679 0.0
C64 C 0.68131 0.51459 0.07786 0.0
O65 O 0.65243 0.49818 0.06987 0.0
O66 O 0.68849 0.51591 0.10478 0.0
C67 C 0.54944 0.44932 0.05426 0.0
O68 O 0.54025 0.42137 0.06696 0.0
C69 C 0.6014 0.49039 0.15269 0.0
Zn70 Zn 0.12215 0.62419 0.61775 0.0
Zn71 Zn 0.08609 0.5822 0.58244 0.0
O72 O 0.12099 0.56572 0.58869 0.0
O73 O 0.1519 0.60267 0.61943 0.0
O74 O 0.05508 0.55106 0.55341 0.0
O75 O 0.09031 0.61645 0.64819 0.0
O76 O 0.05767 0.57746 0.62012 0.0
C77 C 0.14607 0.5776 0.60467 0.0
C78 C 0.12142 0.6543 0.56607 0.0
O79 O 0.10492 0.62523 0.55871 0.0
O80 O 0.13124 0.66112 0.5921 0.0
C81 C 0.06371 0.55083 0.52697 0.0
O82 O 0.09292 0.57036 0.51935 0.0
C83 C 0.06327 0.59371 0.64385 0.0
Zn84 Zn 0.80424 0.29706 0.34556 0.0
Zn85 Zn 0.84711 0.34988 0.3661 0.0
O86 O 0.84572 0.31345 0.39368 0.0
O87 O 0.8161 0.26862 0.37112 0.0
O88 O 0.88482 0.38821 0.3824 0.0
O89 O 0.81932 0.30579 0.30452 0.0
O90 O 0.85695 0.35064 0.32117 0.0
C91 C 0.83365 0.28303 0.3926 0.0
C92 C 0.77847 0.34007 0.36876 0.0
O93 O 0.80779 0.35897 0.37278 0.0
O94 O 0.77102 0.31225 0.35866 0.0
C95 C 0.88712 0.39458 0.4097 0.0
O96 O 0.86392 0.37664 0.42721 0.0
C97 C 0.84316 0.33195 0.29976 0.0
Zn98 Zn 0.37254 0.81436 0.93572 0.0
Zn99 Zn 0.40568 0.8748 0.94443 0.0
O100 O 0.43393 0.85245 0.95972 0.0
O101 O 0.40379 0.80113 0.95418 0.0
O102 O 0.43277 0.92078 0.95561 0.0
O103 O 0.37373 0.82334 0.89207 0.0
O104 O 0.40282 0.87469 0.89922 0.0
C105 C 0.42968 0.82348 0.96259 0.0
C106 C 0.33678 0.83881 0.9683 0.0
O107 O 0.36112 0.86497 0.96327 0.0
O108 O 0.33626 0.81266 0.95968 0.0
C109 C 0.44318 0.92713 0.9818 0.0
O110 O 0.43511 0.90373 0.00084 0.0
C111 C 0.38836 0.85129 0.88184 0.0
Zn112 Zn 0.51364 0.33915 0.34727 0.0
Zn113 Zn 0.52643 0.38349 0.38675 0.0
O114 O 0.57231 0.38929 0.38702 0.0
O115 O 0.56146 0.35017 0.35501 0.0
O116 O 0.51914 0.41196 0.41628 0.0
O117 O 0.50038 0.36166 0.31579 0.0
O118 O 0.51733 0.4008 0.34786 0.0
C119 C 0.5812 0.37129 0.37197 0.0
C120 C 0.48324 0.31013 0.39684 0.0
O121 O 0.49983 0.33905 0.40437 0.0
O122 O 0.48103 0.30265 0.37 0.0
C123 C 0.48998 0.4074 0.41533 0.0
O124 O 0.47082 0.38653 0.39642 0.0
C125 C 0.50673 0.39025 0.32241 0.0
Zn126 Zn 0.16543 0.67654 0.84971 0.0
Zn127 Zn 0.13308 0.63437 0.89113 0.0
O128 O 0.14523 0.67792 0.91152 0.0
O129 O 0.17034 0.71267 0.87704 0.0
O130 O 0.10596 0.60253 0.92075 0.0
O131 O 0.12734 0.65826 0.82236 0.0
O132 O 0.10233 0.62189 0.85565 0.0
C133 C 0.16004 0.70678 0.90308 0.0
C134 C 0.19606 0.63613 0.8691 0.0
O135 O 0.17175 0.62433 0.88574 0.0
O136 O 0.1989 0.6583 0.85138 0.0
C137 C 0.11558 0.58906 0.9403 0.0
O138 O 0.14627 0.5966 0.94299 0.0
C139 C 0.10302 0.63377 0.83037 0.0
Zn140 Zn 0.63631 0.20343 0.43907 0.0
Zn141 Zn 0.605 0.14254 0.45146 0.0
O142 O 0.57396 0.16247 0.46259 0.0
O143 O 0.60061 0.21358 0.45301 0.0
O144 O 0.57922 0.09682 0.46192 0.0
O145 O 0.63856 0.19044 0.39651 0.0
O146 O 0.6098 0.1399 0.40725 0.0
C147 C 0.57556 0.19063 0.46209 0.0
C148 C 0.67188 0.18259 0.47766 0.0
O149 O 0.64849 0.15553 0.47309 0.0
O150 O 0.67129 0.20755 0.46695 0.0
C151 C 0.56566 0.08889 0.48668 0.0
O152 O 0.57045 0.11104 0.50657 0.0
C153 C 0.62469 0.16145 0.38856 0.0
Zn154 Zn 0.46729 0.64898 0.86213 0.0
Zn155 Zn 0.45461 0.60713 0.9049 0.0
O156 O 0.40887 0.60162 0.89812 0.0
O157 O 0.41907 0.63727 0.86299 0.0
O158 O 0.45388 0.57697 0.93679 0.0
O159 O 0.48494 0.62555 0.83585 0.0
O160 O 0.47109 0.58928 0.87046 0.0
C161 C 0.39926 0.6167 0.88004 0.0
C162 C 0.49686 0.67986 0.91404 0.0
O163 O 0.48141 0.65147 0.92346 0.0
O164 O 0.49692 0.68551 0.88691 0.0
C165 C 0.43913 0.54683 0.9341 0.0
O166 O 0.42067 0.53481 0.91112 0.0
C167 C 0.48254 0.59888 0.8451 0.0
H168 H 0.67011 0.19516 0.34849 0.0
H169 H 0.58391 0.1077 0.35911 0.0
H170 H 0.58728 0.09372 0.30715 0.0
H171 H 0.65495 0.21369 0.27677 0.0
H172 H 0.69605 0.22858 0.2653 0.0
H173 H 0.68679 0.23069 0.30329 0.0
H174 H 0.7201 0.19962 0.3175 0.0
H175 H 0.72924 0.19719 0.27946 0.0
H176 H 0.71085 0.1613 0.30092 0.0
H177 H 0.59838 0.09195 0.25225 0.0
H178 H 0.61726 0.1019 0.20075 0.0
H179 H 0.69801 0.18835 0.22876 0.0
C180 C 0.65193 0.17304 0.33992 0.0
C181 C 0.62662 0.15263 0.3577 0.0
C182 C 0.60352 0.1237 0.34579 0.0
C183 C 0.60525 0.11556 0.31634 0.0
C184 C 0.63058 0.13631 0.29935 0.0
C185 C 0.65366 0.1643 0.31089 0.0
C186 C 0.6784 0.1827 0.28827 0.0
C187 C 0.67906 0.21586 0.2831 0.0
C188 C 0.71161 0.18534 0.29707 0.0
C189 C 0.66528 0.16113 0.26195 0.0
C190 C 0.63768 0.13448 0.26857 0.0
C191 C 0.62029 0.11248 0.24695 0.0
C192 C 0.63118 0.11826 0.21778 0.0
C193 C 0.65932 0.14565 0.21068 0.0
C194 C 0.67674 0.16682 0.23335 0.0
H195 H 0.49121 0.57582 0.6849 0.0
H196 H 0.40782 0.48826 0.70073 0.0
H197 H 0.42836 0.48451 0.74975 0.0
H198 H 0.54924 0.56166 0.74441 0.0
H199 H 0.56475 0.60352 0.75332 0.0
H200 H 0.55478 0.5904 0.71585 0.0
H201 H 0.51833 0.61998 0.71345 0.0
H202 H 0.52755 0.63259 0.75057 0.0
H203 H 0.48638 0.61032 0.73967 0.0
H204 H 0.44439 0.50043 0.80014 0.0
H205 H 0.45143 0.53388 0.8439 0.0
H206 H 0.52233 0.61471 0.79835 0.0
C207 C 0.47889 0.55463 0.69802 0.0
C208 C 0.44859 0.53192 0.68908 0.0
C209 C 0.43165 0.50526 0.70694 0.0
C210 C 0.4432 0.50316 0.73497 0.0
C211 C 0.47149 0.52811 0.74481 0.0
C212 C 0.4896 0.55321 0.72648 0.0
C213 C 0.51345 0.5812 0.74387 0.0
C214 C 0.54758 0.58436 0.73909 0.0
C215 C 0.51118 0.61279 0.73647 0.0
C216 C 0.50242 0.57009 0.77474 0.0
C217 C 0.47991 0.53857 0.775 0.0
C218 C 0.46267 0.52472 0.80031 0.0
C219 C 0.46679 0.54394 0.82518 0.0
C220 C 0.4873 0.57688 0.82422 0.0
C221 C 0.50675 0.58947 0.79946 0.0
H222 H 0.80122 0.33318 0.13136 0.0
H223 H 0.88974 0.41835 0.12085 0.0
H224 H 0.9036 0.4145 0.17276 0.0
H225 H 0.78332 0.34865 0.20342 0.0
H226 H 0.76776 0.30753 0.21476 0.0
H227 H 0.76563 0.31708 0.17683 0.0
H228 H 0.79568 0.28297 0.1622 0.0
H229 H 0.7981 0.2735 0.20016 0.0
H230 H 0.834 0.29137 0.17859 0.0
H231 H 0.9056 0.40281 0.22738 0.0
H232 H 0.89612 0.38339 0.27872 0.0
H233 H 0.80811 0.30428 0.25111 0.0
C234 C 0.82353 0.35106 0.13994 0.0
C235 C 0.84429 0.37621 0.12216 0.0
C236 C 0.87345 0.39889 0.13414 0.0
C237 C 0.88154 0.39688 0.16356 0.0
C238 C 0.86046 0.37174 0.18052 0.0
C239 C 0.83219 0.34911 0.16899 0.0
C240 C 0.81352 0.32444 0.19159 0.0
C241 C 0.78063 0.32445 0.19696 0.0
C242 C 0.81014 0.2911 0.18259 0.0
C243 C 0.83534 0.33705 0.21787 0.0
C244 C 0.8623 0.36436 0.21123 0.0
C245 C 0.8848 0.38117 0.23272 0.0
C246 C 0.87927 0.36998 0.26179 0.0
C247 C 0.85162 0.34211 0.26895 0.0
C248 C 0.82983 0.32532 0.24643 0.0
H249 H 0.35584 0.80657 0.84039 0.0
H250 H 0.4202 0.90679 0.85035 0.0
H251 H 0.41979 0.9135 0.79644 0.0
H252 H 0.39036 0.79244 0.77623 0.0
H253 H 0.35272 0.76541 0.7605 0.0
H254 H 0.35723 0.76937 0.79968 0.0
H255 H 0.30861 0.7834 0.8025 0.0
H256 H 0.30397 0.77957 0.76326 0.0
H257 H 0.30849 0.81606 0.78106 0.0
H258 H 0.41367 0.90797 0.74035 0.0
H259 H 0.40314 0.89059 0.68842 0.0
H260 H 0.3423 0.7944 0.71711 0.0
C261 C 0.3698 0.83005 0.83139 0.0
C262 C 0.3881 0.85616 0.84968 0.0
C263 C 0.40597 0.88641 0.83681 0.0
C264 C 0.40583 0.89046 0.80622 0.0
C265 C 0.38755 0.86407 0.78886 0.0
C266 C 0.36983 0.83449 0.80113 0.0
C267 C 0.35279 0.80961 0.77798 0.0
C268 C 0.36396 0.78263 0.77864 0.0
C269 C 0.3163 0.79639 0.78141 0.0
C270 C 0.364 0.8296 0.7506 0.0
C271 C 0.3839 0.861 0.75715 0.0
C272 C 0.39792 0.88348 0.73505 0.0
C273 C 0.39175 0.87342 0.70561 0.0
C274 C 0.37182 0.84116 0.69858 0.0
C275 C 0.35752 0.81929 0.72156 0.0
H276 H 0.55404 0.44861 0.31329 0.0
H277 H 0.46412 0.38032 0.27758 0.0
H278 H 0.4738 0.41236 0.23234 0.0
H279 H 0.55989 0.52352 0.27015 0.0
H280 H 0.6021 0.53548 0.26505 0.0
H281 H 0.58294 0.51545 0.29828 0.0
H282 H 0.60426 0.47265 0.28942 0.0
H283 H 0.62324 0.49234 0.2564 0.0
H284 H 0.59519 0.45088 0.25524 0.0
H285 H 0.49807 0.44304 0.18796 0.0
H286 H 0.53624 0.46363 0.14743 0.0
H287 H 0.61321 0.50955 0.20996 0.0
C288 C 0.53562 0.44155 0.29656 0.0
C289 C 0.50798 0.41262 0.29903 0.0
C290 C 0.48511 0.40285 0.27619 0.0
C291 C 0.49039 0.42104 0.25053 0.0
C292 C 0.51887 0.44864 0.24793 0.0
C293 C 0.54121 0.45885 0.27042 0.0
C294 C 0.5729 0.48421 0.25992 0.0
C295 C 0.57985 0.51659 0.2742 0.0
C296 C 0.60047 0.47439 0.26555 0.0
C297 C 0.56584 0.4846 0.22752 0.0
C298 C 0.53408 0.46525 0.22134 0.0
C299 C 0.52279 0.45877 0.1926 0.0
C300 C 0.54475 0.47063 0.16963 0.0
C301 C 0.57781 0.488 0.17557 0.0
C302 C 0.58805 0.49658 0.20479 0.0
H303 H 0.04642 0.63351 0.67386 0.0
H304 H 0.03494 0.53604 0.67128 0.0
H305 H 0.02598 0.53173 0.72467 0.0
H306 H 0.09704 0.65583 0.72277 0.0
H307 H 0.08653 0.68347 0.74303 0.0
H308 H 0.07449 0.67496 0.70563 0.0
H309 H 0.0152 0.65713 0.71954 0.0
H310 H 0.02707 0.66655 0.75735 0.0
H311 H 0.99741 0.6274 0.74753 0.0
H312 H 0.03851 0.54367 0.77733 0.0
H313 H 0.07013 0.5696 0.82141 0.0
H314 H 0.07971 0.66139 0.79008 0.0
C315 C 0.03946 0.61059 0.68443 0.0
C316 C 0.04097 0.58505 0.66869 0.0
C317 C 0.03304 0.5556 0.68289 0.0
C318 C 0.02825 0.55315 0.71339 0.0
C319 C 0.03123 0.58028 0.7291 0.0
C320 C 0.03591 0.6084 0.71488 0.0
C321 C 0.0466 0.63629 0.73611 0.0
C322 C 0.07802 0.66419 0.72629 0.0
C323 C 0.01997 0.64749 0.74039 0.0
C324 C 0.05124 0.62047 0.76357 0.0
C325 C 0.04046 0.58785 0.7597 0.0
C326 C 0.04606 0.56897 0.78086 0.0
C327 C 0.06411 0.58388 0.80584 0.0
C328 C 0.07721 0.61744 0.80892 0.0
C329 C 0.06956 0.63564 0.78818 0.0
H330 H 0.56884 0.06112 0.08573 0.0
H331 H 0.5855 0.12788 0.014 0.0
H332 H 0.54392 0.08573 0.98473 0.0
H333 H 0.55749 0.99389 0.04165 0.0
H334 H 0.52654 0.96555 0.06426 0.0
H335 H 0.55634 0.00143 0.08032 0.0
H336 H 0.5118 0.01601 0.10045 0.0
H337 H 0.48184 0.98012 0.08447 0.0
H338 H 0.48245 0.01832 0.07558 0.0
H339 H 0.50225 0.03575 0.96227 0.0
H340 H 0.46337 0.98143 0.94841 0.0
H341 H 0.47369 0.94722 0.03469 0.0
C342 C 0.56352 0.06698 0.06399 0.0
C343 C 0.58044 0.09788 0.05222 0.0
C344 C 0.57289 0.10444 0.02355 0.0
C345 C 0.54926 0.08065 0.00673 0.0
C346 C 0.53327 0.05039 0.01885 0.0
C347 C 0.53999 0.04348 0.04684 0.0
C348 C 0.52002 0.00873 0.0543 0.0
C349 C 0.54138 0.99139 0.06049 0.0
C350 C 0.4977 0.00562 0.08024 0.0
C351 C 0.50133 0.99714 0.02601 0.0
C352 C 0.50922 0.02157 0.00589 0.0
C353 C 0.49572 0.01646 0.97791 0.0
C354 C 0.47367 0.98551 0.97023 0.0
C355 C 0.46538 0.96004 0.99045 0.0
C356 C 0.47932 0.96616 0.01876 0.0
H357 H 0.49084 0.52167 0.54739 0.0
H358 H 0.38975 0.49196 0.52962 0.0
H359 H 0.39285 0.45899 0.48835 0.0
H360 H 0.51579 0.52601 0.47157 0.0
H361 H 0.54498 0.51068 0.47912 0.0
H362 H 0.5352 0.53277 0.5069 0.0
H363 H 0.52106 0.48547 0.54291 0.0
H364 H 0.53077 0.46323 0.51526 0.0
H365 H 0.49192 0.44637 0.53221 0.0
H366 H 0.40626 0.42868 0.44996 0.0
H367 H 0.429 0.40204 0.41658 0.0
H368 H 0.5216 0.45087 0.45899 0.0
C369 C 0.46938 0.50836 0.53474 0.0
C370 C 0.44004 0.50942 0.54172 0.0
C371 C 0.41249 0.49153 0.5247 0.0
C372 C 0.414 0.47276 0.50118 0.0
C373 C 0.44323 0.47215 0.49497 0.0
C374 C 0.47044 0.48942 0.51119 0.0
C375 C 0.49867 0.48399 0.50015 0.0
C376 C 0.52523 0.51522 0.48876 0.0
C377 C 0.51134 0.46886 0.52406 0.0
C378 C 0.48295 0.46075 0.47533 0.0
C379 C 0.451 0.45442 0.47272 0.0
C380 C 0.43126 0.43348 0.4517 0.0
C381 C 0.44446 0.41845 0.43286 0.0
C382 C 0.47711 0.42435 0.43516 0.0
C383 C 0.4966 0.44592 0.45665 0.0
H384 H 0.05081 0.56822 0.93898 0.0
H385 H 0.12647 0.55209 0.98234 0.0
H386 H 0.08581 0.50772 0.01044 0.0
H387 H 0.99824 0.55151 0.0013 0.0
H388 H 0.96266 0.53238 0.97926 0.0
H389 H 0.99793 0.56339 0.96372 0.0
H390 H 0.99693 0.52504 0.92181 0.0
H391 H 0.96179 0.49386 0.93732 0.0
H392 H 0.99689 0.48708 0.93078 0.0
H393 H 0.03597 0.46378 0.0327 0.0
H394 H 0.9818 0.4252 0.04763 0.0
H395 H 0.94025 0.47108 0.9887 0.0
C396 C 0.05899 0.55559 0.95452 0.0
C397 C 0.09184 0.56364 0.95848 0.0
C398 C 0.1014 0.54637 0.97899 0.0
C399 C 0.0785 0.52113 0.99502 0.0
C400 C 0.04624 0.5136 0.99025 0.0
C401 C 0.03659 0.53047 0.97055 0.0
C402 C 0.00062 0.5175 0.96888 0.0
C403 C 0.9892 0.5427 0.9789 0.0
C404 C 0.98835 0.50513 0.93786 0.0
C405 C 0.99139 0.49048 0.99058 0.0
C406 C 0.01792 0.48854 0.00279 0.0
C407 C 0.01504 0.46516 0.02332 0.0
C408 C 0.98421 0.44333 0.03162 0.0
C409 C 0.95679 0.44509 0.01933 0.0
C410 C 0.96066 0.469 0.99852 0.0
H411 H 0.53396 0.0628 0.5377 0.0
H412 H 0.54455 0.03974 0.44716 0.0
H413 H 0.50343 0.98496 0.45466 0.0
H414 H 0.52312 0.98684 0.56785 0.0
H415 H 0.49425 0.98623 0.59463 0.0
H416 H 0.52446 0.02376 0.58206 0.0
H417 H 0.48033 0.04154 0.567 0.0
H418 H 0.44996 0.00393 0.57927 0.0
H419 H 0.44908 0.01699 0.54219 0.0
H420 H 0.46071 0.93327 0.47143 0.0
H421 H 0.42172 0.8864 0.49753 0.0
H422 H 0.43935 0.94256 0.57748 0.0
C423 C 0.52773 0.04621 0.51948 0.0
C424 C 0.54244 0.05558 0.49183 0.0
C425 C 0.53366 0.03311 0.46857 0.0
C426 C 0.51023 0.00197 0.47255 0.0
C427 C 0.49592 0.99364 0.49995 0.0
C428 C 0.50449 0.01495 0.5231 0.0
C429 C 0.48579 -0.00035 0.55046 0.0
C430 C 0.50825 -0.00092 0.5752 0.0
C431 C 0.46506 0.01654 0.56029 0.0
C432 C 0.46541 0.9664 0.53902 0.0
C433 C 0.47149 0.96356 0.50978 0.0
C434 C 0.45576 0.93514 0.49436 0.0
C435 C 0.43359 0.90868 0.50938 0.0
C436 C 0.42751 0.91079 0.53956 0.0
C437 C 0.44341 0.9402 0.5544 0.0
H438 H 0.48859 0.56496 0.97314 0.0
H439 H 0.40894 0.48146 0.93865 0.0
H440 H 0.42689 0.44669 0.96749 0.0
H441 H 0.54499 0.53367 0.96813 0.0
H442 H 0.56628 0.55248 0.00111 0.0
H443 H 0.54499 0.57064 0.98069 0.0
H444 H 0.51258 0.57063 0.02702 0.0
H445 H 0.53407 0.55282 0.04772 0.0
H446 H 0.491 0.53382 0.04648 0.0
H447 H 0.45582 0.42114 -0.00136 0.0
H448 H 0.49323 0.40748 0.02848 0.0
H449 H 0.55467 0.50833 0.03946 0.0
C450 C 0.47442 0.53939 0.9721 0.0
C451 C 0.44718 0.52592 0.95384 0.0
C452 C 0.42978 0.4923 0.95266 0.0
C453 C 0.43981 0.47238 0.96895 0.0
C454 C 0.46732 0.4865 0.98614 0.0
C455 C 0.4843 0.51928 0.98781 0.0
C456 C 0.51422 0.52867 0.00616 0.0
C457 C 0.54439 0.54746 0.98793 0.0
C458 C 0.51287 0.5476 0.03347 0.0
C459 C 0.51176 0.49608 0.01429 0.0
C460 C 0.4844 0.47197 0.00292 0.0
C461 C 0.47727 0.43986 0.00768 0.0
C462 C 0.49865 0.43232 0.02458 0.0
C463 C 0.52697 0.45681 0.03607 0.0
C464 C 0.53342 0.48901 0.03074 0.0
H465 H 0.89936 0.41467 0.46703 0.0
H466 H 0.94117 0.43351 0.38003 0.0
H467 H 0.99066 0.47549 0.4006 0.0
H468 H 0.93382 0.49684 0.49194 0.0
H469 H 0.94023 0.48687 0.52885 0.0
H470 H 0.9079 0.45867 0.50718 0.0
H471 H 0.92967 0.41611 0.51558 0.0
H472 H 0.96213 0.44421 0.53716 0.0
H473 H 0.97041 0.42511 0.50589 0.0
H474 H 0.03615 0.51437 0.43078 0.0
H475 H 0.07382 0.54871 0.46811 0.0
H476 H 0.00227 0.50505 0.53551 0.0
C477 C 0.91884 0.42771 0.45224 0.0
C478 C 0.91633 0.42074 0.42187 0.0
C479 C 0.94245 0.4384 0.40334 0.0
C480 C 0.9707 0.46228 0.41483 0.0
C481 C 0.97246 0.46833 0.44488 0.0
C482 C 0.94718 0.45168 0.46332 0.0
C483 C 0.9553 0.46278 0.49482 0.0
C484 C 0.93299 0.47715 0.50637 0.0
C485 C 0.95432 0.43542 0.51452 0.0
C486 C 0.98916 0.48817 0.49123 0.0
C487 C 0.9986 0.49093 0.46225 0.0
C488 C 0.02898 0.5125 0.45352 0.0
C489 C 0.05024 0.53187 0.47494 0.0
C490 C 0.04105 0.52967 0.50478 0.0
C491 C 0.01004 0.50742 0.5129 0.0
H492 H 0.69044 0.28552 0.12934 0.0
H493 H 0.60425 0.21611 0.0878 0.0
H494 H 0.58513 0.2582 0.08068 0.0
H495 H 0.65345 0.32686 0.1686 0.0
H496 H 0.6864 0.36548 0.16395 0.0
H497 H 0.69356 0.33016 0.16453 0.0
H498 H 0.72135 0.3451 0.11395 0.0
H499 H 0.71443 0.38057 0.1132 0.0
H500 H 0.70036 0.35226 0.08345 0.0
H501 H 0.57583 0.3089 0.0783 0.0
H502 H 0.57678 0.36279 0.08195 0.0
H503 H 0.66849 0.39696 0.12654 0.0
C504 C 0.66761 0.27907 0.11856 0.0
C505 C 0.64888 0.24751 0.10904 0.0
C506 C 0.61903 0.24015 0.09525 0.0
C507 C 0.60799 0.2639 0.0911 0.0
C508 C 0.62706 0.29476 0.10096 0.0
C509 C 0.65622 0.30228 0.11444 0.0
C510 C 0.672 0.33689 0.12371 0.0
C511 C 0.6766 0.34001 0.15718 0.0
C512 C 0.70391 0.35475 0.10761 0.0
C513 C 0.6471 0.34777 0.11353 0.0
C514 C 0.62142 0.32333 0.10024 0.0
C515 C 0.59578 0.32817 0.08875 0.0
C516 C 0.59651 0.3588 0.09092 0.0
C517 C 0.62255 0.384 0.10474 0.0
C518 C 0.64802 0.37817 0.11615 0.0
H519 H 0.30687 0.57447 0.65876 0.0
H520 H 0.30538 0.51892 0.58158 0.0
H521 H 0.25071 0.5132 0.56992 0.0
H522 H 0.22158 0.53273 0.67764 0.0
H523 H 0.21993 0.56942 0.68868 0.0
H524 H 0.25656 0.56482 0.6928 0.0
H525 H 0.28651 0.61618 0.66229 0.0
H526 H 0.25005 0.62085 0.65797 0.0
H527 H 0.27215 0.61899 0.62608 0.0
H528 H 0.19774 0.51873 0.56446 0.0
H529 H 0.1536 0.5359 0.56527 0.0
H530 H 0.19234 0.58858 0.64561 0.0
C531 C 0.29492 0.56044 0.63971 0.0
C532 C 0.31043 0.54701 0.62116 0.0
C533 C 0.29391 0.52923 0.59627 0.0
C534 C 0.26284 0.52586 0.58949 0.0
C535 C 0.24867 0.54027 0.60791 0.0
C536 C 0.26428 0.55707 0.63261 0.0
C537 C 0.24557 0.5728 0.64761 0.0
C538 C 0.2353 0.55911 0.67851 0.0
C539 C 0.26471 0.60935 0.64851 0.0
C540 C 0.21723 0.56297 0.62716 0.0
C541 C 0.219 0.54385 0.60457 0.0
C542 C 0.196 0.53337 0.58228 0.0
C543 C 0.17099 0.54317 0.58292 0.0
C544 C 0.16954 0.56358 0.60549 0.0
C545 C 0.1927 0.57295 0.62806 0.0
H546 H 0.84913 0.30148 0.02335 0.0
H547 H 0.77648 0.29299 0.96007 0.0
H548 H 0.7544 0.23465 0.96305 0.0
H549 H 0.84262 0.21061 0.01114 0.0
H550 H 0.84816 0.20915 0.05015 0.0
H551 H 0.87032 0.24557 0.03024 0.0
H552 H 0.84943 0.27579 0.06576 0.0
H553 H 0.82734 0.23997 0.08533 0.0
H554 H 0.80685 0.2623 0.07033 0.0
H555 H 0.72614 0.18516 0.98804 0.0
H556 H 0.69623 0.15584 0.03083 0.0
H557 H 0.78324 0.19242 0.08225 0.0
C558 C 0.83023 0.28695 0.00848 0.0
C559 C 0.81465 0.30137 0.99133 0.0
C560 C 0.78906 0.28223 0.97295 0.0
C561 C 0.77632 0.24891 0.97466 0.0
C562 C 0.78915 0.23508 0.99517 0.0
C563 C 0.81635 0.25358 0.01131 0.0
C564 C 0.82005 0.23513 0.03747 0.0
C565 C 0.84687 0.22447 0.0319 0.0
C566 C 0.82615 0.25443 0.06636 0.0
C567 C 0.78773 0.20658 0.03694 0.0
C568 C 0.77146 0.20552 0.01106 0.0
C569 C 0.73898 0.18522 0.00794 0.0
C570 C 0.722 0.16845 0.03252 0.0
C571 C 0.73745 0.17259 0.06001 0.0
C572 C 0.77108 0.18909 0.06136 0.0
H573 H 0.45987 0.78907 0.62644 0.0
H574 H 0.41733 0.77563 0.54033 0.0
H575 H 0.44262 0.74003 0.52708 0.0
H576 H 0.53506 0.7709 0.60153 0.0
H577 H 0.53239 0.75176 0.63645 0.0
H578 H 0.52531 0.78715 0.63398 0.0
H579 H 0.4705 0.75697 0.65895 0.0
H580 H 0.47715 0.72185 0.66126 0.0
H581 H 0.44183 0.72023 0.6429 0.0
H582 H 0.45145 0.69187 0.53062 0.0
H583 H 0.44333 0.63944 0.55012 0.0
H584 H 0.48296 0.68311 0.63347 0.0
C585 C 0.45808 0.78034 0.60417 0.0
C586 C 0.43735 0.78518 0.58422 0.0
C587 C 0.43392 0.77269 0.55557 0.0
C588 C 0.44825 0.75241 0.54793 0.0
C589 C 0.46631 0.74544 0.56909 0.0
C590 C 0.47231 0.76008 0.59644 0.0
C591 C 0.48608 0.74378 0.61741 0.0
C592 C 0.52184 0.76464 0.62263 0.0
C593 C 0.46773 0.73516 0.64676 0.0
C594 C 0.48136 0.71455 0.59949 0.0
C595 C 0.47187 0.71683 0.57105 0.0
C596 C 0.46003 0.69029 0.55239 0.0
C597 C 0.45546 0.66044 0.56364 0.0
C598 C 0.46229 0.65741 0.59339 0.0
C599 C 0.47777 0.6851 0.6106 0.0
H600 H 0.74535 0.53672 0.08801 0.0
H601 H 0.67504 0.50848 0.01809 0.0
H602 H 0.71201 0.49768 0.98623 0.0
H603 H 0.82181 0.56333 0.03601 0.0
H604 H 0.83982 0.54707 0.06253 0.0
H605 H 0.81537 0.56653 0.07461 0.0
H606 H 0.78049 0.51605 0.10411 0.0
H607 H 0.80411 0.4963 0.09183 0.0
H608 H 0.76156 0.47821 0.08532 0.0
H609 H 0.74324 0.46908 0.97113 0.0
H610 H 0.769 0.43201 0.97236 0.0
H611 H 0.82185 0.47909 0.04992 0.0
C612 C 0.73858 0.53023 0.06538 0.0
C613 C 0.70712 0.52294 0.05576 0.0
C614 C 0.69894 0.51414 0.0261 0.0
C615 C 0.71993 0.50791 0.00775 0.0
C616 C 0.74929 0.51131 0.01913 0.0
C617 C 0.75921 0.52346 0.04702 0.0
C618 C 0.78845 0.51872 0.0564 0.0
C619 C 0.81813 0.55083 0.05743 0.0
C620 C 0.78327 0.50125 0.08611 0.0
C621 C 0.79071 0.49829 0.03132 0.0
C622 C 0.7687 0.4953 0.00946 0.0
C623 C 0.76167 0.47248 0.98723 0.0
C624 C 0.77634 0.45145 0.98804 0.0
C625 C 0.7981 0.45369 0.01065 0.0
C626 C 0.80644 0.47822 0.03167 0.0
H627 H 0.16438 0.65421 0.5277 0.0
H628 H 0.11796 0.71121 0.56027 0.0
H629 H 0.16563 0.7602 0.54878 0.0
H630 H 0.22364 0.68525 0.56595 0.0
H631 H 0.25525 0.68612 0.54233 0.0
H632 H 0.21513 0.65801 0.53539 0.0
H633 H 0.2174 0.67929 0.48271 0.0
H634 H 0.25836 0.70722 0.48906 0.0
H635 H 0.22956 0.72131 0.47664 0.0
H636 H 0.22123 0.79932 0.5537 0.0
H637 H 0.27623 0.82282 0.57374 0.0
H638 H 0.2893 0.7404 0.5441 0.0
C639 C 0.16356 0.67716 0.52985 0.0
C640 C 0.13757 0.67916 0.54424 0.0
C641 C 0.1374 0.70932 0.54846 0.0
C642 C 0.16468 0.73733 0.54222 0.0
C643 C 0.19196 0.73469 0.53205 0.0
C644 C 0.19139 0.70517 0.52525 0.0
C645 C 0.22503 0.70734 0.52297 0.0
C646 C 0.23 0.68279 0.54288 0.0
C647 C 0.23306 0.70358 0.49094 0.0
C648 C 0.24416 0.74123 0.5335 0.0
C649 C 0.22503 0.75731 0.53682 0.0
C650 C 0.23662 0.78735 0.55025 0.0
C651 C 0.26786 0.80056 0.56167 0.0
C652 C 0.28668 0.78325 0.56033 0.0
C653 C 0.27521 0.75405 0.54497 0.0
H654 H 0.71524 0.30785 0.35513 0.0
H655 H 0.78354 0.39626 0.39408 0.0
H656 H 0.7403 0.41404 0.40044 0.0
H657 H 0.67259 0.34164 0.31418 0.0
H658 H 0.63427 0.30841 0.3194 0.0
H659 H 0.67012 0.30209 0.31983 0.0
H660 H 0.65555 0.27622 0.37126 0.0
H661 H 0.6195 0.28224 0.37096 0.0
H662 H 0.64769 0.29791 0.4007 0.0
H663 H 0.68862 0.42205 0.40157 0.0
H664 H 0.63428 0.41991 0.39639 0.0
H665 H 0.602 0.3269 0.35499 0.0
C666 C 0.72121 0.33085 0.36531 0.0
C667 C 0.75281 0.35061 0.37423 0.0
C668 C 0.75949 0.38067 0.38714 0.0
C669 C 0.73508 0.39095 0.39085 0.0
C670 C 0.70423 0.37092 0.38144 0.0
C671 C 0.69736 0.34149 0.36893 0.0
C672 C 0.66273 0.32476 0.35961 0.0
C673 C 0.65978 0.3189 0.32628 0.0
C674 C 0.64535 0.29344 0.37666 0.0
C675 C 0.65111 0.34946 0.36852 0.0
C676 C 0.67517 0.37583 0.38135 0.0
C677 C 0.66966 0.40152 0.39151 0.0
C678 C 0.63876 0.40012 0.38847 0.0
C679 C 0.61397 0.37339 0.37505 0.0
C680 C 0.62046 0.34787 0.36503 0.0
H681 H 0.30092 0.85898 0.93615 0.0
H682 H 0.30265 0.81187 0.01713 0.0
H683 H 0.24412 0.7832 0.01598 0.0
H684 H 0.20893 0.84766 0.94201 0.0
H685 H 0.20522 0.83984 0.90313 0.0
H686 H 0.24203 0.86954 0.91813 0.0
H687 H 0.27284 0.84092 0.89327 0.0
H688 H 0.2366 0.81105 0.87886 0.0
H689 H 0.26203 0.79943 0.90139 0.0
H690 H 0.19353 0.74466 0.99677 0.0
H691 H 0.1588 0.70272 0.96311 0.0
H692 H 0.18786 0.77049 0.89163 0.0
C693 C 0.28841 0.84472 0.95479 0.0
C694 C 0.30591 0.83805 0.97699 0.0
C695 C 0.28947 0.81794 0.00041 0.0
C696 C 0.25609 0.80133 -0.0003 0.0
C697 C 0.23956 0.8049 0.97528 0.0
C698 C 0.25515 0.82688 0.95344 0.0
C699 C 0.23456 0.82025 0.92603 0.0
C700 C 0.22193 0.84584 0.92211 0.0
C701 C 0.25258 0.8177 0.89834 0.0
C702 C 0.20763 0.7885 0.93414 0.0
C703 C 0.20977 0.78107 0.96323 0.0
C704 C 0.19097 0.75069 0.9743 0.0
C705 C 0.17124 0.72684 0.95493 0.0
C706 C 0.17091 0.73332 0.92466 0.0
C707 C 0.18759 0.76502 0.91472 0.0
H708 H 0.57377 0.24311 0.48648 0.0
H709 H 0.51398 0.15207 0.44708 0.0
H710 H 0.47123 0.16993 0.4396 0.0
H711 H 0.50205 0.26027 0.51727 0.0
H712 H 0.52491 0.30199 0.50926 0.0
H713 H 0.54488 0.27815 0.52176 0.0
H714 H 0.58145 0.29512 0.47607 0.0
H715 H 0.56175 0.31867 0.46354 0.0
H716 H 0.56349 0.28808 0.44004 0.0
H717 H 0.44644 0.20326 0.4194 0.0
H718 H 0.44103 0.24689 0.39254 0.0
H719 H 0.51217 0.31585 0.44935 0.0
C720 C 0.55087 0.22642 0.47789 0.0
C721 C 0.54698 0.19636 0.46738 0.0
C722 C 0.51717 0.17507 0.45567 0.0
C723 C 0.49275 0.18509 0.45135 0.0
C724 C 0.49821 0.21603 0.45975 0.0
C725 C 0.52621 0.23603 0.47385 0.0
C726 C 0.52888 0.26972 0.47607 0.0
C727 C 0.52493 0.278 0.50799 0.0
C728 C 0.56071 0.29426 0.46312 0.0
C729 C 0.50034 0.26656 0.45768 0.0
C730 C 0.48228 0.23521 0.4492 0.0
C731 C 0.45937 0.22762 0.42691 0.0
C732 C 0.45638 0.25258 0.4117 0.0
C733 C 0.47603 0.28473 0.41902 0.0
C734 C 0.49623 0.29148 0.4438 0.0
H735 H 0.25443 0.6608 0.84168 0.0
H736 H 0.19662 0.5874 0.903 0.0
H737 H 0.24122 0.57205 0.91023 0.0
H738 H 0.29598 0.61655 0.80903 0.0
H739 H 0.33322 0.65167 0.80601 0.0
H740 H 0.29585 0.65513 0.80397 0.0
H741 H 0.31421 0.69622 0.84651 0.0
H742 H 0.35155 0.69284 0.84877 0.0
H743 H 0.32668 0.68564 0.88079 0.0
H744 H 0.29359 0.56715 0.91328 0.0
H745 H 0.34929 0.57296 0.91164 0.0
H746 H 0.37246 0.64948 0.84827 0.0
C747 C 0.25089 0.64113 0.85629 0.0
C748 C 0.2219 0.62523 0.87168 0.0
C749 C 0.21852 0.59991 0.89088 0.0
C750 C 0.24373 0.59099 0.89512 0.0
C751 C 0.27215 0.60751 0.87995 0.0
C752 C 0.27581 0.63197 0.86082 0.0
C753 C 0.30925 0.64696 0.84826 0.0
C754 C 0.30852 0.64228 0.81483 0.0
C755 C 0.32642 0.68251 0.85659 0.0
C756 C 0.32401 0.62745 0.86364 0.0
C757 C 0.30222 0.60469 0.8817 0.0
C758 C 0.31077 0.58469 0.899 0.0
C759 C 0.34249 0.5882 0.89793 0.0
C760 C 0.36529 0.61158 0.87974 0.0
C761 C 0.35564 0.63117 0.86221 0.0
H762 H 0.71801 0.23274 0.50512 0.0
H763 H 0.69658 0.13891 0.47072 0.0
H764 H 0.75357 0.15453 0.46214 0.0
H765 H 0.75705 0.27283 0.45742 0.0
H766 H 0.78938 0.30556 0.47529 0.0
H767 H 0.75353 0.28356 0.49491 0.0
H768 H 0.78543 0.27098 0.53555 0.0
H769 H 0.82194 0.29348 0.51584 0.0
H770 H 0.81186 0.25281 0.52634 0.0
H771 H 0.80088 0.18464 0.43443 0.0
H772 H 0.83068 0.22295 0.39627 0.0
H773 H 0.82786 0.29992 0.44791 0.0
C774 C 0.72593 0.21501 0.49783 0.0
C775 C 0.70315 0.18499 0.48811 0.0
C776 C 0.71364 0.16206 0.47844 0.0
C777 C 0.74622 0.17092 0.47337 0.0
C778 C 0.76797 0.20252 0.47873 0.0
C779 C 0.75844 0.22398 0.4922 0.0
C780 C 0.78397 0.25794 0.48927 0.0
C781 C 0.77012 0.28122 0.4785 0.0
C782 C 0.80187 0.26946 0.51848 0.0
C783 C 0.80555 0.25293 0.46678 0.0
C784 C 0.79728 0.22064 0.46258 0.0
C785 C 0.80846 0.20988 0.43837 0.0
C786 C 0.82551 0.23186 0.41665 0.0
C787 C 0.83148 0.2643 0.41936 0.0
C788 C 0.82417 0.27529 0.44591 0.0
H789 H 0.46874 0.68243 0.96502 0.0
H790 H 0.54549 0.73927 0.90689 0.0
H791 H 0.54771 0.78833 0.92988 0.0
H792 H 0.42616 0.71831 0.95264 0.0
H793 H 0.40919 0.71761 0.98834 0.0
H794 H 0.42354 0.68851 0.9793 0.0
H795 H 0.46127 0.70518 0.02438 0.0
H796 H 0.44665 0.73446 0.03386 0.0
H797 H 0.48893 0.74638 0.02939 0.0
H798 H 0.52987 0.82881 0.9451 0.0
H799 H 0.49272 0.85436 0.94793 0.0
H800 H 0.42453 0.77217 0.99395 0.0
C801 C 0.48745 0.70521 0.95866 0.0
C802 C 0.50719 0.70716 0.93453 0.0
C803 C 0.53048 0.73731 0.92568 0.0
C804 C 0.53189 0.76534 0.93872 0.0
C805 C 0.50975 0.76285 0.96049 0.0
C806 C 0.48816 0.73335 0.97075 0.0
C807 C 0.46169 0.73636 0.98821 0.0
C808 C 0.42824 0.71393 0.97636 0.0
C809 C 0.46484 0.73025 0.0209 0.0
C810 C 0.46939 0.77117 0.98292 0.0
C811 C 0.49824 0.78657 0.96849 0.0
C812 C 0.50782 0.81735 0.95724 0.0
C813 C 0.4866 0.83183 0.959 0.0
C814 C 0.45593 0.8151 0.97123 0.0
C815 C 0.44817 0.78545 0.98494 0.0
loop_
_geom_bond_atom_site_label_1
_geom_bond_atom_site_label_2
_geom_bond_distance
_geom_bond_site_symmetry_2
_ccdc_geom_bond_type
Zn0 O3 2.031 . S
Zn0 O5 2.049 . S
Zn0 O10 2.067 . S
Zn1 O2 1.962 . S
Zn1 O4 1.986 . S
Zn1 O6 1.996 . S
Zn1 O9 1.943 . S
O2 Zn1 1.962 . S
O2 C7 1.254 . S
O3 Zn0 2.031 . S
O3 C7 1.269 . S
O4 Zn1 1.986 . S
O4 C11 1.262 . S
O5 Zn0 2.049 . S
O5 C13 1.260 . S
O6 Zn1 1.996 . S
O6 C13 1.257 . S
C7 O2 1.254 . S
C7 O3 1.269 . S
C8 O9 1.249 . S
C8 O10 1.270 . S
O9 Zn1 1.943 . S
O9 C8 1.249 . S
O10 Zn0 2.067 . S
O10 C8 1.270 . S
C11 O4 1.262 . S
C11 O12 1.232 . S
O12 C11 1.232 . S
C13 O5 1.260 . S
C13 O6 1.257 . S
Zn14 O17 2.031 . S
Zn14 O19 2.049 . S
Zn14 O24 2.067 . S
Zn15 O16 1.962 . S
Zn15 O18 1.986 . S
Zn15 O20 1.996 . S
Zn15 O23 1.943 . S
O16 Zn15 1.962 . S
O16 C21 1.254 . S
O17 Zn14 2.031 . S
O17 C21 1.269 . S
O18 Zn15 1.986 . S
O18 C25 1.262 . S
O19 Zn14 2.049 . S
O19 C27 1.260 . S
O20 Zn15 1.996 . S
O20 C27 1.257 . S
C21 O16 1.254 . S
C21 O17 1.269 . S
C22 O23 1.249 . S
C22 O24 1.270 . S
O23 Zn15 1.943 . S
O23 C22 1.249 . S
O24 Zn14 2.067 . S
O24 C22 1.270 . S
C25 O18 1.262 . S
C25 O26 1.232 . S
O26 C25 1.232 . S
C27 O19 1.260 . S
C27 O20 1.257 . S
Zn28 O31 2.031 . S
Zn28 O33 2.049 . S
Zn28 O38 2.067 . S
Zn29 O30 1.962 . S
Zn29 O32 1.986 . S
Zn29 O34 1.996 . S
Zn29 O37 1.943 . S
O30 Zn29 1.962 . S
O30 C35 1.254 . S
O31 Zn28 2.031 . S
O31 C35 1.269 . S
O32 Zn29 1.986 . S
O32 C39 1.262 . S
O33 Zn28 2.049 . S
O33 C41 1.260 . S
O34 Zn29 1.996 . S
O34 C41 1.257 . S
C35 O30 1.254 . S
C35 O31 1.269 . S
C36 O37 1.249 . S
C36 O38 1.270 . S
O37 Zn29 1.943 . S
O37 C36 1.249 . S
O38 Zn28 2.067 . S
O38 C36 1.270 . S
C39 O32 1.262 . S
C39 O40 1.232 . S
O40 C39 1.232 . S
C41 O33 1.260 . S
C41 O34 1.257 . S
Zn42 O45 2.031 . S
Zn42 O47 2.049 . S
Zn42 O52 2.067 . S
Zn43 O44 1.962 . S
Zn43 O46 1.986 . S
Zn43 O48 1.996 . S
Zn43 O51 1.943 . S
O44 Zn43 1.962 . S
O44 C49 1.254 . S
O45 Zn42 2.031 . S
O45 C49 1.269 . S
O46 Zn43 1.986 . S
O46 C53 1.262 . S
O47 Zn42 2.049 . S
O47 C55 1.260 . S
O48 Zn43 1.996 . S
O48 C55 1.257 . S
C49 O44 1.254 . S
C49 O45 1.269 . S
C50 O51 1.249 . S
C50 O52 1.270 . S
O51 Zn43 1.943 . S
O51 C50 1.249 . S
O52 Zn42 2.067 . S
O52 C50 1.270 . S
C53 O46 1.262 . S
C53 O54 1.232 . S
O54 C53 1.232 . S
C55 O47 1.260 . S
C55 O48 1.257 . S
Zn56 O59 2.031 . S
Zn56 O61 2.049 . S
Zn56 O66 2.067 . S
Zn57 O58 1.962 . S
Zn57 O60 1.986 . S
Zn57 O62 1.996 . S
Zn57 O65 1.943 . S
O58 Zn57 1.962 . S
O58 C63 1.254 . S
O59 Zn56 2.031 . S
O59 C63 1.269 . S
O60 Zn57 1.986 . S
O60 C67 1.262 . S
O61 Zn56 2.049 . S
O61 C69 1.260 . S
O62 Zn57 1.996 . S
O62 C69 1.257 . S
C63 O58 1.254 . S
C63 O59 1.269 . S
C64 O65 1.249 . S
C64 O66 1.270 . S
O65 Zn57 1.943 . S
O65 C64 1.249 . S
O66 Zn56 2.067 . S
O66 C64 1.270 . S
C67 O60 1.262 . S
C67 O68 1.232 . S
O68 C67 1.232 . S
C69 O61 1.260 . S
C69 O62 1.257 . S
Zn70 O73 2.031 . S
Zn70 O75 2.049 . S
Zn70 O80 2.067 . S
Zn71 O72 1.962 . S
Zn71 O74 1.986 . S
Zn71 O76 1.996 . S
Zn71 O79 1.943 . S
O72 Zn71 1.962 . S
O72 C77 1.254 . S
O73 Zn70 2.031 . S
O73 C77 1.269 . S
O74 Zn71 1.986 . S
O74 C81 1.262 . S
O75 Zn70 2.049 . S
O75 C83 1.260 . S
O76 Zn71 1.996 . S
O76 C83 1.257 . S
C77 O72 1.254 . S
C77 O73 1.269 . S
C78 O79 1.249 . S
C78 O80 1.270 . S
O79 Zn71 1.943 . S
O79 C78 1.249 . S
O80 Zn70 2.067 . S
O80 C78 1.270 . S
C81 O74 1.262 . S
C81 O82 1.232 . S
O82 C81 1.232 . S
C83 O75 1.260 . S
C83 O76 1.257 . S
Zn84 O87 2.031 . S
Zn84 O89 2.049 . S
Zn84 O94 2.067 . S
Zn85 O86 1.962 . S
Zn85 O88 1.986 . S
Zn85 O90 1.996 . S
Zn85 O93 1.943 . S
O86 Zn85 1.962 . S
O86 C91 1.254 . S
O87 Zn84 2.031 . S
O87 C91 1.269 . S
O88 Zn85 1.986 . S
O88 C95 1.262 . S
O89 Zn84 2.049 . S
O89 C97 1.260 . S
O90 Zn85 1.996 . S
O90 C97 1.257 . S
C91 O86 1.254 . S
C91 O87 1.269 . S
C92 O93 1.249 . S
C92 O94 1.270 . S
O93 Zn85 1.943 . S
O93 C92 1.249 . S
O94 Zn84 2.067 . S
O94 C92 1.270 . S
C95 O88 1.262 . S
C95 O96 1.232 . S
O96 C95 1.232 . S
C97 O89 1.260 . S
C97 O90 1.257 . S
Zn98 O101 2.031 . S
Zn98 O103 2.049 . S
Zn98 O108 2.067 . S
Zn99 O100 1.962 . S
Zn99 O102 1.986 . S
Zn99 O104 1.996 . S
Zn99 O107 1.943 . S
O100 Zn99 1.962 . S
O100 C105 1.254 . S
O101 Zn98 2.031 . S
O101 C105 1.269 . S
O102 Zn99 1.986 . S
O102 C109 1.262 . S
O103 Zn98 2.049 . S
O103 C111 1.260 . S
O104 Zn99 1.996 . S
O104 C111 1.257 . S
C105 O100 1.254 . S
C105 O101 1.269 . S
C106 O107 1.249 . S
C106 O108 1.270 . S
O107 Zn99 1.943 . S
O107 C106 1.249 . S
O108 Zn98 2.067 . S
O108 C106 1.270 . S
C109 O102 1.262 . S
C109 O110 1.232 . S
O110 C109 1.232 . S
C111 O103 1.260 . S
C111 O104 1.257 . S
Zn112 O115 2.031 . S
Zn112 O117 2.049 . S
Zn112 O122 2.067 . S
Zn113 O114 1.962 . S
Zn113 O116 1.986 . S
Zn113 O118 1.996 . S
Zn113 O121 1.943 . S
O114 Zn113 1.962 . S
O114 C119 1.254 . S
O115 Zn112 2.031 . S
O115 C119 1.269 . S
O116 Zn113 1.986 . S
O116 C123 1.262 . S
O117 Zn112 2.049 . S
O117 C125 1.260 . S
O118 Zn113 1.996 . S
O118 C125 1.257 . S
C119 O114 1.254 . S
C119 O115 1.269 . S
C120 O121 1.249 . S
C120 O122 1.270 . S
O121 Zn113 1.943 . S
O121 C120 1.249 . S
O122 Zn112 2.067 . S
O122 C120 1.270 . S
C123 O116 1.262 . S
C123 O124 1.232 . S
O124 C123 1.232 . S
C125 O117 1.260 . S
C125 O118 1.257 . S
Zn126 O129 2.031 . S
Zn126 O131 2.049 . S
Zn126 O136 2.067 . S
Zn127 O128 1.962 . S
Zn127 O130 1.986 . S
Zn127 O132 1.996 . S
Zn127 O135 1.943 . S
O128 Zn127 1.962 . S
O128 C133 1.254 . S
O129 Zn126 2.031 . S
O129 C133 1.269 . S
O130 Zn127 1.986 . S
O130 C137 1.262 . S
O131 Zn126 2.049 . S
O131 C139 1.260 . S
O132 Zn127 1.996 . S
O132 C139 1.257 . S
C133 O128 1.254 . S
C133 O129 1.269 . S
C134 O135 1.249 . S
C134 O136 1.270 . S
O135 Zn127 1.943 . S
O135 C134 1.249 . S
O136 Zn126 2.067 . S
O136 C134 1.270 . S
C137 O130 1.262 . S
C137 O138 1.232 . S
O138 C137 1.232 . S
C139 O131 1.260 . S
C139 O132 1.257 . S
Zn140 O143 2.031 . S
Zn140 O145 2.049 . S
Zn140 O150 2.067 . S
Zn141 O142 1.962 . S
Zn141 O144 1.986 . S
Zn141 O146 1.996 . S
Zn141 O149 1.943 . S
O142 Zn141 1.962 . S
O142 C147 1.254 . S
O143 Zn140 2.031 . S
O143 C147 1.269 . S
O144 Zn141 1.986 . S
O144 C151 1.262 . S
O145 Zn140 2.049 . S
O145 C153 1.260 . S
O146 Zn141 1.996 . S
O146 C153 1.257 . S
C147 O142 1.254 . S
C147 O143 1.269 . S
C148 O149 1.249 . S
C148 O150 1.270 . S
O149 Zn141 1.943 . S
O149 C148 1.249 . S
O150 Zn140 2.067 . S
O150 C148 1.270 . S
C151 O144 1.262 . S
C151 O152 1.232 . S
O152 C151 1.232 . S
C153 O145 1.260 . S
C153 O146 1.257 . S
Zn154 O157 2.031 . S
Zn154 O159 2.049 . S
Zn154 O164 2.067 . S
Zn155 O156 1.962 . S
Zn155 O158 1.986 . S
Zn155 O160 1.996 . S
Zn155 O163 1.943 . S
O156 Zn155 1.962 . S
O156 C161 1.254 . S
O157 Zn154 2.031 . S
O157 C161 1.269 . S
O158 Zn155 1.986 . S
O158 C165 1.262 . S
O159 Zn154 2.049 . S
O159 C167 1.260 . S
O160 Zn155 1.996 . S
O160 C167 1.257 . S
C161 O156 1.254 . S
C161 O157 1.269 . S
C162 O163 1.249 . S
C162 O164 1.270 . S
O163 Zn155 1.943 . S
O163 C162 1.249 . S
O164 Zn154 2.067 . S
O164 C162 1.270 . S
C165 O158 1.262 . S
C165 O166 1.232 . S
O166 C165 1.232 . S
C167 O159 1.260 . S
C167 O160 1.257 . S
H168 C180 0.930 . S
H169 C182 0.930 . S
H170 C183 0.930 . S
H171 C187 0.959 . S
H172 C187 0.959 . S
H173 C187 0.961 . S
H174 C188 0.960 . S
H175 C188 0.961 . S
H176 C188 0.959 . S
H177 C191 0.929 . S
H178 C192 0.931 . S
H179 C194 0.930 . S
C180 H168 0.930 . S
C180 C181 1.399 . S
C180 C185 1.399 . S
C181 C180 1.399 . S
C181 C182 1.376 . S
C182 H169 0.930 . S
C182 C181 1.376 . S
C182 C183 1.388 . S
C183 H170 0.930 . S
C183 C182 1.388 . S
C183 C184 1.390 . S
C184 C183 1.390 . S
C184 C185 1.394 . S
C184 C190 1.465 . S
C185 C180 1.399 . S
C185 C184 1.394 . S
C185 C186 1.516 . S
C186 C185 1.516 . S
C186 C187 1.502 . S
C186 C188 1.561 . S
C186 C189 1.526 . S
C187 H171 0.959 . S
C187 H172 0.959 . S
C187 H173 0.961 . S
C187 C186 1.502 . S
C188 H174 0.960 . S
C188 H175 0.961 . S
C188 H176 0.959 . S
C188 C186 1.561 . S
C189 C186 1.526 . S
C189 C190 1.396 . S
C189 C194 1.390 . S
C190 C184 1.465 . S
C190 C189 1.396 . S
C190 C191 1.399 . S
C191 H177 0.929 . S
C191 C190 1.399 . S
C191 C192 1.385 . S
C192 H178 0.931 . S
C192 C191 1.385 . S
C192 C193 1.389 . S
C193 C192 1.389 . S
C193 C194 1.387 . S
C194 H179 0.930 . S
C194 C189 1.390 . S
C194 C193 1.387 . S
H195 C207 0.930 . S
H196 C209 0.930 . S
H197 C210 0.930 . S
H198 C214 0.959 . S
H199 C214 0.959 . S
H200 C214 0.961 . S
H201 C215 0.960 . S
H202 C215 0.961 . S
H203 C215 0.959 . S
H204 C218 0.929 . S
H205 C219 0.931 . S
H206 C221 0.930 . S
C207 H195 0.930 . S
C207 C208 1.399 . S
C207 C212 1.399 . S
C208 C207 1.399 . S
C208 C209 1.376 . S
C209 H196 0.930 . S
C209 C208 1.376 . S
C209 C210 1.388 . S
C210 H197 0.930 . S
C210 C209 1.388 . S
C210 C211 1.390 . S
C211 C210 1.390 . S
C211 C212 1.394 . S
C211 C217 1.465 . S
C212 C207 1.399 . S
C212 C211 1.394 . S
C212 C213 1.516 . S
C213 C212 1.516 . S
C213 C214 1.502 . S
C213 C215 1.561 . S
C213 C216 1.526 . S
C214 H198 0.959 . S
C214 H199 0.959 . S
C214 H200 0.961 . S
C214 C213 1.502 . S
C215 H201 0.960 . S
C215 H202 0.961 . S
C215 H203 0.959 . S
C215 C213 1.561 . S
C216 C213 1.526 . S
C216 C217 1.396 . S
C216 C221 1.390 . S
C217 C211 1.465 . S
C217 C216 1.396 . S
C217 C218 1.399 . S
C218 H204 0.929 . S
C218 C217 1.399 . S
C218 C219 1.385 . S
C219 H205 0.931 . S
C219 C218 1.385 . S
C219 C220 1.389 . S
C220 C219 1.389 . S
C220 C221 1.387 . S
C221 H206 0.930 . S
C221 C216 1.390 . S
C221 C220 1.387 . S
H222 C234 0.930 . S
H223 C236 0.930 . S
H224 C237 0.930 . S
H225 C241 0.959 . S
H226 C241 0.959 . S
H227 C241 0.961 . S
H228 C242 0.960 . S
H229 C242 0.961 . S
H230 C242 0.959 . S
H231 C245 0.929 . S
H232 C246 0.931 . S
H233 C248 0.930 . S
C234 H222 0.930 . S
C234 C235 1.399 . S
C234 C239 1.399 . S
C235 C234 1.399 . S
C235 C236 1.376 . S
C236 H223 0.930 . S
C236 C235 1.376 . S
C236 C237 1.388 . S
C237 H224 0.930 . S
C237 C236 1.388 . S
C237 C238 1.390 . S
C238 C237 1.390 . S
C238 C239 1.394 . S
C238 C244 1.465 . S
C239 C234 1.399 . S
C239 C238 1.394 . S
C239 C240 1.516 . S
C240 C239 1.516 . S
C240 C241 1.502 . S
C240 C242 1.561 . S
C240 C243 1.526 . S
C241 H225 0.959 . S
C241 H226 0.959 . S
C241 H227 0.961 . S
C241 C240 1.502 . S
C242 H228 0.960 . S
C242 H229 0.961 . S
C242 H230 0.959 . S
C242 C240 1.561 . S
C243 C240 1.526 . S
C243 C244 1.396 . S
C243 C248 1.390 . S
C244 C238 1.465 . S
C244 C243 1.396 . S
C244 C245 1.399 . S
C245 H231 0.929 . S
C245 C244 1.399 . S
C245 C246 1.385 . S
C246 H232 0.931 . S
C246 C245 1.385 . S
C246 C247 1.389 . S
C247 C246 1.389 . S
C247 C248 1.387 . S
C248 H233 0.930 . S
C248 C243 1.390 . S
C248 C247 1.387 . S
H249 C261 0.930 . S
H250 C263 0.930 . S
H251 C264 0.930 . S
H252 C268 0.959 . S
H253 C268 0.959 . S
H254 C268 0.961 . S
H255 C269 0.960 . S
H256 C269 0.961 . S
H257 C269 0.959 . S
H258 C272 0.929 . S
H259 C273 0.931 . S
H260 C275 0.930 . S
C261 H249 0.930 . S
C261 C262 1.399 . S
C261 C266 1.399 . S
C262 C261 1.399 . S
C262 C263 1.376 . S
C263 H250 0.930 . S
C263 C262 1.376 . S
C263 C264 1.388 . S
C264 H251 0.930 . S
C264 C263 1.388 . S
C264 C265 1.390 . S
C265 C264 1.390 . S
C265 C266 1.394 . S
C265 C271 1.465 . S
C266 C261 1.399 . S
C266 C265 1.394 . S
C266 C267 1.516 . S
C267 C266 1.516 . S
C267 C268 1.502 . S
C267 C269 1.561 . S
C267 C270 1.526 . S
C268 H252 0.959 . S
C268 H253 0.959 . S
C268 H254 0.961 . S
C268 C267 1.502 . S
C269 H255 0.960 . S
C269 H256 0.961 . S
C269 H257 0.959 . S
C269 C267 1.561 . S
C270 C267 1.526 . S
C270 C271 1.396 . S
C270 C275 1.390 . S
C271 C265 1.465 . S
C271 C270 1.396 . S
C271 C272 1.399 . S
C272 H258 0.929 . S
C272 C271 1.399 . S
C272 C273 1.385 . S
C273 H259 0.931 . S
C273 C272 1.385 . S
C273 C274 1.389 . S
C274 C273 1.389 . S
C274 C275 1.387 . S
C275 H260 0.930 . S
C275 C270 1.390 . S
C275 C274 1.387 . S
H276 C288 0.930 . S
H277 C290 0.930 . S
H278 C291 0.930 . S
H279 C295 0.959 . S
H280 C295 0.959 . S
H281 C295 0.961 . S
H282 C296 0.960 . S
H283 C296 0.961 . S
H284 C296 0.959 . S
H285 C299 0.929 . S
H286 C300 0.931 . S
H287 C302 0.930 . S
C288 H276 0.930 . S
C288 C289 1.399 . S
C288 C293 1.399 . S
C289 C288 1.399 . S
C289 C290 1.376 . S
C290 H277 0.930 . S
C290 C289 1.376 . S
C290 C291 1.388 . S
C291 H278 0.930 . S
C291 C290 1.388 . S
C291 C292 1.390 . S
C292 C291 1.390 . S
C292 C293 1.394 . S
C292 C298 1.465 . S
C293 C288 1.399 . S
C293 C292 1.394 . S
C293 C294 1.516 . S
C294 C293 1.516 . S
C294 C295 1.502 . S
C294 C296 1.561 . S
C294 C297 1.526 . S
C295 H279 0.959 . S
C295 H280 0.959 . S
C295 H281 0.961 . S
C295 C294 1.502 . S
C296 H282 0.960 . S
C296 H283 0.961 . S
C296 H284 0.959 . S
C296 C294 1.561 . S
C297 C294 1.526 . S
C297 C298 1.396 . S
C297 C302 1.390 . S
C298 C292 1.465 . S
C298 C297 1.396 . S
C298 C299 1.399 . S
C299 H285 0.929 . S
C299 C298 1.399 . S
C299 C300 1.385 . S
C300 H286 0.931 . S
C300 C299 1.385 . S
C300 C301 1.389 . S
C301 C300 1.389 . S
C301 C302 1.387 . S
C302 H287 0.930 . S
C302 C297 1.390 . S
C302 C301 1.387 . S
H303 C315 0.930 . S
H304 C317 0.930 . S
H305 C318 0.930 . S
H306 C322 0.959 . S
H307 C322 0.959 . S
H308 C322 0.961 . S
H309 C323 0.960 . S
H310 C323 0.961 . S
H311 C323 0.959 . S
H312 C326 0.929 . S
H313 C327 0.931 . S
H314 C329 0.930 . S
C315 H303 0.930 . S
C315 C316 1.399 . S
C315 C320 1.399 . S
C316 C315 1.399 . S
C316 C317 1.376 . S
C317 H304 0.930 . S
C317 C316 1.376 . S
C317 C318 1.388 . S
C318 H305 0.930 . S
C318 C317 1.388 . S
C318 C319 1.390 . S
C319 C318 1.390 . S
C319 C320 1.394 . S
C319 C325 1.465 . S
C320 C315 1.399 . S
C320 C319 1.394 . S
C320 C321 1.516 . S
C321 C320 1.516 . S
C321 C322 1.502 . S
C321 C323 1.561 . S
C321 C324 1.526 . S
C322 H306 0.959 . S
C322 H307 0.959 . S
C322 H308 0.961 . S
C322 C321 1.502 . S
C323 H309 0.960 . S
C323 H310 0.961 . S
C323 H311 0.959 . S
C323 C321 1.561 . S
C324 C321 1.526 . S
C324 C325 1.396 . S
C324 C329 1.390 . S
C325 C319 1.465 . S
C325 C324 1.396 . S
C325 C326 1.399 . S
C326 H312 0.929 . S
C326 C325 1.399 . S
C326 C327 1.385 . S
C327 H313 0.931 . S
C327 C326 1.385 . S
C327 C328 1.389 . S
C328 C327 1.389 . S
C328 C329 1.387 . S
C329 H314 0.930 . S
C329 C324 1.390 . S
C329 C328 1.387 . S
H330 C342 0.930 . S
H331 C344 0.930 . S
H332 C345 0.911 1_556 S
H333 C349 0.959 1_556 S
H334 C349 0.959 . S
H335 C349 0.961 . S
H336 C350 0.960 . S
H337 C350 0.961 . S
H338 C350 0.959 . S
H339 C353 0.929 1_545 S
H340 C354 0.931 . S
H341 C356 0.930 . S
C342 H330 0.930 . S
C342 C343 1.399 . S
C342 C347 1.399 . S
C343 C342 1.399 . S
C343 C344 1.376 . S
C344 H331 0.930 . S
C344 C343 1.376 . S
C344 C345 1.406 . S
C345 H332 0.911 1_554 S
C345 C344 1.406 . S
C345 C346 1.392 . S
C346 C345 1.392 . S
C346 C347 1.394 . S
C346 C352 1.465 1_544 S
C347 C342 1.399 . S
C347 C346 1.394 . S
C347 C348 1.516 1_545 S
C348 C347 1.516 1_565 S
C348 C349 1.502 . S
C348 C350 1.561 . S
C348 C351 1.526 1_554 S
C349 H333 0.959 1_554 S
C349 H334 0.959 . S
C349 H335 0.961 . S
C349 C348 1.502 . S
C350 H336 0.960 . S
C350 H337 0.961 . S
C350 H338 0.959 . S
C350 C348 1.561 . S
C351 C348 1.526 1_556 S
C351 C352 1.396 . S
C351 C356 1.390 . S
C352 C346 1.465 1_566 S
C352 C351 1.396 . S
C352 C353 1.399 . S
C353 H339 0.929 1_565 S
C353 C352 1.399 . S
C353 C354 1.385 . S
C354 H340 0.931 . S
C354 C353 1.385 . S
C354 C355 1.389 . S
C355 C354 1.389 . S
C355 C356 1.387 . S
C356 H341 0.930 . S
C356 C351 1.390 . S
C356 C355 1.387 . S
H357 C369 0.930 . S
H358 C371 0.930 . S
H359 C372 0.930 . S
H360 C376 0.959 . S
H361 C376 0.959 . S
H362 C376 0.961 . S
H363 C377 0.960 . S
H364 C377 0.961 . S
H365 C377 0.959 . S
H366 C380 0.929 . S
H367 C381 0.931 . S
H368 C383 0.930 . S
C369 H357 0.930 . S
C369 C370 1.399 . S
C369 C374 1.399 . S
C370 C369 1.399 . S
C370 C371 1.376 . S
C371 H358 0.930 . S
C371 C370 1.376 . S
C371 C372 1.388 . S
C372 H359 0.930 . S
C372 C371 1.388 . S
C372 C373 1.390 . S
C373 C372 1.390 . S
C373 C374 1.394 . S
C373 C379 1.465 . S
C374 C369 1.399 . S
C374 C373 1.394 . S
C374 C375 1.516 . S
C375 C374 1.516 . S
C375 C376 1.502 . S
C375 C377 1.561 . S
C375 C378 1.526 . S
C376 H360 0.959 . S
C376 H361 0.959 . S
C376 H362 0.961 . S
C376 C375 1.502 . S
C377 H363 0.960 . S
C377 H364 0.961 . S
C377 H365 0.959 . S
C377 C375 1.561 . S
C378 C375 1.526 . S
C378 C379 1.396 . S
C378 C383 1.390 . S
C379 C373 1.465 . S
C379 C378 1.396 . S
C379 C380 1.399 . S
C380 H366 0.929 . S
C380 C379 1.399 . S
C380 C381 1.385 . S
C381 H367 0.931 . S
C381 C380 1.385 . S
C381 C382 1.389 . S
C382 C381 1.389 . S
C382 C383 1.387 . S
C383 H368 0.930 . S
C383 C378 1.390 . S
C383 C382 1.387 . S
H384 C396 0.930 . S
H385 C398 0.930 . S
H386 C399 0.930 . S
H387 C403 0.959 . S
H388 C403 0.959 1_655 S
H389 C403 0.961 . S
H390 C404 0.960 . S
H391 C404 0.961 1_554 S
H392 C404 0.959 . S
H393 C407 0.934 . S
H394 C408 0.931 . S
H395 C410 0.930 . S
C396 H384 0.930 . S
C396 C397 1.399 . S
C396 C401 1.399 . S
C397 C396 1.399 . S
C397 C398 1.376 . S
C398 H385 0.930 . S
C398 C397 1.376 . S
C398 C399 1.388 . S
C399 H386 0.930 . S
C399 C398 1.388 . S
C399 C400 1.390 . S
C400 C399 1.390 . S
C400 C401 1.394 . S
C400 C406 1.486 1_455 S
C401 C396 1.399 . S
C401 C400 1.394 . S
C401 C402 1.516 1_456 S
C402 C401 1.516 1_654 S
C402 C403 1.502 1_655 S
C402 C404 1.561 1_554 S
C402 C405 1.526 . S
C403 H387 0.959 . S
C403 H388 0.959 1_455 S
C403 H389 0.961 . S
C403 C402 1.502 1_455 S
C404 H390 0.960 . S
C404 H391 0.961 1_556 S
C404 H392 0.959 . S
C404 C402 1.561 1_556 S
C405 C402 1.526 . S
C405 C406 1.375 1_554 S
C405 C410 1.390 . S
C406 C400 1.486 1_655 S
C406 C405 1.375 1_556 S
C406 C407 1.398 . S
C407 H393 0.934 . S
C407 C406 1.398 . S
C407 C408 1.380 1_556 S
C408 H394 0.931 . S
C408 C407 1.380 1_554 S
C408 C409 1.389 . S
C409 C408 1.389 . S
C409 C410 1.387 . S
C410 H395 0.930 . S
C410 C405 1.390 . S
C410 C409 1.387 . S
H411 C423 0.930 . S
H412 C425 0.930 . S
H413 C426 0.930 . S
H414 C430 0.959 . S
H415 C430 0.959 . S
H416 C430 0.961 . S
H417 C431 0.960 . S
H418 C431 0.961 . S
H419 C431 0.959 . S
H420 C434 0.929 . S
H421 C435 0.931 . S
H422 C437 0.930 . S
C423 H411 0.930 . S
C423 C424 1.399 . S
C423 C428 1.399 . S
C424 C423 1.399 . S
C424 C425 1.376 . S
C425 H412 0.930 . S
C425 C424 1.376 . S
C425 C426 1.388 . S
C426 H413 0.930 . S
C426 C425 1.388 . S
C426 C427 1.390 . S
C427 C426 1.390 . S
C427 C428 1.394 . S
C427 C433 1.465 1_545 S
C428 C423 1.399 . S
C428 C427 1.394 . S
C428 C429 1.516 . S
C429 C428 1.516 . S
C429 C430 1.502 . S
C429 C431 1.561 . S
C429 C432 1.526 1_545 S
C430 H414 0.959 . S
C430 H415 0.959 . S
C430 H416 0.961 . S
C430 C429 1.502 . S
C431 H417 0.960 . S
C431 H418 0.961 . S
C431 H419 0.959 . S
C431 C429 1.561 . S
C432 C429 1.526 1_565 S
C432 C433 1.396 . S
C432 C437 1.390 . S
C433 C427 1.465 1_565 S
C433 C432 1.396 . S
C433 C434 1.399 . S
C434 H420 0.929 . S
C434 C433 1.399 . S
C434 C435 1.385 . S
C435 H421 0.931 . S
C435 C434 1.385 . S
C435 C436 1.389 . S
C436 C435 1.389 . S
C436 C437 1.387 . S
C437 H422 0.930 . S
C437 C432 1.390 . S
C437 C436 1.387 . S
H438 C450 0.930 . S
H439 C452 0.930 . S
H440 C453 0.930 . S
H441 C457 0.959 . S
H442 C457 0.959 . S
H443 C457 0.961 . S
H444 C458 0.960 . S
H445 C458 0.961 . S
H446 C458 0.959 . S
H447 C461 0.929 . S
H448 C462 0.931 . S
H449 C464 0.930 . S
C450 H438 0.930 . S
C450 C451 1.399 . S
C450 C455 1.399 . S
C451 C450 1.399 . S
C451 C452 1.376 . S
C452 H439 0.930 . S
C452 C451 1.376 . S
C452 C453 1.388 . S
C453 H440 0.930 . S
C453 C452 1.388 . S
C453 C454 1.390 . S
C454 C453 1.390 . S
C454 C455 1.394 . S
C454 C460 1.465 1_556 S
C455 C450 1.399 . S
C455 C454 1.394 . S
C455 C456 1.516 1_556 S
C456 C455 1.516 1_554 S
C456 C457 1.502 1_554 S
C456 C458 1.561 . S
C456 C459 1.526 . S
C457 H441 0.959 . S
C457 H442 0.959 . S
C457 H443 0.961 . S
C457 C456 1.502 1_556 S
C458 H444 0.960 . S
C458 H445 0.961 . S
C458 H446 0.959 . S
C458 C456 1.561 . S
C459 C456 1.526 . S
C459 C460 1.396 . S
C459 C464 1.390 . S
C460 C454 1.465 1_554 S
C460 C459 1.396 . S
C460 C461 1.399 . S
C461 H447 0.929 . S
C461 C460 1.399 . S
C461 C462 1.385 . S
C462 H448 0.931 . S
C462 C461 1.385 . S
C462 C463 1.389 . S
C463 C462 1.389 . S
C463 C464 1.387 . S
C464 H449 0.930 . S
C464 C459 1.390 . S
C464 C463 1.387 . S
H465 C477 0.930 . S
H466 C479 0.930 . S
H467 C480 0.930 . S
H468 C484 0.959 . S
H469 C484 0.959 . S
H470 C484 0.961 . S
H471 C485 0.960 1_655 S
H472 C485 0.961 . S
H473 C485 0.959 . S
H474 C488 0.929 . S
H475 C489 0.931 . S
H476 C491 0.930 . S
C477 H465 0.930 . S
C477 C478 1.399 . S
C477 C482 1.399 . S
C478 C477 1.399 . S
C478 C479 1.376 . S
C479 H466 0.930 . S
C479 C478 1.376 . S
C479 C480 1.388 . S
C480 H467 0.930 . S
C480 C479 1.388 . S
C480 C481 1.390 . S
C481 C480 1.390 . S
C481 C482 1.394 . S
C481 C487 1.465 1_655 S
C482 C477 1.399 . S
C482 C481 1.394 . S
C482 C483 1.516 . S
C483 C482 1.516 . S
C483 C484 1.502 . S
C483 C485 1.561 1_655 S
C483 C486 1.526 1_655 S
C484 H468 0.959 . S
C484 H469 0.959 . S
C484 H470 0.961 . S
C484 C483 1.502 . S
C485 H471 0.960 1_455 S
C485 H472 0.961 . S
C485 H473 0.959 . S
C485 C483 1.561 1_455 S
C486 C483 1.526 1_455 S
C486 C487 1.396 . S
C486 C491 1.390 . S
C487 C481 1.465 1_455 S
C487 C486 1.396 . S
C487 C488 1.399 . S
C488 H474 0.929 . S
C488 C487 1.399 . S
C488 C489 1.385 . S
C489 H475 0.931 . S
C489 C488 1.385 . S
C489 C490 1.389 . S
C490 C489 1.389 . S
C490 C491 1.387 . S
C491 H476 0.930 . S
C491 C486 1.390 . S
C491 C490 1.387 . S
H492 C504 0.930 . S
H493 C506 0.930 . S
H494 C507 0.930 . S
H495 C511 0.959 . S
H496 C511 0.959 . S
H497 C511 0.961 . S
H498 C512 0.960 . S
H499 C512 0.955 1_556 S
H500 C512 0.959 . S
H501 C515 0.929 . S
H502 C516 0.931 . S
H503 C518 0.930 . S
C504 H492 0.930 . S
C504 C505 1.399 . S
C504 C509 1.399 . S
C505 C504 1.399 . S
C505 C506 1.376 . S
C506 H493 0.930 . S
C506 C505 1.376 . S
C506 C507 1.388 . S
C507 H494 0.930 . S
C507 C506 1.388 . S
C507 C508 1.390 . S
C508 C507 1.390 . S
C508 C509 1.394 . S
C508 C514 1.465 . S
C509 C504 1.399 . S
C509 C508 1.394 . S
C509 C510 1.516 . S
C510 C509 1.516 . S
C510 C511 1.502 . S
C510 C512 1.561 . S
C510 C513 1.526 . S
C511 H495 0.959 . S
C511 H496 0.959 . S
C511 H497 0.961 . S
C511 C510 1.502 . S
C512 H498 0.960 . S
C512 H499 0.955 1_554 S
C512 H500 0.959 . S
C512 C510 1.561 . S
C513 C510 1.526 . S
C513 C514 1.396 . S
C513 C518 1.390 . S
C514 C508 1.465 . S
C514 C513 1.396 . S
C514 C515 1.399 . S
C515 H501 0.929 . S
C515 C514 1.399 . S
C515 C516 1.385 . S
C516 H502 0.931 . S
C516 C515 1.385 . S
C516 C517 1.389 . S
C517 C516 1.389 . S
C517 C518 1.387 . S
C518 H503 0.930 . S
C518 C513 1.390 . S
C518 C517 1.387 . S
H519 C531 0.930 . S
H520 C533 0.930 . S
H521 C534 0.930 . S
H522 C538 0.959 . S
H523 C538 0.959 . S
H524 C538 0.961 . S
H525 C539 0.960 . S
H526 C539 0.961 . S
H527 C539 0.959 . S
H528 C542 0.929 . S
H529 C543 0.931 . S
H530 C545 0.930 . S
C531 H519 0.930 . S
C531 C532 1.399 . S
C531 C536 1.399 . S
C532 C531 1.399 . S
C532 C533 1.376 . S
C533 H520 0.930 . S
C533 C532 1.376 . S
C533 C534 1.388 . S
C534 H521 0.930 . S
C534 C533 1.388 . S
C534 C535 1.390 . S
C535 C534 1.390 . S
C535 C536 1.394 . S
C535 C541 1.465 . S
C536 C531 1.399 . S
C536 C535 1.394 . S
C536 C537 1.516 . S
C537 C536 1.516 . S
C537 C538 1.502 . S
C537 C539 1.561 . S
C537 C540 1.526 . S
C538 H522 0.959 . S
C538 H523 0.959 . S
C538 H524 0.961 . S
C538 C537 1.502 . S
C539 H525 0.960 . S
C539 H526 0.961 . S
C539 H527 0.959 . S
C539 C537 1.561 . S
C540 C537 1.526 . S
C540 C541 1.396 . S
C540 C545 1.390 . S
C541 C535 1.465 . S
C541 C540 1.396 . S
C541 C542 1.399 . S
C542 H528 0.929 . S
C542 C541 1.399 . S
C542 C543 1.385 . S
C543 H529 0.931 . S
C543 C542 1.385 . S
C543 C544 1.389 . S
C544 C543 1.389 . S
C544 C545 1.387 . S
C545 H530 0.930 . S
C545 C540 1.390 . S
C545 C544 1.387 . S
H546 C558 0.930 . S
H547 C560 0.930 . S
H548 C561 0.930 . S
H549 C565 0.959 . S
H550 C565 0.959 . S
H551 C565 0.961 . S
H552 C566 0.960 . S
H553 C566 0.961 . S
H554 C566 0.959 . S
H555 C569 0.929 . S
H556 C570 0.931 . S
H557 C572 0.930 . S
C558 H546 0.930 . S
C558 C559 1.399 . S
C558 C563 1.399 . S
C559 C558 1.399 . S
C559 C560 1.376 . S
C560 H547 0.930 . S
C560 C559 1.376 . S
C560 C561 1.388 . S
C561 H548 0.930 . S
C561 C560 1.388 . S
C561 C562 1.390 . S
C562 C561 1.390 . S
C562 C563 1.394 . S
C562 C568 1.465 . S
C563 C558 1.399 . S
C563 C562 1.394 . S
C563 C564 1.516 . S
C564 C563 1.516 . S
C564 C565 1.502 . S
C564 C566 1.561 . S
C564 C567 1.526 . S
C565 H549 0.959 . S
C565 H550 0.959 . S
C565 H551 0.961 . S
C565 C564 1.502 . S
C566 H552 0.960 . S
C566 H553 0.961 . S
C566 H554 0.959 . S
C566 C564 1.561 . S
C567 C564 1.526 . S
C567 C568 1.396 . S
C567 C572 1.390 . S
C568 C562 1.465 . S
C568 C567 1.396 . S
C568 C569 1.399 . S
C569 H555 0.929 . S
C569 C568 1.399 . S
C569 C570 1.385 . S
C570 H556 0.931 . S
C570 C569 1.385 . S
C570 C571 1.389 . S
C571 C570 1.389 . S
C571 C572 1.387 . S
C572 H557 0.930 . S
C572 C567 1.390 . S
C572 C571 1.387 . S
H573 C585 0.930 . S
H574 C587 0.930 . S
H575 C588 0.930 . S
H576 C592 0.959 . S
H577 C592 0.959 . S
H578 C592 0.961 . S
H579 C593 0.960 . S
H580 C593 0.961 . S
H581 C593 0.959 . S
H582 C596 0.929 . S
H583 C597 0.931 . S
H584 C599 0.930 . S
C585 H573 0.930 . S
C585 C586 1.399 . S
C585 C590 1.399 . S
C586 C585 1.399 . S
C586 C587 1.376 . S
C587 H574 0.930 . S
C587 C586 1.376 . S
C587 C588 1.388 . S
C588 H575 0.930 . S
C588 C587 1.388 . S
C588 C589 1.390 . S
C589 C588 1.390 . S
C589 C590 1.394 . S
C589 C595 1.465 . S
C590 C585 1.399 . S
C590 C589 1.394 . S
C590 C591 1.516 . S
C591 C590 1.516 . S
C591 C592 1.502 . S
C591 C593 1.561 . S
C591 C594 1.526 . S
C592 H576 0.959 . S
C592 H577 0.959 . S
C592 H578 0.961 . S
C592 C591 1.502 . S
C593 H579 0.960 . S
C593 H580 0.961 . S
C593 H581 0.959 . S
C593 C591 1.561 . S
C594 C591 1.526 . S
C594 C595 1.396 . S
C594 C599 1.390 . S
C595 C589 1.465 . S
C595 C594 1.396 . S
C595 C596 1.399 . S
C596 H582 0.929 . S
C596 C595 1.399 . S
C596 C597 1.385 . S
C597 H583 0.931 . S
C597 C596 1.385 . S
C597 C598 1.389 . S
C598 C597 1.389 . S
C598 C599 1.387 . S
C599 H584 0.930 . S
C599 C594 1.390 . S
C599 C598 1.387 . S
H600 C612 0.930 . S
H601 C614 0.930 . S
H602 C615 0.930 . S
H603 C619 0.959 . S
H604 C619 0.959 . S
H605 C619 0.961 . S
H606 C620 0.960 . S
H607 C620 0.961 . S
H608 C620 0.959 . S
H609 C623 0.929 . S
H610 C624 0.931 . S
H611 C626 0.930 . S
C612 H600 0.930 . S
C612 C613 1.399 . S
C612 C617 1.399 . S
C613 C612 1.399 . S
C613 C614 1.376 . S
C614 H601 0.930 . S
C614 C613 1.376 . S
C614 C615 1.388 . S
C615 H602 0.930 . S
C615 C614 1.388 . S
C615 C616 1.390 . S
C616 C615 1.390 . S
C616 C617 1.394 . S
C616 C622 1.465 . S
C617 C612 1.399 . S
C617 C616 1.394 . S
C617 C618 1.516 . S
C618 C617 1.516 . S
C618 C619 1.502 . S
C618 C620 1.561 . S
C618 C621 1.526 . S
C619 H603 0.959 . S
C619 H604 0.959 . S
C619 H605 0.961 . S
C619 C618 1.502 . S
C620 H606 0.960 . S
C620 H607 0.961 . S
C620 H608 0.959 . S
C620 C618 1.561 . S
C621 C618 1.526 . S
C621 C622 1.396 . S
C621 C626 1.390 . S
C622 C616 1.465 . S
C622 C621 1.396 . S
C622 C623 1.399 . S
C623 H609 0.929 . S
C623 C622 1.399 . S
C623 C624 1.385 . S
C624 H610 0.931 . S
C624 C623 1.385 . S
C624 C625 1.389 . S
C625 C624 1.389 . S
C625 C626 1.387 . S
C626 H611 0.930 . S
C626 C621 1.390 . S
C626 C625 1.387 . S
H627 C639 0.930 . S
H628 C641 0.930 . S
H629 C642 0.930 . S
H630 C646 0.959 . S
H631 C646 0.959 . S
H632 C646 0.961 . S
H633 C647 0.960 . S
H634 C647 0.961 . S
H635 C647 0.959 . S
H636 C650 0.929 . S
H637 C651 0.931 . S
H638 C653 0.930 . S
C639 H627 0.930 . S
C639 C640 1.399 . S
C639 C644 1.399 . S
C640 C639 1.399 . S
C640 C641 1.376 . S
C641 H628 0.930 . S
C641 C640 1.376 . S
C641 C642 1.388 . S
C642 H629 0.930 . S
C642 C641 1.388 . S
C642 C643 1.390 . S
C643 C642 1.390 . S
C643 C644 1.394 . S
C643 C649 1.465 . S
C644 C639 1.399 . S
C644 C643 1.394 . S
C644 C645 1.516 . S
C645 C644 1.516 . S
C645 C646 1.502 . S
C645 C647 1.561 . S
C645 C648 1.526 . S
C646 H630 0.959 . S
C646 H631 0.959 . S
C646 H632 0.961 . S
C646 C645 1.502 . S
C647 H633 0.960 . S
C647 H634 0.961 . S
C647 H635 0.959 . S
C647 C645 1.561 . S
C648 C645 1.526 . S
C648 C649 1.396 . S
C648 C653 1.390 . S
C649 C643 1.465 . S
C649 C648 1.396 . S
C649 C650 1.399 . S
C650 H636 0.929 . S
C650 C649 1.399 . S
C650 C651 1.385 . S
C651 H637 0.931 . S
C651 C650 1.385 . S
C651 C652 1.389 . S
C652 C651 1.389 . S
C652 C653 1.387 . S
C653 H638 0.930 . S
C653 C648 1.390 . S
C653 C652 1.387 . S
H654 C666 0.930 . S
H655 C668 0.930 . S
H656 C669 0.930 . S
H657 C673 0.959 . S
H658 C673 0.959 . S
H659 C673 0.961 . S
H660 C674 0.960 . S
H661 C674 0.961 . S
H662 C674 0.959 . S
H663 C677 0.929 . S
H664 C678 0.931 . S
H665 C680 0.930 . S
C666 H654 0.930 . S
C666 C667 1.399 . S
C666 C671 1.399 . S
C667 C666 1.399 . S
C667 C668 1.376 . S
C668 H655 0.930 . S
C668 C667 1.376 . S
C668 C669 1.388 . S
C669 H656 0.930 . S
C669 C668 1.388 . S
C669 C670 1.390 . S
C670 C669 1.390 . S
C670 C671 1.394 . S
C670 C676 1.465 . S
C671 C666 1.399 . S
C671 C670 1.394 . S
C671 C672 1.516 . S
C672 C671 1.516 . S
C672 C673 1.502 . S
C672 C674 1.561 . S
C672 C675 1.526 . S
C673 H657 0.959 . S
C673 H658 0.959 . S
C673 H659 0.961 . S
C673 C672 1.502 . S
C674 H660 0.960 . S
C674 H661 0.961 . S
C674 H662 0.959 . S
C674 C672 1.561 . S
C675 C672 1.526 . S
C675 C676 1.396 . S
C675 C680 1.390 . S
C676 C670 1.465 . S
C676 C675 1.396 . S
C676 C677 1.399 . S
C677 H663 0.929 . S
C677 C676 1.399 . S
C677 C678 1.385 . S
C678 H664 0.931 . S
C678 C677 1.385 . S
C678 C679 1.389 . S
C679 C678 1.389 . S
C679 C680 1.387 . S
C680 H665 0.930 . S
C680 C675 1.390 . S
C680 C679 1.387 . S
H681 C693 0.930 . S
H682 C695 0.930 . S
H683 C696 0.930 . S
H684 C700 0.959 . S
H685 C700 0.959 . S
H686 C700 0.961 . S
H687 C701 0.960 . S
H688 C701 0.961 . S
H689 C701 0.959 . S
H690 C704 0.929 . S
H691 C705 0.931 . S
H692 C707 0.930 . S
C693 H681 0.930 . S
C693 C694 1.399 . S
C693 C698 1.399 . S
C694 C693 1.399 . S
C694 C695 1.376 . S
C695 H682 0.930 . S
C695 C694 1.376 . S
C695 C696 1.388 . S
C696 H683 0.930 . S
C696 C695 1.388 . S
C696 C697 1.390 . S
C697 C696 1.390 . S
C697 C698 1.394 . S
C697 C703 1.465 . S
C698 C693 1.399 . S
C698 C697 1.394 . S
C698 C699 1.516 . S
C699 C698 1.516 . S
C699 C700 1.502 . S
C699 C701 1.561 . S
C699 C702 1.526 . S
C700 H684 0.959 . S
C700 H685 0.959 . S
C700 H686 0.961 . S
C700 C699 1.502 . S
C701 H687 0.960 . S
C701 H688 0.961 . S
C701 H689 0.959 . S
C701 C699 1.561 . S
C702 C699 1.526 . S
C702 C703 1.396 . S
C702 C707 1.390 . S
C703 C697 1.465 . S
C703 C702 1.396 . S
C703 C704 1.399 . S
C704 H690 0.929 . S
C704 C703 1.399 . S
C704 C705 1.385 . S
C705 H691 0.931 . S
C705 C704 1.385 . S
C705 C706 1.389 . S
C706 C705 1.389 . S
C706 C707 1.387 . S
C707 H692 0.930 . S
C707 C702 1.390 . S
C707 C706 1.387 . S
H708 C720 0.930 . S
H709 C722 0.930 . S
H710 C723 0.930 . S
H711 C727 0.959 . S
H712 C727 0.959 . S
H713 C727 0.961 . S
H714 C728 0.960 . S
H715 C728 0.961 . S
H716 C728 0.959 . S
H717 C731 0.929 . S
H718 C732 0.931 . S
H719 C734 0.930 . S
C720 H708 0.930 . S
C720 C721 1.399 . S
C720 C725 1.399 . S
C721 C720 1.399 . S
C721 C722 1.376 . S
C722 H709 0.930 . S
C722 C721 1.376 . S
C722 C723 1.388 . S
C723 H710 0.930 . S
C723 C722 1.388 . S
C723 C724 1.390 . S
C724 C723 1.390 . S
C724 C725 1.394 . S
C724 C730 1.465 . S
C725 C720 1.399 . S
C725 C724 1.394 . S
C725 C726 1.516 . S
C726 C725 1.516 . S
C726 C727 1.502 . S
C726 C728 1.561 . S
C726 C729 1.526 . S
C727 H711 0.959 . S
C727 H712 0.959 . S
C727 H713 0.961 . S
C727 C726 1.502 . S
C728 H714 0.960 . S
C728 H715 0.961 . S
C728 H716 0.959 . S
C728 C726 1.561 . S
C729 C726 1.526 . S
C729 C730 1.396 . S
C729 C734 1.390 . S
C730 C724 1.465 . S
C730 C729 1.396 . S
C730 C731 1.399 . S
C731 H717 0.929 . S
C731 C730 1.399 . S
C731 C732 1.385 . S
C732 H718 0.931 . S
C732 C731 1.385 . S
C732 C733 1.389 . S
C733 C732 1.389 . S
C733 C734 1.387 . S
C734 H719 0.930 . S
C734 C729 1.390 . S
C734 C733 1.387 . S
H735 C747 0.930 . S
H736 C749 0.930 . S
H737 C750 0.930 . S
H738 C754 0.959 . S
H739 C754 0.959 . S
H740 C754 0.961 . S
H741 C755 0.960 . S
H742 C755 0.961 . S
H743 C755 0.959 . S
H744 C758 0.929 . S
H745 C759 0.931 . S
H746 C761 0.930 . S
C747 H735 0.930 . S
C747 C748 1.399 . S
C747 C752 1.399 . S
C748 C747 1.399 . S
C748 C749 1.376 . S
C749 H736 0.930 . S
C749 C748 1.376 . S
C749 C750 1.388 . S
C750 H737 0.930 . S
C750 C749 1.388 . S
C750 C751 1.390 . S
C751 C750 1.390 . S
C751 C752 1.394 . S
C751 C757 1.465 . S
C752 C747 1.399 . S
C752 C751 1.394 . S
C752 C753 1.516 . S
C753 C752 1.516 . S
C753 C754 1.502 . S
C753 C755 1.561 . S
C753 C756 1.526 . S
C754 H738 0.959 . S
C754 H739 0.959 . S
C754 H740 0.961 . S
C754 C753 1.502 . S
C755 H741 0.960 . S
C755 H742 0.961 . S
C755 H743 0.959 . S
C755 C753 1.561 . S
C756 C753 1.526 . S
C756 C757 1.396 . S
C756 C761 1.390 . S
C757 C751 1.465 . S
C757 C756 1.396 . S
C757 C758 1.399 . S
C758 H744 0.929 . S
C758 C757 1.399 . S
C758 C759 1.385 . S
C759 H745 0.931 . S
C759 C758 1.385 . S
C759 C760 1.389 . S
C760 C759 1.389 . S
C760 C761 1.387 . S
C761 H746 0.930 . S
C761 C756 1.390 . S
C761 C760 1.387 . S
H762 C774 0.930 . S
H763 C776 0.930 . S
H764 C777 0.930 . S
H765 C781 0.959 . S
H766 C781 0.959 . S
H767 C781 0.961 . S
H768 C782 0.960 . S
H769 C782 0.961 . S
H770 C782 0.959 . S
H771 C785 0.929 . S
H772 C786 0.931 . S
H773 C788 0.930 . S
C774 H762 0.930 . S
C774 C775 1.399 . S
C774 C779 1.399 . S
C775 C774 1.399 . S
C775 C776 1.376 . S
C776 H763 0.930 . S
C776 C775 1.376 . S
C776 C777 1.388 . S
C777 H764 0.930 . S
C777 C776 1.388 . S
C777 C778 1.390 . S
C778 C777 1.390 . S
C778 C779 1.394 . S
C778 C784 1.465 . S
C779 C774 1.399 . S
C779 C778 1.394 . S
C779 C780 1.516 . S
C780 C779 1.516 . S
C780 C781 1.502 . S
C780 C782 1.561 . S
C780 C783 1.526 . S
C781 H765 0.959 . S
C781 H766 0.959 . S
C781 H767 0.961 . S
C781 C780 1.502 . S
C782 H768 0.960 . S
C782 H769 0.961 . S
C782 H770 0.959 . S
C782 C780 1.561 . S
C783 C780 1.526 . S
C783 C784 1.396 . S
C783 C788 1.390 . S
C784 C778 1.465 . S
C784 C783 1.396 . S
C784 C785 1.399 . S
C785 H771 0.929 . S
C785 C784 1.399 . S
C785 C786 1.385 . S
C786 H772 0.931 . S
C786 C785 1.385 . S
C786 C787 1.389 . S
C787 C786 1.389 . S
C787 C788 1.387 . S
C788 H773 0.930 . S
C788 C783 1.390 . S
C788 C787 1.387 . S
H789 C801 0.930 . S
H790 C803 0.930 . S
H791 C804 0.930 . S
H792 C808 0.959 . S
H793 C808 0.959 . S
H794 C808 0.961 . S
H795 C809 0.960 . S
H796 C809 0.940 1_554 S
H797 C809 0.959 . S
H798 C812 0.929 . S
H799 C813 0.931 . S
H800 C815 0.930 . S
C801 H789 0.930 . S
C801 C802 1.399 . S
C801 C806 1.399 . S
C802 C801 1.399 . S
C802 C803 1.376 . S
C803 H790 0.930 . S
C803 C802 1.376 . S
C803 C804 1.388 . S
C804 H791 0.930 . S
C804 C803 1.388 . S
C804 C805 1.390 . S
C805 C804 1.390 . S
C805 C806 1.394 . S
C805 C811 1.465 . S
C806 C801 1.399 . S
C806 C805 1.394 . S
C806 C807 1.516 . S
C807 C806 1.516 . S
C807 C808 1.502 . S
C807 C809 1.561 . S
C807 C810 1.526 . S
C808 H792 0.959 . S
C808 H793 0.959 . S
C808 H794 0.961 . S
C808 C807 1.502 . S
C809 H795 0.960 . S
C809 H796 0.940 1_556 S
C809 H797 0.959 . S
C809 C807 1.561 . S
C810 C807 1.526 . S
C810 C811 1.396 . S
C810 C815 1.390 . S
C811 C805 1.465 . S
C811 C810 1.396 . S
C811 C812 1.399 . S
C812 H798 0.929 . S
C812 C811 1.399 . S
C812 C813 1.385 . S
C813 H799 0.931 . S
C813 C812 1.385 . S
C813 C814 1.389 . S
C814 C813 1.389 . S
C814 C815 1.387 . S
C815 H800 0.930 . S
C815 C810 1.390 . S
C815 C814 1.387 . S
C181 C153 1.372 . S
C193 C13 1.373 . S
C208 C27 1.206 . S
C220 C167 1.200 . S
C235 C41 1.377 . S
C247 C97 1.378 . S
C262 C111 1.253 . S
C274 C55 1.264 . S
C289 C125 1.147 . S
C301 C69 1.145 . S
C316 C83 1.312 . S
C328 C139 1.323 . S
C343 C11 0.898 . S
C355 C109 0.938 . S
C370 C25 0.830 . S
C382 C123 0.817 . S
C397 C137 0.907 . S
C409 C39 0.937 . S
C424 C151 0.884 . S
C436 C53 0.911 . S
C451 C165 0.800 . S
C463 C67 0.804 . S
C478 C95 0.915 . S
C490 C81 0.921 . S
C505 C8 0.934 . S
C517 C63 0.927 . S
C532 C22 0.972 . S
C544 C77 0.966 . S
C559 C36 0.913 . S
C571 C7 0.916 . S
C586 C50 0.958 . S
C598 C21 0.947 . S
C613 C64 0.821 . S
C625 C35 0.841 . S
C640 C78 0.916 . S
C652 C49 0.909 . S
C667 C92 0.951 . S
C679 C119 0.938 . S
C694 C106 0.902 . S
C706 C133 0.905 . S
C721 C147 0.839 . S
C733 C120 0.823 . S
C748 C134 0.985 . S
C760 C161 0.984 . S
C775 C148 0.895 . S
C787 C91 0.887 . S
C802 C162 0.883 . S
C814 C105 0.882 . S
