# Generated by pormake.
# Topology ato, (4)-cn, num edge types: 1
# Building blocks:
#     Node 0, Type 0, BuildingBlock: QUQFOY_clean_sbu_3, # of connection points: 4
#     Node 1, Type 0, BuildingBlock: QUQFOY_clean_sbu_3, # of connection points: 4
#     Node 2, Type 0, BuildingBlock: QUQFOY_clean_sbu_3, # of connection points: 4
#     Node 3, Type 0, BuildingBlock: QUQFOY_clean_sbu_3, # of connection points: 4
#     Node 4, Type 0, BuildingBlock: QUQFOY_clean_sbu_3, # of connection points: 4
#     Node 5, Type 0, BuildingBlock: QUQFOY_clean_sbu_3, # of connection points: 4
#     Node 6, Type 0, BuildingBlock: QUQFOY_clean_sbu_3, # of connection points: 4
#     Node 7, Type 0, BuildingBlock: QUQFOY_clean_sbu_3, # of connection points: 4
#     Node 8, Type 0, BuildingBlock: QUQFOY_clean_sbu_3, # of connection points: 4
#     Node 9, Type 0, BuildingBlock: QUQFOY_clean_sbu_3, # of connection points: 4
#     Node 10, Type 0, BuildingBlock: QUQFOY_clean_sbu_3, # of connection points: 4
#     Node 11, Type 0, BuildingBlock: QUQFOY_clean_sbu_3, # of connection points: 4
#     Node 12, Type 0, BuildingBlock: QUQFOY_clean_sbu_3, # of connection points: 4
#     Node 13, Type 0, BuildingBlock: QUQFOY_clean_sbu_3, # of connection points: 4
#     Node 14, Type 0, BuildingBlock: QUQFOY_clean_sbu_3, # of connection points: 4
#     Node 15, Type 0, BuildingBlock: QUQFOY_clean_sbu_3, # of connection points: 4
#     Node 16, Type 0, BuildingBlock: QUQFOY_clean_sbu_3, # of connection points: 4
#     Node 17, Type 0, BuildingBlock: QUQFOY_clean_sbu_3, # of connection points: 4
#     Node 18, Type 0, BuildingBlock: QUQFOY_clean_sbu_3, # of connection points: 4
#     Node 19, Type 0, BuildingBlock: QUQFOY_clean_sbu_3, # of connection points: 4
#     Node 20, Type 0, BuildingBlock: QUQFOY_clean_sbu_3, # of connection points: 4
#     Node 21, Type 0, BuildingBlock: QUQFOY_clean_sbu_3, # of connection points: 4
#     Node 22, Type 0, BuildingBlock: QUQFOY_clean_sbu_3, # of connection points: 4
#     Node 23, Type 0, BuildingBlock: QUQFOY_clean_sbu_3, # of connection points: 4
#     Node 24, Type 0, BuildingBlock: QUQFOY_clean_sbu_3, # of connection points: 4
#     Node 25, Type 0, BuildingBlock: QUQFOY_clean_sbu_3, # of connection points: 4
#     Node 26, Type 0, BuildingBlock: QUQFOY_clean_sbu_3, # of connection points: 4
#     Node 27, Type 0, BuildingBlock: QUQFOY_clean_sbu_3, # of connection points: 4
#     Node 28, Type 0, BuildingBlock: QUQFOY_clean_sbu_3, # of connection points: 4
#     Node 29, Type 0, BuildingBlock: QUQFOY_clean_sbu_3, # of connection points: 4
#     Node 30, Type 0, BuildingBlock: QUQFOY_clean_sbu_3, # of connection points: 4
#     Node 31, Type 0, BuildingBlock: QUQFOY_clean_sbu_3, # of connection points: 4
#     Node 32, Type 0, BuildingBlock: QUQFOY_clean_sbu_3, # of connection points: 4
#     Node 33, Type 0, BuildingBlock: QUQFOY_clean_sbu_3, # of connection points: 4
#     Node 34, Type 0, BuildingBlock: QUQFOY_clean_sbu_3, # of connection points: 4
#     Node 35, Type 0, BuildingBlock: QUQFOY_clean_sbu_3, # of connection points: 4
#     Edge 36, Type (0, 0), BuildingBlock: EZIPEK_clean_linker_0, # of connection points: 2
#     Edge 37, Type (0, 0), BuildingBlock: EZIPEK_clean_linker_0, # of connection points: 2
#     Edge 38, Type (0, 0), BuildingBlock: EZIPEK_clean_linker_0, # of connection points: 2
#     Edge 39, Type (0, 0), BuildingBlock: EZIPEK_clean_linker_0, # of connection points: 2
#     Edge 40, Type (0, 0), BuildingBlock: EZIPEK_clean_linker_0, # of connection points: 2
#     Edge 41, Type (0, 0), BuildingBlock: EZIPEK_clean_linker_0, # of connection points: 2
#     Edge 42, Type (0, 0), BuildingBlock: EZIPEK_clean_linker_0, # of connection points: 2
#     Edge 43, Type (0, 0), BuildingBlock: EZIPEK_clean_linker_0, # of connection points: 2
#     Edge 44, Type (0, 0), BuildingBlock: EZIPEK_clean_linker_0, # of connection points: 2
#     Edge 45, Type (0, 0), BuildingBlock: EZIPEK_clean_linker_0, # of connection points: 2
#     Edge 46, Type (0, 0), BuildingBlock: EZIPEK_clean_linker_0, # of connection points: 2
#     Edge 47, Type (0, 0), BuildingBlock: EZIPEK_clean_linker_0, # of connection points: 2
#     Edge 48, Type (0, 0), BuildingBlock: EZIPEK_clean_linker_0, # of connection points: 2
#     Edge 49, Type (0, 0), BuildingBlock: EZIPEK_clean_linker_0, # of connection points: 2
#     Edge 50, Type (0, 0), BuildingBlock: EZIPEK_clean_linker_0, # of connection points: 2
#     Edge 51, Type (0, 0), BuildingBlock: EZIPEK_clean_linker_0, # of connection points: 2
#     Edge 52, Type (0, 0), BuildingBlock: EZIPEK_clean_linker_0, # of connection points: 2
#     Edge 53, Type (0, 0), BuildingBlock: EZIPEK_clean_linker_0, # of connection points: 2
#     Edge 54, Type (0, 0), BuildingBlock: EZIPEK_clean_linker_0, # of connection points: 2
#     Edge 55, Type (0, 0), BuildingBlock: EZIPEK_clean_linker_0, # of connection points: 2
#     Edge 56, Type (0, 0), BuildingBlock: EZIPEK_clean_linker_0, # of connection points: 2
#     Edge 57, Type (0, 0), BuildingBlock: EZIPEK_clean_linker_0, # of connection points: 2
#     Edge 58, Type (0, 0), BuildingBlock: EZIPEK_clean_linker_0, # of connection points: 2
#     Edge 59, Type (0, 0), BuildingBlock: EZIPEK_clean_linker_0, # of connection points: 2
#     Edge 60, Type (0, 0), BuildingBlock: EZIPEK_clean_linker_0, # of connection points: 2
#     Edge 61, Type (0, 0), BuildingBlock: EZIPEK_clean_linker_0, # of connection points: 2
#     Edge 62, Type (0, 0), BuildingBlock: EZIPEK_clean_linker_0, # of connection points: 2
#     Edge 63, Type (0, 0), BuildingBlock: EZIPEK_clean_linker_0, # of connection points: 2
#     Edge 64, Type (0, 0), BuildingBlock: EZIPEK_clean_linker_0, # of connection points: 2
#     Edge 65, Type (0, 0), BuildingBlock: EZIPEK_clean_linker_0, # of connection points: 2
#     Edge 66, Type (0, 0), BuildingBlock: EZIPEK_clean_linker_0, # of connection points: 2
#     Edge 67, Type (0, 0), BuildingBlock: EZIPEK_clean_linker_0, # of connection points: 2
#     Edge 68, Type (0, 0), BuildingBlock: EZIPEK_clean_linker_0, # of connection points: 2
#     Edge 69, Type (0, 0), BuildingBlock: EZIPEK_clean_linker_0, # of connection points: 2
#     Edge 70, Type (0, 0), BuildingBlock: EZIPEK_clean_linker_0, # of connection points: 2
#     Edge 71, Type (0, 0), BuildingBlock: EZIPEK_clean_linker_0, # of connection points: 2
#     Edge 72, Type (0, 0), BuildingBlock: EZIPEK_clean_linker_0, # of connection points: 2
#     Edge 73, Type (0, 0), BuildingBlock: EZIPEK_clean_linker_0, # of connection points: 2
#     Edge 74, Type (0, 0), BuildingBlock: EZIPEK_clean_linker_0, # of connection points: 2
#     Edge 75, Type (0, 0), BuildingBlock: EZIPEK_clean_linker_0, # of connection points: 2
#     Edge 76, Type (0, 0), BuildingBlock: EZIPEK_clean_linker_0, # of connection points: 2
#     Edge 77, Type (0, 0), BuildingBlock: EZIPEK_clean_linker_0, # of connection points: 2
#     Edge 78, Type (0, 0), BuildingBlock: EZIPEK_clean_linker_0, # of connection points: 2
#     Edge 79, Type (0, 0), BuildingBlock: EZIPEK_clean_linker_0, # of connection points: 2
#     Edge 80, Type (0, 0), BuildingBlock: EZIPEK_clean_linker_0, # of connection points: 2
#     Edge 81, Type (0, 0), BuildingBlock: EZIPEK_clean_linker_0, # of connection points: 2
#     Edge 82, Type (0, 0), BuildingBlock: EZIPEK_clean_linker_0, # of connection points: 2
#     Edge 83, Type (0, 0), BuildingBlock: EZIPEK_clean_linker_0, # of connection points: 2
#     Edge 84, Type (0, 0), BuildingBlock: EZIPEK_clean_linker_0, # of connection points: 2
#     Edge 85, Type (0, 0), BuildingBlock: EZIPEK_clean_linker_0, # of connection points: 2
#     Edge 86, Type (0, 0), BuildingBlock: EZIPEK_clean_linker_0, # of connection points: 2
#     Edge 87, Type (0, 0), BuildingBlock: EZIPEK_clean_linker_0, # of connection points: 2
#     Edge 88, Type (0, 0), BuildingBlock: EZIPEK_clean_linker_0, # of connection points: 2
#     Edge 89, Type (0, 0), BuildingBlock: EZIPEK_clean_linker_0, # of connection points: 2
#     Edge 90, Type (0, 0), BuildingBlock: EZIPEK_clean_linker_0, # of connection points: 2
#     Edge 91, Type (0, 0), BuildingBlock: EZIPEK_clean_linker_0, # of connection points: 2
#     Edge 92, Type (0, 0), BuildingBlock: EZIPEK_clean_linker_0, # of connection points: 2
#     Edge 93, Type (0, 0), BuildingBlock: EZIPEK_clean_linker_0, # of connection points: 2
#     Edge 94, Type (0, 0), BuildingBlock: EZIPEK_clean_linker_0, # of connection points: 2
#     Edge 95, Type (0, 0), BuildingBlock: EZIPEK_clean_linker_0, # of connection points: 2
#     Edge 96, Type (0, 0), BuildingBlock: EZIPEK_clean_linker_0, # of connection points: 2
#     Edge 97, Type (0, 0), BuildingBlock: EZIPEK_clean_linker_0, # of connection points: 2
#     Edge 98, Type (0, 0), BuildingBlock: EZIPEK_clean_linker_0, # of connection points: 2
#     Edge 99, Type (0, 0), BuildingBlock: EZIPEK_clean_linker_0, # of connection points: 2
#     Edge 100, Type (0, 0), BuildingBlock: EZIPEK_clean_linker_0, # of connection points: 2
#     Edge 101, Type (0, 0), BuildingBlock: EZIPEK_clean_linker_0, # of connection points: 2
#     Edge 102, Type (0, 0), BuildingBlock: EZIPEK_clean_linker_0, # of connection points: 2
#     Edge 103, Type (0, 0), BuildingBlock: EZIPEK_clean_linker_0, # of connection points: 2
#     Edge 104, Type (0, 0), BuildingBlock: EZIPEK_clean_linker_0, # of connection points: 2
#     Edge 105, Type (0, 0), BuildingBlock: EZIPEK_clean_linker_0, # of connection points: 2
#     Edge 106, Type (0, 0), BuildingBlock: EZIPEK_clean_linker_0, # of connection points: 2
#     Edge 107, Type (0, 0), BuildingBlock: EZIPEK_clean_linker_0, # of connection points: 2
# Relax obj value: 0.074
# Max RMSD: 0.090
# Mean RMSD: 0.090
data_MOF--net-ato--node1-QUQFOY_clean_sbu_3--edge1-EZIPEK_clean_linker_0
_symmetry_space_group_name_H-M    P1
_symmetry_Int_Tables_number       1
_symmetry_cell_setting            triclinic
loop_
_symmetry_equiv_pos_as_xyz
'x, y, z'
_cell_length_a     77.253922
_cell_length_b     77.162385
_cell_length_c     18.126758
_cell_angle_alpha  89.924973
_cell_angle_beta   90.031343
_cell_angle_gamma 119.95828
loop_
_atom_site_label
_atom_site_type_symbol
_atom_site_fract_x
_atom_site_fract_y
_atom_site_fract_z
_atom_type_partial_charge
C0 C 0.23209 0.06821 0.26272 0.0
O1 O 0.23044 0.06335 0.19511 0.0
Cd2 Cd 0.23798 0.04015 0.13873 0.0
O3 O 0.23719 0.05966 0.31129 0.0
Cd4 Cd 0.24646 0.03321 0.3123 0.0
C5 C 0.28621 0.06273 0.20366 0.0
O6 O 0.22387 0.01234 0.21929 0.0
O7 O 0.24639 0.00494 0.25008 0.0
O8 O 0.22605 0.01744 0.41886 0.0
C9 C 0.23103 0.00088 0.21223 0.0
O10 O 0.2743 0.05826 0.14925 0.0
C11 C 0.23983 0.01712 0.45587 0.0
O12 O 0.28004 0.05635 0.26868 0.0
O13 O 0.25724 0.02541 0.42799 0.0
C14 C 0.91403 0.13686 0.24871 0.0
O15 O 0.91408 0.13725 0.17864 0.0
Cd16 Cd 0.92614 0.16626 0.10234 0.0
O17 O 0.92138 0.15304 0.28527 0.0
Cd18 Cd 0.93958 0.18903 0.25559 0.0
C19 C 0.9005 0.18839 0.16958 0.0
O20 O 0.95849 0.18919 0.14874 0.0
O21 O 0.95876 0.21686 0.17274 0.0
O22 O 0.96469 0.19496 0.34585 0.0
C23 C 0.9652 0.20754 0.13462 0.0
O24 O 0.90379 0.18005 0.11506 0.0
C25 C 0.96173 0.20693 0.38442 0.0
O26 O 0.91057 0.19226 0.2289 0.0
O27 O 0.94798 0.21037 0.36431 0.0
C28 C 0.85208 0.77016 0.20192 0.0
O29 O 0.84935 0.7673 0.13285 0.0
Cd30 Cd 0.82091 0.76088 0.0602 0.0
O31 O 0.83874 0.76988 0.24383 0.0
Cd32 Cd 0.80442 0.76309 0.22514 0.0
C33 C 0.7876 0.7174 0.14468 0.0
O34 O 0.81022 0.78207 0.11254 0.0
O35 O 0.78003 0.7669 0.15363 0.0
O36 O 0.80837 0.78654 0.32122 0.0
C37 C 0.79227 0.77788 0.10462 0.0
O38 O 0.79673 0.72611 0.08569 0.0
C39 C 0.79295 0.77392 0.3563 0.0
O40 O 0.78891 0.72716 0.20302 0.0
O41 O 0.78359 0.75607 0.3327 0.0
C42 C 0.07162 0.2259 0.76284 0.0
O43 O 0.07477 0.23007 0.83099 0.0
Cd44 Cd 0.06073 0.24525 0.90581 0.0
O45 O 0.05992 0.22975 0.72603 0.0
Cd46 Cd 0.03997 0.24577 0.75476 0.0
C47 C 0.07864 0.28948 0.81545 0.0
O48 O 0.02639 0.22874 0.87058 0.0
O49 O 0.01924 0.25166 0.84088 0.0
O50 O 0.01446 0.22317 0.67049 0.0
C51 C 0.01677 0.23768 0.88392 0.0
O52 O 0.07833 0.28073 0.87536 0.0
C53 C 0.01485 0.23688 0.63066 0.0
O54 O 0.06727 0.27995 0.76173 0.0
O55 O 0.02713 0.25488 0.64784 0.0
C56 C 0.7466 0.85142 0.73366 0.0
O57 O 0.74555 0.85037 0.80357 0.0
Cd58 Cd 0.74303 0.8242 0.88182 0.0
O59 O 0.74664 0.83772 0.69492 0.0
Cd60 Cd 0.74509 0.80572 0.72221 0.0
C61 C 0.70043 0.78493 0.81118 0.0
O62 O 0.76604 0.8157 0.8314 0.0
O63 O 0.75267 0.78477 0.79897 0.0
O64 O 0.76988 0.81306 0.62816 0.0
C65 C 0.76365 0.79849 0.84368 0.0
O66 O 0.70945 0.79634 0.86546 0.0
C67 C 0.75936 0.79684 0.59344 0.0
O68 O 0.70938 0.78602 0.75085 0.0
O69 O 0.74174 0.78513 0.61633 0.0
C70 C 0.13347 0.91576 0.79041 0.0
O71 O 0.13046 0.91343 0.85945 0.0
Cd72 Cd 0.1556 0.91599 0.94205 0.0
O73 O 0.15095 0.92212 0.76494 0.0
Cd74 Cd 0.18508 0.93632 0.81438 0.0
C75 C 0.17471 0.88963 0.85634 0.0
O76 O 0.18302 0.94954 0.93349 0.0
O77 O 0.20891 0.94614 0.91396 0.0
O78 O 0.19454 0.96564 0.73913 0.0
C79 C 0.19998 0.95257 0.95444 0.0
O80 O 0.16362 0.88987 0.90776 0.0
C81 C 0.20793 0.96426 0.70353 0.0
O82 O 0.18355 0.90441 0.81251 0.0
O83 O 0.21105 0.95006 0.72048 0.0
C84 C 0.74382 0.92048 0.72253 0.0
O85 O 0.74665 0.92303 0.79155 0.0
Cd86 Cd 0.73722 0.94218 0.86497 0.0
O87 O 0.7376 0.93026 0.68492 0.0
Cd88 Cd 0.72947 0.95717 0.70867 0.0
C89 C 0.68892 0.92213 0.79919 0.0
O90 O 0.7525 0.97418 0.8077 0.0
O91 O 0.72939 0.98192 0.79163 0.0
O92 O 0.75132 0.97716 0.61074 0.0
C93 C 0.74522 0.98515 0.82434 0.0
O94 O 0.70106 0.92288 0.84836 0.0
C95 C 0.73811 0.97893 0.57541 0.0
O96 O 0.69522 0.93339 0.74257 0.0
O97 O 0.72038 0.96994 0.60047 0.0
C98 C 0.07702 0.84699 0.76453 0.0
O99 O 0.08091 0.84592 0.83186 0.0
Cd100 Cd 0.07029 0.81629 0.90317 0.0
O101 O 0.06659 0.83132 0.72668 0.0
Cd102 Cd 0.05034 0.79528 0.75263 0.0
C103 C 0.09062 0.79256 0.80994 0.0
O104 O 0.03611 0.79468 0.87206 0.0
O105 O 0.03341 0.7667 0.83438 0.0
O106 O 0.02042 0.78799 0.68658 0.0
C107 C 0.02905 0.77605 0.88142 0.0
O108 O 0.08986 0.80074 0.86978 0.0
C109 C 0.02372 0.77982 0.63194 0.0
O110 O 0.079 0.79014 0.75621 0.0
O111 O 0.03953 0.77862 0.63348 0.0
C112 C 0.13329 0.21443 0.74651 0.0
O113 O 0.13527 0.21635 0.81608 0.0
Cd114 Cd 0.1657 0.22962 0.8841 0.0
O115 O 0.1484 0.2196 0.70537 0.0
Cd116 Cd 0.18446 0.23303 0.7231 0.0
C117 C 0.19363 0.27603 0.80686 0.0
O118 O 0.18351 0.21475 0.83272 0.0
O119 O 0.21271 0.23858 0.79809 0.0
O120 O 0.18838 0.21092 0.63997 0.0
C121 C 0.20231 0.22412 0.84125 0.0
O122 O 0.18457 0.26576 0.86359 0.0
C123 C 0.19727 0.22387 0.5899 0.0
O124 O 0.1949 0.26783 0.74779 0.0
O125 O 0.19978 0.24124 0.60082 0.0
C126 C 0.91884 0.76207 0.20556 0.0
O127 O 0.91987 0.76002 0.13653 0.0
Cd128 Cd 0.9372 0.74562 0.07733 0.0
O129 O 0.92835 0.75735 0.25105 0.0
Cd130 Cd 0.95052 0.7431 0.24402 0.0
C131 C 0.91348 0.70087 0.16878 0.0
O132 O 0.96905 0.75959 0.13505 0.0
O133 O 0.97221 0.7347 0.17414 0.0
O134 O 0.97443 0.76623 0.33055 0.0
C135 C 0.97759 0.74925 0.13003 0.0
O136 O 0.9165 0.71029 0.10813 0.0
C137 C 0.97152 0.75313 0.37887 0.0
O138 O 0.9232 0.70939 0.22698 0.0
O139 O 0.95815 0.73519 0.36557 0.0
C140 C 0.23354 0.1396 0.21748 0.0
O141 O 0.23692 0.14062 0.14872 0.0
Cd142 Cd 0.24558 0.16886 0.07172 0.0
O143 O 0.2343 0.15421 0.25245 0.0
Cd144 Cd 0.24219 0.18833 0.2198 0.0
C145 C 0.28845 0.2037 0.15492 0.0
O146 O 0.22494 0.18268 0.10254 0.0
O147 O 0.24573 0.21353 0.13272 0.0
O148 O 0.21594 0.18919 0.28945 0.0
C149 C 0.23236 0.20122 0.08944 0.0
O150 O 0.28024 0.19321 0.09782 0.0
C151 C 0.2273 0.20032 0.34036 0.0
O152 O 0.27821 0.20367 0.20992 0.0
O153 O 0.24572 0.20575 0.33557 0.0
C154 C 0.84671 0.07636 0.22797 0.0
O155 O 0.84918 0.07969 0.15908 0.0
Cd156 Cd 0.82369 0.07478 0.07395 0.0
O157 O 0.82939 0.06887 0.2562 0.0
Cd158 Cd 0.79505 0.05617 0.21009 0.0
C159 C 0.80489 0.10211 0.15118 0.0
O160 O 0.79696 0.04122 0.09469 0.0
O161 O 0.76982 0.04231 0.11463 0.0
O162 O 0.78358 0.02748 0.29057 0.0
C163 C 0.77942 0.03652 0.07482 0.0
O164 O 0.81561 0.10108 0.10009 0.0
C165 C 0.77205 0.03131 0.32816 0.0
O166 O 0.79665 0.08818 0.19876 0.0
O167 O 0.771 0.0467 0.31074 0.0
C168 C 0.88958 0.40389 0.57725 0.0
O169 O 0.88857 0.4031 0.50737 0.0
Cd170 Cd 0.89777 0.38415 0.42975 0.0
O171 O 0.89454 0.393 0.61394 0.0
Cd172 Cd 0.90413 0.36785 0.58451 0.0
C173 C 0.94513 0.40325 0.49778 0.0
O174 O 0.88304 0.35122 0.47944 0.0
O175 O 0.90747 0.34554 0.49962 0.0
O176 O 0.88247 0.34545 0.67804 0.0
C177 C 0.89188 0.3416 0.46362 0.0
O178 O 0.93399 0.40171 0.44349 0.0
C179 C 0.89631 0.34495 0.7139 0.0
O180 O 0.93805 0.39335 0.55705 0.0
O181 O 0.91412 0.35559 0.69083 0.0
C182 C 0.58429 0.48177 0.55164 0.0
O183 O 0.58262 0.47909 0.48231 0.0
Cd184 Cd 0.58575 0.50406 0.39708 0.0
O185 O 0.58998 0.49901 0.57825 0.0
Cd186 Cd 0.60324 0.53328 0.53106 0.0
C187 C 0.55654 0.52066 0.47675 0.0
O188 O 0.61845 0.5321 0.41596 0.0
O189 O 0.61498 0.55806 0.43354 0.0
O190 O 0.63179 0.54375 0.61018 0.0
C191 C 0.62179 0.54916 0.39474 0.0
O192 O 0.55823 0.51044 0.42511 0.0
C193 C 0.6288 0.5559 0.64747 0.0
O194 O 0.57045 0.52969 0.52374 0.0
O195 O 0.61394 0.55789 0.6301 0.0
C196 C 0.51725 0.08923 0.57208 0.0
O197 O 0.5154 0.08888 0.50237 0.0
Cd198 Cd 0.48767 0.08547 0.43138 0.0
O199 O 0.50372 0.08811 0.61504 0.0
Cd200 Cd 0.47085 0.08517 0.59985 0.0
C201 C 0.4517 0.04117 0.50633 0.0
O202 O 0.47771 0.10608 0.49237 0.0
O203 O 0.44741 0.09133 0.53256 0.0
O204 O 0.47725 0.10856 0.69838 0.0
C205 C 0.45996 0.10259 0.48481 0.0
O206 O 0.46173 0.05088 0.45006 0.0
C207 C 0.46163 0.09664 0.73415 0.0
O208 O 0.45317 0.04971 0.56801 0.0
O209 O 0.45109 0.07892 0.71008 0.0
C210 C 0.73377 0.57282 0.05674 0.0
O211 O 0.73184 0.573 0.12621 0.0
Cd212 Cd 0.71315 0.58457 0.19308 0.0
O213 O 0.72474 0.57863 0.01325 0.0
Cd214 Cd 0.70161 0.59182 0.03007 0.0
C215 C 0.73597 0.63218 0.12435 0.0
O216 O 0.68212 0.57058 0.13036 0.0
O217 O 0.67756 0.59549 0.106 0.0
O218 O 0.68072 0.57115 0.93183 0.0
C219 C 0.67245 0.57957 0.14193 0.0
O220 O 0.73241 0.62084 0.18005 0.0
C221 C 0.68129 0.58541 0.89498 0.0
O222 O 0.72768 0.6254 0.06221 0.0
O223 O 0.69217 0.60307 0.91909 0.0
C224 C 0.42222 0.18051 0.10167 0.0
O225 O 0.41975 0.17972 0.1711 0.0
Cd226 Cd 0.41328 0.15259 0.25204 0.0
O227 O 0.42158 0.16606 0.0658 0.0
Cd228 Cd 0.41687 0.13308 0.09729 0.0
C229 C 0.37076 0.11564 0.17168 0.0
O230 O 0.43592 0.14232 0.21128 0.0
O231 O 0.42176 0.11128 0.1788 0.0
O232 O 0.44229 0.13856 0.00817 0.0
C233 C 0.43258 0.12479 0.22448 0.0
O234 O 0.37906 0.12673 0.22743 0.0
C235 C 0.43126 0.12255 0.97301 0.0
O236 O 0.38079 0.11583 0.11568 0.0
O237 O 0.41326 0.11179 0.99382 0.0
C238 C 0.79789 0.23713 0.0837 0.0
O239 O 0.79841 0.23335 0.15157 0.0
Cd240 Cd 0.82684 0.24587 0.2301 0.0
O241 O 0.8138 0.24839 0.04811 0.0
Cd242 Cd 0.84941 0.26631 0.08305 0.0
C243 C 0.85391 0.22763 0.14931 0.0
O244 O 0.84611 0.28045 0.19863 0.0
O245 O 0.87581 0.28626 0.17077 0.0
O246 O 0.85515 0.29318 1e-05 0.0
C247 C 0.86461 0.28936 0.21305 0.0
O248 O 0.84513 0.22826 0.20768 0.0
C249 C 0.86762 0.29138 0.96004 0.0
O250 O 0.85574 0.23852 0.09377 0.0
O251 O 0.87158 0.27775 0.9766 0.0
C252 C 0.42697 0.25279 0.06378 0.0
O253 O 0.42879 0.25596 0.13278 0.0
Cd254 Cd 0.42107 0.27756 0.20001 0.0
O255 O 0.42201 0.2627 0.02113 0.0
Cd256 Cd 0.41357 0.28937 0.03665 0.0
C257 C 0.37323 0.2566 0.13449 0.0
O258 O 0.43587 0.30843 0.13508 0.0
O259 O 0.41181 0.31439 0.11298 0.0
O260 O 0.43456 0.30873 0.93575 0.0
C261 C 0.42772 0.31885 0.14775 0.0
O262 O 0.3848 0.25953 0.18886 0.0
C263 C 0.4207 0.30935 0.90033 0.0
O264 O 0.37979 0.26493 0.07218 0.0
O265 O 0.40311 0.29981 0.92644 0.0
C266 C 0.73086 0.17768 0.10528 0.0
O267 O 0.73196 0.18054 0.17449 0.0
Cd268 Cd 0.7303 0.15603 0.25924 0.0
O269 O 0.72621 0.16054 0.08012 0.0
Cd270 Cd 0.71397 0.12656 0.12817 0.0
C271 C 0.76096 0.14087 0.18158 0.0
O272 O 0.69844 0.12638 0.24447 0.0
O273 O 0.70462 0.10216 0.2255 0.0
O274 O 0.6848 0.11463 0.0511 0.0
C275 C 0.69673 0.10987 0.26508 0.0
O276 O 0.75879 0.15113 0.2318 0.0
C277 C 0.68843 0.10301 0.01325 0.0
O278 O 0.74712 0.1312 0.13493 0.0
O279 O 0.7039 0.10198 0.0295 0.0
C280 C 0.79723 0.56325 0.09218 0.0
O281 O 0.79614 0.56519 0.16116 0.0
Cd282 Cd 0.82228 0.57265 0.24673 0.0
O283 O 0.81276 0.56443 0.06338 0.0
Cd284 Cd 0.84495 0.57051 0.11362 0.0
C285 C 0.85804 0.61631 0.17502 0.0
O286 O 0.83557 0.55069 0.22826 0.0
O287 O 0.86676 0.57281 0.21274 0.0
O288 O 0.84461 0.54678 0.02466 0.0
C289 C 0.85357 0.55822 0.24944 0.0
O290 O 0.84711 0.60787 0.23098 0.0
C291 C 0.86152 0.55906 -0.00256 0.0
O292 O 0.85874 0.60619 0.1211 0.0
O293 O 0.87071 0.57654 0.02447 0.0
C294 C 0.58433 0.08102 0.59115 0.0
O295 O 0.58731 0.08159 0.52212 0.0
Cd296 Cd 0.60752 0.07119 0.45939 0.0
O297 O 0.59326 0.07544 0.63615 0.0
Cd298 Cd 0.61737 0.06334 0.62695 0.0
C299 C 0.58328 0.02354 0.52951 0.0
O300 O 0.63733 0.08491 0.52969 0.0
O301 O 0.64285 0.06072 0.55518 0.0
O302 O 0.63619 0.08446 0.72763 0.0
C303 C 0.64759 0.07654 0.51904 0.0
O304 O 0.58748 0.03506 0.47397 0.0
C305 C 0.63641 0.07067 0.76506 0.0
O306 O 0.59131 0.02997 0.59232 0.0
O307 O 0.62679 0.05293 0.74022 0.0
C308 C 0.88973 0.47427 0.59283 0.0
O309 O 0.88986 0.47569 0.52305 0.0
Cd310 Cd 0.89629 0.50424 0.45241 0.0
O311 O 0.89282 0.48883 0.63427 0.0
Cd312 Cd 0.89984 0.52338 0.61414 0.0
C313 C 0.94274 0.53679 0.52108 0.0
O314 O 0.87696 0.51625 0.51246 0.0
O315 O 0.89647 0.54752 0.53778 0.0
O316 O 0.87846 0.51858 0.71849 0.0
C317 C 0.88203 0.53432 0.50065 0.0
O318 O 0.93214 0.52701 0.46602 0.0
C319 C 0.89084 0.53473 0.75013 0.0
O320 O 0.93489 0.53707 0.58245 0.0
O321 O 0.90778 0.54536 0.72 0.0
C322 C 0.51865 0.42094 0.5536 0.0
O323 O 0.51976 0.42526 0.48557 0.0
Cd324 Cd 0.493 0.41335 0.39945 0.0
O325 O 0.50198 0.40918 0.58369 0.0
Cd326 Cd 0.46738 0.39055 0.5375 0.0
C327 C 0.46337 0.42962 0.47279 0.0
O328 O 0.47295 0.3782 0.42099 0.0
O329 O 0.44293 0.37247 0.4426 0.0
O330 O 0.46117 0.3624 0.61461 0.0
C331 C 0.45475 0.36984 0.40199 0.0
O332 O 0.47397 0.43034 0.41797 0.0
C333 C 0.44815 0.36329 0.65439 0.0
O334 O 0.45996 0.4176 0.52616 0.0
O335 O 0.4439 0.37683 0.63991 0.0
C336 C 0.5644 0.73125 0.95039 0.0
O337 O 0.56151 0.72592 0.88316 0.0
Cd338 Cd 0.56895 0.70279 0.82417 0.0
O339 O 0.57088 0.72337 -0.00346 0.0
Cd340 Cd 0.58166 0.69809 -0.00353 0.0
C341 C 0.61849 0.72752 0.87566 0.0
O342 O 0.55822 0.67601 0.90862 0.0
O343 O 0.58135 0.66925 0.93735 0.0
O344 O 0.56215 0.68219 0.10356 0.0
C345 C 0.56571 0.66483 0.90059 0.0
O346 O 0.60529 0.7222 0.8254 0.0
C347 C 0.57657 0.68469 0.14432 0.0
O348 O 0.61403 0.72161 0.94228 0.0
O349 O 0.59407 0.69452 0.11729 0.0
C350 C 0.24706 0.80955 0.87416 0.0
O351 O 0.24239 0.80662 0.80632 0.0
Cd352 Cd 0.2442 0.83143 0.72335 0.0
O353 O 0.25397 0.82686 0.90198 0.0
Cd354 Cd 0.26416 0.8608 0.85607 0.0
C355 C 0.21692 0.84913 0.80911 0.0
O356 O 0.27764 0.85887 0.73763 0.0
O357 O 0.2762 0.8858 0.75881 0.0
O358 O 0.29364 0.87239 0.93182 0.0
C359 C 0.28174 0.87624 0.71752 0.0
O360 O 0.21755 0.83847 0.75689 0.0
C361 C 0.29031 0.88403 0.97086 0.0
O362 O 0.23148 0.85788 0.8538 0.0
O363 O 0.27494 0.88533 0.9557 0.0
C364 C 0.18062 0.43486 0.89101 0.0
O365 O 0.18064 0.43418 0.82103 0.0
Cd366 Cd 0.15256 0.42219 0.74109 0.0
O367 O 0.16451 0.42941 0.92634 0.0
Cd368 Cd 0.12958 0.41746 0.89161 0.0
C369 C 0.12384 0.3754 0.81189 0.0
O370 O 0.13405 0.43748 0.78221 0.0
O371 O 0.10397 0.41344 0.80501 0.0
O372 O 0.12614 0.43839 0.98206 0.0
C373 C 0.11561 0.42849 0.76644 0.0
O374 O 0.13357 0.38583 0.7564 0.0
C375 C 0.11253 0.42392 0.01822 0.0
O376 O 0.12124 0.38336 0.869 0.0
O377 O 0.10702 0.40628 -0.0035 0.0
C378 C 0.39483 0.90011 0.37933 0.0
O379 O 0.39185 0.89868 0.44847 0.0
Cd380 Cd 0.3723 0.90898 0.51676 0.0
O381 O 0.38621 0.90667 0.33716 0.0
Cd382 Cd 0.36251 0.91913 0.35481 0.0
C383 C 0.39647 0.95761 0.45754 0.0
O384 O 0.34186 0.89688 0.45106 0.0
O385 O 0.33834 0.92258 0.43102 0.0
O386 O 0.34241 0.89921 0.25377 0.0
C387 C 0.33262 0.9062 0.46463 0.0
O388 O 0.39219 0.94526 0.5104 0.0
C389 C 0.34289 0.91363 0.21832 0.0
O390 O 0.3887 0.95209 0.39381 0.0
O391 O 0.35342 0.93114 0.24442 0.0
C392 C 0.08475 0.51255 0.38286 0.0
O393 O 0.08409 0.513 0.45272 0.0
Cd394 Cd 0.07627 0.48629 0.53647 0.0
O395 O 0.08163 0.49686 0.34893 0.0
Cd396 Cd 0.07361 0.46316 0.38864 0.0
C397 C 0.03032 0.45269 0.47066 0.0
O398 O 0.0945 0.47049 0.49779 0.0
O399 O 0.07262 0.43934 0.47759 0.0
O400 O 0.0963 0.4623 0.29977 0.0
C401 C 0.08717 0.45223 0.51522 0.0
O402 O 0.04048 0.46351 0.52468 0.0
C403 C 0.08284 0.44762 0.26405 0.0
O404 O 0.03864 0.45107 0.41262 0.0
O405 O 0.06488 0.44022 0.28542 0.0
C406 C 0.46867 0.58532 0.46964 0.0
O407 O 0.46463 0.5793 0.53591 0.0
Cd408 Cd 0.48912 0.57998 0.6182 0.0
O409 O 0.48654 0.5933 0.44659 0.0
Cd410 Cd 0.51975 0.60394 0.49908 0.0
C411 C 0.51039 0.55673 0.52687 0.0
O412 O 0.51668 0.61372 0.62344 0.0
O413 O 0.54265 0.61065 0.59989 0.0
O414 O 0.53577 0.63811 0.45402 0.0
C415 C 0.5336 0.61637 0.64325 0.0
O416 O 0.49813 0.5552 0.57672 0.0
C417 C 0.54405 0.6351 0.39907 0.0
O418 O 0.51963 0.57265 0.48875 0.0
O419 O 0.54183 0.61771 0.3926 0.0
C420 C 0.08233 0.57912 0.39195 0.0
O421 O 0.08203 0.57708 0.46151 0.0
Cd422 Cd 0.07474 0.59451 0.55257 0.0
O423 O 0.07888 0.59199 0.3617 0.0
Cd424 Cd 0.07131 0.61762 0.40834 0.0
C425 C 0.02835 0.58286 0.49007 0.0
O426 O 0.09399 0.62796 0.51118 0.0
O427 O 0.07499 0.64101 0.50636 0.0
O428 O 0.09343 0.63996 0.31547 0.0
C429 C 0.0892 0.64011 0.53758 0.0
O430 O 0.03892 0.58127 0.54053 0.0
C431 C 0.08094 0.64436 0.28867 0.0
O432 O 0.03623 0.59424 0.43449 0.0
O433 O 0.06352 0.63596 0.31641 0.0
C434 C 0.40589 0.52308 0.40627 0.0
O435 O 0.40635 0.5198 0.47483 0.0
Cd436 Cd 0.39199 0.48943 0.54383 0.0
O437 O 0.39684 0.50878 0.36064 0.0
Cd438 Cd 0.3779 0.47187 0.37265 0.0
C439 C 0.41522 0.46732 0.45765 0.0
O440 O 0.36096 0.47148 0.4835 0.0
O441 O 0.35218 0.44245 0.43932 0.0
O442 O 0.35506 0.46941 0.27707 0.0
C443 C 0.35023 0.45272 0.48951 0.0
O444 O 0.41241 0.47438 0.51694 0.0
C445 C 0.35749 0.45711 0.23823 0.0
O446 O 0.40547 0.46579 0.39892 0.0
O447 O 0.37036 0.45253 0.25952 0.0
C448 C 0.46013 0.89202 0.41318 0.0
O449 O 0.45959 0.89284 0.48286 0.0
Cd450 Cd 0.48582 0.89697 0.56216 0.0
O451 O 0.47495 0.89262 0.38031 0.0
Cd452 Cd 0.5064 0.8947 0.42242 0.0
C453 C 0.52457 0.9402 0.4982 0.0
O454 O 0.49576 0.87289 0.53241 0.0
O455 O 0.52747 0.89269 0.51685 0.0
O456 O 0.50305 0.87026 0.3302 0.0
C457 C 0.51352 0.87834 0.55209 0.0
O458 O 0.51299 0.93139 0.5523 0.0
C459 C 0.51952 0.88188 0.29862 0.0
O460 O 0.52423 0.93067 0.44054 0.0
O461 O 0.52975 0.89948 0.32394 0.0
C462 C 0.2411 0.42283 0.87548 0.0
O463 O 0.23771 0.41922 0.80701 0.0
Cd464 Cd 0.25235 0.40596 0.72497 0.0
O465 O 0.25365 0.41967 0.90961 0.0
Cd466 Cd 0.27636 0.40723 0.87675 0.0
C467 C 0.2393 0.36207 0.81402 0.0
O468 O 0.28629 0.42457 0.76104 0.0
O469 O 0.30113 0.4082 0.79022 0.0
O470 O 0.29948 0.43251 0.95974 0.0
C471 C 0.29913 0.41959 0.7449 0.0
O472 O 0.23756 0.3709 0.75759 0.0
C473 C 0.30253 0.42062 -0.00149 0.0
O474 O 0.25152 0.37168 0.86577 0.0
O475 O 0.29304 0.40215 0.98196 0.0
C476 C 0.55768 0.7988 0.91578 0.0
O477 O 0.55703 0.79825 0.84591 0.0
Cd478 Cd 0.56069 0.82462 0.76832 0.0
O479 O 0.55918 0.8137 0.95144 0.0
Cd480 Cd 0.55989 0.84536 0.91954 0.0
C481 C 0.6045 0.86405 0.83269 0.0
O482 O 0.53777 0.8345 0.81282 0.0
O483 O 0.55434 0.86634 0.83542 0.0
O484 O 0.53575 0.84083 0.01402 0.0
C485 C 0.54132 0.85201 0.79739 0.0
O486 O 0.59551 0.8508 0.78334 0.0
C487 C 0.54761 0.85655 0.0492 0.0
O488 O 0.59505 0.86511 0.88837 0.0
O489 O 0.56539 0.86679 0.0255 0.0
C490 C 0.19033 0.74159 0.90536 0.0
O491 O 0.18921 0.74357 0.83595 0.0
Cd492 Cd 0.16274 0.73262 0.74546 0.0
O493 O 0.17471 0.73184 0.94456 0.0
Cd494 Cd 0.13882 0.71368 0.91742 0.0
C495 C 0.13602 0.75194 0.81981 0.0
O496 O 0.13859 0.70252 0.79709 0.0
O497 O 0.11814 0.67898 0.86737 0.0
O498 O 0.13321 0.69649 0.03264 0.0
C499 C 0.12477 0.68467 0.80289 0.0
O500 O 0.14698 0.75255 0.76625 0.0
C501 C 0.11763 0.69738 0.04838 0.0
O502 O 0.13188 0.73989 0.87394 0.0
O503 O 0.11259 0.70715 0.00535 0.0
C504 C 0.22909 -0.00104 0.6542 0.0
C505 C 0.21853 0.97798 0.6418 0.0
C506 C 0.22684 0.98347 0.51059 0.0
C507 C 0.23476 0.00426 0.52142 0.0
N508 N 0.24276 0.03217 0.60117 0.0
N509 N 0.20479 0.95014 0.55664 0.0
C510 C 0.23584 0.01217 0.5927 0.0
C511 C 0.21692 0.97014 0.56973 0.0
N512 N 0.23309 0.00618 0.72472 0.0
N513 N 0.22879 0.97647 0.4436 0.0
H514 H 0.19667 0.93977 0.59771 0.0
H515 H 0.20125 0.94401 0.50388 0.0
H516 H 0.23572 0.9858 0.39843 0.0
H517 H 0.22521 0.96172 0.43471 0.0
H518 H 0.24229 0.02123 0.73745 0.0
H519 H 0.22866 -0.00313 0.77092 0.0
H520 H 0.24179 0.03856 0.65042 0.0
H521 H 0.24849 0.04229 0.55735 0.0
C522 C 0.9803 0.22164 0.58059 0.0
C523 C 0.00119 0.2319 0.56759 0.0
C524 C -0.00462 0.23032 0.43474 0.0
C525 C 0.97474 0.21723 0.44769 0.0
N526 N 0.94729 0.19921 0.53199 0.0
N527 N 0.02901 0.24495 0.48288 0.0
C528 C 0.96704 0.21271 0.52039 0.0
C529 C 0.00889 0.2362 0.49481 0.0
N530 N 0.9732 0.22089 0.65027 0.0
N531 N 0.00194 0.23742 0.36515 0.0
H532 H 0.03945 0.24954 0.52547 0.0
H533 H 0.03528 0.2463 0.43084 0.0
H534 H -0.00773 0.2337 0.32025 0.0
H535 H 0.01654 0.24847 0.35328 0.0
H536 H 0.95814 0.21523 0.66229 0.0
H537 H 0.98261 0.22779 0.69514 0.0
H538 H 0.94132 0.19356 0.58383 0.0
H539 H 0.93705 0.19254 0.48914 0.0
C540 C 0.78808 0.77646 0.491 0.0
C541 C 0.78484 0.78021 0.41728 0.0
C542 C 0.76368 0.7936 0.45887 0.0
C543 C 0.76797 0.79104 0.53267 0.0
N544 N 0.78555 0.78208 0.62119 0.0
N545 N 0.77154 0.79402 0.32914 0.0
C546 C 0.78058 0.78307 0.54943 0.0
C547 C 0.77322 0.78929 0.40062 0.0
N548 N 0.79797 0.76623 0.50485 0.0
N549 N 0.75019 0.79977 0.44471 0.0
H550 H 0.77764 0.79039 0.28451 0.0
H551 H 0.7652 0.80264 0.31399 0.0
H552 H 0.74345 0.8037 0.48623 0.0
H553 H 0.74465 0.79981 0.39242 0.0
H554 H 0.79891 0.76097 0.55676 0.0
H555 H 0.80432 0.76185 0.46329 0.0
H556 H 0.79642 0.77859 0.63672 0.0
H557 H 0.77963 0.78592 0.66584 0.0
C558 C 0.73878 0.98486 0.4393 0.0
C559 C 0.74387 0.99257 0.51183 0.0
C560 C 0.76608 0.02621 0.46399 0.0
C561 C 0.76088 0.01857 0.39127 0.0
N562 N 0.73909 0.99213 0.30887 0.0
N563 N 0.75804 0.02084 0.59424 0.0
C564 C 0.7462 -0.00168 0.37866 0.0
C565 C 0.75614 0.01337 0.52444 0.0
N566 N 0.72762 0.96467 0.4284 0.0
N567 N 0.78128 0.04535 0.47548 0.0
H568 H 0.75081 0.01181 0.63977 0.0
H569 H 0.76517 0.03607 0.60604 0.0
H570 H 0.78896 0.05531 0.43273 0.0
H571 H 0.78732 0.05093 0.52725 0.0
H572 H 0.72536 0.95794 0.37685 0.0
H573 H 0.72157 0.95445 0.47173 0.0
H574 H 0.7271 0.97803 0.29676 0.0
H575 H 0.74402 0.0018 0.26366 0.0
C576 C 0.00244 0.78453 0.53888 0.0
C577 C 0.00984 0.77246 0.56862 0.0
C578 C -0.00716 0.74785 0.4711 0.0
C579 C 0.98357 0.75879 0.44709 0.0
N580 N 0.9754 0.78462 0.47257 0.0
N581 N 0.00759 0.74007 0.57426 0.0
C582 C 0.98707 0.77624 0.48546 0.0
C583 C 0.00372 0.75332 0.53818 0.0
N584 N 0.01072 0.8042 0.5583 0.0
N585 N -0.0077 0.73299 0.42848 0.0
H586 H 0.01469 0.74309 0.6254 0.0
H587 H 0.00175 0.72528 0.5573 0.0
H588 H 0.98546 0.72907 0.37692 0.0
H589 H 0.00056 0.72603 0.44084 0.0
H590 H 0.00691 0.81393 0.53261 0.0
H591 H 0.02298 0.81142 0.59341 0.0
H592 H 0.97634 0.79635 0.50412 0.0
H593 H 0.96327 0.77839 0.43645 0.0
C594 C 0.20105 0.19286 0.43645 0.0
C595 C 0.21936 0.20673 0.40239 0.0
C596 C 0.22399 0.23181 0.49449 0.0
C597 C 0.20453 0.21874 0.52246 0.0
N598 N 0.17241 0.18899 0.50379 0.0
N599 N 0.24514 0.24134 0.38681 0.0
C600 C 0.19237 0.19991 0.48843 0.0
C601 C 0.22994 0.22682 0.42762 0.0
N602 N 0.19239 0.17283 0.42256 0.0
N603 N 0.23726 0.24837 0.5331 0.0
H604 H 0.24922 0.23866 0.33511 0.0
H605 H 0.25204 0.25648 0.40039 0.0
H606 H 0.23418 0.25207 0.58478 0.0
H607 H 0.25217 0.25717 0.51746 0.0
H608 H 0.17994 0.16214 0.45145 0.0
H609 H 0.1989 0.16668 0.38909 0.0
H610 H 0.16272 0.17595 0.47537 0.0
H611 H 0.16516 0.19419 0.53816 0.0
C612 C 0.88078 0.3104 0.76371 0.0
C613 C 0.89148 0.33129 0.77688 0.0
C614 C 0.89032 0.32542 0.90969 0.0
C615 C 0.87713 0.30477 0.8968 0.0
N616 N 0.8583 0.27744 0.81277 0.0
N617 N 0.90564 0.35918 0.86111 0.0
C618 C 0.87209 0.29714 0.8241 0.0
C619 C 0.89624 0.33898 0.84953 0.0
N620 N 0.87931 0.30329 0.69355 0.0
N621 N 0.89753 0.33192 0.97916 0.0
H622 H 0.91051 0.36957 0.81817 0.0
H623 H 0.90743 0.36561 0.91305 0.0
H624 H 0.89372 0.32223 0.02409 0.0
H625 H 0.90864 0.34649 0.99108 0.0
H626 H 0.87339 0.2882 0.68119 0.0
H627 H 0.88577 0.31267 0.6481 0.0
H628 H 0.85228 0.27155 0.76126 0.0
H629 H 0.85168 0.26716 0.85564 0.0
C630 C 0.63394 0.56163 0.78329 0.0
C631 C 0.64175 0.5665 0.71068 0.0
C632 C 0.67579 0.58595 0.75898 0.0
C633 C 0.66794 0.58111 0.83139 0.0
N634 N 0.63974 0.56926 0.91362 0.0
N635 N 0.66899 0.58696 0.62886 0.0
C636 C 0.64703 0.57053 0.84386 0.0
C637 C 0.66237 0.57987 0.69837 0.0
N638 N 0.61432 0.54761 0.7946 0.0
N639 N 0.69599 0.59549 0.74808 0.0
H640 H 0.65936 0.58299 0.58377 0.0
H641 H 0.68354 0.59811 0.61703 0.0
H642 H 0.70624 0.60047 0.79142 0.0
H643 H 0.70258 0.59737 0.69641 0.0
H644 H 0.60844 0.54169 0.84628 0.0
H645 H 0.60413 0.5407 0.75184 0.0
H646 H 0.62463 0.56344 0.92521 0.0
H647 H 0.64896 0.5758 0.95929 0.0
C648 C 0.45276 0.09534 0.86722 0.0
C649 C 0.45464 0.10378 0.79623 0.0
C650 C 0.44289 0.12584 0.84303 0.0
C651 C 0.43938 0.11619 0.91235 0.0
N652 N 0.43905 0.09069 0.99066 0.0
N653 N 0.4483 0.12437 0.71233 0.0
C654 C 0.4437 0.10057 0.92451 0.0
C655 C 0.44898 0.11841 0.78293 0.0
N656 N 0.46034 0.08295 0.88036 0.0
N657 N 0.44043 0.1421 0.83467 0.0
H658 H 0.45228 0.11906 0.66622 0.0
H659 H 0.44213 0.13323 0.69845 0.0
H660 H 0.435 0.14738 0.87647 0.0
H661 H 0.44507 0.15123 0.78808 0.0
H662 H 0.46135 0.07792 0.93262 0.0
H663 H 0.46719 0.07893 0.83953 0.0
H664 H 0.43964 0.07769 4e-05 0.0
H665 H 0.43341 0.09479 0.03544 0.0
C666 C 0.42633 0.32889 0.70436 0.0
C667 C 0.4391 0.34962 0.71737 0.0
C668 C 0.43604 0.34385 0.85047 0.0
C669 C 0.42554 0.32296 0.83714 0.0
N670 N 0.41146 0.29511 0.75296 0.0
N671 N 0.45801 0.37694 0.80147 0.0
C672 C 0.42072 0.3153 0.76448 0.0
C673 C 0.44434 0.3572 0.79011 0.0
N674 N 0.41921 0.32234 0.63485 0.0
N675 N 0.43771 0.35092 0.92085 0.0
H676 H 0.46441 0.3873 0.75874 0.0
H677 H 0.46422 0.38279 0.8528 0.0
H678 H 0.43173 0.34156 0.96662 0.0
H679 H 0.44337 0.36597 0.93332 0.0
H680 H 0.40839 0.30768 0.62269 0.0
H681 H 0.42286 0.33203 0.58998 0.0
H682 H 0.40954 0.28865 0.70102 0.0
H683 H 0.40677 0.28476 0.79603 0.0
C684 C 0.65506 0.07818 0.96256 0.0
C685 C 0.6756 0.09202 0.95025 0.0
C686 C 0.6706 0.08702 0.81723 0.0
C687 C 0.6497 0.0758 0.82928 0.0
N688 N 0.62151 0.06104 0.91183 0.0
N689 N 0.70282 0.1114 0.86601 0.0
C690 C 0.64175 0.07124 0.90157 0.0
C691 C 0.68345 0.09674 0.87765 0.0
N692 N 0.64846 0.07144 0.03241 0.0
N693 N 0.67813 0.08817 0.74797 0.0
H694 H 0.7128 0.1191 0.90856 0.0
H695 H 0.70858 0.11711 0.81401 0.0
H696 H 0.6691 0.08108 0.70237 0.0
H697 H 0.69333 0.09446 0.73699 0.0
H698 H 0.63406 0.05999 0.0444 0.0
H699 H 0.65798 0.07607 0.07792 0.0
H700 H 0.61474 0.05926 0.96307 0.0
H701 H 0.61138 0.05536 0.86817 0.0
C702 C 0.88429 0.53385 0.88515 0.0
C703 C 0.88478 0.54195 0.81457 0.0
C704 C 0.87196 0.56273 0.8654 0.0
C705 C 0.86992 0.55343 0.93502 0.0
N706 N 0.87279 0.52942 0.01193 0.0
N707 N 0.87737 0.56228 0.73383 0.0
C708 C 0.87568 0.53875 0.94514 0.0
C709 C 0.87833 0.55604 0.80373 0.0
N710 N 0.89256 0.52193 0.89487 0.0
N711 N 0.8677 0.57786 0.85811 0.0
H712 H 0.88226 0.55804 0.68721 0.0
H713 H 0.87051 0.57056 0.72084 0.0
H714 H 0.86138 0.58214 0.90003 0.0
H715 H 0.87138 0.58699 0.81172 0.0
H716 H 0.89458 0.5171 0.9461 0.0
H717 H 0.89884 0.51799 0.85168 0.0
H718 H 0.87448 0.51703 0.02085 0.0
H719 H 0.86761 0.53341 0.05833 0.0
C720 C 0.57291 0.65315 0.31209 0.0
C721 C 0.55494 0.65077 0.34264 0.0
C722 C 0.55765 0.67729 0.26142 0.0
C723 C 0.57243 0.67602 0.21955 0.0
N724 N 0.59304 0.66079 0.20217 0.0
N725 N 0.52822 0.6587 0.33562 0.0
C726 C 0.58007 0.66367 0.24448 0.0
C727 C 0.54686 0.66254 0.31539 0.0
N728 N 0.5833 0.64565 0.34804 0.0
N729 N 0.55379 0.6925 0.249 0.0
H730 H 0.51871 0.64691 0.36979 0.0
H731 H 0.52122 0.66582 0.3112 0.0
H732 H 0.56193 0.7039 0.211 0.0
H733 H 0.54422 0.69497 0.28226 0.0
H734 H 0.59737 0.64849 0.3311 0.0
H735 H 0.57893 0.63862 0.39932 0.0
H736 H 0.59709 0.6501 0.21476 0.0
H737 H 0.59853 0.66773 0.15152 0.0
C738 C 0.30866 0.89877 0.16726 0.0
C739 C 0.32955 0.90953 0.15475 0.0
C740 C 0.32391 0.90821 0.0217 0.0
C741 C 0.30332 0.89464 0.03408 0.0
N742 N 0.27609 0.87535 0.11842 0.0
N743 N 0.35757 0.92425 0.0714 0.0
C744 C 0.29558 0.88968 0.10681 0.0
C745 C 0.33736 0.91445 0.08231 0.0
N746 N 0.30135 0.89745 0.23704 0.0
N747 N 0.33045 0.91535 0.95219 0.0
H748 H 0.36781 0.92941 0.1148 0.0
H749 H 0.36418 0.92622 0.01974 0.0
H750 H 0.32081 0.9113 0.90711 0.0
H751 H 0.34495 0.92662 0.94035 0.0
H752 H 0.28623 0.8915 0.24863 0.0
H753 H 0.31057 0.9041 0.28264 0.0
H754 H 0.27034 0.86943 0.17024 0.0
H755 H 0.26592 0.86812 0.07588 0.0
C756 C 0.09859 0.42879 0.21429 0.0
C757 C 0.08815 0.43924 0.2011 0.0
C758 C 0.09014 0.43556 0.06809 0.0
C759 C 0.10292 0.42763 0.08127 0.0
N760 N 0.12057 0.41764 0.16524 0.0
N761 N 0.07487 0.45396 0.11707 0.0
C762 C 0.10736 0.42429 0.15396 0.0
C763 C 0.08396 0.44285 0.12841 0.0
N764 N 0.09972 0.42282 0.28435 0.0
N765 N 0.08362 0.43571 -0.00196 0.0
H766 H 0.0698 0.45925 0.16006 0.0
H767 H 0.07354 0.4591 0.06545 0.0
H768 H 0.0878 0.43033 0.95263 0.0
H769 H 0.07274 0.43946 0.98566 0.0
H770 H 0.10545 0.41348 0.2968 0.0
H771 H 0.09326 0.42575 0.32968 0.0
H772 H 0.12621 0.41712 0.21687 0.0
H773 H 0.12701 0.41384 0.12221 0.0
C774 C 0.10248 0.67917 0.24408 0.0
C775 C 0.08704 0.65936 0.22943 0.0
C776 C 0.08753 0.66749 0.09872 0.0
C777 C 0.10519 0.68603 0.11169 0.0
N778 N 0.12951 0.7102 0.19502 0.0
N779 N 0.06477 0.63407 0.14405 0.0
C780 C 0.11256 0.69218 0.18412 0.0
C781 C 0.0792 0.65345 0.15732 0.0
N782 N 0.10722 0.68552 0.31547 0.0
N783 N 0.07901 0.66317 0.03015 0.0
H784 H 0.05812 0.62342 0.18571 0.0
H785 H 0.06018 0.62813 0.09146 0.0
H786 H 0.08509 0.67277 0.98516 0.0
H787 H 0.06508 0.65083 0.01894 0.0
H788 H 0.11711 0.70026 0.33026 0.0
H789 H 0.09983 0.67633 0.36051 0.0
H790 H 0.13711 0.71457 0.24504 0.0
H791 H 0.13652 0.72056 0.15261 0.0
C792 C 0.32374 0.43225 0.19221 0.0
C793 C 0.34394 0.44657 0.17646 0.0
C794 C 0.33751 0.44067 0.04424 0.0
C795 C 0.31688 0.42826 0.05991 0.0
N796 N 0.28972 0.4136 0.14727 0.0
N797 N 0.37015 0.46573 0.08911 0.0
C798 C 0.3098 0.42426 0.13351 0.0
C799 C 0.35093 0.45105 0.10287 0.0
N800 N 0.31803 0.42591 0.26318 0.0
N801 N 0.34427 0.44209 0.97353 0.0
H802 H 0.38045 0.47337 0.13097 0.0
H803 H 0.37556 0.4713 0.03665 0.0
H804 H 0.33482 0.43458 0.92932 0.0
H805 H 0.35934 0.44928 0.95941 0.0
H806 H 0.30407 0.41396 0.27719 0.0
H807 H 0.32783 0.43142 0.30784 0.0
H808 H 0.28354 0.41225 0.19943 0.0
H809 H 0.27902 0.40724 0.10567 0.0
C810 C 0.53033 0.85912 0.24283 0.0
C811 C 0.52653 0.87522 0.2347 0.0
C812 C 0.53824 0.88011 0.10672 0.0
C813 C 0.54069 0.86313 0.1134 0.0
N814 N 0.53713 0.83497 0.18371 0.0
N815 N 0.52347 0.89889 0.15663 0.0
C816 C 0.53607 0.85213 0.1802 0.0
C817 C 0.52968 0.88524 0.16612 0.0
N818 N 0.5294 0.85115 0.31113 0.0
N819 N 0.54402 0.8913 0.04348 0.0
H820 H 0.51675 0.90276 0.19839 0.0
H821 H 0.5233 0.90511 0.10584 0.0
H822 H 0.54909 0.88734 -0.00333 0.0
H823 H 0.54499 0.90521 0.0387 0.0
H824 H 0.53425 0.84103 0.32239 0.0
H825 H 0.52523 0.85583 0.35833 0.0
H826 H 0.53159 0.82494 0.22764 0.0
H827 H 0.54248 0.83002 0.14054 0.0
C828 C 0.227 0.98268 0.01722 0.0
C829 C 0.20928 0.96382 0.02217 0.0
C830 C 0.20693 0.9684 0.15444 0.0
C831 C 0.2249 0.98701 0.14973 0.0
N832 N 0.25438 0.01014 0.08172 0.0
N833 N 0.18487 0.93657 0.09618 0.0
C834 C 0.23576 0.99353 0.08276 0.0
C835 C 0.19995 0.95601 0.0911 0.0
N836 N 0.23477 0.99077 0.94969 0.0
N837 N 0.19637 0.96282 0.21904 0.0
H838 H 0.17976 0.92696 0.05091 0.0
H839 H 0.1787 0.9294 0.14597 0.0
H840 H 0.20163 0.97107 0.26762 0.0
H841 H 0.18198 0.9506 0.22362 0.0
H842 H 0.24622 0.00546 0.94224 0.0
H843 H 0.22874 0.9834 0.90004 0.0
H844 H 0.26388 0.01438 0.0363 0.0
H845 H 0.26111 0.01881 0.12829 0.0
C846 C 0.96977 0.21422 -0.00015 0.0
C847 C 0.9783 0.21704 0.07108 0.0
C848 C 0.01179 0.23716 0.01953 0.0
C849 C 0.00342 0.23204 0.94791 0.0
N850 N 0.97487 0.21435 0.86802 0.0
N851 N 0.00715 0.22979 0.15043 0.0
C852 C 0.98249 0.22034 0.93738 0.0
C853 C -0.00074 0.22824 0.08158 0.0
N854 N 0.94956 0.20598 0.99219 0.0
N855 N 0.03161 0.25088 0.02797 0.0
H856 H -0.00167 0.22372 0.19735 0.0
H857 H 0.02236 0.23587 0.16052 0.0
H858 H 0.0411 0.25789 0.98331 0.0
H859 H 0.03826 0.25668 0.07878 0.0
H860 H 0.94261 0.20538 0.94224 0.0
H861 H 0.93981 0.20131 0.03706 0.0
H862 H 0.95996 0.20394 0.85752 0.0
H863 H 0.98377 0.21868 0.82084 0.0
C864 C 0.79079 0.80689 0.93737 0.0
C865 C 0.77109 0.79388 0.91169 0.0
C866 C 0.76703 0.7693 0.00444 0.0
C867 C 0.78537 0.78343 0.03736 0.0
N868 N 0.81247 0.81773 0.04383 0.0
N869 N 0.7384 0.76553 0.93808 0.0
C870 C 0.79668 0.80287 0.00644 0.0
C871 C 0.75854 0.7759 0.9503 0.0
N872 N 0.80417 0.82254 0.89507 0.0
N873 N 0.75811 0.74943 0.02173 0.0
H874 H 0.73119 0.77082 0.90395 0.0
H875 H 0.72866 0.75309 0.96947 0.0
H876 H 0.76473 0.7435 0.05582 0.0
H877 H 0.74543 0.73858 -0.00566 0.0
H878 H 0.81921 0.83123 0.90913 0.0
H879 H 0.80087 0.8255 0.8424 0.0
H880 H 0.81993 0.83255 0.02594 0.0
H881 H 0.81668 0.81581 0.09649 0.0
C882 C 0.76929 0.01843 0.87704 0.0
C883 C 0.75306 -0.00122 0.88748 0.0
C884 C 0.75458 0.00369 0.02093 0.0
C885 C 0.77007 0.02372 0.01025 0.0
N886 N 0.79002 0.05146 0.92925 0.0
N887 N 0.728 0.97342 0.96607 0.0
C888 C 0.77686 0.03149 0.93854 0.0
C889 C 0.74495 0.99165 0.95849 0.0
N890 N 0.77767 0.02443 0.80863 0.0
N891 N 0.74977 -0.00409 0.09067 0.0
H892 H 0.72082 0.96393 0.92166 0.0
H893 H 0.72013 0.96832 0.01537 0.0
H894 H 0.75666 0.00425 0.13785 0.0
H895 H 0.74018 0.98083 0.10182 0.0
H896 H 0.79095 0.03773 0.7989 0.0
H897 H 0.77202 0.01548 0.7618 0.0
H898 H 0.794 0.05845 0.87796 0.0
H899 H 0.79575 0.06146 0.97324 0.0
C900 C 0.0249 0.77093 0.01696 0.0
C901 C 0.01641 0.76586 0.9455 0.0
C902 C 0.98328 0.74476 -0.00145 0.0
C903 C -0.00869 0.75262 0.06886 0.0
N904 N 0.01936 0.77306 0.14748 0.0
N905 N 0.98766 0.74853 0.86607 0.0
C906 C 0.01207 0.76549 0.07904 0.0
C907 C -0.00434 0.75263 0.9355 0.0
N908 N 0.0452 0.78057 0.02512 0.0
N909 N 0.96385 0.72975 0.99247 0.0
H910 H -0.00371 0.75382 0.81832 0.0
H911 H 0.97237 0.74094 0.8556 0.0
H912 H 0.95447 0.72368 0.03811 0.0
H913 H 0.95757 0.72208 0.94364 0.0
H914 H 0.05234 0.78321 0.07598 0.0
H915 H 0.0549 0.78422 0.98034 0.0
H916 H 0.03399 0.78438 0.15707 0.0
H917 H 0.01043 0.76869 0.19469 0.0
C918 C 0.21515 0.21849 0.03724 0.0
C919 C 0.22587 0.20826 0.0256 0.0
C920 C 0.22147 0.20874 0.89226 0.0
C921 C 0.2115 0.2197 0.90387 0.0
N922 N 0.20326 0.23942 0.98408 0.0
N923 N 0.24357 0.198 0.94314 0.0
C924 C 0.20965 0.22592 0.97546 0.0
C925 C 0.2303 0.2046 0.95335 0.0
N926 N 0.2096 0.22047 0.10696 0.0
N927 N 0.22207 0.20188 0.82332 0.0
H928 H 0.25091 0.19561 0.98681 0.0
H929 H 0.24884 0.19686 0.89156 0.0
H930 H 0.21619 0.20509 0.77682 0.0
H931 H 0.22713 0.19189 0.81302 0.0
H932 H 0.19986 0.22582 0.11782 0.0
H933 H 0.21341 0.21528 0.15391 0.0
H934 H 0.20342 0.24599 0.03443 0.0
H935 H 0.19974 0.24564 0.9395 0.0
C936 C 0.89279 0.33616 0.32873 0.0
C937 C 0.88569 0.32814 0.39989 0.0
C938 C 0.8676 0.29437 0.34918 0.0
C939 C 0.87267 0.30263 0.27726 0.0
N940 N 0.88792 0.33139 0.19676 0.0
N941 N 0.86483 0.30022 0.47882 0.0
C942 C 0.88478 0.32354 0.26639 0.0
C943 C 0.87266 0.30739 0.41051 0.0
N944 N 0.90743 0.3557 0.32096 0.0
N945 N 0.85867 0.27413 0.3589 0.0
H946 H 0.86855 0.30933 0.52538 0.0
H947 H 0.85356 0.28556 0.4884 0.0
H948 H 0.8554 0.26422 0.31511 0.0
H949 H 0.85631 0.26732 0.41039 0.0
H950 H 0.91467 0.36185 0.27125 0.0
H951 H 0.9136 0.3654 0.36562 0.0
H952 H 0.89478 0.34666 0.18594 0.0
H953 H 0.88221 0.32258 0.14966 0.0
C954 C 0.66555 0.58334 0.27315 0.0
C955 C 0.65853 0.57364 0.20426 0.0
C956 C 0.62604 0.55052 0.25843 0.0
C957 C 0.6339 0.5586 0.32877 0.0
N958 N 0.66136 0.58135 0.4059 0.0
N959 N 0.63286 0.54764 0.12982 0.0
C960 C 0.65365 0.57483 0.33694 0.0
C961 C 0.63893 0.55717 0.19632 0.0
N962 N 0.68362 0.60059 0.27754 0.0
N963 N 0.60614 0.53691 0.25103 0.0
H964 H 0.64161 0.55272 0.08225 0.0
H965 H 0.61965 0.53413 0.1224 0.0
H966 H 0.59627 0.53196 0.29559 0.0
H967 H 0.59903 0.53183 0.2004 0.0
H968 H 0.68861 0.60954 0.32443 0.0
H969 H 0.6931 0.60688 0.2324 0.0
H970 H 0.67636 0.59147 0.4161 0.0
H971 H 0.65304 0.57555 0.45402 0.0
C972 C 0.42691 0.10173 0.32994 0.0
C973 C 0.4397 0.11985 0.2926 0.0
C974 C 0.46497 0.12813 0.38818 0.0
C975 C 0.4534 0.10859 0.41781 0.0
N976 N 0.4261 0.07476 0.39919 0.0
N977 N 0.47309 0.14822 0.27778 0.0
C978 C 0.43513 0.09474 0.38367 0.0
C979 C 0.45939 0.13256 0.31924 0.0
N980 N 0.40682 0.09151 0.31664 0.0
N981 N 0.48079 0.14267 0.42649 0.0
H982 H 0.47014 0.15136 0.22487 0.0
H983 H 0.4881 0.15669 0.2927 0.0
H984 H 0.48487 0.14036 0.47882 0.0
H985 H 0.48846 0.15757 0.40962 0.0
H986 H 0.39692 0.07896 0.34719 0.0
H987 H 0.39978 0.09698 0.28243 0.0
H988 H 0.41346 0.06412 0.37097 0.0
H989 H 0.43265 0.06859 0.43239 0.0
C990 C 0.44906 0.35246 0.20351 0.0
C991 C 0.43384 0.33225 0.21161 0.0
C992 C 0.43323 0.33644 0.34485 0.0
C993 C 0.44741 0.35702 0.33629 0.0
N994 N 0.4657 0.38564 0.25686 0.0
N995 N 0.40854 0.30583 0.28626 0.0
C996 C 0.45453 0.36536 0.26541 0.0
C997 C 0.42498 0.3245 0.28118 0.0
N998 N 0.4584 0.35922 0.13701 0.0
N999 N 0.42836 0.3281 0.41373 0.0
H1000 H 0.40213 0.29658 0.24068 0.0
H1001 H 0.40019 0.30023 0.33437 0.0
H1002 H 0.43445 0.3363 0.46189 0.0
H1003 H 0.41975 0.31277 0.42304 0.0
H1004 H 0.47112 0.37318 0.12984 0.0
H1005 H 0.45425 0.35033 0.08975 0.0
H1006 H 0.46971 0.3927 0.20566 0.0
H1007 H 0.4693 0.39556 0.30072 0.0
C1008 C 0.69308 0.10813 0.40162 0.0
C1009 C 0.68536 0.09968 0.33158 0.0
C1010 C 0.65512 0.0729 0.38865 0.0
C1011 C 0.66167 0.08292 0.45719 0.0
N1012 N 0.6862 0.11007 0.53095 0.0
N1013 N 0.65884 0.075 0.25573 0.0
C1014 C 0.68054 0.10048 0.46443 0.0
C1015 C 0.66644 0.08213 0.32433 0.0
N1016 N 0.71252 0.12311 0.408 0.0
N1017 N 0.63799 0.05469 0.38507 0.0
H1018 H 0.66678 0.08127 0.20723 0.0
H1019 H 0.6442 0.06375 0.24616 0.0
H1020 H 0.62887 0.04779 0.43062 0.0
H1021 H 0.63354 0.04566 0.33837 0.0
H1022 H 0.71966 0.12867 0.45827 0.0
H1023 H 0.72213 0.12885 0.36285 0.0
H1024 H 0.69865 0.12421 0.53803 0.0
H1025 H 0.67783 0.10426 0.57903 0.0
C1026 C 0.85778 0.54302 0.4456 0.0
C1027 C 0.8742 0.53988 0.43669 0.0
C1028 C 0.87418 0.54497 0.30387 0.0
C1029 C 0.85935 0.55047 0.3136 0.0
N1030 N 0.83916 0.55784 0.39539 0.0
N1031 N 0.90042 0.54116 0.36055 0.0
C1032 C 0.85154 0.55019 0.38484 0.0
C1033 C 0.8831 0.54177 0.36672 0.0
N1034 N 0.84812 0.53908 0.51197 0.0
N1035 N 0.87927 0.54213 0.2345 0.0
H1036 H 0.90755 0.53907 0.40569 0.0
H1037 H 0.90871 0.54458 0.31201 0.0
H1038 H 0.87262 0.54378 0.18697 0.0
H1039 H 0.88852 0.53617 0.22435 0.0
H1040 H 0.8347 0.53897 0.51952 0.0
H1041 H 0.85273 0.53443 0.55836 0.0
H1042 H 0.83481 0.56005 0.44727 0.0
H1043 H 0.83459 0.56367 0.35277 0.0
C1044 C 0.53411 0.61982 0.78017 0.0
C1045 C 0.54326 0.62754 0.71091 0.0
C1046 C 0.57001 0.65726 0.77079 0.0
C1047 C 0.55939 0.65081 0.83829 0.0
N1048 N 0.53104 0.62672 0.90853 0.0
N1049 N 0.56843 0.65462 0.63775 0.0
C1050 C 0.54138 0.63223 0.84349 0.0
C1051 C 0.56098 0.64641 0.70547 0.0
N1052 N 0.51884 0.60047 0.78546 0.0
N1053 N 0.58861 0.67388 0.76893 0.0
H1054 H 0.56213 0.64741 0.5881 0.0
H1055 H 0.57985 0.66932 0.63025 0.0
H1056 H 0.59547 0.68267 0.81513 0.0
H1057 H 0.59798 0.67802 0.72312 0.0
H1058 H 0.51278 0.59332 0.83537 0.0
H1059 H 0.51335 0.59093 0.74005 0.0
H1060 H 0.51664 0.61455 0.9137 0.0
H1061 H 0.53649 0.63499 0.95698 0.0
C1062 C 0.28606 0.87769 0.58113 0.0
C1063 C 0.294 0.88552 0.65167 0.0
C1064 C 0.32598 0.9097 0.59651 0.0
C1065 C 0.31879 0.90025 0.5273 0.0
N1066 N 0.29275 0.87479 0.45232 0.0
N1067 N 0.32188 0.90732 0.72921 0.0
C1068 C 0.29899 0.88414 0.51908 0.0
C1069 C 0.31399 0.90126 0.66015 0.0
N1070 N 0.26606 0.86451 0.5735 0.0
N1071 N 0.34429 0.92663 0.60142 0.0
H1072 H 0.31361 0.90146 0.77738 0.0
H1073 H 0.33699 0.91701 0.73932 0.0
H1074 H 0.35389 0.93281 0.55656 0.0
H1075 H 0.34938 0.93548 0.64857 0.0
H1076 H 0.25894 0.85967 0.52277 0.0
H1077 H 0.25618 0.85966 0.61801 0.0
H1078 H 0.27933 0.86152 0.44462 0.0
H1079 H 0.30154 0.87976 0.40484 0.0
C1080 C 0.09762 0.44481 0.71325 0.0
C1081 C 0.10816 0.43439 0.70229 0.0
C1082 C 0.10623 0.43708 0.56862 0.0
C1083 C 0.09444 0.4462 0.57957 0.0
N1084 N 0.07529 0.45502 0.66062 0.0
N1085 N 0.1189 0.41676 0.62145 0.0
C1086 C 0.08911 0.44907 0.65146 0.0
C1087 C 0.11149 0.42943 0.63046 0.0
N1088 N 0.09612 0.45101 0.78241 0.0
N1089 N 0.11275 0.43613 0.49942 0.0
H1090 H 0.12232 0.41038 0.66577 0.0
H1091 H 0.11979 0.41103 0.57053 0.0
H1092 H 0.10905 0.4415 0.45266 0.0
H1093 H 0.12313 0.43156 0.4891 0.0
H1094 H 0.09047 0.46052 0.79268 0.0
H1095 H 0.102 0.44794 0.8292 0.0
H1096 H 0.06932 0.45543 0.71164 0.0
H1097 H 0.06832 0.45771 0.61641 0.0
C1098 C 0.12789 0.6709 0.68217 0.0
C1099 C 0.11555 0.67209 0.73743 0.0
C1100 C 0.08586 0.64964 0.66622 0.0
C1101 C 0.09827 0.65091 0.60651 0.0
N1102 N 0.13127 0.66578 0.55268 0.0
N1103 N 0.08288 0.66643 0.77325 0.0
C1104 C 0.11937 0.66233 0.61303 0.0
C1105 C 0.09453 0.66248 0.72738 0.0
N1106 N 0.14757 0.6774 0.69631 0.0
N1107 N 0.06595 0.63573 0.66605 0.0
H1108 H 0.08856 0.67667 0.81645 0.0
H1109 H 0.06778 0.66121 0.76313 0.0
H1110 H 0.05909 0.62535 0.62377 0.0
H1111 H 0.05676 0.63306 0.71175 0.0
H1112 H 0.15673 0.6751 0.6602 0.0
H1113 H 0.15421 0.68319 0.74728 0.0
H1114 H 0.14662 0.6757 0.55313 0.0
H1115 H 0.12563 0.66036 0.50023 0.0
C1116 C 0.318 0.4474 0.654 0.0
C1117 C 0.31192 0.42769 0.67864 0.0
C1118 C 0.33318 0.42524 0.58449 0.0
C1119 C 0.33646 0.44349 0.55269 0.0
N1120 N 0.32571 0.46811 0.54607 0.0
N1121 N 0.30943 0.39578 0.65083 0.0
C1122 C 0.32694 0.45343 0.58386 0.0
C1123 C 0.31817 0.41591 0.63902 0.0
N1124 N 0.31636 0.46082 0.69829 0.0
N1125 N 0.34489 0.41724 0.56638 0.0
H1126 H 0.29725 0.38794 0.68588 0.0
H1127 H 0.31268 0.38659 0.61858 0.0
H1128 H 0.35732 0.42438 0.53212 0.0
H1129 H 0.34374 0.40475 0.59322 0.0
H1130 H 0.32203 0.47573 0.68305 0.0
H1131 H 0.31199 0.45798 0.75339 0.0
H1132 H 0.31759 0.47462 0.56579 0.0
H1133 H 0.33038 0.47182 0.49151 0.0
C1134 C 0.51617 0.85955 0.74411 0.0
C1135 C 0.53225 0.85599 0.73321 0.0
C1136 C 0.53209 0.86214 0.60126 0.0
C1137 C 0.51817 0.86874 0.61368 0.0
N1138 N 0.49877 0.87617 0.69952 0.0
N1139 N 0.55756 0.85643 0.65401 0.0
C1140 C 0.51043 0.86786 0.68563 0.0
C1141 C 0.54073 0.85785 0.66242 0.0
N1142 N 0.50643 0.85502 0.81041 0.0
N1143 N 0.5367 0.85954 0.53087 0.0
H1144 H 0.56444 0.85344 0.69776 0.0
H1145 H 0.56567 0.85991 0.60502 0.0
H1146 H 0.53021 0.86204 0.48469 0.0
H1147 H 0.54528 0.85295 0.51853 0.0
H1148 H 0.49327 0.85533 0.81922 0.0
H1149 H 0.51053 0.84922 0.85482 0.0
H1150 H 0.49472 0.87805 0.75243 0.0
H1151 H 0.49454 0.88284 0.65901 0.0
C1152 C 0.33593 0.10971 0.16891 0.0
C1153 C 0.34902 0.10185 0.17351 0.0
C1154 C 0.32057 0.06795 0.18805 0.0
C1155 C 0.30772 0.0761 0.19123 0.0
N1156 N 0.30277 0.10459 0.1919 0.0
N1157 N 0.35451 0.07408 0.19474 0.0
C1158 C 0.31527 0.09695 0.18325 0.0
C1159 C 0.34154 0.08109 0.18454 0.0
N1160 N 0.34325 0.12925 0.14894 0.0
N1161 N 0.31266 0.04766 0.1867 0.0
H1162 H 0.36998 0.08317 0.19122 0.0
H1163 H 0.35008 0.05955 0.21174 0.0
H1164 H 0.29735 0.03759 0.19025 0.0
H1165 H 0.32104 0.04076 0.1763 0.0
H1166 H 0.33425 0.1354 0.13717 0.0
H1167 H 0.35835 0.13899 0.13802 0.0
H1168 H 0.30772 0.11983 0.19524 0.0
H1169 H 0.28745 0.09565 0.20103 0.0
C1170 C 0.8865 0.22836 0.14676 0.0
C1171 C 0.86534 0.21697 0.15075 0.0
C1172 C 0.86693 0.18624 0.16757 0.0
C1173 C 0.88795 0.19759 0.15875 0.0
N1174 N 0.91733 0.22842 0.12341 0.0
N1175 N 0.83501 0.185 0.15457 0.0
C1176 C 0.89759 0.21833 0.14308 0.0
C1177 C 0.85539 0.19584 0.15826 0.0
N1178 N 0.89614 0.24879 0.15087 0.0
N1179 N 0.85815 0.16648 0.18647 0.0
H1180 H 0.82619 0.19163 0.14774 0.0
H1181 H 0.82691 0.16945 0.1527 0.0
H1182 H 0.8662 0.15899 0.19158 0.0
H1183 H 0.8432 0.15783 0.2013 0.0
H1184 H 0.91156 0.25766 0.15675 0.0
H1185 H 0.88873 0.25691 0.15589 0.0
H1186 H 0.92453 0.24302 0.10329 0.0
H1187 H 0.92609 0.22164 0.12044 0.0
C1188 C 0.74095 0.66611 0.14891 0.0
C1189 C 0.74932 0.65386 0.13293 0.0
C1190 C 0.783 0.68302 0.13563 0.0
C1191 C 0.77449 0.69549 0.14411 0.0
N1192 N 0.74546 0.6995 0.14941 0.0
N1193 N 0.77776 0.65017 0.10404 0.0
C1194 C 0.75348 0.68721 0.14873 0.0
C1195 C 0.77022 0.66216 0.12447 0.0
N1196 N 0.72107 0.65754 0.16547 0.0
N1197 N 0.80325 0.69107 0.14066 0.0
H1198 H 0.76884 0.63474 0.09719 0.0
H1199 H 0.7926 0.65561 0.08899 0.0
H1200 H 0.81303 0.70629 0.14929 0.0
H1201 H 0.81028 0.68255 0.1425 0.0
H1202 H 0.71452 0.66552 0.18579 0.0
H1203 H 0.7113 0.64211 0.16441 0.0
H1204 H 0.73024 0.69438 0.14387 0.0
H1205 H 0.7541 0.71506 0.14975 0.0
C1206 C 0.08056 0.32259 0.80696 0.0
C1207 C 0.0906 0.31145 0.81121 0.0
C1208 C 0.12296 0.34247 0.81531 0.0
C1209 C 0.11287 0.35345 0.80658 0.0
N1210 N 0.08277 0.35425 0.77807 0.0
N1211 N 0.12114 0.31017 0.80797 0.0
C1212 C 0.09187 0.34358 0.79745 0.0
C1213 C 0.11178 0.32121 0.81214 0.0
N1214 N 0.06027 0.31325 0.81578 0.0
N1215 N 0.14305 0.35234 0.82887 0.0
H1216 H 0.11335 0.29457 0.80571 0.0
H1217 H 0.13649 0.31641 0.80103 0.0
H1218 H 0.15169 0.36791 0.82984 0.0
H1219 H 0.15094 0.34519 0.84375 0.0
H1220 H 0.05246 0.32093 0.82163 0.0
H1221 H 0.05133 0.29788 0.82419 0.0
H1222 H 0.06781 0.34761 0.76279 0.0
H1223 H 0.09059 0.36973 0.77043 0.0
C1224 C 0.66498 0.77633 0.82659 0.0
C1225 C 0.67914 0.76985 0.82004 0.0
C1226 C 0.65301 0.73518 0.8427 0.0
C1227 C 0.63935 0.74199 0.8566 0.0
N1228 N 0.63227 0.76895 0.86962 0.0
N1229 N 0.68758 0.74372 0.82809 0.0
C1230 C 0.64529 0.76255 0.85044 0.0
C1231 C 0.6734 0.7494 0.82919 0.0
N1232 N 0.67027 0.79554 0.80798 0.0
N1233 N 0.64637 0.7151 0.84096 0.0
H1234 H 0.70258 0.75358 0.81627 0.0
H1235 H 0.68479 0.72954 0.84338 0.0
H1236 H 0.63162 0.7043 0.85268 0.0
H1237 H 0.65502 0.70906 0.82296 0.0
H1238 H 0.66015 0.80069 0.80431 0.0
H1239 H 0.68457 0.80597 0.78978 0.0
H1240 H 0.63635 0.78396 0.87443 0.0
H1241 H 0.61759 0.75923 0.88621 0.0
C1242 C 0.17938 0.8666 0.77418 0.0
C1243 C 0.17842 0.87262 0.84711 0.0
C1244 C 0.1932 0.8529 0.8908 0.0
C1245 C 0.19969 0.8525 0.81807 0.0
N1246 N 0.1986 0.8594 0.68769 0.0
N1247 N 0.18466 0.87103 0.97773 0.0
C1248 C 0.19227 0.85893 0.75841 0.0
C1249 C 0.18486 0.86521 0.90673 0.0
N1250 N 0.16818 0.86855 0.72002 0.0
N1251 N 0.19531 0.84169 0.94463 0.0
H1252 H 0.17884 0.88002 0.99359 0.0
H1253 H 0.19161 0.86793 0.02093 0.0
H1254 H 0.201 0.83221 0.93346 0.0
H1255 H 0.18934 0.84009 -0.00258 0.0
H1256 H 0.167 0.86288 0.66694 0.0
H1257 H 0.15833 0.87381 0.73105 0.0
H1258 H 0.19538 0.86633 0.64473 0.0
H1259 H 0.20819 0.85427 0.67196 0.0
C1260 C 0.65823 0.90289 0.87851 0.0
C1261 C 0.66723 0.90751 0.80746 0.0
C1262 C 0.6343 0.88629 0.75298 0.0
C1263 C 0.62613 0.87887 0.824 0.0
N1264 N 0.63296 0.87658 0.9532 0.0
N1265 N 0.66381 0.89786 0.67844 0.0
C1266 C 0.63884 0.8861 0.88666 0.0
C1267 C 0.65531 0.89755 0.74485 0.0
N1268 N 0.66762 0.91485 0.93779 0.0
N1269 N 0.62227 0.88356 0.69372 0.0
H1270 H 0.67916 0.90418 0.67095 0.0
H1271 H 0.65539 0.88946 0.63344 0.0
H1272 H 0.60683 0.87723 0.69786 0.0
H1273 H 0.62799 0.89009 0.64247 0.0
H1274 H 0.66074 0.91258 0.98917 0.0
H1275 H 0.681 0.92838 0.93348 0.0
H1276 H 0.64255 0.88072 -0.00152 0.0
H1277 H 0.61965 0.86314 0.96053 0.0
C1278 C 0.12385 0.79404 0.81139 0.0
C1279 C 0.10268 0.78261 0.80785 0.0
C1280 C 0.10407 0.75169 0.80121 0.0
C1281 C 0.12498 0.76286 0.81308 0.0
N1282 N 0.15493 0.79432 0.83561 0.0
N1283 N 0.07237 0.75043 0.81372 0.0
C1284 C 0.13499 0.784 0.81949 0.0
C1285 C 0.0927 0.76139 0.80632 0.0
N1286 N 0.13322 0.81441 0.80532 0.0
N1287 N 0.09512 0.73186 0.78291 0.0
H1288 H 0.06332 0.75682 0.81902 0.0
H1289 H 0.06462 0.735 0.82172 0.0
H1290 H 0.10293 0.72411 0.77797 0.0
H1291 H 0.08032 0.72356 0.76558 0.0
H1292 H 0.14863 0.8235 0.80039 0.0
H1293 H 0.12543 0.82215 0.79943 0.0
H1294 H 0.16271 0.80947 0.84861 0.0
H1295 H 0.16351 0.78739 0.84092 0.0
C1296 C 0.19504 0.30916 0.81419 0.0
C1297 C 0.20507 0.29801 0.81256 0.0
C1298 C 0.2375 0.32886 0.8112 0.0
C1299 C 0.22755 0.34005 0.81713 0.0
N1300 N 0.19728 0.34122 0.8368 0.0
N1301 N 0.23551 0.29672 0.82536 0.0
C1302 C 0.2064 0.3303 0.82223 0.0
C1303 C 0.22622 0.30771 0.81576 0.0
N1304 N 0.17475 0.2996 0.80567 0.0
N1305 N 0.25761 0.33838 0.79772 0.0
H1306 H 0.22777 0.28115 0.8292 0.0
H1307 H 0.25072 0.30308 0.83628 0.0
H1308 H 0.26649 0.35389 0.79371 0.0
H1309 H 0.26523 0.33086 0.78423 0.0
H1310 H 0.16675 0.30704 0.79828 0.0
H1311 H 0.16598 0.2841 0.80067 0.0
H1312 H 0.18211 0.33486 0.84843 0.0
H1313 H 0.2052 0.35673 0.8434 0.0
C1314 C 0.9064 0.66574 0.17486 0.0
C1315 C 0.89911 0.6793 0.17086 0.0
C1316 C 0.86464 0.65149 0.16663 0.0
C1317 C 0.87193 0.63802 0.17585 0.0
N1318 N 0.89916 0.63208 0.20248 0.0
N1319 N 0.87167 0.68582 0.17338 0.0
C1320 C 0.89266 0.64507 0.18383 0.0
C1321 C 0.87831 0.6724 0.16962 0.0
N1322 N 0.92641 0.67256 0.1675 0.0
N1323 N 0.84481 0.64428 0.15264 0.0
H1324 H 0.8813 0.70127 0.17474 0.0
H1325 H 0.85673 0.68171 0.18063 0.0
H1326 H 0.83437 0.62902 0.15101 0.0
H1327 H 0.83889 0.65329 0.1375 0.0
H1328 H 0.93238 0.66317 0.16147 0.0
H1329 H 0.93702 0.68767 0.16113 0.0
H1330 H 0.91386 0.63666 0.21702 0.0
H1331 H 0.88953 0.61678 0.20994 0.0
C1332 C 0.3439 0.22207 0.14228 0.0
C1333 C 0.35167 0.24305 0.14377 0.0
C1334 C 0.31798 0.23822 0.15197 0.0
C1335 C 0.31023 0.21723 0.15488 0.0
N1336 N 0.31556 0.1891 0.16588 0.0
N1337 N 0.34699 0.27133 0.16336 0.0
C1338 C 0.32313 0.20911 0.15379 0.0
C1339 C 0.33896 0.25121 0.15269 0.0
N1340 N 0.35627 0.21458 0.12747 0.0
N1341 N 0.30532 0.24571 0.14484 0.0
H1342 H 0.36236 0.28134 0.16332 0.0
H1343 H 0.33858 0.2779 0.17834 0.0
H1344 H 0.28981 0.23673 0.14372 0.0
H1345 H 0.31016 0.2607 0.13392 0.0
H1346 H 0.35118 0.19952 0.11735 0.0
H1347 H 0.37165 0.22365 0.11991 0.0
H1348 H 0.32441 0.18257 0.17324 0.0
H1349 H 0.30039 0.17921 0.17488 0.0
C1350 C 0.78614 0.13814 0.10574 0.0
C1351 C 0.77917 0.13898 0.17709 0.0
C1352 C 0.7998 0.12594 0.22719 0.0
C1353 C 0.80097 0.1191 0.15587 0.0
N1354 N 0.79538 0.11957 0.02386 0.0
N1355 N 0.7806 0.13437 0.30926 0.0
C1356 C 0.79475 0.1259 0.09365 0.0
C1357 C 0.78677 0.13365 0.2393 0.0
N1358 N 0.78412 0.14879 0.04953 0.0
N1359 N 0.81101 0.12481 0.28327 0.0
H1360 H 0.77159 0.14035 0.32271 0.0
H1361 H 0.78372 0.12799 0.35435 0.0
H1362 H 0.82104 0.11966 0.27477 0.0
H1363 H 0.81205 0.13109 0.33511 0.0
H1364 H 0.79039 0.15009 -0.00252 0.0
H1365 H 0.77811 0.15813 0.05808 0.0
H1366 H 0.78855 0.12221 0.97905 0.0
H1367 H 0.80147 0.11066 0.01037 0.0
C1368 C -0.00012 0.41919 0.48299 0.0
C1369 C 0.00851 0.44025 0.47808 0.0
C1370 C 0.97559 0.43716 0.49219 0.0
C1371 C 0.96687 0.41606 0.49052 0.0
N1372 N 0.96999 0.38678 0.47211 0.0
N1373 N 0.00489 0.46945 0.46813 0.0
C1374 C 0.97881 0.40699 0.48253 0.0
C1375 C -0.00354 0.44933 0.48013 0.0
N1376 N 0.01182 0.41088 0.49108 0.0
N1377 N 0.96399 0.44551 0.50748 0.0
H1378 H 0.02017 0.47881 0.4594 0.0
H1379 H -0.00336 0.47664 0.46116 0.0
H1380 H 0.94859 0.43701 0.51584 0.0
H1381 H 0.96976 0.4607 0.5174 0.0
H1382 H 0.00633 0.39583 0.50316 0.0
H1383 H 0.02739 0.41932 0.4924 0.0
H1384 H 0.97789 0.37962 0.4576 0.0
H1385 H 0.95453 0.37727 0.47169 0.0
C1386 C 0.53046 0.52105 0.55515 0.0
C1387 C 0.5385 0.5227 0.48368 0.0
C1388 C 0.51798 0.53654 0.43998 0.0
C1389 C 0.51521 0.54057 0.51394 0.0
N1390 N 0.51901 0.53611 0.6447 0.0
N1391 N 0.53946 0.53201 0.35522 0.0
C1392 C 0.52095 0.5322 0.57261 0.0
C1393 C 0.53174 0.52991 0.42457 0.0
N1394 N 0.53226 0.50907 0.60643 0.0
N1395 N 0.50764 0.53939 0.38469 0.0
H1396 H 0.54963 0.52753 0.34045 0.0
H1397 H 0.53671 0.53952 0.31307 0.0
H1398 H 0.49717 0.54386 0.39535 0.0
H1399 H 0.50781 0.53517 0.3302 0.0
H1400 H 0.52521 0.50592 0.65768 0.0
H1401 H 0.53896 0.50054 0.59405 0.0
H1402 H 0.52541 0.53238 0.68806 0.0
H1403 H 0.51227 0.54416 0.6619 0.0
C1404 C 0.445 0.00652 0.48189 0.0
C1405 C 0.43757 0.01956 0.49859 0.0
C1406 C 0.40322 0.99148 0.49501 0.0
C1407 C 0.4106 0.9789 0.47126 0.0
N1408 N 0.43798 0.97426 0.43434 0.0
N1409 N 0.40975 0.02533 0.5125 0.0
C1410 C 0.43136 0.98636 0.46253 0.0
C1411 C 0.41671 0.01228 0.50338 0.0
N1412 N 0.46504 0.01326 0.48723 0.0
N1413 N 0.38335 0.98347 0.51072 0.0
H1414 H 0.41909 0.04066 0.52 0.0
H1415 H 0.39477 0.02126 0.50733 0.0
H1416 H 0.37288 0.96839 0.50273 0.0
H1417 H 0.37742 0.99139 0.53656 0.0
H1418 H 0.47123 0.00402 0.48313 0.0
H1419 H 0.47542 0.0279 0.50229 0.0
H1420 H 0.45274 0.97938 0.41901 0.0
H1421 H 0.42841 0.95926 0.42117 0.0
C1422 C 0.57464 0.98807 0.51208 0.0
C1423 C 0.56828 0.00226 0.52107 0.0
C1424 C 0.53333 0.97601 0.50727 0.0
C1425 C 0.53958 0.96159 0.50457 0.0
N1426 N 0.56569 0.9532 0.516 0.0
N1427 N 0.5419 0.01002 0.53709 0.0
C1428 C 0.56012 0.96742 0.50987 0.0
C1429 C 0.54769 -0.00368 0.52138 0.0
N1430 N 0.59452 -0.00562 0.50388 0.0
N1431 N 0.51379 0.97036 0.49378 0.0
H1432 H 0.55204 0.02512 0.54661 0.0
H1433 H 0.52712 0.00623 0.54622 0.0
H1434 H 0.50288 0.95559 0.48305 0.0
H1435 H 0.50866 0.98045 0.48722 0.0
H1436 H 0.59993 0.98495 0.48873 0.0
H1437 H 0.60562 0.00941 0.50659 0.0
H1438 H 0.58019 0.9565 0.5283 0.0
H1439 H 0.55552 0.93788 0.51495 0.0
C1440 C 0.97573 0.53858 0.50444 0.0
C1441 C 0.96463 0.54856 0.51275 0.0
C1442 C -0.00453 0.58105 0.51026 0.0
C1443 C 0.0064 0.57112 0.49632 0.0
N1444 N 0.007 0.5409 0.4678 0.0
N1445 N 0.96316 0.57907 0.51109 0.0
C1446 C -0.00345 0.54999 0.48999 0.0
C1447 C 0.97428 0.56975 0.51225 0.0
N1448 N 0.96647 0.51827 0.51286 0.0
N1449 N 0.00536 0.60114 0.52431 0.0
H1450 H 0.94758 0.5713 0.51257 0.0
H1451 H 0.96926 0.59436 0.50241 0.0
H1452 H 0.0209 0.60996 0.52312 0.0
H1453 H -0.00169 0.60881 0.54304 0.0
H1454 H 0.97413 0.51036 0.51547 0.0
H1455 H 0.95121 0.50941 0.52337 0.0
H1456 H 0.00029 0.52578 0.45454 0.0
H1457 H 0.02228 0.54879 0.45646 0.0
C1458 C 0.41872 0.43699 0.45579 0.0
C1459 C 0.42795 0.45811 0.45998 0.0
C1460 C 0.46071 0.46077 0.47704 0.0
C1461 C 0.45154 0.43977 0.46754 0.0
N1462 N 0.42276 0.4084 0.43235 0.0
N1463 N 0.45769 0.49055 0.46528 0.0
C1464 C 0.43081 0.42802 0.45248 0.0
C1465 C 0.44898 0.47017 0.46812 0.0
N1466 N 0.39834 0.4254 0.45814 0.0
N1467 N 0.48042 0.47156 0.49635 0.0
H1468 H 0.44946 0.49783 0.45914 0.0
H1469 H 0.47307 0.50021 0.46362 0.0
H1470 H 0.48941 0.46508 0.50212 0.0
H1471 H 0.48757 0.48657 0.51138 0.0
H1472 H 0.39089 0.40991 0.46424 0.0
H1473 H 0.3888 0.4313 0.46072 0.0
H1474 H 0.40825 0.39977 0.41252 0.0
H1475 H 0.4311 0.40118 0.42872 0.0
C1476 C 0.21205 0.08514 0.26316 0.0
C1477 C 0.2301 0.08569 0.2819 0.0
C1478 C 0.24694 0.12211 0.29284 0.0
C1479 C 0.2304 0.12163 0.25727 0.0
N1480 N 0.19633 0.10341 0.21574 0.0
N1481 N 0.26485 0.10448 0.31799 0.0
C1482 C 0.21249 0.10331 0.24597 0.0
C1483 C 0.24744 0.10406 0.3002 0.0
N1484 N 0.19471 0.06716 0.26077 0.0
N1485 N 0.2624 0.13989 0.31722 0.0
H1486 H 0.26588 0.09166 0.32594 0.0
H1487 H 0.27863 0.11758 0.32129 0.0
H1488 H 0.26263 0.15344 0.31095 0.0
H1489 H 0.27405 0.14102 0.34959 0.0
H1490 H 0.18069 0.06562 0.25212 0.0
H1491 H 0.1943 0.05378 0.27402 0.0
H1492 H 0.18349 0.0906 0.19825 0.0
H1493 H 0.19611 0.11665 0.20629 0.0
C1494 C 0.86827 0.09797 0.33097 0.0
C1495 C 0.86481 0.08386 0.2746 0.0
C1496 C 0.90038 0.10021 0.2483 0.0
C1497 C 0.90237 0.11715 0.28566 0.0
N1498 N 0.89293 0.12807 0.3947 0.0
N1499 N 0.87768 0.06615 0.20692 0.0
C1500 C 0.88787 0.11463 0.33861 0.0
C1501 C 0.88116 0.08295 0.24404 0.0
N1502 N 0.85281 0.096 0.37336 0.0
N1503 N 0.91658 0.10153 0.21298 0.0
H1504 H 0.86334 0.05365 0.20441 0.0
H1505 H 0.88877 0.06419 0.18253 0.0
H1506 H 0.93067 0.11431 0.21794 0.0
H1507 H 0.91625 0.09024 0.18071 0.0
H1508 H 0.85377 0.10706 0.40872 0.0
H1509 H 0.839 0.08287 0.3742 0.0
H1510 H 0.88323 0.12681 0.43686 0.0
H1511 H 0.90768 0.13935 0.40308 0.0
C1512 C 0.90641 0.78611 0.21048 0.0
C1513 C 0.90422 0.76752 0.23242 0.0
C1514 C 0.86991 0.7561 0.27171 0.0
C1515 C 0.87073 0.77242 0.23292 0.0
N1516 N 0.8898 0.80455 0.17498 0.0
N1517 N 0.8841 0.73458 0.28572 0.0
C1518 C 0.88917 0.78816 0.20659 0.0
C1519 C 0.88625 0.75266 0.26585 0.0
N1520 N 0.92492 0.8015 0.19246 0.0
N1521 N 0.85334 0.74357 0.31186 0.0
H1522 H 0.89566 0.73134 0.28339 0.0
H1523 H 0.87048 0.72224 0.30037 0.0
H1524 H 0.84103 0.74558 0.3167 0.0
H1525 H 0.85263 0.73247 0.34661 0.0
H1526 H 0.92793 0.81593 0.18033 0.0
H1527 H 0.93768 0.80012 0.19581 0.0
H1528 H 0.90215 0.81565 0.14707 0.0
H1529 H 0.87749 0.80672 0.17558 0.0
C1530 C 0.08 0.1989 0.75871 0.0
C1531 C 0.08219 0.21669 0.7273 0.0
C1532 C 0.11234 0.22217 0.6639 0.0
C1533 C 0.11352 0.20892 0.71475 0.0
N1534 N 0.09649 0.18015 0.79271 0.0
N1535 N 0.09899 0.24416 0.64145 0.0
C1536 C 0.09634 0.19539 0.75493 0.0
C1537 C 0.09756 0.22767 0.67526 0.0
N1538 N 0.06263 0.186 0.79391 0.0
N1539 N 0.12536 0.22956 0.60616 0.0
H1540 H 0.08819 0.24839 0.64694 0.0
H1541 H 0.11135 0.25414 0.61048 0.0
H1542 H 0.13535 0.22456 0.59461 0.0
H1543 H 0.12444 0.23846 0.56483 0.0
H1544 H 0.05959 0.17231 0.81595 0.0
H1545 H 0.05056 0.18855 0.79596 0.0
H1546 H 0.08534 0.17066 0.82907 0.0
H1547 H 0.10827 0.17725 0.78711 0.0
C1548 C 0.72971 0.86798 0.67419 0.0
C1549 C 0.74765 0.86905 0.698 0.0
C1550 C 0.76478 0.90552 0.69441 0.0
C1551 C 0.74594 0.90426 0.68898 0.0
N1552 N 0.71056 0.885 0.66442 0.0
N1553 N 0.78303 0.88806 0.71972 0.0
C1554 C 0.72849 0.88575 0.67346 0.0
C1555 C 0.76558 0.88765 0.70298 0.0
N1556 N 0.7138 0.84991 0.65483 0.0
N1557 N 0.78166 0.9239 0.69338 0.0
H1558 H 0.78397 0.87504 0.72283 0.0
H1559 H 0.79636 0.90104 0.73185 0.0
H1560 H 0.781 0.937 0.6866 0.0
H1561 H 0.7961 0.92612 0.69315 0.0
H1562 H 0.70069 0.84817 0.6317 0.0
H1563 H 0.71442 0.83671 0.65614 0.0
H1564 H 0.69687 0.8718 0.66261 0.0
H1565 H 0.70929 0.89779 0.66069 0.0
C1566 C 0.0972 0.90114 0.77149 0.0
C1567 C 0.11589 0.90617 0.74075 0.0
C1568 C 0.10187 0.87374 0.68192 0.0
C1569 C 0.08548 0.86699 0.73108 0.0
N1570 N 0.06341 0.87443 0.79943 0.0
N1571 N 0.13159 0.90263 0.63237 0.0
C1572 C 0.08153 0.88097 0.76663 0.0
C1573 C 0.11657 0.89431 0.68301 0.0
N1574 N 0.09546 0.91532 0.81022 0.0
N1575 N 0.10421 0.86041 0.63986 0.0
H1576 H 0.14191 0.91795 0.63292 0.0
H1577 H 0.13249 0.89496 0.58664 0.0
H1578 H 0.09325 0.84538 0.63633 0.0
H1579 H 0.11711 0.8642 0.60977 0.0
H1580 H 0.08253 0.91285 0.83709 0.0
H1581 H 0.10738 0.93001 0.81302 0.0
H1582 H 0.05944 0.88359 0.82805 0.0
H1583 H 0.052 0.85955 0.79486 0.0
C1584 C 0.90457 0.437 0.64028 0.0
C1585 C 0.8873 0.41959 0.61426 0.0
C1586 C 0.86882 0.43754 0.60805 0.0
C1587 C 0.88678 0.45539 0.62433 0.0
N1588 N 0.91908 0.4713 0.68257 0.0
N1589 N 0.85177 0.40129 0.59678 0.0
C1590 C 0.90368 0.45476 0.65057 0.0
C1591 C 0.86889 0.41919 0.60679 0.0
N1592 N 0.92221 0.43709 0.64858 0.0
N1593 N 0.85214 0.4385 0.59009 0.0
H1594 H 0.85181 0.38778 0.59638 0.0
H1595 H 0.83755 0.39962 0.59484 0.0
H1596 H 0.85172 0.45179 0.59447 0.0
H1597 H 0.83902 0.42649 0.56994 0.0
H1598 H 0.93589 0.45001 0.65723 0.0
H1599 H 0.92346 0.42432 0.64334 0.0
H1600 H 0.93114 0.47133 0.70823 0.0
H1601 H 0.91879 0.48455 0.69004 0.0
C1602 C 0.55347 0.42878 0.56952 0.0
C1603 C 0.53727 0.43055 0.59682 0.0
C1604 C 0.56067 0.46268 0.65115 0.0
C1605 C 0.57491 0.46384 0.59977 0.0
N1606 N 0.58888 0.44646 0.53733 0.0
N1607 N 0.52534 0.4466 0.68016 0.0
C1608 C 0.57279 0.44599 0.57028 0.0
C1609 C 0.54088 0.44638 0.64539 0.0
N1610 N 0.5498 0.41116 0.53853 0.0
N1611 N 0.56601 0.47745 0.70214 0.0
H1612 H 0.51085 0.43441 0.67875 0.0
H1613 H 0.52679 0.45891 0.70913 0.0
H1614 H 0.58081 0.48897 0.70714 0.0
H1615 H 0.55647 0.47709 0.74343 0.0
H1616 H 0.56079 0.40863 0.5167 0.0
H1617 H 0.53544 0.39867 0.53842 0.0
H1618 H 0.58852 0.43436 0.51067 0.0
H1619 H 0.60289 0.45945 0.5385 0.0
C1620 C 0.57101 0.10431 0.60036 0.0
C1621 C 0.56883 0.08538 0.61699 0.0
C1622 C 0.53265 0.07052 0.62693 0.0
C1623 C 0.5347 0.08895 0.6029 0.0
N1624 N 0.55506 0.1245 0.58704 0.0
N1625 N 0.54894 0.05246 0.66972 0.0
C1626 C 0.55373 0.10631 0.59686 0.0
C1627 C 0.5501 0.06921 0.63916 0.0
N1628 N 0.58958 0.12002 0.58489 0.0
N1629 N 0.51407 0.05393 0.63243 0.0
H1630 H 0.5614 0.05087 0.67856 0.0
H1631 H 0.53597 0.04089 0.69282 0.0
H1632 H 0.5009 0.05439 0.62563 0.0
H1633 H 0.51161 0.0395 0.63978 0.0
H1634 H 0.59222 0.13374 0.56436 0.0
H1635 H 0.60249 0.11905 0.59151 0.0
H1636 H 0.56844 0.13804 0.58681 0.0
H1637 H 0.54243 0.12612 0.58484 0.0
C1638 C 0.74456 0.54771 0.04741 0.0
C1639 C 0.74796 0.56694 0.02838 0.0
C1640 C 0.78325 0.57834 0.00713 0.0
C1641 C 0.78063 0.56129 0.04605 0.0
N1642 N 0.75914 0.52789 0.08977 0.0
N1643 N 0.76975 0.60008 0.98064 0.0
C1644 C 0.76125 0.54512 0.06016 0.0
C1645 C 0.76695 0.58192 0.00273 0.0
N1646 N 0.7254 0.53237 0.05555 0.0
N1647 N 0.80142 0.59135 0.9772 0.0
H1648 H 0.75801 0.60296 0.97437 0.0
H1649 H 0.78372 0.61253 0.97097 0.0
H1650 H 0.81352 0.58892 0.9798 0.0
H1651 H 0.80396 0.60335 0.94366 0.0
H1652 H 0.7216 0.51762 0.06602 0.0
H1653 H 0.71317 0.53434 0.0458 0.0
H1654 H 0.74567 0.5161 0.10867 0.0
H1655 H 0.77133 0.52566 0.0962 0.0
C1656 C 0.44427 0.21573 0.06267 0.0
C1657 C 0.42512 0.1984 0.06229 0.0
C1658 C 0.41021 0.21787 0.01802 0.0
C1659 C 0.42824 0.23549 0.03641 0.0
N1660 N 0.46335 0.25211 0.06228 0.0
N1661 N 0.39005 0.18188 0.03314 0.0
C1662 C 0.44573 0.23466 0.05264 0.0
C1663 C 0.4082 0.19906 0.03604 0.0
N1664 N 0.46077 0.21392 0.07436 0.0
N1665 N 0.39495 0.21921 0.98556 0.0
H1666 H 0.38835 0.16779 0.04329 0.0
H1667 H 0.3766 0.18155 0.02371 0.0
H1668 H 0.39615 0.23281 0.97078 0.0
H1669 H 0.38189 0.20691 0.96644 0.0
H1670 H 0.47537 0.22578 0.07158 0.0
H1671 H 0.45979 0.20003 0.08161 0.0
H1672 H 0.47643 0.25293 0.08158 0.0
H1673 H 0.46465 0.26601 0.05144 0.0
C1674 C 0.74358 0.2138 0.08599 0.0
C1675 C 0.74001 0.19545 0.05603 0.0
C1676 C 0.77276 0.21148 -0.00107 0.0
C1677 C 0.7782 0.22776 0.04753 0.0
N1678 N 0.76838 0.24843 0.11316 0.0
N1679 N 0.74546 0.18063 0.94883 0.0
C1680 C 0.76321 0.23047 0.08138 0.0
C1681 C 0.75263 0.1957 -0.00068 0.0
N1682 N 0.72859 0.21437 0.1235 0.0
N1683 N 0.78699 0.21035 0.95811 0.0
H1684 H 0.73041 0.16953 0.94848 0.0
H1685 H 0.75372 0.18036 0.90388 0.0
H1686 H 0.80168 0.22213 0.95519 0.0
H1687 H 0.78428 0.19768 0.92847 0.0
H1688 H 0.73003 0.22698 0.1499 0.0
H1689 H 0.7143 0.20179 0.12583 0.0
H1690 H 0.75843 0.25157 0.14045 0.0
H1691 H 0.78291 0.26055 0.10895 0.0
C1692 C 0.57849 0.76707 0.98571 0.0
C1693 C 0.56147 0.74803 0.9724 0.0
C1694 C 0.54068 0.76348 0.95746 0.0
C1695 C 0.5583 0.78235 0.95451 0.0
N1696 N 0.59379 0.80307 0.97165 0.0
N1697 N 0.52597 0.72731 0.9571 0.0
C1698 C 0.57711 0.78449 0.9726 0.0
C1699 C 0.54232 0.746 0.96325 0.0
N1700 N 0.59601 0.76847 0.00856 0.0
N1701 N 0.52254 0.7625 0.95348 0.0
H1702 H 0.52681 0.71436 0.96552 0.0
H1703 H 0.51177 0.72453 0.94272 0.0
H1704 H 0.52128 0.77533 0.94988 0.0
H1705 H 0.50889 0.74938 0.95931 0.0
H1706 H 0.60845 0.78177 0.0251 0.0
H1707 H 0.59772 0.75607 0.0171 0.0
H1708 H 0.60833 0.80561 0.9745 0.0
H1709 H 0.59313 0.81616 0.96506 0.0
C1710 C 0.22676 0.75615 0.89859 0.0
C1711 C 0.21021 0.75363 0.94007 0.0
C1712 C 0.22932 0.78806 0.98291 0.0
C1713 C 0.24188 0.79184 0.921 0.0
N1714 N 0.25865 0.77995 0.84277 0.0
N1715 N 0.19909 0.7637 0.04702 0.0
C1716 C 0.24295 0.77583 0.88803 0.0
C1717 C 0.21282 0.76839 0.9922 0.0
N1718 N 0.22579 0.73991 0.86487 0.0
N1719 N 0.23303 0.80322 0.03044 0.0
H1720 H 0.18811 0.74895 0.05756 0.0
H1721 H 0.19902 0.77401 0.08372 0.0
H1722 H 0.24604 0.81711 0.02686 0.0
H1723 H 0.22434 0.80172 0.07641 0.0
H1724 H 0.23704 0.74038 0.83198 0.0
H1725 H 0.21355 0.7256 0.87317 0.0
H1726 H 0.26027 0.7692 0.81395 0.0
H1727 H 0.27047 0.79458 0.83634 0.0
C1728 C 0.21736 0.45393 0.89838 0.0
C1729 C 0.19918 0.43913 0.92958 0.0
C1730 C 0.2137 0.41843 0.96005 0.0
C1731 C 0.23018 0.43107 0.91471 0.0
N1732 N 0.25153 0.46377 0.86416 0.0
N1733 N 0.18398 0.41387 0.02329 0.0
C1734 C 0.23343 0.45007 0.8928 0.0
C1735 C 0.19879 0.42368 0.97264 0.0
N1736 N 0.21834 0.47074 0.8695 0.0
N1737 N 0.21158 0.40084 0.98583 0.0
H1738 H 0.17359 0.41836 0.03508 0.0
H1739 H 0.18345 0.40307 0.05919 0.0
H1740 H 0.22257 0.3969 0.97889 0.0
H1741 H 0.19867 0.38988 0.01159 0.0
H1742 H 0.23046 0.48164 0.84008 0.0
H1743 H 0.20651 0.47354 0.87567 0.0
H1744 H 0.25527 0.47822 0.84869 0.0
H1745 H 0.26335 0.4609 0.86062 0.0
C1746 C 0.40739 0.8763 0.36729 0.0
C1747 C 0.40983 0.89531 0.35048 0.0
C1748 C 0.446 0.90988 0.34309 0.0
C1749 C 0.44368 0.89168 0.37105 0.0
N1750 N 0.42325 0.85622 0.38747 0.0
N1751 N 0.42998 0.92777 0.2951 0.0
C1752 C 0.42462 0.87432 0.37478 0.0
C1753 C 0.42867 0.91124 0.32814 0.0
N1754 N 0.38863 0.8606 0.37977 0.0
N1755 N 0.4647 0.9262 0.33657 0.0
H1756 H 0.41748 0.92904 0.28314 0.0
H1757 H 0.44312 0.93934 0.27294 0.0
H1758 H 0.47767 0.92544 0.34479 0.0
H1759 H 0.46745 0.94061 0.32581 0.0
H1760 H 0.3856 0.84668 0.39933 0.0
H1761 H 0.3759 0.86178 0.37079 0.0
H1762 H 0.40991 0.84265 0.38775 0.0
H1763 H 0.43594 0.85475 0.39244 0.0
C1764 C 0.10475 0.5666 0.35539 0.0
C1765 C 0.08601 0.56542 0.34724 0.0
C1766 C 0.07074 0.53027 0.31298 0.0
C1767 C 0.08777 0.53037 0.34224 0.0
N1768 N 0.12251 0.5483 0.37392 0.0
N1769 N 0.05199 0.54781 0.30486 0.0
C1770 C 0.10552 0.54862 0.35581 0.0
C1771 C 0.0694 0.5479 0.31912 0.0
N1772 N 0.12135 0.58485 0.36634 0.0
N1773 N 0.05569 0.51312 0.28296 0.0
H1774 H 0.05102 0.5608 0.30687 0.0
H1775 H 0.03853 0.535 0.29256 0.0
H1776 H 0.05662 0.50015 0.27815 0.0
H1777 H 0.04323 0.5122 0.25711 0.0
H1778 H 0.13578 0.58715 0.37059 0.0
H1779 H 0.12058 0.59799 0.36593 0.0
H1780 H 0.13572 0.56076 0.39098 0.0
H1781 H 0.12313 0.53509 0.37183 0.0
C1782 C 0.43351 0.57603 0.44565 0.0
C1783 C 0.45185 0.57917 0.41719 0.0
C1784 C 0.43464 0.55022 0.33717 0.0
C1785 C 0.41743 0.5441 0.38145 0.0
N1786 N 0.39741 0.55397 0.45074 0.0
N1787 N 0.46811 0.57712 0.30734 0.0
C1788 C 0.41576 0.55835 0.42517 0.0
C1789 C 0.45181 0.56899 0.35239 0.0
N1790 N 0.43363 0.58915 0.49625 0.0
N1791 N 0.43502 0.53762 0.28538 0.0
H1792 H 0.48015 0.59146 0.3165 0.0
H1793 H 0.46869 0.57081 0.2573 0.0
H1794 H 0.42221 0.52447 0.26987 0.0
H1795 H 0.44796 0.54018 0.2582 0.0
H1796 H 0.42102 0.58726 0.524 0.0
H1797 H 0.44687 0.60223 0.50959 0.0
H1798 H 0.39479 0.56365 0.48248 0.0
H1799 H 0.38455 0.54074 0.43547 0.0
loop_
_geom_bond_atom_site_label_1
_geom_bond_atom_site_label_2
_geom_bond_distance
_geom_bond_site_symmetry_2
_ccdc_geom_bond_type
C0 O1 1.306 . S
C0 O3 1.160 . S
O1 C0 1.306 . S
O1 Cd2 2.228 . S
Cd2 O1 2.228 . S
Cd2 O6 2.273 . S
Cd2 O10 2.277 . S
O3 C0 1.160 . S
O3 Cd4 2.203 . S
Cd4 O3 2.203 . S
Cd4 O6 2.411 . S
Cd4 O7 2.333 . S
Cd4 O8 2.352 . S
Cd4 O12 2.277 . S
Cd4 O13 2.356 . S
C5 O10 1.209 . S
C5 O12 1.226 . S
O6 Cd2 2.273 . S
O6 Cd4 2.411 . S
O6 C9 1.320 . S
O7 Cd4 2.333 . S
O7 C9 1.214 . S
O8 Cd4 2.352 . S
O8 C11 1.258 . S
C9 O6 1.320 . S
C9 O7 1.214 . S
O10 Cd2 2.277 . S
O10 C5 1.209 . S
C11 O8 1.258 . S
C11 O13 1.282 . S
O12 Cd4 2.277 . S
O12 C5 1.226 . S
O13 Cd4 2.356 . S
O13 C11 1.282 . S
C14 O15 1.306 . S
C14 O17 1.160 . S
O15 C14 1.306 . S
O15 Cd16 2.228 . S
Cd16 O15 2.228 . S
Cd16 O20 2.273 . S
Cd16 O24 2.277 . S
O17 C14 1.160 . S
O17 Cd18 2.203 . S
Cd18 O17 2.203 . S
Cd18 O20 2.411 . S
Cd18 O21 2.333 . S
Cd18 O22 2.352 . S
Cd18 O26 2.277 . S
Cd18 O27 2.356 . S
C19 O24 1.209 . S
C19 O26 1.226 . S
O20 Cd16 2.273 . S
O20 Cd18 2.411 . S
O20 C23 1.320 . S
O21 Cd18 2.333 . S
O21 C23 1.214 . S
O22 Cd18 2.352 . S
O22 C25 1.258 . S
C23 O20 1.320 . S
C23 O21 1.214 . S
O24 Cd16 2.277 . S
O24 C19 1.209 . S
C25 O22 1.258 . S
C25 O27 1.282 . S
O26 Cd18 2.277 . S
O26 C19 1.226 . S
O27 Cd18 2.356 . S
O27 C25 1.282 . S
C28 O29 1.306 . S
C28 O31 1.160 . S
O29 C28 1.306 . S
O29 Cd30 2.228 . S
Cd30 O29 2.228 . S
Cd30 O34 2.273 . S
Cd30 O38 2.277 . S
O31 C28 1.160 . S
O31 Cd32 2.203 . S
Cd32 O31 2.203 . S
Cd32 O34 2.411 . S
Cd32 O35 2.333 . S
Cd32 O36 2.352 . S
Cd32 O40 2.277 . S
Cd32 O41 2.356 . S
C33 O38 1.209 . S
C33 O40 1.226 . S
O34 Cd30 2.273 . S
O34 Cd32 2.411 . S
O34 C37 1.320 . S
O35 Cd32 2.333 . S
O35 C37 1.214 . S
O36 Cd32 2.352 . S
O36 C39 1.258 . S
C37 O34 1.320 . S
C37 O35 1.214 . S
O38 Cd30 2.277 . S
O38 C33 1.209 . S
C39 O36 1.258 . S
C39 O41 1.282 . S
O40 Cd32 2.277 . S
O40 C33 1.226 . S
O41 Cd32 2.356 . S
O41 C39 1.282 . S
C42 O43 1.306 . S
C42 O45 1.160 . S
O43 C42 1.306 . S
O43 Cd44 2.228 . S
Cd44 O43 2.228 . S
Cd44 O48 2.273 . S
Cd44 O52 2.277 . S
O45 C42 1.160 . S
O45 Cd46 2.203 . S
Cd46 O45 2.203 . S
Cd46 O48 2.411 . S
Cd46 O49 2.333 . S
Cd46 O50 2.352 . S
Cd46 O54 2.277 . S
Cd46 O55 2.356 . S
C47 O52 1.209 . S
C47 O54 1.226 . S
O48 Cd44 2.273 . S
O48 Cd46 2.411 . S
O48 C51 1.320 . S
O49 Cd46 2.333 . S
O49 C51 1.214 . S
O50 Cd46 2.352 . S
O50 C53 1.258 . S
C51 O48 1.320 . S
C51 O49 1.214 . S
O52 Cd44 2.277 . S
O52 C47 1.209 . S
C53 O50 1.258 . S
C53 O55 1.282 . S
O54 Cd46 2.277 . S
O54 C47 1.226 . S
O55 Cd46 2.356 . S
O55 C53 1.282 . S
C56 O57 1.306 . S
C56 O59 1.160 . S
O57 C56 1.306 . S
O57 Cd58 2.228 . S
Cd58 O57 2.228 . S
Cd58 O62 2.273 . S
Cd58 O66 2.277 . S
O59 C56 1.160 . S
O59 Cd60 2.203 . S
Cd60 O59 2.203 . S
Cd60 O62 2.411 . S
Cd60 O63 2.333 . S
Cd60 O64 2.352 . S
Cd60 O68 2.277 . S
Cd60 O69 2.356 . S
C61 O66 1.209 . S
C61 O68 1.226 . S
O62 Cd58 2.273 . S
O62 Cd60 2.411 . S
O62 C65 1.320 . S
O63 Cd60 2.333 . S
O63 C65 1.214 . S
O64 Cd60 2.352 . S
O64 C67 1.258 . S
C65 O62 1.320 . S
C65 O63 1.214 . S
O66 Cd58 2.277 . S
O66 C61 1.209 . S
C67 O64 1.258 . S
C67 O69 1.282 . S
O68 Cd60 2.277 . S
O68 C61 1.226 . S
O69 Cd60 2.356 . S
O69 C67 1.282 . S
C70 O71 1.306 . S
C70 O73 1.160 . S
O71 C70 1.306 . S
O71 Cd72 2.228 . S
Cd72 O71 2.228 . S
Cd72 O76 2.273 . S
Cd72 O80 2.277 . S
O73 C70 1.160 . S
O73 Cd74 2.203 . S
Cd74 O73 2.203 . S
Cd74 O76 2.411 . S
Cd74 O77 2.333 . S
Cd74 O78 2.352 . S
Cd74 O82 2.277 . S
Cd74 O83 2.356 . S
C75 O80 1.209 . S
C75 O82 1.226 . S
O76 Cd72 2.273 . S
O76 Cd74 2.411 . S
O76 C79 1.320 . S
O77 Cd74 2.333 . S
O77 C79 1.214 . S
O78 Cd74 2.352 . S
O78 C81 1.258 . S
C79 O76 1.320 . S
C79 O77 1.214 . S
O80 Cd72 2.277 . S
O80 C75 1.209 . S
C81 O78 1.258 . S
C81 O83 1.282 . S
O82 Cd74 2.277 . S
O82 C75 1.226 . S
O83 Cd74 2.356 . S
O83 C81 1.282 . S
C84 O85 1.306 . S
C84 O87 1.160 . S
O85 C84 1.306 . S
O85 Cd86 2.228 . S
Cd86 O85 2.228 . S
Cd86 O90 2.273 . S
Cd86 O94 2.277 . S
O87 C84 1.160 . S
O87 Cd88 2.203 . S
Cd88 O87 2.203 . S
Cd88 O90 2.411 . S
Cd88 O91 2.333 . S
Cd88 O92 2.352 . S
Cd88 O96 2.277 . S
Cd88 O97 2.356 . S
C89 O94 1.209 . S
C89 O96 1.226 . S
O90 Cd86 2.273 . S
O90 Cd88 2.411 . S
O90 C93 1.320 . S
O91 Cd88 2.333 . S
O91 C93 1.214 . S
O92 Cd88 2.352 . S
O92 C95 1.258 . S
C93 O90 1.320 . S
C93 O91 1.214 . S
O94 Cd86 2.277 . S
O94 C89 1.209 . S
C95 O92 1.258 . S
C95 O97 1.282 . S
O96 Cd88 2.277 . S
O96 C89 1.226 . S
O97 Cd88 2.356 . S
O97 C95 1.282 . S
C98 O99 1.306 . S
C98 O101 1.160 . S
O99 C98 1.306 . S
O99 Cd100 2.228 . S
Cd100 O99 2.228 . S
Cd100 O104 2.273 . S
Cd100 O108 2.277 . S
O101 C98 1.160 . S
O101 Cd102 2.203 . S
Cd102 O101 2.203 . S
Cd102 O104 2.411 . S
Cd102 O105 2.333 . S
Cd102 O106 2.352 . S
Cd102 O110 2.277 . S
Cd102 O111 2.356 . S
C103 O108 1.209 . S
C103 O110 1.226 . S
O104 Cd100 2.273 . S
O104 Cd102 2.411 . S
O104 C107 1.320 . S
O105 Cd102 2.333 . S
O105 C107 1.214 . S
O106 Cd102 2.352 . S
O106 C109 1.258 . S
C107 O104 1.320 . S
C107 O105 1.214 . S
O108 Cd100 2.277 . S
O108 C103 1.209 . S
C109 O106 1.258 . S
C109 O111 1.282 . S
O110 Cd102 2.277 . S
O110 C103 1.226 . S
O111 Cd102 2.356 . S
O111 C109 1.282 . S
C112 O113 1.306 . S
C112 O115 1.160 . S
O113 C112 1.306 . S
O113 Cd114 2.228 . S
Cd114 O113 2.228 . S
Cd114 O118 2.273 . S
Cd114 O122 2.277 . S
O115 C112 1.160 . S
O115 Cd116 2.203 . S
Cd116 O115 2.203 . S
Cd116 O118 2.411 . S
Cd116 O119 2.333 . S
Cd116 O120 2.352 . S
Cd116 O124 2.277 . S
Cd116 O125 2.356 . S
C117 O122 1.209 . S
C117 O124 1.226 . S
O118 Cd114 2.273 . S
O118 Cd116 2.411 . S
O118 C121 1.320 . S
O119 Cd116 2.333 . S
O119 C121 1.214 . S
O120 Cd116 2.352 . S
O120 C123 1.258 . S
C121 O118 1.320 . S
C121 O119 1.214 . S
O122 Cd114 2.277 . S
O122 C117 1.209 . S
C123 O120 1.258 . S
C123 O125 1.282 . S
O124 Cd116 2.277 . S
O124 C117 1.226 . S
O125 Cd116 2.356 . S
O125 C123 1.282 . S
C126 O127 1.306 . S
C126 O129 1.160 . S
O127 C126 1.306 . S
O127 Cd128 2.228 . S
Cd128 O127 2.228 . S
Cd128 O132 2.273 . S
Cd128 O136 2.277 . S
O129 C126 1.160 . S
O129 Cd130 2.203 . S
Cd130 O129 2.203 . S
Cd130 O132 2.411 . S
Cd130 O133 2.333 . S
Cd130 O134 2.352 . S
Cd130 O138 2.277 . S
Cd130 O139 2.356 . S
C131 O136 1.209 . S
C131 O138 1.226 . S
O132 Cd128 2.273 . S
O132 Cd130 2.411 . S
O132 C135 1.320 . S
O133 Cd130 2.333 . S
O133 C135 1.214 . S
O134 Cd130 2.352 . S
O134 C137 1.258 . S
C135 O132 1.320 . S
C135 O133 1.214 . S
O136 Cd128 2.277 . S
O136 C131 1.209 . S
C137 O134 1.258 . S
C137 O139 1.282 . S
O138 Cd130 2.277 . S
O138 C131 1.226 . S
O139 Cd130 2.356 . S
O139 C137 1.282 . S
C140 O141 1.306 . S
C140 O143 1.160 . S
O141 C140 1.306 . S
O141 Cd142 2.228 . S
Cd142 O141 2.228 . S
Cd142 O146 2.273 . S
Cd142 O150 2.277 . S
O143 C140 1.160 . S
O143 Cd144 2.203 . S
Cd144 O143 2.203 . S
Cd144 O146 2.411 . S
Cd144 O147 2.333 . S
Cd144 O148 2.352 . S
Cd144 O152 2.277 . S
Cd144 O153 2.356 . S
C145 O150 1.209 . S
C145 O152 1.226 . S
O146 Cd142 2.273 . S
O146 Cd144 2.411 . S
O146 C149 1.320 . S
O147 Cd144 2.333 . S
O147 C149 1.214 . S
O148 Cd144 2.352 . S
O148 C151 1.258 . S
C149 O146 1.320 . S
C149 O147 1.214 . S
O150 Cd142 2.277 . S
O150 C145 1.209 . S
C151 O148 1.258 . S
C151 O153 1.282 . S
O152 Cd144 2.277 . S
O152 C145 1.226 . S
O153 Cd144 2.356 . S
O153 C151 1.282 . S
C154 O155 1.306 . S
C154 O157 1.160 . S
O155 C154 1.306 . S
O155 Cd156 2.228 . S
Cd156 O155 2.228 . S
Cd156 O160 2.273 . S
Cd156 O164 2.277 . S
O157 C154 1.160 . S
O157 Cd158 2.203 . S
Cd158 O157 2.203 . S
Cd158 O160 2.411 . S
Cd158 O161 2.333 . S
Cd158 O162 2.352 . S
Cd158 O166 2.277 . S
Cd158 O167 2.356 . S
C159 O164 1.209 . S
C159 O166 1.226 . S
O160 Cd156 2.273 . S
O160 Cd158 2.411 . S
O160 C163 1.320 . S
O161 Cd158 2.333 . S
O161 C163 1.214 . S
O162 Cd158 2.352 . S
O162 C165 1.258 . S
C163 O160 1.320 . S
C163 O161 1.214 . S
O164 Cd156 2.277 . S
O164 C159 1.209 . S
C165 O162 1.258 . S
C165 O167 1.282 . S
O166 Cd158 2.277 . S
O166 C159 1.226 . S
O167 Cd158 2.356 . S
O167 C165 1.282 . S
C168 O169 1.306 . S
C168 O171 1.160 . S
O169 C168 1.306 . S
O169 Cd170 2.228 . S
Cd170 O169 2.228 . S
Cd170 O174 2.273 . S
Cd170 O178 2.277 . S
O171 C168 1.160 . S
O171 Cd172 2.203 . S
Cd172 O171 2.203 . S
Cd172 O174 2.411 . S
Cd172 O175 2.333 . S
Cd172 O176 2.352 . S
Cd172 O180 2.277 . S
Cd172 O181 2.356 . S
C173 O178 1.209 . S
C173 O180 1.226 . S
O174 Cd170 2.273 . S
O174 Cd172 2.411 . S
O174 C177 1.320 . S
O175 Cd172 2.333 . S
O175 C177 1.214 . S
O176 Cd172 2.352 . S
O176 C179 1.258 . S
C177 O174 1.320 . S
C177 O175 1.214 . S
O178 Cd170 2.277 . S
O178 C173 1.209 . S
C179 O176 1.258 . S
C179 O181 1.282 . S
O180 Cd172 2.277 . S
O180 C173 1.226 . S
O181 Cd172 2.356 . S
O181 C179 1.282 . S
C182 O183 1.306 . S
C182 O185 1.160 . S
O183 C182 1.306 . S
O183 Cd184 2.228 . S
Cd184 O183 2.228 . S
Cd184 O188 2.273 . S
Cd184 O192 2.277 . S
O185 C182 1.160 . S
O185 Cd186 2.203 . S
Cd186 O185 2.203 . S
Cd186 O188 2.411 . S
Cd186 O189 2.333 . S
Cd186 O190 2.352 . S
Cd186 O194 2.277 . S
Cd186 O195 2.356 . S
C187 O192 1.209 . S
C187 O194 1.226 . S
O188 Cd184 2.273 . S
O188 Cd186 2.411 . S
O188 C191 1.320 . S
O189 Cd186 2.333 . S
O189 C191 1.214 . S
O190 Cd186 2.352 . S
O190 C193 1.258 . S
C191 O188 1.320 . S
C191 O189 1.214 . S
O192 Cd184 2.277 . S
O192 C187 1.209 . S
C193 O190 1.258 . S
C193 O195 1.282 . S
O194 Cd186 2.277 . S
O194 C187 1.226 . S
O195 Cd186 2.356 . S
O195 C193 1.282 . S
C196 O197 1.306 . S
C196 O199 1.160 . S
O197 C196 1.306 . S
O197 Cd198 2.228 . S
Cd198 O197 2.228 . S
Cd198 O202 2.273 . S
Cd198 O206 2.277 . S
O199 C196 1.160 . S
O199 Cd200 2.203 . S
Cd200 O199 2.203 . S
Cd200 O202 2.411 . S
Cd200 O203 2.333 . S
Cd200 O204 2.352 . S
Cd200 O208 2.277 . S
Cd200 O209 2.356 . S
C201 O206 1.209 . S
C201 O208 1.226 . S
O202 Cd198 2.273 . S
O202 Cd200 2.411 . S
O202 C205 1.320 . S
O203 Cd200 2.333 . S
O203 C205 1.214 . S
O204 Cd200 2.352 . S
O204 C207 1.258 . S
C205 O202 1.320 . S
C205 O203 1.214 . S
O206 Cd198 2.277 . S
O206 C201 1.209 . S
C207 O204 1.258 . S
C207 O209 1.282 . S
O208 Cd200 2.277 . S
O208 C201 1.226 . S
O209 Cd200 2.356 . S
O209 C207 1.282 . S
C210 O211 1.306 . S
C210 O213 1.160 . S
O211 C210 1.306 . S
O211 Cd212 2.228 . S
Cd212 O211 2.228 . S
Cd212 O216 2.273 . S
Cd212 O220 2.277 . S
O213 C210 1.160 . S
O213 Cd214 2.203 . S
Cd214 O213 2.203 . S
Cd214 O216 2.411 . S
Cd214 O217 2.333 . S
Cd214 O218 2.352 . S
Cd214 O222 2.277 . S
Cd214 O223 2.356 1_554 S
C215 O220 1.209 . S
C215 O222 1.226 . S
O216 Cd212 2.273 . S
O216 Cd214 2.411 . S
O216 C219 1.320 . S
O217 Cd214 2.333 . S
O217 C219 1.214 . S
O218 Cd214 2.352 . S
O218 C221 1.258 1_554 S
C219 O216 1.320 . S
C219 O217 1.214 . S
O220 Cd212 2.277 . S
O220 C215 1.209 . S
C221 O218 1.258 1_556 S
C221 O223 1.282 . S
O222 Cd214 2.277 . S
O222 C215 1.226 . S
O223 Cd214 2.356 1_556 S
O223 C221 1.282 . S
C224 O225 1.306 . S
C224 O227 1.160 . S
O225 C224 1.306 . S
O225 Cd226 2.228 . S
Cd226 O225 2.228 . S
Cd226 O230 2.273 . S
Cd226 O234 2.277 . S
O227 C224 1.160 . S
O227 Cd228 2.203 . S
Cd228 O227 2.203 . S
Cd228 O230 2.411 . S
Cd228 O231 2.333 . S
Cd228 O232 2.352 . S
Cd228 O236 2.277 . S
Cd228 O237 2.356 1_554 S
C229 O234 1.209 . S
C229 O236 1.226 . S
O230 Cd226 2.273 . S
O230 Cd228 2.411 . S
O230 C233 1.320 . S
O231 Cd228 2.333 . S
O231 C233 1.214 . S
O232 Cd228 2.352 . S
O232 C235 1.258 1_554 S
C233 O230 1.320 . S
C233 O231 1.214 . S
O234 Cd226 2.277 . S
O234 C229 1.209 . S
C235 O232 1.258 1_556 S
C235 O237 1.282 . S
O236 Cd228 2.277 . S
O236 C229 1.226 . S
O237 Cd228 2.356 1_556 S
O237 C235 1.282 . S
C238 O239 1.306 . S
C238 O241 1.160 . S
O239 C238 1.306 . S
O239 Cd240 2.228 . S
Cd240 O239 2.228 . S
Cd240 O244 2.273 . S
Cd240 O248 2.277 . S
O241 C238 1.160 . S
O241 Cd242 2.203 . S
Cd242 O241 2.203 . S
Cd242 O244 2.411 . S
Cd242 O245 2.333 . S
Cd242 O246 2.352 . S
Cd242 O250 2.277 . S
Cd242 O251 2.356 1_554 S
C243 O248 1.209 . S
C243 O250 1.226 . S
O244 Cd240 2.273 . S
O244 Cd242 2.411 . S
O244 C247 1.320 . S
O245 Cd242 2.333 . S
O245 C247 1.214 . S
O246 Cd242 2.352 . S
O246 C249 1.258 1_554 S
C247 O244 1.320 . S
C247 O245 1.214 . S
O248 Cd240 2.277 . S
O248 C243 1.209 . S
C249 O246 1.258 1_556 S
C249 O251 1.282 . S
O250 Cd242 2.277 . S
O250 C243 1.226 . S
O251 Cd242 2.356 1_556 S
O251 C249 1.282 . S
C252 O253 1.306 . S
C252 O255 1.160 . S
O253 C252 1.306 . S
O253 Cd254 2.228 . S
Cd254 O253 2.228 . S
Cd254 O258 2.273 . S
Cd254 O262 2.277 . S
O255 C252 1.160 . S
O255 Cd256 2.203 . S
Cd256 O255 2.203 . S
Cd256 O258 2.411 . S
Cd256 O259 2.333 . S
Cd256 O260 2.352 . S
Cd256 O264 2.277 . S
Cd256 O265 2.356 1_554 S
C257 O262 1.209 . S
C257 O264 1.226 . S
O258 Cd254 2.273 . S
O258 Cd256 2.411 . S
O258 C261 1.320 . S
O259 Cd256 2.333 . S
O259 C261 1.214 . S
O260 Cd256 2.352 . S
O260 C263 1.258 1_554 S
C261 O258 1.320 . S
C261 O259 1.214 . S
O262 Cd254 2.277 . S
O262 C257 1.209 . S
C263 O260 1.258 1_556 S
C263 O265 1.282 . S
O264 Cd256 2.277 . S
O264 C257 1.226 . S
O265 Cd256 2.356 1_556 S
O265 C263 1.282 . S
C266 O267 1.306 . S
C266 O269 1.160 . S
O267 C266 1.306 . S
O267 Cd268 2.228 . S
Cd268 O267 2.228 . S
Cd268 O272 2.273 . S
Cd268 O276 2.277 . S
O269 C266 1.160 . S
O269 Cd270 2.203 . S
Cd270 O269 2.203 . S
Cd270 O272 2.411 . S
Cd270 O273 2.333 . S
Cd270 O274 2.352 . S
Cd270 O278 2.277 . S
Cd270 O279 2.356 1_554 S
C271 O276 1.209 . S
C271 O278 1.226 . S
O272 Cd268 2.273 . S
O272 Cd270 2.411 . S
O272 C275 1.320 . S
O273 Cd270 2.333 . S
O273 C275 1.214 . S
O274 Cd270 2.352 . S
O274 C277 1.258 1_554 S
C275 O272 1.320 . S
C275 O273 1.214 . S
O276 Cd268 2.277 . S
O276 C271 1.209 . S
C277 O274 1.258 1_556 S
C277 O279 1.282 . S
O278 Cd270 2.277 . S
O278 C271 1.226 . S
O279 Cd270 2.356 1_556 S
O279 C277 1.282 . S
C280 O281 1.306 . S
C280 O283 1.160 . S
O281 C280 1.306 . S
O281 Cd282 2.228 . S
Cd282 O281 2.228 . S
Cd282 O286 2.273 . S
Cd282 O290 2.277 . S
O283 C280 1.160 . S
O283 Cd284 2.203 . S
Cd284 O283 2.203 . S
Cd284 O286 2.411 . S
Cd284 O287 2.333 . S
Cd284 O288 2.352 . S
Cd284 O292 2.277 . S
Cd284 O293 2.356 1_554 S
C285 O290 1.209 . S
C285 O292 1.226 . S
O286 Cd282 2.273 . S
O286 Cd284 2.411 . S
O286 C289 1.320 . S
O287 Cd284 2.333 . S
O287 C289 1.214 . S
O288 Cd284 2.352 . S
O288 C291 1.258 1_554 S
C289 O286 1.320 . S
C289 O287 1.214 . S
O290 Cd282 2.277 . S
O290 C285 1.209 . S
C291 O288 1.258 1_556 S
C291 O293 1.282 . S
O292 Cd284 2.277 . S
O292 C285 1.226 . S
O293 Cd284 2.356 1_556 S
O293 C291 1.282 . S
C294 O295 1.306 . S
C294 O297 1.160 . S
O295 C294 1.306 . S
O295 Cd296 2.228 . S
Cd296 O295 2.228 . S
Cd296 O300 2.273 . S
Cd296 O304 2.277 . S
O297 C294 1.160 . S
O297 Cd298 2.203 . S
Cd298 O297 2.203 . S
Cd298 O300 2.411 . S
Cd298 O301 2.333 . S
Cd298 O302 2.352 . S
Cd298 O306 2.277 . S
Cd298 O307 2.356 . S
C299 O304 1.209 . S
C299 O306 1.226 . S
O300 Cd296 2.273 . S
O300 Cd298 2.411 . S
O300 C303 1.320 . S
O301 Cd298 2.333 . S
O301 C303 1.214 . S
O302 Cd298 2.352 . S
O302 C305 1.258 . S
C303 O300 1.320 . S
C303 O301 1.214 . S
O304 Cd296 2.277 . S
O304 C299 1.209 . S
C305 O302 1.258 . S
C305 O307 1.282 . S
O306 Cd298 2.277 . S
O306 C299 1.226 . S
O307 Cd298 2.356 . S
O307 C305 1.282 . S
C308 O309 1.306 . S
C308 O311 1.160 . S
O309 C308 1.306 . S
O309 Cd310 2.228 . S
Cd310 O309 2.228 . S
Cd310 O314 2.273 . S
Cd310 O318 2.277 . S
O311 C308 1.160 . S
O311 Cd312 2.203 . S
Cd312 O311 2.203 . S
Cd312 O314 2.411 . S
Cd312 O315 2.333 . S
Cd312 O316 2.352 . S
Cd312 O320 2.277 . S
Cd312 O321 2.356 . S
C313 O318 1.209 . S
C313 O320 1.226 . S
O314 Cd310 2.273 . S
O314 Cd312 2.411 . S
O314 C317 1.320 . S
O315 Cd312 2.333 . S
O315 C317 1.214 . S
O316 Cd312 2.352 . S
O316 C319 1.258 . S
C317 O314 1.320 . S
C317 O315 1.214 . S
O318 Cd310 2.277 . S
O318 C313 1.209 . S
C319 O316 1.258 . S
C319 O321 1.282 . S
O320 Cd312 2.277 . S
O320 C313 1.226 . S
O321 Cd312 2.356 . S
O321 C319 1.282 . S
C322 O323 1.306 . S
C322 O325 1.160 . S
O323 C322 1.306 . S
O323 Cd324 2.228 . S
Cd324 O323 2.228 . S
Cd324 O328 2.273 . S
Cd324 O332 2.277 . S
O325 C322 1.160 . S
O325 Cd326 2.203 . S
Cd326 O325 2.203 . S
Cd326 O328 2.411 . S
Cd326 O329 2.333 . S
Cd326 O330 2.352 . S
Cd326 O334 2.277 . S
Cd326 O335 2.356 . S
C327 O332 1.209 . S
C327 O334 1.226 . S
O328 Cd324 2.273 . S
O328 Cd326 2.411 . S
O328 C331 1.320 . S
O329 Cd326 2.333 . S
O329 C331 1.214 . S
O330 Cd326 2.352 . S
O330 C333 1.258 . S
C331 O328 1.320 . S
C331 O329 1.214 . S
O332 Cd324 2.277 . S
O332 C327 1.209 . S
C333 O330 1.258 . S
C333 O335 1.282 . S
O334 Cd326 2.277 . S
O334 C327 1.226 . S
O335 Cd326 2.356 . S
O335 C333 1.282 . S
C336 O337 1.306 . S
C336 O339 1.160 . S
O337 C336 1.306 . S
O337 Cd338 2.228 . S
Cd338 O337 2.228 . S
Cd338 O342 2.273 . S
Cd338 O346 2.277 . S
O339 C336 1.160 . S
O339 Cd340 2.203 . S
Cd340 O339 2.203 . S
Cd340 O342 2.411 . S
Cd340 O343 2.333 . S
Cd340 O344 2.352 . S
Cd340 O348 2.277 . S
Cd340 O349 2.356 1_556 S
C341 O346 1.209 . S
C341 O348 1.226 . S
O342 Cd338 2.273 . S
O342 Cd340 2.411 . S
O342 C345 1.320 . S
O343 Cd340 2.333 . S
O343 C345 1.214 . S
O344 Cd340 2.352 . S
O344 C347 1.258 1_556 S
C345 O342 1.320 . S
C345 O343 1.214 . S
O346 Cd338 2.277 . S
O346 C341 1.209 . S
C347 O344 1.258 1_554 S
C347 O349 1.282 . S
O348 Cd340 2.277 . S
O348 C341 1.226 . S
O349 Cd340 2.356 1_554 S
O349 C347 1.282 . S
C350 O351 1.306 . S
C350 O353 1.160 . S
O351 C350 1.306 . S
O351 Cd352 2.228 . S
Cd352 O351 2.228 . S
Cd352 O356 2.273 . S
Cd352 O360 2.277 . S
O353 C350 1.160 . S
O353 Cd354 2.203 . S
Cd354 O353 2.203 . S
Cd354 O356 2.411 . S
Cd354 O357 2.333 . S
Cd354 O358 2.352 . S
Cd354 O362 2.277 . S
Cd354 O363 2.356 1_556 S
C355 O360 1.209 . S
C355 O362 1.226 . S
O356 Cd352 2.273 . S
O356 Cd354 2.411 . S
O356 C359 1.320 . S
O357 Cd354 2.333 . S
O357 C359 1.214 . S
O358 Cd354 2.352 . S
O358 C361 1.258 1_556 S
C359 O356 1.320 . S
C359 O357 1.214 . S
O360 Cd352 2.277 . S
O360 C355 1.209 . S
C361 O358 1.258 1_554 S
C361 O363 1.282 . S
O362 Cd354 2.277 . S
O362 C355 1.226 . S
O363 Cd354 2.356 1_554 S
O363 C361 1.282 . S
C364 O365 1.306 . S
C364 O367 1.160 . S
O365 C364 1.306 . S
O365 Cd366 2.228 . S
Cd366 O365 2.228 . S
Cd366 O370 2.273 . S
Cd366 O374 2.277 . S
O367 C364 1.160 . S
O367 Cd368 2.203 . S
Cd368 O367 2.203 . S
Cd368 O370 2.411 . S
Cd368 O371 2.333 . S
Cd368 O372 2.352 . S
Cd368 O376 2.277 . S
Cd368 O377 2.356 1_556 S
C369 O374 1.209 . S
C369 O376 1.226 . S
O370 Cd366 2.273 . S
O370 Cd368 2.411 . S
O370 C373 1.320 . S
O371 Cd368 2.333 . S
O371 C373 1.214 . S
O372 Cd368 2.352 . S
O372 C375 1.258 1_556 S
C373 O370 1.320 . S
C373 O371 1.214 . S
O374 Cd366 2.277 . S
O374 C369 1.209 . S
C375 O372 1.258 1_554 S
C375 O377 1.282 . S
O376 Cd368 2.277 . S
O376 C369 1.226 . S
O377 Cd368 2.356 1_554 S
O377 C375 1.282 . S
C378 O379 1.306 . S
C378 O381 1.160 . S
O379 C378 1.306 . S
O379 Cd380 2.228 . S
Cd380 O379 2.228 . S
Cd380 O384 2.273 . S
Cd380 O388 2.277 . S
O381 C378 1.160 . S
O381 Cd382 2.203 . S
Cd382 O381 2.203 . S
Cd382 O384 2.411 . S
Cd382 O385 2.333 . S
Cd382 O386 2.352 . S
Cd382 O390 2.277 . S
Cd382 O391 2.356 . S
C383 O388 1.209 . S
C383 O390 1.226 . S
O384 Cd380 2.273 . S
O384 Cd382 2.411 . S
O384 C387 1.320 . S
O385 Cd382 2.333 . S
O385 C387 1.214 . S
O386 Cd382 2.352 . S
O386 C389 1.258 . S
C387 O384 1.320 . S
C387 O385 1.214 . S
O388 Cd380 2.277 . S
O388 C383 1.209 . S
C389 O386 1.258 . S
C389 O391 1.282 . S
O390 Cd382 2.277 . S
O390 C383 1.226 . S
O391 Cd382 2.356 . S
O391 C389 1.282 . S
C392 O393 1.306 . S
C392 O395 1.160 . S
O393 C392 1.306 . S
O393 Cd394 2.228 . S
Cd394 O393 2.228 . S
Cd394 O398 2.273 . S
Cd394 O402 2.277 . S
O395 C392 1.160 . S
O395 Cd396 2.203 . S
Cd396 O395 2.203 . S
Cd396 O398 2.411 . S
Cd396 O399 2.333 . S
Cd396 O400 2.352 . S
Cd396 O404 2.277 . S
Cd396 O405 2.356 . S
C397 O402 1.209 . S
C397 O404 1.226 . S
O398 Cd394 2.273 . S
O398 Cd396 2.411 . S
O398 C401 1.320 . S
O399 Cd396 2.333 . S
O399 C401 1.214 . S
O400 Cd396 2.352 . S
O400 C403 1.258 . S
C401 O398 1.320 . S
C401 O399 1.214 . S
O402 Cd394 2.277 . S
O402 C397 1.209 . S
C403 O400 1.258 . S
C403 O405 1.282 . S
O404 Cd396 2.277 . S
O404 C397 1.226 . S
O405 Cd396 2.356 . S
O405 C403 1.282 . S
C406 O407 1.306 . S
C406 O409 1.160 . S
O407 C406 1.306 . S
O407 Cd408 2.228 . S
Cd408 O407 2.228 . S
Cd408 O412 2.273 . S
Cd408 O416 2.277 . S
O409 C406 1.160 . S
O409 Cd410 2.203 . S
Cd410 O409 2.203 . S
Cd410 O412 2.411 . S
Cd410 O413 2.333 . S
Cd410 O414 2.352 . S
Cd410 O418 2.277 . S
Cd410 O419 2.356 . S
C411 O416 1.209 . S
C411 O418 1.226 . S
O412 Cd408 2.273 . S
O412 Cd410 2.411 . S
O412 C415 1.320 . S
O413 Cd410 2.333 . S
O413 C415 1.214 . S
O414 Cd410 2.352 . S
O414 C417 1.258 . S
C415 O412 1.320 . S
C415 O413 1.214 . S
O416 Cd408 2.277 . S
O416 C411 1.209 . S
C417 O414 1.258 . S
C417 O419 1.282 . S
O418 Cd410 2.277 . S
O418 C411 1.226 . S
O419 Cd410 2.356 . S
O419 C417 1.282 . S
C420 O421 1.306 . S
C420 O423 1.160 . S
O421 C420 1.306 . S
O421 Cd422 2.228 . S
Cd422 O421 2.228 . S
Cd422 O426 2.273 . S
Cd422 O430 2.277 . S
O423 C420 1.160 . S
O423 Cd424 2.203 . S
Cd424 O423 2.203 . S
Cd424 O426 2.411 . S
Cd424 O427 2.333 . S
Cd424 O428 2.352 . S
Cd424 O432 2.277 . S
Cd424 O433 2.356 . S
C425 O430 1.209 . S
C425 O432 1.226 . S
O426 Cd422 2.273 . S
O426 Cd424 2.411 . S
O426 C429 1.320 . S
O427 Cd424 2.333 . S
O427 C429 1.214 . S
O428 Cd424 2.352 . S
O428 C431 1.258 . S
C429 O426 1.320 . S
C429 O427 1.214 . S
O430 Cd422 2.277 . S
O430 C425 1.209 . S
C431 O428 1.258 . S
C431 O433 1.282 . S
O432 Cd424 2.277 . S
O432 C425 1.226 . S
O433 Cd424 2.356 . S
O433 C431 1.282 . S
C434 O435 1.306 . S
C434 O437 1.160 . S
O435 C434 1.306 . S
O435 Cd436 2.228 . S
Cd436 O435 2.228 . S
Cd436 O440 2.273 . S
Cd436 O444 2.277 . S
O437 C434 1.160 . S
O437 Cd438 2.203 . S
Cd438 O437 2.203 . S
Cd438 O440 2.411 . S
Cd438 O441 2.333 . S
Cd438 O442 2.352 . S
Cd438 O446 2.277 . S
Cd438 O447 2.356 . S
C439 O444 1.209 . S
C439 O446 1.226 . S
O440 Cd436 2.273 . S
O440 Cd438 2.411 . S
O440 C443 1.320 . S
O441 Cd438 2.333 . S
O441 C443 1.214 . S
O442 Cd438 2.352 . S
O442 C445 1.258 . S
C443 O440 1.320 . S
C443 O441 1.214 . S
O444 Cd436 2.277 . S
O444 C439 1.209 . S
C445 O442 1.258 . S
C445 O447 1.282 . S
O446 Cd438 2.277 . S
O446 C439 1.226 . S
O447 Cd438 2.356 . S
O447 C445 1.282 . S
C448 O449 1.306 . S
C448 O451 1.160 . S
O449 C448 1.306 . S
O449 Cd450 2.228 . S
Cd450 O449 2.228 . S
Cd450 O454 2.273 . S
Cd450 O458 2.277 . S
O451 C448 1.160 . S
O451 Cd452 2.203 . S
Cd452 O451 2.203 . S
Cd452 O454 2.411 . S
Cd452 O455 2.333 . S
Cd452 O456 2.352 . S
Cd452 O460 2.277 . S
Cd452 O461 2.356 . S
C453 O458 1.209 . S
C453 O460 1.226 . S
O454 Cd450 2.273 . S
O454 Cd452 2.411 . S
O454 C457 1.320 . S
O455 Cd452 2.333 . S
O455 C457 1.214 . S
O456 Cd452 2.352 . S
O456 C459 1.258 . S
C457 O454 1.320 . S
C457 O455 1.214 . S
O458 Cd450 2.277 . S
O458 C453 1.209 . S
C459 O456 1.258 . S
C459 O461 1.282 . S
O460 Cd452 2.277 . S
O460 C453 1.226 . S
O461 Cd452 2.356 . S
O461 C459 1.282 . S
C462 O463 1.306 . S
C462 O465 1.160 . S
O463 C462 1.306 . S
O463 Cd464 2.228 . S
Cd464 O463 2.228 . S
Cd464 O468 2.273 . S
Cd464 O472 2.277 . S
O465 C462 1.160 . S
O465 Cd466 2.203 . S
Cd466 O465 2.203 . S
Cd466 O468 2.411 . S
Cd466 O469 2.333 . S
Cd466 O470 2.352 . S
Cd466 O474 2.277 . S
Cd466 O475 2.356 1_556 S
C467 O472 1.209 . S
C467 O474 1.226 . S
O468 Cd464 2.273 . S
O468 Cd466 2.411 . S
O468 C471 1.320 . S
O469 Cd466 2.333 . S
O469 C471 1.214 . S
O470 Cd466 2.352 . S
O470 C473 1.258 1_556 S
C471 O468 1.320 . S
C471 O469 1.214 . S
O472 Cd464 2.277 . S
O472 C467 1.209 . S
C473 O470 1.258 1_554 S
C473 O475 1.282 . S
O474 Cd466 2.277 . S
O474 C467 1.226 . S
O475 Cd466 2.356 1_554 S
O475 C473 1.282 . S
C476 O477 1.306 . S
C476 O479 1.160 . S
O477 C476 1.306 . S
O477 Cd478 2.228 . S
Cd478 O477 2.228 . S
Cd478 O482 2.273 . S
Cd478 O486 2.277 . S
O479 C476 1.160 . S
O479 Cd480 2.203 . S
Cd480 O479 2.203 . S
Cd480 O482 2.411 . S
Cd480 O483 2.333 . S
Cd480 O484 2.352 . S
Cd480 O488 2.277 . S
Cd480 O489 2.356 1_556 S
C481 O486 1.209 . S
C481 O488 1.226 . S
O482 Cd478 2.273 . S
O482 Cd480 2.411 . S
O482 C485 1.320 . S
O483 Cd480 2.333 . S
O483 C485 1.214 . S
O484 Cd480 2.352 . S
O484 C487 1.258 1_556 S
C485 O482 1.320 . S
C485 O483 1.214 . S
O486 Cd478 2.277 . S
O486 C481 1.209 . S
C487 O484 1.258 1_554 S
C487 O489 1.282 . S
O488 Cd480 2.277 . S
O488 C481 1.226 . S
O489 Cd480 2.356 1_554 S
O489 C487 1.282 . S
C490 O491 1.306 . S
C490 O493 1.160 . S
O491 C490 1.306 . S
O491 Cd492 2.228 . S
Cd492 O491 2.228 . S
Cd492 O496 2.273 . S
Cd492 O500 2.277 . S
O493 C490 1.160 . S
O493 Cd494 2.203 . S
Cd494 O493 2.203 . S
Cd494 O496 2.411 . S
Cd494 O497 2.333 . S
Cd494 O498 2.352 . S
Cd494 O502 2.277 . S
Cd494 O503 2.356 1_556 S
C495 O500 1.209 . S
C495 O502 1.226 . S
O496 Cd492 2.273 . S
O496 Cd494 2.411 . S
O496 C499 1.320 . S
O497 Cd494 2.333 . S
O497 C499 1.214 . S
O498 Cd494 2.352 . S
O498 C501 1.258 1_556 S
C499 O496 1.320 . S
C499 O497 1.214 . S
O500 Cd492 2.277 . S
O500 C495 1.209 . S
C501 O498 1.258 1_554 S
C501 O503 1.282 . S
O502 Cd494 2.277 . S
O502 C495 1.226 . S
O503 Cd494 2.356 1_554 S
O503 C501 1.282 . S
C504 C505 1.363 1_545 S
C504 C510 1.379 . S
C504 N512 1.356 . S
C505 C504 1.363 1_565 S
C505 C511 1.363 . S
C506 C507 1.363 1_565 S
C506 C511 1.379 . S
C506 N513 1.356 . S
C507 C506 1.363 1_545 S
C507 C510 1.363 . S
N508 C510 1.356 . S
N508 H520 0.984 . S
N508 H521 0.985 . S
N509 C511 1.356 . S
N509 H514 0.984 . S
N509 H515 0.985 . S
C510 C504 1.379 . S
C510 C507 1.363 . S
C510 N508 1.356 . S
C511 C505 1.363 . S
C511 C506 1.379 . S
C511 N509 1.356 . S
N512 C504 1.356 . S
N512 H518 0.984 . S
N512 H519 0.984 1_545 S
N513 C506 1.356 . S
N513 H516 0.984 1_565 S
N513 H517 0.985 . S
H514 N509 0.984 . S
H515 N509 0.985 . S
H516 N513 0.984 1_545 S
H517 N513 0.985 . S
H518 N512 0.984 . S
H519 N512 0.984 1_565 S
H520 N508 0.984 . S
H521 N508 0.985 . S
C522 C523 1.363 1_655 S
C522 C528 1.379 . S
C522 N530 1.356 1_655 S
C523 C522 1.363 1_455 S
C523 C529 1.363 . S
C524 C525 1.363 1_455 S
C524 C529 1.379 . S
C524 N531 1.356 1_455 S
C525 C524 1.363 1_655 S
C525 C528 1.363 . S
N526 C528 1.356 . S
N526 H538 0.984 . S
N526 H539 0.985 . S
N527 C529 1.356 . S
N527 H532 0.984 . S
N527 H533 0.985 . S
C528 C522 1.379 . S
C528 C525 1.363 . S
C528 N526 1.356 . S
C529 C523 1.363 . S
C529 C524 1.379 . S
C529 N527 1.356 . S
N530 C522 1.356 1_455 S
N530 H536 0.984 1_455 S
N530 H537 0.984 . S
N531 C524 1.356 1_655 S
N531 H534 0.984 . S
N531 H535 0.985 1_655 S
H532 N527 0.984 . S
H533 N527 0.985 . S
H534 N531 0.984 . S
H535 N531 0.985 1_455 S
H536 N530 0.984 1_655 S
H537 N530 0.984 . S
H538 N526 0.984 . S
H539 N526 0.985 . S
C540 C541 1.363 . S
C540 C546 1.379 . S
C540 N548 1.356 . S
C541 C540 1.363 . S
C541 C547 1.363 . S
C542 C543 1.363 . S
C542 C547 1.379 . S
C542 N549 1.356 . S
C543 C542 1.363 . S
C543 C546 1.363 . S
N544 C546 1.356 . S
N544 H556 0.984 . S
N544 H557 0.985 . S
N545 C547 1.356 . S
N545 H550 0.984 . S
N545 H551 0.985 . S
C546 C540 1.379 . S
C546 C543 1.363 . S
C546 N544 1.356 . S
C547 C541 1.363 . S
C547 C542 1.379 . S
C547 N545 1.356 . S
N548 C540 1.356 . S
N548 H554 0.984 . S
N548 H555 0.984 . S
N549 C542 1.356 . S
N549 H552 0.984 . S
N549 H553 0.985 . S
H550 N545 0.984 . S
H551 N545 0.985 . S
H552 N549 0.984 . S
H553 N549 0.985 . S
H554 N548 0.984 . S
H555 N548 0.984 . S
H556 N544 0.984 . S
H557 N544 0.985 . S
C558 C559 1.363 . S
C558 C564 1.379 . S
C558 N566 1.356 . S
C559 C558 1.363 . S
C559 C565 1.363 1_565 S
C560 C561 1.363 . S
C560 C565 1.379 . S
C560 N567 1.356 . S
C561 C560 1.363 . S
C561 C564 1.363 1_545 S
N562 C564 1.356 . S
N562 H574 0.984 . S
N562 H575 0.985 1_565 S
N563 C565 1.356 . S
N563 H568 0.984 1_545 S
N563 H569 0.985 . S
C564 C558 1.379 . S
C564 C561 1.363 1_565 S
C564 N562 1.356 . S
C565 C559 1.363 1_545 S
C565 C560 1.379 . S
C565 N563 1.356 . S
N566 C558 1.356 . S
N566 H572 0.984 . S
N566 H573 0.984 . S
N567 C560 1.356 . S
N567 H570 0.984 . S
N567 H571 0.985 . S
H568 N563 0.984 1_565 S
H569 N563 0.985 . S
H570 N567 0.984 . S
H571 N567 0.985 . S
H572 N566 0.984 . S
H573 N566 0.984 . S
H574 N562 0.984 . S
H575 N562 0.985 1_545 S
C576 C577 1.363 . S
C576 C582 1.379 1_455 S
C576 N584 1.356 . S
C577 C576 1.363 . S
C577 C583 1.363 . S
C578 C579 1.363 . S
C578 C583 1.379 1_655 S
C578 N585 1.356 . S
C579 C578 1.363 . S
C579 C582 1.363 . S
N580 C582 1.356 . S
N580 H592 0.984 . S
N580 H593 0.985 . S
N581 C583 1.356 . S
N581 H586 0.984 . S
N581 H587 0.985 . S
C582 C576 1.379 1_655 S
C582 C579 1.363 . S
C582 N580 1.356 . S
C583 C577 1.363 . S
C583 C578 1.379 1_455 S
C583 N581 1.356 . S
N584 C576 1.356 . S
N584 H590 0.984 . S
N584 H591 0.984 . S
N585 C578 1.356 . S
N585 H588 0.984 . S
N585 H589 0.985 . S
H586 N581 0.984 . S
H587 N581 0.985 . S
H588 N585 0.984 . S
H589 N585 0.985 . S
H590 N584 0.984 . S
H591 N584 0.984 . S
H592 N580 0.984 . S
H593 N580 0.985 . S
C594 C595 1.363 . S
C594 C600 1.379 . S
C594 N602 1.356 . S
C595 C594 1.363 . S
C595 C601 1.363 . S
C596 C597 1.363 . S
C596 C601 1.379 . S
C596 N603 1.356 . S
C597 C596 1.363 . S
C597 C600 1.363 . S
N598 C600 1.356 . S
N598 H610 0.984 . S
N598 H611 0.985 . S
N599 C601 1.356 . S
N599 H604 0.984 . S
N599 H605 0.985 . S
C600 C594 1.379 . S
C600 C597 1.363 . S
C600 N598 1.356 . S
C601 C595 1.363 . S
C601 C596 1.379 . S
C601 N599 1.356 . S
N602 C594 1.356 . S
N602 H608 0.984 . S
N602 H609 0.984 . S
N603 C596 1.356 . S
N603 H606 0.984 . S
N603 H607 0.985 . S
H604 N599 0.984 . S
H605 N599 0.985 . S
H606 N603 0.984 . S
H607 N603 0.985 . S
H608 N602 0.984 . S
H609 N602 0.984 . S
H610 N598 0.984 . S
H611 N598 0.985 . S
C612 C613 1.363 . S
C612 C618 1.379 . S
C612 N620 1.356 . S
C613 C612 1.363 . S
C613 C619 1.363 . S
C614 C615 1.363 . S
C614 C619 1.379 . S
C614 N621 1.356 . S
C615 C614 1.363 . S
C615 C618 1.363 . S
N616 C618 1.356 . S
N616 H628 0.984 . S
N616 H629 0.985 . S
N617 C619 1.356 . S
N617 H622 0.984 . S
N617 H623 0.985 . S
C618 C612 1.379 . S
C618 C615 1.363 . S
C618 N616 1.356 . S
C619 C613 1.363 . S
C619 C614 1.379 . S
C619 N617 1.356 . S
N620 C612 1.356 . S
N620 H626 0.984 . S
N620 H627 0.984 . S
N621 C614 1.356 . S
N621 H624 0.984 . S
N621 H625 0.985 . S
H622 N617 0.984 . S
H623 N617 0.985 . S
H624 N621 0.984 . S
H625 N621 0.985 . S
H626 N620 0.984 . S
H627 N620 0.984 . S
H628 N616 0.984 . S
H629 N616 0.985 . S
C630 C631 1.363 . S
C630 C636 1.379 . S
C630 N638 1.356 . S
C631 C630 1.363 . S
C631 C637 1.363 . S
C632 C633 1.363 . S
C632 C637 1.379 . S
C632 N639 1.356 . S
C633 C632 1.363 . S
C633 C636 1.363 . S
N634 C636 1.356 . S
N634 H646 0.978 1_556 S
N634 H647 0.985 1_556 S
N635 C637 1.356 . S
N635 H640 0.984 . S
N635 H641 0.985 . S
C636 C630 1.379 . S
C636 C633 1.363 . S
C636 N634 1.356 . S
C637 C631 1.363 . S
C637 C632 1.379 . S
C637 N635 1.356 . S
N638 C630 1.356 . S
N638 H644 0.984 . S
N638 H645 0.984 . S
N639 C632 1.356 . S
N639 H642 0.984 . S
N639 H643 0.985 . S
H640 N635 0.984 . S
H641 N635 0.985 . S
H642 N639 0.984 . S
H643 N639 0.985 . S
H644 N638 0.984 . S
H645 N638 0.984 . S
H646 N634 0.978 1_554 S
H647 N634 0.985 1_554 S
C648 C649 1.363 . S
C648 C654 1.379 . S
C648 N656 1.356 . S
C649 C648 1.363 . S
C649 C655 1.363 . S
C650 C651 1.363 . S
C650 C655 1.379 . S
C650 N657 1.356 . S
C651 C650 1.363 . S
C651 C654 1.363 . S
N652 C654 1.356 . S
N652 H664 0.984 . S
N652 H665 0.985 . S
N653 C655 1.356 . S
N653 H658 0.984 . S
N653 H659 0.985 . S
C654 C648 1.379 . S
C654 C651 1.363 . S
C654 N652 1.356 . S
C655 C649 1.363 . S
C655 C650 1.379 . S
C655 N653 1.356 . S
N656 C648 1.356 . S
N656 H662 0.984 . S
N656 H663 0.984 . S
N657 C650 1.356 . S
N657 H660 0.984 . S
N657 H661 0.985 . S
H658 N653 0.984 . S
H659 N653 0.985 . S
H660 N657 0.984 . S
H661 N657 0.985 . S
H662 N656 0.984 . S
H663 N656 0.984 . S
H664 N652 0.984 . S
H665 N652 0.985 . S
C666 C667 1.363 . S
C666 C672 1.379 . S
C666 N674 1.356 . S
C667 C666 1.363 . S
C667 C673 1.363 . S
C668 C669 1.363 . S
C668 C673 1.379 . S
C668 N675 1.356 . S
C669 C668 1.363 . S
C669 C672 1.363 . S
N670 C672 1.356 . S
N670 H682 0.984 . S
N670 H683 0.985 . S
N671 C673 1.356 . S
N671 H676 0.984 . S
N671 H677 0.985 . S
C672 C666 1.379 . S
C672 C669 1.363 . S
C672 N670 1.356 . S
C673 C667 1.363 . S
C673 C668 1.379 . S
C673 N671 1.356 . S
N674 C666 1.356 . S
N674 H680 0.984 . S
N674 H681 0.984 . S
N675 C668 1.356 . S
N675 H678 0.984 . S
N675 H679 0.985 . S
H676 N671 0.984 . S
H677 N671 0.985 . S
H678 N675 0.984 . S
H679 N675 0.985 . S
H680 N674 0.984 . S
H681 N674 0.984 . S
H682 N670 0.984 . S
H683 N670 0.985 . S
C684 C685 1.363 . S
C684 C690 1.379 . S
C684 N692 1.356 . S
C685 C684 1.363 . S
C685 C691 1.363 . S
C686 C687 1.363 . S
C686 C691 1.379 . S
C686 N693 1.356 . S
C687 C686 1.363 . S
C687 C690 1.363 . S
N688 C690 1.356 . S
N688 H700 0.984 . S
N688 H701 0.985 . S
N689 C691 1.356 . S
N689 H694 0.984 . S
N689 H695 0.985 . S
C690 C684 1.379 . S
C690 C687 1.363 . S
C690 N688 1.356 . S
C691 C685 1.363 . S
C691 C686 1.379 . S
C691 N689 1.356 . S
N692 C684 1.356 . S
N692 H698 0.984 . S
N692 H699 0.984 . S
N693 C686 1.356 . S
N693 H696 0.984 . S
N693 H697 0.985 . S
H694 N689 0.984 . S
H695 N689 0.985 . S
H696 N693 0.984 . S
H697 N693 0.985 . S
H698 N692 0.984 . S
H699 N692 0.984 . S
H700 N688 0.984 . S
H701 N688 0.985 . S
C702 C703 1.363 . S
C702 C708 1.379 . S
C702 N710 1.356 . S
C703 C702 1.363 . S
C703 C709 1.363 . S
C704 C705 1.363 . S
C704 C709 1.379 . S
C704 N711 1.356 . S
C705 C704 1.363 . S
C705 C708 1.363 . S
N706 C708 1.356 . S
N706 H718 0.984 . S
N706 H719 0.985 . S
N707 C709 1.356 . S
N707 H712 0.984 . S
N707 H713 0.985 . S
C708 C702 1.379 . S
C708 C705 1.363 . S
C708 N706 1.356 . S
C709 C703 1.363 . S
C709 C704 1.379 . S
C709 N707 1.356 . S
N710 C702 1.356 . S
N710 H716 0.984 . S
N710 H717 0.984 . S
N711 C704 1.356 . S
N711 H714 0.984 . S
N711 H715 0.985 . S
H712 N707 0.984 . S
H713 N707 0.985 . S
H714 N711 0.984 . S
H715 N711 0.985 . S
H716 N710 0.984 . S
H717 N710 0.984 . S
H718 N706 0.984 . S
H719 N706 0.985 . S
C720 C721 1.363 . S
C720 C726 1.379 . S
C720 N728 1.356 . S
C721 C720 1.363 . S
C721 C727 1.363 . S
C722 C723 1.363 . S
C722 C727 1.379 . S
C722 N729 1.356 . S
C723 C722 1.363 . S
C723 C726 1.363 . S
N724 C726 1.356 . S
N724 H736 0.984 . S
N724 H737 0.985 . S
N725 C727 1.356 . S
N725 H730 0.984 . S
N725 H731 0.985 . S
C726 C720 1.379 . S
C726 C723 1.363 . S
C726 N724 1.356 . S
C727 C721 1.363 . S
C727 C722 1.379 . S
C727 N725 1.356 . S
N728 C720 1.356 . S
N728 H734 0.984 . S
N728 H735 0.984 . S
N729 C722 1.356 . S
N729 H732 0.984 . S
N729 H733 0.985 . S
H730 N725 0.984 . S
H731 N725 0.985 . S
H732 N729 0.984 . S
H733 N729 0.985 . S
H734 N728 0.984 . S
H735 N728 0.984 . S
H736 N724 0.984 . S
H737 N724 0.985 . S
C738 C739 1.363 . S
C738 C744 1.379 . S
C738 N746 1.356 . S
C739 C738 1.363 . S
C739 C745 1.363 . S
C740 C741 1.363 . S
C740 C745 1.379 . S
C740 N747 1.356 . S
C741 C740 1.363 . S
C741 C744 1.363 . S
N742 C744 1.356 . S
N742 H754 0.984 . S
N742 H755 0.985 . S
N743 C745 1.356 . S
N743 H748 0.984 . S
N743 H749 0.985 . S
C744 C738 1.379 . S
C744 C741 1.363 . S
C744 N742 1.356 . S
C745 C739 1.363 . S
C745 C740 1.379 . S
C745 N743 1.356 . S
N746 C738 1.356 . S
N746 H752 0.984 . S
N746 H753 0.984 . S
N747 C740 1.356 . S
N747 H750 0.984 . S
N747 H751 0.985 . S
H748 N743 0.984 . S
H749 N743 0.985 . S
H750 N747 0.984 . S
H751 N747 0.985 . S
H752 N746 0.984 . S
H753 N746 0.984 . S
H754 N742 0.984 . S
H755 N742 0.985 . S
C756 C757 1.363 . S
C756 C762 1.379 . S
C756 N764 1.356 . S
C757 C756 1.363 . S
C757 C763 1.363 . S
C758 C759 1.363 . S
C758 C763 1.379 . S
C758 N765 1.356 . S
C759 C758 1.363 . S
C759 C762 1.363 . S
N760 C762 1.356 . S
N760 H772 0.984 . S
N760 H773 0.985 . S
N761 C763 1.356 . S
N761 H766 0.984 . S
N761 H767 0.985 . S
C762 C756 1.379 . S
C762 C759 1.363 . S
C762 N760 1.356 . S
C763 C757 1.363 . S
C763 C758 1.379 . S
C763 N761 1.356 . S
N764 C756 1.356 . S
N764 H770 0.984 . S
N764 H771 0.984 . S
N765 C758 1.356 . S
N765 H768 0.984 . S
N765 H769 0.985 . S
H766 N761 0.984 . S
H767 N761 0.985 . S
H768 N765 0.984 . S
H769 N765 0.985 . S
H770 N764 0.984 . S
H771 N764 0.984 . S
H772 N760 0.984 . S
H773 N760 0.985 . S
C774 C775 1.363 . S
C774 C780 1.379 . S
C774 N782 1.356 . S
C775 C774 1.363 . S
C775 C781 1.363 . S
C776 C777 1.363 . S
C776 C781 1.379 . S
C776 N783 1.356 . S
C777 C776 1.363 . S
C777 C780 1.363 . S
N778 C780 1.356 . S
N778 H790 0.984 . S
N778 H791 0.985 . S
N779 C781 1.356 . S
N779 H784 0.984 . S
N779 H785 0.985 . S
C780 C774 1.379 . S
C780 C777 1.363 . S
C780 N778 1.356 . S
C781 C775 1.363 . S
C781 C776 1.379 . S
C781 N779 1.356 . S
N782 C774 1.356 . S
N782 H788 0.984 . S
N782 H789 0.984 . S
N783 C776 1.356 . S
N783 H786 0.984 . S
N783 H787 0.985 . S
H784 N779 0.984 . S
H785 N779 0.985 . S
H786 N783 0.984 . S
H787 N783 0.985 . S
H788 N782 0.984 . S
H789 N782 0.984 . S
H790 N778 0.984 . S
H791 N778 0.985 . S
C792 C793 1.363 . S
C792 C798 1.379 . S
C792 N800 1.356 . S
C793 C792 1.363 . S
C793 C799 1.363 . S
C794 C795 1.363 . S
C794 C799 1.379 . S
C794 N801 1.356 . S
C795 C794 1.363 . S
C795 C798 1.363 . S
N796 C798 1.356 . S
N796 H808 0.984 . S
N796 H809 0.985 . S
N797 C799 1.356 . S
N797 H802 0.984 . S
N797 H803 0.985 . S
C798 C792 1.379 . S
C798 C795 1.363 . S
C798 N796 1.356 . S
C799 C793 1.363 . S
C799 C794 1.379 . S
C799 N797 1.356 . S
N800 C792 1.356 . S
N800 H806 0.984 . S
N800 H807 0.984 . S
N801 C794 1.356 . S
N801 H804 0.984 . S
N801 H805 0.985 . S
H802 N797 0.984 . S
H803 N797 0.985 . S
H804 N801 0.984 . S
H805 N801 0.985 . S
H806 N800 0.984 . S
H807 N800 0.984 . S
H808 N796 0.984 . S
H809 N796 0.985 . S
C810 C811 1.363 . S
C810 C816 1.379 . S
C810 N818 1.356 . S
C811 C810 1.363 . S
C811 C817 1.363 . S
C812 C813 1.363 . S
C812 C817 1.379 . S
C812 N819 1.356 . S
C813 C812 1.363 . S
C813 C816 1.363 . S
N814 C816 1.356 . S
N814 H826 0.984 . S
N814 H827 0.985 . S
N815 C817 1.356 . S
N815 H820 0.984 . S
N815 H821 0.985 . S
C816 C810 1.379 . S
C816 C813 1.363 . S
C816 N814 1.356 . S
C817 C811 1.363 . S
C817 C812 1.379 . S
C817 N815 1.356 . S
N818 C810 1.356 . S
N818 H824 0.984 . S
N818 H825 0.984 . S
N819 C812 1.356 . S
N819 H822 0.984 . S
N819 H823 0.985 . S
H820 N815 0.984 . S
H821 N815 0.985 . S
H822 N819 0.984 . S
H823 N819 0.985 . S
H824 N818 0.984 . S
H825 N818 0.984 . S
H826 N814 0.984 . S
H827 N814 0.985 . S
C828 C829 1.363 1_545 S
C828 C834 1.379 . S
C828 N836 1.356 . S
C829 C828 1.363 1_565 S
C829 C835 1.363 1_556 S
C830 C831 1.363 1_565 S
C830 C835 1.379 . S
C830 N837 1.356 . S
C831 C830 1.363 1_545 S
C831 C834 1.363 1_554 S
N832 C834 1.356 1_554 S
N832 H844 0.984 1_554 S
N832 H845 0.985 . S
N833 C835 1.356 1_556 S
N833 H838 0.984 . S
N833 H839 0.985 1_556 S
C834 C828 1.379 . S
C834 C831 1.363 1_556 S
C834 N832 1.356 1_556 S
C835 C829 1.363 1_554 S
C835 C830 1.379 . S
C835 N833 1.356 1_554 S
N836 C828 1.356 . S
N836 H842 0.984 . S
N836 H843 0.984 1_545 S
N837 C830 1.356 . S
N837 H840 0.984 1_565 S
N837 H841 0.985 . S
H838 N833 0.984 . S
H839 N833 0.985 1_554 S
H840 N837 0.984 1_545 S
H841 N837 0.985 . S
H842 N836 0.984 . S
H843 N836 0.984 1_565 S
H844 N832 0.984 1_556 S
H845 N832 0.985 . S
C846 C847 1.363 . S
C846 C852 1.379 1_554 S
C846 N854 1.356 . S
C847 C846 1.363 . S
C847 C853 1.363 1_655 S
C848 C849 1.363 . S
C848 C853 1.379 1_556 S
C848 N855 1.356 . S
C849 C848 1.363 . S
C849 C852 1.363 1_455 S
N850 C852 1.356 . S
N850 H862 0.984 . S
N850 H863 0.985 1_655 S
N851 C853 1.356 . S
N851 H856 0.984 1_455 S
N851 H857 0.985 . S
C852 C846 1.379 1_556 S
C852 C849 1.363 1_655 S
C852 N850 1.356 . S
C853 C847 1.363 1_455 S
C853 C848 1.379 1_554 S
C853 N851 1.356 . S
N854 C846 1.356 . S
N854 H860 0.984 1_554 S
N854 H861 0.984 . S
N855 C848 1.356 . S
N855 H858 0.984 . S
N855 H859 0.985 1_556 S
H856 N851 0.984 1_655 S
H857 N851 0.985 . S
H858 N855 0.984 . S
H859 N855 0.985 1_554 S
H860 N854 0.984 1_556 S
H861 N854 0.984 . S
H862 N850 0.984 . S
H863 N850 0.985 1_455 S
C864 C865 1.363 . S
C864 C870 1.379 1_556 S
C864 N872 1.356 . S
C865 C864 1.363 . S
C865 C871 1.363 . S
C866 C867 1.363 . S
C866 C871 1.379 1_554 S
C866 N873 1.356 . S
C867 C866 1.363 . S
C867 C870 1.363 . S
N868 C870 1.356 . S
N868 H880 0.984 . S
N868 H881 0.985 . S
N869 C871 1.356 . S
N869 H874 0.984 . S
N869 H875 0.985 . S
C870 C864 1.379 1_554 S
C870 C867 1.363 . S
C870 N868 1.356 . S
C871 C865 1.363 . S
C871 C866 1.379 1_556 S
C871 N869 1.356 . S
N872 C864 1.356 . S
N872 H878 0.984 . S
N872 H879 0.984 . S
N873 C866 1.356 . S
N873 H876 0.984 . S
N873 H877 0.985 . S
H874 N869 0.984 . S
H875 N869 0.985 . S
H876 N873 0.984 . S
H877 N873 0.985 . S
H878 N872 0.984 . S
H879 N872 0.984 . S
H880 N868 0.984 . S
H881 N868 0.985 . S
C882 C883 1.363 1_545 S
C882 C888 1.379 1_556 S
C882 N890 1.356 . S
C883 C882 1.363 1_565 S
C883 C889 1.363 . S
C884 C885 1.363 1_565 S
C884 C889 1.379 1_554 S
C884 N891 1.356 . S
C885 C884 1.363 1_545 S
C885 C888 1.363 . S
N886 C888 1.356 . S
N886 H898 0.984 . S
N886 H899 0.985 . S
N887 C889 1.356 . S
N887 H892 0.984 . S
N887 H893 0.985 . S
C888 C882 1.379 1_554 S
C888 C885 1.363 . S
C888 N886 1.356 . S
C889 C883 1.363 . S
C889 C884 1.379 1_556 S
C889 N887 1.356 . S
N890 C882 1.356 . S
N890 H896 0.984 . S
N890 H897 0.984 1_545 S
N891 C884 1.356 . S
N891 H894 0.984 1_565 S
N891 H895 0.985 . S
H892 N887 0.984 . S
H893 N887 0.985 . S
H894 N891 0.984 1_545 S
H895 N891 0.985 . S
H896 N890 0.984 . S
H897 N890 0.984 1_565 S
H898 N886 0.984 . S
H899 N886 0.985 . S
C900 C901 1.363 1_554 S
C900 C906 1.379 . S
C900 N908 1.356 1_554 S
C901 C900 1.363 1_556 S
C901 C907 1.363 1_455 S
C902 C903 1.363 1_556 S
C902 C907 1.379 . S
C902 N909 1.356 1_556 S
C903 C902 1.363 1_554 S
C903 C906 1.363 1_655 S
N904 C906 1.356 . S
N904 H916 0.984 . S
N904 H917 0.980 . S
N905 C907 1.356 . S
N905 H910 0.980 . S
N905 H911 0.985 . S
C906 C900 1.379 . S
C906 C903 1.363 1_455 S
C906 N904 1.356 . S
C907 C901 1.363 1_655 S
C907 C902 1.379 . S
C907 N905 1.356 . S
N908 C900 1.356 1_556 S
N908 H914 0.984 1_556 S
N908 H915 0.984 . S
N909 C902 1.356 1_554 S
N909 H912 0.984 . S
N909 H913 0.985 1_554 S
H910 N905 0.980 . S
H911 N905 0.985 . S
H912 N909 0.984 . S
H913 N909 0.985 1_556 S
H914 N908 0.984 1_554 S
H915 N908 0.984 . S
H916 N904 0.984 . S
H917 N904 0.980 . S
C918 C919 1.363 . S
C918 C924 1.389 . S
C918 N926 1.356 . S
C919 C918 1.363 . S
C919 C925 1.352 1_554 S
C920 C921 1.363 . S
C920 C925 1.389 . S
C920 N927 1.356 . S
C921 C920 1.363 . S
C921 C924 1.352 1_556 S
N922 C924 1.353 1_556 S
N922 H934 0.984 1_556 S
N922 H935 0.985 . S
N923 C925 1.353 1_554 S
N923 H928 0.984 . S
N923 H929 0.985 1_554 S
C924 C918 1.389 . S
C924 C921 1.352 1_554 S
C924 N922 1.353 1_554 S
C925 C919 1.352 1_556 S
C925 C920 1.389 . S
C925 N923 1.353 1_556 S
N926 C918 1.356 . S
N926 H932 0.984 . S
N926 H933 0.984 . S
N927 C920 1.356 . S
N927 H930 0.984 . S
N927 H931 0.985 . S
H928 N923 0.984 . S
H929 N923 0.985 1_556 S
H930 N927 0.984 . S
H931 N927 0.985 . S
H932 N926 0.984 . S
H933 N926 0.984 . S
H934 N922 0.984 1_554 S
H935 N922 0.985 . S
C936 C937 1.363 . S
C936 C942 1.379 . S
C936 N944 1.356 . S
C937 C936 1.363 . S
C937 C943 1.363 . S
C938 C939 1.363 . S
C938 C943 1.379 . S
C938 N945 1.356 . S
C939 C938 1.363 . S
C939 C942 1.363 . S
N940 C942 1.356 . S
N940 H952 0.984 . S
N940 H953 0.985 . S
N941 C943 1.356 . S
N941 H946 0.984 . S
N941 H947 0.985 . S
C942 C936 1.379 . S
C942 C939 1.363 . S
C942 N940 1.356 . S
C943 C937 1.363 . S
C943 C938 1.379 . S
C943 N941 1.356 . S
N944 C936 1.356 . S
N944 H950 0.984 . S
N944 H951 0.984 . S
N945 C938 1.356 . S
N945 H948 0.984 . S
N945 H949 0.985 . S
H946 N941 0.984 . S
H947 N941 0.985 . S
H948 N945 0.984 . S
H949 N945 0.985 . S
H950 N944 0.984 . S
H951 N944 0.984 . S
H952 N940 0.984 . S
H953 N940 0.985 . S
C954 C955 1.363 . S
C954 C960 1.379 . S
C954 N962 1.356 . S
C955 C954 1.363 . S
C955 C961 1.363 . S
C956 C957 1.363 . S
C956 C961 1.379 . S
C956 N963 1.356 . S
C957 C956 1.363 . S
C957 C960 1.363 . S
N958 C960 1.356 . S
N958 H970 0.984 . S
N958 H971 0.985 . S
N959 C961 1.356 . S
N959 H964 0.984 . S
N959 H965 0.985 . S
C960 C954 1.379 . S
C960 C957 1.363 . S
C960 N958 1.356 . S
C961 C955 1.363 . S
C961 C956 1.379 . S
C961 N959 1.356 . S
N962 C954 1.356 . S
N962 H968 0.984 . S
N962 H969 0.984 . S
N963 C956 1.356 . S
N963 H966 0.984 . S
N963 H967 0.985 . S
H964 N959 0.984 . S
H965 N959 0.985 . S
H966 N963 0.984 . S
H967 N963 0.985 . S
H968 N962 0.984 . S
H969 N962 0.984 . S
H970 N958 0.984 . S
H971 N958 0.985 . S
C972 C973 1.363 . S
C972 C978 1.379 . S
C972 N980 1.356 . S
C973 C972 1.363 . S
C973 C979 1.363 . S
C974 C975 1.363 . S
C974 C979 1.379 . S
C974 N981 1.356 . S
C975 C974 1.363 . S
C975 C978 1.363 . S
N976 C978 1.356 . S
N976 H988 0.984 . S
N976 H989 0.985 . S
N977 C979 1.356 . S
N977 H982 0.984 . S
N977 H983 0.985 . S
C978 C972 1.379 . S
C978 C975 1.363 . S
C978 N976 1.356 . S
C979 C973 1.363 . S
C979 C974 1.379 . S
C979 N977 1.356 . S
N980 C972 1.356 . S
N980 H986 0.984 . S
N980 H987 0.984 . S
N981 C974 1.356 . S
N981 H984 0.984 . S
N981 H985 0.985 . S
H982 N977 0.984 . S
H983 N977 0.985 . S
H984 N981 0.984 . S
H985 N981 0.985 . S
H986 N980 0.984 . S
H987 N980 0.984 . S
H988 N976 0.984 . S
H989 N976 0.985 . S
C990 C991 1.363 . S
C990 C996 1.379 . S
C990 N998 1.356 . S
C991 C990 1.363 . S
C991 C997 1.363 . S
C992 C993 1.363 . S
C992 C997 1.379 . S
C992 N999 1.356 . S
C993 C992 1.363 . S
C993 C996 1.363 . S
N994 C996 1.356 . S
N994 H1006 0.984 . S
N994 H1007 0.985 . S
N995 C997 1.356 . S
N995 H1000 0.984 . S
N995 H1001 0.985 . S
C996 C990 1.379 . S
C996 C993 1.363 . S
C996 N994 1.356 . S
C997 C991 1.363 . S
C997 C992 1.379 . S
C997 N995 1.356 . S
N998 C990 1.356 . S
N998 H1004 0.984 . S
N998 H1005 0.984 . S
N999 C992 1.356 . S
N999 H1002 0.984 . S
N999 H1003 0.985 . S
H1000 N995 0.984 . S
H1001 N995 0.985 . S
H1002 N999 0.984 . S
H1003 N999 0.985 . S
H1004 N998 0.984 . S
H1005 N998 0.984 . S
H1006 N994 0.984 . S
H1007 N994 0.985 . S
C1008 C1009 1.363 . S
C1008 C1014 1.379 . S
C1008 N1016 1.356 . S
C1009 C1008 1.363 . S
C1009 C1015 1.363 . S
C1010 C1011 1.363 . S
C1010 C1015 1.379 . S
C1010 N1017 1.356 . S
C1011 C1010 1.363 . S
C1011 C1014 1.363 . S
N1012 C1014 1.356 . S
N1012 H1024 0.984 . S
N1012 H1025 0.985 . S
N1013 C1015 1.356 . S
N1013 H1018 0.984 . S
N1013 H1019 0.985 . S
C1014 C1008 1.379 . S
C1014 C1011 1.363 . S
C1014 N1012 1.356 . S
C1015 C1009 1.363 . S
C1015 C1010 1.379 . S
C1015 N1013 1.356 . S
N1016 C1008 1.356 . S
N1016 H1022 0.984 . S
N1016 H1023 0.984 . S
N1017 C1010 1.356 . S
N1017 H1020 0.984 . S
N1017 H1021 0.985 . S
H1018 N1013 0.984 . S
H1019 N1013 0.985 . S
H1020 N1017 0.984 . S
H1021 N1017 0.985 . S
H1022 N1016 0.984 . S
H1023 N1016 0.984 . S
H1024 N1012 0.984 . S
H1025 N1012 0.985 . S
C1026 C1027 1.363 . S
C1026 C1032 1.379 . S
C1026 N1034 1.356 . S
C1027 C1026 1.363 . S
C1027 C1033 1.363 . S
C1028 C1029 1.363 . S
C1028 C1033 1.379 . S
C1028 N1035 1.356 . S
C1029 C1028 1.363 . S
C1029 C1032 1.363 . S
N1030 C1032 1.356 . S
N1030 H1042 0.984 . S
N1030 H1043 0.985 . S
N1031 C1033 1.356 . S
N1031 H1036 0.984 . S
N1031 H1037 0.985 . S
C1032 C1026 1.379 . S
C1032 C1029 1.363 . S
C1032 N1030 1.356 . S
C1033 C1027 1.363 . S
C1033 C1028 1.379 . S
C1033 N1031 1.356 . S
N1034 C1026 1.356 . S
N1034 H1040 0.984 . S
N1034 H1041 0.984 . S
N1035 C1028 1.356 . S
N1035 H1038 0.984 . S
N1035 H1039 0.985 . S
H1036 N1031 0.984 . S
H1037 N1031 0.985 . S
H1038 N1035 0.984 . S
H1039 N1035 0.985 . S
H1040 N1034 0.984 . S
H1041 N1034 0.984 . S
H1042 N1030 0.984 . S
H1043 N1030 0.985 . S
C1044 C1045 1.363 . S
C1044 C1050 1.379 . S
C1044 N1052 1.356 . S
C1045 C1044 1.363 . S
C1045 C1051 1.363 . S
C1046 C1047 1.363 . S
C1046 C1051 1.379 . S
C1046 N1053 1.356 . S
C1047 C1046 1.363 . S
C1047 C1050 1.363 . S
N1048 C1050 1.356 . S
N1048 H1060 0.984 . S
N1048 H1061 0.985 . S
N1049 C1051 1.356 . S
N1049 H1054 0.984 . S
N1049 H1055 0.985 . S
C1050 C1044 1.379 . S
C1050 C1047 1.363 . S
C1050 N1048 1.356 . S
C1051 C1045 1.363 . S
C1051 C1046 1.379 . S
C1051 N1049 1.356 . S
N1052 C1044 1.356 . S
N1052 H1058 0.984 . S
N1052 H1059 0.984 . S
N1053 C1046 1.356 . S
N1053 H1056 0.984 . S
N1053 H1057 0.985 . S
H1054 N1049 0.984 . S
H1055 N1049 0.985 . S
H1056 N1053 0.984 . S
H1057 N1053 0.985 . S
H1058 N1052 0.984 . S
H1059 N1052 0.984 . S
H1060 N1048 0.984 . S
H1061 N1048 0.985 . S
C1062 C1063 1.363 . S
C1062 C1068 1.379 . S
C1062 N1070 1.356 . S
C1063 C1062 1.363 . S
C1063 C1069 1.363 . S
C1064 C1065 1.363 . S
C1064 C1069 1.379 . S
C1064 N1071 1.356 . S
C1065 C1064 1.363 . S
C1065 C1068 1.363 . S
N1066 C1068 1.356 . S
N1066 H1078 0.984 . S
N1066 H1079 0.985 . S
N1067 C1069 1.356 . S
N1067 H1072 0.984 . S
N1067 H1073 0.985 . S
C1068 C1062 1.379 . S
C1068 C1065 1.363 . S
C1068 N1066 1.356 . S
C1069 C1063 1.363 . S
C1069 C1064 1.379 . S
C1069 N1067 1.356 . S
N1070 C1062 1.356 . S
N1070 H1076 0.984 . S
N1070 H1077 0.984 . S
N1071 C1064 1.356 . S
N1071 H1074 0.984 . S
N1071 H1075 0.985 . S
H1072 N1067 0.984 . S
H1073 N1067 0.985 . S
H1074 N1071 0.984 . S
H1075 N1071 0.985 . S
H1076 N1070 0.984 . S
H1077 N1070 0.984 . S
H1078 N1066 0.984 . S
H1079 N1066 0.985 . S
C1080 C1081 1.363 . S
C1080 C1086 1.379 . S
C1080 N1088 1.356 . S
C1081 C1080 1.363 . S
C1081 C1087 1.363 . S
C1082 C1083 1.363 . S
C1082 C1087 1.379 . S
C1082 N1089 1.356 . S
C1083 C1082 1.363 . S
C1083 C1086 1.363 . S
N1084 C1086 1.356 . S
N1084 H1096 0.984 . S
N1084 H1097 0.985 . S
N1085 C1087 1.356 . S
N1085 H1090 0.984 . S
N1085 H1091 0.985 . S
C1086 C1080 1.379 . S
C1086 C1083 1.363 . S
C1086 N1084 1.356 . S
C1087 C1081 1.363 . S
C1087 C1082 1.379 . S
C1087 N1085 1.356 . S
N1088 C1080 1.356 . S
N1088 H1094 0.984 . S
N1088 H1095 0.984 . S
N1089 C1082 1.356 . S
N1089 H1092 0.984 . S
N1089 H1093 0.985 . S
H1090 N1085 0.984 . S
H1091 N1085 0.985 . S
H1092 N1089 0.984 . S
H1093 N1089 0.985 . S
H1094 N1088 0.984 . S
H1095 N1088 0.984 . S
H1096 N1084 0.984 . S
H1097 N1084 0.985 . S
C1098 C1099 1.363 . S
C1098 C1104 1.379 . S
C1098 N1106 1.356 . S
C1099 C1098 1.363 . S
C1099 C1105 1.363 . S
C1100 C1101 1.363 . S
C1100 C1105 1.379 . S
C1100 N1107 1.356 . S
C1101 C1100 1.363 . S
C1101 C1104 1.363 . S
N1102 C1104 1.356 . S
N1102 H1114 0.984 . S
N1102 H1115 0.985 . S
N1103 C1105 1.356 . S
N1103 H1108 0.984 . S
N1103 H1109 0.985 . S
C1104 C1098 1.379 . S
C1104 C1101 1.363 . S
C1104 N1102 1.356 . S
C1105 C1099 1.363 . S
C1105 C1100 1.379 . S
C1105 N1103 1.356 . S
N1106 C1098 1.356 . S
N1106 H1112 0.984 . S
N1106 H1113 0.984 . S
N1107 C1100 1.356 . S
N1107 H1110 0.984 . S
N1107 H1111 0.985 . S
H1108 N1103 0.984 . S
H1109 N1103 0.985 . S
H1110 N1107 0.984 . S
H1111 N1107 0.985 . S
H1112 N1106 0.984 . S
H1113 N1106 0.984 . S
H1114 N1102 0.984 . S
H1115 N1102 0.985 . S
C1116 C1117 1.363 . S
C1116 C1122 1.379 . S
C1116 N1124 1.356 . S
C1117 C1116 1.363 . S
C1117 C1123 1.363 . S
C1118 C1119 1.363 . S
C1118 C1123 1.379 . S
C1118 N1125 1.356 . S
C1119 C1118 1.363 . S
C1119 C1122 1.363 . S
N1120 C1122 1.356 . S
N1120 H1132 0.984 . S
N1120 H1133 0.985 . S
N1121 C1123 1.356 . S
N1121 H1126 0.984 . S
N1121 H1127 0.985 . S
C1122 C1116 1.379 . S
C1122 C1119 1.363 . S
C1122 N1120 1.356 . S
C1123 C1117 1.363 . S
C1123 C1118 1.379 . S
C1123 N1121 1.356 . S
N1124 C1116 1.356 . S
N1124 H1130 0.984 . S
N1124 H1131 0.984 . S
N1125 C1118 1.356 . S
N1125 H1128 0.984 . S
N1125 H1129 0.985 . S
H1126 N1121 0.984 . S
H1127 N1121 0.985 . S
H1128 N1125 0.984 . S
H1129 N1125 0.985 . S
H1130 N1124 0.984 . S
H1131 N1124 0.984 . S
H1132 N1120 0.984 . S
H1133 N1120 0.985 . S
C1134 C1135 1.363 . S
C1134 C1140 1.379 . S
C1134 N1142 1.356 . S
C1135 C1134 1.363 . S
C1135 C1141 1.363 . S
C1136 C1137 1.363 . S
C1136 C1141 1.379 . S
C1136 N1143 1.356 . S
C1137 C1136 1.363 . S
C1137 C1140 1.363 . S
N1138 C1140 1.356 . S
N1138 H1150 0.984 . S
N1138 H1151 0.985 . S
N1139 C1141 1.356 . S
N1139 H1144 0.984 . S
N1139 H1145 0.985 . S
C1140 C1134 1.379 . S
C1140 C1137 1.363 . S
C1140 N1138 1.356 . S
C1141 C1135 1.363 . S
C1141 C1136 1.379 . S
C1141 N1139 1.356 . S
N1142 C1134 1.356 . S
N1142 H1148 0.984 . S
N1142 H1149 0.984 . S
N1143 C1136 1.356 . S
N1143 H1146 0.984 . S
N1143 H1147 0.985 . S
H1144 N1139 0.984 . S
H1145 N1139 0.985 . S
H1146 N1143 0.984 . S
H1147 N1143 0.985 . S
H1148 N1142 0.984 . S
H1149 N1142 0.984 . S
H1150 N1138 0.984 . S
H1151 N1138 0.985 . S
C1152 C1153 1.363 . S
C1152 C1158 1.379 . S
C1152 N1160 1.356 . S
C1153 C1152 1.363 . S
C1153 C1159 1.363 . S
C1154 C1155 1.363 . S
C1154 C1159 1.379 . S
C1154 N1161 1.356 . S
C1155 C1154 1.363 . S
C1155 C1158 1.363 . S
N1156 C1158 1.356 . S
N1156 H1168 0.984 . S
N1156 H1169 0.985 . S
N1157 C1159 1.356 . S
N1157 H1162 0.984 . S
N1157 H1163 0.985 . S
C1158 C1152 1.379 . S
C1158 C1155 1.363 . S
C1158 N1156 1.356 . S
C1159 C1153 1.363 . S
C1159 C1154 1.379 . S
C1159 N1157 1.356 . S
N1160 C1152 1.356 . S
N1160 H1166 0.984 . S
N1160 H1167 0.984 . S
N1161 C1154 1.356 . S
N1161 H1164 0.984 . S
N1161 H1165 0.985 . S
H1162 N1157 0.984 . S
H1163 N1157 0.985 . S
H1164 N1161 0.984 . S
H1165 N1161 0.985 . S
H1166 N1160 0.984 . S
H1167 N1160 0.984 . S
H1168 N1156 0.984 . S
H1169 N1156 0.985 . S
C1170 C1171 1.363 . S
C1170 C1176 1.379 . S
C1170 N1178 1.356 . S
C1171 C1170 1.363 . S
C1171 C1177 1.363 . S
C1172 C1173 1.363 . S
C1172 C1177 1.379 . S
C1172 N1179 1.356 . S
C1173 C1172 1.363 . S
C1173 C1176 1.363 . S
N1174 C1176 1.356 . S
N1174 H1186 0.984 . S
N1174 H1187 0.985 . S
N1175 C1177 1.356 . S
N1175 H1180 0.984 . S
N1175 H1181 0.985 . S
C1176 C1170 1.379 . S
C1176 C1173 1.363 . S
C1176 N1174 1.356 . S
C1177 C1171 1.363 . S
C1177 C1172 1.379 . S
C1177 N1175 1.356 . S
N1178 C1170 1.356 . S
N1178 H1184 0.984 . S
N1178 H1185 0.984 . S
N1179 C1172 1.356 . S
N1179 H1182 0.984 . S
N1179 H1183 0.985 . S
H1180 N1175 0.984 . S
H1181 N1175 0.985 . S
H1182 N1179 0.984 . S
H1183 N1179 0.985 . S
H1184 N1178 0.984 . S
H1185 N1178 0.984 . S
H1186 N1174 0.984 . S
H1187 N1174 0.985 . S
C1188 C1189 1.363 . S
C1188 C1194 1.379 . S
C1188 N1196 1.356 . S
C1189 C1188 1.363 . S
C1189 C1195 1.363 . S
C1190 C1191 1.363 . S
C1190 C1195 1.379 . S
C1190 N1197 1.356 . S
C1191 C1190 1.363 . S
C1191 C1194 1.363 . S
N1192 C1194 1.356 . S
N1192 H1204 0.984 . S
N1192 H1205 0.985 . S
N1193 C1195 1.356 . S
N1193 H1198 0.984 . S
N1193 H1199 0.985 . S
C1194 C1188 1.379 . S
C1194 C1191 1.363 . S
C1194 N1192 1.356 . S
C1195 C1189 1.363 . S
C1195 C1190 1.379 . S
C1195 N1193 1.356 . S
N1196 C1188 1.356 . S
N1196 H1202 0.984 . S
N1196 H1203 0.984 . S
N1197 C1190 1.356 . S
N1197 H1200 0.984 . S
N1197 H1201 0.985 . S
H1198 N1193 0.984 . S
H1199 N1193 0.985 . S
H1200 N1197 0.984 . S
H1201 N1197 0.985 . S
H1202 N1196 0.984 . S
H1203 N1196 0.984 . S
H1204 N1192 0.984 . S
H1205 N1192 0.985 . S
C1206 C1207 1.363 . S
C1206 C1212 1.379 . S
C1206 N1214 1.356 . S
C1207 C1206 1.363 . S
C1207 C1213 1.363 . S
C1208 C1209 1.363 . S
C1208 C1213 1.379 . S
C1208 N1215 1.356 . S
C1209 C1208 1.363 . S
C1209 C1212 1.363 . S
N1210 C1212 1.356 . S
N1210 H1222 0.984 . S
N1210 H1223 0.985 . S
N1211 C1213 1.356 . S
N1211 H1216 0.984 . S
N1211 H1217 0.985 . S
C1212 C1206 1.379 . S
C1212 C1209 1.363 . S
C1212 N1210 1.356 . S
C1213 C1207 1.363 . S
C1213 C1208 1.379 . S
C1213 N1211 1.356 . S
N1214 C1206 1.356 . S
N1214 H1220 0.984 . S
N1214 H1221 0.984 . S
N1215 C1208 1.356 . S
N1215 H1218 0.984 . S
N1215 H1219 0.985 . S
H1216 N1211 0.984 . S
H1217 N1211 0.985 . S
H1218 N1215 0.984 . S
H1219 N1215 0.985 . S
H1220 N1214 0.984 . S
H1221 N1214 0.984 . S
H1222 N1210 0.984 . S
H1223 N1210 0.985 . S
C1224 C1225 1.363 . S
C1224 C1230 1.379 . S
C1224 N1232 1.356 . S
C1225 C1224 1.363 . S
C1225 C1231 1.363 . S
C1226 C1227 1.363 . S
C1226 C1231 1.379 . S
C1226 N1233 1.356 . S
C1227 C1226 1.363 . S
C1227 C1230 1.363 . S
N1228 C1230 1.356 . S
N1228 H1240 0.984 . S
N1228 H1241 0.985 . S
N1229 C1231 1.356 . S
N1229 H1234 0.984 . S
N1229 H1235 0.985 . S
C1230 C1224 1.379 . S
C1230 C1227 1.363 . S
C1230 N1228 1.356 . S
C1231 C1225 1.363 . S
C1231 C1226 1.379 . S
C1231 N1229 1.356 . S
N1232 C1224 1.356 . S
N1232 H1238 0.984 . S
N1232 H1239 0.984 . S
N1233 C1226 1.356 . S
N1233 H1236 0.984 . S
N1233 H1237 0.985 . S
H1234 N1229 0.984 . S
H1235 N1229 0.985 . S
H1236 N1233 0.984 . S
H1237 N1233 0.985 . S
H1238 N1232 0.984 . S
H1239 N1232 0.984 . S
H1240 N1228 0.984 . S
H1241 N1228 0.985 . S
C1242 C1243 1.363 . S
C1242 C1248 1.379 . S
C1242 N1250 1.356 . S
C1243 C1242 1.363 . S
C1243 C1249 1.363 . S
C1244 C1245 1.363 . S
C1244 C1249 1.379 . S
C1244 N1251 1.356 . S
C1245 C1244 1.363 . S
C1245 C1248 1.363 . S
N1246 C1248 1.356 . S
N1246 H1258 0.984 . S
N1246 H1259 0.985 . S
N1247 C1249 1.356 . S
N1247 H1252 0.984 . S
N1247 H1253 0.985 . S
C1248 C1242 1.379 . S
C1248 C1245 1.363 . S
C1248 N1246 1.356 . S
C1249 C1243 1.363 . S
C1249 C1244 1.379 . S
C1249 N1247 1.356 . S
N1250 C1242 1.356 . S
N1250 H1256 0.984 . S
N1250 H1257 0.984 . S
N1251 C1244 1.356 . S
N1251 H1254 0.984 . S
N1251 H1255 0.985 1_556 S
H1252 N1247 0.984 . S
H1253 N1247 0.985 . S
H1254 N1251 0.984 . S
H1255 N1251 0.985 1_554 S
H1256 N1250 0.984 . S
H1257 N1250 0.984 . S
H1258 N1246 0.984 . S
H1259 N1246 0.985 . S
C1260 C1261 1.363 . S
C1260 C1266 1.379 . S
C1260 N1268 1.356 . S
C1261 C1260 1.363 . S
C1261 C1267 1.363 . S
C1262 C1263 1.363 . S
C1262 C1267 1.379 . S
C1262 N1269 1.356 . S
C1263 C1262 1.363 . S
C1263 C1266 1.363 . S
N1264 C1266 1.356 . S
N1264 H1276 0.977 1_556 S
N1264 H1277 0.985 . S
N1265 C1267 1.356 . S
N1265 H1270 0.984 . S
N1265 H1271 0.985 . S
C1266 C1260 1.379 . S
C1266 C1263 1.363 . S
C1266 N1264 1.356 . S
C1267 C1261 1.363 . S
C1267 C1262 1.379 . S
C1267 N1265 1.356 . S
N1268 C1260 1.356 . S
N1268 H1274 0.984 . S
N1268 H1275 0.984 . S
N1269 C1262 1.356 . S
N1269 H1272 0.984 . S
N1269 H1273 0.985 . S
H1270 N1265 0.984 . S
H1271 N1265 0.985 . S
H1272 N1269 0.984 . S
H1273 N1269 0.985 . S
H1274 N1268 0.984 . S
H1275 N1268 0.984 . S
H1276 N1264 0.977 1_554 S
H1277 N1264 0.985 . S
C1278 C1279 1.363 . S
C1278 C1284 1.379 . S
C1278 N1286 1.356 . S
C1279 C1278 1.363 . S
C1279 C1285 1.363 . S
C1280 C1281 1.363 . S
C1280 C1285 1.379 . S
C1280 N1287 1.356 . S
C1281 C1280 1.363 . S
C1281 C1284 1.363 . S
N1282 C1284 1.356 . S
N1282 H1294 0.984 . S
N1282 H1295 0.985 . S
N1283 C1285 1.356 . S
N1283 H1288 0.984 . S
N1283 H1289 0.985 . S
C1284 C1278 1.379 . S
C1284 C1281 1.363 . S
C1284 N1282 1.356 . S
C1285 C1279 1.363 . S
C1285 C1280 1.379 . S
C1285 N1283 1.356 . S
N1286 C1278 1.356 . S
N1286 H1292 0.984 . S
N1286 H1293 0.984 . S
N1287 C1280 1.356 . S
N1287 H1290 0.984 . S
N1287 H1291 0.985 . S
H1288 N1283 0.984 . S
H1289 N1283 0.985 . S
H1290 N1287 0.984 . S
H1291 N1287 0.985 . S
H1292 N1286 0.984 . S
H1293 N1286 0.984 . S
H1294 N1282 0.984 . S
H1295 N1282 0.985 . S
C1296 C1297 1.363 . S
C1296 C1302 1.379 . S
C1296 N1304 1.356 . S
C1297 C1296 1.363 . S
C1297 C1303 1.363 . S
C1298 C1299 1.363 . S
C1298 C1303 1.379 . S
C1298 N1305 1.356 . S
C1299 C1298 1.363 . S
C1299 C1302 1.363 . S
N1300 C1302 1.356 . S
N1300 H1312 0.984 . S
N1300 H1313 0.985 . S
N1301 C1303 1.356 . S
N1301 H1306 0.984 . S
N1301 H1307 0.985 . S
C1302 C1296 1.379 . S
C1302 C1299 1.363 . S
C1302 N1300 1.356 . S
C1303 C1297 1.363 . S
C1303 C1298 1.379 . S
C1303 N1301 1.356 . S
N1304 C1296 1.356 . S
N1304 H1310 0.984 . S
N1304 H1311 0.984 . S
N1305 C1298 1.356 . S
N1305 H1308 0.984 . S
N1305 H1309 0.985 . S
H1306 N1301 0.984 . S
H1307 N1301 0.985 . S
H1308 N1305 0.984 . S
H1309 N1305 0.985 . S
H1310 N1304 0.984 . S
H1311 N1304 0.984 . S
H1312 N1300 0.984 . S
H1313 N1300 0.985 . S
C1314 C1315 1.363 . S
C1314 C1320 1.379 . S
C1314 N1322 1.356 . S
C1315 C1314 1.363 . S
C1315 C1321 1.363 . S
C1316 C1317 1.363 . S
C1316 C1321 1.379 . S
C1316 N1323 1.356 . S
C1317 C1316 1.363 . S
C1317 C1320 1.363 . S
N1318 C1320 1.356 . S
N1318 H1330 0.984 . S
N1318 H1331 0.985 . S
N1319 C1321 1.356 . S
N1319 H1324 0.984 . S
N1319 H1325 0.985 . S
C1320 C1314 1.379 . S
C1320 C1317 1.363 . S
C1320 N1318 1.356 . S
C1321 C1315 1.363 . S
C1321 C1316 1.379 . S
C1321 N1319 1.356 . S
N1322 C1314 1.356 . S
N1322 H1328 0.984 . S
N1322 H1329 0.984 . S
N1323 C1316 1.356 . S
N1323 H1326 0.984 . S
N1323 H1327 0.985 . S
H1324 N1319 0.984 . S
H1325 N1319 0.985 . S
H1326 N1323 0.984 . S
H1327 N1323 0.985 . S
H1328 N1322 0.984 . S
H1329 N1322 0.984 . S
H1330 N1318 0.984 . S
H1331 N1318 0.985 . S
C1332 C1333 1.363 . S
C1332 C1338 1.379 . S
C1332 N1340 1.356 . S
C1333 C1332 1.363 . S
C1333 C1339 1.363 . S
C1334 C1335 1.363 . S
C1334 C1339 1.379 . S
C1334 N1341 1.356 . S
C1335 C1334 1.363 . S
C1335 C1338 1.363 . S
N1336 C1338 1.356 . S
N1336 H1348 0.984 . S
N1336 H1349 0.985 . S
N1337 C1339 1.356 . S
N1337 H1342 0.984 . S
N1337 H1343 0.985 . S
C1338 C1332 1.379 . S
C1338 C1335 1.363 . S
C1338 N1336 1.356 . S
C1339 C1333 1.363 . S
C1339 C1334 1.379 . S
C1339 N1337 1.356 . S
N1340 C1332 1.356 . S
N1340 H1346 0.984 . S
N1340 H1347 0.984 . S
N1341 C1334 1.356 . S
N1341 H1344 0.984 . S
N1341 H1345 0.985 . S
H1342 N1337 0.984 . S
H1343 N1337 0.985 . S
H1344 N1341 0.984 . S
H1345 N1341 0.985 . S
H1346 N1340 0.984 . S
H1347 N1340 0.984 . S
H1348 N1336 0.984 . S
H1349 N1336 0.985 . S
C1350 C1351 1.363 . S
C1350 C1356 1.379 . S
C1350 N1358 1.356 . S
C1351 C1350 1.363 . S
C1351 C1357 1.363 . S
C1352 C1353 1.363 . S
C1352 C1357 1.379 . S
C1352 N1359 1.356 . S
C1353 C1352 1.363 . S
C1353 C1356 1.363 . S
N1354 C1356 1.356 . S
N1354 H1366 0.984 . S
N1354 H1367 0.985 . S
N1355 C1357 1.356 . S
N1355 H1360 0.984 . S
N1355 H1361 0.985 . S
C1356 C1350 1.379 . S
C1356 C1353 1.363 . S
C1356 N1354 1.356 . S
C1357 C1351 1.363 . S
C1357 C1352 1.379 . S
C1357 N1355 1.356 . S
N1358 C1350 1.356 . S
N1358 H1364 0.984 1_554 S
N1358 H1365 0.984 . S
N1359 C1352 1.356 . S
N1359 H1362 0.984 . S
N1359 H1363 0.985 . S
H1360 N1355 0.984 . S
H1361 N1355 0.985 . S
H1362 N1359 0.984 . S
H1363 N1359 0.985 . S
H1364 N1358 0.984 1_556 S
H1365 N1358 0.984 . S
H1366 N1354 0.984 . S
H1367 N1354 0.985 . S
C1368 C1369 1.363 . S
C1368 C1374 1.379 1_455 S
C1368 N1376 1.356 . S
C1369 C1368 1.363 . S
C1369 C1375 1.363 . S
C1370 C1371 1.363 . S
C1370 C1375 1.379 1_655 S
C1370 N1377 1.356 . S
C1371 C1370 1.363 . S
C1371 C1374 1.363 . S
N1372 C1374 1.356 . S
N1372 H1384 0.984 . S
N1372 H1385 0.985 . S
N1373 C1375 1.356 . S
N1373 H1378 0.984 . S
N1373 H1379 0.985 . S
C1374 C1368 1.379 1_655 S
C1374 C1371 1.363 . S
C1374 N1372 1.356 . S
C1375 C1369 1.363 . S
C1375 C1370 1.379 1_455 S
C1375 N1373 1.356 . S
N1376 C1368 1.356 . S
N1376 H1382 0.984 . S
N1376 H1383 0.984 . S
N1377 C1370 1.356 . S
N1377 H1380 0.984 . S
N1377 H1381 0.985 . S
H1378 N1373 0.984 . S
H1379 N1373 0.985 . S
H1380 N1377 0.984 . S
H1381 N1377 0.985 . S
H1382 N1376 0.984 . S
H1383 N1376 0.984 . S
H1384 N1372 0.984 . S
H1385 N1372 0.985 . S
C1386 C1387 1.363 . S
C1386 C1392 1.379 . S
C1386 N1394 1.356 . S
C1387 C1386 1.363 . S
C1387 C1393 1.363 . S
C1388 C1389 1.363 . S
C1388 C1393 1.379 . S
C1388 N1395 1.356 . S
C1389 C1388 1.363 . S
C1389 C1392 1.363 . S
N1390 C1392 1.356 . S
N1390 H1402 0.984 . S
N1390 H1403 0.985 . S
N1391 C1393 1.356 . S
N1391 H1396 0.984 . S
N1391 H1397 0.985 . S
C1392 C1386 1.379 . S
C1392 C1389 1.363 . S
C1392 N1390 1.356 . S
C1393 C1387 1.363 . S
C1393 C1388 1.379 . S
C1393 N1391 1.356 . S
N1394 C1386 1.356 . S
N1394 H1400 0.984 . S
N1394 H1401 0.984 . S
N1395 C1388 1.356 . S
N1395 H1398 0.984 . S
N1395 H1399 0.985 . S
H1396 N1391 0.984 . S
H1397 N1391 0.985 . S
H1398 N1395 0.984 . S
H1399 N1395 0.985 . S
H1400 N1394 0.984 . S
H1401 N1394 0.984 . S
H1402 N1390 0.984 . S
H1403 N1390 0.985 . S
C1404 C1405 1.363 . S
C1404 C1410 1.379 1_545 S
C1404 N1412 1.356 . S
C1405 C1404 1.363 . S
C1405 C1411 1.363 . S
C1406 C1407 1.363 . S
C1406 C1411 1.379 1_565 S
C1406 N1413 1.356 . S
C1407 C1406 1.363 . S
C1407 C1410 1.363 . S
N1408 C1410 1.356 . S
N1408 H1420 0.984 . S
N1408 H1421 0.985 . S
N1409 C1411 1.356 . S
N1409 H1414 0.984 . S
N1409 H1415 0.985 . S
C1410 C1404 1.379 1_565 S
C1410 C1407 1.363 . S
C1410 N1408 1.356 . S
C1411 C1405 1.363 . S
C1411 C1406 1.379 1_545 S
C1411 N1409 1.356 . S
N1412 C1404 1.356 . S
N1412 H1418 0.984 . S
N1412 H1419 0.984 . S
N1413 C1406 1.356 . S
N1413 H1416 0.984 . S
N1413 H1417 0.985 . S
H1414 N1409 0.984 . S
H1415 N1409 0.985 . S
H1416 N1413 0.984 . S
H1417 N1413 0.985 . S
H1418 N1412 0.984 . S
H1419 N1412 0.984 . S
H1420 N1408 0.984 . S
H1421 N1408 0.985 . S
C1422 C1423 1.363 . S
C1422 C1428 1.379 1_545 S
C1422 N1430 1.356 . S
C1423 C1422 1.363 . S
C1423 C1429 1.363 . S
C1424 C1425 1.363 . S
C1424 C1429 1.379 1_565 S
C1424 N1431 1.356 . S
C1425 C1424 1.363 . S
C1425 C1428 1.363 . S
N1426 C1428 1.356 . S
N1426 H1438 0.984 . S
N1426 H1439 0.985 . S
N1427 C1429 1.356 . S
N1427 H1432 0.984 . S
N1427 H1433 0.985 . S
C1428 C1422 1.379 1_565 S
C1428 C1425 1.363 . S
C1428 N1426 1.356 . S
C1429 C1423 1.363 . S
C1429 C1424 1.379 1_545 S
C1429 N1427 1.356 . S
N1430 C1422 1.356 . S
N1430 H1436 0.984 . S
N1430 H1437 0.984 . S
N1431 C1424 1.356 . S
N1431 H1434 0.984 . S
N1431 H1435 0.985 . S
H1432 N1427 0.984 . S
H1433 N1427 0.985 . S
H1434 N1431 0.984 . S
H1435 N1431 0.985 . S
H1436 N1430 0.984 . S
H1437 N1430 0.984 . S
H1438 N1426 0.984 . S
H1439 N1426 0.985 . S
C1440 C1441 1.363 . S
C1440 C1446 1.379 1_655 S
C1440 N1448 1.356 . S
C1441 C1440 1.363 . S
C1441 C1447 1.363 . S
C1442 C1443 1.363 . S
C1442 C1447 1.379 1_455 S
C1442 N1449 1.356 . S
C1443 C1442 1.363 . S
C1443 C1446 1.363 . S
N1444 C1446 1.356 . S
N1444 H1456 0.984 . S
N1444 H1457 0.985 . S
N1445 C1447 1.356 . S
N1445 H1450 0.984 . S
N1445 H1451 0.985 . S
C1446 C1440 1.379 1_455 S
C1446 C1443 1.363 . S
C1446 N1444 1.356 . S
C1447 C1441 1.363 . S
C1447 C1442 1.379 1_655 S
C1447 N1445 1.356 . S
N1448 C1440 1.356 . S
N1448 H1454 0.984 . S
N1448 H1455 0.984 . S
N1449 C1442 1.356 . S
N1449 H1452 0.984 . S
N1449 H1453 0.985 . S
H1450 N1445 0.984 . S
H1451 N1445 0.985 . S
H1452 N1449 0.984 . S
H1453 N1449 0.985 . S
H1454 N1448 0.984 . S
H1455 N1448 0.984 . S
H1456 N1444 0.984 . S
H1457 N1444 0.985 . S
C1458 C1459 1.363 . S
C1458 C1464 1.379 . S
C1458 N1466 1.356 . S
C1459 C1458 1.363 . S
C1459 C1465 1.363 . S
C1460 C1461 1.363 . S
C1460 C1465 1.379 . S
C1460 N1467 1.356 . S
C1461 C1460 1.363 . S
C1461 C1464 1.363 . S
N1462 C1464 1.356 . S
N1462 H1474 0.984 . S
N1462 H1475 0.985 . S
N1463 C1465 1.356 . S
N1463 H1468 0.984 . S
N1463 H1469 0.985 . S
C1464 C1458 1.379 . S
C1464 C1461 1.363 . S
C1464 N1462 1.356 . S
C1465 C1459 1.363 . S
C1465 C1460 1.379 . S
C1465 N1463 1.356 . S
N1466 C1458 1.356 . S
N1466 H1472 0.984 . S
N1466 H1473 0.984 . S
N1467 C1460 1.356 . S
N1467 H1470 0.984 . S
N1467 H1471 0.985 . S
H1468 N1463 0.984 . S
H1469 N1463 0.985 . S
H1470 N1467 0.984 . S
H1471 N1467 0.985 . S
H1472 N1466 0.984 . S
H1473 N1466 0.984 . S
H1474 N1462 0.984 . S
H1475 N1462 0.985 . S
C1476 C1477 1.363 . S
C1476 C1482 1.379 . S
C1476 N1484 1.356 . S
C1477 C1476 1.363 . S
C1477 C1483 1.363 . S
C1478 C1479 1.363 . S
C1478 C1483 1.379 . S
C1478 N1485 1.356 . S
C1479 C1478 1.363 . S
C1479 C1482 1.363 . S
N1480 C1482 1.356 . S
N1480 H1492 0.984 . S
N1480 H1493 0.985 . S
N1481 C1483 1.356 . S
N1481 H1486 0.984 . S
N1481 H1487 0.985 . S
C1482 C1476 1.379 . S
C1482 C1479 1.363 . S
C1482 N1480 1.356 . S
C1483 C1477 1.363 . S
C1483 C1478 1.379 . S
C1483 N1481 1.356 . S
N1484 C1476 1.356 . S
N1484 H1490 0.984 . S
N1484 H1491 0.984 . S
N1485 C1478 1.356 . S
N1485 H1488 0.984 . S
N1485 H1489 0.985 . S
H1486 N1481 0.984 . S
H1487 N1481 0.985 . S
H1488 N1485 0.984 . S
H1489 N1485 0.985 . S
H1490 N1484 0.984 . S
H1491 N1484 0.984 . S
H1492 N1480 0.984 . S
H1493 N1480 0.985 . S
C1494 C1495 1.363 . S
C1494 C1500 1.379 . S
C1494 N1502 1.356 . S
C1495 C1494 1.363 . S
C1495 C1501 1.363 . S
C1496 C1497 1.363 . S
C1496 C1501 1.379 . S
C1496 N1503 1.356 . S
C1497 C1496 1.363 . S
C1497 C1500 1.363 . S
N1498 C1500 1.356 . S
N1498 H1510 0.984 . S
N1498 H1511 0.985 . S
N1499 C1501 1.356 . S
N1499 H1504 0.984 . S
N1499 H1505 0.985 . S
C1500 C1494 1.379 . S
C1500 C1497 1.363 . S
C1500 N1498 1.356 . S
C1501 C1495 1.363 . S
C1501 C1496 1.379 . S
C1501 N1499 1.356 . S
N1502 C1494 1.356 . S
N1502 H1508 0.984 . S
N1502 H1509 0.984 . S
N1503 C1496 1.356 . S
N1503 H1506 0.984 . S
N1503 H1507 0.985 . S
H1504 N1499 0.984 . S
H1505 N1499 0.985 . S
H1506 N1503 0.984 . S
H1507 N1503 0.985 . S
H1508 N1502 0.984 . S
H1509 N1502 0.984 . S
H1510 N1498 0.984 . S
H1511 N1498 0.985 . S
C1512 C1513 1.363 . S
C1512 C1518 1.379 . S
C1512 N1520 1.356 . S
C1513 C1512 1.363 . S
C1513 C1519 1.363 . S
C1514 C1515 1.363 . S
C1514 C1519 1.379 . S
C1514 N1521 1.356 . S
C1515 C1514 1.363 . S
C1515 C1518 1.363 . S
N1516 C1518 1.356 . S
N1516 H1528 0.984 . S
N1516 H1529 0.985 . S
N1517 C1519 1.356 . S
N1517 H1522 0.984 . S
N1517 H1523 0.985 . S
C1518 C1512 1.379 . S
C1518 C1515 1.363 . S
C1518 N1516 1.356 . S
C1519 C1513 1.363 . S
C1519 C1514 1.379 . S
C1519 N1517 1.356 . S
N1520 C1512 1.356 . S
N1520 H1526 0.984 . S
N1520 H1527 0.984 . S
N1521 C1514 1.356 . S
N1521 H1524 0.984 . S
N1521 H1525 0.985 . S
H1522 N1517 0.984 . S
H1523 N1517 0.985 . S
H1524 N1521 0.984 . S
H1525 N1521 0.985 . S
H1526 N1520 0.984 . S
H1527 N1520 0.984 . S
H1528 N1516 0.984 . S
H1529 N1516 0.985 . S
C1530 C1531 1.363 . S
C1530 C1536 1.379 . S
C1530 N1538 1.356 . S
C1531 C1530 1.363 . S
C1531 C1537 1.363 . S
C1532 C1533 1.363 . S
C1532 C1537 1.379 . S
C1532 N1539 1.356 . S
C1533 C1532 1.363 . S
C1533 C1536 1.363 . S
N1534 C1536 1.356 . S
N1534 H1546 0.984 . S
N1534 H1547 0.985 . S
N1535 C1537 1.356 . S
N1535 H1540 0.984 . S
N1535 H1541 0.985 . S
C1536 C1530 1.379 . S
C1536 C1533 1.363 . S
C1536 N1534 1.356 . S
C1537 C1531 1.363 . S
C1537 C1532 1.379 . S
C1537 N1535 1.356 . S
N1538 C1530 1.356 . S
N1538 H1544 0.984 . S
N1538 H1545 0.984 . S
N1539 C1532 1.356 . S
N1539 H1542 0.984 . S
N1539 H1543 0.985 . S
H1540 N1535 0.984 . S
H1541 N1535 0.985 . S
H1542 N1539 0.984 . S
H1543 N1539 0.985 . S
H1544 N1538 0.984 . S
H1545 N1538 0.984 . S
H1546 N1534 0.984 . S
H1547 N1534 0.985 . S
C1548 C1549 1.363 . S
C1548 C1554 1.379 . S
C1548 N1556 1.356 . S
C1549 C1548 1.363 . S
C1549 C1555 1.363 . S
C1550 C1551 1.363 . S
C1550 C1555 1.379 . S
C1550 N1557 1.356 . S
C1551 C1550 1.363 . S
C1551 C1554 1.363 . S
N1552 C1554 1.356 . S
N1552 H1564 0.984 . S
N1552 H1565 0.985 . S
N1553 C1555 1.356 . S
N1553 H1558 0.984 . S
N1553 H1559 0.985 . S
C1554 C1548 1.379 . S
C1554 C1551 1.363 . S
C1554 N1552 1.356 . S
C1555 C1549 1.363 . S
C1555 C1550 1.379 . S
C1555 N1553 1.356 . S
N1556 C1548 1.356 . S
N1556 H1562 0.984 . S
N1556 H1563 0.984 . S
N1557 C1550 1.356 . S
N1557 H1560 0.984 . S
N1557 H1561 0.985 . S
H1558 N1553 0.984 . S
H1559 N1553 0.985 . S
H1560 N1557 0.984 . S
H1561 N1557 0.985 . S
H1562 N1556 0.984 . S
H1563 N1556 0.984 . S
H1564 N1552 0.984 . S
H1565 N1552 0.985 . S
C1566 C1567 1.363 . S
C1566 C1572 1.379 . S
C1566 N1574 1.356 . S
C1567 C1566 1.363 . S
C1567 C1573 1.363 . S
C1568 C1569 1.363 . S
C1568 C1573 1.379 . S
C1568 N1575 1.356 . S
C1569 C1568 1.363 . S
C1569 C1572 1.363 . S
N1570 C1572 1.356 . S
N1570 H1582 0.984 . S
N1570 H1583 0.985 . S
N1571 C1573 1.356 . S
N1571 H1576 0.984 . S
N1571 H1577 0.985 . S
C1572 C1566 1.379 . S
C1572 C1569 1.363 . S
C1572 N1570 1.356 . S
C1573 C1567 1.363 . S
C1573 C1568 1.379 . S
C1573 N1571 1.356 . S
N1574 C1566 1.356 . S
N1574 H1580 0.984 . S
N1574 H1581 0.984 . S
N1575 C1568 1.356 . S
N1575 H1578 0.984 . S
N1575 H1579 0.985 . S
H1576 N1571 0.984 . S
H1577 N1571 0.985 . S
H1578 N1575 0.984 . S
H1579 N1575 0.985 . S
H1580 N1574 0.984 . S
H1581 N1574 0.984 . S
H1582 N1570 0.984 . S
H1583 N1570 0.985 . S
C1584 C1585 1.363 . S
C1584 C1590 1.379 . S
C1584 N1592 1.356 . S
C1585 C1584 1.363 . S
C1585 C1591 1.363 . S
C1586 C1587 1.363 . S
C1586 C1591 1.379 . S
C1586 N1593 1.356 . S
C1587 C1586 1.363 . S
C1587 C1590 1.363 . S
N1588 C1590 1.356 . S
N1588 H1600 0.984 . S
N1588 H1601 0.985 . S
N1589 C1591 1.356 . S
N1589 H1594 0.984 . S
N1589 H1595 0.985 . S
C1590 C1584 1.379 . S
C1590 C1587 1.363 . S
C1590 N1588 1.356 . S
C1591 C1585 1.363 . S
C1591 C1586 1.379 . S
C1591 N1589 1.356 . S
N1592 C1584 1.356 . S
N1592 H1598 0.984 . S
N1592 H1599 0.984 . S
N1593 C1586 1.356 . S
N1593 H1596 0.984 . S
N1593 H1597 0.985 . S
H1594 N1589 0.984 . S
H1595 N1589 0.985 . S
H1596 N1593 0.984 . S
H1597 N1593 0.985 . S
H1598 N1592 0.984 . S
H1599 N1592 0.984 . S
H1600 N1588 0.984 . S
H1601 N1588 0.985 . S
C1602 C1603 1.363 . S
C1602 C1608 1.379 . S
C1602 N1610 1.356 . S
C1603 C1602 1.363 . S
C1603 C1609 1.363 . S
C1604 C1605 1.363 . S
C1604 C1609 1.379 . S
C1604 N1611 1.356 . S
C1605 C1604 1.363 . S
C1605 C1608 1.363 . S
N1606 C1608 1.356 . S
N1606 H1618 0.984 . S
N1606 H1619 0.985 . S
N1607 C1609 1.356 . S
N1607 H1612 0.984 . S
N1607 H1613 0.985 . S
C1608 C1602 1.379 . S
C1608 C1605 1.363 . S
C1608 N1606 1.356 . S
C1609 C1603 1.363 . S
C1609 C1604 1.379 . S
C1609 N1607 1.356 . S
N1610 C1602 1.356 . S
N1610 H1616 0.984 . S
N1610 H1617 0.984 . S
N1611 C1604 1.356 . S
N1611 H1614 0.984 . S
N1611 H1615 0.985 . S
H1612 N1607 0.984 . S
H1613 N1607 0.985 . S
H1614 N1611 0.984 . S
H1615 N1611 0.985 . S
H1616 N1610 0.984 . S
H1617 N1610 0.984 . S
H1618 N1606 0.984 . S
H1619 N1606 0.985 . S
C1620 C1621 1.363 . S
C1620 C1626 1.379 . S
C1620 N1628 1.356 . S
C1621 C1620 1.363 . S
C1621 C1627 1.363 . S
C1622 C1623 1.363 . S
C1622 C1627 1.379 . S
C1622 N1629 1.356 . S
C1623 C1622 1.363 . S
C1623 C1626 1.363 . S
N1624 C1626 1.356 . S
N1624 H1636 0.984 . S
N1624 H1637 0.985 . S
N1625 C1627 1.356 . S
N1625 H1630 0.984 . S
N1625 H1631 0.985 . S
C1626 C1620 1.379 . S
C1626 C1623 1.363 . S
C1626 N1624 1.356 . S
C1627 C1621 1.363 . S
C1627 C1622 1.379 . S
C1627 N1625 1.356 . S
N1628 C1620 1.356 . S
N1628 H1634 0.984 . S
N1628 H1635 0.984 . S
N1629 C1622 1.356 . S
N1629 H1632 0.984 . S
N1629 H1633 0.985 . S
H1630 N1625 0.984 . S
H1631 N1625 0.985 . S
H1632 N1629 0.984 . S
H1633 N1629 0.985 . S
H1634 N1628 0.984 . S
H1635 N1628 0.984 . S
H1636 N1624 0.984 . S
H1637 N1624 0.985 . S
C1638 C1639 1.363 . S
C1638 C1644 1.379 . S
C1638 N1646 1.356 . S
C1639 C1638 1.363 . S
C1639 C1645 1.363 . S
C1640 C1641 1.363 . S
C1640 C1645 1.379 . S
C1640 N1647 1.356 1_554 S
C1641 C1640 1.363 . S
C1641 C1644 1.363 . S
N1642 C1644 1.356 . S
N1642 H1654 0.984 . S
N1642 H1655 0.985 . S
N1643 C1645 1.356 1_556 S
N1643 H1648 0.984 . S
N1643 H1649 0.985 . S
C1644 C1638 1.379 . S
C1644 C1641 1.363 . S
C1644 N1642 1.356 . S
C1645 C1639 1.363 . S
C1645 C1640 1.379 . S
C1645 N1643 1.356 1_554 S
N1646 C1638 1.356 . S
N1646 H1652 0.984 . S
N1646 H1653 0.984 . S
N1647 C1640 1.356 1_556 S
N1647 H1650 0.984 . S
N1647 H1651 0.985 . S
H1648 N1643 0.984 . S
H1649 N1643 0.985 . S
H1650 N1647 0.984 . S
H1651 N1647 0.985 . S
H1652 N1646 0.984 . S
H1653 N1646 0.984 . S
H1654 N1642 0.984 . S
H1655 N1642 0.985 . S
C1656 C1657 1.363 . S
C1656 C1662 1.379 . S
C1656 N1664 1.356 1_554 S
C1657 C1656 1.363 . S
C1657 C1663 1.363 . S
C1658 C1659 1.363 . S
C1658 C1663 1.379 . S
C1658 N1665 1.356 . S
C1659 C1658 1.363 . S
C1659 C1662 1.363 . S
N1660 C1662 1.356 1_556 S
N1660 H1672 0.984 . S
N1660 H1673 0.985 . S
N1661 C1663 1.356 . S
N1661 H1666 0.984 . S
N1661 H1667 0.985 . S
C1662 C1656 1.379 . S
C1662 C1659 1.363 . S
C1662 N1660 1.356 1_554 S
C1663 C1657 1.363 . S
C1663 C1658 1.379 . S
C1663 N1661 1.356 . S
N1664 C1656 1.356 1_556 S
N1664 H1670 0.984 . S
N1664 H1671 0.984 . S
N1665 C1658 1.356 . S
N1665 H1668 0.984 . S
N1665 H1669 0.985 . S
H1666 N1661 0.984 . S
H1667 N1661 0.985 . S
H1668 N1665 0.984 . S
H1669 N1665 0.985 . S
H1670 N1664 0.984 . S
H1671 N1664 0.984 . S
H1672 N1660 0.984 . S
H1673 N1660 0.985 . S
C1674 C1675 1.363 . S
C1674 C1680 1.379 . S
C1674 N1682 1.356 . S
C1675 C1674 1.363 . S
C1675 C1681 1.363 . S
C1676 C1677 1.363 . S
C1676 C1681 1.379 . S
C1676 N1683 1.356 1_554 S
C1677 C1676 1.363 . S
C1677 C1680 1.363 . S
N1678 C1680 1.356 . S
N1678 H1690 0.984 . S
N1678 H1691 0.985 . S
N1679 C1681 1.356 1_556 S
N1679 H1684 0.984 . S
N1679 H1685 0.985 . S
C1680 C1674 1.379 . S
C1680 C1677 1.363 . S
C1680 N1678 1.356 . S
C1681 C1675 1.363 . S
C1681 C1676 1.379 . S
C1681 N1679 1.356 1_554 S
N1682 C1674 1.356 . S
N1682 H1688 0.984 . S
N1682 H1689 0.984 . S
N1683 C1676 1.356 1_556 S
N1683 H1686 0.984 . S
N1683 H1687 0.985 . S
H1684 N1679 0.984 . S
H1685 N1679 0.985 . S
H1686 N1683 0.984 . S
H1687 N1683 0.985 . S
H1688 N1682 0.984 . S
H1689 N1682 0.984 . S
H1690 N1678 0.984 . S
H1691 N1678 0.985 . S
C1692 C1693 1.363 . S
C1692 C1698 1.379 . S
C1692 N1700 1.356 . S
C1693 C1692 1.363 . S
C1693 C1699 1.363 . S
C1694 C1695 1.363 . S
C1694 C1699 1.379 . S
C1694 N1701 1.356 1_556 S
C1695 C1694 1.363 . S
C1695 C1698 1.363 . S
N1696 C1698 1.356 . S
N1696 H1708 0.984 . S
N1696 H1709 0.985 . S
N1697 C1699 1.356 1_554 S
N1697 H1702 0.984 . S
N1697 H1703 0.985 . S
C1698 C1692 1.379 . S
C1698 C1695 1.363 . S
C1698 N1696 1.356 . S
C1699 C1693 1.363 . S
C1699 C1694 1.379 . S
C1699 N1697 1.356 1_556 S
N1700 C1692 1.356 . S
N1700 H1706 0.984 . S
N1700 H1707 0.984 . S
N1701 C1694 1.356 1_554 S
N1701 H1704 0.984 . S
N1701 H1705 0.985 . S
H1702 N1697 0.984 . S
H1703 N1697 0.985 . S
H1704 N1701 0.984 . S
H1705 N1701 0.985 . S
H1706 N1700 0.984 . S
H1707 N1700 0.984 . S
H1708 N1696 0.984 . S
H1709 N1696 0.985 . S
C1710 C1711 1.363 . S
C1710 C1716 1.379 . S
C1710 N1718 1.356 . S
C1711 C1710 1.363 . S
C1711 C1717 1.363 . S
C1712 C1713 1.363 . S
C1712 C1717 1.379 . S
C1712 N1719 1.356 1_556 S
C1713 C1712 1.363 . S
C1713 C1716 1.363 . S
N1714 C1716 1.356 . S
N1714 H1726 0.984 . S
N1714 H1727 0.985 . S
N1715 C1717 1.356 1_554 S
N1715 H1720 0.984 . S
N1715 H1721 0.985 . S
C1716 C1710 1.379 . S
C1716 C1713 1.363 . S
C1716 N1714 1.356 . S
C1717 C1711 1.363 . S
C1717 C1712 1.379 . S
C1717 N1715 1.356 1_556 S
N1718 C1710 1.356 . S
N1718 H1724 0.984 . S
N1718 H1725 0.984 . S
N1719 C1712 1.356 1_554 S
N1719 H1722 0.984 . S
N1719 H1723 0.985 . S
H1720 N1715 0.984 . S
H1721 N1715 0.985 . S
H1722 N1719 0.984 . S
H1723 N1719 0.985 . S
H1724 N1718 0.984 . S
H1725 N1718 0.984 . S
H1726 N1714 0.984 . S
H1727 N1714 0.985 . S
C1728 C1729 1.363 . S
C1728 C1734 1.379 . S
C1728 N1736 1.356 . S
C1729 C1728 1.363 . S
C1729 C1735 1.363 . S
C1730 C1731 1.363 . S
C1730 C1735 1.379 . S
C1730 N1737 1.356 . S
C1731 C1730 1.363 . S
C1731 C1734 1.363 . S
N1732 C1734 1.356 . S
N1732 H1744 0.984 1_556 S
N1732 H1745 0.985 . S
N1733 C1735 1.356 . S
N1733 H1738 0.984 . S
N1733 H1739 0.985 . S
C1734 C1728 1.379 . S
C1734 C1731 1.363 . S
C1734 N1732 1.356 . S
C1735 C1729 1.363 . S
C1735 C1730 1.379 . S
C1735 N1733 1.356 . S
N1736 C1728 1.356 . S
N1736 H1742 0.984 1_556 S
N1736 H1743 0.984 . S
N1737 C1730 1.356 . S
N1737 H1740 0.984 . S
N1737 H1741 0.985 . S
H1738 N1733 0.984 . S
H1739 N1733 0.985 . S
H1740 N1737 0.984 . S
H1741 N1737 0.985 . S
H1742 N1736 0.984 1_554 S
H1743 N1736 0.984 . S
H1744 N1732 0.984 1_554 S
H1745 N1732 0.985 . S
C1746 C1747 1.363 . S
C1746 C1752 1.379 . S
C1746 N1754 1.356 . S
C1747 C1746 1.363 . S
C1747 C1753 1.363 . S
C1748 C1749 1.363 . S
C1748 C1753 1.379 . S
C1748 N1755 1.356 . S
C1749 C1748 1.363 . S
C1749 C1752 1.363 . S
N1750 C1752 1.356 . S
N1750 H1762 0.984 . S
N1750 H1763 0.985 . S
N1751 C1753 1.356 . S
N1751 H1756 0.984 . S
N1751 H1757 0.985 . S
C1752 C1746 1.379 . S
C1752 C1749 1.363 . S
C1752 N1750 1.356 . S
C1753 C1747 1.363 . S
C1753 C1748 1.379 . S
C1753 N1751 1.356 . S
N1754 C1746 1.356 . S
N1754 H1760 0.984 . S
N1754 H1761 0.984 . S
N1755 C1748 1.356 . S
N1755 H1758 0.984 . S
N1755 H1759 0.985 . S
H1756 N1751 0.984 . S
H1757 N1751 0.985 . S
H1758 N1755 0.984 . S
H1759 N1755 0.985 . S
H1760 N1754 0.984 . S
H1761 N1754 0.984 . S
H1762 N1750 0.984 . S
H1763 N1750 0.985 . S
C1764 C1765 1.363 . S
C1764 C1770 1.379 . S
C1764 N1772 1.356 . S
C1765 C1764 1.363 . S
C1765 C1771 1.363 . S
C1766 C1767 1.363 . S
C1766 C1771 1.379 . S
C1766 N1773 1.356 . S
C1767 C1766 1.363 . S
C1767 C1770 1.363 . S
N1768 C1770 1.356 . S
N1768 H1780 0.984 . S
N1768 H1781 0.985 . S
N1769 C1771 1.356 . S
N1769 H1774 0.984 . S
N1769 H1775 0.985 . S
C1770 C1764 1.379 . S
C1770 C1767 1.363 . S
C1770 N1768 1.356 . S
C1771 C1765 1.363 . S
C1771 C1766 1.379 . S
C1771 N1769 1.356 . S
N1772 C1764 1.356 . S
N1772 H1778 0.984 . S
N1772 H1779 0.984 . S
N1773 C1766 1.356 . S
N1773 H1776 0.984 . S
N1773 H1777 0.985 . S
H1774 N1769 0.984 . S
H1775 N1769 0.985 . S
H1776 N1773 0.984 . S
H1777 N1773 0.985 . S
H1778 N1772 0.984 . S
H1779 N1772 0.984 . S
H1780 N1768 0.984 . S
H1781 N1768 0.985 . S
C1782 C1783 1.363 . S
C1782 C1788 1.379 . S
C1782 N1790 1.356 . S
C1783 C1782 1.363 . S
C1783 C1789 1.363 . S
C1784 C1785 1.363 . S
C1784 C1789 1.379 . S
C1784 N1791 1.356 . S
C1785 C1784 1.363 . S
C1785 C1788 1.363 . S
N1786 C1788 1.356 . S
N1786 H1798 0.984 . S
N1786 H1799 0.985 . S
N1787 C1789 1.356 . S
N1787 H1792 0.984 . S
N1787 H1793 0.985 . S
C1788 C1782 1.379 . S
C1788 C1785 1.363 . S
C1788 N1786 1.356 . S
C1789 C1783 1.363 . S
C1789 C1784 1.379 . S
C1789 N1787 1.356 . S
N1790 C1782 1.356 . S
N1790 H1796 0.984 . S
N1790 H1797 0.984 . S
N1791 C1784 1.356 . S
N1791 H1794 0.984 . S
N1791 H1795 0.985 . S
H1792 N1787 0.984 . S
H1793 N1787 0.985 . S
H1794 N1791 0.984 . S
H1795 N1791 0.985 . S
H1796 N1790 0.984 . S
H1797 N1790 0.984 . S
H1798 N1786 0.984 . S
H1799 N1786 0.985 . S
C505 C81 1.490 . S
C507 C11 1.490 . S
C523 C53 1.490 . S
C525 C25 1.490 . S
C541 C39 1.489 . S
C543 C67 1.489 . S
C559 C95 1.490 . S
C561 C165 1.490 . S
C577 C109 1.490 . S
C579 C137 1.490 . S
C595 C151 1.489 . S
C597 C123 1.489 . S
C613 C179 1.490 . S
C615 C249 1.490 . S
C631 C193 1.490 . S
C633 C221 1.490 . S
C649 C207 1.490 . S
C651 C235 1.490 . S
C667 C333 1.490 . S
C669 C263 1.490 . S
C685 C277 1.490 . S
C687 C305 1.490 . S
C703 C319 1.490 . S
C705 C291 1.490 . S
C721 C417 1.490 . S
C723 C347 1.490 . S
C739 C389 1.490 . S
C741 C361 1.490 . S
C757 C403 1.490 . S
C759 C375 1.490 . S
C775 C431 1.490 . S
C777 C501 1.490 . S
C793 C445 1.490 . S
C795 C473 1.490 . S
C811 C459 1.490 . S
C813 C487 1.490 . S
C829 C79 1.593 . S
C831 C9 1.593 . S
C847 C23 1.593 . S
C849 C51 1.593 . S
C865 C65 1.593 . S
C867 C37 1.593 . S
C883 C93 1.593 . S
C885 C163 1.593 . S
C901 C107 1.593 . S
C903 C135 1.593 . S
C919 C149 1.593 . S
C921 C121 1.593 . S
C937 C177 1.593 . S
C939 C247 1.593 . S
C955 C219 1.593 . S
C957 C191 1.593 . S
C973 C233 1.593 . S
C975 C205 1.593 . S
C991 C261 1.593 . S
C993 C331 1.593 . S
C1009 C275 1.593 . S
C1011 C303 1.593 . S
C1027 C317 1.593 . S
C1029 C289 1.593 . S
C1045 C415 1.593 . S
C1047 C345 1.593 . S
C1063 C359 1.593 . S
C1065 C387 1.593 . S
C1081 C373 1.593 . S
C1083 C401 1.593 . S
C1099 C499 1.593 . S
C1101 C429 1.593 . S
C1117 C471 1.593 . S
C1119 C443 1.593 . S
C1135 C485 1.593 . S
C1137 C457 1.593 . S
C1153 C229 1.611 . S
C1155 C5 1.611 . S
C1171 C243 1.611 . S
C1173 C19 1.611 . S
C1189 C215 1.611 . S
C1191 C33 1.611 . S
C1207 C47 1.611 . S
C1209 C369 1.611 . S
C1225 C61 1.611 . S
C1227 C341 1.611 . S
C1243 C75 1.611 . S
C1245 C355 1.611 . S
C1261 C89 1.611 . S
C1263 C481 1.611 . S
C1279 C103 1.611 . S
C1281 C495 1.611 . S
C1297 C117 1.611 . S
C1299 C467 1.611 . S
C1315 C131 1.611 . S
C1317 C285 1.611 . S
C1333 C257 1.611 . S
C1335 C145 1.611 . S
C1351 C271 1.611 . S
C1353 C159 1.611 . S
C1369 C397 1.611 . S
C1371 C173 1.611 . S
C1387 C187 1.611 . S
C1389 C411 1.611 . S
C1405 C201 1.611 . S
C1407 C383 1.611 . S
C1423 C299 1.611 . S
C1425 C453 1.611 . S
C1441 C313 1.611 . S
C1443 C425 1.611 . S
C1459 C439 1.611 . S
C1461 C327 1.611 . S
C1477 C0 1.371 . S
C1479 C140 1.371 . S
C1495 C154 1.371 . S
C1497 C14 1.371 . S
C1513 C126 1.371 . S
C1515 C28 1.371 . S
C1531 C42 1.371 . S
C1533 C112 1.371 . S
C1549 C56 1.371 . S
C1551 C84 1.371 . S
C1567 C70 1.371 . S
C1569 C98 1.371 . S
C1585 C168 1.371 . S
C1587 C308 1.371 . S
C1603 C322 1.371 . S
C1605 C182 1.371 . S
C1621 C294 1.371 . S
C1623 C196 1.371 . S
C1639 C210 1.371 . S
C1641 C280 1.371 . S
C1657 C224 1.371 . S
C1659 C252 1.371 . S
C1675 C266 1.371 . S
C1677 C238 1.371 . S
C1693 C336 1.371 . S
C1695 C476 1.371 . S
C1711 C490 1.371 . S
C1713 C350 1.371 . S
C1729 C364 1.371 . S
C1731 C462 1.371 . S
C1747 C378 1.371 . S
C1749 C448 1.371 . S
C1765 C420 1.371 . S
C1767 C392 1.371 . S
C1783 C406 1.371 . S
C1785 C434 1.371 . S
