# Generated by pormake.
# Topology kag, (6)-cn, num edge types: 1
# Building blocks:
#     Node 0, Type 0, BuildingBlock: UKALOJ_clean_sbu_0, # of connection points: 6
#     Node 1, Type 0, BuildingBlock: UKALOJ_clean_sbu_0, # of connection points: 6
#     Node 2, Type 0, BuildingBlock: UKALOJ_clean_sbu_0, # of connection points: 6
#     Edge 3, Type (0, 0), BuildingBlock: FUNLAD_clean_linker_0, # of connection points: 2
#     Edge 4, Type (0, 0), BuildingBlock: FUNLAD_clean_linker_0, # of connection points: 2
#     Edge 5, Type (0, 0), BuildingBlock: FUNLAD_clean_linker_0, # of connection points: 2
#     Edge 6, Type (0, 0), BuildingBlock: FUNLAD_clean_linker_0, # of connection points: 2
#     Edge 7, Type (0, 0), BuildingBlock: FUNLAD_clean_linker_0, # of connection points: 2
#     Edge 8, Type (0, 0), BuildingBlock: FUNLAD_clean_linker_0, # of connection points: 2
#     Edge 9, Type (0, 0), BuildingBlock: FUNLAD_clean_linker_0, # of connection points: 2
#     Edge 10, Type (0, 0), BuildingBlock: FUNLAD_clean_linker_0, # of connection points: 2
#     Edge 11, Type (0, 0), BuildingBlock: FUNLAD_clean_linker_0, # of connection points: 2
# Relax obj value: 0.129
# Max RMSD: 0.168
# Mean RMSD: 0.168
data_MOF--net-kag--node1-UKALOJ_clean_sbu_0--edge1-FUNLAD_clean_linker_0
_symmetry_space_group_name_H-M    P1
_symmetry_Int_Tables_number       1
_symmetry_cell_setting            triclinic
loop_
_symmetry_equiv_pos_as_xyz
'x, y, z'
_cell_length_a     33.694204
_cell_length_b     33.915587
_cell_length_c     22.772401
_cell_angle_alpha  89.457794
_cell_angle_beta   89.710223
_cell_angle_gamma 120.54365
loop_
_atom_site_label
_atom_site_type_symbol
_atom_site_fract_x
_atom_site_fract_y
_atom_site_fract_z
_atom_type_partial_charge
Zn0 Zn -0.00822 0.44259 0.97134 0.0
O1 O 0.0414 0.51167 0.95093 0.0
C2 C 0.06394 0.42475 1.01028 0.0
Zn3 Zn 0.00372 0.45545 0.06713 0.0
C4 C 0.06226 0.53875 0.99281 0.0
O5 O 0.05369 0.52353 0.04532 0.0
C6 C 0.93092 0.3601 0.04634 0.0
O7 O 0.95423 0.47614 0.07305 0.0
O8 O 0.94187 0.46171 0.97902 0.0
N9 N 0.0204 0.46949 0.15363 0.0
C10 C -0.00467 0.45437 0.20374 0.0
C11 C 0.06522 0.49905 0.22778 0.0
N12 N 0.06377 0.49733 0.16872 0.0
N13 N 0.02275 0.47216 0.25087 0.0
C14 C 0.00061 0.44491 0.83489 0.0
C15 C 0.93132 0.39827 0.81027 0.0
N16 N 0.97543 0.42869 0.88479 0.0
N17 N 0.93243 0.39966 0.86935 0.0
N18 N 0.97362 0.42657 0.78751 0.0
H19 H 0.06816 0.4732 0.87298 0.0
H20 H 0.05931 0.51244 0.82955 0.0
H21 H 0.06713 0.46973 0.79384 0.0
C22 C 0.05181 0.47666 0.8328 0.0
C23 C 0.94395 0.42425 0.20632 0.0
H24 H 0.92795 0.4274 0.16558 0.0
H25 H 0.92952 0.43304 0.24456 0.0
H26 H 0.93511 0.38817 0.21154 0.0
O27 O 0.95264 0.38721 0.08784 0.0
O28 O 0.94142 0.37425 0.99348 0.0
C29 C 0.93309 0.47525 0.02653 0.0
O30 O 0.04226 0.42404 0.9645 0.0
O31 O 0.05395 0.43571 0.05908 0.0
Zn32 Zn 0.44299 0.0056 0.97624 0.0
O33 O 0.45947 0.95395 0.96633 0.0
C34 C 0.34755 0.93813 1.00288 0.0
Zn35 Zn 0.43433 -0.00594 0.07348 0.0
C36 C 0.45957 0.93213 1.01194 0.0
O37 O 0.4493 0.94157 0.06157 0.0
C38 C 0.4196 0.06887 0.03854 0.0
O39 O 0.50524 0.03986 0.09032 0.0
O40 O 0.5125 0.05141 0.99486 0.0
N41 N 0.41998 0.97551 0.16053 0.0
C42 C 0.43487 -0.0016 0.21141 0.0
C43 C 0.38397 0.92952 0.23327 0.0
N44 N 0.38848 0.93274 0.1744 0.0
N45 N 0.41277 0.97018 0.25776 0.0
C46 C 0.44324 0.00147 0.83824 0.0
C47 C 0.49256 0.07093 0.81668 0.0
N48 N 0.45735 0.02435 0.88922 0.0
N49 N 0.48788 0.06748 0.87553 0.0
N50 N 0.46483 0.03006 0.79203 0.0
H51 H 0.41011 0.93297 0.8751 0.0
H52 H 0.41964 0.93662 0.79644 0.0
H53 H 0.37513 0.94483 0.82731 0.0
C54 C 0.41039 0.95097 0.83416 0.0
C55 C 0.46903 0.04863 0.2152 0.0
H56 H 0.46968 0.06686 0.17431 0.0
H57 H 0.50391 0.0536 0.22152 0.0
H58 H 0.4608 0.06369 0.25306 0.0
O59 O 0.41997 0.04704 0.08394 0.0
O60 O 0.42733 0.05788 0.98833 0.0
C61 C 0.53062 0.05911 0.04534 0.0
O62 O 0.37355 0.95854 0.95886 0.0
O63 O 0.36408 0.94767 0.05433 0.0
Zn64 Zn 0.55036 0.56118 0.04634 0.0
O65 O 0.53143 0.49182 0.05616 0.0
C66 C 0.64589 0.58784 0.01931 0.0
Zn67 Zn 0.56012 0.55967 0.94994 0.0
C68 C 0.53145 0.47046 1.01063 0.0
O69 O 0.54295 0.49128 0.9613 0.0
C70 C 0.57739 0.64981 0.98474 0.0
O71 O 0.4897 0.53657 0.934 0.0
O72 O 0.4812 0.53982 0.02902 0.0
N73 N 0.57258 0.55582 0.8631 0.0
C74 C 0.55546 0.56325 0.81358 0.0
C75 C 0.60377 0.54348 0.78795 0.0
N76 N 0.60258 0.54358 0.84704 0.0
N77 N 0.57433 0.55547 0.76583 0.0
C78 C 0.55377 0.55672 0.1829 0.0
C79 C 0.50751 0.57925 0.20784 0.0
N80 N 0.53779 0.56524 0.13313 0.0
N81 N 0.50904 0.57919 0.14877 0.0
N82 N 0.53547 0.56553 0.23037 0.0
H83 H 0.57711 0.51463 0.22379 0.0
H84 H 0.62125 0.56616 0.18848 0.0
H85 H 0.58246 0.51839 0.14462 0.0
C86 C 0.5852 0.53755 0.18491 0.0
C87 C 0.52231 0.58041 0.81216 0.0
H88 H 0.48664 0.55073 0.81068 0.0
H89 H 0.52841 0.6022 0.77261 0.0
H90 H 0.52535 0.60027 0.85186 0.0
O91 O 0.57687 0.62803 0.93946 0.0
O92 O 0.5684 0.63005 0.03479 0.0
C93 C 0.46397 0.53099 0.97804 0.0
O94 O 0.61962 0.58201 0.06278 0.0
O95 O 0.62987 0.58168 0.96764 0.0
C96 C 0.96553 0.39916 0.68621 0.0
C97 C 0.98493 0.43537 0.72601 0.0
C98 C 0.97445 0.40753 0.626 0.0
C99 C 0.00251 0.45257 0.60432 0.0
C100 C 0.02225 0.48866 0.64435 0.0
C101 C 0.01321 0.48024 0.70452 0.0
C102 C 0.01259 0.46327 0.54066 0.0
C103 C 0.98447 0.43651 0.498 0.0
C104 C -0.00556 0.44705 0.43427 0.0
C105 C 0.97374 0.41093 0.39437 0.0
C106 C 0.98255 0.4191 0.33415 0.0
C107 C 0.01163 0.46374 0.31245 0.0
H108 H 0.03884 0.52094 0.44127 0.0
C109 C 0.03204 0.49999 0.3521 0.0
C110 C 0.02331 0.49189 0.41238 0.0
H111 H 0.05458 0.53468 0.33623 0.0
H112 H 0.94364 0.3643 0.7019 0.0
H113 H 0.95973 0.37855 0.59696 0.0
H114 H 0.04399 0.52365 0.62892 0.0
H115 H 0.02736 0.50895 0.73397 0.0
H116 H 0.04403 0.49485 0.52909 0.0
H117 H 0.95301 0.40498 0.5097 0.0
H118 H 0.95138 0.37608 0.40994 0.0
H119 H 0.96764 0.39031 0.30481 0.0
C120 C 0.45869 0.00492 0.34711 0.0
C121 C 0.41585 0.97932 0.31973 0.0
C122 C 0.46111 0.01095 0.40806 0.0
C123 C 0.42061 -0.0089 0.4429 0.0
C124 C 0.37788 0.96623 0.41507 0.0
C125 C 0.37554 0.96006 0.35436 0.0
C126 C 0.42106 -0.00408 0.50795 0.0
C127 C 0.45738 0.00489 0.5418 0.0
C128 C 0.4577 0.00963 0.60684 0.0
C129 C 0.5003 0.03521 0.63474 0.0
C130 C 0.50243 0.04126 0.69548 0.0
C131 C 0.46206 0.02111 0.73003 0.0
H132 H 0.38367 0.96792 0.62221 0.0
C133 C 0.41937 -0.00521 0.70257 0.0
C134 C 0.41715 0.98892 0.64159 0.0
H135 H 0.38768 0.97966 0.72799 0.0
H136 H 0.49032 0.01935 0.32165 0.0
H137 H 0.49473 0.03139 0.42734 0.0
H138 H 0.34611 0.95084 0.44052 0.0
H139 H 0.34211 0.94011 0.33426 0.0
H140 H 0.38967 -0.00906 0.52847 0.0
H141 H 0.48882 0.00994 0.52137 0.0
H142 H 0.5321 0.05126 0.60933 0.0
H143 H 0.53574 0.06178 0.71566 0.0
C144 C 0.60306 0.57724 0.66438 0.0
C145 C 0.56604 0.55826 0.70454 0.0
C146 C 0.59536 0.5784 0.60437 0.0
C147 C 0.5502 0.55985 0.58323 0.0
C148 C 0.51326 0.54131 0.62361 0.0
C149 C 0.52104 0.54013 0.68363 0.0
C150 C 0.54028 0.55987 0.51977 0.0
C151 C 0.56824 0.56051 0.47675 0.0
C152 C 0.55853 0.56063 0.41321 0.0
C153 C 0.59554 0.57818 0.37299 0.0
C154 C 0.58809 0.57947 0.3129 0.0
C155 C 0.54332 0.5625 0.29175 0.0
H156 H 0.48389 0.52803 0.42095 0.0
C157 C 0.50621 0.54453 0.33172 0.0
C158 C 0.51358 0.54322 0.39182 0.0
H159 H 0.47139 0.5312 0.31623 0.0
H160 H 0.63805 0.5915 0.67967 0.0
H161 H 0.62493 0.59439 0.57507 0.0
H162 H 0.47817 0.52686 0.60856 0.0
H163 H 0.49178 0.52403 0.71343 0.0
H164 H 0.50834 0.55851 0.50868 0.0
H165 H 0.60012 0.56176 0.48799 0.0
H166 H 0.63048 0.59177 0.3882 0.0
H167 H 0.61745 0.59483 0.28324 0.0
C168 C 0.12314 0.41878 0.9506 0.0
C169 C 0.10389 0.41815 1.00579 0.0
C170 C 0.16544 0.4206 0.94661 0.0
C171 C 0.18908 0.42166 0.99783 0.0
C172 C 0.16801 0.4173 0.05271 0.0
C173 C 0.126 0.41591 0.05675 0.0
C174 C 0.23692 0.43057 0.99648 0.0
C175 C 0.26789 0.45632 0.95443 0.0
C176 C 0.31794 0.47414 0.96077 0.0
C177 C 0.33866 0.4845 0.01628 0.0
C178 C 0.38604 0.50332 0.02142 0.0
C179 C 0.41401 0.51249 0.97127 0.0
H180 H 0.33083 0.47719 0.86716 0.0
C181 C 0.39352 0.50278 0.91563 0.0
C182 C 0.3459 0.4841 0.91047 0.0
H183 H 0.41418 0.50958 0.87616 0.0
H184 H 0.10667 0.42004 0.91047 0.0
H185 H 0.1799 0.42227 0.90349 0.0
H186 H 0.18528 0.41747 0.09282 0.0
H187 H 0.11179 0.41491 0.09989 0.0
H188 H 0.24821 0.4197 0.03476 0.0
H189 H 0.25709 0.46702 0.91558 0.0
H190 H 0.31865 0.47923 0.05595 0.0
H191 H 0.4007 0.5107 0.06496 0.0
C192 C 0.60835 0.09729 0.99848 0.0
C193 C 0.58128 0.0872 0.04973 0.0
C194 C 0.65619 0.12197 1.00123 0.0
C195 C 0.67834 0.13802 0.05498 0.0
C196 C 0.65152 0.12788 0.10665 0.0
C197 C 0.60327 0.10237 0.10402 0.0
C198 C 0.72932 0.1662 0.05397 0.0
C199 C 0.75357 0.20049 0.09146 0.0
C200 C 0.80246 0.23636 0.0803 0.0
C201 C 0.82116 0.24778 0.02295 0.0
C202 C 0.8644 0.28637 1.01257 0.0
C203 C 0.88987 0.31475 0.05902 0.0
H204 H 0.81545 0.25549 0.17159 0.0
C205 C 0.87245 0.30195 0.11664 0.0
C206 C 0.82903 0.26333 0.12707 0.0
H207 H 0.89124 0.32293 0.15345 0.0
H208 H 0.59264 0.08567 0.95596 0.0
H209 H 0.67599 0.12927 0.96081 0.0
H210 H 0.66756 0.13901 0.14903 0.0
H211 H 0.58326 0.09465 0.14428 0.0
H212 H 0.74682 0.16147 0.01694 0.0
H213 H 0.7364 0.20493 0.12913 0.0
H214 H 0.80162 0.22896 0.98521 0.0
H215 H 0.87671 0.29525 0.96761 0.0
C216 C 0.49247 0.89195 0.95587 0.0
C217 C 0.47454 0.89825 1.00848 0.0
C218 C 0.51001 0.86245 0.95429 0.0
C219 C 0.50993 0.8388 1.00548 0.0
C220 C 0.49072 0.84417 0.05741 0.0
C221 C 0.47338 0.87365 0.05903 0.0
C222 C 0.52814 0.80723 1.00696 0.0
C223 C 0.55727 0.80666 0.96674 0.0
C224 C 0.57169 0.7722 0.97071 0.0
C225 C 0.57395 0.75066 0.91962 0.0
C226 C 0.57909 0.71235 0.92365 0.0
C227 C 0.58237 0.69542 0.97892 0.0
H228 H 0.57995 0.77525 0.06537 0.0
C229 C 0.58466 0.71982 0.02948 0.0
C230 C 0.57958 0.758 0.0254 0.0
H231 H 0.58812 0.70817 0.07258 0.0
H232 H 0.49358 0.91029 0.9161 0.0
H233 H 0.52314 0.8582 0.91289 0.0
H234 H 0.48971 0.82596 0.09729 0.0
H235 H 0.45961 0.87757 0.10023 0.0
H236 H 0.51676 0.78304 0.04366 0.0
H237 H 0.56835 0.8293 0.92861 0.0
H238 H 0.56871 0.76158 0.87695 0.0
H239 H 0.57765 0.69447 0.88382 0.0
C240 C 0.89438 0.51308 0.07542 0.0
C241 C 0.90042 0.49207 0.02602 0.0
C242 C 0.86545 0.53145 0.07284 0.0
C243 C 0.84209 0.52907 0.02064 0.0
C244 C 0.84758 0.50721 0.97193 0.0
C245 C 0.87641 0.48904 0.97446 0.0
C246 C 0.81048 0.54722 0.01469 0.0
C247 C 0.80708 0.57565 0.05257 0.0
C248 C 0.77165 0.58867 0.04446 0.0
C249 C 0.74679 0.58973 0.09334 0.0
C250 C 0.70738 0.5929 0.08557 0.0
C251 C 0.69254 0.59534 0.02873 0.0
H252 H 0.77932 0.59724 0.94969 0.0
C253 C 0.72027 0.5991 0.98028 0.0
C254 C 0.75957 0.59598 0.98808 0.0
H255 H 0.71035 0.60199 0.93599 0.0
H256 H 0.91237 0.5158 0.11583 0.0
H257 H 0.86141 0.54696 0.11192 0.0
H258 H 0.82973 0.50445 0.93134 0.0
H259 H 0.88014 0.47295 0.93561 0.0
H260 H 0.78802 0.5357 0.97679 0.0
H261 H 0.8275 0.58663 0.09211 0.0
H262 H 0.756 0.58498 0.13728 0.0
H263 H 0.68717 0.59068 0.12385 0.0
C264 C 0.11009 0.61854 0.02874 0.0
C265 C 0.09376 0.58816 0.98148 0.0
C266 C 0.13766 0.66552 0.01876 0.0
C267 C 0.14959 0.6833 0.9612 0.0
C268 C 0.13438 0.65297 0.91396 0.0
C269 C 0.10628 0.6058 0.92392 0.0
C270 C 0.18069 0.73299 0.95017 0.0
C271 C 0.18128 0.76485 0.98565 0.0
C272 C 0.21926 0.81325 0.98528 0.0
C273 C 0.2304 0.83689 0.03848 0.0
C274 C 0.27078 0.87923 0.04328 0.0
C275 C 0.30047 0.89908 0.99462 0.0
H276 H 0.23837 0.81845 0.89299 0.0
C277 C 0.28711 0.87754 0.93994 0.0
C278 C 0.24684 0.83489 0.93527 0.0
H279 H 0.30905 0.89224 0.90148 0.0
H280 H 0.10131 0.60613 0.07366 0.0
H281 H 0.15031 0.6877 0.05639 0.0
H282 H 0.14388 0.66583 0.86929 0.0
H283 H 0.09435 0.58327 0.88661 0.0
H284 H 0.20522 0.74291 0.91407 0.0
H285 H 0.15595 0.75406 0.02103 0.0
H286 H 0.20937 0.82127 0.07748 0.0
H287 H 0.27986 0.89527 0.08587 0.0
C288 C 0.49873 0.39615 0.06649 0.0
C289 C 0.51621 0.42131 0.01385 0.0
C290 C 0.48209 0.34905 0.06808 0.0
C291 C 0.48263 0.32636 0.01687 0.0
C292 C 0.501 0.35185 0.96479 0.0
C293 C 0.51746 0.3987 0.96317 0.0
C294 C 0.46596 0.27667 0.01544 0.0
C295 C 0.43843 0.24581 0.05643 0.0
C296 C 0.42544 0.19717 0.05234 0.0
C297 C 0.42381 0.17296 0.10341 0.0
C298 C 0.41905 0.12966 0.09944 0.0
C299 C 0.41552 0.10994 0.04423 0.0
H300 H 0.41679 0.19271 0.95772 0.0
C301 C 0.41305 0.13255 0.99366 0.0
C302 C 0.41772 0.17566 0.99769 0.0
H303 H 0.40939 0.11783 0.95061 0.0
H304 H 0.49755 0.41273 0.10634 0.0
H305 H 0.46946 0.33101 0.10956 0.0
H306 H 0.50226 0.33538 0.92484 0.0
H307 H 0.53084 0.41708 0.92191 0.0
H308 H 0.47733 0.265 0.97814 0.0
H309 H 0.42754 0.2563 0.09519 0.0
H310 H 0.42894 0.18863 0.14608 0.0
H311 H 0.42065 0.11283 0.13928 0.0
loop_
_geom_bond_atom_site_label_1
_geom_bond_atom_site_label_2
_geom_bond_distance
_geom_bond_site_symmetry_2
_ccdc_geom_bond_type
Zn0 O1 2.055 . S
Zn0 O8 2.046 1_455 S
Zn0 N16 2.036 . S
Zn0 O28 2.053 1_455 S
Zn0 O30 2.066 . S
O1 Zn0 2.055 . S
O1 C4 1.259 . S
C2 O30 1.256 . S
C2 O31 1.244 1_556 S
Zn3 O5 2.046 . S
Zn3 O7 2.055 1_455 S
Zn3 N9 2.036 . S
Zn3 O27 2.066 1_455 S
Zn3 O31 2.053 . S
C4 O1 1.259 . S
C4 O5 1.254 1_556 S
O5 Zn3 2.046 . S
O5 C4 1.254 1_554 S
C6 O27 1.256 . S
C6 O28 1.244 1_554 S
O7 Zn3 2.055 1_655 S
O7 C29 1.259 . S
O8 Zn0 2.046 1_655 S
O8 C29 1.254 1_556 S
N9 Zn3 2.036 . S
N9 C10 1.298 1_455 S
N9 N12 1.398 . S
C10 N9 1.298 1_655 S
C10 N13 1.367 1_655 S
C10 C23 1.481 . S
C11 N12 1.299 . S
C11 N13 1.379 . S
N12 N9 1.398 . S
N12 C11 1.299 . S
N13 C10 1.367 1_455 S
N13 C11 1.379 . S
C14 N16 1.298 . S
C14 N18 1.367 . S
C14 C22 1.481 . S
C15 N17 1.299 . S
C15 N18 1.379 1_655 S
N16 Zn0 2.036 . S
N16 C14 1.298 . S
N16 N17 1.398 1_455 S
N17 C15 1.299 . S
N17 N16 1.398 1_655 S
N18 C14 1.367 . S
N18 C15 1.379 1_455 S
H19 C22 0.980 . S
H20 C22 0.981 . S
H21 C22 0.981 . S
C22 C14 1.481 . S
C22 H19 0.980 . S
C22 H20 0.981 . S
C22 H21 0.981 . S
C23 C10 1.481 . S
C23 H24 0.980 . S
C23 H25 0.981 . S
C23 H26 0.981 . S
H24 C23 0.980 . S
H25 C23 0.981 . S
H26 C23 0.981 . S
O27 Zn3 2.066 1_655 S
O27 C6 1.256 . S
O28 Zn0 2.053 1_655 S
O28 C6 1.244 1_556 S
C29 O7 1.259 . S
C29 O8 1.254 1_554 S
O30 Zn0 2.066 . S
O30 C2 1.256 . S
O31 C2 1.244 1_554 S
O31 Zn3 2.053 . S
Zn32 O33 2.055 1_545 S
Zn32 O40 2.046 . S
Zn32 N48 2.036 . S
Zn32 O60 2.053 . S
Zn32 O62 2.066 1_545 S
O33 Zn32 2.055 1_565 S
O33 C36 1.259 . S
C34 O62 1.256 . S
C34 O63 1.244 1_556 S
Zn35 O37 2.046 1_545 S
Zn35 O39 2.055 . S
Zn35 N41 2.036 . S
Zn35 O59 2.066 . S
Zn35 O63 2.053 1_545 S
C36 O33 1.259 . S
C36 O37 1.254 1_556 S
O37 Zn35 2.046 1_565 S
O37 C36 1.254 1_554 S
C38 O59 1.256 . S
C38 O60 1.244 1_554 S
O39 Zn35 2.055 . S
O39 C61 1.259 . S
O40 Zn32 2.046 . S
O40 C61 1.254 1_556 S
N41 Zn35 2.036 . S
N41 C42 1.298 . S
N41 N44 1.398 1_545 S
C42 N41 1.298 . S
C42 N45 1.367 . S
C42 C55 1.481 . S
C43 N44 1.299 . S
C43 N45 1.379 1_565 S
N44 N41 1.398 1_565 S
N44 C43 1.299 . S
N45 C42 1.367 . S
N45 C43 1.379 1_545 S
C46 N48 1.298 1_565 S
C46 N50 1.367 1_565 S
C46 C54 1.481 . S
C47 N49 1.299 . S
C47 N50 1.379 . S
N48 Zn32 2.036 . S
N48 C46 1.298 1_545 S
N48 N49 1.398 . S
N49 C47 1.299 . S
N49 N48 1.398 . S
N50 C46 1.367 1_545 S
N50 C47 1.379 . S
H51 C54 0.980 . S
H52 C54 0.981 . S
H53 C54 0.981 . S
C54 C46 1.481 . S
C54 H51 0.980 . S
C54 H52 0.981 . S
C54 H53 0.981 . S
C55 C42 1.481 . S
C55 H56 0.980 . S
C55 H57 0.981 . S
C55 H58 0.981 . S
H56 C55 0.980 . S
H57 C55 0.981 . S
H58 C55 0.981 . S
O59 Zn35 2.066 . S
O59 C38 1.256 . S
O60 Zn32 2.053 . S
O60 C38 1.244 1_556 S
C61 O39 1.259 . S
C61 O40 1.254 1_554 S
O62 Zn32 2.066 1_565 S
O62 C34 1.256 . S
O63 C34 1.244 1_554 S
O63 Zn35 2.053 1_565 S
Zn64 O65 2.055 . S
Zn64 O72 2.046 . S
Zn64 N80 2.036 . S
Zn64 O92 2.053 . S
Zn64 O94 2.066 . S
O65 Zn64 2.055 . S
O65 C68 1.259 . S
C66 O94 1.256 . S
C66 O95 1.244 1_554 S
Zn67 O69 2.046 . S
Zn67 O71 2.055 . S
Zn67 N73 2.036 . S
Zn67 O91 2.066 . S
Zn67 O95 2.053 . S
C68 O65 1.259 . S
C68 O69 1.254 1_554 S
O69 Zn67 2.046 . S
O69 C68 1.254 1_556 S
C70 O91 1.256 . S
C70 O92 1.244 1_556 S
O71 Zn67 2.055 . S
O71 C93 1.259 . S
O72 Zn64 2.046 . S
O72 C93 1.254 1_554 S
N73 Zn67 2.036 . S
N73 C74 1.298 . S
N73 N76 1.398 . S
C74 N73 1.298 . S
C74 N77 1.367 . S
C74 C87 1.481 . S
C75 N76 1.299 . S
C75 N77 1.379 . S
N76 N73 1.398 . S
N76 C75 1.299 . S
N77 C74 1.367 . S
N77 C75 1.379 . S
C78 N80 1.298 . S
C78 N82 1.367 . S
C78 C86 1.481 . S
C79 N81 1.299 . S
C79 N82 1.379 . S
N80 Zn64 2.036 . S
N80 C78 1.298 . S
N80 N81 1.398 . S
N81 C79 1.299 . S
N81 N80 1.398 . S
N82 C78 1.367 . S
N82 C79 1.379 . S
H83 C86 0.980 . S
H84 C86 0.981 . S
H85 C86 0.981 . S
C86 C78 1.481 . S
C86 H83 0.980 . S
C86 H84 0.981 . S
C86 H85 0.981 . S
C87 C74 1.481 . S
C87 H88 0.980 . S
C87 H89 0.981 . S
C87 H90 0.981 . S
H88 C87 0.980 . S
H89 C87 0.981 . S
H90 C87 0.981 . S
O91 Zn67 2.066 . S
O91 C70 1.256 . S
O92 Zn64 2.053 . S
O92 C70 1.244 1_554 S
C93 O71 1.259 . S
C93 O72 1.254 1_556 S
O94 Zn64 2.066 . S
O94 C66 1.256 . S
O95 C66 1.244 1_556 S
O95 Zn67 2.053 . S
C96 C97 1.386 1_655 S
C96 C98 1.383 . S
C96 H112 0.951 . S
C97 C96 1.386 1_455 S
C97 C101 1.383 . S
C98 C96 1.383 . S
C98 C99 1.402 1_655 S
C98 H113 0.951 . S
C99 C98 1.402 1_455 S
C99 C100 1.375 . S
C99 C102 1.481 . S
C100 C99 1.375 . S
C100 C101 1.367 . S
C100 H114 0.951 . S
C101 C97 1.383 . S
C101 C100 1.367 . S
C101 H115 0.950 . S
C102 C99 1.481 . S
C102 C103 1.297 1_455 S
C102 H116 0.950 . S
C103 C102 1.297 1_655 S
C103 C104 1.479 . S
C103 H117 0.950 . S
C104 C103 1.479 . S
C104 C105 1.375 . S
C104 C110 1.404 1_655 S
C105 C104 1.375 . S
C105 C106 1.369 . S
C105 H118 0.950 . S
C106 C105 1.369 . S
C106 C107 1.392 . S
C106 H119 0.951 . S
C107 C106 1.392 . S
C107 C109 1.384 1_655 S
H108 C110 0.949 . S
C109 C107 1.384 1_455 S
C109 C110 1.385 . S
C109 H111 0.950 . S
C110 C104 1.404 1_455 S
C110 H108 0.949 . S
C110 C109 1.385 . S
H111 C109 0.950 . S
H112 C96 0.951 . S
H113 C98 0.951 . S
H114 C100 0.951 . S
H115 C101 0.950 . S
H116 C102 0.950 . S
H117 C103 0.950 . S
H118 C105 0.950 . S
H119 C106 0.951 . S
C120 C121 1.386 . S
C120 C122 1.383 . S
C120 H136 0.951 . S
C121 C120 1.386 . S
C121 C125 1.383 1_545 S
C122 C120 1.383 . S
C122 C123 1.402 . S
C122 H137 0.951 . S
C123 C122 1.402 . S
C123 C124 1.375 1_545 S
C123 C126 1.479 1_545 S
C124 C123 1.375 1_565 S
C124 C125 1.367 . S
C124 H138 0.951 . S
C125 C121 1.383 1_565 S
C125 C124 1.367 . S
C125 H139 0.950 . S
C126 C123 1.479 1_565 S
C126 C127 1.291 1_565 S
C126 H140 0.958 . S
C127 C126 1.291 1_545 S
C127 C128 1.479 . S
C127 H141 0.950 . S
C128 C127 1.479 . S
C128 C129 1.375 . S
C128 C134 1.404 1_545 S
C129 C128 1.375 . S
C129 C130 1.369 . S
C129 H142 0.950 . S
C130 C129 1.369 . S
C130 C131 1.392 1_545 S
C130 H143 0.951 . S
C131 C130 1.392 1_565 S
C131 C133 1.384 . S
H132 C134 0.949 . S
C133 C131 1.384 . S
C133 C134 1.385 . S
C133 H135 0.950 . S
C134 C128 1.404 1_565 S
C134 H132 0.949 . S
C134 C133 1.385 . S
H135 C133 0.950 . S
H136 C120 0.951 . S
H137 C122 0.951 . S
H138 C124 0.951 . S
H139 C125 0.950 . S
H140 C126 0.958 . S
H141 C127 0.950 . S
H142 C129 0.950 . S
H143 C130 0.951 . S
C144 C145 1.386 . S
C144 C146 1.383 . S
C144 H160 0.951 . S
C145 C144 1.386 . S
C145 C149 1.383 . S
C146 C144 1.383 . S
C146 C147 1.402 . S
C146 H161 0.951 . S
C147 C146 1.402 . S
C147 C148 1.375 . S
C147 C150 1.481 . S
C148 C147 1.375 . S
C148 C149 1.367 . S
C148 H162 0.951 . S
C149 C145 1.383 . S
C149 C148 1.367 . S
C149 H163 0.950 . S
C150 C147 1.481 . S
C150 C151 1.297 . S
C150 H164 0.950 . S
C151 C150 1.297 . S
C151 C152 1.479 . S
C151 H165 0.950 . S
C152 C151 1.479 . S
C152 C153 1.375 . S
C152 C158 1.404 . S
C153 C152 1.375 . S
C153 C154 1.369 . S
C153 H166 0.950 . S
C154 C153 1.369 . S
C154 C155 1.392 . S
C154 H167 0.951 . S
C155 C154 1.392 . S
C155 C157 1.384 . S
H156 C158 0.949 . S
C157 C155 1.384 . S
C157 C158 1.385 . S
C157 H159 0.950 . S
C158 C152 1.404 . S
C158 H156 0.949 . S
C158 C157 1.385 . S
H159 C157 0.950 . S
H160 C144 0.951 . S
H161 C146 0.951 . S
H162 C148 0.951 . S
H163 C149 0.950 . S
H164 C150 0.950 . S
H165 C151 0.950 . S
H166 C153 0.950 . S
H167 C154 0.951 . S
C168 C169 1.386 . S
C168 C170 1.383 . S
C168 H184 0.951 . S
C169 C168 1.386 . S
C169 C173 1.383 . S
C170 C168 1.383 . S
C170 C171 1.402 . S
C170 H185 0.951 . S
C171 C170 1.402 . S
C171 C172 1.375 . S
C171 C174 1.481 . S
C172 C171 1.375 . S
C172 C173 1.367 . S
C172 H186 0.951 . S
C173 C169 1.383 . S
C173 C172 1.367 . S
C173 H187 0.950 . S
C174 C171 1.481 . S
C174 C175 1.297 . S
C174 H188 0.950 . S
C175 C174 1.297 . S
C175 C176 1.479 . S
C175 H189 0.950 . S
C176 C175 1.479 . S
C176 C177 1.375 . S
C176 C182 1.404 . S
C177 C176 1.375 . S
C177 C178 1.369 . S
C177 H190 0.950 . S
C178 C177 1.369 . S
C178 C179 1.392 . S
C178 H191 0.951 . S
C179 C178 1.392 . S
C179 C181 1.384 . S
H180 C182 0.949 . S
C181 C179 1.384 . S
C181 C182 1.385 . S
C181 H183 0.950 . S
C182 C176 1.404 . S
C182 H180 0.949 . S
C182 C181 1.385 . S
H183 C181 0.950 . S
H184 C168 0.951 . S
H185 C170 0.951 . S
H186 C172 0.951 . S
H187 C173 0.950 . S
H188 C174 0.950 . S
H189 C175 0.950 . S
H190 C177 0.950 . S
H191 C178 0.951 . S
C192 C193 1.386 1_556 S
C192 C194 1.383 . S
C192 H208 0.951 . S
C193 C192 1.386 1_554 S
C193 C197 1.383 . S
C194 C192 1.383 . S
C194 C195 1.402 1_556 S
C194 H209 0.951 . S
C195 C194 1.402 1_554 S
C195 C196 1.375 . S
C195 C198 1.481 . S
C196 C195 1.375 . S
C196 C197 1.367 . S
C196 H210 0.951 . S
C197 C193 1.383 . S
C197 C196 1.367 . S
C197 H211 0.950 . S
C198 C195 1.481 . S
C198 C199 1.297 . S
C198 H212 0.950 . S
C199 C198 1.297 . S
C199 C200 1.479 . S
C199 H213 0.950 1_554 S
C200 C199 1.479 . S
C200 C201 1.375 1_554 S
C200 C206 1.404 . S
C201 C200 1.375 1_556 S
C201 C202 1.369 . S
C201 H214 0.950 . S
C202 C201 1.369 . S
C202 C203 1.392 1_556 S
C202 H215 0.951 . S
C203 C202 1.392 1_554 S
C203 C205 1.384 . S
H204 C206 0.949 . S
C205 C203 1.384 . S
C205 C206 1.385 . S
C205 H207 0.950 . S
C206 C200 1.404 . S
C206 H204 0.949 . S
C206 C205 1.385 . S
H207 C205 0.950 . S
H208 C192 0.951 . S
H209 C194 0.951 . S
H210 C196 0.951 . S
H211 C197 0.950 . S
H212 C198 0.950 . S
H213 C199 0.950 1_556 S
H214 C201 0.950 . S
H215 C202 0.951 . S
C216 C217 1.371 1_556 S
C216 C218 1.383 . S
C216 H232 0.951 . S
C217 C216 1.371 1_554 S
C217 C221 1.400 . S
C218 C216 1.383 . S
C218 C219 1.402 1_556 S
C218 H233 0.951 . S
C219 C218 1.402 1_554 S
C219 C220 1.375 . S
C219 C222 1.481 . S
C220 C219 1.375 . S
C220 C221 1.367 . S
C220 H234 0.951 . S
C221 C217 1.400 . S
C221 C220 1.367 . S
C221 H235 0.950 . S
C222 C219 1.481 . S
C222 C223 1.297 1_554 S
C222 H236 0.950 . S
C223 C222 1.297 1_556 S
C223 C224 1.479 . S
C223 H237 0.950 . S
C224 C223 1.479 . S
C224 C225 1.375 . S
C224 C230 1.404 1_556 S
C225 C224 1.375 . S
C225 C226 1.369 . S
C225 H238 0.950 . S
C226 C225 1.369 . S
C226 C227 1.392 . S
C226 H239 0.951 . S
C227 C226 1.392 . S
C227 C229 1.384 1_556 S
H228 C230 0.949 . S
C229 C227 1.384 1_554 S
C229 C230 1.385 . S
C229 H231 0.950 . S
C230 C224 1.404 1_554 S
C230 H228 0.949 . S
C230 C229 1.385 . S
H231 C229 0.950 . S
H232 C216 0.951 . S
H233 C218 0.951 . S
H234 C220 0.951 . S
H235 C221 0.950 . S
H236 C222 0.950 . S
H237 C223 0.950 . S
H238 C225 0.950 . S
H239 C226 0.951 . S
C240 C241 1.386 1_554 S
C240 C242 1.383 . S
C240 H256 0.951 . S
C241 C240 1.386 1_556 S
C241 C245 1.383 . S
C242 C240 1.383 . S
C242 C243 1.402 1_554 S
C242 H257 0.951 . S
C243 C242 1.402 1_556 S
C243 C244 1.375 . S
C243 C246 1.481 . S
C244 C243 1.375 . S
C244 C245 1.367 . S
C244 H258 0.951 . S
C245 C241 1.383 . S
C245 C244 1.367 . S
C245 H259 0.950 . S
C246 C243 1.481 . S
C246 C247 1.297 . S
C246 H260 0.950 . S
C247 C246 1.297 . S
C247 C248 1.479 . S
C247 H261 0.950 1_556 S
C248 C247 1.479 . S
C248 C249 1.375 1_556 S
C248 C254 1.404 . S
C249 C248 1.375 1_554 S
C249 C250 1.369 . S
C249 H262 0.950 . S
C250 C249 1.369 . S
C250 C251 1.392 . S
C250 H263 0.951 . S
C251 C250 1.392 . S
C251 C253 1.384 1_554 S
H252 C254 0.949 . S
C253 C251 1.384 1_556 S
C253 C254 1.385 . S
C253 H255 0.950 . S
C254 C248 1.404 . S
C254 H252 0.949 . S
C254 C253 1.385 . S
H255 C253 0.950 . S
H256 C240 0.951 . S
H257 C242 0.951 . S
H258 C244 0.951 . S
H259 C245 0.950 . S
H260 C246 0.950 . S
H261 C247 0.950 1_554 S
H262 C249 0.950 . S
H263 C250 0.951 . S
C264 C265 1.386 1_554 S
C264 C266 1.383 . S
C264 H280 0.951 . S
C265 C264 1.386 1_556 S
C265 C269 1.383 . S
C266 C264 1.383 . S
C266 C267 1.402 1_554 S
C266 H281 0.951 . S
C267 C266 1.402 1_556 S
C267 C268 1.375 . S
C267 C270 1.481 . S
C268 C267 1.375 . S
C268 C269 1.367 . S
C268 H282 0.951 . S
C269 C265 1.383 . S
C269 C268 1.367 . S
C269 H283 0.950 . S
C270 C267 1.481 . S
C270 C271 1.297 1_556 S
C270 H284 0.950 . S
C271 C270 1.297 1_554 S
C271 C272 1.479 . S
C271 H285 0.950 . S
C272 C271 1.479 . S
C272 C273 1.375 . S
C272 C278 1.404 1_554 S
C273 C272 1.375 . S
C273 C274 1.369 . S
C273 H286 0.950 . S
C274 C273 1.369 . S
C274 C275 1.392 1_554 S
C274 H287 0.951 . S
C275 C274 1.392 1_556 S
C275 C277 1.384 . S
H276 C278 0.949 . S
C277 C275 1.384 . S
C277 C278 1.385 . S
C277 H279 0.950 . S
C278 C272 1.404 1_556 S
C278 H276 0.949 . S
C278 C277 1.385 . S
H279 C277 0.950 . S
H280 C264 0.951 . S
H281 C266 0.951 . S
H282 C268 0.951 . S
H283 C269 0.950 . S
H284 C270 0.950 . S
H285 C271 0.950 . S
H286 C273 0.950 . S
H287 C274 0.951 . S
C288 C289 1.386 . S
C288 C290 1.383 . S
C288 H304 0.951 . S
C289 C288 1.386 . S
C289 C293 1.383 1_554 S
C290 C288 1.383 . S
C290 C291 1.402 . S
C290 H305 0.951 . S
C291 C290 1.402 . S
C291 C292 1.375 1_554 S
C291 C294 1.481 . S
C292 C291 1.375 1_556 S
C292 C293 1.367 . S
C292 H306 0.951 . S
C293 C289 1.383 1_556 S
C293 C292 1.367 . S
C293 H307 0.950 . S
C294 C291 1.481 . S
C294 C295 1.297 . S
C294 H308 0.950 1_554 S
C295 C294 1.297 . S
C295 C296 1.479 . S
C295 H309 0.950 . S
C296 C295 1.479 . S
C296 C297 1.375 . S
C296 C302 1.404 . S
C297 C296 1.375 . S
C297 C298 1.369 . S
C297 H310 0.950 . S
C298 C297 1.369 . S
C298 C299 1.392 . S
C298 H311 0.951 . S
C299 C298 1.392 . S
C299 C301 1.384 1_554 S
H300 C302 0.949 1_556 S
C301 C299 1.384 1_556 S
C301 C302 1.385 1_556 S
C301 H303 0.950 . S
C302 C296 1.404 . S
C302 H300 0.949 1_554 S
C302 C301 1.385 1_554 S
H303 C301 0.950 . S
H304 C288 0.951 . S
H305 C290 0.951 . S
H306 C292 0.951 . S
H307 C293 0.950 . S
H308 C294 0.950 1_556 S
H309 C295 0.950 . S
H310 C297 0.950 . S
H311 C298 0.951 . S
C97 N18 1.486 . S
C107 N13 1.473 1_655 S
C121 N45 1.459 . S
C131 N50 1.442 1_565 S
C145 N77 1.444 . S
C155 N82 1.520 . S
C169 C2 1.112 . S
C179 C93 1.125 . S
C193 C61 1.129 . S
C203 C6 1.096 . S
C217 C36 1.123 1_554 S
C227 C70 1.139 . S
C241 C29 1.124 1_556 S
C251 C66 1.131 . S
C265 C4 1.129 . S
C275 C34 1.094 . S
C289 C68 1.125 . S
C299 C38 1.132 . S
