# Generated by pormake.
# Topology wjg, (4)-cn, num edge types: 1
# Building blocks:
#     Node 0, Type 0, BuildingBlock: CEKHIL_clean_sbu_0, # of connection points: 4
#     Node 1, Type 0, BuildingBlock: CEKHIL_clean_sbu_0, # of connection points: 4
#     Node 2, Type 0, BuildingBlock: CEKHIL_clean_sbu_0, # of connection points: 4
#     Node 3, Type 0, BuildingBlock: CEKHIL_clean_sbu_0, # of connection points: 4
#     Node 4, Type 0, BuildingBlock: CEKHIL_clean_sbu_0, # of connection points: 4
#     Node 5, Type 0, BuildingBlock: CEKHIL_clean_sbu_0, # of connection points: 4
#     Node 6, Type 0, BuildingBlock: CEKHIL_clean_sbu_0, # of connection points: 4
#     Node 7, Type 0, BuildingBlock: CEKHIL_clean_sbu_0, # of connection points: 4
#     Node 8, Type 0, BuildingBlock: CEKHIL_clean_sbu_0, # of connection points: 4
#     Node 9, Type 0, BuildingBlock: CEKHIL_clean_sbu_0, # of connection points: 4
#     Node 10, Type 0, BuildingBlock: CEKHIL_clean_sbu_0, # of connection points: 4
#     Node 11, Type 0, BuildingBlock: CEKHIL_clean_sbu_0, # of connection points: 4
#     Edge 12, Type (0, 0), BuildingBlock: TEMPAE_clean_linker_10, # of connection points: 2
#     Edge 13, Type (0, 0), BuildingBlock: TEMPAE_clean_linker_10, # of connection points: 2
#     Edge 14, Type (0, 0), BuildingBlock: TEMPAE_clean_linker_10, # of connection points: 2
#     Edge 15, Type (0, 0), BuildingBlock: TEMPAE_clean_linker_10, # of connection points: 2
#     Edge 16, Type (0, 0), BuildingBlock: TEMPAE_clean_linker_10, # of connection points: 2
#     Edge 17, Type (0, 0), BuildingBlock: TEMPAE_clean_linker_10, # of connection points: 2
#     Edge 18, Type (0, 0), BuildingBlock: TEMPAE_clean_linker_10, # of connection points: 2
#     Edge 19, Type (0, 0), BuildingBlock: TEMPAE_clean_linker_10, # of connection points: 2
#     Edge 20, Type (0, 0), BuildingBlock: TEMPAE_clean_linker_10, # of connection points: 2
#     Edge 21, Type (0, 0), BuildingBlock: TEMPAE_clean_linker_10, # of connection points: 2
#     Edge 22, Type (0, 0), BuildingBlock: TEMPAE_clean_linker_10, # of connection points: 2
#     Edge 23, Type (0, 0), BuildingBlock: TEMPAE_clean_linker_10, # of connection points: 2
#     Edge 24, Type (0, 0), BuildingBlock: TEMPAE_clean_linker_10, # of connection points: 2
#     Edge 25, Type (0, 0), BuildingBlock: TEMPAE_clean_linker_10, # of connection points: 2
#     Edge 26, Type (0, 0), BuildingBlock: TEMPAE_clean_linker_10, # of connection points: 2
#     Edge 27, Type (0, 0), BuildingBlock: TEMPAE_clean_linker_10, # of connection points: 2
#     Edge 28, Type (0, 0), BuildingBlock: TEMPAE_clean_linker_10, # of connection points: 2
#     Edge 29, Type (0, 0), BuildingBlock: TEMPAE_clean_linker_10, # of connection points: 2
#     Edge 30, Type (0, 0), BuildingBlock: TEMPAE_clean_linker_10, # of connection points: 2
#     Edge 31, Type (0, 0), BuildingBlock: TEMPAE_clean_linker_10, # of connection points: 2
#     Edge 32, Type (0, 0), BuildingBlock: TEMPAE_clean_linker_10, # of connection points: 2
#     Edge 33, Type (0, 0), BuildingBlock: TEMPAE_clean_linker_10, # of connection points: 2
#     Edge 34, Type (0, 0), BuildingBlock: TEMPAE_clean_linker_10, # of connection points: 2
#     Edge 35, Type (0, 0), BuildingBlock: TEMPAE_clean_linker_10, # of connection points: 2
# Relax obj value: 0.334
# Max RMSD: 0.121
# Mean RMSD: 0.111
data_MOF--net-wjg--node1-CEKHIL_clean_sbu_0--edge1-TEMPAE_clean_linker_10
_symmetry_space_group_name_H-M    P1
_symmetry_Int_Tables_number       1
_symmetry_cell_setting            triclinic
loop_
_symmetry_equiv_pos_as_xyz
'x, y, z'
_cell_length_a     30.995633
_cell_length_b     30.819722
_cell_length_c     40.933336
_cell_angle_alpha  90.018271
_cell_angle_beta   89.997572
_cell_angle_gamma 120.07303
loop_
_atom_site_label
_atom_site_type_symbol
_atom_site_fract_x
_atom_site_fract_y
_atom_site_fract_z
_atom_type_partial_charge
Co0 Co 0.15913 0.43904 0.32027 0.0
O1 O 0.14641 0.43685 0.27441 0.0
O2 O 0.08778 0.39439 0.31091 0.0
C3 C 0.20792 0.52312 0.32175 0.0
O4 O 0.16391 0.43594 0.37065 0.0
Co5 Co 0.27166 0.48072 0.3379 0.0
O6 O 0.24644 0.48099 0.3824 0.0
C7 C 0.20976 0.37666 0.31514 0.0
C8 C 0.09994 0.40652 0.28033 0.0
C9 C 0.20082 0.45652 0.39119 0.0
O10 O 0.17058 0.38072 0.31645 0.0
O11 O 0.25401 0.41365 0.31923 0.0
O12 O 0.15984 0.50307 0.32356 0.0
O13 O 0.22354 0.49225 0.31609 0.0
Co14 Co 0.75163 0.17048 0.64283 0.0
O15 O 0.7442 0.16664 0.59651 0.0
O16 O 0.73441 0.10341 0.62696 0.0
C17 C 0.70607 0.20832 0.65005 0.0
O18 O 0.75832 0.16588 0.6927 0.0
Co19 Co 0.80877 0.28091 0.66967 0.0
O20 O 0.78999 0.24509 0.71212 0.0
C21 C 0.86439 0.23564 0.64139 0.0
C22 C 0.73394 0.12068 0.59788 0.0
C23 C 0.77313 0.19829 0.71633 0.0
O24 O 0.82422 0.1931 0.63883 0.0
O25 O 0.86533 0.27626 0.6495 0.0
O26 O 0.6839 0.15984 0.64776 0.0
O27 O 0.75338 0.23138 0.64495 0.0
Co28 Co 0.56236 0.71447 0.97427 0.0
O29 O 0.55666 0.70936 0.92776 0.0
O30 O 0.61762 0.70883 0.95516 0.0
C31 C 0.48179 0.65799 0.98397 0.0
O32 O 0.57724 0.72132 0.0237 0.0
Co33 Co 0.49679 0.7553 0.00596 0.0
O34 O 0.52243 0.741 0.04652 0.0
C35 C 0.59447 0.82532 0.9771 0.0
C36 C 0.59721 0.70741 0.92694 0.0
C37 C 0.55787 0.73137 0.04864 0.0
O38 O 0.60306 0.78935 0.97155 0.0
O39 O 0.55264 0.81899 0.98731 0.0
O40 O 0.51305 0.64239 0.97882 0.0
O41 O 0.49904 0.70511 0.9796 0.0
Co42 Co 0.83849 0.56779 0.30621 0.0
O43 O 0.86165 0.57675 0.26211 0.0
O44 O 0.91055 0.61489 0.30442 0.0
C45 C 0.7926 0.48387 0.30241 0.0
O46 O 0.82267 0.56393 0.3556 0.0
Co47 Co 0.72282 0.5197 0.3135 0.0
O48 O 0.73886 0.5152 0.35992 0.0
C49 C 0.78499 0.62664 0.29707 0.0
C50 C 0.90575 0.60704 0.27293 0.0
C51 C 0.78215 0.53987 0.37275 0.0
O52 O 0.82491 0.62472 0.30196 0.0
O53 O 0.74125 0.58793 0.29666 0.0
O54 O 0.83973 0.5048 0.3093 0.0
O55 O 0.77684 0.51418 0.2953 0.0
Co56 Co 0.23717 0.81157 0.63598 0.0
O57 O 0.23841 0.81557 0.5895 0.0
O58 O 0.25088 0.8782 0.62165 0.0
C59 C 0.28511 0.77577 0.63794 0.0
O60 O 0.23647 0.81582 0.68623 0.0
Co61 Co 0.18745 0.70157 0.66326 0.0
O62 O 0.21266 0.73788 0.70523 0.0
C63 C 0.12529 0.74349 0.64096 0.0
C64 C 0.24748 0.86105 0.59199 0.0
C65 C 0.22725 0.78417 0.70977 0.0
O66 O 0.16391 0.78676 0.63647 0.0
O67 O 0.12707 0.70397 0.64814 0.0
O68 O 0.30599 0.82423 0.63647 0.0
O69 O 0.23732 0.75165 0.63552 0.0
Co70 Co 0.44289 0.28674 0.98612 0.0
O71 O 0.44256 0.29027 0.93957 0.0
O72 O 0.39099 0.30111 0.97117 0.0
C73 C 0.52624 0.33418 0.99146 0.0
O74 O 0.43594 0.28331 0.0364 0.0
Co75 Co 0.49844 0.23072 0.01058 0.0
O76 O 0.48338 0.25049 0.05335 0.0
C77 C 0.3978 0.17371 0.9833 0.0
C78 C 0.40558 0.29816 0.94171 0.0
C79 C 0.45538 0.26902 0.05913 0.0
O80 O 0.39366 0.21306 0.98409 0.0
O81 O 0.4387 0.1742 0.98882 0.0
O82 O 0.49988 0.35599 0.98856 0.0
O83 O 0.50217 0.28645 0.98728 0.0
Co84 Co 0.58213 0.86862 0.34617 0.0
O85 O 0.57847 0.88244 0.39119 0.0
O86 O 0.63799 0.93488 0.35799 0.0
C87 C 0.50088 0.83919 0.33647 0.0
O88 O 0.59418 0.86228 0.29726 0.0
Co89 Co 0.51835 0.75464 0.3279 0.0
O90 O 0.53954 0.78177 0.28316 0.0
C91 C 0.61688 0.79348 0.35844 0.0
C92 C 0.61877 0.92492 0.38733 0.0
C93 C 0.57371 0.82621 0.27608 0.0
O94 O 0.62434 0.83829 0.35693 0.0
O95 O 0.57521 0.75453 0.35128 0.0
O96 O 0.53155 0.88717 0.33526 0.0
O97 O 0.51933 0.81237 0.34643 0.0
Co98 Co 0.68204 0.55065 0.68006 0.0
O99 O 0.65902 0.55468 0.72256 0.0
O100 O 0.67058 0.60771 0.6826 0.0
C101 C 0.63232 0.46734 0.67584 0.0
O102 O 0.70594 0.55375 0.63244 0.0
Co103 Co 0.73552 0.48741 0.678 0.0
O104 O 0.73735 0.50147 0.63052 0.0
C105 C 0.78893 0.59025 0.70293 0.0
C106 C 0.65821 0.59405 0.71297 0.0
C107 C 0.72639 0.53196 0.61681 0.0
O108 O 0.75283 0.59644 0.69373 0.0
O109 O 0.7868 0.54768 0.70248 0.0
O110 O 0.61487 0.49639 0.66781 0.0
O111 O 0.67606 0.4892 0.68856 0.0
Co112 Co 0.15466 0.71884 0.02054 0.0
O113 O 0.14993 0.70902 0.06675 0.0
O114 O 0.08734 0.69964 0.03613 0.0
C115 C 0.19471 0.67588 0.01106 0.0
O116 O 0.1516 0.72837 0.97084 0.0
Co117 Co 0.26636 0.78242 0.99724 0.0
O118 O 0.23251 0.77123 0.95433 0.0
C119 C 0.21819 0.83128 0.02979 0.0
C120 C 0.10443 0.69939 0.06529 0.0
C121 C 0.18577 0.75021 0.94862 0.0
O122 O 0.17559 0.79137 0.02672 0.0
O123 O 0.25963 0.83299 0.02417 0.0
O124 O 0.14644 0.65157 0.01363 0.0
O125 O 0.21579 0.72275 0.01794 0.0
Co126 Co 0.40083 0.14212 0.36176 0.0
O127 O 0.39512 0.1117 0.40325 0.0
O128 O 0.35108 0.07071 0.35968 0.0
C129 C 0.48461 0.18578 0.36182 0.0
O130 O 0.40061 0.16591 0.31462 0.0
Co131 Co 0.44973 0.25873 0.36472 0.0
O132 O 0.44239 0.2507 0.31655 0.0
C133 C 0.34535 0.19516 0.38403 0.0
C134 C 0.36141 0.07015 0.39056 0.0
C135 C 0.41874 0.20951 0.30079 0.0
O136 O 0.34647 0.15653 0.37353 0.0
O137 O 0.38435 0.23855 0.38647 0.0
O138 O 0.46146 0.13941 0.35207 0.0
O139 O 0.45661 0.2014 0.37408 0.0
Co140 Co 0.30029 0.43349 0.69583 0.0
O141 O 0.32107 0.42685 0.73847 0.0
O142 O 0.31614 0.37939 0.69641 0.0
C143 C 0.34647 0.51757 0.69541 0.0
O144 O 0.27886 0.43322 0.64788 0.0
Co145 Co 0.24118 0.49112 0.69506 0.0
O146 O 0.23977 0.47865 0.64736 0.0
C147 C 0.19073 0.38551 0.7147 0.0
C148 C 0.32547 0.39016 0.72741 0.0
C149 C 0.25501 0.45204 0.63294 0.0
O150 O 0.22948 0.38315 0.70666 0.0
O151 O 0.18989 0.42661 0.71566 0.0
O152 O 0.36664 0.49129 0.68647 0.0
O153 O 0.30185 0.49237 0.70665 0.0
Co154 Co 0.85602 0.28312 0.02311 0.0
O155 O 0.86001 0.29714 0.06891 0.0
O156 O 0.9209 0.29761 0.04088 0.0
C157 C 0.82345 0.33144 0.00903 0.0
O158 O 0.86007 0.26899 0.97425 0.0
Co159 Co 0.74501 0.22653 0.99746 0.0
O160 O 0.78007 0.23082 0.95592 0.0
C161 C 0.78362 0.17228 0.03428 0.0
C162 C 0.90436 0.30334 0.06898 0.0
C163 C 0.82663 0.24789 0.95152 0.0
O164 O 0.82813 0.2097 0.03191 0.0
O165 O 0.74467 0.17459 0.02703 0.0
O166 O 0.87134 0.35221 0.01295 0.0
O167 O 0.79818 0.28519 0.01748 0.0
C168 C 0.29292 0.59423 0.33116 0.0
C169 C 0.24268 0.57732 0.32472 0.0
C170 C 0.32789 0.64536 0.33183 0.0
C171 C 0.31232 0.68062 0.32536 0.0
C172 C 0.26141 0.66389 0.31924 0.0
C173 C 0.22689 0.61214 0.31937 0.0
C174 C 0.38178 0.66142 0.33892 0.0
C175 C 0.24363 0.70041 0.31213 0.0
C176 C 0.41543 0.8015 0.35695 0.0
C177 C 0.44757 0.81584 0.33013 0.0
C178 C 0.36669 0.761 0.35455 0.0
C179 C 0.35065 0.73455 0.32465 0.0
C180 C 0.38059 0.75416 0.29632 0.0
C181 C 0.42934 0.79453 0.29951 0.0
C182 C 0.33587 0.74182 0.38525 0.0
C183 C 0.3643 0.72786 0.26378 0.0
H184 H 0.30514 0.56739 0.3355 0.0
H185 H 0.18792 0.59893 0.31428 0.0
H186 H 0.40534 0.68151 0.31752 0.0
H187 H 0.39551 0.68758 0.35999 0.0
H188 H 0.38711 0.62915 0.34457 0.0
H189 H 0.20403 0.68115 0.30419 0.0
H190 H 0.24741 0.72258 0.33438 0.0
H191 H 0.26693 0.72727 0.29285 0.0
H192 H 0.4301 0.8181 0.38067 0.0
H193 H 0.45467 0.80572 0.27888 0.0
H194 H 0.34113 0.71171 0.39597 0.0
H195 H 0.29562 0.7257 0.37998 0.0
H196 H 0.34737 0.77203 0.40376 0.0
H197 H 0.3715 0.69603 0.2633 0.0
H198 H 0.38525 0.75351 0.2433 0.0
H199 H 0.3238 0.71255 0.25983 0.0
C200 C 0.7065 0.28709 0.66245 0.0
C201 C 0.67925 0.23582 0.65546 0.0
C202 C 0.68303 0.31556 0.66481 0.0
C203 C 0.63081 0.29216 0.65987 0.0
C204 C 0.60271 0.24002 0.65369 0.0
C205 C 0.62738 0.21229 0.65158 0.0
C206 C 0.71456 0.37105 0.67198 0.0
C207 C 0.54714 0.21388 0.64813 0.0
C208 C 0.59637 0.38134 0.69572 0.0
C209 C 0.60723 0.41369 0.66916 0.0
C210 C 0.59561 0.33584 0.692 0.0
C211 C 0.60715 0.32366 0.66112 0.0
C212 C 0.61024 0.35255 0.63336 0.0
C213 C 0.61036 0.39774 0.63777 0.0
C214 C 0.59077 0.30541 0.72207 0.0
C215 C 0.62142 0.34017 0.5999 0.0
H216 H 0.74654 0.3053 0.66564 0.0
H217 H 0.60628 0.1726 0.64596 0.0
H218 H 0.71209 0.3931 0.65138 0.0
H219 H 0.7006 0.38073 0.69418 0.0
H220 H 0.75445 0.38295 0.67586 0.0
H221 H 0.52962 0.17251 0.65031 0.0
H222 H 0.52894 0.22711 0.66567 0.0
H223 H 0.53975 0.22269 0.62319 0.0
H224 H 0.59413 0.39415 0.72003 0.0
H225 H 0.6192 0.42326 0.61734 0.0
H226 H 0.62855 0.31614 0.73121 0.0
H227 H 0.5711 0.26473 0.71645 0.0
H228 H 0.57045 0.31235 0.74188 0.0
H229 H 0.66193 0.3536 0.59803 0.0
H230 H 0.61147 0.35863 0.58036 0.0
H231 H 0.60099 0.29909 0.59568 0.0
C232 C 0.412 0.63185 0.02206 0.0
C233 C 0.42928 0.62513 0.99206 0.0
C234 C 0.36241 0.62013 0.02558 0.0
C235 C 0.33035 0.60249 0.9981 0.0
C236 C 0.34558 0.58762 0.96968 0.0
C237 C 0.39548 0.59958 0.96685 0.0
C238 C 0.3471 0.63466 0.05685 0.0
C239 C 0.31173 0.56652 0.94044 0.0
C240 C 0.20887 0.60267 0.01026 0.0
C241 C 0.22439 0.65255 0.00214 0.0
C242 C 0.24178 0.58394 0.00709 0.0
C243 C 0.29083 0.61607 0.99553 0.0
C244 C 0.30485 0.66515 0.98483 0.0
C245 C 0.27145 0.68267 0.98836 0.0
C246 C 0.22492 0.53115 0.01815 0.0
C247 C 0.35643 0.70073 0.97168 0.0
H248 H 0.43835 0.65113 0.04163 0.0
H249 H 0.40914 0.59434 0.94364 0.0
H250 H 0.34933 0.67147 0.05346 0.0
H251 H 0.30809 0.60676 0.06331 0.0
H252 H 0.37184 0.63803 0.07752 0.0
H253 H 0.32307 0.5447 0.92457 0.0
H254 H 0.27239 0.54211 0.94808 0.0
H255 H 0.31385 0.59781 0.92577 0.0
H256 H 0.17224 0.57927 0.02082 0.0
H257 H 0.28302 0.72088 0.98142 0.0
H258 H 0.2335 0.53159 0.0445 0.0
H259 H 0.24415 0.51453 0.00459 0.0
H260 H 0.184 0.5067 0.01505 0.0
H261 H 0.38459 0.70976 0.99116 0.0
H262 H 0.36007 0.73645 0.96274 0.0
H263 H 0.36548 0.68305 0.95123 0.0
C264 C 0.56552 0.20757 0.33514 0.0
C265 C 0.53814 0.22003 0.35656 0.0
C266 C 0.61439 0.24351 0.32631 0.0
C267 C 0.63567 0.29258 0.33925 0.0
C268 C 0.60961 0.30376 0.36312 0.0
C269 C 0.56105 0.26729 0.37141 0.0
C270 C 0.64157 0.23007 0.30134 0.0
C271 C 0.63125 0.35555 0.37785 0.0
C272 C 0.76631 0.40172 0.32934 0.0
C273 C 0.75743 0.43019 0.30654 0.0
C274 C 0.72789 0.35381 0.33832 0.0
C275 C 0.68019 0.33468 0.32396 0.0
C276 C 0.67292 0.36142 0.2985 0.0
C277 C 0.71168 0.40906 0.29023 0.0
C278 C 0.73718 0.32594 0.36514 0.0
C279 C 0.62278 0.34212 0.28223 0.0
H280 H 0.54797 0.17074 0.32394 0.0
H281 H 0.54022 0.27662 0.38851 0.0
H282 H 0.63848 0.24418 0.27703 0.0
H283 H 0.68179 0.24779 0.30738 0.0
H284 H 0.62557 0.18884 0.29954 0.0
H285 H 0.60856 0.35642 0.39858 0.0
H286 H 0.66976 0.36911 0.38666 0.0
H287 H 0.63312 0.38222 0.35892 0.0
H288 H 0.80193 0.41813 0.34181 0.0
H289 H 0.70527 0.43095 0.27216 0.0
H290 H 0.71646 0.28492 0.36063 0.0
H291 H 0.72398 0.33287 0.38871 0.0
H292 H 0.77751 0.33874 0.36761 0.0
H293 H 0.60696 0.30239 0.27485 0.0
H294 H 0.62512 0.36441 0.26029 0.0
H295 H 0.59641 0.34392 0.29978 0.0
C296 C 0.28828 0.69741 0.63779 0.0
C297 C 0.313 0.74927 0.64267 0.0
C298 C 0.31141 0.66971 0.64495 0.0
C299 C 0.36071 0.69462 0.65745 0.0
C300 C 0.38725 0.74753 0.66025 0.0
C301 C 0.36289 0.77442 0.65286 0.0
C302 C 0.28161 0.61328 0.6411 0.0
C303 C 0.44015 0.77568 0.6727 0.0
C304 C 0.35868 0.59913 0.71282 0.0
C305 C 0.36954 0.57167 0.69044 0.0
C306 C 0.36408 0.64537 0.7041 0.0
C307 C 0.37974 0.66352 0.67202 0.0
C308 C 0.39867 0.63997 0.65147 0.0
C309 C 0.39313 0.59365 0.66094 0.0
C310 C 0.3453 0.67031 0.72731 0.0
C311 C 0.41814 0.65988 0.61779 0.0
H312 H 0.25003 0.67804 0.62921 0.0
H313 H 0.38229 0.81474 0.65623 0.0
H314 H 0.3025 0.59999 0.6261 0.0
H315 H 0.27502 0.59509 0.66541 0.0
H316 H 0.24485 0.60039 0.62934 0.0
H317 H 0.46079 0.81373 0.66173 0.0
H318 H 0.43971 0.78035 0.69955 0.0
H319 H 0.46062 0.75551 0.66741 0.0
H320 H 0.34156 0.58231 0.73603 0.0
H321 H 0.40221 0.57249 0.64387 0.0
H322 H 0.30755 0.66189 0.71954 0.0
H323 H 0.37004 0.71157 0.72696 0.0
H324 H 0.34277 0.65676 0.75277 0.0
H325 H 0.38635 0.64623 0.60052 0.0
H326 H 0.44353 0.64673 0.60893 0.0
H327 H 0.43821 0.70149 0.61751 0.0
C328 C 0.80672 0.40231 0.01217 0.0
C329 C 0.79824 0.35784 0.99724 0.0
C330 C 0.77145 0.41807 0.00914 0.0
C331 C 0.72743 0.38837 0.99087 0.0
C332 C 0.7229 0.34774 0.972 0.0
C333 C 0.75826 0.33272 0.97573 0.0
C334 C 0.77861 0.4628 0.02851 0.0
C335 C 0.67732 0.3157 0.9514 0.0
C336 C 0.59859 0.34272 0.02168 0.0
C337 C 0.57997 0.36104 0.99767 0.0
C338 C 0.64905 0.35718 0.02245 0.0
C339 C 0.68125 0.38982 0.99794 0.0
C340 C 0.66368 0.41304 0.976 0.0
C341 C 0.61278 0.39832 0.97615 0.0
C342 C 0.66626 0.33244 0.04702 0.0
C343 C 0.69704 0.44913 0.95016 0.0
H344 H 0.83804 0.4219 0.02868 0.0
H345 H 0.75242 0.29883 0.96376 0.0
H346 H 0.761 0.48209 0.01619 0.0
H347 H 0.76096 0.45012 0.05286 0.0
H348 H 0.81884 0.48999 0.03235 0.0
H349 H 0.68301 0.29046 0.9348 0.0
H350 H 0.6452 0.29218 0.96758 0.0
H351 H 0.66742 0.33943 0.93646 0.0
H352 H 0.57314 0.3145 0.03859 0.0
H353 H 0.5981 0.41257 0.95762 0.0
H354 H 0.70224 0.36036 0.05812 0.0
H355 H 0.67203 0.30377 0.03452 0.0
H356 H 0.63862 0.31367 0.06691 0.0
H357 H 0.73629 0.47092 0.9586 0.0
H358 H 0.6841 0.47552 0.94305 0.0
H359 H 0.69601 0.42779 0.92805 0.0
C360 C 0.24276 0.31934 0.30575 0.0
C361 C 0.20356 0.32613 0.31603 0.0
C362 C 0.24704 0.27903 0.31739 0.0
C363 C 0.21147 0.24543 0.34018 0.0
C364 C 0.16785 0.24774 0.34649 0.0
C365 C 0.16426 0.28827 0.33416 0.0
C366 C 0.29315 0.27657 0.3086 0.0
C367 C 0.12776 0.21134 0.36925 0.0
C368 C 0.25875 0.1603 0.36367 0.0
C369 C 0.29667 0.1928 0.38513 0.0
C370 C 0.2237 0.17259 0.35199 0.0
C371 C 0.22694 0.21779 0.36242 0.0
C372 C 0.25813 0.24439 0.38915 0.0
C373 C 0.2931 0.23168 0.40012 0.0
C374 C 0.1886 0.14133 0.32509 0.0
C375 C 0.26035 0.29113 0.40256 0.0
H376 H 0.27249 0.34803 0.29105 0.0
H377 H 0.13334 0.29296 0.34179 0.0
H378 H 0.31867 0.28824 0.32994 0.0
H379 H 0.28318 0.23771 0.30213 0.0
H380 H 0.31366 0.30148 0.28773 0.0
H381 H 0.09052 0.20398 0.36104 0.0
H382 H 0.12733 0.1752 0.37095 0.0
H383 H 0.13428 0.22805 0.39404 0.0
H384 H 0.26021 0.12904 0.35267 0.0
H385 H 0.32124 0.25572 0.41764 0.0
H386 H 0.20743 0.15485 0.30114 0.0
H387 H 0.15427 0.1441 0.32497 0.0
H388 H 0.17814 0.10135 0.32763 0.0
H389 H 0.28019 0.32239 0.38495 0.0
H390 H 0.28039 0.30259 0.4263 0.0
H391 H 0.22229 0.28519 0.40602 0.0
C392 C 0.91376 0.19902 0.66238 0.0
C393 C 0.91172 0.23584 0.64336 0.0
C394 C 0.95903 0.20759 0.67563 0.0
C395 C 0.00286 0.25345 0.66892 0.0
C396 C 0.00179 0.28721 0.64581 0.0
C397 C 0.95587 0.27835 0.63371 0.0
C398 C 0.95842 0.17026 0.69973 0.0
C399 C 0.0483 0.33556 0.63673 0.0
C400 C 0.10051 0.3373 0.7281 0.0
C401 C 0.14233 0.33859 0.71414 0.0
C402 C 0.05265 0.30346 0.71662 0.0
C403 C 0.04726 0.27152 0.69012 0.0
C404 C 0.08835 0.26717 0.67974 0.0
C405 C 0.13569 0.30058 0.69226 0.0
C406 C 0.00891 0.30683 0.72979 0.0
C407 C 0.08383 0.23242 0.65231 0.0
H408 H 0.87946 0.16604 0.66996 0.0
H409 H 0.95413 0.30648 0.61876 0.0
H410 H 0.99466 0.17124 0.70059 0.0
H411 H 0.95057 0.1793 0.72449 0.0
H412 H 0.92854 0.13158 0.69364 0.0
H413 H 0.04229 0.35368 0.6151 0.0
H414 H 0.0598 0.36213 0.65757 0.0
H415 H 0.07947 0.32872 0.63134 0.0
H416 H 0.1055 0.36584 0.74564 0.0
H417 H 0.16788 0.30075 0.68172 0.0
H418 H 0.97587 0.2689 0.73281 0.0
H419 H -0.00113 0.32777 0.71221 0.0
H420 H 0.01761 0.32656 0.75368 0.0
H421 H 0.04715 0.19732 0.65273 0.0
H422 H 0.11388 0.22282 0.65358 0.0
H423 H 0.08723 0.25134 0.6286 0.0
C424 C 0.80166 0.10943 0.01153 0.0
C425 C 0.77716 0.12188 0.03533 0.0
C426 C 0.78229 0.0596 0.00159 0.0
C427 C 0.73863 0.02173 0.01679 0.0
C428 C 0.71846 0.03355 0.0442 0.0
C429 C 0.73734 0.08389 0.0527 0.0
C430 C 0.80467 0.04893 0.97207 0.0
C431 C 0.67333 0.9937 0.06208 0.0
C432 C 0.63338 0.91731 0.96968 0.0
C433 C 0.6375 0.87613 0.97943 0.0
C434 C 0.66904 0.96582 0.97943 0.0
C435 C 0.70828 0.97264 1.00052 0.0
C436 C 0.71426 0.93145 0.00874 0.0
C437 C 0.67906 0.88357 0.9976 0.0
C438 C 0.66259 0.00928 0.9691 0.0
C439 C 0.75509 0.93716 0.03152 0.0
H440 H 0.83219 0.13903 0.99782 0.0
H441 H 0.71855 0.09376 0.0711 0.0
H442 H 0.80179 0.01166 0.97371 0.0
H443 H 0.78404 0.04903 0.94992 0.0
H444 H 0.84446 0.07804 0.96885 0.0
H445 H 0.66827 0.00735 0.08611 0.0
H446 H 0.63947 0.98256 0.04715 0.0
H447 H 0.67644 0.95976 0.06606 0.0
H448 H 0.60111 0.91128 0.95571 0.0
H449 H 0.68169 0.85142 0.00557 0.0
H450 H 0.69852 0.04095 0.96037 0.0
H451 H 0.65039 0.02279 0.99036 0.0
H452 H 0.6344 -0.00136 0.94939 0.0
H453 H 0.79151 0.96953 0.02425 0.0
H454 H 0.75842 0.90291 0.03216 0.0
H455 H 0.74691 0.94467 0.05662 0.0
C456 C 0.65491 0.74076 0.36982 0.0
C457 C 0.66087 0.78728 0.36104 0.0
C458 C 0.69111 0.72827 0.36146 0.0
C459 C 0.7335 0.76289 0.34332 0.0
C460 C 0.7427 0.81212 0.33821 0.0
C461 C 0.7063 0.82397 0.34746 0.0
C462 C 0.68098 0.67591 0.36867 0.0
C463 C 0.78775 0.85044 0.31954 0.0
C464 C 0.8139 0.70637 0.3265 0.0
C465 C 0.78749 0.67526 0.30012 0.0
C466 C 0.80073 0.74039 0.33917 0.0
C467 C 0.76117 0.74363 0.3245 0.0
C468 C 0.7404 0.71836 0.29466 0.0
C469 C 0.75332 0.68369 0.28306 0.0
C470 C 0.82455 0.76745 0.37057 0.0
C471 C 0.69974 0.72277 0.27733 0.0
H472 H 0.62021 0.71271 0.38085 0.0
H473 H 0.71135 0.86028 0.34079 0.0
H474 H 0.66954 0.65343 0.34585 0.0
H475 H 0.71512 0.67689 0.37787 0.0
H476 H 0.65082 0.65657 0.38701 0.0
H477 H 0.79758 0.8892 0.32644 0.0
H478 H 0.82056 0.84578 0.32368 0.0
H479 H 0.77917 0.84575 0.29301 0.0
H480 H 0.84049 0.69988 0.33971 0.0
H481 H 0.73341 0.65994 0.26243 0.0
H482 H 0.80183 0.7445 0.39151 0.0
H483 H 0.82648 0.80433 0.37188 0.0
H484 H 0.86273 0.77318 0.37332 0.0
H485 H 0.66414 0.70087 0.29082 0.0
H486 H 0.69414 0.7082 0.25192 0.0
H487 H 0.70858 0.76237 0.27657 0.0
C488 C 0.03371 0.69929 0.63404 0.0
C489 C 0.07723 0.74098 0.6453 0.0
C490 C 0.98719 0.68897 0.64587 0.0
C491 C 0.98476 0.72019 0.67044 0.0
C492 C 0.02837 0.76464 0.67986 0.0
C493 C 0.07429 0.77485 0.6668 0.0
C494 C 0.94116 0.64211 0.6342 0.0
C495 C 0.0277 0.79878 0.70604 0.0
C496 C 0.85047 0.67689 0.68623 0.0
C497 C 0.83863 0.63516 0.70604 0.0
C498 C 0.89994 0.70997 0.67721 0.0
C499 C 0.93783 0.70145 0.68906 0.0
C500 C 0.92684 0.66515 0.71373 0.0
C501 C 0.87698 0.63176 0.72166 0.0
C502 C 0.9104 0.74915 0.65154 0.0
C503 C 0.96692 0.65707 0.72842 0.0
H504 H 0.03631 0.6733 0.6174 0.0
H505 H 0.10827 0.80684 0.67583 0.0
H506 H 0.9274 0.61344 0.65384 0.0
H507 H 0.91097 0.65025 0.62838 0.0
H508 H 0.94869 0.62589 0.61216 0.0
H509 H 0.05906 0.83775 0.70285 0.0
H510 H 0.99213 0.79919 0.70622 0.0
H511 H 0.03209 0.78527 0.73026 0.0
H512 H 0.82095 0.68028 0.67447 0.0
H513 H 0.86792 0.60027 0.73764 0.0
H514 H 0.91142 0.73387 0.62717 0.0
H515 H 0.94704 0.78339 0.65563 0.0
H516 H 0.88092 0.75961 0.65112 0.0
H517 H 0.97738 0.63666 0.71067 0.0
H518 H 0.95408 0.63464 0.75126 0.0
H519 H 0.00084 0.69346 0.73386 0.0
C520 C 0.35305 0.08353 0.96885 0.0
C521 C 0.35199 0.12465 0.98227 0.0
C522 C 0.31541 0.03471 0.97608 0.0
C523 C 0.27695 0.02733 0.99807 0.0
C524 C 0.27262 0.06867 0.00853 0.0
C525 C 0.31024 0.11718 1.00021 0.0
C526 C 0.32 0.9913 0.9631 0.0
C527 C 0.23174 0.06237 0.03142 0.0
C528 C 0.19136 0.88928 0.00942 0.0
C529 C 0.21984 0.87953 0.03168 0.0
C530 C 0.20595 0.93865 1.00053 0.0
C531 C 0.24918 0.97841 0.0149 0.0
C532 C 0.27289 0.96867 0.04119 0.0
C533 C 0.25839 0.91902 0.04891 0.0
C534 C 0.17909 0.94738 0.97284 0.0
C535 C 0.31784 0.01033 0.05819 0.0
H536 H 0.385 0.08952 0.9545 0.0
H537 H 0.3093 0.14913 0.01051 0.0
H538 H 0.33266 0.97583 0.98299 0.0
H539 H 0.28337 0.96082 0.95436 0.0
H540 H 0.3472 0.00283 0.9427 0.0
H541 H 0.22454 0.09412 0.02917 0.0
H542 H 0.19654 0.02676 0.02681 0.0
H543 H 0.24335 0.06158 0.05695 0.0
H544 H 0.16142 0.85852 0.99605 0.0
H545 H 0.27996 0.91119 0.06635 0.0
H546 H 0.19688 0.94701 0.94938 0.0
H547 H 0.18097 0.98416 0.97505 0.0
H548 H 0.13936 0.91725 0.9718 0.0
H549 H 0.35083 0.0243 0.04194 0.0
H550 H 0.32632 0.99739 0.08138 0.0
H551 H 0.31191 0.04222 0.06363 0.0
C552 C 0.91402 0.32942 0.12742 0.0
C553 C 0.93268 0.31596 0.10029 0.0
C554 C 0.93824 0.34085 0.15778 0.0
C555 C 0.98237 0.33854 0.16156 0.0
C556 C 0.00127 0.32437 0.13446 0.0
C557 C 0.97635 0.3135 0.10405 0.0
C558 C 0.91716 0.35673 0.18562 0.0
C559 C 0.04816 0.32129 0.13753 0.0
C560 C 0.07388 0.42225 0.22658 0.0
C561 C 0.06463 0.38883 0.25246 0.0
C562 C 0.04725 0.40635 0.19718 0.0
C563 C 0.01071 0.35529 0.19306 0.0
C564 C 0.00033 0.32133 0.21936 0.0
C565 C 0.02722 0.33861 0.24895 0.0
C566 C 0.05875 0.44429 0.17034 0.0
C567 C 0.96177 0.26658 0.21589 0.0
H568 H 0.88037 0.33164 0.12491 0.0
H569 H 0.99082 0.30281 0.08337 0.0
H570 H 0.91134 0.333 0.20739 0.0
H571 H 0.94407 0.39602 0.19262 0.0
H572 H 0.88116 0.35422 0.17919 0.0
H573 H 0.05616 0.3064 0.11503 0.0
H574 H 0.08035 0.3591 0.1426 0.0
H575 H 0.04485 0.29688 0.15843 0.0
H576 H 0.10287 0.46115 0.2292 0.0
H577 H 0.02061 0.31251 0.26866 0.0
H578 H 0.0245 0.44509 0.16353 0.0
H579 H 0.07175 0.43344 0.1482 0.0
H580 H 0.08781 0.48274 0.17762 0.0
H581 H 0.92503 0.26239 0.2097 0.0
H582 H 0.9578 0.24504 0.23855 0.0
H583 H 0.97225 0.24992 0.19551 0.0
C584 C 0.71396 0.11208 0.53863 0.0
C585 C 0.7217 0.09127 0.56706 0.0
C586 C 0.70186 0.08657 0.50876 0.0
C587 C 0.69768 0.03885 0.50682 0.0
C588 C 0.70657 0.01785 0.53516 0.0
C589 C 0.71819 0.04421 0.56511 0.0
C590 C 0.69161 0.11004 0.47953 0.0
C591 C 0.70282 0.96716 0.53395 0.0
C592 C 0.6084 0.95315 0.44189 0.0
C593 C 0.64048 0.95791 0.41619 0.0
C594 C 0.62671 0.9785 0.47153 0.0
C595 C 0.67872 0.00931 0.47597 0.0
C596 C 0.71154 0.01471 0.45005 0.0
C597 C 0.69197 0.98914 0.42026 0.0
C598 C 0.59014 0.97253 0.49802 0.0
C599 C 0.76724 0.04708 0.45396 0.0
H600 H 0.7164 0.14838 0.53972 0.0
H601 H 0.72447 0.02806 0.58684 0.0
H602 H 0.71469 0.11138 0.45843 0.0
H603 H 0.65197 0.08682 0.47216 0.0
H604 H 0.6993 0.14869 0.48461 0.0
H605 H 0.71543 0.95814 0.55706 0.0
H606 H 0.6636 0.93774 0.52935 0.0
H607 H 0.72555 0.96575 0.51347 0.0
H608 H 0.56849 0.92909 0.43888 0.0
H609 H 0.7169 0.99226 0.40067 0.0
H610 H 0.59395 0.00948 0.50379 0.0
H611 H 0.59834 0.95839 0.52074 0.0
H612 H 0.55087 0.94631 0.49089 0.0
H613 H 0.77722 0.08652 0.45846 0.0
H614 H 0.78782 0.04591 0.43207 0.0
H615 H 0.77982 0.03456 0.47552 0.0
C616 C 0.60148 0.71835 0.86667 0.0
C617 C 0.617 0.70347 0.89467 0.0
C618 C 0.61198 0.70841 0.83514 0.0
C619 C 0.63868 0.68269 0.83122 0.0
C620 C 0.65732 0.67036 0.85933 0.0
C621 C 0.64635 0.68103 0.89083 0.0
C622 C 0.59159 0.72258 0.80608 0.0
C623 C 0.68635 0.64329 0.85619 0.0
C624 C 0.60678 0.59522 0.75845 0.0
C625 C 0.64755 0.62232 0.73765 0.0
C626 C 0.60295 0.61509 0.78842 0.0
C627 C 0.64131 0.66322 0.79822 0.0
C628 C 0.68147 0.69191 0.77654 0.0
C629 C 0.68409 0.67108 0.74639 0.0
C630 C 0.55892 0.5834 0.81031 0.0
C631 C 0.72307 0.74333 0.78598 0.0
H632 H 0.57936 0.73643 0.86936 0.0
H633 H 0.6585 0.66951 0.9123 0.0
H634 H 0.62085 0.74162 0.78721 0.0
H635 H 0.56089 0.68815 0.79482 0.0
H636 H 0.57689 0.74761 0.81297 0.0
H637 H 0.70319 0.64162 0.87977 0.0
H638 H 0.66118 0.60441 0.84759 0.0
H639 H 0.7164 0.66203 0.83776 0.0
H640 H 0.57906 0.55709 0.75198 0.0
H641 H 0.71648 0.69143 0.73083 0.0
H642 H 0.53986 0.60442 0.81715 0.0
H643 H 0.57201 0.57449 0.83322 0.0
H644 H 0.53132 0.54764 0.79851 0.0
H645 H 0.70777 0.76687 0.79495 0.0
H646 H 0.7487 0.76283 0.76525 0.0
H647 H 0.74492 0.73985 0.80625 0.0
C648 C 0.02428 0.66969 0.09718 0.0
C649 C 0.07621 0.69113 0.09628 0.0
C650 C -0.00117 0.65976 0.12734 0.0
C651 C 0.02605 0.67204 0.15713 0.0
C652 C 0.07854 0.6952 0.15615 0.0
C653 C 0.10278 0.70425 0.12592 0.0
C654 C 0.94273 0.63492 0.12738 0.0
C655 C 0.10918 0.70926 0.18712 0.0
C656 C 0.96271 0.67661 0.23618 0.0
C657 C 0.94695 0.62897 0.24919 0.0
C658 C 0.98927 0.69165 0.20648 0.0
C659 C -0.00016 0.65797 0.18939 0.0
C660 C 0.98575 0.61062 0.20333 0.0
C661 C 0.9592 0.59664 0.2329 0.0
C662 C 0.00386 0.74254 0.19262 0.0
C663 C -0.0033 0.57372 0.18628 0.0
H664 H 0.00352 0.65957 0.07446 0.0
H665 H 0.14304 0.72148 0.12563 0.0
H666 H 0.92647 0.59748 0.13906 0.0
H667 H 0.93082 0.65741 0.142 0.0
H668 H 0.92721 0.63016 0.10233 0.0
H669 H 0.14989 0.72982 0.18215 0.0
H670 H 0.10019 0.73301 0.20284 0.0
H671 H 0.09989 0.67491 0.20121 0.0
H672 H 0.95157 0.70086 0.24816 0.0
H673 H 0.94556 0.55916 0.24246 0.0
H674 H 0.98306 0.73796 0.16962 0.0
H675 H 0.04415 0.76324 0.18651 0.0
H676 H -0.00408 0.76554 0.20984 0.0
H677 H 0.97713 0.56291 0.16241 0.0
H678 H 0.98481 0.53919 0.20091 0.0
H679 H 0.03721 0.59127 0.18124 0.0
C680 C 0.36357 0.01184 0.43058 0.0
C681 C 0.33504 0.02673 0.41232 0.0
C682 C 0.34463 0.9832 0.45908 0.0
C683 C 0.29619 0.96998 0.46998 0.0
C684 C 0.26625 0.98292 0.45073 0.0
C685 C 0.28608 0.01116 0.42198 0.0
C686 C 0.37748 0.96929 0.47837 0.0
C687 C 0.2145 0.96961 0.46152 0.0
C688 C 0.24136 0.86428 0.53163 0.0
C689 C 0.25438 0.89014 0.5616 0.0
C690 C 0.25269 0.88971 0.50174 0.0
C691 C 0.27744 0.9426 0.50154 0.0
C692 C 0.28832 0.96905 0.53164 0.0
C693 C 0.27669 0.94245 0.56143 0.0
C694 C 0.24056 0.85994 0.47039 0.0
C695 C 0.31423 0.02554 0.53235 0.0
H696 H 0.40191 0.02509 0.42349 0.0
H697 H 0.26471 0.02426 0.40846 0.0
H698 H 0.3862 0.98823 0.5025 0.0
H699 H 0.35772 0.9283 0.48293 0.0
H700 H 0.4131 0.98008 0.4656 0.0
H701 H 0.19452 0.97857 0.44255 0.0
H702 H 0.19214 0.92913 0.4675 0.0
H703 H 0.21697 0.99073 0.48407 0.0
H704 H 0.22347 0.82373 0.53139 0.0
H705 H 0.28671 0.96264 0.58442 0.0
H706 H 0.27566 0.86745 0.45825 0.0
H707 H 0.22056 0.8716 0.45323 0.0
H708 H 0.21735 0.81893 0.47464 0.0
H709 H 0.353 0.04138 0.52331 0.0
H710 H 0.3155 0.04021 0.55734 0.0
H711 H 0.29503 0.03905 0.51587 0.0
C712 C 0.36665 0.33639 0.90633 0.0
C713 C 0.3816 0.30089 0.91108 0.0
C714 C 0.3536 0.34475 0.87484 0.0
C715 C 0.3551 0.31653 0.84781 0.0
C716 C 0.36697 0.27842 0.85313 0.0
C717 C 0.38029 0.27132 0.88456 0.0
C718 C 0.3408 0.38556 0.87019 0.0
C719 C 0.36836 0.24693 0.82531 0.0
C720 C 0.29447 0.32203 0.76797 0.0
C721 C 0.33515 0.36041 0.75125 0.0
C722 C 0.30044 0.30617 0.79904 0.0
C723 C 0.34831 0.32939 0.81368 0.0
C724 C 0.38999 0.36597 0.79585 0.0
C725 C 0.38277 0.38137 0.765 0.0
C726 C 0.25502 0.26714 0.81708 0.0
C727 C 0.44183 0.39115 0.81021 0.0
H728 H 0.36797 0.35951 0.9267 0.0
H729 H 0.39146 0.24347 0.88821 0.0
H730 H 0.37045 0.41649 0.85562 0.0
H731 H 0.30543 0.37099 0.85636 0.0
H732 H 0.33705 0.40109 0.89383 0.0
H733 H 0.37339 0.2156 0.83401 0.0
H734 H 0.33348 0.23112 0.81082 0.0
H735 H 0.39965 0.2708 0.80866 0.0
H736 H 0.25732 0.30726 0.75792 0.0
H737 H 0.41391 0.41232 0.75261 0.0
H738 H 0.24692 0.28505 0.83788 0.0
H739 H 0.26187 0.23782 0.82734 0.0
H740 H 0.22158 0.24891 0.80109 0.0
H741 H 0.44344 0.41351 0.83191 0.0
H742 H 0.47058 0.41642 0.79245 0.0
H743 H 0.45121 0.3626 0.81852 0.0
C744 C 0.21782 0.49179 0.44731 0.0
C745 C 0.19307 0.44959 0.42704 0.0
C746 C 0.22434 0.48711 0.48088 0.0
C747 C 0.20645 0.43892 0.49473 0.0
C748 C 0.1796 0.39595 0.47463 0.0
C749 C 0.17314 0.40179 0.44102 0.0
C750 C 0.25234 0.53404 0.50124 0.0
C751 C 0.15993 0.3439 0.48822 0.0
C752 C 0.27283 0.43963 0.57412 0.0
C753 C 0.2409 0.44122 0.59774 0.0
C754 C 0.26105 0.43649 0.54046 0.0
C755 C 0.21611 0.43429 0.53024 0.0
C756 C 0.18254 0.43274 0.55424 0.0
C757 C 0.19539 0.43642 0.58745 0.0
C758 C 0.29783 0.43794 0.51574 0.0
C759 C 0.134 0.42976 0.54486 0.0
H760 H 0.23424 0.52882 0.43648 0.0
H761 H 0.15546 0.36911 0.42529 0.0
H762 H 0.22954 0.53241 0.5226 0.0
H763 H 0.28714 0.5368 0.51079 0.0
H764 H 0.26226 0.56856 0.4871 0.0
H765 H 0.13621 0.31436 0.47032 0.0
H766 H 0.19166 0.33865 0.49506 0.0
H767 H 0.1379 0.33878 0.51071 0.0
H768 H 0.30796 0.44327 0.5818 0.0
H769 H 0.16995 0.43668 0.60554 0.0
H770 H 0.31429 0.47376 0.50199 0.0
H771 H 0.27866 0.4071 0.49777 0.0
H772 H 0.3285 0.43476 0.52738 0.0
H773 H 0.14183 0.46535 0.533 0.0
H774 H 0.10956 0.42324 0.56634 0.0
H775 H 0.11343 0.39917 0.52695 0.0
C776 C 0.82254 0.18974 0.90851 0.0
C777 C 0.83962 0.23939 0.91832 0.0
C778 C 0.81519 0.17599 0.87531 0.0
C779 C 0.82482 0.21276 0.85123 0.0
C780 C 0.84607 0.26371 0.86092 0.0
C781 C 0.85288 0.27635 0.89438 0.0
C782 C 0.79286 0.1214 0.86636 0.0
C783 C 0.85769 0.30437 0.83615 0.0
C784 C 0.82418 0.18962 0.75945 0.0
C785 C 0.77827 0.1844 0.75004 0.0
C786 C 0.83903 0.19627 0.79247 0.0
C787 C 0.80708 0.19761 0.81674 0.0
C788 C 0.7591 0.18856 0.80748 0.0
C789 C 0.74559 0.18276 0.77423 0.0
C790 C 0.89052 0.20601 0.80092 0.0
C791 C 0.72332 0.1887 0.83245 0.0
H792 H 0.81099 0.16084 0.92704 0.0
H793 H 0.86465 0.31444 0.90189 0.0
H794 H 0.7531 0.10587 0.85967 0.0
H795 H 0.8121 0.11699 0.84485 0.0
H796 H 0.79488 0.09894 0.88692 0.0
H797 H 0.87961 0.34244 0.84694 0.0
H798 H 0.87884 0.30122 0.81531 0.0
H799 H 0.82235 0.29999 0.82631 0.0
H800 H 0.85029 0.1927 0.74067 0.0
H801 H 0.71081 0.18034 0.76695 0.0
H802 H 0.88956 0.18493 0.82313 0.0
H803 H 0.91509 0.24649 0.80621 0.0
H804 H 0.90733 0.1956 0.78057 0.0
H805 H 0.71924 0.16386 0.85326 0.0
H806 H 0.68586 0.17616 0.8219 0.0
H807 H 0.73828 0.22716 0.8423 0.0
C808 C 0.62773 0.81707 0.23549 0.0
C809 C 0.59302 0.83238 0.2424 0.0
C810 C 0.63355 0.80364 0.20357 0.0
C811 C 0.60384 0.80551 0.1779 0.0
C812 C 0.57171 0.82493 0.18442 0.0
C813 C 0.5662 0.83747 0.21665 0.0
C814 C 0.66813 0.78315 0.1981 0.0
C815 C 0.54005 0.82869 0.15779 0.0
C816 C 0.62188 0.78969 0.08729 0.0
C817 C 0.58144 0.74156 0.08122 0.0
C818 C 0.63199 0.8102 0.11905 0.0
C819 C 0.6012 0.78162 0.14542 0.0
C820 C 0.56345 0.73119 0.13976 0.0
C821 C 0.55357 0.71209 0.1077 0.0
C822 C 0.67243 0.86405 0.12363 0.0
C823 C 0.53048 0.69872 0.16715 0.0
H824 H 0.64738 0.81156 0.25555 0.0
H825 H 0.53831 0.84785 0.22208 0.0
H826 H 0.64594 0.74159 0.19733 0.0
H827 H 0.68804 0.79617 0.17446 0.0
H828 H 0.69604 0.79425 0.21804 0.0
H829 H 0.52193 0.85019 0.16579 0.0
H830 H 0.56298 0.847 0.13582 0.0
H831 H 0.5105 0.79049 0.15056 0.0
H832 H 0.64247 0.81327 0.06676 0.0
H833 H 0.52143 0.67547 0.10299 0.0
H834 H 0.69346 0.86877 0.14655 0.0
H835 H 0.65518 0.888 0.12546 0.0
H836 H 0.69898 0.87766 0.1028 0.0
H837 H 0.5533 0.70085 0.18863 0.0
H838 H 0.50743 0.65884 0.15966 0.0
H839 H 0.50515 0.71248 0.17494 0.0
C840 C 0.81395 0.58706 0.42596 0.0
C841 C 0.78312 0.5423 0.40913 0.0
C842 C 0.80774 0.59127 0.45985 0.0
C843 C 0.77017 0.54961 0.47736 0.0
C844 C 0.74021 0.50396 0.46053 0.0
C845 C 0.74688 0.50099 0.42682 0.0
C846 C 0.84046 0.64063 0.47675 0.0
C847 C 0.70044 0.45816 0.47805 0.0
C848 C 0.77733 0.53341 0.56896 0.0
C849 C 0.74031 0.5426 0.58148 0.0
C850 C 0.78902 0.53805 0.53555 0.0
C851 C 0.7632 0.55228 0.51352 0.0
C852 C 0.72742 0.564 0.52602 0.0
C853 C 0.71648 0.55919 0.55987 0.0
C854 C 0.82754 0.52534 0.52367 0.0
C855 C 0.69923 0.57965 0.50343 0.0
H856 H 0.84134 0.61941 0.4124 0.0
H857 H 0.72281 0.46626 0.41401 0.0
H858 H 0.81708 0.65537 0.48684 0.0
H859 H 0.86013 0.63526 0.49762 0.0
H860 H 0.86857 0.66912 0.46 0.0
H861 H 0.68023 0.42552 0.46144 0.0
H862 H 0.71746 0.44744 0.49802 0.0
H863 H 0.673 0.46668 0.48937 0.0
H864 H 0.79693 0.52155 0.58535 0.0
H865 H 0.68809 0.56665 0.56917 0.0
H866 H 0.85536 0.55573 0.50787 0.0
H867 H 0.80912 0.49068 0.5087 0.0
H868 H 0.8475 0.5193 0.54413 0.0
H869 H 0.72548 0.61031 0.48711 0.0
H870 H 0.67658 0.59243 0.51702 0.0
H871 H 0.67398 0.54755 0.48767 0.0
C872 C 0.19295 0.80541 0.90277 0.0
C873 C 0.17334 0.75636 0.91467 0.0
C874 C 0.19865 0.81574 0.86911 0.0
C875 C 0.18438 0.77598 0.84658 0.0
C876 C 0.1607 0.72587 0.85839 0.0
C877 C 0.1558 0.71665 0.89237 0.0
C878 C 0.22403 0.86964 0.85793 0.0
C879 C 0.14397 0.68223 0.83526 0.0
C880 C 0.18076 0.79632 0.75464 0.0
C881 C 0.22444 0.79764 0.74402 0.0
C882 C 0.16773 0.79079 0.788 0.0
C883 C 0.1995 0.78708 0.81136 0.0
C884 C 0.2453 0.79177 0.80083 0.0
C885 C 0.25675 0.7961 0.76727 0.0
C886 C 0.11829 0.78524 0.79784 0.0
C887 C 0.28101 0.78935 0.82483 0.0
H888 H 0.20742 0.83629 0.92003 0.0
H889 H 0.14175 0.67887 0.90145 0.0
H890 H 0.2623 0.88114 0.84945 0.0
H891 H 0.20378 0.87405 0.83703 0.0
H892 H 0.2267 0.89541 0.87783 0.0
H893 H 0.12043 0.6457 0.84765 0.0
H894 H 0.12264 0.68559 0.81461 0.0
H895 H 0.17711 0.6824 0.82485 0.0
H896 H 0.15477 0.79556 0.73658 0.0
H897 H 0.28972 0.79554 0.75903 0.0
H898 H 0.12277 0.80917 0.81927 0.0
H899 H 0.09244 0.7458 0.80507 0.0
H900 H 0.10087 0.79512 0.77762 0.0
H901 H 0.289 0.81617 0.84515 0.0
H902 H 0.31682 0.79798 0.81316 0.0
H903 H 0.2638 0.75124 0.8356 0.0
C904 C 0.41487 0.25856 0.25338 0.0
C905 C 0.41216 0.21427 0.26507 0.0
C906 C 0.4151 0.26803 0.21983 0.0
C907 C 0.41268 0.23254 0.19694 0.0
C908 C 0.4069 0.18637 0.20844 0.0
C909 C 0.40654 0.1777 0.24239 0.0
C910 C 0.42091 0.31752 0.20895 0.0
C911 C 0.40384 0.14731 0.18487 0.0
C912 C 0.395 0.24825 0.10568 0.0
C913 C 0.44419 0.27024 0.09428 0.0
C914 C 0.38392 0.23644 0.13915 0.0
C915 C 0.42294 0.2467 0.16155 0.0
C916 C 0.4728 0.27126 0.15021 0.0
C917 C 0.4827 0.28273 0.11692 0.0
C918 C 0.33034 0.21083 0.15023 0.0
C919 C 0.51579 0.28357 0.17303 0.0
H920 H 0.41813 0.28677 0.2706 0.0
H921 H 0.40415 0.14332 0.25109 0.0
H922 H 0.45869 0.34131 0.19852 0.0
H923 H 0.39355 0.31162 0.18952 0.0
H924 H 0.41593 0.33826 0.22944 0.0
H925 H 0.39364 0.11136 0.19728 0.0
H926 H 0.376 0.14011 0.1655 0.0
H927 H 0.44047 0.16134 0.17272 0.0
H928 H 0.36499 0.23742 0.08824 0.0
H929 H 0.52077 0.29935 0.10819 0.0
H930 H 0.32637 0.2301 0.17195 0.0
H931 H 0.3183 0.17173 0.15757 0.0
H932 H 0.30499 0.20991 0.13071 0.0
H933 H 0.51598 0.30728 0.19348 0.0
H934 H 0.55246 0.30358 0.16046 0.0
H935 H 0.51139 0.24853 0.1838 0.0
loop_
_geom_bond_atom_site_label_1
_geom_bond_atom_site_label_2
_geom_bond_distance
_geom_bond_site_symmetry_2
_ccdc_geom_bond_type
Co0 O1 2.216 . S
Co0 O2 2.091 . S
Co0 O4 2.004 . S
Co0 O10 2.021 . S
Co0 O12 2.137 . S
Co0 O13 2.244 . S
O1 Co0 2.216 . S
O1 C8 1.247 . S
O2 Co0 2.091 . S
O2 C8 1.261 . S
C3 O12 1.247 . S
C3 O13 1.272 . S
O4 Co0 2.004 . S
O4 C9 1.259 . S
Co5 O6 2.061 . S
Co5 O11 2.052 . S
Co5 O13 2.135 . S
O6 Co5 2.061 . S
O6 C9 1.235 . S
C7 O10 1.238 . S
C7 O11 1.241 . S
C8 O1 1.247 . S
C8 O2 1.261 . S
C9 O4 1.259 . S
C9 O6 1.235 . S
O10 Co0 2.021 . S
O10 C7 1.238 . S
O11 Co5 2.052 . S
O11 C7 1.241 . S
O12 Co0 2.137 . S
O12 C3 1.247 . S
O13 Co0 2.244 . S
O13 C3 1.272 . S
O13 Co5 2.135 . S
Co14 O15 2.216 . S
Co14 O16 2.091 . S
Co14 O18 2.004 . S
Co14 O24 2.021 . S
Co14 O26 2.137 . S
Co14 O27 2.244 . S
O15 Co14 2.216 . S
O15 C22 1.247 . S
O16 Co14 2.091 . S
O16 C22 1.261 . S
C17 O26 1.247 . S
C17 O27 1.272 . S
O18 Co14 2.004 . S
O18 C23 1.259 . S
Co19 O20 2.061 . S
Co19 O25 2.052 . S
Co19 O27 2.135 . S
O20 Co19 2.061 . S
O20 C23 1.235 . S
C21 O24 1.238 . S
C21 O25 1.241 . S
C22 O15 1.247 . S
C22 O16 1.261 . S
C23 O18 1.259 . S
C23 O20 1.235 . S
O24 Co14 2.021 . S
O24 C21 1.238 . S
O25 Co19 2.052 . S
O25 C21 1.241 . S
O26 Co14 2.137 . S
O26 C17 1.247 . S
O27 Co14 2.244 . S
O27 C17 1.272 . S
O27 Co19 2.135 . S
Co28 O29 2.216 . S
Co28 O30 2.091 . S
Co28 O32 2.004 1_556 S
Co28 O38 2.021 . S
Co28 O40 2.137 . S
Co28 O41 2.244 . S
O29 Co28 2.216 . S
O29 C36 1.247 . S
O30 Co28 2.091 . S
O30 C36 1.261 . S
C31 O40 1.247 . S
C31 O41 1.271 . S
O32 Co28 2.004 1_554 S
O32 C37 1.259 . S
Co33 O34 2.061 . S
Co33 O39 2.052 . S
Co33 O41 2.135 1_554 S
O34 Co33 2.061 . S
O34 C37 1.235 . S
C35 O38 1.238 . S
C35 O39 1.241 1_556 S
C36 O29 1.247 . S
C36 O30 1.261 . S
C37 O32 1.259 . S
C37 O34 1.235 . S
O38 Co28 2.021 . S
O38 C35 1.238 . S
O39 Co33 2.052 . S
O39 C35 1.241 1_554 S
O40 Co28 2.137 . S
O40 C31 1.247 . S
O41 Co28 2.244 . S
O41 C31 1.271 . S
O41 Co33 2.135 1_556 S
Co42 O43 2.216 . S
Co42 O44 2.091 . S
Co42 O46 2.004 . S
Co42 O52 2.021 . S
Co42 O54 2.137 . S
Co42 O55 2.244 . S
O43 Co42 2.216 . S
O43 C50 1.247 . S
O44 Co42 2.091 . S
O44 C50 1.261 . S
C45 O54 1.247 . S
C45 O55 1.272 . S
O46 Co42 2.004 . S
O46 C51 1.259 . S
Co47 O48 2.061 . S
Co47 O53 2.052 . S
Co47 O55 2.135 . S
O48 Co47 2.061 . S
O48 C51 1.235 . S
C49 O52 1.238 . S
C49 O53 1.241 . S
C50 O43 1.247 . S
C50 O44 1.261 . S
C51 O46 1.259 . S
C51 O48 1.235 . S
O52 Co42 2.021 . S
O52 C49 1.238 . S
O53 Co47 2.052 . S
O53 C49 1.241 . S
O54 Co42 2.137 . S
O54 C45 1.247 . S
O55 Co42 2.244 . S
O55 C45 1.272 . S
O55 Co47 2.135 . S
Co56 O57 2.216 . S
Co56 O58 2.091 . S
Co56 O60 2.004 . S
Co56 O66 2.021 . S
Co56 O68 2.137 . S
Co56 O69 2.244 . S
O57 Co56 2.216 . S
O57 C64 1.247 . S
O58 Co56 2.091 . S
O58 C64 1.261 . S
C59 O68 1.247 . S
C59 O69 1.272 . S
O60 Co56 2.004 . S
O60 C65 1.259 . S
Co61 O62 2.061 . S
Co61 O67 2.052 . S
Co61 O69 2.135 . S
O62 Co61 2.061 . S
O62 C65 1.235 . S
C63 O66 1.238 . S
C63 O67 1.241 . S
C64 O57 1.247 . S
C64 O58 1.261 . S
C65 O60 1.259 . S
C65 O62 1.235 . S
O66 Co56 2.021 . S
O66 C63 1.238 . S
O67 Co61 2.052 . S
O67 C63 1.241 . S
O68 Co56 2.137 . S
O68 C59 1.247 . S
O69 Co56 2.244 . S
O69 C59 1.272 . S
O69 Co61 2.135 . S
Co70 O71 2.216 . S
Co70 O72 2.091 . S
Co70 O74 2.004 1_556 S
Co70 O80 2.021 . S
Co70 O82 2.137 . S
Co70 O83 2.244 . S
O71 Co70 2.216 . S
O71 C78 1.247 . S
O72 Co70 2.091 . S
O72 C78 1.261 . S
C73 O82 1.247 . S
C73 O83 1.271 . S
O74 Co70 2.004 1_554 S
O74 C79 1.259 . S
Co75 O76 2.061 . S
Co75 O81 2.052 . S
Co75 O83 2.135 1_554 S
O76 Co75 2.061 . S
O76 C79 1.235 . S
C77 O80 1.238 . S
C77 O81 1.241 1_556 S
C78 O71 1.247 . S
C78 O72 1.261 . S
C79 O74 1.259 . S
C79 O76 1.235 . S
O80 Co70 2.021 . S
O80 C77 1.238 . S
O81 Co75 2.052 . S
O81 C77 1.241 1_554 S
O82 Co70 2.137 . S
O82 C73 1.247 . S
O83 Co70 2.244 . S
O83 C73 1.271 . S
O83 Co75 2.135 1_556 S
Co84 O85 2.216 . S
Co84 O86 2.091 . S
Co84 O88 2.004 . S
Co84 O94 2.021 . S
Co84 O96 2.137 . S
Co84 O97 2.244 . S
O85 Co84 2.216 . S
O85 C92 1.247 . S
O86 Co84 2.091 . S
O86 C92 1.261 . S
C87 O96 1.247 . S
C87 O97 1.272 . S
O88 Co84 2.004 . S
O88 C93 1.259 . S
Co89 O90 2.061 . S
Co89 O95 2.052 . S
Co89 O97 2.135 . S
O90 Co89 2.061 . S
O90 C93 1.235 . S
C91 O94 1.238 . S
C91 O95 1.241 . S
C92 O85 1.247 . S
C92 O86 1.261 . S
C93 O88 1.259 . S
C93 O90 1.235 . S
O94 Co84 2.021 . S
O94 C91 1.238 . S
O95 Co89 2.052 . S
O95 C91 1.241 . S
O96 Co84 2.137 . S
O96 C87 1.247 . S
O97 Co84 2.244 . S
O97 C87 1.272 . S
O97 Co89 2.135 . S
Co98 O99 2.216 . S
Co98 O100 2.091 . S
Co98 O102 2.004 . S
Co98 O108 2.021 . S
Co98 O110 2.137 . S
Co98 O111 2.244 . S
O99 Co98 2.216 . S
O99 C106 1.247 . S
O100 Co98 2.091 . S
O100 C106 1.261 . S
C101 O110 1.247 . S
C101 O111 1.272 . S
O102 Co98 2.004 . S
O102 C107 1.259 . S
Co103 O104 2.061 . S
Co103 O109 2.052 . S
Co103 O111 2.135 . S
O104 Co103 2.061 . S
O104 C107 1.235 . S
C105 O108 1.238 . S
C105 O109 1.241 . S
C106 O99 1.247 . S
C106 O100 1.261 . S
C107 O102 1.259 . S
C107 O104 1.235 . S
O108 Co98 2.021 . S
O108 C105 1.238 . S
O109 Co103 2.052 . S
O109 C105 1.241 . S
O110 Co98 2.137 . S
O110 C101 1.247 . S
O111 Co98 2.244 . S
O111 C101 1.272 . S
O111 Co103 2.135 . S
Co112 O113 2.216 . S
Co112 O114 2.091 . S
Co112 O116 2.004 1_554 S
Co112 O122 2.021 . S
Co112 O124 2.137 . S
Co112 O125 2.244 . S
O113 Co112 2.216 . S
O113 C120 1.247 . S
O114 Co112 2.091 . S
O114 C120 1.261 . S
C115 O124 1.247 . S
C115 O125 1.271 . S
O116 Co112 2.004 1_556 S
O116 C121 1.259 . S
Co117 O118 2.061 . S
Co117 O123 2.052 . S
Co117 O125 2.135 1_556 S
O118 Co117 2.061 . S
O118 C121 1.235 . S
C119 O122 1.238 . S
C119 O123 1.241 1_554 S
C120 O113 1.247 . S
C120 O114 1.261 . S
C121 O116 1.259 . S
C121 O118 1.235 . S
O122 Co112 2.021 . S
O122 C119 1.238 . S
O123 Co117 2.052 . S
O123 C119 1.241 1_556 S
O124 Co112 2.137 . S
O124 C115 1.247 . S
O125 Co112 2.244 . S
O125 C115 1.271 . S
O125 Co117 2.135 1_554 S
Co126 O127 2.216 . S
Co126 O128 2.091 . S
Co126 O130 2.004 . S
Co126 O136 2.021 . S
Co126 O138 2.137 . S
Co126 O139 2.244 . S
O127 Co126 2.216 . S
O127 C134 1.247 . S
O128 Co126 2.091 . S
O128 C134 1.261 . S
C129 O138 1.247 . S
C129 O139 1.272 . S
O130 Co126 2.004 . S
O130 C135 1.259 . S
Co131 O132 2.061 . S
Co131 O137 2.052 . S
Co131 O139 2.135 . S
O132 Co131 2.061 . S
O132 C135 1.235 . S
C133 O136 1.238 . S
C133 O137 1.241 . S
C134 O127 1.247 . S
C134 O128 1.261 . S
C135 O130 1.259 . S
C135 O132 1.235 . S
O136 Co126 2.021 . S
O136 C133 1.238 . S
O137 Co131 2.052 . S
O137 C133 1.241 . S
O138 Co126 2.137 . S
O138 C129 1.247 . S
O139 Co126 2.244 . S
O139 C129 1.272 . S
O139 Co131 2.135 . S
Co140 O141 2.216 . S
Co140 O142 2.091 . S
Co140 O144 2.004 . S
Co140 O150 2.021 . S
Co140 O152 2.137 . S
Co140 O153 2.244 . S
O141 Co140 2.216 . S
O141 C148 1.247 . S
O142 Co140 2.091 . S
O142 C148 1.261 . S
C143 O152 1.247 . S
C143 O153 1.272 . S
O144 Co140 2.004 . S
O144 C149 1.259 . S
Co145 O146 2.061 . S
Co145 O151 2.052 . S
Co145 O153 2.135 . S
O146 Co145 2.061 . S
O146 C149 1.235 . S
C147 O150 1.238 . S
C147 O151 1.241 . S
C148 O141 1.247 . S
C148 O142 1.261 . S
C149 O144 1.259 . S
C149 O146 1.235 . S
O150 Co140 2.021 . S
O150 C147 1.238 . S
O151 Co145 2.052 . S
O151 C147 1.241 . S
O152 Co140 2.137 . S
O152 C143 1.247 . S
O153 Co140 2.244 . S
O153 C143 1.272 . S
O153 Co145 2.135 . S
Co154 O155 2.216 . S
Co154 O156 2.091 . S
Co154 O158 2.004 1_554 S
Co154 O164 2.021 . S
Co154 O166 2.137 . S
Co154 O167 2.244 . S
O155 Co154 2.216 . S
O155 C162 1.247 . S
O156 Co154 2.091 . S
O156 C162 1.261 . S
C157 O166 1.247 . S
C157 O167 1.271 . S
O158 Co154 2.004 1_556 S
O158 C163 1.259 . S
Co159 O160 2.061 . S
Co159 O165 2.052 . S
Co159 O167 2.135 1_556 S
O160 Co159 2.061 . S
O160 C163 1.235 . S
C161 O164 1.238 . S
C161 O165 1.241 1_554 S
C162 O155 1.247 . S
C162 O156 1.261 . S
C163 O158 1.259 . S
C163 O160 1.235 . S
O164 Co154 2.021 . S
O164 C161 1.238 . S
O165 Co159 2.052 . S
O165 C161 1.241 1_556 S
O166 Co154 2.137 . S
O166 C157 1.247 . S
O167 Co154 2.244 . S
O167 C157 1.271 . S
O167 Co159 2.135 1_554 S
C168 C169 1.391 . S
C168 C170 1.394 . S
C168 H184 0.931 . S
C169 C168 1.391 . S
C169 C173 1.376 . S
C170 C168 1.394 . S
C170 C171 1.369 . S
C170 C174 1.531 . S
C171 C170 1.369 . S
C171 C172 1.410 . S
C171 C179 1.503 . S
C172 C171 1.410 . S
C172 C173 1.392 . S
C172 C175 1.511 . S
C173 C169 1.376 . S
C173 C172 1.392 . S
C173 H185 0.929 . S
C174 C170 1.531 . S
C174 H186 0.960 . S
C174 H187 0.962 . S
C174 H188 0.960 . S
C175 C172 1.511 . S
C175 H189 0.961 . S
C175 H190 0.961 . S
C175 H191 0.961 . S
C176 C177 1.370 . S
C176 C178 1.363 . S
C176 H192 0.931 . S
C177 C176 1.370 . S
C177 C181 1.408 . S
C178 C176 1.363 . S
C178 C179 1.370 . S
C178 C182 1.524 . S
C179 C171 1.503 . S
C179 C178 1.370 . S
C179 C180 1.403 . S
C180 C179 1.403 . S
C180 C181 1.404 . S
C180 C183 1.539 . S
C181 C177 1.408 . S
C181 C180 1.404 . S
C181 H193 0.930 . S
C182 C178 1.524 . S
C182 H194 0.956 . S
C182 H195 0.961 . S
C182 H196 0.961 . S
C183 C180 1.539 . S
C183 H197 0.958 . S
C183 H198 0.961 . S
C183 H199 0.960 . S
H184 C168 0.931 . S
H185 C173 0.929 . S
H186 C174 0.960 . S
H187 C174 0.962 . S
H188 C174 0.960 . S
H189 C175 0.961 . S
H190 C175 0.961 . S
H191 C175 0.961 . S
H192 C176 0.931 . S
H193 C181 0.930 . S
H194 C182 0.956 . S
H195 C182 0.961 . S
H196 C182 0.961 . S
H197 C183 0.958 . S
H198 C183 0.961 . S
H199 C183 0.960 . S
C200 C201 1.391 . S
C200 C202 1.394 . S
C200 H216 0.931 . S
C201 C200 1.391 . S
C201 C205 1.376 . S
C202 C200 1.394 . S
C202 C203 1.369 . S
C202 C206 1.531 . S
C203 C202 1.369 . S
C203 C204 1.410 . S
C203 C211 1.503 . S
C204 C203 1.410 . S
C204 C205 1.392 . S
C204 C207 1.511 . S
C205 C201 1.376 . S
C205 C204 1.392 . S
C205 H217 0.929 . S
C206 C202 1.531 . S
C206 H218 0.960 . S
C206 H219 0.962 . S
C206 H220 0.960 . S
C207 C204 1.511 . S
C207 H221 0.961 . S
C207 H222 0.961 . S
C207 H223 0.961 . S
C208 C209 1.370 . S
C208 C210 1.363 . S
C208 H224 0.931 . S
C209 C208 1.370 . S
C209 C213 1.408 . S
C210 C208 1.363 . S
C210 C211 1.370 . S
C210 C214 1.524 . S
C211 C203 1.503 . S
C211 C210 1.370 . S
C211 C212 1.403 . S
C212 C211 1.403 . S
C212 C213 1.404 . S
C212 C215 1.539 . S
C213 C209 1.408 . S
C213 C212 1.404 . S
C213 H225 0.930 . S
C214 C210 1.524 . S
C214 H226 0.956 . S
C214 H227 0.961 . S
C214 H228 0.961 . S
C215 C212 1.539 . S
C215 H229 0.958 . S
C215 H230 0.961 . S
C215 H231 0.960 . S
H216 C200 0.931 . S
H217 C205 0.929 . S
H218 C206 0.960 . S
H219 C206 0.962 . S
H220 C206 0.960 . S
H221 C207 0.961 . S
H222 C207 0.961 . S
H223 C207 0.961 . S
H224 C208 0.931 . S
H225 C213 0.930 . S
H226 C214 0.956 . S
H227 C214 0.961 . S
H228 C214 0.961 . S
H229 C215 0.958 . S
H230 C215 0.961 . S
H231 C215 0.960 . S
C232 C233 1.391 1_554 S
C232 C234 1.394 . S
C232 H248 0.931 . S
C233 C232 1.391 1_556 S
C233 C237 1.376 . S
C234 C232 1.394 . S
C234 C235 1.385 . S
C234 C238 1.531 . S
C235 C234 1.385 . S
C235 C236 1.392 1_554 S
C235 C243 1.504 . S
C236 C235 1.392 1_556 S
C236 C237 1.392 . S
C236 C239 1.511 . S
C237 C233 1.376 . S
C237 C236 1.392 . S
C237 H249 0.929 . S
C238 C234 1.531 . S
C238 H250 0.960 . S
C238 H251 0.962 . S
C238 H252 0.960 . S
C239 C236 1.511 . S
C239 H253 0.961 . S
C239 H254 0.961 . S
C239 H255 0.961 . S
C240 C241 1.370 1_556 S
C240 C242 1.363 . S
C240 H256 0.931 . S
C241 C240 1.370 1_554 S
C241 C245 1.408 . S
C242 C240 1.363 . S
C242 C243 1.370 1_556 S
C242 C246 1.524 . S
C243 C235 1.504 . S
C243 C242 1.370 1_554 S
C243 C244 1.403 . S
C244 C243 1.403 . S
C244 C245 1.404 . S
C244 C247 1.539 . S
C245 C241 1.408 . S
C245 C244 1.404 . S
C245 H257 0.930 . S
C246 C242 1.524 . S
C246 H258 0.956 1_556 S
C246 H259 0.961 . S
C246 H260 0.961 . S
C247 C244 1.539 . S
C247 H261 0.958 . S
C247 H262 0.961 . S
C247 H263 0.961 1_554 S
H248 C232 0.931 . S
H249 C237 0.929 . S
H250 C238 0.960 . S
H251 C238 0.962 . S
H252 C238 0.960 . S
H253 C239 0.961 . S
H254 C239 0.961 . S
H255 C239 0.961 . S
H256 C240 0.931 . S
H257 C245 0.930 . S
H258 C246 0.956 1_554 S
H259 C246 0.961 . S
H260 C246 0.961 . S
H261 C247 0.958 . S
H262 C247 0.961 . S
H263 C247 0.961 1_556 S
C264 C265 1.391 . S
C264 C266 1.394 . S
C264 H280 0.931 . S
C265 C264 1.391 . S
C265 C269 1.376 . S
C266 C264 1.394 . S
C266 C267 1.369 . S
C266 C270 1.531 . S
C267 C266 1.369 . S
C267 C268 1.410 . S
C267 C275 1.503 . S
C268 C267 1.410 . S
C268 C269 1.392 . S
C268 C271 1.511 . S
C269 C265 1.376 . S
C269 C268 1.392 . S
C269 H281 0.929 . S
C270 C266 1.531 . S
C270 H282 0.960 . S
C270 H283 0.962 . S
C270 H284 0.960 . S
C271 C268 1.511 . S
C271 H285 0.961 . S
C271 H286 0.961 . S
C271 H287 0.961 . S
C272 C273 1.370 . S
C272 C274 1.363 . S
C272 H288 0.931 . S
C273 C272 1.370 . S
C273 C277 1.408 . S
C274 C272 1.363 . S
C274 C275 1.370 . S
C274 C278 1.524 . S
C275 C267 1.503 . S
C275 C274 1.370 . S
C275 C276 1.403 . S
C276 C275 1.403 . S
C276 C277 1.404 . S
C276 C279 1.539 . S
C277 C273 1.408 . S
C277 C276 1.404 . S
C277 H289 0.930 . S
C278 C274 1.524 . S
C278 H290 0.956 . S
C278 H291 0.961 . S
C278 H292 0.961 . S
C279 C276 1.539 . S
C279 H293 0.958 . S
C279 H294 0.961 . S
C279 H295 0.960 . S
H280 C264 0.931 . S
H281 C269 0.929 . S
H282 C270 0.960 . S
H283 C270 0.962 . S
H284 C270 0.960 . S
H285 C271 0.961 . S
H286 C271 0.961 . S
H287 C271 0.961 . S
H288 C272 0.931 . S
H289 C277 0.930 . S
H290 C278 0.956 . S
H291 C278 0.961 . S
H292 C278 0.961 . S
H293 C279 0.958 . S
H294 C279 0.961 . S
H295 C279 0.960 . S
C296 C297 1.391 . S
C296 C298 1.394 . S
C296 H312 0.931 . S
C297 C296 1.391 . S
C297 C301 1.376 . S
C298 C296 1.394 . S
C298 C299 1.369 . S
C298 C302 1.531 . S
C299 C298 1.369 . S
C299 C300 1.410 . S
C299 C307 1.503 . S
C300 C299 1.410 . S
C300 C301 1.392 . S
C300 C303 1.511 . S
C301 C297 1.376 . S
C301 C300 1.392 . S
C301 H313 0.929 . S
C302 C298 1.531 . S
C302 H314 0.960 . S
C302 H315 0.962 . S
C302 H316 0.960 . S
C303 C300 1.511 . S
C303 H317 0.961 . S
C303 H318 0.961 . S
C303 H319 0.961 . S
C304 C305 1.370 . S
C304 C306 1.363 . S
C304 H320 0.931 . S
C305 C304 1.370 . S
C305 C309 1.408 . S
C306 C304 1.363 . S
C306 C307 1.370 . S
C306 C310 1.524 . S
C307 C299 1.503 . S
C307 C306 1.370 . S
C307 C308 1.403 . S
C308 C307 1.403 . S
C308 C309 1.404 . S
C308 C311 1.539 . S
C309 C305 1.408 . S
C309 C308 1.404 . S
C309 H321 0.930 . S
C310 C306 1.524 . S
C310 H322 0.956 . S
C310 H323 0.961 . S
C310 H324 0.961 . S
C311 C308 1.539 . S
C311 H325 0.958 . S
C311 H326 0.961 . S
C311 H327 0.960 . S
H312 C296 0.931 . S
H313 C301 0.929 . S
H314 C302 0.960 . S
H315 C302 0.962 . S
H316 C302 0.960 . S
H317 C303 0.961 . S
H318 C303 0.961 . S
H319 C303 0.961 . S
H320 C304 0.931 . S
H321 C309 0.930 . S
H322 C310 0.956 . S
H323 C310 0.961 . S
H324 C310 0.961 . S
H325 C311 0.958 . S
H326 C311 0.961 . S
H327 C311 0.960 . S
C328 C329 1.391 . S
C328 C330 1.394 . S
C328 H344 0.931 . S
C329 C328 1.391 . S
C329 C333 1.376 1_554 S
C330 C328 1.394 . S
C330 C331 1.369 1_554 S
C330 C334 1.531 . S
C331 C330 1.369 1_556 S
C331 C332 1.410 . S
C331 C339 1.503 . S
C332 C331 1.410 . S
C332 C333 1.392 . S
C332 C335 1.511 . S
C333 C329 1.376 1_556 S
C333 C332 1.392 . S
C333 H345 0.929 . S
C334 C330 1.531 . S
C334 H346 0.960 . S
C334 H347 0.962 . S
C334 H348 0.960 . S
C335 C332 1.511 . S
C335 H349 0.961 . S
C335 H350 0.961 . S
C335 H351 0.961 . S
C336 C337 1.370 1_554 S
C336 C338 1.363 . S
C336 H352 0.931 . S
C337 C336 1.370 1_556 S
C337 C341 1.408 . S
C338 C336 1.363 . S
C338 C339 1.370 1_554 S
C338 C342 1.524 . S
C339 C331 1.503 . S
C339 C338 1.370 1_556 S
C339 C340 1.403 . S
C340 C339 1.403 . S
C340 C341 1.404 . S
C340 C343 1.539 . S
C341 C337 1.408 . S
C341 C340 1.404 . S
C341 H353 0.930 . S
C342 C338 1.524 . S
C342 H354 0.956 . S
C342 H355 0.961 . S
C342 H356 0.961 . S
C343 C340 1.539 . S
C343 H357 0.958 . S
C343 H358 0.961 . S
C343 H359 0.960 . S
H344 C328 0.931 . S
H345 C333 0.929 . S
H346 C334 0.960 . S
H347 C334 0.962 . S
H348 C334 0.960 . S
H349 C335 0.961 . S
H350 C335 0.961 . S
H351 C335 0.961 . S
H352 C336 0.931 . S
H353 C341 0.930 . S
H354 C342 0.956 . S
H355 C342 0.961 . S
H356 C342 0.961 . S
H357 C343 0.958 . S
H358 C343 0.961 . S
H359 C343 0.960 . S
C360 C361 1.391 . S
C360 C362 1.394 . S
C360 H376 0.931 . S
C361 C360 1.391 . S
C361 C365 1.376 . S
C362 C360 1.394 . S
C362 C363 1.369 . S
C362 C366 1.531 . S
C363 C362 1.369 . S
C363 C364 1.410 . S
C363 C371 1.503 . S
C364 C363 1.410 . S
C364 C365 1.392 . S
C364 C367 1.511 . S
C365 C361 1.376 . S
C365 C364 1.392 . S
C365 H377 0.929 . S
C366 C362 1.531 . S
C366 H378 0.960 . S
C366 H379 0.962 . S
C366 H380 0.960 . S
C367 C364 1.511 . S
C367 H381 0.961 . S
C367 H382 0.961 . S
C367 H383 0.961 . S
C368 C369 1.370 . S
C368 C370 1.363 . S
C368 H384 0.931 . S
C369 C368 1.370 . S
C369 C373 1.408 . S
C370 C368 1.363 . S
C370 C371 1.370 . S
C370 C374 1.524 . S
C371 C363 1.503 . S
C371 C370 1.370 . S
C371 C372 1.403 . S
C372 C371 1.403 . S
C372 C373 1.404 . S
C372 C375 1.539 . S
C373 C369 1.408 . S
C373 C372 1.404 . S
C373 H385 0.930 . S
C374 C370 1.524 . S
C374 H386 0.956 . S
C374 H387 0.961 . S
C374 H388 0.961 . S
C375 C372 1.539 . S
C375 H389 0.958 . S
C375 H390 0.961 . S
C375 H391 0.960 . S
H376 C360 0.931 . S
H377 C365 0.929 . S
H378 C366 0.960 . S
H379 C366 0.962 . S
H380 C366 0.960 . S
H381 C367 0.961 . S
H382 C367 0.961 . S
H383 C367 0.961 . S
H384 C368 0.931 . S
H385 C373 0.930 . S
H386 C374 0.956 . S
H387 C374 0.961 . S
H388 C374 0.961 . S
H389 C375 0.958 . S
H390 C375 0.961 . S
H391 C375 0.960 . S
C392 C393 1.391 . S
C392 C394 1.394 . S
C392 H408 0.931 . S
C393 C392 1.391 . S
C393 C397 1.376 . S
C394 C392 1.394 . S
C394 C395 1.369 . S
C394 C398 1.531 . S
C395 C394 1.369 . S
C395 C396 1.410 . S
C395 C403 1.503 1_655 S
C396 C395 1.410 . S
C396 C397 1.392 . S
C396 C399 1.511 . S
C397 C393 1.376 . S
C397 C396 1.392 . S
C397 H409 0.929 . S
C398 C394 1.531 . S
C398 H410 0.960 1_655 S
C398 H411 0.962 . S
C398 H412 0.960 . S
C399 C396 1.511 . S
C399 H413 0.961 . S
C399 H414 0.961 1_655 S
C399 H415 0.961 . S
C400 C401 1.370 . S
C400 C402 1.363 . S
C400 H416 0.931 . S
C401 C400 1.370 . S
C401 C405 1.408 . S
C402 C400 1.363 . S
C402 C403 1.370 . S
C402 C406 1.524 . S
C403 C395 1.503 1_455 S
C403 C402 1.370 . S
C403 C404 1.403 . S
C404 C403 1.403 . S
C404 C405 1.404 . S
C404 C407 1.539 . S
C405 C401 1.408 . S
C405 C404 1.404 . S
C405 H417 0.930 . S
C406 C402 1.524 . S
C406 H418 0.956 . S
C406 H419 0.961 . S
C406 H420 0.961 . S
C407 C404 1.539 . S
C407 H421 0.958 . S
C407 H422 0.961 . S
C407 H423 0.960 . S
H408 C392 0.931 . S
H409 C397 0.929 . S
H410 C398 0.960 1_455 S
H411 C398 0.962 . S
H412 C398 0.960 . S
H413 C399 0.961 . S
H414 C399 0.961 1_455 S
H415 C399 0.961 . S
H416 C400 0.931 . S
H417 C405 0.930 . S
H418 C406 0.956 . S
H419 C406 0.961 . S
H420 C406 0.961 . S
H421 C407 0.958 . S
H422 C407 0.961 . S
H423 C407 0.960 . S
C424 C425 1.391 1_556 S
C424 C426 1.394 . S
C424 H440 0.931 . S
C425 C424 1.391 1_554 S
C425 C429 1.376 . S
C426 C424 1.394 . S
C426 C427 1.342 1_556 S
C426 C430 1.531 . S
C427 C426 1.342 1_554 S
C427 C428 1.440 . S
C427 C435 1.501 1_544 S
C428 C427 1.440 . S
C428 C429 1.392 . S
C428 C431 1.511 . S
C429 C425 1.376 . S
C429 C428 1.392 . S
C429 H441 0.929 . S
C430 C426 1.531 . S
C430 H442 0.960 . S
C430 H443 0.962 . S
C430 H444 0.960 . S
C431 C428 1.511 . S
C431 H445 0.961 . S
C431 H446 0.961 1_545 S
C431 H447 0.961 . S
C432 C433 1.370 . S
C432 C434 1.363 . S
C432 H448 0.931 . S
C433 C432 1.370 . S
C433 C437 1.408 . S
C434 C432 1.363 . S
C434 C435 1.370 . S
C434 C438 1.524 1_556 S
C435 C427 1.501 1_566 S
C435 C434 1.370 . S
C435 C436 1.403 . S
C436 C435 1.403 . S
C436 C437 1.404 . S
C436 C439 1.539 . S
C437 C433 1.408 . S
C437 C436 1.404 . S
C437 H449 0.930 . S
C438 C434 1.524 1_554 S
C438 H450 0.954 1_564 S
C438 H451 0.959 . S
C438 H452 0.961 . S
C439 C436 1.539 . S
C439 H453 0.958 . S
C439 H454 0.961 1_556 S
C439 H455 0.960 1_556 S
H440 C424 0.931 . S
H441 C429 0.929 . S
H442 C430 0.960 . S
H443 C430 0.962 . S
H444 C430 0.960 . S
H445 C431 0.961 . S
H446 C431 0.961 1_565 S
H447 C431 0.961 . S
H448 C432 0.931 . S
H449 C437 0.930 . S
H450 C438 0.954 1_546 S
H451 C438 0.959 . S
H452 C438 0.961 . S
H453 C439 0.958 . S
H454 C439 0.961 1_554 S
H455 C439 0.960 1_554 S
C456 C457 1.391 . S
C456 C458 1.394 . S
C456 H472 0.931 . S
C457 C456 1.391 . S
C457 C461 1.376 . S
C458 C456 1.394 . S
C458 C459 1.369 . S
C458 C462 1.531 . S
C459 C458 1.369 . S
C459 C460 1.410 . S
C459 C467 1.503 . S
C460 C459 1.410 . S
C460 C461 1.392 . S
C460 C463 1.511 . S
C461 C457 1.376 . S
C461 C460 1.392 . S
C461 H473 0.929 . S
C462 C458 1.531 . S
C462 H474 0.960 . S
C462 H475 0.962 . S
C462 H476 0.960 . S
C463 C460 1.511 . S
C463 H477 0.961 . S
C463 H478 0.961 . S
C463 H479 0.961 . S
C464 C465 1.370 . S
C464 C466 1.363 . S
C464 H480 0.931 . S
C465 C464 1.370 . S
C465 C469 1.408 . S
C466 C464 1.363 . S
C466 C467 1.370 . S
C466 C470 1.524 . S
C467 C459 1.503 . S
C467 C466 1.370 . S
C467 C468 1.403 . S
C468 C467 1.403 . S
C468 C469 1.404 . S
C468 C471 1.539 . S
C469 C465 1.408 . S
C469 C468 1.404 . S
C469 H481 0.930 . S
C470 C466 1.524 . S
C470 H482 0.956 . S
C470 H483 0.961 . S
C470 H484 0.961 . S
C471 C468 1.539 . S
C471 H485 0.958 . S
C471 H486 0.961 . S
C471 H487 0.960 . S
H472 C456 0.931 . S
H473 C461 0.929 . S
H474 C462 0.960 . S
H475 C462 0.962 . S
H476 C462 0.960 . S
H477 C463 0.961 . S
H478 C463 0.961 . S
H479 C463 0.961 . S
H480 C464 0.931 . S
H481 C469 0.930 . S
H482 C470 0.956 . S
H483 C470 0.961 . S
H484 C470 0.961 . S
H485 C471 0.958 . S
H486 C471 0.961 . S
H487 C471 0.960 . S
C488 C489 1.391 . S
C488 C490 1.394 . S
C488 H504 0.931 . S
C489 C488 1.391 . S
C489 C493 1.376 . S
C490 C488 1.394 . S
C490 C491 1.369 . S
C490 C494 1.531 . S
C491 C490 1.369 . S
C491 C492 1.410 . S
C491 C499 1.503 1_455 S
C492 C491 1.410 . S
C492 C493 1.392 . S
C492 C495 1.511 . S
C493 C489 1.376 . S
C493 C492 1.392 . S
C493 H505 0.929 . S
C494 C490 1.531 . S
C494 H506 0.960 1_455 S
C494 H507 0.962 . S
C494 H508 0.960 . S
C495 C492 1.511 . S
C495 H509 0.961 . S
C495 H510 0.961 1_455 S
C495 H511 0.961 . S
C496 C497 1.370 . S
C496 C498 1.363 . S
C496 H512 0.931 . S
C497 C496 1.370 . S
C497 C501 1.408 . S
C498 C496 1.363 . S
C498 C499 1.370 . S
C498 C502 1.524 . S
C499 C491 1.503 1_655 S
C499 C498 1.370 . S
C499 C500 1.403 . S
C500 C499 1.403 . S
C500 C501 1.404 . S
C500 C503 1.539 . S
C501 C497 1.408 . S
C501 C500 1.404 . S
C501 H513 0.930 . S
C502 C498 1.524 . S
C502 H514 0.956 . S
C502 H515 0.957 1_655 S
C502 H516 0.961 . S
C503 C500 1.539 . S
C503 H517 0.958 . S
C503 H518 0.961 . S
C503 H519 0.960 . S
H504 C488 0.931 . S
H505 C493 0.929 . S
H506 C494 0.960 1_655 S
H507 C494 0.962 . S
H508 C494 0.960 . S
H509 C495 0.961 . S
H510 C495 0.961 1_655 S
H511 C495 0.961 . S
H512 C496 0.931 . S
H513 C501 0.930 . S
H514 C502 0.956 . S
H515 C502 0.957 1_455 S
H516 C502 0.961 . S
H517 C503 0.958 . S
H518 C503 0.961 . S
H519 C503 0.960 . S
C520 C521 1.391 1_554 S
C520 C522 1.394 . S
C520 H536 0.931 . S
C521 C520 1.391 1_556 S
C521 C525 1.376 . S
C522 C520 1.394 . S
C522 C523 1.369 . S
C522 C526 1.531 . S
C523 C522 1.369 . S
C523 C524 1.410 1_554 S
C523 C531 1.503 1_545 S
C524 C523 1.410 1_556 S
C524 C525 1.392 . S
C524 C527 1.511 . S
C525 C521 1.376 . S
C525 C524 1.392 . S
C525 H537 0.929 . S
C526 C522 1.531 . S
C526 H538 0.970 . S
C526 H539 0.962 . S
C526 H540 0.960 . S
C527 C524 1.511 . S
C527 H541 0.961 . S
C527 H542 0.961 1_545 S
C527 H543 0.961 1_556 S
C528 C529 1.370 1_556 S
C528 C530 1.363 . S
C528 H544 0.931 . S
C529 C528 1.370 1_554 S
C529 C533 1.408 . S
C530 C528 1.363 . S
C530 C531 1.370 1_556 S
C530 C534 1.524 . S
C531 C523 1.503 1_565 S
C531 C530 1.370 1_554 S
C531 C532 1.403 . S
C532 C531 1.403 . S
C532 C533 1.404 . S
C532 C535 1.539 . S
C533 C529 1.408 . S
C533 C532 1.404 . S
C533 H545 0.930 . S
C534 C530 1.524 . S
C534 H546 0.956 . S
C534 H547 0.961 . S
C534 H548 0.961 . S
C535 C532 1.539 . S
C535 H549 0.958 . S
C535 H550 0.961 . S
C535 H551 0.960 1_565 S
H536 C520 0.931 . S
H537 C525 0.929 . S
H538 C526 0.970 . S
H539 C526 0.962 . S
H540 C526 0.960 . S
H541 C527 0.961 . S
H542 C527 0.961 1_565 S
H543 C527 0.961 1_554 S
H544 C528 0.931 . S
H545 C533 0.930 . S
H546 C534 0.956 . S
H547 C534 0.961 . S
H548 C534 0.961 . S
H549 C535 0.958 . S
H550 C535 0.961 . S
H551 C535 0.960 1_545 S
C552 C553 1.391 . S
C552 C554 1.394 . S
C552 H568 0.931 . S
C553 C552 1.391 . S
C553 C557 1.376 . S
C554 C552 1.394 . S
C554 C555 1.369 . S
C554 C558 1.531 . S
C555 C554 1.369 . S
C555 C556 1.410 1_655 S
C555 C563 1.503 . S
C556 C555 1.410 1_455 S
C556 C557 1.392 1_455 S
C556 C559 1.511 . S
C557 C553 1.376 . S
C557 C556 1.392 1_655 S
C557 H569 0.929 1_655 S
C558 C554 1.531 . S
C558 H570 0.960 . S
C558 H571 0.962 . S
C558 H572 0.960 . S
C559 C556 1.511 . S
C559 H573 0.961 . S
C559 H574 0.961 . S
C559 H575 0.961 . S
C560 C561 1.370 . S
C560 C562 1.363 . S
C560 H576 0.931 . S
C561 C560 1.370 . S
C561 C565 1.408 1_455 S
C562 C560 1.363 . S
C562 C563 1.370 1_455 S
C562 C566 1.524 . S
C563 C555 1.503 . S
C563 C562 1.370 1_655 S
C563 C564 1.403 . S
C564 C563 1.403 . S
C564 C565 1.404 . S
C564 C567 1.539 . S
C565 C561 1.408 1_655 S
C565 C564 1.404 . S
C565 H577 0.930 . S
C566 C562 1.524 . S
C566 H578 0.956 . S
C566 H579 0.961 . S
C566 H580 0.961 . S
C567 C564 1.539 . S
C567 H581 0.958 . S
C567 H582 0.961 . S
C567 H583 0.960 . S
H568 C552 0.931 . S
H569 C557 0.929 1_455 S
H570 C558 0.960 . S
H571 C558 0.962 . S
H572 C558 0.960 . S
H573 C559 0.961 . S
H574 C559 0.961 . S
H575 C559 0.961 . S
H576 C560 0.931 . S
H577 C565 0.930 . S
H578 C566 0.956 . S
H579 C566 0.961 . S
H580 C566 0.961 . S
H581 C567 0.958 . S
H582 C567 0.961 . S
H583 C567 0.960 . S
C584 C585 1.391 . S
C584 C586 1.394 . S
C584 H600 0.931 . S
C585 C584 1.391 . S
C585 C589 1.375 1_545 S
C586 C584 1.394 . S
C586 C587 1.369 . S
C586 C590 1.531 . S
C587 C586 1.369 . S
C587 C588 1.410 1_545 S
C587 C595 1.503 1_545 S
C588 C587 1.410 1_565 S
C588 C589 1.392 . S
C588 C591 1.511 . S
C589 C585 1.375 1_565 S
C589 C588 1.392 . S
C589 H601 0.929 . S
C590 C586 1.531 . S
C590 H602 0.960 . S
C590 H603 0.962 . S
C590 H604 0.960 . S
C591 C588 1.511 . S
C591 H605 0.961 . S
C591 H606 0.961 . S
C591 H607 0.961 . S
C592 C593 1.370 . S
C592 C594 1.363 . S
C592 H608 0.931 . S
C593 C592 1.370 . S
C593 C597 1.412 . S
C594 C592 1.363 . S
C594 C595 1.370 . S
C594 C598 1.524 . S
C595 C587 1.503 1_565 S
C595 C594 1.370 . S
C595 C596 1.403 1_565 S
C596 C595 1.403 1_545 S
C596 C597 1.400 1_545 S
C596 C599 1.539 . S
C597 C593 1.412 . S
C597 C596 1.400 1_565 S
C597 H609 0.931 1_565 S
C598 C594 1.524 . S
C598 H610 0.956 . S
C598 H611 0.961 . S
C598 H612 0.961 . S
C599 C596 1.539 . S
C599 H613 0.958 . S
C599 H614 0.961 . S
C599 H615 0.960 . S
H600 C584 0.931 . S
H601 C589 0.929 . S
H602 C590 0.960 . S
H603 C590 0.962 . S
H604 C590 0.960 . S
H605 C591 0.961 . S
H606 C591 0.961 . S
H607 C591 0.961 . S
H608 C592 0.931 . S
H609 C597 0.931 1_545 S
H610 C598 0.956 . S
H611 C598 0.961 . S
H612 C598 0.961 . S
H613 C599 0.958 . S
H614 C599 0.961 . S
H615 C599 0.960 . S
C616 C617 1.391 . S
C616 C618 1.394 . S
C616 H632 0.931 . S
C617 C616 1.391 . S
C617 C621 1.376 . S
C618 C616 1.394 . S
C618 C619 1.369 . S
C618 C622 1.531 . S
C619 C618 1.369 . S
C619 C620 1.410 . S
C619 C627 1.503 . S
C620 C619 1.410 . S
C620 C621 1.392 . S
C620 C623 1.511 . S
C621 C617 1.376 . S
C621 C620 1.392 . S
C621 H633 0.929 . S
C622 C618 1.531 . S
C622 H634 0.960 . S
C622 H635 0.962 . S
C622 H636 0.960 . S
C623 C620 1.511 . S
C623 H637 0.961 . S
C623 H638 0.961 . S
C623 H639 0.961 . S
C624 C625 1.370 . S
C624 C626 1.363 . S
C624 H640 0.931 . S
C625 C624 1.370 . S
C625 C629 1.408 . S
C626 C624 1.363 . S
C626 C627 1.370 . S
C626 C630 1.524 . S
C627 C619 1.503 . S
C627 C626 1.370 . S
C627 C628 1.403 . S
C628 C627 1.403 . S
C628 C629 1.404 . S
C628 C631 1.539 . S
C629 C625 1.408 . S
C629 C628 1.404 . S
C629 H641 0.930 . S
C630 C626 1.524 . S
C630 H642 0.956 . S
C630 H643 0.961 . S
C630 H644 0.961 . S
C631 C628 1.539 . S
C631 H645 0.958 . S
C631 H646 0.961 . S
C631 H647 0.960 . S
H632 C616 0.931 . S
H633 C621 0.929 . S
H634 C622 0.960 . S
H635 C622 0.962 . S
H636 C622 0.960 . S
H637 C623 0.961 . S
H638 C623 0.961 . S
H639 C623 0.961 . S
H640 C624 0.931 . S
H641 C629 0.930 . S
H642 C630 0.956 . S
H643 C630 0.961 . S
H644 C630 0.961 . S
H645 C631 0.958 . S
H646 C631 0.961 . S
H647 C631 0.960 . S
C648 C649 1.391 1_655 S
C648 C650 1.394 . S
C648 H664 0.931 . S
C649 C648 1.391 1_455 S
C649 C653 1.376 . S
C650 C648 1.394 . S
C650 C651 1.369 1_655 S
C650 C654 1.531 . S
C651 C650 1.369 1_455 S
C651 C652 1.410 . S
C651 C659 1.503 1_455 S
C652 C651 1.410 . S
C652 C653 1.392 . S
C652 C655 1.511 . S
C653 C649 1.376 . S
C653 C652 1.392 . S
C653 H665 0.929 . S
C654 C650 1.531 . S
C654 H666 0.960 . S
C654 H667 0.962 . S
C654 H668 0.960 . S
C655 C652 1.511 . S
C655 H669 0.961 . S
C655 H670 0.961 . S
C655 H671 0.961 . S
C656 C657 1.370 . S
C656 C658 1.363 . S
C656 H672 0.931 . S
C657 C656 1.370 . S
C657 C661 1.408 . S
C658 C656 1.363 . S
C658 C659 1.370 . S
C658 C662 1.524 . S
C659 C651 1.503 1_655 S
C659 C658 1.370 . S
C659 C660 1.403 . S
C660 C659 1.403 . S
C660 C661 1.404 . S
C660 C663 1.539 1_655 S
C661 C657 1.408 . S
C661 C660 1.404 . S
C661 H673 0.930 . S
C662 C658 1.524 . S
C662 H674 0.956 . S
C662 H675 0.961 1_655 S
C662 H676 0.961 . S
C663 C660 1.539 1_455 S
C663 H677 0.958 1_455 S
C663 H678 0.961 . S
C663 H679 0.960 . S
H664 C648 0.931 . S
H665 C653 0.929 . S
H666 C654 0.960 . S
H667 C654 0.962 . S
H668 C654 0.960 . S
H669 C655 0.961 . S
H670 C655 0.961 . S
H671 C655 0.961 . S
H672 C656 0.931 . S
H673 C661 0.930 . S
H674 C662 0.956 . S
H675 C662 0.961 1_455 S
H676 C662 0.961 . S
H677 C663 0.958 1_655 S
H678 C663 0.961 . S
H679 C663 0.960 . S
C680 C681 1.391 . S
C680 C682 1.394 . S
C680 H696 0.931 . S
C681 C680 1.391 . S
C681 C685 1.376 . S
C682 C680 1.394 . S
C682 C683 1.369 . S
C682 C686 1.531 . S
C683 C682 1.369 . S
C683 C684 1.411 1_545 S
C683 C691 1.497 1_545 S
C684 C683 1.411 1_565 S
C684 C685 1.388 1_565 S
C684 C687 1.514 . S
C685 C681 1.376 . S
C685 C684 1.388 1_545 S
C685 H697 0.929 1_545 S
C686 C682 1.531 . S
C686 H698 0.960 . S
C686 H699 0.962 . S
C686 H700 0.960 . S
C687 C684 1.514 . S
C687 H701 0.961 . S
C687 H702 0.961 . S
C687 H703 0.961 . S
C688 C689 1.370 . S
C688 C690 1.363 . S
C688 H704 0.931 . S
C689 C688 1.370 . S
C689 C693 1.408 1_565 S
C690 C688 1.363 . S
C690 C691 1.392 . S
C690 C694 1.524 . S
C691 C683 1.497 1_565 S
C691 C690 1.392 . S
C691 C692 1.387 1_565 S
C692 C691 1.387 1_545 S
C692 C693 1.404 . S
C692 C695 1.539 . S
C693 C689 1.408 1_545 S
C693 C692 1.404 . S
C693 H705 0.930 . S
C694 C690 1.524 . S
C694 H706 0.956 . S
C694 H707 0.961 . S
C694 H708 0.961 . S
C695 C692 1.539 . S
C695 H709 0.958 . S
C695 H710 0.961 . S
C695 H711 0.960 . S
H696 C680 0.931 . S
H697 C685 0.929 1_565 S
H698 C686 0.960 . S
H699 C686 0.962 . S
H700 C686 0.960 . S
H701 C687 0.961 . S
H702 C687 0.961 . S
H703 C687 0.961 . S
H704 C688 0.931 . S
H705 C693 0.930 . S
H706 C694 0.956 . S
H707 C694 0.961 . S
H708 C694 0.961 . S
H709 C695 0.958 . S
H710 C695 0.961 . S
H711 C695 0.960 . S
C712 C713 1.391 . S
C712 C714 1.394 . S
C712 H728 0.931 . S
C713 C712 1.391 . S
C713 C717 1.376 . S
C714 C712 1.394 . S
C714 C715 1.369 . S
C714 C718 1.531 . S
C715 C714 1.369 . S
C715 C716 1.410 . S
C715 C723 1.503 . S
C716 C715 1.410 . S
C716 C717 1.392 . S
C716 C719 1.511 . S
C717 C713 1.376 . S
C717 C716 1.392 . S
C717 H729 0.929 . S
C718 C714 1.531 . S
C718 H730 0.960 . S
C718 H731 0.962 . S
C718 H732 0.960 . S
C719 C716 1.511 . S
C719 H733 0.961 . S
C719 H734 0.961 . S
C719 H735 0.961 . S
C720 C721 1.370 . S
C720 C722 1.363 . S
C720 H736 0.931 . S
C721 C720 1.370 . S
C721 C725 1.408 . S
C722 C720 1.363 . S
C722 C723 1.370 . S
C722 C726 1.524 . S
C723 C715 1.503 . S
C723 C722 1.370 . S
C723 C724 1.403 . S
C724 C723 1.403 . S
C724 C725 1.404 . S
C724 C727 1.539 . S
C725 C721 1.408 . S
C725 C724 1.404 . S
C725 H737 0.930 . S
C726 C722 1.524 . S
C726 H738 0.956 . S
C726 H739 0.961 . S
C726 H740 0.961 . S
C727 C724 1.539 . S
C727 H741 0.958 . S
C727 H742 0.961 . S
C727 H743 0.960 . S
H728 C712 0.931 . S
H729 C717 0.929 . S
H730 C718 0.960 . S
H731 C718 0.962 . S
H732 C718 0.960 . S
H733 C719 0.961 . S
H734 C719 0.961 . S
H735 C719 0.961 . S
H736 C720 0.931 . S
H737 C725 0.930 . S
H738 C726 0.956 . S
H739 C726 0.961 . S
H740 C726 0.961 . S
H741 C727 0.958 . S
H742 C727 0.961 . S
H743 C727 0.960 . S
C744 C745 1.391 . S
C744 C746 1.394 . S
C744 H760 0.931 . S
C745 C744 1.391 . S
C745 C749 1.376 . S
C746 C744 1.394 . S
C746 C747 1.369 . S
C746 C750 1.531 . S
C747 C746 1.369 . S
C747 C748 1.410 . S
C747 C755 1.503 . S
C748 C747 1.410 . S
C748 C749 1.392 . S
C748 C751 1.511 . S
C749 C745 1.376 . S
C749 C748 1.392 . S
C749 H761 0.929 . S
C750 C746 1.531 . S
C750 H762 0.960 . S
C750 H763 0.962 . S
C750 H764 0.960 . S
C751 C748 1.511 . S
C751 H765 0.961 . S
C751 H766 0.961 . S
C751 H767 0.961 . S
C752 C753 1.370 . S
C752 C754 1.363 . S
C752 H768 0.931 . S
C753 C752 1.370 . S
C753 C757 1.408 . S
C754 C752 1.363 . S
C754 C755 1.370 . S
C754 C758 1.524 . S
C755 C747 1.503 . S
C755 C754 1.370 . S
C755 C756 1.403 . S
C756 C755 1.403 . S
C756 C757 1.404 . S
C756 C759 1.539 . S
C757 C753 1.408 . S
C757 C756 1.404 . S
C757 H769 0.930 . S
C758 C754 1.524 . S
C758 H770 0.956 . S
C758 H771 0.961 . S
C758 H772 0.961 . S
C759 C756 1.539 . S
C759 H773 0.958 . S
C759 H774 0.961 . S
C759 H775 0.960 . S
H760 C744 0.931 . S
H761 C749 0.929 . S
H762 C750 0.960 . S
H763 C750 0.962 . S
H764 C750 0.960 . S
H765 C751 0.961 . S
H766 C751 0.961 . S
H767 C751 0.961 . S
H768 C752 0.931 . S
H769 C757 0.930 . S
H770 C758 0.956 . S
H771 C758 0.961 . S
H772 C758 0.961 . S
H773 C759 0.958 . S
H774 C759 0.961 . S
H775 C759 0.960 . S
C776 C777 1.391 . S
C776 C778 1.394 . S
C776 H792 0.931 . S
C777 C776 1.391 . S
C777 C781 1.376 . S
C778 C776 1.394 . S
C778 C779 1.369 . S
C778 C782 1.531 . S
C779 C778 1.369 . S
C779 C780 1.410 . S
C779 C787 1.503 . S
C780 C779 1.410 . S
C780 C781 1.392 . S
C780 C783 1.511 . S
C781 C777 1.376 . S
C781 C780 1.392 . S
C781 H793 0.929 . S
C782 C778 1.531 . S
C782 H794 0.960 . S
C782 H795 0.962 . S
C782 H796 0.960 . S
C783 C780 1.511 . S
C783 H797 0.961 . S
C783 H798 0.961 . S
C783 H799 0.961 . S
C784 C785 1.370 . S
C784 C786 1.363 . S
C784 H800 0.931 . S
C785 C784 1.370 . S
C785 C789 1.408 . S
C786 C784 1.363 . S
C786 C787 1.370 . S
C786 C790 1.524 . S
C787 C779 1.503 . S
C787 C786 1.370 . S
C787 C788 1.403 . S
C788 C787 1.403 . S
C788 C789 1.404 . S
C788 C791 1.539 . S
C789 C785 1.408 . S
C789 C788 1.404 . S
C789 H801 0.930 . S
C790 C786 1.524 . S
C790 H802 0.956 . S
C790 H803 0.961 . S
C790 H804 0.961 . S
C791 C788 1.539 . S
C791 H805 0.958 . S
C791 H806 0.961 . S
C791 H807 0.960 . S
H792 C776 0.931 . S
H793 C781 0.929 . S
H794 C782 0.960 . S
H795 C782 0.962 . S
H796 C782 0.960 . S
H797 C783 0.961 . S
H798 C783 0.961 . S
H799 C783 0.961 . S
H800 C784 0.931 . S
H801 C789 0.930 . S
H802 C790 0.956 . S
H803 C790 0.961 . S
H804 C790 0.961 . S
H805 C791 0.958 . S
H806 C791 0.961 . S
H807 C791 0.960 . S
C808 C809 1.391 . S
C808 C810 1.394 . S
C808 H824 0.931 . S
C809 C808 1.391 . S
C809 C813 1.376 . S
C810 C808 1.394 . S
C810 C811 1.369 . S
C810 C814 1.531 . S
C811 C810 1.369 . S
C811 C812 1.410 . S
C811 C819 1.503 . S
C812 C811 1.410 . S
C812 C813 1.392 . S
C812 C815 1.511 . S
C813 C809 1.376 . S
C813 C812 1.392 . S
C813 H825 0.929 . S
C814 C810 1.531 . S
C814 H826 0.960 . S
C814 H827 0.962 . S
C814 H828 0.960 . S
C815 C812 1.511 . S
C815 H829 0.961 . S
C815 H830 0.961 . S
C815 H831 0.961 . S
C816 C817 1.370 . S
C816 C818 1.363 . S
C816 H832 0.931 . S
C817 C816 1.370 . S
C817 C821 1.408 . S
C818 C816 1.363 . S
C818 C819 1.370 . S
C818 C822 1.524 . S
C819 C811 1.503 . S
C819 C818 1.370 . S
C819 C820 1.403 . S
C820 C819 1.403 . S
C820 C821 1.404 . S
C820 C823 1.539 . S
C821 C817 1.408 . S
C821 C820 1.404 . S
C821 H833 0.930 . S
C822 C818 1.524 . S
C822 H834 0.956 . S
C822 H835 0.961 . S
C822 H836 0.961 . S
C823 C820 1.539 . S
C823 H837 0.958 . S
C823 H838 0.961 . S
C823 H839 0.960 . S
H824 C808 0.931 . S
H825 C813 0.929 . S
H826 C814 0.960 . S
H827 C814 0.962 . S
H828 C814 0.960 . S
H829 C815 0.961 . S
H830 C815 0.961 . S
H831 C815 0.961 . S
H832 C816 0.931 . S
H833 C821 0.930 . S
H834 C822 0.956 . S
H835 C822 0.961 . S
H836 C822 0.961 . S
H837 C823 0.958 . S
H838 C823 0.961 . S
H839 C823 0.960 . S
C840 C841 1.391 . S
C840 C842 1.394 . S
C840 H856 0.931 . S
C841 C840 1.391 . S
C841 C845 1.376 . S
C842 C840 1.394 . S
C842 C843 1.369 . S
C842 C846 1.531 . S
C843 C842 1.369 . S
C843 C844 1.410 . S
C843 C851 1.503 . S
C844 C843 1.410 . S
C844 C845 1.392 . S
C844 C847 1.511 . S
C845 C841 1.376 . S
C845 C844 1.392 . S
C845 H857 0.929 . S
C846 C842 1.531 . S
C846 H858 0.960 . S
C846 H859 0.962 . S
C846 H860 0.960 . S
C847 C844 1.511 . S
C847 H861 0.961 . S
C847 H862 0.961 . S
C847 H863 0.961 . S
C848 C849 1.370 . S
C848 C850 1.363 . S
C848 H864 0.931 . S
C849 C848 1.370 . S
C849 C853 1.408 . S
C850 C848 1.363 . S
C850 C851 1.370 . S
C850 C854 1.524 . S
C851 C843 1.503 . S
C851 C850 1.370 . S
C851 C852 1.403 . S
C852 C851 1.403 . S
C852 C853 1.404 . S
C852 C855 1.539 . S
C853 C849 1.408 . S
C853 C852 1.404 . S
C853 H865 0.930 . S
C854 C850 1.524 . S
C854 H866 0.956 . S
C854 H867 0.961 . S
C854 H868 0.961 . S
C855 C852 1.539 . S
C855 H869 0.958 . S
C855 H870 0.961 . S
C855 H871 0.960 . S
H856 C840 0.931 . S
H857 C845 0.929 . S
H858 C846 0.960 . S
H859 C846 0.962 . S
H860 C846 0.960 . S
H861 C847 0.961 . S
H862 C847 0.961 . S
H863 C847 0.961 . S
H864 C848 0.931 . S
H865 C853 0.930 . S
H866 C854 0.956 . S
H867 C854 0.961 . S
H868 C854 0.961 . S
H869 C855 0.958 . S
H870 C855 0.961 . S
H871 C855 0.960 . S
C872 C873 1.391 . S
C872 C874 1.394 . S
C872 H888 0.931 . S
C873 C872 1.391 . S
C873 C877 1.376 . S
C874 C872 1.394 . S
C874 C875 1.369 . S
C874 C878 1.531 . S
C875 C874 1.369 . S
C875 C876 1.410 . S
C875 C883 1.503 . S
C876 C875 1.410 . S
C876 C877 1.392 . S
C876 C879 1.511 . S
C877 C873 1.376 . S
C877 C876 1.392 . S
C877 H889 0.929 . S
C878 C874 1.531 . S
C878 H890 0.960 . S
C878 H891 0.962 . S
C878 H892 0.960 . S
C879 C876 1.511 . S
C879 H893 0.961 . S
C879 H894 0.961 . S
C879 H895 0.961 . S
C880 C881 1.370 . S
C880 C882 1.363 . S
C880 H896 0.931 . S
C881 C880 1.370 . S
C881 C885 1.408 . S
C882 C880 1.363 . S
C882 C883 1.370 . S
C882 C886 1.524 . S
C883 C875 1.503 . S
C883 C882 1.370 . S
C883 C884 1.403 . S
C884 C883 1.403 . S
C884 C885 1.404 . S
C884 C887 1.539 . S
C885 C881 1.408 . S
C885 C884 1.404 . S
C885 H897 0.930 . S
C886 C882 1.524 . S
C886 H898 0.956 . S
C886 H899 0.961 . S
C886 H900 0.961 . S
C887 C884 1.539 . S
C887 H901 0.958 . S
C887 H902 0.961 . S
C887 H903 0.960 . S
H888 C872 0.931 . S
H889 C877 0.929 . S
H890 C878 0.960 . S
H891 C878 0.962 . S
H892 C878 0.960 . S
H893 C879 0.961 . S
H894 C879 0.961 . S
H895 C879 0.961 . S
H896 C880 0.931 . S
H897 C885 0.930 . S
H898 C886 0.956 . S
H899 C886 0.961 . S
H900 C886 0.961 . S
H901 C887 0.958 . S
H902 C887 0.961 . S
H903 C887 0.960 . S
C904 C905 1.391 . S
C904 C906 1.394 . S
C904 H920 0.931 . S
C905 C904 1.391 . S
C905 C909 1.376 . S
C906 C904 1.394 . S
C906 C907 1.369 . S
C906 C910 1.531 . S
C907 C906 1.369 . S
C907 C908 1.410 . S
C907 C915 1.503 . S
C908 C907 1.410 . S
C908 C909 1.392 . S
C908 C911 1.511 . S
C909 C905 1.376 . S
C909 C908 1.392 . S
C909 H921 0.929 . S
C910 C906 1.531 . S
C910 H922 0.960 . S
C910 H923 0.962 . S
C910 H924 0.960 . S
C911 C908 1.511 . S
C911 H925 0.961 . S
C911 H926 0.961 . S
C911 H927 0.961 . S
C912 C913 1.370 . S
C912 C914 1.363 . S
C912 H928 0.931 . S
C913 C912 1.370 . S
C913 C917 1.408 . S
C914 C912 1.363 . S
C914 C915 1.370 . S
C914 C918 1.524 . S
C915 C907 1.503 . S
C915 C914 1.370 . S
C915 C916 1.403 . S
C916 C915 1.403 . S
C916 C917 1.404 . S
C916 C919 1.539 . S
C917 C913 1.408 . S
C917 C916 1.404 . S
C917 H929 0.930 . S
C918 C914 1.524 . S
C918 H930 0.956 . S
C918 H931 0.961 . S
C918 H932 0.961 . S
C919 C916 1.539 . S
C919 H933 0.958 . S
C919 H934 0.961 . S
C919 H935 0.960 . S
H920 C904 0.931 . S
H921 C909 0.929 . S
H922 C910 0.960 . S
H923 C910 0.962 . S
H924 C910 0.960 . S
H925 C911 0.961 . S
H926 C911 0.961 . S
H927 C911 0.961 . S
H928 C912 0.931 . S
H929 C917 0.930 . S
H930 C918 0.956 . S
H931 C918 0.961 . S
H932 C918 0.961 . S
H933 C919 0.958 . S
H934 C919 0.961 . S
H935 C919 0.960 . S
C169 C3 1.583 . S
C177 C87 1.585 . S
C201 C17 1.574 . S
C209 C101 1.575 . S
C233 C31 1.475 . S
C241 C115 1.489 . S
C265 C129 1.570 . S
C273 C45 1.577 . S
C297 C59 1.589 . S
C305 C143 1.583 . S
C329 C157 1.498 . S
C337 C73 1.502 . S
C361 C7 1.026 . S
C369 C133 1.056 . S
C393 C21 1.084 . S
C401 C147 1.033 . S
C425 C161 1.032 . S
C433 C35 1.002 . S
C457 C91 1.041 . S
C465 C49 1.055 . S
C489 C63 1.017 . S
C497 C105 1.051 . S
C521 C77 0.964 . S
C529 C119 1.006 . S
C553 C162 1.709 . S
C561 C8 1.720 . S
C585 C22 1.881 . S
C593 C92 1.899 . S
C617 C36 1.711 . S
C625 C106 1.718 . S
C649 C120 1.720 . S
C657 C50 1.721 . S
C681 C134 1.878 . S
C689 C64 1.901 . S
C713 C78 1.713 . S
C721 C148 1.723 . S
C745 C9 1.015 . S
C753 C149 0.901 . S
C777 C163 0.984 . S
C785 C23 1.088 . S
C809 C93 1.019 . S
C817 C37 1.066 . S
C841 C51 0.857 . S
C849 C107 0.970 . S
C873 C121 0.985 . S
C881 C65 1.094 . S
C905 C135 1.089 . S
C913 C79 1.039 . S
