# Generated by pormake.
# Topology tfs, (6)-cn, num edge types: 1
# Building blocks:
#     Node 0, Type 0, BuildingBlock: BETDIP_clean_sbu_0, # of connection points: 6
#     Node 1, Type 0, BuildingBlock: BETDIP_clean_sbu_0, # of connection points: 6
#     Node 2, Type 0, BuildingBlock: BETDIP_clean_sbu_0, # of connection points: 6
#     Node 3, Type 0, BuildingBlock: BETDIP_clean_sbu_0, # of connection points: 6
#     Node 4, Type 0, BuildingBlock: BETDIP_clean_sbu_0, # of connection points: 6
#     Node 5, Type 0, BuildingBlock: BETDIP_clean_sbu_0, # of connection points: 6
#     Edge 6, Type (0, 0), None
#     Edge 7, Type (0, 0), None
#     Edge 8, Type (0, 0), None
#     Edge 9, Type (0, 0), None
#     Edge 10, Type (0, 0), None
#     Edge 11, Type (0, 0), None
#     Edge 12, Type (0, 0), None
#     Edge 13, Type (0, 0), None
#     Edge 14, Type (0, 0), None
#     Edge 15, Type (0, 0), None
#     Edge 16, Type (0, 0), None
#     Edge 17, Type (0, 0), None
#     Edge 18, Type (0, 0), None
#     Edge 19, Type (0, 0), None
#     Edge 20, Type (0, 0), None
#     Edge 21, Type (0, 0), None
#     Edge 22, Type (0, 0), None
#     Edge 23, Type (0, 0), None
# Relax obj value: 0.672
# Max RMSD: 0.321
# Mean RMSD: 0.321
data_MOF--net-tfs--node1-BETDIP_clean_sbu_0--edge1-none
_symmetry_space_group_name_H-M    P1
_symmetry_Int_Tables_number       1
_symmetry_cell_setting            triclinic
loop_
_symmetry_equiv_pos_as_xyz
'x, y, z'
_cell_length_a     32.826656
_cell_length_b     32.827258
_cell_length_c     5.8738709
_cell_angle_alpha  90.001035
_cell_angle_beta   89.997673
_cell_angle_gamma 120.00018
loop_
_atom_site_label
_atom_site_type_symbol
_atom_site_fract_x
_atom_site_fract_y
_atom_site_fract_z
_atom_type_partial_charge
Tb0 Tb 0.18116 0.46942 1.03579 0.0
Tb1 Tb 0.20901 0.3934 0.04742 0.0
C2 C 0.16527 0.53463 0.13743 0.0
C3 C 0.18291 0.58546 0.11663 0.0
C4 C 0.23089 0.61932 0.13231 0.0
C5 C 0.2454 0.66741 0.1198 0.0
C6 C 0.21214 0.68222 0.09152 0.0
C7 C 0.16425 0.6479 0.07488 0.0
C8 C 0.14991 0.60018 0.08731 0.0
C9 C 0.19319 0.4409 0.63745 0.0
C10 C 0.29042 0.49837 0.07744 0.0
C11 C 0.22323 0.32648 0.95673 0.0
C12 C 0.26146 0.31541 0.96616 0.0
C13 C 0.25316 0.27173 0.88559 0.0
C14 C 0.28847 0.25978 0.89597 0.0
C15 C 0.33292 0.29141 0.98715 0.0
C16 C 0.34126 0.33551 0.06579 0.0
C17 C 0.30578 0.34739 0.05558 0.0
C18 C 0.19831 0.42349 0.44322 0.0
C19 C 0.10115 0.36529 1.00354 0.0
O20 O 0.18831 0.52088 0.26975 0.0
O21 O 0.15011 0.50976 0.95048 0.0
O22 O 0.2166 0.44598 0.81395 0.0
O23 O 0.16417 0.45614 0.6714 0.0
O24 O 0.25806 0.51148 0.08673 0.0
O25 O 0.27935 0.45403 0.04479 0.0
O26 O 0.22808 0.3584 0.80837 0.0
O27 O 0.2071 0.33142 0.15251 0.0
O28 O 0.17378 0.41711 0.26897 0.0
O29 O 0.22837 0.40948 0.40767 0.0
O30 O 0.13416 0.35494 0.94928 0.0
O31 O 0.11238 0.40724 0.08411 0.0
H32 H 0.25698 0.60868 0.15524 0.0
H33 H 0.28256 0.69286 0.13284 0.0
H34 H 0.13754 0.65775 0.05279 0.0
H35 H 0.11272 0.57459 0.07562 0.0
H36 H 0.21915 0.24666 0.81551 0.0
H37 H 0.28078 0.22563 0.83325 0.0
H38 H 0.37504 0.36074 0.13712 0.0
H39 H 0.31283 0.38134 0.11838 0.0
Tb40 Tb 0.72104 0.17651 1.03579 0.0
Tb41 Tb 0.82492 0.20436 0.04741 0.0
C42 C 0.63995 0.16063 0.13744 0.0
C43 C 0.60675 0.17826 0.11663 0.0
C44 C 0.62086 0.22624 0.1323 0.0
C45 C 0.58729 0.24075 0.1198 0.0
C46 C 0.53922 0.20749 0.09152 0.0
C47 C 0.52565 0.1596 0.07489 0.0
C48 C 0.55903 0.14527 0.08732 0.0
C49 C 0.76159 0.18854 0.63745 0.0
C50 C 0.80135 0.28577 0.07744 0.0
C51 C 0.90606 0.21858 0.95671 0.0
C52 C 0.95536 0.25682 0.96613 0.0
C53 C 0.99073 0.24852 0.88553 0.0
C54 C 0.038 0.28384 0.89591 0.0
C55 C 0.05081 0.32828 0.9871 0.0
C56 C 0.01505 0.33662 0.06576 0.0
C57 C 0.9677 0.30114 0.05556 0.0
C58 C 0.78413 0.19366 0.44322 0.0
C59 C 0.74517 0.09651 1.00353 0.0
O60 O 0.67673 0.18366 0.26975 0.0
O61 O 0.64966 0.14546 0.95048 0.0
O62 O 0.77992 0.21195 0.81395 0.0
O63 O 0.71733 0.15952 0.6714 0.0
O64 O 0.75588 0.25341 0.08673 0.0
O65 O 0.83463 0.2747 0.04479 0.0
O66 O 0.87899 0.22343 0.80836 0.0
O67 O 0.885 0.20246 0.1525 0.0
O68 O 0.76598 0.16914 0.26896 0.0
O69 O 0.82819 0.22372 0.40767 0.0
O70 O 0.78853 0.12951 0.94927 0.0
O71 O 0.71445 0.10774 0.0841 0.0
H72 H 0.6576 0.25233 0.15523 0.0
H73 H 0.599 0.27791 0.13282 0.0
H74 H 0.4891 0.1329 0.05281 0.0
H75 H 0.54743 0.10808 0.07564 0.0
H76 H 0.9818 0.21451 0.81545 0.0
H77 H 0.06446 0.27615 0.83318 0.0
H78 H 0.0236 0.3704 0.1371 0.0
H79 H 0.94079 0.30818 0.11837 0.0
Tb80 Tb 0.55384 0.71641 1.03581 0.0
Tb81 Tb 0.62987 0.82028 0.04745 0.0
C82 C 0.48863 0.63531 0.13745 0.0
C83 C 0.4378 0.60211 0.11663 0.0
C84 C 0.40393 0.61623 0.13229 0.0
C85 C 0.35584 0.58266 0.11977 0.0
C86 C 0.34104 0.53458 0.0915 0.0
C87 C 0.37536 0.52101 0.07488 0.0
C88 C 0.42307 0.5544 0.08732 0.0
C89 C 0.58236 0.75695 0.63747 0.0
C90 C 0.52489 0.79671 0.07748 0.0
C91 C 0.69678 0.90141 0.95675 0.0
C92 C 0.70785 0.95072 0.96615 0.0
C93 C 0.75152 0.98609 0.88556 0.0
C94 C 0.76347 0.03335 0.89592 0.0
C95 C 0.73184 0.04617 0.9871 0.0
C96 C 0.68774 0.01041 0.06576 0.0
C97 C 0.67587 0.96306 0.05557 0.0
C98 C 0.59977 0.77949 0.44325 0.0
C99 C 0.65797 0.74053 1.00356 0.0
O100 O 0.50237 0.67209 0.26976 0.0
O101 O 0.5135 0.64502 0.9505 0.0
O102 O 0.57728 0.77528 0.81398 0.0
O103 O 0.56712 0.71269 0.67142 0.0
O104 O 0.51178 0.75124 0.08676 0.0
O105 O 0.56924 0.82999 0.04482 0.0
O106 O 0.66487 0.87434 0.80839 0.0
O107 O 0.69184 0.88036 0.15255 0.0
O108 O 0.60615 0.76134 0.26898 0.0
O109 O 0.61378 0.82355 0.40771 0.0
O110 O 0.66833 0.78389 0.94931 0.0
O111 O 0.61602 0.70981 0.08412 0.0
H112 H 0.41457 0.65296 0.15521 0.0
H113 H 0.33039 0.59436 0.13278 0.0
H114 H 0.36551 0.48446 0.0528 0.0
H115 H 0.44866 0.5428 0.07566 0.0
H116 H 0.7766 0.97716 0.81549 0.0
H117 H 0.79762 0.05981 0.8332 0.0
H118 H 0.66251 0.01895 0.13709 0.0
H119 H 0.64191 0.93615 0.11838 0.0
Tb120 Tb 0.84674 0.54919 1.03579 0.0
Tb121 Tb 0.81889 0.62521 0.04745 0.0
C122 C 0.86262 0.48398 0.13742 0.0
C123 C 0.84498 0.43314 0.11661 0.0
C124 C 0.79701 0.39928 0.13229 0.0
C125 C 0.78249 0.3512 0.11978 0.0
C126 C 0.81576 0.33639 0.09149 0.0
C127 C 0.86364 0.37071 0.07486 0.0
C128 C 0.87798 0.41842 0.0873 0.0
C129 C 0.83471 0.57771 0.63746 0.0
C130 C 0.73747 0.52023 0.07747 0.0
C131 C 0.80467 0.69213 0.95676 0.0
C132 C 0.76644 0.7032 0.96617 0.0
C133 C 0.77474 0.74687 0.88558 0.0
C134 C 0.73943 0.75882 0.89595 0.0
C135 C 0.69498 0.7272 0.98713 0.0
C136 C 0.68664 0.6831 0.06578 0.0
C137 C 0.72211 0.67122 0.05558 0.0
C138 C 0.82959 0.59512 0.44324 0.0
C139 C 0.92674 0.65332 1.00354 0.0
O140 O 0.83958 0.49772 0.26974 0.0
O141 O 0.87778 0.50885 0.95046 0.0
O142 O 0.8113 0.57263 0.81397 0.0
O143 O 0.86373 0.56246 0.6714 0.0
O144 O 0.76984 0.50713 0.08675 0.0
O145 O 0.74855 0.56458 0.04482 0.0
O146 O 0.79983 0.66021 0.8084 0.0
O147 O 0.82078 0.68719 0.15255 0.0
O148 O 0.85411 0.60149 0.26897 0.0
O149 O 0.79953 0.60913 0.4077 0.0
O150 O 0.89374 0.66367 0.9493 0.0
O151 O 0.91551 0.61137 0.0841 0.0
H152 H 0.77091 0.40992 0.15521 0.0
H153 H 0.74533 0.32574 0.1328 0.0
H154 H 0.89035 0.36086 0.05278 0.0
H155 H 0.91517 0.44401 0.07562 0.0
H156 H 0.80875 0.77195 0.81551 0.0
H157 H 0.74712 0.79297 0.83323 0.0
H158 H 0.65286 0.65786 0.1371 0.0
H159 H 0.71507 0.63727 0.11838 0.0
Tb160 Tb 0.30685 0.8421 1.03581 0.0
Tb161 Tb 0.20298 0.81425 0.04747 0.0
C162 C 0.38794 0.85798 0.13743 0.0
C163 C 0.42114 0.84035 0.11664 0.0
C164 C 0.40703 0.79237 0.1323 0.0
C165 C 0.4406 0.77785 0.1198 0.0
C166 C 0.48868 0.81112 0.09153 0.0
C167 C 0.50225 0.85901 0.07491 0.0
C168 C 0.46886 0.87334 0.08734 0.0
C169 C 0.26631 0.83007 0.63748 0.0
C170 C 0.22654 0.73283 0.07749 0.0
C171 C 0.12184 0.80003 0.95679 0.0
C172 C 0.07254 0.76179 0.96618 0.0
C173 C 0.03716 0.77009 0.88559 0.0
C174 C 0.9899 0.73477 0.89595 0.0
C175 C 0.97708 0.69033 0.98712 0.0
C176 C 1.01284 0.68199 0.06577 0.0
C177 C 0.06019 0.71746 0.05558 0.0
C178 C 0.24377 0.82494 0.44326 0.0
C179 C 0.28273 0.9221 1.00358 0.0
O180 O 0.35117 0.83495 0.26976 0.0
O181 O 0.37824 0.87314 0.95048 0.0
O182 O 0.24798 0.80666 0.81399 0.0
O183 O 0.31056 0.85908 0.67142 0.0
O184 O 0.27202 0.7652 0.08676 0.0
O185 O 0.19327 0.74391 0.04483 0.0
O186 O 0.14891 0.79518 0.80842 0.0
O187 O 0.14289 0.81614 0.15259 0.0
O188 O 0.26192 0.84947 0.269 0.0
O189 O 0.19971 0.79489 0.40773 0.0
O190 O 0.23936 0.88909 0.94934 0.0
O191 O 0.31345 0.91087 0.08412 0.0
H192 H 0.37029 0.76628 0.15521 0.0
H193 H 0.4289 0.7407 0.13281 0.0
H194 H 0.5388 0.88571 0.05283 0.0
H195 H 0.48046 0.91053 0.07567 0.0
H196 H 0.0461 0.8041 0.81553 0.0
H197 H 0.96344 0.74246 0.83323 0.0
H198 H 1.0043 0.64821 0.13709 0.0
H199 H 0.08711 0.71042 0.11839 0.0
Tb200 Tb 0.47405 0.3022 1.03582 0.0
Tb201 Tb 0.39803 0.19833 0.04747 0.0
C202 C 0.53926 0.38329 0.13745 0.0
C203 C 0.5901 0.41649 0.11665 0.0
C204 C 0.62396 0.40238 0.1323 0.0
C205 C 0.67205 0.43595 0.11979 0.0
C206 C 0.68686 0.48402 0.09152 0.0
C207 C 0.65254 0.49759 0.07491 0.0
C208 C 0.60482 0.46421 0.08735 0.0
C209 C 0.44554 0.26166 0.63749 0.0
C210 C 0.50301 0.22189 0.07749 0.0
C211 C 0.33111 0.11719 0.95679 0.0
C212 C 0.32005 0.06789 0.96619 0.0
C213 C 0.27637 0.03252 0.88562 0.0
C214 C 0.26443 0.98525 0.89598 0.0
C215 C 0.29605 0.97244 0.98715 0.0
C216 C 0.34015 1.0082 0.06579 0.0
C217 C 0.35203 0.05555 0.05559 0.0
C218 C 0.42812 0.23912 0.44327 0.0
C219 C 0.36993 0.27808 1.00358 0.0
O220 O 0.52552 0.34652 0.26977 0.0
O221 O 0.5144 0.37359 0.9505 0.0
O222 O 0.45062 0.24333 0.81399 0.0
O223 O 0.46078 0.30591 0.67144 0.0
O224 O 0.51612 0.26737 0.08676 0.0
O225 O 0.45866 0.18862 0.04483 0.0
O226 O 0.36303 0.14426 0.80842 0.0
O227 O 0.33605 0.13825 0.15258 0.0
O228 O 0.42175 0.25727 0.26901 0.0
O229 O 0.41412 0.19506 0.40772 0.0
O230 O 0.35957 0.23471 0.94934 0.0
O231 O 0.41188 0.3088 0.08414 0.0
H232 H 0.61332 0.36564 0.15522 0.0
H233 H 0.6975 0.42425 0.1328 0.0
H234 H 0.66239 0.53415 0.05284 0.0
H235 H 0.57923 0.47581 0.07569 0.0
H236 H 0.25129 0.04145 0.81556 0.0
H237 H 0.23028 0.95879 0.83327 0.0
H238 H 0.36539 0.99965 0.13711 0.0
H239 H 0.38598 0.08246 0.11839 0.0
loop_
_geom_bond_atom_site_label_1
_geom_bond_atom_site_label_2
_geom_bond_distance
_geom_bond_site_symmetry_2
_ccdc_geom_bond_type
Tb0 C2 2.809 1_556 S
Tb0 O20 2.484 1_556 S
Tb0 O21 2.440 . S
Tb0 O22 2.658 . S
Tb0 O23 2.409 . S
Tb0 O24 2.378 . S
Tb0 O28 2.325 1_556 S
Tb0 O31 2.341 . S
Tb1 C11 2.809 1_554 S
Tb1 O22 2.325 1_554 S
Tb1 O25 2.341 . S
Tb1 O26 2.484 1_554 S
Tb1 O27 2.440 . S
Tb1 O28 2.658 . S
Tb1 O29 2.409 . S
Tb1 O30 2.378 . S
C2 Tb0 2.809 1_554 S
C2 C3 1.514 . S
C2 O20 1.248 . S
C2 O21 1.266 1_554 S
C3 C2 1.514 . S
C3 C4 1.359 . S
C3 C8 1.348 1_554 S
C4 C3 1.359 . S
C4 C5 1.380 . S
C4 H32 0.929 . S
C5 C4 1.380 . S
C5 C6 1.347 . S
C5 H33 0.931 . S
C6 C5 1.347 . S
C6 C7 1.369 1_554 S
C7 C6 1.369 1_556 S
C7 C8 1.408 . S
C7 H34 0.930 . S
C8 C3 1.348 1_556 S
C8 C7 1.408 . S
C8 H35 0.930 . S
C9 O22 1.281 . S
C9 O23 1.254 . S
C10 O24 1.236 . S
C10 O25 1.266 1_556 S
C11 Tb1 2.809 1_556 S
C11 C12 1.514 . S
C11 O26 1.248 . S
C11 O27 1.266 1_556 S
C12 C11 1.514 . S
C12 C13 1.359 . S
C12 C17 1.348 1_556 S
C13 C12 1.359 . S
C13 C14 1.380 . S
C13 H36 0.929 . S
C14 C13 1.380 . S
C14 C15 1.347 . S
C14 H37 0.931 . S
C15 C14 1.347 . S
C15 C16 1.369 1_556 S
C16 C15 1.369 1_554 S
C16 C17 1.408 . S
C16 H38 0.930 . S
C17 C12 1.348 1_554 S
C17 C16 1.408 . S
C17 H39 0.930 . S
C18 O28 1.281 . S
C18 O29 1.254 . S
C19 O30 1.236 . S
C19 O31 1.266 1_554 S
O20 Tb0 2.484 1_554 S
O20 C2 1.248 . S
O21 Tb0 2.440 . S
O21 C2 1.266 1_556 S
O22 Tb0 2.658 . S
O22 Tb1 2.325 1_556 S
O22 C9 1.281 . S
O23 Tb0 2.409 . S
O23 C9 1.254 . S
O24 Tb0 2.378 . S
O24 C10 1.236 . S
O25 Tb1 2.341 . S
O25 C10 1.266 1_554 S
O26 Tb1 2.484 1_556 S
O26 C11 1.248 . S
O27 Tb1 2.440 . S
O27 C11 1.266 1_554 S
O28 Tb0 2.325 1_554 S
O28 Tb1 2.658 . S
O28 C18 1.281 . S
O29 Tb1 2.409 . S
O29 C18 1.254 . S
O30 Tb1 2.378 . S
O30 C19 1.236 . S
O31 Tb0 2.341 . S
O31 C19 1.266 1_556 S
H32 C4 0.929 . S
H33 C5 0.931 . S
H34 C7 0.930 . S
H35 C8 0.930 . S
H36 C13 0.929 . S
H37 C14 0.931 . S
H38 C16 0.930 . S
H39 C17 0.930 . S
Tb40 C42 2.809 1_556 S
Tb40 O60 2.484 1_556 S
Tb40 O61 2.440 . S
Tb40 O62 2.658 . S
Tb40 O63 2.409 . S
Tb40 O64 2.378 . S
Tb40 O68 2.325 1_556 S
Tb40 O71 2.341 . S
Tb41 C51 2.809 1_554 S
Tb41 O62 2.325 1_554 S
Tb41 O65 2.341 . S
Tb41 O66 2.484 1_554 S
Tb41 O67 2.440 . S
Tb41 O68 2.658 . S
Tb41 O69 2.409 . S
Tb41 O70 2.378 . S
C42 Tb40 2.809 1_554 S
C42 C43 1.514 . S
C42 O60 1.248 . S
C42 O61 1.266 1_554 S
C43 C42 1.514 . S
C43 C44 1.359 . S
C43 C48 1.348 1_554 S
C44 C43 1.359 . S
C44 C45 1.380 . S
C44 H72 0.929 . S
C45 C44 1.380 . S
C45 C46 1.347 . S
C45 H73 0.931 . S
C46 C45 1.347 . S
C46 C47 1.369 1_554 S
C47 C46 1.369 1_556 S
C47 C48 1.408 . S
C47 H74 0.930 . S
C48 C43 1.348 1_556 S
C48 C47 1.408 . S
C48 H75 0.930 . S
C49 O62 1.281 . S
C49 O63 1.254 . S
C50 O64 1.236 . S
C50 O65 1.266 1_556 S
C51 Tb41 2.809 1_556 S
C51 C52 1.514 . S
C51 O66 1.248 . S
C51 O67 1.266 1_556 S
C52 C51 1.514 . S
C52 C53 1.359 . S
C52 C57 1.348 1_656 S
C53 C52 1.359 . S
C53 C54 1.380 1_655 S
C53 H76 0.929 . S
C54 C53 1.380 1_455 S
C54 C55 1.347 . S
C54 H77 0.931 . S
C55 C54 1.347 . S
C55 C56 1.369 1_556 S
C56 C55 1.369 1_554 S
C56 C57 1.408 . S
C56 H78 0.930 . S
C57 C52 1.348 1_454 S
C57 C56 1.408 . S
C57 H79 0.930 1_455 S
C58 O68 1.281 . S
C58 O69 1.254 . S
C59 O70 1.236 . S
C59 O71 1.266 1_554 S
O60 Tb40 2.484 1_554 S
O60 C42 1.248 . S
O61 Tb40 2.440 . S
O61 C42 1.266 1_556 S
O62 Tb40 2.658 . S
O62 Tb41 2.325 1_556 S
O62 C49 1.281 . S
O63 Tb40 2.409 . S
O63 C49 1.254 . S
O64 Tb40 2.378 . S
O64 C50 1.236 . S
O65 Tb41 2.341 . S
O65 C50 1.266 1_554 S
O66 Tb41 2.484 1_556 S
O66 C51 1.248 . S
O67 Tb41 2.440 . S
O67 C51 1.266 1_554 S
O68 Tb40 2.325 1_554 S
O68 Tb41 2.658 . S
O68 C58 1.281 . S
O69 Tb41 2.409 . S
O69 C58 1.254 . S
O70 Tb41 2.378 . S
O70 C59 1.236 . S
O71 Tb40 2.341 . S
O71 C59 1.266 1_556 S
H72 C44 0.929 . S
H73 C45 0.931 . S
H74 C47 0.930 . S
H75 C48 0.930 . S
H76 C53 0.929 . S
H77 C54 0.931 . S
H78 C56 0.930 . S
H79 C57 0.930 1_655 S
Tb80 C82 2.809 1_556 S
Tb80 O100 2.484 1_556 S
Tb80 O101 2.440 . S
Tb80 O102 2.658 . S
Tb80 O103 2.409 . S
Tb80 O104 2.378 . S
Tb80 O108 2.325 1_556 S
Tb80 O111 2.341 . S
Tb81 C91 2.809 1_554 S
Tb81 O102 2.325 1_554 S
Tb81 O105 2.341 . S
Tb81 O106 2.484 1_554 S
Tb81 O107 2.440 . S
Tb81 O108 2.658 . S
Tb81 O109 2.409 . S
Tb81 O110 2.378 . S
C82 Tb80 2.809 1_554 S
C82 C83 1.514 . S
C82 O100 1.248 . S
C82 O101 1.266 1_554 S
C83 C82 1.514 . S
C83 C84 1.359 . S
C83 C88 1.348 1_554 S
C84 C83 1.359 . S
C84 C85 1.380 . S
C84 H112 0.929 . S
C85 C84 1.380 . S
C85 C86 1.347 . S
C85 H113 0.931 . S
C86 C85 1.347 . S
C86 C87 1.369 1_554 S
C87 C86 1.369 1_556 S
C87 C88 1.408 . S
C87 H114 0.930 . S
C88 C83 1.348 1_556 S
C88 C87 1.408 . S
C88 H115 0.930 . S
C89 O102 1.281 . S
C89 O103 1.254 . S
C90 O104 1.236 . S
C90 O105 1.266 1_556 S
C91 Tb81 2.809 1_556 S
C91 C92 1.514 . S
C91 O106 1.248 . S
C91 O107 1.266 1_556 S
C92 C91 1.514 . S
C92 C93 1.359 . S
C92 C97 1.348 1_566 S
C93 C92 1.359 . S
C93 C94 1.380 1_565 S
C93 H116 0.929 . S
C94 C93 1.380 1_545 S
C94 C95 1.347 . S
C94 H117 0.931 . S
C95 C94 1.347 . S
C95 C96 1.369 1_556 S
C96 C95 1.369 1_554 S
C96 C97 1.408 . S
C96 H118 0.930 . S
C97 C92 1.348 1_544 S
C97 C96 1.408 . S
C97 H119 0.930 1_545 S
C98 O108 1.281 . S
C98 O109 1.254 . S
C99 O110 1.236 . S
C99 O111 1.266 1_554 S
O100 Tb80 2.484 1_554 S
O100 C82 1.248 . S
O101 Tb80 2.440 . S
O101 C82 1.266 1_556 S
O102 Tb80 2.658 . S
O102 Tb81 2.325 1_556 S
O102 C89 1.281 . S
O103 Tb80 2.409 . S
O103 C89 1.254 . S
O104 Tb80 2.378 . S
O104 C90 1.236 . S
O105 Tb81 2.341 . S
O105 C90 1.266 1_554 S
O106 Tb81 2.484 1_556 S
O106 C91 1.248 . S
O107 Tb81 2.440 . S
O107 C91 1.266 1_554 S
O108 Tb80 2.325 1_554 S
O108 Tb81 2.658 . S
O108 C98 1.281 . S
O109 Tb81 2.409 . S
O109 C98 1.254 . S
O110 Tb81 2.378 . S
O110 C99 1.236 . S
O111 Tb80 2.341 . S
O111 C99 1.266 1_556 S
H112 C84 0.929 . S
H113 C85 0.931 . S
H114 C87 0.930 . S
H115 C88 0.930 . S
H116 C93 0.929 . S
H117 C94 0.931 . S
H118 C96 0.930 . S
H119 C97 0.930 1_565 S
Tb120 C122 2.809 1_556 S
Tb120 O140 2.484 1_556 S
Tb120 O141 2.440 . S
Tb120 O142 2.658 . S
Tb120 O143 2.409 . S
Tb120 O144 2.378 . S
Tb120 O148 2.325 1_556 S
Tb120 O151 2.341 . S
Tb121 C131 2.809 1_554 S
Tb121 O142 2.325 1_554 S
Tb121 O145 2.341 . S
Tb121 O146 2.484 1_554 S
Tb121 O147 2.440 . S
Tb121 O148 2.658 . S
Tb121 O149 2.409 . S
Tb121 O150 2.378 . S
C122 Tb120 2.809 1_554 S
C122 C123 1.514 . S
C122 O140 1.248 . S
C122 O141 1.266 1_554 S
C123 C122 1.514 . S
C123 C124 1.359 . S
C123 C128 1.348 1_554 S
C124 C123 1.359 . S
C124 C125 1.380 . S
C124 H152 0.929 . S
C125 C124 1.380 . S
C125 C126 1.347 . S
C125 H153 0.931 . S
C126 C125 1.347 . S
C126 C127 1.369 1_554 S
C127 C126 1.369 1_556 S
C127 C128 1.408 . S
C127 H154 0.930 . S
C128 C123 1.348 1_556 S
C128 C127 1.408 . S
C128 H155 0.930 . S
C129 O142 1.281 . S
C129 O143 1.254 . S
C130 O144 1.236 . S
C130 O145 1.266 1_556 S
C131 Tb121 2.809 1_556 S
C131 C132 1.514 . S
C131 O146 1.248 . S
C131 O147 1.266 1_556 S
C132 C131 1.514 . S
C132 C133 1.359 . S
C132 C137 1.348 1_556 S
C133 C132 1.359 . S
C133 C134 1.380 . S
C133 H156 0.929 . S
C134 C133 1.380 . S
C134 C135 1.347 . S
C134 H157 0.931 . S
C135 C134 1.347 . S
C135 C136 1.369 1_556 S
C136 C135 1.369 1_554 S
C136 C137 1.408 . S
C136 H158 0.930 . S
C137 C132 1.348 1_554 S
C137 C136 1.408 . S
C137 H159 0.930 . S
C138 O148 1.281 . S
C138 O149 1.254 . S
C139 O150 1.236 . S
C139 O151 1.266 1_554 S
O140 Tb120 2.484 1_554 S
O140 C122 1.248 . S
O141 Tb120 2.440 . S
O141 C122 1.266 1_556 S
O142 Tb120 2.658 . S
O142 Tb121 2.325 1_556 S
O142 C129 1.281 . S
O143 Tb120 2.409 . S
O143 C129 1.254 . S
O144 Tb120 2.378 . S
O144 C130 1.236 . S
O145 Tb121 2.341 . S
O145 C130 1.266 1_554 S
O146 Tb121 2.484 1_556 S
O146 C131 1.248 . S
O147 Tb121 2.440 . S
O147 C131 1.266 1_554 S
O148 Tb120 2.325 1_554 S
O148 Tb121 2.658 . S
O148 C138 1.281 . S
O149 Tb121 2.409 . S
O149 C138 1.254 . S
O150 Tb121 2.378 . S
O150 C139 1.236 . S
O151 Tb120 2.341 . S
O151 C139 1.266 1_556 S
H152 C124 0.929 . S
H153 C125 0.931 . S
H154 C127 0.930 . S
H155 C128 0.930 . S
H156 C133 0.929 . S
H157 C134 0.931 . S
H158 C136 0.930 . S
H159 C137 0.930 . S
Tb160 C162 2.809 1_556 S
Tb160 O180 2.484 1_556 S
Tb160 O181 2.440 . S
Tb160 O182 2.658 . S
Tb160 O183 2.409 . S
Tb160 O184 2.378 . S
Tb160 O188 2.325 1_556 S
Tb160 O191 2.341 . S
Tb161 C171 2.809 1_554 S
Tb161 O182 2.325 1_554 S
Tb161 O185 2.341 . S
Tb161 O186 2.484 1_554 S
Tb161 O187 2.440 . S
Tb161 O188 2.658 . S
Tb161 O189 2.409 . S
Tb161 O190 2.378 . S
C162 Tb160 2.809 1_554 S
C162 C163 1.514 . S
C162 O180 1.248 . S
C162 O181 1.266 1_554 S
C163 C162 1.514 . S
C163 C164 1.359 . S
C163 C168 1.348 1_554 S
C164 C163 1.359 . S
C164 C165 1.380 . S
C164 H192 0.929 . S
C165 C164 1.380 . S
C165 C166 1.347 . S
C165 H193 0.931 . S
C166 C165 1.347 . S
C166 C167 1.369 1_554 S
C167 C166 1.369 1_556 S
C167 C168 1.408 . S
C167 H194 0.930 . S
C168 C163 1.348 1_556 S
C168 C167 1.408 . S
C168 H195 0.930 . S
C169 O182 1.281 . S
C169 O183 1.254 . S
C170 O184 1.236 . S
C170 O185 1.266 1_556 S
C171 Tb161 2.809 1_556 S
C171 C172 1.514 . S
C171 O186 1.248 . S
C171 O187 1.266 1_556 S
C172 C171 1.514 . S
C172 C173 1.359 . S
C172 C177 1.348 1_456 S
C173 C172 1.359 . S
C173 C174 1.380 1_455 S
C173 H196 0.929 . S
C174 C173 1.380 1_655 S
C174 C175 1.347 . S
C174 H197 0.931 . S
C175 C174 1.347 . S
C175 C176 1.369 1_556 S
C176 C175 1.369 1_554 S
C176 C177 1.408 . S
C176 H198 0.930 . S
C177 C172 1.348 1_654 S
C177 C176 1.408 . S
C177 H199 0.930 1_655 S
C178 O188 1.281 . S
C178 O189 1.254 . S
C179 O190 1.236 . S
C179 O191 1.266 1_554 S
O180 Tb160 2.484 1_554 S
O180 C162 1.248 . S
O181 Tb160 2.440 . S
O181 C162 1.266 1_556 S
O182 Tb160 2.658 . S
O182 Tb161 2.325 1_556 S
O182 C169 1.281 . S
O183 Tb160 2.409 . S
O183 C169 1.254 . S
O184 Tb160 2.378 . S
O184 C170 1.236 . S
O185 Tb161 2.341 . S
O185 C170 1.266 1_554 S
O186 Tb161 2.484 1_556 S
O186 C171 1.248 . S
O187 Tb161 2.440 . S
O187 C171 1.266 1_554 S
O188 Tb160 2.325 1_554 S
O188 Tb161 2.658 . S
O188 C178 1.281 . S
O189 Tb161 2.409 . S
O189 C178 1.254 . S
O190 Tb161 2.378 . S
O190 C179 1.236 . S
O191 Tb160 2.341 . S
O191 C179 1.266 1_556 S
H192 C164 0.929 . S
H193 C165 0.931 . S
H194 C167 0.930 . S
H195 C168 0.930 . S
H196 C173 0.929 . S
H197 C174 0.931 . S
H198 C176 0.930 . S
H199 C177 0.930 1_455 S
Tb200 C202 2.809 1_556 S
Tb200 O220 2.484 1_556 S
Tb200 O221 2.440 . S
Tb200 O222 2.658 . S
Tb200 O223 2.409 . S
Tb200 O224 2.378 . S
Tb200 O228 2.325 1_556 S
Tb200 O231 2.341 . S
Tb201 C211 2.809 1_554 S
Tb201 O222 2.325 1_554 S
Tb201 O225 2.341 . S
Tb201 O226 2.484 1_554 S
Tb201 O227 2.440 . S
Tb201 O228 2.658 . S
Tb201 O229 2.409 . S
Tb201 O230 2.378 . S
C202 Tb200 2.809 1_554 S
C202 C203 1.514 . S
C202 O220 1.248 . S
C202 O221 1.266 1_554 S
C203 C202 1.514 . S
C203 C204 1.359 . S
C203 C208 1.348 1_554 S
C204 C203 1.359 . S
C204 C205 1.380 . S
C204 H232 0.929 . S
C205 C204 1.380 . S
C205 C206 1.347 . S
C205 H233 0.931 . S
C206 C205 1.347 . S
C206 C207 1.369 1_554 S
C207 C206 1.369 1_556 S
C207 C208 1.408 . S
C207 H234 0.930 . S
C208 C203 1.348 1_556 S
C208 C207 1.408 . S
C208 H235 0.930 . S
C209 O222 1.281 . S
C209 O223 1.254 . S
C210 O224 1.236 . S
C210 O225 1.266 1_556 S
C211 Tb201 2.809 1_556 S
C211 C212 1.514 . S
C211 O226 1.248 . S
C211 O227 1.266 1_556 S
C212 C211 1.514 . S
C212 C213 1.359 . S
C212 C217 1.348 1_546 S
C213 C212 1.359 . S
C213 C214 1.380 1_545 S
C213 H236 0.929 . S
C214 C213 1.380 1_565 S
C214 C215 1.347 . S
C214 H237 0.931 . S
C215 C214 1.347 . S
C215 C216 1.369 1_556 S
C216 C215 1.369 1_554 S
C216 C217 1.408 . S
C216 H238 0.930 . S
C217 C212 1.348 1_564 S
C217 C216 1.408 . S
C217 H239 0.930 1_565 S
C218 O228 1.281 . S
C218 O229 1.254 . S
C219 O230 1.236 . S
C219 O231 1.266 1_554 S
O220 Tb200 2.484 1_554 S
O220 C202 1.248 . S
O221 Tb200 2.440 . S
O221 C202 1.266 1_556 S
O222 Tb200 2.658 . S
O222 Tb201 2.325 1_556 S
O222 C209 1.281 . S
O223 Tb200 2.409 . S
O223 C209 1.254 . S
O224 Tb200 2.378 . S
O224 C210 1.236 . S
O225 Tb201 2.341 . S
O225 C210 1.266 1_554 S
O226 Tb201 2.484 1_556 S
O226 C211 1.248 . S
O227 Tb201 2.440 . S
O227 C211 1.266 1_554 S
O228 Tb200 2.325 1_554 S
O228 Tb201 2.658 . S
O228 C218 1.281 . S
O229 Tb201 2.409 . S
O229 C218 1.254 . S
O230 Tb201 2.378 . S
O230 C219 1.236 . S
O231 Tb200 2.341 . S
O231 C219 1.266 1_556 S
H232 C204 0.929 . S
H233 C205 0.931 . S
H234 C207 0.930 . S
H235 C208 0.930 . S
H236 C213 0.929 . S
H237 C214 0.931 . S
H238 C216 0.930 . S
H239 C217 0.930 1_545 S
C219 C15 3.953 1_554 S
C19 C55 3.953 1_554 S
C59 C95 3.953 1_554 S
C135 C99 3.953 1_556 S
C175 C139 3.953 1_556 S
C179 C215 3.953 1_554 S
C170 C6 2.150 1_556 S
C210 C46 2.150 1_556 S
C86 C10 2.150 1_554 S
C126 C50 2.150 1_554 S
C166 C90 2.150 1_554 S
C130 C206 2.150 1_556 S
C9 C18 1.354 . S
C49 C58 1.354 . S
C89 C98 1.354 . S
C129 C138 1.354 . S
C178 C169 1.354 . S
C209 C218 1.354 . S
