# Generated by pormake.
# Topology zfa, (5)-cn, num edge types: 1
# Building blocks:
#     Node 0, Type 0, BuildingBlock: BEQFEK_clean_sbu_0, # of connection points: 5
#     Node 1, Type 0, BuildingBlock: BEQFEK_clean_sbu_0, # of connection points: 5
#     Node 2, Type 0, BuildingBlock: BEQFEK_clean_sbu_0, # of connection points: 5
#     Node 3, Type 0, BuildingBlock: BEQFEK_clean_sbu_0, # of connection points: 5
#     Node 4, Type 0, BuildingBlock: BEQFEK_clean_sbu_0, # of connection points: 5
#     Node 5, Type 0, BuildingBlock: BEQFEK_clean_sbu_0, # of connection points: 5
#     Node 6, Type 0, BuildingBlock: BEQFEK_clean_sbu_0, # of connection points: 5
#     Node 7, Type 0, BuildingBlock: BEQFEK_clean_sbu_0, # of connection points: 5
#     Edge 8, Type (0, 0), BuildingBlock: CIFDUS_clean_linker_0, # of connection points: 2
#     Edge 9, Type (0, 0), BuildingBlock: CIFDUS_clean_linker_0, # of connection points: 2
#     Edge 10, Type (0, 0), BuildingBlock: CIFDUS_clean_linker_0, # of connection points: 2
#     Edge 11, Type (0, 0), BuildingBlock: CIFDUS_clean_linker_0, # of connection points: 2
#     Edge 12, Type (0, 0), BuildingBlock: CIFDUS_clean_linker_0, # of connection points: 2
#     Edge 13, Type (0, 0), BuildingBlock: CIFDUS_clean_linker_0, # of connection points: 2
#     Edge 14, Type (0, 0), BuildingBlock: CIFDUS_clean_linker_0, # of connection points: 2
#     Edge 15, Type (0, 0), BuildingBlock: CIFDUS_clean_linker_0, # of connection points: 2
#     Edge 16, Type (0, 0), BuildingBlock: CIFDUS_clean_linker_0, # of connection points: 2
#     Edge 17, Type (0, 0), BuildingBlock: CIFDUS_clean_linker_0, # of connection points: 2
#     Edge 18, Type (0, 0), BuildingBlock: CIFDUS_clean_linker_0, # of connection points: 2
#     Edge 19, Type (0, 0), BuildingBlock: CIFDUS_clean_linker_0, # of connection points: 2
#     Edge 20, Type (0, 0), BuildingBlock: CIFDUS_clean_linker_0, # of connection points: 2
#     Edge 21, Type (0, 0), BuildingBlock: CIFDUS_clean_linker_0, # of connection points: 2
#     Edge 22, Type (0, 0), BuildingBlock: CIFDUS_clean_linker_0, # of connection points: 2
#     Edge 23, Type (0, 0), BuildingBlock: CIFDUS_clean_linker_0, # of connection points: 2
#     Edge 24, Type (0, 0), BuildingBlock: CIFDUS_clean_linker_0, # of connection points: 2
#     Edge 25, Type (0, 0), BuildingBlock: CIFDUS_clean_linker_0, # of connection points: 2
#     Edge 26, Type (0, 0), BuildingBlock: CIFDUS_clean_linker_0, # of connection points: 2
#     Edge 27, Type (0, 0), BuildingBlock: CIFDUS_clean_linker_0, # of connection points: 2
# Relax obj value: 0.408
# Max RMSD: 0.189
# Mean RMSD: 0.189
data_MOF--net-zfa--node1-BEQFEK_clean_sbu_0--edge1-CIFDUS_clean_linker_0
_symmetry_space_group_name_H-M    P1
_symmetry_Int_Tables_number       1
_symmetry_cell_setting            triclinic
loop_
_symmetry_equiv_pos_as_xyz
'x, y, z'
_cell_length_a     27.524126
_cell_length_b     27.483792
_cell_length_c     33.070798
_cell_angle_alpha  90.031124
_cell_angle_beta   90.766453
_cell_angle_gamma 90.242704
loop_
_atom_site_label
_atom_site_type_symbol
_atom_site_fract_x
_atom_site_fract_y
_atom_site_fract_z
_atom_type_partial_charge
Co0 Co 0.19576 0.22494 0.31074 0.0
Co1 Co 0.19983 0.33151 0.34351 0.0
C2 C 0.19712 0.25065 0.40047 0.0
O3 O 0.19928 0.22011 0.37163 0.0
O4 O 0.1951 0.29596 0.39399 0.0
C5 C 0.13266 0.14844 0.31262 0.0
O6 O 0.11277 0.18158 0.33569 0.0
C7 C 0.17337 0.41885 0.38784 0.0
C8 C 0.18921 0.47655 0.34365 0.0
C9 C 0.1668 0.468 0.38031 0.0
N10 N 0.19646 0.39899 0.35632 0.0
N11 N 0.20748 0.43403 0.33068 0.0
C12 C 0.15628 0.39084 0.4239 0.0
H13 H 0.18776 0.37227 0.43827 0.0
H14 H 0.12974 0.36248 0.41436 0.0
H15 H 0.13966 0.41502 0.4467 0.0
C16 C 0.1043 0.2644 0.27099 0.0
N17 N 0.14621 0.27035 0.29254 0.0
N18 N 0.14621 0.31397 0.30886 0.0
C19 C 0.10349 0.33601 0.29983 0.0
C20 C 0.07505 0.3052 0.27573 0.0
C21 C 0.09301 0.22178 0.24426 0.0
H22 H 0.12669 0.2021 0.23642 0.0
H23 H 0.06775 0.19674 0.25971 0.0
H24 H 0.07448 0.23429 0.21613 0.0
O25 O 0.26378 0.24316 0.29261 0.0
O26 O 0.26558 0.31681 0.32063 0.0
H27 H 0.1108 0.41284 0.30798 0.0
H28 H 0.04903 0.3912 0.312 0.0
C29 C 0.08755 0.3826 0.31871 0.0
H30 H 0.09193 0.3794 0.35179 0.0
H31 H 0.22398 0.42828 0.30287 0.0
O32 O 0.17305 0.15805 0.29582 0.0
C33 C 0.28679 0.2823 0.30195 0.0
Co34 Co 0.34438 0.69008 0.81167 0.0
Co35 Co 0.23774 0.69821 0.84273 0.0
C36 C 0.31933 0.69679 0.90076 0.0
O37 O 0.34984 0.69321 0.87241 0.0
O38 O 0.27415 0.6987 0.89339 0.0
C39 C 0.41286 0.62057 0.81648 0.0
O40 O 0.37724 0.60602 0.83966 0.0
C41 C 0.1524 0.67061 0.88784 0.0
C42 C 0.0929 0.68808 0.84516 0.0
C43 C 0.10299 0.66399 0.88118 0.0
N44 N 0.17085 0.69526 0.85643 0.0
N45 N 0.13479 0.70723 0.83172 0.0
C46 C 0.18205 0.6524 0.92301 0.0
H47 H 0.20012 0.68377 0.93814 0.0
H48 H 0.21087 0.62763 0.91231 0.0
H49 H 0.15924 0.63358 0.94561 0.0
C50 C 0.30081 0.60203 0.77094 0.0
N51 N 0.29651 0.64319 0.79314 0.0
N52 N 0.2536 0.64321 0.81004 0.0
C53 C 0.23043 0.60101 0.8007 0.0
C54 C 0.25987 0.57303 0.77603 0.0
C55 C 0.34157 0.59159 0.74277 0.0
H56 H 0.36299 0.62498 0.73666 0.0
H57 H 0.36542 0.5632 0.75576 0.0
H58 H 0.32669 0.57697 0.71384 0.0
O59 O 0.3287 0.75926 0.79277 0.0
O60 O 0.25302 0.76136 0.81588 0.0
H61 H 0.15467 0.6108 0.81095 0.0
H62 H 0.17291 0.54786 0.81002 0.0
C63 C 0.18395 0.58505 0.81932 0.0
H64 H 0.18908 0.58545 0.85244 0.0
H65 H 0.13935 0.72489 0.80409 0.0
O66 O 0.40908 0.66145 0.79832 0.0
C67 C 0.28884 0.78223 0.79866 0.0
Co68 Co 0.88933 0.84612 0.31331 0.0
Co69 Co 0.88614 0.73953 0.34606 0.0
C70 C 0.89206 0.82068 0.40294 0.0
O71 O 0.88823 0.85111 0.3741 0.0
O72 O 0.89378 0.77535 0.39638 0.0
C73 C 0.95228 0.92299 0.315 0.0
O74 O 0.97287 0.89029 0.33851 0.0
C75 C 0.9141 0.65209 0.39014 0.0
C76 C 0.89513 0.59435 0.3464 0.0
C77 C 0.91978 0.60283 0.38261 0.0
N78 N 0.88943 0.67204 0.35899 0.0
N79 N 0.87654 0.63699 0.33367 0.0
C80 C 0.93325 0.68007 0.42591 0.0
H81 H 0.9027 0.69912 0.44056 0.0
H82 H 0.95967 0.70804 0.41599 0.0
H83 H 0.95063 0.65581 0.44862 0.0
C84 C 0.97961 0.80618 0.27388 0.0
N85 N 0.9381 0.80039 0.29506 0.0
N86 N 0.93815 0.75656 0.31099 0.0
C87 C 0.98033 0.73415 0.30187 0.0
C88 C 1.00845 0.76503 0.27838 0.0
C89 C 0.99129 0.8492 0.24802 0.0
H90 H 1.01748 0.8732 0.26414 0.0
H91 H 1.00904 0.83695 0.21985 0.0
H92 H 0.95792 0.86976 0.24014 0.0
O93 O 0.82048 0.82814 0.29552 0.0
O94 O 0.81981 0.7545 0.32339 0.0
H95 H 0.97101 0.6577 0.31069 0.0
H96 H 1.03371 0.67694 0.3115 0.0
C97 C 0.99637 0.68708 0.32014 0.0
H98 H 0.99554 0.69066 0.35335 0.0
H99 H 0.8585 0.64278 0.30614 0.0
O100 O 0.91152 0.91292 0.29809 0.0
C101 C 0.79783 0.78898 0.30486 0.0
Co102 Co 0.72472 0.39814 0.81141 0.0
Co103 Co 0.83312 0.38329 0.83863 0.0
C104 C 0.7556 0.38858 0.89906 0.0
O105 O 0.72274 0.39091 0.87184 0.0
O106 O 0.80004 0.38682 0.89013 0.0
C107 C 0.6567 0.46789 0.82043 0.0
O108 O 0.6934 0.48141 0.84369 0.0
C109 C 0.9208 0.40854 0.88356 0.0
C110 C 0.97885 0.38886 0.84153 0.0
C111 C 0.97012 0.41419 0.87704 0.0
N112 N 0.90094 0.38358 0.85243 0.0
N113 N 0.93621 0.3701 0.8282 0.0
C114 C 0.89266 0.42804 0.91846 0.0
H115 H 0.86549 0.45479 0.90738 0.0
H116 H 0.91671 0.44513 0.94165 0.0
H117 H 0.87323 0.39763 0.93329 0.0
C118 C 0.76887 0.48821 0.77396 0.0
N119 N 0.77288 0.44502 0.79362 0.0
N120 N 0.8177 0.44044 0.80722 0.0
C121 C 0.84265 0.48155 0.7982 0.0
C122 C 0.81223 0.51441 0.7782 0.0
C123 C 0.72549 0.50317 0.74924 0.0
H124 H 0.69804 0.47385 0.74724 0.0
H125 H 0.70979 0.53704 0.76161 0.0
H126 H 0.7367 0.51052 0.71779 0.0
O127 O 0.7368 0.3308 0.7885 0.0
O128 O 0.81247 0.31987 0.81199 0.0
H129 H 0.91015 0.52114 0.79108 0.0
H130 H 0.89995 0.49471 0.84017 0.0
C131 C 0.89536 0.48914 0.80733 0.0
H132 H 0.916 0.45663 0.79817 0.0
H133 H 0.93063 0.35196 0.80079 0.0
O134 O 0.65962 0.42789 0.80094 0.0
C135 C 0.77431 0.30383 0.79369 0.0
Co136 Co 0.69634 0.35363 0.21077 0.0
Co137 Co 0.70166 0.24277 0.19199 0.0
C138 C 0.70012 0.3146 0.12547 0.0
O139 O 0.70047 0.34933 0.15076 0.0
O140 O 0.69977 0.27072 0.13717 0.0
C141 C 0.6353 0.42823 0.19646 0.0
O142 O 0.61674 0.39138 0.17609 0.0
C143 C 0.67132 0.15126 0.15619 0.0
C144 C 0.69293 0.09776 0.20254 0.0
C145 C 0.66619 0.10284 0.16691 0.0
N146 N 0.69774 0.17411 0.18492 0.0
N147 N 0.71221 0.14157 0.21182 0.0
C148 C 0.65061 0.17584 0.11945 0.0
H149 H 0.6809 0.19144 0.10186 0.0
H150 H 0.62641 0.20596 0.12866 0.0
H151 H 0.63065 0.15007 0.0994 0.0
C152 C 0.60253 0.32041 0.25049 0.0
N153 N 0.64545 0.31146 0.23203 0.0
N154 N 0.64668 0.2652 0.22198 0.0
C155 C 0.60423 0.24402 0.23257 0.0
C156 C 0.57355 0.2785 0.2495 0.0
C157 C 0.58975 0.36759 0.27022 0.0
H158 H 0.62075 0.39319 0.27061 0.0
H159 H 0.55752 0.38367 0.25497 0.0
H160 H 0.58046 0.36103 0.30223 0.0
O161 O 0.76393 0.33879 0.23282 0.0
O162 O 0.76543 0.25952 0.21887 0.0
H163 H 0.56133 0.17989 0.24554 0.0
H164 H 0.58544 0.18415 0.19524 0.0
C165 C 0.59317 0.19116 0.22752 0.0
H166 H 0.62482 0.1693 0.23733 0.0
H167 H 0.73194 0.14995 0.2381 0.0
O168 O 0.67454 0.42205 0.21672 0.0
C169 C 0.78611 0.2979 0.23269 0.0
Co170 Co 0.22291 0.19332 0.71108 0.0
Co171 Co 0.33391 0.20429 0.70317 0.0
C172 C 0.26612 0.20129 0.63022 0.0
O173 O 0.22865 0.19753 0.65206 0.0
O174 O 0.30854 0.20408 0.64603 0.0
C175 C 0.12143 0.18041 0.69728 0.0
O176 O 0.12864 0.21084 0.66731 0.0
C177 C 0.42626 0.16605 0.68108 0.0
C178 C 0.47722 0.20696 0.7206 0.0
C179 C 0.47434 0.16762 0.69425 0.0
N180 N 0.40203 0.20146 0.69987 0.0
N181 N 0.43282 0.22702 0.72233 0.0
C182 C 0.40164 0.12757 0.65578 0.0
H183 H 0.36167 0.12899 0.65903 0.0
H184 H 0.41439 0.09067 0.6641 0.0
H185 H 0.41045 0.13381 0.62355 0.0
C186 C 0.25432 0.09382 0.73778 0.0
N187 N 0.26388 0.14112 0.72963 0.0
N188 N 0.31098 0.1482 0.73176 0.0
C189 C 0.33256 0.10669 0.74474 0.0
C190 C 0.29752 0.07003 0.74806 0.0
C191 C 0.20609 0.07027 0.72945 0.0
H192 H 0.18414 0.07165 0.75729 0.0
H193 H 0.18663 0.08964 0.70479 0.0
H194 H 0.2103 1.03169 0.72034 0.0
O195 O 0.23647 0.26081 0.73471 0.0
O196 O 0.31659 0.26611 0.72955 0.0
H197 H 0.38777 0.07987 0.78537 0.0
H198 H 0.40677 0.08656 0.73431 0.0
C199 C 0.38464 0.10336 0.75816 0.0
H200 H 0.39944 0.13999 0.76533 0.0
H201 H 0.4228 0.2555 0.74133 0.0
O202 O 0.1558 0.17255 0.72236 0.0
C203 C 0.27616 0.28465 0.73941 0.0
Co204 Co 0.38479 0.71801 0.21359 0.0
Co205 Co 0.37575 0.83 0.20271 0.0
C206 C 0.36665 0.76152 0.13261 0.0
O207 O 0.37659 0.72461 0.15403 0.0
O208 O 0.36389 0.80341 0.14833 0.0
C209 C 0.44298 0.64238 0.1959 0.0
O210 O 0.46064 0.67918 0.17536 0.0
C211 C 0.41071 0.91662 0.16454 0.0
C212 C 0.39024 0.97537 0.20629 0.0
C213 C 0.4174 0.96571 0.17214 0.0
N214 N 0.38267 0.89782 0.19359 0.0
N215 N 0.36909 0.93336 0.21778 0.0
C216 C 0.43186 0.88725 0.13088 0.0
H217 H 0.40186 0.87244 0.11181 0.0
H218 H 0.45265 0.85616 0.14358 0.0
H219 H 0.45515 0.90939 0.11086 0.0
C220 C 0.48151 0.7493 0.25182 0.0
N221 N 0.43746 0.75865 0.23447 0.0
N222 N 0.43425 0.80565 0.22781 0.0
C223 C 0.47624 0.82725 0.24005 0.0
C224 C 0.50893 0.79223 0.25389 0.0
C225 C 0.49585 0.70132 0.2696 0.0
H226 H 0.46586 0.67469 0.2682 0.0
H227 H 0.52871 0.68736 0.25451 0.0
H228 H 0.50451 0.70601 0.30216 0.0
O229 O 0.31846 0.73358 0.23786 0.0
O230 O 0.31679 0.81467 0.23424 0.0
H231 H 0.44985 0.89847 0.25378 0.0
H232 H 0.5138 0.89039 0.26405 0.0
C233 C 0.48346 0.88102 0.24297 0.0
H234 H 0.49197 0.89528 0.21279 0.0
H235 H 0.34837 0.92835 0.24366 0.0
O236 O 0.40555 0.64904 0.21751 0.0
C237 C 0.29696 0.77428 0.2439 0.0
Co238 Co 0.86548 0.89383 0.71287 0.0
Co239 Co 0.75549 0.88946 0.69348 0.0
C240 C 0.82283 0.89136 0.62691 0.0
O241 O 0.85737 0.88737 0.65258 0.0
O242 O 0.7793 0.89595 0.63821 0.0
C243 C 0.93687 0.95709 0.69525 0.0
O244 O 0.8996 0.96908 0.67219 0.0
C245 C 0.6611 0.91939 0.66548 0.0
C246 C 0.61202 0.88465 0.70908 0.0
C247 C 0.61312 0.91779 0.67742 0.0
N248 N 0.68703 0.88948 0.6893 0.0
N249 N 0.65731 0.86731 0.71437 0.0
C250 C 0.68349 0.95473 0.63651 0.0
H251 H 0.72042 0.96543 0.64702 0.0
H252 H 0.66113 0.98789 0.6326 0.0
H253 H 0.68677 0.93679 0.60662 0.0
C254 C 0.83445 0.98499 0.7569 0.0
N255 N 0.82415 0.94364 0.73592 0.0
N256 N 0.7777 0.94343 0.72614 0.0
C257 C 0.7575 0.98536 0.73959 0.0
C258 C 0.79291 1.0138 0.75878 0.0
C259 C 0.88376 0.99803 0.77342 0.0
H260 H 0.90102 1.02509 0.75325 0.0
H261 H 0.88138 1.01477 0.80369 0.0
H262 H 0.90675 0.96533 0.77662 0.0
O263 O 0.85352 0.82615 0.73504 0.0
O264 O 0.77667 0.82367 0.71349 0.0
H265 H 0.69458 1.02536 0.75882 0.0
H266 H 0.69717 1.01329 0.70558 0.0
C267 C 0.70481 0.99784 0.73591 0.0
H268 H 0.68241 0.96481 0.74026 0.0
H269 H 0.66857 0.84354 0.7372 0.0
O270 O 0.93306 0.91966 0.71782 0.0
C271 C 0.81385 0.80263 0.72892 0.0
H272 H 1.0126 0.62996 0.39991 0.0
H273 H 0.91721 0.50513 0.39533 0.0
H274 H 0.98738 0.45119 0.4027 0.0
H275 H 0.0749 0.44049 0.39818 0.0
H276 H 0.16999 0.56546 0.39414 0.0
H277 H 0.10022 0.61923 0.40314 0.0
C278 C 1.00674 0.59114 0.40201 0.0
C279 C 0.95964 0.57152 0.39748 0.0
C280 C 0.04723 0.56065 0.40422 0.0
C281 C 0.95312 0.52094 0.39911 0.0
C282 C 0.9932 0.49022 0.40303 0.0
C283 C 0.08082 0.47929 0.40075 0.0
C284 C 0.12766 0.49904 0.39593 0.0
C285 C 0.04044 0.50973 0.4039 0.0
C286 C 0.13428 0.54957 0.39814 0.0
C287 C 0.09441 0.58019 0.40301 0.0
H288 H 0.94309 0.50641 0.89686 0.0
H289 H 0.06821 0.41292 0.88911 0.0
H290 H 0.12162 0.48358 0.89908 0.0
H291 H 0.13152 0.5716 0.89835 0.0
H292 H 1.00594 0.66491 0.89516 0.0
H293 H 0.95299 0.59372 0.90216 0.0
C294 C 0.98184 0.50075 0.89847 0.0
C295 C 1.00159 0.45412 0.8924 0.0
C296 C 1.01196 0.54162 0.902 0.0
C297 C 0.05218 0.44836 0.89391 0.0
C298 C 0.08261 0.48874 0.89939 0.0
C299 C 0.09279 0.57681 0.90031 0.0
C300 C 0.07268 0.62364 0.89633 0.0
C301 C 0.06279 0.53567 0.9018 0.0
C302 C 1.02218 0.62926 0.89844 0.0
C303 C 0.99201 0.58858 0.9021 0.0
H304 H 0.51068 0.93842 0.15888 0.0
H305 H 0.41547 0.06275 0.15651 0.0
H306 H 0.48564 0.11636 0.14653 0.0
H307 H 0.57302 0.12753 0.14855 0.0
H308 H 0.6684 1.00413 0.16102 0.0
H309 H 0.59813 0.94929 0.15628 0.0
C310 C 0.50475 0.97698 0.15523 0.0
C311 C 0.45775 0.99661 0.15816 0.0
C312 C 0.54522 1.00736 0.15155 0.0
C313 C 0.4513 0.04692 0.15406 0.0
C314 C 0.49134 0.07742 0.14854 0.0
C315 C 0.57898 0.08877 0.1492 0.0
C316 C 0.62606 0.06991 0.15489 0.0
C317 C 0.53849 0.05805 0.14866 0.0
C318 C 0.63253 1.01937 0.15635 0.0
C319 C 0.59241 0.98819 0.15389 0.0
H320 H 0.59249 0.98027 0.73598 0.0
H321 H 0.56491 0.95003 0.60996 0.0
H322 H 0.52313 1.02852 0.60247 0.0
H323 H 0.49675 0.10635 0.63223 0.0
H324 H 0.5265 0.13507 0.75855 0.0
H325 H 0.56838 0.05769 0.76491 0.0
C326 C 0.57644 0.99054 0.70709 0.0
C327 C 0.58041 0.95948 0.67375 0.0
C328 C 0.55469 1.03601 0.70282 0.0
C329 C 0.56092 0.97332 0.63613 0.0
C330 C 0.53787 1.0183 0.63179 0.0
C331 C 0.51241 0.09554 0.66108 0.0
C332 C 0.50781 0.12592 0.69498 0.0
C333 C 0.53505 0.05016 0.66491 0.0
C334 C 0.52963 0.11238 0.73192 0.0
C335 C 0.5529 0.06781 0.7358 0.0
H336 H 0.51506 0.31516 0.3102 0.0
H337 H 0.50801 0.23287 0.19919 0.0
H338 H 0.42039 0.22409 0.20588 0.0
H339 H 0.34408 0.24102 0.2428 0.0
H340 H 0.35122 0.33264 0.34868 0.0
H341 H 0.43923 0.33796 0.34348 0.0
C342 C 0.49467 0.29624 0.28687 0.0
C343 C 0.51922 0.27425 0.2545 0.0
C344 C 0.44347 0.29324 0.28979 0.0
C345 C 0.49104 0.24891 0.22531 0.0
C346 C 0.44048 0.24433 0.22879 0.0
C347 C 0.36491 0.26227 0.2646 0.0
C348 C 0.34058 0.28635 0.29609 0.0
C349 C 0.41608 0.26635 0.26092 0.0
C350 C 0.3685 0.31398 0.32389 0.0
C351 C 0.41913 0.31691 0.3211 0.0
H352 H 0.23962 1.0073 0.79004 0.0
H353 H 0.37151 1.01117 0.72134 0.0
H354 H 0.38186 0.92374 0.73116 0.0
H355 H 0.35196 0.84438 0.75812 0.0
H356 H 0.21505 0.84177 0.82058 0.0
H357 H 0.20757 0.92902 0.81287 0.0
C358 C 0.27041 0.9891 0.77677 0.0
C359 C 0.30489 1.01651 0.75533 0.0
C360 C 0.27499 0.93822 0.78089 0.0
C361 C 0.34496 0.99184 0.73906 0.0
C362 C 0.35056 0.94138 0.74414 0.0
C363 C 0.32035 0.86281 0.76977 0.0
C364 C 0.28427 0.83569 0.78996 0.0
C365 C 0.31562 0.91392 0.76484 0.0
C366 C 0.24357 0.86085 0.80475 0.0
C367 C 0.23919 0.9112 0.80058 0.0
H368 H 0.57109 0.74871 0.31019 0.0
H369 H 0.57072 0.84959 0.21033 0.0
H370 H 0.65843 0.85967 0.2175 0.0
H371 H 0.73695 0.83812 0.25118 0.0
H372 H 0.73636 0.72963 0.34552 0.0
H373 H 0.64847 0.72291 0.34009 0.0
C374 C 0.58975 0.77201 0.28919 0.0
C375 C 0.56316 0.79834 0.25982 0.0
C376 C 0.64091 0.77604 0.29221 0.0
C377 C 0.58929 0.82965 0.23409 0.0
C378 C 0.63991 0.83505 0.23778 0.0
C379 C 0.71761 0.81287 0.2704 0.0
C380 C 0.74387 0.78443 0.29868 0.0
C381 C 0.66635 0.80827 0.26666 0.0
C382 C 0.71773 0.75182 0.32318 0.0
C383 C 0.66711 0.74804 0.3203 0.0
H384 H 0.80922 0.22578 0.83518 0.0
H385 H 0.73439 0.26399 0.72454 0.0
H386 H 0.73292 0.17805 0.70403 0.0
H387 H 0.75511 0.09161 0.71702 0.0
H388 H 0.82005 0.05354 0.83195 0.0
H389 H 0.82361 0.13924 0.85109 0.0
C390 C 0.79275 0.21533 0.80647 0.0
C391 C 0.77269 0.25154 0.7811 0.0
C392 C 0.79059 0.16563 0.79555 0.0
C393 C 0.75039 0.23706 0.7445 0.0
C394 C 0.74955 0.18784 0.7328 0.0
C395 C 0.7696 0.10203 0.74642 0.0
C396 C 0.78933 0.06594 0.77225 0.0
C397 C 0.7697 0.1517 0.75802 0.0
C398 C 0.80724 0.08035 0.81044 0.0
C399 C 0.8086 0.12952 0.82171 0.0
H400 H 1.00034 0.24117 0.28758 0.0
H401 H 1.03142 0.38283 0.23837 0.0
H402 H 0.94476 0.39526 0.22396 0.0
H403 H 0.85947 0.36527 0.22458 0.0
H404 H 0.83005 0.22107 0.26958 0.0
H405 H 0.91609 0.21025 0.28627 0.0
C406 C 0.9883 0.27443 0.27307 0.0
C407 C 1.02254 0.31104 0.26412 0.0
C408 C 0.93833 0.28109 0.26448 0.0
C409 C 1.00591 0.35423 0.24592 0.0
C410 C 0.95627 0.36136 0.23769 0.0
C411 C 0.87184 0.33179 0.23858 0.0
C412 C 0.838 0.29429 0.24629 0.0
C413 C 0.92198 0.32514 0.247 0.0
C414 C 0.85504 0.25067 0.26355 0.0
C415 C 0.90439 0.24435 0.27296 0.0
H416 H 0.32248 0.50044 0.79479 0.0
H417 H 0.18458 0.52697 0.73621 0.0
H418 H 0.17472 0.43949 0.72298 0.0
H419 H 0.20699 0.3551 0.72641 0.0
H420 H 0.34724 0.33077 0.78239 0.0
H421 H 0.35451 0.41722 0.79833 0.0
C422 C 0.29064 0.48713 0.77859 0.0
C423 C 0.25454 0.52021 0.76616 0.0
C424 C 0.28545 0.43691 0.77099 0.0
C425 C 0.21288 0.50223 0.74606 0.0
C426 C 0.20724 0.45219 0.73858 0.0
C427 C 0.23869 0.36865 0.74273 0.0
C428 C 0.27632 0.33621 0.75351 0.0
C429 C 0.24333 0.41905 0.75089 0.0
C430 C 0.31764 0.35471 0.77389 0.0
C431 C 0.32197 0.40428 0.78287 0.0
H432 H 0.08331 0.82615 0.29791 0.0
H433 H 0.05161 0.69079 0.23725 0.0
H434 H 0.1384 0.67884 0.22469 0.0
H435 H 0.22375 0.70806 0.22967 0.0
H436 H 0.25411 0.84549 0.2879 0.0
H437 H 0.16805 0.85523 0.30293 0.0
C438 C 0.09537 0.79436 0.28146 0.0
C439 C 0.06096 0.7595 0.26833 0.0
C440 C 0.14539 0.7878 0.27438 0.0
C441 C 0.07735 0.7181 0.24769 0.0
C442 C 0.12702 0.71122 0.24062 0.0
C443 C 0.21163 0.73963 0.24635 0.0
C444 C 0.24568 0.77569 0.25807 0.0
C445 C 0.16152 0.74577 0.25391 0.0
C446 C 0.22895 0.81698 0.27878 0.0
C447 C 0.17958 0.82276 0.28718 0.0
H448 H 0.85278 0.74349 0.78919 0.0
H449 H 0.77039 0.7397 0.67738 0.0
H450 H 0.76571 0.65131 0.68064 0.0
H451 H 0.78479 0.57463 0.71472 0.0
H452 H 0.85656 0.57758 0.8314 0.0
H453 H 0.86724 0.66545 0.82598 0.0
C454 C 0.83387 0.72321 0.76562 0.0
C455 C 0.81193 0.7485 0.7331 0.0
C456 C 0.82987 0.67179 0.76825 0.0
C457 C 0.78726 0.72146 0.70296 0.0
C458 C 0.78469 0.6707 0.70467 0.0
C459 C 0.80179 0.59415 0.7395 0.0
C460 C 0.81994 0.56848 0.77332 0.0
C461 C 0.80557 0.64537 0.73725 0.0
C462 C 0.84332 0.59549 0.80431 0.0
C463 C 0.84894 0.64618 0.80153 0.0
H464 H 0.27421 0.2117 0.43942 0.0
H465 H 0.1262 0.25703 0.45571 0.0
H466 H 0.13351 0.24229 0.52861 0.0
H467 H 0.18393 0.2227 0.58789 0.0
H468 H 0.33452 0.18446 0.57264 0.0
H469 H 0.32458 0.19037 0.49918 0.0
C470 C 0.24341 0.21716 0.45902 0.0
C471 C 0.19944 0.23431 0.44261 0.0
C472 C 0.24866 0.21068 0.50101 0.0
C473 C 0.16002 0.24294 0.46799 0.0
C474 C 0.16436 0.2349 0.50956 0.0
C475 C 0.21452 0.21525 0.56852 0.0
C476 C 0.25994 0.2033 0.58573 0.0
C477 C 0.2088 0.21974 0.52647 0.0
C478 C 0.29927 0.19413 0.56017 0.0
C479 C 0.29357 0.19733 0.51817 0.0
H480 H 0.40556 0.69754 0.07893 0.0
H481 H 0.30045 0.81275 0.08957 0.0
H482 H 0.2761 0.80187 0.01898 0.0
H483 H 0.28337 0.75896 0.95476 0.0
H484 H 0.3931 0.64918 0.94052 0.0
H485 H 0.41732 0.65851 1.01198 0.0
C486 C 0.37743 0.7202 0.0656 0.0
C487 C 0.35449 0.75561 0.08935 0.0
C488 C 0.36451 0.71468 0.02453 0.0
C489 C 0.31862 0.78533 0.07179 0.0
C490 C 0.30458 0.77905 0.03151 0.0
C491 C 0.3126 0.73708 0.96738 0.0
C492 C 0.33609 0.70303 0.94289 0.0
C493 C 0.32705 0.74372 1.00773 0.0
C494 C 0.37453 0.67553 0.95909 0.0
C495 C 0.38822 0.68081 0.99984 0.0
H496 H 0.89788 0.84537 0.59148 0.0
H497 H 0.7706 0.93113 0.56464 0.0
H498 H 0.78486 0.92231 0.49215 0.0
H499 H 0.8299 0.88454 0.43639 0.0
H500 H 0.95143 0.7914 0.46393 0.0
H501 H 0.94371 0.80923 0.53605 0.0
C502 C 0.87364 0.86262 0.56973 0.0
C503 C 0.83326 0.8888 0.58329 0.0
C504 C 0.88113 0.85603 0.52822 0.0
C505 C 0.80176 0.91049 0.55485 0.0
C506 C 0.80995 0.90555 0.51344 0.0
C507 C 0.8552 0.86911 0.45825 0.0
C508 C 0.89147 0.83724 0.44518 0.0
C509 C 0.84903 0.87769 0.49976 0.0
C510 C 0.92344 0.8163 0.47358 0.0
C511 C 0.91889 0.8263 0.51471 0.0
H512 H 0.7459 0.3894 0.08864 0.0
H513 H 0.65552 0.26397 0.06456 0.0
H514 H 0.65996 0.27919 0.99187 0.0
H515 H 0.69422 0.32526 0.93481 0.0
H516 H 0.7907 0.44588 0.95912 0.0
H517 H 0.77879 0.43622 0.03188 0.0
C518 C 0.72686 0.36573 0.06742 0.0
C519 C 0.70082 0.32539 0.08178 0.0
C520 C 0.73062 0.37403 0.02569 0.0
C521 C 0.67654 0.29473 0.05409 0.0
C522 C 0.67882 0.3036 1.01256 0.0
C523 C 0.71175 0.34987 0.95617 0.0
C524 C 0.74283 0.38647 0.94201 0.0
C525 C 0.70635 0.34272 0.99796 0.0
C526 C 0.76644 0.41759 0.96966 0.0
C527 C 0.75977 0.41197 1.01116 0.0
H528 H 0.0492 0.93545 0.3095 0.0
H529 H 0.91368 1.01351 0.30414 0.0
H530 H 0.95825 0.09091 0.301 0.0
H531 H 1.0357 0.13581 0.30583 0.0
H532 H 0.17115 0.05755 0.30505 0.0
H533 H 0.12654 0.98006 0.30404 0.0
C534 C 1.02942 0.96938 0.30696 0.0
C535 C 0.97827 0.96905 0.30743 0.0
C536 C 0.05524 1.01334 0.30425 0.0
C537 C 0.95302 1.01306 0.30381 0.0
C538 C 0.9785 0.05718 0.30221 0.0
C539 C 0.05543 0.10177 0.30472 0.0
C540 C 0.10659 0.10212 0.30586 0.0
C541 C 1.02957 0.05771 0.30328 0.0
C542 C 0.13179 0.05797 0.30412 0.0
C543 C 0.1063 1.01381 0.30377 0.0
H544 H 0.50905 0.64235 0.80999 0.0
H545 H 0.40726 0.52278 0.81039 0.0
H546 H 0.47343 0.46462 0.80599 0.0
H547 H 0.56097 0.44706 0.80828 0.0
H548 H 0.66272 0.56614 0.81914 0.0
H549 H 0.59677 0.62471 0.8128 0.0
C550 C 0.50158 0.60361 0.80836 0.0
C551 C 0.45348 0.5869 0.80972 0.0
C552 C 0.54008 0.57007 0.8083 0.0
C553 C 0.44408 0.53654 0.80876 0.0
C554 C 0.48192 0.50317 0.8065 0.0
C555 C 0.56853 0.48583 0.80869 0.0
C556 C 0.61644 0.50229 0.81377 0.0
C557 C 0.53015 0.51941 0.80712 0.0
C558 C 0.62595 0.55261 0.81508 0.0
C559 C 0.58828 0.58619 0.81153 0.0
H560 H 0.54033 0.63566 0.19667 0.0
H561 H 0.40954 0.54904 0.20175 0.0
H562 H 0.45838 0.47449 0.20212 0.0
H563 H 0.53798 0.43491 0.19812 0.0
H564 H 0.66892 0.52164 0.20161 0.0
H565 H 0.62008 0.59618 0.20114 0.0
C566 C 0.52255 0.60044 0.19828 0.0
C567 C 0.47154 0.59746 0.19882 0.0
C568 C 0.55079 0.55827 0.19998 0.0
C569 C 0.4488 0.55188 0.20124 0.0
C570 C 0.47666 0.50947 0.20137 0.0
C571 C 0.55581 0.47015 0.19926 0.0
C572 C 0.60684 0.47314 0.19959 0.0
C573 C 0.52762 0.51235 0.20035 0.0
C574 C 0.62965 0.51877 0.20135 0.0
C575 C 0.60178 0.56118 0.20093 0.0
H576 H 0.10467 0.10236 0.74605 0.0
H577 H 0.04435 0.18163 0.64459 0.0
H578 H 0.98345 0.11798 0.63431 0.0
H579 H 0.95048 1.0385 0.6515 0.0
H580 H 1.01172 0.95692 0.75126 0.0
H581 H 0.07125 1.02207 0.76351 0.0
C582 C 0.07828 0.10577 0.72166 0.0
C583 C 0.07962 0.14645 0.69575 0.0
C584 C 0.04453 0.06815 0.71495 0.0
C585 C 0.04434 0.15072 0.6649 0.0
C586 C 1.00978 0.11412 0.65875 0.0
C587 C 0.97697 1.03462 0.67585 0.0
C588 C 0.97682 0.99275 0.70034 0.0
C589 C 1.01028 0.0723 0.68303 0.0
C590 C 1.01142 0.98852 0.73172 0.0
C591 C 0.04505 1.02598 0.73898 0.0
loop_
_geom_bond_atom_site_label_1
_geom_bond_atom_site_label_2
_geom_bond_distance
_geom_bond_site_symmetry_2
_ccdc_geom_bond_type
Co0 O3 1.970 . S
Co0 N17 1.989 . S
Co0 O25 1.967 . S
Co0 O32 1.920 . S
Co1 O4 1.966 . S
Co1 N10 2.022 . S
Co1 N18 1.993 . S
Co1 O26 1.941 . S
C2 O3 1.258 . S
C2 O4 1.263 . S
O3 Co0 1.970 . S
O3 C2 1.258 . S
O4 Co1 1.966 . S
O4 C2 1.263 . S
C5 O6 1.235 . S
C5 O32 1.289 . S
O6 C5 1.235 . S
C7 C9 1.400 . S
C7 N10 1.351 . S
C7 C12 1.501 . S
C8 C9 1.387 . S
C8 N11 1.341 . S
C9 C7 1.400 . S
C9 C8 1.387 . S
N10 Co1 2.022 . S
N10 C7 1.351 . S
N10 N11 1.365 . S
N11 C8 1.341 . S
N11 N10 1.365 . S
N11 H31 0.862 . S
C12 C7 1.501 . S
C12 H13 0.961 . S
C12 H14 0.961 . S
C12 H15 0.960 . S
H13 C12 0.961 . S
H14 C12 0.961 . S
H15 C12 0.960 . S
C16 N17 1.342 1_655 S
C16 C20 1.401 . S
C16 C21 1.499 . S
N17 Co0 1.989 . S
N17 C16 1.342 1_455 S
N17 N18 1.388 . S
N18 Co1 1.993 . S
N18 N17 1.388 . S
N18 C19 1.346 1_455 S
C19 N18 1.346 1_655 S
C19 C20 1.396 . S
C19 C29 1.510 . S
C20 C16 1.401 . S
C20 C19 1.396 . S
C21 C16 1.499 . S
C21 H22 0.959 . S
C21 H23 0.960 . S
C21 H24 0.961 . S
H22 C21 0.959 . S
H23 C21 0.960 . S
H24 C21 0.961 . S
O25 Co0 1.967 . S
O25 C33 1.258 . S
O26 Co1 1.941 . S
O26 C33 1.266 . S
H27 C29 0.959 . S
H28 C29 0.961 . S
C29 C19 1.510 . S
C29 H27 0.959 . S
C29 H28 0.961 . S
C29 H30 0.960 . S
H30 C29 0.960 . S
H31 N11 0.862 . S
O32 Co0 1.920 . S
O32 C5 1.289 . S
C33 O25 1.258 . S
C33 O26 1.266 . S
Co34 O37 1.970 . S
Co34 N51 1.989 . S
Co34 O59 1.967 . S
Co34 O66 1.920 . S
Co35 O38 1.966 . S
Co35 N44 2.022 . S
Co35 N52 1.993 . S
Co35 O60 1.941 . S
C36 O37 1.258 . S
C36 O38 1.263 . S
O37 Co34 1.970 . S
O37 C36 1.258 . S
O38 Co35 1.966 . S
O38 C36 1.263 . S
C39 O40 1.235 . S
C39 O66 1.289 . S
O40 C39 1.235 . S
C41 C43 1.400 . S
C41 N44 1.351 . S
C41 C46 1.501 . S
C42 C43 1.387 . S
C42 N45 1.341 . S
C43 C41 1.400 . S
C43 C42 1.387 . S
N44 Co35 2.022 . S
N44 C41 1.351 . S
N44 N45 1.365 . S
N45 C42 1.341 . S
N45 N44 1.365 . S
N45 H65 0.862 . S
C46 C41 1.501 . S
C46 H47 0.961 . S
C46 H48 0.961 . S
C46 H49 0.960 . S
H47 C46 0.961 . S
H48 C46 0.961 . S
H49 C46 0.960 . S
C50 N51 1.342 . S
C50 C54 1.401 . S
C50 C55 1.499 . S
N51 Co34 1.989 . S
N51 C50 1.342 . S
N51 N52 1.388 . S
N52 Co35 1.993 . S
N52 N51 1.388 . S
N52 C53 1.346 . S
C53 N52 1.346 . S
C53 C54 1.396 . S
C53 C63 1.510 . S
C54 C50 1.401 . S
C54 C53 1.396 . S
C55 C50 1.499 . S
C55 H56 0.959 . S
C55 H57 0.960 . S
C55 H58 0.961 . S
H56 C55 0.959 . S
H57 C55 0.960 . S
H58 C55 0.961 . S
O59 Co34 1.967 . S
O59 C67 1.258 . S
O60 Co35 1.941 . S
O60 C67 1.266 . S
H61 C63 0.959 . S
H62 C63 0.961 . S
C63 C53 1.510 . S
C63 H61 0.959 . S
C63 H62 0.961 . S
C63 H64 0.960 . S
H64 C63 0.960 . S
H65 N45 0.862 . S
O66 Co34 1.920 . S
O66 C39 1.289 . S
C67 O59 1.258 . S
C67 O60 1.266 . S
Co68 O71 1.970 . S
Co68 N85 1.989 . S
Co68 O93 1.967 . S
Co68 O100 1.920 . S
Co69 O72 1.966 . S
Co69 N78 2.022 . S
Co69 N86 1.993 . S
Co69 O94 1.941 . S
C70 O71 1.258 . S
C70 O72 1.263 . S
O71 Co68 1.970 . S
O71 C70 1.258 . S
O72 Co69 1.966 . S
O72 C70 1.263 . S
C73 O74 1.235 . S
C73 O100 1.289 . S
O74 C73 1.235 . S
C75 C77 1.400 . S
C75 N78 1.351 . S
C75 C80 1.501 . S
C76 C77 1.387 . S
C76 N79 1.341 . S
C77 C75 1.400 . S
C77 C76 1.387 . S
N78 Co69 2.022 . S
N78 C75 1.351 . S
N78 N79 1.365 . S
N79 C76 1.341 . S
N79 N78 1.365 . S
N79 H99 0.862 . S
C80 C75 1.501 . S
C80 H81 0.961 . S
C80 H82 0.961 . S
C80 H83 0.960 . S
H81 C80 0.961 . S
H82 C80 0.961 . S
H83 C80 0.960 . S
C84 N85 1.342 1_455 S
C84 C88 1.401 . S
C84 C89 1.499 . S
N85 Co68 1.989 . S
N85 C84 1.342 1_655 S
N85 N86 1.388 . S
N86 Co69 1.993 . S
N86 N85 1.388 . S
N86 C87 1.346 1_655 S
C87 N86 1.346 1_455 S
C87 C88 1.396 . S
C87 C97 1.510 . S
C88 C84 1.401 . S
C88 C87 1.396 . S
C89 C84 1.499 . S
C89 H90 0.959 . S
C89 H91 0.960 . S
C89 H92 0.961 . S
H90 C89 0.959 . S
H91 C89 0.960 . S
H92 C89 0.961 . S
O93 Co68 1.967 . S
O93 C101 1.258 . S
O94 Co69 1.941 . S
O94 C101 1.266 . S
H95 C97 0.959 . S
H96 C97 0.961 . S
C97 C87 1.510 . S
C97 H95 0.959 . S
C97 H96 0.961 . S
C97 H98 0.960 . S
H98 C97 0.960 . S
H99 N79 0.862 . S
O100 Co68 1.920 . S
O100 C73 1.289 . S
C101 O93 1.258 . S
C101 O94 1.266 . S
Co102 O105 1.970 . S
Co102 N119 1.989 . S
Co102 O127 1.967 . S
Co102 O134 1.920 . S
Co103 O106 1.966 . S
Co103 N112 2.022 . S
Co103 N120 1.993 . S
Co103 O128 1.941 . S
C104 O105 1.258 . S
C104 O106 1.263 . S
O105 Co102 1.970 . S
O105 C104 1.258 . S
O106 Co103 1.966 . S
O106 C104 1.263 . S
C107 O108 1.235 . S
C107 O134 1.289 . S
O108 C107 1.235 . S
C109 C111 1.400 . S
C109 N112 1.351 . S
C109 C114 1.501 . S
C110 C111 1.387 . S
C110 N113 1.341 . S
C111 C109 1.400 . S
C111 C110 1.387 . S
N112 Co103 2.022 . S
N112 C109 1.351 . S
N112 N113 1.365 . S
N113 C110 1.341 . S
N113 N112 1.365 . S
N113 H133 0.862 . S
C114 C109 1.501 . S
C114 H115 0.961 . S
C114 H116 0.961 . S
C114 H117 0.960 . S
H115 C114 0.961 . S
H116 C114 0.961 . S
H117 C114 0.960 . S
C118 N119 1.342 . S
C118 C122 1.401 . S
C118 C123 1.499 . S
N119 Co102 1.989 . S
N119 C118 1.342 . S
N119 N120 1.388 . S
N120 Co103 1.993 . S
N120 N119 1.388 . S
N120 C121 1.346 . S
C121 N120 1.346 . S
C121 C122 1.396 . S
C121 C131 1.510 . S
C122 C118 1.401 . S
C122 C121 1.396 . S
C123 C118 1.499 . S
C123 H124 0.959 . S
C123 H125 0.960 . S
C123 H126 0.961 . S
H124 C123 0.959 . S
H125 C123 0.960 . S
H126 C123 0.961 . S
O127 Co102 1.967 . S
O127 C135 1.258 . S
O128 Co103 1.941 . S
O128 C135 1.266 . S
H129 C131 0.959 . S
H130 C131 0.961 . S
C131 C121 1.510 . S
C131 H129 0.959 . S
C131 H130 0.961 . S
C131 H132 0.960 . S
H132 C131 0.960 . S
H133 N113 0.862 . S
O134 Co102 1.920 . S
O134 C107 1.289 . S
C135 O127 1.258 . S
C135 O128 1.266 . S
Co136 O139 1.970 . S
Co136 N153 1.989 . S
Co136 O161 1.967 . S
Co136 O168 1.920 . S
Co137 O140 1.966 . S
Co137 N146 2.022 . S
Co137 N154 1.993 . S
Co137 O162 1.941 . S
C138 O139 1.258 . S
C138 O140 1.263 . S
O139 Co136 1.970 . S
O139 C138 1.258 . S
O140 Co137 1.966 . S
O140 C138 1.263 . S
C141 O142 1.235 . S
C141 O168 1.289 . S
O142 C141 1.235 . S
C143 C145 1.400 . S
C143 N146 1.351 . S
C143 C148 1.501 . S
C144 C145 1.387 . S
C144 N147 1.341 . S
C145 C143 1.400 . S
C145 C144 1.387 . S
N146 Co137 2.022 . S
N146 C143 1.351 . S
N146 N147 1.365 . S
N147 C144 1.341 . S
N147 N146 1.365 . S
N147 H167 0.862 . S
C148 C143 1.501 . S
C148 H149 0.961 . S
C148 H150 0.961 . S
C148 H151 0.960 . S
H149 C148 0.961 . S
H150 C148 0.961 . S
H151 C148 0.960 . S
C152 N153 1.342 . S
C152 C156 1.401 . S
C152 C157 1.499 . S
N153 Co136 1.989 . S
N153 C152 1.342 . S
N153 N154 1.388 . S
N154 Co137 1.993 . S
N154 N153 1.388 . S
N154 C155 1.346 . S
C155 N154 1.346 . S
C155 C156 1.396 . S
C155 C165 1.510 . S
C156 C152 1.401 . S
C156 C155 1.396 . S
C157 C152 1.499 . S
C157 H158 0.959 . S
C157 H159 0.960 . S
C157 H160 0.961 . S
H158 C157 0.959 . S
H159 C157 0.960 . S
H160 C157 0.961 . S
O161 Co136 1.967 . S
O161 C169 1.258 . S
O162 Co137 1.941 . S
O162 C169 1.266 . S
H163 C165 0.959 . S
H164 C165 0.961 . S
C165 C155 1.510 . S
C165 H163 0.959 . S
C165 H164 0.961 . S
C165 H166 0.960 . S
H166 C165 0.960 . S
H167 N147 0.862 . S
O168 Co136 1.920 . S
O168 C141 1.289 . S
C169 O161 1.258 . S
C169 O162 1.266 . S
Co170 O173 1.970 . S
Co170 N187 1.989 . S
Co170 O195 1.967 . S
Co170 O202 1.920 . S
Co171 O174 1.966 . S
Co171 N180 2.022 . S
Co171 N188 1.993 . S
Co171 O196 1.941 . S
C172 O173 1.258 . S
C172 O174 1.263 . S
O173 Co170 1.970 . S
O173 C172 1.258 . S
O174 Co171 1.966 . S
O174 C172 1.263 . S
C175 O176 1.235 . S
C175 O202 1.289 . S
O176 C175 1.235 . S
C177 C179 1.400 . S
C177 N180 1.351 . S
C177 C182 1.501 . S
C178 C179 1.387 . S
C178 N181 1.341 . S
C179 C177 1.400 . S
C179 C178 1.387 . S
N180 Co171 2.022 . S
N180 C177 1.351 . S
N180 N181 1.365 . S
N181 C178 1.341 . S
N181 N180 1.365 . S
N181 H201 0.862 . S
C182 C177 1.501 . S
C182 H183 0.961 . S
C182 H184 0.961 . S
C182 H185 0.960 . S
H183 C182 0.961 . S
H184 C182 0.961 . S
H185 C182 0.960 . S
C186 N187 1.342 1_565 S
C186 C190 1.401 . S
C186 C191 1.499 . S
N187 Co170 1.989 . S
N187 C186 1.342 1_545 S
N187 N188 1.388 . S
N188 Co171 1.993 . S
N188 N187 1.388 . S
N188 C189 1.346 1_545 S
C189 N188 1.346 1_565 S
C189 C190 1.396 . S
C189 C199 1.510 . S
C190 C186 1.401 . S
C190 C189 1.396 . S
C191 C186 1.499 . S
C191 H192 0.959 . S
C191 H193 0.960 . S
C191 H194 0.961 . S
H192 C191 0.959 . S
H193 C191 0.960 . S
H194 C191 0.961 . S
O195 Co170 1.967 . S
O195 C203 1.258 . S
O196 Co171 1.941 . S
O196 C203 1.266 . S
H197 C199 0.959 . S
H198 C199 0.961 . S
C199 C189 1.510 . S
C199 H197 0.959 . S
C199 H198 0.961 . S
C199 H200 0.960 . S
H200 C199 0.960 . S
H201 N181 0.862 . S
O202 Co170 1.920 . S
O202 C175 1.289 . S
C203 O195 1.258 . S
C203 O196 1.266 . S
Co204 O207 1.970 . S
Co204 N221 1.989 . S
Co204 O229 1.967 . S
Co204 O236 1.920 . S
Co205 O208 1.966 . S
Co205 N214 2.022 . S
Co205 N222 1.993 . S
Co205 O230 1.941 . S
C206 O207 1.258 . S
C206 O208 1.263 . S
O207 Co204 1.970 . S
O207 C206 1.258 . S
O208 Co205 1.966 . S
O208 C206 1.263 . S
C209 O210 1.235 . S
C209 O236 1.289 . S
O210 C209 1.235 . S
C211 C213 1.400 . S
C211 N214 1.351 . S
C211 C216 1.501 . S
C212 C213 1.387 . S
C212 N215 1.341 . S
C213 C211 1.400 . S
C213 C212 1.387 . S
N214 Co205 2.022 . S
N214 C211 1.351 . S
N214 N215 1.365 . S
N215 C212 1.341 . S
N215 N214 1.365 . S
N215 H235 0.862 . S
C216 C211 1.501 . S
C216 H217 0.961 . S
C216 H218 0.961 . S
C216 H219 0.960 . S
H217 C216 0.961 . S
H218 C216 0.961 . S
H219 C216 0.960 . S
C220 N221 1.342 . S
C220 C224 1.401 . S
C220 C225 1.499 . S
N221 Co204 1.989 . S
N221 C220 1.342 . S
N221 N222 1.388 . S
N222 Co205 1.993 . S
N222 N221 1.388 . S
N222 C223 1.346 . S
C223 N222 1.346 . S
C223 C224 1.396 . S
C223 C233 1.510 . S
C224 C220 1.401 . S
C224 C223 1.396 . S
C225 C220 1.499 . S
C225 H226 0.959 . S
C225 H227 0.960 . S
C225 H228 0.961 . S
H226 C225 0.959 . S
H227 C225 0.960 . S
H228 C225 0.961 . S
O229 Co204 1.967 . S
O229 C237 1.258 . S
O230 Co205 1.941 . S
O230 C237 1.266 . S
H231 C233 0.959 . S
H232 C233 0.961 . S
C233 C223 1.510 . S
C233 H231 0.959 . S
C233 H232 0.961 . S
C233 H234 0.960 . S
H234 C233 0.960 . S
H235 N215 0.862 . S
O236 Co204 1.920 . S
O236 C209 1.289 . S
C237 O229 1.258 . S
C237 O230 1.266 . S
Co238 O241 1.970 . S
Co238 N255 1.989 . S
Co238 O263 1.967 . S
Co238 O270 1.920 . S
Co239 O242 1.966 . S
Co239 N248 2.022 . S
Co239 N256 1.993 . S
Co239 O264 1.941 . S
C240 O241 1.258 . S
C240 O242 1.263 . S
O241 Co238 1.970 . S
O241 C240 1.258 . S
O242 Co239 1.966 . S
O242 C240 1.263 . S
C243 O244 1.235 . S
C243 O270 1.289 . S
O244 C243 1.235 . S
C245 C247 1.400 . S
C245 N248 1.351 . S
C245 C250 1.501 . S
C246 C247 1.387 . S
C246 N249 1.341 . S
C247 C245 1.400 . S
C247 C246 1.387 . S
N248 Co239 2.022 . S
N248 C245 1.351 . S
N248 N249 1.365 . S
N249 C246 1.341 . S
N249 N248 1.365 . S
N249 H269 0.862 . S
C250 C245 1.501 . S
C250 H251 0.961 . S
C250 H252 0.961 . S
C250 H253 0.960 . S
H251 C250 0.961 . S
H252 C250 0.961 . S
H253 C250 0.960 . S
C254 N255 1.342 1_545 S
C254 C258 1.401 . S
C254 C259 1.499 . S
N255 Co238 1.989 . S
N255 C254 1.342 1_565 S
N255 N256 1.388 . S
N256 Co239 1.993 . S
N256 N255 1.388 . S
N256 C257 1.346 1_565 S
C257 N256 1.346 1_545 S
C257 C258 1.396 . S
C257 C267 1.510 . S
C258 C254 1.401 . S
C258 C257 1.396 . S
C259 C254 1.499 . S
C259 H260 0.959 . S
C259 H261 0.960 . S
C259 H262 0.961 . S
H260 C259 0.959 . S
H261 C259 0.960 . S
H262 C259 0.961 . S
O263 Co238 1.967 . S
O263 C271 1.258 . S
O264 Co239 1.941 . S
O264 C271 1.266 . S
H265 C267 0.959 . S
H266 C267 0.961 . S
C267 C257 1.510 . S
C267 H265 0.959 . S
C267 H266 0.961 . S
C267 H268 0.960 . S
H268 C267 0.960 . S
H269 N249 0.862 . S
O270 Co238 1.920 . S
O270 C243 1.289 . S
C271 O263 1.258 . S
C271 O264 1.266 . S
H272 C278 0.930 . S
H273 C281 0.930 . S
H274 C282 0.930 . S
H275 C283 0.930 . S
H276 C286 0.930 . S
H277 C287 0.930 . S
C278 H272 0.930 . S
C278 C279 1.355 1_455 S
C278 C280 1.415 . S
C279 C278 1.355 1_655 S
C279 C281 1.419 . S
C280 C278 1.415 . S
C280 C285 1.425 1_455 S
C280 C287 1.409 . S
C281 H273 0.930 . S
C281 C279 1.419 . S
C281 C282 1.362 . S
C282 H274 0.930 . S
C282 C281 1.362 . S
C282 C285 1.409 . S
C283 H275 0.930 . S
C283 C284 1.355 1_655 S
C283 C285 1.415 . S
C284 C283 1.355 1_455 S
C284 C286 1.419 . S
C285 C280 1.425 1_655 S
C285 C282 1.409 . S
C285 C283 1.415 . S
C286 H276 0.930 . S
C286 C284 1.419 . S
C286 C287 1.362 . S
C287 H277 0.930 . S
C287 C280 1.409 . S
C287 C286 1.362 . S
H288 C294 0.930 . S
H289 C297 0.930 . S
H290 C298 0.930 . S
H291 C299 0.930 . S
H292 C302 0.930 . S
H293 C303 0.930 . S
C294 H288 0.930 . S
C294 C295 1.355 . S
C294 C296 1.415 . S
C295 C294 1.355 . S
C295 C297 1.419 . S
C296 C294 1.415 . S
C296 C301 1.425 1_655 S
C296 C303 1.409 . S
C297 H289 0.930 . S
C297 C295 1.419 . S
C297 C298 1.362 1_655 S
C298 H290 0.930 . S
C298 C297 1.362 1_455 S
C298 C301 1.409 . S
C299 H291 0.930 . S
C299 C300 1.355 . S
C299 C301 1.415 . S
C300 C299 1.355 . S
C300 C302 1.419 . S
C301 C296 1.425 1_455 S
C301 C298 1.409 . S
C301 C299 1.415 . S
C302 H292 0.930 . S
C302 C300 1.419 . S
C302 C303 1.362 1_455 S
C303 H293 0.930 . S
C303 C296 1.409 . S
C303 C302 1.362 1_655 S
H304 C310 0.930 . S
H305 C313 0.930 . S
H306 C314 0.930 . S
H307 C315 0.930 . S
H308 C318 0.930 . S
H309 C319 0.930 . S
C310 H304 0.930 . S
C310 C311 1.355 . S
C310 C312 1.415 . S
C311 C310 1.355 . S
C311 C313 1.419 . S
C312 C310 1.415 . S
C312 C317 1.425 1_565 S
C312 C319 1.409 . S
C313 H305 0.930 . S
C313 C311 1.419 . S
C313 C314 1.362 1_565 S
C314 H306 0.930 . S
C314 C313 1.362 1_545 S
C314 C317 1.409 . S
C315 H307 0.930 . S
C315 C316 1.355 . S
C315 C317 1.415 . S
C316 C315 1.355 . S
C316 C318 1.419 . S
C317 C312 1.425 1_545 S
C317 C314 1.409 . S
C317 C315 1.415 . S
C318 H308 0.930 . S
C318 C316 1.419 . S
C318 C319 1.362 1_545 S
C319 H309 0.930 . S
C319 C312 1.409 . S
C319 C318 1.362 1_565 S
H320 C326 0.930 . S
H321 C329 0.930 . S
H322 C330 0.930 1_545 S
H323 C331 0.930 . S
H324 C334 0.930 . S
H325 C335 0.930 1_565 S
C326 H320 0.930 . S
C326 C327 1.355 . S
C326 C328 1.415 . S
C327 C326 1.355 . S
C327 C329 1.419 . S
C328 C326 1.415 . S
C328 C333 1.425 1_565 S
C328 C335 1.409 1_565 S
C329 H321 0.930 . S
C329 C327 1.419 . S
C329 C330 1.362 . S
C330 H322 0.930 1_565 S
C330 C329 1.362 . S
C330 C333 1.409 1_565 S
C331 H323 0.930 . S
C331 C332 1.355 . S
C331 C333 1.415 . S
C332 C331 1.355 . S
C332 C334 1.419 . S
C333 C328 1.425 1_545 S
C333 C330 1.409 1_545 S
C333 C331 1.415 . S
C334 H324 0.930 . S
C334 C332 1.419 . S
C334 C335 1.362 . S
C335 H325 0.930 1_545 S
C335 C328 1.409 1_545 S
C335 C334 1.362 . S
H336 C342 0.930 . S
H337 C345 0.930 . S
H338 C346 0.930 . S
H339 C347 0.930 . S
H340 C350 0.930 . S
H341 C351 0.930 . S
C342 H336 0.930 . S
C342 C343 1.355 . S
C342 C344 1.415 . S
C343 C342 1.355 . S
C343 C345 1.419 . S
C344 C342 1.415 . S
C344 C349 1.425 . S
C344 C351 1.409 . S
C345 H337 0.930 . S
C345 C343 1.419 . S
C345 C346 1.362 . S
C346 H338 0.930 . S
C346 C345 1.362 . S
C346 C349 1.409 . S
C347 H339 0.930 . S
C347 C348 1.355 . S
C347 C349 1.415 . S
C348 C347 1.355 . S
C348 C350 1.419 . S
C349 C344 1.425 . S
C349 C346 1.409 . S
C349 C347 1.415 . S
C350 H340 0.930 . S
C350 C348 1.419 . S
C350 C351 1.362 . S
C351 H341 0.930 . S
C351 C344 1.409 . S
C351 C350 1.362 . S
H352 C358 0.930 . S
H353 C361 0.930 . S
H354 C362 0.930 . S
H355 C363 0.930 . S
H356 C366 0.930 . S
H357 C367 0.930 . S
C358 H352 0.930 . S
C358 C359 1.355 . S
C358 C360 1.415 . S
C359 C358 1.355 . S
C359 C361 1.419 . S
C360 C358 1.415 . S
C360 C365 1.425 . S
C360 C367 1.409 . S
C361 H353 0.930 . S
C361 C359 1.419 . S
C361 C362 1.362 . S
C362 H354 0.930 . S
C362 C361 1.362 . S
C362 C365 1.409 . S
C363 H355 0.930 . S
C363 C364 1.355 . S
C363 C365 1.415 . S
C364 C363 1.355 . S
C364 C366 1.419 . S
C365 C360 1.425 . S
C365 C362 1.409 . S
C365 C363 1.415 . S
C366 H356 0.930 . S
C366 C364 1.419 . S
C366 C367 1.362 . S
C367 H357 0.930 . S
C367 C360 1.409 . S
C367 C366 1.362 . S
H368 C374 0.930 . S
H369 C377 0.930 . S
H370 C378 0.930 . S
H371 C379 0.930 . S
H372 C382 0.930 . S
H373 C383 0.930 . S
C374 H368 0.930 . S
C374 C375 1.355 . S
C374 C376 1.415 . S
C375 C374 1.355 . S
C375 C377 1.419 . S
C376 C374 1.415 . S
C376 C381 1.425 . S
C376 C383 1.409 . S
C377 H369 0.930 . S
C377 C375 1.419 . S
C377 C378 1.362 . S
C378 H370 0.930 . S
C378 C377 1.362 . S
C378 C381 1.409 . S
C379 H371 0.930 . S
C379 C380 1.355 . S
C379 C381 1.415 . S
C380 C379 1.355 . S
C380 C382 1.419 . S
C381 C376 1.425 . S
C381 C378 1.409 . S
C381 C379 1.415 . S
C382 H372 0.930 . S
C382 C380 1.419 . S
C382 C383 1.362 . S
C383 H373 0.930 . S
C383 C376 1.409 . S
C383 C382 1.362 . S
H384 C390 0.930 . S
H385 C393 0.930 . S
H386 C394 0.930 . S
H387 C395 0.930 . S
H388 C398 0.930 . S
H389 C399 0.930 . S
C390 H384 0.930 . S
C390 C391 1.355 . S
C390 C392 1.415 . S
C391 C390 1.355 . S
C391 C393 1.419 . S
C392 C390 1.415 . S
C392 C397 1.425 . S
C392 C399 1.409 . S
C393 H385 0.930 . S
C393 C391 1.419 . S
C393 C394 1.362 . S
C394 H386 0.930 . S
C394 C393 1.362 . S
C394 C397 1.409 . S
C395 H387 0.930 . S
C395 C396 1.355 . S
C395 C397 1.415 . S
C396 C395 1.355 . S
C396 C398 1.419 . S
C397 C392 1.425 . S
C397 C394 1.409 . S
C397 C395 1.415 . S
C398 H388 0.930 . S
C398 C396 1.419 . S
C398 C399 1.362 . S
C399 H389 0.930 . S
C399 C392 1.409 . S
C399 C398 1.362 . S
H400 C406 0.930 . S
H401 C409 0.930 . S
H402 C410 0.930 . S
H403 C411 0.930 . S
H404 C414 0.930 . S
H405 C415 0.930 . S
C406 H400 0.930 . S
C406 C407 1.355 . S
C406 C408 1.415 . S
C407 C406 1.355 . S
C407 C409 1.419 . S
C408 C406 1.415 . S
C408 C413 1.425 . S
C408 C415 1.409 . S
C409 H401 0.930 . S
C409 C407 1.419 . S
C409 C410 1.362 . S
C410 H402 0.930 . S
C410 C409 1.362 . S
C410 C413 1.409 . S
C411 H403 0.930 . S
C411 C412 1.355 . S
C411 C413 1.415 . S
C412 C411 1.355 . S
C412 C414 1.419 . S
C413 C408 1.425 . S
C413 C410 1.409 . S
C413 C411 1.415 . S
C414 H404 0.930 . S
C414 C412 1.419 . S
C414 C415 1.362 . S
C415 H405 0.930 . S
C415 C408 1.409 . S
C415 C414 1.362 . S
H416 C422 0.930 . S
H417 C425 0.930 . S
H418 C426 0.930 . S
H419 C427 0.930 . S
H420 C430 0.930 . S
H421 C431 0.930 . S
C422 H416 0.930 . S
C422 C423 1.355 . S
C422 C424 1.415 . S
C423 C422 1.355 . S
C423 C425 1.419 . S
C424 C422 1.415 . S
C424 C429 1.425 . S
C424 C431 1.409 . S
C425 H417 0.930 . S
C425 C423 1.419 . S
C425 C426 1.362 . S
C426 H418 0.930 . S
C426 C425 1.362 . S
C426 C429 1.409 . S
C427 H419 0.930 . S
C427 C428 1.355 . S
C427 C429 1.415 . S
C428 C427 1.355 . S
C428 C430 1.419 . S
C429 C424 1.425 . S
C429 C426 1.409 . S
C429 C427 1.415 . S
C430 H420 0.930 . S
C430 C428 1.419 . S
C430 C431 1.362 . S
C431 H421 0.930 . S
C431 C424 1.409 . S
C431 C430 1.362 . S
H432 C438 0.930 . S
H433 C441 0.930 . S
H434 C442 0.930 . S
H435 C443 0.930 . S
H436 C446 0.930 . S
H437 C447 0.930 . S
C438 H432 0.930 . S
C438 C439 1.355 . S
C438 C440 1.415 . S
C439 C438 1.355 . S
C439 C441 1.419 . S
C440 C438 1.415 . S
C440 C445 1.425 . S
C440 C447 1.409 . S
C441 H433 0.930 . S
C441 C439 1.419 . S
C441 C442 1.362 . S
C442 H434 0.930 . S
C442 C441 1.362 . S
C442 C445 1.409 . S
C443 H435 0.930 . S
C443 C444 1.355 . S
C443 C445 1.415 . S
C444 C443 1.355 . S
C444 C446 1.419 . S
C445 C440 1.425 . S
C445 C442 1.409 . S
C445 C443 1.415 . S
C446 H436 0.930 . S
C446 C444 1.419 . S
C446 C447 1.362 . S
C447 H437 0.930 . S
C447 C440 1.409 . S
C447 C446 1.362 . S
H448 C454 0.930 . S
H449 C457 0.930 . S
H450 C458 0.930 . S
H451 C459 0.930 . S
H452 C462 0.930 . S
H453 C463 0.930 . S
C454 H448 0.930 . S
C454 C455 1.355 . S
C454 C456 1.415 . S
C455 C454 1.355 . S
C455 C457 1.419 . S
C456 C454 1.415 . S
C456 C461 1.425 . S
C456 C463 1.409 . S
C457 H449 0.930 . S
C457 C455 1.419 . S
C457 C458 1.362 . S
C458 H450 0.930 . S
C458 C457 1.362 . S
C458 C461 1.409 . S
C459 H451 0.930 . S
C459 C460 1.355 . S
C459 C461 1.415 . S
C460 C459 1.355 . S
C460 C462 1.419 . S
C461 C456 1.425 . S
C461 C458 1.409 . S
C461 C459 1.415 . S
C462 H452 0.930 . S
C462 C460 1.419 . S
C462 C463 1.362 . S
C463 H453 0.930 . S
C463 C456 1.409 . S
C463 C462 1.362 . S
H464 C470 0.930 . S
H465 C473 0.930 . S
H466 C474 0.930 . S
H467 C475 0.930 . S
H468 C478 0.930 . S
H469 C479 0.930 . S
C470 H464 0.930 . S
C470 C471 1.355 . S
C470 C472 1.415 . S
C471 C470 1.355 . S
C471 C473 1.419 . S
C472 C470 1.415 . S
C472 C477 1.425 . S
C472 C479 1.409 . S
C473 H465 0.930 . S
C473 C471 1.419 . S
C473 C474 1.362 . S
C474 H466 0.930 . S
C474 C473 1.362 . S
C474 C477 1.409 . S
C475 H467 0.930 . S
C475 C476 1.355 . S
C475 C477 1.415 . S
C476 C475 1.355 . S
C476 C478 1.419 . S
C477 C472 1.425 . S
C477 C474 1.409 . S
C477 C475 1.415 . S
C478 H468 0.930 . S
C478 C476 1.419 . S
C478 C479 1.362 . S
C479 H469 0.930 . S
C479 C472 1.409 . S
C479 C478 1.362 . S
H480 C486 0.930 . S
H481 C489 0.930 . S
H482 C490 0.930 . S
H483 C491 0.930 . S
H484 C494 0.930 . S
H485 C495 0.930 . S
C486 H480 0.930 . S
C486 C487 1.355 . S
C486 C488 1.415 . S
C487 C486 1.355 . S
C487 C489 1.419 . S
C488 C486 1.415 . S
C488 C493 1.425 1_554 S
C488 C495 1.409 1_554 S
C489 H481 0.930 . S
C489 C487 1.419 . S
C489 C490 1.362 . S
C490 H482 0.930 . S
C490 C489 1.362 . S
C490 C493 1.409 1_554 S
C491 H483 0.930 . S
C491 C492 1.355 . S
C491 C493 1.415 . S
C492 C491 1.355 . S
C492 C494 1.419 . S
C493 C488 1.425 1_556 S
C493 C490 1.409 1_556 S
C493 C491 1.415 . S
C494 H484 0.930 . S
C494 C492 1.419 . S
C494 C495 1.362 . S
C495 H485 0.930 . S
C495 C488 1.409 1_556 S
C495 C494 1.362 . S
H496 C502 0.930 . S
H497 C505 0.930 . S
H498 C506 0.930 . S
H499 C507 0.930 . S
H500 C510 0.930 . S
H501 C511 0.930 . S
C502 H496 0.930 . S
C502 C503 1.355 . S
C502 C504 1.415 . S
C503 C502 1.355 . S
C503 C505 1.419 . S
C504 C502 1.415 . S
C504 C509 1.425 . S
C504 C511 1.409 . S
C505 H497 0.930 . S
C505 C503 1.419 . S
C505 C506 1.362 . S
C506 H498 0.930 . S
C506 C505 1.362 . S
C506 C509 1.409 . S
C507 H499 0.930 . S
C507 C508 1.355 . S
C507 C509 1.415 . S
C508 C507 1.355 . S
C508 C510 1.419 . S
C509 C504 1.425 . S
C509 C506 1.409 . S
C509 C507 1.415 . S
C510 H500 0.930 . S
C510 C508 1.419 . S
C510 C511 1.362 . S
C511 H501 0.930 . S
C511 C504 1.409 . S
C511 C510 1.362 . S
H512 C518 0.930 . S
H513 C521 0.930 . S
H514 C522 0.930 . S
H515 C523 0.930 . S
H516 C526 0.930 . S
H517 C527 0.930 . S
C518 H512 0.930 . S
C518 C519 1.355 . S
C518 C520 1.415 . S
C519 C518 1.355 . S
C519 C521 1.419 . S
C520 C518 1.415 . S
C520 C525 1.425 1_554 S
C520 C527 1.409 . S
C521 H513 0.930 . S
C521 C519 1.419 . S
C521 C522 1.362 1_554 S
C522 H514 0.930 . S
C522 C521 1.362 1_556 S
C522 C525 1.409 . S
C523 H515 0.930 . S
C523 C524 1.355 . S
C523 C525 1.415 . S
C524 C523 1.355 . S
C524 C526 1.419 . S
C525 C520 1.425 1_556 S
C525 C522 1.409 . S
C525 C523 1.415 . S
C526 H516 0.930 . S
C526 C524 1.419 . S
C526 C527 1.362 1_556 S
C527 H517 0.930 . S
C527 C520 1.409 . S
C527 C526 1.362 1_554 S
H528 C534 0.930 . S
H529 C537 0.930 . S
H530 C538 0.930 . S
H531 C539 0.930 . S
H532 C542 0.930 . S
H533 C543 0.930 . S
C534 H528 0.930 . S
C534 C535 1.355 . S
C534 C536 1.415 . S
C535 C534 1.355 . S
C535 C537 1.419 . S
C536 C534 1.415 . S
C536 C541 1.425 1_665 S
C536 C543 1.409 1_565 S
C537 H529 0.930 . S
C537 C535 1.419 . S
C537 C538 1.362 1_655 S
C538 H530 0.930 . S
C538 C537 1.362 1_455 S
C538 C541 1.409 1_565 S
C539 H531 0.930 . S
C539 C540 1.355 . S
C539 C541 1.415 . S
C540 C539 1.355 . S
C540 C542 1.419 . S
C541 C536 1.425 1_445 S
C541 C538 1.409 1_545 S
C541 C539 1.415 . S
C542 H532 0.930 . S
C542 C540 1.419 . S
C542 C543 1.362 1_455 S
C543 H533 0.930 . S
C543 C536 1.409 1_545 S
C543 C542 1.362 1_655 S
H544 C550 0.930 . S
H545 C553 0.930 . S
H546 C554 0.930 . S
H547 C555 0.930 . S
H548 C558 0.930 . S
H549 C559 0.930 . S
C550 H544 0.930 . S
C550 C551 1.355 . S
C550 C552 1.415 . S
C551 C550 1.355 . S
C551 C553 1.419 . S
C552 C550 1.415 . S
C552 C557 1.425 . S
C552 C559 1.409 . S
C553 H545 0.930 . S
C553 C551 1.419 . S
C553 C554 1.362 . S
C554 H546 0.930 . S
C554 C553 1.362 . S
C554 C557 1.409 . S
C555 H547 0.930 . S
C555 C556 1.355 . S
C555 C557 1.415 . S
C556 C555 1.355 . S
C556 C558 1.419 . S
C557 C552 1.425 . S
C557 C554 1.409 . S
C557 C555 1.415 . S
C558 H548 0.930 . S
C558 C556 1.419 . S
C558 C559 1.362 . S
C559 H549 0.930 . S
C559 C552 1.409 . S
C559 C558 1.362 . S
H560 C566 0.930 . S
H561 C569 0.930 . S
H562 C570 0.930 . S
H563 C571 0.930 . S
H564 C574 0.930 . S
H565 C575 0.930 . S
C566 H560 0.930 . S
C566 C567 1.355 . S
C566 C568 1.415 . S
C567 C566 1.355 . S
C567 C569 1.419 . S
C568 C566 1.415 . S
C568 C573 1.425 . S
C568 C575 1.409 . S
C569 H561 0.930 . S
C569 C567 1.419 . S
C569 C570 1.362 . S
C570 H562 0.930 . S
C570 C569 1.362 . S
C570 C573 1.409 . S
C571 H563 0.930 . S
C571 C572 1.355 . S
C571 C573 1.415 . S
C572 C571 1.355 . S
C572 C574 1.419 . S
C573 C568 1.425 . S
C573 C570 1.409 . S
C573 C571 1.415 . S
C574 H564 0.930 . S
C574 C572 1.419 . S
C574 C575 1.362 . S
C575 H565 0.930 . S
C575 C568 1.409 . S
C575 C574 1.362 . S
H576 C582 0.930 . S
H577 C585 0.930 . S
H578 C586 0.930 . S
H579 C587 0.930 . S
H580 C590 0.930 . S
H581 C591 0.930 . S
C582 H576 0.930 . S
C582 C583 1.355 . S
C582 C584 1.415 . S
C583 C582 1.355 . S
C583 C585 1.419 . S
C584 C582 1.415 . S
C584 C589 1.425 1_445 S
C584 C591 1.409 1_455 S
C585 H577 0.930 . S
C585 C583 1.419 . S
C585 C586 1.362 1_545 S
C586 H578 0.930 . S
C586 C585 1.362 1_565 S
C586 C589 1.409 1_455 S
C587 H579 0.930 . S
C587 C588 1.355 . S
C587 C589 1.415 . S
C588 C587 1.355 . S
C588 C590 1.419 . S
C589 C584 1.425 1_665 S
C589 C586 1.409 1_655 S
C589 C587 1.415 . S
C590 H580 0.930 . S
C590 C588 1.419 . S
C590 C591 1.362 1_565 S
C591 H581 0.930 . S
C591 C584 1.409 1_655 S
C591 C590 1.362 1_545 S
C279 C77 0.476 . S
C284 C9 0.558 . S
C295 C111 0.549 . S
C300 C43 0.486 . S
C311 C213 0.423 . S
C316 C145 0.598 . S
C327 C247 0.624 . S
C332 C179 0.378 . S
C343 C156 2.391 . S
C348 C33 2.376 . S
C359 C190 2.384 . S
C364 C67 2.374 . S
C375 C224 2.384 . S
C380 C101 2.374 . S
C391 C135 2.403 . S
C396 C258 2.409 . S
C407 C20 2.403 . S
C412 C169 2.387 . S
C423 C54 2.406 . S
C428 C203 2.391 . S
C439 C88 2.409 . S
C444 C237 2.399 . S
C455 C271 2.374 . S
C460 C122 2.387 . S
C471 C2 1.710 . S
C476 C172 1.737 . S
C487 C206 1.741 . S
C492 C36 1.713 . S
C503 C240 1.738 . S
C508 C70 1.753 . S
C519 C138 1.738 . S
C524 C104 1.753 . S
C535 C73 0.557 . S
C540 C5 0.455 . S
C551 C39 0.453 . S
C556 C107 0.401 . S
C567 C209 0.546 . S
C572 C141 0.620 . S
C583 C175 0.408 . S
C588 C243 0.491 . S
