# Generated by pormake.
# Topology snk, (6)-cn, num edge types: 1
# Building blocks:
#     Node 0, Type 0, BuildingBlock: INOVEN_clean_sbu_0, # of connection points: 6
#     Node 1, Type 0, BuildingBlock: INOVEN_clean_sbu_0, # of connection points: 6
#     Node 2, Type 0, BuildingBlock: INOVEN_clean_sbu_0, # of connection points: 6
#     Node 3, Type 0, BuildingBlock: INOVEN_clean_sbu_0, # of connection points: 6
#     Node 4, Type 0, BuildingBlock: INOVEN_clean_sbu_0, # of connection points: 6
#     Node 5, Type 0, BuildingBlock: INOVEN_clean_sbu_0, # of connection points: 6
#     Node 6, Type 0, BuildingBlock: INOVEN_clean_sbu_0, # of connection points: 6
#     Node 7, Type 0, BuildingBlock: INOVEN_clean_sbu_0, # of connection points: 6
#     Edge 8, Type (0, 0), BuildingBlock: XUDNAN_clean_linker_2, # of connection points: 2
#     Edge 9, Type (0, 0), BuildingBlock: XUDNAN_clean_linker_2, # of connection points: 2
#     Edge 10, Type (0, 0), BuildingBlock: XUDNAN_clean_linker_2, # of connection points: 2
#     Edge 11, Type (0, 0), BuildingBlock: XUDNAN_clean_linker_2, # of connection points: 2
#     Edge 12, Type (0, 0), BuildingBlock: XUDNAN_clean_linker_2, # of connection points: 2
#     Edge 13, Type (0, 0), BuildingBlock: XUDNAN_clean_linker_2, # of connection points: 2
#     Edge 14, Type (0, 0), BuildingBlock: XUDNAN_clean_linker_2, # of connection points: 2
#     Edge 15, Type (0, 0), BuildingBlock: XUDNAN_clean_linker_2, # of connection points: 2
#     Edge 16, Type (0, 0), BuildingBlock: XUDNAN_clean_linker_2, # of connection points: 2
#     Edge 17, Type (0, 0), BuildingBlock: XUDNAN_clean_linker_2, # of connection points: 2
#     Edge 18, Type (0, 0), BuildingBlock: XUDNAN_clean_linker_2, # of connection points: 2
#     Edge 19, Type (0, 0), BuildingBlock: XUDNAN_clean_linker_2, # of connection points: 2
#     Edge 20, Type (0, 0), BuildingBlock: XUDNAN_clean_linker_2, # of connection points: 2
#     Edge 21, Type (0, 0), BuildingBlock: XUDNAN_clean_linker_2, # of connection points: 2
#     Edge 22, Type (0, 0), BuildingBlock: XUDNAN_clean_linker_2, # of connection points: 2
#     Edge 23, Type (0, 0), BuildingBlock: XUDNAN_clean_linker_2, # of connection points: 2
#     Edge 24, Type (0, 0), BuildingBlock: XUDNAN_clean_linker_2, # of connection points: 2
#     Edge 25, Type (0, 0), BuildingBlock: XUDNAN_clean_linker_2, # of connection points: 2
#     Edge 26, Type (0, 0), BuildingBlock: XUDNAN_clean_linker_2, # of connection points: 2
#     Edge 27, Type (0, 0), BuildingBlock: XUDNAN_clean_linker_2, # of connection points: 2
#     Edge 28, Type (0, 0), BuildingBlock: XUDNAN_clean_linker_2, # of connection points: 2
#     Edge 29, Type (0, 0), BuildingBlock: XUDNAN_clean_linker_2, # of connection points: 2
#     Edge 30, Type (0, 0), BuildingBlock: XUDNAN_clean_linker_2, # of connection points: 2
#     Edge 31, Type (0, 0), BuildingBlock: XUDNAN_clean_linker_2, # of connection points: 2
# Relax obj value: 0.071
# Max RMSD: 0.139
# Mean RMSD: 0.115
data_MOF--net-snk--node1-INOVEN_clean_sbu_0--edge1-XUDNAN_clean_linker_2
_symmetry_space_group_name_H-M    P1
_symmetry_Int_Tables_number       1
_symmetry_cell_setting            triclinic
loop_
_symmetry_equiv_pos_as_xyz
'x, y, z'
_cell_length_a     37.584839
_cell_length_b     37.615664
_cell_length_c     25.415608
_cell_angle_alpha  96.35179
_cell_angle_beta   96.429444
_cell_angle_gamma 90.823086
loop_
_atom_site_label
_atom_site_type_symbol
_atom_site_fract_x
_atom_site_fract_y
_atom_site_fract_z
_atom_type_partial_charge
Gd0 Gd 0.99307 0.98801 0.45976 0.0
Gd1 Gd 0.02476 0.02643 0.57036 0.0
C2 C 0.06254 0.04508 0.47057 0.0
C3 C 0.96722 0.97758 0.35986 0.0
C4 C 0.97883 0.98039 0.30639 0.0
C5 C 0.01333 0.97093 0.29454 0.0
C6 C 0.95455 0.99175 0.26586 0.0
C7 C 0.99826 0.98219 0.20162 0.0
C8 C 0.96413 0.99274 0.21418 0.0
C9 C 0.02288 0.97173 0.2428 0.0
C10 C 0.04021 0.94991 0.51566 0.0
C11 C 0.9585 0.96662 0.56023 0.0
C12 C 0.04904 0.03951 0.67067 0.0
C13 C 0.0437 0.02748 0.72334 0.0
C14 C 0.01167 0.03339 0.74661 0.0
C15 C 0.07201 0.01166 0.75247 0.0
C16 C 0.03669 1.00816 0.82712 0.0
C17 C 0.06857 1.00207 0.80347 0.0
C18 C 1.00825 0.02391 0.79784 0.0
C19 C 0.97326 0.06125 0.51499 0.0
O20 O 0.03708 0.02467 0.44107 0.0
O21 O 0.06534 0.0491 0.52331 0.0
O22 O 0.98115 0.95231 0.38662 0.0
O23 O 0.96408 1.0076 0.39017 0.0
O24 O 0.01396 0.93581 0.48178 0.0
O25 O 0.0427 0.9834 0.51408 0.0
O26 O 0.98675 0.98344 0.58876 0.0
O27 O 0.95169 0.96795 0.50813 0.0
O28 O 0.0235 0.0575 0.64726 0.0
O29 O 0.06401 0.01724 0.63692 0.0
O30 O 1.00019 0.07763 0.54501 0.0
O31 O 0.97415 0.02818 0.5184 0.0
H32 H 0.03279 0.96247 0.32509 0.0
H33 H 0.92781 0.99926 0.27397 0.0
H34 H 0.94436 1.00069 0.18364 0.0
H35 H 0.0496 0.964 0.23501 0.0
H36 H 0.98926 0.04559 0.72548 0.0
H37 H 0.09717 1.00716 0.73605 0.0
H38 H 0.09129 0.9905 0.82484 0.0
H39 H 0.98316 0.02865 0.81431 0.0
Gd40 Gd 0.27286 0.75229 0.70311 0.0
Gd41 Gd 0.25814 0.78532 0.81694 0.0
C42 C 0.21621 0.81417 0.71672 0.0
C43 C 0.27617 0.71519 0.612 0.0
C44 C 0.27271 0.72053 0.55498 0.0
C45 C 0.28001 0.7539 0.53793 0.0
C46 C 0.26108 0.6917 0.51693 0.0
C47 C 0.26334 0.72945 0.44517 0.0
C48 C 0.25646 0.69606 0.46268 0.0
C49 C 0.27551 0.75828 0.48346 0.0
C50 C 0.30642 0.81607 0.73885 0.0
C51 C 0.31051 0.71712 0.8062 0.0
C52 C 0.26196 0.81371 0.91541 0.0
C53 C 0.26471 0.80076 0.96841 0.0
C54 C 0.25626 0.76495 0.97364 0.0
C55 C 0.2733 0.82486 1.01444 0.0
C56 C 0.26201 0.77821 0.07049 0.0
C57 C 0.27209 0.81369 0.06508 0.0
C58 C 0.25487 0.75381 0.02415 0.0
C59 C 0.21213 0.73277 0.76843 0.0
O60 O 0.22251 0.78307 0.69012 0.0
O61 O 0.23378 0.82513 0.76399 0.0
O62 O 0.30447 0.72977 0.64206 0.0
O63 O 0.24668 0.71816 0.63516 0.0
O64 O 0.2976 0.80527 0.6888 0.0
O65 O 0.30044 0.79112 0.76571 0.0
O66 O 0.29491 0.74065 0.83849 0.0
O67 O 0.3054 0.71599 0.75355 0.0
O68 O 0.23188 0.80562 0.88511 0.0
O69 O 0.28989 0.80995 0.88911 0.0
O70 O 0.20222 0.75926 0.80006 0.0
O71 O 0.24524 0.73453 0.76734 0.0
H72 H 0.28881 0.7766 0.56671 0.0
H73 H 0.25534 0.66574 0.52923 0.0
H74 H 0.24757 0.67315 0.43436 0.0
H75 H 0.28075 0.78441 0.47143 0.0
H76 H 0.24974 0.74585 0.93859 0.0
H77 H 0.27988 0.85262 1.0112 0.0
H78 H 0.27756 0.8332 0.09984 0.0
H79 H 0.24761 0.72616 0.02688 0.0
Gd80 Gd 0.52844 0.995 0.05674 0.0
Gd81 Gd 0.4991 0.02321 0.95178 0.0
C82 C 0.46038 0.04685 0.05247 0.0
C83 C 0.55302 0.98558 0.15331 0.0
C84 C 0.54663 0.99671 0.20885 0.0
C85 C 0.55003 0.97146 0.2456 0.0
C86 C 0.53828 0.03206 0.2262 0.0
C87 C 0.53803 0.01682 0.31704 0.0
C88 C 0.5341 0.04204 0.27988 0.0
C89 C 0.54573 0.98135 0.2991 0.0
C90 C 0.48143 0.95165 0.99084 0.0
C91 C 0.56833 0.97098 0.95585 0.0
C92 C 0.47373 0.03194 0.85523 0.0
C93 C 0.48568 0.03413 0.80206 0.0
C94 C 0.48346 0.06677 0.78005 0.0
C95 C 0.49751 1.00393 0.7717 0.0
C96 C 0.50456 0.03919 0.69836 0.0
C97 C 0.50681 1.00645 0.72035 0.0
C98 C 0.49291 0.06932 0.72895 0.0
C99 C 0.54856 0.0653 1.01602 0.0
O100 O 0.49003 0.03838 0.08112 0.0
O101 O 0.45448 0.03696 1.00073 0.0
O102 O 0.52859 0.96448 0.12437 0.0
O103 O 0.56592 0.00992 0.12698 0.0
O104 O 0.50974 0.94016 1.01714 0.0
O105 O 0.47922 0.98489 1.00118 0.0
O106 O 0.54091 0.98339 0.92624 0.0
O107 O 0.57211 0.97657 1.00845 0.0
O108 O 0.48345 0.05855 0.892 0.0
O109 O 0.4746 1.00076 0.87375 0.0
O110 O 0.52164 0.07823 0.98849 0.0
O111 O 0.5485 0.03205 1.00603 0.0
H112 H 0.55656 0.94409 0.23303 0.0
H113 H 0.5353 0.05201 0.19846 0.0
H114 H 0.52775 0.06947 0.29228 0.0
H115 H 0.54939 0.96137 0.32668 0.0
H116 H 0.47396 0.09033 0.8022 0.0
H117 H 0.49937 0.9783 0.78735 0.0
H118 H 0.51596 0.98281 0.69797 0.0
H119 H 0.49032 0.09479 0.71294 0.0
Gd120 Gd 0.27939 0.26275 0.31097 0.0
Gd121 Gd 0.23575 0.24059 0.19992 0.0
C122 C 0.21671 0.19912 0.29513 0.0
C123 C 0.2998 0.28135 0.4114 0.0
C124 C 0.2872 0.28089 0.46493 0.0
C125 C 0.29235 0.25088 0.49325 0.0
C126 C 0.27309 0.31175 0.49044 0.0
C127 C 0.27171 0.28341 0.57231 0.0
C128 C 0.26532 0.31294 0.54328 0.0
C129 C 0.28459 0.25209 0.54613 0.0
C130 C 0.31055 0.21512 0.2448 0.0
C131 C 0.29834 0.30405 0.21327 0.0
C132 C 0.21835 0.22103 0.09897 0.0
C133 C 0.22478 0.23297 0.04697 0.0
C134 C 0.21951 0.26845 0.03602 0.0
C135 C 0.23628 0.20822 1.00729 0.0
C136 C 0.23703 0.25405 0.94631 0.0
C137 C 0.2424 0.21859 0.95768 0.0
C138 C 0.22543 0.27882 0.9863 0.0
C139 C 0.20353 0.28649 0.26704 0.0
O140 O 0.23401 0.22551 0.32768 0.0
O141 O 0.21782 0.19632 0.24298 0.0
O142 O 0.30719 0.25065 0.38593 0.0
O143 O 0.28476 0.30338 0.37959 0.0
O144 O 0.32844 0.23927 0.27833 0.0
O145 O 0.27769 0.21606 0.25036 0.0
O146 O 0.27639 0.28064 0.18261 0.0
O147 O 0.30303 0.30463 0.26594 0.0
O148 O 0.19809 0.24068 0.12864 0.0
O149 O 0.246 0.20882 0.12676 0.0
O150 O 0.18589 0.26351 0.23125 0.0
O151 O 0.2365 0.28639 0.26189 0.0
H152 H 0.3035 0.22674 0.4752 0.0
H153 H 0.26891 0.33541 0.47004 0.0
H154 H 0.25484 0.33733 0.56171 0.0
H155 H 0.29019 0.22893 0.56718 0.0
H156 H 0.21072 0.28823 0.06579 0.0
H157 H 0.24068 0.18072 1.01477 0.0
H158 H 0.25188 0.19883 0.92856 0.0
H159 H 0.22048 0.30624 0.97908 0.0
Gd160 Gd 0.75919 0.24576 0.23901 0.0
Gd161 Gd 0.73574 0.27523 0.34799 0.0
C162 C 0.70048 0.30862 0.24519 0.0
C163 C 0.76097 0.21775 0.14193 0.0
C164 C 0.75625 0.23046 0.08904 0.0
C165 C 0.76471 0.26605 0.08261 0.0
C166 C 0.74263 0.20691 0.04453 0.0
C167 C 0.74654 0.25424 0.98712 0.0
C168 C 0.73778 0.21866 0.99399 0.0
C169 C 0.76008 0.27778 0.03209 0.0
C170 C 0.79777 0.3027 0.29095 0.0
C171 C 0.79485 0.21229 0.34126 0.0
C172 C 0.73171 0.3056 0.44339 0.0
C173 C 0.73534 0.30072 0.50031 0.0
C174 C 0.72214 0.26992 0.51902 0.0
C175 C 0.75058 0.32889 0.53692 0.0
C176 C 0.73712 0.29692 0.61067 0.0
C177 C 0.75149 0.32704 0.59154 0.0
C178 C 0.72312 0.26801 0.57391 0.0
C179 C 0.69663 0.21951 0.29386 0.0
O180 O 0.71229 0.28083 0.21598 0.0
O181 O 0.71112 0.31538 0.29679 0.0
O182 O 0.78959 0.22986 0.17342 0.0
O183 O 0.73217 0.21717 0.16647 0.0
O184 O 0.81161 0.27784 0.2606 0.0
O185 O 0.7647 0.29737 0.28872 0.0
O186 O 0.78251 0.23959 0.37109 0.0
O187 O 0.78452 0.20586 0.28956 0.0
O188 O 0.70426 0.28992 0.41283 0.0
O189 O 0.76116 0.30539 0.42035 0.0
O190 O 0.68248 0.24511 0.32241 0.0
O191 O 0.72992 0.22389 0.29823 0.0
H192 H 0.77503 0.28473 0.11662 0.0
H193 H 0.73563 0.17943 0.04891 0.0
H194 H 0.72674 0.19999 0.96043 0.0
H195 H 0.76756 0.3052 0.02825 0.0
H196 H 0.71034 0.24781 0.49134 0.0
H197 H 0.76105 0.35279 0.52319 0.0
H198 H 0.76305 0.34944 0.61886 0.0
H199 H 0.71177 0.24451 0.58752 0.0
Gd200 Gd 0.78677 0.76553 0.82814 0.0
Gd201 Gd 0.74673 0.7427 0.71652 0.0
C202 C 0.72151 0.70483 0.81369 0.0
C203 C 0.80271 0.78711 0.92871 0.0
C204 C 0.80163 0.77502 0.98222 0.0
C205 C 0.83352 0.7749 1.01671 0.0
C206 C 0.76918 0.76596 1.00092 0.0
C207 C 0.80067 0.75769 0.08797 0.0
C208 C 0.76872 0.75749 0.05325 0.0
C209 C 0.83309 0.76624 0.0688 0.0
C210 C 0.81779 0.71354 0.76872 0.0
C211 C 0.81032 0.80525 0.73362 0.0
C212 C 0.73019 0.72179 0.61578 0.0
C213 C 0.74216 0.72764 0.56383 0.0
C214 C 0.71691 0.72568 0.51849 0.0
C215 C 0.77845 0.73378 0.55831 0.0
C216 C 0.76416 0.73388 0.4621 0.0
C217 C 0.78934 0.7368 0.50795 0.0
C218 C 0.72774 0.72884 0.46819 0.0
C219 C 0.71596 0.79454 0.77623 0.0
O220 O 0.74335 0.72814 0.84484 0.0
O221 O 0.71919 0.70288 0.7609 0.0
O222 O 0.82581 0.77221 0.89875 0.0
O223 O 0.77212 0.79311 0.90156 0.0
O224 O 0.83578 0.73767 0.80214 0.0
O225 O 0.78466 0.71663 0.77121 0.0
O226 O 0.79325 0.77894 0.70071 0.0
O227 O 0.80717 0.80865 0.78519 0.0
O228 O 0.71493 0.74851 0.64111 0.0
O229 O 0.75183 0.70467 0.64756 0.0
O230 O 0.69776 0.77017 0.74342 0.0
O231 O 0.74901 0.79145 0.77327 0.0
H232 H 0.85884 0.78216 1.00362 0.0
H233 H 0.74406 0.76581 0.97542 0.0
H234 H 0.74333 0.75064 0.06646 0.0
H235 H 0.85816 0.76712 0.09454 0.0
H236 H 0.68879 0.72097 0.52183 0.0
H237 H 0.79845 0.7357 0.59277 0.0
H238 H 0.81753 0.74123 0.50488 0.0
H239 H 0.70766 0.72615 0.43383 0.0
Gd240 Gd 0.49923 0.48827 0.9579 0.0
Gd241 Gd 0.5157 0.52727 0.07012 0.0
C242 C 0.55845 0.55294 0.97943 0.0
C243 C 0.4848 0.46856 0.85676 0.0
C244 C 0.48958 0.48272 0.8062 0.0
C245 C 0.49678 0.45901 0.76243 0.0
C246 C 0.48716 0.51941 0.80094 0.0
C247 C 0.49832 0.50824 0.70787 0.0
C248 C 0.49137 0.53203 0.75216 0.0
C249 C 0.5012 0.47159 0.71381 0.0
C250 C 0.54684 0.45659 0.02397 0.0
C251 C 0.4548 0.46265 0.04797 0.0
C252 C 0.53493 0.54556 0.17078 0.0
C253 C 0.5239 0.54483 0.22482 0.0
C254 C 0.51496 0.57683 0.25372 0.0
C255 C 0.5263 0.51349 0.25041 0.0
C256 C 0.51364 0.54685 0.33375 0.0
C257 C 0.52116 0.51449 0.30423 0.0
C258 C 0.50973 0.57781 0.30746 0.0
C259 C 0.4679 0.55974 1.00513 0.0
O260 O 0.53263 0.53681 0.94498 0.0
O261 O 0.56084 0.54826 0.03054 0.0
O262 O 0.51398 0.45979 0.88485 0.0
O263 O 0.46209 0.48483 0.88596 0.0
O264 O 0.52313 0.43894 0.98951 0.0
O265 O 0.54511 0.48965 0.0203 0.0
O266 O 0.4767 0.48327 0.08354 0.0
O267 O 0.45598 0.46255 0.99606 0.0
O268 O 0.51821 0.56691 0.13956 0.0
O269 O 0.54301 0.51519 0.14517 0.0
O270 O 0.49066 0.5769 0.0416 0.0
O271 O 0.46977 0.5265 1.00746 0.0
H272 H 0.49905 0.43065 0.76589 0.0
H273 H 0.4818 0.53826 0.83437 0.0
H274 H 0.48865 0.56036 0.749 0.0
H275 H 0.50726 0.45258 0.68104 0.0
H276 H 0.51319 0.60145 0.23524 0.0
H277 H 0.53348 0.48841 0.22952 0.0
H278 H 0.52473 0.49021 0.32326 0.0
H279 H 0.50337 0.60305 0.32872 0.0
Gd280 Gd 0.02854 0.48651 0.58949 0.0
Gd281 Gd 1.00735 0.51241 0.4788 0.0
C282 C 0.96694 0.54334 0.57663 0.0
C283 C 0.05746 0.47183 0.68141 0.0
C284 C 0.04636 0.4696 0.73464 0.0
C285 C 0.01032 0.47279 0.74355 0.0
C286 C 0.07209 0.46412 0.77708 0.0
C287 C 0.02583 0.46446 0.83713 0.0
C288 C 0.06196 0.46161 0.82789 0.0
C289 C 1.00013 0.47018 0.79434 0.0
C290 C 0.96881 0.45607 0.53342 0.0
C291 C 0.06749 0.45203 0.4889 0.0
C292 C 0.98793 0.52118 0.38048 0.0
C293 C 0.98854 0.50367 0.3256 0.0
C294 C 0.02045 0.49141 0.3067 0.0
C295 C 0.95702 0.50206 0.29014 0.0
C296 C 0.98968 0.47894 0.21668 0.0
C297 C 0.95753 0.48974 0.2363 0.0
C298 C 0.02102 0.47927 0.25268 0.0
C299 C 0.05287 0.55526 0.5487 0.0
O300 O 0.99492 0.53444 0.60849 0.0
O301 O 0.96256 0.53216 0.52504 0.0
O302 O 0.04357 0.44737 0.64363 0.0
O303 O 0.05842 0.50397 0.66607 0.0
O304 O 0.972 0.46361 0.58482 0.0
O305 O 0.99722 0.46359 0.51512 0.0
O306 O 0.04543 0.4692 0.45683 0.0
O307 O 0.06753 0.45628 0.54134 0.0
O308 O 0.01865 0.53313 0.40648 0.0
O309 O 0.96656 0.50708 0.41051 0.0
O310 O 0.02774 0.56762 0.51705 0.0
O311 O 0.05307 0.52187 0.54049 0.0
H312 H 0.99012 0.47725 0.71122 0.0
H313 H 0.10004 0.4616 0.77085 0.0
H314 H 0.08237 0.45681 0.85973 0.0
H315 H 0.97217 0.473 0.80021 0.0
H316 H 0.04516 0.49209 0.33326 0.0
H317 H 0.93215 0.5115 0.30376 0.0
H318 H 0.93299 0.49013 0.20962 0.0
H319 H 0.0461 0.47061 0.23893 0.0
H320 H 0.10297 0.10862 0.49996 0.0
H321 H 0.08146 0.02059 0.37391 0.0
H322 H 0.12051 0.04938 0.31921 0.0
H323 H 0.10208 0.17732 0.4139 0.0
H324 H 0.13803 0.20427 0.45222 0.0
H325 H 0.11067 0.17584 0.48485 0.0
H326 H 0.16731 0.14487 0.52323 0.0
H327 H 0.19487 0.17335 0.49087 0.0
H328 H 0.19766 0.1254 0.47865 0.0
H329 H 0.1579 0.08783 0.27516 0.0
H330 H 0.19346 0.13451 0.24347 0.0
H331 H 0.19285 0.19993 0.39546 0.0
C332 C 0.10712 0.09519 0.46128 0.0
C333 C 0.0891 0.0622 0.44139 0.0
C334 C 0.09472 0.04584 0.39011 0.0
C335 C 0.11701 0.06194 0.35864 0.0
C336 C 0.13373 0.09461 0.37865 0.0
C337 C 0.12935 0.1112 0.42873 0.0
C338 C 0.14944 0.14727 0.43871 0.0
C339 C 0.1235 0.17799 0.44796 0.0
C340 C 0.17908 0.14774 0.48566 0.0
C341 C 0.16523 0.14827 0.38618 0.0
C342 C 0.15577 0.1174 0.35251 0.0
C343 C 0.16575 0.11205 0.30123 0.0
C344 C 0.18589 0.13894 0.28351 0.0
C345 C 0.19608 0.17106 0.31679 0.0
C346 C 0.18577 0.17561 0.36914 0.0
H347 H 0.10697 0.96518 0.57388 0.0
H348 H 0.01893 0.88695 0.54385 0.0
H349 H 0.05253 0.84757 0.60097 0.0
H350 H 0.17564 0.90397 0.56794 0.0
H351 H 0.20622 0.92676 0.6211 0.0
H352 H 0.17378 0.95178 0.58387 0.0
H353 H 0.14929 0.97731 0.67129 0.0
H354 H 0.18196 0.95253 0.70884 0.0
H355 H 0.13501 0.94701 0.71548 0.0
H356 H 0.09681 0.81313 0.64911 0.0
H357 H 0.15025 0.78557 0.69058 0.0
H358 H 0.21119 0.88478 0.6952 0.0
C359 C 0.09464 0.94011 0.5805 0.0
C360 C 0.06038 0.92904 0.5544 0.0
C361 C 0.04522 0.89585 0.56315 0.0
C362 C 0.06399 0.87334 0.59583 0.0
C363 C 0.09797 0.88437 0.61988 0.0
C364 C 0.11326 0.91699 0.61323 0.0
C365 C 0.15139 0.92066 0.641 0.0
C366 C 0.17834 0.92611 0.60108 0.0
C367 C 0.1546 0.95119 0.68688 0.0
C368 C 0.15543 0.8844 0.66201 0.0
C369 C 0.12395 0.86425 0.64965 0.0
C370 C 0.12138 0.82886 0.66021 0.0
C371 C 0.15185 0.81338 0.68361 0.0
C372 C 0.18442 0.83324 0.69679 0.0
C373 C 0.18622 0.86942 0.68667 0.0
H374 H 0.30495 0.86982 0.81831 0.0
H375 H 0.37241 0.81895 0.70633 0.0
H376 H 0.4255 0.85149 0.75664 0.0
H377 H 0.3571 0.95882 0.84211 0.0
H378 H 0.34897 0.96441 0.91107 0.0
H379 H 0.31615 0.94133 0.86134 0.0
H380 H 0.31815 0.88695 0.91564 0.0
H381 H 0.35182 0.9091 0.9646 0.0
H382 H 0.3602 0.8658 0.93097 0.0
H383 H 0.47154 0.87829 0.82992 0.0
H384 H 0.50682 0.9089 0.91098 0.0
H385 H 0.40923 0.94851 0.9691 0.0
C386 C 0.33071 0.867 0.80317 0.0
C387 C 0.33489 0.84264 0.75828 0.0
C388 C 0.36888 0.83834 0.74005 0.0
C389 C 0.39911 0.85643 0.7686 0.0
C390 C 0.39444 0.87923 0.81425 0.0
C391 C 0.36091 0.88564 0.83034 0.0
C392 C 0.36337 0.91013 0.88209 0.0
C393 C 0.34533 0.9458 0.87363 0.0
C394 C 0.34745 0.89189 0.92587 0.0
C395 C 0.40356 0.91512 0.89387 0.0
C396 C 0.42105 0.89676 0.85459 0.0
C397 C 0.45821 0.89383 0.85997 0.0
C398 C 0.47798 0.91093 0.90611 0.0
C399 C 0.46053 0.93126 0.94516 0.0
C400 C 0.42299 0.93352 0.93896 0.0
H401 H 0.47003 0.10308 0.13113 0.0
H402 H 0.38851 0.0362 0.03099 0.0
H403 H 0.34125 0.07098 0.07163 0.0
H404 H 0.42357 0.11814 0.24902 0.0
H405 H 0.43819 0.16438 0.26373 0.0
H406 H 0.46564 0.13267 0.22963 0.0
H407 H 0.46569 0.17225 0.15241 0.0
H408 H 0.43837 0.20412 0.18638 0.0
H409 H 0.42366 0.18492 0.11917 0.0
H410 H 0.30315 0.11198 0.12385 0.0
H411 H 0.27612 0.15993 0.17937 0.0
H412 H 0.38203 0.20426 0.23913 0.0
C413 C 0.44219 0.09556 0.11849 0.0
C414 C 0.43266 0.06681 0.0786 0.0
C415 C 0.39613 0.05813 0.06176 0.0
C416 C 0.36919 0.07763 0.08465 0.0
C417 C 0.37934 0.10609 0.12356 0.0
C418 C 0.41492 0.11536 0.13996 0.0
C419 C 0.41843 0.14861 0.1799 0.0
C420 C 0.43758 0.14045 0.23377 0.0
C421 C 0.43767 0.17929 0.15815 0.0
C422 C 0.37927 0.1564 0.18357 0.0
C423 C 0.35724 0.13126 0.15119 0.0
C424 C 0.32007 0.13214 0.1488 0.0
C425 C 0.30496 0.15963 0.1801 0.0
C426 C 0.32694 0.18629 0.21232 0.0
C427 C 0.36458 0.1845 0.21421 0.0
H428 H 0.91546 0.90504 0.52741 0.0
H429 H 0.94639 0.98534 0.66187 0.0
H430 H 0.9107 0.95343 0.71758 0.0
H431 H 0.82326 0.88822 0.55944 0.0
H432 H 0.824 0.84066 0.54027 0.0
H433 H 0.85004 0.87081 0.50837 0.0
H434 H 0.90718 0.83616 0.53441 0.0
H435 H 0.88128 0.80611 0.56661 0.0
H436 H 0.91969 0.83018 0.60338 0.0
H437 H 0.87544 0.9131 0.76077 0.0
H438 H 0.84001 0.86581 0.79053 0.0
H439 H 0.82972 0.80864 0.6309 0.0
C440 C 0.91406 0.91611 0.56828 0.0
C441 C 0.93371 0.94783 0.59018 0.0
C442 C 0.93177 0.96111 0.64414 0.0
C443 C 0.91146 0.94321 0.67623 0.0
C444 C 0.89308 0.91181 0.65411 0.0
C445 C 0.89388 0.8982 0.60149 0.0
C446 C 0.87247 0.86288 0.5894 0.0
C447 C 0.84054 0.86583 0.54684 0.0
C448 C 0.8966 0.83201 0.57245 0.0
C449 C 0.85993 0.85898 0.64356 0.0
C450 C 0.87227 0.88775 0.67988 0.0
C451 C 0.86538 0.89049 0.73272 0.0
C452 C 0.8452 0.86322 0.74924 0.0
C453 C 0.83186 0.83324 0.71325 0.0
C454 C 0.83935 0.83119 0.65943 0.0
H455 H 0.96193 0.13355 0.51265 0.0
H456 H 0.91542 0.02824 0.45487 0.0
H457 H 0.86485 0.05585 0.40584 0.0
H458 H 0.87672 0.17518 0.5328 0.0
H459 H 0.88975 0.21744 0.51248 0.0
H460 H 0.92316 0.18968 0.54248 0.0
H461 H 0.95841 0.19023 0.46063 0.0
H462 H 0.92515 0.21805 0.43046 0.0
H463 H 0.93604 0.17618 0.39494 0.0
H464 H 0.8213 0.09383 0.35943 0.0
H465 H 0.78433 0.14081 0.32243 0.0
H466 H 0.85479 0.2226 0.41532 0.0
C467 C 0.94108 0.1164 0.48957 0.0
C468 C 0.94296 0.07869 0.48663 0.0
C469 C 0.91494 0.05713 0.45678 0.0
C470 C 0.88597 0.07257 0.42901 0.0
C471 C 0.88496 0.10971 0.43233 0.0
C472 C 0.91144 0.13147 0.46227 0.0
C473 C 0.9031 0.17072 0.45973 0.0
C474 C 0.89787 0.18935 0.51518 0.0
C475 C 0.93242 0.18992 0.43496 0.0
C476 C 0.86807 0.16746 0.42314 0.0
C477 C 0.8584 0.13192 0.40763 0.0
C478 C 0.82829 0.12175 0.37177 0.0
C479 C 0.80753 0.14858 0.35091 0.0
C480 C 0.81656 0.18515 0.36655 0.0
C481 C 0.84701 0.19477 0.40359 0.0
H482 H 0.62769 0.21966 0.24374 0.0
H483 H 0.72328 0.15648 0.25865 0.0
H484 H 0.6951 0.11067 0.18934 0.0
H485 H 0.56257 0.14371 0.21708 0.0
H486 H 0.53383 0.16483 0.16883 0.0
H487 H 0.56014 0.19181 0.22278 0.0
H488 H 0.58829 0.22681 0.15469 0.0
H489 H 0.56227 0.19979 0.10052 0.0
H490 H 0.61036 0.20266 0.10287 0.0
H491 H 0.65867 0.07289 0.11851 0.0
H492 H 0.61443 0.04348 0.04794 0.0
H493 H 0.54209 0.13103 0.07381 0.0
C494 C 0.64221 0.19577 0.23301 0.0
C495 C 0.67744 0.19123 0.25661 0.0
C496 C 0.69618 0.16021 0.241 0.0
C497 C 0.68044 0.1341 0.20173 0.0
C498 C 0.64603 0.13956 0.17828 0.0
C499 C 0.62694 0.16944 0.19317 0.0
C500 C 0.5909 0.16904 0.15945 0.0
C501 C 0.56004 0.16724 0.19412 0.0
C502 C 0.58779 0.2015 0.12749 0.0
C503 C 0.59304 0.13443 0.12322 0.0
C504 C 0.62507 0.11792 0.13535 0.0
C505 C 0.63347 0.08547 0.1085 0.0
C506 C 0.60823 0.06904 0.06849 0.0
C507 C 0.57514 0.0852 0.05544 0.0
C508 C 0.56749 0.11849 0.0827 0.0
H509 H 0.64536 0.8126 0.77046 0.0
H510 H 0.75123 0.8462 0.84746 0.0
H511 H 0.72505 0.89656 0.89944 0.0
H512 H 0.61406 0.90335 0.75882 0.0
H513 H 0.56892 0.89238 0.77019 0.0
H514 H 0.59584 0.85864 0.73923 0.0
H515 H 0.58548 0.81758 0.81184 0.0
H516 H 0.5585 0.85115 0.84289 0.0
H517 H 0.5966 0.83426 0.8811 0.0
H518 H 0.68703 0.93981 0.94819 0.0
H519 H 0.63989 0.97654 0.98563 0.0
H520 H 0.55953 0.9198 0.86961 0.0
C521 C 0.66297 0.83061 0.79825 0.0
C522 C 0.70021 0.82511 0.80598 0.0
C523 C 0.72254 0.8495 0.84194 0.0
C524 C 0.70796 0.8783 0.87133 0.0
C525 C 0.67111 0.88284 0.86318 0.0
C526 C 0.64895 0.86005 0.82695 0.0
C527 C 0.61032 0.87139 0.82523 0.0
C528 C 0.59648 0.88208 0.77009 0.0
C529 C 0.58632 0.84183 0.84123 0.0
C530 C 0.61417 0.9036 0.86706 0.0
C531 C 0.64946 0.90953 0.8887 0.0
C532 C 0.65941 0.9359 0.93093 0.0
C533 C 0.63252 0.95654 0.95196 0.0
C534 C 0.5963 0.95112 0.93006 0.0
C535 C 0.58712 0.9248 0.88644 0.0
H536 H 0.56009 0.57777 0.88014 0.0
H537 H 0.62091 0.57839 0.0362 0.0
H538 H 0.66876 0.61405 1.00749 0.0
H539 H 0.63643 0.57231 0.80302 0.0
H540 H 0.6187 0.60233 0.75663 0.0
H541 H 0.58866 0.57574 0.78784 0.0
H542 H 0.55759 0.63294 0.82309 0.0
H543 H 0.58737 0.65977 0.79184 0.0
H544 H 0.58403 0.66893 0.86222 0.0
H545 H 0.70967 0.64914 0.96498 0.0
H546 H 0.7418 0.68595 0.9116 0.0
H547 H 0.65657 0.6661 0.78046 0.0
C548 C 0.58355 0.58536 0.90814 0.0
C549 C 0.58661 0.57509 0.96062 0.0
C550 C 0.61767 0.58584 0.99601 0.0
C551 C 0.64519 0.60604 0.97999 0.0
C552 C 0.64146 0.61562 0.92837 0.0
C553 C 0.61148 0.60601 0.89284 0.0
C554 C 0.61439 0.62128 0.8402 0.0
C555 C 0.61456 0.5911 0.7942 0.0
C556 C 0.58404 0.64728 0.82868 0.0
C557 C 0.65068 0.64097 0.85213 0.0
C558 C 0.66556 0.6369 0.9033 0.0
C559 C 0.69834 0.65261 0.92488 0.0
C560 C 0.71636 0.67367 0.89397 0.0
C561 C 0.70179 0.6793 0.84164 0.0
C562 C 0.66859 0.66217 0.82006 0.0
H563 H 0.64887 0.29808 0.15881 0.0
H564 H 0.70559 0.38045 0.2715 0.0
H565 H 0.67348 0.42703 0.22557 0.0
H566 H 0.64526 0.34499 0.04269 0.0
H567 H 0.60034 0.32975 1.01696 0.0
H568 H 0.62841 0.30256 0.05759 0.0
H569 H 0.58016 0.30127 0.12259 0.0
H570 H 0.55181 0.32828 0.08208 0.0
H571 H 0.56376 0.34283 0.15189 0.0
H572 H 0.63871 0.4646 0.16433 0.0
H573 H 0.59698 0.4912 0.09854 0.0
H574 H 0.55729 0.3851 0.03127 0.0
C575 C 0.65441 0.32595 0.17364 0.0
C576 C 0.67974 0.3358 0.21847 0.0
C577 C 0.68612 0.37242 0.23734 0.0
C578 C 0.66819 0.39905 0.21137 0.0
C579 C 0.64348 0.38858 0.16718 0.0
C580 C 0.63601 0.35295 0.14895 0.0
C581 C 0.60695 0.34914 0.10204 0.0
C582 C 0.6211 0.33051 0.05185 0.0
C583 C 0.5737 0.3292 0.11548 0.0
C584 C 0.59954 0.3882 0.09661 0.0
C585 C 0.62137 0.41042 0.1341 0.0
C586 C 0.62089 0.44753 0.13552 0.0
C587 C 0.59696 0.4624 0.09822 0.0
C588 C 0.57313 0.44028 0.06107 0.0
C589 C 0.57475 0.40267 0.05995 0.0
H590 H 0.9695 0.40992 0.4442 0.0
H591 H 0.89856 0.46271 0.54952 0.0
H592 H 0.84615 0.43329 0.49229 0.0
H593 H 0.91199 0.40989 0.31887 0.0
H594 H 0.92442 0.36568 0.2936 0.0
H595 H 0.9558 0.39389 0.33925 0.0
H596 H 0.9622 0.34448 0.40292 0.0
H597 H 0.93107 0.31604 0.35744 0.0
H598 H 0.92268 0.32654 0.42581 0.0
H599 H 0.8022 0.39882 0.42317 0.0
H600 H 0.76952 0.35426 0.35604 0.0
H601 H 0.87 0.31818 0.30278 0.0
C602 C 0.94284 0.41551 0.45476 0.0
C603 C 0.93763 0.43866 0.5006 0.0
C604 C 0.90271 0.44497 0.51428 0.0
C605 C 0.87297 0.42865 0.48189 0.0
C606 C 0.87898 0.4058 0.43682 0.0
C607 C 0.91308 0.3987 0.42382 0.0
C608 C 0.91252 0.37044 0.37644 0.0
C609 C 0.92704 0.38591 0.32925 0.0
C610 C 0.93334 0.33742 0.39159 0.0
C611 C 0.87272 0.36223 0.36528 0.0
C612 C 0.85385 0.38369 0.3996 0.0
C613 C 0.81671 0.38154 0.3966 0.0
C614 C 0.79845 0.356 0.35858 0.0
C615 C 0.81742 0.33211 0.3256 0.0
C616 C 0.85495 0.33582 0.32812 0.0
H617 H 0.88918 0.7017 0.76339 0.0
H618 H 0.78302 0.65884 0.70229 0.0
H619 H 0.80965 0.61202 0.64409 0.0
H620 H 0.93115 0.68453 0.64329 0.0
H621 H 0.97285 0.67091 0.67635 0.0
H622 H 0.94554 0.7023 0.71129 0.0
H623 H 0.94422 0.66112 0.78634 0.0
H624 H 0.97173 0.62973 0.75176 0.0
H625 H 0.92926 0.61509 0.7696 0.0
H626 H 0.84776 0.57169 0.58958 0.0
H627 H 0.89495 0.53592 0.55023 0.0
H628 H 0.9765 0.60052 0.65392 0.0
C629 C 0.87158 0.68249 0.73763 0.0
C630 C 0.83396 0.68457 0.73592 0.0
C631 C 0.81182 0.65853 0.70267 0.0
C632 C 0.82673 0.63167 0.66981 0.0
C633 C 0.86389 0.63068 0.67175 0.0
C634 C 0.88608 0.65497 0.70551 0.0
C635 C 0.92518 0.6468 0.70186 0.0
C636 C 0.94483 0.67799 0.68201 0.0
C637 C 0.94368 0.63763 0.75559 0.0
C638 C 0.92148 0.61427 0.66056 0.0
C639 C 0.88589 0.60578 0.64313 0.0
C640 C 0.87571 0.5778 0.60335 0.0
C641 C 0.90262 0.55776 0.58111 0.0
C642 C 0.93915 0.56535 0.59952 0.0
C643 C 0.94867 0.59391 0.6398 0.0
H644 H 0.36087 0.34641 0.24654 0.0
H645 H 0.27712 0.32146 0.1144 0.0
H646 H 0.30741 0.35971 0.06084 0.0
H647 H 0.37514 0.44077 0.22276 0.0
H648 H 0.42301 0.4403 0.23944 0.0
H649 H 0.39423 0.41198 0.27006 0.0
H650 H 0.42911 0.35661 0.23698 0.0
H651 H 0.45784 0.38475 0.20605 0.0
H652 H 0.43362 0.34733 0.16694 0.0
H653 H 0.34715 0.39659 1.01807 0.0
H654 H 0.39381 0.43432 0.98983 0.0
H655 H 0.45282 0.43924 0.14768 0.0
C656 C 0.34873 0.3495 0.20668 0.0
C657 C 0.31658 0.3305 0.18492 0.0
C658 C 0.30182 0.33516 0.13225 0.0
C659 C 0.31878 0.35704 0.10122 0.0
C660 C 0.35061 0.37464 0.12306 0.0
C661 C 0.36548 0.3716 0.17461 0.0
C662 C 0.40056 0.39335 0.18699 0.0
C663 C 0.39807 0.42339 0.23252 0.0
C664 C 0.43215 0.36905 0.2 0.0
C665 C 0.40291 0.40849 0.1342 0.0
C666 C 0.37371 0.3971 0.09809 0.0
C667 C 0.37004 0.40605 0.04607 0.0
C668 C 0.39684 0.4274 0.03031 0.0
C669 C 0.42699 0.43995 0.06642 0.0
C670 C 0.42992 0.4304 0.11925 0.0
H671 H 0.45452 0.63123 1.00775 0.0
H672 H 0.41932 0.52747 0.92543 0.0
H673 H 0.37679 0.55669 0.86362 0.0
H674 H 0.36536 0.66741 1.00157 0.0
H675 H 0.38057 0.71202 0.99398 0.0
H676 H 0.40974 0.68303 0.02969 0.0
H677 H 0.45821 0.69164 0.96693 0.0
H678 H 0.42916 0.72056 0.9309 0.0
H679 H 0.44701 0.68173 0.89591 0.0
H680 H 0.34061 0.5976 0.80799 0.0
H681 H 0.30737 0.64658 0.76923 0.0
H682 H 0.36033 0.72324 0.89452 0.0
C683 C 0.43791 0.61468 0.97659 0.0
C684 C 0.44106 0.57709 0.97006 0.0
C685 C 0.41829 0.55631 0.92976 0.0
C686 C 0.39385 0.57269 0.8948 0.0
C687 C 0.39178 0.60985 0.90176 0.0
C688 C 0.41263 0.63056 0.94236 0.0
C689 C 0.40371 0.66979 0.94295 0.0
C690 C 0.38897 0.68388 0.99514 0.0
C691 C 0.43648 0.69225 0.9336 0.0
C692 C 0.3749 0.66796 0.89591 0.0
C693 C 0.36884 0.63316 0.87225 0.0
C694 C 0.34478 0.62487 0.82656 0.0
C695 C 0.32618 0.65282 0.80472 0.0
C696 C 0.33122 0.68846 0.8292 0.0
C697 C 0.35575 0.69608 0.87551 0.0
H698 H 0.14182 0.72997 0.7248 0.0
H699 H 0.23397 0.66481 0.75913 0.0
H700 H 0.20025 0.61137 0.71369 0.0
H701 H 0.07069 0.66112 0.73077 0.0
H702 H 0.04306 0.67488 0.67437 0.0
H703 H 0.07191 0.70718 0.7174 0.0
H704 H 0.10145 0.72409 0.63592 0.0
H705 H 0.07287 0.69176 0.59274 0.0
H706 H 0.12083 0.68959 0.59387 0.0
H707 H 0.15923 0.56631 0.6612 0.0
H708 H 0.11406 0.53172 0.5975 0.0
H709 H 0.04952 0.62613 0.58841 0.0
C710 C 0.15442 0.70427 0.72354 0.0
C711 C 0.19018 0.70116 0.7457 0.0
C712 C 0.20642 0.66745 0.74251 0.0
C713 C 0.18748 0.637 0.71705 0.0
C714 C 0.15254 0.64092 0.69431 0.0
C715 C 0.13612 0.67363 0.69678 0.0
C716 C 0.09987 0.6709 0.66346 0.0
C717 C 0.06959 0.679 0.69862 0.0
C718 C 0.09871 0.69554 0.61885 0.0
C719 C 0.09898 0.63176 0.6412 0.0
C720 C 0.12935 0.61495 0.66067 0.0
C721 C 0.13524 0.57904 0.64574 0.0
C722 C 0.10949 0.55968 0.60952 0.0
C723 C 0.07858 0.57643 0.58801 0.0
C724 C 0.07309 0.61286 0.60421 0.0
H725 H 0.14881 0.3326 0.2529 0.0
H726 H 0.21997 0.28909 0.37416 0.0
H727 H 0.19416 0.32782 0.4443 0.0
H728 H 0.15047 0.42334 0.31652 0.0
H729 H 0.10372 0.43025 0.29686 0.0
H730 H 0.12821 0.39936 0.25617 0.0
H731 H 0.08162 0.34895 0.26239 0.0
H732 H 0.05704 0.3798 0.30297 0.0
H733 H 0.07196 0.33857 0.32699 0.0
H734 H 0.16044 0.37102 0.50095 0.0
H735 H 0.12037 0.41509 0.54087 0.0
H736 H 0.07035 0.43038 0.38263 0.0
C737 C 0.15889 0.33144 0.29429 0.0
C738 C 0.18723 0.30893 0.30845 0.0
C739 C 0.19957 0.30752 0.36272 0.0
C740 C 0.18468 0.32904 0.40275 0.0
C741 C 0.1573 0.35165 0.38762 0.0
C742 C 0.14437 0.35295 0.33474 0.0
C743 C 0.11454 0.37944 0.32941 0.0
C744 C 0.12487 0.4099 0.29788 0.0
C745 C 0.0792 0.36055 0.30394 0.0
C746 C 0.11278 0.39278 0.3875 0.0
C747 C 0.13762 0.37636 0.4204 0.0
C748 C 0.14087 0.38409 0.47564 0.0
C749 C 0.11798 0.40918 0.49792 0.0
C750 C 0.09223 0.42631 0.46499 0.0
C751 C 0.08983 0.41796 0.40902 0.0
H752 H 1.00425 0.04494 0.90919 0.0
H753 H 0.06148 0.94795 0.86958 0.0
H754 H 0.05827 0.93148 0.96018 0.0
H755 H 0.04535 0.06347 0.0445 0.0
H756 H 1.00512 0.07947 0.07053 0.0
H757 H 0.01159 0.08383 1.00234 0.0
H758 H 0.95139 0.04969 0.97022 0.0
H759 H 0.94469 0.04532 0.03832 0.0
H760 H 0.9439 1.00604 0.9906 0.0
H761 H 0.04964 0.92555 0.05567 0.0
H762 H 0.03481 0.92981 0.14821 0.0
H763 H 0.98246 0.03021 0.12714 0.0
C764 C 0.0158 0.02004 0.91932 0.0
C765 C 0.03336 0.9979 0.88186 0.0
C766 C 0.04844 0.96577 0.89742 0.0
C767 C 0.04658 0.95603 0.94887 0.0
C768 C 0.02946 0.97858 0.9848 0.0
C769 C 0.01421 0.00988 0.97074 0.0
C770 C 0.99755 0.02938 1.01728 0.0
C771 C 0.01601 0.06622 0.03468 0.0
C772 C 0.95697 0.0328 1.00325 0.0
C773 C 1.00568 1.00407 0.05952 0.0
C774 C 0.02426 0.97503 0.03991 0.0
C775 C 0.03515 0.94822 0.07143 0.0
C776 C 0.02679 0.95103 0.12423 0.0
C777 C 1.00758 0.98041 0.14549 0.0
C778 C 0.99691 1.00724 0.11226 0.0
H779 H 0.30506 0.76658 0.38525 0.0
H780 H 0.20666 0.70292 0.374 0.0
H781 H 0.19618 0.70834 0.27778 0.0
H782 H 0.27224 0.82778 0.29108 0.0
H783 H 0.31404 0.83048 0.26302 0.0
H784 H 0.31391 0.82186 0.33133 0.0
H785 H 0.34937 0.76419 0.31232 0.0
H786 H 0.34951 0.77257 0.24391 0.0
H787 H 0.33186 0.73059 0.25924 0.0
H788 H 0.19649 0.71963 0.18278 0.0
H789 H 0.20677 0.73747 0.09515 0.0
H790 H 0.30469 0.79442 0.16661 0.0
C791 C 0.28114 0.75408 0.36264 0.0
C792 C 0.25682 0.73407 0.38732 0.0
C793 C 0.22603 0.71784 0.35602 0.0
C794 C 0.21971 0.72093 0.30131 0.0
C795 C 0.24436 0.74042 0.27818 0.0
C796 C 0.2744 0.75685 0.30775 0.0
C797 C 0.29673 0.77598 0.27269 0.0
C798 C 0.29937 0.81643 0.29061 0.0
C799 C 0.33408 0.75987 0.27201 0.0
C800 C 0.27445 0.76782 0.21893 0.0
C801 C 0.24443 0.74714 0.22311 0.0
C802 C 0.21993 0.73578 0.17899 0.0
C803 C 0.22617 0.74584 0.12925 0.0
C804 C 0.25665 0.76717 0.12374 0.0
C805 C 0.28103 0.77831 0.16946 0.0
H806 H 0.48691 0.99184 0.60829 0.0
H807 H 0.54289 0.09303 0.66422 0.0
H808 H 0.55631 0.09904 0.57264 0.0
H809 H 0.54709 0.96061 0.5131 0.0
H810 H 0.51186 0.94009 0.46487 0.0
H811 H 0.50662 0.94389 0.53483 0.0
H812 H 0.44745 0.9773 0.51673 0.0
H813 H 0.45261 0.97377 0.44675 0.0
H814 H 0.44752 0.01701 0.483 0.0
H815 H 0.56348 0.09415 0.47474 0.0
H816 H 0.56551 0.07771 0.37831 0.0
H817 H 0.50478 0.97979 0.38623 0.0
C818 C 0.50232 0.01508 0.6014 0.0
C819 C 0.51378 0.04202 0.64349 0.0
C820 C 0.53344 0.07227 0.63255 0.0
C821 C 0.54131 0.07586 0.58069 0.0
C822 C 0.52933 0.049 0.54009 0.0
C823 C 0.51035 0.01914 0.54985 0.0
C824 C 0.50049 0.99419 0.49911 0.0
C825 C 0.51755 0.95753 0.50324 0.0
C826 C 0.45959 0.99036 0.48561 0.0
C827 C 0.51716 0.01452 0.4594 0.0
C828 C 0.5335 0.04616 0.48377 0.0
C829 C 0.55069 0.06947 0.4552 0.0
C830 C 0.55148 0.06002 0.40035 0.0
C831 C 0.53529 0.02749 0.37459 0.0
C832 C 0.51773 1.00467 0.40475 0.0
H833 H 0.22484 0.21522 0.84621 0.0
H834 H 0.26551 0.31831 0.92598 0.0
H835 H 0.27662 0.33728 0.83944 0.0
H836 H 0.28978 0.20642 0.75147 0.0
H837 H 0.25853 0.18515 0.69787 0.0
H838 H 0.25245 0.17995 0.76593 0.0
H839 H 0.18828 0.20398 0.75134 0.0
H840 H 0.1942 0.20935 0.68327 0.0
H841 H 0.18171 0.24695 0.72709 0.0
H842 H 0.28411 0.34514 0.74424 0.0
H843 H 0.28914 0.34064 0.6479 0.0
H844 H 0.24494 0.23209 0.62913 0.0
C845 C 0.23633 0.24172 0.84574 0.0
C846 C 0.24394 0.2653 0.89345 0.0
C847 C 0.25862 0.29988 0.89033 0.0
C848 C 0.2653 0.31088 0.84123 0.0
C849 C 0.2574 0.28704 0.79522 0.0
C850 C 0.24339 0.25311 0.79701 0.0
C851 C 0.23799 0.23247 0.7417 0.0
C852 C 0.26107 0.19902 0.73911 0.0
C853 C 0.19818 0.22261 0.72487 0.0
C854 C 0.25122 0.26008 0.70859 0.0
C855 C 0.26214 0.29141 0.7403 0.0
C856 C 0.27549 0.32077 0.71901 0.0
C857 C 0.27798 0.31802 0.664 0.0
C858 C 0.26723 0.28611 0.63044 0.0
C859 C 0.2536 0.25681 0.65345 0.0
H860 H 0.75958 0.21771 0.89142 0.0
H861 H 0.72227 0.31918 0.96094 0.0
H862 H 0.71584 0.34079 0.87235 0.0
H863 H 0.80973 0.25233 0.7968 0.0
H864 H 0.79736 0.21619 0.74495 0.0
H865 H 0.79897 0.20847 0.81383 0.0
H866 H 0.73312 0.18477 0.79741 0.0
H867 H 0.73133 0.19233 0.7284 0.0
H868 H 0.6989 0.21235 0.76892 0.0
H869 H 0.71441 0.35186 0.77701 0.0
H870 H 0.71674 0.35125 0.68033 0.0
H871 H 0.7534 0.24208 0.67193 0.0
C872 C 0.74962 0.24432 0.88802 0.0
C873 C 0.74163 0.2668 0.93337 0.0
C874 C 0.72918 0.30165 0.92707 0.0
C875 C 0.72519 0.3141 0.87684 0.0
C876 C 0.73349 0.29132 0.83316 0.0
C877 C 0.74525 0.25711 0.83811 0.0
C878 C 0.75236 0.23807 0.78471 0.0
C879 C 0.79196 0.2282 0.78512 0.0
C880 C 0.72744 0.20492 0.76894 0.0
C881 C 0.74301 0.26707 0.74903 0.0
C882 C 0.73222 0.29755 0.77786 0.0
C883 C 0.72276 0.32814 0.75398 0.0
C884 C 0.72439 0.32759 0.69912 0.0
C885 C 0.73538 0.29667 0.66866 0.0
C886 C 0.74461 0.26598 0.69409 0.0
H887 H 0.73268 0.76731 0.37771 0.0
H888 H 0.82201 0.70106 0.42341 0.0
H889 H 0.8407 0.69976 0.33319 0.0
H890 H 0.71138 0.72422 0.24438 0.0
H891 H 0.7006 0.76504 0.21577 0.0
H892 H 0.69452 0.76148 0.28431 0.0
H893 H 0.73508 0.81801 0.31409 0.0
H894 H 0.74116 0.82183 0.24561 0.0
H895 H 0.7796 0.8195 0.29422 0.0
H896 H 0.84914 0.70456 0.23736 0.0
H897 H 0.84776 0.71664 0.14366 0.0
H898 H 0.75312 0.77996 0.15957 0.0
C899 C 0.75612 0.75244 0.36872 0.0
C900 C 0.77594 0.73437 0.40794 0.0
C901 C 0.80668 0.71557 0.39451 0.0
C902 C 0.81738 0.71446 0.34317 0.0
C903 C 0.79717 0.73237 0.30549 0.0
C904 C 0.76729 0.75117 0.31764 0.0
C905 C 0.75046 0.76833 0.26984 0.0
C906 C 0.71196 0.75389 0.25256 0.0
C907 C 0.75166 0.80935 0.28165 0.0
C908 C 0.77531 0.75588 0.22875 0.0
C909 C 0.8021 0.73523 0.25023 0.0
C910 C 0.82837 0.72085 0.22021 0.0
C911 C 0.82744 0.72799 0.16702 0.0
C912 C 0.80043 0.74935 0.14407 0.0
C913 C 0.77391 0.76323 0.17558 0.0
H914 H 0.4748 0.47562 0.6073 0.0
H915 H 0.53183 0.57055 0.68995 0.0
H916 H 0.5393 0.592 0.60343 0.0
H917 H 0.53089 0.46276 0.50218 0.0
H918 H 0.49472 0.44718 0.45188 0.0
H919 H 0.49218 0.44024 0.52035 0.0
H920 H 0.43168 0.47255 0.51824 0.0
H921 H 0.43407 0.47965 0.44977 0.0
H922 H 0.42905 0.51718 0.49876 0.0
H923 H 0.54221 0.60222 0.50784 0.0
H924 H 0.54164 0.59992 0.41044 0.0
H925 H 0.48348 0.49783 0.39004 0.0
C926 C 0.48905 0.50084 0.60738 0.0
C927 C 0.50257 0.52144 0.6557 0.0
C928 C 0.52064 0.55454 0.65368 0.0
C929 C 0.52522 0.56686 0.60467 0.0
C930 C 0.51167 0.54579 0.55795 0.0
C931 C 0.49405 0.51343 0.55889 0.0
C932 C 0.48299 0.49539 0.503 0.0
C933 C 0.50129 0.45926 0.49383 0.0
C934 C 0.44201 0.49095 0.4918 0.0
C935 C 0.49729 0.5226 0.47042 0.0
C936 C 0.51358 0.55154 0.50288 0.0
C937 C 0.5293 0.57982 0.48201 0.0
C938 C 0.52859 0.57837 0.42653 0.0
C939 C 0.51229 0.54882 0.39235 0.0
C940 C 0.4963 0.52071 0.41493 0.0
H941 H 0.06007 0.49306 0.93434 0.0
H942 H 0.96707 0.42842 0.86199 0.0
H943 H 0.9489 0.42309 0.95128 0.0
H944 H 0.07929 0.44474 0.04967 0.0
H945 H 0.0926 0.48452 0.09424 0.0
H946 H 0.09864 0.48274 0.02467 0.0
H947 H 0.06181 0.54005 1.01726 0.0
H948 H 0.05578 0.54209 0.0868 0.0
H949 H 0.01732 0.54128 0.03744 0.0
H950 H 0.94029 0.42569 0.04861 0.0
H951 H 0.94118 0.43732 0.14641 0.0
H952 H 0.04 0.49987 0.15509 0.0
C953 C 0.0361 0.47743 0.93725 0.0
C954 C 0.015 0.46115 0.89103 0.0
C955 C 0.98345 0.44149 0.89669 0.0
C956 C 0.97305 0.43808 0.94728 0.0
C957 C 0.99448 0.45445 0.99194 0.0
C958 C 0.02531 0.47378 0.98742 0.0
C959 C 0.0431 0.48954 0.04161 0.0
C960 C 0.08063 0.47447 0.05322 0.0
C961 C 0.04457 0.53067 0.04602 0.0
C962 C 0.01738 0.47617 0.07733 0.0
C963 C 0.98957 0.45589 0.04793 0.0
C964 C 0.962 0.44146 0.07204 0.0
C965 C 0.96267 0.4483 0.12757 0.0
C966 C 0.99069 0.46939 0.15847 0.0
C967 C 0.01854 0.48312 0.13278 0.0
loop_
_geom_bond_atom_site_label_1
_geom_bond_atom_site_label_2
_geom_bond_distance
_geom_bond_site_symmetry_2
_ccdc_geom_bond_type
Gd0 C3 2.818 1_655 S
Gd0 O20 2.377 1_665 S
Gd0 O22 2.448 1_655 S
Gd0 O23 2.506 . S
Gd0 O24 2.435 1_655 S
Gd0 O25 2.717 1_655 S
Gd0 O27 2.395 . S
Gd0 O31 2.327 1_565 S
Gd1 C12 2.818 1_455 S
Gd1 O21 2.395 . S
Gd1 O25 2.327 1_545 S
Gd1 O26 2.377 1_445 S
Gd1 O28 2.448 1_455 S
Gd1 O29 2.506 . S
Gd1 O30 2.435 1_455 S
Gd1 O31 2.717 1_455 S
C2 O20 1.240 . S
C2 O21 1.240 . S
C3 Gd0 2.818 1_455 S
C3 C4 1.510 . S
C3 O22 1.249 . S
C3 O23 1.252 1_455 S
C4 C3 1.510 . S
C4 C5 1.404 . S
C4 C6 1.352 1_565 S
C5 C4 1.404 . S
C5 C9 1.389 . S
C5 H32 0.930 . S
C6 C4 1.352 1_545 S
C6 C8 1.374 . S
C6 H33 0.931 1_455 S
C7 C8 1.359 1_565 S
C7 C9 1.364 . S
C8 C6 1.374 . S
C8 C7 1.359 1_545 S
C8 H34 0.937 . S
C9 C5 1.389 . S
C9 C7 1.364 . S
C9 H35 0.931 . S
C10 O24 1.256 . S
C10 O25 1.257 . S
C11 O26 1.240 . S
C11 O27 1.240 . S
C12 Gd1 2.818 1_655 S
C12 C13 1.510 . S
C12 O28 1.249 . S
C12 O29 1.252 1_655 S
C13 C12 1.510 . S
C13 C14 1.404 . S
C13 C15 1.352 1_545 S
C14 C13 1.404 . S
C14 C18 1.389 . S
C14 H36 0.930 . S
C15 C13 1.352 1_565 S
C15 C17 1.374 . S
C15 H37 0.931 1_655 S
C16 C17 1.359 1_545 S
C16 C18 1.364 . S
C17 C15 1.374 . S
C17 C16 1.359 1_565 S
C17 H38 0.935 . S
C18 C14 1.389 . S
C18 C16 1.364 . S
C18 H39 0.931 . S
C19 O30 1.256 . S
C19 O31 1.257 . S
O20 Gd0 2.377 1_445 S
O20 C2 1.240 . S
O21 Gd1 2.395 . S
O21 C2 1.240 . S
O22 Gd0 2.448 1_455 S
O22 C3 1.249 . S
O23 Gd0 2.506 . S
O23 C3 1.252 1_655 S
O24 Gd0 2.435 1_455 S
O24 C10 1.256 . S
O25 Gd0 2.717 1_455 S
O25 Gd1 2.327 1_565 S
O25 C10 1.257 . S
O26 Gd1 2.377 1_665 S
O26 C11 1.240 . S
O27 Gd0 2.395 . S
O27 C11 1.240 . S
O28 Gd1 2.448 1_655 S
O28 C12 1.249 . S
O29 Gd1 2.506 . S
O29 C12 1.252 1_455 S
O30 Gd1 2.435 1_655 S
O30 C19 1.256 . S
O31 Gd0 2.327 1_545 S
O31 Gd1 2.717 1_655 S
O31 C19 1.257 . S
H32 C5 0.930 . S
H33 C6 0.931 1_655 S
H34 C8 0.937 . S
H35 C9 0.931 . S
H36 C14 0.930 . S
H37 C15 0.931 1_455 S
H38 C17 0.935 . S
H39 C18 0.931 . S
Gd40 C43 2.818 . S
Gd40 O60 2.377 . S
Gd40 O62 2.448 . S
Gd40 O63 2.506 . S
Gd40 O64 2.435 . S
Gd40 O65 2.717 . S
Gd40 O67 2.395 . S
Gd40 O71 2.327 . S
Gd41 C52 2.818 . S
Gd41 O61 2.395 . S
Gd41 O65 2.327 . S
Gd41 O66 2.377 . S
Gd41 O68 2.448 . S
Gd41 O69 2.506 . S
Gd41 O70 2.435 . S
Gd41 O71 2.717 . S
C42 O60 1.240 . S
C42 O61 1.240 . S
C43 Gd40 2.818 . S
C43 C44 1.510 . S
C43 O62 1.249 . S
C43 O63 1.252 . S
C44 C43 1.510 . S
C44 C45 1.404 . S
C44 C46 1.352 . S
C45 C44 1.404 . S
C45 C49 1.389 . S
C45 H72 0.930 . S
C46 C44 1.352 . S
C46 C48 1.374 . S
C46 H73 0.931 . S
C47 C48 1.359 . S
C47 C49 1.364 . S
C48 C46 1.374 . S
C48 C47 1.359 . S
C48 H74 0.931 . S
C49 C45 1.389 . S
C49 C47 1.364 . S
C49 H75 0.931 . S
C50 O64 1.256 . S
C50 O65 1.257 . S
C51 O66 1.240 . S
C51 O67 1.240 . S
C52 Gd41 2.818 . S
C52 C53 1.510 . S
C52 O68 1.249 . S
C52 O69 1.252 . S
C53 C52 1.510 . S
C53 C54 1.404 . S
C53 C55 1.352 . S
C54 C53 1.404 . S
C54 C58 1.389 1_556 S
C54 H76 0.930 . S
C55 C53 1.352 . S
C55 C57 1.374 1_556 S
C55 H77 0.931 . S
C56 C57 1.359 . S
C56 C58 1.364 . S
C57 C55 1.374 1_554 S
C57 C56 1.359 . S
C57 H78 0.931 . S
C58 C54 1.389 1_554 S
C58 C56 1.364 . S
C58 H79 0.931 . S
C59 O70 1.256 . S
C59 O71 1.257 . S
O60 Gd40 2.377 . S
O60 C42 1.240 . S
O61 Gd41 2.395 . S
O61 C42 1.240 . S
O62 Gd40 2.448 . S
O62 C43 1.249 . S
O63 Gd40 2.506 . S
O63 C43 1.252 . S
O64 Gd40 2.435 . S
O64 C50 1.256 . S
O65 Gd40 2.717 . S
O65 Gd41 2.327 . S
O65 C50 1.257 . S
O66 Gd41 2.377 . S
O66 C51 1.240 . S
O67 Gd40 2.395 . S
O67 C51 1.240 . S
O68 Gd41 2.448 . S
O68 C52 1.249 . S
O69 Gd41 2.506 . S
O69 C52 1.252 . S
O70 Gd41 2.435 . S
O70 C59 1.256 . S
O71 Gd40 2.327 . S
O71 Gd41 2.717 . S
O71 C59 1.257 . S
H72 C45 0.930 . S
H73 C46 0.931 . S
H74 C48 0.931 . S
H75 C49 0.931 . S
H76 C54 0.930 . S
H77 C55 0.931 . S
H78 C57 0.931 . S
H79 C58 0.931 . S
Gd80 C83 2.818 . S
Gd80 O100 2.377 1_565 S
Gd80 O102 2.448 . S
Gd80 O103 2.506 1_565 S
Gd80 O104 2.435 . S
Gd80 O105 2.717 1_554 S
Gd80 O107 2.395 1_554 S
Gd80 O111 2.327 1_565 S
Gd81 C92 2.818 . S
Gd81 O101 2.395 1_556 S
Gd81 O105 2.327 1_545 S
Gd81 O106 2.377 1_545 S
Gd81 O108 2.448 . S
Gd81 O109 2.506 1_545 S
Gd81 O110 2.435 . S
Gd81 O111 2.717 1_556 S
C82 O100 1.240 . S
C82 O101 1.240 . S
C83 Gd80 2.818 . S
C83 C84 1.510 . S
C83 O102 1.249 . S
C83 O103 1.252 1_565 S
C84 C83 1.510 . S
C84 C85 1.404 . S
C84 C86 1.352 1_565 S
C85 C84 1.404 . S
C85 C89 1.389 . S
C85 H112 0.930 . S
C86 C84 1.352 1_545 S
C86 C88 1.374 . S
C86 H113 0.931 . S
C87 C88 1.359 . S
C87 C89 1.364 1_545 S
C88 C86 1.374 . S
C88 C87 1.359 . S
C88 H114 0.931 . S
C89 C85 1.389 . S
C89 C87 1.364 1_565 S
C89 H115 0.931 . S
C90 O104 1.256 1_556 S
C90 O105 1.257 . S
C91 O106 1.240 . S
C91 O107 1.240 . S
C92 Gd81 2.818 . S
C92 C93 1.510 . S
C92 O108 1.249 . S
C92 O109 1.252 1_545 S
C93 C92 1.510 . S
C93 C94 1.404 . S
C93 C95 1.352 1_545 S
C94 C93 1.404 . S
C94 C98 1.389 . S
C94 H116 0.930 . S
C95 C93 1.352 1_565 S
C95 C97 1.374 . S
C95 H117 0.931 . S
C96 C97 1.359 . S
C96 C98 1.364 1_565 S
C97 C95 1.374 . S
C97 C96 1.359 . S
C97 H118 0.931 . S
C98 C94 1.389 . S
C98 C96 1.364 1_545 S
C98 H119 0.931 . S
C99 O110 1.256 1_554 S
C99 O111 1.257 . S
O100 Gd80 2.377 1_545 S
O100 C82 1.240 . S
O101 Gd81 2.395 1_554 S
O101 C82 1.240 . S
O102 Gd80 2.448 . S
O102 C83 1.249 . S
O103 Gd80 2.506 1_545 S
O103 C83 1.252 1_545 S
O104 Gd80 2.435 . S
O104 C90 1.256 1_554 S
O105 Gd80 2.717 1_556 S
O105 Gd81 2.327 1_565 S
O105 C90 1.257 . S
O106 Gd81 2.377 1_565 S
O106 C91 1.240 . S
O107 Gd80 2.395 1_556 S
O107 C91 1.240 . S
O108 Gd81 2.448 . S
O108 C92 1.249 . S
O109 Gd81 2.506 1_565 S
O109 C92 1.252 1_565 S
O110 Gd81 2.435 . S
O110 C99 1.256 1_556 S
O111 Gd80 2.327 1_545 S
O111 Gd81 2.717 1_554 S
O111 C99 1.257 . S
H112 C85 0.930 . S
H113 C86 0.931 . S
H114 C88 0.931 . S
H115 C89 0.931 . S
H116 C94 0.930 . S
H117 C95 0.931 . S
H118 C97 0.931 . S
H119 C98 0.931 . S
Gd120 C123 2.818 . S
Gd120 O140 2.377 . S
Gd120 O142 2.448 . S
Gd120 O143 2.506 . S
Gd120 O144 2.435 . S
Gd120 O145 2.717 . S
Gd120 O147 2.395 . S
Gd120 O151 2.327 . S
Gd121 C132 2.818 . S
Gd121 O141 2.395 . S
Gd121 O145 2.327 . S
Gd121 O146 2.377 . S
Gd121 O148 2.448 . S
Gd121 O149 2.506 . S
Gd121 O150 2.435 . S
Gd121 O151 2.717 . S
C122 O140 1.240 . S
C122 O141 1.240 . S
C123 Gd120 2.818 . S
C123 C124 1.510 . S
C123 O142 1.249 . S
C123 O143 1.252 . S
C124 C123 1.510 . S
C124 C125 1.404 . S
C124 C126 1.352 . S
C125 C124 1.404 . S
C125 C129 1.389 . S
C125 H152 0.930 . S
C126 C124 1.352 . S
C126 C128 1.374 . S
C126 H153 0.931 . S
C127 C128 1.359 . S
C127 C129 1.364 . S
C128 C126 1.374 . S
C128 C127 1.359 . S
C128 H154 0.931 . S
C129 C125 1.389 . S
C129 C127 1.364 . S
C129 H155 0.931 . S
C130 O144 1.256 . S
C130 O145 1.257 . S
C131 O146 1.240 . S
C131 O147 1.240 . S
C132 Gd121 2.818 . S
C132 C133 1.510 . S
C132 O148 1.249 . S
C132 O149 1.252 . S
C133 C132 1.510 . S
C133 C134 1.404 . S
C133 C135 1.352 . S
C134 C133 1.404 . S
C134 C138 1.389 1_554 S
C134 H156 0.930 . S
C135 C133 1.352 . S
C135 C137 1.374 1_554 S
C135 H157 0.931 . S
C136 C137 1.359 . S
C136 C138 1.364 . S
C137 C135 1.374 1_556 S
C137 C136 1.359 . S
C137 H158 0.931 . S
C138 C134 1.389 1_556 S
C138 C136 1.364 . S
C138 H159 0.931 . S
C139 O150 1.256 . S
C139 O151 1.257 . S
O140 Gd120 2.377 . S
O140 C122 1.240 . S
O141 Gd121 2.395 . S
O141 C122 1.240 . S
O142 Gd120 2.448 . S
O142 C123 1.249 . S
O143 Gd120 2.506 . S
O143 C123 1.252 . S
O144 Gd120 2.435 . S
O144 C130 1.256 . S
O145 Gd120 2.717 . S
O145 Gd121 2.327 . S
O145 C130 1.257 . S
O146 Gd121 2.377 . S
O146 C131 1.240 . S
O147 Gd120 2.395 . S
O147 C131 1.240 . S
O148 Gd121 2.448 . S
O148 C132 1.249 . S
O149 Gd121 2.506 . S
O149 C132 1.252 . S
O150 Gd121 2.435 . S
O150 C139 1.256 . S
O151 Gd120 2.327 . S
O151 Gd121 2.717 . S
O151 C139 1.257 . S
H152 C125 0.930 . S
H153 C126 0.931 . S
H154 C128 0.931 . S
H155 C129 0.931 . S
H156 C134 0.930 . S
H157 C135 0.931 . S
H158 C137 0.931 . S
H159 C138 0.931 . S
Gd160 C163 2.818 . S
Gd160 O180 2.377 . S
Gd160 O182 2.448 . S
Gd160 O183 2.506 . S
Gd160 O184 2.435 . S
Gd160 O185 2.717 . S
Gd160 O187 2.395 . S
Gd160 O191 2.327 . S
Gd161 C172 2.818 . S
Gd161 O181 2.395 . S
Gd161 O185 2.327 . S
Gd161 O186 2.377 . S
Gd161 O188 2.448 . S
Gd161 O189 2.506 . S
Gd161 O190 2.435 . S
Gd161 O191 2.717 . S
C162 O180 1.240 . S
C162 O181 1.240 . S
C163 Gd160 2.818 . S
C163 C164 1.510 . S
C163 O182 1.249 . S
C163 O183 1.252 . S
C164 C163 1.510 . S
C164 C165 1.404 . S
C164 C166 1.352 . S
C165 C164 1.404 . S
C165 C169 1.389 1_554 S
C165 H192 0.930 . S
C166 C164 1.352 . S
C166 C168 1.374 1_554 S
C166 H193 0.931 . S
C167 C168 1.359 . S
C167 C169 1.364 . S
C168 C166 1.374 1_556 S
C168 C167 1.359 . S
C168 H194 0.931 . S
C169 C165 1.389 1_556 S
C169 C167 1.364 . S
C169 H195 0.931 . S
C170 O184 1.256 . S
C170 O185 1.257 . S
C171 O186 1.240 . S
C171 O187 1.240 . S
C172 Gd161 2.818 . S
C172 C173 1.510 . S
C172 O188 1.249 . S
C172 O189 1.252 . S
C173 C172 1.510 . S
C173 C174 1.404 . S
C173 C175 1.352 . S
C174 C173 1.404 . S
C174 C178 1.389 . S
C174 H196 0.930 . S
C175 C173 1.352 . S
C175 C177 1.374 . S
C175 H197 0.931 . S
C176 C177 1.359 . S
C176 C178 1.364 . S
C177 C175 1.374 . S
C177 C176 1.359 . S
C177 H198 0.931 . S
C178 C174 1.389 . S
C178 C176 1.364 . S
C178 H199 0.931 . S
C179 O190 1.256 . S
C179 O191 1.257 . S
O180 Gd160 2.377 . S
O180 C162 1.240 . S
O181 Gd161 2.395 . S
O181 C162 1.240 . S
O182 Gd160 2.448 . S
O182 C163 1.249 . S
O183 Gd160 2.506 . S
O183 C163 1.252 . S
O184 Gd160 2.435 . S
O184 C170 1.256 . S
O185 Gd160 2.717 . S
O185 Gd161 2.327 . S
O185 C170 1.257 . S
O186 Gd161 2.377 . S
O186 C171 1.240 . S
O187 Gd160 2.395 . S
O187 C171 1.240 . S
O188 Gd161 2.448 . S
O188 C172 1.249 . S
O189 Gd161 2.506 . S
O189 C172 1.252 . S
O190 Gd161 2.435 . S
O190 C179 1.256 . S
O191 Gd160 2.327 . S
O191 Gd161 2.717 . S
O191 C179 1.257 . S
H192 C165 0.930 . S
H193 C166 0.931 . S
H194 C168 0.931 . S
H195 C169 0.931 . S
H196 C174 0.930 . S
H197 C175 0.931 . S
H198 C177 0.931 . S
H199 C178 0.931 . S
Gd200 C203 2.818 . S
Gd200 O220 2.377 . S
Gd200 O222 2.448 . S
Gd200 O223 2.506 . S
Gd200 O224 2.435 . S
Gd200 O225 2.717 . S
Gd200 O227 2.395 . S
Gd200 O231 2.327 . S
Gd201 C212 2.818 . S
Gd201 O221 2.395 . S
Gd201 O225 2.327 . S
Gd201 O226 2.377 . S
Gd201 O228 2.448 . S
Gd201 O229 2.506 . S
Gd201 O230 2.435 . S
Gd201 O231 2.717 . S
C202 O220 1.240 . S
C202 O221 1.240 . S
C203 Gd200 2.818 . S
C203 C204 1.510 . S
C203 O222 1.249 . S
C203 O223 1.252 . S
C204 C203 1.510 . S
C204 C205 1.404 . S
C204 C206 1.352 . S
C205 C204 1.404 . S
C205 C209 1.389 1_556 S
C205 H232 0.930 . S
C206 C204 1.352 . S
C206 C208 1.374 1_556 S
C206 H233 0.931 . S
C207 C208 1.359 . S
C207 C209 1.364 . S
C208 C206 1.374 1_554 S
C208 C207 1.359 . S
C208 H234 0.931 . S
C209 C205 1.389 1_554 S
C209 C207 1.364 . S
C209 H235 0.931 . S
C210 O224 1.256 . S
C210 O225 1.257 . S
C211 O226 1.240 . S
C211 O227 1.240 . S
C212 Gd201 2.818 . S
C212 C213 1.510 . S
C212 O228 1.249 . S
C212 O229 1.252 . S
C213 C212 1.510 . S
C213 C214 1.404 . S
C213 C215 1.352 . S
C214 C213 1.404 . S
C214 C218 1.389 . S
C214 H236 0.930 . S
C215 C213 1.352 . S
C215 C217 1.374 . S
C215 H237 0.931 . S
C216 C217 1.359 . S
C216 C218 1.364 . S
C217 C215 1.374 . S
C217 C216 1.359 . S
C217 H238 0.931 . S
C218 C214 1.389 . S
C218 C216 1.364 . S
C218 H239 0.931 . S
C219 O230 1.256 . S
C219 O231 1.257 . S
O220 Gd200 2.377 . S
O220 C202 1.240 . S
O221 Gd201 2.395 . S
O221 C202 1.240 . S
O222 Gd200 2.448 . S
O222 C203 1.249 . S
O223 Gd200 2.506 . S
O223 C203 1.252 . S
O224 Gd200 2.435 . S
O224 C210 1.256 . S
O225 Gd200 2.717 . S
O225 Gd201 2.327 . S
O225 C210 1.257 . S
O226 Gd201 2.377 . S
O226 C211 1.240 . S
O227 Gd200 2.395 . S
O227 C211 1.240 . S
O228 Gd201 2.448 . S
O228 C212 1.249 . S
O229 Gd201 2.506 . S
O229 C212 1.252 . S
O230 Gd201 2.435 . S
O230 C219 1.256 . S
O231 Gd200 2.327 . S
O231 Gd201 2.717 . S
O231 C219 1.257 . S
H232 C205 0.930 . S
H233 C206 0.931 . S
H234 C208 0.931 . S
H235 C209 0.931 . S
H236 C214 0.930 . S
H237 C215 0.931 . S
H238 C217 0.931 . S
H239 C218 0.931 . S
Gd240 C243 2.818 . S
Gd240 O260 2.377 . S
Gd240 O262 2.448 . S
Gd240 O263 2.506 . S
Gd240 O264 2.435 . S
Gd240 O265 2.717 1_556 S
Gd240 O267 2.395 . S
Gd240 O271 2.327 . S
Gd241 C252 2.818 . S
Gd241 O261 2.395 . S
Gd241 O265 2.327 . S
Gd241 O266 2.377 . S
Gd241 O268 2.448 . S
Gd241 O269 2.506 . S
Gd241 O270 2.435 . S
Gd241 O271 2.717 1_554 S
C242 O260 1.240 . S
C242 O261 1.240 1_556 S
C243 Gd240 2.818 . S
C243 C244 1.510 . S
C243 O262 1.249 . S
C243 O263 1.252 . S
C244 C243 1.510 . S
C244 C245 1.404 . S
C244 C246 1.352 . S
C245 C244 1.404 . S
C245 C249 1.389 . S
C245 H272 0.930 . S
C246 C244 1.352 . S
C246 C248 1.374 . S
C246 H273 0.931 . S
C247 C248 1.359 . S
C247 C249 1.364 . S
C248 C246 1.374 . S
C248 C247 1.359 . S
C248 H274 0.931 . S
C249 C245 1.389 . S
C249 C247 1.364 . S
C249 H275 0.931 . S
C250 O264 1.256 1_554 S
C250 O265 1.257 . S
C251 O266 1.240 . S
C251 O267 1.240 1_554 S
C252 Gd241 2.818 . S
C252 C253 1.510 . S
C252 O268 1.249 . S
C252 O269 1.252 . S
C253 C252 1.510 . S
C253 C254 1.404 . S
C253 C255 1.352 . S
C254 C253 1.404 . S
C254 C258 1.389 . S
C254 H276 0.930 . S
C255 C253 1.352 . S
C255 C257 1.374 . S
C255 H277 0.931 . S
C256 C257 1.359 . S
C256 C258 1.364 . S
C257 C255 1.374 . S
C257 C256 1.359 . S
C257 H278 0.931 . S
C258 C254 1.389 . S
C258 C256 1.364 . S
C258 H279 0.931 . S
C259 O270 1.256 1_556 S
C259 O271 1.257 . S
O260 Gd240 2.377 . S
O260 C242 1.240 . S
O261 Gd241 2.395 . S
O261 C242 1.240 1_554 S
O262 Gd240 2.448 . S
O262 C243 1.249 . S
O263 Gd240 2.506 . S
O263 C243 1.252 . S
O264 Gd240 2.435 . S
O264 C250 1.256 1_556 S
O265 Gd240 2.717 1_554 S
O265 Gd241 2.327 . S
O265 C250 1.257 . S
O266 Gd241 2.377 . S
O266 C251 1.240 . S
O267 Gd240 2.395 . S
O267 C251 1.240 1_556 S
O268 Gd241 2.448 . S
O268 C252 1.249 . S
O269 Gd241 2.506 . S
O269 C252 1.252 . S
O270 Gd241 2.435 . S
O270 C259 1.256 1_554 S
O271 Gd240 2.327 . S
O271 Gd241 2.717 1_556 S
O271 C259 1.257 . S
H272 C245 0.930 . S
H273 C246 0.931 . S
H274 C248 0.931 . S
H275 C249 0.931 . S
H276 C254 0.930 . S
H277 C255 0.931 . S
H278 C257 0.931 . S
H279 C258 0.931 . S
Gd280 C283 2.818 1_455 S
Gd280 O300 2.377 1_455 S
Gd280 O302 2.448 1_455 S
Gd280 O303 2.506 . S
Gd280 O304 2.435 1_455 S
Gd280 O305 2.717 1_455 S
Gd280 O307 2.395 . S
Gd280 O311 2.327 . S
Gd281 C292 2.818 1_655 S
Gd281 O301 2.395 . S
Gd281 O305 2.327 . S
Gd281 O306 2.377 1_655 S
Gd281 O308 2.448 1_655 S
Gd281 O309 2.506 . S
Gd281 O310 2.435 1_655 S
Gd281 O311 2.717 1_655 S
C282 O300 1.240 . S
C282 O301 1.240 . S
C283 Gd280 2.818 1_655 S
C283 C284 1.510 . S
C283 O302 1.249 . S
C283 O303 1.252 1_655 S
C284 C283 1.510 . S
C284 C285 1.404 . S
C284 C286 1.356 . S
C285 C284 1.404 . S
C285 C289 1.389 . S
C285 H312 0.930 . S
C286 C284 1.356 . S
C286 C288 1.381 . S
C286 H313 0.920 1_655 S
C287 C288 1.359 . S
C287 C289 1.364 . S
C288 C286 1.381 . S
C288 C287 1.359 . S
C288 H314 0.930 1_655 S
C289 C285 1.389 . S
C289 C287 1.364 . S
C289 H315 0.931 . S
C290 O304 1.256 . S
C290 O305 1.257 . S
C291 O306 1.240 . S
C291 O307 1.240 . S
C292 Gd281 2.818 1_455 S
C292 C293 1.510 . S
C292 O308 1.249 . S
C292 O309 1.252 1_455 S
C293 C292 1.510 . S
C293 C294 1.404 . S
C293 C295 1.357 . S
C294 C293 1.404 . S
C294 C298 1.389 . S
C294 H316 0.930 . S
C295 C293 1.357 . S
C295 C297 1.383 . S
C295 H317 0.916 1_455 S
C296 C297 1.359 . S
C296 C298 1.364 . S
C297 C295 1.383 . S
C297 C296 1.359 . S
C297 H318 0.930 . S
C298 C294 1.389 . S
C298 C296 1.364 . S
C298 H319 0.931 . S
C299 O310 1.256 . S
C299 O311 1.257 . S
O300 Gd280 2.377 1_655 S
O300 C282 1.240 . S
O301 Gd281 2.395 . S
O301 C282 1.240 . S
O302 Gd280 2.448 1_655 S
O302 C283 1.249 . S
O303 Gd280 2.506 . S
O303 C283 1.252 1_455 S
O304 Gd280 2.435 1_655 S
O304 C290 1.256 . S
O305 Gd280 2.717 1_655 S
O305 Gd281 2.327 . S
O305 C290 1.257 . S
O306 Gd281 2.377 1_455 S
O306 C291 1.240 . S
O307 Gd280 2.395 . S
O307 C291 1.240 . S
O308 Gd281 2.448 1_455 S
O308 C292 1.249 . S
O309 Gd281 2.506 . S
O309 C292 1.252 1_655 S
O310 Gd281 2.435 1_455 S
O310 C299 1.256 . S
O311 Gd280 2.327 . S
O311 Gd281 2.717 1_455 S
O311 C299 1.257 . S
H312 C285 0.930 . S
H313 C286 0.920 1_455 S
H314 C288 0.930 1_455 S
H315 C289 0.931 . S
H316 C294 0.930 . S
H317 C295 0.916 1_655 S
H318 C297 0.930 . S
H319 C298 0.931 . S
H320 C332 0.930 . S
H321 C334 0.930 . S
H322 C335 0.930 . S
H323 C339 0.959 . S
H324 C339 0.959 . S
H325 C339 0.961 . S
H326 C340 0.960 . S
H327 C340 0.961 . S
H328 C340 0.959 . S
H329 C343 0.929 . S
H330 C344 0.931 . S
H331 C346 0.930 . S
C332 H320 0.930 . S
C332 C333 1.399 . S
C332 C337 1.399 . S
C333 C332 1.399 . S
C333 C334 1.376 . S
C334 H321 0.930 . S
C334 C333 1.376 . S
C334 C335 1.388 . S
C335 H322 0.930 . S
C335 C334 1.388 . S
C335 C336 1.390 . S
C336 C335 1.390 . S
C336 C337 1.394 . S
C336 C342 1.465 . S
C337 C332 1.399 . S
C337 C336 1.394 . S
C337 C338 1.516 . S
C338 C337 1.516 . S
C338 C339 1.502 . S
C338 C340 1.561 . S
C338 C341 1.526 . S
C339 H323 0.959 . S
C339 H324 0.959 . S
C339 H325 0.961 . S
C339 C338 1.502 . S
C340 H326 0.960 . S
C340 H327 0.961 . S
C340 H328 0.959 . S
C340 C338 1.561 . S
C341 C338 1.526 . S
C341 C342 1.396 . S
C341 C346 1.390 . S
C342 C336 1.465 . S
C342 C341 1.396 . S
C342 C343 1.399 . S
C343 H329 0.929 . S
C343 C342 1.399 . S
C343 C344 1.385 . S
C344 H330 0.931 . S
C344 C343 1.385 . S
C344 C345 1.389 . S
C345 C344 1.389 . S
C345 C346 1.387 . S
C346 H331 0.930 . S
C346 C341 1.390 . S
C346 C345 1.387 . S
H347 C359 0.930 . S
H348 C361 0.930 . S
H349 C362 0.930 . S
H350 C366 0.959 . S
H351 C366 0.959 . S
H352 C366 0.961 . S
H353 C367 0.960 . S
H354 C367 0.961 . S
H355 C367 0.959 . S
H356 C370 0.929 . S
H357 C371 0.931 . S
H358 C373 0.930 . S
C359 H347 0.930 . S
C359 C360 1.399 . S
C359 C364 1.399 . S
C360 C359 1.399 . S
C360 C361 1.376 . S
C361 H348 0.930 . S
C361 C360 1.376 . S
C361 C362 1.388 . S
C362 H349 0.930 . S
C362 C361 1.388 . S
C362 C363 1.390 . S
C363 C362 1.390 . S
C363 C364 1.394 . S
C363 C369 1.465 . S
C364 C359 1.399 . S
C364 C363 1.394 . S
C364 C365 1.516 . S
C365 C364 1.516 . S
C365 C366 1.502 . S
C365 C367 1.561 . S
C365 C368 1.526 . S
C366 H350 0.959 . S
C366 H351 0.959 . S
C366 H352 0.961 . S
C366 C365 1.502 . S
C367 H353 0.960 . S
C367 H354 0.961 . S
C367 H355 0.959 . S
C367 C365 1.561 . S
C368 C365 1.526 . S
C368 C369 1.396 . S
C368 C373 1.390 . S
C369 C363 1.465 . S
C369 C368 1.396 . S
C369 C370 1.399 . S
C370 H356 0.929 . S
C370 C369 1.399 . S
C370 C371 1.385 . S
C371 H357 0.931 . S
C371 C370 1.385 . S
C371 C372 1.389 . S
C372 C371 1.389 . S
C372 C373 1.387 . S
C373 H358 0.930 . S
C373 C368 1.390 . S
C373 C372 1.387 . S
H374 C386 0.930 . S
H375 C388 0.930 . S
H376 C389 0.930 . S
H377 C393 0.959 . S
H378 C393 0.959 . S
H379 C393 0.961 . S
H380 C394 0.960 . S
H381 C394 0.961 . S
H382 C394 0.959 . S
H383 C397 0.929 . S
H384 C398 0.931 . S
H385 C400 0.930 . S
C386 H374 0.930 . S
C386 C387 1.399 . S
C386 C391 1.399 . S
C387 C386 1.399 . S
C387 C388 1.376 . S
C388 H375 0.930 . S
C388 C387 1.376 . S
C388 C389 1.388 . S
C389 H376 0.930 . S
C389 C388 1.388 . S
C389 C390 1.390 . S
C390 C389 1.390 . S
C390 C391 1.394 . S
C390 C396 1.465 . S
C391 C386 1.399 . S
C391 C390 1.394 . S
C391 C392 1.516 . S
C392 C391 1.516 . S
C392 C393 1.502 . S
C392 C394 1.561 . S
C392 C395 1.526 . S
C393 H377 0.959 . S
C393 H378 0.959 . S
C393 H379 0.961 . S
C393 C392 1.502 . S
C394 H380 0.960 . S
C394 H381 0.961 . S
C394 H382 0.959 . S
C394 C392 1.561 . S
C395 C392 1.526 . S
C395 C396 1.396 . S
C395 C400 1.390 . S
C396 C390 1.465 . S
C396 C395 1.396 . S
C396 C397 1.399 . S
C397 H383 0.929 . S
C397 C396 1.399 . S
C397 C398 1.385 . S
C398 H384 0.931 . S
C398 C397 1.385 . S
C398 C399 1.389 . S
C399 C398 1.389 . S
C399 C400 1.387 . S
C400 H385 0.930 . S
C400 C395 1.390 . S
C400 C399 1.387 . S
H401 C413 0.930 . S
H402 C415 0.930 . S
H403 C416 0.930 . S
H404 C420 0.959 . S
H405 C420 0.959 . S
H406 C420 0.961 . S
H407 C421 0.960 . S
H408 C421 0.961 . S
H409 C421 0.959 . S
H410 C424 0.929 . S
H411 C425 0.931 . S
H412 C427 0.930 . S
C413 H401 0.930 . S
C413 C414 1.399 . S
C413 C418 1.399 . S
C414 C413 1.399 . S
C414 C415 1.376 . S
C415 H402 0.930 . S
C415 C414 1.376 . S
C415 C416 1.388 . S
C416 H403 0.930 . S
C416 C415 1.388 . S
C416 C417 1.390 . S
C417 C416 1.390 . S
C417 C418 1.394 . S
C417 C423 1.465 . S
C418 C413 1.399 . S
C418 C417 1.394 . S
C418 C419 1.516 . S
C419 C418 1.516 . S
C419 C420 1.502 . S
C419 C421 1.561 . S
C419 C422 1.526 . S
C420 H404 0.959 . S
C420 H405 0.959 . S
C420 H406 0.961 . S
C420 C419 1.502 . S
C421 H407 0.960 . S
C421 H408 0.961 . S
C421 H409 0.959 . S
C421 C419 1.561 . S
C422 C419 1.526 . S
C422 C423 1.396 . S
C422 C427 1.390 . S
C423 C417 1.465 . S
C423 C422 1.396 . S
C423 C424 1.399 . S
C424 H410 0.929 . S
C424 C423 1.399 . S
C424 C425 1.385 . S
C425 H411 0.931 . S
C425 C424 1.385 . S
C425 C426 1.389 . S
C426 C425 1.389 . S
C426 C427 1.387 . S
C427 H412 0.930 . S
C427 C422 1.390 . S
C427 C426 1.387 . S
H428 C440 0.930 . S
H429 C442 0.930 . S
H430 C443 0.930 . S
H431 C447 0.959 . S
H432 C447 0.959 . S
H433 C447 0.961 . S
H434 C448 0.960 . S
H435 C448 0.961 . S
H436 C448 0.959 . S
H437 C451 0.929 . S
H438 C452 0.931 . S
H439 C454 0.930 . S
C440 H428 0.930 . S
C440 C441 1.399 . S
C440 C445 1.399 . S
C441 C440 1.399 . S
C441 C442 1.376 . S
C442 H429 0.930 . S
C442 C441 1.376 . S
C442 C443 1.388 . S
C443 H430 0.930 . S
C443 C442 1.388 . S
C443 C444 1.390 . S
C444 C443 1.390 . S
C444 C445 1.394 . S
C444 C450 1.465 . S
C445 C440 1.399 . S
C445 C444 1.394 . S
C445 C446 1.516 . S
C446 C445 1.516 . S
C446 C447 1.502 . S
C446 C448 1.561 . S
C446 C449 1.526 . S
C447 H431 0.959 . S
C447 H432 0.959 . S
C447 H433 0.961 . S
C447 C446 1.502 . S
C448 H434 0.960 . S
C448 H435 0.961 . S
C448 H436 0.959 . S
C448 C446 1.561 . S
C449 C446 1.526 . S
C449 C450 1.396 . S
C449 C454 1.390 . S
C450 C444 1.465 . S
C450 C449 1.396 . S
C450 C451 1.399 . S
C451 H437 0.929 . S
C451 C450 1.399 . S
C451 C452 1.385 . S
C452 H438 0.931 . S
C452 C451 1.385 . S
C452 C453 1.389 . S
C453 C452 1.389 . S
C453 C454 1.387 . S
C454 H439 0.930 . S
C454 C449 1.390 . S
C454 C453 1.387 . S
H455 C467 0.930 . S
H456 C469 0.930 . S
H457 C470 0.930 . S
H458 C474 0.959 . S
H459 C474 0.959 . S
H460 C474 0.961 . S
H461 C475 0.960 . S
H462 C475 0.961 . S
H463 C475 0.959 . S
H464 C478 0.929 . S
H465 C479 0.931 . S
H466 C481 0.930 . S
C467 H455 0.930 . S
C467 C468 1.399 . S
C467 C472 1.399 . S
C468 C467 1.399 . S
C468 C469 1.376 . S
C469 H456 0.930 . S
C469 C468 1.376 . S
C469 C470 1.388 . S
C470 H457 0.930 . S
C470 C469 1.388 . S
C470 C471 1.390 . S
C471 C470 1.390 . S
C471 C472 1.394 . S
C471 C477 1.465 . S
C472 C467 1.399 . S
C472 C471 1.394 . S
C472 C473 1.516 . S
C473 C472 1.516 . S
C473 C474 1.502 . S
C473 C475 1.561 . S
C473 C476 1.526 . S
C474 H458 0.959 . S
C474 H459 0.959 . S
C474 H460 0.961 . S
C474 C473 1.502 . S
C475 H461 0.960 . S
C475 H462 0.961 . S
C475 H463 0.959 . S
C475 C473 1.561 . S
C476 C473 1.526 . S
C476 C477 1.396 . S
C476 C481 1.390 . S
C477 C471 1.465 . S
C477 C476 1.396 . S
C477 C478 1.399 . S
C478 H464 0.929 . S
C478 C477 1.399 . S
C478 C479 1.385 . S
C479 H465 0.931 . S
C479 C478 1.385 . S
C479 C480 1.389 . S
C480 C479 1.389 . S
C480 C481 1.387 . S
C481 H466 0.930 . S
C481 C476 1.390 . S
C481 C480 1.387 . S
H482 C494 0.930 . S
H483 C496 0.930 . S
H484 C497 0.930 . S
H485 C501 0.959 . S
H486 C501 0.959 . S
H487 C501 0.961 . S
H488 C502 0.960 . S
H489 C502 0.961 . S
H490 C502 0.959 . S
H491 C505 0.929 . S
H492 C506 0.931 . S
H493 C508 0.930 . S
C494 H482 0.930 . S
C494 C495 1.399 . S
C494 C499 1.399 . S
C495 C494 1.399 . S
C495 C496 1.376 . S
C496 H483 0.930 . S
C496 C495 1.376 . S
C496 C497 1.388 . S
C497 H484 0.930 . S
C497 C496 1.388 . S
C497 C498 1.390 . S
C498 C497 1.390 . S
C498 C499 1.394 . S
C498 C504 1.465 . S
C499 C494 1.399 . S
C499 C498 1.394 . S
C499 C500 1.516 . S
C500 C499 1.516 . S
C500 C501 1.502 . S
C500 C502 1.561 . S
C500 C503 1.526 . S
C501 H485 0.959 . S
C501 H486 0.959 . S
C501 H487 0.961 . S
C501 C500 1.502 . S
C502 H488 0.960 . S
C502 H489 0.961 . S
C502 H490 0.959 . S
C502 C500 1.561 . S
C503 C500 1.526 . S
C503 C504 1.396 . S
C503 C508 1.390 . S
C504 C498 1.465 . S
C504 C503 1.396 . S
C504 C505 1.399 . S
C505 H491 0.929 . S
C505 C504 1.399 . S
C505 C506 1.385 . S
C506 H492 0.931 . S
C506 C505 1.385 . S
C506 C507 1.389 . S
C507 C506 1.389 . S
C507 C508 1.387 . S
C508 H493 0.930 . S
C508 C503 1.390 . S
C508 C507 1.387 . S
H509 C521 0.930 . S
H510 C523 0.930 . S
H511 C524 0.930 . S
H512 C528 0.959 . S
H513 C528 0.959 . S
H514 C528 0.961 . S
H515 C529 0.960 . S
H516 C529 0.961 . S
H517 C529 0.959 . S
H518 C532 0.929 . S
H519 C533 0.931 . S
H520 C535 0.930 . S
C521 H509 0.930 . S
C521 C522 1.399 . S
C521 C526 1.399 . S
C522 C521 1.399 . S
C522 C523 1.376 . S
C523 H510 0.930 . S
C523 C522 1.376 . S
C523 C524 1.388 . S
C524 H511 0.930 . S
C524 C523 1.388 . S
C524 C525 1.390 . S
C525 C524 1.390 . S
C525 C526 1.394 . S
C525 C531 1.465 . S
C526 C521 1.399 . S
C526 C525 1.394 . S
C526 C527 1.516 . S
C527 C526 1.516 . S
C527 C528 1.502 . S
C527 C529 1.561 . S
C527 C530 1.526 . S
C528 H512 0.959 . S
C528 H513 0.959 . S
C528 H514 0.961 . S
C528 C527 1.502 . S
C529 H515 0.960 . S
C529 H516 0.961 . S
C529 H517 0.959 . S
C529 C527 1.561 . S
C530 C527 1.526 . S
C530 C531 1.396 . S
C530 C535 1.390 . S
C531 C525 1.465 . S
C531 C530 1.396 . S
C531 C532 1.399 . S
C532 H518 0.929 . S
C532 C531 1.399 . S
C532 C533 1.385 . S
C533 H519 0.931 . S
C533 C532 1.385 . S
C533 C534 1.389 . S
C534 C533 1.389 . S
C534 C535 1.387 . S
C535 H520 0.930 . S
C535 C530 1.390 . S
C535 C534 1.387 . S
H536 C548 0.930 . S
H537 C550 0.930 . S
H538 C551 0.930 . S
H539 C555 0.959 . S
H540 C555 0.959 . S
H541 C555 0.961 . S
H542 C556 0.960 . S
H543 C556 0.961 . S
H544 C556 0.959 . S
H545 C559 0.929 . S
H546 C560 0.931 . S
H547 C562 0.930 . S
C548 H536 0.930 . S
C548 C549 1.399 . S
C548 C553 1.399 . S
C549 C548 1.399 . S
C549 C550 1.376 . S
C550 H537 0.930 . S
C550 C549 1.376 . S
C550 C551 1.388 . S
C551 H538 0.930 . S
C551 C550 1.388 . S
C551 C552 1.390 . S
C552 C551 1.390 . S
C552 C553 1.394 . S
C552 C558 1.465 . S
C553 C548 1.399 . S
C553 C552 1.394 . S
C553 C554 1.516 . S
C554 C553 1.516 . S
C554 C555 1.502 . S
C554 C556 1.561 . S
C554 C557 1.526 . S
C555 H539 0.959 . S
C555 H540 0.959 . S
C555 H541 0.961 . S
C555 C554 1.502 . S
C556 H542 0.960 . S
C556 H543 0.961 . S
C556 H544 0.959 . S
C556 C554 1.561 . S
C557 C554 1.526 . S
C557 C558 1.396 . S
C557 C562 1.390 . S
C558 C552 1.465 . S
C558 C557 1.396 . S
C558 C559 1.399 . S
C559 H545 0.929 . S
C559 C558 1.399 . S
C559 C560 1.385 . S
C560 H546 0.931 . S
C560 C559 1.385 . S
C560 C561 1.389 . S
C561 C560 1.389 . S
C561 C562 1.387 . S
C562 H547 0.930 . S
C562 C557 1.390 . S
C562 C561 1.387 . S
H563 C575 0.930 . S
H564 C577 0.930 . S
H565 C578 0.930 . S
H566 C582 0.959 . S
H567 C582 0.959 1_556 S
H568 C582 0.961 . S
H569 C583 0.960 . S
H570 C583 0.961 . S
H571 C583 0.959 . S
H572 C586 0.929 . S
H573 C587 0.931 . S
H574 C589 0.930 . S
C575 H563 0.930 . S
C575 C576 1.399 . S
C575 C580 1.399 . S
C576 C575 1.399 . S
C576 C577 1.376 . S
C577 H564 0.930 . S
C577 C576 1.376 . S
C577 C578 1.388 . S
C578 H565 0.930 . S
C578 C577 1.388 . S
C578 C579 1.390 . S
C579 C578 1.390 . S
C579 C580 1.394 . S
C579 C585 1.465 . S
C580 C575 1.399 . S
C580 C579 1.394 . S
C580 C581 1.516 . S
C581 C580 1.516 . S
C581 C582 1.502 . S
C581 C583 1.561 . S
C581 C584 1.526 . S
C582 H566 0.959 . S
C582 H567 0.959 1_554 S
C582 H568 0.961 . S
C582 C581 1.502 . S
C583 H569 0.960 . S
C583 H570 0.961 . S
C583 H571 0.959 . S
C583 C581 1.561 . S
C584 C581 1.526 . S
C584 C585 1.396 . S
C584 C589 1.390 . S
C585 C579 1.465 . S
C585 C584 1.396 . S
C585 C586 1.399 . S
C586 H572 0.929 . S
C586 C585 1.399 . S
C586 C587 1.385 . S
C587 H573 0.931 . S
C587 C586 1.385 . S
C587 C588 1.389 . S
C588 C587 1.389 . S
C588 C589 1.387 . S
C589 H574 0.930 . S
C589 C584 1.390 . S
C589 C588 1.387 . S
H590 C602 0.930 . S
H591 C604 0.930 . S
H592 C605 0.930 . S
H593 C609 0.959 . S
H594 C609 0.959 . S
H595 C609 0.961 . S
H596 C610 0.960 . S
H597 C610 0.961 . S
H598 C610 0.959 . S
H599 C613 0.929 . S
H600 C614 0.931 . S
H601 C616 0.930 . S
C602 H590 0.930 . S
C602 C603 1.399 . S
C602 C607 1.399 . S
C603 C602 1.399 . S
C603 C604 1.376 . S
C604 H591 0.930 . S
C604 C603 1.376 . S
C604 C605 1.388 . S
C605 H592 0.930 . S
C605 C604 1.388 . S
C605 C606 1.390 . S
C606 C605 1.390 . S
C606 C607 1.394 . S
C606 C612 1.465 . S
C607 C602 1.399 . S
C607 C606 1.394 . S
C607 C608 1.516 . S
C608 C607 1.516 . S
C608 C609 1.502 . S
C608 C610 1.561 . S
C608 C611 1.526 . S
C609 H593 0.959 . S
C609 H594 0.959 . S
C609 H595 0.961 . S
C609 C608 1.502 . S
C610 H596 0.960 . S
C610 H597 0.961 . S
C610 H598 0.959 . S
C610 C608 1.561 . S
C611 C608 1.526 . S
C611 C612 1.396 . S
C611 C616 1.390 . S
C612 C606 1.465 . S
C612 C611 1.396 . S
C612 C613 1.399 . S
C613 H599 0.929 . S
C613 C612 1.399 . S
C613 C614 1.385 . S
C614 H600 0.931 . S
C614 C613 1.385 . S
C614 C615 1.389 . S
C615 C614 1.389 . S
C615 C616 1.387 . S
C616 H601 0.930 . S
C616 C611 1.390 . S
C616 C615 1.387 . S
H617 C629 0.930 . S
H618 C631 0.930 . S
H619 C632 0.930 . S
H620 C636 0.959 . S
H621 C636 0.959 . S
H622 C636 0.961 . S
H623 C637 0.960 . S
H624 C637 0.961 . S
H625 C637 0.959 . S
H626 C640 0.929 . S
H627 C641 0.931 . S
H628 C643 0.930 . S
C629 H617 0.930 . S
C629 C630 1.399 . S
C629 C634 1.399 . S
C630 C629 1.399 . S
C630 C631 1.376 . S
C631 H618 0.930 . S
C631 C630 1.376 . S
C631 C632 1.388 . S
C632 H619 0.930 . S
C632 C631 1.388 . S
C632 C633 1.390 . S
C633 C632 1.390 . S
C633 C634 1.394 . S
C633 C639 1.465 . S
C634 C629 1.399 . S
C634 C633 1.394 . S
C634 C635 1.516 . S
C635 C634 1.516 . S
C635 C636 1.502 . S
C635 C637 1.561 . S
C635 C638 1.526 . S
C636 H620 0.959 . S
C636 H621 0.959 . S
C636 H622 0.961 . S
C636 C635 1.502 . S
C637 H623 0.960 . S
C637 H624 0.961 . S
C637 H625 0.959 . S
C637 C635 1.561 . S
C638 C635 1.526 . S
C638 C639 1.396 . S
C638 C643 1.390 . S
C639 C633 1.465 . S
C639 C638 1.396 . S
C639 C640 1.399 . S
C640 H626 0.929 . S
C640 C639 1.399 . S
C640 C641 1.385 . S
C641 H627 0.931 . S
C641 C640 1.385 . S
C641 C642 1.389 . S
C642 C641 1.389 . S
C642 C643 1.387 . S
C643 H628 0.930 . S
C643 C638 1.390 . S
C643 C642 1.387 . S
H644 C656 0.930 . S
H645 C658 0.930 . S
H646 C659 0.930 . S
H647 C663 0.959 . S
H648 C663 0.959 . S
H649 C663 0.961 . S
H650 C664 0.960 . S
H651 C664 0.961 . S
H652 C664 0.959 . S
H653 C667 0.929 . S
H654 C668 0.931 . S
H655 C670 0.930 . S
C656 H644 0.930 . S
C656 C657 1.399 . S
C656 C661 1.399 . S
C657 C656 1.399 . S
C657 C658 1.376 . S
C658 H645 0.930 . S
C658 C657 1.376 . S
C658 C659 1.388 . S
C659 H646 0.930 . S
C659 C658 1.388 . S
C659 C660 1.390 . S
C660 C659 1.390 . S
C660 C661 1.394 . S
C660 C666 1.465 . S
C661 C656 1.399 . S
C661 C660 1.394 . S
C661 C662 1.516 . S
C662 C661 1.516 . S
C662 C663 1.502 . S
C662 C664 1.561 . S
C662 C665 1.526 . S
C663 H647 0.959 . S
C663 H648 0.959 . S
C663 H649 0.961 . S
C663 C662 1.502 . S
C664 H650 0.960 . S
C664 H651 0.961 . S
C664 H652 0.959 . S
C664 C662 1.561 . S
C665 C662 1.526 . S
C665 C666 1.396 . S
C665 C670 1.390 . S
C666 C660 1.465 . S
C666 C665 1.396 . S
C666 C667 1.399 . S
C667 H653 0.929 . S
C667 C666 1.399 . S
C667 C668 1.385 . S
C668 H654 0.931 . S
C668 C667 1.385 . S
C668 C669 1.389 . S
C669 C668 1.389 . S
C669 C670 1.387 . S
C670 H655 0.930 . S
C670 C665 1.390 . S
C670 C669 1.387 . S
H671 C683 0.930 . S
H672 C685 0.930 1_554 S
H673 C686 0.930 . S
H674 C690 0.959 . S
H675 C690 0.959 . S
H676 C690 0.961 . S
H677 C691 0.960 . S
H678 C691 0.961 . S
H679 C691 0.959 . S
H680 C694 0.929 . S
H681 C695 0.931 . S
H682 C697 0.930 . S
C683 H671 0.930 . S
C683 C684 1.399 . S
C683 C688 1.399 . S
C684 C683 1.399 . S
C684 C685 1.376 . S
C685 H672 0.930 1_556 S
C685 C684 1.376 . S
C685 C686 1.388 . S
C686 H673 0.930 . S
C686 C685 1.388 . S
C686 C687 1.390 . S
C687 C686 1.390 . S
C687 C688 1.394 . S
C687 C693 1.465 . S
C688 C683 1.399 . S
C688 C687 1.394 . S
C688 C689 1.516 . S
C689 C688 1.516 . S
C689 C690 1.502 . S
C689 C691 1.561 . S
C689 C692 1.526 . S
C690 H674 0.959 . S
C690 H675 0.959 . S
C690 H676 0.961 . S
C690 C689 1.502 . S
C691 H677 0.960 . S
C691 H678 0.961 . S
C691 H679 0.959 . S
C691 C689 1.561 . S
C692 C689 1.526 . S
C692 C693 1.396 . S
C692 C697 1.390 . S
C693 C687 1.465 . S
C693 C692 1.396 . S
C693 C694 1.399 . S
C694 H680 0.929 . S
C694 C693 1.399 . S
C694 C695 1.385 . S
C695 H681 0.931 . S
C695 C694 1.385 . S
C695 C696 1.389 . S
C696 C695 1.389 . S
C696 C697 1.387 . S
C697 H682 0.930 . S
C697 C692 1.390 . S
C697 C696 1.387 . S
H698 C710 0.930 . S
H699 C712 0.930 . S
H700 C713 0.930 . S
H701 C717 0.959 . S
H702 C717 0.959 . S
H703 C717 0.961 . S
H704 C718 0.960 . S
H705 C718 0.961 . S
H706 C718 0.959 . S
H707 C721 0.929 . S
H708 C722 0.931 . S
H709 C724 0.930 . S
C710 H698 0.930 . S
C710 C711 1.399 . S
C710 C715 1.399 . S
C711 C710 1.399 . S
C711 C712 1.376 . S
C712 H699 0.930 . S
C712 C711 1.376 . S
C712 C713 1.388 . S
C713 H700 0.930 . S
C713 C712 1.388 . S
C713 C714 1.390 . S
C714 C713 1.390 . S
C714 C715 1.394 . S
C714 C720 1.465 . S
C715 C710 1.399 . S
C715 C714 1.394 . S
C715 C716 1.516 . S
C716 C715 1.516 . S
C716 C717 1.502 . S
C716 C718 1.561 . S
C716 C719 1.526 . S
C717 H701 0.959 . S
C717 H702 0.959 . S
C717 H703 0.961 . S
C717 C716 1.502 . S
C718 H704 0.960 . S
C718 H705 0.961 . S
C718 H706 0.959 . S
C718 C716 1.561 . S
C719 C716 1.526 . S
C719 C720 1.396 . S
C719 C724 1.390 . S
C720 C714 1.465 . S
C720 C719 1.396 . S
C720 C721 1.399 . S
C721 H707 0.929 . S
C721 C720 1.399 . S
C721 C722 1.385 . S
C722 H708 0.931 . S
C722 C721 1.385 . S
C722 C723 1.389 . S
C723 C722 1.389 . S
C723 C724 1.387 . S
C724 H709 0.930 . S
C724 C719 1.390 . S
C724 C723 1.387 . S
H725 C737 0.930 . S
H726 C739 0.930 . S
H727 C740 0.930 . S
H728 C744 0.959 . S
H729 C744 0.959 . S
H730 C744 0.961 . S
H731 C745 0.960 . S
H732 C745 0.961 . S
H733 C745 0.959 . S
H734 C748 0.929 . S
H735 C749 0.931 . S
H736 C751 0.930 . S
C737 H725 0.930 . S
C737 C738 1.399 . S
C737 C742 1.399 . S
C738 C737 1.399 . S
C738 C739 1.376 . S
C739 H726 0.930 . S
C739 C738 1.376 . S
C739 C740 1.388 . S
C740 H727 0.930 . S
C740 C739 1.388 . S
C740 C741 1.390 . S
C741 C740 1.390 . S
C741 C742 1.394 . S
C741 C747 1.465 . S
C742 C737 1.399 . S
C742 C741 1.394 . S
C742 C743 1.516 . S
C743 C742 1.516 . S
C743 C744 1.502 . S
C743 C745 1.561 . S
C743 C746 1.526 . S
C744 H728 0.959 . S
C744 H729 0.959 . S
C744 H730 0.961 . S
C744 C743 1.502 . S
C745 H731 0.960 . S
C745 H732 0.961 . S
C745 H733 0.959 . S
C745 C743 1.561 . S
C746 C743 1.526 . S
C746 C747 1.396 . S
C746 C751 1.390 . S
C747 C741 1.465 . S
C747 C746 1.396 . S
C747 C748 1.399 . S
C748 H734 0.929 . S
C748 C747 1.399 . S
C748 C749 1.385 . S
C749 H735 0.931 . S
C749 C748 1.385 . S
C749 C750 1.389 . S
C750 C749 1.389 . S
C750 C751 1.387 . S
C751 H736 0.930 . S
C751 C746 1.390 . S
C751 C750 1.387 . S
H752 C764 0.930 . S
H753 C766 0.930 . S
H754 C767 0.930 . S
H755 C771 0.959 . S
H756 C771 0.959 . S
H757 C771 0.961 . S
H758 C772 0.960 . S
H759 C772 0.961 . S
H760 C772 0.959 . S
H761 C775 0.928 1_655 S
H762 C776 0.931 . S
H763 C778 0.930 . S
C764 H752 0.930 . S
C764 C765 1.399 . S
C764 C769 1.399 . S
C765 C764 1.399 . S
C765 C766 1.376 1_545 S
C766 H753 0.930 . S
C766 C765 1.376 1_565 S
C766 C767 1.388 . S
C767 H754 0.930 . S
C767 C766 1.388 . S
C767 C768 1.390 . S
C768 C767 1.390 . S
C768 C769 1.394 1_565 S
C768 C774 1.465 1_556 S
C769 C764 1.399 . S
C769 C768 1.394 1_545 S
C769 C770 1.516 1_656 S
C770 C769 1.516 1_454 S
C770 C771 1.502 . S
C770 C772 1.561 1_455 S
C770 C773 1.526 . S
C771 H755 0.959 . S
C771 H756 0.959 . S
C771 H757 0.961 . S
C771 C770 1.502 . S
C772 H758 0.960 . S
C772 H759 0.961 . S
C772 H760 0.959 . S
C772 C770 1.561 1_655 S
C773 C770 1.526 . S
C773 C774 1.396 1_445 S
C773 C778 1.390 . S
C774 C768 1.465 1_554 S
C774 C773 1.396 1_665 S
C774 C775 1.399 1_655 S
C775 H761 0.928 1_455 S
C775 C774 1.399 1_455 S
C775 C776 1.386 . S
C776 H762 0.931 . S
C776 C775 1.386 . S
C776 C777 1.389 . S
C777 C776 1.389 . S
C777 C778 1.387 1_565 S
C778 H763 0.930 . S
C778 C773 1.390 . S
C778 C777 1.387 1_545 S
H779 C791 0.930 . S
H780 C793 0.930 . S
H781 C794 0.930 . S
H782 C798 0.959 . S
H783 C798 0.959 . S
H784 C798 0.961 . S
H785 C799 0.960 . S
H786 C799 0.961 . S
H787 C799 0.959 . S
H788 C802 0.929 . S
H789 C803 0.931 . S
H790 C805 0.930 . S
C791 H779 0.930 . S
C791 C792 1.399 . S
C791 C796 1.399 . S
C792 C791 1.399 . S
C792 C793 1.376 . S
C793 H780 0.930 . S
C793 C792 1.376 . S
C793 C794 1.388 . S
C794 H781 0.930 . S
C794 C793 1.388 . S
C794 C795 1.390 . S
C795 C794 1.390 . S
C795 C796 1.394 . S
C795 C801 1.465 . S
C796 C791 1.399 . S
C796 C795 1.394 . S
C796 C797 1.516 . S
C797 C796 1.516 . S
C797 C798 1.502 . S
C797 C799 1.561 . S
C797 C800 1.526 . S
C798 H782 0.959 . S
C798 H783 0.959 . S
C798 H784 0.961 . S
C798 C797 1.502 . S
C799 H785 0.960 . S
C799 H786 0.961 . S
C799 H787 0.959 . S
C799 C797 1.561 . S
C800 C797 1.526 . S
C800 C801 1.396 . S
C800 C805 1.390 . S
C801 C795 1.465 . S
C801 C800 1.396 . S
C801 C802 1.399 . S
C802 H788 0.929 . S
C802 C801 1.399 . S
C802 C803 1.385 . S
C803 H789 0.931 . S
C803 C802 1.385 . S
C803 C804 1.389 . S
C804 C803 1.389 . S
C804 C805 1.387 . S
C805 H790 0.930 . S
C805 C800 1.390 . S
C805 C804 1.387 . S
H806 C818 0.930 . S
H807 C820 0.930 . S
H808 C821 0.930 . S
H809 C825 0.959 . S
H810 C825 0.959 . S
H811 C825 0.961 . S
H812 C826 0.960 . S
H813 C826 0.961 . S
H814 C826 0.959 1_545 S
H815 C829 0.929 . S
H816 C830 0.931 . S
H817 C832 0.930 . S
C818 H806 0.930 . S
C818 C819 1.399 1_565 S
C818 C823 1.399 . S
C819 C818 1.399 1_545 S
C819 C820 1.376 . S
C820 H807 0.930 . S
C820 C819 1.376 . S
C820 C821 1.388 . S
C821 H808 0.930 . S
C821 C820 1.388 . S
C821 C822 1.390 . S
C822 C821 1.390 . S
C822 C823 1.394 1_545 S
C822 C828 1.465 . S
C823 C818 1.399 . S
C823 C822 1.394 1_565 S
C823 C824 1.516 . S
C824 C823 1.516 . S
C824 C825 1.502 . S
C824 C826 1.561 . S
C824 C827 1.526 . S
C825 H809 0.959 . S
C825 H810 0.959 . S
C825 H811 0.961 . S
C825 C824 1.502 . S
C826 H812 0.960 . S
C826 H813 0.961 . S
C826 H814 0.959 1_565 S
C826 C824 1.561 . S
C827 C824 1.526 . S
C827 C828 1.396 1_565 S
C827 C832 1.390 . S
C828 C822 1.465 . S
C828 C827 1.396 1_545 S
C828 C829 1.399 . S
C829 H815 0.929 . S
C829 C828 1.399 . S
C829 C830 1.385 . S
C830 H816 0.931 . S
C830 C829 1.385 . S
C830 C831 1.389 . S
C831 C830 1.389 . S
C831 C832 1.387 1_545 S
C832 H817 0.930 . S
C832 C827 1.390 . S
C832 C831 1.387 1_565 S
H833 C845 0.930 . S
H834 C847 0.930 . S
H835 C848 0.930 . S
H836 C852 0.959 . S
H837 C852 0.959 . S
H838 C852 0.961 . S
H839 C853 0.960 . S
H840 C853 0.961 . S
H841 C853 0.959 . S
H842 C856 0.929 . S
H843 C857 0.931 . S
H844 C859 0.930 . S
C845 H833 0.930 . S
C845 C846 1.399 . S
C845 C850 1.399 . S
C846 C845 1.399 . S
C846 C847 1.376 . S
C847 H834 0.930 . S
C847 C846 1.376 . S
C847 C848 1.388 . S
C848 H835 0.930 . S
C848 C847 1.388 . S
C848 C849 1.390 . S
C849 C848 1.390 . S
C849 C850 1.394 . S
C849 C855 1.465 . S
C850 C845 1.399 . S
C850 C849 1.394 . S
C850 C851 1.516 . S
C851 C850 1.516 . S
C851 C852 1.502 . S
C851 C853 1.561 . S
C851 C854 1.526 . S
C852 H836 0.959 . S
C852 H837 0.959 . S
C852 H838 0.961 . S
C852 C851 1.502 . S
C853 H839 0.960 . S
C853 H840 0.961 . S
C853 H841 0.959 . S
C853 C851 1.561 . S
C854 C851 1.526 . S
C854 C855 1.396 . S
C854 C859 1.390 . S
C855 C849 1.465 . S
C855 C854 1.396 . S
C855 C856 1.399 . S
C856 H842 0.929 . S
C856 C855 1.399 . S
C856 C857 1.385 . S
C857 H843 0.931 . S
C857 C856 1.385 . S
C857 C858 1.389 . S
C858 C857 1.389 . S
C858 C859 1.387 . S
C859 H844 0.930 . S
C859 C854 1.390 . S
C859 C858 1.387 . S
H860 C872 0.930 . S
H861 C874 0.930 . S
H862 C875 0.930 . S
H863 C879 0.959 . S
H864 C879 0.959 . S
H865 C879 0.961 . S
H866 C880 0.960 . S
H867 C880 0.961 . S
H868 C880 0.959 . S
H869 C883 0.929 . S
H870 C884 0.931 . S
H871 C886 0.930 . S
C872 H860 0.930 . S
C872 C873 1.399 . S
C872 C877 1.399 . S
C873 C872 1.399 . S
C873 C874 1.376 . S
C874 H861 0.930 . S
C874 C873 1.376 . S
C874 C875 1.388 . S
C875 H862 0.930 . S
C875 C874 1.388 . S
C875 C876 1.390 . S
C876 C875 1.390 . S
C876 C877 1.394 . S
C876 C882 1.465 . S
C877 C872 1.399 . S
C877 C876 1.394 . S
C877 C878 1.516 . S
C878 C877 1.516 . S
C878 C879 1.502 . S
C878 C880 1.561 . S
C878 C881 1.526 . S
C879 H863 0.959 . S
C879 H864 0.959 . S
C879 H865 0.961 . S
C879 C878 1.502 . S
C880 H866 0.960 . S
C880 H867 0.961 . S
C880 H868 0.959 . S
C880 C878 1.561 . S
C881 C878 1.526 . S
C881 C882 1.396 . S
C881 C886 1.390 . S
C882 C876 1.465 . S
C882 C881 1.396 . S
C882 C883 1.399 . S
C883 H869 0.929 . S
C883 C882 1.399 . S
C883 C884 1.385 . S
C884 H870 0.931 . S
C884 C883 1.385 . S
C884 C885 1.389 . S
C885 C884 1.389 . S
C885 C886 1.387 . S
C886 H871 0.930 . S
C886 C881 1.390 . S
C886 C885 1.387 . S
H887 C899 0.930 . S
H888 C901 0.930 . S
H889 C902 0.930 . S
H890 C906 0.959 . S
H891 C906 0.959 . S
H892 C906 0.961 . S
H893 C907 0.960 . S
H894 C907 0.961 . S
H895 C907 0.959 . S
H896 C910 0.929 . S
H897 C911 0.931 . S
H898 C913 0.930 . S
C899 H887 0.930 . S
C899 C900 1.399 . S
C899 C904 1.399 . S
C900 C899 1.399 . S
C900 C901 1.376 . S
C901 H888 0.930 . S
C901 C900 1.376 . S
C901 C902 1.388 . S
C902 H889 0.930 . S
C902 C901 1.388 . S
C902 C903 1.390 . S
C903 C902 1.390 . S
C903 C904 1.394 . S
C903 C909 1.465 . S
C904 C899 1.399 . S
C904 C903 1.394 . S
C904 C905 1.516 . S
C905 C904 1.516 . S
C905 C906 1.502 . S
C905 C907 1.561 . S
C905 C908 1.526 . S
C906 H890 0.959 . S
C906 H891 0.959 . S
C906 H892 0.961 . S
C906 C905 1.502 . S
C907 H893 0.960 . S
C907 H894 0.961 . S
C907 H895 0.959 . S
C907 C905 1.561 . S
C908 C905 1.526 . S
C908 C909 1.396 . S
C908 C913 1.390 . S
C909 C903 1.465 . S
C909 C908 1.396 . S
C909 C910 1.399 . S
C910 H896 0.929 . S
C910 C909 1.399 . S
C910 C911 1.385 . S
C911 H897 0.931 . S
C911 C910 1.385 . S
C911 C912 1.389 . S
C912 C911 1.389 . S
C912 C913 1.387 . S
C913 H898 0.930 . S
C913 C908 1.390 . S
C913 C912 1.387 . S
H914 C926 0.930 . S
H915 C928 0.930 . S
H916 C929 0.930 . S
H917 C933 0.959 . S
H918 C933 0.959 . S
H919 C933 0.961 . S
H920 C934 0.960 . S
H921 C934 0.961 . S
H922 C934 0.959 . S
H923 C937 0.929 . S
H924 C938 0.931 . S
H925 C940 0.930 . S
C926 H914 0.930 . S
C926 C927 1.399 . S
C926 C931 1.399 . S
C927 C926 1.399 . S
C927 C928 1.376 . S
C928 H915 0.930 . S
C928 C927 1.376 . S
C928 C929 1.388 . S
C929 H916 0.930 . S
C929 C928 1.388 . S
C929 C930 1.390 . S
C930 C929 1.390 . S
C930 C931 1.394 . S
C930 C936 1.465 . S
C931 C926 1.399 . S
C931 C930 1.394 . S
C931 C932 1.516 . S
C932 C931 1.516 . S
C932 C933 1.502 . S
C932 C934 1.561 . S
C932 C935 1.526 . S
C933 H917 0.959 . S
C933 H918 0.959 . S
C933 H919 0.961 . S
C933 C932 1.502 . S
C934 H920 0.960 . S
C934 H921 0.961 . S
C934 H922 0.959 . S
C934 C932 1.561 . S
C935 C932 1.526 . S
C935 C936 1.396 . S
C935 C940 1.390 . S
C936 C930 1.465 . S
C936 C935 1.396 . S
C936 C937 1.399 . S
C937 H923 0.929 . S
C937 C936 1.399 . S
C937 C938 1.385 . S
C938 H924 0.931 . S
C938 C937 1.385 . S
C938 C939 1.389 . S
C939 C938 1.389 . S
C939 C940 1.387 . S
C940 H925 0.930 . S
C940 C935 1.390 . S
C940 C939 1.387 . S
H941 C953 0.930 . S
H942 C955 0.930 . S
H943 C956 0.930 . S
H944 C960 0.959 . S
H945 C960 0.959 . S
H946 C960 0.961 1_556 S
H947 C961 0.960 1_556 S
H948 C961 0.961 . S
H949 C961 0.959 . S
H950 C964 0.929 . S
H951 C965 0.931 . S
H952 C967 0.930 . S
C953 H941 0.930 . S
C953 C954 1.399 . S
C953 C958 1.399 . S
C954 C953 1.399 . S
C954 C955 1.376 . S
C955 H942 0.930 . S
C955 C954 1.376 . S
C955 C956 1.388 . S
C956 H943 0.930 . S
C956 C955 1.388 . S
C956 C957 1.390 . S
C957 C956 1.390 . S
C957 C958 1.394 . S
C957 C963 1.465 1_556 S
C958 C953 1.399 . S
C958 C957 1.394 . S
C958 C959 1.516 1_656 S
C959 C958 1.516 1_454 S
C959 C960 1.502 . S
C959 C961 1.561 1_455 S
C959 C962 1.526 . S
C960 H944 0.959 . S
C960 H945 0.959 . S
C960 H946 0.961 1_554 S
C960 C959 1.502 . S
C961 H947 0.960 1_554 S
C961 H948 0.961 . S
C961 H949 0.959 . S
C961 C959 1.561 1_655 S
C962 C959 1.526 . S
C962 C963 1.396 1_455 S
C962 C967 1.390 . S
C963 C957 1.465 1_554 S
C963 C962 1.396 1_655 S
C963 C964 1.399 . S
C964 H950 0.929 . S
C964 C963 1.399 . S
C964 C965 1.385 1_655 S
C965 H951 0.931 . S
C965 C964 1.385 1_455 S
C965 C966 1.389 . S
C966 C965 1.389 . S
C966 C967 1.387 . S
C967 H952 0.930 . S
C967 C962 1.390 . S
C967 C966 1.387 . S
C333 C2 1.999 . S
C345 C122 1.990 . S
C360 C10 1.484 . S
C372 C42 1.534 . S
C387 C50 0.905 . S
C399 C90 0.943 . S
C414 C82 1.507 . S
C426 C130 1.527 . S
C441 C11 2.001 . S
C453 C211 2.000 . S
C468 C19 1.503 . S
C480 C171 1.529 . S
C495 C179 0.964 . S
C507 C99 0.963 . S
C522 C219 1.516 . S
C534 C91 1.525 . S
C549 C242 2.003 . S
C561 C202 2.008 . S
C576 C162 1.508 . S
C588 C250 1.529 . S
C603 C290 0.904 . S
C615 C170 0.943 . S
C630 C210 1.522 . S
C642 C282 1.514 . S
C657 C131 2.005 . S
C669 C251 1.994 . S
C684 C259 1.506 . S
C696 C51 1.529 . S
C711 C59 0.973 . S
C723 C299 0.913 . S
C738 C139 1.489 . S
C750 C291 1.532 . S
C765 C16 1.574 . S
C777 C7 1.587 . S
C792 C47 1.466 . S
C804 C56 1.418 . S
C819 C96 1.452 1_545 S
C831 C87 1.429 . S
C846 C136 1.609 . S
C858 C127 1.541 . S
C873 C167 1.475 . S
C885 C176 1.413 . S
C900 C216 1.540 . S
C912 C207 1.607 . S
C927 C247 1.541 . S
C939 C256 1.605 . S
C954 C287 1.464 . S
C966 C296 1.435 . S
