# Generated by pormake.
# Topology umo, (4)-cn, num edge types: 1
# Building blocks:
#     Node 0, Type 0, BuildingBlock: NAWXER_clean_sbu_0, # of connection points: 4
#     Node 1, Type 0, BuildingBlock: NAWXER_clean_sbu_0, # of connection points: 4
#     Node 2, Type 0, BuildingBlock: NAWXER_clean_sbu_0, # of connection points: 4
#     Node 3, Type 0, BuildingBlock: NAWXER_clean_sbu_0, # of connection points: 4
#     Node 4, Type 0, BuildingBlock: NAWXER_clean_sbu_0, # of connection points: 4
#     Node 5, Type 0, BuildingBlock: NAWXER_clean_sbu_0, # of connection points: 4
#     Node 6, Type 0, BuildingBlock: NAWXER_clean_sbu_0, # of connection points: 4
#     Node 7, Type 0, BuildingBlock: NAWXER_clean_sbu_0, # of connection points: 4
#     Node 8, Type 0, BuildingBlock: NAWXER_clean_sbu_0, # of connection points: 4
#     Node 9, Type 0, BuildingBlock: NAWXER_clean_sbu_0, # of connection points: 4
#     Node 10, Type 0, BuildingBlock: NAWXER_clean_sbu_0, # of connection points: 4
#     Node 11, Type 0, BuildingBlock: NAWXER_clean_sbu_0, # of connection points: 4
#     Edge 12, Type (0, 0), BuildingBlock: XUDNAN_clean_linker_2, # of connection points: 2
#     Edge 13, Type (0, 0), BuildingBlock: XUDNAN_clean_linker_2, # of connection points: 2
#     Edge 14, Type (0, 0), BuildingBlock: XUDNAN_clean_linker_2, # of connection points: 2
#     Edge 15, Type (0, 0), BuildingBlock: XUDNAN_clean_linker_2, # of connection points: 2
#     Edge 16, Type (0, 0), BuildingBlock: XUDNAN_clean_linker_2, # of connection points: 2
#     Edge 17, Type (0, 0), BuildingBlock: XUDNAN_clean_linker_2, # of connection points: 2
#     Edge 18, Type (0, 0), BuildingBlock: XUDNAN_clean_linker_2, # of connection points: 2
#     Edge 19, Type (0, 0), BuildingBlock: XUDNAN_clean_linker_2, # of connection points: 2
#     Edge 20, Type (0, 0), BuildingBlock: XUDNAN_clean_linker_2, # of connection points: 2
#     Edge 21, Type (0, 0), BuildingBlock: XUDNAN_clean_linker_2, # of connection points: 2
#     Edge 22, Type (0, 0), BuildingBlock: XUDNAN_clean_linker_2, # of connection points: 2
#     Edge 23, Type (0, 0), BuildingBlock: XUDNAN_clean_linker_2, # of connection points: 2
#     Edge 24, Type (0, 0), BuildingBlock: XUDNAN_clean_linker_2, # of connection points: 2
#     Edge 25, Type (0, 0), BuildingBlock: XUDNAN_clean_linker_2, # of connection points: 2
#     Edge 26, Type (0, 0), BuildingBlock: XUDNAN_clean_linker_2, # of connection points: 2
#     Edge 27, Type (0, 0), BuildingBlock: XUDNAN_clean_linker_2, # of connection points: 2
#     Edge 28, Type (0, 0), BuildingBlock: XUDNAN_clean_linker_2, # of connection points: 2
#     Edge 29, Type (0, 0), BuildingBlock: XUDNAN_clean_linker_2, # of connection points: 2
#     Edge 30, Type (0, 0), BuildingBlock: XUDNAN_clean_linker_2, # of connection points: 2
#     Edge 31, Type (0, 0), BuildingBlock: XUDNAN_clean_linker_2, # of connection points: 2
#     Edge 32, Type (0, 0), BuildingBlock: XUDNAN_clean_linker_2, # of connection points: 2
#     Edge 33, Type (0, 0), BuildingBlock: XUDNAN_clean_linker_2, # of connection points: 2
#     Edge 34, Type (0, 0), BuildingBlock: XUDNAN_clean_linker_2, # of connection points: 2
#     Edge 35, Type (0, 0), BuildingBlock: XUDNAN_clean_linker_2, # of connection points: 2
# Relax obj value: 0.169
# Max RMSD: 0.217
# Mean RMSD: 0.217
data_MOF--net-umo--node1-NAWXER_clean_sbu_0--edge1-XUDNAN_clean_linker_2
_symmetry_space_group_name_H-M    P1
_symmetry_Int_Tables_number       1
_symmetry_cell_setting            triclinic
loop_
_symmetry_equiv_pos_as_xyz
'x, y, z'
_cell_length_a     49.347154
_cell_length_b     49.471311
_cell_length_c     36.66362
_cell_angle_alpha  89.891445
_cell_angle_beta   90.02286
_cell_angle_gamma 120.11749
loop_
_atom_site_label
_atom_site_type_symbol
_atom_site_fract_x
_atom_site_fract_y
_atom_site_fract_z
_atom_type_partial_charge
C0 C 0.20724 0.58887 0.39455 0.0
C1 C 0.10278 0.50096 0.38028 0.0
O2 O 0.20327 0.56541 0.41369 0.0
Zn3 Zn 0.16618 0.51771 0.42269 0.0
O4 O 0.18524 0.5869 0.37471 0.0
Zn5 Zn 0.15545 0.54492 0.38778 0.0
O6 O 0.14805 0.54906 0.44495 0.0
O7 O 0.16004 0.51796 0.47521 0.0
O8 O 0.11491 0.52833 0.3672 0.0
O9 O 0.11908 0.49366 0.40105 0.0
O10 O 0.18471 0.49424 0.40275 0.0
O11 O 0.17526 0.52038 0.36082 0.0
C12 C 0.1508 0.53779 0.47536 0.0
C13 C 0.18574 0.50222 0.36954 0.0
C14 C 0.57645 0.0999 0.55245 0.0
C15 C 0.58563 0.20179 0.55576 0.0
O16 O 0.60074 0.11929 0.57064 0.0
Zn17 Zn 0.62195 0.16775 0.58672 0.0
O18 O 0.55887 0.10885 0.53812 0.0
Zn19 Zn 0.58172 0.15126 0.55309 0.0
O20 O 0.62531 0.17014 0.52411 0.0
O21 O 0.66338 0.18742 0.56488 0.0
O22 O 0.56551 0.17768 0.53871 0.0
O23 O 0.60752 0.20108 0.57382 0.0
O24 O 0.61722 0.16543 0.63989 0.0
O25 O 0.57268 0.14795 0.61027 0.0
C26 C 0.65457 0.18342 0.53177 0.0
C27 C 0.58769 0.15422 0.64045 0.0
C28 C 0.50536 0.69387 0.70409 0.0
C29 C 0.4811 0.64488 0.82528 0.0
O30 O 0.48397 0.66494 0.70367 0.0
Zn31 Zn 0.46185 0.62652 0.74175 0.0
O32 O 0.51951 0.70632 0.73374 0.0
Zn33 Zn 0.49599 0.66957 0.76425 0.0
O34 O 0.514 0.64048 0.74613 0.0
O35 O 0.47369 0.59699 0.72571 0.0
O36 O 0.50265 0.6723 0.81688 0.0
O37 O 0.46469 0.62598 0.7999 0.0
O38 O 0.41909 0.61528 0.73607 0.0
O39 O 0.44888 0.66236 0.75966 0.0
C40 C 0.50283 0.61325 0.73204 0.0
C41 C 0.42204 0.6406 0.74848 0.0
C42 C 0.77503 0.39612 0.91515 0.0
C43 C 0.88496 0.45819 0.88585 0.0
O44 O 0.78554 0.42502 0.92283 0.0
Zn45 Zn 0.83024 0.4683 0.91857 0.0
O46 O 0.79306 0.38772 0.90088 0.0
Zn47 Zn 0.82944 0.42801 0.89997 0.0
O48 O 0.8381 0.43665 0.95764 0.0
O49 O 0.83895 0.48074 0.96927 0.0
O50 O 0.866 0.4292 0.88227 0.0
O51 O 0.87505 0.4759 0.89846 0.0
O52 O 0.81913 0.4924 0.8867 0.0
O53 O 0.81755 0.45198 0.85918 0.0
C54 C 0.84095 0.45748 0.98052 0.0
C55 C 0.81403 0.47596 0.85824 0.0
C56 C 0.38314 0.88183 0.04947 0.0
C57 C 0.36941 0.78349 0.09359 0.0
O58 O 0.35898 0.8677 0.07002 0.0
Zn59 Zn 0.33554 0.82469 0.0996 0.0
O60 O 0.39926 0.86902 0.04241 0.0
Zn61 Zn 0.37496 0.83115 0.06991 0.0
O62 O 0.33131 0.80524 0.04125 0.0
O63 O 0.29433 0.80279 0.07718 0.0
O64 O 0.38904 0.80159 0.07 0.0
O65 O 0.34846 0.78902 0.10636 0.0
O66 O 0.33949 0.83891 0.14954 0.0
O67 O 0.38395 0.84621 0.12625 0.0
C68 C 0.30236 0.79612 0.04713 0.0
C69 C 0.36834 0.84755 0.15347 0.0
C70 C 0.49588 0.30329 0.22128 0.0
C71 C 0.51427 0.3682 0.32861 0.0
O72 O 0.51478 0.33223 0.21403 0.0
Zn73 Zn 0.53451 0.37571 0.24402 0.0
O74 O 0.4841 0.29556 0.25295 0.0
Zn75 Zn 0.50375 0.33659 0.27396 0.0
O76 O 0.48206 0.35994 0.24651 0.0
O77 O 0.52115 0.40021 0.21889 0.0
O78 O 0.49471 0.33931 0.32455 0.0
O79 O 0.53036 0.38441 0.30115 0.0
O80 O 0.578 0.3915 0.24111 0.0
O81 O 0.55327 0.34978 0.27654 0.0
C82 C 0.4923 0.38455 0.22662 0.0
C83 C 0.57875 0.37182 0.26264 0.0
C84 C 0.49258 0.80197 0.48735 0.0
C85 C 0.46215 0.8484 0.38815 0.0
O86 O 0.47034 0.80699 0.49583 0.0
Zn87 Zn 0.44513 0.82701 0.47212 0.0
O88 O 0.50541 0.81011 0.45612 0.0
Zn89 Zn 0.47963 0.82684 0.43726 0.0
O90 O 0.49548 0.86859 0.46878 0.0
O91 O 0.4554 0.86269 0.50176 0.0
O92 O 0.48406 0.8419 0.38699 0.0
O93 O 0.44692 0.84423 0.41792 0.0
O94 O 0.40313 0.79251 0.47402 0.0
O95 O 0.4332 0.78666 0.43369 0.0
C96 C 0.48386 0.87919 0.49219 0.0
C97 C 0.40643 0.77672 0.44893 0.0
C98 C 0.60371 0.45686 0.566 0.0
C99 C 0.67954 0.47873 0.66383 0.0
O100 O 0.59076 0.44574 0.59697 0.0
Zn101 Zn 0.60507 0.44514 0.65255 0.0
O102 O 0.63339 0.47366 0.56418 0.0
Zn103 Zn 0.64151 0.47024 0.6154 0.0
O104 O 0.62398 0.42031 0.61844 0.0
O105 O 0.58595 0.40115 0.65945 0.0
O106 O 0.68449 0.4879 0.63089 0.0
O107 O 0.65124 0.46299 0.67551 0.0
O108 O 0.58651 0.46455 0.67893 0.0
O109 O 0.62414 0.49762 0.64238 0.0
C110 C 0.6023 0.39693 0.6359 0.0
C111 C 0.60255 0.49183 0.66584 0.0
C112 C 0.17817 0.66311 0.8429 0.0
C113 C 0.14828 0.61206 0.72362 0.0
O114 O 0.17774 0.63697 0.84261 0.0
Zn115 Zn 0.16393 0.59879 0.80462 0.0
O116 O 0.16862 0.67131 0.81513 0.0
Zn117 Zn 0.16001 0.63606 0.7844 0.0
O118 O 0.11693 0.59855 0.8069 0.0
O119 O 0.12886 0.56363 0.82604 0.0
O120 O 0.14932 0.63713 0.73371 0.0
O121 O 0.153 0.5957 0.74722 0.0
O122 O 0.20066 0.59609 0.80259 0.0
O123 O 0.20621 0.63993 0.7794 0.0
C124 C 0.10871 0.57207 0.82187 0.0
C125 C 0.21773 0.62239 0.78739 0.0
C126 C 0.48935 0.1023 0.97738 0.0
C127 C 0.57193 0.21005 0.96246 0.0
O128 O 0.47875 0.11943 0.96484 0.0
Zn129 Zn 0.49789 0.16738 0.94825 0.0
O130 O 0.51849 0.11426 0.98326 0.0
Zn131 Zn 0.531 0.15622 0.96914 0.0
O132 O 0.50888 0.171 1.00913 0.0
O133 O 0.47692 0.18252 0.97942 0.0
O134 O 0.57438 0.18724 0.97438 0.0
O135 O 0.54522 0.20569 0.95206 0.0
O136 O 0.48982 0.1645 0.89634 0.0
O137 O 0.52659 0.15355 0.91093 0.0
C138 C 0.48917 0.18072 1.00916 0.0
C139 C 0.51008 0.15727 0.88663 0.0
C140 C 0.39695 0.50829 0.15514 0.0
C141 C 0.38379 0.59862 0.15081 0.0
O142 O 0.37374 0.50315 0.13464 0.0
Zn143 Zn 0.35265 0.52984 0.11581 0.0
O144 O 0.41323 0.53475 0.17017 0.0
Zn145 Zn 0.39033 0.55361 0.15307 0.0
O146 O 0.34545 0.52627 0.17803 0.0
O147 O 0.30974 0.50627 0.13457 0.0
O148 O 0.40256 0.59469 0.17079 0.0
O149 O 0.36466 0.57673 0.12964 0.0
O150 O 0.36126 0.53448 0.0632 0.0
O151 O 0.40333 0.56238 0.09669 0.0
C152 C 0.31676 0.50987 0.16829 0.0
C153 C 0.39046 0.55413 0.06522 0.0
C154 C 0.79255 0.3104 0.33559 0.0
C155 C 0.83082 0.38176 0.23116 0.0
O156 O 0.80439 0.33904 0.34534 0.0
Zn157 Zn 0.82724 0.38414 0.3187 0.0
O158 O 0.79375 0.30412 0.30225 0.0
Zn159 Zn 0.81401 0.3463 0.28377 0.0
O160 O 0.86157 0.36702 0.30435 0.0
O161 O 0.86779 0.40609 0.33909 0.0
O162 O 0.81965 0.35236 0.23136 0.0
O163 O 0.83489 0.39609 0.26156 0.0
O164 O 0.80079 0.40005 0.33157 0.0
O165 O 0.77867 0.35953 0.29434 0.0
C166 C 0.87883 0.39024 0.32517 0.0
C167 C 0.77725 0.3807 0.31312 0.0
H168 H 0.24145 0.61879 0.45449 0.0
H169 H 0.24062 0.62385 0.33648 0.0
H170 H 0.29302 0.67163 0.33767 0.0
H171 H 0.2767 0.70197 0.46823 0.0
H172 H 0.29895 0.70256 0.50753 0.0
H173 H 0.2623 0.66795 0.4971 0.0
H174 H 0.29019 0.63538 0.49653 0.0
H175 H 0.32698 0.66993 0.50671 0.0
H176 H 0.32346 0.64694 0.46702 0.0
H177 H 0.3462 0.71667 0.35173 0.0
H178 H 0.39387 0.76121 0.37781 0.0
H179 H 0.35751 0.73013 0.48696 0.0
C180 C 0.25247 0.63004 0.42899 0.0
C181 C 0.23753 0.61783 0.39535 0.0
C182 C 0.25201 0.63314 0.36243 0.0
C183 C 0.2817 0.66005 0.36287 0.0
C184 C 0.29601 0.6715 0.39652 0.0
C185 C 0.28164 0.6574 0.42902 0.0
C186 C 0.3012 0.67557 0.46151 0.0
C187 C 0.28374 0.68774 0.48496 0.0
C188 C 0.31104 0.65577 0.48427 0.0
C189 C 0.32896 0.70197 0.44218 0.0
C190 C 0.32574 0.69881 0.40471 0.0
C191 C 0.34888 0.7196 0.381 0.0
C192 C 0.37587 0.74464 0.39601 0.0
C193 C 0.37903 0.74891 0.43424 0.0
C194 C 0.35536 0.72735 0.45762 0.0
H195 H 0.63164 0.26249 0.56289 0.0
H196 H 0.53074 0.20214 0.55926 0.0
H197 H 0.52399 0.24616 0.57904 0.0
H198 H 0.63593 0.30362 0.64051 0.0
H199 H 0.66656 0.34125 0.62493 0.0
H200 H 0.6638 0.30613 0.60694 0.0
H201 H 0.6608 0.32343 0.54102 0.0
H202 H 0.66436 0.35904 0.55869 0.0
H203 H 0.63172 0.33399 0.52985 0.0
H204 H 0.52859 0.29405 0.60823 0.0
H205 H 0.54383 0.34611 0.63334 0.0
H206 H 0.64162 0.3765 0.61314 0.0
C207 C 0.60816 0.25887 0.5653 0.0
C208 C 0.58168 0.22913 0.55954 0.0
C209 C 0.55127 0.22495 0.56311 0.0
C210 C 0.54724 0.2497 0.57462 0.0
C211 C 0.57388 0.27848 0.58152 0.0
C212 C 0.60374 0.28346 0.57592 0.0
C213 C 0.62845 0.31652 0.58567 0.0
C214 C 0.64994 0.31687 0.61633 0.0
C215 C 0.64745 0.3343 0.55179 0.0
C216 C 0.60783 0.32904 0.59877 0.0
C217 C 0.57645 0.30662 0.59654 0.0
C218 C 0.55304 0.31201 0.60942 0.0
C219 C 0.56191 0.34145 0.62401 0.0
C220 C 0.59383 0.36512 0.625 0.0
C221 C 0.61704 0.35877 0.61237 0.0
H222 H 0.24227 0.58464 0.77715 0.0
H223 H 0.26683 0.68204 0.77754 0.0
H224 H 0.32223 0.69775 0.76522 0.0
H225 H 0.30986 0.5939 0.82132 0.0
H226 H 0.31258 0.56505 0.7941 0.0
H227 H 0.27505 0.56184 0.80175 0.0
H228 H 0.26611 0.56059 0.7319 0.0
H229 H 0.30363 0.56377 0.72402 0.0
H230 H 0.29484 0.59171 0.70376 0.0
H231 H 0.37546 0.7024 0.75751 0.0
H232 H 0.42165 0.69565 0.75102 0.0
H233 H 0.36072 0.59497 0.75244 0.0
C234 C 0.25928 0.6093 0.77455 0.0
C235 C 0.25047 0.6322 0.77851 0.0
C236 C 0.27324 0.66418 0.77451 0.0
C237 C 0.30467 0.67328 0.76759 0.0
C238 C 0.31261 0.65002 0.76418 0.0
C239 C 0.29045 0.61868 0.76711 0.0
C240 C 0.30482 0.59819 0.76243 0.0
C241 C 0.30031 0.5786 0.79696 0.0
C242 C 0.29156 0.57734 0.7285 0.0
C243 C 0.33872 0.62288 0.75711 0.0
C244 C 0.34284 0.65265 0.75832 0.0
C245 C 0.37246 0.67921 0.75604 0.0
C246 C 0.3985 0.67515 0.75251 0.0
C247 C 0.39461 0.6448 0.75094 0.0
C248 C 0.36431 0.61843 0.75296 0.0
H249 H 0.75067 0.33327 0.92279 0.0
H250 H 0.72603 0.40599 0.9277 0.0
H251 H 0.67136 0.36625 0.94263 0.0
H252 H 0.68004 0.27438 0.8821 0.0
H253 H 0.67882 0.24292 0.9083 0.0
H254 H 0.71588 0.27718 0.89824 0.0
H255 H 0.72888 0.28508 0.9673 0.0
H256 H 0.69177 0.2509 0.9776 0.0
H257 H 0.70202 0.28784 0.9983 0.0
H258 H 0.61912 0.31833 0.95383 0.0
H259 H 0.57313 0.2657 0.96287 0.0
H260 H 0.63288 0.22495 0.95393 0.0
C261 C 0.73376 0.34083 0.9269 0.0
C262 C 0.74242 0.37261 0.9239 0.0
C263 C 0.71978 0.3817 0.92991 0.0
C264 C 0.68874 0.35934 0.93838 0.0
C265 C 0.68099 0.32818 0.94119 0.0
C266 C 0.70288 0.31895 0.93588 0.0
C267 C 0.68861 0.28405 0.94066 0.0
C268 C 0.69098 0.26874 0.90522 0.0
C269 C 0.70372 0.27654 0.97289 0.0
C270 C 0.6551 0.27496 0.94897 0.0
C271 C 0.65116 0.30074 0.94903 0.0
C272 C 0.62195 0.29801 0.95425 0.0
C273 C 0.59602 0.26808 0.95926 0.0
C274 C 0.59963 0.24143 0.95938 0.0
C275 C 0.6296 0.24501 0.95459 0.0
H276 H 0.37215 0.73715 0.05692 0.0
H277 H 0.37363 0.77291 0.16515 0.0
H278 H 0.38054 0.73082 0.19217 0.0
H279 H 0.32595 0.65649 0.0823 0.0
H280 H 0.34559 0.64363 0.05141 0.0
H281 H 0.34315 0.67789 0.04079 0.0
H282 H 0.40365 0.71028 0.03479 0.0
H283 H 0.40625 0.67612 0.04559 0.0
H284 H 0.42775 0.71117 0.07227 0.0
H285 H 0.38875 0.68555 0.20684 0.0
H286 H 0.39087 0.63647 0.20866 0.0
H287 H 0.37869 0.628 0.09132 0.0
C288 C 0.37408 0.73604 0.08625 0.0
C289 C 0.37258 0.75801 0.10915 0.0
C290 C 0.37466 0.75595 0.14742 0.0
C291 C 0.37877 0.73234 0.1629 0.0
C292 C 0.3801 0.71082 0.13962 0.0
C293 C 0.37729 0.71214 0.10218 0.0
C294 C 0.37725 0.68496 0.08343 0.0
C295 C 0.34613 0.66453 0.06331 0.0
C296 C 0.40541 0.69632 0.0575 0.0
C297 C 0.38053 0.6682 0.11614 0.0
C298 C 0.38276 0.68375 0.14826 0.0
C299 C 0.38678 0.67301 0.18192 0.0
C300 C 0.38807 0.64532 0.18272 0.0
C301 C 0.3846 0.62861 0.1502 0.0
C302 C 0.38098 0.64029 0.1166 0.0
H303 H 0.71785 0.33635 0.29229 0.0
H304 H 0.77313 0.43187 0.33092 0.0
H305 H 0.72712 0.43857 0.32516 0.0
H306 H 0.67416 0.34965 0.22638 0.0
H307 H 0.63779 0.31399 0.23479 0.0
H308 H 0.67448 0.31575 0.24397 0.0
H309 H 0.65717 0.29829 0.3107 0.0
H310 H 0.62031 0.29631 0.30168 0.0
H311 H 0.64472 0.32003 0.33863 0.0
H312 H 0.67783 0.43707 0.30918 0.0
H313 H 0.62556 0.42589 0.28865 0.0
H314 H 0.6002 0.33026 0.26457 0.0
C315 C 0.72012 0.35854 0.29987 0.0
C316 C 0.74902 0.38363 0.31195 0.0
C317 C 0.75115 0.41231 0.32176 0.0
C318 C 0.72519 0.41636 0.31855 0.0
C319 C 0.69718 0.39134 0.30612 0.0
C320 C 0.69424 0.36283 0.29745 0.0
C321 C 0.66145 0.33997 0.28422 0.0
C322 C 0.66202 0.32923 0.24501 0.0
C323 C 0.64494 0.31199 0.31037 0.0
C324 C 0.64677 0.36047 0.28577 0.0
C325 C 0.66793 0.39003 0.29842 0.0
C326 C 0.66084 0.4139 0.29984 0.0
C327 C 0.63128 0.40742 0.28796 0.0
C328 C 0.60917 0.37726 0.27538 0.0
C329 C 0.61675 0.35335 0.27466 0.0
H330 H 0.15862 0.56825 0.69062 0.0
H331 H 0.12764 0.6347 0.66835 0.0
H332 H 0.122 0.62047 0.60307 0.0
H333 H 0.20487 0.58439 0.61083 0.0
H334 H 0.19554 0.54457 0.6039 0.0
H335 H 0.19489 0.55823 0.64919 0.0
H336 H 0.13754 0.51347 0.65739 0.0
H337 H 0.138 0.49964 0.61208 0.0
H338 H 0.10831 0.50897 0.62462 0.0
H339 H 0.12174 0.60059 0.54 0.0
H340 H 0.12825 0.57784 0.4833 0.0
H341 H 0.16045 0.52481 0.54609 0.0
C342 C 0.1502 0.5795 0.67213 0.0
C343 C 0.14332 0.60246 0.68471 0.0
C344 C 0.13295 0.61701 0.65943 0.0
C345 C 0.12962 0.60902 0.6223 0.0
C346 C 0.13687 0.58652 0.6108 0.0
C347 C 0.14701 0.57201 0.63493 0.0
C348 C 0.15481 0.5498 0.61523 0.0
C349 C 0.18959 0.55986 0.62008 0.0
C350 C 0.13338 0.51596 0.6281 0.0
C351 C 0.14768 0.55424 0.57616 0.0
C352 C 0.13716 0.57537 0.5743 0.0
C353 C 0.12981 0.58391 0.54116 0.0
C354 C 0.13362 0.57081 0.50904 0.0
C355 C 0.1448 0.54941 0.51008 0.0
C356 C 0.15162 0.54087 0.54428 0.0
H357 H 0.60935 0.16186 0.7117 0.0
H358 H 0.52661 0.1386 0.64714 0.0
H359 H 0.49778 0.13586 0.70287 0.0
H360 H 0.56684 0.11069 0.78878 0.0
H361 H 0.59305 0.13772 0.82239 0.0
H362 H 0.60732 0.13704 0.77737 0.0
H363 H 0.62705 0.19616 0.77012 0.0
H364 H 0.61271 0.19698 0.81502 0.0
H365 H 0.59997 0.2102 0.77627 0.0
H366 H 0.47865 0.13926 0.76463 0.0
H367 H 0.46945 0.1446 0.82984 0.0
H368 H 0.56309 0.16297 0.85534 0.0
C369 C 0.5851 0.15588 0.70936 0.0
C370 C 0.57035 0.15046 0.67491 0.0
C371 C 0.53853 0.14277 0.6731 0.0
C372 C 0.52187 0.14121 0.70464 0.0
C373 C 0.53712 0.14706 0.73803 0.0
C374 C 0.56787 0.15388 0.74077 0.0
C375 C 0.57859 0.15927 0.78021 0.0
C376 C 0.58694 0.13471 0.79293 0.0
C377 C 0.60621 0.19264 0.78571 0.0
C378 C 0.54919 0.15479 0.79894 0.0
C379 C 0.52563 0.14796 0.77404 0.0
C380 C 0.49677 0.14422 0.78452 0.0
C381 C 0.49178 0.14741 0.82154 0.0
C382 C 0.5154 0.15388 0.84763 0.0
C383 C 0.54441 0.15752 0.83607 0.0
H384 H 0.37308 0.54294 0.99229 0.0
H385 H 0.4515 0.60085 0.06339 0.0
H386 H 0.48322 0.62947 1.01012 0.0
H387 H 0.42017 0.53811 0.91829 0.0
H388 H 0.39568 0.53984 0.88293 0.0
H389 H 0.37905 0.52309 0.92668 0.0
H390 H 0.35826 0.56166 0.93302 0.0
H391 H 0.37494 0.57859 0.88938 0.0
H392 H 0.38521 0.60307 0.92923 0.0
H393 H 0.50586 0.65428 0.94963 0.0
H394 H 0.51857 0.67107 0.88526 0.0
H395 H 0.42677 0.59614 0.85275 0.0
C396 C 0.397 0.56142 0.99661 0.0
C397 C 0.40967 0.56951 0.0322 0.0
C398 C 0.44112 0.59401 0.03654 0.0
C399 C 0.45943 0.61055 1.00639 0.0
C400 C 0.44619 0.60228 0.97182 0.0
C401 C 0.41582 0.57812 0.96665 0.0
C402 C 0.40736 0.5742 0.92645 0.0
C403 C 0.40015 0.54189 0.91279 0.0
C404 C 0.37981 0.57972 0.9191 0.0
C405 C 0.43759 0.60006 0.91005 0.0
C406 C 0.45963 0.61608 0.93673 0.0
C407 C 0.48891 0.6417 0.92842 0.0
C408 C 0.49591 0.65114 0.89181 0.0
C409 C 0.47385 0.6348 0.86392 0.0
C410 C 0.44435 0.60887 0.87336 0.0
H411 H 0.82392 0.35929 0.16087 0.0
H412 H 0.85254 0.44427 0.22255 0.0
H413 H 0.8606 0.47343 0.1652 0.0
H414 H 0.87889 0.39628 0.08518 0.0
H415 H 0.85122 0.37104 0.05141 0.0
H416 H 0.84921 0.35708 0.09732 0.0
H417 H 0.79124 0.3433 0.10176 0.0
H418 H 0.79311 0.35727 0.05594 0.0
H419 H 0.78133 0.37315 0.09284 0.0
H420 H 0.86211 0.49278 0.10124 0.0
H421 H 0.85869 0.50099 0.0352 0.0
H422 H 0.83058 0.40396 1.01509 0.0
C423 C 0.83224 0.3841 0.16233 0.0
C424 C 0.83762 0.39943 0.19634 0.0
C425 C 0.8483 0.43193 0.19693 0.0
C426 C 0.85297 0.44875 0.16446 0.0
C427 C 0.84707 0.43287 0.13147 0.0
C428 C 0.83715 0.40132 0.13012 0.0
C429 C 0.83172 0.3897 0.09109 0.0
C430 C 0.8541 0.37783 0.08064 0.0
C431 C 0.79731 0.36436 0.08507 0.0
C432 C 0.83973 0.41953 0.0708 0.0
C433 C 0.84852 0.44418 0.09457 0.0
C434 C 0.8556 0.47373 0.08231 0.0
C435 C 0.85355 0.47818 0.04477 0.0
C436 C 0.84466 0.45324 1.01991 0.0
C437 C 0.83792 0.42365 0.03327 0.0
H438 H 0.41593 0.83954 0.17845 0.0
H439 H 0.35314 0.87259 0.21118 0.0
H440 H 0.37552 0.88238 0.27345 0.0
H441 H 0.40717 0.79735 0.25863 0.0
H442 H 0.44699 0.8052 0.25989 0.0
H443 H 0.42921 0.80495 0.21695 0.0
H444 H 0.47457 0.86104 0.20349 0.0
H445 H 0.49248 0.8615 0.24652 0.0
H446 H 0.48354 0.89177 0.2359 0.0
H447 H 0.40182 0.88497 0.33269 0.0
H448 H 0.42715 0.87679 0.38608 0.0
H449 H 0.47173 0.84001 0.31575 0.0
C450 C 0.40748 0.84964 0.19848 0.0
C451 C 0.3832 0.85591 0.18989 0.0
C452 C 0.37193 0.86796 0.21715 0.0
C453 C 0.38459 0.87368 0.25249 0.0
C454 C 0.40827 0.86691 0.26018 0.0
C455 C 0.41946 0.85494 0.23401 0.0
C456 C 0.44266 0.84663 0.25023 0.0
C457 C 0.43079 0.81145 0.24619 0.0
C458 C 0.47525 0.86643 0.23301 0.0
C459 C 0.44256 0.85549 0.28979 0.0
C460 C 0.42285 0.86752 0.29474 0.0
C461 C 0.41752 0.87586 0.32908 0.0
C462 C 0.43204 0.8711 0.35927 0.0
C463 C 0.4516 0.85792 0.35513 0.0
C464 C 0.45743 0.85068 0.31974 0.0
H465 H 0.56978 0.41527 0.35483 0.0
H466 H 0.4731 0.3522 0.38539 0.0
H467 H 0.48464 0.37334 0.44815 0.0
H468 H 0.60183 0.40473 0.43492 0.0
H469 H 0.63394 0.44437 0.43762 0.0
H470 H 0.61713 0.42781 0.39402 0.0
H471 H 0.60674 0.47341 0.38185 0.0
H472 H 0.62352 0.49016 0.42551 0.0
H473 H 0.58442 0.48161 0.41438 0.0
H474 H 0.5073 0.39848 0.50808 0.0
H475 H 0.53992 0.42235 0.56241 0.0
H476 H 0.62295 0.46739 0.49401 0.0
C477 C 0.55088 0.40654 0.37453 0.0
C478 C 0.52039 0.38251 0.36522 0.0
C479 C 0.49651 0.37081 0.39197 0.0
C480 C 0.50284 0.38277 0.42759 0.0
C481 C 0.53325 0.40617 0.43606 0.0
C482 C 0.55696 0.41779 0.41039 0.0
C483 C 0.58829 0.44041 0.4275 0.0
C484 C 0.61166 0.42861 0.42327 0.0
C485 C 0.60152 0.47336 0.41134 0.0
C486 C 0.5786 0.43932 0.46696 0.0
C487 C 0.54666 0.41985 0.4711 0.0
C488 C 0.53229 0.41396 0.50514 0.0
C489 C 0.5511 0.42769 0.53588 0.0
C490 C 0.58407 0.44686 0.53259 0.0
C491 C 0.59782 0.4532 0.49747 0.0
H492 H 0.92635 0.44921 0.33543 0.0
H493 H 0.90565 0.35318 0.3294 0.0
H494 H 0.96133 0.37064 0.34347 0.0
H495 H 0.00181 0.4828 0.2917 0.0
H496 H 0.01847 0.51753 0.31942 0.0
H497 H 0.97717 0.49694 0.3095 0.0
H498 H 0.96483 0.49205 0.37875 0.0
H499 H 0.00607 0.51249 0.38891 0.0
H500 H 0.98086 0.47435 0.40822 0.0
H501 H 0.01921 0.3994 0.36234 0.0
H502 H 0.07478 0.43702 0.37732 0.0
H503 H 0.05647 0.51365 0.36573 0.0
C504 C 0.93351 0.43182 0.33713 0.0
C505 C 0.91185 0.39987 0.33181 0.0
C506 C 0.92207 0.37781 0.3335 0.0
C507 C 0.95352 0.3875 0.34158 0.0
C508 C 0.97429 0.41931 0.34708 0.0
C509 C 0.96468 0.44111 0.3443 0.0
C510 C -0.00857 0.47396 0.35014 0.0
C511 C -0.00242 0.49398 0.31563 0.0
C512 C 0.98543 0.48908 0.38349 0.0
C513 C 0.01768 0.46737 0.35717 0.0
C514 C 0.00743 0.43575 0.35575 0.0
C515 C 0.02753 0.42422 0.36305 0.0
C516 C 0.05893 0.44566 0.37167 0.0
C517 C 0.06981 0.47814 0.37223 0.0
C518 C 0.04885 0.48896 0.36489 0.0
H519 H 0.46411 0.91943 0.51214 0.0
H520 H 0.54719 0.9111 0.50239 0.0
H521 H 0.58005 0.96614 0.52192 0.0
H522 H 0.49784 -0.00597 0.47332 0.0
H523 H 0.47732 0.0075 0.50192 0.0
H524 H 0.46011 0.96651 0.49215 0.0
H525 H 0.45523 0.95414 0.56139 0.0
H526 H 0.47233 -0.00485 0.5714 0.0
H527 H 0.48952 0.97342 0.58993 0.0
H528 H 0.6038 0.02269 0.54044 0.0
H529 H 0.61699 0.07738 0.55137 0.0
H530 H 0.51852 0.04899 0.54387 0.0
C531 C 0.48914 0.92902 0.51495 0.0
C532 C 0.50319 0.91109 0.50635 0.0
C533 C 0.53608 0.92457 0.50915 0.0
C534 C 0.55485 0.95569 0.52033 0.0
C535 C 0.54032 0.97297 0.5281 0.0
C536 C 0.50823 0.96016 0.52525 0.0
C537 C 0.49866 0.98439 0.53165 0.0
C538 C 0.48255 0.98833 0.49774 0.0
C539 C 0.4777 0.97629 0.56562 0.0
C540 C 0.5304 0.01294 0.53802 0.0
C541 C 0.5541 0.00581 0.53663 0.0
C542 C 0.58543 0.02855 0.54163 0.0
C543 C 0.5927 0.05945 0.54785 0.0
C544 C 0.56876 0.06725 0.54816 0.0
C545 C 0.53728 0.04364 0.54343 0.0
H546 H 0.4873 0.55221 0.72509 0.0
H547 H 0.56575 0.64701 0.71819 0.0
H548 H 0.6006 0.6266 0.70079 0.0
H549 H 0.53102 0.5189 0.76479 0.0
H550 H 0.50941 0.48256 0.74043 0.0
H551 H 0.49088 0.50486 0.75186 0.0
H552 H 0.47725 0.50581 0.68372 0.0
H553 H 0.49575 0.48354 0.67209 0.0
H554 H 0.5081 0.52056 0.65012 0.0
H555 H 0.62605 0.59536 0.68054 0.0
H556 H 0.64071 0.55568 0.6643 0.0
H557 H 0.54609 0.48202 0.68902 0.0
C558 C 0.51181 0.56868 0.7199 0.0
C559 C 0.52385 0.60115 0.72274 0.0
C560 C 0.55612 0.62199 0.7162 0.0
C561 C 0.57604 0.61064 0.70621 0.0
C562 C 0.56337 0.57842 0.70349 0.0
C563 C 0.53207 0.55776 0.7106 0.0
C564 C 0.52432 0.52423 0.70661 0.0
C565 C 0.51327 0.50661 0.7431 0.0
C566 C 0.49992 0.50757 0.67633 0.0
C567 C 0.55605 0.52921 0.69575 0.0
C568 C 0.57827 0.56058 0.69371 0.0
C569 C 0.60893 0.57071 0.6825 0.0
C570 C 0.61704 0.5481 0.67326 0.0
C571 C 0.59465 0.51589 0.67592 0.0
C572 C 0.56388 0.5065 0.68742 0.0
H573 H 0.06128 0.58568 0.83126 0.0
H574 H 0.08196 0.51015 0.83751 0.0
H575 H 0.02726 0.47357 0.85452 0.0
H576 H 0.00838 0.56026 0.90898 0.0
H577 H 0.98215 0.5715 0.88887 0.0
H578 H 0.02309 0.59218 0.87687 0.0
H579 H 0.00845 0.58061 0.80856 0.0
H580 H 0.96748 0.55984 0.82035 0.0
H581 H 0.98383 0.54075 0.79393 0.0
H582 H 0.97074 0.4447 0.86813 0.0
H583 H 0.91519 0.42519 0.88187 0.0
H584 H 0.93022 0.51915 0.87022 0.0
C585 C 0.05425 0.56145 0.83625 0.0
C586 C 0.0759 0.55076 0.83297 0.0
C587 C 0.06587 0.51892 0.83996 0.0
C588 C 0.03481 0.49791 0.84955 0.0
C589 C 0.01408 0.5091 0.85243 0.0
C590 C 0.02329 0.54011 0.84638 0.0
C591 C -0.00389 0.54586 0.852 0.0
C592 C 0.00284 0.56881 0.88356 0.0
C593 C 0.98852 0.55745 0.8166 0.0
C594 C 0.97023 0.51316 0.86182 0.0
C595 C 0.98122 0.49239 0.86161 0.0
C596 C 0.96183 0.46071 0.86865 0.0
C597 C 0.93027 0.44986 0.87628 0.0
C598 C 0.9184 0.47066 0.87719 0.0
C599 C 0.93873 0.50278 0.86999 0.0
H600 H 0.50402 0.05629 0.98819 0.0
H601 H 0.4257 0.07304 0.98481 0.0
H602 H 0.38954 0.01767 1.0003 0.0
H603 H 0.46235 0.97842 0.94819 0.0
H604 H 0.48199 0.9637 0.97646 0.0
H605 H 0.50159 0.00447 0.96414 0.0
H606 H 0.51085 0.0197 0.0325 0.0
H607 H 0.49131 0.97903 0.04502 0.0
H608 H 0.4779 0.00408 0.06327 0.0
H609 H 0.36257 0.9616 1.02031 0.0
H610 H 0.3462 0.90788 0.04055 0.0
H611 H 0.44168 0.92705 0.02775 0.0
C612 C 0.47924 0.04828 0.99056 0.0
C613 C 0.46765 0.06896 0.98542 0.0
C614 C 0.43507 0.05756 0.98854 0.0
C615 C 0.41436 0.02618 0.99735 0.0
C616 C 0.42658 0.00646 1.00244 0.0
C617 C 0.45821 0.01697 0.99884 0.0
C618 C 0.46534 0.99102 1.00598 0.0
C619 C 0.4786 0.98399 0.97164 0.0
C620 C 0.48766 -0.00106 0.03864 0.0
C621 C 0.43285 0.96442 1.01485 0.0
C622 C 0.41084 0.97383 1.01272 0.0
C623 C 0.3795 0.95383 1.02161 0.0
C624 C 0.37046 0.92343 0.03316 0.0
C625 C 0.39263 0.91329 0.03536 0.0
C626 C 0.42414 0.93401 0.0257 0.0
H627 H 0.45453 0.51619 0.16815 0.0
H628 H 0.35674 0.44499 0.1575 0.0
H629 H 0.37 0.40424 0.17367 0.0
H630 H 0.48578 0.46986 0.12896 0.0
H631 H 0.51913 0.48634 0.15908 0.0
H632 H 0.50151 0.50913 0.14584 0.0
H633 H 0.49405 0.51787 0.214 0.0
H634 H 0.51146 0.49497 0.22743 0.0
H635 H 0.4729 0.48452 0.24356 0.0
H636 H 0.39436 0.37214 0.19651 0.0
H637 H 0.42819 0.35126 0.21754 0.0
H638 H 0.50959 0.44409 0.20851 0.0
C639 C 0.43593 0.49199 0.16901 0.0
C640 C 0.40465 0.4836 0.16186 0.0
C641 C 0.38092 0.45174 0.16281 0.0
C642 C 0.38821 0.42853 0.17208 0.0
C643 C 0.41938 0.4377 0.17953 0.0
C644 C 0.44287 0.46866 0.17741 0.0
C645 C 0.47453 0.47266 0.18624 0.0
C646 C 0.49653 0.48523 0.15305 0.0
C647 C 0.48907 0.49374 0.2198 0.0
C648 C 0.46522 0.43922 0.19448 0.0
C649 C 0.43335 0.41928 0.19076 0.0
C650 C 0.41941 0.38748 0.19896 0.0
C651 C 0.43871 0.37586 0.21099 0.0
C652 C 0.47147 0.39601 0.21417 0.0
C653 C 0.48468 0.42799 0.2057 0.0
H654 H 0.1913 0.51585 0.29644 0.0
H655 H 0.21598 0.46872 0.37873 0.0
H656 H 0.24681 0.4591 0.3328 0.0
H657 H 0.18693 0.46615 0.2179 0.0
H658 H 0.20381 0.49901 0.18707 0.0
H659 H 0.18035 0.49845 0.22508 0.0
H660 H 0.22608 0.55161 0.24714 0.0
H661 H 0.24962 0.55234 0.20932 0.0
H662 H 0.26396 0.55559 0.25526 0.0
H663 H 0.28113 0.46177 0.28081 0.0
H664 H 0.31501 0.47511 0.22627 0.0
H665 H 0.26639 0.51826 0.17663 0.0
C666 C 0.20255 0.50283 0.30469 0.0
C667 C 0.20107 0.49293 0.34128 0.0
C668 C 0.21656 0.47637 0.3509 0.0
C669 C 0.23411 0.47076 0.32495 0.0
C670 C 0.23566 0.48151 0.28936 0.0
C671 C 0.22002 0.49694 0.27912 0.0
C672 C 0.2274 0.50825 0.23993 0.0
C673 C 0.19786 0.49199 0.21609 0.0
C674 C 0.24268 0.54406 0.23782 0.0
C675 C 0.25047 0.4977 0.23001 0.0
C676 C 0.25475 0.48214 0.25888 0.0
C677 C 0.27735 0.47312 0.25772 0.0
C678 C 0.29644 0.48075 0.22668 0.0
C679 C 0.29258 0.49683 0.197 0.0
C680 C 0.26888 0.50481 0.19839 0.0
H681 H 0.7875 0.31582 0.40953 0.0
H682 H 0.75728 0.24755 0.32226 0.0
H683 H 0.72281 0.20615 0.36541 0.0
H684 H 0.78502 0.26276 0.48364 0.0
H685 H 0.77085 0.27978 0.51656 0.0
H686 H 0.79603 0.30335 0.4799 0.0
H687 H 0.75453 0.318 0.46049 0.0
H688 H 0.72922 0.29443 0.49688 0.0
H689 H 0.71516 0.28736 0.45054 0.0
H690 H 0.68586 0.1741 0.41508 0.0
H691 H 0.65157 0.15287 0.46923 0.0
H692 H 0.70764 0.24066 0.52566 0.0
C693 C 0.77421 0.29204 0.39965 0.0
C694 C 0.77518 0.28497 0.36245 0.0
C695 C 0.75712 0.25358 0.35061 0.0
C696 C 0.73744 0.22987 0.37494 0.0
C697 C 0.73642 0.23779 0.41118 0.0
C698 C 0.75466 0.26803 0.42366 0.0
C699 C 0.74774 0.27068 0.46339 0.0
C700 C 0.77663 0.27967 0.48728 0.0
C701 C 0.73596 0.29399 0.46807 0.0
C702 C 0.72198 0.23744 0.47094 0.0
C703 C 0.71588 0.21884 0.44044 0.0
C704 C 0.69096 0.18817 0.43943 0.0
C705 C 0.67159 0.17633 0.47021 0.0
C706 C 0.6775 0.19494 0.5017 0.0
C707 C 0.70334 0.22567 0.50229 0.0
H708 H 0.4625 0.68806 0.65394 0.0
H709 H 0.56144 0.74256 0.67938 0.0
H710 H 0.57029 0.77346 0.62259 0.0
H711 H 0.46833 0.68687 0.55547 0.0
H712 H 0.43477 0.69152 0.54813 0.0
H713 H 0.43712 0.6721 0.58861 0.0
H714 H 0.42986 0.711 0.62896 0.0
H715 H 0.42721 0.73032 0.58864 0.0
H716 H 0.45594 0.7524 0.62311 0.0
H717 H 0.56751 0.7982 0.56185 0.0
H718 H 0.55243 0.81933 0.50892 0.0
H719 H 0.45483 0.75112 0.52798 0.0
C720 C 0.48612 0.70621 0.64727 0.0
C721 C 0.51141 0.71268 0.67057 0.0
C722 C 0.54182 0.7372 0.66164 0.0
C723 C 0.54704 0.75468 0.62939 0.0
C724 C 0.52148 0.74762 0.60687 0.0
C725 C 0.49154 0.72427 0.61588 0.0
C726 C 0.46751 0.723 0.58928 0.0
C727 C 0.45097 0.6915 0.56918 0.0
C728 C 0.44374 0.72959 0.60866 0.0
C729 C 0.48847 0.74935 0.56381 0.0
C730 C 0.51963 0.76291 0.57377 0.0
C731 C 0.54318 0.78774 0.55392 0.0
C732 C 0.53449 0.79946 0.52381 0.0
C733 C 0.50255 0.78673 0.51454 0.0
C734 C 0.47944 0.76117 0.53455 0.0
H735 H 0.76142 0.48038 0.85265 0.0
H736 H 0.8371 0.48389 0.78914 0.0
H737 H 0.81322 0.49019 0.73255 0.0
H738 H 0.70233 0.43237 0.79063 0.0
H739 H 0.67838 0.44988 0.79809 0.0
H740 H 0.7037 0.45044 0.83378 0.0
H741 H 0.73024 0.51074 0.83752 0.0
H742 H 0.70491 0.51036 0.80184 0.0
H743 H 0.74683 0.5339 0.79694 0.0
H744 H 0.78002 0.49435 0.68289 0.0
H745 H 0.73764 0.4903 0.64323 0.0
H746 H 0.68096 0.47882 0.73878 0.0
C747 C 0.77331 0.48334 0.82686 0.0
C748 C 0.80146 0.48253 0.82506 0.0
C749 C 0.81578 0.48505 0.79088 0.0
C750 C 0.80242 0.48867 0.75873 0.0
C751 C 0.77438 0.48904 0.76127 0.0
C752 C 0.75978 0.48605 0.79444 0.0
C753 C 0.72813 0.48364 0.78935 0.0
C754 C 0.70158 0.45221 0.80381 0.0
C755 C 0.72751 0.51131 0.80749 0.0
C756 C 0.72707 0.48548 0.74814 0.0
C757 C 0.75425 0.48925 0.73252 0.0
C758 C 0.75866 0.49142 0.69484 0.0
C759 C 0.73448 0.48918 0.67253 0.0
C760 C 0.70597 0.48418 0.68788 0.0
C761 C 0.70245 0.48258 0.72624 0.0
H762 H 0.30281 0.75351 1.00036 0.0
H763 H 0.2486 0.79694 0.03071 0.0
H764 H 0.21043 0.76756 0.98167 0.0
H765 H 0.29147 0.75127 0.90419 0.0
H766 H 0.28768 0.71335 0.8984 0.0
H767 H 0.31075 0.73815 0.93538 0.0
H768 H 0.27756 0.69415 0.98168 0.0
H769 H 0.25442 0.66917 0.94483 0.0
H770 H 0.23557 0.67707 0.98205 0.0
H771 H 0.18049 0.73609 0.92576 0.0
H772 H 0.15784 0.70052 0.87277 0.0
H773 H 0.22878 0.67386 0.88369 0.0
C774 C 0.28289 0.75682 0.99665 0.0
C775 C 0.27873 0.77768 1.01901 0.0
C776 C 0.25215 0.78104 1.0138 0.0
C777 C 0.23045 0.76455 0.98597 0.0
C778 C 0.23535 0.74427 0.96418 0.0
C779 C 0.26063 0.73993 0.96971 0.0
C780 C 0.26 0.71596 0.94354 0.0
C781 C 0.28921 0.73057 0.91892 0.0
C782 C 0.25668 0.6874 0.96427 0.0
C783 C 0.23068 0.70778 0.922 0.0
C784 C 0.21699 0.72465 0.93393 0.0
C785 C 0.19073 0.7224 0.91662 0.0
C786 C 0.17808 0.70225 0.88654 0.0
C787 C 0.19129 0.68416 0.87465 0.0
C788 C 0.21783 0.68694 0.89277 0.0
H789 H 0.50234 0.31058 0.1469 0.0
H790 H 0.47397 0.24116 0.2329 0.0
H791 H 0.4655 0.20107 0.1872 0.0
H792 H 0.44568 0.25775 0.07886 0.0
H793 H 0.47264 0.27561 0.04144 0.0
H794 H 0.47514 0.29857 0.08075 0.0
H795 H 0.5334 0.31443 0.08925 0.0
H796 H 0.53108 0.29155 0.05002 0.0
H797 H 0.54376 0.28439 0.09325 0.0
H798 H 0.46616 0.17021 0.13326 0.0
H799 H 0.4716 0.14966 0.07378 0.0
H800 H 0.49469 0.23745 1.02204 0.0
C801 C 0.49406 0.28687 0.15604 0.0
C802 C 0.4889 0.279 0.19347 0.0
C803 C 0.47796 0.2477 0.20437 0.0
C804 C 0.47311 0.22477 0.17861 0.0
C805 C 0.47871 0.23336 0.14198 0.0
C806 C 0.48849 0.26354 0.13061 0.0
C807 C 0.4932 0.2667 0.08963 0.0
C808 C 0.47029 0.27515 0.07161 0.0
C809 C 0.52739 0.29068 0.07999 0.0
C810 C 0.48531 0.23378 0.07988 0.0
C811 C 0.47718 0.21496 0.11053 0.0
C812 C 0.47172 0.18445 0.10894 0.0
C813 C 0.47487 0.17299 0.07518 0.0
C814 C 0.48272 0.19176 0.04349 0.0
C815 C 0.48761 0.22235 0.04579 0.0
loop_
_geom_bond_atom_site_label_1
_geom_bond_atom_site_label_2
_geom_bond_distance
_geom_bond_site_symmetry_2
_ccdc_geom_bond_type
C0 O2 1.247 . S
C0 O4 1.258 . S
C1 O8 1.247 . S
C1 O9 1.258 . S
O2 C0 1.247 . S
O2 Zn3 2.028 . S
Zn3 O2 2.028 . S
Zn3 O7 2.035 . S
Zn3 O9 2.035 . S
Zn3 O10 2.028 . S
O4 C0 1.258 . S
O4 Zn5 2.035 . S
Zn5 O4 2.035 . S
Zn5 O6 2.028 . S
Zn5 O8 2.028 . S
Zn5 O11 2.035 . S
O6 Zn5 2.028 . S
O6 C12 1.247 . S
O7 Zn3 2.035 . S
O7 C12 1.258 . S
O8 C1 1.247 . S
O8 Zn5 2.028 . S
O9 C1 1.258 . S
O9 Zn3 2.035 . S
O10 Zn3 2.028 . S
O10 C13 1.247 . S
O11 Zn5 2.035 . S
O11 C13 1.258 . S
C12 O6 1.247 . S
C12 O7 1.258 . S
C13 O10 1.247 . S
C13 O11 1.258 . S
C14 O16 1.247 . S
C14 O18 1.258 . S
C15 O22 1.247 . S
C15 O23 1.258 . S
O16 C14 1.247 . S
O16 Zn17 2.028 . S
Zn17 O16 2.028 . S
Zn17 O21 2.035 . S
Zn17 O23 2.035 . S
Zn17 O24 2.028 . S
O18 C14 1.258 . S
O18 Zn19 2.035 . S
Zn19 O18 2.035 . S
Zn19 O20 2.028 . S
Zn19 O22 2.028 . S
Zn19 O25 2.035 . S
O20 Zn19 2.028 . S
O20 C26 1.247 . S
O21 Zn17 2.035 . S
O21 C26 1.258 . S
O22 C15 1.247 . S
O22 Zn19 2.028 . S
O23 C15 1.258 . S
O23 Zn17 2.035 . S
O24 Zn17 2.028 . S
O24 C27 1.247 . S
O25 Zn19 2.035 . S
O25 C27 1.258 . S
C26 O20 1.247 . S
C26 O21 1.258 . S
C27 O24 1.247 . S
C27 O25 1.258 . S
C28 O30 1.247 . S
C28 O32 1.258 . S
C29 O36 1.247 . S
C29 O37 1.258 . S
O30 C28 1.247 . S
O30 Zn31 2.028 . S
Zn31 O30 2.028 . S
Zn31 O35 2.035 . S
Zn31 O37 2.035 . S
Zn31 O38 2.028 . S
O32 C28 1.258 . S
O32 Zn33 2.035 . S
Zn33 O32 2.035 . S
Zn33 O34 2.028 . S
Zn33 O36 2.028 . S
Zn33 O39 2.035 . S
O34 Zn33 2.028 . S
O34 C40 1.247 . S
O35 Zn31 2.035 . S
O35 C40 1.258 . S
O36 C29 1.247 . S
O36 Zn33 2.028 . S
O37 C29 1.258 . S
O37 Zn31 2.035 . S
O38 Zn31 2.028 . S
O38 C41 1.247 . S
O39 Zn33 2.035 . S
O39 C41 1.258 . S
C40 O34 1.247 . S
C40 O35 1.258 . S
C41 O38 1.247 . S
C41 O39 1.258 . S
C42 O44 1.247 . S
C42 O46 1.258 . S
C43 O50 1.247 . S
C43 O51 1.258 . S
O44 C42 1.247 . S
O44 Zn45 2.028 . S
Zn45 O44 2.028 . S
Zn45 O49 2.035 . S
Zn45 O51 2.035 . S
Zn45 O52 2.028 . S
O46 C42 1.258 . S
O46 Zn47 2.035 . S
Zn47 O46 2.035 . S
Zn47 O48 2.028 . S
Zn47 O50 2.028 . S
Zn47 O53 2.035 . S
O48 Zn47 2.028 . S
O48 C54 1.247 . S
O49 Zn45 2.035 . S
O49 C54 1.258 . S
O50 C43 1.247 . S
O50 Zn47 2.028 . S
O51 C43 1.258 . S
O51 Zn45 2.035 . S
O52 Zn45 2.028 . S
O52 C55 1.247 . S
O53 Zn47 2.035 . S
O53 C55 1.258 . S
C54 O48 1.247 . S
C54 O49 1.258 . S
C55 O52 1.247 . S
C55 O53 1.258 . S
C56 O58 1.247 . S
C56 O60 1.258 . S
C57 O64 1.247 . S
C57 O65 1.258 . S
O58 C56 1.247 . S
O58 Zn59 2.028 . S
Zn59 O58 2.028 . S
Zn59 O63 2.035 . S
Zn59 O65 2.035 . S
Zn59 O66 2.028 . S
O60 C56 1.258 . S
O60 Zn61 2.035 . S
Zn61 O60 2.035 . S
Zn61 O62 2.028 . S
Zn61 O64 2.028 . S
Zn61 O67 2.035 . S
O62 Zn61 2.028 . S
O62 C68 1.247 . S
O63 Zn59 2.035 . S
O63 C68 1.258 . S
O64 C57 1.247 . S
O64 Zn61 2.028 . S
O65 C57 1.258 . S
O65 Zn59 2.035 . S
O66 Zn59 2.028 . S
O66 C69 1.247 . S
O67 Zn61 2.035 . S
O67 C69 1.258 . S
C68 O62 1.247 . S
C68 O63 1.258 . S
C69 O66 1.247 . S
C69 O67 1.258 . S
C70 O72 1.247 . S
C70 O74 1.258 . S
C71 O78 1.247 . S
C71 O79 1.258 . S
O72 C70 1.247 . S
O72 Zn73 2.028 . S
Zn73 O72 2.028 . S
Zn73 O77 2.035 . S
Zn73 O79 2.035 . S
Zn73 O80 2.028 . S
O74 C70 1.258 . S
O74 Zn75 2.035 . S
Zn75 O74 2.035 . S
Zn75 O76 2.028 . S
Zn75 O78 2.028 . S
Zn75 O81 2.035 . S
O76 Zn75 2.028 . S
O76 C82 1.247 . S
O77 Zn73 2.035 . S
O77 C82 1.258 . S
O78 C71 1.247 . S
O78 Zn75 2.028 . S
O79 C71 1.258 . S
O79 Zn73 2.035 . S
O80 Zn73 2.028 . S
O80 C83 1.247 . S
O81 Zn75 2.035 . S
O81 C83 1.258 . S
C82 O76 1.247 . S
C82 O77 1.258 . S
C83 O80 1.247 . S
C83 O81 1.258 . S
C84 O86 1.247 . S
C84 O88 1.258 . S
C85 O92 1.247 . S
C85 O93 1.258 . S
O86 C84 1.247 . S
O86 Zn87 2.028 . S
Zn87 O86 2.028 . S
Zn87 O91 2.035 . S
Zn87 O93 2.035 . S
Zn87 O94 2.028 . S
O88 C84 1.258 . S
O88 Zn89 2.035 . S
Zn89 O88 2.035 . S
Zn89 O90 2.028 . S
Zn89 O92 2.028 . S
Zn89 O95 2.035 . S
O90 Zn89 2.028 . S
O90 C96 1.247 . S
O91 Zn87 2.035 . S
O91 C96 1.258 . S
O92 C85 1.247 . S
O92 Zn89 2.028 . S
O93 C85 1.258 . S
O93 Zn87 2.035 . S
O94 Zn87 2.028 . S
O94 C97 1.247 . S
O95 Zn89 2.035 . S
O95 C97 1.258 . S
C96 O90 1.247 . S
C96 O91 1.258 . S
C97 O94 1.247 . S
C97 O95 1.258 . S
C98 O100 1.247 . S
C98 O102 1.258 . S
C99 O106 1.247 . S
C99 O107 1.258 . S
O100 C98 1.247 . S
O100 Zn101 2.028 . S
Zn101 O100 2.028 . S
Zn101 O105 2.035 . S
Zn101 O107 2.035 . S
Zn101 O108 2.028 . S
O102 C98 1.258 . S
O102 Zn103 2.035 . S
Zn103 O102 2.035 . S
Zn103 O104 2.028 . S
Zn103 O106 2.028 . S
Zn103 O109 2.035 . S
O104 Zn103 2.028 . S
O104 C110 1.247 . S
O105 Zn101 2.035 . S
O105 C110 1.258 . S
O106 C99 1.247 . S
O106 Zn103 2.028 . S
O107 C99 1.258 . S
O107 Zn101 2.035 . S
O108 Zn101 2.028 . S
O108 C111 1.247 . S
O109 Zn103 2.035 . S
O109 C111 1.258 . S
C110 O104 1.247 . S
C110 O105 1.258 . S
C111 O108 1.247 . S
C111 O109 1.258 . S
C112 O114 1.247 . S
C112 O116 1.258 . S
C113 O120 1.247 . S
C113 O121 1.258 . S
O114 C112 1.247 . S
O114 Zn115 2.028 . S
Zn115 O114 2.028 . S
Zn115 O119 2.035 . S
Zn115 O121 2.035 . S
Zn115 O122 2.028 . S
O116 C112 1.258 . S
O116 Zn117 2.035 . S
Zn117 O116 2.035 . S
Zn117 O118 2.028 . S
Zn117 O120 2.028 . S
Zn117 O123 2.035 . S
O118 Zn117 2.028 . S
O118 C124 1.247 . S
O119 Zn115 2.035 . S
O119 C124 1.258 . S
O120 C113 1.247 . S
O120 Zn117 2.028 . S
O121 C113 1.258 . S
O121 Zn115 2.035 . S
O122 Zn115 2.028 . S
O122 C125 1.247 . S
O123 Zn117 2.035 . S
O123 C125 1.258 . S
C124 O118 1.247 . S
C124 O119 1.258 . S
C125 O122 1.247 . S
C125 O123 1.258 . S
C126 O128 1.247 . S
C126 O130 1.258 . S
C127 O134 1.247 . S
C127 O135 1.258 . S
O128 C126 1.247 . S
O128 Zn129 2.028 . S
Zn129 O128 2.028 . S
Zn129 O133 2.035 . S
Zn129 O135 2.035 . S
Zn129 O136 2.028 . S
O130 C126 1.258 . S
O130 Zn131 2.035 . S
Zn131 O130 2.035 . S
Zn131 O132 2.028 . S
Zn131 O134 2.028 . S
Zn131 O137 2.035 . S
O132 Zn131 2.028 . S
O132 C138 1.247 . S
O133 Zn129 2.035 . S
O133 C138 1.258 . S
O134 C127 1.247 . S
O134 Zn131 2.028 . S
O135 C127 1.258 . S
O135 Zn129 2.035 . S
O136 Zn129 2.028 . S
O136 C139 1.247 . S
O137 Zn131 2.035 . S
O137 C139 1.258 . S
C138 O132 1.247 . S
C138 O133 1.258 . S
C139 O136 1.247 . S
C139 O137 1.258 . S
C140 O142 1.247 . S
C140 O144 1.258 . S
C141 O148 1.247 . S
C141 O149 1.258 . S
O142 C140 1.247 . S
O142 Zn143 2.028 . S
Zn143 O142 2.028 . S
Zn143 O147 2.035 . S
Zn143 O149 2.035 . S
Zn143 O150 2.028 . S
O144 C140 1.258 . S
O144 Zn145 2.035 . S
Zn145 O144 2.035 . S
Zn145 O146 2.028 . S
Zn145 O148 2.028 . S
Zn145 O151 2.035 . S
O146 Zn145 2.028 . S
O146 C152 1.247 . S
O147 Zn143 2.035 . S
O147 C152 1.258 . S
O148 C141 1.247 . S
O148 Zn145 2.028 . S
O149 C141 1.258 . S
O149 Zn143 2.035 . S
O150 Zn143 2.028 . S
O150 C153 1.247 . S
O151 Zn145 2.035 . S
O151 C153 1.258 . S
C152 O146 1.247 . S
C152 O147 1.258 . S
C153 O150 1.247 . S
C153 O151 1.258 . S
C154 O156 1.247 . S
C154 O158 1.258 . S
C155 O162 1.247 . S
C155 O163 1.258 . S
O156 C154 1.247 . S
O156 Zn157 2.028 . S
Zn157 O156 2.028 . S
Zn157 O161 2.035 . S
Zn157 O163 2.035 . S
Zn157 O164 2.028 . S
O158 C154 1.258 . S
O158 Zn159 2.035 . S
Zn159 O158 2.035 . S
Zn159 O160 2.028 . S
Zn159 O162 2.028 . S
Zn159 O165 2.035 . S
O160 Zn159 2.028 . S
O160 C166 1.247 . S
O161 Zn157 2.035 . S
O161 C166 1.258 . S
O162 C155 1.247 . S
O162 Zn159 2.028 . S
O163 C155 1.258 . S
O163 Zn157 2.035 . S
O164 Zn157 2.028 . S
O164 C167 1.247 . S
O165 Zn159 2.035 . S
O165 C167 1.258 . S
C166 O160 1.247 . S
C166 O161 1.258 . S
C167 O164 1.247 . S
C167 O165 1.258 . S
H168 C180 0.930 . S
H169 C182 0.930 . S
H170 C183 0.930 . S
H171 C187 0.959 . S
H172 C187 0.959 . S
H173 C187 0.961 . S
H174 C188 0.960 . S
H175 C188 0.961 . S
H176 C188 0.959 . S
H177 C191 0.929 . S
H178 C192 0.931 . S
H179 C194 0.930 . S
C180 H168 0.930 . S
C180 C181 1.399 . S
C180 C185 1.399 . S
C181 C180 1.399 . S
C181 C182 1.376 . S
C182 H169 0.930 . S
C182 C181 1.376 . S
C182 C183 1.388 . S
C183 H170 0.930 . S
C183 C182 1.388 . S
C183 C184 1.390 . S
C184 C183 1.390 . S
C184 C185 1.394 . S
C184 C190 1.465 . S
C185 C180 1.399 . S
C185 C184 1.394 . S
C185 C186 1.516 . S
C186 C185 1.516 . S
C186 C187 1.502 . S
C186 C188 1.561 . S
C186 C189 1.526 . S
C187 H171 0.959 . S
C187 H172 0.959 . S
C187 H173 0.961 . S
C187 C186 1.502 . S
C188 H174 0.960 . S
C188 H175 0.961 . S
C188 H176 0.959 . S
C188 C186 1.561 . S
C189 C186 1.526 . S
C189 C190 1.396 . S
C189 C194 1.390 . S
C190 C184 1.465 . S
C190 C189 1.396 . S
C190 C191 1.399 . S
C191 H177 0.929 . S
C191 C190 1.399 . S
C191 C192 1.385 . S
C192 H178 0.931 . S
C192 C191 1.385 . S
C192 C193 1.389 . S
C193 C192 1.389 . S
C193 C194 1.387 . S
C194 H179 0.930 . S
C194 C189 1.390 . S
C194 C193 1.387 . S
H195 C207 0.930 . S
H196 C209 0.930 . S
H197 C210 0.930 . S
H198 C214 0.959 . S
H199 C214 0.959 . S
H200 C214 0.961 . S
H201 C215 0.960 . S
H202 C215 0.961 . S
H203 C215 0.959 . S
H204 C218 0.929 . S
H205 C219 0.931 . S
H206 C221 0.930 . S
C207 H195 0.930 . S
C207 C208 1.399 . S
C207 C212 1.399 . S
C208 C207 1.399 . S
C208 C209 1.376 . S
C209 H196 0.930 . S
C209 C208 1.376 . S
C209 C210 1.388 . S
C210 H197 0.930 . S
C210 C209 1.388 . S
C210 C211 1.390 . S
C211 C210 1.390 . S
C211 C212 1.394 . S
C211 C217 1.465 . S
C212 C207 1.399 . S
C212 C211 1.394 . S
C212 C213 1.516 . S
C213 C212 1.516 . S
C213 C214 1.502 . S
C213 C215 1.561 . S
C213 C216 1.526 . S
C214 H198 0.959 . S
C214 H199 0.959 . S
C214 H200 0.961 . S
C214 C213 1.502 . S
C215 H201 0.960 . S
C215 H202 0.961 . S
C215 H203 0.959 . S
C215 C213 1.561 . S
C216 C213 1.526 . S
C216 C217 1.396 . S
C216 C221 1.390 . S
C217 C211 1.465 . S
C217 C216 1.396 . S
C217 C218 1.399 . S
C218 H204 0.929 . S
C218 C217 1.399 . S
C218 C219 1.385 . S
C219 H205 0.931 . S
C219 C218 1.385 . S
C219 C220 1.389 . S
C220 C219 1.389 . S
C220 C221 1.387 . S
C221 H206 0.930 . S
C221 C216 1.390 . S
C221 C220 1.387 . S
H222 C234 0.930 . S
H223 C236 0.930 . S
H224 C237 0.930 . S
H225 C241 0.959 . S
H226 C241 0.959 . S
H227 C241 0.961 . S
H228 C242 0.960 . S
H229 C242 0.961 . S
H230 C242 0.959 . S
H231 C245 0.929 . S
H232 C246 0.931 . S
H233 C248 0.930 . S
C234 H222 0.930 . S
C234 C235 1.399 . S
C234 C239 1.399 . S
C235 C234 1.399 . S
C235 C236 1.376 . S
C236 H223 0.930 . S
C236 C235 1.376 . S
C236 C237 1.388 . S
C237 H224 0.930 . S
C237 C236 1.388 . S
C237 C238 1.390 . S
C238 C237 1.390 . S
C238 C239 1.394 . S
C238 C244 1.465 . S
C239 C234 1.399 . S
C239 C238 1.394 . S
C239 C240 1.516 . S
C240 C239 1.516 . S
C240 C241 1.502 . S
C240 C242 1.561 . S
C240 C243 1.526 . S
C241 H225 0.959 . S
C241 H226 0.959 . S
C241 H227 0.961 . S
C241 C240 1.502 . S
C242 H228 0.960 . S
C242 H229 0.961 . S
C242 H230 0.959 . S
C242 C240 1.561 . S
C243 C240 1.526 . S
C243 C244 1.396 . S
C243 C248 1.390 . S
C244 C238 1.465 . S
C244 C243 1.396 . S
C244 C245 1.399 . S
C245 H231 0.929 . S
C245 C244 1.399 . S
C245 C246 1.385 . S
C246 H232 0.931 . S
C246 C245 1.385 . S
C246 C247 1.389 . S
C247 C246 1.389 . S
C247 C248 1.387 . S
C248 H233 0.930 . S
C248 C243 1.390 . S
C248 C247 1.387 . S
H249 C261 0.930 . S
H250 C263 0.930 . S
H251 C264 0.930 . S
H252 C268 0.959 . S
H253 C268 0.959 . S
H254 C268 0.961 . S
H255 C269 0.960 1_554 S
H256 C269 0.961 1_554 S
H257 C269 0.959 . S
H258 C272 0.929 . S
H259 C273 0.931 . S
H260 C275 0.930 . S
C261 H249 0.930 . S
C261 C262 1.399 . S
C261 C266 1.399 . S
C262 C261 1.399 . S
C262 C263 1.376 . S
C263 H250 0.930 . S
C263 C262 1.376 . S
C263 C264 1.388 . S
C264 H251 0.930 . S
C264 C263 1.388 . S
C264 C265 1.390 . S
C265 C264 1.390 . S
C265 C266 1.394 . S
C265 C271 1.465 . S
C266 C261 1.399 . S
C266 C265 1.394 . S
C266 C267 1.516 . S
C267 C266 1.516 . S
C267 C268 1.502 . S
C267 C269 1.561 . S
C267 C270 1.526 . S
C268 H252 0.959 . S
C268 H253 0.959 . S
C268 H254 0.961 . S
C268 C267 1.502 . S
C269 H255 0.960 1_556 S
C269 H256 0.961 1_556 S
C269 H257 0.959 . S
C269 C267 1.561 . S
C270 C267 1.526 . S
C270 C271 1.396 . S
C270 C275 1.390 . S
C271 C265 1.465 . S
C271 C270 1.396 . S
C271 C272 1.399 . S
C272 H258 0.929 . S
C272 C271 1.399 . S
C272 C273 1.385 . S
C273 H259 0.931 . S
C273 C272 1.385 . S
C273 C274 1.389 . S
C274 C273 1.389 . S
C274 C275 1.387 . S
C275 H260 0.930 . S
C275 C270 1.390 . S
C275 C274 1.387 . S
H276 C288 0.930 . S
H277 C290 0.930 . S
H278 C291 0.930 . S
H279 C295 0.959 . S
H280 C295 0.959 . S
H281 C295 0.961 . S
H282 C296 0.960 . S
H283 C296 0.961 1_556 S
H284 C296 0.959 . S
H285 C299 0.929 . S
H286 C300 0.931 . S
H287 C302 0.930 . S
C288 H276 0.930 . S
C288 C289 1.399 . S
C288 C293 1.399 . S
C289 C288 1.399 . S
C289 C290 1.376 . S
C290 H277 0.930 . S
C290 C289 1.376 . S
C290 C291 1.388 . S
C291 H278 0.930 . S
C291 C290 1.388 . S
C291 C292 1.390 . S
C292 C291 1.390 . S
C292 C293 1.394 . S
C292 C298 1.465 . S
C293 C288 1.399 . S
C293 C292 1.394 . S
C293 C294 1.516 . S
C294 C293 1.516 . S
C294 C295 1.502 . S
C294 C296 1.561 . S
C294 C297 1.526 . S
C295 H279 0.959 . S
C295 H280 0.959 . S
C295 H281 0.961 . S
C295 C294 1.502 . S
C296 H282 0.960 . S
C296 H283 0.961 1_554 S
C296 H284 0.959 . S
C296 C294 1.561 . S
C297 C294 1.526 . S
C297 C298 1.396 . S
C297 C302 1.390 . S
C298 C292 1.465 . S
C298 C297 1.396 . S
C298 C299 1.399 . S
C299 H285 0.929 . S
C299 C298 1.399 . S
C299 C300 1.385 . S
C300 H286 0.931 . S
C300 C299 1.385 . S
C300 C301 1.389 . S
C301 C300 1.389 . S
C301 C302 1.387 . S
C302 H287 0.930 . S
C302 C297 1.390 . S
C302 C301 1.387 . S
H303 C315 0.930 . S
H304 C317 0.930 . S
H305 C318 0.930 . S
H306 C322 0.959 . S
H307 C322 0.959 . S
H308 C322 0.961 . S
H309 C323 0.960 . S
H310 C323 0.961 . S
H311 C323 0.959 . S
H312 C326 0.929 . S
H313 C327 0.931 . S
H314 C329 0.930 . S
C315 H303 0.930 . S
C315 C316 1.399 . S
C315 C320 1.399 . S
C316 C315 1.399 . S
C316 C317 1.376 . S
C317 H304 0.930 . S
C317 C316 1.376 . S
C317 C318 1.388 . S
C318 H305 0.930 . S
C318 C317 1.388 . S
C318 C319 1.390 . S
C319 C318 1.390 . S
C319 C320 1.394 . S
C319 C325 1.465 . S
C320 C315 1.399 . S
C320 C319 1.394 . S
C320 C321 1.516 . S
C321 C320 1.516 . S
C321 C322 1.502 . S
C321 C323 1.561 . S
C321 C324 1.526 . S
C322 H306 0.959 . S
C322 H307 0.959 . S
C322 H308 0.961 . S
C322 C321 1.502 . S
C323 H309 0.960 . S
C323 H310 0.961 . S
C323 H311 0.959 . S
C323 C321 1.561 . S
C324 C321 1.526 . S
C324 C325 1.396 . S
C324 C329 1.390 . S
C325 C319 1.465 . S
C325 C324 1.396 . S
C325 C326 1.399 . S
C326 H312 0.929 . S
C326 C325 1.399 . S
C326 C327 1.385 . S
C327 H313 0.931 . S
C327 C326 1.385 . S
C327 C328 1.389 . S
C328 C327 1.389 . S
C328 C329 1.387 . S
C329 H314 0.930 . S
C329 C324 1.390 . S
C329 C328 1.387 . S
H330 C342 0.930 . S
H331 C344 0.930 . S
H332 C345 0.930 . S
H333 C349 0.959 . S
H334 C349 0.959 . S
H335 C349 0.961 . S
H336 C350 0.960 . S
H337 C350 0.961 . S
H338 C350 0.959 . S
H339 C353 0.929 . S
H340 C354 0.931 . S
H341 C356 0.930 . S
C342 H330 0.930 . S
C342 C343 1.399 . S
C342 C347 1.399 . S
C343 C342 1.399 . S
C343 C344 1.376 . S
C344 H331 0.930 . S
C344 C343 1.376 . S
C344 C345 1.388 . S
C345 H332 0.930 . S
C345 C344 1.388 . S
C345 C346 1.390 . S
C346 C345 1.390 . S
C346 C347 1.394 . S
C346 C352 1.465 . S
C347 C342 1.399 . S
C347 C346 1.394 . S
C347 C348 1.516 . S
C348 C347 1.516 . S
C348 C349 1.502 . S
C348 C350 1.561 . S
C348 C351 1.526 . S
C349 H333 0.959 . S
C349 H334 0.959 . S
C349 H335 0.961 . S
C349 C348 1.502 . S
C350 H336 0.960 . S
C350 H337 0.961 . S
C350 H338 0.959 . S
C350 C348 1.561 . S
C351 C348 1.526 . S
C351 C352 1.396 . S
C351 C356 1.390 . S
C352 C346 1.465 . S
C352 C351 1.396 . S
C352 C353 1.399 . S
C353 H339 0.929 . S
C353 C352 1.399 . S
C353 C354 1.385 . S
C354 H340 0.931 . S
C354 C353 1.385 . S
C354 C355 1.389 . S
C355 C354 1.389 . S
C355 C356 1.387 . S
C356 H341 0.930 . S
C356 C351 1.390 . S
C356 C355 1.387 . S
H357 C369 0.930 . S
H358 C371 0.930 . S
H359 C372 0.930 . S
H360 C376 0.959 . S
H361 C376 0.959 . S
H362 C376 0.961 . S
H363 C377 0.960 . S
H364 C377 0.961 . S
H365 C377 0.959 . S
H366 C380 0.929 . S
H367 C381 0.931 . S
H368 C383 0.930 . S
C369 H357 0.930 . S
C369 C370 1.399 . S
C369 C374 1.399 . S
C370 C369 1.399 . S
C370 C371 1.376 . S
C371 H358 0.930 . S
C371 C370 1.376 . S
C371 C372 1.388 . S
C372 H359 0.930 . S
C372 C371 1.388 . S
C372 C373 1.390 . S
C373 C372 1.390 . S
C373 C374 1.394 . S
C373 C379 1.465 . S
C374 C369 1.399 . S
C374 C373 1.394 . S
C374 C375 1.516 . S
C375 C374 1.516 . S
C375 C376 1.502 . S
C375 C377 1.561 . S
C375 C378 1.526 . S
C376 H360 0.959 . S
C376 H361 0.959 . S
C376 H362 0.961 . S
C376 C375 1.502 . S
C377 H363 0.960 . S
C377 H364 0.961 . S
C377 H365 0.959 . S
C377 C375 1.561 . S
C378 C375 1.526 . S
C378 C379 1.396 . S
C378 C383 1.390 . S
C379 C373 1.465 . S
C379 C378 1.396 . S
C379 C380 1.399 . S
C380 H366 0.929 . S
C380 C379 1.399 . S
C380 C381 1.385 . S
C381 H367 0.931 . S
C381 C380 1.385 . S
C381 C382 1.389 . S
C382 C381 1.389 . S
C382 C383 1.387 . S
C383 H368 0.930 . S
C383 C378 1.390 . S
C383 C382 1.387 . S
H384 C396 0.930 . S
H385 C398 0.930 1_554 S
H386 C399 0.930 . S
H387 C403 0.959 . S
H388 C403 0.959 . S
H389 C403 0.961 . S
H390 C404 0.960 . S
H391 C404 0.961 . S
H392 C404 0.959 . S
H393 C407 0.929 . S
H394 C408 0.931 . S
H395 C410 0.930 . S
C396 H384 0.930 . S
C396 C397 1.386 1_556 S
C396 C401 1.399 . S
C397 C396 1.386 1_554 S
C397 C398 1.376 1_554 S
C398 H385 0.930 1_556 S
C398 C397 1.376 1_556 S
C398 C399 1.388 . S
C399 H386 0.930 . S
C399 C398 1.388 . S
C399 C400 1.390 . S
C400 C399 1.390 . S
C400 C401 1.394 . S
C400 C406 1.465 . S
C401 C396 1.399 . S
C401 C400 1.394 . S
C401 C402 1.516 . S
C402 C401 1.516 . S
C402 C403 1.502 . S
C402 C404 1.561 . S
C402 C405 1.526 . S
C403 H387 0.959 . S
C403 H388 0.959 . S
C403 H389 0.961 . S
C403 C402 1.502 . S
C404 H390 0.960 . S
C404 H391 0.961 . S
C404 H392 0.959 . S
C404 C402 1.561 . S
C405 C402 1.526 . S
C405 C406 1.396 . S
C405 C410 1.390 . S
C406 C400 1.465 . S
C406 C405 1.396 . S
C406 C407 1.399 . S
C407 H393 0.929 . S
C407 C406 1.399 . S
C407 C408 1.385 . S
C408 H394 0.931 . S
C408 C407 1.385 . S
C408 C409 1.389 . S
C409 C408 1.389 . S
C409 C410 1.387 . S
C410 H395 0.930 . S
C410 C405 1.390 . S
C410 C409 1.387 . S
H411 C423 0.930 . S
H412 C425 0.930 . S
H413 C426 0.930 . S
H414 C430 0.959 . S
H415 C430 0.959 . S
H416 C430 0.961 . S
H417 C431 0.960 . S
H418 C431 0.961 . S
H419 C431 0.959 . S
H420 C434 0.929 . S
H421 C435 0.931 . S
H422 C437 0.930 1_556 S
C423 H411 0.930 . S
C423 C424 1.399 . S
C423 C428 1.399 . S
C424 C423 1.399 . S
C424 C425 1.376 . S
C425 H412 0.930 . S
C425 C424 1.376 . S
C425 C426 1.388 . S
C426 H413 0.930 . S
C426 C425 1.388 . S
C426 C427 1.390 . S
C427 C426 1.390 . S
C427 C428 1.394 . S
C427 C433 1.465 . S
C428 C423 1.399 . S
C428 C427 1.394 . S
C428 C429 1.516 . S
C429 C428 1.516 . S
C429 C430 1.502 . S
C429 C431 1.561 . S
C429 C432 1.526 . S
C430 H414 0.959 . S
C430 H415 0.959 . S
C430 H416 0.961 . S
C430 C429 1.502 . S
C431 H417 0.960 . S
C431 H418 0.961 . S
C431 H419 0.959 . S
C431 C429 1.561 . S
C432 C429 1.526 . S
C432 C433 1.396 . S
C432 C437 1.390 . S
C433 C427 1.465 . S
C433 C432 1.396 . S
C433 C434 1.399 . S
C434 H420 0.929 . S
C434 C433 1.399 . S
C434 C435 1.385 . S
C435 H421 0.931 . S
C435 C434 1.385 . S
C435 C436 1.389 . S
C436 C435 1.389 . S
C436 C437 1.387 . S
C437 H422 0.930 1_554 S
C437 C432 1.390 . S
C437 C436 1.387 . S
H438 C450 0.930 . S
H439 C452 0.930 . S
H440 C453 0.930 . S
H441 C457 0.959 . S
H442 C457 0.959 . S
H443 C457 0.961 . S
H444 C458 0.960 . S
H445 C458 0.961 . S
H446 C458 0.959 . S
H447 C461 0.929 . S
H448 C462 0.931 . S
H449 C464 0.930 . S
C450 H438 0.930 . S
C450 C451 1.399 . S
C450 C455 1.399 . S
C451 C450 1.399 . S
C451 C452 1.376 . S
C452 H439 0.930 . S
C452 C451 1.376 . S
C452 C453 1.388 . S
C453 H440 0.930 . S
C453 C452 1.388 . S
C453 C454 1.390 . S
C454 C453 1.390 . S
C454 C455 1.394 . S
C454 C460 1.465 . S
C455 C450 1.399 . S
C455 C454 1.394 . S
C455 C456 1.516 . S
C456 C455 1.516 . S
C456 C457 1.502 . S
C456 C458 1.561 . S
C456 C459 1.526 . S
C457 H441 0.959 . S
C457 H442 0.959 . S
C457 H443 0.961 . S
C457 C456 1.502 . S
C458 H444 0.960 . S
C458 H445 0.961 . S
C458 H446 0.959 . S
C458 C456 1.561 . S
C459 C456 1.526 . S
C459 C460 1.396 . S
C459 C464 1.390 . S
C460 C454 1.465 . S
C460 C459 1.396 . S
C460 C461 1.399 . S
C461 H447 0.929 . S
C461 C460 1.399 . S
C461 C462 1.385 . S
C462 H448 0.931 . S
C462 C461 1.385 . S
C462 C463 1.389 . S
C463 C462 1.389 . S
C463 C464 1.387 . S
C464 H449 0.930 . S
C464 C459 1.390 . S
C464 C463 1.387 . S
H465 C477 0.930 . S
H466 C479 0.930 . S
H467 C480 0.930 . S
H468 C484 0.959 . S
H469 C484 0.959 . S
H470 C484 0.961 . S
H471 C485 0.960 . S
H472 C485 0.961 . S
H473 C485 0.959 . S
H474 C488 0.929 . S
H475 C489 0.931 . S
H476 C491 0.930 . S
C477 H465 0.930 . S
C477 C478 1.399 . S
C477 C482 1.399 . S
C478 C477 1.399 . S
C478 C479 1.376 . S
C479 H466 0.930 . S
C479 C478 1.376 . S
C479 C480 1.388 . S
C480 H467 0.930 . S
C480 C479 1.388 . S
C480 C481 1.390 . S
C481 C480 1.390 . S
C481 C482 1.394 . S
C481 C487 1.465 . S
C482 C477 1.399 . S
C482 C481 1.394 . S
C482 C483 1.516 . S
C483 C482 1.516 . S
C483 C484 1.502 . S
C483 C485 1.561 . S
C483 C486 1.526 . S
C484 H468 0.959 . S
C484 H469 0.959 . S
C484 H470 0.961 . S
C484 C483 1.502 . S
C485 H471 0.960 . S
C485 H472 0.961 . S
C485 H473 0.959 . S
C485 C483 1.561 . S
C486 C483 1.526 . S
C486 C487 1.396 . S
C486 C491 1.390 . S
C487 C481 1.465 . S
C487 C486 1.396 . S
C487 C488 1.399 . S
C488 H474 0.929 . S
C488 C487 1.399 . S
C488 C489 1.385 . S
C489 H475 0.931 . S
C489 C488 1.385 . S
C489 C490 1.389 . S
C490 C489 1.389 . S
C490 C491 1.387 . S
C491 H476 0.930 . S
C491 C486 1.390 . S
C491 C490 1.387 . S
H492 C504 0.930 . S
H493 C506 0.930 . S
H494 C507 0.930 . S
H495 C511 0.959 . S
H496 C511 0.959 . S
H497 C511 0.966 . S
H498 C512 0.960 . S
H499 C512 0.961 1_455 S
H500 C512 0.959 . S
H501 C515 0.929 . S
H502 C516 0.931 . S
H503 C518 0.930 . S
C504 H492 0.930 . S
C504 C505 1.399 . S
C504 C509 1.399 . S
C505 C504 1.399 . S
C505 C506 1.376 . S
C506 H493 0.930 . S
C506 C505 1.376 . S
C506 C507 1.388 . S
C507 H494 0.930 . S
C507 C506 1.388 . S
C507 C508 1.390 . S
C508 C507 1.390 . S
C508 C509 1.394 . S
C508 C514 1.465 1_655 S
C509 C504 1.399 . S
C509 C508 1.394 . S
C509 C510 1.516 1_655 S
C510 C509 1.516 1_455 S
C510 C511 1.502 . S
C510 C512 1.561 1_455 S
C510 C513 1.526 . S
C511 H495 0.959 . S
C511 H496 0.959 . S
C511 H497 0.966 . S
C511 C510 1.502 . S
C512 H498 0.960 . S
C512 H499 0.961 1_655 S
C512 H500 0.959 . S
C512 C510 1.561 1_655 S
C513 C510 1.526 . S
C513 C514 1.396 . S
C513 C518 1.390 . S
C514 C508 1.465 1_455 S
C514 C513 1.396 . S
C514 C515 1.399 . S
C515 H501 0.929 . S
C515 C514 1.399 . S
C515 C516 1.385 . S
C516 H502 0.931 . S
C516 C515 1.385 . S
C516 C517 1.389 . S
C517 C516 1.389 . S
C517 C518 1.387 . S
C518 H503 0.930 . S
C518 C513 1.390 . S
C518 C517 1.387 . S
H519 C531 0.930 . S
H520 C533 0.930 . S
H521 C534 0.930 . S
H522 C538 0.959 . S
H523 C538 0.959 . S
H524 C538 0.961 . S
H525 C539 0.960 . S
H526 C539 0.961 . S
H527 C539 0.959 . S
H528 C542 0.929 1_565 S
H529 C543 0.931 . S
H530 C545 0.930 . S
C531 H519 0.930 . S
C531 C532 1.399 . S
C531 C536 1.399 . S
C532 C531 1.399 . S
C532 C533 1.376 . S
C533 H520 0.930 . S
C533 C532 1.376 . S
C533 C534 1.388 . S
C534 H521 0.930 . S
C534 C533 1.388 . S
C534 C535 1.390 . S
C535 C534 1.390 . S
C535 C536 1.394 . S
C535 C541 1.465 1_565 S
C536 C531 1.399 . S
C536 C535 1.394 . S
C536 C537 1.516 1_565 S
C537 C536 1.516 1_545 S
C537 C538 1.502 . S
C537 C539 1.561 . S
C537 C540 1.526 . S
C538 H522 0.959 . S
C538 H523 0.959 . S
C538 H524 0.961 . S
C538 C537 1.502 . S
C539 H525 0.960 . S
C539 H526 0.961 . S
C539 H527 0.959 . S
C539 C537 1.561 . S
C540 C537 1.526 . S
C540 C541 1.396 . S
C540 C545 1.390 . S
C541 C535 1.465 1_545 S
C541 C540 1.396 . S
C541 C542 1.399 . S
C542 H528 0.929 1_545 S
C542 C541 1.399 . S
C542 C543 1.385 . S
C543 H529 0.931 . S
C543 C542 1.385 . S
C543 C544 1.389 . S
C544 C543 1.389 . S
C544 C545 1.387 . S
C545 H530 0.930 . S
C545 C540 1.390 . S
C545 C544 1.387 . S
H546 C558 0.930 . S
H547 C560 0.930 . S
H548 C561 0.930 . S
H549 C565 0.959 . S
H550 C565 0.959 . S
H551 C565 0.961 . S
H552 C566 0.960 . S
H553 C566 0.961 . S
H554 C566 0.959 . S
H555 C569 0.929 . S
H556 C570 0.931 . S
H557 C572 0.930 . S
C558 H546 0.930 . S
C558 C559 1.399 . S
C558 C563 1.399 . S
C559 C558 1.399 . S
C559 C560 1.376 . S
C560 H547 0.930 . S
C560 C559 1.376 . S
C560 C561 1.388 . S
C561 H548 0.930 . S
C561 C560 1.388 . S
C561 C562 1.390 . S
C562 C561 1.390 . S
C562 C563 1.394 . S
C562 C568 1.465 . S
C563 C558 1.399 . S
C563 C562 1.394 . S
C563 C564 1.516 . S
C564 C563 1.516 . S
C564 C565 1.502 . S
C564 C566 1.561 . S
C564 C567 1.526 . S
C565 H549 0.959 . S
C565 H550 0.959 . S
C565 H551 0.961 . S
C565 C564 1.502 . S
C566 H552 0.960 . S
C566 H553 0.961 . S
C566 H554 0.959 . S
C566 C564 1.561 . S
C567 C564 1.526 . S
C567 C568 1.396 . S
C567 C572 1.390 . S
C568 C562 1.465 . S
C568 C567 1.396 . S
C568 C569 1.399 . S
C569 H555 0.929 . S
C569 C568 1.399 . S
C569 C570 1.385 . S
C570 H556 0.931 . S
C570 C569 1.385 . S
C570 C571 1.389 . S
C571 C570 1.389 . S
C571 C572 1.387 . S
C572 H557 0.930 . S
C572 C567 1.390 . S
C572 C571 1.387 . S
H573 C585 0.930 . S
H574 C587 0.930 . S
H575 C588 0.930 . S
H576 C592 0.959 . S
H577 C592 0.959 1_655 S
H578 C592 0.961 . S
H579 C593 0.960 . S
H580 C593 0.961 . S
H581 C593 0.959 . S
H582 C596 0.929 . S
H583 C597 0.931 . S
H584 C599 0.930 . S
C585 H573 0.930 . S
C585 C586 1.399 . S
C585 C590 1.399 . S
C586 C585 1.399 . S
C586 C587 1.376 . S
C587 H574 0.930 . S
C587 C586 1.376 . S
C587 C588 1.388 . S
C588 H575 0.930 . S
C588 C587 1.388 . S
C588 C589 1.390 . S
C589 C588 1.390 . S
C589 C590 1.394 . S
C589 C595 1.465 1_455 S
C590 C585 1.399 . S
C590 C589 1.394 . S
C590 C591 1.516 1_455 S
C591 C590 1.516 1_655 S
C591 C592 1.502 1_655 S
C591 C593 1.561 . S
C591 C594 1.526 . S
C592 H576 0.959 . S
C592 H577 0.959 1_455 S
C592 H578 0.961 . S
C592 C591 1.502 1_455 S
C593 H579 0.960 . S
C593 H580 0.961 . S
C593 H581 0.959 . S
C593 C591 1.561 . S
C594 C591 1.526 . S
C594 C595 1.396 . S
C594 C599 1.390 . S
C595 C589 1.465 1_655 S
C595 C594 1.396 . S
C595 C596 1.399 . S
C596 H582 0.929 . S
C596 C595 1.399 . S
C596 C597 1.385 . S
C597 H583 0.931 . S
C597 C596 1.385 . S
C597 C598 1.389 . S
C598 C597 1.389 . S
C598 C599 1.387 . S
C599 H584 0.930 . S
C599 C594 1.390 . S
C599 C598 1.387 . S
H600 C612 0.930 . S
H601 C614 0.930 . S
H602 C615 0.930 . S
H603 C619 0.959 . S
H604 C619 0.959 . S
H605 C619 0.961 . S
H606 C620 0.960 . S
H607 C620 0.961 . S
H608 C620 0.959 . S
H609 C623 0.929 . S
H610 C624 0.931 . S
H611 C626 0.930 . S
C612 H600 0.930 . S
C612 C613 1.399 . S
C612 C617 1.399 . S
C613 C612 1.399 . S
C613 C614 1.376 . S
C614 H601 0.930 . S
C614 C613 1.376 . S
C614 C615 1.388 1_556 S
C615 H602 0.930 . S
C615 C614 1.388 1_554 S
C615 C616 1.390 . S
C616 C615 1.390 . S
C616 C617 1.394 1_554 S
C616 C622 1.465 1_545 S
C617 C612 1.399 . S
C617 C616 1.394 1_556 S
C617 C618 1.516 1_545 S
C618 C617 1.516 1_565 S
C618 C619 1.502 . S
C618 C620 1.561 . S
C618 C621 1.526 1_556 S
C619 H603 0.959 . S
C619 H604 0.959 . S
C619 H605 0.961 . S
C619 C618 1.502 . S
C620 H606 0.960 . S
C620 H607 0.961 . S
C620 H608 0.959 . S
C620 C618 1.561 . S
C621 C618 1.526 1_554 S
C621 C622 1.396 . S
C621 C626 1.390 . S
C622 C616 1.465 1_565 S
C622 C621 1.396 . S
C622 C623 1.399 . S
C623 H609 0.929 . S
C623 C622 1.399 . S
C623 C624 1.385 . S
C624 H610 0.931 . S
C624 C623 1.385 . S
C624 C625 1.389 . S
C625 C624 1.389 . S
C625 C626 1.387 . S
C626 H611 0.930 . S
C626 C621 1.390 . S
C626 C625 1.387 . S
H627 C639 0.930 . S
H628 C641 0.930 . S
H629 C642 0.930 . S
H630 C646 0.959 . S
H631 C646 0.959 . S
H632 C646 0.961 . S
H633 C647 0.960 . S
H634 C647 0.961 . S
H635 C647 0.959 . S
H636 C650 0.929 . S
H637 C651 0.931 . S
H638 C653 0.930 . S
C639 H627 0.930 . S
C639 C640 1.399 . S
C639 C644 1.399 . S
C640 C639 1.399 . S
C640 C641 1.376 . S
C641 H628 0.930 . S
C641 C640 1.376 . S
C641 C642 1.388 . S
C642 H629 0.930 . S
C642 C641 1.388 . S
C642 C643 1.390 . S
C643 C642 1.390 . S
C643 C644 1.394 . S
C643 C649 1.465 . S
C644 C639 1.399 . S
C644 C643 1.394 . S
C644 C645 1.516 . S
C645 C644 1.516 . S
C645 C646 1.502 . S
C645 C647 1.561 . S
C645 C648 1.526 . S
C646 H630 0.959 . S
C646 H631 0.959 . S
C646 H632 0.961 . S
C646 C645 1.502 . S
C647 H633 0.960 . S
C647 H634 0.961 . S
C647 H635 0.959 . S
C647 C645 1.561 . S
C648 C645 1.526 . S
C648 C649 1.396 . S
C648 C653 1.390 . S
C649 C643 1.465 . S
C649 C648 1.396 . S
C649 C650 1.399 . S
C650 H636 0.929 . S
C650 C649 1.399 . S
C650 C651 1.385 . S
C651 H637 0.931 . S
C651 C650 1.385 . S
C651 C652 1.389 . S
C652 C651 1.389 . S
C652 C653 1.387 . S
C653 H638 0.930 . S
C653 C648 1.390 . S
C653 C652 1.387 . S
H654 C666 0.930 . S
H655 C668 0.930 . S
H656 C669 0.930 . S
H657 C673 0.959 . S
H658 C673 0.959 . S
H659 C673 0.961 . S
H660 C674 0.960 . S
H661 C674 0.961 . S
H662 C674 0.959 . S
H663 C677 0.929 . S
H664 C678 0.931 . S
H665 C680 0.930 . S
C666 H654 0.930 . S
C666 C667 1.399 . S
C666 C671 1.399 . S
C667 C666 1.399 . S
C667 C668 1.376 . S
C668 H655 0.930 . S
C668 C667 1.376 . S
C668 C669 1.388 . S
C669 H656 0.930 . S
C669 C668 1.388 . S
C669 C670 1.390 . S
C670 C669 1.390 . S
C670 C671 1.394 . S
C670 C676 1.465 . S
C671 C666 1.399 . S
C671 C670 1.394 . S
C671 C672 1.516 . S
C672 C671 1.516 . S
C672 C673 1.502 . S
C672 C674 1.561 . S
C672 C675 1.526 . S
C673 H657 0.959 . S
C673 H658 0.959 . S
C673 H659 0.961 . S
C673 C672 1.502 . S
C674 H660 0.960 . S
C674 H661 0.961 . S
C674 H662 0.959 . S
C674 C672 1.561 . S
C675 C672 1.526 . S
C675 C676 1.396 . S
C675 C680 1.390 . S
C676 C670 1.465 . S
C676 C675 1.396 . S
C676 C677 1.399 . S
C677 H663 0.929 . S
C677 C676 1.399 . S
C677 C678 1.385 . S
C678 H664 0.931 . S
C678 C677 1.385 . S
C678 C679 1.389 . S
C679 C678 1.389 . S
C679 C680 1.387 . S
C680 H665 0.930 . S
C680 C675 1.390 . S
C680 C679 1.387 . S
H681 C693 0.930 . S
H682 C695 0.930 . S
H683 C696 0.930 . S
H684 C700 0.959 . S
H685 C700 0.959 . S
H686 C700 0.961 . S
H687 C701 0.960 . S
H688 C701 0.961 . S
H689 C701 0.959 . S
H690 C704 0.929 . S
H691 C705 0.931 . S
H692 C707 0.930 . S
C693 H681 0.930 . S
C693 C694 1.399 . S
C693 C698 1.399 . S
C694 C693 1.399 . S
C694 C695 1.376 . S
C695 H682 0.930 . S
C695 C694 1.376 . S
C695 C696 1.388 . S
C696 H683 0.930 . S
C696 C695 1.388 . S
C696 C697 1.390 . S
C697 C696 1.390 . S
C697 C698 1.394 . S
C697 C703 1.465 . S
C698 C693 1.399 . S
C698 C697 1.394 . S
C698 C699 1.516 . S
C699 C698 1.516 . S
C699 C700 1.502 . S
C699 C701 1.561 . S
C699 C702 1.526 . S
C700 H684 0.959 . S
C700 H685 0.959 . S
C700 H686 0.961 . S
C700 C699 1.502 . S
C701 H687 0.960 . S
C701 H688 0.961 . S
C701 H689 0.959 . S
C701 C699 1.561 . S
C702 C699 1.526 . S
C702 C703 1.396 . S
C702 C707 1.390 . S
C703 C697 1.465 . S
C703 C702 1.396 . S
C703 C704 1.399 . S
C704 H690 0.929 . S
C704 C703 1.399 . S
C704 C705 1.385 . S
C705 H691 0.931 . S
C705 C704 1.385 . S
C705 C706 1.389 . S
C706 C705 1.389 . S
C706 C707 1.387 . S
C707 H692 0.930 . S
C707 C702 1.390 . S
C707 C706 1.387 . S
H708 C720 0.930 . S
H709 C722 0.930 . S
H710 C723 0.930 . S
H711 C727 0.959 . S
H712 C727 0.959 . S
H713 C727 0.961 . S
H714 C728 0.960 . S
H715 C728 0.961 . S
H716 C728 0.959 . S
H717 C731 0.929 . S
H718 C732 0.931 . S
H719 C734 0.930 . S
C720 H708 0.930 . S
C720 C721 1.399 . S
C720 C725 1.399 . S
C721 C720 1.399 . S
C721 C722 1.376 . S
C722 H709 0.930 . S
C722 C721 1.376 . S
C722 C723 1.388 . S
C723 H710 0.930 . S
C723 C722 1.388 . S
C723 C724 1.390 . S
C724 C723 1.390 . S
C724 C725 1.394 . S
C724 C730 1.465 . S
C725 C720 1.399 . S
C725 C724 1.394 . S
C725 C726 1.516 . S
C726 C725 1.516 . S
C726 C727 1.502 . S
C726 C728 1.561 . S
C726 C729 1.526 . S
C727 H711 0.959 . S
C727 H712 0.959 . S
C727 H713 0.961 . S
C727 C726 1.502 . S
C728 H714 0.960 . S
C728 H715 0.961 . S
C728 H716 0.959 . S
C728 C726 1.561 . S
C729 C726 1.526 . S
C729 C730 1.396 . S
C729 C734 1.390 . S
C730 C724 1.465 . S
C730 C729 1.396 . S
C730 C731 1.399 . S
C731 H717 0.929 . S
C731 C730 1.399 . S
C731 C732 1.385 . S
C732 H718 0.931 . S
C732 C731 1.385 . S
C732 C733 1.389 . S
C733 C732 1.389 . S
C733 C734 1.387 . S
C734 H719 0.930 . S
C734 C729 1.390 . S
C734 C733 1.387 . S
H735 C747 0.930 . S
H736 C749 0.930 . S
H737 C750 0.930 . S
H738 C754 0.959 . S
H739 C754 0.959 . S
H740 C754 0.961 . S
H741 C755 0.960 . S
H742 C755 0.961 . S
H743 C755 0.959 . S
H744 C758 0.929 . S
H745 C759 0.931 . S
H746 C761 0.930 . S
C747 H735 0.930 . S
C747 C748 1.399 . S
C747 C752 1.399 . S
C748 C747 1.399 . S
C748 C749 1.376 . S
C749 H736 0.930 . S
C749 C748 1.376 . S
C749 C750 1.388 . S
C750 H737 0.930 . S
C750 C749 1.388 . S
C750 C751 1.390 . S
C751 C750 1.390 . S
C751 C752 1.394 . S
C751 C757 1.465 . S
C752 C747 1.399 . S
C752 C751 1.394 . S
C752 C753 1.516 . S
C753 C752 1.516 . S
C753 C754 1.502 . S
C753 C755 1.561 . S
C753 C756 1.526 . S
C754 H738 0.959 . S
C754 H739 0.959 . S
C754 H740 0.961 . S
C754 C753 1.502 . S
C755 H741 0.960 . S
C755 H742 0.961 . S
C755 H743 0.959 . S
C755 C753 1.561 . S
C756 C753 1.526 . S
C756 C757 1.396 . S
C756 C761 1.390 . S
C757 C751 1.465 . S
C757 C756 1.396 . S
C757 C758 1.399 . S
C758 H744 0.929 . S
C758 C757 1.399 . S
C758 C759 1.385 . S
C759 H745 0.931 . S
C759 C758 1.385 . S
C759 C760 1.389 . S
C760 C759 1.389 . S
C760 C761 1.387 . S
C761 H746 0.930 . S
C761 C756 1.390 . S
C761 C760 1.387 . S
H762 C774 0.930 . S
H763 C776 0.930 1_554 S
H764 C777 0.930 . S
H765 C781 0.959 . S
H766 C781 0.959 . S
H767 C781 0.961 . S
H768 C782 0.960 . S
H769 C782 0.961 . S
H770 C782 0.959 . S
H771 C785 0.929 . S
H772 C786 0.931 . S
H773 C788 0.930 . S
C774 H762 0.930 . S
C774 C775 1.399 . S
C774 C779 1.399 . S
C775 C774 1.399 . S
C775 C776 1.376 . S
C776 H763 0.930 1_556 S
C776 C775 1.376 . S
C776 C777 1.388 . S
C777 H764 0.930 . S
C777 C776 1.388 . S
C777 C778 1.390 . S
C778 C777 1.390 . S
C778 C779 1.394 . S
C778 C784 1.465 . S
C779 C774 1.399 . S
C779 C778 1.394 . S
C779 C780 1.516 . S
C780 C779 1.516 . S
C780 C781 1.502 . S
C780 C782 1.561 . S
C780 C783 1.526 . S
C781 H765 0.959 . S
C781 H766 0.959 . S
C781 H767 0.961 . S
C781 C780 1.502 . S
C782 H768 0.960 . S
C782 H769 0.961 . S
C782 H770 0.959 . S
C782 C780 1.561 . S
C783 C780 1.526 . S
C783 C784 1.396 . S
C783 C788 1.390 . S
C784 C778 1.465 . S
C784 C783 1.396 . S
C784 C785 1.399 . S
C785 H771 0.929 . S
C785 C784 1.399 . S
C785 C786 1.385 . S
C786 H772 0.931 . S
C786 C785 1.385 . S
C786 C787 1.389 . S
C787 C786 1.389 . S
C787 C788 1.387 . S
C788 H773 0.930 . S
C788 C783 1.390 . S
C788 C787 1.387 . S
H789 C801 0.930 . S
H790 C803 0.930 . S
H791 C804 0.930 . S
H792 C808 0.959 . S
H793 C808 0.959 . S
H794 C808 0.961 . S
H795 C809 0.960 . S
H796 C809 0.961 . S
H797 C809 0.959 . S
H798 C812 0.929 . S
H799 C813 0.931 . S
H800 C815 0.930 1_556 S
C801 H789 0.930 . S
C801 C802 1.399 . S
C801 C806 1.399 . S
C802 C801 1.399 . S
C802 C803 1.376 . S
C803 H790 0.930 . S
C803 C802 1.376 . S
C803 C804 1.388 . S
C804 H791 0.930 . S
C804 C803 1.388 . S
C804 C805 1.390 . S
C805 C804 1.390 . S
C805 C806 1.394 . S
C805 C811 1.465 . S
C806 C801 1.399 . S
C806 C805 1.394 . S
C806 C807 1.516 . S
C807 C806 1.516 . S
C807 C808 1.502 . S
C807 C809 1.561 . S
C807 C810 1.526 . S
C808 H792 0.959 . S
C808 H793 0.959 . S
C808 H794 0.961 . S
C808 C807 1.502 . S
C809 H795 0.960 . S
C809 H796 0.961 . S
C809 H797 0.959 . S
C809 C807 1.561 . S
C810 C807 1.526 . S
C810 C811 1.396 . S
C810 C815 1.390 . S
C811 C805 1.465 . S
C811 C810 1.396 . S
C811 C812 1.399 . S
C812 H798 0.929 . S
C812 C811 1.399 . S
C812 C813 1.385 . S
C813 H799 0.931 . S
C813 C812 1.385 . S
C813 C814 1.389 . S
C814 C813 1.389 . S
C814 C815 1.387 . S
C815 H800 0.930 1_554 S
C815 C810 1.390 . S
C815 C814 1.387 . S
C181 C0 1.482 . S
C193 C97 1.482 . S
C208 C15 1.465 . S
C220 C110 1.469 . S
C235 C125 1.490 . S
C247 C41 1.489 . S
C262 C42 1.484 . S
C274 C127 1.484 . S
C289 C57 1.456 . S
C301 C141 1.455 . S
C316 C167 1.446 . S
C328 C83 1.448 . S
C343 C113 1.562 . S
C355 C12 1.547 . S
C370 C27 1.570 . S
C382 C139 1.579 . S
C397 C153 1.537 . S
C409 C29 1.529 . S
C424 C155 1.533 . S
C436 C54 1.548 1_554 S
C451 C69 1.544 . S
C463 C85 1.532 . S
C478 C71 1.575 . S
C490 C98 1.563 . S
C505 C166 1.839 . S
C517 C1 1.861 . S
C532 C96 1.814 . S
C544 C14 1.865 . S
C559 C40 1.870 . S
C571 C111 1.821 . S
C586 C124 1.838 . S
C598 C43 1.828 . S
C613 C126 1.818 . S
C625 C56 1.854 . S
C640 C140 1.818 . S
C652 C82 1.855 . S
C667 C13 1.580 . S
C679 C152 1.598 . S
C694 C154 1.574 . S
C706 C26 1.604 . S
C721 C28 1.573 . S
C733 C84 1.605 . S
C748 C55 1.594 . S
C760 C99 1.583 . S
C775 C68 1.573 1_556 S
C787 C112 1.605 . S
C802 C70 1.574 . S
C814 C138 1.604 1_554 S
