# Generated by pormake.
# Topology uoa, (4)-cn, num edge types: 1
# Building blocks:
#     Node 0, Type 0, BuildingBlock: NAWXER_clean_sbu_0, # of connection points: 4
#     Node 1, Type 0, BuildingBlock: NAWXER_clean_sbu_0, # of connection points: 4
#     Node 2, Type 0, BuildingBlock: NAWXER_clean_sbu_0, # of connection points: 4
#     Node 3, Type 0, BuildingBlock: NAWXER_clean_sbu_0, # of connection points: 4
#     Node 4, Type 0, BuildingBlock: NAWXER_clean_sbu_0, # of connection points: 4
#     Node 5, Type 0, BuildingBlock: NAWXER_clean_sbu_0, # of connection points: 4
#     Node 6, Type 0, BuildingBlock: NAWXER_clean_sbu_0, # of connection points: 4
#     Node 7, Type 0, BuildingBlock: NAWXER_clean_sbu_0, # of connection points: 4
#     Node 8, Type 0, BuildingBlock: NAWXER_clean_sbu_0, # of connection points: 4
#     Node 9, Type 0, BuildingBlock: NAWXER_clean_sbu_0, # of connection points: 4
#     Node 10, Type 0, BuildingBlock: NAWXER_clean_sbu_0, # of connection points: 4
#     Node 11, Type 0, BuildingBlock: NAWXER_clean_sbu_0, # of connection points: 4
#     Node 12, Type 0, BuildingBlock: NAWXER_clean_sbu_0, # of connection points: 4
#     Node 13, Type 0, BuildingBlock: NAWXER_clean_sbu_0, # of connection points: 4
#     Node 14, Type 0, BuildingBlock: NAWXER_clean_sbu_0, # of connection points: 4
#     Node 15, Type 0, BuildingBlock: NAWXER_clean_sbu_0, # of connection points: 4
#     Node 16, Type 0, BuildingBlock: NAWXER_clean_sbu_0, # of connection points: 4
#     Node 17, Type 0, BuildingBlock: NAWXER_clean_sbu_0, # of connection points: 4
#     Node 18, Type 0, BuildingBlock: NAWXER_clean_sbu_0, # of connection points: 4
#     Node 19, Type 0, BuildingBlock: NAWXER_clean_sbu_0, # of connection points: 4
#     Node 20, Type 0, BuildingBlock: NAWXER_clean_sbu_0, # of connection points: 4
#     Node 21, Type 0, BuildingBlock: NAWXER_clean_sbu_0, # of connection points: 4
#     Node 22, Type 0, BuildingBlock: NAWXER_clean_sbu_0, # of connection points: 4
#     Node 23, Type 0, BuildingBlock: NAWXER_clean_sbu_0, # of connection points: 4
#     Node 24, Type 0, BuildingBlock: NAWXER_clean_sbu_0, # of connection points: 4
#     Node 25, Type 0, BuildingBlock: NAWXER_clean_sbu_0, # of connection points: 4
#     Node 26, Type 0, BuildingBlock: NAWXER_clean_sbu_0, # of connection points: 4
#     Node 27, Type 0, BuildingBlock: NAWXER_clean_sbu_0, # of connection points: 4
#     Node 28, Type 0, BuildingBlock: NAWXER_clean_sbu_0, # of connection points: 4
#     Node 29, Type 0, BuildingBlock: NAWXER_clean_sbu_0, # of connection points: 4
#     Node 30, Type 0, BuildingBlock: NAWXER_clean_sbu_0, # of connection points: 4
#     Node 31, Type 0, BuildingBlock: NAWXER_clean_sbu_0, # of connection points: 4
#     Edge 32, Type (0, 0), BuildingBlock: UVAHIK_clean_linker_0, # of connection points: 2
#     Edge 33, Type (0, 0), BuildingBlock: UVAHIK_clean_linker_0, # of connection points: 2
#     Edge 34, Type (0, 0), BuildingBlock: UVAHIK_clean_linker_0, # of connection points: 2
#     Edge 35, Type (0, 0), BuildingBlock: UVAHIK_clean_linker_0, # of connection points: 2
#     Edge 36, Type (0, 0), BuildingBlock: UVAHIK_clean_linker_0, # of connection points: 2
#     Edge 37, Type (0, 0), BuildingBlock: UVAHIK_clean_linker_0, # of connection points: 2
#     Edge 38, Type (0, 0), BuildingBlock: UVAHIK_clean_linker_0, # of connection points: 2
#     Edge 39, Type (0, 0), BuildingBlock: UVAHIK_clean_linker_0, # of connection points: 2
#     Edge 40, Type (0, 0), BuildingBlock: UVAHIK_clean_linker_0, # of connection points: 2
#     Edge 41, Type (0, 0), BuildingBlock: UVAHIK_clean_linker_0, # of connection points: 2
#     Edge 42, Type (0, 0), BuildingBlock: UVAHIK_clean_linker_0, # of connection points: 2
#     Edge 43, Type (0, 0), BuildingBlock: UVAHIK_clean_linker_0, # of connection points: 2
#     Edge 44, Type (0, 0), BuildingBlock: UVAHIK_clean_linker_0, # of connection points: 2
#     Edge 45, Type (0, 0), BuildingBlock: UVAHIK_clean_linker_0, # of connection points: 2
#     Edge 46, Type (0, 0), BuildingBlock: UVAHIK_clean_linker_0, # of connection points: 2
#     Edge 47, Type (0, 0), BuildingBlock: UVAHIK_clean_linker_0, # of connection points: 2
#     Edge 48, Type (0, 0), BuildingBlock: UVAHIK_clean_linker_0, # of connection points: 2
#     Edge 49, Type (0, 0), BuildingBlock: UVAHIK_clean_linker_0, # of connection points: 2
#     Edge 50, Type (0, 0), BuildingBlock: UVAHIK_clean_linker_0, # of connection points: 2
#     Edge 51, Type (0, 0), BuildingBlock: UVAHIK_clean_linker_0, # of connection points: 2
#     Edge 52, Type (0, 0), BuildingBlock: UVAHIK_clean_linker_0, # of connection points: 2
#     Edge 53, Type (0, 0), BuildingBlock: UVAHIK_clean_linker_0, # of connection points: 2
#     Edge 54, Type (0, 0), BuildingBlock: UVAHIK_clean_linker_0, # of connection points: 2
#     Edge 55, Type (0, 0), BuildingBlock: UVAHIK_clean_linker_0, # of connection points: 2
#     Edge 56, Type (0, 0), BuildingBlock: UVAHIK_clean_linker_0, # of connection points: 2
#     Edge 57, Type (0, 0), BuildingBlock: UVAHIK_clean_linker_0, # of connection points: 2
#     Edge 58, Type (0, 0), BuildingBlock: UVAHIK_clean_linker_0, # of connection points: 2
#     Edge 59, Type (0, 0), BuildingBlock: UVAHIK_clean_linker_0, # of connection points: 2
#     Edge 60, Type (0, 0), BuildingBlock: UVAHIK_clean_linker_0, # of connection points: 2
#     Edge 61, Type (0, 0), BuildingBlock: UVAHIK_clean_linker_0, # of connection points: 2
#     Edge 62, Type (0, 0), BuildingBlock: UVAHIK_clean_linker_0, # of connection points: 2
#     Edge 63, Type (0, 0), BuildingBlock: UVAHIK_clean_linker_0, # of connection points: 2
#     Edge 64, Type (0, 0), BuildingBlock: UVAHIK_clean_linker_0, # of connection points: 2
#     Edge 65, Type (0, 0), BuildingBlock: UVAHIK_clean_linker_0, # of connection points: 2
#     Edge 66, Type (0, 0), BuildingBlock: UVAHIK_clean_linker_0, # of connection points: 2
#     Edge 67, Type (0, 0), BuildingBlock: UVAHIK_clean_linker_0, # of connection points: 2
#     Edge 68, Type (0, 0), BuildingBlock: UVAHIK_clean_linker_0, # of connection points: 2
#     Edge 69, Type (0, 0), BuildingBlock: UVAHIK_clean_linker_0, # of connection points: 2
#     Edge 70, Type (0, 0), BuildingBlock: UVAHIK_clean_linker_0, # of connection points: 2
#     Edge 71, Type (0, 0), BuildingBlock: UVAHIK_clean_linker_0, # of connection points: 2
#     Edge 72, Type (0, 0), BuildingBlock: UVAHIK_clean_linker_0, # of connection points: 2
#     Edge 73, Type (0, 0), BuildingBlock: UVAHIK_clean_linker_0, # of connection points: 2
#     Edge 74, Type (0, 0), BuildingBlock: UVAHIK_clean_linker_0, # of connection points: 2
#     Edge 75, Type (0, 0), BuildingBlock: UVAHIK_clean_linker_0, # of connection points: 2
#     Edge 76, Type (0, 0), BuildingBlock: UVAHIK_clean_linker_0, # of connection points: 2
#     Edge 77, Type (0, 0), BuildingBlock: UVAHIK_clean_linker_0, # of connection points: 2
#     Edge 78, Type (0, 0), BuildingBlock: UVAHIK_clean_linker_0, # of connection points: 2
#     Edge 79, Type (0, 0), BuildingBlock: UVAHIK_clean_linker_0, # of connection points: 2
#     Edge 80, Type (0, 0), BuildingBlock: UVAHIK_clean_linker_0, # of connection points: 2
#     Edge 81, Type (0, 0), BuildingBlock: UVAHIK_clean_linker_0, # of connection points: 2
#     Edge 82, Type (0, 0), BuildingBlock: UVAHIK_clean_linker_0, # of connection points: 2
#     Edge 83, Type (0, 0), BuildingBlock: UVAHIK_clean_linker_0, # of connection points: 2
#     Edge 84, Type (0, 0), BuildingBlock: UVAHIK_clean_linker_0, # of connection points: 2
#     Edge 85, Type (0, 0), BuildingBlock: UVAHIK_clean_linker_0, # of connection points: 2
#     Edge 86, Type (0, 0), BuildingBlock: UVAHIK_clean_linker_0, # of connection points: 2
#     Edge 87, Type (0, 0), BuildingBlock: UVAHIK_clean_linker_0, # of connection points: 2
#     Edge 88, Type (0, 0), BuildingBlock: UVAHIK_clean_linker_0, # of connection points: 2
#     Edge 89, Type (0, 0), BuildingBlock: UVAHIK_clean_linker_0, # of connection points: 2
#     Edge 90, Type (0, 0), BuildingBlock: UVAHIK_clean_linker_0, # of connection points: 2
#     Edge 91, Type (0, 0), BuildingBlock: UVAHIK_clean_linker_0, # of connection points: 2
#     Edge 92, Type (0, 0), BuildingBlock: UVAHIK_clean_linker_0, # of connection points: 2
#     Edge 93, Type (0, 0), BuildingBlock: UVAHIK_clean_linker_0, # of connection points: 2
#     Edge 94, Type (0, 0), BuildingBlock: UVAHIK_clean_linker_0, # of connection points: 2
#     Edge 95, Type (0, 0), BuildingBlock: UVAHIK_clean_linker_0, # of connection points: 2
# Relax obj value: 0.037
# Max RMSD: 0.224
# Mean RMSD: 0.224
data_MOF--net-uoa--node1-NAWXER_clean_sbu_0--edge1-UVAHIK_clean_linker_0
_symmetry_space_group_name_H-M    P1
_symmetry_Int_Tables_number       1
_symmetry_cell_setting            triclinic
loop_
_symmetry_equiv_pos_as_xyz
'x, y, z'
_cell_length_a     97.619974
_cell_length_b     97.570169
_cell_length_c     38.176636
_cell_angle_alpha  89.986849
_cell_angle_beta   89.986218
_cell_angle_gamma 90.01156
loop_
_atom_site_label
_atom_site_type_symbol
_atom_site_fract_x
_atom_site_fract_y
_atom_site_fract_z
_atom_type_partial_charge
C0 C 0.00669 0.09955 0.98712 0.0
C1 C 0.00319 0.09692 0.11401 0.0
O2 O 0.01732 0.09396 0.00079 0.0
Zn3 Zn 0.02421 0.08862 0.05269 0.0
O4 O 0.997 0.10355 0.00678 0.0
Zn5 Zn 0.00494 0.09795 0.05053 0.0
O6 O 0.02223 0.11184 0.05709 0.0
O7 O 0.04067 0.09877 0.05696 0.0
O8 O 0.99434 0.10116 0.09219 0.0
O9 O 0.01459 0.09204 0.10283 0.0
O10 O 0.02628 0.06919 0.05026 0.0
O11 O 0.00478 0.07584 0.04574 0.0
C12 C 0.03531 0.11058 0.05912 0.0
C13 C 0.01375 0.06622 0.04601 0.0
C14 C 0.17849 0.7666 0.28995 0.0
C15 C 0.13427 0.78716 0.31223 0.0
O16 O 0.16908 0.75742 0.2914 0.0
Zn17 Zn 0.14714 0.75709 0.29984 0.0
O18 O 0.17535 0.77909 0.29429 0.0
Zn19 Zn 0.15611 0.77656 0.30024 0.0
O20 O 0.15444 0.76676 0.35076 0.0
O21 O 0.14538 0.74634 0.3419 0.0
O22 O 0.14582 0.79279 0.3072 0.0
O23 O 0.13318 0.77406 0.30999 0.0
O24 O 0.14046 0.74912 0.25709 0.0
O25 O 0.14945 0.76963 0.24949 0.0
C26 C 0.15012 0.75527 0.36284 0.0
C27 C 0.14371 0.7589 0.2368 0.0
C28 C 0.49003 0.89938 0.61417 0.0
C29 C 0.48602 0.89553 0.48755 0.0
O30 O 0.4786 0.9042 0.60306 0.0
Zn31 Zn 0.46851 0.9066 0.55304 0.0
O32 O 0.49859 0.89456 0.59238 0.0
Zn33 Zn 0.48785 0.89751 0.5509 0.0
O34 O 0.48759 0.91969 0.54534 0.0
O35 O 0.46593 0.92588 0.54951 0.0
O36 O 0.49579 0.89177 0.50728 0.0
O37 O 0.47534 0.90105 0.50112 0.0
O38 O 0.45226 0.89618 0.55858 0.0
O39 O 0.47088 0.88339 0.55843 0.0
C40 C 0.4784 0.92911 0.54525 0.0
C41 C 0.4578 0.88446 0.56088 0.0
C42 C 0.31569 0.22994 0.79349 0.0
C43 C 0.35974 0.20856 0.81203 0.0
O44 O 0.32526 0.23896 0.79363 0.0
Zn45 Zn 0.34732 0.23887 0.80019 0.0
O46 O 0.31868 0.21743 0.79826 0.0
Zn47 Zn 0.338 0.21963 0.80216 0.0
O48 O 0.34069 0.22959 0.85226 0.0
O49 O 0.34991 0.24981 0.84163 0.0
O50 O 0.34799 0.20321 0.80834 0.0
O51 O 0.3611 0.22163 0.80944 0.0
O52 O 0.35356 0.24652 0.75658 0.0
O53 O 0.34402 0.22618 0.75046 0.0
C54 C 0.34539 0.24107 0.86341 0.0
C55 C 0.3498 0.23674 0.7369 0.0
C56 C 0.03684 0.88412 0.43477 0.0
C57 C 0.01599 0.92879 0.4486 0.0
O58 O 0.02371 0.88312 0.43547 0.0
Zn59 Zn 0.00665 0.89729 0.44136 0.0
O60 O 0.04241 0.89579 0.43825 0.0
Zn61 Zn 0.02611 0.90626 0.44172 0.0
O62 O 0.01831 0.90055 0.49247 0.0
O63 O -0.00209 0.89142 0.48385 0.0
O64 O 0.02854 0.92562 0.44565 0.0
O65 O 0.00686 0.91934 0.44737 0.0
O66 O 0.9966 0.89472 0.39865 0.0
O67 O 0.01713 0.90363 0.39052 0.0
C68 C 0.00737 0.89503 0.5047 0.0
C69 C 0.0058 0.89909 0.37799 0.0
C70 C 0.35067 0.75902 0.75705 0.0
C71 C 0.34527 0.75441 0.63081 0.0
O72 O 0.34492 0.76959 0.74357 0.0
Zn73 Zn 0.33857 0.77607 0.69209 0.0
O74 O 0.35417 0.74913 0.73738 0.0
Zn75 Zn 0.34769 0.75671 0.69394 0.0
O76 O 0.36159 0.77376 0.68366 0.0
O77 O 0.34874 0.79236 0.68494 0.0
O78 O 0.34985 0.74566 0.65248 0.0
O79 O 0.34077 0.76596 0.64207 0.0
O80 O 0.31927 0.77846 0.69702 0.0
O81 O 0.3257 0.75688 0.70162 0.0
C82 C 0.36039 0.78683 0.68076 0.0
C83 C 0.31621 0.76599 0.70215 0.0
C84 C 0.48584 0.10104 0.00534 0.0
C85 C 0.49167 0.09754 0.8789 0.0
O86 O 0.47578 0.0948 0.9907 0.0
Zn87 Zn 0.46983 0.0892 0.93825 0.0
O88 O 0.49552 0.10566 0.98652 0.0
Zn89 Zn 0.48866 0.09932 0.94209 0.0
O90 O 0.47114 0.11251 0.93304 0.0
O91 O 0.45315 0.09886 0.93147 0.0
O92 O 0.49976 0.10278 0.90124 0.0
O93 O 0.48038 0.09215 0.88927 0.0
O94 O 0.46818 0.06985 0.94136 0.0
O95 O 0.48943 0.07712 0.94803 0.0
C96 C 0.45817 0.11083 0.92953 0.0
C97 C 0.4807 0.06725 0.94717 0.0
C98 C 0.14809 0.24009 0.12891 0.0
C99 C 0.14351 0.23554 0.25541 0.0
O100 O 0.15268 0.22855 0.14001 0.0
Zn101 Zn 0.15519 0.21845 0.19001 0.0
O102 O 0.14358 0.24881 0.15073 0.0
Zn103 Zn 0.14601 0.23777 0.19209 0.0
O104 O 0.16805 0.23766 0.19874 0.0
O105 O 0.17451 0.2161 0.19404 0.0
O106 O 0.1398 0.24537 0.23578 0.0
O107 O 0.14921 0.22497 0.24176 0.0
O108 O 0.14502 0.20213 0.18341 0.0
O109 O 0.13211 0.22069 0.18237 0.0
C110 C 0.17757 0.22858 0.1989 0.0
C111 C 0.13334 0.20762 0.17954 0.0
C112 C 0.98759 0.89441 0.00471 0.0
C113 C 0.98906 0.89906 0.87813 0.0
O114 O 0.99713 0.8911 0.98377 0.0
Zn115 Zn 0.98826 0.89697 0.9415 0.0
O116 O 0.97653 0.89972 0.99263 0.0
Zn117 Zn 0.96859 0.90547 0.94202 0.0
O118 O 0.95255 0.89461 0.93837 0.0
O119 O 0.97154 0.8824 0.93535 0.0
O120 O 0.97762 0.90325 0.89076 0.0
O121 O -0.00163 0.89487 0.8987 0.0
O122 O 0.98752 0.91896 0.94853 0.0
O123 O 0.96571 0.92475 0.94658 0.0
C124 C 0.95839 0.88309 0.93472 0.0
C125 C 0.97816 0.92819 0.95003 0.0
C126 C 0.84988 0.23711 0.75596 0.0
C127 C 0.84674 0.24041 0.62922 0.0
O128 O 0.85362 0.24686 0.73614 0.0
Zn129 Zn 0.84801 0.23875 0.69262 0.0
O130 O 0.8444 0.22637 0.74253 0.0
Zn131 Zn 0.83896 0.21933 0.69085 0.0
O132 O 0.84931 0.20301 0.68652 0.0
O133 O 0.86213 0.22165 0.68605 0.0
O134 O 0.84206 0.22895 0.64058 0.0
O135 O 0.85096 0.24934 0.65086 0.0
O136 O 0.82594 0.23858 0.69771 0.0
O137 O 0.81958 0.21697 0.69371 0.0
C138 C 0.86104 0.20854 0.6842 0.0
C139 C 0.81644 0.22948 0.69771 0.0
C140 C 0.50245 0.09614 0.37959 0.0
C141 C 0.50914 0.10202 0.50514 0.0
O142 O 0.49444 0.10167 0.40165 0.0
Zn143 Zn 0.5059 0.09911 0.44223 0.0
O144 O 0.51386 0.09107 0.39008 0.0
Zn145 Zn 0.52483 0.08916 0.43889 0.0
O146 O 0.52674 0.0699 0.44416 0.0
O147 O 0.50542 0.07702 0.45051 0.0
O148 O 0.51917 0.09562 0.49087 0.0
O149 O 0.49932 0.10621 0.48615 0.0
O150 O 0.52313 0.11227 0.42997 0.0
O151 O 0.54131 0.09888 0.42962 0.0
C152 C 0.51426 0.06724 0.45047 0.0
C153 C 0.53608 0.11068 0.42577 0.0
C154 C 0.63458 0.78663 0.18184 0.0
C155 C 0.67891 0.76547 0.19869 0.0
O156 O 0.64632 0.79208 0.18483 0.0
Zn157 Zn 0.65652 0.77571 0.19007 0.0
O158 O 0.63339 0.77353 0.18381 0.0
Zn159 Zn 0.64735 0.75635 0.1915 0.0
O160 O 0.64122 0.74835 0.23472 0.0
O161 O 0.65047 0.76881 0.24144 0.0
O162 O 0.66937 0.75641 0.19819 0.0
O163 O 0.67586 0.77798 0.19422 0.0
O164 O 0.65387 0.76605 0.13974 0.0
O165 O 0.64479 0.74571 0.14965 0.0
C166 C 0.64479 0.75813 0.25464 0.0
C167 C 0.64926 0.75459 0.12819 0.0
C168 C 0.95812 0.11103 0.56307 0.0
C169 C 0.97883 0.06695 0.53948 0.0
O170 O 0.95252 0.09947 0.55796 0.0
Zn171 Zn 0.96875 0.08925 0.55049 0.0
O172 O 0.9712 0.11216 0.56062 0.0
Zn173 Zn 0.9882 0.09831 0.55001 0.0
O174 O 0.99604 0.10518 0.50721 0.0
O175 O 0.97553 0.09616 0.49988 0.0
O176 O 0.98796 0.07641 0.54109 0.0
O177 O 0.96634 0.07001 0.54404 0.0
O178 O 0.97863 0.09078 0.60085 0.0
O179 O -0.001 0.09997 0.59206 0.0
C180 C 0.98619 0.10198 0.48709 0.0
C181 C 0.99011 0.09511 0.61295 0.0
C182 C 0.64784 0.24014 0.36418 0.0
C183 C 0.64533 0.2374 0.23721 0.0
O184 O 0.64372 0.24912 0.34257 0.0
Zn185 Zn 0.64682 0.23869 0.30066 0.0
O186 O 0.65255 0.22871 0.35274 0.0
Zn187 Zn 0.65586 0.2193 0.30223 0.0
O188 O 0.67524 0.21691 0.29989 0.0
O189 O 0.66892 0.23853 0.29599 0.0
O190 O 0.65074 0.2266 0.25048 0.0
O191 O 0.64141 0.24702 0.25724 0.0
O192 O 0.63266 0.22157 0.30633 0.0
O193 O 0.64549 0.20295 0.30568 0.0
C194 C 0.67841 0.22942 0.29605 0.0
C195 C 0.63375 0.20845 0.3078 0.0
C196 C 0.50512 0.89999 0.11438 0.0
C197 C 0.50991 0.89576 0.98794 0.0
O198 O 0.49648 0.89546 0.09238 0.0
Zn199 Zn 0.50764 0.89794 0.05126 0.0
O200 O 0.51668 0.90461 0.10354 0.0
Zn201 Zn 0.52691 0.90719 0.0538 0.0
O202 O 0.52934 0.9265 0.05041 0.0
O203 O 0.50779 0.92007 0.04468 0.0
O204 O 0.52033 0.90166 0.00177 0.0
O205 O 0.50025 0.89158 0.00749 0.0
O206 O 0.52463 0.88404 0.06107 0.0
O207 O 0.5432 0.89691 0.06022 0.0
C208 C 0.5169 0.92959 0.04504 0.0
C209 C 0.53769 0.88523 0.06393 0.0
C210 C 0.84607 0.75311 0.86433 0.0
C211 C 0.85156 0.75778 0.73807 0.0
O212 O 0.85059 0.74435 0.84264 0.0
Zn213 Zn 0.84858 0.75546 0.80121 0.0
O214 O 0.84169 0.76471 0.8531 0.0
Zn215 Zn 0.83963 0.77491 0.80314 0.0
O216 O 0.82036 0.77748 0.79821 0.0
O217 O 0.82661 0.75586 0.79346 0.0
O218 O 0.8459 0.7684 0.75161 0.0
O219 O 0.855 0.74786 0.75771 0.0
O220 O 0.86263 0.77236 0.81163 0.0
O221 O 0.84996 0.79108 0.81044 0.0
C222 C 0.81719 0.76505 0.79295 0.0
C223 C 0.86155 0.78543 0.81464 0.0
C224 C 0.50964 0.60111 0.49083 0.0
C225 C 0.50443 0.59469 0.61656 0.0
O226 O 0.52014 0.59519 0.50423 0.0
Zn227 Zn 0.52643 0.58852 0.5557 0.0
O228 O 0.49976 0.6046 0.51053 0.0
Zn229 Zn 0.50718 0.59783 0.55378 0.0
O230 O 0.52417 0.61156 0.56487 0.0
O231 O 0.54269 0.59864 0.56411 0.0
O232 O 0.49606 0.59999 0.595 0.0
O233 O 0.5159 0.58999 0.60538 0.0
O234 O 0.52886 0.56932 0.54977 0.0
O235 O 0.50729 0.5758 0.5453 0.0
C236 C 0.5372 0.6103 0.56826 0.0
C237 C 0.5164 0.5663 0.54445 0.0
C238 C 0.63448 0.28742 0.8117 0.0
C239 C 0.67841 0.26619 0.79009 0.0
O240 O 0.6332 0.27432 0.80986 0.0
Zn241 Zn 0.64695 0.25711 0.80026 0.0
O242 O 0.64613 0.29283 0.8067 0.0
Zn243 Zn 0.65617 0.27644 0.80032 0.0
O244 O 0.64946 0.26942 0.74968 0.0
O245 O 0.64017 0.24906 0.75769 0.0
O246 O 0.67541 0.27872 0.79435 0.0
O247 O 0.6689 0.25712 0.7917 0.0
O248 O 0.64505 0.24651 0.84249 0.0
O249 O 0.65435 0.26684 0.85106 0.0
C250 C 0.64357 0.25872 0.73721 0.0
C251 C 0.6499 0.25542 0.8633 0.0
C252 C 0.9863 0.39388 0.98693 0.0
C253 C 0.99031 0.39903 0.11321 0.0
O254 O 0.97569 0.39967 0.00011 0.0
Zn255 Zn 0.96897 0.40595 0.05139 0.0
O256 O 0.99606 0.39029 0.00688 0.0
Zn257 Zn 0.98828 0.3967 0.05012 0.0
O258 O 0.97113 0.38289 0.05965 0.0
O259 O 0.9526 0.39583 0.05791 0.0
O260 O -0.0009 0.39436 0.09179 0.0
O261 O 0.97885 0.40363 0.10167 0.0
O262 O 0.96674 0.42528 0.0467 0.0
O263 O 0.98829 0.41872 0.04312 0.0
C264 C 0.95805 0.38414 0.06212 0.0
C265 C 0.97927 0.42828 0.0424 0.0
C266 C 0.84619 0.74034 0.36455 0.0
C267 C 0.85085 0.73564 0.2381 0.0
O268 O 0.84154 0.72882 0.35349 0.0
Zn269 Zn 0.83901 0.71868 0.30357 0.0
O270 O 0.85074 0.74903 0.34269 0.0
Zn271 Zn 0.84828 0.73797 0.30136 0.0
O272 O 0.82626 0.73796 0.29453 0.0
O273 O 0.81967 0.71644 0.29941 0.0
O274 O 0.85457 0.74549 0.25764 0.0
O275 O 0.84509 0.72511 0.25181 0.0
O276 O 0.84912 0.70232 0.31041 0.0
O277 O 0.86209 0.72084 0.31128 0.0
C278 C 0.81668 0.72894 0.29437 0.0
C279 C 0.86082 0.70778 0.31424 0.0
C280 C 0.50839 0.39479 0.00477 0.0
C281 C 0.50305 0.39908 0.87858 0.0
O282 O 0.51854 0.40108 0.9907 0.0
Zn283 Zn 0.52473 0.40698 0.93861 0.0
O284 O 0.49875 0.39036 0.98551 0.0
Zn285 Zn 0.50584 0.39695 0.94166 0.0
O286 O 0.52332 0.38371 0.93264 0.0
O287 O 0.54139 0.39727 0.93186 0.0
O288 O 0.49487 0.39377 0.9006 0.0
O289 O 0.51434 0.40435 0.8893 0.0
O290 O 0.52647 0.4263 0.94247 0.0
O291 O 0.50516 0.41912 0.94844 0.0
C292 C 0.53632 0.38534 0.92947 0.0
C293 C 0.51395 0.42894 0.94811 0.0
C294 C 0.84578 0.25442 0.12957 0.0
C295 C 0.85054 0.25788 0.25596 0.0
O296 O 0.84123 0.26588 0.14122 0.0
Zn297 Zn 0.83873 0.27553 0.19163 0.0
O298 O 0.85027 0.24552 0.15093 0.0
Zn299 Zn 0.84785 0.25615 0.19285 0.0
O300 O 0.82585 0.25626 0.19995 0.0
O301 O 0.81941 0.27785 0.19612 0.0
O302 O 0.85406 0.24811 0.23594 0.0
O303 O 0.84486 0.26858 0.24288 0.0
O304 O 0.84896 0.29189 0.18625 0.0
O305 O 0.86184 0.2733 0.18496 0.0
C306 C 0.81634 0.26535 0.20065 0.0
C307 C 0.86068 0.28641 0.18304 0.0
C308 C 0.9588 0.61078 0.43534 0.0
C309 C 0.98009 0.56633 0.4493 0.0
O310 O 0.97189 0.61199 0.43726 0.0
Zn311 Zn 0.9891 0.598 0.44403 0.0
O312 O 0.95339 0.59899 0.43777 0.0
Zn313 Zn 0.9698 0.58878 0.44212 0.0
O314 O 0.97678 0.59418 0.49395 0.0
O315 O 0.99713 0.60369 0.4876 0.0
O316 O 0.96758 0.56938 0.44492 0.0
O317 O 0.98912 0.5759 0.44938 0.0
O318 O -0.00029 0.60101 0.4023 0.0
O319 O 0.97941 0.59198 0.39184 0.0
C320 C 0.98746 0.59975 0.50743 0.0
C321 C 0.99085 0.59675 0.38057 0.0
C322 C 0.64881 0.74086 0.62791 0.0
C323 C 0.64558 0.73743 0.75461 0.0
O324 O 0.6535 0.72939 0.63919 0.0
Zn325 Zn 0.65663 0.71976 0.68941 0.0
O326 O 0.6446 0.74976 0.64961 0.0
Zn327 Zn 0.64755 0.73914 0.69133 0.0
O328 O 0.66963 0.73903 0.6967 0.0
O329 O 0.67599 0.71744 0.69231 0.0
O330 O 0.64185 0.7472 0.73484 0.0
O331 O 0.6511 0.72673 0.74114 0.0
O332 O 0.64635 0.70341 0.685 0.0
O333 O 0.63345 0.72199 0.68472 0.0
C334 C 0.67912 0.72993 0.69661 0.0
C335 C 0.6346 0.70888 0.68281 0.0
C336 C 0.48533 0.39484 0.5048 0.0
C337 C 0.49053 0.39859 0.37845 0.0
O338 O 0.49495 0.39034 0.48559 0.0
Zn339 Zn 0.48781 0.3967 0.44157 0.0
O340 O 0.47516 0.40105 0.49063 0.0
Zn341 Zn 0.4689 0.40671 0.43848 0.0
O342 O 0.45225 0.39693 0.43212 0.0
O343 O 0.47034 0.38342 0.43296 0.0
O344 O 0.47926 0.4039 0.38915 0.0
O345 O 0.49873 0.39335 0.4005 0.0
O346 O 0.48849 0.41889 0.44743 0.0
O347 O 0.46717 0.42606 0.4418 0.0
C348 C 0.45734 0.385 0.42989 0.0
C349 C 0.47972 0.42872 0.44695 0.0
C350 C 0.31695 0.73018 0.20027 0.0
C351 C 0.3612 0.7092 0.18138 0.0
O352 O 0.32002 0.71769 0.19559 0.0
Zn353 Zn 0.33935 0.72003 0.19169 0.0
O354 O 0.32647 0.73927 0.20016 0.0
Zn355 Zn 0.34853 0.73936 0.19381 0.0
O356 O 0.35104 0.75039 0.15245 0.0
O357 O 0.34192 0.73013 0.14173 0.0
O358 O 0.36244 0.72227 0.18421 0.0
O359 O 0.34951 0.70372 0.18514 0.0
O360 O 0.34528 0.72654 0.24344 0.0
O361 O 0.35467 0.74696 0.23758 0.0
C362 C 0.34654 0.74166 0.13063 0.0
C363 C 0.35096 0.73711 0.25714 0.0
C364 C 0.03697 0.61104 0.93156 0.0
C365 C 0.01645 0.56677 0.95419 0.0
O366 O 0.04262 0.5995 0.93662 0.0
Zn367 Zn 0.02642 0.58917 0.94382 0.0
O368 O 0.02388 0.6121 0.93394 0.0
Zn369 Zn 0.00695 0.59813 0.94435 0.0
O370 O -0.00096 0.60482 0.98723 0.0
O371 O 0.01955 0.59582 0.99461 0.0
O372 O 0.00728 0.57619 0.95276 0.0
O373 O 0.02894 0.56991 0.9498 0.0
O374 O 0.01654 0.59079 0.89339 0.0
O375 O 0.99614 0.59986 0.90237 0.0
C376 C 0.00884 0.60155 0.00741 0.0
C377 C 0.00504 0.59509 0.88139 0.0
C378 C 0.13299 0.28571 0.67906 0.0
C379 C 0.17741 0.26539 0.69994 0.0
O380 O 0.14458 0.29136 0.68326 0.0
Zn381 Zn 0.15494 0.2752 0.6903 0.0
O382 O 0.13193 0.27262 0.68194 0.0
Zn383 Zn 0.14602 0.25575 0.69216 0.0
O384 O 0.1397 0.24807 0.73568 0.0
O385 O 0.14879 0.26861 0.74187 0.0
O386 O 0.16802 0.25618 0.69951 0.0
O387 O 0.1742 0.27783 0.69495 0.0
O388 O 0.15282 0.26504 0.64027 0.0
O389 O 0.14395 0.24466 0.65075 0.0
C390 C 0.14317 0.25796 0.75537 0.0
C391 C 0.14844 0.25344 0.62905 0.0
C392 C 0.49098 0.59704 0.11798 0.0
C393 C 0.48648 0.59923 0.99106 0.0
O394 O 0.49968 0.60114 0.0956 0.0
Zn395 Zn 0.48865 0.59804 0.05452 0.0
O396 O 0.47942 0.5923 0.10752 0.0
Zn397 Zn 0.46933 0.58889 0.05802 0.0
O398 O 0.46688 0.56953 0.05649 0.0
O399 O 0.48841 0.57585 0.04978 0.0
O400 O 0.47602 0.59361 0.00549 0.0
O401 O 0.49618 0.60363 0.01016 0.0
O402 O 0.47164 0.61216 0.06178 0.0
O403 O 0.45304 0.59933 0.06262 0.0
C404 C 0.4793 0.56636 0.05104 0.0
C405 C 0.45856 0.61107 0.06434 0.0
C406 C 0.14754 0.74075 0.86366 0.0
C407 C 0.14485 0.73762 0.73674 0.0
O408 O 0.14334 0.74967 0.84197 0.0
Zn409 Zn 0.14641 0.73912 0.8002 0.0
O410 O 0.15228 0.72931 0.85234 0.0
Zn411 Zn 0.15553 0.71976 0.802 0.0
O412 O 0.17493 0.71744 0.79956 0.0
O413 O 0.16852 0.73904 0.79544 0.0
O414 O 0.15032 0.72688 0.75019 0.0
O415 O 0.14091 0.74727 0.75661 0.0
O416 O 0.13233 0.72197 0.80651 0.0
O417 O 0.14521 0.70339 0.80599 0.0
C418 C 0.17804 0.72996 0.79559 0.0
C419 C 0.13346 0.70886 0.80828 0.0
C420 C 0.03594 0.38327 0.55906 0.0
C421 C 0.01571 0.42818 0.54435 0.0
O422 O 0.04165 0.39492 0.5566 0.0
Zn423 Zn 0.0255 0.40553 0.55199 0.0
O424 O 0.02283 0.38238 0.55713 0.0
Zn425 Zn 0.00597 0.39675 0.55019 0.0
O426 O -0.00217 0.39112 0.50668 0.0
O427 O 0.01844 0.40005 0.50032 0.0
O428 O 0.00647 0.41881 0.54447 0.0
O429 O 0.02815 0.42488 0.54873 0.0
O430 O 0.01579 0.4027 0.60227 0.0
O431 O 0.99529 0.39411 0.59196 0.0
C432 C 0.00765 0.39469 0.48688 0.0
C433 C 0.00425 0.39823 0.61362 0.0
C434 C 0.34985 0.2587 0.23691 0.0
C435 C 0.34494 0.2543 0.36329 0.0
O436 O 0.35355 0.24891 0.25666 0.0
Zn437 Zn 0.34712 0.25652 0.30011 0.0
O438 O 0.34399 0.26922 0.25033 0.0
Zn439 Zn 0.33773 0.27574 0.30186 0.0
O440 O 0.34765 0.29219 0.30835 0.0
O441 O 0.3608 0.27381 0.30973 0.0
O442 O 0.34025 0.26577 0.35201 0.0
O443 O 0.34957 0.24559 0.34162 0.0
O444 O 0.32509 0.25636 0.29297 0.0
O445 O 0.31841 0.27786 0.29743 0.0
C446 C 0.3594 0.28687 0.31233 0.0
C447 C 0.31549 0.26535 0.29257 0.0
C448 C 0.00569 0.09711 0.66503 0.0
C449 C 0.99251 0.0951 0.65118 0.0
C450 C 0.00772 0.09755 0.70131 0.0
C451 C 0.99052 0.08895 0.78582 0.0
H452 H 0.01722 0.11413 0.82472 0.0
C453 C 0.99263 0.10225 0.93276 0.0
C454 C 0.0055 0.10055 0.94862 0.0
C455 C 0.99137 0.10198 0.89631 0.0
C456 C 0.00977 0.10702 0.81413 0.0
H457 H 0.9711 0.09216 0.66446 0.0
H458 H 0.97452 0.09341 0.72728 0.0
H459 H 0.01446 0.11257 0.76126 0.0
H460 H 0.02721 0.09777 0.93875 0.0
H461 H 0.02501 0.09761 0.87495 0.0
H462 H 0.98559 0.08375 0.83885 0.0
C463 C 0.9834 0.0942 0.71043 0.0
C464 C 0.00824 0.10604 0.77779 0.0
C465 C 0.98142 0.09356 0.67429 0.0
C466 C 0.01715 0.09906 0.92728 0.0
C467 C 0.01591 0.09902 0.89081 0.0
C468 C 0.99191 0.0901 0.82208 0.0
C469 C 0.99657 0.09619 0.72449 0.0
C470 C -0.00145 0.09701 0.76314 0.0
C471 C 0.00298 0.10023 0.87504 0.0
C472 C 0.00152 0.09916 0.83656 0.0
H473 H 0.01445 0.09828 0.64785 0.0
H474 H 0.01803 0.09888 0.71112 0.0
H475 H 0.98318 0.08164 0.77561 0.0
H476 H 0.98346 0.10338 0.9485 0.0
H477 H 0.98129 0.10304 0.88471 0.0
C478 C 0.14747 0.73226 0.92545 0.0
C479 C 0.14651 0.74325 0.90177 0.0
C480 C 0.14604 0.73446 0.9614 0.0
C481 C 0.15018 0.76027 0.02929 0.0
H482 H 0.12588 0.73712 0.08374 0.0
C483 C 0.14258 0.76932 0.17701 0.0
C484 C 0.14173 0.75768 0.19855 0.0
C485 C 0.14184 0.76806 0.14061 0.0
C486 C 0.13284 0.74358 0.06906 0.0
H487 H 0.14348 0.7652 0.89725 0.0
H488 H 0.14129 0.76908 0.96035 0.0
H489 H 0.12759 0.73385 0.02054 0.0
H490 H 0.13919 0.73561 0.19888 0.0
H491 H 0.13836 0.73333 0.13545 0.0
H492 H 0.15588 0.76967 0.07764 0.0
C493 C 0.14304 0.75876 0.9509 0.0
C494 C 0.13376 0.74173 0.03284 0.0
C495 C 0.14426 0.75653 0.91485 0.0
C496 C 0.13979 0.74478 0.18298 0.0
C497 C 0.13925 0.7435 0.14654 0.0
C498 C 0.14941 0.762 0.06557 0.0
C499 C 0.14383 0.74773 0.97447 0.0
C500 C 0.14249 0.75001 0.01266 0.0
C501 C 0.14044 0.7551 0.12484 0.0
C502 C 0.14078 0.75363 0.08599 0.0
H503 H 0.14914 0.7219 0.9162 0.0
H504 H 0.14682 0.7258 0.97906 0.0
H505 H 0.15709 0.7667 0.01436 0.0
H506 H 0.14395 0.77942 0.18826 0.0
H507 H 0.14248 0.77727 0.12485 0.0
C508 C 0.5131 0.9003 0.17654 0.0
C509 C 0.50228 0.89931 0.1524 0.0
C510 C 0.51064 0.89901 0.21241 0.0
C511 C 0.4847 0.90341 0.27968 0.0
H512 H 0.5072 0.87849 0.33401 0.0
C513 C 0.47555 0.89561 0.42768 0.0
C514 C 0.48717 0.89419 0.44907 0.0
C515 C 0.47675 0.89515 0.39121 0.0
C516 C 0.50093 0.88563 0.31939 0.0
H517 H 0.48035 0.89644 0.14697 0.0
H518 H 0.47602 0.89453 0.21002 0.0
H519 H 0.51059 0.88023 0.2709 0.0
H520 H 0.50916 0.89109 0.44903 0.0
H521 H 0.51136 0.89077 0.3856 0.0
H522 H 0.47539 0.90927 0.32806 0.0
C523 C 0.48641 0.89618 0.20096 0.0
C524 C 0.50284 0.88656 0.2832 0.0
C525 C 0.48889 0.89724 0.16495 0.0
C526 C 0.49999 0.89211 0.43326 0.0
C527 C 0.50123 0.89185 0.3968 0.0
C528 C 0.48292 0.90264 0.31596 0.0
C529 C 0.49729 0.89692 0.22496 0.0
C530 C 0.49481 0.89552 0.26306 0.0
C531 C 0.48964 0.89346 0.37524 0.0
C532 C 0.49108 0.8938 0.33637 0.0
H533 H 0.52354 0.90183 0.16772 0.0
H534 H 0.51919 0.89975 0.23041 0.0
H535 H 0.47846 0.91049 0.26474 0.0
H536 H 0.4655 0.89712 0.4391 0.0
H537 H 0.46756 0.89614 0.37557 0.0
C538 C 0.34457 0.26261 0.42519 0.0
C539 C 0.34561 0.25166 0.4014 0.0
C540 C 0.3459 0.26035 0.46113 0.0
C541 C 0.34179 0.2347 0.5293 0.0
H542 H 0.36672 0.25756 0.58261 0.0
C543 C 0.34992 0.22607 0.67728 0.0
C544 C 0.3513 0.23776 0.69844 0.0
C545 C 0.35036 0.22716 0.64079 0.0
C546 C 0.35958 0.25119 0.56828 0.0
H547 H 0.34861 0.22971 0.39671 0.0
H548 H 0.35061 0.22573 0.45988 0.0
H549 H 0.36478 0.2607 0.51945 0.0
H550 H 0.35438 0.25976 0.69797 0.0
H551 H 0.35469 0.26177 0.63449 0.0
H552 H 0.33612 0.22553 0.57801 0.0
C553 C 0.34888 0.23606 0.45048 0.0
C554 C 0.35853 0.25296 0.53206 0.0
C555 C 0.34777 0.23835 0.4144 0.0
C556 C 0.35339 0.25054 0.68238 0.0
C557 C 0.35363 0.25167 0.64589 0.0
C558 C 0.34267 0.23305 0.56562 0.0
C559 C 0.3481 0.24707 0.47412 0.0
C560 C 0.34957 0.24479 0.51228 0.0
C561 C 0.352 0.24001 0.62456 0.0
C562 C 0.35152 0.24134 0.58566 0.0
H563 H 0.34297 0.27299 0.41601 0.0
H564 H 0.34513 0.26899 0.47885 0.0
H565 H 0.33472 0.22835 0.51465 0.0
H566 H 0.34841 0.21605 0.68891 0.0
H567 H 0.34937 0.21791 0.62535 0.0
C568 C 0.00424 0.89688 0.82549 0.0
C569 C 0.9911 0.89861 0.8398 0.0
C570 C 0.00604 0.89609 0.78922 0.0
C571 C 0.98835 0.90358 0.70502 0.0
H572 H 0.01594 0.87919 0.66683 0.0
C573 C 0.99249 0.89168 0.55741 0.0
C574 C 0.00559 0.89362 0.54295 0.0
C575 C 0.99068 0.89154 0.59371 0.0
C576 C 0.00823 0.88607 0.67721 0.0
H577 H 0.96952 0.90071 0.8274 0.0
H578 H 0.97258 0.8989 0.7644 0.0
H579 H 0.01282 0.88062 0.73016 0.0
H580 H 0.02712 0.89642 0.55512 0.0
H581 H 0.02395 0.89592 0.61857 0.0
H582 H 0.98361 0.90877 0.65188 0.0
C583 C 0.98157 0.89855 0.78096 0.0
C584 C 0.00649 0.88697 0.71347 0.0
C585 C 0.9798 0.89952 0.81715 0.0
C586 C 0.01689 0.89494 0.56549 0.0
C587 C 0.0151 0.8946 0.60178 0.0
C588 C 0.98997 0.90253 0.66879 0.0
C589 C 0.99471 0.89683 0.76648 0.0
C590 C 0.99656 0.89579 0.72787 0.0
C591 C 0.00196 0.89313 0.6162 0.0
C592 C -4e-05 0.89381 0.65457 0.0
H593 H 0.01315 0.89621 0.8423 0.0
H594 H 0.01634 0.89502 0.77904 0.0
H595 H 0.98079 0.91068 0.71507 0.0
H596 H 0.98358 0.89066 0.54071 0.0
H597 H 0.98045 0.89028 0.60424 0.0
C598 C 0.35119 0.76982 0.81651 0.0
C599 C 0.35241 0.75807 0.79546 0.0
C600 C 0.3518 0.7688 0.853 0.0
C601 C 0.36118 0.74488 0.92558 0.0
H602 H 0.33646 0.76779 0.97946 0.0
C603 C 0.34629 0.73342 0.06868 0.0
C604 C 0.34728 0.74435 0.09254 0.0
C605 C 0.34765 0.73572 0.03276 0.0
C606 C 0.34351 0.76143 0.96475 0.0
H607 H 0.3554 0.73606 0.79614 0.0
H608 H 0.356 0.73419 0.85964 0.0
H609 H 0.33775 0.77057 0.91608 0.0
H610 H 0.35024 0.76629 0.09739 0.0
H611 H 0.35228 0.77035 0.03424 0.0
H612 H 0.36646 0.73539 0.97437 0.0
C613 C 0.35494 0.74427 0.84813 0.0
C614 C 0.34432 0.76305 0.92841 0.0
C615 C 0.35453 0.74532 0.81163 0.0
C616 C 0.34943 0.75767 0.07964 0.0
C617 C 0.35057 0.76 0.04357 0.0
C618 C 0.36021 0.74314 0.96182 0.0
C619 C 0.35344 0.75598 0.86935 0.0
C620 C 0.3531 0.75473 0.90827 0.0
C621 C 0.34983 0.74901 0.01986 0.0
C622 C 0.35129 0.75132 0.98169 0.0
H623 H 0.34965 0.77982 0.8048 0.0
H624 H 0.35091 0.77809 0.86835 0.0
H625 H 0.36827 0.73849 0.91116 0.0
H626 H 0.3447 0.72302 0.07777 0.0
H627 H 0.34691 0.72709 0.01499 0.0
C628 C 0.47682 0.09512 0.06483 0.0
C629 C 0.48639 0.10216 0.04399 0.0
C630 C 0.47783 0.09536 0.10132 0.0
C631 C 0.50306 0.10127 0.1718 0.0
H632 H 0.47086 0.10062 0.23131 0.0
C633 C 0.50723 0.08863 0.31821 0.0
C634 C 0.4992 0.09626 0.34173 0.0
C635 C 0.50502 0.08957 0.28217 0.0
C636 C 0.47997 0.10093 0.21511 0.0
H637 H 0.50425 0.11538 0.04521 0.0
H638 H 0.50583 0.11605 0.10893 0.0
H639 H 0.4682 0.10298 0.16811 0.0
H640 H 0.48233 0.11062 0.34588 0.0
H641 H 0.47861 0.11245 0.28283 0.0
H642 H 0.51485 0.09957 0.21872 0.0
C643 C 0.49772 0.11008 0.09704 0.0
C644 C 0.47843 0.10212 0.17881 0.0
C645 C 0.49677 0.10977 0.0605 0.0
C646 C 0.48866 0.10457 0.32844 0.0
C647 C 0.4865 0.10559 0.29229 0.0
C648 C 0.50459 0.10015 0.20804 0.0
C649 C 0.48838 0.10271 0.1179 0.0
C650 C 0.48996 0.10219 0.15667 0.0
C651 C 0.4948 0.09825 0.26869 0.0
C652 C 0.49307 0.09982 0.23016 0.0
H653 H 0.46873 0.08912 0.05297 0.0
H654 H 0.47057 0.08941 0.11645 0.0
H655 H 0.51216 0.10112 0.15561 0.0
H656 H 0.51536 0.08203 0.32759 0.0
H657 H 0.51138 0.08351 0.26485 0.0
C658 C 0.14885 0.26167 0.56707 0.0
C659 C 0.14791 0.25074 0.59094 0.0
C660 C 0.14759 0.25935 0.53113 0.0
C661 C 0.15192 0.23368 0.46303 0.0
H662 H 0.12674 0.2563 0.4098 0.0
C663 C 0.14359 0.22489 0.3151 0.0
C664 C 0.14208 0.23657 0.2939 0.0
C665 C 0.14323 0.226 0.3516 0.0
C666 C 0.13396 0.25 0.4241 0.0
H667 H 0.14519 0.22876 0.59577 0.0
H668 H 0.14332 0.22468 0.53262 0.0
H669 H 0.12873 0.25949 0.47292 0.0
H670 H 0.13886 0.25855 0.29435 0.0
H671 H 0.13869 0.26059 0.35782 0.0
H672 H 0.15759 0.22452 0.41431 0.0
C673 C 0.14491 0.23504 0.54194 0.0
C674 C 0.13503 0.2518 0.4603 0.0
C675 C 0.14595 0.23738 0.57802 0.0
C676 C 0.13995 0.24934 0.30995 0.0
C677 C 0.13978 0.25048 0.34645 0.0
C678 C 0.151 0.232 0.42672 0.0
C679 C 0.14556 0.24604 0.51822 0.0
C680 C 0.14408 0.24372 0.48006 0.0
C681 C 0.14154 0.23885 0.36781 0.0
C682 C 0.14207 0.2402 0.40671 0.0
H683 H 0.1503 0.27209 0.57616 0.0
H684 H 0.14826 0.26799 0.51336 0.0
H685 H 0.15906 0.22739 0.47766 0.0
H686 H 0.14515 0.21488 0.3035 0.0
H687 H 0.14432 0.21677 0.36708 0.0
C688 C 0.01505 0.89969 0.317 0.0
C689 C 0.00378 0.89849 0.33968 0.0
C690 C 0.01331 0.89862 0.28083 0.0
C691 C 0.98875 0.88625 0.21345 0.0
H692 H 0.01096 0.90869 0.15172 0.0
C693 C 0.97808 0.89391 0.0655 0.0
C694 C 0.98942 0.89295 0.04292 0.0
C695 C 0.97989 0.89358 0.10178 0.0
C696 C 0.00479 0.90226 0.16867 0.0
H697 H 0.9818 0.89545 0.34222 0.0
H698 H 0.97866 0.89408 0.27898 0.0
H699 H 0.01373 0.91073 0.2149 0.0
H700 H 0.0115 0.89062 0.0406 0.0
H701 H 0.01465 0.89027 0.10413 0.0
H702 H 0.97952 0.87816 0.16686 0.0
C703 C 0.98892 0.89546 0.28914 0.0
C704 C 0.00638 0.90339 0.20489 0.0
C705 C 0.9907 0.89635 0.3254 0.0
C706 C 0.00257 0.89136 0.05733 0.0
C707 C 0.00439 0.89124 0.09363 0.0
C708 C 0.98703 0.88526 0.1772 0.0
C709 C 0.00022 0.8965 0.26638 0.0
C710 C -0.00159 0.89537 0.22778 0.0
C711 C 0.99308 0.89248 0.11615 0.0
C712 C 0.99506 0.89324 0.15451 0.0
H713 H 0.02529 0.9012 0.32722 0.0
H714 H 0.02229 0.89922 0.26425 0.0
H715 H 0.9826 0.87972 0.23018 0.0
H716 H 0.96782 0.8951 0.05516 0.0
H717 H 0.97101 0.89463 0.1186 0.0
C718 C 0.84525 0.26298 0.06792 0.0
C719 C 0.84637 0.25194 0.09142 0.0
C720 C 0.84642 0.26083 0.0319 0.0
C721 C 0.84198 0.23532 0.96354 0.0
H722 H 0.86658 0.25835 0.90965 0.0
C723 C 0.84999 0.2266 0.81571 0.0
C724 C 0.8512 0.23828 0.7944 0.0
C725 C 0.85042 0.22778 0.85215 0.0
C726 C 0.85953 0.25194 0.92417 0.0
H727 H 0.84935 0.22997 0.09557 0.0
H728 H 0.85108 0.2262 0.03231 0.0
H729 H 0.8649 0.26141 0.9729 0.0
H730 H 0.85392 0.26033 0.7945 0.0
H731 H 0.85419 0.26247 0.858 0.0
H732 H 0.83616 0.22616 0.91495 0.0
C733 C 0.84941 0.2365 0.04197 0.0
C734 C 0.85863 0.25367 0.96041 0.0
C735 C 0.84846 0.23867 0.0781 0.0
C736 C 0.85306 0.25113 0.81024 0.0
C737 C 0.85329 0.25233 0.8467 0.0
C738 C 0.84272 0.23372 0.92722 0.0
C739 C 0.84853 0.24759 0.0186 0.0
C740 C 0.8498 0.24542 0.98038 0.0
C741 C 0.85186 0.24068 0.86817 0.0
C742 C 0.85146 0.24205 0.90701 0.0
H743 H 0.84369 0.27333 0.07736 0.0
H744 H 0.84557 0.26953 0.01438 0.0
H745 H 0.83499 0.22892 0.97835 0.0
H746 H 0.84867 0.21654 0.80423 0.0
H747 H 0.84959 0.21854 0.86774 0.0
C748 C 0.48673 0.0908 0.81702 0.0
C749 C 0.49479 0.09817 0.84099 0.0
C750 C 0.48901 0.09199 0.78106 0.0
C751 C 0.51444 0.1034 0.71502 0.0
H752 H 0.48256 0.10371 0.65449 0.0
C753 C 0.5182 0.09685 0.56503 0.0
C754 C 0.50867 0.10369 0.54367 0.0
C755 C 0.51712 0.09742 0.60149 0.0
C756 C 0.49158 0.10384 0.67096 0.0
H757 H 0.51173 0.11242 0.84599 0.0
H758 H 0.51556 0.11471 0.78307 0.0
H759 H 0.47954 0.10227 0.7175 0.0
H760 H 0.49088 0.117 0.54388 0.0
H761 H 0.48919 0.11828 0.60751 0.0
H762 H 0.52647 0.1053 0.66838 0.0
C763 C 0.5076 0.10784 0.79212 0.0
C764 C 0.48986 0.10279 0.70716 0.0
C765 C 0.50538 0.10656 0.8282 0.0
C766 C 0.49832 0.11152 0.55959 0.0
C767 C 0.4973 0.11218 0.59609 0.0
C768 C 0.51617 0.10454 0.67876 0.0
C769 C 0.49933 0.10069 0.76809 0.0
C770 C 0.50126 0.10237 0.72964 0.0
C771 C 0.50654 0.10494 0.6175 0.0
C772 C 0.50476 0.10463 0.65624 0.0
H773 H 0.47857 0.08415 0.82599 0.0
H774 H 0.48266 0.08608 0.7634 0.0
H775 H 0.52346 0.10303 0.73151 0.0
H776 H 0.52627 0.09068 0.55362 0.0
H777 H 0.52431 0.09157 0.61705 0.0
C778 C 0.6487 0.73236 0.56619 0.0
C779 C 0.64782 0.74337 0.58982 0.0
C780 C 0.64727 0.73456 0.53025 0.0
C781 C 0.6516 0.76018 0.46215 0.0
H782 H 0.627 0.73719 0.4082 0.0
C783 C 0.6441 0.76876 0.31419 0.0
C784 C 0.64307 0.75704 0.29299 0.0
C785 C 0.6434 0.76766 0.35062 0.0
C786 C 0.63404 0.7436 0.42275 0.0
H787 H 0.64493 0.76534 0.59429 0.0
H788 H 0.64274 0.76921 0.53116 0.0
H789 H 0.62865 0.73411 0.47147 0.0
H790 H 0.6403 0.735 0.29327 0.0
H791 H 0.63955 0.73298 0.35677 0.0
H792 H 0.65745 0.76934 0.4136 0.0
C793 C 0.64443 0.75888 0.54066 0.0
C794 C 0.63492 0.74186 0.459 0.0
C795 C 0.64565 0.75666 0.57671 0.0
C796 C 0.64104 0.74423 0.30892 0.0
C797 C 0.64054 0.7431 0.34538 0.0
C798 C 0.65087 0.7618 0.42584 0.0
C799 C 0.64513 0.74783 0.51715 0.0
C800 C 0.64377 0.75008 0.47898 0.0
C801 C 0.64186 0.75479 0.36675 0.0
C802 C 0.64214 0.75347 0.40561 0.0
H803 H 0.6503 0.72199 0.57547 0.0
H804 H 0.64798 0.72588 0.51262 0.0
H805 H 0.6586 0.76656 0.47696 0.0
H806 H 0.64553 0.7788 0.30264 0.0
H807 H 0.64415 0.77692 0.36613 0.0
C808 C 9e-05 0.10593 0.43289 0.0
C809 C 0.98726 0.10409 0.44885 0.0
C810 C 0.00121 0.10648 0.39642 0.0
C811 C 0.98226 0.09634 0.31619 0.0
H812 H 0.01049 0.11766 0.26996 0.0
C813 C 0.98749 0.10064 0.16517 0.0
C814 C 0.00072 0.09814 0.15209 0.0
C815 C 0.98531 0.1021 0.20119 0.0
C816 C 0.00258 0.11164 0.2826 0.0
H817 H 0.96546 0.10211 0.43925 0.0
H818 H 0.96733 0.1036 0.37579 0.0
H819 H 0.00745 0.11966 0.33319 0.0
H820 H 0.02204 0.09533 0.16647 0.0
H821 H 0.01823 0.09806 0.22924 0.0
H822 H 0.97732 0.08849 0.26531 0.0
C823 C 0.97661 0.10414 0.39125 0.0
C824 C 0.00086 0.11272 0.31883 0.0
C825 C 0.97552 0.10339 0.42768 0.0
C826 C 0.01172 0.09718 0.17572 0.0
C827 C 0.00957 0.09885 0.21163 0.0
C828 C 0.98386 0.09541 0.27991 0.0
C829 C 0.9895 0.10539 0.37508 0.0
C830 C 0.99079 0.10495 0.3362 0.0
C831 C 0.99636 0.10131 0.2247 0.0
C832 C 0.99415 0.10291 0.26285 0.0
H833 H 0.00934 0.10642 0.44851 0.0
H834 H 0.01134 0.10726 0.385 0.0
H835 H 0.97456 0.08999 0.32861 0.0
H836 H 0.97882 0.10143 0.1476 0.0
H837 H 0.97503 0.10404 0.21065 0.0
C838 C 0.64582 0.22738 0.17688 0.0
C839 C 0.64439 0.23888 0.19875 0.0
C840 C 0.64585 0.22888 0.14047 0.0
C841 C 0.65464 0.25336 0.07255 0.0
H842 H 0.63217 0.23102 0.01131 0.0
C843 C 0.6513 0.26415 0.92467 0.0
C844 C 0.6498 0.25306 0.90155 0.0
C845 C 0.6506 0.26216 0.96082 0.0
C846 C 0.6387 0.23719 0.02795 0.0
H847 H 0.64168 0.26095 0.19964 0.0
H848 H 0.64198 0.26357 0.13596 0.0
H849 H 0.63068 0.22797 0.07468 0.0
H850 H 0.64665 0.23111 0.89821 0.0
H851 H 0.64594 0.2275 0.96142 0.0
H852 H 0.66302 0.26232 0.02624 0.0
C853 C 0.64302 0.25341 0.14709 0.0
C854 C 0.63776 0.23549 0.06424 0.0
C855 C 0.64276 0.25189 0.18348 0.0
C856 C 0.64778 0.23987 0.91538 0.0
C857 C 0.64727 0.23783 0.95164 0.0
C858 C 0.65575 0.25493 0.03631 0.0
C859 C 0.64467 0.24193 0.12529 0.0
C860 C 0.64565 0.24364 0.08684 0.0
C861 C 0.64858 0.24897 0.97485 0.0
C862 C 0.64771 0.24694 0.01348 0.0
H863 H 0.64706 0.21722 0.18789 0.0
H864 H 0.6472 0.21988 0.12421 0.0
H865 H 0.661 0.25962 0.08944 0.0
H866 H 0.65272 0.27447 0.91484 0.0
H867 H 0.65136 0.27104 0.97771 0.0
C868 C 0.50384 0.89114 0.66541 0.0
C869 C 0.49292 0.89898 0.65221 0.0
C870 C 0.50609 0.89021 0.70151 0.0
C871 C 0.48847 0.89544 0.78671 0.0
H872 H 0.52538 0.89409 0.82396 0.0
C873 C 0.49836 0.88678 0.93391 0.0
C874 C 0.50885 0.89456 0.94938 0.0
C875 C 0.4969 0.8864 0.89748 0.0
C876 C 0.515 0.89456 0.81405 0.0
H877 H 0.47604 0.91231 0.6665 0.0
H878 H 0.4802 0.91103 0.72924 0.0
H879 H 0.52192 0.89602 0.76102 0.0
H880 H 0.52615 0.90789 0.93872 0.0
H881 H 0.5234 0.90751 0.87545 0.0
H882 H 0.48153 0.89457 0.83974 0.0
C883 C 0.48681 0.90527 0.71187 0.0
C884 C 0.51301 0.89549 0.77785 0.0
C885 C 0.48448 0.90609 0.67583 0.0
C886 C 0.518 0.90173 0.92764 0.0
C887 C 0.51646 0.90145 0.89127 0.0
C888 C 0.49045 0.89462 0.82288 0.0
C889 C 0.49755 0.8972 0.72522 0.0
C890 C 0.49972 0.896 0.76372 0.0
C891 C 0.50581 0.89389 0.87571 0.0
C892 C 0.50374 0.89422 0.83706 0.0
H893 H 0.51049 0.88548 0.64791 0.0
H894 H 0.51435 0.88377 0.71081 0.0
H895 H 0.47808 0.89558 0.7768 0.0
H896 H 0.4912 0.88107 0.94993 0.0
H897 H 0.48874 0.88025 0.88642 0.0
C898 C 0.85201 0.76856 0.67855 0.0
C899 C 0.8532 0.75681 0.69962 0.0
C900 C 0.85248 0.76752 0.64205 0.0
C901 C 0.86133 0.74346 0.56931 0.0
H902 H 0.83666 0.76661 0.51598 0.0
C903 C 0.84591 0.73212 0.42654 0.0
C904 C 0.84696 0.74303 0.40264 0.0
C905 C 0.84736 0.73441 0.46244 0.0
C906 C 0.84369 0.76017 0.53054 0.0
H907 H 0.856 0.73478 0.69896 0.0
H908 H 0.85635 0.73286 0.63546 0.0
H909 H 0.83822 0.7694 0.57932 0.0
H910 H 0.85009 0.76495 0.39772 0.0
H911 H 0.8523 0.76899 0.46082 0.0
H912 H 0.86633 0.73389 0.52043 0.0
C913 C 0.85542 0.74296 0.64695 0.0
C914 C 0.84466 0.7618 0.56684 0.0
C915 C 0.85515 0.74404 0.68345 0.0
C916 C 0.84924 0.75634 0.41549 0.0
C917 C 0.85047 0.75866 0.45154 0.0
C918 C 0.8602 0.74171 0.53311 0.0
C919 C 0.85395 0.75467 0.62571 0.0
C920 C 0.85343 0.7534 0.58679 0.0
C921 C 0.84969 0.74769 0.47529 0.0
C922 C 0.8513 0.74998 0.51342 0.0
H923 H 0.8506 0.77858 0.69026 0.0
H924 H 0.85161 0.7768 0.62668 0.0
H925 H 0.86842 0.737 0.58356 0.0
H926 H 0.84421 0.72173 0.41749 0.0
H927 H 0.84658 0.72579 0.48023 0.0
C928 C 0.50725 0.60015 0.16827 0.0
C929 C 0.49383 0.59818 0.15592 0.0
C930 C 0.50979 0.60145 0.2042 0.0
C931 C 0.49362 0.61164 0.28649 0.0
H932 H 0.52064 0.58846 0.33144 0.0
C933 C 0.49601 0.60553 0.43645 0.0
C934 C 0.50872 0.60302 0.45246 0.0
C935 C 0.49493 0.60611 0.39999 0.0
C936 C 0.51325 0.59523 0.31932 0.0
H937 H 0.47254 0.59616 0.17149 0.0
H938 H 0.47698 0.59866 0.23405 0.0
H939 H 0.51758 0.58728 0.26813 0.0
H940 H 0.53037 0.59976 0.44285 0.0
H941 H 0.52858 0.60129 0.37932 0.0
H942 H 0.48937 0.61979 0.33729 0.0
C943 C 0.48552 0.59913 0.21596 0.0
C944 C 0.51146 0.59448 0.28303 0.0
C945 C 0.48301 0.5976 0.18017 0.0
C946 C 0.5204 0.60159 0.43127 0.0
C947 C 0.51935 0.60237 0.3948 0.0
C948 C 0.49553 0.61255 0.32268 0.0
C949 C 0.49893 0.60106 0.22832 0.0
C950 C 0.50149 0.60252 0.26638 0.0
C951 C 0.50656 0.6044 0.37862 0.0
C952 C 0.50522 0.60419 0.33971 0.0
H953 H 0.5158 0.60063 0.15021 0.0
H954 H 0.52022 0.60296 0.21311 0.0
H955 H 0.48598 0.61809 0.27417 0.0
H956 H 0.4868 0.60657 0.45204 0.0
H957 H 0.48486 0.60746 0.38862 0.0
C958 C 0.64459 0.25586 0.41546 0.0
C959 C 0.64678 0.24258 0.40231 0.0
C960 C 0.64336 0.25806 0.45152 0.0
C961 C 0.63395 0.24105 0.53338 0.0
H962 H 0.65612 0.26896 0.57815 0.0
C963 C 0.63964 0.24446 0.68364 0.0
C964 C 0.64163 0.25739 0.69897 0.0
C965 C 0.63917 0.24307 0.64722 0.0
C966 C 0.64964 0.2613 0.56609 0.0
H967 H 0.64927 0.2212 0.41659 0.0
H968 H 0.64693 0.22506 0.47949 0.0
H969 H 0.65742 0.26589 0.51493 0.0
H970 H 0.64398 0.27909 0.68829 0.0
H971 H 0.64262 0.27676 0.62491 0.0
H972 H 0.62596 0.23656 0.58425 0.0
C973 C 0.64621 0.23373 0.46188 0.0
C974 C 0.65046 0.25951 0.52985 0.0
C975 C 0.64765 0.23156 0.42591 0.0
C976 C 0.64258 0.26896 0.67722 0.0
C977 C 0.6419 0.2676 0.64084 0.0
C978 C 0.63298 0.24296 0.56958 0.0
C979 C 0.64407 0.247 0.47502 0.0
C980 C 0.64274 0.24928 0.51322 0.0
C981 C 0.64048 0.2546 0.6253 0.0
C982 C 0.64092 0.25302 0.58649 0.0
H983 H 0.64388 0.26456 0.39792 0.0
H984 H 0.64166 0.26838 0.46101 0.0
H985 H 0.62776 0.23319 0.52108 0.0
H986 H 0.63897 0.23534 0.69971 0.0
H987 H 0.63825 0.23287 0.63631 0.0
C988 C 0.98838 0.39544 0.66482 0.0
C989 C 0.0017 0.39737 0.65173 0.0
C990 C 0.98612 0.39429 0.70089 0.0
C991 C 0.00293 0.38445 0.78256 0.0
H992 H 0.97565 0.40719 0.82798 0.0
C993 C 0.00024 0.39002 0.93278 0.0
C994 C 0.98742 0.39219 0.94856 0.0
C995 C 0.00146 0.38964 0.89632 0.0
C996 C 0.98313 0.40055 0.81573 0.0
H997 H 0.0231 0.39953 0.66614 0.0
H998 H 0.01914 0.39732 0.729 0.0
H999 H 0.97859 0.40849 0.76467 0.0
H1000 H 0.96575 0.39505 0.9386 0.0
H1001 H 0.96777 0.39386 0.8751 0.0
H1002 H 0.00737 0.3763 0.83328 0.0
C1003 C 0.01047 0.39674 0.71136 0.0
C1004 C 0.98484 0.40137 0.77945 0.0
C1005 C 0.01271 0.39811 0.6754 0.0
C1006 C 0.97579 0.39348 0.92718 0.0
C1007 C 0.97697 0.39291 0.89074 0.0
C1008 C 0.0011 0.38348 0.81878 0.0
C1009 C 0.99717 0.39482 0.72443 0.0
C1010 C 0.99487 0.39345 0.76261 0.0
C1011 C 0.98986 0.39123 0.87478 0.0
C1012 C 0.99129 0.39164 0.83593 0.0
H1013 H 0.9797 0.39483 0.64723 0.0
H1014 H 0.97577 0.39276 0.71035 0.0
H1015 H 0.01062 0.3781 0.7701 0.0
H1016 H 0.00941 0.38908 0.94855 0.0
H1017 H 0.01158 0.38854 0.88509 0.0
C1018 C 0.85082 0.72489 0.17854 0.0
C1019 C 0.85233 0.73659 0.1996 0.0
C1020 C 0.85122 0.72593 0.14203 0.0
C1021 C 0.86057 0.74979 0.06927 0.0
H1022 H 0.83546 0.72714 0.01589 0.0
C1023 C 0.84564 0.76135 0.92628 0.0
C1024 C 0.84659 0.75041 0.90244 0.0
C1025 C 0.84691 0.75905 0.96223 0.0
C1026 C 0.8426 0.73344 0.03047 0.0
H1027 H 0.8556 0.75857 0.1989 0.0
H1028 H 0.85583 0.7605 0.1354 0.0
H1029 H 0.8369 0.72435 0.07927 0.0
H1030 H 0.84933 0.72843 0.89769 0.0
H1031 H 0.85121 0.72438 0.96087 0.0
H1032 H 0.86581 0.75923 0.02037 0.0
C1033 C 0.85471 0.75041 0.14689 0.0
C1034 C 0.84351 0.73181 0.06679 0.0
C1035 C 0.8545 0.74933 0.1834 0.0
C1036 C 0.84856 0.73707 0.91541 0.0
C1037 C 0.84961 0.73474 0.9515 0.0
C1038 C 0.85951 0.75155 0.03305 0.0
C1039 C 0.85294 0.73874 0.12567 0.0
C1040 C 0.85244 0.74003 0.08675 0.0
C1041 C 0.84896 0.74575 0.97518 0.0
C1042 C 0.85045 0.74345 0.01335 0.0
H1043 H 0.84923 0.7149 0.19026 0.0
H1044 H 0.85012 0.71667 0.12666 0.0
H1045 H 0.86779 0.75611 0.08352 0.0
H1046 H 0.84418 0.77176 0.91715 0.0
H1047 H 0.84624 0.7677 0.97996 0.0
C1048 C 0.49733 0.38545 0.05906 0.0
C1049 C 0.50766 0.39336 0.0433 0.0
C1050 C 0.49619 0.38484 0.09553 0.0
C1051 C 0.51489 0.39255 0.17826 0.0
H1052 H 0.47822 0.39432 0.21696 0.0
C1053 C 0.50416 0.38981 0.32745 0.0
C1054 C 0.49354 0.39809 0.34051 0.0
C1055 C 0.50634 0.38868 0.29134 0.0
C1056 C 0.48854 0.39394 0.20662 0.0
H1057 H 0.52506 0.40662 0.05348 0.0
H1058 H 0.52288 0.40581 0.11686 0.0
H1059 H 0.48127 0.39313 0.1539 0.0
H1060 H 0.47719 0.41203 0.326 0.0
H1061 H 0.48121 0.41036 0.26331 0.0
H1062 H 0.52215 0.39394 0.23102 0.0
C1063 C 0.51581 0.39986 0.10119 0.0
C1064 C 0.49029 0.39303 0.17041 0.0
C1065 C 0.51701 0.40039 0.06477 0.0
C1066 C 0.48539 0.40547 0.31679 0.0
C1067 C 0.48763 0.40443 0.28079 0.0
C1068 C 0.51314 0.39355 0.21452 0.0
C1069 C 0.50529 0.3922 0.11704 0.0
C1070 C 0.50349 0.39242 0.15573 0.0
C1071 C 0.498 0.39587 0.26757 0.0
C1072 C 0.49994 0.39438 0.22911 0.0
H1073 H 0.49003 0.37984 0.04324 0.0
H1074 H 0.48812 0.37864 0.10685 0.0
H1075 H 0.5252 0.39191 0.16789 0.0
H1076 H 0.51059 0.38394 0.34505 0.0
H1077 H 0.51434 0.3819 0.28208 0.0
C1078 C 0.85429 0.24392 0.3101 0.0
C1079 C 0.85229 0.25675 0.29429 0.0
C1080 C 0.85479 0.24273 0.34656 0.0
C1081 C 0.84446 0.26134 0.42717 0.0
H1082 H 0.8667 0.23362 0.47259 0.0
C1083 C 0.84983 0.25619 0.57796 0.0
C1084 C 0.84769 0.24291 0.59112 0.0
C1085 C 0.85099 0.25841 0.54189 0.0
C1086 C 0.86042 0.24138 0.46018 0.0
H1087 H 0.84985 0.2785 0.30413 0.0
H1088 H 0.85122 0.27653 0.36759 0.0
H1089 H 0.86832 0.23674 0.40933 0.0
H1090 H 0.8452 0.22152 0.57684 0.0
H1091 H 0.84743 0.2254 0.51396 0.0
H1092 H 0.83676 0.26607 0.47833 0.0
C1093 C 0.85196 0.26729 0.35201 0.0
C1094 C 0.86128 0.24314 0.42393 0.0
C1095 C 0.85127 0.26844 0.31559 0.0
C1096 C 0.84678 0.23189 0.56752 0.0
C1097 C 0.84816 0.23408 0.53156 0.0
C1098 C 0.84375 0.2597 0.46347 0.0
C1099 C 0.85348 0.25439 0.36802 0.0
C1100 C 0.85319 0.25303 0.40687 0.0
C1101 C 0.85027 0.24735 0.51842 0.0
C1102 C 0.85159 0.24959 0.48023 0.0
H1103 H 0.85503 0.23471 0.29437 0.0
H1104 H 0.85576 0.2326 0.35786 0.0
H1105 H 0.83788 0.26889 0.41498 0.0
H1106 H 0.85056 0.26489 0.59551 0.0
H1107 H 0.85266 0.26873 0.53236 0.0
C1108 C 0.01365 0.5937 0.81993 0.0
C1109 C 0.00259 0.59514 0.84317 0.0
C1110 C 0.0116 0.59439 0.78381 0.0
C1111 C 0.98654 0.60614 0.71685 0.0
H1112 H 0.00917 0.58407 0.65528 0.0
C1113 C 0.97719 0.59922 0.56751 0.0
C1114 C 0.98876 0.60076 0.54592 0.0
C1115 C 0.97855 0.59917 0.60396 0.0
C1116 C 0.00285 0.59036 0.67219 0.0
H1117 H 0.98064 0.59816 0.84676 0.0
H1118 H 0.97694 0.59883 0.78355 0.0
H1119 H 0.01178 0.58194 0.71846 0.0
H1120 H 0.01079 0.60368 0.54558 0.0
H1121 H 0.01317 0.60333 0.60931 0.0
H1122 H 0.97735 0.61419 0.67011 0.0
C1123 C 0.98728 0.59756 0.79324 0.0
C1124 C 0.00436 0.5892 0.70842 0.0
C1125 C 0.98938 0.59708 0.82948 0.0
C1126 C 0.00168 0.6025 0.56151 0.0
C1127 C 0.00306 0.60222 0.59793 0.0
C1128 C 0.98488 0.60713 0.68054 0.0
C1129 C -0.00161 0.59632 0.76991 0.0
C1130 C 0.99633 0.59717 0.73128 0.0
C1131 C 0.99153 0.60043 0.61946 0.0
C1132 C 0.99312 0.59935 0.65791 0.0
H1133 H 0.02399 0.59236 0.82963 0.0
H1134 H 0.02046 0.59368 0.76684 0.0
H1135 H 0.98031 0.6126 0.73351 0.0
H1136 H 0.96709 0.59789 0.55625 0.0
H1137 H 0.96951 0.59771 0.62001 0.0
C1138 C 0.64965 0.76312 0.06652 0.0
C1139 C 0.64859 0.75209 0.09006 0.0
C1140 C 0.64844 0.76095 0.03051 0.0
C1141 C 0.65302 0.73544 0.96226 0.0
H1142 H 0.62837 0.75836 0.90824 0.0
C1143 C 0.64537 0.72684 0.81426 0.0
C1144 C 0.64417 0.73854 0.79304 0.0
C1145 C 0.64484 0.72796 0.85071 0.0
C1146 C 0.63544 0.75198 0.9228 0.0
H1147 H 0.64568 0.73011 0.09432 0.0
H1148 H 0.6439 0.7263 0.03108 0.0
H1149 H 0.62994 0.76141 0.97151 0.0
H1150 H 0.64133 0.76057 0.7933 0.0
H1151 H 0.64087 0.76262 0.85681 0.0
H1152 H 0.65895 0.72635 0.9137 0.0
C1153 C 0.64554 0.73661 0.04069 0.0
C1154 C 0.63627 0.7537 0.95905 0.0
C1155 C 0.64652 0.73881 0.07681 0.0
C1156 C 0.6422 0.75136 0.80897 0.0
C1157 C 0.64186 0.75251 0.84544 0.0
C1158 C 0.65234 0.73385 0.92593 0.0
C1159 C 0.64637 0.74769 0.01728 0.0
C1160 C 0.64512 0.74549 0.97907 0.0
C1161 C 0.64328 0.74083 0.86682 0.0
C1162 C 0.64359 0.74215 0.90567 0.0
H1163 H 0.65118 0.77348 0.07591 0.0
H1164 H 0.64925 0.76964 0.01296 0.0
H1165 H 0.66001 0.72908 0.97711 0.0
H1166 H 0.64677 0.7168 0.80271 0.0
H1167 H 0.64567 0.71871 0.86623 0.0
C1168 C 0.48942 0.39036 0.82753 0.0
C1169 C 0.50002 0.39865 0.84064 0.0
C1170 C 0.48726 0.38925 0.79142 0.0
C1171 C 0.50511 0.39459 0.70677 0.0
H1172 H 0.4685 0.39233 0.66789 0.0
C1173 C 0.49646 0.38575 0.55928 0.0
C1174 C 0.48609 0.39356 0.54337 0.0
C1175 C 0.49759 0.38525 0.59576 0.0
C1176 C 0.47879 0.39303 0.6783 0.0
H1177 H 0.51633 0.41266 0.82624 0.0
H1178 H 0.51233 0.41104 0.76353 0.0
H1179 H 0.47148 0.39445 0.73103 0.0
H1180 H 0.46863 0.40676 0.5533 0.0
H1181 H 0.47079 0.40615 0.61669 0.0
H1182 H 0.51243 0.39374 0.6541 0.0
C1183 C 0.50593 0.40507 0.78097 0.0
C1184 C 0.48051 0.39408 0.71456 0.0
C1185 C 0.50816 0.40609 0.81698 0.0
C1186 C 0.47671 0.40061 0.56471 0.0
C1187 C 0.4779 0.40019 0.60114 0.0
C1188 C 0.50339 0.39363 0.67056 0.0
C1189 C 0.49559 0.39649 0.76769 0.0
C1190 C 0.49369 0.39499 0.72922 0.0
C1191 C 0.48844 0.39262 0.61713 0.0
C1192 C 0.49022 0.39293 0.65583 0.0
H1193 H 0.48301 0.38444 0.84509 0.0
H1194 H 0.47928 0.38245 0.78211 0.0
H1195 H 0.51542 0.39502 0.71716 0.0
H1196 H 0.50378 0.38013 0.54357 0.0
H1197 H 0.50568 0.37912 0.6072 0.0
C1198 C 0.35436 0.75086 0.31182 0.0
C1199 C 0.35236 0.7381 0.29564 0.0
C1200 C 0.35448 0.75195 0.34833 0.0
C1201 C 0.34332 0.73323 0.4283 0.0
H1202 H 0.36522 0.76088 0.47501 0.0
C1203 C 0.34802 0.73844 0.57969 0.0
C1204 C 0.34588 0.75175 0.59269 0.0
C1205 C 0.34916 0.73616 0.54361 0.0
C1206 C 0.35902 0.75314 0.46225 0.0
H1207 H 0.34951 0.71637 0.305 0.0
H1208 H 0.35026 0.71816 0.36859 0.0
H1209 H 0.36736 0.75781 0.41188 0.0
H1210 H 0.34326 0.77309 0.57806 0.0
H1211 H 0.34548 0.7691 0.51526 0.0
H1212 H 0.33522 0.72845 0.47909 0.0
C1213 C 0.35128 0.72743 0.35322 0.0
C1214 C 0.36019 0.75141 0.42604 0.0
C1215 C 0.35096 0.72637 0.31671 0.0
C1216 C 0.34485 0.76271 0.5689 0.0
C1217 C 0.34622 0.76045 0.53296 0.0
C1218 C 0.34232 0.73483 0.4646 0.0
C1219 C 0.35281 0.74027 0.36956 0.0
C1220 C 0.35221 0.74155 0.40846 0.0
C1221 C 0.34843 0.74718 0.51998 0.0
C1222 C 0.35003 0.74493 0.48182 0.0
H1223 H 0.35537 0.76011 0.29631 0.0
H1224 H 0.35547 0.76205 0.35981 0.0
H1225 H 0.33683 0.72569 0.41574 0.0
H1226 H 0.34885 0.7298 0.59738 0.0
H1227 H 0.3509 0.72583 0.53421 0.0
C1228 C 0.01931 0.60261 0.06715 0.0
C1229 C 0.00765 0.60348 0.0457 0.0
C1230 C 0.01809 0.60326 0.10357 0.0
C1231 C 0.99363 0.61196 0.17547 0.0
H1232 H 0.01686 0.58762 0.22956 0.0
C1233 C 0.98239 0.59683 0.31876 0.0
C1234 C 0.99337 0.5978 0.34246 0.0
C1235 C 0.9846 0.59834 0.28283 0.0
C1236 C 0.01041 0.59456 0.21479 0.0
H1237 H 0.98559 0.60597 0.04557 0.0
H1238 H 0.98336 0.60664 0.10902 0.0
H1239 H 0.01981 0.58905 0.16629 0.0
H1240 H 0.01529 0.60093 0.34704 0.0
H1241 H 0.01918 0.60327 0.28397 0.0
H1242 H 0.98391 0.617 0.22413 0.0
C1243 C 0.99352 0.6058 0.09785 0.0
C1244 C 0.01212 0.59546 0.17853 0.0
C1245 C 0.99478 0.60536 0.06139 0.0
C1246 C 0.00663 0.60014 0.32942 0.0
C1247 C 0.00887 0.60144 0.29338 0.0
C1248 C 0.99181 0.61091 0.21167 0.0
C1249 C 0.00515 0.60458 0.11946 0.0
C1250 C 0.00371 0.60412 0.15832 0.0
C1251 C -0.00215 0.60066 0.2698 0.0
C1252 C 0.00013 0.60215 0.23163 0.0
H1253 H 0.0294 0.60129 0.0558 0.0
H1254 H 0.0273 0.6026 0.11925 0.0
H1255 H 0.98715 0.61895 0.16096 0.0
H1256 H 0.97204 0.59509 0.32798 0.0
H1257 H 0.97595 0.59756 0.26516 0.0
C1258 C 0.13958 0.24413 0.80987 0.0
C1259 C 0.14157 0.25693 0.79383 0.0
C1260 C 0.1393 0.243 0.84636 0.0
C1261 C 0.15006 0.26167 0.92672 0.0
H1262 H 0.12819 0.2338 0.97273 0.0
C1263 C 0.14519 0.25612 0.07796 0.0
C1264 C 0.14737 0.24279 0.09082 0.0
C1265 C 0.14403 0.25846 0.0419 0.0
C1266 C 0.13437 0.2416 0.96016 0.0
H1267 H 0.14424 0.27867 0.80341 0.0
H1268 H 0.14322 0.27679 0.86697 0.0
H1269 H 0.12621 0.23698 0.90959 0.0
H1270 H 0.15002 0.22148 0.07596 0.0
H1271 H 0.14779 0.22558 0.01319 0.0
H1272 H 0.15799 0.26639 0.9777 0.0
C1273 C 0.14233 0.26754 0.8515 0.0
C1274 C 0.13331 0.2434 0.92396 0.0
C1275 C 0.14281 0.26864 0.81501 0.0
C1276 C 0.1484 0.23188 0.06691 0.0
C1277 C 0.14702 0.2342 0.03099 0.0
C1278 C 0.15096 0.26 0.96302 0.0
C1279 C 0.14081 0.25467 0.86772 0.0
C1280 C 0.14128 0.25333 0.90663 0.0
C1281 C 0.14479 0.24749 0.01814 0.0
C1282 C 0.14327 0.24982 0.97999 0.0
H1283 H 0.1387 0.2349 0.79428 0.0
H1284 H 0.13834 0.23288 0.85775 0.0
H1285 H 0.15654 0.26927 0.91436 0.0
H1286 H 0.14436 0.26473 0.09574 0.0
H1287 H 0.14228 0.26881 0.03262 0.0
C1288 C 0.50973 0.58714 0.67771 0.0
C1289 C 0.50141 0.59461 0.65456 0.0
C1290 C 0.50753 0.58779 0.71382 0.0
C1291 C 0.48203 0.59809 0.78117 0.0
H1292 H 0.51401 0.5985 0.84135 0.0
C1293 C 0.47805 0.59274 0.93142 0.0
C1294 C 0.48745 0.59994 0.9524 0.0
C1295 C 0.47937 0.59269 0.89499 0.0
C1296 C 0.50496 0.59858 0.82497 0.0
H1297 H 0.48411 0.60849 0.65115 0.0
H1298 H 0.48045 0.60987 0.71421 0.0
H1299 H 0.51694 0.59723 0.77826 0.0
H1300 H 0.50537 0.61307 0.95148 0.0
H1301 H 0.50747 0.61328 0.88784 0.0
H1302 H 0.47007 0.59989 0.8279 0.0
C1303 C 0.48853 0.6033 0.70447 0.0
C1304 C 0.50663 0.59762 0.78872 0.0
C1305 C 0.49066 0.60255 0.66828 0.0
C1306 C 0.49801 0.60735 0.93607 0.0
C1307 C 0.49926 0.60739 0.89958 0.0
C1308 C 0.48036 0.59916 0.81745 0.0
C1309 C 0.49704 0.59604 0.72773 0.0
C1310 C 0.49519 0.59725 0.76634 0.0
C1311 C 0.49005 0.59993 0.87858 0.0
C1312 C 0.4918 0.59933 0.83984 0.0
H1313 H 0.51804 0.58084 0.66797 0.0
H1314 H 0.5141 0.58181 0.73084 0.0
H1315 H 0.47298 0.59772 0.76481 0.0
H1316 H 0.46983 0.58686 0.94316 0.0
H1317 H 0.47221 0.58666 0.87979 0.0
C1318 C 0.15139 0.76395 0.42425 0.0
C1319 C 0.15001 0.75286 0.40107 0.0
C1320 C 0.15062 0.76194 0.46037 0.0
C1321 C 0.13871 0.73692 0.52732 0.0
H1322 H 0.1607 0.75954 0.58909 0.0
C1323 C 0.14543 0.72744 0.67658 0.0
C1324 C 0.14391 0.73899 0.69826 0.0
C1325 C 0.14552 0.72885 0.64015 0.0
C1326 C 0.15443 0.75323 0.57212 0.0
H1327 H 0.14698 0.7309 0.39762 0.0
H1328 H 0.14616 0.72726 0.46083 0.0
H1329 H 0.16291 0.76217 0.52592 0.0
H1330 H 0.14107 0.76104 0.69876 0.0
H1331 H 0.14148 0.76351 0.63505 0.0
H1332 H 0.13058 0.72773 0.57396 0.0
C1333 C 0.14746 0.7376 0.45109 0.0
C1334 C 0.15564 0.75475 0.5359 0.0
C1335 C 0.14803 0.73966 0.41484 0.0
C1336 C 0.14223 0.75194 0.68276 0.0
C1337 C 0.14254 0.75337 0.64635 0.0
C1338 C 0.13765 0.73527 0.56361 0.0
C1339 C 0.14866 0.74874 0.47435 0.0
C1340 C 0.14771 0.74671 0.51296 0.0
C1341 C 0.14432 0.74186 0.62475 0.0
C1342 C 0.14542 0.74349 0.58631 0.0
H1343 H 0.15276 0.77429 0.41447 0.0
H1344 H 0.1513 0.77082 0.47729 0.0
H1345 H 0.13226 0.7307 0.51059 0.0
H1346 H 0.14671 0.71731 0.68777 0.0
H1347 H 0.14696 0.71982 0.62404 0.0
C1348 C 0.98187 0.39979 0.17494 0.0
C1349 C 0.99285 0.3985 0.15136 0.0
C1350 C 0.98403 0.3986 0.21095 0.0
C1351 C 0.00963 0.4026 0.27927 0.0
H1352 H 0.98624 0.3783 0.33304 0.0
C1353 C 0.01818 0.39439 0.42715 0.0
C1354 C 0.00649 0.39335 0.44844 0.0
C1355 C 0.01702 0.39399 0.3907 0.0
C1356 C 0.99275 0.38527 0.31856 0.0
H1357 H 0.01476 0.39521 0.14706 0.0
H1358 H 0.01857 0.39345 0.21032 0.0
H1359 H 0.9832 0.38008 0.26982 0.0
H1360 H 0.98442 0.39093 0.44825 0.0
H1361 H 0.9823 0.39069 0.38475 0.0
H1362 H 0.01888 0.40824 0.32789 0.0
C1363 C 0.00829 0.39527 0.20073 0.0
C1364 C 0.99104 0.38623 0.28232 0.0
C1365 C 0.0061 0.39624 0.1646 0.0
C1366 C 0.99363 0.39166 0.43254 0.0
C1367 C 0.99244 0.39145 0.39607 0.0
C1368 C 0.01123 0.4018 0.3156 0.0
C1369 C 0.99724 0.3963 0.22417 0.0
C1370 C -0.00059 0.39495 0.26239 0.0
C1371 C 0.00411 0.39273 0.37463 0.0
C1372 C 0.00276 0.39317 0.33577 0.0
H1373 H 0.97153 0.40148 0.16558 0.0
H1374 H 0.97537 0.39957 0.22852 0.0
H1375 H 0.01613 0.4095 0.2645 0.0
H1376 H 0.02825 0.39559 0.43866 0.0
H1377 H 0.02627 0.3947 0.37514 0.0
C1378 C 0.35368 0.24493 0.18245 0.0
C1379 C 0.35151 0.25769 0.19848 0.0
C1380 C 0.35404 0.24381 0.14596 0.0
C1381 C 0.34323 0.26242 0.06557 0.0
H1382 H 0.36543 0.2348 0.01967 0.0
C1383 C 0.34832 0.25705 0.91442 0.0
C1384 C 0.34617 0.24373 0.9015 0.0
C1385 C 0.34948 0.25936 0.95047 0.0
C1386 C 0.35915 0.24253 0.03221 0.0
H1387 H 0.34863 0.2794 0.18892 0.0
H1388 H 0.3498 0.27757 0.12538 0.0
H1389 H 0.36728 0.23796 0.08284 0.0
H1390 H 0.34361 0.22239 0.91624 0.0
H1391 H 0.34585 0.22644 0.97904 0.0
H1392 H 0.33533 0.2671 0.01454 0.0
C1393 C 0.35076 0.26832 0.14083 0.0
C1394 C 0.36015 0.24432 0.06843 0.0
C1395 C 0.35019 0.2694 0.17731 0.0
C1396 C 0.3452 0.23279 0.92535 0.0
C1397 C 0.34658 0.23507 0.96127 0.0
C1398 C 0.34239 0.26077 0.02926 0.0
C1399 C 0.35245 0.25548 0.12462 0.0
C1400 C 0.35206 0.25416 0.08571 0.0
C1401 C 0.34875 0.24837 0.97417 0.0
C1402 C 0.35021 0.25068 0.01233 0.0
H1403 H 0.35463 0.2357 0.19805 0.0
H1404 H 0.35514 0.23371 0.13457 0.0
H1405 H 0.33664 0.26994 0.07789 0.0
H1406 H 0.3491 0.26568 0.89668 0.0
H1407 H 0.35118 0.26971 0.95981 0.0
C1408 C 0.99589 0.04854 0.03247 0.0
C1409 C 0.00963 0.05186 0.0394 0.0
C1410 C 0.99219 0.03513 0.02375 0.0
C1411 C 0.00427 -0.00079 0.02748 0.0
H1412 H 0.97895 0.99395 0.95038 0.0
C1413 C 0.99545 0.94628 0.96464 0.0
C1414 C 0.9818 0.9426 0.95768 0.0
C1415 C -0.00126 0.95969 0.97425 0.0
C1416 C 0.98593 0.99525 0.97217 0.0
H1417 H 0.03023 0.04363 0.04337 0.0
H1418 H 0.0238 0.02031 0.02791 0.0
H1419 H 0.98463 0.01712 0.96947 0.0
H1420 H 0.96094 0.95021 0.95459 0.0
H1421 H 0.9667 0.97359 0.97145 0.0
H1422 H 0.00563 0.97735 0.03006 0.0
C1423 C 0.01585 0.02803 0.02954 0.0
C1424 C 0.98916 0.00852 0.98317 0.0
C1425 C 0.01954 0.04142 0.03824 0.0
C1426 C 0.97156 0.9527 0.95974 0.0
C1427 C 0.97487 0.96612 0.96927 0.0
C1428 C 0.00106 0.98595 0.01645 0.0
C1429 C 0.00216 0.02475 0.02182 0.0
C1430 C -0.0016 0.01065 0.01089 0.0
C1431 C 0.98847 0.96973 0.97701 0.0
C1432 C 0.99189 0.98383 0.98861 0.0
H1433 H 0.98799 0.05633 0.03323 0.0
H1434 H 0.98153 0.03288 0.01845 0.0
H1435 H 0.01127 0.0005 0.04925 0.0
H1436 H 0.00359 0.93875 0.96322 0.0
H1437 H 0.00935 0.96221 0.97955 0.0
C1438 C 0.20309 0.77281 0.28051 0.0
C1439 C 0.19281 0.76273 0.28207 0.0
C1440 C 0.21651 0.76928 0.27166 0.0
C1441 C 0.24035 0.74002 0.26709 0.0
H1442 H 0.26038 0.7635 0.203 0.0
C1443 C 0.29224 0.7241 0.20816 0.0
C1444 C 0.30258 0.73413 0.20726 0.0
C1445 C 0.27879 0.72766 0.21656 0.0
C1446 C 0.25497 0.75691 0.22119 0.0
H1447 H 0.18859 0.74103 0.2759 0.0
H1448 H 0.21201 0.73491 0.26018 0.0
H1449 H 0.23704 0.76951 0.21983 0.0
H1450 H 0.30685 0.75579 0.21394 0.0
H1451 H 0.28335 0.76198 0.2288 0.0
H1452 H 0.25828 0.72742 0.26843 0.0
C1453 C 0.20971 0.74551 0.26617 0.0
C1454 C 0.24161 0.76036 0.23086 0.0
C1455 C 0.19628 0.74903 0.27503 0.0
C1456 C 0.29912 0.74783 0.21433 0.0
C1457 C 0.28565 0.75139 0.22271 0.0
C1458 C 0.25371 0.73657 0.2574 0.0
C1459 C 0.21995 0.75562 0.26416 0.0
C1460 C 0.23415 0.75195 0.25393 0.0
C1461 C 0.27537 0.74131 0.22423 0.0
C1462 C 0.26116 0.74498 0.23434 0.0
H1463 H 0.20077 0.78345 0.28591 0.0
H1464 H 0.22421 0.77727 0.27087 0.0
H1465 H 0.23495 0.73344 0.28531 0.0
H1466 H 0.29454 0.71345 0.20271 0.0
H1467 H 0.27105 0.7197 0.21697 0.0
C1468 C 0.51993 0.04251 0.4595 0.0
C1469 C 0.51013 0.05306 0.45916 0.0
C1470 C 0.5163 0.02924 0.46943 0.0
C1471 C 0.48684 0.00601 0.47924 0.0
H1472 H 0.51141 0.98597 0.54053 0.0
C1473 C 0.47207 0.95384 0.53891 0.0
C1474 C 0.48217 0.94356 0.53862 0.0
C1475 C 0.47542 0.96736 0.5306 0.0
C1476 C 0.50451 0.99138 0.52314 0.0
H1477 H 0.48874 0.05789 0.46849 0.0
H1478 H 0.48239 0.03466 0.48598 0.0
H1479 H 0.51722 0.00924 0.52258 0.0
H1480 H 0.50376 0.93949 0.52997 0.0
H1481 H 0.50957 0.9631 0.51517 0.0
H1482 H 0.47417 0.98812 0.47963 0.0
C1483 C 0.49289 0.03667 0.47831 0.0
C1484 C 0.50783 0.00471 0.51286 0.0
C1485 C 0.49653 0.04998 0.4684 0.0
C1486 C 0.49574 0.94717 0.53053 0.0
C1487 C 0.49909 0.96071 0.52218 0.0
C1488 C 0.48352 0.99267 0.4895 0.0
C1489 C 0.50277 0.0262 0.47924 0.0
C1490 C 0.49906 0.01214 0.49066 0.0
C1491 C 0.48893 0.97093 0.52178 0.0
C1492 C 0.49234 0.98519 0.51148 0.0
H1493 H 0.53049 0.0445 0.45239 0.0
H1494 H 0.52409 0.02134 0.46929 0.0
H1495 H 0.47996 0.01141 0.46177 0.0
H1496 H 0.46153 0.95142 0.5452 0.0
H1497 H 0.4674 0.97503 0.53108 0.0
C1498 C 0.29097 0.22395 0.78572 0.0
C1499 C 0.30136 0.23392 0.78618 0.0
C1500 C 0.27757 0.22749 0.77677 0.0
C1501 C 0.25387 0.25675 0.76934 0.0
H1502 H 0.23411 0.23257 0.70645 0.0
C1503 C 0.20202 0.2718 0.7084 0.0
C1504 C 0.19178 0.26167 0.70767 0.0
C1505 C 0.21546 0.26844 0.71743 0.0
C1506 C 0.23944 0.23935 0.72431 0.0
H1507 H 0.30577 0.2555 0.77828 0.0
H1508 H 0.28235 0.26166 0.76245 0.0
H1509 H 0.25737 0.22677 0.72427 0.0
H1510 H 0.18768 0.24002 0.7154 0.0
H1511 H 0.21114 0.23418 0.7314 0.0
H1512 H 0.23592 0.26932 0.76941 0.0
C1513 C 0.28457 0.25112 0.76928 0.0
C1514 C 0.25276 0.23603 0.73453 0.0
C1515 C 0.29799 0.24758 0.77823 0.0
C1516 C 0.19533 0.24806 0.71562 0.0
C1517 C 0.20879 0.2447 0.72465 0.0
C1518 C 0.24054 0.26007 0.75912 0.0
C1519 C 0.27425 0.24108 0.76809 0.0
C1520 C 0.26011 0.24467 0.75722 0.0
C1521 C 0.21897 0.25488 0.72592 0.0
C1522 C 0.23317 0.2514 0.73652 0.0
H1523 H 0.29319 0.21334 0.79188 0.0
H1524 H 0.2698 0.21956 0.77667 0.0
H1525 H 0.25921 0.26352 0.7872 0.0
H1526 H 0.19964 0.28238 0.7023 0.0
H1527 H 0.22312 0.27647 0.71764 0.0
C1528 C -0.0018 0.94667 0.46064 0.0
C1529 C 0.012 0.94319 0.45506 0.0
C1530 C 0.99453 0.96013 0.46885 0.0
C1531 C 0.00684 0.9959 0.46522 0.0
H1532 H 0.98052 0.00155 0.53995 0.0
C1533 C 0.99653 0.04927 0.52475 0.0
C1534 C 0.98277 0.05269 0.5312 0.0
C1535 C 0.00014 0.03588 0.51556 0.0
C1536 C 0.98778 0.00015 0.51879 0.0
H1537 H 0.03274 0.95117 0.45304 0.0
H1538 H 0.02634 0.97461 0.46757 0.0
H1539 H 0.98654 0.9783 0.52243 0.0
H1540 H 0.96203 0.0447 0.53337 0.0
H1541 H 0.96833 0.02142 0.51711 0.0
H1542 H 0.00808 0.01775 0.46162 0.0
C1543 C 0.01834 0.96696 0.4653 0.0
C1544 C 0.99121 0.98683 0.50871 0.0
C1545 C 0.02201 0.95351 0.45714 0.0
C1546 C 0.97273 0.0424 0.52868 0.0
C1547 C 0.97634 0.02904 0.51952 0.0
C1548 C 0.0034 0.00922 0.47529 0.0
C1549 C 0.00458 0.97039 0.4716 0.0
C1550 C 0.00078 0.98456 0.48182 0.0
C1551 C 0.99007 0.02564 0.51267 0.0
C1552 C 0.99383 0.01149 0.5022 0.0
H1553 H 0.99022 0.93897 0.45913 0.0
H1554 H 0.98382 0.9625 0.47306 0.0
H1555 H 0.01412 0.99448 0.44411 0.0
H1556 H 0.00452 0.05694 0.52655 0.0
H1557 H 0.01083 0.03354 0.51091 0.0
C1558 C 0.20282 0.72397 0.78853 0.0
C1559 C 0.19245 0.73395 0.78922 0.0
C1560 C 0.21627 0.72756 0.78013 0.0
C1561 C 0.23605 0.75395 0.73351 0.0
H1562 H 0.267 0.73797 0.78234 0.0
C1563 C 0.29159 0.77215 0.71144 0.0
C1564 C 0.30191 0.76211 0.71023 0.0
C1565 C 0.27822 0.76866 0.72081 0.0
C1566 C 0.25846 0.74239 0.76818 0.0
H1567 H 0.18814 0.75562 0.78252 0.0
H1568 H 0.21167 0.76189 0.76819 0.0
H1569 H 0.24376 0.73224 0.80071 0.0
H1570 H 0.3062 0.74047 0.71733 0.0
H1571 H 0.28278 0.73436 0.73333 0.0
H1572 H 0.25074 0.76408 0.70093 0.0
C1573 C 0.20934 0.75125 0.77367 0.0
C1574 C 0.24516 0.73913 0.77875 0.0
C1575 C 0.19588 0.74766 0.78211 0.0
C1576 C 0.2985 0.74846 0.71808 0.0
C1577 C 0.28511 0.74497 0.72749 0.0
C1578 C 0.24935 0.75721 0.72294 0.0
C1579 C 0.21965 0.74121 0.77221 0.0
C1580 C 0.2338 0.74487 0.76153 0.0
C1581 C 0.27484 0.75505 0.72918 0.0
C1582 C 0.26071 0.75146 0.74014 0.0
H1583 H 0.20052 0.71331 0.79383 0.0
H1584 H 0.22395 0.71956 0.7789 0.0
H1585 H 0.22751 0.75836 0.71931 0.0
H1586 H 0.29388 0.78278 0.70564 0.0
H1587 H 0.27059 0.7767 0.72224 0.0
C1588 C 0.52307 0.95433 0.03832 0.0
C1589 C 0.51308 0.94396 0.03758 0.0
C1590 C 0.51971 0.96778 0.02925 0.0
C1591 C 0.49048 0.99143 0.01879 0.0
H1592 H 0.51557 0.01153 0.95898 0.0
C1593 C 0.47531 0.04236 0.95407 0.0
C1594 C 0.48498 0.05303 0.95488 0.0
C1595 C 0.479 0.02908 0.96377 0.0
C1596 C 0.50854 0.0061 0.97598 0.0
H1597 H 0.49166 0.93962 0.0273 0.0
H1598 H 0.48582 0.96308 0.01118 0.0
H1599 H 0.52138 0.98835 0.97779 0.0
H1600 H 0.50621 0.05805 0.96575 0.0
H1601 H 0.51264 0.0348 0.98286 0.0
H1602 H 0.47762 0.00915 0.01686 0.0
C1603 C 0.49623 0.96083 0.01913 0.0
C1604 C 0.51186 0.99284 0.98679 0.0
C1605 C 0.49959 0.94738 0.02824 0.0
C1606 C 0.49852 0.05005 0.96478 0.0
C1607 C 0.50222 0.03673 0.97448 0.0
C1608 C 0.48716 0.00468 0.00795 0.0
C1609 C 0.50629 0.97115 0.01921 0.0
C1610 C 0.50285 0.98534 0.00824 0.0
C1611 C 0.49244 0.02615 0.97451 0.0
C1612 C 0.49612 0.01214 0.98631 0.0
H1613 H 0.53356 0.95207 0.04556 0.0
H1614 H 0.52764 0.97554 0.03013 0.0
H1615 H 0.48343 0.986 0.03575 0.0
H1616 H 0.4648 0.04427 0.94639 0.0
H1617 H 0.47129 0.0211 0.96291 0.0
C1618 C 0.20228 0.22251 0.2068 0.0
C1619 C 0.19191 0.23251 0.20625 0.0
C1620 C 0.21569 0.22604 0.21565 0.0
C1621 C 0.23936 0.25538 0.22258 0.0
H1622 H 0.25932 0.23141 0.28559 0.0
C1623 C 0.29076 0.27121 0.28423 0.0
C1624 C 0.3012 0.2613 0.28493 0.0
C1625 C 0.2774 0.26759 0.2751 0.0
C1626 C 0.25393 0.23813 0.2677 0.0
H1627 H 0.18756 0.2541 0.21402 0.0
H1628 H 0.21098 0.26023 0.22971 0.0
H1629 H 0.2361 0.22538 0.26772 0.0
H1630 H 0.30575 0.23974 0.27715 0.0
H1631 H 0.28241 0.23344 0.26099 0.0
H1632 H 0.25718 0.26814 0.22258 0.0
C1633 C 0.20874 0.24969 0.22297 0.0
C1634 C 0.24064 0.23467 0.25743 0.0
C1635 C 0.19531 0.24616 0.21412 0.0
C1636 C 0.29794 0.24762 0.27694 0.0
C1637 C 0.28455 0.24399 0.26781 0.0
C1638 C 0.25265 0.25883 0.23285 0.0
C1639 C 0.21905 0.23963 0.22415 0.0
C1640 C 0.23321 0.24327 0.23478 0.0
C1641 C 0.27418 0.25397 0.26646 0.0
C1642 C 0.26007 0.25026 0.25556 0.0
H1643 H 0.20002 0.2119 0.20073 0.0
H1644 H 0.22345 0.2181 0.21578 0.0
H1645 H 0.23398 0.26211 0.20471 0.0
H1646 H 0.29291 0.28183 0.29039 0.0
H1647 H 0.26959 0.27546 0.27487 0.0
C1648 C 0.79857 0.24717 0.71077 0.0
C1649 C 0.80204 0.23343 0.70414 0.0
C1650 C 0.78511 0.25075 0.71916 0.0
C1651 C 0.74934 0.23851 0.71469 0.0
H1652 H 0.74377 0.26397 0.79139 0.0
C1653 C 0.696 0.24845 0.77492 0.0
C1654 C 0.69267 0.26219 0.78199 0.0
C1655 C 0.70937 0.24483 0.76567 0.0
C1656 C 0.74516 0.25695 0.7697 0.0
H1657 H 0.79403 0.21273 0.70033 0.0
H1658 H 0.7706 0.21898 0.7152 0.0
H1659 H 0.76699 0.25811 0.77332 0.0
H1660 H 0.70079 0.28286 0.78531 0.0
H1661 H 0.72404 0.27654 0.76899 0.0
H1662 H 0.72749 0.23735 0.71113 0.0
C1663 C 0.77825 0.227 0.71362 0.0
C1664 C 0.75845 0.25361 0.7593 0.0
C1665 C 0.7917 0.22341 0.70526 0.0
C1666 C 0.70302 0.27218 0.78011 0.0
C1667 C 0.71637 0.26855 0.77092 0.0
C1668 C 0.73603 0.24185 0.7251 0.0
C1669 C 0.77484 0.24068 0.72106 0.0
C1670 C 0.76069 0.24437 0.73167 0.0
C1671 C 0.71968 0.25485 0.76338 0.0
C1672 C 0.7338 0.25112 0.7527 0.0
H1673 H 0.80629 0.25515 0.71 0.0
H1674 H 0.78276 0.26141 0.72424 0.0
H1675 H 0.75073 0.23148 0.69303 0.0
H1676 H 0.68827 0.2405 0.77619 0.0
H1677 H 0.71165 0.23416 0.76044 0.0
C1678 C 0.69657 0.7478 0.2138 0.0
C1679 C 0.69323 0.76149 0.20614 0.0
C1680 C 0.70996 0.74422 0.22293 0.0
C1681 C 0.74581 0.7562 0.2183 0.0
H1682 H 0.75112 0.73143 0.2966 0.0
C1683 C 0.79907 0.74661 0.2789 0.0
C1684 C 0.80238 0.73293 0.28675 0.0
C1685 C 0.78569 0.7502 0.26972 0.0
C1686 C 0.74981 0.73826 0.27448 0.0
H1687 H 0.70139 0.7821 0.20139 0.0
H1688 H 0.72469 0.77586 0.21748 0.0
H1689 H 0.72796 0.73723 0.2779 0.0
H1690 H 0.79417 0.71234 0.29173 0.0
H1691 H 0.77089 0.7186 0.27551 0.0
H1692 H 0.76767 0.75722 0.21486 0.0
C1693 C 0.717 0.76787 0.21616 0.0
C1694 C 0.73654 0.74156 0.26373 0.0
C1695 C 0.70362 0.77146 0.20709 0.0
C1696 C 0.79197 0.72298 0.28589 0.0
C1697 C 0.7786 0.72658 0.27675 0.0
C1698 C 0.75908 0.75289 0.22905 0.0
C1699 C 0.72029 0.75424 0.2245 0.0
C1700 C 0.7344 0.75057 0.23552 0.0
C1701 C 0.77533 0.7402 0.26827 0.0
C1702 C 0.76123 0.74389 0.25725 0.0
H1703 H 0.68881 0.73987 0.21323 0.0
H1704 H 0.71223 0.7336 0.22874 0.0
H1705 H 0.7445 0.76303 0.19619 0.0
H1706 H 0.80684 0.75453 0.2794 0.0
H1707 H 0.78344 0.76082 0.2638 0.0
C1708 C 0.70314 0.22331 0.28858 0.0
C1709 C 0.69282 0.23335 0.28957 0.0
C1710 C 0.71657 0.22684 0.27985 0.0
C1711 C 0.73623 0.25316 0.23269 0.0
H1712 H 0.76736 0.23707 0.28052 0.0
C1713 C 0.7917 0.27143 0.20984 0.0
C1714 C 0.80203 0.26141 0.20842 0.0
C1715 C 0.77834 0.26788 0.21921 0.0
C1716 C 0.75877 0.24152 0.26663 0.0
H1717 H 0.6886 0.25504 0.28313 0.0
H1718 H 0.7121 0.26121 0.26824 0.0
H1719 H 0.74419 0.23138 0.29955 0.0
H1720 H 0.80637 0.23975 0.21506 0.0
H1721 H 0.78298 0.23355 0.23107 0.0
H1722 H 0.7508 0.26329 0.19975 0.0
C1723 C 0.70974 0.25057 0.27372 0.0
C1724 C 0.74551 0.23828 0.27758 0.0
C1725 C 0.69629 0.24705 0.28249 0.0
C1726 C 0.79865 0.24772 0.21597 0.0
C1727 C 0.78528 0.24418 0.22539 0.0
C1728 C 0.74949 0.25639 0.22174 0.0
C1729 C 0.71998 0.24048 0.27189 0.0
C1730 C 0.73409 0.24408 0.26074 0.0
C1731 C 0.77501 0.25424 0.22739 0.0
C1732 C 0.76091 0.25061 0.2386 0.0
H1733 H 0.7008 0.21265 0.29385 0.0
H1734 H 0.7242 0.2188 0.27835 0.0
H1735 H 0.72765 0.25761 0.21877 0.0
H1736 H 0.79396 0.28207 0.20426 0.0
H1737 H 0.7707 0.2759 0.22087 0.0
C1738 C 0.69699 0.74747 0.71124 0.0
C1739 C 0.69352 0.73383 0.70341 0.0
C1740 C 0.71045 0.75093 0.72008 0.0
C1741 C 0.74209 0.73562 0.75512 0.0
H1742 H 0.75911 0.76899 0.72124 0.0
C1743 C 0.7994 0.7477 0.77643 0.0
C1744 C 0.80287 0.7613 0.78471 0.0
C1745 C 0.78601 0.74434 0.7668 0.0
C1746 C 0.75444 0.75972 0.73124 0.0
H1747 H 0.70154 0.7132 0.69766 0.0
H1748 H 0.725 0.71928 0.71267 0.0
H1749 H 0.73591 0.76324 0.70264 0.0
H1750 H 0.79494 0.78198 0.79005 0.0
H1751 H 0.77157 0.77606 0.77366 0.0
H1752 H 0.76059 0.73211 0.78376 0.0
C1753 C 0.71728 0.72726 0.71257 0.0
C1754 C 0.74116 0.75642 0.72055 0.0
C1755 C 0.70385 0.7238 0.70374 0.0
C1756 C 0.79262 0.77141 0.78371 0.0
C1757 C 0.77924 0.76804 0.77408 0.0
C1758 C 0.75536 0.73892 0.76581 0.0
C1759 C 0.7207 0.74082 0.72126 0.0
C1760 C 0.73484 0.74433 0.73235 0.0
C1761 C 0.77581 0.75449 0.76523 0.0
C1762 C 0.76168 0.75101 0.754 0.0
H1763 H 0.68927 0.75544 0.71129 0.0
H1764 H 0.71274 0.76146 0.72692 0.0
H1765 H 0.73741 0.72635 0.76515 0.0
H1766 H 0.80707 0.73968 0.77684 0.0
H1767 H 0.78372 0.73383 0.7598 0.0
C1768 C 0.49899 0.5487 0.52696 0.0
C1769 C 0.51255 0.55203 0.53591 0.0
C1770 C 0.49557 0.53533 0.51712 0.0
C1771 C 0.50748 0.49949 0.52237 0.0
H1772 H 0.48369 0.49425 0.44213 0.0
C1773 C 0.49769 0.44605 0.46259 0.0
C1774 C 0.48403 0.44299 0.45403 0.0
C1775 C 0.5015 0.45943 0.47139 0.0
C1776 C 0.49025 0.49555 0.46477 0.0
H1777 H 0.5331 0.54389 0.5421 0.0
H1778 H 0.52713 0.52064 0.52481 0.0
H1779 H 0.48939 0.51741 0.46117 0.0
H1780 H 0.46371 0.45163 0.44729 0.0
H1781 H 0.47032 0.47486 0.46287 0.0
H1782 H 0.50829 0.47762 0.52607 0.0
C1783 C 0.51913 0.52832 0.52565 0.0
C1784 C 0.49349 0.50881 0.47571 0.0
C1785 C 0.52255 0.54167 0.5354 0.0
C1786 C 0.47433 0.45363 0.45372 0.0
C1787 C 0.47813 0.46698 0.46247 0.0
C1788 C 0.50423 0.48622 0.51144 0.0
C1789 C 0.50562 0.52502 0.51613 0.0
C1790 C 0.50211 0.51093 0.50468 0.0
C1791 C 0.49172 0.47001 0.47173 0.0
C1792 C 0.49555 0.4841 0.48258 0.0
H1793 H 0.49104 0.55644 0.52714 0.0
H1794 H 0.48503 0.53306 0.51037 0.0
H1795 H 0.51402 0.50079 0.54505 0.0
H1796 H 0.50542 0.43808 0.463 0.0
H1797 H 0.51209 0.46148 0.47796 0.0
C1798 C 0.9734 0.45303 0.03396 0.0
C1799 C 0.98334 0.44262 0.03539 0.0
C1800 C 0.97712 0.46647 0.02583 0.0
C1801 C 0.00415 0.48644 0.98208 0.0
H1802 H 0.98767 0.51711 0.03106 0.0
C1803 C 0.02263 0.54217 0.96388 0.0
C1804 C 0.01257 0.55245 0.96202 0.0
C1805 C 0.01907 0.52873 0.97258 0.0
C1806 C 0.99224 0.50866 0.01688 0.0
H1807 H 0.00502 0.43822 0.03 0.0
H1808 H 0.01153 0.46175 0.01614 0.0
H1809 H 0.98164 0.49376 0.04784 0.0
H1810 H 0.99084 0.55664 0.96736 0.0
H1811 H 0.98461 0.53314 0.98224 0.0
H1812 H 0.01474 0.50134 0.9511 0.0
C1813 C 0.00083 0.45945 0.02085 0.0
C1814 C 0.9888 0.49528 0.02651 0.0
C1815 C 0.99711 0.44599 0.02901 0.0
C1816 C -0.00116 0.54896 0.96865 0.0
C1817 C 0.99528 0.53552 0.97741 0.0
C1818 C 0.00759 0.49982 0.97245 0.0
C1819 C 0.99086 0.46982 0.01894 0.0
C1820 C 0.99471 0.48403 0.00919 0.0
C1821 C 0.00537 0.52528 0.97964 0.0
C1822 C 0.00166 0.51107 0.98971 0.0
H1823 H 0.96269 0.45078 0.03866 0.0
H1824 H 0.96917 0.47419 0.02418 0.0
H1825 H 0.0087 0.47799 0.96785 0.0
H1826 H 0.03331 0.54451 0.959 0.0
H1827 H 0.02709 0.52111 0.97447 0.0
C1828 C 0.4962 0.44616 0.96614 0.0
C1829 C 0.50972 0.44316 0.95609 0.0
C1830 C 0.49255 0.45947 0.97596 0.0
C1831 C 0.50377 0.49561 0.96977 0.0
H1832 H 0.4814 0.50045 0.05282 0.0
C1833 C 0.49645 0.54849 0.03384 0.0
C1834 C 0.48303 0.55195 0.04379 0.0
C1835 C 0.49966 0.53508 0.02403 0.0
C1836 C 0.48755 0.49926 0.0294 0.0
H1837 H 0.52994 0.45185 0.94776 0.0
H1838 H 0.52359 0.47496 0.96505 0.0
H1839 H 0.48665 0.47736 0.03218 0.0
H1840 H 0.46255 0.54394 0.05224 0.0
H1841 H 0.46815 0.52058 0.035 0.0
H1842 H 0.50472 0.51748 0.96703 0.0
C1843 C 0.51577 0.46708 0.96506 0.0
C1844 C 0.49052 0.48604 0.01752 0.0
C1845 C 0.51942 0.4538 0.95532 0.0
C1846 C 0.47299 0.54162 0.04472 0.0
C1847 C 0.47621 0.52821 0.03498 0.0
C1848 C 0.50081 0.50881 0.98166 0.0
C1849 C 0.50234 0.47005 0.97582 0.0
C1850 C 0.49871 0.48408 0.98765 0.0
C1851 C 0.48952 0.52484 0.02404 0.0
C1852 C 0.49272 0.51078 0.01168 0.0
H1853 H 0.48848 0.43819 0.96698 0.0
H1854 H 0.48206 0.46149 0.98371 0.0
H1855 H 0.50993 0.49444 0.94636 0.0
H1856 H 0.50443 0.5562 0.03292 0.0
H1857 H 0.51007 0.53274 0.01624 0.0
C1858 C -0.00165 0.44621 0.52976 0.0
C1859 C 0.01198 0.44261 0.53726 0.0
C1860 C 0.99499 0.45967 0.52078 0.0
C1861 C 0.01032 0.49125 0.48512 0.0
H1862 H 0.97708 0.50827 0.51966 0.0
C1863 C -0.00224 0.54861 0.46405 0.0
C1864 C 0.98409 0.55197 0.45636 0.0
C1865 C 0.00132 0.53521 0.47324 0.0
C1866 C 0.98632 0.5036 0.50947 0.0
H1867 H 0.03271 0.45042 0.54208 0.0
H1868 H 0.02681 0.47393 0.52683 0.0
H1869 H 0.98294 0.48512 0.53842 0.0
H1870 H 0.9635 0.54381 0.4513 0.0
H1871 H 0.96974 0.52044 0.46693 0.0
H1872 H 0.01369 0.50974 0.45617 0.0
C1873 C 0.01876 0.46629 0.52734 0.0
C1874 C 0.98968 0.49035 0.52025 0.0
C1875 C 0.02212 0.45283 0.53631 0.0
C1876 C 0.97412 0.54158 0.45722 0.0
C1877 C 0.97767 0.5282 0.46643 0.0
C1878 C 0.00696 0.50451 0.47435 0.0
C1879 C 0.00518 0.46984 0.51912 0.0
C1880 C 0.00171 0.48401 0.50815 0.0
C1881 C 0.99128 0.5249 0.47496 0.0
C1882 C 0.9949 0.51082 0.48633 0.0
H1883 H 0.9903 0.43857 0.53015 0.0
H1884 H 0.98446 0.46204 0.51426 0.0
H1885 H 0.01955 0.48657 0.47489 0.0
H1886 H 0.00569 0.55638 0.4637 0.0
H1887 H 0.01187 0.53301 0.47993 0.0
C1888 C 0.03842 0.13553 0.07333 0.0
C1889 C 0.04412 0.12262 0.0658 0.0
C1890 C 0.04688 0.14657 0.0823 0.0
C1891 C 0.08307 0.15812 0.07915 0.0
H1892 H 0.07372 0.17931 0.16177 0.0
C1893 C 0.12368 0.18519 0.16046 0.0
C1894 C 0.12159 0.19907 0.16861 0.0
C1895 C 0.11312 0.17734 0.14634 0.0
C1896 C 0.07634 0.1736 0.13838 0.0
H1897 H 0.06315 0.11128 0.06091 0.0
H1898 H 0.07778 0.13036 0.07676 0.0
H1899 H 0.05712 0.163 0.13771 0.0
H1900 H 0.10656 0.21546 0.16978 0.0
H1901 H 0.08791 0.20152 0.14553 0.0
H1902 H 0.10248 0.16826 0.0807 0.0
C1903 C 0.06683 0.13207 0.07537 0.0
C1904 C 0.06685 0.16431 0.12452 0.0
C1905 C 0.05842 0.12108 0.06651 0.0
C1906 C 0.10849 0.20479 0.1637 0.0
C1907 C 0.09784 0.19685 0.14986 0.0
C1908 C 0.09255 0.16728 0.09312 0.0
C1909 C 0.06118 0.14491 0.08368 0.0
C1910 C 0.07029 0.15619 0.09534 0.0
C1911 C 0.10019 0.18315 0.14033 0.0
C1912 C 0.08942 0.17482 0.12339 0.0
H1913 H 0.02743 0.13704 0.07302 0.0
H1914 H 0.04224 0.15637 0.08833 0.0
H1915 H 0.0859 0.15226 0.05617 0.0
H1916 H 0.13361 0.18042 0.164 0.0
H1917 H 0.11512 0.16672 0.13978 0.0
C1918 C 0.10945 0.78983 0.3285 0.0
C1919 C 0.12253 0.7956 0.32379 0.0
C1920 C 0.09879 0.79767 0.34269 0.0
C1921 C 0.09337 0.82673 0.40082 0.0
H1922 H 0.05831 0.8319 0.35497 0.0
C1923 C 0.0598 0.87323 0.42839 0.0
C1924 C 0.04548 0.87196 0.42806 0.0
C1925 C 0.06809 0.86215 0.41949 0.0
C1926 C 0.06793 0.83033 0.36852 0.0
H1927 H 0.13456 0.81421 0.32932 0.0
H1928 H 0.11606 0.82772 0.35424 0.0
H1929 H 0.07484 0.81559 0.33068 0.0
H1930 H 0.02859 0.85793 0.41903 0.0
H1931 H 0.04317 0.83844 0.40368 0.0
H1932 H 0.08667 0.84149 0.43838 0.0
C1933 C 0.11407 0.81715 0.34715 0.0
C1934 C 0.07738 0.82104 0.35453 0.0
C1935 C 0.12463 0.80942 0.33264 0.0
C1936 C 0.03961 0.85923 0.41951 0.0
C1937 C 0.04794 0.8481 0.41052 0.0
C1938 C 0.08392 0.83588 0.41494 0.0
C1939 C 0.10113 0.8113 0.35283 0.0
C1940 C 0.09034 0.81952 0.36997 0.0
C1941 C 0.06228 0.84949 0.41012 0.0
C1942 C 0.07128 0.83814 0.3983 0.0
H1943 H 0.10752 0.77921 0.32188 0.0
H1944 H 0.08886 0.79297 0.34676 0.0
H1945 H 0.10321 0.82552 0.41355 0.0
H1946 H 0.06467 0.88288 0.43479 0.0
H1947 H 0.07908 0.86366 0.41886 0.0
C1948 C 0.38526 0.78963 0.66507 0.0
C1949 C 0.37213 0.79533 0.66952 0.0
C1950 C 0.39594 0.79754 0.65119 0.0
C1951 C 0.40139 0.82687 0.59371 0.0
H1952 H 0.43643 0.8318 0.63983 0.0
C1953 C 0.43486 0.87359 0.5682 0.0
C1954 C 0.44919 0.8723 0.56782 0.0
C1955 C 0.42661 0.86247 0.57691 0.0
C1956 C 0.42681 0.8303 0.62623 0.0
H1957 H 0.36006 0.8139 0.6639 0.0
H1958 H 0.37858 0.82753 0.63958 0.0
H1959 H 0.41987 0.81534 0.66351 0.0
H1960 H 0.46609 0.85818 0.57557 0.0
H1961 H 0.45155 0.8386 0.59072 0.0
H1962 H 0.40809 0.84188 0.55677 0.0
C1963 C 0.38059 0.81696 0.64658 0.0
C1964 C 0.41735 0.82093 0.63985 0.0
C1965 C 0.37001 0.80916 0.66075 0.0
C1966 C 0.45508 0.8595 0.57563 0.0
C1967 C 0.44677 0.84832 0.58448 0.0
C1968 C 0.41084 0.83612 0.57998 0.0
C1969 C 0.39357 0.81118 0.64113 0.0
C1970 C 0.40439 0.81949 0.62432 0.0
C1971 C 0.43244 0.84973 0.58542 0.0
C1972 C 0.42346 0.83829 0.59675 0.0
H1973 H 0.38721 0.77901 0.67163 0.0
H1974 H 0.4059 0.79289 0.6473 0.0
H1975 H 0.39155 0.82573 0.58087 0.0
H1976 H 0.42998 0.8833 0.56236 0.0
H1977 H 0.41562 0.86398 0.57797 0.0
C1978 C 0.45454 0.13576 0.91607 0.0
C1979 C 0.44913 0.1226 0.92183 0.0
C1980 C 0.44593 0.14665 0.90688 0.0
C1981 C 0.40947 0.15711 0.90758 0.0
H1982 H 0.41947 0.1803 0.82904 0.0
C1983 C 0.36932 0.18578 0.82845 0.0
C1984 C 0.37144 0.19982 0.82224 0.0
C1985 C 0.37982 0.17766 0.84181 0.0
C1986 C 0.41665 0.17401 0.85131 0.0
H1987 H 0.43041 0.11058 0.92296 0.0
H1988 H 0.41551 0.12941 0.90672 0.0
H1989 H 0.43606 0.16377 0.85212 0.0
H1990 H 0.38646 0.21621 0.82374 0.0
H1991 H 0.40498 0.20182 0.84679 0.0
H1992 H 0.38993 0.16697 0.90601 0.0
C1993 C 0.42636 0.13143 0.90973 0.0
C1994 C 0.42613 0.16459 0.86458 0.0
C1995 C 0.43493 0.12059 0.91882 0.0
C1996 C 0.38451 0.20543 0.82832 0.0
C1997 C 0.39509 0.19722 0.84146 0.0
C1998 C 0.40001 0.16642 0.89421 0.0
C1999 C 0.43174 0.14456 0.90347 0.0
C2000 C 0.42249 0.15579 0.89227 0.0
C2001 C 0.39271 0.18334 0.84907 0.0
C2002 C 0.40338 0.1747 0.8654 0.0
H2003 H 0.46545 0.13763 0.91817 0.0
H2004 H 0.45035 0.15668 0.90244 0.0
H2005 H 0.40647 0.1507 0.92947 0.0
H2006 H 0.35943 0.18108 0.82391 0.0
H2007 H 0.3778 0.16692 0.84683 0.0
C2008 C 0.8865 0.78807 0.82961 0.0
C2009 C 0.87334 0.7938 0.82612 0.0
C2010 C 0.89726 0.79583 0.84364 0.0
C2011 C 0.90309 0.82433 0.9033 0.0
H2012 H 0.93736 0.83074 0.8546 0.0
C2013 C 0.93569 0.87157 0.9296 0.0
C2014 C 0.95003 0.87072 0.92815 0.0
C2015 C 0.92762 0.86029 0.92104 0.0
C2016 C 0.92798 0.82881 0.86892 0.0
H2017 H 0.86127 0.81227 0.83373 0.0
H2018 H 0.87992 0.82563 0.85839 0.0
H2019 H 0.92085 0.81427 0.83083 0.0
H2020 H 0.9672 0.85724 0.91739 0.0
H2021 H 0.953 0.83739 0.90252 0.0
H2022 H 0.90997 0.83893 0.94106 0.0
C2023 C 0.8819 0.81515 0.85045 0.0
C2024 C 0.91854 0.81943 0.85524 0.0
C2025 C 0.87125 0.80751 0.83608 0.0
C2026 C 0.95616 0.85821 0.91875 0.0
C2027 C 0.94804 0.84687 0.91006 0.0
C2028 C 0.91253 0.83357 0.91709 0.0
C2029 C 0.89493 0.80934 0.85486 0.0
C2030 C 0.90583 0.81749 0.87173 0.0
C2031 C 0.93368 0.84784 0.91085 0.0
C2032 C 0.92485 0.8363 0.89941 0.0
H2033 H 0.88843 0.77754 0.82212 0.0
H2034 H 0.90726 0.79118 0.84671 0.0
H2035 H 0.89345 0.8228 0.9168 0.0
H2036 H 0.93062 0.88105 0.9367 0.0
H2037 H 0.91659 0.86147 0.92133 0.0
C2038 C 0.95544 0.13583 0.57954 0.0
C2039 C 0.94969 0.12274 0.57483 0.0
C2040 C 0.94761 0.14648 0.59379 0.0
C2041 C 0.91841 0.1519 0.65163 0.0
H2042 H 0.91358 0.18705 0.60589 0.0
C2043 C 0.87187 0.18555 0.6776 0.0
C2044 C 0.8732 0.19988 0.67771 0.0
C2045 C 0.88298 0.17725 0.66903 0.0
C2046 C 0.91505 0.17741 0.61941 0.0
H2047 H 0.93111 0.11068 0.58046 0.0
H2048 H 0.9176 0.12916 0.60543 0.0
H2049 H 0.92991 0.17047 0.58192 0.0
H2050 H 0.88735 0.21676 0.66974 0.0
H2051 H 0.90688 0.20214 0.65488 0.0
H2052 H 0.90349 0.15861 0.68879 0.0
C2053 C 0.92816 0.13116 0.59833 0.0
C2054 C 0.92436 0.16793 0.6056 0.0
C2055 C 0.93589 0.12061 0.58378 0.0
C2056 C 0.88601 0.20574 0.66988 0.0
C2057 C 0.89716 0.19739 0.66119 0.0
C2058 C 0.90923 0.16137 0.66555 0.0
C2059 C 0.93399 0.14412 0.60397 0.0
C2060 C 0.92575 0.15493 0.62099 0.0
C2061 C 0.89571 0.18306 0.66041 0.0
C2062 C 0.90709 0.17404 0.64893 0.0
H2063 H 0.96605 0.13778 0.57285 0.0
H2064 H 0.9523 0.15642 0.59782 0.0
H2065 H 0.91952 0.14203 0.66434 0.0
H2066 H 0.86216 0.1807 0.68346 0.0
H2067 H 0.88143 0.16627 0.66809 0.0
C2068 C 0.60879 0.20552 0.32204 0.0
C2069 C 0.62158 0.19974 0.31368 0.0
C2070 C 0.59765 0.1971 0.33033 0.0
C2071 C 0.58546 0.16116 0.32403 0.0
H2072 H 0.56521 0.16953 0.40882 0.0
C2073 C 0.55826 0.11976 0.40311 0.0
C2074 C 0.54471 0.12221 0.41376 0.0
C2075 C 0.56613 0.13026 0.38875 0.0
C2076 C 0.57064 0.16718 0.38481 0.0
H2077 H 0.63257 0.18062 0.30639 0.0
H2078 H 0.6133 0.16604 0.32103 0.0
H2079 H 0.58153 0.18624 0.38549 0.0
H2080 H 0.52891 0.13774 0.41875 0.0
H2081 H 0.54288 0.15625 0.39405 0.0
H2082 H 0.57501 0.1419 0.32415 0.0
C2083 C 0.61177 0.17704 0.32087 0.0
C2084 C 0.57994 0.17674 0.37138 0.0
C2085 C 0.62287 0.18542 0.31273 0.0
C2086 C 0.53933 0.13553 0.41075 0.0
C2087 C 0.54729 0.14612 0.39667 0.0
C2088 C 0.57627 0.1516 0.33756 0.0
C2089 C 0.59908 0.18276 0.33015 0.0
C2090 C 0.58773 0.17365 0.3414 0.0
C2091 C 0.56067 0.14349 0.38497 0.0
C2092 C 0.56906 0.15436 0.36858 0.0
H2093 H 0.60748 0.21654 0.32299 0.0
H2094 H 0.58795 0.20179 0.33714 0.0
H2095 H 0.59108 0.15861 0.30045 0.0
H2096 H 0.56274 0.10963 0.40508 0.0
H2097 H 0.57651 0.12803 0.3805 0.0
C2098 C 0.54047 0.86025 0.0785 0.0
C2099 C 0.54619 0.87341 0.07457 0.0
C2100 C 0.54837 0.84947 0.09188 0.0
C2101 C 0.57763 0.84365 0.14915 0.0
H2102 H 0.58238 0.80876 0.10208 0.0
C2103 C 0.62397 0.80969 0.1746 0.0
C2104 C 0.62254 0.79537 0.17468 0.0
C2105 C 0.61296 0.81807 0.16578 0.0
C2106 C 0.58094 0.81834 0.11593 0.0
H2107 H 0.56478 0.88543 0.08054 0.0
H2108 H 0.57839 0.86672 0.104 0.0
H2109 H 0.56608 0.82554 0.07874 0.0
H2110 H 0.60831 0.7786 0.1662 0.0
H2111 H 0.58894 0.79338 0.15088 0.0
H2112 H 0.59252 0.83668 0.18605 0.0
C2113 C 0.56781 0.86477 0.09698 0.0
C2114 C 0.57166 0.82793 0.1025 0.0
C2115 C 0.56002 0.87545 0.08331 0.0
C2116 C 0.60973 0.78961 0.16639 0.0
C2117 C 0.59867 0.79805 0.15744 0.0
C2118 C 0.58679 0.83408 0.16269 0.0
C2119 C 0.56201 0.85176 0.10196 0.0
C2120 C 0.57028 0.84083 0.11841 0.0
C2121 C 0.60021 0.81238 0.15686 0.0
C2122 C 0.58889 0.8215 0.14559 0.0
H2123 H 0.52985 0.85836 0.07194 0.0
H2124 H 0.5437 0.83949 0.09542 0.0
H2125 H 0.57654 0.85344 0.16227 0.0
H2126 H 0.63369 0.81447 0.18078 0.0
H2127 H 0.61458 0.82905 0.16499 0.0
C2128 C 0.5594 0.61987 0.58922 0.0
C2129 C 0.54567 0.62203 0.57968 0.0
C2130 C 0.56719 0.63053 0.60308 0.0
C2131 C 0.57118 0.66742 0.60722 0.0
H2132 H 0.59228 0.65898 0.6906 0.0
C2133 C 0.60963 0.7059 0.66873 0.0
C2134 C 0.62247 0.70015 0.67662 0.0
C2135 C 0.59847 0.69746 0.66058 0.0
C2136 C 0.58648 0.6615 0.66729 0.0
H2137 H 0.52948 0.6372 0.57607 0.0
H2138 H 0.54333 0.656 0.59988 0.0
H2139 H 0.57616 0.64216 0.66767 0.0
H2140 H 0.63358 0.68104 0.68298 0.0
H2141 H 0.61431 0.66644 0.66859 0.0
H2142 H 0.58196 0.68655 0.60601 0.0
C2143 C 0.54792 0.64597 0.59681 0.0
C2144 C 0.57725 0.65189 0.65423 0.0
C2145 C 0.54003 0.63523 0.58323 0.0
C2146 C 0.62384 0.68582 0.67705 0.0
C2147 C 0.61274 0.67743 0.66905 0.0
C2148 C 0.58052 0.67704 0.62019 0.0
C2149 C 0.56149 0.64361 0.60746 0.0
C2150 C 0.56981 0.65459 0.62354 0.0
C2151 C 0.59996 0.68313 0.66044 0.0
C2152 C 0.58856 0.67399 0.64977 0.0
H2153 H 0.56409 0.60986 0.58678 0.0
H2154 H 0.57771 0.62851 0.61053 0.0
H2155 H 0.56556 0.66972 0.58348 0.0
H2156 H 0.60825 0.71692 0.66817 0.0
H2157 H 0.58872 0.70213 0.65424 0.0
C2158 C 0.53987 0.36039 0.91605 0.0
C2159 C 0.54533 0.37354 0.92178 0.0
C2160 C 0.54847 0.34947 0.907 0.0
C2161 C 0.5849 0.33891 0.90801 0.0
H2162 H 0.57488 0.31564 0.82969 0.0
C2163 C 0.62496 0.31017 0.82864 0.0
C2164 C 0.62283 0.29613 0.82244 0.0
C2165 C 0.61451 0.31828 0.84223 0.0
C2166 C 0.57771 0.32194 0.8519 0.0
H2167 H 0.56408 0.3855 0.92299 0.0
H2168 H 0.57894 0.36661 0.90696 0.0
H2169 H 0.55832 0.33223 0.85257 0.0
H2170 H 0.60784 0.27972 0.8243 0.0
H2171 H 0.58937 0.29411 0.84771 0.0
H2172 H 0.60443 0.32901 0.90654 0.0
C2173 C 0.56808 0.36463 0.9099 0.0
C2174 C 0.56824 0.3314 0.86506 0.0
C2175 C 0.55953 0.3755 0.91886 0.0
C2176 C 0.6098 0.2905 0.82886 0.0
C2177 C 0.59924 0.2987 0.84221 0.0
C2178 C 0.59435 0.32956 0.89474 0.0
C2179 C 0.56266 0.35151 0.9037 0.0
C2180 C 0.57189 0.34023 0.89266 0.0
C2181 C 0.60163 0.31259 0.84971 0.0
C2182 C 0.59097 0.32124 0.86601 0.0
H2183 H 0.52896 0.35856 0.9181 0.0
H2184 H 0.54401 0.33945 0.90261 0.0
H2185 H 0.58791 0.34533 0.92983 0.0
H2186 H 0.63484 0.31487 0.82387 0.0
H2187 H 0.61653 0.32902 0.84719 0.0
C2188 C 0.88553 0.28933 0.16752 0.0
C2189 C 0.87272 0.29512 0.17558 0.0
C2190 C 0.89659 0.29773 0.15826 0.0
C2191 C 0.90842 0.33382 0.16196 0.0
H2192 H 0.92935 0.32463 0.07881 0.0
C2193 C 0.93559 0.37456 0.08121 0.0
C2194 C 0.94945 0.37241 0.07296 0.0
C2195 C 0.9277 0.36399 0.09515 0.0
C2196 C 0.92371 0.32721 0.10234 0.0
H2197 H 0.86155 0.31424 0.18092 0.0
H2198 H 0.88064 0.32875 0.16455 0.0
H2199 H 0.91297 0.30805 0.10269 0.0
H2200 H 0.96575 0.35729 0.07145 0.0
H2201 H 0.95172 0.33864 0.09538 0.0
H2202 H 0.9187 0.35317 0.16076 0.0
C2203 C 0.88228 0.31778 0.16579 0.0
C2204 C 0.91438 0.31773 0.11609 0.0
C2205 C 0.87127 0.30944 0.17494 0.0
C2206 C 0.9551 0.35927 0.07762 0.0
C2207 C 0.94711 0.34861 0.09126 0.0
C2208 C 0.91762 0.34329 0.1481 0.0
C2209 C 0.89503 0.31204 0.1571 0.0
C2210 C 0.90636 0.32111 0.14547 0.0
C2211 C 0.93343 0.351 0.10087 0.0
C2212 C 0.92506 0.34022 0.11765 0.0
H2213 H 0.88696 0.27832 0.16776 0.0
H2214 H 0.90632 0.29302 0.15191 0.0
H2215 H 0.90264 0.3366 0.18511 0.0
H2216 H 0.93089 0.38453 0.07788 0.0
H2217 H 0.9171 0.36603 0.1018 0.0
C2218 C 0.93572 0.62134 0.42812 0.0
C2219 C 0.95003 0.62283 0.42851 0.0
C2220 C 0.92732 0.63233 0.41915 0.0
C2221 C 0.92726 0.6644 0.36923 0.0
H2222 H 0.89176 0.66858 0.41361 0.0
C2223 C 0.88568 0.70488 0.32981 0.0
C2224 C 0.87254 0.69921 0.32528 0.0
C2225 C 0.89633 0.69694 0.34367 0.0
C2226 C 0.90165 0.66754 0.40102 0.0
H2227 H 0.96674 0.63716 0.42062 0.0
H2228 H 0.95196 0.65649 0.4051 0.0
H2229 H 0.90836 0.65263 0.4382 0.0
H2230 H 0.86043 0.68065 0.33066 0.0
H2231 H 0.87891 0.66695 0.35492 0.0
H2232 H 0.92033 0.67929 0.33177 0.0
C2233 C 0.9473 0.64673 0.41147 0.0
C2234 C 0.91115 0.6584 0.41503 0.0
C2235 C 0.95575 0.63569 0.42055 0.0
C2236 C 0.87039 0.68537 0.33389 0.0
C2237 C 0.88094 0.67754 0.34803 0.0
C2238 C 0.91775 0.67366 0.35534 0.0
C2239 C 0.93299 0.64511 0.41041 0.0
C2240 C 0.92388 0.65639 0.39865 0.0
C2241 C 0.89393 0.68329 0.35361 0.0
C2242 C 0.90472 0.67497 0.37053 0.0
H2243 H 0.93096 0.61158 0.43406 0.0
H2244 H 0.91636 0.63064 0.41801 0.0
H2245 H 0.93695 0.66302 0.3559 0.0
H2246 H 0.88766 0.71551 0.32338 0.0
H2247 H 0.90629 0.70158 0.34767 0.0
C2248 C 0.36883 0.30962 0.32954 0.0
C2249 C 0.37104 0.29563 0.32285 0.0
C2250 C 0.37929 0.31775 0.34308 0.0
C2251 C 0.4161 0.32163 0.352 0.0
H2252 H 0.40599 0.3446 0.43083 0.0
C2253 C 0.45388 0.36006 0.41634 0.0
C2254 C 0.44837 0.37317 0.42239 0.0
C2255 C 0.44532 0.34911 0.40729 0.0
C2256 C 0.40897 0.33829 0.40876 0.0
H2257 H 0.38616 0.27933 0.32375 0.0
H2258 H 0.40462 0.29375 0.34709 0.0
H2259 H 0.3895 0.32826 0.40742 0.0
H2260 H 0.42955 0.385 0.42424 0.0
H2261 H 0.41474 0.36605 0.40824 0.0
H2262 H 0.43542 0.33205 0.35256 0.0
C2263 C 0.39469 0.29829 0.34201 0.0
C2264 C 0.39954 0.32893 0.39543 0.0
C2265 C 0.38414 0.29008 0.32869 0.0
C2266 C 0.43414 0.37504 0.41985 0.0
C2267 C 0.42562 0.36413 0.4109 0.0
C2268 C 0.42554 0.33109 0.36524 0.0
C2269 C 0.39223 0.31212 0.35003 0.0
C2270 C 0.40289 0.32078 0.36637 0.0
C2271 C 0.4311 0.35107 0.40433 0.0
C2272 C 0.42192 0.33978 0.39318 0.0
H2273 H 0.3589 0.31427 0.32521 0.0
H2274 H 0.3772 0.32845 0.34844 0.0
H2275 H 0.4189 0.31545 0.32954 0.0
H2276 H 0.46481 0.35829 0.41808 0.0
H2277 H 0.44982 0.33913 0.40261 0.0
C2278 C 0.38609 0.70632 0.166 0.0
C2279 C 0.37296 0.70064 0.17058 0.0
C2280 C 0.39678 0.69835 0.15237 0.0
C2281 C 0.40218 0.66879 0.0957 0.0
H2282 H 0.43725 0.66405 0.14176 0.0
C2283 C 0.43563 0.62196 0.07134 0.0
C2284 C 0.44995 0.62326 0.07085 0.0
C2285 C 0.42737 0.63312 0.07975 0.0
C2286 C 0.42762 0.66548 0.12817 0.0
H2287 H 0.36089 0.68203 0.16557 0.0
H2288 H 0.37942 0.6683 0.14172 0.0
H2289 H 0.42073 0.68059 0.16508 0.0
H2290 H 0.46686 0.63742 0.07808 0.0
H2291 H 0.45232 0.65706 0.09271 0.0
H2292 H 0.40884 0.65362 0.05914 0.0
C2293 C 0.38143 0.6789 0.14838 0.0
C2294 C 0.41818 0.67491 0.14159 0.0
C2295 C 0.37085 0.68677 0.16228 0.0
C2296 C 0.45584 0.6361 0.07823 0.0
C2297 C 0.44754 0.64731 0.08679 0.0
C2298 C 0.41161 0.65948 0.08218 0.0
C2299 C 0.39441 0.68466 0.14273 0.0
C2300 C 0.40521 0.67629 0.12609 0.0
C2301 C 0.43322 0.6459 0.08785 0.0
C2302 C 0.42425 0.65738 0.09893 0.0
H2303 H 0.38804 0.71697 0.17219 0.0
H2304 H 0.40674 0.70298 0.14833 0.0
H2305 H 0.39233 0.66987 0.08289 0.0
H2306 H 0.43074 0.61222 0.06584 0.0
H2307 H 0.41639 0.6316 0.08093 0.0
C2308 C 0.03955 0.63583 0.91486 0.0
C2309 C 0.04537 0.62278 0.91981 0.0
C2310 C 0.04734 0.6465 0.90047 0.0
C2311 C 0.07648 0.6519 0.84246 0.0
H2312 H 0.08116 0.68724 0.88732 0.0
C2313 C 0.12274 0.68582 0.81501 0.0
C2314 C 0.12134 0.70014 0.81483 0.0
C2315 C 0.1117 0.67746 0.82385 0.0
C2316 C 0.07973 0.67754 0.87404 0.0
H2317 H 0.06402 0.61082 0.9145 0.0
H2318 H 0.07745 0.62932 0.88928 0.0
H2319 H 0.06496 0.67064 0.91183 0.0
H2320 H 0.10712 0.71694 0.82287 0.0
H2321 H 0.0877 0.70223 0.83815 0.0
H2322 H 0.09129 0.65859 0.80497 0.0
C2323 C 0.06688 0.63128 0.8963 0.0
C2324 C 0.0705 0.66804 0.88816 0.0
C2325 C 0.05919 0.62072 0.911 0.0
C2326 C 0.10852 0.70593 0.82278 0.0
C2327 C 0.09743 0.69752 0.83173 0.0
C2328 C 0.08558 0.66139 0.82822 0.0
C2329 C 0.06098 0.64419 0.89039 0.0
C2330 C 0.06916 0.65499 0.87309 0.0
C2331 C 0.09896 0.6832 0.83266 0.0
C2332 C 0.08766 0.67414 0.84451 0.0
H2333 H 0.02893 0.63774 0.92143 0.0
H2334 H 0.0426 0.6564 0.89622 0.0
H2335 H 0.07541 0.64198 0.82999 0.0
H2336 H 0.13247 0.68101 0.80905 0.0
H2337 H 0.11332 0.66649 0.82488 0.0
C2338 C 0.05875 0.37205 0.56533 0.0
C2339 C 0.04441 0.37098 0.56568 0.0
C2340 C 0.06689 0.36082 0.57388 0.0
C2341 C 0.06649 0.32891 0.62419 0.0
H2342 H 0.10149 0.32372 0.57792 0.0
C2343 C 0.10809 0.28829 0.66347 0.0
C2344 C 0.12119 0.29409 0.66771 0.0
C2345 C 0.09736 0.29609 0.64943 0.0
C2346 C 0.09172 0.32502 0.59098 0.0
H2347 H 0.02734 0.35716 0.57452 0.0
H2348 H 0.04167 0.3374 0.58939 0.0
H2349 H 0.08498 0.33987 0.55366 0.0
H2350 H 0.13316 0.31271 0.66151 0.0
H2351 H 0.11456 0.32612 0.63689 0.0
H2352 H 0.07347 0.31413 0.66187 0.0
C2353 C 0.04656 0.34702 0.5827 0.0
C2354 C 0.08229 0.33428 0.57718 0.0
C2355 C 0.03837 0.3583 0.57401 0.0
C2356 C 0.12323 0.30789 0.65855 0.0
C2357 C 0.11261 0.31557 0.6442 0.0
C2358 C 0.07593 0.31953 0.63789 0.0
C2359 C 0.06091 0.34821 0.58296 0.0
C2360 C 0.06978 0.33669 0.59431 0.0
C2361 C 0.09965 0.30969 0.63898 0.0
C2362 C 0.08879 0.31789 0.62201 0.0
H2363 H 0.06375 0.38166 0.55908 0.0
H2364 H 0.0779 0.36217 0.57441 0.0
H2365 H 0.05697 0.33059 0.63808 0.0
H2366 H 0.1062 0.27769 0.67032 0.0
H2367 H 0.08741 0.29137 0.64573 0.0
loop_
_geom_bond_atom_site_label_1
_geom_bond_atom_site_label_2
_geom_bond_distance
_geom_bond_site_symmetry_2
_ccdc_geom_bond_type
C0 O2 1.247 1_556 S
C0 O4 1.311 1_556 S
C1 O8 1.247 1_455 S
C1 O9 1.258 . S
O2 C0 1.247 1_554 S
O2 Zn3 2.028 . S
Zn3 O2 2.028 . S
Zn3 O7 2.035 . S
Zn3 O9 2.035 . S
Zn3 O10 2.028 . S
O4 C0 1.311 1_554 S
O4 Zn5 2.023 1_455 S
Zn5 O4 2.023 1_655 S
Zn5 O6 2.028 1_655 S
Zn5 O8 2.028 . S
Zn5 O11 2.035 . S
O6 Zn5 2.028 1_455 S
O6 C12 1.247 . S
O7 Zn3 2.035 . S
O7 C12 1.258 . S
O8 C1 1.247 1_655 S
O8 Zn5 2.028 . S
O9 C1 1.258 . S
O9 Zn3 2.035 . S
O10 Zn3 2.028 . S
O10 C13 1.174 1_455 S
O11 Zn5 2.035 . S
O11 C13 1.305 . S
C12 O6 1.247 . S
C12 O7 1.258 . S
C13 O10 1.174 1_655 S
C13 O11 1.305 . S
C14 O16 1.247 . S
C14 O18 1.258 . S
C15 O22 1.247 . S
C15 O23 1.258 . S
O16 C14 1.247 . S
O16 Zn17 2.028 . S
Zn17 O16 2.028 . S
Zn17 O21 2.035 . S
Zn17 O23 2.035 . S
Zn17 O24 2.028 . S
O18 C14 1.258 . S
O18 Zn19 2.035 . S
Zn19 O18 2.035 . S
Zn19 O20 2.028 . S
Zn19 O22 2.028 . S
Zn19 O25 2.035 . S
O20 Zn19 2.028 . S
O20 C26 1.247 . S
O21 Zn17 2.035 . S
O21 C26 1.258 . S
O22 C15 1.247 . S
O22 Zn19 2.028 . S
O23 C15 1.258 . S
O23 Zn17 2.035 . S
O24 Zn17 2.028 . S
O24 C27 1.247 . S
O25 Zn19 2.035 . S
O25 C27 1.258 . S
C26 O20 1.247 . S
C26 O21 1.258 . S
C27 O24 1.247 . S
C27 O25 1.258 . S
C28 O30 1.247 . S
C28 O32 1.258 . S
C29 O36 1.247 . S
C29 O37 1.258 . S
O30 C28 1.247 . S
O30 Zn31 2.028 . S
Zn31 O30 2.028 . S
Zn31 O35 2.035 . S
Zn31 O37 2.035 . S
Zn31 O38 2.028 . S
O32 C28 1.258 . S
O32 Zn33 2.035 . S
Zn33 O32 2.035 . S
Zn33 O34 2.028 . S
Zn33 O36 2.028 . S
Zn33 O39 2.035 . S
O34 Zn33 2.028 . S
O34 C40 1.247 . S
O35 Zn31 2.035 . S
O35 C40 1.258 . S
O36 C29 1.247 . S
O36 Zn33 2.028 . S
O37 C29 1.258 . S
O37 Zn31 2.035 . S
O38 Zn31 2.028 . S
O38 C41 1.247 . S
O39 Zn33 2.035 . S
O39 C41 1.258 . S
C40 O34 1.247 . S
C40 O35 1.258 . S
C41 O38 1.247 . S
C41 O39 1.258 . S
C42 O44 1.247 . S
C42 O46 1.258 . S
C43 O50 1.247 . S
C43 O51 1.258 . S
O44 C42 1.247 . S
O44 Zn45 2.028 . S
Zn45 O44 2.028 . S
Zn45 O49 2.035 . S
Zn45 O51 2.035 . S
Zn45 O52 2.028 . S
O46 C42 1.258 . S
O46 Zn47 2.035 . S
Zn47 O46 2.035 . S
Zn47 O48 2.028 . S
Zn47 O50 2.028 . S
Zn47 O53 2.035 . S
O48 Zn47 2.028 . S
O48 C54 1.247 . S
O49 Zn45 2.035 . S
O49 C54 1.258 . S
O50 C43 1.247 . S
O50 Zn47 2.028 . S
O51 C43 1.258 . S
O51 Zn45 2.035 . S
O52 Zn45 2.028 . S
O52 C55 1.247 . S
O53 Zn47 2.035 . S
O53 C55 1.258 . S
C54 O48 1.247 . S
C54 O49 1.258 . S
C55 O52 1.247 . S
C55 O53 1.258 . S
C56 O58 1.247 . S
C56 O60 1.258 . S
C57 O64 1.173 1_655 S
C57 O65 1.305 . S
O58 C56 1.247 . S
O58 Zn59 2.028 1_455 S
Zn59 O58 2.028 1_655 S
Zn59 O63 2.023 1_655 S
Zn59 O65 2.035 . S
Zn59 O66 2.028 . S
O60 C56 1.258 . S
O60 Zn61 2.035 . S
Zn61 O60 2.035 . S
Zn61 O62 2.028 . S
Zn61 O64 2.028 . S
Zn61 O67 2.035 . S
O62 Zn61 2.028 . S
O62 C68 1.247 . S
O63 Zn59 2.023 1_455 S
O63 C68 1.311 . S
O64 C57 1.173 1_455 S
O64 Zn61 2.028 . S
O65 C57 1.305 . S
O65 Zn59 2.035 . S
O66 Zn59 2.028 . S
O66 C69 1.247 1_655 S
O67 Zn61 2.035 . S
O67 C69 1.258 . S
C68 O62 1.247 . S
C68 O63 1.311 . S
C69 O66 1.247 1_455 S
C69 O67 1.258 . S
C70 O72 1.247 . S
C70 O74 1.258 . S
C71 O78 1.247 . S
C71 O79 1.258 . S
O72 C70 1.247 . S
O72 Zn73 2.028 . S
Zn73 O72 2.028 . S
Zn73 O77 2.035 . S
Zn73 O79 2.035 . S
Zn73 O80 2.028 . S
O74 C70 1.258 . S
O74 Zn75 2.035 . S
Zn75 O74 2.035 . S
Zn75 O76 2.028 . S
Zn75 O78 2.028 . S
Zn75 O81 2.035 . S
O76 Zn75 2.028 . S
O76 C82 1.247 . S
O77 Zn73 2.035 . S
O77 C82 1.258 . S
O78 C71 1.247 . S
O78 Zn75 2.028 . S
O79 C71 1.258 . S
O79 Zn73 2.035 . S
O80 Zn73 2.028 . S
O80 C83 1.247 . S
O81 Zn75 2.035 . S
O81 C83 1.258 . S
C82 O76 1.247 . S
C82 O77 1.258 . S
C83 O80 1.247 . S
C83 O81 1.258 . S
C84 O86 1.247 1_554 S
C84 O88 1.258 1_554 S
C85 O92 1.247 . S
C85 O93 1.258 . S
O86 C84 1.247 1_556 S
O86 Zn87 2.028 . S
Zn87 O86 2.028 . S
Zn87 O91 2.035 . S
Zn87 O93 2.035 . S
Zn87 O94 2.028 . S
O88 C84 1.258 1_556 S
O88 Zn89 2.035 . S
Zn89 O88 2.035 . S
Zn89 O90 2.028 . S
Zn89 O92 2.028 . S
Zn89 O95 2.035 . S
O90 Zn89 2.028 . S
O90 C96 1.247 . S
O91 Zn87 2.035 . S
O91 C96 1.258 . S
O92 C85 1.247 . S
O92 Zn89 2.028 . S
O93 C85 1.258 . S
O93 Zn87 2.035 . S
O94 Zn87 2.028 . S
O94 C97 1.247 . S
O95 Zn89 2.035 . S
O95 C97 1.258 . S
C96 O90 1.247 . S
C96 O91 1.258 . S
C97 O94 1.247 . S
C97 O95 1.258 . S
C98 O100 1.247 . S
C98 O102 1.258 . S
C99 O106 1.247 . S
C99 O107 1.258 . S
O100 C98 1.247 . S
O100 Zn101 2.028 . S
Zn101 O100 2.028 . S
Zn101 O105 2.035 . S
Zn101 O107 2.035 . S
Zn101 O108 2.028 . S
O102 C98 1.258 . S
O102 Zn103 2.035 . S
Zn103 O102 2.035 . S
Zn103 O104 2.028 . S
Zn103 O106 2.028 . S
Zn103 O109 2.035 . S
O104 Zn103 2.028 . S
O104 C110 1.247 . S
O105 Zn101 2.035 . S
O105 C110 1.258 . S
O106 C99 1.247 . S
O106 Zn103 2.028 . S
O107 C99 1.258 . S
O107 Zn101 2.035 . S
O108 Zn101 2.028 . S
O108 C111 1.247 . S
O109 Zn103 2.035 . S
O109 C111 1.258 . S
C110 O104 1.247 . S
C110 O105 1.258 . S
C111 O108 1.247 . S
C111 O109 1.258 . S
C112 O114 1.304 1_554 S
C112 O116 1.258 1_554 S
C113 O120 1.247 . S
C113 O121 1.258 1_655 S
O114 C112 1.304 1_556 S
O114 Zn115 2.014 1_655 S
Zn115 O114 2.014 1_455 S
Zn115 O119 2.035 1_455 S
Zn115 O121 2.035 . S
Zn115 O122 2.028 . S
O116 C112 1.258 1_556 S
O116 Zn117 2.035 . S
Zn117 O116 2.035 . S
Zn117 O118 2.028 . S
Zn117 O120 2.028 . S
Zn117 O123 2.035 . S
O118 Zn117 2.028 . S
O118 C124 1.247 . S
O119 Zn115 2.035 1_655 S
O119 C124 1.258 . S
O120 C113 1.247 . S
O120 Zn117 2.028 . S
O121 C113 1.258 1_455 S
O121 Zn115 2.035 . S
O122 Zn115 2.028 . S
O122 C125 1.300 . S
O123 Zn117 2.035 . S
O123 C125 1.176 1_655 S
C124 O118 1.247 . S
C124 O119 1.258 . S
C125 O122 1.300 . S
C125 O123 1.176 1_455 S
C126 O128 1.247 . S
C126 O130 1.258 . S
C127 O134 1.247 . S
C127 O135 1.258 . S
O128 C126 1.247 . S
O128 Zn129 2.028 . S
Zn129 O128 2.028 . S
Zn129 O133 2.035 . S
Zn129 O135 2.035 . S
Zn129 O136 2.028 . S
O130 C126 1.258 . S
O130 Zn131 2.035 . S
Zn131 O130 2.035 . S
Zn131 O132 2.028 . S
Zn131 O134 2.028 . S
Zn131 O137 2.035 . S
O132 Zn131 2.028 . S
O132 C138 1.247 . S
O133 Zn129 2.035 . S
O133 C138 1.258 . S
O134 C127 1.247 . S
O134 Zn131 2.028 . S
O135 C127 1.258 . S
O135 Zn129 2.035 . S
O136 Zn129 2.028 . S
O136 C139 1.247 . S
O137 Zn131 2.035 . S
O137 C139 1.258 . S
C138 O132 1.247 . S
C138 O133 1.258 . S
C139 O136 1.247 . S
C139 O137 1.258 . S
C140 O142 1.247 . S
C140 O144 1.258 . S
C141 O148 1.247 . S
C141 O149 1.258 . S
O142 C140 1.247 . S
O142 Zn143 2.028 . S
Zn143 O142 2.028 . S
Zn143 O147 2.035 . S
Zn143 O149 2.035 . S
Zn143 O150 2.028 . S
O144 C140 1.258 . S
O144 Zn145 2.035 . S
Zn145 O144 2.035 . S
Zn145 O146 2.028 . S
Zn145 O148 2.028 . S
Zn145 O151 2.035 . S
O146 Zn145 2.028 . S
O146 C152 1.247 . S
O147 Zn143 2.035 . S
O147 C152 1.258 . S
O148 C141 1.247 . S
O148 Zn145 2.028 . S
O149 C141 1.258 . S
O149 Zn143 2.035 . S
O150 Zn143 2.028 . S
O150 C153 1.247 . S
O151 Zn145 2.035 . S
O151 C153 1.258 . S
C152 O146 1.247 . S
C152 O147 1.258 . S
C153 O150 1.247 . S
C153 O151 1.258 . S
C154 O156 1.247 . S
C154 O158 1.258 . S
C155 O162 1.247 . S
C155 O163 1.258 . S
O156 C154 1.247 . S
O156 Zn157 2.028 . S
Zn157 O156 2.028 . S
Zn157 O161 2.035 . S
Zn157 O163 2.035 . S
Zn157 O164 2.028 . S
O158 C154 1.258 . S
O158 Zn159 2.035 . S
Zn159 O158 2.035 . S
Zn159 O160 2.028 . S
Zn159 O162 2.028 . S
Zn159 O165 2.035 . S
O160 Zn159 2.028 . S
O160 C166 1.247 . S
O161 Zn157 2.035 . S
O161 C166 1.258 . S
O162 C155 1.247 . S
O162 Zn159 2.028 . S
O163 C155 1.258 . S
O163 Zn157 2.035 . S
O164 Zn157 2.028 . S
O164 C167 1.247 . S
O165 Zn159 2.035 . S
O165 C167 1.258 . S
C166 O160 1.247 . S
C166 O161 1.258 . S
C167 O164 1.247 . S
C167 O165 1.258 . S
C168 O170 1.247 . S
C168 O172 1.258 . S
C169 O176 1.300 . S
C169 O177 1.176 1_455 S
O170 C168 1.247 . S
O170 Zn171 2.028 . S
Zn171 O170 2.028 . S
Zn171 O175 2.035 . S
Zn171 O177 2.035 . S
Zn171 O178 2.028 . S
O172 C168 1.258 . S
O172 Zn173 2.035 1_655 S
Zn173 O172 2.035 1_455 S
Zn173 O174 2.014 1_455 S
Zn173 O176 2.028 . S
Zn173 O179 2.035 . S
O174 Zn173 2.014 1_655 S
O174 C180 1.304 . S
O175 Zn171 2.035 . S
O175 C180 1.258 . S
O176 C169 1.300 . S
O176 Zn173 2.028 . S
O177 C169 1.176 1_655 S
O177 Zn171 2.035 . S
O178 Zn171 2.028 . S
O178 C181 1.247 . S
O179 Zn173 2.035 . S
O179 C181 1.258 1_455 S
C180 O174 1.304 . S
C180 O175 1.258 . S
C181 O178 1.247 . S
C181 O179 1.258 1_655 S
C182 O184 1.247 . S
C182 O186 1.258 . S
C183 O190 1.247 . S
C183 O191 1.258 . S
O184 C182 1.247 . S
O184 Zn185 2.028 . S
Zn185 O184 2.028 . S
Zn185 O189 2.035 . S
Zn185 O191 2.035 . S
Zn185 O192 2.028 . S
O186 C182 1.258 . S
O186 Zn187 2.035 . S
Zn187 O186 2.035 . S
Zn187 O188 2.028 . S
Zn187 O190 2.028 . S
Zn187 O193 2.035 . S
O188 Zn187 2.028 . S
O188 C194 1.247 . S
O189 Zn185 2.035 . S
O189 C194 1.258 . S
O190 C183 1.247 . S
O190 Zn187 2.028 . S
O191 C183 1.258 . S
O191 Zn185 2.035 . S
O192 Zn185 2.028 . S
O192 C195 1.247 . S
O193 Zn187 2.035 . S
O193 C195 1.258 . S
C194 O188 1.247 . S
C194 O189 1.258 . S
C195 O192 1.247 . S
C195 O193 1.258 . S
C196 O198 1.247 . S
C196 O200 1.258 . S
C197 O204 1.247 1_556 S
C197 O205 1.258 1_556 S
O198 C196 1.247 . S
O198 Zn199 2.028 . S
Zn199 O198 2.028 . S
Zn199 O203 2.035 . S
Zn199 O205 2.035 . S
Zn199 O206 2.028 . S
O200 C196 1.258 . S
O200 Zn201 2.035 . S
Zn201 O200 2.035 . S
Zn201 O202 2.028 . S
Zn201 O204 2.028 . S
Zn201 O207 2.035 . S
O202 Zn201 2.028 . S
O202 C208 1.247 . S
O203 Zn199 2.035 . S
O203 C208 1.258 . S
O204 C197 1.247 1_554 S
O204 Zn201 2.028 . S
O205 C197 1.258 1_554 S
O205 Zn199 2.035 . S
O206 Zn199 2.028 . S
O206 C209 1.247 . S
O207 Zn201 2.035 . S
O207 C209 1.258 . S
C208 O202 1.247 . S
C208 O203 1.258 . S
C209 O206 1.247 . S
C209 O207 1.258 . S
C210 O212 1.247 . S
C210 O214 1.258 . S
C211 O218 1.247 . S
C211 O219 1.258 . S
O212 C210 1.247 . S
O212 Zn213 2.028 . S
Zn213 O212 2.028 . S
Zn213 O217 2.035 . S
Zn213 O219 2.035 . S
Zn213 O220 2.028 . S
O214 C210 1.258 . S
O214 Zn215 2.035 . S
Zn215 O214 2.035 . S
Zn215 O216 2.028 . S
Zn215 O218 2.028 . S
Zn215 O221 2.035 . S
O216 Zn215 2.028 . S
O216 C222 1.247 . S
O217 Zn213 2.035 . S
O217 C222 1.258 . S
O218 C211 1.247 . S
O218 Zn215 2.028 . S
O219 C211 1.258 . S
O219 Zn213 2.035 . S
O220 Zn213 2.028 . S
O220 C223 1.247 . S
O221 Zn215 2.035 . S
O221 C223 1.258 . S
C222 O216 1.247 . S
C222 O217 1.258 . S
C223 O220 1.247 . S
C223 O221 1.258 . S
C224 O226 1.247 . S
C224 O228 1.258 . S
C225 O232 1.247 . S
C225 O233 1.258 . S
O226 C224 1.247 . S
O226 Zn227 2.028 . S
Zn227 O226 2.028 . S
Zn227 O231 2.035 . S
Zn227 O233 2.035 . S
Zn227 O234 2.028 . S
O228 C224 1.258 . S
O228 Zn229 2.035 . S
Zn229 O228 2.035 . S
Zn229 O230 2.028 . S
Zn229 O232 2.028 . S
Zn229 O235 2.035 . S
O230 Zn229 2.028 . S
O230 C236 1.247 . S
O231 Zn227 2.035 . S
O231 C236 1.258 . S
O232 C225 1.247 . S
O232 Zn229 2.028 . S
O233 C225 1.258 . S
O233 Zn227 2.035 . S
O234 Zn227 2.028 . S
O234 C237 1.247 . S
O235 Zn229 2.035 . S
O235 C237 1.258 . S
C236 O230 1.247 . S
C236 O231 1.258 . S
C237 O234 1.247 . S
C237 O235 1.258 . S
C238 O240 1.247 . S
C238 O242 1.258 . S
C239 O246 1.247 . S
C239 O247 1.258 . S
O240 C238 1.247 . S
O240 Zn241 2.028 . S
Zn241 O240 2.028 . S
Zn241 O245 2.035 . S
Zn241 O247 2.035 . S
Zn241 O248 2.028 . S
O242 C238 1.258 . S
O242 Zn243 2.035 . S
Zn243 O242 2.035 . S
Zn243 O244 2.028 . S
Zn243 O246 2.028 . S
Zn243 O249 2.035 . S
O244 Zn243 2.028 . S
O244 C250 1.247 . S
O245 Zn241 2.035 . S
O245 C250 1.258 . S
O246 C239 1.247 . S
O246 Zn243 2.028 . S
O247 C239 1.258 . S
O247 Zn241 2.035 . S
O248 Zn241 2.028 . S
O248 C251 1.247 . S
O249 Zn243 2.035 . S
O249 C251 1.258 . S
C250 O244 1.247 . S
C250 O245 1.258 . S
C251 O248 1.247 . S
C251 O249 1.258 . S
C252 O254 1.247 1_556 S
C252 O256 1.311 1_556 S
C253 O260 1.247 1_655 S
C253 O261 1.258 . S
O254 C252 1.247 1_554 S
O254 Zn255 2.028 . S
Zn255 O254 2.028 . S
Zn255 O259 2.035 . S
Zn255 O261 2.035 . S
Zn255 O262 2.028 . S
O256 C252 1.311 1_554 S
O256 Zn257 2.023 1_655 S
Zn257 O256 2.023 1_455 S
Zn257 O258 2.028 1_455 S
Zn257 O260 2.028 . S
Zn257 O263 2.035 . S
O258 Zn257 2.028 1_655 S
O258 C264 1.247 . S
O259 Zn255 2.035 . S
O259 C264 1.258 . S
O260 C253 1.247 1_455 S
O260 Zn257 2.028 . S
O261 C253 1.258 . S
O261 Zn255 2.035 . S
O262 Zn255 2.028 . S
O262 C265 1.173 1_655 S
O263 Zn257 2.035 . S
O263 C265 1.305 . S
C264 O258 1.247 . S
C264 O259 1.258 . S
C265 O262 1.173 1_455 S
C265 O263 1.305 . S
C266 O268 1.247 . S
C266 O270 1.258 . S
C267 O274 1.247 . S
C267 O275 1.258 . S
O268 C266 1.247 . S
O268 Zn269 2.028 . S
Zn269 O268 2.028 . S
Zn269 O273 2.035 . S
Zn269 O275 2.035 . S
Zn269 O276 2.028 . S
O270 C266 1.258 . S
O270 Zn271 2.035 . S
Zn271 O270 2.035 . S
Zn271 O272 2.028 . S
Zn271 O274 2.028 . S
Zn271 O277 2.035 . S
O272 Zn271 2.028 . S
O272 C278 1.247 . S
O273 Zn269 2.035 . S
O273 C278 1.258 . S
O274 C267 1.247 . S
O274 Zn271 2.028 . S
O275 C267 1.258 . S
O275 Zn269 2.035 . S
O276 Zn269 2.028 . S
O276 C279 1.247 . S
O277 Zn271 2.035 . S
O277 C279 1.258 . S
C278 O272 1.247 . S
C278 O273 1.258 . S
C279 O276 1.247 . S
C279 O277 1.258 . S
C280 O282 1.247 1_554 S
C280 O284 1.258 1_554 S
C281 O288 1.247 . S
C281 O289 1.258 . S
O282 C280 1.247 1_556 S
O282 Zn283 2.028 . S
Zn283 O282 2.028 . S
Zn283 O287 2.035 . S
Zn283 O289 2.035 . S
Zn283 O290 2.028 . S
O284 C280 1.258 1_556 S
O284 Zn285 2.035 . S
Zn285 O284 2.035 . S
Zn285 O286 2.028 . S
Zn285 O288 2.028 . S
Zn285 O291 2.035 . S
O286 Zn285 2.028 . S
O286 C292 1.247 . S
O287 Zn283 2.035 . S
O287 C292 1.258 . S
O288 C281 1.247 . S
O288 Zn285 2.028 . S
O289 C281 1.258 . S
O289 Zn283 2.035 . S
O290 Zn283 2.028 . S
O290 C293 1.247 . S
O291 Zn285 2.035 . S
O291 C293 1.258 . S
C292 O286 1.247 . S
C292 O287 1.258 . S
C293 O290 1.247 . S
C293 O291 1.258 . S
C294 O296 1.247 . S
C294 O298 1.258 . S
C295 O302 1.247 . S
C295 O303 1.258 . S
O296 C294 1.247 . S
O296 Zn297 2.028 . S
Zn297 O296 2.028 . S
Zn297 O301 2.035 . S
Zn297 O303 2.035 . S
Zn297 O304 2.028 . S
O298 C294 1.258 . S
O298 Zn299 2.035 . S
Zn299 O298 2.035 . S
Zn299 O300 2.028 . S
Zn299 O302 2.028 . S
Zn299 O305 2.035 . S
O300 Zn299 2.028 . S
O300 C306 1.247 . S
O301 Zn297 2.035 . S
O301 C306 1.258 . S
O302 C295 1.247 . S
O302 Zn299 2.028 . S
O303 C295 1.258 . S
O303 Zn297 2.035 . S
O304 Zn297 2.028 . S
O304 C307 1.247 . S
O305 Zn299 2.035 . S
O305 C307 1.258 . S
C306 O300 1.247 . S
C306 O301 1.258 . S
C307 O304 1.247 . S
C307 O305 1.258 . S
C308 O310 1.247 . S
C308 O312 1.258 . S
C309 O316 1.174 1_455 S
C309 O317 1.305 . S
O310 C308 1.247 . S
O310 Zn311 2.028 1_655 S
Zn311 O310 2.028 1_455 S
Zn311 O315 2.023 1_455 S
Zn311 O317 2.035 . S
Zn311 O318 2.028 . S
O312 C308 1.258 . S
O312 Zn313 2.035 . S
Zn313 O312 2.035 . S
Zn313 O314 2.028 . S
Zn313 O316 2.028 . S
Zn313 O319 2.035 . S
O314 Zn313 2.028 . S
O314 C320 1.247 . S
O315 Zn311 2.023 1_655 S
O315 C320 1.311 . S
O316 C309 1.174 1_655 S
O316 Zn313 2.028 . S
O317 C309 1.305 . S
O317 Zn311 2.035 . S
O318 Zn311 2.028 . S
O318 C321 1.247 1_455 S
O319 Zn313 2.035 . S
O319 C321 1.258 . S
C320 O314 1.247 . S
C320 O315 1.311 . S
C321 O318 1.247 1_655 S
C321 O319 1.258 . S
C322 O324 1.247 . S
C322 O326 1.258 . S
C323 O330 1.247 . S
C323 O331 1.258 . S
O324 C322 1.247 . S
O324 Zn325 2.028 . S
Zn325 O324 2.028 . S
Zn325 O329 2.035 . S
Zn325 O331 2.035 . S
Zn325 O332 2.028 . S
O326 C322 1.258 . S
O326 Zn327 2.035 . S
Zn327 O326 2.035 . S
Zn327 O328 2.028 . S
Zn327 O330 2.028 . S
Zn327 O333 2.035 . S
O328 Zn327 2.028 . S
O328 C334 1.247 . S
O329 Zn325 2.035 . S
O329 C334 1.258 . S
O330 C323 1.247 . S
O330 Zn327 2.028 . S
O331 C323 1.258 . S
O331 Zn325 2.035 . S
O332 Zn325 2.028 . S
O332 C335 1.247 . S
O333 Zn327 2.035 . S
O333 C335 1.258 . S
C334 O328 1.247 . S
C334 O329 1.258 . S
C335 O332 1.247 . S
C335 O333 1.258 . S
C336 O338 1.247 . S
C336 O340 1.258 . S
C337 O344 1.247 . S
C337 O345 1.258 . S
O338 C336 1.247 . S
O338 Zn339 2.028 . S
Zn339 O338 2.028 . S
Zn339 O343 2.035 . S
Zn339 O345 2.035 . S
Zn339 O346 2.028 . S
O340 C336 1.258 . S
O340 Zn341 2.035 . S
Zn341 O340 2.035 . S
Zn341 O342 2.028 . S
Zn341 O344 2.028 . S
Zn341 O347 2.035 . S
O342 Zn341 2.028 . S
O342 C348 1.247 . S
O343 Zn339 2.035 . S
O343 C348 1.258 . S
O344 C337 1.247 . S
O344 Zn341 2.028 . S
O345 C337 1.258 . S
O345 Zn339 2.035 . S
O346 Zn339 2.028 . S
O346 C349 1.247 . S
O347 Zn341 2.035 . S
O347 C349 1.258 . S
C348 O342 1.247 . S
C348 O343 1.258 . S
C349 O346 1.247 . S
C349 O347 1.258 . S
C350 O352 1.247 . S
C350 O354 1.258 . S
C351 O358 1.247 . S
C351 O359 1.258 . S
O352 C350 1.247 . S
O352 Zn353 2.028 . S
Zn353 O352 2.028 . S
Zn353 O357 2.035 . S
Zn353 O359 2.035 . S
Zn353 O360 2.028 . S
O354 C350 1.258 . S
O354 Zn355 2.035 . S
Zn355 O354 2.035 . S
Zn355 O356 2.028 . S
Zn355 O358 2.028 . S
Zn355 O361 2.035 . S
O356 Zn355 2.028 . S
O356 C362 1.247 . S
O357 Zn353 2.035 . S
O357 C362 1.258 . S
O358 C351 1.247 . S
O358 Zn355 2.028 . S
O359 C351 1.258 . S
O359 Zn353 2.035 . S
O360 Zn353 2.028 . S
O360 C363 1.247 . S
O361 Zn355 2.035 . S
O361 C363 1.258 . S
C362 O356 1.247 . S
C362 O357 1.258 . S
C363 O360 1.247 . S
C363 O361 1.258 . S
C364 O366 1.247 . S
C364 O368 1.258 . S
C365 O372 1.300 . S
C365 O373 1.176 1_655 S
O366 C364 1.247 . S
O366 Zn367 2.028 . S
Zn367 O366 2.028 . S
Zn367 O371 2.035 . S
Zn367 O373 2.035 . S
Zn367 O374 2.028 . S
O368 C364 1.258 . S
O368 Zn369 2.035 1_455 S
Zn369 O368 2.035 1_655 S
Zn369 O370 2.014 1_655 S
Zn369 O372 2.028 . S
Zn369 O375 2.035 . S
O370 Zn369 2.014 1_455 S
O370 C376 1.304 1_556 S
O371 Zn367 2.035 . S
O371 C376 1.258 1_556 S
O372 C365 1.300 . S
O372 Zn369 2.028 . S
O373 C365 1.176 1_455 S
O373 Zn367 2.035 . S
O374 Zn367 2.028 . S
O374 C377 1.247 . S
O375 Zn369 2.035 . S
O375 C377 1.258 1_655 S
C376 O370 1.304 1_554 S
C376 O371 1.258 1_554 S
C377 O374 1.247 . S
C377 O375 1.258 1_455 S
C378 O380 1.247 . S
C378 O382 1.258 . S
C379 O386 1.247 . S
C379 O387 1.258 . S
O380 C378 1.247 . S
O380 Zn381 2.028 . S
Zn381 O380 2.028 . S
Zn381 O385 2.035 . S
Zn381 O387 2.035 . S
Zn381 O388 2.028 . S
O382 C378 1.258 . S
O382 Zn383 2.035 . S
Zn383 O382 2.035 . S
Zn383 O384 2.028 . S
Zn383 O386 2.028 . S
Zn383 O389 2.035 . S
O384 Zn383 2.028 . S
O384 C390 1.247 . S
O385 Zn381 2.035 . S
O385 C390 1.258 . S
O386 C379 1.247 . S
O386 Zn383 2.028 . S
O387 C379 1.258 . S
O387 Zn381 2.035 . S
O388 Zn381 2.028 . S
O388 C391 1.247 . S
O389 Zn383 2.035 . S
O389 C391 1.258 . S
C390 O384 1.247 . S
C390 O385 1.258 . S
C391 O388 1.247 . S
C391 O389 1.258 . S
C392 O394 1.247 . S
C392 O396 1.258 . S
C393 O400 1.247 1_556 S
C393 O401 1.258 1_556 S
O394 C392 1.247 . S
O394 Zn395 2.028 . S
Zn395 O394 2.028 . S
Zn395 O399 2.035 . S
Zn395 O401 2.035 . S
Zn395 O402 2.028 . S
O396 C392 1.258 . S
O396 Zn397 2.035 . S
Zn397 O396 2.035 . S
Zn397 O398 2.028 . S
Zn397 O400 2.028 . S
Zn397 O403 2.035 . S
O398 Zn397 2.028 . S
O398 C404 1.247 . S
O399 Zn395 2.035 . S
O399 C404 1.258 . S
O400 C393 1.247 1_554 S
O400 Zn397 2.028 . S
O401 C393 1.258 1_554 S
O401 Zn395 2.035 . S
O402 Zn395 2.028 . S
O402 C405 1.247 . S
O403 Zn397 2.035 . S
O403 C405 1.258 . S
C404 O398 1.247 . S
C404 O399 1.258 . S
C405 O402 1.247 . S
C405 O403 1.258 . S
C406 O408 1.247 . S
C406 O410 1.258 . S
C407 O414 1.247 . S
C407 O415 1.258 . S
O408 C406 1.247 . S
O408 Zn409 2.028 . S
Zn409 O408 2.028 . S
Zn409 O413 2.035 . S
Zn409 O415 2.035 . S
Zn409 O416 2.028 . S
O410 C406 1.258 . S
O410 Zn411 2.035 . S
Zn411 O410 2.035 . S
Zn411 O412 2.028 . S
Zn411 O414 2.028 . S
Zn411 O417 2.035 . S
O412 Zn411 2.028 . S
O412 C418 1.247 . S
O413 Zn409 2.035 . S
O413 C418 1.258 . S
O414 C407 1.247 . S
O414 Zn411 2.028 . S
O415 C407 1.258 . S
O415 Zn409 2.035 . S
O416 Zn409 2.028 . S
O416 C419 1.247 . S
O417 Zn411 2.035 . S
O417 C419 1.258 . S
C418 O412 1.247 . S
C418 O413 1.258 . S
C419 O416 1.247 . S
C419 O417 1.258 . S
C420 O422 1.247 . S
C420 O424 1.258 . S
C421 O428 1.300 . S
C421 O429 1.176 1_655 S
O422 C420 1.247 . S
O422 Zn423 2.028 . S
Zn423 O422 2.028 . S
Zn423 O427 2.035 . S
Zn423 O429 2.035 . S
Zn423 O430 2.028 . S
O424 C420 1.258 . S
O424 Zn425 2.035 1_455 S
Zn425 O424 2.035 1_655 S
Zn425 O426 2.014 1_655 S
Zn425 O428 2.028 . S
Zn425 O431 2.035 . S
O426 Zn425 2.014 1_455 S
O426 C432 1.304 . S
O427 Zn423 2.035 . S
O427 C432 1.258 . S
O428 C421 1.300 . S
O428 Zn425 2.028 . S
O429 C421 1.176 1_455 S
O429 Zn423 2.035 . S
O430 Zn423 2.028 . S
O430 C433 1.247 . S
O431 Zn425 2.035 . S
O431 C433 1.258 1_655 S
C432 O426 1.304 . S
C432 O427 1.258 . S
C433 O430 1.247 . S
C433 O431 1.258 1_455 S
C434 O436 1.247 . S
C434 O438 1.258 . S
C435 O442 1.247 . S
C435 O443 1.258 . S
O436 C434 1.247 . S
O436 Zn437 2.028 . S
Zn437 O436 2.028 . S
Zn437 O441 2.035 . S
Zn437 O443 2.035 . S
Zn437 O444 2.028 . S
O438 C434 1.258 . S
O438 Zn439 2.035 . S
Zn439 O438 2.035 . S
Zn439 O440 2.028 . S
Zn439 O442 2.028 . S
Zn439 O445 2.035 . S
O440 Zn439 2.028 . S
O440 C446 1.247 . S
O441 Zn437 2.035 . S
O441 C446 1.258 . S
O442 C435 1.247 . S
O442 Zn439 2.028 . S
O443 C435 1.258 . S
O443 Zn437 2.035 . S
O444 Zn437 2.028 . S
O444 C447 1.247 . S
O445 Zn439 2.035 . S
O445 C447 1.258 . S
C446 O440 1.247 . S
C446 O441 1.258 . S
C447 O444 1.247 . S
C447 O445 1.258 . S
C448 C449 1.346 . S
C448 C450 1.328 1_655 S
C448 H473 0.952 1_655 S
C449 C448 1.346 . S
C449 C465 1.349 . S
C450 C448 1.328 1_455 S
C450 C469 1.429 1_455 S
C450 H474 0.950 . S
C451 C468 1.574 . S
C451 C470 1.368 . S
C451 H475 0.949 . S
H452 C456 0.949 . S
C453 C454 1.349 . S
C453 C455 1.321 1_455 S
C453 H476 0.950 1_455 S
C454 C453 1.349 . S
C454 C466 1.349 . S
C455 C453 1.321 1_655 S
C455 C471 1.412 1_655 S
C455 H477 0.975 . S
C456 H452 0.949 . S
C456 C464 1.574 . S
C456 C472 1.368 . S
H457 C465 0.950 . S
H458 C463 0.950 . S
H459 C464 0.949 . S
H460 C466 0.950 . S
H461 C467 0.950 . S
H462 C468 0.949 . S
C463 H458 0.950 . S
C463 C465 1.327 . S
C463 C469 1.429 . S
C464 C456 1.574 . S
C464 H459 0.949 . S
C464 C470 1.368 1_455 S
C465 C449 1.349 . S
C465 H457 0.950 . S
C465 C463 1.327 . S
C466 C454 1.349 . S
C466 H460 0.950 . S
C466 C467 1.327 . S
C467 H461 0.950 . S
C467 C466 1.327 . S
C467 C471 1.429 . S
C468 C451 1.574 . S
C468 H462 0.949 . S
C468 C472 1.368 1_655 S
C469 C450 1.429 1_655 S
C469 C463 1.429 . S
C469 C470 1.523 . S
C470 C451 1.368 . S
C470 C464 1.368 1_655 S
C470 C469 1.523 . S
C471 C455 1.412 1_455 S
C471 C467 1.429 . S
C471 C472 1.523 . S
C472 C456 1.368 . S
C472 C468 1.368 1_455 S
C472 C471 1.523 . S
H473 C448 0.952 1_455 S
H474 C450 0.950 . S
H475 C451 0.949 . S
H476 C453 0.950 1_655 S
H477 C455 0.975 . S
C478 C479 1.349 . S
C478 C480 1.327 . S
C478 H503 0.950 . S
C479 C478 1.349 . S
C479 C495 1.349 . S
C480 C478 1.327 . S
C480 C499 1.429 . S
C480 H504 0.950 . S
C481 C498 1.574 . S
C481 C500 1.368 . S
C481 H505 0.949 . S
H482 C486 0.949 . S
C483 C484 1.349 . S
C483 C485 1.327 . S
C483 H506 0.950 . S
C484 C483 1.349 . S
C484 C496 1.349 . S
C485 C483 1.327 . S
C485 C501 1.429 . S
C485 H507 0.950 . S
C486 H482 0.949 . S
C486 C494 1.574 . S
C486 C502 1.368 . S
H487 C495 0.950 . S
H488 C493 0.950 . S
H489 C494 0.949 . S
H490 C496 0.950 . S
H491 C497 0.950 . S
H492 C498 0.949 . S
C493 H488 0.950 . S
C493 C495 1.327 . S
C493 C499 1.429 . S
C494 C486 1.574 . S
C494 H489 0.949 . S
C494 C500 1.368 . S
C495 C479 1.349 . S
C495 H487 0.950 . S
C495 C493 1.327 . S
C496 C484 1.349 . S
C496 H490 0.950 . S
C496 C497 1.327 . S
C497 H491 0.950 . S
C497 C496 1.327 . S
C497 C501 1.429 . S
C498 C481 1.574 . S
C498 H492 0.949 . S
C498 C502 1.368 . S
C499 C480 1.429 . S
C499 C493 1.429 . S
C499 C500 1.523 1_556 S
C500 C481 1.368 . S
C500 C494 1.368 . S
C500 C499 1.523 1_554 S
C501 C485 1.429 . S
C501 C497 1.429 . S
C501 C502 1.523 . S
C502 C486 1.368 . S
C502 C498 1.368 . S
C502 C501 1.523 . S
H503 C478 0.950 . S
H504 C480 0.950 . S
H505 C481 0.949 . S
H506 C483 0.950 . S
H507 C485 0.950 . S
C508 C509 1.349 . S
C508 C510 1.327 . S
C508 H533 0.950 . S
C509 C508 1.349 . S
C509 C525 1.349 . S
C510 C508 1.327 . S
C510 C529 1.429 . S
C510 H534 0.950 . S
C511 C528 1.574 . S
C511 C530 1.368 . S
C511 H535 0.949 . S
H512 C516 0.949 . S
C513 C514 1.349 . S
C513 C515 1.327 . S
C513 H536 0.950 . S
C514 C513 1.349 . S
C514 C526 1.349 . S
C515 C513 1.327 . S
C515 C531 1.429 . S
C515 H537 0.950 . S
C516 H512 0.949 . S
C516 C524 1.574 . S
C516 C532 1.368 . S
H517 C525 0.950 . S
H518 C523 0.950 . S
H519 C524 0.949 . S
H520 C526 0.950 . S
H521 C527 0.950 . S
H522 C528 0.949 . S
C523 H518 0.950 . S
C523 C525 1.327 . S
C523 C529 1.429 . S
C524 C516 1.574 . S
C524 H519 0.949 . S
C524 C530 1.368 . S
C525 C509 1.349 . S
C525 H517 0.950 . S
C525 C523 1.327 . S
C526 C514 1.349 . S
C526 H520 0.950 . S
C526 C527 1.327 . S
C527 H521 0.950 . S
C527 C526 1.327 . S
C527 C531 1.429 . S
C528 C511 1.574 . S
C528 H522 0.949 . S
C528 C532 1.368 . S
C529 C510 1.429 . S
C529 C523 1.429 . S
C529 C530 1.523 . S
C530 C511 1.368 . S
C530 C524 1.368 . S
C530 C529 1.523 . S
C531 C515 1.429 . S
C531 C527 1.429 . S
C531 C532 1.523 . S
C532 C516 1.368 . S
C532 C528 1.368 . S
C532 C531 1.523 . S
H533 C508 0.950 . S
H534 C510 0.950 . S
H535 C511 0.949 . S
H536 C513 0.950 . S
H537 C515 0.950 . S
C538 C539 1.349 . S
C538 C540 1.327 . S
C538 H563 0.950 . S
C539 C538 1.349 . S
C539 C555 1.349 . S
C540 C538 1.327 . S
C540 C559 1.429 . S
C540 H564 0.950 . S
C541 C558 1.574 . S
C541 C560 1.368 . S
C541 H565 0.949 . S
H542 C546 0.949 . S
C543 C544 1.349 . S
C543 C545 1.327 . S
C543 H566 0.950 . S
C544 C543 1.349 . S
C544 C556 1.349 . S
C545 C543 1.327 . S
C545 C561 1.429 . S
C545 H567 0.950 . S
C546 H542 0.949 . S
C546 C554 1.574 . S
C546 C562 1.368 . S
H547 C555 0.950 . S
H548 C553 0.950 . S
H549 C554 0.949 . S
H550 C556 0.950 . S
H551 C557 0.950 . S
H552 C558 0.949 . S
C553 H548 0.950 . S
C553 C555 1.327 . S
C553 C559 1.429 . S
C554 C546 1.574 . S
C554 H549 0.949 . S
C554 C560 1.368 . S
C555 C539 1.349 . S
C555 H547 0.950 . S
C555 C553 1.327 . S
C556 C544 1.349 . S
C556 H550 0.950 . S
C556 C557 1.327 . S
C557 H551 0.950 . S
C557 C556 1.327 . S
C557 C561 1.429 . S
C558 C541 1.574 . S
C558 H552 0.949 . S
C558 C562 1.368 . S
C559 C540 1.429 . S
C559 C553 1.429 . S
C559 C560 1.523 . S
C560 C541 1.368 . S
C560 C554 1.368 . S
C560 C559 1.523 . S
C561 C545 1.429 . S
C561 C557 1.429 . S
C561 C562 1.523 . S
C562 C546 1.368 . S
C562 C558 1.368 . S
C562 C561 1.523 . S
H563 C538 0.950 . S
H564 C540 0.950 . S
H565 C541 0.949 . S
H566 C543 0.950 . S
H567 C545 0.950 . S
C568 C569 1.345 . S
C568 C570 1.328 1_655 S
C568 H593 0.953 1_655 S
C569 C568 1.345 . S
C569 C585 1.349 . S
C570 C568 1.328 1_455 S
C570 C589 1.429 1_455 S
C570 H594 0.950 . S
C571 C588 1.574 . S
C571 C590 1.368 . S
C571 H595 0.949 . S
H572 C576 0.949 . S
C573 C574 1.349 . S
C573 C575 1.320 1_455 S
C573 H596 0.950 1_455 S
C574 C573 1.349 . S
C574 C586 1.349 . S
C575 C573 1.320 1_655 S
C575 C591 1.411 1_655 S
C575 H597 0.977 . S
C576 H572 0.949 . S
C576 C584 1.574 . S
C576 C592 1.368 . S
H577 C585 0.950 . S
H578 C583 0.950 . S
H579 C584 0.949 . S
H580 C586 0.950 . S
H581 C587 0.950 . S
H582 C588 0.949 . S
C583 H578 0.950 . S
C583 C585 1.327 . S
C583 C589 1.429 . S
C584 C576 1.574 . S
C584 H579 0.949 . S
C584 C590 1.368 1_455 S
C585 C569 1.349 . S
C585 H577 0.950 . S
C585 C583 1.327 . S
C586 C574 1.349 . S
C586 H580 0.950 . S
C586 C587 1.327 . S
C587 H581 0.950 . S
C587 C586 1.327 . S
C587 C591 1.429 . S
C588 C571 1.574 . S
C588 H582 0.949 . S
C588 C592 1.368 1_655 S
C589 C570 1.429 1_655 S
C589 C583 1.429 . S
C589 C590 1.523 . S
C590 C571 1.368 . S
C590 C584 1.368 1_655 S
C590 C589 1.523 . S
C591 C575 1.411 1_455 S
C591 C587 1.429 . S
C591 C592 1.523 . S
C592 C576 1.368 . S
C592 C588 1.368 1_455 S
C592 C591 1.523 . S
H593 C568 0.953 1_455 S
H594 C570 0.950 . S
H595 C571 0.949 . S
H596 C573 0.950 1_655 S
H597 C575 0.977 . S
C598 C599 1.349 . S
C598 C600 1.327 . S
C598 H623 0.950 . S
C599 C598 1.349 . S
C599 C615 1.349 . S
C600 C598 1.327 . S
C600 C619 1.429 . S
C600 H624 0.950 . S
C601 C618 1.574 . S
C601 C620 1.368 . S
C601 H625 0.949 . S
H602 C606 0.949 . S
C603 C604 1.349 . S
C603 C605 1.327 . S
C603 H626 0.950 . S
C604 C603 1.349 . S
C604 C616 1.349 . S
C605 C603 1.327 . S
C605 C621 1.429 . S
C605 H627 0.950 . S
C606 H602 0.949 . S
C606 C614 1.574 . S
C606 C622 1.368 . S
H607 C615 0.950 . S
H608 C613 0.950 . S
H609 C614 0.949 . S
H610 C616 0.950 . S
H611 C617 0.950 . S
H612 C618 0.949 . S
C613 H608 0.950 . S
C613 C615 1.327 . S
C613 C619 1.429 . S
C614 C606 1.574 . S
C614 H609 0.949 . S
C614 C620 1.368 . S
C615 C599 1.349 . S
C615 H607 0.950 . S
C615 C613 1.327 . S
C616 C604 1.349 . S
C616 H610 0.950 . S
C616 C617 1.327 . S
C617 H611 0.950 . S
C617 C616 1.327 . S
C617 C621 1.429 . S
C618 C601 1.574 . S
C618 H612 0.949 . S
C618 C622 1.368 . S
C619 C600 1.429 . S
C619 C613 1.429 . S
C619 C620 1.523 . S
C620 C601 1.368 . S
C620 C614 1.368 . S
C620 C619 1.523 . S
C621 C605 1.429 . S
C621 C617 1.429 . S
C621 C622 1.523 1_554 S
C622 C606 1.368 . S
C622 C618 1.368 . S
C622 C621 1.523 1_556 S
H623 C598 0.950 . S
H624 C600 0.950 . S
H625 C601 0.949 . S
H626 C603 0.950 . S
H627 C605 0.950 . S
C628 C629 1.349 . S
C628 C630 1.327 . S
C628 H653 0.950 . S
C629 C628 1.349 . S
C629 C645 1.349 . S
C630 C628 1.327 . S
C630 C649 1.429 . S
C630 H654 0.950 . S
C631 C648 1.574 . S
C631 C650 1.368 . S
C631 H655 0.949 . S
H632 C636 0.949 . S
C633 C634 1.349 . S
C633 C635 1.327 . S
C633 H656 0.950 . S
C634 C633 1.349 . S
C634 C646 1.349 . S
C635 C633 1.327 . S
C635 C651 1.429 . S
C635 H657 0.950 . S
C636 H632 0.949 . S
C636 C644 1.574 . S
C636 C652 1.368 . S
H637 C645 0.950 . S
H638 C643 0.950 . S
H639 C644 0.949 . S
H640 C646 0.950 . S
H641 C647 0.950 . S
H642 C648 0.949 . S
C643 H638 0.950 . S
C643 C645 1.327 . S
C643 C649 1.429 . S
C644 C636 1.574 . S
C644 H639 0.949 . S
C644 C650 1.368 . S
C645 C629 1.349 . S
C645 H637 0.950 . S
C645 C643 1.327 . S
C646 C634 1.349 . S
C646 H640 0.950 . S
C646 C647 1.327 . S
C647 H641 0.950 . S
C647 C646 1.327 . S
C647 C651 1.429 . S
C648 C631 1.574 . S
C648 H642 0.949 . S
C648 C652 1.368 . S
C649 C630 1.429 . S
C649 C643 1.429 . S
C649 C650 1.523 . S
C650 C631 1.368 . S
C650 C644 1.368 . S
C650 C649 1.523 . S
C651 C635 1.429 . S
C651 C647 1.429 . S
C651 C652 1.523 . S
C652 C636 1.368 . S
C652 C648 1.368 . S
C652 C651 1.523 . S
H653 C628 0.950 . S
H654 C630 0.950 . S
H655 C631 0.949 . S
H656 C633 0.950 . S
H657 C635 0.950 . S
C658 C659 1.349 . S
C658 C660 1.327 . S
C658 H683 0.950 . S
C659 C658 1.349 . S
C659 C675 1.349 . S
C660 C658 1.327 . S
C660 C679 1.429 . S
C660 H684 0.950 . S
C661 C678 1.574 . S
C661 C680 1.368 . S
C661 H685 0.949 . S
H662 C666 0.949 . S
C663 C664 1.349 . S
C663 C665 1.327 . S
C663 H686 0.950 . S
C664 C663 1.349 . S
C664 C676 1.349 . S
C665 C663 1.327 . S
C665 C681 1.429 . S
C665 H687 0.950 . S
C666 H662 0.949 . S
C666 C674 1.574 . S
C666 C682 1.368 . S
H667 C675 0.950 . S
H668 C673 0.950 . S
H669 C674 0.949 . S
H670 C676 0.950 . S
H671 C677 0.950 . S
H672 C678 0.949 . S
C673 H668 0.950 . S
C673 C675 1.327 . S
C673 C679 1.429 . S
C674 C666 1.574 . S
C674 H669 0.949 . S
C674 C680 1.368 . S
C675 C659 1.349 . S
C675 H667 0.950 . S
C675 C673 1.327 . S
C676 C664 1.349 . S
C676 H670 0.950 . S
C676 C677 1.327 . S
C677 H671 0.950 . S
C677 C676 1.327 . S
C677 C681 1.429 . S
C678 C661 1.574 . S
C678 H672 0.949 . S
C678 C682 1.368 . S
C679 C660 1.429 . S
C679 C673 1.429 . S
C679 C680 1.523 . S
C680 C661 1.368 . S
C680 C674 1.368 . S
C680 C679 1.523 . S
C681 C665 1.429 . S
C681 C677 1.429 . S
C681 C682 1.523 . S
C682 C666 1.368 . S
C682 C678 1.368 . S
C682 C681 1.523 . S
H683 C658 0.950 . S
H684 C660 0.950 . S
H685 C661 0.949 . S
H686 C663 0.950 . S
H687 C665 0.950 . S
C688 C689 1.349 . S
C688 C690 1.327 . S
C688 H713 0.950 . S
C689 C688 1.349 . S
C689 C705 1.368 . S
C690 C688 1.327 . S
C690 C709 1.429 . S
C690 H714 0.950 . S
C691 C708 1.574 . S
C691 C710 1.368 1_655 S
C691 H715 0.949 . S
H692 C696 0.949 . S
C693 C694 1.349 . S
C693 C695 1.327 . S
C693 H716 0.950 . S
C694 C693 1.349 . S
C694 C706 1.349 . S
C695 C693 1.327 . S
C695 C711 1.429 . S
C695 H717 0.950 . S
C696 H692 0.949 . S
C696 C704 1.574 . S
C696 C712 1.368 1_455 S
H697 C705 0.937 1_655 S
H698 C703 0.950 . S
H699 C704 0.949 . S
H700 C706 0.950 1_455 S
H701 C707 0.950 . S
H702 C708 0.949 . S
C703 H698 0.950 . S
C703 C705 1.322 1_655 S
C703 C709 1.429 1_655 S
C704 C696 1.574 . S
C704 H699 0.949 . S
C704 C710 1.368 . S
C705 C689 1.368 . S
C705 H697 0.937 1_455 S
C705 C703 1.322 1_455 S
C706 C694 1.349 . S
C706 H700 0.950 1_655 S
C706 C707 1.327 1_655 S
C707 H701 0.950 . S
C707 C706 1.327 1_455 S
C707 C711 1.428 1_455 S
C708 C691 1.574 . S
C708 H702 0.949 . S
C708 C712 1.368 . S
C709 C690 1.429 . S
C709 C703 1.429 1_455 S
C709 C710 1.523 . S
C710 C691 1.368 1_455 S
C710 C704 1.368 . S
C710 C709 1.523 . S
C711 C695 1.429 . S
C711 C707 1.428 1_655 S
C711 C712 1.523 . S
C712 C696 1.368 1_655 S
C712 C708 1.368 . S
C712 C711 1.523 . S
H713 C688 0.950 . S
H714 C690 0.950 . S
H715 C691 0.949 . S
H716 C693 0.950 . S
H717 C695 0.950 . S
C718 C719 1.349 . S
C718 C720 1.327 . S
C718 H743 0.950 . S
C719 C718 1.349 . S
C719 C735 1.349 . S
C720 C718 1.327 . S
C720 C739 1.429 . S
C720 H744 0.950 . S
C721 C738 1.574 . S
C721 C740 1.368 . S
C721 H745 0.949 . S
H722 C726 0.949 . S
C723 C724 1.349 . S
C723 C725 1.327 . S
C723 H746 0.950 . S
C724 C723 1.349 . S
C724 C736 1.349 . S
C725 C723 1.327 . S
C725 C741 1.429 . S
C725 H747 0.950 . S
C726 H722 0.949 . S
C726 C734 1.574 . S
C726 C742 1.368 . S
H727 C735 0.950 . S
H728 C733 0.950 . S
H729 C734 0.949 . S
H730 C736 0.950 . S
H731 C737 0.950 . S
H732 C738 0.949 . S
C733 H728 0.950 . S
C733 C735 1.327 . S
C733 C739 1.429 . S
C734 C726 1.574 . S
C734 H729 0.949 . S
C734 C740 1.368 . S
C735 C719 1.349 . S
C735 H727 0.950 . S
C735 C733 1.327 . S
C736 C724 1.349 . S
C736 H730 0.950 . S
C736 C737 1.327 . S
C737 H731 0.950 . S
C737 C736 1.327 . S
C737 C741 1.429 . S
C738 C721 1.574 . S
C738 H732 0.949 . S
C738 C742 1.368 . S
C739 C720 1.429 . S
C739 C733 1.429 . S
C739 C740 1.523 1_554 S
C740 C721 1.368 . S
C740 C734 1.368 . S
C740 C739 1.523 1_556 S
C741 C725 1.429 . S
C741 C737 1.429 . S
C741 C742 1.523 . S
C742 C726 1.368 . S
C742 C738 1.368 . S
C742 C741 1.523 . S
H743 C718 0.950 . S
H744 C720 0.950 . S
H745 C721 0.949 . S
H746 C723 0.950 . S
H747 C725 0.950 . S
C748 C749 1.349 . S
C748 C750 1.327 . S
C748 H773 0.950 . S
C749 C748 1.349 . S
C749 C765 1.349 . S
C750 C748 1.327 . S
C750 C769 1.429 . S
C750 H774 0.950 . S
C751 C768 1.574 . S
C751 C770 1.368 . S
C751 H775 0.949 . S
H752 C756 0.949 . S
C753 C754 1.349 . S
C753 C755 1.327 . S
C753 H776 0.950 . S
C754 C753 1.349 . S
C754 C766 1.349 . S
C755 C753 1.327 . S
C755 C771 1.429 . S
C755 H777 0.950 . S
C756 H752 0.949 . S
C756 C764 1.574 . S
C756 C772 1.368 . S
H757 C765 0.950 . S
H758 C763 0.950 . S
H759 C764 0.949 . S
H760 C766 0.950 . S
H761 C767 0.950 . S
H762 C768 0.949 . S
C763 H758 0.950 . S
C763 C765 1.327 . S
C763 C769 1.429 . S
C764 C756 1.574 . S
C764 H759 0.949 . S
C764 C770 1.368 . S
C765 C749 1.349 . S
C765 H757 0.950 . S
C765 C763 1.327 . S
C766 C754 1.349 . S
C766 H760 0.950 . S
C766 C767 1.327 . S
C767 H761 0.950 . S
C767 C766 1.327 . S
C767 C771 1.429 . S
C768 C751 1.574 . S
C768 H762 0.949 . S
C768 C772 1.368 . S
C769 C750 1.429 . S
C769 C763 1.429 . S
C769 C770 1.523 . S
C770 C751 1.368 . S
C770 C764 1.368 . S
C770 C769 1.523 . S
C771 C755 1.429 . S
C771 C767 1.429 . S
C771 C772 1.523 . S
C772 C756 1.368 . S
C772 C768 1.368 . S
C772 C771 1.523 . S
H773 C748 0.950 . S
H774 C750 0.950 . S
H775 C751 0.949 . S
H776 C753 0.950 . S
H777 C755 0.950 . S
C778 C779 1.349 . S
C778 C780 1.327 . S
C778 H803 0.950 . S
C779 C778 1.349 . S
C779 C795 1.349 . S
C780 C778 1.327 . S
C780 C799 1.429 . S
C780 H804 0.950 . S
C781 C798 1.574 . S
C781 C800 1.368 . S
C781 H805 0.949 . S
H782 C786 0.949 . S
C783 C784 1.349 . S
C783 C785 1.327 . S
C783 H806 0.950 . S
C784 C783 1.349 . S
C784 C796 1.349 . S
C785 C783 1.327 . S
C785 C801 1.429 . S
C785 H807 0.950 . S
C786 H782 0.949 . S
C786 C794 1.574 . S
C786 C802 1.368 . S
H787 C795 0.950 . S
H788 C793 0.950 . S
H789 C794 0.949 . S
H790 C796 0.950 . S
H791 C797 0.950 . S
H792 C798 0.949 . S
C793 H788 0.950 . S
C793 C795 1.327 . S
C793 C799 1.429 . S
C794 C786 1.574 . S
C794 H789 0.949 . S
C794 C800 1.368 . S
C795 C779 1.349 . S
C795 H787 0.950 . S
C795 C793 1.327 . S
C796 C784 1.349 . S
C796 H790 0.950 . S
C796 C797 1.327 . S
C797 H791 0.950 . S
C797 C796 1.327 . S
C797 C801 1.429 . S
C798 C781 1.574 . S
C798 H792 0.949 . S
C798 C802 1.368 . S
C799 C780 1.429 . S
C799 C793 1.429 . S
C799 C800 1.523 . S
C800 C781 1.368 . S
C800 C794 1.368 . S
C800 C799 1.523 . S
C801 C785 1.429 . S
C801 C797 1.429 . S
C801 C802 1.523 . S
C802 C786 1.368 . S
C802 C798 1.368 . S
C802 C801 1.523 . S
H803 C778 0.950 . S
H804 C780 0.950 . S
H805 C781 0.949 . S
H806 C783 0.950 . S
H807 C785 0.950 . S
C808 C809 1.349 1_455 S
C808 C810 1.327 . S
C808 H833 0.950 . S
C809 C808 1.349 1_655 S
C809 C825 1.349 . S
C810 C808 1.327 . S
C810 C829 1.429 1_455 S
C810 H834 0.950 . S
C811 C828 1.574 . S
C811 C830 1.368 . S
C811 H835 0.949 . S
H812 C816 0.949 . S
C813 C814 1.349 1_655 S
C813 C815 1.327 . S
C813 H836 0.950 . S
C814 C813 1.349 1_455 S
C814 C826 1.349 . S
C815 C813 1.327 . S
C815 C831 1.429 1_655 S
C815 H837 0.950 . S
C816 H812 0.949 . S
C816 C824 1.574 . S
C816 C832 1.368 . S
H817 C825 0.950 . S
H818 C823 0.950 . S
H819 C824 0.949 . S
H820 C826 0.950 . S
H821 C827 0.950 . S
H822 C828 0.949 . S
C823 H818 0.950 . S
C823 C825 1.327 . S
C823 C829 1.429 . S
C824 C816 1.574 . S
C824 H819 0.949 . S
C824 C830 1.368 1_455 S
C825 C809 1.349 . S
C825 H817 0.950 . S
C825 C823 1.327 . S
C826 C814 1.349 . S
C826 H820 0.950 . S
C826 C827 1.327 . S
C827 H821 0.950 . S
C827 C826 1.327 . S
C827 C831 1.429 . S
C828 C811 1.574 . S
C828 H822 0.949 . S
C828 C832 1.368 1_655 S
C829 C810 1.429 1_655 S
C829 C823 1.429 . S
C829 C830 1.523 . S
C830 C811 1.368 . S
C830 C824 1.368 1_655 S
C830 C829 1.523 . S
C831 C815 1.429 1_455 S
C831 C827 1.429 . S
C831 C832 1.523 . S
C832 C816 1.368 . S
C832 C828 1.368 1_455 S
C832 C831 1.523 . S
H833 C808 0.950 . S
H834 C810 0.950 . S
H835 C811 0.949 . S
H836 C813 0.950 . S
H837 C815 0.950 . S
C838 C839 1.349 . S
C838 C840 1.327 . S
C838 H863 0.950 . S
C839 C838 1.349 . S
C839 C855 1.349 . S
C840 C838 1.327 . S
C840 C859 1.429 . S
C840 H864 0.950 . S
C841 C858 1.574 . S
C841 C860 1.368 . S
C841 H865 0.949 . S
H842 C846 0.949 . S
C843 C844 1.349 . S
C843 C845 1.327 . S
C843 H866 0.950 . S
C844 C843 1.349 . S
C844 C856 1.349 . S
C845 C843 1.327 . S
C845 C861 1.429 . S
C845 H867 0.950 . S
C846 H842 0.949 . S
C846 C854 1.574 . S
C846 C862 1.368 . S
H847 C855 0.950 . S
H848 C853 0.950 . S
H849 C854 0.949 . S
H850 C856 0.950 . S
H851 C857 0.950 . S
H852 C858 0.949 . S
C853 H848 0.950 . S
C853 C855 1.327 . S
C853 C859 1.429 . S
C854 C846 1.574 . S
C854 H849 0.949 . S
C854 C860 1.368 . S
C855 C839 1.349 . S
C855 H847 0.950 . S
C855 C853 1.327 . S
C856 C844 1.349 . S
C856 H850 0.950 . S
C856 C857 1.327 . S
C857 H851 0.950 . S
C857 C856 1.327 . S
C857 C861 1.429 . S
C858 C841 1.574 . S
C858 H852 0.949 . S
C858 C862 1.368 . S
C859 C840 1.429 . S
C859 C853 1.429 . S
C859 C860 1.523 . S
C860 C841 1.368 . S
C860 C854 1.368 . S
C860 C859 1.523 . S
C861 C845 1.429 . S
C861 C857 1.429 . S
C861 C862 1.523 1_556 S
C862 C846 1.368 . S
C862 C858 1.368 . S
C862 C861 1.523 1_554 S
H863 C838 0.950 . S
H864 C840 0.950 . S
H865 C841 0.949 . S
H866 C843 0.950 . S
H867 C845 0.950 . S
C868 C869 1.349 . S
C868 C870 1.327 . S
C868 H893 0.950 . S
C869 C868 1.349 . S
C869 C885 1.349 . S
C870 C868 1.327 . S
C870 C889 1.429 . S
C870 H894 0.950 . S
C871 C888 1.574 . S
C871 C890 1.368 . S
C871 H895 0.949 . S
H872 C876 0.949 . S
C873 C874 1.349 . S
C873 C875 1.327 . S
C873 H896 0.950 . S
C874 C873 1.349 . S
C874 C886 1.349 . S
C875 C873 1.327 . S
C875 C891 1.429 . S
C875 H897 0.950 . S
C876 H872 0.949 . S
C876 C884 1.574 . S
C876 C892 1.368 . S
H877 C885 0.950 . S
H878 C883 0.950 . S
H879 C884 0.949 . S
H880 C886 0.950 . S
H881 C887 0.950 . S
H882 C888 0.949 . S
C883 H878 0.950 . S
C883 C885 1.327 . S
C883 C889 1.429 . S
C884 C876 1.574 . S
C884 H879 0.949 . S
C884 C890 1.368 . S
C885 C869 1.349 . S
C885 H877 0.950 . S
C885 C883 1.327 . S
C886 C874 1.349 . S
C886 H880 0.950 . S
C886 C887 1.327 . S
C887 H881 0.950 . S
C887 C886 1.327 . S
C887 C891 1.429 . S
C888 C871 1.574 . S
C888 H882 0.949 . S
C888 C892 1.368 . S
C889 C870 1.429 . S
C889 C883 1.429 . S
C889 C890 1.523 . S
C890 C871 1.368 . S
C890 C884 1.368 . S
C890 C889 1.523 . S
C891 C875 1.429 . S
C891 C887 1.429 . S
C891 C892 1.523 . S
C892 C876 1.368 . S
C892 C888 1.368 . S
C892 C891 1.523 . S
H893 C868 0.950 . S
H894 C870 0.950 . S
H895 C871 0.949 . S
H896 C873 0.950 . S
H897 C875 0.950 . S
C898 C899 1.349 . S
C898 C900 1.327 . S
C898 H923 0.950 . S
C899 C898 1.349 . S
C899 C915 1.349 . S
C900 C898 1.327 . S
C900 C919 1.429 . S
C900 H924 0.950 . S
C901 C918 1.574 . S
C901 C920 1.368 . S
C901 H925 0.949 . S
H902 C906 0.949 . S
C903 C904 1.349 . S
C903 C905 1.327 . S
C903 H926 0.950 . S
C904 C903 1.349 . S
C904 C916 1.349 . S
C905 C903 1.327 . S
C905 C921 1.429 . S
C905 H927 0.950 . S
C906 H902 0.949 . S
C906 C914 1.574 . S
C906 C922 1.368 . S
H907 C915 0.950 . S
H908 C913 0.950 . S
H909 C914 0.949 . S
H910 C916 0.950 . S
H911 C917 0.950 . S
H912 C918 0.949 . S
C913 H908 0.950 . S
C913 C915 1.327 . S
C913 C919 1.429 . S
C914 C906 1.574 . S
C914 H909 0.949 . S
C914 C920 1.368 . S
C915 C899 1.349 . S
C915 H907 0.950 . S
C915 C913 1.327 . S
C916 C904 1.349 . S
C916 H910 0.950 . S
C916 C917 1.327 . S
C917 H911 0.950 . S
C917 C916 1.327 . S
C917 C921 1.429 . S
C918 C901 1.574 . S
C918 H912 0.949 . S
C918 C922 1.368 . S
C919 C900 1.429 . S
C919 C913 1.429 . S
C919 C920 1.523 . S
C920 C901 1.368 . S
C920 C914 1.368 . S
C920 C919 1.523 . S
C921 C905 1.429 . S
C921 C917 1.429 . S
C921 C922 1.523 . S
C922 C906 1.368 . S
C922 C918 1.368 . S
C922 C921 1.523 . S
H923 C898 0.950 . S
H924 C900 0.950 . S
H925 C901 0.949 . S
H926 C903 0.950 . S
H927 C905 0.950 . S
C928 C929 1.349 . S
C928 C930 1.327 . S
C928 H953 0.950 . S
C929 C928 1.349 . S
C929 C945 1.349 . S
C930 C928 1.327 . S
C930 C949 1.429 . S
C930 H954 0.950 . S
C931 C948 1.574 . S
C931 C950 1.368 . S
C931 H955 0.949 . S
H932 C936 0.949 . S
C933 C934 1.349 . S
C933 C935 1.327 . S
C933 H956 0.950 . S
C934 C933 1.349 . S
C934 C946 1.349 . S
C935 C933 1.327 . S
C935 C951 1.429 . S
C935 H957 0.950 . S
C936 H932 0.949 . S
C936 C944 1.574 . S
C936 C952 1.368 . S
H937 C945 0.950 . S
H938 C943 0.950 . S
H939 C944 0.949 . S
H940 C946 0.950 . S
H941 C947 0.950 . S
H942 C948 0.949 . S
C943 H938 0.950 . S
C943 C945 1.327 . S
C943 C949 1.429 . S
C944 C936 1.574 . S
C944 H939 0.949 . S
C944 C950 1.368 . S
C945 C929 1.349 . S
C945 H937 0.950 . S
C945 C943 1.327 . S
C946 C934 1.349 . S
C946 H940 0.950 . S
C946 C947 1.327 . S
C947 H941 0.950 . S
C947 C946 1.327 . S
C947 C951 1.429 . S
C948 C931 1.574 . S
C948 H942 0.949 . S
C948 C952 1.368 . S
C949 C930 1.429 . S
C949 C943 1.429 . S
C949 C950 1.523 . S
C950 C931 1.368 . S
C950 C944 1.368 . S
C950 C949 1.523 . S
C951 C935 1.429 . S
C951 C947 1.429 . S
C951 C952 1.523 . S
C952 C936 1.368 . S
C952 C948 1.368 . S
C952 C951 1.523 . S
H953 C928 0.950 . S
H954 C930 0.950 . S
H955 C931 0.949 . S
H956 C933 0.950 . S
H957 C935 0.950 . S
C958 C959 1.349 . S
C958 C960 1.327 . S
C958 H983 0.950 . S
C959 C958 1.349 . S
C959 C975 1.349 . S
C960 C958 1.327 . S
C960 C979 1.429 . S
C960 H984 0.950 . S
C961 C978 1.574 . S
C961 C980 1.368 . S
C961 H985 0.949 . S
H962 C966 0.949 . S
C963 C964 1.349 . S
C963 C965 1.327 . S
C963 H986 0.950 . S
C964 C963 1.349 . S
C964 C976 1.349 . S
C965 C963 1.327 . S
C965 C981 1.429 . S
C965 H987 0.950 . S
C966 H962 0.949 . S
C966 C974 1.574 . S
C966 C982 1.368 . S
H967 C975 0.950 . S
H968 C973 0.950 . S
H969 C974 0.949 . S
H970 C976 0.950 . S
H971 C977 0.950 . S
H972 C978 0.949 . S
C973 H968 0.950 . S
C973 C975 1.327 . S
C973 C979 1.429 . S
C974 C966 1.574 . S
C974 H969 0.949 . S
C974 C980 1.368 . S
C975 C959 1.349 . S
C975 H967 0.950 . S
C975 C973 1.327 . S
C976 C964 1.349 . S
C976 H970 0.950 . S
C976 C977 1.327 . S
C977 H971 0.950 . S
C977 C976 1.327 . S
C977 C981 1.429 . S
C978 C961 1.574 . S
C978 H972 0.949 . S
C978 C982 1.368 . S
C979 C960 1.429 . S
C979 C973 1.429 . S
C979 C980 1.523 . S
C980 C961 1.368 . S
C980 C974 1.368 . S
C980 C979 1.523 . S
C981 C965 1.429 . S
C981 C977 1.429 . S
C981 C982 1.523 . S
C982 C966 1.368 . S
C982 C978 1.368 . S
C982 C981 1.523 . S
H983 C958 0.950 . S
H984 C960 0.950 . S
H985 C961 0.949 . S
H986 C963 0.950 . S
H987 C965 0.950 . S
C988 C989 1.358 . S
C988 C990 1.324 1_455 S
C988 H1013 0.943 1_455 S
C989 C988 1.358 . S
C989 C1005 1.349 . S
C990 C988 1.324 1_655 S
C990 C1009 1.429 1_655 S
C990 H1014 0.950 . S
C991 C1008 1.574 . S
C991 C1010 1.368 . S
C991 H1015 0.949 . S
H992 C996 0.949 . S
C993 C994 1.349 . S
C993 C995 1.324 1_655 S
C993 H1016 0.950 1_655 S
C994 C993 1.349 . S
C994 C1006 1.349 . S
C995 C993 1.324 1_455 S
C995 C1011 1.421 1_455 S
C995 H1017 0.961 . S
C996 H992 0.949 . S
C996 C1004 1.574 . S
C996 C1012 1.368 . S
H997 C1005 0.950 . S
H998 C1003 0.950 . S
H999 C1004 0.949 . S
H1000 C1006 0.950 . S
H1001 C1007 0.950 . S
H1002 C1008 0.949 . S
C1003 H998 0.950 . S
C1003 C1005 1.327 . S
C1003 C1009 1.429 . S
C1004 C996 1.574 . S
C1004 H999 0.949 . S
C1004 C1010 1.368 1_655 S
C1005 C989 1.349 . S
C1005 H997 0.950 . S
C1005 C1003 1.327 . S
C1006 C994 1.349 . S
C1006 H1000 0.950 . S
C1006 C1007 1.327 . S
C1007 H1001 0.950 . S
C1007 C1006 1.327 . S
C1007 C1011 1.429 . S
C1008 C991 1.574 . S
C1008 H1002 0.949 . S
C1008 C1012 1.368 1_455 S
C1009 C990 1.429 1_455 S
C1009 C1003 1.429 . S
C1009 C1010 1.523 . S
C1010 C991 1.368 . S
C1010 C1004 1.368 1_455 S
C1010 C1009 1.523 . S
C1011 C995 1.421 1_655 S
C1011 C1007 1.429 . S
C1011 C1012 1.523 . S
C1012 C996 1.368 . S
C1012 C1008 1.368 1_655 S
C1012 C1011 1.523 . S
H1013 C988 0.943 1_655 S
H1014 C990 0.950 . S
H1015 C991 0.949 . S
H1016 C993 0.950 1_455 S
H1017 C995 0.961 . S
C1018 C1019 1.349 . S
C1018 C1020 1.327 . S
C1018 H1043 0.950 . S
C1019 C1018 1.349 . S
C1019 C1035 1.349 . S
C1020 C1018 1.327 . S
C1020 C1039 1.429 . S
C1020 H1044 0.950 . S
C1021 C1038 1.574 . S
C1021 C1040 1.368 . S
C1021 H1045 0.949 . S
H1022 C1026 0.949 . S
C1023 C1024 1.349 . S
C1023 C1025 1.327 . S
C1023 H1046 0.950 . S
C1024 C1023 1.349 . S
C1024 C1036 1.349 . S
C1025 C1023 1.327 . S
C1025 C1041 1.429 . S
C1025 H1047 0.950 . S
C1026 H1022 0.949 . S
C1026 C1034 1.574 . S
C1026 C1042 1.368 . S
H1027 C1035 0.950 . S
H1028 C1033 0.950 . S
H1029 C1034 0.949 . S
H1030 C1036 0.950 . S
H1031 C1037 0.950 . S
H1032 C1038 0.949 . S
C1033 H1028 0.950 . S
C1033 C1035 1.327 . S
C1033 C1039 1.429 . S
C1034 C1026 1.574 . S
C1034 H1029 0.949 . S
C1034 C1040 1.368 . S
C1035 C1019 1.349 . S
C1035 H1027 0.950 . S
C1035 C1033 1.327 . S
C1036 C1024 1.349 . S
C1036 H1030 0.950 . S
C1036 C1037 1.327 . S
C1037 H1031 0.950 . S
C1037 C1036 1.327 . S
C1037 C1041 1.429 . S
C1038 C1021 1.574 . S
C1038 H1032 0.949 . S
C1038 C1042 1.368 . S
C1039 C1020 1.429 . S
C1039 C1033 1.429 . S
C1039 C1040 1.523 . S
C1040 C1021 1.368 . S
C1040 C1034 1.368 . S
C1040 C1039 1.523 . S
C1041 C1025 1.429 . S
C1041 C1037 1.429 . S
C1041 C1042 1.523 1_556 S
C1042 C1026 1.368 . S
C1042 C1038 1.368 . S
C1042 C1041 1.523 1_554 S
H1043 C1018 0.950 . S
H1044 C1020 0.950 . S
H1045 C1021 0.949 . S
H1046 C1023 0.950 . S
H1047 C1025 0.950 . S
C1048 C1049 1.349 . S
C1048 C1050 1.327 . S
C1048 H1073 0.950 . S
C1049 C1048 1.349 . S
C1049 C1065 1.349 . S
C1050 C1048 1.327 . S
C1050 C1069 1.429 . S
C1050 H1074 0.950 . S
C1051 C1068 1.574 . S
C1051 C1070 1.368 . S
C1051 H1075 0.949 . S
H1052 C1056 0.949 . S
C1053 C1054 1.349 . S
C1053 C1055 1.327 . S
C1053 H1076 0.950 . S
C1054 C1053 1.349 . S
C1054 C1066 1.349 . S
C1055 C1053 1.327 . S
C1055 C1071 1.429 . S
C1055 H1077 0.950 . S
C1056 H1052 0.949 . S
C1056 C1064 1.574 . S
C1056 C1072 1.368 . S
H1057 C1065 0.950 . S
H1058 C1063 0.950 . S
H1059 C1064 0.949 . S
H1060 C1066 0.950 . S
H1061 C1067 0.950 . S
H1062 C1068 0.949 . S
C1063 H1058 0.950 . S
C1063 C1065 1.327 . S
C1063 C1069 1.429 . S
C1064 C1056 1.574 . S
C1064 H1059 0.949 . S
C1064 C1070 1.368 . S
C1065 C1049 1.349 . S
C1065 H1057 0.950 . S
C1065 C1063 1.327 . S
C1066 C1054 1.349 . S
C1066 H1060 0.950 . S
C1066 C1067 1.327 . S
C1067 H1061 0.950 . S
C1067 C1066 1.327 . S
C1067 C1071 1.429 . S
C1068 C1051 1.574 . S
C1068 H1062 0.949 . S
C1068 C1072 1.368 . S
C1069 C1050 1.429 . S
C1069 C1063 1.429 . S
C1069 C1070 1.523 . S
C1070 C1051 1.368 . S
C1070 C1064 1.368 . S
C1070 C1069 1.523 . S
C1071 C1055 1.429 . S
C1071 C1067 1.429 . S
C1071 C1072 1.523 . S
C1072 C1056 1.368 . S
C1072 C1068 1.368 . S
C1072 C1071 1.523 . S
H1073 C1048 0.950 . S
H1074 C1050 0.950 . S
H1075 C1051 0.949 . S
H1076 C1053 0.950 . S
H1077 C1055 0.950 . S
C1078 C1079 1.349 . S
C1078 C1080 1.327 . S
C1078 H1103 0.950 . S
C1079 C1078 1.349 . S
C1079 C1095 1.349 . S
C1080 C1078 1.327 . S
C1080 C1099 1.429 . S
C1080 H1104 0.950 . S
C1081 C1098 1.574 . S
C1081 C1100 1.368 . S
C1081 H1105 0.949 . S
H1082 C1086 0.949 . S
C1083 C1084 1.349 . S
C1083 C1085 1.327 . S
C1083 H1106 0.950 . S
C1084 C1083 1.349 . S
C1084 C1096 1.349 . S
C1085 C1083 1.327 . S
C1085 C1101 1.429 . S
C1085 H1107 0.950 . S
C1086 H1082 0.949 . S
C1086 C1094 1.574 . S
C1086 C1102 1.368 . S
H1087 C1095 0.950 . S
H1088 C1093 0.950 . S
H1089 C1094 0.949 . S
H1090 C1096 0.950 . S
H1091 C1097 0.950 . S
H1092 C1098 0.949 . S
C1093 H1088 0.950 . S
C1093 C1095 1.327 . S
C1093 C1099 1.429 . S
C1094 C1086 1.574 . S
C1094 H1089 0.949 . S
C1094 C1100 1.368 . S
C1095 C1079 1.349 . S
C1095 H1087 0.950 . S
C1095 C1093 1.327 . S
C1096 C1084 1.349 . S
C1096 H1090 0.950 . S
C1096 C1097 1.327 . S
C1097 H1091 0.950 . S
C1097 C1096 1.327 . S
C1097 C1101 1.429 . S
C1098 C1081 1.574 . S
C1098 H1092 0.949 . S
C1098 C1102 1.368 . S
C1099 C1080 1.429 . S
C1099 C1093 1.429 . S
C1099 C1100 1.523 . S
C1100 C1081 1.368 . S
C1100 C1094 1.368 . S
C1100 C1099 1.523 . S
C1101 C1085 1.429 . S
C1101 C1097 1.429 . S
C1101 C1102 1.523 . S
C1102 C1086 1.368 . S
C1102 C1098 1.368 . S
C1102 C1101 1.523 . S
H1103 C1078 0.950 . S
H1104 C1080 0.950 . S
H1105 C1081 0.949 . S
H1106 C1083 0.950 . S
H1107 C1085 0.950 . S
C1108 C1109 1.349 . S
C1108 C1110 1.327 . S
C1108 H1133 0.950 . S
C1109 C1108 1.349 . S
C1109 C1125 1.354 . S
C1110 C1108 1.327 . S
C1110 C1129 1.429 . S
C1110 H1134 0.950 . S
C1111 C1128 1.574 . S
C1111 C1130 1.368 1_655 S
C1111 H1135 0.949 . S
H1112 C1116 0.949 . S
C1113 C1114 1.349 . S
C1113 C1115 1.327 . S
C1113 H1136 0.950 . S
C1114 C1113 1.349 . S
C1114 C1126 1.349 . S
C1115 C1113 1.327 . S
C1115 C1131 1.429 . S
C1115 H1137 0.950 . S
C1116 H1112 0.949 . S
C1116 C1124 1.574 . S
C1116 C1132 1.368 1_455 S
H1117 C1125 0.946 1_655 S
H1118 C1123 0.950 . S
H1119 C1124 0.949 . S
H1120 C1126 0.950 1_455 S
H1121 C1127 0.967 . S
H1122 C1128 0.949 . S
C1123 H1118 0.950 . S
C1123 C1125 1.326 1_655 S
C1123 C1129 1.429 1_655 S
C1124 C1116 1.574 . S
C1124 H1119 0.949 . S
C1124 C1130 1.368 . S
C1125 C1109 1.354 . S
C1125 H1117 0.946 1_455 S
C1125 C1123 1.326 1_455 S
C1126 C1114 1.349 . S
C1126 H1120 0.950 1_655 S
C1126 C1127 1.323 1_655 S
C1127 H1121 0.967 . S
C1127 C1126 1.323 1_455 S
C1127 C1131 1.417 1_455 S
C1128 C1111 1.574 . S
C1128 H1122 0.949 . S
C1128 C1132 1.368 . S
C1129 C1110 1.429 . S
C1129 C1123 1.429 1_455 S
C1129 C1130 1.523 . S
C1130 C1111 1.368 1_455 S
C1130 C1124 1.368 . S
C1130 C1129 1.523 . S
C1131 C1115 1.429 . S
C1131 C1127 1.417 1_655 S
C1131 C1132 1.523 . S
C1132 C1116 1.368 1_655 S
C1132 C1128 1.368 . S
C1132 C1131 1.523 . S
H1133 C1108 0.950 . S
H1134 C1110 0.950 . S
H1135 C1111 0.949 . S
H1136 C1113 0.950 . S
H1137 C1115 0.950 . S
C1138 C1139 1.349 . S
C1138 C1140 1.327 . S
C1138 H1163 0.950 . S
C1139 C1138 1.349 . S
C1139 C1155 1.349 . S
C1140 C1138 1.327 . S
C1140 C1159 1.429 . S
C1140 H1164 0.950 . S
C1141 C1158 1.574 . S
C1141 C1160 1.368 . S
C1141 H1165 0.949 . S
H1142 C1146 0.949 . S
C1143 C1144 1.349 . S
C1143 C1145 1.327 . S
C1143 H1166 0.950 . S
C1144 C1143 1.349 . S
C1144 C1156 1.349 . S
C1145 C1143 1.327 . S
C1145 C1161 1.429 . S
C1145 H1167 0.950 . S
C1146 H1142 0.949 . S
C1146 C1154 1.574 . S
C1146 C1162 1.368 . S
H1147 C1155 0.950 . S
H1148 C1153 0.950 . S
H1149 C1154 0.949 . S
H1150 C1156 0.950 . S
H1151 C1157 0.950 . S
H1152 C1158 0.949 . S
C1153 H1148 0.950 . S
C1153 C1155 1.327 . S
C1153 C1159 1.429 . S
C1154 C1146 1.574 . S
C1154 H1149 0.949 . S
C1154 C1160 1.368 . S
C1155 C1139 1.349 . S
C1155 H1147 0.950 . S
C1155 C1153 1.327 . S
C1156 C1144 1.349 . S
C1156 H1150 0.950 . S
C1156 C1157 1.327 . S
C1157 H1151 0.950 . S
C1157 C1156 1.327 . S
C1157 C1161 1.429 . S
C1158 C1141 1.574 . S
C1158 H1152 0.949 . S
C1158 C1162 1.368 . S
C1159 C1140 1.429 . S
C1159 C1153 1.429 . S
C1159 C1160 1.523 1_554 S
C1160 C1141 1.368 . S
C1160 C1154 1.368 . S
C1160 C1159 1.523 1_556 S
C1161 C1145 1.429 . S
C1161 C1157 1.429 . S
C1161 C1162 1.523 . S
C1162 C1146 1.368 . S
C1162 C1158 1.368 . S
C1162 C1161 1.523 . S
H1163 C1138 0.950 . S
H1164 C1140 0.950 . S
H1165 C1141 0.949 . S
H1166 C1143 0.950 . S
H1167 C1145 0.950 . S
C1168 C1169 1.349 . S
C1168 C1170 1.327 . S
C1168 H1193 0.950 . S
C1169 C1168 1.349 . S
C1169 C1185 1.349 . S
C1170 C1168 1.327 . S
C1170 C1189 1.429 . S
C1170 H1194 0.950 . S
C1171 C1188 1.574 . S
C1171 C1190 1.368 . S
C1171 H1195 0.949 . S
H1172 C1176 0.949 . S
C1173 C1174 1.349 . S
C1173 C1175 1.327 . S
C1173 H1196 0.950 . S
C1174 C1173 1.349 . S
C1174 C1186 1.349 . S
C1175 C1173 1.327 . S
C1175 C1191 1.429 . S
C1175 H1197 0.950 . S
C1176 H1172 0.949 . S
C1176 C1184 1.574 . S
C1176 C1192 1.368 . S
H1177 C1185 0.950 . S
H1178 C1183 0.950 . S
H1179 C1184 0.949 . S
H1180 C1186 0.950 . S
H1181 C1187 0.950 . S
H1182 C1188 0.949 . S
C1183 H1178 0.950 . S
C1183 C1185 1.327 . S
C1183 C1189 1.429 . S
C1184 C1176 1.574 . S
C1184 H1179 0.949 . S
C1184 C1190 1.368 . S
C1185 C1169 1.349 . S
C1185 H1177 0.950 . S
C1185 C1183 1.327 . S
C1186 C1174 1.349 . S
C1186 H1180 0.950 . S
C1186 C1187 1.327 . S
C1187 H1181 0.950 . S
C1187 C1186 1.327 . S
C1187 C1191 1.429 . S
C1188 C1171 1.574 . S
C1188 H1182 0.949 . S
C1188 C1192 1.368 . S
C1189 C1170 1.429 . S
C1189 C1183 1.429 . S
C1189 C1190 1.523 . S
C1190 C1171 1.368 . S
C1190 C1184 1.368 . S
C1190 C1189 1.523 . S
C1191 C1175 1.429 . S
C1191 C1187 1.429 . S
C1191 C1192 1.523 . S
C1192 C1176 1.368 . S
C1192 C1188 1.368 . S
C1192 C1191 1.523 . S
H1193 C1168 0.950 . S
H1194 C1170 0.950 . S
H1195 C1171 0.949 . S
H1196 C1173 0.950 . S
H1197 C1175 0.950 . S
C1198 C1199 1.349 . S
C1198 C1200 1.327 . S
C1198 H1223 0.950 . S
C1199 C1198 1.349 . S
C1199 C1215 1.349 . S
C1200 C1198 1.327 . S
C1200 C1219 1.429 . S
C1200 H1224 0.950 . S
C1201 C1218 1.574 . S
C1201 C1220 1.368 . S
C1201 H1225 0.949 . S
H1202 C1206 0.949 . S
C1203 C1204 1.349 . S
C1203 C1205 1.327 . S
C1203 H1226 0.950 . S
C1204 C1203 1.349 . S
C1204 C1216 1.349 . S
C1205 C1203 1.327 . S
C1205 C1221 1.429 . S
C1205 H1227 0.950 . S
C1206 H1202 0.949 . S
C1206 C1214 1.574 . S
C1206 C1222 1.368 . S
H1207 C1215 0.950 . S
H1208 C1213 0.950 . S
H1209 C1214 0.949 . S
H1210 C1216 0.950 . S
H1211 C1217 0.950 . S
H1212 C1218 0.949 . S
C1213 H1208 0.950 . S
C1213 C1215 1.327 . S
C1213 C1219 1.429 . S
C1214 C1206 1.574 . S
C1214 H1209 0.949 . S
C1214 C1220 1.368 . S
C1215 C1199 1.349 . S
C1215 H1207 0.950 . S
C1215 C1213 1.327 . S
C1216 C1204 1.349 . S
C1216 H1210 0.950 . S
C1216 C1217 1.327 . S
C1217 H1211 0.950 . S
C1217 C1216 1.327 . S
C1217 C1221 1.429 . S
C1218 C1201 1.574 . S
C1218 H1212 0.949 . S
C1218 C1222 1.368 . S
C1219 C1200 1.429 . S
C1219 C1213 1.429 . S
C1219 C1220 1.523 . S
C1220 C1201 1.368 . S
C1220 C1214 1.368 . S
C1220 C1219 1.523 . S
C1221 C1205 1.429 . S
C1221 C1217 1.429 . S
C1221 C1222 1.523 . S
C1222 C1206 1.368 . S
C1222 C1218 1.368 . S
C1222 C1221 1.523 . S
H1223 C1198 0.950 . S
H1224 C1200 0.950 . S
H1225 C1201 0.949 . S
H1226 C1203 0.950 . S
H1227 C1205 0.950 . S
C1228 C1229 1.349 . S
C1228 C1230 1.327 . S
C1228 H1253 0.950 . S
C1229 C1228 1.349 . S
C1229 C1245 1.357 . S
C1230 C1228 1.327 . S
C1230 C1249 1.429 . S
C1230 H1254 0.950 . S
C1231 C1248 1.574 . S
C1231 C1250 1.368 1_655 S
C1231 H1255 0.949 . S
H1232 C1236 0.949 . S
C1233 C1234 1.349 . S
C1233 C1235 1.327 . S
C1233 H1256 0.950 . S
C1234 C1233 1.349 . S
C1234 C1246 1.349 1_655 S
C1235 C1233 1.327 . S
C1235 C1251 1.429 . S
C1235 H1257 0.950 . S
C1236 H1232 0.949 . S
C1236 C1244 1.574 . S
C1236 C1252 1.368 1_455 S
H1237 C1245 0.944 1_655 S
H1238 C1243 0.950 . S
H1239 C1244 0.949 . S
H1240 C1246 0.950 . S
H1241 C1247 0.950 . S
H1242 C1248 0.949 . S
C1243 H1238 0.950 . S
C1243 C1245 1.325 1_655 S
C1243 C1249 1.429 1_655 S
C1244 C1236 1.574 . S
C1244 H1239 0.949 . S
C1244 C1250 1.368 . S
C1245 C1229 1.357 . S
C1245 H1237 0.944 1_455 S
C1245 C1243 1.325 1_455 S
C1246 C1234 1.349 1_455 S
C1246 H1240 0.950 . S
C1246 C1247 1.327 . S
C1247 H1241 0.950 . S
C1247 C1246 1.327 . S
C1247 C1251 1.429 1_455 S
C1248 C1231 1.574 . S
C1248 H1242 0.949 . S
C1248 C1252 1.368 . S
C1249 C1230 1.429 . S
C1249 C1243 1.429 1_455 S
C1249 C1250 1.523 . S
C1250 C1231 1.368 1_455 S
C1250 C1244 1.368 . S
C1250 C1249 1.523 . S
C1251 C1235 1.429 . S
C1251 C1247 1.429 1_655 S
C1251 C1252 1.523 . S
C1252 C1236 1.368 1_655 S
C1252 C1248 1.368 . S
C1252 C1251 1.523 . S
H1253 C1228 0.950 . S
H1254 C1230 0.950 . S
H1255 C1231 0.949 . S
H1256 C1233 0.950 . S
H1257 C1235 0.950 . S
C1258 C1259 1.349 . S
C1258 C1260 1.327 . S
C1258 H1283 0.950 . S
C1259 C1258 1.349 . S
C1259 C1275 1.349 . S
C1260 C1258 1.327 . S
C1260 C1279 1.429 . S
C1260 H1284 0.950 . S
C1261 C1278 1.574 . S
C1261 C1280 1.368 . S
C1261 H1285 0.949 . S
H1262 C1266 0.949 . S
C1263 C1264 1.349 . S
C1263 C1265 1.327 . S
C1263 H1286 0.950 . S
C1264 C1263 1.349 . S
C1264 C1276 1.349 . S
C1265 C1263 1.327 . S
C1265 C1281 1.429 . S
C1265 H1287 0.950 . S
C1266 H1262 0.949 . S
C1266 C1274 1.574 . S
C1266 C1282 1.368 . S
H1267 C1275 0.950 . S
H1268 C1273 0.950 . S
H1269 C1274 0.949 . S
H1270 C1276 0.950 . S
H1271 C1277 0.950 . S
H1272 C1278 0.949 . S
C1273 H1268 0.950 . S
C1273 C1275 1.327 . S
C1273 C1279 1.429 . S
C1274 C1266 1.574 . S
C1274 H1269 0.949 . S
C1274 C1280 1.368 . S
C1275 C1259 1.349 . S
C1275 H1267 0.950 . S
C1275 C1273 1.327 . S
C1276 C1264 1.349 . S
C1276 H1270 0.950 . S
C1276 C1277 1.327 . S
C1277 H1271 0.950 . S
C1277 C1276 1.327 . S
C1277 C1281 1.429 . S
C1278 C1261 1.574 . S
C1278 H1272 0.949 . S
C1278 C1282 1.368 . S
C1279 C1260 1.429 . S
C1279 C1273 1.429 . S
C1279 C1280 1.523 . S
C1280 C1261 1.368 . S
C1280 C1274 1.368 . S
C1280 C1279 1.523 . S
C1281 C1265 1.429 . S
C1281 C1277 1.429 . S
C1281 C1282 1.523 1_554 S
C1282 C1266 1.368 . S
C1282 C1278 1.368 . S
C1282 C1281 1.523 1_556 S
H1283 C1258 0.950 . S
H1284 C1260 0.950 . S
H1285 C1261 0.949 . S
H1286 C1263 0.950 . S
H1287 C1265 0.950 . S
C1288 C1289 1.349 . S
C1288 C1290 1.327 . S
C1288 H1313 0.950 . S
C1289 C1288 1.349 . S
C1289 C1305 1.349 . S
C1290 C1288 1.327 . S
C1290 C1309 1.429 . S
C1290 H1314 0.950 . S
C1291 C1308 1.574 . S
C1291 C1310 1.368 . S
C1291 H1315 0.949 . S
H1292 C1296 0.949 . S
C1293 C1294 1.349 . S
C1293 C1295 1.327 . S
C1293 H1316 0.950 . S
C1294 C1293 1.349 . S
C1294 C1306 1.349 . S
C1295 C1293 1.327 . S
C1295 C1311 1.429 . S
C1295 H1317 0.950 . S
C1296 H1292 0.949 . S
C1296 C1304 1.574 . S
C1296 C1312 1.368 . S
H1297 C1305 0.950 . S
H1298 C1303 0.950 . S
H1299 C1304 0.949 . S
H1300 C1306 0.950 . S
H1301 C1307 0.950 . S
H1302 C1308 0.949 . S
C1303 H1298 0.950 . S
C1303 C1305 1.327 . S
C1303 C1309 1.429 . S
C1304 C1296 1.574 . S
C1304 H1299 0.949 . S
C1304 C1310 1.368 . S
C1305 C1289 1.349 . S
C1305 H1297 0.950 . S
C1305 C1303 1.327 . S
C1306 C1294 1.349 . S
C1306 H1300 0.950 . S
C1306 C1307 1.327 . S
C1307 H1301 0.950 . S
C1307 C1306 1.327 . S
C1307 C1311 1.429 . S
C1308 C1291 1.574 . S
C1308 H1302 0.949 . S
C1308 C1312 1.368 . S
C1309 C1290 1.429 . S
C1309 C1303 1.429 . S
C1309 C1310 1.523 . S
C1310 C1291 1.368 . S
C1310 C1304 1.368 . S
C1310 C1309 1.523 . S
C1311 C1295 1.429 . S
C1311 C1307 1.429 . S
C1311 C1312 1.523 . S
C1312 C1296 1.368 . S
C1312 C1308 1.368 . S
C1312 C1311 1.523 . S
H1313 C1288 0.950 . S
H1314 C1290 0.950 . S
H1315 C1291 0.949 . S
H1316 C1293 0.950 . S
H1317 C1295 0.950 . S
C1318 C1319 1.349 . S
C1318 C1320 1.327 . S
C1318 H1343 0.950 . S
C1319 C1318 1.349 . S
C1319 C1335 1.349 . S
C1320 C1318 1.327 . S
C1320 C1339 1.429 . S
C1320 H1344 0.950 . S
C1321 C1338 1.574 . S
C1321 C1340 1.368 . S
C1321 H1345 0.949 . S
H1322 C1326 0.949 . S
C1323 C1324 1.349 . S
C1323 C1325 1.327 . S
C1323 H1346 0.950 . S
C1324 C1323 1.349 . S
C1324 C1336 1.349 . S
C1325 C1323 1.327 . S
C1325 C1341 1.429 . S
C1325 H1347 0.950 . S
C1326 H1322 0.949 . S
C1326 C1334 1.574 . S
C1326 C1342 1.368 . S
H1327 C1335 0.950 . S
H1328 C1333 0.950 . S
H1329 C1334 0.949 . S
H1330 C1336 0.950 . S
H1331 C1337 0.950 . S
H1332 C1338 0.949 . S
C1333 H1328 0.950 . S
C1333 C1335 1.327 . S
C1333 C1339 1.429 . S
C1334 C1326 1.574 . S
C1334 H1329 0.949 . S
C1334 C1340 1.368 . S
C1335 C1319 1.349 . S
C1335 H1327 0.950 . S
C1335 C1333 1.327 . S
C1336 C1324 1.349 . S
C1336 H1330 0.950 . S
C1336 C1337 1.327 . S
C1337 H1331 0.950 . S
C1337 C1336 1.327 . S
C1337 C1341 1.429 . S
C1338 C1321 1.574 . S
C1338 H1332 0.949 . S
C1338 C1342 1.368 . S
C1339 C1320 1.429 . S
C1339 C1333 1.429 . S
C1339 C1340 1.523 . S
C1340 C1321 1.368 . S
C1340 C1334 1.368 . S
C1340 C1339 1.523 . S
C1341 C1325 1.429 . S
C1341 C1337 1.429 . S
C1341 C1342 1.523 . S
C1342 C1326 1.368 . S
C1342 C1338 1.368 . S
C1342 C1341 1.523 . S
H1343 C1318 0.950 . S
H1344 C1320 0.950 . S
H1345 C1321 0.949 . S
H1346 C1323 0.950 . S
H1347 C1325 0.950 . S
C1348 C1349 1.349 . S
C1348 C1350 1.327 . S
C1348 H1373 0.950 . S
C1349 C1348 1.349 . S
C1349 C1365 1.361 . S
C1350 C1348 1.327 . S
C1350 C1369 1.429 . S
C1350 H1374 0.950 . S
C1351 C1368 1.574 . S
C1351 C1370 1.368 1_455 S
C1351 H1375 0.949 . S
H1352 C1356 0.949 . S
C1353 C1354 1.349 . S
C1353 C1355 1.327 . S
C1353 H1376 0.950 . S
C1354 C1353 1.349 . S
C1354 C1366 1.349 . S
C1355 C1353 1.327 . S
C1355 C1371 1.429 . S
C1355 H1377 0.950 . S
C1356 H1352 0.949 . S
C1356 C1364 1.574 . S
C1356 C1372 1.368 1_655 S
H1357 C1365 0.942 1_455 S
H1358 C1363 0.950 . S
H1359 C1364 0.949 . S
H1360 C1366 0.950 1_655 S
H1361 C1367 0.959 . S
H1362 C1368 0.949 . S
C1363 H1358 0.950 . S
C1363 C1365 1.324 1_455 S
C1363 C1369 1.429 1_455 S
C1364 C1356 1.574 . S
C1364 H1359 0.949 . S
C1364 C1370 1.368 . S
C1365 C1349 1.361 . S
C1365 H1357 0.942 1_655 S
C1365 C1363 1.324 1_655 S
C1366 C1354 1.349 . S
C1366 H1360 0.950 1_455 S
C1366 C1367 1.325 1_455 S
C1367 H1361 0.959 . S
C1367 C1366 1.325 1_655 S
C1367 C1371 1.423 1_655 S
C1368 C1351 1.574 . S
C1368 H1362 0.949 . S
C1368 C1372 1.368 . S
C1369 C1350 1.429 . S
C1369 C1363 1.429 1_655 S
C1369 C1370 1.523 . S
C1370 C1351 1.368 1_655 S
C1370 C1364 1.368 . S
C1370 C1369 1.523 . S
C1371 C1355 1.429 . S
C1371 C1367 1.423 1_455 S
C1371 C1372 1.523 . S
C1372 C1356 1.368 1_455 S
C1372 C1368 1.368 . S
C1372 C1371 1.523 . S
H1373 C1348 0.950 . S
H1374 C1350 0.950 . S
H1375 C1351 0.949 . S
H1376 C1353 0.950 . S
H1377 C1355 0.950 . S
C1378 C1379 1.349 . S
C1378 C1380 1.327 . S
C1378 H1403 0.950 . S
C1379 C1378 1.349 . S
C1379 C1395 1.349 . S
C1380 C1378 1.327 . S
C1380 C1399 1.429 . S
C1380 H1404 0.950 . S
C1381 C1398 1.574 . S
C1381 C1400 1.368 . S
C1381 H1405 0.949 . S
H1382 C1386 0.949 . S
C1383 C1384 1.349 . S
C1383 C1385 1.327 . S
C1383 H1406 0.950 . S
C1384 C1383 1.349 . S
C1384 C1396 1.349 . S
C1385 C1383 1.327 . S
C1385 C1401 1.429 . S
C1385 H1407 0.950 . S
C1386 H1382 0.949 . S
C1386 C1394 1.574 . S
C1386 C1402 1.368 . S
H1387 C1395 0.950 . S
H1388 C1393 0.950 . S
H1389 C1394 0.949 . S
H1390 C1396 0.950 . S
H1391 C1397 0.950 . S
H1392 C1398 0.949 . S
C1393 H1388 0.950 . S
C1393 C1395 1.327 . S
C1393 C1399 1.429 . S
C1394 C1386 1.574 . S
C1394 H1389 0.949 . S
C1394 C1400 1.368 . S
C1395 C1379 1.349 . S
C1395 H1387 0.950 . S
C1395 C1393 1.327 . S
C1396 C1384 1.349 . S
C1396 H1390 0.950 . S
C1396 C1397 1.327 . S
C1397 H1391 0.950 . S
C1397 C1396 1.327 . S
C1397 C1401 1.429 . S
C1398 C1381 1.574 . S
C1398 H1392 0.949 . S
C1398 C1402 1.368 . S
C1399 C1380 1.429 . S
C1399 C1393 1.429 . S
C1399 C1400 1.523 . S
C1400 C1381 1.368 . S
C1400 C1394 1.368 . S
C1400 C1399 1.523 . S
C1401 C1385 1.429 . S
C1401 C1397 1.429 . S
C1401 C1402 1.523 1_556 S
C1402 C1386 1.368 . S
C1402 C1398 1.368 . S
C1402 C1401 1.523 1_554 S
H1403 C1378 0.950 . S
H1404 C1380 0.950 . S
H1405 C1381 0.949 . S
H1406 C1383 0.950 . S
H1407 C1385 0.950 . S
C1408 C1409 1.347 1_455 S
C1408 C1410 1.328 1_554 S
C1408 H1433 0.951 1_554 S
C1409 C1408 1.347 1_655 S
C1409 C1425 1.349 . S
C1410 C1408 1.328 1_556 S
C1410 C1429 1.429 1_456 S
C1410 H1434 0.950 . S
C1411 C1428 1.574 1_545 S
C1411 C1430 1.384 . S
C1411 H1435 0.949 . S
H1412 C1416 0.949 . S
C1413 C1414 1.347 1_655 S
C1413 C1415 1.328 1_556 S
C1413 H1436 0.951 1_556 S
C1414 C1413 1.347 1_455 S
C1414 C1426 1.349 . S
C1415 C1413 1.328 1_554 S
C1415 C1431 1.429 1_654 S
C1415 H1437 0.950 . S
C1416 H1412 0.949 . S
C1416 C1424 1.574 1_565 S
C1416 C1432 1.384 . S
H1417 C1425 0.950 . S
H1418 C1423 0.950 . S
H1419 C1424 0.949 . S
H1420 C1426 0.950 . S
H1421 C1427 0.950 . S
H1422 C1428 0.949 . S
C1423 H1418 0.950 . S
C1423 C1425 1.327 . S
C1423 C1429 1.429 . S
C1424 C1416 1.574 1_545 S
C1424 H1419 0.949 . S
C1424 C1430 1.353 1_456 S
C1425 C1409 1.349 . S
C1425 H1417 0.950 . S
C1425 C1423 1.327 . S
C1426 C1414 1.349 . S
C1426 H1420 0.950 . S
C1426 C1427 1.327 . S
C1427 H1421 0.950 . S
C1427 C1426 1.327 . S
C1427 C1431 1.429 . S
C1428 C1411 1.574 1_565 S
C1428 H1422 0.949 . S
C1428 C1432 1.353 1_654 S
C1429 C1410 1.429 1_654 S
C1429 C1423 1.429 . S
C1429 C1430 1.528 . S
C1430 C1411 1.384 . S
C1430 C1424 1.353 1_654 S
C1430 C1429 1.528 . S
C1431 C1415 1.429 1_456 S
C1431 C1427 1.429 . S
C1431 C1432 1.528 . S
C1432 C1416 1.384 . S
C1432 C1428 1.353 1_456 S
C1432 C1431 1.528 . S
H1433 C1408 0.951 1_556 S
H1434 C1410 0.950 . S
H1435 C1411 0.949 . S
H1436 C1413 0.951 1_554 S
H1437 C1415 0.950 . S
C1438 C1439 1.349 . S
C1438 C1440 1.327 . S
C1438 H1463 0.950 . S
C1439 C1438 1.349 . S
C1439 C1455 1.349 . S
C1440 C1438 1.327 . S
C1440 C1459 1.429 . S
C1440 H1464 0.950 . S
C1441 C1458 1.574 . S
C1441 C1460 1.368 . S
C1441 H1465 0.949 . S
H1442 C1446 0.949 . S
C1443 C1444 1.349 . S
C1443 C1445 1.327 . S
C1443 H1466 0.950 . S
C1444 C1443 1.349 . S
C1444 C1456 1.349 . S
C1445 C1443 1.327 . S
C1445 C1461 1.429 . S
C1445 H1467 0.950 . S
C1446 H1442 0.949 . S
C1446 C1454 1.574 . S
C1446 C1462 1.368 . S
H1447 C1455 0.950 . S
H1448 C1453 0.950 . S
H1449 C1454 0.949 . S
H1450 C1456 0.950 . S
H1451 C1457 0.950 . S
H1452 C1458 0.949 . S
C1453 H1448 0.950 . S
C1453 C1455 1.327 . S
C1453 C1459 1.429 . S
C1454 C1446 1.574 . S
C1454 H1449 0.949 . S
C1454 C1460 1.368 . S
C1455 C1439 1.349 . S
C1455 H1447 0.950 . S
C1455 C1453 1.327 . S
C1456 C1444 1.349 . S
C1456 H1450 0.950 . S
C1456 C1457 1.327 . S
C1457 H1451 0.950 . S
C1457 C1456 1.327 . S
C1457 C1461 1.429 . S
C1458 C1441 1.574 . S
C1458 H1452 0.949 . S
C1458 C1462 1.368 . S
C1459 C1440 1.429 . S
C1459 C1453 1.429 . S
C1459 C1460 1.523 . S
C1460 C1441 1.368 . S
C1460 C1454 1.368 . S
C1460 C1459 1.523 . S
C1461 C1445 1.429 . S
C1461 C1457 1.429 . S
C1461 C1462 1.523 . S
C1462 C1446 1.368 . S
C1462 C1458 1.368 . S
C1462 C1461 1.523 . S
H1463 C1438 0.950 . S
H1464 C1440 0.950 . S
H1465 C1441 0.949 . S
H1466 C1443 0.950 . S
H1467 C1445 0.950 . S
C1468 C1469 1.349 . S
C1468 C1470 1.327 . S
C1468 H1493 0.950 . S
C1469 C1468 1.349 . S
C1469 C1485 1.349 . S
C1470 C1468 1.327 . S
C1470 C1489 1.429 . S
C1470 H1494 0.950 . S
C1471 C1488 1.574 1_545 S
C1471 C1490 1.368 . S
C1471 H1495 0.949 . S
H1472 C1476 0.949 . S
C1473 C1474 1.349 . S
C1473 C1475 1.327 . S
C1473 H1496 0.950 . S
C1474 C1473 1.349 . S
C1474 C1486 1.349 . S
C1475 C1473 1.327 . S
C1475 C1491 1.429 . S
C1475 H1497 0.950 . S
C1476 H1472 0.949 . S
C1476 C1484 1.574 1_565 S
C1476 C1492 1.368 . S
H1477 C1485 0.950 . S
H1478 C1483 0.950 . S
H1479 C1484 0.949 . S
H1480 C1486 0.950 . S
H1481 C1487 0.950 . S
H1482 C1488 0.949 . S
C1483 H1478 0.950 . S
C1483 C1485 1.327 . S
C1483 C1489 1.429 . S
C1484 C1476 1.574 1_545 S
C1484 H1479 0.949 . S
C1484 C1490 1.368 . S
C1485 C1469 1.349 . S
C1485 H1477 0.950 . S
C1485 C1483 1.327 . S
C1486 C1474 1.349 . S
C1486 H1480 0.950 . S
C1486 C1487 1.327 . S
C1487 H1481 0.950 . S
C1487 C1486 1.327 . S
C1487 C1491 1.429 . S
C1488 C1471 1.574 1_565 S
C1488 H1482 0.949 . S
C1488 C1492 1.368 . S
C1489 C1470 1.429 . S
C1489 C1483 1.429 . S
C1489 C1490 1.523 . S
C1490 C1471 1.368 . S
C1490 C1484 1.368 . S
C1490 C1489 1.523 . S
C1491 C1475 1.429 . S
C1491 C1487 1.429 . S
C1491 C1492 1.523 . S
C1492 C1476 1.368 . S
C1492 C1488 1.368 . S
C1492 C1491 1.523 . S
H1493 C1468 0.950 . S
H1494 C1470 0.950 . S
H1495 C1471 0.949 . S
H1496 C1473 0.950 . S
H1497 C1475 0.950 . S
C1498 C1499 1.349 . S
C1498 C1500 1.327 . S
C1498 H1523 0.950 . S
C1499 C1498 1.349 . S
C1499 C1515 1.349 . S
C1500 C1498 1.327 . S
C1500 C1519 1.429 . S
C1500 H1524 0.950 . S
C1501 C1518 1.574 . S
C1501 C1520 1.368 . S
C1501 H1525 0.949 . S
H1502 C1506 0.949 . S
C1503 C1504 1.349 . S
C1503 C1505 1.327 . S
C1503 H1526 0.950 . S
C1504 C1503 1.349 . S
C1504 C1516 1.349 . S
C1505 C1503 1.327 . S
C1505 C1521 1.429 . S
C1505 H1527 0.950 . S
C1506 H1502 0.949 . S
C1506 C1514 1.574 . S
C1506 C1522 1.368 . S
H1507 C1515 0.950 . S
H1508 C1513 0.950 . S
H1509 C1514 0.949 . S
H1510 C1516 0.950 . S
H1511 C1517 0.950 . S
H1512 C1518 0.949 . S
C1513 H1508 0.950 . S
C1513 C1515 1.327 . S
C1513 C1519 1.429 . S
C1514 C1506 1.574 . S
C1514 H1509 0.949 . S
C1514 C1520 1.368 . S
C1515 C1499 1.349 . S
C1515 H1507 0.950 . S
C1515 C1513 1.327 . S
C1516 C1504 1.349 . S
C1516 H1510 0.950 . S
C1516 C1517 1.327 . S
C1517 H1511 0.950 . S
C1517 C1516 1.327 . S
C1517 C1521 1.429 . S
C1518 C1501 1.574 . S
C1518 H1512 0.949 . S
C1518 C1522 1.368 . S
C1519 C1500 1.429 . S
C1519 C1513 1.429 . S
C1519 C1520 1.523 . S
C1520 C1501 1.368 . S
C1520 C1514 1.368 . S
C1520 C1519 1.523 . S
C1521 C1505 1.429 . S
C1521 C1517 1.429 . S
C1521 C1522 1.523 . S
C1522 C1506 1.368 . S
C1522 C1518 1.368 . S
C1522 C1521 1.523 . S
H1523 C1498 0.950 . S
H1524 C1500 0.950 . S
H1525 C1501 0.949 . S
H1526 C1503 0.950 . S
H1527 C1505 0.950 . S
C1528 C1529 1.349 . S
C1528 C1530 1.327 . S
C1528 H1553 0.950 . S
C1529 C1528 1.349 . S
C1529 C1545 1.362 . S
C1530 C1528 1.327 . S
C1530 C1549 1.429 . S
C1530 H1554 0.950 . S
C1531 C1548 1.574 1_565 S
C1531 C1550 1.358 1_455 S
C1531 H1555 0.949 . S
H1532 C1536 0.949 . S
C1533 C1534 1.349 . S
C1533 C1535 1.327 . S
C1533 H1556 0.950 . S
C1534 C1533 1.349 . S
C1534 C1546 1.362 . S
C1535 C1533 1.327 . S
C1535 C1551 1.429 . S
C1535 H1557 0.950 . S
C1536 H1532 0.949 . S
C1536 C1544 1.574 1_545 S
C1536 C1552 1.358 1_655 S
H1537 C1545 0.943 1_455 S
H1538 C1543 0.949 . S
H1539 C1544 0.949 . S
H1540 C1546 0.943 1_655 S
H1541 C1547 0.949 . S
H1542 C1548 0.949 . S
C1543 H1538 0.949 . S
C1543 C1545 1.325 1_455 S
C1543 C1549 1.429 1_455 S
C1544 C1536 1.574 1_565 S
C1544 H1539 0.949 . S
C1544 C1550 1.379 . S
C1545 C1529 1.362 . S
C1545 H1537 0.943 1_655 S
C1545 C1543 1.325 1_655 S
C1546 C1534 1.362 . S
C1546 H1540 0.943 1_455 S
C1546 C1547 1.325 1_455 S
C1547 H1541 0.949 . S
C1547 C1546 1.325 1_655 S
C1547 C1551 1.429 1_655 S
C1548 C1531 1.574 1_545 S
C1548 H1542 0.949 . S
C1548 C1552 1.379 . S
C1549 C1530 1.429 . S
C1549 C1543 1.429 1_655 S
C1549 C1550 1.528 . S
C1550 C1531 1.358 1_655 S
C1550 C1544 1.379 . S
C1550 C1549 1.528 . S
C1551 C1535 1.429 . S
C1551 C1547 1.429 1_455 S
C1551 C1552 1.528 . S
C1552 C1536 1.358 1_455 S
C1552 C1548 1.379 . S
C1552 C1551 1.528 . S
H1553 C1528 0.950 . S
H1554 C1530 0.950 . S
H1555 C1531 0.949 . S
H1556 C1533 0.950 . S
H1557 C1535 0.950 . S
C1558 C1559 1.349 . S
C1558 C1560 1.327 . S
C1558 H1583 0.950 . S
C1559 C1558 1.349 . S
C1559 C1575 1.349 . S
C1560 C1558 1.327 . S
C1560 C1579 1.429 . S
C1560 H1584 0.950 . S
C1561 C1578 1.574 . S
C1561 C1580 1.368 . S
C1561 H1585 0.949 . S
H1562 C1566 0.949 . S
C1563 C1564 1.349 . S
C1563 C1565 1.327 . S
C1563 H1586 0.950 . S
C1564 C1563 1.349 . S
C1564 C1576 1.349 . S
C1565 C1563 1.327 . S
C1565 C1581 1.429 . S
C1565 H1587 0.950 . S
C1566 H1562 0.949 . S
C1566 C1574 1.574 . S
C1566 C1582 1.368 . S
H1567 C1575 0.950 . S
H1568 C1573 0.950 . S
H1569 C1574 0.949 . S
H1570 C1576 0.950 . S
H1571 C1577 0.950 . S
H1572 C1578 0.949 . S
C1573 H1568 0.950 . S
C1573 C1575 1.327 . S
C1573 C1579 1.429 . S
C1574 C1566 1.574 . S
C1574 H1569 0.949 . S
C1574 C1580 1.368 . S
C1575 C1559 1.349 . S
C1575 H1567 0.950 . S
C1575 C1573 1.327 . S
C1576 C1564 1.349 . S
C1576 H1570 0.950 . S
C1576 C1577 1.327 . S
C1577 H1571 0.950 . S
C1577 C1576 1.327 . S
C1577 C1581 1.429 . S
C1578 C1561 1.574 . S
C1578 H1572 0.949 . S
C1578 C1582 1.368 . S
C1579 C1560 1.429 . S
C1579 C1573 1.429 . S
C1579 C1580 1.523 . S
C1580 C1561 1.368 . S
C1580 C1574 1.368 . S
C1580 C1579 1.523 . S
C1581 C1565 1.429 . S
C1581 C1577 1.429 . S
C1581 C1582 1.523 . S
C1582 C1566 1.368 . S
C1582 C1578 1.368 . S
C1582 C1581 1.523 . S
H1583 C1558 0.950 . S
H1584 C1560 0.950 . S
H1585 C1561 0.949 . S
H1586 C1563 0.950 . S
H1587 C1565 0.950 . S
C1588 C1589 1.349 . S
C1588 C1590 1.327 . S
C1588 H1613 0.950 . S
C1589 C1588 1.349 . S
C1589 C1605 1.349 . S
C1590 C1588 1.327 . S
C1590 C1609 1.429 . S
C1590 H1614 0.950 . S
C1591 C1608 1.574 1_565 S
C1591 C1610 1.368 1_556 S
C1591 H1615 0.949 . S
H1592 C1596 0.949 . S
C1593 C1594 1.349 . S
C1593 C1595 1.327 . S
C1593 H1616 0.950 . S
C1594 C1593 1.349 . S
C1594 C1606 1.349 . S
C1595 C1593 1.327 . S
C1595 C1611 1.429 . S
C1595 H1617 0.950 . S
C1596 H1592 0.949 . S
C1596 C1604 1.574 1_545 S
C1596 C1612 1.368 1_554 S
H1597 C1605 0.950 1_556 S
H1598 C1603 0.950 . S
H1599 C1604 0.949 . S
H1600 C1606 0.950 1_554 S
H1601 C1607 0.950 . S
H1602 C1608 0.949 . S
C1603 H1598 0.950 . S
C1603 C1605 1.327 1_556 S
C1603 C1609 1.429 1_556 S
C1604 C1596 1.574 1_565 S
C1604 H1599 0.949 . S
C1604 C1610 1.368 . S
C1605 C1589 1.349 . S
C1605 H1597 0.950 1_554 S
C1605 C1603 1.327 1_554 S
C1606 C1594 1.349 . S
C1606 H1600 0.950 1_556 S
C1606 C1607 1.327 1_556 S
C1607 H1601 0.950 . S
C1607 C1606 1.327 1_554 S
C1607 C1611 1.429 1_554 S
C1608 C1591 1.574 1_545 S
C1608 H1602 0.949 . S
C1608 C1612 1.368 . S
C1609 C1590 1.429 . S
C1609 C1603 1.429 1_554 S
C1609 C1610 1.523 . S
C1610 C1591 1.368 1_554 S
C1610 C1604 1.368 . S
C1610 C1609 1.523 . S
C1611 C1595 1.429 . S
C1611 C1607 1.429 1_556 S
C1611 C1612 1.523 . S
C1612 C1596 1.368 1_556 S
C1612 C1608 1.368 . S
C1612 C1611 1.523 . S
H1613 C1588 0.950 . S
H1614 C1590 0.950 . S
H1615 C1591 0.949 . S
H1616 C1593 0.950 . S
H1617 C1595 0.950 . S
C1618 C1619 1.349 . S
C1618 C1620 1.327 . S
C1618 H1643 0.950 . S
C1619 C1618 1.349 . S
C1619 C1635 1.349 . S
C1620 C1618 1.327 . S
C1620 C1639 1.429 . S
C1620 H1644 0.950 . S
C1621 C1638 1.574 . S
C1621 C1640 1.368 . S
C1621 H1645 0.949 . S
H1622 C1626 0.949 . S
C1623 C1624 1.349 . S
C1623 C1625 1.327 . S
C1623 H1646 0.950 . S
C1624 C1623 1.349 . S
C1624 C1636 1.349 . S
C1625 C1623 1.327 . S
C1625 C1641 1.429 . S
C1625 H1647 0.950 . S
C1626 H1622 0.949 . S
C1626 C1634 1.574 . S
C1626 C1642 1.368 . S
H1627 C1635 0.950 . S
H1628 C1633 0.950 . S
H1629 C1634 0.949 . S
H1630 C1636 0.950 . S
H1631 C1637 0.950 . S
H1632 C1638 0.949 . S
C1633 H1628 0.950 . S
C1633 C1635 1.327 . S
C1633 C1639 1.429 . S
C1634 C1626 1.574 . S
C1634 H1629 0.949 . S
C1634 C1640 1.368 . S
C1635 C1619 1.349 . S
C1635 H1627 0.950 . S
C1635 C1633 1.327 . S
C1636 C1624 1.349 . S
C1636 H1630 0.950 . S
C1636 C1637 1.327 . S
C1637 H1631 0.950 . S
C1637 C1636 1.327 . S
C1637 C1641 1.429 . S
C1638 C1621 1.574 . S
C1638 H1632 0.949 . S
C1638 C1642 1.368 . S
C1639 C1620 1.429 . S
C1639 C1633 1.429 . S
C1639 C1640 1.523 . S
C1640 C1621 1.368 . S
C1640 C1634 1.368 . S
C1640 C1639 1.523 . S
C1641 C1625 1.429 . S
C1641 C1637 1.429 . S
C1641 C1642 1.523 . S
C1642 C1626 1.368 . S
C1642 C1638 1.368 . S
C1642 C1641 1.523 . S
H1643 C1618 0.950 . S
H1644 C1620 0.950 . S
H1645 C1621 0.949 . S
H1646 C1623 0.950 . S
H1647 C1625 0.950 . S
C1648 C1649 1.349 . S
C1648 C1650 1.327 . S
C1648 H1673 0.950 . S
C1649 C1648 1.349 . S
C1649 C1665 1.349 . S
C1650 C1648 1.327 . S
C1650 C1669 1.429 . S
C1650 H1674 0.950 . S
C1651 C1668 1.574 . S
C1651 C1670 1.368 . S
C1651 H1675 0.949 . S
H1652 C1656 0.949 . S
C1653 C1654 1.349 . S
C1653 C1655 1.327 . S
C1653 H1676 0.950 . S
C1654 C1653 1.349 . S
C1654 C1666 1.349 . S
C1655 C1653 1.327 . S
C1655 C1671 1.429 . S
C1655 H1677 0.950 . S
C1656 H1652 0.949 . S
C1656 C1664 1.574 . S
C1656 C1672 1.368 . S
H1657 C1665 0.950 . S
H1658 C1663 0.950 . S
H1659 C1664 0.949 . S
H1660 C1666 0.950 . S
H1661 C1667 0.950 . S
H1662 C1668 0.949 . S
C1663 H1658 0.950 . S
C1663 C1665 1.327 . S
C1663 C1669 1.429 . S
C1664 C1656 1.574 . S
C1664 H1659 0.949 . S
C1664 C1670 1.368 . S
C1665 C1649 1.349 . S
C1665 H1657 0.950 . S
C1665 C1663 1.327 . S
C1666 C1654 1.349 . S
C1666 H1660 0.950 . S
C1666 C1667 1.327 . S
C1667 H1661 0.950 . S
C1667 C1666 1.327 . S
C1667 C1671 1.429 . S
C1668 C1651 1.574 . S
C1668 H1662 0.949 . S
C1668 C1672 1.368 . S
C1669 C1650 1.429 . S
C1669 C1663 1.429 . S
C1669 C1670 1.523 . S
C1670 C1651 1.368 . S
C1670 C1664 1.368 . S
C1670 C1669 1.523 . S
C1671 C1655 1.429 . S
C1671 C1667 1.429 . S
C1671 C1672 1.523 . S
C1672 C1656 1.368 . S
C1672 C1668 1.368 . S
C1672 C1671 1.523 . S
H1673 C1648 0.950 . S
H1674 C1650 0.950 . S
H1675 C1651 0.949 . S
H1676 C1653 0.950 . S
H1677 C1655 0.950 . S
C1678 C1679 1.349 . S
C1678 C1680 1.327 . S
C1678 H1703 0.950 . S
C1679 C1678 1.349 . S
C1679 C1695 1.349 . S
C1680 C1678 1.327 . S
C1680 C1699 1.429 . S
C1680 H1704 0.950 . S
C1681 C1698 1.574 . S
C1681 C1700 1.368 . S
C1681 H1705 0.949 . S
H1682 C1686 0.949 . S
C1683 C1684 1.349 . S
C1683 C1685 1.327 . S
C1683 H1706 0.950 . S
C1684 C1683 1.349 . S
C1684 C1696 1.349 . S
C1685 C1683 1.327 . S
C1685 C1701 1.429 . S
C1685 H1707 0.950 . S
C1686 H1682 0.949 . S
C1686 C1694 1.574 . S
C1686 C1702 1.368 . S
H1687 C1695 0.950 . S
H1688 C1693 0.950 . S
H1689 C1694 0.949 . S
H1690 C1696 0.950 . S
H1691 C1697 0.950 . S
H1692 C1698 0.949 . S
C1693 H1688 0.950 . S
C1693 C1695 1.327 . S
C1693 C1699 1.429 . S
C1694 C1686 1.574 . S
C1694 H1689 0.949 . S
C1694 C1700 1.368 . S
C1695 C1679 1.349 . S
C1695 H1687 0.950 . S
C1695 C1693 1.327 . S
C1696 C1684 1.349 . S
C1696 H1690 0.950 . S
C1696 C1697 1.327 . S
C1697 H1691 0.950 . S
C1697 C1696 1.327 . S
C1697 C1701 1.429 . S
C1698 C1681 1.574 . S
C1698 H1692 0.949 . S
C1698 C1702 1.368 . S
C1699 C1680 1.429 . S
C1699 C1693 1.429 . S
C1699 C1700 1.523 . S
C1700 C1681 1.368 . S
C1700 C1694 1.368 . S
C1700 C1699 1.523 . S
C1701 C1685 1.429 . S
C1701 C1697 1.429 . S
C1701 C1702 1.523 . S
C1702 C1686 1.368 . S
C1702 C1698 1.368 . S
C1702 C1701 1.523 . S
H1703 C1678 0.950 . S
H1704 C1680 0.950 . S
H1705 C1681 0.949 . S
H1706 C1683 0.950 . S
H1707 C1685 0.950 . S
C1708 C1709 1.349 . S
C1708 C1710 1.327 . S
C1708 H1733 0.950 . S
C1709 C1708 1.349 . S
C1709 C1725 1.349 . S
C1710 C1708 1.327 . S
C1710 C1729 1.429 . S
C1710 H1734 0.950 . S
C1711 C1728 1.574 . S
C1711 C1730 1.368 . S
C1711 H1735 0.949 . S
H1712 C1716 0.949 . S
C1713 C1714 1.349 . S
C1713 C1715 1.327 . S
C1713 H1736 0.950 . S
C1714 C1713 1.349 . S
C1714 C1726 1.349 . S
C1715 C1713 1.327 . S
C1715 C1731 1.429 . S
C1715 H1737 0.950 . S
C1716 H1712 0.949 . S
C1716 C1724 1.574 . S
C1716 C1732 1.368 . S
H1717 C1725 0.950 . S
H1718 C1723 0.950 . S
H1719 C1724 0.949 . S
H1720 C1726 0.950 . S
H1721 C1727 0.950 . S
H1722 C1728 0.949 . S
C1723 H1718 0.950 . S
C1723 C1725 1.327 . S
C1723 C1729 1.429 . S
C1724 C1716 1.574 . S
C1724 H1719 0.949 . S
C1724 C1730 1.368 . S
C1725 C1709 1.349 . S
C1725 H1717 0.950 . S
C1725 C1723 1.327 . S
C1726 C1714 1.349 . S
C1726 H1720 0.950 . S
C1726 C1727 1.327 . S
C1727 H1721 0.950 . S
C1727 C1726 1.327 . S
C1727 C1731 1.429 . S
C1728 C1711 1.574 . S
C1728 H1722 0.949 . S
C1728 C1732 1.368 . S
C1729 C1710 1.429 . S
C1729 C1723 1.429 . S
C1729 C1730 1.523 . S
C1730 C1711 1.368 . S
C1730 C1724 1.368 . S
C1730 C1729 1.523 . S
C1731 C1715 1.429 . S
C1731 C1727 1.429 . S
C1731 C1732 1.523 . S
C1732 C1716 1.368 . S
C1732 C1728 1.368 . S
C1732 C1731 1.523 . S
H1733 C1708 0.950 . S
H1734 C1710 0.950 . S
H1735 C1711 0.949 . S
H1736 C1713 0.950 . S
H1737 C1715 0.950 . S
C1738 C1739 1.349 . S
C1738 C1740 1.327 . S
C1738 H1763 0.950 . S
C1739 C1738 1.349 . S
C1739 C1755 1.349 . S
C1740 C1738 1.327 . S
C1740 C1759 1.429 . S
C1740 H1764 0.950 . S
C1741 C1758 1.574 . S
C1741 C1760 1.368 . S
C1741 H1765 0.949 . S
H1742 C1746 0.949 . S
C1743 C1744 1.349 . S
C1743 C1745 1.327 . S
C1743 H1766 0.950 . S
C1744 C1743 1.349 . S
C1744 C1756 1.349 . S
C1745 C1743 1.327 . S
C1745 C1761 1.429 . S
C1745 H1767 0.950 . S
C1746 H1742 0.949 . S
C1746 C1754 1.574 . S
C1746 C1762 1.368 . S
H1747 C1755 0.950 . S
H1748 C1753 0.950 . S
H1749 C1754 0.949 . S
H1750 C1756 0.950 . S
H1751 C1757 0.950 . S
H1752 C1758 0.949 . S
C1753 H1748 0.950 . S
C1753 C1755 1.327 . S
C1753 C1759 1.429 . S
C1754 C1746 1.574 . S
C1754 H1749 0.949 . S
C1754 C1760 1.368 . S
C1755 C1739 1.349 . S
C1755 H1747 0.950 . S
C1755 C1753 1.327 . S
C1756 C1744 1.349 . S
C1756 H1750 0.950 . S
C1756 C1757 1.327 . S
C1757 H1751 0.950 . S
C1757 C1756 1.327 . S
C1757 C1761 1.429 . S
C1758 C1741 1.574 . S
C1758 H1752 0.949 . S
C1758 C1762 1.368 . S
C1759 C1740 1.429 . S
C1759 C1753 1.429 . S
C1759 C1760 1.523 . S
C1760 C1741 1.368 . S
C1760 C1754 1.368 . S
C1760 C1759 1.523 . S
C1761 C1745 1.429 . S
C1761 C1757 1.429 . S
C1761 C1762 1.523 . S
C1762 C1746 1.368 . S
C1762 C1758 1.368 . S
C1762 C1761 1.523 . S
H1763 C1738 0.950 . S
H1764 C1740 0.950 . S
H1765 C1741 0.949 . S
H1766 C1743 0.950 . S
H1767 C1745 0.950 . S
C1768 C1769 1.349 . S
C1768 C1770 1.327 . S
C1768 H1793 0.950 . S
C1769 C1768 1.349 . S
C1769 C1785 1.349 . S
C1770 C1768 1.327 . S
C1770 C1789 1.429 . S
C1770 H1794 0.950 . S
C1771 C1788 1.574 . S
C1771 C1790 1.368 . S
C1771 H1795 0.949 . S
H1772 C1776 0.949 . S
C1773 C1774 1.349 . S
C1773 C1775 1.327 . S
C1773 H1796 0.950 . S
C1774 C1773 1.349 . S
C1774 C1786 1.349 . S
C1775 C1773 1.327 . S
C1775 C1791 1.429 . S
C1775 H1797 0.950 . S
C1776 H1772 0.949 . S
C1776 C1784 1.574 . S
C1776 C1792 1.368 . S
H1777 C1785 0.950 . S
H1778 C1783 0.950 . S
H1779 C1784 0.949 . S
H1780 C1786 0.950 . S
H1781 C1787 0.950 . S
H1782 C1788 0.949 . S
C1783 H1778 0.950 . S
C1783 C1785 1.327 . S
C1783 C1789 1.429 . S
C1784 C1776 1.574 . S
C1784 H1779 0.949 . S
C1784 C1790 1.368 . S
C1785 C1769 1.349 . S
C1785 H1777 0.950 . S
C1785 C1783 1.327 . S
C1786 C1774 1.349 . S
C1786 H1780 0.950 . S
C1786 C1787 1.327 . S
C1787 H1781 0.950 . S
C1787 C1786 1.327 . S
C1787 C1791 1.429 . S
C1788 C1771 1.574 . S
C1788 H1782 0.949 . S
C1788 C1792 1.368 . S
C1789 C1770 1.429 . S
C1789 C1783 1.429 . S
C1789 C1790 1.523 . S
C1790 C1771 1.368 . S
C1790 C1784 1.368 . S
C1790 C1789 1.523 . S
C1791 C1775 1.429 . S
C1791 C1787 1.429 . S
C1791 C1792 1.523 . S
C1792 C1776 1.368 . S
C1792 C1788 1.368 . S
C1792 C1791 1.523 . S
H1793 C1768 0.950 . S
H1794 C1770 0.950 . S
H1795 C1771 0.949 . S
H1796 C1773 0.950 . S
H1797 C1775 0.950 . S
C1798 C1799 1.349 1_655 S
C1798 C1800 1.327 . S
C1798 H1823 0.937 1_554 S
C1799 C1798 1.349 1_455 S
C1799 C1815 1.349 . S
C1800 C1798 1.327 . S
C1800 C1819 1.429 1_655 S
C1800 H1824 0.950 1_554 S
C1801 C1818 1.574 . S
C1801 C1820 1.409 . S
C1801 H1825 0.949 . S
H1802 C1806 0.949 . S
C1803 C1804 1.349 1_455 S
C1803 C1805 1.327 . S
C1803 H1826 0.937 1_556 S
C1804 C1803 1.349 1_655 S
C1804 C1816 1.349 . S
C1805 C1803 1.327 . S
C1805 C1821 1.429 1_455 S
C1805 H1827 0.950 1_556 S
C1806 H1802 0.949 . S
C1806 C1814 1.574 . S
C1806 C1822 1.409 . S
H1807 C1815 0.950 . S
H1808 C1813 0.950 . S
H1809 C1814 0.949 . S
H1810 C1816 0.950 . S
H1811 C1817 0.950 . S
H1812 C1818 0.949 . S
C1813 H1808 0.950 . S
C1813 C1815 1.327 . S
C1813 C1819 1.429 . S
C1814 C1806 1.574 . S
C1814 H1809 0.949 . S
C1814 C1820 1.327 1_656 S
C1815 C1799 1.349 . S
C1815 H1807 0.950 . S
C1815 C1813 1.327 . S
C1816 C1804 1.349 . S
C1816 H1810 0.950 . S
C1816 C1817 1.327 . S
C1817 H1811 0.950 . S
C1817 C1816 1.327 . S
C1817 C1821 1.429 . S
C1818 C1801 1.574 . S
C1818 H1812 0.949 . S
C1818 C1822 1.327 1_454 S
C1819 C1800 1.429 1_455 S
C1819 C1813 1.429 . S
C1819 C1820 1.528 . S
C1820 C1801 1.409 . S
C1820 C1814 1.327 1_454 S
C1820 C1819 1.528 . S
C1821 C1805 1.429 1_655 S
C1821 C1817 1.429 . S
C1821 C1822 1.528 . S
C1822 C1806 1.409 . S
C1822 C1818 1.327 1_656 S
C1822 C1821 1.528 . S
H1823 C1798 0.937 1_556 S
H1824 C1800 0.950 1_556 S
H1825 C1801 0.949 . S
H1826 C1803 0.937 1_554 S
H1827 C1805 0.950 1_554 S
C1828 C1829 1.349 . S
C1828 C1830 1.327 1_556 S
C1828 H1853 0.950 1_556 S
C1829 C1828 1.349 . S
C1829 C1845 1.349 . S
C1830 C1828 1.327 1_554 S
C1830 C1849 1.429 1_554 S
C1830 H1854 0.950 . S
C1831 C1848 1.574 . S
C1831 C1850 1.368 . S
C1831 H1855 0.949 . S
H1832 C1836 0.949 . S
C1833 C1834 1.349 . S
C1833 C1835 1.327 1_554 S
C1833 H1856 0.950 1_554 S
C1834 C1833 1.349 . S
C1834 C1846 1.349 . S
C1835 C1833 1.327 1_556 S
C1835 C1851 1.429 1_556 S
C1835 H1857 0.950 . S
C1836 H1832 0.949 . S
C1836 C1844 1.574 . S
C1836 C1852 1.368 . S
H1837 C1845 0.950 . S
H1838 C1843 0.950 . S
H1839 C1844 0.949 . S
H1840 C1846 0.950 . S
H1841 C1847 0.950 . S
H1842 C1848 0.949 . S
C1843 H1838 0.950 . S
C1843 C1845 1.327 . S
C1843 C1849 1.429 . S
C1844 C1836 1.574 . S
C1844 H1839 0.949 . S
C1844 C1850 1.368 1_554 S
C1845 C1829 1.349 . S
C1845 H1837 0.950 . S
C1845 C1843 1.327 . S
C1846 C1834 1.349 . S
C1846 H1840 0.950 . S
C1846 C1847 1.327 . S
C1847 H1841 0.950 . S
C1847 C1846 1.327 . S
C1847 C1851 1.429 . S
C1848 C1831 1.574 . S
C1848 H1842 0.949 . S
C1848 C1852 1.368 1_556 S
C1849 C1830 1.429 1_556 S
C1849 C1843 1.429 . S
C1849 C1850 1.523 . S
C1850 C1831 1.368 . S
C1850 C1844 1.368 1_556 S
C1850 C1849 1.523 . S
C1851 C1835 1.429 1_554 S
C1851 C1847 1.429 . S
C1851 C1852 1.523 . S
C1852 C1836 1.368 . S
C1852 C1848 1.368 1_554 S
C1852 C1851 1.523 . S
H1853 C1828 0.950 1_554 S
H1854 C1830 0.950 . S
H1855 C1831 0.949 . S
H1856 C1833 0.950 1_556 S
H1857 C1835 0.950 . S
C1858 C1859 1.349 . S
C1858 C1860 1.327 . S
C1858 H1883 0.950 . S
C1859 C1858 1.349 . S
C1859 C1875 1.349 1_655 S
C1860 C1858 1.327 . S
C1860 C1879 1.429 . S
C1860 H1884 0.950 . S
C1861 C1878 1.574 . S
C1861 C1880 1.324 1_455 S
C1861 H1885 0.949 . S
H1862 C1866 0.949 . S
C1863 C1864 1.349 . S
C1863 C1865 1.327 . S
C1863 H1886 0.950 . S
C1864 C1863 1.349 . S
C1864 C1876 1.349 1_455 S
C1865 C1863 1.327 . S
C1865 C1881 1.429 . S
C1865 H1887 0.950 . S
C1866 H1862 0.949 . S
C1866 C1874 1.574 . S
C1866 C1882 1.324 1_655 S
H1867 C1875 0.950 . S
H1868 C1873 0.950 . S
H1869 C1874 0.949 . S
H1870 C1876 0.950 . S
H1871 C1877 0.950 . S
H1872 C1878 0.949 . S
C1873 H1868 0.950 . S
C1873 C1875 1.327 . S
C1873 C1879 1.429 1_455 S
C1874 C1866 1.574 . S
C1874 H1869 0.949 . S
C1874 C1880 1.412 . S
C1875 C1859 1.349 1_455 S
C1875 H1867 0.950 . S
C1875 C1873 1.327 . S
C1876 C1864 1.349 1_655 S
C1876 H1870 0.950 . S
C1876 C1877 1.327 . S
C1877 H1871 0.950 . S
C1877 C1876 1.327 . S
C1877 C1881 1.429 1_655 S
C1878 C1861 1.574 . S
C1878 H1872 0.949 . S
C1878 C1882 1.412 . S
C1879 C1860 1.429 . S
C1879 C1873 1.429 1_655 S
C1879 C1880 1.528 . S
C1880 C1861 1.324 1_655 S
C1880 C1874 1.412 . S
C1880 C1879 1.528 . S
C1881 C1865 1.429 . S
C1881 C1877 1.429 1_455 S
C1881 C1882 1.528 . S
C1882 C1866 1.324 1_455 S
C1882 C1878 1.412 . S
C1882 C1881 1.528 . S
H1883 C1858 0.950 . S
H1884 C1860 0.950 . S
H1885 C1861 0.949 . S
H1886 C1863 0.950 . S
H1887 C1865 0.950 . S
C1888 C1889 1.349 . S
C1888 C1890 1.327 . S
C1888 H1913 0.950 . S
C1889 C1888 1.349 . S
C1889 C1905 1.349 . S
C1890 C1888 1.327 . S
C1890 C1909 1.429 . S
C1890 H1914 0.950 . S
C1891 C1908 1.574 . S
C1891 C1910 1.368 . S
C1891 H1915 0.949 . S
H1892 C1896 0.949 . S
C1893 C1894 1.349 . S
C1893 C1895 1.327 . S
C1893 H1916 0.950 . S
C1894 C1893 1.349 . S
C1894 C1906 1.349 . S
C1895 C1893 1.327 . S
C1895 C1911 1.429 . S
C1895 H1917 0.950 . S
C1896 H1892 0.949 . S
C1896 C1904 1.574 . S
C1896 C1912 1.368 . S
H1897 C1905 0.950 . S
H1898 C1903 0.950 . S
H1899 C1904 0.949 . S
H1900 C1906 0.950 . S
H1901 C1907 0.950 . S
H1902 C1908 0.949 . S
C1903 H1898 0.950 . S
C1903 C1905 1.327 . S
C1903 C1909 1.429 . S
C1904 C1896 1.574 . S
C1904 H1899 0.949 . S
C1904 C1910 1.368 . S
C1905 C1889 1.349 . S
C1905 H1897 0.950 . S
C1905 C1903 1.327 . S
C1906 C1894 1.349 . S
C1906 H1900 0.950 . S
C1906 C1907 1.327 . S
C1907 H1901 0.950 . S
C1907 C1906 1.327 . S
C1907 C1911 1.429 . S
C1908 C1891 1.574 . S
C1908 H1902 0.949 . S
C1908 C1912 1.368 . S
C1909 C1890 1.429 . S
C1909 C1903 1.429 . S
C1909 C1910 1.523 . S
C1910 C1891 1.368 . S
C1910 C1904 1.368 . S
C1910 C1909 1.523 . S
C1911 C1895 1.429 . S
C1911 C1907 1.429 . S
C1911 C1912 1.523 . S
C1912 C1896 1.368 . S
C1912 C1908 1.368 . S
C1912 C1911 1.523 . S
H1913 C1888 0.950 . S
H1914 C1890 0.950 . S
H1915 C1891 0.949 . S
H1916 C1893 0.950 . S
H1917 C1895 0.950 . S
C1918 C1919 1.349 . S
C1918 C1920 1.327 . S
C1918 H1943 0.950 . S
C1919 C1918 1.349 . S
C1919 C1935 1.349 . S
C1920 C1918 1.327 . S
C1920 C1939 1.429 . S
C1920 H1944 0.950 . S
C1921 C1938 1.574 . S
C1921 C1940 1.368 . S
C1921 H1945 0.949 . S
H1922 C1926 0.949 . S
C1923 C1924 1.349 . S
C1923 C1925 1.327 . S
C1923 H1946 0.950 . S
C1924 C1923 1.349 . S
C1924 C1936 1.349 . S
C1925 C1923 1.327 . S
C1925 C1941 1.429 . S
C1925 H1947 0.950 . S
C1926 H1922 0.949 . S
C1926 C1934 1.574 . S
C1926 C1942 1.368 . S
H1927 C1935 0.950 . S
H1928 C1933 0.950 . S
H1929 C1934 0.949 . S
H1930 C1936 0.950 . S
H1931 C1937 0.950 . S
H1932 C1938 0.949 . S
C1933 H1928 0.950 . S
C1933 C1935 1.327 . S
C1933 C1939 1.429 . S
C1934 C1926 1.574 . S
C1934 H1929 0.949 . S
C1934 C1940 1.368 . S
C1935 C1919 1.349 . S
C1935 H1927 0.950 . S
C1935 C1933 1.327 . S
C1936 C1924 1.349 . S
C1936 H1930 0.950 . S
C1936 C1937 1.327 . S
C1937 H1931 0.950 . S
C1937 C1936 1.327 . S
C1937 C1941 1.429 . S
C1938 C1921 1.574 . S
C1938 H1932 0.949 . S
C1938 C1942 1.368 . S
C1939 C1920 1.429 . S
C1939 C1933 1.429 . S
C1939 C1940 1.523 . S
C1940 C1921 1.368 . S
C1940 C1934 1.368 . S
C1940 C1939 1.523 . S
C1941 C1925 1.429 . S
C1941 C1937 1.429 . S
C1941 C1942 1.523 . S
C1942 C1926 1.368 . S
C1942 C1938 1.368 . S
C1942 C1941 1.523 . S
H1943 C1918 0.950 . S
H1944 C1920 0.950 . S
H1945 C1921 0.949 . S
H1946 C1923 0.950 . S
H1947 C1925 0.950 . S
C1948 C1949 1.349 . S
C1948 C1950 1.327 . S
C1948 H1973 0.950 . S
C1949 C1948 1.349 . S
C1949 C1965 1.349 . S
C1950 C1948 1.327 . S
C1950 C1969 1.429 . S
C1950 H1974 0.950 . S
C1951 C1968 1.574 . S
C1951 C1970 1.368 . S
C1951 H1975 0.949 . S
H1952 C1956 0.949 . S
C1953 C1954 1.349 . S
C1953 C1955 1.327 . S
C1953 H1976 0.950 . S
C1954 C1953 1.349 . S
C1954 C1966 1.349 . S
C1955 C1953 1.327 . S
C1955 C1971 1.429 . S
C1955 H1977 0.950 . S
C1956 H1952 0.949 . S
C1956 C1964 1.574 . S
C1956 C1972 1.368 . S
H1957 C1965 0.950 . S
H1958 C1963 0.950 . S
H1959 C1964 0.949 . S
H1960 C1966 0.950 . S
H1961 C1967 0.950 . S
H1962 C1968 0.949 . S
C1963 H1958 0.950 . S
C1963 C1965 1.327 . S
C1963 C1969 1.429 . S
C1964 C1956 1.574 . S
C1964 H1959 0.949 . S
C1964 C1970 1.368 . S
C1965 C1949 1.349 . S
C1965 H1957 0.950 . S
C1965 C1963 1.327 . S
C1966 C1954 1.349 . S
C1966 H1960 0.950 . S
C1966 C1967 1.327 . S
C1967 H1961 0.950 . S
C1967 C1966 1.327 . S
C1967 C1971 1.429 . S
C1968 C1951 1.574 . S
C1968 H1962 0.949 . S
C1968 C1972 1.368 . S
C1969 C1950 1.429 . S
C1969 C1963 1.429 . S
C1969 C1970 1.523 . S
C1970 C1951 1.368 . S
C1970 C1964 1.368 . S
C1970 C1969 1.523 . S
C1971 C1955 1.429 . S
C1971 C1967 1.429 . S
C1971 C1972 1.523 . S
C1972 C1956 1.368 . S
C1972 C1968 1.368 . S
C1972 C1971 1.523 . S
H1973 C1948 0.950 . S
H1974 C1950 0.950 . S
H1975 C1951 0.949 . S
H1976 C1953 0.950 . S
H1977 C1955 0.950 . S
C1978 C1979 1.349 . S
C1978 C1980 1.327 . S
C1978 H2003 0.950 . S
C1979 C1978 1.349 . S
C1979 C1995 1.349 . S
C1980 C1978 1.327 . S
C1980 C1999 1.429 . S
C1980 H2004 0.950 . S
C1981 C1998 1.574 . S
C1981 C2000 1.368 . S
C1981 H2005 0.949 . S
H1982 C1986 0.949 . S
C1983 C1984 1.349 . S
C1983 C1985 1.327 . S
C1983 H2006 0.950 . S
C1984 C1983 1.349 . S
C1984 C1996 1.349 . S
C1985 C1983 1.327 . S
C1985 C2001 1.429 . S
C1985 H2007 0.950 . S
C1986 H1982 0.949 . S
C1986 C1994 1.574 . S
C1986 C2002 1.368 . S
H1987 C1995 0.950 . S
H1988 C1993 0.950 . S
H1989 C1994 0.949 . S
H1990 C1996 0.950 . S
H1991 C1997 0.950 . S
H1992 C1998 0.949 . S
C1993 H1988 0.950 . S
C1993 C1995 1.327 . S
C1993 C1999 1.429 . S
C1994 C1986 1.574 . S
C1994 H1989 0.949 . S
C1994 C2000 1.368 . S
C1995 C1979 1.349 . S
C1995 H1987 0.950 . S
C1995 C1993 1.327 . S
C1996 C1984 1.349 . S
C1996 H1990 0.950 . S
C1996 C1997 1.327 . S
C1997 H1991 0.950 . S
C1997 C1996 1.327 . S
C1997 C2001 1.429 . S
C1998 C1981 1.574 . S
C1998 H1992 0.949 . S
C1998 C2002 1.368 . S
C1999 C1980 1.429 . S
C1999 C1993 1.429 . S
C1999 C2000 1.523 . S
C2000 C1981 1.368 . S
C2000 C1994 1.368 . S
C2000 C1999 1.523 . S
C2001 C1985 1.429 . S
C2001 C1997 1.429 . S
C2001 C2002 1.523 . S
C2002 C1986 1.368 . S
C2002 C1998 1.368 . S
C2002 C2001 1.523 . S
H2003 C1978 0.950 . S
H2004 C1980 0.950 . S
H2005 C1981 0.949 . S
H2006 C1983 0.950 . S
H2007 C1985 0.950 . S
C2008 C2009 1.349 . S
C2008 C2010 1.327 . S
C2008 H2033 0.950 . S
C2009 C2008 1.349 . S
C2009 C2025 1.349 . S
C2010 C2008 1.327 . S
C2010 C2029 1.429 . S
C2010 H2034 0.950 . S
C2011 C2028 1.574 . S
C2011 C2030 1.368 . S
C2011 H2035 0.949 . S
H2012 C2016 0.949 . S
C2013 C2014 1.349 . S
C2013 C2015 1.327 . S
C2013 H2036 0.950 . S
C2014 C2013 1.349 . S
C2014 C2026 1.349 . S
C2015 C2013 1.327 . S
C2015 C2031 1.429 . S
C2015 H2037 0.950 . S
C2016 H2012 0.949 . S
C2016 C2024 1.574 . S
C2016 C2032 1.368 . S
H2017 C2025 0.950 . S
H2018 C2023 0.950 . S
H2019 C2024 0.949 . S
H2020 C2026 0.950 . S
H2021 C2027 0.950 . S
H2022 C2028 0.949 . S
C2023 H2018 0.950 . S
C2023 C2025 1.327 . S
C2023 C2029 1.429 . S
C2024 C2016 1.574 . S
C2024 H2019 0.949 . S
C2024 C2030 1.368 . S
C2025 C2009 1.349 . S
C2025 H2017 0.950 . S
C2025 C2023 1.327 . S
C2026 C2014 1.349 . S
C2026 H2020 0.950 . S
C2026 C2027 1.327 . S
C2027 H2021 0.950 . S
C2027 C2026 1.327 . S
C2027 C2031 1.429 . S
C2028 C2011 1.574 . S
C2028 H2022 0.949 . S
C2028 C2032 1.368 . S
C2029 C2010 1.429 . S
C2029 C2023 1.429 . S
C2029 C2030 1.523 . S
C2030 C2011 1.368 . S
C2030 C2024 1.368 . S
C2030 C2029 1.523 . S
C2031 C2015 1.429 . S
C2031 C2027 1.429 . S
C2031 C2032 1.523 . S
C2032 C2016 1.368 . S
C2032 C2028 1.368 . S
C2032 C2031 1.523 . S
H2033 C2008 0.950 . S
H2034 C2010 0.950 . S
H2035 C2011 0.949 . S
H2036 C2013 0.950 . S
H2037 C2015 0.950 . S
C2038 C2039 1.349 . S
C2038 C2040 1.327 . S
C2038 H2063 0.950 . S
C2039 C2038 1.349 . S
C2039 C2055 1.349 . S
C2040 C2038 1.327 . S
C2040 C2059 1.429 . S
C2040 H2064 0.950 . S
C2041 C2058 1.574 . S
C2041 C2060 1.368 . S
C2041 H2065 0.949 . S
H2042 C2046 0.949 . S
C2043 C2044 1.349 . S
C2043 C2045 1.327 . S
C2043 H2066 0.950 . S
C2044 C2043 1.349 . S
C2044 C2056 1.349 . S
C2045 C2043 1.327 . S
C2045 C2061 1.429 . S
C2045 H2067 0.950 . S
C2046 H2042 0.949 . S
C2046 C2054 1.574 . S
C2046 C2062 1.368 . S
H2047 C2055 0.950 . S
H2048 C2053 0.950 . S
H2049 C2054 0.949 . S
H2050 C2056 0.950 . S
H2051 C2057 0.950 . S
H2052 C2058 0.949 . S
C2053 H2048 0.950 . S
C2053 C2055 1.327 . S
C2053 C2059 1.429 . S
C2054 C2046 1.574 . S
C2054 H2049 0.949 . S
C2054 C2060 1.368 . S
C2055 C2039 1.349 . S
C2055 H2047 0.950 . S
C2055 C2053 1.327 . S
C2056 C2044 1.349 . S
C2056 H2050 0.950 . S
C2056 C2057 1.327 . S
C2057 H2051 0.950 . S
C2057 C2056 1.327 . S
C2057 C2061 1.429 . S
C2058 C2041 1.574 . S
C2058 H2052 0.949 . S
C2058 C2062 1.368 . S
C2059 C2040 1.429 . S
C2059 C2053 1.429 . S
C2059 C2060 1.523 . S
C2060 C2041 1.368 . S
C2060 C2054 1.368 . S
C2060 C2059 1.523 . S
C2061 C2045 1.429 . S
C2061 C2057 1.429 . S
C2061 C2062 1.523 . S
C2062 C2046 1.368 . S
C2062 C2058 1.368 . S
C2062 C2061 1.523 . S
H2063 C2038 0.950 . S
H2064 C2040 0.950 . S
H2065 C2041 0.949 . S
H2066 C2043 0.950 . S
H2067 C2045 0.950 . S
C2068 C2069 1.349 . S
C2068 C2070 1.327 . S
C2068 H2093 0.950 . S
C2069 C2068 1.349 . S
C2069 C2085 1.349 . S
C2070 C2068 1.327 . S
C2070 C2089 1.429 . S
C2070 H2094 0.950 . S
C2071 C2088 1.574 . S
C2071 C2090 1.368 . S
C2071 H2095 0.949 . S
H2072 C2076 0.949 . S
C2073 C2074 1.349 . S
C2073 C2075 1.327 . S
C2073 H2096 0.950 . S
C2074 C2073 1.349 . S
C2074 C2086 1.349 . S
C2075 C2073 1.327 . S
C2075 C2091 1.429 . S
C2075 H2097 0.950 . S
C2076 H2072 0.949 . S
C2076 C2084 1.574 . S
C2076 C2092 1.368 . S
H2077 C2085 0.950 . S
H2078 C2083 0.950 . S
H2079 C2084 0.949 . S
H2080 C2086 0.950 . S
H2081 C2087 0.950 . S
H2082 C2088 0.949 . S
C2083 H2078 0.950 . S
C2083 C2085 1.327 . S
C2083 C2089 1.429 . S
C2084 C2076 1.574 . S
C2084 H2079 0.949 . S
C2084 C2090 1.368 . S
C2085 C2069 1.349 . S
C2085 H2077 0.950 . S
C2085 C2083 1.327 . S
C2086 C2074 1.349 . S
C2086 H2080 0.950 . S
C2086 C2087 1.327 . S
C2087 H2081 0.950 . S
C2087 C2086 1.327 . S
C2087 C2091 1.429 . S
C2088 C2071 1.574 . S
C2088 H2082 0.949 . S
C2088 C2092 1.368 . S
C2089 C2070 1.429 . S
C2089 C2083 1.429 . S
C2089 C2090 1.523 . S
C2090 C2071 1.368 . S
C2090 C2084 1.368 . S
C2090 C2089 1.523 . S
C2091 C2075 1.429 . S
C2091 C2087 1.429 . S
C2091 C2092 1.523 . S
C2092 C2076 1.368 . S
C2092 C2088 1.368 . S
C2092 C2091 1.523 . S
H2093 C2068 0.950 . S
H2094 C2070 0.950 . S
H2095 C2071 0.949 . S
H2096 C2073 0.950 . S
H2097 C2075 0.950 . S
C2098 C2099 1.349 . S
C2098 C2100 1.327 . S
C2098 H2123 0.950 . S
C2099 C2098 1.349 . S
C2099 C2115 1.349 . S
C2100 C2098 1.327 . S
C2100 C2119 1.429 . S
C2100 H2124 0.950 . S
C2101 C2118 1.574 . S
C2101 C2120 1.368 . S
C2101 H2125 0.949 . S
H2102 C2106 0.949 . S
C2103 C2104 1.349 . S
C2103 C2105 1.327 . S
C2103 H2126 0.950 . S
C2104 C2103 1.349 . S
C2104 C2116 1.349 . S
C2105 C2103 1.327 . S
C2105 C2121 1.429 . S
C2105 H2127 0.950 . S
C2106 H2102 0.949 . S
C2106 C2114 1.574 . S
C2106 C2122 1.368 . S
H2107 C2115 0.950 . S
H2108 C2113 0.950 . S
H2109 C2114 0.949 . S
H2110 C2116 0.950 . S
H2111 C2117 0.950 . S
H2112 C2118 0.949 . S
C2113 H2108 0.950 . S
C2113 C2115 1.327 . S
C2113 C2119 1.429 . S
C2114 C2106 1.574 . S
C2114 H2109 0.949 . S
C2114 C2120 1.368 . S
C2115 C2099 1.349 . S
C2115 H2107 0.950 . S
C2115 C2113 1.327 . S
C2116 C2104 1.349 . S
C2116 H2110 0.950 . S
C2116 C2117 1.327 . S
C2117 H2111 0.950 . S
C2117 C2116 1.327 . S
C2117 C2121 1.429 . S
C2118 C2101 1.574 . S
C2118 H2112 0.949 . S
C2118 C2122 1.368 . S
C2119 C2100 1.429 . S
C2119 C2113 1.429 . S
C2119 C2120 1.523 . S
C2120 C2101 1.368 . S
C2120 C2114 1.368 . S
C2120 C2119 1.523 . S
C2121 C2105 1.429 . S
C2121 C2117 1.429 . S
C2121 C2122 1.523 . S
C2122 C2106 1.368 . S
C2122 C2118 1.368 . S
C2122 C2121 1.523 . S
H2123 C2098 0.950 . S
H2124 C2100 0.950 . S
H2125 C2101 0.949 . S
H2126 C2103 0.950 . S
H2127 C2105 0.950 . S
C2128 C2129 1.349 . S
C2128 C2130 1.327 . S
C2128 H2153 0.950 . S
C2129 C2128 1.349 . S
C2129 C2145 1.349 . S
C2130 C2128 1.327 . S
C2130 C2149 1.429 . S
C2130 H2154 0.950 . S
C2131 C2148 1.574 . S
C2131 C2150 1.368 . S
C2131 H2155 0.949 . S
H2132 C2136 0.949 . S
C2133 C2134 1.349 . S
C2133 C2135 1.327 . S
C2133 H2156 0.950 . S
C2134 C2133 1.349 . S
C2134 C2146 1.349 . S
C2135 C2133 1.327 . S
C2135 C2151 1.429 . S
C2135 H2157 0.950 . S
C2136 H2132 0.949 . S
C2136 C2144 1.574 . S
C2136 C2152 1.368 . S
H2137 C2145 0.950 . S
H2138 C2143 0.950 . S
H2139 C2144 0.949 . S
H2140 C2146 0.950 . S
H2141 C2147 0.950 . S
H2142 C2148 0.949 . S
C2143 H2138 0.950 . S
C2143 C2145 1.327 . S
C2143 C2149 1.429 . S
C2144 C2136 1.574 . S
C2144 H2139 0.949 . S
C2144 C2150 1.368 . S
C2145 C2129 1.349 . S
C2145 H2137 0.950 . S
C2145 C2143 1.327 . S
C2146 C2134 1.349 . S
C2146 H2140 0.950 . S
C2146 C2147 1.327 . S
C2147 H2141 0.950 . S
C2147 C2146 1.327 . S
C2147 C2151 1.429 . S
C2148 C2131 1.574 . S
C2148 H2142 0.949 . S
C2148 C2152 1.368 . S
C2149 C2130 1.429 . S
C2149 C2143 1.429 . S
C2149 C2150 1.523 . S
C2150 C2131 1.368 . S
C2150 C2144 1.368 . S
C2150 C2149 1.523 . S
C2151 C2135 1.429 . S
C2151 C2147 1.429 . S
C2151 C2152 1.523 . S
C2152 C2136 1.368 . S
C2152 C2148 1.368 . S
C2152 C2151 1.523 . S
H2153 C2128 0.950 . S
H2154 C2130 0.950 . S
H2155 C2131 0.949 . S
H2156 C2133 0.950 . S
H2157 C2135 0.950 . S
C2158 C2159 1.349 . S
C2158 C2160 1.327 . S
C2158 H2183 0.950 . S
C2159 C2158 1.349 . S
C2159 C2175 1.349 . S
C2160 C2158 1.327 . S
C2160 C2179 1.429 . S
C2160 H2184 0.950 . S
C2161 C2178 1.574 . S
C2161 C2180 1.368 . S
C2161 H2185 0.949 . S
H2162 C2166 0.949 . S
C2163 C2164 1.349 . S
C2163 C2165 1.327 . S
C2163 H2186 0.950 . S
C2164 C2163 1.349 . S
C2164 C2176 1.349 . S
C2165 C2163 1.327 . S
C2165 C2181 1.429 . S
C2165 H2187 0.950 . S
C2166 H2162 0.949 . S
C2166 C2174 1.574 . S
C2166 C2182 1.368 . S
H2167 C2175 0.950 . S
H2168 C2173 0.950 . S
H2169 C2174 0.949 . S
H2170 C2176 0.950 . S
H2171 C2177 0.950 . S
H2172 C2178 0.949 . S
C2173 H2168 0.950 . S
C2173 C2175 1.327 . S
C2173 C2179 1.429 . S
C2174 C2166 1.574 . S
C2174 H2169 0.949 . S
C2174 C2180 1.368 . S
C2175 C2159 1.349 . S
C2175 H2167 0.950 . S
C2175 C2173 1.327 . S
C2176 C2164 1.349 . S
C2176 H2170 0.950 . S
C2176 C2177 1.327 . S
C2177 H2171 0.950 . S
C2177 C2176 1.327 . S
C2177 C2181 1.429 . S
C2178 C2161 1.574 . S
C2178 H2172 0.949 . S
C2178 C2182 1.368 . S
C2179 C2160 1.429 . S
C2179 C2173 1.429 . S
C2179 C2180 1.523 . S
C2180 C2161 1.368 . S
C2180 C2174 1.368 . S
C2180 C2179 1.523 . S
C2181 C2165 1.429 . S
C2181 C2177 1.429 . S
C2181 C2182 1.523 . S
C2182 C2166 1.368 . S
C2182 C2178 1.368 . S
C2182 C2181 1.523 . S
H2183 C2158 0.950 . S
H2184 C2160 0.950 . S
H2185 C2161 0.949 . S
H2186 C2163 0.950 . S
H2187 C2165 0.950 . S
C2188 C2189 1.349 . S
C2188 C2190 1.327 . S
C2188 H2213 0.950 . S
C2189 C2188 1.349 . S
C2189 C2205 1.349 . S
C2190 C2188 1.327 . S
C2190 C2209 1.429 . S
C2190 H2214 0.950 . S
C2191 C2208 1.574 . S
C2191 C2210 1.368 . S
C2191 H2215 0.949 . S
H2192 C2196 0.949 . S
C2193 C2194 1.349 . S
C2193 C2195 1.327 . S
C2193 H2216 0.950 . S
C2194 C2193 1.349 . S
C2194 C2206 1.349 . S
C2195 C2193 1.327 . S
C2195 C2211 1.429 . S
C2195 H2217 0.950 . S
C2196 H2192 0.949 . S
C2196 C2204 1.574 . S
C2196 C2212 1.368 . S
H2197 C2205 0.950 . S
H2198 C2203 0.950 . S
H2199 C2204 0.949 . S
H2200 C2206 0.950 . S
H2201 C2207 0.950 . S
H2202 C2208 0.949 . S
C2203 H2198 0.950 . S
C2203 C2205 1.327 . S
C2203 C2209 1.429 . S
C2204 C2196 1.574 . S
C2204 H2199 0.949 . S
C2204 C2210 1.368 . S
C2205 C2189 1.349 . S
C2205 H2197 0.950 . S
C2205 C2203 1.327 . S
C2206 C2194 1.349 . S
C2206 H2200 0.950 . S
C2206 C2207 1.327 . S
C2207 H2201 0.950 . S
C2207 C2206 1.327 . S
C2207 C2211 1.429 . S
C2208 C2191 1.574 . S
C2208 H2202 0.949 . S
C2208 C2212 1.368 . S
C2209 C2190 1.429 . S
C2209 C2203 1.429 . S
C2209 C2210 1.523 . S
C2210 C2191 1.368 . S
C2210 C2204 1.368 . S
C2210 C2209 1.523 . S
C2211 C2195 1.429 . S
C2211 C2207 1.429 . S
C2211 C2212 1.523 . S
C2212 C2196 1.368 . S
C2212 C2208 1.368 . S
C2212 C2211 1.523 . S
H2213 C2188 0.950 . S
H2214 C2190 0.950 . S
H2215 C2191 0.949 . S
H2216 C2193 0.950 . S
H2217 C2195 0.950 . S
C2218 C2219 1.349 . S
C2218 C2220 1.327 . S
C2218 H2243 0.950 . S
C2219 C2218 1.349 . S
C2219 C2235 1.349 . S
C2220 C2218 1.327 . S
C2220 C2239 1.429 . S
C2220 H2244 0.950 . S
C2221 C2238 1.574 . S
C2221 C2240 1.368 . S
C2221 H2245 0.949 . S
H2222 C2226 0.949 . S
C2223 C2224 1.349 . S
C2223 C2225 1.327 . S
C2223 H2246 0.950 . S
C2224 C2223 1.349 . S
C2224 C2236 1.349 . S
C2225 C2223 1.327 . S
C2225 C2241 1.429 . S
C2225 H2247 0.950 . S
C2226 H2222 0.949 . S
C2226 C2234 1.574 . S
C2226 C2242 1.368 . S
H2227 C2235 0.950 . S
H2228 C2233 0.950 . S
H2229 C2234 0.949 . S
H2230 C2236 0.950 . S
H2231 C2237 0.950 . S
H2232 C2238 0.949 . S
C2233 H2228 0.950 . S
C2233 C2235 1.327 . S
C2233 C2239 1.429 . S
C2234 C2226 1.574 . S
C2234 H2229 0.949 . S
C2234 C2240 1.368 . S
C2235 C2219 1.349 . S
C2235 H2227 0.950 . S
C2235 C2233 1.327 . S
C2236 C2224 1.349 . S
C2236 H2230 0.950 . S
C2236 C2237 1.327 . S
C2237 H2231 0.950 . S
C2237 C2236 1.327 . S
C2237 C2241 1.429 . S
C2238 C2221 1.574 . S
C2238 H2232 0.949 . S
C2238 C2242 1.368 . S
C2239 C2220 1.429 . S
C2239 C2233 1.429 . S
C2239 C2240 1.523 . S
C2240 C2221 1.368 . S
C2240 C2234 1.368 . S
C2240 C2239 1.523 . S
C2241 C2225 1.429 . S
C2241 C2237 1.429 . S
C2241 C2242 1.523 . S
C2242 C2226 1.368 . S
C2242 C2238 1.368 . S
C2242 C2241 1.523 . S
H2243 C2218 0.950 . S
H2244 C2220 0.950 . S
H2245 C2221 0.949 . S
H2246 C2223 0.950 . S
H2247 C2225 0.950 . S
C2248 C2249 1.349 . S
C2248 C2250 1.327 . S
C2248 H2273 0.950 . S
C2249 C2248 1.349 . S
C2249 C2265 1.349 . S
C2250 C2248 1.327 . S
C2250 C2269 1.429 . S
C2250 H2274 0.950 . S
C2251 C2268 1.574 . S
C2251 C2270 1.368 . S
C2251 H2275 0.949 . S
H2252 C2256 0.949 . S
C2253 C2254 1.349 . S
C2253 C2255 1.327 . S
C2253 H2276 0.950 . S
C2254 C2253 1.349 . S
C2254 C2266 1.349 . S
C2255 C2253 1.327 . S
C2255 C2271 1.429 . S
C2255 H2277 0.950 . S
C2256 H2252 0.949 . S
C2256 C2264 1.574 . S
C2256 C2272 1.368 . S
H2257 C2265 0.950 . S
H2258 C2263 0.950 . S
H2259 C2264 0.949 . S
H2260 C2266 0.950 . S
H2261 C2267 0.950 . S
H2262 C2268 0.949 . S
C2263 H2258 0.950 . S
C2263 C2265 1.327 . S
C2263 C2269 1.429 . S
C2264 C2256 1.574 . S
C2264 H2259 0.949 . S
C2264 C2270 1.368 . S
C2265 C2249 1.349 . S
C2265 H2257 0.950 . S
C2265 C2263 1.327 . S
C2266 C2254 1.349 . S
C2266 H2260 0.950 . S
C2266 C2267 1.327 . S
C2267 H2261 0.950 . S
C2267 C2266 1.327 . S
C2267 C2271 1.429 . S
C2268 C2251 1.574 . S
C2268 H2262 0.949 . S
C2268 C2272 1.368 . S
C2269 C2250 1.429 . S
C2269 C2263 1.429 . S
C2269 C2270 1.523 . S
C2270 C2251 1.368 . S
C2270 C2264 1.368 . S
C2270 C2269 1.523 . S
C2271 C2255 1.429 . S
C2271 C2267 1.429 . S
C2271 C2272 1.523 . S
C2272 C2256 1.368 . S
C2272 C2268 1.368 . S
C2272 C2271 1.523 . S
H2273 C2248 0.950 . S
H2274 C2250 0.950 . S
H2275 C2251 0.949 . S
H2276 C2253 0.950 . S
H2277 C2255 0.950 . S
C2278 C2279 1.349 . S
C2278 C2280 1.327 . S
C2278 H2303 0.950 . S
C2279 C2278 1.349 . S
C2279 C2295 1.349 . S
C2280 C2278 1.327 . S
C2280 C2299 1.429 . S
C2280 H2304 0.950 . S
C2281 C2298 1.574 . S
C2281 C2300 1.368 . S
C2281 H2305 0.949 . S
H2282 C2286 0.949 . S
C2283 C2284 1.349 . S
C2283 C2285 1.327 . S
C2283 H2306 0.950 . S
C2284 C2283 1.349 . S
C2284 C2296 1.349 . S
C2285 C2283 1.327 . S
C2285 C2301 1.429 . S
C2285 H2307 0.950 . S
C2286 H2282 0.949 . S
C2286 C2294 1.574 . S
C2286 C2302 1.368 . S
H2287 C2295 0.950 . S
H2288 C2293 0.950 . S
H2289 C2294 0.949 . S
H2290 C2296 0.950 . S
H2291 C2297 0.950 . S
H2292 C2298 0.949 . S
C2293 H2288 0.950 . S
C2293 C2295 1.327 . S
C2293 C2299 1.429 . S
C2294 C2286 1.574 . S
C2294 H2289 0.949 . S
C2294 C2300 1.368 . S
C2295 C2279 1.349 . S
C2295 H2287 0.950 . S
C2295 C2293 1.327 . S
C2296 C2284 1.349 . S
C2296 H2290 0.950 . S
C2296 C2297 1.327 . S
C2297 H2291 0.950 . S
C2297 C2296 1.327 . S
C2297 C2301 1.429 . S
C2298 C2281 1.574 . S
C2298 H2292 0.949 . S
C2298 C2302 1.368 . S
C2299 C2280 1.429 . S
C2299 C2293 1.429 . S
C2299 C2300 1.523 . S
C2300 C2281 1.368 . S
C2300 C2294 1.368 . S
C2300 C2299 1.523 . S
C2301 C2285 1.429 . S
C2301 C2297 1.429 . S
C2301 C2302 1.523 . S
C2302 C2286 1.368 . S
C2302 C2298 1.368 . S
C2302 C2301 1.523 . S
H2303 C2278 0.950 . S
H2304 C2280 0.950 . S
H2305 C2281 0.949 . S
H2306 C2283 0.950 . S
H2307 C2285 0.950 . S
C2308 C2309 1.349 . S
C2308 C2310 1.327 . S
C2308 H2333 0.950 . S
C2309 C2308 1.349 . S
C2309 C2325 1.349 . S
C2310 C2308 1.327 . S
C2310 C2329 1.429 . S
C2310 H2334 0.950 . S
C2311 C2328 1.574 . S
C2311 C2330 1.368 . S
C2311 H2335 0.949 . S
H2312 C2316 0.949 . S
C2313 C2314 1.349 . S
C2313 C2315 1.327 . S
C2313 H2336 0.950 . S
C2314 C2313 1.349 . S
C2314 C2326 1.349 . S
C2315 C2313 1.327 . S
C2315 C2331 1.429 . S
C2315 H2337 0.950 . S
C2316 H2312 0.949 . S
C2316 C2324 1.574 . S
C2316 C2332 1.368 . S
H2317 C2325 0.950 . S
H2318 C2323 0.950 . S
H2319 C2324 0.949 . S
H2320 C2326 0.950 . S
H2321 C2327 0.950 . S
H2322 C2328 0.949 . S
C2323 H2318 0.950 . S
C2323 C2325 1.327 . S
C2323 C2329 1.429 . S
C2324 C2316 1.574 . S
C2324 H2319 0.949 . S
C2324 C2330 1.368 . S
C2325 C2309 1.349 . S
C2325 H2317 0.950 . S
C2325 C2323 1.327 . S
C2326 C2314 1.349 . S
C2326 H2320 0.950 . S
C2326 C2327 1.327 . S
C2327 H2321 0.950 . S
C2327 C2326 1.327 . S
C2327 C2331 1.429 . S
C2328 C2311 1.574 . S
C2328 H2322 0.949 . S
C2328 C2332 1.368 . S
C2329 C2310 1.429 . S
C2329 C2323 1.429 . S
C2329 C2330 1.523 . S
C2330 C2311 1.368 . S
C2330 C2324 1.368 . S
C2330 C2329 1.523 . S
C2331 C2315 1.429 . S
C2331 C2327 1.429 . S
C2331 C2332 1.523 . S
C2332 C2316 1.368 . S
C2332 C2328 1.368 . S
C2332 C2331 1.523 . S
H2333 C2308 0.950 . S
H2334 C2310 0.950 . S
H2335 C2311 0.949 . S
H2336 C2313 0.950 . S
H2337 C2315 0.950 . S
C2338 C2339 1.349 . S
C2338 C2340 1.327 . S
C2338 H2363 0.950 . S
C2339 C2338 1.349 . S
C2339 C2355 1.349 . S
C2340 C2338 1.327 . S
C2340 C2359 1.429 . S
C2340 H2364 0.950 . S
C2341 C2358 1.574 . S
C2341 C2360 1.368 . S
C2341 H2365 0.949 . S
H2342 C2346 0.949 . S
C2343 C2344 1.349 . S
C2343 C2345 1.327 . S
C2343 H2366 0.950 . S
C2344 C2343 1.349 . S
C2344 C2356 1.349 . S
C2345 C2343 1.327 . S
C2345 C2361 1.429 . S
C2345 H2367 0.950 . S
C2346 H2342 0.949 . S
C2346 C2354 1.574 . S
C2346 C2362 1.368 . S
H2347 C2355 0.950 . S
H2348 C2353 0.950 . S
H2349 C2354 0.949 . S
H2350 C2356 0.950 . S
H2351 C2357 0.950 . S
H2352 C2358 0.949 . S
C2353 H2348 0.950 . S
C2353 C2355 1.327 . S
C2353 C2359 1.429 . S
C2354 C2346 1.574 . S
C2354 H2349 0.949 . S
C2354 C2360 1.368 . S
C2355 C2339 1.349 . S
C2355 H2347 0.950 . S
C2355 C2353 1.327 . S
C2356 C2344 1.349 . S
C2356 H2350 0.950 . S
C2356 C2357 1.327 . S
C2357 H2351 0.950 . S
C2357 C2356 1.327 . S
C2357 C2361 1.429 . S
C2358 C2341 1.574 . S
C2358 H2352 0.949 . S
C2358 C2362 1.368 . S
C2359 C2340 1.429 . S
C2359 C2353 1.429 . S
C2359 C2360 1.523 . S
C2360 C2341 1.368 . S
C2360 C2354 1.368 . S
C2360 C2359 1.523 . S
C2361 C2345 1.429 . S
C2361 C2357 1.429 . S
C2361 C2362 1.523 . S
C2362 C2346 1.368 . S
C2362 C2358 1.368 . S
C2362 C2361 1.523 . S
H2363 C2338 0.950 . S
H2364 C2340 0.950 . S
H2365 C2341 0.949 . S
H2366 C2343 0.950 . S
H2367 C2345 0.950 . S
C449 C181 1.396 . S
C454 C0 1.397 . S
C479 C406 1.395 . S
C484 C27 1.396 . S
C509 C196 1.395 . S
C514 C29 1.396 . S
C539 C435 1.396 . S
C544 C55 1.396 . S
C569 C113 1.396 . S
C574 C68 1.397 . S
C599 C70 1.397 . S
C604 C362 1.395 . S
C629 C84 1.397 . S
C634 C140 1.395 . S
C659 C391 1.396 . S
C664 C99 1.396 . S
C689 C69 1.395 . S
C694 C112 1.396 . S
C719 C294 1.396 . S
C724 C126 1.396 . S
C749 C85 1.395 . S
C754 C141 1.397 . S
C779 C322 1.396 . S
C784 C166 1.396 . S
C809 C180 1.396 . S
C814 C1 1.395 . S
C839 C183 1.397 . S
C844 C251 1.395 . S
C869 C28 1.396 . S
C874 C197 1.397 . S
C899 C211 1.397 . S
C904 C266 1.396 . S
C929 C392 1.395 . S
C934 C224 1.397 . S
C959 C182 1.395 . S
C964 C250 1.397 . S
C989 C433 1.396 . S
C994 C252 1.397 . S
C1019 C267 1.396 . S
C1024 C210 1.395 . S
C1049 C280 1.397 . S
C1054 C337 1.396 . S
C1079 C295 1.396 . S
C1084 C127 1.396 . S
C1109 C377 1.396 . S
C1114 C320 1.397 . S
C1139 C167 1.396 . S
C1144 C323 1.396 . S
C1169 C281 1.395 . S
C1174 C336 1.396 . S
C1199 C363 1.397 . S
C1204 C71 1.395 . S
C1229 C376 1.396 . S
C1234 C321 1.395 . S
C1259 C390 1.396 . S
C1264 C98 1.396 . S
C1289 C225 1.395 . S
C1294 C393 1.397 . S
C1319 C26 1.396 . S
C1324 C407 1.397 . S
C1349 C253 1.395 . S
C1354 C432 1.396 . S
C1379 C434 1.396 . S
C1384 C54 1.396 . S
C1409 C13 2.000 . S
C1414 C125 2.004 . S
C1439 C14 1.993 . S
C1444 C350 1.990 . S
C1469 C152 1.990 . S
C1474 C40 1.993 . S
C1499 C42 1.993 . S
C1504 C379 1.993 . S
C1529 C57 2.000 . S
C1534 C169 2.004 . S
C1559 C418 1.990 . S
C1564 C83 1.990 . S
C1589 C208 1.990 . S
C1594 C97 1.990 . S
C1619 C110 1.993 . S
C1624 C447 1.993 . S
C1649 C139 1.993 . S
C1654 C239 1.990 . S
C1679 C155 1.993 . S
C1684 C278 1.993 . S
C1709 C194 1.990 . S
C1714 C306 1.993 . S
C1739 C334 1.993 . S
C1744 C222 1.990 . S
C1769 C237 1.990 . S
C1774 C349 1.993 . S
C1799 C265 2.000 . S
C1804 C365 2.004 . S
C1829 C293 1.990 . S
C1834 C404 1.990 . S
C1859 C421 2.004 . S
C1864 C309 2.000 . S
C1889 C12 1.947 . S
C1894 C111 1.945 . S
C1919 C15 1.945 . S
C1924 C56 1.947 . S
C1949 C82 1.947 . S
C1954 C41 1.945 . S
C1979 C96 1.947 . S
C1984 C43 1.945 . S
C2009 C223 1.947 . S
C2014 C124 1.945 . S
C2039 C168 1.945 . S
C2044 C138 1.945 . S
C2069 C195 1.947 . S
C2074 C153 1.947 . S
C2099 C209 1.947 . S
C2104 C154 1.945 . S
C2129 C236 1.947 . S
C2134 C335 1.945 . S
C2159 C292 1.947 . S
C2164 C238 1.947 . S
C2189 C307 1.945 . S
C2194 C264 1.947 . S
C2219 C308 1.947 . S
C2224 C279 1.945 . S
C2249 C446 1.945 . S
C2254 C348 1.945 . S
C2279 C351 1.947 . S
C2284 C405 1.947 . S
C2309 C364 1.945 . S
C2314 C419 1.947 . S
C2339 C420 1.945 . S
C2344 C378 1.945 . S
