# Generated by pormake.
# Topology ukf, (4)-cn, num edge types: 1
# Building blocks:
#     Node 0, Type 0, BuildingBlock: UXUYUI_clean_sbu_0, # of connection points: 4
#     Node 1, Type 0, BuildingBlock: UXUYUI_clean_sbu_0, # of connection points: 4
#     Node 2, Type 0, BuildingBlock: UXUYUI_clean_sbu_0, # of connection points: 4
#     Node 3, Type 0, BuildingBlock: UXUYUI_clean_sbu_0, # of connection points: 4
#     Node 4, Type 0, BuildingBlock: UXUYUI_clean_sbu_0, # of connection points: 4
#     Node 5, Type 0, BuildingBlock: UXUYUI_clean_sbu_0, # of connection points: 4
#     Node 6, Type 0, BuildingBlock: UXUYUI_clean_sbu_0, # of connection points: 4
#     Node 7, Type 0, BuildingBlock: UXUYUI_clean_sbu_0, # of connection points: 4
#     Node 8, Type 0, BuildingBlock: UXUYUI_clean_sbu_0, # of connection points: 4
#     Node 9, Type 0, BuildingBlock: UXUYUI_clean_sbu_0, # of connection points: 4
#     Node 10, Type 0, BuildingBlock: UXUYUI_clean_sbu_0, # of connection points: 4
#     Node 11, Type 0, BuildingBlock: UXUYUI_clean_sbu_0, # of connection points: 4
#     Edge 12, Type (0, 0), BuildingBlock: EZIPEK_clean_linker_0, # of connection points: 2
#     Edge 13, Type (0, 0), BuildingBlock: EZIPEK_clean_linker_0, # of connection points: 2
#     Edge 14, Type (0, 0), BuildingBlock: EZIPEK_clean_linker_0, # of connection points: 2
#     Edge 15, Type (0, 0), BuildingBlock: EZIPEK_clean_linker_0, # of connection points: 2
#     Edge 16, Type (0, 0), BuildingBlock: EZIPEK_clean_linker_0, # of connection points: 2
#     Edge 17, Type (0, 0), BuildingBlock: EZIPEK_clean_linker_0, # of connection points: 2
#     Edge 18, Type (0, 0), BuildingBlock: EZIPEK_clean_linker_0, # of connection points: 2
#     Edge 19, Type (0, 0), BuildingBlock: EZIPEK_clean_linker_0, # of connection points: 2
#     Edge 20, Type (0, 0), BuildingBlock: EZIPEK_clean_linker_0, # of connection points: 2
#     Edge 21, Type (0, 0), BuildingBlock: EZIPEK_clean_linker_0, # of connection points: 2
#     Edge 22, Type (0, 0), BuildingBlock: EZIPEK_clean_linker_0, # of connection points: 2
#     Edge 23, Type (0, 0), BuildingBlock: EZIPEK_clean_linker_0, # of connection points: 2
#     Edge 24, Type (0, 0), BuildingBlock: EZIPEK_clean_linker_0, # of connection points: 2
#     Edge 25, Type (0, 0), BuildingBlock: EZIPEK_clean_linker_0, # of connection points: 2
#     Edge 26, Type (0, 0), BuildingBlock: EZIPEK_clean_linker_0, # of connection points: 2
#     Edge 27, Type (0, 0), BuildingBlock: EZIPEK_clean_linker_0, # of connection points: 2
#     Edge 28, Type (0, 0), BuildingBlock: EZIPEK_clean_linker_0, # of connection points: 2
#     Edge 29, Type (0, 0), BuildingBlock: EZIPEK_clean_linker_0, # of connection points: 2
#     Edge 30, Type (0, 0), BuildingBlock: EZIPEK_clean_linker_0, # of connection points: 2
#     Edge 31, Type (0, 0), BuildingBlock: EZIPEK_clean_linker_0, # of connection points: 2
#     Edge 32, Type (0, 0), BuildingBlock: EZIPEK_clean_linker_0, # of connection points: 2
#     Edge 33, Type (0, 0), BuildingBlock: EZIPEK_clean_linker_0, # of connection points: 2
#     Edge 34, Type (0, 0), BuildingBlock: EZIPEK_clean_linker_0, # of connection points: 2
#     Edge 35, Type (0, 0), BuildingBlock: EZIPEK_clean_linker_0, # of connection points: 2
# Relax obj value: 0.271
# Max RMSD: 0.213
# Mean RMSD: 0.213
data_MOF--net-ukf--node1-UXUYUI_clean_sbu_0--edge1-EZIPEK_clean_linker_0
_symmetry_space_group_name_H-M    P1
_symmetry_Int_Tables_number       1
_symmetry_cell_setting            triclinic
loop_
_symmetry_equiv_pos_as_xyz
'x, y, z'
_cell_length_a     38.023511
_cell_length_b     38.014126
_cell_length_c     75.987254
_cell_angle_alpha  89.990867
_cell_angle_beta   89.998923
_cell_angle_gamma 119.95205
loop_
_atom_site_label
_atom_site_type_symbol
_atom_site_fract_x
_atom_site_fract_y
_atom_site_fract_z
_atom_type_partial_charge
Li0 Li 0.39994 0.23036 0.06923 0.0
Li1 Li 0.36781 0.20166 0.04144 0.0
Li2 Li 0.44231 0.23742 0.04516 0.0
Li3 Li 0.40954 0.27838 0.04585 0.0
C4 C 0.39359 0.15717 0.06815 0.0
N5 N 0.37787 0.0986 0.09333 0.0
C6 C 0.35565 0.12175 0.06879 0.0
C7 C 0.42356 0.16265 0.08029 0.0
C8 C 0.34832 0.09251 0.08161 0.0
C9 C 0.41499 0.13277 0.09294 0.0
C10 C 0.32863 0.22669 0.07022 0.0
C11 C 0.30516 0.24397 0.09656 0.0
N12 N 0.27381 0.20512 0.0976 0.0
C13 C 0.29617 0.18695 0.07155 0.0
C14 C 0.33312 0.25549 0.08279 0.0
C15 C 0.26875 0.17666 0.08548 0.0
C16 C 0.42284 0.25381 0.10451 0.0
N17 N 0.39436 0.22343 0.09438 0.0
C18 C 0.36196 0.18371 0.11999 0.0
C19 C 0.36377 0.18913 0.10178 0.0
C20 C 0.39163 0.21412 0.13062 0.0
C21 C 0.42206 0.24976 0.12279 0.0
H22 H 0.44648 0.28105 0.09839 0.0
H23 H 0.3411 0.16559 0.09358 0.0
C24 C 0.34017 0.13093 0.02327 0.0
N25 N 0.32674 0.1562 0.02876 0.0
C26 C 0.31377 0.09412 0.01521 0.0
C27 C 0.26029 0.11072 0.01753 0.0
C28 C 0.28785 0.14736 0.02576 0.0
C29 C 0.27318 0.08336 0.01251 0.0
H30 H 0.37135 0.13896 0.02565 0.0
H31 H 0.27805 0.16823 0.03005 0.0
C32 C 0.49149 0.30046 0.06297 0.0
N33 N 0.57535 0.34054 0.06323 0.0
C34 C 0.51368 0.33423 0.05215 0.0
C35 C 0.51198 0.2873 0.07404 0.0
C36 C 0.55605 0.35405 0.05245 0.0
C37 C 0.55438 0.30788 0.07394 0.0
C38 C 0.39367 0.24804 0.01091 0.0
C39 C 0.40929 0.24585 0.99456 0.0
C40 C 0.35971 0.25308 0.01171 0.0
C41 C 0.39074 0.24896 0.97923 0.0
C42 C 0.34203 0.25605 0.99608 0.0
N43 N 0.35778 0.25395 0.9803 0.0
C44 C 0.50029 0.21127 0.0422 0.0
C45 C 0.50885 0.26397 0.02281 0.0
C46 C 0.53302 0.21017 0.03447 0.0
N47 N 0.48894 0.23786 0.03624 0.0
C48 C 0.54167 0.26385 0.01469 0.0
C49 C 0.55368 0.23645 0.02047 0.0
H50 H 0.48347 0.19037 0.05265 0.0
H51 H 0.49872 0.28439 0.01825 0.0
C52 C 0.42208 0.35523 0.05491 0.0
N53 N 0.42108 0.33267 0.04082 0.0
C54 C 0.43938 0.39731 0.05342 0.0
C55 C 0.45365 0.39233 0.02282 0.0
C56 C 0.43596 0.35026 0.02488 0.0
C57 C 0.45625 0.41629 0.03734 0.0
H58 H 0.4118 0.34092 0.06759 0.0
H59 H 0.43661 0.3322 0.01405 0.0
O60 O 0.40134 0.18619 0.0557 0.0
O61 O 0.35603 0.23717 0.05678 0.0
O62 O 0.44995 0.27992 0.0625 0.0
O63 O 0.41129 0.24458 0.026 0.0
H64 H 0.33185 0.11707 0.05969 0.0
H65 H 0.45293 0.18994 0.08012 0.0
H66 H 0.31905 0.06507 0.0823 0.0
H67 H 0.43781 0.13682 0.1025 0.0
H68 H 0.30844 0.26588 0.10644 0.0
H69 H 0.29259 0.16407 0.06215 0.0
H70 H 0.35816 0.28628 0.08205 0.0
H71 H 0.24364 0.14595 0.08672 0.0
H72 H 0.33802 0.15591 0.1257 0.0
H73 H 0.44526 0.27383 0.13073 0.0
H74 H 0.32477 0.07389 0.01134 0.0
H75 H 0.2292 0.10342 0.01541 0.0
H76 H 0.49846 0.34478 0.04343 0.0
H77 H 0.49533 0.26134 0.08254 0.0
H78 H 0.57357 0.38008 0.04407 0.0
H79 H 0.57061 0.29787 0.08237 0.0
H80 H 0.43546 0.24177 0.99375 0.0
H81 H 0.34714 0.25475 0.02424 0.0
H82 H 0.40252 0.24737 0.96648 0.0
H83 H 0.31577 0.26 0.9965 0.0
H84 H 0.54167 0.18861 0.03911 0.0
H85 H 0.55709 0.28436 0.00385 0.0
H86 H 0.4414 0.41511 0.06491 0.0
H87 H 0.46687 0.40625 0.0103 0.0
Li88 Li 0.1414 0.40978 0.37801 0.0
Li89 Li 0.21311 0.43813 0.37565 0.0
Li90 Li 0.17281 0.3658 0.37288 0.0
Li91 Li 0.1791 0.40032 0.40103 0.0
C92 C 0.148 0.38972 0.34304 0.0
N93 N 0.09731 0.35307 0.31463 0.0
C94 C 0.15883 0.40737 0.32634 0.0
C95 C 0.1114 0.35335 0.34528 0.0
C96 C 0.13278 0.38841 0.31215 0.0
C97 C 0.08621 0.33532 0.33075 0.0
C98 C 0.18718 0.48848 0.38971 0.0
C99 C 0.19341 0.55163 0.39961 0.0
N100 N 0.19479 0.56327 0.38258 0.0
C101 C 0.18845 0.501 0.3723 0.0
C102 C 0.1896 0.51394 0.40348 0.0
C103 C 0.19237 0.53893 0.36897 0.0
C104 C 0.08168 0.42763 0.38888 0.0
N105 N 0.09915 0.42295 0.3741 0.0
C106 C 0.06908 0.45345 0.3566 0.0
C107 C 0.09294 0.43504 0.35808 0.0
C108 C 0.05167 0.4595 0.37173 0.0
C109 C 0.05741 0.44563 0.38797 0.0
H110 H 0.08865 0.41968 0.40155 0.0
H111 H 0.1084 0.4328 0.3466 0.0
C112 C 0.27081 0.4801 0.34969 0.0
N113 N 0.26102 0.48281 0.36664 0.0
C114 C 0.30447 0.51266 0.34186 0.0
C115 C 0.31794 0.5497 0.36928 0.0
C116 C 0.28381 0.51651 0.37654 0.0
C117 C 0.32813 0.54795 0.3517 0.0
H118 H 0.25213 0.45278 0.34222 0.0
H119 H 0.2752 0.51775 0.38999 0.0
C120 C 0.11125 0.33239 0.40371 0.0
N121 N 0.08049 0.28493 0.43349 0.0
C122 C 0.12682 0.30783 0.40931 0.0
C123 C 0.07984 0.33257 0.41317 0.0
C124 C 0.11091 0.28411 0.42442 0.0
C125 C 0.06475 0.30842 0.42822 0.0
C126 C 0.26226 0.41817 0.39053 0.0
C127 C 0.28872 0.41372 0.37919 0.0
C128 C 0.27802 0.44608 0.40436 0.0
C129 C 0.33057 0.43746 0.38183 0.0
C130 C 0.32004 0.46916 0.40659 0.0
N131 N 0.34523 0.46446 0.39535 0.0
C132 C 0.20407 0.33119 0.35004 0.0
C133 C 0.14569 0.2814 0.36508 0.0
C134 C 0.21101 0.30132 0.34291 0.0
N135 N 0.17259 0.32093 0.36129 0.0
C136 C 0.15129 0.25043 0.35809 0.0
C137 C 0.18495 0.26051 0.34725 0.0
H138 H 0.22458 0.36282 0.34705 0.0
H139 H 0.12064 0.27395 0.37391 0.0
C140 C 0.16452 0.41229 0.4363 0.0
N141 N 0.18194 0.39611 0.4259 0.0
C142 C 0.16673 0.41052 0.45459 0.0
C143 C 0.20443 0.37515 0.45108 0.0
C144 C 0.20159 0.37769 0.43286 0.0
C145 C 0.18702 0.3919 0.46208 0.0
H146 H 0.14908 0.4267 0.43034 0.0
H147 H 0.21513 0.3651 0.42424 0.0
O148 O 0.17342 0.40818 0.35699 0.0
O149 O 0.1838 0.45165 0.39341 0.0
O150 O 0.12736 0.35678 0.38927 0.0
O151 O 0.2212 0.39616 0.38786 0.0
H152 H 0.18703 0.43555 0.32439 0.0
H153 H 0.10241 0.33905 0.35803 0.0
H154 H 0.14076 0.40179 0.29916 0.0
H155 H 0.05781 0.30718 0.33229 0.0
H156 H 0.19534 0.57165 0.41015 0.0
H157 H 0.18656 0.48178 0.36143 0.0
H158 H 0.18862 0.50469 0.41703 0.0
H159 H 0.19347 0.54901 0.35556 0.0
H160 H 0.06558 0.46435 0.34391 0.0
H161 H 0.04485 0.45045 0.39991 0.0
H162 H 0.31176 0.51059 0.32826 0.0
H163 H 0.33579 0.57666 0.37713 0.0
H164 H 0.15161 0.30785 0.40231 0.0
H165 H 0.06726 0.35117 0.40898 0.0
H166 H 0.12295 0.26528 0.429 0.0
H167 H 0.04055 0.30839 0.43571 0.0
H168 H 0.27718 0.39233 0.36843 0.0
H169 H 0.25809 0.45053 0.41308 0.0
H170 H 0.35139 0.43445 0.3731 0.0
H171 H 0.33263 0.49105 0.41717 0.0
H172 H 0.237 0.31002 0.33444 0.0
H173 H 0.13041 0.21911 0.36154 0.0
H174 H 0.15305 0.4237 0.46282 0.0
H175 H 0.22031 0.36066 0.45656 0.0
Li176 Li 0.77348 0.20624 0.70865 0.0
Li177 Li 0.73091 0.13366 0.71038 0.0
Li178 Li 0.77849 0.17262 0.73498 0.0
Li179 Li 0.80523 0.16537 0.7057 0.0
C180 C 0.70648 0.18791 0.73267 0.0
N181 N 0.65566 0.21372 0.74618 0.0
C182 C 0.66929 0.17652 0.72455 0.0
C183 C 0.71749 0.21195 0.74783 0.0
C184 C 0.64412 0.19 0.73153 0.0
C185 C 0.69148 0.22483 0.75441 0.0
C186 C 0.74198 0.16502 0.67573 0.0
C187 C 0.72615 0.15261 0.64483 0.0
N188 N 0.69666 0.1626 0.64686 0.0
C189 C 0.71161 0.17526 0.67749 0.0
C190 C 0.74946 0.15374 0.65927 0.0
C191 C 0.68901 0.17384 0.66275 0.0
C192 C 0.79433 0.26608 0.68323 0.0
N193 N 0.77663 0.25441 0.69935 0.0
C194 C 0.76273 0.30911 0.69984 0.0
C195 C 0.76158 0.27554 0.70786 0.0
C196 C 0.77967 0.32081 0.68301 0.0
C197 C 0.79608 0.29938 0.67473 0.0
H198 H 0.80665 0.24911 0.67689 0.0
H199 H 0.74855 0.26643 0.72078 0.0
C200 C 0.65282 0.07909 0.72145 0.0
N201 N 0.67623 0.09054 0.7067 0.0
C202 C 0.61071 0.05462 0.72021 0.0
C203 C 0.61757 0.05211 0.68868 0.0
C204 C 0.65969 0.07655 0.69053 0.0
C205 C 0.59269 0.04187 0.70362 0.0
H206 H 0.66672 0.09092 0.73412 0.0
H207 H 0.6788 0.08572 0.67899 0.0
C208 C 0.84474 0.25575 0.72107 0.0
N209 N 0.88457 0.33962 0.72074 0.0
C210 C 0.87323 0.27739 0.70796 0.0
C211 C 0.83679 0.27678 0.73411 0.0
C212 C 0.89297 0.31978 0.70799 0.0
C213 C 0.85718 0.31917 0.7337 0.0
C214 C 0.76453 0.08456 0.71749 0.0
C215 C 0.76579 0.05742 0.72952 0.0
C216 C 0.75774 0.07419 0.69966 0.0
C217 C 0.76029 0.02027 0.72351 0.0
C218 C 0.75237 0.03675 0.69418 0.0
N219 N 0.75375 0.01079 0.70611 0.0
C220 C 0.75245 0.15372 0.77017 0.0
C221 C 0.8228 0.20042 0.7667 0.0
C222 C 0.75616 0.15724 0.78846 0.0
N223 N 0.78545 0.17552 0.75975 0.0
C224 C 0.82787 0.20488 0.78493 0.0
C225 C 0.79418 0.18334 0.79595 0.0
H226 H 0.72314 0.13425 0.76422 0.0
H227 H 0.84848 0.21731 0.75807 0.0
C228 C 0.8672 0.1897 0.68068 0.0
N229 N 0.85021 0.16474 0.69477 0.0
C230 C 0.90468 0.19726 0.67408 0.0
C231 C 0.90515 0.15106 0.69582 0.0
C232 C 0.86799 0.14497 0.70223 0.0
C233 C 0.92446 0.17849 0.68194 0.0
H234 H 0.85257 0.20533 0.67513 0.0
H235 H 0.85424 0.12586 0.71361 0.0
O236 O 0.73131 0.17446 0.72622 0.0
O237 O 0.7647 0.16635 0.68993 0.0
O238 O 0.82384 0.21421 0.72087 0.0
O239 O 0.76993 0.12103 0.72322 0.0
H240 H 0.65968 0.1572 0.71305 0.0
H241 H 0.7459 0.2208 0.75442 0.0
H242 H 0.61532 0.18146 0.72535 0.0
H243 H 0.69976 0.24363 0.76607 0.0
H244 H 0.73153 0.14383 0.63201 0.0
H245 H 0.70581 0.18454 0.69007 0.0
H246 H 0.77298 0.14584 0.65769 0.0
H247 H 0.66544 0.18175 0.66394 0.0
H248 H 0.75014 0.32546 0.70655 0.0
H249 H 0.80957 0.30805 0.66176 0.0
H250 H 0.59225 0.04717 0.73197 0.0
H251 H 0.60443 0.04251 0.6757 0.0
H252 H 0.87973 0.26167 0.69775 0.0
H253 H 0.81474 0.26054 0.74431 0.0
H254 H 0.91487 0.33691 0.69784 0.0
H255 H 0.85108 0.33581 0.74363 0.0
H256 H 0.77101 0.06504 0.74336 0.0
H257 H 0.75665 0.09473 0.69014 0.0
H258 H 0.76122 0.99897 0.73268 0.0
H259 H 0.7471 0.02832 0.68043 0.0
H260 H 0.72965 0.14028 0.79669 0.0
H261 H 0.85757 0.22524 0.79038 0.0
H262 H 0.91871 0.21849 0.66333 0.0
H263 H 0.91962 0.13603 0.70214 0.0
Li264 Li 0.63913 0.8078 0.03907 0.0
Li265 Li 0.60446 0.78156 0.06662 0.0
Li266 Li 0.59535 0.73147 0.04416 0.0
Li267 Li 0.56438 0.7738 0.04154 0.0
C268 C 0.67336 0.78195 0.06988 0.0
N269 N 0.72303 0.80186 0.09909 0.0
C270 C 0.70432 0.82199 0.07254 0.0
C271 C 0.66777 0.75202 0.08205 0.0
C272 C 0.72914 0.83143 0.08737 0.0
C273 C 0.69312 0.76271 0.09676 0.0
C274 C 0.61262 0.856 0.06332 0.0
C275 C 0.59001 0.88378 0.08634 0.0
N276 N 0.62708 0.91802 0.08639 0.0
C277 C 0.65049 0.89154 0.06357 0.0
C278 C 0.58207 0.85214 0.07474 0.0
C279 C 0.65719 0.92253 0.07533 0.0
C280 C 0.67286 0.87736 0.01883 0.0
N281 N 0.68303 0.85162 0.02679 0.0
C282 C 0.75277 0.89457 0.01897 0.0
C283 C 0.72192 0.85898 0.02669 0.0
C284 C 0.74315 0.92238 0.01135 0.0
C285 C 0.70263 0.91319 0.01104 0.0
H286 H 0.64166 0.87063 0.01909 0.0
H287 H 0.72915 0.83785 0.03298 0.0
C288 C 0.58172 0.75748 0.10181 0.0
N289 N 0.60828 0.78937 0.09175 0.0
C290 C 0.58236 0.76093 0.12012 0.0
C291 C 0.63783 0.8299 0.11746 0.0
C292 C 0.63652 0.82491 0.09924 0.0
C293 C 0.61042 0.79767 0.12807 0.0
H294 H 0.56002 0.7293 0.09561 0.0
H295 H 0.65812 0.84951 0.09113 0.0
C296 C 0.61466 0.75939 0.00899 0.0
N297 N 0.65185 0.74943 0.9797 0.0
C298 C 0.59922 0.75842 0.9922 0.0
C299 C 0.6491 0.75544 0.0109 0.0
C300 C 0.61842 0.75329 0.97755 0.0
C301 C 0.66744 0.7504 0.99592 0.0
C302 C 0.51313 0.71239 0.06021 0.0
C303 C 0.49053 0.67785 0.04986 0.0
C304 C 0.49311 0.7269 0.07082 0.0
C305 C 0.44819 0.65866 0.05014 0.0
C306 C 0.45072 0.7069 0.07071 0.0
N307 N 0.42933 0.6735 0.06045 0.0
C308 C 0.57741 0.65378 0.0549 0.0
C309 C 0.57102 0.6585 0.02408 0.0
C310 C 0.55969 0.6116 0.05377 0.0
N311 N 0.5825 0.67633 0.04021 0.0
C312 C 0.5531 0.61634 0.02236 0.0
C313 C 0.54661 0.59248 0.0374 0.0
H314 H 0.58488 0.66829 0.06764 0.0
H315 H 0.5735 0.67651 0.01267 0.0
C316 C 0.50769 0.80099 0.03648 0.0
N317 N 0.51847 0.77322 0.03168 0.0
C318 C 0.47449 0.80073 0.02853 0.0
C319 C 0.46434 0.74342 0.01086 0.0
C320 C 0.49776 0.74484 0.01911 0.0
C321 C 0.45269 0.77174 0.01556 0.0
H322 H 0.52512 0.82362 0.04627 0.0
H323 H 0.50745 0.72349 0.01546 0.0
O324 O 0.64822 0.77232 0.05562 0.0
O325 O 0.60542 0.8254 0.05183 0.0
O326 O 0.5963 0.76472 0.0234 0.0
O327 O 0.55463 0.73231 0.05975 0.0
H328 H 0.70858 0.84572 0.06347 0.0
H329 H 0.64393 0.72094 0.08026 0.0
H330 H 0.75302 0.86235 0.08965 0.0
H331 H 0.68896 0.73989 0.10634 0.0
H332 H 0.56672 0.88105 0.09533 0.0
H333 H 0.67467 0.89504 0.05497 0.0
H334 H 0.5527 0.82482 0.07482 0.0
H335 H 0.6864 0.9501 0.07572 0.0
H336 H 0.78385 0.90083 0.0193 0.0
H337 H 0.6943 0.93398 0.00517 0.0
H338 H 0.56101 0.7354 0.12801 0.0
H339 H 0.66007 0.85853 0.12323 0.0
H340 H 0.57264 0.76157 0.99052 0.0
H341 H 0.66154 0.75617 0.02377 0.0
H342 H 0.60677 0.75242 0.96447 0.0
H343 H 0.69409 0.74727 0.9972 0.0
H344 H 0.50545 0.66627 0.0415 0.0
H345 H 0.51012 0.7534 0.07899 0.0
H346 H 0.43034 0.63207 0.04211 0.0
H347 H 0.43484 0.71794 0.07877 0.0
H348 H 0.55459 0.59389 0.06563 0.0
H349 H 0.54286 0.60232 0.00957 0.0
H350 H 0.46611 0.82305 0.0323 0.0
H351 H 0.44801 0.72083 0.00081 0.0
Li352 Li 0.8438 0.64029 0.36978 0.0
Li353 Li 0.83453 0.60843 0.3995 0.0
Li354 Li 0.87476 0.59793 0.37623 0.0
Li355 Li 0.80233 0.56833 0.3735 0.0
C356 C 0.92376 0.68075 0.38235 0.0
N357 N 0.99857 0.74209 0.37113 0.0
C358 C 0.9511 0.70881 0.39441 0.0
C359 C 0.93444 0.68384 0.36458 0.0
C360 C 0.98879 0.73963 0.38848 0.0
C361 C 0.97241 0.71508 0.35917 0.0
C362 C 0.7534 0.59501 0.38128 0.0
C363 C 0.68385 0.54676 0.38856 0.0
N364 N 0.67129 0.55919 0.37431 0.0
C365 C 0.73979 0.60745 0.36676 0.0
C366 C 0.72522 0.56457 0.39234 0.0
C367 C 0.69816 0.58894 0.36345 0.0
C368 C 0.83774 0.68252 0.34046 0.0
N369 N 0.84611 0.68567 0.3579 0.0
C370 C 0.84344 0.74715 0.35941 0.0
C371 C 0.84875 0.717 0.36747 0.0
C372 C 0.83672 0.74652 0.34102 0.0
C373 C 0.83213 0.7119 0.33189 0.0
H374 H 0.83296 0.65581 0.33338 0.0
H375 H 0.85284 0.71743 0.38158 0.0
C376 C 0.85986 0.61497 0.43466 0.0
N377 N 0.83079 0.61443 0.42406 0.0
C378 C 0.85655 0.61627 0.45293 0.0
C379 C 0.79353 0.61654 0.44896 0.0
C380 C 0.79836 0.61582 0.43077 0.0
C381 C 0.82273 0.61645 0.46021 0.0
H382 H 0.88519 0.61364 0.4289 0.0
H383 H 0.77583 0.61555 0.42201 0.0
C384 C 0.84482 0.57174 0.34253 0.0
N385 N 0.84742 0.5201 0.31763 0.0
C386 C 0.83528 0.53239 0.34721 0.0
C387 C 0.85562 0.5848 0.32516 0.0
C388 C 0.83677 0.50674 0.33445 0.0
C389 C 0.85679 0.55825 0.31277 0.0
C390 C 0.81645 0.52206 0.40059 0.0
C391 C 0.82774 0.49352 0.39584 0.0
C392 C 0.78948 0.51365 0.41457 0.0
C393 C 0.81143 0.45684 0.40502 0.0
C394 C 0.77387 0.47664 0.42343 0.0
N395 N 0.78505 0.44922 0.4185 0.0
C396 C 0.92735 0.57285 0.38878 0.0
C397 C 0.93421 0.58453 0.358 0.0
C398 C 0.95195 0.55524 0.38815 0.0
N399 N 0.91799 0.58595 0.37378 0.0
C400 C 0.95878 0.56683 0.35675 0.0
C401 C 0.96697 0.55112 0.37192 0.0
H402 H 0.91389 0.57414 0.40114 0.0
H403 H 0.92668 0.59539 0.34625 0.0
C404 C 0.74393 0.52862 0.34765 0.0
N405 N 0.75441 0.52309 0.36411 0.0
C406 C 0.71016 0.49743 0.33926 0.0
C407 C 0.69785 0.4556 0.36508 0.0
C408 C 0.73198 0.48758 0.37295 0.0
C409 C 0.68703 0.46048 0.34803 0.0
H410 H 0.76201 0.55733 0.34101 0.0
H411 H 0.74031 0.48393 0.38608 0.0
O412 O 0.88685 0.65039 0.38803 0.0
O413 O 0.79412 0.61184 0.3844 0.0
O414 O 0.84361 0.5975 0.35479 0.0
O415 O 0.83279 0.55854 0.39198 0.0
H416 H 0.94327 0.70676 0.40822 0.0
H417 H 0.91375 0.66245 0.35503 0.0
H418 H 0.01026 0.76157 0.39766 0.0
H419 H 0.98108 0.71783 0.34546 0.0
H420 H 0.66174 0.5229 0.39691 0.0
H421 H 0.76112 0.63084 0.35803 0.0
H422 H 0.73519 0.55426 0.40353 0.0
H423 H 0.68722 0.5981 0.3522 0.0
H424 H 0.84238 0.7691 0.36804 0.0
H425 H 0.82185 0.70529 0.31847 0.0
H426 H 0.87957 0.61622 0.46131 0.0
H427 H 0.76715 0.61673 0.45422 0.0
H428 H 0.82667 0.52172 0.36052 0.0
H429 H 0.86322 0.6152 0.32132 0.0
H430 H 0.82944 0.47622 0.33791 0.0
H431 H 0.86517 0.56799 0.29929 0.0
H432 H 0.84898 0.49958 0.38523 0.0
H433 H 0.78033 0.53521 0.41846 0.0
H434 H 0.81984 0.43448 0.40145 0.0
H435 H 0.75285 0.4697 0.43422 0.0
H436 H 0.95781 0.5434 0.40008 0.0
H437 H 0.97014 0.5642 0.34404 0.0
H438 H 0.70224 0.50194 0.32609 0.0
H439 H 0.68024 0.42729 0.37213 0.0
Li440 Li 0.2019 0.83794 0.70369 0.0
Li441 Li 0.22778 0.83355 0.73212 0.0
Li442 Li 0.27785 0.8708 0.70899 0.0
Li443 Li 0.23542 0.79723 0.70836 0.0
C444 C 0.22568 0.9024 0.73199 0.0
N445 N 0.20226 0.93786 0.75773 0.0
C446 C 0.18459 0.88931 0.73463 0.0
C447 C 0.25488 0.93358 0.74243 0.0
C448 C 0.17334 0.9076 0.74771 0.0
C449 C 0.24242 0.95111 0.75538 0.0
C450 C 0.15326 0.76588 0.72949 0.0
C451 C 0.12539 0.71732 0.7532 0.0
N452 N 0.09065 0.71923 0.75245 0.0
C453 C 0.11719 0.76723 0.72891 0.0
C454 C 0.15732 0.74056 0.74166 0.0
C455 C 0.08591 0.74344 0.74064 0.0
C456 C 0.1344 0.79838 0.68313 0.0
N457 N 0.15762 0.83529 0.69076 0.0
C458 C 0.10951 0.85559 0.68264 0.0
C459 C 0.14658 0.86428 0.69028 0.0
C460 C 0.08409 0.81683 0.67553 0.0
C461 C 0.09732 0.78844 0.67544 0.0
H462 H 0.14398 0.77597 0.68376 0.0
H463 H 0.16569 0.89347 0.69639 0.0
C464 C 0.25163 0.83936 0.76751 0.0
N465 N 0.21972 0.83267 0.75713 0.0
C466 C 0.24737 0.83628 0.78578 0.0
C467 C 0.17777 0.82049 0.78245 0.0
C468 C 0.18355 0.82444 0.76427 0.0
C469 C 0.20982 0.82598 0.79336 0.0
H470 H 0.28026 0.84646 0.76156 0.0
H471 H 0.15882 0.82013 0.7559 0.0
C472 C 0.2505 0.85741 0.67379 0.0
N473 N 0.2615 0.90101 0.64321 0.0
C474 C 0.25117 0.84062 0.65753 0.0
C475 C 0.25531 0.89632 0.67452 0.0
C476 C 0.25681 0.86317 0.64221 0.0
C477 C 0.26086 0.91788 0.65891 0.0
C478 C 0.29688 0.81035 0.72836 0.0
C479 C 0.33223 0.82093 0.71882 0.0
C480 C 0.28203 0.77792 0.74019 0.0
C481 C 0.35187 0.79849 0.72112 0.0
C482 C 0.3025 0.75618 0.74211 0.0
N483 N 0.33668 0.76681 0.7326 0.0
C484 C 0.35467 0.93514 0.71839 0.0
C485 C 0.35132 0.9125 0.68903 0.0
C486 C 0.39691 0.95906 0.7173 0.0
N487 N 0.33284 0.91216 0.70444 0.0
C488 C 0.39355 0.93588 0.6874 0.0
C489 C 0.41674 0.95876 0.7018 0.0
H490 H 0.33956 0.93293 0.73072 0.0
H491 H 0.33374 0.89269 0.67839 0.0
C492 C 0.20348 0.71258 0.70434 0.0
N493 N 0.23486 0.74998 0.70024 0.0
C494 C 0.20148 0.67795 0.69707 0.0
C495 C 0.26422 0.72104 0.68156 0.0
C496 C 0.26493 0.75484 0.68909 0.0
C497 C 0.23197 0.68224 0.68546 0.0
H498 H 0.17944 0.70965 0.71285 0.0
H499 H 0.28895 0.78506 0.68576 0.0
O500 O 0.23719 0.88463 0.71931 0.0
O501 O 0.18421 0.78891 0.71808 0.0
O502 O 0.24481 0.83553 0.68886 0.0
O503 O 0.27685 0.83156 0.7261 0.0
H504 H 0.16153 0.8647 0.72692 0.0
H505 H 0.2868 0.94416 0.74055 0.0
H506 H 0.14162 0.89756 0.74996 0.0
H507 H 0.26469 0.97525 0.76356 0.0
H508 H 0.12826 0.69781 0.76275 0.0
H509 H 0.11345 0.78671 0.71965 0.0
H510 H 0.18493 0.73907 0.74229 0.0
H511 H 0.05792 0.74433 0.74038 0.0
H512 H 0.10013 0.8782 0.68278 0.0
H513 H 0.07846 0.75837 0.66998 0.0
H514 H 0.27276 0.84095 0.79391 0.0
H515 H 0.14849 0.81277 0.78795 0.0
H516 H 0.24741 0.81048 0.65677 0.0
H517 H 0.25485 0.90982 0.68698 0.0
H518 H 0.25744 0.85058 0.62952 0.0
H519 H 0.26467 0.94804 0.65926 0.0
H520 H 0.3442 0.8459 0.7096 0.0
H521 H 0.25503 0.76965 0.74784 0.0
H522 H 0.37913 0.80622 0.71375 0.0
H523 H 0.29124 0.7309 0.75117 0.0
H524 H 0.41411 0.97605 0.72869 0.0
H525 H 0.40813 0.9347 0.67535 0.0
H526 H 0.1761 0.64824 0.70016 0.0
H527 H 0.28796 0.72507 0.67251 0.0
Li528 Li 0.7778 0.60198 0.59668 0.0
Li529 Li 0.79994 0.63645 0.62521 0.0
Li530 Li 0.77075 0.56254 0.62279 0.0
Li531 Li 0.72555 0.5903 0.62022 0.0
C532 C 0.85348 0.61422 0.60173 0.0
N533 N 0.91846 0.63171 0.57996 0.0
C534 C 0.88852 0.65246 0.60234 0.0
C535 C 0.85162 0.58485 0.5901 0.0
C536 C 0.92103 0.6607 0.59124 0.0
C537 C 0.88473 0.59431 0.57917 0.0
C538 C 0.76878 0.67915 0.60532 0.0
C539 C 0.74904 0.72891 0.612 0.0
N540 N 0.77816 0.75549 0.60082 0.0
C541 C 0.79818 0.70677 0.59375 0.0
C542 C 0.74368 0.69008 0.61438 0.0
C543 C 0.80258 0.74529 0.59172 0.0
C544 C 0.75695 0.57947 0.56131 0.0
N545 N 0.78696 0.60706 0.57186 0.0
C546 C 0.82901 0.63965 0.54686 0.0
C547 C 0.82226 0.63726 0.56499 0.0
C548 C 0.79873 0.61127 0.53574 0.0
C549 C 0.76217 0.58111 0.54308 0.0
H550 H 0.72896 0.55612 0.56708 0.0
H551 H 0.84536 0.65933 0.57357 0.0
C552 C 0.86293 0.66873 0.64831 0.0
N553 N 0.8442 0.68153 0.63685 0.0
C554 C 0.90071 0.69615 0.65537 0.0
C555 C 0.89853 0.75018 0.63952 0.0
C556 C 0.86062 0.72154 0.63268 0.0
C557 C 0.91941 0.73713 0.65056 0.0
H558 H 0.84945 0.63668 0.65117 0.0
H559 H 0.84549 0.73107 0.62345 0.0
C560 C 0.71214 0.50942 0.60345 0.0
N561 N 0.67862 0.42607 0.6026 0.0
C562 C 0.67866 0.48464 0.61402 0.0
C563 C 0.72834 0.4918 0.59235 0.0
C564 C 0.66219 0.44257 0.61342 0.0
C565 C 0.71103 0.44961 0.59214 0.0
C566 C 0.74854 0.60701 0.65551 0.0
C567 C 0.7312 0.58195 0.67016 0.0
C568 C 0.75563 0.64679 0.65583 0.0
C569 C 0.72085 0.59702 0.68484 0.0
C570 C 0.7449 0.66076 0.67076 0.0
N571 N 0.72784 0.63578 0.68483 0.0
C572 C 0.8036 0.51043 0.62791 0.0
C573 C 0.74478 0.49496 0.64455 0.0
C574 C 0.80557 0.47815 0.63564 0.0
N575 N 0.77342 0.51801 0.63244 0.0
C576 C 0.74556 0.4624 0.65258 0.0
C577 C 0.77632 0.45398 0.64814 0.0
H578 H 0.82636 0.52963 0.61849 0.0
H579 H 0.72136 0.50197 0.64796 0.0
C580 C 0.64657 0.55697 0.60842 0.0
N581 N 0.66955 0.5757 0.62285 0.0
C582 C 0.60436 0.53872 0.60911 0.0
C583 C 0.60996 0.56125 0.63923 0.0
C584 C 0.65219 0.57869 0.63804 0.0
C585 C 0.58559 0.54024 0.62473 0.0
H586 H 0.66102 0.55479 0.59654 0.0
H587 H 0.67073 0.59348 0.6494 0.0
O588 O 0.82125 0.60562 0.61247 0.0
O589 O 0.76355 0.64108 0.60729 0.0
O590 O 0.72946 0.55074 0.60425 0.0
O591 O 0.75894 0.59266 0.64108 0.0
H592 H 0.89061 0.67567 0.61118 0.0
H593 H 0.82472 0.55521 0.58936 0.0
H594 H 0.94828 0.69018 0.59155 0.0
H595 H 0.88356 0.57193 0.57003 0.0
H596 H 0.72997 0.73786 0.61899 0.0
H597 H 0.81769 0.69873 0.58657 0.0
H598 H 0.72023 0.66876 0.62313 0.0
H599 H 0.82542 0.76709 0.58291 0.0
H600 H 0.85749 0.66339 0.54155 0.0
H601 H 0.73816 0.5589 0.53479 0.0
H602 H 0.91607 0.68519 0.66387 0.0
H603 H 0.91226 0.78171 0.63562 0.0
H604 H 0.66596 0.49775 0.62283 0.0
H605 H 0.75411 0.5105 0.58403 0.0
H606 H 0.63649 0.42305 0.62162 0.0
H607 H 0.7234 0.43557 0.58368 0.0
H608 H 0.72571 0.55115 0.67019 0.0
H609 H 0.76927 0.66671 0.64471 0.0
H610 H 0.70728 0.57792 0.69624 0.0
H611 H 0.75015 0.69146 0.67116 0.0
H612 H 0.82972 0.47226 0.63205 0.0
H613 H 0.72265 0.44416 0.66223 0.0
H614 H 0.58644 0.52285 0.59767 0.0
H615 H 0.59634 0.56312 0.65146 0.0
Li616 Li 0.20438 0.76784 0.955 0.0
Li617 Li 0.13189 0.72716 0.95256 0.0
Li618 Li 0.17268 0.77722 0.92911 0.0
Li619 Li 0.16473 0.80065 0.95893 0.0
C620 C 0.18715 0.70547 0.92869 0.0
N621 N 0.21511 0.65907 0.91241 0.0
C622 C 0.17575 0.66666 0.93502 0.0
C623 C 0.21229 0.72037 0.9139 0.0
C624 C 0.19035 0.64377 0.92666 0.0
C625 C 0.22623 0.69653 0.90591 0.0
C626 C 0.16201 0.73237 0.98694 0.0
C627 C 0.1498 0.71173 0.01737 0.0
N628 N 0.15809 0.68154 0.0138 0.0
C629 C 0.1705 0.70124 0.98359 0.0
C630 C 0.15169 0.73779 0.00397 0.0
C631 C 0.16834 0.67584 0.99733 0.0
C632 C 0.26319 0.78587 0.98048 0.0
N633 N 0.2515 0.76867 0.96428 0.0
C634 C 0.30549 0.75371 0.96368 0.0
C635 C 0.27211 0.75308 0.95572 0.0
C636 C 0.31747 0.77057 0.9805 0.0
C637 C 0.29628 0.78706 0.98892 0.0
H638 H 0.24656 0.79849 0.98688 0.0
H639 H 0.2629 0.74025 0.94277 0.0
C640 C 0.07795 0.64986 0.9404 0.0
N641 N 0.08804 0.67262 0.95532 0.0
C642 C 0.05341 0.60771 0.94125 0.0
C643 C 0.04792 0.61325 0.97271 0.0
C644 C 0.07246 0.65543 0.97124 0.0
C645 C 0.03919 0.58901 0.95762 0.0
H646 H 0.09099 0.66428 0.92794 0.0
H647 H 0.08062 0.67408 0.98291 0.0
C648 C 0.25557 0.84163 0.94556 0.0
N649 N 0.33907 0.88299 0.9491 0.0
C650 C 0.27406 0.86986 0.95911 0.0
C651 C 0.27961 0.83475 0.9337 0.0
C652 C 0.31631 0.8904 0.9607 0.0
C653 C 0.32175 0.85587 0.93574 0.0
C654 C 0.08465 0.76329 0.94663 0.0
C655 C 0.058 0.76594 0.93476 0.0
C656 C 0.07394 0.7553 0.96439 0.0
C657 C 0.02096 0.76054 0.94087 0.0
C658 C 0.03662 0.75006 0.96997 0.0
N659 N 0.01113 0.75277 0.9582 0.0
C660 C 0.14955 0.75885 0.89361 0.0
C661 C 0.20801 0.82324 0.8984 0.0
C662 C 0.1533 0.7649 0.87542 0.0
N663 N 0.1769 0.78775 0.90462 0.0
C664 C 0.21319 0.83034 0.88031 0.0
C665 C 0.18574 0.80083 0.86865 0.0
H666 H 0.12521 0.73089 0.89899 0.0
H667 H 0.22913 0.84578 0.90748 0.0
C668 C 0.1851 0.85628 0.98642 0.0
N669 N 0.165 0.84489 0.97081 0.0
C670 C 0.19616 0.8942 0.99364 0.0
C671 C 0.16259 0.90653 0.96936 0.0
C672 C 0.1527 0.86855 0.96244 0.0
C673 C 0.1861 0.92033 0.98475 0.0
H674 H 0.19521 0.8372 0.99256 0.0
H675 H 0.13745 0.85904 0.94987 0.0
O676 O 0.17269 0.72816 0.93653 0.0
O677 O 0.16402 0.75776 0.97373 0.0
O678 O 0.21415 0.82015 0.94415 0.0
O679 O 0.12099 0.76852 0.94079 0.0
H680 H 0.15566 0.65412 0.9462 0.0
H681 H 0.22111 0.75006 0.90866 0.0
H682 H 0.18186 0.61377 0.93146 0.0
H683 H 0.24585 0.7078 0.89452 0.0
H684 H 0.14176 0.7155 0.03061 0.0
H685 H 0.1789 0.69693 0.97055 0.0
H686 H 0.14509 0.76183 0.00678 0.0
H687 H 0.17485 0.65162 0.9949 0.0
H688 H 0.32164 0.74102 0.95687 0.0
H689 H 0.30516 0.80047 0.00189 0.0
H690 H 0.04711 0.58973 0.92939 0.0
H691 H 0.03715 0.59956 0.98552 0.0
H692 H 0.25604 0.87567 0.96839 0.0
H693 H 0.26585 0.81288 0.9232 0.0
H694 H 0.33099 0.91215 0.97119 0.0
H695 H 0.34067 0.85055 0.92675 0.0
H696 H 0.0659 0.77211 0.92097 0.0
H697 H 0.0941 0.75315 0.97379 0.0
H698 H 1.00003 0.76251 0.93183 0.0
H699 H 0.02792 0.74385 0.98367 0.0
H700 H 0.13166 0.74159 0.8667 0.0
H701 H 0.23848 0.85837 0.87544 0.0
H702 H 0.21431 0.90396 0.00552 0.0
H703 H 0.15435 0.92601 0.96222 0.0
Li704 Li 0.41321 0.1376 0.29032 0.0
Li705 Li 0.43788 0.20897 0.2929 0.0
Li706 Li 0.36738 0.16529 0.29526 0.0
Li707 Li 0.40019 0.17703 0.26656 0.0
C708 C 0.39368 0.14086 0.325 0.0
N709 N 0.36 0.08723 0.35275 0.0
C710 C 0.40612 0.15397 0.34224 0.0
C711 C 0.3643 0.10044 0.32186 0.0
C712 C 0.38867 0.12641 0.3561 0.0
C713 C 0.34759 0.0738 0.33606 0.0
C714 C 0.4919 0.20773 0.27223 0.0
C715 C 0.54621 0.26752 0.25861 0.0
N716 N 0.5735 0.26375 0.26884 0.0
C717 C 0.52047 0.20429 0.28254 0.0
C718 C 0.50481 0.23945 0.2601 0.0
C719 C 0.56159 0.23299 0.28066 0.0
C720 C 0.42149 0.06941 0.28121 0.0
N721 N 0.42944 0.09784 0.29381 0.0
C722 C 0.47342 0.07971 0.30887 0.0
C723 C 0.45435 0.10294 0.30762 0.0
C724 C 0.46691 0.05122 0.29572 0.0
C725 C 0.43995 0.04548 0.28195 0.0
H726 H 0.4023 0.06664 0.27017 0.0
H727 H 0.46104 0.1265 0.3172 0.0
C728 C 0.4957 0.29341 0.29396 0.0
N729 N 0.48285 0.25675 0.30173 0.0
C730 C 0.52899 0.32814 0.30081 0.0
C731 C 0.53513 0.28647 0.32335 0.0
C732 C 0.5017 0.25263 0.31612 0.0
C733 C 0.54885 0.32459 0.31566 0.0
H734 H 0.48015 0.29558 0.28245 0.0
H735 H 0.49083 0.22296 0.32189 0.0
C736 C 0.32162 0.10101 0.2724 0.0
N737 N 0.24145 0.05601 0.26199 0.0
C738 C 0.30474 0.11822 0.26144 0.0
C739 C 0.29784 0.06073 0.27789 0.0
C740 C 0.26413 0.09504 0.25637 0.0
C741 C 0.25734 0.03852 0.27253 0.0
C742 C 0.39146 0.24618 0.29006 0.0
C743 C 0.39608 0.25056 0.30833 0.0
C744 C 0.38185 0.27166 0.28051 0.0
C745 C 0.39105 0.28044 0.31672 0.0
C746 C 0.37705 0.30117 0.28939 0.0
N747 N 0.38171 0.30492 0.30716 0.0
C748 C 0.3113 0.15616 0.32345 0.0
C749 C 0.29684 0.17181 0.29535 0.0
C750 C 0.28026 0.16096 0.33089 0.0
N751 N 0.31886 0.16118 0.30589 0.0
C752 C 0.26551 0.1768 0.30222 0.0
C753 C 0.25494 0.16972 0.32026 0.0
H754 H 0.33075 0.15087 0.33201 0.0
H755 H 0.30531 0.17914 0.28171 0.0
C756 C 0.38618 0.15014 0.23123 0.0
N757 N 0.39623 0.18243 0.24196 0.0
C758 C 0.38412 0.15409 0.21304 0.0
C759 C 0.40285 0.2244 0.21734 0.0
C760 C 0.40436 0.21905 0.23544 0.0
C761 C 0.39276 0.19166 0.20598 0.0
H762 H 0.37997 0.12143 0.23684 0.0
H763 H 0.4125 0.2442 0.24432 0.0
O764 O 0.4108 0.16757 0.31136 0.0
O765 O 0.45142 0.18067 0.27424 0.0
O766 O 0.36139 0.12317 0.27749 0.0
O767 O 0.39566 0.21679 0.2815 0.0
H768 H 0.42895 0.18517 0.34488 0.0
H769 H 0.3546 0.08973 0.30864 0.0
H770 H 0.39792 0.13616 0.36951 0.0
H771 H 0.32479 0.04243 0.33382 0.0
H772 H 0.55663 0.29238 0.24936 0.0
H773 H 0.51097 0.18004 0.29204 0.0
H774 H 0.48306 0.24264 0.25209 0.0
H775 H 0.58403 0.23089 0.28865 0.0
H776 H 0.49425 0.08497 0.3196 0.0
H777 H 0.43452 0.02383 0.27156 0.0
H778 H 0.53921 0.35734 0.29463 0.0
H779 H 0.55013 0.28304 0.3348 0.0
H780 H 0.32265 0.1493 0.25702 0.0
H781 H 0.31053 0.04662 0.28614 0.0
H782 H 0.25063 0.1081 0.24799 0.0
H783 H 0.23856 0.00735 0.27672 0.0
H784 H 0.4033 0.23106 0.31601 0.0
H785 H 0.37793 0.26852 0.26638 0.0
H786 H 0.3945 0.28413 0.33084 0.0
H787 H 0.36956 0.32106 0.28215 0.0
H788 H 0.27872 0.16007 0.34502 0.0
H789 H 0.25173 0.18856 0.29335 0.0
H790 H 0.3763 0.12833 0.20454 0.0
H791 H 0.40977 0.25377 0.21222 0.0
Li792 Li 0.22452 0.43322 0.62469 0.0
Li793 Li 0.26981 0.40543 0.62191 0.0
Li794 Li 0.22017 0.39491 0.59874 0.0
Li795 Li 0.19741 0.36004 0.62706 0.0
C796 C 0.28476 0.46569 0.59174 0.0
N797 N 0.31959 0.50189 0.56001 0.0
C798 C 0.31884 0.4647 0.58549 0.0
C799 C 0.26844 0.48515 0.58185 0.0
C800 C 0.336 0.48319 0.56942 0.0
C801 C 0.28647 0.50325 0.56585 0.0
C802 C 0.2622 0.41029 0.65636 0.0
C803 C 0.29774 0.38841 0.67577 0.0
N804 N 0.31644 0.4257 0.68346 0.0
C805 C 0.28158 0.44832 0.66452 0.0
C806 C 0.27013 0.37999 0.66208 0.0
C807 C 0.30897 0.45554 0.67817 0.0
C808 C 0.20114 0.4714 0.64983 0.0
N809 N 0.222 0.47753 0.63453 0.0
C810 C 0.24369 0.54822 0.63504 0.0
C811 C 0.24307 0.5149 0.62705 0.0
C812 C 0.22271 0.54271 0.65088 0.0
C813 C 0.20097 0.50386 0.65827 0.0
H814 H 0.18538 0.44141 0.65562 0.0
H815 H 0.26008 0.51899 0.61511 0.0
C816 C 0.34258 0.39888 0.62116 0.0
N817 N 0.32544 0.42139 0.62603 0.0
C818 C 0.38486 0.41584 0.6218 0.0
C819 C 0.39053 0.47793 0.6331 0.0
C820 C 0.34845 0.4601 0.63199 0.0
C821 C 0.40924 0.45608 0.62758 0.0
H822 H 0.32367 0.36854 0.61604 0.0
H823 H 0.33419 0.47779 0.63515 0.0
C824 C 0.14859 0.40245 0.61711 0.0
N825 N 0.09813 0.43272 0.62574 0.0
C826 C 0.12104 0.38546 0.63101 0.0
C827 C 0.15032 0.4347 0.60755 0.0
C828 C 0.09578 0.40119 0.63516 0.0
C829 C 0.12464 0.44965 0.61215 0.0
C830 C 0.21575 0.31356 0.60809 0.0
C831 C 0.18689 0.29227 0.59506 0.0
C832 C 0.22554 0.29241 0.62035 0.0
C833 C 0.16791 0.24993 0.59464 0.0
C834 C 0.20586 0.25007 0.61949 0.0
N835 N 0.17767 0.22989 0.60678 0.0
C836 C 0.23815 0.38592 0.56356 0.0
C837 C 0.17965 0.39246 0.56697 0.0
C838 C 0.23414 0.38488 0.54527 0.0
N839 N 0.21144 0.39027 0.57395 0.0
C840 C 0.17442 0.39143 0.54875 0.0
C841 C 0.20214 0.38799 0.53776 0.0
H842 H 0.26295 0.38392 0.5695 0.0
H843 H 0.15861 0.39542 0.57554 0.0
C844 C 0.15439 0.30939 0.65602 0.0
N845 N 0.15485 0.31264 0.63825 0.0
C846 C 0.1201 0.27916 0.66469 0.0
C847 C 0.08718 0.25625 0.63664 0.0
C848 C 0.12198 0.28705 0.62853 0.0
C849 C 0.08564 0.25036 0.65511 0.0
H850 H 0.17978 0.33179 0.66361 0.0
H851 H 0.12186 0.29204 0.61453 0.0
O852 O 0.26714 0.44731 0.60734 0.0
O853 O 0.2358 0.40281 0.64278 0.0
O854 O 0.17438 0.38824 0.61314 0.0
O855 O 0.23414 0.35492 0.60891 0.0
H856 H 0.33176 0.44954 0.59283 0.0
H857 H 0.24186 0.48588 0.58638 0.0
H858 H 0.36231 0.48255 0.56441 0.0
H859 H 0.27403 0.51824 0.55803 0.0
H860 H 0.30432 0.36531 0.68027 0.0
H861 H 0.27593 0.47218 0.66021 0.0
H862 H 0.25527 0.35037 0.65593 0.0
H863 H 0.32437 0.4849 0.68454 0.0
H864 H 0.26089 0.57805 0.62915 0.0
H865 H 0.18469 0.49894 0.67055 0.0
H866 H 0.3985 0.39833 0.61732 0.0
H867 H 0.40849 0.50911 0.63747 0.0
H868 H 0.11944 0.36075 0.63867 0.0
H869 H 0.17174 0.44853 0.59688 0.0
H870 H 0.07445 0.38845 0.64594 0.0
H871 H 0.12592 0.47482 0.60495 0.0
H872 H 0.17893 0.30821 0.5855 0.0
H873 H 0.24803 0.30853 0.63042 0.0
H874 H 0.14533 0.233 0.5847 0.0
H875 H 0.21299 0.23326 0.62894 0.0
H876 H 0.25594 0.38216 0.53705 0.0
H877 H 0.14939 0.3938 0.54327 0.0
H878 H 0.12094 0.28096 0.6788 0.0
H879 H 0.06106 0.23898 0.62833 0.0
Li880 Li 0.86669 0.27366 0.95595 0.0
Li881 Li 0.79597 0.22991 0.95965 0.0
Li882 Li 0.83766 0.20014 0.96104 0.0
Li883 Li 0.82574 0.2247 0.93232 0.0
C884 C 0.86685 0.25014 0.99032 0.0
N885 N 0.9243 0.26764 0.01623 0.0
C886 C 0.85659 0.24923 0.00804 0.0
C887 C 0.90644 0.26023 0.98578 0.0
C888 C 0.88603 0.25807 0.02095 0.0
C889 C 0.93501 0.26892 0.99907 0.0
C890 C 0.81959 0.30566 0.94356 0.0
C891 C 0.81596 0.36242 0.93148 0.0
N892 N 0.81392 0.37478 0.94806 0.0
C893 C 0.81761 0.31901 0.96048 0.0
C894 C 0.81883 0.32754 0.92893 0.0
C895 C 0.81472 0.354 0.96248 0.0
C896 C 0.93122 0.34918 0.94457 0.0
N897 N 0.9087 0.32911 0.95891 0.0
C898 C 0.93407 0.39156 0.97475 0.0
C899 C 0.91028 0.34929 0.97397 0.0
C900 C 0.95628 0.41305 0.95992 0.0
C901 C 0.95558 0.3915 0.94482 0.0
H902 H 0.92852 0.33251 0.93263 0.0
H903 H 0.89116 0.33291 0.98501 0.0
C904 C 0.74186 0.21822 0.9869 0.0
N905 N 0.74898 0.2274 0.96951 0.0
C906 C 0.70934 0.2185 0.99521 0.0
C907 C 0.69171 0.23702 0.96745 0.0
C908 C 0.7246 0.23633 0.95966 0.0
C909 C 0.68425 0.22839 0.98544 0.0
H910 H 0.76176 0.21111 0.99432 0.0
H911 H 0.7311 0.2435 0.94585 0.0
C912 C 0.89911 0.21718 0.93635 0.0
N913 N 0.93993 0.17932 0.9237 0.0
C914 C 0.87867 0.18193 0.92623 0.0
C915 C 0.94039 0.23334 0.93996 0.0
C916 C 0.89981 0.16318 0.91998 0.0
C917 C 0.96048 0.21371 0.93346 0.0
C918 C 0.7468 0.15581 0.95085 0.0
C919 C 0.73423 0.13345 0.96646 0.0
C920 C 0.71789 0.15467 0.93915 0.0
C921 C 0.69278 0.1104 0.97017 0.0
C922 C 0.67672 0.13124 0.94334 0.0
N923 N 0.66513 0.10981 0.95863 0.0
C924 C 0.85214 0.15244 0.98733 0.0
C925 C 0.82369 0.12086 0.96026 0.0
C926 C 0.84793 0.11616 0.99396 0.0
N927 N 0.84048 0.15439 0.97063 0.0
C928 C 0.81909 0.08411 0.96632 0.0
C929 C 0.83283 0.08101 0.98326 0.0
H930 H 0.86295 0.17831 0.99593 0.0
H931 H 0.81189 0.12203 0.94747 0.0
C932 C 0.84306 0.24856 0.89687 0.0
N933 N 0.81974 0.21666 0.90761 0.0
C934 C 0.83951 0.24379 0.87861 0.0
C935 C 0.78803 0.17347 0.88286 0.0
C936 C 0.79258 0.17958 0.90103 0.0
C937 C 0.8117 0.20588 0.8715 0.0
H938 H 0.86439 0.27766 0.90253 0.0
H939 H 0.77464 0.15471 0.9099 0.0
O940 O 0.83827 0.24195 0.9776 0.0
O941 O 0.82211 0.27129 0.94122 0.0
O942 O 0.87899 0.23597 0.94267 0.0
O943 O 0.78726 0.17966 0.9473 0.0
H944 H 0.82619 0.24178 0.0118 0.0
H945 H 0.91516 0.26152 0.9722 0.0
H946 H 0.87846 0.25738 0.03472 0.0
H947 H 0.96573 0.27672 0.99573 0.0
H948 H 0.81533 0.37966 0.92028 0.0
H949 H 0.81831 0.30255 0.97196 0.0
H950 H 0.82039 0.3176 0.91575 0.0
H951 H 0.81315 0.36465 0.9755 0.0
H952 H 0.93377 0.40748 0.98653 0.0
H953 H 0.97219 0.40739 0.93312 0.0
H954 H 0.70407 0.21163 0.00912 0.0
H955 H 0.67267 0.2447 0.95964 0.0
H956 H 0.84675 0.16893 0.92336 0.0
H957 H 0.95679 0.26081 0.94765 0.0
H958 H 0.88428 0.13577 0.9122 0.0
H959 H 0.99241 0.22585 0.93617 0.0
H960 H 0.75627 0.13435 0.97574 0.0
H961 H 0.72717 0.17222 0.92711 0.0
H962 H 0.6826 0.09313 0.98225 0.0
H963 H 0.654 0.13028 0.93447 0.0
H964 H 0.85469 0.11628 0.0077 0.0
H965 H 0.80277 0.05809 0.95785 0.0
H966 H 0.85816 0.26931 0.87012 0.0
H967 H 0.76635 0.14387 0.87769 0.0
Li968 Li 0.57068 0.79915 0.29156 0.0
Li969 Li 0.60211 0.87164 0.28879 0.0
Li970 Li 0.60878 0.83005 0.26475 0.0
Li971 Li 0.64357 0.83865 0.29393 0.0
C972 C 0.52246 0.81685 0.26714 0.0
N973 N 0.44569 0.79098 0.25386 0.0
C974 C 0.49683 0.82837 0.27534 0.0
C975 C 0.50925 0.79271 0.25202 0.0
C976 C 0.45808 0.81483 0.26847 0.0
C977 C 0.47027 0.77978 0.24556 0.0
C978 C 0.5835 0.84401 0.32396 0.0
C979 C 0.58358 0.86181 0.35441 0.0
N980 N 0.54418 0.85238 0.35284 0.0
C981 C 0.543 0.83436 0.32266 0.0
C982 C 0.60397 0.8577 0.33996 0.0
C983 C 0.52365 0.83883 0.3374 0.0
C984 C 0.53095 0.74142 0.31777 0.0
N985 N 0.52527 0.75216 0.30139 0.0
C986 C 0.45732 0.69641 0.30066 0.0
C987 C 0.48948 0.73025 0.2927 0.0
C988 C 0.46225 0.68537 0.31768 0.0
C989 C 0.49953 0.70804 0.32628 0.0
H990 H 0.55998 0.75892 0.32424 0.0
H991 H 0.48588 0.7386 0.27956 0.0
C992 C 0.57863 0.92566 0.27683 0.0
N993 N 0.5915 0.9157 0.29174 0.0
C994 C 0.5614 0.95059 0.27765 0.0
C995 C 0.57304 0.95664 0.30905 0.0
C996 C 0.59025 0.93165 0.30762 0.0
C997 C 0.55748 0.96539 0.29397 0.0
H998 H 0.57967 0.91232 0.2644 0.0
H999 H 0.60086 0.92363 0.3193 0.0
C1000 C 0.59069 0.7473 0.28039 0.0
N1001 N 0.54612 0.66365 0.28297 0.0
C1002 C 0.59932 0.72721 0.29363 0.0
C1003 C 0.55955 0.72478 0.26839 0.0
C1004 C 0.57639 0.68492 0.29474 0.0
C1005 C 0.53734 0.68254 0.26992 0.0
C1006 C 0.6847 0.91854 0.28094 0.0
C1007 C 0.71288 0.94415 0.26847 0.0
C1008 C 0.68932 0.9305 0.29858 0.0
C1009 C 0.74535 0.9814 0.27387 0.0
C1010 C 0.72218 0.96799 0.30345 0.0
N1011 N 0.74929 0.99244 0.2911 0.0
C1012 C 0.60951 0.85319 0.22954 0.0
C1013 C 0.61635 0.79489 0.23317 0.0
C1014 C 0.61025 0.84993 0.21125 0.0
N1015 N 0.61229 0.8257 0.24004 0.0
C1016 C 0.61659 0.79012 0.21496 0.0
C1017 C 0.61337 0.8178 0.20382 0.0
H1018 H 0.6063 0.87736 0.23542 0.0
H1019 H 0.61901 0.77378 0.24183 0.0
C1020 C 0.68227 0.81564 0.3192 0.0
N1021 N 0.68923 0.83881 0.30456 0.0
C1022 C 0.71177 0.80687 0.3253 0.0
C1023 C 0.75623 0.84857 0.30194 0.0
C1024 C 0.72558 0.85591 0.29608 0.0
C1025 C 0.74886 0.82261 0.31634 0.0
H1026 H 0.65286 0.80198 0.32552 0.0
H1027 H 0.73007 0.87355 0.28427 0.0
O1028 O 0.56079 0.83028 0.27348 0.0
O1029 O 0.60323 0.84005 0.30971 0.0
O1030 O 0.61177 0.78881 0.27947 0.0
O1031 O 0.65285 0.88197 0.27581 0.0
H1032 H 0.50675 0.84786 0.28678 0.0
H1033 H 0.52877 0.78388 0.24536 0.0
H1034 H 0.43792 0.82345 0.27471 0.0
H1035 H 0.45959 0.7609 0.23393 0.0
H1036 H 0.59908 0.87249 0.36688 0.0
H1037 H 0.52666 0.82333 0.31044 0.0
H1038 H 0.63534 0.86521 0.34117 0.0
H1039 H 0.49231 0.83149 0.33657 0.0
H1040 H 0.42885 0.67915 0.29369 0.0
H1041 H 0.50416 0.69998 0.3394 0.0
H1042 H 0.54969 0.95686 0.26578 0.0
H1043 H 0.57057 0.96784 0.32183 0.0
H1044 H 0.6232 0.74406 0.30305 0.0
H1045 H 0.55208 0.7398 0.25819 0.0
H1046 H 0.58259 0.66902 0.305 0.0
H1047 H 0.51296 0.66479 0.26081 0.0
H1048 H 0.70968 0.93528 0.25476 0.0
H1049 H 0.66787 0.91114 0.30843 0.0
H1050 H 0.76742 0.00152 0.26436 0.0
H1051 H 0.72614 0.97763 0.31705 0.0
H1052 H 0.60779 0.87179 0.20296 0.0
H1053 H 0.61915 0.76509 0.2096 0.0
H1054 H 0.70517 0.78679 0.33646 0.0
H1055 H 0.78459 0.86121 0.29476 0.0
C1056 C 0.19209 0.97161 0.0073 0.0
C1057 C 0.20368 0.96322 0.99077 0.0
C1058 C 0.25175 0.0359 0.9868 0.0
C1059 C 0.24504 0.04317 0.00444 0.0
N1060 N 0.21155 0.01709 0.03232 0.0
N1061 N 0.24922 0.98694 0.9658 0.0
C1062 C 0.21558 0.01089 0.0149 0.0
C1063 C 0.23448 0.9953 0.98067 0.0
N1064 N 0.15839 0.9421 0.01565 0.0
N1065 N 0.27462 0.06794 0.9759 0.0
H1066 H 0.23852 0.95763 0.96103 0.0
H1067 H 0.27471 0.00875 0.95908 0.0
H1068 H 0.28743 0.09807 0.98 0.0
H1069 H 0.2774 0.06472 0.96244 0.0
H1070 H 0.14611 0.94745 0.0269 0.0
H1071 H 0.14046 0.91313 0.01036 0.0
H1072 H 0.19404 0.99366 0.04105 0.0
H1073 H 0.22808 0.04531 0.03841 0.0
C1074 C 0.20927 0.21069 0.35276 0.0
C1075 C 0.19393 0.22871 0.34092 0.0
C1076 C 0.19804 0.18734 0.3171 0.0
C1077 C 0.22258 0.17798 0.328 0.0
N1078 N 0.21634 0.15183 0.35734 0.0
N1079 N 0.16948 0.2309 0.31184 0.0
C1080 C 0.21845 0.18115 0.34636 0.0
C1081 C 0.18659 0.2157 0.3231 0.0
N1082 N 0.21641 0.22246 0.36998 0.0
N1083 N 0.18137 0.16511 0.30222 0.0
H1084 H 0.15878 0.25004 0.31597 0.0
H1085 H 0.16785 0.22606 0.29829 0.0
H1086 H 0.18513 0.14045 0.29903 0.0
H1087 H 0.16021 0.16773 0.29446 0.0
H1088 H 0.23118 0.2126 0.37853 0.0
H1089 H 0.21043 0.24421 0.37531 0.0
H1090 H 0.20988 0.15084 0.37073 0.0
H1091 H 0.21484 0.12548 0.35239 0.0
C1092 C 0.97266 0.17625 0.65959 0.0
C1093 C 0.9662 0.18922 0.67623 0.0
C1094 C 0.03898 0.22075 0.68213 0.0
C1095 C 0.04629 0.21879 0.664 0.0
N1096 N 0.02058 0.16973 0.64066 0.0
N1097 N 0.99474 0.2251 0.70358 0.0
C1098 C 0.01314 0.18905 0.65404 0.0
C1099 C 0.99972 0.21151 0.68766 0.0
N1100 N 0.94039 0.15246 0.64899 0.0
N1101 N 0.06683 0.22405 0.69426 0.0
H1102 H 0.96674 0.22007 0.70814 0.0
H1103 H 0.01933 0.24435 0.7115 0.0
H1104 H 0.092 0.22163 0.69058 0.0
H1105 H 0.06144 0.22234 0.70778 0.0
H1106 H 0.94351 0.14619 0.63593 0.0
H1107 H 0.91034 0.14051 0.65305 0.0
H1108 H 0.9979 0.14518 0.63378 0.0
H1109 H 0.04995 0.17553 0.63798 0.0
C1110 C 0.78268 0.96662 0.98573 0.0
C1111 C 0.77534 0.96177 0.00413 0.0
C1112 C 0.82752 0.03285 0.00834 0.0
C1113 C 0.82531 0.04005 0.99019 0.0
N1114 N 0.82743 0.01004 0.96269 0.0
N1115 N 0.79294 0.99049 0.03339 0.0
C1116 C 0.81074 0.00571 0.97899 0.0
C1117 C 0.79873 0.99482 0.01561 0.0
N1118 N 0.7621 0.93436 0.97467 0.0
N1119 N 0.86079 0.05906 0.01783 0.0
H1120 H 0.77249 0.96301 0.03933 0.0
H1121 H 0.80668 0.01507 0.04201 0.0
H1122 H 0.8862 0.08271 0.0117 0.0
H1123 H 0.86554 0.05354 0.03082 0.0
H1124 H 0.76288 0.9373 0.96102 0.0
H1125 H 0.74261 0.90499 0.97922 0.0
H1126 H 0.82086 0.98569 0.9544 0.0
H1127 H 0.85157 0.03786 0.95852 0.0
C1128 C 0.80185 0.82421 0.33701 0.0
C1129 C 0.77876 0.80975 0.32127 0.0
C1130 C 0.81491 0.77322 0.31448 0.0
C1131 C 0.82822 0.77772 0.33217 0.0
N1132 N 0.86086 0.8326 0.35281 0.0
N1133 N 0.76348 0.76926 0.29476 0.0
C1134 C 0.82943 0.81057 0.34158 0.0
C1135 C 0.78568 0.7843 0.3098 0.0
N1136 N 0.79731 0.8506 0.34766 0.0
N1137 N 0.83467 0.76461 0.30172 0.0
H1138 H 0.74086 0.77553 0.29091 0.0
H1139 H 0.76542 0.7477 0.28696 0.0
H1140 H 0.86097 0.76346 0.30455 0.0
H1141 H 0.82847 0.76453 0.28835 0.0
H1142 H 0.80987 0.85832 0.36022 0.0
H1143 H 0.77927 0.8631 0.34427 0.0
H1144 H 0.86573 0.8592 0.35892 0.0
H1145 H 0.88502 0.82701 0.35398 0.0
C1146 C 0.96994 0.77688 0.67417 0.0
C1147 C 0.96196 0.7651 0.65625 0.0
C1148 C 0.03519 0.79864 0.65046 0.0
C1149 C 0.04273 0.80445 0.6688 0.0
N1150 N 0.01728 0.79645 0.6985 0.0
N1151 N 0.98665 0.76156 0.62739 0.0
C1152 C 0.01015 0.79338 0.68077 0.0
C1153 C 0.99452 0.77559 0.64432 0.0
N1154 N 0.93897 0.77233 0.68481 0.0
N1155 N 0.06705 0.8153 0.63895 0.0
H1156 H 0.95738 0.74478 0.6223 0.0
H1157 H 0.00897 0.764 0.61873 0.0
H1158 H 0.09716 0.83233 0.64311 0.0
H1159 H 0.06354 0.81553 0.62537 0.0
H1160 H 0.94333 0.78383 0.69755 0.0
H1161 H 0.90923 0.7603 0.68029 0.0
H1162 H 0.99428 0.78435 0.70789 0.0
H1163 H 0.04625 0.80865 0.7039 0.0
C1164 C 0.65951 0.26494 0.00472 0.0
C1165 C 0.6507 0.23064 0.99421 0.0
C1166 C 0.57802 0.20201 0.99968 0.0
C1167 C 0.58714 0.23443 0.01146 0.0
N1168 N 0.63635 0.29358 0.02735 0.0
N1169 N 0.60285 0.1637 0.98359 0.0
C1170 C 0.62787 0.26508 0.01458 0.0
C1171 C 0.61027 0.19834 0.99221 0.0
N1172 N 0.69789 0.29782 0.00484 0.0
N1173 N 0.53859 0.17551 0.9952 0.0
H1174 H 0.62571 0.16009 0.97777 0.0
H1175 H 0.57458 0.13735 0.98339 0.0
H1176 H 0.51408 0.17715 0.00044 0.0
H1177 H 0.53027 0.15399 0.98524 0.0
H1178 H 0.70523 0.32542 0.0107 0.0
H1179 H 0.72193 0.29876 0.99783 0.0
H1180 H 0.66565 0.31401 0.03158 0.0
H1181 H 0.6139 0.29475 0.0348 0.0
C1182 C 0.39846 0.58198 0.33911 0.0
C1183 C 0.36291 0.58349 0.34335 0.0
C1184 C 0.39443 0.65338 0.33253 0.0
C1185 C 0.42816 0.6503 0.3266 0.0
N1186 N 0.45984 0.60976 0.3216 0.0
N1187 N 0.32388 0.61762 0.34142 0.0
C1188 C 0.42956 0.61405 0.32917 0.0
C1189 C 0.35998 0.61839 0.33934 0.0
N1190 N 0.40297 0.55049 0.34503 0.0
N1191 N 0.39582 0.69002 0.33217 0.0
H1192 H 0.29777 0.59246 0.34627 0.0
H1193 H 0.31878 0.64057 0.3369 0.0
H1194 H 0.42068 0.71648 0.32738 0.0
H1195 H 0.37396 0.69501 0.33806 0.0
H1196 H 0.42996 0.54987 0.34393 0.0
H1197 H 0.38088 0.52654 0.35245 0.0
H1198 H 0.46003 0.58247 0.32143 0.0
H1199 H 0.48308 0.63255 0.31414 0.0
C1200 C 0.74965 0.34682 0.66077 0.0
C1201 C 0.77937 0.355 0.67387 0.0
C1202 C 0.80581 0.42805 0.67073 0.0
C1203 C 0.77802 0.41996 0.65676 0.0
N1204 N 0.72791 0.37277 0.63647 0.0
N1205 N 0.83969 0.40261 0.68955 0.0
C1206 C 0.75117 0.37962 0.65119 0.0
C1207 C 0.80863 0.39544 0.67835 0.0
N1208 N 0.71928 0.3078 0.65789 0.0
N1209 N 0.82851 0.46671 0.67707 0.0
H1210 H 0.84245 0.3794 0.69554 0.0
H1211 H 0.86445 0.43136 0.69184 0.0
H1212 H 0.82758 0.49149 0.67169 0.0
H1213 H 0.84592 0.47386 0.68847 0.0
H1214 H 0.6942 0.30029 0.64995 0.0
H1215 H 0.71739 0.28288 0.66453 0.0
H1216 H 0.71102 0.34437 0.63061 0.0
H1217 H 0.72799 0.3961 0.62919 0.0
C1218 C 0.3447 0.74076 0.00226 0.0
C1219 C 0.35213 0.77076 0.9894 0.0
C1220 C 0.42546 0.79948 0.99278 0.0
C1221 C 0.41803 0.77151 0.0066 0.0
N1222 N 0.37151 0.71928 0.02634 0.0
N1223 N 0.39859 0.83214 0.97403 0.0
C1224 C 0.37786 0.74313 0.01187 0.0
C1225 C 0.39228 0.80113 0.98509 0.0
N1226 N 0.30604 0.70945 0.00493 0.0
N1227 N 0.46413 0.82361 0.98669 0.0
H1228 H 0.37499 0.834 0.96793 0.0
H1229 H 0.42693 0.85764 0.9719 0.0
H1230 H 0.4893 0.82361 0.99214 0.0
H1231 H 0.47102 0.84135 0.97539 0.0
H1232 H 0.29913 0.68424 0.01269 0.0
H1233 H 0.2809 0.70701 0.9983 0.0
H1234 H 0.34312 0.70119 0.03203 0.0
H1235 H 0.39512 0.71983 0.03357 0.0
C1236 C 0.57805 0.38533 0.33545 0.0
C1237 C 0.58426 0.36074 0.32323 0.0
C1238 C 0.65775 0.40074 0.32771 0.0
C1239 C 0.65168 0.4266 0.33923 0.0
N1240 N 0.6076 0.44808 0.35217 0.0
N1241 N 0.6292 0.34794 0.30547 0.0
C1242 C 0.61222 0.42024 0.34255 0.0
C1243 C 0.62394 0.36933 0.31868 0.0
N1244 N 0.53952 0.37454 0.34067 0.0
N1245 N 0.69569 0.40553 0.32583 0.0
H1246 H 0.60502 0.3243 0.29876 0.0
H1247 H 0.65737 0.35548 0.3002 0.0
H1248 H 0.72137 0.42875 0.33195 0.0
H1249 H 0.70146 0.38495 0.31923 0.0
H1250 H 0.53309 0.38841 0.351 0.0
H1251 H 0.51368 0.34972 0.33543 0.0
H1252 H 0.58014 0.44764 0.35347 0.0
H1253 H 0.63196 0.47363 0.35784 0.0
C1254 C 0.19937 0.59332 0.65415 0.0
C1255 C 0.22451 0.57795 0.65997 0.0
C1256 C 0.25181 0.62869 0.68353 0.0
C1257 C 0.22922 0.64613 0.67678 0.0
N1258 N 0.18584 0.64924 0.6544 0.0
N1259 N 0.27854 0.58345 0.67851 0.0
C1260 C 0.20413 0.62958 0.66173 0.0
C1261 C 0.2518 0.59627 0.67423 0.0
N1262 N 0.17025 0.57261 0.64169 0.0
N1263 N 0.27245 0.64253 0.69905 0.0
H1264 H 0.27907 0.5594 0.67215 0.0
H1265 H 0.3022 0.59844 0.68745 0.0
H1266 H 0.27366 0.66671 0.70606 0.0
H1267 H 0.28581 0.62824 0.70569 0.0
H1268 H 0.14802 0.57972 0.63827 0.0
H1269 H 0.16621 0.54615 0.6357 0.0
H1270 H 0.17094 0.64132 0.64233 0.0
H1271 H 0.18813 0.6756 0.65974 0.0
C1272 C 0.36195 0.20983 0.16064 0.0
C1273 C 0.39159 0.20807 0.14992 0.0
C1274 C 0.42382 0.19887 0.17609 0.0
C1275 C 0.39214 0.19704 0.18664 0.0
N1276 N 0.32737 0.19392 0.18881 0.0
N1277 N 0.44613 0.19338 0.14688 0.0
C1278 C 0.36011 0.20059 0.17887 0.0
C1279 C 0.42127 0.20046 0.15749 0.0
N1280 N 0.3364 0.22157 0.1535 0.0
N1281 N 0.45702 0.20048 0.18388 0.0
H1282 H 0.44504 0.194 0.13317 0.0
H1283 H 0.46531 0.18332 0.1516 0.0
H1284 H 0.4601 0.19949 0.19748 0.0
H1285 H 0.48305 0.20636 0.17696 0.0
H1286 H 0.31711 0.22766 0.16098 0.0
H1287 H 0.33683 0.22855 0.1402 0.0
H1288 H 0.3011 0.19175 0.18351 0.0
H1289 H 0.32496 0.18706 0.2022 0.0
C1290 C 0.16404 0.35508 0.49092 0.0
C1291 C 0.19085 0.39076 0.48147 0.0
C1292 C 0.22301 0.42541 0.50903 0.0
C1293 C 0.19828 0.38881 0.51835 0.0
N1294 N 0.1493 0.31726 0.51826 0.0
N1295 N 0.24966 0.45786 0.48086 0.0
C1296 C 0.16986 0.35316 0.50931 0.0
C1297 C 0.22144 0.4254 0.49035 0.0
N1298 N 0.1324 0.32348 0.48236 0.0
N1299 N 0.24709 0.46046 0.51811 0.0
H1300 H 0.24914 0.45923 0.46716 0.0
H1301 H 0.27539 0.4821 0.48641 0.0
H1302 H 0.2494 0.46155 0.53179 0.0
H1303 H 0.26236 0.489 0.51225 0.0
H1304 H 0.10917 0.29845 0.48876 0.0
H1305 H 0.12759 0.3236 0.46884 0.0
H1306 H 0.13149 0.28932 0.51216 0.0
H1307 H 0.15246 0.31486 0.53178 0.0
C1308 C 0.82426 0.17907 0.8434 0.0
C1309 C 0.80724 0.2001 0.85213 0.0
C1310 C 0.78467 0.21297 0.82385 0.0
C1311 C 0.79856 0.18895 0.81532 0.0
N1312 N 0.82593 0.1439 0.81706 0.0
N1313 N 0.7657 0.23156 0.8513 0.0
C1314 C 0.81682 0.17052 0.82513 0.0
C1315 C 0.78588 0.21555 0.84253 0.0
N1316 N 0.84856 0.16837 0.85248 0.0
N1317 N 0.77151 0.23436 0.81406 0.0
H1318 H 0.76605 0.23416 0.86497 0.0
H1319 H 0.7459 0.23918 0.84519 0.0
H1320 H 0.77 0.23313 0.80035 0.0
H1321 H 0.76527 0.25589 0.81938 0.0
H1322 H 0.86545 0.157 0.84649 0.0
H1323 H 0.85454 0.17395 0.8659 0.0
H1324 H 0.83514 0.12609 0.82384 0.0
H1325 H 0.8211 0.13707 0.80367 0.0
C1326 C 0.64511 0.80785 0.15734 0.0
C1327 C 0.61107 0.80253 0.1475 0.0
C1328 C 0.57688 0.80283 0.17479 0.0
C1329 C 0.61267 0.81272 0.18439 0.0
N1330 N 0.68364 0.83235 0.18434 0.0
N1331 N 0.54786 0.80306 0.14647 0.0
C1332 C 0.64763 0.81741 0.17554 0.0
C1333 C 0.57783 0.8023 0.15611 0.0
N1334 N 0.67438 0.80243 0.14945 0.0
N1335 N 0.54155 0.79248 0.1835 0.0
H1336 H 0.54778 0.80346 0.13275 0.0
H1337 H 0.52518 0.80722 0.15207 0.0
H1338 H 0.53932 0.7917 0.19719 0.0
H1339 H 0.51363 0.78092 0.17717 0.0
H1340 H 0.69768 0.8018 0.1564 0.0
H1341 H 0.67327 0.79469 0.13621 0.0
H1342 H 0.71103 0.84035 0.17811 0.0
H1343 H 0.68693 0.84042 0.19761 0.0
C1344 C 0.80861 0.64604 0.50647 0.0
C1345 C 0.8054 0.61292 0.5164 0.0
C1346 C 0.80973 0.58043 0.48928 0.0
C1347 C 0.81725 0.61547 0.47961 0.0
N1348 N 0.83169 0.68492 0.47948 0.0
N1349 N 0.81133 0.55264 0.51774 0.0
C1350 C 0.81895 0.64928 0.48835 0.0
C1351 C 0.80839 0.58123 0.50795 0.0
N1352 N 0.80033 0.67359 0.51418 0.0
N1353 N 0.80231 0.54583 0.48065 0.0
H1354 H 0.81121 0.55257 0.53147 0.0
H1355 H 0.81781 0.53136 0.5123 0.0
H1356 H 0.80218 0.54365 0.46697 0.0
H1357 H 0.79246 0.51817 0.48701 0.0
H1358 H 0.79804 0.69586 0.50712 0.0
H1359 H 0.79198 0.67192 0.52736 0.0
H1360 H 0.83756 0.71179 0.48564 0.0
H1361 H 0.84012 0.68867 0.46625 0.0
C1362 C 0.20275 0.7828 0.83927 0.0
C1363 C 0.19161 0.80718 0.84933 0.0
C1364 C 0.19676 0.84674 0.82299 0.0
C1365 C 0.20364 0.81965 0.81266 0.0
N1366 N 0.20486 0.75689 0.81044 0.0
N1367 N 0.17063 0.85749 0.85031 0.0
C1368 C 0.20429 0.78622 0.82065 0.0
C1369 C 0.18652 0.83783 0.84106 0.0
N1370 N 0.21328 0.75742 0.84752 0.0
N1371 N 0.20133 0.88166 0.8157 0.0
H1372 H 0.16227 0.85143 0.86352 0.0
H1373 H 0.16228 0.87705 0.84449 0.0
H1374 H 0.20933 0.88951 0.80255 0.0
H1375 H 0.20085 0.90455 0.82303 0.0
H1376 H 0.22578 0.74223 0.84092 0.0
H1377 H 0.2132 0.75447 0.86117 0.0
H1378 H 0.20105 0.72975 0.81553 0.0
H1379 H 0.20519 0.75779 0.79672 0.0
C1380 C 0.48047 0.52646 0.03564 0.0
C1381 C 0.52358 0.54733 0.03628 0.0
C1382 C 0.52251 0.48229 0.03787 0.0
C1383 C 0.47954 0.46143 0.03622 0.0
N1384 N 0.41794 0.46287 0.03068 0.0
N1385 N 0.58613 0.54587 0.03512 0.0
C1386 C 0.45862 0.48334 0.03424 0.0
C1387 C 0.54475 0.52542 0.03653 0.0
N1388 N 0.46039 0.54781 0.03703 0.0
N1389 N 0.54192 0.46094 0.04136 0.0
H1390 H 0.60336 0.57745 0.03433 0.0
H1391 H 0.60317 0.53161 0.03331 0.0
H1392 H 0.52686 0.42934 0.04217 0.0
H1393 H 0.57248 0.47452 0.04474 0.0
H1394 H 0.42912 0.53423 0.03868 0.0
H1395 H 0.47525 0.57941 0.03784 0.0
H1396 H 0.40162 0.47713 0.02722 0.0
H1397 H 0.40096 0.43129 0.02979 0.0
C1398 C 0.03187 0.54866 0.37264 0.0
C1399 C 0.98904 0.52801 0.37078 0.0
C1400 C 0.98783 0.46304 0.36751 0.0
C1401 C 0.03017 0.48322 0.37086 0.0
N1402 N 0.09251 0.54428 0.37808 0.0
N1403 N 0.92525 0.46558 0.36791 0.0
C1404 C 0.05224 0.52584 0.37378 0.0
C1405 C 0.96674 0.48518 0.36855 0.0
N1406 N 0.05305 0.59018 0.37302 0.0
N1407 N 0.96798 0.42281 0.36304 0.0
H1408 H 0.90879 0.48082 0.36795 0.0
H1409 H 0.90682 0.43417 0.3684 0.0
H1410 H 0.98226 0.40546 0.36266 0.0
H1411 H 0.93816 0.40716 0.35855 0.0
H1412 H 0.08456 0.60744 0.37244 0.0
H1413 H 0.03899 0.60773 0.37266 0.0
H1414 H 0.1094 0.57418 0.38238 0.0
H1415 H 0.10876 0.52887 0.37843 0.0
C1416 C 0.52508 0.97743 0.70438 0.0
C1417 C 0.54767 0.0201 0.70196 0.0
C1418 C 0.48453 0.02168 0.69718 0.0
C1419 C 0.46188 0.97968 0.70123 0.0
N1420 N 0.45972 0.91793 0.71049 0.0
N1421 N 0.54969 0.08401 0.69788 0.0
C1422 C 0.48193 0.95758 0.70526 0.0
C1423 C 0.5276 0.04256 0.69878 0.0
N1424 N 0.54496 0.95587 0.70554 0.0
N1425 N 0.4648 0.04135 0.69148 0.0
H1426 H 0.58132 0.10035 0.69854 0.0
H1427 H 0.53675 0.10252 0.69767 0.0
H1428 H 0.43326 0.02711 0.69046 0.0
H1429 H 0.47958 0.07078 0.68649 0.0
H1430 H 0.53036 0.9243 0.70542 0.0
H1431 H 0.57653 0.96957 0.70524 0.0
H1432 H 0.4725 0.90143 0.71557 0.0
H1433 H 0.42807 0.90205 0.71092 0.0
C1434 C 0.5186 0.53273 0.6155 0.0
C1435 C 0.5404 0.51896 0.62586 0.0
C1436 C 0.47622 0.46538 0.63836 0.0
C1437 C 0.45441 0.4767 0.62671 0.0
N1438 N 0.45477 0.51578 0.60158 0.0
N1439 N 0.53967 0.46733 0.64463 0.0
C1440 C 0.47561 0.50888 0.61452 0.0
C1441 C 0.51913 0.48391 0.63661 0.0
N1442 N 0.53886 0.56929 0.60704 0.0
N1443 N 0.45617 0.43789 0.65145 0.0
H1444 H 0.57097 0.47957 0.64349 0.0
H1445 H 0.52524 0.43941 0.65106 0.0
H1446 H 0.42481 0.42374 0.65317 0.0
H1447 H 0.47096 0.43176 0.6615 0.0
H1448 H 0.52423 0.58285 0.60082 0.0
H1449 H 0.57031 0.58797 0.60768 0.0
H1450 H 0.46897 0.53604 0.59125 0.0
H1451 H 0.42334 0.49841 0.60014 0.0
C1452 C 0.97517 0.52123 0.95595 0.0
C1453 C 0.0176 0.54397 0.95899 0.0
C1454 C 0.01926 0.48098 0.96417 0.0
C1455 C 0.97752 0.45821 0.95972 0.0
N1456 N 0.91635 0.45571 0.94937 0.0
N1457 N 0.0814 0.54635 0.964 0.0
C1458 C 0.9556 0.4781 0.95508 0.0
C1459 C 0.04004 0.52407 0.9626 0.0
N1460 N 0.95353 0.54093 0.95426 0.0
N1461 N 0.03876 0.46138 0.97024 0.0
H1462 H 0.09763 0.57799 0.9634 0.0
H1463 H 0.10003 0.53357 0.96457 0.0
H1464 H 0.02471 0.42983 0.97114 0.0
H1465 H 0.06786 0.47624 0.97557 0.0
H1466 H 0.92198 0.52619 0.95392 0.0
H1467 H 0.96706 0.5725 0.95452 0.0
H1468 H 0.90002 0.46833 0.94395 0.0
H1469 H 0.9008 0.42408 0.94886 0.0
C1470 C 0.55458 0.02983 0.29112 0.0
C1471 C 0.53481 0.98787 0.29527 0.0
C1472 C 0.47158 0.98839 0.30142 0.0
C1473 C 0.49036 0.0294 0.29576 0.0
N1474 N 0.5479 0.08795 0.28298 0.0
N1475 N 0.47343 0.92549 0.30218 0.0
C1476 C 0.53144 0.04986 0.29004 0.0
C1477 C 0.49299 0.96666 0.29986 0.0
N1478 N 0.59566 0.05067 0.28857 0.0
N1479 N 0.43365 0.97057 0.30869 0.0
H1480 H 0.48816 0.9086 0.30151 0.0
H1481 H 0.44209 0.90757 0.30352 0.0
H1482 H 0.41693 0.98542 0.30983 0.0
H1483 H 0.41997 0.94233 0.31484 0.0
H1484 H 0.61268 0.08212 0.2874 0.0
H1485 H 0.61339 0.0368 0.28903 0.0
H1486 H 0.57605 0.10273 0.27677 0.0
H1487 H 0.53209 0.10376 0.28206 0.0
loop_
_geom_bond_atom_site_label_1
_geom_bond_atom_site_label_2
_geom_bond_distance
_geom_bond_site_symmetry_2
_ccdc_geom_bond_type
Li0 N17 1.990 . S
Li0 O60 1.956 . S
Li0 O61 1.970 . S
Li0 O62 1.961 . S
Li1 N25 1.990 . S
Li1 O60 1.970 . S
Li1 O61 1.956 . S
Li1 O63 1.961 . S
Li2 N47 1.990 . S
Li2 O60 1.961 . S
Li2 O62 1.956 . S
Li2 O63 1.970 . S
Li3 N53 1.990 . S
Li3 O61 1.961 . S
Li3 O62 1.970 . S
Li3 O63 1.956 . S
C4 C6 1.348 . S
C4 C7 1.356 . S
C4 O60 1.325 . S
N5 C8 1.314 . S
N5 C9 1.279 . S
C6 C4 1.348 . S
C6 C8 1.353 . S
C6 H64 0.929 . S
C7 C4 1.356 . S
C7 C9 1.358 . S
C7 H65 0.930 . S
C8 N5 1.314 . S
C8 C6 1.353 . S
C8 H66 0.930 . S
C9 N5 1.279 . S
C9 C7 1.358 . S
C9 H67 0.930 . S
C10 C13 1.348 . S
C10 C14 1.356 . S
C10 O61 1.325 . S
C11 N12 1.279 . S
C11 C14 1.358 . S
C11 H68 0.930 . S
N12 C11 1.279 . S
N12 C15 1.314 . S
C13 C10 1.348 . S
C13 C15 1.353 . S
C13 H69 0.929 . S
C14 C10 1.356 . S
C14 C11 1.358 . S
C14 H70 0.930 . S
C15 N12 1.314 . S
C15 C13 1.353 . S
C15 H71 0.930 . S
C16 N17 1.314 . S
C16 C21 1.353 . S
C16 H22 0.930 . S
N17 Li0 1.990 . S
N17 C16 1.314 . S
N17 C19 1.279 . S
C18 C19 1.358 . S
C18 C20 1.356 . S
C18 H72 0.930 . S
C19 N17 1.279 . S
C19 C18 1.358 . S
C19 H23 0.930 . S
C20 C18 1.356 . S
C20 C21 1.348 . S
C21 C16 1.353 . S
C21 C20 1.348 . S
C21 H73 0.929 . S
H22 C16 0.930 . S
H23 C19 0.930 . S
C24 N25 1.314 . S
C24 C26 1.353 1_554 S
C24 H30 0.930 . S
N25 Li1 1.990 . S
N25 C24 1.314 . S
N25 C28 1.279 . S
C26 C24 1.353 1_556 S
C26 C29 1.348 1_556 S
C26 H74 0.929 . S
C27 C28 1.358 . S
C27 C29 1.356 . S
C27 H75 0.930 . S
C28 N25 1.279 . S
C28 C27 1.358 . S
C28 H31 0.930 . S
C29 C26 1.348 1_554 S
C29 C27 1.356 . S
H30 C24 0.930 . S
H31 C28 0.930 . S
C32 C34 1.348 . S
C32 C35 1.356 . S
C32 O62 1.325 . S
N33 C36 1.314 . S
N33 C37 1.279 . S
C34 C32 1.348 . S
C34 C36 1.353 . S
C34 H76 0.929 . S
C35 C32 1.356 . S
C35 C37 1.358 . S
C35 H77 0.930 . S
C36 N33 1.314 . S
C36 C34 1.353 . S
C36 H78 0.930 . S
C37 N33 1.279 . S
C37 C35 1.358 . S
C37 H79 0.930 . S
C38 C39 1.348 1_554 S
C38 C40 1.356 1_554 S
C38 O63 1.325 . S
C39 C38 1.348 1_556 S
C39 C41 1.353 . S
C39 H80 0.921 1_556 S
C40 C38 1.356 1_556 S
C40 C42 1.358 . S
C40 H81 0.945 . S
C41 C39 1.353 . S
C41 N43 1.314 . S
C41 H82 0.930 . S
C42 C40 1.358 . S
C42 N43 1.279 . S
C42 H83 0.930 . S
N43 C41 1.314 . S
N43 C42 1.279 . S
C44 C46 1.353 . S
C44 N47 1.314 . S
C44 H50 0.930 . S
C45 N47 1.279 . S
C45 C48 1.358 . S
C45 H51 0.930 . S
C46 C44 1.353 . S
C46 C49 1.348 . S
C46 H84 0.929 . S
N47 Li2 1.990 . S
N47 C44 1.314 . S
N47 C45 1.279 . S
C48 C45 1.358 . S
C48 C49 1.356 . S
C48 H85 0.930 . S
C49 C46 1.348 . S
C49 C48 1.356 . S
H50 C44 0.930 . S
H51 C45 0.930 . S
C52 N53 1.314 . S
C52 C54 1.353 . S
C52 H58 0.930 . S
N53 Li3 1.990 . S
N53 C52 1.314 . S
N53 C56 1.279 . S
C54 C52 1.353 . S
C54 C57 1.348 . S
C54 H86 0.929 . S
C55 C56 1.358 . S
C55 C57 1.356 . S
C55 H87 0.930 . S
C56 N53 1.279 . S
C56 C55 1.358 . S
C56 H59 0.930 . S
C57 C54 1.348 . S
C57 C55 1.356 . S
H58 C52 0.930 . S
H59 C56 0.930 . S
O60 Li0 1.956 . S
O60 Li1 1.970 . S
O60 Li2 1.961 . S
O60 C4 1.325 . S
O61 Li0 1.970 . S
O61 Li1 1.956 . S
O61 Li3 1.961 . S
O61 C10 1.325 . S
O62 Li0 1.961 . S
O62 Li2 1.956 . S
O62 Li3 1.970 . S
O62 C32 1.325 . S
O63 Li1 1.961 . S
O63 Li2 1.970 . S
O63 Li3 1.956 . S
O63 C38 1.325 . S
H64 C6 0.929 . S
H65 C7 0.930 . S
H66 C8 0.930 . S
H67 C9 0.930 . S
H68 C11 0.930 . S
H69 C13 0.929 . S
H70 C14 0.930 . S
H71 C15 0.930 . S
H72 C18 0.930 . S
H73 C21 0.929 . S
H74 C26 0.929 . S
H75 C27 0.930 . S
H76 C34 0.929 . S
H77 C35 0.930 . S
H78 C36 0.930 . S
H79 C37 0.930 . S
H80 C39 0.921 1_554 S
H81 C40 0.945 . S
H82 C41 0.930 . S
H83 C42 0.930 . S
H84 C46 0.929 . S
H85 C48 0.930 . S
H86 C54 0.929 . S
H87 C55 0.930 . S
Li88 N105 1.990 . S
Li88 O148 1.956 . S
Li88 O149 1.970 . S
Li88 O150 1.961 . S
Li89 N113 1.990 . S
Li89 O148 1.970 . S
Li89 O149 1.956 . S
Li89 O151 1.961 . S
Li90 N135 1.990 . S
Li90 O148 1.961 . S
Li90 O150 1.956 . S
Li90 O151 1.970 . S
Li91 N141 1.990 . S
Li91 O149 1.961 . S
Li91 O150 1.970 . S
Li91 O151 1.956 . S
C92 C94 1.348 . S
C92 C95 1.356 . S
C92 O148 1.325 . S
N93 C96 1.314 . S
N93 C97 1.279 . S
C94 C92 1.348 . S
C94 C96 1.353 . S
C94 H152 0.929 . S
C95 C92 1.356 . S
C95 C97 1.358 . S
C95 H153 0.930 . S
C96 N93 1.314 . S
C96 C94 1.353 . S
C96 H154 0.930 . S
C97 N93 1.279 . S
C97 C95 1.358 . S
C97 H155 0.930 . S
C98 C101 1.348 . S
C98 C102 1.356 . S
C98 O149 1.325 . S
C99 N100 1.279 . S
C99 C102 1.358 . S
C99 H156 0.930 . S
N100 C99 1.279 . S
N100 C103 1.314 . S
C101 C98 1.348 . S
C101 C103 1.353 . S
C101 H157 0.929 . S
C102 C98 1.356 . S
C102 C99 1.358 . S
C102 H158 0.930 . S
C103 N100 1.314 . S
C103 C101 1.353 . S
C103 H159 0.930 . S
C104 N105 1.314 . S
C104 C109 1.353 . S
C104 H110 0.930 . S
N105 Li88 1.990 . S
N105 C104 1.314 . S
N105 C107 1.279 . S
C106 C107 1.358 . S
C106 C108 1.356 1_455 S
C106 H160 0.930 . S
C107 N105 1.279 . S
C107 C106 1.358 . S
C107 H111 0.930 . S
C108 C106 1.356 1_655 S
C108 C109 1.348 1_655 S
C109 C104 1.353 . S
C109 C108 1.348 1_455 S
C109 H161 0.929 1_455 S
H110 C104 0.930 . S
H111 C107 0.930 . S
C112 N113 1.314 . S
C112 C114 1.353 . S
C112 H118 0.930 . S
N113 Li89 1.990 . S
N113 C112 1.314 . S
N113 C116 1.279 . S
C114 C112 1.353 . S
C114 C117 1.348 . S
C114 H162 0.929 . S
C115 C116 1.358 . S
C115 C117 1.356 . S
C115 H163 0.930 . S
C116 N113 1.279 . S
C116 C115 1.358 . S
C116 H119 0.930 . S
C117 C114 1.348 . S
C117 C115 1.356 . S
H118 C112 0.930 . S
H119 C116 0.930 . S
C120 C122 1.348 . S
C120 C123 1.356 . S
C120 O150 1.325 . S
N121 C124 1.314 . S
N121 C125 1.279 . S
C122 C120 1.348 . S
C122 C124 1.353 . S
C122 H164 0.929 . S
C123 C120 1.356 . S
C123 C125 1.358 . S
C123 H165 0.930 . S
C124 N121 1.314 . S
C124 C122 1.353 . S
C124 H166 0.930 . S
C125 N121 1.279 . S
C125 C123 1.358 . S
C125 H167 0.930 . S
C126 C127 1.348 . S
C126 C128 1.356 . S
C126 O151 1.325 . S
C127 C126 1.348 . S
C127 C129 1.353 . S
C127 H168 0.929 . S
C128 C126 1.356 . S
C128 C130 1.358 . S
C128 H169 0.930 . S
C129 C127 1.353 . S
C129 N131 1.314 . S
C129 H170 0.930 . S
C130 C128 1.358 . S
C130 N131 1.279 . S
C130 H171 0.930 . S
N131 C129 1.314 . S
N131 C130 1.279 . S
C132 C134 1.353 . S
C132 N135 1.314 . S
C132 H138 0.930 . S
C133 N135 1.279 . S
C133 C136 1.358 . S
C133 H139 0.930 . S
C134 C132 1.353 . S
C134 C137 1.348 . S
C134 H172 0.929 . S
N135 Li90 1.990 . S
N135 C132 1.314 . S
N135 C133 1.279 . S
C136 C133 1.358 . S
C136 C137 1.356 . S
C136 H173 0.930 . S
C137 C134 1.348 . S
C137 C136 1.356 . S
H138 C132 0.930 . S
H139 C133 0.930 . S
C140 N141 1.314 . S
C140 C142 1.353 . S
C140 H146 0.930 . S
N141 Li91 1.990 . S
N141 C140 1.314 . S
N141 C144 1.279 . S
C142 C140 1.353 . S
C142 C145 1.348 . S
C142 H174 0.929 . S
C143 C144 1.358 . S
C143 C145 1.356 . S
C143 H175 0.930 . S
C144 N141 1.279 . S
C144 C143 1.358 . S
C144 H147 0.930 . S
C145 C142 1.348 . S
C145 C143 1.356 . S
H146 C140 0.930 . S
H147 C144 0.930 . S
O148 Li88 1.956 . S
O148 Li89 1.970 . S
O148 Li90 1.961 . S
O148 C92 1.325 . S
O149 Li88 1.970 . S
O149 Li89 1.956 . S
O149 Li91 1.961 . S
O149 C98 1.325 . S
O150 Li88 1.961 . S
O150 Li90 1.956 . S
O150 Li91 1.970 . S
O150 C120 1.325 . S
O151 Li89 1.961 . S
O151 Li90 1.970 . S
O151 Li91 1.956 . S
O151 C126 1.325 . S
H152 C94 0.929 . S
H153 C95 0.930 . S
H154 C96 0.930 . S
H155 C97 0.930 . S
H156 C99 0.930 . S
H157 C101 0.929 . S
H158 C102 0.930 . S
H159 C103 0.930 . S
H160 C106 0.930 . S
H161 C109 0.929 1_655 S
H162 C114 0.929 . S
H163 C115 0.930 . S
H164 C122 0.929 . S
H165 C123 0.930 . S
H166 C124 0.930 . S
H167 C125 0.930 . S
H168 C127 0.929 . S
H169 C128 0.930 . S
H170 C129 0.930 . S
H171 C130 0.930 . S
H172 C134 0.929 . S
H173 C136 0.930 . S
H174 C142 0.929 . S
H175 C143 0.930 . S
Li176 N193 1.990 . S
Li176 O236 1.956 . S
Li176 O237 1.970 . S
Li176 O238 1.961 . S
Li177 N201 1.990 . S
Li177 O236 1.970 . S
Li177 O237 1.956 . S
Li177 O239 1.961 . S
Li178 N223 1.990 . S
Li178 O236 1.961 . S
Li178 O238 1.956 . S
Li178 O239 1.970 . S
Li179 N229 1.990 . S
Li179 O237 1.961 . S
Li179 O238 1.970 . S
Li179 O239 1.956 . S
C180 C182 1.348 . S
C180 C183 1.356 . S
C180 O236 1.325 . S
N181 C184 1.314 . S
N181 C185 1.279 . S
C182 C180 1.348 . S
C182 C184 1.353 . S
C182 H240 0.929 . S
C183 C180 1.356 . S
C183 C185 1.358 . S
C183 H241 0.930 . S
C184 N181 1.314 . S
C184 C182 1.353 . S
C184 H242 0.930 . S
C185 N181 1.279 . S
C185 C183 1.358 . S
C185 H243 0.930 . S
C186 C189 1.348 . S
C186 C190 1.356 . S
C186 O237 1.325 . S
C187 N188 1.279 . S
C187 C190 1.358 . S
C187 H244 0.930 . S
N188 C187 1.279 . S
N188 C191 1.314 . S
C189 C186 1.348 . S
C189 C191 1.353 . S
C189 H245 0.929 . S
C190 C186 1.356 . S
C190 C187 1.358 . S
C190 H246 0.930 . S
C191 N188 1.314 . S
C191 C189 1.353 . S
C191 H247 0.930 . S
C192 N193 1.314 . S
C192 C197 1.353 . S
C192 H198 0.930 . S
N193 Li176 1.990 . S
N193 C192 1.314 . S
N193 C195 1.279 . S
C194 C195 1.358 . S
C194 C196 1.356 . S
C194 H248 0.930 . S
C195 N193 1.279 . S
C195 C194 1.358 . S
C195 H199 0.930 . S
C196 C194 1.356 . S
C196 C197 1.348 . S
C197 C192 1.353 . S
C197 C196 1.348 . S
C197 H249 0.929 . S
H198 C192 0.930 . S
H199 C195 0.930 . S
C200 N201 1.314 . S
C200 C202 1.353 . S
C200 H206 0.930 . S
N201 Li177 1.990 . S
N201 C200 1.314 . S
N201 C204 1.279 . S
C202 C200 1.353 . S
C202 C205 1.348 1_545 S
C202 H250 0.929 1_545 S
C203 C204 1.358 . S
C203 C205 1.356 1_545 S
C203 H251 0.930 . S
C204 N201 1.279 . S
C204 C203 1.358 . S
C204 H207 0.930 . S
C205 C202 1.348 1_565 S
C205 C203 1.356 1_565 S
H206 C200 0.930 . S
H207 C204 0.930 . S
C208 C210 1.348 . S
C208 C211 1.356 . S
C208 O238 1.325 . S
N209 C212 1.314 . S
N209 C213 1.279 . S
C210 C208 1.348 . S
C210 C212 1.353 . S
C210 H252 0.929 . S
C211 C208 1.356 . S
C211 C213 1.358 . S
C211 H253 0.930 . S
C212 N209 1.314 . S
C212 C210 1.353 . S
C212 H254 0.930 . S
C213 N209 1.279 . S
C213 C211 1.358 . S
C213 H255 0.930 . S
C214 C215 1.348 . S
C214 C216 1.356 . S
C214 O239 1.325 . S
C215 C214 1.348 . S
C215 C217 1.353 . S
C215 H256 0.929 . S
C216 C214 1.356 . S
C216 C218 1.358 . S
C216 H257 0.930 . S
C217 C215 1.353 . S
C217 N219 1.314 . S
C217 H258 0.930 . S
C218 C216 1.358 . S
C218 N219 1.279 . S
C218 H259 0.930 . S
N219 C217 1.314 . S
N219 C218 1.279 . S
C220 C222 1.353 . S
C220 N223 1.314 . S
C220 H226 0.930 . S
C221 N223 1.279 . S
C221 C224 1.358 . S
C221 H227 0.930 . S
C222 C220 1.353 . S
C222 C225 1.348 . S
C222 H260 0.929 . S
N223 Li178 1.990 . S
N223 C220 1.314 . S
N223 C221 1.279 . S
C224 C221 1.358 . S
C224 C225 1.356 . S
C224 H261 0.930 . S
C225 C222 1.348 . S
C225 C224 1.356 . S
H226 C220 0.930 . S
H227 C221 0.930 . S
C228 N229 1.314 . S
C228 C230 1.353 . S
C228 H234 0.930 . S
N229 Li179 1.990 . S
N229 C228 1.314 . S
N229 C232 1.279 . S
C230 C228 1.353 . S
C230 C233 1.348 . S
C230 H262 0.929 . S
C231 C232 1.358 . S
C231 C233 1.356 . S
C231 H263 0.930 . S
C232 N229 1.279 . S
C232 C231 1.358 . S
C232 H235 0.930 . S
C233 C230 1.348 . S
C233 C231 1.356 . S
H234 C228 0.930 . S
H235 C232 0.930 . S
O236 Li176 1.956 . S
O236 Li177 1.970 . S
O236 Li178 1.961 . S
O236 C180 1.325 . S
O237 Li176 1.970 . S
O237 Li177 1.956 . S
O237 Li179 1.961 . S
O237 C186 1.325 . S
O238 Li176 1.961 . S
O238 Li178 1.956 . S
O238 Li179 1.970 . S
O238 C208 1.325 . S
O239 Li177 1.961 . S
O239 Li178 1.970 . S
O239 Li179 1.956 . S
O239 C214 1.325 . S
H240 C182 0.929 . S
H241 C183 0.930 . S
H242 C184 0.930 . S
H243 C185 0.930 . S
H244 C187 0.930 . S
H245 C189 0.929 . S
H246 C190 0.930 . S
H247 C191 0.930 . S
H248 C194 0.930 . S
H249 C197 0.929 . S
H250 C202 0.929 1_565 S
H251 C203 0.930 . S
H252 C210 0.929 . S
H253 C211 0.930 . S
H254 C212 0.930 . S
H255 C213 0.930 . S
H256 C215 0.929 . S
H257 C216 0.930 . S
H258 C217 0.930 . S
H259 C218 0.930 . S
H260 C222 0.929 . S
H261 C224 0.930 . S
H262 C230 0.929 . S
H263 C231 0.930 . S
Li264 N281 1.990 . S
Li264 O324 1.956 . S
Li264 O325 1.970 . S
Li264 O326 1.961 . S
Li265 N289 1.990 . S
Li265 O324 1.970 . S
Li265 O325 1.956 . S
Li265 O327 1.961 . S
Li266 N311 1.990 . S
Li266 O324 1.961 . S
Li266 O326 1.956 . S
Li266 O327 1.970 . S
Li267 N317 1.990 . S
Li267 O325 1.961 . S
Li267 O326 1.970 . S
Li267 O327 1.956 . S
C268 C270 1.348 . S
C268 C271 1.356 . S
C268 O324 1.325 . S
N269 C272 1.314 . S
N269 C273 1.279 . S
C270 C268 1.348 . S
C270 C272 1.353 . S
C270 H328 0.929 . S
C271 C268 1.356 . S
C271 C273 1.358 . S
C271 H329 0.930 . S
C272 N269 1.314 . S
C272 C270 1.353 . S
C272 H330 0.930 . S
C273 N269 1.279 . S
C273 C271 1.358 . S
C273 H331 0.930 . S
C274 C277 1.348 . S
C274 C278 1.356 . S
C274 O325 1.325 . S
C275 N276 1.279 . S
C275 C278 1.358 . S
C275 H332 0.930 . S
N276 C275 1.279 . S
N276 C279 1.314 . S
C277 C274 1.348 . S
C277 C279 1.353 . S
C277 H333 0.929 . S
C278 C274 1.356 . S
C278 C275 1.358 . S
C278 H334 0.930 . S
C279 N276 1.314 . S
C279 C277 1.353 . S
C279 H335 0.930 . S
C280 N281 1.314 . S
C280 C285 1.353 1_554 S
C280 H286 0.930 . S
N281 Li264 1.990 . S
N281 C280 1.314 . S
N281 C283 1.279 . S
C282 C283 1.358 . S
C282 C284 1.356 . S
C282 H336 0.930 . S
C283 N281 1.279 . S
C283 C282 1.358 . S
C283 H287 0.930 . S
C284 C282 1.356 . S
C284 C285 1.348 1_554 S
C285 C280 1.353 1_556 S
C285 C284 1.348 1_556 S
C285 H337 0.929 . S
H286 C280 0.930 . S
H287 C283 0.930 . S
C288 N289 1.314 . S
C288 C290 1.353 . S
C288 H294 0.930 . S
N289 Li265 1.990 . S
N289 C288 1.314 . S
N289 C292 1.279 . S
C290 C288 1.353 . S
C290 C293 1.348 . S
C290 H338 0.929 . S
C291 C292 1.358 . S
C291 C293 1.356 . S
C291 H339 0.930 . S
C292 N289 1.279 . S
C292 C291 1.358 . S
C292 H295 0.930 . S
C293 C290 1.348 . S
C293 C291 1.356 . S
H294 C288 0.930 . S
H295 C292 0.930 . S
C296 C298 1.348 1_554 S
C296 C299 1.356 1_554 S
C296 O326 1.325 . S
N297 C300 1.314 . S
N297 C301 1.279 . S
C298 C296 1.348 1_556 S
C298 C300 1.353 . S
C298 H340 0.921 1_556 S
C299 C296 1.356 1_556 S
C299 C301 1.358 . S
C299 H341 0.945 . S
C300 N297 1.314 . S
C300 C298 1.353 . S
C300 H342 0.930 . S
C301 N297 1.279 . S
C301 C299 1.358 . S
C301 H343 0.930 . S
C302 C303 1.348 . S
C302 C304 1.356 . S
C302 O327 1.325 . S
C303 C302 1.348 . S
C303 C305 1.353 . S
C303 H344 0.929 . S
C304 C302 1.356 . S
C304 C306 1.358 . S
C304 H345 0.930 . S
C305 C303 1.353 . S
C305 N307 1.314 . S
C305 H346 0.930 . S
C306 C304 1.358 . S
C306 N307 1.279 . S
C306 H347 0.930 . S
N307 C305 1.314 . S
N307 C306 1.279 . S
C308 C310 1.353 . S
C308 N311 1.314 . S
C308 H314 0.930 . S
C309 N311 1.279 . S
C309 C312 1.358 . S
C309 H315 0.930 . S
C310 C308 1.353 . S
C310 C313 1.348 . S
C310 H348 0.929 . S
N311 Li266 1.990 . S
N311 C308 1.314 . S
N311 C309 1.279 . S
C312 C309 1.358 . S
C312 C313 1.356 . S
C312 H349 0.930 . S
C313 C310 1.348 . S
C313 C312 1.356 . S
H314 C308 0.930 . S
H315 C309 0.930 . S
C316 N317 1.314 . S
C316 C318 1.353 . S
C316 H322 0.930 . S
N317 Li267 1.990 . S
N317 C316 1.314 . S
N317 C320 1.279 . S
C318 C316 1.353 . S
C318 C321 1.348 . S
C318 H350 0.929 . S
C319 C320 1.358 . S
C319 C321 1.356 . S
C319 H351 0.930 . S
C320 N317 1.279 . S
C320 C319 1.358 . S
C320 H323 0.930 . S
C321 C318 1.348 . S
C321 C319 1.356 . S
H322 C316 0.930 . S
H323 C320 0.930 . S
O324 Li264 1.956 . S
O324 Li265 1.970 . S
O324 Li266 1.961 . S
O324 C268 1.325 . S
O325 Li264 1.970 . S
O325 Li265 1.956 . S
O325 Li267 1.961 . S
O325 C274 1.325 . S
O326 Li264 1.961 . S
O326 Li266 1.956 . S
O326 Li267 1.970 . S
O326 C296 1.325 . S
O327 Li265 1.961 . S
O327 Li266 1.970 . S
O327 Li267 1.956 . S
O327 C302 1.325 . S
H328 C270 0.929 . S
H329 C271 0.930 . S
H330 C272 0.930 . S
H331 C273 0.930 . S
H332 C275 0.930 . S
H333 C277 0.929 . S
H334 C278 0.930 . S
H335 C279 0.930 . S
H336 C282 0.930 . S
H337 C285 0.929 . S
H338 C290 0.929 . S
H339 C291 0.930 . S
H340 C298 0.921 1_554 S
H341 C299 0.945 . S
H342 C300 0.930 . S
H343 C301 0.930 . S
H344 C303 0.929 . S
H345 C304 0.930 . S
H346 C305 0.930 . S
H347 C306 0.930 . S
H348 C310 0.929 . S
H349 C312 0.930 . S
H350 C318 0.929 . S
H351 C319 0.930 . S
Li352 N369 1.990 . S
Li352 O412 1.956 . S
Li352 O413 1.970 . S
Li352 O414 1.961 . S
Li353 N377 1.990 . S
Li353 O412 1.970 . S
Li353 O413 1.956 . S
Li353 O415 1.961 . S
Li354 N399 1.990 . S
Li354 O412 1.961 . S
Li354 O414 1.956 . S
Li354 O415 1.970 . S
Li355 N405 1.990 . S
Li355 O413 1.961 . S
Li355 O414 1.970 . S
Li355 O415 1.956 . S
C356 C358 1.348 . S
C356 C359 1.356 . S
C356 O412 1.325 . S
N357 C360 1.314 . S
N357 C361 1.279 . S
C358 C356 1.348 . S
C358 C360 1.353 . S
C358 H416 0.929 . S
C359 C356 1.356 . S
C359 C361 1.358 . S
C359 H417 0.930 . S
C360 N357 1.314 . S
C360 C358 1.353 . S
C360 H418 0.930 . S
C361 N357 1.279 . S
C361 C359 1.358 . S
C361 H419 0.930 . S
C362 C365 1.348 . S
C362 C366 1.356 . S
C362 O413 1.325 . S
C363 N364 1.279 . S
C363 C366 1.358 . S
C363 H420 0.930 . S
N364 C363 1.279 . S
N364 C367 1.314 . S
C365 C362 1.348 . S
C365 C367 1.353 . S
C365 H421 0.929 . S
C366 C362 1.356 . S
C366 C363 1.358 . S
C366 H422 0.930 . S
C367 N364 1.314 . S
C367 C365 1.353 . S
C367 H423 0.930 . S
C368 N369 1.314 . S
C368 C373 1.353 . S
C368 H374 0.930 . S
N369 Li352 1.990 . S
N369 C368 1.314 . S
N369 C371 1.279 . S
C370 C371 1.358 . S
C370 C372 1.356 . S
C370 H424 0.930 . S
C371 N369 1.279 . S
C371 C370 1.358 . S
C371 H375 0.930 . S
C372 C370 1.356 . S
C372 C373 1.348 . S
C373 C368 1.353 . S
C373 C372 1.348 . S
C373 H425 0.929 . S
H374 C368 0.930 . S
H375 C371 0.930 . S
C376 N377 1.314 . S
C376 C378 1.353 . S
C376 H382 0.930 . S
N377 Li353 1.990 . S
N377 C376 1.314 . S
N377 C380 1.279 . S
C378 C376 1.353 . S
C378 C381 1.348 . S
C378 H426 0.929 . S
C379 C380 1.358 . S
C379 C381 1.356 . S
C379 H427 0.930 . S
C380 N377 1.279 . S
C380 C379 1.358 . S
C380 H383 0.930 . S
C381 C378 1.348 . S
C381 C379 1.356 . S
H382 C376 0.930 . S
H383 C380 0.930 . S
C384 C386 1.348 . S
C384 C387 1.356 . S
C384 O414 1.325 . S
N385 C388 1.314 . S
N385 C389 1.279 . S
C386 C384 1.348 . S
C386 C388 1.353 . S
C386 H428 0.929 . S
C387 C384 1.356 . S
C387 C389 1.358 . S
C387 H429 0.930 . S
C388 N385 1.314 . S
C388 C386 1.353 . S
C388 H430 0.930 . S
C389 N385 1.279 . S
C389 C387 1.358 . S
C389 H431 0.930 . S
C390 C391 1.348 . S
C390 C392 1.356 . S
C390 O415 1.325 . S
C391 C390 1.348 . S
C391 C393 1.353 . S
C391 H432 0.929 . S
C392 C390 1.356 . S
C392 C394 1.358 . S
C392 H433 0.930 . S
C393 C391 1.353 . S
C393 N395 1.314 . S
C393 H434 0.930 . S
C394 C392 1.358 . S
C394 N395 1.279 . S
C394 H435 0.930 . S
N395 C393 1.314 . S
N395 C394 1.279 . S
C396 C398 1.353 . S
C396 N399 1.314 . S
C396 H402 0.930 . S
C397 N399 1.279 . S
C397 C400 1.358 . S
C397 H403 0.930 . S
C398 C396 1.353 . S
C398 C401 1.348 1_655 S
C398 H436 0.929 1_655 S
N399 Li354 1.990 . S
N399 C396 1.314 . S
N399 C397 1.279 . S
C400 C397 1.358 . S
C400 C401 1.356 1_655 S
C400 H437 0.930 . S
C401 C398 1.348 1_455 S
C401 C400 1.356 1_455 S
H402 C396 0.930 . S
H403 C397 0.930 . S
C404 N405 1.314 . S
C404 C406 1.353 . S
C404 H410 0.930 . S
N405 Li355 1.990 . S
N405 C404 1.314 . S
N405 C408 1.279 . S
C406 C404 1.353 . S
C406 C409 1.348 . S
C406 H438 0.929 . S
C407 C408 1.358 . S
C407 C409 1.356 . S
C407 H439 0.930 . S
C408 N405 1.279 . S
C408 C407 1.358 . S
C408 H411 0.930 . S
C409 C406 1.348 . S
C409 C407 1.356 . S
H410 C404 0.930 . S
H411 C408 0.930 . S
O412 Li352 1.956 . S
O412 Li353 1.970 . S
O412 Li354 1.961 . S
O412 C356 1.325 . S
O413 Li352 1.970 . S
O413 Li353 1.956 . S
O413 Li355 1.961 . S
O413 C362 1.325 . S
O414 Li352 1.961 . S
O414 Li354 1.956 . S
O414 Li355 1.970 . S
O414 C384 1.325 . S
O415 Li353 1.961 . S
O415 Li354 1.970 . S
O415 Li355 1.956 . S
O415 C390 1.325 . S
H416 C358 0.929 . S
H417 C359 0.930 . S
H418 C360 0.930 . S
H419 C361 0.930 . S
H420 C363 0.930 . S
H421 C365 0.929 . S
H422 C366 0.930 . S
H423 C367 0.930 . S
H424 C370 0.930 . S
H425 C373 0.929 . S
H426 C378 0.929 . S
H427 C379 0.930 . S
H428 C386 0.929 . S
H429 C387 0.930 . S
H430 C388 0.930 . S
H431 C389 0.930 . S
H432 C391 0.929 . S
H433 C392 0.930 . S
H434 C393 0.930 . S
H435 C394 0.930 . S
H436 C398 0.929 1_455 S
H437 C400 0.930 . S
H438 C406 0.929 . S
H439 C407 0.930 . S
Li440 N457 1.990 . S
Li440 O500 1.956 . S
Li440 O501 1.970 . S
Li440 O502 1.961 . S
Li441 N465 1.990 . S
Li441 O500 1.970 . S
Li441 O501 1.956 . S
Li441 O503 1.961 . S
Li442 N487 1.990 . S
Li442 O500 1.961 . S
Li442 O502 1.956 . S
Li442 O503 1.970 . S
Li443 N493 1.990 . S
Li443 O501 1.961 . S
Li443 O502 1.970 . S
Li443 O503 1.956 . S
C444 C446 1.348 . S
C444 C447 1.356 . S
C444 O500 1.325 . S
N445 C448 1.314 . S
N445 C449 1.279 . S
C446 C444 1.348 . S
C446 C448 1.353 . S
C446 H504 0.929 . S
C447 C444 1.356 . S
C447 C449 1.358 . S
C447 H505 0.930 . S
C448 N445 1.314 . S
C448 C446 1.353 . S
C448 H506 0.930 . S
C449 N445 1.279 . S
C449 C447 1.358 . S
C449 H507 0.930 . S
C450 C453 1.348 . S
C450 C454 1.356 . S
C450 O501 1.325 . S
C451 N452 1.279 . S
C451 C454 1.358 . S
C451 H508 0.930 . S
N452 C451 1.279 . S
N452 C455 1.314 . S
C453 C450 1.348 . S
C453 C455 1.353 . S
C453 H509 0.929 . S
C454 C450 1.356 . S
C454 C451 1.358 . S
C454 H510 0.930 . S
C455 N452 1.314 . S
C455 C453 1.353 . S
C455 H511 0.930 . S
C456 N457 1.314 . S
C456 C461 1.353 . S
C456 H462 0.930 . S
N457 Li440 1.990 . S
N457 C456 1.314 . S
N457 C459 1.279 . S
C458 C459 1.358 . S
C458 C460 1.356 . S
C458 H512 0.930 . S
C459 N457 1.279 . S
C459 C458 1.358 . S
C459 H463 0.930 . S
C460 C458 1.356 . S
C460 C461 1.348 . S
C461 C456 1.353 . S
C461 C460 1.348 . S
C461 H513 0.929 . S
H462 C456 0.930 . S
H463 C459 0.930 . S
C464 N465 1.314 . S
C464 C466 1.353 . S
C464 H470 0.930 . S
N465 Li441 1.990 . S
N465 C464 1.314 . S
N465 C468 1.279 . S
C466 C464 1.353 . S
C466 C469 1.348 . S
C466 H514 0.929 . S
C467 C468 1.358 . S
C467 C469 1.356 . S
C467 H515 0.930 . S
C468 N465 1.279 . S
C468 C467 1.358 . S
C468 H471 0.930 . S
C469 C466 1.348 . S
C469 C467 1.356 . S
H470 C464 0.930 . S
H471 C468 0.930 . S
C472 C474 1.348 . S
C472 C475 1.356 . S
C472 O502 1.325 . S
N473 C476 1.314 . S
N473 C477 1.279 . S
C474 C472 1.348 . S
C474 C476 1.353 . S
C474 H516 0.929 . S
C475 C472 1.356 . S
C475 C477 1.358 . S
C475 H517 0.930 . S
C476 N473 1.314 . S
C476 C474 1.353 . S
C476 H518 0.930 . S
C477 N473 1.279 . S
C477 C475 1.358 . S
C477 H519 0.930 . S
C478 C479 1.348 . S
C478 C480 1.356 . S
C478 O503 1.325 . S
C479 C478 1.348 . S
C479 C481 1.353 . S
C479 H520 0.929 . S
C480 C478 1.356 . S
C480 C482 1.358 . S
C480 H521 0.930 . S
C481 C479 1.353 . S
C481 N483 1.314 . S
C481 H522 0.930 . S
C482 C480 1.358 . S
C482 N483 1.279 . S
C482 H523 0.930 . S
N483 C481 1.314 . S
N483 C482 1.279 . S
C484 C486 1.353 . S
C484 N487 1.314 . S
C484 H490 0.930 . S
C485 N487 1.279 . S
C485 C488 1.358 . S
C485 H491 0.930 . S
C486 C484 1.353 . S
C486 C489 1.348 1_565 S
C486 H524 0.929 1_565 S
N487 Li442 1.990 . S
N487 C484 1.314 . S
N487 C485 1.279 . S
C488 C485 1.358 . S
C488 C489 1.356 1_565 S
C488 H525 0.930 . S
C489 C486 1.348 1_545 S
C489 C488 1.356 1_545 S
H490 C484 0.930 . S
H491 C485 0.930 . S
C492 N493 1.314 . S
C492 C494 1.353 . S
C492 H498 0.930 . S
N493 Li443 1.990 . S
N493 C492 1.314 . S
N493 C496 1.279 . S
C494 C492 1.353 . S
C494 C497 1.348 . S
C494 H526 0.929 . S
C495 C496 1.358 . S
C495 C497 1.356 . S
C495 H527 0.930 . S
C496 N493 1.279 . S
C496 C495 1.358 . S
C496 H499 0.930 . S
C497 C494 1.348 . S
C497 C495 1.356 . S
H498 C492 0.930 . S
H499 C496 0.930 . S
O500 Li440 1.956 . S
O500 Li441 1.970 . S
O500 Li442 1.961 . S
O500 C444 1.325 . S
O501 Li440 1.970 . S
O501 Li441 1.956 . S
O501 Li443 1.961 . S
O501 C450 1.325 . S
O502 Li440 1.961 . S
O502 Li442 1.956 . S
O502 Li443 1.970 . S
O502 C472 1.325 . S
O503 Li441 1.961 . S
O503 Li442 1.970 . S
O503 Li443 1.956 . S
O503 C478 1.325 . S
H504 C446 0.929 . S
H505 C447 0.930 . S
H506 C448 0.930 . S
H507 C449 0.930 . S
H508 C451 0.930 . S
H509 C453 0.929 . S
H510 C454 0.930 . S
H511 C455 0.930 . S
H512 C458 0.930 . S
H513 C461 0.929 . S
H514 C466 0.929 . S
H515 C467 0.930 . S
H516 C474 0.929 . S
H517 C475 0.930 . S
H518 C476 0.930 . S
H519 C477 0.930 . S
H520 C479 0.929 . S
H521 C480 0.930 . S
H522 C481 0.930 . S
H523 C482 0.930 . S
H524 C486 0.929 1_545 S
H525 C488 0.930 . S
H526 C494 0.929 . S
H527 C495 0.930 . S
Li528 N545 1.990 . S
Li528 O588 1.956 . S
Li528 O589 1.970 . S
Li528 O590 1.961 . S
Li529 N553 1.990 . S
Li529 O588 1.970 . S
Li529 O589 1.956 . S
Li529 O591 1.961 . S
Li530 N575 1.990 . S
Li530 O588 1.961 . S
Li530 O590 1.956 . S
Li530 O591 1.970 . S
Li531 N581 1.990 . S
Li531 O589 1.961 . S
Li531 O590 1.970 . S
Li531 O591 1.956 . S
C532 C534 1.348 . S
C532 C535 1.356 . S
C532 O588 1.325 . S
N533 C536 1.314 . S
N533 C537 1.279 . S
C534 C532 1.348 . S
C534 C536 1.353 . S
C534 H592 0.929 . S
C535 C532 1.356 . S
C535 C537 1.358 . S
C535 H593 0.930 . S
C536 N533 1.314 . S
C536 C534 1.353 . S
C536 H594 0.930 . S
C537 N533 1.279 . S
C537 C535 1.358 . S
C537 H595 0.930 . S
C538 C541 1.348 . S
C538 C542 1.356 . S
C538 O589 1.325 . S
C539 N540 1.279 . S
C539 C542 1.358 . S
C539 H596 0.930 . S
N540 C539 1.279 . S
N540 C543 1.314 . S
C541 C538 1.348 . S
C541 C543 1.353 . S
C541 H597 0.929 . S
C542 C538 1.356 . S
C542 C539 1.358 . S
C542 H598 0.930 . S
C543 N540 1.314 . S
C543 C541 1.353 . S
C543 H599 0.930 . S
C544 N545 1.314 . S
C544 C549 1.353 . S
C544 H550 0.930 . S
N545 Li528 1.990 . S
N545 C544 1.314 . S
N545 C547 1.279 . S
C546 C547 1.358 . S
C546 C548 1.356 . S
C546 H600 0.930 . S
C547 N545 1.279 . S
C547 C546 1.358 . S
C547 H551 0.930 . S
C548 C546 1.356 . S
C548 C549 1.348 . S
C549 C544 1.353 . S
C549 C548 1.348 . S
C549 H601 0.929 . S
H550 C544 0.930 . S
H551 C547 0.930 . S
C552 N553 1.314 . S
C552 C554 1.353 . S
C552 H558 0.930 . S
N553 Li529 1.990 . S
N553 C552 1.314 . S
N553 C556 1.279 . S
C554 C552 1.353 . S
C554 C557 1.348 . S
C554 H602 0.929 . S
C555 C556 1.358 . S
C555 C557 1.356 . S
C555 H603 0.930 . S
C556 N553 1.279 . S
C556 C555 1.358 . S
C556 H559 0.930 . S
C557 C554 1.348 . S
C557 C555 1.356 . S
H558 C552 0.930 . S
H559 C556 0.930 . S
C560 C562 1.348 . S
C560 C563 1.356 . S
C560 O590 1.325 . S
N561 C564 1.314 . S
N561 C565 1.279 . S
C562 C560 1.348 . S
C562 C564 1.353 . S
C562 H604 0.929 . S
C563 C560 1.356 . S
C563 C565 1.358 . S
C563 H605 0.930 . S
C564 N561 1.314 . S
C564 C562 1.353 . S
C564 H606 0.930 . S
C565 N561 1.279 . S
C565 C563 1.358 . S
C565 H607 0.930 . S
C566 C567 1.348 . S
C566 C568 1.356 . S
C566 O591 1.325 . S
C567 C566 1.348 . S
C567 C569 1.353 . S
C567 H608 0.929 . S
C568 C566 1.356 . S
C568 C570 1.358 . S
C568 H609 0.930 . S
C569 C567 1.353 . S
C569 N571 1.314 . S
C569 H610 0.930 . S
C570 C568 1.358 . S
C570 N571 1.279 . S
C570 H611 0.930 . S
N571 C569 1.314 . S
N571 C570 1.279 . S
C572 C574 1.353 . S
C572 N575 1.314 . S
C572 H578 0.930 . S
C573 N575 1.279 . S
C573 C576 1.358 . S
C573 H579 0.930 . S
C574 C572 1.353 . S
C574 C577 1.348 . S
C574 H612 0.929 . S
N575 Li530 1.990 . S
N575 C572 1.314 . S
N575 C573 1.279 . S
C576 C573 1.358 . S
C576 C577 1.356 . S
C576 H613 0.930 . S
C577 C574 1.348 . S
C577 C576 1.356 . S
H578 C572 0.930 . S
H579 C573 0.930 . S
C580 N581 1.314 . S
C580 C582 1.353 . S
C580 H586 0.930 . S
N581 Li531 1.990 . S
N581 C580 1.314 . S
N581 C584 1.279 . S
C582 C580 1.353 . S
C582 C585 1.348 . S
C582 H614 0.929 . S
C583 C584 1.358 . S
C583 C585 1.356 . S
C583 H615 0.930 . S
C584 N581 1.279 . S
C584 C583 1.358 . S
C584 H587 0.930 . S
C585 C582 1.348 . S
C585 C583 1.356 . S
H586 C580 0.930 . S
H587 C584 0.930 . S
O588 Li528 1.956 . S
O588 Li529 1.970 . S
O588 Li530 1.961 . S
O588 C532 1.325 . S
O589 Li528 1.970 . S
O589 Li529 1.956 . S
O589 Li531 1.961 . S
O589 C538 1.325 . S
O590 Li528 1.961 . S
O590 Li530 1.956 . S
O590 Li531 1.970 . S
O590 C560 1.325 . S
O591 Li529 1.961 . S
O591 Li530 1.970 . S
O591 Li531 1.956 . S
O591 C566 1.325 . S
H592 C534 0.929 . S
H593 C535 0.930 . S
H594 C536 0.930 . S
H595 C537 0.930 . S
H596 C539 0.930 . S
H597 C541 0.929 . S
H598 C542 0.930 . S
H599 C543 0.930 . S
H600 C546 0.930 . S
H601 C549 0.929 . S
H602 C554 0.929 . S
H603 C555 0.930 . S
H604 C562 0.929 . S
H605 C563 0.930 . S
H606 C564 0.930 . S
H607 C565 0.930 . S
H608 C567 0.929 . S
H609 C568 0.930 . S
H610 C569 0.930 . S
H611 C570 0.930 . S
H612 C574 0.929 . S
H613 C576 0.930 . S
H614 C582 0.929 . S
H615 C583 0.930 . S
Li616 N633 1.990 . S
Li616 O676 1.956 . S
Li616 O677 1.970 . S
Li616 O678 1.961 . S
Li617 N641 1.990 . S
Li617 O676 1.970 . S
Li617 O677 1.956 . S
Li617 O679 1.961 . S
Li618 N663 1.990 . S
Li618 O676 1.961 . S
Li618 O678 1.956 . S
Li618 O679 1.970 . S
Li619 N669 1.990 . S
Li619 O677 1.961 . S
Li619 O678 1.970 . S
Li619 O679 1.956 . S
C620 C622 1.348 . S
C620 C623 1.356 . S
C620 O676 1.325 . S
N621 C624 1.314 . S
N621 C625 1.279 . S
C622 C620 1.348 . S
C622 C624 1.353 . S
C622 H680 0.929 . S
C623 C620 1.356 . S
C623 C625 1.358 . S
C623 H681 0.930 . S
C624 N621 1.314 . S
C624 C622 1.353 . S
C624 H682 0.930 . S
C625 N621 1.279 . S
C625 C623 1.358 . S
C625 H683 0.930 . S
C626 C629 1.348 1_556 S
C626 C630 1.356 1_556 S
C626 O677 1.325 . S
C627 N628 1.279 . S
C627 C630 1.358 . S
C627 H684 0.930 . S
N628 C627 1.279 . S
N628 C631 1.314 . S
C629 C626 1.348 1_554 S
C629 C631 1.353 . S
C629 H685 0.921 1_554 S
C630 C626 1.356 1_554 S
C630 C627 1.358 . S
C630 H686 0.945 . S
C631 N628 1.314 . S
C631 C629 1.353 . S
C631 H687 0.930 . S
C632 N633 1.314 . S
C632 C637 1.353 . S
C632 H638 0.930 . S
N633 Li616 1.990 . S
N633 C632 1.314 . S
N633 C635 1.279 . S
C634 C635 1.358 . S
C634 C636 1.356 . S
C634 H688 0.930 . S
C635 N633 1.279 . S
C635 C634 1.358 . S
C635 H639 0.930 . S
C636 C634 1.356 . S
C636 C637 1.348 . S
C637 C632 1.353 . S
C637 C636 1.348 . S
C637 H689 0.929 . S
H638 C632 0.930 . S
H639 C635 0.930 . S
C640 N641 1.314 . S
C640 C642 1.353 . S
C640 H646 0.930 . S
N641 Li617 1.990 . S
N641 C640 1.314 . S
N641 C644 1.279 . S
C642 C640 1.353 . S
C642 C645 1.348 1_455 S
C642 H690 0.929 1_455 S
C643 C644 1.358 . S
C643 C645 1.356 1_455 S
C643 H691 0.930 . S
C644 N641 1.279 . S
C644 C643 1.358 . S
C644 H647 0.930 . S
C645 C642 1.348 1_655 S
C645 C643 1.356 1_655 S
H646 C640 0.930 . S
H647 C644 0.930 . S
C648 C650 1.348 . S
C648 C651 1.356 . S
C648 O678 1.325 . S
N649 C652 1.314 . S
N649 C653 1.279 . S
C650 C648 1.348 . S
C650 C652 1.353 . S
C650 H692 0.929 . S
C651 C648 1.356 . S
C651 C653 1.358 . S
C651 H693 0.930 . S
C652 N649 1.314 . S
C652 C650 1.353 . S
C652 H694 0.930 . S
C653 N649 1.279 . S
C653 C651 1.358 . S
C653 H695 0.930 . S
C654 C655 1.348 . S
C654 C656 1.356 . S
C654 O679 1.325 . S
C655 C654 1.348 . S
C655 C657 1.353 . S
C655 H696 0.929 . S
C656 C654 1.356 . S
C656 C658 1.358 . S
C656 H697 0.930 . S
C657 C655 1.353 . S
C657 N659 1.314 . S
C657 H698 0.930 . S
C658 C656 1.358 . S
C658 N659 1.279 . S
C658 H699 0.930 . S
N659 C657 1.314 . S
N659 C658 1.279 . S
C660 C662 1.353 . S
C660 N663 1.314 . S
C660 H666 0.930 . S
C661 N663 1.279 . S
C661 C664 1.358 . S
C661 H667 0.930 . S
C662 C660 1.353 . S
C662 C665 1.348 . S
C662 H700 0.929 . S
N663 Li618 1.990 . S
N663 C660 1.314 . S
N663 C661 1.279 . S
C664 C661 1.358 . S
C664 C665 1.356 . S
C664 H701 0.930 . S
C665 C662 1.348 . S
C665 C664 1.356 . S
H666 C660 0.930 . S
H667 C661 0.930 . S
C668 N669 1.314 . S
C668 C670 1.353 1_556 S
C668 H674 0.930 . S
N669 Li619 1.990 . S
N669 C668 1.314 . S
N669 C672 1.279 . S
C670 C668 1.353 1_554 S
C670 C673 1.348 1_554 S
C670 H702 0.929 . S
C671 C672 1.358 . S
C671 C673 1.356 . S
C671 H703 0.930 . S
C672 N669 1.279 . S
C672 C671 1.358 . S
C672 H675 0.930 . S
C673 C670 1.348 1_556 S
C673 C671 1.356 . S
H674 C668 0.930 . S
H675 C672 0.930 . S
O676 Li616 1.956 . S
O676 Li617 1.970 . S
O676 Li618 1.961 . S
O676 C620 1.325 . S
O677 Li616 1.970 . S
O677 Li617 1.956 . S
O677 Li619 1.961 . S
O677 C626 1.325 . S
O678 Li616 1.961 . S
O678 Li618 1.956 . S
O678 Li619 1.970 . S
O678 C648 1.325 . S
O679 Li617 1.961 . S
O679 Li618 1.970 . S
O679 Li619 1.956 . S
O679 C654 1.325 . S
H680 C622 0.929 . S
H681 C623 0.930 . S
H682 C624 0.930 . S
H683 C625 0.930 . S
H684 C627 0.930 . S
H685 C629 0.921 1_556 S
H686 C630 0.945 . S
H687 C631 0.930 . S
H688 C634 0.930 . S
H689 C637 0.929 . S
H690 C642 0.929 1_655 S
H691 C643 0.930 . S
H692 C650 0.929 . S
H693 C651 0.930 . S
H694 C652 0.930 . S
H695 C653 0.930 . S
H696 C655 0.929 . S
H697 C656 0.930 . S
H698 C657 0.930 . S
H699 C658 0.930 . S
H700 C662 0.929 . S
H701 C664 0.930 . S
H702 C670 0.929 . S
H703 C671 0.930 . S
Li704 N721 1.990 . S
Li704 O764 1.956 . S
Li704 O765 1.970 . S
Li704 O766 1.961 . S
Li705 N729 1.990 . S
Li705 O764 1.970 . S
Li705 O765 1.956 . S
Li705 O767 1.961 . S
Li706 N751 1.990 . S
Li706 O764 1.961 . S
Li706 O766 1.956 . S
Li706 O767 1.970 . S
Li707 N757 1.990 . S
Li707 O765 1.961 . S
Li707 O766 1.970 . S
Li707 O767 1.956 . S
C708 C710 1.348 . S
C708 C711 1.356 . S
C708 O764 1.325 . S
N709 C712 1.314 . S
N709 C713 1.279 . S
C710 C708 1.348 . S
C710 C712 1.353 . S
C710 H768 0.929 . S
C711 C708 1.356 . S
C711 C713 1.358 . S
C711 H769 0.930 . S
C712 N709 1.314 . S
C712 C710 1.353 . S
C712 H770 0.930 . S
C713 N709 1.279 . S
C713 C711 1.358 . S
C713 H771 0.930 . S
C714 C717 1.348 . S
C714 C718 1.356 . S
C714 O765 1.325 . S
C715 N716 1.279 . S
C715 C718 1.358 . S
C715 H772 0.930 . S
N716 C715 1.279 . S
N716 C719 1.314 . S
C717 C714 1.348 . S
C717 C719 1.353 . S
C717 H773 0.929 . S
C718 C714 1.356 . S
C718 C715 1.358 . S
C718 H774 0.930 . S
C719 N716 1.314 . S
C719 C717 1.353 . S
C719 H775 0.930 . S
C720 N721 1.314 . S
C720 C725 1.353 . S
C720 H726 0.930 . S
N721 Li704 1.990 . S
N721 C720 1.314 . S
N721 C723 1.279 . S
C722 C723 1.358 . S
C722 C724 1.356 1_545 S
C722 H776 0.930 . S
C723 N721 1.279 . S
C723 C722 1.358 . S
C723 H727 0.930 . S
C724 C722 1.356 1_565 S
C724 C725 1.348 1_565 S
C725 C720 1.353 . S
C725 C724 1.348 1_545 S
C725 H777 0.929 1_545 S
H726 C720 0.930 . S
H727 C723 0.930 . S
C728 N729 1.314 . S
C728 C730 1.353 . S
C728 H734 0.930 . S
N729 Li705 1.990 . S
N729 C728 1.314 . S
N729 C732 1.279 . S
C730 C728 1.353 . S
C730 C733 1.348 . S
C730 H778 0.929 . S
C731 C732 1.358 . S
C731 C733 1.356 . S
C731 H779 0.930 . S
C732 N729 1.279 . S
C732 C731 1.358 . S
C732 H735 0.930 . S
C733 C730 1.348 . S
C733 C731 1.356 . S
H734 C728 0.930 . S
H735 C732 0.930 . S
C736 C738 1.348 . S
C736 C739 1.356 . S
C736 O766 1.325 . S
N737 C740 1.314 . S
N737 C741 1.279 . S
C738 C736 1.348 . S
C738 C740 1.353 . S
C738 H780 0.929 . S
C739 C736 1.356 . S
C739 C741 1.358 . S
C739 H781 0.930 . S
C740 N737 1.314 . S
C740 C738 1.353 . S
C740 H782 0.930 . S
C741 N737 1.279 . S
C741 C739 1.358 . S
C741 H783 0.930 . S
C742 C743 1.348 . S
C742 C744 1.356 . S
C742 O767 1.325 . S
C743 C742 1.348 . S
C743 C745 1.353 . S
C743 H784 0.929 . S
C744 C742 1.356 . S
C744 C746 1.358 . S
C744 H785 0.930 . S
C745 C743 1.353 . S
C745 N747 1.314 . S
C745 H786 0.930 . S
C746 C744 1.358 . S
C746 N747 1.279 . S
C746 H787 0.930 . S
N747 C745 1.314 . S
N747 C746 1.279 . S
C748 C750 1.353 . S
C748 N751 1.314 . S
C748 H754 0.930 . S
C749 N751 1.279 . S
C749 C752 1.358 . S
C749 H755 0.930 . S
C750 C748 1.353 . S
C750 C753 1.348 . S
C750 H788 0.929 . S
N751 Li706 1.990 . S
N751 C748 1.314 . S
N751 C749 1.279 . S
C752 C749 1.358 . S
C752 C753 1.356 . S
C752 H789 0.930 . S
C753 C750 1.348 . S
C753 C752 1.356 . S
H754 C748 0.930 . S
H755 C749 0.930 . S
C756 N757 1.314 . S
C756 C758 1.353 . S
C756 H762 0.930 . S
N757 Li707 1.990 . S
N757 C756 1.314 . S
N757 C760 1.279 . S
C758 C756 1.353 . S
C758 C761 1.348 . S
C758 H790 0.929 . S
C759 C760 1.358 . S
C759 C761 1.356 . S
C759 H791 0.930 . S
C760 N757 1.279 . S
C760 C759 1.358 . S
C760 H763 0.930 . S
C761 C758 1.348 . S
C761 C759 1.356 . S
H762 C756 0.930 . S
H763 C760 0.930 . S
O764 Li704 1.956 . S
O764 Li705 1.970 . S
O764 Li706 1.961 . S
O764 C708 1.325 . S
O765 Li704 1.970 . S
O765 Li705 1.956 . S
O765 Li707 1.961 . S
O765 C714 1.325 . S
O766 Li704 1.961 . S
O766 Li706 1.956 . S
O766 Li707 1.970 . S
O766 C736 1.325 . S
O767 Li705 1.961 . S
O767 Li706 1.970 . S
O767 Li707 1.956 . S
O767 C742 1.325 . S
H768 C710 0.929 . S
H769 C711 0.930 . S
H770 C712 0.930 . S
H771 C713 0.930 . S
H772 C715 0.930 . S
H773 C717 0.929 . S
H774 C718 0.930 . S
H775 C719 0.930 . S
H776 C722 0.930 . S
H777 C725 0.929 1_565 S
H778 C730 0.929 . S
H779 C731 0.930 . S
H780 C738 0.929 . S
H781 C739 0.930 . S
H782 C740 0.930 . S
H783 C741 0.930 . S
H784 C743 0.929 . S
H785 C744 0.930 . S
H786 C745 0.930 . S
H787 C746 0.930 . S
H788 C750 0.929 . S
H789 C752 0.930 . S
H790 C758 0.929 . S
H791 C759 0.930 . S
Li792 N809 1.990 . S
Li792 O852 1.956 . S
Li792 O853 1.970 . S
Li792 O854 1.961 . S
Li793 N817 1.990 . S
Li793 O852 1.970 . S
Li793 O853 1.956 . S
Li793 O855 1.961 . S
Li794 N839 1.990 . S
Li794 O852 1.961 . S
Li794 O854 1.956 . S
Li794 O855 1.970 . S
Li795 N845 1.990 . S
Li795 O853 1.961 . S
Li795 O854 1.970 . S
Li795 O855 1.956 . S
C796 C798 1.348 . S
C796 C799 1.356 . S
C796 O852 1.325 . S
N797 C800 1.314 . S
N797 C801 1.279 . S
C798 C796 1.348 . S
C798 C800 1.353 . S
C798 H856 0.929 . S
C799 C796 1.356 . S
C799 C801 1.358 . S
C799 H857 0.930 . S
C800 N797 1.314 . S
C800 C798 1.353 . S
C800 H858 0.930 . S
C801 N797 1.279 . S
C801 C799 1.358 . S
C801 H859 0.930 . S
C802 C805 1.348 . S
C802 C806 1.356 . S
C802 O853 1.325 . S
C803 N804 1.279 . S
C803 C806 1.358 . S
C803 H860 0.930 . S
N804 C803 1.279 . S
N804 C807 1.314 . S
C805 C802 1.348 . S
C805 C807 1.353 . S
C805 H861 0.929 . S
C806 C802 1.356 . S
C806 C803 1.358 . S
C806 H862 0.930 . S
C807 N804 1.314 . S
C807 C805 1.353 . S
C807 H863 0.930 . S
C808 N809 1.314 . S
C808 C813 1.353 . S
C808 H814 0.930 . S
N809 Li792 1.990 . S
N809 C808 1.314 . S
N809 C811 1.279 . S
C810 C811 1.358 . S
C810 C812 1.356 . S
C810 H864 0.930 . S
C811 N809 1.279 . S
C811 C810 1.358 . S
C811 H815 0.930 . S
C812 C810 1.356 . S
C812 C813 1.348 . S
C813 C808 1.353 . S
C813 C812 1.348 . S
C813 H865 0.929 . S
H814 C808 0.930 . S
H815 C811 0.930 . S
C816 N817 1.314 . S
C816 C818 1.353 . S
C816 H822 0.930 . S
N817 Li793 1.990 . S
N817 C816 1.314 . S
N817 C820 1.279 . S
C818 C816 1.353 . S
C818 C821 1.348 . S
C818 H866 0.929 . S
C819 C820 1.358 . S
C819 C821 1.356 . S
C819 H867 0.930 . S
C820 N817 1.279 . S
C820 C819 1.358 . S
C820 H823 0.930 . S
C821 C818 1.348 . S
C821 C819 1.356 . S
H822 C816 0.930 . S
H823 C820 0.930 . S
C824 C826 1.348 . S
C824 C827 1.356 . S
C824 O854 1.325 . S
N825 C828 1.314 . S
N825 C829 1.279 . S
C826 C824 1.348 . S
C826 C828 1.353 . S
C826 H868 0.929 . S
C827 C824 1.356 . S
C827 C829 1.358 . S
C827 H869 0.930 . S
C828 N825 1.314 . S
C828 C826 1.353 . S
C828 H870 0.930 . S
C829 N825 1.279 . S
C829 C827 1.358 . S
C829 H871 0.930 . S
C830 C831 1.348 . S
C830 C832 1.356 . S
C830 O855 1.325 . S
C831 C830 1.348 . S
C831 C833 1.353 . S
C831 H872 0.929 . S
C832 C830 1.356 . S
C832 C834 1.358 . S
C832 H873 0.930 . S
C833 C831 1.353 . S
C833 N835 1.314 . S
C833 H874 0.930 . S
C834 C832 1.358 . S
C834 N835 1.279 . S
C834 H875 0.930 . S
N835 C833 1.314 . S
N835 C834 1.279 . S
C836 C838 1.353 . S
C836 N839 1.314 . S
C836 H842 0.930 . S
C837 N839 1.279 . S
C837 C840 1.358 . S
C837 H843 0.930 . S
C838 C836 1.353 . S
C838 C841 1.348 . S
C838 H876 0.929 . S
N839 Li794 1.990 . S
N839 C836 1.314 . S
N839 C837 1.279 . S
C840 C837 1.358 . S
C840 C841 1.356 . S
C840 H877 0.930 . S
C841 C838 1.348 . S
C841 C840 1.356 . S
H842 C836 0.930 . S
H843 C837 0.930 . S
C844 N845 1.314 . S
C844 C846 1.353 . S
C844 H850 0.930 . S
N845 Li795 1.990 . S
N845 C844 1.314 . S
N845 C848 1.279 . S
C846 C844 1.353 . S
C846 C849 1.348 . S
C846 H878 0.929 . S
C847 C848 1.358 . S
C847 C849 1.356 . S
C847 H879 0.930 . S
C848 N845 1.279 . S
C848 C847 1.358 . S
C848 H851 0.930 . S
C849 C846 1.348 . S
C849 C847 1.356 . S
H850 C844 0.930 . S
H851 C848 0.930 . S
O852 Li792 1.956 . S
O852 Li793 1.970 . S
O852 Li794 1.961 . S
O852 C796 1.325 . S
O853 Li792 1.970 . S
O853 Li793 1.956 . S
O853 Li795 1.961 . S
O853 C802 1.325 . S
O854 Li792 1.961 . S
O854 Li794 1.956 . S
O854 Li795 1.970 . S
O854 C824 1.325 . S
O855 Li793 1.961 . S
O855 Li794 1.970 . S
O855 Li795 1.956 . S
O855 C830 1.325 . S
H856 C798 0.929 . S
H857 C799 0.930 . S
H858 C800 0.930 . S
H859 C801 0.930 . S
H860 C803 0.930 . S
H861 C805 0.929 . S
H862 C806 0.930 . S
H863 C807 0.930 . S
H864 C810 0.930 . S
H865 C813 0.929 . S
H866 C818 0.929 . S
H867 C819 0.930 . S
H868 C826 0.929 . S
H869 C827 0.930 . S
H870 C828 0.930 . S
H871 C829 0.930 . S
H872 C831 0.929 . S
H873 C832 0.930 . S
H874 C833 0.930 . S
H875 C834 0.930 . S
H876 C838 0.929 . S
H877 C840 0.930 . S
H878 C846 0.929 . S
H879 C847 0.930 . S
Li880 N897 1.990 . S
Li880 O940 1.956 . S
Li880 O941 1.970 . S
Li880 O942 1.961 . S
Li881 N905 1.990 . S
Li881 O940 1.970 . S
Li881 O941 1.956 . S
Li881 O943 1.961 . S
Li882 N927 1.990 . S
Li882 O940 1.961 . S
Li882 O942 1.956 . S
Li882 O943 1.970 . S
Li883 N933 1.990 . S
Li883 O941 1.961 . S
Li883 O942 1.970 . S
Li883 O943 1.956 . S
C884 C886 1.348 1_556 S
C884 C887 1.356 1_556 S
C884 O940 1.325 . S
N885 C888 1.314 . S
N885 C889 1.279 . S
C886 C884 1.348 1_554 S
C886 C888 1.353 . S
C886 H944 0.921 1_554 S
C887 C884 1.356 1_554 S
C887 C889 1.358 . S
C887 H945 0.945 . S
C888 N885 1.314 . S
C888 C886 1.353 . S
C888 H946 0.930 . S
C889 N885 1.279 . S
C889 C887 1.358 . S
C889 H947 0.930 . S
C890 C893 1.348 . S
C890 C894 1.356 . S
C890 O941 1.325 . S
C891 N892 1.279 . S
C891 C894 1.358 . S
C891 H948 0.930 . S
N892 C891 1.279 . S
N892 C895 1.314 . S
C893 C890 1.348 . S
C893 C895 1.353 . S
C893 H949 0.929 . S
C894 C890 1.356 . S
C894 C891 1.358 . S
C894 H950 0.930 . S
C895 N892 1.314 . S
C895 C893 1.353 . S
C895 H951 0.930 . S
C896 N897 1.314 . S
C896 C901 1.353 . S
C896 H902 0.930 . S
N897 Li880 1.990 . S
N897 C896 1.314 . S
N897 C899 1.279 . S
C898 C899 1.358 . S
C898 C900 1.356 1_655 S
C898 H952 0.930 . S
C899 N897 1.279 . S
C899 C898 1.358 . S
C899 H903 0.930 . S
C900 C898 1.356 1_455 S
C900 C901 1.348 1_455 S
C901 C896 1.353 . S
C901 C900 1.348 1_655 S
C901 H953 0.929 1_655 S
H902 C896 0.930 . S
H903 C899 0.930 . S
C904 N905 1.314 . S
C904 C906 1.353 . S
C904 H910 0.930 . S
N905 Li881 1.990 . S
N905 C904 1.314 . S
N905 C908 1.279 . S
C906 C904 1.353 . S
C906 C909 1.348 . S
C906 H954 0.929 . S
C907 C908 1.358 . S
C907 C909 1.356 . S
C907 H955 0.930 . S
C908 N905 1.279 . S
C908 C907 1.358 . S
C908 H911 0.930 . S
C909 C906 1.348 . S
C909 C907 1.356 . S
H910 C904 0.930 . S
H911 C908 0.930 . S
C912 C914 1.348 . S
C912 C915 1.356 . S
C912 O942 1.325 . S
N913 C916 1.314 . S
N913 C917 1.279 . S
C914 C912 1.348 . S
C914 C916 1.353 . S
C914 H956 0.929 . S
C915 C912 1.356 . S
C915 C917 1.358 . S
C915 H957 0.930 . S
C916 N913 1.314 . S
C916 C914 1.353 . S
C916 H958 0.930 . S
C917 N913 1.279 . S
C917 C915 1.358 . S
C917 H959 0.930 . S
C918 C919 1.348 . S
C918 C920 1.356 . S
C918 O943 1.325 . S
C919 C918 1.348 . S
C919 C921 1.353 . S
C919 H960 0.929 . S
C920 C918 1.356 . S
C920 C922 1.358 . S
C920 H961 0.930 . S
C921 C919 1.353 . S
C921 N923 1.314 . S
C921 H962 0.930 . S
C922 C920 1.358 . S
C922 N923 1.279 . S
C922 H963 0.930 . S
N923 C921 1.314 . S
N923 C922 1.279 . S
C924 C926 1.353 1_556 S
C924 N927 1.314 . S
C924 H930 0.930 . S
C925 N927 1.279 . S
C925 C928 1.358 . S
C925 H931 0.930 . S
C926 C924 1.353 1_554 S
C926 C929 1.348 1_554 S
C926 H964 0.929 . S
N927 Li882 1.990 . S
N927 C924 1.314 . S
N927 C925 1.279 . S
C928 C925 1.358 . S
C928 C929 1.356 . S
C928 H965 0.930 . S
C929 C926 1.348 1_556 S
C929 C928 1.356 . S
H930 C924 0.930 . S
H931 C925 0.930 . S
C932 N933 1.314 . S
C932 C934 1.353 . S
C932 H938 0.930 . S
N933 Li883 1.990 . S
N933 C932 1.314 . S
N933 C936 1.279 . S
C934 C932 1.353 . S
C934 C937 1.348 . S
C934 H966 0.929 . S
C935 C936 1.358 . S
C935 C937 1.356 . S
C935 H967 0.930 . S
C936 N933 1.279 . S
C936 C935 1.358 . S
C936 H939 0.930 . S
C937 C934 1.348 . S
C937 C935 1.356 . S
H938 C932 0.930 . S
H939 C936 0.930 . S
O940 Li880 1.956 . S
O940 Li881 1.970 . S
O940 Li882 1.961 . S
O940 C884 1.325 . S
O941 Li880 1.970 . S
O941 Li881 1.956 . S
O941 Li883 1.961 . S
O941 C890 1.325 . S
O942 Li880 1.961 . S
O942 Li882 1.956 . S
O942 Li883 1.970 . S
O942 C912 1.325 . S
O943 Li881 1.961 . S
O943 Li882 1.970 . S
O943 Li883 1.956 . S
O943 C918 1.325 . S
H944 C886 0.921 1_556 S
H945 C887 0.945 . S
H946 C888 0.930 . S
H947 C889 0.930 . S
H948 C891 0.930 . S
H949 C893 0.929 . S
H950 C894 0.930 . S
H951 C895 0.930 . S
H952 C898 0.930 . S
H953 C901 0.929 1_455 S
H954 C906 0.929 . S
H955 C907 0.930 . S
H956 C914 0.929 . S
H957 C915 0.930 . S
H958 C916 0.930 . S
H959 C917 0.930 . S
H960 C919 0.929 . S
H961 C920 0.930 . S
H962 C921 0.930 . S
H963 C922 0.930 . S
H964 C926 0.929 . S
H965 C928 0.930 . S
H966 C934 0.929 . S
H967 C935 0.930 . S
Li968 N985 1.990 . S
Li968 O1028 1.956 . S
Li968 O1029 1.970 . S
Li968 O1030 1.961 . S
Li969 N993 1.990 . S
Li969 O1028 1.970 . S
Li969 O1029 1.956 . S
Li969 O1031 1.961 . S
Li970 N1015 1.990 . S
Li970 O1028 1.961 . S
Li970 O1030 1.956 . S
Li970 O1031 1.970 . S
Li971 N1021 1.990 . S
Li971 O1029 1.961 . S
Li971 O1030 1.970 . S
Li971 O1031 1.956 . S
C972 C974 1.348 . S
C972 C975 1.356 . S
C972 O1028 1.325 . S
N973 C976 1.314 . S
N973 C977 1.279 . S
C974 C972 1.348 . S
C974 C976 1.353 . S
C974 H1032 0.929 . S
C975 C972 1.356 . S
C975 C977 1.358 . S
C975 H1033 0.930 . S
C976 N973 1.314 . S
C976 C974 1.353 . S
C976 H1034 0.930 . S
C977 N973 1.279 . S
C977 C975 1.358 . S
C977 H1035 0.930 . S
C978 C981 1.348 . S
C978 C982 1.356 . S
C978 O1029 1.325 . S
C979 N980 1.279 . S
C979 C982 1.358 . S
C979 H1036 0.930 . S
N980 C979 1.279 . S
N980 C983 1.314 . S
C981 C978 1.348 . S
C981 C983 1.353 . S
C981 H1037 0.929 . S
C982 C978 1.356 . S
C982 C979 1.358 . S
C982 H1038 0.930 . S
C983 N980 1.314 . S
C983 C981 1.353 . S
C983 H1039 0.930 . S
C984 N985 1.314 . S
C984 C989 1.353 . S
C984 H990 0.930 . S
N985 Li968 1.990 . S
N985 C984 1.314 . S
N985 C987 1.279 . S
C986 C987 1.358 . S
C986 C988 1.356 . S
C986 H1040 0.930 . S
C987 N985 1.279 . S
C987 C986 1.358 . S
C987 H991 0.930 . S
C988 C986 1.356 . S
C988 C989 1.348 . S
C989 C984 1.353 . S
C989 C988 1.348 . S
C989 H1041 0.929 . S
H990 C984 0.930 . S
H991 C987 0.930 . S
C992 N993 1.314 . S
C992 C994 1.353 . S
C992 H998 0.930 . S
N993 Li969 1.990 . S
N993 C992 1.314 . S
N993 C996 1.279 . S
C994 C992 1.353 . S
C994 C997 1.348 1_565 S
C994 H1042 0.929 1_565 S
C995 C996 1.358 . S
C995 C997 1.356 1_565 S
C995 H1043 0.930 . S
C996 N993 1.279 . S
C996 C995 1.358 . S
C996 H999 0.930 . S
C997 C994 1.348 1_545 S
C997 C995 1.356 1_545 S
H998 C992 0.930 . S
H999 C996 0.930 . S
C1000 C1002 1.348 . S
C1000 C1003 1.356 . S
C1000 O1030 1.325 . S
N1001 C1004 1.314 . S
N1001 C1005 1.279 . S
C1002 C1000 1.348 . S
C1002 C1004 1.353 . S
C1002 H1044 0.929 . S
C1003 C1000 1.356 . S
C1003 C1005 1.358 . S
C1003 H1045 0.930 . S
C1004 N1001 1.314 . S
C1004 C1002 1.353 . S
C1004 H1046 0.930 . S
C1005 N1001 1.279 . S
C1005 C1003 1.358 . S
C1005 H1047 0.930 . S
C1006 C1007 1.348 . S
C1006 C1008 1.356 . S
C1006 O1031 1.325 . S
C1007 C1006 1.348 . S
C1007 C1009 1.353 . S
C1007 H1048 0.929 . S
C1008 C1006 1.356 . S
C1008 C1010 1.358 . S
C1008 H1049 0.930 . S
C1009 C1007 1.353 . S
C1009 N1011 1.314 . S
C1009 H1050 0.930 . S
C1010 C1008 1.358 . S
C1010 N1011 1.279 . S
C1010 H1051 0.930 . S
N1011 C1009 1.314 . S
N1011 C1010 1.279 . S
C1012 C1014 1.353 . S
C1012 N1015 1.314 . S
C1012 H1018 0.930 . S
C1013 N1015 1.279 . S
C1013 C1016 1.358 . S
C1013 H1019 0.930 . S
C1014 C1012 1.353 . S
C1014 C1017 1.348 . S
C1014 H1052 0.929 . S
N1015 Li970 1.990 . S
N1015 C1012 1.314 . S
N1015 C1013 1.279 . S
C1016 C1013 1.358 . S
C1016 C1017 1.356 . S
C1016 H1053 0.930 . S
C1017 C1014 1.348 . S
C1017 C1016 1.356 . S
H1018 C1012 0.930 . S
H1019 C1013 0.930 . S
C1020 N1021 1.314 . S
C1020 C1022 1.353 . S
C1020 H1026 0.930 . S
N1021 Li971 1.990 . S
N1021 C1020 1.314 . S
N1021 C1024 1.279 . S
C1022 C1020 1.353 . S
C1022 C1025 1.348 . S
C1022 H1054 0.929 . S
C1023 C1024 1.358 . S
C1023 C1025 1.356 . S
C1023 H1055 0.930 . S
C1024 N1021 1.279 . S
C1024 C1023 1.358 . S
C1024 H1027 0.930 . S
C1025 C1022 1.348 . S
C1025 C1023 1.356 . S
H1026 C1020 0.930 . S
H1027 C1024 0.930 . S
O1028 Li968 1.956 . S
O1028 Li969 1.970 . S
O1028 Li970 1.961 . S
O1028 C972 1.325 . S
O1029 Li968 1.970 . S
O1029 Li969 1.956 . S
O1029 Li971 1.961 . S
O1029 C978 1.325 . S
O1030 Li968 1.961 . S
O1030 Li970 1.956 . S
O1030 Li971 1.970 . S
O1030 C1000 1.325 . S
O1031 Li969 1.961 . S
O1031 Li970 1.970 . S
O1031 Li971 1.956 . S
O1031 C1006 1.325 . S
H1032 C974 0.929 . S
H1033 C975 0.930 . S
H1034 C976 0.930 . S
H1035 C977 0.930 . S
H1036 C979 0.930 . S
H1037 C981 0.929 . S
H1038 C982 0.930 . S
H1039 C983 0.930 . S
H1040 C986 0.930 . S
H1041 C989 0.929 . S
H1042 C994 0.929 1_545 S
H1043 C995 0.930 . S
H1044 C1002 0.929 . S
H1045 C1003 0.930 . S
H1046 C1004 0.930 . S
H1047 C1005 0.930 . S
H1048 C1007 0.929 . S
H1049 C1008 0.930 . S
H1050 C1009 0.930 . S
H1051 C1010 0.930 . S
H1052 C1014 0.929 . S
H1053 C1016 0.930 . S
H1054 C1022 0.929 . S
H1055 C1023 0.930 . S
C1056 C1057 1.347 1_554 S
C1056 C1062 1.379 1_565 S
C1056 N1064 1.356 . S
C1057 C1056 1.347 1_556 S
C1057 C1063 1.378 . S
C1058 C1059 1.347 1_556 S
C1058 C1063 1.379 1_545 S
C1058 N1065 1.356 . S
C1059 C1058 1.347 1_554 S
C1059 C1062 1.378 . S
N1060 C1062 1.356 . S
N1060 H1072 0.984 . S
N1060 H1073 0.985 . S
N1061 C1063 1.356 . S
N1061 H1066 0.984 . S
N1061 H1067 0.985 . S
C1062 C1056 1.379 1_545 S
C1062 C1059 1.378 . S
C1062 N1060 1.356 . S
C1063 C1057 1.378 . S
C1063 C1058 1.379 1_565 S
C1063 N1061 1.356 . S
N1064 C1056 1.356 . S
N1064 H1070 0.984 . S
N1064 H1071 0.984 . S
N1065 C1058 1.356 . S
N1065 H1068 0.984 . S
N1065 H1069 0.985 . S
H1066 N1061 0.984 . S
H1067 N1061 0.985 . S
H1068 N1065 0.984 . S
H1069 N1065 0.985 . S
H1070 N1064 0.984 . S
H1071 N1064 0.984 . S
H1072 N1060 0.984 . S
H1073 N1060 0.985 . S
C1074 C1075 1.363 . S
C1074 C1080 1.379 . S
C1074 N1082 1.356 . S
C1075 C1074 1.363 . S
C1075 C1081 1.363 . S
C1076 C1077 1.363 . S
C1076 C1081 1.379 . S
C1076 N1083 1.356 . S
C1077 C1076 1.363 . S
C1077 C1080 1.363 . S
N1078 C1080 1.356 . S
N1078 H1090 0.984 . S
N1078 H1091 0.985 . S
N1079 C1081 1.356 . S
N1079 H1084 0.984 . S
N1079 H1085 0.985 . S
C1080 C1074 1.379 . S
C1080 C1077 1.363 . S
C1080 N1078 1.356 . S
C1081 C1075 1.363 . S
C1081 C1076 1.379 . S
C1081 N1079 1.356 . S
N1082 C1074 1.356 . S
N1082 H1088 0.984 . S
N1082 H1089 0.984 . S
N1083 C1076 1.356 . S
N1083 H1086 0.984 . S
N1083 H1087 0.985 . S
H1084 N1079 0.984 . S
H1085 N1079 0.985 . S
H1086 N1083 0.984 . S
H1087 N1083 0.985 . S
H1088 N1082 0.984 . S
H1089 N1082 0.984 . S
H1090 N1078 0.984 . S
H1091 N1078 0.985 . S
C1092 C1093 1.363 . S
C1092 C1098 1.379 1_655 S
C1092 N1100 1.356 . S
C1093 C1092 1.363 . S
C1093 C1099 1.363 . S
C1094 C1095 1.363 . S
C1094 C1099 1.379 1_455 S
C1094 N1101 1.356 . S
C1095 C1094 1.363 . S
C1095 C1098 1.363 . S
N1096 C1098 1.356 . S
N1096 H1108 0.984 . S
N1096 H1109 0.985 . S
N1097 C1099 1.356 . S
N1097 H1102 0.984 . S
N1097 H1103 0.985 . S
C1098 C1092 1.379 1_455 S
C1098 C1095 1.363 . S
C1098 N1096 1.356 . S
C1099 C1093 1.363 . S
C1099 C1094 1.379 1_655 S
C1099 N1097 1.356 . S
N1100 C1092 1.356 . S
N1100 H1106 0.984 . S
N1100 H1107 0.984 . S
N1101 C1094 1.356 . S
N1101 H1104 0.984 . S
N1101 H1105 0.985 . S
H1102 N1097 0.984 . S
H1103 N1097 0.985 . S
H1104 N1101 0.984 . S
H1105 N1101 0.985 . S
H1106 N1100 0.984 . S
H1107 N1100 0.984 . S
H1108 N1096 0.984 . S
H1109 N1096 0.985 . S
C1110 C1111 1.347 1_556 S
C1110 C1116 1.379 1_565 S
C1110 N1118 1.356 . S
C1111 C1110 1.347 1_554 S
C1111 C1117 1.378 . S
C1112 C1113 1.347 1_554 S
C1112 C1117 1.379 1_545 S
C1112 N1119 1.356 . S
C1113 C1112 1.347 1_556 S
C1113 C1116 1.378 . S
N1114 C1116 1.356 . S
N1114 H1126 0.984 . S
N1114 H1127 0.985 . S
N1115 C1117 1.356 . S
N1115 H1120 0.984 . S
N1115 H1121 0.985 . S
C1116 C1110 1.379 1_545 S
C1116 C1113 1.378 . S
C1116 N1114 1.356 . S
C1117 C1111 1.378 . S
C1117 C1112 1.379 1_565 S
C1117 N1115 1.356 . S
N1118 C1110 1.356 . S
N1118 H1124 0.984 . S
N1118 H1125 0.984 . S
N1119 C1112 1.356 . S
N1119 H1122 0.984 . S
N1119 H1123 0.985 . S
H1120 N1115 0.984 . S
H1121 N1115 0.985 . S
H1122 N1119 0.984 . S
H1123 N1119 0.985 . S
H1124 N1118 0.984 . S
H1125 N1118 0.984 . S
H1126 N1114 0.984 . S
H1127 N1114 0.985 . S
C1128 C1129 1.363 . S
C1128 C1134 1.379 . S
C1128 N1136 1.356 . S
C1129 C1128 1.363 . S
C1129 C1135 1.363 . S
C1130 C1131 1.363 . S
C1130 C1135 1.379 . S
C1130 N1137 1.356 . S
C1131 C1130 1.363 . S
C1131 C1134 1.363 . S
N1132 C1134 1.356 . S
N1132 H1144 0.984 . S
N1132 H1145 0.985 . S
N1133 C1135 1.356 . S
N1133 H1138 0.984 . S
N1133 H1139 0.985 . S
C1134 C1128 1.379 . S
C1134 C1131 1.363 . S
C1134 N1132 1.356 . S
C1135 C1129 1.363 . S
C1135 C1130 1.379 . S
C1135 N1133 1.356 . S
N1136 C1128 1.356 . S
N1136 H1142 0.984 . S
N1136 H1143 0.984 . S
N1137 C1130 1.356 . S
N1137 H1140 0.984 . S
N1137 H1141 0.985 . S
H1138 N1133 0.984 . S
H1139 N1133 0.985 . S
H1140 N1137 0.984 . S
H1141 N1137 0.985 . S
H1142 N1136 0.984 . S
H1143 N1136 0.984 . S
H1144 N1132 0.984 . S
H1145 N1132 0.985 . S
C1146 C1147 1.363 . S
C1146 C1152 1.379 1_655 S
C1146 N1154 1.356 . S
C1147 C1146 1.363 . S
C1147 C1153 1.363 . S
C1148 C1149 1.363 . S
C1148 C1153 1.379 1_455 S
C1148 N1155 1.356 . S
C1149 C1148 1.363 . S
C1149 C1152 1.363 . S
N1150 C1152 1.356 . S
N1150 H1162 0.984 . S
N1150 H1163 0.985 . S
N1151 C1153 1.356 . S
N1151 H1156 0.984 . S
N1151 H1157 0.985 . S
C1152 C1146 1.379 1_455 S
C1152 C1149 1.363 . S
C1152 N1150 1.356 . S
C1153 C1147 1.363 . S
C1153 C1148 1.379 1_655 S
C1153 N1151 1.356 . S
N1154 C1146 1.356 . S
N1154 H1160 0.984 . S
N1154 H1161 0.984 . S
N1155 C1148 1.356 . S
N1155 H1158 0.984 . S
N1155 H1159 0.985 . S
H1156 N1151 0.984 . S
H1157 N1151 0.985 . S
H1158 N1155 0.984 . S
H1159 N1155 0.985 . S
H1160 N1154 0.984 . S
H1161 N1154 0.984 . S
H1162 N1150 0.984 . S
H1163 N1150 0.985 . S
C1164 C1165 1.363 1_554 S
C1164 C1170 1.379 . S
C1164 N1172 1.356 . S
C1165 C1164 1.363 1_556 S
C1165 C1171 1.363 . S
C1166 C1167 1.363 1_556 S
C1166 C1171 1.379 . S
C1166 N1173 1.356 . S
C1167 C1166 1.363 1_554 S
C1167 C1170 1.363 . S
N1168 C1170 1.356 . S
N1168 H1180 0.984 . S
N1168 H1181 0.985 . S
N1169 C1171 1.356 . S
N1169 H1174 0.984 . S
N1169 H1175 0.985 . S
C1170 C1164 1.379 . S
C1170 C1167 1.363 . S
C1170 N1168 1.356 . S
C1171 C1165 1.363 . S
C1171 C1166 1.379 . S
C1171 N1169 1.356 . S
N1172 C1164 1.356 . S
N1172 H1178 0.984 . S
N1172 H1179 0.984 1_554 S
N1173 C1166 1.356 . S
N1173 H1176 0.984 1_556 S
N1173 H1177 0.985 . S
H1174 N1169 0.984 . S
H1175 N1169 0.985 . S
H1176 N1173 0.984 1_554 S
H1177 N1173 0.985 . S
H1178 N1172 0.984 . S
H1179 N1172 0.984 1_556 S
H1180 N1168 0.984 . S
H1181 N1168 0.985 . S
C1182 C1183 1.363 . S
C1182 C1188 1.379 . S
C1182 N1190 1.356 . S
C1183 C1182 1.363 . S
C1183 C1189 1.363 . S
C1184 C1185 1.363 . S
C1184 C1189 1.379 . S
C1184 N1191 1.356 . S
C1185 C1184 1.363 . S
C1185 C1188 1.363 . S
N1186 C1188 1.356 . S
N1186 H1198 0.984 . S
N1186 H1199 0.985 . S
N1187 C1189 1.356 . S
N1187 H1192 0.984 . S
N1187 H1193 0.985 . S
C1188 C1182 1.379 . S
C1188 C1185 1.363 . S
C1188 N1186 1.356 . S
C1189 C1183 1.363 . S
C1189 C1184 1.379 . S
C1189 N1187 1.356 . S
N1190 C1182 1.356 . S
N1190 H1196 0.984 . S
N1190 H1197 0.984 . S
N1191 C1184 1.356 . S
N1191 H1194 0.984 . S
N1191 H1195 0.985 . S
H1192 N1187 0.984 . S
H1193 N1187 0.985 . S
H1194 N1191 0.984 . S
H1195 N1191 0.985 . S
H1196 N1190 0.984 . S
H1197 N1190 0.984 . S
H1198 N1186 0.984 . S
H1199 N1186 0.985 . S
C1200 C1201 1.363 . S
C1200 C1206 1.379 . S
C1200 N1208 1.356 . S
C1201 C1200 1.363 . S
C1201 C1207 1.363 . S
C1202 C1203 1.363 . S
C1202 C1207 1.379 . S
C1202 N1209 1.356 . S
C1203 C1202 1.363 . S
C1203 C1206 1.363 . S
N1204 C1206 1.356 . S
N1204 H1216 0.984 . S
N1204 H1217 0.985 . S
N1205 C1207 1.356 . S
N1205 H1210 0.984 . S
N1205 H1211 0.985 . S
C1206 C1200 1.379 . S
C1206 C1203 1.363 . S
C1206 N1204 1.356 . S
C1207 C1201 1.363 . S
C1207 C1202 1.379 . S
C1207 N1205 1.356 . S
N1208 C1200 1.356 . S
N1208 H1214 0.984 . S
N1208 H1215 0.984 . S
N1209 C1202 1.356 . S
N1209 H1212 0.984 . S
N1209 H1213 0.985 . S
H1210 N1205 0.984 . S
H1211 N1205 0.985 . S
H1212 N1209 0.984 . S
H1213 N1209 0.985 . S
H1214 N1208 0.984 . S
H1215 N1208 0.984 . S
H1216 N1204 0.984 . S
H1217 N1204 0.985 . S
C1218 C1219 1.363 1_554 S
C1218 C1224 1.379 . S
C1218 N1226 1.356 . S
C1219 C1218 1.363 1_556 S
C1219 C1225 1.363 . S
C1220 C1221 1.363 1_556 S
C1220 C1225 1.379 . S
C1220 N1227 1.356 . S
C1221 C1220 1.363 1_554 S
C1221 C1224 1.363 . S
N1222 C1224 1.356 . S
N1222 H1234 0.984 . S
N1222 H1235 0.985 . S
N1223 C1225 1.356 . S
N1223 H1228 0.984 . S
N1223 H1229 0.985 . S
C1224 C1218 1.379 . S
C1224 C1221 1.363 . S
C1224 N1222 1.356 . S
C1225 C1219 1.363 . S
C1225 C1220 1.379 . S
C1225 N1223 1.356 . S
N1226 C1218 1.356 . S
N1226 H1232 0.984 . S
N1226 H1233 0.984 1_554 S
N1227 C1220 1.356 . S
N1227 H1230 0.984 1_556 S
N1227 H1231 0.985 . S
H1228 N1223 0.984 . S
H1229 N1223 0.985 . S
H1230 N1227 0.984 1_554 S
H1231 N1227 0.985 . S
H1232 N1226 0.984 . S
H1233 N1226 0.984 1_556 S
H1234 N1222 0.984 . S
H1235 N1222 0.985 . S
C1236 C1237 1.363 . S
C1236 C1242 1.379 . S
C1236 N1244 1.356 . S
C1237 C1236 1.363 . S
C1237 C1243 1.363 . S
C1238 C1239 1.363 . S
C1238 C1243 1.379 . S
C1238 N1245 1.356 . S
C1239 C1238 1.363 . S
C1239 C1242 1.363 . S
N1240 C1242 1.356 . S
N1240 H1252 0.984 . S
N1240 H1253 0.985 . S
N1241 C1243 1.356 . S
N1241 H1246 0.984 . S
N1241 H1247 0.985 . S
C1242 C1236 1.379 . S
C1242 C1239 1.363 . S
C1242 N1240 1.356 . S
C1243 C1237 1.363 . S
C1243 C1238 1.379 . S
C1243 N1241 1.356 . S
N1244 C1236 1.356 . S
N1244 H1250 0.984 . S
N1244 H1251 0.984 . S
N1245 C1238 1.356 . S
N1245 H1248 0.984 . S
N1245 H1249 0.985 . S
H1246 N1241 0.984 . S
H1247 N1241 0.985 . S
H1248 N1245 0.984 . S
H1249 N1245 0.985 . S
H1250 N1244 0.984 . S
H1251 N1244 0.984 . S
H1252 N1240 0.984 . S
H1253 N1240 0.985 . S
C1254 C1255 1.363 . S
C1254 C1260 1.379 . S
C1254 N1262 1.356 . S
C1255 C1254 1.363 . S
C1255 C1261 1.363 . S
C1256 C1257 1.363 . S
C1256 C1261 1.379 . S
C1256 N1263 1.356 . S
C1257 C1256 1.363 . S
C1257 C1260 1.363 . S
N1258 C1260 1.356 . S
N1258 H1270 0.984 . S
N1258 H1271 0.985 . S
N1259 C1261 1.356 . S
N1259 H1264 0.984 . S
N1259 H1265 0.985 . S
C1260 C1254 1.379 . S
C1260 C1257 1.363 . S
C1260 N1258 1.356 . S
C1261 C1255 1.363 . S
C1261 C1256 1.379 . S
C1261 N1259 1.356 . S
N1262 C1254 1.356 . S
N1262 H1268 0.984 . S
N1262 H1269 0.984 . S
N1263 C1256 1.356 . S
N1263 H1266 0.984 . S
N1263 H1267 0.985 . S
H1264 N1259 0.984 . S
H1265 N1259 0.985 . S
H1266 N1263 0.984 . S
H1267 N1263 0.985 . S
H1268 N1262 0.984 . S
H1269 N1262 0.984 . S
H1270 N1258 0.984 . S
H1271 N1258 0.985 . S
C1272 C1273 1.363 . S
C1272 C1278 1.379 . S
C1272 N1280 1.356 . S
C1273 C1272 1.363 . S
C1273 C1279 1.363 . S
C1274 C1275 1.363 . S
C1274 C1279 1.379 . S
C1274 N1281 1.356 . S
C1275 C1274 1.363 . S
C1275 C1278 1.363 . S
N1276 C1278 1.356 . S
N1276 H1288 0.984 . S
N1276 H1289 0.985 . S
N1277 C1279 1.356 . S
N1277 H1282 0.984 . S
N1277 H1283 0.985 . S
C1278 C1272 1.379 . S
C1278 C1275 1.363 . S
C1278 N1276 1.356 . S
C1279 C1273 1.363 . S
C1279 C1274 1.379 . S
C1279 N1277 1.356 . S
N1280 C1272 1.356 . S
N1280 H1286 0.984 . S
N1280 H1287 0.984 . S
N1281 C1274 1.356 . S
N1281 H1284 0.984 . S
N1281 H1285 0.985 . S
H1282 N1277 0.984 . S
H1283 N1277 0.985 . S
H1284 N1281 0.984 . S
H1285 N1281 0.985 . S
H1286 N1280 0.984 . S
H1287 N1280 0.984 . S
H1288 N1276 0.984 . S
H1289 N1276 0.985 . S
C1290 C1291 1.363 . S
C1290 C1296 1.379 . S
C1290 N1298 1.356 . S
C1291 C1290 1.363 . S
C1291 C1297 1.363 . S
C1292 C1293 1.363 . S
C1292 C1297 1.379 . S
C1292 N1299 1.356 . S
C1293 C1292 1.363 . S
C1293 C1296 1.363 . S
N1294 C1296 1.356 . S
N1294 H1306 0.984 . S
N1294 H1307 0.985 . S
N1295 C1297 1.356 . S
N1295 H1300 0.984 . S
N1295 H1301 0.985 . S
C1296 C1290 1.379 . S
C1296 C1293 1.363 . S
C1296 N1294 1.356 . S
C1297 C1291 1.363 . S
C1297 C1292 1.379 . S
C1297 N1295 1.356 . S
N1298 C1290 1.356 . S
N1298 H1304 0.984 . S
N1298 H1305 0.984 . S
N1299 C1292 1.356 . S
N1299 H1302 0.984 . S
N1299 H1303 0.985 . S
H1300 N1295 0.984 . S
H1301 N1295 0.985 . S
H1302 N1299 0.984 . S
H1303 N1299 0.985 . S
H1304 N1298 0.984 . S
H1305 N1298 0.984 . S
H1306 N1294 0.984 . S
H1307 N1294 0.985 . S
C1308 C1309 1.363 . S
C1308 C1314 1.379 . S
C1308 N1316 1.356 . S
C1309 C1308 1.363 . S
C1309 C1315 1.363 . S
C1310 C1311 1.363 . S
C1310 C1315 1.379 . S
C1310 N1317 1.356 . S
C1311 C1310 1.363 . S
C1311 C1314 1.363 . S
N1312 C1314 1.356 . S
N1312 H1324 0.984 . S
N1312 H1325 0.985 . S
N1313 C1315 1.356 . S
N1313 H1318 0.984 . S
N1313 H1319 0.985 . S
C1314 C1308 1.379 . S
C1314 C1311 1.363 . S
C1314 N1312 1.356 . S
C1315 C1309 1.363 . S
C1315 C1310 1.379 . S
C1315 N1313 1.356 . S
N1316 C1308 1.356 . S
N1316 H1322 0.984 . S
N1316 H1323 0.984 . S
N1317 C1310 1.356 . S
N1317 H1320 0.984 . S
N1317 H1321 0.985 . S
H1318 N1313 0.984 . S
H1319 N1313 0.985 . S
H1320 N1317 0.984 . S
H1321 N1317 0.985 . S
H1322 N1316 0.984 . S
H1323 N1316 0.984 . S
H1324 N1312 0.984 . S
H1325 N1312 0.985 . S
C1326 C1327 1.363 . S
C1326 C1332 1.379 . S
C1326 N1334 1.356 . S
C1327 C1326 1.363 . S
C1327 C1333 1.363 . S
C1328 C1329 1.363 . S
C1328 C1333 1.379 . S
C1328 N1335 1.356 . S
C1329 C1328 1.363 . S
C1329 C1332 1.363 . S
N1330 C1332 1.356 . S
N1330 H1342 0.984 . S
N1330 H1343 0.985 . S
N1331 C1333 1.356 . S
N1331 H1336 0.984 . S
N1331 H1337 0.985 . S
C1332 C1326 1.379 . S
C1332 C1329 1.363 . S
C1332 N1330 1.356 . S
C1333 C1327 1.363 . S
C1333 C1328 1.379 . S
C1333 N1331 1.356 . S
N1334 C1326 1.356 . S
N1334 H1340 0.984 . S
N1334 H1341 0.984 . S
N1335 C1328 1.356 . S
N1335 H1338 0.984 . S
N1335 H1339 0.985 . S
H1336 N1331 0.984 . S
H1337 N1331 0.985 . S
H1338 N1335 0.984 . S
H1339 N1335 0.985 . S
H1340 N1334 0.984 . S
H1341 N1334 0.984 . S
H1342 N1330 0.984 . S
H1343 N1330 0.985 . S
C1344 C1345 1.363 . S
C1344 C1350 1.379 . S
C1344 N1352 1.356 . S
C1345 C1344 1.363 . S
C1345 C1351 1.363 . S
C1346 C1347 1.363 . S
C1346 C1351 1.379 . S
C1346 N1353 1.356 . S
C1347 C1346 1.363 . S
C1347 C1350 1.363 . S
N1348 C1350 1.356 . S
N1348 H1360 0.984 . S
N1348 H1361 0.985 . S
N1349 C1351 1.356 . S
N1349 H1354 0.984 . S
N1349 H1355 0.985 . S
C1350 C1344 1.379 . S
C1350 C1347 1.363 . S
C1350 N1348 1.356 . S
C1351 C1345 1.363 . S
C1351 C1346 1.379 . S
C1351 N1349 1.356 . S
N1352 C1344 1.356 . S
N1352 H1358 0.984 . S
N1352 H1359 0.984 . S
N1353 C1346 1.356 . S
N1353 H1356 0.984 . S
N1353 H1357 0.985 . S
H1354 N1349 0.984 . S
H1355 N1349 0.985 . S
H1356 N1353 0.984 . S
H1357 N1353 0.985 . S
H1358 N1352 0.984 . S
H1359 N1352 0.984 . S
H1360 N1348 0.984 . S
H1361 N1348 0.985 . S
C1362 C1363 1.363 . S
C1362 C1368 1.379 . S
C1362 N1370 1.356 . S
C1363 C1362 1.363 . S
C1363 C1369 1.363 . S
C1364 C1365 1.363 . S
C1364 C1369 1.379 . S
C1364 N1371 1.356 . S
C1365 C1364 1.363 . S
C1365 C1368 1.363 . S
N1366 C1368 1.356 . S
N1366 H1378 0.984 . S
N1366 H1379 0.985 . S
N1367 C1369 1.356 . S
N1367 H1372 0.984 . S
N1367 H1373 0.985 . S
C1368 C1362 1.379 . S
C1368 C1365 1.363 . S
C1368 N1366 1.356 . S
C1369 C1363 1.363 . S
C1369 C1364 1.379 . S
C1369 N1367 1.356 . S
N1370 C1362 1.356 . S
N1370 H1376 0.984 . S
N1370 H1377 0.984 . S
N1371 C1364 1.356 . S
N1371 H1374 0.984 . S
N1371 H1375 0.985 . S
H1372 N1367 0.984 . S
H1373 N1367 0.985 . S
H1374 N1371 0.984 . S
H1375 N1371 0.985 . S
H1376 N1370 0.984 . S
H1377 N1370 0.984 . S
H1378 N1366 0.984 . S
H1379 N1366 0.985 . S
C1380 C1381 1.363 . S
C1380 C1386 1.379 . S
C1380 N1388 1.356 . S
C1381 C1380 1.363 . S
C1381 C1387 1.363 . S
C1382 C1383 1.363 . S
C1382 C1387 1.379 . S
C1382 N1389 1.356 . S
C1383 C1382 1.363 . S
C1383 C1386 1.363 . S
N1384 C1386 1.356 . S
N1384 H1396 0.984 1_554 S
N1384 H1397 0.985 . S
N1385 C1387 1.356 . S
N1385 H1390 0.984 . S
N1385 H1391 0.985 . S
C1386 C1380 1.379 . S
C1386 C1383 1.363 . S
C1386 N1384 1.356 . S
C1387 C1381 1.363 . S
C1387 C1382 1.379 . S
C1387 N1385 1.356 . S
N1388 C1380 1.356 . S
N1388 H1394 0.984 1_554 S
N1388 H1395 0.984 . S
N1389 C1382 1.356 . S
N1389 H1392 0.984 . S
N1389 H1393 0.985 . S
H1390 N1385 0.984 . S
H1391 N1385 0.985 . S
H1392 N1389 0.984 . S
H1393 N1389 0.985 . S
H1394 N1388 0.984 1_556 S
H1395 N1388 0.984 . S
H1396 N1384 0.984 1_556 S
H1397 N1384 0.985 . S
C1398 C1399 1.363 . S
C1398 C1404 1.379 . S
C1398 N1406 1.356 . S
C1399 C1398 1.363 . S
C1399 C1405 1.363 1_455 S
C1400 C1401 1.363 . S
C1400 C1405 1.379 . S
C1400 N1407 1.356 . S
C1401 C1400 1.363 . S
C1401 C1404 1.363 1_655 S
N1402 C1404 1.356 . S
N1402 H1414 0.984 . S
N1402 H1415 0.985 . S
N1403 C1405 1.356 . S
N1403 H1408 0.984 . S
N1403 H1409 0.985 . S
C1404 C1398 1.379 . S
C1404 C1401 1.363 1_455 S
C1404 N1402 1.356 . S
C1405 C1399 1.363 1_655 S
C1405 C1400 1.379 . S
C1405 N1403 1.356 . S
N1406 C1398 1.356 . S
N1406 H1412 0.984 . S
N1406 H1413 0.984 . S
N1407 C1400 1.356 . S
N1407 H1410 0.984 . S
N1407 H1411 0.985 . S
H1408 N1403 0.984 . S
H1409 N1403 0.985 . S
H1410 N1407 0.984 . S
H1411 N1407 0.985 . S
H1412 N1406 0.984 . S
H1413 N1406 0.984 . S
H1414 N1402 0.984 . S
H1415 N1402 0.985 . S
C1416 C1417 1.363 . S
C1416 C1422 1.379 . S
C1416 N1424 1.356 . S
C1417 C1416 1.363 . S
C1417 C1423 1.363 1_565 S
C1418 C1419 1.363 . S
C1418 C1423 1.379 . S
C1418 N1425 1.356 . S
C1419 C1418 1.363 . S
C1419 C1422 1.363 1_545 S
N1420 C1422 1.356 . S
N1420 H1432 0.984 . S
N1420 H1433 0.985 . S
N1421 C1423 1.356 . S
N1421 H1426 0.984 . S
N1421 H1427 0.985 . S
C1422 C1416 1.379 . S
C1422 C1419 1.363 1_565 S
C1422 N1420 1.356 . S
C1423 C1417 1.363 1_545 S
C1423 C1418 1.379 . S
C1423 N1421 1.356 . S
N1424 C1416 1.356 . S
N1424 H1430 0.984 . S
N1424 H1431 0.984 . S
N1425 C1418 1.356 . S
N1425 H1428 0.984 . S
N1425 H1429 0.985 . S
H1426 N1421 0.984 . S
H1427 N1421 0.985 . S
H1428 N1425 0.984 . S
H1429 N1425 0.985 . S
H1430 N1424 0.984 . S
H1431 N1424 0.984 . S
H1432 N1420 0.984 . S
H1433 N1420 0.985 . S
C1434 C1435 1.363 . S
C1434 C1440 1.379 . S
C1434 N1442 1.356 . S
C1435 C1434 1.363 . S
C1435 C1441 1.363 . S
C1436 C1437 1.363 . S
C1436 C1441 1.379 . S
C1436 N1443 1.356 . S
C1437 C1436 1.363 . S
C1437 C1440 1.363 . S
N1438 C1440 1.356 . S
N1438 H1450 0.984 . S
N1438 H1451 0.985 . S
N1439 C1441 1.356 . S
N1439 H1444 0.984 . S
N1439 H1445 0.985 . S
C1440 C1434 1.379 . S
C1440 C1437 1.363 . S
C1440 N1438 1.356 . S
C1441 C1435 1.363 . S
C1441 C1436 1.379 . S
C1441 N1439 1.356 . S
N1442 C1434 1.356 . S
N1442 H1448 0.984 . S
N1442 H1449 0.984 . S
N1443 C1436 1.356 . S
N1443 H1446 0.984 . S
N1443 H1447 0.985 . S
H1444 N1439 0.984 . S
H1445 N1439 0.985 . S
H1446 N1443 0.984 . S
H1447 N1443 0.985 . S
H1448 N1442 0.984 . S
H1449 N1442 0.984 . S
H1450 N1438 0.984 . S
H1451 N1438 0.985 . S
C1452 C1453 1.363 . S
C1452 C1458 1.379 . S
C1452 N1460 1.356 . S
C1453 C1452 1.363 . S
C1453 C1459 1.363 1_655 S
C1454 C1455 1.363 . S
C1454 C1459 1.379 . S
C1454 N1461 1.356 . S
C1455 C1454 1.363 . S
C1455 C1458 1.363 1_455 S
N1456 C1458 1.356 . S
N1456 H1468 0.984 . S
N1456 H1469 0.985 . S
N1457 C1459 1.356 . S
N1457 H1462 0.984 . S
N1457 H1463 0.985 1_556 S
C1458 C1452 1.379 . S
C1458 C1455 1.363 1_655 S
C1458 N1456 1.356 . S
C1459 C1453 1.363 1_455 S
C1459 C1454 1.379 . S
C1459 N1457 1.356 . S
N1460 C1452 1.356 . S
N1460 H1466 0.984 . S
N1460 H1467 0.984 . S
N1461 C1454 1.356 . S
N1461 H1464 0.984 . S
N1461 H1465 0.985 1_556 S
H1462 N1457 0.984 . S
H1463 N1457 0.985 1_554 S
H1464 N1461 0.984 . S
H1465 N1461 0.985 1_554 S
H1466 N1460 0.984 . S
H1467 N1460 0.984 . S
H1468 N1456 0.984 . S
H1469 N1456 0.985 . S
C1470 C1471 1.363 . S
C1470 C1476 1.379 . S
C1470 N1478 1.356 . S
C1471 C1470 1.363 . S
C1471 C1477 1.363 1_545 S
C1472 C1473 1.363 . S
C1472 C1477 1.379 . S
C1472 N1479 1.356 . S
C1473 C1472 1.363 . S
C1473 C1476 1.363 1_565 S
N1474 C1476 1.356 . S
N1474 H1486 0.984 . S
N1474 H1487 0.985 . S
N1475 C1477 1.356 . S
N1475 H1480 0.984 . S
N1475 H1481 0.985 . S
C1476 C1470 1.379 . S
C1476 C1473 1.363 1_545 S
C1476 N1474 1.356 . S
C1477 C1471 1.363 1_565 S
C1477 C1472 1.379 . S
C1477 N1475 1.356 . S
N1478 C1470 1.356 . S
N1478 H1484 0.984 . S
N1478 H1485 0.984 . S
N1479 C1472 1.356 . S
N1479 H1482 0.984 . S
N1479 H1483 0.985 . S
H1480 N1475 0.984 . S
H1481 N1475 0.985 . S
H1482 N1479 0.984 . S
H1483 N1479 0.985 . S
H1484 N1478 0.984 . S
H1485 N1478 0.984 . S
H1486 N1474 0.984 . S
H1487 N1474 0.985 . S
C1057 C673 1.686 . S
C1059 C29 1.686 . S
C1075 C137 1.681 . S
C1077 C753 1.682 . S
C1093 C233 1.682 . S
C1095 C849 1.682 . S
C1111 C284 1.686 . S
C1113 C929 1.686 . S
C1129 C1025 1.682 . S
C1131 C372 1.681 . S
C1147 C557 1.682 . S
C1149 C460 1.682 . S
C1165 C909 1.062 . S
C1167 C49 1.062 . S
C1183 C117 1.062 . S
C1185 C988 1.062 . S
C1201 C196 1.062 . S
C1203 C577 1.062 . S
C1219 C636 1.062 . S
C1221 C321 1.062 . S
C1237 C733 1.062 . S
C1239 C409 1.062 . S
C1255 C812 1.062 . S
C1257 C497 1.062 . S
C1273 C20 1.636 . S
C1275 C761 1.636 . S
C1291 C145 1.637 . S
C1293 C841 1.637 . S
C1309 C937 1.636 . S
C1311 C225 1.636 . S
C1327 C293 1.637 . S
C1329 C1017 1.637 . S
C1345 C548 1.636 . S
C1347 C381 1.636 . S
C1363 C665 1.637 . S
C1365 C469 1.637 . S
C1381 C313 2.267 . S
C1383 C57 2.267 . S
C1399 C401 2.268 . S
C1401 C108 2.268 . S
C1417 C205 2.268 . S
C1419 C489 2.268 . S
C1435 C585 2.267 . S
C1437 C821 2.267 . S
C1453 C645 2.268 . S
C1455 C900 2.268 . S
C1471 C997 2.267 . S
C1473 C724 2.267 . S
