# Generated by pormake.
# Topology ukk, (4)-cn, num edge types: 1
# Building blocks:
#     Node 0, Type 0, BuildingBlock: ESEHIV_clean_sbu_0, # of connection points: 4
#     Node 1, Type 0, BuildingBlock: ESEHIV_clean_sbu_0, # of connection points: 4
#     Node 2, Type 0, BuildingBlock: ESEHIV_clean_sbu_0, # of connection points: 4
#     Node 3, Type 0, BuildingBlock: ESEHIV_clean_sbu_0, # of connection points: 4
#     Node 4, Type 0, BuildingBlock: ESEHIV_clean_sbu_0, # of connection points: 4
#     Node 5, Type 0, BuildingBlock: ESEHIV_clean_sbu_0, # of connection points: 4
#     Node 6, Type 0, BuildingBlock: ESEHIV_clean_sbu_0, # of connection points: 4
#     Node 7, Type 0, BuildingBlock: ESEHIV_clean_sbu_0, # of connection points: 4
#     Node 8, Type 0, BuildingBlock: ESEHIV_clean_sbu_0, # of connection points: 4
#     Node 9, Type 0, BuildingBlock: ESEHIV_clean_sbu_0, # of connection points: 4
#     Node 10, Type 0, BuildingBlock: ESEHIV_clean_sbu_0, # of connection points: 4
#     Node 11, Type 0, BuildingBlock: ESEHIV_clean_sbu_0, # of connection points: 4
#     Node 12, Type 0, BuildingBlock: ESEHIV_clean_sbu_0, # of connection points: 4
#     Node 13, Type 0, BuildingBlock: ESEHIV_clean_sbu_0, # of connection points: 4
#     Node 14, Type 0, BuildingBlock: ESEHIV_clean_sbu_0, # of connection points: 4
#     Node 15, Type 0, BuildingBlock: ESEHIV_clean_sbu_0, # of connection points: 4
#     Edge 16, Type (0, 0), BuildingBlock: CIFDUS_clean_linker_0, # of connection points: 2
#     Edge 17, Type (0, 0), BuildingBlock: CIFDUS_clean_linker_0, # of connection points: 2
#     Edge 18, Type (0, 0), BuildingBlock: CIFDUS_clean_linker_0, # of connection points: 2
#     Edge 19, Type (0, 0), BuildingBlock: CIFDUS_clean_linker_0, # of connection points: 2
#     Edge 20, Type (0, 0), BuildingBlock: CIFDUS_clean_linker_0, # of connection points: 2
#     Edge 21, Type (0, 0), BuildingBlock: CIFDUS_clean_linker_0, # of connection points: 2
#     Edge 22, Type (0, 0), BuildingBlock: CIFDUS_clean_linker_0, # of connection points: 2
#     Edge 23, Type (0, 0), BuildingBlock: CIFDUS_clean_linker_0, # of connection points: 2
#     Edge 24, Type (0, 0), BuildingBlock: CIFDUS_clean_linker_0, # of connection points: 2
#     Edge 25, Type (0, 0), BuildingBlock: CIFDUS_clean_linker_0, # of connection points: 2
#     Edge 26, Type (0, 0), BuildingBlock: CIFDUS_clean_linker_0, # of connection points: 2
#     Edge 27, Type (0, 0), BuildingBlock: CIFDUS_clean_linker_0, # of connection points: 2
#     Edge 28, Type (0, 0), BuildingBlock: CIFDUS_clean_linker_0, # of connection points: 2
#     Edge 29, Type (0, 0), BuildingBlock: CIFDUS_clean_linker_0, # of connection points: 2
#     Edge 30, Type (0, 0), BuildingBlock: CIFDUS_clean_linker_0, # of connection points: 2
#     Edge 31, Type (0, 0), BuildingBlock: CIFDUS_clean_linker_0, # of connection points: 2
#     Edge 32, Type (0, 0), BuildingBlock: CIFDUS_clean_linker_0, # of connection points: 2
#     Edge 33, Type (0, 0), BuildingBlock: CIFDUS_clean_linker_0, # of connection points: 2
#     Edge 34, Type (0, 0), BuildingBlock: CIFDUS_clean_linker_0, # of connection points: 2
#     Edge 35, Type (0, 0), BuildingBlock: CIFDUS_clean_linker_0, # of connection points: 2
#     Edge 36, Type (0, 0), BuildingBlock: CIFDUS_clean_linker_0, # of connection points: 2
#     Edge 37, Type (0, 0), BuildingBlock: CIFDUS_clean_linker_0, # of connection points: 2
#     Edge 38, Type (0, 0), BuildingBlock: CIFDUS_clean_linker_0, # of connection points: 2
#     Edge 39, Type (0, 0), BuildingBlock: CIFDUS_clean_linker_0, # of connection points: 2
#     Edge 40, Type (0, 0), BuildingBlock: CIFDUS_clean_linker_0, # of connection points: 2
#     Edge 41, Type (0, 0), BuildingBlock: CIFDUS_clean_linker_0, # of connection points: 2
#     Edge 42, Type (0, 0), BuildingBlock: CIFDUS_clean_linker_0, # of connection points: 2
#     Edge 43, Type (0, 0), BuildingBlock: CIFDUS_clean_linker_0, # of connection points: 2
#     Edge 44, Type (0, 0), BuildingBlock: CIFDUS_clean_linker_0, # of connection points: 2
#     Edge 45, Type (0, 0), BuildingBlock: CIFDUS_clean_linker_0, # of connection points: 2
#     Edge 46, Type (0, 0), BuildingBlock: CIFDUS_clean_linker_0, # of connection points: 2
#     Edge 47, Type (0, 0), BuildingBlock: CIFDUS_clean_linker_0, # of connection points: 2
# Relax obj value: 0.040
# Max RMSD: 0.119
# Mean RMSD: 0.119
data_MOF--net-ukk--node1-ESEHIV_clean_sbu_0--edge1-CIFDUS_clean_linker_0
_symmetry_space_group_name_H-M    P1
_symmetry_Int_Tables_number       1
_symmetry_cell_setting            triclinic
loop_
_symmetry_equiv_pos_as_xyz
'x, y, z'
_cell_length_a     50.435028
_cell_length_b     50.565004
_cell_length_c     20.796327
_cell_angle_alpha  89.963919
_cell_angle_beta   90.175897
_cell_angle_gamma 89.993524
loop_
_atom_site_label
_atom_site_type_symbol
_atom_site_fract_x
_atom_site_fract_y
_atom_site_fract_z
_atom_type_partial_charge
Cu0 Cu 0.37626 0.13724 0.12045 0.0
N1 N 0.39636 0.14514 0.19337 0.0
N2 N 0.43543 0.15061 0.24304 0.0
C3 C 0.42162 0.13688 0.19858 0.0
C4 C 0.41799 0.16822 0.26736 0.0
C5 C 0.39388 0.16487 0.23638 0.0
O6 O 0.38708 0.1012 0.09659 0.0
C7 C 0.37086 0.18816 0.07461 0.0
O8 O 0.3529 0.18743 0.12001 0.0
H9 H 0.43038 0.12286 0.16557 0.0
H10 H 0.37661 0.17737 0.24109 0.0
N11 N 0.33941 0.13587 0.13274 0.0
N12 N 0.29701 0.13238 0.10303 0.0
C13 C 0.32242 0.12819 0.08635 0.0
C14 C 0.32411 0.14484 0.18113 0.0
C15 C 0.29781 0.14302 0.1624 0.0
C16 C 0.37926 0.08403 0.13759 0.0
O17 O 0.36544 0.0923 0.18712 0.0
H18 H 0.32865 0.12096 0.03978 0.0
H19 H 0.33157 0.15338 0.22528 0.0
O20 O 0.3838 0.16701 0.06211 0.0
H21 H 0.42264 0.18334 0.30245 0.0
H22 H 0.28071 0.14953 0.18944 0.0
Cu23 Cu 0.14748 0.66237 0.90923 0.0
N24 N 0.15198 0.6256 0.91887 0.0
N25 N 0.15368 0.58253 0.8935 0.0
C26 C 0.14143 0.60596 0.8828 0.0
C27 C 0.17246 0.58758 0.93809 0.0
C28 C 0.17132 0.61406 0.95371 0.0
O29 O 0.11725 0.66864 0.85108 0.0
C30 C 0.19641 0.66307 0.84158 0.0
O31 O 0.18707 0.64168 0.81386 0.0
H32 H 0.12639 0.6091 0.84635 0.0
H33 H 0.18474 0.62455 0.98535 0.0
N34 N 0.1404 0.67854 0.98908 0.0
N35 N 0.13867 0.70828 0.06955 0.0
C36 C 0.14636 0.70346 1.00815 0.0
C37 C 0.12848 0.66727 0.03987 0.0
C38 C 0.12737 0.68543 0.08927 0.0
C39 C 0.11786 0.66525 0.79035 0.0
O40 O 0.14043 0.65904 0.76302 0.0
H41 H 0.1565 0.7176 0.97784 0.0
H42 H 0.12109 0.64719 0.04086 0.0
O43 O 0.1818 0.67592 0.88051 0.0
H44 H 0.18652 0.57327 0.95664 0.0
H45 H 0.11855 0.68205 0.13592 0.0
Cu46 Cu 0.68363 0.9107 0.17467 0.0
N47 N 0.66797 0.90368 0.25436 0.0
N48 N 0.6319 0.89505 0.31383 0.0
C49 C 0.64553 0.88938 0.25966 0.0
C50 C 0.64653 0.91359 0.34426 0.0
C51 C 0.66869 0.91895 0.30737 0.0
O52 O 0.66641 0.94378 0.1507 0.0
C53 C 0.69124 0.86034 0.12829 0.0
O54 O 0.71145 0.86247 0.16788 0.0
H55 H 0.63775 0.87742 0.22076 0.0
H56 H 0.6827 0.93483 0.31523 0.0
N57 N 0.72072 0.91497 0.17724 0.0
N58 N 0.76256 0.91872 0.14162 0.0
C59 C 0.73668 0.9162 0.12529 0.0
C60 C 0.73696 0.91659 0.22843 0.0
C61 C 0.7627 0.91893 0.2067 0.0
C62 C 0.67901 0.96557 0.15413 0.0
O63 O 0.70499 0.96519 0.15125 0.0
H64 H 0.72924 0.9156 0.07648 0.0
H65 H 0.73056 0.91589 0.27798 0.0
O66 O 0.67572 0.88005 0.12107 0.0
H67 H 0.64077 0.92383 0.38773 0.0
H68 H 0.78016 0.92029 0.23687 0.0
Cu69 Cu 0.91258 0.3983 0.90446 0.0
N70 N 0.91083 0.43509 0.9143 0.0
N71 N 0.91132 0.47803 0.8878 0.0
C72 C 0.92103 0.45368 0.87508 0.0
C73 C 0.89481 0.47466 0.93812 0.0
C74 C 0.89456 0.4482 0.95427 0.0
O75 O 0.9416 0.38851 0.84712 0.0
C76 C 0.86508 0.39905 0.83259 0.0
O77 O 0.87625 0.4193 0.80394 0.0
H78 H 0.93392 0.44924 0.83525 0.0
H79 H 0.88216 0.4389 0.9901 0.0
N80 N 0.91901 0.38247 0.98405 0.0
N81 N 0.92062 0.35212 0.06238 0.0
C82 C 0.91296 0.3575 1.00135 0.0
C83 C 0.9309 0.39331 0.03557 0.0
C84 C 0.93191 0.37469 0.08396 0.0
C85 C 0.94479 0.39651 0.78955 0.0
O86 O 0.92663 0.41128 0.76202 0.0
H87 H 0.90293 0.34371 0.96983 0.0
H88 H 0.93847 0.41331 0.03757 0.0
O89 O 0.87793 0.38639 0.87537 0.0
H90 H 0.88291 0.48997 0.96011 0.0
H91 H 0.94074 0.37747 0.13096 0.0
Cu92 Cu 0.39216 0.39277 0.12089 0.0
N93 N 0.42877 0.38964 0.13496 0.0
N94 N 0.47279 0.39354 0.12491 0.0
C95 C 0.44877 0.40311 0.10744 0.0
C96 C 0.46759 0.3736 0.1662 0.0
C97 C 0.4405 0.37131 0.17235 0.0
O98 O 0.38387 0.42294 0.06521 0.0
C99 C 0.39327 0.34253 0.05688 0.0
O100 O 0.41759 0.34906 0.04109 0.0
H101 H 0.44579 0.41899 0.07352 0.0
H102 H 0.42998 0.35675 0.2006 0.0
N103 N 0.37648 0.39914 0.20101 0.0
N104 N 0.34753 0.40312 0.282 0.0
C105 C 0.35091 0.39662 0.21933 0.0
C106 C 0.38954 0.40766 0.2535 0.0
C107 C 0.37185 0.41009 0.30333 0.0
C108 C 0.39491 0.42823 0.01167 0.0
O109 O 0.41225 0.4117 0.98726 0.0
H110 H 0.33525 0.38991 0.18762 0.0
H111 H 0.41053 0.41197 0.25527 0.0
O112 O 0.37894 0.35908 0.08754 0.0
H113 H 0.48221 0.36116 0.18941 0.0
H114 H 0.37652 0.41696 0.35133 0.0
Cu115 Cu 0.39949 0.64789 0.81489 0.0
N116 N 0.39325 0.61132 0.81111 0.0
N117 N 0.39133 0.56838 0.83704 0.0
C118 C 0.40431 0.59152 0.84573 0.0
C119 C 0.37146 0.57377 0.7956 0.0
C120 C 0.37274 0.60019 0.77962 0.0
O121 O 0.4252 0.65582 0.88296 0.0
C122 C 0.35282 0.66516 0.88188 0.0
O123 O 0.36523 0.65793 0.93467 0.0
H124 H 0.42054 0.59424 0.87923 0.0
H125 H 0.35896 0.61088 0.7493 0.0
N126 N 0.41187 0.66072 0.73574 0.0
N127 N 0.41836 0.68783 0.6516 0.0
C128 C 0.40706 0.68481 0.71021 0.0
C129 C 0.42667 0.64797 0.69195 0.0
C130 C 0.43074 0.66459 0.64021 0.0
C131 C 0.44856 0.64634 0.8785 0.0
O132 O 0.45447 0.63191 0.82803 0.0
H133 H 0.3951 0.69961 0.73396 0.0
H134 H 0.43393 0.62796 0.69724 0.0
O135 O 0.36483 0.66378 0.8283 0.0
H136 H 0.35679 0.55969 0.779 0.0
H137 H 0.44222 0.65989 0.59788 0.0
Cu138 Cu 0.65316 0.66374 0.14928 0.0
N139 N 0.61598 0.66195 0.1499 0.0
N140 N 0.57488 0.65721 0.10984 0.0
C141 C 0.60116 0.65418 0.09931 0.0
C142 C 0.57317 0.66744 0.1697 0.0
C143 C 0.59854 0.67041 0.19418 0.0
O144 O 0.66494 0.63636 0.09063 0.0
C145 C 0.68413 0.70571 0.09669 0.0
O146 O 0.70297 0.68795 0.09058 0.0
H147 H 0.60968 0.64743 0.05455 0.0
H148 H 0.60388 0.67883 0.24023 0.0
N149 N 0.66866 0.65807 0.23076 0.0
N150 N 0.69905 0.6546 0.30975 0.0
C151 C 0.69444 0.6611 0.24742 0.0
C152 C 0.6566 0.6492 0.28414 0.0
C153 C 0.67516 0.64711 0.33273 0.0
C154 C 0.65756 0.61304 0.10497 0.0
O155 O 0.64452 0.6094 0.15887 0.0
H156 H 0.70947 0.668 0.21445 0.0
H157 H 0.63582 0.64415 0.28729 0.0
O158 O 0.66186 0.69888 0.11958 0.0
H159 H 0.55496 0.67263 0.194 0.0
H160 H 0.67137 0.63996 0.38088 0.0
Cu161 Cu 0.65669 0.40069 0.8779 0.0
N162 N 0.65824 0.43744 0.87002 0.0
N163 N 0.6579 0.47949 0.90294 0.0
C164 C 0.6565 0.45386 0.92054 0.0
C165 C 0.66106 0.47919 0.83848 0.0
C166 C 0.66123 0.45312 0.81822 0.0
O167 O 0.63212 0.39277 0.94714 0.0
C168 C 0.70813 0.39087 0.84445 0.0
O169 O 0.69833 0.39995 0.79013 0.0
H170 H 0.65429 0.44698 0.96952 0.0
H171 H 0.66322 0.44614 0.76932 0.0
N172 N 0.64338 0.384 0.80484 0.0
N173 N 0.63211 0.35043 0.74046 0.0
C174 C 0.6455 0.35791 0.79373 0.0
C175 C 0.62814 0.39359 0.75709 0.0
C176 C 0.62123 0.37291 0.71705 0.0
C177 C 0.60984 0.40455 0.94303 0.0
O178 O 0.60553 0.42047 0.89415 0.0
H179 H 0.65654 0.34471 0.82481 0.0
H180 H 0.62186 0.41396 0.75277 0.0
O181 O 0.69269 0.38849 0.89245 0.0
H182 H 0.66253 0.4965 0.80807 0.0
H183 H 0.60846 0.37426 0.67526 0.0
Cu184 Cu 0.89428 0.65517 0.6085 0.0
N185 N 0.93111 0.65934 0.59903 0.0
N186 N 0.97389 0.6641 0.62714 0.0
C187 C 0.94897 0.65879 0.64747 0.0
C188 C 0.97143 0.66821 0.56314 0.0
C189 C 0.94508 0.66537 0.54607 0.0
O190 O 0.88842 0.62623 0.66847 0.0
C191 C 0.8824 0.70882 0.6095 0.0
O192 O 0.8888 0.70646 0.54856 0.0
H193 H 0.94361 0.65459 0.69675 0.0
H194 H 0.93665 0.66813 0.49867 0.0
N195 N 0.87682 0.64808 0.53012 0.0
N196 N 0.84567 0.64578 0.4527 0.0
C197 C 0.85178 0.65458 0.51255 0.0
C198 C 0.88675 0.63454 0.48009 0.0
C199 C 0.86774 0.63315 0.43245 0.0
C200 C 0.9027 0.60553 0.66427 0.0
O201 O 0.92012 0.6038 0.6176 0.0
H202 H 0.83845 0.6657 0.54294 0.0
H203 H 0.9064 0.626 0.47867 0.0
O204 O 0.88191 0.68819 0.64453 0.0
H205 H 0.98734 0.67362 0.53096 0.0
H206 H 0.8699 0.62306 0.38691 0.0
Cu207 Cu 0.63075 0.16711 0.39942 0.0
N208 N 0.63012 0.13025 0.40253 0.0
N209 N 0.63791 0.08963 0.36478 0.0
C210 C 0.64615 0.11499 0.36673 0.0
C211 C 0.61592 0.08883 0.40164 0.0
C212 C 0.61113 0.114 0.42483 0.0
O213 O 0.60197 0.1788 0.34327 0.0
C214 C 0.68389 0.17146 0.41989 0.0
O215 O 0.67542 0.16006 0.47278 0.0
H216 H 0.66215 0.12291 0.33797 0.0
H217 H 0.59403 0.12033 0.45206 0.0
N218 N 0.62364 0.18264 0.47862 0.0
N219 N 0.61893 0.21545 0.54953 0.0
C220 C 0.62449 0.20889 0.4882 0.0
C221 C 0.61732 0.17196 0.53581 0.0
C222 C 0.61446 0.19223 0.57987 0.0
C223 C 0.59089 0.16326 0.30319 0.0
O224 O 0.60297 0.14124 0.28718 0.0
H225 H 0.6297 0.22282 0.4508 0.0
H226 H 0.61512 0.15102 0.54489 0.0
O227 O 0.6669 0.17728 0.37649 0.0
H228 H 0.60359 0.0716 0.40917 0.0
H229 H 0.60933 0.19002 0.63008 0.0
Cu230 Cu 0.16217 0.40693 0.60486 0.0
N231 N 0.12627 0.3987 0.59229 0.0
N232 N 0.08247 0.39515 0.60576 0.0
C233 C 0.10393 0.41099 0.61186 0.0
C234 C 0.09147 0.37245 0.57996 0.0
C235 C 0.11836 0.37478 0.57129 0.0
O236 O 0.16799 0.43683 0.66418 0.0
C237 C 0.16931 0.36029 0.67866 0.0
O238 O 0.15224 0.37145 0.71776 0.0
H239 H 0.10352 0.43032 0.63403 0.0
H240 H 0.13162 0.35939 0.55493 0.0
N241 N 0.17716 0.41564 0.52547 0.0
N242 N 0.20566 0.41781 0.44311 0.0
C243 C 0.20109 0.40826 0.50291 0.0
C244 C 0.16617 0.43035 0.4786 0.0
C245 C 0.18365 0.43174 0.42784 0.0
C246 C 0.15364 0.44344 0.71204 0.0
O247 O 0.13376 0.42831 0.72938 0.0
H248 H 0.21468 0.39584 0.52969 0.0
H249 H 0.1468 0.43947 0.48131 0.0
O250 O 0.1782 0.37356 0.63138 0.0
H251 H 0.07963 0.35496 0.57112 0.0
H252 H 0.18049 0.44257 0.38358 0.0
Cu253 Cu 0.422 0.87888 0.35388 0.0
N254 N 0.41693 0.89728 0.27621 0.0
N255 N 0.4068 0.93261 0.21539 0.0
C256 C 0.40371 0.9204 0.27273 0.0
C257 C 0.42271 0.91644 0.18115 0.0
C258 C 0.42894 0.89466 0.2188 0.0
O259 O 0.45787 0.88829 0.38378 0.0
C260 C 0.36969 0.87849 0.38648 0.0
O261 O 0.37051 0.86351 0.33495 0.0
H262 H 0.39338 0.92893 0.31328 0.0
H263 H 0.4423 0.87877 0.20625 0.0
N264 N 0.42072 0.84176 0.34761 0.0
N265 N 0.41985 0.79954 0.38101 0.0
C266 C 0.42236 0.8252 0.39836 0.0
C267 C 0.41703 0.82616 0.29604 0.0
C268 C 0.41653 0.80014 0.31643 0.0
C269 C 0.47661 0.87628 0.3545 0.0
O270 O 0.4703 0.8588 0.31037 0.0
H271 H 0.42544 0.83203 0.4471 0.0
H272 H 0.41451 0.83322 0.2473 0.0
O273 O 0.39137 0.8886 0.40708 0.0
H274 H 0.42986 0.92035 0.13306 0.0
H275 H 0.41339 0.78309 0.28596 0.0
Cu276 Cu 0.91348 0.9135 0.70089 0.0
N277 N 0.95041 0.90908 0.70552 0.0
N278 N 0.9927 0.90274 0.67553 0.0
C279 C 0.9676 0.90811 0.65592 0.0
C280 C 0.991 0.90023 0.74013 0.0
C281 C 0.96501 0.90407 0.75831 0.0
O282 O 0.90491 0.94077 0.63818 0.0
C283 C 0.8986 0.85984 0.70688 0.0
O284 O 0.90784 0.86152 0.76589 0.0
H285 H 0.96165 0.91117 0.60646 0.0
H286 H 0.95716 0.90266 0.80654 0.0
N287 N 0.89922 0.92276 0.78125 0.0
N288 N 0.87204 0.9258 0.8664 0.0
C289 C 0.87646 0.91428 0.8085 0.0
C290 C 0.90948 0.94031 0.82292 0.0
C291 C 0.89289 0.94223 0.87524 0.0
C292 C 0.91732 0.96268 0.63643 0.0
O293 O 0.93631 0.96706 0.67847 0.0
H294 H 0.86353 0.89988 0.7862 0.0
H295 H 0.92766 0.95121 0.81536 0.0
O296 O 0.89861 0.88035 0.67142 0.0
H297 H 1.00718 0.89519 0.77213 0.0
H298 H 0.8958 0.95525 0.91589 0.0
Cu299 Cu 0.8892 0.16423 0.36194 0.0
N300 N 0.89028 0.12728 0.36433 0.0
N301 N 0.89679 0.08673 0.40464 0.0
C302 C 0.90014 0.11297 0.41348 0.0
C303 C 0.88415 0.08447 0.34754 0.0
C304 C 0.88014 0.10955 0.3228 0.0
O305 O 0.91536 0.1762 0.42464 0.0
C306 C 0.84208 0.16904 0.43337 0.0
O307 O 0.85632 0.15735 0.47815 0.0
H308 H 0.90881 0.12178 0.45604 0.0
H309 H 0.87016 0.11452 0.2783 0.0
N310 N 0.89831 0.17749 0.28109 0.0
N311 N 0.90592 0.20662 0.20215 0.0
C312 C 0.89737 0.20307 0.26313 0.0
C313 C 0.90779 0.16429 0.22997 0.0
C314 C 0.91247 0.18218 0.18119 0.0
C315 C 0.93923 0.16967 0.41242 0.0
O316 O 0.94416 0.15737 0.3581 0.0
H317 H 0.8904 0.21868 0.29433 0.0
H318 H 0.91141 0.14322 0.2286 0.0
O319 O 0.85306 0.17504 0.38044 0.0
H320 H 0.87819 0.06607 0.32524 0.0
H321 H 0.92063 0.17754 0.13448 0.0
Cu322 Cu 0.14576 0.15657 0.68251 0.0
N323 N 0.10903 0.16107 0.6769 0.0
N324 N 0.06868 0.16499 0.6327 0.0
C325 C 0.09503 0.16303 0.62191 0.0
C326 C 0.06612 0.16452 0.69736 0.0
C327 C 0.09105 0.16209 0.72446 0.0
O328 O 0.1565 0.13066 0.61701 0.0
C329 C 0.16342 0.20462 0.62213 0.0
O330 O 0.15668 0.19323 0.56772 0.0
H331 H 0.10415 0.16273 0.5749 0.0
H332 H 0.09571 0.16062 0.77514 0.0
N333 N 0.15544 0.14335 0.76336 0.0
N334 N 0.17851 0.13736 0.85422 0.0
C335 C 0.17426 0.15319 0.80285 0.0
C336 C 0.14738 0.12067 0.79107 0.0
C337 C 0.16167 0.11687 0.84696 0.0
C338 C 0.14229 0.10986 0.61123 0.0
O339 O 0.12131 0.10737 0.64798 0.0
H340 H 0.18546 0.17096 0.79264 0.0
H341 H 0.13266 0.10744 0.77124 0.0
O342 O 0.1615 0.19163 0.67431 0.0
H343 H 0.04756 0.165 0.72328 0.0
H344 H 0.16006 0.10018 0.87935 0.0
Cu345 Cu 0.16152 0.89713 0.38618 0.0
N346 N 0.16304 0.93426 0.37964 0.0
N347 N 0.15927 0.97693 0.40814 0.0
C348 C 0.15204 0.95169 0.4208 0.0
C349 C 0.1754 0.9753 0.35659 0.0
C350 C 0.17765 0.949 0.33912 0.0
O351 O 0.13302 0.88892 0.44665 0.0
C352 C 0.21482 0.89805 0.43707 0.0
O353 O 0.20933 0.92227 0.45547 0.0
H354 H 0.13986 0.94584 0.46105 0.0
H355 H 0.18978 0.94109 0.30088 0.0
N356 N 0.15299 0.88168 0.30615 0.0
N357 N 0.14781 0.85221 0.22591 0.0
C358 C 0.15592 0.85617 0.28749 0.0
C359 C 0.14259 0.89419 0.25493 0.0
C360 C 0.1394 0.87621 0.20567 0.0
C361 C 0.13471 0.89343 0.50676 0.0
O362 O 0.15752 0.9013 0.53072 0.0
H363 H 0.16415 0.84095 0.31823 0.0
H364 H 0.13759 0.91498 0.25357 0.0
O365 O 0.19661 0.88397 0.41139 0.0
H366 H 0.18509 0.99184 0.33348 0.0
H367 H 0.1311 0.88052 0.15878 0.0
H368 H 0.42931 0.9689 0.13519 0.0
H369 H 0.36154 0.95495 0.25678 0.0
H370 H 0.34626 1.0 0.23866 0.0
H371 H 0.35345 0.04406 0.19518 0.0
H372 H 0.4208 0.05972 0.0739 0.0
H373 H 0.43462 1.01321 0.08363 0.0
C374 C 0.411 0.97561 0.15684 0.0
C375 C 0.3968 0.95853 0.19819 0.0
C376 C 0.40228 1.00187 0.14634 0.0
C377 C 0.37315 0.96771 0.22597 0.0
C378 C 0.36432 0.99348 0.21538 0.0
C379 C 0.37108 0.03733 0.17029 0.0
C380 C 0.3862 0.05545 0.13429 0.0
C381 C 0.37897 1.01085 0.17683 0.0
C382 C 0.40876 0.04622 0.10177 0.0
C383 C 0.41674 1.01965 0.10775 0.0
H384 H 0.06655 0.67205 0.8312 0.0
H385 H 0.11336 0.66005 0.66022 0.0
H386 H 0.07319 0.65877 0.59495 0.0
H387 H 1.02471 0.65967 0.58613 0.0
H388 H 0.97762 0.67229 0.75635 0.0
H389 H 1.01776 0.6743 0.82164 0.0
C390 C 0.068 0.66934 0.77962 0.0
C391 C 0.09311 0.66616 0.75096 0.0
C392 C 0.04466 0.66846 0.74198 0.0
C393 C 0.09443 0.66256 0.68392 0.0
C394 C 0.0714 0.66177 0.64636 0.0
C395 C 1.0231 0.66315 0.63734 0.0
C396 C 0.99788 0.66569 0.66579 0.0
C397 C 0.04639 0.66452 0.67485 0.0
C398 C 0.99652 0.66981 0.73272 0.0
C399 C 1.01959 0.67116 0.7703 0.0
H400 H 0.70247 1.01091 0.19374 0.0
H401 H 0.62604 0.97287 0.17995 0.0
H402 H 0.60631 1.00824 0.24429 0.0
H403 H 0.61152 0.0486 0.31032 0.0
H404 H 0.68883 0.08449 0.32788 0.0
H405 H 0.70746 0.05116 0.25665 0.0
C406 C 0.68139 1.01045 0.20382 0.0
C407 C 0.66582 0.98916 0.18195 0.0
C408 C 0.67041 0.03029 0.24254 0.0
C409 C 0.63853 0.98903 0.19587 0.0
C410 C 0.62727 1.00914 0.23321 0.0
C411 C 0.63248 0.04896 0.29904 0.0
C412 C 0.64876 0.06904 0.32467 0.0
C413 C 0.64317 0.02954 0.25811 0.0
C414 C 0.6758 0.06945 0.30849 0.0
C415 C 0.68649 0.05037 0.26777 0.0
H416 H 0.05521 0.36073 0.67753 0.0
H417 H 0.05229 0.43904 0.5966 0.0
H418 H 1.00814 0.44593 0.64341 0.0
H419 H 0.97079 0.42962 0.70899 0.0
H420 H 0.9759 0.35268 0.79771 0.0
H421 H 1.01874 0.34503 0.74586 0.0
C422 C 0.04472 0.37918 0.66978 0.0
C423 C 0.05664 0.39927 0.63309 0.0
C424 C 1.01983 0.38313 0.69817 0.0
C425 C 0.04331 0.42337 0.62458 0.0
C426 C 1.01814 0.42723 0.65119 0.0
C427 C 0.98122 0.41109 0.71635 0.0
C428 C 0.97014 0.39156 0.75636 0.0
C429 C 1.00622 0.40724 0.68815 0.0
C430 C 0.98405 0.3679 0.76687 0.0
C431 C 1.00851 0.36355 0.73731 0.0
H432 H 0.43067 0.46036 0.95346 0.0
H433 H 0.34775 0.45404 1.00056 0.0
H434 H 0.33913 0.49682 0.94917 0.0
H435 H 0.35531 0.53621 0.89091 0.0
H436 H 0.43874 0.54465 0.85318 0.0
H437 H 0.44725 0.50108 0.90119 0.0
C438 C 0.41071 0.46833 0.95199 0.0
C439 C 0.38977 0.45394 0.97979 0.0
C440 C 0.4061 0.49339 0.92443 0.0
C441 C 0.36411 0.46472 0.9791 0.0
C442 C 0.35921 0.48917 0.94979 0.0
C443 C 0.37531 0.5284 0.89327 0.0
C444 C 0.39639 0.54339 0.86813 0.0
C445 C 0.38004 0.50369 0.92234 0.0
C446 C 0.4223 0.5334 0.87239 0.0
C447 C 0.4271 0.50849 0.89954 0.0
H448 H 0.4971 0.62349 0.88798 0.0
H449 H 0.44606 0.67954 0.98317 0.0
H450 H 0.48046 0.68751 0.06437 0.0
H451 H 0.52568 0.67932 0.10658 0.0
H452 H 0.57568 0.62227 1.01128 0.0
H453 H 0.54112 0.61417 0.93187 0.0
C454 C 0.4934 0.63748 0.92643 0.0
C455 C 0.469 0.65099 0.92908 0.0
C456 C 0.5132 0.64189 0.97295 0.0
C457 C 0.46462 0.66887 0.97974 0.0
C458 C 0.48433 0.67345 0.02621 0.0
C459 C 0.52895 0.66491 0.06892 0.0
C460 C 0.55356 0.65166 0.06493 0.0
C461 C 0.50877 0.66015 0.02317 0.0
C462 C 0.55731 0.6332 0.01516 0.0
C463 C 0.53744 0.6284 0.96975 0.0
H464 H 0.67927 0.52824 0.88697 0.0
H465 H 0.63028 0.48164 0.01366 0.0
H466 H 0.62692 0.51856 0.08783 0.0
H467 H 0.63753 0.56382 0.11716 0.0
H468 H 0.68526 0.61194 0.99112 0.0
H469 H 0.6894 0.57475 0.91619 0.0
C470 C 0.66772 0.52629 0.93055 0.0
C471 C 0.65532 0.50203 0.94494 0.0
C472 C 0.66569 0.54783 0.97324 0.0
C473 C 0.64053 0.4998 1.00191 0.0
C474 C 0.63844 0.52099 0.0443 0.0
C475 C 0.64898 0.56626 0.07348 0.0
C476 C 0.66116 0.59062 0.05997 0.0
C477 C 0.65102 0.545 0.03063 0.0
C478 C 0.67573 0.59337 1.00281 0.0
C479 C 0.67805 0.57212 0.9599 0.0
H480 H 0.5175 0.3637 0.11994 0.0
H481 H 0.48573 0.44033 0.06952 0.0
H482 H 0.52629 0.45092 0.01206 0.0
H483 H 0.56922 0.4373 0.96918 0.0
H484 H 0.60202 0.36142 0.02088 0.0
H485 H 0.5628 0.35194 0.08644 0.0
C486 C 0.51953 0.38292 0.09757 0.0
C487 C 0.49817 0.40095 0.09824 0.0
C488 C 0.5431 0.38901 0.06472 0.0
C489 C 0.5014 0.42574 0.06853 0.0
C490 C 0.52471 0.43191 0.03587 0.0
C491 C 0.5679 0.41875 0.99524 0.0
C492 C 0.58827 0.39992 0.98959 0.0
C493 C 0.54538 0.41347 0.03239 0.0
C494 C 0.58654 0.3762 0.02446 0.0
C495 C 0.56407 0.37074 0.06161 0.0
H496 H 0.87694 0.5189 0.87418 0.0
H497 H 0.9532 0.48996 0.81197 0.0
H498 H 0.95704 0.52682 0.73705 0.0
H499 H 0.93824 0.56638 0.68653 0.0
H500 H 0.86275 0.59646 0.75055 0.0
H501 H 0.85928 0.56016 0.82803 0.0
C502 C 0.89462 0.52084 0.84517 0.0
C503 C 0.91464 0.50141 0.84857 0.0
C504 C 0.89678 0.54222 0.80216 0.0
C505 C 0.93726 0.50426 0.80974 0.0
C506 C 0.93953 0.52542 0.76694 0.0
C507 C 0.92099 0.56501 0.71735 0.0
C508 C 0.90065 0.58397 0.71229 0.0
C509 C 0.91925 0.54428 0.76209 0.0
C510 C 0.87864 0.58209 0.75332 0.0
C511 C 0.87665 0.56134 0.79762 0.0
H512 H 0.55698 0.12558 0.26067 0.0
H513 H 0.5602 0.20787 0.31475 0.0
H514 H 0.51199 0.21127 0.30225 0.0
H515 H 0.46869 0.19032 0.27836 0.0
H516 H 0.4662 0.10739 0.22995 0.0
H517 H 0.51431 0.10478 0.23829 0.0
C518 C 0.54726 0.14441 0.26885 0.0
C519 C 0.56228 0.16651 0.28803 0.0
C520 C 0.51955 0.146 0.26341 0.0
C521 C 0.54917 0.19059 0.2995 0.0
C522 C 0.52157 0.19249 0.29276 0.0
C523 C 0.47864 0.17162 0.27043 0.0
C524 C 0.46374 0.14908 0.25332 0.0
C525 C 0.50649 0.17021 0.27555 0.0
C526 C 0.47711 0.1251 0.24241 0.0
C527 C 0.50466 0.12357 0.24721 0.0
H528 H 0.19097 0.54984 0.84608 0.0
H529 H 0.10665 0.55977 0.86624 0.0
H530 H 0.09908 0.51686 0.81416 0.0
H531 H 0.11664 0.4763 0.76337 0.0
H532 H 0.20085 0.46833 0.7343 0.0
H533 H 0.20841 0.5105 0.78942 0.0
C534 C 0.17098 0.5425 0.8391 0.0
C535 C 0.14936 0.55777 0.86049 0.0
C536 C 0.16684 0.51814 0.80767 0.0
C537 C 0.12352 0.54835 0.85009 0.0
C538 C 0.11924 0.5238 0.82055 0.0
C539 C 0.13665 0.48376 0.76943 0.0
C540 C 0.1582 0.46902 0.74552 0.0
C541 C 0.14075 0.50846 0.79934 0.0
C542 C 0.18396 0.47923 0.75247 0.0
C543 C 0.18828 0.50334 0.784 0.0
H544 H 0.51821 0.84576 0.3218 0.0
H545 H 0.49939 0.92097 0.40787 0.0
H546 H 0.54666 0.93284 0.40777 0.0
H547 H 0.59291 0.92318 0.37318 0.0
H548 H 0.61028 0.84785 0.28557 0.0
H549 H 0.56398 0.83473 0.29609 0.0
C550 C 0.52438 0.8647 0.34118 0.0
C551 C 0.50519 0.88256 0.36426 0.0
C552 C 0.55138 0.87144 0.34006 0.0
C553 C 0.51369 0.90684 0.3899 0.0
C554 C 0.54073 0.91367 0.38942 0.0
C555 C 0.58666 0.90371 0.35756 0.0
C556 C 0.60512 0.88658 0.32799 0.0
C557 C 0.55972 0.89634 0.36325 0.0
C558 C 0.5965 0.86153 0.30754 0.0
C559 C 0.57001 0.85399 0.31368 0.0
H560 H 0.94116 1.01033 0.61756 0.0
H561 H 0.87805 0.96086 0.54517 0.0
H562 H 0.86652 0.99461 0.46572 0.0
H563 H 0.87373 0.03871 0.41827 0.0
H564 H 0.93716 0.08773 0.49058 0.0
H565 H 0.94902 0.05372 0.56861 0.0
C566 C 0.92488 1.00687 0.58443 0.0
C567 C 0.91048 0.98306 0.58762 0.0
C568 C 0.91833 1.02636 0.53883 0.0
C569 C 0.88949 0.97898 0.544 0.0
C570 C 0.88287 0.99829 0.49846 0.0
C571 C 0.89032 0.04184 0.45057 0.0
C572 C 0.90439 0.0659 0.44862 0.0
C573 C 0.8971 1.02211 0.49553 0.0
C574 C 0.92567 0.06966 0.49156 0.0
C575 C 0.93258 0.05013 0.53608 0.0
H576 H 0.99051 0.15516 0.39896 0.0
H577 H 0.9367 0.19128 0.53385 0.0
H578 H 0.97237 0.19363 0.61405 0.0
H579 H 1.0187 0.18416 0.64645 0.0
H580 H 0.07115 0.14644 0.51068 0.0
H581 H 0.03617 0.14627 0.43026 0.0
C582 C 0.98649 0.16372 0.44574 0.0
C583 C 0.96089 0.17301 0.46027 0.0
C584 C 1.00691 0.16471 0.49161 0.0
C585 C 0.95621 0.18401 0.52127 0.0
C586 C 0.97659 0.18528 0.56721 0.0
C587 C 1.02246 0.17579 0.59942 0.0
C588 C 0.04774 0.16544 0.58498 0.0
C589 C 1.00199 0.17543 0.55311 0.0
C590 C 0.0522 0.15498 0.52326 0.0
C591 C 0.03208 0.15469 0.47713 0.0
H592 H 0.1875 1.02251 0.42119 0.0
H593 H 0.11468 0.98424 0.47756 0.0
H594 H 0.10307 1.02218 0.54371 0.0
H595 H 0.11375 0.06553 0.5878 0.0
H596 H 0.18623 0.10478 0.53319 0.0
H597 H 0.1976 0.06735 0.46343 0.0
C598 C 0.16896 1.02258 0.44734 0.0
C599 C 0.15211 1.00028 0.44454 0.0
C600 C 0.16233 0.04466 0.48569 0.0
C601 C 0.12828 1.00077 0.47947 0.0
C602 C 0.12153 1.02258 0.51715 0.0
C603 C 0.13205 0.06607 0.56061 0.0
C604 C 0.14915 0.08802 0.56613 0.0
C605 C 0.13848 0.0445 0.52109 0.0
C606 C 0.17268 0.08821 0.53005 0.0
C607 C 0.17921 0.06675 0.4902 0.0
H608 H 0.04407 0.90602 0.71391 0.0
H609 H 0.99483 0.89194 0.54724 0.0
H610 H 0.03425 0.88684 0.48091 0.0
H611 H 0.08293 0.88698 0.46937 0.0
H612 H 0.13192 0.90061 0.63668 0.0
H613 H 0.09243 0.9046 0.70339 0.0
C614 C 0.0418 0.90154 0.66331 0.0
C615 C 1.0162 0.8995 0.63612 0.0
C616 C 0.06465 0.89836 0.62527 0.0
C617 C 1.01404 0.89407 0.56986 0.0
C618 C 0.03668 0.89093 0.53174 0.0
C619 C 0.08501 0.89056 0.52054 0.0
C620 C 0.11051 0.89346 0.54775 0.0
C621 C 0.06211 0.89312 0.55883 0.0
C622 C 0.11266 0.89827 0.61419 0.0
C623 C 0.09003 0.90064 0.65249 0.0
H624 H 0.42234 0.29917 0.0213 0.0
H625 H 0.34299 0.32368 0.07125 0.0
H626 H 0.32839 0.27773 0.07018 0.0
H627 H 0.33914 0.23074 0.0682 0.0
H628 H 0.41867 0.20517 0.02516 0.0
H629 H 0.43207 0.25137 1.00849 0.0
C630 C 0.40174 0.29451 0.0309 0.0
C631 C 0.38384 0.31495 0.04707 0.0
C632 C 0.39354 0.26784 0.03152 0.0
C633 C 0.35725 0.30845 0.0593 0.0
C634 C 0.34887 0.28214 0.0587 0.0
C635 C 0.35934 0.23519 0.05398 0.0
C636 C 0.37795 0.21454 0.04848 0.0
C637 C 0.367 0.26169 0.0468 0.0
C638 C 0.40393 0.22064 0.02938 0.0
C639 C 0.41163 0.2471 0.02062 0.0
H640 H 0.23029 0.67852 0.93628 0.0
H641 H 0.22671 0.65919 0.73462 0.0
H642 H 0.27507 0.66132 0.72778 0.0
H643 H 0.3183 0.66392 0.78138 0.0
H644 H 0.3223 0.6788 0.98543 0.0
H645 H 0.274 0.6833 0.98919 0.0
C646 C 0.24014 0.67543 0.89059 0.0
C647 C 0.22502 0.66896 0.83581 0.0
C648 C 0.26806 0.67552 0.88773 0.0
C649 C 0.23798 0.66434 0.77725 0.0
C650 C 0.26562 0.66543 0.77344 0.0
C651 C 0.30869 0.66859 0.82655 0.0
C652 C 0.32395 0.671 0.88308 0.0
C653 C 0.28088 0.67028 0.82871 0.0
C654 C 0.31105 0.67675 0.94125 0.0
C655 C 0.28341 0.67931 0.94344 0.0
H656 H 0.72624 0.82232 0.09785 0.0
H657 H 0.64244 0.83898 0.10266 0.0
H658 H 0.63269 0.79198 0.0859 0.0
H659 H 0.64828 0.74574 0.08588 0.0
H660 H 0.73233 0.72951 0.08258 0.0
H661 H 0.74172 0.77685 0.08218 0.0
C662 C 0.70584 0.81571 0.0938 0.0
C663 C 0.68507 0.83393 0.10215 0.0
C664 C 0.70047 0.78874 0.08538 0.0
C665 C 0.65873 0.82529 0.09612 0.0
C666 C 0.65319 0.7984 0.08724 0.0
C667 C 0.66865 0.75257 0.08414 0.0
C668 C 0.6896 0.73411 0.0855 0.0
C669 C 0.67392 0.77985 0.08434 0.0
C670 C 0.71585 0.74326 0.08207 0.0
C671 C 0.72125 0.77034 0.08206 0.0
H672 H 0.74515 0.3994 0.75312 0.0
H673 H 0.73624 0.37251 0.94888 0.0
H674 H 0.78453 0.36956 0.96004 0.0
H675 H 0.82927 0.37858 0.91685 0.0
H676 H 0.83716 0.40853 0.72353 0.0
H677 H 0.78921 0.40603 0.70847 0.0
C678 C 0.75367 0.39263 0.79816 0.0
C679 C 0.73707 0.38639 0.85027 0.0
C680 C 0.78131 0.39159 0.80463 0.0
C681 C 0.74855 0.37758 0.90811 0.0
C682 C 0.77616 0.37592 0.91452 0.0
C683 C 0.82048 0.38406 0.87107 0.0
C684 C 0.83667 0.39373 0.82129 0.0
C685 C 0.79275 0.38341 0.86349 0.0
C686 C 0.82506 0.40111 0.76254 0.0
C687 C 0.79766 0.39975 0.75397 0.0
H688 H 0.87875 0.7559 0.54736 0.0
H689 H 0.8816 0.72158 0.73735 0.0
H690 H 0.88498 0.76564 0.78473 0.0
H691 H 0.89136 0.81356 0.77149 0.0
H692 H 0.88851 0.8477 0.58125 0.0
H693 H 0.88075 0.80408 0.53489 0.0
C694 C 0.87978 0.75805 0.59919 0.0
C695 C 0.88024 0.73544 0.63864 0.0
C696 C 0.88196 0.78342 0.62611 0.0
C697 C 0.88128 0.73862 0.70577 0.0
C698 C 0.88336 0.76382 0.73294 0.0
C699 C 0.8888 0.8115 0.71994 0.0
C700 C 0.89087 0.83385 0.67989 0.0
C701 C 0.88441 0.78631 0.69347 0.0
C702 C 0.88716 0.83085 0.61325 0.0
C703 C 0.88278 0.80588 0.5866 0.0
H704 H 0.80482 0.18233 0.34254 0.0
H705 H 0.81392 0.16281 0.54364 0.0
H706 H 0.76598 0.16362 0.55718 0.0
H707 H 0.72166 0.16695 0.51136 0.0
H708 H 0.7113 0.18534 0.31023 0.0
H709 H 0.7596 0.18814 0.29742 0.0
C710 C 0.79632 0.17856 0.38949 0.0
C711 C 0.81305 0.17237 0.44197 0.0
C712 C 0.76854 0.1787 0.39687 0.0
C713 C 0.80163 0.16748 0.50237 0.0
C714 C 0.77417 0.16791 0.51018 0.0
C715 C 0.72985 0.17171 0.4646 0.0
C716 C 0.71283 0.1757 0.41166 0.0
C717 C 0.75746 0.173 0.4576 0.0
C718 C 0.72391 0.18214 0.35176 0.0
C719 C 0.75154 0.18366 0.34442 0.0
H720 H 0.18105 0.32716 0.57949 0.0
H721 H 0.16497 0.32796 0.78305 0.0
H722 H 0.16438 0.2796 0.78463 0.0
H723 H 0.16424 0.23729 0.72645 0.0
H724 H 0.17689 0.23666 0.52133 0.0
H725 H 0.18315 0.2846 0.52215 0.0
C726 C 0.17799 0.31674 0.62447 0.0
C727 C 0.1732 0.33119 0.68121 0.0
C728 C 0.17673 0.28891 0.62456 0.0
C729 C 0.16876 0.31735 0.73879 0.0
C730 C 0.16831 0.28968 0.73965 0.0
C731 C 0.16874 0.24756 0.682 0.0
C732 C 0.17002 0.2333 0.62383 0.0
C733 C 0.17162 0.27526 0.68255 0.0
C734 C 0.17567 0.24707 0.56672 0.0
C735 C 0.17924 0.27453 0.56715 0.0
H736 H 0.25949 0.92509 0.47434 0.0
H737 H 0.23339 0.84988 0.39871 0.0
H738 H 0.27932 0.83644 0.38345 0.0
H739 H 0.32642 0.84754 0.38092 0.0
H740 H 0.35353 0.92261 0.45396 0.0
H741 H 0.30771 0.93444 0.48196 0.0
C742 C 0.26383 0.9056 0.45541 0.0
C743 C 0.24283 0.88866 0.43703 0.0
C744 C 0.29048 0.89803 0.44599 0.0
C745 C 0.24897 0.86344 0.41287 0.0
C746 C 0.2753 0.85572 0.40397 0.0
C747 C 0.3224 0.86639 0.40377 0.0
C748 C 0.34333 0.88429 0.41478 0.0
C749 C 0.29612 0.8731 0.41872 0.0
C750 C 0.33781 0.90846 0.44517 0.0
C751 C 0.31158 0.91528 0.46066 0.0
H752 H 0.20887 0.09922 0.90606 0.0
H753 H 0.19298 0.18284 0.91234 0.0
H754 H 0.22725 0.18858 0.99508 0.0
H755 H 0.26299 0.16975 0.06326 0.0
H756 H 0.28132 0.0869 0.04926 0.0
H757 H 0.24475 0.08058 0.97265 0.0
C758 C 0.21278 0.11862 0.92614 0.0
C759 C 0.19836 0.14057 0.90361 0.0
C760 C 0.23292 0.12179 0.97238 0.0
C761 C 0.20394 0.16572 0.92891 0.0
C762 C 0.22344 0.16896 0.97627 0.0
C763 C 0.25857 0.15034 0.04388 0.0
C764 C 0.27433 0.12867 0.06216 0.0
C765 C 0.23818 0.14716 0.99813 0.0
C766 C 0.26912 0.10367 0.03591 0.0
C767 C 0.24835 0.10014 0.99213 0.0
H768 H 0.14596 0.80166 0.27074 0.0
H769 H 0.14997 0.84748 0.09599 0.0
H770 H 0.14791 0.80716 0.03217 0.0
H771 H 0.14378 0.75864 0.025 0.0
H772 H 0.14052 0.71271 0.1997 0.0
H773 H 0.14352 0.75296 0.26358 0.0
C774 C 0.14666 0.80286 0.21877 0.0
C775 C 0.1479 0.82786 0.18869 0.0
C776 C 0.14547 0.77939 0.18184 0.0
C777 C 0.14854 0.82876 0.12095 0.0
C778 C 0.14751 0.80559 0.08414 0.0
C779 C 0.144 0.75734 0.07699 0.0
C780 C 0.14168 0.7324 0.10698 0.0
C781 C 0.14576 0.78076 0.11393 0.0
C782 C 0.14177 0.73144 0.17475 0.0
C783 C 0.14365 0.75456 0.21161 0.0
H784 H 0.76544 0.90435 0.01564 0.0
H785 H 0.8112 0.93872 0.17031 0.0
H786 H 0.84921 0.94301 0.09941 0.0
H787 H 0.86958 0.9376 0.99359 0.0
H788 H 0.82347 0.90529 0.83698 0.0
H789 H 0.78575 0.8996 0.90866 0.0
C790 C 0.78358 0.91301 0.03397 0.0
C791 C 0.78515 0.92113 0.09888 0.0
C792 C 0.8055 0.91577 0.99247 0.0
C793 C 0.80922 0.9319 0.12127 0.0
C794 C 0.83106 0.93454 0.08047 0.0
C795 C 0.85128 0.92955 0.97456 0.0
C796 C 0.84967 0.92201 0.9093 0.0
C797 C 0.82942 0.92663 0.01595 0.0
C798 C 0.82569 0.91108 0.88674 0.0
C799 C 0.80392 0.90795 0.92779 0.0
H800 H 0.91062 0.25584 0.25212 0.0
H801 H 0.90612 0.21327 0.07259 0.0
H802 H 0.91041 0.25465 0.01326 0.0
H803 H 0.91572 0.30295 0.01212 0.0
H804 H 0.91876 0.34555 0.19176 0.0
H805 H 0.91468 0.30416 0.25098 0.0
C806 C 0.91025 0.25554 0.20006 0.0
C807 C 0.90806 0.23128 0.16716 0.0
C808 C 0.91255 0.27949 0.16607 0.0
C809 C 0.90813 0.23147 0.09947 0.0
C810 C 0.91043 0.2552 0.06536 0.0
C811 C 0.9152 0.30329 0.06417 0.0
C812 C 0.91764 0.32751 0.09716 0.0
C813 C 0.91268 0.27934 0.09814 0.0
C814 C 0.91734 0.32731 0.16484 0.0
C815 C 0.91484 0.3036 0.19889 0.0
H816 H 0.25538 0.40667 0.48438 0.0
H817 H 0.20919 0.42116 0.31297 0.0
H818 H 0.24896 0.41714 0.24726 0.0
H819 H 0.29737 0.41072 0.23847 0.0
H820 H 0.34306 0.3955 0.41023 0.0
H821 H 0.30308 0.39833 0.47528 0.0
C822 C 0.25386 0.40862 0.43264 0.0
C823 C 0.22916 0.41437 0.40407 0.0
C824 C 0.27686 0.40621 0.39492 0.0
C825 C 0.22788 0.41718 0.33673 0.0
C826 C 0.25066 0.41472 0.2989 0.0
C827 C 0.29853 0.4077 0.28998 0.0
C828 C 0.32334 0.40313 0.31925 0.0
C829 C 0.27533 0.40942 0.32746 0.0
C830 C 0.3244 0.39953 0.38635 0.0
C831 C 0.30148 0.40102 0.4237 0.0
H832 H 0.41028 0.79771 0.50952 0.0
H833 H 0.4307 0.74879 0.34696 0.0
H834 H 0.43152 0.70989 0.41609 0.0
H835 H 0.42665 0.68956 0.52267 0.0
H836 H 0.40796 0.7387 0.68605 0.0
H837 H 0.40628 0.77749 0.61659 0.0
C838 C 0.41519 0.77865 0.48905 0.0
C839 C 0.42041 0.77647 0.42258 0.0
C840 C 0.41587 0.75622 0.52936 0.0
C841 C 0.42625 0.75128 0.39743 0.0
C842 C 0.42688 0.72893 0.43715 0.0
C843 C 0.42246 0.70872 0.54349 0.0
C844 C 0.41743 0.7109 0.61003 0.0
C845 C 0.42177 0.73115 0.50322 0.0
C846 C 0.41158 0.73608 0.63523 0.0
C847 C 0.41078 0.75842 0.59545 0.0
H848 H 0.74878 0.65088 0.26052 0.0
H849 H 0.70605 0.65907 0.43881 0.0
H850 H 0.74758 0.65757 0.49889 0.0
H851 H 0.79624 0.65275 0.50168 0.0
H852 H 0.83897 0.64533 0.3232 0.0
H853 H 0.79752 0.64782 0.26303 0.0
C854 C 0.74849 0.65264 0.31242 0.0
C855 C 0.72404 0.6549 0.34471 0.0
C856 C 0.77262 0.65179 0.34706 0.0
C857 C 0.72433 0.65686 0.41231 0.0
C858 C 0.74819 0.65615 0.44691 0.0
C859 C 0.79657 0.65197 0.44964 0.0
C860 C 0.82092 0.64863 0.41744 0.0
C861 C 0.77248 0.65343 0.41492 0.0
C862 C 0.82067 0.6474 0.34974 0.0
C863 C 0.79689 0.64898 0.31505 0.0
H864 H 0.62817 0.22931 0.67307 0.0
H865 H 0.60911 0.26123 0.4861 0.0
H866 H 0.61147 0.30599 0.52884 0.0
H867 H 0.62022 0.33624 0.61847 0.0
H868 H 0.63768 0.30434 0.80648 0.0
H869 H 0.6347 0.25959 0.76412 0.0
C870 C 0.6242 0.24601 0.64185 0.0
C871 C 0.61872 0.24179 0.57628 0.0
C872 C 0.62548 0.27182 0.66681 0.0
C873 C 0.61389 0.2638 0.53645 0.0
C874 C 0.61509 0.28947 0.56093 0.0
C875 C 0.62307 0.31956 0.65045 0.0
C876 C 0.62941 0.32388 0.71554 0.0
C877 C 0.6211 0.29374 0.62591 0.0
C878 C 0.63332 0.30183 0.75591 0.0
C879 C 0.63143 0.27612 0.73182 0.0
loop_
_geom_bond_atom_site_label_1
_geom_bond_atom_site_label_2
_geom_bond_distance
_geom_bond_site_symmetry_2
_ccdc_geom_bond_type
Cu0 N1 1.999 . S
Cu0 O6 1.974 . S
Cu0 N11 1.985 . S
Cu0 O20 1.959 . S
N1 Cu0 1.999 . S
N1 C3 1.263 . S
N1 C5 1.389 . S
N2 C3 1.358 . S
N2 C4 1.400 . S
C3 N1 1.263 . S
C3 N2 1.358 . S
C3 H9 0.930 . S
C4 N2 1.400 . S
C4 C5 1.351 . S
C4 H21 0.930 . S
C5 N1 1.389 . S
C5 C4 1.351 . S
C5 H10 0.930 . S
O6 Cu0 1.974 . S
O6 C16 1.282 . S
C7 O8 1.261 . S
C7 O20 1.251 . S
O8 C7 1.261 . S
H9 C3 0.930 . S
H10 C5 0.930 . S
N11 Cu0 1.985 . S
N11 C13 1.335 . S
N11 C14 1.390 . S
N12 C13 1.345 . S
N12 C15 1.336 . S
C13 N11 1.335 . S
C13 N12 1.345 . S
C13 H18 0.930 . S
C14 N11 1.390 . S
C14 C15 1.346 . S
C14 H19 0.930 . S
C15 N12 1.336 . S
C15 C14 1.346 . S
C15 H22 0.929 . S
C16 O6 1.282 . S
C16 O17 1.216 . S
O17 C16 1.216 . S
H18 C13 0.930 . S
H19 C14 0.930 . S
O20 Cu0 1.959 . S
O20 C7 1.251 . S
H21 C4 0.930 . S
H22 C15 0.929 . S
Cu23 N24 1.999 . S
Cu23 O29 1.974 . S
Cu23 N34 1.985 . S
Cu23 O43 1.959 . S
N24 Cu23 1.999 . S
N24 C26 1.263 . S
N24 C28 1.389 . S
N25 C26 1.358 . S
N25 C27 1.400 . S
C26 N24 1.263 . S
C26 N25 1.358 . S
C26 H32 0.930 . S
C27 N25 1.400 . S
C27 C28 1.351 . S
C27 H44 0.930 . S
C28 N24 1.389 . S
C28 C27 1.351 . S
C28 H33 0.930 . S
O29 Cu23 1.974 . S
O29 C39 1.282 . S
C30 O31 1.261 . S
C30 O43 1.251 . S
O31 C30 1.261 . S
H32 C26 0.930 . S
H33 C28 0.930 . S
N34 Cu23 1.985 . S
N34 C36 1.335 . S
N34 C37 1.390 . S
N35 C36 1.345 . S
N35 C38 1.336 . S
C36 N34 1.335 . S
C36 N35 1.345 . S
C36 H41 0.930 . S
C37 N34 1.390 . S
C37 C38 1.346 . S
C37 H42 0.930 . S
C38 N35 1.336 . S
C38 C37 1.346 . S
C38 H45 0.929 . S
C39 O29 1.282 . S
C39 O40 1.216 . S
O40 C39 1.216 . S
H41 C36 0.930 . S
H42 C37 0.930 . S
O43 Cu23 1.959 . S
O43 C30 1.251 . S
H44 C27 0.930 . S
H45 C38 0.929 . S
Cu46 N47 1.999 . S
Cu46 O52 1.974 . S
Cu46 N57 1.985 . S
Cu46 O66 1.959 . S
N47 Cu46 1.999 . S
N47 C49 1.263 . S
N47 C51 1.389 . S
N48 C49 1.358 . S
N48 C50 1.400 . S
C49 N47 1.263 . S
C49 N48 1.358 . S
C49 H55 0.930 . S
C50 N48 1.400 . S
C50 C51 1.351 . S
C50 H67 0.930 . S
C51 N47 1.389 . S
C51 C50 1.351 . S
C51 H56 0.930 . S
O52 Cu46 1.974 . S
O52 C62 1.282 . S
C53 O54 1.261 . S
C53 O66 1.251 . S
O54 C53 1.261 . S
H55 C49 0.930 . S
H56 C51 0.930 . S
N57 Cu46 1.985 . S
N57 C59 1.335 . S
N57 C60 1.390 . S
N58 C59 1.345 . S
N58 C61 1.336 . S
C59 N57 1.335 . S
C59 N58 1.345 . S
C59 H64 0.930 . S
C60 N57 1.390 . S
C60 C61 1.346 . S
C60 H65 0.930 . S
C61 N58 1.336 . S
C61 C60 1.346 . S
C61 H68 0.929 . S
C62 O52 1.282 . S
C62 O63 1.216 . S
O63 C62 1.216 . S
H64 C59 0.930 . S
H65 C60 0.930 . S
O66 Cu46 1.959 . S
O66 C53 1.251 . S
H67 C50 0.930 . S
H68 C61 0.929 . S
Cu69 N70 1.999 . S
Cu69 O75 1.974 . S
Cu69 N80 1.985 . S
Cu69 O89 1.959 . S
N70 Cu69 1.999 . S
N70 C72 1.263 . S
N70 C74 1.389 . S
N71 C72 1.358 . S
N71 C73 1.400 . S
C72 N70 1.263 . S
C72 N71 1.358 . S
C72 H78 0.930 . S
C73 N71 1.400 . S
C73 C74 1.351 . S
C73 H90 0.930 . S
C74 N70 1.389 . S
C74 C73 1.351 . S
C74 H79 0.930 . S
O75 Cu69 1.974 . S
O75 C85 1.282 . S
C76 O77 1.261 . S
C76 O89 1.251 . S
O77 C76 1.261 . S
H78 C72 0.930 . S
H79 C74 0.930 . S
N80 Cu69 1.985 . S
N80 C82 1.335 . S
N80 C83 1.390 . S
N81 C82 1.345 . S
N81 C84 1.336 . S
C82 N80 1.335 . S
C82 N81 1.345 . S
C82 H87 0.930 . S
C83 N80 1.390 . S
C83 C84 1.346 . S
C83 H88 0.930 . S
C84 N81 1.336 . S
C84 C83 1.346 . S
C84 H91 0.929 . S
C85 O75 1.282 . S
C85 O86 1.216 . S
O86 C85 1.216 . S
H87 C82 0.930 . S
H88 C83 0.930 . S
O89 Cu69 1.959 . S
O89 C76 1.251 . S
H90 C73 0.930 . S
H91 C84 0.929 . S
Cu92 N93 1.999 . S
Cu92 O98 1.974 . S
Cu92 N103 1.985 . S
Cu92 O112 1.959 . S
N93 Cu92 1.999 . S
N93 C95 1.263 . S
N93 C97 1.389 . S
N94 C95 1.358 . S
N94 C96 1.400 . S
C95 N93 1.263 . S
C95 N94 1.358 . S
C95 H101 0.930 . S
C96 N94 1.400 . S
C96 C97 1.351 . S
C96 H113 0.930 . S
C97 N93 1.389 . S
C97 C96 1.351 . S
C97 H102 0.930 . S
O98 Cu92 1.974 . S
O98 C108 1.282 . S
C99 O100 1.261 . S
C99 O112 1.251 . S
O100 C99 1.261 . S
H101 C95 0.930 . S
H102 C97 0.930 . S
N103 Cu92 1.985 . S
N103 C105 1.335 . S
N103 C106 1.390 . S
N104 C105 1.345 . S
N104 C107 1.336 . S
C105 N103 1.335 . S
C105 N104 1.345 . S
C105 H110 0.930 . S
C106 N103 1.390 . S
C106 C107 1.346 . S
C106 H111 0.930 . S
C107 N104 1.336 . S
C107 C106 1.346 . S
C107 H114 0.929 . S
C108 O98 1.282 . S
C108 O109 1.216 . S
O109 C108 1.216 . S
H110 C105 0.930 . S
H111 C106 0.930 . S
O112 Cu92 1.959 . S
O112 C99 1.251 . S
H113 C96 0.930 . S
H114 C107 0.929 . S
Cu115 N116 1.999 . S
Cu115 O121 1.974 . S
Cu115 N126 1.985 . S
Cu115 O135 1.959 . S
N116 Cu115 1.999 . S
N116 C118 1.263 . S
N116 C120 1.389 . S
N117 C118 1.358 . S
N117 C119 1.400 . S
C118 N116 1.263 . S
C118 N117 1.358 . S
C118 H124 0.930 . S
C119 N117 1.400 . S
C119 C120 1.351 . S
C119 H136 0.930 . S
C120 N116 1.389 . S
C120 C119 1.351 . S
C120 H125 0.930 . S
O121 Cu115 1.974 . S
O121 C131 1.282 . S
C122 O123 1.261 . S
C122 O135 1.251 . S
O123 C122 1.261 . S
H124 C118 0.930 . S
H125 C120 0.930 . S
N126 Cu115 1.985 . S
N126 C128 1.335 . S
N126 C129 1.390 . S
N127 C128 1.345 . S
N127 C130 1.336 . S
C128 N126 1.335 . S
C128 N127 1.345 . S
C128 H133 0.930 . S
C129 N126 1.390 . S
C129 C130 1.346 . S
C129 H134 0.930 . S
C130 N127 1.336 . S
C130 C129 1.346 . S
C130 H137 0.929 . S
C131 O121 1.282 . S
C131 O132 1.216 . S
O132 C131 1.216 . S
H133 C128 0.930 . S
H134 C129 0.930 . S
O135 Cu115 1.959 . S
O135 C122 1.251 . S
H136 C119 0.930 . S
H137 C130 0.929 . S
Cu138 N139 1.999 . S
Cu138 O144 1.974 . S
Cu138 N149 1.985 . S
Cu138 O158 1.959 . S
N139 Cu138 1.999 . S
N139 C141 1.263 . S
N139 C143 1.389 . S
N140 C141 1.358 . S
N140 C142 1.400 . S
C141 N139 1.263 . S
C141 N140 1.358 . S
C141 H147 0.930 . S
C142 N140 1.400 . S
C142 C143 1.351 . S
C142 H159 0.930 . S
C143 N139 1.389 . S
C143 C142 1.351 . S
C143 H148 0.930 . S
O144 Cu138 1.974 . S
O144 C154 1.282 . S
C145 O146 1.261 . S
C145 O158 1.251 . S
O146 C145 1.261 . S
H147 C141 0.930 . S
H148 C143 0.930 . S
N149 Cu138 1.985 . S
N149 C151 1.335 . S
N149 C152 1.390 . S
N150 C151 1.345 . S
N150 C153 1.336 . S
C151 N149 1.335 . S
C151 N150 1.345 . S
C151 H156 0.930 . S
C152 N149 1.390 . S
C152 C153 1.346 . S
C152 H157 0.930 . S
C153 N150 1.336 . S
C153 C152 1.346 . S
C153 H160 0.929 . S
C154 O144 1.282 . S
C154 O155 1.216 . S
O155 C154 1.216 . S
H156 C151 0.930 . S
H157 C152 0.930 . S
O158 Cu138 1.959 . S
O158 C145 1.251 . S
H159 C142 0.930 . S
H160 C153 0.929 . S
Cu161 N162 1.999 . S
Cu161 O167 1.974 . S
Cu161 N172 1.985 . S
Cu161 O181 1.959 . S
N162 Cu161 1.999 . S
N162 C164 1.263 . S
N162 C166 1.389 . S
N163 C164 1.358 . S
N163 C165 1.400 . S
C164 N162 1.263 . S
C164 N163 1.358 . S
C164 H170 0.930 . S
C165 N163 1.400 . S
C165 C166 1.351 . S
C165 H182 0.930 . S
C166 N162 1.389 . S
C166 C165 1.351 . S
C166 H171 0.930 . S
O167 Cu161 1.974 . S
O167 C177 1.282 . S
C168 O169 1.261 . S
C168 O181 1.251 . S
O169 C168 1.261 . S
H170 C164 0.930 . S
H171 C166 0.930 . S
N172 Cu161 1.985 . S
N172 C174 1.335 . S
N172 C175 1.390 . S
N173 C174 1.345 . S
N173 C176 1.336 . S
C174 N172 1.335 . S
C174 N173 1.345 . S
C174 H179 0.930 . S
C175 N172 1.390 . S
C175 C176 1.346 . S
C175 H180 0.930 . S
C176 N173 1.336 . S
C176 C175 1.346 . S
C176 H183 0.929 . S
C177 O167 1.282 . S
C177 O178 1.216 . S
O178 C177 1.216 . S
H179 C174 0.930 . S
H180 C175 0.930 . S
O181 Cu161 1.959 . S
O181 C168 1.251 . S
H182 C165 0.930 . S
H183 C176 0.929 . S
Cu184 N185 1.999 . S
Cu184 O190 1.974 . S
Cu184 N195 1.985 . S
Cu184 O204 1.959 . S
N185 Cu184 1.999 . S
N185 C187 1.263 . S
N185 C189 1.389 . S
N186 C187 1.358 . S
N186 C188 1.400 . S
C187 N185 1.263 . S
C187 N186 1.358 . S
C187 H193 0.930 . S
C188 N186 1.400 . S
C188 C189 1.351 . S
C188 H205 0.930 . S
C189 N185 1.389 . S
C189 C188 1.351 . S
C189 H194 0.930 . S
O190 Cu184 1.974 . S
O190 C200 1.282 . S
C191 O192 1.261 . S
C191 O204 1.251 . S
O192 C191 1.261 . S
H193 C187 0.930 . S
H194 C189 0.930 . S
N195 Cu184 1.985 . S
N195 C197 1.335 . S
N195 C198 1.390 . S
N196 C197 1.345 . S
N196 C199 1.336 . S
C197 N195 1.335 . S
C197 N196 1.345 . S
C197 H202 0.930 . S
C198 N195 1.390 . S
C198 C199 1.346 . S
C198 H203 0.930 . S
C199 N196 1.336 . S
C199 C198 1.346 . S
C199 H206 0.929 . S
C200 O190 1.282 . S
C200 O201 1.216 . S
O201 C200 1.216 . S
H202 C197 0.930 . S
H203 C198 0.930 . S
O204 Cu184 1.959 . S
O204 C191 1.251 . S
H205 C188 0.930 . S
H206 C199 0.929 . S
Cu207 N208 1.999 . S
Cu207 O213 1.974 . S
Cu207 N218 1.985 . S
Cu207 O227 1.959 . S
N208 Cu207 1.999 . S
N208 C210 1.263 . S
N208 C212 1.389 . S
N209 C210 1.358 . S
N209 C211 1.400 . S
C210 N208 1.263 . S
C210 N209 1.358 . S
C210 H216 0.930 . S
C211 N209 1.400 . S
C211 C212 1.351 . S
C211 H228 0.930 . S
C212 N208 1.389 . S
C212 C211 1.351 . S
C212 H217 0.930 . S
O213 Cu207 1.974 . S
O213 C223 1.282 . S
C214 O215 1.261 . S
C214 O227 1.251 . S
O215 C214 1.261 . S
H216 C210 0.930 . S
H217 C212 0.930 . S
N218 Cu207 1.985 . S
N218 C220 1.335 . S
N218 C221 1.390 . S
N219 C220 1.345 . S
N219 C222 1.336 . S
C220 N218 1.335 . S
C220 N219 1.345 . S
C220 H225 0.930 . S
C221 N218 1.390 . S
C221 C222 1.346 . S
C221 H226 0.930 . S
C222 N219 1.336 . S
C222 C221 1.346 . S
C222 H229 0.929 . S
C223 O213 1.282 . S
C223 O224 1.216 . S
O224 C223 1.216 . S
H225 C220 0.930 . S
H226 C221 0.930 . S
O227 Cu207 1.959 . S
O227 C214 1.251 . S
H228 C211 0.930 . S
H229 C222 0.929 . S
Cu230 N231 1.999 . S
Cu230 O236 1.974 . S
Cu230 N241 1.985 . S
Cu230 O250 1.959 . S
N231 Cu230 1.999 . S
N231 C233 1.263 . S
N231 C235 1.389 . S
N232 C233 1.358 . S
N232 C234 1.400 . S
C233 N231 1.263 . S
C233 N232 1.358 . S
C233 H239 0.930 . S
C234 N232 1.400 . S
C234 C235 1.351 . S
C234 H251 0.930 . S
C235 N231 1.389 . S
C235 C234 1.351 . S
C235 H240 0.930 . S
O236 Cu230 1.974 . S
O236 C246 1.282 . S
C237 O238 1.261 . S
C237 O250 1.251 . S
O238 C237 1.261 . S
H239 C233 0.930 . S
H240 C235 0.930 . S
N241 Cu230 1.985 . S
N241 C243 1.335 . S
N241 C244 1.390 . S
N242 C243 1.345 . S
N242 C245 1.336 . S
C243 N241 1.335 . S
C243 N242 1.345 . S
C243 H248 0.930 . S
C244 N241 1.390 . S
C244 C245 1.346 . S
C244 H249 0.930 . S
C245 N242 1.336 . S
C245 C244 1.346 . S
C245 H252 0.929 . S
C246 O236 1.282 . S
C246 O247 1.216 . S
O247 C246 1.216 . S
H248 C243 0.930 . S
H249 C244 0.930 . S
O250 Cu230 1.959 . S
O250 C237 1.251 . S
H251 C234 0.930 . S
H252 C245 0.929 . S
Cu253 N254 1.999 . S
Cu253 O259 1.974 . S
Cu253 N264 1.985 . S
Cu253 O273 1.959 . S
N254 Cu253 1.999 . S
N254 C256 1.263 . S
N254 C258 1.389 . S
N255 C256 1.358 . S
N255 C257 1.400 . S
C256 N254 1.263 . S
C256 N255 1.358 . S
C256 H262 0.930 . S
C257 N255 1.400 . S
C257 C258 1.351 . S
C257 H274 0.930 . S
C258 N254 1.389 . S
C258 C257 1.351 . S
C258 H263 0.930 . S
O259 Cu253 1.974 . S
O259 C269 1.282 . S
C260 O261 1.261 . S
C260 O273 1.251 . S
O261 C260 1.261 . S
H262 C256 0.930 . S
H263 C258 0.930 . S
N264 Cu253 1.985 . S
N264 C266 1.335 . S
N264 C267 1.390 . S
N265 C266 1.345 . S
N265 C268 1.336 . S
C266 N264 1.335 . S
C266 N265 1.345 . S
C266 H271 0.930 . S
C267 N264 1.390 . S
C267 C268 1.346 . S
C267 H272 0.930 . S
C268 N265 1.336 . S
C268 C267 1.346 . S
C268 H275 0.929 . S
C269 O259 1.282 . S
C269 O270 1.216 . S
O270 C269 1.216 . S
H271 C266 0.930 . S
H272 C267 0.930 . S
O273 Cu253 1.959 . S
O273 C260 1.251 . S
H274 C257 0.930 . S
H275 C268 0.929 . S
Cu276 N277 1.999 . S
Cu276 O282 1.974 . S
Cu276 N287 1.985 . S
Cu276 O296 1.959 . S
N277 Cu276 1.999 . S
N277 C279 1.263 . S
N277 C281 1.389 . S
N278 C279 1.358 . S
N278 C280 1.400 . S
C279 N277 1.263 . S
C279 N278 1.358 . S
C279 H285 0.930 . S
C280 N278 1.400 . S
C280 C281 1.351 . S
C280 H297 0.930 . S
C281 N277 1.389 . S
C281 C280 1.351 . S
C281 H286 0.930 . S
O282 Cu276 1.974 . S
O282 C292 1.282 . S
C283 O284 1.261 . S
C283 O296 1.251 . S
O284 C283 1.261 . S
H285 C279 0.930 . S
H286 C281 0.930 . S
N287 Cu276 1.985 . S
N287 C289 1.335 . S
N287 C290 1.390 . S
N288 C289 1.345 . S
N288 C291 1.336 . S
C289 N287 1.335 . S
C289 N288 1.345 . S
C289 H294 0.930 . S
C290 N287 1.390 . S
C290 C291 1.346 . S
C290 H295 0.930 . S
C291 N288 1.336 . S
C291 C290 1.346 . S
C291 H298 0.929 . S
C292 O282 1.282 . S
C292 O293 1.216 . S
O293 C292 1.216 . S
H294 C289 0.930 . S
H295 C290 0.930 . S
O296 Cu276 1.959 . S
O296 C283 1.251 . S
H297 C280 0.930 . S
H298 C291 0.929 . S
Cu299 N300 1.999 . S
Cu299 O305 1.974 . S
Cu299 N310 1.985 . S
Cu299 O319 1.959 . S
N300 Cu299 1.999 . S
N300 C302 1.263 . S
N300 C304 1.389 . S
N301 C302 1.358 . S
N301 C303 1.400 . S
C302 N300 1.263 . S
C302 N301 1.358 . S
C302 H308 0.930 . S
C303 N301 1.400 . S
C303 C304 1.351 . S
C303 H320 0.930 . S
C304 N300 1.389 . S
C304 C303 1.351 . S
C304 H309 0.930 . S
O305 Cu299 1.974 . S
O305 C315 1.282 . S
C306 O307 1.261 . S
C306 O319 1.251 . S
O307 C306 1.261 . S
H308 C302 0.930 . S
H309 C304 0.930 . S
N310 Cu299 1.985 . S
N310 C312 1.335 . S
N310 C313 1.390 . S
N311 C312 1.345 . S
N311 C314 1.336 . S
C312 N310 1.335 . S
C312 N311 1.345 . S
C312 H317 0.930 . S
C313 N310 1.390 . S
C313 C314 1.346 . S
C313 H318 0.930 . S
C314 N311 1.336 . S
C314 C313 1.346 . S
C314 H321 0.929 . S
C315 O305 1.282 . S
C315 O316 1.216 . S
O316 C315 1.216 . S
H317 C312 0.930 . S
H318 C313 0.930 . S
O319 Cu299 1.959 . S
O319 C306 1.251 . S
H320 C303 0.930 . S
H321 C314 0.929 . S
Cu322 N323 1.999 . S
Cu322 O328 1.974 . S
Cu322 N333 1.985 . S
Cu322 O342 1.959 . S
N323 Cu322 1.999 . S
N323 C325 1.263 . S
N323 C327 1.389 . S
N324 C325 1.358 . S
N324 C326 1.400 . S
C325 N323 1.263 . S
C325 N324 1.358 . S
C325 H331 0.930 . S
C326 N324 1.400 . S
C326 C327 1.351 . S
C326 H343 0.930 . S
C327 N323 1.389 . S
C327 C326 1.351 . S
C327 H332 0.930 . S
O328 Cu322 1.974 . S
O328 C338 1.282 . S
C329 O330 1.261 . S
C329 O342 1.251 . S
O330 C329 1.261 . S
H331 C325 0.930 . S
H332 C327 0.930 . S
N333 Cu322 1.985 . S
N333 C335 1.335 . S
N333 C336 1.390 . S
N334 C335 1.345 . S
N334 C337 1.336 . S
C335 N333 1.335 . S
C335 N334 1.345 . S
C335 H340 0.930 . S
C336 N333 1.390 . S
C336 C337 1.346 . S
C336 H341 0.930 . S
C337 N334 1.336 . S
C337 C336 1.346 . S
C337 H344 0.929 . S
C338 O328 1.282 . S
C338 O339 1.216 . S
O339 C338 1.216 . S
H340 C335 0.930 . S
H341 C336 0.930 . S
O342 Cu322 1.959 . S
O342 C329 1.251 . S
H343 C326 0.930 . S
H344 C337 0.929 . S
Cu345 N346 1.999 . S
Cu345 O351 1.974 . S
Cu345 N356 1.985 . S
Cu345 O365 1.959 . S
N346 Cu345 1.999 . S
N346 C348 1.263 . S
N346 C350 1.389 . S
N347 C348 1.358 . S
N347 C349 1.400 . S
C348 N346 1.263 . S
C348 N347 1.358 . S
C348 H354 0.930 . S
C349 N347 1.400 . S
C349 C350 1.351 . S
C349 H366 0.930 . S
C350 N346 1.389 . S
C350 C349 1.351 . S
C350 H355 0.930 . S
O351 Cu345 1.974 . S
O351 C361 1.282 . S
C352 O353 1.261 . S
C352 O365 1.251 . S
O353 C352 1.261 . S
H354 C348 0.930 . S
H355 C350 0.930 . S
N356 Cu345 1.985 . S
N356 C358 1.335 . S
N356 C359 1.390 . S
N357 C358 1.345 . S
N357 C360 1.336 . S
C358 N356 1.335 . S
C358 N357 1.345 . S
C358 H363 0.930 . S
C359 N356 1.390 . S
C359 C360 1.346 . S
C359 H364 0.930 . S
C360 N357 1.336 . S
C360 C359 1.346 . S
C360 H367 0.929 . S
C361 O351 1.282 . S
C361 O362 1.216 . S
O362 C361 1.216 . S
H363 C358 0.930 . S
H364 C359 0.930 . S
O365 Cu345 1.959 . S
O365 C352 1.251 . S
H366 C349 0.930 . S
H367 C360 0.929 . S
H368 C374 0.930 . S
H369 C377 0.930 . S
H370 C378 0.930 . S
H371 C379 0.930 . S
H372 C382 0.930 . S
H373 C383 0.930 . S
C374 H368 0.930 . S
C374 C375 1.355 . S
C374 C376 1.415 1_565 S
C375 C374 1.355 . S
C375 C377 1.419 . S
C376 C374 1.415 1_545 S
C376 C381 1.425 . S
C376 C383 1.409 . S
C377 H369 0.930 . S
C377 C375 1.419 . S
C377 C378 1.362 . S
C378 H370 0.930 . S
C378 C377 1.362 . S
C378 C381 1.409 1_565 S
C379 H371 0.930 . S
C379 C380 1.355 . S
C379 C381 1.415 . S
C380 C379 1.355 . S
C380 C382 1.419 . S
C381 C376 1.425 . S
C381 C378 1.409 1_545 S
C381 C379 1.415 . S
C382 H372 0.930 . S
C382 C380 1.419 . S
C382 C383 1.362 . S
C383 H373 0.930 . S
C383 C376 1.409 . S
C383 C382 1.362 . S
H384 C390 0.930 . S
H385 C393 0.930 . S
H386 C394 0.930 . S
H387 C395 0.930 . S
H388 C398 0.930 . S
H389 C399 0.930 . S
C390 H384 0.930 . S
C390 C391 1.355 . S
C390 C392 1.415 . S
C391 C390 1.355 . S
C391 C393 1.419 . S
C392 C390 1.415 . S
C392 C397 1.425 . S
C392 C399 1.409 1_455 S
C393 H385 0.930 . S
C393 C391 1.419 . S
C393 C394 1.362 . S
C394 H386 0.930 . S
C394 C393 1.362 . S
C394 C397 1.409 . S
C395 H387 0.930 . S
C395 C396 1.355 . S
C395 C397 1.415 1_655 S
C396 C395 1.355 . S
C396 C398 1.419 . S
C397 C392 1.425 . S
C397 C394 1.409 . S
C397 C395 1.415 1_455 S
C398 H388 0.930 . S
C398 C396 1.419 . S
C398 C399 1.362 . S
C399 H389 0.930 . S
C399 C392 1.409 1_655 S
C399 C398 1.362 . S
H400 C406 0.930 . S
H401 C409 0.930 . S
H402 C410 0.930 . S
H403 C411 0.930 . S
H404 C414 0.930 . S
H405 C415 0.944 . S
C406 H400 0.930 . S
C406 C407 1.355 . S
C406 C408 1.415 . S
C407 C406 1.355 . S
C407 C409 1.419 . S
C408 C406 1.415 . S
C408 C413 1.425 . S
C408 C415 1.409 1_565 S
C409 H401 0.930 . S
C409 C407 1.419 . S
C409 C410 1.362 . S
C410 H402 0.930 . S
C410 C409 1.362 . S
C410 C413 1.409 . S
C411 H403 0.930 . S
C411 C412 1.355 . S
C411 C413 1.415 1_545 S
C412 C411 1.355 . S
C412 C414 1.419 . S
C413 C408 1.425 . S
C413 C410 1.409 . S
C413 C411 1.415 1_565 S
C414 H404 0.930 . S
C414 C412 1.419 . S
C414 C415 1.362 . S
C415 H405 0.944 . S
C415 C408 1.409 1_545 S
C415 C414 1.362 . S
H416 C422 0.930 . S
H417 C425 0.930 . S
H418 C426 0.929 1_655 S
H419 C427 0.930 . S
H420 C430 0.930 . S
H421 C431 0.930 . S
C422 H416 0.930 . S
C422 C423 1.355 . S
C422 C424 1.440 . S
C423 C422 1.355 . S
C423 C425 1.419 . S
C424 C422 1.440 . S
C424 C429 1.412 1_455 S
C424 C431 1.396 1_455 S
C425 H417 0.930 . S
C425 C423 1.419 . S
C425 C426 1.365 . S
C426 H418 0.929 1_455 S
C426 C425 1.365 . S
C426 C429 1.408 1_455 S
C427 H419 0.930 . S
C427 C428 1.355 . S
C427 C429 1.415 . S
C428 C427 1.355 . S
C428 C430 1.419 . S
C429 C424 1.412 1_655 S
C429 C426 1.408 1_655 S
C429 C427 1.415 . S
C430 H420 0.930 . S
C430 C428 1.419 . S
C430 C431 1.362 . S
C431 H421 0.930 . S
C431 C424 1.396 1_655 S
C431 C430 1.362 . S
H432 C438 0.930 . S
H433 C441 0.930 . S
H434 C442 0.930 . S
H435 C443 0.930 1_556 S
H436 C446 0.930 . S
H437 C447 0.930 . S
C438 H432 0.930 . S
C438 C439 1.355 . S
C438 C440 1.415 . S
C439 C438 1.355 . S
C439 C441 1.419 . S
C440 C438 1.415 . S
C440 C445 1.425 . S
C440 C447 1.409 . S
C441 H433 0.930 . S
C441 C439 1.419 . S
C441 C442 1.362 . S
C442 H434 0.930 . S
C442 C441 1.362 . S
C442 C445 1.409 . S
C443 H435 0.930 1_554 S
C443 C444 1.355 1_554 S
C443 C445 1.415 . S
C444 C443 1.355 1_556 S
C444 C446 1.419 1_556 S
C445 C440 1.425 . S
C445 C442 1.409 . S
C445 C443 1.415 . S
C446 H436 0.930 . S
C446 C444 1.419 1_554 S
C446 C447 1.362 . S
C447 H437 0.930 . S
C447 C440 1.409 . S
C447 C446 1.362 . S
H448 C454 0.930 . S
H449 C457 0.930 . S
H450 C458 0.930 1_554 S
H451 C459 0.930 . S
H452 C462 0.930 . S
H453 C463 0.930 . S
C454 H448 0.930 . S
C454 C455 1.355 . S
C454 C456 1.415 . S
C455 C454 1.355 . S
C455 C457 1.419 . S
C456 C454 1.415 . S
C456 C461 1.425 . S
C456 C463 1.409 . S
C457 H449 0.930 . S
C457 C455 1.419 . S
C457 C458 1.362 . S
C458 H450 0.930 1_556 S
C458 C457 1.362 . S
C458 C461 1.409 . S
C459 H451 0.930 . S
C459 C460 1.353 1_554 S
C459 C461 1.415 1_554 S
C460 C459 1.353 1_556 S
C460 C462 1.423 . S
C461 C456 1.425 . S
C461 C458 1.409 . S
C461 C459 1.415 1_556 S
C462 H452 0.930 . S
C462 C460 1.423 . S
C462 C463 1.362 . S
C463 H453 0.930 . S
C463 C456 1.409 . S
C463 C462 1.362 . S
H464 C470 0.930 . S
H465 C473 0.930 . S
H466 C474 0.930 . S
H467 C475 0.943 . S
H468 C478 0.930 . S
H469 C479 0.930 . S
C470 H464 0.930 . S
C470 C471 1.355 1_554 S
C470 C472 1.415 . S
C471 C470 1.355 1_556 S
C471 C473 1.419 . S
C472 C470 1.415 . S
C472 C477 1.425 1_554 S
C472 C479 1.409 . S
C473 H465 0.930 . S
C473 C471 1.419 . S
C473 C474 1.362 . S
C474 H466 0.930 . S
C474 C473 1.362 . S
C474 C477 1.409 . S
C475 H467 0.943 . S
C475 C476 1.341 1_556 S
C475 C477 1.415 . S
C476 C475 1.341 1_554 S
C476 C478 1.419 . S
C477 C472 1.425 1_556 S
C477 C474 1.409 . S
C477 C475 1.415 . S
C478 H468 0.930 . S
C478 C476 1.419 . S
C478 C479 1.362 . S
C479 H469 0.930 . S
C479 C472 1.409 . S
C479 C478 1.362 . S
H480 C486 0.930 . S
H481 C489 0.930 . S
H482 C490 0.930 . S
H483 C491 0.930 1_554 S
H484 C494 0.930 . S
H485 C495 0.930 . S
C486 H480 0.930 . S
C486 C487 1.355 1_556 S
C486 C488 1.415 . S
C487 C486 1.355 1_554 S
C487 C489 1.419 . S
C488 C486 1.415 . S
C488 C493 1.425 . S
C488 C495 1.409 . S
C489 H481 0.930 . S
C489 C487 1.419 . S
C489 C490 1.362 . S
C490 H482 0.930 . S
C490 C489 1.362 . S
C490 C493 1.409 1_554 S
C491 H483 0.930 1_556 S
C491 C492 1.355 . S
C491 C493 1.415 . S
C492 C491 1.355 . S
C492 C494 1.419 . S
C493 C488 1.425 . S
C493 C490 1.409 1_556 S
C493 C491 1.415 . S
C494 H484 0.930 . S
C494 C492 1.419 . S
C494 C495 1.362 . S
C495 H485 0.930 . S
C495 C488 1.409 . S
C495 C494 1.362 . S
H496 C502 0.930 . S
H497 C505 0.930 . S
H498 C506 0.930 . S
H499 C507 0.930 . S
H500 C510 0.930 . S
H501 C511 0.930 . S
C502 H496 0.930 . S
C502 C503 1.355 . S
C502 C504 1.415 . S
C503 C502 1.355 . S
C503 C505 1.419 . S
C504 C502 1.415 . S
C504 C509 1.425 . S
C504 C511 1.409 . S
C505 H497 0.930 . S
C505 C503 1.419 . S
C505 C506 1.362 . S
C506 H498 0.930 . S
C506 C505 1.362 . S
C506 C509 1.409 . S
C507 H499 0.930 . S
C507 C508 1.355 . S
C507 C509 1.415 . S
C508 C507 1.355 . S
C508 C510 1.419 . S
C509 C504 1.425 . S
C509 C506 1.409 . S
C509 C507 1.415 . S
C510 H500 0.930 . S
C510 C508 1.419 . S
C510 C511 1.362 . S
C511 H501 0.930 . S
C511 C504 1.409 . S
C511 C510 1.362 . S
H512 C518 0.930 . S
H513 C521 0.930 . S
H514 C522 0.930 . S
H515 C523 0.930 . S
H516 C526 0.930 . S
H517 C527 0.930 . S
C518 H512 0.930 . S
C518 C519 1.355 . S
C518 C520 1.415 . S
C519 C518 1.355 . S
C519 C521 1.419 . S
C520 C518 1.415 . S
C520 C525 1.425 . S
C520 C527 1.409 . S
C521 H513 0.930 . S
C521 C519 1.419 . S
C521 C522 1.362 . S
C522 H514 0.930 . S
C522 C521 1.362 . S
C522 C525 1.409 . S
C523 H515 0.930 . S
C523 C524 1.355 . S
C523 C525 1.415 . S
C524 C523 1.355 . S
C524 C526 1.419 . S
C525 C520 1.425 . S
C525 C522 1.409 . S
C525 C523 1.415 . S
C526 H516 0.930 . S
C526 C524 1.419 . S
C526 C527 1.362 . S
C527 H517 0.930 . S
C527 C520 1.409 . S
C527 C526 1.362 . S
H528 C534 0.930 . S
H529 C537 0.930 . S
H530 C538 0.930 . S
H531 C539 0.930 . S
H532 C542 0.930 . S
H533 C543 0.930 . S
C534 H528 0.930 . S
C534 C535 1.355 . S
C534 C536 1.415 . S
C535 C534 1.355 . S
C535 C537 1.419 . S
C536 C534 1.415 . S
C536 C541 1.425 . S
C536 C543 1.409 . S
C537 H529 0.930 . S
C537 C535 1.419 . S
C537 C538 1.362 . S
C538 H530 0.930 . S
C538 C537 1.362 . S
C538 C541 1.409 . S
C539 H531 0.930 . S
C539 C540 1.355 . S
C539 C541 1.415 . S
C540 C539 1.355 . S
C540 C542 1.419 . S
C541 C536 1.425 . S
C541 C538 1.409 . S
C541 C539 1.415 . S
C542 H532 0.930 . S
C542 C540 1.419 . S
C542 C543 1.362 . S
C543 H533 0.930 . S
C543 C536 1.409 . S
C543 C542 1.362 . S
H544 C550 0.930 . S
H545 C553 0.930 . S
H546 C554 0.930 . S
H547 C555 0.930 . S
H548 C558 0.930 . S
H549 C559 0.930 . S
C550 H544 0.930 . S
C550 C551 1.355 . S
C550 C552 1.415 . S
C551 C550 1.355 . S
C551 C553 1.419 . S
C552 C550 1.415 . S
C552 C557 1.425 . S
C552 C559 1.409 . S
C553 H545 0.930 . S
C553 C551 1.419 . S
C553 C554 1.362 . S
C554 H546 0.930 . S
C554 C553 1.362 . S
C554 C557 1.409 . S
C555 H547 0.930 . S
C555 C556 1.355 . S
C555 C557 1.415 . S
C556 C555 1.355 . S
C556 C558 1.419 . S
C557 C552 1.425 . S
C557 C554 1.409 . S
C557 C555 1.415 . S
C558 H548 0.930 . S
C558 C556 1.419 . S
C558 C559 1.362 . S
C559 H549 0.930 . S
C559 C552 1.409 . S
C559 C558 1.362 . S
H560 C566 0.930 . S
H561 C569 0.930 . S
H562 C570 0.930 . S
H563 C571 0.930 . S
H564 C574 0.930 . S
H565 C575 0.915 1_565 S
C566 H560 0.930 . S
C566 C567 1.355 . S
C566 C568 1.415 . S
C567 C566 1.355 . S
C567 C569 1.419 . S
C568 C566 1.415 . S
C568 C573 1.425 . S
C568 C575 1.409 1_565 S
C569 H561 0.930 . S
C569 C567 1.419 . S
C569 C570 1.362 . S
C570 H562 0.930 . S
C570 C569 1.362 . S
C570 C573 1.409 . S
C571 H563 0.930 . S
C571 C572 1.355 . S
C571 C573 1.415 1_545 S
C572 C571 1.355 . S
C572 C574 1.419 . S
C573 C568 1.425 . S
C573 C570 1.409 . S
C573 C571 1.415 1_565 S
C574 H564 0.930 . S
C574 C572 1.419 . S
C574 C575 1.362 . S
C575 H565 0.915 1_545 S
C575 C568 1.409 1_545 S
C575 C574 1.362 . S
H576 C582 0.930 . S
H577 C585 0.930 . S
H578 C586 0.930 . S
H579 C587 0.930 . S
H580 C590 0.930 . S
H581 C591 0.930 1_655 S
C582 H576 0.930 . S
C582 C583 1.355 . S
C582 C584 1.415 . S
C583 C582 1.355 . S
C583 C585 1.419 . S
C584 C582 1.415 . S
C584 C589 1.431 . S
C584 C591 1.409 1_655 S
C585 H577 0.930 . S
C585 C583 1.419 . S
C585 C586 1.362 . S
C586 H578 0.930 . S
C586 C585 1.362 . S
C586 C589 1.417 . S
C587 H579 0.930 . S
C587 C588 1.355 . S
C587 C589 1.401 1_455 S
C588 C587 1.355 . S
C588 C590 1.419 . S
C589 C584 1.431 . S
C589 C586 1.417 . S
C589 C587 1.401 1_655 S
C590 H580 0.930 . S
C590 C588 1.419 . S
C590 C591 1.362 . S
C591 H581 0.930 1_455 S
C591 C584 1.409 1_455 S
C591 C590 1.362 . S
H592 C598 0.930 . S
H593 C601 0.930 . S
H594 C602 0.930 . S
H595 C603 0.930 . S
H596 C606 0.930 . S
H597 C607 0.930 . S
C598 H592 0.930 . S
C598 C599 1.355 . S
C598 C600 1.415 1_565 S
C599 C598 1.355 . S
C599 C601 1.419 . S
C600 C598 1.415 1_545 S
C600 C605 1.425 . S
C600 C607 1.409 . S
C601 H593 0.930 . S
C601 C599 1.419 . S
C601 C602 1.362 . S
C602 H594 0.930 . S
C602 C601 1.362 . S
C602 C605 1.409 1_565 S
C603 H595 0.930 . S
C603 C604 1.355 . S
C603 C605 1.415 . S
C604 C603 1.355 . S
C604 C606 1.419 . S
C605 C600 1.425 . S
C605 C602 1.409 1_545 S
C605 C603 1.415 . S
C606 H596 0.930 . S
C606 C604 1.419 . S
C606 C607 1.362 . S
C607 H597 0.930 . S
C607 C600 1.409 . S
C607 C606 1.362 . S
H608 C614 0.930 . S
H609 C617 0.930 . S
H610 C618 0.930 . S
H611 C619 0.930 . S
H612 C622 0.930 . S
H613 C623 0.930 . S
C614 H608 0.930 . S
C614 C615 1.355 . S
C614 C616 1.415 1_655 S
C615 C614 1.355 . S
C615 C617 1.419 . S
C616 C614 1.415 1_455 S
C616 C621 1.425 . S
C616 C623 1.409 . S
C617 H609 0.930 . S
C617 C615 1.419 . S
C617 C618 1.362 . S
C618 H610 0.930 . S
C618 C617 1.362 . S
C618 C621 1.409 1_655 S
C619 H611 0.930 . S
C619 C620 1.355 . S
C619 C621 1.415 . S
C620 C619 1.355 . S
C620 C622 1.419 . S
C621 C616 1.425 . S
C621 C618 1.409 1_455 S
C621 C619 1.415 . S
C622 H612 0.930 . S
C622 C620 1.419 . S
C622 C623 1.362 . S
C623 H613 0.930 . S
C623 C616 1.409 . S
C623 C622 1.362 . S
H624 C630 0.930 . S
H625 C633 0.930 . S
H626 C634 0.930 . S
H627 C635 0.930 . S
H628 C638 0.930 . S
H629 C639 0.930 . S
C630 H624 0.930 . S
C630 C631 1.355 . S
C630 C632 1.415 . S
C631 C630 1.355 . S
C631 C633 1.419 . S
C632 C630 1.415 . S
C632 C637 1.425 . S
C632 C639 1.409 . S
C633 H625 0.930 . S
C633 C631 1.419 . S
C633 C634 1.362 . S
C634 H626 0.930 . S
C634 C633 1.362 . S
C634 C637 1.409 . S
C635 H627 0.930 . S
C635 C636 1.355 . S
C635 C637 1.415 . S
C636 C635 1.355 . S
C636 C638 1.419 . S
C637 C632 1.425 . S
C637 C634 1.409 . S
C637 C635 1.415 . S
C638 H628 0.930 . S
C638 C636 1.419 . S
C638 C639 1.362 . S
C639 H629 0.930 . S
C639 C632 1.409 . S
C639 C638 1.362 . S
H640 C646 0.930 . S
H641 C649 0.930 . S
H642 C650 0.930 . S
H643 C651 0.930 . S
H644 C654 0.930 . S
H645 C655 0.930 . S
C646 H640 0.930 . S
C646 C647 1.355 . S
C646 C648 1.415 . S
C647 C646 1.355 . S
C647 C649 1.419 . S
C648 C646 1.415 . S
C648 C653 1.425 . S
C648 C655 1.409 . S
C649 H641 0.930 . S
C649 C647 1.419 . S
C649 C650 1.362 . S
C650 H642 0.930 . S
C650 C649 1.362 . S
C650 C653 1.409 . S
C651 H643 0.930 . S
C651 C652 1.355 . S
C651 C653 1.415 . S
C652 C651 1.355 . S
C652 C654 1.419 . S
C653 C648 1.425 . S
C653 C650 1.409 . S
C653 C651 1.415 . S
C654 H644 0.930 . S
C654 C652 1.419 . S
C654 C655 1.362 . S
C655 H645 0.930 . S
C655 C648 1.409 . S
C655 C654 1.362 . S
H656 C662 0.930 . S
H657 C665 0.930 . S
H658 C666 0.930 . S
H659 C667 0.930 . S
H660 C670 0.930 . S
H661 C671 0.930 . S
C662 H656 0.930 . S
C662 C663 1.355 . S
C662 C664 1.415 . S
C663 C662 1.355 . S
C663 C665 1.419 . S
C664 C662 1.415 . S
C664 C669 1.425 . S
C664 C671 1.409 . S
C665 H657 0.930 . S
C665 C663 1.419 . S
C665 C666 1.362 . S
C666 H658 0.930 . S
C666 C665 1.362 . S
C666 C669 1.409 . S
C667 H659 0.930 . S
C667 C668 1.355 . S
C667 C669 1.415 . S
C668 C667 1.355 . S
C668 C670 1.419 . S
C669 C664 1.425 . S
C669 C666 1.409 . S
C669 C667 1.415 . S
C670 H660 0.930 . S
C670 C668 1.419 . S
C670 C671 1.362 . S
C671 H661 0.930 . S
C671 C664 1.409 . S
C671 C670 1.362 . S
H672 C678 0.930 . S
H673 C681 0.930 . S
H674 C682 0.930 . S
H675 C683 0.930 . S
H676 C686 0.930 . S
H677 C687 0.930 . S
C678 H672 0.930 . S
C678 C679 1.355 . S
C678 C680 1.415 . S
C679 C678 1.355 . S
C679 C681 1.419 . S
C680 C678 1.415 . S
C680 C685 1.425 . S
C680 C687 1.409 . S
C681 H673 0.930 . S
C681 C679 1.419 . S
C681 C682 1.362 . S
C682 H674 0.930 . S
C682 C681 1.362 . S
C682 C685 1.409 . S
C683 H675 0.930 . S
C683 C684 1.355 . S
C683 C685 1.415 . S
C684 C683 1.355 . S
C684 C686 1.419 . S
C685 C680 1.425 . S
C685 C682 1.409 . S
C685 C683 1.415 . S
C686 H676 0.930 . S
C686 C684 1.419 . S
C686 C687 1.362 . S
C687 H677 0.930 . S
C687 C680 1.409 . S
C687 C686 1.362 . S
H688 C694 0.930 . S
H689 C697 0.930 . S
H690 C698 0.930 . S
H691 C699 0.930 . S
H692 C702 0.930 . S
H693 C703 0.930 . S
C694 H688 0.930 . S
C694 C695 1.355 . S
C694 C696 1.415 . S
C695 C694 1.355 . S
C695 C697 1.419 . S
C696 C694 1.415 . S
C696 C701 1.425 . S
C696 C703 1.409 . S
C697 H689 0.930 . S
C697 C695 1.419 . S
C697 C698 1.362 . S
C698 H690 0.930 . S
C698 C697 1.362 . S
C698 C701 1.409 . S
C699 H691 0.930 . S
C699 C700 1.355 . S
C699 C701 1.415 . S
C700 C699 1.355 . S
C700 C702 1.419 . S
C701 C696 1.425 . S
C701 C698 1.409 . S
C701 C699 1.415 . S
C702 H692 0.930 . S
C702 C700 1.419 . S
C702 C703 1.362 . S
C703 H693 0.930 . S
C703 C696 1.409 . S
C703 C702 1.362 . S
H704 C710 0.930 . S
H705 C713 0.930 . S
H706 C714 0.930 . S
H707 C715 0.930 . S
H708 C718 0.930 . S
H709 C719 0.930 . S
C710 H704 0.930 . S
C710 C711 1.355 . S
C710 C712 1.415 . S
C711 C710 1.355 . S
C711 C713 1.419 . S
C712 C710 1.415 . S
C712 C717 1.425 . S
C712 C719 1.409 . S
C713 H705 0.930 . S
C713 C711 1.419 . S
C713 C714 1.362 . S
C714 H706 0.930 . S
C714 C713 1.362 . S
C714 C717 1.409 . S
C715 H707 0.930 . S
C715 C716 1.355 . S
C715 C717 1.415 . S
C716 C715 1.355 . S
C716 C718 1.419 . S
C717 C712 1.425 . S
C717 C714 1.409 . S
C717 C715 1.415 . S
C718 H708 0.930 . S
C718 C716 1.419 . S
C718 C719 1.362 . S
C719 H709 0.930 . S
C719 C712 1.409 . S
C719 C718 1.362 . S
H720 C726 0.930 . S
H721 C729 0.930 . S
H722 C730 0.930 . S
H723 C731 0.930 . S
H724 C734 0.930 . S
H725 C735 0.930 . S
C726 H720 0.930 . S
C726 C727 1.355 . S
C726 C728 1.415 . S
C727 C726 1.355 . S
C727 C729 1.419 . S
C728 C726 1.415 . S
C728 C733 1.425 . S
C728 C735 1.409 . S
C729 H721 0.930 . S
C729 C727 1.419 . S
C729 C730 1.362 . S
C730 H722 0.930 . S
C730 C729 1.362 . S
C730 C733 1.409 . S
C731 H723 0.930 . S
C731 C732 1.355 . S
C731 C733 1.415 . S
C732 C731 1.355 . S
C732 C734 1.419 . S
C733 C728 1.425 . S
C733 C730 1.409 . S
C733 C731 1.415 . S
C734 H724 0.930 . S
C734 C732 1.419 . S
C734 C735 1.362 . S
C735 H725 0.930 . S
C735 C728 1.409 . S
C735 C734 1.362 . S
H736 C742 0.930 . S
H737 C745 0.930 . S
H738 C746 0.930 . S
H739 C747 0.930 . S
H740 C750 0.930 . S
H741 C751 0.930 . S
C742 H736 0.930 . S
C742 C743 1.355 . S
C742 C744 1.415 . S
C743 C742 1.355 . S
C743 C745 1.419 . S
C744 C742 1.415 . S
C744 C749 1.425 . S
C744 C751 1.409 . S
C745 H737 0.930 . S
C745 C743 1.419 . S
C745 C746 1.362 . S
C746 H738 0.930 . S
C746 C745 1.362 . S
C746 C749 1.409 . S
C747 H739 0.930 . S
C747 C748 1.355 . S
C747 C749 1.415 . S
C748 C747 1.355 . S
C748 C750 1.419 . S
C749 C744 1.425 . S
C749 C746 1.409 . S
C749 C747 1.415 . S
C750 H740 0.930 . S
C750 C748 1.419 . S
C750 C751 1.362 . S
C751 H741 0.930 . S
C751 C744 1.409 . S
C751 C750 1.362 . S
H752 C758 0.930 . S
H753 C761 0.930 . S
H754 C762 0.930 . S
H755 C763 0.930 . S
H756 C766 0.930 . S
H757 C767 0.930 . S
C758 H752 0.930 . S
C758 C759 1.355 . S
C758 C760 1.415 . S
C759 C758 1.355 . S
C759 C761 1.419 . S
C760 C758 1.415 . S
C760 C765 1.425 . S
C760 C767 1.409 . S
C761 H753 0.930 . S
C761 C759 1.419 . S
C761 C762 1.362 . S
C762 H754 0.930 . S
C762 C761 1.362 . S
C762 C765 1.409 . S
C763 H755 0.930 . S
C763 C764 1.355 . S
C763 C765 1.415 . S
C764 C763 1.355 . S
C764 C766 1.419 . S
C765 C760 1.425 . S
C765 C762 1.409 . S
C765 C763 1.415 . S
C766 H756 0.930 . S
C766 C764 1.419 . S
C766 C767 1.362 . S
C767 H757 0.930 . S
C767 C760 1.409 . S
C767 C766 1.362 . S
H768 C774 0.930 . S
H769 C777 0.930 . S
H770 C778 0.930 . S
H771 C779 0.930 . S
H772 C782 0.930 . S
H773 C783 0.930 . S
C774 H768 0.930 . S
C774 C775 1.355 . S
C774 C776 1.415 . S
C775 C774 1.355 . S
C775 C777 1.419 . S
C776 C774 1.415 . S
C776 C781 1.425 . S
C776 C783 1.409 . S
C777 H769 0.930 . S
C777 C775 1.419 . S
C777 C778 1.362 . S
C778 H770 0.930 . S
C778 C777 1.362 . S
C778 C781 1.409 . S
C779 H771 0.930 . S
C779 C780 1.355 . S
C779 C781 1.415 . S
C780 C779 1.355 . S
C780 C782 1.419 . S
C781 C776 1.425 . S
C781 C778 1.409 . S
C781 C779 1.415 . S
C782 H772 0.930 . S
C782 C780 1.419 . S
C782 C783 1.362 . S
C783 H773 0.930 . S
C783 C776 1.409 . S
C783 C782 1.362 . S
H784 C790 0.930 . S
H785 C793 0.930 1_554 S
H786 C794 0.930 . S
H787 C795 0.930 . S
H788 C798 0.930 . S
H789 C799 0.930 . S
C790 H784 0.930 . S
C790 C791 1.355 . S
C790 C792 1.415 . S
C791 C790 1.355 . S
C791 C793 1.419 . S
C792 C790 1.415 . S
C792 C797 1.425 . S
C792 C799 1.409 . S
C793 H785 0.930 1_556 S
C793 C791 1.419 . S
C793 C794 1.362 . S
C794 H786 0.930 . S
C794 C793 1.362 . S
C794 C797 1.409 . S
C795 H787 0.930 . S
C795 C796 1.355 . S
C795 C797 1.415 . S
C796 C795 1.355 . S
C796 C798 1.419 . S
C797 C792 1.425 . S
C797 C794 1.409 . S
C797 C795 1.415 . S
C798 H788 0.930 . S
C798 C796 1.419 . S
C798 C799 1.362 . S
C799 H789 0.930 . S
C799 C792 1.409 . S
C799 C798 1.362 . S
H800 C806 0.930 . S
H801 C809 0.930 . S
H802 C810 0.930 . S
H803 C811 0.930 . S
H804 C814 0.930 . S
H805 C815 0.930 . S
C806 H800 0.930 . S
C806 C807 1.355 . S
C806 C808 1.415 . S
C807 C806 1.355 . S
C807 C809 1.419 . S
C808 C806 1.415 . S
C808 C813 1.425 . S
C808 C815 1.409 . S
C809 H801 0.930 . S
C809 C807 1.419 . S
C809 C810 1.362 . S
C810 H802 0.930 . S
C810 C809 1.362 . S
C810 C813 1.409 . S
C811 H803 0.930 . S
C811 C812 1.355 . S
C811 C813 1.415 . S
C812 C811 1.355 . S
C812 C814 1.419 . S
C813 C808 1.425 . S
C813 C810 1.409 . S
C813 C811 1.415 . S
C814 H804 0.930 . S
C814 C812 1.419 . S
C814 C815 1.362 . S
C815 H805 0.930 . S
C815 C808 1.409 . S
C815 C814 1.362 . S
H816 C822 0.930 . S
H817 C825 0.930 . S
H818 C826 0.930 . S
H819 C827 0.930 . S
H820 C830 0.930 . S
H821 C831 0.930 . S
C822 H816 0.930 . S
C822 C823 1.355 . S
C822 C824 1.415 . S
C823 C822 1.355 . S
C823 C825 1.419 . S
C824 C822 1.415 . S
C824 C829 1.425 . S
C824 C831 1.409 . S
C825 H817 0.930 . S
C825 C823 1.419 . S
C825 C826 1.362 . S
C826 H818 0.930 . S
C826 C825 1.362 . S
C826 C829 1.409 . S
C827 H819 0.930 . S
C827 C828 1.355 . S
C827 C829 1.415 . S
C828 C827 1.355 . S
C828 C830 1.419 . S
C829 C824 1.425 . S
C829 C826 1.409 . S
C829 C827 1.415 . S
C830 H820 0.930 . S
C830 C828 1.419 . S
C830 C831 1.362 . S
C831 H821 0.930 . S
C831 C824 1.409 . S
C831 C830 1.362 . S
H832 C838 0.930 . S
H833 C841 0.930 . S
H834 C842 0.930 . S
H835 C843 0.930 . S
H836 C846 0.930 . S
H837 C847 0.930 . S
C838 H832 0.930 . S
C838 C839 1.355 . S
C838 C840 1.415 . S
C839 C838 1.355 . S
C839 C841 1.419 . S
C840 C838 1.415 . S
C840 C845 1.425 . S
C840 C847 1.409 . S
C841 H833 0.930 . S
C841 C839 1.419 . S
C841 C842 1.362 . S
C842 H834 0.930 . S
C842 C841 1.362 . S
C842 C845 1.409 . S
C843 H835 0.930 . S
C843 C844 1.355 . S
C843 C845 1.415 . S
C844 C843 1.355 . S
C844 C846 1.419 . S
C845 C840 1.425 . S
C845 C842 1.409 . S
C845 C843 1.415 . S
C846 H836 0.930 . S
C846 C844 1.419 . S
C846 C847 1.362 . S
C847 H837 0.930 . S
C847 C840 1.409 . S
C847 C846 1.362 . S
H848 C854 0.930 . S
H849 C857 0.930 . S
H850 C858 0.930 . S
H851 C859 0.930 . S
H852 C862 0.930 . S
H853 C863 0.930 . S
C854 H848 0.930 . S
C854 C855 1.355 . S
C854 C856 1.415 . S
C855 C854 1.355 . S
C855 C857 1.419 . S
C856 C854 1.415 . S
C856 C861 1.425 . S
C856 C863 1.409 . S
C857 H849 0.930 . S
C857 C855 1.419 . S
C857 C858 1.362 . S
C858 H850 0.930 . S
C858 C857 1.362 . S
C858 C861 1.409 . S
C859 H851 0.930 . S
C859 C860 1.355 . S
C859 C861 1.415 . S
C860 C859 1.355 . S
C860 C862 1.419 . S
C861 C856 1.425 . S
C861 C858 1.409 . S
C861 C859 1.415 . S
C862 H852 0.930 . S
C862 C860 1.419 . S
C862 C863 1.362 . S
C863 H853 0.930 . S
C863 C856 1.409 . S
C863 C862 1.362 . S
H864 C870 0.930 . S
H865 C873 0.930 . S
H866 C874 0.930 . S
H867 C875 0.930 . S
H868 C878 0.930 . S
H869 C879 0.930 . S
C870 H864 0.930 . S
C870 C871 1.355 . S
C870 C872 1.415 . S
C871 C870 1.355 . S
C871 C873 1.419 . S
C872 C870 1.415 . S
C872 C877 1.425 . S
C872 C879 1.409 . S
C873 H865 0.930 . S
C873 C871 1.419 . S
C873 C874 1.362 . S
C874 H866 0.930 . S
C874 C873 1.362 . S
C874 C877 1.409 . S
C875 H867 0.930 . S
C875 C876 1.355 . S
C875 C877 1.415 . S
C876 C875 1.355 . S
C876 C878 1.419 . S
C877 C872 1.425 . S
C877 C874 1.409 . S
C877 C875 1.415 . S
C878 H868 0.930 . S
C878 C876 1.419 . S
C878 C879 1.362 . S
C879 H869 0.930 . S
C879 C872 1.409 . S
C879 C878 1.362 . S
C375 N255 1.505 . S
C380 C16 1.607 . S
C391 C39 1.605 . S
C396 N186 1.511 . S
C407 C62 1.617 . S
C412 N209 1.456 . S
C423 N232 1.457 . S
C428 C85 1.604 . S
C439 C108 1.594 . S
C444 N117 1.498 . S
C455 C131 1.616 . S
C460 N140 1.457 1_556 S
C471 N163 1.461 . S
C476 C154 1.603 . S
C487 N94 1.462 . S
C492 C177 1.603 . S
C503 N71 1.518 . S
C508 C200 1.592 . S
C519 C223 1.610 . S
C524 N2 1.440 . S
C535 N25 1.528 . S
C540 C246 1.592 . S
C551 C269 1.600 . S
C556 N48 1.473 . S
C567 C292 1.618 . S
C572 N301 1.449 . S
C583 C315 1.592 . S
C588 N324 1.513 . S
C599 N347 1.443 . S
C604 C338 1.618 . S
C615 N278 1.508 . S
C620 C361 1.606 . S
C631 C99 1.395 . S
C636 C7 1.390 . S
C647 C30 1.353 . S
C652 C122 1.357 . S
C663 C53 1.361 . S
C668 C145 1.384 . S
C679 C168 1.363 . S
C684 C76 1.351 . S
C695 C191 1.384 . S
C700 C283 1.361 . S
C711 C306 1.357 . S
C716 C214 1.353 . S
C727 C237 1.357 . S
C732 C329 1.379 . S
C743 C352 1.393 . S
C748 C260 1.394 . S
C759 N334 1.787 . S
C764 N12 1.799 1_556 S
C775 N357 1.792 . S
C780 N35 1.794 1_554 S
C791 N58 1.820 1_556 S
C796 N288 1.799 . S
C807 N311 1.807 . S
C812 N81 1.781 1_554 S
C823 N242 1.784 . S
C828 N104 1.804 . S
C839 N265 1.775 . S
C844 N127 1.823 . S
C855 N150 1.785 . S
C860 N196 1.802 . S
C871 N219 1.793 . S
C876 N173 1.823 . S
