# Generated by pormake.
# Topology fee, (5)-cn, num edge types: 1
# Building blocks:
#     Node 0, Type 0, BuildingBlock: XOMCOT_clean_sbu_1, # of connection points: 5
#     Node 1, Type 0, BuildingBlock: XOMCOT_clean_sbu_1, # of connection points: 5
#     Node 2, Type 0, BuildingBlock: XOMCOT_clean_sbu_1, # of connection points: 5
#     Node 3, Type 0, BuildingBlock: XOMCOT_clean_sbu_1, # of connection points: 5
#     Edge 4, Type (0, 0), BuildingBlock: ZUJKAS_clean_linker_0, # of connection points: 2
#     Edge 5, Type (0, 0), BuildingBlock: ZUJKAS_clean_linker_0, # of connection points: 2
#     Edge 6, Type (0, 0), BuildingBlock: ZUJKAS_clean_linker_0, # of connection points: 2
#     Edge 7, Type (0, 0), BuildingBlock: ZUJKAS_clean_linker_0, # of connection points: 2
#     Edge 8, Type (0, 0), BuildingBlock: ZUJKAS_clean_linker_0, # of connection points: 2
#     Edge 9, Type (0, 0), BuildingBlock: ZUJKAS_clean_linker_0, # of connection points: 2
#     Edge 10, Type (0, 0), BuildingBlock: ZUJKAS_clean_linker_0, # of connection points: 2
#     Edge 11, Type (0, 0), BuildingBlock: ZUJKAS_clean_linker_0, # of connection points: 2
#     Edge 12, Type (0, 0), BuildingBlock: ZUJKAS_clean_linker_0, # of connection points: 2
#     Edge 13, Type (0, 0), BuildingBlock: ZUJKAS_clean_linker_0, # of connection points: 2
# Relax obj value: 0.109
# Max RMSD: 0.128
# Mean RMSD: 0.118
data_MOF--net-fee--node1-XOMCOT_clean_sbu_1--edge1-ZUJKAS_clean_linker_0
_symmetry_space_group_name_H-M    P1
_symmetry_Int_Tables_number       1
_symmetry_cell_setting            triclinic
loop_
_symmetry_equiv_pos_as_xyz
'x, y, z'
_cell_length_a     48.969867
_cell_length_b     49.001533
_cell_length_c     22.018791
_cell_angle_alpha  96.035768
_cell_angle_beta   96.269176
_cell_angle_gamma 89.917241
loop_
_atom_site_label
_atom_site_type_symbol
_atom_site_fract_x
_atom_site_fract_y
_atom_site_fract_z
_atom_type_partial_charge
C0 C 0.16482 0.49447 0.0296 0.0
C1 C 0.15935 0.4932 0.96682 0.0
N2 N 0.17149 0.51494 0.94765 0.0
N3 N 0.18044 0.51683 0.0503 0.0
C4 C 0.1838 0.52921 0.99936 0.0
H5 H 0.15879 0.4794 0.05824 0.0
Co6 Co 0.19535 0.52403 0.1325 0.0
C7 C 0.24517 0.55552 0.10295 0.0
O8 O 0.26178 0.5346 0.10657 0.0
N9 N 0.20966 0.53138 0.21646 0.0
C10 C 0.23825 0.5379 0.30277 0.0
C11 C 0.23619 0.53557 0.23979 0.0
C12 C 0.196 0.53134 0.26689 0.0
N13 N 0.21296 0.53517 0.31992 0.0
O14 O 0.16732 0.55096 0.14441 0.0
H15 H 0.2534 0.53569 0.21345 0.0
H16 H 0.17422 0.52735 0.26504 0.0
O17 O 0.21988 0.55312 0.11181 0.0
C18 C 0.14544 0.53917 0.15527 0.0
O19 O 0.14614 0.51262 0.15966 0.0
N20 N 0.22072 0.4948 0.12031 0.0
C21 C 0.24923 0.44548 0.10029 0.0
C22 C 0.24707 0.46438 0.05646 0.0
C23 C 0.23234 0.48859 0.06679 0.0
C24 C 0.22195 0.47613 0.16245 0.0
C25 C 0.23645 0.4517 0.15394 0.0
H26 H 0.23024 0.50227 0.03125 0.0
H27 H 0.21085 0.47957 0.2023 0.0
H28 H 0.19646 0.54731 0.99962 0.0
H29 H 0.14789 0.4771 0.93741 0.0
H30 H 0.25704 0.54094 0.33356 0.0
H31 H 0.25591 0.46016 1.01351 0.0
H32 H 0.23732 0.43767 0.18894 0.0
C33 C 0.50581 0.15878 0.02936 0.0
C34 C 0.50702 0.15314 0.96728 0.0
N35 N 0.4849 0.16416 0.93738 0.0
N36 N 0.48309 0.17341 0.03902 0.0
C37 C 0.4704 0.17592 0.98202 0.0
H38 H 0.52121 0.15367 0.06533 0.0
Co39 Co 0.47612 0.18851 0.11761 0.0
C40 C 0.44323 0.23663 0.0723 0.0
O41 O 0.4639 0.25396 0.08598 0.0
N42 N 0.469 0.20288 0.19811 0.0
C43 C 0.46156 0.23109 0.28079 0.0
C44 C 0.46378 0.22911 0.21889 0.0
C45 C 0.46976 0.18933 0.24898 0.0
N46 N 0.46536 0.20605 0.29983 0.0
O47 O 0.45022 0.15924 0.11915 0.0
H48 H 0.4627 0.24624 0.19208 0.0
H49 H 0.47451 0.16783 0.24958 0.0
O50 O 0.44596 0.21144 0.08272 0.0
C51 C 0.46275 0.13814 0.13675 0.0
O52 O 0.48943 0.14008 0.15236 0.0
N53 N 0.50429 0.21544 0.1169 0.0
C54 C 0.54909 0.25115 0.11945 0.0
C55 C 0.53112 0.24521 0.06575 0.0
C56 C 0.50933 0.22684 0.06497 0.0
C57 C 0.52281 0.21958 0.16822 0.0
C58 C 0.54506 0.23766 0.17084 0.0
H59 H 0.49584 0.22279 0.02289 0.0
H60 H 0.52065 0.20864 0.20757 0.0
H61 H 0.45203 0.18783 0.97331 0.0
H62 H 0.52342 0.14245 0.94584 0.0
H63 H 0.45772 0.24965 0.30968 0.0
H64 H 0.53398 0.25453 0.02437 0.0
H65 H 0.55883 0.2412 0.21291 0.0
C66 C 0.84889 0.50545 0.21024 0.0
C67 C 0.8553 0.50618 0.27276 0.0
N68 N 0.84282 0.52796 0.29996 0.0
N69 N 0.8325 0.52671 0.1977 0.0
C70 C 0.82938 0.54028 0.25336 0.0
H71 H 0.85498 0.48982 0.17606 0.0
Co72 Co 0.81744 0.53223 0.11791 0.0
C73 C 0.76895 0.56519 0.16114 0.0
O74 O 0.75214 0.54402 0.15238 0.0
N75 N 0.80311 0.53813 0.03647 0.0
C76 C 0.77517 0.54673 0.95405 0.0
C77 C 0.77713 0.54455 0.01597 0.0
C78 C 0.81645 0.5363 0.98532 0.0
N79 N 0.79991 0.54146 0.9344 0.0
O80 O 0.8465 0.55825 0.11503 0.0
H81 H 0.76023 0.54695 0.04332 0.0
H82 H 0.83773 0.5306 0.98499 0.0
O83 O 0.79397 0.56257 0.14936 0.0
C84 C 0.86769 0.54561 0.09846 0.0
O85 O 0.86576 0.51893 0.08369 0.0
N86 N 0.79081 0.50386 0.12016 0.0
C87 C 0.75657 0.45803 0.12073 0.0
C88 C 0.76235 0.47657 0.17351 0.0
C89 C 0.77995 0.49885 0.17272 0.0
C90 C 0.78665 0.48503 0.06954 0.0
C91 C 0.76927 0.46234 0.06844 0.0
H92 H 0.78384 0.51268 0.21419 0.0
H93 H 0.79729 0.48706 0.02977 0.0
H94 H 0.81673 0.55824 0.25983 0.0
H95 H 0.86706 0.49101 0.2965 0.0
H96 H 0.75676 0.5519 0.92595 0.0
H97 H 0.75309 0.47419 0.21513 0.0
H98 H 0.76637 0.44797 0.02736 0.0
C99 C 0.50899 0.8361 0.19204 0.0
C100 C 0.51337 0.83712 0.25492 0.0
N101 N 0.49577 0.81942 0.27358 0.0
N102 N 0.4887 0.81793 0.171 0.0
C103 C 0.48096 0.8081 0.2216 0.0
H104 H 0.51995 0.84778 0.16324 0.0
Co105 Co 0.47707 0.80993 0.08842 0.0
C106 C 0.44188 0.76073 0.0761 0.0
O107 O 0.45629 0.75104 0.03175 0.0
N108 N 0.46498 0.80292 1.00363 0.0
C109 C 0.4354 0.79987 0.91885 0.0
C110 C 0.43814 0.80378 0.98169 0.0
C111 C 0.47821 0.79899 0.95252 0.0
N112 N 0.46062 0.79687 0.90038 0.0
O113 O 0.45202 0.84009 0.09359 0.0
H114 H 0.42147 0.80754 1.00984 0.0
H115 H 0.50022 0.79811 0.95289 0.0
O116 O 0.44827 0.78422 0.10572 0.0
C117 C 0.46254 0.86092 0.07442 0.0
O118 O 0.48677 0.85821 0.05409 0.0
N119 N 0.50427 0.78262 0.0852 0.0
C120 C 0.55273 0.75226 0.09631 0.0
C121 C 0.52934 0.74424 0.12182 0.0
C122 C 0.50556 0.7601 0.11722 0.0
C123 C 0.52709 0.79109 0.06183 0.0
C124 C 0.55132 0.77602 0.06584 0.0
H125 H 0.48891 0.75501 0.14241 0.0
H126 H 0.52695 0.81051 0.04262 0.0
H127 H 0.4652 0.79255 0.22024 0.0
H128 H 0.52818 0.85019 0.28449 0.0
H129 H 0.41634 0.80034 0.88905 0.0
H130 H 0.52989 0.7267 0.14805 0.0
H131 H 0.56901 0.78331 0.0465 0.0
H132 H 0.17225 0.47652 0.85016 0.0
H133 H 0.17658 0.48401 0.74398 0.0
H134 H 0.17963 0.5715 0.7947 0.0
H135 H 0.17583 0.56398 0.90201 0.0
H136 H 0.14475 0.50958 0.6623 0.0
H137 H 0.24689 0.56124 0.70564 0.0
H138 H 0.2322 0.54443 0.76363 0.0
H139 H 0.221 0.57812 0.74722 0.0
C140 C 0.17365 0.49739 0.83882 0.0
C141 C 0.17366 0.51968 0.88467 0.0
C142 C 0.17621 0.50165 0.77795 0.0
C143 C 0.17877 0.5283 0.76115 0.0
C144 C 0.17834 0.5507 0.8066 0.0
H145 H 0.16611 0.55287 0.36631 0.0
H146 H 0.15586 0.55339 0.47318 0.0
C147 C 0.17607 0.54641 0.8679 0.0
C148 C 0.18195 0.5322 0.69601 0.0
H149 H 0.22546 0.55752 0.60383 0.0
C150 C 0.16235 0.52017 0.64951 0.0
C151 C 0.20505 0.54579 0.67917 0.0
C152 C 0.22763 0.55792 0.7264 0.0
C153 C 0.16546 0.52082 0.5869 0.0
C154 C 0.18846 0.53457 0.57009 0.0
C155 C 0.20774 0.54712 0.61661 0.0
C156 C 0.1941 0.53452 0.50487 0.0
C157 C 0.14468 0.50573 0.53954 0.0
C158 C 0.21917 0.52433 0.48714 0.0
C159 C 0.22516 0.5244 0.42657 0.0
C160 C 0.20619 0.53457 0.38198 0.0
C161 C 0.18097 0.54461 0.39947 0.0
C162 C 0.17509 0.54483 0.46051 0.0
H163 H 0.13255 0.49057 0.5599 0.0
H164 H 0.13014 0.5207 0.51986 0.0
H165 H 0.15486 0.49478 0.50152 0.0
H166 H 0.23415 0.51615 0.52025 0.0
H167 H 0.2446 0.51618 0.41449 0.0
H168 H 0.52349 0.16712 0.8592 0.0
H169 H 0.51614 0.17144 0.74947 0.0
H170 H 0.42846 0.17012 0.75632 0.0
H171 H 0.43583 0.16633 0.86729 0.0
H172 H 0.49184 0.13868 0.65532 0.0
H173 H 0.43692 0.23793 0.67195 0.0
H174 H 0.45396 0.22396 0.73844 0.0
H175 H 0.4207 0.21109 0.705 0.0
C176 C 0.50261 0.16754 0.83746 0.0
C177 C 0.48022 0.16631 0.8721 0.0
C178 C 0.49842 0.1701 0.77455 0.0
C179 C 0.47175 0.17144 0.74442 0.0
C180 C 0.44926 0.16979 0.77861 0.0
H181 H 0.44917 0.15825 0.33784 0.0
H182 H 0.44859 0.14788 0.44442 0.0
C183 C 0.45346 0.16752 0.84199 0.0
C184 C 0.46796 0.17458 0.67736 0.0
H185 H 0.44169 0.217 0.57227 0.0
C186 C 0.48077 0.15576 0.63711 0.0
C187 C 0.45374 0.19701 0.65355 0.0
C188 C 0.44075 0.21881 0.69445 0.0
C189 C 0.48028 0.15901 0.57427 0.0
C190 C 0.4659 0.18132 0.55039 0.0
C191 C 0.45259 0.1998 0.59039 0.0
C192 C 0.46596 0.18708 0.4852 0.0
C193 C 0.49623 0.13917 0.5348 0.0
C194 C 0.47529 0.21271 0.47232 0.0
C195 C 0.47525 0.21875 0.4117 0.0
C196 C 0.46597 0.19928 0.36224 0.0
C197 C 0.45678 0.17352 0.37496 0.0
C198 C 0.45651 0.16757 0.43588 0.0
H199 H 0.51174 0.12789 0.56292 0.0
H200 H 0.48183 0.12384 0.50781 0.0
H201 H 0.50691 0.14998 0.50219 0.0
H202 H 0.48279 0.2281 0.50935 0.0
H203 H 0.48278 0.23865 0.40353 0.0
H204 H 0.76464 0.53606 0.82921 0.0
H205 H 0.77582 0.53688 0.72435 0.0
H206 H 0.86176 0.5458 0.79014 0.0
H207 H 0.85082 0.54591 0.8962 0.0
H208 H 0.81457 0.58386 0.68227 0.0
H209 H 0.84563 0.47429 0.64828 0.0
H210 H 0.82088 0.48545 0.70058 0.0
H211 H 0.85635 0.49476 0.71991 0.0
C212 C 0.78593 0.53856 0.82203 0.0
C213 C 0.80677 0.5411 0.8719 0.0
C214 C 0.79227 0.53887 0.76173 0.0
C215 C 0.81956 0.54144 0.7496 0.0
C216 C 0.84054 0.54375 0.79872 0.0
H217 H 0.88244 0.51994 0.39175 0.0
H218 H 0.87852 0.52585 0.50222 0.0
C219 C 0.83422 0.54362 0.85933 0.0
C220 C 0.82586 0.54155 0.68527 0.0
H221 H 0.84502 0.49976 0.56356 0.0
C222 C 0.82142 0.56557 0.65625 0.0
C223 C 0.83488 0.51771 0.6518 0.0
C224 C 0.83974 0.49145 0.68126 0.0
C225 C 0.82566 0.56633 0.59426 0.0
C226 C 0.83381 0.54216 0.55992 0.0
C227 C 0.83872 0.51829 0.5896 0.0
C228 C 0.83685 0.54087 0.493 0.0
C229 C 0.82173 0.59314 0.56658 0.0
C230 C 0.81484 0.54754 0.45071 0.0
C231 C 0.81717 0.54442 0.38748 0.0
C232 C 0.84138 0.53408 0.36512 0.0
C233 C 0.86348 0.52779 0.40754 0.0
C234 C 0.86126 0.53118 0.47071 0.0
H235 H 0.82447 0.61094 0.60244 0.0
H236 H 0.83638 0.59538 0.53228 0.0
H237 H 0.80052 0.59385 0.54327 0.0
H238 H 0.79551 0.55431 0.46637 0.0
H239 H 0.7996 0.54894 0.35599 0.0
H240 H 0.42842 0.77433 0.80011 0.0
H241 H 0.4367 0.77471 0.69285 0.0
H242 H 0.51545 0.81378 0.75025 0.0
H243 H 0.50714 0.81394 0.85797 0.0
H244 H 0.4466 0.825 0.64066 0.0
H245 H 0.53102 0.7498 0.61742 0.0
H246 H 0.50871 0.7502 0.6777 0.0
H247 H 0.53555 0.77548 0.6825 0.0
C248 C 0.44756 0.78293 0.79004 0.0
C249 C 0.46701 0.79434 0.83767 0.0
C250 C 0.45231 0.78296 0.72874 0.0
C251 C 0.47671 0.79413 0.71377 0.0
C252 C 0.49665 0.80469 0.761 0.0
H253 H 0.53476 0.82761 0.37153 0.0
H254 H 0.52977 0.82104 0.47802 0.0
C255 C 0.49188 0.80473 0.82253 0.0
C256 C 0.48015 0.79673 0.64873 0.0
H257 H 0.5184 0.77492 0.53269 0.0
C258 C 0.46221 0.81398 0.61687 0.0
C259 C 0.50067 0.78246 0.61827 0.0
C260 C 0.52003 0.76326 0.65037 0.0
C261 C 0.46443 0.81766 0.55531 0.0
C262 C 0.48473 0.80312 0.52441 0.0
C263 C 0.50277 0.78591 0.55641 0.0
C264 C 0.48788 0.80599 0.45922 0.0
C265 C 0.44549 0.83765 0.52452 0.0
C266 C 0.46614 0.79922 0.41306 0.0
C267 C 0.46877 0.80333 0.35209 0.0
C268 C 0.49332 0.81405 0.33599 0.0
C269 C 0.51536 0.81991 0.38224 0.0
C270 C 0.51265 0.81592 0.44317 0.0
H271 H 0.43649 0.85235 0.55862 0.0
H272 H 0.45649 0.84947 0.49416 0.0
H273 H 0.42833 0.82614 0.49597 0.0
H274 H 0.44702 0.79099 0.42428 0.0
H275 H 0.45135 0.79864 0.31796 0.0
H276 H 0.91131 0.52516 0.04411 0.0
H277 H 0.95805 0.54276 0.05742 0.0
H278 H 0.93293 0.61476 0.16686 0.0
H279 H 0.88552 0.59659 0.155 0.0
H280 H 0.98366 0.58856 0.03185 0.0
H281 H 0.99128 0.58364 0.28498 0.0
H282 H 0.96228 0.56919 0.23442 0.0
H283 H 0.96579 0.60574 0.25175 0.0
C284 C 0.91552 0.54489 0.07065 0.0
C285 C 0.89475 0.55927 0.09935 0.0
C286 C 0.94234 0.55504 0.07792 0.0
C287 C 0.94922 0.57988 0.114 0.0
C288 C 0.92823 0.59527 0.13978 0.0
H289 H 0.13099 0.5909 0.12351 0.0
H290 H 0.0848 0.61111 0.1198 0.0
C291 C 0.90113 0.585 0.13257 0.0
C292 C 0.97882 0.58765 0.12753 0.0
H293 H 0.03216 0.58649 0.24093 0.0
C294 C 0.99432 0.58887 0.07777 0.0
C295 C 0.99268 0.58813 0.18755 0.0
C296 C 0.97731 0.58649 0.2429 0.0
C297 C 0.02318 0.58773 0.08546 0.0
C298 C 0.03695 0.58605 0.14491 0.0
C299 C 0.02155 0.5877 0.19541 0.0
C300 C 0.06591 0.57668 0.15402 0.0
C301 C 0.03843 0.58574 0.0292 0.0
C302 C 0.07093 0.55132 0.17702 0.0
C303 C 0.09706 0.54 0.17972 0.0
C304 C 0.11901 0.55369 0.15938 0.0
C305 C 0.11446 0.57981 0.13923 0.0
C306 C 0.08805 0.59126 0.13665 0.0
H307 H 0.02431 0.58402 0.98588 0.0
H308 H 0.05142 0.60436 0.03043 0.0
H309 H 0.05211 0.56764 0.02838 0.0
H310 H 0.05429 0.53964 0.19076 0.0
H311 H 0.09981 0.52 0.19614 0.0
H312 H 0.41593 0.87784 0.12783 0.0
H313 H 0.39698 0.92452 0.1362 0.0
H314 H 0.46079 0.95173 0.03548 0.0
H315 H 0.47916 0.90579 0.02587 0.0
H316 H 0.42104 0.97036 0.1936 0.0
H317 H 0.39622 0.98782 0.95182 0.0
H318 H 0.40199 0.9538 0.975 0.0
H319 H 0.43045 0.97488 0.96132 0.0
C320 C 0.4255 0.89373 0.1065 0.0
C321 C 0.44905 0.88806 0.07618 0.0
C322 C 0.41468 0.92037 0.11131 0.0
C323 C 0.42705 0.94159 0.08521 0.0
C324 C 0.45025 0.93566 0.05424 0.0
H325 H 0.48289 0.09518 0.19448 0.0
H326 H 0.46433 0.04903 0.1864 0.0
C327 C 0.46098 0.9093 0.04944 0.0
C328 C 0.41819 0.97063 0.09527 0.0
H329 H 0.41349 0.02858 0.02147 0.0
C330 C 0.41851 0.98299 0.15582 0.0
C331 C 0.4139 0.98724 0.04624 0.0
C332 C 0.41029 0.9751 0.98 0.0
C333 C 0.418 0.01168 0.16871 0.0
C334 C 0.41797 0.02839 0.11995 0.0
C335 C 0.41424 0.01593 0.05918 0.0
C336 C 0.42669 0.05775 0.13087 0.0
C337 C 0.41881 0.02376 0.23477 0.0
C338 C 0.41198 0.07832 0.1016 0.0
C339 C 0.42287 0.10507 0.10557 0.0
C340 C 0.44879 0.11145 0.13815 0.0
C341 C 0.46289 0.09102 0.16888 0.0
C342 C 0.45209 0.06456 0.165 0.0
H343 H 0.40699 0.01065 0.26104 0.0
H344 H 0.44039 0.02453 0.25641 0.0
H345 H 0.41031 0.04482 0.23866 0.0
H346 H 0.39249 0.0735 0.07433 0.0
H347 H 0.4116 0.12035 0.08114 0.0
H348 H 0.39262 0.22102 0.10039 0.0
H349 H 0.3503 0.24811 0.0909 0.0
H350 H 0.39135 0.30638 0.99719 0.0
H351 H 0.43311 0.27949 1.00595 0.0
H352 H 0.34897 0.30046 0.14666 0.0
H353 H 0.31678 0.30211 0.89913 0.0
H354 H 0.33987 0.27657 0.9283 0.0
H355 H 0.35271 0.30984 0.91653 0.0
C356 C 0.39217 0.23903 0.07568 0.0
C357 C 0.4161 0.24821 0.05396 0.0
C358 C 0.36808 0.25458 0.07061 0.0
C359 C 0.36754 0.27918 0.04281 0.0
C360 C 0.39096 0.28723 0.01757 0.0
H361 H 0.29749 0.43691 0.04901 0.0
H362 H 0.32227 0.39383 0.03303 0.0
C363 C 0.41494 0.2719 0.02301 0.0
C364 C 0.34447 0.29873 0.04795 0.0
H365 H 0.3042 0.34195 0.96566 0.0
C366 C 0.33861 0.30906 0.10701 0.0
C367 C 0.33108 0.31005 0.99624 0.0
C368 C 0.33524 0.29883 0.9315 0.0
C369 C 0.3212 0.33159 0.11598 0.0
C370 C 0.30904 0.34387 0.06441 0.0
C371 C 0.31375 0.33266 1.00518 0.0
C372 C 0.29295 0.36947 0.07136 0.0
C373 C 0.31723 0.34309 0.18071 0.0
C374 C 0.26804 0.36998 0.09739 0.0
C375 C 0.25377 0.39457 0.10645 0.0
C376 C 0.2641 0.41915 0.08947 0.0
C377 C 0.28881 0.41838 0.06219 0.0
C378 C 0.30304 0.39378 0.05314 0.0
H379 H 0.33189 0.33431 0.21546 0.0
H380 H 0.31979 0.36576 0.18641 0.0
H381 H 0.29607 0.33826 0.19018 0.0
H382 H 0.25966 0.35135 0.11081 0.0
H383 H 0.23451 0.39427 0.12634 0.0
H384 H 0.75121 0.42584 0.21366 0.0
H385 H 0.71797 0.38877 0.21485 0.0
H386 H 0.68579 0.39912 0.02863 0.0
H387 H 0.71843 0.43674 0.02737 0.0
H388 H 0.6585 0.39415 0.19166 0.0
H389 H 0.70139 0.31491 0.0296 0.0
H390 H 0.72149 0.34372 0.06869 0.0
H391 H 0.69708 0.34843 1.00375 0.0
C392 C 0.737 0.42038 0.17299 0.0
C393 C 0.73746 0.4344 0.12046 0.0
C394 C 0.71816 0.39906 0.17367 0.0
C395 C 0.69966 0.3911 0.12167 0.0
C396 C 0.70024 0.4047 0.06888 0.0
H397 H 0.54663 0.30136 0.07633 0.0
H398 H 0.58399 0.33478 0.07918 0.0
C399 C 0.71896 0.42615 0.06824 0.0
C400 C 0.67883 0.36947 0.12366 0.0
H401 H 0.65752 0.30549 0.05969 0.0
C402 C 0.65834 0.3747 0.16309 0.0
C403 C 0.67887 0.3441 0.08663 0.0
C404 C 0.70098 0.33722 0.04504 0.0
C405 C 0.63742 0.35541 0.1653 0.0
C406 C 0.63702 0.33037 0.12702 0.0
C407 C 0.65788 0.32482 0.08871 0.0
C408 C 0.61465 0.30999 0.12516 0.0
C409 C 0.61582 0.36189 0.20841 0.0
C410 C 0.6197 0.28493 0.14955 0.0
C411 C 0.59839 0.26581 0.14814 0.0
C412 C 0.5718 0.27136 0.12154 0.0
C413 C 0.56695 0.29642 0.09665 0.0
C414 C 0.58818 0.31558 0.09856 0.0
H415 H 0.62186 0.37966 0.2429 0.0
H416 H 0.5963 0.36692 0.18148 0.0
H417 H 0.61188 0.34383 0.23286 0.0
H418 H 0.64008 0.28027 0.17002 0.0
H419 H 0.60279 0.24656 0.16708 0.0
H420 H 0.60474 0.77328 0.12817 0.0
H421 H 0.64776 0.74801 0.14292 0.0
H422 H 0.60298 0.6715 0.10025 0.0
H423 H 0.55989 0.6966 0.08471 0.0
H424 H 0.66112 0.70728 0.22771 0.0
H425 H 0.66513 0.66623 0.98421 0.0
H426 H 0.64408 0.69507 1.00671 0.0
H427 H 0.63287 0.66068 1.01306 0.0
C428 C 0.60408 0.75107 0.12116 0.0
C429 C 0.5789 0.73693 0.10474 0.0
C430 C 0.62865 0.73669 0.13003 0.0
C431 C 0.62858 0.70792 0.12196 0.0
C432 C 0.60351 0.69373 0.10588 0.0
H433 H 0.72838 0.57881 0.23206 0.0
H434 H 0.69898 0.61895 0.2283 0.0
C435 C 0.5789 0.70808 0.09745 0.0
C436 C 0.65458 0.6926 0.13152 0.0
H437 H 0.69505 0.64575 0.05912 0.0
C438 C 0.66878 0.69409 0.19074 0.0
C439 C 0.6648 0.6758 0.08305 0.0
C440 C 0.65112 0.67446 0.018 0.0
C441 C 0.69211 0.67802 0.20339 0.0
C442 C 0.70132 0.65993 0.15563 0.0
C443 C 0.68798 0.6596 0.09577 0.0
C444 C 0.72253 0.63889 0.16762 0.0
C445 C 0.70639 0.68014 0.26797 0.0
C446 C 0.74601 0.637 0.13595 0.0
C447 C 0.76308 0.61404 0.13853 0.0
C448 C 0.75651 0.59248 0.17186 0.0
C449 C 0.73399 0.59524 0.20638 0.0
C450 C 0.71721 0.61824 0.20439 0.0
H451 H 0.70278 0.70038 0.29349 0.0
H452 H 0.6981 0.66403 0.29295 0.0
H453 H 0.72887 0.67708 0.268 0.0
H454 H 0.75034 0.65261 0.10687 0.0
H455 H 0.78005 0.61218 0.1107 0.0
H456 H 0.40029 0.77654 0.14743 0.0
H457 H 0.35877 0.74984 0.15801 0.0
H458 H 0.38801 0.68192 0.04258 0.0
H459 H 0.42889 0.70812 0.03147 0.0
H460 H 0.33312 0.69781 1.00651 0.0
H461 H 0.35078 0.6821 0.25488 0.0
H462 H 0.35296 0.71648 0.2337 0.0
H463 H 0.37835 0.69183 0.21308 0.0
C464 C 0.39794 0.7558 0.12498 0.0
C465 C 0.41787 0.74453 0.0884 0.0
C466 C 0.37425 0.74058 0.13108 0.0
C467 C 0.3703 0.71387 0.10101 0.0
C468 C 0.39052 0.70251 0.06588 0.0
H469 H 0.28906 0.56467 0.04296 0.0
H470 H 0.31371 0.60782 0.04209 0.0
C471 C 0.41397 0.71758 0.0597 0.0
C472 C 0.34502 0.69749 0.10355 0.0
H473 H 0.31429 0.65759 0.19539 0.0
C474 C 0.32864 0.68946 0.04811 0.0
C475 C 0.33908 0.68675 0.15787 0.0
C476 C 0.35618 0.69452 0.21841 0.0
C477 C 0.30761 0.66976 0.04482 0.0
C478 C 0.30295 0.65759 0.09818 0.0
C479 C 0.31794 0.667 0.15454 0.0
C480 C 0.28587 0.63235 0.09444 0.0
C481 C 0.29132 0.66119 0.98365 0.0
C482 C 0.2618 0.63184 0.12369 0.0
C483 C 0.24736 0.60708 0.12356 0.0
C484 C 0.25723 0.58246 0.09539 0.0
C485 C 0.28095 0.58329 0.06503 0.0
C486 C 0.29504 0.60795 0.06437 0.0
H487 H 0.2917 0.67736 0.95197 0.0
H488 H 0.30043 0.64236 0.96192 0.0
H489 H 0.26963 0.65651 0.98948 0.0
H490 H 0.25451 0.65046 0.14748 0.0
H491 H 0.2293 0.60696 0.1479 0.0
loop_
_geom_bond_atom_site_label_1
_geom_bond_atom_site_label_2
_geom_bond_distance
_geom_bond_site_symmetry_2
_ccdc_geom_bond_type
C0 C1 1.351 . S
C0 N3 1.368 . S
C0 H5 0.931 . S
C1 C0 1.351 . S
C1 N2 1.373 . S
C1 H29 0.930 . S
N2 C1 1.373 . S
N2 C4 1.340 . S
N3 C0 1.368 . S
N3 C4 1.321 . S
N3 Co6 2.135 1_556 S
C4 N2 1.340 . S
C4 N3 1.321 . S
C4 H28 0.930 . S
H5 C0 0.931 . S
Co6 N3 2.135 1_554 S
Co6 N9 2.121 . S
Co6 O14 2.055 . S
Co6 O17 2.039 . S
Co6 N20 2.140 . S
C7 O8 1.227 . S
C7 O17 1.265 . S
O8 C7 1.227 . S
N9 Co6 2.121 . S
N9 C11 1.375 . S
N9 C12 1.313 . S
C10 C11 1.338 . S
C10 N13 1.377 . S
C10 H30 0.930 . S
C11 N9 1.375 . S
C11 C10 1.338 . S
C11 H15 0.931 . S
C12 N9 1.313 . S
C12 N13 1.344 . S
C12 H16 0.930 . S
N13 C10 1.377 . S
N13 C12 1.344 . S
O14 Co6 2.055 . S
O14 C18 1.253 . S
H15 C11 0.931 . S
H16 C12 0.930 . S
O17 Co6 2.039 . S
O17 C7 1.265 . S
C18 O14 1.253 . S
C18 O19 1.227 . S
O19 C18 1.227 . S
N20 Co6 2.140 . S
N20 C23 1.346 . S
N20 C24 1.345 . S
C21 C22 1.387 . S
C21 C25 1.391 . S
C22 C21 1.387 . S
C22 C23 1.369 . S
C22 H31 0.929 1_554 S
C23 N20 1.346 . S
C23 C22 1.369 . S
C23 H26 0.928 1_554 S
C24 N20 1.345 . S
C24 C25 1.371 . S
C24 H27 0.931 . S
C25 C21 1.391 . S
C25 C24 1.371 . S
C25 H32 0.930 . S
H26 C23 0.928 1_556 S
H27 C24 0.931 . S
H28 C4 0.930 . S
H29 C1 0.930 . S
H30 C10 0.930 . S
H31 C22 0.929 1_556 S
H32 C25 0.930 . S
C33 C34 1.351 . S
C33 N36 1.368 . S
C33 H38 0.931 . S
C34 C33 1.351 . S
C34 N35 1.373 . S
C34 H62 0.930 . S
N35 C34 1.373 . S
N35 C37 1.340 . S
N36 C33 1.368 . S
N36 C37 1.321 . S
N36 Co39 2.135 1_556 S
C37 N35 1.340 . S
C37 N36 1.321 . S
C37 H61 0.930 . S
H38 C33 0.931 . S
Co39 N36 2.135 1_554 S
Co39 N42 2.121 . S
Co39 O47 2.055 . S
Co39 O50 2.039 . S
Co39 N53 2.140 . S
C40 O41 1.227 . S
C40 O50 1.265 . S
O41 C40 1.227 . S
N42 Co39 2.121 . S
N42 C44 1.375 . S
N42 C45 1.313 . S
C43 C44 1.338 . S
C43 N46 1.377 . S
C43 H63 0.930 . S
C44 N42 1.375 . S
C44 C43 1.338 . S
C44 H48 0.931 . S
C45 N42 1.313 . S
C45 N46 1.344 . S
C45 H49 0.930 . S
N46 C43 1.377 . S
N46 C45 1.344 . S
O47 Co39 2.055 . S
O47 C51 1.253 . S
H48 C44 0.931 . S
H49 C45 0.930 . S
O50 Co39 2.039 . S
O50 C40 1.265 . S
C51 O47 1.253 . S
C51 O52 1.227 . S
O52 C51 1.227 . S
N53 Co39 2.140 . S
N53 C56 1.346 . S
N53 C57 1.345 . S
C54 C55 1.387 . S
C54 C58 1.391 . S
C55 C54 1.387 . S
C55 C56 1.369 . S
C55 H64 0.929 . S
C56 N53 1.346 . S
C56 C55 1.369 . S
C56 H59 0.928 1_554 S
C57 N53 1.345 . S
C57 C58 1.371 . S
C57 H60 0.931 . S
C58 C54 1.391 . S
C58 C57 1.371 . S
C58 H65 0.930 . S
H59 C56 0.928 1_556 S
H60 C57 0.931 . S
H61 C37 0.930 . S
H62 C34 0.930 . S
H63 C43 0.930 . S
H64 C55 0.929 . S
H65 C58 0.930 . S
C66 C67 1.351 . S
C66 N69 1.368 . S
C66 H71 0.931 . S
C67 C66 1.351 . S
C67 N68 1.373 . S
C67 H95 0.930 . S
N68 C67 1.373 . S
N68 C70 1.340 . S
N69 C66 1.368 . S
N69 C70 1.321 . S
N69 Co72 2.135 . S
C70 N68 1.340 . S
C70 N69 1.321 . S
C70 H94 0.930 . S
H71 C66 0.931 . S
Co72 N69 2.135 . S
Co72 N75 2.121 . S
Co72 O80 2.055 . S
Co72 O83 2.039 . S
Co72 N86 2.140 . S
C73 O74 1.227 . S
C73 O83 1.265 . S
O74 C73 1.227 . S
N75 Co72 2.121 . S
N75 C77 1.375 . S
N75 C78 1.313 . S
C76 C77 1.338 1_556 S
C76 N79 1.377 . S
C76 H96 0.930 . S
C77 N75 1.375 . S
C77 C76 1.338 1_554 S
C77 H81 0.931 . S
C78 N75 1.313 . S
C78 N79 1.344 1_554 S
C78 H82 0.930 . S
N79 C76 1.377 . S
N79 C78 1.344 1_556 S
O80 Co72 2.055 . S
O80 C84 1.253 . S
H81 C77 0.931 . S
H82 C78 0.930 . S
O83 Co72 2.039 . S
O83 C73 1.265 . S
C84 O80 1.253 . S
C84 O85 1.227 . S
O85 C84 1.227 . S
N86 Co72 2.140 . S
N86 C89 1.346 . S
N86 C90 1.345 . S
C87 C88 1.387 . S
C87 C91 1.391 . S
C88 C87 1.387 . S
C88 C89 1.369 . S
C88 H97 0.929 . S
C89 N86 1.346 . S
C89 C88 1.369 . S
C89 H92 0.928 . S
C90 N86 1.345 . S
C90 C91 1.371 . S
C90 H93 0.931 . S
C91 C87 1.391 . S
C91 C90 1.371 . S
C91 H98 0.930 . S
H92 C89 0.928 . S
H93 C90 0.931 . S
H94 C70 0.930 . S
H95 C67 0.930 . S
H96 C76 0.930 . S
H97 C88 0.929 . S
H98 C91 0.930 . S
C99 C100 1.351 . S
C99 N102 1.368 . S
C99 H104 0.931 . S
C100 C99 1.351 . S
C100 N101 1.373 . S
C100 H128 0.930 . S
N101 C100 1.373 . S
N101 C103 1.340 . S
N102 C99 1.368 . S
N102 C103 1.321 . S
N102 Co105 2.135 . S
C103 N101 1.340 . S
C103 N102 1.321 . S
C103 H127 0.930 . S
H104 C99 0.931 . S
Co105 N102 2.135 . S
Co105 N108 2.121 . S
Co105 O113 2.055 . S
Co105 O116 2.039 . S
Co105 N119 2.140 . S
C106 O107 1.227 . S
C106 O116 1.265 . S
O107 C106 1.227 . S
N108 Co105 2.121 . S
N108 C110 1.375 . S
N108 C111 1.313 1_554 S
C109 C110 1.338 1_556 S
C109 N112 1.377 . S
C109 H129 0.930 . S
C110 N108 1.375 . S
C110 C109 1.338 1_554 S
C110 H114 0.931 . S
C111 N108 1.313 1_556 S
C111 N112 1.344 . S
C111 H115 0.930 1_556 S
N112 C109 1.377 . S
N112 C111 1.344 . S
O113 Co105 2.055 . S
O113 C117 1.253 . S
H114 C110 0.931 . S
H115 C111 0.930 1_554 S
O116 Co105 2.039 . S
O116 C106 1.265 . S
C117 O113 1.253 . S
C117 O118 1.227 . S
O118 C117 1.227 . S
N119 Co105 2.140 . S
N119 C122 1.346 . S
N119 C123 1.345 . S
C120 C121 1.387 . S
C120 C124 1.391 . S
C121 C120 1.387 . S
C121 C122 1.369 . S
C121 H130 0.929 . S
C122 N119 1.346 . S
C122 C121 1.369 . S
C122 H125 0.928 . S
C123 N119 1.345 . S
C123 C124 1.371 . S
C123 H126 0.931 . S
C124 C120 1.391 . S
C124 C123 1.371 . S
C124 H131 0.930 . S
H125 C122 0.928 . S
H126 C123 0.931 . S
H127 C103 0.930 . S
H128 C100 0.930 . S
H129 C109 0.930 . S
H130 C121 0.929 . S
H131 C124 0.930 . S
H132 C140 0.929 . S
H133 C142 0.930 . S
H134 C144 0.930 . S
H135 C147 0.929 . S
H136 C150 0.930 . S
H137 C152 0.960 . S
H138 C152 0.960 . S
H139 C152 0.960 . S
C140 H132 0.929 . S
C140 C141 1.377 . S
C140 C142 1.384 . S
C141 C140 1.377 . S
C141 C147 1.390 . S
C142 H133 0.930 . S
C142 C140 1.384 . S
C142 C143 1.372 . S
C143 C142 1.372 . S
C143 C144 1.400 . S
C143 C148 1.490 . S
C144 H134 0.930 . S
C144 C143 1.400 . S
C144 C147 1.386 . S
H145 C161 0.930 . S
H146 C162 0.931 . S
C147 H135 0.929 . S
C147 C141 1.390 . S
C147 C144 1.386 . S
C148 C143 1.490 . S
C148 C150 1.395 . S
C148 C151 1.403 . S
H149 C155 0.930 . S
C150 H136 0.930 . S
C150 C148 1.395 . S
C150 C153 1.403 . S
C151 C148 1.403 . S
C151 C152 1.524 . S
C151 C155 1.400 . S
C152 H137 0.960 . S
C152 H138 0.960 . S
C152 H139 0.960 . S
C152 C151 1.524 . S
C153 C150 1.403 . S
C153 C154 1.392 . S
C153 C157 1.495 . S
C154 C153 1.392 . S
C154 C155 1.385 . S
C154 C156 1.478 . S
C155 H149 0.930 . S
C155 C151 1.400 . S
C155 C154 1.385 . S
C156 C154 1.478 . S
C156 C158 1.381 . S
C156 C162 1.383 . S
C157 C153 1.495 . S
C157 H163 0.959 . S
C157 H164 0.961 . S
C157 H165 0.960 . S
C158 C156 1.381 . S
C158 C159 1.394 . S
C158 H166 0.930 . S
C159 C158 1.394 . S
C159 C160 1.383 . S
C159 H167 0.929 . S
C160 C159 1.383 . S
C160 C161 1.377 . S
C161 H145 0.930 . S
C161 C160 1.377 . S
C161 C162 1.379 . S
C162 H146 0.931 . S
C162 C156 1.383 . S
C162 C161 1.379 . S
H163 C157 0.959 . S
H164 C157 0.961 . S
H165 C157 0.960 . S
H166 C158 0.930 . S
H167 C159 0.929 . S
H168 C176 0.929 . S
H169 C178 0.930 . S
H170 C180 0.930 . S
H171 C183 0.929 . S
H172 C186 0.930 . S
H173 C188 0.960 . S
H174 C188 0.960 . S
H175 C188 0.960 . S
C176 H168 0.929 . S
C176 C177 1.377 . S
C176 C178 1.384 . S
C177 C176 1.377 . S
C177 C183 1.390 . S
C178 H169 0.930 . S
C178 C176 1.384 . S
C178 C179 1.372 . S
C179 C178 1.372 . S
C179 C180 1.400 . S
C179 C184 1.490 . S
C180 H170 0.930 . S
C180 C179 1.400 . S
C180 C183 1.386 . S
H181 C197 0.930 . S
H182 C198 0.931 . S
C183 H171 0.929 . S
C183 C177 1.390 . S
C183 C180 1.386 . S
C184 C179 1.490 . S
C184 C186 1.395 . S
C184 C187 1.403 . S
H185 C191 0.930 . S
C186 H172 0.930 . S
C186 C184 1.395 . S
C186 C189 1.403 . S
C187 C184 1.403 . S
C187 C188 1.524 . S
C187 C191 1.400 . S
C188 H173 0.960 . S
C188 H174 0.960 . S
C188 H175 0.960 . S
C188 C187 1.524 . S
C189 C186 1.403 . S
C189 C190 1.392 . S
C189 C193 1.495 . S
C190 C189 1.392 . S
C190 C191 1.385 . S
C190 C192 1.478 . S
C191 H185 0.930 . S
C191 C187 1.400 . S
C191 C190 1.385 . S
C192 C190 1.478 . S
C192 C194 1.381 . S
C192 C198 1.383 . S
C193 C189 1.495 . S
C193 H199 0.959 . S
C193 H200 0.961 . S
C193 H201 0.960 . S
C194 C192 1.381 . S
C194 C195 1.394 . S
C194 H202 0.930 . S
C195 C194 1.394 . S
C195 C196 1.383 . S
C195 H203 0.929 . S
C196 C195 1.383 . S
C196 C197 1.377 . S
C197 H181 0.930 . S
C197 C196 1.377 . S
C197 C198 1.379 . S
C198 H182 0.931 . S
C198 C192 1.383 . S
C198 C197 1.379 . S
H199 C193 0.959 . S
H200 C193 0.961 . S
H201 C193 0.960 . S
H202 C194 0.930 . S
H203 C195 0.929 . S
H204 C212 0.929 . S
H205 C214 0.930 . S
H206 C216 0.930 . S
H207 C219 0.929 . S
H208 C222 0.930 . S
H209 C224 0.960 . S
H210 C224 0.960 . S
H211 C224 0.960 . S
C212 H204 0.929 . S
C212 C213 1.377 . S
C212 C214 1.384 . S
C213 C212 1.377 . S
C213 C219 1.390 . S
C214 H205 0.930 . S
C214 C212 1.384 . S
C214 C215 1.372 . S
C215 C214 1.372 . S
C215 C216 1.400 . S
C215 C220 1.490 . S
C216 H206 0.930 . S
C216 C215 1.400 . S
C216 C219 1.386 . S
H217 C233 0.930 . S
H218 C234 0.931 . S
C219 H207 0.929 . S
C219 C213 1.390 . S
C219 C216 1.386 . S
C220 C215 1.490 . S
C220 C222 1.395 . S
C220 C223 1.403 . S
H221 C227 0.930 . S
C222 H208 0.930 . S
C222 C220 1.395 . S
C222 C225 1.403 . S
C223 C220 1.403 . S
C223 C224 1.524 . S
C223 C227 1.400 . S
C224 H209 0.960 . S
C224 H210 0.960 . S
C224 H211 0.960 . S
C224 C223 1.524 . S
C225 C222 1.403 . S
C225 C226 1.392 . S
C225 C229 1.495 . S
C226 C225 1.392 . S
C226 C227 1.385 . S
C226 C228 1.478 . S
C227 H221 0.930 . S
C227 C223 1.400 . S
C227 C226 1.385 . S
C228 C226 1.478 . S
C228 C230 1.381 . S
C228 C234 1.383 . S
C229 C225 1.495 . S
C229 H235 0.959 . S
C229 H236 0.961 . S
C229 H237 0.960 . S
C230 C228 1.381 . S
C230 C231 1.394 . S
C230 H238 0.930 . S
C231 C230 1.394 . S
C231 C232 1.383 . S
C231 H239 0.929 . S
C232 C231 1.383 . S
C232 C233 1.377 . S
C233 H217 0.930 . S
C233 C232 1.377 . S
C233 C234 1.379 . S
C234 H218 0.931 . S
C234 C228 1.383 . S
C234 C233 1.379 . S
H235 C229 0.959 . S
H236 C229 0.961 . S
H237 C229 0.960 . S
H238 C230 0.930 . S
H239 C231 0.929 . S
H240 C248 0.929 . S
H241 C250 0.930 . S
H242 C252 0.930 . S
H243 C255 0.929 . S
H244 C258 0.930 . S
H245 C260 0.960 . S
H246 C260 0.960 . S
H247 C260 0.960 . S
C248 H240 0.929 . S
C248 C249 1.377 . S
C248 C250 1.384 . S
C249 C248 1.377 . S
C249 C255 1.390 . S
C250 H241 0.930 . S
C250 C248 1.384 . S
C250 C251 1.372 . S
C251 C250 1.372 . S
C251 C252 1.400 . S
C251 C256 1.490 . S
C252 H242 0.930 . S
C252 C251 1.400 . S
C252 C255 1.386 . S
H253 C269 0.930 . S
H254 C270 0.931 . S
C255 H243 0.929 . S
C255 C249 1.390 . S
C255 C252 1.386 . S
C256 C251 1.490 . S
C256 C258 1.395 . S
C256 C259 1.403 . S
H257 C263 0.930 . S
C258 H244 0.930 . S
C258 C256 1.395 . S
C258 C261 1.403 . S
C259 C256 1.403 . S
C259 C260 1.524 . S
C259 C263 1.400 . S
C260 H245 0.960 . S
C260 H246 0.960 . S
C260 H247 0.960 . S
C260 C259 1.524 . S
C261 C258 1.403 . S
C261 C262 1.392 . S
C261 C265 1.495 . S
C262 C261 1.392 . S
C262 C263 1.385 . S
C262 C264 1.478 . S
C263 H257 0.930 . S
C263 C259 1.400 . S
C263 C262 1.385 . S
C264 C262 1.478 . S
C264 C266 1.381 . S
C264 C270 1.383 . S
C265 C261 1.495 . S
C265 H271 0.959 . S
C265 H272 0.961 . S
C265 H273 0.960 . S
C266 C264 1.381 . S
C266 C267 1.394 . S
C266 H274 0.930 . S
C267 C266 1.394 . S
C267 C268 1.383 . S
C267 H275 0.929 . S
C268 C267 1.383 . S
C268 C269 1.377 . S
C269 H253 0.930 . S
C269 C268 1.377 . S
C269 C270 1.379 . S
C270 H254 0.931 . S
C270 C264 1.383 . S
C270 C269 1.379 . S
H271 C265 0.959 . S
H272 C265 0.961 . S
H273 C265 0.960 . S
H274 C266 0.930 . S
H275 C267 0.929 . S
H276 C284 0.929 . S
H277 C286 0.930 . S
H278 C288 0.930 . S
H279 C291 0.929 . S
H280 C294 0.930 . S
H281 C296 0.960 . S
H282 C296 0.960 . S
H283 C296 0.960 . S
C284 H276 0.929 . S
C284 C285 1.377 . S
C284 C286 1.384 . S
C285 C284 1.377 . S
C285 C291 1.390 . S
C286 H277 0.930 . S
C286 C284 1.384 . S
C286 C287 1.372 . S
C287 C286 1.372 . S
C287 C288 1.400 . S
C287 C292 1.490 . S
C288 H278 0.930 . S
C288 C287 1.400 . S
C288 C291 1.386 . S
H289 C305 0.930 . S
H290 C306 0.931 . S
C291 H279 0.929 . S
C291 C285 1.390 . S
C291 C288 1.386 . S
C292 C287 1.490 . S
C292 C294 1.395 . S
C292 C295 1.403 . S
H293 C299 0.930 . S
C294 H280 0.930 . S
C294 C292 1.395 . S
C294 C297 1.403 1_655 S
C295 C292 1.403 . S
C295 C296 1.524 . S
C295 C299 1.400 1_655 S
C296 H281 0.960 . S
C296 H282 0.960 . S
C296 H283 0.960 . S
C296 C295 1.524 . S
C297 C294 1.403 1_455 S
C297 C298 1.392 . S
C297 C301 1.495 1_554 S
C298 C297 1.392 . S
C298 C299 1.385 . S
C298 C300 1.478 . S
C299 H293 0.930 . S
C299 C295 1.400 1_455 S
C299 C298 1.385 . S
C300 C298 1.478 . S
C300 C302 1.381 . S
C300 C306 1.383 . S
C301 C297 1.495 1_556 S
C301 H307 0.959 1_455 S
C301 H308 0.961 . S
C301 H309 0.960 . S
C302 C300 1.381 . S
C302 C303 1.394 . S
C302 H310 0.930 . S
C303 C302 1.394 . S
C303 C304 1.383 . S
C303 H311 0.929 . S
C304 C303 1.383 . S
C304 C305 1.377 . S
C305 H289 0.930 . S
C305 C304 1.377 . S
C305 C306 1.379 . S
C306 H290 0.931 . S
C306 C300 1.383 . S
C306 C305 1.379 . S
H307 C301 0.959 1_655 S
H308 C301 0.961 . S
H309 C301 0.960 . S
H310 C302 0.930 . S
H311 C303 0.929 . S
H312 C320 0.929 . S
H313 C322 0.930 . S
H314 C324 0.930 . S
H315 C327 0.929 . S
H316 C330 0.930 . S
H317 C332 0.960 . S
H318 C332 0.960 . S
H319 C332 0.960 . S
C320 H312 0.929 . S
C320 C321 1.377 . S
C320 C322 1.384 . S
C321 C320 1.377 . S
C321 C327 1.390 . S
C322 H313 0.930 . S
C322 C320 1.384 . S
C322 C323 1.372 . S
C323 C322 1.372 . S
C323 C324 1.400 . S
C323 C328 1.490 . S
C324 H314 0.930 . S
C324 C323 1.400 . S
C324 C327 1.386 . S
H325 C341 0.930 . S
H326 C342 0.931 . S
C327 H315 0.929 . S
C327 C321 1.390 . S
C327 C324 1.386 . S
C328 C323 1.490 . S
C328 C330 1.395 . S
C328 C331 1.403 . S
H329 C335 0.930 . S
C330 H316 0.930 . S
C330 C328 1.395 . S
C330 C333 1.403 1_565 S
C331 C328 1.403 . S
C331 C332 1.524 . S
C331 C335 1.400 1_565 S
C332 H317 0.960 . S
C332 H318 0.960 . S
C332 H319 0.960 . S
C332 C331 1.524 . S
C333 C330 1.403 1_545 S
C333 C334 1.392 . S
C333 C337 1.495 . S
C334 C333 1.392 . S
C334 C335 1.385 . S
C334 C336 1.478 . S
C335 H329 0.930 . S
C335 C331 1.400 1_545 S
C335 C334 1.385 . S
C336 C334 1.478 . S
C336 C338 1.381 . S
C336 C342 1.383 . S
C337 C333 1.495 . S
C337 H343 0.959 . S
C337 H344 0.961 . S
C337 H345 0.960 . S
C338 C336 1.381 . S
C338 C339 1.394 . S
C338 H346 0.930 . S
C339 C338 1.394 . S
C339 C340 1.383 . S
C339 H347 0.929 . S
C340 C339 1.383 . S
C340 C341 1.377 . S
C341 H325 0.930 . S
C341 C340 1.377 . S
C341 C342 1.379 . S
C342 H326 0.931 . S
C342 C336 1.383 . S
C342 C341 1.379 . S
H343 C337 0.959 . S
H344 C337 0.961 . S
H345 C337 0.960 . S
H346 C338 0.930 . S
H347 C339 0.929 . S
H348 C356 0.929 . S
H349 C358 0.930 . S
H350 C360 0.930 1_556 S
H351 C363 0.929 1_556 S
H352 C366 0.930 . S
H353 C368 0.960 . S
H354 C368 0.960 . S
H355 C368 0.960 . S
C356 H348 0.929 . S
C356 C357 1.377 . S
C356 C358 1.384 . S
C357 C356 1.377 . S
C357 C363 1.390 . S
C358 H349 0.930 . S
C358 C356 1.384 . S
C358 C359 1.372 . S
C359 C358 1.372 . S
C359 C360 1.400 . S
C359 C364 1.490 . S
C360 H350 0.930 1_554 S
C360 C359 1.400 . S
C360 C363 1.386 . S
H361 C377 0.930 . S
H362 C378 0.931 . S
C363 H351 0.929 1_554 S
C363 C357 1.390 . S
C363 C360 1.386 . S
C364 C359 1.490 . S
C364 C366 1.395 . S
C364 C367 1.403 1_554 S
H365 C371 0.930 1_556 S
C366 H352 0.930 . S
C366 C364 1.395 . S
C366 C369 1.403 . S
C367 C364 1.403 1_556 S
C367 C368 1.524 . S
C367 C371 1.400 1_556 S
C368 H353 0.960 . S
C368 H354 0.960 . S
C368 H355 0.960 . S
C368 C367 1.524 . S
C369 C366 1.403 . S
C369 C370 1.392 . S
C369 C373 1.495 . S
C370 C369 1.392 . S
C370 C371 1.385 . S
C370 C372 1.478 . S
C371 H365 0.930 1_554 S
C371 C367 1.400 1_554 S
C371 C370 1.385 . S
C372 C370 1.478 . S
C372 C374 1.381 . S
C372 C378 1.383 . S
C373 C369 1.495 . S
C373 H379 0.959 . S
C373 H380 0.961 . S
C373 H381 0.960 . S
C374 C372 1.381 . S
C374 C375 1.394 . S
C374 H382 0.930 . S
C375 C374 1.394 . S
C375 C376 1.383 . S
C375 H383 0.929 . S
C376 C375 1.383 . S
C376 C377 1.377 . S
C377 H361 0.930 . S
C377 C376 1.377 . S
C377 C378 1.379 . S
C378 H362 0.931 . S
C378 C372 1.383 . S
C378 C377 1.379 . S
H379 C373 0.959 . S
H380 C373 0.961 . S
H381 C373 0.960 . S
H382 C374 0.930 . S
H383 C375 0.929 . S
H384 C392 0.929 . S
H385 C394 0.930 . S
H386 C396 0.930 . S
H387 C399 0.929 . S
H388 C402 0.930 . S
H389 C404 0.960 . S
H390 C404 0.960 . S
H391 C404 0.960 . S
C392 H384 0.929 . S
C392 C393 1.377 . S
C392 C394 1.384 . S
C393 C392 1.377 . S
C393 C399 1.390 . S
C394 H385 0.930 . S
C394 C392 1.384 . S
C394 C395 1.372 . S
C395 C394 1.372 . S
C395 C396 1.400 . S
C395 C400 1.490 . S
C396 H386 0.930 . S
C396 C395 1.400 . S
C396 C399 1.386 . S
H397 C413 0.930 . S
H398 C414 0.931 . S
C399 H387 0.929 . S
C399 C393 1.390 . S
C399 C396 1.386 . S
C400 C395 1.490 . S
C400 C402 1.395 . S
C400 C403 1.403 . S
H401 C407 0.930 . S
C402 H388 0.930 . S
C402 C400 1.395 . S
C402 C405 1.403 . S
C403 C400 1.403 . S
C403 C404 1.524 1_554 S
C403 C407 1.400 . S
C404 H389 0.960 . S
C404 H390 0.960 . S
C404 H391 0.960 . S
C404 C403 1.524 1_556 S
C405 C402 1.403 . S
C405 C406 1.392 . S
C405 C409 1.495 . S
C406 C405 1.392 . S
C406 C407 1.385 . S
C406 C408 1.478 . S
C407 H401 0.930 . S
C407 C403 1.400 . S
C407 C406 1.385 . S
C408 C406 1.478 . S
C408 C410 1.381 . S
C408 C414 1.383 . S
C409 C405 1.495 . S
C409 H415 0.959 . S
C409 H416 0.961 . S
C409 H417 0.960 . S
C410 C408 1.381 . S
C410 C411 1.394 . S
C410 H418 0.930 . S
C411 C410 1.394 . S
C411 C412 1.383 . S
C411 H419 0.929 . S
C412 C411 1.383 . S
C412 C413 1.377 . S
C413 H397 0.930 . S
C413 C412 1.377 . S
C413 C414 1.379 . S
C414 H398 0.931 . S
C414 C408 1.383 . S
C414 C413 1.379 . S
H415 C409 0.959 . S
H416 C409 0.961 . S
H417 C409 0.960 . S
H418 C410 0.930 . S
H419 C411 0.929 . S
H420 C428 0.929 . S
H421 C430 0.930 . S
H422 C432 0.930 . S
H423 C435 0.929 . S
H424 C438 0.930 . S
H425 C440 0.960 . S
H426 C440 0.960 . S
H427 C440 0.960 . S
C428 H420 0.929 . S
C428 C429 1.377 . S
C428 C430 1.384 . S
C429 C428 1.377 . S
C429 C435 1.390 . S
C430 H421 0.930 . S
C430 C428 1.384 . S
C430 C431 1.372 . S
C431 C430 1.372 . S
C431 C432 1.400 . S
C431 C436 1.490 . S
C432 H422 0.930 . S
C432 C431 1.400 . S
C432 C435 1.386 . S
H433 C449 0.930 . S
H434 C450 0.931 . S
C435 H423 0.929 . S
C435 C429 1.390 . S
C435 C432 1.386 . S
C436 C431 1.490 . S
C436 C438 1.395 . S
C436 C439 1.403 . S
H437 C443 0.930 . S
C438 H424 0.930 . S
C438 C436 1.395 . S
C438 C441 1.403 . S
C439 C436 1.403 . S
C439 C440 1.524 . S
C439 C443 1.400 . S
C440 H425 0.960 . S
C440 H426 0.960 . S
C440 H427 0.960 . S
C440 C439 1.524 . S
C441 C438 1.403 . S
C441 C442 1.392 . S
C441 C445 1.495 . S
C442 C441 1.392 . S
C442 C443 1.385 . S
C442 C444 1.478 . S
C443 H437 0.930 . S
C443 C439 1.400 . S
C443 C442 1.385 . S
C444 C442 1.478 . S
C444 C446 1.381 . S
C444 C450 1.383 . S
C445 C441 1.495 . S
C445 H451 0.959 . S
C445 H452 0.961 . S
C445 H453 0.960 . S
C446 C444 1.381 . S
C446 C447 1.394 . S
C446 H454 0.930 . S
C447 C446 1.394 . S
C447 C448 1.383 . S
C447 H455 0.929 . S
C448 C447 1.383 . S
C448 C449 1.377 . S
C449 H433 0.930 . S
C449 C448 1.377 . S
C449 C450 1.379 . S
C450 H434 0.931 . S
C450 C444 1.383 . S
C450 C449 1.379 . S
H451 C445 0.959 . S
H452 C445 0.961 . S
H453 C445 0.960 . S
H454 C446 0.930 . S
H455 C447 0.929 . S
H456 C464 0.929 . S
H457 C466 0.930 . S
H458 C468 0.930 . S
H459 C471 0.929 . S
H460 C474 0.930 . S
H461 C476 0.960 . S
H462 C476 0.960 . S
H463 C476 0.960 . S
C464 H456 0.929 . S
C464 C465 1.377 . S
C464 C466 1.384 . S
C465 C464 1.377 . S
C465 C471 1.390 . S
C466 H457 0.930 . S
C466 C464 1.384 . S
C466 C467 1.372 . S
C467 C466 1.372 . S
C467 C468 1.400 . S
C467 C472 1.490 . S
C468 H458 0.930 . S
C468 C467 1.400 . S
C468 C471 1.386 . S
H469 C485 0.930 . S
H470 C486 0.931 . S
C471 H459 0.929 . S
C471 C465 1.390 . S
C471 C468 1.386 . S
C472 C467 1.490 . S
C472 C474 1.395 . S
C472 C475 1.403 . S
H473 C479 0.930 . S
C474 H460 0.930 . S
C474 C472 1.395 . S
C474 C477 1.403 . S
C475 C472 1.403 . S
C475 C476 1.524 . S
C475 C479 1.400 . S
C476 H461 0.960 . S
C476 H462 0.960 . S
C476 H463 0.960 . S
C476 C475 1.524 . S
C477 C474 1.403 . S
C477 C478 1.392 . S
C477 C481 1.497 . S
C478 C477 1.392 . S
C478 C479 1.385 . S
C478 C480 1.478 . S
C479 H473 0.930 . S
C479 C475 1.400 . S
C479 C478 1.385 . S
C480 C478 1.478 . S
C480 C482 1.381 . S
C480 C486 1.383 . S
C481 C477 1.497 . S
C481 H487 0.958 1_554 S
C481 H488 0.960 1_554 S
C481 H489 0.961 . S
C482 C480 1.381 . S
C482 C483 1.394 . S
C482 H490 0.930 . S
C483 C482 1.394 . S
C483 C484 1.383 . S
C483 H491 0.929 . S
C484 C483 1.383 . S
C484 C485 1.377 . S
C485 H469 0.930 . S
C485 C484 1.377 . S
C485 C486 1.379 . S
C486 H470 0.931 . S
C486 C480 1.383 . S
C486 C485 1.379 . S
H487 C481 0.958 1_556 S
H488 C481 0.960 1_556 S
H489 C481 0.961 . S
H490 C482 0.930 . S
H491 C483 0.929 . S
C141 N2 1.442 . S
C160 N13 1.448 . S
C177 N35 1.444 . S
C196 N46 1.460 . S
C213 N79 1.441 . S
C232 N68 1.455 . S
C249 N112 1.434 . S
C268 N101 1.423 . S
C285 C84 0.985 . S
C304 C18 0.989 . S
C321 C117 0.981 . S
C340 C51 0.976 . S
C357 C40 1.400 . S
C376 C21 1.402 . S
C393 C87 1.202 . S
C412 C54 1.198 . S
C429 C120 1.409 . S
C448 C73 1.409 . S
C465 C106 1.642 . S
C484 C7 1.643 . S
