# Generated by pormake.
# Topology lvt-a, (3)-cn, num edge types: 1
# Building blocks:
#     Node 0, Type 0, BuildingBlock: WUSLED_clean_sbu_0, # of connection points: 3
#     Node 1, Type 0, BuildingBlock: WUSLED_clean_sbu_0, # of connection points: 3
#     Node 2, Type 0, BuildingBlock: WUSLED_clean_sbu_0, # of connection points: 3
#     Node 3, Type 0, BuildingBlock: WUSLED_clean_sbu_0, # of connection points: 3
#     Node 4, Type 0, BuildingBlock: WUSLED_clean_sbu_0, # of connection points: 3
#     Node 5, Type 0, BuildingBlock: WUSLED_clean_sbu_0, # of connection points: 3
#     Node 6, Type 0, BuildingBlock: WUSLED_clean_sbu_0, # of connection points: 3
#     Node 7, Type 0, BuildingBlock: WUSLED_clean_sbu_0, # of connection points: 3
#     Node 8, Type 0, BuildingBlock: WUSLED_clean_sbu_0, # of connection points: 3
#     Node 9, Type 0, BuildingBlock: WUSLED_clean_sbu_0, # of connection points: 3
#     Node 10, Type 0, BuildingBlock: WUSLED_clean_sbu_0, # of connection points: 3
#     Node 11, Type 0, BuildingBlock: WUSLED_clean_sbu_0, # of connection points: 3
#     Node 12, Type 0, BuildingBlock: WUSLED_clean_sbu_0, # of connection points: 3
#     Node 13, Type 0, BuildingBlock: WUSLED_clean_sbu_0, # of connection points: 3
#     Node 14, Type 0, BuildingBlock: WUSLED_clean_sbu_0, # of connection points: 3
#     Node 15, Type 0, BuildingBlock: WUSLED_clean_sbu_0, # of connection points: 3
#     Node 16, Type 0, BuildingBlock: WUSLED_clean_sbu_0, # of connection points: 3
#     Node 17, Type 0, BuildingBlock: WUSLED_clean_sbu_0, # of connection points: 3
#     Node 18, Type 0, BuildingBlock: WUSLED_clean_sbu_0, # of connection points: 3
#     Node 19, Type 0, BuildingBlock: WUSLED_clean_sbu_0, # of connection points: 3
#     Node 20, Type 0, BuildingBlock: WUSLED_clean_sbu_0, # of connection points: 3
#     Node 21, Type 0, BuildingBlock: WUSLED_clean_sbu_0, # of connection points: 3
#     Node 22, Type 0, BuildingBlock: WUSLED_clean_sbu_0, # of connection points: 3
#     Node 23, Type 0, BuildingBlock: WUSLED_clean_sbu_0, # of connection points: 3
#     Node 24, Type 0, BuildingBlock: WUSLED_clean_sbu_0, # of connection points: 3
#     Node 25, Type 0, BuildingBlock: WUSLED_clean_sbu_0, # of connection points: 3
#     Node 26, Type 0, BuildingBlock: WUSLED_clean_sbu_0, # of connection points: 3
#     Node 27, Type 0, BuildingBlock: WUSLED_clean_sbu_0, # of connection points: 3
#     Node 28, Type 0, BuildingBlock: WUSLED_clean_sbu_0, # of connection points: 3
#     Node 29, Type 0, BuildingBlock: WUSLED_clean_sbu_0, # of connection points: 3
#     Node 30, Type 0, BuildingBlock: WUSLED_clean_sbu_0, # of connection points: 3
#     Node 31, Type 0, BuildingBlock: WUSLED_clean_sbu_0, # of connection points: 3
#     Edge 32, Type (0, 0), BuildingBlock: KIFKEQ_clean_linker_1, # of connection points: 2
#     Edge 33, Type (0, 0), BuildingBlock: KIFKEQ_clean_linker_1, # of connection points: 2
#     Edge 34, Type (0, 0), BuildingBlock: KIFKEQ_clean_linker_1, # of connection points: 2
#     Edge 35, Type (0, 0), BuildingBlock: KIFKEQ_clean_linker_1, # of connection points: 2
#     Edge 36, Type (0, 0), BuildingBlock: KIFKEQ_clean_linker_1, # of connection points: 2
#     Edge 37, Type (0, 0), BuildingBlock: KIFKEQ_clean_linker_1, # of connection points: 2
#     Edge 38, Type (0, 0), BuildingBlock: KIFKEQ_clean_linker_1, # of connection points: 2
#     Edge 39, Type (0, 0), BuildingBlock: KIFKEQ_clean_linker_1, # of connection points: 2
#     Edge 40, Type (0, 0), BuildingBlock: KIFKEQ_clean_linker_1, # of connection points: 2
#     Edge 41, Type (0, 0), BuildingBlock: KIFKEQ_clean_linker_1, # of connection points: 2
#     Edge 42, Type (0, 0), BuildingBlock: KIFKEQ_clean_linker_1, # of connection points: 2
#     Edge 43, Type (0, 0), BuildingBlock: KIFKEQ_clean_linker_1, # of connection points: 2
#     Edge 44, Type (0, 0), BuildingBlock: KIFKEQ_clean_linker_1, # of connection points: 2
#     Edge 45, Type (0, 0), BuildingBlock: KIFKEQ_clean_linker_1, # of connection points: 2
#     Edge 46, Type (0, 0), BuildingBlock: KIFKEQ_clean_linker_1, # of connection points: 2
#     Edge 47, Type (0, 0), BuildingBlock: KIFKEQ_clean_linker_1, # of connection points: 2
#     Edge 48, Type (0, 0), BuildingBlock: KIFKEQ_clean_linker_1, # of connection points: 2
#     Edge 49, Type (0, 0), BuildingBlock: KIFKEQ_clean_linker_1, # of connection points: 2
#     Edge 50, Type (0, 0), BuildingBlock: KIFKEQ_clean_linker_1, # of connection points: 2
#     Edge 51, Type (0, 0), BuildingBlock: KIFKEQ_clean_linker_1, # of connection points: 2
#     Edge 52, Type (0, 0), BuildingBlock: KIFKEQ_clean_linker_1, # of connection points: 2
#     Edge 53, Type (0, 0), BuildingBlock: KIFKEQ_clean_linker_1, # of connection points: 2
#     Edge 54, Type (0, 0), BuildingBlock: KIFKEQ_clean_linker_1, # of connection points: 2
#     Edge 55, Type (0, 0), BuildingBlock: KIFKEQ_clean_linker_1, # of connection points: 2
#     Edge 56, Type (0, 0), BuildingBlock: KIFKEQ_clean_linker_1, # of connection points: 2
#     Edge 57, Type (0, 0), BuildingBlock: KIFKEQ_clean_linker_1, # of connection points: 2
#     Edge 58, Type (0, 0), BuildingBlock: KIFKEQ_clean_linker_1, # of connection points: 2
#     Edge 59, Type (0, 0), BuildingBlock: KIFKEQ_clean_linker_1, # of connection points: 2
#     Edge 60, Type (0, 0), BuildingBlock: KIFKEQ_clean_linker_1, # of connection points: 2
#     Edge 61, Type (0, 0), BuildingBlock: KIFKEQ_clean_linker_1, # of connection points: 2
#     Edge 62, Type (0, 0), BuildingBlock: KIFKEQ_clean_linker_1, # of connection points: 2
#     Edge 63, Type (0, 0), BuildingBlock: KIFKEQ_clean_linker_1, # of connection points: 2
#     Edge 64, Type (0, 0), BuildingBlock: KIFKEQ_clean_linker_1, # of connection points: 2
#     Edge 65, Type (0, 0), BuildingBlock: KIFKEQ_clean_linker_1, # of connection points: 2
#     Edge 66, Type (0, 0), BuildingBlock: KIFKEQ_clean_linker_1, # of connection points: 2
#     Edge 67, Type (0, 0), BuildingBlock: KIFKEQ_clean_linker_1, # of connection points: 2
#     Edge 68, Type (0, 0), BuildingBlock: KIFKEQ_clean_linker_1, # of connection points: 2
#     Edge 69, Type (0, 0), BuildingBlock: KIFKEQ_clean_linker_1, # of connection points: 2
#     Edge 70, Type (0, 0), BuildingBlock: KIFKEQ_clean_linker_1, # of connection points: 2
#     Edge 71, Type (0, 0), BuildingBlock: KIFKEQ_clean_linker_1, # of connection points: 2
#     Edge 72, Type (0, 0), BuildingBlock: KIFKEQ_clean_linker_1, # of connection points: 2
#     Edge 73, Type (0, 0), BuildingBlock: KIFKEQ_clean_linker_1, # of connection points: 2
#     Edge 74, Type (0, 0), BuildingBlock: KIFKEQ_clean_linker_1, # of connection points: 2
#     Edge 75, Type (0, 0), BuildingBlock: KIFKEQ_clean_linker_1, # of connection points: 2
#     Edge 76, Type (0, 0), BuildingBlock: KIFKEQ_clean_linker_1, # of connection points: 2
#     Edge 77, Type (0, 0), BuildingBlock: KIFKEQ_clean_linker_1, # of connection points: 2
#     Edge 78, Type (0, 0), BuildingBlock: KIFKEQ_clean_linker_1, # of connection points: 2
#     Edge 79, Type (0, 0), BuildingBlock: KIFKEQ_clean_linker_1, # of connection points: 2
# Relax obj value: 0.111
# Max RMSD: 0.100
# Mean RMSD: 0.094
data_MOF--net-lvt-a--node1-WUSLED_clean_sbu_0--edge1-KIFKEQ_clean_linker_1
_symmetry_space_group_name_H-M    P1
_symmetry_Int_Tables_number       1
_symmetry_cell_setting            triclinic
loop_
_symmetry_equiv_pos_as_xyz
'x, y, z'
_cell_length_a     91.554161
_cell_length_b     95.416695
_cell_length_c     156.35387
_cell_angle_alpha  90.000568
_cell_angle_beta   89.987741
_cell_angle_gamma 89.991998
loop_
_atom_site_label
_atom_site_type_symbol
_atom_site_fract_x
_atom_site_fract_y
_atom_site_fract_z
_atom_type_partial_charge
C0 C 0.15009 0.50986 0.05392 0.0
C1 C 0.13857 0.50376 0.04934 0.0
C2 C 0.15241 0.50582 0.0361 0.0
C3 C 0.13972 0.50173 0.04053 0.0
C4 C 0.16406 0.5117 0.04076 0.0
C5 C 0.16288 0.51373 0.0496 0.0
U6 U 0.12558 0.51069 0.07317 0.0
O7 O 0.12912 0.50522 0.08669 0.0
O8 O 0.12234 0.52654 0.08319 0.0
C9 C 0.12659 0.51808 0.08933 0.0
C10 C 0.14838 0.51277 0.0631 0.0
C11 C 0.13735 0.52395 0.0953 0.0
C12 C 0.16111 0.53416 0.09828 0.0
C13 C 0.15131 0.52796 0.09254 0.0
C14 C 0.14314 0.53216 0.10959 0.0
C15 C 0.15709 0.53643 0.10686 0.0
C16 C 0.13338 0.52598 0.10386 0.0
C17 C 0.08585 0.49937 0.06958 0.0
C18 C 0.06477 0.50661 0.07794 0.0
C19 C 0.06259 0.48752 0.0678 0.0
C20 C 0.07734 0.48899 0.06568 0.0
C21 C 0.05607 0.4965 0.07383 0.0
C22 C 0.07956 0.508 0.07586 0.0
C23 C 0.10096 0.50154 0.06665 0.0
O24 O 0.13972 0.52338 0.06485 0.0
O25 O 0.14585 0.50174 0.06792 0.0
O26 O 0.11087 0.49316 0.06995 0.0
O27 O 0.10525 0.51466 0.06616 0.0
H28 H 0.12859 0.50072 0.05258 0.0
H29 H 0.13064 0.49696 0.03717 0.0
H30 H 0.17392 0.51506 0.03753 0.0
H31 H 0.17185 0.51854 0.05305 0.0
H32 H 0.17182 0.5372 0.09599 0.0
H33 H 0.15455 0.52643 0.08594 0.0
H34 H 0.13959 0.53394 0.11611 0.0
H35 H 0.1226 0.52299 0.10608 0.0
H36 H 0.06009 0.51357 0.08267 0.0
H37 H 0.05615 0.47973 0.06446 0.0
H38 H 0.08201 0.48224 0.06082 0.0
H39 H 0.08599 0.51603 0.079 0.0
C40 C 0.73858 0.88392 0.30318 0.0
C41 C 0.74518 0.87283 0.29874 0.0
C42 C 0.74375 0.88603 0.28543 0.0
C43 C 0.74776 0.87387 0.28996 0.0
C44 C 0.73741 0.89725 0.28996 0.0
C45 C 0.73481 0.89618 0.29876 0.0
U46 U 0.73706 0.86054 0.32246 0.0
O47 O 0.74164 0.86401 0.3361 0.0
O48 O 0.71989 0.85692 0.33205 0.0
C49 C 0.72817 0.86107 0.33843 0.0
C50 C 0.73498 0.88231 0.3123 0.0
C51 C 0.72128 0.87077 0.34452 0.0
C52 C 0.71473 0.89421 0.34926 0.0
C53 C 0.72154 0.88534 0.34332 0.0
C54 C 0.70736 0.87399 0.35759 0.0
C55 C 0.70748 0.88861 0.35643 0.0
C56 C 0.7142 0.86518 0.35169 0.0
C57 C 0.75009 0.82275 0.31915 0.0
C58 C 0.74269 0.80256 0.32758 0.0
C59 C 0.76266 0.80052 0.31748 0.0
C60 C 0.76101 0.81463 0.3153 0.0
C61 C 0.75334 0.79426 0.32352 0.0
C62 C 0.74112 0.81672 0.32544 0.0
C63 C 0.74769 0.83718 0.31616 0.0
O64 O 0.72404 0.87377 0.31383 0.0
O65 O 0.7462 0.88021 0.31739 0.0
O66 O 0.75591 0.84688 0.31968 0.0
O67 O 0.73397 0.84097 0.31533 0.0
H68 H 0.74814 0.86327 0.30205 0.0
H69 H 0.75286 0.86513 0.2867 0.0
H70 H 0.73408 0.9067 0.28665 0.0
H71 H 0.72962 0.90481 0.30209 0.0
H72 H 0.7149 0.90542 0.34816 0.0
H73 H 0.72692 0.88984 0.33779 0.0
H74 H 0.70207 0.86935 0.3631 0.0
H75 H 0.71393 0.85395 0.35273 0.0
H76 H 0.73546 0.79806 0.33233 0.0
H77 H 0.77085 0.79437 0.31417 0.0
H78 H 0.76802 0.81912 0.31043 0.0
H79 H 0.73268 0.82285 0.32853 0.0
C80 C 0.3492 0.49204 0.55297 0.0
C81 C 0.36028 0.49849 0.54819 0.0
C82 C 0.34551 0.49673 0.53528 0.0
C83 C 0.35845 0.50082 0.53944 0.0
C84 C 0.3344 0.49029 0.54012 0.0
C85 C 0.33624 0.48797 0.54891 0.0
U86 U 0.37496 0.49208 0.57157 0.0
O87 O 0.37233 0.49788 0.58512 0.0
O88 O 0.37942 0.47663 0.58165 0.0
C89 C 0.37542 0.48518 0.58782 0.0
C90 C 0.35153 0.48917 0.56211 0.0
C91 C 0.36534 0.47925 0.59418 0.0
C92 C 0.34331 0.46643 0.5979 0.0
C93 C 0.35231 0.47265 0.59173 0.0
C94 C 0.36014 0.47368 0.60901 0.0
C95 C 0.34723 0.46673 0.60661 0.0
C96 C 0.36911 0.47987 0.60285 0.0
C97 C 0.41393 0.50466 0.56653 0.0
C98 C 0.43594 0.49907 0.57452 0.0
C99 C 0.43675 0.51634 0.56317 0.0
C100 C 0.42184 0.51443 0.56172 0.0
C101 C 0.44406 0.50845 0.56946 0.0
C102 C 0.42098 0.49719 0.57307 0.0
C103 C 0.39865 0.50182 0.56423 0.0
O104 O 0.36063 0.47884 0.56369 0.0
O105 O 0.354 0.5003 0.56685 0.0
O106 O 0.38877 0.50996 0.56776 0.0
O107 O 0.39487 0.48854 0.56407 0.0
H108 H 0.37043 0.50157 0.55121 0.0
H109 H 0.36733 0.50557 0.5359 0.0
H110 H 0.32426 0.48711 0.53713 0.0
H111 H 0.3276 0.48294 0.55251 0.0
H112 H 0.33351 0.46107 0.59583 0.0
H113 H 0.34923 0.47211 0.58505 0.0
H114 H 0.36336 0.47432 0.61567 0.0
H115 H 0.3791 0.48499 0.60485 0.0
H116 H 0.44125 0.49276 0.57937 0.0
H117 H 0.44262 0.52384 0.55927 0.0
H118 H 0.41655 0.52034 0.55667 0.0
H119 H 0.41502 0.48962 0.57688 0.0
C120 C 0.76379 0.11429 0.80307 0.0
C121 C 0.75742 0.12542 0.79856 0.0
C122 C 0.75799 0.11177 0.7854 0.0
C123 C 0.75454 0.12418 0.78982 0.0
C124 C 0.76441 0.10062 0.78995 0.0
C125 C 0.76727 0.10187 0.79873 0.0
U126 U 0.76474 0.13791 0.82216 0.0
O127 O 0.75876 0.13489 0.83568 0.0
O128 O 0.78106 0.14124 0.83227 0.0
C129 C 0.77208 0.13742 0.8384 0.0
C130 C 0.76709 0.11591 0.81222 0.0
C131 C 0.77797 0.1274 0.84465 0.0
C132 C 0.78914 0.10505 0.84824 0.0
C133 C 0.78318 0.1142 0.84215 0.0
C134 C 0.78451 0.12218 0.85936 0.0
C135 C 0.78992 0.10897 0.85692 0.0
C136 C 0.7786 0.13129 0.85328 0.0
C137 C 0.75202 0.17577 0.81777 0.0
C138 C 0.75853 0.19699 0.82549 0.0
C139 C 0.73903 0.19748 0.81502 0.0
C140 C 0.74108 0.18321 0.81346 0.0
C141 C 0.74795 0.20462 0.82091 0.0
C142 C 0.76055 0.18266 0.82394 0.0
C143 C 0.75489 0.16116 0.81529 0.0
O144 O 0.77808 0.12432 0.8139 0.0
O145 O 0.75566 0.11822 0.81712 0.0
O146 O 0.74629 0.15162 0.81867 0.0
O147 O 0.76869 0.15738 0.81506 0.0
H148 H 0.75477 0.13514 0.80179 0.0
H149 H 0.74985 0.13307 0.7865 0.0
H150 H 0.7671 0.09089 0.78676 0.0
H151 H 0.77223 0.09318 0.80212 0.0
H152 H 0.79306 0.0949 0.84616 0.0
H153 H 0.78272 0.11102 0.83551 0.0
H154 H 0.78515 0.12564 0.86594 0.0
H155 H 0.77467 0.14147 0.85531 0.0
H156 H 0.76564 0.20218 0.83003 0.0
H157 H 0.7306 0.20297 0.81151 0.0
H158 H 0.73435 0.17804 0.80872 0.0
H159 H 0.76903 0.17708 0.82737 0.0
C160 C 0.15146 0.49047 0.95391 0.0
C161 C 0.13952 0.49558 0.95858 0.0
C162 C 0.15342 0.49376 0.9718 0.0
C163 C 0.14049 0.49724 0.96743 0.0
C164 C 0.16548 0.48888 0.96707 0.0
C165 C 0.16448 0.48721 0.95818 0.0
U166 U 0.12648 0.48901 0.93506 0.0
O167 O 0.12873 0.49569 0.92162 0.0
O168 O 0.12374 0.47374 0.92469 0.0
C169 C 0.12692 0.48289 0.91869 0.0
C170 C 0.14989 0.48795 0.94468 0.0
C171 C 0.13745 0.47814 0.91221 0.0
C172 C 0.15965 0.46582 0.90818 0.0
C173 C 0.15048 0.47136 0.9145 0.0
C174 C 0.14308 0.47423 0.89723 0.0
C175 C 0.15591 0.46697 0.89946 0.0
C176 C 0.13395 0.47973 0.90355 0.0
C177 C 0.08624 0.49695 0.94009 0.0
C178 C 0.06698 0.50095 0.92966 0.0
C179 C 0.06082 0.49522 0.94433 0.0
C180 C 0.07564 0.49454 0.94637 0.0
C181 C 0.05632 0.49836 0.93595 0.0
C182 C 0.08186 0.50016 0.93171 0.0
C183 C 0.10171 0.4957 0.94245 0.0
O184 O 0.1421 0.47683 0.94274 0.0
O185 O 0.14632 0.49904 0.94014 0.0
O186 O 0.11068 0.50503 0.93917 0.0
O187 O 0.10697 0.4829 0.94235 0.0
H188 H 0.12936 0.49813 0.95539 0.0
H189 H 0.13109 0.50125 0.97085 0.0
H190 H 0.17555 0.48602 0.97026 0.0
H191 H 0.17377 0.48317 0.95466 0.0
H192 H 0.16938 0.46021 0.91012 0.0
H193 H 0.15336 0.47004 0.92117 0.0
H194 H 0.14002 0.47553 0.89059 0.0
H195 H 0.12395 0.48498 0.90167 0.0
H196 H 0.06382 0.50331 0.92315 0.0
H197 H 0.05287 0.49337 0.94934 0.0
H198 H 0.07883 0.49205 0.95287 0.0
H199 H 0.08991 0.50195 0.92675 0.0
C200 C 0.76496 0.88389 0.20365 0.0
C201 C 0.75907 0.87262 0.20826 0.0
C202 C 0.75937 0.88647 0.22134 0.0
C203 C 0.7563 0.87388 0.217 0.0
C204 C 0.76531 0.89776 0.21669 0.0
C205 C 0.76806 0.89647 0.2079 0.0
U206 U 0.76597 0.86026 0.18452 0.0
O207 O 0.75959 0.86324 0.17107 0.0
O208 O 0.7821 0.8573 0.17427 0.0
C209 C 0.7729 0.861 0.16823 0.0
C210 C 0.76806 0.88229 0.19447 0.0
C211 C 0.77846 0.87118 0.16197 0.0
C212 C 0.78939 0.89366 0.15843 0.0
C213 C 0.78361 0.88439 0.1645 0.0
C214 C 0.78467 0.87666 0.14725 0.0
C215 C 0.79007 0.88986 0.14973 0.0
C216 C 0.77894 0.86743 0.15332 0.0
C217 C 0.75433 0.82221 0.18887 0.0
C218 C 0.75492 0.80359 0.17828 0.0
C219 C 0.74781 0.79848 0.19288 0.0
C220 C 0.74973 0.81255 0.19504 0.0
C221 C 0.75044 0.79379 0.18449 0.0
C222 C 0.75685 0.81771 0.18046 0.0
C223 C 0.75688 0.83678 0.19147 0.0
O224 O 0.77919 0.87409 0.1927 0.0
O225 O 0.75657 0.87975 0.18967 0.0
O226 O 0.748 0.84617 0.18819 0.0
O227 O 0.7706 0.84079 0.19151 0.0
H228 H 0.75671 0.86277 0.20508 0.0
H229 H 0.75198 0.8649 0.2204 0.0
H230 H 0.76769 0.90762 0.21981 0.0
H231 H 0.77263 0.90527 0.20444 0.0
H232 H 0.7933 0.90379 0.16054 0.0
H233 H 0.78328 0.88747 0.17117 0.0
H234 H 0.78521 0.8733 0.14064 0.0
H235 H 0.77504 0.85725 0.15126 0.0
H236 H 0.75692 0.80035 0.17174 0.0
H237 H 0.74463 0.79121 0.19786 0.0
H238 H 0.74782 0.81585 0.20158 0.0
H239 H 0.76043 0.82508 0.17562 0.0
C240 C 0.34881 0.51029 0.45311 0.0
C241 C 0.36048 0.50502 0.45794 0.0
C242 C 0.34608 0.50712 0.47097 0.0
C243 C 0.35913 0.50344 0.46678 0.0
C244 C 0.33428 0.51213 0.46606 0.0
C245 C 0.33567 0.51374 0.45719 0.0
U246 U 0.37372 0.50957 0.43409 0.0
O247 O 0.37044 0.50346 0.42065 0.0
O248 O 0.3777 0.52477 0.42381 0.0
C249 C 0.37335 0.51611 0.41779 0.0
C250 C 0.3507 0.51271 0.44389 0.0
C251 C 0.36284 0.52193 0.41164 0.0
C252 C 0.33982 0.53342 0.40841 0.0
C253 C 0.34934 0.52731 0.41434 0.0
C254 C 0.35709 0.52857 0.39704 0.0
C255 C 0.34363 0.53422 0.39969 0.0
C256 C 0.3666 0.52249 0.40297 0.0
C257 C 0.41299 0.49729 0.43875 0.0
C258 C 0.43489 0.50297 0.43067 0.0
C259 C 0.43584 0.48551 0.44191 0.0
C260 C 0.42095 0.48743 0.44346 0.0
C261 C 0.44307 0.49349 0.43564 0.0
C262 C 0.41996 0.50485 0.43221 0.0
C263 C 0.39777 0.50015 0.44118 0.0
O264 O 0.35964 0.52303 0.44199 0.0
O265 O 0.35306 0.50138 0.4393 0.0
O266 O 0.3878 0.49187 0.43787 0.0
O267 O 0.39392 0.51342 0.44125 0.0
H268 H 0.37071 0.50229 0.45488 0.0
H269 H 0.36833 0.49935 0.47035 0.0
H270 H 0.32413 0.51516 0.46911 0.0
H271 H 0.32657 0.51788 0.45355 0.0
H272 H 0.32947 0.53753 0.41064 0.0
H273 H 0.34627 0.52691 0.42102 0.0
H274 H 0.36048 0.52918 0.39041 0.0
H275 H 0.37701 0.51843 0.40079 0.0
H276 H 0.44014 0.50934 0.42583 0.0
H277 H 0.44175 0.47793 0.44574 0.0
H278 H 0.41573 0.48145 0.4485 0.0
H279 H 0.41396 0.5125 0.42848 0.0
C280 C 0.73721 0.1163 0.70362 0.0
C281 C 0.74347 0.12737 0.70825 0.0
C282 C 0.7422 0.11365 0.72136 0.0
C283 C 0.74595 0.12606 0.71702 0.0
C284 C 0.73619 0.10246 0.71665 0.0
C285 C 0.73369 0.1038 0.70785 0.0
U286 U 0.73612 0.14027 0.68464 0.0
O287 O 0.74114 0.1373 0.671 0.0
O288 O 0.71924 0.14418 0.67492 0.0
C289 C 0.72771 0.14019 0.66858 0.0
C290 C 0.73381 0.11815 0.6945 0.0
C291 C 0.721 0.13056 0.66237 0.0
C292 C 0.71574 0.10713 0.65707 0.0
C293 C 0.72238 0.11595 0.6631 0.0
C294 C 0.70627 0.12745 0.64961 0.0
C295 C 0.70753 0.1128 0.65028 0.0
C296 C 0.71295 0.13622 0.65559 0.0
C297 C 0.74911 0.17789 0.68884 0.0
C298 C 0.74818 0.1965 0.67825 0.0
C299 C 0.75573 0.20163 0.69278 0.0
C300 C 0.75391 0.18755 0.69496 0.0
C301 C 0.75281 0.20632 0.68441 0.0
C302 C 0.74633 0.18238 0.68046 0.0
C303 C 0.74649 0.16335 0.69148 0.0
O304 O 0.72289 0.12672 0.69297 0.0
O305 O 0.74515 0.12043 0.68952 0.0
O306 O 0.7548 0.15379 0.68787 0.0
O307 O 0.73269 0.15966 0.69194 0.0
H308 H 0.74626 0.13711 0.70508 0.0
H309 H 0.75079 0.13479 0.72042 0.0
H310 H 0.73307 0.09282 0.71981 0.0
H311 H 0.72878 0.09518 0.70437 0.0
H312 H 0.71681 0.09589 0.6578 0.0
H313 H 0.72851 0.11138 0.66833 0.0
H314 H 0.7002 0.13216 0.6444 0.0
H315 H 0.7118 0.14747 0.65492 0.0
H316 H 0.74595 0.19973 0.67174 0.0
H317 H 0.75904 0.2089 0.69773 0.0
H318 H 0.756 0.18425 0.70147 0.0
H319 H 0.74258 0.17501 0.67566 0.0
C320 C 0.85261 0.49372 0.9517 0.0
C321 C 0.86437 0.4991 0.95642 0.0
C322 C 0.85021 0.49729 0.96955 0.0
C323 C 0.86318 0.50089 0.96526 0.0
C324 C 0.83833 0.49217 0.96476 0.0
C325 C 0.83955 0.49036 0.9559 0.0
U326 U 0.87745 0.49286 0.93265 0.0
O327 O 0.88073 0.47721 0.92255 0.0
O328 O 0.87436 0.4987 0.91913 0.0
C329 C 0.87677 0.48586 0.91642 0.0
C330 C 0.85436 0.49101 0.94251 0.0
C331 C 0.8662 0.48026 0.91024 0.0
C332 C 0.84422 0.4671 0.90688 0.0
C333 C 0.85351 0.47327 0.91291 0.0
C334 C 0.85998 0.47526 0.89546 0.0
C335 C 0.84747 0.46783 0.89808 0.0
C336 C 0.86925 0.48138 0.90149 0.0
C337 C 0.91726 0.50311 0.93677 0.0
C338 C 0.93744 0.49712 0.92736 0.0
C339 C 0.94167 0.51162 0.93984 0.0
C340 C 0.92683 0.51089 0.94189 0.0
C341 C 0.9472 0.50452 0.93265 0.0
C342 C 0.92257 0.49644 0.9294 0.0
C343 C 0.90205 0.50132 0.93954 0.0
O344 O 0.85725 0.50211 0.93781 0.0
O345 O 0.86278 0.48026 0.9407 0.0
O346 O 0.89745 0.48829 0.93985 0.0
O347 O 0.89248 0.50997 0.93616 0.0
H348 H 0.87456 0.50174 0.95328 0.0
H349 H 0.87244 0.50506 0.96873 0.0
H350 H 0.82824 0.48919 0.96789 0.0
H351 H 0.8304 0.48612 0.95235 0.0
H352 H 0.83475 0.46137 0.90912 0.0
H353 H 0.85099 0.47231 0.91965 0.0
H354 H 0.86267 0.47624 0.88875 0.0
H355 H 0.87897 0.48681 0.89931 0.0
H356 H 0.94134 0.49166 0.92173 0.0
H357 H 0.94889 0.51726 0.94411 0.0
H358 H 0.92291 0.51607 0.94761 0.0
H359 H 0.91529 0.49042 0.92535 0.0
C360 C 0.26868 0.1175 0.70385 0.0
C361 C 0.27158 0.1288 0.70935 0.0
C362 C 0.26425 0.11484 0.72165 0.0
C363 C 0.26948 0.12745 0.71816 0.0
C364 C 0.26123 0.10356 0.71612 0.0
C365 C 0.26348 0.10488 0.70729 0.0
U366 U 0.26766 0.14105 0.6846 0.0
O367 O 0.28262 0.14389 0.67376 0.0
O368 O 0.2598 0.13791 0.67141 0.0
C369 C 0.27279 0.14012 0.66808 0.0
C370 C 0.27049 0.1191 0.69453 0.0
C371 C 0.27775 0.12995 0.66164 0.0
C372 C 0.29086 0.10877 0.65763 0.0
C373 C 0.2852 0.11767 0.66395 0.0
C374 C 0.28126 0.12415 0.64666 0.0
C375 C 0.28916 0.11205 0.6489 0.0
C376 C 0.27564 0.13301 0.65296 0.0
C377 C 0.25719 0.17932 0.68929 0.0
C378 C 0.25733 0.19798 0.67872 0.0
C379 C 0.25074 0.20301 0.69342 0.0
C380 C 0.2528 0.18894 0.69553 0.0
C381 C 0.25303 0.20774 0.685 0.0
C382 C 0.25939 0.18386 0.68085 0.0
C383 C 0.25979 0.16472 0.69182 0.0
O384 O 0.25842 0.12185 0.69029 0.0
O385 O 0.28159 0.12692 0.69212 0.0
O386 O 0.27342 0.16048 0.69135 0.0
O387 O 0.2504 0.15547 0.68891 0.0
H388 H 0.27536 0.13874 0.70683 0.0
H389 H 0.27167 0.1364 0.72223 0.0
H390 H 0.25723 0.0937 0.71864 0.0
H391 H 0.26107 0.09608 0.70315 0.0
H392 H 0.29697 0.0996 0.65959 0.0
H393 H 0.28693 0.11514 0.67063 0.0
H394 H 0.27953 0.12686 0.64001 0.0
H395 H 0.26987 0.14243 0.65106 0.0
H396 H 0.25907 0.20126 0.67217 0.0
H397 H 0.2477 0.21025 0.69845 0.0
H398 H 0.25113 0.1856 0.70208 0.0
H399 H 0.26279 0.17651 0.67596 0.0
C400 C 0.64781 0.51188 0.45195 0.0
C401 C 0.63694 0.50468 0.4565 0.0
C402 C 0.65095 0.50707 0.46966 0.0
C403 C 0.63851 0.50226 0.46526 0.0
C404 C 0.66186 0.51421 0.46504 0.0
C405 C 0.66029 0.51659 0.45625 0.0
U406 U 0.62284 0.51302 0.43284 0.0
O407 O 0.6195 0.52903 0.42294 0.0
O408 O 0.62624 0.50778 0.41928 0.0
C409 C 0.62371 0.52068 0.41672 0.0
C410 C 0.64577 0.515 0.44282 0.0
C411 C 0.63446 0.52663 0.41078 0.0
C412 C 0.65838 0.53651 0.40779 0.0
C413 C 0.64853 0.53033 0.41351 0.0
C414 C 0.64022 0.53514 0.39654 0.0
C415 C 0.6543 0.53908 0.39924 0.0
C416 C 0.63041 0.52898 0.40226 0.0
C417 C 0.58305 0.5012 0.43661 0.0
C418 C 0.55895 0.51002 0.43283 0.0
C419 C 0.56253 0.48517 0.43516 0.0
C420 C 0.57732 0.48756 0.43682 0.0
C421 C 0.55308 0.49641 0.43333 0.0
C422 C 0.57376 0.51239 0.43444 0.0
C423 C 0.59831 0.50363 0.43936 0.0
O424 O 0.64324 0.50408 0.43791 0.0
O425 O 0.63698 0.52558 0.44124 0.0
O426 O 0.60255 0.51675 0.43995 0.0
O427 O 0.6083 0.49535 0.43604 0.0
H428 H 0.62714 0.5011 0.45328 0.0
H429 H 0.6298 0.49693 0.46864 0.0
H430 H 0.67162 0.51793 0.46822 0.0
H431 H 0.66876 0.52221 0.45284 0.0
H432 H 0.66918 0.53928 0.41005 0.0
H433 H 0.65183 0.52855 0.42008 0.0
H434 H 0.63662 0.53715 0.39006 0.0
H435 H 0.61956 0.52623 0.40006 0.0
H436 H 0.552 0.51896 0.43155 0.0
H437 H 0.55844 0.47454 0.43547 0.0
H438 H 0.58423 0.47875 0.43849 0.0
H439 H 0.57779 0.52305 0.43424 0.0
C440 C 0.2373 0.88337 0.20451 0.0
C441 C 0.24446 0.87253 0.2089 0.0
C442 C 0.24256 0.88556 0.22225 0.0
C443 C 0.2471 0.87363 0.21768 0.0
C444 C 0.23538 0.8964 0.21782 0.0
C445 C 0.23278 0.8953 0.20901 0.0
U446 U 0.23585 0.86046 0.18494 0.0
O447 O 0.21961 0.85831 0.17469 0.0
O448 O 0.24218 0.8642 0.17152 0.0
C449 C 0.22878 0.86238 0.1687 0.0
C450 C 0.23419 0.88198 0.19532 0.0
C451 C 0.22336 0.87279 0.16248 0.0
C452 C 0.20512 0.88961 0.15768 0.0
C453 C 0.2109 0.881 0.16409 0.0
C454 C 0.22448 0.8824 0.14809 0.0
C455 C 0.21168 0.89021 0.14954 0.0
C456 C 0.23021 0.87376 0.15448 0.0
C457 C 0.2469 0.82171 0.18823 0.0
C458 C 0.2374 0.7985 0.1849 0.0
C459 C 0.2635 0.80211 0.18602 0.0
C460 C 0.26114 0.81629 0.18779 0.0
C461 C 0.25164 0.79297 0.18474 0.0
C462 C 0.23505 0.8127 0.18663 0.0
C463 C 0.24458 0.83631 0.19115 0.0
O464 O 0.24562 0.87947 0.19047 0.0
O465 O 0.22293 0.87399 0.19347 0.0
O466 O 0.23099 0.84072 0.19155 0.0
O467 O 0.25364 0.84583 0.18817 0.0
H468 H 0.24789 0.86316 0.20554 0.0
H469 H 0.25245 0.86501 0.22092 0.0
H470 H 0.23185 0.90577 0.22114 0.0
H471 H 0.2272 0.90375 0.20573 0.0
H472 H 0.19519 0.89538 0.159 0.0
H473 H 0.20539 0.88047 0.17021 0.0
H474 H 0.22997 0.8828 0.14196 0.0
H475 H 0.23983 0.86755 0.15309 0.0
H476 H 0.228 0.79176 0.18406 0.0
H477 H 0.27462 0.79825 0.18583 0.0
H478 H 0.27048 0.82296 0.18905 0.0
H479 H 0.22391 0.81647 0.18697 0.0
C480 C 0.85315 0.5131 0.05157 0.0
C481 C 0.86448 0.50694 0.04685 0.0
C482 C 0.84996 0.50849 0.03384 0.0
C483 C 0.86291 0.50464 0.03808 0.0
C484 C 0.8386 0.51467 0.03861 0.0
C485 C 0.84019 0.51694 0.04741 0.0
U486 U 0.8779 0.51267 0.0707 0.0
O487 O 0.88172 0.52788 0.08099 0.0
O488 O 0.87424 0.50662 0.08414 0.0
C489 C 0.87693 0.51934 0.08697 0.0
C490 C 0.85508 0.51578 0.06075 0.0
C491 C 0.86624 0.52517 0.0931 0.0
C492 C 0.8499 0.54378 0.09777 0.0
C493 C 0.85909 0.53797 0.09157 0.0
C494 C 0.85443 0.5239 0.10701 0.0
C495 C 0.84758 0.5369 0.10562 0.0
C496 C 0.8637 0.51814 0.10084 0.0
C497 C 0.91714 0.50025 0.06654 0.0
C498 C 0.9363 0.5004 0.0773 0.0
C499 C 0.94192 0.49391 0.06267 0.0
C500 C 0.92732 0.49589 0.06042 0.0
C501 C 0.94663 0.49623 0.07112 0.0
C502 C 0.92165 0.5024 0.07502 0.0
C503 C 0.90209 0.5031 0.06384 0.0
O504 O 0.85728 0.50454 0.06545 0.0
O505 O 0.86412 0.52605 0.06256 0.0
O506 O 0.89837 0.51639 0.06374 0.0
O507 O 0.89196 0.49491 0.06708 0.0
H508 H 0.87462 0.50401 0.04995 0.0
H509 H 0.87196 0.50009 0.03459 0.0
H510 H 0.82845 0.51764 0.03555 0.0
H511 H 0.83134 0.52174 0.05097 0.0
H512 H 0.84498 0.55389 0.0965 0.0
H513 H 0.86081 0.54365 0.08565 0.0
H514 H 0.85271 0.51817 0.11291 0.0
H515 H 0.86908 0.50826 0.10216 0.0
H516 H 0.93953 0.50216 0.08387 0.0
H517 H 0.94959 0.49096 0.05772 0.0
H518 H 0.92402 0.49428 0.05384 0.0
H519 H 0.91389 0.5058 0.07982 0.0
C520 C 0.23624 0.11841 0.80279 0.0
C521 C 0.23567 0.13026 0.79748 0.0
C522 C 0.24285 0.11616 0.78518 0.0
C523 C 0.23885 0.12914 0.78877 0.0
C524 C 0.24339 0.10429 0.79054 0.0
C525 C 0.24011 0.10542 0.79927 0.0
U526 U 0.23435 0.14144 0.82226 0.0
O527 O 0.21803 0.1435 0.83249 0.0
O528 O 0.24069 0.13809 0.83569 0.0
C529 C 0.2273 0.13988 0.83852 0.0
C530 C 0.23323 0.11974 0.81201 0.0
C531 C 0.22195 0.12942 0.84465 0.0
C532 C 0.21334 0.106 0.84811 0.0
C533 C 0.21907 0.11556 0.84219 0.0
C534 C 0.21352 0.12406 0.859 0.0
C535 C 0.21039 0.11018 0.85658 0.0
C536 C 0.21924 0.13357 0.85309 0.0
C537 C 0.24452 0.18034 0.8187 0.0
C538 C 0.23471 0.20366 0.82136 0.0
C539 C 0.26085 0.19993 0.82156 0.0
C540 C 0.25869 0.18572 0.81979 0.0
C541 C 0.2489 0.20913 0.82221 0.0
C542 C 0.23254 0.18945 0.81961 0.0
C543 C 0.24249 0.16565 0.81586 0.0
O544 O 0.24468 0.12261 0.81677 0.0
O545 O 0.22173 0.12735 0.81396 0.0
O546 O 0.229 0.16096 0.81551 0.0
O547 O 0.25177 0.15636 0.81887 0.0
H548 H 0.23278 0.14042 0.80008 0.0
H549 H 0.23807 0.13845 0.78484 0.0
H550 H 0.24661 0.09418 0.78803 0.0
H551 H 0.24072 0.09619 0.80328 0.0
H552 H 0.2112 0.09536 0.84605 0.0
H553 H 0.22112 0.11219 0.83568 0.0
H554 H 0.21116 0.12773 0.86541 0.0
H555 H 0.22133 0.14426 0.85509 0.0
H556 H 0.22525 0.21047 0.82168 0.0
H557 H 0.27192 0.20376 0.82228 0.0
H558 H 0.26815 0.179 0.81906 0.0
H559 H 0.22147 0.18572 0.81873 0.0
C560 C 0.64816 0.4891 0.55155 0.0
C561 C 0.63709 0.49603 0.54701 0.0
C562 C 0.65103 0.49374 0.53381 0.0
C563 C 0.63853 0.49836 0.53823 0.0
C564 C 0.66212 0.48684 0.53842 0.0
C565 C 0.66069 0.48455 0.54722 0.0
U566 U 0.62383 0.48851 0.57099 0.0
O567 O 0.62075 0.4728 0.58108 0.0
O568 O 0.6279 0.49407 0.58446 0.0
C569 C 0.62546 0.48122 0.58714 0.0
C570 C 0.64636 0.48618 0.56072 0.0
C571 C 0.63647 0.47532 0.59298 0.0
C572 C 0.65703 0.4599 0.59584 0.0
C573 C 0.64732 0.46609 0.59005 0.0
C574 C 0.64551 0.47249 0.60748 0.0
C575 C 0.65614 0.46292 0.60463 0.0
C576 C 0.63575 0.4786 0.60171 0.0
C577 C 0.58393 0.50043 0.56767 0.0
C578 C 0.55989 0.49177 0.57172 0.0
C579 C 0.56354 0.51657 0.56927 0.0
C580 C 0.57828 0.5141 0.56747 0.0
C581 C 0.55408 0.5054 0.57122 0.0
C582 C 0.57465 0.48931 0.56997 0.0
C583 C 0.59908 0.49788 0.56475 0.0
O584 O 0.64405 0.49724 0.56556 0.0
O585 O 0.63756 0.4757 0.56249 0.0
O586 O 0.60324 0.48472 0.5642 0.0
O587 O 0.60923 0.50618 0.56787 0.0
H588 H 0.62727 0.49949 0.55025 0.0
H589 H 0.62969 0.5035 0.53486 0.0
H590 H 0.67193 0.48327 0.53522 0.0
H591 H 0.66931 0.47915 0.55064 0.0
H592 H 0.66521 0.4527 0.59344 0.0
H593 H 0.64814 0.4635 0.58332 0.0
H594 H 0.64444 0.47493 0.61422 0.0
H595 H 0.62745 0.48569 0.60408 0.0
H596 H 0.55293 0.48288 0.57308 0.0
H597 H 0.55949 0.52723 0.56896 0.0
H598 H 0.58518 0.52285 0.5657 0.0
H599 H 0.57862 0.47863 0.57017 0.0
C600 C 0.26478 0.88272 0.30393 0.0
C601 C 0.25716 0.87217 0.29955 0.0
C602 C 0.25921 0.88531 0.28624 0.0
C603 C 0.25437 0.87347 0.2908 0.0
C604 C 0.26681 0.89588 0.29068 0.0
C605 C 0.26956 0.89459 0.29946 0.0
U606 U 0.2668 0.85917 0.32319 0.0
O607 O 0.28358 0.85658 0.33313 0.0
O608 O 0.26122 0.86243 0.33674 0.0
C609 C 0.2747 0.86033 0.33933 0.0
C610 C 0.26823 0.88103 0.31306 0.0
C611 C 0.28054 0.87067 0.3454 0.0
C612 C 0.28931 0.89404 0.34882 0.0
C613 C 0.28341 0.88453 0.34293 0.0
C614 C 0.28938 0.87592 0.35968 0.0
C615 C 0.29241 0.88983 0.35727 0.0
C616 C 0.2835 0.86645 0.3538 0.0
C617 C 0.25523 0.82065 0.31956 0.0
C618 C 0.26472 0.79745 0.3229 0.0
C619 C 0.23867 0.80092 0.32132 0.0
C620 C 0.24101 0.81515 0.3197 0.0
C621 C 0.25052 0.79182 0.32275 0.0
C622 C 0.26706 0.8117 0.32132 0.0
C623 C 0.25756 0.83533 0.3168 0.0
O624 O 0.25697 0.87845 0.31805 0.0
O625 O 0.27948 0.87289 0.31466 0.0
O626 O 0.27117 0.83964 0.31623 0.0
O627 O 0.24873 0.8448 0.32006 0.0
H628 H 0.25353 0.86285 0.30288 0.0
H629 H 0.24869 0.86504 0.28756 0.0
H630 H 0.27058 0.90518 0.28738 0.0
H631 H 0.2755 0.9028 0.30274 0.0
H632 H 0.29138 0.9047 0.34678 0.0
H633 H 0.28115 0.88796 0.33646 0.0
H634 H 0.29186 0.87222 0.36606 0.0
H635 H 0.2814 0.85576 0.35579 0.0
H636 H 0.27412 0.79075 0.32386 0.0
H637 H 0.22757 0.79699 0.32128 0.0
H638 H 0.23171 0.82179 0.31832 0.0
H639 H 0.27818 0.81556 0.32122 0.0
C640 C 0.65164 0.02071 0.55188 0.0
C641 C 0.63993 0.01407 0.54775 0.0
C642 C 0.65424 0.01208 0.53467 0.0
C643 C 0.64122 0.00977 0.53924 0.0
C644 C 0.66595 0.01878 0.53883 0.0
C645 C 0.66466 0.02304 0.54738 0.0
U646 U 0.62675 0.02738 0.57049 0.0
O647 O 0.62896 0.02349 0.58433 0.0
O648 O 0.6249 0.04483 0.57958 0.0
C649 C 0.62774 0.03686 0.58624 0.0
C650 C 0.65 0.02553 0.56076 0.0
C651 C 0.63821 0.04241 0.59256 0.0
C652 C 0.65775 0.05833 0.59667 0.0
C653 C 0.64909 0.05213 0.59033 0.0
C654 C 0.64518 0.04474 0.60749 0.0
C655 C 0.65568 0.05491 0.60535 0.0
C656 C 0.63653 0.03859 0.60116 0.0
C657 C 0.58626 0.01917 0.5667 0.0
C658 C 0.56644 0.02728 0.57578 0.0
C659 C 0.56144 0.01142 0.56403 0.0
C660 C 0.57628 0.01124 0.56196 0.0
C661 C 0.55631 0.0196 0.57089 0.0
C662 C 0.58132 0.02705 0.57371 0.0
C663 C 0.6016 0.0196 0.56397 0.0
O664 O 0.64246 0.03716 0.56166 0.0
O665 O 0.64621 0.01576 0.56626 0.0
O666 O 0.61049 0.0109 0.56789 0.0
O667 O 0.60714 0.0322 0.56296 0.0
H668 H 0.62973 0.01231 0.55109 0.0
H669 H 0.63191 0.00487 0.5362 0.0
H670 H 0.67615 0.02063 0.53551 0.0
H671 H 0.67379 0.02821 0.55046 0.0
H672 H 0.66567 0.06619 0.59481 0.0
H673 H 0.65061 0.05523 0.58372 0.0
H674 H 0.64348 0.04167 0.61408 0.0
H675 H 0.62824 0.03108 0.60302 0.0
H676 H 0.56285 0.03356 0.58115 0.0
H677 H 0.55393 0.00555 0.56006 0.0
H678 H 0.57992 0.00513 0.55651 0.0
H679 H 0.58892 0.0332 0.57747 0.0
C680 C 0.23793 0.40513 0.80217 0.0
C681 C 0.24385 0.39393 0.79751 0.0
C682 C 0.24156 0.40725 0.7843 0.0
C683 C 0.24567 0.39498 0.78867 0.0
C684 C 0.23587 0.41857 0.78903 0.0
C685 C 0.23403 0.41749 0.7979 0.0
U686 U 0.23786 0.38162 0.82137 0.0
O687 O 0.24421 0.38488 0.8348 0.0
O688 O 0.22183 0.37844 0.83165 0.0
C689 C 0.23094 0.38247 0.83766 0.0
C690 C 0.23525 0.40356 0.81139 0.0
C691 C 0.22513 0.39278 0.84374 0.0
C692 C 0.21544 0.41588 0.847 0.0
C693 C 0.22153 0.40642 0.84115 0.0
C694 C 0.21672 0.39817 0.85809 0.0
C695 C 0.21287 0.41183 0.85554 0.0
C696 C 0.22279 0.38876 0.85224 0.0
C697 C 0.24972 0.34353 0.81712 0.0
C698 C 0.24244 0.32243 0.82473 0.0
C699 C 0.26262 0.32166 0.81472 0.0
C700 C 0.26086 0.33594 0.81308 0.0
C701 C 0.25321 0.31464 0.8204 0.0
C702 C 0.24072 0.33676 0.82311 0.0
C703 C 0.24713 0.35814 0.81453 0.0
O704 O 0.22426 0.39527 0.81331 0.0
O705 O 0.24694 0.40113 0.81605 0.0
O706 O 0.25599 0.36759 0.81777 0.0
O707 O 0.23341 0.36218 0.81436 0.0
H708 H 0.2469 0.38429 0.80071 0.0
H709 H 0.2503 0.38616 0.78525 0.0
H710 H 0.23249 0.42811 0.78585 0.0
H711 H 0.22937 0.42621 0.80141 0.0
H712 H 0.21274 0.42635 0.84485 0.0
H713 H 0.2233 0.40969 0.83459 0.0
H714 H 0.21468 0.39461 0.86456 0.0
H715 H 0.22546 0.37824 0.85433 0.0
H716 H 0.23494 0.31735 0.8291 0.0
H717 H 0.27122 0.31605 0.81141 0.0
H718 H 0.26796 0.341 0.80847 0.0
H719 H 0.23208 0.34245 0.82633 0.0
C720 C 0.84685 0.98011 0.05249 0.0
C721 C 0.85257 0.99297 0.04967 0.0
C722 C 0.84449 0.9881 0.03511 0.0
C723 C 0.85131 0.99696 0.0411 0.0
C724 C 0.8385 0.97535 0.038 0.0
C725 C 0.83966 0.97142 0.04661 0.0
U726 U 0.87278 0.97474 0.07091 0.0
O727 O 0.87073 0.97808 0.08479 0.0
O728 O 0.87605 0.95717 0.0798 0.0
C729 C 0.87291 0.96478 0.08657 0.0
C730 C 0.84929 0.97521 0.06135 0.0
C731 C 0.86272 0.95848 0.09274 0.0
C732 C 0.83992 0.94673 0.09621 0.0
C733 C 0.84916 0.95304 0.09019 0.0
C734 C 0.85762 0.95147 0.10736 0.0
C735 C 0.84408 0.94583 0.10487 0.0
C736 C 0.86683 0.95772 0.10135 0.0
C737 C 0.91247 0.98616 0.06667 0.0
C738 C 0.93446 0.97766 0.07367 0.0
C739 C 0.93558 0.99809 0.06449 0.0
C740 C 0.92059 0.99703 0.06298 0.0
C741 C 0.94277 0.98824 0.0697 0.0
C742 C 0.91942 0.97664 0.07217 0.0
C743 C 0.89704 0.98452 0.06424 0.0
O744 O 0.8577 0.9641 0.06205 0.0
O745 O 0.85229 0.98496 0.06704 0.0
O746 O 0.88762 0.99246 0.06834 0.0
O747 O 0.8925 0.97157 0.06317 0.0
H748 H 0.85827 0.99988 0.05403 0.0
H749 H 0.85581 0.00696 0.03916 0.0
H750 H 0.83334 0.96817 0.03357 0.0
H751 H 0.83528 0.9614 0.04862 0.0
H752 H 0.8295 0.94261 0.0941 0.0
H753 H 0.84578 0.9536 0.08356 0.0
H754 H 0.86128 0.95078 0.11393 0.0
H755 H 0.87728 0.96184 0.10342 0.0
H756 H 0.93966 0.96986 0.07768 0.0
H757 H 0.94158 0.00653 0.06147 0.0
H758 H 0.91539 0.00452 0.05875 0.0
H759 H 0.91332 0.96819 0.07512 0.0
C760 C 0.26125 0.59475 0.3029 0.0
C761 C 0.25392 0.60504 0.29814 0.0
C762 C 0.25667 0.59113 0.28519 0.0
C763 C 0.25162 0.60324 0.28938 0.0
C764 C 0.26395 0.58079 0.29 0.0
C765 C 0.26621 0.58259 0.29879 0.0
U766 U 0.26197 0.6195 0.32159 0.0
O767 O 0.25602 0.61692 0.33514 0.0
O768 O 0.27832 0.62311 0.33164 0.0
C769 C 0.26939 0.61936 0.33781 0.0
C770 C 0.26429 0.59705 0.31202 0.0
C771 C 0.27531 0.6092 0.34396 0.0
C772 C 0.2863 0.58666 0.34725 0.0
C773 C 0.28022 0.59597 0.34131 0.0
C774 C 0.28238 0.60366 0.35853 0.0
C775 C 0.28752 0.59043 0.35593 0.0
C776 C 0.27634 0.61295 0.35259 0.0
C777 C 0.24988 0.65733 0.31687 0.0
C778 C 0.25654 0.67824 0.32485 0.0
C779 C 0.23791 0.67947 0.31387 0.0
C780 C 0.23957 0.66516 0.3123 0.0
C781 C 0.2466 0.68626 0.32003 0.0
C782 C 0.25816 0.66387 0.32329 0.0
C783 C 0.25241 0.64264 0.31445 0.0
O784 O 0.27529 0.60551 0.31357 0.0
O785 O 0.25277 0.59971 0.31678 0.0
O786 O 0.24369 0.63331 0.31794 0.0
O787 O 0.26614 0.63864 0.31421 0.0
H788 H 0.25016 0.61458 0.3012 0.0
H789 H 0.24619 0.6115 0.28585 0.0
H790 H 0.26787 0.57129 0.28698 0.0
H791 H 0.27194 0.57457 0.30237 0.0
H792 H 0.29 0.5765 0.34505 0.0
H793 H 0.27944 0.5929 0.33465 0.0
H794 H 0.28334 0.60699 0.36513 0.0
H795 H 0.27263 0.62315 0.35474 0.0
H796 H 0.26346 0.68314 0.3296 0.0
H797 H 0.22995 0.68528 0.31017 0.0
H798 H 0.23303 0.66026 0.30736 0.0
H799 H 0.26615 0.65797 0.32691 0.0
C800 C 0.65045 0.97914 0.45441 0.0
C801 C 0.63861 0.98519 0.45875 0.0
C802 C 0.65286 0.98621 0.47189 0.0
C803 C 0.63981 0.98871 0.46739 0.0
C804 C 0.66477 0.98029 0.46747 0.0
C805 C 0.66356 0.97676 0.4588 0.0
U806 U 0.62573 0.97443 0.4355 0.0
O807 O 0.62846 0.97886 0.42175 0.0
O808 O 0.62334 0.95751 0.42609 0.0
C809 C 0.62664 0.96566 0.41959 0.0
C810 C 0.64883 0.97492 0.44541 0.0
C811 C 0.63699 0.95994 0.41328 0.0
C812 C 0.65722 0.94468 0.40938 0.0
C813 C 0.64854 0.95106 0.41565 0.0
C814 C 0.64325 0.95642 0.39834 0.0
C815 C 0.65447 0.94707 0.40063 0.0
C816 C 0.6346 0.96275 0.4046 0.0
C817 C 0.58535 0.98418 0.4392 0.0
C818 C 0.5625 0.97391 0.4343 0.0
C819 C 0.56326 0.99827 0.43862 0.0
C820 C 0.57817 0.99701 0.44037 0.0
C821 C 0.55516 0.98666 0.43574 0.0
C822 C 0.57745 0.97269 0.43599 0.0
C823 C 0.60074 0.98283 0.44192 0.0
O824 O 0.64088 0.96362 0.44421 0.0
O825 O 0.64552 0.98514 0.4401 0.0
O826 O 0.6101 0.99142 0.43829 0.0
O827 O 0.60581 0.97003 0.44283 0.0
H828 H 0.62839 0.98709 0.45545 0.0
H829 H 0.6305 0.99345 0.47054 0.0
H830 H 0.67493 0.9781 0.47076 0.0
H831 H 0.67278 0.97203 0.45555 0.0
H832 H 0.66571 0.93748 0.41136 0.0
H833 H 0.65059 0.94877 0.42233 0.0
H834 H 0.64101 0.95869 0.39168 0.0
H835 H 0.62578 0.96962 0.40264 0.0
H836 H 0.55661 0.96471 0.43216 0.0
H837 H 0.55803 0.00831 0.43965 0.0
H838 H 0.58403 0.00602 0.44281 0.0
H839 H 0.5827 0.96264 0.43501 0.0
C840 C 0.26061 0.40392 0.70247 0.0
C841 C 0.25439 0.39287 0.70713 0.0
C842 C 0.25483 0.40702 0.7201 0.0
C843 C 0.25151 0.39441 0.71585 0.0
C844 C 0.26102 0.41809 0.71537 0.0
C845 C 0.26387 0.41655 0.70662 0.0
U846 U 0.26325 0.37984 0.68348 0.0
O847 O 0.2579 0.38275 0.66987 0.0
O848 O 0.28024 0.37719 0.67369 0.0
C849 C 0.27148 0.3808 0.6674 0.0
C850 C 0.26415 0.40202 0.69337 0.0
C851 C 0.27734 0.39124 0.66142 0.0
C852 C 0.28732 0.41431 0.6584 0.0
C853 C 0.28115 0.40476 0.66416 0.0
C854 C 0.28568 0.39698 0.64711 0.0
C855 C 0.28976 0.41049 0.64981 0.0
C856 C 0.27954 0.38746 0.65287 0.0
C857 C 0.25268 0.34143 0.68712 0.0
C858 C 0.26107 0.32147 0.6788 0.0
C859 C 0.24106 0.31874 0.68881 0.0
C860 C 0.24207 0.33292 0.69095 0.0
C861 C 0.25071 0.3128 0.68282 0.0
C862 C 0.262 0.3357 0.6809 0.0
C863 C 0.25432 0.35601 0.69002 0.0
O864 O 0.27556 0.39401 0.69191 0.0
O865 O 0.25298 0.39907 0.68841 0.0
O866 O 0.24538 0.36519 0.68658 0.0
O867 O 0.26782 0.36059 0.69066 0.0
H868 H 0.25192 0.38299 0.70403 0.0
H869 H 0.24698 0.38559 0.71931 0.0
H870 H 0.26359 0.42798 0.71843 0.0
H871 H 0.26872 0.42517 0.70311 0.0
H872 H 0.29019 0.42467 0.66067 0.0
H873 H 0.27948 0.40785 0.67076 0.0
H874 H 0.2876 0.3936 0.6406 0.0
H875 H 0.2767 0.37704 0.65066 0.0
H876 H 0.26854 0.31722 0.6741 0.0
H877 H 0.23307 0.31231 0.69209 0.0
H878 H 0.2348 0.33717 0.69576 0.0
H879 H 0.2702 0.34213 0.67782 0.0
C880 C 0.84792 0.02018 0.95451 0.0
C881 C 0.85543 0.00841 0.95764 0.0
C882 C 0.84547 0.01234 0.9719 0.0
C883 C 0.85413 0.00448 0.96622 0.0
C884 C 0.83777 0.024 0.9687 0.0
C885 C 0.83898 0.02786 0.96008 0.0
U886 U 0.87371 0.02612 0.93612 0.0
O887 O 0.87184 0.02246 0.92226 0.0
O888 O 0.87642 0.04361 0.92712 0.0
C889 C 0.87357 0.03579 0.9204 0.0
C890 C 0.85018 0.02505 0.94564 0.0
C891 C 0.86322 0.04168 0.91417 0.0
C892 C 0.84029 0.05314 0.91063 0.0
C893 C 0.84962 0.04707 0.91669 0.0
C894 C 0.85795 0.0482 0.89949 0.0
C895 C 0.84439 0.05384 0.90195 0.0
C896 C 0.86725 0.04219 0.90554 0.0
C897 C 0.91366 0.01621 0.94037 0.0
C898 C 0.93335 0.02037 0.93026 0.0
C899 C 0.93856 0.01013 0.94411 0.0
C900 C 0.92375 0.01072 0.94619 0.0
C901 C 0.94358 0.015 0.93614 0.0
C902 C 0.91849 0.02096 0.93236 0.0
C903 C 0.89828 0.01731 0.94291 0.0
O904 O 0.85821 0.0364 0.94489 0.0
O905 O 0.85358 0.0153 0.94003 0.0
O906 O 0.88914 0.009 0.93888 0.0
O907 O 0.89333 0.03015 0.94383 0.0
H908 H 0.86251 0.00235 0.9535 0.0
H909 H 0.86002 0.99531 0.96839 0.0
H910 H 0.83115 0.03042 0.9729 0.0
H911 H 0.83321 0.03706 0.95782 0.0
H912 H 0.82986 0.05725 0.91273 0.0
H913 H 0.8463 0.0467 0.92334 0.0
H914 H 0.86156 0.04874 0.8929 0.0
H915 H 0.87773 0.03811 0.90349 0.0
H916 H 0.93683 0.02409 0.92404 0.0
H917 H 0.94614 0.00617 0.94885 0.0
H918 H 0.9202 0.00709 0.95242 0.0
H919 H 0.9108 0.02524 0.92779 0.0
C920 C 0.24052 0.59569 0.20326 0.0
C921 C 0.24786 0.60588 0.2081 0.0
C922 C 0.24499 0.59175 0.22096 0.0
C923 C 0.25011 0.60391 0.21685 0.0
C924 C 0.23769 0.58152 0.21606 0.0
C925 C 0.23549 0.58349 0.20728 0.0
U926 U 0.24013 0.62078 0.18475 0.0
O927 O 0.2462 0.61841 0.17119 0.0
O928 O 0.22392 0.62475 0.17468 0.0
C929 C 0.23288 0.62107 0.1685 0.0
C930 C 0.23758 0.59816 0.19414 0.0
C931 C 0.22692 0.61124 0.16218 0.0
C932 C 0.2141 0.58974 0.15854 0.0
C933 C 0.22039 0.59858 0.16467 0.0
C934 C 0.22116 0.606 0.14737 0.0
C935 C 0.21426 0.59344 0.14982 0.0
C936 C 0.2274 0.6148 0.1535 0.0
C937 C 0.25234 0.65845 0.18972 0.0
C938 C 0.24562 0.67952 0.18191 0.0
C939 C 0.26455 0.68047 0.19272 0.0
C940 C 0.26283 0.66614 0.19423 0.0
C941 C 0.25574 0.68741 0.18669 0.0
C942 C 0.24395 0.66514 0.18341 0.0
C943 C 0.24976 0.64373 0.19207 0.0
O944 O 0.22664 0.60672 0.19262 0.0
O945 O 0.24915 0.60084 0.18943 0.0
O946 O 0.25846 0.63442 0.18855 0.0
O947 O 0.23601 0.63978 0.19227 0.0
H948 H 0.25168 0.61545 0.20511 0.0
H949 H 0.25555 0.6121 0.22044 0.0
H950 H 0.23372 0.57199 0.21902 0.0
H951 H 0.22975 0.57555 0.20364 0.0
H952 H 0.20878 0.58022 0.16065 0.0
H953 H 0.21994 0.59566 0.17137 0.0
H954 H 0.2217 0.60905 0.14071 0.0
H955 H 0.23248 0.62451 0.15146 0.0
H956 H 0.2386 0.68454 0.17726 0.0
H957 H 0.27265 0.68616 0.19639 0.0
H958 H 0.26946 0.66112 0.19909 0.0
H959 H 0.23582 0.65936 0.17982 0.0
C960 C 0.35048 0.9751 0.45549 0.0
C961 C 0.36227 0.97362 0.46116 0.0
C962 C 0.34736 0.98231 0.47291 0.0
C963 C 0.3607 0.9771 0.46979 0.0
C964 C 0.33559 0.9839 0.4672 0.0
C965 C 0.33714 0.98027 0.45856 0.0
U966 U 0.37552 0.9726 0.43652 0.0
O967 O 0.3785 0.95659 0.42659 0.0
O968 O 0.37276 0.97812 0.42292 0.0
C969 C 0.37496 0.96517 0.42035 0.0
C970 C 0.35234 0.97181 0.44634 0.0
C971 C 0.36464 0.95965 0.41397 0.0
C972 C 0.34341 0.94569 0.41011 0.0
C973 C 0.35229 0.95186 0.41637 0.0
C974 C 0.35889 0.95544 0.39903 0.0
C975 C 0.34677 0.94722 0.40136 0.0
C976 C 0.36773 0.96157 0.40528 0.0
C977 C 0.41542 0.98289 0.44083 0.0
C978 C 0.43599 0.97757 0.43155 0.0
C979 C 0.43929 0.99275 0.44383 0.0
C980 C 0.42453 0.99128 0.44587 0.0
C981 C 0.44525 0.98581 0.43669 0.0
C982 C 0.42117 0.97615 0.43359 0.0
C983 C 0.40014 0.98098 0.44343 0.0
O984 O 0.3555 0.9826 0.44144 0.0
O985 O 0.36039 0.96072 0.44468 0.0
O986 O 0.39551 0.96795 0.44374 0.0
O987 O 0.39066 0.98962 0.43996 0.0
H988 H 0.37276 0.96987 0.45891 0.0
H989 H 0.37004 0.97599 0.47399 0.0
H990 H 0.32517 0.98785 0.46943 0.0
H991 H 0.32795 0.9816 0.45427 0.0
H992 H 0.33423 0.93935 0.41212 0.0
H993 H 0.34972 0.95027 0.42306 0.0
H994 H 0.36163 0.95705 0.39236 0.0
H995 H 0.37718 0.96759 0.40331 0.0
H996 H 0.44022 0.97221 0.42597 0.0
H997 H 0.44614 0.99899 0.448 0.0
H998 H 0.42027 0.99652 0.45149 0.0
H999 H 0.41425 0.96967 0.4296 0.0
C1000 C 0.76233 0.59832 0.20331 0.0
C1001 C 0.75527 0.60898 0.20791 0.0
C1002 C 0.757 0.5952 0.22098 0.0
C1003 C 0.7526 0.60742 0.21666 0.0
C1004 C 0.764 0.5845 0.21632 0.0
C1005 C 0.76663 0.58606 0.20755 0.0
U1006 U 0.76405 0.62203 0.18402 0.0
O1007 O 0.78093 0.62489 0.17421 0.0
O1008 O 0.75886 0.61831 0.17044 0.0
C1009 C 0.77241 0.62048 0.168 0.0
C1010 C 0.76572 0.60024 0.1942 0.0
C1011 C 0.7787 0.60988 0.16222 0.0
C1012 C 0.79546 0.59065 0.15941 0.0
C1013 C 0.78889 0.59997 0.16515 0.0
C1014 C 0.78131 0.60065 0.14782 0.0
C1015 C 0.79185 0.59099 0.15066 0.0
C1016 C 0.77484 0.61003 0.15355 0.0
C1017 C 0.75232 0.66027 0.18711 0.0
C1018 C 0.76036 0.68019 0.17864 0.0
C1019 C 0.74014 0.68275 0.18852 0.0
C1020 C 0.74145 0.66864 0.1908 0.0
C1021 C 0.74977 0.68875 0.18254 0.0
C1022 C 0.76159 0.66604 0.18087 0.0
C1023 C 0.75434 0.64583 0.1902 0.0
O1024 O 0.75441 0.60271 0.18923 0.0
O1025 O 0.77683 0.60857 0.19265 0.0
O1026 O 0.76796 0.64166 0.19095 0.0
O1027 O 0.74571 0.63629 0.18686 0.0
H1028 H 0.75199 0.61858 0.20474 0.0
H1029 H 0.74739 0.61594 0.22007 0.0
H1030 H 0.7674 0.57491 0.21944 0.0
H1031 H 0.77213 0.57775 0.20409 0.0
H1032 H 0.80341 0.58322 0.1618 0.0
H1033 H 0.79195 0.59958 0.17184 0.0
H1034 H 0.7784 0.60126 0.14112 0.0
H1035 H 0.767 0.6176 0.15117 0.0
H1036 H 0.76782 0.68449 0.17395 0.0
H1037 H 0.73198 0.68909 0.19171 0.0
H1038 H 0.73421 0.66436 0.19562 0.0
H1039 H 0.76999 0.65971 0.17789 0.0
C1040 C 0.14774 0.0243 0.95459 0.0
C1041 C 0.13566 0.02551 0.96007 0.0
C1042 C 0.14967 0.01544 0.97181 0.0
C1043 C 0.13664 0.02122 0.96859 0.0
C1044 C 0.1618 0.01433 0.9663 0.0
C1045 C 0.16083 0.01873 0.95776 0.0
U1046 U 0.12363 0.029 0.93538 0.0
O1047 O 0.12194 0.04558 0.92569 0.0
O1048 O 0.12661 0.02394 0.92173 0.0
C1049 C 0.12518 0.03708 0.91935 0.0
C1050 C 0.14642 0.02821 0.9455 0.0
C1051 C 0.13587 0.04231 0.91309 0.0
C1052 C 0.15745 0.05589 0.90938 0.0
C1053 C 0.14824 0.04999 0.91557 0.0
C1054 C 0.14227 0.04607 0.89819 0.0
C1055 C 0.1544 0.0542 0.90061 0.0
C1056 C 0.13311 0.04021 0.90437 0.0
C1057 C 0.08302 0.0203 0.93877 0.0
C1058 C 0.0617 0.02988 0.93157 0.0
C1059 C 0.05985 0.00795 0.93931 0.0
C1060 C 0.07462 0.00885 0.94147 0.0
C1061 C 0.05316 0.01857 0.93445 0.0
C1062 C 0.07653 0.03071 0.93368 0.0
C1063 C 0.09828 0.02141 0.94169 0.0
O1064 O 0.14294 0.01786 0.94034 0.0
O1065 O 0.13895 0.03973 0.944 0.0
O1066 O 0.10359 0.03416 0.94242 0.0
O1067 O 0.10754 0.01249 0.93828 0.0
H1068 H 0.1254 0.02969 0.95774 0.0
H1069 H 0.12716 0.02248 0.97266 0.0
H1070 H 0.17195 0.00977 0.96852 0.0
H1071 H 0.17023 0.01759 0.95361 0.0
H1072 H 0.16664 0.06216 0.91146 0.0
H1073 H 0.15058 0.05171 0.92229 0.0
H1074 H 0.13976 0.04435 0.8915 0.0
H1075 H 0.12364 0.03426 0.90233 0.0
H1076 H 0.05688 0.03814 0.92775 0.0
H1077 H 0.05354 0.99919 0.94171 0.0
H1078 H 0.07943 0.00072 0.94541 0.0
H1079 H 0.08283 0.03961 0.93146 0.0
C1080 C 0.73837 0.40093 0.70379 0.0
C1081 C 0.7441 0.38956 0.70837 0.0
C1082 C 0.74255 0.40289 0.72162 0.0
C1083 C 0.74619 0.39053 0.7172 0.0
C1084 C 0.73702 0.41435 0.71696 0.0
C1085 C 0.73492 0.41336 0.70811 0.0
U1086 U 0.73766 0.37819 0.68412 0.0
O1087 O 0.72134 0.37565 0.67396 0.0
O1088 O 0.74361 0.38235 0.67069 0.0
C1089 C 0.73018 0.38031 0.66797 0.0
C1090 C 0.73549 0.39958 0.69458 0.0
C1091 C 0.72424 0.39098 0.66206 0.0
C1092 C 0.7045 0.40618 0.65728 0.0
C1093 C 0.71046 0.39712 0.66338 0.0
C1094 C 0.72617 0.40353 0.64855 0.0
C1095 C 0.71219 0.40936 0.64973 0.0
C1096 C 0.73208 0.39439 0.65463 0.0
C1097 C 0.7492 0.33981 0.68704 0.0
C1098 C 0.74134 0.31979 0.6786 0.0
C1099 C 0.76175 0.31749 0.68836 0.0
C1100 C 0.76027 0.33158 0.69066 0.0
C1101 C 0.75212 0.31137 0.68244 0.0
C1102 C 0.73993 0.33391 0.68086 0.0
C1103 C 0.74698 0.35418 0.69021 0.0
O1104 O 0.74706 0.39728 0.6898 0.0
O1105 O 0.72443 0.3914 0.69265 0.0
O1106 O 0.73333 0.35835 0.69073 0.0
O1107 O 0.75581 0.3638 0.68713 0.0
H1108 H 0.74683 0.37987 0.70512 0.0
H1109 H 0.75068 0.38159 0.72056 0.0
H1110 H 0.73397 0.42397 0.72018 0.0
H1111 H 0.73041 0.42221 0.70466 0.0
H1112 H 0.69365 0.41032 0.65837 0.0
H1113 H 0.7041 0.39468 0.66903 0.0
H1114 H 0.73251 0.40591 0.64289 0.0
H1115 H 0.74271 0.38978 0.65345 0.0
H1116 H 0.73386 0.31539 0.67395 0.0
H1117 H 0.77007 0.31126 0.6915 0.0
H1118 H 0.76752 0.33594 0.69545 0.0
H1119 H 0.73138 0.34012 0.67793 0.0
C1120 C 0.35102 0.02414 0.55161 0.0
C1121 C 0.36313 0.02435 0.54611 0.0
C1122 C 0.34846 0.01447 0.53459 0.0
C1123 C 0.36185 0.01965 0.53768 0.0
C1124 C 0.33631 0.01434 0.54012 0.0
C1125 C 0.33759 0.01914 0.54857 0.0
U1126 U 0.37606 0.0319 0.56997 0.0
O1127 O 0.37705 0.04918 0.57923 0.0
O1128 O 0.37463 0.02754 0.58379 0.0
C1129 C 0.37506 0.0409 0.58584 0.0
C1130 C 0.35262 0.02869 0.56055 0.0
C1131 C 0.36421 0.0457 0.59213 0.0
C1132 C 0.34001 0.05428 0.59579 0.0
C1133 C 0.34978 0.04877 0.58976 0.0
C1134 C 0.35893 0.05337 0.6066 0.0
C1135 C 0.34452 0.0568 0.60427 0.0
C1136 C 0.36865 0.04788 0.60059 0.0
C1137 C 0.41696 0.02652 0.56531 0.0
C1138 C 0.43663 0.02404 0.57566 0.0
C1139 C 0.44217 0.0295 0.56087 0.0
C1140 C 0.42729 0.02933 0.55893 0.0
C1141 C 0.44703 0.02681 0.56924 0.0
C1142 C 0.42169 0.02397 0.57372 0.0
C1143 C 0.40141 0.02616 0.56296 0.0
O1144 O 0.35742 0.01899 0.56582 0.0
O1145 O 0.35918 0.04084 0.56159 0.0
O1146 O 0.395 0.03843 0.56227 0.0
O1147 O 0.39332 0.01672 0.56684 0.0
H1148 H 0.37361 0.02813 0.54834 0.0
H1149 H 0.37137 0.02014 0.53359 0.0
H1150 H 0.32589 0.01028 0.53799 0.0
H1151 H 0.32816 0.01879 0.55274 0.0
H1152 H 0.32895 0.05665 0.59379 0.0
H1153 H 0.34616 0.04711 0.58324 0.0
H1154 H 0.36287 0.05536 0.61302 0.0
H1155 H 0.37978 0.04563 0.60251 0.0
H1156 H 0.44004 0.02204 0.58218 0.0
H1157 H 0.44989 0.03145 0.55576 0.0
H1158 H 0.42384 0.0313 0.55241 0.0
H1159 H 0.41387 0.02186 0.57875 0.0
C1160 C 0.73839 0.5987 0.30281 0.0
C1161 C 0.74607 0.60888 0.29816 0.0
C1162 C 0.74304 0.59532 0.28509 0.0
C1163 C 0.74841 0.60719 0.2894 0.0
C1164 C 0.73536 0.58511 0.2898 0.0
C1165 C 0.73306 0.58679 0.2986 0.0
U1166 U 0.73834 0.62319 0.32158 0.0
O1167 O 0.72231 0.62707 0.33176 0.0
O1168 O 0.74457 0.62045 0.33508 0.0
C1169 C 0.73132 0.62318 0.33786 0.0
C1170 C 0.73546 0.60086 0.31197 0.0
C1171 C 0.72533 0.6133 0.34415 0.0
C1172 C 0.71208 0.59202 0.34772 0.0
C1173 C 0.71845 0.60084 0.34161 0.0
C1174 C 0.71974 0.60788 0.35896 0.0
C1175 C 0.71248 0.59554 0.35646 0.0
C1176 C 0.72608 0.61667 0.35286 0.0
C1177 C 0.75081 0.66077 0.31694 0.0
C1178 C 0.75048 0.67936 0.32755 0.0
C1179 C 0.757 0.68455 0.31286 0.0
C1180 C 0.75513 0.67046 0.31072 0.0
C1181 C 0.75461 0.68921 0.32129 0.0
C1182 C 0.74859 0.66524 0.32539 0.0
C1183 C 0.74807 0.64622 0.31437 0.0
O1184 O 0.74708 0.60326 0.31669 0.0
O1185 O 0.72462 0.60947 0.31361 0.0
O1186 O 0.73427 0.64248 0.31429 0.0
O1187 O 0.7567 0.63671 0.31777 0.0
H1188 H 0.75011 0.61823 0.3013 0.0
H1189 H 0.75415 0.61536 0.28595 0.0
H1190 H 0.73118 0.5758 0.28668 0.0
H1191 H 0.72705 0.57886 0.30209 0.0
H1192 H 0.70648 0.58266 0.34557 0.0
H1193 H 0.71779 0.59807 0.3349 0.0
H1194 H 0.72048 0.61078 0.36564 0.0
H1195 H 0.73141 0.62622 0.35493 0.0
H1196 H 0.74867 0.68257 0.33411 0.0
H1197 H 0.75992 0.69185 0.30784 0.0
H1198 H 0.75679 0.66718 0.30416 0.0
H1199 H 0.74522 0.65784 0.33026 0.0
C1200 C 0.14732 0.9748 0.05079 0.0
C1201 C 0.13504 0.97474 0.04541 0.0
C1202 C 0.14982 0.98316 0.03353 0.0
C1203 C 0.1363 0.9788 0.03686 0.0
C1204 C 0.16206 0.98347 0.03898 0.0
C1205 C 0.16082 0.97926 0.04754 0.0
U1206 U 0.12335 0.96971 0.07008 0.0
O1207 O 0.12082 0.95201 0.07898 0.0
O1208 O 0.12691 0.97281 0.08386 0.0
C1209 C 0.12481 0.95948 0.08564 0.0
C1210 C 0.14594 0.97035 0.05978 0.0
C1211 C 0.13533 0.95273 0.09148 0.0
C1212 C 0.15932 0.95084 0.0981 0.0
C1213 C 0.14987 0.95729 0.09224 0.0
C1214 C 0.13987 0.93512 0.10238 0.0
C1215 C 0.15441 0.93967 0.10323 0.0
C1216 C 0.13046 0.94159 0.09657 0.0
C1217 C 0.08292 0.98043 0.06725 0.0
C1218 C 0.05879 0.97045 0.0697 0.0
C1219 C 0.06228 0.99555 0.07062 0.0
C1220 C 0.07711 0.99383 0.06876 0.0
C1221 C 0.05287 0.9839 0.07094 0.0
C1222 C 0.07363 0.96873 0.06787 0.0
C1223 C 0.09823 0.979 0.06431 0.0
O1224 O 0.14305 0.98042 0.06526 0.0
O1225 O 0.13793 0.95908 0.061 0.0
O1226 O 0.10303 0.96621 0.06294 0.0
O1227 O 0.10794 0.98713 0.06802 0.0
H1228 H 0.12447 0.97152 0.04782 0.0
H1229 H 0.12663 0.97867 0.03287 0.0
H1230 H 0.17262 0.98675 0.03658 0.0
H1231 H 0.17039 0.97945 0.05161 0.0
H1232 H 0.17048 0.9545 0.09855 0.0
H1233 H 0.15389 0.96585 0.08834 0.0
H1234 H 0.13567 0.92669 0.10631 0.0
H1235 H 0.11927 0.93796 0.09612 0.0
H1236 H 0.05186 0.96126 0.06977 0.0
H1237 H 0.05814 0.00604 0.07167 0.0
H1238 H 0.08397 0.00305 0.06828 0.0
H1239 H 0.0777 0.95825 0.06668 0.0
C1240 C 0.76148 0.40128 0.80353 0.0
C1241 C 0.75523 0.39012 0.79899 0.0
C1242 C 0.75605 0.40376 0.78584 0.0
C1243 C 0.75252 0.39135 0.79024 0.0
C1244 C 0.76228 0.41495 0.79044 0.0
C1245 C 0.76496 0.41371 0.79922 0.0
U1246 U 0.7637 0.3778 0.82279 0.0
O1247 O 0.78048 0.37544 0.83274 0.0
O1248 O 0.75805 0.38108 0.83633 0.0
C1249 C 0.77158 0.37925 0.83891 0.0
C1250 C 0.76483 0.39969 0.81267 0.0
C1251 C 0.77732 0.38993 0.84477 0.0
C1252 C 0.7864 0.4134 0.84757 0.0
C1253 C 0.78032 0.40358 0.84195 0.0
C1254 C 0.78629 0.39604 0.85889 0.0
C1255 C 0.78955 0.40971 0.8561 0.0
C1256 C 0.78023 0.38626 0.85327 0.0
C1257 C 0.75307 0.33908 0.81927 0.0
C1258 C 0.76318 0.31612 0.82261 0.0
C1259 C 0.737 0.31908 0.82147 0.0
C1260 C 0.73897 0.33332 0.8197 0.0
C1261 C 0.74909 0.31024 0.82277 0.0
C1262 C 0.76515 0.33037 0.82088 0.0
C1263 C 0.75499 0.35377 0.81643 0.0
O1264 O 0.75355 0.39689 0.81759 0.0
O1265 O 0.77621 0.39174 0.81432 0.0
O1266 O 0.76848 0.35838 0.81583 0.0
O1267 O 0.74594 0.36307 0.81966 0.0
H1268 H 0.7526 0.38038 0.80221 0.0
H1269 H 0.74794 0.38245 0.78687 0.0
H1270 H 0.76501 0.42469 0.78725 0.0
H1271 H 0.76984 0.42242 0.80264 0.0
H1272 H 0.78864 0.42387 0.84524 0.0
H1273 H 0.77811 0.40658 0.83539 0.0
H1274 H 0.78878 0.39276 0.86535 0.0
H1275 H 0.77802 0.37573 0.85553 0.0
H1276 H 0.77276 0.30961 0.82346 0.0
H1277 H 0.72598 0.31495 0.82167 0.0
H1278 H 0.72947 0.33976 0.81845 0.0
H1279 H 0.77618 0.33442 0.82056 0.0
H1280 H 0.13249 0.4862 0.98334 0.0
H1281 H 0.17581 0.50394 0.98173 0.0
H1282 H 0.13282 0.48908 0.99879 0.0
H1283 H 0.17614 0.50684 0.99727 0.0
H1284 H 0.17563 0.49688 0.02638 0.0
H1285 H 0.1765 0.49375 0.01086 0.0
H1286 H 0.13191 0.50824 0.00897 0.0
H1287 H 0.13105 0.51136 0.0244 0.0
C1288 C 0.14206 0.49081 0.98628 0.0
C1289 C 0.15406 0.49498 0.98128 0.0
C1290 C 0.14225 0.49246 0.99515 0.0
C1291 C 0.15444 0.49833 0.99927 0.0
C1292 C 0.16662 0.50219 0.99431 0.0
C1293 C 0.16643 0.50053 0.9854 0.0
C1294 C 0.16607 0.4995 0.02263 0.0
C1295 C 0.15323 0.50424 0.02664 0.0
C1296 C 0.16657 0.49771 0.01374 0.0
C1297 C 0.15423 0.50062 0.00868 0.0
C1298 C 0.14151 0.5056 0.01269 0.0
C1299 C 0.14101 0.50739 0.02155 0.0
H1300 H 0.73574 0.87676 0.23026 0.0
H1301 H 0.77656 0.89878 0.2336 0.0
H1302 H 0.73171 0.87732 0.24565 0.0
H1303 H 0.7725 0.89936 0.24904 0.0
H1304 H 0.75359 0.90821 0.27582 0.0
H1305 H 0.75681 0.90922 0.2603 0.0
H1306 H 0.74214 0.86633 0.25826 0.0
H1307 H 0.73848 0.86547 0.27367 0.0
C1308 C 0.74389 0.88169 0.23428 0.0
C1309 C 0.75653 0.88763 0.23069 0.0
C1310 C 0.74157 0.882 0.24311 0.0
C1311 C 0.75184 0.88828 0.24859 0.0
C1312 C 0.76431 0.89456 0.245 0.0
C1313 C 0.76663 0.89423 0.23614 0.0
C1314 C 0.75094 0.89905 0.27204 0.0
C1315 C 0.74581 0.88675 0.27599 0.0
C1316 C 0.75291 0.89958 0.26316 0.0
C1317 C 0.74972 0.88786 0.25803 0.0
C1318 C 0.74454 0.8756 0.262 0.0
C1319 C 0.74262 0.87506 0.27085 0.0
H1320 H 0.33393 0.47873 0.5234 0.0
H1321 H 0.35345 0.51973 0.52593 0.0
H1322 H 0.33306 0.4817 0.5079 0.0
H1323 H 0.35262 0.52267 0.51046 0.0
H1324 H 0.36656 0.51473 0.48277 0.0
H1325 H 0.36533 0.5125 0.49825 0.0
H1326 H 0.32181 0.49535 0.49619 0.0
H1327 H 0.32322 0.49721 0.4806 0.0
C1328 C 0.33782 0.48846 0.52067 0.0
C1329 C 0.34388 0.49894 0.52591 0.0
C1330 C 0.33733 0.49016 0.51178 0.0
C1331 C 0.3429 0.50237 0.50794 0.0
C1332 C 0.34851 0.51302 0.51321 0.0
C1333 C 0.34899 0.51133 0.52207 0.0
C1334 C 0.35676 0.51039 0.4856 0.0
C1335 C 0.34502 0.50607 0.48044 0.0
C1336 C 0.35598 0.50927 0.49449 0.0
C1337 C 0.34345 0.50379 0.49847 0.0
C1338 C 0.33166 0.49952 0.49332 0.0
C1339 C 0.33241 0.5007 0.4844 0.0
H1340 H 0.77546 0.10024 0.77298 0.0
H1341 H 0.73392 0.12086 0.77664 0.0
H1342 H 0.7713 0.09992 0.75755 0.0
H1343 H 0.72979 0.12057 0.76126 0.0
H1344 H 0.73621 0.1336 0.73339 0.0
H1345 H 0.73986 0.13231 0.74878 0.0
H1346 H 0.75585 0.08992 0.74619 0.0
H1347 H 0.75261 0.09138 0.73068 0.0
C1348 C 0.76536 0.10453 0.77051 0.0
C1349 C 0.75508 0.11068 0.77605 0.0
C1350 C 0.76297 0.10435 0.76166 0.0
C1351 C 0.75027 0.11033 0.75816 0.0
C1352 C 0.73983 0.11612 0.76373 0.0
C1353 C 0.7422 0.11629 0.77255 0.0
C1354 C 0.74062 0.12404 0.73608 0.0
C1355 C 0.74419 0.11262 0.73079 0.0
C1356 C 0.74255 0.12323 0.74492 0.0
C1357 C 0.7481 0.11099 0.74873 0.0
C1358 C 0.75165 0.09954 0.74345 0.0
C1359 C 0.74966 0.10033 0.73458 0.0
H1360 H 0.85848 0.48562 0.02455 0.0
H1361 H 0.83821 0.52627 0.0219 0.0
H1362 H 0.85767 0.48252 0.00909 0.0
H1363 H 0.83739 0.52316 0.00641 0.0
H1364 H 0.82744 0.50722 0.97925 0.0
H1365 H 0.82625 0.50931 0.99483 0.0
H1366 H 0.86998 0.49258 0.99675 0.0
H1367 H 0.87097 0.49009 0.98128 0.0
C1368 C 0.85387 0.49391 0.02067 0.0
C1369 C 0.84852 0.50624 0.02446 0.0
C1370 C 0.85341 0.49214 0.0118 0.0
C1371 C 0.84758 0.50264 0.00651 0.0
C1372 C 0.84183 0.51481 0.01031 0.0
C1373 C 0.84229 0.51659 0.01919 0.0
C1374 C 0.83673 0.50387 0.98302 0.0
C1375 C 0.84932 0.49853 0.97902 0.0
C1376 C 0.8361 0.50519 0.99193 0.0
C1377 C 0.84802 0.5011 0.99704 0.0
C1378 C 0.86054 0.49567 0.99303 0.0
C1379 C 0.86118 0.4944 0.98414 0.0
H1380 H 0.25795 0.13506 0.77539 0.0
H1381 H 0.23621 0.09493 0.77393 0.0
H1382 H 0.26311 0.13401 0.76018 0.0
H1383 H 0.24216 0.09349 0.75875 0.0
H1384 H 0.24047 0.10391 0.72991 0.0
H1385 H 0.23567 0.10357 0.74527 0.0
H1386 H 0.27782 0.12252 0.74988 0.0
H1387 H 0.28239 0.12316 0.73454 0.0
C1388 C 0.25428 0.12598 0.77183 0.0
C1389 C 0.24656 0.11513 0.77591 0.0
C1390 C 0.25745 0.12528 0.7631 0.0
C1391 C 0.25311 0.11364 0.7582 0.0
C1392 C 0.24554 0.10269 0.76229 0.0
C1393 C 0.24229 0.10343 0.77103 0.0
C1394 C 0.24875 0.10786 0.73423 0.0
C1395 C 0.26176 0.11365 0.73102 0.0
C1396 C 0.24603 0.10764 0.74304 0.0
C1397 C 0.25631 0.11311 0.74885 0.0
C1398 C 0.2695 0.11851 0.74561 0.0
C1399 C 0.27216 0.11883 0.73681 0.0
H1400 H 0.64431 0.48352 0.47888 0.0
H1401 H 0.66052 0.52578 0.4817 0.0
H1402 H 0.64513 0.48044 0.49435 0.0
H1403 H 0.66177 0.52255 0.49717 0.0
H1404 H 0.64388 0.51712 0.52457 0.0
H1405 H 0.64468 0.52018 0.50909 0.0
H1406 H 0.66218 0.47839 0.50631 0.0
H1407 H 0.66094 0.47516 0.52178 0.0
C1408 C 0.6481 0.49213 0.4828 0.0
C1409 C 0.65229 0.50491 0.47905 0.0
C1410 C 0.64872 0.49032 0.49166 0.0
C1411 C 0.6535 0.50126 0.497 0.0
C1412 C 0.6579 0.51397 0.49324 0.0
C1413 C 0.65733 0.51576 0.48437 0.0
C1414 C 0.64785 0.50857 0.52065 0.0
C1415 C 0.65229 0.49587 0.52441 0.0
C1416 C 0.64846 0.51038 0.51179 0.0
C1417 C 0.65349 0.49953 0.50646 0.0
C1418 C 0.65812 0.4869 0.51023 0.0
C1419 C 0.65755 0.48511 0.5191 0.0
H1420 H 0.23429 0.87882 0.27741 0.0
H1421 H 0.27823 0.89424 0.27386 0.0
H1422 H 0.2304 0.87949 0.26198 0.0
H1423 H 0.27419 0.89531 0.25844 0.0
H1424 H 0.26721 0.87831 0.23112 0.0
H1425 H 0.27107 0.87888 0.24655 0.0
H1426 H 0.22778 0.89594 0.25005 0.0
H1427 H 0.22375 0.89498 0.23462 0.0
C1428 C 0.24311 0.88239 0.27334 0.0
C1429 C 0.25659 0.88643 0.27687 0.0
C1430 C 0.24082 0.88292 0.2645 0.0
C1431 C 0.25199 0.88745 0.25897 0.0
C1432 C 0.26541 0.89164 0.26251 0.0
C1433 C 0.26767 0.89117 0.27136 0.0
C1434 C 0.25849 0.88213 0.23519 0.0
C1435 C 0.24515 0.88655 0.23164 0.0
C1436 C 0.26076 0.8826 0.24403 0.0
C1437 C 0.24973 0.88746 0.24954 0.0
C1438 C 0.23645 0.89202 0.24598 0.0
C1439 C 0.2342 0.8916 0.23714 0.0
H1440 H 0.6447 0.98765 0.52743 0.0
H1441 H 0.66633 0.02658 0.52127 0.0
H1442 H 0.64518 0.98099 0.51239 0.0
H1443 H 0.66675 0.01995 0.50619 0.0
H1444 H 0.6758 0.99804 0.48061 0.0
H1445 H 0.67717 0.00364 0.49585 0.0
H1446 H 0.6333 0.98795 0.4993 0.0
H1447 H 0.63216 0.98188 0.48421 0.0
C1448 C 0.64952 0.99481 0.52286 0.0
C1449 C 0.65538 0.00769 0.52555 0.0
C1450 C 0.64979 0.991 0.51423 0.0
C1451 C 0.6559 0.99998 0.50806 0.0
C1452 C 0.6621 0.01271 0.51078 0.0
C1453 C 0.66186 0.01652 0.51943 0.0
C1454 C 0.66652 0.99565 0.48465 0.0
C1455 C 0.65386 0.98955 0.48118 0.0
C1456 C 0.66724 0.99899 0.49337 0.0
C1457 C 0.65535 0.99625 0.49881 0.0
C1458 C 0.64274 0.99006 0.49533 0.0
C1459 C 0.64201 0.98674 0.48664 0.0
H1460 H 0.23109 0.39799 0.72919 0.0
H1461 H 0.27251 0.41912 0.73217 0.0
H1462 H 0.22736 0.39886 0.74461 0.0
H1463 H 0.26876 0.41999 0.74762 0.0
H1464 H 0.25125 0.42929 0.77454 0.0
H1465 H 0.25368 0.43027 0.75897 0.0
H1466 H 0.2378 0.38774 0.75717 0.0
H1467 H 0.23491 0.38694 0.77263 0.0
C1468 C 0.23942 0.40279 0.73314 0.0
C1469 C 0.25214 0.4084 0.72945 0.0
C1470 C 0.23728 0.40329 0.74199 0.0
C1471 C 0.24781 0.4094 0.74736 0.0
C1472 C 0.26036 0.41534 0.74365 0.0
C1473 C 0.2625 0.41484 0.7348 0.0
C1474 C 0.24813 0.42022 0.7708 0.0
C1475 C 0.24293 0.40802 0.77483 0.0
C1476 C 0.24966 0.42073 0.76189 0.0
C1477 C 0.24594 0.40909 0.75682 0.0
C1478 C 0.24061 0.39696 0.76086 0.0
C1479 C 0.23912 0.39644 0.76974 0.0
H1480 H 0.82246 0.98373 0.02342 0.0
H1481 H 0.8659 0.00103 0.02575 0.0
H1482 H 0.82252 0.98924 0.00819 0.0
H1483 H 0.8656 0.00727 0.01071 0.0
H1484 H 0.86782 0.00287 0.98202 0.0
H1485 H 0.86711 0.9967 0.99706 0.0
H1486 H 0.82148 0.00815 0.99812 0.0
H1487 H 0.82197 0.01355 0.98287 0.0
C1488 C 0.832 0.98874 0.02071 0.0
C1489 C 0.84417 0.99191 0.02585 0.0
C1490 C 0.83196 0.99207 0.01198 0.0
C1491 C 0.84407 0.99868 0.00818 0.0
C1492 C 0.85616 0.00198 0.01336 0.0
C1493 C 0.85623 0.99859 0.02205 0.0
C1494 C 0.85755 0.00387 0.9854 0.0
C1495 C 0.84493 0.00866 0.98118 0.0
C1496 C 0.8572 0.00053 0.99409 0.0
C1497 C 0.84426 0.002 0.99886 0.0
C1498 C 0.83161 0.00676 0.99465 0.0
C1499 C 0.83194 0.01003 0.98591 0.0
H1500 H 0.22515 0.58193 0.23262 0.0
H1501 H 0.26922 0.5977 0.23054 0.0
H1502 H 0.22795 0.58022 0.24811 0.0
H1503 H 0.27186 0.59644 0.24603 0.0
H1504 H 0.27645 0.58144 0.27345 0.0
H1505 H 0.27363 0.58003 0.25795 0.0
H1506 H 0.22979 0.5964 0.26016 0.0
H1507 H 0.23245 0.59736 0.27566 0.0
C1508 C 0.23548 0.58491 0.23546 0.0
C1509 C 0.24694 0.58999 0.23034 0.0
C1510 C 0.23703 0.58408 0.24435 0.0
C1511 C 0.2501 0.58825 0.24832 0.0
C1512 C 0.26169 0.59302 0.24318 0.0
C1513 C 0.26012 0.59389 0.2343 0.0
C1514 C 0.26613 0.58452 0.27063 0.0
C1515 C 0.25469 0.58955 0.27579 0.0
C1516 C 0.26457 0.58385 0.26174 0.0
C1517 C 0.25151 0.58816 0.2578 0.0
C1518 C 0.23995 0.59288 0.26298 0.0
C1519 C 0.24153 0.59358 0.27186 0.0
H1520 H 0.3566 0.96759 0.48687 0.0
H1521 H 0.33502 0.00603 0.47964 0.0
H1522 H 0.35579 0.97468 0.50183 0.0
H1523 H 0.33446 0.01332 0.4946 0.0
H1524 H 0.32579 0.01769 0.52321 0.0
H1525 H 0.32429 0.00912 0.50853 0.0
H1526 H 0.36741 0.99114 0.51096 0.0
H1527 H 0.36858 0.99901 0.52571 0.0
C1528 C 0.35171 0.97759 0.48849 0.0
C1529 C 0.34595 0.98629 0.48207 0.0
C1530 C 0.35129 0.98169 0.49707 0.0
C1531 C 0.34519 0.99466 0.49945 0.0
C1532 C 0.33909 0.0032 0.49303 0.0
C1533 C 0.33942 0.99904 0.48445 0.0
C1534 C 0.33486 0.01173 0.52065 0.0
C1535 C 0.34733 0.0091 0.52566 0.0
C1536 C 0.33407 0.00695 0.51219 0.0
C1537 C 0.34573 0.99944 0.50853 0.0
C1538 C 0.35813 0.99672 0.51357 0.0
C1539 C 0.35889 0.00143 0.52202 0.0
H1540 H 0.76775 0.60083 0.27585 0.0
H1541 H 0.72323 0.58653 0.27311 0.0
H1542 H 0.77088 0.5999 0.26038 0.0
H1543 H 0.72651 0.58517 0.25762 0.0
H1544 H 0.73274 0.60248 0.23022 0.0
H1545 H 0.72945 0.60154 0.24569 0.0
H1546 H 0.77249 0.58353 0.24842 0.0
H1547 H 0.77597 0.58489 0.23297 0.0
C1548 C 0.75865 0.59742 0.27194 0.0
C1549 C 0.74522 0.59382 0.27571 0.0
C1550 C 0.76049 0.59674 0.26308 0.0
C1551 C 0.74894 0.59248 0.25776 0.0
C1552 C 0.73558 0.58864 0.26154 0.0
C1553 C 0.73375 0.58927 0.27041 0.0
C1554 C 0.74152 0.59836 0.23413 0.0
C1555 C 0.75464 0.59382 0.23036 0.0
C1556 C 0.73957 0.59767 0.24299 0.0
C1557 C 0.75072 0.59247 0.2483 0.0
C1558 C 0.76375 0.58772 0.24452 0.0
C1559 C 0.76568 0.58836 0.23565 0.0
H1560 H 0.12846 0.00174 0.9809 0.0
H1561 H 0.17255 0.01747 0.98316 0.0
H1562 H 0.12917 0.99408 0.99569 0.0
H1563 H 0.17357 0.00903 0.99788 0.0
H1564 H 0.16359 0.00617 0.02682 0.0
H1565 H 0.16415 0.01372 0.01189 0.0
H1566 H 0.13958 0.97687 0.00471 0.0
H1567 H 0.13875 0.96959 0.01963 0.0
C1568 C 0.13833 0.00358 0.98455 0.0
C1569 C 0.15041 0.01033 0.98082 0.0
C1570 C 0.13882 0.99897 0.99302 0.0
C1571 C 0.15145 0.00085 0.99801 0.0
C1572 C 0.1636 0.00752 0.99427 0.0
C1573 C 0.16308 0.01221 0.98579 0.0
C1574 C 0.15844 0.99965 0.02202 0.0
C1575 C 0.15102 0.98735 0.0244 0.0
C1576 C 0.15878 0.00394 0.01346 0.0
C1577 C 0.1518 0.99598 0.00707 0.0
C1578 C 0.14477 0.98346 0.00946 0.0
C1579 C 0.14433 0.97925 0.01801 0.0
H1580 H 0.73231 0.39468 0.77677 0.0
H1581 H 0.77405 0.41518 0.77367 0.0
H1582 H 0.72873 0.39512 0.76133 0.0
H1583 H 0.77046 0.41562 0.75821 0.0
H1584 H 0.75296 0.42478 0.73125 0.0
H1585 H 0.7556 0.42588 0.74679 0.0
H1586 H 0.73898 0.38365 0.74885 0.0
H1587 H 0.73586 0.38273 0.7334 0.0
C1588 C 0.74075 0.39925 0.77279 0.0
C1589 C 0.75351 0.40482 0.77646 0.0
C1590 C 0.7387 0.3995 0.76394 0.0
C1591 C 0.74935 0.40532 0.75852 0.0
C1592 C 0.76196 0.41119 0.7622 0.0
C1593 C 0.76402 0.41095 0.77107 0.0
C1594 C 0.74974 0.41579 0.73504 0.0
C1595 C 0.74423 0.40366 0.73108 0.0
C1596 C 0.75139 0.41637 0.74393 0.0
C1597 C 0.74749 0.40486 0.74907 0.0
C1598 C 0.74192 0.39277 0.7451 0.0
C1599 C 0.74031 0.39218 0.73623 0.0
H1600 H 0.96603 0.47634 0.0656 0.0
H1601 H 0.963 0.51323 0.08153 0.0
H1602 H 0.99235 0.47598 0.0676 0.0
H1603 H 0.98929 0.51243 0.08391 0.0
H1604 H 0.03702 0.51841 0.07478 0.0
H1605 H 0.01051 0.51749 0.07557 0.0
H1606 H 0.01235 0.47229 0.0771 0.0
H1607 H 0.03895 0.47325 0.07613 0.0
C1608 C 0.97096 0.48428 0.06962 0.0
C1609 C 0.9624 0.49493 0.0733 0.0
C1610 C 0.98606 0.48397 0.07086 0.0
C1611 C 0.993 0.49424 0.07587 0.0
C1612 C 0.98435 0.50449 0.0799 0.0
C1613 C 0.96923 0.50484 0.07862 0.0
C1614 C 0.03178 0.50829 0.07546 0.0
C1615 C 0.04007 0.4959 0.07534 0.0
C1616 C 0.01655 0.50775 0.07593 0.0
C1617 C 0.00924 0.4948 0.07635 0.0
C1618 C 0.01759 0.48243 0.07662 0.0
C1619 C 0.03283 0.48297 0.07608 0.0
H1620 H 0.7777 0.77804 0.32588 0.0
H1621 H 0.73066 0.77581 0.32456 0.0
H1622 H 0.77893 0.75253 0.32693 0.0
H1623 H 0.73184 0.75038 0.32545 0.0
H1624 H 0.73677 0.7049 0.33163 0.0
H1625 H 0.73735 0.73016 0.33389 0.0
H1626 H 0.77519 0.73323 0.31746 0.0
H1627 H 0.77506 0.70794 0.31558 0.0
C1628 C 0.76763 0.77209 0.32586 0.0
C1629 C 0.75409 0.77892 0.3251 0.0
C1630 C 0.76832 0.75748 0.32644 0.0
C1631 C 0.7555 0.74936 0.32621 0.0
C1632 C 0.74194 0.75627 0.32577 0.0
C1633 C 0.74125 0.77087 0.32525 0.0
C1634 C 0.74542 0.71092 0.32867 0.0
C1635 C 0.75579 0.70439 0.32336 0.0
C1636 C 0.74565 0.72544 0.32988 0.0
C1637 C 0.75622 0.73379 0.32579 0.0
C1638 C 0.76695 0.72716 0.32077 0.0
C1639 C 0.76676 0.71266 0.3196 0.0
H1640 H 0.53689 0.52312 0.56185 0.0
H1641 H 0.53488 0.49283 0.58237 0.0
H1642 H 0.51047 0.52541 0.56221 0.0
H1643 H 0.5083 0.49461 0.58242 0.0
H1644 H 0.46052 0.50879 0.58418 0.0
H1645 H 0.48716 0.50948 0.58536 0.0
H1646 H 0.4906 0.51058 0.55781 0.0
H1647 H 0.46418 0.50991 0.55664 0.0
C1648 C 0.53085 0.51708 0.56652 0.0
C1649 C 0.53806 0.50772 0.57205 0.0
C1650 C 0.51566 0.51825 0.56665 0.0
C1651 C 0.50724 0.51005 0.57226 0.0
C1652 C 0.51445 0.50113 0.57804 0.0
C1653 C 0.52968 0.49998 0.57794 0.0
C1654 C 0.467 0.50918 0.57839 0.0
C1655 C 0.46021 0.50939 0.57031 0.0
C1656 C 0.48225 0.50958 0.57906 0.0
C1657 C 0.49102 0.51018 0.57168 0.0
C1658 C 0.48419 0.51044 0.56363 0.0
C1659 C 0.46901 0.51006 0.56296 0.0
H1660 H 0.74432 0.22391 0.80823 0.0
H1661 H 0.74929 0.22039 0.83562 0.0
H1662 H 0.74326 0.24924 0.80947 0.0
H1663 H 0.7482 0.24593 0.83688 0.0
H1664 H 0.76411 0.29203 0.83319 0.0
H1665 H 0.76283 0.26649 0.83325 0.0
H1666 H 0.72804 0.26802 0.81461 0.0
H1667 H 0.7298 0.29342 0.81422 0.0
C1668 C 0.74493 0.22853 0.81455 0.0
C1669 C 0.7468 0.2201 0.82183 0.0
C1670 C 0.74432 0.24309 0.81526 0.0
C1671 C 0.74554 0.24964 0.82328 0.0
C1672 C 0.74735 0.24122 0.83059 0.0
C1673 C 0.74797 0.2266 0.82988 0.0
C1674 C 0.75619 0.28691 0.8291 0.0
C1675 C 0.74716 0.29481 0.82364 0.0
C1676 C 0.75534 0.27227 0.82922 0.0
C1677 C 0.74543 0.2652 0.82388 0.0
C1678 C 0.73597 0.27312 0.8187 0.0
C1679 C 0.73685 0.28773 0.81857 0.0
H1680 H 0.96362 0.48182 0.92808 0.0
H1681 H 0.96701 0.52597 0.93389 0.0
H1682 H 0.99015 0.48022 0.92727 0.0
H1683 H 0.9936 0.52426 0.93333 0.0
H1684 H 0.04162 0.51821 0.92665 0.0
H1685 H 0.01524 0.51974 0.92419 0.0
H1686 H 0.0091 0.48128 0.93832 0.0
H1687 H 0.03534 0.47963 0.9406 0.0
C1688 C 0.97001 0.49125 0.92903 0.0
C1689 C 0.9632 0.50401 0.93111 0.0
C1690 C 0.98522 0.49029 0.92865 0.0
C1691 C 0.99398 0.50208 0.93032 0.0
C1692 C 0.98717 0.515 0.93197 0.0
C1693 C 0.97194 0.51595 0.93237 0.0
C1694 C 0.03462 0.50999 0.9291 0.0
C1695 C 0.04052 0.49886 0.93387 0.0
C1696 C 0.01954 0.51092 0.92775 0.0
C1697 C 0.01009 0.50065 0.93107 0.0
C1698 C 0.01607 0.48929 0.9356 0.0
C1699 C 0.0311 0.48842 0.93699 0.0
H1700 H 0.77284 0.70677 0.18168 0.0
H1701 H 0.72581 0.70537 0.17981 0.0
H1702 H 0.77219 0.7322 0.18067 0.0
H1703 H 0.72512 0.73088 0.17863 0.0
H1704 H 0.72941 0.77544 0.18992 0.0
H1705 H 0.72887 0.75016 0.18807 0.0
H1706 H 0.76739 0.75249 0.17215 0.0
H1707 H 0.76836 0.77777 0.17438 0.0
C1708 C 0.76238 0.71189 0.18084 0.0
C1709 C 0.74937 0.70407 0.18088 0.0
C1710 C 0.76199 0.7265 0.18024 0.0
C1711 C 0.74859 0.73364 0.17962 0.0
C1712 C 0.73562 0.72575 0.17927 0.0
C1713 C 0.736 0.71114 0.17992 0.0
C1714 C 0.73778 0.77057 0.18602 0.0
C1715 C 0.74905 0.77863 0.1824 0.0
C1716 C 0.73735 0.75607 0.18486 0.0
C1717 C 0.74814 0.74923 0.18 0.0
C1718 C 0.75903 0.75738 0.17604 0.0
C1719 C 0.75949 0.7719 0.17723 0.0
H1720 H 0.45935 0.49334 0.42085 0.0
H1721 H 0.46334 0.49185 0.44836 0.0
H1722 H 0.48597 0.49265 0.41954 0.0
H1723 H 0.48974 0.49119 0.44707 0.0
H1724 H 0.536 0.47867 0.44275 0.0
H1725 H 0.50957 0.47643 0.44252 0.0
H1726 H 0.50714 0.50744 0.42244 0.0
H1727 H 0.53373 0.50918 0.42236 0.0
C1728 C 0.46589 0.49287 0.42661 0.0
C1729 C 0.45921 0.49256 0.43471 0.0
C1730 C 0.48113 0.49247 0.42586 0.0
C1731 C 0.49 0.49177 0.4332 0.0
C1732 C 0.48327 0.4914 0.44128 0.0
C1733 C 0.46809 0.49178 0.44202 0.0
C1734 C 0.5299 0.48477 0.43813 0.0
C1735 C 0.53703 0.49416 0.4326 0.0
C1736 C 0.5147 0.48363 0.43809 0.0
C1737 C 0.50621 0.4919 0.43255 0.0
C1738 C 0.51335 0.50088 0.42677 0.0
C1739 C 0.52859 0.50199 0.42679 0.0
H1740 H 0.72928 0.29307 0.68175 0.0
H1741 H 0.77624 0.29504 0.67956 0.0
H1742 H 0.73025 0.26765 0.68077 0.0
H1743 H 0.77725 0.26953 0.67839 0.0
H1744 H 0.77376 0.22489 0.68967 0.0
H1745 H 0.77396 0.25018 0.68784 0.0
H1746 H 0.7351 0.24743 0.67223 0.0
H1747 H 0.73447 0.22216 0.67447 0.0
C1748 C 0.73979 0.28807 0.68085 0.0
C1749 C 0.75269 0.29605 0.68078 0.0
C1750 C 0.74036 0.27347 0.68026 0.0
C1751 C 0.75384 0.26649 0.67955 0.0
C1752 C 0.7667 0.27454 0.6791 0.0
C1753 C 0.76613 0.28915 0.67975 0.0
C1754 C 0.76525 0.22967 0.68585 0.0
C1755 C 0.75399 0.22149 0.68232 0.0
C1756 C 0.76547 0.24418 0.68469 0.0
C1757 C 0.75449 0.2509 0.67993 0.0
C1758 C 0.74361 0.24264 0.67605 0.0
C1759 C 0.74335 0.22811 0.67725 0.0
H1760 H 0.27049 0.22395 0.67473 0.0
H1761 H 0.23198 0.22586 0.69065 0.0
H1762 H 0.26913 0.24922 0.6725 0.0
H1763 H 0.23104 0.25113 0.68879 0.0
H1764 H 0.227 0.29577 0.68034 0.0
H1765 H 0.22671 0.27025 0.67927 0.0
H1766 H 0.27383 0.26966 0.68097 0.0
H1767 H 0.27408 0.29511 0.68188 0.0
C1768 C 0.26163 0.22973 0.67767 0.0
C1769 C 0.25142 0.22289 0.68294 0.0
C1770 C 0.26095 0.24425 0.67648 0.0
C1771 C 0.25006 0.25226 0.68053 0.0
C1772 C 0.23951 0.24532 0.6855 0.0
C1773 C 0.24016 0.23082 0.68667 0.0
C1774 C 0.23729 0.29017 0.68041 0.0
C1775 C 0.25055 0.29745 0.68124 0.0
C1776 C 0.23713 0.27554 0.67981 0.0
C1777 C 0.25024 0.26786 0.6801 0.0
C1778 C 0.26354 0.27521 0.6806 0.0
C1779 C 0.26369 0.28983 0.68114 0.0
H1780 H 0.23723 0.77435 0.17431 0.0
H1781 H 0.27127 0.77668 0.1934 0.0
H1782 H 0.23926 0.74884 0.17427 0.0
H1783 H 0.27374 0.75133 0.19306 0.0
H1784 H 0.25847 0.7068 0.1994 0.0
H1785 H 0.25884 0.73215 0.19816 0.0
H1786 H 0.25477 0.7287 0.17071 0.0
H1787 H 0.25444 0.70315 0.17196 0.0
C1788 C 0.24525 0.76944 0.17843 0.0
C1789 C 0.254 0.77759 0.1839 0.0
C1790 C 0.24653 0.75483 0.17833 0.0
C1791 C 0.25657 0.74803 0.18372 0.0
C1792 C 0.26573 0.75622 0.18893 0.0
C1793 C 0.26444 0.77079 0.18904 0.0
C1794 C 0.25792 0.7114 0.19307 0.0
C1795 C 0.25652 0.70291 0.18577 0.0
C1796 C 0.25812 0.72597 0.19236 0.0
C1797 C 0.25692 0.73248 0.18433 0.0
C1798 C 0.25559 0.72402 0.177 0.0
C1799 C 0.25539 0.70939 0.17771 0.0
H1800 H 0.2332 0.22783 0.83192 0.0
H1801 H 0.2697 0.2253 0.81446 0.0
H1802 H 0.23535 0.25332 0.83205 0.0
H1803 H 0.27223 0.25067 0.81489 0.0
H1804 H 0.25774 0.29525 0.80786 0.0
H1805 H 0.25805 0.2699 0.80913 0.0
H1806 H 0.25049 0.27337 0.83632 0.0
H1807 H 0.25024 0.29892 0.83505 0.0
C1808 C 0.24177 0.23269 0.82818 0.0
C1809 C 0.2512 0.2245 0.82312 0.0
C1810 C 0.24311 0.2473 0.82834 0.0
C1811 C 0.25388 0.25404 0.82342 0.0
C1812 C 0.26367 0.24581 0.81865 0.0
C1813 C 0.26233 0.23124 0.81849 0.0
C1814 C 0.25642 0.29066 0.81415 0.0
C1815 C 0.25404 0.29915 0.82136 0.0
C1816 C 0.25659 0.27609 0.81488 0.0
C1817 C 0.25436 0.26959 0.82284 0.0
C1818 C 0.2521 0.27805 0.83008 0.0
C1819 C 0.25195 0.29268 0.82936 0.0
H1820 H 0.24446 0.70586 0.3074 0.0
H1821 H 0.24745 0.70176 0.33487 0.0
H1822 H 0.24411 0.7312 0.30879 0.0
H1823 H 0.2471 0.7273 0.33627 0.0
H1824 H 0.26455 0.77304 0.33326 0.0
H1825 H 0.26263 0.74753 0.33308 0.0
H1826 H 0.22902 0.75026 0.31377 0.0
H1827 H 0.2314 0.77562 0.31364 0.0
C1828 C 0.24479 0.71036 0.31376 0.0
C1829 C 0.24589 0.70175 0.32103 0.0
C1830 C 0.24459 0.72492 0.31456 0.0
C1831 C 0.24548 0.73129 0.32265 0.0
C1832 C 0.24653 0.72271 0.32994 0.0
C1833 C 0.24673 0.70809 0.32914 0.0
C1834 C 0.25675 0.76819 0.32898 0.0
C1835 C 0.24822 0.77641 0.32342 0.0
C1836 C 0.25553 0.75357 0.32894 0.0
C1837 C 0.24576 0.74684 0.32335 0.0
C1838 C 0.23682 0.75509 0.31805 0.0
C1839 C 0.23806 0.76968 0.31807 0.0
H1840 H 0.4622 0.00773 0.57887 0.0
H1841 H 0.46779 0.04533 0.56384 0.0
H1842 H 0.48865 0.00632 0.5809 0.0
H1843 H 0.49415 0.04372 0.56565 0.0
H1844 H 0.54053 0.04313 0.57471 0.0
H1845 H 0.51407 0.04534 0.57592 0.0
H1846 H 0.5095 0.00082 0.57167 0.0
H1847 H 0.53597 0.99854 0.57075 0.0
C1848 C 0.46906 0.01579 0.57609 0.0
C1849 C 0.46293 0.02659 0.57114 0.0
C1850 C 0.48421 0.01491 0.57719 0.0
C1851 C 0.49352 0.02487 0.5734 0.0
C1852 C 0.4873 0.03595 0.56872 0.0
C1853 C 0.4722 0.03679 0.5676 0.0
C1854 C 0.5339 0.03377 0.57423 0.0
C1855 C 0.54036 0.02067 0.57257 0.0
C1856 C 0.51873 0.03505 0.57484 0.0
C1857 C 0.50966 0.02328 0.57381 0.0
C1858 C 0.51615 0.01009 0.57254 0.0
C1859 C 0.53133 0.0088 0.57192 0.0
H1860 H 0.03359 0.96775 0.08014 0.0
H1861 H 0.03573 0.00429 0.06385 0.0
H1862 H 0.00699 0.96953 0.08037 0.0
H1863 H 0.00929 0.00642 0.06441 0.0
H1864 H 0.96282 0.99339 0.05719 0.0
H1865 H 0.98926 0.99332 0.0583 0.0
H1866 H 0.98603 0.98346 0.0852 0.0
H1867 H 0.95938 0.98355 0.08409 0.0
C1868 C 0.02841 0.97624 0.07668 0.0
C1869 C 0.03682 0.98581 0.07192 0.0
C1870 C 0.01317 0.97735 0.0769 0.0
C1871 C 0.006 0.98805 0.07235 0.0
C1872 C 0.01445 0.99792 0.06788 0.0
C1873 C 0.02965 0.9968 0.06765 0.0
C1874 C 0.9677 0.99144 0.06338 0.0
C1875 C 0.95895 0.98857 0.07056 0.0
C1876 C 0.9829 0.99139 0.06402 0.0
C1877 C 0.98978 0.98848 0.07185 0.0
C1878 C 0.98107 0.98563 0.07906 0.0
C1879 C 0.9658 0.98568 0.07842 0.0
H1880 H 0.53782 0.97474 0.42333 0.0
H1881 H 0.53584 0.00051 0.44604 0.0
H1882 H 0.51117 0.97521 0.42239 0.0
H1883 H 0.50938 0.0011 0.44502 0.0
H1884 H 0.46276 0.00902 0.43752 0.0
H1885 H 0.48928 0.01002 0.43624 0.0
H1886 H 0.49034 0.96571 0.43063 0.0
H1887 H 0.46381 0.96469 0.43194 0.0
C1888 C 0.53173 0.98052 0.42811 0.0
C1889 C 0.53901 0.9876 0.43475 0.0
C1890 C 0.51647 0.9808 0.42756 0.0
C1891 C 0.50816 0.98822 0.43361 0.0
C1892 C 0.51546 0.9955 0.44016 0.0
C1893 C 0.53066 0.99517 0.44073 0.0
C1894 C 0.46865 0.9995 0.43598 0.0
C1895 C 0.46118 0.98674 0.43492 0.0
C1896 C 0.48384 1.00008 0.43524 0.0
C1897 C 0.49193 0.98792 0.43342 0.0
C1898 C 0.48442 0.97529 0.43197 0.0
C1899 C 0.4692 0.97471 0.43271 0.0
H1900 H 0.03365 0.04005 0.93598 0.0
H1901 H 0.03652 0.99616 0.92948 0.0
H1902 H 0.00714 0.0389 0.93499 0.0
H1903 H 0.00996 0.99501 0.92833 0.0
H1904 H 0.9635 0.99447 0.93978 0.0
H1905 H 0.98987 0.99541 0.93811 0.0
H1906 H 0.98609 0.03598 0.92602 0.0
H1907 H 0.95969 0.03533 0.92809 0.0
C1908 C 0.02862 0.03023 0.93414 0.0
C1909 C 0.03717 0.01818 0.93286 0.0
C1910 C 0.01341 0.02956 0.93356 0.0
C1911 C 0.00638 0.01683 0.93164 0.0
C1912 C 0.01499 0.00492 0.92999 0.0
C1913 C 0.03021 0.00557 0.93063 0.0
C1914 C 0.96828 0.0036 0.93677 0.0
C1915 C 0.95948 0.0149 0.93417 0.0
C1916 C 0.98342 0.00406 0.9357 0.0
C1917 C 0.99015 0.0158 0.93196 0.0
C1918 C 0.98129 0.02686 0.92903 0.0
C1919 C 0.96613 0.02642 0.93013 0.0
H1920 H 0.19746 0.60203 0.13636 0.0
H1921 H 0.21414 0.56472 0.14859 0.0
H1922 H 0.18496 0.58766 0.12582 0.0
H1923 H 0.20157 0.55027 0.13799 0.0
H1924 H 0.16227 0.53034 0.12373 0.0
H1925 H 0.17681 0.54371 0.13393 0.0
H1926 H 0.18945 0.57224 0.1138 0.0
H1927 H 0.17445 0.55921 0.10368 0.0
C1928 C 0.19863 0.59076 0.13674 0.0
C1929 C 0.20685 0.58454 0.14332 0.0
C1930 C 0.19146 0.5825 0.13067 0.0
C1931 C 0.19231 0.5678 0.13103 0.0
C1932 C 0.20056 0.56156 0.13759 0.0
C1933 C 0.20775 0.56984 0.14367 0.0
C1934 C 0.16813 0.53948 0.12149 0.0
C1935 C 0.16708 0.54376 0.1129 0.0
C1936 C 0.17661 0.54705 0.12732 0.0
C1937 C 0.18423 0.5591 0.1247 0.0
C1938 C 0.18355 0.56312 0.11605 0.0
C1939 C 0.17508 0.55555 0.11022 0.0
H1940 H 0.68064 0.88462 0.36362 0.0
H1941 H 0.71702 0.91343 0.36335 0.0
H1942 H 0.66834 0.89912 0.37421 0.0
H1943 H 0.70448 0.92821 0.37384 0.0
H1944 H 0.68387 0.94123 0.39995 0.0
H1945 H 0.69687 0.92757 0.38911 0.0
H1946 H 0.65654 0.92195 0.37521 0.0
H1947 H 0.64352 0.93515 0.38612 0.0
C1948 C 0.68602 0.89407 0.36583 0.0
C1949 C 0.69984 0.89784 0.36266 0.0
C1950 C 0.6789 0.90245 0.37184 0.0
C1951 C 0.68541 0.91484 0.37486 0.0
C1952 C 0.69922 0.91867 0.37169 0.0
C1953 C 0.70634 0.91029 0.36562 0.0
C1954 C 0.67779 0.93703 0.39459 0.0
C1955 C 0.66265 0.9393 0.39391 0.0
C1956 C 0.68526 0.92933 0.38834 0.0
C1957 C 0.67773 0.92364 0.38131 0.0
C1958 C 0.66264 0.92605 0.38059 0.0
C1959 C 0.6552 0.93377 0.3868 0.0
H1960 H 0.31731 0.46586 0.60794 0.0
H1961 H 0.35674 0.45089 0.62006 0.0
H1962 H 0.30269 0.45347 0.6186 0.0
H1963 H 0.34219 0.43856 0.63067 0.0
H1964 H 0.31303 0.42777 0.65292 0.0
H1965 H 0.3261 0.4425 0.64274 0.0
H1966 H 0.29655 0.42954 0.62271 0.0
H1967 H 0.28311 0.41525 0.63296 0.0
C1968 C 0.32286 0.45989 0.61285 0.0
C1969 C 0.3382 0.45942 0.61316 0.0
C1970 C 0.31448 0.4528 0.61897 0.0
C1971 C 0.32126 0.44507 0.62552 0.0
C1972 C 0.3366 0.44465 0.62583 0.0
C1973 C 0.34495 0.45172 0.61973 0.0
C1974 C 0.30914 0.42827 0.64638 0.0
C1975 C 0.29706 0.42026 0.64375 0.0
C1976 C 0.31675 0.43658 0.64052 0.0
C1977 C 0.31247 0.43711 0.63189 0.0
C1978 C 0.3001 0.42946 0.62932 0.0
C1979 C 0.29249 0.42113 0.63518 0.0
H1980 H 0.8385 0.04534 0.88557 0.0
H1981 H 0.82885 0.0782 0.90371 0.0
H1982 H 0.82441 0.05767 0.87467 0.0
H1983 H 0.81477 0.09053 0.89282 0.0
H1984 H 0.78065 0.10369 0.87328 0.0
H1985 H 0.79269 0.08953 0.88419 0.0
H1986 H 0.82668 0.07888 0.86615 0.0
H1987 H 0.81466 0.09304 0.85526 0.0
C1988 C 0.83338 0.0552 0.88723 0.0
C1989 C 0.83487 0.06081 0.89551 0.0
C1990 C 0.82531 0.06227 0.88098 0.0
C1991 C 0.81851 0.07513 0.88285 0.0
C1992 C 0.81969 0.08056 0.89119 0.0
C1993 C 0.82777 0.07349 0.89744 0.0
C1994 C 0.79071 0.09834 0.87164 0.0
C1995 C 0.79672 0.09956 0.86339 0.0
C1996 C 0.79761 0.09023 0.8779 0.0
C1997 C 0.81069 0.08311 0.87607 0.0
C1998 C 0.81652 0.08407 0.86776 0.0
C1999 C 0.80962 0.09219 0.8615 0.0
H2000 H 0.18583 0.46579 0.89823 0.0
H2001 H 0.14633 0.45233 0.88555 0.0
H2002 H 0.20039 0.45377 0.88737 0.0
H2003 H 0.1608 0.44036 0.87476 0.0
H2004 H 0.19002 0.42971 0.85257 0.0
H2005 H 0.17715 0.44434 0.86288 0.0
H2006 H 0.20612 0.43002 0.88286 0.0
H2007 H 0.21938 0.41585 0.87248 0.0
C2008 C 0.18026 0.46025 0.89314 0.0
C2009 C 0.16491 0.46007 0.89275 0.0
C2010 C 0.1886 0.45336 0.88692 0.0
C2011 C 0.18177 0.44613 0.88017 0.0
C2012 C 0.16644 0.44606 0.87976 0.0
C2013 C 0.15812 0.45293 0.88596 0.0
C2014 C 0.19383 0.42988 0.85913 0.0
C2015 C 0.20569 0.42153 0.8617 0.0
C2016 C 0.18633 0.43815 0.86507 0.0
C2017 C 0.1905 0.43826 0.87372 0.0
C2018 C 0.20266 0.43027 0.87624 0.0
C2019 C 0.21016 0.422 0.8703 0.0
H2020 H 0.78066 0.89532 0.13341 0.0
H2021 H 0.81477 0.90581 0.15138 0.0
H2022 H 0.79258 0.90965 0.12253 0.0
H2023 H 0.82667 0.92014 0.14053 0.0
H2024 H 0.83823 0.95402 0.12132 0.0
H2025 H 0.82424 0.94147 0.13216 0.0
H2026 H 0.8146 0.9089 0.11382 0.0
H2027 H 0.82859 0.92145 0.10298 0.0
C2028 C 0.79071 0.90067 0.13504 0.0
C2029 C 0.79678 0.89936 0.14327 0.0
C2030 C 0.79755 0.90888 0.1288 0.0
C2031 C 0.81061 0.91601 0.13064 0.0
C2032 C 0.81651 0.91495 0.13892 0.0
C2033 C 0.80968 0.90674 0.14516 0.0
C2034 C 0.83314 0.94417 0.1196 0.0
C2035 C 0.83461 0.93871 0.11129 0.0
C2036 C 0.82512 0.93697 0.12582 0.0
C2037 C 0.81836 0.92413 0.12388 0.0
C2038 C 0.81951 0.91885 0.1155 0.0
C2039 C 0.82753 0.92605 0.10928 0.0
H2040 H 0.27893 0.58485 0.37237 0.0
H2041 H 0.31207 0.57444 0.35375 0.0
H2042 H 0.29136 0.57037 0.38297 0.0
H2043 H 0.32449 0.55998 0.36434 0.0
H2044 H 0.33709 0.52605 0.38333 0.0
H2045 H 0.32255 0.53861 0.37273 0.0
H2046 H 0.31382 0.57117 0.39124 0.0
H2047 H 0.32834 0.55862 0.40182 0.0
C2048 C 0.28888 0.57948 0.37054 0.0
C2049 C 0.29454 0.58086 0.36222 0.0
C2050 C 0.296 0.57118 0.37662 0.0
C2051 C 0.30896 0.56406 0.37452 0.0
C2052 C 0.31443 0.56517 0.36614 0.0
C2053 C 0.3073 0.57347 0.36006 0.0
C2054 C 0.33207 0.53589 0.38513 0.0
C2055 C 0.33394 0.54135 0.39342 0.0
C2056 C 0.32374 0.54309 0.37906 0.0
C2057 C 0.31707 0.55593 0.38112 0.0
C2058 C 0.31864 0.56122 0.38947 0.0
C2059 C 0.32697 0.55401 0.39554 0.0
H2060 H 0.64496 0.0646 0.62054 0.0
H2061 H 0.68466 0.06253 0.60565 0.0
H2062 H 0.65776 0.07759 0.63163 0.0
H2063 H 0.6974 0.076 0.61668 0.0
H2064 H 0.71835 0.08933 0.64233 0.0
H2065 H 0.70613 0.0746 0.63169 0.0
H2066 H 0.66792 0.10104 0.63318 0.0
H2067 H 0.67992 0.11546 0.64392 0.0
C2068 C 0.65646 0.06681 0.61966 0.0
C2069 C 0.66378 0.06248 0.6122 0.0
C2070 C 0.66376 0.07441 0.62598 0.0
C2071 C 0.67858 0.07791 0.62502 0.0
C2072 C 0.68601 0.07339 0.61764 0.0
C2073 C 0.67867 0.0658 0.61129 0.0
C2074 C 0.70728 0.09189 0.64044 0.0
C2075 C 0.70011 0.10358 0.64396 0.0
C2076 C 0.70035 0.08354 0.63429 0.0
C2077 C 0.68605 0.08664 0.63159 0.0
C2078 C 0.67887 0.09826 0.63518 0.0
C2079 C 0.68581 0.10662 0.64128 0.0
H2080 H 0.81173 0.42801 0.85246 0.0
H2081 H 0.78386 0.41417 0.8731 0.0
H2082 H 0.82479 0.44329 0.86233 0.0
H2083 H 0.79732 0.42902 0.88304 0.0
H2084 H 0.81754 0.46593 0.89746 0.0
H2085 H 0.80269 0.45312 0.88709 0.0
H2086 H 0.84188 0.43997 0.87395 0.0
H2087 H 0.85665 0.4527 0.88427 0.0
C2088 C 0.80828 0.42833 0.85908 0.0
C2089 C 0.79679 0.4198 0.86199 0.0
C2090 C 0.81589 0.43697 0.86477 0.0
C2091 C 0.8122 0.43728 0.8735 0.0
C2092 C 0.8004 0.4291 0.87635 0.0
C2093 C 0.79279 0.42046 0.87067 0.0
C2094 C 0.82297 0.46027 0.89237 0.0
C2095 C 0.83828 0.46039 0.89168 0.0
C2096 C 0.81446 0.45294 0.88642 0.0
C2097 C 0.82109 0.44556 0.87966 0.0
C2098 C 0.83639 0.44576 0.87897 0.0
C2099 C 0.84487 0.45307 0.88489 0.0
H2100 H 0.29077 0.08331 0.648 0.0
H2101 H 0.30349 0.12095 0.63457 0.0
H2102 H 0.30272 0.06913 0.63702 0.0
H2103 H 0.31541 0.10686 0.62367 0.0
H2104 H 0.32539 0.07842 0.60153 0.0
H2105 H 0.31069 0.09087 0.61206 0.0
H2106 H 0.32705 0.06358 0.63192 0.0
H2107 H 0.34126 0.05073 0.62132 0.0
C2108 C 0.29614 0.08856 0.64272 0.0
C2109 C 0.29611 0.10327 0.64215 0.0
C2110 C 0.30299 0.08043 0.63643 0.0
C2111 C 0.30998 0.08684 0.62942 0.0
C2112 C 0.30988 0.10154 0.62886 0.0
C2113 C 0.30304 0.10964 0.63513 0.0
C2114 C 0.32563 0.07488 0.60811 0.0
C2115 C 0.33459 0.06361 0.61057 0.0
C2116 C 0.31733 0.08214 0.61417 0.0
C2117 C 0.3178 0.07834 0.62286 0.0
C2118 C 0.32635 0.06676 0.62528 0.0
C2119 C 0.33464 0.05948 0.61921 0.0
H2120 H 0.71161 0.5668 0.35749 0.0
H2121 H 0.69612 0.60428 0.37007 0.0
H2122 H 0.69878 0.55247 0.36804 0.0
H2123 H 0.68335 0.59002 0.38056 0.0
H2124 H 0.67224 0.56139 0.40253 0.0
H2125 H 0.68749 0.57426 0.39245 0.0
H2126 H 0.6739 0.54645 0.37215 0.0
H2127 H 0.65911 0.53323 0.3823 0.0
C2128 C 0.70543 0.57198 0.36248 0.0
C2129 C 0.70494 0.58669 0.36295 0.0
C2130 C 0.69809 0.56377 0.36853 0.0
C2131 C 0.69008 0.57009 0.37518 0.0
C2132 C 0.68965 0.5848 0.37564 0.0
C2133 C 0.69698 0.59298 0.36961 0.0
C2134 C 0.67272 0.55785 0.39595 0.0
C2135 C 0.66439 0.54631 0.39322 0.0
C2136 C 0.68133 0.56534 0.39015 0.0
C2137 C 0.68182 0.56147 0.38147 0.0
C2138 C 0.67385 0.54967 0.37879 0.0
C2139 C 0.66524 0.54218 0.3846 0.0
H2140 H 0.17376 0.95207 0.11429 0.0
H2141 H 0.1572 0.91167 0.10648 0.0
H2142 H 0.18886 0.94068 0.12517 0.0
H2143 H 0.17185 0.90038 0.11748 0.0
H2144 H 0.20906 0.88252 0.13276 0.0
H2145 H 0.1968 0.895 0.12126 0.0
H2146 H 0.1856 0.92832 0.13878 0.0
H2147 H 0.19844 0.91607 0.15025 0.0
C2148 C 0.17343 0.94076 0.11485 0.0
C2149 C 0.16424 0.93278 0.10954 0.0
C2150 C 0.18196 0.93425 0.12114 0.0
C2151 C 0.18155 0.91962 0.12222 0.0
C2152 C 0.17257 0.91165 0.11678 0.0
C2153 C 0.16404 0.91814 0.11053 0.0
C2154 C 0.20424 0.89263 0.13414 0.0
C2155 C 0.20475 0.89827 0.14245 0.0
C2156 C 0.19704 0.89972 0.12756 0.0
C2157 C 0.19011 0.91262 0.1291 0.0
C2158 C 0.19091 0.91845 0.13735 0.0
C2159 C 0.19813 0.91135 0.14395 0.0
H2160 H 0.85246 0.53688 0.12292 0.0
H2161 H 0.82227 0.55209 0.10381 0.0
H2162 H 0.83832 0.54846 0.13402 0.0
H2163 H 0.80862 0.56439 0.11487 0.0
H2164 H 0.77997 0.57587 0.1375 0.0
H2165 H 0.79277 0.56168 0.12688 0.0
H2166 H 0.83389 0.57156 0.13906 0.0
H2167 H 0.82104 0.58544 0.14973 0.0
C2168 C 0.84275 0.54261 0.12108 0.0
C2169 C 0.83854 0.54355 0.11244 0.0
C2170 C 0.83474 0.54943 0.12745 0.0
C2171 C 0.82237 0.55747 0.12536 0.0
C2172 C 0.818 0.5582 0.11674 0.0
C2173 C 0.82596 0.55129 0.11037 0.0
C2174 C 0.79174 0.57496 0.1379 0.0
C2175 C 0.79949 0.58176 0.14445 0.0
C2176 C 0.7991 0.56687 0.1318 0.0
C2177 C 0.81439 0.56548 0.13208 0.0
C2178 C 0.82209 0.57216 0.13872 0.0
C2179 C 0.81473 0.58016 0.14484 0.0
H2180 H 0.18426 0.05709 0.89994 0.0
H2181 H 0.14476 0.0678 0.88632 0.0
H2182 H 0.1987 0.06932 0.88911 0.0
H2183 H 0.15909 0.08002 0.87558 0.0
H2184 H 0.1886 0.09109 0.85365 0.0
H2185 H 0.17608 0.07636 0.86406 0.0
H2186 H 0.20356 0.09288 0.88413 0.0
H2187 H 0.21653 0.10712 0.87366 0.0
C2188 C 0.17866 0.06209 0.89466 0.0
C2189 C 0.16336 0.0614 0.89398 0.0
C2190 C 0.18693 0.0691 0.88845 0.0
C2191 C 0.18007 0.07561 0.88143 0.0
C2192 C 0.16478 0.07488 0.88077 0.0
C2193 C 0.15654 0.06787 0.88696 0.0
C2194 C 0.19218 0.09137 0.86025 0.0
C2195 C 0.20353 0.10037 0.86282 0.0
C2196 C 0.18487 0.08305 0.86624 0.0
C2197 C 0.18869 0.08354 0.87496 0.0
C2198 C 0.20037 0.09217 0.87747 0.0
C2199 C 0.2077 0.10047 0.87148 0.0
H2200 H 0.69504 0.43277 0.6517 0.0
H2201 H 0.71376 0.40586 0.63235 0.0
H2202 H 0.68236 0.44597 0.64063 0.0
H2203 H 0.70177 0.41954 0.62128 0.0
H2204 H 0.66327 0.43516 0.60511 0.0
H2205 H 0.67773 0.4229 0.61582 0.0
H2206 H 0.68532 0.46205 0.629 0.0
H2207 H 0.67059 0.47426 0.61833 0.0
C2208 C 0.69654 0.42972 0.64509 0.0
C2209 C 0.70537 0.41817 0.64295 0.0
C2210 C 0.68941 0.43742 0.63872 0.0
C2211 C 0.69099 0.43381 0.63004 0.0
C2212 C 0.70013 0.4225 0.62789 0.0
C2213 C 0.70718 0.41476 0.63426 0.0
C2214 C 0.6682 0.44118 0.61023 0.0
C2215 C 0.66577 0.45568 0.61087 0.0
C2216 C 0.67651 0.43415 0.61637 0.0
C2217 C 0.6827 0.44146 0.6233 0.0
C2218 C 0.68052 0.45604 0.62384 0.0
C2219 C 0.67212 0.46305 0.61771 0.0
H2220 H 0.31409 0.90907 0.35436 0.0
H2221 H 0.2862 0.89283 0.37433 0.0
H2222 H 0.32629 0.92406 0.36476 0.0
H2223 H 0.29883 0.90737 0.38479 0.0
H2224 H 0.31699 0.94386 0.40044 0.0
H2225 H 0.30305 0.93117 0.38958 0.0
H2226 H 0.34316 0.9209 0.37644 0.0
H2227 H 0.35701 0.93356 0.38722 0.0
C2228 C 0.31046 0.90878 0.36095 0.0
C2229 C 0.29921 0.89967 0.36351 0.0
C2230 C 0.31758 0.91726 0.36694 0.0
C2231 C 0.31365 0.91684 0.37564 0.0
C2232 C 0.30209 0.90804 0.37814 0.0
C2233 C 0.29497 0.89957 0.37216 0.0
C2234 C 0.32281 0.93886 0.39524 0.0
C2235 C 0.33812 0.93978 0.39469 0.0
C2236 C 0.31483 0.93159 0.38902 0.0
C2237 C 0.32197 0.92505 0.38211 0.0
C2238 C 0.33726 0.92604 0.38156 0.0
C2239 C 0.34522 0.9333 0.38776 0.0
loop_
_geom_bond_atom_site_label_1
_geom_bond_atom_site_label_2
_geom_bond_distance
_geom_bond_site_symmetry_2
_ccdc_geom_bond_type
C0 C1 1.264 . S
C0 C5 1.479 . S
C0 C10 1.465 . S
C1 C0 1.264 . S
C1 C3 1.339 . S
C1 H28 0.931 . S
C2 C3 1.395 . S
C2 C4 1.320 . S
C3 C1 1.339 . S
C3 C2 1.395 . S
C3 H29 0.929 . S
C4 C2 1.320 . S
C4 C5 1.405 . S
C4 H30 0.930 . S
C5 C0 1.479 . S
C5 C4 1.405 . S
C5 H31 0.931 . S
U6 O7 2.454 . S
U6 O8 2.458 . S
U6 C9 2.984 . S
U6 C10 2.847 . S
U6 C23 2.882 . S
U6 O24 2.441 . S
U6 O25 2.420 . S
U6 O26 2.455 . S
U6 O27 2.449 . S
O7 U6 2.454 . S
O7 C9 1.353 . S
O8 U6 2.458 . S
O8 C9 1.286 . S
C9 U6 2.984 . S
C9 O7 1.353 . S
C9 O8 1.286 . S
C9 C11 1.363 . S
C10 C0 1.465 . S
C10 U6 2.847 . S
C10 O24 1.249 . S
C10 O25 1.202 . S
C11 C9 1.363 . S
C11 C13 1.408 . S
C11 C16 1.342 . S
C12 C13 1.310 . S
C12 C15 1.461 . S
C12 H32 0.932 . S
C13 C11 1.408 . S
C13 C12 1.310 . S
C13 H33 0.930 . S
C14 C15 1.474 . S
C14 C16 1.285 . S
C14 H34 0.929 . S
C15 C12 1.461 . S
C15 C14 1.474 . S
C16 C11 1.342 . S
C16 C14 1.285 . S
C16 H35 0.930 . S
C17 C20 1.424 . S
C17 C22 1.245 . S
C17 C23 1.428 . S
C18 C21 1.260 . S
C18 C22 1.477 . S
C18 H36 0.932 . S
C19 C20 1.384 . S
C19 C21 1.479 . S
C19 H37 0.929 . S
C20 C17 1.424 . S
C20 C19 1.384 . S
C20 H38 0.928 . S
C21 C18 1.260 . S
C21 C19 1.479 . S
C22 C17 1.245 . S
C22 C18 1.477 . S
C22 H39 0.932 . S
C23 U6 2.882 . S
C23 C17 1.428 . S
C23 O26 1.301 . S
C23 O27 1.282 . S
O24 U6 2.441 . S
O24 C10 1.249 . S
O25 U6 2.420 . S
O25 C10 1.202 . S
O26 U6 2.455 . S
O26 C23 1.301 . S
O27 U6 2.449 . S
O27 C23 1.282 . S
H28 C1 0.931 . S
H29 C3 0.929 . S
H30 C4 0.930 . S
H31 C5 0.931 . S
H32 C12 0.932 . S
H33 C13 0.930 . S
H34 C14 0.929 . S
H35 C16 0.930 . S
H36 C18 0.932 . S
H37 C19 0.929 . S
H38 C20 0.928 . S
H39 C22 0.932 . S
C40 C41 1.264 . S
C40 C45 1.479 . S
C40 C50 1.465 . S
C41 C40 1.264 . S
C41 C43 1.339 . S
C41 H68 0.931 . S
C42 C43 1.395 . S
C42 C44 1.320 . S
C43 C41 1.339 . S
C43 C42 1.395 . S
C43 H69 0.929 . S
C44 C42 1.320 . S
C44 C45 1.405 . S
C44 H70 0.930 . S
C45 C40 1.479 . S
C45 C44 1.405 . S
C45 H71 0.931 . S
U46 O47 2.454 . S
U46 O48 2.458 . S
U46 C49 2.984 . S
U46 C50 2.847 . S
U46 C63 2.882 . S
U46 O64 2.441 . S
U46 O65 2.420 . S
U46 O66 2.455 . S
U46 O67 2.449 . S
O47 U46 2.454 . S
O47 C49 1.353 . S
O48 U46 2.458 . S
O48 C49 1.286 . S
C49 U46 2.984 . S
C49 O47 1.353 . S
C49 O48 1.286 . S
C49 C51 1.363 . S
C50 C40 1.465 . S
C50 U46 2.847 . S
C50 O64 1.249 . S
C50 O65 1.202 . S
C51 C49 1.363 . S
C51 C53 1.408 . S
C51 C56 1.342 . S
C52 C53 1.310 . S
C52 C55 1.461 . S
C52 H72 0.932 . S
C53 C51 1.408 . S
C53 C52 1.310 . S
C53 H73 0.930 . S
C54 C55 1.474 . S
C54 C56 1.285 . S
C54 H74 0.929 . S
C55 C52 1.461 . S
C55 C54 1.474 . S
C56 C51 1.342 . S
C56 C54 1.285 . S
C56 H75 0.930 . S
C57 C60 1.424 . S
C57 C62 1.245 . S
C57 C63 1.428 . S
C58 C61 1.260 . S
C58 C62 1.477 . S
C58 H76 0.932 . S
C59 C60 1.384 . S
C59 C61 1.479 . S
C59 H77 0.929 . S
C60 C57 1.424 . S
C60 C59 1.384 . S
C60 H78 0.928 . S
C61 C58 1.260 . S
C61 C59 1.479 . S
C62 C57 1.245 . S
C62 C58 1.477 . S
C62 H79 0.932 . S
C63 U46 2.882 . S
C63 C57 1.428 . S
C63 O66 1.301 . S
C63 O67 1.282 . S
O64 U46 2.441 . S
O64 C50 1.249 . S
O65 U46 2.420 . S
O65 C50 1.202 . S
O66 U46 2.455 . S
O66 C63 1.301 . S
O67 U46 2.449 . S
O67 C63 1.282 . S
H68 C41 0.931 . S
H69 C43 0.929 . S
H70 C44 0.930 . S
H71 C45 0.931 . S
H72 C52 0.932 . S
H73 C53 0.930 . S
H74 C54 0.929 . S
H75 C56 0.930 . S
H76 C58 0.932 . S
H77 C59 0.929 . S
H78 C60 0.928 . S
H79 C62 0.932 . S
C80 C81 1.264 . S
C80 C85 1.479 . S
C80 C90 1.465 . S
C81 C80 1.264 . S
C81 C83 1.339 . S
C81 H108 0.931 . S
C82 C83 1.395 . S
C82 C84 1.320 . S
C83 C81 1.339 . S
C83 C82 1.395 . S
C83 H109 0.929 . S
C84 C82 1.320 . S
C84 C85 1.405 . S
C84 H110 0.930 . S
C85 C80 1.479 . S
C85 C84 1.405 . S
C85 H111 0.931 . S
U86 O87 2.454 . S
U86 O88 2.458 . S
U86 C89 2.984 . S
U86 C90 2.847 . S
U86 C103 2.882 . S
U86 O104 2.441 . S
U86 O105 2.420 . S
U86 O106 2.455 . S
U86 O107 2.449 . S
O87 U86 2.454 . S
O87 C89 1.353 . S
O88 U86 2.458 . S
O88 C89 1.286 . S
C89 U86 2.984 . S
C89 O87 1.353 . S
C89 O88 1.286 . S
C89 C91 1.363 . S
C90 C80 1.465 . S
C90 U86 2.847 . S
C90 O104 1.249 . S
C90 O105 1.202 . S
C91 C89 1.363 . S
C91 C93 1.408 . S
C91 C96 1.342 . S
C92 C93 1.310 . S
C92 C95 1.461 . S
C92 H112 0.932 . S
C93 C91 1.408 . S
C93 C92 1.310 . S
C93 H113 0.930 . S
C94 C95 1.474 . S
C94 C96 1.285 . S
C94 H114 0.929 . S
C95 C92 1.461 . S
C95 C94 1.474 . S
C96 C91 1.342 . S
C96 C94 1.285 . S
C96 H115 0.930 . S
C97 C100 1.424 . S
C97 C102 1.245 . S
C97 C103 1.428 . S
C98 C101 1.260 . S
C98 C102 1.477 . S
C98 H116 0.932 . S
C99 C100 1.384 . S
C99 C101 1.479 . S
C99 H117 0.929 . S
C100 C97 1.424 . S
C100 C99 1.384 . S
C100 H118 0.928 . S
C101 C98 1.260 . S
C101 C99 1.479 . S
C102 C97 1.245 . S
C102 C98 1.477 . S
C102 H119 0.932 . S
C103 U86 2.882 . S
C103 C97 1.428 . S
C103 O106 1.301 . S
C103 O107 1.282 . S
O104 U86 2.441 . S
O104 C90 1.249 . S
O105 U86 2.420 . S
O105 C90 1.202 . S
O106 U86 2.455 . S
O106 C103 1.301 . S
O107 U86 2.449 . S
O107 C103 1.282 . S
H108 C81 0.931 . S
H109 C83 0.929 . S
H110 C84 0.930 . S
H111 C85 0.931 . S
H112 C92 0.932 . S
H113 C93 0.930 . S
H114 C94 0.929 . S
H115 C96 0.930 . S
H116 C98 0.932 . S
H117 C99 0.929 . S
H118 C100 0.928 . S
H119 C102 0.932 . S
C120 C121 1.264 . S
C120 C125 1.479 . S
C120 C130 1.465 . S
C121 C120 1.264 . S
C121 C123 1.339 . S
C121 H148 0.931 . S
C122 C123 1.395 . S
C122 C124 1.320 . S
C123 C121 1.339 . S
C123 C122 1.395 . S
C123 H149 0.929 . S
C124 C122 1.320 . S
C124 C125 1.405 . S
C124 H150 0.930 . S
C125 C120 1.479 . S
C125 C124 1.405 . S
C125 H151 0.931 . S
U126 O127 2.454 . S
U126 O128 2.458 . S
U126 C129 2.984 . S
U126 C130 2.847 . S
U126 C143 2.882 . S
U126 O144 2.441 . S
U126 O145 2.420 . S
U126 O146 2.455 . S
U126 O147 2.449 . S
O127 U126 2.454 . S
O127 C129 1.353 . S
O128 U126 2.458 . S
O128 C129 1.286 . S
C129 U126 2.984 . S
C129 O127 1.353 . S
C129 O128 1.286 . S
C129 C131 1.363 . S
C130 C120 1.465 . S
C130 U126 2.847 . S
C130 O144 1.249 . S
C130 O145 1.202 . S
C131 C129 1.363 . S
C131 C133 1.408 . S
C131 C136 1.342 . S
C132 C133 1.310 . S
C132 C135 1.461 . S
C132 H152 0.932 . S
C133 C131 1.408 . S
C133 C132 1.310 . S
C133 H153 0.930 . S
C134 C135 1.474 . S
C134 C136 1.285 . S
C134 H154 0.929 . S
C135 C132 1.461 . S
C135 C134 1.474 . S
C136 C131 1.342 . S
C136 C134 1.285 . S
C136 H155 0.930 . S
C137 C140 1.424 . S
C137 C142 1.245 . S
C137 C143 1.428 . S
C138 C141 1.260 . S
C138 C142 1.477 . S
C138 H156 0.932 . S
C139 C140 1.384 . S
C139 C141 1.479 . S
C139 H157 0.929 . S
C140 C137 1.424 . S
C140 C139 1.384 . S
C140 H158 0.928 . S
C141 C138 1.260 . S
C141 C139 1.479 . S
C142 C137 1.245 . S
C142 C138 1.477 . S
C142 H159 0.932 . S
C143 U126 2.882 . S
C143 C137 1.428 . S
C143 O146 1.301 . S
C143 O147 1.282 . S
O144 U126 2.441 . S
O144 C130 1.249 . S
O145 U126 2.420 . S
O145 C130 1.202 . S
O146 U126 2.455 . S
O146 C143 1.301 . S
O147 U126 2.449 . S
O147 C143 1.282 . S
H148 C121 0.931 . S
H149 C123 0.929 . S
H150 C124 0.930 . S
H151 C125 0.931 . S
H152 C132 0.932 . S
H153 C133 0.930 . S
H154 C134 0.929 . S
H155 C136 0.930 . S
H156 C138 0.932 . S
H157 C139 0.929 . S
H158 C140 0.928 . S
H159 C142 0.932 . S
C160 C161 1.264 . S
C160 C165 1.479 . S
C160 C170 1.465 . S
C161 C160 1.264 . S
C161 C163 1.339 . S
C161 H188 0.931 . S
C162 C163 1.395 . S
C162 C164 1.320 . S
C163 C161 1.339 . S
C163 C162 1.395 . S
C163 H189 0.929 . S
C164 C162 1.320 . S
C164 C165 1.405 . S
C164 H190 0.930 . S
C165 C160 1.479 . S
C165 C164 1.405 . S
C165 H191 0.931 . S
U166 O167 2.454 . S
U166 O168 2.458 . S
U166 C169 2.984 . S
U166 C170 2.847 . S
U166 C183 2.882 . S
U166 O184 2.441 . S
U166 O185 2.420 . S
U166 O186 2.455 . S
U166 O187 2.449 . S
O167 U166 2.454 . S
O167 C169 1.353 . S
O168 U166 2.458 . S
O168 C169 1.286 . S
C169 U166 2.984 . S
C169 O167 1.353 . S
C169 O168 1.286 . S
C169 C171 1.363 . S
C170 C160 1.465 . S
C170 U166 2.847 . S
C170 O184 1.249 . S
C170 O185 1.202 . S
C171 C169 1.363 . S
C171 C173 1.408 . S
C171 C176 1.342 . S
C172 C173 1.310 . S
C172 C175 1.461 . S
C172 H192 0.932 . S
C173 C171 1.408 . S
C173 C172 1.310 . S
C173 H193 0.930 . S
C174 C175 1.474 . S
C174 C176 1.285 . S
C174 H194 0.929 . S
C175 C172 1.461 . S
C175 C174 1.474 . S
C176 C171 1.342 . S
C176 C174 1.285 . S
C176 H195 0.930 . S
C177 C180 1.424 . S
C177 C182 1.245 . S
C177 C183 1.428 . S
C178 C181 1.260 . S
C178 C182 1.477 . S
C178 H196 0.932 . S
C179 C180 1.384 . S
C179 C181 1.479 . S
C179 H197 0.929 . S
C180 C177 1.424 . S
C180 C179 1.384 . S
C180 H198 0.928 . S
C181 C178 1.260 . S
C181 C179 1.479 . S
C182 C177 1.245 . S
C182 C178 1.477 . S
C182 H199 0.932 . S
C183 U166 2.882 . S
C183 C177 1.428 . S
C183 O186 1.301 . S
C183 O187 1.282 . S
O184 U166 2.441 . S
O184 C170 1.249 . S
O185 U166 2.420 . S
O185 C170 1.202 . S
O186 U166 2.455 . S
O186 C183 1.301 . S
O187 U166 2.449 . S
O187 C183 1.282 . S
H188 C161 0.931 . S
H189 C163 0.929 . S
H190 C164 0.930 . S
H191 C165 0.931 . S
H192 C172 0.932 . S
H193 C173 0.930 . S
H194 C174 0.929 . S
H195 C176 0.930 . S
H196 C178 0.932 . S
H197 C179 0.929 . S
H198 C180 0.928 . S
H199 C182 0.932 . S
C200 C201 1.264 . S
C200 C205 1.479 . S
C200 C210 1.465 . S
C201 C200 1.264 . S
C201 C203 1.339 . S
C201 H228 0.931 . S
C202 C203 1.395 . S
C202 C204 1.320 . S
C203 C201 1.339 . S
C203 C202 1.395 . S
C203 H229 0.929 . S
C204 C202 1.320 . S
C204 C205 1.405 . S
C204 H230 0.930 . S
C205 C200 1.479 . S
C205 C204 1.405 . S
C205 H231 0.931 . S
U206 O207 2.454 . S
U206 O208 2.458 . S
U206 C209 2.984 . S
U206 C210 2.847 . S
U206 C223 2.882 . S
U206 O224 2.441 . S
U206 O225 2.420 . S
U206 O226 2.455 . S
U206 O227 2.449 . S
O207 U206 2.454 . S
O207 C209 1.353 . S
O208 U206 2.458 . S
O208 C209 1.286 . S
C209 U206 2.984 . S
C209 O207 1.353 . S
C209 O208 1.286 . S
C209 C211 1.363 . S
C210 C200 1.465 . S
C210 U206 2.847 . S
C210 O224 1.249 . S
C210 O225 1.202 . S
C211 C209 1.363 . S
C211 C213 1.408 . S
C211 C216 1.342 . S
C212 C213 1.310 . S
C212 C215 1.461 . S
C212 H232 0.932 . S
C213 C211 1.408 . S
C213 C212 1.310 . S
C213 H233 0.930 . S
C214 C215 1.474 . S
C214 C216 1.285 . S
C214 H234 0.929 . S
C215 C212 1.461 . S
C215 C214 1.474 . S
C216 C211 1.342 . S
C216 C214 1.285 . S
C216 H235 0.930 . S
C217 C220 1.424 . S
C217 C222 1.245 . S
C217 C223 1.428 . S
C218 C221 1.260 . S
C218 C222 1.477 . S
C218 H236 0.932 . S
C219 C220 1.384 . S
C219 C221 1.479 . S
C219 H237 0.929 . S
C220 C217 1.424 . S
C220 C219 1.384 . S
C220 H238 0.928 . S
C221 C218 1.260 . S
C221 C219 1.479 . S
C222 C217 1.245 . S
C222 C218 1.477 . S
C222 H239 0.932 . S
C223 U206 2.882 . S
C223 C217 1.428 . S
C223 O226 1.301 . S
C223 O227 1.282 . S
O224 U206 2.441 . S
O224 C210 1.249 . S
O225 U206 2.420 . S
O225 C210 1.202 . S
O226 U206 2.455 . S
O226 C223 1.301 . S
O227 U206 2.449 . S
O227 C223 1.282 . S
H228 C201 0.931 . S
H229 C203 0.929 . S
H230 C204 0.930 . S
H231 C205 0.931 . S
H232 C212 0.932 . S
H233 C213 0.930 . S
H234 C214 0.929 . S
H235 C216 0.930 . S
H236 C218 0.932 . S
H237 C219 0.929 . S
H238 C220 0.928 . S
H239 C222 0.932 . S
C240 C241 1.264 . S
C240 C245 1.479 . S
C240 C250 1.465 . S
C241 C240 1.264 . S
C241 C243 1.339 . S
C241 H268 0.931 . S
C242 C243 1.395 . S
C242 C244 1.320 . S
C243 C241 1.339 . S
C243 C242 1.395 . S
C243 H269 0.929 . S
C244 C242 1.320 . S
C244 C245 1.405 . S
C244 H270 0.930 . S
C245 C240 1.479 . S
C245 C244 1.405 . S
C245 H271 0.931 . S
U246 O247 2.454 . S
U246 O248 2.458 . S
U246 C249 2.984 . S
U246 C250 2.847 . S
U246 C263 2.882 . S
U246 O264 2.441 . S
U246 O265 2.420 . S
U246 O266 2.455 . S
U246 O267 2.449 . S
O247 U246 2.454 . S
O247 C249 1.353 . S
O248 U246 2.458 . S
O248 C249 1.286 . S
C249 U246 2.984 . S
C249 O247 1.353 . S
C249 O248 1.286 . S
C249 C251 1.363 . S
C250 C240 1.465 . S
C250 U246 2.847 . S
C250 O264 1.249 . S
C250 O265 1.202 . S
C251 C249 1.363 . S
C251 C253 1.408 . S
C251 C256 1.342 . S
C252 C253 1.310 . S
C252 C255 1.461 . S
C252 H272 0.932 . S
C253 C251 1.408 . S
C253 C252 1.310 . S
C253 H273 0.930 . S
C254 C255 1.474 . S
C254 C256 1.285 . S
C254 H274 0.929 . S
C255 C252 1.461 . S
C255 C254 1.474 . S
C256 C251 1.342 . S
C256 C254 1.285 . S
C256 H275 0.930 . S
C257 C260 1.424 . S
C257 C262 1.245 . S
C257 C263 1.428 . S
C258 C261 1.260 . S
C258 C262 1.477 . S
C258 H276 0.932 . S
C259 C260 1.384 . S
C259 C261 1.479 . S
C259 H277 0.929 . S
C260 C257 1.424 . S
C260 C259 1.384 . S
C260 H278 0.928 . S
C261 C258 1.260 . S
C261 C259 1.479 . S
C262 C257 1.245 . S
C262 C258 1.477 . S
C262 H279 0.932 . S
C263 U246 2.882 . S
C263 C257 1.428 . S
C263 O266 1.301 . S
C263 O267 1.282 . S
O264 U246 2.441 . S
O264 C250 1.249 . S
O265 U246 2.420 . S
O265 C250 1.202 . S
O266 U246 2.455 . S
O266 C263 1.301 . S
O267 U246 2.449 . S
O267 C263 1.282 . S
H268 C241 0.931 . S
H269 C243 0.929 . S
H270 C244 0.930 . S
H271 C245 0.931 . S
H272 C252 0.932 . S
H273 C253 0.930 . S
H274 C254 0.929 . S
H275 C256 0.930 . S
H276 C258 0.932 . S
H277 C259 0.929 . S
H278 C260 0.928 . S
H279 C262 0.932 . S
C280 C281 1.264 . S
C280 C285 1.479 . S
C280 C290 1.465 . S
C281 C280 1.264 . S
C281 C283 1.339 . S
C281 H308 0.931 . S
C282 C283 1.395 . S
C282 C284 1.320 . S
C283 C281 1.339 . S
C283 C282 1.395 . S
C283 H309 0.929 . S
C284 C282 1.320 . S
C284 C285 1.405 . S
C284 H310 0.930 . S
C285 C280 1.479 . S
C285 C284 1.405 . S
C285 H311 0.931 . S
U286 O287 2.454 . S
U286 O288 2.458 . S
U286 C289 2.984 . S
U286 C290 2.847 . S
U286 C303 2.882 . S
U286 O304 2.441 . S
U286 O305 2.420 . S
U286 O306 2.455 . S
U286 O307 2.449 . S
O287 U286 2.454 . S
O287 C289 1.353 . S
O288 U286 2.458 . S
O288 C289 1.286 . S
C289 U286 2.984 . S
C289 O287 1.353 . S
C289 O288 1.286 . S
C289 C291 1.363 . S
C290 C280 1.465 . S
C290 U286 2.847 . S
C290 O304 1.249 . S
C290 O305 1.202 . S
C291 C289 1.363 . S
C291 C293 1.408 . S
C291 C296 1.342 . S
C292 C293 1.310 . S
C292 C295 1.461 . S
C292 H312 0.932 . S
C293 C291 1.408 . S
C293 C292 1.310 . S
C293 H313 0.930 . S
C294 C295 1.474 . S
C294 C296 1.285 . S
C294 H314 0.929 . S
C295 C292 1.461 . S
C295 C294 1.474 . S
C296 C291 1.342 . S
C296 C294 1.285 . S
C296 H315 0.930 . S
C297 C300 1.424 . S
C297 C302 1.245 . S
C297 C303 1.428 . S
C298 C301 1.260 . S
C298 C302 1.477 . S
C298 H316 0.932 . S
C299 C300 1.384 . S
C299 C301 1.479 . S
C299 H317 0.929 . S
C300 C297 1.424 . S
C300 C299 1.384 . S
C300 H318 0.928 . S
C301 C298 1.260 . S
C301 C299 1.479 . S
C302 C297 1.245 . S
C302 C298 1.477 . S
C302 H319 0.932 . S
C303 U286 2.882 . S
C303 C297 1.428 . S
C303 O306 1.301 . S
C303 O307 1.282 . S
O304 U286 2.441 . S
O304 C290 1.249 . S
O305 U286 2.420 . S
O305 C290 1.202 . S
O306 U286 2.455 . S
O306 C303 1.301 . S
O307 U286 2.449 . S
O307 C303 1.282 . S
H308 C281 0.931 . S
H309 C283 0.929 . S
H310 C284 0.930 . S
H311 C285 0.931 . S
H312 C292 0.932 . S
H313 C293 0.930 . S
H314 C294 0.929 . S
H315 C296 0.930 . S
H316 C298 0.932 . S
H317 C299 0.929 . S
H318 C300 0.928 . S
H319 C302 0.932 . S
C320 C321 1.264 . S
C320 C325 1.479 . S
C320 C330 1.465 . S
C321 C320 1.264 . S
C321 C323 1.339 . S
C321 H348 0.931 . S
C322 C323 1.395 . S
C322 C324 1.320 . S
C323 C321 1.339 . S
C323 C322 1.395 . S
C323 H349 0.929 . S
C324 C322 1.320 . S
C324 C325 1.405 . S
C324 H350 0.930 . S
C325 C320 1.479 . S
C325 C324 1.405 . S
C325 H351 0.931 . S
U326 O327 2.454 . S
U326 O328 2.458 . S
U326 C329 2.984 . S
U326 C330 2.847 . S
U326 C343 2.882 . S
U326 O344 2.441 . S
U326 O345 2.420 . S
U326 O346 2.455 . S
U326 O347 2.449 . S
O327 U326 2.454 . S
O327 C329 1.353 . S
O328 U326 2.458 . S
O328 C329 1.286 . S
C329 U326 2.984 . S
C329 O327 1.353 . S
C329 O328 1.286 . S
C329 C331 1.363 . S
C330 C320 1.465 . S
C330 U326 2.847 . S
C330 O344 1.249 . S
C330 O345 1.202 . S
C331 C329 1.363 . S
C331 C333 1.408 . S
C331 C336 1.342 . S
C332 C333 1.310 . S
C332 C335 1.461 . S
C332 H352 0.932 . S
C333 C331 1.408 . S
C333 C332 1.310 . S
C333 H353 0.930 . S
C334 C335 1.474 . S
C334 C336 1.285 . S
C334 H354 0.929 . S
C335 C332 1.461 . S
C335 C334 1.474 . S
C336 C331 1.342 . S
C336 C334 1.285 . S
C336 H355 0.930 . S
C337 C340 1.424 . S
C337 C342 1.245 . S
C337 C343 1.428 . S
C338 C341 1.260 . S
C338 C342 1.477 . S
C338 H356 0.932 . S
C339 C340 1.384 . S
C339 C341 1.479 . S
C339 H357 0.929 . S
C340 C337 1.424 . S
C340 C339 1.384 . S
C340 H358 0.928 . S
C341 C338 1.260 . S
C341 C339 1.479 . S
C342 C337 1.245 . S
C342 C338 1.477 . S
C342 H359 0.932 . S
C343 U326 2.882 . S
C343 C337 1.428 . S
C343 O346 1.301 . S
C343 O347 1.282 . S
O344 U326 2.441 . S
O344 C330 1.249 . S
O345 U326 2.420 . S
O345 C330 1.202 . S
O346 U326 2.455 . S
O346 C343 1.301 . S
O347 U326 2.449 . S
O347 C343 1.282 . S
H348 C321 0.931 . S
H349 C323 0.929 . S
H350 C324 0.930 . S
H351 C325 0.931 . S
H352 C332 0.932 . S
H353 C333 0.930 . S
H354 C334 0.929 . S
H355 C336 0.930 . S
H356 C338 0.932 . S
H357 C339 0.929 . S
H358 C340 0.928 . S
H359 C342 0.932 . S
C360 C361 1.264 . S
C360 C365 1.479 . S
C360 C370 1.465 . S
C361 C360 1.264 . S
C361 C363 1.339 . S
C361 H388 0.931 . S
C362 C363 1.395 . S
C362 C364 1.320 . S
C363 C361 1.339 . S
C363 C362 1.395 . S
C363 H389 0.929 . S
C364 C362 1.320 . S
C364 C365 1.405 . S
C364 H390 0.930 . S
C365 C360 1.479 . S
C365 C364 1.405 . S
C365 H391 0.931 . S
U366 O367 2.454 . S
U366 O368 2.458 . S
U366 C369 2.984 . S
U366 C370 2.847 . S
U366 C383 2.882 . S
U366 O384 2.441 . S
U366 O385 2.420 . S
U366 O386 2.455 . S
U366 O387 2.449 . S
O367 U366 2.454 . S
O367 C369 1.353 . S
O368 U366 2.458 . S
O368 C369 1.286 . S
C369 U366 2.984 . S
C369 O367 1.353 . S
C369 O368 1.286 . S
C369 C371 1.363 . S
C370 C360 1.465 . S
C370 U366 2.847 . S
C370 O384 1.249 . S
C370 O385 1.202 . S
C371 C369 1.363 . S
C371 C373 1.408 . S
C371 C376 1.342 . S
C372 C373 1.310 . S
C372 C375 1.461 . S
C372 H392 0.932 . S
C373 C371 1.408 . S
C373 C372 1.310 . S
C373 H393 0.930 . S
C374 C375 1.474 . S
C374 C376 1.285 . S
C374 H394 0.929 . S
C375 C372 1.461 . S
C375 C374 1.474 . S
C376 C371 1.342 . S
C376 C374 1.285 . S
C376 H395 0.930 . S
C377 C380 1.424 . S
C377 C382 1.245 . S
C377 C383 1.428 . S
C378 C381 1.260 . S
C378 C382 1.477 . S
C378 H396 0.932 . S
C379 C380 1.384 . S
C379 C381 1.479 . S
C379 H397 0.929 . S
C380 C377 1.424 . S
C380 C379 1.384 . S
C380 H398 0.928 . S
C381 C378 1.260 . S
C381 C379 1.479 . S
C382 C377 1.245 . S
C382 C378 1.477 . S
C382 H399 0.932 . S
C383 U366 2.882 . S
C383 C377 1.428 . S
C383 O386 1.301 . S
C383 O387 1.282 . S
O384 U366 2.441 . S
O384 C370 1.249 . S
O385 U366 2.420 . S
O385 C370 1.202 . S
O386 U366 2.455 . S
O386 C383 1.301 . S
O387 U366 2.449 . S
O387 C383 1.282 . S
H388 C361 0.931 . S
H389 C363 0.929 . S
H390 C364 0.930 . S
H391 C365 0.931 . S
H392 C372 0.932 . S
H393 C373 0.930 . S
H394 C374 0.929 . S
H395 C376 0.930 . S
H396 C378 0.932 . S
H397 C379 0.929 . S
H398 C380 0.928 . S
H399 C382 0.932 . S
C400 C401 1.264 . S
C400 C405 1.479 . S
C400 C410 1.465 . S
C401 C400 1.264 . S
C401 C403 1.339 . S
C401 H428 0.931 . S
C402 C403 1.395 . S
C402 C404 1.320 . S
C403 C401 1.339 . S
C403 C402 1.395 . S
C403 H429 0.929 . S
C404 C402 1.320 . S
C404 C405 1.405 . S
C404 H430 0.930 . S
C405 C400 1.479 . S
C405 C404 1.405 . S
C405 H431 0.931 . S
U406 O407 2.454 . S
U406 O408 2.458 . S
U406 C409 2.984 . S
U406 C410 2.847 . S
U406 C423 2.882 . S
U406 O424 2.441 . S
U406 O425 2.420 . S
U406 O426 2.455 . S
U406 O427 2.449 . S
O407 U406 2.454 . S
O407 C409 1.353 . S
O408 U406 2.458 . S
O408 C409 1.286 . S
C409 U406 2.984 . S
C409 O407 1.353 . S
C409 O408 1.286 . S
C409 C411 1.363 . S
C410 C400 1.465 . S
C410 U406 2.847 . S
C410 O424 1.249 . S
C410 O425 1.202 . S
C411 C409 1.363 . S
C411 C413 1.408 . S
C411 C416 1.342 . S
C412 C413 1.310 . S
C412 C415 1.461 . S
C412 H432 0.932 . S
C413 C411 1.408 . S
C413 C412 1.310 . S
C413 H433 0.930 . S
C414 C415 1.474 . S
C414 C416 1.285 . S
C414 H434 0.929 . S
C415 C412 1.461 . S
C415 C414 1.474 . S
C416 C411 1.342 . S
C416 C414 1.285 . S
C416 H435 0.930 . S
C417 C420 1.424 . S
C417 C422 1.245 . S
C417 C423 1.428 . S
C418 C421 1.260 . S
C418 C422 1.477 . S
C418 H436 0.932 . S
C419 C420 1.384 . S
C419 C421 1.479 . S
C419 H437 0.929 . S
C420 C417 1.424 . S
C420 C419 1.384 . S
C420 H438 0.928 . S
C421 C418 1.260 . S
C421 C419 1.479 . S
C422 C417 1.245 . S
C422 C418 1.477 . S
C422 H439 0.932 . S
C423 U406 2.882 . S
C423 C417 1.428 . S
C423 O426 1.301 . S
C423 O427 1.282 . S
O424 U406 2.441 . S
O424 C410 1.249 . S
O425 U406 2.420 . S
O425 C410 1.202 . S
O426 U406 2.455 . S
O426 C423 1.301 . S
O427 U406 2.449 . S
O427 C423 1.282 . S
H428 C401 0.931 . S
H429 C403 0.929 . S
H430 C404 0.930 . S
H431 C405 0.931 . S
H432 C412 0.932 . S
H433 C413 0.930 . S
H434 C414 0.929 . S
H435 C416 0.930 . S
H436 C418 0.932 . S
H437 C419 0.929 . S
H438 C420 0.928 . S
H439 C422 0.932 . S
C440 C441 1.264 . S
C440 C445 1.479 . S
C440 C450 1.465 . S
C441 C440 1.264 . S
C441 C443 1.339 . S
C441 H468 0.931 . S
C442 C443 1.395 . S
C442 C444 1.320 . S
C443 C441 1.339 . S
C443 C442 1.395 . S
C443 H469 0.929 . S
C444 C442 1.320 . S
C444 C445 1.405 . S
C444 H470 0.930 . S
C445 C440 1.479 . S
C445 C444 1.405 . S
C445 H471 0.931 . S
U446 O447 2.454 . S
U446 O448 2.458 . S
U446 C449 2.984 . S
U446 C450 2.847 . S
U446 C463 2.882 . S
U446 O464 2.441 . S
U446 O465 2.420 . S
U446 O466 2.455 . S
U446 O467 2.449 . S
O447 U446 2.454 . S
O447 C449 1.353 . S
O448 U446 2.458 . S
O448 C449 1.286 . S
C449 U446 2.984 . S
C449 O447 1.353 . S
C449 O448 1.286 . S
C449 C451 1.363 . S
C450 C440 1.465 . S
C450 U446 2.847 . S
C450 O464 1.249 . S
C450 O465 1.202 . S
C451 C449 1.363 . S
C451 C453 1.408 . S
C451 C456 1.342 . S
C452 C453 1.310 . S
C452 C455 1.461 . S
C452 H472 0.932 . S
C453 C451 1.408 . S
C453 C452 1.310 . S
C453 H473 0.930 . S
C454 C455 1.474 . S
C454 C456 1.285 . S
C454 H474 0.929 . S
C455 C452 1.461 . S
C455 C454 1.474 . S
C456 C451 1.342 . S
C456 C454 1.285 . S
C456 H475 0.930 . S
C457 C460 1.424 . S
C457 C462 1.245 . S
C457 C463 1.428 . S
C458 C461 1.260 . S
C458 C462 1.477 . S
C458 H476 0.932 . S
C459 C460 1.384 . S
C459 C461 1.479 . S
C459 H477 0.929 . S
C460 C457 1.424 . S
C460 C459 1.384 . S
C460 H478 0.928 . S
C461 C458 1.260 . S
C461 C459 1.479 . S
C462 C457 1.245 . S
C462 C458 1.477 . S
C462 H479 0.932 . S
C463 U446 2.882 . S
C463 C457 1.428 . S
C463 O466 1.301 . S
C463 O467 1.282 . S
O464 U446 2.441 . S
O464 C450 1.249 . S
O465 U446 2.420 . S
O465 C450 1.202 . S
O466 U446 2.455 . S
O466 C463 1.301 . S
O467 U446 2.449 . S
O467 C463 1.282 . S
H468 C441 0.931 . S
H469 C443 0.929 . S
H470 C444 0.930 . S
H471 C445 0.931 . S
H472 C452 0.932 . S
H473 C453 0.930 . S
H474 C454 0.929 . S
H475 C456 0.930 . S
H476 C458 0.932 . S
H477 C459 0.929 . S
H478 C460 0.928 . S
H479 C462 0.932 . S
C480 C481 1.264 . S
C480 C485 1.479 . S
C480 C490 1.465 . S
C481 C480 1.264 . S
C481 C483 1.339 . S
C481 H508 0.931 . S
C482 C483 1.395 . S
C482 C484 1.320 . S
C483 C481 1.339 . S
C483 C482 1.395 . S
C483 H509 0.929 . S
C484 C482 1.320 . S
C484 C485 1.405 . S
C484 H510 0.930 . S
C485 C480 1.479 . S
C485 C484 1.405 . S
C485 H511 0.931 . S
U486 O487 2.454 . S
U486 O488 2.458 . S
U486 C489 2.984 . S
U486 C490 2.847 . S
U486 C503 2.882 . S
U486 O504 2.441 . S
U486 O505 2.420 . S
U486 O506 2.455 . S
U486 O507 2.449 . S
O487 U486 2.454 . S
O487 C489 1.353 . S
O488 U486 2.458 . S
O488 C489 1.286 . S
C489 U486 2.984 . S
C489 O487 1.353 . S
C489 O488 1.286 . S
C489 C491 1.363 . S
C490 C480 1.465 . S
C490 U486 2.847 . S
C490 O504 1.249 . S
C490 O505 1.202 . S
C491 C489 1.363 . S
C491 C493 1.408 . S
C491 C496 1.342 . S
C492 C493 1.310 . S
C492 C495 1.461 . S
C492 H512 0.932 . S
C493 C491 1.408 . S
C493 C492 1.310 . S
C493 H513 0.930 . S
C494 C495 1.474 . S
C494 C496 1.285 . S
C494 H514 0.929 . S
C495 C492 1.461 . S
C495 C494 1.474 . S
C496 C491 1.342 . S
C496 C494 1.285 . S
C496 H515 0.930 . S
C497 C500 1.424 . S
C497 C502 1.245 . S
C497 C503 1.428 . S
C498 C501 1.260 . S
C498 C502 1.477 . S
C498 H516 0.932 . S
C499 C500 1.384 . S
C499 C501 1.479 . S
C499 H517 0.929 . S
C500 C497 1.424 . S
C500 C499 1.384 . S
C500 H518 0.928 . S
C501 C498 1.260 . S
C501 C499 1.479 . S
C502 C497 1.245 . S
C502 C498 1.477 . S
C502 H519 0.932 . S
C503 U486 2.882 . S
C503 C497 1.428 . S
C503 O506 1.301 . S
C503 O507 1.282 . S
O504 U486 2.441 . S
O504 C490 1.249 . S
O505 U486 2.420 . S
O505 C490 1.202 . S
O506 U486 2.455 . S
O506 C503 1.301 . S
O507 U486 2.449 . S
O507 C503 1.282 . S
H508 C481 0.931 . S
H509 C483 0.929 . S
H510 C484 0.930 . S
H511 C485 0.931 . S
H512 C492 0.932 . S
H513 C493 0.930 . S
H514 C494 0.929 . S
H515 C496 0.930 . S
H516 C498 0.932 . S
H517 C499 0.929 . S
H518 C500 0.928 . S
H519 C502 0.932 . S
C520 C521 1.264 . S
C520 C525 1.479 . S
C520 C530 1.465 . S
C521 C520 1.264 . S
C521 C523 1.339 . S
C521 H548 0.931 . S
C522 C523 1.395 . S
C522 C524 1.320 . S
C523 C521 1.339 . S
C523 C522 1.395 . S
C523 H549 0.929 . S
C524 C522 1.320 . S
C524 C525 1.405 . S
C524 H550 0.930 . S
C525 C520 1.479 . S
C525 C524 1.405 . S
C525 H551 0.931 . S
U526 O527 2.454 . S
U526 O528 2.458 . S
U526 C529 2.984 . S
U526 C530 2.847 . S
U526 C543 2.882 . S
U526 O544 2.441 . S
U526 O545 2.420 . S
U526 O546 2.455 . S
U526 O547 2.449 . S
O527 U526 2.454 . S
O527 C529 1.353 . S
O528 U526 2.458 . S
O528 C529 1.286 . S
C529 U526 2.984 . S
C529 O527 1.353 . S
C529 O528 1.286 . S
C529 C531 1.363 . S
C530 C520 1.465 . S
C530 U526 2.847 . S
C530 O544 1.249 . S
C530 O545 1.202 . S
C531 C529 1.363 . S
C531 C533 1.408 . S
C531 C536 1.342 . S
C532 C533 1.310 . S
C532 C535 1.461 . S
C532 H552 0.932 . S
C533 C531 1.408 . S
C533 C532 1.310 . S
C533 H553 0.930 . S
C534 C535 1.474 . S
C534 C536 1.285 . S
C534 H554 0.929 . S
C535 C532 1.461 . S
C535 C534 1.474 . S
C536 C531 1.342 . S
C536 C534 1.285 . S
C536 H555 0.930 . S
C537 C540 1.424 . S
C537 C542 1.245 . S
C537 C543 1.428 . S
C538 C541 1.260 . S
C538 C542 1.477 . S
C538 H556 0.932 . S
C539 C540 1.384 . S
C539 C541 1.479 . S
C539 H557 0.929 . S
C540 C537 1.424 . S
C540 C539 1.384 . S
C540 H558 0.928 . S
C541 C538 1.260 . S
C541 C539 1.479 . S
C542 C537 1.245 . S
C542 C538 1.477 . S
C542 H559 0.932 . S
C543 U526 2.882 . S
C543 C537 1.428 . S
C543 O546 1.301 . S
C543 O547 1.282 . S
O544 U526 2.441 . S
O544 C530 1.249 . S
O545 U526 2.420 . S
O545 C530 1.202 . S
O546 U526 2.455 . S
O546 C543 1.301 . S
O547 U526 2.449 . S
O547 C543 1.282 . S
H548 C521 0.931 . S
H549 C523 0.929 . S
H550 C524 0.930 . S
H551 C525 0.931 . S
H552 C532 0.932 . S
H553 C533 0.930 . S
H554 C534 0.929 . S
H555 C536 0.930 . S
H556 C538 0.932 . S
H557 C539 0.929 . S
H558 C540 0.928 . S
H559 C542 0.932 . S
C560 C561 1.264 . S
C560 C565 1.479 . S
C560 C570 1.465 . S
C561 C560 1.264 . S
C561 C563 1.339 . S
C561 H588 0.931 . S
C562 C563 1.395 . S
C562 C564 1.320 . S
C563 C561 1.339 . S
C563 C562 1.395 . S
C563 H589 0.929 . S
C564 C562 1.320 . S
C564 C565 1.405 . S
C564 H590 0.930 . S
C565 C560 1.479 . S
C565 C564 1.405 . S
C565 H591 0.931 . S
U566 O567 2.454 . S
U566 O568 2.458 . S
U566 C569 2.984 . S
U566 C570 2.847 . S
U566 C583 2.882 . S
U566 O584 2.441 . S
U566 O585 2.420 . S
U566 O586 2.455 . S
U566 O587 2.449 . S
O567 U566 2.454 . S
O567 C569 1.353 . S
O568 U566 2.458 . S
O568 C569 1.286 . S
C569 U566 2.984 . S
C569 O567 1.353 . S
C569 O568 1.286 . S
C569 C571 1.363 . S
C570 C560 1.465 . S
C570 U566 2.847 . S
C570 O584 1.249 . S
C570 O585 1.202 . S
C571 C569 1.363 . S
C571 C573 1.408 . S
C571 C576 1.342 . S
C572 C573 1.310 . S
C572 C575 1.461 . S
C572 H592 0.932 . S
C573 C571 1.408 . S
C573 C572 1.310 . S
C573 H593 0.930 . S
C574 C575 1.474 . S
C574 C576 1.285 . S
C574 H594 0.929 . S
C575 C572 1.461 . S
C575 C574 1.474 . S
C576 C571 1.342 . S
C576 C574 1.285 . S
C576 H595 0.930 . S
C577 C580 1.424 . S
C577 C582 1.245 . S
C577 C583 1.428 . S
C578 C581 1.260 . S
C578 C582 1.477 . S
C578 H596 0.932 . S
C579 C580 1.384 . S
C579 C581 1.479 . S
C579 H597 0.929 . S
C580 C577 1.424 . S
C580 C579 1.384 . S
C580 H598 0.928 . S
C581 C578 1.260 . S
C581 C579 1.479 . S
C582 C577 1.245 . S
C582 C578 1.477 . S
C582 H599 0.932 . S
C583 U566 2.882 . S
C583 C577 1.428 . S
C583 O586 1.301 . S
C583 O587 1.282 . S
O584 U566 2.441 . S
O584 C570 1.249 . S
O585 U566 2.420 . S
O585 C570 1.202 . S
O586 U566 2.455 . S
O586 C583 1.301 . S
O587 U566 2.449 . S
O587 C583 1.282 . S
H588 C561 0.931 . S
H589 C563 0.929 . S
H590 C564 0.930 . S
H591 C565 0.931 . S
H592 C572 0.932 . S
H593 C573 0.930 . S
H594 C574 0.929 . S
H595 C576 0.930 . S
H596 C578 0.932 . S
H597 C579 0.929 . S
H598 C580 0.928 . S
H599 C582 0.932 . S
C600 C601 1.264 . S
C600 C605 1.479 . S
C600 C610 1.465 . S
C601 C600 1.264 . S
C601 C603 1.339 . S
C601 H628 0.931 . S
C602 C603 1.395 . S
C602 C604 1.320 . S
C603 C601 1.339 . S
C603 C602 1.395 . S
C603 H629 0.929 . S
C604 C602 1.320 . S
C604 C605 1.405 . S
C604 H630 0.930 . S
C605 C600 1.479 . S
C605 C604 1.405 . S
C605 H631 0.931 . S
U606 O607 2.454 . S
U606 O608 2.458 . S
U606 C609 2.984 . S
U606 C610 2.847 . S
U606 C623 2.882 . S
U606 O624 2.441 . S
U606 O625 2.420 . S
U606 O626 2.455 . S
U606 O627 2.449 . S
O607 U606 2.454 . S
O607 C609 1.353 . S
O608 U606 2.458 . S
O608 C609 1.286 . S
C609 U606 2.984 . S
C609 O607 1.353 . S
C609 O608 1.286 . S
C609 C611 1.363 . S
C610 C600 1.465 . S
C610 U606 2.847 . S
C610 O624 1.249 . S
C610 O625 1.202 . S
C611 C609 1.363 . S
C611 C613 1.408 . S
C611 C616 1.342 . S
C612 C613 1.310 . S
C612 C615 1.461 . S
C612 H632 0.932 . S
C613 C611 1.408 . S
C613 C612 1.310 . S
C613 H633 0.930 . S
C614 C615 1.474 . S
C614 C616 1.285 . S
C614 H634 0.929 . S
C615 C612 1.461 . S
C615 C614 1.474 . S
C616 C611 1.342 . S
C616 C614 1.285 . S
C616 H635 0.930 . S
C617 C620 1.424 . S
C617 C622 1.245 . S
C617 C623 1.428 . S
C618 C621 1.260 . S
C618 C622 1.477 . S
C618 H636 0.932 . S
C619 C620 1.384 . S
C619 C621 1.479 . S
C619 H637 0.929 . S
C620 C617 1.424 . S
C620 C619 1.384 . S
C620 H638 0.928 . S
C621 C618 1.260 . S
C621 C619 1.479 . S
C622 C617 1.245 . S
C622 C618 1.477 . S
C622 H639 0.932 . S
C623 U606 2.882 . S
C623 C617 1.428 . S
C623 O626 1.301 . S
C623 O627 1.282 . S
O624 U606 2.441 . S
O624 C610 1.249 . S
O625 U606 2.420 . S
O625 C610 1.202 . S
O626 U606 2.455 . S
O626 C623 1.301 . S
O627 U606 2.449 . S
O627 C623 1.282 . S
H628 C601 0.931 . S
H629 C603 0.929 . S
H630 C604 0.930 . S
H631 C605 0.931 . S
H632 C612 0.932 . S
H633 C613 0.930 . S
H634 C614 0.929 . S
H635 C616 0.930 . S
H636 C618 0.932 . S
H637 C619 0.929 . S
H638 C620 0.928 . S
H639 C622 0.932 . S
C640 C641 1.264 . S
C640 C645 1.479 . S
C640 C650 1.465 . S
C641 C640 1.264 . S
C641 C643 1.339 . S
C641 H668 0.931 . S
C642 C643 1.395 . S
C642 C644 1.320 . S
C643 C641 1.339 . S
C643 C642 1.395 . S
C643 H669 0.929 . S
C644 C642 1.320 . S
C644 C645 1.405 . S
C644 H670 0.930 . S
C645 C640 1.479 . S
C645 C644 1.405 . S
C645 H671 0.931 . S
U646 O647 2.454 1_565 S
U646 O648 2.458 1_565 S
U646 C649 2.984 1_565 S
U646 C650 2.847 . S
U646 C663 2.882 . S
U646 O664 2.441 . S
U646 O665 2.420 . S
U646 O666 2.455 . S
U646 O667 2.449 . S
O647 U646 2.454 1_545 S
O647 C649 1.353 . S
O648 U646 2.458 1_545 S
O648 C649 1.286 . S
C649 U646 2.984 1_545 S
C649 O647 1.353 . S
C649 O648 1.286 . S
C649 C651 1.363 . S
C650 C640 1.465 . S
C650 U646 2.847 . S
C650 O664 1.249 . S
C650 O665 1.202 . S
C651 C649 1.363 . S
C651 C653 1.408 . S
C651 C656 1.342 . S
C652 C653 1.310 . S
C652 C655 1.461 . S
C652 H672 0.932 . S
C653 C651 1.408 . S
C653 C652 1.310 . S
C653 H673 0.930 . S
C654 C655 1.474 . S
C654 C656 1.285 . S
C654 H674 0.929 . S
C655 C652 1.461 . S
C655 C654 1.474 . S
C656 C651 1.342 . S
C656 C654 1.285 . S
C656 H675 0.930 . S
C657 C660 1.424 . S
C657 C662 1.245 . S
C657 C663 1.428 . S
C658 C661 1.260 . S
C658 C662 1.477 . S
C658 H676 0.932 . S
C659 C660 1.384 . S
C659 C661 1.479 . S
C659 H677 0.929 . S
C660 C657 1.424 . S
C660 C659 1.384 . S
C660 H678 0.928 . S
C661 C658 1.260 . S
C661 C659 1.479 . S
C662 C657 1.245 . S
C662 C658 1.477 . S
C662 H679 0.932 . S
C663 U646 2.882 . S
C663 C657 1.428 . S
C663 O666 1.301 . S
C663 O667 1.282 . S
O664 U646 2.441 . S
O664 C650 1.249 . S
O665 U646 2.420 . S
O665 C650 1.202 . S
O666 U646 2.455 . S
O666 C663 1.301 . S
O667 U646 2.449 . S
O667 C663 1.282 . S
H668 C641 0.931 . S
H669 C643 0.929 . S
H670 C644 0.930 . S
H671 C645 0.931 . S
H672 C652 0.932 . S
H673 C653 0.930 . S
H674 C654 0.929 . S
H675 C656 0.930 . S
H676 C658 0.932 . S
H677 C659 0.929 . S
H678 C660 0.928 . S
H679 C662 0.932 . S
C680 C681 1.264 . S
C680 C685 1.479 . S
C680 C690 1.465 . S
C681 C680 1.264 . S
C681 C683 1.339 . S
C681 H708 0.931 . S
C682 C683 1.395 . S
C682 C684 1.320 . S
C683 C681 1.339 . S
C683 C682 1.395 . S
C683 H709 0.929 . S
C684 C682 1.320 . S
C684 C685 1.405 . S
C684 H710 0.930 . S
C685 C680 1.479 . S
C685 C684 1.405 . S
C685 H711 0.931 . S
U686 O687 2.454 . S
U686 O688 2.458 . S
U686 C689 2.984 . S
U686 C690 2.847 . S
U686 C703 2.882 . S
U686 O704 2.441 . S
U686 O705 2.420 . S
U686 O706 2.455 . S
U686 O707 2.449 . S
O687 U686 2.454 . S
O687 C689 1.353 . S
O688 U686 2.458 . S
O688 C689 1.286 . S
C689 U686 2.984 . S
C689 O687 1.353 . S
C689 O688 1.286 . S
C689 C691 1.363 . S
C690 C680 1.465 . S
C690 U686 2.847 . S
C690 O704 1.249 . S
C690 O705 1.202 . S
C691 C689 1.363 . S
C691 C693 1.408 . S
C691 C696 1.342 . S
C692 C693 1.310 . S
C692 C695 1.461 . S
C692 H712 0.932 . S
C693 C691 1.408 . S
C693 C692 1.310 . S
C693 H713 0.930 . S
C694 C695 1.474 . S
C694 C696 1.285 . S
C694 H714 0.929 . S
C695 C692 1.461 . S
C695 C694 1.474 . S
C696 C691 1.342 . S
C696 C694 1.285 . S
C696 H715 0.930 . S
C697 C700 1.424 . S
C697 C702 1.245 . S
C697 C703 1.428 . S
C698 C701 1.260 . S
C698 C702 1.477 . S
C698 H716 0.932 . S
C699 C700 1.384 . S
C699 C701 1.479 . S
C699 H717 0.929 . S
C700 C697 1.424 . S
C700 C699 1.384 . S
C700 H718 0.928 . S
C701 C698 1.260 . S
C701 C699 1.479 . S
C702 C697 1.245 . S
C702 C698 1.477 . S
C702 H719 0.932 . S
C703 U686 2.882 . S
C703 C697 1.428 . S
C703 O706 1.301 . S
C703 O707 1.282 . S
O704 U686 2.441 . S
O704 C690 1.249 . S
O705 U686 2.420 . S
O705 C690 1.202 . S
O706 U686 2.455 . S
O706 C703 1.301 . S
O707 U686 2.449 . S
O707 C703 1.282 . S
H708 C681 0.931 . S
H709 C683 0.929 . S
H710 C684 0.930 . S
H711 C685 0.931 . S
H712 C692 0.932 . S
H713 C693 0.930 . S
H714 C694 0.929 . S
H715 C696 0.930 . S
H716 C698 0.932 . S
H717 C699 0.929 . S
H718 C700 0.928 . S
H719 C702 0.932 . S
C720 C721 1.264 . S
C720 C725 1.479 . S
C720 C730 1.465 . S
C721 C720 1.264 . S
C721 C723 1.339 . S
C721 H748 0.931 . S
C722 C723 1.395 . S
C722 C724 1.320 . S
C723 C721 1.339 . S
C723 C722 1.395 . S
C723 H749 0.929 . S
C724 C722 1.320 . S
C724 C725 1.405 . S
C724 H750 0.930 . S
C725 C720 1.479 . S
C725 C724 1.405 . S
C725 H751 0.931 . S
U726 O727 2.454 1_545 S
U726 O728 2.458 1_545 S
U726 C729 2.984 1_545 S
U726 C730 2.847 . S
U726 C743 2.882 . S
U726 O744 2.441 . S
U726 O745 2.420 . S
U726 O746 2.455 . S
U726 O747 2.449 . S
O727 U726 2.454 1_565 S
O727 C729 1.353 . S
O728 U726 2.458 1_565 S
O728 C729 1.286 . S
C729 U726 2.984 1_565 S
C729 O727 1.353 . S
C729 O728 1.286 . S
C729 C731 1.363 . S
C730 C720 1.465 . S
C730 U726 2.847 . S
C730 O744 1.249 . S
C730 O745 1.202 . S
C731 C729 1.363 . S
C731 C733 1.408 . S
C731 C736 1.342 . S
C732 C733 1.310 . S
C732 C735 1.461 . S
C732 H752 0.932 . S
C733 C731 1.408 . S
C733 C732 1.310 . S
C733 H753 0.930 . S
C734 C735 1.474 . S
C734 C736 1.285 . S
C734 H754 0.929 . S
C735 C732 1.461 . S
C735 C734 1.474 . S
C736 C731 1.342 . S
C736 C734 1.285 . S
C736 H755 0.930 . S
C737 C740 1.424 . S
C737 C742 1.245 . S
C737 C743 1.428 . S
C738 C741 1.260 . S
C738 C742 1.477 . S
C738 H756 0.932 . S
C739 C740 1.384 . S
C739 C741 1.479 . S
C739 H757 0.929 . S
C740 C737 1.424 . S
C740 C739 1.384 . S
C740 H758 0.928 . S
C741 C738 1.260 . S
C741 C739 1.479 . S
C742 C737 1.245 . S
C742 C738 1.477 . S
C742 H759 0.932 . S
C743 U726 2.882 . S
C743 C737 1.428 . S
C743 O746 1.301 . S
C743 O747 1.282 . S
O744 U726 2.441 . S
O744 C730 1.249 . S
O745 U726 2.420 . S
O745 C730 1.202 . S
O746 U726 2.455 . S
O746 C743 1.301 . S
O747 U726 2.449 . S
O747 C743 1.282 . S
H748 C721 0.931 . S
H749 C723 0.929 . S
H750 C724 0.930 . S
H751 C725 0.931 . S
H752 C732 0.932 . S
H753 C733 0.930 . S
H754 C734 0.929 . S
H755 C736 0.930 . S
H756 C738 0.932 . S
H757 C739 0.929 . S
H758 C740 0.928 . S
H759 C742 0.932 . S
C760 C761 1.264 . S
C760 C765 1.479 . S
C760 C770 1.465 . S
C761 C760 1.264 . S
C761 C763 1.339 . S
C761 H788 0.931 . S
C762 C763 1.395 . S
C762 C764 1.320 . S
C763 C761 1.339 . S
C763 C762 1.395 . S
C763 H789 0.929 . S
C764 C762 1.320 . S
C764 C765 1.405 . S
C764 H790 0.930 . S
C765 C760 1.479 . S
C765 C764 1.405 . S
C765 H791 0.931 . S
U766 O767 2.454 . S
U766 O768 2.458 . S
U766 C769 2.984 . S
U766 C770 2.847 . S
U766 C783 2.882 . S
U766 O784 2.441 . S
U766 O785 2.420 . S
U766 O786 2.455 . S
U766 O787 2.449 . S
O767 U766 2.454 . S
O767 C769 1.353 . S
O768 U766 2.458 . S
O768 C769 1.286 . S
C769 U766 2.984 . S
C769 O767 1.353 . S
C769 O768 1.286 . S
C769 C771 1.363 . S
C770 C760 1.465 . S
C770 U766 2.847 . S
C770 O784 1.249 . S
C770 O785 1.202 . S
C771 C769 1.363 . S
C771 C773 1.408 . S
C771 C776 1.342 . S
C772 C773 1.310 . S
C772 C775 1.461 . S
C772 H792 0.932 . S
C773 C771 1.408 . S
C773 C772 1.310 . S
C773 H793 0.930 . S
C774 C775 1.474 . S
C774 C776 1.285 . S
C774 H794 0.929 . S
C775 C772 1.461 . S
C775 C774 1.474 . S
C776 C771 1.342 . S
C776 C774 1.285 . S
C776 H795 0.930 . S
C777 C780 1.424 . S
C777 C782 1.245 . S
C777 C783 1.428 . S
C778 C781 1.260 . S
C778 C782 1.477 . S
C778 H796 0.932 . S
C779 C780 1.384 . S
C779 C781 1.479 . S
C779 H797 0.929 . S
C780 C777 1.424 . S
C780 C779 1.384 . S
C780 H798 0.928 . S
C781 C778 1.260 . S
C781 C779 1.479 . S
C782 C777 1.245 . S
C782 C778 1.477 . S
C782 H799 0.932 . S
C783 U766 2.882 . S
C783 C777 1.428 . S
C783 O786 1.301 . S
C783 O787 1.282 . S
O784 U766 2.441 . S
O784 C770 1.249 . S
O785 U766 2.420 . S
O785 C770 1.202 . S
O786 U766 2.455 . S
O786 C783 1.301 . S
O787 U766 2.449 . S
O787 C783 1.282 . S
H788 C761 0.931 . S
H789 C763 0.929 . S
H790 C764 0.930 . S
H791 C765 0.931 . S
H792 C772 0.932 . S
H793 C773 0.930 . S
H794 C774 0.929 . S
H795 C776 0.930 . S
H796 C778 0.932 . S
H797 C779 0.929 . S
H798 C780 0.928 . S
H799 C782 0.932 . S
C800 C801 1.264 . S
C800 C805 1.479 . S
C800 C810 1.465 . S
C801 C800 1.264 . S
C801 C803 1.339 . S
C801 H828 0.931 . S
C802 C803 1.395 . S
C802 C804 1.320 . S
C803 C801 1.339 . S
C803 C802 1.395 . S
C803 H829 0.929 . S
C804 C802 1.320 . S
C804 C805 1.405 . S
C804 H830 0.930 . S
C805 C800 1.479 . S
C805 C804 1.405 . S
C805 H831 0.931 . S
U806 O807 2.454 1_545 S
U806 O808 2.458 1_545 S
U806 C809 2.984 1_545 S
U806 C810 2.847 . S
U806 C823 2.882 . S
U806 O824 2.441 . S
U806 O825 2.420 . S
U806 O826 2.455 . S
U806 O827 2.449 . S
O807 U806 2.454 1_565 S
O807 C809 1.353 . S
O808 U806 2.458 1_565 S
O808 C809 1.286 . S
C809 U806 2.984 1_565 S
C809 O807 1.353 . S
C809 O808 1.286 . S
C809 C811 1.363 . S
C810 C800 1.465 . S
C810 U806 2.847 . S
C810 O824 1.249 . S
C810 O825 1.202 . S
C811 C809 1.363 . S
C811 C813 1.408 . S
C811 C816 1.342 . S
C812 C813 1.310 . S
C812 C815 1.461 . S
C812 H832 0.932 . S
C813 C811 1.408 . S
C813 C812 1.310 . S
C813 H833 0.930 . S
C814 C815 1.474 . S
C814 C816 1.285 . S
C814 H834 0.929 . S
C815 C812 1.461 . S
C815 C814 1.474 . S
C816 C811 1.342 . S
C816 C814 1.285 . S
C816 H835 0.930 . S
C817 C820 1.424 . S
C817 C822 1.245 . S
C817 C823 1.428 . S
C818 C821 1.260 . S
C818 C822 1.477 . S
C818 H836 0.932 . S
C819 C820 1.384 . S
C819 C821 1.479 . S
C819 H837 0.929 . S
C820 C817 1.424 . S
C820 C819 1.384 . S
C820 H838 0.928 . S
C821 C818 1.260 . S
C821 C819 1.479 . S
C822 C817 1.245 . S
C822 C818 1.477 . S
C822 H839 0.932 . S
C823 U806 2.882 . S
C823 C817 1.428 . S
C823 O826 1.301 . S
C823 O827 1.282 . S
O824 U806 2.441 . S
O824 C810 1.249 . S
O825 U806 2.420 . S
O825 C810 1.202 . S
O826 U806 2.455 . S
O826 C823 1.301 . S
O827 U806 2.449 . S
O827 C823 1.282 . S
H828 C801 0.931 . S
H829 C803 0.929 . S
H830 C804 0.930 . S
H831 C805 0.931 . S
H832 C812 0.932 . S
H833 C813 0.930 . S
H834 C814 0.929 . S
H835 C816 0.930 . S
H836 C818 0.932 . S
H837 C819 0.929 . S
H838 C820 0.928 . S
H839 C822 0.932 . S
C840 C841 1.264 . S
C840 C845 1.479 . S
C840 C850 1.465 . S
C841 C840 1.264 . S
C841 C843 1.339 . S
C841 H868 0.931 . S
C842 C843 1.395 . S
C842 C844 1.320 . S
C843 C841 1.339 . S
C843 C842 1.395 . S
C843 H869 0.929 . S
C844 C842 1.320 . S
C844 C845 1.405 . S
C844 H870 0.930 . S
C845 C840 1.479 . S
C845 C844 1.405 . S
C845 H871 0.931 . S
U846 O847 2.454 . S
U846 O848 2.458 . S
U846 C849 2.984 . S
U846 C850 2.847 . S
U846 C863 2.882 . S
U846 O864 2.441 . S
U846 O865 2.420 . S
U846 O866 2.455 . S
U846 O867 2.449 . S
O847 U846 2.454 . S
O847 C849 1.353 . S
O848 U846 2.458 . S
O848 C849 1.286 . S
C849 U846 2.984 . S
C849 O847 1.353 . S
C849 O848 1.286 . S
C849 C851 1.363 . S
C850 C840 1.465 . S
C850 U846 2.847 . S
C850 O864 1.249 . S
C850 O865 1.202 . S
C851 C849 1.363 . S
C851 C853 1.408 . S
C851 C856 1.342 . S
C852 C853 1.310 . S
C852 C855 1.461 . S
C852 H872 0.932 . S
C853 C851 1.408 . S
C853 C852 1.310 . S
C853 H873 0.930 . S
C854 C855 1.474 . S
C854 C856 1.285 . S
C854 H874 0.929 . S
C855 C852 1.461 . S
C855 C854 1.474 . S
C856 C851 1.342 . S
C856 C854 1.285 . S
C856 H875 0.930 . S
C857 C860 1.424 . S
C857 C862 1.245 . S
C857 C863 1.428 . S
C858 C861 1.260 . S
C858 C862 1.477 . S
C858 H876 0.932 . S
C859 C860 1.384 . S
C859 C861 1.479 . S
C859 H877 0.929 . S
C860 C857 1.424 . S
C860 C859 1.384 . S
C860 H878 0.928 . S
C861 C858 1.260 . S
C861 C859 1.479 . S
C862 C857 1.245 . S
C862 C858 1.477 . S
C862 H879 0.932 . S
C863 U846 2.882 . S
C863 C857 1.428 . S
C863 O866 1.301 . S
C863 O867 1.282 . S
O864 U846 2.441 . S
O864 C850 1.249 . S
O865 U846 2.420 . S
O865 C850 1.202 . S
O866 U846 2.455 . S
O866 C863 1.301 . S
O867 U846 2.449 . S
O867 C863 1.282 . S
H868 C841 0.931 . S
H869 C843 0.929 . S
H870 C844 0.930 . S
H871 C845 0.931 . S
H872 C852 0.932 . S
H873 C853 0.930 . S
H874 C854 0.929 . S
H875 C856 0.930 . S
H876 C858 0.932 . S
H877 C859 0.929 . S
H878 C860 0.928 . S
H879 C862 0.932 . S
C880 C881 1.264 . S
C880 C885 1.479 . S
C880 C890 1.465 . S
C881 C880 1.264 . S
C881 C883 1.339 . S
C881 H908 0.931 . S
C882 C883 1.395 . S
C882 C884 1.320 . S
C883 C881 1.339 . S
C883 C882 1.395 . S
C883 H909 0.929 . S
C884 C882 1.320 . S
C884 C885 1.405 . S
C884 H910 0.930 . S
C885 C880 1.479 . S
C885 C884 1.405 . S
C885 H911 0.931 . S
U886 O887 2.454 1_565 S
U886 O888 2.458 1_565 S
U886 C889 2.984 1_565 S
U886 C890 2.847 . S
U886 C903 2.882 . S
U886 O904 2.441 . S
U886 O905 2.420 . S
U886 O906 2.455 . S
U886 O907 2.449 . S
O887 U886 2.454 1_545 S
O887 C889 1.353 . S
O888 U886 2.458 1_545 S
O888 C889 1.286 . S
C889 U886 2.984 1_545 S
C889 O887 1.353 . S
C889 O888 1.286 . S
C889 C891 1.363 . S
C890 C880 1.465 . S
C890 U886 2.847 . S
C890 O904 1.249 . S
C890 O905 1.202 . S
C891 C889 1.363 . S
C891 C893 1.408 . S
C891 C896 1.342 . S
C892 C893 1.310 . S
C892 C895 1.461 . S
C892 H912 0.932 . S
C893 C891 1.408 . S
C893 C892 1.310 . S
C893 H913 0.930 . S
C894 C895 1.474 . S
C894 C896 1.285 . S
C894 H914 0.929 . S
C895 C892 1.461 . S
C895 C894 1.474 . S
C896 C891 1.342 . S
C896 C894 1.285 . S
C896 H915 0.930 . S
C897 C900 1.424 . S
C897 C902 1.245 . S
C897 C903 1.428 . S
C898 C901 1.260 . S
C898 C902 1.477 . S
C898 H916 0.932 . S
C899 C900 1.384 . S
C899 C901 1.479 . S
C899 H917 0.929 . S
C900 C897 1.424 . S
C900 C899 1.384 . S
C900 H918 0.928 . S
C901 C898 1.260 . S
C901 C899 1.479 . S
C902 C897 1.245 . S
C902 C898 1.477 . S
C902 H919 0.932 . S
C903 U886 2.882 . S
C903 C897 1.428 . S
C903 O906 1.301 . S
C903 O907 1.282 . S
O904 U886 2.441 . S
O904 C890 1.249 . S
O905 U886 2.420 . S
O905 C890 1.202 . S
O906 U886 2.455 . S
O906 C903 1.301 . S
O907 U886 2.449 . S
O907 C903 1.282 . S
H908 C881 0.931 . S
H909 C883 0.929 . S
H910 C884 0.930 . S
H911 C885 0.931 . S
H912 C892 0.932 . S
H913 C893 0.930 . S
H914 C894 0.929 . S
H915 C896 0.930 . S
H916 C898 0.932 . S
H917 C899 0.929 . S
H918 C900 0.928 . S
H919 C902 0.932 . S
C920 C921 1.264 . S
C920 C925 1.479 . S
C920 C930 1.465 . S
C921 C920 1.264 . S
C921 C923 1.339 . S
C921 H948 0.931 . S
C922 C923 1.395 . S
C922 C924 1.320 . S
C923 C921 1.339 . S
C923 C922 1.395 . S
C923 H949 0.929 . S
C924 C922 1.320 . S
C924 C925 1.405 . S
C924 H950 0.930 . S
C925 C920 1.479 . S
C925 C924 1.405 . S
C925 H951 0.931 . S
U926 O927 2.454 . S
U926 O928 2.458 . S
U926 C929 2.984 . S
U926 C930 2.847 . S
U926 C943 2.882 . S
U926 O944 2.441 . S
U926 O945 2.420 . S
U926 O946 2.455 . S
U926 O947 2.449 . S
O927 U926 2.454 . S
O927 C929 1.353 . S
O928 U926 2.458 . S
O928 C929 1.286 . S
C929 U926 2.984 . S
C929 O927 1.353 . S
C929 O928 1.286 . S
C929 C931 1.363 . S
C930 C920 1.465 . S
C930 U926 2.847 . S
C930 O944 1.249 . S
C930 O945 1.202 . S
C931 C929 1.363 . S
C931 C933 1.408 . S
C931 C936 1.342 . S
C932 C933 1.310 . S
C932 C935 1.461 . S
C932 H952 0.932 . S
C933 C931 1.408 . S
C933 C932 1.310 . S
C933 H953 0.930 . S
C934 C935 1.474 . S
C934 C936 1.285 . S
C934 H954 0.929 . S
C935 C932 1.461 . S
C935 C934 1.474 . S
C936 C931 1.342 . S
C936 C934 1.285 . S
C936 H955 0.930 . S
C937 C940 1.424 . S
C937 C942 1.245 . S
C937 C943 1.428 . S
C938 C941 1.260 . S
C938 C942 1.477 . S
C938 H956 0.932 . S
C939 C940 1.384 . S
C939 C941 1.479 . S
C939 H957 0.929 . S
C940 C937 1.424 . S
C940 C939 1.384 . S
C940 H958 0.928 . S
C941 C938 1.260 . S
C941 C939 1.479 . S
C942 C937 1.245 . S
C942 C938 1.477 . S
C942 H959 0.932 . S
C943 U926 2.882 . S
C943 C937 1.428 . S
C943 O946 1.301 . S
C943 O947 1.282 . S
O944 U926 2.441 . S
O944 C930 1.249 . S
O945 U926 2.420 . S
O945 C930 1.202 . S
O946 U926 2.455 . S
O946 C943 1.301 . S
O947 U926 2.449 . S
O947 C943 1.282 . S
H948 C921 0.931 . S
H949 C923 0.929 . S
H950 C924 0.930 . S
H951 C925 0.931 . S
H952 C932 0.932 . S
H953 C933 0.930 . S
H954 C934 0.929 . S
H955 C936 0.930 . S
H956 C938 0.932 . S
H957 C939 0.929 . S
H958 C940 0.928 . S
H959 C942 0.932 . S
C960 C961 1.291 . S
C960 C965 1.476 . S
C960 C970 1.440 1_545 S
C961 C960 1.291 . S
C961 C963 1.339 . S
C961 H988 0.931 . S
C962 C963 1.395 . S
C962 C964 1.320 . S
C963 C961 1.339 . S
C963 C962 1.395 . S
C963 H989 0.929 . S
C964 C962 1.320 . S
C964 C965 1.403 . S
C964 H990 0.930 . S
C965 C960 1.476 . S
C965 C964 1.403 . S
C965 H991 0.933 1_545 S
U966 O967 2.454 . S
U966 O968 2.458 . S
U966 C969 2.984 . S
U966 C970 2.847 . S
U966 C983 2.882 . S
U966 O984 2.441 . S
U966 O985 2.420 . S
U966 O986 2.455 . S
U966 O987 2.449 . S
O967 U966 2.454 . S
O967 C969 1.353 . S
O968 U966 2.458 . S
O968 C969 1.286 . S
C969 U966 2.984 . S
C969 O967 1.353 . S
C969 O968 1.286 . S
C969 C971 1.363 . S
C970 C960 1.440 1_565 S
C970 U966 2.847 . S
C970 O984 1.249 . S
C970 O985 1.202 . S
C971 C969 1.363 . S
C971 C973 1.408 . S
C971 C976 1.342 . S
C972 C973 1.310 . S
C972 C975 1.461 . S
C972 H992 0.932 . S
C973 C971 1.408 . S
C973 C972 1.310 . S
C973 H993 0.930 . S
C974 C975 1.474 . S
C974 C976 1.285 . S
C974 H994 0.929 . S
C975 C972 1.461 . S
C975 C974 1.474 . S
C976 C971 1.342 . S
C976 C974 1.285 . S
C976 H995 0.930 . S
C977 C980 1.422 . S
C977 C982 1.245 1_545 S
C977 C983 1.429 1_545 S
C978 C981 1.260 . S
C978 C982 1.472 1_545 S
C978 H996 0.932 . S
C979 C980 1.384 . S
C979 C981 1.479 . S
C979 H997 0.929 . S
C980 C977 1.422 . S
C980 C979 1.384 . S
C980 H998 0.928 . S
C981 C978 1.260 . S
C981 C979 1.479 . S
C982 C977 1.245 1_565 S
C982 C978 1.472 1_565 S
C982 H999 0.937 . S
C983 U966 2.882 . S
C983 C977 1.429 1_565 S
C983 O986 1.301 . S
C983 O987 1.282 . S
O984 U966 2.441 . S
O984 C970 1.249 . S
O985 U966 2.420 . S
O985 C970 1.202 . S
O986 U966 2.455 . S
O986 C983 1.301 . S
O987 U966 2.449 . S
O987 C983 1.282 . S
H988 C961 0.931 . S
H989 C963 0.929 . S
H990 C964 0.930 . S
H991 C965 0.933 1_565 S
H992 C972 0.932 . S
H993 C973 0.930 . S
H994 C974 0.929 . S
H995 C976 0.930 . S
H996 C978 0.932 . S
H997 C979 0.929 . S
H998 C980 0.928 . S
H999 C982 0.937 . S
C1000 C1001 1.264 . S
C1000 C1005 1.479 . S
C1000 C1010 1.465 . S
C1001 C1000 1.264 . S
C1001 C1003 1.339 . S
C1001 H1028 0.931 . S
C1002 C1003 1.395 . S
C1002 C1004 1.320 . S
C1003 C1001 1.339 . S
C1003 C1002 1.395 . S
C1003 H1029 0.929 . S
C1004 C1002 1.320 . S
C1004 C1005 1.405 . S
C1004 H1030 0.930 . S
C1005 C1000 1.479 . S
C1005 C1004 1.405 . S
C1005 H1031 0.931 . S
U1006 O1007 2.454 . S
U1006 O1008 2.458 . S
U1006 C1009 2.984 . S
U1006 C1010 2.847 . S
U1006 C1023 2.882 . S
U1006 O1024 2.441 . S
U1006 O1025 2.420 . S
U1006 O1026 2.455 . S
U1006 O1027 2.449 . S
O1007 U1006 2.454 . S
O1007 C1009 1.353 . S
O1008 U1006 2.458 . S
O1008 C1009 1.286 . S
C1009 U1006 2.984 . S
C1009 O1007 1.353 . S
C1009 O1008 1.286 . S
C1009 C1011 1.363 . S
C1010 C1000 1.465 . S
C1010 U1006 2.847 . S
C1010 O1024 1.249 . S
C1010 O1025 1.202 . S
C1011 C1009 1.363 . S
C1011 C1013 1.408 . S
C1011 C1016 1.342 . S
C1012 C1013 1.310 . S
C1012 C1015 1.461 . S
C1012 H1032 0.932 . S
C1013 C1011 1.408 . S
C1013 C1012 1.310 . S
C1013 H1033 0.930 . S
C1014 C1015 1.474 . S
C1014 C1016 1.285 . S
C1014 H1034 0.929 . S
C1015 C1012 1.461 . S
C1015 C1014 1.474 . S
C1016 C1011 1.342 . S
C1016 C1014 1.285 . S
C1016 H1035 0.930 . S
C1017 C1020 1.424 . S
C1017 C1022 1.245 . S
C1017 C1023 1.428 . S
C1018 C1021 1.260 . S
C1018 C1022 1.477 . S
C1018 H1036 0.932 . S
C1019 C1020 1.384 . S
C1019 C1021 1.479 . S
C1019 H1037 0.929 . S
C1020 C1017 1.424 . S
C1020 C1019 1.384 . S
C1020 H1038 0.928 . S
C1021 C1018 1.260 . S
C1021 C1019 1.479 . S
C1022 C1017 1.245 . S
C1022 C1018 1.477 . S
C1022 H1039 0.932 . S
C1023 U1006 2.882 . S
C1023 C1017 1.428 . S
C1023 O1026 1.301 . S
C1023 O1027 1.282 . S
O1024 U1006 2.441 . S
O1024 C1010 1.249 . S
O1025 U1006 2.420 . S
O1025 C1010 1.202 . S
O1026 U1006 2.455 . S
O1026 C1023 1.301 . S
O1027 U1006 2.449 . S
O1027 C1023 1.282 . S
H1028 C1001 0.931 . S
H1029 C1003 0.929 . S
H1030 C1004 0.930 . S
H1031 C1005 0.931 . S
H1032 C1012 0.932 . S
H1033 C1013 0.930 . S
H1034 C1014 0.929 . S
H1035 C1016 0.930 . S
H1036 C1018 0.932 . S
H1037 C1019 0.929 . S
H1038 C1020 0.928 . S
H1039 C1022 0.932 . S
C1040 C1041 1.291 . S
C1040 C1045 1.476 . S
C1040 C1050 1.440 1_565 S
C1041 C1040 1.291 . S
C1041 C1043 1.339 . S
C1041 H1068 0.931 . S
C1042 C1043 1.395 . S
C1042 C1044 1.320 . S
C1043 C1041 1.339 . S
C1043 C1042 1.395 . S
C1043 H1069 0.929 . S
C1044 C1042 1.320 . S
C1044 C1045 1.403 . S
C1044 H1070 0.930 . S
C1045 C1040 1.476 . S
C1045 C1044 1.403 . S
C1045 H1071 0.933 1_565 S
U1046 O1047 2.454 . S
U1046 O1048 2.458 . S
U1046 C1049 2.984 . S
U1046 C1050 2.847 . S
U1046 C1063 2.882 . S
U1046 O1064 2.441 . S
U1046 O1065 2.420 . S
U1046 O1066 2.455 . S
U1046 O1067 2.449 . S
O1047 U1046 2.454 . S
O1047 C1049 1.353 . S
O1048 U1046 2.458 . S
O1048 C1049 1.286 . S
C1049 U1046 2.984 . S
C1049 O1047 1.353 . S
C1049 O1048 1.286 . S
C1049 C1051 1.363 . S
C1050 C1040 1.440 1_545 S
C1050 U1046 2.847 . S
C1050 O1064 1.249 . S
C1050 O1065 1.202 . S
C1051 C1049 1.363 . S
C1051 C1053 1.408 . S
C1051 C1056 1.342 . S
C1052 C1053 1.310 . S
C1052 C1055 1.461 . S
C1052 H1072 0.932 . S
C1053 C1051 1.408 . S
C1053 C1052 1.310 . S
C1053 H1073 0.930 . S
C1054 C1055 1.474 . S
C1054 C1056 1.285 . S
C1054 H1074 0.929 . S
C1055 C1052 1.461 . S
C1055 C1054 1.474 . S
C1056 C1051 1.342 . S
C1056 C1054 1.285 . S
C1056 H1075 0.930 . S
C1057 C1060 1.422 . S
C1057 C1062 1.245 1_565 S
C1057 C1063 1.429 1_565 S
C1058 C1061 1.260 . S
C1058 C1062 1.472 1_565 S
C1058 H1076 0.932 . S
C1059 C1060 1.384 . S
C1059 C1061 1.479 . S
C1059 H1077 0.929 . S
C1060 C1057 1.422 . S
C1060 C1059 1.384 . S
C1060 H1078 0.928 . S
C1061 C1058 1.260 . S
C1061 C1059 1.479 . S
C1062 C1057 1.245 1_545 S
C1062 C1058 1.472 1_545 S
C1062 H1079 0.937 . S
C1063 U1046 2.882 . S
C1063 C1057 1.429 1_545 S
C1063 O1066 1.301 . S
C1063 O1067 1.282 . S
O1064 U1046 2.441 . S
O1064 C1050 1.249 . S
O1065 U1046 2.420 . S
O1065 C1050 1.202 . S
O1066 U1046 2.455 . S
O1066 C1063 1.301 . S
O1067 U1046 2.449 . S
O1067 C1063 1.282 . S
H1068 C1041 0.931 . S
H1069 C1043 0.929 . S
H1070 C1044 0.930 . S
H1071 C1045 0.933 1_545 S
H1072 C1052 0.932 . S
H1073 C1053 0.930 . S
H1074 C1054 0.929 . S
H1075 C1056 0.930 . S
H1076 C1058 0.932 . S
H1077 C1059 0.929 . S
H1078 C1060 0.928 . S
H1079 C1062 0.937 . S
C1080 C1081 1.264 . S
C1080 C1085 1.479 . S
C1080 C1090 1.465 . S
C1081 C1080 1.264 . S
C1081 C1083 1.339 . S
C1081 H1108 0.931 . S
C1082 C1083 1.395 . S
C1082 C1084 1.320 . S
C1083 C1081 1.339 . S
C1083 C1082 1.395 . S
C1083 H1109 0.929 . S
C1084 C1082 1.320 . S
C1084 C1085 1.405 . S
C1084 H1110 0.930 . S
C1085 C1080 1.479 . S
C1085 C1084 1.405 . S
C1085 H1111 0.931 . S
U1086 O1087 2.454 . S
U1086 O1088 2.458 . S
U1086 C1089 2.984 . S
U1086 C1090 2.847 . S
U1086 C1103 2.882 . S
U1086 O1104 2.441 . S
U1086 O1105 2.420 . S
U1086 O1106 2.455 . S
U1086 O1107 2.449 . S
O1087 U1086 2.454 . S
O1087 C1089 1.353 . S
O1088 U1086 2.458 . S
O1088 C1089 1.286 . S
C1089 U1086 2.984 . S
C1089 O1087 1.353 . S
C1089 O1088 1.286 . S
C1089 C1091 1.363 . S
C1090 C1080 1.465 . S
C1090 U1086 2.847 . S
C1090 O1104 1.249 . S
C1090 O1105 1.202 . S
C1091 C1089 1.363 . S
C1091 C1093 1.408 . S
C1091 C1096 1.342 . S
C1092 C1093 1.310 . S
C1092 C1095 1.461 . S
C1092 H1112 0.932 . S
C1093 C1091 1.408 . S
C1093 C1092 1.310 . S
C1093 H1113 0.930 . S
C1094 C1095 1.474 . S
C1094 C1096 1.285 . S
C1094 H1114 0.929 . S
C1095 C1092 1.461 . S
C1095 C1094 1.474 . S
C1096 C1091 1.342 . S
C1096 C1094 1.285 . S
C1096 H1115 0.930 . S
C1097 C1100 1.424 . S
C1097 C1102 1.245 . S
C1097 C1103 1.428 . S
C1098 C1101 1.260 . S
C1098 C1102 1.477 . S
C1098 H1116 0.932 . S
C1099 C1100 1.384 . S
C1099 C1101 1.479 . S
C1099 H1117 0.929 . S
C1100 C1097 1.424 . S
C1100 C1099 1.384 . S
C1100 H1118 0.928 . S
C1101 C1098 1.260 . S
C1101 C1099 1.479 . S
C1102 C1097 1.245 . S
C1102 C1098 1.477 . S
C1102 H1119 0.932 . S
C1103 U1086 2.882 . S
C1103 C1097 1.428 . S
C1103 O1106 1.301 . S
C1103 O1107 1.282 . S
O1104 U1086 2.441 . S
O1104 C1090 1.249 . S
O1105 U1086 2.420 . S
O1105 C1090 1.202 . S
O1106 U1086 2.455 . S
O1106 C1103 1.301 . S
O1107 U1086 2.449 . S
O1107 C1103 1.282 . S
H1108 C1081 0.931 . S
H1109 C1083 0.929 . S
H1110 C1084 0.930 . S
H1111 C1085 0.931 . S
H1112 C1092 0.932 . S
H1113 C1093 0.930 . S
H1114 C1094 0.929 . S
H1115 C1096 0.930 . S
H1116 C1098 0.932 . S
H1117 C1099 0.929 . S
H1118 C1100 0.928 . S
H1119 C1102 0.932 . S
C1120 C1121 1.291 . S
C1120 C1125 1.476 . S
C1120 C1130 1.440 1_565 S
C1121 C1120 1.291 . S
C1121 C1123 1.339 . S
C1121 H1148 0.931 . S
C1122 C1123 1.395 . S
C1122 C1124 1.320 . S
C1123 C1121 1.339 . S
C1123 C1122 1.395 . S
C1123 H1149 0.929 . S
C1124 C1122 1.320 . S
C1124 C1125 1.403 . S
C1124 H1150 0.930 . S
C1125 C1120 1.476 . S
C1125 C1124 1.403 . S
C1125 H1151 0.933 1_565 S
U1126 O1127 2.454 . S
U1126 O1128 2.458 . S
U1126 C1129 2.984 . S
U1126 C1130 2.847 . S
U1126 C1143 2.882 . S
U1126 O1144 2.441 . S
U1126 O1145 2.420 . S
U1126 O1146 2.455 . S
U1126 O1147 2.449 . S
O1127 U1126 2.454 . S
O1127 C1129 1.353 . S
O1128 U1126 2.458 . S
O1128 C1129 1.286 . S
C1129 U1126 2.984 . S
C1129 O1127 1.353 . S
C1129 O1128 1.286 . S
C1129 C1131 1.363 . S
C1130 C1120 1.440 1_545 S
C1130 U1126 2.847 . S
C1130 O1144 1.249 . S
C1130 O1145 1.202 . S
C1131 C1129 1.363 . S
C1131 C1133 1.408 . S
C1131 C1136 1.342 . S
C1132 C1133 1.310 . S
C1132 C1135 1.461 . S
C1132 H1152 0.932 . S
C1133 C1131 1.408 . S
C1133 C1132 1.310 . S
C1133 H1153 0.930 . S
C1134 C1135 1.474 . S
C1134 C1136 1.285 . S
C1134 H1154 0.929 . S
C1135 C1132 1.461 . S
C1135 C1134 1.474 . S
C1136 C1131 1.342 . S
C1136 C1134 1.285 . S
C1136 H1155 0.930 . S
C1137 C1140 1.422 . S
C1137 C1142 1.245 1_565 S
C1137 C1143 1.429 1_565 S
C1138 C1141 1.260 . S
C1138 C1142 1.472 1_565 S
C1138 H1156 0.932 . S
C1139 C1140 1.384 . S
C1139 C1141 1.479 . S
C1139 H1157 0.929 . S
C1140 C1137 1.422 . S
C1140 C1139 1.384 . S
C1140 H1158 0.928 . S
C1141 C1138 1.260 . S
C1141 C1139 1.479 . S
C1142 C1137 1.245 1_545 S
C1142 C1138 1.472 1_545 S
C1142 H1159 0.937 . S
C1143 U1126 2.882 . S
C1143 C1137 1.429 1_545 S
C1143 O1146 1.301 . S
C1143 O1147 1.282 . S
O1144 U1126 2.441 . S
O1144 C1130 1.249 . S
O1145 U1126 2.420 . S
O1145 C1130 1.202 . S
O1146 U1126 2.455 . S
O1146 C1143 1.301 . S
O1147 U1126 2.449 . S
O1147 C1143 1.282 . S
H1148 C1121 0.931 . S
H1149 C1123 0.929 . S
H1150 C1124 0.930 . S
H1151 C1125 0.933 1_545 S
H1152 C1132 0.932 . S
H1153 C1133 0.930 . S
H1154 C1134 0.929 . S
H1155 C1136 0.930 . S
H1156 C1138 0.932 . S
H1157 C1139 0.929 . S
H1158 C1140 0.928 . S
H1159 C1142 0.937 . S
C1160 C1161 1.264 . S
C1160 C1165 1.479 . S
C1160 C1170 1.465 . S
C1161 C1160 1.264 . S
C1161 C1163 1.339 . S
C1161 H1188 0.931 . S
C1162 C1163 1.395 . S
C1162 C1164 1.320 . S
C1163 C1161 1.339 . S
C1163 C1162 1.395 . S
C1163 H1189 0.929 . S
C1164 C1162 1.320 . S
C1164 C1165 1.405 . S
C1164 H1190 0.930 . S
C1165 C1160 1.479 . S
C1165 C1164 1.405 . S
C1165 H1191 0.931 . S
U1166 O1167 2.454 . S
U1166 O1168 2.458 . S
U1166 C1169 2.984 . S
U1166 C1170 2.847 . S
U1166 C1183 2.882 . S
U1166 O1184 2.441 . S
U1166 O1185 2.420 . S
U1166 O1186 2.455 . S
U1166 O1187 2.449 . S
O1167 U1166 2.454 . S
O1167 C1169 1.353 . S
O1168 U1166 2.458 . S
O1168 C1169 1.286 . S
C1169 U1166 2.984 . S
C1169 O1167 1.353 . S
C1169 O1168 1.286 . S
C1169 C1171 1.363 . S
C1170 C1160 1.465 . S
C1170 U1166 2.847 . S
C1170 O1184 1.249 . S
C1170 O1185 1.202 . S
C1171 C1169 1.363 . S
C1171 C1173 1.408 . S
C1171 C1176 1.342 . S
C1172 C1173 1.310 . S
C1172 C1175 1.461 . S
C1172 H1192 0.932 . S
C1173 C1171 1.408 . S
C1173 C1172 1.310 . S
C1173 H1193 0.930 . S
C1174 C1175 1.474 . S
C1174 C1176 1.285 . S
C1174 H1194 0.929 . S
C1175 C1172 1.461 . S
C1175 C1174 1.474 . S
C1176 C1171 1.342 . S
C1176 C1174 1.285 . S
C1176 H1195 0.930 . S
C1177 C1180 1.424 . S
C1177 C1182 1.245 . S
C1177 C1183 1.428 . S
C1178 C1181 1.260 . S
C1178 C1182 1.477 . S
C1178 H1196 0.932 . S
C1179 C1180 1.384 . S
C1179 C1181 1.479 . S
C1179 H1197 0.929 . S
C1180 C1177 1.424 . S
C1180 C1179 1.384 . S
C1180 H1198 0.928 . S
C1181 C1178 1.260 . S
C1181 C1179 1.479 . S
C1182 C1177 1.245 . S
C1182 C1178 1.477 . S
C1182 H1199 0.932 . S
C1183 U1166 2.882 . S
C1183 C1177 1.428 . S
C1183 O1186 1.301 . S
C1183 O1187 1.282 . S
O1184 U1166 2.441 . S
O1184 C1170 1.249 . S
O1185 U1166 2.420 . S
O1185 C1170 1.202 . S
O1186 U1166 2.455 . S
O1186 C1183 1.301 . S
O1187 U1166 2.449 . S
O1187 C1183 1.282 . S
H1188 C1161 0.931 . S
H1189 C1163 0.929 . S
H1190 C1164 0.930 . S
H1191 C1165 0.931 . S
H1192 C1172 0.932 . S
H1193 C1173 0.930 . S
H1194 C1174 0.929 . S
H1195 C1176 0.930 . S
H1196 C1178 0.932 . S
H1197 C1179 0.929 . S
H1198 C1180 0.928 . S
H1199 C1182 0.932 . S
C1200 C1201 1.291 . S
C1200 C1205 1.476 . S
C1200 C1210 1.440 1_545 S
C1201 C1200 1.291 . S
C1201 C1203 1.339 . S
C1201 H1228 0.931 . S
C1202 C1203 1.395 . S
C1202 C1204 1.320 . S
C1203 C1201 1.339 . S
C1203 C1202 1.395 . S
C1203 H1229 0.929 . S
C1204 C1202 1.320 . S
C1204 C1205 1.403 . S
C1204 H1230 0.930 . S
C1205 C1200 1.476 . S
C1205 C1204 1.403 . S
C1205 H1231 0.933 1_545 S
U1206 O1207 2.454 . S
U1206 O1208 2.458 . S
U1206 C1209 2.984 . S
U1206 C1210 2.847 . S
U1206 C1223 2.882 . S
U1206 O1224 2.441 . S
U1206 O1225 2.420 . S
U1206 O1226 2.455 . S
U1206 O1227 2.449 . S
O1207 U1206 2.454 . S
O1207 C1209 1.353 . S
O1208 U1206 2.458 . S
O1208 C1209 1.286 . S
C1209 U1206 2.984 . S
C1209 O1207 1.353 . S
C1209 O1208 1.286 . S
C1209 C1211 1.363 . S
C1210 C1200 1.440 1_565 S
C1210 U1206 2.847 . S
C1210 O1224 1.249 . S
C1210 O1225 1.202 . S
C1211 C1209 1.363 . S
C1211 C1213 1.408 . S
C1211 C1216 1.342 . S
C1212 C1213 1.310 . S
C1212 C1215 1.461 . S
C1212 H1232 0.932 . S
C1213 C1211 1.408 . S
C1213 C1212 1.310 . S
C1213 H1233 0.930 . S
C1214 C1215 1.474 . S
C1214 C1216 1.285 . S
C1214 H1234 0.929 . S
C1215 C1212 1.461 . S
C1215 C1214 1.474 . S
C1216 C1211 1.342 . S
C1216 C1214 1.285 . S
C1216 H1235 0.930 . S
C1217 C1220 1.422 . S
C1217 C1222 1.245 1_545 S
C1217 C1223 1.429 1_545 S
C1218 C1221 1.260 . S
C1218 C1222 1.472 1_545 S
C1218 H1236 0.932 . S
C1219 C1220 1.384 . S
C1219 C1221 1.479 . S
C1219 H1237 0.929 . S
C1220 C1217 1.422 . S
C1220 C1219 1.384 . S
C1220 H1238 0.928 . S
C1221 C1218 1.260 . S
C1221 C1219 1.479 . S
C1222 C1217 1.245 1_565 S
C1222 C1218 1.472 1_565 S
C1222 H1239 0.937 . S
C1223 U1206 2.882 . S
C1223 C1217 1.429 1_565 S
C1223 O1226 1.301 . S
C1223 O1227 1.282 . S
O1224 U1206 2.441 . S
O1224 C1210 1.249 . S
O1225 U1206 2.420 . S
O1225 C1210 1.202 . S
O1226 U1206 2.455 . S
O1226 C1223 1.301 . S
O1227 U1206 2.449 . S
O1227 C1223 1.282 . S
H1228 C1201 0.931 . S
H1229 C1203 0.929 . S
H1230 C1204 0.930 . S
H1231 C1205 0.933 1_565 S
H1232 C1212 0.932 . S
H1233 C1213 0.930 . S
H1234 C1214 0.929 . S
H1235 C1216 0.930 . S
H1236 C1218 0.932 . S
H1237 C1219 0.929 . S
H1238 C1220 0.928 . S
H1239 C1222 0.937 . S
C1240 C1241 1.264 . S
C1240 C1245 1.479 . S
C1240 C1250 1.465 . S
C1241 C1240 1.264 . S
C1241 C1243 1.339 . S
C1241 H1268 0.931 . S
C1242 C1243 1.395 . S
C1242 C1244 1.320 . S
C1243 C1241 1.339 . S
C1243 C1242 1.395 . S
C1243 H1269 0.929 . S
C1244 C1242 1.320 . S
C1244 C1245 1.405 . S
C1244 H1270 0.930 . S
C1245 C1240 1.479 . S
C1245 C1244 1.405 . S
C1245 H1271 0.931 . S
U1246 O1247 2.454 . S
U1246 O1248 2.458 . S
U1246 C1249 2.984 . S
U1246 C1250 2.847 . S
U1246 C1263 2.882 . S
U1246 O1264 2.441 . S
U1246 O1265 2.420 . S
U1246 O1266 2.455 . S
U1246 O1267 2.449 . S
O1247 U1246 2.454 . S
O1247 C1249 1.353 . S
O1248 U1246 2.458 . S
O1248 C1249 1.286 . S
C1249 U1246 2.984 . S
C1249 O1247 1.353 . S
C1249 O1248 1.286 . S
C1249 C1251 1.363 . S
C1250 C1240 1.465 . S
C1250 U1246 2.847 . S
C1250 O1264 1.249 . S
C1250 O1265 1.202 . S
C1251 C1249 1.363 . S
C1251 C1253 1.408 . S
C1251 C1256 1.342 . S
C1252 C1253 1.310 . S
C1252 C1255 1.461 . S
C1252 H1272 0.932 . S
C1253 C1251 1.408 . S
C1253 C1252 1.310 . S
C1253 H1273 0.930 . S
C1254 C1255 1.474 . S
C1254 C1256 1.285 . S
C1254 H1274 0.929 . S
C1255 C1252 1.461 . S
C1255 C1254 1.474 . S
C1256 C1251 1.342 . S
C1256 C1254 1.285 . S
C1256 H1275 0.930 . S
C1257 C1260 1.424 . S
C1257 C1262 1.245 . S
C1257 C1263 1.428 . S
C1258 C1261 1.260 . S
C1258 C1262 1.477 . S
C1258 H1276 0.932 . S
C1259 C1260 1.384 . S
C1259 C1261 1.479 . S
C1259 H1277 0.929 . S
C1260 C1257 1.424 . S
C1260 C1259 1.384 . S
C1260 H1278 0.928 . S
C1261 C1258 1.260 . S
C1261 C1259 1.479 . S
C1262 C1257 1.245 . S
C1262 C1258 1.477 . S
C1262 H1279 0.932 . S
C1263 U1246 2.882 . S
C1263 C1257 1.428 . S
C1263 O1266 1.301 . S
C1263 O1267 1.282 . S
O1264 U1246 2.441 . S
O1264 C1250 1.249 . S
O1265 U1246 2.420 . S
O1265 C1250 1.202 . S
O1266 U1246 2.455 . S
O1266 C1263 1.301 . S
O1267 U1246 2.449 . S
O1267 C1263 1.282 . S
H1268 C1241 0.931 . S
H1269 C1243 0.929 . S
H1270 C1244 0.930 . S
H1271 C1245 0.931 . S
H1272 C1252 0.932 . S
H1273 C1253 0.930 . S
H1274 C1254 0.929 . S
H1275 C1256 0.930 . S
H1276 C1258 0.932 . S
H1277 C1259 0.929 . S
H1278 C1260 0.928 . S
H1279 C1262 0.932 . S
H1280 C1288 0.950 . S
H1281 C1293 0.950 . S
H1282 C1290 0.950 . S
H1283 C1292 0.950 . S
H1284 C1294 0.950 . S
H1285 C1296 0.950 . S
H1286 C1298 0.950 . S
H1287 C1299 0.950 . S
C1288 H1280 0.950 . S
C1288 C1289 1.386 . S
C1288 C1290 1.391 . S
C1289 C1288 1.386 . S
C1289 C1293 1.393 . S
C1290 H1282 0.950 . S
C1290 C1288 1.391 . S
C1290 C1291 1.400 . S
C1291 C1290 1.400 . S
C1291 C1292 1.398 . S
C1291 C1297 1.491 1_556 S
C1292 H1283 0.950 . S
C1292 C1291 1.398 . S
C1292 C1293 1.391 . S
C1293 H1281 0.950 . S
C1293 C1289 1.393 . S
C1293 C1292 1.391 . S
C1294 H1284 0.950 . S
C1294 C1295 1.386 . S
C1294 C1296 1.391 . S
C1295 C1294 1.386 . S
C1295 C1299 1.393 . S
C1296 H1285 0.950 . S
C1296 C1294 1.391 . S
C1296 C1297 1.400 . S
C1297 C1291 1.491 1_554 S
C1297 C1296 1.400 . S
C1297 C1298 1.398 . S
C1298 H1286 0.950 . S
C1298 C1297 1.398 . S
C1298 C1299 1.391 . S
C1299 H1287 0.950 . S
C1299 C1295 1.393 . S
C1299 C1298 1.391 . S
H1300 C1308 0.950 . S
H1301 C1313 0.950 . S
H1302 C1310 0.950 . S
H1303 C1312 0.950 . S
H1304 C1314 0.950 . S
H1305 C1316 0.950 . S
H1306 C1318 0.950 . S
H1307 C1319 0.950 . S
C1308 H1300 0.950 . S
C1308 C1309 1.386 . S
C1308 C1310 1.391 . S
C1309 C1308 1.386 . S
C1309 C1313 1.393 . S
C1310 H1302 0.950 . S
C1310 C1308 1.391 . S
C1310 C1311 1.400 . S
C1311 C1310 1.400 . S
C1311 C1312 1.398 . S
C1311 C1317 1.491 . S
C1312 H1303 0.950 . S
C1312 C1311 1.398 . S
C1312 C1313 1.391 . S
C1313 H1301 0.950 . S
C1313 C1309 1.393 . S
C1313 C1312 1.391 . S
C1314 H1304 0.950 . S
C1314 C1315 1.386 . S
C1314 C1316 1.391 . S
C1315 C1314 1.386 . S
C1315 C1319 1.393 . S
C1316 H1305 0.950 . S
C1316 C1314 1.391 . S
C1316 C1317 1.400 . S
C1317 C1311 1.491 . S
C1317 C1316 1.400 . S
C1317 C1318 1.398 . S
C1318 H1306 0.950 . S
C1318 C1317 1.398 . S
C1318 C1319 1.391 . S
C1319 H1307 0.950 . S
C1319 C1315 1.393 . S
C1319 C1318 1.391 . S
H1320 C1328 0.950 . S
H1321 C1333 0.950 . S
H1322 C1330 0.950 . S
H1323 C1332 0.950 . S
H1324 C1334 0.950 . S
H1325 C1336 0.950 . S
H1326 C1338 0.950 . S
H1327 C1339 0.950 . S
C1328 H1320 0.950 . S
C1328 C1329 1.386 . S
C1328 C1330 1.391 . S
C1329 C1328 1.386 . S
C1329 C1333 1.393 . S
C1330 H1322 0.950 . S
C1330 C1328 1.391 . S
C1330 C1331 1.400 . S
C1331 C1330 1.400 . S
C1331 C1332 1.398 . S
C1331 C1337 1.491 . S
C1332 H1323 0.950 . S
C1332 C1331 1.398 . S
C1332 C1333 1.391 . S
C1333 H1321 0.950 . S
C1333 C1329 1.393 . S
C1333 C1332 1.391 . S
C1334 H1324 0.950 . S
C1334 C1335 1.386 . S
C1334 C1336 1.391 . S
C1335 C1334 1.386 . S
C1335 C1339 1.393 . S
C1336 H1325 0.950 . S
C1336 C1334 1.391 . S
C1336 C1337 1.400 . S
C1337 C1331 1.491 . S
C1337 C1336 1.400 . S
C1337 C1338 1.398 . S
C1338 H1326 0.950 . S
C1338 C1337 1.398 . S
C1338 C1339 1.391 . S
C1339 H1327 0.950 . S
C1339 C1335 1.393 . S
C1339 C1338 1.391 . S
H1340 C1348 0.950 . S
H1341 C1353 0.950 . S
H1342 C1350 0.950 . S
H1343 C1352 0.950 . S
H1344 C1354 0.950 . S
H1345 C1356 0.950 . S
H1346 C1358 0.950 . S
H1347 C1359 0.950 . S
C1348 H1340 0.950 . S
C1348 C1349 1.386 . S
C1348 C1350 1.391 . S
C1349 C1348 1.386 . S
C1349 C1353 1.393 . S
C1350 H1342 0.950 . S
C1350 C1348 1.391 . S
C1350 C1351 1.400 . S
C1351 C1350 1.400 . S
C1351 C1352 1.398 . S
C1351 C1357 1.491 . S
C1352 H1343 0.950 . S
C1352 C1351 1.398 . S
C1352 C1353 1.391 . S
C1353 H1341 0.950 . S
C1353 C1349 1.393 . S
C1353 C1352 1.391 . S
C1354 H1344 0.950 . S
C1354 C1355 1.386 . S
C1354 C1356 1.391 . S
C1355 C1354 1.386 . S
C1355 C1359 1.393 . S
C1356 H1345 0.950 . S
C1356 C1354 1.391 . S
C1356 C1357 1.400 . S
C1357 C1351 1.491 . S
C1357 C1356 1.400 . S
C1357 C1358 1.398 . S
C1358 H1346 0.950 . S
C1358 C1357 1.398 . S
C1358 C1359 1.391 . S
C1359 H1347 0.950 . S
C1359 C1355 1.393 . S
C1359 C1358 1.391 . S
H1360 C1368 0.950 . S
H1361 C1373 0.950 . S
H1362 C1370 0.950 . S
H1363 C1372 0.950 . S
H1364 C1374 0.950 . S
H1365 C1376 0.950 . S
H1366 C1378 0.950 . S
H1367 C1379 0.950 . S
C1368 H1360 0.950 . S
C1368 C1369 1.386 . S
C1368 C1370 1.391 . S
C1369 C1368 1.386 . S
C1369 C1373 1.393 . S
C1370 H1362 0.950 . S
C1370 C1368 1.391 . S
C1370 C1371 1.400 . S
C1371 C1370 1.400 . S
C1371 C1372 1.398 . S
C1371 C1377 1.491 1_554 S
C1372 H1363 0.950 . S
C1372 C1371 1.398 . S
C1372 C1373 1.391 . S
C1373 H1361 0.950 . S
C1373 C1369 1.393 . S
C1373 C1372 1.391 . S
C1374 H1364 0.950 . S
C1374 C1375 1.386 . S
C1374 C1376 1.391 . S
C1375 C1374 1.386 . S
C1375 C1379 1.393 . S
C1376 H1365 0.950 . S
C1376 C1374 1.391 . S
C1376 C1377 1.400 . S
C1377 C1371 1.491 1_556 S
C1377 C1376 1.400 . S
C1377 C1378 1.398 . S
C1378 H1366 0.950 . S
C1378 C1377 1.398 . S
C1378 C1379 1.391 . S
C1379 H1367 0.950 . S
C1379 C1375 1.393 . S
C1379 C1378 1.391 . S
H1380 C1388 0.950 . S
H1381 C1393 0.950 . S
H1382 C1390 0.950 . S
H1383 C1392 0.950 . S
H1384 C1394 0.950 . S
H1385 C1396 0.950 . S
H1386 C1398 0.950 . S
H1387 C1399 0.950 . S
C1388 H1380 0.950 . S
C1388 C1389 1.386 . S
C1388 C1390 1.391 . S
C1389 C1388 1.386 . S
C1389 C1393 1.393 . S
C1390 H1382 0.950 . S
C1390 C1388 1.391 . S
C1390 C1391 1.400 . S
C1391 C1390 1.400 . S
C1391 C1392 1.398 . S
C1391 C1397 1.491 . S
C1392 H1383 0.950 . S
C1392 C1391 1.398 . S
C1392 C1393 1.391 . S
C1393 H1381 0.950 . S
C1393 C1389 1.393 . S
C1393 C1392 1.391 . S
C1394 H1384 0.950 . S
C1394 C1395 1.386 . S
C1394 C1396 1.391 . S
C1395 C1394 1.386 . S
C1395 C1399 1.393 . S
C1396 H1385 0.950 . S
C1396 C1394 1.391 . S
C1396 C1397 1.400 . S
C1397 C1391 1.491 . S
C1397 C1396 1.400 . S
C1397 C1398 1.398 . S
C1398 H1386 0.950 . S
C1398 C1397 1.398 . S
C1398 C1399 1.391 . S
C1399 H1387 0.950 . S
C1399 C1395 1.393 . S
C1399 C1398 1.391 . S
H1400 C1408 0.950 . S
H1401 C1413 0.950 . S
H1402 C1410 0.950 . S
H1403 C1412 0.950 . S
H1404 C1414 0.950 . S
H1405 C1416 0.950 . S
H1406 C1418 0.950 . S
H1407 C1419 0.950 . S
C1408 H1400 0.950 . S
C1408 C1409 1.386 . S
C1408 C1410 1.391 . S
C1409 C1408 1.386 . S
C1409 C1413 1.393 . S
C1410 H1402 0.950 . S
C1410 C1408 1.391 . S
C1410 C1411 1.400 . S
C1411 C1410 1.400 . S
C1411 C1412 1.398 . S
C1411 C1417 1.491 . S
C1412 H1403 0.950 . S
C1412 C1411 1.398 . S
C1412 C1413 1.391 . S
C1413 H1401 0.950 . S
C1413 C1409 1.393 . S
C1413 C1412 1.391 . S
C1414 H1404 0.950 . S
C1414 C1415 1.386 . S
C1414 C1416 1.391 . S
C1415 C1414 1.386 . S
C1415 C1419 1.393 . S
C1416 H1405 0.950 . S
C1416 C1414 1.391 . S
C1416 C1417 1.400 . S
C1417 C1411 1.491 . S
C1417 C1416 1.400 . S
C1417 C1418 1.398 . S
C1418 H1406 0.950 . S
C1418 C1417 1.398 . S
C1418 C1419 1.391 . S
C1419 H1407 0.950 . S
C1419 C1415 1.393 . S
C1419 C1418 1.391 . S
H1420 C1428 0.950 . S
H1421 C1433 0.950 . S
H1422 C1430 0.950 . S
H1423 C1432 0.950 . S
H1424 C1434 0.950 . S
H1425 C1436 0.950 . S
H1426 C1438 0.950 . S
H1427 C1439 0.950 . S
C1428 H1420 0.950 . S
C1428 C1429 1.386 . S
C1428 C1430 1.391 . S
C1429 C1428 1.386 . S
C1429 C1433 1.393 . S
C1430 H1422 0.950 . S
C1430 C1428 1.391 . S
C1430 C1431 1.400 . S
C1431 C1430 1.400 . S
C1431 C1432 1.398 . S
C1431 C1437 1.491 . S
C1432 H1423 0.950 . S
C1432 C1431 1.398 . S
C1432 C1433 1.391 . S
C1433 H1421 0.950 . S
C1433 C1429 1.393 . S
C1433 C1432 1.391 . S
C1434 H1424 0.950 . S
C1434 C1435 1.386 . S
C1434 C1436 1.391 . S
C1435 C1434 1.386 . S
C1435 C1439 1.393 . S
C1436 H1425 0.950 . S
C1436 C1434 1.391 . S
C1436 C1437 1.400 . S
C1437 C1431 1.491 . S
C1437 C1436 1.400 . S
C1437 C1438 1.398 . S
C1438 H1426 0.950 . S
C1438 C1437 1.398 . S
C1438 C1439 1.391 . S
C1439 H1427 0.950 . S
C1439 C1435 1.393 . S
C1439 C1438 1.391 . S
H1440 C1448 0.950 . S
H1441 C1453 0.990 . S
H1442 C1450 0.950 . S
H1443 C1452 0.950 . S
H1444 C1454 0.950 . S
H1445 C1456 0.950 . S
H1446 C1458 0.950 . S
H1447 C1459 0.980 . S
C1448 H1440 0.950 . S
C1448 C1449 1.386 . S
C1448 C1450 1.391 . S
C1449 C1448 1.386 . S
C1449 C1453 1.334 1_565 S
C1450 H1442 0.950 . S
C1450 C1448 1.391 . S
C1450 C1451 1.400 . S
C1451 C1450 1.400 . S
C1451 C1452 1.398 1_565 S
C1451 C1457 1.491 1_565 S
C1452 H1443 0.950 . S
C1452 C1451 1.398 1_545 S
C1452 C1453 1.415 . S
C1453 H1441 0.990 . S
C1453 C1449 1.334 1_545 S
C1453 C1452 1.415 . S
C1454 H1444 0.950 . S
C1454 C1455 1.386 . S
C1454 C1456 1.391 . S
C1455 C1454 1.386 . S
C1455 C1459 1.348 1_545 S
C1456 H1445 0.950 . S
C1456 C1454 1.391 . S
C1456 C1457 1.400 . S
C1457 C1451 1.491 1_545 S
C1457 C1456 1.400 . S
C1457 C1458 1.398 1_545 S
C1458 H1446 0.950 . S
C1458 C1457 1.398 1_565 S
C1458 C1459 1.409 . S
C1459 H1447 0.980 . S
C1459 C1455 1.348 1_565 S
C1459 C1458 1.409 . S
H1460 C1468 0.950 . S
H1461 C1473 0.950 . S
H1462 C1470 0.950 . S
H1463 C1472 0.950 . S
H1464 C1474 0.950 . S
H1465 C1476 0.950 . S
H1466 C1478 0.950 . S
H1467 C1479 0.950 . S
C1468 H1460 0.950 . S
C1468 C1469 1.386 . S
C1468 C1470 1.391 . S
C1469 C1468 1.386 . S
C1469 C1473 1.393 . S
C1470 H1462 0.950 . S
C1470 C1468 1.391 . S
C1470 C1471 1.400 . S
C1471 C1470 1.400 . S
C1471 C1472 1.398 . S
C1471 C1477 1.491 . S
C1472 H1463 0.950 . S
C1472 C1471 1.398 . S
C1472 C1473 1.391 . S
C1473 H1461 0.950 . S
C1473 C1469 1.393 . S
C1473 C1472 1.391 . S
C1474 H1464 0.950 . S
C1474 C1475 1.386 . S
C1474 C1476 1.391 . S
C1475 C1474 1.386 . S
C1475 C1479 1.393 . S
C1476 H1465 0.950 . S
C1476 C1474 1.391 . S
C1476 C1477 1.400 . S
C1477 C1471 1.491 . S
C1477 C1476 1.400 . S
C1477 C1478 1.398 . S
C1478 H1466 0.950 . S
C1478 C1477 1.398 . S
C1478 C1479 1.391 . S
C1479 H1467 0.950 . S
C1479 C1475 1.393 . S
C1479 C1478 1.391 . S
H1480 C1488 0.950 . S
H1481 C1493 0.950 . S
H1482 C1490 0.950 1_565 S
H1483 C1492 0.950 . S
H1484 C1494 0.950 . S
H1485 C1496 0.950 1_545 S
H1486 C1498 0.950 . S
H1487 C1499 0.950 . S
C1488 H1480 0.950 . S
C1488 C1489 1.386 . S
C1488 C1490 1.391 . S
C1489 C1488 1.386 . S
C1489 C1493 1.393 . S
C1490 H1482 0.950 1_545 S
C1490 C1488 1.391 . S
C1490 C1491 1.400 . S
C1491 C1490 1.400 . S
C1491 C1492 1.398 . S
C1491 C1497 1.491 1_544 S
C1492 H1483 0.950 . S
C1492 C1491 1.398 . S
C1492 C1493 1.391 . S
C1493 H1481 0.950 . S
C1493 C1489 1.393 . S
C1493 C1492 1.391 . S
C1494 H1484 0.950 . S
C1494 C1495 1.386 . S
C1494 C1496 1.391 . S
C1495 C1494 1.386 . S
C1495 C1499 1.393 . S
C1496 H1485 0.950 1_565 S
C1496 C1494 1.391 . S
C1496 C1497 1.400 . S
C1497 C1491 1.491 1_566 S
C1497 C1496 1.400 . S
C1497 C1498 1.398 . S
C1498 H1486 0.950 . S
C1498 C1497 1.398 . S
C1498 C1499 1.391 . S
C1499 H1487 0.950 . S
C1499 C1495 1.393 . S
C1499 C1498 1.391 . S
H1500 C1508 0.950 . S
H1501 C1513 0.950 . S
H1502 C1510 0.950 . S
H1503 C1512 0.950 . S
H1504 C1514 0.950 . S
H1505 C1516 0.950 . S
H1506 C1518 0.950 . S
H1507 C1519 0.950 . S
C1508 H1500 0.950 . S
C1508 C1509 1.386 . S
C1508 C1510 1.391 . S
C1509 C1508 1.386 . S
C1509 C1513 1.393 . S
C1510 H1502 0.950 . S
C1510 C1508 1.391 . S
C1510 C1511 1.400 . S
C1511 C1510 1.400 . S
C1511 C1512 1.398 . S
C1511 C1517 1.491 . S
C1512 H1503 0.950 . S
C1512 C1511 1.398 . S
C1512 C1513 1.391 . S
C1513 H1501 0.950 . S
C1513 C1509 1.393 . S
C1513 C1512 1.391 . S
C1514 H1504 0.950 . S
C1514 C1515 1.386 . S
C1514 C1516 1.391 . S
C1515 C1514 1.386 . S
C1515 C1519 1.393 . S
C1516 H1505 0.950 . S
C1516 C1514 1.391 . S
C1516 C1517 1.400 . S
C1517 C1511 1.491 . S
C1517 C1516 1.400 . S
C1517 C1518 1.398 . S
C1518 H1506 0.950 . S
C1518 C1517 1.398 . S
C1518 C1519 1.391 . S
C1519 H1507 0.950 . S
C1519 C1515 1.393 . S
C1519 C1518 1.391 . S
H1520 C1528 0.950 . S
H1521 C1533 0.950 . S
H1522 C1530 0.950 . S
H1523 C1532 0.950 . S
H1524 C1534 0.950 . S
H1525 C1536 0.950 . S
H1526 C1538 0.950 . S
H1527 C1539 0.950 . S
C1528 H1520 0.950 . S
C1528 C1529 1.386 1_565 S
C1528 C1530 1.391 . S
C1529 C1528 1.386 1_545 S
C1529 C1533 1.393 . S
C1530 H1522 0.950 . S
C1530 C1528 1.391 . S
C1530 C1531 1.400 1_565 S
C1531 C1530 1.400 1_545 S
C1531 C1532 1.398 . S
C1531 C1537 1.491 1_545 S
C1532 H1523 0.950 . S
C1532 C1531 1.398 . S
C1532 C1533 1.391 . S
C1533 H1521 0.950 . S
C1533 C1529 1.393 . S
C1533 C1532 1.391 . S
C1534 H1524 0.950 . S
C1534 C1535 1.386 1_545 S
C1534 C1536 1.391 . S
C1535 C1534 1.386 1_565 S
C1535 C1539 1.393 . S
C1536 H1525 0.950 . S
C1536 C1534 1.391 . S
C1536 C1537 1.400 1_545 S
C1537 C1531 1.491 1_565 S
C1537 C1536 1.400 1_565 S
C1537 C1538 1.398 . S
C1538 H1526 0.950 . S
C1538 C1537 1.398 . S
C1538 C1539 1.391 . S
C1539 H1527 0.950 . S
C1539 C1535 1.393 . S
C1539 C1538 1.391 . S
H1540 C1548 0.950 . S
H1541 C1553 0.950 . S
H1542 C1550 0.950 . S
H1543 C1552 0.950 . S
H1544 C1554 0.950 . S
H1545 C1556 0.950 . S
H1546 C1558 0.950 . S
H1547 C1559 0.950 . S
C1548 H1540 0.950 . S
C1548 C1549 1.386 . S
C1548 C1550 1.391 . S
C1549 C1548 1.386 . S
C1549 C1553 1.393 . S
C1550 H1542 0.950 . S
C1550 C1548 1.391 . S
C1550 C1551 1.400 . S
C1551 C1550 1.400 . S
C1551 C1552 1.398 . S
C1551 C1557 1.491 . S
C1552 H1543 0.950 . S
C1552 C1551 1.398 . S
C1552 C1553 1.391 . S
C1553 H1541 0.950 . S
C1553 C1549 1.393 . S
C1553 C1552 1.391 . S
C1554 H1544 0.950 . S
C1554 C1555 1.386 . S
C1554 C1556 1.391 . S
C1555 C1554 1.386 . S
C1555 C1559 1.393 . S
C1556 H1545 0.950 . S
C1556 C1554 1.391 . S
C1556 C1557 1.400 . S
C1557 C1551 1.491 . S
C1557 C1556 1.400 . S
C1557 C1558 1.398 . S
C1558 H1546 0.950 . S
C1558 C1557 1.398 . S
C1558 C1559 1.391 . S
C1559 H1547 0.950 . S
C1559 C1555 1.393 . S
C1559 C1558 1.391 . S
H1560 C1568 0.950 . S
H1561 C1573 0.950 . S
H1562 C1570 0.950 . S
H1563 C1572 0.950 . S
H1564 C1574 0.950 . S
H1565 C1576 0.950 . S
H1566 C1578 0.950 . S
H1567 C1579 0.950 . S
C1568 H1560 0.950 . S
C1568 C1569 1.386 . S
C1568 C1570 1.391 . S
C1569 C1568 1.386 . S
C1569 C1573 1.393 1_565 S
C1570 H1562 0.950 . S
C1570 C1568 1.391 . S
C1570 C1571 1.400 . S
C1571 C1570 1.400 . S
C1571 C1572 1.398 1_565 S
C1571 C1577 1.491 1_566 S
C1572 H1563 0.950 . S
C1572 C1571 1.398 1_545 S
C1572 C1573 1.391 . S
C1573 H1561 0.950 . S
C1573 C1569 1.393 1_545 S
C1573 C1572 1.391 . S
C1574 H1564 0.950 . S
C1574 C1575 1.386 . S
C1574 C1576 1.391 . S
C1575 C1574 1.386 . S
C1575 C1579 1.393 1_545 S
C1576 H1565 0.950 . S
C1576 C1574 1.391 . S
C1576 C1577 1.400 . S
C1577 C1571 1.491 1_544 S
C1577 C1576 1.400 . S
C1577 C1578 1.398 1_545 S
C1578 H1566 0.950 . S
C1578 C1577 1.398 1_565 S
C1578 C1579 1.391 . S
C1579 H1567 0.950 . S
C1579 C1575 1.393 1_565 S
C1579 C1578 1.391 . S
H1580 C1588 0.950 . S
H1581 C1593 0.950 . S
H1582 C1590 0.950 . S
H1583 C1592 0.950 . S
H1584 C1594 0.950 . S
H1585 C1596 0.950 . S
H1586 C1598 0.950 . S
H1587 C1599 0.950 . S
C1588 H1580 0.950 . S
C1588 C1589 1.386 . S
C1588 C1590 1.391 . S
C1589 C1588 1.386 . S
C1589 C1593 1.393 . S
C1590 H1582 0.950 . S
C1590 C1588 1.391 . S
C1590 C1591 1.400 . S
C1591 C1590 1.400 . S
C1591 C1592 1.398 . S
C1591 C1597 1.491 . S
C1592 H1583 0.950 . S
C1592 C1591 1.398 . S
C1592 C1593 1.391 . S
C1593 H1581 0.950 . S
C1593 C1589 1.393 . S
C1593 C1592 1.391 . S
C1594 H1584 0.950 . S
C1594 C1595 1.386 . S
C1594 C1596 1.391 . S
C1595 C1594 1.386 . S
C1595 C1599 1.393 . S
C1596 H1585 0.950 . S
C1596 C1594 1.391 . S
C1596 C1597 1.400 . S
C1597 C1591 1.491 . S
C1597 C1596 1.400 . S
C1597 C1598 1.398 . S
C1598 H1586 0.950 . S
C1598 C1597 1.398 . S
C1598 C1599 1.391 . S
C1599 H1587 0.950 . S
C1599 C1595 1.393 . S
C1599 C1598 1.391 . S
H1600 C1608 0.950 . S
H1601 C1613 0.950 . S
H1602 C1610 0.950 . S
H1603 C1612 0.950 . S
H1604 C1614 0.950 . S
H1605 C1616 0.950 . S
H1606 C1618 0.950 . S
H1607 C1619 0.950 . S
C1608 H1600 0.950 . S
C1608 C1609 1.386 . S
C1608 C1610 1.391 . S
C1609 C1608 1.386 . S
C1609 C1613 1.393 . S
C1610 H1602 0.950 . S
C1610 C1608 1.391 . S
C1610 C1611 1.400 . S
C1611 C1610 1.400 . S
C1611 C1612 1.398 . S
C1611 C1617 1.491 1_655 S
C1612 H1603 0.950 . S
C1612 C1611 1.398 . S
C1612 C1613 1.391 . S
C1613 H1601 0.950 . S
C1613 C1609 1.393 . S
C1613 C1612 1.391 . S
C1614 H1604 0.950 . S
C1614 C1615 1.386 . S
C1614 C1616 1.391 . S
C1615 C1614 1.386 . S
C1615 C1619 1.393 . S
C1616 H1605 0.950 . S
C1616 C1614 1.391 . S
C1616 C1617 1.400 . S
C1617 C1611 1.491 1_455 S
C1617 C1616 1.400 . S
C1617 C1618 1.398 . S
C1618 H1606 0.950 . S
C1618 C1617 1.398 . S
C1618 C1619 1.391 . S
C1619 H1607 0.950 . S
C1619 C1615 1.393 . S
C1619 C1618 1.391 . S
H1620 C1628 0.950 . S
H1621 C1633 0.950 . S
H1622 C1630 0.950 . S
H1623 C1632 0.950 . S
H1624 C1634 0.950 . S
H1625 C1636 0.950 . S
H1626 C1638 0.950 . S
H1627 C1639 0.950 . S
C1628 H1620 0.950 . S
C1628 C1629 1.386 . S
C1628 C1630 1.391 . S
C1629 C1628 1.386 . S
C1629 C1633 1.393 . S
C1630 H1622 0.950 . S
C1630 C1628 1.391 . S
C1630 C1631 1.400 . S
C1631 C1630 1.400 . S
C1631 C1632 1.398 . S
C1631 C1637 1.491 . S
C1632 H1623 0.950 . S
C1632 C1631 1.398 . S
C1632 C1633 1.391 . S
C1633 H1621 0.950 . S
C1633 C1629 1.393 . S
C1633 C1632 1.391 . S
C1634 H1624 0.950 . S
C1634 C1635 1.386 . S
C1634 C1636 1.391 . S
C1635 C1634 1.386 . S
C1635 C1639 1.393 . S
C1636 H1625 0.950 . S
C1636 C1634 1.391 . S
C1636 C1637 1.400 . S
C1637 C1631 1.491 . S
C1637 C1636 1.400 . S
C1637 C1638 1.398 . S
C1638 H1626 0.950 . S
C1638 C1637 1.398 . S
C1638 C1639 1.391 . S
C1639 H1627 0.950 . S
C1639 C1635 1.393 . S
C1639 C1638 1.391 . S
H1640 C1648 0.950 . S
H1641 C1653 0.950 . S
H1642 C1650 0.950 . S
H1643 C1652 0.950 . S
H1644 C1654 0.950 . S
H1645 C1656 0.950 . S
H1646 C1658 0.950 . S
H1647 C1659 0.950 . S
C1648 H1640 0.950 . S
C1648 C1649 1.386 . S
C1648 C1650 1.391 . S
C1649 C1648 1.386 . S
C1649 C1653 1.393 . S
C1650 H1642 0.950 . S
C1650 C1648 1.391 . S
C1650 C1651 1.400 . S
C1651 C1650 1.400 . S
C1651 C1652 1.398 . S
C1651 C1657 1.491 . S
C1652 H1643 0.950 . S
C1652 C1651 1.398 . S
C1652 C1653 1.391 . S
C1653 H1641 0.950 . S
C1653 C1649 1.393 . S
C1653 C1652 1.391 . S
C1654 H1644 0.950 . S
C1654 C1655 1.386 . S
C1654 C1656 1.391 . S
C1655 C1654 1.386 . S
C1655 C1659 1.393 . S
C1656 H1645 0.950 . S
C1656 C1654 1.391 . S
C1656 C1657 1.400 . S
C1657 C1651 1.491 . S
C1657 C1656 1.400 . S
C1657 C1658 1.398 . S
C1658 H1646 0.950 . S
C1658 C1657 1.398 . S
C1658 C1659 1.391 . S
C1659 H1647 0.950 . S
C1659 C1655 1.393 . S
C1659 C1658 1.391 . S
H1660 C1668 0.950 . S
H1661 C1673 0.950 . S
H1662 C1670 0.950 . S
H1663 C1672 0.950 . S
H1664 C1674 0.950 . S
H1665 C1676 0.950 . S
H1666 C1678 0.950 . S
H1667 C1679 0.950 . S
C1668 H1660 0.950 . S
C1668 C1669 1.386 . S
C1668 C1670 1.391 . S
C1669 C1668 1.386 . S
C1669 C1673 1.393 . S
C1670 H1662 0.950 . S
C1670 C1668 1.391 . S
C1670 C1671 1.400 . S
C1671 C1670 1.400 . S
C1671 C1672 1.398 . S
C1671 C1677 1.491 . S
C1672 H1663 0.950 . S
C1672 C1671 1.398 . S
C1672 C1673 1.391 . S
C1673 H1661 0.950 . S
C1673 C1669 1.393 . S
C1673 C1672 1.391 . S
C1674 H1664 0.950 . S
C1674 C1675 1.386 . S
C1674 C1676 1.391 . S
C1675 C1674 1.386 . S
C1675 C1679 1.393 . S
C1676 H1665 0.950 . S
C1676 C1674 1.391 . S
C1676 C1677 1.400 . S
C1677 C1671 1.491 . S
C1677 C1676 1.400 . S
C1677 C1678 1.398 . S
C1678 H1666 0.950 . S
C1678 C1677 1.398 . S
C1678 C1679 1.391 . S
C1679 H1667 0.950 . S
C1679 C1675 1.393 . S
C1679 C1678 1.391 . S
H1680 C1688 0.950 . S
H1681 C1693 0.950 . S
H1682 C1690 0.950 . S
H1683 C1692 0.950 . S
H1684 C1694 0.950 . S
H1685 C1696 0.950 . S
H1686 C1698 0.950 . S
H1687 C1699 0.950 . S
C1688 H1680 0.950 . S
C1688 C1689 1.386 . S
C1688 C1690 1.391 . S
C1689 C1688 1.386 . S
C1689 C1693 1.393 . S
C1690 H1682 0.950 . S
C1690 C1688 1.391 . S
C1690 C1691 1.400 . S
C1691 C1690 1.400 . S
C1691 C1692 1.398 . S
C1691 C1697 1.491 1_655 S
C1692 H1683 0.950 . S
C1692 C1691 1.398 . S
C1692 C1693 1.391 . S
C1693 H1681 0.950 . S
C1693 C1689 1.393 . S
C1693 C1692 1.391 . S
C1694 H1684 0.950 . S
C1694 C1695 1.386 . S
C1694 C1696 1.391 . S
C1695 C1694 1.386 . S
C1695 C1699 1.393 . S
C1696 H1685 0.950 . S
C1696 C1694 1.391 . S
C1696 C1697 1.400 . S
C1697 C1691 1.491 1_455 S
C1697 C1696 1.400 . S
C1697 C1698 1.398 . S
C1698 H1686 0.950 . S
C1698 C1697 1.398 . S
C1698 C1699 1.391 . S
C1699 H1687 0.950 . S
C1699 C1695 1.393 . S
C1699 C1698 1.391 . S
H1700 C1708 0.950 . S
H1701 C1713 0.950 . S
H1702 C1710 0.950 . S
H1703 C1712 0.950 . S
H1704 C1714 0.950 . S
H1705 C1716 0.950 . S
H1706 C1718 0.950 . S
H1707 C1719 0.950 . S
C1708 H1700 0.950 . S
C1708 C1709 1.386 . S
C1708 C1710 1.391 . S
C1709 C1708 1.386 . S
C1709 C1713 1.393 . S
C1710 H1702 0.950 . S
C1710 C1708 1.391 . S
C1710 C1711 1.400 . S
C1711 C1710 1.400 . S
C1711 C1712 1.398 . S
C1711 C1717 1.491 . S
C1712 H1703 0.950 . S
C1712 C1711 1.398 . S
C1712 C1713 1.391 . S
C1713 H1701 0.950 . S
C1713 C1709 1.393 . S
C1713 C1712 1.391 . S
C1714 H1704 0.950 . S
C1714 C1715 1.386 . S
C1714 C1716 1.391 . S
C1715 C1714 1.386 . S
C1715 C1719 1.393 . S
C1716 H1705 0.950 . S
C1716 C1714 1.391 . S
C1716 C1717 1.400 . S
C1717 C1711 1.491 . S
C1717 C1716 1.400 . S
C1717 C1718 1.398 . S
C1718 H1706 0.950 . S
C1718 C1717 1.398 . S
C1718 C1719 1.391 . S
C1719 H1707 0.950 . S
C1719 C1715 1.393 . S
C1719 C1718 1.391 . S
H1720 C1728 0.950 . S
H1721 C1733 0.950 . S
H1722 C1730 0.950 . S
H1723 C1732 0.950 . S
H1724 C1734 0.950 . S
H1725 C1736 0.950 . S
H1726 C1738 0.950 . S
H1727 C1739 0.950 . S
C1728 H1720 0.950 . S
C1728 C1729 1.386 . S
C1728 C1730 1.391 . S
C1729 C1728 1.386 . S
C1729 C1733 1.393 . S
C1730 H1722 0.950 . S
C1730 C1728 1.391 . S
C1730 C1731 1.400 . S
C1731 C1730 1.400 . S
C1731 C1732 1.398 . S
C1731 C1737 1.491 . S
C1732 H1723 0.950 . S
C1732 C1731 1.398 . S
C1732 C1733 1.391 . S
C1733 H1721 0.950 . S
C1733 C1729 1.393 . S
C1733 C1732 1.391 . S
C1734 H1724 0.950 . S
C1734 C1735 1.386 . S
C1734 C1736 1.391 . S
C1735 C1734 1.386 . S
C1735 C1739 1.393 . S
C1736 H1725 0.950 . S
C1736 C1734 1.391 . S
C1736 C1737 1.400 . S
C1737 C1731 1.491 . S
C1737 C1736 1.400 . S
C1737 C1738 1.398 . S
C1738 H1726 0.950 . S
C1738 C1737 1.398 . S
C1738 C1739 1.391 . S
C1739 H1727 0.950 . S
C1739 C1735 1.393 . S
C1739 C1738 1.391 . S
H1740 C1748 0.950 . S
H1741 C1753 0.950 . S
H1742 C1750 0.950 . S
H1743 C1752 0.950 . S
H1744 C1754 0.950 . S
H1745 C1756 0.950 . S
H1746 C1758 0.950 . S
H1747 C1759 0.950 . S
C1748 H1740 0.950 . S
C1748 C1749 1.386 . S
C1748 C1750 1.391 . S
C1749 C1748 1.386 . S
C1749 C1753 1.393 . S
C1750 H1742 0.950 . S
C1750 C1748 1.391 . S
C1750 C1751 1.400 . S
C1751 C1750 1.400 . S
C1751 C1752 1.398 . S
C1751 C1757 1.491 . S
C1752 H1743 0.950 . S
C1752 C1751 1.398 . S
C1752 C1753 1.391 . S
C1753 H1741 0.950 . S
C1753 C1749 1.393 . S
C1753 C1752 1.391 . S
C1754 H1744 0.950 . S
C1754 C1755 1.386 . S
C1754 C1756 1.391 . S
C1755 C1754 1.386 . S
C1755 C1759 1.393 . S
C1756 H1745 0.950 . S
C1756 C1754 1.391 . S
C1756 C1757 1.400 . S
C1757 C1751 1.491 . S
C1757 C1756 1.400 . S
C1757 C1758 1.398 . S
C1758 H1746 0.950 . S
C1758 C1757 1.398 . S
C1758 C1759 1.391 . S
C1759 H1747 0.950 . S
C1759 C1755 1.393 . S
C1759 C1758 1.391 . S
H1760 C1768 0.950 . S
H1761 C1773 0.950 . S
H1762 C1770 0.950 . S
H1763 C1772 0.950 . S
H1764 C1774 0.950 . S
H1765 C1776 0.950 . S
H1766 C1778 0.950 . S
H1767 C1779 0.950 . S
C1768 H1760 0.950 . S
C1768 C1769 1.386 . S
C1768 C1770 1.391 . S
C1769 C1768 1.386 . S
C1769 C1773 1.393 . S
C1770 H1762 0.950 . S
C1770 C1768 1.391 . S
C1770 C1771 1.400 . S
C1771 C1770 1.400 . S
C1771 C1772 1.398 . S
C1771 C1777 1.491 . S
C1772 H1763 0.950 . S
C1772 C1771 1.398 . S
C1772 C1773 1.391 . S
C1773 H1761 0.950 . S
C1773 C1769 1.393 . S
C1773 C1772 1.391 . S
C1774 H1764 0.950 . S
C1774 C1775 1.386 . S
C1774 C1776 1.391 . S
C1775 C1774 1.386 . S
C1775 C1779 1.393 . S
C1776 H1765 0.950 . S
C1776 C1774 1.391 . S
C1776 C1777 1.400 . S
C1777 C1771 1.491 . S
C1777 C1776 1.400 . S
C1777 C1778 1.398 . S
C1778 H1766 0.950 . S
C1778 C1777 1.398 . S
C1778 C1779 1.391 . S
C1779 H1767 0.950 . S
C1779 C1775 1.393 . S
C1779 C1778 1.391 . S
H1780 C1788 0.950 . S
H1781 C1793 0.950 . S
H1782 C1790 0.950 . S
H1783 C1792 0.950 . S
H1784 C1794 0.950 . S
H1785 C1796 0.950 . S
H1786 C1798 0.950 . S
H1787 C1799 0.950 . S
C1788 H1780 0.950 . S
C1788 C1789 1.386 . S
C1788 C1790 1.391 . S
C1789 C1788 1.386 . S
C1789 C1793 1.393 . S
C1790 H1782 0.950 . S
C1790 C1788 1.391 . S
C1790 C1791 1.400 . S
C1791 C1790 1.400 . S
C1791 C1792 1.398 . S
C1791 C1797 1.491 . S
C1792 H1783 0.950 . S
C1792 C1791 1.398 . S
C1792 C1793 1.391 . S
C1793 H1781 0.950 . S
C1793 C1789 1.393 . S
C1793 C1792 1.391 . S
C1794 H1784 0.950 . S
C1794 C1795 1.386 . S
C1794 C1796 1.391 . S
C1795 C1794 1.386 . S
C1795 C1799 1.393 . S
C1796 H1785 0.950 . S
C1796 C1794 1.391 . S
C1796 C1797 1.400 . S
C1797 C1791 1.491 . S
C1797 C1796 1.400 . S
C1797 C1798 1.398 . S
C1798 H1786 0.950 . S
C1798 C1797 1.398 . S
C1798 C1799 1.391 . S
C1799 H1787 0.950 . S
C1799 C1795 1.393 . S
C1799 C1798 1.391 . S
H1800 C1808 0.950 . S
H1801 C1813 0.950 . S
H1802 C1810 0.950 . S
H1803 C1812 0.950 . S
H1804 C1814 0.950 . S
H1805 C1816 0.950 . S
H1806 C1818 0.950 . S
H1807 C1819 0.950 . S
C1808 H1800 0.950 . S
C1808 C1809 1.386 . S
C1808 C1810 1.391 . S
C1809 C1808 1.386 . S
C1809 C1813 1.393 . S
C1810 H1802 0.950 . S
C1810 C1808 1.391 . S
C1810 C1811 1.400 . S
C1811 C1810 1.400 . S
C1811 C1812 1.398 . S
C1811 C1817 1.491 . S
C1812 H1803 0.950 . S
C1812 C1811 1.398 . S
C1812 C1813 1.391 . S
C1813 H1801 0.950 . S
C1813 C1809 1.393 . S
C1813 C1812 1.391 . S
C1814 H1804 0.950 . S
C1814 C1815 1.386 . S
C1814 C1816 1.391 . S
C1815 C1814 1.386 . S
C1815 C1819 1.393 . S
C1816 H1805 0.950 . S
C1816 C1814 1.391 . S
C1816 C1817 1.400 . S
C1817 C1811 1.491 . S
C1817 C1816 1.400 . S
C1817 C1818 1.398 . S
C1818 H1806 0.950 . S
C1818 C1817 1.398 . S
C1818 C1819 1.391 . S
C1819 H1807 0.950 . S
C1819 C1815 1.393 . S
C1819 C1818 1.391 . S
H1820 C1828 0.950 . S
H1821 C1833 0.950 . S
H1822 C1830 0.950 . S
H1823 C1832 0.950 . S
H1824 C1834 0.950 . S
H1825 C1836 0.950 . S
H1826 C1838 0.950 . S
H1827 C1839 0.950 . S
C1828 H1820 0.950 . S
C1828 C1829 1.386 . S
C1828 C1830 1.391 . S
C1829 C1828 1.386 . S
C1829 C1833 1.393 . S
C1830 H1822 0.950 . S
C1830 C1828 1.391 . S
C1830 C1831 1.400 . S
C1831 C1830 1.400 . S
C1831 C1832 1.398 . S
C1831 C1837 1.491 . S
C1832 H1823 0.950 . S
C1832 C1831 1.398 . S
C1832 C1833 1.391 . S
C1833 H1821 0.950 . S
C1833 C1829 1.393 . S
C1833 C1832 1.391 . S
C1834 H1824 0.950 . S
C1834 C1835 1.386 . S
C1834 C1836 1.391 . S
C1835 C1834 1.386 . S
C1835 C1839 1.393 . S
C1836 H1825 0.950 . S
C1836 C1834 1.391 . S
C1836 C1837 1.400 . S
C1837 C1831 1.491 . S
C1837 C1836 1.400 . S
C1837 C1838 1.398 . S
C1838 H1826 0.950 . S
C1838 C1837 1.398 . S
C1838 C1839 1.391 . S
C1839 H1827 0.950 . S
C1839 C1835 1.393 . S
C1839 C1838 1.391 . S
H1840 C1848 0.950 . S
H1841 C1853 0.950 1_545 S
H1842 C1850 0.950 . S
H1843 C1852 0.950 1_545 S
H1844 C1854 0.950 1_545 S
H1845 C1856 0.950 1_545 S
H1846 C1858 0.950 . S
H1847 C1859 0.950 . S
C1848 H1840 0.950 . S
C1848 C1849 1.386 . S
C1848 C1850 1.391 . S
C1849 C1848 1.386 . S
C1849 C1853 1.393 . S
C1850 H1842 0.950 . S
C1850 C1848 1.391 . S
C1850 C1851 1.400 . S
C1851 C1850 1.400 . S
C1851 C1852 1.398 . S
C1851 C1857 1.491 . S
C1852 H1843 0.950 1_565 S
C1852 C1851 1.398 . S
C1852 C1853 1.391 . S
C1853 H1841 0.950 1_565 S
C1853 C1849 1.393 . S
C1853 C1852 1.391 . S
C1854 H1844 0.950 1_565 S
C1854 C1855 1.386 . S
C1854 C1856 1.391 . S
C1855 C1854 1.386 . S
C1855 C1859 1.393 . S
C1856 H1845 0.950 1_565 S
C1856 C1854 1.391 . S
C1856 C1857 1.400 . S
C1857 C1851 1.491 . S
C1857 C1856 1.400 . S
C1857 C1858 1.398 . S
C1858 H1846 0.950 . S
C1858 C1857 1.398 . S
C1858 C1859 1.391 . S
C1859 H1847 0.950 . S
C1859 C1855 1.393 . S
C1859 C1858 1.391 . S
H1860 C1868 0.950 . S
H1861 C1873 0.950 . S
H1862 C1870 0.950 . S
H1863 C1872 0.950 . S
H1864 C1874 0.950 . S
H1865 C1876 0.950 . S
H1866 C1878 0.950 . S
H1867 C1879 0.950 . S
C1868 H1860 0.950 . S
C1868 C1869 1.386 . S
C1868 C1870 1.391 . S
C1869 C1868 1.386 . S
C1869 C1873 1.393 . S
C1870 H1862 0.950 . S
C1870 C1868 1.391 . S
C1870 C1871 1.400 . S
C1871 C1870 1.400 . S
C1871 C1872 1.398 . S
C1871 C1877 1.491 1_455 S
C1872 H1863 0.950 . S
C1872 C1871 1.398 . S
C1872 C1873 1.391 . S
C1873 H1861 0.950 . S
C1873 C1869 1.393 . S
C1873 C1872 1.391 . S
C1874 H1864 0.950 . S
C1874 C1875 1.386 . S
C1874 C1876 1.391 . S
C1875 C1874 1.386 . S
C1875 C1879 1.393 . S
C1876 H1865 0.950 . S
C1876 C1874 1.391 . S
C1876 C1877 1.400 . S
C1877 C1871 1.491 1_655 S
C1877 C1876 1.400 . S
C1877 C1878 1.398 . S
C1878 H1866 0.950 . S
C1878 C1877 1.398 . S
C1878 C1879 1.391 . S
C1879 H1867 0.950 . S
C1879 C1875 1.393 . S
C1879 C1878 1.391 . S
H1880 C1888 0.950 . S
H1881 C1893 0.950 . S
H1882 C1890 0.950 . S
H1883 C1892 0.950 . S
H1884 C1894 0.950 . S
H1885 C1896 0.950 . S
H1886 C1898 0.950 . S
H1887 C1899 0.950 . S
C1888 H1880 0.950 . S
C1888 C1889 1.386 . S
C1888 C1890 1.391 . S
C1889 C1888 1.386 . S
C1889 C1893 1.393 . S
C1890 H1882 0.950 . S
C1890 C1888 1.391 . S
C1890 C1891 1.400 . S
C1891 C1890 1.400 . S
C1891 C1892 1.398 . S
C1891 C1897 1.491 . S
C1892 H1883 0.950 . S
C1892 C1891 1.398 . S
C1892 C1893 1.391 . S
C1893 H1881 0.950 . S
C1893 C1889 1.393 . S
C1893 C1892 1.391 . S
C1894 H1884 0.950 . S
C1894 C1895 1.386 . S
C1894 C1896 1.391 . S
C1895 C1894 1.386 . S
C1895 C1899 1.393 . S
C1896 H1885 0.950 . S
C1896 C1894 1.391 . S
C1896 C1897 1.400 . S
C1897 C1891 1.491 . S
C1897 C1896 1.400 . S
C1897 C1898 1.398 . S
C1898 H1886 0.950 . S
C1898 C1897 1.398 . S
C1898 C1899 1.391 . S
C1899 H1887 0.950 . S
C1899 C1895 1.393 . S
C1899 C1898 1.391 . S
H1900 C1908 0.950 1_545 S
H1901 C1913 0.950 . S
H1902 C1910 0.950 1_545 S
H1903 C1912 0.950 . S
H1904 C1914 0.950 . S
H1905 C1916 0.950 . S
H1906 C1918 0.950 1_545 S
H1907 C1919 0.950 1_545 S
C1908 H1900 0.950 1_565 S
C1908 C1909 1.386 . S
C1908 C1910 1.391 . S
C1909 C1908 1.386 . S
C1909 C1913 1.393 . S
C1910 H1902 0.950 1_565 S
C1910 C1908 1.391 . S
C1910 C1911 1.400 . S
C1911 C1910 1.400 . S
C1911 C1912 1.398 . S
C1911 C1917 1.491 1_455 S
C1912 H1903 0.950 . S
C1912 C1911 1.398 . S
C1912 C1913 1.391 . S
C1913 H1901 0.950 . S
C1913 C1909 1.393 . S
C1913 C1912 1.391 . S
C1914 H1904 0.950 . S
C1914 C1915 1.386 . S
C1914 C1916 1.391 . S
C1915 C1914 1.386 . S
C1915 C1919 1.393 . S
C1916 H1905 0.950 . S
C1916 C1914 1.391 . S
C1916 C1917 1.400 . S
C1917 C1911 1.491 1_655 S
C1917 C1916 1.400 . S
C1917 C1918 1.398 . S
C1918 H1906 0.950 1_565 S
C1918 C1917 1.398 . S
C1918 C1919 1.391 . S
C1919 H1907 0.950 1_565 S
C1919 C1915 1.393 . S
C1919 C1918 1.391 . S
H1920 C1928 0.950 . S
H1921 C1933 0.950 . S
H1922 C1930 0.950 . S
H1923 C1932 0.950 . S
H1924 C1934 0.950 . S
H1925 C1936 0.950 . S
H1926 C1938 0.950 . S
H1927 C1939 0.950 . S
C1928 H1920 0.950 . S
C1928 C1929 1.386 . S
C1928 C1930 1.391 . S
C1929 C1928 1.386 . S
C1929 C1933 1.393 . S
C1930 H1922 0.950 . S
C1930 C1928 1.391 . S
C1930 C1931 1.400 . S
C1931 C1930 1.400 . S
C1931 C1932 1.398 . S
C1931 C1937 1.491 . S
C1932 H1923 0.950 . S
C1932 C1931 1.398 . S
C1932 C1933 1.391 . S
C1933 H1921 0.950 . S
C1933 C1929 1.393 . S
C1933 C1932 1.391 . S
C1934 H1924 0.950 . S
C1934 C1935 1.386 . S
C1934 C1936 1.391 . S
C1935 C1934 1.386 . S
C1935 C1939 1.393 . S
C1936 H1925 0.950 . S
C1936 C1934 1.391 . S
C1936 C1937 1.400 . S
C1937 C1931 1.491 . S
C1937 C1936 1.400 . S
C1937 C1938 1.398 . S
C1938 H1926 0.950 . S
C1938 C1937 1.398 . S
C1938 C1939 1.391 . S
C1939 H1927 0.950 . S
C1939 C1935 1.393 . S
C1939 C1938 1.391 . S
H1940 C1948 0.950 . S
H1941 C1953 0.950 . S
H1942 C1950 0.950 . S
H1943 C1952 0.950 . S
H1944 C1954 0.950 . S
H1945 C1956 0.950 . S
H1946 C1958 0.950 . S
H1947 C1959 0.950 . S
C1948 H1940 0.950 . S
C1948 C1949 1.386 . S
C1948 C1950 1.391 . S
C1949 C1948 1.386 . S
C1949 C1953 1.393 . S
C1950 H1942 0.950 . S
C1950 C1948 1.391 . S
C1950 C1951 1.400 . S
C1951 C1950 1.400 . S
C1951 C1952 1.398 . S
C1951 C1957 1.491 . S
C1952 H1943 0.950 . S
C1952 C1951 1.398 . S
C1952 C1953 1.391 . S
C1953 H1941 0.950 . S
C1953 C1949 1.393 . S
C1953 C1952 1.391 . S
C1954 H1944 0.950 . S
C1954 C1955 1.386 . S
C1954 C1956 1.391 . S
C1955 C1954 1.386 . S
C1955 C1959 1.393 . S
C1956 H1945 0.950 . S
C1956 C1954 1.391 . S
C1956 C1957 1.400 . S
C1957 C1951 1.491 . S
C1957 C1956 1.400 . S
C1957 C1958 1.398 . S
C1958 H1946 0.950 . S
C1958 C1957 1.398 . S
C1958 C1959 1.391 . S
C1959 H1947 0.950 . S
C1959 C1955 1.393 . S
C1959 C1958 1.391 . S
H1960 C1968 0.950 . S
H1961 C1973 0.950 . S
H1962 C1970 0.950 . S
H1963 C1972 0.950 . S
H1964 C1974 0.950 . S
H1965 C1976 0.950 . S
H1966 C1978 0.950 . S
H1967 C1979 0.950 . S
C1968 H1960 0.950 . S
C1968 C1969 1.386 . S
C1968 C1970 1.391 . S
C1969 C1968 1.386 . S
C1969 C1973 1.393 . S
C1970 H1962 0.950 . S
C1970 C1968 1.391 . S
C1970 C1971 1.400 . S
C1971 C1970 1.400 . S
C1971 C1972 1.398 . S
C1971 C1977 1.491 . S
C1972 H1963 0.950 . S
C1972 C1971 1.398 . S
C1972 C1973 1.391 . S
C1973 H1961 0.950 . S
C1973 C1969 1.393 . S
C1973 C1972 1.391 . S
C1974 H1964 0.950 . S
C1974 C1975 1.386 . S
C1974 C1976 1.391 . S
C1975 C1974 1.386 . S
C1975 C1979 1.393 . S
C1976 H1965 0.950 . S
C1976 C1974 1.391 . S
C1976 C1977 1.400 . S
C1977 C1971 1.491 . S
C1977 C1976 1.400 . S
C1977 C1978 1.398 . S
C1978 H1966 0.950 . S
C1978 C1977 1.398 . S
C1978 C1979 1.391 . S
C1979 H1967 0.950 . S
C1979 C1975 1.393 . S
C1979 C1978 1.391 . S
H1980 C1988 0.950 . S
H1981 C1993 0.950 . S
H1982 C1990 0.950 . S
H1983 C1992 0.950 . S
H1984 C1994 0.950 . S
H1985 C1996 0.950 . S
H1986 C1998 0.950 . S
H1987 C1999 0.950 . S
C1988 H1980 0.950 . S
C1988 C1989 1.386 . S
C1988 C1990 1.391 . S
C1989 C1988 1.386 . S
C1989 C1993 1.393 . S
C1990 H1982 0.950 . S
C1990 C1988 1.391 . S
C1990 C1991 1.400 . S
C1991 C1990 1.400 . S
C1991 C1992 1.398 . S
C1991 C1997 1.491 . S
C1992 H1983 0.950 . S
C1992 C1991 1.398 . S
C1992 C1993 1.391 . S
C1993 H1981 0.950 . S
C1993 C1989 1.393 . S
C1993 C1992 1.391 . S
C1994 H1984 0.950 . S
C1994 C1995 1.386 . S
C1994 C1996 1.391 . S
C1995 C1994 1.386 . S
C1995 C1999 1.393 . S
C1996 H1985 0.950 . S
C1996 C1994 1.391 . S
C1996 C1997 1.400 . S
C1997 C1991 1.491 . S
C1997 C1996 1.400 . S
C1997 C1998 1.398 . S
C1998 H1986 0.950 . S
C1998 C1997 1.398 . S
C1998 C1999 1.391 . S
C1999 H1987 0.950 . S
C1999 C1995 1.393 . S
C1999 C1998 1.391 . S
H2000 C2008 0.950 . S
H2001 C2013 0.950 . S
H2002 C2010 0.950 . S
H2003 C2012 0.950 . S
H2004 C2014 0.950 . S
H2005 C2016 0.950 . S
H2006 C2018 0.950 . S
H2007 C2019 0.950 . S
C2008 H2000 0.950 . S
C2008 C2009 1.386 . S
C2008 C2010 1.391 . S
C2009 C2008 1.386 . S
C2009 C2013 1.393 . S
C2010 H2002 0.950 . S
C2010 C2008 1.391 . S
C2010 C2011 1.400 . S
C2011 C2010 1.400 . S
C2011 C2012 1.398 . S
C2011 C2017 1.491 . S
C2012 H2003 0.950 . S
C2012 C2011 1.398 . S
C2012 C2013 1.391 . S
C2013 H2001 0.950 . S
C2013 C2009 1.393 . S
C2013 C2012 1.391 . S
C2014 H2004 0.950 . S
C2014 C2015 1.386 . S
C2014 C2016 1.391 . S
C2015 C2014 1.386 . S
C2015 C2019 1.393 . S
C2016 H2005 0.950 . S
C2016 C2014 1.391 . S
C2016 C2017 1.400 . S
C2017 C2011 1.491 . S
C2017 C2016 1.400 . S
C2017 C2018 1.398 . S
C2018 H2006 0.950 . S
C2018 C2017 1.398 . S
C2018 C2019 1.391 . S
C2019 H2007 0.950 . S
C2019 C2015 1.393 . S
C2019 C2018 1.391 . S
H2020 C2028 0.950 . S
H2021 C2033 0.950 . S
H2022 C2030 0.950 . S
H2023 C2032 0.950 . S
H2024 C2034 0.950 . S
H2025 C2036 0.950 . S
H2026 C2038 0.950 . S
H2027 C2039 0.950 . S
C2028 H2020 0.950 . S
C2028 C2029 1.386 . S
C2028 C2030 1.391 . S
C2029 C2028 1.386 . S
C2029 C2033 1.393 . S
C2030 H2022 0.950 . S
C2030 C2028 1.391 . S
C2030 C2031 1.400 . S
C2031 C2030 1.400 . S
C2031 C2032 1.398 . S
C2031 C2037 1.491 . S
C2032 H2023 0.950 . S
C2032 C2031 1.398 . S
C2032 C2033 1.391 . S
C2033 H2021 0.950 . S
C2033 C2029 1.393 . S
C2033 C2032 1.391 . S
C2034 H2024 0.950 . S
C2034 C2035 1.386 . S
C2034 C2036 1.391 . S
C2035 C2034 1.386 . S
C2035 C2039 1.393 . S
C2036 H2025 0.950 . S
C2036 C2034 1.391 . S
C2036 C2037 1.400 . S
C2037 C2031 1.491 . S
C2037 C2036 1.400 . S
C2037 C2038 1.398 . S
C2038 H2026 0.950 . S
C2038 C2037 1.398 . S
C2038 C2039 1.391 . S
C2039 H2027 0.950 . S
C2039 C2035 1.393 . S
C2039 C2038 1.391 . S
H2040 C2048 0.950 . S
H2041 C2053 0.950 . S
H2042 C2050 0.950 . S
H2043 C2052 0.950 . S
H2044 C2054 0.950 . S
H2045 C2056 0.950 . S
H2046 C2058 0.950 . S
H2047 C2059 0.950 . S
C2048 H2040 0.950 . S
C2048 C2049 1.386 . S
C2048 C2050 1.391 . S
C2049 C2048 1.386 . S
C2049 C2053 1.393 . S
C2050 H2042 0.950 . S
C2050 C2048 1.391 . S
C2050 C2051 1.400 . S
C2051 C2050 1.400 . S
C2051 C2052 1.398 . S
C2051 C2057 1.491 . S
C2052 H2043 0.950 . S
C2052 C2051 1.398 . S
C2052 C2053 1.391 . S
C2053 H2041 0.950 . S
C2053 C2049 1.393 . S
C2053 C2052 1.391 . S
C2054 H2044 0.950 . S
C2054 C2055 1.386 . S
C2054 C2056 1.391 . S
C2055 C2054 1.386 . S
C2055 C2059 1.393 . S
C2056 H2045 0.950 . S
C2056 C2054 1.391 . S
C2056 C2057 1.400 . S
C2057 C2051 1.491 . S
C2057 C2056 1.400 . S
C2057 C2058 1.398 . S
C2058 H2046 0.950 . S
C2058 C2057 1.398 . S
C2058 C2059 1.391 . S
C2059 H2047 0.950 . S
C2059 C2055 1.393 . S
C2059 C2058 1.391 . S
H2060 C2068 0.950 . S
H2061 C2073 0.950 . S
H2062 C2070 0.950 . S
H2063 C2072 0.950 . S
H2064 C2074 0.950 . S
H2065 C2076 0.950 . S
H2066 C2078 0.950 . S
H2067 C2079 0.950 . S
C2068 H2060 0.950 . S
C2068 C2069 1.386 . S
C2068 C2070 1.391 . S
C2069 C2068 1.386 . S
C2069 C2073 1.393 . S
C2070 H2062 0.950 . S
C2070 C2068 1.391 . S
C2070 C2071 1.400 . S
C2071 C2070 1.400 . S
C2071 C2072 1.398 . S
C2071 C2077 1.491 . S
C2072 H2063 0.950 . S
C2072 C2071 1.398 . S
C2072 C2073 1.391 . S
C2073 H2061 0.950 . S
C2073 C2069 1.393 . S
C2073 C2072 1.391 . S
C2074 H2064 0.950 . S
C2074 C2075 1.386 . S
C2074 C2076 1.391 . S
C2075 C2074 1.386 . S
C2075 C2079 1.393 . S
C2076 H2065 0.950 . S
C2076 C2074 1.391 . S
C2076 C2077 1.400 . S
C2077 C2071 1.491 . S
C2077 C2076 1.400 . S
C2077 C2078 1.398 . S
C2078 H2066 0.950 . S
C2078 C2077 1.398 . S
C2078 C2079 1.391 . S
C2079 H2067 0.950 . S
C2079 C2075 1.393 . S
C2079 C2078 1.391 . S
H2080 C2088 0.950 . S
H2081 C2093 0.950 . S
H2082 C2090 0.950 . S
H2083 C2092 0.950 . S
H2084 C2094 0.950 . S
H2085 C2096 0.950 . S
H2086 C2098 0.950 . S
H2087 C2099 0.950 . S
C2088 H2080 0.950 . S
C2088 C2089 1.386 . S
C2088 C2090 1.391 . S
C2089 C2088 1.386 . S
C2089 C2093 1.393 . S
C2090 H2082 0.950 . S
C2090 C2088 1.391 . S
C2090 C2091 1.400 . S
C2091 C2090 1.400 . S
C2091 C2092 1.398 . S
C2091 C2097 1.491 . S
C2092 H2083 0.950 . S
C2092 C2091 1.398 . S
C2092 C2093 1.391 . S
C2093 H2081 0.950 . S
C2093 C2089 1.393 . S
C2093 C2092 1.391 . S
C2094 H2084 0.950 . S
C2094 C2095 1.386 . S
C2094 C2096 1.391 . S
C2095 C2094 1.386 . S
C2095 C2099 1.393 . S
C2096 H2085 0.950 . S
C2096 C2094 1.391 . S
C2096 C2097 1.400 . S
C2097 C2091 1.491 . S
C2097 C2096 1.400 . S
C2097 C2098 1.398 . S
C2098 H2086 0.950 . S
C2098 C2097 1.398 . S
C2098 C2099 1.391 . S
C2099 H2087 0.950 . S
C2099 C2095 1.393 . S
C2099 C2098 1.391 . S
H2100 C2108 0.950 . S
H2101 C2113 0.950 . S
H2102 C2110 0.950 . S
H2103 C2112 0.950 . S
H2104 C2114 0.950 . S
H2105 C2116 0.950 . S
H2106 C2118 0.950 . S
H2107 C2119 0.950 . S
C2108 H2100 0.950 . S
C2108 C2109 1.386 . S
C2108 C2110 1.391 . S
C2109 C2108 1.386 . S
C2109 C2113 1.393 . S
C2110 H2102 0.950 . S
C2110 C2108 1.391 . S
C2110 C2111 1.400 . S
C2111 C2110 1.400 . S
C2111 C2112 1.398 . S
C2111 C2117 1.491 . S
C2112 H2103 0.950 . S
C2112 C2111 1.398 . S
C2112 C2113 1.391 . S
C2113 H2101 0.950 . S
C2113 C2109 1.393 . S
C2113 C2112 1.391 . S
C2114 H2104 0.950 . S
C2114 C2115 1.386 . S
C2114 C2116 1.391 . S
C2115 C2114 1.386 . S
C2115 C2119 1.393 . S
C2116 H2105 0.950 . S
C2116 C2114 1.391 . S
C2116 C2117 1.400 . S
C2117 C2111 1.491 . S
C2117 C2116 1.400 . S
C2117 C2118 1.398 . S
C2118 H2106 0.950 . S
C2118 C2117 1.398 . S
C2118 C2119 1.391 . S
C2119 H2107 0.950 . S
C2119 C2115 1.393 . S
C2119 C2118 1.391 . S
H2120 C2128 0.950 . S
H2121 C2133 0.950 . S
H2122 C2130 0.950 . S
H2123 C2132 0.950 . S
H2124 C2134 0.950 . S
H2125 C2136 0.950 . S
H2126 C2138 0.950 . S
H2127 C2139 0.950 . S
C2128 H2120 0.950 . S
C2128 C2129 1.386 . S
C2128 C2130 1.391 . S
C2129 C2128 1.386 . S
C2129 C2133 1.393 . S
C2130 H2122 0.950 . S
C2130 C2128 1.391 . S
C2130 C2131 1.400 . S
C2131 C2130 1.400 . S
C2131 C2132 1.398 . S
C2131 C2137 1.491 . S
C2132 H2123 0.950 . S
C2132 C2131 1.398 . S
C2132 C2133 1.391 . S
C2133 H2121 0.950 . S
C2133 C2129 1.393 . S
C2133 C2132 1.391 . S
C2134 H2124 0.950 . S
C2134 C2135 1.386 . S
C2134 C2136 1.391 . S
C2135 C2134 1.386 . S
C2135 C2139 1.393 . S
C2136 H2125 0.950 . S
C2136 C2134 1.391 . S
C2136 C2137 1.400 . S
C2137 C2131 1.491 . S
C2137 C2136 1.400 . S
C2137 C2138 1.398 . S
C2138 H2126 0.950 . S
C2138 C2137 1.398 . S
C2138 C2139 1.391 . S
C2139 H2127 0.950 . S
C2139 C2135 1.393 . S
C2139 C2138 1.391 . S
H2140 C2148 0.950 . S
H2141 C2153 0.950 . S
H2142 C2150 0.950 . S
H2143 C2152 0.950 . S
H2144 C2154 0.950 . S
H2145 C2156 0.950 . S
H2146 C2158 0.950 . S
H2147 C2159 0.950 . S
C2148 H2140 0.950 . S
C2148 C2149 1.386 . S
C2148 C2150 1.391 . S
C2149 C2148 1.386 . S
C2149 C2153 1.393 . S
C2150 H2142 0.950 . S
C2150 C2148 1.391 . S
C2150 C2151 1.400 . S
C2151 C2150 1.400 . S
C2151 C2152 1.398 . S
C2151 C2157 1.491 . S
C2152 H2143 0.950 . S
C2152 C2151 1.398 . S
C2152 C2153 1.391 . S
C2153 H2141 0.950 . S
C2153 C2149 1.393 . S
C2153 C2152 1.391 . S
C2154 H2144 0.950 . S
C2154 C2155 1.386 . S
C2154 C2156 1.391 . S
C2155 C2154 1.386 . S
C2155 C2159 1.393 . S
C2156 H2145 0.950 . S
C2156 C2154 1.391 . S
C2156 C2157 1.400 . S
C2157 C2151 1.491 . S
C2157 C2156 1.400 . S
C2157 C2158 1.398 . S
C2158 H2146 0.950 . S
C2158 C2157 1.398 . S
C2158 C2159 1.391 . S
C2159 H2147 0.950 . S
C2159 C2155 1.393 . S
C2159 C2158 1.391 . S
H2160 C2168 0.950 . S
H2161 C2173 0.950 . S
H2162 C2170 0.950 . S
H2163 C2172 0.950 . S
H2164 C2174 0.950 . S
H2165 C2176 0.950 . S
H2166 C2178 0.950 . S
H2167 C2179 0.950 . S
C2168 H2160 0.950 . S
C2168 C2169 1.386 . S
C2168 C2170 1.391 . S
C2169 C2168 1.386 . S
C2169 C2173 1.393 . S
C2170 H2162 0.950 . S
C2170 C2168 1.391 . S
C2170 C2171 1.400 . S
C2171 C2170 1.400 . S
C2171 C2172 1.398 . S
C2171 C2177 1.491 . S
C2172 H2163 0.950 . S
C2172 C2171 1.398 . S
C2172 C2173 1.391 . S
C2173 H2161 0.950 . S
C2173 C2169 1.393 . S
C2173 C2172 1.391 . S
C2174 H2164 0.950 . S
C2174 C2175 1.386 . S
C2174 C2176 1.391 . S
C2175 C2174 1.386 . S
C2175 C2179 1.393 . S
C2176 H2165 0.950 . S
C2176 C2174 1.391 . S
C2176 C2177 1.400 . S
C2177 C2171 1.491 . S
C2177 C2176 1.400 . S
C2177 C2178 1.398 . S
C2178 H2166 0.950 . S
C2178 C2177 1.398 . S
C2178 C2179 1.391 . S
C2179 H2167 0.950 . S
C2179 C2175 1.393 . S
C2179 C2178 1.391 . S
H2180 C2188 0.950 . S
H2181 C2193 0.950 . S
H2182 C2190 0.950 . S
H2183 C2192 0.950 . S
H2184 C2194 0.950 . S
H2185 C2196 0.950 . S
H2186 C2198 0.950 . S
H2187 C2199 0.950 . S
C2188 H2180 0.950 . S
C2188 C2189 1.386 . S
C2188 C2190 1.391 . S
C2189 C2188 1.386 . S
C2189 C2193 1.393 . S
C2190 H2182 0.950 . S
C2190 C2188 1.391 . S
C2190 C2191 1.400 . S
C2191 C2190 1.400 . S
C2191 C2192 1.398 . S
C2191 C2197 1.491 . S
C2192 H2183 0.950 . S
C2192 C2191 1.398 . S
C2192 C2193 1.391 . S
C2193 H2181 0.950 . S
C2193 C2189 1.393 . S
C2193 C2192 1.391 . S
C2194 H2184 0.950 . S
C2194 C2195 1.386 . S
C2194 C2196 1.391 . S
C2195 C2194 1.386 . S
C2195 C2199 1.393 . S
C2196 H2185 0.950 . S
C2196 C2194 1.391 . S
C2196 C2197 1.400 . S
C2197 C2191 1.491 . S
C2197 C2196 1.400 . S
C2197 C2198 1.398 . S
C2198 H2186 0.950 . S
C2198 C2197 1.398 . S
C2198 C2199 1.391 . S
C2199 H2187 0.950 . S
C2199 C2195 1.393 . S
C2199 C2198 1.391 . S
H2200 C2208 0.950 . S
H2201 C2213 0.950 . S
H2202 C2210 0.950 . S
H2203 C2212 0.950 . S
H2204 C2214 0.950 . S
H2205 C2216 0.950 . S
H2206 C2218 0.950 . S
H2207 C2219 0.950 . S
C2208 H2200 0.950 . S
C2208 C2209 1.386 . S
C2208 C2210 1.391 . S
C2209 C2208 1.386 . S
C2209 C2213 1.393 . S
C2210 H2202 0.950 . S
C2210 C2208 1.391 . S
C2210 C2211 1.400 . S
C2211 C2210 1.400 . S
C2211 C2212 1.398 . S
C2211 C2217 1.491 . S
C2212 H2203 0.950 . S
C2212 C2211 1.398 . S
C2212 C2213 1.391 . S
C2213 H2201 0.950 . S
C2213 C2209 1.393 . S
C2213 C2212 1.391 . S
C2214 H2204 0.950 . S
C2214 C2215 1.386 . S
C2214 C2216 1.391 . S
C2215 C2214 1.386 . S
C2215 C2219 1.393 . S
C2216 H2205 0.950 . S
C2216 C2214 1.391 . S
C2216 C2217 1.400 . S
C2217 C2211 1.491 . S
C2217 C2216 1.400 . S
C2217 C2218 1.398 . S
C2218 H2206 0.950 . S
C2218 C2217 1.398 . S
C2218 C2219 1.391 . S
C2219 H2207 0.950 . S
C2219 C2215 1.393 . S
C2219 C2218 1.391 . S
H2220 C2228 0.950 . S
H2221 C2233 0.950 . S
H2222 C2230 0.950 . S
H2223 C2232 0.950 . S
H2224 C2234 0.950 . S
H2225 C2236 0.950 . S
H2226 C2238 0.950 . S
H2227 C2239 0.950 . S
C2228 H2220 0.950 . S
C2228 C2229 1.386 . S
C2228 C2230 1.391 . S
C2229 C2228 1.386 . S
C2229 C2233 1.393 . S
C2230 H2222 0.950 . S
C2230 C2228 1.391 . S
C2230 C2231 1.400 . S
C2231 C2230 1.400 . S
C2231 C2232 1.398 . S
C2231 C2237 1.491 . S
C2232 H2223 0.950 . S
C2232 C2231 1.398 . S
C2232 C2233 1.391 . S
C2233 H2221 0.950 . S
C2233 C2229 1.393 . S
C2233 C2232 1.391 . S
C2234 H2224 0.950 . S
C2234 C2235 1.386 . S
C2234 C2236 1.391 . S
C2235 C2234 1.386 . S
C2235 C2239 1.393 . S
C2236 H2225 0.950 . S
C2236 C2234 1.391 . S
C2236 C2237 1.400 . S
C2237 C2231 1.491 . S
C2237 C2236 1.400 . S
C2237 C2238 1.398 . S
C2238 H2226 0.950 . S
C2238 C2237 1.398 . S
C2238 C2239 1.391 . S
C2239 H2227 0.950 . S
C2239 C2235 1.393 . S
C2239 C2238 1.391 . S
C1289 C162 2.141 . S
C1295 C2 2.141 . S
C1309 C202 2.220 . S
C1315 C42 2.222 . S
C1329 C82 2.154 . S
C1335 C242 2.153 . S
C1349 C122 2.230 . S
C1355 C282 2.229 . S
C1369 C482 2.026 . S
C1375 C322 2.021 . S
C1389 C522 2.098 . S
C1395 C362 2.091 . S
C1409 C402 2.014 . S
C1415 C562 2.007 . S
C1429 C602 2.097 . S
C1435 C442 2.090 . S
C1449 C642 1.959 . S
C1455 C802 1.957 . S
C1469 C842 2.145 . S
C1475 C682 2.146 . S
C1489 C722 1.968 . S
C1495 C882 1.965 . S
C1509 C922 2.156 . S
C1515 C762 2.154 . S
C1529 C962 1.862 . S
C1535 C1122 1.869 . S
C1549 C1162 2.019 . S
C1555 C1002 2.012 . S
C1569 C1042 1.867 . S
C1575 C1202 1.859 . S
C1589 C1242 2.030 . S
C1595 C1082 2.023 . S
C1609 C501 1.843 . S
C1615 C21 1.923 . S
C1629 C61 1.913 . S
C1635 C1181 1.843 . S
C1649 C581 1.847 . S
C1655 C101 1.917 . S
C1669 C141 1.908 . S
C1675 C1261 1.838 . S
C1689 C341 1.853 . S
C1695 C181 1.915 . S
C1709 C1021 1.857 . S
C1715 C221 1.907 . S
C1729 C261 1.920 . S
C1735 C421 1.860 . S
C1749 C1101 1.857 . S
C1755 C301 1.906 . S
C1769 C381 1.850 . S
C1775 C861 1.907 . S
C1789 C461 1.849 . S
C1795 C941 1.913 . S
C1809 C541 1.845 . S
C1815 C701 1.914 . S
C1829 C781 1.910 . S
C1835 C621 1.836 . S
C1849 C1141 1.729 . S
C1855 C661 1.789 . S
C1869 C1221 1.736 . S
C1875 C741 1.788 . S
C1889 C821 1.784 . S
C1895 C981 1.743 . S
C1909 C1061 1.743 . S
C1915 C901 1.782 . S
C1929 C935 1.816 . S
C1935 C15 1.807 . S
C1949 C55 1.721 . S
C1955 C815 1.729 . S
C1969 C95 1.799 . S
C1975 C855 1.806 . S
C1989 C895 1.729 . S
C1995 C135 1.700 . S
C2009 C175 1.800 . S
C2015 C695 1.810 . S
C2029 C215 1.716 . S
C2035 C735 1.717 . S
C2049 C775 1.812 . S
C2055 C255 1.802 . S
C2069 C655 1.735 . S
C2075 C295 1.711 . S
C2089 C1255 1.804 . S
C2095 C335 1.793 . S
C2109 C375 1.716 . S
C2115 C1135 1.720 . S
C2129 C1175 1.810 . S
C2135 C415 1.800 . S
C2149 C1215 1.726 . S
C2155 C455 1.710 . S
C2169 C495 1.792 . S
C2175 C1015 1.796 . S
C2189 C1055 1.730 . S
C2195 C535 1.704 . S
C2209 C1095 1.810 . S
C2215 C575 1.805 . S
C2229 C615 1.707 . S
C2235 C975 1.710 . S
