# Generated by pormake.
# Topology sxc, (6)-cn, num edge types: 1
# Building blocks:
#     Node 0, Type 0, BuildingBlock: UKALOJ_clean_sbu_0, # of connection points: 6
#     Node 1, Type 0, BuildingBlock: UKALOJ_clean_sbu_0, # of connection points: 6
#     Node 2, Type 0, BuildingBlock: UKALOJ_clean_sbu_0, # of connection points: 6
#     Edge 3, Type (0, 0), BuildingBlock: MIFKUJ_clean_linker_0, # of connection points: 2
#     Edge 4, Type (0, 0), BuildingBlock: MIFKUJ_clean_linker_0, # of connection points: 2
#     Edge 5, Type (0, 0), BuildingBlock: MIFKUJ_clean_linker_0, # of connection points: 2
#     Edge 6, Type (0, 0), BuildingBlock: MIFKUJ_clean_linker_0, # of connection points: 2
#     Edge 7, Type (0, 0), BuildingBlock: MIFKUJ_clean_linker_0, # of connection points: 2
#     Edge 8, Type (0, 0), BuildingBlock: MIFKUJ_clean_linker_0, # of connection points: 2
#     Edge 9, Type (0, 0), BuildingBlock: MIFKUJ_clean_linker_0, # of connection points: 2
#     Edge 10, Type (0, 0), BuildingBlock: MIFKUJ_clean_linker_0, # of connection points: 2
#     Edge 11, Type (0, 0), BuildingBlock: MIFKUJ_clean_linker_0, # of connection points: 2
# Relax obj value: 0.125
# Max RMSD: 0.182
# Mean RMSD: 0.182
data_MOF--net-sxc--node1-UKALOJ_clean_sbu_0--edge1-MIFKUJ_clean_linker_0
_symmetry_space_group_name_H-M    P1
_symmetry_Int_Tables_number       1
_symmetry_cell_setting            triclinic
loop_
_symmetry_equiv_pos_as_xyz
'x, y, z'
_cell_length_a     19.254376
_cell_length_b     19.168124
_cell_length_c     73.888576
_cell_angle_alpha  89.846777
_cell_angle_beta   89.9624
_cell_angle_gamma 119.76013
loop_
_atom_site_label
_atom_site_type_symbol
_atom_site_fract_x
_atom_site_fract_y
_atom_site_fract_z
_atom_type_partial_charge
Zn0 Zn -0.01422 0.06052 1.00745 0.0
O1 O 0.02033 0.97367 1.00416 0.0
C2 C 0.83204 0.94174 0.02152 0.0
Zn3 Zn -0.00806 0.05609 0.03753 0.0
C4 C 0.03351 0.94482 0.01839 0.0
O5 O 0.02587 0.96927 0.03382 0.0
C6 C 0.94464 0.172 0.02675 0.0
O7 O 0.11217 0.14469 0.03842 0.0
O8 O 0.10609 0.14994 1.00878 0.0
N9 N -0.0128 0.03675 0.0648 0.0
C10 C 0.01867 0.0848 0.07934 0.0
C11 C 0.94305 0.96568 0.08915 0.0
N12 N 0.94059 0.96286 0.07097 0.0
N13 N -0.0083 0.04144 0.09477 0.0
C14 C -0.02851 0.03136 0.96562 0.0
C15 C 0.00479 0.14865 0.95585 0.0
N16 N -0.01228 0.07934 0.98017 0.0
N17 N 0.00832 0.15208 0.97404 0.0
N18 N -0.01793 0.07362 0.9502 0.0
H19 H 0.90827 0.91698 0.97937 0.0
H20 H -0.0068 0.93254 0.96613 0.0
H21 H 0.90188 0.91151 0.95494 0.0
C22 C 0.9414 0.94282 0.96659 0.0
C23 C 0.0721 0.17412 0.0784 0.0
H24 H 0.13531 0.18819 0.07909 0.0
H25 H 0.06052 0.20361 0.09 0.0
H26 H 0.0637 0.19885 0.06556 0.0
O27 O 0.95818 0.1432 0.04092 0.0
O28 O 0.95135 0.14709 1.01131 0.0
C29 C 0.14571 0.17475 0.02337 0.0
O30 O 0.86585 0.97154 1.0065 0.0
O31 O 0.87138 0.96707 0.03611 0.0
Zn32 Zn 0.12222 0.13114 0.3411 0.0
O33 O 0.0022 0.09888 0.33837 0.0
C34 C 0.16569 0.29249 0.35271 0.0
Zn35 Zn 0.12121 0.13737 0.37124 0.0
C36 C 0.96521 0.09313 0.35301 0.0
O37 O 0.00153 0.10637 0.36803 0.0
C38 C 0.27795 0.17475 0.35945 0.0
O39 O 0.08597 0.01585 0.37387 0.0
O40 O 0.0886 0.00977 0.34419 0.0
N41 N 0.10988 0.14863 0.39842 0.0
C42 C 0.13558 0.12804 0.41343 0.0
C43 C 0.06749 0.18201 0.42203 0.0
N44 N 0.06791 0.18235 0.40384 0.0
N45 N 0.10965 0.14848 0.42848 0.0
C46 C 0.10443 0.13848 0.29912 0.0
C47 C 0.18487 0.09998 0.28987 0.0
N48 N 0.13513 0.12217 0.31388 0.0
N49 N 0.18498 0.09824 0.30807 0.0
N50 N 0.13474 0.1249 0.28388 0.0
H51 H -0.01404 0.12091 0.29941 0.0
H52 H 0.05783 0.21077 0.2878 0.0
H53 H 0.05658 0.2061 0.31226 0.0
C54 C 0.04843 0.17156 0.29969 0.0
C55 C 0.183 0.08532 0.4132 0.0
H56 H 0.17701 0.05497 0.40012 0.0
H57 H 0.1636 0.04057 0.42434 0.0
H58 H 0.24722 0.1299 0.41509 0.0
O59 O 0.2404 0.16769 0.37407 0.0
O60 O 0.24237 0.16347 0.34438 0.0
C61 C 0.07701 0.97578 0.35956 0.0
O62 O 0.15539 0.25206 0.33841 0.0
O63 O 0.15618 0.25904 0.36807 0.0
Zn64 Zn 0.06541 0.00266 0.70514 0.0
O65 O -0.02458 0.03347 0.70921 0.0
C66 C 0.94947 0.84938 0.68934 0.0
Zn67 Zn 0.06114 0.0139 0.67517 0.0
C68 C 0.94551 0.04735 0.69528 0.0
O69 O -0.02907 0.04325 0.67968 0.0
C70 C 0.18123 0.96975 0.68487 0.0
O71 O 0.14657 0.13586 0.67591 0.0
O72 O 0.15311 0.12478 0.70536 0.0
N73 N 0.04484 0.01811 0.64796 0.0
C74 C 0.09428 0.04607 0.63351 0.0
C75 C -0.02488 -0.00111 0.6238 0.0
N76 N -0.02903 -0.01131 0.64185 0.0
N77 N 0.05176 0.03456 0.61813 0.0
C78 C 0.03134 0.97754 0.74672 0.0
C79 C 0.14712 0.01059 0.75693 0.0
N80 N 0.08104 -0.00285 0.73239 0.0
N81 N 0.15283 0.01739 0.73878 0.0
N82 N 0.07153 -0.0141 0.7623 0.0
H83 H 0.93203 -0.00215 0.74577 0.0
H84 H 0.91093 0.90553 0.75683 0.0
H85 H 0.91929 0.91398 0.73245 0.0
C86 C 0.94315 0.9464 0.74535 0.0
C87 C 0.18372 0.08735 0.63468 0.0
H88 H 0.20499 0.11162 0.64837 0.0
H89 H 0.21145 0.13679 0.6246 0.0
H90 H 0.20352 0.04319 0.63175 0.0
O91 O 0.15216 -0.01491 0.671 0.0
O92 O 0.15473 0.97196 0.70048 0.0
C93 C 0.17679 0.16728 0.69106 0.0
O94 O -0.02142 0.88127 0.70453 0.0
O95 O -0.02552 0.89132 0.67499 0.0
H96 H 0.89195 0.23185 1.00009 0.0
H97 H 0.90481 0.36491 0.99936 0.0
H98 H -0.01571 0.40321 0.05488 0.0
H99 H -0.0279 0.27005 0.05574 0.0
H100 H 0.85064 0.45148 0.01891 0.0
H101 H 0.15573 0.59566 0.0554 0.0
H102 H 0.26284 0.56475 0.06243 0.0
H103 H 0.20155 0.41467 0.01541 0.0
H104 H 0.09559 0.44645 1.0078 0.0
H105 H 0.08736 0.88668 0.04518 0.0
H106 H 0.07726 0.75478 0.04599 0.0
H107 H -0.00043 0.71549 0.99035 0.0
H108 H 0.00887 0.84728 0.98943 0.0
H109 H 0.13278 0.66797 0.02648 0.0
H110 H 0.8287 0.52461 0.98981 0.0
H111 H 0.7217 0.5556 0.98271 0.0
H112 H 0.78109 0.70379 0.03001 0.0
H113 H 0.88705 0.67203 0.03767 0.0
C114 C 0.91021 0.26777 1.01229 0.0
C115 C 0.93258 0.24157 0.02786 0.0
C116 C 0.91725 0.34351 1.01186 0.0
C117 C 0.94719 0.3939 0.02693 0.0
C118 C 0.96222 0.36506 0.04306 0.0
C119 C 0.95486 0.28903 0.04354 0.0
C120 C -0.02902 0.4791 0.025 0.0
C121 C 0.91231 0.49889 0.02043 0.0
C122 C 0.0516 0.54034 0.02713 0.0
C123 C 0.11677 0.52246 0.03122 0.0
C124 C 0.16535 0.55639 0.04651 0.0
C125 C 0.22594 0.53881 0.05058 0.0
C126 C 0.23862 0.48741 0.03944 0.0
C127 C 0.19136 0.45417 0.02408 0.0
C128 C 0.13105 0.47202 0.01987 0.0
C129 C 0.07008 0.85082 0.03297 0.0
C130 C 0.04719 0.87622 0.01736 0.0
C131 C 0.06472 0.77579 0.03345 0.0
C132 C 0.03599 0.72537 0.01836 0.0
C133 C 0.02078 0.75368 1.00218 0.0
C134 C 0.02641 0.82895 1.00166 0.0
C135 C 0.01244 0.64027 0.02038 0.0
C136 C 0.07112 0.62053 0.02497 0.0
C137 C 0.93184 0.57902 0.01826 0.0
C138 C 0.8667 0.59687 1.01414 0.0
C139 C 0.81868 0.56348 0.99875 0.0
C140 C 0.75816 0.58111 0.99464 0.0
C141 C 0.74498 0.63199 1.00584 0.0
C142 C 0.79168 0.6647 0.0213 0.0
C143 C 0.85196 0.64684 0.02554 0.0
H144 H 0.69843 0.64586 1.00255 0.0
H145 H 0.28521 0.47357 0.0427 0.0
H146 H 0.35795 0.16126 0.38849 0.0
H147 H 0.47912 0.15049 0.38739 0.0
H148 H 0.50048 0.20073 0.33005 0.0
H149 H 0.37931 0.21097 0.33096 0.0
H150 H 0.49546 0.0594 0.33833 0.0
H151 H 0.63146 0.33284 0.35844 0.0
H152 H 0.6549 0.44515 0.37841 0.0
H153 H 0.69839 0.32867 0.42313 0.0
H154 H 0.67213 0.21402 0.40361 0.0
H155 H 0.88316 0.10415 0.32407 0.0
H156 H 0.75996 0.1112 0.32532 0.0
H157 H 0.74084 0.06108 0.38265 0.0
H158 H 0.86401 0.05459 0.38158 0.0
H159 H 0.74389 0.20116 0.37457 0.0
H160 H 0.60944 0.92836 0.35441 0.0
H161 H 0.58563 0.81581 0.33448 0.0
H162 H 0.53906 0.93066 0.2899 0.0
H163 H 0.56566 0.04555 0.30937 0.0
C164 C 0.38969 0.17215 0.37576 0.0
C165 C 0.35888 0.18584 0.35976 0.0
C166 C 0.4587 0.16591 0.37515 0.0
C167 C 0.49779 0.17419 0.3586 0.0
C168 C 0.47034 0.19354 0.34289 0.0
C169 C 0.4014 0.19955 0.34346 0.0
C170 C 0.56241 0.15486 0.35732 0.0
C171 C 0.55046 0.09106 0.34603 0.0
C172 C 0.63245 0.19492 0.36784 0.0
C173 C 0.64892 0.26428 0.37958 0.0
C174 C 0.64511 0.33063 0.37257 0.0
C175 C 0.65903 0.39482 0.38381 0.0
C176 C 0.67834 0.39417 0.40201 0.0
C177 C 0.68344 0.32912 0.40903 0.0
C178 C 0.66882 0.26439 0.39789 0.0
C179 C 0.85151 0.09248 0.33682 0.0
C180 C 0.88354 0.0801 0.35278 0.0
C181 C 0.78128 0.09649 0.33752 0.0
C182 C 0.74223 0.08728 0.35412 0.0
C183 C 0.77089 0.06894 0.36978 0.0
C184 C 0.84105 0.0652 0.36912 0.0
C185 C 0.67705 0.10576 0.35556 0.0
C186 C 0.68888 0.16942 0.36688 0.0
C187 C 0.60692 0.06556 0.34506 0.0
C188 C 0.59046 -0.00384 0.33334 0.0
C189 C 0.59508 0.9302 0.34031 0.0
C190 C 0.58098 0.86588 0.32909 0.0
C191 C 0.56066 0.86598 0.31096 0.0
C192 C 0.55478 0.93063 0.30396 0.0
C193 C 0.56961 -0.00449 0.31507 0.0
H194 H 0.54944 0.81593 0.30232 0.0
H195 H 0.68937 0.44409 0.41066 0.0
H196 H 0.86002 0.77233 0.65974 0.0
H197 H 0.72805 0.65215 0.65983 0.0
H198 H 0.74819 0.62305 0.71716 0.0
H199 H 0.8803 0.74342 0.71728 0.0
H200 H 0.66951 0.47682 0.69758 0.0
H201 H 0.67136 0.72722 0.7042 0.0
H202 H 0.70759 0.86454 0.69489 0.0
H203 H 0.56753 0.77299 0.64661 0.0
H204 H 0.53381 0.63521 0.65516 0.0
H205 H 0.26611 0.24495 0.72063 0.0
H206 H 0.39756 0.3658 0.7205 0.0
H207 H 0.37673 0.39438 0.66318 0.0
H208 H 0.2451 0.27336 0.6631 0.0
H209 H 0.45568 0.54096 0.6827 0.0
H210 H 0.45437 0.29094 0.67593 0.0
H211 H 0.41833 0.15353 0.68512 0.0
H212 H 0.55735 0.24436 0.73356 0.0
H213 H 0.59095 0.38223 0.72513 0.0
C214 C 0.83737 0.73929 0.67229 0.0
C215 C 0.87969 0.76804 0.68859 0.0
C216 C 0.76201 0.67081 0.6723 0.0
C217 C 0.72835 0.63031 0.68856 0.0
C218 C 0.77345 0.65425 0.70451 0.0
C219 C 0.84868 0.72304 0.70456 0.0
C220 C 0.64321 0.56903 0.68937 0.0
C221 C 0.62261 0.49076 0.6945 0.0
C222 C 0.58271 0.58797 0.68509 0.0
C223 C 0.60131 0.67079 0.68017 0.0
C224 C 0.64926 0.73631 0.69146 0.0
C225 C 0.66949 0.81433 0.6863 0.0
C226 C 0.64027 0.82756 0.67011 0.0
C227 C 0.59056 0.7627 0.65908 0.0
C228 C 0.57124 0.68463 0.66403 0.0
C229 C 0.28849 0.27799 0.70807 0.0
C230 C 0.24616 0.2489 0.69179 0.0
C231 C 0.36352 0.34689 0.70804 0.0
C232 C 0.39689 0.38743 0.69176 0.0
C233 C 0.35169 0.36317 0.67583 0.0
C234 C 0.27675 0.29398 0.67581 0.0
C235 C 0.482 0.44878 0.69092 0.0
C236 C 0.50259 0.52705 0.68577 0.0
C237 C 0.54251 0.42984 0.69517 0.0
C238 C 0.52394 0.34699 0.70005 0.0
C239 C 0.47629 0.28166 0.68869 0.0
C240 C 0.45616 0.20359 0.69378 0.0
C241 C 0.48515 0.19013 0.70997 0.0
C242 C 0.53451 0.25482 0.72108 0.0
C243 C 0.55376 0.33293 0.71619 0.0
H244 H 0.46969 0.12962 0.71385 0.0
H245 H 0.65581 0.88804 0.66617 0.0
H246 H 0.89183 0.11258 0.67003 0.0
H247 H 0.76271 0.10747 0.66979 0.0
H248 H 0.712 0.00277 0.72328 0.0
H249 H 0.84146 0.00787 0.72364 0.0
H250 H 0.6025 0.90876 0.69827 0.0
H251 H 0.72103 0.17662 0.71771 0.0
H252 H 0.81131 0.32287 0.71967 0.0
H253 H 0.74035 0.35348 0.66651 0.0
H254 H 0.65077 0.20716 0.66405 0.0
H255 H 0.23629 0.90543 0.71004 0.0
H256 H 0.36611 0.91215 0.71017 0.0
H257 H 0.41546 0.01736 0.65673 0.0
H258 H 0.28508 0.01049 0.65644 0.0
H259 H 0.52576 0.11146 0.68162 0.0
H260 H 0.40751 0.84394 0.66208 0.0
H261 H 0.31757 0.69766 0.65999 0.0
H262 H 0.38843 0.66635 0.7131 0.0
H263 H 0.47764 0.81268 0.7157 0.0
C264 C 0.85412 0.0905 0.68195 0.0
C265 C 0.87623 0.05986 0.69679 0.0
C266 C 0.78066 0.0882 0.68184 0.0
C267 C 0.72806 0.05482 0.69652 0.0
C268 C 0.75219 0.02912 0.71187 0.0
C269 C 0.82615 0.0322 0.71206 0.0
C270 C 0.64395 0.03465 0.69446 0.0
C271 C 0.58531 0.9531 0.69492 0.0
C272 C 0.62248 0.09278 0.68965 0.0
C273 C 0.67998 0.18046 0.69058 0.0
C274 C 0.72573 0.21423 0.70628 0.0
C275 C 0.77652 0.29729 0.70752 0.0
C276 C 0.78179 0.34741 0.6932 0.0
C277 C 0.73641 0.31456 0.67758 0.0
C278 C 0.68566 0.23152 0.67625 0.0
C279 C 0.27385 0.92798 0.6981 0.0
C280 C 0.25108 0.95823 0.6833 0.0
C281 C 0.34775 0.93126 0.69815 0.0
C282 C 0.40014 0.9652 0.68345 0.0
C283 C 0.37547 -0.00936 0.66815 0.0
C284 C 0.30103 -0.01344 0.66801 0.0
C285 C 0.48434 -0.01445 0.68542 0.0
C286 C 0.54298 0.06712 0.68494 0.0
C287 C 0.50586 0.92743 0.69019 0.0
C288 C 0.44848 0.83973 0.6892 0.0
C289 C 0.40285 0.80616 0.67347 0.0
C290 C 0.35226 0.72309 0.67216 0.0
C291 C 0.34706 0.67277 0.68643 0.0
C292 C 0.39231 0.70543 0.70208 0.0
C293 C 0.44285 0.78847 0.70348 0.0
H294 H 0.30818 0.60844 0.68534 0.0
H295 H 0.82083 0.41174 0.69422 0.0
H296 H 0.73433 0.86426 0.99294 0.0
H297 H 0.6114 0.7342 0.99385 0.0
H298 H 0.62481 0.73143 0.05211 0.0
H299 H 0.74735 0.86131 0.05141 0.0
H300 H 0.62253 0.60194 0.03616 0.0
H301 H 0.47293 0.73849 0.03396 0.0
H302 H 0.43088 0.8334 0.02299 0.0
H303 H 0.36918 0.71474 0.97149 0.0
H304 H 0.41187 0.61971 0.98207 0.0
H305 H 0.24402 0.25194 0.05191 0.0
H306 H 0.36798 0.38109 0.05089 0.0
H307 H 0.35453 0.38287 0.99262 0.0
H308 H 0.23094 0.25397 0.99343 0.0
H309 H 0.35728 0.51274 1.00846 0.0
H310 H 0.50588 0.37534 1.01084 0.0
H311 H 0.54793 0.28054 0.02187 0.0
H312 H 0.61129 0.40072 0.07319 0.0
H313 H 0.56858 0.49565 0.06255 0.0
C314 C 0.70995 0.83697 1.00597 0.0
C315 C 0.75085 0.87225 0.02208 0.0
C316 C 0.63966 0.76297 1.00646 0.0
C317 C 0.60976 0.72368 0.02305 0.0
C318 C 0.64752 0.76119 0.03921 0.0
C319 C 0.71741 0.83526 0.03875 0.0
C320 C 0.54578 0.6394 0.02334 0.0
C321 C 0.56391 0.5823 0.0304 0.0
C322 C 0.47068 0.61447 0.01532 0.0
C323 C 0.4466 0.6726 1.00874 0.0
C324 C 0.45134 0.73323 0.02022 0.0
C325 C 0.42711 0.78688 1.01409 0.0
C326 C 0.39762 0.78027 0.99654 0.0
C327 C 0.39218 0.71989 0.98508 0.0
C328 C 0.41633 0.66608 0.99114 0.0
C329 C 0.26855 0.27881 0.03886 0.0
C330 C 0.2273 0.24364 0.02277 0.0
C331 C 0.33948 0.35226 0.0383 0.0
C332 C 0.36969 0.39106 0.02168 0.0
C333 C 0.33161 0.35349 1.00555 0.0
C334 C 0.26106 0.28001 1.00607 0.0
C335 C 0.43393 0.47523 0.02132 0.0
C336 C 0.41587 0.53234 1.01423 0.0
C337 C 0.50903 0.50014 0.02934 0.0
C338 C 0.53301 0.442 0.03596 0.0
C339 C 0.5278 0.38095 0.02456 0.0
C340 C 0.55204 0.32736 0.03072 0.0
C341 C 0.58201 0.33443 0.04824 0.0
C342 C 0.58791 0.3952 0.05963 0.0
C343 C 0.56374 0.44896 0.05354 0.0
H344 H 0.60087 0.29296 0.05298 0.0
H345 H 0.37879 0.8218 0.99183 0.0
H346 H 0.14161 0.3649 0.32353 0.0
H347 H 0.13073 0.48662 0.32399 0.0
H348 H 0.20294 0.52426 0.38001 0.0
H349 H 0.21376 0.40274 0.37973 0.0
H350 H 0.02043 0.49318 0.34729 0.0
H351 H 0.29543 0.73099 0.38778 0.0
H352 H 0.43935 0.7772 0.39093 0.0
H353 H 0.44277 0.68864 0.33782 0.0
H354 H 0.29954 0.64371 0.33416 0.0
H355 H 0.09678 0.9015 0.38896 0.0
H356 H 0.10442 0.77799 0.38875 0.0
H357 H 0.03591 0.74209 0.33249 0.0
H358 H 0.0286 0.86561 0.33251 0.0
H359 H 0.21595 0.77186 0.36546 0.0
H360 H 0.9409 0.53349 0.325 0.0
H361 H 0.79694 0.48702 0.32183 0.0
H362 H 0.79356 0.57692 0.37479 0.0
H363 H 0.93685 0.62213 0.37847 0.0
C364 C 0.15746 0.40041 0.33578 0.0
C365 C 0.17749 0.37407 0.35167 0.0
C366 C 0.15086 0.46953 0.33603 0.0
C367 C 0.16555 0.51356 0.35205 0.0
C368 C 0.19177 0.49097 0.36751 0.0
C369 C 0.19767 0.42153 0.36733 0.0
C370 C 0.14393 0.57681 0.35338 0.0
C371 C 0.0633 0.55463 0.35094 0.0
C372 C 0.19978 0.65566 0.35879 0.0
C373 C 0.28631 0.68296 0.36081 0.0
C374 C 0.32694 0.72163 0.37675 0.0
C375 C 0.40847 0.74771 0.37861 0.0
C376 C 0.45012 0.73558 0.36462 0.0
C377 C 0.41041 0.69772 0.34869 0.0
C378 C 0.329 0.67185 0.34672 0.0
C379 C 0.08108 0.86608 0.3767 0.0
C380 C 0.06336 0.89353 0.36066 0.0
C381 C 0.08568 0.79584 0.3766 0.0
C382 C 0.0712 0.7518 0.36059 0.0
C383 C 0.04688 0.77541 0.34499 0.0
C384 C 0.0431 0.84603 0.34501 0.0
C385 C 0.09245 0.68826 0.35937 0.0
C386 C 0.17305 0.71042 0.36183 0.0
C387 C 0.03658 0.60944 0.35395 0.0
C388 C 0.95008 0.58225 0.35189 0.0
C389 C 0.90941 0.54314 0.33599 0.0
C390 C 0.82785 0.51689 0.33412 0.0
C391 C 0.78619 0.5293 0.34807 0.0
C392 C 0.82594 0.56764 0.36396 0.0
C393 C 0.90739 0.59369 0.36593 0.0
H394 H 0.72307 0.509 0.34658 0.0
H395 H 0.5132 0.75571 0.36611 0.0
H396 H -0.00946 0.07481 0.26817 0.0
H397 H 0.96449 0.0764 0.23575 0.0
H398 H 0.21766 0.18936 0.22479 0.0
H399 H 0.24374 0.18926 0.25727 0.0
H400 H 0.14292 0.25159 0.20337 0.0
H401 H 0.10656 -0.00731 0.22059 0.0
H402 H 0.04929 0.86768 0.23858 0.0
H403 H 0.81309 0.80718 0.22129 0.0
H404 H 0.86894 0.9325 0.2034 0.0
H405 H 0.13446 0.1368 0.11083 0.0
H406 H 0.15768 0.16609 0.14327 0.0
H407 H 0.9031 0.02977 0.15298 0.0
H408 H 0.8805 -0.00056 0.12066 0.0
H409 H -0.02352 -0.01597 0.17534 0.0
H410 H 0.01336 0.23963 0.15641 0.0
H411 H 0.07124 0.3642 0.13827 0.0
H412 H 0.30535 0.43142 0.15836 0.0
H413 H 0.24903 0.30662 0.17643 0.0
C414 C 0.04061 0.10211 0.25889 0.0
C415 C 0.11923 0.1329 0.26518 0.0
C416 C 0.02571 0.10228 0.24037 0.0
C417 C 0.08917 0.1326 0.22787 0.0
C418 C 0.1679 0.16598 0.23421 0.0
C419 C 0.18271 0.16553 0.25269 0.0
C420 C 0.07331 0.1241 0.20814 0.0
C421 C 0.10698 0.19316 0.19717 0.0
C422 C 0.02548 0.04791 0.20015 0.0
C423 C -0.00816 0.97236 0.21082 0.0
C424 C 0.04236 0.95304 0.22075 0.0
C425 C 0.01017 0.88208 0.23091 0.0
C426 C 0.92758 0.82963 0.23112 0.0
C427 C 0.87703 0.84794 0.22114 0.0
C428 C 0.90892 0.91889 0.21098 0.0
C429 C 0.08367 0.11497 0.11988 0.0
C430 C 0.00568 0.06667 0.11333 0.0
C431 C 0.09682 0.13152 0.1384 0.0
C432 C 0.03203 0.10071 0.15059 0.0
C433 C 0.95402 0.05415 0.14389 0.0
C434 C 0.94107 0.03698 0.12546 0.0
C435 C 0.04536 0.11167 0.17043 0.0
C436 C 0.01167 0.04278 0.18146 0.0
C437 C 0.09306 0.18804 0.17842 0.0
C438 C 0.12704 0.26339 0.16765 0.0
C439 C 0.07727 0.28067 0.15686 0.0
C440 C 0.10979 0.35138 0.1466 0.0
C441 C 0.19194 0.4056 0.14713 0.0
C442 C 0.24173 0.38932 0.15795 0.0
C443 C 0.20953 0.31864 0.16822 0.0
H444 H 0.217 0.4603 0.13918 0.0
H445 H 0.90277 0.77472 0.23899 0.0
H446 H -0.00073 0.11287 0.45437 0.0
H447 H 0.0146 0.10216 0.4869 0.0
H448 H 0.25416 0.14519 0.47836 0.0
H449 H 0.24074 0.16013 0.44578 0.0
H450 H 0.13732 0.00489 0.50396 0.0
H451 H 0.26066 0.29025 0.49324 0.0
H452 H 0.26691 0.41149 0.48001 0.0
H453 H 0.05175 0.3607 0.50825 0.0
H454 H 0.04351 0.2384 0.52142 0.0
H455 H 0.17203 0.02647 0.60032 0.0
H456 H 0.20805 0.05733 0.56836 0.0
H457 H 0.01859 0.1137 0.56163 0.0
H458 H -0.01377 0.08811 0.59372 0.0
H459 H 0.14036 0.21585 0.54329 0.0
H460 H 0.00126 0.92643 0.54997 0.0
H461 H -0.02001 0.7973 0.56215 0.0
H462 H 0.20777 0.84662 0.54098 0.0
H463 H 0.23076 0.97657 0.52886 0.0
C464 C 0.05513 0.11969 0.45938 0.0
C465 C 0.11814 0.13576 0.4474 0.0
C466 C 0.06368 0.11335 0.47794 0.0
C467 C 0.13535 0.12265 0.48494 0.0
C468 C 0.19809 0.13699 0.47311 0.0
C469 C 0.18995 0.14456 0.45447 0.0
C470 C 0.14444 0.12042 0.50476 0.0
C471 C 0.14003 0.05175 0.51264 0.0
C472 C 0.14591 0.18081 0.51594 0.0
C473 C 0.15121 0.25486 0.50822 0.0
C474 C 0.21433 0.30458 0.49651 0.0
C475 C 0.21829 0.37356 0.48905 0.0
C476 C 0.15969 0.39371 0.49326 0.0
C477 C 0.0971 0.34501 0.50499 0.0
C478 C 0.09282 0.27591 0.51248 0.0
C479 C 0.13997 0.0481 0.59218 0.0
C480 C 0.07731 0.05652 0.59964 0.0
C481 C 0.15962 0.06431 0.57381 0.0
C482 C 0.11561 0.0872 0.5625 0.0
C483 C 0.05381 0.09656 0.57004 0.0
C484 C 0.03496 0.08142 0.58836 0.0
C485 C 0.13103 0.09902 0.54269 0.0
C486 C 0.13976 0.16961 0.53475 0.0
C487 C 0.13194 0.03958 0.53146 0.0
C488 C 0.11818 0.96158 0.53873 0.0
C489 C 0.04706 0.90998 0.54804 0.0
C490 C 0.03465 0.83662 0.55491 0.0
C491 C 0.09262 0.8139 0.55239 0.0
C492 C 0.16301 0.8644 0.54295 0.0
C493 C 0.17576 0.93788 0.53608 0.0
H494 H 0.0829 0.75707 0.55772 0.0
H495 H 0.16285 0.44713 0.48746 0.0
H496 H -0.02313 0.0388 0.77684 0.0
H497 H 0.94476 0.03819 0.80888 0.0
H498 H 0.08118 0.92183 0.82194 0.0
H499 H 0.11127 0.92022 0.78972 0.0
H500 H 0.94401 0.86258 0.8425 0.0
H501 H 0.16568 0.12025 0.82583 0.0
H502 H 0.23539 0.24462 0.80771 0.0
H503 H 0.05744 0.30705 0.82251 0.0
H504 H -0.01399 0.18237 0.84052 0.0
H505 H 0.0379 -0.01723 0.93487 0.0
H506 H 0.03684 0.95322 0.90262 0.0
H507 H 0.91234 0.08346 0.89115 0.0
H508 H 0.91396 0.11329 0.92343 0.0
H509 H 0.03653 0.13113 0.86954 0.0
H510 H 0.81883 0.87588 0.88799 0.0
H511 H 0.75158 0.75224 0.9064 0.0
H512 H 0.923 0.68538 0.88876 0.0
H513 H -0.00797 0.80927 0.87044 0.0
C514 C -0.00237 0.01063 0.78645 0.0
C515 C 0.04534 0.97819 0.78079 0.0
C516 C -0.01982 0.01124 0.80479 0.0
C517 C 0.01112 0.98051 0.81781 0.0
C518 C 0.0565 0.94562 0.81212 0.0
C519 C 0.07393 0.94502 0.79378 0.0
C520 C 0.001 -0.01013 0.83739 0.0
C521 C 0.96472 0.92126 0.84848 0.0
C522 C 0.02698 0.06639 0.8451 0.0
C523 C 0.07005 0.14158 0.83435 0.0
C524 C 0.14108 0.16019 0.8251 0.0
C525 C 0.18095 0.23078 0.81487 0.0
C526 C 0.15073 0.28359 0.81391 0.0
C527 C 0.08069 0.26601 0.82323 0.0
C528 C 0.04051 0.19542 0.83346 0.0
C529 C 0.00829 0.00293 0.92551 0.0
C530 C -0.02538 0.04897 0.93161 0.0
C531 C 0.00797 -0.01362 0.90708 0.0
C532 C -0.02634 0.01534 0.89446 0.0
C533 C 0.93896 0.06032 0.90062 0.0
C534 C 0.93972 0.0772 0.91901 0.0
C535 C -0.02113 0.00375 0.87475 0.0
C536 C 0.01487 0.0722 0.86361 0.0
C537 C 0.95276 0.92711 0.86706 0.0
C538 C 0.91102 0.85225 0.87796 0.0
C539 C 0.84256 0.83512 0.88814 0.0
C540 C 0.80405 0.76494 0.89855 0.0
C541 C 0.83311 0.71108 0.89879 0.0
C542 C 0.90061 0.7272 0.88858 0.0
C543 C 0.93939 0.79735 0.87816 0.0
H544 H 0.80323 0.65679 0.90686 0.0
H545 H 0.1817 0.33822 0.80599 0.0
loop_
_geom_bond_atom_site_label_1
_geom_bond_atom_site_label_2
_geom_bond_distance
_geom_bond_site_symmetry_2
_ccdc_geom_bond_type
Zn0 O1 2.055 1_545 S
Zn0 O8 2.046 . S
Zn0 N16 2.036 . S
Zn0 O28 2.053 1_455 S
Zn0 O30 2.066 1_455 S
O1 Zn0 2.055 1_565 S
O1 C4 1.259 1_556 S
C2 O30 1.256 1_564 S
C2 O31 1.244 . S
Zn3 O5 2.046 1_545 S
Zn3 O7 2.055 . S
Zn3 N9 2.036 . S
Zn3 O27 2.066 1_455 S
Zn3 O31 2.053 1_445 S
C4 O1 1.259 1_554 S
C4 O5 1.254 . S
O5 Zn3 2.046 1_565 S
O5 C4 1.254 . S
C6 O27 1.256 . S
C6 O28 1.244 1_554 S
O7 Zn3 2.055 . S
O7 C29 1.259 . S
O8 Zn0 2.046 . S
O8 C29 1.254 1_556 S
N9 Zn3 2.036 . S
N9 C10 1.298 . S
N9 N12 1.398 1_455 S
C10 N9 1.298 . S
C10 N13 1.370 . S
C10 C23 1.481 . S
C11 N12 1.299 . S
C11 N13 1.377 1_655 S
N12 N9 1.398 1_655 S
N12 C11 1.299 . S
N13 C10 1.370 . S
N13 C11 1.377 1_455 S
C14 N16 1.298 1_655 S
C14 N18 1.367 . S
C14 C22 1.481 1_545 S
C15 N17 1.299 1_655 S
C15 N18 1.379 . S
N16 Zn0 2.036 . S
N16 C14 1.298 1_455 S
N16 N17 1.398 . S
N17 C15 1.299 1_455 S
N17 N16 1.398 . S
N18 C14 1.367 . S
N18 C15 1.379 . S
H19 C22 0.980 1_455 S
H20 C22 0.981 1_455 S
H21 C22 0.981 . S
C22 C14 1.481 1_565 S
C22 H19 0.980 1_655 S
C22 H20 0.981 1_655 S
C22 H21 0.981 . S
C23 C10 1.481 . S
C23 H24 0.980 . S
C23 H25 0.981 . S
C23 H26 0.981 . S
H24 C23 0.980 . S
H25 C23 0.981 . S
H26 C23 0.981 . S
O27 Zn3 2.066 1_655 S
O27 C6 1.256 . S
O28 Zn0 2.053 1_655 S
O28 C6 1.244 1_556 S
C29 O7 1.259 . S
C29 O8 1.254 1_554 S
O30 Zn0 2.066 1_655 S
O30 C2 1.256 1_546 S
O31 C2 1.244 . S
O31 Zn3 2.053 1_665 S
Zn32 O33 2.055 . S
Zn32 O40 2.046 . S
Zn32 N48 2.036 . S
Zn32 O60 2.053 . S
Zn32 O62 2.066 . S
O33 Zn32 2.055 . S
O33 C36 1.259 . S
C34 O62 1.256 . S
C34 O63 1.244 . S
Zn35 O37 2.046 . S
Zn35 O39 2.055 . S
Zn35 N41 2.036 . S
Zn35 O59 2.066 . S
Zn35 O63 2.053 . S
C36 O33 1.259 . S
C36 O37 1.254 . S
O37 Zn35 2.046 . S
O37 C36 1.254 . S
C38 O59 1.256 . S
C38 O60 1.244 . S
O39 Zn35 2.055 . S
O39 C61 1.259 . S
O40 Zn32 2.046 . S
O40 C61 1.254 . S
N41 Zn35 2.036 . S
N41 C42 1.298 . S
N41 N44 1.398 . S
C42 N41 1.298 . S
C42 N45 1.367 . S
C42 C55 1.481 . S
C43 N44 1.299 . S
C43 N45 1.379 . S
N44 N41 1.398 . S
N44 C43 1.299 . S
N45 C42 1.367 . S
N45 C43 1.379 . S
C46 N48 1.298 . S
C46 N50 1.367 . S
C46 C54 1.481 . S
C47 N49 1.299 . S
C47 N50 1.379 . S
N48 Zn32 2.036 . S
N48 C46 1.298 . S
N48 N49 1.398 . S
N49 C47 1.299 . S
N49 N48 1.398 . S
N50 C46 1.367 . S
N50 C47 1.379 . S
H51 C54 0.980 . S
H52 C54 0.981 . S
H53 C54 0.981 . S
C54 C46 1.481 . S
C54 H51 0.980 . S
C54 H52 0.981 . S
C54 H53 0.981 . S
C55 C42 1.481 . S
C55 H56 0.980 . S
C55 H57 0.981 . S
C55 H58 0.981 . S
H56 C55 0.980 . S
H57 C55 0.981 . S
H58 C55 0.981 . S
O59 Zn35 2.066 . S
O59 C38 1.256 . S
O60 Zn32 2.053 . S
O60 C38 1.244 . S
C61 O39 1.259 . S
C61 O40 1.254 . S
O62 Zn32 2.066 . S
O62 C34 1.256 . S
O63 C34 1.244 . S
O63 Zn35 2.053 . S
Zn64 O65 2.055 1_455 S
Zn64 O72 2.046 . S
Zn64 N80 2.036 . S
Zn64 O92 2.053 1_545 S
Zn64 O94 2.066 1_545 S
O65 Zn64 2.055 1_655 S
O65 C68 1.259 . S
C66 O94 1.256 1_655 S
C66 O95 1.244 . S
Zn67 O69 2.046 1_455 S
Zn67 O71 2.055 . S
Zn67 N73 2.036 . S
Zn67 O91 2.066 1_545 S
Zn67 O95 2.053 1_445 S
C68 O65 1.259 . S
C68 O69 1.254 . S
O69 Zn67 2.046 1_655 S
O69 C68 1.254 . S
C70 O91 1.256 . S
C70 O92 1.244 . S
O71 Zn67 2.055 . S
O71 C93 1.259 . S
O72 Zn64 2.046 . S
O72 C93 1.254 . S
N73 Zn67 2.036 . S
N73 C74 1.298 . S
N73 N76 1.398 1_545 S
C74 N73 1.298 . S
C74 N77 1.370 . S
C74 C87 1.481 . S
C75 N76 1.299 . S
C75 N77 1.377 1_565 S
N76 N73 1.398 1_565 S
N76 C75 1.299 . S
N77 C74 1.370 . S
N77 C75 1.377 1_545 S
C78 N80 1.298 1_565 S
C78 N82 1.367 . S
C78 C86 1.481 1_455 S
C79 N81 1.299 1_565 S
C79 N82 1.379 . S
N80 Zn64 2.036 . S
N80 C78 1.298 1_545 S
N80 N81 1.398 . S
N81 C79 1.299 1_545 S
N81 N80 1.398 . S
N82 C78 1.367 . S
N82 C79 1.379 . S
H83 C86 0.980 1_545 S
H84 C86 0.981 1_545 S
H85 C86 0.981 . S
C86 C78 1.481 1_655 S
C86 H83 0.980 1_565 S
C86 H84 0.981 1_565 S
C86 H85 0.981 . S
C87 C74 1.481 . S
C87 H88 0.980 . S
C87 H89 0.981 . S
C87 H90 0.981 . S
H88 C87 0.980 . S
H89 C87 0.981 . S
H90 C87 0.981 . S
O91 Zn67 2.066 1_565 S
O91 C70 1.256 . S
O92 Zn64 2.053 1_565 S
O92 C70 1.244 . S
C93 O71 1.259 . S
C93 O72 1.254 . S
O94 Zn64 2.066 1_565 S
O94 C66 1.256 1_455 S
O95 C66 1.244 . S
O95 Zn67 2.053 1_665 S
H96 C114 0.951 . S
H97 C116 0.951 . S
H98 C118 0.950 . S
H99 C119 0.950 . S
H100 C121 0.950 1_556 S
H101 C124 0.950 . S
H102 C125 0.950 . S
H103 C127 0.950 . S
H104 C128 0.950 . S
H105 C129 0.951 . S
H106 C131 0.951 . S
H107 C133 0.950 1_556 S
H108 C134 0.950 1_556 S
H109 C136 0.950 . S
H110 C139 0.950 . S
H111 C140 0.950 . S
H112 C142 0.950 . S
H113 C143 0.950 1_554 S
C114 H96 0.951 . S
C114 C115 1.366 1_455 S
C114 C116 1.388 . S
C115 C114 1.366 1_655 S
C115 C119 1.385 . S
C116 H97 0.951 . S
C116 C114 1.388 . S
C116 C117 1.376 . S
C117 C116 1.376 . S
C117 C118 1.408 1_455 S
C117 C120 1.494 . S
C118 H98 0.950 . S
C118 C117 1.408 1_655 S
C118 C119 1.374 . S
C119 H99 0.950 . S
C119 C115 1.385 . S
C119 C118 1.374 . S
C120 C117 1.494 . S
C120 C121 1.373 1_455 S
C120 C122 1.389 . S
C121 H100 0.950 1_554 S
C121 C120 1.373 1_655 S
C121 C137 1.381 . S
C122 C120 1.389 . S
C122 C123 1.524 . S
C122 C136 1.377 . S
C123 C122 1.524 . S
C123 C124 1.397 . S
C123 C128 1.363 . S
C124 H101 0.950 . S
C124 C123 1.397 . S
C124 C125 1.334 . S
C125 H102 0.950 . S
C125 C124 1.334 . S
C125 C126 1.287 . S
C126 C125 1.287 . S
C126 C127 1.524 . S
C126 H145 0.913 . S
C127 H103 0.950 . S
C127 C126 1.524 . S
C127 C128 1.415 . S
C128 H104 0.950 . S
C128 C123 1.363 . S
C128 C127 1.415 . S
C129 H105 0.951 . S
C129 C130 1.366 1_655 S
C129 C131 1.388 . S
C130 C129 1.366 1_455 S
C130 C134 1.385 . S
C131 H106 0.951 . S
C131 C129 1.388 . S
C131 C132 1.366 1_655 S
C132 C131 1.366 1_455 S
C132 C133 1.414 . S
C132 C135 1.499 . S
C133 H107 0.950 1_554 S
C133 C132 1.414 . S
C133 C134 1.374 . S
C134 H108 0.950 1_554 S
C134 C130 1.385 . S
C134 C133 1.374 . S
C135 C132 1.499 . S
C135 C136 1.373 . S
C135 C137 1.405 1_455 S
C136 H109 0.950 . S
C136 C122 1.377 . S
C136 C135 1.373 . S
C137 C121 1.381 . S
C137 C135 1.405 1_655 S
C137 C138 1.504 1_554 S
C138 C137 1.504 1_556 S
C138 C139 1.397 . S
C138 C143 1.363 . S
C139 H110 0.950 . S
C139 C138 1.397 . S
C139 C140 1.334 . S
C140 H111 0.950 . S
C140 C139 1.334 . S
C140 C141 1.287 . S
C141 C140 1.287 . S
C141 C142 1.524 . S
C141 H144 0.999 . S
C142 H112 0.950 . S
C142 C141 1.524 . S
C142 C143 1.415 . S
C143 H113 0.950 1_556 S
C143 C138 1.363 . S
C143 C142 1.415 . S
H144 C141 0.999 . S
H145 C126 0.913 . S
H146 C164 0.951 . S
H147 C166 0.951 . S
H148 C168 0.950 . S
H149 C169 0.950 . S
H150 C171 0.950 . S
H151 C174 0.950 . S
H152 C175 0.950 . S
H153 C177 0.950 . S
H154 C178 0.950 . S
H155 C179 0.951 . S
H156 C181 0.951 . S
H157 C183 0.950 . S
H158 C184 0.950 . S
H159 C186 0.950 . S
H160 C189 0.950 1_545 S
H161 C190 0.950 . S
H162 C192 0.950 . S
H163 C193 0.950 . S
C164 H146 0.951 . S
C164 C165 1.366 . S
C164 C166 1.388 . S
C165 C164 1.366 . S
C165 C169 1.385 . S
C166 H147 0.951 . S
C166 C164 1.388 . S
C166 C167 1.366 . S
C167 C166 1.366 . S
C167 C168 1.414 . S
C167 C170 1.499 . S
C168 H148 0.950 . S
C168 C167 1.414 . S
C168 C169 1.374 . S
C169 H149 0.950 . S
C169 C165 1.385 . S
C169 C168 1.374 . S
C170 C167 1.499 . S
C170 C171 1.373 . S
C170 C172 1.389 . S
C171 H150 0.950 . S
C171 C170 1.373 . S
C171 C187 1.377 . S
C172 C170 1.389 . S
C172 C173 1.524 . S
C172 C186 1.377 . S
C173 C172 1.524 . S
C173 C174 1.397 . S
C173 C178 1.363 . S
C174 H151 0.950 . S
C174 C173 1.397 . S
C174 C175 1.334 . S
C175 H152 0.950 . S
C175 C174 1.334 . S
C175 C176 1.287 . S
C176 C175 1.287 . S
C176 C177 1.524 . S
C176 H195 0.913 . S
C177 H153 0.950 . S
C177 C176 1.524 . S
C177 C178 1.415 . S
C178 H154 0.950 . S
C178 C173 1.363 . S
C178 C177 1.415 . S
C179 H155 0.951 . S
C179 C180 1.366 . S
C179 C181 1.388 . S
C180 C179 1.366 . S
C180 C184 1.385 . S
C181 H156 0.951 . S
C181 C179 1.388 . S
C181 C182 1.366 . S
C182 C181 1.366 . S
C182 C183 1.414 . S
C182 C185 1.499 . S
C183 H157 0.950 . S
C183 C182 1.414 . S
C183 C184 1.374 . S
C184 H158 0.950 . S
C184 C180 1.385 . S
C184 C183 1.374 . S
C185 C182 1.499 . S
C185 C186 1.373 . S
C185 C187 1.389 . S
C186 H159 0.950 . S
C186 C172 1.377 . S
C186 C185 1.373 . S
C187 C171 1.377 . S
C187 C185 1.389 . S
C187 C188 1.524 1_545 S
C188 C187 1.524 1_565 S
C188 C189 1.397 . S
C188 C193 1.363 . S
C189 H160 0.950 1_565 S
C189 C188 1.397 . S
C189 C190 1.334 . S
C190 H161 0.950 . S
C190 C189 1.334 . S
C190 C191 1.287 . S
C191 C190 1.287 . S
C191 C192 1.524 . S
C191 H194 0.999 . S
C192 H162 0.950 . S
C192 C191 1.524 . S
C192 C193 1.415 . S
C193 H163 0.950 . S
C193 C188 1.363 . S
C193 C192 1.415 . S
H194 C191 0.999 . S
H195 C176 0.913 . S
H196 C214 0.951 . S
H197 C216 0.951 . S
H198 C218 0.950 . S
H199 C219 0.950 . S
H200 C221 0.950 . S
H201 C224 0.950 . S
H202 C225 0.950 . S
H203 C227 0.950 . S
H204 C228 0.950 . S
H205 C229 0.951 . S
H206 C231 0.951 . S
H207 C233 0.950 . S
H208 C234 0.950 . S
H209 C236 0.950 . S
H210 C239 0.950 . S
H211 C240 0.950 . S
H212 C242 0.950 . S
H213 C243 0.950 . S
C214 H196 0.951 . S
C214 C215 1.366 . S
C214 C216 1.388 . S
C215 C214 1.366 . S
C215 C219 1.385 . S
C216 H197 0.951 . S
C216 C214 1.388 . S
C216 C217 1.366 . S
C217 C216 1.366 . S
C217 C218 1.414 . S
C217 C220 1.499 . S
C218 H198 0.950 . S
C218 C217 1.414 . S
C218 C219 1.374 . S
C219 H199 0.950 . S
C219 C215 1.385 . S
C219 C218 1.374 . S
C220 C217 1.499 . S
C220 C221 1.373 . S
C220 C222 1.389 . S
C221 H200 0.950 . S
C221 C220 1.373 . S
C221 C237 1.377 . S
C222 C220 1.389 . S
C222 C223 1.524 . S
C222 C236 1.377 . S
C223 C222 1.524 . S
C223 C224 1.397 . S
C223 C228 1.363 . S
C224 H201 0.950 . S
C224 C223 1.397 . S
C224 C225 1.334 . S
C225 H202 0.950 . S
C225 C224 1.334 . S
C225 C226 1.287 . S
C226 C225 1.287 . S
C226 C227 1.524 . S
C226 H245 0.913 . S
C227 H203 0.950 . S
C227 C226 1.524 . S
C227 C228 1.415 . S
C228 H204 0.950 . S
C228 C223 1.363 . S
C228 C227 1.415 . S
C229 H205 0.951 . S
C229 C230 1.366 . S
C229 C231 1.388 . S
C230 C229 1.366 . S
C230 C234 1.385 . S
C231 H206 0.951 . S
C231 C229 1.388 . S
C231 C232 1.366 . S
C232 C231 1.366 . S
C232 C233 1.414 . S
C232 C235 1.499 . S
C233 H207 0.950 . S
C233 C232 1.414 . S
C233 C234 1.374 . S
C234 H208 0.950 . S
C234 C230 1.385 . S
C234 C233 1.374 . S
C235 C232 1.499 . S
C235 C236 1.373 . S
C235 C237 1.389 . S
C236 H209 0.950 . S
C236 C222 1.377 . S
C236 C235 1.373 . S
C237 C221 1.377 . S
C237 C235 1.389 . S
C237 C238 1.524 . S
C238 C237 1.524 . S
C238 C239 1.397 . S
C238 C243 1.363 . S
C239 H210 0.950 . S
C239 C238 1.397 . S
C239 C240 1.334 . S
C240 H211 0.950 . S
C240 C239 1.334 . S
C240 C241 1.287 . S
C241 C240 1.287 . S
C241 C242 1.524 . S
C241 H244 0.999 . S
C242 H212 0.950 . S
C242 C241 1.524 . S
C242 C243 1.415 . S
C243 H213 0.950 . S
C243 C238 1.363 . S
C243 C242 1.415 . S
H244 C241 0.999 . S
H245 C226 0.913 . S
H246 C264 0.951 . S
H247 C266 0.951 . S
H248 C268 0.950 . S
H249 C269 0.950 . S
H250 C271 0.950 . S
H251 C274 0.950 . S
H252 C275 0.950 . S
H253 C277 0.950 . S
H254 C278 0.950 . S
H255 C279 0.951 . S
H256 C281 0.951 . S
H257 C283 0.950 . S
H258 C284 0.950 . S
H259 C286 0.950 . S
H260 C289 0.950 . S
H261 C290 0.950 . S
H262 C292 0.950 . S
H263 C293 0.950 . S
C264 H246 0.951 . S
C264 C265 1.366 . S
C264 C266 1.388 . S
C265 C264 1.366 . S
C265 C269 1.385 1_545 S
C266 H247 0.951 . S
C266 C264 1.388 . S
C266 C267 1.366 . S
C267 C266 1.366 . S
C267 C268 1.414 1_545 S
C267 C270 1.499 . S
C268 H248 0.950 . S
C268 C267 1.414 1_565 S
C268 C269 1.374 . S
C269 H249 0.950 . S
C269 C265 1.385 1_565 S
C269 C268 1.374 . S
C270 C267 1.499 . S
C270 C271 1.373 1_545 S
C270 C272 1.389 . S
C271 H250 0.950 . S
C271 C270 1.373 1_565 S
C271 C287 1.377 . S
C272 C270 1.389 . S
C272 C273 1.524 . S
C272 C286 1.377 . S
C273 C272 1.524 . S
C273 C274 1.397 . S
C273 C278 1.363 . S
C274 H251 0.950 . S
C274 C273 1.397 . S
C274 C275 1.334 . S
C275 H252 0.950 . S
C275 C274 1.334 . S
C275 C276 1.287 . S
C276 C275 1.287 . S
C276 C277 1.524 . S
C276 H295 0.913 . S
C277 H253 0.950 . S
C277 C276 1.524 . S
C277 C278 1.415 . S
C278 H254 0.950 . S
C278 C273 1.363 . S
C278 C277 1.415 . S
C279 H255 0.951 . S
C279 C280 1.366 . S
C279 C281 1.388 . S
C280 C279 1.366 . S
C280 C284 1.385 1_565 S
C281 H256 0.951 . S
C281 C279 1.388 . S
C281 C282 1.366 . S
C282 C281 1.366 . S
C282 C283 1.414 1_565 S
C282 C285 1.499 1_565 S
C283 H257 0.950 . S
C283 C282 1.414 1_545 S
C283 C284 1.374 . S
C284 H258 0.950 . S
C284 C280 1.385 1_545 S
C284 C283 1.374 . S
C285 C282 1.499 1_545 S
C285 C286 1.373 . S
C285 C287 1.389 1_545 S
C286 H259 0.950 . S
C286 C272 1.377 . S
C286 C285 1.373 . S
C287 C271 1.377 . S
C287 C285 1.389 1_565 S
C287 C288 1.524 . S
C288 C287 1.524 . S
C288 C289 1.397 . S
C288 C293 1.363 . S
C289 H260 0.950 . S
C289 C288 1.397 . S
C289 C290 1.334 . S
C290 H261 0.950 . S
C290 C289 1.334 . S
C290 C291 1.287 . S
C291 C290 1.287 . S
C291 C292 1.524 . S
C291 H294 0.999 . S
C292 H262 0.950 . S
C292 C291 1.524 . S
C292 C293 1.415 . S
C293 H263 0.950 . S
C293 C288 1.363 . S
C293 C292 1.415 . S
H294 C291 0.999 . S
H295 C276 0.913 . S
H296 C314 0.951 . S
H297 C316 0.951 . S
H298 C318 0.950 . S
H299 C319 0.950 . S
H300 C321 0.950 . S
H301 C324 0.950 . S
H302 C325 0.950 . S
H303 C327 0.950 . S
H304 C328 0.950 . S
H305 C329 0.951 . S
H306 C331 0.951 . S
H307 C333 0.950 1_556 S
H308 C334 0.950 1_556 S
H309 C336 0.950 . S
H310 C339 0.950 . S
H311 C340 0.950 . S
H312 C342 0.950 . S
H313 C343 0.950 . S
C314 H296 0.951 . S
C314 C315 1.366 1_556 S
C314 C316 1.388 . S
C315 C314 1.366 1_554 S
C315 C319 1.385 . S
C316 H297 0.951 . S
C316 C314 1.388 . S
C316 C317 1.366 1_556 S
C317 C316 1.366 1_554 S
C317 C318 1.414 . S
C317 C320 1.499 . S
C318 H298 0.950 . S
C318 C317 1.414 . S
C318 C319 1.374 . S
C319 H299 0.950 . S
C319 C315 1.385 . S
C319 C318 1.374 . S
C320 C317 1.499 . S
C320 C321 1.373 . S
C320 C322 1.389 1_554 S
C321 H300 0.950 . S
C321 C320 1.373 . S
C321 C337 1.377 . S
C322 C320 1.389 1_556 S
C322 C323 1.524 . S
C322 C336 1.377 . S
C323 C322 1.524 . S
C323 C324 1.397 . S
C323 C328 1.363 . S
C324 H301 0.950 . S
C324 C323 1.397 . S
C324 C325 1.334 . S
C325 H302 0.950 . S
C325 C324 1.334 . S
C325 C326 1.287 . S
C326 C325 1.287 . S
C326 C327 1.524 . S
C326 H345 0.913 . S
C327 H303 0.950 . S
C327 C326 1.524 . S
C327 C328 1.415 . S
C328 H304 0.950 . S
C328 C323 1.363 . S
C328 C327 1.415 . S
C329 H305 0.951 . S
C329 C330 1.366 . S
C329 C331 1.388 . S
C330 C329 1.366 . S
C330 C334 1.385 . S
C331 H306 0.951 . S
C331 C329 1.388 . S
C331 C332 1.366 . S
C332 C331 1.366 . S
C332 C333 1.414 . S
C332 C335 1.499 . S
C333 H307 0.950 1_554 S
C333 C332 1.414 . S
C333 C334 1.374 . S
C334 H308 0.950 1_554 S
C334 C330 1.385 . S
C334 C333 1.374 . S
C335 C332 1.499 . S
C335 C336 1.373 1_554 S
C335 C337 1.389 . S
C336 H309 0.950 . S
C336 C322 1.377 . S
C336 C335 1.373 1_556 S
C337 C321 1.377 . S
C337 C335 1.389 . S
C337 C338 1.524 . S
C338 C337 1.524 . S
C338 C339 1.397 . S
C338 C343 1.363 . S
C339 H310 0.950 . S
C339 C338 1.397 . S
C339 C340 1.334 . S
C340 H311 0.950 . S
C340 C339 1.334 . S
C340 C341 1.287 . S
C341 C340 1.287 . S
C341 C342 1.524 . S
C341 H344 0.999 . S
C342 H312 0.950 . S
C342 C341 1.524 . S
C342 C343 1.415 . S
C343 H313 0.950 . S
C343 C338 1.363 . S
C343 C342 1.415 . S
H344 C341 0.999 . S
H345 C326 0.913 . S
H346 C364 0.951 . S
H347 C366 0.951 . S
H348 C368 0.950 . S
H349 C369 0.950 . S
H350 C371 0.950 . S
H351 C374 0.950 . S
H352 C375 0.950 . S
H353 C377 0.950 . S
H354 C378 0.950 . S
H355 C379 0.951 . S
H356 C381 0.951 . S
H357 C383 0.950 . S
H358 C384 0.945 1_545 S
H359 C386 0.950 . S
H360 C389 0.950 . S
H361 C390 0.950 . S
H362 C392 0.950 . S
H363 C393 0.950 . S
C364 H346 0.951 . S
C364 C365 1.366 . S
C364 C366 1.388 . S
C365 C364 1.366 . S
C365 C369 1.385 . S
C366 H347 0.951 . S
C366 C364 1.388 . S
C366 C367 1.366 . S
C367 C366 1.366 . S
C367 C368 1.414 . S
C367 C370 1.499 . S
C368 H348 0.950 . S
C368 C367 1.414 . S
C368 C369 1.374 . S
C369 H349 0.950 . S
C369 C365 1.385 . S
C369 C368 1.374 . S
C370 C367 1.499 . S
C370 C371 1.373 . S
C370 C372 1.389 . S
C371 H350 0.950 . S
C371 C370 1.373 . S
C371 C387 1.377 . S
C372 C370 1.389 . S
C372 C373 1.524 . S
C372 C386 1.377 . S
C373 C372 1.524 . S
C373 C374 1.397 . S
C373 C378 1.363 . S
C374 H351 0.950 . S
C374 C373 1.397 . S
C374 C375 1.334 . S
C375 H352 0.950 . S
C375 C374 1.334 . S
C375 C376 1.287 . S
C376 C375 1.287 . S
C376 C377 1.524 . S
C376 H395 0.913 . S
C377 H353 0.950 . S
C377 C376 1.524 . S
C377 C378 1.415 . S
C378 H354 0.950 . S
C378 C373 1.363 . S
C378 C377 1.415 . S
C379 H355 0.951 . S
C379 C380 1.366 . S
C379 C381 1.388 . S
C380 C379 1.366 . S
C380 C384 1.385 . S
C381 H356 0.951 . S
C381 C379 1.388 . S
C381 C382 1.366 . S
C382 C381 1.366 . S
C382 C383 1.414 . S
C382 C385 1.499 . S
C383 H357 0.950 . S
C383 C382 1.414 . S
C383 C384 1.374 . S
C384 H358 0.945 1_565 S
C384 C380 1.385 . S
C384 C383 1.374 . S
C385 C382 1.499 . S
C385 C386 1.373 . S
C385 C387 1.389 . S
C386 H359 0.950 . S
C386 C372 1.377 . S
C386 C385 1.373 . S
C387 C371 1.377 . S
C387 C385 1.389 . S
C387 C388 1.524 . S
C388 C387 1.524 . S
C388 C389 1.397 . S
C388 C393 1.363 1_455 S
C389 H360 0.950 . S
C389 C388 1.397 . S
C389 C390 1.334 1_455 S
C390 H361 0.950 . S
C390 C389 1.334 1_655 S
C390 C391 1.287 . S
C391 C390 1.287 . S
C391 C392 1.524 . S
C391 H394 0.999 . S
C392 H362 0.950 . S
C392 C391 1.524 . S
C392 C393 1.415 . S
C393 H363 0.950 . S
C393 C388 1.363 1_655 S
C393 C392 1.415 . S
H394 C391 0.999 . S
H395 C376 0.913 . S
H396 C414 0.951 . S
H397 C416 0.951 . S
H398 C418 0.950 . S
H399 C419 0.950 . S
H400 C421 0.950 . S
H401 C424 0.950 1_545 S
H402 C425 0.950 . S
H403 C427 0.950 . S
H404 C428 0.950 . S
H405 C429 0.951 . S
H406 C431 0.951 . S
H407 C433 0.950 . S
H408 C434 0.950 . S
H409 C436 0.950 1_655 S
H410 C439 0.950 . S
H411 C440 0.950 . S
H412 C442 0.950 . S
H413 C443 0.950 . S
C414 H396 0.951 . S
C414 C415 1.366 . S
C414 C416 1.388 . S
C415 C414 1.366 . S
C415 C419 1.385 . S
C416 H397 0.951 . S
C416 C414 1.388 . S
C416 C417 1.366 . S
C417 C416 1.366 . S
C417 C418 1.414 . S
C417 C420 1.499 . S
C418 H398 0.950 . S
C418 C417 1.414 . S
C418 C419 1.374 . S
C419 H399 0.950 . S
C419 C415 1.385 . S
C419 C418 1.374 . S
C420 C417 1.499 . S
C420 C421 1.373 . S
C420 C422 1.389 . S
C421 H400 0.950 . S
C421 C420 1.373 . S
C421 C437 1.377 . S
C422 C420 1.389 . S
C422 C423 1.524 . S
C422 C436 1.377 . S
C423 C422 1.524 . S
C423 C424 1.397 1_545 S
C423 C428 1.363 1_445 S
C424 H401 0.950 1_565 S
C424 C423 1.397 1_565 S
C424 C425 1.334 . S
C425 H402 0.950 . S
C425 C424 1.334 . S
C425 C426 1.287 1_455 S
C426 C425 1.287 1_655 S
C426 C427 1.524 . S
C426 H445 0.913 . S
C427 H403 0.950 . S
C427 C426 1.524 . S
C427 C428 1.415 . S
C428 H404 0.950 . S
C428 C423 1.363 1_665 S
C428 C427 1.415 . S
C429 H405 0.951 . S
C429 C430 1.366 . S
C429 C431 1.388 . S
C430 C429 1.366 . S
C430 C434 1.385 1_455 S
C431 H406 0.951 . S
C431 C429 1.388 . S
C431 C432 1.366 . S
C432 C431 1.366 . S
C432 C433 1.414 1_455 S
C432 C435 1.499 . S
C433 H407 0.950 . S
C433 C432 1.414 1_655 S
C433 C434 1.374 . S
C434 H408 0.950 . S
C434 C430 1.385 1_655 S
C434 C433 1.374 . S
C435 C432 1.499 . S
C435 C436 1.373 . S
C435 C437 1.389 . S
C436 H409 0.950 1_455 S
C436 C422 1.377 . S
C436 C435 1.373 . S
C437 C421 1.377 . S
C437 C435 1.389 . S
C437 C438 1.524 . S
C438 C437 1.524 . S
C438 C439 1.397 . S
C438 C443 1.363 . S
C439 H410 0.950 . S
C439 C438 1.397 . S
C439 C440 1.334 . S
C440 H411 0.950 . S
C440 C439 1.334 . S
C440 C441 1.287 . S
C441 C440 1.287 . S
C441 C442 1.524 . S
C441 H444 0.999 . S
C442 H412 0.950 . S
C442 C441 1.524 . S
C442 C443 1.415 . S
C443 H413 0.950 . S
C443 C438 1.363 . S
C443 C442 1.415 . S
H444 C441 0.999 . S
H445 C426 0.913 . S
H446 C464 0.951 . S
H447 C466 0.951 . S
H448 C468 0.950 . S
H449 C469 0.950 . S
H450 C471 0.950 . S
H451 C474 0.950 . S
H452 C475 0.950 . S
H453 C477 0.950 . S
H454 C478 0.950 . S
H455 C479 0.951 . S
H456 C481 0.951 . S
H457 C483 0.950 . S
H458 C484 0.950 . S
H459 C486 0.950 . S
H460 C489 0.950 . S
H461 C490 0.950 . S
H462 C492 0.950 . S
H463 C493 0.952 . S
C464 H446 0.951 . S
C464 C465 1.366 . S
C464 C466 1.388 . S
C465 C464 1.366 . S
C465 C469 1.385 . S
C466 H447 0.951 . S
C466 C464 1.388 . S
C466 C467 1.366 . S
C467 C466 1.366 . S
C467 C468 1.414 . S
C467 C470 1.499 . S
C468 H448 0.950 . S
C468 C467 1.414 . S
C468 C469 1.374 . S
C469 H449 0.950 . S
C469 C465 1.385 . S
C469 C468 1.374 . S
C470 C467 1.499 . S
C470 C471 1.373 . S
C470 C472 1.389 . S
C471 H450 0.950 . S
C471 C470 1.373 . S
C471 C487 1.377 . S
C472 C470 1.389 . S
C472 C473 1.524 . S
C472 C486 1.377 . S
C473 C472 1.524 . S
C473 C474 1.397 . S
C473 C478 1.363 . S
C474 H451 0.950 . S
C474 C473 1.397 . S
C474 C475 1.334 . S
C475 H452 0.950 . S
C475 C474 1.334 . S
C475 C476 1.287 . S
C476 C475 1.287 . S
C476 C477 1.524 . S
C476 H495 0.913 . S
C477 H453 0.950 . S
C477 C476 1.524 . S
C477 C478 1.415 . S
C478 H454 0.950 . S
C478 C473 1.363 . S
C478 C477 1.415 . S
C479 H455 0.951 . S
C479 C480 1.366 . S
C479 C481 1.388 . S
C480 C479 1.366 . S
C480 C484 1.385 . S
C481 H456 0.951 . S
C481 C479 1.388 . S
C481 C482 1.366 . S
C482 C481 1.366 . S
C482 C483 1.414 . S
C482 C485 1.499 . S
C483 H457 0.950 . S
C483 C482 1.414 . S
C483 C484 1.374 . S
C484 H458 0.950 . S
C484 C480 1.385 . S
C484 C483 1.374 . S
C485 C482 1.499 . S
C485 C486 1.373 . S
C485 C487 1.389 . S
C486 H459 0.950 . S
C486 C472 1.377 . S
C486 C485 1.373 . S
C487 C471 1.377 . S
C487 C485 1.389 . S
C487 C488 1.524 1_545 S
C488 C487 1.524 1_565 S
C488 C489 1.397 . S
C488 C493 1.363 . S
C489 H460 0.950 . S
C489 C488 1.397 . S
C489 C490 1.334 . S
C490 H461 0.950 . S
C490 C489 1.334 . S
C490 C491 1.287 . S
C491 C490 1.287 . S
C491 C492 1.524 . S
C491 H494 0.999 . S
C492 H462 0.950 . S
C492 C491 1.524 . S
C492 C493 1.415 . S
C493 H463 0.952 . S
C493 C488 1.363 . S
C493 C492 1.415 . S
H494 C491 0.999 . S
H495 C476 0.913 . S
H496 C514 0.951 . S
H497 C516 0.951 . S
H498 C518 0.950 . S
H499 C519 0.950 . S
H500 C521 0.950 . S
H501 C524 0.950 . S
H502 C525 0.950 . S
H503 C527 0.950 . S
H504 C528 0.950 . S
H505 C529 0.951 . S
H506 C531 0.951 . S
H507 C533 0.950 . S
H508 C534 0.950 . S
H509 C536 0.950 . S
H510 C539 0.950 . S
H511 C540 0.950 . S
H512 C542 0.950 . S
H513 C543 0.950 . S
C514 H496 0.951 . S
C514 C515 1.366 1_545 S
C514 C516 1.388 . S
C515 C514 1.366 1_565 S
C515 C519 1.385 . S
C516 H497 0.951 . S
C516 C514 1.388 . S
C516 C517 1.366 1_545 S
C517 C516 1.366 1_565 S
C517 C518 1.414 . S
C517 C520 1.499 . S
C518 H498 0.950 . S
C518 C517 1.414 . S
C518 C519 1.374 . S
C519 H499 0.950 . S
C519 C515 1.385 . S
C519 C518 1.374 . S
C520 C517 1.499 . S
C520 C521 1.373 1_455 S
C520 C522 1.389 1_565 S
C521 H500 0.950 . S
C521 C520 1.373 1_655 S
C521 C537 1.377 . S
C522 C520 1.389 1_545 S
C522 C523 1.524 . S
C522 C536 1.377 . S
C523 C522 1.524 . S
C523 C524 1.397 . S
C523 C528 1.363 . S
C524 H501 0.950 . S
C524 C523 1.397 . S
C524 C525 1.334 . S
C525 H502 0.950 . S
C525 C524 1.334 . S
C525 C526 1.287 . S
C526 C525 1.287 . S
C526 C527 1.524 . S
C526 H545 0.913 . S
C527 H503 0.950 . S
C527 C526 1.524 . S
C527 C528 1.415 . S
C528 H504 0.950 . S
C528 C523 1.363 . S
C528 C527 1.415 . S
C529 H505 0.951 . S
C529 C530 1.366 1_565 S
C529 C531 1.388 . S
C530 C529 1.366 1_545 S
C530 C534 1.385 . S
C531 H506 0.951 . S
C531 C529 1.388 . S
C531 C532 1.366 1_565 S
C532 C531 1.366 1_545 S
C532 C533 1.414 . S
C532 C535 1.499 . S
C533 H507 0.950 . S
C533 C532 1.414 . S
C533 C534 1.374 . S
C534 H508 0.950 . S
C534 C530 1.385 . S
C534 C533 1.374 . S
C535 C532 1.499 . S
C535 C536 1.373 1_655 S
C535 C537 1.389 1_545 S
C536 H509 0.950 . S
C536 C522 1.377 . S
C536 C535 1.373 1_455 S
C537 C521 1.377 . S
C537 C535 1.389 1_565 S
C537 C538 1.524 . S
C538 C537 1.524 . S
C538 C539 1.397 . S
C538 C543 1.363 . S
C539 H510 0.950 . S
C539 C538 1.397 . S
C539 C540 1.334 . S
C540 H511 0.950 . S
C540 C539 1.334 . S
C540 C541 1.287 . S
C541 C540 1.287 . S
C541 C542 1.524 . S
C541 H544 0.999 . S
C542 H512 0.950 . S
C542 C541 1.524 . S
C542 C543 1.415 . S
C543 H513 0.950 . S
C543 C538 1.363 . S
C543 C542 1.415 . S
H544 C541 0.999 . S
H545 C526 0.913 . S
C115 C6 1.095 . S
C130 C4 1.099 . S
C165 C38 1.095 . S
C180 C36 1.099 1_655 S
C215 C66 1.095 . S
C230 C93 1.099 . S
C265 C68 1.099 . S
C280 C70 1.095 . S
C315 C2 1.095 . S
C330 C29 1.099 . S
C365 C34 1.095 . S
C380 C61 1.099 1_565 S
C415 N50 1.570 . S
C430 N13 1.570 . S
C465 N45 1.570 . S
C480 N77 1.570 . S
C515 N82 1.570 . S
C530 N18 1.569 . S
