# Generated by pormake.
# Topology uog, (4)-cn, num edge types: 1
# Building blocks:
#     Node 0, Type 0, BuildingBlock: CEKHIL_clean_sbu_0, # of connection points: 4
#     Node 1, Type 0, BuildingBlock: CEKHIL_clean_sbu_0, # of connection points: 4
#     Node 2, Type 0, BuildingBlock: CEKHIL_clean_sbu_0, # of connection points: 4
#     Node 3, Type 0, BuildingBlock: CEKHIL_clean_sbu_0, # of connection points: 4
#     Node 4, Type 0, BuildingBlock: CEKHIL_clean_sbu_0, # of connection points: 4
#     Node 5, Type 0, BuildingBlock: CEKHIL_clean_sbu_0, # of connection points: 4
#     Edge 6, Type (0, 0), BuildingBlock: FUNLAD_clean_linker_0, # of connection points: 2
#     Edge 7, Type (0, 0), BuildingBlock: FUNLAD_clean_linker_0, # of connection points: 2
#     Edge 8, Type (0, 0), BuildingBlock: FUNLAD_clean_linker_0, # of connection points: 2
#     Edge 9, Type (0, 0), BuildingBlock: FUNLAD_clean_linker_0, # of connection points: 2
#     Edge 10, Type (0, 0), BuildingBlock: FUNLAD_clean_linker_0, # of connection points: 2
#     Edge 11, Type (0, 0), BuildingBlock: FUNLAD_clean_linker_0, # of connection points: 2
#     Edge 12, Type (0, 0), BuildingBlock: FUNLAD_clean_linker_0, # of connection points: 2
#     Edge 13, Type (0, 0), BuildingBlock: FUNLAD_clean_linker_0, # of connection points: 2
#     Edge 14, Type (0, 0), BuildingBlock: FUNLAD_clean_linker_0, # of connection points: 2
#     Edge 15, Type (0, 0), BuildingBlock: FUNLAD_clean_linker_0, # of connection points: 2
#     Edge 16, Type (0, 0), BuildingBlock: FUNLAD_clean_linker_0, # of connection points: 2
#     Edge 17, Type (0, 0), BuildingBlock: FUNLAD_clean_linker_0, # of connection points: 2
# Relax obj value: 0.072
# Max RMSD: 0.169
# Mean RMSD: 0.169
data_MOF--net-uog--node1-CEKHIL_clean_sbu_0--edge1-FUNLAD_clean_linker_0
_symmetry_space_group_name_H-M    P1
_symmetry_Int_Tables_number       1
_symmetry_cell_setting            triclinic
loop_
_symmetry_equiv_pos_as_xyz
'x, y, z'
_cell_length_a     32.881981
_cell_length_b     32.792918
_cell_length_c     49.600706
_cell_angle_alpha  90.067421
_cell_angle_beta   89.758696
_cell_angle_gamma 120.09084
loop_
_atom_site_label
_atom_site_type_symbol
_atom_site_fract_x
_atom_site_fract_y
_atom_site_fract_z
_atom_type_partial_charge
Co0 Co 0.60632 0.29397 0.16019 0.0
O1 O 0.61451 0.24036 0.15808 0.0
O2 O 0.55131 0.24096 0.14369 0.0
C3 C 0.62929 0.31165 0.20315 0.0
O4 O 0.58709 0.3447 0.16044 0.0
Co5 Co 0.69551 0.39017 0.16735 0.0
O6 O 0.64956 0.41017 0.17668 0.0
C7 C 0.67346 0.34854 0.11357 0.0
C8 C 0.57361 0.21775 0.14694 0.0
C9 C 0.60657 0.38728 0.16962 0.0
O10 O 0.63558 0.31473 0.12364 0.0
O11 O 0.70452 0.38218 0.12787 0.0
O12 O 0.5864 0.28018 0.19728 0.0
O13 O 0.65862 0.32764 0.18306 0.0
Co14 Co 0.30968 0.60226 0.49143 0.0
O15 O 0.37203 0.61206 0.49087 0.0
O16 O 0.31054 0.54954 0.4735 0.0
C17 C 0.3098 0.62092 0.53488 0.0
O18 O 0.23971 0.58194 0.48943 0.0
Co19 Co 0.30114 0.69049 0.50037 0.0
O20 O 0.23341 0.6436 0.50405 0.0
C21 C 0.32736 0.67427 0.44688 0.0
C22 C 0.35571 0.57266 0.47802 0.0
C23 C 0.21491 0.60087 0.49635 0.0
O24 O 0.32143 0.63502 0.45584 0.0
O25 O 0.32428 0.70434 0.46194 0.0
O26 O 0.2998 0.57874 0.52798 0.0
O27 O 0.32498 0.65209 0.51576 0.0
Co28 Co 0.7277 0.31665 0.82501 0.0
O29 O 0.78261 0.37777 0.82558 0.0
O30 O 0.77983 0.31509 0.80693 0.0
C31 C 0.7084 0.31558 0.86844 0.0
O32 O 0.67506 0.24737 0.82187 0.0
Co33 Co 0.63292 0.31236 0.8339 0.0
O34 O 0.61099 0.24486 0.84011 0.0
C35 C 0.67846 0.34213 0.78133 0.0
C36 C 0.80391 0.36013 0.81214 0.0
C37 C 0.63254 0.22439 0.83116 0.0
O38 O 0.70981 0.33308 0.78985 0.0
O39 O 0.64456 0.33806 0.79603 0.0
O40 O 0.73911 0.30373 0.86133 0.0
O41 O 0.6944 0.33296 0.84956 0.0
Co42 Co 0.41247 0.71941 0.15808 0.0
O43 O 0.40657 0.7744 0.15944 0.0
O44 O 0.4676 0.77293 0.14176 0.0
C45 C 0.39075 0.69828 0.20121 0.0
O46 O 0.42912 0.66711 0.15438 0.0
Co47 Co 0.32065 0.62468 0.16412 0.0
O48 O 0.36306 0.59826 0.16335 0.0
C49 C 0.34126 0.67315 0.11232 0.0
C50 C 0.44685 0.79698 0.14744 0.0
C51 C 0.40671 0.6219 0.15758 0.0
O52 O 0.38135 0.7033 0.12196 0.0
O53 O 0.30929 0.63986 0.12652 0.0
O54 O 0.43386 0.72887 0.19495 0.0
O55 O 0.361 0.68491 0.1815 0.0
Co56 Co 0.68241 0.40178 0.49063 0.0
O57 O 0.61868 0.38793 0.49285 0.0
O58 O 0.67506 0.45004 0.4718 0.0
C59 C 0.68843 0.38893 0.53459 0.0
O60 O 0.75314 0.42666 0.48546 0.0
Co61 Co 0.70038 0.31977 0.50143 0.0
O62 O 0.76706 0.36933 0.49932 0.0
C63 C 0.66578 0.32651 0.4485 0.0
C64 C 0.63089 0.42554 0.47882 0.0
C65 C 0.78125 0.41081 0.49052 0.0
O66 O 0.66743 0.36454 0.45639 0.0
O67 O 0.67616 0.3015 0.4636 0.0
O68 O 0.6953 0.42939 0.52621 0.0
O69 O 0.67359 0.35591 0.51657 0.0
Co70 Co 0.30199 0.69327 0.82185 0.0
O71 O 0.25294 0.62905 0.82535 0.0
O72 O 0.24503 0.68368 0.80393 0.0
C73 C 0.32339 0.7024 0.86546 0.0
O74 O 0.34666 0.76404 0.81527 0.0
Co75 Co 0.40305 0.71363 0.83089 0.0
O76 O 0.41985 0.77998 0.82603 0.0
C77 C 0.35896 0.67582 0.77887 0.0
C78 C 0.22635 0.63984 0.81161 0.0
C79 C 0.39116 0.79285 0.81823 0.0
O80 O 0.32291 0.67733 0.78743 0.0
O81 O 0.39514 0.68718 0.7934 0.0
O82 O 0.28877 0.70763 0.85746 0.0
O83 O 0.34107 0.68709 0.84736 0.0
C84 C 0.58371 0.14801 0.14104 0.0
C85 C 0.55456 0.16785 0.13907 0.0
C86 C 0.56629 0.10025 0.13613 0.0
C87 C 0.51905 0.07077 0.12884 0.0
C88 C 0.49015 0.0909 0.12603 0.0
C89 C 0.50774 0.13904 0.131 0.0
C90 C 0.49769 0.01857 0.12686 0.0
C91 C 0.52268 0.99602 0.12572 0.0
C92 C 0.50153 0.94417 0.12956 0.0
C93 C 0.52699 0.92196 0.12181 0.0
C94 C 0.50957 0.87397 0.12726 0.0
C95 C 0.46647 0.84747 0.14076 0.0
H96 H 0.43827 0.93291 0.15035 0.0
C97 C 0.44109 0.86972 0.14837 0.0
C98 C 0.45838 0.9173 0.14301 0.0
H99 H 0.40786 0.85055 0.15898 0.0
H100 H 0.62008 0.16918 0.14714 0.0
H101 H 0.58982 0.08669 0.13925 0.0
H102 H 0.45349 0.06907 0.12066 0.0
H103 H 0.48442 0.15328 0.12932 0.0
H104 H 0.45959 0.99803 0.12737 0.0
H105 H 0.56039 0.01602 0.12257 0.0
H106 H 0.56069 0.94192 0.11176 0.0
H107 H 0.52994 0.85785 0.12117 0.0
C108 C 0.37354 0.50995 0.46214 0.0
C109 C 0.38861 0.55698 0.46889 0.0
C110 C 0.40662 0.49601 0.45611 0.0
C111 C 0.45529 0.5291 0.45666 0.0
C112 C 0.46972 0.57641 0.46189 0.0
C113 C 0.43696 0.59012 0.4681 0.0
C114 C 0.49254 0.51622 0.45323 0.0
C115 C 0.48583 0.4731 0.45885 0.0
C116 C 0.52435 0.46173 0.46136 0.0
C117 C 0.51306 0.41859 0.47333 0.0
C118 C 0.54772 0.40709 0.47844 0.0
C119 C 0.59496 0.43832 0.47163 0.0
H120 H 0.582 0.52574 0.44372 0.0
C121 C 0.6065 0.48088 0.45873 0.0
C122 C 0.57153 0.49254 0.45358 0.0
H123 H 0.64251 0.50542 0.45299 0.0
H124 H 0.33647 0.48379 0.4623 0.0
H125 H 0.39387 0.45941 0.4513 0.0
H126 H 0.50674 0.60281 0.46217 0.0
H127 H 0.44981 0.62687 0.47274 0.0
H128 H 0.52773 0.54488 0.44898 0.0
H129 H 0.45083 0.44542 0.46453 0.0
H130 H 0.47725 0.3939 0.47941 0.0
H131 H 0.5373 0.37368 0.48815 0.0
C132 C 0.88503 0.37641 0.7992 0.0
C133 C 0.85242 0.39175 0.80252 0.0
C134 C 0.93223 0.40906 0.79314 0.0
C135 C 0.94715 0.45736 0.78998 0.0
C136 C 0.91367 0.47175 0.79166 0.0
C137 C 0.86707 0.43951 0.79814 0.0
C138 C 0.99725 0.49433 0.78606 0.0
C139 C 0.03299 0.49136 0.79713 0.0
C140 C 0.08291 0.53056 0.79794 0.0
C141 C 0.11655 0.52016 0.80785 0.0
C142 C 0.163 0.55566 0.81158 0.0
C143 C 0.1774 0.60288 0.80551 0.0
H144 H 0.07295 0.58794 0.78374 0.0
C145 C 0.14439 0.61358 0.79481 0.0
C146 C 0.09748 0.57782 0.79113 0.0
H147 H 0.15445 0.64964 0.78997 0.0
H148 H 0.87452 0.33972 0.80228 0.0
H149 H 0.95688 0.39649 0.7912 0.0
H150 H 0.92395 0.50849 0.78905 0.0
H151 H 0.84252 0.45226 0.80014 0.0
H152 H 1.00396 0.52648 0.77604 0.0
H153 H 0.0251 0.45911 0.80759 0.0
H154 H 0.10671 0.48437 0.8133 0.0
H155 H 0.18753 0.54596 0.81968 0.0
C156 C 0.13629 0.59488 0.50188 0.0
C157 C 0.16274 0.57362 0.49433 0.0
C158 C 0.0875 0.57103 0.49908 0.0
C159 C 0.06359 0.52512 0.48853 0.0
C160 C 0.08974 0.50336 0.48152 0.0
C161 C 0.1388 0.52737 0.48424 0.0
C162 C 0.01141 0.49815 0.48591 0.0
C163 C 0.98438 0.51838 0.4836 0.0
C164 C 0.93189 0.49123 0.48269 0.0
C165 C 0.90644 0.51418 0.48886 0.0
C166 C 0.8571 0.48891 0.49021 0.0
C167 C 0.83244 0.44016 0.48552 0.0
H168 H 0.92419 0.4241 0.47005 0.0
C169 C 0.85775 0.41787 0.47788 0.0
C170 C 0.90666 0.44301 0.47623 0.0
H171 H 0.83962 0.38046 0.47349 0.0
H172 H 0.15322 0.63028 0.51001 0.0
H173 H 0.06879 0.58855 0.50572 0.0
H174 H 0.07218 0.46774 0.47367 0.0
H175 H 0.1579 0.50983 0.47827 0.0
H176 H 0.99519 0.4601 0.48618 0.0
H177 H 1.00098 0.55651 0.48321 0.0
H178 H 0.92482 0.55147 0.49351 0.0
H179 H 0.8385 0.50702 0.49606 0.0
C180 C 0.39921 0.87231 0.82525 0.0
C181 C 0.41212 0.84319 0.81141 0.0
C182 C 0.42692 0.92152 0.823 0.0
C183 C 0.46769 0.94214 0.80667 0.0
C184 C 0.47826 0.91266 0.79137 0.0
C185 C 0.45119 0.86375 0.794 0.0
C186 C 0.50087 0.99394 0.80578 0.0
C187 C 0.50976 0.02169 0.82757 0.0
C188 C 0.5441 0.07333 0.82819 0.0
C189 C 0.53907 0.09999 0.84866 0.0
C190 C 0.56904 0.1486 0.84998 0.0
C191 C 0.6055 0.17211 0.83106 0.0
H192 H 0.58777 0.077 0.7941 0.0
C193 C 0.61225 0.14542 0.81121 0.0
C194 C 0.58169 0.09642 0.8097 0.0
H195 H 0.64003 0.16255 0.79637 0.0
H196 H 0.36943 0.85719 0.83894 0.0
H197 H 0.41694 0.94327 0.83445 0.0
H198 H 0.50902 0.9275 0.77841 0.0
H199 H 0.46188 0.8419 0.7832 0.0
H200 H 0.52031 0.00864 0.7872 0.0
H201 H 0.49045 1.00598 0.84609 0.0
H202 H 0.51103 0.08329 0.86342 0.0
H203 H 0.56312 0.168 0.86573 0.0
C204 C 0.47767 0.61193 0.16183 0.0
C205 C 0.43097 0.59455 0.15373 0.0
C206 C 0.49775 0.58293 0.16058 0.0
C207 C 0.47158 0.53638 0.15078 0.0
C208 C 0.42587 0.52016 0.14143 0.0
C209 C 0.4056 0.54862 0.14319 0.0
C210 C 0.49055 0.50365 0.14996 0.0
C211 C 0.51946 0.50343 0.16904 0.0
C212 C 0.53838 0.47049 0.16953 0.0
C213 C 0.57677 0.48184 0.18634 0.0
C214 C 0.59744 0.45372 0.18698 0.0
C215 C 0.58014 0.413 0.17092 0.0
H216 H 0.48914 0.41754 0.14157 0.0
C217 C 0.54031 0.40013 0.15494 0.0
C218 C 0.5196 0.4286 0.1542 0.0
H219 H 0.52603 0.36891 0.14242 0.0
H220 H 0.49802 0.64721 0.16995 0.0
H221 H 0.53363 0.59698 0.16724 0.0
H222 H 0.40518 0.48477 0.1335 0.0
H223 H 0.36968 0.53441 0.13647 0.0
H224 H 0.47819 0.47774 0.13391 0.0
H225 H 0.53045 0.52922 0.18519 0.0
H226 H 0.59165 0.51333 0.19868 0.0
H227 H 0.62773 0.4645 0.19981 0.0
C228 C 0.68303 0.34489 0.90807 0.0
C229 C 0.69382 0.31216 0.89679 0.0
C230 C 0.67569 0.34494 0.93591 0.0
C231 C 0.67823 0.31164 0.95264 0.0
C232 C 0.68637 0.27741 0.941 0.0
C233 C 0.69474 0.27805 0.91341 0.0
C234 C 0.67238 0.3112 0.98225 0.0
C235 C 0.68814 0.35069 -0.00293 0.0
C236 C 0.68478 0.34955 0.02697 0.0
C237 C 0.71794 0.38822 0.04206 0.0
C238 C 0.71537 0.38778 0.07028 0.0
C239 C 0.67917 0.34877 0.08388 0.0
H240 H 0.62141 0.28088 0.02975 0.0
C241 C 0.64598 0.31023 0.06864 0.0
C242 C 0.64856 0.31071 0.04061 0.0
H243 H 0.61729 0.27965 0.0783 0.0
H244 H 0.68215 0.37151 0.89558 0.0
H245 H 0.66821 0.37099 0.94428 0.0
H246 H 0.68785 0.25103 0.95344 0.0
H247 H 0.70264 0.2522 0.90511 0.0
H248 H 0.65843 0.27734 -0.00772 0.0
H249 H 0.7066 0.38488 -0.01279 0.0
H250 H 0.74602 0.41874 0.032 0.0
H251 H 0.74122 0.41822 0.08136 0.0
C252 C 0.41021 0.71066 0.24996 0.0
C253 C 0.37638 0.68785 0.22975 0.0
C254 C 0.39715 0.7051 0.27703 0.0
C255 C 0.34989 0.67637 0.28458 0.0
C256 C 0.31622 0.65193 0.26453 0.0
C257 C 0.32926 0.65796 0.23725 0.0
C258 C 0.33576 0.66975 0.31336 0.0
C259 C 0.35786 0.70404 0.33188 0.0
C260 C 0.34829 0.69597 0.3612 0.0
C261 C 0.35604 0.73362 0.3781 0.0
C262 C 0.34921 0.72701 0.40602 0.0
C263 C 0.33546 0.68279 0.41751 0.0
H264 H 0.32994 0.62247 0.3605 0.0
C265 C 0.32841 0.64542 0.40049 0.0
C266 C 0.33468 0.65189 0.37274 0.0
H267 H 0.31785 0.6108 0.40854 0.0
H268 H 0.44692 0.73361 0.2449 0.0
H269 H 0.42428 0.72299 0.29202 0.0
H270 H 0.27969 0.62889 0.26994 0.0
H271 H 0.30251 0.6398 0.22209 0.0
H272 H 0.30622 0.6359 0.31933 0.0
H273 H 0.38401 0.73931 0.32542 0.0
H274 H 0.36724 0.76814 0.36967 0.0
H275 H 0.35505 0.75652 0.41855 0.0
C276 C 0.64259 0.34167 0.73672 0.0
C277 C 0.6825 0.35705 0.75297 0.0
C278 C 0.64766 0.35096 0.70898 0.0
C279 C 0.69274 0.37644 0.69729 0.0
C280 C 0.73238 0.39386 0.71386 0.0
C281 C 0.72737 0.38375 0.74135 0.0
C282 C 0.69985 0.38601 0.66799 0.0
C283 C 0.67192 0.35489 0.64927 0.0
C284 C 0.67991 0.3642 0.61987 0.0
C285 C 0.66304 0.32611 0.60183 0.0
C286 C 0.66777 0.33389 0.57394 0.0
C287 C 0.68891 0.37997 0.56368 0.0
H288 H 0.71451 0.44062 0.62258 0.0
C289 C 0.70671 0.41804 0.58173 0.0
C290 C 0.70213 0.41032 0.60948 0.0
H291 H 0.72298 0.45399 0.57443 0.0
H292 H 0.60766 0.32096 0.74524 0.0
H293 H 0.61643 0.33818 0.69674 0.0
H294 H 0.76741 0.41409 0.70537 0.0
H295 H 0.75873 0.39631 0.7535 0.0
H296 H 0.73126 0.41816 0.66178 0.0
H297 H 0.64341 0.32067 0.65563 0.0
H298 H 0.64563 0.29023 0.60931 0.0
H299 H 0.65345 0.30388 0.56047 0.0
C300 C 0.30891 0.71567 0.91304 0.0
C301 C 0.33462 0.70506 0.89442 0.0
C302 C 0.31501 0.71338 0.94065 0.0
C303 C 0.3471 0.70055 0.95032 0.0
C304 C 0.37458 0.69225 0.93177 0.0
C305 C 0.36813 0.69408 0.90399 0.0
C306 C 0.35313 0.69679 0.97963 0.0
C307 C 0.31735 0.6826 -0.00261 0.0
C308 C 0.32349 0.68066 0.02686 0.0
C309 C 0.28578 0.64771 0.04273 0.0
C310 C 0.29096 0.64529 0.07061 0.0
C311 C 0.33379 0.67641 0.08313 0.0
H312 H 0.39511 0.73942 0.02805 0.0
C313 C 0.37093 0.71035 0.06722 0.0
C314 C 0.36587 0.71243 0.03948 0.0
H315 H 0.40438 0.73528 0.0761 0.0
H316 H 0.28319 0.72481 0.90632 0.0
H317 H 0.29457 0.72179 0.95437 0.0
H318 H 0.40014 0.68309 0.93879 0.0
H319 H 0.3886 0.686 0.89009 0.0
H320 H 0.38745 0.70409 -0.01346 0.0
H321 H 0.28198 0.67048 -0.00991 0.0
H322 H 0.2525 0.6233 0.03348 0.0
H323 H 0.2616 0.61891 0.08225 0.0
C324 C 0.68233 0.30352 0.40356 0.0
C325 C 0.65364 0.31345 0.42012 0.0
C326 C 0.67562 0.29979 0.3756 0.0
C327 C 0.63947 0.30497 0.36406 0.0
C328 C 0.60924 0.31213 0.38087 0.0
C329 C 0.61676 0.31718 0.4086 0.0
C330 C 0.63217 0.30341 0.33462 0.0
C331 C 0.66779 0.32427 0.3167 0.0
C332 C 0.65988 0.32653 0.28735 0.0
C333 C 0.69479 0.33237 0.26871 0.0
C334 C 0.68651 0.33081 0.24091 0.0
C335 C 0.64308 0.32322 0.2315 0.0
H336 H 0.59127 0.32113 0.29107 0.0
C337 C 0.60957 0.32061 0.25003 0.0
C338 C 0.61803 0.32287 0.2776 0.0
H339 H 0.57612 0.31563 0.24317 0.0
H340 H 0.7113 0.30102 0.41206 0.0
H341 H 0.6988 0.29327 0.36307 0.0
H342 H 0.58091 0.31581 0.3724 0.0
H343 H 0.59439 0.32508 0.42103 0.0
H344 H 0.59599 0.28714 0.32794 0.0
H345 H 0.70384 0.34013 0.32371 0.0
H346 H 0.72776 0.33629 0.27566 0.0
H347 H 0.71286 0.33287 0.22693 0.0
C348 C 0.31627 0.63563 0.73707 0.0
C349 C 0.35915 0.66444 0.75012 0.0
C350 C 0.31436 0.63164 0.70908 0.0
C351 C 0.35527 0.65732 0.69337 0.0
C352 C 0.39864 0.68354 0.70656 0.0
C353 C 0.40063 0.68706 0.73472 0.0
C354 C 0.35387 0.65774 0.66338 0.0
C355 C 0.31456 0.64647 0.64938 0.0
C356 C 0.31262 0.64361 0.61964 0.0
C357 C 0.27325 0.60587 0.60758 0.0
C358 C 0.27163 0.59977 0.57971 0.0
C359 C 0.30858 0.63229 0.56337 0.0
H360 H 0.37933 0.70717 0.61208 0.0
C361 C 0.34672 0.67179 0.57516 0.0
C362 C 0.34903 0.67717 0.60323 0.0
H363 H 0.37577 0.69703 0.56285 0.0
H364 H 0.28383 0.61714 0.74852 0.0
H365 H 0.28052 0.60886 0.70002 0.0
H366 H 0.43084 0.70289 0.69501 0.0
H367 H 0.43416 0.70962 0.74428 0.0
H368 H 0.38638 0.66809 0.65249 0.0
H369 H 0.28167 0.63599 0.65974 0.0
H370 H 0.24461 0.57989 0.61984 0.0
H371 H 0.24194 0.569 0.57095 0.0
loop_
_geom_bond_atom_site_label_1
_geom_bond_atom_site_label_2
_geom_bond_distance
_geom_bond_site_symmetry_2
_ccdc_geom_bond_type
Co0 O1 2.216 . S
Co0 O2 2.091 . S
Co0 O4 2.004 . S
Co0 O10 2.021 . S
Co0 O12 2.137 . S
Co0 O13 2.244 . S
O1 Co0 2.216 . S
O1 C8 1.247 . S
O2 Co0 2.091 . S
O2 C8 1.261 . S
C3 O12 1.247 . S
C3 O13 1.272 . S
O4 Co0 2.004 . S
O4 C9 1.259 . S
Co5 O6 2.061 . S
Co5 O11 2.052 . S
Co5 O13 2.135 . S
O6 Co5 2.061 . S
O6 C9 1.235 . S
C7 O10 1.238 . S
C7 O11 1.241 . S
C8 O1 1.247 . S
C8 O2 1.261 . S
C9 O4 1.259 . S
C9 O6 1.235 . S
O10 Co0 2.021 . S
O10 C7 1.238 . S
O11 Co5 2.052 . S
O11 C7 1.241 . S
O12 Co0 2.137 . S
O12 C3 1.247 . S
O13 Co0 2.244 . S
O13 C3 1.272 . S
O13 Co5 2.135 . S
Co14 O15 2.216 . S
Co14 O16 2.091 . S
Co14 O18 2.004 . S
Co14 O24 2.021 . S
Co14 O26 2.137 . S
Co14 O27 2.244 . S
O15 Co14 2.216 . S
O15 C22 1.247 . S
O16 Co14 2.091 . S
O16 C22 1.261 . S
C17 O26 1.247 . S
C17 O27 1.272 . S
O18 Co14 2.004 . S
O18 C23 1.259 . S
Co19 O20 2.061 . S
Co19 O25 2.052 . S
Co19 O27 2.135 . S
O20 Co19 2.061 . S
O20 C23 1.235 . S
C21 O24 1.238 . S
C21 O25 1.241 . S
C22 O15 1.247 . S
C22 O16 1.261 . S
C23 O18 1.259 . S
C23 O20 1.235 . S
O24 Co14 2.021 . S
O24 C21 1.238 . S
O25 Co19 2.052 . S
O25 C21 1.241 . S
O26 Co14 2.137 . S
O26 C17 1.247 . S
O27 Co14 2.244 . S
O27 C17 1.272 . S
O27 Co19 2.135 . S
Co28 O29 2.216 . S
Co28 O30 2.091 . S
Co28 O32 2.004 . S
Co28 O38 2.021 . S
Co28 O40 2.137 . S
Co28 O41 2.244 . S
O29 Co28 2.216 . S
O29 C36 1.247 . S
O30 Co28 2.091 . S
O30 C36 1.261 . S
C31 O40 1.247 . S
C31 O41 1.272 . S
O32 Co28 2.004 . S
O32 C37 1.259 . S
Co33 O34 2.061 . S
Co33 O39 2.052 . S
Co33 O41 2.135 . S
O34 Co33 2.061 . S
O34 C37 1.235 . S
C35 O38 1.238 . S
C35 O39 1.241 . S
C36 O29 1.247 . S
C36 O30 1.261 . S
C37 O32 1.259 . S
C37 O34 1.235 . S
O38 Co28 2.021 . S
O38 C35 1.238 . S
O39 Co33 2.052 . S
O39 C35 1.241 . S
O40 Co28 2.137 . S
O40 C31 1.247 . S
O41 Co28 2.244 . S
O41 C31 1.272 . S
O41 Co33 2.135 . S
Co42 O43 2.216 . S
Co42 O44 2.091 . S
Co42 O46 2.004 . S
Co42 O52 2.021 . S
Co42 O54 2.137 . S
Co42 O55 2.244 . S
O43 Co42 2.216 . S
O43 C50 1.247 . S
O44 Co42 2.091 . S
O44 C50 1.261 . S
C45 O54 1.247 . S
C45 O55 1.272 . S
O46 Co42 2.004 . S
O46 C51 1.259 . S
Co47 O48 2.061 . S
Co47 O53 2.052 . S
Co47 O55 2.135 . S
O48 Co47 2.061 . S
O48 C51 1.235 . S
C49 O52 1.238 . S
C49 O53 1.241 . S
C50 O43 1.247 . S
C50 O44 1.261 . S
C51 O46 1.259 . S
C51 O48 1.235 . S
O52 Co42 2.021 . S
O52 C49 1.238 . S
O53 Co47 2.052 . S
O53 C49 1.241 . S
O54 Co42 2.137 . S
O54 C45 1.247 . S
O55 Co42 2.244 . S
O55 C45 1.272 . S
O55 Co47 2.135 . S
Co56 O57 2.216 . S
Co56 O58 2.091 . S
Co56 O60 2.004 . S
Co56 O66 2.021 . S
Co56 O68 2.137 . S
Co56 O69 2.244 . S
O57 Co56 2.216 . S
O57 C64 1.247 . S
O58 Co56 2.091 . S
O58 C64 1.261 . S
C59 O68 1.247 . S
C59 O69 1.272 . S
O60 Co56 2.004 . S
O60 C65 1.259 . S
Co61 O62 2.061 . S
Co61 O67 2.052 . S
Co61 O69 2.135 . S
O62 Co61 2.061 . S
O62 C65 1.235 . S
C63 O66 1.238 . S
C63 O67 1.241 . S
C64 O57 1.247 . S
C64 O58 1.261 . S
C65 O60 1.259 . S
C65 O62 1.235 . S
O66 Co56 2.021 . S
O66 C63 1.238 . S
O67 Co61 2.052 . S
O67 C63 1.241 . S
O68 Co56 2.137 . S
O68 C59 1.247 . S
O69 Co56 2.244 . S
O69 C59 1.272 . S
O69 Co61 2.135 . S
Co70 O71 2.216 . S
Co70 O72 2.091 . S
Co70 O74 2.004 . S
Co70 O80 2.021 . S
Co70 O82 2.137 . S
Co70 O83 2.244 . S
O71 Co70 2.216 . S
O71 C78 1.247 . S
O72 Co70 2.091 . S
O72 C78 1.261 . S
C73 O82 1.247 . S
C73 O83 1.272 . S
O74 Co70 2.004 . S
O74 C79 1.259 . S
Co75 O76 2.061 . S
Co75 O81 2.052 . S
Co75 O83 2.135 . S
O76 Co75 2.061 . S
O76 C79 1.235 . S
C77 O80 1.238 . S
C77 O81 1.241 . S
C78 O71 1.247 . S
C78 O72 1.261 . S
C79 O74 1.259 . S
C79 O76 1.235 . S
O80 Co70 2.021 . S
O80 C77 1.238 . S
O81 Co75 2.052 . S
O81 C77 1.241 . S
O82 Co70 2.137 . S
O82 C73 1.247 . S
O83 Co70 2.244 . S
O83 C73 1.272 . S
O83 Co75 2.135 . S
C84 C85 1.386 . S
C84 C86 1.383 . S
C84 H100 0.951 . S
C85 C84 1.386 . S
C85 C89 1.383 . S
C86 C84 1.383 . S
C86 C87 1.402 . S
C86 H101 0.951 . S
C87 C86 1.402 . S
C87 C88 1.375 . S
C87 C90 1.481 . S
C88 C87 1.375 . S
C88 C89 1.367 . S
C88 H102 0.951 . S
C89 C85 1.383 . S
C89 C88 1.367 . S
C89 H103 0.950 . S
C90 C87 1.481 . S
C90 C91 1.297 1_545 S
C90 H104 0.949 1_545 S
C91 C90 1.297 1_565 S
C91 C92 1.479 . S
C91 H105 0.950 1_565 S
C92 C91 1.479 . S
C92 C93 1.375 . S
C92 C98 1.404 . S
C93 C92 1.375 . S
C93 C94 1.369 . S
C93 H106 0.950 . S
C94 C93 1.369 . S
C94 C95 1.392 . S
C94 H107 0.951 . S
C95 C94 1.392 . S
C95 C97 1.384 . S
H96 C98 0.949 . S
C97 C95 1.384 . S
C97 C98 1.385 . S
C97 H99 0.950 . S
C98 C92 1.404 . S
C98 H96 0.949 . S
C98 C97 1.385 . S
H99 C97 0.950 . S
H100 C84 0.951 . S
H101 C86 0.951 . S
H102 C88 0.951 . S
H103 C89 0.950 . S
H104 C90 0.949 1_565 S
H105 C91 0.950 1_545 S
H106 C93 0.950 . S
H107 C94 0.951 . S
C108 C109 1.386 . S
C108 C110 1.383 . S
C108 H124 0.951 . S
C109 C108 1.386 . S
C109 C113 1.383 . S
C110 C108 1.383 . S
C110 C111 1.402 . S
C110 H125 0.951 . S
C111 C110 1.402 . S
C111 C112 1.375 . S
C111 C114 1.481 . S
C112 C111 1.375 . S
C112 C113 1.367 . S
C112 H126 0.951 . S
C113 C109 1.383 . S
C113 C112 1.367 . S
C113 H127 0.950 . S
C114 C111 1.481 . S
C114 C115 1.297 . S
C114 H128 0.950 . S
C115 C114 1.297 . S
C115 C116 1.479 . S
C115 H129 0.950 . S
C116 C115 1.479 . S
C116 C117 1.375 . S
C116 C122 1.404 . S
C117 C116 1.375 . S
C117 C118 1.369 . S
C117 H130 0.950 . S
C118 C117 1.369 . S
C118 C119 1.392 . S
C118 H131 0.951 . S
C119 C118 1.392 . S
C119 C121 1.384 . S
H120 C122 0.949 . S
C121 C119 1.384 . S
C121 C122 1.385 . S
C121 H123 0.950 . S
C122 C116 1.404 . S
C122 H120 0.949 . S
C122 C121 1.385 . S
H123 C121 0.950 . S
H124 C108 0.951 . S
H125 C110 0.951 . S
H126 C112 0.951 . S
H127 C113 0.950 . S
H128 C114 0.950 . S
H129 C115 0.950 . S
H130 C117 0.950 . S
H131 C118 0.951 . S
C132 C133 1.386 . S
C132 C134 1.383 . S
C132 H148 0.951 . S
C133 C132 1.386 . S
C133 C137 1.383 . S
C134 C132 1.383 . S
C134 C135 1.402 . S
C134 H149 0.951 . S
C135 C134 1.402 . S
C135 C136 1.375 . S
C135 C138 1.481 . S
C136 C135 1.375 . S
C136 C137 1.367 . S
C136 H150 0.951 . S
C137 C133 1.383 . S
C137 C136 1.367 . S
C137 H151 0.950 . S
C138 C135 1.481 . S
C138 C139 1.297 1_655 S
C138 H152 0.950 . S
C139 C138 1.297 1_455 S
C139 C140 1.479 . S
C139 H153 0.950 . S
C140 C139 1.479 . S
C140 C141 1.375 . S
C140 C146 1.404 . S
C141 C140 1.375 . S
C141 C142 1.369 . S
C141 H154 0.950 . S
C142 C141 1.369 . S
C142 C143 1.392 . S
C142 H155 0.951 . S
C143 C142 1.392 . S
C143 C145 1.384 . S
H144 C146 0.949 . S
C145 C143 1.384 . S
C145 C146 1.385 . S
C145 H147 0.950 . S
C146 C140 1.404 . S
C146 H144 0.949 . S
C146 C145 1.385 . S
H147 C145 0.950 . S
H148 C132 0.951 . S
H149 C134 0.951 . S
H150 C136 0.951 . S
H151 C137 0.950 . S
H152 C138 0.950 . S
H153 C139 0.950 . S
H154 C141 0.950 . S
H155 C142 0.951 . S
C156 C157 1.386 . S
C156 C158 1.383 . S
C156 H172 0.951 . S
C157 C156 1.386 . S
C157 C161 1.383 . S
C158 C156 1.383 . S
C158 C159 1.402 . S
C158 H173 0.951 . S
C159 C158 1.402 . S
C159 C160 1.375 . S
C159 C162 1.481 . S
C160 C159 1.375 . S
C160 C161 1.367 . S
C160 H174 0.951 . S
C161 C157 1.383 . S
C161 C160 1.367 . S
C161 H175 0.950 . S
C162 C159 1.481 . S
C162 C163 1.297 1_455 S
C162 H176 0.950 1_455 S
C163 C162 1.297 1_655 S
C163 C164 1.479 . S
C163 H177 0.950 1_655 S
C164 C163 1.479 . S
C164 C165 1.375 . S
C164 C170 1.404 . S
C165 C164 1.375 . S
C165 C166 1.369 . S
C165 H178 0.950 . S
C166 C165 1.369 . S
C166 C167 1.392 . S
C166 H179 0.951 . S
C167 C166 1.392 . S
C167 C169 1.384 . S
H168 C170 0.949 . S
C169 C167 1.384 . S
C169 C170 1.385 . S
C169 H171 0.950 . S
C170 C164 1.404 . S
C170 H168 0.949 . S
C170 C169 1.385 . S
H171 C169 0.950 . S
H172 C156 0.951 . S
H173 C158 0.951 . S
H174 C160 0.951 . S
H175 C161 0.950 . S
H176 C162 0.950 1_655 S
H177 C163 0.950 1_455 S
H178 C165 0.950 . S
H179 C166 0.951 . S
C180 C181 1.386 . S
C180 C182 1.383 . S
C180 H196 0.951 . S
C181 C180 1.386 . S
C181 C185 1.383 . S
C182 C180 1.383 . S
C182 C183 1.402 . S
C182 H197 0.951 . S
C183 C182 1.402 . S
C183 C184 1.375 . S
C183 C186 1.481 . S
C184 C183 1.375 . S
C184 C185 1.367 . S
C184 H198 0.951 . S
C185 C181 1.383 . S
C185 C184 1.367 . S
C185 H199 0.950 . S
C186 C183 1.481 . S
C186 C187 1.297 1_565 S
C186 H200 0.950 . S
C187 C186 1.297 1_545 S
C187 C188 1.479 . S
C187 H201 0.950 . S
C188 C187 1.479 . S
C188 C189 1.375 . S
C188 C194 1.404 . S
C189 C188 1.375 . S
C189 C190 1.369 . S
C189 H202 0.950 . S
C190 C189 1.369 . S
C190 C191 1.392 . S
C190 H203 0.951 . S
C191 C190 1.392 . S
C191 C193 1.384 . S
H192 C194 0.949 . S
C193 C191 1.384 . S
C193 C194 1.385 . S
C193 H195 0.950 . S
C194 C188 1.404 . S
C194 H192 0.949 . S
C194 C193 1.385 . S
H195 C193 0.950 . S
H196 C180 0.951 . S
H197 C182 0.951 . S
H198 C184 0.951 . S
H199 C185 0.950 . S
H200 C186 0.950 . S
H201 C187 0.950 . S
H202 C189 0.950 . S
H203 C190 0.951 . S
C204 C205 1.386 . S
C204 C206 1.383 . S
C204 H220 0.951 . S
C205 C204 1.386 . S
C205 C209 1.383 . S
C206 C204 1.383 . S
C206 C207 1.402 . S
C206 H221 0.951 . S
C207 C206 1.402 . S
C207 C208 1.375 . S
C207 C210 1.481 . S
C208 C207 1.375 . S
C208 C209 1.367 . S
C208 H222 0.951 . S
C209 C205 1.383 . S
C209 C208 1.367 . S
C209 H223 0.950 . S
C210 C207 1.481 . S
C210 C211 1.297 . S
C210 H224 0.950 . S
C211 C210 1.297 . S
C211 C212 1.479 . S
C211 H225 0.950 . S
C212 C211 1.479 . S
C212 C213 1.375 . S
C212 C218 1.404 . S
C213 C212 1.375 . S
C213 C214 1.369 . S
C213 H226 0.950 . S
C214 C213 1.369 . S
C214 C215 1.392 . S
C214 H227 0.951 . S
C215 C214 1.392 . S
C215 C217 1.384 . S
H216 C218 0.949 . S
C217 C215 1.384 . S
C217 C218 1.385 . S
C217 H219 0.950 . S
C218 C212 1.404 . S
C218 H216 0.949 . S
C218 C217 1.385 . S
H219 C217 0.950 . S
H220 C204 0.951 . S
H221 C206 0.951 . S
H222 C208 0.951 . S
H223 C209 0.950 . S
H224 C210 0.950 . S
H225 C211 0.950 . S
H226 C213 0.950 . S
H227 C214 0.951 . S
C228 C229 1.386 . S
C228 C230 1.383 . S
C228 H244 0.951 . S
C229 C228 1.386 . S
C229 C233 1.383 . S
C230 C228 1.383 . S
C230 C231 1.402 . S
C230 H245 0.951 . S
C231 C230 1.402 . S
C231 C232 1.375 . S
C231 C234 1.481 . S
C232 C231 1.375 . S
C232 C233 1.367 . S
C232 H246 0.951 . S
C233 C229 1.383 . S
C233 C232 1.367 . S
C233 H247 0.950 . S
C234 C231 1.481 . S
C234 C235 1.297 1_556 S
C234 H248 0.950 . S
C235 C234 1.297 1_554 S
C235 C236 1.479 . S
C235 H249 0.950 . S
C236 C235 1.479 . S
C236 C237 1.375 . S
C236 C242 1.404 . S
C237 C236 1.375 . S
C237 C238 1.369 . S
C237 H250 0.950 . S
C238 C237 1.369 . S
C238 C239 1.392 . S
C238 H251 0.951 . S
C239 C238 1.392 . S
C239 C241 1.384 . S
H240 C242 0.949 . S
C241 C239 1.384 . S
C241 C242 1.385 . S
C241 H243 0.950 . S
C242 C236 1.404 . S
C242 H240 0.949 . S
C242 C241 1.385 . S
H243 C241 0.950 . S
H244 C228 0.951 . S
H245 C230 0.951 . S
H246 C232 0.951 . S
H247 C233 0.950 . S
H248 C234 0.950 . S
H249 C235 0.950 . S
H250 C237 0.950 . S
H251 C238 0.951 . S
C252 C253 1.386 . S
C252 C254 1.383 . S
C252 H268 0.951 . S
C253 C252 1.386 . S
C253 C257 1.383 . S
C254 C252 1.383 . S
C254 C255 1.402 . S
C254 H269 0.951 . S
C255 C254 1.402 . S
C255 C256 1.375 . S
C255 C258 1.481 . S
C256 C255 1.375 . S
C256 C257 1.367 . S
C256 H270 0.951 . S
C257 C253 1.383 . S
C257 C256 1.367 . S
C257 H271 0.950 . S
C258 C255 1.481 . S
C258 C259 1.297 . S
C258 H272 0.950 . S
C259 C258 1.297 . S
C259 C260 1.479 . S
C259 H273 0.950 . S
C260 C259 1.479 . S
C260 C261 1.375 . S
C260 C266 1.404 . S
C261 C260 1.375 . S
C261 C262 1.369 . S
C261 H274 0.950 . S
C262 C261 1.369 . S
C262 C263 1.392 . S
C262 H275 0.951 . S
C263 C262 1.392 . S
C263 C265 1.384 . S
H264 C266 0.949 . S
C265 C263 1.384 . S
C265 C266 1.385 . S
C265 H267 0.950 . S
C266 C260 1.404 . S
C266 H264 0.949 . S
C266 C265 1.385 . S
H267 C265 0.950 . S
H268 C252 0.951 . S
H269 C254 0.951 . S
H270 C256 0.951 . S
H271 C257 0.950 . S
H272 C258 0.950 . S
H273 C259 0.950 . S
H274 C261 0.950 . S
H275 C262 0.951 . S
C276 C277 1.386 . S
C276 C278 1.383 . S
C276 H292 0.951 . S
C277 C276 1.386 . S
C277 C281 1.383 . S
C278 C276 1.383 . S
C278 C279 1.402 . S
C278 H293 0.951 . S
C279 C278 1.402 . S
C279 C280 1.375 . S
C279 C282 1.481 . S
C280 C279 1.375 . S
C280 C281 1.367 . S
C280 H294 0.951 . S
C281 C277 1.383 . S
C281 C280 1.367 . S
C281 H295 0.950 . S
C282 C279 1.481 . S
C282 C283 1.297 . S
C282 H296 0.950 . S
C283 C282 1.297 . S
C283 C284 1.479 . S
C283 H297 0.950 . S
C284 C283 1.479 . S
C284 C285 1.375 . S
C284 C290 1.404 . S
C285 C284 1.375 . S
C285 C286 1.369 . S
C285 H298 0.950 . S
C286 C285 1.369 . S
C286 C287 1.392 . S
C286 H299 0.951 . S
C287 C286 1.392 . S
C287 C289 1.384 . S
H288 C290 0.949 . S
C289 C287 1.384 . S
C289 C290 1.385 . S
C289 H291 0.950 . S
C290 C284 1.404 . S
C290 H288 0.949 . S
C290 C289 1.385 . S
H291 C289 0.950 . S
H292 C276 0.951 . S
H293 C278 0.951 . S
H294 C280 0.951 . S
H295 C281 0.950 . S
H296 C282 0.950 . S
H297 C283 0.950 . S
H298 C285 0.950 . S
H299 C286 0.951 . S
C300 C301 1.386 . S
C300 C302 1.383 . S
C300 H316 0.951 . S
C301 C300 1.386 . S
C301 C305 1.383 . S
C302 C300 1.383 . S
C302 C303 1.402 . S
C302 H317 0.951 . S
C303 C302 1.402 . S
C303 C304 1.375 . S
C303 C306 1.481 . S
C304 C303 1.375 . S
C304 C305 1.367 . S
C304 H318 0.951 . S
C305 C301 1.383 . S
C305 C304 1.367 . S
C305 H319 0.950 . S
C306 C303 1.481 . S
C306 C307 1.297 1_556 S
C306 H320 0.950 . S
C307 C306 1.297 1_554 S
C307 C308 1.479 . S
C307 H321 0.950 . S
C308 C307 1.479 . S
C308 C309 1.375 . S
C308 C314 1.404 . S
C309 C308 1.375 . S
C309 C310 1.369 . S
C309 H322 0.950 . S
C310 C309 1.369 . S
C310 C311 1.392 . S
C310 H323 0.951 . S
C311 C310 1.392 . S
C311 C313 1.384 . S
H312 C314 0.949 . S
C313 C311 1.384 . S
C313 C314 1.385 . S
C313 H315 0.950 . S
C314 C308 1.404 . S
C314 H312 0.949 . S
C314 C313 1.385 . S
H315 C313 0.950 . S
H316 C300 0.951 . S
H317 C302 0.951 . S
H318 C304 0.951 . S
H319 C305 0.950 . S
H320 C306 0.950 . S
H321 C307 0.950 . S
H322 C309 0.950 . S
H323 C310 0.951 . S
C324 C325 1.386 . S
C324 C326 1.383 . S
C324 H340 0.951 . S
C325 C324 1.386 . S
C325 C329 1.383 . S
C326 C324 1.383 . S
C326 C327 1.402 . S
C326 H341 0.951 . S
C327 C326 1.402 . S
C327 C328 1.375 . S
C327 C330 1.481 . S
C328 C327 1.375 . S
C328 C329 1.367 . S
C328 H342 0.951 . S
C329 C325 1.383 . S
C329 C328 1.367 . S
C329 H343 0.950 . S
C330 C327 1.481 . S
C330 C331 1.297 . S
C330 H344 0.950 . S
C331 C330 1.297 . S
C331 C332 1.479 . S
C331 H345 0.950 . S
C332 C331 1.479 . S
C332 C333 1.375 . S
C332 C338 1.404 . S
C333 C332 1.375 . S
C333 C334 1.369 . S
C333 H346 0.950 . S
C334 C333 1.369 . S
C334 C335 1.392 . S
C334 H347 0.951 . S
C335 C334 1.392 . S
C335 C337 1.384 . S
H336 C338 0.949 . S
C337 C335 1.384 . S
C337 C338 1.385 . S
C337 H339 0.950 . S
C338 C332 1.404 . S
C338 H336 0.949 . S
C338 C337 1.385 . S
H339 C337 0.950 . S
H340 C324 0.951 . S
H341 C326 0.951 . S
H342 C328 0.951 . S
H343 C329 0.950 . S
H344 C330 0.950 . S
H345 C331 0.950 . S
H346 C333 0.950 . S
H347 C334 0.951 . S
C348 C349 1.386 . S
C348 C350 1.383 . S
C348 H364 0.951 . S
C349 C348 1.386 . S
C349 C353 1.383 . S
C350 C348 1.383 . S
C350 C351 1.402 . S
C350 H365 0.951 . S
C351 C350 1.402 . S
C351 C352 1.375 . S
C351 C354 1.481 . S
C352 C351 1.375 . S
C352 C353 1.367 . S
C352 H366 0.951 . S
C353 C349 1.383 . S
C353 C352 1.367 . S
C353 H367 0.950 . S
C354 C351 1.481 . S
C354 C355 1.297 . S
C354 H368 0.950 . S
C355 C354 1.297 . S
C355 C356 1.479 . S
C355 H369 0.950 . S
C356 C355 1.479 . S
C356 C357 1.375 . S
C356 C362 1.404 . S
C357 C356 1.375 . S
C357 C358 1.369 . S
C357 H370 0.950 . S
C358 C357 1.369 . S
C358 C359 1.392 . S
C358 H371 0.951 . S
C359 C358 1.392 . S
C359 C361 1.384 . S
H360 C362 0.949 . S
C361 C359 1.384 . S
C361 C362 1.385 . S
C361 H363 0.950 . S
C362 C356 1.404 . S
C362 H360 0.949 . S
C362 C361 1.385 . S
H363 C361 0.950 . S
H364 C348 0.951 . S
H365 C350 0.951 . S
H366 C352 0.951 . S
H367 C353 0.950 . S
H368 C354 0.950 . S
H369 C355 0.950 . S
H370 C357 0.950 . S
H371 C358 0.951 . S
C85 C8 1.394 . S
C95 C50 1.389 . S
C109 C22 1.398 . S
C119 C64 1.387 . S
C133 C36 1.397 . S
C143 C78 1.388 . S
C157 C23 1.484 . S
C167 C65 1.470 . S
C181 C79 1.448 . S
C191 C37 1.450 . S
C205 C51 1.450 . S
C215 C9 1.445 . S
C229 C31 1.168 . S
C239 C7 1.142 . S
C253 C45 1.188 . S
C263 C21 1.178 . S
C277 C35 1.208 . S
C287 C59 1.115 . S
C301 C73 1.191 . S
C311 C49 1.172 . S
C325 C63 1.208 . S
C335 C3 1.117 . S
C349 C77 1.160 . S
C359 C17 1.214 . S
