# Generated by pormake.
# Topology pcl, (4)-cn, num edge types: 1
# Building blocks:
#     Node 0, Type 0, BuildingBlock: CEKHIL_clean_sbu_0, # of connection points: 4
#     Node 1, Type 0, BuildingBlock: CEKHIL_clean_sbu_0, # of connection points: 4
#     Node 2, Type 0, BuildingBlock: CEKHIL_clean_sbu_0, # of connection points: 4
#     Node 3, Type 0, BuildingBlock: CEKHIL_clean_sbu_0, # of connection points: 4
#     Node 4, Type 0, BuildingBlock: CEKHIL_clean_sbu_0, # of connection points: 4
#     Node 5, Type 0, BuildingBlock: CEKHIL_clean_sbu_0, # of connection points: 4
#     Node 6, Type 0, BuildingBlock: CEKHIL_clean_sbu_0, # of connection points: 4
#     Node 7, Type 0, BuildingBlock: CEKHIL_clean_sbu_0, # of connection points: 4
#     Node 8, Type 0, BuildingBlock: CEKHIL_clean_sbu_0, # of connection points: 4
#     Node 9, Type 0, BuildingBlock: CEKHIL_clean_sbu_0, # of connection points: 4
#     Node 10, Type 0, BuildingBlock: CEKHIL_clean_sbu_0, # of connection points: 4
#     Node 11, Type 0, BuildingBlock: CEKHIL_clean_sbu_0, # of connection points: 4
#     Node 12, Type 0, BuildingBlock: CEKHIL_clean_sbu_0, # of connection points: 4
#     Node 13, Type 0, BuildingBlock: CEKHIL_clean_sbu_0, # of connection points: 4
#     Node 14, Type 0, BuildingBlock: CEKHIL_clean_sbu_0, # of connection points: 4
#     Node 15, Type 0, BuildingBlock: CEKHIL_clean_sbu_0, # of connection points: 4
#     Edge 16, Type (0, 0), BuildingBlock: XUDNAN_clean_linker_2, # of connection points: 2
#     Edge 17, Type (0, 0), BuildingBlock: XUDNAN_clean_linker_2, # of connection points: 2
#     Edge 18, Type (0, 0), BuildingBlock: XUDNAN_clean_linker_2, # of connection points: 2
#     Edge 19, Type (0, 0), BuildingBlock: XUDNAN_clean_linker_2, # of connection points: 2
#     Edge 20, Type (0, 0), BuildingBlock: XUDNAN_clean_linker_2, # of connection points: 2
#     Edge 21, Type (0, 0), BuildingBlock: XUDNAN_clean_linker_2, # of connection points: 2
#     Edge 22, Type (0, 0), BuildingBlock: XUDNAN_clean_linker_2, # of connection points: 2
#     Edge 23, Type (0, 0), BuildingBlock: XUDNAN_clean_linker_2, # of connection points: 2
#     Edge 24, Type (0, 0), BuildingBlock: XUDNAN_clean_linker_2, # of connection points: 2
#     Edge 25, Type (0, 0), BuildingBlock: XUDNAN_clean_linker_2, # of connection points: 2
#     Edge 26, Type (0, 0), BuildingBlock: XUDNAN_clean_linker_2, # of connection points: 2
#     Edge 27, Type (0, 0), BuildingBlock: XUDNAN_clean_linker_2, # of connection points: 2
#     Edge 28, Type (0, 0), BuildingBlock: XUDNAN_clean_linker_2, # of connection points: 2
#     Edge 29, Type (0, 0), BuildingBlock: XUDNAN_clean_linker_2, # of connection points: 2
#     Edge 30, Type (0, 0), BuildingBlock: XUDNAN_clean_linker_2, # of connection points: 2
#     Edge 31, Type (0, 0), BuildingBlock: XUDNAN_clean_linker_2, # of connection points: 2
#     Edge 32, Type (0, 0), BuildingBlock: XUDNAN_clean_linker_2, # of connection points: 2
#     Edge 33, Type (0, 0), BuildingBlock: XUDNAN_clean_linker_2, # of connection points: 2
#     Edge 34, Type (0, 0), BuildingBlock: XUDNAN_clean_linker_2, # of connection points: 2
#     Edge 35, Type (0, 0), BuildingBlock: XUDNAN_clean_linker_2, # of connection points: 2
#     Edge 36, Type (0, 0), BuildingBlock: XUDNAN_clean_linker_2, # of connection points: 2
#     Edge 37, Type (0, 0), BuildingBlock: XUDNAN_clean_linker_2, # of connection points: 2
#     Edge 38, Type (0, 0), BuildingBlock: XUDNAN_clean_linker_2, # of connection points: 2
#     Edge 39, Type (0, 0), BuildingBlock: XUDNAN_clean_linker_2, # of connection points: 2
#     Edge 40, Type (0, 0), BuildingBlock: XUDNAN_clean_linker_2, # of connection points: 2
#     Edge 41, Type (0, 0), BuildingBlock: XUDNAN_clean_linker_2, # of connection points: 2
#     Edge 42, Type (0, 0), BuildingBlock: XUDNAN_clean_linker_2, # of connection points: 2
#     Edge 43, Type (0, 0), BuildingBlock: XUDNAN_clean_linker_2, # of connection points: 2
#     Edge 44, Type (0, 0), BuildingBlock: XUDNAN_clean_linker_2, # of connection points: 2
#     Edge 45, Type (0, 0), BuildingBlock: XUDNAN_clean_linker_2, # of connection points: 2
#     Edge 46, Type (0, 0), BuildingBlock: XUDNAN_clean_linker_2, # of connection points: 2
#     Edge 47, Type (0, 0), BuildingBlock: XUDNAN_clean_linker_2, # of connection points: 2
# Relax obj value: 0.073
# Max RMSD: 0.055
# Mean RMSD: 0.054
data_MOF--net-pcl--node1-CEKHIL_clean_sbu_0--edge1-XUDNAN_clean_linker_2
_symmetry_space_group_name_H-M    P1
_symmetry_Int_Tables_number       1
_symmetry_cell_setting            triclinic
loop_
_symmetry_equiv_pos_as_xyz
'x, y, z'
_cell_length_a     52.483235
_cell_length_b     40.842182
_cell_length_c     42.659001
_cell_angle_alpha  90.002436
_cell_angle_beta   89.987217
_cell_angle_gamma 89.991974
loop_
_atom_site_label
_atom_site_type_symbol
_atom_site_fract_x
_atom_site_fract_y
_atom_site_fract_z
_atom_type_partial_charge
Co0 Co 0.14388 0.33771 0.07556 0.0
O1 O 0.17977 0.32861 0.06938 0.0
O2 O 0.14917 0.29172 0.06603 0.0
C3 C 0.14292 0.38312 0.04505 0.0
O4 O 0.10471 0.338 0.07855 0.0
Co5 Co 0.12572 0.40245 0.10681 0.0
O6 O 0.09189 0.38893 0.09089 0.0
C7 C 0.14682 0.34899 0.14605 0.0
C8 C 0.1733 0.29859 0.06345 0.0
C9 C 0.08701 0.35965 0.08244 0.0
O10 O 0.14725 0.32938 0.12234 0.0
O11 O 0.14088 0.37932 0.14374 0.0
O12 O 0.1414 0.35417 0.0326 0.0
O13 O 0.14706 0.3836 0.07483 0.0
Co14 Co 0.8722 0.66749 0.56952 0.0
O15 O 0.8363 0.67605 0.56247 0.0
O16 O 0.86659 0.71342 0.56003 0.0
C17 C 0.87407 0.62212 0.53901 0.0
O18 O 0.91131 0.66798 0.57368 0.0
Co19 Co 0.89048 0.60254 0.60078 0.0
O20 O 0.92495 0.61855 0.59005 0.0
C21 C 0.86932 0.65603 0.64002 0.0
C22 C 0.84257 0.7062 0.55687 0.0
C23 C 0.9293 0.64767 0.58074 0.0
O24 O 0.86808 0.67556 0.61627 0.0
O25 O 0.8756 0.62583 0.63767 0.0
O26 O 0.8756 0.65108 0.52655 0.0
O27 O 0.86947 0.62162 0.56865 0.0
Co28 Co 0.13984 0.65534 0.93271 0.0
O29 O 0.17559 0.66434 0.94123 0.0
O30 O 0.1439 0.69845 0.95077 0.0
C31 C 0.13962 0.60374 0.95272 0.0
O32 O 0.10068 0.65518 0.92913 0.0
Co33 Co 0.12187 0.59856 0.88926 0.0
O34 O 0.0876 0.60876 0.9059 0.0
C35 C 0.14638 0.65738 0.8624 0.0
C36 C 0.16822 0.69254 0.95202 0.0
C37 C 0.08286 0.63543 0.92027 0.0
O38 O 0.14376 0.67325 0.8884 0.0
O39 O 0.14126 0.62689 0.85955 0.0
O40 O 0.13757 0.62877 0.97143 0.0
O41 O 0.14349 0.61087 0.92377 0.0
Co42 Co 0.8745 0.34903 0.43009 0.0
O43 O 0.83784 0.34706 0.43228 0.0
O44 O 0.86332 0.30773 0.44883 0.0
C45 C 0.87755 0.40094 0.44894 0.0
O46 O 0.9136 0.34332 0.43245 0.0
Co47 Co 0.90093 0.40166 0.38781 0.0
O48 O 0.9315 0.38857 0.41171 0.0
C49 C 0.87389 0.34539 0.35944 0.0
C50 C 0.84014 0.31849 0.44516 0.0
C51 C 0.93317 0.36168 0.42676 0.0
O52 O 0.87317 0.3301 0.38594 0.0
O53 O 0.88185 0.37486 0.35653 0.0
O54 O 0.87535 0.37649 0.46829 0.0
O55 O 0.87601 0.39332 0.41979 0.0
Co56 Co 0.83883 0.66527 0.91698 0.0
O57 O 0.80248 0.67048 0.91937 0.0
O58 O 0.82931 0.69001 0.95456 0.0
C59 C 0.84247 0.67886 0.86573 0.0
O60 O 0.87804 0.66438 0.92105 0.0
Co61 Co 0.85956 0.61079 0.8721 0.0
O62 O 0.89285 0.62973 0.88401 0.0
C63 C 0.83697 0.59198 0.93252 0.0
C64 C 0.80581 0.68622 0.94538 0.0
C65 C 0.89651 0.65006 0.90627 0.0
O66 O 0.83588 0.62239 0.94065 0.0
O67 O 0.84389 0.58252 0.90521 0.0
O68 O 0.84125 0.70174 0.88684 0.0
O69 O 0.8389 0.64956 0.87599 0.0
Co70 Co 0.17548 0.33581 0.42433 0.0
O71 O 0.21202 0.33176 0.42568 0.0
O72 O 0.18618 0.31107 0.46136 0.0
C73 C 0.17162 0.32299 0.37269 0.0
O74 O 0.13644 0.33479 0.42985 0.0
Co75 Co 0.1514 0.38863 0.38008 0.0
O76 O 0.11884 0.3701 0.3953 0.0
C77 C 0.17946 0.40842 0.43663 0.0
C78 C 0.20944 0.31554 0.45158 0.0
C79 C 0.11693 0.34878 0.41702 0.0
O80 O 0.17804 0.37907 0.44775 0.0
O81 O 0.17292 0.41587 0.40863 0.0
O82 O 0.17327 0.29969 0.3934 0.0
O83 O 0.17427 0.35204 0.3837 0.0
Co84 Co 0.84311 0.33253 0.08558 0.0
O85 O 0.80688 0.32698 0.08144 0.0
O86 O 0.83498 0.3089 0.04696 0.0
C87 C 0.84482 0.31768 0.13681 0.0
O88 O 0.88231 0.33363 0.08297 0.0
Co89 Co 0.8632 0.38464 0.13324 0.0
O90 O 0.89704 0.368 0.12027 0.0
C91 C 0.83758 0.4054 0.07524 0.0
C92 C 0.81119 0.31215 0.05515 0.0
C93 C 0.90072 0.34781 0.09789 0.0
O94 O 0.84028 0.37647 0.06349 0.0
O95 O 0.84268 0.41223 0.10383 0.0
O96 O 0.8451 0.29525 0.11517 0.0
O97 O 0.84173 0.34706 0.12677 0.0
Co98 Co 0.17276 0.67217 0.5884 0.0
O99 O 0.20899 0.67689 0.58336 0.0
O100 O 0.18059 0.6965 0.55006 0.0
C101 C 0.17207 0.68593 0.63982 0.0
O102 O 0.13346 0.67209 0.58686 0.0
Co103 Co 0.15256 0.6193 0.63478 0.0
O104 O 0.11946 0.64106 0.62695 0.0
C105 C 0.17352 0.59888 0.57382 0.0
C106 C 0.20447 0.69233 0.55745 0.0
C107 C 0.11528 0.66043 0.60407 0.0
O108 O 0.17452 0.62907 0.565 0.0
O109 O 0.16705 0.5901 0.6015 0.0
O110 O 0.17176 0.70873 0.61855 0.0
O111 O 0.17473 0.65655 0.62936 0.0
Co112 Co 0.63808 0.84037 0.07256 0.0
O113 O 0.67371 0.8321 0.06301 0.0
O114 O 0.64234 0.79718 0.0546 0.0
C115 C 0.63653 0.89167 0.05201 0.0
O116 O 0.59905 0.8401 0.07764 0.0
Co117 Co 0.62161 0.8971 0.11707 0.0
O118 O 0.5866 0.88466 0.10468 0.0
C119 C 0.64678 0.83843 0.14267 0.0
C120 C 0.66654 0.80369 0.05258 0.0
C121 C 0.58153 0.85865 0.08939 0.0
O122 O 0.64311 0.82268 0.11681 0.0
O123 O 0.64225 0.86904 0.14576 0.0
O124 O 0.63455 0.86635 0.03368 0.0
O125 O 0.64144 0.88506 0.08086 0.0
Co126 Co 0.37596 0.16144 0.5813 0.0
O127 O 0.34038 0.17153 0.57321 0.0
O128 O 0.37262 0.20414 0.56189 0.0
C129 C 0.37466 0.10952 0.56231 0.0
O130 O 0.41516 0.15949 0.58457 0.0
Co131 Co 0.39247 0.10457 0.62582 0.0
O132 O 0.42705 0.11352 0.60969 0.0
C133 C 0.37517 0.16791 0.65242 0.0
C134 C 0.34817 0.19894 0.56115 0.0
C135 C 0.43248 0.13959 0.59471 0.0
O136 O 0.37335 0.18114 0.62502 0.0
O137 O 0.3807 0.13775 0.65688 0.0
O138 O 0.37717 0.13412 0.54322 0.0
O139 O 0.37111 0.11722 0.59123 0.0
Co140 Co 0.64393 0.15799 0.93027 0.0
O141 O 0.67957 0.16578 0.9398 0.0
O142 O 0.64939 0.20339 0.94157 0.0
C143 C 0.64008 0.11168 0.95901 0.0
O144 O 0.60498 0.15948 0.9242 0.0
Co145 Co 0.62595 0.09616 0.89458 0.0
O146 O 0.59156 0.11006 0.90798 0.0
C147 C 0.64864 0.15089 0.8591 0.0
C148 C 0.67324 0.19587 0.94577 0.0
C149 C 0.58699 0.13899 0.91763 0.0
O150 O 0.65037 0.16804 0.88437 0.0
O151 O 0.64044 0.12141 0.85845 0.0
O152 O 0.63858 0.14031 0.97216 0.0
O153 O 0.64602 0.11181 0.9296 0.0
Co154 Co 0.37182 0.84614 0.43487 0.0
O155 O 0.3361 0.83727 0.44247 0.0
O156 O 0.36651 0.79997 0.44362 0.0
C157 C 0.3739 0.89072 0.4663 0.0
O158 O 0.41089 0.84621 0.42994 0.0
Co159 Co 0.38893 0.91135 0.40377 0.0
O160 O 0.42349 0.89684 0.41613 0.0
C161 C 0.36641 0.85891 0.36476 0.0
C162 C 0.34251 0.80705 0.44739 0.0
C163 C 0.42852 0.86753 0.42435 0.0
O164 O 0.36694 0.83893 0.38818 0.0
O165 O 0.37232 0.88924 0.36717 0.0
O166 O 0.37571 0.86147 0.47802 0.0
O167 O 0.36884 0.89197 0.43674 0.0
Co168 Co 0.343 0.17095 0.91854 0.0
O169 O 0.30681 0.17588 0.92428 0.0
O170 O 0.33555 0.18871 0.96011 0.0
C171 C 0.34465 0.19358 0.87012 0.0
O172 O 0.38231 0.16926 0.91988 0.0
Co173 Co 0.3613 0.12539 0.86398 0.0
O174 O 0.39547 0.13895 0.87869 0.0
C175 C 0.33869 0.09655 0.92059 0.0
C176 C 0.31164 0.18691 0.95211 0.0
C177 C 0.40012 0.15634 0.90287 0.0
O178 O 0.34061 0.12431 0.93487 0.0
O179 O 0.34319 0.09305 0.89129 0.0
O180 O 0.34457 0.21236 0.89469 0.0
O181 O 0.34125 0.16292 0.87561 0.0
Co182 Co 0.67229 0.83786 0.41469 0.0
O183 O 0.7085 0.83273 0.42004 0.0
O184 O 0.67992 0.81708 0.45498 0.0
C185 C 0.67156 0.81906 0.3646 0.0
O186 O 0.63303 0.83903 0.41643 0.0
Co187 Co 0.65264 0.88578 0.36308 0.0
O188 O 0.61871 0.8694 0.37591 0.0
C189 C 0.6762 0.91172 0.42068 0.0
C190 C 0.70382 0.81971 0.4471 0.0
C191 C 0.61475 0.85145 0.3999 0.0
O192 O 0.67463 0.88334 0.43387 0.0
O193 O 0.67107 0.91654 0.39171 0.0
O194 O 0.67076 0.79844 0.38781 0.0
O195 O 0.67444 0.8492 0.3725 0.0
Co196 Co 0.33726 0.83867 0.08652 0.0
O197 O 0.30099 0.83431 0.08202 0.0
O198 O 0.3289 0.81093 0.05044 0.0
C199 C 0.33815 0.82952 0.13893 0.0
O200 O 0.37658 0.83785 0.08522 0.0
Co201 Co 0.35761 0.89559 0.12852 0.0
O202 O 0.3903 0.87208 0.12307 0.0
C203 C 0.33766 0.91037 0.06557 0.0
C204 C 0.30511 0.81614 0.05768 0.0
C205 C 0.3946 0.85067 0.10194 0.0
O206 O 0.33633 0.87946 0.05943 0.0
O207 O 0.34367 0.92157 0.09259 0.0
O208 O 0.33767 0.80496 0.11955 0.0
O209 O 0.33568 0.85789 0.12612 0.0
Co210 Co 0.67589 0.16954 0.585 0.0
O211 O 0.71113 0.18013 0.57551 0.0
O212 O 0.67804 0.19633 0.54759 0.0
C213 C 0.67796 0.1808 0.63673 0.0
O214 O 0.63688 0.16516 0.58755 0.0
Co215 Co 0.66144 0.11306 0.63026 0.0
O216 O 0.62628 0.1302 0.62609 0.0
C217 C 0.67865 0.09735 0.56618 0.0
C218 C 0.70262 0.19648 0.55161 0.0
C219 C 0.62011 0.15068 0.60486 0.0
O220 O 0.67853 0.12807 0.55917 0.0
O221 O 0.67417 0.08663 0.59385 0.0
O222 O 0.67473 0.20434 0.61664 0.0
O223 O 0.6819 0.15211 0.62508 0.0
H224 H 0.0457 0.39964 0.08954 0.0
H225 H 0.06588 0.29923 0.06736 0.0
H226 H 0.01991 0.28512 0.06457 0.0
H227 H 0.99539 0.38173 0.13997 0.0
H228 H 0.97624 0.41613 0.12792 0.0
H229 H 0.01037 0.41826 0.12503 0.0
H230 H 1.00671 0.43196 0.06585 0.0
H231 H 0.97249 0.42988 0.06855 0.0
H232 H 0.98916 0.40491 0.04038 0.0
H233 H 0.97012 0.28238 0.06672 0.0
H234 H 0.92378 0.29091 0.07638 0.0
H235 H 0.93865 0.39262 0.09871 0.0
C236 C 0.04068 0.37466 0.08372 0.0
C237 C 0.05962 0.35059 0.07861 0.0
C238 C 0.05183 0.31821 0.07127 0.0
C239 C 0.02572 0.30999 0.06959 0.0
C240 C 1.0076 0.33441 0.07523 0.0
C241 C 0.01495 0.3661 0.08213 0.0
C242 C 0.99229 0.38778 0.08899 0.0
C243 C 0.99366 0.40177 0.12246 0.0
C244 C 0.99003 0.41525 0.06447 0.0
C245 C 0.97089 0.3633 0.08569 0.0
C246 C 0.97981 0.3327 0.07721 0.0
C247 C 0.96307 0.30633 0.07327 0.0
C248 C 0.93678 0.31136 0.07868 0.0
C249 C 0.92765 0.34235 0.08848 0.0
C250 C 0.94504 0.36855 0.09148 0.0
H251 H 0.96694 0.62725 0.61948 0.0
H252 H 0.95297 0.6919 0.54082 0.0
H253 H 0.99925 0.70522 0.5388 0.0
H254 H 0.0154 0.67786 0.65674 0.0
H255 H 0.03316 0.64271 0.66999 0.0
H256 H 0.99911 0.64006 0.66537 0.0
H257 H 1.00474 0.5903 0.62825 0.0
H258 H 0.03875 0.59282 0.63268 0.0
H259 H 0.02477 0.59418 0.59411 0.0
H260 H 0.04909 0.70722 0.54389 0.0
H261 H 0.09489 0.69995 0.55704 0.0
H262 H 0.0734 0.63584 0.63377 0.0
C263 C 0.97351 0.64437 0.60185 0.0
C264 C 0.95639 0.65831 0.5801 0.0
C265 C 0.96577 0.68096 0.55774 0.0
C266 C 0.99203 0.68857 0.55642 0.0
C267 C 0.00849 0.67382 0.57803 0.0
C268 C 0.99932 0.65255 0.60059 0.0
C269 C 0.02042 0.63955 0.62119 0.0
C270 C 0.0168 0.65072 0.65534 0.0
C271 C 0.02227 0.602 0.61889 0.0
C272 C 0.04318 0.656 0.60632 0.0
C273 C 0.0362 0.67577 0.58148 0.0
C274 C 0.05459 0.69207 0.56357 0.0
C275 C 0.08061 0.68781 0.5712 0.0
C276 C 0.088 0.66745 0.59657 0.0
C277 C 0.06874 0.65183 0.61436 0.0
H278 H 0.93459 0.60593 0.90049 0.0
H279 H 0.91982 0.70454 0.93341 0.0
H280 H 0.9662 0.71157 0.94406 0.0
H281 H 0.98462 0.58607 0.95637 0.0
H282 H 1.00199 0.56232 0.92787 0.0
H283 H 0.9678 0.56525 0.92539 0.0
H284 H 0.97163 0.58653 0.86829 0.0
H285 H 1.00577 0.58379 0.87062 0.0
H286 H 0.99092 0.62211 0.86033 0.0
H287 H 0.01617 0.70775 0.94688 0.0
H288 H 0.06206 0.69347 0.94279 0.0
H289 H 0.04135 0.59707 0.90848 0.0
C290 C 0.94093 0.62907 0.91014 0.0
C291 C 0.92354 0.65482 0.91587 0.0
C292 C 0.93276 0.68444 0.9289 0.0
C293 C 0.95909 0.68861 0.93493 0.0
C294 C 0.97577 0.66273 0.92823 0.0
C295 C 0.96678 0.63343 0.91643 0.0
C296 C 0.98807 0.60941 0.91022 0.0
C297 C 0.98546 0.57897 0.93122 0.0
C298 C 0.98915 0.59993 0.8753 0.0
C299 C 0.01078 0.62983 0.91958 0.0
C300 C 1.00358 0.66048 0.93013 0.0
C301 C 0.02183 0.68368 0.93891 0.0
C302 C 0.0479 0.67534 0.93653 0.0
C303 C 0.05551 0.64411 0.9253 0.0
C304 C 0.03645 0.62117 0.91719 0.0
H305 H 0.08071 0.39372 0.42897 0.0
H306 H 0.09379 0.28909 0.42923 0.0
H307 H 0.04754 0.27985 0.43905 0.0
H308 H 0.02945 0.39446 0.48971 0.0
H309 H 0.01285 0.42696 0.4697 0.0
H310 H 0.04709 0.42445 0.46756 0.0
H311 H 0.04454 0.42415 0.40685 0.0
H312 H 0.01042 0.4265 0.4088 0.0
H313 H 0.02539 0.39358 0.3875 0.0
H314 H 0.99781 0.2833 0.44114 0.0
H315 H 0.95218 0.29889 0.4361 0.0
H316 H 0.9739 0.40127 0.43612 0.0
C317 C 0.07396 0.36884 0.43192 0.0
C318 C 0.09075 0.34211 0.42846 0.0
C319 C 0.08124 0.30991 0.43222 0.0
C320 C 0.055 0.30451 0.4377 0.0
C321 C 0.03874 0.33162 0.43998 0.0
C322 C 0.04815 0.36317 0.43772 0.0
C323 C 0.02707 0.38834 0.4387 0.0
C324 C 0.02925 0.40981 0.46818 0.0
C325 C 0.02685 0.40934 0.40868 0.0
C326 C 1.00407 0.3662 0.44042 0.0
C327 C 0.01091 0.33353 0.44157 0.0
C328 C 0.99238 0.30887 0.44083 0.0
C329 C 0.96646 0.3179 0.43808 0.0
C330 C 0.95939 0.35131 0.43574 0.0
C331 C 0.97856 0.3755 0.43792 0.0
H332 H 0.43571 0.87203 0.13517 0.0
H333 H 0.41594 0.81203 0.0548 0.0
H334 H 0.46206 0.80428 0.04361 0.0
H335 H 0.48561 0.91437 0.09963 0.0
H336 H 0.50467 0.91651 0.13471 0.0
H337 H 0.47054 0.91417 0.13761 0.0
H338 H 0.47439 0.86268 0.17287 0.0
H339 H 0.50859 0.86497 0.17024 0.0
H340 H 0.49233 0.82786 0.15916 0.0
H341 H 0.51205 0.80598 0.04067 0.0
H342 H 0.55835 0.818 0.04563 0.0
H343 H 0.54254 0.8786 0.1268 0.0
C344 C 0.4408 0.85685 0.11533 0.0
C345 C 0.42195 0.84259 0.09592 0.0
C346 C 0.4299 0.82309 0.0702 0.0
C347 C 0.4561 0.81861 0.06365 0.0
C348 C 0.47409 0.83377 0.08304 0.0
C349 C 0.46655 0.85243 0.10841 0.0
C350 C 0.489 0.86779 0.12499 0.0
C351 C 0.48735 0.90543 0.12416 0.0
C352 C 0.4912 0.85505 0.15881 0.0
C353 C 0.51057 0.85537 0.10485 0.0
C354 C 0.5019 0.83544 0.08092 0.0
C355 C 0.51888 0.82153 0.05941 0.0
C356 C 0.54516 0.82844 0.0624 0.0
C357 C 0.55415 0.84946 0.08644 0.0
C358 C 0.53643 0.8627 0.10793 0.0
H359 H 0.58 0.11934 0.6329 0.0
H360 H 0.59706 0.19416 0.56375 0.0
H361 H 0.5508 0.2008 0.55357 0.0
H362 H 0.52981 0.0815 0.591 0.0
H363 H 0.51129 0.07271 0.62557 0.0
H364 H 0.54545 0.07539 0.62817 0.0
H365 H 0.54138 0.11974 0.67138 0.0
H366 H 0.50719 0.11706 0.66903 0.0
H367 H 0.52278 0.156 0.66384 0.0
H368 H 0.50129 0.19821 0.55108 0.0
H369 H 0.4551 0.18587 0.55596 0.0
H370 H 0.47256 0.11167 0.62552 0.0
C371 C 0.57419 0.13739 0.61573 0.0
C372 C 0.59237 0.15632 0.59923 0.0
C373 C 0.58361 0.17939 0.57682 0.0
C374 C 0.55733 0.18332 0.57087 0.0
C375 C 0.54 0.16394 0.58743 0.0
C376 C 0.54823 0.14143 0.6094 0.0
C377 C 0.52617 0.1228 0.62361 0.0
C378 C 0.52832 0.08592 0.61666 0.0
C379 C 0.52427 0.1293 0.65906 0.0
C380 C 0.50411 0.13807 0.60613 0.0
C381 C 0.51224 0.16195 0.5855 0.0
C382 C 0.49484 0.17947 0.56716 0.0
C383 C 0.46862 0.17231 0.57006 0.0
C384 C 0.46005 0.1476 0.5909 0.0
C385 C 0.47827 0.13046 0.60905 0.0
H386 H 0.54627 0.10893 0.89055 0.0
H387 H 0.56572 0.19155 0.94977 0.0
H388 H 0.51973 0.20561 0.95403 0.0
H389 H 0.49638 0.1486 0.848 0.0
H390 H 0.47745 0.11189 0.84534 0.0
H391 H 0.51162 0.10904 0.84772 0.0
H392 H 0.5075 0.07123 0.89632 0.0
H393 H 0.47332 0.07407 0.89417 0.0
H394 H 0.48957 0.08506 0.92987 0.0
H395 H 0.46964 0.20884 0.95214 0.0
H396 H 0.4232 0.20273 0.9416 0.0
H397 H 0.43949 0.11854 0.8829 0.0
C398 C 0.54104 0.12999 0.90457 0.0
C399 C 0.55972 0.14897 0.92003 0.0
C400 C 0.5518 0.17659 0.9377 0.0
C401 C 0.52569 0.18468 0.94031 0.0
C402 C 0.50777 0.16509 0.92488 0.0
C403 C 0.51536 0.13847 0.90715 0.0
C404 C 0.49295 0.12138 0.89218 0.0
C405 C 0.49471 0.12283 0.85619 0.0
C406 C 0.49071 0.08584 0.90385 0.0
C407 C 0.47135 0.14226 0.90429 0.0
C408 C 0.47996 0.16734 0.92326 0.0
C409 C 0.46286 0.18931 0.93717 0.0
C410 C 0.43649 0.18562 0.93118 0.0
C411 C 0.42755 0.16034 0.91123 0.0
C412 C 0.44546 0.13844 0.89799 0.0
H413 H 0.46919 0.90309 0.40365 0.0
H414 H 0.45038 0.81051 0.44785 0.0
H415 H 0.4964 0.79609 0.44882 0.0
H416 H 0.51719 0.87263 0.35357 0.0
H417 H 0.53665 0.90885 0.35667 0.0
H418 H 0.50266 0.91182 0.36129 0.0
H419 H 0.50884 0.93904 0.41568 0.0
H420 H 0.54288 0.93616 0.41124 0.0
H421 H 0.52761 0.9185 0.4451 0.0
H422 H 0.54625 0.79279 0.44439 0.0
H423 H 0.59234 0.79966 0.43208 0.0
H424 H 0.57574 0.89353 0.38928 0.0
C425 C 0.47454 0.87981 0.41384 0.0
C426 C 0.45599 0.85806 0.42588 0.0
C427 C 0.46415 0.82769 0.43854 0.0
C428 C 0.49029 0.81934 0.43924 0.0
C429 C 0.50803 0.84152 0.42704 0.0
C430 C 0.50026 0.87107 0.41446 0.0
C431 C 0.52247 0.89045 0.40168 0.0
C432 C 0.51956 0.89626 0.36621 0.0
C433 C 0.52563 0.92295 0.4195 0.0
C434 C 0.54412 0.86721 0.40867 0.0
C435 C 0.53573 0.83922 0.42366 0.0
C436 C 0.55286 0.81463 0.43255 0.0
C437 C 0.57902 0.81873 0.42557 0.0
C438 C 0.58766 0.84695 0.40942 0.0
C439 C 0.56981 0.87142 0.40125 0.0
H440 H 0.15358 0.38529 0.19888 0.0
H441 H 0.15234 0.28466 0.16621 0.0
H442 H 0.15845 0.26559 0.22102 0.0
H443 H 0.20128 0.3752 0.25824 0.0
H444 H 0.18596 0.40371 0.28442 0.0
H445 H 0.18244 0.40836 0.24269 0.0
H446 H 0.13327 0.40699 0.24896 0.0
H447 H 0.13664 0.402 0.29067 0.0
H448 H 0.11852 0.37266 0.26836 0.0
H449 H 0.16345 0.25848 0.28172 0.0
H450 H 0.16846 0.2646 0.33948 0.0
H451 H 0.16568 0.37014 0.32885 0.0
C452 C 0.15469 0.35916 0.20295 0.0
C453 C 0.15239 0.3365 0.17809 0.0
C454 C 0.15412 0.30255 0.18481 0.0
C455 C 0.15749 0.29151 0.2159 0.0
C456 C 0.15918 0.31473 0.23989 0.0
C457 C 0.15798 0.34787 0.23348 0.0
C458 C 0.15997 0.36828 0.26283 0.0
C459 C 0.18383 0.39016 0.26199 0.0
C460 C 0.13565 0.38867 0.268 0.0
C461 C 0.16243 0.3416 0.28705 0.0
C462 C 0.16194 0.31077 0.27373 0.0
C463 C 0.16389 0.28259 0.29223 0.0
C464 C 0.16665 0.28624 0.32499 0.0
C465 C 0.16743 0.31781 0.3387 0.0
C466 C 0.16513 0.3456 0.31927 0.0
H467 H 0.88034 0.62488 0.69464 0.0
H468 H 0.84794 0.7152 0.65872 0.0
H469 H 0.84014 0.73369 0.71342 0.0
H470 H 0.83736 0.61206 0.75546 0.0
H471 H 0.86091 0.59595 0.78208 0.0
H472 H 0.86535 0.59176 0.7405 0.0
H473 H 0.90928 0.62052 0.74485 0.0
H474 H 0.90491 0.62493 0.78653 0.0
H475 H 0.91131 0.66043 0.76271 0.0
H476 H 0.8348 0.74061 0.77367 0.0
H477 H 0.83037 0.73372 0.83134 0.0
H478 H 0.86552 0.63801 0.82462 0.0
C479 C 0.8716 0.64864 0.69797 0.0
C480 C 0.86459 0.66849 0.67223 0.0
C481 C 0.85347 0.69953 0.67804 0.0
C482 C 0.84904 0.71024 0.70902 0.0
C483 C 0.85611 0.68974 0.7338 0.0
C484 C 0.86721 0.6596 0.72837 0.0
C485 C 0.87238 0.64129 0.75843 0.0
C486 C 0.85814 0.60834 0.75915 0.0
C487 C 0.90118 0.63652 0.76342 0.0
C488 C 0.86156 0.66516 0.78185 0.0
C489 C 0.85272 0.69335 0.76753 0.0
C490 C 0.84175 0.71864 0.78498 0.0
C491 C 0.83938 0.7146 0.81767 0.0
C492 C 0.84749 0.68526 0.83226 0.0
C493 C 0.859 0.6606 0.81407 0.0
H494 H 0.17466 0.63069 0.81649 0.0
H495 H 0.1358 0.72039 0.84199 0.0
H496 H 0.14215 0.74133 0.78776 0.0
H497 H 0.22034 0.66611 0.75886 0.0
H498 H 0.21744 0.6306 0.73403 0.0
H499 H 0.21418 0.6265 0.7759 0.0
H500 H 0.17006 0.59917 0.76793 0.0
H501 H 0.17291 0.6037 0.7262 0.0
H502 H 0.14574 0.62067 0.74631 0.0
H503 H 0.148 0.74829 0.72756 0.0
H504 H 0.15331 0.74086 0.67003 0.0
H505 H 0.18615 0.64503 0.68639 0.0
C506 C 0.16814 0.6552 0.811 0.0
C507 C 0.15483 0.674 0.83338 0.0
C508 C 0.1464 0.70581 0.82526 0.0
C509 C 0.14981 0.71775 0.79448 0.0
C510 C 0.16191 0.69765 0.77244 0.0
C511 C 0.17122 0.66717 0.78069 0.0
C512 C 0.18115 0.64853 0.75268 0.0
C513 C 0.20999 0.6426 0.75554 0.0
C514 C 0.16659 0.61613 0.74802 0.0
C515 C 0.17525 0.67266 0.72697 0.0
C516 C 0.16456 0.70116 0.73856 0.0
C517 C 0.15664 0.7262 0.71844 0.0
C518 C 0.15967 0.72179 0.68583 0.0
C519 C 0.17005 0.69233 0.67385 0.0
C520 C 0.17809 0.6678 0.69483 0.0
H521 H 0.83454 0.36019 0.18338 0.0
H522 H 0.86094 0.26108 0.1671 0.0
H523 H 0.86682 0.25378 0.22463 0.0
H524 H 0.87798 0.38035 0.24127 0.0
H525 H 0.85585 0.40511 0.26324 0.0
H526 H 0.85179 0.40028 0.22169 0.0
H527 H 0.80577 0.37907 0.23082 0.0
H528 H 0.8098 0.38359 0.27253 0.0
H529 H 0.80054 0.34458 0.2564 0.0
H530 H 0.87327 0.2606 0.2852 0.0
H531 H 0.88071 0.28126 0.33941 0.0
H532 H 0.84853 0.37486 0.31276 0.0
C533 C 0.84133 0.33672 0.19177 0.0
C534 C 0.84737 0.31122 0.17081 0.0
C535 C 0.85615 0.28093 0.18285 0.0
C536 C 0.85947 0.2766 0.21546 0.0
C537 C 0.85354 0.30264 0.23551 0.0
C538 C 0.8445 0.33202 0.22384 0.0
C539 C 0.84078 0.35714 0.24929 0.0
C540 C 0.85761 0.38748 0.24353 0.0
C541 C 0.81254 0.36664 0.25244 0.0
C542 C 0.84974 0.33783 0.27728 0.0
C543 C 0.85685 0.30631 0.26932 0.0
C544 C 0.86738 0.28509 0.29163 0.0
C545 C 0.87141 0.29688 0.32239 0.0
C546 C 0.86513 0.32959 0.33018 0.0
C547 C 0.85344 0.34967 0.3075 0.0
H548 H 0.69083 0.85305 0.31607 0.0
H549 H 0.64872 0.7647 0.33769 0.0
H550 H 0.64326 0.75413 0.28059 0.0
H551 H 0.65352 0.87983 0.25598 0.0
H552 H 0.67931 0.89609 0.2328 0.0
H553 H 0.68256 0.89319 0.27458 0.0
H554 H 0.72372 0.85874 0.26754 0.0
H555 H 0.72045 0.86136 0.22556 0.0
H556 H 0.72281 0.82191 0.24427 0.0
H557 H 0.63764 0.75856 0.22024 0.0
H558 H 0.63179 0.77809 0.16549 0.0
H559 H 0.67933 0.86207 0.18567 0.0
C560 C 0.68084 0.83111 0.30885 0.0
C561 C 0.67012 0.80973 0.33116 0.0
C562 C 0.6572 0.78128 0.32085 0.0
C563 C 0.65408 0.77511 0.2885 0.0
C564 C 0.66453 0.79725 0.267 0.0
C565 C 0.67793 0.82447 0.27701 0.0
C566 C 0.68576 0.84609 0.25 0.0
C567 C 0.67461 0.88082 0.25356 0.0
C568 C 0.71492 0.84706 0.24665 0.0
C569 C 0.67366 0.82781 0.22312 0.0
C570 C 0.6618 0.79937 0.233 0.0
C571 C 0.64736 0.78039 0.21225 0.0
C572 C 0.64426 0.79148 0.18113 0.0
C573 C 0.65532 0.8214 0.17139 0.0
C574 C 0.67095 0.83887 0.19241 0.0
H575 H 0.3844 0.17664 0.83369 0.0
H576 H 0.31573 0.23501 0.83437 0.0
H577 H 0.32016 0.24414 0.777 0.0
H578 H 0.41856 0.22335 0.76938 0.0
H579 H 0.43206 0.18587 0.75448 0.0
H580 H 0.42613 0.19038 0.79589 0.0
H581 H 0.39895 0.13743 0.79524 0.0
H582 H 0.40462 0.13281 0.75403 0.0
H583 H 0.37239 0.13442 0.76857 0.0
H584 H 0.32809 0.23708 0.71789 0.0
H585 H 0.33877 0.21517 0.66508 0.0
H586 H 0.40285 0.16309 0.70507 0.0
C587 C 0.37085 0.1923 0.82196 0.0
C588 C 0.34993 0.20541 0.83823 0.0
C589 C 0.33219 0.22533 0.82217 0.0
C590 C 0.33457 0.23056 0.78965 0.0
C591 C 0.3551 0.2162 0.7739 0.0
C592 C 0.3732 0.19799 0.78984 0.0
C593 C 0.39188 0.18202 0.76771 0.0
C594 C 0.41875 0.19628 0.77213 0.0
C595 C 0.39192 0.14448 0.77162 0.0
C596 C 0.38063 0.19226 0.73665 0.0
C597 C 0.35973 0.21252 0.74039 0.0
C598 C 0.34481 0.22195 0.71471 0.0
C599 C 0.35101 0.20953 0.68479 0.0
C600 C 0.37166 0.18761 0.68114 0.0
C601 C 0.38707 0.18005 0.70723 0.0
H602 H 0.62013 0.15608 0.8063 0.0
H603 H 0.69504 0.17661 0.84398 0.0
H604 H 0.71003 0.19237 0.79088 0.0
H605 H 0.63742 0.1205 0.73734 0.0
H606 H 0.61318 0.13894 0.71314 0.0
H607 H 0.60765 0.13355 0.7544 0.0
H608 H 0.59844 0.19557 0.76039 0.0
H609 H 0.60374 0.20112 0.71896 0.0
H610 H 0.62162 0.22493 0.74692 0.0
H611 H 0.71806 0.19789 0.73255 0.0
H612 H 0.71778 0.1962 0.6744 0.0
H613 H 0.63702 0.17486 0.67539 0.0
C614 C 0.63949 0.16475 0.80338 0.0
C615 C 0.65648 0.16538 0.82899 0.0
C616 C 0.68174 0.17647 0.82456 0.0
C617 C 0.69037 0.18536 0.79453 0.0
C618 C 0.67325 0.18382 0.7695 0.0
C619 C 0.64816 0.17448 0.77378 0.0
C620 C 0.63382 0.1737 0.74296 0.0
C621 C 0.62237 0.13964 0.7366 0.0
C622 C 0.61318 0.20042 0.74227 0.0
C623 C 0.65517 0.18164 0.72036 0.0
C624 C 0.67768 0.18801 0.73611 0.0
C625 C 0.70041 0.19375 0.72004 0.0
C626 C 0.70012 0.19276 0.68712 0.0
C627 C 0.6773 0.18603 0.67078 0.0
C628 C 0.65455 0.18073 0.68754 0.0
H629 H 0.34347 0.87842 0.1817 0.0
H630 H 0.34109 0.77261 0.17352 0.0
H631 H 0.3465 0.76779 0.23116 0.0
H632 H 0.39153 0.88177 0.24078 0.0
H633 H 0.37745 0.91652 0.26026 0.0
H634 H 0.37291 0.9109 0.21879 0.0
H635 H 0.32393 0.91295 0.22669 0.0
H636 H 0.32832 0.91836 0.26823 0.0
H637 H 0.30907 0.88504 0.25385 0.0
H638 H 0.35236 0.77554 0.29075 0.0
H639 H 0.35997 0.79484 0.34507 0.0
H640 H 0.35847 0.89536 0.31197 0.0
C641 C 0.34405 0.85416 0.19192 0.0
C642 C 0.34181 0.82587 0.17315 0.0
C643 C 0.34278 0.79463 0.18752 0.0
C644 C 0.34578 0.79168 0.22021 0.0
C645 C 0.34783 0.82022 0.23807 0.0
C646 C 0.34711 0.85083 0.22426 0.0
C647 C 0.35025 0.87781 0.24815 0.0
C648 C 0.37447 0.89792 0.24161 0.0
C649 C 0.32647 0.89982 0.24929 0.0
C650 C 0.35286 0.85774 0.27772 0.0
C651 C 0.35134 0.82457 0.27166 0.0
C652 C 0.35356 0.80149 0.29567 0.0
C653 C 0.3578 0.81268 0.32648 0.0
C654 C 0.35989 0.84663 0.33294 0.0
C655 C 0.35706 0.86923 0.30807 0.0
H656 H 0.30683 0.24132 0.99027 0.0
H657 H 0.26785 0.15327 0.96009 0.0
H658 H 0.22974 0.16964 0.99018 0.0
H659 H 0.27711 0.24797 0.06944 0.0
H660 H 0.27439 0.29189 0.06703 0.0
H661 H 0.29998 0.27113 0.04702 0.0
H662 H 0.28616 0.29795 0.9947 0.0
H663 H 0.26053 0.31867 0.0145 0.0
H664 H 0.25385 0.29289 0.9812 0.0
H665 H 0.1947 0.19719 0.0199 0.0
H666 H 0.16445 0.2354 0.04495 0.0
H667 H 0.22485 0.30734 0.05417 0.0
C668 C 0.29049 0.22514 0.99084 0.0
C669 C 0.29038 0.19573 0.97334 0.0
C670 C 0.26836 0.17572 0.97361 0.0
C671 C 0.24665 0.18478 0.99069 0.0
C672 C 0.24705 0.21421 0.00718 0.0
C673 C 0.26833 0.23422 0.00734 0.0
C674 C 0.26273 0.26609 0.02441 0.0
C675 C 0.27955 0.26946 0.05372 0.0
C676 C 0.26601 0.29564 1.00238 0.0
C677 C 0.23494 0.26105 0.03324 0.0
C678 C 0.22642 0.23073 0.0235 0.0
C679 C 0.20121 0.2209 0.02789 0.0
C680 C 0.18414 0.24279 0.04217 0.0
C681 C 0.1922 0.27435 0.05168 0.0
C682 C 0.21809 0.2833 0.04746 0.0
H683 H 0.79107 0.69712 0.54694 0.0
H684 H 0.85123 0.76954 0.53886 0.0
H685 H 0.82097 0.80783 0.51401 0.0
H686 H 0.76233 0.71228 0.47415 0.0
H687 H 0.72997 0.70691 0.48736 0.0
H688 H 0.75557 0.68616 0.50719 0.0
H689 H 0.74165 0.71218 0.55983 0.0
H690 H 0.71592 0.73298 0.54014 0.0
H691 H 0.73869 0.75605 0.56277 0.0
H692 H 0.78596 0.83576 0.48483 0.0
H693 H 0.74775 0.85284 0.45538 0.0
H694 H 0.70883 0.76411 0.48396 0.0
C695 C 0.79776 0.72127 0.54049 0.0
C696 C 0.82361 0.73033 0.54499 0.0
C697 C 0.83159 0.76204 0.53586 0.0
C698 C 0.81451 0.78399 0.52169 0.0
C699 C 0.78935 0.77409 0.51707 0.0
C700 C 0.78086 0.74363 0.52647 0.0
C701 C 0.75307 0.73867 0.51747 0.0
C702 C 0.75007 0.70926 0.49522 0.0
C703 C 0.73634 0.73474 0.5468 0.0
C704 C 0.74746 0.77075 0.50077 0.0
C705 C 0.76873 0.79078 0.50093 0.0
C706 C 0.76907 0.82057 0.48506 0.0
C707 C 0.74729 0.83003 0.46834 0.0
C708 C 0.72524 0.81007 0.4678 0.0
C709 C 0.7252 0.78023 0.48466 0.0
H710 H 0.30137 0.75908 0.02198 0.0
H711 H 0.25888 0.84448 0.05255 0.0
H712 H 0.22051 0.82349 0.0263 0.0
H713 H 0.26899 0.749 0.94541 0.0
H714 H 0.26861 0.70494 0.94779 0.0
H715 H 0.29374 0.72778 0.96653 0.0
H716 H 0.2831 0.69983 0.0194 0.0
H717 H 0.2579 0.67701 1.00086 0.0
H718 H 0.25108 0.70212 0.03458 0.0
H719 H 0.1861 0.79282 0.99969 0.0
H720 H 0.15715 0.75335 0.97451 0.0
H721 H 0.22033 0.68606 0.96135 0.0
C722 C 0.28409 0.77355 0.02257 0.0
C723 C 0.28319 0.80357 0.0392 0.0
C724 C 0.26006 0.82145 0.04001 0.0
C725 C 0.23813 0.80979 0.02508 0.0
C726 C 0.23939 0.77995 0.00943 0.0
C727 C 0.26169 0.76194 0.008 0.0
C728 C 0.25711 0.72965 0.99107 0.0
C729 C 0.27306 0.72774 0.9609 0.0
C730 C 0.26263 0.70043 0.01278 0.0
C731 C 0.22879 0.73231 0.98369 0.0
C732 C 0.21912 0.76172 0.99432 0.0
C733 C 0.19346 0.76975 0.99108 0.0
C734 C 0.17712 0.7471 0.97675 0.0
C735 C 0.18636 0.71657 0.96584 0.0
C736 C 0.21266 0.70925 0.96925 0.0
H737 H 0.75524 0.19924 0.55292 0.0
H738 H 0.68932 0.23612 0.50262 0.0
H739 H 0.71762 0.26888 0.4687 0.0
H740 H 0.79092 0.27345 0.5524 0.0
H741 H 0.8214 0.25402 0.54662 0.0
H742 H 0.79615 0.23227 0.5662 0.0
H743 H 0.80003 0.18503 0.52601 0.0
H744 H 0.82531 0.20664 0.50626 0.0
H745 H 0.7975 0.19386 0.48472 0.0
H746 H 0.75251 0.30007 0.44226 0.0
H747 H 0.79184 0.32688 0.42399 0.0
H748 H 0.83609 0.26913 0.48975 0.0
C749 C 0.74677 0.21402 0.53461 0.0
C750 C 0.71997 0.21505 0.53047 0.0
C751 C 0.70972 0.2348 0.50627 0.0
C752 C 0.72567 0.25353 0.48684 0.0
C753 C 0.75192 0.25214 0.49167 0.0
C754 C 0.76248 0.23277 0.51482 0.0
C755 C 0.79134 0.23628 0.51531 0.0
C756 C 0.80048 0.24982 0.54702 0.0
C757 C 0.80431 0.2035 0.50761 0.0
C758 C 0.79532 0.26103 0.48914 0.0
C759 C 0.77225 0.26975 0.47588 0.0
C760 C 0.77069 0.29319 0.45226 0.0
C761 C 0.79318 0.30835 0.44207 0.0
C762 C 0.81712 0.3 0.45523 0.0
C763 C 0.81816 0.27568 0.47889 0.0
H764 H 0.71877 0.81016 0.0456 0.0
H765 H 0.65574 0.74432 0.02639 0.0
H766 H 0.6852 0.70628 0.99994 0.0
H767 H 0.75116 0.79887 0.9732 0.0
H768 H 0.78277 0.8 0.98967 0.0
H769 H 0.75713 0.8215 0.00873 0.0
H770 H 0.76627 0.79004 0.06021 0.0
H771 H 0.79196 0.76842 0.04128 0.0
H772 H 0.7666 0.7459 0.05991 0.0
H773 H 0.72027 0.67731 0.97244 0.0
H774 H 0.75935 0.65794 0.94649 0.0
H775 H 0.80113 0.74064 0.98435 0.0
C776 C 0.71123 0.78758 0.03611 0.0
C777 C 0.68484 0.78025 0.03814 0.0
C778 C 0.67578 0.75051 0.02525 0.0
C779 C 0.6924 0.72869 0.01017 0.0
C780 C 0.71817 0.73674 0.00831 0.0
C781 C 0.72765 0.76532 0.02106 0.0
C782 C 0.75616 0.76825 0.01498 0.0
C783 C 0.76215 0.79898 0.99548 0.0
C784 C 0.77113 0.76814 0.04594 0.0
C785 C 0.76106 0.73715 0.99631 0.0
C786 C 0.73878 0.71943 0.99286 0.0
C787 C 0.73788 0.69076 0.97528 0.0
C788 C 0.76021 0.68001 0.96054 0.0
C789 C 0.78334 0.69761 0.96355 0.0
C790 C 0.78384 0.72638 0.98208 0.0
H791 H 0.29566 0.19481 0.5565 0.0
H792 H 0.36011 0.25571 0.53063 0.0
H793 H 0.3312 0.29294 0.50224 0.0
H794 H 0.26205 0.20185 0.48447 0.0
H795 H 0.2308 0.20362 0.50194 0.0
H796 H 0.25622 0.18244 0.52175 0.0
H797 H 0.24919 0.21834 0.57102 0.0
H798 H 0.22369 0.23961 0.55137 0.0
H799 H 0.25007 0.26231 0.56745 0.0
H800 H 0.29624 0.32138 0.47361 0.0
H801 H 0.25701 0.3409 0.4481 0.0
H802 H 0.21394 0.26352 0.49339 0.0
C803 C 0.30365 0.21619 0.54516 0.0
C804 C 0.33026 0.22231 0.54588 0.0
C805 C 0.33988 0.25047 0.53055 0.0
C806 C 0.32358 0.2718 0.51432 0.0
C807 C 0.29757 0.26488 0.51376 0.0
C808 C 0.28755 0.23794 0.52895 0.0
C809 C 0.25886 0.23595 0.524 0.0
C810 C 0.25156 0.20407 0.50703 0.0
C811 C 0.24461 0.23926 0.55533 0.0
C812 C 0.25442 0.26567 0.50323 0.0
C813 C 0.2771 0.2819 0.49768 0.0
C814 C 0.27834 0.30909 0.47807 0.0
C815 C 0.25591 0.31993 0.46359 0.0
C816 C 0.23234 0.30391 0.46885 0.0
C817 C 0.23158 0.27657 0.48927 0.0
H818 H 0.80651 0.25593 0.019 0.0
H819 H 0.76645 0.34372 0.04799 0.0
H820 H 0.72819 0.32547 0.01941 0.0
H821 H 0.77617 0.24718 0.94089 0.0
H822 H 0.77404 0.20324 0.94375 0.0
H823 H 0.79946 0.22474 0.96332 0.0
H824 H 0.78627 0.19825 0.01603 0.0
H825 H 0.76081 0.17675 0.99666 0.0
H826 H 0.75396 0.20274 0.02975 0.0
H827 H 0.69354 0.29697 0.99044 0.0
H828 H 0.66381 0.25849 0.96504 0.0
H829 H 0.72477 0.1872 0.95636 0.0
C830 C 0.78983 0.27153 0.01865 0.0
C831 C 0.7895 0.30145 0.03539 0.0
C832 C 0.76712 0.32081 0.03521 0.0
C833 C 0.74531 0.3107 0.01895 0.0
C834 C 0.74597 0.28089 0.00315 0.0
C835 C 0.76755 0.26143 0.00293 0.0
C836 C 0.76228 0.22924 0.98622 0.0
C837 C 0.77898 0.22591 0.95679 0.0
C838 C 0.76605 0.20002 0.0085 0.0
C839 C 0.73436 0.23358 0.97758 0.0
C840 C 0.72551 0.26379 0.98721 0.0
C841 C 0.70027 0.2733 0.98262 0.0
C842 C 0.68349 0.25124 0.96813 0.0
C843 C 0.69187 0.21981 0.95861 0.0
C844 C 0.71777 0.2111 0.96319 0.0
H845 H 0.2094 0.74852 0.52131 0.0
H846 H 0.24858 0.6596 0.5489 0.0
H847 H 0.28662 0.677 0.51938 0.0
H848 H 0.23874 0.75685 0.44237 0.0
H849 H 0.24148 0.80073 0.44543 0.0
H850 H 0.21603 0.77965 0.46538 0.0
H851 H 0.23022 0.80552 0.51798 0.0
H852 H 0.25568 0.82661 0.49822 0.0
H853 H 0.26264 0.80027 0.53103 0.0
H854 H 0.32144 0.70511 0.48998 0.0
H855 H 0.35148 0.74359 0.46494 0.0
H856 H 0.29111 0.81587 0.45781 0.0
C857 C 0.22582 0.73248 0.52045 0.0
C858 C 0.22598 0.70253 0.53712 0.0
C859 C 0.24805 0.68258 0.53623 0.0
C860 C 0.26973 0.69219 0.51941 0.0
C861 C 0.26926 0.72206 0.50371 0.0
C862 C 0.24796 0.74205 0.50414 0.0
C863 C 0.25344 0.77421 0.48752 0.0
C864 C 0.23641 0.77808 0.45844 0.0
C865 C 0.25031 0.80337 0.51004 0.0
C866 C 0.28118 0.76933 0.4783 0.0
C867 C 0.28976 0.73884 0.48745 0.0
C868 C 0.31489 0.72898 0.48247 0.0
C869 C 0.33184 0.75102 0.46819 0.0
C870 C 0.32373 0.78274 0.45928 0.0
C871 C 0.29791 0.79172 0.4641 0.0
H872 H 0.1422 0.57682 0.01249 0.0
H873 H 0.13046 0.55197 0.91457 0.0
H874 H 0.12761 0.49389 0.92826 0.0
H875 H 0.18252 0.50912 0.02924 0.0
H876 H 0.17041 0.50195 0.06818 0.0
H877 H 0.1692 0.54246 0.05159 0.0
H878 H 0.12048 0.54458 0.06112 0.0
H879 H 0.12156 0.50408 0.07786 0.0
H880 H 0.1005 0.51259 0.0455 0.0
H881 H 0.12827 0.43836 0.9511 0.0
H882 H 0.13288 0.38801 0.98251 0.0
H883 H 0.1452 0.44687 0.06591 0.0
C884 C 0.13859 0.55915 0.9941 0.0
C885 C 0.13629 0.56915 0.96247 0.0
C886 C 0.13211 0.54518 0.93898 0.0
C887 C 0.13043 0.51196 0.94649 0.0
C888 C 0.13313 0.50279 0.97766 0.0
C889 C 0.13713 0.52552 1.00119 0.0
C890 C 0.14081 0.50851 0.03253 0.0
C891 C 0.16731 0.51596 0.04618 0.0
C892 C 0.11957 0.51801 0.05561 0.0
C893 C 0.13857 0.47285 0.02268 0.0
C894 C 0.13394 0.47025 0.99094 0.0
C895 C 0.13173 0.44001 0.97605 0.0
C896 C 0.13442 0.41154 0.99407 0.0
C897 C 0.13936 0.41347 0.02662 0.0
C898 C 0.14132 0.4446 0.04108 0.0
H899 H 0.86825 0.5589 0.55944 0.0
H900 H 0.88895 0.61652 0.47781 0.0
H901 H 0.89485 0.56563 0.44733 0.0
H902 H 0.91213 0.49093 0.54548 0.0
H903 H 0.88981 0.46036 0.5587 0.0
H904 H 0.88865 0.50115 0.57475 0.0
H905 H 0.8412 0.50599 0.55874 0.0
H906 H 0.84219 0.46524 0.54271 0.0
H907 H 0.83221 0.49906 0.5185 0.0
H908 H 0.89634 0.50942 0.42513 0.0
H909 H 0.89264 0.45119 0.41168 0.0
H910 H 0.87113 0.42882 0.50761 0.0
C911 C 0.87427 0.56079 0.53523 0.0
C912 C 0.87825 0.59167 0.52096 0.0
C913 C 0.88584 0.59315 0.48918 0.0
C914 C 0.88931 0.56438 0.47174 0.0
C915 C 0.88511 0.53437 0.48644 0.0
C916 C 0.87774 0.53231 0.51744 0.0
C917 C 0.87338 0.49696 0.52714 0.0
C918 C 0.89212 0.48675 0.55305 0.0
C919 C 0.84559 0.4915 0.53737 0.0
C920 C 0.87916 0.47948 0.49658 0.0
C921 C 0.88602 0.50163 0.47355 0.0
C922 C 0.89122 0.49182 0.44302 0.0
C923 C 0.88904 0.45858 0.43563 0.0
C924 C 0.88176 0.43533 0.45864 0.0
C925 C 0.87708 0.44593 0.48965 0.0
H926 H 0.84846 0.41613 0.01287 0.0
H927 H 0.80959 0.45791 0.09321 0.0
H928 H 0.80177 0.50866 0.06354 0.0
H929 H 0.88096 0.48675 0.9923 0.0
H930 H 0.8788 0.48135 0.95045 0.0
H931 H 0.87799 0.44625 0.97589 0.0
H932 H 0.83491 0.42823 0.95178 0.0
H933 H 0.83572 0.46316 0.92597 0.0
H934 H 0.80858 0.45658 0.95111 0.0
H935 H 0.80294 0.55715 0.02822 0.0
H936 H 0.81134 0.59947 0.98815 0.0
H937 H 0.84937 0.52674 0.93043 0.0
C938 C 0.83756 0.43557 0.02375 0.0
C939 C 0.82946 0.43304 0.05522 0.0
C940 C 0.81592 0.45936 0.06907 0.0
C941 C 0.81133 0.48827 0.05241 0.0
C942 C 0.82037 0.49056 0.02184 0.0
C943 C 0.83299 0.46486 0.00746 0.0
C944 C 0.84259 0.47483 0.97532 0.0
C945 C 0.87181 0.47214 0.97341 0.0
C946 C 0.82967 0.45449 0.94952 0.0
C947 C 0.83394 0.51025 0.97434 0.0
C948 C 0.82102 0.51876 1.00131 0.0
C949 C 0.81266 0.55069 0.00672 0.0
C950 C 0.81764 0.5746 0.98392 0.0
C951 C 0.83084 0.56645 0.95604 0.0
C952 C 0.83886 0.53371 0.95123 0.0
H953 H 0.16681 0.42015 0.49822 0.0
H954 H 0.20855 0.4599 0.4192 0.0
H955 H 0.21463 0.51179 0.4477 0.0
H956 H 0.13269 0.49017 0.51427 0.0
H957 H 0.1331 0.48667 0.55639 0.0
H958 H 0.13565 0.45052 0.53251 0.0
H959 H 0.17794 0.43487 0.55997 0.0
H960 H 0.17532 0.47075 0.58437 0.0
H961 H 0.20366 0.4641 0.56134 0.0
H962 H 0.21085 0.56161 0.48088 0.0
H963 H 0.2003 0.60513 0.51894 0.0
H964 H 0.16111 0.53364 0.57688 0.0
C965 C 0.1781 0.43935 0.48756 0.0
C966 C 0.18749 0.43597 0.45671 0.0
C967 C 0.20138 0.462 0.44294 0.0
C968 C 0.20492 0.49156 0.45892 0.0
C969 C 0.19449 0.49476 0.48873 0.0
C970 C 0.18165 0.46927 0.50318 0.0
C971 C 0.17045 0.48023 0.53422 0.0
C972 C 0.14125 0.47669 0.53433 0.0
C973 C 0.18257 0.46137 0.5616 0.0
C974 C 0.1784 0.51594 0.53444 0.0
C975 C 0.19235 0.52376 0.50805 0.0
C976 C 0.20034 0.5557 0.50196 0.0
C977 C 0.19409 0.58031 0.52358 0.0
C978 C 0.18003 0.57283 0.55099 0.0
C979 C 0.17222 0.54012 0.55641 0.0
H980 H 0.64439 0.04784 0.9383 0.0
H981 H 0.62557 0.10643 0.02004 0.0
H982 H 0.61977 0.05613 0.05106 0.0
H983 H 0.59973 0.98032 0.95498 0.0
H984 H 0.62141 0.94919 0.94133 0.0
H985 H 0.62247 0.9897 0.9246 0.0
H986 H 0.67038 0.99401 0.93853 0.0
H987 H 0.66947 0.95358 0.95531 0.0
H988 H 0.6804 0.98769 0.9785 0.0
H989 H 0.61918 1.00086 0.07429 0.0
H990 H 0.62314 0.943 0.08882 0.0
H991 H 0.64127 0.91812 0.99242 0.0
C992 C 0.63874 0.05001 0.96263 0.0
C993 C 0.63539 0.08111 0.97676 0.0
C994 C 0.62822 0.08295 0.0087 0.0
C995 C 0.62482 0.05449 0.02651 0.0
C996 C 0.62853 0.02429 0.01205 0.0
C997 C 0.63522 0.02172 0.98084 0.0
C998 C 0.639 0.98608 0.9716 0.0
C999 C 0.61948 0.97571 0.94664 0.0
C1000 C 0.66644 0.98 0.96032 0.0
C1001 C 0.6339 0.96917 1.00269 0.0
C1002 C 0.62779 0.99185 0.02556 0.0
C1003 C 0.62362 0.98281 0.05654 0.0
C1004 C 0.62598 0.94976 0.06456 0.0
C1005 C 0.6323 0.9259 0.04174 0.0
C1006 C 0.63598 0.93573 0.01025 0.0
H1007 H 0.3726 0.95484 0.44668 0.0
H1008 H 0.38189 0.89407 0.5294 0.0
H1009 H 0.3849 0.94369 0.5622 0.0
H1010 H 0.41625 0.01994 0.47119 0.0
H1011 H 0.39689 0.05209 0.45474 0.0
H1012 H 0.39659 0.01185 0.43741 0.0
H1013 H 0.34755 0.00938 0.44379 0.0
H1014 H 0.34768 0.04954 0.46119 0.0
H1015 H 0.33366 0.01561 0.48199 0.0
H1016 H 0.38406 0.99898 0.58633 0.0
H1017 H 0.38102 0.05706 0.6007 0.0
H1018 H 0.37366 0.08331 0.50248 0.0
C1019 C 0.37551 0.952 0.47167 0.0
C1020 C 0.37703 0.92057 0.48554 0.0
C1021 C 0.38074 0.91787 0.51829 0.0
C1022 C 0.38247 0.94591 0.5371 0.0
C1023 C 0.38064 0.97648 0.52277 0.0
C1024 C 0.37741 0.97979 0.49081 0.0
C1025 C 0.37546 0.01561 0.48154 0.0
C1026 C 0.39762 0.02545 0.45994 0.0
C1027 C 0.34954 0.02295 0.46623 0.0
C1028 C 0.37771 0.03188 0.5134 0.0
C1029 C 0.38069 0.00873 0.53676 0.0
C1030 C 0.38205 0.01737 0.56823 0.0
C1031 C 0.38028 0.05052 0.57614 0.0
C1032 C 0.37736 0.07485 0.5527 0.0
C1033 C 0.37624 0.06534 0.52086 0.0
H1034 H 0.34361 0.97712 0.06798 0.0
H1035 H 0.3215 0.89826 0.00526 0.0
H1036 H 0.31585 0.93842 0.96251 0.0
H1037 H 0.30037 0.03941 0.03658 0.0
H1038 H 0.32334 0.07185 0.04125 0.0
H1039 H 0.32368 0.03731 0.06755 0.0
H1040 H 0.37102 0.02643 0.05376 0.0
H1041 H 0.37085 0.0609 0.02749 0.0
H1042 H 0.38007 0.02105 0.01331 0.0
H1043 H 0.31546 0.98644 0.92586 0.0
H1044 H 0.32106 0.03846 0.89751 0.0
H1045 H 0.34329 0.08623 0.98424 0.0
C1046 C 0.33723 0.9682 0.04543 0.0
C1047 C 0.33293 0.9344 0.04009 0.0
C1048 C 0.3249 0.92396 0.01001 0.0
C1049 C 0.32155 0.9466 0.98559 0.0
C1050 C 0.32621 0.97963 0.99165 0.0
C1051 C 0.33384 0.99041 0.02083 0.0
C1052 C 0.33896 0.02696 0.0208 0.0
C1053 C 0.32048 0.04494 0.04285 0.0
C1054 C 0.36688 0.03424 0.02933 0.0
C1055 C 0.33348 0.03502 0.98682 0.0
C1056 C 0.32596 0.00739 0.9705 0.0
C1057 C 0.32109 0.00827 0.93846 0.0
C1058 C 0.3244 0.03798 0.92256 0.0
C1059 C 0.33256 0.06653 0.93864 0.0
C1060 C 0.33668 0.06503 0.97135 0.0
H1061 H 0.67115 0.03076 0.56871 0.0
H1062 H 0.69616 0.10858 0.50646 0.0
H1063 H 0.70202 0.06812 0.46406 0.0
H1064 H 0.71367 0.9666 0.53868 0.0
H1065 H 0.68986 0.93504 0.54249 0.0
H1066 H 0.6897 0.96955 0.56883 0.0
H1067 H 0.64298 0.98228 0.55343 0.0
H1068 H 0.64297 0.94782 0.52714 0.0
H1069 H 0.63501 0.98801 0.51269 0.0
H1070 H 0.70256 0.02032 0.42772 0.0
H1071 H 0.69626 0.96878 0.39892 0.0
H1072 H 0.67067 0.92147 0.48446 0.0
C1073 C 0.67826 0.03932 0.54633 0.0
C1074 C 0.68334 0.07295 0.54103 0.0
C1075 C 0.69217 0.08303 0.51117 0.0
C1076 C 0.69566 0.06019 0.48697 0.0
C1077 C 0.69028 0.02735 0.49298 0.0
C1078 C 0.68173 0.0169 0.52189 0.0
C1079 C 0.67578 0.98053 0.5216 0.0
C1080 C 0.6933 0.96183 0.54425 0.0
C1081 C 0.64751 0.97431 0.52915 0.0
C1082 C 0.68186 0.97226 0.48778 0.0
C1083 C 0.69044 0.99962 0.47184 0.0
C1084 C 0.69607 0.99869 0.44001 0.0
C1085 C 0.69236 0.96925 0.42385 0.0
C1086 C 0.68301 0.94101 0.43943 0.0
C1087 C 0.67821 0.94244 0.47201 0.0
loop_
_geom_bond_atom_site_label_1
_geom_bond_atom_site_label_2
_geom_bond_distance
_geom_bond_site_symmetry_2
_ccdc_geom_bond_type
Co0 O1 2.216 . S
Co0 O2 2.091 . S
Co0 O4 2.004 . S
Co0 O10 2.021 . S
Co0 O12 2.137 . S
Co0 O13 2.244 . S
O1 Co0 2.216 . S
O1 C8 1.247 . S
O2 Co0 2.091 . S
O2 C8 1.261 . S
C3 O12 1.247 . S
C3 O13 1.272 . S
O4 Co0 2.004 . S
O4 C9 1.259 . S
Co5 O6 2.061 . S
Co5 O11 2.052 . S
Co5 O13 2.135 . S
O6 Co5 2.061 . S
O6 C9 1.235 . S
C7 O10 1.238 . S
C7 O11 1.241 . S
C8 O1 1.247 . S
C8 O2 1.261 . S
C9 O4 1.259 . S
C9 O6 1.235 . S
O10 Co0 2.021 . S
O10 C7 1.238 . S
O11 Co5 2.052 . S
O11 C7 1.241 . S
O12 Co0 2.137 . S
O12 C3 1.247 . S
O13 Co0 2.244 . S
O13 C3 1.272 . S
O13 Co5 2.135 . S
Co14 O15 2.216 . S
Co14 O16 2.091 . S
Co14 O18 2.004 . S
Co14 O24 2.021 . S
Co14 O26 2.137 . S
Co14 O27 2.244 . S
O15 Co14 2.216 . S
O15 C22 1.247 . S
O16 Co14 2.091 . S
O16 C22 1.261 . S
C17 O26 1.247 . S
C17 O27 1.272 . S
O18 Co14 2.004 . S
O18 C23 1.259 . S
Co19 O20 2.061 . S
Co19 O25 2.052 . S
Co19 O27 2.135 . S
O20 Co19 2.061 . S
O20 C23 1.235 . S
C21 O24 1.238 . S
C21 O25 1.241 . S
C22 O15 1.247 . S
C22 O16 1.261 . S
C23 O18 1.259 . S
C23 O20 1.235 . S
O24 Co14 2.021 . S
O24 C21 1.238 . S
O25 Co19 2.052 . S
O25 C21 1.241 . S
O26 Co14 2.137 . S
O26 C17 1.247 . S
O27 Co14 2.244 . S
O27 C17 1.272 . S
O27 Co19 2.135 . S
Co28 O29 2.216 . S
Co28 O30 2.091 . S
Co28 O32 2.004 . S
Co28 O38 2.021 . S
Co28 O40 2.137 . S
Co28 O41 2.244 . S
O29 Co28 2.216 . S
O29 C36 1.247 . S
O30 Co28 2.091 . S
O30 C36 1.261 . S
C31 O40 1.247 . S
C31 O41 1.272 . S
O32 Co28 2.004 . S
O32 C37 1.259 . S
Co33 O34 2.061 . S
Co33 O39 2.052 . S
Co33 O41 2.135 . S
O34 Co33 2.061 . S
O34 C37 1.235 . S
C35 O38 1.238 . S
C35 O39 1.241 . S
C36 O29 1.247 . S
C36 O30 1.261 . S
C37 O32 1.259 . S
C37 O34 1.235 . S
O38 Co28 2.021 . S
O38 C35 1.238 . S
O39 Co33 2.052 . S
O39 C35 1.241 . S
O40 Co28 2.137 . S
O40 C31 1.247 . S
O41 Co28 2.244 . S
O41 C31 1.272 . S
O41 Co33 2.135 . S
Co42 O43 2.216 . S
Co42 O44 2.091 . S
Co42 O46 2.004 . S
Co42 O52 2.021 . S
Co42 O54 2.137 . S
Co42 O55 2.244 . S
O43 Co42 2.216 . S
O43 C50 1.247 . S
O44 Co42 2.091 . S
O44 C50 1.261 . S
C45 O54 1.247 . S
C45 O55 1.272 . S
O46 Co42 2.004 . S
O46 C51 1.259 . S
Co47 O48 2.061 . S
Co47 O53 2.052 . S
Co47 O55 2.135 . S
O48 Co47 2.061 . S
O48 C51 1.235 . S
C49 O52 1.238 . S
C49 O53 1.241 . S
C50 O43 1.247 . S
C50 O44 1.261 . S
C51 O46 1.259 . S
C51 O48 1.235 . S
O52 Co42 2.021 . S
O52 C49 1.238 . S
O53 Co47 2.052 . S
O53 C49 1.241 . S
O54 Co42 2.137 . S
O54 C45 1.247 . S
O55 Co42 2.244 . S
O55 C45 1.272 . S
O55 Co47 2.135 . S
Co56 O57 2.216 . S
Co56 O58 2.091 . S
Co56 O60 2.004 . S
Co56 O66 2.021 . S
Co56 O68 2.137 . S
Co56 O69 2.244 . S
O57 Co56 2.216 . S
O57 C64 1.247 . S
O58 Co56 2.091 . S
O58 C64 1.261 . S
C59 O68 1.247 . S
C59 O69 1.272 . S
O60 Co56 2.004 . S
O60 C65 1.259 . S
Co61 O62 2.061 . S
Co61 O67 2.052 . S
Co61 O69 2.135 . S
O62 Co61 2.061 . S
O62 C65 1.235 . S
C63 O66 1.238 . S
C63 O67 1.241 . S
C64 O57 1.247 . S
C64 O58 1.261 . S
C65 O60 1.259 . S
C65 O62 1.235 . S
O66 Co56 2.021 . S
O66 C63 1.238 . S
O67 Co61 2.052 . S
O67 C63 1.241 . S
O68 Co56 2.137 . S
O68 C59 1.247 . S
O69 Co56 2.244 . S
O69 C59 1.272 . S
O69 Co61 2.135 . S
Co70 O71 2.216 . S
Co70 O72 2.091 . S
Co70 O74 2.004 . S
Co70 O80 2.021 . S
Co70 O82 2.137 . S
Co70 O83 2.244 . S
O71 Co70 2.216 . S
O71 C78 1.247 . S
O72 Co70 2.091 . S
O72 C78 1.261 . S
C73 O82 1.247 . S
C73 O83 1.272 . S
O74 Co70 2.004 . S
O74 C79 1.259 . S
Co75 O76 2.061 . S
Co75 O81 2.052 . S
Co75 O83 2.135 . S
O76 Co75 2.061 . S
O76 C79 1.235 . S
C77 O80 1.238 . S
C77 O81 1.241 . S
C78 O71 1.247 . S
C78 O72 1.261 . S
C79 O74 1.259 . S
C79 O76 1.235 . S
O80 Co70 2.021 . S
O80 C77 1.238 . S
O81 Co75 2.052 . S
O81 C77 1.241 . S
O82 Co70 2.137 . S
O82 C73 1.247 . S
O83 Co70 2.244 . S
O83 C73 1.272 . S
O83 Co75 2.135 . S
Co84 O85 2.216 . S
Co84 O86 2.091 . S
Co84 O88 2.004 . S
Co84 O94 2.021 . S
Co84 O96 2.137 . S
Co84 O97 2.244 . S
O85 Co84 2.216 . S
O85 C92 1.247 . S
O86 Co84 2.091 . S
O86 C92 1.261 . S
C87 O96 1.247 . S
C87 O97 1.272 . S
O88 Co84 2.004 . S
O88 C93 1.259 . S
Co89 O90 2.061 . S
Co89 O95 2.052 . S
Co89 O97 2.135 . S
O90 Co89 2.061 . S
O90 C93 1.235 . S
C91 O94 1.238 . S
C91 O95 1.241 . S
C92 O85 1.247 . S
C92 O86 1.261 . S
C93 O88 1.259 . S
C93 O90 1.235 . S
O94 Co84 2.021 . S
O94 C91 1.238 . S
O95 Co89 2.052 . S
O95 C91 1.241 . S
O96 Co84 2.137 . S
O96 C87 1.247 . S
O97 Co84 2.244 . S
O97 C87 1.272 . S
O97 Co89 2.135 . S
Co98 O99 2.216 . S
Co98 O100 2.091 . S
Co98 O102 2.004 . S
Co98 O108 2.021 . S
Co98 O110 2.137 . S
Co98 O111 2.244 . S
O99 Co98 2.216 . S
O99 C106 1.247 . S
O100 Co98 2.091 . S
O100 C106 1.261 . S
C101 O110 1.247 . S
C101 O111 1.272 . S
O102 Co98 2.004 . S
O102 C107 1.259 . S
Co103 O104 2.061 . S
Co103 O109 2.052 . S
Co103 O111 2.135 . S
O104 Co103 2.061 . S
O104 C107 1.235 . S
C105 O108 1.238 . S
C105 O109 1.241 . S
C106 O99 1.247 . S
C106 O100 1.261 . S
C107 O102 1.259 . S
C107 O104 1.235 . S
O108 Co98 2.021 . S
O108 C105 1.238 . S
O109 Co103 2.052 . S
O109 C105 1.241 . S
O110 Co98 2.137 . S
O110 C101 1.247 . S
O111 Co98 2.244 . S
O111 C101 1.272 . S
O111 Co103 2.135 . S
Co112 O113 2.216 . S
Co112 O114 2.091 . S
Co112 O116 2.004 . S
Co112 O122 2.021 . S
Co112 O124 2.137 . S
Co112 O125 2.244 . S
O113 Co112 2.216 . S
O113 C120 1.247 . S
O114 Co112 2.091 . S
O114 C120 1.261 . S
C115 O124 1.247 . S
C115 O125 1.272 . S
O116 Co112 2.004 . S
O116 C121 1.259 . S
Co117 O118 2.061 . S
Co117 O123 2.052 . S
Co117 O125 2.135 . S
O118 Co117 2.061 . S
O118 C121 1.235 . S
C119 O122 1.238 . S
C119 O123 1.241 . S
C120 O113 1.247 . S
C120 O114 1.261 . S
C121 O116 1.259 . S
C121 O118 1.235 . S
O122 Co112 2.021 . S
O122 C119 1.238 . S
O123 Co117 2.052 . S
O123 C119 1.241 . S
O124 Co112 2.137 . S
O124 C115 1.247 . S
O125 Co112 2.244 . S
O125 C115 1.272 . S
O125 Co117 2.135 . S
Co126 O127 2.216 . S
Co126 O128 2.091 . S
Co126 O130 2.004 . S
Co126 O136 2.021 . S
Co126 O138 2.137 . S
Co126 O139 2.244 . S
O127 Co126 2.216 . S
O127 C134 1.247 . S
O128 Co126 2.091 . S
O128 C134 1.261 . S
C129 O138 1.247 . S
C129 O139 1.272 . S
O130 Co126 2.004 . S
O130 C135 1.259 . S
Co131 O132 2.061 . S
Co131 O137 2.052 . S
Co131 O139 2.135 . S
O132 Co131 2.061 . S
O132 C135 1.235 . S
C133 O136 1.238 . S
C133 O137 1.241 . S
C134 O127 1.247 . S
C134 O128 1.261 . S
C135 O130 1.259 . S
C135 O132 1.235 . S
O136 Co126 2.021 . S
O136 C133 1.238 . S
O137 Co131 2.052 . S
O137 C133 1.241 . S
O138 Co126 2.137 . S
O138 C129 1.247 . S
O139 Co126 2.244 . S
O139 C129 1.272 . S
O139 Co131 2.135 . S
Co140 O141 2.216 . S
Co140 O142 2.091 . S
Co140 O144 2.004 . S
Co140 O150 2.021 . S
Co140 O152 2.137 . S
Co140 O153 2.244 . S
O141 Co140 2.216 . S
O141 C148 1.247 . S
O142 Co140 2.091 . S
O142 C148 1.261 . S
C143 O152 1.247 . S
C143 O153 1.272 . S
O144 Co140 2.004 . S
O144 C149 1.259 . S
Co145 O146 2.061 . S
Co145 O151 2.052 . S
Co145 O153 2.135 . S
O146 Co145 2.061 . S
O146 C149 1.235 . S
C147 O150 1.238 . S
C147 O151 1.241 . S
C148 O141 1.247 . S
C148 O142 1.261 . S
C149 O144 1.259 . S
C149 O146 1.235 . S
O150 Co140 2.021 . S
O150 C147 1.238 . S
O151 Co145 2.052 . S
O151 C147 1.241 . S
O152 Co140 2.137 . S
O152 C143 1.247 . S
O153 Co140 2.244 . S
O153 C143 1.272 . S
O153 Co145 2.135 . S
Co154 O155 2.216 . S
Co154 O156 2.091 . S
Co154 O158 2.004 . S
Co154 O164 2.021 . S
Co154 O166 2.137 . S
Co154 O167 2.244 . S
O155 Co154 2.216 . S
O155 C162 1.247 . S
O156 Co154 2.091 . S
O156 C162 1.261 . S
C157 O166 1.247 . S
C157 O167 1.272 . S
O158 Co154 2.004 . S
O158 C163 1.259 . S
Co159 O160 2.061 . S
Co159 O165 2.052 . S
Co159 O167 2.135 . S
O160 Co159 2.061 . S
O160 C163 1.235 . S
C161 O164 1.238 . S
C161 O165 1.241 . S
C162 O155 1.247 . S
C162 O156 1.261 . S
C163 O158 1.259 . S
C163 O160 1.235 . S
O164 Co154 2.021 . S
O164 C161 1.238 . S
O165 Co159 2.052 . S
O165 C161 1.241 . S
O166 Co154 2.137 . S
O166 C157 1.247 . S
O167 Co154 2.244 . S
O167 C157 1.272 . S
O167 Co159 2.135 . S
Co168 O169 2.216 . S
Co168 O170 2.091 . S
Co168 O172 2.004 . S
Co168 O178 2.021 . S
Co168 O180 2.137 . S
Co168 O181 2.244 . S
O169 Co168 2.216 . S
O169 C176 1.247 . S
O170 Co168 2.091 . S
O170 C176 1.261 . S
C171 O180 1.247 . S
C171 O181 1.272 . S
O172 Co168 2.004 . S
O172 C177 1.259 . S
Co173 O174 2.061 . S
Co173 O179 2.052 . S
Co173 O181 2.135 . S
O174 Co173 2.061 . S
O174 C177 1.235 . S
C175 O178 1.238 . S
C175 O179 1.241 . S
C176 O169 1.247 . S
C176 O170 1.261 . S
C177 O172 1.259 . S
C177 O174 1.235 . S
O178 Co168 2.021 . S
O178 C175 1.238 . S
O179 Co173 2.052 . S
O179 C175 1.241 . S
O180 Co168 2.137 . S
O180 C171 1.247 . S
O181 Co168 2.244 . S
O181 C171 1.272 . S
O181 Co173 2.135 . S
Co182 O183 2.216 . S
Co182 O184 2.091 . S
Co182 O186 2.004 . S
Co182 O192 2.021 . S
Co182 O194 2.137 . S
Co182 O195 2.244 . S
O183 Co182 2.216 . S
O183 C190 1.247 . S
O184 Co182 2.091 . S
O184 C190 1.261 . S
C185 O194 1.247 . S
C185 O195 1.272 . S
O186 Co182 2.004 . S
O186 C191 1.259 . S
Co187 O188 2.061 . S
Co187 O193 2.052 . S
Co187 O195 2.135 . S
O188 Co187 2.061 . S
O188 C191 1.235 . S
C189 O192 1.238 . S
C189 O193 1.241 . S
C190 O183 1.247 . S
C190 O184 1.261 . S
C191 O186 1.259 . S
C191 O188 1.235 . S
O192 Co182 2.021 . S
O192 C189 1.238 . S
O193 Co187 2.052 . S
O193 C189 1.241 . S
O194 Co182 2.137 . S
O194 C185 1.247 . S
O195 Co182 2.244 . S
O195 C185 1.272 . S
O195 Co187 2.135 . S
Co196 O197 2.216 . S
Co196 O198 2.091 . S
Co196 O200 2.004 . S
Co196 O206 2.021 . S
Co196 O208 2.137 . S
Co196 O209 2.244 . S
O197 Co196 2.216 . S
O197 C204 1.247 . S
O198 Co196 2.091 . S
O198 C204 1.261 . S
C199 O208 1.247 . S
C199 O209 1.272 . S
O200 Co196 2.004 . S
O200 C205 1.259 . S
Co201 O202 2.061 . S
Co201 O207 2.052 . S
Co201 O209 2.135 . S
O202 Co201 2.061 . S
O202 C205 1.235 . S
C203 O206 1.238 . S
C203 O207 1.241 . S
C204 O197 1.247 . S
C204 O198 1.261 . S
C205 O200 1.259 . S
C205 O202 1.235 . S
O206 Co196 2.021 . S
O206 C203 1.238 . S
O207 Co201 2.052 . S
O207 C203 1.241 . S
O208 Co196 2.137 . S
O208 C199 1.247 . S
O209 Co196 2.244 . S
O209 C199 1.272 . S
O209 Co201 2.135 . S
Co210 O211 2.216 . S
Co210 O212 2.091 . S
Co210 O214 2.004 . S
Co210 O220 2.021 . S
Co210 O222 2.137 . S
Co210 O223 2.244 . S
O211 Co210 2.216 . S
O211 C218 1.247 . S
O212 Co210 2.091 . S
O212 C218 1.261 . S
C213 O222 1.247 . S
C213 O223 1.272 . S
O214 Co210 2.004 . S
O214 C219 1.259 . S
Co215 O216 2.061 . S
Co215 O221 2.052 . S
Co215 O223 2.135 . S
O216 Co215 2.061 . S
O216 C219 1.235 . S
C217 O220 1.238 . S
C217 O221 1.241 . S
C218 O211 1.247 . S
C218 O212 1.261 . S
C219 O214 1.259 . S
C219 O216 1.235 . S
O220 Co210 2.021 . S
O220 C217 1.238 . S
O221 Co215 2.052 . S
O221 C217 1.241 . S
O222 Co210 2.137 . S
O222 C213 1.247 . S
O223 Co210 2.244 . S
O223 C213 1.272 . S
O223 Co215 2.135 . S
H224 C236 0.930 . S
H225 C238 0.930 . S
H226 C239 0.930 . S
H227 C243 0.959 . S
H228 C243 0.959 . S
H229 C243 0.961 1_455 S
H230 C244 0.960 1_455 S
H231 C244 0.961 . S
H232 C244 0.959 . S
H233 C247 0.929 . S
H234 C248 0.931 . S
H235 C250 0.930 . S
C236 H224 0.930 . S
C236 C237 1.399 . S
C236 C241 1.399 . S
C237 C236 1.399 . S
C237 C238 1.376 . S
C238 H225 0.930 . S
C238 C237 1.376 . S
C238 C239 1.388 . S
C239 H226 0.930 . S
C239 C238 1.388 . S
C239 C240 1.390 . S
C240 C239 1.390 . S
C240 C241 1.394 . S
C240 C246 1.465 1_455 S
C241 C236 1.399 . S
C241 C240 1.394 . S
C241 C242 1.516 1_455 S
C242 C241 1.516 1_655 S
C242 C243 1.502 . S
C242 C244 1.561 . S
C242 C245 1.526 . S
C243 H227 0.959 . S
C243 H228 0.959 . S
C243 H229 0.961 1_655 S
C243 C242 1.502 . S
C244 H230 0.960 1_655 S
C244 H231 0.961 . S
C244 H232 0.959 . S
C244 C242 1.561 . S
C245 C242 1.526 . S
C245 C246 1.396 . S
C245 C250 1.390 . S
C246 C240 1.465 1_655 S
C246 C245 1.396 . S
C246 C247 1.399 . S
C247 H233 0.929 . S
C247 C246 1.399 . S
C247 C248 1.385 . S
C248 H234 0.931 . S
C248 C247 1.385 . S
C248 C249 1.389 . S
C249 C248 1.389 . S
C249 C250 1.387 . S
C250 H235 0.930 . S
C250 C245 1.390 . S
C250 C249 1.387 . S
H251 C263 0.930 . S
H252 C265 0.930 . S
H253 C266 0.930 . S
H254 C270 0.959 . S
H255 C270 0.959 . S
H256 C270 0.961 1_655 S
H257 C271 0.960 1_655 S
H258 C271 0.961 . S
H259 C271 0.959 . S
H260 C274 0.929 . S
H261 C275 0.931 . S
H262 C277 0.930 . S
C263 H251 0.930 . S
C263 C264 1.399 . S
C263 C268 1.399 . S
C264 C263 1.399 . S
C264 C265 1.376 . S
C265 H252 0.930 . S
C265 C264 1.376 . S
C265 C266 1.388 . S
C266 H253 0.930 . S
C266 C265 1.388 . S
C266 C267 1.390 . S
C267 C266 1.390 . S
C267 C268 1.394 . S
C267 C273 1.465 1_655 S
C268 C263 1.399 . S
C268 C267 1.394 . S
C268 C269 1.516 1_655 S
C269 C268 1.516 1_455 S
C269 C270 1.502 . S
C269 C271 1.561 . S
C269 C272 1.526 . S
C270 H254 0.959 . S
C270 H255 0.959 . S
C270 H256 0.961 1_455 S
C270 C269 1.502 . S
C271 H257 0.960 1_455 S
C271 H258 0.961 . S
C271 H259 0.959 . S
C271 C269 1.561 . S
C272 C269 1.526 . S
C272 C273 1.396 . S
C272 C277 1.390 . S
C273 C267 1.465 1_455 S
C273 C272 1.396 . S
C273 C274 1.399 . S
C274 H260 0.929 . S
C274 C273 1.399 . S
C274 C275 1.385 . S
C275 H261 0.931 . S
C275 C274 1.385 . S
C275 C276 1.389 . S
C276 C275 1.389 . S
C276 C277 1.387 . S
C277 H262 0.930 . S
C277 C272 1.390 . S
C277 C276 1.387 . S
H278 C290 0.930 . S
H279 C292 0.930 . S
H280 C293 0.930 . S
H281 C297 0.959 . S
H282 C297 0.947 1_454 S
H283 C297 0.963 . S
H284 C298 0.960 . S
H285 C298 0.961 1_455 S
H286 C298 0.959 . S
H287 C301 0.929 . S
H288 C302 0.931 . S
H289 C304 0.930 . S
C290 H278 0.930 . S
C290 C291 1.399 . S
C290 C295 1.399 . S
C291 C290 1.399 . S
C291 C292 1.376 . S
C292 H279 0.930 . S
C292 C291 1.376 . S
C292 C293 1.388 . S
C293 H280 0.930 . S
C293 C292 1.388 . S
C293 C294 1.390 . S
C294 C293 1.390 . S
C294 C295 1.394 . S
C294 C300 1.465 1_655 S
C295 C290 1.399 . S
C295 C294 1.394 . S
C295 C296 1.516 . S
C296 C295 1.516 . S
C296 C297 1.502 . S
C296 C298 1.561 . S
C296 C299 1.526 1_655 S
C297 H281 0.959 . S
C297 H282 0.947 1_656 S
C297 H283 0.963 . S
C297 C296 1.502 . S
C298 H284 0.960 . S
C298 H285 0.961 1_655 S
C298 H286 0.959 . S
C298 C296 1.561 . S
C299 C296 1.526 1_455 S
C299 C300 1.396 . S
C299 C304 1.390 . S
C300 C294 1.465 1_455 S
C300 C299 1.396 . S
C300 C301 1.399 . S
C301 H287 0.929 . S
C301 C300 1.399 . S
C301 C302 1.385 . S
C302 H288 0.931 . S
C302 C301 1.385 . S
C302 C303 1.389 . S
C303 C302 1.389 . S
C303 C304 1.387 . S
C304 H289 0.930 . S
C304 C299 1.390 . S
C304 C303 1.387 . S
H305 C317 0.930 . S
H306 C319 0.930 . S
H307 C320 0.930 . S
H308 C324 0.959 . S
H309 C324 0.959 1_655 S
H310 C324 0.961 . S
H311 C325 0.960 . S
H312 C325 0.961 1_655 S
H313 C325 0.959 . S
H314 C328 0.929 . S
H315 C329 0.931 . S
H316 C331 0.930 . S
C317 H305 0.930 . S
C317 C318 1.399 . S
C317 C322 1.399 . S
C318 C317 1.399 . S
C318 C319 1.376 . S
C319 H306 0.930 . S
C319 C318 1.376 . S
C319 C320 1.388 . S
C320 H307 0.930 . S
C320 C319 1.388 . S
C320 C321 1.390 . S
C321 C320 1.390 . S
C321 C322 1.394 . S
C321 C327 1.465 1_455 S
C322 C317 1.399 . S
C322 C321 1.394 . S
C322 C323 1.516 . S
C323 C322 1.516 . S
C323 C324 1.502 . S
C323 C325 1.561 . S
C323 C326 1.526 1_455 S
C324 H308 0.959 . S
C324 H309 0.959 1_455 S
C324 H310 0.961 . S
C324 C323 1.502 . S
C325 H311 0.960 . S
C325 H312 0.961 1_455 S
C325 H313 0.959 . S
C325 C323 1.561 . S
C326 C323 1.526 1_655 S
C326 C327 1.396 . S
C326 C331 1.390 . S
C327 C321 1.465 1_655 S
C327 C326 1.396 . S
C327 C328 1.399 . S
C328 H314 0.929 . S
C328 C327 1.399 . S
C328 C329 1.385 . S
C329 H315 0.931 . S
C329 C328 1.385 . S
C329 C330 1.389 . S
C330 C329 1.389 . S
C330 C331 1.387 . S
C331 H316 0.930 . S
C331 C326 1.390 . S
C331 C330 1.387 . S
H332 C344 0.930 . S
H333 C346 0.930 . S
H334 C347 0.930 . S
H335 C351 0.959 . S
H336 C351 0.959 . S
H337 C351 0.961 . S
H338 C352 0.960 . S
H339 C352 0.961 . S
H340 C352 0.959 . S
H341 C355 0.929 . S
H342 C356 0.931 . S
H343 C358 0.930 . S
C344 H332 0.930 . S
C344 C345 1.399 . S
C344 C349 1.399 . S
C345 C344 1.399 . S
C345 C346 1.376 . S
C346 H333 0.930 . S
C346 C345 1.376 . S
C346 C347 1.388 . S
C347 H334 0.930 . S
C347 C346 1.388 . S
C347 C348 1.390 . S
C348 C347 1.390 . S
C348 C349 1.394 . S
C348 C354 1.465 . S
C349 C344 1.399 . S
C349 C348 1.394 . S
C349 C350 1.516 . S
C350 C349 1.516 . S
C350 C351 1.502 . S
C350 C352 1.561 . S
C350 C353 1.526 . S
C351 H335 0.959 . S
C351 H336 0.959 . S
C351 H337 0.961 . S
C351 C350 1.502 . S
C352 H338 0.960 . S
C352 H339 0.961 . S
C352 H340 0.959 . S
C352 C350 1.561 . S
C353 C350 1.526 . S
C353 C354 1.396 . S
C353 C358 1.390 . S
C354 C348 1.465 . S
C354 C353 1.396 . S
C354 C355 1.399 . S
C355 H341 0.929 . S
C355 C354 1.399 . S
C355 C356 1.385 . S
C356 H342 0.931 . S
C356 C355 1.385 . S
C356 C357 1.389 . S
C357 C356 1.389 . S
C357 C358 1.387 . S
C358 H343 0.930 . S
C358 C353 1.390 . S
C358 C357 1.387 . S
H359 C371 0.930 . S
H360 C373 0.930 . S
H361 C374 0.930 . S
H362 C378 0.959 . S
H363 C378 0.959 . S
H364 C378 0.961 . S
H365 C379 0.960 . S
H366 C379 0.961 . S
H367 C379 0.959 . S
H368 C382 0.929 . S
H369 C383 0.931 . S
H370 C385 0.930 . S
C371 H359 0.930 . S
C371 C372 1.399 . S
C371 C376 1.399 . S
C372 C371 1.399 . S
C372 C373 1.376 . S
C373 H360 0.930 . S
C373 C372 1.376 . S
C373 C374 1.388 . S
C374 H361 0.930 . S
C374 C373 1.388 . S
C374 C375 1.390 . S
C375 C374 1.390 . S
C375 C376 1.394 . S
C375 C381 1.465 . S
C376 C371 1.399 . S
C376 C375 1.394 . S
C376 C377 1.516 . S
C377 C376 1.516 . S
C377 C378 1.502 . S
C377 C379 1.561 . S
C377 C380 1.526 . S
C378 H362 0.959 . S
C378 H363 0.959 . S
C378 H364 0.961 . S
C378 C377 1.502 . S
C379 H365 0.960 . S
C379 H366 0.961 . S
C379 H367 0.959 . S
C379 C377 1.561 . S
C380 C377 1.526 . S
C380 C381 1.396 . S
C380 C385 1.390 . S
C381 C375 1.465 . S
C381 C380 1.396 . S
C381 C382 1.399 . S
C382 H368 0.929 . S
C382 C381 1.399 . S
C382 C383 1.385 . S
C383 H369 0.931 . S
C383 C382 1.385 . S
C383 C384 1.389 . S
C384 C383 1.389 . S
C384 C385 1.387 . S
C385 H370 0.930 . S
C385 C380 1.390 . S
C385 C384 1.387 . S
H386 C398 0.930 . S
H387 C400 0.930 . S
H388 C401 0.930 . S
H389 C405 0.959 . S
H390 C405 0.959 . S
H391 C405 0.961 . S
H392 C406 0.960 . S
H393 C406 0.961 . S
H394 C406 0.959 . S
H395 C409 0.929 . S
H396 C410 0.931 . S
H397 C412 0.930 . S
C398 H386 0.930 . S
C398 C399 1.399 . S
C398 C403 1.399 . S
C399 C398 1.399 . S
C399 C400 1.376 . S
C400 H387 0.930 . S
C400 C399 1.376 . S
C400 C401 1.388 . S
C401 H388 0.930 . S
C401 C400 1.388 . S
C401 C402 1.390 . S
C402 C401 1.390 . S
C402 C403 1.394 . S
C402 C408 1.465 . S
C403 C398 1.399 . S
C403 C402 1.394 . S
C403 C404 1.516 . S
C404 C403 1.516 . S
C404 C405 1.502 . S
C404 C406 1.561 . S
C404 C407 1.526 . S
C405 H389 0.959 . S
C405 H390 0.959 . S
C405 H391 0.961 . S
C405 C404 1.502 . S
C406 H392 0.960 . S
C406 H393 0.961 . S
C406 H394 0.959 . S
C406 C404 1.561 . S
C407 C404 1.526 . S
C407 C408 1.396 . S
C407 C412 1.390 . S
C408 C402 1.465 . S
C408 C407 1.396 . S
C408 C409 1.399 . S
C409 H395 0.929 . S
C409 C408 1.399 . S
C409 C410 1.385 . S
C410 H396 0.931 . S
C410 C409 1.385 . S
C410 C411 1.389 . S
C411 C410 1.389 . S
C411 C412 1.387 . S
C412 H397 0.930 . S
C412 C407 1.390 . S
C412 C411 1.387 . S
H413 C425 0.930 . S
H414 C427 0.930 . S
H415 C428 0.930 . S
H416 C432 0.959 . S
H417 C432 0.959 . S
H418 C432 0.961 . S
H419 C433 0.960 . S
H420 C433 0.961 . S
H421 C433 0.959 . S
H422 C436 0.929 . S
H423 C437 0.931 . S
H424 C439 0.930 . S
C425 H413 0.930 . S
C425 C426 1.399 . S
C425 C430 1.399 . S
C426 C425 1.399 . S
C426 C427 1.376 . S
C427 H414 0.930 . S
C427 C426 1.376 . S
C427 C428 1.388 . S
C428 H415 0.930 . S
C428 C427 1.388 . S
C428 C429 1.390 . S
C429 C428 1.390 . S
C429 C430 1.394 . S
C429 C435 1.465 . S
C430 C425 1.399 . S
C430 C429 1.394 . S
C430 C431 1.516 . S
C431 C430 1.516 . S
C431 C432 1.502 . S
C431 C433 1.561 . S
C431 C434 1.526 . S
C432 H416 0.959 . S
C432 H417 0.959 . S
C432 H418 0.961 . S
C432 C431 1.502 . S
C433 H419 0.960 . S
C433 H420 0.961 . S
C433 H421 0.959 . S
C433 C431 1.561 . S
C434 C431 1.526 . S
C434 C435 1.396 . S
C434 C439 1.390 . S
C435 C429 1.465 . S
C435 C434 1.396 . S
C435 C436 1.399 . S
C436 H422 0.929 . S
C436 C435 1.399 . S
C436 C437 1.385 . S
C437 H423 0.931 . S
C437 C436 1.385 . S
C437 C438 1.389 . S
C438 C437 1.389 . S
C438 C439 1.387 . S
C439 H424 0.930 . S
C439 C434 1.390 . S
C439 C438 1.387 . S
H440 C452 0.930 . S
H441 C454 0.930 . S
H442 C455 0.930 . S
H443 C459 0.959 . S
H444 C459 0.959 . S
H445 C459 0.961 . S
H446 C460 0.960 . S
H447 C460 0.961 . S
H448 C460 0.959 . S
H449 C463 0.929 . S
H450 C464 0.931 . S
H451 C466 0.930 . S
C452 H440 0.930 . S
C452 C453 1.399 . S
C452 C457 1.399 . S
C453 C452 1.399 . S
C453 C454 1.376 . S
C454 H441 0.930 . S
C454 C453 1.376 . S
C454 C455 1.388 . S
C455 H442 0.930 . S
C455 C454 1.388 . S
C455 C456 1.390 . S
C456 C455 1.390 . S
C456 C457 1.394 . S
C456 C462 1.465 . S
C457 C452 1.399 . S
C457 C456 1.394 . S
C457 C458 1.516 . S
C458 C457 1.516 . S
C458 C459 1.502 . S
C458 C460 1.561 . S
C458 C461 1.526 . S
C459 H443 0.959 . S
C459 H444 0.959 . S
C459 H445 0.961 . S
C459 C458 1.502 . S
C460 H446 0.960 . S
C460 H447 0.961 . S
C460 H448 0.959 . S
C460 C458 1.561 . S
C461 C458 1.526 . S
C461 C462 1.396 . S
C461 C466 1.390 . S
C462 C456 1.465 . S
C462 C461 1.396 . S
C462 C463 1.399 . S
C463 H449 0.929 . S
C463 C462 1.399 . S
C463 C464 1.385 . S
C464 H450 0.931 . S
C464 C463 1.385 . S
C464 C465 1.389 . S
C465 C464 1.389 . S
C465 C466 1.387 . S
C466 H451 0.930 . S
C466 C461 1.390 . S
C466 C465 1.387 . S
H467 C479 0.930 . S
H468 C481 0.930 . S
H469 C482 0.930 . S
H470 C486 0.959 . S
H471 C486 0.959 . S
H472 C486 0.961 . S
H473 C487 0.960 . S
H474 C487 0.961 . S
H475 C487 0.959 . S
H476 C490 0.929 . S
H477 C491 0.931 . S
H478 C493 0.930 . S
C479 H467 0.930 . S
C479 C480 1.399 . S
C479 C484 1.399 . S
C480 C479 1.399 . S
C480 C481 1.376 . S
C481 H468 0.930 . S
C481 C480 1.376 . S
C481 C482 1.388 . S
C482 H469 0.930 . S
C482 C481 1.388 . S
C482 C483 1.390 . S
C483 C482 1.390 . S
C483 C484 1.394 . S
C483 C489 1.465 . S
C484 C479 1.399 . S
C484 C483 1.394 . S
C484 C485 1.516 . S
C485 C484 1.516 . S
C485 C486 1.502 . S
C485 C487 1.561 . S
C485 C488 1.526 . S
C486 H470 0.959 . S
C486 H471 0.959 . S
C486 H472 0.961 . S
C486 C485 1.502 . S
C487 H473 0.960 . S
C487 H474 0.961 . S
C487 H475 0.959 . S
C487 C485 1.561 . S
C488 C485 1.526 . S
C488 C489 1.396 . S
C488 C493 1.390 . S
C489 C483 1.465 . S
C489 C488 1.396 . S
C489 C490 1.399 . S
C490 H476 0.929 . S
C490 C489 1.399 . S
C490 C491 1.385 . S
C491 H477 0.931 . S
C491 C490 1.385 . S
C491 C492 1.389 . S
C492 C491 1.389 . S
C492 C493 1.387 . S
C493 H478 0.930 . S
C493 C488 1.390 . S
C493 C492 1.387 . S
H494 C506 0.930 . S
H495 C508 0.930 . S
H496 C509 0.930 . S
H497 C513 0.959 . S
H498 C513 0.959 . S
H499 C513 0.961 . S
H500 C514 0.960 . S
H501 C514 0.961 . S
H502 C514 0.959 . S
H503 C517 0.929 . S
H504 C518 0.931 . S
H505 C520 0.930 . S
C506 H494 0.930 . S
C506 C507 1.399 . S
C506 C511 1.399 . S
C507 C506 1.399 . S
C507 C508 1.376 . S
C508 H495 0.930 . S
C508 C507 1.376 . S
C508 C509 1.388 . S
C509 H496 0.930 . S
C509 C508 1.388 . S
C509 C510 1.390 . S
C510 C509 1.390 . S
C510 C511 1.394 . S
C510 C516 1.465 . S
C511 C506 1.399 . S
C511 C510 1.394 . S
C511 C512 1.516 . S
C512 C511 1.516 . S
C512 C513 1.502 . S
C512 C514 1.561 . S
C512 C515 1.526 . S
C513 H497 0.959 . S
C513 H498 0.959 . S
C513 H499 0.961 . S
C513 C512 1.502 . S
C514 H500 0.960 . S
C514 H501 0.961 . S
C514 H502 0.959 . S
C514 C512 1.561 . S
C515 C512 1.526 . S
C515 C516 1.396 . S
C515 C520 1.390 . S
C516 C510 1.465 . S
C516 C515 1.396 . S
C516 C517 1.399 . S
C517 H503 0.929 . S
C517 C516 1.399 . S
C517 C518 1.385 . S
C518 H504 0.931 . S
C518 C517 1.385 . S
C518 C519 1.389 . S
C519 C518 1.389 . S
C519 C520 1.387 . S
C520 H505 0.930 . S
C520 C515 1.390 . S
C520 C519 1.387 . S
H521 C533 0.930 . S
H522 C535 0.930 . S
H523 C536 0.930 . S
H524 C540 0.959 . S
H525 C540 0.959 . S
H526 C540 0.961 . S
H527 C541 0.960 . S
H528 C541 0.961 . S
H529 C541 0.959 . S
H530 C544 0.929 . S
H531 C545 0.931 . S
H532 C547 0.930 . S
C533 H521 0.930 . S
C533 C534 1.399 . S
C533 C538 1.399 . S
C534 C533 1.399 . S
C534 C535 1.376 . S
C535 H522 0.930 . S
C535 C534 1.376 . S
C535 C536 1.388 . S
C536 H523 0.930 . S
C536 C535 1.388 . S
C536 C537 1.390 . S
C537 C536 1.390 . S
C537 C538 1.394 . S
C537 C543 1.465 . S
C538 C533 1.399 . S
C538 C537 1.394 . S
C538 C539 1.516 . S
C539 C538 1.516 . S
C539 C540 1.502 . S
C539 C541 1.561 . S
C539 C542 1.526 . S
C540 H524 0.959 . S
C540 H525 0.959 . S
C540 H526 0.961 . S
C540 C539 1.502 . S
C541 H527 0.960 . S
C541 H528 0.961 . S
C541 H529 0.959 . S
C541 C539 1.561 . S
C542 C539 1.526 . S
C542 C543 1.396 . S
C542 C547 1.390 . S
C543 C537 1.465 . S
C543 C542 1.396 . S
C543 C544 1.399 . S
C544 H530 0.929 . S
C544 C543 1.399 . S
C544 C545 1.385 . S
C545 H531 0.931 . S
C545 C544 1.385 . S
C545 C546 1.389 . S
C546 C545 1.389 . S
C546 C547 1.387 . S
C547 H532 0.930 . S
C547 C542 1.390 . S
C547 C546 1.387 . S
H548 C560 0.930 . S
H549 C562 0.930 . S
H550 C563 0.930 . S
H551 C567 0.959 . S
H552 C567 0.959 . S
H553 C567 0.961 . S
H554 C568 0.960 . S
H555 C568 0.961 . S
H556 C568 0.959 . S
H557 C571 0.929 . S
H558 C572 0.931 . S
H559 C574 0.930 . S
C560 H548 0.930 . S
C560 C561 1.399 . S
C560 C565 1.399 . S
C561 C560 1.399 . S
C561 C562 1.376 . S
C562 H549 0.930 . S
C562 C561 1.376 . S
C562 C563 1.388 . S
C563 H550 0.930 . S
C563 C562 1.388 . S
C563 C564 1.390 . S
C564 C563 1.390 . S
C564 C565 1.394 . S
C564 C570 1.465 . S
C565 C560 1.399 . S
C565 C564 1.394 . S
C565 C566 1.516 . S
C566 C565 1.516 . S
C566 C567 1.502 . S
C566 C568 1.561 . S
C566 C569 1.526 . S
C567 H551 0.959 . S
C567 H552 0.959 . S
C567 H553 0.961 . S
C567 C566 1.502 . S
C568 H554 0.960 . S
C568 H555 0.961 . S
C568 H556 0.959 . S
C568 C566 1.561 . S
C569 C566 1.526 . S
C569 C570 1.396 . S
C569 C574 1.390 . S
C570 C564 1.465 . S
C570 C569 1.396 . S
C570 C571 1.399 . S
C571 H557 0.929 . S
C571 C570 1.399 . S
C571 C572 1.385 . S
C572 H558 0.931 . S
C572 C571 1.385 . S
C572 C573 1.389 . S
C573 C572 1.389 . S
C573 C574 1.387 . S
C574 H559 0.930 . S
C574 C569 1.390 . S
C574 C573 1.387 . S
H575 C587 0.930 . S
H576 C589 0.930 . S
H577 C590 0.930 . S
H578 C594 0.959 . S
H579 C594 0.959 . S
H580 C594 0.961 . S
H581 C595 0.960 . S
H582 C595 0.961 . S
H583 C595 0.959 . S
H584 C598 0.929 . S
H585 C599 0.931 . S
H586 C601 0.930 . S
C587 H575 0.930 . S
C587 C588 1.399 . S
C587 C592 1.399 . S
C588 C587 1.399 . S
C588 C589 1.376 . S
C589 H576 0.930 . S
C589 C588 1.376 . S
C589 C590 1.388 . S
C590 H577 0.930 . S
C590 C589 1.388 . S
C590 C591 1.390 . S
C591 C590 1.390 . S
C591 C592 1.394 . S
C591 C597 1.465 . S
C592 C587 1.399 . S
C592 C591 1.394 . S
C592 C593 1.516 . S
C593 C592 1.516 . S
C593 C594 1.502 . S
C593 C595 1.561 . S
C593 C596 1.526 . S
C594 H578 0.959 . S
C594 H579 0.959 . S
C594 H580 0.961 . S
C594 C593 1.502 . S
C595 H581 0.960 . S
C595 H582 0.961 . S
C595 H583 0.959 . S
C595 C593 1.561 . S
C596 C593 1.526 . S
C596 C597 1.396 . S
C596 C601 1.390 . S
C597 C591 1.465 . S
C597 C596 1.396 . S
C597 C598 1.399 . S
C598 H584 0.929 . S
C598 C597 1.399 . S
C598 C599 1.385 . S
C599 H585 0.931 . S
C599 C598 1.385 . S
C599 C600 1.389 . S
C600 C599 1.389 . S
C600 C601 1.387 . S
C601 H586 0.930 . S
C601 C596 1.390 . S
C601 C600 1.387 . S
H602 C614 0.930 . S
H603 C616 0.930 . S
H604 C617 0.930 . S
H605 C621 0.959 . S
H606 C621 0.959 . S
H607 C621 0.961 . S
H608 C622 0.960 . S
H609 C622 0.961 . S
H610 C622 0.959 . S
H611 C625 0.929 . S
H612 C626 0.931 . S
H613 C628 0.930 . S
C614 H602 0.930 . S
C614 C615 1.399 . S
C614 C619 1.399 . S
C615 C614 1.399 . S
C615 C616 1.376 . S
C616 H603 0.930 . S
C616 C615 1.376 . S
C616 C617 1.388 . S
C617 H604 0.930 . S
C617 C616 1.388 . S
C617 C618 1.390 . S
C618 C617 1.390 . S
C618 C619 1.394 . S
C618 C624 1.465 . S
C619 C614 1.399 . S
C619 C618 1.394 . S
C619 C620 1.516 . S
C620 C619 1.516 . S
C620 C621 1.502 . S
C620 C622 1.561 . S
C620 C623 1.526 . S
C621 H605 0.959 . S
C621 H606 0.959 . S
C621 H607 0.961 . S
C621 C620 1.502 . S
C622 H608 0.960 . S
C622 H609 0.961 . S
C622 H610 0.959 . S
C622 C620 1.561 . S
C623 C620 1.526 . S
C623 C624 1.396 . S
C623 C628 1.390 . S
C624 C618 1.465 . S
C624 C623 1.396 . S
C624 C625 1.399 . S
C625 H611 0.929 . S
C625 C624 1.399 . S
C625 C626 1.385 . S
C626 H612 0.931 . S
C626 C625 1.385 . S
C626 C627 1.389 . S
C627 C626 1.389 . S
C627 C628 1.387 . S
C628 H613 0.930 . S
C628 C623 1.390 . S
C628 C627 1.387 . S
H629 C641 0.930 . S
H630 C643 0.930 . S
H631 C644 0.930 . S
H632 C648 0.959 . S
H633 C648 0.959 . S
H634 C648 0.961 . S
H635 C649 0.960 . S
H636 C649 0.961 . S
H637 C649 0.959 . S
H638 C652 0.929 . S
H639 C653 0.931 . S
H640 C655 0.930 . S
C641 H629 0.930 . S
C641 C642 1.399 . S
C641 C646 1.399 . S
C642 C641 1.399 . S
C642 C643 1.376 . S
C643 H630 0.930 . S
C643 C642 1.376 . S
C643 C644 1.388 . S
C644 H631 0.930 . S
C644 C643 1.388 . S
C644 C645 1.390 . S
C645 C644 1.390 . S
C645 C646 1.394 . S
C645 C651 1.465 . S
C646 C641 1.399 . S
C646 C645 1.394 . S
C646 C647 1.516 . S
C647 C646 1.516 . S
C647 C648 1.502 . S
C647 C649 1.561 . S
C647 C650 1.526 . S
C648 H632 0.959 . S
C648 H633 0.959 . S
C648 H634 0.961 . S
C648 C647 1.502 . S
C649 H635 0.960 . S
C649 H636 0.961 . S
C649 H637 0.959 . S
C649 C647 1.561 . S
C650 C647 1.526 . S
C650 C651 1.396 . S
C650 C655 1.390 . S
C651 C645 1.465 . S
C651 C650 1.396 . S
C651 C652 1.399 . S
C652 H638 0.929 . S
C652 C651 1.399 . S
C652 C653 1.385 . S
C653 H639 0.931 . S
C653 C652 1.385 . S
C653 C654 1.389 . S
C654 C653 1.389 . S
C654 C655 1.387 . S
C655 H640 0.930 . S
C655 C650 1.390 . S
C655 C654 1.387 . S
H656 C668 0.930 . S
H657 C670 0.930 . S
H658 C671 0.930 . S
H659 C675 0.959 . S
H660 C675 0.959 . S
H661 C675 0.961 . S
H662 C676 0.960 . S
H663 C676 0.961 . S
H664 C676 0.959 . S
H665 C679 0.929 . S
H666 C680 0.931 . S
H667 C682 0.930 . S
C668 H656 0.930 . S
C668 C669 1.399 . S
C668 C673 1.399 . S
C669 C668 1.399 . S
C669 C670 1.376 . S
C670 H657 0.930 . S
C670 C669 1.376 . S
C670 C671 1.388 1_556 S
C671 H658 0.930 . S
C671 C670 1.388 1_554 S
C671 C672 1.390 1_554 S
C672 C671 1.390 1_556 S
C672 C673 1.394 . S
C672 C678 1.465 1_556 S
C673 C668 1.399 . S
C673 C672 1.394 . S
C673 C674 1.516 . S
C674 C673 1.516 . S
C674 C675 1.502 . S
C674 C676 1.561 . S
C674 C677 1.526 1_556 S
C675 H659 0.959 . S
C675 H660 0.959 . S
C675 H661 0.961 . S
C675 C674 1.502 . S
C676 H662 0.960 . S
C676 H663 0.961 . S
C676 H664 0.959 . S
C676 C674 1.561 . S
C677 C674 1.526 1_554 S
C677 C678 1.396 . S
C677 C682 1.390 . S
C678 C672 1.465 1_554 S
C678 C677 1.396 . S
C678 C679 1.399 . S
C679 H665 0.929 . S
C679 C678 1.399 . S
C679 C680 1.385 . S
C680 H666 0.931 . S
C680 C679 1.385 . S
C680 C681 1.389 . S
C681 C680 1.389 . S
C681 C682 1.387 . S
C682 H667 0.930 . S
C682 C677 1.390 . S
C682 C681 1.387 . S
H683 C695 0.930 . S
H684 C697 0.930 . S
H685 C698 0.930 . S
H686 C702 0.959 . S
H687 C702 0.959 . S
H688 C702 0.961 . S
H689 C703 0.960 . S
H690 C703 0.961 . S
H691 C703 0.959 . S
H692 C706 0.929 . S
H693 C707 0.931 . S
H694 C709 0.930 . S
C695 H683 0.930 . S
C695 C696 1.399 . S
C695 C700 1.399 . S
C696 C695 1.399 . S
C696 C697 1.376 . S
C697 H684 0.930 . S
C697 C696 1.376 . S
C697 C698 1.388 . S
C698 H685 0.930 . S
C698 C697 1.388 . S
C698 C699 1.390 . S
C699 C698 1.390 . S
C699 C700 1.394 . S
C699 C705 1.465 . S
C700 C695 1.399 . S
C700 C699 1.394 . S
C700 C701 1.516 . S
C701 C700 1.516 . S
C701 C702 1.502 . S
C701 C703 1.561 . S
C701 C704 1.526 . S
C702 H686 0.959 . S
C702 H687 0.959 . S
C702 H688 0.961 . S
C702 C701 1.502 . S
C703 H689 0.960 . S
C703 H690 0.961 . S
C703 H691 0.959 . S
C703 C701 1.561 . S
C704 C701 1.526 . S
C704 C705 1.396 . S
C704 C709 1.390 . S
C705 C699 1.465 . S
C705 C704 1.396 . S
C705 C706 1.399 . S
C706 H692 0.929 . S
C706 C705 1.399 . S
C706 C707 1.385 . S
C707 H693 0.931 . S
C707 C706 1.385 . S
C707 C708 1.389 . S
C708 C707 1.389 . S
C708 C709 1.387 . S
C709 H694 0.930 . S
C709 C704 1.390 . S
C709 C708 1.387 . S
H710 C722 0.930 . S
H711 C724 0.930 . S
H712 C725 0.930 . S
H713 C729 0.959 . S
H714 C729 0.959 . S
H715 C729 0.961 . S
H716 C730 0.960 . S
H717 C730 0.961 . S
H718 C730 0.959 . S
H719 C733 0.915 1_554 S
H720 C734 0.931 . S
H721 C736 0.930 . S
C722 H710 0.930 . S
C722 C723 1.399 . S
C722 C727 1.399 . S
C723 C722 1.399 . S
C723 C724 1.376 . S
C724 H711 0.930 . S
C724 C723 1.376 . S
C724 C725 1.388 . S
C725 H712 0.930 . S
C725 C724 1.388 . S
C725 C726 1.390 . S
C726 C725 1.390 . S
C726 C727 1.394 . S
C726 C732 1.465 1_554 S
C727 C722 1.399 . S
C727 C726 1.394 . S
C727 C728 1.516 1_554 S
C728 C727 1.516 1_556 S
C728 C729 1.502 . S
C728 C730 1.561 1_556 S
C728 C731 1.526 . S
C729 H713 0.959 . S
C729 H714 0.959 . S
C729 H715 0.961 . S
C729 C728 1.502 . S
C730 H716 0.960 . S
C730 H717 0.961 . S
C730 H718 0.959 . S
C730 C728 1.561 1_554 S
C731 C728 1.526 . S
C731 C732 1.396 . S
C731 C736 1.390 . S
C732 C726 1.465 1_556 S
C732 C731 1.396 . S
C732 C733 1.399 . S
C733 H719 0.915 1_556 S
C733 C732 1.399 . S
C733 C734 1.385 . S
C734 H720 0.931 . S
C734 C733 1.385 . S
C734 C735 1.389 . S
C735 C734 1.389 . S
C735 C736 1.387 . S
C736 H721 0.930 . S
C736 C731 1.390 . S
C736 C735 1.387 . S
H737 C749 0.930 . S
H738 C751 0.930 . S
H739 C752 0.930 . S
H740 C756 0.959 . S
H741 C756 0.959 . S
H742 C756 0.961 . S
H743 C757 0.960 . S
H744 C757 0.961 . S
H745 C757 0.959 . S
H746 C760 0.929 . S
H747 C761 0.931 . S
H748 C763 0.930 . S
C749 H737 0.930 . S
C749 C750 1.399 . S
C749 C754 1.399 . S
C750 C749 1.399 . S
C750 C751 1.376 . S
C751 H738 0.930 . S
C751 C750 1.376 . S
C751 C752 1.388 . S
C752 H739 0.930 . S
C752 C751 1.388 . S
C752 C753 1.390 . S
C753 C752 1.390 . S
C753 C754 1.394 . S
C753 C759 1.465 . S
C754 C749 1.399 . S
C754 C753 1.394 . S
C754 C755 1.516 . S
C755 C754 1.516 . S
C755 C756 1.502 . S
C755 C757 1.561 . S
C755 C758 1.526 . S
C756 H740 0.959 . S
C756 H741 0.959 . S
C756 H742 0.961 . S
C756 C755 1.502 . S
C757 H743 0.960 . S
C757 H744 0.961 . S
C757 H745 0.959 . S
C757 C755 1.561 . S
C758 C755 1.526 . S
C758 C759 1.396 . S
C758 C763 1.390 . S
C759 C753 1.465 . S
C759 C758 1.396 . S
C759 C760 1.399 . S
C760 H746 0.929 . S
C760 C759 1.399 . S
C760 C761 1.385 . S
C761 H747 0.931 . S
C761 C760 1.385 . S
C761 C762 1.389 . S
C762 C761 1.389 . S
C762 C763 1.387 . S
C763 H748 0.930 . S
C763 C758 1.390 . S
C763 C762 1.387 . S
H764 C776 0.930 . S
H765 C778 0.930 . S
H766 C779 0.930 . S
H767 C783 0.959 . S
H768 C783 0.959 . S
H769 C783 0.961 . S
H770 C784 0.960 . S
H771 C784 0.961 . S
H772 C784 0.959 . S
H773 C787 0.929 . S
H774 C788 0.931 . S
H775 C790 0.910 1_554 S
C776 H764 0.930 . S
C776 C777 1.399 . S
C776 C781 1.399 . S
C777 C776 1.399 . S
C777 C778 1.376 . S
C778 H765 0.930 . S
C778 C777 1.376 . S
C778 C779 1.388 1_554 S
C779 H766 0.930 . S
C779 C778 1.388 1_556 S
C779 C780 1.390 . S
C780 C779 1.390 . S
C780 C781 1.394 1_556 S
C780 C786 1.465 . S
C781 C776 1.399 . S
C781 C780 1.394 1_554 S
C781 C782 1.516 . S
C782 C781 1.516 . S
C782 C783 1.502 . S
C782 C784 1.561 . S
C782 C785 1.526 1_554 S
C783 H767 0.959 . S
C783 H768 0.959 . S
C783 H769 0.961 . S
C783 C782 1.502 . S
C784 H770 0.960 . S
C784 H771 0.961 . S
C784 H772 0.959 . S
C784 C782 1.561 . S
C785 C782 1.526 1_556 S
C785 C786 1.396 . S
C785 C790 1.390 . S
C786 C780 1.465 . S
C786 C785 1.396 . S
C786 C787 1.399 . S
C787 H773 0.929 . S
C787 C786 1.399 . S
C787 C788 1.385 . S
C788 H774 0.931 . S
C788 C787 1.385 . S
C788 C789 1.389 . S
C789 C788 1.389 . S
C789 C790 1.387 . S
C790 H775 0.910 1_556 S
C790 C785 1.390 . S
C790 C789 1.387 . S
H791 C803 0.930 . S
H792 C805 0.930 . S
H793 C806 0.930 . S
H794 C810 0.959 . S
H795 C810 0.959 . S
H796 C810 0.961 . S
H797 C811 0.960 . S
H798 C811 0.961 . S
H799 C811 0.959 . S
H800 C814 0.929 . S
H801 C815 0.931 . S
H802 C817 0.930 . S
C803 H791 0.930 . S
C803 C804 1.399 . S
C803 C808 1.399 . S
C804 C803 1.399 . S
C804 C805 1.376 . S
C805 H792 0.930 . S
C805 C804 1.376 . S
C805 C806 1.388 . S
C806 H793 0.930 . S
C806 C805 1.388 . S
C806 C807 1.390 . S
C807 C806 1.390 . S
C807 C808 1.394 . S
C807 C813 1.465 . S
C808 C803 1.399 . S
C808 C807 1.394 . S
C808 C809 1.516 . S
C809 C808 1.516 . S
C809 C810 1.502 . S
C809 C811 1.561 . S
C809 C812 1.526 . S
C810 H794 0.959 . S
C810 H795 0.959 . S
C810 H796 0.961 . S
C810 C809 1.502 . S
C811 H797 0.960 . S
C811 H798 0.961 . S
C811 H799 0.959 . S
C811 C809 1.561 . S
C812 C809 1.526 . S
C812 C813 1.396 . S
C812 C817 1.390 . S
C813 C807 1.465 . S
C813 C812 1.396 . S
C813 C814 1.399 . S
C814 H800 0.929 . S
C814 C813 1.399 . S
C814 C815 1.385 . S
C815 H801 0.931 . S
C815 C814 1.385 . S
C815 C816 1.389 . S
C816 C815 1.389 . S
C816 C817 1.387 . S
C817 H802 0.930 . S
C817 C812 1.390 . S
C817 C816 1.387 . S
H818 C830 0.930 . S
H819 C832 0.930 . S
H820 C833 0.930 . S
H821 C837 0.959 . S
H822 C837 0.959 . S
H823 C837 0.961 . S
H824 C838 0.960 . S
H825 C838 0.961 . S
H826 C838 0.959 . S
H827 C841 0.929 . S
H828 C842 0.931 . S
H829 C844 0.930 . S
C830 H818 0.930 . S
C830 C831 1.399 . S
C830 C835 1.399 . S
C831 C830 1.399 . S
C831 C832 1.376 . S
C832 H819 0.930 . S
C832 C831 1.376 . S
C832 C833 1.388 . S
C833 H820 0.930 . S
C833 C832 1.388 . S
C833 C834 1.390 . S
C834 C833 1.390 . S
C834 C835 1.394 . S
C834 C840 1.465 1_554 S
C835 C830 1.399 . S
C835 C834 1.394 . S
C835 C836 1.516 . S
C836 C835 1.516 . S
C836 C837 1.502 1_554 S
C836 C838 1.561 . S
C836 C839 1.526 1_554 S
C837 H821 0.959 . S
C837 H822 0.959 . S
C837 H823 0.961 . S
C837 C836 1.502 1_556 S
C838 H824 0.960 . S
C838 H825 0.961 . S
C838 H826 0.959 . S
C838 C836 1.561 . S
C839 C836 1.526 1_556 S
C839 C840 1.396 . S
C839 C844 1.390 . S
C840 C834 1.465 1_556 S
C840 C839 1.396 . S
C840 C841 1.399 . S
C841 H827 0.929 . S
C841 C840 1.399 . S
C841 C842 1.385 . S
C842 H828 0.931 . S
C842 C841 1.385 . S
C842 C843 1.389 . S
C843 C842 1.389 . S
C843 C844 1.387 . S
C844 H829 0.930 . S
C844 C839 1.390 . S
C844 C843 1.387 . S
H845 C857 0.930 . S
H846 C859 0.930 . S
H847 C860 0.930 . S
H848 C864 0.959 . S
H849 C864 0.959 . S
H850 C864 0.961 . S
H851 C865 0.960 . S
H852 C865 0.961 . S
H853 C865 0.959 . S
H854 C868 0.929 . S
H855 C869 0.931 . S
H856 C871 0.930 . S
C857 H845 0.930 . S
C857 C858 1.399 . S
C857 C862 1.399 . S
C858 C857 1.399 . S
C858 C859 1.376 . S
C859 H846 0.930 . S
C859 C858 1.376 . S
C859 C860 1.388 . S
C860 H847 0.930 . S
C860 C859 1.388 . S
C860 C861 1.390 . S
C861 C860 1.390 . S
C861 C862 1.394 . S
C861 C867 1.465 . S
C862 C857 1.399 . S
C862 C861 1.394 . S
C862 C863 1.516 . S
C863 C862 1.516 . S
C863 C864 1.502 . S
C863 C865 1.561 . S
C863 C866 1.526 . S
C864 H848 0.959 . S
C864 H849 0.959 . S
C864 H850 0.961 . S
C864 C863 1.502 . S
C865 H851 0.960 . S
C865 H852 0.961 . S
C865 H853 0.959 . S
C865 C863 1.561 . S
C866 C863 1.526 . S
C866 C867 1.396 . S
C866 C871 1.390 . S
C867 C861 1.465 . S
C867 C866 1.396 . S
C867 C868 1.399 . S
C868 H854 0.929 . S
C868 C867 1.399 . S
C868 C869 1.385 . S
C869 H855 0.931 . S
C869 C868 1.385 . S
C869 C870 1.389 . S
C870 C869 1.389 . S
C870 C871 1.387 . S
C871 H856 0.930 . S
C871 C866 1.390 . S
C871 C870 1.387 . S
H872 C884 0.930 . S
H873 C886 0.930 . S
H874 C887 0.930 . S
H875 C891 0.959 1_556 S
H876 C891 0.959 . S
H877 C891 0.961 1_556 S
H878 C892 0.960 . S
H879 C892 0.961 . S
H880 C892 0.959 . S
H881 C895 0.929 1_556 S
H882 C896 0.931 . S
H883 C898 0.930 . S
C884 H872 0.930 . S
C884 C885 1.399 . S
C884 C889 1.399 . S
C885 C884 1.399 . S
C885 C886 1.376 . S
C886 H873 0.930 . S
C886 C885 1.376 . S
C886 C887 1.388 . S
C887 H874 0.930 . S
C887 C886 1.388 . S
C887 C888 1.390 . S
C888 C887 1.390 . S
C888 C889 1.394 . S
C888 C894 1.465 1_556 S
C889 C884 1.399 . S
C889 C888 1.394 . S
C889 C890 1.516 1_556 S
C890 C889 1.516 1_554 S
C890 C891 1.502 . S
C890 C892 1.561 . S
C890 C893 1.526 . S
C891 H875 0.959 1_554 S
C891 H876 0.959 . S
C891 H877 0.961 1_554 S
C891 C890 1.502 . S
C892 H878 0.960 . S
C892 H879 0.961 . S
C892 H880 0.959 . S
C892 C890 1.561 . S
C893 C890 1.526 . S
C893 C894 1.396 . S
C893 C898 1.390 . S
C894 C888 1.465 1_554 S
C894 C893 1.396 . S
C894 C895 1.399 . S
C895 H881 0.929 1_554 S
C895 C894 1.399 . S
C895 C896 1.385 . S
C896 H882 0.931 . S
C896 C895 1.385 . S
C896 C897 1.389 . S
C897 C896 1.389 . S
C897 C898 1.387 . S
C898 H883 0.930 . S
C898 C893 1.390 . S
C898 C897 1.387 . S
H899 C911 0.930 . S
H900 C913 0.930 . S
H901 C914 0.930 . S
H902 C918 0.959 . S
H903 C918 0.959 . S
H904 C918 0.961 . S
H905 C919 0.960 . S
H906 C919 0.961 . S
H907 C919 0.959 . S
H908 C922 0.929 . S
H909 C923 0.931 . S
H910 C925 0.930 . S
C911 H899 0.930 . S
C911 C912 1.399 . S
C911 C916 1.399 . S
C912 C911 1.399 . S
C912 C913 1.376 . S
C913 H900 0.930 . S
C913 C912 1.376 . S
C913 C914 1.388 . S
C914 H901 0.930 . S
C914 C913 1.388 . S
C914 C915 1.390 . S
C915 C914 1.390 . S
C915 C916 1.394 . S
C915 C921 1.465 . S
C916 C911 1.399 . S
C916 C915 1.394 . S
C916 C917 1.516 . S
C917 C916 1.516 . S
C917 C918 1.502 . S
C917 C919 1.561 . S
C917 C920 1.526 . S
C918 H902 0.959 . S
C918 H903 0.959 . S
C918 H904 0.961 . S
C918 C917 1.502 . S
C919 H905 0.960 . S
C919 H906 0.961 . S
C919 H907 0.959 . S
C919 C917 1.561 . S
C920 C917 1.526 . S
C920 C921 1.396 . S
C920 C925 1.390 . S
C921 C915 1.465 . S
C921 C920 1.396 . S
C921 C922 1.399 . S
C922 H908 0.929 . S
C922 C921 1.399 . S
C922 C923 1.385 . S
C923 H909 0.931 . S
C923 C922 1.385 . S
C923 C924 1.389 . S
C924 C923 1.389 . S
C924 C925 1.387 . S
C925 H910 0.930 . S
C925 C920 1.390 . S
C925 C924 1.387 . S
H926 C938 0.930 1_556 S
H927 C940 0.930 . S
H928 C941 0.930 . S
H929 C945 0.959 . S
H930 C945 0.959 . S
H931 C945 0.961 . S
H932 C946 0.960 . S
H933 C946 0.961 . S
H934 C946 0.959 . S
H935 C949 0.929 . S
H936 C950 0.931 . S
H937 C952 0.930 . S
C938 H926 0.930 1_554 S
C938 C939 1.399 . S
C938 C943 1.399 1_554 S
C939 C938 1.399 . S
C939 C940 1.376 . S
C940 H927 0.930 . S
C940 C939 1.376 . S
C940 C941 1.388 . S
C941 H928 0.930 . S
C941 C940 1.388 . S
C941 C942 1.390 . S
C942 C941 1.390 . S
C942 C943 1.394 1_554 S
C942 C948 1.465 . S
C943 C938 1.399 1_556 S
C943 C942 1.394 1_556 S
C943 C944 1.516 . S
C944 C943 1.516 . S
C944 C945 1.502 . S
C944 C946 1.561 . S
C944 C947 1.526 . S
C945 H929 0.959 . S
C945 H930 0.959 . S
C945 H931 0.961 . S
C945 C944 1.502 . S
C946 H932 0.960 . S
C946 H933 0.961 . S
C946 H934 0.959 . S
C946 C944 1.561 . S
C947 C944 1.526 . S
C947 C948 1.396 1_556 S
C947 C952 1.390 . S
C948 C942 1.465 . S
C948 C947 1.396 1_554 S
C948 C949 1.399 . S
C949 H935 0.929 . S
C949 C948 1.399 . S
C949 C950 1.385 . S
C950 H936 0.931 . S
C950 C949 1.385 . S
C950 C951 1.389 1_554 S
C951 C950 1.389 1_556 S
C951 C952 1.387 . S
C952 H937 0.930 . S
C952 C947 1.390 . S
C952 C951 1.387 . S
H953 C965 0.930 . S
H954 C967 0.930 . S
H955 C968 0.930 . S
H956 C972 0.959 . S
H957 C972 0.959 . S
H958 C972 0.961 . S
H959 C973 0.960 . S
H960 C973 0.961 . S
H961 C973 0.959 . S
H962 C976 0.929 . S
H963 C977 0.931 . S
H964 C979 0.930 . S
C965 H953 0.930 . S
C965 C966 1.399 . S
C965 C970 1.399 . S
C966 C965 1.399 . S
C966 C967 1.376 . S
C967 H954 0.930 . S
C967 C966 1.376 . S
C967 C968 1.388 . S
C968 H955 0.930 . S
C968 C967 1.388 . S
C968 C969 1.390 . S
C969 C968 1.390 . S
C969 C970 1.394 . S
C969 C975 1.465 . S
C970 C965 1.399 . S
C970 C969 1.394 . S
C970 C971 1.516 . S
C971 C970 1.516 . S
C971 C972 1.502 . S
C971 C973 1.561 . S
C971 C974 1.526 . S
C972 H956 0.959 . S
C972 H957 0.959 . S
C972 H958 0.961 . S
C972 C971 1.502 . S
C973 H959 0.960 . S
C973 H960 0.961 . S
C973 H961 0.959 . S
C973 C971 1.561 . S
C974 C971 1.526 . S
C974 C975 1.396 . S
C974 C979 1.390 . S
C975 C969 1.465 . S
C975 C974 1.396 . S
C975 C976 1.399 . S
C976 H962 0.929 . S
C976 C975 1.399 . S
C976 C977 1.385 . S
C977 H963 0.931 . S
C977 C976 1.385 . S
C977 C978 1.389 . S
C978 C977 1.389 . S
C978 C979 1.387 . S
C979 H964 0.930 . S
C979 C974 1.390 . S
C979 C978 1.387 . S
H980 C992 0.930 . S
H981 C994 0.935 . S
H982 C995 0.930 . S
H983 C999 0.959 . S
H984 C999 0.959 . S
H985 C999 0.961 . S
H986 C1000 0.960 . S
H987 C1000 0.961 . S
H988 C1000 0.959 . S
H989 C1003 0.929 . S
H990 C1004 0.931 . S
H991 C1006 0.930 1_556 S
C992 H980 0.930 . S
C992 C993 1.399 . S
C992 C997 1.399 . S
C993 C992 1.399 . S
C993 C994 1.366 1_556 S
C994 H981 0.935 . S
C994 C993 1.366 1_554 S
C994 C995 1.395 . S
C995 H982 0.930 . S
C995 C994 1.395 . S
C995 C996 1.390 . S
C996 C995 1.390 . S
C996 C997 1.394 1_554 S
C996 C1002 1.465 1_545 S
C997 C992 1.399 . S
C997 C996 1.394 1_556 S
C997 C998 1.516 1_545 S
C998 C997 1.516 1_565 S
C998 C999 1.502 . S
C998 C1000 1.561 . S
C998 C1001 1.526 . S
C999 H983 0.959 . S
C999 H984 0.959 . S
C999 H985 0.961 . S
C999 C998 1.502 . S
C1000 H986 0.960 . S
C1000 H987 0.961 . S
C1000 H988 0.959 . S
C1000 C998 1.561 . S
C1001 C998 1.526 . S
C1001 C1002 1.396 1_556 S
C1001 C1006 1.390 1_556 S
C1002 C996 1.465 1_565 S
C1002 C1001 1.396 1_554 S
C1002 C1003 1.399 . S
C1003 H989 0.929 . S
C1003 C1002 1.399 . S
C1003 C1004 1.385 . S
C1004 H990 0.931 . S
C1004 C1003 1.385 . S
C1004 C1005 1.389 . S
C1005 C1004 1.389 . S
C1005 C1006 1.387 . S
C1006 H991 0.930 1_554 S
C1006 C1001 1.390 1_554 S
C1006 C1005 1.387 . S
H1007 C1019 0.930 . S
H1008 C1021 0.930 . S
H1009 C1022 0.930 . S
H1010 C1026 0.959 . S
H1011 C1026 0.959 . S
H1012 C1026 0.961 . S
H1013 C1027 0.960 . S
H1014 C1027 0.961 . S
H1015 C1027 0.959 . S
H1016 C1030 0.929 . S
H1017 C1031 0.931 . S
H1018 C1033 0.930 . S
C1019 H1007 0.930 . S
C1019 C1020 1.399 . S
C1019 C1024 1.399 . S
C1020 C1019 1.399 . S
C1020 C1021 1.376 . S
C1021 H1008 0.930 . S
C1021 C1020 1.376 . S
C1021 C1022 1.388 . S
C1022 H1009 0.930 . S
C1022 C1021 1.388 . S
C1022 C1023 1.390 . S
C1023 C1022 1.390 . S
C1023 C1024 1.394 . S
C1023 C1029 1.465 1_565 S
C1024 C1019 1.399 . S
C1024 C1023 1.394 . S
C1024 C1025 1.516 1_565 S
C1025 C1024 1.516 1_545 S
C1025 C1026 1.502 . S
C1025 C1027 1.561 . S
C1025 C1028 1.526 . S
C1026 H1010 0.959 . S
C1026 H1011 0.959 . S
C1026 H1012 0.961 . S
C1026 C1025 1.502 . S
C1027 H1013 0.960 . S
C1027 H1014 0.961 . S
C1027 H1015 0.959 . S
C1027 C1025 1.561 . S
C1028 C1025 1.526 . S
C1028 C1029 1.396 . S
C1028 C1033 1.390 . S
C1029 C1023 1.465 1_545 S
C1029 C1028 1.396 . S
C1029 C1030 1.399 . S
C1030 H1016 0.929 . S
C1030 C1029 1.399 . S
C1030 C1031 1.385 . S
C1031 H1017 0.931 . S
C1031 C1030 1.385 . S
C1031 C1032 1.389 . S
C1032 C1031 1.389 . S
C1032 C1033 1.387 . S
C1033 H1018 0.930 . S
C1033 C1028 1.390 . S
C1033 C1032 1.387 . S
H1034 C1046 0.930 . S
H1035 C1048 0.930 . S
H1036 C1049 0.930 1_556 S
H1037 C1053 0.959 1_566 S
H1038 C1053 0.959 . S
H1039 C1053 0.961 1_565 S
H1040 C1054 0.960 . S
H1041 C1054 0.961 . S
H1042 C1054 0.959 . S
H1043 C1057 0.929 . S
H1044 C1058 0.931 . S
H1045 C1060 0.930 . S
C1046 H1034 0.930 . S
C1046 C1047 1.399 . S
C1046 C1051 1.399 . S
C1047 C1046 1.399 . S
C1047 C1048 1.376 . S
C1048 H1035 0.930 . S
C1048 C1047 1.376 . S
C1048 C1049 1.388 . S
C1049 H1036 0.930 1_554 S
C1049 C1048 1.388 . S
C1049 C1050 1.390 . S
C1050 C1049 1.390 . S
C1050 C1051 1.394 . S
C1050 C1056 1.465 1_564 S
C1051 C1046 1.399 . S
C1051 C1050 1.394 . S
C1051 C1052 1.516 1_565 S
C1052 C1051 1.516 1_545 S
C1052 C1053 1.502 . S
C1052 C1054 1.561 . S
C1052 C1055 1.526 1_554 S
C1053 H1037 0.959 1_544 S
C1053 H1038 0.959 . S
C1053 H1039 0.961 1_545 S
C1053 C1052 1.502 . S
C1054 H1040 0.960 . S
C1054 H1041 0.961 . S
C1054 H1042 0.959 . S
C1054 C1052 1.561 . S
C1055 C1052 1.526 1_556 S
C1055 C1056 1.396 . S
C1055 C1060 1.390 . S
C1056 C1050 1.465 1_546 S
C1056 C1055 1.396 . S
C1056 C1057 1.399 . S
C1057 H1043 0.929 . S
C1057 C1056 1.399 . S
C1057 C1058 1.385 . S
C1058 H1044 0.931 . S
C1058 C1057 1.385 . S
C1058 C1059 1.389 . S
C1059 C1058 1.389 . S
C1059 C1060 1.387 . S
C1060 H1045 0.930 . S
C1060 C1055 1.390 . S
C1060 C1059 1.387 . S
H1061 C1073 0.930 . S
H1062 C1075 0.930 . S
H1063 C1076 0.930 . S
H1064 C1080 0.953 1_545 S
H1065 C1080 0.959 . S
H1066 C1080 0.961 1_545 S
H1067 C1081 0.960 . S
H1068 C1081 0.961 . S
H1069 C1081 0.959 . S
H1070 C1084 0.929 . S
H1071 C1085 0.931 . S
H1072 C1087 0.930 . S
C1073 H1061 0.930 . S
C1073 C1074 1.399 . S
C1073 C1078 1.399 . S
C1074 C1073 1.399 . S
C1074 C1075 1.376 . S
C1075 H1062 0.930 . S
C1075 C1074 1.376 . S
C1075 C1076 1.388 . S
C1076 H1063 0.930 . S
C1076 C1075 1.388 . S
C1076 C1077 1.390 . S
C1077 C1076 1.390 . S
C1077 C1078 1.394 . S
C1077 C1083 1.465 1_545 S
C1078 C1073 1.399 . S
C1078 C1077 1.394 . S
C1078 C1079 1.516 1_545 S
C1079 C1078 1.516 1_565 S
C1079 C1080 1.502 . S
C1079 C1081 1.561 . S
C1079 C1082 1.526 . S
C1080 H1064 0.953 1_565 S
C1080 H1065 0.959 . S
C1080 H1066 0.961 1_565 S
C1080 C1079 1.502 . S
C1081 H1067 0.960 . S
C1081 H1068 0.961 . S
C1081 H1069 0.959 . S
C1081 C1079 1.561 . S
C1082 C1079 1.526 . S
C1082 C1083 1.396 . S
C1082 C1087 1.390 . S
C1083 C1077 1.465 1_565 S
C1083 C1082 1.396 . S
C1083 C1084 1.399 . S
C1084 H1070 0.929 . S
C1084 C1083 1.399 . S
C1084 C1085 1.385 . S
C1085 H1071 0.931 . S
C1085 C1084 1.385 . S
C1085 C1086 1.389 . S
C1086 C1085 1.389 . S
C1086 C1087 1.387 . S
C1087 H1072 0.930 . S
C1087 C1082 1.390 . S
C1087 C1086 1.387 . S
C237 C9 1.389 . S
C249 C93 1.385 . S
C264 C23 1.392 . S
C276 C107 1.408 . S
C291 C65 1.396 . S
C303 C37 1.411 . S
C318 C79 1.400 . S
C330 C51 1.415 . S
C345 C205 1.443 . S
C357 C121 1.439 . S
C372 C219 1.433 . S
C384 C135 1.418 . S
C399 C149 1.439 . S
C411 C177 1.443 . S
C426 C163 1.443 . S
C438 C191 1.439 . S
C453 C7 1.427 . S
C465 C73 1.479 . S
C480 C21 1.410 . S
C492 C59 1.486 . S
C507 C35 1.394 . S
C519 C101 1.481 . S
C534 C87 1.493 . S
C546 C49 1.467 . S
C561 C185 1.475 . S
C573 C119 1.384 . S
C588 C171 1.478 . S
C600 C133 1.388 . S
C615 C147 1.412 . S
C627 C213 1.486 . S
C642 C199 1.494 . S
C654 C161 1.466 . S
C669 C176 1.387 . S
C681 C8 1.396 . S
C696 C22 1.394 . S
C708 C190 1.389 . S
C723 C204 1.396 . S
C735 C36 1.380 . S
C750 C218 1.382 . S
C762 C50 1.388 . S
C777 C120 1.365 . S
C789 C64 1.398 . S
C804 C134 1.367 . S
C816 C78 1.398 . S
C831 C92 1.393 . S
C843 C148 1.386 . S
C858 C106 1.393 . S
C870 C162 1.366 . S
C885 C31 1.492 . S
C897 C3 1.493 . S
C912 C17 1.502 . S
C924 C45 1.495 . S
C939 C91 1.392 . S
C951 C63 1.447 . S
C966 C77 1.408 . S
C978 C105 1.453 . S
C993 C143 1.503 . S
C1005 C115 1.497 . S
C1020 C157 1.501 . S
C1032 C129 1.494 . S
C1047 C203 1.388 . S
C1059 C175 1.381 . S
C1074 C217 1.393 . S
C1086 C189 1.378 . S
