# Generated by pormake.
# Topology umx, (4)-cn, num edge types: 1
# Building blocks:
#     Node 0, Type 0, BuildingBlock: QUQFOY_clean_sbu_1, # of connection points: 4
#     Node 1, Type 0, BuildingBlock: QUQFOY_clean_sbu_1, # of connection points: 4
#     Node 2, Type 0, BuildingBlock: QUQFOY_clean_sbu_1, # of connection points: 4
#     Node 3, Type 0, BuildingBlock: QUQFOY_clean_sbu_1, # of connection points: 4
#     Node 4, Type 0, BuildingBlock: QUQFOY_clean_sbu_1, # of connection points: 4
#     Node 5, Type 0, BuildingBlock: QUQFOY_clean_sbu_1, # of connection points: 4
#     Node 6, Type 0, BuildingBlock: QUQFOY_clean_sbu_1, # of connection points: 4
#     Node 7, Type 0, BuildingBlock: QUQFOY_clean_sbu_1, # of connection points: 4
#     Edge 8, Type (0, 0), BuildingBlock: FUNLAD_clean_linker_0, # of connection points: 2
#     Edge 9, Type (0, 0), BuildingBlock: FUNLAD_clean_linker_0, # of connection points: 2
#     Edge 10, Type (0, 0), BuildingBlock: FUNLAD_clean_linker_0, # of connection points: 2
#     Edge 11, Type (0, 0), BuildingBlock: FUNLAD_clean_linker_0, # of connection points: 2
#     Edge 12, Type (0, 0), BuildingBlock: FUNLAD_clean_linker_0, # of connection points: 2
#     Edge 13, Type (0, 0), BuildingBlock: FUNLAD_clean_linker_0, # of connection points: 2
#     Edge 14, Type (0, 0), BuildingBlock: FUNLAD_clean_linker_0, # of connection points: 2
#     Edge 15, Type (0, 0), BuildingBlock: FUNLAD_clean_linker_0, # of connection points: 2
#     Edge 16, Type (0, 0), BuildingBlock: FUNLAD_clean_linker_0, # of connection points: 2
#     Edge 17, Type (0, 0), BuildingBlock: FUNLAD_clean_linker_0, # of connection points: 2
#     Edge 18, Type (0, 0), BuildingBlock: FUNLAD_clean_linker_0, # of connection points: 2
#     Edge 19, Type (0, 0), BuildingBlock: FUNLAD_clean_linker_0, # of connection points: 2
#     Edge 20, Type (0, 0), BuildingBlock: FUNLAD_clean_linker_0, # of connection points: 2
#     Edge 21, Type (0, 0), BuildingBlock: FUNLAD_clean_linker_0, # of connection points: 2
#     Edge 22, Type (0, 0), BuildingBlock: FUNLAD_clean_linker_0, # of connection points: 2
#     Edge 23, Type (0, 0), BuildingBlock: FUNLAD_clean_linker_0, # of connection points: 2
# Relax obj value: 0.066
# Max RMSD: 0.141
# Mean RMSD: 0.141
data_MOF--net-umx--node1-QUQFOY_clean_sbu_1--edge1-FUNLAD_clean_linker_0
_symmetry_space_group_name_H-M    P1
_symmetry_Int_Tables_number       1
_symmetry_cell_setting            triclinic
loop_
_symmetry_equiv_pos_as_xyz
'x, y, z'
_cell_length_a     47.133896
_cell_length_b     47.238316
_cell_length_c     33.584428
_cell_angle_alpha  89.928343
_cell_angle_beta   89.893574
_cell_angle_gamma 90.007952
loop_
_atom_site_label
_atom_site_type_symbol
_atom_site_fract_x
_atom_site_fract_y
_atom_site_fract_z
_atom_type_partial_charge
O0 O 0.19297 0.4464 0.09275 0.0
Cd1 Cd 0.17864 0.42745 0.04149 0.0
Cd2 Cd 0.19249 0.47814 0.01095 0.0
O3 O 0.21209 0.48442 0.06551 0.0
O4 O 0.18124 0.38569 0.05112 0.0
O5 O 0.20826 0.40863 1.00784 0.0
C6 C 0.202 0.38532 0.02599 0.0
C7 C 0.21509 0.4827 0.94939 0.0
C8 C 0.20746 0.46898 0.09595 0.0
C9 C 0.13049 0.46288 0.01298 0.0
O10 O 0.14894 0.48234 1.00907 0.0
O11 O 0.13806 0.43796 0.02278 0.0
O12 O 0.20795 0.50472 0.96982 0.0
O13 O 0.21081 0.4581 0.96511 0.0
O14 O 0.56435 0.18904 0.59626 0.0
Cd15 Cd 0.58293 0.17542 0.54419 0.0
Cd16 Cd 0.53198 0.18902 0.51461 0.0
O17 O 0.52563 0.20733 0.56995 0.0
O18 O 0.62478 0.17793 0.55289 0.0
O19 O 0.60147 0.20522 0.51046 0.0
C20 C 0.625 0.19871 0.52791 0.0
C21 C 0.52403 0.21317 0.45496 0.0
C22 C 0.54136 0.20285 0.60007 0.0
C23 C 0.54801 0.1273 0.51471 0.0
O24 O 0.52838 0.14554 0.51089 0.0
O25 O 0.57279 0.135 0.52509 0.0
O26 O 0.50322 0.20442 0.47676 0.0
O27 O 0.54949 0.20937 0.4681 0.0
O28 O 0.82086 0.56619 0.09705 0.0
Cd29 Cd 0.8335 0.58364 0.04387 0.0
Cd30 Cd 0.81984 0.53105 0.01861 0.0
O31 O 0.80114 0.52693 0.07474 0.0
O32 O 0.82905 0.6256 0.05092 0.0
O33 O 0.80257 0.6 0.01033 0.0
C34 C 0.80776 0.62409 0.02688 0.0
C35 C 0.79748 0.5261 0.95682 0.0
C36 C 0.80659 0.54379 0.10335 0.0
C37 C 0.88158 0.54783 0.0164 0.0
O38 O 0.86344 0.52788 0.01585 0.0
O39 O 0.87379 0.57313 0.02367 0.0
O40 O 0.80423 0.50413 0.97772 0.0
O41 O 0.80163 0.55071 0.97242 0.0
O42 O 0.44669 0.81667 0.59672 0.0
Cd43 Cd 0.42954 0.82996 0.54364 0.0
Cd44 Cd 0.48189 0.81663 0.51881 0.0
O45 O 0.48647 0.79787 0.57461 0.0
O46 O 0.38793 0.82839 0.55441 0.0
O47 O 0.40932 0.8008 0.51048 0.0
C48 C 0.38652 0.80761 0.52963 0.0
C49 C 0.49051 0.7945 0.45772 0.0
C50 C 0.46931 0.8028 0.60311 0.0
C51 C 0.46532 0.87825 0.51722 0.0
O52 O 0.48529 0.86016 0.5162 0.0
O53 O 0.44002 0.8704 0.52464 0.0
O54 O 0.51106 0.80194 0.48084 0.0
O55 O 0.46488 0.79785 0.47067 0.0
O56 O 0.19394 0.55892 0.44844 0.0
Cd57 Cd 0.17941 0.57928 0.49857 0.0
Cd58 Cd 0.19308 0.52932 0.53113 0.0
O59 O 0.21229 0.52105 0.47678 0.0
O60 O 0.18158 0.62016 0.48367 0.0
O61 O 0.20793 0.60091 0.53095 0.0
C62 C 0.20177 0.62269 0.50931 0.0
C63 C 0.21639 0.52542 0.59211 0.0
C64 C 0.20796 0.53603 0.44588 0.0
C65 C 0.13106 0.54492 0.52905 0.0
O66 O 0.14948 0.52557 0.53412 0.0
O67 O 0.13867 0.56947 0.51751 0.0
O68 O 0.20864 0.50324 0.57253 0.0
O69 O 0.21216 0.5499 0.57595 0.0
O70 O 0.4508 0.19127 0.9552 0.0
Cd71 Cd 0.4315 0.17878 1.00731 0.0
Cd72 Cd 0.48282 0.19054 0.03706 0.0
O73 O 0.48982 0.20873 0.98169 0.0
O74 O 0.38993 0.18497 0.99948 0.0
O75 O 0.41603 0.20974 0.0417 0.0
C76 C 0.39186 0.20559 0.02453 0.0
C77 C 0.4931 0.21345 0.09692 0.0
C78 C 0.47415 0.20447 0.95146 0.0
C79 C 0.46404 0.12938 0.0371 0.0
O80 O 0.48432 0.14694 0.04066 0.0
O81 O 0.43952 0.13791 0.02671 0.0
O82 O 0.51301 0.20393 0.07419 0.0
O83 O 0.46727 0.21135 0.08449 0.0
O84 O 0.82023 0.44317 0.45646 0.0
Cd85 Cd 0.83306 0.42606 0.5097 0.0
Cd86 Cd 0.81983 0.47876 0.53471 0.0
O87 O 0.8011 0.48276 0.47869 0.0
O88 O 0.82846 0.38406 0.50335 0.0
O89 O 0.80226 0.41003 0.54398 0.0
C90 C 0.8073 0.3858 0.52772 0.0
C91 C 0.79719 0.48447 0.59632 0.0
C92 C 0.8062 0.4657 0.45016 0.0
C93 C 0.88153 0.46176 0.53607 0.0
O94 O 0.86348 0.48178 0.53705 0.0
O95 O 0.87355 0.43649 0.52896 0.0
O96 O 0.80421 0.50617 0.57499 0.0
O97 O 0.80142 0.45967 0.58137 0.0
O98 O 0.567 0.81969 0.95804 0.0
Cd99 Cd 0.58235 0.83249 0.01241 0.0
Cd100 Cd 0.52977 0.81808 0.03488 0.0
O101 O 0.52732 0.79967 0.97861 0.0
O102 O 0.62459 0.8313 1.00689 0.0
O103 O 0.60037 0.80235 0.04608 0.0
C104 C 0.62436 0.80984 0.03068 0.0
C105 C 0.52126 0.79491 0.09536 0.0
C106 C 0.54485 0.80527 0.95075 0.0
C107 C 0.54495 0.87985 0.03811 0.0
O108 O 0.52522 0.86149 0.03783 0.0
O109 O 0.57053 0.87237 0.03194 0.0
O110 O 0.50066 0.80199 0.07208 0.0
O111 O 0.54685 0.79934 0.08296 0.0
C112 C 0.21211 0.46053 0.16919 0.0
C113 C 0.21734 0.47788 0.13592 0.0
C114 C 0.21849 0.46984 0.20757 0.0
C115 C 0.23055 0.49675 0.21371 0.0
C116 C 0.23673 0.51367 0.18032 0.0
C117 C 0.23029 0.50433 0.14183 0.0
C118 C 0.23392 0.50908 0.25426 0.0
C119 C 0.23323 0.49374 0.28819 0.0
C120 C 0.23025 0.50638 0.32862 0.0
C121 C 0.23548 0.48941 0.36224 0.0
C122 C 0.22935 0.4993 0.40061 0.0
C123 C 0.21762 0.52636 0.40611 0.0
H124 H 0.21426 0.54749 0.30956 0.0
C125 C 0.21332 0.5437 0.37259 0.0
C126 C 0.21941 0.53385 0.33437 0.0
H127 H 0.20431 0.56468 0.37565 0.0
H128 H 0.20215 0.44001 0.16581 0.0
H129 H 0.21263 0.45628 0.23218 0.0
H130 H 0.24582 0.53456 0.18408 0.0
H131 H 0.23462 0.51824 0.11688 0.0
H132 H 0.23605 0.53192 0.25592 0.0
H133 H 0.23387 0.47081 0.28664 0.0
H134 H 0.2436 0.46809 0.35877 0.0
H135 H 0.23291 0.48539 0.42577 0.0
C136 C 0.54956 0.2066 0.67347 0.0
C137 C 0.53227 0.21211 0.64028 0.0
C138 C 0.54005 0.21255 0.71195 0.0
C139 C 0.51302 0.22445 0.71825 0.0
C140 C 0.49614 0.23082 0.68496 0.0
C141 C 0.50567 0.22483 0.64639 0.0
C142 C 0.5006 0.22761 0.75882 0.0
C143 C 0.51604 0.22733 0.79262 0.0
C144 C 0.50347 0.22471 0.83319 0.0
C145 C 0.52048 0.23066 0.86648 0.0
C146 C 0.51068 0.22512 0.90508 0.0
C147 C 0.48366 0.21329 0.9112 0.0
H148 H 0.46242 0.208 0.81492 0.0
C149 C 0.46628 0.2082 0.87798 0.0
C150 C 0.47606 0.21369 0.83948 0.0
H151 H 0.44536 0.19905 0.88153 0.0
H152 H 0.57016 0.19677 0.66993 0.0
H153 H 0.55355 0.20652 0.73652 0.0
H154 H 0.47516 0.23979 0.68884 0.0
H155 H 0.4918 0.22936 0.62149 0.0
H156 H 0.47769 0.22942 0.76061 0.0
H157 H 0.53901 0.22827 0.79084 0.0
H158 H 0.54175 0.23894 0.86259 0.0
H159 H 0.52463 0.2293 0.92999 0.0
C160 C 0.78628 0.49883 0.39817 0.0
C161 C 0.79722 0.47218 0.40875 0.0
C162 C 0.78058 0.50532 0.35817 0.0
C163 C 0.78583 0.48525 0.32792 0.0
C164 C 0.79533 0.45822 0.33898 0.0
C165 C 0.80104 0.45179 0.37872 0.0
C166 C 0.78297 0.49157 0.28453 0.0
C167 C 0.78328 0.51794 0.26912 0.0
C168 C 0.78623 0.52424 0.22572 0.0
C169 C 0.79614 0.55114 0.21468 0.0
C170 C 0.80187 0.55756 0.17492 0.0
C171 C 0.79767 0.53729 0.14483 0.0
H172 H 0.77211 0.48362 0.20231 0.0
C173 C 0.78638 0.51078 0.15542 0.0
C174 C 0.78065 0.5043 0.19545 0.0
H175 H 0.7826 0.4948 0.13295 0.0
H176 H 0.78279 0.51492 0.4206 0.0
H177 H 0.77234 0.5261 0.3513 0.0
H178 H 0.79928 0.44219 0.3166 0.0
H179 H 0.80909 0.4309 0.3857 0.0
H180 H 0.7837 0.47357 0.26453 0.0
H181 H 0.78446 0.5359 0.28914 0.0
H182 H 0.80036 0.56708 0.23708 0.0
H183 H 0.81021 0.57835 0.16795 0.0
C184 C 0.51333 0.78391 0.89805 0.0
C185 C 0.53921 0.79644 0.90905 0.0
C186 C 0.50745 0.77811 0.85794 0.0
C187 C 0.52734 0.7849 0.82794 0.0
C188 C 0.55366 0.7961 0.83935 0.0
C189 C 0.55951 0.80188 0.87925 0.0
C190 C 0.52144 0.78187 0.78447 0.0
C191 C 0.49512 0.78044 0.76891 0.0
C192 C 0.48889 0.78309 0.7255 0.0
C193 C 0.46159 0.79177 0.71427 0.0
C194 C 0.45516 0.79723 0.67447 0.0
C195 C 0.47582 0.79394 0.64455 0.0
H196 H 0.5303 0.77075 0.70245 0.0
C197 C 0.50278 0.78379 0.65532 0.0
C198 C 0.50927 0.77836 0.69539 0.0
H199 H 0.51909 0.78074 0.63298 0.0
H200 H 0.49736 0.77914 0.92029 0.0
H201 H 0.48726 0.76855 0.8508 0.0
H202 H 0.56956 0.80128 0.81714 0.0
H203 H 0.57982 0.81124 0.88654 0.0
H204 H 0.53948 0.78392 0.76457 0.0
H205 H 0.47696 0.78037 0.7888 0.0
H206 H 0.44532 0.79529 0.73657 0.0
H207 H 0.43404 0.80469 0.66733 0.0
C208 C 0.78472 0.51475 0.65534 0.0
C209 C 0.78724 0.48777 0.63806 0.0
C210 C 0.77906 0.51771 0.69611 0.0
C211 C 0.776 0.49366 0.72072 0.0
C212 C 0.77704 0.46678 0.70285 0.0
C213 C 0.78263 0.46384 0.66213 0.0
C214 C 0.77284 0.49529 0.76503 0.0
C215 C 0.7786 0.51859 0.78689 0.0
C216 C 0.77936 0.51922 0.83138 0.0
C217 C 0.77881 0.54563 0.85058 0.0
C218 C 0.78309 0.54771 0.89168 0.0
C219 C 0.78826 0.52339 0.91471 0.0
H220 H 0.78453 0.47395 0.84135 0.0
C221 C 0.78762 0.49681 0.89592 0.0
C222 C 0.7833 0.49471 0.85474 0.0
H223 H 0.79172 0.47766 0.91271 0.0
H224 H 0.78789 0.53365 0.63759 0.0
H225 H 0.77749 0.53891 0.70792 0.0
H226 H 0.77447 0.44784 0.72072 0.0
H227 H 0.78428 0.44272 0.64983 0.0
H228 H 0.76691 0.47589 0.78022 0.0
H229 H 0.78415 0.53818 0.77199 0.0
H230 H 0.7759 0.56489 0.83351 0.0
H231 H 0.78347 0.56855 0.9051 0.0
C232 C 0.53801 0.77974 0.16315 0.0
C233 C 0.51559 0.7847 0.13648 0.0
C234 C 0.53258 0.77391 0.20338 0.0
C235 C 0.50451 0.77309 0.21796 0.0
C236 C 0.48215 0.77647 0.19073 0.0
C237 C 0.48759 0.7823 0.15057 0.0
C238 C 0.49747 0.76975 0.26116 0.0
C239 C 0.51571 0.77589 0.29093 0.0
C240 C 0.50809 0.7766 0.33418 0.0
C241 C 0.53016 0.7785 0.36213 0.0
C242 C 0.52438 0.78276 0.40254 0.0
C243 C 0.4963 0.78535 0.41618 0.0
H244 H 0.46207 0.77708 0.32789 0.0
C245 C 0.47408 0.78217 0.38865 0.0
C246 C 0.47986 0.77793 0.34811 0.0
H247 H 0.45219 0.78423 0.3981 0.0
H248 H 0.55985 0.78115 0.15323 0.0
H249 H 0.5505 0.77035 0.22278 0.0
H250 H 0.46032 0.77563 0.20082 0.0
H251 H 0.46977 0.78585 0.13086 0.0
H252 H 0.47586 0.7637 0.2683 0.0
H253 H 0.53725 0.78205 0.28358 0.0
H254 H 0.5521 0.77757 0.35251 0.0
H255 H 0.54205 0.78509 0.42286 0.0
C256 C 0.22702 0.51228 0.88958 0.0
C257 C 0.22517 0.4855 0.90771 0.0
C258 C 0.23228 0.51477 0.84869 0.0
C259 C 0.23598 0.49044 0.82499 0.0
C260 C 0.23539 0.46378 0.84359 0.0
C261 C 0.23015 0.46131 0.88444 0.0
C262 C 0.2374 0.49161 0.78063 0.0
C263 C 0.24359 0.51512 0.75938 0.0
C264 C 0.24021 0.51714 0.71526 0.0
C265 C 0.23683 0.54404 0.69796 0.0
C266 C 0.23043 0.54688 0.65747 0.0
C267 C 0.22736 0.52283 0.6333 0.0
H268 H 0.24263 0.47209 0.70185 0.0
C269 C 0.23246 0.49601 0.64997 0.0
C270 C 0.23898 0.49316 0.69039 0.0
H271 H 0.23068 0.47706 0.63202 0.0
H272 H 0.22317 0.53135 0.90661 0.0
H273 H 0.23193 0.53573 0.83576 0.0
H274 H 0.23809 0.44465 0.82619 0.0
H275 H 0.22887 0.44034 0.89742 0.0
H276 H 0.23157 0.47234 0.7652 0.0
H277 H 0.24951 0.53437 0.77484 0.0
H278 H 0.238 0.56293 0.71615 0.0
H279 H 0.22678 0.56788 0.64554 0.0
C280 C 0.54147 0.23075 0.38872 0.0
C281 C 0.51878 0.22484 0.41465 0.0
C282 C 0.53638 0.23795 0.34891 0.0
C283 C 0.50843 0.23925 0.33417 0.0
C284 C 0.48582 0.23513 0.36082 0.0
C285 C 0.4909 0.22788 0.40053 0.0
C286 C 0.50186 0.2434 0.29115 0.0
C287 C 0.51981 0.2359 0.26164 0.0
C288 C 0.51214 0.23467 0.21857 0.0
C289 C 0.534 0.23044 0.19071 0.0
C290 C 0.52786 0.22509 0.15073 0.0
C291 C 0.49962 0.22375 0.13756 0.0
H292 H 0.46618 0.2374 0.22512 0.0
C293 C 0.47771 0.22941 0.16486 0.0
C294 C 0.48384 0.23472 0.20495 0.0
H295 H 0.45571 0.22844 0.15569 0.0
H296 H 0.56321 0.22893 0.39879 0.0
H297 H 0.55442 0.24207 0.32983 0.0
H298 H 0.46408 0.23633 0.35051 0.0
H299 H 0.47291 0.22371 0.41978 0.0
H300 H 0.48064 0.25062 0.28397 0.0
H301 H 0.54091 0.2285 0.26926 0.0
H302 H 0.55597 0.23027 0.20015 0.0
H303 H 0.54527 0.22089 0.13049 0.0
C304 C 0.92008 0.51376 0.99759 0.0
C305 C 0.912 0.54099 0.01018 0.0
C306 C 0.94871 0.50646 0.99403 0.0
C307 C 0.97008 0.52614 1.00353 0.0
C308 C 0.96198 0.55364 0.01484 0.0
C309 C 0.93329 0.561 0.01817 0.0
C310 C 1.0009 0.51899 1.00185 0.0
C311 C 0.01109 0.49225 1.0028 0.0
C312 C 0.04191 0.48501 1.00339 0.0
C313 C 0.0501 0.45786 0.01618 0.0
C314 C 0.07878 0.45037 0.01846 0.0
C315 C 0.1 0.46988 1.0079 0.0
H316 H 0.05797 0.52494 0.97998 0.0
C317 C 0.09182 0.49675 0.99391 0.0
C318 C 0.06317 0.50419 0.99144 0.0
H319 H 0.1076 0.5122 0.98502 0.0
H320 H 0.90424 0.49792 0.9906 0.0
H321 H 0.95379 0.48541 0.98367 0.0
H322 H 0.97791 0.56939 0.02188 0.0
H323 H 0.92784 0.58219 0.02782 0.0
H324 H 0.01559 0.53666 1.00229 0.0
H325 H 0.99641 0.47468 1.00567 0.0
H326 H 0.03425 0.44249 0.02515 0.0
H327 H 0.08428 0.42947 0.02926 0.0
C328 C 0.4993 0.91689 0.49852 0.0
C329 C 0.47206 0.90864 0.51117 0.0
C330 C 0.50638 0.94551 0.49486 0.0
C331 C 0.48646 0.96668 0.50431 0.0
C332 C 0.45897 0.9584 0.51574 0.0
C333 C 0.45182 0.92973 0.51917 0.0
C334 C 0.49334 0.9975 0.50251 0.0
C335 C 0.52003 0.00793 0.50316 0.0
C336 C 0.52695 0.03874 0.5039 0.0
C337 C 0.55403 0.04717 0.51675 0.0
C338 C 0.56119 0.07586 0.51937 0.0
C339 C 0.54139 0.09685 0.50907 0.0
H340 H 0.48681 0.05438 0.48061 0.0
C341 C 0.51461 0.08844 0.49492 0.0
C342 C 0.50751 0.05977 0.49213 0.0
H343 H 0.49896 0.10405 0.48622 0.0
H344 H 0.5153 0.9012 0.49153 0.0
H345 H 0.52745 0.95073 0.48443 0.0
H346 H 0.44305 0.97417 0.52277 0.0
H347 H 0.43062 0.92415 0.52885 0.0
H348 H 0.4755 0.01199 0.50316 0.0
H349 H 0.5378 0.99347 0.5058 0.0
H350 H 0.5696 0.03151 0.52558 0.0
H351 H 0.58203 0.08154 0.53027 0.0
C352 C 0.09235 0.51175 0.55054 0.0
C353 C 0.10057 0.53819 0.53501 0.0
C354 C 0.06368 0.50456 0.55408 0.0
C355 C 0.04242 0.52357 0.54172 0.0
C356 C 0.05066 0.55031 0.52732 0.0
C357 C 0.07936 0.55755 0.52394 0.0
C358 C 0.01157 0.51657 0.54357 0.0
C359 C 1.00121 0.48994 0.54601 0.0
C360 C 0.97033 0.48297 0.5456 0.0
C361 C 0.96188 0.45538 0.53535 0.0
C362 C 0.9331 0.44818 0.53317 0.0
C363 C 0.91207 0.46845 0.54131 0.0
H364 H 0.95464 0.52409 0.56486 0.0
C365 C 0.92051 0.49579 0.55291 0.0
C366 C 0.94924 0.50293 0.55528 0.0
H367 H 0.90489 0.51184 0.55996 0.0
H368 H 0.10811 0.49644 0.55985 0.0
H369 H 0.05846 0.48416 0.56673 0.0
H370 H 0.03482 0.56554 0.51798 0.0
H371 H 0.08489 0.57813 0.51197 0.0
H372 H 0.99696 0.53417 0.54038 0.0
H373 H 0.01578 0.47217 0.54585 0.0
H374 H 0.97759 0.43943 0.52821 0.0
H375 H 0.92738 0.42691 0.52426 0.0
C376 C 0.50995 0.9182 0.05415 0.0
C377 C 0.53775 0.91014 0.04392 0.0
C378 C 0.5026 0.94679 0.05747 0.0
C379 C 0.52287 0.96809 0.05015 0.0
C380 C 0.55083 0.95996 0.04107 0.0
C381 C 0.55821 0.93136 0.03796 0.0
C382 C 0.51597 0.9989 0.05181 0.0
C383 C 0.48938 0.00952 0.04998 0.0
C384 C 0.48286 0.04042 0.04913 0.0
C385 C 0.45641 0.04938 0.03446 0.0
C386 C 0.44988 0.07821 0.03149 0.0
C387 C 0.46969 0.09879 0.04321 0.0
H388 H 0.52232 0.05527 0.07549 0.0
C389 C 0.49574 0.08985 0.05926 0.0
C390 C 0.50219 0.06106 0.06246 0.0
H391 H 0.51134 0.10512 0.06917 0.0
H392 H 0.49371 0.9024 0.05945 0.0
H393 H 0.48107 0.95187 0.06594 0.0
H394 H 0.56701 0.97582 0.03569 0.0
H395 H 0.57984 0.92594 0.03015 0.0
H396 H 0.53388 0.01331 0.05214 0.0
H397 H 0.47155 0.99525 0.04641 0.0
H398 H 0.44093 0.03401 0.02442 0.0
H399 H 0.42958 0.08435 0.01912 0.0
C400 C 0.24683 0.36173 1.00372 0.0
C401 C 0.21976 0.3597 0.02113 0.0
C402 C 0.26522 0.3385 1.00381 0.0
C403 C 0.25681 0.31265 0.02101 0.0
C404 C 0.22923 0.31016 0.03643 0.0
C405 C 0.21098 0.33354 0.03693 0.0
C406 C 0.27645 0.28808 0.02316 0.0
C407 C 0.30446 0.2913 0.02983 0.0
C408 C 0.32506 0.26748 0.03189 0.0
C409 C 0.35086 0.27168 0.05187 0.0
C410 C 0.372 0.25092 0.05132 0.0
C411 C 0.36795 0.22557 0.03024 0.0
H412 H 0.30122 0.23777 0.99561 0.0
C413 C 0.34179 0.22093 0.01124 0.0
C414 C 0.32055 0.24164 0.01204 0.0
H415 H 0.33805 0.20169 0.99454 0.0
H416 H 0.25423 0.38156 0.99121 0.0
H417 H 0.28605 0.34087 0.99058 0.0
H418 H 0.22212 0.29036 0.04935 0.0
H419 H 0.19021 0.33126 0.0504 0.0
H420 H 0.26731 0.26701 0.02168 0.0
H421 H 0.31271 0.31244 0.03521 0.0
H422 H 0.35495 0.29139 0.0673 0.0
H423 H 0.39193 0.25525 0.06613 0.0
C424 C 0.79177 0.33603 0.51314 0.0
C425 C 0.78746 0.36177 0.53328 0.0
C426 C 0.77083 0.31498 0.51349 0.0
C427 C 0.74512 0.31928 0.53403 0.0
C428 C 0.74134 0.34458 0.55529 0.0
C429 C 0.7623 0.3655 0.55516 0.0
C430 C 0.72095 0.2991 0.53155 0.0
C431 C 0.72365 0.27133 0.52325 0.0
C432 C 0.69868 0.25217 0.52127 0.0
C433 C 0.70098 0.22436 0.53564 0.0
C434 C 0.67723 0.20659 0.53664 0.0
C435 C 0.65086 0.21609 0.52237 0.0
H436 H 0.67035 0.28235 0.49312 0.0
C437 C 0.64896 0.24339 0.5059 0.0
C438 C 0.67259 0.2613 0.50552 0.0
H439 H 0.62898 0.25131 0.49457 0.0
H440 H 0.81084 0.33255 0.49578 0.0
H441 H 0.77438 0.29603 0.49613 0.0
H442 H 0.72177 0.34849 0.57135 0.0
H443 H 0.75822 0.38508 0.57091 0.0
H444 H 0.69996 0.30745 0.53812 0.0
H445 H 0.74459 0.26195 0.5205 0.0
H446 H 0.72094 0.21671 0.54746 0.0
H447 H 0.6794 0.18561 0.54933 0.0
C448 C 0.79201 0.67356 0.04311 0.0
C449 C 0.7879 0.64818 0.02203 0.0
C450 C 0.77099 0.69453 0.04343 0.0
C451 C 0.74542 0.69052 0.02258 0.0
C452 C 0.74186 0.66562 1.00035 0.0
C453 C 0.76288 0.64477 0.99986 0.0
C454 C 0.72113 0.71054 0.02563 0.0
C455 C 0.72356 0.73808 0.03547 0.0
C456 C 0.69844 0.75704 0.0378 0.0
C457 C 0.70079 0.78522 0.02495 0.0
C458 C 0.6769 0.8028 0.02399 0.0
C459 C 0.65032 0.79271 0.03677 0.0
H460 H 0.66983 0.72596 0.06353 0.0
C461 C 0.64836 0.76503 0.05189 0.0
C462 C 0.67214 0.74733 0.05226 0.0
H463 H 0.62822 0.75663 0.06208 0.0
H464 H 0.81097 0.67677 0.06072 0.0
H465 H 0.77439 0.71315 0.06152 0.0
H466 H 0.7224 0.66194 0.98402 0.0
H467 H 0.75895 0.62548 0.98336 0.0
H468 H 0.70028 0.70228 0.01817 0.0
H469 H 0.74439 0.74749 0.03921 0.0
H470 H 0.7209 0.79331 0.01418 0.0
H471 H 0.67912 0.82408 0.01235 0.0
C472 C 0.35776 0.76897 0.49782 0.0
C473 C 0.36039 0.79028 0.52677 0.0
C474 C 0.33467 0.7503 0.49863 0.0
C475 C 0.31391 0.75241 0.52869 0.0
C476 C 0.31624 0.77409 0.55698 0.0
C477 C 0.33902 0.79301 0.55579 0.0
C478 C 0.29101 0.73102 0.53331 0.0
C479 C 0.27913 0.71746 0.50233 0.0
C480 C 0.25748 0.69484 0.50722 0.0
C481 C 0.23709 0.691 0.47736 0.0
C482 C 0.21795 0.66842 0.47929 0.0
C483 C 0.21923 0.64875 0.51071 0.0
H484 H 0.27397 0.67777 0.56262 0.0
C485 C 0.23928 0.65289 0.54108 0.0
C486 C 0.25813 0.67579 0.53949 0.0
H487 H 0.24093 0.638 0.56553 0.0
H488 H 0.37397 0.7662 0.47525 0.0
H489 H 0.33385 0.73347 0.47681 0.0
H490 H 0.30063 0.7761 0.58054 0.0
H491 H 0.34047 0.80904 0.57873 0.0
H492 H 0.28323 0.72687 0.56324 0.0
H493 H 0.28488 0.7236 0.47217 0.0
H494 H 0.23623 0.70526 0.4521 0.0
H495 H 0.20293 0.66574 0.45521 0.0
loop_
_geom_bond_atom_site_label_1
_geom_bond_atom_site_label_2
_geom_bond_distance
_geom_bond_site_symmetry_2
_ccdc_geom_bond_type
O0 Cd1 2.223 . S
O0 C8 1.315 . S
Cd1 O0 2.223 . S
Cd1 O4 2.297 . S
Cd1 O5 2.439 . S
Cd1 O11 2.240 . S
Cd2 O3 2.240 . S
Cd2 O10 2.223 . S
Cd2 O12 2.297 1_554 S
Cd2 O13 2.439 1_554 S
O3 Cd2 2.240 . S
O3 C8 1.279 . S
O4 Cd1 2.297 . S
O4 C6 1.247 . S
O5 Cd1 2.439 . S
O5 C6 1.208 . S
C6 O4 1.247 . S
C6 O5 1.208 . S
C7 O12 1.247 . S
C7 O13 1.208 . S
C8 O0 1.315 . S
C8 O3 1.279 . S
C9 O10 1.315 . S
C9 O11 1.279 . S
O10 Cd2 2.223 . S
O10 C9 1.315 . S
O11 Cd1 2.240 . S
O11 C9 1.279 . S
O12 Cd2 2.297 1_556 S
O12 C7 1.247 . S
O13 Cd2 2.439 1_556 S
O13 C7 1.208 . S
O14 Cd15 2.223 . S
O14 C22 1.315 . S
Cd15 O14 2.223 . S
Cd15 O18 2.297 . S
Cd15 O19 2.439 . S
Cd15 O25 2.240 . S
Cd16 O17 2.240 . S
Cd16 O24 2.223 . S
Cd16 O26 2.297 . S
Cd16 O27 2.439 . S
O17 Cd16 2.240 . S
O17 C22 1.279 . S
O18 Cd15 2.297 . S
O18 C20 1.247 . S
O19 Cd15 2.439 . S
O19 C20 1.208 . S
C20 O18 1.247 . S
C20 O19 1.208 . S
C21 O26 1.247 . S
C21 O27 1.208 . S
C22 O14 1.315 . S
C22 O17 1.279 . S
C23 O24 1.315 . S
C23 O25 1.279 . S
O24 Cd16 2.223 . S
O24 C23 1.315 . S
O25 Cd15 2.240 . S
O25 C23 1.279 . S
O26 Cd16 2.297 . S
O26 C21 1.247 . S
O27 Cd16 2.439 . S
O27 C21 1.208 . S
O28 Cd29 2.223 . S
O28 C36 1.315 . S
Cd29 O28 2.223 . S
Cd29 O32 2.297 . S
Cd29 O33 2.439 . S
Cd29 O39 2.240 . S
Cd30 O31 2.240 . S
Cd30 O38 2.223 . S
Cd30 O40 2.297 1_554 S
Cd30 O41 2.439 1_554 S
O31 Cd30 2.240 . S
O31 C36 1.279 . S
O32 Cd29 2.297 . S
O32 C34 1.247 . S
O33 Cd29 2.439 . S
O33 C34 1.208 . S
C34 O32 1.247 . S
C34 O33 1.208 . S
C35 O40 1.247 . S
C35 O41 1.208 . S
C36 O28 1.315 . S
C36 O31 1.279 . S
C37 O38 1.315 . S
C37 O39 1.279 . S
O38 Cd30 2.223 . S
O38 C37 1.315 . S
O39 Cd29 2.240 . S
O39 C37 1.279 . S
O40 Cd30 2.297 1_556 S
O40 C35 1.247 . S
O41 Cd30 2.439 1_556 S
O41 C35 1.208 . S
O42 Cd43 2.223 . S
O42 C50 1.315 . S
Cd43 O42 2.223 . S
Cd43 O46 2.297 . S
Cd43 O47 2.439 . S
Cd43 O53 2.240 . S
Cd44 O45 2.240 . S
Cd44 O52 2.223 . S
Cd44 O54 2.297 . S
Cd44 O55 2.439 . S
O45 Cd44 2.240 . S
O45 C50 1.279 . S
O46 Cd43 2.297 . S
O46 C48 1.247 . S
O47 Cd43 2.439 . S
O47 C48 1.208 . S
C48 O46 1.247 . S
C48 O47 1.208 . S
C49 O54 1.247 . S
C49 O55 1.208 . S
C50 O42 1.315 . S
C50 O45 1.279 . S
C51 O52 1.315 . S
C51 O53 1.279 . S
O52 Cd44 2.223 . S
O52 C51 1.315 . S
O53 Cd43 2.240 . S
O53 C51 1.279 . S
O54 Cd44 2.297 . S
O54 C49 1.247 . S
O55 Cd44 2.439 . S
O55 C49 1.208 . S
O56 Cd57 2.223 . S
O56 C64 1.315 . S
Cd57 O56 2.223 . S
Cd57 O60 2.297 . S
Cd57 O61 2.439 . S
Cd57 O67 2.240 . S
Cd58 O59 2.240 . S
Cd58 O66 2.223 . S
Cd58 O68 2.297 . S
Cd58 O69 2.439 . S
O59 Cd58 2.240 . S
O59 C64 1.279 . S
O60 Cd57 2.297 . S
O60 C62 1.247 . S
O61 Cd57 2.439 . S
O61 C62 1.208 . S
C62 O60 1.247 . S
C62 O61 1.208 . S
C63 O68 1.247 . S
C63 O69 1.208 . S
C64 O56 1.315 . S
C64 O59 1.279 . S
C65 O66 1.315 . S
C65 O67 1.279 . S
O66 Cd58 2.223 . S
O66 C65 1.315 . S
O67 Cd57 2.240 . S
O67 C65 1.279 . S
O68 Cd58 2.297 . S
O68 C63 1.247 . S
O69 Cd58 2.439 . S
O69 C63 1.208 . S
O70 Cd71 2.223 . S
O70 C78 1.315 . S
Cd71 O70 2.223 . S
Cd71 O74 2.297 . S
Cd71 O75 2.439 1_556 S
Cd71 O81 2.240 1_556 S
Cd72 O73 2.240 1_554 S
Cd72 O80 2.223 . S
Cd72 O82 2.297 . S
Cd72 O83 2.439 . S
O73 Cd72 2.240 1_556 S
O73 C78 1.279 . S
O74 Cd71 2.297 . S
O74 C76 1.247 . S
O75 Cd71 2.439 1_554 S
O75 C76 1.208 1_554 S
C76 O74 1.247 . S
C76 O75 1.208 1_556 S
C77 O82 1.247 . S
C77 O83 1.208 . S
C78 O70 1.315 . S
C78 O73 1.279 . S
C79 O80 1.315 . S
C79 O81 1.279 . S
O80 Cd72 2.223 . S
O80 C79 1.315 . S
O81 Cd71 2.240 1_554 S
O81 C79 1.279 . S
O82 Cd72 2.297 . S
O82 C77 1.247 . S
O83 Cd72 2.439 . S
O83 C77 1.208 . S
O84 Cd85 2.223 . S
O84 C92 1.315 . S
Cd85 O84 2.223 . S
Cd85 O88 2.297 . S
Cd85 O89 2.439 . S
Cd85 O95 2.240 . S
Cd86 O87 2.240 . S
Cd86 O94 2.223 . S
Cd86 O96 2.297 . S
Cd86 O97 2.439 . S
O87 Cd86 2.240 . S
O87 C92 1.279 . S
O88 Cd85 2.297 . S
O88 C90 1.247 . S
O89 Cd85 2.439 . S
O89 C90 1.208 . S
C90 O88 1.247 . S
C90 O89 1.208 . S
C91 O96 1.247 . S
C91 O97 1.208 . S
C92 O84 1.315 . S
C92 O87 1.279 . S
C93 O94 1.315 . S
C93 O95 1.279 . S
O94 Cd86 2.223 . S
O94 C93 1.315 . S
O95 Cd85 2.240 . S
O95 C93 1.279 . S
O96 Cd86 2.297 . S
O96 C91 1.247 . S
O97 Cd86 2.439 . S
O97 C91 1.208 . S
O98 Cd99 2.223 . S
O98 C106 1.315 . S
Cd99 O98 2.223 . S
Cd99 O102 2.297 . S
Cd99 O103 2.439 1_556 S
Cd99 O109 2.240 1_556 S
Cd100 O101 2.240 1_554 S
Cd100 O108 2.223 . S
Cd100 O110 2.297 . S
Cd100 O111 2.439 . S
O101 Cd100 2.240 1_556 S
O101 C106 1.279 . S
O102 Cd99 2.297 . S
O102 C104 1.247 . S
O103 Cd99 2.439 1_554 S
O103 C104 1.208 1_554 S
C104 O102 1.247 . S
C104 O103 1.208 1_556 S
C105 O110 1.247 . S
C105 O111 1.208 . S
C106 O98 1.315 . S
C106 O101 1.279 . S
C107 O108 1.315 . S
C107 O109 1.279 . S
O108 Cd100 2.223 . S
O108 C107 1.315 . S
O109 Cd99 2.240 1_554 S
O109 C107 1.279 . S
O110 Cd100 2.297 . S
O110 C105 1.247 . S
O111 Cd100 2.439 . S
O111 C105 1.208 . S
C112 C113 1.386 . S
C112 C114 1.383 . S
C112 H128 0.951 . S
C113 C112 1.386 . S
C113 C117 1.383 . S
C114 C112 1.383 . S
C114 C115 1.402 . S
C114 H129 0.951 . S
C115 C114 1.402 . S
C115 C116 1.375 . S
C115 C118 1.481 . S
C116 C115 1.375 . S
C116 C117 1.367 . S
C116 H130 0.951 . S
C117 C113 1.383 . S
C117 C116 1.367 . S
C117 H131 0.950 . S
C118 C115 1.481 . S
C118 C119 1.297 . S
C118 H132 0.950 . S
C119 C118 1.297 . S
C119 C120 1.479 . S
C119 H133 0.950 . S
C120 C119 1.479 . S
C120 C121 1.375 . S
C120 C126 1.404 . S
C121 C120 1.375 . S
C121 C122 1.369 . S
C121 H134 0.950 . S
C122 C121 1.369 . S
C122 C123 1.392 . S
C122 H135 0.951 . S
C123 C122 1.392 . S
C123 C125 1.384 . S
H124 C126 0.949 . S
C125 C123 1.384 . S
C125 C126 1.385 . S
C125 H127 0.950 . S
C126 C120 1.404 . S
C126 H124 0.949 . S
C126 C125 1.385 . S
H127 C125 0.950 . S
H128 C112 0.951 . S
H129 C114 0.951 . S
H130 C116 0.951 . S
H131 C117 0.950 . S
H132 C118 0.950 . S
H133 C119 0.950 . S
H134 C121 0.950 . S
H135 C122 0.951 . S
C136 C137 1.386 . S
C136 C138 1.383 . S
C136 H152 0.951 . S
C137 C136 1.386 . S
C137 C141 1.383 . S
C138 C136 1.383 . S
C138 C139 1.402 . S
C138 H153 0.951 . S
C139 C138 1.402 . S
C139 C140 1.375 . S
C139 C142 1.481 . S
C140 C139 1.375 . S
C140 C141 1.367 . S
C140 H154 0.951 . S
C141 C137 1.383 . S
C141 C140 1.367 . S
C141 H155 0.950 . S
C142 C139 1.481 . S
C142 C143 1.297 . S
C142 H156 0.950 . S
C143 C142 1.297 . S
C143 C144 1.479 . S
C143 H157 0.950 . S
C144 C143 1.479 . S
C144 C145 1.375 . S
C144 C150 1.404 . S
C145 C144 1.375 . S
C145 C146 1.369 . S
C145 H158 0.950 . S
C146 C145 1.369 . S
C146 C147 1.392 . S
C146 H159 0.951 . S
C147 C146 1.392 . S
C147 C149 1.384 . S
H148 C150 0.949 . S
C149 C147 1.384 . S
C149 C150 1.385 . S
C149 H151 0.950 . S
C150 C144 1.404 . S
C150 H148 0.949 . S
C150 C149 1.385 . S
H151 C149 0.950 . S
H152 C136 0.951 . S
H153 C138 0.951 . S
H154 C140 0.951 . S
H155 C141 0.950 . S
H156 C142 0.950 . S
H157 C143 0.950 . S
H158 C145 0.950 . S
H159 C146 0.951 . S
C160 C161 1.386 . S
C160 C162 1.383 . S
C160 H176 0.951 . S
C161 C160 1.386 . S
C161 C165 1.383 . S
C162 C160 1.383 . S
C162 C163 1.402 . S
C162 H177 0.951 . S
C163 C162 1.402 . S
C163 C164 1.375 . S
C163 C166 1.481 . S
C164 C163 1.375 . S
C164 C165 1.367 . S
C164 H178 0.951 . S
C165 C161 1.383 . S
C165 C164 1.367 . S
C165 H179 0.950 . S
C166 C163 1.481 . S
C166 C167 1.297 . S
C166 H180 0.950 . S
C167 C166 1.297 . S
C167 C168 1.479 . S
C167 H181 0.950 . S
C168 C167 1.479 . S
C168 C169 1.375 . S
C168 C174 1.404 . S
C169 C168 1.375 . S
C169 C170 1.369 . S
C169 H182 0.950 . S
C170 C169 1.369 . S
C170 C171 1.392 . S
C170 H183 0.951 . S
C171 C170 1.392 . S
C171 C173 1.384 . S
H172 C174 0.949 . S
C173 C171 1.384 . S
C173 C174 1.385 . S
C173 H175 0.950 . S
C174 C168 1.404 . S
C174 H172 0.949 . S
C174 C173 1.385 . S
H175 C173 0.950 . S
H176 C160 0.951 . S
H177 C162 0.951 . S
H178 C164 0.951 . S
H179 C165 0.950 . S
H180 C166 0.950 . S
H181 C167 0.950 . S
H182 C169 0.950 . S
H183 C170 0.951 . S
C184 C185 1.386 . S
C184 C186 1.383 . S
C184 H200 0.951 . S
C185 C184 1.386 . S
C185 C189 1.383 . S
C186 C184 1.383 . S
C186 C187 1.402 . S
C186 H201 0.951 . S
C187 C186 1.402 . S
C187 C188 1.375 . S
C187 C190 1.481 . S
C188 C187 1.375 . S
C188 C189 1.367 . S
C188 H202 0.951 . S
C189 C185 1.383 . S
C189 C188 1.367 . S
C189 H203 0.950 . S
C190 C187 1.481 . S
C190 C191 1.297 . S
C190 H204 0.950 . S
C191 C190 1.297 . S
C191 C192 1.479 . S
C191 H205 0.950 . S
C192 C191 1.479 . S
C192 C193 1.375 . S
C192 C198 1.404 . S
C193 C192 1.375 . S
C193 C194 1.369 . S
C193 H206 0.950 . S
C194 C193 1.369 . S
C194 C195 1.392 . S
C194 H207 0.951 . S
C195 C194 1.392 . S
C195 C197 1.384 . S
H196 C198 0.949 . S
C197 C195 1.384 . S
C197 C198 1.385 . S
C197 H199 0.950 . S
C198 C192 1.404 . S
C198 H196 0.949 . S
C198 C197 1.385 . S
H199 C197 0.950 . S
H200 C184 0.951 . S
H201 C186 0.951 . S
H202 C188 0.951 . S
H203 C189 0.950 . S
H204 C190 0.950 . S
H205 C191 0.950 . S
H206 C193 0.950 . S
H207 C194 0.951 . S
C208 C209 1.386 . S
C208 C210 1.383 . S
C208 H224 0.951 . S
C209 C208 1.386 . S
C209 C213 1.383 . S
C210 C208 1.383 . S
C210 C211 1.402 . S
C210 H225 0.951 . S
C211 C210 1.402 . S
C211 C212 1.375 . S
C211 C214 1.481 . S
C212 C211 1.375 . S
C212 C213 1.367 . S
C212 H226 0.951 . S
C213 C209 1.383 . S
C213 C212 1.367 . S
C213 H227 0.950 . S
C214 C211 1.481 . S
C214 C215 1.297 . S
C214 H228 0.950 . S
C215 C214 1.297 . S
C215 C216 1.479 . S
C215 H229 0.950 . S
C216 C215 1.479 . S
C216 C217 1.375 . S
C216 C222 1.404 . S
C217 C216 1.375 . S
C217 C218 1.369 . S
C217 H230 0.950 . S
C218 C217 1.369 . S
C218 C219 1.392 . S
C218 H231 0.951 . S
C219 C218 1.392 . S
C219 C221 1.384 . S
H220 C222 0.949 . S
C221 C219 1.384 . S
C221 C222 1.385 . S
C221 H223 0.950 . S
C222 C216 1.404 . S
C222 H220 0.949 . S
C222 C221 1.385 . S
H223 C221 0.950 . S
H224 C208 0.951 . S
H225 C210 0.951 . S
H226 C212 0.951 . S
H227 C213 0.950 . S
H228 C214 0.950 . S
H229 C215 0.950 . S
H230 C217 0.950 . S
H231 C218 0.951 . S
C232 C233 1.386 . S
C232 C234 1.383 . S
C232 H248 0.951 . S
C233 C232 1.386 . S
C233 C237 1.383 . S
C234 C232 1.383 . S
C234 C235 1.402 . S
C234 H249 0.951 . S
C235 C234 1.402 . S
C235 C236 1.375 . S
C235 C238 1.481 . S
C236 C235 1.375 . S
C236 C237 1.367 . S
C236 H250 0.951 . S
C237 C233 1.383 . S
C237 C236 1.367 . S
C237 H251 0.950 . S
C238 C235 1.481 . S
C238 C239 1.297 . S
C238 H252 0.950 . S
C239 C238 1.297 . S
C239 C240 1.479 . S
C239 H253 0.950 . S
C240 C239 1.479 . S
C240 C241 1.375 . S
C240 C246 1.404 . S
C241 C240 1.375 . S
C241 C242 1.369 . S
C241 H254 0.950 . S
C242 C241 1.369 . S
C242 C243 1.392 . S
C242 H255 0.951 . S
C243 C242 1.392 . S
C243 C245 1.384 . S
H244 C246 0.949 . S
C245 C243 1.384 . S
C245 C246 1.385 . S
C245 H247 0.950 . S
C246 C240 1.404 . S
C246 H244 0.949 . S
C246 C245 1.385 . S
H247 C245 0.950 . S
H248 C232 0.951 . S
H249 C234 0.951 . S
H250 C236 0.951 . S
H251 C237 0.950 . S
H252 C238 0.950 . S
H253 C239 0.950 . S
H254 C241 0.950 . S
H255 C242 0.951 . S
C256 C257 1.386 . S
C256 C258 1.383 . S
C256 H272 0.951 . S
C257 C256 1.386 . S
C257 C261 1.383 . S
C258 C256 1.383 . S
C258 C259 1.402 . S
C258 H273 0.951 . S
C259 C258 1.402 . S
C259 C260 1.375 . S
C259 C262 1.481 . S
C260 C259 1.375 . S
C260 C261 1.367 . S
C260 H274 0.951 . S
C261 C257 1.383 . S
C261 C260 1.367 . S
C261 H275 0.950 . S
C262 C259 1.481 . S
C262 C263 1.297 . S
C262 H276 0.950 . S
C263 C262 1.297 . S
C263 C264 1.479 . S
C263 H277 0.950 . S
C264 C263 1.479 . S
C264 C265 1.375 . S
C264 C270 1.404 . S
C265 C264 1.375 . S
C265 C266 1.369 . S
C265 H278 0.950 . S
C266 C265 1.369 . S
C266 C267 1.392 . S
C266 H279 0.951 . S
C267 C266 1.392 . S
C267 C269 1.384 . S
H268 C270 0.949 . S
C269 C267 1.384 . S
C269 C270 1.385 . S
C269 H271 0.950 . S
C270 C264 1.404 . S
C270 H268 0.949 . S
C270 C269 1.385 . S
H271 C269 0.950 . S
H272 C256 0.951 . S
H273 C258 0.951 . S
H274 C260 0.951 . S
H275 C261 0.950 . S
H276 C262 0.950 . S
H277 C263 0.950 . S
H278 C265 0.950 . S
H279 C266 0.951 . S
C280 C281 1.386 . S
C280 C282 1.383 . S
C280 H296 0.951 . S
C281 C280 1.386 . S
C281 C285 1.383 . S
C282 C280 1.383 . S
C282 C283 1.402 . S
C282 H297 0.951 . S
C283 C282 1.402 . S
C283 C284 1.375 . S
C283 C286 1.481 . S
C284 C283 1.375 . S
C284 C285 1.367 . S
C284 H298 0.951 . S
C285 C281 1.383 . S
C285 C284 1.367 . S
C285 H299 0.950 . S
C286 C283 1.481 . S
C286 C287 1.297 . S
C286 H300 0.950 . S
C287 C286 1.297 . S
C287 C288 1.479 . S
C287 H301 0.950 . S
C288 C287 1.479 . S
C288 C289 1.375 . S
C288 C294 1.404 . S
C289 C288 1.375 . S
C289 C290 1.369 . S
C289 H302 0.950 . S
C290 C289 1.369 . S
C290 C291 1.392 . S
C290 H303 0.951 . S
C291 C290 1.392 . S
C291 C293 1.384 . S
H292 C294 0.949 . S
C293 C291 1.384 . S
C293 C294 1.385 . S
C293 H295 0.950 . S
C294 C288 1.404 . S
C294 H292 0.949 . S
C294 C293 1.385 . S
H295 C293 0.950 . S
H296 C280 0.951 . S
H297 C282 0.951 . S
H298 C284 0.951 . S
H299 C285 0.950 . S
H300 C286 0.950 . S
H301 C287 0.950 . S
H302 C289 0.950 . S
H303 C290 0.951 . S
C304 C305 1.386 . S
C304 C306 1.383 . S
C304 H320 0.951 . S
C305 C304 1.386 . S
C305 C309 1.383 . S
C306 C304 1.383 . S
C306 C307 1.402 . S
C306 H321 0.951 . S
C307 C306 1.402 . S
C307 C308 1.375 . S
C307 C310 1.481 . S
C308 C307 1.375 . S
C308 C309 1.367 . S
C308 H322 0.952 1_554 S
C309 C305 1.383 . S
C309 C308 1.367 . S
C309 H323 0.950 . S
C310 C307 1.481 . S
C310 C311 1.297 1_655 S
C310 H324 0.950 1_655 S
C311 C310 1.297 1_455 S
C311 C312 1.479 . S
C311 H325 0.950 1_455 S
C312 C311 1.479 . S
C312 C313 1.375 . S
C312 C318 1.404 . S
C313 C312 1.375 . S
C313 C314 1.369 . S
C313 H326 0.950 . S
C314 C313 1.369 . S
C314 C315 1.392 . S
C314 H327 0.951 . S
C315 C314 1.392 . S
C315 C317 1.384 . S
H316 C318 0.949 1_556 S
C317 C315 1.384 . S
C317 C318 1.385 . S
C317 H319 0.950 1_554 S
C318 C312 1.404 . S
C318 H316 0.949 1_554 S
C318 C317 1.385 . S
H319 C317 0.950 1_556 S
H320 C304 0.951 . S
H321 C306 0.951 . S
H322 C308 0.952 1_556 S
H323 C309 0.950 . S
H324 C310 0.950 1_455 S
H325 C311 0.950 1_655 S
H326 C313 0.950 . S
H327 C314 0.951 . S
C328 C329 1.386 . S
C328 C330 1.383 . S
C328 H344 0.951 . S
C329 C328 1.386 . S
C329 C333 1.383 . S
C330 C328 1.383 . S
C330 C331 1.402 . S
C330 H345 0.951 . S
C331 C330 1.402 . S
C331 C332 1.375 . S
C331 C334 1.481 . S
C332 C331 1.375 . S
C332 C333 1.367 . S
C332 H346 0.951 . S
C333 C329 1.383 . S
C333 C332 1.367 . S
C333 H347 0.950 . S
C334 C331 1.481 . S
C334 C335 1.297 1_565 S
C334 H348 0.950 1_565 S
C335 C334 1.297 1_545 S
C335 C336 1.479 . S
C335 H349 0.950 1_545 S
C336 C335 1.479 . S
C336 C337 1.375 . S
C336 C342 1.404 . S
C337 C336 1.375 . S
C337 C338 1.369 . S
C337 H350 0.950 . S
C338 C337 1.369 . S
C338 C339 1.392 . S
C338 H351 0.951 . S
C339 C338 1.392 . S
C339 C341 1.384 . S
H340 C342 0.949 . S
C341 C339 1.384 . S
C341 C342 1.385 . S
C341 H343 0.950 . S
C342 C336 1.404 . S
C342 H340 0.949 . S
C342 C341 1.385 . S
H343 C341 0.950 . S
H344 C328 0.951 . S
H345 C330 0.951 . S
H346 C332 0.951 . S
H347 C333 0.950 . S
H348 C334 0.950 1_545 S
H349 C335 0.950 1_565 S
H350 C337 0.950 . S
H351 C338 0.951 . S
C352 C353 1.386 . S
C352 C354 1.383 . S
C352 H368 0.951 . S
C353 C352 1.386 . S
C353 C357 1.383 . S
C354 C352 1.383 . S
C354 C355 1.402 . S
C354 H369 0.951 . S
C355 C354 1.402 . S
C355 C356 1.375 . S
C355 C358 1.481 . S
C356 C355 1.375 . S
C356 C357 1.367 . S
C356 H370 0.951 . S
C357 C353 1.383 . S
C357 C356 1.367 . S
C357 H371 0.950 . S
C358 C355 1.481 . S
C358 C359 1.297 1_455 S
C358 H372 0.950 . S
C359 C358 1.297 1_655 S
C359 C360 1.479 . S
C359 H373 0.950 1_655 S
C360 C359 1.479 . S
C360 C361 1.375 . S
C360 C366 1.404 . S
C361 C360 1.375 . S
C361 C362 1.369 . S
C361 H374 0.950 . S
C362 C361 1.369 . S
C362 C363 1.392 . S
C362 H375 0.951 . S
C363 C362 1.392 . S
C363 C365 1.384 . S
H364 C366 0.949 . S
C365 C363 1.384 . S
C365 C366 1.385 . S
C365 H367 0.950 . S
C366 C360 1.404 . S
C366 H364 0.949 . S
C366 C365 1.385 . S
H367 C365 0.950 . S
H368 C352 0.951 . S
H369 C354 0.951 . S
H370 C356 0.951 . S
H371 C357 0.950 . S
H372 C358 0.950 . S
H373 C359 0.950 1_455 S
H374 C361 0.950 . S
H375 C362 0.951 . S
C376 C377 1.386 . S
C376 C378 1.383 . S
C376 H392 0.951 . S
C377 C376 1.386 . S
C377 C381 1.383 . S
C378 C376 1.383 . S
C378 C379 1.402 . S
C378 H393 0.951 . S
C379 C378 1.402 . S
C379 C380 1.375 . S
C379 C382 1.481 . S
C380 C379 1.375 . S
C380 C381 1.367 . S
C380 H394 0.951 1_554 S
C381 C377 1.383 . S
C381 C380 1.367 . S
C381 H395 0.950 1_554 S
C382 C379 1.481 . S
C382 C383 1.297 1_565 S
C382 H396 0.950 1_565 S
C383 C382 1.297 1_545 S
C383 C384 1.479 . S
C383 H397 0.950 1_545 S
C384 C383 1.479 . S
C384 C385 1.375 . S
C384 C390 1.404 . S
C385 C384 1.375 . S
C385 C386 1.369 . S
C385 H398 0.950 . S
C386 C385 1.369 . S
C386 C387 1.392 . S
C386 H399 0.951 . S
C387 C386 1.392 . S
C387 C389 1.384 . S
H388 C390 0.949 . S
C389 C387 1.384 . S
C389 C390 1.385 . S
C389 H391 0.950 . S
C390 C384 1.404 . S
C390 H388 0.949 . S
C390 C389 1.385 . S
H391 C389 0.950 . S
H392 C376 0.951 . S
H393 C378 0.951 . S
H394 C380 0.951 1_556 S
H395 C381 0.950 1_556 S
H396 C382 0.950 1_545 S
H397 C383 0.950 1_565 S
H398 C385 0.950 . S
H399 C386 0.951 . S
C400 C401 1.386 . S
C400 C402 1.383 . S
C400 H416 0.951 1_554 S
C401 C400 1.386 . S
C401 C405 1.383 . S
C402 C400 1.383 . S
C402 C403 1.402 . S
C402 H417 0.951 1_554 S
C403 C402 1.402 . S
C403 C404 1.375 . S
C403 C406 1.481 . S
C404 C403 1.375 . S
C404 C405 1.367 . S
C404 H418 0.951 . S
C405 C401 1.383 . S
C405 C404 1.367 . S
C405 H419 0.950 . S
C406 C403 1.481 . S
C406 C407 1.297 . S
C406 H420 0.950 . S
C407 C406 1.297 . S
C407 C408 1.479 . S
C407 H421 0.950 . S
C408 C407 1.479 . S
C408 C409 1.375 1_554 S
C408 C414 1.404 . S
C409 C408 1.375 1_556 S
C409 C410 1.369 . S
C409 H422 0.950 . S
C410 C409 1.369 . S
C410 C411 1.392 1_556 S
C410 H423 0.951 . S
C411 C410 1.392 1_554 S
C411 C413 1.384 . S
H412 C414 0.949 . S
C413 C411 1.384 . S
C413 C414 1.385 . S
C413 H415 0.950 . S
C414 C408 1.404 . S
C414 H412 0.949 . S
C414 C413 1.385 . S
H415 C413 0.950 . S
H416 C400 0.951 1_556 S
H417 C402 0.951 1_556 S
H418 C404 0.951 . S
H419 C405 0.950 . S
H420 C406 0.950 . S
H421 C407 0.950 . S
H422 C409 0.950 . S
H423 C410 0.951 . S
C424 C425 1.386 . S
C424 C426 1.383 . S
C424 H440 0.951 . S
C425 C424 1.386 . S
C425 C429 1.383 . S
C426 C424 1.383 . S
C426 C427 1.402 . S
C426 H441 0.951 . S
C427 C426 1.402 . S
C427 C428 1.375 . S
C427 C430 1.481 . S
C428 C427 1.375 . S
C428 C429 1.367 . S
C428 H442 0.951 . S
C429 C425 1.383 . S
C429 C428 1.367 . S
C429 H443 0.950 . S
C430 C427 1.481 . S
C430 C431 1.297 . S
C430 H444 0.950 . S
C431 C430 1.297 . S
C431 C432 1.479 . S
C431 H445 0.950 . S
C432 C431 1.479 . S
C432 C433 1.375 . S
C432 C438 1.404 . S
C433 C432 1.375 . S
C433 C434 1.369 . S
C433 H446 0.950 . S
C434 C433 1.369 . S
C434 C435 1.392 . S
C434 H447 0.951 . S
C435 C434 1.392 . S
C435 C437 1.384 . S
H436 C438 0.949 . S
C437 C435 1.384 . S
C437 C438 1.385 . S
C437 H439 0.950 . S
C438 C432 1.404 . S
C438 H436 0.949 . S
C438 C437 1.385 . S
H439 C437 0.950 . S
H440 C424 0.951 . S
H441 C426 0.951 . S
H442 C428 0.951 . S
H443 C429 0.950 . S
H444 C430 0.950 . S
H445 C431 0.950 . S
H446 C433 0.950 . S
H447 C434 0.951 . S
C448 C449 1.386 . S
C448 C450 1.383 . S
C448 H464 0.951 1_554 S
C449 C448 1.386 . S
C449 C453 1.383 . S
C450 C448 1.383 . S
C450 C451 1.402 . S
C450 H465 0.951 1_554 S
C451 C450 1.402 . S
C451 C452 1.375 . S
C451 C454 1.481 . S
C452 C451 1.375 . S
C452 C453 1.367 . S
C452 H466 0.951 . S
C453 C449 1.383 . S
C453 C452 1.367 . S
C453 H467 0.950 . S
C454 C451 1.481 . S
C454 C455 1.297 1_554 S
C454 H468 0.950 . S
C455 C454 1.297 1_556 S
C455 C456 1.479 . S
C455 H469 0.950 . S
C456 C455 1.479 . S
C456 C457 1.375 . S
C456 C462 1.404 1_556 S
C457 C456 1.375 . S
C457 C458 1.369 . S
C457 H470 0.950 . S
C458 C457 1.369 . S
C458 C459 1.392 . S
C458 H471 0.951 . S
C459 C458 1.392 . S
C459 C461 1.384 1_556 S
H460 C462 0.949 . S
C461 C459 1.384 1_554 S
C461 C462 1.385 . S
C461 H463 0.950 . S
C462 C456 1.404 1_554 S
C462 H460 0.949 . S
C462 C461 1.385 . S
H463 C461 0.950 . S
H464 C448 0.951 1_556 S
H465 C450 0.951 1_556 S
H466 C452 0.951 . S
H467 C453 0.950 . S
H468 C454 0.950 . S
H469 C455 0.950 . S
H470 C457 0.950 . S
H471 C458 0.951 . S
C472 C473 1.386 . S
C472 C474 1.383 . S
C472 H488 0.951 . S
C473 C472 1.386 . S
C473 C477 1.383 . S
C474 C472 1.383 . S
C474 C475 1.402 . S
C474 H489 0.951 . S
C475 C474 1.402 . S
C475 C476 1.375 . S
C475 C478 1.481 . S
C476 C475 1.375 . S
C476 C477 1.367 . S
C476 H490 0.951 . S
C477 C473 1.383 . S
C477 C476 1.367 . S
C477 H491 0.950 . S
C478 C475 1.481 . S
C478 C479 1.297 . S
C478 H492 0.950 . S
C479 C478 1.297 . S
C479 C480 1.479 . S
C479 H493 0.950 . S
C480 C479 1.479 . S
C480 C481 1.375 . S
C480 C486 1.404 . S
C481 C480 1.375 . S
C481 C482 1.369 . S
C481 H494 0.950 . S
C482 C481 1.369 . S
C482 C483 1.392 . S
C482 H495 0.951 . S
C483 C482 1.392 . S
C483 C485 1.384 . S
H484 C486 0.949 . S
C485 C483 1.384 . S
C485 C486 1.385 . S
C485 H487 0.950 . S
C486 C480 1.404 . S
C486 H484 0.949 . S
C486 C485 1.385 . S
H487 C485 0.950 . S
H488 C472 0.951 . S
H489 C474 0.951 . S
H490 C476 0.951 . S
H491 C477 0.950 . S
H492 C478 0.950 . S
H493 C479 0.950 . S
H494 C481 0.950 . S
H495 C482 0.951 . S
C113 C8 1.726 . S
C123 C64 1.680 . S
C137 C22 1.725 . S
C147 C78 1.720 . S
C161 C92 1.689 . S
C171 C36 1.715 . S
C185 C106 1.691 . S
C195 C50 1.722 . S
C209 C91 0.980 . S
C219 C35 0.999 . S
C233 C105 0.964 . S
C243 C49 0.951 . S
C257 C7 0.987 . S
C267 C63 0.963 . S
C281 C21 0.966 . S
C291 C77 0.948 . S
C305 C37 1.268 . S
C315 C9 1.255 . S
C329 C51 1.265 . S
C339 C23 1.261 . S
C353 C65 1.231 . S
C363 C93 1.310 . S
C377 C107 1.283 . S
C387 C79 1.225 . S
C401 C6 1.424 . S
C411 C76 1.430 1_554 S
C425 C90 1.435 . S
C435 C20 1.430 . S
C449 C34 1.435 . S
C459 C104 1.430 . S
C473 C48 1.433 . S
C483 C62 1.436 . S
