# Generated by pormake.
# Topology vbf, (5)-cn, num edge types: 1
# Building blocks:
#     Node 0, Type 0, BuildingBlock: BEQFEK_clean_sbu_0, # of connection points: 5
#     Node 1, Type 0, BuildingBlock: BEQFEK_clean_sbu_0, # of connection points: 5
#     Node 2, Type 0, BuildingBlock: BEQFEK_clean_sbu_0, # of connection points: 5
#     Node 3, Type 0, BuildingBlock: BEQFEK_clean_sbu_0, # of connection points: 5
#     Node 4, Type 0, BuildingBlock: BEQFEK_clean_sbu_0, # of connection points: 5
#     Node 5, Type 0, BuildingBlock: BEQFEK_clean_sbu_0, # of connection points: 5
#     Node 6, Type 0, BuildingBlock: BEQFEK_clean_sbu_0, # of connection points: 5
#     Node 7, Type 0, BuildingBlock: BEQFEK_clean_sbu_0, # of connection points: 5
#     Node 8, Type 0, BuildingBlock: BEQFEK_clean_sbu_0, # of connection points: 5
#     Node 9, Type 0, BuildingBlock: BEQFEK_clean_sbu_0, # of connection points: 5
#     Node 10, Type 0, BuildingBlock: BEQFEK_clean_sbu_0, # of connection points: 5
#     Node 11, Type 0, BuildingBlock: BEQFEK_clean_sbu_0, # of connection points: 5
#     Node 12, Type 0, BuildingBlock: BEQFEK_clean_sbu_0, # of connection points: 5
#     Node 13, Type 0, BuildingBlock: BEQFEK_clean_sbu_0, # of connection points: 5
#     Node 14, Type 0, BuildingBlock: BEQFEK_clean_sbu_0, # of connection points: 5
#     Node 15, Type 0, BuildingBlock: BEQFEK_clean_sbu_0, # of connection points: 5
#     Edge 16, Type (0, 0), BuildingBlock: TEMPAE_clean_linker_10, # of connection points: 2
#     Edge 17, Type (0, 0), BuildingBlock: TEMPAE_clean_linker_10, # of connection points: 2
#     Edge 18, Type (0, 0), BuildingBlock: TEMPAE_clean_linker_10, # of connection points: 2
#     Edge 19, Type (0, 0), BuildingBlock: TEMPAE_clean_linker_10, # of connection points: 2
#     Edge 20, Type (0, 0), BuildingBlock: TEMPAE_clean_linker_10, # of connection points: 2
#     Edge 21, Type (0, 0), BuildingBlock: TEMPAE_clean_linker_10, # of connection points: 2
#     Edge 22, Type (0, 0), BuildingBlock: TEMPAE_clean_linker_10, # of connection points: 2
#     Edge 23, Type (0, 0), BuildingBlock: TEMPAE_clean_linker_10, # of connection points: 2
#     Edge 24, Type (0, 0), BuildingBlock: TEMPAE_clean_linker_10, # of connection points: 2
#     Edge 25, Type (0, 0), BuildingBlock: TEMPAE_clean_linker_10, # of connection points: 2
#     Edge 26, Type (0, 0), BuildingBlock: TEMPAE_clean_linker_10, # of connection points: 2
#     Edge 27, Type (0, 0), BuildingBlock: TEMPAE_clean_linker_10, # of connection points: 2
#     Edge 28, Type (0, 0), BuildingBlock: TEMPAE_clean_linker_10, # of connection points: 2
#     Edge 29, Type (0, 0), BuildingBlock: TEMPAE_clean_linker_10, # of connection points: 2
#     Edge 30, Type (0, 0), BuildingBlock: TEMPAE_clean_linker_10, # of connection points: 2
#     Edge 31, Type (0, 0), BuildingBlock: TEMPAE_clean_linker_10, # of connection points: 2
#     Edge 32, Type (0, 0), BuildingBlock: TEMPAE_clean_linker_10, # of connection points: 2
#     Edge 33, Type (0, 0), BuildingBlock: TEMPAE_clean_linker_10, # of connection points: 2
#     Edge 34, Type (0, 0), BuildingBlock: TEMPAE_clean_linker_10, # of connection points: 2
#     Edge 35, Type (0, 0), BuildingBlock: TEMPAE_clean_linker_10, # of connection points: 2
#     Edge 36, Type (0, 0), BuildingBlock: TEMPAE_clean_linker_10, # of connection points: 2
#     Edge 37, Type (0, 0), BuildingBlock: TEMPAE_clean_linker_10, # of connection points: 2
#     Edge 38, Type (0, 0), BuildingBlock: TEMPAE_clean_linker_10, # of connection points: 2
#     Edge 39, Type (0, 0), BuildingBlock: TEMPAE_clean_linker_10, # of connection points: 2
#     Edge 40, Type (0, 0), BuildingBlock: TEMPAE_clean_linker_10, # of connection points: 2
#     Edge 41, Type (0, 0), BuildingBlock: TEMPAE_clean_linker_10, # of connection points: 2
#     Edge 42, Type (0, 0), BuildingBlock: TEMPAE_clean_linker_10, # of connection points: 2
#     Edge 43, Type (0, 0), BuildingBlock: TEMPAE_clean_linker_10, # of connection points: 2
#     Edge 44, Type (0, 0), BuildingBlock: TEMPAE_clean_linker_10, # of connection points: 2
#     Edge 45, Type (0, 0), BuildingBlock: TEMPAE_clean_linker_10, # of connection points: 2
#     Edge 46, Type (0, 0), BuildingBlock: TEMPAE_clean_linker_10, # of connection points: 2
#     Edge 47, Type (0, 0), BuildingBlock: TEMPAE_clean_linker_10, # of connection points: 2
#     Edge 48, Type (0, 0), BuildingBlock: TEMPAE_clean_linker_10, # of connection points: 2
#     Edge 49, Type (0, 0), BuildingBlock: TEMPAE_clean_linker_10, # of connection points: 2
#     Edge 50, Type (0, 0), BuildingBlock: TEMPAE_clean_linker_10, # of connection points: 2
#     Edge 51, Type (0, 0), BuildingBlock: TEMPAE_clean_linker_10, # of connection points: 2
#     Edge 52, Type (0, 0), BuildingBlock: TEMPAE_clean_linker_10, # of connection points: 2
#     Edge 53, Type (0, 0), BuildingBlock: TEMPAE_clean_linker_10, # of connection points: 2
#     Edge 54, Type (0, 0), BuildingBlock: TEMPAE_clean_linker_10, # of connection points: 2
#     Edge 55, Type (0, 0), BuildingBlock: TEMPAE_clean_linker_10, # of connection points: 2
# Relax obj value: 0.043
# Max RMSD: 0.098
# Mean RMSD: 0.098
data_MOF--net-vbf--node1-BEQFEK_clean_sbu_0--edge1-TEMPAE_clean_linker_10
_symmetry_space_group_name_H-M    P1
_symmetry_Int_Tables_number       1
_symmetry_cell_setting            triclinic
loop_
_symmetry_equiv_pos_as_xyz
'x, y, z'
_cell_length_a     37.741767
_cell_length_b     86.309375
_cell_length_c     29.741362
_cell_angle_alpha  90.019476
_cell_angle_beta   90.002753
_cell_angle_gamma 89.984676
loop_
_atom_site_label
_atom_site_type_symbol
_atom_site_fract_x
_atom_site_fract_y
_atom_site_fract_z
_atom_type_partial_charge
Co0 Co 0.10468 0.31147 0.95097 0.0
Co1 Co 0.06191 0.28876 0.01423 0.0
C2 C 0.14004 0.28577 0.00414 0.0
O3 O 0.14048 0.29694 0.97617 0.0
O4 O 0.11131 0.28149 0.02281 0.0
C5 C 0.15596 0.3352 0.94015 0.0
O6 O 0.16187 0.33191 0.98263 0.0
C7 C 0.0383 0.26964 0.092 0.0
C8 C 0.98034 0.27281 0.0885 0.0
C9 C 0.00686 0.26637 0.11482 0.0
N10 N 0.03058 0.27813 0.0552 0.0
N11 N 0.9958 0.27963 0.05285 0.0
C12 C 0.07465 0.26368 0.10219 0.0
H13 H 0.08772 0.26011 0.07051 0.0
H14 H 0.09062 0.27302 0.11789 0.0
H15 H 0.07384 0.25344 0.12466 0.0
C16 C 0.06579 0.33483 0.00485 0.0
N17 N 0.07526 0.32007 0.99613 0.0
N18 N 0.05881 0.31074 0.02433 0.0
C19 C 0.0397 0.31947 0.05333 0.0
C20 C 0.04321 0.33494 0.04156 0.0
C21 C 0.07733 0.34853 0.9777 0.0
H22 H 0.07846 0.34543 0.94155 0.0
H23 H 0.10416 0.3521 0.98877 0.0
H24 H 0.05934 0.35856 0.98235 0.0
O25 O 0.07503 0.30033 0.90724 0.0
O26 O 0.047 0.28333 0.95101 0.0
H27 H 0.99109 0.30957 0.07594 0.0
H28 H 0.01165 0.32211 0.11625 0.0
C29 C 0.01691 0.3132 0.09022 0.0
H30 H 0.02994 0.30311 0.10622 0.0
H31 H 0.98267 0.28577 0.02765 0.0
O32 O 0.13181 0.3279 0.91918 0.0
C33 C 0.05372 0.28903 0.91229 0.0
Co34 Co 0.89924 0.69412 0.95935 0.0
Co35 Co 0.94141 0.71802 0.01944 0.0
C36 C 0.86304 0.72014 0.01023 0.0
O37 O 0.8629 0.70846 0.98402 0.0
O38 O 0.89176 0.72513 0.02742 0.0
C39 C 0.85097 0.66889 0.95137 0.0
O40 O 0.84673 0.67159 0.99452 0.0
C41 C 0.96553 0.73817 0.09493 0.0
C42 C 0.02333 0.73441 0.09185 0.0
C43 C 0.99713 0.74142 0.11749 0.0
N44 N 0.97287 0.72919 0.059 0.0
N45 N 0.00757 0.72733 0.05688 0.0
C46 C 0.92932 0.74431 0.10498 0.0
H47 H 0.91554 0.74711 0.07312 0.0
H48 H 0.91376 0.73535 0.123 0.0
H49 H 0.93056 0.75504 0.12545 0.0
C50 C 0.93972 0.67186 0.01562 0.0
N51 N 0.92958 0.68638 0.00483 0.0
N52 N 0.94507 0.69628 0.03219 0.0
C53 C 0.96406 0.68824 0.06282 0.0
C54 C 0.96178 0.67253 0.05295 0.0
C55 C 0.93169 0.65785 0.98772 0.0
H56 H 0.92773 0.66117 0.95208 0.0
H57 H 0.90715 0.6523 1.00042 0.0
H58 H 0.95354 0.64928 0.98981 0.0
O59 O 0.92744 0.70522 0.91425 0.0
O60 O 0.95661 0.7225 0.95558 0.0
H61 H 0.00931 0.69886 0.09308 0.0
H62 H 0.9842 0.6868 0.13059 0.0
C63 C 0.98215 0.69528 0.10267 0.0
H64 H 0.9672 0.70553 0.11464 0.0
H65 H 0.02038 0.72067 0.03251 0.0
O66 O 0.87283 0.6771 0.92921 0.0
C67 C 0.94911 0.71647 0.91746 0.0
Co68 Co 0.14623 0.55994 0.20437 0.0
Co69 Co 0.18956 0.53603 0.26226 0.0
C70 C 0.11091 0.53393 0.25554 0.0
O71 O 0.11009 0.54573 0.22985 0.0
O72 O 0.14007 0.52887 0.27126 0.0
C73 C 0.09639 0.5845 0.19757 0.0
O74 O 0.0912 0.58092 0.24 0.0
C75 C 0.21282 0.51893 0.34288 0.0
C76 C 0.26885 0.51404 0.32683 0.0
C77 C 0.24354 0.51234 0.36026 0.0
N78 N 0.21984 0.52432 0.30132 0.0
N79 N 0.25326 0.52118 0.29177 0.0
C80 C 0.17854 0.52166 0.36692 0.0
H81 H 0.16497 0.53202 0.35315 0.0
H82 H 0.18302 0.52325 0.40352 0.0
H83 H 0.16106 0.51146 0.36197 0.0
C84 C 0.18776 0.58215 0.25965 0.0
N85 N 0.17744 0.56764 0.24908 0.0
N86 N 0.19443 0.5577 0.2748 0.0
C87 C 0.21531 0.56565 0.3036 0.0
C88 C 0.21197 0.58142 0.29479 0.0
C89 C 0.17763 0.59626 0.23334 0.0
H90 H 0.17364 0.59323 0.19748 0.0
H91 H 0.15252 0.60102 0.24695 0.0
H92 H 0.19834 0.60535 0.23576 0.0
O93 O 0.1736 0.54877 0.15816 0.0
O94 O 0.20384 0.53151 0.19828 0.0
H95 H 0.25972 0.55203 0.32443 0.0
H96 H 0.24722 0.56692 0.36424 0.0
C97 C 0.23709 0.55829 0.33983 0.0
H98 H 0.22066 0.54985 0.35846 0.0
H99 H 0.26572 0.52432 0.2618 0.0
O100 O 0.11952 0.57705 0.17523 0.0
C101 C 0.19545 0.53754 0.1605 0.0
Co102 Co 0.85384 0.44309 0.21061 0.0
Co103 Co 0.81103 0.46778 0.26666 0.0
C104 C 0.88994 0.46925 0.25998 0.0
O105 O 0.89049 0.4572 0.23527 0.0
O106 O 0.86089 0.47464 0.27515 0.0
C107 C 0.90779 0.42691 0.1619 0.0
O108 O 0.92038 0.44096 0.15628 0.0
C109 C 0.78854 0.48569 0.34615 0.0
C110 C 0.73224 0.49028 0.33091 0.0
C111 C 0.75796 0.49234 0.36365 0.0
N112 N 0.78112 0.47994 0.30511 0.0
N113 N 0.74752 0.48291 0.29602 0.0
C114 C 0.82307 0.48325 0.36985 0.0
H115 H 0.83609 0.47253 0.35752 0.0
H116 H 0.81913 0.48244 0.40676 0.0
H117 H 0.84077 0.49321 0.36273 0.0
C118 C 0.81245 0.42168 0.26751 0.0
N119 N 0.82254 0.43609 0.25582 0.0
N120 N 0.80532 0.44627 0.28048 0.0
C121 C 0.78417 0.43857 0.30949 0.0
C122 C 0.7878 0.42272 0.30209 0.0
C123 C 0.82378 0.40739 0.2428 0.0
H124 H 0.82341 0.40963 0.20608 0.0
H125 H 0.85136 0.40445 0.25256 0.0
H126 H 0.80626 0.3974 0.25014 0.0
O127 O 0.82704 0.45414 0.16346 0.0
O128 O 0.79725 0.47191 0.20234 0.0
H129 H 0.73939 0.45234 0.32799 0.0
H130 H 0.75111 0.4378 0.36916 0.0
C131 C 0.76172 0.44624 0.34452 0.0
H132 H 0.77778 0.45486 0.36301 0.0
H133 H 0.73473 0.47945 0.26658 0.0
O134 O 0.87906 0.42513 0.1836 0.0
C135 C 0.80565 0.46557 0.16497 0.0
Co136 Co 0.10906 0.81144 0.46106 0.0
Co137 Co 0.06806 0.78674 0.51933 0.0
C138 C 0.14663 0.78581 0.51203 0.0
O139 O 0.14643 0.7975 0.48587 0.0
O140 O 0.118 0.78048 0.52849 0.0
C141 C 0.16505 0.82909 0.41964 0.0
O142 O 0.18283 0.81608 0.42342 0.0
C143 C 0.04614 0.76963 0.60038 0.0
C144 C 0.99099 0.76328 0.58378 0.0
C145 C 0.01614 0.76243 0.6177 0.0
N146 N 0.03886 0.77455 0.55841 0.0
N147 N 0.00599 0.77054 0.54854 0.0
C148 C 0.07979 0.77335 0.62472 0.0
H149 H 0.09233 0.78384 0.61023 0.0
H150 H 0.07471 0.77523 0.66107 0.0
H151 H 0.09847 0.7635 0.62099 0.0
C152 C 0.06715 0.83283 0.51731 0.0
N153 N 0.0779 0.81843 0.50641 0.0
N154 N 0.06123 0.80828 0.53173 0.0
C155 C 0.03977 0.81599 0.56038 0.0
C156 C 0.04266 0.83182 0.55207 0.0
C157 C 0.0776 0.84703 0.4916 0.0
H158 H 0.07666 0.84456 0.45502 0.0
H159 H 0.10524 0.85019 0.50041 0.0
H160 H 0.05988 0.85697 0.49888 0.0
O161 O 0.08167 0.80017 0.41483 0.0
O162 O 0.05482 0.78188 0.4553 0.0
H163 H 0.99644 0.80149 0.57974 0.0
H164 H 0.00585 0.81687 0.61936 0.0
C165 C 0.01775 0.80836 0.5959 0.0
H166 H 0.03458 0.80041 0.61575 0.0
H167 H 0.99345 0.77317 0.51821 0.0
O168 O 0.13303 0.82958 0.43285 0.0
C169 C 0.06165 0.78833 0.4176 0.0
Co170 Co 0.89744 0.19375 0.45136 0.0
Co171 Co 0.93736 0.21739 0.51455 0.0
C172 C 0.85936 0.21878 0.50508 0.0
O173 O 0.86021 0.20763 0.47697 0.0
O174 O 0.88755 0.22369 0.52374 0.0
C175 C 0.85 0.16846 0.44251 0.0
O176 O 0.84591 0.17111 0.48571 0.0
C177 C 0.96025 0.23738 0.5908 0.0
C178 C 0.01807 0.23357 0.58943 0.0
C179 C 0.99143 0.24058 0.61431 0.0
N180 N 0.96822 0.22843 0.55505 0.0
N181 N 0.00293 0.22653 0.55395 0.0
C182 C 0.92392 0.24361 0.5997 0.0
H183 H 0.91072 0.24636 0.56741 0.0
H184 H 0.90798 0.2347 0.61744 0.0
H185 H 0.92489 0.25436 0.62007 0.0
C186 C 0.93847 0.17129 0.50628 0.0
N187 N 0.92783 0.18582 0.49648 0.0
N188 N 0.94242 0.19556 0.52506 0.0
C189 C 0.96121 0.18738 0.55556 0.0
C190 C 0.95985 0.17176 0.54428 0.0
C191 C 0.93133 0.1575 0.4771 0.0
H192 H 0.92757 0.16114 0.44168 0.0
H193 H 0.90692 0.15163 0.4889 0.0
H194 H 0.95355 0.1491 0.47885 0.0
O195 O 0.92566 0.20539 0.40728 0.0
O196 O 0.95144 0.22304 0.45112 0.0
H197 H 0.0052 0.19788 0.58906 0.0
H198 H 0.979 0.18544 0.62426 0.0
C199 C 0.97778 0.19415 0.59686 0.0
H200 H 0.96228 0.20427 0.60869 0.0
H201 H 0.01616 0.21988 0.52991 0.0
O202 O 0.87163 0.17676 0.42029 0.0
C203 C 0.9455 0.21719 0.41237 0.0
Co204 Co 0.14455 0.05988 0.70032 0.0
Co205 Co 0.18901 0.03607 0.75721 0.0
C206 C 0.10993 0.03433 0.75346 0.0
O207 O 0.1087 0.04595 0.72719 0.0
O208 O 0.13938 0.02929 0.76841 0.0
C209 C 0.09246 0.08353 0.69097 0.0
O210 O 0.08451 0.07912 0.73204 0.0
C211 C 0.21311 0.02011 0.83889 0.0
C212 C 0.26644 0.012 0.8194 0.0
C213 C 0.24266 0.01225 0.85493 0.0
N214 N 0.21921 0.02428 0.796 0.0
N215 N 0.25103 0.01928 0.78444 0.0
C216 C 0.1808 0.02479 0.86469 0.0
H217 H 0.16907 0.03545 0.85003 0.0
H218 H 0.18733 0.02679 0.90062 0.0
H219 H 0.16087 0.01537 0.86259 0.0
C220 C 0.18678 0.08217 0.75413 0.0
N221 N 0.1765 0.06762 0.74407 0.0
N222 N 0.195 0.05774 0.76834 0.0
C223 C 0.21741 0.06576 0.79501 0.0
C224 C 0.21294 0.08148 0.78684 0.0
C225 C 0.17182 0.09641 0.73256 0.0
H226 H 0.14412 0.098 0.74404 0.0
H227 H 0.18691 0.10698 0.74154 0.0
H228 H 0.17159 0.09498 0.6955 0.0
O229 O 0.17119 0.04838 0.65376 0.0
O230 O 0.20179 0.03109 0.69335 0.0
H231 H 0.26269 0.06728 0.83974 0.0
H232 H 0.23129 0.05211 0.85225 0.0
C233 C 0.24472 0.05851 0.82481 0.0
H234 H 0.26069 0.05015 0.80509 0.0
H235 H 0.26248 0.02109 0.75293 0.0
O236 O 0.11804 0.07697 0.67066 0.0
C237 C 0.19282 0.03705 0.65574 0.0
Co238 Co 0.85578 0.94364 0.70382 0.0
Co239 Co 0.81135 0.96752 0.76052 0.0
C240 C 0.89045 0.9693 0.75632 0.0
O241 O 0.89164 0.95757 0.73045 0.0
O242 O 0.86103 0.9744 0.77118 0.0
C243 C 0.90653 0.91946 0.69599 0.0
O244 O 0.91275 0.92329 0.73802 0.0
C245 C 0.7878 0.98342 0.84256 0.0
C246 C 0.73451 0.99172 0.82363 0.0
C247 C 0.75845 0.99134 0.85899 0.0
N248 N 0.78142 0.97935 0.79964 0.0
N249 N 0.74963 0.98446 0.78842 0.0
C250 C 0.82017 0.97859 0.86801 0.0
H251 H 0.83168 0.96795 0.85301 0.0
H252 H 0.81378 0.97652 0.90393 0.0
H253 H 0.84023 0.98796 0.86596 0.0
C254 C 0.81302 0.92142 0.75713 0.0
N255 N 0.82375 0.93593 0.74751 0.0
N256 N 0.80543 0.94585 0.77189 0.0
C257 C 0.78277 0.93787 0.79833 0.0
C258 C 0.78686 0.92215 0.78979 0.0
C259 C 0.82721 0.90714 0.73484 0.0
H260 H 0.82888 0.90899 0.698 0.0
H261 H 0.85423 0.90481 0.74775 0.0
H262 H 0.81072 0.8968 0.74183 0.0
O263 O 0.82916 0.95508 0.65729 0.0
O264 O 0.79818 0.97234 0.69657 0.0
H265 H 0.73951 0.9535 0.80827 0.0
H266 H 0.73753 0.9364 0.8431 0.0
C267 C 0.75548 0.94516 0.82807 0.0
H268 H 0.76891 0.9516 0.85544 0.0
H269 H 0.73799 0.98274 0.75698 0.0
O270 O 0.88245 0.92658 0.67437 0.0
C271 C 0.80731 0.96633 0.65904 0.0
Co272 Co 0.6043 0.30941 0.45149 0.0
Co273 Co 0.55954 0.2857 0.50914 0.0
C274 C 0.63851 0.28352 0.50421 0.0
O275 O 0.6399 0.29539 0.47884 0.0
O276 O 0.60901 0.27843 0.51889 0.0
C277 C 0.65284 0.33457 0.44552 0.0
O278 O 0.65642 0.33161 0.48862 0.0
C279 C 0.53399 0.26509 0.58248 0.0
C280 C 0.47647 0.26963 0.58005 0.0
C281 C 0.50226 0.26202 0.6049 0.0
N282 N 0.52718 0.27455 0.54747 0.0
N283 N 0.49261 0.27686 0.54564 0.0
C284 C 0.56972 0.25826 0.59146 0.0
H285 H 0.58294 0.25557 0.55913 0.0
H286 H 0.5862 0.26677 0.61002 0.0
H287 H 0.56774 0.24735 0.61099 0.0
C288 C 0.56223 0.33182 0.50582 0.0
N289 N 0.57214 0.31726 0.49503 0.0
N290 N 0.55588 0.30742 0.52181 0.0
C291 C 0.53662 0.3155 0.55206 0.0
C292 C 0.53949 0.33122 0.54253 0.0
C293 C 0.57161 0.34587 0.47885 0.0
H294 H 0.5762 0.34268 0.44322 0.0
H295 H 0.59613 0.35111 0.49267 0.0
H296 H 0.55016 0.35465 0.48055 0.0
O297 O 0.57876 0.29766 0.40497 0.0
O298 O 0.54571 0.28132 0.44491 0.0
H299 H 0.49078 0.30529 0.58212 0.0
H300 H 0.51668 0.31691 0.61992 0.0
C301 C 0.51818 0.30851 0.59173 0.0
H302 H 0.53252 0.29805 0.60335 0.0
H303 H 0.4802 0.28393 0.52193 0.0
O304 O 0.6313 0.32649 0.42244 0.0
C305 C 0.55606 0.28677 0.40719 0.0
Co306 Co 0.39614 0.69347 0.45116 0.0
Co307 Co 0.44348 0.71671 0.50634 0.0
C308 C 0.36404 0.71928 0.50487 0.0
O309 O 0.36127 0.70737 0.47986 0.0
O310 O 0.39424 0.72416 0.51771 0.0
C311 C 0.34439 0.66954 0.44221 0.0
O312 O 0.33775 0.67324 0.48424 0.0
C313 C 0.4685 0.73255 0.58766 0.0
C314 C 0.52218 0.74016 0.56805 0.0
C315 C 0.49837 0.74021 0.60356 0.0
N316 N 0.47443 0.72822 0.54486 0.0
N317 N 0.50647 0.73291 0.53322 0.0
C318 C 0.43597 0.72822 0.61351 0.0
H319 H 0.4238 0.71763 0.59907 0.0
H320 H 0.44238 0.72627 0.64949 0.0
H321 H 0.41644 0.7378 0.61115 0.0
C322 C 0.43885 0.67068 0.50338 0.0
N323 N 0.42905 0.68532 0.49347 0.0
N324 N 0.44825 0.69502 0.51747 0.0
C325 C 0.47051 0.68682 0.54385 0.0
C326 C 0.46527 0.67114 0.53581 0.0
C327 C 0.42318 0.65653 0.48208 0.0
H328 H 0.42114 0.65821 0.4452 0.0
H329 H 0.39616 0.65471 0.49568 0.0
H330 H 0.43896 0.64599 0.4892 0.0
O331 O 0.42123 0.70541 0.40413 0.0
O332 O 0.45634 0.72138 0.44246 0.0
H333 H 0.51466 0.70198 0.55344 0.0
H334 H 0.51586 0.68491 0.58836 0.0
C335 C 0.49831 0.69384 0.57339 0.0
H336 H 0.48534 0.70044 0.60081 0.0
H337 H 0.51784 0.73094 0.50175 0.0
O338 O 0.36887 0.67664 0.42128 0.0
C339 C 0.44457 0.71608 0.40528 0.0
Co340 Co 0.64863 0.56185 0.71109 0.0
Co341 Co 0.692 0.53705 0.76632 0.0
C342 C 0.61284 0.53573 0.76062 0.0
O343 O 0.61188 0.54786 0.73626 0.0
O344 O 0.64212 0.53032 0.77496 0.0
C345 C 0.5935 0.57875 0.66586 0.0
O346 O 0.57796 0.56513 0.66509 0.0
C347 C 0.71414 0.51948 0.84643 0.0
C348 C 0.76928 0.5132 0.8296 0.0
C349 C 0.74407 0.51211 0.86338 0.0
N350 N 0.72147 0.5247 0.80479 0.0
N351 N 0.75436 0.52074 0.79477 0.0
C352 C 0.68045 0.52303 0.87091 0.0
H353 H 0.66797 0.53365 0.85703 0.0
H354 H 0.68548 0.52463 0.90738 0.0
H355 H 0.66176 0.51323 0.86651 0.0
C356 C 0.69067 0.58314 0.7678 0.0
N357 N 0.68044 0.56875 0.756 0.0
N358 N 0.69803 0.55853 0.78008 0.0
C359 C 0.71967 0.56616 0.80866 0.0
C360 C 0.71587 0.58203 0.80173 0.0
C361 C 0.67886 0.59749 0.7438 0.0
H362 H 0.67965 0.5955 0.70697 0.0
H363 H 0.65105 0.6001 0.75328 0.0
H364 H 0.69582 0.6076 0.75194 0.0
O365 O 0.67489 0.55056 0.66381 0.0
O366 O 0.70557 0.53293 0.70203 0.0
H367 H 0.76389 0.55176 0.82533 0.0
H368 H 0.75503 0.56679 0.8663 0.0
C369 C 0.74279 0.55839 0.84278 0.0
H370 H 0.72671 0.55019 0.86276 0.0
H371 H 0.76693 0.52357 0.76462 0.0
O372 O 0.62407 0.57995 0.6835 0.0
C373 C 0.69651 0.53921 0.66484 0.0
Co374 Co 0.35933 0.44367 0.70424 0.0
Co375 Co 0.31558 0.46754 0.76203 0.0
C376 C 0.39439 0.46957 0.75594 0.0
O377 O 0.39552 0.45778 0.73024 0.0
O378 O 0.36507 0.4746 0.77126 0.0
C379 C 0.40888 0.41883 0.69554 0.0
O380 O 0.41462 0.42197 0.73816 0.0
C381 C 0.29249 0.48447 0.84305 0.0
C382 C 0.23685 0.48998 0.82658 0.0
C383 C 0.26202 0.49132 0.86033 0.0
N384 N 0.28546 0.47929 0.80127 0.0
N385 N 0.25227 0.48279 0.79149 0.0
C386 C 0.3265 0.48135 0.86731 0.0
H387 H 0.33977 0.47097 0.85312 0.0
H388 H 0.32169 0.47957 0.90376 0.0
H389 H 0.3444 0.49144 0.8631 0.0
C390 C 0.3171 0.42143 0.75863 0.0
N391 N 0.32776 0.43593 0.74855 0.0
N392 N 0.31051 0.44586 0.77407 0.0
C393 C 0.28909 0.43792 0.80217 0.0
C394 C 0.29234 0.42216 0.79315 0.0
C395 C 0.32744 0.40734 0.73234 0.0
H396 H 0.3316 0.41039 0.69654 0.0
H397 H 0.35252 0.40261 0.74612 0.0
H398 H 0.30678 0.39822 0.73451 0.0
O399 O 0.33221 0.45504 0.6582 0.0
O400 O 0.30147 0.47218 0.69814 0.0
H401 H 0.24461 0.4517 0.82184 0.0
H402 H 0.25583 0.43662 0.86164 0.0
C403 C 0.26671 0.44528 0.83784 0.0
H404 H 0.28296 0.45357 0.85729 0.0
H405 H 0.23985 0.47989 0.76128 0.0
O406 O 0.38571 0.4266 0.67421 0.0
C407 C 0.31023 0.46622 0.66039 0.0
Co408 Co 0.60608 0.81008 0.95294 0.0
Co409 Co 0.5624 0.78507 0.00604 0.0
C410 C 0.64231 0.78485 0.0039 0.0
O411 O 0.64351 0.79683 0.97903 0.0
O412 O 0.61281 0.77931 0.01707 0.0
C413 C 0.66017 0.82786 0.90881 0.0
O414 O 0.67718 0.81458 0.90874 0.0
C415 C 0.53728 0.77074 0.08936 0.0
C416 C 0.49877 0.75345 0.06471 0.0
C417 C 0.51463 0.75909 0.10338 0.0
N418 N 0.53483 0.77203 0.04441 0.0
N419 N 0.51168 0.76169 0.02987 0.0
C420 C 0.56315 0.77953 0.11765 0.0
H421 H 0.57786 0.78812 0.09711 0.0
H422 H 0.54905 0.78555 0.14531 0.0
H423 H 0.58212 0.77129 0.1332 0.0
C424 C 0.56353 0.83106 0.00964 0.0
N425 N 0.57351 0.81671 0.99735 0.0
N426 N 0.55363 0.80645 0.01823 0.0
C427 C 0.52953 0.81406 0.04357 0.0
C428 C 0.5351 0.82992 0.03908 0.0
C429 C 0.58162 0.84554 0.99403 0.0
H430 H 0.61075 0.84387 0.99495 0.0
H431 H 0.57471 0.85563 0.01539 0.0
H432 H 0.57378 0.84796 0.95877 0.0
O433 O 0.58097 0.79834 0.90495 0.0
O434 O 0.55069 0.78033 0.94213 0.0
H435 H 0.47638 0.81438 0.07041 0.0
H436 H 0.50799 0.80329 0.10214 0.0
C437 C 0.49941 0.80643 0.06768 0.0
H438 H 0.49116 0.79577 0.04976 0.0
H439 H 0.50522 0.76003 0.99609 0.0
O440 O 0.6291 0.82846 0.92521 0.0
C441 C 0.5601 0.78671 0.90531 0.0
Co442 Co 0.39355 0.19294 0.95487 0.0
Co443 Co 0.43696 0.21826 0.00746 0.0
C444 C 0.35726 0.21866 0.00419 0.0
O445 O 0.35606 0.20661 0.97956 0.0
O446 O 0.38671 0.22408 0.01784 0.0
C447 C 0.33929 0.17517 0.9111 0.0
O448 O 0.32252 0.18851 0.911 0.0
C449 C 0.46148 0.23253 0.0911 0.0
C450 C 0.4997 0.25005 0.06722 0.0
C451 C 0.48382 0.24422 0.10563 0.0
N452 N 0.46414 0.23138 0.04612 0.0
N453 N 0.4871 0.24188 0.03204 0.0
C454 C 0.43572 0.22353 0.119 0.0
H455 H 0.42104 0.21505 0.09805 0.0
H456 H 0.44993 0.21736 0.14629 0.0
H457 H 0.41673 0.23165 0.13506 0.0
C458 C 0.43577 0.17225 0.01287 0.0
N459 N 0.42569 0.18654 1.00005 0.0
N460 N 0.44566 0.19691 0.0203 0.0
C461 C 0.46994 0.18945 0.0457 0.0
C462 C 0.46438 0.17356 0.04202 0.0
C463 C 0.41777 0.15769 0.99779 0.0
H464 H 0.38864 0.15938 0.9981 0.0
H465 H 0.42445 0.14775 0.01985 0.0
H466 H 0.42596 0.155 0.96281 0.0
O467 O 0.4197 0.20416 0.90673 0.0
O468 O 0.44853 0.22284 0.94339 0.0
H469 H 0.5082 0.20785 0.05044 0.0
H470 H 0.52356 0.18933 0.07101 0.0
C471 C 0.50039 0.19721 0.0688 0.0
H472 H 0.49242 0.20041 0.10345 0.0
H473 H 0.49367 0.24366 0.99836 0.0
O474 O 0.37034 0.17448 0.92757 0.0
C475 C 0.43997 0.21599 0.90693 0.0
Co476 Co 0.64692 0.06122 0.20384 0.0
Co477 Co 0.68941 0.03656 0.26076 0.0
C478 C 0.61066 0.0351 0.25382 0.0
O479 O 0.61028 0.04696 0.22836 0.0
O480 O 0.6396 0.02985 0.26969 0.0
C481 C 0.58958 0.08195 0.18063 0.0
O482 O 0.57044 0.07223 0.20435 0.0
C483 C 0.71213 0.01923 0.341 0.0
C484 C 0.76744 0.01328 0.32392 0.0
C485 C 0.7424 0.01212 0.35788 0.0
N486 N 0.71914 0.0244 0.29922 0.0
N487 N 0.75211 0.02063 0.28905 0.0
C488 C 0.67843 0.02263 0.36563 0.0
H489 H 0.66556 0.03314 0.35168 0.0
H490 H 0.68354 0.02431 0.40205 0.0
H491 H 0.66003 0.0127 0.36146 0.0
C492 C 0.68852 0.08266 0.26057 0.0
N493 N 0.67818 0.06824 0.24921 0.0
N494 N 0.69544 0.05809 0.27389 0.0
C495 C 0.71697 0.0658 0.30245 0.0
C496 C 0.71346 0.08164 0.29482 0.0
C497 C 0.67718 0.09693 0.2358 0.0
H498 H 0.67832 0.09476 0.19907 0.0
H499 H 0.64933 0.09967 0.24473 0.0
H500 H 0.69422 0.10702 0.2438 0.0
O501 O 0.67403 0.05 0.15711 0.0
O502 O 0.703 0.03216 0.1967 0.0
H503 H 0.76107 0.05148 0.32015 0.0
H504 H 0.75179 0.06663 0.36057 0.0
C505 C 0.73979 0.05814 0.33711 0.0
H506 H 0.72353 0.05 0.35707 0.0
H507 H 0.76447 0.02348 0.25877 0.0
O508 O 0.62256 0.07937 0.17572 0.0
C509 C 0.69505 0.03845 0.15913 0.0
Co510 Co 0.35628 0.94338 0.20079 0.0
Co511 Co 0.31173 0.96762 0.25653 0.0
C512 C 0.39095 0.96961 0.25094 0.0
O513 O 0.39236 0.95772 0.22562 0.0
O514 O 0.36149 0.9746 0.26604 0.0
C515 C 0.41382 0.9232 0.17394 0.0
O516 O 0.43372 0.93346 0.19453 0.0
C517 C 0.28801 0.98344 0.33848 0.0
C518 C 0.23501 0.99199 0.31911 0.0
C519 C 0.25862 0.99135 0.3548 0.0
N520 N 0.28196 0.9796 0.29533 0.0
N521 N 0.25036 0.98487 0.28382 0.0
C522 C 0.32005 0.97838 0.3642 0.0
H523 H 0.33176 0.96786 0.34865 0.0
H524 H 0.31321 0.976 0.39984 0.0
H525 H 0.34014 0.98776 0.36326 0.0
C526 C 0.31649 0.92161 0.25822 0.0
N527 N 0.32542 0.93613 0.24622 0.0
N528 N 0.30617 0.94608 0.26924 0.0
C529 C 0.28409 0.93812 0.29651 0.0
C530 C 0.28991 0.92236 0.29037 0.0
C531 C 0.3333 0.90734 0.23914 0.0
H532 H 0.36254 0.90841 0.24117 0.0
H533 H 0.32503 0.89675 0.25744 0.0
H534 H 0.32593 0.90624 0.20316 0.0
O535 O 0.32881 0.95451 0.15396 0.0
O536 O 0.29828 0.97205 0.19276 0.0
H537 H 0.23677 0.93667 0.33768 0.0
H538 H 0.26811 0.95149 0.35344 0.0
C539 C 0.25572 0.9454 0.32463 0.0
H540 H 0.24097 0.95401 0.30432 0.0
H541 H 0.23896 0.9833 0.25218 0.0
O542 O 0.38049 0.92533 0.17207 0.0
C543 C 0.30708 0.96582 0.15544 0.0
C544 C 0.19276 0.35923 0.94346 0.0
C545 C 0.17606 0.34773 0.91776 0.0
C546 C 0.21155 0.37132 0.92283 0.0
C547 C 0.21436 0.37175 0.87537 0.0
C548 C 0.19791 0.36006 0.84925 0.0
C549 C 0.17859 0.34828 0.87075 0.0
C550 C 0.22808 0.38374 0.9518 0.0
C551 C 0.20089 0.35995 0.79862 0.0
C552 C 0.23554 0.41021 0.81931 0.0
C553 C 0.2723 0.40915 0.8135 0.0
C554 C 0.21636 0.39815 0.83955 0.0
C555 C 0.23427 0.38452 0.85313 0.0
C556 C 0.27128 0.38321 0.8462 0.0
C557 C 0.28991 0.39562 0.82685 0.0
C558 C 0.17702 0.40009 0.84688 0.0
C559 C 0.29124 0.36875 0.85945 0.0
H560 H 0.19064 0.35892 0.9798 0.0
H561 H 0.16589 0.33937 0.85076 0.0
H562 H 0.25714 0.38406 0.94633 0.0
H563 H 0.21748 0.39527 0.94216 0.0
H564 H 0.22295 0.38187 0.98818 0.0
H565 H 0.18739 0.3498 0.78329 0.0
H566 H 0.18912 0.37067 0.78454 0.0
H567 H 0.22921 0.35976 0.78858 0.0
H568 H 0.22173 0.42051 0.80803 0.0
H569 H 0.31836 0.39479 0.8225 0.0
H570 H 0.17076 0.39891 0.88318 0.0
H571 H 0.16233 0.39084 0.8289 0.0
H572 H 0.1672 0.41151 0.83502 0.0
H573 H 0.28957 0.36706 0.89636 0.0
H574 H 0.31963 0.36927 0.8497 0.0
H575 H 0.27902 0.35845 0.84337 0.0
C576 C 0.8266 0.65615 0.8824 0.0
C577 C 0.83126 0.6562 0.92918 0.0
C578 C 0.80747 0.64428 0.86107 0.0
C579 C 0.79335 0.632 0.88704 0.0
C580 C 0.79836 0.63189 0.93423 0.0
C581 C 0.81694 0.64408 0.95478 0.0
C582 C 0.80213 0.64495 0.81079 0.0
C583 C 0.78433 0.61884 0.96296 0.0
C584 C 0.71765 0.60778 0.8403 0.0
C585 C 0.73569 0.59482 0.82351 0.0
C586 C 0.73611 0.62006 0.86054 0.0
C587 C 0.77344 0.61921 0.86485 0.0
C588 C 0.79174 0.60609 0.84814 0.0
C589 C 0.77267 0.59415 0.82715 0.0
C590 C 0.71569 0.63397 0.87724 0.0
C591 C 0.83146 0.60463 0.85262 0.0
H592 H 0.83745 0.66554 0.8625 0.0
H593 H 0.8207 0.644 0.99092 0.0
H594 H 0.81403 0.63458 0.79471 0.0
H595 H 0.7734 0.64482 0.80287 0.0
H596 H 0.81413 0.65547 0.79559 0.0
H597 H 0.79109 0.62033 0.99906 0.0
H598 H 0.7551 0.61812 0.95972 0.0
H599 H 0.79537 0.60763 0.95118 0.0
H600 H 0.68902 0.60827 0.83768 0.0
H601 H 0.78671 0.58426 0.81344 0.0
H602 H 0.72607 0.64467 0.86133 0.0
H603 H 0.71926 0.63523 0.91408 0.0
H604 H 0.68689 0.63307 0.86993 0.0
H605 H 0.84467 0.61428 0.8346 0.0
H606 H 0.84155 0.59349 0.83895 0.0
H607 H 0.8392 0.60549 0.88853 0.0
C608 C 0.96356 0.64559 0.08425 0.0
C609 C 0.98095 0.65956 0.07487 0.0
C610 C 0.98172 0.63312 0.104 0.0
C611 C 0.018 0.63478 0.11524 0.0
C612 C 0.03558 0.64893 0.10621 0.0
C613 C 0.01691 0.66109 0.08574 0.0
C614 C 0.96215 0.61817 0.11269 0.0
C615 C 0.07414 0.65121 0.11802 0.0
C616 C 0.05734 0.60784 0.20317 0.0
C617 C 0.07616 0.59728 0.17645 0.0
C618 C 0.03831 0.62011 0.1837 0.0
C619 C 0.03767 0.62171 0.13633 0.0
C620 C 0.05631 0.61098 0.10915 0.0
C621 C 0.07556 0.59897 0.12955 0.0
C622 C 0.01922 0.63146 0.21383 0.0
C623 C 0.05589 0.6122 0.0585 0.0
H624 H 0.93567 0.64443 0.07628 0.0
H625 H 0.03065 0.67175 0.07769 0.0
H626 H 0.97563 0.60847 0.09516 0.0
H627 H 0.96247 0.61548 0.14915 0.0
H628 H 0.93417 0.61866 0.10118 0.0
H629 H 0.08359 0.66308 0.11006 0.0
H630 H 0.07833 0.64902 0.15439 0.0
H631 H 0.09069 0.64276 0.09931 0.0
H632 H 0.05783 0.60666 0.23944 0.0
H633 H 0.0899 0.59079 0.10868 0.0
H634 H 0.99055 0.63161 0.20562 0.0
H635 H 0.0295 0.64333 0.20802 0.0
H636 H 0.02234 0.62859 0.25003 0.0
H637 H 0.02818 0.61193 0.04605 0.0
H638 H 0.07094 0.60268 0.04213 0.0
H639 H 0.06751 0.62342 0.04788 0.0
C640 C 0.99792 0.3557 0.03303 0.0
C641 C 0.02323 0.34825 0.05976 0.0
C642 C 0.97869 0.3684 0.04957 0.0
C643 C 0.98498 0.37371 0.09392 0.0
C644 C 0.01045 0.36611 0.12113 0.0
C645 C 0.02928 0.35342 0.10366 0.0
C646 C 0.95173 0.37615 0.01955 0.0
C647 C 0.01793 0.37143 0.16853 0.0
C648 C 0.95971 0.41526 0.12177 0.0
C649 C 0.92733 0.41329 0.14424 0.0
C650 C 0.9788 0.40248 0.10542 0.0
C651 C 0.96518 0.38734 0.11159 0.0
C652 C 0.93251 0.38526 0.13419 0.0
C653 C 0.91399 0.39825 0.15027 0.0
C654 C 0.01356 0.40517 0.0815 0.0
C655 C 0.9171 0.36931 0.14133 0.0
H656 H 0.99318 0.35154 0.99915 0.0
H657 H 0.04895 0.34758 0.12415 0.0
H658 H 0.92525 0.37589 0.03572 0.0
H659 H 0.95888 0.3885 0.0146 0.0
H660 H 0.94979 0.3705 0.98608 0.0
H661 H 0.03824 0.36416 0.18543 0.0
H662 H 0.02731 0.38362 0.16819 0.0
H663 H 0.99324 0.37112 0.18875 0.0
H664 H 0.97028 0.42682 0.11701 0.0
H665 H 0.88902 0.3966 0.16763 0.0
H666 H 0.01215 0.4005 0.04679 0.0
H667 H 0.03515 0.39889 0.09907 0.0
H668 H 0.02062 0.41765 0.07973 0.0
H669 H 0.91274 0.36357 0.10841 0.0
H670 H 0.89153 0.36965 0.15981 0.0
H671 H 0.93602 0.36202 0.16052 0.0
C672 C 0.16311 0.85682 0.39442 0.0
C673 C 0.18244 0.84312 0.40115 0.0
C674 C 0.17943 0.87016 0.37702 0.0
C675 C 0.21599 0.86983 0.36637 0.0
C676 C 0.23568 0.85608 0.37339 0.0
C677 C 0.21866 0.84289 0.39055 0.0
C678 C 0.15751 0.88458 0.36972 0.0
C679 C 0.27476 0.85529 0.36266 0.0
C680 C 0.25368 0.89839 0.28187 0.0
C681 C 0.26992 0.90928 0.31003 0.0
C682 C 0.23547 0.88564 0.2998 0.0
C683 C 0.23363 0.88374 0.34703 0.0
C684 C 0.24959 0.89487 0.37563 0.0
C685 C 0.2675 0.90757 0.35671 0.0
C686 C 0.2186 0.87411 0.26818 0.0
C687 C 0.24834 0.89321 0.42612 0.0
H688 H 0.13512 0.85712 0.40256 0.0
H689 H 0.23387 0.83239 0.3958 0.0
H690 H 0.16896 0.8944 0.38893 0.0
H691 H 0.15804 0.88786 0.33366 0.0
H692 H 0.12949 0.88301 0.3802 0.0
H693 H 0.28643 0.84381 0.37091 0.0
H694 H 0.27907 0.85762 0.32639 0.0
H695 H 0.28925 0.86434 0.38173 0.0
H696 H 0.25528 0.89987 0.24572 0.0
H697 H 0.28018 0.91602 0.37836 0.0
H698 H 0.19 0.87287 0.27604 0.0
H699 H 0.23097 0.86256 0.27271 0.0
H700 H 0.22138 0.87757 0.23237 0.0
H701 H 0.22047 0.89231 0.43765 0.0
H702 H 0.26111 0.90312 0.44363 0.0
H703 H 0.26198 0.88238 0.43631 0.0
C704 C 0.82577 0.1556 0.37359 0.0
C705 C 0.83026 0.15575 0.42039 0.0
C706 C 0.80648 0.14375 0.35239 0.0
C707 C 0.79198 0.1316 0.37855 0.0
C708 C 0.79685 0.13159 0.42576 0.0
C709 C 0.81563 0.14374 0.44615 0.0
C710 C 0.80134 0.14431 0.30207 0.0
C711 C 0.7824 0.11868 0.45471 0.0
C712 C 0.71579 0.10758 0.33226 0.0
C713 C 0.73354 0.09446 0.31607 0.0
C714 C 0.73452 0.11987 0.35209 0.0
C715 C 0.77182 0.11885 0.35657 0.0
C716 C 0.78983 0.10557 0.3404 0.0
C717 C 0.77049 0.09362 0.31984 0.0
C718 C 0.71441 0.13393 0.36827 0.0
C719 C 0.8295 0.10395 0.34505 0.0
H720 H 0.83686 0.16491 0.35355 0.0
H721 H 0.81926 0.14373 0.48231 0.0
H722 H 0.81296 0.13383 0.28632 0.0
H723 H 0.77263 0.14433 0.29399 0.0
H724 H 0.81372 0.15471 0.28669 0.0
H725 H 0.7891 0.12023 0.4908 0.0
H726 H 0.75317 0.1181 0.45135 0.0
H727 H 0.79317 0.10739 0.44321 0.0
H728 H 0.68718 0.10819 0.32952 0.0
H729 H 0.78431 0.0836 0.30659 0.0
H730 H 0.72515 0.14453 0.35215 0.0
H731 H 0.71786 0.13528 0.40509 0.0
H732 H 0.68562 0.13316 0.36078 0.0
H733 H 0.84299 0.1135 0.32695 0.0
H734 H 0.83936 0.09274 0.3316 0.0
H735 H 0.83716 0.10484 0.38098 0.0
C736 C 0.96179 0.1445 0.57329 0.0
C737 C 0.97885 0.1587 0.56609 0.0
C738 C 0.97977 0.13199 0.59307 0.0
C739 C 0.01547 0.13384 0.60675 0.0
C740 C 0.03271 0.14822 0.59994 0.0
C741 C 0.0143 0.16041 0.57924 0.0
C742 C 0.96062 0.11678 0.59924 0.0
C743 C 0.07061 0.15073 0.6145 0.0
C744 C 0.05203 0.10644 0.69537 0.0
C745 C 0.07262 0.09631 0.66932 0.0
C746 C 0.03339 0.11873 0.67546 0.0
C747 C 0.03485 0.12077 0.62826 0.0
C748 C 0.05525 0.11047 0.60172 0.0
C749 C 0.07417 0.09845 0.62262 0.0
C750 C 0.01246 0.12964 0.70498 0.0
C751 C 0.05701 0.11212 0.55122 0.0
H752 H 0.93426 0.14319 0.56367 0.0
H753 H 0.02784 0.17125 0.57289 0.0
H754 H 0.97542 0.10735 0.58219 0.0
H755 H 0.95932 0.11381 0.63549 0.0
H756 H 0.93322 0.11711 0.58561 0.0
H757 H 0.07978 0.16275 0.60806 0.0
H758 H 0.07337 0.14825 0.65094 0.0
H759 H 0.08833 0.1426 0.59635 0.0
H760 H 0.0509 0.10491 0.73151 0.0
H761 H 0.08987 0.0906 0.60229 0.0
H762 H 0.98418 0.12959 0.69483 0.0
H763 H 0.02236 0.14165 0.70068 0.0
H764 H 0.01419 0.1265 0.74114 0.0
H765 H 0.02991 0.11173 0.5368 0.0
H766 H 0.07321 0.10288 0.5353 0.0
H767 H 0.06855 0.12353 0.54225 0.0
C768 C 0.94218 0.89516 0.70138 0.0
C769 C 0.92636 0.90663 0.67474 0.0
C770 C 0.96083 0.88281 0.68175 0.0
C771 C 0.96446 0.88215 0.6344 0.0
C772 C 0.94884 0.8938 0.60736 0.0
C773 C 0.92959 0.90581 0.62785 0.0
C774 C 0.9764 0.87042 0.71164 0.0
C775 C 0.95276 0.89367 0.55683 0.0
C776 C 0.04034 0.85803 0.58784 0.0
C777 C 0.02266 0.84466 0.57337 0.0
C778 C 0.02167 0.87042 0.6072 0.0
C779 C 0.98454 0.86923 0.61317 0.0
C780 C 0.96662 0.85567 0.59899 0.0
C781 C 0.98585 0.84364 0.57865 0.0
C782 C 0.04165 0.88479 0.6211 0.0
C783 C 0.92715 0.85384 0.60543 0.0
H784 H 0.93948 0.89568 0.73764 0.0
H785 H 0.91757 0.91472 0.60717 0.0
H786 H 0.96577 0.85891 0.70189 0.0
H787 H 0.00556 0.86996 0.70726 0.0
H788 H 0.97047 0.87243 0.74776 0.0
H789 H 0.93975 0.90379 0.54073 0.0
H790 H 0.98126 0.8937 0.54765 0.0
H791 H 0.94104 0.88292 0.54278 0.0
H792 H 0.06885 0.85878 0.58398 0.0
H793 H 0.97204 0.83343 0.56668 0.0
H794 H 0.03898 0.88662 0.65786 0.0
H795 H 0.0302 0.89511 0.60422 0.0
H796 H 0.07029 0.8841 0.61266 0.0
H797 H 0.9203 0.85529 0.64148 0.0
H798 H 0.91744 0.84235 0.59395 0.0
H799 H 0.91285 0.86299 0.58653 0.0
C800 C 0.73123 0.41065 0.32855 0.0
C801 C 0.76812 0.40986 0.32382 0.0
C802 C 0.71222 0.39855 0.34885 0.0
C803 C 0.7305 0.38518 0.36382 0.0
C804 C 0.76776 0.38427 0.35868 0.0
C805 C 0.78615 0.39669 0.33911 0.0
C806 C 0.67259 0.40007 0.35424 0.0
C807 C 0.78815 0.37012 0.37362 0.0
C808 C 0.68734 0.35922 0.45135 0.0
C809 C 0.67269 0.34748 0.42456 0.0
C810 C 0.70596 0.37162 0.432 0.0
C811 C 0.71062 0.37215 0.38479 0.0
C812 C 0.69615 0.36025 0.35759 0.0
C813 C 0.67706 0.34813 0.37778 0.0
C814 C 0.72039 0.38424 0.46205 0.0
C815 C 0.70106 0.36026 0.3072 0.0
H816 H 0.71716 0.42072 0.31603 0.0
H817 H 0.81472 0.39612 0.33573 0.0
H818 H 0.65902 0.39075 0.33521 0.0
H819 H 0.66522 0.39869 0.39013 0.0
H820 H 0.66256 0.41144 0.3422 0.0
H821 H 0.81693 0.37109 0.36627 0.0
H822 H 0.78469 0.36835 0.4103 0.0
H823 H 0.77765 0.35966 0.3565 0.0
H824 H 0.68381 0.35884 0.48751 0.0
H825 H 0.66595 0.33905 0.35692 0.0
H826 H 0.70934 0.39562 0.45181 0.0
H827 H 0.74959 0.38496 0.45841 0.0
H828 H 0.71399 0.38225 0.49805 0.0
H829 H 0.68914 0.37086 0.29254 0.0
H830 H 0.68881 0.34998 0.29095 0.0
H831 H 0.72972 0.36044 0.29891 0.0
C832 C 0.26796 0.59354 0.32317 0.0
C833 C 0.23133 0.59448 0.31602 0.0
C834 C 0.2865 0.60571 0.34383 0.0
C835 C 0.2681 0.61934 0.35642 0.0
C836 C 0.23121 0.62049 0.34833 0.0
C837 C 0.2132 0.60796 0.32865 0.0
C838 C 0.32572 0.60394 0.35245 0.0
C839 C 0.21076 0.63493 0.36047 0.0
C840 C 0.30778 0.64546 0.44623 0.0
C841 C 0.3247 0.6568 0.42021 0.0
C842 C 0.2895 0.63314 0.42589 0.0
C843 C 0.28743 0.63234 0.3784 0.0
C844 C 0.30406 0.64389 0.35197 0.0
C845 C 0.32287 0.65588 0.3732 0.0
C846 C 0.27277 0.62088 0.45522 0.0
C847 C 0.30183 0.64362 0.30128 0.0
H848 H 0.2822 0.58327 0.31248 0.0
H849 H 0.18484 0.60869 0.32334 0.0
H850 H 0.3406 0.61305 0.33416 0.0
H851 H 0.33133 0.60548 0.38881 0.0
H852 H 0.33587 0.59243 0.34176 0.0
H853 H 0.1825 0.63422 0.35023 0.0
H854 H 0.21197 0.63688 0.3973 0.0
H855 H 0.22291 0.64518 0.34406 0.0
H856 H 0.30936 0.64605 0.48258 0.0
H857 H 0.33573 0.66468 0.35296 0.0
H858 H 0.28375 0.60933 0.44657 0.0
H859 H 0.24381 0.6204 0.44902 0.0
H860 H 0.27727 0.62305 0.49159 0.0
H861 H 0.31408 0.63285 0.28814 0.0
H862 H 0.31532 0.65371 0.28567 0.0
H863 H 0.27367 0.64359 0.29055 0.0
C864 C 0.48402 0.65522 0.60161 0.0
C865 C 0.48504 0.65797 0.55528 0.0
C866 C 0.50213 0.64257 0.62047 0.0
C867 C 0.52191 0.63256 0.59221 0.0
C868 C 0.52347 0.63552 0.54539 0.0
C869 C 0.50494 0.6482 0.52749 0.0
C870 C 0.49968 0.63978 0.67048 0.0
C871 C 0.54447 0.62521 0.51419 0.0
C872 C 0.59272 0.6069 0.64476 0.0
C873 C 0.57533 0.59255 0.64702 0.0
C874 C 0.57568 0.62002 0.62701 0.0
C875 C 0.54034 0.6188 0.61142 0.0
C876 C 0.5226 0.60437 0.61383 0.0
C877 C 0.54033 0.59142 0.63144 0.0
C878 C 0.59555 0.63519 0.62475 0.0
C879 C 0.48484 0.60262 0.5978 0.0
H880 H 0.46863 0.66287 0.62297 0.0
H881 H 0.506 0.65052 0.49168 0.0
H882 H 0.48746 0.62831 0.67693 0.0
H883 H 0.52659 0.63957 0.68547 0.0
H884 H 0.48375 0.6488 0.68785 0.0
H885 H 0.54372 0.62934 0.47883 0.0
H886 H 0.5725 0.62467 0.52533 0.0
H887 H 0.53384 0.61324 0.51534 0.0
H888 H 0.61976 0.60789 0.6567 0.0
H889 H 0.52661 0.58041 0.63319 0.0
H890 H 0.58114 0.64421 0.64403 0.0
H891 H 0.5971 0.63921 0.58938 0.0
H892 H 0.62288 0.63422 0.63836 0.0
H893 H 0.46735 0.61075 0.61632 0.0
H894 H 0.47465 0.59065 0.60249 0.0
H895 H 0.48302 0.60563 0.56161 0.0
C896 C 0.5388 0.35801 0.57517 0.0
C897 C 0.52082 0.34425 0.56488 0.0
C898 C 0.52122 0.37044 0.59598 0.0
C899 C 0.48494 0.36897 0.6074 0.0
C900 C 0.46673 0.35506 0.59728 0.0
C901 C 0.48481 0.34294 0.57575 0.0
C902 C 0.54146 0.38515 0.60576 0.0
C903 C 0.42814 0.35297 0.60924 0.0
C904 C 0.44724 0.39519 0.69839 0.0
C905 C 0.42857 0.40617 0.67296 0.0
C906 C 0.4657 0.38302 0.6775 0.0
C907 C 0.46595 0.38195 0.62999 0.0
C908 C 0.4475 0.39311 0.6041 0.0
C909 C 0.42879 0.40501 0.62591 0.0
C910 C 0.48458 0.37121 0.70628 0.0
C911 C 0.44753 0.39248 0.55336 0.0
H912 H 0.56674 0.359 0.56729 0.0
H913 H 0.47061 0.33246 0.56703 0.0
H914 H 0.52814 0.39515 0.58952 0.0
H915 H 0.5417 0.38739 0.64248 0.0
H916 H 0.56927 0.38459 0.59363 0.0
H917 H 0.41811 0.34128 0.60011 0.0
H918 H 0.42428 0.35473 0.64587 0.0
H919 H 0.41186 0.36178 0.59164 0.0
H920 H 0.44703 0.39596 0.73477 0.0
H921 H 0.41459 0.41351 0.60602 0.0
H922 H 0.51317 0.37094 0.6977 0.0
H923 H 0.47378 0.35948 0.69947 0.0
H924 H 0.48184 0.37369 0.74278 0.0
H925 H 0.47516 0.39267 0.54063 0.0
H926 H 0.43277 0.4023 0.53812 0.0
H927 H 0.43535 0.38148 0.54178 0.0
C928 C 0.71241 0.84152 0.8754 0.0
C929 C 0.67746 0.84207 0.89137 0.0
C930 C 0.72941 0.85491 0.85954 0.0
C931 C 0.71101 0.86921 0.85951 0.0
C932 C 0.67571 0.86986 0.87549 0.0
C933 C 0.65936 0.85629 0.89129 0.0
C934 C 0.76711 0.85375 0.84283 0.0
C935 C 0.65519 0.88488 0.87582 0.0
C936 C 0.76695 0.90581 0.85413 0.0
C937 C 0.76585 0.90919 0.80816 0.0
C938 C 0.74866 0.89297 0.87155 0.0
C939 C 0.7287 0.88342 0.84219 0.0
C940 C 0.72675 0.88712 0.79586 0.0
C941 C 0.74536 0.89999 0.77942 0.0
C942 C 0.75139 0.8894 0.92111 0.0
C943 C 0.70559 0.87731 0.76352 0.0
H944 H 0.72664 0.83061 0.87542 0.0
H945 H 0.63236 0.85684 0.90362 0.0
H946 H 0.76852 0.85747 0.80717 0.0
H947 H 0.78441 0.86165 0.86245 0.0
H948 H 0.77782 0.8418 0.84547 0.0
H949 H 0.62803 0.88345 0.8896 0.0
H950 H 0.6694 0.89365 0.89627 0.0
H951 H 0.65317 0.88953 0.84114 0.0
H952 H 0.78278 0.91302 0.87622 0.0
H953 H 0.74427 0.90281 0.74391 0.0
H954 H 0.7645 0.87802 0.92592 0.0
H955 H 0.72455 0.88856 0.93613 0.0
H956 H 0.7667 0.89834 0.93968 0.0
H957 H 0.71677 0.86542 0.76231 0.0
H958 H 0.70556 0.88215 0.72891 0.0
H959 H 0.67779 0.8763 0.77526 0.0
C960 C 0.28669 0.16169 0.87801 0.0
C961 C 0.32185 0.16106 0.89322 0.0
C962 C 0.26959 0.14842 0.86144 0.0
C963 C 0.28812 0.13417 0.8598 0.0
C964 C 0.32361 0.13343 0.87506 0.0
C965 C 0.34004 0.14688 0.89169 0.0
C966 C 0.23165 0.14967 0.84564 0.0
C967 C 0.34428 0.11846 0.87363 0.0
C968 C 0.23278 0.09743 0.85214 0.0
C969 C 0.23345 0.09451 0.80588 0.0
C970 C 0.25095 0.11017 0.87035 0.0
C971 C 0.27036 0.12011 0.8415 0.0
C972 C 0.27177 0.11691 0.79481 0.0
C973 C 0.25325 0.10413 0.77757 0.0
C974 C 0.24875 0.11321 0.92026 0.0
C975 C 0.29235 0.12714 0.76298 0.0
H976 H 0.27236 0.17256 0.87919 0.0
H977 H 0.3672 0.14627 0.9034 0.0
H978 H 0.22984 0.14637 0.80965 0.0
H979 H 0.21472 0.1415 0.86479 0.0
H980 H 0.22082 0.16155 0.84971 0.0
H981 H 0.37158 0.1198 0.88707 0.0
H982 H 0.33039 0.10944 0.89347 0.0
H983 H 0.34598 0.1142 0.83849 0.0
H984 H 0.21746 0.0899 0.87389 0.0
H985 H 0.25402 0.10168 0.74182 0.0
H986 H 0.23567 0.12453 0.92635 0.0
H987 H 0.27574 0.11391 0.93488 0.0
H988 H 0.23366 0.10406 0.93826 0.0
H989 H 0.28105 0.13901 0.76323 0.0
H990 H 0.29191 0.12271 0.72792 0.0
H991 H 0.32031 0.12807 0.77417 0.0
C992 C 0.53578 0.097 0.15837 0.0
C993 C 0.57281 0.0958 0.16024 0.0
C994 C 0.51931 0.11 0.13922 0.0
C995 C 0.54035 0.12219 0.1219 0.0
C996 C 0.57776 0.12113 0.12402 0.0
C997 C 0.59356 0.1079 0.14294 0.0
C998 C 0.47934 0.11061 0.13717 0.0
C999 C 0.60106 0.13396 0.10632 0.0
C1000 C 0.49673 0.14838 0.03547 0.0
C1001 C 0.48558 0.16086 0.06208 0.0
C1002 C 0.51514 0.13584 0.05436 0.0
C1003 C 0.52301 0.1359 0.10091 0.0
C1004 C 0.51283 0.14875 0.12766 0.0
C1005 C 0.49411 0.16106 0.1079 0.0
C1006 C 0.52543 0.12237 0.02468 0.0
C1007 C 0.52099 0.1493 0.17732 0.0
H1008 H 0.51954 0.08769 0.17153 0.0
H1009 H 0.6222 0.1071 0.14453 0.0
H1010 H 0.46954 0.121 0.15528 0.0
H1011 H 0.47054 0.11164 0.1017 0.0
H1012 H 0.4668 0.10018 0.15214 0.0
H1013 H 0.62968 0.13152 0.11141 0.0
H1014 H 0.59618 0.13565 0.06986 0.0
H1015 H 0.59443 0.14503 0.12335 0.0
H1016 H 0.49082 0.14837 0.99981 0.0
H1017 H 0.48542 0.1707 0.12852 0.0
H1018 H 0.51198 0.11169 0.03646 0.0
H1019 H 0.55438 0.12028 0.02687 0.0
H1020 H 0.51829 0.12434 0.9889 0.0
H1021 H 0.50653 0.13989 0.19487 0.0
H1022 H 0.51337 0.16055 0.19273 0.0
H1023 H 0.54969 0.14736 0.18306 0.0
C1024 C 0.50653 0.843 0.10487 0.0
C1025 C 0.51419 0.84277 0.05881 0.0
C1026 C 0.48845 0.85558 0.12427 0.0
C1027 C 0.47796 0.8682 0.09687 0.0
C1028 C 0.48483 0.86779 0.05008 0.0
C1029 C 0.50268 0.85503 0.0316 0.0
C1030 C 0.48138 0.85553 0.17422 0.0
C1031 C 0.47411 0.881 0.0197 0.0
C1032 C 0.40876 0.89684 0.13889 0.0
C1033 C 0.43002 0.9091 0.15417 0.0
C1034 C 0.42397 0.88336 0.12066 0.0
C1035 C 0.4613 0.88217 0.11731 0.0
C1036 C 0.48286 0.89451 0.13267 0.0
C1037 C 0.46698 0.90778 0.15105 0.0
C1038 C 0.40011 0.87041 0.10494 0.0
C1039 C 0.52276 0.89373 0.12937 0.0
H1040 H 0.5155 0.83353 0.12592 0.0
H1041 H 0.50797 0.8547 0.99579 0.0
H1042 H 0.49638 0.86506 0.19048 0.0
H1043 H 0.45285 0.85764 0.18082 0.0
H1044 H 0.48915 0.84442 0.19027 0.0
H1045 H 0.48034 0.87864 0.98383 0.0
H1046 H 0.44527 0.88324 0.02283 0.0
H1047 H 0.48807 0.89173 0.03005 0.0
H1048 H 0.38018 0.89771 0.14144 0.0
H1049 H 0.48363 0.91719 0.16271 0.0
H1050 H 0.407 0.8595 0.12265 0.0
H1051 H 0.40413 0.86834 0.06848 0.0
H1052 H 0.37165 0.87298 0.11087 0.0
H1053 H 0.53277 0.88349 0.14797 0.0
H1054 H 0.53577 0.90427 0.14309 0.0
H1055 H 0.53081 0.89234 0.09371 0.0
C1056 C 0.95771 0.24074 0.36623 0.0
C1057 C 0.96011 0.22466 0.37175 0.0
C1058 C 0.96696 0.24774 0.32519 0.0
C1059 C 0.98012 0.23848 0.28952 0.0
C1060 C 0.98436 0.22232 0.29595 0.0
C1061 C 0.9736 0.21556 0.33667 0.0
C1062 C 0.9609 0.26491 0.31927 0.0
C1063 C 0.99949 0.21212 0.25945 0.0
C1064 C 0.96815 0.25193 0.16869 0.0
C1065 C 0.00106 0.25877 0.15922 0.0
C1066 C 0.9609 0.24549 0.21106 0.0
C1067 C 0.98748 0.2455 0.24466 0.0
C1068 C 0.02082 0.25228 0.23536 0.0
C1069 C 0.02684 0.25921 0.19327 0.0
C1070 C 0.92457 0.23883 0.22001 0.0
C1071 C 0.05013 0.25228 0.26992 0.0
H1072 H 0.94683 0.24773 0.3932 0.0
H1073 H 0.97555 0.20312 0.34106 0.0
H1074 H 0.9856 0.27068 0.30805 0.0
H1075 H 0.94071 0.26684 0.29272 0.0
H1076 H 0.95169 0.27056 0.35074 0.0
H1077 H 0.00443 0.20011 0.27137 0.0
H1078 H 0.98086 0.21162 0.23065 0.0
H1079 H 0.02476 0.21705 0.24682 0.0
H1080 H 0.94779 0.25174 0.143 0.0
H1081 H 0.05152 0.26527 0.18771 0.0
H1082 H 0.91267 0.24449 0.24993 0.0
H1083 H 0.9267 0.22628 0.22753 0.0
H1084 H 0.90633 0.24035 0.19102 0.0
H1085 H 0.04232 0.25944 0.29925 0.0
H1086 H 0.0754 0.25688 0.2562 0.0
H1087 H 0.05476 0.24033 0.28239 0.0
C1088 C 0.0356 0.79123 0.34093 0.0
C1089 C 0.04753 0.78156 0.37563 0.0
C1090 C 0.02446 0.78504 0.29958 0.0
C1091 C 0.02672 0.76886 0.29214 0.0
C1092 C 0.03854 0.75904 0.3273 0.0
C1093 C 0.04817 0.7655 0.36894 0.0
C1094 C 0.01077 0.79584 0.26364 0.0
C1095 C 0.0425 0.7418 0.32031 0.0
C1096 C 0.97753 0.74945 0.19548 0.0
C1097 C 0.00341 0.74924 0.16153 0.0
C1098 C 0.98429 0.75629 0.23754 0.0
C1099 C 0.0184 0.76229 0.24693 0.0
C1100 C 0.04493 0.76176 0.21332 0.0
C1101 C 0.03698 0.75545 0.17098 0.0
C1102 C 0.95502 0.75691 0.2721 0.0
C1103 C 0.082 0.76758 0.22235 0.0
H1104 H 0.03493 0.80365 0.34623 0.0
H1105 H 0.0578 0.75805 0.39563 0.0
H1106 H 0.02934 0.79597 0.23474 0.0
H1107 H 0.9848 0.79169 0.25094 0.0
H1108 H 0.00761 0.8079 0.27614 0.0
H1109 H 0.05157 0.73575 0.35121 0.0
H1110 H 0.01694 0.73667 0.30956 0.0
H1111 H 0.06195 0.73958 0.29307 0.0
H1112 H 0.95223 0.7439 0.19004 0.0
H1113 H 0.0574 0.75516 0.14536 0.0
H1114 H 0.95225 0.76886 0.28544 0.0
H1115 H 0.96164 0.74928 0.30087 0.0
H1116 H 0.92911 0.75319 0.25805 0.0
H1117 H 0.08133 0.78009 0.23079 0.0
H1118 H 0.0999 0.7659 0.1931 0.0
H1119 H 0.09339 0.76142 0.25176 0.0
C1120 C 0.28257 0.5089 0.42716 0.0
C1121 C 0.2501 0.50602 0.40587 0.0
C1122 C 0.29003 0.50277 0.46983 0.0
C1123 C 0.26458 0.49334 0.49159 0.0
C1124 C 0.23163 0.49044 0.47035 0.0
C1125 C 0.22479 0.49681 0.4277 0.0
C1126 C 0.32542 0.50621 0.49133 0.0
C1127 C 0.20399 0.48028 0.49217 0.0
C1128 C 0.30215 0.46503 0.57688 0.0
C1129 C 0.29586 0.47269 0.61778 0.0
C1130 C 0.2911 0.4714 0.53581 0.0
C1131 C 0.27343 0.48586 0.53537 0.0
C1132 C 0.26608 0.49348 0.57654 0.0
C1133 C 0.27728 0.48679 0.61728 0.0
C1134 C 0.29925 0.46282 0.49274 0.0
C1135 C 0.24736 0.50893 0.57742 0.0
H1136 H 0.30219 0.51603 0.41044 0.0
H1137 H 0.20001 0.49422 0.41094 0.0
H1138 H 0.32148 0.51127 0.52526 0.0
H1139 H 0.34059 0.4953 0.49565 0.0
H1140 H 0.34159 0.51437 0.471 0.0
H1141 H 0.17899 0.47988 0.47249 0.0
H1142 H 0.21437 0.46831 0.49561 0.0
H1143 H 0.19795 0.48455 0.52651 0.0
H1144 H 0.31622 0.45408 0.57679 0.0
H1145 H 0.27226 0.49281 0.64863 0.0
H1146 H 0.31794 0.46972 0.47205 0.0
H1147 H 0.27473 0.46126 0.47268 0.0
H1148 H 0.31121 0.45126 0.499 0.0
H1149 H 0.26399 0.51778 0.56048 0.0
H1150 H 0.24172 0.51291 0.61222 0.0
H1151 H 0.22203 0.50823 0.55861 0.0
C1152 C 0.73067 0.51933 0.62047 0.0
C1153 C 0.70988 0.53283 0.62155 0.0
C1154 C 0.74111 0.51265 0.57938 0.0
C1155 C 0.73062 0.51964 0.53838 0.0
C1156 C 0.71058 0.53349 0.53927 0.0
C1157 C 0.70045 0.5399 0.58071 0.0
C1158 C 0.76247 0.49786 0.57982 0.0
C1159 C 0.69896 0.54136 0.49636 0.0
C1160 C 0.77663 0.50909 0.42847 0.0
C1161 C 0.752 0.49895 0.409 0.0
C1162 C 0.77034 0.51575 0.47089 0.0
C1163 C 0.73882 0.51207 0.49448 0.0
C1164 C 0.71417 0.50164 0.47515 0.0
C1165 C 0.7209 0.49534 0.43248 0.0
C1166 C 0.79698 0.52702 0.48998 0.0
C1167 C 0.68044 0.49726 0.49933 0.0
H1168 H 0.73817 0.51378 0.65173 0.0
H1169 H 0.68455 0.55035 0.58098 0.0
H1170 H 0.74674 0.48836 0.5646 0.0
H1171 H 0.78677 0.49924 0.55922 0.0
H1172 H 0.77029 0.49438 0.61438 0.0
H1173 H 0.68531 0.55255 0.50278 0.0
H1174 H 0.72216 0.54353 0.47435 0.0
H1175 H 0.68061 0.53367 0.4776 0.0
H1176 H 0.80038 0.51213 0.41001 0.0
H1177 H 0.70189 0.48745 0.41754 0.0
H1178 H 0.80543 0.52323 0.52397 0.0
H1179 H 0.78457 0.5386 0.4937 0.0
H1180 H 0.82082 0.52816 0.46834 0.0
H1181 H 0.6867 0.49267 0.53325 0.0
H1182 H 0.66491 0.48841 0.48071 0.0
H1183 H 0.66363 0.50768 0.50401 0.0
C1184 C 0.98105 0.73753 0.87513 0.0
C1185 C 0.96439 0.72299 0.87545 0.0
C1186 C 0.9925 0.74429 0.83459 0.0
C1187 C 0.98741 0.73627 0.7935 0.0
C1188 C 0.97194 0.72134 0.79389 0.0
C1189 C 0.96056 0.71492 0.83472 0.0
C1190 C 0.00886 0.76024 0.83552 0.0
C1191 C 0.96627 0.71233 0.75092 0.0
C1192 C 0.97671 0.75836 0.68391 0.0
C1193 C 0.00988 0.75628 0.6636 0.0
C1194 C 0.96949 0.75232 0.72674 0.0
C1195 C 0.99597 0.74381 0.74971 0.0
C1196 C 0.02965 0.74176 0.72954 0.0
C1197 C 0.03619 0.748 0.68665 0.0
C1198 C 0.93325 0.75482 0.74704 0.0
C1199 C 0.05843 0.73261 0.7527 0.0
H1200 H 0.98414 0.74386 0.90637 0.0
H1201 H 0.94805 0.70361 0.83454 0.0
H1202 H 0.03452 0.76021 0.81733 0.0
H1203 H 0.99118 0.76854 0.81799 0.0
H1204 H 0.01336 0.76446 0.87035 0.0
H1205 H 0.95616 0.70044 0.75728 0.0
H1206 H 0.94693 0.71851 0.72928 0.0
H1207 H 0.99143 0.71147 0.73181 0.0
H1208 H 0.9563 0.76478 0.66626 0.0
H1209 H 0.06157 0.746 0.67068 0.0
H1210 H 0.93576 0.76013 0.78087 0.0
H1211 H 0.91972 0.74351 0.75135 0.0
H1212 H 0.91626 0.76239 0.7259 0.0
H1213 H 0.06292 0.73716 0.78712 0.0
H1214 H 0.08388 0.73296 0.73396 0.0
H1215 H 0.05006 0.72034 0.75612 0.0
C1216 C 0.02628 0.29128 0.83636 0.0
C1217 C 0.03836 0.2819 0.87161 0.0
C1218 C 0.01512 0.28476 0.79547 0.0
C1219 C 0.01753 0.26853 0.78908 0.0
C1220 C 0.02914 0.25899 0.82497 0.0
C1221 C 0.03883 0.26578 0.86615 0.0
C1222 C 0.00166 0.29529 0.75871 0.0
C1223 C 0.03321 0.2417 0.81912 0.0
C1224 C 0.97037 0.24866 0.69161 0.0
C1225 C 0.99688 0.24842 0.65845 0.0
C1226 C 0.97629 0.2556 0.73373 0.0
C1227 C 0.01015 0.26169 0.74399 0.0
C1228 C 0.03733 0.2611 0.71122 0.0
C1229 C 0.03024 0.25467 0.6688 0.0
C1230 C 0.94638 0.25628 0.76738 0.0
C1231 C 0.07416 0.26703 0.7212 0.0
H1232 H 0.02582 0.30375 0.84072 0.0
H1233 H 0.04862 0.25856 0.89327 0.0
H1234 H 0.0208 0.29545 0.73042 0.0
H1235 H 0.97611 0.29089 0.74535 0.0
H1236 H 0.99778 0.30737 0.77067 0.0
H1237 H 0.04119 0.23585 0.8508 0.0
H1238 H 0.00804 0.23651 0.8072 0.0
H1239 H 0.05359 0.23931 0.79312 0.0
H1240 H 0.9452 0.24309 0.68546 0.0
H1241 H 0.05112 0.25436 0.6438 0.0
H1242 H 0.94306 0.2683 0.77997 0.0
H1243 H 0.95268 0.24888 0.79677 0.0
H1244 H 0.92083 0.25233 0.75279 0.0
H1245 H 0.07321 0.2796 0.72884 0.0
H1246 H 0.0927 0.26517 0.69268 0.0
H1247 H 0.08497 0.2611 0.75135 0.0
C1248 C 0.22274 0.99797 0.924 0.0
C1249 C 0.2493 0.0059 0.90045 0.0
C1250 C 0.22955 0.9914 0.96639 0.0
C1251 C 0.2637 0.99288 0.98571 0.0
C1252 C 0.29047 1.00104 0.96221 0.0
C1253 C 0.28303 0.00732 0.91972 0.0
C1254 C 0.20048 0.98258 0.99004 0.0
C1255 C 0.32712 0.00302 0.98177 0.0
C1256 C 0.2776 0.98703 0.11137 0.0
C1257 C 0.29324 0.97228 0.1126 0.0
C1258 C 0.26714 0.99377 0.07042 0.0
C1259 C 0.272 0.98548 0.02977 0.0
C1260 C 0.28656 0.97036 0.03099 0.0
C1261 C 0.29719 0.96399 0.07228 0.0
C1262 C 0.25199 0.00996 0.07049 0.0
C1263 C 0.29175 0.96105 0.9885 0.0
H1264 H 0.1969 0.99649 0.90874 0.0
H1265 H 0.30362 0.01345 0.90158 0.0
H1266 H 0.20849 0.9703 0.99427 0.0
H1267 H 0.19611 0.98742 0.02415 0.0
H1268 H 0.17505 0.98295 0.97125 0.0
H1269 H 0.34448 0.01024 0.96009 0.0
H1270 H 0.32541 0.00849 0.01546 0.0
H1271 H 0.33978 0.99152 0.98625 0.0
H1272 H 0.27451 0.99355 0.14229 0.0
H1273 H 0.30897 0.95254 0.07287 0.0
H1274 H 0.22611 0.01014 0.05284 0.0
H1275 H 0.27003 0.01785 0.05196 0.0
H1276 H 0.24825 0.01455 0.10506 0.0
H1277 H 0.26655 0.96038 0.96938 0.0
H1278 H 0.30112 0.94908 0.99547 0.0
H1279 H 0.31146 0.96687 0.96659 0.0
C1280 C 0.71835 0.99647 0.92397 0.0
C1281 C 0.75211 0.99765 0.90468 0.0
C1282 C 0.71115 0.00277 0.96652 0.0
C1283 C 0.73823 0.01071 0.99011 0.0
C1284 C 0.77244 0.01193 0.97082 0.0
C1285 C 0.77899 0.00536 0.92833 0.0
C1286 C 0.6744 1.00109 0.986 0.0
C1287 C 0.80186 0.0205 0.99455 0.0
C1288 C 0.70571 0.04004 0.07608 0.0
C1289 C 0.70901 0.03179 0.11655 0.0
C1290 C 0.71626 0.03351 0.03496 0.0
C1291 C 0.73012 0.01827 0.03405 0.0
C1292 C 0.7344 0.01001 0.07486 0.0
C1293 C 0.72399 0.01691 0.11565 0.0
C1294 C 0.71166 0.04278 0.99231 0.0
C1295 C 0.74885 0.9937 0.07527 0.0
H1296 H 0.6975 0.99052 0.90578 0.0
H1297 H 0.80487 0.00667 0.91309 0.0
H1298 H 0.67583 0.99566 0.01976 0.0
H1299 H 0.66218 0.01269 0.99029 0.0
H1300 H 0.6568 0.99396 0.96434 0.0
H1301 H 0.82736 0.01982 0.97599 0.0
H1302 H 0.7945 0.03287 0.99847 0.0
H1303 H 0.8058 0.01571 0.0288 0.0
H1304 H 0.69444 0.05159 0.07639 0.0
H1305 H 0.7266 0.01042 0.14667 0.0
H1306 H 0.69177 0.03709 0.97035 0.0
H1307 H 0.73696 0.0432 0.97335 0.0
H1308 H 0.7028 0.05484 0.99905 0.0
H1309 H 0.7305 0.98591 0.05685 0.0
H1310 H 0.75236 0.98917 0.10994 0.0
H1311 H 0.77475 0.99326 0.05767 0.0
C1312 C 0.52184 0.25313 0.68201 0.0
C1313 C 0.49572 0.25395 0.64845 0.0
C1314 C 0.51488 0.24618 0.72381 0.0
C1315 C 0.48037 0.24069 0.73341 0.0
C1316 C 0.45364 0.24177 0.70016 0.0
C1317 C 0.46176 0.24818 0.658 0.0
C1318 C 0.54435 0.24496 0.75797 0.0
C1319 C 0.41616 0.23655 0.70953 0.0
C1320 C 0.46242 0.21231 0.82863 0.0
C1321 C 0.45239 0.2223 0.86354 0.0
C1322 C 0.47286 0.21816 0.78659 0.0
C1323 C 0.47179 0.23435 0.77876 0.0
C1324 C 0.46155 0.24447 0.81399 0.0
C1325 C 0.45263 0.23833 0.85624 0.0
C1326 C 0.4849 0.20704 0.7505 0.0
C1327 C 0.45886 0.26174 0.80665 0.0
H1328 H 0.54751 0.25835 0.67656 0.0
H1329 H 0.44117 0.24894 0.63268 0.0
H1330 H 0.53886 0.25278 0.78672 0.0
H1331 H 0.54591 0.23299 0.77141 0.0
H1332 H 0.57052 0.24811 0.74351 0.0
H1333 H 0.39832 0.23839 0.6803 0.0
H1334 H 0.41584 0.22407 0.7184 0.0
H1335 H 0.40538 0.243 0.73877 0.0
H1336 H 0.46242 0.1999 0.83441 0.0
H1337 H 0.44449 0.24604 0.88312 0.0
H1338 H 0.51128 0.21057 0.73757 0.0
H1339 H 0.46619 0.20736 0.72176 0.0
H1340 H 0.48664 0.19493 0.76296 0.0
H1341 H 0.48489 0.26647 0.79617 0.0
H1342 H 0.45002 0.26799 0.83734 0.0
H1343 H 0.43981 0.26419 0.77912 0.0
C1344 C 0.53197 0.76544 0.86008 0.0
C1345 C 0.54766 0.78017 0.86186 0.0
C1346 C 0.5222 0.75874 0.81881 0.0
C1347 C 0.52785 0.76703 0.77836 0.0
C1348 C 0.54271 0.78208 0.78005 0.0
C1349 C 0.55261 0.78843 0.82168 0.0
C1350 C 0.50671 0.74261 0.81838 0.0
C1351 C 0.54876 0.79139 0.73775 0.0
C1352 C 0.53877 0.74508 0.66839 0.0
C1353 C 0.50516 0.74668 0.64892 0.0
C1354 C 0.54626 0.75139 0.71086 0.0
C1355 C 0.51965 0.75975 0.7341 0.0
C1356 C 0.48567 0.76145 0.71449 0.0
C1357 C 0.47881 0.75486 0.67214 0.0
C1358 C 0.58273 0.74917 0.73074 0.0
C1359 C 0.45678 0.77049 0.73786 0.0
H1360 H 0.52811 0.75894 0.89087 0.0
H1361 H 0.56447 0.79986 0.82267 0.0
H1362 H 0.48084 0.74261 0.80069 0.0
H1363 H 0.52457 0.73469 0.79965 0.0
H1364 H 0.50281 0.73792 0.85281 0.0
H1365 H 0.55868 0.80325 0.74499 0.0
H1366 H 0.56834 0.7854 0.71602 0.0
H1367 H 0.52376 0.79234 0.71832 0.0
H1368 H 0.55921 0.73876 0.65049 0.0
H1369 H 0.45308 0.75649 0.6567 0.0
H1370 H 0.58065 0.74363 0.76429 0.0
H1371 H 0.59566 0.76059 0.73559 0.0
H1372 H 0.60003 0.74191 0.70908 0.0
H1373 H 0.45183 0.7656 0.77178 0.0
H1374 H 0.43152 0.7704 0.71867 0.0
H1375 H 0.46531 0.78268 0.74252 0.0
C1376 C 0.77511 0.4865 0.12062 0.0
C1377 C 0.79183 0.47198 0.12198 0.0
C1378 C 0.76481 0.49319 0.07949 0.0
C1379 C 0.77109 0.48511 0.03878 0.0
C1380 C 0.78674 0.47021 0.0401 0.0
C1381 C 0.79702 0.46387 0.08156 0.0
C1382 C 0.74831 0.50912 0.07947 0.0
C1383 C 0.79361 0.46113 0.99755 0.0
C1384 C 0.72369 0.49704 0.93099 0.0
C1385 C 0.75011 0.50554 0.90886 0.0
C1386 C 0.72987 0.49052 0.97364 0.0
C1387 C 0.76328 0.49254 0.99457 0.0
C1388 C 0.78994 0.5012 0.97241 0.0
C1389 C 0.78311 0.50749 0.92974 0.0
C1390 C 0.70093 0.4812 0.99587 0.0
C1391 C 0.82586 0.50371 0.99357 0.0
H1392 H 0.771 0.49288 0.15158 0.0
H1393 H 0.80964 0.45259 0.08215 0.0
H1394 H 0.76616 0.51739 0.06204 0.0
H1395 H 0.72292 0.50898 0.06069 0.0
H1396 H 0.74326 0.51349 0.11403 0.0
H1397 H 0.80377 0.4493 0.00452 0.0
H1398 H 0.76892 0.46015 0.9775 0.0
H1399 H 0.81333 0.46733 0.97654 0.0
H1400 H 0.69847 0.49513 0.91454 0.0
H1401 H 0.80361 0.51406 0.91278 0.0
H1402 H 0.69536 0.48585 0.02993 0.0
H1403 H 0.70975 0.46903 1.00008 0.0
H1404 H 0.67595 0.48127 0.9761 0.0
H1405 H 0.82281 0.5091 0.02722 0.0
H1406 H 0.84321 0.51122 0.97273 0.0
H1407 H 0.8393 0.4924 0.99847 0.0
C1408 C 0.20484 0.53897 0.07723 0.0
C1409 C 0.21003 0.53107 0.11799 0.0
C1410 C 0.21595 0.5326 0.03617 0.0
C1411 C 0.2325 0.51789 0.03558 0.0
C1412 C 0.23879 0.51003 0.07664 0.0
C1413 C 0.22761 0.51674 0.11738 0.0
C1414 C 0.209 0.54144 0.99324 0.0
C1415 C 0.25628 0.4943 0.07738 0.0
C1416 C 0.22262 0.49525 0.92668 0.0
C1417 C 0.25552 0.49766 0.90599 0.0
C1418 C 0.2152 0.50141 0.96934 0.0
C1419 C 0.24118 0.5104 0.99172 0.0
C1420 C 0.27455 0.51283 0.97109 0.0
C1421 C 0.28131 0.50644 0.92841 0.0
C1422 C 0.17932 0.49849 0.99016 0.0
C1423 C 0.30278 0.52249 0.99359 0.0
H1424 H 0.19158 0.55011 0.07725 0.0
H1425 H 0.23176 0.51053 0.14862 0.0
H1426 H 0.23384 0.54266 0.97362 0.0
H1427 H 0.18993 0.53493 0.97204 0.0
H1428 H 0.198 0.55317 0.99967 0.0
H1429 H 0.2613 0.49014 0.11215 0.0
H1430 H 0.23911 0.48575 0.05999 0.0
H1431 H 0.28181 0.49467 0.05895 0.0
H1432 H 0.2026 0.48846 0.90951 0.0
H1433 H 0.30645 0.5087 0.91212 0.0
H1434 H 0.16505 0.50963 0.99454 0.0
H1435 H 0.18249 0.49327 0.02401 0.0
H1436 H 0.16268 0.49066 0.96934 0.0
H1437 H 0.29336 0.5346 0.99713 0.0
H1438 H 0.328 0.52255 0.97433 0.0
H1439 H 0.30812 0.51805 0.02793 0.0
C1440 C 0.43453 0.72289 0.32481 0.0
C1441 C 0.45707 0.72278 0.36229 0.0
C1442 C 0.44539 0.72934 0.28379 0.0
C1443 C 0.48005 0.73546 0.27968 0.0
C1444 C 0.5031 0.73525 0.31729 0.0
C1445 C 0.49114 0.72912 0.35841 0.0
C1446 C 0.41965 0.72968 0.2449 0.0
C1447 C 0.54053 0.7413 0.31388 0.0
C1448 C 0.51331 0.73764 0.15927 0.0
C1449 C 0.50855 0.75336 0.14945 0.0
C1450 C 0.50579 0.7318 0.20229 0.0
C1451 C 0.49203 0.74185 0.23569 0.0
C1452 C 0.48748 0.7578 0.22588 0.0
C1453 C 0.49619 0.7634 0.18291 0.0
C1454 C 0.51182 0.71482 0.21167 0.0
C1455 C 0.47198 0.76881 0.26008 0.0
H1456 H 0.40802 0.71816 0.32778 0.0
H1457 H 0.50869 0.72898 0.38726 0.0
H1458 H 0.41649 0.74173 0.23249 0.0
H1459 H 0.43012 0.72267 0.21662 0.0
H1460 H 0.39314 0.72512 0.25425 0.0
H1461 H 0.55524 0.74017 0.34607 0.0
H1462 H 0.55509 0.73486 0.28738 0.0
H1463 H 0.54028 0.75368 0.30388 0.0
H1464 H 0.52294 0.72992 0.13322 0.0
H1465 H 0.49196 0.77551 0.17489 0.0
H1466 H 0.48603 0.70895 0.21706 0.0
H1467 H 0.52759 0.71337 0.24288 0.0
H1468 H 0.52582 0.70891 0.18362 0.0
H1469 H 0.44441 0.76529 0.26804 0.0
H1470 H 0.47168 0.78098 0.24789 0.0
H1471 H 0.48731 0.76831 0.29185 0.0
C1472 C 0.56492 0.27985 0.32664 0.0
C1473 C 0.54294 0.27992 0.36466 0.0
C1474 C 0.55353 0.2734 0.28586 0.0
C1475 C 0.51887 0.26724 0.28251 0.0
C1476 C 0.4964 0.26735 0.32071 0.0
C1477 C 0.50892 0.27349 0.36161 0.0
C1478 C 0.57869 0.27316 0.24636 0.0
C1479 C 0.45899 0.26124 0.31813 0.0
C1480 C 0.4847 0.26541 0.16246 0.0
C1481 C 0.48974 0.24976 0.15197 0.0
C1482 C 0.49223 0.27108 0.20568 0.0
C1483 C 0.5063 0.26094 0.23862 0.0
C1484 C 0.51102 0.24504 0.22818 0.0
C1485 C 0.50229 0.23961 0.18503 0.0
C1486 C 0.48602 0.28801 0.21571 0.0
C1487 C 0.52687 0.23394 0.26183 0.0
H1488 H 0.59141 0.28464 0.32898 0.0
H1489 H 0.49182 0.27359 0.39089 0.0
H1490 H 0.58164 0.26115 0.23355 0.0
H1491 H 0.56783 0.28027 0.21852 0.0
H1492 H 0.60535 0.27768 0.2552 0.0
H1493 H 0.44485 0.2622 0.35077 0.0
H1494 H 0.44391 0.26778 0.29231 0.0
H1495 H 0.45917 0.24891 0.3076 0.0
H1496 H 0.47491 0.27322 0.13674 0.0
H1497 H 0.50672 0.22755 0.17651 0.0
H1498 H 0.51179 0.29396 0.22058 0.0
H1499 H 0.47073 0.28932 0.24736 0.0
H1500 H 0.47146 0.29395 0.18818 0.0
H1501 H 0.5546 0.23738 0.26918 0.0
H1502 H 0.52686 0.22179 0.24942 0.0
H1503 H 0.51203 0.23441 0.29398 0.0
C1504 C 0.77601 0.98716 0.61517 0.0
C1505 C 0.7934 0.97278 0.61621 0.0
C1506 C 0.76519 0.9938 0.5742 0.0
C1507 C 0.77162 0.98581 0.53337 0.0
C1508 C 0.78805 0.97107 0.53438 0.0
C1509 C 0.79883 0.96478 0.57566 0.0
C1510 C 0.74789 0.00957 0.57448 0.0
C1511 C 0.79511 0.96211 0.49168 0.0
C1512 C 0.72302 0.99711 0.426 0.0
C1513 C 0.74892 0.00579 0.40349 0.0
C1514 C 0.72972 0.99077 0.46872 0.0
C1515 C 0.76311 0.99318 0.48933 0.0
C1516 C 0.7892 0.00206 0.46685 0.0
C1517 C 0.78186 0.00816 0.42411 0.0
C1518 C 0.70139 0.9812 0.49133 0.0
C1519 C 0.82508 0.00497 0.48769 0.0
H1520 H 0.77169 0.99344 0.64625 0.0
H1521 H 0.81195 0.95361 0.57604 0.0
H1522 H 0.76515 0.01801 0.55682 0.0
H1523 H 0.72235 0.00918 0.55605 0.0
H1524 H 0.74291 0.01387 0.60912 0.0
H1525 H 0.80604 0.95038 0.49843 0.0
H1526 H 0.77032 0.96085 0.47197 0.0
H1527 H 0.81426 0.96854 0.47043 0.0
H1528 H 0.69783 0.99491 0.40975 0.0
H1529 H 0.80195 0.01488 0.40684 0.0
H1530 H 0.69592 0.98578 0.52549 0.0
H1531 H 0.71079 0.9691 0.49534 0.0
H1532 H 0.67625 0.98107 0.47191 0.0
H1533 H 0.82191 0.01029 0.52142 0.0
H1534 H 0.84183 0.01271 0.46674 0.0
H1535 H 0.83923 0.99382 0.49236 0.0
C1536 C 0.20337 0.03874 0.57277 0.0
C1537 C 0.20669 0.03043 0.61312 0.0
C1538 C 0.21427 0.03234 0.53165 0.0
C1539 C 0.22845 0.01716 0.5306 0.0
C1540 C 0.23262 0.00882 0.57127 0.0
C1541 C 0.22191 0.01559 0.6121 0.0
C1542 C 0.20983 0.04172 0.48914 0.0
C1543 C 0.24733 0.99255 0.57148 0.0
C1544 C 0.21798 0.99587 0.41955 0.0
C1545 C 0.25185 0.99731 0.40073 0.0
C1546 C 0.21036 1.00188 0.46233 0.0
C1547 C 0.23711 0.00979 0.4866 0.0
C1548 C 0.27145 0.01123 0.46783 0.0
C1549 C 0.27844 0.00493 0.42512 0.0
C1550 C 0.1735 0.99995 0.48127 0.0
C1551 C 0.30051 0.01979 0.4923 0.0
H1552 H 0.19195 0.05026 0.57322 0.0
H1553 H 0.2245 0.00907 0.64306 0.0
H1554 H 0.2353 0.04232 0.4706 0.0
H1555 H 0.19031 0.03599 0.46674 0.0
H1556 H 0.20058 0.05371 0.49603 0.0
H1557 H 0.25053 0.98791 0.60608 0.0
H1558 H 0.22933 0.98477 0.55251 0.0
H1559 H 0.27343 0.99226 0.55435 0.0
H1560 H 0.19738 0.98997 0.40077 0.0
H1561 H 0.30442 0.00641 0.41026 0.0
H1562 H 0.16092 0.01147 0.48562 0.0
H1563 H 0.17479 0.99444 0.51494 0.0
H1564 H 0.15629 0.99278 0.45922 0.0
H1565 H 0.29293 0.03212 0.49647 0.0
H1566 H 0.3262 0.01925 0.47413 0.0
H1567 H 0.30418 0.01488 0.52646 0.0
C1568 C 0.32451 0.24042 0.04179 0.0
C1569 C 0.32416 0.22741 0.01339 0.0
C1570 C 0.29452 0.24995 0.04617 0.0
C1571 C 0.26356 0.24647 0.02127 0.0
C1572 C 0.2625 0.23298 0.99422 0.0
C1573 C 0.29272 0.22357 0.9908 0.0
C1574 C 0.29652 0.26411 0.07588 0.0
C1575 C 0.23002 0.22887 0.96704 0.0
C1576 C 0.17456 0.26538 0.04565 0.0
C1577 C 0.17304 0.2768 0.01208 0.0
C1578 C 0.20441 0.25577 0.05023 0.0
C1579 C 0.23331 0.25755 0.02035 0.0
C1580 C 0.23249 0.26942 0.98752 0.0
C1581 C 0.20249 0.27894 0.98394 0.0
C1582 C 0.20453 0.2434 0.0861 0.0
C1583 C 0.26273 0.27169 0.95491 0.0
H1584 H 0.34857 0.24342 0.0597 0.0
H1585 H 0.29207 0.21355 0.96886 0.0
H1586 H 0.29635 0.27469 0.05473 0.0
H1587 H 0.27306 0.26471 0.09828 0.0
H1588 H 0.32086 0.26421 0.09688 0.0
H1589 H 0.2326 0.21745 0.9501 0.0
H1590 H 0.20623 0.22863 0.98892 0.0
H1591 H 0.22548 0.23786 0.941 0.0
H1592 H 0.15219 0.26376 0.06793 0.0
H1593 H 0.20168 0.28772 0.95793 0.0
H1594 H 0.22924 0.24407 0.10622 0.0
H1595 H 0.20389 0.23179 0.07011 0.0
H1596 H 0.18147 0.24441 0.10913 0.0
H1597 H 0.288 0.2732 0.97344 0.0
H1598 H 0.2587 0.2819 0.93275 0.0
H1599 H 0.26558 0.26123 0.93348 0.0
C1600 C 0.80001 0.72587 0.99028 0.0
C1601 C 0.82952 0.72877 0.01773 0.0
C1602 C 0.76938 0.73501 0.99324 0.0
C1603 C 0.76794 0.74727 0.02483 0.0
C1604 C 0.7969 0.7498 0.05419 0.0
C1605 C 0.82745 0.74058 0.05012 0.0
C1606 C 0.73917 0.73197 0.96109 0.0
C1607 C 0.7961 0.76258 0.08884 0.0
C1608 C 0.70702 0.78025 0.99141 0.0
C1609 C 0.67563 0.77641 0.01412 0.0
C1610 C 0.73766 0.77119 0.99603 0.0
C1611 C 0.73713 0.75806 0.02452 0.0
C1612 C 0.7062 0.7546 0.04951 0.0
C1613 C 0.67573 0.76376 0.04381 0.0
C1614 C 0.77002 0.77523 0.96854 0.0
C1615 C 0.70482 0.74086 0.08083 0.0
H1616 H 0.80126 0.71678 0.96515 0.0
H1617 H 0.84991 0.7428 0.07184 0.0
H1618 H 0.71405 0.73044 0.97992 0.0
H1619 H 0.73567 0.7421 0.93853 0.0
H1620 H 0.74372 0.72152 0.94006 0.0
H1621 H 0.81911 0.76202 0.11209 0.0
H1622 H 0.79636 0.77399 0.07174 0.0
H1623 H 0.77133 0.76195 0.10886 0.0
H1624 H 0.70732 0.79 0.96846 0.0
H1625 H 0.65171 0.76077 0.06182 0.0
H1626 H 0.77517 0.76592 0.94366 0.0
H1627 H 0.7937 0.77606 0.9905 0.0
H1628 H 0.76689 0.78636 0.95019 0.0
H1629 H 0.70546 0.72999 0.06093 0.0
H1630 H 0.68047 0.74084 0.10182 0.0
H1631 H 0.72829 0.74077 0.10329 0.0
C1632 C 0.04712 0.52851 0.23903 0.0
C1633 C 0.07762 0.5253 0.26438 0.0
C1634 C 0.01651 0.51943 0.24329 0.0
C1635 C 0.01609 0.50693 0.27412 0.0
C1636 C 0.04613 0.50409 0.30142 0.0
C1637 C 0.07665 0.51324 0.29601 0.0
C1638 C 0.98515 0.52278 0.21325 0.0
C1639 C 0.04647 0.49105 0.33525 0.0
C1640 C 0.92466 0.49035 0.29804 0.0
C1641 C 0.92344 0.47784 0.2679 0.0
C1642 C 0.9553 0.49951 0.30213 0.0
C1643 C 0.98519 0.49621 0.27498 0.0
C1644 C 0.98455 0.48326 0.24578 0.0
C1645 C 0.95383 0.47418 0.24284 0.0
C1646 C 0.9552 0.51306 0.33426 0.0
C1647 C 0.01574 0.4794 0.21597 0.0
H1648 H 0.04753 0.5378 0.21452 0.0
H1649 H 0.09997 0.51074 0.31602 0.0
H1650 H 0.98066 0.51284 0.19026 0.0
H1651 H 0.96079 0.52423 0.23369 0.0
H1652 H 0.98903 0.53339 0.19266 0.0
H1653 H 0.07029 0.49142 0.35719 0.0
H1654 H 0.02245 0.49155 0.3567 0.0
H1655 H 0.04606 0.47977 0.3174 0.0
H1656 H 0.90144 0.49321 0.31781 0.0
H1657 H 0.95324 0.46455 0.21947 0.0
H1658 H 0.95541 0.52406 0.31498 0.0
H1659 H 0.9794 0.5129 0.35544 0.0
H1660 H 0.93157 0.51302 0.35654 0.0
H1661 H 0.02007 0.48894 0.19156 0.0
H1662 H 0.01175 0.46846 0.19693 0.0
H1663 H 0.04022 0.47831 0.23635 0.0
C1664 C 0.33309 0.7411 0.54487 0.0
C1665 C 0.33171 0.72838 0.51549 0.0
C1666 C 0.30347 0.75077 0.55098 0.0
C1667 C 0.27196 0.74776 0.52666 0.0
C1668 C 0.26999 0.7346 0.49837 0.0
C1669 C 0.29974 0.72502 0.49341 0.0
C1670 C 0.30634 0.76452 0.58215 0.0
C1671 C 0.23698 0.73102 0.47157 0.0
C1672 C 0.18246 0.76578 0.55301 0.0
C1673 C 0.18038 0.77744 0.52021 0.0
C1674 C 0.21298 0.75657 0.55735 0.0
C1675 C 0.24185 0.75891 0.52772 0.0
C1676 C 0.2405 0.77111 0.49592 0.0
C1677 C 0.20991 0.78028 0.49278 0.0
C1678 C 0.2137 0.74389 0.59229 0.0
C1679 C 0.27057 0.77393 0.46342 0.0
H1680 H 0.35756 0.74374 0.56234 0.0
H1681 H 0.29828 0.71522 0.4707 0.0
H1682 H 0.30624 0.77537 0.56219 0.0
H1683 H 0.2832 0.76496 0.60512 0.0
H1684 H 0.33097 0.7642 0.60259 0.0
H1685 H 0.23915 0.71993 0.45278 0.0
H1686 H 0.21363 0.73036 0.49412 0.0
H1687 H 0.23195 0.74048 0.44713 0.0
H1688 H 0.15991 0.76359 0.57467 0.0
H1689 H 0.20863 0.78925 0.46734 0.0
H1690 H 0.23898 0.74419 0.61131 0.0
H1691 H 0.21205 0.73244 0.57549 0.0
H1692 H 0.19133 0.74488 0.61642 0.0
H1693 H 0.29597 0.77509 0.48185 0.0
H1694 H 0.26642 0.78452 0.44284 0.0
H1695 H 0.27319 0.76386 0.44044 0.0
C1696 C 0.82295 0.23851 0.54652 0.0
C1697 C 0.82541 0.22699 0.5133 0.0
C1698 C 0.79222 0.24756 0.55109 0.0
C1699 C 0.76336 0.24512 0.52154 0.0
C1700 C 0.76506 0.23306 0.4893 0.0
C1701 C 0.79597 0.22411 0.48571 0.0
C1702 C 0.79122 0.26015 0.58632 0.0
C1703 C 0.73488 0.2301 0.45707 0.0
C1704 C 0.67159 0.26189 0.54224 0.0
C1705 C 0.67158 0.27472 0.51322 0.0
C1706 C 0.70177 0.25247 0.54682 0.0
C1707 C 0.73257 0.2559 0.52156 0.0
C1708 C 0.73322 0.2692 0.49371 0.0
C1709 C 0.70283 0.27847 0.49005 0.0
C1710 C 0.70024 0.23852 0.57738 0.0
C1711 C 0.76553 0.27327 0.46615 0.0
H1712 H 0.84534 0.24071 0.56839 0.0
H1713 H 0.79749 0.21523 0.46002 0.0
H1714 H 0.79156 0.27166 0.5697 0.0
H1715 H 0.76637 0.25942 0.60613 0.0
H1716 H 0.81412 0.25948 0.60971 0.0
H1717 H 0.7394 0.21965 0.436 0.0
H1718 H 0.70971 0.22859 0.4758 0.0
H1719 H 0.73153 0.24024 0.43456 0.0
H1720 H 0.64778 0.25897 0.56067 0.0
H1721 H 0.70326 0.28836 0.46764 0.0
H1722 H 0.72354 0.23834 0.60012 0.0
H1723 H 0.70117 0.22778 0.55693 0.0
H1724 H 0.67573 0.23833 0.59806 0.0
H1725 H 0.78926 0.27402 0.48805 0.0
H1726 H 0.76243 0.28445 0.44806 0.0
H1727 H 0.77058 0.26401 0.44105 0.0
C1728 C 0.07617 0.0138 0.79542 0.0
C1729 C 0.07672 0.02581 0.7636 0.0
C1730 C 0.04573 0.00464 0.80153 0.0
C1731 C 0.0154 0.00741 0.77468 0.0
C1732 C 0.01532 0.01993 0.74393 0.0
C1733 C 0.04583 0.02903 0.73903 0.0
C1734 C 0.04655 0.99162 0.83537 0.0
C1735 C 0.98366 0.02321 0.71432 0.0
C1736 C 0.95453 0.97446 0.74139 0.0
C1737 C 0.92369 0.9779 0.76582 0.0
C1738 C 0.98501 0.98363 0.74542 0.0
C1739 C 0.98498 0.99643 0.77517 0.0
C1740 C 0.95471 0.99944 0.80193 0.0
C1741 C 0.92428 0.99021 0.79668 0.0
C1742 C 0.01661 0.98008 0.71595 0.0
C1743 C 0.95394 0.01278 0.83473 0.0
H1744 H 0.09978 0.01131 0.81488 0.0
H1745 H 0.04587 0.0383 0.71444 0.0
H1746 H 0.02227 0.99179 0.8564 0.0
H1747 H 0.04718 0.98034 0.81751 0.0
H1748 H 0.07009 0.99231 0.85772 0.0
H1749 H 0.98705 0.03392 0.6941 0.0
H1750 H 0.97941 0.01334 0.691 0.0
H1751 H 0.95937 0.0244 0.73501 0.0
H1752 H 0.95446 0.96497 0.71753 0.0
H1753 H 0.9007 0.99287 0.81602 0.0
H1754 H 0.04095 0.97908 0.73662 0.0
H1755 H 0.02078 0.98973 0.69186 0.0
H1756 H 0.01317 0.96918 0.69655 0.0
H1757 H 0.97829 0.01283 0.85564 0.0
H1758 H 0.93047 0.0123 0.85723 0.0
H1759 H 0.95322 0.02388 0.81598 0.0
C1760 C 0.458 0.47542 0.73955 0.0
C1761 C 0.42746 0.47833 0.76509 0.0
C1762 C 0.48826 0.48473 0.74391 0.0
C1763 C 0.48823 0.49715 0.77505 0.0
C1764 C 0.45819 0.49966 0.8026 0.0
C1765 C 0.42804 0.4903 0.79707 0.0
C1766 C 0.51965 0.48172 0.71362 0.0
C1767 C 0.45741 0.51259 0.83679 0.0
C1768 C 0.57901 0.51441 0.79877 0.0
C1769 C 0.57961 0.52699 0.76888 0.0
C1770 C 0.54878 0.505 0.80289 0.0
C1771 C 0.51865 0.50813 0.776 0.0
C1772 C 0.51861 0.52117 0.74714 0.0
C1773 C 0.54895 0.53049 0.74418 0.0
C1774 C 0.54959 0.49138 0.8347 0.0
C1775 C 0.48713 0.52485 0.71764 0.0
H1776 H 0.45788 0.46621 0.71476 0.0
H1777 H 0.40468 0.49256 0.81723 0.0
H1778 H 0.5236 0.49175 0.69084 0.0
H1779 H 0.54414 0.48043 0.73389 0.0
H1780 H 0.51616 0.47114 0.69282 0.0
H1781 H 0.43376 0.51193 0.85894 0.0
H1782 H 0.48158 0.51226 0.858 0.0
H1783 H 0.45714 0.52393 0.81925 0.0
H1784 H 0.60245 0.51167 0.81828 0.0
H1785 H 0.54906 0.54018 0.72101 0.0
H1786 H 0.54995 0.48043 0.81515 0.0
H1787 H 0.5254 0.49124 0.8559 0.0
H1788 H 0.57323 0.49159 0.85695 0.0
H1789 H 0.48313 0.51536 0.69299 0.0
H1790 H 0.49055 0.53589 0.69891 0.0
H1791 H 0.46269 0.52567 0.73821 0.0
C1792 C 0.45479 0.97521 0.23523 0.0
C1793 C 0.42394 0.97847 0.25984 0.0
C1794 C 0.48512 0.98448 0.23934 0.0
C1795 C 0.48488 0.99725 0.26922 0.0
C1796 C 0.45448 1.00018 0.29581 0.0
C1797 C 0.42426 0.99082 0.2906 0.0
C1798 C 0.51689 0.981 0.21011 0.0
C1799 C 0.45344 0.01352 0.32863 0.0
C1800 C 0.57578 0.01435 0.2932 0.0
C1801 C 0.57715 0.02654 0.26199 0.0
C1802 C 0.54522 0.00517 0.29766 0.0
C1803 C 0.51554 0.00811 0.26982 0.0
C1804 C 0.51627 0.02077 0.23956 0.0
C1805 C 0.54694 0.02988 0.23623 0.0
C1806 C 0.54522 0.99196 0.33089 0.0
C1807 C 0.48529 0.02425 0.20901 0.0
H1808 H 0.45489 0.96572 0.21136 0.0
H1809 H 0.40067 0.99336 0.31003 0.0
H1810 H 0.52137 0.99075 0.18644 0.0
H1811 H 0.54105 0.97987 0.23107 0.0
H1812 H 0.5135 0.97019 0.19028 0.0
H1813 H 0.42942 0.01322 0.35021 0.0
H1814 H 0.47726 0.01335 0.35048 0.0
H1815 H 0.4537 0.02464 0.30993 0.0
H1816 H 0.59886 0.01176 0.31354 0.0
H1817 H 0.54765 0.03925 0.21202 0.0
H1818 H 0.5455 0.98077 0.31252 0.0
H1819 H 0.52076 0.99221 0.35157 0.0
H1820 H 0.56857 0.99232 0.35361 0.0
H1821 H 0.48147 0.01451 0.18513 0.0
H1822 H 0.48921 0.03506 0.18938 0.0
H1823 H 0.46058 0.02537 0.22891 0.0
loop_
_geom_bond_atom_site_label_1
_geom_bond_atom_site_label_2
_geom_bond_distance
_geom_bond_site_symmetry_2
_ccdc_geom_bond_type
Co0 O3 1.970 . S
Co0 N17 1.989 . S
Co0 O25 1.967 . S
Co0 O32 1.920 . S
Co1 O4 1.966 . S
Co1 N10 2.022 . S
Co1 N18 1.993 . S
Co1 O26 1.941 1_554 S
C2 O3 1.258 . S
C2 O4 1.263 1_556 S
O3 Co0 1.970 . S
O3 C2 1.258 . S
O4 Co1 1.966 . S
O4 C2 1.263 1_554 S
C5 O6 1.235 . S
C5 O32 1.289 . S
O6 C5 1.235 . S
C7 C9 1.400 . S
C7 N10 1.351 . S
C7 C12 1.501 . S
C8 C9 1.387 1_655 S
C8 N11 1.341 . S
C9 C7 1.400 . S
C9 C8 1.387 1_455 S
N10 Co1 2.022 . S
N10 C7 1.351 . S
N10 N11 1.365 1_455 S
N11 C8 1.341 . S
N11 N10 1.365 1_655 S
N11 H31 0.862 . S
C12 C7 1.501 . S
C12 H13 0.961 . S
C12 H14 0.961 . S
C12 H15 0.960 . S
H13 C12 0.961 . S
H14 C12 0.961 . S
H15 C12 0.960 . S
C16 N17 1.342 1_554 S
C16 C20 1.401 . S
C16 C21 1.499 1_554 S
N17 Co0 1.989 . S
N17 C16 1.342 1_556 S
N17 N18 1.388 1_556 S
N18 Co1 1.993 . S
N18 N17 1.388 1_554 S
N18 C19 1.346 . S
C19 N18 1.346 . S
C19 C20 1.396 . S
C19 C29 1.510 . S
C20 C16 1.401 . S
C20 C19 1.396 . S
C21 C16 1.499 1_556 S
C21 H22 0.959 . S
C21 H23 0.969 . S
C21 H24 0.961 . S
H22 C21 0.959 . S
H23 C21 0.969 . S
H24 C21 0.961 . S
O25 Co0 1.967 . S
O25 C33 1.258 . S
O26 Co1 1.941 1_556 S
O26 C33 1.266 . S
H27 C29 0.959 1_655 S
H28 C29 0.961 . S
C29 C19 1.510 . S
C29 H27 0.959 1_455 S
C29 H28 0.961 . S
C29 H30 0.960 . S
H30 C29 0.960 . S
H31 N11 0.862 . S
O32 Co0 1.920 . S
O32 C5 1.289 . S
C33 O25 1.258 . S
C33 O26 1.266 . S
Co34 O37 1.970 . S
Co34 N51 1.989 . S
Co34 O59 1.967 . S
Co34 O66 1.920 . S
Co35 O38 1.966 . S
Co35 N44 2.022 . S
Co35 N52 1.993 . S
Co35 O60 1.941 1_554 S
C36 O37 1.258 . S
C36 O38 1.263 1_556 S
O37 Co34 1.970 . S
O37 C36 1.258 . S
O38 Co35 1.966 . S
O38 C36 1.263 1_554 S
C39 O40 1.235 . S
C39 O66 1.289 . S
O40 C39 1.235 . S
C41 C43 1.400 . S
C41 N44 1.351 . S
C41 C46 1.501 . S
C42 C43 1.387 1_455 S
C42 N45 1.341 . S
C43 C41 1.400 . S
C43 C42 1.387 1_655 S
N44 Co35 2.022 . S
N44 C41 1.351 . S
N44 N45 1.365 1_655 S
N45 C42 1.341 . S
N45 N44 1.365 1_455 S
N45 H65 0.862 . S
C46 C41 1.501 . S
C46 H47 0.961 . S
C46 H48 0.961 . S
C46 H49 0.960 . S
H47 C46 0.961 . S
H48 C46 0.961 . S
H49 C46 0.960 . S
C50 N51 1.342 1_554 S
C50 C54 1.401 . S
C50 C55 1.499 1_554 S
N51 Co34 1.989 . S
N51 C50 1.342 1_556 S
N51 N52 1.388 1_556 S
N52 Co35 1.993 . S
N52 N51 1.388 1_554 S
N52 C53 1.346 . S
C53 N52 1.346 . S
C53 C54 1.396 . S
C53 C63 1.510 . S
C54 C50 1.401 . S
C54 C53 1.396 . S
C55 C50 1.499 1_556 S
C55 H56 0.959 . S
C55 H57 0.969 . S
C55 H58 0.961 . S
H56 C55 0.959 . S
H57 C55 0.969 . S
H58 C55 0.961 . S
O59 Co34 1.967 . S
O59 C67 1.258 . S
O60 Co35 1.941 1_556 S
O60 C67 1.266 . S
H61 C63 0.959 1_455 S
H62 C63 0.961 . S
C63 C53 1.510 . S
C63 H61 0.959 1_655 S
C63 H62 0.961 . S
C63 H64 0.960 . S
H64 C63 0.960 . S
H65 N45 0.862 . S
O66 Co34 1.920 . S
O66 C39 1.289 . S
C67 O59 1.258 . S
C67 O60 1.266 . S
Co68 O71 1.970 . S
Co68 N85 1.989 . S
Co68 O93 1.967 . S
Co68 O100 1.920 . S
Co69 O72 1.966 . S
Co69 N78 2.022 . S
Co69 N86 1.993 . S
Co69 O94 1.941 . S
C70 O71 1.258 . S
C70 O72 1.263 . S
O71 Co68 1.970 . S
O71 C70 1.258 . S
O72 Co69 1.966 . S
O72 C70 1.263 . S
C73 O74 1.235 . S
C73 O100 1.289 . S
O74 C73 1.235 . S
C75 C77 1.400 . S
C75 N78 1.351 . S
C75 C80 1.501 . S
C76 C77 1.387 . S
C76 N79 1.341 . S
C77 C75 1.400 . S
C77 C76 1.387 . S
N78 Co69 2.022 . S
N78 C75 1.351 . S
N78 N79 1.365 . S
N79 C76 1.341 . S
N79 N78 1.365 . S
N79 H99 0.862 . S
C80 C75 1.501 . S
C80 H81 0.961 . S
C80 H82 0.961 . S
C80 H83 0.960 . S
H81 C80 0.961 . S
H82 C80 0.961 . S
H83 C80 0.960 . S
C84 N85 1.342 . S
C84 C88 1.401 . S
C84 C89 1.499 . S
N85 Co68 1.989 . S
N85 C84 1.342 . S
N85 N86 1.388 . S
N86 Co69 1.993 . S
N86 N85 1.388 . S
N86 C87 1.346 . S
C87 N86 1.346 . S
C87 C88 1.396 . S
C87 C97 1.510 . S
C88 C84 1.401 . S
C88 C87 1.396 . S
C89 C84 1.499 . S
C89 H90 0.959 . S
C89 H91 0.960 . S
C89 H92 0.961 . S
H90 C89 0.959 . S
H91 C89 0.960 . S
H92 C89 0.961 . S
O93 Co68 1.967 . S
O93 C101 1.258 . S
O94 Co69 1.941 . S
O94 C101 1.266 . S
H95 C97 0.959 . S
H96 C97 0.961 . S
C97 C87 1.510 . S
C97 H95 0.959 . S
C97 H96 0.961 . S
C97 H98 0.960 . S
H98 C97 0.960 . S
H99 N79 0.862 . S
O100 Co68 1.920 . S
O100 C73 1.289 . S
C101 O93 1.258 . S
C101 O94 1.266 . S
Co102 O105 1.970 . S
Co102 N119 1.989 . S
Co102 O127 1.967 . S
Co102 O134 1.920 . S
Co103 O106 1.966 . S
Co103 N112 2.022 . S
Co103 N120 1.993 . S
Co103 O128 1.941 . S
C104 O105 1.258 . S
C104 O106 1.263 . S
O105 Co102 1.970 . S
O105 C104 1.258 . S
O106 Co103 1.966 . S
O106 C104 1.263 . S
C107 O108 1.235 . S
C107 O134 1.289 . S
O108 C107 1.235 . S
C109 C111 1.400 . S
C109 N112 1.351 . S
C109 C114 1.501 . S
C110 C111 1.387 . S
C110 N113 1.341 . S
C111 C109 1.400 . S
C111 C110 1.387 . S
N112 Co103 2.022 . S
N112 C109 1.351 . S
N112 N113 1.365 . S
N113 C110 1.341 . S
N113 N112 1.365 . S
N113 H133 0.862 . S
C114 C109 1.501 . S
C114 H115 0.961 . S
C114 H116 0.961 . S
C114 H117 0.960 . S
H115 C114 0.961 . S
H116 C114 0.961 . S
H117 C114 0.960 . S
C118 N119 1.342 . S
C118 C122 1.401 . S
C118 C123 1.499 . S
N119 Co102 1.989 . S
N119 C118 1.342 . S
N119 N120 1.388 . S
N120 Co103 1.993 . S
N120 N119 1.388 . S
N120 C121 1.346 . S
C121 N120 1.346 . S
C121 C122 1.396 . S
C121 C131 1.510 . S
C122 C118 1.401 . S
C122 C121 1.396 . S
C123 C118 1.499 . S
C123 H124 0.959 . S
C123 H125 0.960 . S
C123 H126 0.961 . S
H124 C123 0.959 . S
H125 C123 0.960 . S
H126 C123 0.961 . S
O127 Co102 1.967 . S
O127 C135 1.258 . S
O128 Co103 1.941 . S
O128 C135 1.266 . S
H129 C131 0.959 . S
H130 C131 0.961 . S
C131 C121 1.510 . S
C131 H129 0.959 . S
C131 H130 0.961 . S
C131 H132 0.960 . S
H132 C131 0.960 . S
H133 N113 0.862 . S
O134 Co102 1.920 . S
O134 C107 1.289 . S
C135 O127 1.258 . S
C135 O128 1.266 . S
Co136 O139 1.970 . S
Co136 N153 1.989 . S
Co136 O161 1.967 . S
Co136 O168 1.920 . S
Co137 O140 1.966 . S
Co137 N146 2.022 . S
Co137 N154 1.993 . S
Co137 O162 1.941 . S
C138 O139 1.258 . S
C138 O140 1.263 . S
O139 Co136 1.970 . S
O139 C138 1.258 . S
O140 Co137 1.966 . S
O140 C138 1.263 . S
C141 O142 1.235 . S
C141 O168 1.289 . S
O142 C141 1.235 . S
C143 C145 1.400 . S
C143 N146 1.351 . S
C143 C148 1.501 . S
C144 C145 1.387 1_655 S
C144 N147 1.341 . S
C145 C143 1.400 . S
C145 C144 1.387 1_455 S
N146 Co137 2.022 . S
N146 C143 1.351 . S
N146 N147 1.365 1_455 S
N147 C144 1.341 . S
N147 N146 1.365 1_655 S
N147 H167 0.862 . S
C148 C143 1.501 . S
C148 H149 0.961 . S
C148 H150 0.961 . S
C148 H151 0.960 . S
H149 C148 0.961 . S
H150 C148 0.961 . S
H151 C148 0.960 . S
C152 N153 1.342 . S
C152 C156 1.401 . S
C152 C157 1.499 . S
N153 Co136 1.989 . S
N153 C152 1.342 . S
N153 N154 1.388 . S
N154 Co137 1.993 . S
N154 N153 1.388 . S
N154 C155 1.346 . S
C155 N154 1.346 . S
C155 C156 1.396 . S
C155 C165 1.510 . S
C156 C152 1.401 . S
C156 C155 1.396 . S
C157 C152 1.499 . S
C157 H158 0.959 . S
C157 H159 0.960 . S
C157 H160 0.961 . S
H158 C157 0.959 . S
H159 C157 0.960 . S
H160 C157 0.961 . S
O161 Co136 1.967 . S
O161 C169 1.258 . S
O162 Co137 1.941 . S
O162 C169 1.266 . S
H163 C165 0.959 1_655 S
H164 C165 0.961 . S
C165 C155 1.510 . S
C165 H163 0.959 1_455 S
C165 H164 0.961 . S
C165 H166 0.960 . S
H166 C165 0.960 . S
H167 N147 0.862 . S
O168 Co136 1.920 . S
O168 C141 1.289 . S
C169 O161 1.258 . S
C169 O162 1.266 . S
Co170 O173 1.970 . S
Co170 N187 1.989 . S
Co170 O195 1.967 . S
Co170 O202 1.920 . S
Co171 O174 1.966 . S
Co171 N180 2.022 . S
Co171 N188 1.993 . S
Co171 O196 1.941 . S
C172 O173 1.258 . S
C172 O174 1.263 . S
O173 Co170 1.970 . S
O173 C172 1.258 . S
O174 Co171 1.966 . S
O174 C172 1.263 . S
C175 O176 1.235 . S
C175 O202 1.289 . S
O176 C175 1.235 . S
C177 C179 1.400 . S
C177 N180 1.351 . S
C177 C182 1.501 . S
C178 C179 1.387 1_455 S
C178 N181 1.341 . S
C179 C177 1.400 . S
C179 C178 1.387 1_655 S
N180 Co171 2.022 . S
N180 C177 1.351 . S
N180 N181 1.365 1_655 S
N181 C178 1.341 . S
N181 N180 1.365 1_455 S
N181 H201 0.862 . S
C182 C177 1.501 . S
C182 H183 0.961 . S
C182 H184 0.961 . S
C182 H185 0.960 . S
H183 C182 0.961 . S
H184 C182 0.961 . S
H185 C182 0.960 . S
C186 N187 1.342 . S
C186 C190 1.401 . S
C186 C191 1.499 . S
N187 Co170 1.989 . S
N187 C186 1.342 . S
N187 N188 1.388 . S
N188 Co171 1.993 . S
N188 N187 1.388 . S
N188 C189 1.346 . S
C189 N188 1.346 . S
C189 C190 1.396 . S
C189 C199 1.510 . S
C190 C186 1.401 . S
C190 C189 1.396 . S
C191 C186 1.499 . S
C191 H192 0.959 . S
C191 H193 0.960 . S
C191 H194 0.961 . S
H192 C191 0.959 . S
H193 C191 0.960 . S
H194 C191 0.961 . S
O195 Co170 1.967 . S
O195 C203 1.258 . S
O196 Co171 1.941 . S
O196 C203 1.266 . S
H197 C199 0.959 1_455 S
H198 C199 0.961 . S
C199 C189 1.510 . S
C199 H197 0.959 1_655 S
C199 H198 0.961 . S
C199 H200 0.960 . S
H200 C199 0.960 . S
H201 N181 0.862 . S
O202 Co170 1.920 . S
O202 C175 1.289 . S
C203 O195 1.258 . S
C203 O196 1.266 . S
Co204 O207 1.970 . S
Co204 N221 1.989 . S
Co204 O229 1.967 . S
Co204 O236 1.920 . S
Co205 O208 1.966 . S
Co205 N214 2.022 . S
Co205 N222 1.993 . S
Co205 O230 1.941 . S
C206 O207 1.258 . S
C206 O208 1.263 . S
O207 Co204 1.970 . S
O207 C206 1.258 . S
O208 Co205 1.966 . S
O208 C206 1.263 . S
C209 O210 1.235 . S
C209 O236 1.289 . S
O210 C209 1.235 . S
C211 C213 1.400 . S
C211 N214 1.351 . S
C211 C216 1.501 . S
C212 C213 1.387 . S
C212 N215 1.341 . S
C213 C211 1.400 . S
C213 C212 1.387 . S
N214 Co205 2.022 . S
N214 C211 1.351 . S
N214 N215 1.365 . S
N215 C212 1.341 . S
N215 N214 1.365 . S
N215 H235 0.862 . S
C216 C211 1.501 . S
C216 H217 0.961 . S
C216 H218 0.961 . S
C216 H219 0.960 . S
H217 C216 0.961 . S
H218 C216 0.961 . S
H219 C216 0.960 . S
C220 N221 1.342 . S
C220 C224 1.401 . S
C220 C225 1.499 . S
N221 Co204 1.989 . S
N221 C220 1.342 . S
N221 N222 1.388 . S
N222 Co205 1.993 . S
N222 N221 1.388 . S
N222 C223 1.346 . S
C223 N222 1.346 . S
C223 C224 1.396 . S
C223 C233 1.510 . S
C224 C220 1.401 . S
C224 C223 1.396 . S
C225 C220 1.499 . S
C225 H226 0.959 . S
C225 H227 0.960 . S
C225 H228 0.961 . S
H226 C225 0.959 . S
H227 C225 0.960 . S
H228 C225 0.961 . S
O229 Co204 1.967 . S
O229 C237 1.258 . S
O230 Co205 1.941 . S
O230 C237 1.266 . S
H231 C233 0.959 . S
H232 C233 0.961 . S
C233 C223 1.510 . S
C233 H231 0.959 . S
C233 H232 0.961 . S
C233 H234 0.960 . S
H234 C233 0.960 . S
H235 N215 0.862 . S
O236 Co204 1.920 . S
O236 C209 1.289 . S
C237 O229 1.258 . S
C237 O230 1.266 . S
Co238 O241 1.970 . S
Co238 N255 1.989 . S
Co238 O263 1.967 . S
Co238 O270 1.920 . S
Co239 O242 1.966 . S
Co239 N248 2.022 . S
Co239 N256 1.993 . S
Co239 O264 1.941 . S
C240 O241 1.258 . S
C240 O242 1.263 . S
O241 Co238 1.970 . S
O241 C240 1.258 . S
O242 Co239 1.966 . S
O242 C240 1.263 . S
C243 O244 1.235 . S
C243 O270 1.289 . S
O244 C243 1.235 . S
C245 C247 1.400 . S
C245 N248 1.351 . S
C245 C250 1.501 . S
C246 C247 1.387 . S
C246 N249 1.341 . S
C247 C245 1.400 . S
C247 C246 1.387 . S
N248 Co239 2.022 . S
N248 C245 1.351 . S
N248 N249 1.365 . S
N249 C246 1.341 . S
N249 N248 1.365 . S
N249 H269 0.862 . S
C250 C245 1.501 . S
C250 H251 0.961 . S
C250 H252 0.961 . S
C250 H253 0.960 . S
H251 C250 0.961 . S
H252 C250 0.961 . S
H253 C250 0.960 . S
C254 N255 1.342 . S
C254 C258 1.401 . S
C254 C259 1.499 . S
N255 Co238 1.989 . S
N255 C254 1.342 . S
N255 N256 1.388 . S
N256 Co239 1.993 . S
N256 N255 1.388 . S
N256 C257 1.346 . S
C257 N256 1.346 . S
C257 C258 1.396 . S
C257 C267 1.510 . S
C258 C254 1.401 . S
C258 C257 1.396 . S
C259 C254 1.499 . S
C259 H260 0.959 . S
C259 H261 0.960 . S
C259 H262 0.961 . S
H260 C259 0.959 . S
H261 C259 0.960 . S
H262 C259 0.961 . S
O263 Co238 1.967 . S
O263 C271 1.258 . S
O264 Co239 1.941 . S
O264 C271 1.266 . S
H265 C267 0.959 . S
H266 C267 0.961 . S
C267 C257 1.510 . S
C267 H265 0.959 . S
C267 H266 0.961 . S
C267 H268 0.960 . S
H268 C267 0.960 . S
H269 N249 0.862 . S
O270 Co238 1.920 . S
O270 C243 1.289 . S
C271 O263 1.258 . S
C271 O264 1.266 . S
Co272 O275 1.970 . S
Co272 N289 1.989 . S
Co272 O297 1.967 . S
Co272 O304 1.920 . S
Co273 O276 1.966 . S
Co273 N282 2.022 . S
Co273 N290 1.993 . S
Co273 O298 1.941 . S
C274 O275 1.258 . S
C274 O276 1.263 . S
O275 Co272 1.970 . S
O275 C274 1.258 . S
O276 Co273 1.966 . S
O276 C274 1.263 . S
C277 O278 1.235 . S
C277 O304 1.289 . S
O278 C277 1.235 . S
C279 C281 1.400 . S
C279 N282 1.351 . S
C279 C284 1.501 . S
C280 C281 1.387 . S
C280 N283 1.341 . S
C281 C279 1.400 . S
C281 C280 1.387 . S
N282 Co273 2.022 . S
N282 C279 1.351 . S
N282 N283 1.365 . S
N283 C280 1.341 . S
N283 N282 1.365 . S
N283 H303 0.862 . S
C284 C279 1.501 . S
C284 H285 0.961 . S
C284 H286 0.961 . S
C284 H287 0.960 . S
H285 C284 0.961 . S
H286 C284 0.961 . S
H287 C284 0.960 . S
C288 N289 1.342 . S
C288 C292 1.401 . S
C288 C293 1.499 . S
N289 Co272 1.989 . S
N289 C288 1.342 . S
N289 N290 1.388 . S
N290 Co273 1.993 . S
N290 N289 1.388 . S
N290 C291 1.346 . S
C291 N290 1.346 . S
C291 C292 1.396 . S
C291 C301 1.510 . S
C292 C288 1.401 . S
C292 C291 1.396 . S
C293 C288 1.499 . S
C293 H294 0.959 . S
C293 H295 0.960 . S
C293 H296 0.961 . S
H294 C293 0.959 . S
H295 C293 0.960 . S
H296 C293 0.961 . S
O297 Co272 1.967 . S
O297 C305 1.258 . S
O298 Co273 1.941 . S
O298 C305 1.266 . S
H299 C301 0.959 . S
H300 C301 0.961 . S
C301 C291 1.510 . S
C301 H299 0.959 . S
C301 H300 0.961 . S
C301 H302 0.960 . S
H302 C301 0.960 . S
H303 N283 0.862 . S
O304 Co272 1.920 . S
O304 C277 1.289 . S
C305 O297 1.258 . S
C305 O298 1.266 . S
Co306 O309 1.970 . S
Co306 N323 1.989 . S
Co306 O331 1.967 . S
Co306 O338 1.920 . S
Co307 O310 1.966 . S
Co307 N316 2.022 . S
Co307 N324 1.993 . S
Co307 O332 1.941 . S
C308 O309 1.258 . S
C308 O310 1.263 . S
O309 Co306 1.970 . S
O309 C308 1.258 . S
O310 Co307 1.966 . S
O310 C308 1.263 . S
C311 O312 1.235 . S
C311 O338 1.289 . S
O312 C311 1.235 . S
C313 C315 1.400 . S
C313 N316 1.351 . S
C313 C318 1.501 . S
C314 C315 1.387 . S
C314 N317 1.341 . S
C315 C313 1.400 . S
C315 C314 1.387 . S
N316 Co307 2.022 . S
N316 C313 1.351 . S
N316 N317 1.365 . S
N317 C314 1.341 . S
N317 N316 1.365 . S
N317 H337 0.862 . S
C318 C313 1.501 . S
C318 H319 0.961 . S
C318 H320 0.961 . S
C318 H321 0.960 . S
H319 C318 0.961 . S
H320 C318 0.961 . S
H321 C318 0.960 . S
C322 N323 1.342 . S
C322 C326 1.401 . S
C322 C327 1.499 . S
N323 Co306 1.989 . S
N323 C322 1.342 . S
N323 N324 1.388 . S
N324 Co307 1.993 . S
N324 N323 1.388 . S
N324 C325 1.346 . S
C325 N324 1.346 . S
C325 C326 1.396 . S
C325 C335 1.510 . S
C326 C322 1.401 . S
C326 C325 1.396 . S
C327 C322 1.499 . S
C327 H328 0.959 . S
C327 H329 0.960 . S
C327 H330 0.961 . S
H328 C327 0.959 . S
H329 C327 0.960 . S
H330 C327 0.961 . S
O331 Co306 1.967 . S
O331 C339 1.258 . S
O332 Co307 1.941 . S
O332 C339 1.266 . S
H333 C335 0.959 . S
H334 C335 0.961 . S
C335 C325 1.510 . S
C335 H333 0.959 . S
C335 H334 0.961 . S
C335 H336 0.960 . S
H336 C335 0.960 . S
H337 N317 0.862 . S
O338 Co306 1.920 . S
O338 C311 1.289 . S
C339 O331 1.258 . S
C339 O332 1.266 . S
Co340 O343 1.970 . S
Co340 N357 1.989 . S
Co340 O365 1.967 . S
Co340 O372 1.920 . S
Co341 O344 1.966 . S
Co341 N350 2.022 . S
Co341 N358 1.993 . S
Co341 O366 1.941 . S
C342 O343 1.258 . S
C342 O344 1.263 . S
O343 Co340 1.970 . S
O343 C342 1.258 . S
O344 Co341 1.966 . S
O344 C342 1.263 . S
C345 O346 1.235 . S
C345 O372 1.289 . S
O346 C345 1.235 . S
C347 C349 1.400 . S
C347 N350 1.351 . S
C347 C352 1.501 . S
C348 C349 1.387 . S
C348 N351 1.341 . S
C349 C347 1.400 . S
C349 C348 1.387 . S
N350 Co341 2.022 . S
N350 C347 1.351 . S
N350 N351 1.365 . S
N351 C348 1.341 . S
N351 N350 1.365 . S
N351 H371 0.862 . S
C352 C347 1.501 . S
C352 H353 0.961 . S
C352 H354 0.961 . S
C352 H355 0.960 . S
H353 C352 0.961 . S
H354 C352 0.961 . S
H355 C352 0.960 . S
C356 N357 1.342 . S
C356 C360 1.401 . S
C356 C361 1.499 . S
N357 Co340 1.989 . S
N357 C356 1.342 . S
N357 N358 1.388 . S
N358 Co341 1.993 . S
N358 N357 1.388 . S
N358 C359 1.346 . S
C359 N358 1.346 . S
C359 C360 1.396 . S
C359 C369 1.510 . S
C360 C356 1.401 . S
C360 C359 1.396 . S
C361 C356 1.499 . S
C361 H362 0.959 . S
C361 H363 0.960 . S
C361 H364 0.961 . S
H362 C361 0.959 . S
H363 C361 0.960 . S
H364 C361 0.961 . S
O365 Co340 1.967 . S
O365 C373 1.258 . S
O366 Co341 1.941 . S
O366 C373 1.266 . S
H367 C369 0.959 . S
H368 C369 0.961 . S
C369 C359 1.510 . S
C369 H367 0.959 . S
C369 H368 0.961 . S
C369 H370 0.960 . S
H370 C369 0.960 . S
H371 N351 0.862 . S
O372 Co340 1.920 . S
O372 C345 1.289 . S
C373 O365 1.258 . S
C373 O366 1.266 . S
Co374 O377 1.970 . S
Co374 N391 1.989 . S
Co374 O399 1.967 . S
Co374 O406 1.920 . S
Co375 O378 1.966 . S
Co375 N384 2.022 . S
Co375 N392 1.993 . S
Co375 O400 1.941 . S
C376 O377 1.258 . S
C376 O378 1.263 . S
O377 Co374 1.970 . S
O377 C376 1.258 . S
O378 Co375 1.966 . S
O378 C376 1.263 . S
C379 O380 1.235 . S
C379 O406 1.289 . S
O380 C379 1.235 . S
C381 C383 1.400 . S
C381 N384 1.351 . S
C381 C386 1.501 . S
C382 C383 1.387 . S
C382 N385 1.341 . S
C383 C381 1.400 . S
C383 C382 1.387 . S
N384 Co375 2.022 . S
N384 C381 1.351 . S
N384 N385 1.365 . S
N385 C382 1.341 . S
N385 N384 1.365 . S
N385 H405 0.862 . S
C386 C381 1.501 . S
C386 H387 0.961 . S
C386 H388 0.961 . S
C386 H389 0.960 . S
H387 C386 0.961 . S
H388 C386 0.961 . S
H389 C386 0.960 . S
C390 N391 1.342 . S
C390 C394 1.401 . S
C390 C395 1.499 . S
N391 Co374 1.989 . S
N391 C390 1.342 . S
N391 N392 1.388 . S
N392 Co375 1.993 . S
N392 N391 1.388 . S
N392 C393 1.346 . S
C393 N392 1.346 . S
C393 C394 1.396 . S
C393 C403 1.510 . S
C394 C390 1.401 . S
C394 C393 1.396 . S
C395 C390 1.499 . S
C395 H396 0.959 . S
C395 H397 0.960 . S
C395 H398 0.961 . S
H396 C395 0.959 . S
H397 C395 0.960 . S
H398 C395 0.961 . S
O399 Co374 1.967 . S
O399 C407 1.258 . S
O400 Co375 1.941 . S
O400 C407 1.266 . S
H401 C403 0.959 . S
H402 C403 0.961 . S
C403 C393 1.510 . S
C403 H401 0.959 . S
C403 H402 0.961 . S
C403 H404 0.960 . S
H404 C403 0.960 . S
H405 N385 0.862 . S
O406 Co374 1.920 . S
O406 C379 1.289 . S
C407 O399 1.258 . S
C407 O400 1.266 . S
Co408 O411 1.970 . S
Co408 N425 1.989 . S
Co408 O433 1.967 . S
Co408 O440 1.920 . S
Co409 O412 1.966 . S
Co409 N418 2.022 . S
Co409 N426 1.993 . S
Co409 O434 1.941 1_554 S
C410 O411 1.258 . S
C410 O412 1.263 1_556 S
O411 Co408 1.970 . S
O411 C410 1.258 . S
O412 Co409 1.966 . S
O412 C410 1.263 1_554 S
C413 O414 1.235 . S
C413 O440 1.289 . S
O414 C413 1.235 . S
C415 C417 1.400 . S
C415 N418 1.351 . S
C415 C420 1.501 . S
C416 C417 1.387 . S
C416 N419 1.341 . S
C417 C415 1.400 . S
C417 C416 1.387 . S
N418 Co409 2.022 . S
N418 C415 1.351 . S
N418 N419 1.365 . S
N419 C416 1.341 . S
N419 N418 1.365 . S
N419 H439 0.862 . S
C420 C415 1.501 . S
C420 H421 0.961 . S
C420 H422 0.961 . S
C420 H423 0.960 . S
H421 C420 0.961 . S
H422 C420 0.961 . S
H423 C420 0.960 . S
C424 N425 1.342 1_554 S
C424 C428 1.401 . S
C424 C429 1.499 1_554 S
N425 Co408 1.989 . S
N425 C424 1.342 1_556 S
N425 N426 1.388 1_556 S
N426 Co409 1.993 . S
N426 N425 1.388 1_554 S
N426 C427 1.346 . S
C427 N426 1.346 . S
C427 C428 1.396 . S
C427 C437 1.510 . S
C428 C424 1.401 . S
C428 C427 1.396 . S
C429 C424 1.499 1_556 S
C429 H430 0.959 . S
C429 H431 0.969 . S
C429 H432 0.961 . S
H430 C429 0.959 . S
H431 C429 0.969 . S
H432 C429 0.961 . S
O433 Co408 1.967 . S
O433 C441 1.258 . S
O434 Co409 1.941 1_556 S
O434 C441 1.266 . S
H435 C437 0.959 . S
H436 C437 0.961 . S
C437 C427 1.510 . S
C437 H435 0.959 . S
C437 H436 0.961 . S
C437 H438 0.960 . S
H438 C437 0.960 . S
H439 N419 0.862 . S
O440 Co408 1.920 . S
O440 C413 1.289 . S
C441 O433 1.258 . S
C441 O434 1.266 . S
Co442 O445 1.970 . S
Co442 N459 1.989 . S
Co442 O467 1.967 . S
Co442 O474 1.920 . S
Co443 O446 1.966 . S
Co443 N452 2.022 . S
Co443 N460 1.993 . S
Co443 O468 1.941 1_554 S
C444 O445 1.258 . S
C444 O446 1.263 1_556 S
O445 Co442 1.970 . S
O445 C444 1.258 . S
O446 Co443 1.966 . S
O446 C444 1.263 1_554 S
C447 O448 1.235 . S
C447 O474 1.289 . S
O448 C447 1.235 . S
C449 C451 1.400 . S
C449 N452 1.351 . S
C449 C454 1.501 . S
C450 C451 1.387 . S
C450 N453 1.341 . S
C451 C449 1.400 . S
C451 C450 1.387 . S
N452 Co443 2.022 . S
N452 C449 1.351 . S
N452 N453 1.365 . S
N453 C450 1.341 . S
N453 N452 1.365 . S
N453 H473 0.862 . S
C454 C449 1.501 . S
C454 H455 0.961 . S
C454 H456 0.961 . S
C454 H457 0.960 . S
H455 C454 0.961 . S
H456 C454 0.961 . S
H457 C454 0.960 . S
C458 N459 1.342 1_554 S
C458 C462 1.401 . S
C458 C463 1.499 1_554 S
N459 Co442 1.989 . S
N459 C458 1.342 1_556 S
N459 N460 1.388 1_556 S
N460 Co443 1.993 . S
N460 N459 1.388 1_554 S
N460 C461 1.346 . S
C461 N460 1.346 . S
C461 C462 1.396 . S
C461 C471 1.510 . S
C462 C458 1.401 . S
C462 C461 1.396 . S
C463 C458 1.499 1_556 S
C463 H464 0.959 . S
C463 H465 0.969 . S
C463 H466 0.961 . S
H464 C463 0.959 . S
H465 C463 0.969 . S
H466 C463 0.961 . S
O467 Co442 1.967 . S
O467 C475 1.258 . S
O468 Co443 1.941 1_556 S
O468 C475 1.266 . S
H469 C471 0.959 . S
H470 C471 0.961 . S
C471 C461 1.510 . S
C471 H469 0.959 . S
C471 H470 0.961 . S
C471 H472 0.960 . S
H472 C471 0.960 . S
H473 N453 0.862 . S
O474 Co442 1.920 . S
O474 C447 1.289 . S
C475 O467 1.258 . S
C475 O468 1.266 . S
Co476 O479 1.970 . S
Co476 N493 1.989 . S
Co476 O501 1.967 . S
Co476 O508 1.920 . S
Co477 O480 1.966 . S
Co477 N486 2.022 . S
Co477 N494 1.993 . S
Co477 O502 1.941 . S
C478 O479 1.258 . S
C478 O480 1.263 . S
O479 Co476 1.970 . S
O479 C478 1.258 . S
O480 Co477 1.966 . S
O480 C478 1.263 . S
C481 O482 1.235 . S
C481 O508 1.289 . S
O482 C481 1.235 . S
C483 C485 1.400 . S
C483 N486 1.351 . S
C483 C488 1.501 . S
C484 C485 1.387 . S
C484 N487 1.341 . S
C485 C483 1.400 . S
C485 C484 1.387 . S
N486 Co477 2.022 . S
N486 C483 1.351 . S
N486 N487 1.365 . S
N487 C484 1.341 . S
N487 N486 1.365 . S
N487 H507 0.862 . S
C488 C483 1.501 . S
C488 H489 0.961 . S
C488 H490 0.961 . S
C488 H491 0.960 . S
H489 C488 0.961 . S
H490 C488 0.961 . S
H491 C488 0.960 . S
C492 N493 1.342 . S
C492 C496 1.401 . S
C492 C497 1.499 . S
N493 Co476 1.989 . S
N493 C492 1.342 . S
N493 N494 1.388 . S
N494 Co477 1.993 . S
N494 N493 1.388 . S
N494 C495 1.346 . S
C495 N494 1.346 . S
C495 C496 1.396 . S
C495 C505 1.510 . S
C496 C492 1.401 . S
C496 C495 1.396 . S
C497 C492 1.499 . S
C497 H498 0.959 . S
C497 H499 0.960 . S
C497 H500 0.961 . S
H498 C497 0.959 . S
H499 C497 0.960 . S
H500 C497 0.961 . S
O501 Co476 1.967 . S
O501 C509 1.258 . S
O502 Co477 1.941 . S
O502 C509 1.266 . S
H503 C505 0.959 . S
H504 C505 0.961 . S
C505 C495 1.510 . S
C505 H503 0.959 . S
C505 H504 0.961 . S
C505 H506 0.960 . S
H506 C505 0.960 . S
H507 N487 0.862 . S
O508 Co476 1.920 . S
O508 C481 1.289 . S
C509 O501 1.258 . S
C509 O502 1.266 . S
Co510 O513 1.970 . S
Co510 N527 1.989 . S
Co510 O535 1.967 . S
Co510 O542 1.920 . S
Co511 O514 1.966 . S
Co511 N520 2.022 . S
Co511 N528 1.993 . S
Co511 O536 1.941 . S
C512 O513 1.258 . S
C512 O514 1.263 . S
O513 Co510 1.970 . S
O513 C512 1.258 . S
O514 Co511 1.966 . S
O514 C512 1.263 . S
C515 O516 1.235 . S
C515 O542 1.289 . S
O516 C515 1.235 . S
C517 C519 1.400 . S
C517 N520 1.351 . S
C517 C522 1.501 . S
C518 C519 1.387 . S
C518 N521 1.341 . S
C519 C517 1.400 . S
C519 C518 1.387 . S
N520 Co511 2.022 . S
N520 C517 1.351 . S
N520 N521 1.365 . S
N521 C518 1.341 . S
N521 N520 1.365 . S
N521 H541 0.862 . S
C522 C517 1.501 . S
C522 H523 0.961 . S
C522 H524 0.961 . S
C522 H525 0.960 . S
H523 C522 0.961 . S
H524 C522 0.961 . S
H525 C522 0.960 . S
C526 N527 1.342 . S
C526 C530 1.401 . S
C526 C531 1.499 . S
N527 Co510 1.989 . S
N527 C526 1.342 . S
N527 N528 1.388 . S
N528 Co511 1.993 . S
N528 N527 1.388 . S
N528 C529 1.346 . S
C529 N528 1.346 . S
C529 C530 1.396 . S
C529 C539 1.510 . S
C530 C526 1.401 . S
C530 C529 1.396 . S
C531 C526 1.499 . S
C531 H532 0.959 . S
C531 H533 0.960 . S
C531 H534 0.961 . S
H532 C531 0.959 . S
H533 C531 0.960 . S
H534 C531 0.961 . S
O535 Co510 1.967 . S
O535 C543 1.258 . S
O536 Co511 1.941 . S
O536 C543 1.266 . S
H537 C539 0.959 . S
H538 C539 0.961 . S
C539 C529 1.510 . S
C539 H537 0.959 . S
C539 H538 0.961 . S
C539 H540 0.960 . S
H540 C539 0.960 . S
H541 N521 0.862 . S
O542 Co510 1.920 . S
O542 C515 1.289 . S
C543 O535 1.258 . S
C543 O536 1.266 . S
C544 C545 1.391 . S
C544 C546 1.394 . S
C544 H560 0.931 . S
C545 C544 1.391 . S
C545 C549 1.376 . S
C546 C544 1.394 . S
C546 C547 1.369 . S
C546 C550 1.531 . S
C547 C546 1.369 . S
C547 C548 1.410 . S
C547 C555 1.503 . S
C548 C547 1.410 . S
C548 C549 1.392 . S
C548 C551 1.511 . S
C549 C545 1.376 . S
C549 C548 1.392 . S
C549 H561 0.929 . S
C550 C546 1.531 . S
C550 H562 0.960 . S
C550 H563 0.962 . S
C550 H564 0.960 . S
C551 C548 1.511 . S
C551 H565 0.961 . S
C551 H566 0.961 . S
C551 H567 0.961 . S
C552 C553 1.370 . S
C552 C554 1.363 . S
C552 H568 0.931 . S
C553 C552 1.370 . S
C553 C557 1.408 . S
C554 C552 1.363 . S
C554 C555 1.370 . S
C554 C558 1.524 . S
C555 C547 1.503 . S
C555 C554 1.370 . S
C555 C556 1.403 . S
C556 C555 1.403 . S
C556 C557 1.404 . S
C556 C559 1.539 . S
C557 C553 1.408 . S
C557 C556 1.404 . S
C557 H569 0.930 . S
C558 C554 1.524 . S
C558 H570 0.956 . S
C558 H571 0.961 . S
C558 H572 0.961 . S
C559 C556 1.539 . S
C559 H573 0.958 . S
C559 H574 0.961 . S
C559 H575 0.960 . S
H560 C544 0.931 . S
H561 C549 0.929 . S
H562 C550 0.960 . S
H563 C550 0.962 . S
H564 C550 0.960 . S
H565 C551 0.961 . S
H566 C551 0.961 . S
H567 C551 0.961 . S
H568 C552 0.931 . S
H569 C557 0.930 . S
H570 C558 0.956 . S
H571 C558 0.961 . S
H572 C558 0.961 . S
H573 C559 0.958 . S
H574 C559 0.961 . S
H575 C559 0.960 . S
C576 C577 1.391 . S
C576 C578 1.394 . S
C576 H592 0.931 . S
C577 C576 1.391 . S
C577 C581 1.376 . S
C578 C576 1.394 . S
C578 C579 1.369 . S
C578 C582 1.531 . S
C579 C578 1.369 . S
C579 C580 1.410 . S
C579 C587 1.503 . S
C580 C579 1.410 . S
C580 C581 1.392 . S
C580 C583 1.511 . S
C581 C577 1.376 . S
C581 C580 1.392 . S
C581 H593 0.929 . S
C582 C578 1.531 . S
C582 H594 0.960 . S
C582 H595 0.962 . S
C582 H596 0.960 . S
C583 C580 1.511 . S
C583 H597 0.961 . S
C583 H598 0.961 . S
C583 H599 0.961 . S
C584 C585 1.370 . S
C584 C586 1.363 . S
C584 H600 0.931 . S
C585 C584 1.370 . S
C585 C589 1.408 . S
C586 C584 1.363 . S
C586 C587 1.370 . S
C586 C590 1.524 . S
C587 C579 1.503 . S
C587 C586 1.370 . S
C587 C588 1.403 . S
C588 C587 1.403 . S
C588 C589 1.404 . S
C588 C591 1.539 . S
C589 C585 1.408 . S
C589 C588 1.404 . S
C589 H601 0.930 . S
C590 C586 1.524 . S
C590 H602 0.956 . S
C590 H603 0.961 . S
C590 H604 0.961 . S
C591 C588 1.539 . S
C591 H605 0.958 . S
C591 H606 0.961 . S
C591 H607 0.960 . S
H592 C576 0.931 . S
H593 C581 0.929 . S
H594 C582 0.960 . S
H595 C582 0.962 . S
H596 C582 0.960 . S
H597 C583 0.961 . S
H598 C583 0.961 . S
H599 C583 0.961 . S
H600 C584 0.931 . S
H601 C589 0.930 . S
H602 C590 0.956 . S
H603 C590 0.961 . S
H604 C590 0.961 . S
H605 C591 0.958 . S
H606 C591 0.961 . S
H607 C591 0.960 . S
C608 C609 1.391 . S
C608 C610 1.394 . S
C608 H624 0.931 . S
C609 C608 1.391 . S
C609 C613 1.376 1_655 S
C610 C608 1.394 . S
C610 C611 1.369 1_655 S
C610 C614 1.531 . S
C611 C610 1.369 1_455 S
C611 C612 1.410 . S
C611 C619 1.503 . S
C612 C611 1.410 . S
C612 C613 1.392 . S
C612 C615 1.511 . S
C613 C609 1.376 1_455 S
C613 C612 1.392 . S
C613 H625 0.929 . S
C614 C610 1.531 . S
C614 H626 0.960 . S
C614 H627 0.962 . S
C614 H628 0.960 . S
C615 C612 1.511 . S
C615 H629 0.961 . S
C615 H630 0.961 . S
C615 H631 0.961 . S
C616 C617 1.370 . S
C616 C618 1.363 . S
C616 H632 0.931 . S
C617 C616 1.370 . S
C617 C621 1.408 . S
C618 C616 1.363 . S
C618 C619 1.370 . S
C618 C622 1.524 . S
C619 C611 1.503 . S
C619 C618 1.370 . S
C619 C620 1.403 . S
C620 C619 1.403 . S
C620 C621 1.404 . S
C620 C623 1.539 . S
C621 C617 1.408 . S
C621 C620 1.404 . S
C621 H633 0.930 . S
C622 C618 1.524 . S
C622 H634 0.956 . S
C622 H635 0.961 . S
C622 H636 0.961 . S
C623 C620 1.539 . S
C623 H637 0.958 . S
C623 H638 0.961 . S
C623 H639 0.960 . S
H624 C608 0.931 . S
H625 C613 0.929 . S
H626 C614 0.960 . S
H627 C614 0.962 . S
H628 C614 0.960 . S
H629 C615 0.961 . S
H630 C615 0.961 . S
H631 C615 0.961 . S
H632 C616 0.931 . S
H633 C621 0.930 . S
H634 C622 0.956 . S
H635 C622 0.961 . S
H636 C622 0.961 . S
H637 C623 0.958 . S
H638 C623 0.961 . S
H639 C623 0.960 . S
C640 C641 1.391 1_655 S
C640 C642 1.394 . S
C640 H656 0.931 . S
C641 C640 1.391 1_455 S
C641 C645 1.376 . S
C642 C640 1.394 . S
C642 C643 1.369 . S
C642 C646 1.531 . S
C643 C642 1.369 . S
C643 C644 1.410 . S
C643 C651 1.503 . S
C644 C643 1.410 . S
C644 C645 1.392 1_655 S
C644 C647 1.511 . S
C645 C641 1.376 . S
C645 C644 1.392 1_455 S
C645 H657 0.929 . S
C646 C642 1.531 . S
C646 H658 0.960 . S
C646 H659 0.962 . S
C646 H660 0.960 1_554 S
C647 C644 1.511 . S
C647 H661 0.961 1_655 S
C647 H662 0.961 . S
C647 H663 0.961 . S
C648 C649 1.370 . S
C648 C650 1.363 . S
C648 H664 0.931 . S
C649 C648 1.370 . S
C649 C653 1.408 . S
C650 C648 1.363 . S
C650 C651 1.370 . S
C650 C654 1.524 . S
C651 C643 1.503 . S
C651 C650 1.370 . S
C651 C652 1.403 . S
C652 C651 1.403 . S
C652 C653 1.404 . S
C652 C655 1.539 . S
C653 C649 1.408 . S
C653 C652 1.404 . S
C653 H665 0.930 . S
C654 C650 1.524 . S
C654 H666 0.956 . S
C654 H667 0.961 1_655 S
C654 H668 0.961 1_655 S
C655 C652 1.539 . S
C655 H669 0.958 . S
C655 H670 0.961 . S
C655 H671 0.960 . S
H656 C640 0.931 . S
H657 C645 0.929 . S
H658 C646 0.960 . S
H659 C646 0.962 . S
H660 C646 0.960 1_556 S
H661 C647 0.961 1_455 S
H662 C647 0.961 . S
H663 C647 0.961 . S
H664 C648 0.931 . S
H665 C653 0.930 . S
H666 C654 0.956 . S
H667 C654 0.961 1_455 S
H668 C654 0.961 1_455 S
H669 C655 0.958 . S
H670 C655 0.961 . S
H671 C655 0.960 . S
C672 C673 1.391 . S
C672 C674 1.394 . S
C672 H688 0.931 . S
C673 C672 1.391 . S
C673 C677 1.376 . S
C674 C672 1.394 . S
C674 C675 1.369 . S
C674 C678 1.531 . S
C675 C674 1.369 . S
C675 C676 1.410 . S
C675 C683 1.503 . S
C676 C675 1.410 . S
C676 C677 1.392 . S
C676 C679 1.511 . S
C677 C673 1.376 . S
C677 C676 1.392 . S
C677 H689 0.929 . S
C678 C674 1.531 . S
C678 H690 0.960 . S
C678 H691 0.962 . S
C678 H692 0.960 . S
C679 C676 1.511 . S
C679 H693 0.961 . S
C679 H694 0.961 . S
C679 H695 0.961 . S
C680 C681 1.370 . S
C680 C682 1.363 . S
C680 H696 0.931 . S
C681 C680 1.370 . S
C681 C685 1.408 . S
C682 C680 1.363 . S
C682 C683 1.370 . S
C682 C686 1.524 . S
C683 C675 1.503 . S
C683 C682 1.370 . S
C683 C684 1.403 . S
C684 C683 1.403 . S
C684 C685 1.404 . S
C684 C687 1.539 . S
C685 C681 1.408 . S
C685 C684 1.404 . S
C685 H697 0.930 . S
C686 C682 1.524 . S
C686 H698 0.956 . S
C686 H699 0.961 . S
C686 H700 0.961 . S
C687 C684 1.539 . S
C687 H701 0.958 . S
C687 H702 0.961 . S
C687 H703 0.960 . S
H688 C672 0.931 . S
H689 C677 0.929 . S
H690 C678 0.960 . S
H691 C678 0.962 . S
H692 C678 0.960 . S
H693 C679 0.961 . S
H694 C679 0.961 . S
H695 C679 0.961 . S
H696 C680 0.931 . S
H697 C685 0.930 . S
H698 C686 0.956 . S
H699 C686 0.961 . S
H700 C686 0.961 . S
H701 C687 0.958 . S
H702 C687 0.961 . S
H703 C687 0.960 . S
C704 C705 1.391 . S
C704 C706 1.394 . S
C704 H720 0.931 . S
C705 C704 1.391 . S
C705 C709 1.376 . S
C706 C704 1.394 . S
C706 C707 1.369 . S
C706 C710 1.531 . S
C707 C706 1.369 . S
C707 C708 1.410 . S
C707 C715 1.503 . S
C708 C707 1.410 . S
C708 C709 1.392 . S
C708 C711 1.511 . S
C709 C705 1.376 . S
C709 C708 1.392 . S
C709 H721 0.929 . S
C710 C706 1.531 . S
C710 H722 0.960 . S
C710 H723 0.962 . S
C710 H724 0.960 . S
C711 C708 1.511 . S
C711 H725 0.961 . S
C711 H726 0.961 . S
C711 H727 0.961 . S
C712 C713 1.370 . S
C712 C714 1.363 . S
C712 H728 0.931 . S
C713 C712 1.370 . S
C713 C717 1.408 . S
C714 C712 1.363 . S
C714 C715 1.370 . S
C714 C718 1.524 . S
C715 C707 1.503 . S
C715 C714 1.370 . S
C715 C716 1.403 . S
C716 C715 1.403 . S
C716 C717 1.404 . S
C716 C719 1.539 . S
C717 C713 1.408 . S
C717 C716 1.404 . S
C717 H729 0.930 . S
C718 C714 1.524 . S
C718 H730 0.956 . S
C718 H731 0.961 . S
C718 H732 0.961 . S
C719 C716 1.539 . S
C719 H733 0.958 . S
C719 H734 0.961 . S
C719 H735 0.960 . S
H720 C704 0.931 . S
H721 C709 0.929 . S
H722 C710 0.960 . S
H723 C710 0.962 . S
H724 C710 0.960 . S
H725 C711 0.961 . S
H726 C711 0.961 . S
H727 C711 0.961 . S
H728 C712 0.931 . S
H729 C717 0.930 . S
H730 C718 0.956 . S
H731 C718 0.961 . S
H732 C718 0.961 . S
H733 C719 0.958 . S
H734 C719 0.961 . S
H735 C719 0.960 . S
C736 C737 1.391 . S
C736 C738 1.394 1_655 S
C736 H752 0.931 . S
C737 C736 1.391 . S
C737 C741 1.376 1_655 S
C738 C736 1.394 1_455 S
C738 C739 1.369 . S
C738 C742 1.531 . S
C739 C738 1.369 . S
C739 C740 1.410 . S
C739 C747 1.503 . S
C740 C739 1.410 . S
C740 C741 1.392 . S
C740 C743 1.511 . S
C741 C737 1.376 1_455 S
C741 C740 1.392 . S
C741 H753 0.929 . S
C742 C738 1.531 . S
C742 H754 0.960 . S
C742 H755 0.962 1_455 S
C742 H756 0.960 1_455 S
C743 C740 1.511 . S
C743 H757 0.961 . S
C743 H758 0.961 . S
C743 H759 0.961 . S
C744 C745 1.370 . S
C744 C746 1.363 . S
C744 H760 0.931 . S
C745 C744 1.370 . S
C745 C749 1.408 . S
C746 C744 1.363 . S
C746 C747 1.370 . S
C746 C750 1.524 . S
C747 C739 1.503 . S
C747 C746 1.370 . S
C747 C748 1.403 . S
C748 C747 1.403 . S
C748 C749 1.404 . S
C748 C751 1.539 . S
C749 C745 1.408 . S
C749 C748 1.404 . S
C749 H761 0.930 . S
C750 C746 1.524 . S
C750 H762 0.956 1_455 S
C750 H763 0.961 . S
C750 H764 0.961 . S
C751 C748 1.539 . S
C751 H765 0.958 . S
C751 H766 0.961 . S
C751 H767 0.960 . S
H752 C736 0.931 . S
H753 C741 0.929 . S
H754 C742 0.960 . S
H755 C742 0.962 1_655 S
H756 C742 0.960 1_655 S
H757 C743 0.961 . S
H758 C743 0.961 . S
H759 C743 0.961 . S
H760 C744 0.931 . S
H761 C749 0.930 . S
H762 C750 0.956 1_655 S
H763 C750 0.961 . S
H764 C750 0.961 . S
H765 C751 0.958 . S
H766 C751 0.961 . S
H767 C751 0.960 . S
C768 C769 1.391 . S
C768 C770 1.394 . S
C768 H784 0.931 . S
C769 C768 1.391 . S
C769 C773 1.376 . S
C770 C768 1.394 . S
C770 C771 1.369 . S
C770 C774 1.531 . S
C771 C770 1.369 . S
C771 C772 1.410 . S
C771 C779 1.503 . S
C772 C771 1.410 . S
C772 C773 1.392 . S
C772 C775 1.511 . S
C773 C769 1.376 . S
C773 C772 1.392 . S
C773 H785 0.929 . S
C774 C770 1.531 . S
C774 H786 0.960 . S
C774 H787 0.962 1_655 S
C774 H788 0.960 . S
C775 C772 1.511 . S
C775 H789 0.961 . S
C775 H790 0.961 . S
C775 H791 0.961 . S
C776 C777 1.370 . S
C776 C778 1.363 1_455 S
C776 H792 0.931 . S
C777 C776 1.370 . S
C777 C781 1.408 1_455 S
C778 C776 1.363 1_655 S
C778 C779 1.370 . S
C778 C782 1.524 1_655 S
C779 C771 1.503 . S
C779 C778 1.370 . S
C779 C780 1.403 . S
C780 C779 1.403 . S
C780 C781 1.404 . S
C780 C783 1.539 . S
C781 C777 1.408 1_655 S
C781 C780 1.404 . S
C781 H793 0.930 . S
C782 C778 1.524 1_455 S
C782 H794 0.956 . S
C782 H795 0.961 1_455 S
C782 H796 0.961 . S
C783 C780 1.539 . S
C783 H797 0.958 . S
C783 H798 0.961 . S
C783 H799 0.960 . S
H784 C768 0.931 . S
H785 C773 0.929 . S
H786 C774 0.960 . S
H787 C774 0.962 1_455 S
H788 C774 0.960 . S
H789 C775 0.961 . S
H790 C775 0.961 . S
H791 C775 0.961 . S
H792 C776 0.931 . S
H793 C781 0.930 . S
H794 C782 0.956 . S
H795 C782 0.961 1_655 S
H796 C782 0.961 . S
H797 C783 0.958 . S
H798 C783 0.961 . S
H799 C783 0.960 . S
C800 C801 1.391 . S
C800 C802 1.394 . S
C800 H816 0.931 . S
C801 C800 1.391 . S
C801 C805 1.376 . S
C802 C800 1.394 . S
C802 C803 1.369 . S
C802 C806 1.531 . S
C803 C802 1.369 . S
C803 C804 1.410 . S
C803 C811 1.503 . S
C804 C803 1.410 . S
C804 C805 1.392 . S
C804 C807 1.511 . S
C805 C801 1.376 . S
C805 C804 1.392 . S
C805 H817 0.929 . S
C806 C802 1.531 . S
C806 H818 0.960 . S
C806 H819 0.962 . S
C806 H820 0.960 . S
C807 C804 1.511 . S
C807 H821 0.961 . S
C807 H822 0.961 . S
C807 H823 0.961 . S
C808 C809 1.370 . S
C808 C810 1.363 . S
C808 H824 0.931 . S
C809 C808 1.370 . S
C809 C813 1.408 . S
C810 C808 1.363 . S
C810 C811 1.370 . S
C810 C814 1.524 . S
C811 C803 1.503 . S
C811 C810 1.370 . S
C811 C812 1.403 . S
C812 C811 1.403 . S
C812 C813 1.404 . S
C812 C815 1.539 . S
C813 C809 1.408 . S
C813 C812 1.404 . S
C813 H825 0.930 . S
C814 C810 1.524 . S
C814 H826 0.956 . S
C814 H827 0.961 . S
C814 H828 0.961 . S
C815 C812 1.539 . S
C815 H829 0.958 . S
C815 H830 0.961 . S
C815 H831 0.960 . S
H816 C800 0.931 . S
H817 C805 0.929 . S
H818 C806 0.960 . S
H819 C806 0.962 . S
H820 C806 0.960 . S
H821 C807 0.961 . S
H822 C807 0.961 . S
H823 C807 0.961 . S
H824 C808 0.931 . S
H825 C813 0.930 . S
H826 C814 0.956 . S
H827 C814 0.961 . S
H828 C814 0.961 . S
H829 C815 0.958 . S
H830 C815 0.961 . S
H831 C815 0.960 . S
C832 C833 1.391 . S
C832 C834 1.394 . S
C832 H848 0.931 . S
C833 C832 1.391 . S
C833 C837 1.376 . S
C834 C832 1.394 . S
C834 C835 1.369 . S
C834 C838 1.531 . S
C835 C834 1.369 . S
C835 C836 1.410 . S
C835 C843 1.503 . S
C836 C835 1.410 . S
C836 C837 1.392 . S
C836 C839 1.511 . S
C837 C833 1.376 . S
C837 C836 1.392 . S
C837 H849 0.929 . S
C838 C834 1.531 . S
C838 H850 0.960 . S
C838 H851 0.962 . S
C838 H852 0.960 . S
C839 C836 1.511 . S
C839 H853 0.961 . S
C839 H854 0.961 . S
C839 H855 0.961 . S
C840 C841 1.370 . S
C840 C842 1.363 . S
C840 H856 0.931 . S
C841 C840 1.370 . S
C841 C845 1.408 . S
C842 C840 1.363 . S
C842 C843 1.370 . S
C842 C846 1.524 . S
C843 C835 1.503 . S
C843 C842 1.370 . S
C843 C844 1.403 . S
C844 C843 1.403 . S
C844 C845 1.404 . S
C844 C847 1.539 . S
C845 C841 1.408 . S
C845 C844 1.404 . S
C845 H857 0.930 . S
C846 C842 1.524 . S
C846 H858 0.956 . S
C846 H859 0.961 . S
C846 H860 0.961 . S
C847 C844 1.539 . S
C847 H861 0.958 . S
C847 H862 0.961 . S
C847 H863 0.960 . S
H848 C832 0.931 . S
H849 C837 0.929 . S
H850 C838 0.960 . S
H851 C838 0.962 . S
H852 C838 0.960 . S
H853 C839 0.961 . S
H854 C839 0.961 . S
H855 C839 0.961 . S
H856 C840 0.931 . S
H857 C845 0.930 . S
H858 C846 0.956 . S
H859 C846 0.961 . S
H860 C846 0.961 . S
H861 C847 0.958 . S
H862 C847 0.961 . S
H863 C847 0.960 . S
C864 C865 1.391 . S
C864 C866 1.394 . S
C864 H880 0.931 . S
C865 C864 1.391 . S
C865 C869 1.376 . S
C866 C864 1.394 . S
C866 C867 1.369 . S
C866 C870 1.531 . S
C867 C866 1.369 . S
C867 C868 1.410 . S
C867 C875 1.503 . S
C868 C867 1.410 . S
C868 C869 1.392 . S
C868 C871 1.511 . S
C869 C865 1.376 . S
C869 C868 1.392 . S
C869 H881 0.929 . S
C870 C866 1.531 . S
C870 H882 0.960 . S
C870 H883 0.962 . S
C870 H884 0.960 . S
C871 C868 1.511 . S
C871 H885 0.961 . S
C871 H886 0.961 . S
C871 H887 0.961 . S
C872 C873 1.370 . S
C872 C874 1.363 . S
C872 H888 0.931 . S
C873 C872 1.370 . S
C873 C877 1.408 . S
C874 C872 1.363 . S
C874 C875 1.370 . S
C874 C878 1.524 . S
C875 C867 1.503 . S
C875 C874 1.370 . S
C875 C876 1.403 . S
C876 C875 1.403 . S
C876 C877 1.404 . S
C876 C879 1.539 . S
C877 C873 1.408 . S
C877 C876 1.404 . S
C877 H889 0.930 . S
C878 C874 1.524 . S
C878 H890 0.956 . S
C878 H891 0.961 . S
C878 H892 0.961 . S
C879 C876 1.539 . S
C879 H893 0.958 . S
C879 H894 0.961 . S
C879 H895 0.960 . S
H880 C864 0.931 . S
H881 C869 0.929 . S
H882 C870 0.960 . S
H883 C870 0.962 . S
H884 C870 0.960 . S
H885 C871 0.961 . S
H886 C871 0.961 . S
H887 C871 0.961 . S
H888 C872 0.931 . S
H889 C877 0.930 . S
H890 C878 0.956 . S
H891 C878 0.961 . S
H892 C878 0.961 . S
H893 C879 0.958 . S
H894 C879 0.961 . S
H895 C879 0.960 . S
C896 C897 1.391 . S
C896 C898 1.394 . S
C896 H912 0.931 . S
C897 C896 1.391 . S
C897 C901 1.376 . S
C898 C896 1.394 . S
C898 C899 1.369 . S
C898 C902 1.531 . S
C899 C898 1.369 . S
C899 C900 1.410 . S
C899 C907 1.503 . S
C900 C899 1.410 . S
C900 C901 1.392 . S
C900 C903 1.511 . S
C901 C897 1.376 . S
C901 C900 1.392 . S
C901 H913 0.929 . S
C902 C898 1.531 . S
C902 H914 0.960 . S
C902 H915 0.962 . S
C902 H916 0.960 . S
C903 C900 1.511 . S
C903 H917 0.961 . S
C903 H918 0.961 . S
C903 H919 0.961 . S
C904 C905 1.370 . S
C904 C906 1.363 . S
C904 H920 0.931 . S
C905 C904 1.370 . S
C905 C909 1.408 . S
C906 C904 1.363 . S
C906 C907 1.370 . S
C906 C910 1.524 . S
C907 C899 1.503 . S
C907 C906 1.370 . S
C907 C908 1.403 . S
C908 C907 1.403 . S
C908 C909 1.404 . S
C908 C911 1.539 . S
C909 C905 1.408 . S
C909 C908 1.404 . S
C909 H921 0.930 . S
C910 C906 1.524 . S
C910 H922 0.956 . S
C910 H923 0.961 . S
C910 H924 0.961 . S
C911 C908 1.539 . S
C911 H925 0.958 . S
C911 H926 0.961 . S
C911 H927 0.960 . S
H912 C896 0.931 . S
H913 C901 0.929 . S
H914 C902 0.960 . S
H915 C902 0.962 . S
H916 C902 0.960 . S
H917 C903 0.961 . S
H918 C903 0.961 . S
H919 C903 0.961 . S
H920 C904 0.931 . S
H921 C909 0.930 . S
H922 C910 0.956 . S
H923 C910 0.961 . S
H924 C910 0.961 . S
H925 C911 0.958 . S
H926 C911 0.961 . S
H927 C911 0.960 . S
C928 C929 1.391 . S
C928 C930 1.394 . S
C928 H944 0.931 . S
C929 C928 1.391 . S
C929 C933 1.376 . S
C930 C928 1.394 . S
C930 C931 1.369 . S
C930 C934 1.531 . S
C931 C930 1.369 . S
C931 C932 1.410 . S
C931 C939 1.503 . S
C932 C931 1.410 . S
C932 C933 1.392 . S
C932 C935 1.511 . S
C933 C929 1.376 . S
C933 C932 1.392 . S
C933 H945 0.929 . S
C934 C930 1.531 . S
C934 H946 0.960 . S
C934 H947 0.962 . S
C934 H948 0.960 . S
C935 C932 1.511 . S
C935 H949 0.961 . S
C935 H950 0.961 . S
C935 H951 0.961 . S
C936 C937 1.370 . S
C936 C938 1.363 . S
C936 H952 0.931 . S
C937 C936 1.370 . S
C937 C941 1.408 . S
C938 C936 1.363 . S
C938 C939 1.370 . S
C938 C942 1.524 . S
C939 C931 1.503 . S
C939 C938 1.370 . S
C939 C940 1.403 . S
C940 C939 1.403 . S
C940 C941 1.404 . S
C940 C943 1.539 . S
C941 C937 1.408 . S
C941 C940 1.404 . S
C941 H953 0.930 . S
C942 C938 1.524 . S
C942 H954 0.956 . S
C942 H955 0.961 . S
C942 H956 0.961 . S
C943 C940 1.539 . S
C943 H957 0.958 . S
C943 H958 0.961 . S
C943 H959 0.960 . S
H944 C928 0.931 . S
H945 C933 0.929 . S
H946 C934 0.960 . S
H947 C934 0.962 . S
H948 C934 0.960 . S
H949 C935 0.961 . S
H950 C935 0.961 . S
H951 C935 0.961 . S
H952 C936 0.931 . S
H953 C941 0.930 . S
H954 C942 0.956 . S
H955 C942 0.961 . S
H956 C942 0.961 . S
H957 C943 0.958 . S
H958 C943 0.961 . S
H959 C943 0.960 . S
C960 C961 1.391 . S
C960 C962 1.394 . S
C960 H976 0.931 . S
C961 C960 1.391 . S
C961 C965 1.376 . S
C962 C960 1.394 . S
C962 C963 1.369 . S
C962 C966 1.531 . S
C963 C962 1.369 . S
C963 C964 1.410 . S
C963 C971 1.503 . S
C964 C963 1.410 . S
C964 C965 1.392 . S
C964 C967 1.511 . S
C965 C961 1.376 . S
C965 C964 1.392 . S
C965 H977 0.929 . S
C966 C962 1.531 . S
C966 H978 0.960 . S
C966 H979 0.962 . S
C966 H980 0.960 . S
C967 C964 1.511 . S
C967 H981 0.961 . S
C967 H982 0.961 . S
C967 H983 0.961 . S
C968 C969 1.370 . S
C968 C970 1.363 . S
C968 H984 0.931 . S
C969 C968 1.370 . S
C969 C973 1.408 . S
C970 C968 1.363 . S
C970 C971 1.370 . S
C970 C974 1.524 . S
C971 C963 1.503 . S
C971 C970 1.370 . S
C971 C972 1.403 . S
C972 C971 1.403 . S
C972 C973 1.404 . S
C972 C975 1.539 . S
C973 C969 1.408 . S
C973 C972 1.404 . S
C973 H985 0.930 . S
C974 C970 1.524 . S
C974 H986 0.956 . S
C974 H987 0.961 . S
C974 H988 0.961 . S
C975 C972 1.539 . S
C975 H989 0.958 . S
C975 H990 0.961 . S
C975 H991 0.960 . S
H976 C960 0.931 . S
H977 C965 0.929 . S
H978 C966 0.960 . S
H979 C966 0.962 . S
H980 C966 0.960 . S
H981 C967 0.961 . S
H982 C967 0.961 . S
H983 C967 0.961 . S
H984 C968 0.931 . S
H985 C973 0.930 . S
H986 C974 0.956 . S
H987 C974 0.961 . S
H988 C974 0.961 . S
H989 C975 0.958 . S
H990 C975 0.961 . S
H991 C975 0.960 . S
C992 C993 1.391 . S
C992 C994 1.394 . S
C992 H1008 0.931 . S
C993 C992 1.391 . S
C993 C997 1.376 . S
C994 C992 1.394 . S
C994 C995 1.369 . S
C994 C998 1.531 . S
C995 C994 1.369 . S
C995 C996 1.410 . S
C995 C1003 1.503 . S
C996 C995 1.410 . S
C996 C997 1.392 . S
C996 C999 1.511 . S
C997 C993 1.376 . S
C997 C996 1.392 . S
C997 H1009 0.929 . S
C998 C994 1.531 . S
C998 H1010 0.960 . S
C998 H1011 0.962 . S
C998 H1012 0.960 . S
C999 C996 1.511 . S
C999 H1013 0.961 . S
C999 H1014 0.961 . S
C999 H1015 0.961 . S
C1000 C1001 1.370 . S
C1000 C1002 1.363 . S
C1000 H1016 0.931 . S
C1001 C1000 1.370 . S
C1001 C1005 1.408 . S
C1002 C1000 1.363 . S
C1002 C1003 1.370 . S
C1002 C1006 1.524 . S
C1003 C995 1.503 . S
C1003 C1002 1.370 . S
C1003 C1004 1.403 . S
C1004 C1003 1.403 . S
C1004 C1005 1.404 . S
C1004 C1007 1.539 . S
C1005 C1001 1.408 . S
C1005 C1004 1.404 . S
C1005 H1017 0.930 . S
C1006 C1002 1.524 . S
C1006 H1018 0.956 . S
C1006 H1019 0.961 . S
C1006 H1020 0.961 1_554 S
C1007 C1004 1.539 . S
C1007 H1021 0.958 . S
C1007 H1022 0.961 . S
C1007 H1023 0.960 . S
H1008 C992 0.931 . S
H1009 C997 0.929 . S
H1010 C998 0.960 . S
H1011 C998 0.962 . S
H1012 C998 0.960 . S
H1013 C999 0.961 . S
H1014 C999 0.961 . S
H1015 C999 0.961 . S
H1016 C1000 0.931 . S
H1017 C1005 0.930 . S
H1018 C1006 0.956 . S
H1019 C1006 0.961 . S
H1020 C1006 0.961 1_556 S
H1021 C1007 0.958 . S
H1022 C1007 0.961 . S
H1023 C1007 0.960 . S
C1024 C1025 1.391 . S
C1024 C1026 1.394 . S
C1024 H1040 0.931 . S
C1025 C1024 1.391 . S
C1025 C1029 1.376 . S
C1026 C1024 1.394 . S
C1026 C1027 1.369 . S
C1026 C1030 1.531 . S
C1027 C1026 1.369 . S
C1027 C1028 1.410 . S
C1027 C1035 1.503 . S
C1028 C1027 1.410 . S
C1028 C1029 1.392 . S
C1028 C1031 1.511 . S
C1029 C1025 1.376 . S
C1029 C1028 1.392 . S
C1029 H1041 0.929 . S
C1030 C1026 1.531 . S
C1030 H1042 0.960 . S
C1030 H1043 0.962 . S
C1030 H1044 0.960 . S
C1031 C1028 1.511 . S
C1031 H1045 0.961 . S
C1031 H1046 0.961 . S
C1031 H1047 0.961 . S
C1032 C1033 1.370 . S
C1032 C1034 1.363 . S
C1032 H1048 0.931 . S
C1033 C1032 1.370 . S
C1033 C1037 1.408 . S
C1034 C1032 1.363 . S
C1034 C1035 1.370 . S
C1034 C1038 1.524 . S
C1035 C1027 1.503 . S
C1035 C1034 1.370 . S
C1035 C1036 1.403 . S
C1036 C1035 1.403 . S
C1036 C1037 1.404 . S
C1036 C1039 1.539 . S
C1037 C1033 1.408 . S
C1037 C1036 1.404 . S
C1037 H1049 0.930 . S
C1038 C1034 1.524 . S
C1038 H1050 0.956 . S
C1038 H1051 0.961 . S
C1038 H1052 0.961 . S
C1039 C1036 1.539 . S
C1039 H1053 0.958 . S
C1039 H1054 0.961 . S
C1039 H1055 0.960 . S
H1040 C1024 0.931 . S
H1041 C1029 0.929 . S
H1042 C1030 0.960 . S
H1043 C1030 0.962 . S
H1044 C1030 0.960 . S
H1045 C1031 0.961 . S
H1046 C1031 0.961 . S
H1047 C1031 0.961 . S
H1048 C1032 0.931 . S
H1049 C1037 0.930 . S
H1050 C1038 0.956 . S
H1051 C1038 0.961 . S
H1052 C1038 0.961 . S
H1053 C1039 0.958 . S
H1054 C1039 0.961 . S
H1055 C1039 0.960 . S
C1056 C1057 1.391 . S
C1056 C1058 1.394 . S
C1056 H1072 0.931 . S
C1057 C1056 1.391 . S
C1057 C1061 1.376 . S
C1058 C1056 1.394 . S
C1058 C1059 1.369 . S
C1058 C1062 1.531 . S
C1059 C1058 1.369 . S
C1059 C1060 1.410 . S
C1059 C1067 1.503 . S
C1060 C1059 1.410 . S
C1060 C1061 1.392 . S
C1060 C1063 1.511 1_655 S
C1061 C1057 1.376 . S
C1061 C1060 1.392 . S
C1061 H1073 0.929 . S
C1062 C1058 1.531 . S
C1062 H1074 0.960 . S
C1062 H1075 0.962 . S
C1062 H1076 0.960 . S
C1063 C1060 1.511 1_455 S
C1063 H1077 0.961 . S
C1063 H1078 0.961 . S
C1063 H1079 0.961 . S
C1064 C1065 1.370 1_655 S
C1064 C1066 1.363 . S
C1064 H1080 0.931 . S
C1065 C1064 1.370 1_455 S
C1065 C1069 1.408 . S
C1066 C1064 1.363 . S
C1066 C1067 1.370 . S
C1066 C1070 1.524 . S
C1067 C1059 1.503 . S
C1067 C1066 1.370 . S
C1067 C1068 1.403 1_655 S
C1068 C1067 1.403 1_455 S
C1068 C1069 1.404 . S
C1068 C1071 1.539 . S
C1069 C1065 1.408 . S
C1069 C1068 1.404 . S
C1069 H1081 0.930 . S
C1070 C1066 1.524 . S
C1070 H1082 0.956 . S
C1070 H1083 0.961 . S
C1070 H1084 0.961 . S
C1071 C1068 1.539 . S
C1071 H1085 0.958 . S
C1071 H1086 0.961 . S
C1071 H1087 0.960 . S
H1072 C1056 0.931 . S
H1073 C1061 0.929 . S
H1074 C1062 0.960 . S
H1075 C1062 0.962 . S
H1076 C1062 0.960 . S
H1077 C1063 0.961 . S
H1078 C1063 0.961 . S
H1079 C1063 0.961 . S
H1080 C1064 0.931 . S
H1081 C1069 0.930 . S
H1082 C1070 0.956 . S
H1083 C1070 0.961 . S
H1084 C1070 0.961 . S
H1085 C1071 0.958 . S
H1086 C1071 0.961 . S
H1087 C1071 0.960 . S
C1088 C1089 1.391 . S
C1088 C1090 1.394 . S
C1088 H1104 0.931 . S
C1089 C1088 1.391 . S
C1089 C1093 1.376 . S
C1090 C1088 1.394 . S
C1090 C1091 1.369 . S
C1090 C1094 1.531 1_455 S
C1091 C1090 1.369 . S
C1091 C1092 1.410 . S
C1091 C1099 1.503 . S
C1092 C1091 1.410 . S
C1092 C1093 1.392 . S
C1092 C1095 1.511 . S
C1093 C1089 1.376 . S
C1093 C1092 1.392 . S
C1093 H1105 0.929 . S
C1094 C1090 1.531 1_655 S
C1094 H1106 0.960 . S
C1094 H1107 0.962 . S
C1094 H1108 0.960 . S
C1095 C1092 1.511 . S
C1095 H1109 0.961 . S
C1095 H1110 0.961 . S
C1095 H1111 0.961 . S
C1096 C1097 1.370 . S
C1096 C1098 1.363 . S
C1096 H1112 0.931 . S
C1097 C1096 1.370 . S
C1097 C1101 1.408 1_655 S
C1098 C1096 1.363 . S
C1098 C1099 1.370 1_655 S
C1098 C1102 1.524 . S
C1099 C1091 1.503 . S
C1099 C1098 1.370 1_455 S
C1099 C1100 1.403 . S
C1100 C1099 1.403 . S
C1100 C1101 1.404 . S
C1100 C1103 1.539 . S
C1101 C1097 1.408 1_455 S
C1101 C1100 1.404 . S
C1101 H1113 0.930 . S
C1102 C1098 1.524 . S
C1102 H1114 0.956 . S
C1102 H1115 0.961 . S
C1102 H1116 0.961 . S
C1103 C1100 1.539 . S
C1103 H1117 0.958 . S
C1103 H1118 0.961 . S
C1103 H1119 0.960 . S
H1104 C1088 0.931 . S
H1105 C1093 0.929 . S
H1106 C1094 0.960 . S
H1107 C1094 0.962 . S
H1108 C1094 0.960 . S
H1109 C1095 0.961 . S
H1110 C1095 0.961 . S
H1111 C1095 0.961 . S
H1112 C1096 0.931 . S
H1113 C1101 0.930 . S
H1114 C1102 0.956 . S
H1115 C1102 0.961 . S
H1116 C1102 0.961 . S
H1117 C1103 0.958 . S
H1118 C1103 0.961 . S
H1119 C1103 0.960 . S
C1120 C1121 1.391 . S
C1120 C1122 1.394 . S
C1120 H1136 0.931 . S
C1121 C1120 1.391 . S
C1121 C1125 1.376 . S
C1122 C1120 1.394 . S
C1122 C1123 1.369 . S
C1122 C1126 1.531 . S
C1123 C1122 1.369 . S
C1123 C1124 1.410 . S
C1123 C1131 1.503 . S
C1124 C1123 1.410 . S
C1124 C1125 1.392 . S
C1124 C1127 1.511 . S
C1125 C1121 1.376 . S
C1125 C1124 1.392 . S
C1125 H1137 0.929 . S
C1126 C1122 1.531 . S
C1126 H1138 0.960 . S
C1126 H1139 0.962 . S
C1126 H1140 0.960 . S
C1127 C1124 1.511 . S
C1127 H1141 0.961 . S
C1127 H1142 0.961 . S
C1127 H1143 0.961 . S
C1128 C1129 1.370 . S
C1128 C1130 1.363 . S
C1128 H1144 0.931 . S
C1129 C1128 1.370 . S
C1129 C1133 1.408 . S
C1130 C1128 1.363 . S
C1130 C1131 1.370 . S
C1130 C1134 1.524 . S
C1131 C1123 1.503 . S
C1131 C1130 1.370 . S
C1131 C1132 1.403 . S
C1132 C1131 1.403 . S
C1132 C1133 1.404 . S
C1132 C1135 1.539 . S
C1133 C1129 1.408 . S
C1133 C1132 1.404 . S
C1133 H1145 0.930 . S
C1134 C1130 1.524 . S
C1134 H1146 0.956 . S
C1134 H1147 0.961 . S
C1134 H1148 0.961 . S
C1135 C1132 1.539 . S
C1135 H1149 0.958 . S
C1135 H1150 0.961 . S
C1135 H1151 0.960 . S
H1136 C1120 0.931 . S
H1137 C1125 0.929 . S
H1138 C1126 0.960 . S
H1139 C1126 0.962 . S
H1140 C1126 0.960 . S
H1141 C1127 0.961 . S
H1142 C1127 0.961 . S
H1143 C1127 0.961 . S
H1144 C1128 0.931 . S
H1145 C1133 0.930 . S
H1146 C1134 0.956 . S
H1147 C1134 0.961 . S
H1148 C1134 0.961 . S
H1149 C1135 0.958 . S
H1150 C1135 0.961 . S
H1151 C1135 0.960 . S
C1152 C1153 1.391 . S
C1152 C1154 1.394 . S
C1152 H1168 0.931 . S
C1153 C1152 1.391 . S
C1153 C1157 1.376 . S
C1154 C1152 1.394 . S
C1154 C1155 1.369 . S
C1154 C1158 1.531 . S
C1155 C1154 1.369 . S
C1155 C1156 1.410 . S
C1155 C1163 1.503 . S
C1156 C1155 1.410 . S
C1156 C1157 1.392 . S
C1156 C1159 1.511 . S
C1157 C1153 1.376 . S
C1157 C1156 1.392 . S
C1157 H1169 0.929 . S
C1158 C1154 1.531 . S
C1158 H1170 0.960 . S
C1158 H1171 0.962 . S
C1158 H1172 0.960 . S
C1159 C1156 1.511 . S
C1159 H1173 0.961 . S
C1159 H1174 0.961 . S
C1159 H1175 0.961 . S
C1160 C1161 1.370 . S
C1160 C1162 1.363 . S
C1160 H1176 0.931 . S
C1161 C1160 1.370 . S
C1161 C1165 1.408 . S
C1162 C1160 1.363 . S
C1162 C1163 1.370 . S
C1162 C1166 1.524 . S
C1163 C1155 1.503 . S
C1163 C1162 1.370 . S
C1163 C1164 1.403 . S
C1164 C1163 1.403 . S
C1164 C1165 1.404 . S
C1164 C1167 1.539 . S
C1165 C1161 1.408 . S
C1165 C1164 1.404 . S
C1165 H1177 0.930 . S
C1166 C1162 1.524 . S
C1166 H1178 0.956 . S
C1166 H1179 0.961 . S
C1166 H1180 0.961 . S
C1167 C1164 1.539 . S
C1167 H1181 0.958 . S
C1167 H1182 0.961 . S
C1167 H1183 0.960 . S
H1168 C1152 0.931 . S
H1169 C1157 0.929 . S
H1170 C1158 0.960 . S
H1171 C1158 0.962 . S
H1172 C1158 0.960 . S
H1173 C1159 0.961 . S
H1174 C1159 0.961 . S
H1175 C1159 0.961 . S
H1176 C1160 0.931 . S
H1177 C1165 0.930 . S
H1178 C1166 0.956 . S
H1179 C1166 0.961 . S
H1180 C1166 0.961 . S
H1181 C1167 0.958 . S
H1182 C1167 0.961 . S
H1183 C1167 0.960 . S
C1184 C1185 1.391 . S
C1184 C1186 1.394 1_655 S
C1184 H1200 0.931 1_655 S
C1185 C1184 1.391 . S
C1185 C1189 1.376 . S
C1186 C1184 1.394 1_455 S
C1186 C1187 1.369 1_455 S
C1186 C1190 1.531 . S
C1187 C1186 1.369 1_655 S
C1187 C1188 1.410 . S
C1187 C1195 1.503 . S
C1188 C1187 1.410 . S
C1188 C1189 1.392 . S
C1188 C1191 1.511 . S
C1189 C1185 1.376 . S
C1189 C1188 1.392 . S
C1189 H1201 0.929 . S
C1190 C1186 1.531 . S
C1190 H1202 0.960 . S
C1190 H1203 0.962 . S
C1190 H1204 0.960 . S
C1191 C1188 1.511 . S
C1191 H1205 0.961 . S
C1191 H1206 0.961 . S
C1191 H1207 0.961 . S
C1192 C1193 1.370 . S
C1192 C1194 1.363 1_455 S
C1192 H1208 0.930 1_455 S
C1193 C1192 1.370 . S
C1193 C1197 1.408 . S
C1194 C1192 1.363 1_655 S
C1194 C1195 1.370 . S
C1194 C1198 1.524 . S
C1195 C1187 1.503 . S
C1195 C1194 1.370 . S
C1195 C1196 1.403 1_655 S
C1196 C1195 1.403 1_455 S
C1196 C1197 1.404 . S
C1196 C1199 1.539 . S
C1197 C1193 1.408 . S
C1197 C1196 1.404 . S
C1197 H1209 0.930 . S
C1198 C1194 1.524 . S
C1198 H1210 0.956 . S
C1198 H1211 0.961 . S
C1198 H1212 0.961 . S
C1199 C1196 1.539 . S
C1199 H1213 0.958 . S
C1199 H1214 0.961 . S
C1199 H1215 0.960 1_455 S
H1200 C1184 0.931 1_455 S
H1201 C1189 0.929 . S
H1202 C1190 0.960 . S
H1203 C1190 0.962 . S
H1204 C1190 0.960 . S
H1205 C1191 0.961 . S
H1206 C1191 0.961 . S
H1207 C1191 0.961 . S
H1208 C1192 0.930 1_655 S
H1209 C1197 0.930 . S
H1210 C1198 0.956 . S
H1211 C1198 0.961 . S
H1212 C1198 0.961 . S
H1213 C1199 0.958 . S
H1214 C1199 0.961 . S
H1215 C1199 0.960 1_655 S
C1216 C1217 1.391 . S
C1216 C1218 1.394 . S
C1216 H1232 0.931 . S
C1217 C1216 1.391 . S
C1217 C1221 1.376 . S
C1218 C1216 1.394 . S
C1218 C1219 1.369 . S
C1218 C1222 1.531 1_455 S
C1219 C1218 1.369 . S
C1219 C1220 1.410 . S
C1219 C1227 1.503 . S
C1220 C1219 1.410 . S
C1220 C1221 1.392 . S
C1220 C1223 1.511 . S
C1221 C1217 1.376 . S
C1221 C1220 1.392 . S
C1221 H1233 0.929 . S
C1222 C1218 1.531 1_655 S
C1222 H1234 0.960 . S
C1222 H1235 0.962 . S
C1222 H1236 0.960 . S
C1223 C1220 1.511 . S
C1223 H1237 0.961 . S
C1223 H1238 0.961 . S
C1223 H1239 0.961 . S
C1224 C1225 1.370 . S
C1224 C1226 1.363 . S
C1224 H1240 0.931 . S
C1225 C1224 1.370 . S
C1225 C1229 1.408 1_655 S
C1226 C1224 1.363 . S
C1226 C1227 1.370 1_655 S
C1226 C1230 1.524 . S
C1227 C1219 1.503 . S
C1227 C1226 1.370 1_455 S
C1227 C1228 1.403 . S
C1228 C1227 1.403 . S
C1228 C1229 1.404 . S
C1228 C1231 1.539 . S
C1229 C1225 1.408 1_455 S
C1229 C1228 1.404 . S
C1229 H1241 0.930 . S
C1230 C1226 1.524 . S
C1230 H1242 0.956 . S
C1230 H1243 0.961 . S
C1230 H1244 0.961 . S
C1231 C1228 1.539 . S
C1231 H1245 0.958 . S
C1231 H1246 0.961 . S
C1231 H1247 0.960 . S
H1232 C1216 0.931 . S
H1233 C1221 0.929 . S
H1234 C1222 0.960 . S
H1235 C1222 0.962 . S
H1236 C1222 0.960 . S
H1237 C1223 0.961 . S
H1238 C1223 0.961 . S
H1239 C1223 0.961 . S
H1240 C1224 0.931 . S
H1241 C1229 0.930 . S
H1242 C1230 0.956 . S
H1243 C1230 0.961 . S
H1244 C1230 0.961 . S
H1245 C1231 0.958 . S
H1246 C1231 0.961 . S
H1247 C1231 0.960 . S
C1248 C1249 1.391 . S
C1248 C1250 1.394 1_545 S
C1248 H1264 0.931 . S
C1249 C1248 1.391 . S
C1249 C1253 1.376 1_545 S
C1250 C1248 1.394 1_565 S
C1250 C1251 1.369 . S
C1250 C1254 1.530 1_566 S
C1251 C1250 1.369 . S
C1251 C1252 1.410 . S
C1251 C1259 1.503 1_556 S
C1252 C1251 1.410 . S
C1252 C1253 1.392 . S
C1252 C1255 1.511 . S
C1253 C1249 1.376 1_565 S
C1253 C1252 1.392 . S
C1253 H1265 0.929 . S
C1254 C1250 1.530 1_544 S
C1254 H1266 0.955 1_545 S
C1254 H1267 0.966 . S
C1254 H1268 0.961 . S
C1255 C1252 1.511 . S
C1255 H1269 0.961 . S
C1255 H1270 0.961 . S
C1255 H1271 0.961 . S
C1256 C1257 1.370 . S
C1256 C1258 1.363 . S
C1256 H1272 0.931 . S
C1257 C1256 1.370 . S
C1257 C1261 1.408 . S
C1258 C1256 1.363 . S
C1258 C1259 1.370 . S
C1258 C1262 1.524 1_565 S
C1259 C1251 1.503 1_554 S
C1259 C1258 1.370 . S
C1259 C1260 1.403 . S
C1260 C1259 1.403 . S
C1260 C1261 1.404 . S
C1260 C1263 1.539 . S
C1261 C1257 1.408 . S
C1261 C1260 1.404 . S
C1261 H1273 0.930 . S
C1262 C1258 1.524 1_545 S
C1262 H1274 0.956 . S
C1262 H1275 0.961 . S
C1262 H1276 0.961 . S
C1263 C1260 1.539 . S
C1263 H1277 0.958 . S
C1263 H1278 0.961 . S
C1263 H1279 0.960 1_554 S
H1264 C1248 0.931 . S
H1265 C1253 0.929 . S
H1266 C1254 0.955 1_565 S
H1267 C1254 0.966 . S
H1268 C1254 0.961 . S
H1269 C1255 0.961 . S
H1270 C1255 0.961 . S
H1271 C1255 0.961 . S
H1272 C1256 0.931 . S
H1273 C1261 0.930 . S
H1274 C1262 0.956 . S
H1275 C1262 0.961 . S
H1276 C1262 0.961 . S
H1277 C1263 0.958 . S
H1278 C1263 0.961 . S
H1279 C1263 0.960 1_556 S
C1280 C1281 1.391 . S
C1280 C1282 1.394 . S
C1280 H1296 0.931 . S
C1281 C1280 1.391 . S
C1281 C1285 1.407 . S
C1282 C1280 1.394 . S
C1282 C1283 1.369 1_566 S
C1282 C1286 1.531 . S
C1283 C1282 1.369 1_544 S
C1283 C1284 1.410 1_554 S
C1283 C1291 1.503 . S
C1284 C1283 1.410 1_556 S
C1284 C1285 1.368 1_545 S
C1284 C1287 1.511 1_556 S
C1285 C1281 1.407 . S
C1285 C1284 1.368 1_565 S
C1285 H1297 0.928 . S
C1286 C1282 1.531 . S
C1286 H1298 0.960 1_556 S
C1286 H1299 0.962 1_565 S
C1286 H1300 0.960 . S
C1287 C1284 1.511 1_554 S
C1287 H1301 0.961 . S
C1287 H1302 0.961 . S
C1287 H1303 0.961 . S
C1288 C1289 1.370 . S
C1288 C1290 1.363 . S
C1288 H1304 0.931 . S
C1289 C1288 1.370 . S
C1289 C1293 1.408 . S
C1290 C1288 1.363 . S
C1290 C1291 1.370 . S
C1290 C1294 1.524 . S
C1291 C1283 1.503 . S
C1291 C1290 1.370 . S
C1291 C1292 1.403 . S
C1292 C1291 1.403 . S
C1292 C1293 1.404 . S
C1292 C1295 1.539 1_545 S
C1293 C1289 1.408 . S
C1293 C1292 1.404 . S
C1293 H1305 0.930 . S
C1294 C1290 1.524 . S
C1294 H1306 0.956 1_554 S
C1294 H1307 0.961 1_554 S
C1294 H1308 0.961 . S
C1295 C1292 1.539 1_565 S
C1295 H1309 0.958 . S
C1295 H1310 0.961 . S
C1295 H1311 0.960 . S
H1296 C1280 0.931 . S
H1297 C1285 0.928 . S
H1298 C1286 0.960 1_554 S
H1299 C1286 0.962 1_545 S
H1300 C1286 0.960 . S
H1301 C1287 0.961 . S
H1302 C1287 0.961 . S
H1303 C1287 0.961 . S
H1304 C1288 0.931 . S
H1305 C1293 0.930 . S
H1306 C1294 0.956 1_556 S
H1307 C1294 0.961 1_556 S
H1308 C1294 0.961 . S
H1309 C1295 0.958 . S
H1310 C1295 0.961 . S
H1311 C1295 0.960 . S
C1312 C1313 1.391 . S
C1312 C1314 1.394 . S
C1312 H1328 0.931 . S
C1313 C1312 1.391 . S
C1313 C1317 1.376 . S
C1314 C1312 1.394 . S
C1314 C1315 1.369 . S
C1314 C1318 1.531 . S
C1315 C1314 1.369 . S
C1315 C1316 1.410 . S
C1315 C1323 1.503 . S
C1316 C1315 1.410 . S
C1316 C1317 1.392 . S
C1316 C1319 1.511 . S
C1317 C1313 1.376 . S
C1317 C1316 1.392 . S
C1317 H1329 0.929 . S
C1318 C1314 1.531 . S
C1318 H1330 0.960 . S
C1318 H1331 0.962 . S
C1318 H1332 0.960 . S
C1319 C1316 1.511 . S
C1319 H1333 0.961 . S
C1319 H1334 0.961 . S
C1319 H1335 0.961 . S
C1320 C1321 1.370 . S
C1320 C1322 1.363 . S
C1320 H1336 0.931 . S
C1321 C1320 1.370 . S
C1321 C1325 1.408 . S
C1322 C1320 1.363 . S
C1322 C1323 1.370 . S
C1322 C1326 1.524 . S
C1323 C1315 1.503 . S
C1323 C1322 1.370 . S
C1323 C1324 1.403 . S
C1324 C1323 1.403 . S
C1324 C1325 1.404 . S
C1324 C1327 1.539 . S
C1325 C1321 1.408 . S
C1325 C1324 1.404 . S
C1325 H1337 0.930 . S
C1326 C1322 1.524 . S
C1326 H1338 0.956 . S
C1326 H1339 0.961 . S
C1326 H1340 0.961 . S
C1327 C1324 1.539 . S
C1327 H1341 0.958 . S
C1327 H1342 0.961 . S
C1327 H1343 0.960 . S
H1328 C1312 0.931 . S
H1329 C1317 0.929 . S
H1330 C1318 0.960 . S
H1331 C1318 0.962 . S
H1332 C1318 0.960 . S
H1333 C1319 0.961 . S
H1334 C1319 0.961 . S
H1335 C1319 0.961 . S
H1336 C1320 0.931 . S
H1337 C1325 0.930 . S
H1338 C1326 0.956 . S
H1339 C1326 0.961 . S
H1340 C1326 0.961 . S
H1341 C1327 0.958 . S
H1342 C1327 0.961 . S
H1343 C1327 0.960 . S
C1344 C1345 1.391 . S
C1344 C1346 1.394 . S
C1344 H1360 0.931 . S
C1345 C1344 1.391 . S
C1345 C1349 1.376 . S
C1346 C1344 1.394 . S
C1346 C1347 1.369 . S
C1346 C1350 1.531 . S
C1347 C1346 1.369 . S
C1347 C1348 1.410 . S
C1347 C1355 1.503 . S
C1348 C1347 1.410 . S
C1348 C1349 1.392 . S
C1348 C1351 1.511 . S
C1349 C1345 1.376 . S
C1349 C1348 1.392 . S
C1349 H1361 0.929 . S
C1350 C1346 1.531 . S
C1350 H1362 0.960 . S
C1350 H1363 0.962 . S
C1350 H1364 0.960 . S
C1351 C1348 1.511 . S
C1351 H1365 0.961 . S
C1351 H1366 0.961 . S
C1351 H1367 0.961 . S
C1352 C1353 1.370 . S
C1352 C1354 1.363 . S
C1352 H1368 0.931 . S
C1353 C1352 1.370 . S
C1353 C1357 1.408 . S
C1354 C1352 1.363 . S
C1354 C1355 1.370 . S
C1354 C1358 1.524 . S
C1355 C1347 1.503 . S
C1355 C1354 1.370 . S
C1355 C1356 1.403 . S
C1356 C1355 1.403 . S
C1356 C1357 1.404 . S
C1356 C1359 1.539 . S
C1357 C1353 1.408 . S
C1357 C1356 1.404 . S
C1357 H1369 0.930 . S
C1358 C1354 1.524 . S
C1358 H1370 0.956 . S
C1358 H1371 0.961 . S
C1358 H1372 0.961 . S
C1359 C1356 1.539 . S
C1359 H1373 0.958 . S
C1359 H1374 0.961 . S
C1359 H1375 0.960 . S
H1360 C1344 0.931 . S
H1361 C1349 0.929 . S
H1362 C1350 0.960 . S
H1363 C1350 0.962 . S
H1364 C1350 0.960 . S
H1365 C1351 0.961 . S
H1366 C1351 0.961 . S
H1367 C1351 0.961 . S
H1368 C1352 0.931 . S
H1369 C1357 0.930 . S
H1370 C1358 0.956 . S
H1371 C1358 0.961 . S
H1372 C1358 0.961 . S
H1373 C1359 0.958 . S
H1374 C1359 0.961 . S
H1375 C1359 0.960 . S
C1376 C1377 1.391 . S
C1376 C1378 1.394 . S
C1376 H1392 0.931 . S
C1377 C1376 1.391 . S
C1377 C1381 1.376 . S
C1378 C1376 1.394 . S
C1378 C1379 1.369 . S
C1378 C1382 1.531 . S
C1379 C1378 1.369 . S
C1379 C1380 1.410 . S
C1379 C1387 1.503 . S
C1380 C1379 1.410 . S
C1380 C1381 1.392 . S
C1380 C1383 1.511 . S
C1381 C1377 1.376 . S
C1381 C1380 1.392 . S
C1381 H1393 0.929 . S
C1382 C1378 1.531 . S
C1382 H1394 0.960 . S
C1382 H1395 0.962 . S
C1382 H1396 0.960 . S
C1383 C1380 1.511 . S
C1383 H1397 0.961 . S
C1383 H1398 0.961 1_554 S
C1383 H1399 0.961 1_554 S
C1384 C1385 1.370 . S
C1384 C1386 1.363 . S
C1384 H1400 0.931 . S
C1385 C1384 1.370 . S
C1385 C1389 1.408 . S
C1386 C1384 1.363 . S
C1386 C1387 1.370 1_556 S
C1386 C1390 1.520 1_556 S
C1387 C1379 1.503 . S
C1387 C1386 1.370 1_554 S
C1387 C1388 1.403 1_554 S
C1388 C1387 1.403 1_556 S
C1388 C1389 1.404 . S
C1388 C1391 1.539 1_556 S
C1389 C1385 1.408 . S
C1389 C1388 1.404 . S
C1389 H1401 0.930 . S
C1390 C1386 1.520 1_554 S
C1390 H1402 0.964 . S
C1390 H1403 0.962 . S
C1390 H1404 0.954 1_554 S
C1391 C1388 1.539 1_554 S
C1391 H1405 0.958 . S
C1391 H1406 0.961 1_554 S
C1391 H1407 0.960 . S
H1392 C1376 0.931 . S
H1393 C1381 0.929 . S
H1394 C1382 0.960 . S
H1395 C1382 0.962 . S
H1396 C1382 0.960 . S
H1397 C1383 0.961 . S
H1398 C1383 0.961 1_556 S
H1399 C1383 0.961 1_556 S
H1400 C1384 0.931 . S
H1401 C1389 0.930 . S
H1402 C1390 0.964 . S
H1403 C1390 0.962 . S
H1404 C1390 0.954 1_556 S
H1405 C1391 0.958 . S
H1406 C1391 0.961 1_556 S
H1407 C1391 0.960 . S
C1408 C1409 1.391 . S
C1408 C1410 1.394 . S
C1408 H1424 0.931 . S
C1409 C1408 1.391 . S
C1409 C1413 1.376 . S
C1410 C1408 1.394 . S
C1410 C1411 1.369 . S
C1410 C1414 1.531 . S
C1411 C1410 1.369 . S
C1411 C1412 1.410 . S
C1411 C1419 1.503 1_554 S
C1412 C1411 1.410 . S
C1412 C1413 1.392 . S
C1412 C1415 1.511 . S
C1413 C1409 1.376 . S
C1413 C1412 1.392 . S
C1413 H1425 0.929 . S
C1414 C1410 1.531 . S
C1414 H1426 0.960 1_554 S
C1414 H1427 0.962 . S
C1414 H1428 0.960 . S
C1415 C1412 1.511 . S
C1415 H1429 0.961 . S
C1415 H1430 0.961 . S
C1415 H1431 0.961 . S
C1416 C1417 1.370 . S
C1416 C1418 1.363 . S
C1416 H1432 0.931 . S
C1417 C1416 1.370 . S
C1417 C1421 1.408 . S
C1418 C1416 1.363 . S
C1418 C1419 1.370 . S
C1418 C1422 1.524 1_556 S
C1419 C1411 1.503 1_556 S
C1419 C1418 1.370 . S
C1419 C1420 1.403 . S
C1420 C1419 1.403 . S
C1420 C1421 1.404 . S
C1420 C1423 1.539 . S
C1421 C1417 1.408 . S
C1421 C1420 1.404 . S
C1421 H1433 0.930 . S
C1422 C1418 1.524 1_554 S
C1422 H1434 0.956 . S
C1422 H1435 0.961 . S
C1422 H1436 0.961 . S
C1423 C1420 1.539 . S
C1423 H1437 0.958 . S
C1423 H1438 0.961 . S
C1423 H1439 0.960 1_556 S
H1424 C1408 0.931 . S
H1425 C1413 0.929 . S
H1426 C1414 0.960 1_556 S
H1427 C1414 0.962 . S
H1428 C1414 0.960 . S
H1429 C1415 0.961 . S
H1430 C1415 0.961 . S
H1431 C1415 0.961 . S
H1432 C1416 0.931 . S
H1433 C1421 0.930 . S
H1434 C1422 0.956 . S
H1435 C1422 0.961 . S
H1436 C1422 0.961 . S
H1437 C1423 0.958 . S
H1438 C1423 0.961 . S
H1439 C1423 0.960 1_554 S
C1440 C1441 1.391 . S
C1440 C1442 1.394 . S
C1440 H1456 0.931 . S
C1441 C1440 1.391 . S
C1441 C1445 1.376 . S
C1442 C1440 1.394 . S
C1442 C1443 1.369 . S
C1442 C1446 1.531 . S
C1443 C1442 1.369 . S
C1443 C1444 1.410 . S
C1443 C1451 1.503 . S
C1444 C1443 1.410 . S
C1444 C1445 1.392 . S
C1444 C1447 1.511 . S
C1445 C1441 1.376 . S
C1445 C1444 1.392 . S
C1445 H1457 0.929 . S
C1446 C1442 1.531 . S
C1446 H1458 0.960 . S
C1446 H1459 0.962 . S
C1446 H1460 0.960 . S
C1447 C1444 1.511 . S
C1447 H1461 0.961 . S
C1447 H1462 0.961 . S
C1447 H1463 0.961 . S
C1448 C1449 1.370 . S
C1448 C1450 1.363 . S
C1448 H1464 0.931 . S
C1449 C1448 1.370 . S
C1449 C1453 1.408 . S
C1450 C1448 1.363 . S
C1450 C1451 1.370 . S
C1450 C1454 1.524 . S
C1451 C1443 1.503 . S
C1451 C1450 1.370 . S
C1451 C1452 1.403 . S
C1452 C1451 1.403 . S
C1452 C1453 1.404 . S
C1452 C1455 1.539 . S
C1453 C1449 1.408 . S
C1453 C1452 1.404 . S
C1453 H1465 0.930 . S
C1454 C1450 1.524 . S
C1454 H1466 0.956 . S
C1454 H1467 0.961 . S
C1454 H1468 0.961 . S
C1455 C1452 1.539 . S
C1455 H1469 0.958 . S
C1455 H1470 0.961 . S
C1455 H1471 0.960 . S
H1456 C1440 0.931 . S
H1457 C1445 0.929 . S
H1458 C1446 0.960 . S
H1459 C1446 0.962 . S
H1460 C1446 0.960 . S
H1461 C1447 0.961 . S
H1462 C1447 0.961 . S
H1463 C1447 0.961 . S
H1464 C1448 0.931 . S
H1465 C1453 0.930 . S
H1466 C1454 0.956 . S
H1467 C1454 0.961 . S
H1468 C1454 0.961 . S
H1469 C1455 0.958 . S
H1470 C1455 0.961 . S
H1471 C1455 0.960 . S
C1472 C1473 1.391 . S
C1472 C1474 1.394 . S
C1472 H1488 0.931 . S
C1473 C1472 1.391 . S
C1473 C1477 1.376 . S
C1474 C1472 1.394 . S
C1474 C1475 1.369 . S
C1474 C1478 1.531 . S
C1475 C1474 1.369 . S
C1475 C1476 1.410 . S
C1475 C1483 1.503 . S
C1476 C1475 1.410 . S
C1476 C1477 1.392 . S
C1476 C1479 1.511 . S
C1477 C1473 1.376 . S
C1477 C1476 1.392 . S
C1477 H1489 0.929 . S
C1478 C1474 1.531 . S
C1478 H1490 0.960 . S
C1478 H1491 0.962 . S
C1478 H1492 0.960 . S
C1479 C1476 1.511 . S
C1479 H1493 0.961 . S
C1479 H1494 0.961 . S
C1479 H1495 0.961 . S
C1480 C1481 1.370 . S
C1480 C1482 1.363 . S
C1480 H1496 0.931 . S
C1481 C1480 1.370 . S
C1481 C1485 1.408 . S
C1482 C1480 1.363 . S
C1482 C1483 1.370 . S
C1482 C1486 1.524 . S
C1483 C1475 1.503 . S
C1483 C1482 1.370 . S
C1483 C1484 1.403 . S
C1484 C1483 1.403 . S
C1484 C1485 1.404 . S
C1484 C1487 1.539 . S
C1485 C1481 1.408 . S
C1485 C1484 1.404 . S
C1485 H1497 0.930 . S
C1486 C1482 1.524 . S
C1486 H1498 0.956 . S
C1486 H1499 0.961 . S
C1486 H1500 0.961 . S
C1487 C1484 1.539 . S
C1487 H1501 0.958 . S
C1487 H1502 0.961 . S
C1487 H1503 0.960 . S
H1488 C1472 0.931 . S
H1489 C1477 0.929 . S
H1490 C1478 0.960 . S
H1491 C1478 0.962 . S
H1492 C1478 0.960 . S
H1493 C1479 0.961 . S
H1494 C1479 0.961 . S
H1495 C1479 0.961 . S
H1496 C1480 0.931 . S
H1497 C1485 0.930 . S
H1498 C1486 0.956 . S
H1499 C1486 0.961 . S
H1500 C1486 0.961 . S
H1501 C1487 0.958 . S
H1502 C1487 0.961 . S
H1503 C1487 0.960 . S
C1504 C1505 1.391 . S
C1504 C1506 1.394 . S
C1504 H1520 0.931 . S
C1505 C1504 1.391 . S
C1505 C1509 1.376 . S
C1506 C1504 1.394 . S
C1506 C1507 1.369 . S
C1506 C1510 1.494 1_565 S
C1507 C1506 1.369 . S
C1507 C1508 1.410 . S
C1507 C1515 1.503 . S
C1508 C1507 1.410 . S
C1508 C1509 1.392 . S
C1508 C1511 1.511 . S
C1509 C1505 1.376 . S
C1509 C1508 1.392 . S
C1509 H1521 0.929 . S
C1510 C1506 1.494 1_545 S
C1510 H1522 1.007 . S
C1510 H1523 0.928 1_545 S
C1510 H1524 0.988 . S
C1511 C1508 1.511 . S
C1511 H1525 0.961 . S
C1511 H1526 0.961 . S
C1511 H1527 0.961 . S
C1512 C1513 1.370 1_565 S
C1512 C1514 1.363 . S
C1512 H1528 0.931 . S
C1513 C1512 1.370 1_545 S
C1513 C1517 1.408 . S
C1514 C1512 1.363 . S
C1514 C1515 1.370 . S
C1514 C1518 1.524 . S
C1515 C1507 1.503 . S
C1515 C1514 1.370 . S
C1515 C1516 1.403 1_565 S
C1516 C1515 1.403 1_545 S
C1516 C1517 1.404 . S
C1516 C1519 1.539 . S
C1517 C1513 1.408 . S
C1517 C1516 1.404 . S
C1517 H1529 0.930 . S
C1518 C1514 1.524 . S
C1518 H1530 0.956 . S
C1518 H1531 0.961 . S
C1518 H1532 0.961 . S
C1519 C1516 1.539 . S
C1519 H1533 0.958 . S
C1519 H1534 0.961 . S
C1519 H1535 0.960 . S
H1520 C1504 0.931 . S
H1521 C1509 0.929 . S
H1522 C1510 1.007 . S
H1523 C1510 0.928 1_565 S
H1524 C1510 0.988 . S
H1525 C1511 0.961 . S
H1526 C1511 0.961 . S
H1527 C1511 0.961 . S
H1528 C1512 0.931 . S
H1529 C1517 0.930 . S
H1530 C1518 0.956 . S
H1531 C1518 0.961 . S
H1532 C1518 0.961 . S
H1533 C1519 0.958 . S
H1534 C1519 0.961 . S
H1535 C1519 0.960 . S
C1536 C1537 1.391 . S
C1536 C1538 1.394 . S
C1536 H1552 0.931 . S
C1537 C1536 1.391 . S
C1537 C1541 1.376 . S
C1538 C1536 1.394 . S
C1538 C1539 1.369 . S
C1538 C1542 1.531 . S
C1539 C1538 1.369 . S
C1539 C1540 1.410 . S
C1539 C1547 1.503 . S
C1540 C1539 1.410 . S
C1540 C1541 1.392 . S
C1540 C1543 1.511 1_545 S
C1541 C1537 1.376 . S
C1541 C1540 1.392 . S
C1541 H1553 0.929 . S
C1542 C1538 1.531 . S
C1542 H1554 0.960 . S
C1542 H1555 0.962 . S
C1542 H1556 0.960 . S
C1543 C1540 1.511 1_565 S
C1543 H1557 0.961 . S
C1543 H1558 0.961 . S
C1543 H1559 0.961 . S
C1544 C1545 1.370 . S
C1544 C1546 1.363 1_565 S
C1544 H1560 0.931 . S
C1545 C1544 1.370 . S
C1545 C1549 1.408 . S
C1546 C1544 1.363 1_545 S
C1546 C1547 1.370 . S
C1546 C1550 1.524 . S
C1547 C1539 1.503 . S
C1547 C1546 1.370 . S
C1547 C1548 1.403 . S
C1548 C1547 1.403 . S
C1548 C1549 1.404 1_545 S
C1548 C1551 1.539 . S
C1549 C1545 1.408 . S
C1549 C1548 1.404 1_565 S
C1549 H1561 0.930 . S
C1550 C1546 1.524 . S
C1550 H1562 0.956 . S
C1550 H1563 0.961 . S
C1550 H1564 0.961 . S
C1551 C1548 1.539 . S
C1551 H1565 0.958 . S
C1551 H1566 0.961 1_545 S
C1551 H1567 0.960 . S
H1552 C1536 0.931 . S
H1553 C1541 0.929 . S
H1554 C1542 0.960 . S
H1555 C1542 0.962 . S
H1556 C1542 0.960 . S
H1557 C1543 0.961 . S
H1558 C1543 0.961 . S
H1559 C1543 0.961 . S
H1560 C1544 0.931 . S
H1561 C1549 0.930 . S
H1562 C1550 0.956 . S
H1563 C1550 0.961 . S
H1564 C1550 0.961 . S
H1565 C1551 0.958 . S
H1566 C1551 0.961 1_565 S
H1567 C1551 0.960 . S
C1568 C1569 1.391 . S
C1568 C1570 1.394 . S
C1568 H1584 0.931 . S
C1569 C1568 1.391 . S
C1569 C1573 1.376 1_556 S
C1570 C1568 1.394 . S
C1570 C1571 1.369 . S
C1570 C1574 1.531 . S
C1571 C1570 1.369 . S
C1571 C1572 1.410 1_556 S
C1571 C1579 1.503 . S
C1572 C1571 1.410 1_554 S
C1572 C1573 1.392 . S
C1572 C1575 1.511 . S
C1573 C1569 1.376 1_554 S
C1573 C1572 1.392 . S
C1573 H1585 0.929 . S
C1574 C1570 1.531 . S
C1574 H1586 0.960 . S
C1574 H1587 0.962 . S
C1574 H1588 0.960 . S
C1575 C1572 1.511 . S
C1575 H1589 0.961 . S
C1575 H1590 0.961 . S
C1575 H1591 0.961 . S
C1576 C1577 1.370 1_554 S
C1576 C1578 1.363 . S
C1576 H1592 0.931 . S
C1577 C1576 1.370 1_556 S
C1577 C1581 1.408 . S
C1578 C1576 1.363 . S
C1578 C1579 1.370 1_554 S
C1578 C1582 1.524 . S
C1579 C1571 1.503 . S
C1579 C1578 1.370 1_556 S
C1579 C1580 1.403 . S
C1580 C1579 1.403 . S
C1580 C1581 1.404 . S
C1580 C1583 1.539 . S
C1581 C1577 1.408 . S
C1581 C1580 1.404 . S
C1581 H1593 0.930 . S
C1582 C1578 1.524 . S
C1582 H1594 0.956 . S
C1582 H1595 0.961 . S
C1582 H1596 0.961 . S
C1583 C1580 1.539 . S
C1583 H1597 0.958 . S
C1583 H1598 0.961 . S
C1583 H1599 0.960 . S
H1584 C1568 0.931 . S
H1585 C1573 0.929 . S
H1586 C1574 0.960 . S
H1587 C1574 0.962 . S
H1588 C1574 0.960 . S
H1589 C1575 0.961 . S
H1590 C1575 0.961 . S
H1591 C1575 0.961 . S
H1592 C1576 0.931 . S
H1593 C1581 0.930 . S
H1594 C1582 0.956 . S
H1595 C1582 0.961 . S
H1596 C1582 0.961 . S
H1597 C1583 0.958 . S
H1598 C1583 0.961 . S
H1599 C1583 0.960 . S
C1600 C1601 1.391 . S
C1600 C1602 1.394 . S
C1600 H1616 0.931 . S
C1601 C1600 1.391 . S
C1601 C1605 1.376 1_554 S
C1602 C1600 1.394 . S
C1602 C1603 1.369 . S
C1602 C1606 1.531 . S
C1603 C1602 1.369 . S
C1603 C1604 1.410 1_554 S
C1603 C1611 1.503 . S
C1604 C1603 1.410 1_556 S
C1604 C1605 1.392 . S
C1604 C1607 1.511 . S
C1605 C1601 1.376 1_556 S
C1605 C1604 1.392 . S
C1605 H1617 0.929 . S
C1606 C1602 1.531 . S
C1606 H1618 0.960 . S
C1606 H1619 0.962 . S
C1606 H1620 0.960 . S
C1607 C1604 1.511 . S
C1607 H1621 0.961 . S
C1607 H1622 0.961 . S
C1607 H1623 0.961 . S
C1608 C1609 1.371 . S
C1608 C1610 1.363 . S
C1608 H1624 0.931 . S
C1609 C1608 1.371 . S
C1609 C1613 1.408 1_556 S
C1610 C1608 1.363 . S
C1610 C1611 1.370 1_556 S
C1610 C1614 1.524 . S
C1611 C1603 1.503 . S
C1611 C1610 1.370 1_554 S
C1611 C1612 1.403 . S
C1612 C1611 1.403 . S
C1612 C1613 1.404 . S
C1612 C1615 1.539 . S
C1613 C1609 1.408 1_554 S
C1613 C1612 1.404 . S
C1613 H1625 0.930 . S
C1614 C1610 1.524 . S
C1614 H1626 0.956 . S
C1614 H1627 0.961 . S
C1614 H1628 0.961 . S
C1615 C1612 1.539 . S
C1615 H1629 0.958 . S
C1615 H1630 0.961 . S
C1615 H1631 0.960 . S
H1616 C1600 0.931 . S
H1617 C1605 0.929 . S
H1618 C1606 0.960 . S
H1619 C1606 0.962 . S
H1620 C1606 0.960 . S
H1621 C1607 0.961 . S
H1622 C1607 0.961 . S
H1623 C1607 0.961 . S
H1624 C1608 0.931 . S
H1625 C1613 0.930 . S
H1626 C1614 0.956 . S
H1627 C1614 0.961 . S
H1628 C1614 0.961 . S
H1629 C1615 0.958 . S
H1630 C1615 0.961 . S
H1631 C1615 0.960 . S
C1632 C1633 1.391 . S
C1632 C1634 1.394 . S
C1632 H1648 0.931 . S
C1633 C1632 1.391 . S
C1633 C1637 1.376 . S
C1634 C1632 1.394 . S
C1634 C1635 1.369 . S
C1634 C1638 1.531 1_455 S
C1635 C1634 1.369 . S
C1635 C1636 1.410 . S
C1635 C1643 1.503 1_455 S
C1636 C1635 1.410 . S
C1636 C1637 1.392 . S
C1636 C1639 1.511 . S
C1637 C1633 1.376 . S
C1637 C1636 1.392 . S
C1637 H1649 0.929 . S
C1638 C1634 1.531 1_655 S
C1638 H1650 0.960 . S
C1638 H1651 0.962 . S
C1638 H1652 0.960 . S
C1639 C1636 1.511 . S
C1639 H1653 0.961 . S
C1639 H1654 0.961 . S
C1639 H1655 0.961 . S
C1640 C1641 1.370 . S
C1640 C1642 1.363 . S
C1640 H1656 0.931 . S
C1641 C1640 1.370 . S
C1641 C1645 1.408 . S
C1642 C1640 1.363 . S
C1642 C1643 1.370 . S
C1642 C1646 1.524 . S
C1643 C1635 1.503 1_655 S
C1643 C1642 1.370 . S
C1643 C1644 1.403 . S
C1644 C1643 1.403 . S
C1644 C1645 1.404 . S
C1644 C1647 1.519 1_655 S
C1645 C1641 1.408 . S
C1645 C1644 1.404 . S
C1645 H1657 0.930 . S
C1646 C1642 1.524 . S
C1646 H1658 0.956 . S
C1646 H1659 0.961 . S
C1646 H1660 0.961 . S
C1647 C1644 1.519 1_455 S
C1647 H1661 0.949 1_455 S
C1647 H1662 0.960 1_455 S
C1647 H1663 0.991 . S
H1648 C1632 0.931 . S
H1649 C1637 0.929 . S
H1650 C1638 0.960 . S
H1651 C1638 0.962 . S
H1652 C1638 0.960 . S
H1653 C1639 0.961 . S
H1654 C1639 0.961 . S
H1655 C1639 0.961 . S
H1656 C1640 0.931 . S
H1657 C1645 0.930 . S
H1658 C1646 0.956 . S
H1659 C1646 0.961 . S
H1660 C1646 0.961 . S
H1661 C1647 0.949 1_655 S
H1662 C1647 0.960 1_655 S
H1663 C1647 0.991 . S
C1664 C1665 1.391 . S
C1664 C1666 1.394 . S
C1664 H1680 0.931 . S
C1665 C1664 1.391 . S
C1665 C1669 1.376 . S
C1666 C1664 1.394 . S
C1666 C1667 1.369 . S
C1666 C1670 1.531 . S
C1667 C1666 1.369 . S
C1667 C1668 1.410 . S
C1667 C1675 1.503 . S
C1668 C1667 1.410 . S
C1668 C1669 1.392 . S
C1668 C1671 1.511 . S
C1669 C1665 1.376 . S
C1669 C1668 1.392 . S
C1669 H1681 0.929 . S
C1670 C1666 1.531 . S
C1670 H1682 0.960 . S
C1670 H1683 0.962 . S
C1670 H1684 0.960 . S
C1671 C1668 1.511 . S
C1671 H1685 0.961 . S
C1671 H1686 0.961 . S
C1671 H1687 0.961 . S
C1672 C1673 1.370 . S
C1672 C1674 1.363 . S
C1672 H1688 0.931 . S
C1673 C1672 1.370 . S
C1673 C1677 1.408 . S
C1674 C1672 1.363 . S
C1674 C1675 1.370 . S
C1674 C1678 1.524 . S
C1675 C1667 1.503 . S
C1675 C1674 1.370 . S
C1675 C1676 1.403 . S
C1676 C1675 1.403 . S
C1676 C1677 1.404 . S
C1676 C1679 1.539 . S
C1677 C1673 1.408 . S
C1677 C1676 1.404 . S
C1677 H1689 0.930 . S
C1678 C1674 1.524 . S
C1678 H1690 0.956 . S
C1678 H1691 0.961 . S
C1678 H1692 0.961 . S
C1679 C1676 1.539 . S
C1679 H1693 0.958 . S
C1679 H1694 0.961 . S
C1679 H1695 0.960 . S
H1680 C1664 0.931 . S
H1681 C1669 0.929 . S
H1682 C1670 0.960 . S
H1683 C1670 0.962 . S
H1684 C1670 0.960 . S
H1685 C1671 0.961 . S
H1686 C1671 0.961 . S
H1687 C1671 0.961 . S
H1688 C1672 0.931 . S
H1689 C1677 0.930 . S
H1690 C1678 0.956 . S
H1691 C1678 0.961 . S
H1692 C1678 0.961 . S
H1693 C1679 0.958 . S
H1694 C1679 0.961 . S
H1695 C1679 0.960 . S
C1696 C1697 1.391 . S
C1696 C1698 1.394 . S
C1696 H1712 0.931 . S
C1697 C1696 1.391 . S
C1697 C1701 1.376 . S
C1698 C1696 1.394 . S
C1698 C1699 1.369 . S
C1698 C1702 1.531 . S
C1699 C1698 1.369 . S
C1699 C1700 1.410 . S
C1699 C1707 1.503 . S
C1700 C1699 1.410 . S
C1700 C1701 1.392 . S
C1700 C1703 1.511 . S
C1701 C1697 1.376 . S
C1701 C1700 1.392 . S
C1701 H1713 0.929 . S
C1702 C1698 1.531 . S
C1702 H1714 0.960 . S
C1702 H1715 0.962 . S
C1702 H1716 0.960 . S
C1703 C1700 1.511 . S
C1703 H1717 0.961 . S
C1703 H1718 0.961 . S
C1703 H1719 0.961 . S
C1704 C1705 1.370 . S
C1704 C1706 1.363 . S
C1704 H1720 0.931 . S
C1705 C1704 1.370 . S
C1705 C1709 1.408 . S
C1706 C1704 1.363 . S
C1706 C1707 1.370 . S
C1706 C1710 1.524 . S
C1707 C1699 1.503 . S
C1707 C1706 1.370 . S
C1707 C1708 1.403 . S
C1708 C1707 1.403 . S
C1708 C1709 1.404 . S
C1708 C1711 1.539 . S
C1709 C1705 1.408 . S
C1709 C1708 1.404 . S
C1709 H1721 0.930 . S
C1710 C1706 1.524 . S
C1710 H1722 0.956 . S
C1710 H1723 0.961 . S
C1710 H1724 0.961 . S
C1711 C1708 1.539 . S
C1711 H1725 0.958 . S
C1711 H1726 0.961 . S
C1711 H1727 0.960 . S
H1712 C1696 0.931 . S
H1713 C1701 0.929 . S
H1714 C1702 0.960 . S
H1715 C1702 0.962 . S
H1716 C1702 0.960 . S
H1717 C1703 0.961 . S
H1718 C1703 0.961 . S
H1719 C1703 0.961 . S
H1720 C1704 0.931 . S
H1721 C1709 0.930 . S
H1722 C1710 0.956 . S
H1723 C1710 0.961 . S
H1724 C1710 0.961 . S
H1725 C1711 0.958 . S
H1726 C1711 0.961 . S
H1727 C1711 0.960 . S
C1728 C1729 1.391 . S
C1728 C1730 1.394 1_545 S
C1728 H1744 0.931 . S
C1729 C1728 1.391 . S
C1729 C1733 1.376 . S
C1730 C1728 1.394 1_565 S
C1730 C1731 1.369 1_565 S
C1730 C1734 1.531 . S
C1731 C1730 1.369 1_545 S
C1731 C1732 1.410 . S
C1731 C1739 1.503 1_445 S
C1732 C1731 1.410 . S
C1732 C1733 1.392 . S
C1732 C1735 1.511 1_455 S
C1733 C1729 1.376 . S
C1733 C1732 1.392 . S
C1733 H1745 0.929 . S
C1734 C1730 1.531 . S
C1734 H1746 0.960 . S
C1734 H1747 0.962 . S
C1734 H1748 0.960 . S
C1735 C1732 1.511 1_655 S
C1735 H1749 0.961 . S
C1735 H1750 0.961 . S
C1735 H1751 0.961 . S
C1736 C1737 1.370 . S
C1736 C1738 1.363 . S
C1736 H1752 0.931 . S
C1737 C1736 1.370 . S
C1737 C1741 1.408 . S
C1738 C1736 1.363 . S
C1738 C1739 1.370 . S
C1738 C1742 1.524 . S
C1739 C1731 1.503 1_665 S
C1739 C1738 1.370 . S
C1739 C1740 1.403 . S
C1740 C1739 1.403 . S
C1740 C1741 1.404 . S
C1740 C1743 1.539 . S
C1741 C1737 1.408 . S
C1741 C1740 1.404 . S
C1741 H1753 0.930 . S
C1742 C1738 1.524 . S
C1742 H1754 0.956 1_655 S
C1742 H1755 0.961 1_565 S
C1742 H1756 0.961 . S
C1743 C1740 1.539 . S
C1743 H1757 0.958 . S
C1743 H1758 0.961 . S
C1743 H1759 0.960 1_565 S
H1744 C1728 0.931 . S
H1745 C1733 0.929 . S
H1746 C1734 0.960 . S
H1747 C1734 0.962 . S
H1748 C1734 0.960 . S
H1749 C1735 0.961 . S
H1750 C1735 0.961 . S
H1751 C1735 0.961 . S
H1752 C1736 0.931 . S
H1753 C1741 0.930 . S
H1754 C1742 0.956 1_455 S
H1755 C1742 0.961 1_545 S
H1756 C1742 0.961 . S
H1757 C1743 0.958 . S
H1758 C1743 0.961 . S
H1759 C1743 0.960 1_545 S
C1760 C1761 1.391 . S
C1760 C1762 1.394 . S
C1760 H1776 0.931 . S
C1761 C1760 1.391 . S
C1761 C1765 1.376 . S
C1762 C1760 1.394 . S
C1762 C1763 1.369 . S
C1762 C1766 1.531 . S
C1763 C1762 1.369 . S
C1763 C1764 1.410 . S
C1763 C1771 1.503 . S
C1764 C1763 1.410 . S
C1764 C1765 1.392 . S
C1764 C1767 1.511 . S
C1765 C1761 1.376 . S
C1765 C1764 1.392 . S
C1765 H1777 0.929 . S
C1766 C1762 1.531 . S
C1766 H1778 0.960 . S
C1766 H1779 0.962 . S
C1766 H1780 0.960 . S
C1767 C1764 1.511 . S
C1767 H1781 0.961 . S
C1767 H1782 0.961 . S
C1767 H1783 0.961 . S
C1768 C1769 1.370 . S
C1768 C1770 1.363 . S
C1768 H1784 0.931 . S
C1769 C1768 1.370 . S
C1769 C1773 1.408 . S
C1770 C1768 1.363 . S
C1770 C1771 1.370 . S
C1770 C1774 1.524 . S
C1771 C1763 1.503 . S
C1771 C1770 1.370 . S
C1771 C1772 1.403 . S
C1772 C1771 1.403 . S
C1772 C1773 1.404 . S
C1772 C1775 1.539 . S
C1773 C1769 1.408 . S
C1773 C1772 1.404 . S
C1773 H1785 0.930 . S
C1774 C1770 1.524 . S
C1774 H1786 0.956 . S
C1774 H1787 0.961 . S
C1774 H1788 0.961 . S
C1775 C1772 1.539 . S
C1775 H1789 0.958 . S
C1775 H1790 0.961 . S
C1775 H1791 0.960 . S
H1776 C1760 0.931 . S
H1777 C1765 0.929 . S
H1778 C1766 0.960 . S
H1779 C1766 0.962 . S
H1780 C1766 0.960 . S
H1781 C1767 0.961 . S
H1782 C1767 0.961 . S
H1783 C1767 0.961 . S
H1784 C1768 0.931 . S
H1785 C1773 0.930 . S
H1786 C1774 0.956 . S
H1787 C1774 0.961 . S
H1788 C1774 0.961 . S
H1789 C1775 0.958 . S
H1790 C1775 0.961 . S
H1791 C1775 0.960 . S
C1792 C1793 1.391 . S
C1792 C1794 1.394 . S
C1792 H1808 0.931 . S
C1793 C1792 1.391 . S
C1793 C1797 1.376 . S
C1794 C1792 1.394 . S
C1794 C1795 1.369 . S
C1794 C1798 1.531 . S
C1795 C1794 1.369 . S
C1795 C1796 1.433 . S
C1795 C1803 1.503 1_565 S
C1796 C1795 1.433 . S
C1796 C1797 1.428 . S
C1796 C1799 1.456 1_565 S
C1797 C1793 1.376 . S
C1797 C1796 1.428 . S
C1797 H1809 0.929 . S
C1798 C1794 1.531 . S
C1798 H1810 0.960 . S
C1798 H1811 0.962 . S
C1798 H1812 0.960 . S
C1799 C1796 1.456 1_545 S
C1799 H1813 0.961 . S
C1799 H1814 0.961 . S
C1799 H1815 0.961 . S
C1800 C1801 1.370 . S
C1800 C1802 1.363 . S
C1800 H1816 0.931 . S
C1801 C1800 1.370 . S
C1801 C1805 1.408 . S
C1802 C1800 1.363 . S
C1802 C1803 1.370 . S
C1802 C1806 1.524 . S
C1803 C1795 1.503 1_545 S
C1803 C1802 1.370 . S
C1803 C1804 1.403 . S
C1804 C1803 1.403 . S
C1804 C1805 1.404 . S
C1804 C1807 1.539 1_545 S
C1805 C1801 1.408 . S
C1805 C1804 1.404 . S
C1805 H1817 0.930 . S
C1806 C1802 1.524 . S
C1806 H1818 0.956 . S
C1806 H1819 0.961 . S
C1806 H1820 0.961 . S
C1807 C1804 1.539 1_565 S
C1807 H1821 0.958 . S
C1807 H1822 0.961 . S
C1807 H1823 0.960 . S
H1808 C1792 0.931 . S
H1809 C1797 0.929 . S
H1810 C1798 0.960 . S
H1811 C1798 0.962 . S
H1812 C1798 0.960 . S
H1813 C1799 0.961 . S
H1814 C1799 0.961 . S
H1815 C1799 0.961 . S
H1816 C1800 0.931 . S
H1817 C1805 0.930 . S
H1818 C1806 0.956 . S
H1819 C1806 0.961 . S
H1820 C1806 0.961 . S
H1821 C1807 0.958 . S
H1822 C1807 0.961 . S
H1823 C1807 0.960 . S
C545 C5 1.370 . S
C553 C394 1.440 . S
C577 C39 1.385 . S
C585 C360 1.442 . S
C609 C54 1.433 . S
C617 C73 1.411 . S
C641 C20 1.440 . S
C649 C107 1.396 . S
C673 C141 1.370 . S
C681 C530 1.440 . S
C705 C175 1.423 . S
C713 C496 1.440 . S
C737 C190 1.437 . S
C745 C209 1.410 . S
C769 C243 1.390 . S
C777 C156 1.441 . S
C801 C122 1.437 . S
C809 C277 1.412 . S
C833 C88 1.437 . S
C841 C311 1.411 . S
C865 C326 1.432 . S
C873 C345 1.403 . S
C897 C292 1.434 . S
C905 C379 1.413 . S
C929 C413 1.425 . S
C937 C258 1.440 . S
C961 C447 1.416 . S
C969 C224 1.439 . S
C993 C481 1.368 . S
C1001 C462 1.439 . S
C1025 C428 1.434 . S
C1033 C515 1.391 . S
C1057 C203 1.539 . S
C1065 C9 1.516 . S
C1089 C169 1.535 . S
C1097 C43 1.497 . S
C1121 C77 1.528 . S
C1129 C407 1.542 . S
C1153 C373 1.535 . S
C1161 C111 1.509 . S
C1185 C67 1.540 . S
C1193 C145 1.510 . S
C1217 C33 1.535 . S
C1225 C179 1.502 . S
C1249 C213 1.513 . S
C1257 C543 1.542 . S
C1281 C247 1.513 . S
C1289 C509 1.540 . S
C1313 C281 1.492 . S
C1321 C475 1.541 . S
C1345 C441 1.539 . S
C1353 C315 1.521 . S
C1377 C135 1.532 . S
C1385 C349 1.501 . S
C1409 C101 1.540 . S
C1417 C383 1.512 . S
C1441 C339 1.537 . S
C1449 C417 1.514 . S
C1473 C305 1.534 . S
C1481 C451 1.509 . S
C1505 C271 1.533 . S
C1513 C485 1.503 . S
C1537 C237 1.540 . S
C1545 C519 1.518 . S
C1569 C444 1.687 . S
C1577 C2 1.694 . S
C1601 C36 1.695 1_554 S
C1609 C410 1.697 . S
C1633 C70 1.686 . S
C1641 C104 1.694 . S
C1665 C308 1.686 . S
C1673 C138 1.693 . S
C1697 C172 1.687 . S
C1705 C274 1.694 . S
C1729 C206 1.697 . S
C1737 C240 1.698 . S
C1761 C376 1.688 . S
C1769 C342 1.695 . S
C1793 C512 1.687 . S
C1801 C478 1.693 . S
