# Generated by pormake.
# Topology bsn, (6)-cn, num edge types: 1
# Building blocks:
#     Node 0, Type 0, BuildingBlock: PAMTOO_clean_sbu_0, # of connection points: 6
#     Node 1, Type 0, BuildingBlock: PAMTOO_clean_sbu_0, # of connection points: 6
#     Node 2, Type 0, BuildingBlock: PAMTOO_clean_sbu_0, # of connection points: 6
#     Node 3, Type 0, BuildingBlock: PAMTOO_clean_sbu_0, # of connection points: 6
#     Edge 4, Type (0, 0), BuildingBlock: TEMPAE_clean_linker_10, # of connection points: 2
#     Edge 5, Type (0, 0), BuildingBlock: TEMPAE_clean_linker_10, # of connection points: 2
#     Edge 6, Type (0, 0), BuildingBlock: TEMPAE_clean_linker_10, # of connection points: 2
#     Edge 7, Type (0, 0), BuildingBlock: TEMPAE_clean_linker_10, # of connection points: 2
#     Edge 8, Type (0, 0), BuildingBlock: TEMPAE_clean_linker_10, # of connection points: 2
#     Edge 9, Type (0, 0), BuildingBlock: TEMPAE_clean_linker_10, # of connection points: 2
#     Edge 10, Type (0, 0), BuildingBlock: TEMPAE_clean_linker_10, # of connection points: 2
#     Edge 11, Type (0, 0), BuildingBlock: TEMPAE_clean_linker_10, # of connection points: 2
#     Edge 12, Type (0, 0), BuildingBlock: TEMPAE_clean_linker_10, # of connection points: 2
#     Edge 13, Type (0, 0), BuildingBlock: TEMPAE_clean_linker_10, # of connection points: 2
#     Edge 14, Type (0, 0), BuildingBlock: TEMPAE_clean_linker_10, # of connection points: 2
#     Edge 15, Type (0, 0), BuildingBlock: TEMPAE_clean_linker_10, # of connection points: 2
# Relax obj value: 0.036
# Max RMSD: 0.147
# Mean RMSD: 0.147
data_MOF--net-bsn--node1-PAMTOO_clean_sbu_0--edge1-TEMPAE_clean_linker_10
_symmetry_space_group_name_H-M    P1
_symmetry_Int_Tables_number       1
_symmetry_cell_setting            triclinic
loop_
_symmetry_equiv_pos_as_xyz
'x, y, z'
_cell_length_a     51.63365
_cell_length_b     29.737103
_cell_length_c     14.747588
_cell_angle_alpha  83.963607
_cell_angle_beta   98.084475
_cell_angle_gamma 117.61614
loop_
_atom_site_label
_atom_site_type_symbol
_atom_site_fract_x
_atom_site_fract_y
_atom_site_fract_z
_atom_type_partial_charge
Dy0 Dy 0.13242 0.29708 0.36007 0.0
Dy1 Dy 0.05814 0.23039 0.34296 0.0
C2 C 0.09238 0.28591 0.1771 0.0
O3 O 0.11675 0.35658 0.36346 0.0
O4 O 0.06737 0.30633 0.38459 0.0
O5 O 0.17177 0.34983 0.29799 0.0
O6 O 0.17515 0.31201 0.42974 0.0
O7 O 0.07729 0.22073 0.48375 0.0
O8 O 0.11808 0.29818 0.49292 0.0
O9 O 0.07558 0.17902 0.30845 0.0
O10 O 0.12081 0.21533 0.39155 0.0
O11 O 1.01735 0.19679 0.40438 0.0
O12 O 1.0173 0.1854 0.26136 0.0
C13 C 0.09097 0.35064 0.38283 0.0
O14 O 0.11306 0.27513 0.21865 0.0
O15 O 0.07132 0.28254 0.22125 0.0
C16 C 0.21183 0.32997 0.33266 0.0
C17 C 0.25587 0.30812 0.28307 0.0
C18 C 0.22583 0.27638 0.25772 0.0
C19 C 0.20404 0.28718 0.28231 0.0
C20 C 0.24165 0.36178 0.3577 0.0
C21 C 0.26341 0.35105 0.33326 0.0
C22 C 0.18925 0.34106 0.36238 0.0
C23 C 0.09626 0.26015 0.53015 0.0
C24 C 0.09867 0.17595 0.35254 0.0
C25 C 0.97521 0.18725 0.30391 0.0
C26 C 0.92358 0.19959 0.26462 0.0
C27 C 0.94976 0.23856 0.30469 0.0
C28 C 0.97535 0.23249 0.32399 0.0
C29 C 0.94937 0.14872 0.26267 0.0
C30 C 0.92383 0.1548 0.24308 0.0
C31 C 1.00137 0.17872 0.32763 0.0
H32 H 0.21912 0.24332 0.21828 0.0
H33 H 0.18112 0.262 0.26248 0.0
H34 H 0.24814 0.39476 0.3972 0.0
H35 H 0.28618 0.37594 0.35543 0.0
H36 H 0.95033 0.27334 0.32309 0.0
H37 H 0.99509 0.26282 0.35573 0.0
H38 H 0.94886 0.11362 0.24626 0.0
H39 H 0.90428 0.12437 0.21083 0.0
Dy40 Dy 0.10568 0.75046 0.60045 0.0
Dy41 Dy 0.03196 0.70941 0.57404 0.0
C42 C 0.07024 0.73204 0.40774 0.0
O43 O 0.09868 0.81611 0.53688 0.0
O44 O 0.05225 0.79426 0.57675 0.0
O45 O 0.14846 0.7817 0.55105 0.0
O46 O 0.14364 0.761 0.69565 0.0
O47 O 0.04908 0.71673 0.72078 0.0
O48 O 0.09465 0.78292 0.70777 0.0
O49 O 0.04055 0.64532 0.54488 0.0
O50 O 0.08226 0.66853 0.64382 0.0
O51 O 0.98991 0.66261 0.62664 0.0
O52 O 0.99219 0.70745 0.4998 0.0
C53 C 0.07712 0.82718 0.54426 0.0
O54 O 0.0896 0.72184 0.46087 0.0
O55 O 0.04848 0.73499 0.4384 0.0
C56 C 0.18354 0.758 0.63801 0.0
C57 C 0.23033 0.73208 0.65248 0.0
C58 C 0.21381 0.73119 0.56754 0.0
C59 C 0.19063 0.74402 0.56032 0.0
C60 C 0.19967 0.7579 0.72296 0.0
C61 C 0.22269 0.74498 0.73022 0.0
C62 C 0.16143 0.77713 0.63168 0.0
C63 C 0.07186 0.75723 0.75328 0.0
C64 C 0.06124 0.63516 0.58989 0.0
C65 C 0.95413 0.69376 0.58939 0.0
C66 C 0.91112 0.71925 0.63611 0.0
C67 C 0.93182 0.71411 0.70408 0.0
C68 C 0.95313 0.70163 0.68101 0.0
C69 C 0.93356 0.69901 0.52166 0.0
C70 C 0.91241 0.71169 0.54456 0.0
C71 C 0.97558 0.67862 0.5624 0.0
H72 H 0.21895 0.72097 0.50649 0.0
H73 H 0.17871 0.74391 0.49371 0.0
H74 H 0.19498 0.7692 0.78372 0.0
H75 H 0.2352 0.74688 0.7964 0.0
H76 H 0.93171 0.72017 0.77514 0.0
H77 H 0.96871 0.698 0.73492 0.0
H78 H 0.93368 0.69281 0.45064 0.0
H79 H 0.89665 0.71458 0.49051 0.0
Dy80 Dy 0.62659 0.79197 0.85713 0.0
Dy81 Dy 0.55234 0.72516 0.84426 0.0
C82 C 0.58661 0.7751 0.67646 0.0
O83 O 0.61107 0.85233 0.84791 0.0
O84 O 0.56145 0.80383 0.8675 0.0
O85 O 0.66529 0.84051 0.78851 0.0
O86 O 0.66977 0.80964 0.9265 0.0
O87 O 0.57177 0.72605 -0.01139 0.0
O88 O 0.61338 0.80274 -0.0149 0.0
O89 O 0.57012 0.67143 0.82699 0.0
O90 O 0.61498 0.71266 0.90984 0.0
O91 O 0.51196 0.69395 0.90747 0.0
O92 O 0.51118 0.67772 0.76679 0.0
C93 C 0.5851 0.84788 0.86172 0.0
O94 O 0.60604 0.76212 0.72085 0.0
O95 O 0.56507 0.77228 0.71718 0.0
C96 C 0.70579 0.82113 0.83016 0.0
C97 C 0.75034 0.79837 0.78718 0.0
C98 C 0.72705 0.79493 0.72086 0.0
C99 C 0.70503 0.80612 0.74205 0.0
C100 C 0.7289 0.8244 0.89637 0.0
C101 C 0.75081 0.81306 0.87538 0.0
C102 C 0.68316 0.83414 0.85477 0.0
C103 C 0.59158 0.76782 0.02737 0.0
C104 C 0.59292 0.67084 0.87815 0.0
C105 C 0.46945 0.68342 0.80615 0.0
C106 C 0.41764 0.69515 0.75978 0.0
C107 C 0.43291 0.70564 0.84797 0.0
C108 C 0.45842 0.69976 0.87092 0.0
C109 C 0.45426 0.67304 0.71787 0.0
C110 C 0.42872 0.67898 0.69488 0.0
C111 C 0.49558 0.67437 0.83207 0.0
H112 H 0.72605 0.78436 0.65193 0.0
H113 H 0.68754 0.80323 0.68929 0.0
H114 H 0.73003 0.83577 0.96483 0.0
H115 H 0.768 0.81535 0.92885 0.0
H116 H 0.42477 0.71731 0.9002 0.0
H117 H 0.46925 0.70737 0.94001 0.0
H118 H 0.46196 0.65988 0.66663 0.0
H119 H 0.41769 0.67101 0.62608 0.0
Dy120 Dy 0.61306 0.2569 0.12423 0.0
Dy121 Dy 0.53919 0.21228 0.11151 0.0
C122 C 0.57355 0.25206 0.93619 0.0
O123 O 0.60539 0.32432 0.0857 0.0
O124 O 0.55879 0.29624 0.13003 0.0
O125 O 0.65505 0.29044 0.06859 0.0
O126 O 0.65262 0.27218 0.21459 0.0
O127 O 0.55958 0.19522 0.24328 0.0
O128 O 0.5993 0.27143 0.24782 0.0
O129 O 0.54727 0.15235 0.0585 0.0
O130 O 0.59274 0.17232 0.13817 0.0
O131 O 0.50336 0.18802 0.19403 0.0
O132 O 0.49425 0.18403 0.04635 0.0
C133 C 0.58349 0.33252 0.10148 0.0
O134 O 0.59478 0.24257 -0.02103 0.0
O135 O 0.55243 0.25103 -0.0222 0.0
C136 C 0.69366 0.27625 0.15371 0.0
C137 C 0.74101 0.25188 0.17295 0.0
C138 C 0.71363 0.21954 0.12707 0.0
C139 C 0.69004 0.23154 0.11784 0.0
C140 C 0.72096 0.30866 0.1983 0.0
C141 C 0.74436 0.2967 0.20783 0.0
C142 C 0.66957 0.29013 0.14844 0.0
C143 C 0.57839 0.23442 0.289 0.0
C144 C 0.56922 0.14157 0.08738 0.0
C145 C 0.46197 0.19903 0.127 0.0
C146 C 0.41807 0.2281 0.14918 0.0
C147 C 0.44711 0.25528 0.18977 0.0
C148 C 0.46881 0.24104 0.17862 0.0
C149 C 0.43327 0.17278 0.08426 0.0
C150 C 0.4116 0.1872 0.09489 0.0
C151 C 0.48351 0.17933 0.12384 0.0
H152 H 0.7103 0.18459 0.09989 0.0
H153 H 0.66904 0.20589 0.08356 0.0
H154 H 0.72417 0.34336 0.22631 0.0
H155 H 0.76522 0.32286 0.2421 0.0
H156 H 0.45303 0.28743 0.23084 0.0
H157 H 0.49079 0.2622 0.21218 0.0
H158 H 0.42737 0.1401 0.04463 0.0
H159 H 0.38948 0.16513 0.06319 0.0
C160 C 0.06748 0.38382 0.47557 0.0
C161 C 0.08837 0.39388 0.41471 0.0
C162 C 0.06395 0.42296 0.50814 0.0
C163 C 0.08119 0.47366 0.47743 0.0
C164 C 0.10258 0.48438 0.41668 0.0
C165 C 0.10619 0.4443 0.38682 0.0
C166 C 0.04157 0.40987 0.57505 0.0
C167 C 0.1213 0.53807 0.38236 0.0
C168 C 0.0486 0.56426 0.4874 0.0
C169 C 0.06452 0.59094 0.56596 0.0
C170 C 0.05418 0.52664 0.45713 0.0
C171 C 0.07599 0.51496 0.50706 0.0
C172 C 0.09178 0.54111 0.58733 0.0
C173 C 0.08588 0.57878 0.61571 0.0
C174 C 0.03693 0.49974 0.37101 0.0
C175 C 0.11472 0.52903 0.64385 0.0
H176 H 0.054 0.34503 0.49919 0.0
H177 H 0.12242 0.45227 0.34019 0.0
H178 H 0.05216 0.43189 0.63755 0.0
H179 H 1.02417 0.42037 0.54382 0.0
H180 H 0.03105 0.36878 0.59585 0.0
H181 H 0.13721 0.54022 0.33651 0.0
H182 H 0.10705 0.55399 0.3443 0.0
H183 H 0.13365 0.56244 0.44113 0.0
H184 H 0.03232 0.57374 0.4478 0.0
H185 H 0.09832 0.5992 0.67647 0.0
H186 H 1.02425 0.45844 0.38719 0.0
H187 H 0.05219 0.50434 0.32076 0.0
H188 H 1.0214 0.51436 0.33839 0.0
H189 H 0.10378 0.49093 0.67847 0.0
H190 H 0.12767 0.55713 0.69711 0.0
H191 H 0.13005 0.52788 0.59952 0.0
C192 C 0.8035 0.81603 0.80015 0.0
C193 C 0.77411 0.78698 0.76481 0.0
C194 C 0.82603 0.80552 0.78077 0.0
C195 C 0.81925 0.76506 0.7241 0.0
C196 C 0.7897 0.7357 0.68781 0.0
C197 C 0.76756 0.74692 0.70862 0.0
C198 C 0.85718 0.8379 0.82082 0.0
C199 C 0.78144 0.69224 0.62709 0.0
C200 C 0.88052 0.7662 0.60421 0.0
C201 C 0.88805 0.73186 0.66012 0.0
C202 C 0.85833 0.77741 0.62432 0.0
C203 C 0.84308 0.75372 0.7023 0.0
C204 C 0.85068 0.71926 0.75938 0.0
C205 C 0.87304 0.70885 0.73778 0.0
C206 C 0.85116 0.81463 0.56189 0.0
C207 C 0.83498 0.69301 0.84298 0.0
H208 H 0.80903 0.8476 0.84233 0.0
H209 H 0.74498 0.7237 0.68183 0.0
H210 H 0.86587 0.81369 0.86285 0.0
H211 H 0.8715 0.8567 0.7649 0.0
H212 H 0.85883 0.8676 0.8644 0.0
H213 H 0.75754 0.67316 0.60395 0.0
H214 H 0.79374 0.7063 0.5658 0.0
H215 H 0.78765 0.66369 0.66443 0.0
H216 H 0.8922 0.78477 0.5448 0.0
H217 H 0.87837 0.68182 0.78086 0.0
H218 H 0.85428 0.84683 0.60143 0.0
H219 H 0.82775 0.79588 0.53324 0.0
H220 H 0.86506 0.82997 0.50419 0.0
H221 H 0.8373 0.72165 0.8902 0.0
H222 H 0.84358 0.66756 0.88079 0.0
H223 H 0.81115 0.67018 0.82242 0.0
C224 C 0.60594 0.41573 0.0152 0.0
C225 C 0.58572 0.38348 0.0761 0.0
C226 C 0.60697 0.46242 -0.01694 0.0
C227 C 0.58765 0.47772 0.0137 0.0
C228 C 0.56761 0.44597 0.07677 0.0
C229 C 0.56668 0.39886 0.10667 0.0
C230 C 0.62835 0.49492 0.91481 0.0
C231 C 0.54704 0.46161 0.112 0.0
C232 C 0.61029 0.61871 -0.01147 0.0
C233 C 0.59222 0.62156 0.90997 0.0
C234 C 0.60853 0.57194 0.02421 0.0
C235 C 0.58859 0.52708 -0.0207 0.0
C236 C 0.57052 0.52969 0.89934 0.0
C237 C 0.57238 0.57695 0.86599 0.0
C238 C 0.62792 0.57053 0.11018 0.0
C239 C 0.54941 0.48263 0.8487 0.0
H240 H 0.62048 0.40388 -0.00986 0.0
H241 H 0.55103 0.37406 0.15368 0.0
H242 H 0.61622 0.50145 0.85072 0.0
H243 H 0.64341 0.53264 0.94268 0.0
H244 H 0.64175 0.47727 0.89747 0.0
H245 H 0.53343 0.43329 0.16294 0.0
H246 H 0.5598 0.4988 0.14435 0.0
H247 H 0.5322 0.4665 0.0541 0.0
H248 H 0.62542 0.65296 0.02362 0.0
H249 H 0.55836 0.57897 0.80531 0.0
H250 H 0.64292 0.55564 0.09527 0.0
H251 H 0.61426 0.5444 0.16318 0.0
H252 H 0.64138 0.60863 0.13891 0.0
H253 H 0.56167 0.46429 0.82575 0.0
H254 H 0.5368 0.49114 0.78783 0.0
H255 H 0.53367 0.45472 0.89513 0.0
C256 C 0.86883 0.16395 0.26436 0.0
C257 C 0.89598 0.20514 0.24699 0.0
C258 C 0.84272 0.16879 0.24989 0.0
C259 C 0.84369 0.21605 0.21765 0.0
C260 C 0.87093 0.25764 0.19912 0.0
C261 C 0.8967 0.25168 0.21388 0.0
C262 C 0.81416 0.12355 0.27075 0.0
C263 C 0.87293 0.30869 0.16471 0.0
C264 C 0.77346 0.22215 0.11248 0.0
C265 C 0.76619 0.23949 0.18528 0.0
C266 C 0.79841 0.21372 0.12223 0.0
C267 C 0.81644 0.22266 0.20687 0.0
C268 C 0.80877 0.23894 0.28119 0.0
C269 C 0.78379 0.24711 0.26951 0.0
C270 C 0.80582 0.19629 0.0414 0.0
C271 C 0.82721 0.24852 0.37281 0.0
H272 H 0.86803 0.12803 0.29122 0.0
H273 H 0.91744 0.28352 0.19896 0.0
H274 H 0.80513 0.13209 0.32693 0.0
H275 H 0.79768 0.1155 0.20981 0.0
H276 H 0.8169 0.08886 0.29143 0.0
H277 H 0.89562 0.33683 0.15118 0.0
H278 H 0.85808 0.30454 0.10058 0.0
H279 H 0.86561 0.32391 0.21601 0.0
H280 H 0.76011 0.21654 0.04703 0.0
H281 H 0.77805 0.25967 0.32658 0.0
H282 H 0.8078 0.16086 0.06074 0.0
H283 H 0.8274 0.22547 0.02071 0.0
H284 H 0.78902 0.18927 -0.01859 0.0
H285 H 0.82919 0.21386 0.39977 0.0
H286 H 0.81784 0.25984 0.42437 0.0
H287 H 0.84975 0.27908 0.36453 0.0
C288 C 0.39252 0.25231 0.25438 0.0
C289 C 0.39442 0.24109 0.16609 0.0
C290 C 0.36995 0.26314 0.27223 0.0
C291 C 0.34868 0.26313 0.20007 0.0
C292 C 0.35058 0.25222 0.11063 0.0
C293 C 0.3733 0.24119 0.09483 0.0
C294 C 0.36872 0.27417 0.36872 0.0
C295 C 0.32858 0.25219 0.03151 0.0
C296 C 0.27527 0.24608 0.26378 0.0
C297 C 0.27927 0.29632 0.25874 0.0
C298 C 0.29746 0.23471 0.24397 0.0
C299 C 0.32448 0.27445 0.2184 0.0
C300 C 0.32854 0.32515 0.21212 0.0
C301 C 0.30598 0.33543 0.23221 0.0
C302 C 0.29215 0.18014 0.25177 0.0
C303 C 0.35687 0.3687 0.18478 0.0
H304 H 0.4084 0.2516 0.31027 0.0
H305 H 0.37469 0.23309 0.02622 0.0
H306 H 0.36984 0.31229 0.3697 0.0
H307 H 0.34751 0.2461 0.39356 0.0
H308 H 0.38692 0.27289 0.41718 0.0
H309 H 0.33318 0.24338 0.96599 0.0
H310 H 0.3061 0.22373 0.04609 0.0
H311 H 0.32877 0.28985 0.02284 0.0
H312 H 0.25497 0.21555 0.28527 0.0
H313 H 0.30924 0.37429 0.22656 0.0
H314 H 0.30845 0.1758 0.30481 0.0
H315 H 0.29517 0.16914 0.18593 0.0
H316 H 0.26973 0.15347 0.2701 0.0
H317 H 0.3755 0.37064 0.2348 0.0
H318 H 0.35643 0.40584 0.18134 0.0
H319 H 0.36122 0.36241 0.11684 0.0
C320 C 0.38753 0.74084 0.76788 0.0
C321 C 0.38997 0.70011 0.73661 0.0
C322 C 0.36124 0.74494 0.74996 0.0
C323 C 0.3367 0.70751 0.69917 0.0
C324 C 0.33912 0.66677 0.66598 0.0
C325 C 0.36568 0.66352 0.68518 0.0
C326 C 0.35962 0.78907 0.78642 0.0
C327 C 0.31349 0.62613 0.61153 0.0
C328 C 0.26182 0.6937 0.73567 0.0
C329 C 0.25633 0.72208 0.66007 0.0
C330 C 0.28752 0.68765 0.748 0.0
C331 C 0.30832 0.71046 0.68313 0.0
C332 C 0.30251 0.73784 0.60519 0.0
C333 C 0.27661 0.74333 0.5946 0.0
C334 C 0.29277 0.65792 0.83179 0.0
C335 C 0.32409 0.76267 0.53439 0.0
H336 H 0.40628 0.76973 0.80637 0.0
H337 H 0.36719 0.63157 0.66164 0.0
H338 H 0.3533 0.81063 0.72928 0.0
H339 H 0.34241 0.77475 0.83428 0.0
H340 H 0.38082 0.81551 0.8231 0.0
H341 H 0.31928 0.59808 0.58745 0.0
H342 H 0.29498 0.60564 0.65429 0.0
H343 H 0.30556 0.64364 0.5511 0.0
H344 H 0.24607 0.67652 0.78586 0.0
H345 H 0.27275 0.76579 0.53653 0.0
H346 H 0.3126 0.68329 0.87534 0.0
H347 H 0.29696 0.62724 0.81122 0.0
H348 H 0.27387 0.64066 0.87358 0.0
H349 H 0.34492 0.79279 0.56607 0.0
H350 H 0.31554 0.77997 0.47498 0.0
H351 H 0.32941 0.73441 0.509 0.0
C352 C 0.60528 0.94254 0.87374 0.0
C353 C 0.58241 0.89315 0.88326 0.0
C354 C 0.60317 0.98445 0.90192 0.0
C355 C 0.57787 0.97652 0.94195 0.0
C356 C 0.55462 0.92691 0.95035 0.0
C357 C 0.55706 0.88609 0.92032 0.0
C358 C 0.6282 0.03705 0.89054 0.0
C359 C 0.52749 0.91659 -0.00592 0.0
C360 C 0.58403 0.07207 0.10611 0.0
C361 C 0.5696 0.09717 0.05259 0.0
C362 C 0.58693 0.0328 0.07081 0.0
C363 C 0.57595 0.01947 -0.02117 0.0
C364 C 0.56165 0.04517 0.92414 0.0
C365 C 0.55826 0.08325 0.96216 0.0
C366 C 0.60143 0.00516 0.13227 0.0
C367 C 0.55017 0.03276 0.82528 0.0
H368 H 0.62491 0.94842 0.84528 0.0
H369 H 0.53923 0.8482 0.92892 0.0
H370 H 0.61982 0.06301 0.85387 0.0
H371 H 0.63859 0.05247 0.95887 0.0
H372 H 0.6453 0.03732 0.85209 0.0
H373 H 0.51106 0.87586 -0.00649 0.0
H374 H 0.53375 0.92813 0.06622 0.0
H375 H 0.51693 0.93941 0.95773 0.0
H376 H 0.59295 0.08306 0.17589 0.0
H377 H 0.54768 0.10347 0.92 0.0
H378 H 0.62054 0.00789 0.10146 0.0
H379 H 0.5857 0.96423 0.13908 0.0
H380 H 0.60906 0.02047 0.20186 0.0
H381 H 0.56802 0.03578 0.78717 0.0
H382 H 0.54122 0.05837 0.79047 0.0
H383 H 0.53256 0.99302 0.82143 0.0
C384 C 0.09926 0.90501 0.44306 0.0
C385 C 0.08082 0.87819 0.51177 0.0
C386 C 0.10272 0.95314 0.40964 0.0
C387 C 0.08786 0.97534 0.44732 0.0
C388 C 0.06916 0.94838 0.51664 0.0
C389 C 0.06561 0.89979 0.54741 0.0
C390 C 0.12229 0.98022 0.33419 0.0
C391 C 0.05319 0.97113 0.55909 0.0
C392 C 0.11803 0.11847 0.43589 0.0
C393 C 0.09804 0.12553 0.3684 0.0
C394 C 0.11537 0.06982 0.46073 0.0
C395 C 0.0924 0.02733 0.41614 0.0
C396 C 0.07304 0.0344 0.34481 0.0
C397 C 0.07598 0.08345 0.32213 0.0
C398 C 0.13637 0.0637 0.53737 0.0
C399 C 0.04864 0.99 0.29458 0.0
H400 H 0.11066 0.88799 0.41421 0.0
H401 H 0.05134 0.87907 0.60051 0.0
H402 H 0.10991 0.9908 0.27547 0.0
H403 H 0.14104 0.01593 0.35928 0.0
H404 H 0.13109 0.95658 0.30921 0.0
H405 H 0.03941 0.94512 0.61207 0.0
H406 H 0.0693 0.00712 0.59116 0.0
H407 H 0.0389 0.9805 0.50532 0.0
H408 H 0.13513 0.15072 0.47213 0.0
H409 H 0.06057 0.08863 0.26945 0.0
H410 H 0.14699 0.04258 0.51408 0.0
H411 H 0.12407 0.04112 0.59572 0.0
H412 H 0.1538 0.10079 0.56237 0.0
H413 H 0.05749 0.96664 0.26899 0.0
H414 H 0.03711 1.00236 0.23567 0.0
H415 H 0.03234 0.96521 0.34235 0.0
C416 C 0.11421 0.30119 0.0322 0.0
C417 C 0.0906 0.29442 0.07774 0.0
C418 C 0.11146 0.30068 0.93721 0.0
C419 C 0.08451 0.29388 0.8873 0.0
C420 C 0.06151 0.29169 0.93209 0.0
C421 C 0.06478 0.29173 0.02775 0.0
C422 C 0.1367 0.30393 0.89109 0.0
C423 C 0.03286 0.28592 0.88015 0.0
C424 C 0.09659 0.31654 0.64116 0.0
C425 C 0.08948 0.26734 0.61816 0.0
C426 C 0.09138 0.32522 0.72605 0.0
C427 C 0.08005 0.28387 0.78989 0.0
C428 C 0.07071 0.2336 0.76447 0.0
C429 C 0.07527 0.22583 0.67761 0.0
C430 C 0.10023 0.37895 0.74983 0.0
C431 C 0.05845 0.18866 0.8316 0.0
H432 H 0.13446 0.30457 0.07095 0.0
H433 H 0.04663 0.28723 0.06314 0.0
H434 H 0.12992 0.2678 0.85777 0.0
H435 H 0.14288 0.33479 0.83688 0.0
H436 H 0.15648 0.31116 0.94017 0.0
H437 H 1.02107 0.29887 0.92027 0.0
H438 H 0.03638 0.30754 0.81315 0.0
H439 H 1.01848 0.24527 0.86647 0.0
H440 H 0.10672 0.34851 0.59343 0.0
H441 H 0.06924 0.18777 0.65817 0.0
H442 H 0.12134 0.39366 0.79453 0.0
H443 H 0.08355 0.38015 0.78811 0.0
H444 H 0.10313 0.40466 0.68758 0.0
H445 H 0.07631 0.18999 0.88458 0.0
H446 H 0.04882 0.15191 0.79759 0.0
H447 H 0.04131 0.19008 0.86717 0.0
C448 C 0.09915 0.80895 0.88791 0.0
C449 C 0.07292 0.77178 0.84551 0.0
C450 C 0.10187 0.81648 -0.01884 0.0
C451 C 0.07787 0.78578 0.03145 0.0
C452 C 0.05037 0.75255 -0.0132 0.0
C453 C 0.04822 0.746 0.89362 0.0
C454 C 0.1311 0.85366 0.02693 0.0
C455 C 1.02407 0.72012 0.03879 0.0
C456 C 0.08692 0.72732 0.26229 0.0
C457 C 0.07592 0.74984 0.31411 0.0
C458 C 0.09007 0.74197 0.17001 0.0
C459 C 0.08251 0.78054 0.13112 0.0
C460 C 0.07431 0.80688 0.18598 0.0
C461 C 0.07063 0.79054 0.27726 0.0
C462 C 0.0991 0.71336 0.11275 0.0
C463 C 0.06729 0.84955 0.14748 0.0
H464 H 0.11809 0.83005 0.84991 0.0
H465 H 1.02764 0.71853 0.85989 0.0
H466 H 0.1281 0.87287 0.08224 0.0
H467 H 0.14352 0.83292 0.05847 0.0
H468 H 0.14456 0.88294 -0.02314 0.0
H469 H 1.00367 0.70025 -0.00778 0.0
H470 H 0.02823 0.69108 0.08308 0.0
H471 H 1.02035 0.74366 0.08394 0.0
H472 H 0.09152 0.69657 0.29255 0.0
H473 H 0.06315 0.8091 0.31939 0.0
H474 H 0.11687 0.74023 0.07132 0.0
H475 H 0.08008 0.6898 0.06447 0.0
H476 H 0.10684 0.68798 0.15543 0.0
H477 H 0.08105 0.87203 0.09196 0.0
H478 H 0.07053 0.87546 0.20179 0.0
H479 H 0.04393 0.83335 0.11829 0.0
C480 C 0.57244 0.73784 0.17753 0.0
C481 C 0.58793 0.77804 0.11748 0.0
C482 C 0.57036 0.74727 0.26594 0.0
C483 C 0.58394 0.79812 0.29323 0.0
C484 C 0.59754 0.83904 0.23039 0.0
C485 C 0.59951 0.82843 0.14261 0.0
C486 C 0.55563 0.70269 0.33197 0.0
C487 C 0.61121 0.89358 0.25731 0.0
C488 C 0.56585 0.79903 0.52843 0.0
C489 C 0.58843 0.79096 0.57982 0.0
C490 C 0.56561 0.80739 0.43356 0.0
C491 C 0.58829 0.80696 0.39091 0.0
C492 C 0.61267 0.8043 0.44357 0.0
C493 C 0.61245 0.79638 0.53804 0.0
C494 C 0.53978 0.81168 0.37894 0.0
C495 C 0.63748 0.80439 0.39977 0.0
H496 H 0.56308 0.699 0.15678 0.0
H497 H 0.61049 0.85953 0.09414 0.0
H498 H 0.57235 0.70048 0.38595 0.0
H499 H 0.53944 0.70769 0.36639 0.0
H500 H 0.54413 0.66601 0.29734 0.0
H501 H 0.62017 0.92088 0.19882 0.0
H502 H 0.59463 0.90111 0.28409 0.0
H503 H 0.62929 0.90075 0.31309 0.0
H504 H 0.54763 0.79627 0.56134 0.0
H505 H 0.6304 0.79181 0.57837 0.0
H506 H 0.52319 0.77358 0.35602 0.0
H507 H 0.54648 0.83722 0.317 0.0
H508 H 0.52914 0.82598 0.42095 0.0
H509 H 0.62936 0.76824 0.36498 0.0
H510 H 0.6563 0.80821 0.4509 0.0
H511 H 0.64554 0.83588 0.34714 0.0
C512 C 0.58019 0.29214 0.40046 0.0
C513 C 0.57158 0.24259 0.37591 0.0
C514 C 0.57591 0.30092 0.48668 0.0
C515 C 0.56353 0.25914 0.54904 0.0
C516 C 0.55244 0.20877 0.52154 0.0
C517 C 0.55646 0.20106 0.43417 0.0
C518 C 0.58698 0.35491 0.51348 0.0
C519 C 0.53904 0.16335 0.58708 0.0
C520 C 0.59607 0.26728 0.79225 0.0
C521 C 0.57266 0.26193 0.83724 0.0
C522 C 0.5941 0.27011 0.69713 0.0
C523 C 0.56811 0.26777 0.64682 0.0
C524 C 0.54546 0.26685 0.69152 0.0
C525 C 0.54796 0.26376 0.78707 0.0
C526 C 0.61891 0.27178 0.65087 0.0
C527 C 0.51782 0.26551 0.63908 0.0
H528 H 0.59092 0.32412 0.35327 0.0
H529 H 0.54935 0.1628 0.41349 0.0
H530 H 0.57211 0.35765 0.55766 0.0
H531 H 0.60893 0.3678 0.55312 0.0
H532 H 0.58918 0.38117 0.45232 0.0
H533 H 0.52819 0.127 0.55142 0.0
H534 H 0.55652 0.16222 0.63912 0.0
H535 H 0.52265 0.16631 0.62401 0.0
H536 H 0.61551 0.26721 0.83111 0.0
H537 H 0.53001 0.26056 0.82196 0.0
H538 H 0.62592 0.3032 0.59779 0.0
H539 H 0.61125 0.23576 0.61612 0.0
H540 H 0.63835 0.27703 0.70021 0.0
H541 H 0.52272 0.29014 0.57547 0.0
H542 H 0.5062 0.27771 0.68134 0.0
H543 H 0.50271 0.22611 0.61888 0.0
loop_
_geom_bond_atom_site_label_1
_geom_bond_atom_site_label_2
_geom_bond_distance
_geom_bond_site_symmetry_2
_ccdc_geom_bond_type
Dy0 O3 2.307 . S
Dy0 O5 2.395 . S
Dy0 O6 2.379 . S
Dy0 O8 2.339 . S
Dy0 O10 2.298 . S
Dy0 O14 2.275 . S
Dy0 C22 2.738 . S
Dy1 O4 2.298 . S
Dy1 O7 2.275 . S
Dy1 O9 2.307 . S
Dy1 O11 2.395 1_455 S
Dy1 O12 2.379 1_455 S
Dy1 O15 2.339 . S
Dy1 C31 2.738 1_455 S
C2 O14 1.254 . S
C2 O15 1.257 . S
O3 Dy0 2.307 . S
O3 C13 1.266 . S
O4 Dy1 2.298 . S
O4 C13 1.236 . S
O5 Dy0 2.395 . S
O5 C22 1.255 . S
O6 Dy0 2.379 . S
O6 C22 1.249 . S
O7 Dy1 2.275 . S
O7 C23 1.254 . S
O8 Dy0 2.339 . S
O8 C23 1.257 . S
O9 Dy1 2.307 . S
O9 C24 1.266 . S
O10 Dy0 2.298 . S
O10 C24 1.236 . S
O11 Dy1 2.395 1_655 S
O11 C31 1.255 . S
O12 Dy1 2.379 1_655 S
O12 C31 1.249 . S
C13 O3 1.266 . S
C13 O4 1.236 . S
O14 Dy0 2.275 . S
O14 C2 1.254 . S
O15 Dy1 2.339 . S
O15 C2 1.257 . S
C16 C19 1.344 . S
C16 C20 1.328 . S
C16 C22 1.516 . S
C17 C18 1.304 . S
C17 C21 1.323 . S
C18 C17 1.304 . S
C18 C19 1.371 . S
C18 H32 0.930 . S
C19 C16 1.344 . S
C19 C18 1.371 . S
C19 H33 0.931 . S
C20 C16 1.328 . S
C20 C21 1.433 . S
C20 H34 0.931 . S
C21 C17 1.323 . S
C21 C20 1.433 . S
C21 H35 0.933 . S
C22 Dy0 2.738 . S
C22 O5 1.255 . S
C22 O6 1.249 . S
C22 C16 1.516 . S
C23 O7 1.254 . S
C23 O8 1.257 . S
C24 O9 1.266 . S
C24 O10 1.236 . S
C25 C28 1.344 . S
C25 C29 1.328 . S
C25 C31 1.516 . S
C26 C27 1.304 . S
C26 C30 1.323 . S
C27 C26 1.304 . S
C27 C28 1.371 . S
C27 H36 0.930 . S
C28 C25 1.344 . S
C28 C27 1.371 . S
C28 H37 0.931 . S
C29 C25 1.328 . S
C29 C30 1.433 . S
C29 H38 0.931 . S
C30 C26 1.323 . S
C30 C29 1.433 . S
C30 H39 0.933 . S
C31 Dy1 2.738 1_655 S
C31 O11 1.255 . S
C31 O12 1.249 . S
C31 C25 1.516 . S
H32 C18 0.930 . S
H33 C19 0.931 . S
H34 C20 0.931 . S
H35 C21 0.933 . S
H36 C27 0.930 . S
H37 C28 0.931 . S
H38 C29 0.931 . S
H39 C30 0.933 . S
Dy40 O43 2.307 . S
Dy40 O45 2.395 . S
Dy40 O46 2.379 . S
Dy40 O48 2.339 . S
Dy40 O50 2.298 . S
Dy40 O54 2.275 . S
Dy40 C62 2.738 . S
Dy41 O44 2.298 . S
Dy41 O47 2.275 . S
Dy41 O49 2.307 . S
Dy41 O51 2.395 1_455 S
Dy41 O52 2.379 1_455 S
Dy41 O55 2.339 . S
Dy41 C71 2.738 1_455 S
C42 O54 1.254 . S
C42 O55 1.257 . S
O43 Dy40 2.307 . S
O43 C53 1.266 . S
O44 Dy41 2.298 . S
O44 C53 1.236 . S
O45 Dy40 2.395 . S
O45 C62 1.255 . S
O46 Dy40 2.379 . S
O46 C62 1.249 . S
O47 Dy41 2.275 . S
O47 C63 1.254 . S
O48 Dy40 2.339 . S
O48 C63 1.257 . S
O49 Dy41 2.307 . S
O49 C64 1.266 . S
O50 Dy40 2.298 . S
O50 C64 1.236 . S
O51 Dy41 2.395 1_655 S
O51 C71 1.255 . S
O52 Dy41 2.379 1_655 S
O52 C71 1.249 . S
C53 O43 1.266 . S
C53 O44 1.236 . S
O54 Dy40 2.275 . S
O54 C42 1.254 . S
O55 Dy41 2.339 . S
O55 C42 1.257 . S
C56 C59 1.344 . S
C56 C60 1.328 . S
C56 C62 1.516 . S
C57 C58 1.304 . S
C57 C61 1.323 . S
C58 C57 1.304 . S
C58 C59 1.371 . S
C58 H72 0.930 . S
C59 C56 1.344 . S
C59 C58 1.371 . S
C59 H73 0.931 . S
C60 C56 1.328 . S
C60 C61 1.433 . S
C60 H74 0.931 . S
C61 C57 1.323 . S
C61 C60 1.433 . S
C61 H75 0.933 . S
C62 Dy40 2.738 . S
C62 O45 1.255 . S
C62 O46 1.249 . S
C62 C56 1.516 . S
C63 O47 1.254 . S
C63 O48 1.257 . S
C64 O49 1.266 . S
C64 O50 1.236 . S
C65 C68 1.344 . S
C65 C69 1.328 . S
C65 C71 1.516 . S
C66 C67 1.304 . S
C66 C70 1.323 . S
C67 C66 1.304 . S
C67 C68 1.371 . S
C67 H76 0.930 . S
C68 C65 1.344 . S
C68 C67 1.371 . S
C68 H77 0.931 . S
C69 C65 1.328 . S
C69 C70 1.433 . S
C69 H78 0.931 . S
C70 C66 1.323 . S
C70 C69 1.433 . S
C70 H79 0.933 . S
C71 Dy41 2.738 1_655 S
C71 O51 1.255 . S
C71 O52 1.249 . S
C71 C65 1.516 . S
H72 C58 0.930 . S
H73 C59 0.931 . S
H74 C60 0.931 . S
H75 C61 0.933 . S
H76 C67 0.930 . S
H77 C68 0.931 . S
H78 C69 0.931 . S
H79 C70 0.933 . S
Dy80 O83 2.307 . S
Dy80 O85 2.395 . S
Dy80 O86 2.379 . S
Dy80 O88 2.339 1_556 S
Dy80 O90 2.298 . S
Dy80 O94 2.275 . S
Dy80 C102 2.738 . S
Dy81 O84 2.298 . S
Dy81 O87 2.275 . S
Dy81 O89 2.307 . S
Dy81 O91 2.395 . S
Dy81 O92 2.379 . S
Dy81 O95 2.339 . S
Dy81 C111 2.738 . S
C82 O94 1.254 . S
C82 O95 1.257 . S
O83 Dy80 2.307 . S
O83 C93 1.266 . S
O84 Dy81 2.298 . S
O84 C93 1.236 . S
O85 Dy80 2.395 . S
O85 C102 1.255 . S
O86 Dy80 2.379 . S
O86 C102 1.249 . S
O87 Dy81 2.275 . S
O87 C103 1.254 1_556 S
O88 Dy80 2.339 1_554 S
O88 C103 1.257 . S
O89 Dy81 2.307 . S
O89 C104 1.266 . S
O90 Dy80 2.298 . S
O90 C104 1.236 . S
O91 Dy81 2.395 . S
O91 C111 1.255 . S
O92 Dy81 2.379 . S
O92 C111 1.249 . S
C93 O83 1.266 . S
C93 O84 1.236 . S
O94 Dy80 2.275 . S
O94 C82 1.254 . S
O95 Dy81 2.339 . S
O95 C82 1.257 . S
C96 C99 1.344 . S
C96 C100 1.328 . S
C96 C102 1.516 . S
C97 C98 1.304 . S
C97 C101 1.323 . S
C98 C97 1.304 . S
C98 C99 1.371 . S
C98 H112 0.930 . S
C99 C96 1.344 . S
C99 C98 1.371 . S
C99 H113 0.931 . S
C100 C96 1.328 . S
C100 C101 1.433 . S
C100 H114 0.931 1_556 S
C101 C97 1.323 . S
C101 C100 1.433 . S
C101 H115 0.933 1_556 S
C102 Dy80 2.738 . S
C102 O85 1.255 . S
C102 O86 1.249 . S
C102 C96 1.516 . S
C103 O87 1.254 1_554 S
C103 O88 1.257 . S
C104 O89 1.266 . S
C104 O90 1.236 . S
C105 C108 1.344 . S
C105 C109 1.328 . S
C105 C111 1.516 . S
C106 C107 1.304 . S
C106 C110 1.323 . S
C107 C106 1.304 . S
C107 C108 1.371 . S
C107 H116 0.930 1_556 S
C108 C105 1.344 . S
C108 C107 1.371 . S
C108 H117 0.931 . S
C109 C105 1.328 . S
C109 C110 1.433 . S
C109 H118 0.931 . S
C110 C106 1.323 . S
C110 C109 1.433 . S
C110 H119 0.933 . S
C111 Dy81 2.738 . S
C111 O91 1.255 . S
C111 O92 1.249 . S
C111 C105 1.516 . S
H112 C98 0.930 . S
H113 C99 0.931 . S
H114 C100 0.931 1_554 S
H115 C101 0.933 1_554 S
H116 C107 0.930 1_554 S
H117 C108 0.931 . S
H118 C109 0.931 . S
H119 C110 0.933 . S
Dy120 O123 2.307 . S
Dy120 O125 2.395 . S
Dy120 O126 2.379 . S
Dy120 O128 2.339 . S
Dy120 O130 2.298 . S
Dy120 O134 2.275 . S
Dy120 C142 2.738 . S
Dy121 O124 2.298 . S
Dy121 O127 2.275 . S
Dy121 O129 2.307 . S
Dy121 O131 2.395 . S
Dy121 O132 2.379 . S
Dy121 O135 2.339 1_554 S
Dy121 C151 2.738 . S
C122 O134 1.254 1_556 S
C122 O135 1.257 . S
O123 Dy120 2.307 . S
O123 C133 1.266 . S
O124 Dy121 2.298 . S
O124 C133 1.236 . S
O125 Dy120 2.395 . S
O125 C142 1.255 . S
O126 Dy120 2.379 . S
O126 C142 1.249 . S
O127 Dy121 2.275 . S
O127 C143 1.254 . S
O128 Dy120 2.339 . S
O128 C143 1.257 . S
O129 Dy121 2.307 . S
O129 C144 1.266 . S
O130 Dy120 2.298 . S
O130 C144 1.236 . S
O131 Dy121 2.395 . S
O131 C151 1.255 . S
O132 Dy121 2.379 . S
O132 C151 1.249 . S
C133 O123 1.266 . S
C133 O124 1.236 . S
O134 Dy120 2.275 . S
O134 C122 1.254 1_554 S
O135 Dy121 2.339 1_556 S
O135 C122 1.257 . S
C136 C139 1.344 . S
C136 C140 1.328 . S
C136 C142 1.516 . S
C137 C138 1.304 . S
C137 C141 1.323 . S
C138 C137 1.304 . S
C138 C139 1.371 . S
C138 H152 0.930 1_554 S
C139 C136 1.344 . S
C139 C138 1.371 . S
C139 H153 0.931 . S
C140 C136 1.328 . S
C140 C141 1.433 . S
C140 H154 0.931 . S
C141 C137 1.323 . S
C141 C140 1.433 . S
C141 H155 0.933 . S
C142 Dy120 2.738 . S
C142 O125 1.255 . S
C142 O126 1.249 . S
C142 C136 1.516 . S
C143 O127 1.254 . S
C143 O128 1.257 . S
C144 O129 1.266 . S
C144 O130 1.236 . S
C145 C148 1.344 . S
C145 C149 1.328 . S
C145 C151 1.516 . S
C146 C147 1.304 . S
C146 C150 1.323 . S
C147 C146 1.304 . S
C147 C148 1.371 . S
C147 H156 0.930 . S
C148 C145 1.344 . S
C148 C147 1.371 . S
C148 H157 0.931 . S
C149 C145 1.328 . S
C149 C150 1.433 . S
C149 H158 0.931 1_554 S
C150 C146 1.323 . S
C150 C149 1.433 . S
C150 H159 0.935 . S
C151 Dy121 2.738 . S
C151 O131 1.255 . S
C151 O132 1.249 . S
C151 C145 1.516 . S
H152 C138 0.930 1_556 S
H153 C139 0.931 . S
H154 C140 0.931 . S
H155 C141 0.933 . S
H156 C147 0.930 . S
H157 C148 0.931 . S
H158 C149 0.931 1_556 S
H159 C150 0.935 . S
C160 C161 1.391 . S
C160 C162 1.394 . S
C160 H176 0.931 . S
C161 C160 1.391 . S
C161 C165 1.376 . S
C162 C160 1.394 . S
C162 C163 1.369 . S
C162 C166 1.569 . S
C163 C162 1.369 . S
C163 C164 1.410 . S
C163 C171 1.503 . S
C164 C163 1.410 . S
C164 C165 1.392 . S
C164 C167 1.511 . S
C165 C161 1.376 . S
C165 C164 1.392 . S
C165 H177 0.929 . S
C166 C162 1.569 . S
C166 H178 0.937 1_455 S
C166 H179 0.956 . S
C166 H180 0.948 1_455 S
C167 C164 1.511 . S
C167 H181 0.961 . S
C167 H182 0.961 . S
C167 H183 0.961 . S
C168 C169 1.370 . S
C168 C170 1.363 . S
C168 H184 0.931 . S
C169 C168 1.370 . S
C169 C173 1.408 . S
C170 C168 1.363 . S
C170 C171 1.370 . S
C170 C174 1.524 . S
C171 C163 1.503 . S
C171 C170 1.370 . S
C171 C172 1.403 . S
C172 C171 1.403 . S
C172 C173 1.404 . S
C172 C175 1.539 . S
C173 C169 1.408 . S
C173 C172 1.404 . S
C173 H185 0.930 . S
C174 C170 1.524 . S
C174 H186 0.956 . S
C174 H187 0.961 . S
C174 H188 0.961 . S
C175 C172 1.539 . S
C175 H189 0.958 . S
C175 H190 0.961 . S
C175 H191 0.960 . S
H176 C160 0.931 . S
H177 C165 0.929 . S
H178 C166 0.937 1_655 S
H179 C166 0.956 . S
H180 C166 0.948 1_655 S
H181 C167 0.961 . S
H182 C167 0.961 . S
H183 C167 0.961 . S
H184 C168 0.931 . S
H185 C173 0.930 . S
H186 C174 0.956 . S
H187 C174 0.961 . S
H188 C174 0.961 . S
H189 C175 0.958 . S
H190 C175 0.961 . S
H191 C175 0.960 . S
C192 C193 1.391 . S
C192 C194 1.394 . S
C192 H208 0.931 . S
C193 C192 1.391 . S
C193 C197 1.376 . S
C194 C192 1.394 . S
C194 C195 1.369 . S
C194 C198 1.531 . S
C195 C194 1.369 . S
C195 C196 1.410 . S
C195 C203 1.503 . S
C196 C195 1.410 . S
C196 C197 1.392 . S
C196 C199 1.511 . S
C197 C193 1.376 . S
C197 C196 1.392 . S
C197 H209 0.929 . S
C198 C194 1.531 . S
C198 H210 0.960 . S
C198 H211 0.962 . S
C198 H212 0.962 . S
C199 C196 1.511 . S
C199 H213 0.961 . S
C199 H214 0.961 . S
C199 H215 0.961 . S
C200 C201 1.370 . S
C200 C202 1.363 . S
C200 H216 0.931 . S
C201 C200 1.370 . S
C201 C205 1.408 . S
C202 C200 1.363 . S
C202 C203 1.370 . S
C202 C206 1.524 . S
C203 C195 1.503 . S
C203 C202 1.370 . S
C203 C204 1.403 . S
C204 C203 1.403 . S
C204 C205 1.404 . S
C204 C207 1.539 . S
C205 C201 1.408 . S
C205 C204 1.404 . S
C205 H217 0.930 . S
C206 C202 1.524 . S
C206 H218 0.956 . S
C206 H219 0.961 . S
C206 H220 0.961 . S
C207 C204 1.539 . S
C207 H221 0.958 . S
C207 H222 0.961 . S
C207 H223 0.960 . S
H208 C192 0.931 . S
H209 C197 0.929 . S
H210 C198 0.960 . S
H211 C198 0.962 . S
H212 C198 0.962 . S
H213 C199 0.961 . S
H214 C199 0.961 . S
H215 C199 0.961 . S
H216 C200 0.931 . S
H217 C205 0.930 . S
H218 C206 0.956 . S
H219 C206 0.961 . S
H220 C206 0.961 . S
H221 C207 0.958 . S
H222 C207 0.961 . S
H223 C207 0.960 . S
C224 C225 1.391 . S
C224 C226 1.394 1_554 S
C224 H240 0.931 1_554 S
C225 C224 1.391 . S
C225 C229 1.376 . S
C226 C224 1.394 1_556 S
C226 C227 1.369 1_556 S
C226 C230 1.531 . S
C227 C226 1.369 1_554 S
C227 C228 1.410 . S
C227 C235 1.503 1_554 S
C228 C227 1.410 . S
C228 C229 1.392 . S
C228 C231 1.511 . S
C229 C225 1.376 . S
C229 C228 1.392 . S
C229 H241 0.929 . S
C230 C226 1.531 . S
C230 H242 0.960 . S
C230 H243 0.962 . S
C230 H244 0.960 . S
C231 C228 1.511 . S
C231 H245 0.961 . S
C231 H246 0.961 . S
C231 H247 0.961 . S
C232 C233 1.370 . S
C232 C234 1.363 1_556 S
C232 H248 0.931 . S
C233 C232 1.370 . S
C233 C237 1.408 . S
C234 C232 1.363 1_554 S
C234 C235 1.370 1_554 S
C234 C238 1.524 . S
C235 C227 1.503 1_556 S
C235 C234 1.370 1_556 S
C235 C236 1.403 . S
C236 C235 1.403 . S
C236 C237 1.404 . S
C236 C239 1.539 . S
C237 C233 1.408 . S
C237 C236 1.404 . S
C237 H249 0.930 . S
C238 C234 1.524 . S
C238 H250 0.956 . S
C238 H251 0.961 . S
C238 H252 0.961 . S
C239 C236 1.539 . S
C239 H253 0.958 . S
C239 H254 0.961 . S
C239 H255 0.960 . S
H240 C224 0.931 1_556 S
H241 C229 0.929 . S
H242 C230 0.960 . S
H243 C230 0.962 . S
H244 C230 0.960 . S
H245 C231 0.961 . S
H246 C231 0.961 . S
H247 C231 0.961 . S
H248 C232 0.931 . S
H249 C237 0.930 . S
H250 C238 0.956 . S
H251 C238 0.961 . S
H252 C238 0.961 . S
H253 C239 0.958 . S
H254 C239 0.961 . S
H255 C239 0.960 . S
C256 C257 1.391 . S
C256 C258 1.394 . S
C256 H272 0.931 . S
C257 C256 1.391 . S
C257 C261 1.376 . S
C258 C256 1.394 . S
C258 C259 1.369 . S
C258 C262 1.531 . S
C259 C258 1.369 . S
C259 C260 1.410 . S
C259 C267 1.503 . S
C260 C259 1.410 . S
C260 C261 1.392 . S
C260 C263 1.511 . S
C261 C257 1.376 . S
C261 C260 1.392 . S
C261 H273 0.929 . S
C262 C258 1.531 . S
C262 H274 0.960 . S
C262 H275 0.962 . S
C262 H276 0.960 . S
C263 C260 1.511 . S
C263 H277 0.961 . S
C263 H278 0.961 . S
C263 H279 0.961 . S
C264 C265 1.370 . S
C264 C266 1.363 . S
C264 H280 0.931 . S
C265 C264 1.370 . S
C265 C269 1.408 . S
C266 C264 1.363 . S
C266 C267 1.370 . S
C266 C270 1.524 . S
C267 C259 1.503 . S
C267 C266 1.370 . S
C267 C268 1.403 . S
C268 C267 1.403 . S
C268 C269 1.404 . S
C268 C271 1.539 . S
C269 C265 1.408 . S
C269 C268 1.404 . S
C269 H281 0.930 . S
C270 C266 1.524 . S
C270 H282 0.956 . S
C270 H283 0.961 . S
C270 H284 0.961 . S
C271 C268 1.539 . S
C271 H285 0.958 . S
C271 H286 0.961 . S
C271 H287 0.960 . S
H272 C256 0.931 . S
H273 C261 0.929 . S
H274 C262 0.960 . S
H275 C262 0.962 . S
H276 C262 0.960 . S
H277 C263 0.961 . S
H278 C263 0.961 . S
H279 C263 0.961 . S
H280 C264 0.931 . S
H281 C269 0.930 . S
H282 C270 0.956 . S
H283 C270 0.961 . S
H284 C270 0.961 . S
H285 C271 0.958 . S
H286 C271 0.961 . S
H287 C271 0.960 . S
C288 C289 1.391 . S
C288 C290 1.394 . S
C288 H304 0.931 . S
C289 C288 1.391 . S
C289 C293 1.376 . S
C290 C288 1.394 . S
C290 C291 1.369 . S
C290 C294 1.531 . S
C291 C290 1.369 . S
C291 C292 1.410 . S
C291 C299 1.503 . S
C292 C291 1.410 . S
C292 C293 1.392 . S
C292 C295 1.511 . S
C293 C289 1.376 . S
C293 C292 1.392 . S
C293 H305 0.929 . S
C294 C290 1.531 . S
C294 H306 0.960 . S
C294 H307 0.962 . S
C294 H308 0.960 . S
C295 C292 1.511 . S
C295 H309 0.961 . S
C295 H310 0.961 . S
C295 H311 0.961 . S
C296 C297 1.370 . S
C296 C298 1.363 . S
C296 H312 0.931 . S
C297 C296 1.370 . S
C297 C301 1.408 . S
C298 C296 1.363 . S
C298 C299 1.370 . S
C298 C302 1.524 . S
C299 C291 1.503 . S
C299 C298 1.370 . S
C299 C300 1.403 . S
C300 C299 1.403 . S
C300 C301 1.404 . S
C300 C303 1.539 . S
C301 C297 1.408 . S
C301 C300 1.404 . S
C301 H313 0.930 . S
C302 C298 1.524 . S
C302 H314 0.956 . S
C302 H315 0.961 . S
C302 H316 0.961 . S
C303 C300 1.539 . S
C303 H317 0.958 . S
C303 H318 0.961 . S
C303 H319 0.960 . S
H304 C288 0.931 . S
H305 C293 0.929 . S
H306 C294 0.960 . S
H307 C294 0.962 . S
H308 C294 0.960 . S
H309 C295 0.961 . S
H310 C295 0.961 . S
H311 C295 0.961 . S
H312 C296 0.931 . S
H313 C301 0.930 . S
H314 C302 0.956 . S
H315 C302 0.961 . S
H316 C302 0.961 . S
H317 C303 0.958 . S
H318 C303 0.961 . S
H319 C303 0.960 . S
C320 C321 1.391 . S
C320 C322 1.394 . S
C320 H336 0.931 . S
C321 C320 1.391 . S
C321 C325 1.376 . S
C322 C320 1.394 . S
C322 C323 1.369 . S
C322 C326 1.531 . S
C323 C322 1.369 . S
C323 C324 1.410 . S
C323 C331 1.503 . S
C324 C323 1.410 . S
C324 C325 1.392 . S
C324 C327 1.511 . S
C325 C321 1.376 . S
C325 C324 1.392 . S
C325 H337 0.929 . S
C326 C322 1.531 . S
C326 H338 0.960 . S
C326 H339 0.962 . S
C326 H340 0.960 . S
C327 C324 1.511 . S
C327 H341 0.961 . S
C327 H342 0.961 . S
C327 H343 0.961 . S
C328 C329 1.370 . S
C328 C330 1.363 . S
C328 H344 0.931 . S
C329 C328 1.370 . S
C329 C333 1.408 . S
C330 C328 1.363 . S
C330 C331 1.370 . S
C330 C334 1.524 . S
C331 C323 1.503 . S
C331 C330 1.370 . S
C331 C332 1.403 . S
C332 C331 1.403 . S
C332 C333 1.404 . S
C332 C335 1.539 . S
C333 C329 1.408 . S
C333 C332 1.404 . S
C333 H345 0.930 . S
C334 C330 1.524 . S
C334 H346 0.956 . S
C334 H347 0.961 . S
C334 H348 0.961 . S
C335 C332 1.539 . S
C335 H349 0.958 . S
C335 H350 0.961 . S
C335 H351 0.960 . S
H336 C320 0.931 . S
H337 C325 0.929 . S
H338 C326 0.960 . S
H339 C326 0.962 . S
H340 C326 0.960 . S
H341 C327 0.961 . S
H342 C327 0.961 . S
H343 C327 0.961 . S
H344 C328 0.931 . S
H345 C333 0.930 . S
H346 C334 0.956 . S
H347 C334 0.961 . S
H348 C334 0.961 . S
H349 C335 0.958 . S
H350 C335 0.961 . S
H351 C335 0.960 . S
C352 C353 1.391 . S
C352 C354 1.394 . S
C352 H368 0.931 . S
C353 C352 1.391 . S
C353 C357 1.376 . S
C354 C352 1.394 . S
C354 C355 1.369 . S
C354 C358 1.531 1_565 S
C355 C354 1.369 . S
C355 C356 1.410 . S
C355 C363 1.503 1_566 S
C356 C355 1.410 . S
C356 C357 1.392 . S
C356 C359 1.511 . S
C357 C353 1.376 . S
C357 C356 1.392 . S
C357 H369 0.929 . S
C358 C354 1.531 1_545 S
C358 H370 0.960 . S
C358 H371 0.962 1_556 S
C358 H372 0.960 . S
C359 C356 1.511 . S
C359 H373 0.961 . S
C359 H374 0.961 1_556 S
C359 H375 0.961 . S
C360 C361 1.370 . S
C360 C362 1.363 . S
C360 H376 0.931 . S
C361 C360 1.370 . S
C361 C365 1.408 1_554 S
C362 C360 1.363 . S
C362 C363 1.370 . S
C362 C366 1.524 1_545 S
C363 C355 1.503 1_544 S
C363 C362 1.370 . S
C363 C364 1.403 1_554 S
C364 C363 1.403 1_556 S
C364 C365 1.404 . S
C364 C367 1.539 . S
C365 C361 1.408 1_556 S
C365 C364 1.404 . S
C365 H377 0.930 . S
C366 C362 1.524 1_565 S
C366 H378 0.956 . S
C366 H379 0.961 . S
C366 H380 0.961 . S
C367 C364 1.539 . S
C367 H381 0.958 . S
C367 H382 0.961 . S
C367 H383 0.960 . S
H368 C352 0.931 . S
H369 C357 0.929 . S
H370 C358 0.960 . S
H371 C358 0.962 1_554 S
H372 C358 0.960 . S
H373 C359 0.961 . S
H374 C359 0.961 1_554 S
H375 C359 0.961 . S
H376 C360 0.931 . S
H377 C365 0.930 . S
H378 C366 0.956 . S
H379 C366 0.961 . S
H380 C366 0.961 . S
H381 C367 0.958 . S
H382 C367 0.961 . S
H383 C367 0.960 . S
C384 C385 1.391 . S
C384 C386 1.394 . S
C384 H400 0.931 . S
C385 C384 1.391 . S
C385 C389 1.376 . S
C386 C384 1.394 . S
C386 C387 1.369 . S
C386 C390 1.531 1_565 S
C387 C386 1.369 . S
C387 C388 1.410 . S
C387 C395 1.503 1_565 S
C388 C387 1.410 . S
C388 C389 1.392 . S
C388 C391 1.511 . S
C389 C385 1.376 . S
C389 C388 1.392 . S
C389 H401 0.929 . S
C390 C386 1.531 1_545 S
C390 H402 0.960 . S
C390 H403 0.962 . S
C390 H404 0.960 . S
C391 C388 1.511 . S
C391 H405 0.961 . S
C391 H406 0.961 . S
C391 H407 0.961 . S
C392 C393 1.370 . S
C392 C394 1.363 . S
C392 H408 0.931 . S
C393 C392 1.370 . S
C393 C397 1.408 . S
C394 C392 1.363 . S
C394 C395 1.370 . S
C394 C398 1.524 . S
C395 C387 1.503 1_545 S
C395 C394 1.370 . S
C395 C396 1.403 . S
C396 C395 1.403 . S
C396 C397 1.404 . S
C396 C399 1.539 . S
C397 C393 1.408 . S
C397 C396 1.404 . S
C397 H409 0.930 . S
C398 C394 1.524 . S
C398 H410 0.956 . S
C398 H411 0.961 1_545 S
C398 H412 0.961 . S
C399 C396 1.539 . S
C399 H413 0.958 . S
C399 H414 0.961 . S
C399 H415 0.960 . S
H400 C384 0.931 . S
H401 C389 0.929 . S
H402 C390 0.960 . S
H403 C390 0.962 . S
H404 C390 0.960 . S
H405 C391 0.961 . S
H406 C391 0.961 . S
H407 C391 0.961 . S
H408 C392 0.931 . S
H409 C397 0.930 . S
H410 C398 0.956 . S
H411 C398 0.961 1_565 S
H412 C398 0.961 . S
H413 C399 0.958 . S
H414 C399 0.961 . S
H415 C399 0.960 . S
C416 C417 1.391 . S
C416 C418 1.394 1_554 S
C416 H432 0.931 . S
C417 C416 1.391 . S
C417 C421 1.376 . S
C418 C416 1.394 1_556 S
C418 C419 1.369 . S
C418 C422 1.531 . S
C419 C418 1.369 . S
C419 C420 1.410 . S
C419 C427 1.503 . S
C420 C419 1.410 . S
C420 C421 1.392 1_556 S
C420 C423 1.511 . S
C421 C417 1.376 . S
C421 C420 1.392 1_554 S
C421 H433 0.929 . S
C422 C418 1.531 . S
C422 H434 0.960 . S
C422 H435 0.962 . S
C422 H436 0.960 1_556 S
C423 C420 1.511 . S
C423 H437 0.961 . S
C423 H438 0.961 . S
C423 H439 0.961 1_455 S
C424 C425 1.370 . S
C424 C426 1.363 . S
C424 H440 0.931 . S
C425 C424 1.370 . S
C425 C429 1.408 . S
C426 C424 1.363 . S
C426 C427 1.370 . S
C426 C430 1.524 . S
C427 C419 1.503 . S
C427 C426 1.370 . S
C427 C428 1.403 . S
C428 C427 1.403 . S
C428 C429 1.404 . S
C428 C431 1.539 . S
C429 C425 1.408 . S
C429 C428 1.404 . S
C429 H441 0.930 . S
C430 C426 1.524 . S
C430 H442 0.956 . S
C430 H443 0.961 . S
C430 H444 0.961 . S
C431 C428 1.539 . S
C431 H445 0.958 . S
C431 H446 0.961 1_455 S
C431 H447 0.960 . S
H432 C416 0.931 . S
H433 C421 0.929 . S
H434 C422 0.960 . S
H435 C422 0.962 . S
H436 C422 0.960 1_554 S
H437 C423 0.961 . S
H438 C423 0.961 . S
H439 C423 0.961 1_655 S
H440 C424 0.931 . S
H441 C429 0.930 . S
H442 C430 0.956 . S
H443 C430 0.961 . S
H444 C430 0.961 . S
H445 C431 0.958 . S
H446 C431 0.961 1_655 S
H447 C431 0.960 . S
C448 C449 1.391 . S
C448 C450 1.394 1_556 S
C448 H464 0.931 . S
C449 C448 1.391 . S
C449 C453 1.376 . S
C450 C448 1.394 1_554 S
C450 C451 1.369 . S
C450 C454 1.531 . S
C451 C450 1.369 . S
C451 C452 1.410 . S
C451 C459 1.503 . S
C452 C451 1.410 . S
C452 C453 1.392 1_554 S
C452 C455 1.511 1_455 S
C453 C449 1.376 . S
C453 C452 1.392 1_556 S
C453 H465 0.929 . S
C454 C450 1.531 . S
C454 H466 0.960 . S
C454 H467 0.962 . S
C454 H468 0.960 . S
C455 C452 1.511 1_655 S
C455 H469 0.961 . S
C455 H470 0.961 . S
C455 H471 0.961 . S
C456 C457 1.370 . S
C456 C458 1.363 . S
C456 H472 0.931 . S
C457 C456 1.370 . S
C457 C461 1.408 . S
C458 C456 1.363 . S
C458 C459 1.370 . S
C458 C462 1.524 . S
C459 C451 1.503 . S
C459 C458 1.370 . S
C459 C460 1.403 . S
C460 C459 1.403 . S
C460 C461 1.404 . S
C460 C463 1.539 . S
C461 C457 1.408 . S
C461 C460 1.404 . S
C461 H473 0.930 . S
C462 C458 1.524 . S
C462 H474 0.956 . S
C462 H475 0.961 . S
C462 H476 0.961 . S
C463 C460 1.539 . S
C463 H477 0.958 . S
C463 H478 0.961 . S
C463 H479 0.960 . S
H464 C448 0.931 . S
H465 C453 0.929 . S
H466 C454 0.960 . S
H467 C454 0.962 . S
H468 C454 0.960 . S
H469 C455 0.961 . S
H470 C455 0.961 . S
H471 C455 0.961 . S
H472 C456 0.931 . S
H473 C461 0.930 . S
H474 C462 0.956 . S
H475 C462 0.961 . S
H476 C462 0.961 . S
H477 C463 0.958 . S
H478 C463 0.961 . S
H479 C463 0.960 . S
C480 C481 1.391 . S
C480 C482 1.394 . S
C480 H496 0.931 . S
C481 C480 1.391 . S
C481 C485 1.376 . S
C482 C480 1.394 . S
C482 C483 1.369 . S
C482 C486 1.531 . S
C483 C482 1.369 . S
C483 C484 1.410 . S
C483 C491 1.503 . S
C484 C483 1.410 . S
C484 C485 1.392 . S
C484 C487 1.511 . S
C485 C481 1.376 . S
C485 C484 1.392 . S
C485 H497 0.929 . S
C486 C482 1.531 . S
C486 H498 0.960 . S
C486 H499 0.962 . S
C486 H500 0.960 . S
C487 C484 1.511 . S
C487 H501 0.961 . S
C487 H502 0.961 . S
C487 H503 0.961 . S
C488 C489 1.370 . S
C488 C490 1.363 . S
C488 H504 0.931 . S
C489 C488 1.370 . S
C489 C493 1.408 . S
C490 C488 1.363 . S
C490 C491 1.370 . S
C490 C494 1.524 . S
C491 C483 1.503 . S
C491 C490 1.370 . S
C491 C492 1.403 . S
C492 C491 1.403 . S
C492 C493 1.404 . S
C492 C495 1.539 . S
C493 C489 1.408 . S
C493 C492 1.404 . S
C493 H505 0.930 . S
C494 C490 1.524 . S
C494 H506 0.956 . S
C494 H507 0.961 . S
C494 H508 0.961 . S
C495 C492 1.539 . S
C495 H509 0.958 . S
C495 H510 0.961 . S
C495 H511 0.960 . S
H496 C480 0.931 . S
H497 C485 0.929 . S
H498 C486 0.960 . S
H499 C486 0.962 . S
H500 C486 0.960 . S
H501 C487 0.961 . S
H502 C487 0.961 . S
H503 C487 0.961 . S
H504 C488 0.931 . S
H505 C493 0.930 . S
H506 C494 0.956 . S
H507 C494 0.961 . S
H508 C494 0.961 . S
H509 C495 0.958 . S
H510 C495 0.961 . S
H511 C495 0.960 . S
C512 C513 1.391 . S
C512 C514 1.394 . S
C512 H528 0.931 . S
C513 C512 1.391 . S
C513 C517 1.376 . S
C514 C512 1.394 . S
C514 C515 1.369 . S
C514 C518 1.531 . S
C515 C514 1.369 . S
C515 C516 1.410 . S
C515 C523 1.503 . S
C516 C515 1.410 . S
C516 C517 1.392 . S
C516 C519 1.511 . S
C517 C513 1.376 . S
C517 C516 1.392 . S
C517 H529 0.929 . S
C518 C514 1.531 . S
C518 H530 0.960 . S
C518 H531 0.962 . S
C518 H532 0.960 . S
C519 C516 1.511 . S
C519 H533 0.961 . S
C519 H534 0.961 . S
C519 H535 0.961 . S
C520 C521 1.370 . S
C520 C522 1.363 . S
C520 H536 0.931 . S
C521 C520 1.370 . S
C521 C525 1.408 . S
C522 C520 1.363 . S
C522 C523 1.370 . S
C522 C526 1.524 . S
C523 C515 1.503 . S
C523 C522 1.370 . S
C523 C524 1.403 . S
C524 C523 1.403 . S
C524 C525 1.404 . S
C524 C527 1.539 . S
C525 C521 1.408 . S
C525 C524 1.404 . S
C525 H537 0.930 . S
C526 C522 1.524 . S
C526 H538 0.956 . S
C526 H539 0.961 . S
C526 H540 0.961 . S
C527 C524 1.539 . S
C527 H541 0.958 . S
C527 H542 0.961 . S
C527 H543 0.960 . S
H528 C512 0.931 . S
H529 C517 0.929 . S
H530 C518 0.960 . S
H531 C518 0.962 . S
H532 C518 0.960 . S
H533 C519 0.961 . S
H534 C519 0.961 . S
H535 C519 0.961 . S
H536 C520 0.931 . S
H537 C525 0.930 . S
H538 C526 0.956 . S
H539 C526 0.961 . S
H540 C526 0.961 . S
H541 C527 0.958 . S
H542 C527 0.961 . S
H543 C527 0.960 . S
C161 C13 1.877 . S
C169 C64 1.899 . S
C193 C97 1.905 . S
C201 C66 1.904 . S
C225 C133 1.572 . S
C233 C104 1.591 . S
C257 C26 1.643 . S
C265 C137 1.623 . S
C289 C146 1.887 . S
C297 C17 1.909 . S
C321 C106 1.610 . S
C329 C57 1.637 . S
C353 C93 1.901 . S
C361 C144 1.889 . S
C385 C53 1.563 . S
C393 C24 1.598 . S
C417 C2 0.875 . S
C425 C23 0.907 . S
C449 C63 0.909 . S
C457 C42 0.887 . S
C481 C103 0.853 . S
C489 C82 0.913 . S
C513 C143 0.931 . S
C521 C122 0.879 . S
