# Generated by pormake.
# Topology fna, (5)-cn, num edge types: 1
# Building blocks:
#     Node 0, Type 0, BuildingBlock: BEQFEK_clean_sbu_0, # of connection points: 5
#     Node 1, Type 0, BuildingBlock: BEQFEK_clean_sbu_0, # of connection points: 5
#     Node 2, Type 0, BuildingBlock: BEQFEK_clean_sbu_0, # of connection points: 5
#     Node 3, Type 0, BuildingBlock: BEQFEK_clean_sbu_0, # of connection points: 5
#     Node 4, Type 0, BuildingBlock: BEQFEK_clean_sbu_0, # of connection points: 5
#     Node 5, Type 0, BuildingBlock: BEQFEK_clean_sbu_0, # of connection points: 5
#     Node 6, Type 0, BuildingBlock: BEQFEK_clean_sbu_0, # of connection points: 5
#     Node 7, Type 0, BuildingBlock: BEQFEK_clean_sbu_0, # of connection points: 5
#     Node 8, Type 0, BuildingBlock: BEQFEK_clean_sbu_0, # of connection points: 5
#     Node 9, Type 0, BuildingBlock: BEQFEK_clean_sbu_0, # of connection points: 5
#     Node 10, Type 0, BuildingBlock: BEQFEK_clean_sbu_0, # of connection points: 5
#     Node 11, Type 0, BuildingBlock: BEQFEK_clean_sbu_0, # of connection points: 5
#     Edge 12, Type (0, 0), BuildingBlock: XUDNAN_clean_linker_2, # of connection points: 2
#     Edge 13, Type (0, 0), BuildingBlock: XUDNAN_clean_linker_2, # of connection points: 2
#     Edge 14, Type (0, 0), BuildingBlock: XUDNAN_clean_linker_2, # of connection points: 2
#     Edge 15, Type (0, 0), BuildingBlock: XUDNAN_clean_linker_2, # of connection points: 2
#     Edge 16, Type (0, 0), BuildingBlock: XUDNAN_clean_linker_2, # of connection points: 2
#     Edge 17, Type (0, 0), BuildingBlock: XUDNAN_clean_linker_2, # of connection points: 2
#     Edge 18, Type (0, 0), BuildingBlock: XUDNAN_clean_linker_2, # of connection points: 2
#     Edge 19, Type (0, 0), BuildingBlock: XUDNAN_clean_linker_2, # of connection points: 2
#     Edge 20, Type (0, 0), BuildingBlock: XUDNAN_clean_linker_2, # of connection points: 2
#     Edge 21, Type (0, 0), BuildingBlock: XUDNAN_clean_linker_2, # of connection points: 2
#     Edge 22, Type (0, 0), BuildingBlock: XUDNAN_clean_linker_2, # of connection points: 2
#     Edge 23, Type (0, 0), BuildingBlock: XUDNAN_clean_linker_2, # of connection points: 2
#     Edge 24, Type (0, 0), BuildingBlock: XUDNAN_clean_linker_2, # of connection points: 2
#     Edge 25, Type (0, 0), BuildingBlock: XUDNAN_clean_linker_2, # of connection points: 2
#     Edge 26, Type (0, 0), BuildingBlock: XUDNAN_clean_linker_2, # of connection points: 2
#     Edge 27, Type (0, 0), BuildingBlock: XUDNAN_clean_linker_2, # of connection points: 2
#     Edge 28, Type (0, 0), BuildingBlock: XUDNAN_clean_linker_2, # of connection points: 2
#     Edge 29, Type (0, 0), BuildingBlock: XUDNAN_clean_linker_2, # of connection points: 2
#     Edge 30, Type (0, 0), BuildingBlock: XUDNAN_clean_linker_2, # of connection points: 2
#     Edge 31, Type (0, 0), BuildingBlock: XUDNAN_clean_linker_2, # of connection points: 2
#     Edge 32, Type (0, 0), BuildingBlock: XUDNAN_clean_linker_2, # of connection points: 2
#     Edge 33, Type (0, 0), BuildingBlock: XUDNAN_clean_linker_2, # of connection points: 2
#     Edge 34, Type (0, 0), BuildingBlock: XUDNAN_clean_linker_2, # of connection points: 2
#     Edge 35, Type (0, 0), BuildingBlock: XUDNAN_clean_linker_2, # of connection points: 2
#     Edge 36, Type (0, 0), BuildingBlock: XUDNAN_clean_linker_2, # of connection points: 2
#     Edge 37, Type (0, 0), BuildingBlock: XUDNAN_clean_linker_2, # of connection points: 2
#     Edge 38, Type (0, 0), BuildingBlock: XUDNAN_clean_linker_2, # of connection points: 2
#     Edge 39, Type (0, 0), BuildingBlock: XUDNAN_clean_linker_2, # of connection points: 2
#     Edge 40, Type (0, 0), BuildingBlock: XUDNAN_clean_linker_2, # of connection points: 2
#     Edge 41, Type (0, 0), BuildingBlock: XUDNAN_clean_linker_2, # of connection points: 2
# Relax obj value: 0.680
# Max RMSD: 0.271
# Mean RMSD: 0.271
data_MOF--net-fna--node1-BEQFEK_clean_sbu_0--edge1-XUDNAN_clean_linker_2
_symmetry_space_group_name_H-M    P1
_symmetry_Int_Tables_number       1
_symmetry_cell_setting            triclinic
loop_
_symmetry_equiv_pos_as_xyz
'x, y, z'
_cell_length_a     44.588995
_cell_length_b     44.587393
_cell_length_c     40.497874
_cell_angle_alpha  89.979189
_cell_angle_beta   90.011818
_cell_angle_gamma 119.97086
loop_
_atom_site_label
_atom_site_type_symbol
_atom_site_fract_x
_atom_site_fract_y
_atom_site_fract_z
_atom_type_partial_charge
Co0 Co 0.3694 0.35296 0.49269 0.0
Co1 Co 0.34349 0.31426 0.4256 0.0
C2 C 0.41354 0.38001 0.43404 0.0
O3 O 0.40827 0.38127 0.4646 0.0
O4 O 0.39081 0.35605 0.41576 0.0
C5 C 0.3971 0.40251 0.54413 0.0
O6 O 0.40305 0.42476 0.52025 0.0
C7 C 0.34666 0.2707 0.37295 0.0
C8 C 0.29441 0.24741 0.35107 0.0
C9 C 0.32506 0.24657 0.34967 0.0
N10 N 0.32924 0.28435 0.38783 0.0
N11 N 0.2982 0.27071 0.37426 0.0
C12 C 0.38352 0.28136 0.3807 0.0
H13 H 0.38441 0.26655 0.40231 0.0
H14 H 0.39617 0.27655 0.35936 0.0
H15 H 0.3982 0.30918 0.38723 0.0
C16 C 0.35655 0.28504 0.5148 0.0
N17 N 0.35791 0.30645 0.49074 0.0
N18 N 0.34543 0.28891 0.46319 0.0
C19 C 0.33475 0.25519 0.46935 0.0
C20 C 0.342 0.25194 0.50209 0.0
C21 C 0.36685 0.29581 0.54989 0.0
H22 H 0.39346 0.31844 0.55057 0.0
H23 H 0.36593 0.27451 0.56488 0.0
H24 H 0.3491 0.30379 0.56085 0.0
O25 O 0.3296 0.35817 0.48099 0.0
O26 O 0.30804 0.32893 0.43437 0.0
H27 H 0.29706 0.23136 0.43075 0.0
H28 H 0.29947 0.20117 0.45904 0.0
C29 C 0.31473 0.22608 0.44572 0.0
H30 H 0.33293 0.22352 0.42892 0.0
H31 H 0.27915 0.27637 0.38166 0.0
O32 O 0.38288 0.37046 0.53752 0.0
C33 C 0.30712 0.34735 0.45806 0.0
Co34 Co 0.99864 0.35765 0.66028 0.0
Co35 Co 0.02909 0.34369 0.59598 0.0
C36 C 0.02426 0.40787 0.60412 0.0
O37 O 0.01015 0.3969 0.63199 0.0
O38 O 0.03375 0.39038 0.58651 0.0
C39 C 0.01009 0.40024 0.71434 0.0
O40 O 0.03983 0.41844 0.69903 0.0
C41 C 0.08085 0.35421 0.54474 0.0
C42 C 0.07054 0.30086 0.53731 0.0
C43 C 0.0938 0.33503 0.52928 0.0
N44 N 0.05244 0.33249 0.56216 0.0
N45 N 0.04589 0.30054 0.55677 0.0
C46 C 0.09439 0.39237 0.54258 0.0
H47 H 0.10805 0.40497 0.56583 0.0
H48 H 0.112 0.40407 0.52118 0.0
H49 H 0.0725 0.39721 0.53947 0.0
C50 C 0.05211 0.34646 0.69158 0.0
N51 N 0.0363 0.34988 0.66468 0.0
N52 N 0.04998 0.34478 0.63791 0.0
C53 C 0.07545 0.33848 0.64725 0.0
C54 C 0.07752 0.33948 0.6814 0.0
C55 C 0.04122 0.34669 0.7265 0.0
H56 H 0.01289 0.33626 0.72785 0.0
H57 H 0.05479 0.37367 0.73579 0.0
H58 H 0.04832 0.33112 0.74271 0.0
O59 O 0.95868 0.316 0.6434 0.0
O60 O 0.97886 0.30525 0.59736 0.0
H61 H 0.08078 0.30561 0.61234 0.0
H62 H 0.11861 0.33041 0.63755 0.0
C63 C 0.09717 0.33107 0.62426 0.0
H64 H 0.10826 0.35131 0.60492 0.0
H65 H 0.02575 0.27866 0.56798 0.0
O66 O 0.98748 0.37127 0.70253 0.0
C67 C 0.95429 0.29747 0.61799 0.0
Co68 Co 0.64706 1.00049 0.81844 0.0
Co69 Co 0.68727 0.02558 0.75188 0.0
C70 C 0.62031 0.02423 0.76263 0.0
O71 O 0.61807 0.01188 0.79128 0.0
O72 O 0.64577 0.03124 0.74362 0.0
C73 C 0.61221 0.00636 0.87451 0.0
O74 O 0.61678 0.03466 0.85994 0.0
C75 C 0.72818 0.07342 0.69778 0.0
C76 C 0.7593 0.05014 0.68143 0.0
C77 C 0.7545 0.07815 0.6762 0.0
N78 N 0.71854 0.04435 0.71533 0.0
N79 N 0.73687 0.03031 0.705 0.0
C80 C 0.71108 0.09492 0.7007 0.0
H81 H 0.71601 0.10699 0.72549 0.0
H82 H 0.72011 0.11521 0.68135 0.0
H83 H 0.68267 0.07793 0.69827 0.0
C84 C 0.71236 0.05908 0.84479 0.0
N85 N 0.69288 0.03845 0.81991 0.0
N86 N 0.7101 0.04941 0.79191 0.0
C87 C 0.74118 0.07756 0.79832 0.0
C88 C 0.74348 0.08474 0.83189 0.0
C89 C 0.70017 0.05595 0.87973 0.0
H90 H 0.68274 0.06691 0.88164 0.0
H91 H 0.72202 0.07021 0.89707 0.0
H92 H 0.68557 0.02832 0.88707 0.0
O93 O 0.64727 0.95909 0.80299 0.0
O94 O 0.67514 0.97568 0.75531 0.0
H95 H 0.79414 0.114 0.78509 0.0
H96 H 0.76176 0.11399 0.75865 0.0
C97 C 0.76869 0.09727 0.77314 0.0
H98 H 0.77104 0.07909 0.75617 0.0
H99 H 0.73486 0.00774 0.71482 0.0
O100 O 0.62456 0.98884 0.86179 0.0
C101 C 0.65964 0.95267 0.77748 0.0
Co102 Co 0.65142 0.64637 0.98269 0.0
Co103 Co 0.6698 0.68768 0.91654 0.0
C104 C 0.60385 0.61972 0.92526 0.0
O105 O 0.61329 0.61695 0.95401 0.0
O106 O 0.62272 0.64604 0.90731 0.0
C107 C 0.60631 0.61294 0.03555 0.0
O108 O 0.58424 0.61518 0.01563 0.0
C109 C 0.66331 0.7312 0.86507 0.0
C110 C 0.71587 0.75749 0.84361 0.0
C111 C 0.68416 0.7561 0.84202 0.0
N112 N 0.68214 0.71908 0.87998 0.0
N113 N 0.71339 0.73461 0.86669 0.0
C114 C 0.62577 0.71813 0.87201 0.0
H115 H 0.61252 0.69033 0.87854 0.0
H116 H 0.62317 0.73228 0.89329 0.0
H117 H 0.61282 0.72186 0.85028 0.0
C118 C 0.66009 0.712 0.00896 0.0
N119 N 0.65895 0.69197 0.98357 0.0
N120 N 0.6684 0.71047 0.95623 0.0
C121 C 0.67677 0.74332 0.96374 0.0
C122 C 0.67117 0.74503 -0.00277 0.0
C123 C 0.65363 0.70058 0.04429 0.0
H124 H 0.66739 0.68636 0.05038 0.0
H125 H 0.62549 0.68293 0.04798 0.0
H126 H 0.6624 0.72285 0.0614 0.0
O127 O 0.69399 0.64729 0.96966 0.0
O128 O 0.70743 0.67532 0.92177 0.0
H129 H 0.71074 0.77136 0.92363 0.0
H130 H 0.70426 0.7982 0.95293 0.0
C131 C 0.69161 0.77295 0.93991 0.0
H132 H 0.67059 0.77173 0.92441 0.0
H133 H 0.73334 0.73027 0.87399 0.0
O134 O 0.63751 0.62505 0.0264 0.0
C135 C 0.71392 0.65979 0.94482 0.0
Co136 Co 1.0019 0.64498 0.16428 0.0
Co137 Co 0.98088 0.66323 0.0969 0.0
C138 C 0.97057 0.59249 0.11117 0.0
O139 O 0.98181 0.6019 0.14019 0.0
O140 O 0.97002 0.61363 0.0903 0.0
C141 C 0.98687 0.60589 0.22236 0.0
O142 O 0.95635 0.58812 0.20832 0.0
C143 C 0.93278 0.65887 0.04411 0.0
C144 C 0.96169 0.71127 0.02244 0.0
C145 C 0.93058 0.68038 0.02047 0.0
N146 N 0.96348 0.67659 0.05968 0.0
N147 N 0.98075 0.70773 0.04628 0.0
C148 C 0.90683 0.62171 0.05095 0.0
H149 H 0.92014 0.60708 0.05698 0.0
H150 H 0.89075 0.62002 0.07251 0.0
H151 H 0.8897 0.60946 0.02933 0.0
C152 C 0.95635 0.6698 0.19047 0.0
N153 N 0.97097 0.66213 0.1652 0.0
N154 N 0.96043 0.66846 0.13699 0.0
C155 C 0.93819 0.68001 0.14371 0.0
C156 C 0.93494 0.68108 0.17773 0.0
C157 C 0.96248 0.66605 0.22621 0.0
H158 H 0.98995 0.67361 0.23024 0.0
H159 H 0.94588 0.63863 0.23364 0.0
H160 H 0.95586 0.6821 0.24218 0.0
O161 O 0.04635 0.67948 0.14551 0.0
O162 O 0.03244 0.69624 0.09906 0.0
H163 H 0.90894 0.70487 0.13003 0.0
H164 H 0.90241 0.66918 0.10426 0.0
C165 C 0.92191 0.69182 0.11839 0.0
H166 H 0.94193 0.70995 0.10095 0.0
H167 H 0.00526 0.72692 0.05397 0.0
O168 O 0.01054 0.63277 0.2083 0.0
C169 C 0.05493 0.69868 0.12004 0.0
Co170 Co 0.34744 0.99461 0.33457 0.0
Co171 Co 0.3129 0.96917 0.26521 0.0
C172 C 0.37834 0.97018 0.28253 0.0
O173 O 0.37724 0.98232 0.31046 0.0
O174 O 0.35538 0.964 0.26068 0.0
C175 C 0.36942 0.97678 0.39055 0.0
O176 O 0.35991 0.94933 0.37197 0.0
C177 C 0.28027 0.92393 0.20714 0.0
C178 C 0.23467 0.93022 0.19992 0.0
C179 C 0.24921 0.91061 0.18962 0.0
N180 N 0.2828 0.94883 0.22772 0.0
N181 N 0.25596 0.95314 0.22248 0.0
C182 C 0.30776 0.91417 0.20405 0.0
H183 H 0.30557 0.89704 0.22492 0.0
H184 H 0.30577 0.90104 0.18022 0.0
H185 H 0.33365 0.93775 0.20519 0.0
C186 C 0.27894 0.94096 0.35752 0.0
N187 N 0.30158 0.95818 0.33315 0.0
N188 N 0.28722 0.94529 0.30436 0.0
C189 C 0.255 0.91832 0.30982 0.0
C190 C 0.24877 0.91485 0.34368 0.0
C191 C 0.28489 0.95143 0.39313 0.0
H192 H 0.30257 0.97974 0.39537 0.0
H193 H 0.29668 0.93774 0.40574 0.0
H194 H 0.26012 0.94442 0.40571 0.0
O195 O 0.34992 0.03644 0.3175 0.0
O196 O 0.32495 0.01961 0.26825 0.0
H197 H 0.21797 0.90797 0.27175 0.0
H198 H 0.21119 0.87002 0.29384 0.0
C199 C 0.23116 0.89522 0.28347 0.0
H200 H 0.24609 0.89039 0.26446 0.0
H201 H 0.25102 0.97021 0.23587 0.0
O202 O 0.36547 1.00134 0.37973 0.0
C203 C 0.33935 0.04278 0.29065 0.0
Co204 Co 0.6532 0.65023 0.32886 0.0
Co205 Co 0.68939 0.66087 0.39727 0.0
C206 C 0.62607 0.59412 0.37973 0.0
O207 O 0.62605 0.60679 0.35178 0.0
O208 O 0.64851 0.61204 0.40163 0.0
C209 C 0.63037 0.61343 0.27004 0.0
O210 O 0.64275 0.59526 0.28396 0.0
C211 C 0.72842 0.65212 0.4526 0.0
C212 C 0.75681 0.70555 0.47197 0.0
C213 C 0.75289 0.67294 0.476 0.0
N214 N 0.71894 0.67181 0.4352 0.0
N215 N 0.73571 0.70358 0.44728 0.0
C216 C 0.71334 0.61396 0.44762 0.0
H217 H 0.68509 0.60158 0.44336 0.0
H218 H 0.725 0.60924 0.42548 0.0
H219 H 0.71802 0.60173 0.46938 0.0
C220 C 0.723 0.66938 0.30445 0.0
N221 N 0.70025 0.66261 0.32911 0.0
N222 N 0.71569 0.66591 0.35772 0.0
C223 C 0.749 0.67477 0.35194 0.0
C224 C 0.75454 0.67695 0.31796 0.0
C225 C 0.71557 0.6714 0.2687 0.0
H226 H 0.69635 0.68009 0.26603 0.0
H227 H 0.70499 0.64542 0.25734 0.0
H228 H 0.73954 0.6896 0.25522 0.0
O229 O 0.64739 0.68736 0.3476 0.0
O230 O 0.67466 0.69698 0.39577 0.0
H231 H 0.79991 0.68564 0.36808 0.0
H232 H 0.76449 0.65729 0.39424 0.0
C233 C 0.77478 0.68054 0.37838 0.0
H234 H 0.77887 0.7027 0.39401 0.0
H235 H 0.73343 0.72421 0.43806 0.0
O236 O 0.63353 0.64012 0.28443 0.0
C237 C 0.65796 0.70402 0.3745 0.0
Co238 Co 0.99883 0.64428 0.51004 0.0
Co239 Co 0.02296 0.68889 0.5747 0.0
C240 C 0.02733 0.62441 0.56727 0.0
O241 O 0.01437 0.61998 0.53867 0.0
O242 O 0.03214 0.64983 0.58535 0.0
C243 C 0.01078 0.61043 0.45736 0.0
O244 O 0.03618 0.61441 0.47669 0.0
C245 C 0.07143 0.73637 0.62579 0.0
C246 C 0.04322 0.76247 0.64284 0.0
C247 C 0.0739 0.76216 0.64698 0.0
N248 N 0.04101 0.72273 0.60956 0.0
N249 N 0.02419 0.73825 0.62021 0.0
C250 C 0.09678 0.72386 0.62188 0.0
H251 H 0.08324 0.69606 0.61539 0.0
H252 H 0.11508 0.73829 0.60161 0.0
H253 H 0.11173 0.72786 0.64498 0.0
C254 C 0.04873 0.71077 0.47989 0.0
N255 N 0.03323 0.69118 0.50662 0.0
N256 N 0.04423 0.71049 0.53341 0.0
C257 C 0.0674 0.74327 0.52426 0.0
C258 C 0.0709 0.74433 0.49012 0.0
C259 C 0.04247 0.69737 0.44518 0.0
H260 H 0.01424 0.68227 0.44032 0.0
H261 H 0.05333 0.67997 0.44212 0.0
H262 H 0.05491 0.71846 0.42674 0.0
O263 O 0.95574 0.64106 0.52526 0.0
O264 O 0.97187 0.67249 0.57117 0.0
H265 H 0.06383 0.77374 0.56326 0.0
H266 H 0.09756 0.79837 0.53349 0.0
C267 C 0.08387 0.77355 0.54723 0.0
H268 H 0.10277 0.77119 0.56316 0.0
H269 H 0.99997 0.73283 0.61147 0.0
O270 O 0.99085 0.62146 0.46684 0.0
C271 C 0.9487 0.65413 0.54991 0.0
Co272 Co 0.35491 1.00096 0.678 0.0
Co273 Co 0.34103 0.03249 0.74107 0.0
C274 C 0.40319 0.02372 0.73541 0.0
O275 O 0.39288 0.01004 0.70728 0.0
O276 O 0.38624 0.03453 0.7521 0.0
C277 C 0.39642 0.00851 0.6234 0.0
O278 O 0.41663 0.03881 0.63702 0.0
C279 C 0.35265 0.08399 0.79294 0.0
C280 C 0.30019 0.07678 0.79837 0.0
C281 C 0.33431 0.09809 0.80795 0.0
N282 N 0.33058 0.05674 0.77438 0.0
N283 N 0.29912 0.05204 0.77852 0.0
C284 C 0.39031 0.09552 0.79639 0.0
H285 H 0.40416 0.10906 0.77351 0.0
H286 H 0.40197 0.11271 0.81806 0.0
H287 H 0.39355 0.07266 0.7998 0.0
C288 C 0.34684 0.05596 0.64538 0.0
N289 N 0.3495 0.04005 0.67261 0.0
N290 N 0.3449 0.05446 0.69907 0.0
C291 C 0.34017 0.08081 0.68931 0.0
C292 C 0.34109 0.08247 0.65501 0.0
C293 C 0.34544 0.04337 0.61082 0.0
H294 H 0.33451 0.01494 0.61056 0.0
H295 H 0.37203 0.05607 0.60054 0.0
H296 H 0.32942 0.04998 0.59474 0.0
O297 O 0.31185 0.96244 0.69367 0.0
O298 O 0.30029 0.98313 0.73879 0.0
H299 H 0.30873 0.0902 0.72273 0.0
H300 H 0.33871 0.12774 0.69929 0.0
C301 C 0.33521 0.10427 0.71223 0.0
H302 H 0.35423 0.11244 0.73262 0.0
H303 H 0.27719 0.03312 0.76629 0.0
O304 O 0.36742 0.98791 0.63647 0.0
C305 C 0.29232 0.95862 0.71804 0.0
Co306 Co 0.35159 0.37004 0.83786 0.0
Co307 Co 0.31488 0.34757 0.90655 0.0
C308 C 0.37673 0.41844 0.89423 0.0
O309 O 0.3775 0.41072 0.86434 0.0
O310 O 0.35478 0.39664 0.91457 0.0
C311 C 0.38262 0.41393 0.78214 0.0
O312 O 0.38485 0.43832 0.80189 0.0
C313 C 0.27241 0.35207 0.959 0.0
C314 C 0.24815 0.30004 0.98154 0.0
C315 C 0.24833 0.33123 0.98264 0.0
N316 N 0.28556 0.33397 0.94464 0.0
N317 N 0.2714 0.30308 0.9586 0.0
C318 C 0.27991 0.38698 0.94719 0.0
H319 H 0.29123 0.39215 0.92201 0.0
H320 H 0.25599 0.38881 0.94709 0.0
H321 H 0.29889 0.40708 0.9641 0.0
C322 C 0.28208 0.3528 0.81616 0.0
N323 N 0.30445 0.35592 0.83999 0.0
N324 N 0.288 0.34538 0.86837 0.0
C325 C 0.25404 0.33416 0.863 0.0
C326 C 0.24953 0.33906 0.82993 0.0
C327 C 0.29154 0.36142 0.78057 0.0
H328 H 0.30522 0.34793 0.77167 0.0
H329 H 0.30938 0.38969 0.77811 0.0
H330 H 0.26842 0.35382 0.76489 0.0
O331 O 0.35972 0.33266 0.85221 0.0
O332 O 0.33203 0.31389 0.90007 0.0
H333 H 0.2306 0.3004 0.90444 0.0
H334 H 0.2002 0.30315 0.87679 0.0
C335 C 0.22611 0.31795 0.88846 0.0
H336 H 0.22635 0.33852 0.90397 0.0
H337 H 0.27641 0.28353 0.95142 0.0
O338 O 0.36899 0.38295 0.79257 0.0
C339 C 0.35029 0.31207 0.87672 0.0
Co340 Co 1.00243 0.36235 -0.00179 0.0
Co341 Co 0.96869 0.3125 0.05871 0.0
C342 C 0.97442 0.38203 0.05673 0.0
O343 O 0.98958 0.38755 0.02907 0.0
O344 O 0.96445 0.35368 0.0722 0.0
C345 C 0.99348 0.40018 0.94853 0.0
O346 O 0.96751 0.39417 0.96803 0.0
C347 C 0.91849 0.26923 0.1102 0.0
C348 C 0.92328 0.22232 0.10846 0.0
C349 C 0.90388 0.23556 0.12233 0.0
N350 N 0.94433 0.27497 0.08933 0.0
N351 N 0.94755 0.24708 0.08906 0.0
C352 C 0.90883 0.296 0.11863 0.0
H353 H 0.8952 0.29956 0.09738 0.0
H354 H 0.89229 0.2888 0.14098 0.0
H355 H 0.93265 0.32103 0.12348 0.0
C356 C 0.94759 0.30206 0.96258 0.0
N357 N 0.96456 0.31748 0.99058 0.0
N358 N 0.94844 0.29728 0.01589 0.0
C359 C 0.91976 0.26879 0.00473 0.0
C360 C 0.91833 0.27093 0.97052 0.0
C361 C 0.96009 0.31604 0.92862 0.0
H362 H 0.98877 0.33095 0.92802 0.0
H363 H 0.94998 0.33336 0.92154 0.0
H364 H 0.95074 0.29474 0.91028 0.0
O365 O 0.04218 0.36001 0.01509 0.0
O366 O 0.01875 0.32371 0.05753 0.0
H367 H 0.90181 0.22415 0.03547 0.0
H368 H 0.86781 0.22625 0.01332 0.0
C369 C 0.89269 0.24175 0.02657 0.0
H370 H 0.88822 0.25422 0.04819 0.0
H371 H 0.96517 0.24429 0.07428 0.0
O372 O 0.01382 0.38924 0.95695 0.0
C373 C 0.04462 0.34301 0.03913 0.0
Co374 Co 0.62945 0.98246 0.16048 0.0
Co375 Co 0.65629 0.96742 0.22619 0.0
C376 C 0.58606 0.96235 0.22032 0.0
O377 O 0.59097 0.97025 0.19 0.0
O378 O 0.60915 0.96072 0.23759 0.0
C379 C 0.58327 0.96588 0.10685 0.0
O380 O 0.56263 0.93989 0.12601 0.0
C381 C 0.65167 0.91982 0.27801 0.0
C382 C 0.7039 0.94644 0.30014 0.0
C383 C 0.6721 0.91613 0.30186 0.0
N384 N 0.67053 0.95066 0.26309 0.0
N385 N 0.70161 0.96666 0.27669 0.0
C386 C 0.61608 0.89337 0.26691 0.0
H387 H 0.61101 0.89937 0.24162 0.0
H388 H 0.61291 0.86706 0.26734 0.0
H389 H 0.59673 0.89381 0.28383 0.0
C390 C 0.64489 0.92947 0.13515 0.0
N391 N 0.64243 0.94814 0.16004 0.0
N392 N 0.65472 0.94216 0.18729 0.0
C393 C 0.66609 0.91988 0.18026 0.0
C394 C 0.65973 0.91085 0.14715 0.0
C395 C 0.63616 0.93181 0.09988 0.0
H396 H 0.64699 0.95932 0.09279 0.0
H397 H 0.60762 0.91844 0.09712 0.0
H398 H 0.64645 0.91957 0.08291 0.0
O399 O 0.66906 0.02742 0.17313 0.0
O400 O 0.69084 0.01773 0.21873 0.0
H401 H 0.70326 0.93115 0.21874 0.0
H402 H 0.69721 0.89634 0.19153 0.0
C403 C 0.68404 0.90861 0.20425 0.0
H404 H 0.6647 0.88943 0.22152 0.0
H405 H 0.72157 0.99091 0.26929 0.0
O406 O 0.6136 0.9874 0.11673 0.0
C407 C 0.69154 0.03803 0.1961 0.0
H408 H 0.3793 0.1211 0.60247 0.0
H409 H 0.28605 0.09324 0.6583 0.0
H410 H 0.27314 0.12957 0.62134 0.0
H411 H 0.40352 0.2089 0.5889 0.0
H412 H 0.41976 0.21074 0.54775 0.0
H413 H 0.4203 0.181 0.57747 0.0
H414 H 0.38532 0.13012 0.53706 0.0
H415 H 0.38442 0.15974 0.50731 0.0
H416 H 0.34452 0.12304 0.52117 0.0
H417 H 0.27191 0.17092 0.58012 0.0
H418 H 0.28436 0.21726 0.53946 0.0
H419 H 0.37798 0.21791 0.50999 0.0
C420 C 0.35605 0.12252 0.60666 0.0
C421 C 0.3337 0.10464 0.63323 0.0
C422 C 0.30367 0.10719 0.63829 0.0
C423 C 0.29599 0.12745 0.61725 0.0
C424 C 0.31854 0.1448 0.59122 0.0
C425 C 0.34805 0.14267 0.58592 0.0
C426 C 0.36891 0.16526 0.55721 0.0
C427 C 0.40526 0.19313 0.56852 0.0
C428 C 0.3709 0.14322 0.52902 0.0
C429 C 0.34691 0.18102 0.54759 0.0
C430 C 0.31772 0.1685 0.56727 0.0
C431 C 0.29438 0.18054 0.56427 0.0
C432 C 0.30149 0.20663 0.54109 0.0
C433 C 0.33159 0.22026 0.52137 0.0
C434 C 0.35431 0.20702 0.52428 0.0
H435 H 0.13186 0.3855 0.71835 0.0
H436 H 0.07225 0.27691 0.69259 0.0
H437 H 0.10718 0.26388 0.73167 0.0
H438 H 0.21396 0.38837 0.72323 0.0
H439 H 0.22957 0.41891 0.75686 0.0
H440 H 0.19883 0.41882 0.72797 0.0
H441 H 0.15766 0.41128 0.77649 0.0
H442 H 0.1881 0.41087 0.80549 0.0
H443 H 0.14415 0.37534 0.80448 0.0
H444 H 0.14857 0.26314 0.77395 0.0
H445 H 0.19751 0.27555 0.81146 0.0
H446 H 0.23144 0.38495 0.80724 0.0
C447 C 0.1264 0.35906 0.72099 0.0
C448 C 0.09968 0.33208 0.70276 0.0
C449 C 0.09293 0.29776 0.70645 0.0
C450 C 0.11242 0.29018 0.72866 0.0
C451 C 0.1386 0.31737 0.7466 0.0
C452 C 0.14594 0.3512 0.74261 0.0
C453 C 0.17656 0.37593 0.76344 0.0
C454 C 0.2065 0.40204 0.74157 0.0
C455 C 0.16597 0.39444 0.78899 0.0
C456 C 0.18532 0.35079 0.77985 0.0
C457 C 0.16286 0.31706 0.77018 0.0
C458 C 0.16624 0.28941 0.78176 0.0
C459 C 0.19382 0.29658 0.80313 0.0
C460 C 0.21756 0.33103 0.8123 0.0
C461 C 0.21308 0.35835 0.80084 0.0
H462 H 0.78478 0.09083 0.8847 0.0
H463 H 0.76022 0.15034 0.81644 0.0
H464 H 0.80154 0.20434 0.84525 0.0
H465 H 0.79364 0.14127 0.95732 0.0
H466 H 0.82951 0.13822 0.97401 0.0
H467 H 0.79814 0.10417 0.94803 0.0
H468 H 0.84709 0.11114 0.90875 0.0
H469 H 0.87863 0.14504 0.93471 0.0
H470 H 0.87626 0.15309 0.89143 0.0
H471 H 0.8435 0.25118 0.88234 0.0
H472 H 0.88708 0.28907 0.92317 0.0
H473 H 0.8868 0.19992 0.96641 0.0
C474 C 0.78823 0.11532 0.87597 0.0
C475 C 0.76942 0.11671 0.84855 0.0
C476 C 0.77462 0.14901 0.83739 0.0
C477 C 0.79784 0.17968 0.85367 0.0
C478 C 0.81575 0.1775 0.8809 0.0
C479 C 0.81152 0.14625 0.89185 0.0
C480 C 0.83446 0.15133 0.92143 0.0
C481 C 0.81263 0.13263 0.95201 0.0
C482 C 0.86067 0.13945 0.91359 0.0
C483 C 0.85222 0.19031 0.92537 0.0
C484 C 0.84079 0.20478 0.90186 0.0
C485 C 0.85294 0.24022 0.90065 0.0
C486 C 0.87781 0.26153 0.92381 0.0
C487 C 0.89058 0.24745 0.9476 0.0
C488 C 0.87736 0.21132 0.94853 0.0
H489 H 0.62239 0.75406 0.02809 0.0
H490 H 0.7329 0.80239 0.012 0.0
H491 H 0.74264 0.84974 0.05055 0.0
H492 H 0.61915 0.8339 0.03254 0.0
H493 H 0.586 0.81738 0.06387 0.0
H494 H 0.58839 0.78818 0.03468 0.0
H495 H 0.59189 0.75201 0.08313 0.0
H496 H 0.59004 0.78139 0.11247 0.0
H497 H 0.62551 0.77286 0.11368 0.0
H498 H 0.73989 0.89026 0.09288 0.0
H499 H 0.72456 0.92388 0.13135 0.0
H500 H 0.61576 0.8496 0.11798 0.0
C501 C 0.64855 0.77496 0.03243 0.0
C502 C 0.67696 0.77513 0.01707 0.0
C503 C 0.71092 0.80239 0.02336 0.0
C504 C 0.71662 0.82911 0.04532 0.0
C505 C 0.68801 0.82804 0.06051 0.0
C506 C 0.6546 0.80189 0.05396 0.0
C507 C 0.62827 0.80682 0.07314 0.0
C508 C 0.60403 0.81188 0.04965 0.0
C509 C 0.60772 0.77647 0.09702 0.0
C510 C 0.65201 0.83977 0.09163 0.0
C511 C 0.68641 0.85147 0.08432 0.0
C512 C 0.71306 0.88137 0.09872 0.0
C513 C 0.70421 0.90012 0.12063 0.0
C514 C 0.66912 0.8889 0.12762 0.0
C515 C 0.64279 0.85833 0.11312 0.0
H516 H 0.86488 0.64371 0.18299 0.0
H517 H 0.95501 0.73767 0.21659 0.0
H518 H 0.91826 0.74847 0.2552 0.0
H519 H 0.80198 0.67471 0.18954 0.0
H520 H 0.76795 0.63337 0.20399 0.0
H521 H 0.80081 0.63545 0.17664 0.0
H522 H 0.8149 0.60061 0.21897 0.0
H523 H 0.78245 0.59881 0.24662 0.0
H524 H 0.82646 0.61649 0.26064 0.0
H525 H 0.87217 0.74638 0.29303 0.0
H526 H 0.81975 0.73273 0.3256 0.0
H527 H 0.76037 0.63915 0.26827 0.0
C528 C 0.87653 0.667 0.19788 0.0
C529 C 0.91247 0.69019 0.19679 0.0
C530 C 0.92733 0.71996 0.21706 0.0
C531 C 0.90671 0.72618 0.23903 0.0
C532 C 0.87135 0.7023 0.2403 0.0
C533 C 0.85632 0.67344 0.22006 0.0
C534 C 0.81817 0.65072 0.22762 0.0
C535 C 0.79592 0.64844 0.19767 0.0
C536 C 0.81004 0.61452 0.23915 0.0
C537 C 0.81418 0.67101 0.25554 0.0
C538 C 0.84507 0.70077 0.26243 0.0
C539 C 0.84781 0.72322 0.28776 0.0
C540 C 0.81809 0.71516 0.3063 0.0
C541 C 0.78629 0.68484 0.2995 0.0
C542 C 0.78442 0.66259 0.27382 0.0
H543 H 0.24447 0.87614 0.39746 0.0
H544 H 0.18196 0.89811 0.33058 0.0
H545 H 0.12957 0.85921 0.36302 0.0
H546 H 0.18292 0.78666 0.41087 0.0
H547 H 0.19393 0.78748 0.45381 0.0
H548 H 0.22598 0.8169 0.42512 0.0
H549 H 0.23569 0.86868 0.46174 0.0
H550 H 0.20335 0.8394 0.49038 0.0
H551 H 0.19938 0.87413 0.4721 0.0
H552 H 0.08424 0.81772 0.40274 0.0
H553 H 0.0487 0.7737 0.44471 0.0
H554 H 0.14126 0.78041 0.48649 0.0
C555 C 0.21974 0.87282 0.38976 0.0
C556 C 0.21708 0.88999 0.3616 0.0
C557 C 0.18434 0.88478 0.35191 0.0
C558 C 0.15459 0.86305 0.37034 0.0
C559 C 0.1582 0.84693 0.39838 0.0
C560 C 0.18993 0.85142 0.40793 0.0
C561 C 0.18682 0.83071 0.43867 0.0
C562 C 0.19807 0.80384 0.43168 0.0
C563 C 0.20754 0.85467 0.46742 0.0
C564 C 0.14826 0.81354 0.44483 0.0
C565 C 0.13224 0.82341 0.42142 0.0
C566 C 0.09653 0.80999 0.42129 0.0
C567 C 0.07661 0.78521 0.44519 0.0
C568 C 0.0925 0.77419 0.46872 0.0
C569 C 0.12875 0.789 0.46897 0.0
H570 H 0.35994 0.2134 0.36934 0.0
H571 H 0.29852 0.21888 0.2891 0.0
H572 H 0.30097 0.17087 0.26083 0.0
H573 H 0.41586 0.19177 0.31807 0.0
H574 H 0.41632 0.16349 0.34963 0.0
H575 H 0.413 0.20081 0.36097 0.0
H576 H 0.35691 0.16127 0.39377 0.0
H577 H 0.35989 0.1239 0.3824 0.0
H578 H 0.32117 0.12546 0.37306 0.0
H579 H 0.30522 0.11767 0.24464 0.0
H580 H 0.30992 0.06458 0.24298 0.0
H581 H 0.37087 0.09734 0.33301 0.0
C582 C 0.34844 0.20586 0.3451 0.0
C583 C 0.33007 0.22081 0.33092 0.0
C584 C 0.31328 0.20819 0.30015 0.0
C585 C 0.31463 0.18103 0.28387 0.0
C586 C 0.33299 0.16683 0.29865 0.0
C587 C 0.34978 0.17908 0.32852 0.0
C588 C 0.36529 0.15779 0.3408 0.0
C589 C 0.40498 0.17978 0.34245 0.0
C590 C 0.34988 0.14112 0.37447 0.0
C591 C 0.3538 0.13097 0.31371 0.0
C592 C 0.33546 0.13661 0.28939 0.0
C593 C 0.32008 0.11338 0.26326 0.0
C594 C 0.32294 0.08331 0.26246 0.0
C595 C 0.34088 0.07674 0.28775 0.0
C596 C 0.35719 0.10154 0.31307 0.0
H597 H 0.23789 0.30643 0.44233 0.0
H598 H 0.31303 0.40653 0.48217 0.0
H599 H 0.26605 0.41743 0.4979 0.0
H600 H 0.17299 0.33281 0.41352 0.0
H601 H 0.13679 0.29169 0.42562 0.0
H602 H 0.17636 0.2942 0.41156 0.0
H603 H 0.17946 0.26499 0.46572 0.0
H604 H 0.14022 0.26272 0.48009 0.0
H605 H 0.17895 0.28408 0.50482 0.0
H606 H 0.21257 0.41281 0.51948 0.0
H607 H 0.15522 0.39529 0.54163 0.0
H608 H 0.11186 0.2998 0.48536 0.0
C609 C 0.24437 0.33117 0.4531 0.0
C610 C 0.27909 0.35581 0.46075 0.0
C611 C 0.28661 0.38741 0.47595 0.0
C612 C 0.2601 0.39388 0.48493 0.0
C613 C 0.22606 0.36857 0.47843 0.0
C614 C 0.21798 0.33802 0.46246 0.0
C615 C 0.17901 0.31384 0.46163 0.0
C616 C 0.16549 0.30779 0.42595 0.0
C617 C 0.16883 0.27939 0.47911 0.0
C618 C 0.16678 0.335 0.48088 0.0
C619 C 0.19443 0.36659 0.49 0.0
C620 C 0.19044 0.38893 0.51116 0.0
C621 C 0.15735 0.37891 0.52327 0.0
C622 C 0.12822 0.34712 0.51363 0.0
C623 C 0.13326 0.32492 0.49214 0.0
H624 H 0.78182 0.14622 0.69321 0.0
H625 H 0.78324 0.07927 0.61648 0.0
H626 H 0.83037 0.13021 0.58808 0.0
H627 H 0.80386 0.22317 0.63909 0.0
H628 H 0.83023 0.25267 0.67111 0.0
H629 H 0.79289 0.21182 0.68188 0.0
H630 H 0.83163 0.19699 0.71814 0.0
H631 H 0.86904 0.23748 0.70729 0.0
H632 H 0.86876 0.19749 0.69989 0.0
H633 H 0.88278 0.18753 0.57255 0.0
H634 H 0.93542 0.24552 0.57173 0.0
H635 H 0.89786 0.2743 0.65815 0.0
C636 C 0.79074 0.14244 0.66955 0.0
C637 C 0.77809 0.10895 0.65642 0.0
C638 C 0.79215 0.10486 0.62654 0.0
C639 C 0.81885 0.13363 0.61024 0.0
C640 C 0.83118 0.16633 0.62414 0.0
C641 C 0.81731 0.17084 0.65302 0.0
C642 C 0.83742 0.2079 0.6649 0.0
C643 C 0.81475 0.22489 0.66419 0.0
C644 C 0.85261 0.21006 0.69958 0.0
C645 C 0.86551 0.22329 0.63891 0.0
C646 C 0.86135 0.19914 0.61532 0.0
C647 C 0.88592 0.20685 0.59052 0.0
C648 C 0.91576 0.23987 0.59023 0.0
C649 C 0.92083 0.26463 0.61474 0.0
C650 C 0.89478 0.25624 0.63878 0.0
H651 H 0.63053 0.89962 0.82201 0.0
H652 H 0.68925 0.93058 0.73061 0.0
H653 H 0.696 0.87884 0.73377 0.0
H654 H 0.68249 0.87518 0.86233 0.0
H655 H 0.64811 0.83923 0.88422 0.0
H656 H 0.64291 0.87505 0.87179 0.0
H657 H 0.58672 0.83317 0.84027 0.0
H658 H 0.5917 0.79707 0.85273 0.0
H659 H 0.58774 0.80441 0.80958 0.0
H660 H 0.70305 0.82807 0.75125 0.0
H661 H 0.70861 0.78243 0.78072 0.0
H662 H 0.64661 0.7867 0.86104 0.0
C663 C 0.64404 0.89516 0.80209 0.0
C664 C 0.65921 0.91918 0.77593 0.0
C665 C 0.67712 0.91246 0.75074 0.0
C666 C 0.6811 0.88312 0.75235 0.0
C667 C 0.66679 0.86065 0.77915 0.0
C668 C 0.64836 0.86625 0.80341 0.0
C669 C 0.63832 0.84032 0.83125 0.0
C670 C 0.6539 0.85854 0.86433 0.0
C671 C 0.59877 0.81738 0.83358 0.0
C672 C 0.65488 0.8198 0.81945 0.0
C673 C 0.67082 0.83156 0.78916 0.0
C674 C 0.69001 0.8182 0.77462 0.0
C675 C 0.69312 0.79238 0.79156 0.0
C676 C 0.67714 0.78018 0.8227 0.0
C677 C 0.6577 0.7941 0.83661 0.0
H678 H 0.73553 0.63063 0.99152 0.0
H679 H 0.76786 0.68921 0.90007 0.0
H680 H 0.82594 0.69543 0.90638 0.0
H681 H 0.81026 0.68237 0.03457 0.0
H682 H 0.8103 0.64779 0.05762 0.0
H683 H 0.77013 0.64315 0.04304 0.0
H684 H 0.75648 0.5866 0.01256 0.0
H685 H 0.79668 0.59101 0.02717 0.0
H686 H 0.78736 0.58702 0.98356 0.0
H687 H 0.88263 0.70133 0.92676 0.0
H688 H 0.93198 0.70547 0.95862 0.0
H689 H 0.86172 0.64498 0.03728 0.0
C690 C 0.75442 0.64404 0.97226 0.0
C691 C 0.74696 0.65928 0.94516 0.0
C692 C 0.77279 0.67704 0.92089 0.0
C693 C 0.80588 0.68071 0.9243 0.0
C694 C 0.81261 0.66632 0.95198 0.0
C695 C 0.78742 0.64812 0.9754 0.0
C696 C 0.80173 0.63786 0.00442 0.0
C697 C 0.79789 0.65376 0.0368 0.0
C698 C 0.78454 0.59827 0.00706 0.0
C699 C 0.83922 0.65391 0.99421 0.0
C700 C 0.84501 0.66984 0.96372 0.0
C701 C 0.8782 0.68834 0.95033 0.0
C702 C 0.90606 0.69065 0.96863 0.0
C703 C 0.9006 0.6746 -2e-05 0.0
C704 C 0.86667 0.65604 0.01275 0.0
H705 H 0.19618 0.89298 0.1459 0.0
H706 H 0.25516 0.85173 0.19343 0.0
H707 H 0.21853 0.79582 0.16734 0.0
H708 H 0.11856 0.82354 0.16506 0.0
H709 H 0.09587 0.82323 0.12809 0.0
H710 H 0.13248 0.8629 0.14195 0.0
H711 H 0.16218 0.87024 0.08519 0.0
H712 H 0.1255 0.83037 0.07114 0.0
H713 H 0.16839 0.83594 0.06936 0.0
H714 H 0.17028 0.74198 0.1459 0.0
H715 H 0.11152 0.69374 0.13468 0.0
H716 H 0.07974 0.76661 0.10336 0.0
C717 C 0.20227 0.87257 0.1497 0.0
C718 C 0.23024 0.8779 0.17027 0.0
C719 C 0.236 0.84981 0.17598 0.0
C720 C 0.21478 0.81741 0.16151 0.0
C721 C 0.18725 0.81297 0.14183 0.0
C722 C 0.18072 0.83971 0.13605 0.0
C723 C 0.14599 0.82656 0.11907 0.0
C724 C 0.12181 0.83452 0.13979 0.0
C725 C 0.15081 0.84168 0.08411 0.0
C726 C 0.13322 0.788 0.11791 0.0
C727 C 0.15797 0.78096 0.13031 0.0
C728 C 0.15102 0.74718 0.13538 0.0
C729 C 0.11758 0.71992 0.12894 0.0
C730 C 0.0914 0.72651 0.11761 0.0
C731 C 0.09967 0.7609 0.11085 0.0
H732 H 0.89569 0.62084 0.50587 0.0
H733 H 0.92429 0.68318 0.59501 0.0
H734 H 0.87126 0.68741 0.59001 0.0
H735 H 0.87025 0.66935 0.46228 0.0
H736 H 0.83499 0.63392 0.44073 0.0
H737 H 0.87092 0.6298 0.45494 0.0
H738 H 0.82908 0.57454 0.4877 0.0
H739 H 0.79284 0.57839 0.47342 0.0
H740 H 0.79948 0.5761 0.51704 0.0
H741 H 0.82053 0.69282 0.57011 0.0
H742 H 0.77625 0.69798 0.53776 0.0
H743 H 0.78232 0.63333 0.46122 0.0
C744 C 0.89038 0.63448 0.52503 0.0
C745 C 0.91418 0.65151 0.55098 0.0
C746 C 0.90637 0.66963 0.57508 0.0
C747 C 0.87627 0.67216 0.57243 0.0
C748 C 0.85412 0.65622 0.54572 0.0
C749 C 0.8607 0.63744 0.52262 0.0
C750 C 0.83524 0.62607 0.49421 0.0
C751 C 0.85398 0.64068 0.46111 0.0
C752 C 0.81283 0.58641 0.49304 0.0
C753 C 0.81404 0.6425 0.50421 0.0
C754 C 0.82492 0.65932 0.53425 0.0
C755 C 0.81125 0.67901 0.54701 0.0
C756 C 0.7862 0.68188 0.52844 0.0
C757 C 0.77506 0.66518 0.49747 0.0
C758 C 0.78899 0.64499 0.48549 0.0
H759 H 0.27022 0.90238 0.6781 0.0
H760 H 0.23675 0.94185 0.75959 0.0
H761 H 0.17754 0.89127 0.75441 0.0
H762 H 0.19887 0.87871 0.62955 0.0
H763 H 0.19763 0.84086 0.61226 0.0
H764 H 0.23801 0.87642 0.6263 0.0
H765 H 0.24679 0.83511 0.66502 0.0
H766 H 0.20635 0.79927 0.65099 0.0
H767 H 0.21358 0.80891 0.69446 0.0
H768 H 0.12031 0.83977 0.73517 0.0
H769 H 0.07133 0.79291 0.70445 0.0
H770 H 0.14359 0.79092 0.63408 0.0
C771 C 0.2508 0.90016 0.69553 0.0
C772 C 0.2583 0.92613 0.71941 0.0
C773 C 0.23179 0.92216 0.74132 0.0
C774 C 0.19807 0.89353 0.7385 0.0
C775 C 0.19141 0.8691 0.71377 0.0
C776 C 0.21724 0.87216 0.69283 0.0
C777 C 0.2032 0.84473 0.66618 0.0
C778 C 0.20981 0.86117 0.63155 0.0
C779 C 0.21838 0.82057 0.66937 0.0
C780 C 0.16516 0.82609 0.67474 0.0
C781 C 0.15879 0.84009 0.70253 0.0
C782 C 0.12517 0.8283 0.71378 0.0
C783 C 0.09752 0.80174 0.69609 0.0
C784 C 0.10355 0.78734 0.66737 0.0
C785 C 0.13793 0.79985 0.65676 0.0
H786 H 0.30921 0.24377 0.89401 0.0
H787 H 0.4101 0.31747 0.85482 0.0
H788 H 0.4207 0.26977 0.841 0.0
H789 H 0.3334 0.17744 0.92474 0.0
H790 H 0.29208 0.14194 0.91209 0.0
H791 H 0.29542 0.18194 0.92595 0.0
H792 H 0.2676 0.18599 0.87123 0.0
H793 H 0.26456 0.14638 0.85704 0.0
H794 H 0.28712 0.18515 0.8325 0.0
H795 H 0.41537 0.21561 0.82033 0.0
H796 H 0.39641 0.15813 0.79754 0.0
H797 H 0.29997 0.11691 0.85194 0.0
C798 C 0.33412 0.24981 0.88397 0.0
C799 C 0.35909 0.28426 0.87591 0.0
C800 C 0.39083 0.29124 0.86147 0.0
C801 C 0.39709 0.26432 0.85358 0.0
C802 C 0.37138 0.23047 0.86034 0.0
C803 C 0.34066 0.22302 0.87562 0.0
C804 C 0.31572 0.18423 0.87624 0.0
C805 C 0.30875 0.17058 0.91188 0.0
C806 C 0.28177 0.17492 0.85817 0.0
C807 C 0.33657 0.17134 0.8575 0.0
C808 C 0.36877 0.19847 0.849 0.0
C809 C 0.39097 0.19386 0.82817 0.0
C810 C 0.38009 0.16072 0.81567 0.0
C811 C 0.34751 0.1322 0.82448 0.0
C812 C 0.3256 0.13781 0.84579 0.0
H813 H 0.0595 0.29134 0.03087 0.0
H814 H 0.10531 0.40009 0.05474 0.0
H815 H 0.1638 0.40694 0.05094 0.0
H816 H 0.12785 0.27599 0.0702 0.0
H817 H 0.12545 0.24827 0.03671 0.0
H818 H 0.08748 0.25014 0.04875 0.0
H819 H 0.08073 0.26585 0.98867 0.0
H820 H 0.11876 0.26443 0.97653 0.0
H821 H 0.11628 0.30302 0.96927 0.0
H822 H 0.21674 0.40396 0.03671 0.0
H823 H 0.26019 0.3917 0.01219 0.0
H824 H 0.18009 0.28548 0.99444 0.0
C825 C 0.0819 0.3161 0.03684 0.0
C826 C 0.07819 0.34499 0.04416 0.0
C827 C 0.10788 0.37756 0.04999 0.0
C828 C 0.14111 0.38165 0.04784 0.0
C829 C 0.14412 0.35293 0.03947 0.0
C830 C 0.11531 0.32071 0.03416 0.0
C831 C 0.12563 0.29532 0.02098 0.0
C832 C 0.11604 0.26567 0.04564 0.0
C833 C 0.10939 0.28136 0.98684 0.0
C834 C 0.16453 0.31858 0.01859 0.0
C835 C 0.17473 0.35153 0.02993 0.0
C836 C 0.20909 0.37816 0.02806 0.0
C837 C 0.23354 0.37107 0.01374 0.0
C838 C 0.22343 0.33781 0.00099 0.0
C839 C 0.18863 0.31109 0.00428 0.0
H840 H 0.76061 0.06347 0.20865 0.0
H841 H 0.68642 0.09351 0.17717 0.0
H842 H 0.73413 0.15167 0.16292 0.0
H843 H 0.82977 0.15231 0.2393 0.0
H844 H 0.86398 0.14602 0.22337 0.0
H845 H 0.82437 0.10947 0.23806 0.0
H846 H 0.81665 0.07897 0.18172 0.0
H847 H 0.85589 0.11543 0.16676 0.0
H848 H 0.81599 0.10071 0.1444 0.0
H849 H 0.78788 0.20104 0.14195 0.0
H850 H 0.84467 0.23993 0.11765 0.0
H851 H 0.88629 0.1805 0.16351 0.0
C852 C 0.75456 0.08288 0.20015 0.0
C853 C 0.71992 0.07431 0.19446 0.0
C854 C 0.71283 0.09978 0.18199 0.0
C855 C 0.73975 0.13289 0.1739 0.0
C856 C 0.7737 0.14019 0.17842 0.0
C857 C 0.78131 0.11611 0.19155 0.0
C858 C 0.81992 0.12919 0.18989 0.0
C859 C 0.83542 0.13457 0.22473 0.0
C860 C 0.82753 0.10462 0.16947 0.0
C861 C 0.83245 0.16353 0.17239 0.0
C862 C 0.80539 0.16955 0.16654 0.0
C863 C 0.80962 0.19748 0.1476 0.0
C864 C 0.8423 0.21983 0.1342 0.0
C865 C 0.87064 0.21454 0.1401 0.0
C866 C 0.86548 0.18597 0.15957 0.0
H867 H 0.71674 0.89367 0.31904 0.0
H868 H 0.61007 0.86885 0.33063 0.0
H869 H 0.59644 0.81426 0.3585 0.0
H870 H 0.70009 0.81162 0.29964 0.0
H871 H 0.73634 0.81416 0.32181 0.0
H872 H 0.73838 0.853 0.3066 0.0
H873 H 0.7518 0.8788 0.36568 0.0
H874 H 0.74962 0.83982 0.38112 0.0
H875 H 0.72276 0.85517 0.39906 0.0
H876 H 0.5926 0.75858 0.37702 0.0
H877 H 0.59952 0.70734 0.38573 0.0
H878 H 0.70926 0.76992 0.36626 0.0
C879 C 0.69068 0.87715 0.32813 0.0
C880 C 0.66429 0.88518 0.32194 0.0
C881 C 0.63048 0.86275 0.33403 0.0
C882 C 0.62261 0.83189 0.35037 0.0
C883 C 0.649 0.82417 0.35509 0.0
C884 C 0.68248 0.84639 0.34466 0.0
C885 C 0.70554 0.83094 0.35041 0.0
C886 C 0.72097 0.8272 0.31767 0.0
C887 C 0.73412 0.85247 0.37558 0.0
C888 C 0.67955 0.796 0.36456 0.0
C889 C 0.64709 0.79267 0.36736 0.0
C890 C 0.61806 0.76124 0.376 0.0
C891 C 0.62218 0.73233 0.38106 0.0
C892 C 0.6551 0.73527 0.37795 0.0
C893 C 0.68418 0.76761 0.37035 0.0
H894 H 0.46182 0.43864 0.4654 0.0
H895 H 0.44076 0.38391 0.37195 0.0
H896 H 0.49671 0.43061 0.35028 0.0
H897 H 0.49801 0.52231 0.43195 0.0
H898 H 0.52983 0.54278 0.46413 0.0
H899 H 0.4897 0.50384 0.47284 0.0
H900 H 0.52373 0.47448 0.49365 0.0
H901 H 0.56405 0.5133 0.48476 0.0
H902 H 0.55511 0.4726 0.46697 0.0
H903 H 0.55275 0.48446 0.33806 0.0
H904 H 0.60329 0.54315 0.33436 0.0
H905 H 0.58816 0.56297 0.4361 0.0
C906 C 0.469 0.43612 0.44044 0.0
C907 C 0.44689 0.40743 0.42036 0.0
C908 C 0.45722 0.40557 0.38775 0.0
C909 C 0.48902 0.43186 0.37536 0.0
C910 C 0.51011 0.45968 0.39593 0.0
C911 C 0.50045 0.46203 0.42773 0.0
C912 C 0.52668 0.4956 0.44415 0.0
C913 C 0.51006 0.51742 0.45382 0.0
C914 C 0.54338 0.48856 0.47416 0.0
C915 C 0.55248 0.51229 0.41634 0.0
C916 C 0.54254 0.49088 0.3889 0.0
C917 C 0.56093 0.50124 0.35946 0.0
C918 C 0.58959 0.53465 0.35763 0.0
C919 C 0.59969 0.55746 0.38504 0.0
C920 C 0.58143 0.54581 0.41506 0.0
H921 H 0.99278 0.44223 0.62785 0.0
H922 H 0.0714 0.45238 0.55831 0.0
H923 H 0.08587 0.51281 0.54682 0.0
H924 H 0.963 0.4899 0.58131 0.0
H925 H 0.95508 0.50871 0.61731 0.0
H926 H 0.95236 0.46717 0.62019 0.0
H927 H 0.99726 0.49052 0.6678 0.0
H928 H 1.00069 0.53244 0.6645 0.0
H929 H 0.03891 0.52854 0.66113 0.0
H930 H 0.09068 0.57157 0.54256 0.0
H931 H 0.0805 0.62115 0.54005 0.0
H932 H 0.9989 0.57222 0.61275 0.0
C933 C 0.01309 0.45708 0.61015 0.0
C934 C 0.03109 0.44263 0.594 0.0
C935 C 0.05716 0.46284 0.57078 0.0
C936 C 0.06578 0.49727 0.56443 0.0
C937 C 0.04803 0.51089 0.5815 0.0
C938 C 0.02189 0.49119 0.60352 0.0
C939 C 0.00539 0.51106 0.61741 0.0
C940 C 0.96668 0.49315 0.6085 0.0
C941 C 0.0109 0.51592 0.65494 0.0
C942 C 0.02597 0.54509 0.59937 0.0
C943 C 0.05082 0.54464 0.57917 0.0
C944 C 0.07167 0.57235 0.55859 0.0
C945 C 0.06595 0.60051 0.55757 0.0
C946 C 0.03969 0.60076 0.57698 0.0
C947 C 0.02004 0.57315 0.59874 0.0
H948 H 0.5575 0.98298 0.73431 0.0
H949 H 0.62331 0.08506 0.77518 0.0
H950 H 0.57391 0.09586 0.7752 0.0
H951 H 0.50512 0.0071 0.68089 0.0
H952 H 0.46624 0.96633 0.6882 0.0
H953 H 0.50775 0.9687 0.68891 0.0
H954 H 0.49404 0.94184 0.74759 0.0
H955 H 0.45299 0.94046 0.7475 0.0
H956 H 0.48374 0.96287 0.78006 0.0
H957 H 0.51526 0.09266 0.77605 0.0
H958 H 0.45463 0.07962 0.76844 0.0
H959 H 0.42835 0.9803 0.72575 0.0
C960 C 0.56169 0.00807 0.74194 0.0
C961 C 0.5942 0.03366 0.7538 0.0
C962 C 0.59867 0.06567 0.76504 0.0
C963 C 0.5707 0.0718 0.76554 0.0
C964 C 0.53853 0.04559 0.75467 0.0
C965 C 0.53411 0.01467 0.74233 0.0
C966 C 0.49683 0.99048 0.7327 0.0
C967 C 0.49382 0.98271 0.69546 0.0
C968 C 0.48099 0.95694 0.75319 0.0
C969 C 0.48094 0.01243 0.74177 0.0
C970 C 0.50519 0.04396 0.75481 0.0
C971 C 0.49611 0.06815 0.76558 0.0
C972 C 0.4616 0.06041 0.76159 0.0
C973 C 0.43696 0.02898 0.74663 0.0
C974 C 0.44673 0.00454 0.73731 0.0
H975 H 0.56585 0.55433 0.94961 0.0
H976 H 0.56164 0.62539 0.87898 0.0
H977 H 0.49952 0.58353 0.86932 0.0
H978 H 0.51008 0.47637 0.90522 0.0
H979 H 0.49085 0.45173 0.94226 0.0
H980 H 0.53443 0.4877 0.94319 0.0
H981 H 0.51714 0.51474 0.991 0.0
H982 H 0.4732 0.47926 0.98951 0.0
H983 H 0.48192 0.52315 0.98522 0.0
H984 H 0.43813 0.53406 0.86781 0.0
H985 H 0.38468 0.47702 0.86726 0.0
H986 H 0.42905 0.43849 0.93921 0.0
C987 C 0.55198 0.56107 0.93189 0.0
C988 C 0.56856 0.59318 0.91505 0.0
C989 C 0.54955 0.60085 0.89193 0.0
C990 C 0.51418 0.57743 0.88665 0.0
C991 C 0.49842 0.54656 0.90462 0.0
C992 C 0.51691 0.53808 0.92629 0.0
C993 C 0.49446 0.50261 0.9414 0.0
C994 C 0.50827 0.47816 0.93246 0.0
C995 C 0.49152 0.50511 0.97901 0.0
C996 C 0.46032 0.49203 0.92451 0.0
C997 C 0.46307 0.51806 0.90383 0.0
C998 C 0.4356 0.51371 0.88415 0.0
C999 C 0.40524 0.48139 0.88427 0.0
C1000 C 0.40259 0.45385 0.90387 0.0
C1001 C 0.43 0.45957 0.92507 0.0
H1002 H 0.99447 0.44528 0.02937 0.0
H1003 H 0.93729 0.37964 0.11226 0.0
H1004 H 0.92377 0.42439 0.13109 0.0
H1005 H 0.03281 0.52436 0.07226 0.0
H1006 H 0.03013 0.54883 0.03809 0.0
H1007 H 0.03307 0.51066 0.03043 0.0
H1008 H 0.97677 0.48509 0.9957 0.0
H1009 H 0.97342 0.52308 0.00364 0.0
H1010 H 0.93793 0.4808 0.0139 0.0
H1011 H 0.91986 0.47764 0.14255 0.0
H1012 H 0.92915 0.53677 0.14833 0.0
H1013 H 0.98762 0.56703 0.05703 0.0
C1014 C 0.97892 0.44004 0.05144 0.0
C1015 C 0.96692 0.40881 0.06937 0.0
C1016 C 0.94685 0.40332 0.09818 0.0
C1017 C 0.93883 0.42849 0.10888 0.0
C1018 C 0.95087 0.45879 0.09036 0.0
C1019 C 0.97062 0.46468 0.06234 0.0
C1020 C 0.98211 0.50013 0.0478 0.0
C1021 C 0.02188 0.5223 0.04713 0.0
C1022 C 0.96662 0.49707 0.01321 0.0
C1023 C 0.96647 0.51382 0.07253 0.0
C1024 C 0.94819 0.48934 0.09666 0.0
C1025 C 0.93362 0.49676 0.12357 0.0
C1026 C 0.93893 0.53034 0.12657 0.0
C1027 C 0.95854 0.5561 0.10278 0.0
C1028 C 0.9716 0.54746 0.07492 0.0
H1029 H 0.41015 0.96829 0.22424 0.0
H1030 H 0.40958 0.95306 0.33018 0.0
H1031 H 0.45916 0.94386 0.32505 0.0
H1032 H 0.43877 0.90538 0.20092 0.0
H1033 H 0.4661 0.93262 0.16809 0.0
H1034 H 0.42745 0.93363 0.17918 0.0
H1035 H 0.46399 0.99994 0.18818 0.0
H1036 H 0.50265 0.99909 0.17726 0.0
H1037 H 0.50011 0.01699 0.21636 0.0
H1038 H 0.51208 0.94183 0.31002 0.0
H1039 H 0.56529 0.94742 0.28517 0.0
H1040 H 0.53255 0.96433 0.18924 0.0
C1041 C 0.42004 0.96223 0.24614 0.0
C1042 C 0.40596 0.96143 0.27756 0.0
C1043 C 0.42 0.95402 0.30581 0.0
C1044 C 0.44811 0.94854 0.30321 0.0
C1045 C 0.46208 0.95044 0.27214 0.0
C1046 C 0.44854 0.95695 0.24404 0.0
C1047 C 0.47033 0.96025 0.21408 0.0
C1048 C 0.44941 0.93124 0.18909 0.0
C1049 C 0.48515 0.99621 0.19805 0.0
C1050 C 0.49858 0.95566 0.23005 0.0
C1051 C 0.49307 0.94955 0.26347 0.0
C1052 C 0.51655 0.94618 0.28375 0.0
C1053 C 0.54673 0.94947 0.26947 0.0
C1054 C 0.5532 0.95631 0.23531 0.0
C1055 C 0.52842 0.95894 0.21544 0.0
H1056 H 0.38133 0.36905 0.7359 0.0
H1057 H 0.4076 0.47601 0.74972 0.0
H1058 H 0.42084 0.48694 0.69016 0.0
H1059 H 0.44626 0.38512 0.67132 0.0
H1060 H 0.41688 0.346 0.64961 0.0
H1061 H 0.414 0.34813 0.69385 0.0
H1062 H 0.34929 0.33059 0.68856 0.0
H1063 H 0.352 0.32851 0.64443 0.0
H1064 H 0.33739 0.35587 0.66262 0.0
H1065 H 0.42502 0.48413 0.62809 0.0
H1066 H 0.41922 0.46761 0.56911 0.0
H1067 H 0.3904 0.36269 0.59751 0.0
C1068 C 0.3905 0.39498 0.7266 0.0
C1069 C 0.39348 0.42169 0.74738 0.0
C1070 C 0.40524 0.45517 0.73419 0.0
C1071 C 0.41293 0.46165 0.70045 0.0
C1072 C 0.40901 0.43446 0.68051 0.0
C1073 C 0.39827 0.40185 0.69321 0.0
C1074 C 0.39343 0.37628 0.66644 0.0
C1075 C 0.41919 0.36312 0.67056 0.0
C1076 C 0.3558 0.34605 0.66546 0.0
C1077 C 0.40195 0.39926 0.63651 0.0
C1078 C 0.41136 0.43285 0.645 0.0
C1079 C 0.41819 0.45804 0.62116 0.0
C1080 C 0.41479 0.44842 0.58777 0.0
C1081 C 0.40433 0.41388 0.57879 0.0
C1082 C 0.39857 0.38934 0.60355 0.0
H1083 H 0.0563 0.42398 0.7645 0.0
H1084 H 0.95174 0.39734 0.73817 0.0
H1085 H 0.94086 0.40763 0.79584 0.0
H1086 H 0.0324 0.37568 0.83411 0.0
H1087 H 0.0701 0.40367 0.85833 0.0
H1088 H 0.07304 0.40408 0.81411 0.0
H1089 H 0.09598 0.47019 0.81368 0.0
H1090 H 0.0931 0.46997 0.8581 0.0
H1091 H 0.07129 0.48703 0.83357 0.0
H1092 H 0.93865 0.41265 0.85652 0.0
H1093 H 0.94201 0.40431 0.9162 0.0
H1094 H 0.04627 0.42189 0.90389 0.0
C1095 C 0.03161 0.42164 0.77077 0.0
C1096 C 0.005 0.41062 0.74716 0.0
C1097 C 0.97246 0.40626 0.75613 0.0
C1098 C 0.96621 0.4123 0.78867 0.0
C1099 C 0.99267 0.42213 0.81181 0.0
C1100 C 0.02464 0.42642 0.80333 0.0
C1101 C 0.04621 0.43037 0.8336 0.0
C1102 C 0.05597 0.40174 0.83511 0.0
C1103 C 0.07856 0.46656 0.8348 0.0
C1104 C 0.0208 0.42605 0.86045 0.0
C1105 C 0.9906 0.42265 0.84736 0.0
C1106 C 0.96234 0.41581 0.86712 0.0
C1107 C 0.96451 0.41112 0.90102 0.0
C1108 C 0.99441 0.41241 0.91457 0.0
C1109 C 0.02323 0.42104 0.89416 0.0
H1110 H 0.62608 0.0467 0.92876 0.0
H1111 H 0.56192 0.9422 0.89246 0.0
H1112 H 0.53833 0.92264 0.94859 0.0
H1113 H 0.65261 0.02262 -0.00293 0.0
H1114 H 0.6546 0.05551 0.02435 0.0
H1115 H 0.65946 0.06317 0.98064 0.0
H1116 H 0.60868 0.07585 0.98073 0.0
H1117 H 0.6037 0.06826 0.02465 0.0
H1118 H 0.56733 0.04427 -0.00249 0.0
H1119 H 0.52788 0.91294 0.00885 0.0
H1120 H 0.53588 0.91235 0.06914 0.0
H1121 H 0.61045 0.02231 0.06669 0.0
C1122 C 0.60602 0.02006 0.9326 0.0
C1123 C 0.59503 0.99598 0.9066 0.0
C1124 C 0.57008 0.96094 0.91232 0.0
C1125 C 0.55643 0.94973 0.94397 0.0
C1126 C 0.56845 0.97388 0.96952 0.0
C1127 C 0.59289 0.00831 0.96423 0.0
C1128 C 0.60604 0.02762 0.99648 0.0
C1129 C 0.64549 0.04311 -0.00018 0.0
C1130 C 0.59581 0.05566 5e-05 0.0
C1131 C 0.5864 0.99836 0.02067 0.0
C1132 C 0.56398 0.96786 0.00468 0.0
C1133 C 0.54489 0.93677 0.02173 0.0
C1134 C 0.54958 0.93667 0.05593 0.0
C1135 C 0.57377 0.96729 0.07238 0.0
C1136 C 0.59165 0.9986 0.05464 0.0
H1137 H 0.64009 0.59345 0.07883 0.0
H1138 H 0.5521 0.60945 0.0701 0.0
H1139 H 0.543 0.60201 0.13029 0.0
H1140 H 0.60414 0.52947 0.15008 0.0
H1141 H 0.64662 0.54724 0.16811 0.0
H1142 H 0.64182 0.54682 0.12387 0.0
H1143 H 0.68412 0.61305 0.12237 0.0
H1144 H 0.68872 0.61381 0.16645 0.0
H1145 H 0.6748 0.64113 0.14694 0.0
H1146 H 0.55191 0.60659 0.19084 0.0
H1147 H 0.57428 0.61611 0.24804 0.0
H1148 H 0.65365 0.59282 0.21785 0.0
C1149 C 0.61823 0.59424 0.0895 0.0
C1150 C 0.59682 0.60205 0.07 0.0
C1151 C 0.56864 0.60322 0.08467 0.0
C1152 C 0.56326 0.59901 0.1188 0.0
C1153 C 0.58578 0.59282 0.1376 0.0
C1154 C 0.61223 0.5896 0.12341 0.0
C1155 C 0.63481 0.58619 0.1493 0.0
C1156 C 0.63164 0.55028 0.14775 0.0
C1157 C 0.67283 0.61528 0.14606 0.0
C1158 C 0.61825 0.59022 0.18025 0.0
C1159 C 0.58983 0.59374 0.17299 0.0
C1160 C 0.5733 0.60263 0.19703 0.0
C1161 C 0.58628 0.60825 0.22928 0.0
C1162 C 0.61514 0.60451 0.23705 0.0
C1163 C 0.63083 0.59469 0.21248 0.0
H1164 H 0.94314 0.58743 0.27452 0.0
H1165 H 0.04464 0.60685 0.24489 0.0
H1166 H 0.05728 0.59853 0.30256 0.0
H1167 H 0.97183 0.63788 0.3432 0.0
H1168 H 0.93457 0.61181 0.36871 0.0
H1169 H 0.93009 0.61055 0.32459 0.0
H1170 H 0.90411 0.54394 0.32535 0.0
H1171 H 0.90851 0.54502 0.36966 0.0
H1172 H 0.92785 0.52573 0.34468 0.0
H1173 H 0.06178 0.59572 0.36333 0.0
H1174 H 0.06058 0.60484 0.42323 0.0
H1175 H 0.95768 0.5916 0.41375 0.0
C1176 C 0.96745 0.58858 0.28014 0.0
C1177 C 0.99273 0.59701 0.25557 0.0
C1178 C 0.02492 0.59997 0.26363 0.0
C1179 C 0.03217 0.59504 0.29616 0.0
C1180 C 0.00703 0.58761 0.32019 0.0
C1181 C 0.97539 0.58466 0.31263 0.0
C1182 C 0.95534 0.5825 0.34351 0.0
C1183 C 0.94754 0.61247 0.34508 0.0
C1184 C 0.92197 0.54719 0.34594 0.0
C1185 C 0.98123 0.58614 0.36957 0.0
C1186 C 0.01039 0.58794 0.35565 0.0
C1187 C 0.03888 0.59381 0.37461 0.0
C1188 C 0.03797 0.59898 0.4086 0.0
C1189 C 0.00905 0.59896 0.42301 0.0
C1190 C 0.98002 0.59153 0.40336 0.0
H1191 H 0.41885 0.05173 0.57087 0.0
H1192 H 0.38752 0.94712 0.60168 0.0
H1193 H 0.3884 0.93064 0.54359 0.0
H1194 H 0.36205 0.02726 0.5087 0.0
H1195 H 0.38831 0.06154 0.48022 0.0
H1196 H 0.39591 0.06839 0.52382 0.0
H1197 H 0.45997 0.08483 0.51567 0.0
H1198 H 0.45277 0.07854 0.47178 0.0
H1199 H 0.47005 0.05558 0.49414 0.0
H1200 H 0.38267 0.92291 0.48325 0.0
H1201 H 0.36785 0.9233 0.42473 0.0
H1202 H 0.39787 0.03184 0.43292 0.0
C1203 C 0.41378 0.02584 0.56535 0.0
C1204 C 0.40384 1.00076 0.59038 0.0
C1205 C 0.39573 0.96667 0.58255 0.0
C1206 C 0.39631 0.95719 0.54975 0.0
C1207 C 0.4046 0.98208 0.52526 0.0
C1208 C 0.41317 0.01576 0.53263 0.0
C1209 C 0.41456 0.03563 0.50183 0.0
C1210 C 0.38866 0.04895 0.50378 0.0
C1211 C 0.45155 0.06541 0.49548 0.0
C1212 C 0.40379 0.0074 0.47625 0.0
C1213 C 0.39924 0.97707 0.49012 0.0
C1214 C 0.38678 0.94666 0.47193 0.0
C1215 C 0.3783 0.94711 0.43876 0.0
C1216 C 0.3817 0.9776 0.42441 0.0
C1217 C 0.3952 0.00823 0.44326 0.0
loop_
_geom_bond_atom_site_label_1
_geom_bond_atom_site_label_2
_geom_bond_distance
_geom_bond_site_symmetry_2
_ccdc_geom_bond_type
Co0 O3 1.970 . S
Co0 N17 1.989 . S
Co0 O25 1.967 . S
Co0 O32 1.920 . S
Co1 O4 1.966 . S
Co1 N10 2.022 . S
Co1 N18 1.993 . S
Co1 O26 1.941 . S
C2 O3 1.258 . S
C2 O4 1.263 . S
O3 Co0 1.970 . S
O3 C2 1.258 . S
O4 Co1 1.966 . S
O4 C2 1.263 . S
C5 O6 1.235 . S
C5 O32 1.289 . S
O6 C5 1.235 . S
C7 C9 1.400 . S
C7 N10 1.351 . S
C7 C12 1.501 . S
C8 C9 1.387 . S
C8 N11 1.341 . S
C9 C7 1.400 . S
C9 C8 1.387 . S
N10 Co1 2.022 . S
N10 C7 1.351 . S
N10 N11 1.365 . S
N11 C8 1.341 . S
N11 N10 1.365 . S
N11 H31 0.862 . S
C12 C7 1.501 . S
C12 H13 0.961 . S
C12 H14 0.961 . S
C12 H15 0.960 . S
H13 C12 0.961 . S
H14 C12 0.961 . S
H15 C12 0.960 . S
C16 N17 1.342 . S
C16 C20 1.401 . S
C16 C21 1.499 . S
N17 Co0 1.989 . S
N17 C16 1.342 . S
N17 N18 1.388 . S
N18 Co1 1.993 . S
N18 N17 1.388 . S
N18 C19 1.346 . S
C19 N18 1.346 . S
C19 C20 1.396 . S
C19 C29 1.510 . S
C20 C16 1.401 . S
C20 C19 1.396 . S
C21 C16 1.499 . S
C21 H22 0.959 . S
C21 H23 0.960 . S
C21 H24 0.961 . S
H22 C21 0.959 . S
H23 C21 0.960 . S
H24 C21 0.961 . S
O25 Co0 1.967 . S
O25 C33 1.258 . S
O26 Co1 1.941 . S
O26 C33 1.266 . S
H27 C29 0.959 . S
H28 C29 0.961 . S
C29 C19 1.510 . S
C29 H27 0.959 . S
C29 H28 0.961 . S
C29 H30 0.960 . S
H30 C29 0.960 . S
H31 N11 0.862 . S
O32 Co0 1.920 . S
O32 C5 1.289 . S
C33 O25 1.258 . S
C33 O26 1.266 . S
Co34 O37 1.970 . S
Co34 N51 1.989 . S
Co34 O59 1.967 1_455 S
Co34 O66 1.920 . S
Co35 O38 1.966 . S
Co35 N44 2.022 . S
Co35 N52 1.993 . S
Co35 O60 1.941 . S
C36 O37 1.258 . S
C36 O38 1.263 . S
O37 Co34 1.970 . S
O37 C36 1.258 . S
O38 Co35 1.966 . S
O38 C36 1.263 . S
C39 O40 1.235 . S
C39 O66 1.289 . S
O40 C39 1.235 . S
C41 C43 1.400 . S
C41 N44 1.351 . S
C41 C46 1.501 . S
C42 C43 1.387 . S
C42 N45 1.341 . S
C43 C41 1.400 . S
C43 C42 1.387 . S
N44 Co35 2.022 . S
N44 C41 1.351 . S
N44 N45 1.365 . S
N45 C42 1.341 . S
N45 N44 1.365 . S
N45 H65 0.862 . S
C46 C41 1.501 . S
C46 H47 0.961 . S
C46 H48 0.961 . S
C46 H49 0.960 . S
H47 C46 0.961 . S
H48 C46 0.961 . S
H49 C46 0.960 . S
C50 N51 1.342 . S
C50 C54 1.401 . S
C50 C55 1.499 . S
N51 Co34 1.989 . S
N51 C50 1.342 . S
N51 N52 1.388 . S
N52 Co35 1.993 . S
N52 N51 1.388 . S
N52 C53 1.346 . S
C53 N52 1.346 . S
C53 C54 1.396 . S
C53 C63 1.510 . S
C54 C50 1.401 . S
C54 C53 1.396 . S
C55 C50 1.499 . S
C55 H56 0.959 . S
C55 H57 0.960 . S
C55 H58 0.961 . S
H56 C55 0.959 . S
H57 C55 0.960 . S
H58 C55 0.961 . S
O59 Co34 1.967 1_655 S
O59 C67 1.258 . S
O60 Co35 1.941 . S
O60 C67 1.266 1_455 S
H61 C63 0.959 . S
H62 C63 0.961 . S
C63 C53 1.510 . S
C63 H61 0.959 . S
C63 H62 0.961 . S
C63 H64 0.960 . S
H64 C63 0.960 . S
H65 N45 0.862 . S
O66 Co34 1.920 . S
O66 C39 1.289 . S
C67 O59 1.258 . S
C67 O60 1.266 1_655 S
Co68 O71 1.970 . S
Co68 N85 1.989 . S
Co68 O93 1.967 1_545 S
Co68 O100 1.920 . S
Co69 O72 1.966 . S
Co69 N78 2.022 . S
Co69 N86 1.993 . S
Co69 O94 1.941 . S
C70 O71 1.258 . S
C70 O72 1.263 . S
O71 Co68 1.970 . S
O71 C70 1.258 . S
O72 Co69 1.966 . S
O72 C70 1.263 . S
C73 O74 1.235 . S
C73 O100 1.289 . S
O74 C73 1.235 . S
C75 C77 1.400 . S
C75 N78 1.351 . S
C75 C80 1.501 . S
C76 C77 1.387 . S
C76 N79 1.341 . S
C77 C75 1.400 . S
C77 C76 1.387 . S
N78 Co69 2.022 . S
N78 C75 1.351 . S
N78 N79 1.365 . S
N79 C76 1.341 . S
N79 N78 1.365 . S
N79 H99 0.862 . S
C80 C75 1.501 . S
C80 H81 0.961 . S
C80 H82 0.961 . S
C80 H83 0.960 . S
H81 C80 0.961 . S
H82 C80 0.961 . S
H83 C80 0.960 . S
C84 N85 1.342 . S
C84 C88 1.401 . S
C84 C89 1.499 . S
N85 Co68 1.989 . S
N85 C84 1.342 . S
N85 N86 1.388 . S
N86 Co69 1.993 . S
N86 N85 1.388 . S
N86 C87 1.346 . S
C87 N86 1.346 . S
C87 C88 1.396 . S
C87 C97 1.510 . S
C88 C84 1.401 . S
C88 C87 1.396 . S
C89 C84 1.499 . S
C89 H90 0.959 . S
C89 H91 0.960 . S
C89 H92 0.961 . S
H90 C89 0.959 . S
H91 C89 0.960 . S
H92 C89 0.961 . S
O93 Co68 1.967 1_565 S
O93 C101 1.258 . S
O94 Co69 1.941 . S
O94 C101 1.266 1_545 S
H95 C97 0.959 . S
H96 C97 0.961 . S
C97 C87 1.510 . S
C97 H95 0.959 . S
C97 H96 0.961 . S
C97 H98 0.960 . S
H98 C97 0.960 . S
H99 N79 0.862 . S
O100 Co68 1.920 . S
O100 C73 1.289 . S
C101 O93 1.258 . S
C101 O94 1.266 1_565 S
Co102 O105 1.970 . S
Co102 N119 1.989 . S
Co102 O127 1.967 . S
Co102 O134 1.920 1_556 S
Co103 O106 1.966 . S
Co103 N112 2.022 . S
Co103 N120 1.993 . S
Co103 O128 1.941 . S
C104 O105 1.258 . S
C104 O106 1.263 . S
O105 Co102 1.970 . S
O105 C104 1.258 . S
O106 Co103 1.966 . S
O106 C104 1.263 . S
C107 O108 1.235 . S
C107 O134 1.289 . S
O108 C107 1.235 . S
C109 C111 1.400 . S
C109 N112 1.351 . S
C109 C114 1.501 . S
C110 C111 1.387 . S
C110 N113 1.341 . S
C111 C109 1.400 . S
C111 C110 1.387 . S
N112 Co103 2.022 . S
N112 C109 1.351 . S
N112 N113 1.365 . S
N113 C110 1.341 . S
N113 N112 1.365 . S
N113 H133 0.862 . S
C114 C109 1.501 . S
C114 H115 0.961 . S
C114 H116 0.961 . S
C114 H117 0.960 . S
H115 C114 0.961 . S
H116 C114 0.961 . S
H117 C114 0.960 . S
C118 N119 1.342 1_554 S
C118 C122 1.401 . S
C118 C123 1.499 . S
N119 Co102 1.989 . S
N119 C118 1.342 1_556 S
N119 N120 1.388 . S
N120 Co103 1.993 . S
N120 N119 1.388 . S
N120 C121 1.346 . S
C121 N120 1.346 . S
C121 C122 1.396 1_556 S
C121 C131 1.510 . S
C122 C118 1.401 . S
C122 C121 1.396 1_554 S
C123 C118 1.499 . S
C123 H124 0.959 . S
C123 H125 0.960 . S
C123 H126 0.961 . S
H124 C123 0.959 . S
H125 C123 0.960 . S
H126 C123 0.961 . S
O127 Co102 1.967 . S
O127 C135 1.258 . S
O128 Co103 1.941 . S
O128 C135 1.266 . S
H129 C131 0.959 . S
H130 C131 0.961 . S
C131 C121 1.510 . S
C131 H129 0.959 . S
C131 H130 0.961 . S
C131 H132 0.960 . S
H132 C131 0.960 . S
H133 N113 0.862 . S
O134 Co102 1.920 1_554 S
O134 C107 1.289 . S
C135 O127 1.258 . S
C135 O128 1.266 . S
Co136 O139 1.970 . S
Co136 N153 1.989 . S
Co136 O161 1.967 1_655 S
Co136 O168 1.920 . S
Co137 O140 1.966 . S
Co137 N146 2.022 . S
Co137 N154 1.993 . S
Co137 O162 1.941 . S
C138 O139 1.258 . S
C138 O140 1.263 . S
O139 Co136 1.970 . S
O139 C138 1.258 . S
O140 Co137 1.966 . S
O140 C138 1.263 . S
C141 O142 1.235 . S
C141 O168 1.289 . S
O142 C141 1.235 . S
C143 C145 1.400 . S
C143 N146 1.351 . S
C143 C148 1.501 . S
C144 C145 1.387 . S
C144 N147 1.341 . S
C145 C143 1.400 . S
C145 C144 1.387 . S
N146 Co137 2.022 . S
N146 C143 1.351 . S
N146 N147 1.365 . S
N147 C144 1.341 . S
N147 N146 1.365 . S
N147 H167 0.862 . S
C148 C143 1.501 . S
C148 H149 0.961 . S
C148 H150 0.961 . S
C148 H151 0.960 . S
H149 C148 0.961 . S
H150 C148 0.961 . S
H151 C148 0.960 . S
C152 N153 1.342 . S
C152 C156 1.401 . S
C152 C157 1.499 . S
N153 Co136 1.989 . S
N153 C152 1.342 . S
N153 N154 1.388 . S
N154 Co137 1.993 . S
N154 N153 1.388 . S
N154 C155 1.346 . S
C155 N154 1.346 . S
C155 C156 1.396 . S
C155 C165 1.510 . S
C156 C152 1.401 . S
C156 C155 1.396 . S
C157 C152 1.499 . S
C157 H158 0.959 . S
C157 H159 0.960 . S
C157 H160 0.961 . S
H158 C157 0.959 . S
H159 C157 0.960 . S
H160 C157 0.961 . S
O161 Co136 1.967 1_455 S
O161 C169 1.258 . S
O162 Co137 1.941 . S
O162 C169 1.266 1_655 S
H163 C165 0.959 . S
H164 C165 0.961 . S
C165 C155 1.510 . S
C165 H163 0.959 . S
C165 H164 0.961 . S
C165 H166 0.960 . S
H166 C165 0.960 . S
H167 N147 0.862 . S
O168 Co136 1.920 . S
O168 C141 1.289 . S
C169 O161 1.258 . S
C169 O162 1.266 1_455 S
Co170 O173 1.970 . S
Co170 N187 1.989 . S
Co170 O195 1.967 1_565 S
Co170 O202 1.920 . S
Co171 O174 1.966 . S
Co171 N180 2.022 . S
Co171 N188 1.993 . S
Co171 O196 1.941 . S
C172 O173 1.258 . S
C172 O174 1.263 . S
O173 Co170 1.970 . S
O173 C172 1.258 . S
O174 Co171 1.966 . S
O174 C172 1.263 . S
C175 O176 1.235 . S
C175 O202 1.289 . S
O176 C175 1.235 . S
C177 C179 1.400 . S
C177 N180 1.351 . S
C177 C182 1.501 . S
C178 C179 1.387 . S
C178 N181 1.341 . S
C179 C177 1.400 . S
C179 C178 1.387 . S
N180 Co171 2.022 . S
N180 C177 1.351 . S
N180 N181 1.365 . S
N181 C178 1.341 . S
N181 N180 1.365 . S
N181 H201 0.862 . S
C182 C177 1.501 . S
C182 H183 0.961 . S
C182 H184 0.961 . S
C182 H185 0.960 . S
H183 C182 0.961 . S
H184 C182 0.961 . S
H185 C182 0.960 . S
C186 N187 1.342 . S
C186 C190 1.401 . S
C186 C191 1.499 . S
N187 Co170 1.989 . S
N187 C186 1.342 . S
N187 N188 1.388 . S
N188 Co171 1.993 . S
N188 N187 1.388 . S
N188 C189 1.346 . S
C189 N188 1.346 . S
C189 C190 1.396 . S
C189 C199 1.510 . S
C190 C186 1.401 . S
C190 C189 1.396 . S
C191 C186 1.499 . S
C191 H192 0.959 . S
C191 H193 0.960 . S
C191 H194 0.961 . S
H192 C191 0.959 . S
H193 C191 0.960 . S
H194 C191 0.961 . S
O195 Co170 1.967 1_545 S
O195 C203 1.258 . S
O196 Co171 1.941 . S
O196 C203 1.266 1_565 S
H197 C199 0.959 . S
H198 C199 0.961 . S
C199 C189 1.510 . S
C199 H197 0.959 . S
C199 H198 0.961 . S
C199 H200 0.960 . S
H200 C199 0.960 . S
H201 N181 0.862 . S
O202 Co170 1.920 . S
O202 C175 1.289 . S
C203 O195 1.258 . S
C203 O196 1.266 1_545 S
Co204 O207 1.970 . S
Co204 N221 1.989 . S
Co204 O229 1.967 . S
Co204 O236 1.920 . S
Co205 O208 1.966 . S
Co205 N214 2.022 . S
Co205 N222 1.993 . S
Co205 O230 1.941 . S
C206 O207 1.258 . S
C206 O208 1.263 . S
O207 Co204 1.970 . S
O207 C206 1.258 . S
O208 Co205 1.966 . S
O208 C206 1.263 . S
C209 O210 1.235 . S
C209 O236 1.289 . S
O210 C209 1.235 . S
C211 C213 1.400 . S
C211 N214 1.351 . S
C211 C216 1.501 . S
C212 C213 1.387 . S
C212 N215 1.341 . S
C213 C211 1.400 . S
C213 C212 1.387 . S
N214 Co205 2.022 . S
N214 C211 1.351 . S
N214 N215 1.365 . S
N215 C212 1.341 . S
N215 N214 1.365 . S
N215 H235 0.862 . S
C216 C211 1.501 . S
C216 H217 0.961 . S
C216 H218 0.961 . S
C216 H219 0.960 . S
H217 C216 0.961 . S
H218 C216 0.961 . S
H219 C216 0.960 . S
C220 N221 1.342 . S
C220 C224 1.401 . S
C220 C225 1.499 . S
N221 Co204 1.989 . S
N221 C220 1.342 . S
N221 N222 1.388 . S
N222 Co205 1.993 . S
N222 N221 1.388 . S
N222 C223 1.346 . S
C223 N222 1.346 . S
C223 C224 1.396 . S
C223 C233 1.510 . S
C224 C220 1.401 . S
C224 C223 1.396 . S
C225 C220 1.499 . S
C225 H226 0.959 . S
C225 H227 0.960 . S
C225 H228 0.961 . S
H226 C225 0.959 . S
H227 C225 0.960 . S
H228 C225 0.961 . S
O229 Co204 1.967 . S
O229 C237 1.258 . S
O230 Co205 1.941 . S
O230 C237 1.266 . S
H231 C233 0.959 . S
H232 C233 0.961 . S
C233 C223 1.510 . S
C233 H231 0.959 . S
C233 H232 0.961 . S
C233 H234 0.960 . S
H234 C233 0.960 . S
H235 N215 0.862 . S
O236 Co204 1.920 . S
O236 C209 1.289 . S
C237 O229 1.258 . S
C237 O230 1.266 . S
Co238 O241 1.970 . S
Co238 N255 1.989 . S
Co238 O263 1.967 1_455 S
Co238 O270 1.920 . S
Co239 O242 1.966 . S
Co239 N248 2.022 . S
Co239 N256 1.993 . S
Co239 O264 1.941 . S
C240 O241 1.258 . S
C240 O242 1.263 . S
O241 Co238 1.970 . S
O241 C240 1.258 . S
O242 Co239 1.966 . S
O242 C240 1.263 . S
C243 O244 1.235 . S
C243 O270 1.289 . S
O244 C243 1.235 . S
C245 C247 1.400 . S
C245 N248 1.351 . S
C245 C250 1.501 . S
C246 C247 1.387 . S
C246 N249 1.341 . S
C247 C245 1.400 . S
C247 C246 1.387 . S
N248 Co239 2.022 . S
N248 C245 1.351 . S
N248 N249 1.365 . S
N249 C246 1.341 . S
N249 N248 1.365 . S
N249 H269 0.862 . S
C250 C245 1.501 . S
C250 H251 0.961 . S
C250 H252 0.961 . S
C250 H253 0.960 . S
H251 C250 0.961 . S
H252 C250 0.961 . S
H253 C250 0.960 . S
C254 N255 1.342 . S
C254 C258 1.401 . S
C254 C259 1.499 . S
N255 Co238 1.989 . S
N255 C254 1.342 . S
N255 N256 1.388 . S
N256 Co239 1.993 . S
N256 N255 1.388 . S
N256 C257 1.346 . S
C257 N256 1.346 . S
C257 C258 1.396 . S
C257 C267 1.510 . S
C258 C254 1.401 . S
C258 C257 1.396 . S
C259 C254 1.499 . S
C259 H260 0.959 . S
C259 H261 0.960 . S
C259 H262 0.961 . S
H260 C259 0.959 . S
H261 C259 0.960 . S
H262 C259 0.961 . S
O263 Co238 1.967 1_655 S
O263 C271 1.258 . S
O264 Co239 1.941 . S
O264 C271 1.266 1_455 S
H265 C267 0.959 . S
H266 C267 0.961 . S
C267 C257 1.510 . S
C267 H265 0.959 . S
C267 H266 0.961 . S
C267 H268 0.960 . S
H268 C267 0.960 . S
H269 N249 0.862 . S
O270 Co238 1.920 . S
O270 C243 1.289 . S
C271 O263 1.258 . S
C271 O264 1.266 1_655 S
Co272 O275 1.970 . S
Co272 N289 1.989 . S
Co272 O297 1.967 1_545 S
Co272 O304 1.920 . S
Co273 O276 1.966 . S
Co273 N282 2.022 . S
Co273 N290 1.993 . S
Co273 O298 1.941 . S
C274 O275 1.258 . S
C274 O276 1.263 . S
O275 Co272 1.970 . S
O275 C274 1.258 . S
O276 Co273 1.966 . S
O276 C274 1.263 . S
C277 O278 1.235 . S
C277 O304 1.289 . S
O278 C277 1.235 . S
C279 C281 1.400 . S
C279 N282 1.351 . S
C279 C284 1.501 . S
C280 C281 1.387 . S
C280 N283 1.341 . S
C281 C279 1.400 . S
C281 C280 1.387 . S
N282 Co273 2.022 . S
N282 C279 1.351 . S
N282 N283 1.365 . S
N283 C280 1.341 . S
N283 N282 1.365 . S
N283 H303 0.862 . S
C284 C279 1.501 . S
C284 H285 0.961 . S
C284 H286 0.961 . S
C284 H287 0.960 . S
H285 C284 0.961 . S
H286 C284 0.961 . S
H287 C284 0.960 . S
C288 N289 1.342 . S
C288 C292 1.401 . S
C288 C293 1.499 . S
N289 Co272 1.989 . S
N289 C288 1.342 . S
N289 N290 1.388 . S
N290 Co273 1.993 . S
N290 N289 1.388 . S
N290 C291 1.346 . S
C291 N290 1.346 . S
C291 C292 1.396 . S
C291 C301 1.510 . S
C292 C288 1.401 . S
C292 C291 1.396 . S
C293 C288 1.499 . S
C293 H294 0.959 . S
C293 H295 0.960 . S
C293 H296 0.961 . S
H294 C293 0.959 . S
H295 C293 0.960 . S
H296 C293 0.961 . S
O297 Co272 1.967 1_565 S
O297 C305 1.258 . S
O298 Co273 1.941 . S
O298 C305 1.266 1_545 S
H299 C301 0.959 . S
H300 C301 0.961 . S
C301 C291 1.510 . S
C301 H299 0.959 . S
C301 H300 0.961 . S
C301 H302 0.960 . S
H302 C301 0.960 . S
H303 N283 0.862 . S
O304 Co272 1.920 . S
O304 C277 1.289 . S
C305 O297 1.258 . S
C305 O298 1.266 1_565 S
Co306 O309 1.970 . S
Co306 N323 1.989 . S
Co306 O331 1.967 . S
Co306 O338 1.920 . S
Co307 O310 1.966 . S
Co307 N316 2.022 . S
Co307 N324 1.993 . S
Co307 O332 1.941 . S
C308 O309 1.258 . S
C308 O310 1.263 . S
O309 Co306 1.970 . S
O309 C308 1.258 . S
O310 Co307 1.966 . S
O310 C308 1.263 . S
C311 O312 1.235 . S
C311 O338 1.289 . S
O312 C311 1.235 . S
C313 C315 1.400 . S
C313 N316 1.351 . S
C313 C318 1.501 . S
C314 C315 1.387 . S
C314 N317 1.341 . S
C315 C313 1.400 . S
C315 C314 1.387 . S
N316 Co307 2.022 . S
N316 C313 1.351 . S
N316 N317 1.365 . S
N317 C314 1.341 . S
N317 N316 1.365 . S
N317 H337 0.862 . S
C318 C313 1.501 . S
C318 H319 0.961 . S
C318 H320 0.961 . S
C318 H321 0.960 . S
H319 C318 0.961 . S
H320 C318 0.961 . S
H321 C318 0.960 . S
C322 N323 1.342 . S
C322 C326 1.401 . S
C322 C327 1.499 . S
N323 Co306 1.989 . S
N323 C322 1.342 . S
N323 N324 1.388 . S
N324 Co307 1.993 . S
N324 N323 1.388 . S
N324 C325 1.346 . S
C325 N324 1.346 . S
C325 C326 1.396 . S
C325 C335 1.510 . S
C326 C322 1.401 . S
C326 C325 1.396 . S
C327 C322 1.499 . S
C327 H328 0.959 . S
C327 H329 0.960 . S
C327 H330 0.961 . S
H328 C327 0.959 . S
H329 C327 0.960 . S
H330 C327 0.961 . S
O331 Co306 1.967 . S
O331 C339 1.258 . S
O332 Co307 1.941 . S
O332 C339 1.266 . S
H333 C335 0.959 . S
H334 C335 0.961 . S
C335 C325 1.510 . S
C335 H333 0.959 . S
C335 H334 0.961 . S
C335 H336 0.960 . S
H336 C335 0.960 . S
H337 N317 0.862 . S
O338 Co306 1.920 . S
O338 C311 1.289 . S
C339 O331 1.258 . S
C339 O332 1.266 . S
Co340 O343 1.970 . S
Co340 N357 1.989 . S
Co340 O365 1.967 1_655 S
Co340 O372 1.920 1_554 S
Co341 O344 1.966 . S
Co341 N350 2.022 . S
Co341 N358 1.993 . S
Co341 O366 1.941 . S
C342 O343 1.258 . S
C342 O344 1.263 . S
O343 Co340 1.970 . S
O343 C342 1.258 . S
O344 Co341 1.966 . S
O344 C342 1.263 . S
C345 O346 1.235 . S
C345 O372 1.289 . S
O346 C345 1.235 . S
C347 C349 1.400 . S
C347 N350 1.351 . S
C347 C352 1.501 . S
C348 C349 1.387 . S
C348 N351 1.341 . S
C349 C347 1.400 . S
C349 C348 1.387 . S
N350 Co341 2.022 . S
N350 C347 1.351 . S
N350 N351 1.365 . S
N351 C348 1.341 . S
N351 N350 1.365 . S
N351 H371 0.862 . S
C352 C347 1.501 . S
C352 H353 0.961 . S
C352 H354 0.961 . S
C352 H355 0.960 . S
H353 C352 0.961 . S
H354 C352 0.961 . S
H355 C352 0.960 . S
C356 N357 1.342 1_556 S
C356 C360 1.401 . S
C356 C361 1.499 . S
N357 Co340 1.989 . S
N357 C356 1.342 1_554 S
N357 N358 1.388 . S
N358 Co341 1.993 . S
N358 N357 1.388 . S
N358 C359 1.346 . S
C359 N358 1.346 . S
C359 C360 1.396 1_554 S
C359 C369 1.510 . S
C360 C356 1.401 . S
C360 C359 1.396 1_556 S
C361 C356 1.499 . S
C361 H362 0.959 . S
C361 H363 0.960 . S
C361 H364 0.961 . S
H362 C361 0.959 . S
H363 C361 0.960 . S
H364 C361 0.961 . S
O365 Co340 1.967 1_455 S
O365 C373 1.258 . S
O366 Co341 1.941 . S
O366 C373 1.266 1_655 S
H367 C369 0.959 . S
H368 C369 0.961 . S
C369 C359 1.510 . S
C369 H367 0.959 . S
C369 H368 0.961 . S
C369 H370 0.960 . S
H370 C369 0.960 . S
H371 N351 0.862 . S
O372 Co340 1.920 1_556 S
O372 C345 1.289 . S
C373 O365 1.258 . S
C373 O366 1.266 1_455 S
Co374 O377 1.970 . S
Co374 N391 1.989 . S
Co374 O399 1.967 1_565 S
Co374 O406 1.920 . S
Co375 O378 1.966 . S
Co375 N384 2.022 . S
Co375 N392 1.993 . S
Co375 O400 1.941 . S
C376 O377 1.258 . S
C376 O378 1.263 . S
O377 Co374 1.970 . S
O377 C376 1.258 . S
O378 Co375 1.966 . S
O378 C376 1.263 . S
C379 O380 1.235 . S
C379 O406 1.289 . S
O380 C379 1.235 . S
C381 C383 1.400 . S
C381 N384 1.351 . S
C381 C386 1.501 . S
C382 C383 1.387 . S
C382 N385 1.341 . S
C383 C381 1.400 . S
C383 C382 1.387 . S
N384 Co375 2.022 . S
N384 C381 1.351 . S
N384 N385 1.365 . S
N385 C382 1.341 . S
N385 N384 1.365 . S
N385 H405 0.862 . S
C386 C381 1.501 . S
C386 H387 0.961 . S
C386 H388 0.961 . S
C386 H389 0.960 . S
H387 C386 0.961 . S
H388 C386 0.961 . S
H389 C386 0.960 . S
C390 N391 1.342 . S
C390 C394 1.401 . S
C390 C395 1.499 . S
N391 Co374 1.989 . S
N391 C390 1.342 . S
N391 N392 1.388 . S
N392 Co375 1.993 . S
N392 N391 1.388 . S
N392 C393 1.346 . S
C393 N392 1.346 . S
C393 C394 1.396 . S
C393 C403 1.510 . S
C394 C390 1.401 . S
C394 C393 1.396 . S
C395 C390 1.499 . S
C395 H396 0.959 . S
C395 H397 0.960 . S
C395 H398 0.961 . S
H396 C395 0.959 . S
H397 C395 0.960 . S
H398 C395 0.961 . S
O399 Co374 1.967 1_545 S
O399 C407 1.258 . S
O400 Co375 1.941 . S
O400 C407 1.266 1_565 S
H401 C403 0.959 . S
H402 C403 0.961 . S
C403 C393 1.510 . S
C403 H401 0.959 . S
C403 H402 0.961 . S
C403 H404 0.960 . S
H404 C403 0.960 . S
H405 N385 0.862 . S
O406 Co374 1.920 . S
O406 C379 1.289 . S
C407 O399 1.258 . S
C407 O400 1.266 1_545 S
H408 C420 0.930 . S
H409 C422 0.930 . S
H410 C423 0.930 . S
H411 C427 0.959 . S
H412 C427 0.959 . S
H413 C427 0.961 . S
H414 C428 0.960 . S
H415 C428 0.961 . S
H416 C428 0.959 . S
H417 C431 0.929 . S
H418 C432 0.931 . S
H419 C434 0.930 . S
C420 H408 0.930 . S
C420 C421 1.399 . S
C420 C425 1.399 . S
C421 C420 1.399 . S
C421 C422 1.376 . S
C422 H409 0.930 . S
C422 C421 1.376 . S
C422 C423 1.388 . S
C423 H410 0.930 . S
C423 C422 1.388 . S
C423 C424 1.390 . S
C424 C423 1.390 . S
C424 C425 1.394 . S
C424 C430 1.465 . S
C425 C420 1.399 . S
C425 C424 1.394 . S
C425 C426 1.516 . S
C426 C425 1.516 . S
C426 C427 1.502 . S
C426 C428 1.561 . S
C426 C429 1.526 . S
C427 H411 0.959 . S
C427 H412 0.959 . S
C427 H413 0.961 . S
C427 C426 1.502 . S
C428 H414 0.960 . S
C428 H415 0.961 . S
C428 H416 0.959 . S
C428 C426 1.561 . S
C429 C426 1.526 . S
C429 C430 1.396 . S
C429 C434 1.390 . S
C430 C424 1.465 . S
C430 C429 1.396 . S
C430 C431 1.399 . S
C431 H417 0.929 . S
C431 C430 1.399 . S
C431 C432 1.385 . S
C432 H418 0.931 . S
C432 C431 1.385 . S
C432 C433 1.389 . S
C433 C432 1.389 . S
C433 C434 1.387 . S
C434 H419 0.930 . S
C434 C429 1.390 . S
C434 C433 1.387 . S
H435 C447 0.930 . S
H436 C449 0.930 . S
H437 C450 0.930 . S
H438 C454 0.959 . S
H439 C454 0.959 . S
H440 C454 0.961 . S
H441 C455 0.960 . S
H442 C455 0.961 . S
H443 C455 0.959 . S
H444 C458 0.929 . S
H445 C459 0.931 . S
H446 C461 0.930 . S
C447 H435 0.930 . S
C447 C448 1.399 . S
C447 C452 1.399 . S
C448 C447 1.399 . S
C448 C449 1.376 . S
C449 H436 0.930 . S
C449 C448 1.376 . S
C449 C450 1.388 . S
C450 H437 0.930 . S
C450 C449 1.388 . S
C450 C451 1.390 . S
C451 C450 1.390 . S
C451 C452 1.394 . S
C451 C457 1.465 . S
C452 C447 1.399 . S
C452 C451 1.394 . S
C452 C453 1.516 . S
C453 C452 1.516 . S
C453 C454 1.502 . S
C453 C455 1.561 . S
C453 C456 1.526 . S
C454 H438 0.959 . S
C454 H439 0.959 . S
C454 H440 0.961 . S
C454 C453 1.502 . S
C455 H441 0.960 . S
C455 H442 0.961 . S
C455 H443 0.959 . S
C455 C453 1.561 . S
C456 C453 1.526 . S
C456 C457 1.396 . S
C456 C461 1.390 . S
C457 C451 1.465 . S
C457 C456 1.396 . S
C457 C458 1.399 . S
C458 H444 0.929 . S
C458 C457 1.399 . S
C458 C459 1.385 . S
C459 H445 0.931 . S
C459 C458 1.385 . S
C459 C460 1.389 . S
C460 C459 1.389 . S
C460 C461 1.387 . S
C461 H446 0.930 . S
C461 C456 1.390 . S
C461 C460 1.387 . S
H462 C474 0.930 . S
H463 C476 0.930 . S
H464 C477 0.930 . S
H465 C481 0.959 . S
H466 C481 0.959 . S
H467 C481 0.961 . S
H468 C482 0.960 . S
H469 C482 0.961 . S
H470 C482 0.959 . S
H471 C485 0.929 . S
H472 C486 0.931 . S
H473 C488 0.930 . S
C474 H462 0.930 . S
C474 C475 1.399 . S
C474 C479 1.399 . S
C475 C474 1.399 . S
C475 C476 1.376 . S
C476 H463 0.930 . S
C476 C475 1.376 . S
C476 C477 1.388 . S
C477 H464 0.930 . S
C477 C476 1.388 . S
C477 C478 1.390 . S
C478 C477 1.390 . S
C478 C479 1.394 . S
C478 C484 1.465 . S
C479 C474 1.399 . S
C479 C478 1.394 . S
C479 C480 1.516 . S
C480 C479 1.516 . S
C480 C481 1.502 . S
C480 C482 1.561 . S
C480 C483 1.526 . S
C481 H465 0.959 . S
C481 H466 0.959 . S
C481 H467 0.961 . S
C481 C480 1.502 . S
C482 H468 0.960 . S
C482 H469 0.961 . S
C482 H470 0.959 . S
C482 C480 1.561 . S
C483 C480 1.526 . S
C483 C484 1.396 . S
C483 C488 1.390 . S
C484 C478 1.465 . S
C484 C483 1.396 . S
C484 C485 1.399 . S
C485 H471 0.929 . S
C485 C484 1.399 . S
C485 C486 1.385 . S
C486 H472 0.931 . S
C486 C485 1.385 . S
C486 C487 1.389 . S
C487 C486 1.389 . S
C487 C488 1.387 . S
C488 H473 0.930 . S
C488 C483 1.390 . S
C488 C487 1.387 . S
H489 C501 0.930 . S
H490 C503 0.930 . S
H491 C504 0.930 . S
H492 C508 0.959 . S
H493 C508 0.959 . S
H494 C508 0.961 . S
H495 C509 0.960 . S
H496 C509 0.961 . S
H497 C509 0.959 . S
H498 C512 0.929 . S
H499 C513 0.931 . S
H500 C515 0.930 . S
C501 H489 0.930 . S
C501 C502 1.399 . S
C501 C506 1.399 . S
C502 C501 1.399 . S
C502 C503 1.376 . S
C503 H490 0.930 . S
C503 C502 1.376 . S
C503 C504 1.388 . S
C504 H491 0.930 . S
C504 C503 1.388 . S
C504 C505 1.390 . S
C505 C504 1.390 . S
C505 C506 1.394 . S
C505 C511 1.465 . S
C506 C501 1.399 . S
C506 C505 1.394 . S
C506 C507 1.516 . S
C507 C506 1.516 . S
C507 C508 1.502 . S
C507 C509 1.561 . S
C507 C510 1.526 . S
C508 H492 0.959 . S
C508 H493 0.959 . S
C508 H494 0.961 . S
C508 C507 1.502 . S
C509 H495 0.960 . S
C509 H496 0.961 . S
C509 H497 0.959 . S
C509 C507 1.561 . S
C510 C507 1.526 . S
C510 C511 1.396 . S
C510 C515 1.390 . S
C511 C505 1.465 . S
C511 C510 1.396 . S
C511 C512 1.399 . S
C512 H498 0.929 . S
C512 C511 1.399 . S
C512 C513 1.385 . S
C513 H499 0.931 . S
C513 C512 1.385 . S
C513 C514 1.389 . S
C514 C513 1.389 . S
C514 C515 1.387 . S
C515 H500 0.930 . S
C515 C510 1.390 . S
C515 C514 1.387 . S
H516 C528 0.930 . S
H517 C530 0.930 . S
H518 C531 0.930 . S
H519 C535 0.959 . S
H520 C535 0.959 . S
H521 C535 0.961 . S
H522 C536 0.960 . S
H523 C536 0.961 . S
H524 C536 0.959 . S
H525 C539 0.929 . S
H526 C540 0.931 . S
H527 C542 0.930 . S
C528 H516 0.930 . S
C528 C529 1.399 . S
C528 C533 1.399 . S
C529 C528 1.399 . S
C529 C530 1.376 . S
C530 H517 0.930 . S
C530 C529 1.376 . S
C530 C531 1.388 . S
C531 H518 0.930 . S
C531 C530 1.388 . S
C531 C532 1.390 . S
C532 C531 1.390 . S
C532 C533 1.394 . S
C532 C538 1.465 . S
C533 C528 1.399 . S
C533 C532 1.394 . S
C533 C534 1.516 . S
C534 C533 1.516 . S
C534 C535 1.502 . S
C534 C536 1.561 . S
C534 C537 1.526 . S
C535 H519 0.959 . S
C535 H520 0.959 . S
C535 H521 0.961 . S
C535 C534 1.502 . S
C536 H522 0.960 . S
C536 H523 0.961 . S
C536 H524 0.959 . S
C536 C534 1.561 . S
C537 C534 1.526 . S
C537 C538 1.396 . S
C537 C542 1.390 . S
C538 C532 1.465 . S
C538 C537 1.396 . S
C538 C539 1.399 . S
C539 H525 0.929 . S
C539 C538 1.399 . S
C539 C540 1.385 . S
C540 H526 0.931 . S
C540 C539 1.385 . S
C540 C541 1.389 . S
C541 C540 1.389 . S
C541 C542 1.387 . S
C542 H527 0.930 . S
C542 C537 1.390 . S
C542 C541 1.387 . S
H543 C555 0.930 . S
H544 C557 0.930 . S
H545 C558 0.930 . S
H546 C562 0.959 . S
H547 C562 0.959 . S
H548 C562 0.961 . S
H549 C563 0.960 . S
H550 C563 0.961 . S
H551 C563 0.959 . S
H552 C566 0.929 . S
H553 C567 0.931 . S
H554 C569 0.930 . S
C555 H543 0.930 . S
C555 C556 1.399 . S
C555 C560 1.399 . S
C556 C555 1.399 . S
C556 C557 1.376 . S
C557 H544 0.930 . S
C557 C556 1.376 . S
C557 C558 1.388 . S
C558 H545 0.930 . S
C558 C557 1.388 . S
C558 C559 1.390 . S
C559 C558 1.390 . S
C559 C560 1.394 . S
C559 C565 1.465 . S
C560 C555 1.399 . S
C560 C559 1.394 . S
C560 C561 1.516 . S
C561 C560 1.516 . S
C561 C562 1.502 . S
C561 C563 1.561 . S
C561 C564 1.526 . S
C562 H546 0.959 . S
C562 H547 0.959 . S
C562 H548 0.961 . S
C562 C561 1.502 . S
C563 H549 0.960 . S
C563 H550 0.961 . S
C563 H551 0.959 . S
C563 C561 1.561 . S
C564 C561 1.526 . S
C564 C565 1.396 . S
C564 C569 1.390 . S
C565 C559 1.465 . S
C565 C564 1.396 . S
C565 C566 1.399 . S
C566 H552 0.929 . S
C566 C565 1.399 . S
C566 C567 1.385 . S
C567 H553 0.931 . S
C567 C566 1.385 . S
C567 C568 1.389 . S
C568 C567 1.389 . S
C568 C569 1.387 . S
C569 H554 0.930 . S
C569 C564 1.390 . S
C569 C568 1.387 . S
H570 C582 0.930 . S
H571 C584 0.930 . S
H572 C585 0.930 . S
H573 C589 0.959 . S
H574 C589 0.959 . S
H575 C589 0.961 . S
H576 C590 0.960 . S
H577 C590 0.961 . S
H578 C590 0.959 . S
H579 C593 0.929 . S
H580 C594 0.931 . S
H581 C596 0.930 . S
C582 H570 0.930 . S
C582 C583 1.399 . S
C582 C587 1.399 . S
C583 C582 1.399 . S
C583 C584 1.376 . S
C584 H571 0.930 . S
C584 C583 1.376 . S
C584 C585 1.388 . S
C585 H572 0.930 . S
C585 C584 1.388 . S
C585 C586 1.390 . S
C586 C585 1.390 . S
C586 C587 1.394 . S
C586 C592 1.465 . S
C587 C582 1.399 . S
C587 C586 1.394 . S
C587 C588 1.516 . S
C588 C587 1.516 . S
C588 C589 1.502 . S
C588 C590 1.561 . S
C588 C591 1.526 . S
C589 H573 0.959 . S
C589 H574 0.959 . S
C589 H575 0.961 . S
C589 C588 1.502 . S
C590 H576 0.960 . S
C590 H577 0.961 . S
C590 H578 0.959 . S
C590 C588 1.561 . S
C591 C588 1.526 . S
C591 C592 1.396 . S
C591 C596 1.390 . S
C592 C586 1.465 . S
C592 C591 1.396 . S
C592 C593 1.399 . S
C593 H579 0.929 . S
C593 C592 1.399 . S
C593 C594 1.385 . S
C594 H580 0.931 . S
C594 C593 1.385 . S
C594 C595 1.389 . S
C595 C594 1.389 . S
C595 C596 1.387 . S
C596 H581 0.930 . S
C596 C591 1.390 . S
C596 C595 1.387 . S
H597 C609 0.930 . S
H598 C611 0.930 . S
H599 C612 0.930 . S
H600 C616 0.959 . S
H601 C616 0.959 . S
H602 C616 0.961 . S
H603 C617 0.960 . S
H604 C617 0.961 . S
H605 C617 0.959 . S
H606 C620 0.929 . S
H607 C621 0.931 . S
H608 C623 0.930 . S
C609 H597 0.930 . S
C609 C610 1.399 . S
C609 C614 1.399 . S
C610 C609 1.399 . S
C610 C611 1.376 . S
C611 H598 0.930 . S
C611 C610 1.376 . S
C611 C612 1.388 . S
C612 H599 0.930 . S
C612 C611 1.388 . S
C612 C613 1.390 . S
C613 C612 1.390 . S
C613 C614 1.394 . S
C613 C619 1.465 . S
C614 C609 1.399 . S
C614 C613 1.394 . S
C614 C615 1.516 . S
C615 C614 1.516 . S
C615 C616 1.502 . S
C615 C617 1.561 . S
C615 C618 1.526 . S
C616 H600 0.959 . S
C616 H601 0.959 . S
C616 H602 0.961 . S
C616 C615 1.502 . S
C617 H603 0.960 . S
C617 H604 0.961 . S
C617 H605 0.959 . S
C617 C615 1.561 . S
C618 C615 1.526 . S
C618 C619 1.396 . S
C618 C623 1.390 . S
C619 C613 1.465 . S
C619 C618 1.396 . S
C619 C620 1.399 . S
C620 H606 0.929 . S
C620 C619 1.399 . S
C620 C621 1.385 . S
C621 H607 0.931 . S
C621 C620 1.385 . S
C621 C622 1.389 . S
C622 C621 1.389 . S
C622 C623 1.387 . S
C623 H608 0.930 . S
C623 C618 1.390 . S
C623 C622 1.387 . S
H624 C636 0.930 . S
H625 C638 0.930 . S
H626 C639 0.930 . S
H627 C643 0.959 . S
H628 C643 0.959 . S
H629 C643 0.961 . S
H630 C644 0.960 . S
H631 C644 0.961 . S
H632 C644 0.959 . S
H633 C647 0.929 . S
H634 C648 0.931 . S
H635 C650 0.930 . S
C636 H624 0.930 . S
C636 C637 1.399 . S
C636 C641 1.399 . S
C637 C636 1.399 . S
C637 C638 1.376 . S
C638 H625 0.930 . S
C638 C637 1.376 . S
C638 C639 1.388 . S
C639 H626 0.930 . S
C639 C638 1.388 . S
C639 C640 1.390 . S
C640 C639 1.390 . S
C640 C641 1.394 . S
C640 C646 1.465 . S
C641 C636 1.399 . S
C641 C640 1.394 . S
C641 C642 1.516 . S
C642 C641 1.516 . S
C642 C643 1.502 . S
C642 C644 1.561 . S
C642 C645 1.526 . S
C643 H627 0.959 . S
C643 H628 0.959 . S
C643 H629 0.961 . S
C643 C642 1.502 . S
C644 H630 0.960 . S
C644 H631 0.961 . S
C644 H632 0.959 . S
C644 C642 1.561 . S
C645 C642 1.526 . S
C645 C646 1.396 . S
C645 C650 1.390 . S
C646 C640 1.465 . S
C646 C645 1.396 . S
C646 C647 1.399 . S
C647 H633 0.929 . S
C647 C646 1.399 . S
C647 C648 1.385 . S
C648 H634 0.931 . S
C648 C647 1.385 . S
C648 C649 1.389 . S
C649 C648 1.389 . S
C649 C650 1.387 . S
C650 H635 0.930 . S
C650 C645 1.390 . S
C650 C649 1.387 . S
H651 C663 0.930 . S
H652 C665 0.930 . S
H653 C666 0.930 . S
H654 C670 0.959 . S
H655 C670 0.959 . S
H656 C670 0.961 . S
H657 C671 0.960 . S
H658 C671 0.961 . S
H659 C671 0.959 . S
H660 C674 0.929 . S
H661 C675 0.931 . S
H662 C677 0.930 . S
C663 H651 0.930 . S
C663 C664 1.399 . S
C663 C668 1.399 . S
C664 C663 1.399 . S
C664 C665 1.376 . S
C665 H652 0.930 . S
C665 C664 1.376 . S
C665 C666 1.388 . S
C666 H653 0.930 . S
C666 C665 1.388 . S
C666 C667 1.390 . S
C667 C666 1.390 . S
C667 C668 1.394 . S
C667 C673 1.465 . S
C668 C663 1.399 . S
C668 C667 1.394 . S
C668 C669 1.516 . S
C669 C668 1.516 . S
C669 C670 1.502 . S
C669 C671 1.561 . S
C669 C672 1.526 . S
C670 H654 0.959 . S
C670 H655 0.959 . S
C670 H656 0.961 . S
C670 C669 1.502 . S
C671 H657 0.960 . S
C671 H658 0.961 . S
C671 H659 0.959 . S
C671 C669 1.561 . S
C672 C669 1.526 . S
C672 C673 1.396 . S
C672 C677 1.390 . S
C673 C667 1.465 . S
C673 C672 1.396 . S
C673 C674 1.399 . S
C674 H660 0.929 . S
C674 C673 1.399 . S
C674 C675 1.385 . S
C675 H661 0.931 . S
C675 C674 1.385 . S
C675 C676 1.389 . S
C676 C675 1.389 . S
C676 C677 1.387 . S
C677 H662 0.930 . S
C677 C672 1.390 . S
C677 C676 1.387 . S
H678 C690 0.930 . S
H679 C692 0.930 . S
H680 C693 0.930 . S
H681 C697 0.959 . S
H682 C697 0.959 . S
H683 C697 0.961 . S
H684 C698 0.960 . S
H685 C698 0.961 . S
H686 C698 0.959 . S
H687 C701 0.929 . S
H688 C702 0.931 . S
H689 C704 0.930 . S
C690 H678 0.930 . S
C690 C691 1.399 . S
C690 C695 1.399 . S
C691 C690 1.399 . S
C691 C692 1.376 . S
C692 H679 0.930 . S
C692 C691 1.376 . S
C692 C693 1.388 . S
C693 H680 0.930 . S
C693 C692 1.388 . S
C693 C694 1.390 . S
C694 C693 1.390 . S
C694 C695 1.394 . S
C694 C700 1.465 . S
C695 C690 1.399 . S
C695 C694 1.394 . S
C695 C696 1.516 . S
C696 C695 1.516 . S
C696 C697 1.502 . S
C696 C698 1.561 . S
C696 C699 1.526 . S
C697 H681 0.959 . S
C697 H682 0.959 . S
C697 H683 0.961 . S
C697 C696 1.502 . S
C698 H684 0.960 . S
C698 H685 0.961 . S
C698 H686 0.959 . S
C698 C696 1.561 . S
C699 C696 1.526 . S
C699 C700 1.396 . S
C699 C704 1.390 . S
C700 C694 1.465 . S
C700 C699 1.396 . S
C700 C701 1.399 1_556 S
C701 H687 0.929 . S
C701 C700 1.399 1_554 S
C701 C702 1.385 . S
C702 H688 0.931 . S
C702 C701 1.385 . S
C702 C703 1.389 1_554 S
C703 C702 1.389 1_556 S
C703 C704 1.387 . S
C704 H689 0.930 . S
C704 C699 1.390 . S
C704 C703 1.387 . S
H705 C717 0.930 . S
H706 C719 0.930 . S
H707 C720 0.930 . S
H708 C724 0.959 . S
H709 C724 0.959 . S
H710 C724 0.961 . S
H711 C725 0.960 . S
H712 C725 0.961 . S
H713 C725 0.959 . S
H714 C728 0.929 . S
H715 C729 0.931 . S
H716 C731 0.930 . S
C717 H705 0.930 . S
C717 C718 1.399 . S
C717 C722 1.399 . S
C718 C717 1.399 . S
C718 C719 1.376 . S
C719 H706 0.930 . S
C719 C718 1.376 . S
C719 C720 1.388 . S
C720 H707 0.930 . S
C720 C719 1.388 . S
C720 C721 1.390 . S
C721 C720 1.390 . S
C721 C722 1.394 . S
C721 C727 1.465 . S
C722 C717 1.399 . S
C722 C721 1.394 . S
C722 C723 1.516 . S
C723 C722 1.516 . S
C723 C724 1.502 . S
C723 C725 1.561 . S
C723 C726 1.526 . S
C724 H708 0.959 . S
C724 H709 0.959 . S
C724 H710 0.961 . S
C724 C723 1.502 . S
C725 H711 0.960 . S
C725 H712 0.961 . S
C725 H713 0.959 . S
C725 C723 1.561 . S
C726 C723 1.526 . S
C726 C727 1.396 . S
C726 C731 1.390 . S
C727 C721 1.465 . S
C727 C726 1.396 . S
C727 C728 1.399 . S
C728 H714 0.929 . S
C728 C727 1.399 . S
C728 C729 1.385 . S
C729 H715 0.931 . S
C729 C728 1.385 . S
C729 C730 1.389 . S
C730 C729 1.389 . S
C730 C731 1.387 . S
C731 H716 0.930 . S
C731 C726 1.390 . S
C731 C730 1.387 . S
H732 C744 0.930 . S
H733 C746 0.930 . S
H734 C747 0.930 . S
H735 C751 0.959 . S
H736 C751 0.959 . S
H737 C751 0.961 . S
H738 C752 0.960 . S
H739 C752 0.961 . S
H740 C752 0.959 . S
H741 C755 0.929 . S
H742 C756 0.931 . S
H743 C758 0.930 . S
C744 H732 0.930 . S
C744 C745 1.399 . S
C744 C749 1.399 . S
C745 C744 1.399 . S
C745 C746 1.376 . S
C746 H733 0.930 . S
C746 C745 1.376 . S
C746 C747 1.388 . S
C747 H734 0.930 . S
C747 C746 1.388 . S
C747 C748 1.390 . S
C748 C747 1.390 . S
C748 C749 1.394 . S
C748 C754 1.465 . S
C749 C744 1.399 . S
C749 C748 1.394 . S
C749 C750 1.516 . S
C750 C749 1.516 . S
C750 C751 1.502 . S
C750 C752 1.561 . S
C750 C753 1.526 . S
C751 H735 0.959 . S
C751 H736 0.959 . S
C751 H737 0.961 . S
C751 C750 1.502 . S
C752 H738 0.960 . S
C752 H739 0.961 . S
C752 H740 0.959 . S
C752 C750 1.561 . S
C753 C750 1.526 . S
C753 C754 1.396 . S
C753 C758 1.390 . S
C754 C748 1.465 . S
C754 C753 1.396 . S
C754 C755 1.399 . S
C755 H741 0.929 . S
C755 C754 1.399 . S
C755 C756 1.385 . S
C756 H742 0.931 . S
C756 C755 1.385 . S
C756 C757 1.389 . S
C757 C756 1.389 . S
C757 C758 1.387 . S
C758 H743 0.930 . S
C758 C753 1.390 . S
C758 C757 1.387 . S
H759 C771 0.930 . S
H760 C773 0.930 . S
H761 C774 0.930 . S
H762 C778 0.959 . S
H763 C778 0.959 . S
H764 C778 0.961 . S
H765 C779 0.960 . S
H766 C779 0.961 . S
H767 C779 0.959 . S
H768 C782 0.929 . S
H769 C783 0.931 . S
H770 C785 0.930 . S
C771 H759 0.930 . S
C771 C772 1.399 . S
C771 C776 1.399 . S
C772 C771 1.399 . S
C772 C773 1.376 . S
C773 H760 0.930 . S
C773 C772 1.376 . S
C773 C774 1.388 . S
C774 H761 0.930 . S
C774 C773 1.388 . S
C774 C775 1.390 . S
C775 C774 1.390 . S
C775 C776 1.394 . S
C775 C781 1.465 . S
C776 C771 1.399 . S
C776 C775 1.394 . S
C776 C777 1.516 . S
C777 C776 1.516 . S
C777 C778 1.502 . S
C777 C779 1.561 . S
C777 C780 1.526 . S
C778 H762 0.959 . S
C778 H763 0.959 . S
C778 H764 0.961 . S
C778 C777 1.502 . S
C779 H765 0.960 . S
C779 H766 0.961 . S
C779 H767 0.959 . S
C779 C777 1.561 . S
C780 C777 1.526 . S
C780 C781 1.396 . S
C780 C785 1.390 . S
C781 C775 1.465 . S
C781 C780 1.396 . S
C781 C782 1.399 . S
C782 H768 0.929 . S
C782 C781 1.399 . S
C782 C783 1.385 . S
C783 H769 0.931 . S
C783 C782 1.385 . S
C783 C784 1.389 . S
C784 C783 1.389 . S
C784 C785 1.387 . S
C785 H770 0.930 . S
C785 C780 1.390 . S
C785 C784 1.387 . S
H786 C798 0.930 . S
H787 C800 0.930 . S
H788 C801 0.930 . S
H789 C805 0.959 . S
H790 C805 0.959 . S
H791 C805 0.961 . S
H792 C806 0.960 . S
H793 C806 0.961 . S
H794 C806 0.959 . S
H795 C809 0.929 . S
H796 C810 0.931 . S
H797 C812 0.930 . S
C798 H786 0.930 . S
C798 C799 1.399 . S
C798 C803 1.399 . S
C799 C798 1.399 . S
C799 C800 1.376 . S
C800 H787 0.930 . S
C800 C799 1.376 . S
C800 C801 1.388 . S
C801 H788 0.930 . S
C801 C800 1.388 . S
C801 C802 1.390 . S
C802 C801 1.390 . S
C802 C803 1.394 . S
C802 C808 1.465 . S
C803 C798 1.399 . S
C803 C802 1.394 . S
C803 C804 1.516 . S
C804 C803 1.516 . S
C804 C805 1.502 . S
C804 C806 1.561 . S
C804 C807 1.526 . S
C805 H789 0.959 . S
C805 H790 0.959 . S
C805 H791 0.961 . S
C805 C804 1.502 . S
C806 H792 0.960 . S
C806 H793 0.961 . S
C806 H794 0.959 . S
C806 C804 1.561 . S
C807 C804 1.526 . S
C807 C808 1.396 . S
C807 C812 1.390 . S
C808 C802 1.465 . S
C808 C807 1.396 . S
C808 C809 1.399 . S
C809 H795 0.929 . S
C809 C808 1.399 . S
C809 C810 1.385 . S
C810 H796 0.931 . S
C810 C809 1.385 . S
C810 C811 1.389 . S
C811 C810 1.389 . S
C811 C812 1.387 . S
C812 H797 0.930 . S
C812 C807 1.390 . S
C812 C811 1.387 . S
H813 C825 0.930 . S
H814 C827 0.930 . S
H815 C828 0.930 . S
H816 C832 0.959 . S
H817 C832 0.959 . S
H818 C832 0.961 . S
H819 C833 0.960 . S
H820 C833 0.961 . S
H821 C833 0.959 . S
H822 C836 0.929 . S
H823 C837 0.931 . S
H824 C839 0.930 1_556 S
C825 H813 0.930 . S
C825 C826 1.399 . S
C825 C830 1.399 . S
C826 C825 1.399 . S
C826 C827 1.376 . S
C827 H814 0.930 . S
C827 C826 1.376 . S
C827 C828 1.388 . S
C828 H815 0.930 . S
C828 C827 1.388 . S
C828 C829 1.390 . S
C829 C828 1.390 . S
C829 C830 1.394 . S
C829 C835 1.465 . S
C830 C825 1.399 . S
C830 C829 1.394 . S
C830 C831 1.516 . S
C831 C830 1.516 . S
C831 C832 1.502 . S
C831 C833 1.561 1_554 S
C831 C834 1.526 . S
C832 H816 0.959 . S
C832 H817 0.959 . S
C832 H818 0.961 . S
C832 C831 1.502 . S
C833 H819 0.960 . S
C833 H820 0.961 . S
C833 H821 0.959 . S
C833 C831 1.561 1_556 S
C834 C831 1.526 . S
C834 C835 1.396 . S
C834 C839 1.390 . S
C835 C829 1.465 . S
C835 C834 1.396 . S
C835 C836 1.399 . S
C836 H822 0.929 . S
C836 C835 1.399 . S
C836 C837 1.385 . S
C837 H823 0.931 . S
C837 C836 1.385 . S
C837 C838 1.389 . S
C838 C837 1.389 . S
C838 C839 1.387 . S
C839 H824 0.930 1_554 S
C839 C834 1.390 . S
C839 C838 1.387 . S
H840 C852 0.930 . S
H841 C854 0.930 . S
H842 C855 0.930 . S
H843 C859 0.959 . S
H844 C859 0.959 . S
H845 C859 0.961 . S
H846 C860 0.960 . S
H847 C860 0.961 . S
H848 C860 0.959 . S
H849 C863 0.929 . S
H850 C864 0.931 . S
H851 C866 0.930 . S
C852 H840 0.930 . S
C852 C853 1.399 . S
C852 C857 1.399 . S
C853 C852 1.399 . S
C853 C854 1.376 . S
C854 H841 0.930 . S
C854 C853 1.376 . S
C854 C855 1.388 . S
C855 H842 0.930 . S
C855 C854 1.388 . S
C855 C856 1.390 . S
C856 C855 1.390 . S
C856 C857 1.394 . S
C856 C862 1.465 . S
C857 C852 1.399 . S
C857 C856 1.394 . S
C857 C858 1.516 . S
C858 C857 1.516 . S
C858 C859 1.502 . S
C858 C860 1.561 . S
C858 C861 1.526 . S
C859 H843 0.959 . S
C859 H844 0.959 . S
C859 H845 0.961 . S
C859 C858 1.502 . S
C860 H846 0.960 . S
C860 H847 0.961 . S
C860 H848 0.959 . S
C860 C858 1.561 . S
C861 C858 1.526 . S
C861 C862 1.396 . S
C861 C866 1.390 . S
C862 C856 1.465 . S
C862 C861 1.396 . S
C862 C863 1.399 . S
C863 H849 0.929 . S
C863 C862 1.399 . S
C863 C864 1.385 . S
C864 H850 0.931 . S
C864 C863 1.385 . S
C864 C865 1.389 . S
C865 C864 1.389 . S
C865 C866 1.387 . S
C866 H851 0.930 . S
C866 C861 1.390 . S
C866 C865 1.387 . S
H867 C879 0.930 . S
H868 C881 0.930 . S
H869 C882 0.930 . S
H870 C886 0.959 . S
H871 C886 0.959 . S
H872 C886 0.961 . S
H873 C887 0.960 . S
H874 C887 0.961 . S
H875 C887 0.959 . S
H876 C890 0.929 . S
H877 C891 0.931 . S
H878 C893 0.930 . S
C879 H867 0.930 . S
C879 C880 1.399 . S
C879 C884 1.399 . S
C880 C879 1.399 . S
C880 C881 1.376 . S
C881 H868 0.930 . S
C881 C880 1.376 . S
C881 C882 1.388 . S
C882 H869 0.930 . S
C882 C881 1.388 . S
C882 C883 1.390 . S
C883 C882 1.390 . S
C883 C884 1.394 . S
C883 C889 1.465 . S
C884 C879 1.399 . S
C884 C883 1.394 . S
C884 C885 1.516 . S
C885 C884 1.516 . S
C885 C886 1.502 . S
C885 C887 1.561 . S
C885 C888 1.526 . S
C886 H870 0.959 . S
C886 H871 0.959 . S
C886 H872 0.961 . S
C886 C885 1.502 . S
C887 H873 0.960 . S
C887 H874 0.961 . S
C887 H875 0.959 . S
C887 C885 1.561 . S
C888 C885 1.526 . S
C888 C889 1.396 . S
C888 C893 1.390 . S
C889 C883 1.465 . S
C889 C888 1.396 . S
C889 C890 1.399 . S
C890 H876 0.929 . S
C890 C889 1.399 . S
C890 C891 1.385 . S
C891 H877 0.931 . S
C891 C890 1.385 . S
C891 C892 1.389 . S
C892 C891 1.389 . S
C892 C893 1.387 . S
C893 H878 0.930 . S
C893 C888 1.390 . S
C893 C892 1.387 . S
H894 C906 0.930 . S
H895 C908 0.930 . S
H896 C909 0.930 . S
H897 C913 0.959 . S
H898 C913 0.959 . S
H899 C913 0.961 . S
H900 C914 0.960 . S
H901 C914 0.961 . S
H902 C914 0.959 . S
H903 C917 0.929 . S
H904 C918 0.931 . S
H905 C920 0.930 . S
C906 H894 0.930 . S
C906 C907 1.399 . S
C906 C911 1.399 . S
C907 C906 1.399 . S
C907 C908 1.376 . S
C908 H895 0.930 . S
C908 C907 1.376 . S
C908 C909 1.388 . S
C909 H896 0.930 . S
C909 C908 1.388 . S
C909 C910 1.390 . S
C910 C909 1.390 . S
C910 C911 1.394 . S
C910 C916 1.465 . S
C911 C906 1.399 . S
C911 C910 1.394 . S
C911 C912 1.516 . S
C912 C911 1.516 . S
C912 C913 1.502 . S
C912 C914 1.561 . S
C912 C915 1.526 . S
C913 H897 0.959 . S
C913 H898 0.959 . S
C913 H899 0.961 . S
C913 C912 1.502 . S
C914 H900 0.960 . S
C914 H901 0.961 . S
C914 H902 0.959 . S
C914 C912 1.561 . S
C915 C912 1.526 . S
C915 C916 1.396 . S
C915 C920 1.390 . S
C916 C910 1.465 . S
C916 C915 1.396 . S
C916 C917 1.399 . S
C917 H903 0.929 . S
C917 C916 1.399 . S
C917 C918 1.385 . S
C918 H904 0.931 . S
C918 C917 1.385 . S
C918 C919 1.389 . S
C919 C918 1.389 . S
C919 C920 1.387 . S
C920 H905 0.930 . S
C920 C915 1.390 . S
C920 C919 1.387 . S
H921 C933 0.930 . S
H922 C935 0.930 . S
H923 C936 0.930 . S
H924 C940 0.959 . S
H925 C940 0.959 . S
H926 C940 0.961 . S
H927 C941 0.960 . S
H928 C941 0.961 . S
H929 C941 0.959 . S
H930 C944 0.929 . S
H931 C945 0.931 . S
H932 C947 0.930 . S
C933 H921 0.930 . S
C933 C934 1.399 . S
C933 C938 1.399 . S
C934 C933 1.399 . S
C934 C935 1.376 . S
C935 H922 0.930 . S
C935 C934 1.376 . S
C935 C936 1.388 . S
C936 H923 0.930 . S
C936 C935 1.388 . S
C936 C937 1.390 . S
C937 C936 1.390 . S
C937 C938 1.394 . S
C937 C943 1.465 . S
C938 C933 1.399 . S
C938 C937 1.394 . S
C938 C939 1.516 . S
C939 C938 1.516 . S
C939 C940 1.502 1_455 S
C939 C941 1.561 . S
C939 C942 1.526 . S
C940 H924 0.959 . S
C940 H925 0.959 . S
C940 H926 0.961 . S
C940 C939 1.502 1_655 S
C941 H927 0.960 . S
C941 H928 0.961 . S
C941 H929 0.959 . S
C941 C939 1.561 . S
C942 C939 1.526 . S
C942 C943 1.396 . S
C942 C947 1.390 . S
C943 C937 1.465 . S
C943 C942 1.396 . S
C943 C944 1.399 . S
C944 H930 0.929 . S
C944 C943 1.399 . S
C944 C945 1.385 . S
C945 H931 0.931 . S
C945 C944 1.385 . S
C945 C946 1.389 . S
C946 C945 1.389 . S
C946 C947 1.387 . S
C947 H932 0.930 . S
C947 C942 1.390 . S
C947 C946 1.387 . S
H948 C960 0.930 1_565 S
H949 C962 0.930 . S
H950 C963 0.930 . S
H951 C967 0.959 . S
H952 C967 0.959 . S
H953 C967 0.961 . S
H954 C968 0.960 . S
H955 C968 0.961 . S
H956 C968 0.959 . S
H957 C971 0.929 . S
H958 C972 0.931 . S
H959 C974 0.930 1_565 S
C960 H948 0.930 1_545 S
C960 C961 1.399 . S
C960 C965 1.399 . S
C961 C960 1.399 . S
C961 C962 1.376 . S
C962 H949 0.930 . S
C962 C961 1.376 . S
C962 C963 1.388 . S
C963 H950 0.930 . S
C963 C962 1.388 . S
C963 C964 1.390 . S
C964 C963 1.390 . S
C964 C965 1.394 . S
C964 C970 1.465 . S
C965 C960 1.399 . S
C965 C964 1.394 . S
C965 C966 1.516 1_545 S
C966 C965 1.516 1_565 S
C966 C967 1.502 . S
C966 C968 1.561 . S
C966 C969 1.526 1_565 S
C967 H951 0.959 . S
C967 H952 0.959 . S
C967 H953 0.961 . S
C967 C966 1.502 . S
C968 H954 0.960 . S
C968 H955 0.961 . S
C968 H956 0.959 . S
C968 C966 1.561 . S
C969 C966 1.526 1_545 S
C969 C970 1.396 . S
C969 C974 1.390 . S
C970 C964 1.465 . S
C970 C969 1.396 . S
C970 C971 1.399 . S
C971 H957 0.929 . S
C971 C970 1.399 . S
C971 C972 1.385 . S
C972 H958 0.931 . S
C972 C971 1.385 . S
C972 C973 1.389 . S
C973 C972 1.389 . S
C973 C974 1.387 . S
C974 H959 0.930 1_545 S
C974 C969 1.390 . S
C974 C973 1.387 . S
H975 C987 0.930 . S
H976 C989 0.930 . S
H977 C990 0.930 . S
H978 C994 0.959 . S
H979 C994 0.959 . S
H980 C994 0.961 . S
H981 C995 0.960 . S
H982 C995 0.961 . S
H983 C995 0.959 . S
H984 C998 0.929 . S
H985 C999 0.931 . S
H986 C1001 0.930 . S
C987 H975 0.930 . S
C987 C988 1.399 . S
C987 C992 1.399 . S
C988 C987 1.399 . S
C988 C989 1.376 . S
C989 H976 0.930 . S
C989 C988 1.376 . S
C989 C990 1.388 . S
C990 H977 0.930 . S
C990 C989 1.388 . S
C990 C991 1.390 . S
C991 C990 1.390 . S
C991 C992 1.394 . S
C991 C997 1.465 . S
C992 C987 1.399 . S
C992 C991 1.394 . S
C992 C993 1.516 . S
C993 C992 1.516 . S
C993 C994 1.502 . S
C993 C995 1.561 . S
C993 C996 1.526 . S
C994 H978 0.959 . S
C994 H979 0.959 . S
C994 H980 0.961 . S
C994 C993 1.502 . S
C995 H981 0.960 . S
C995 H982 0.961 . S
C995 H983 0.959 . S
C995 C993 1.561 . S
C996 C993 1.526 . S
C996 C997 1.396 . S
C996 C1001 1.390 . S
C997 C991 1.465 . S
C997 C996 1.396 . S
C997 C998 1.399 . S
C998 H984 0.929 . S
C998 C997 1.399 . S
C998 C999 1.385 . S
C999 H985 0.931 . S
C999 C998 1.385 . S
C999 C1000 1.389 . S
C1000 C999 1.389 . S
C1000 C1001 1.387 . S
C1001 H986 0.930 . S
C1001 C996 1.390 . S
C1001 C1000 1.387 . S
H1002 C1014 0.930 . S
H1003 C1016 0.930 . S
H1004 C1017 0.930 . S
H1005 C1021 0.959 1_455 S
H1006 C1021 0.959 . S
H1007 C1021 0.961 . S
H1008 C1022 0.960 . S
H1009 C1022 0.961 . S
H1010 C1022 0.959 . S
H1011 C1025 0.929 . S
H1012 C1026 0.931 . S
H1013 C1028 0.930 . S
C1014 H1002 0.930 . S
C1014 C1015 1.399 . S
C1014 C1019 1.399 . S
C1015 C1014 1.399 . S
C1015 C1016 1.376 . S
C1016 H1003 0.930 . S
C1016 C1015 1.376 . S
C1016 C1017 1.388 . S
C1017 H1004 0.930 . S
C1017 C1016 1.388 . S
C1017 C1018 1.390 . S
C1018 C1017 1.390 . S
C1018 C1019 1.394 . S
C1018 C1024 1.465 . S
C1019 C1014 1.399 . S
C1019 C1018 1.394 . S
C1019 C1020 1.516 . S
C1020 C1019 1.516 . S
C1020 C1021 1.502 . S
C1020 C1022 1.561 . S
C1020 C1023 1.526 . S
C1021 H1005 0.959 1_655 S
C1021 H1006 0.959 . S
C1021 H1007 0.961 . S
C1021 C1020 1.502 . S
C1022 H1008 0.960 . S
C1022 H1009 0.961 . S
C1022 H1010 0.959 . S
C1022 C1020 1.561 . S
C1023 C1020 1.526 . S
C1023 C1024 1.396 . S
C1023 C1028 1.390 . S
C1024 C1018 1.465 . S
C1024 C1023 1.396 . S
C1024 C1025 1.399 . S
C1025 H1011 0.929 . S
C1025 C1024 1.399 . S
C1025 C1026 1.385 . S
C1026 H1012 0.931 . S
C1026 C1025 1.385 . S
C1026 C1027 1.389 . S
C1027 C1026 1.389 . S
C1027 C1028 1.387 . S
C1028 H1013 0.930 . S
C1028 C1023 1.390 . S
C1028 C1027 1.387 . S
H1029 C1041 0.930 . S
H1030 C1043 0.930 . S
H1031 C1044 0.930 1_545 S
H1032 C1048 0.959 . S
H1033 C1048 0.959 . S
H1034 C1048 0.961 . S
H1035 C1049 0.960 . S
H1036 C1049 0.961 . S
H1037 C1049 0.959 . S
H1038 C1052 0.929 1_545 S
H1039 C1053 0.931 . S
H1040 C1055 0.930 . S
C1041 H1029 0.930 . S
C1041 C1042 1.399 . S
C1041 C1046 1.399 . S
C1042 C1041 1.399 . S
C1042 C1043 1.376 . S
C1043 H1030 0.930 . S
C1043 C1042 1.376 . S
C1043 C1044 1.388 . S
C1044 H1031 0.930 1_565 S
C1044 C1043 1.388 . S
C1044 C1045 1.390 . S
C1045 C1044 1.390 . S
C1045 C1046 1.394 . S
C1045 C1051 1.465 . S
C1046 C1041 1.399 . S
C1046 C1045 1.394 . S
C1046 C1047 1.516 . S
C1047 C1046 1.516 . S
C1047 C1048 1.502 . S
C1047 C1049 1.561 . S
C1047 C1050 1.526 . S
C1048 H1032 0.959 . S
C1048 H1033 0.959 . S
C1048 H1034 0.961 . S
C1048 C1047 1.502 . S
C1049 H1035 0.960 . S
C1049 H1036 0.961 . S
C1049 H1037 0.959 . S
C1049 C1047 1.561 . S
C1050 C1047 1.526 . S
C1050 C1051 1.396 . S
C1050 C1055 1.390 . S
C1051 C1045 1.465 . S
C1051 C1050 1.396 . S
C1051 C1052 1.399 . S
C1052 H1038 0.929 1_565 S
C1052 C1051 1.399 . S
C1052 C1053 1.385 . S
C1053 H1039 0.931 . S
C1053 C1052 1.385 . S
C1053 C1054 1.389 . S
C1054 C1053 1.389 . S
C1054 C1055 1.387 . S
C1055 H1040 0.930 . S
C1055 C1050 1.390 . S
C1055 C1054 1.387 . S
H1056 C1068 0.930 . S
H1057 C1070 0.930 . S
H1058 C1071 0.930 . S
H1059 C1075 0.959 . S
H1060 C1075 0.959 . S
H1061 C1075 0.961 . S
H1062 C1076 0.960 . S
H1063 C1076 0.961 . S
H1064 C1076 0.959 . S
H1065 C1079 0.929 . S
H1066 C1080 0.931 . S
H1067 C1082 0.930 . S
C1068 H1056 0.930 . S
C1068 C1069 1.399 . S
C1068 C1073 1.399 . S
C1069 C1068 1.399 . S
C1069 C1070 1.376 . S
C1070 H1057 0.930 . S
C1070 C1069 1.376 . S
C1070 C1071 1.388 . S
C1071 H1058 0.930 . S
C1071 C1070 1.388 . S
C1071 C1072 1.390 . S
C1072 C1071 1.390 . S
C1072 C1073 1.394 . S
C1072 C1078 1.465 . S
C1073 C1068 1.399 . S
C1073 C1072 1.394 . S
C1073 C1074 1.516 . S
C1074 C1073 1.516 . S
C1074 C1075 1.502 . S
C1074 C1076 1.561 . S
C1074 C1077 1.526 . S
C1075 H1059 0.959 . S
C1075 H1060 0.959 . S
C1075 H1061 0.961 . S
C1075 C1074 1.502 . S
C1076 H1062 0.960 . S
C1076 H1063 0.961 . S
C1076 H1064 0.959 . S
C1076 C1074 1.561 . S
C1077 C1074 1.526 . S
C1077 C1078 1.396 . S
C1077 C1082 1.390 . S
C1078 C1072 1.465 . S
C1078 C1077 1.396 . S
C1078 C1079 1.399 . S
C1079 H1065 0.929 . S
C1079 C1078 1.399 . S
C1079 C1080 1.385 . S
C1080 H1066 0.931 . S
C1080 C1079 1.385 . S
C1080 C1081 1.389 . S
C1081 C1080 1.389 . S
C1081 C1082 1.387 . S
C1082 H1067 0.930 . S
C1082 C1077 1.390 . S
C1082 C1081 1.387 . S
H1083 C1095 0.930 . S
H1084 C1097 0.930 . S
H1085 C1098 0.930 . S
H1086 C1102 0.959 . S
H1087 C1102 0.959 . S
H1088 C1102 0.961 . S
H1089 C1103 0.960 . S
H1090 C1103 0.961 . S
H1091 C1103 0.959 1_655 S
H1092 C1106 0.929 . S
H1093 C1107 0.931 . S
H1094 C1109 0.930 . S
C1095 H1083 0.930 . S
C1095 C1096 1.399 . S
C1095 C1100 1.399 . S
C1096 C1095 1.399 . S
C1096 C1097 1.376 1_455 S
C1097 H1084 0.930 . S
C1097 C1096 1.376 1_655 S
C1097 C1098 1.388 . S
C1098 H1085 0.930 . S
C1098 C1097 1.388 . S
C1098 C1099 1.390 . S
C1099 C1098 1.390 . S
C1099 C1100 1.394 1_655 S
C1099 C1105 1.465 . S
C1100 C1095 1.399 . S
C1100 C1099 1.394 1_455 S
C1100 C1101 1.516 . S
C1101 C1100 1.516 . S
C1101 C1102 1.502 . S
C1101 C1103 1.561 . S
C1101 C1104 1.526 . S
C1102 H1086 0.959 . S
C1102 H1087 0.959 . S
C1102 H1088 0.961 . S
C1102 C1101 1.502 . S
C1103 H1089 0.960 . S
C1103 H1090 0.961 . S
C1103 H1091 0.959 1_455 S
C1103 C1101 1.561 . S
C1104 C1101 1.526 . S
C1104 C1105 1.396 1_455 S
C1104 C1109 1.390 . S
C1105 C1099 1.465 . S
C1105 C1104 1.396 1_655 S
C1105 C1106 1.399 . S
C1106 H1092 0.929 . S
C1106 C1105 1.399 . S
C1106 C1107 1.385 . S
C1107 H1093 0.931 . S
C1107 C1106 1.385 . S
C1107 C1108 1.389 . S
C1108 C1107 1.389 . S
C1108 C1109 1.387 1_655 S
C1109 H1094 0.930 . S
C1109 C1104 1.390 . S
C1109 C1108 1.387 1_455 S
H1110 C1122 0.930 . S
H1111 C1124 0.930 . S
H1112 C1125 0.930 . S
H1113 C1129 0.959 . S
H1114 C1129 0.959 . S
H1115 C1129 0.961 1_556 S
H1116 C1130 0.960 1_556 S
H1117 C1130 0.961 . S
H1118 C1130 0.959 . S
H1119 C1133 0.929 . S
H1120 C1134 0.931 . S
H1121 C1136 0.930 . S
C1122 H1110 0.930 . S
C1122 C1123 1.399 . S
C1122 C1127 1.399 . S
C1123 C1122 1.399 . S
C1123 C1124 1.376 1_545 S
C1124 H1111 0.930 . S
C1124 C1123 1.376 1_565 S
C1124 C1125 1.388 . S
C1125 H1112 0.930 . S
C1125 C1124 1.388 . S
C1125 C1126 1.390 . S
C1126 C1125 1.390 . S
C1126 C1127 1.394 1_565 S
C1126 C1132 1.465 1_556 S
C1127 C1122 1.399 . S
C1127 C1126 1.394 1_545 S
C1127 C1128 1.516 1_556 S
C1128 C1127 1.516 1_554 S
C1128 C1129 1.502 . S
C1128 C1130 1.561 . S
C1128 C1131 1.526 . S
C1129 H1113 0.959 . S
C1129 H1114 0.959 . S
C1129 H1115 0.961 1_554 S
C1129 C1128 1.502 . S
C1130 H1116 0.960 1_554 S
C1130 H1117 0.961 . S
C1130 H1118 0.959 . S
C1130 C1128 1.561 . S
C1131 C1128 1.526 . S
C1131 C1132 1.396 1_545 S
C1131 C1136 1.390 . S
C1132 C1126 1.465 1_554 S
C1132 C1131 1.396 1_565 S
C1132 C1133 1.399 . S
C1133 H1119 0.929 . S
C1133 C1132 1.399 . S
C1133 C1134 1.385 . S
C1134 H1120 0.931 . S
C1134 C1133 1.385 . S
C1134 C1135 1.389 . S
C1135 C1134 1.389 . S
C1135 C1136 1.387 1_565 S
C1136 H1121 0.930 . S
C1136 C1131 1.390 . S
C1136 C1135 1.387 1_545 S
H1137 C1149 0.930 . S
H1138 C1151 0.930 . S
H1139 C1152 0.930 . S
H1140 C1156 0.959 . S
H1141 C1156 0.959 . S
H1142 C1156 0.961 . S
H1143 C1157 0.960 . S
H1144 C1157 0.961 . S
H1145 C1157 0.959 . S
H1146 C1160 0.929 . S
H1147 C1161 0.931 . S
H1148 C1163 0.930 . S
C1149 H1137 0.930 . S
C1149 C1150 1.399 . S
C1149 C1154 1.399 . S
C1150 C1149 1.399 . S
C1150 C1151 1.376 . S
C1151 H1138 0.930 . S
C1151 C1150 1.376 . S
C1151 C1152 1.388 . S
C1152 H1139 0.930 . S
C1152 C1151 1.388 . S
C1152 C1153 1.390 . S
C1153 C1152 1.390 . S
C1153 C1154 1.394 . S
C1153 C1159 1.465 . S
C1154 C1149 1.399 . S
C1154 C1153 1.394 . S
C1154 C1155 1.516 . S
C1155 C1154 1.516 . S
C1155 C1156 1.502 . S
C1155 C1157 1.561 . S
C1155 C1158 1.526 . S
C1156 H1140 0.959 . S
C1156 H1141 0.959 . S
C1156 H1142 0.961 . S
C1156 C1155 1.502 . S
C1157 H1143 0.960 . S
C1157 H1144 0.961 . S
C1157 H1145 0.959 . S
C1157 C1155 1.561 . S
C1158 C1155 1.526 . S
C1158 C1159 1.396 . S
C1158 C1163 1.390 . S
C1159 C1153 1.465 . S
C1159 C1158 1.396 . S
C1159 C1160 1.399 . S
C1160 H1146 0.929 . S
C1160 C1159 1.399 . S
C1160 C1161 1.385 . S
C1161 H1147 0.931 . S
C1161 C1160 1.385 . S
C1161 C1162 1.389 . S
C1162 C1161 1.389 . S
C1162 C1163 1.387 . S
C1163 H1148 0.930 . S
C1163 C1158 1.390 . S
C1163 C1162 1.387 . S
H1164 C1176 0.930 . S
H1165 C1178 0.930 . S
H1166 C1179 0.930 . S
H1167 C1183 0.959 . S
H1168 C1183 0.959 . S
H1169 C1183 0.961 . S
H1170 C1184 0.960 . S
H1171 C1184 0.961 . S
H1172 C1184 0.959 1_455 S
H1173 C1187 0.929 . S
H1174 C1188 0.931 . S
H1175 C1190 0.930 . S
C1176 H1164 0.930 . S
C1176 C1177 1.399 . S
C1176 C1181 1.399 . S
C1177 C1176 1.399 . S
C1177 C1178 1.376 1_655 S
C1178 H1165 0.930 . S
C1178 C1177 1.376 1_455 S
C1178 C1179 1.388 . S
C1179 H1166 0.930 . S
C1179 C1178 1.388 . S
C1179 C1180 1.390 . S
C1180 C1179 1.390 . S
C1180 C1181 1.394 1_455 S
C1180 C1186 1.465 . S
C1181 C1176 1.399 . S
C1181 C1180 1.394 1_655 S
C1181 C1182 1.516 . S
C1182 C1181 1.516 . S
C1182 C1183 1.502 . S
C1182 C1184 1.561 . S
C1182 C1185 1.526 . S
C1183 H1167 0.959 . S
C1183 H1168 0.959 . S
C1183 H1169 0.961 . S
C1183 C1182 1.502 . S
C1184 H1170 0.960 . S
C1184 H1171 0.961 . S
C1184 H1172 0.959 1_655 S
C1184 C1182 1.561 . S
C1185 C1182 1.526 . S
C1185 C1186 1.396 1_655 S
C1185 C1190 1.390 . S
C1186 C1180 1.465 . S
C1186 C1185 1.396 1_455 S
C1186 C1187 1.399 . S
C1187 H1173 0.929 . S
C1187 C1186 1.399 . S
C1187 C1188 1.385 . S
C1188 H1174 0.931 . S
C1188 C1187 1.385 . S
C1188 C1189 1.389 . S
C1189 C1188 1.389 . S
C1189 C1190 1.387 1_455 S
C1190 H1175 0.930 . S
C1190 C1185 1.390 . S
C1190 C1189 1.387 1_655 S
H1191 C1203 0.930 . S
H1192 C1205 0.930 . S
H1193 C1206 0.930 . S
H1194 C1210 0.959 . S
H1195 C1210 0.959 . S
H1196 C1210 0.961 . S
H1197 C1211 0.960 . S
H1198 C1211 0.961 . S
H1199 C1211 0.959 . S
H1200 C1214 0.929 . S
H1201 C1215 0.931 . S
H1202 C1217 0.930 . S
C1203 H1191 0.930 . S
C1203 C1204 1.399 . S
C1203 C1208 1.399 . S
C1204 C1203 1.399 . S
C1204 C1205 1.376 1_545 S
C1205 H1192 0.930 . S
C1205 C1204 1.376 1_565 S
C1205 C1206 1.388 . S
C1206 H1193 0.930 . S
C1206 C1205 1.388 . S
C1206 C1207 1.390 . S
C1207 C1206 1.390 . S
C1207 C1208 1.394 1_565 S
C1207 C1213 1.465 . S
C1208 C1203 1.399 . S
C1208 C1207 1.394 1_545 S
C1208 C1209 1.516 . S
C1209 C1208 1.516 . S
C1209 C1210 1.502 . S
C1209 C1211 1.561 . S
C1209 C1212 1.526 . S
C1210 H1194 0.959 . S
C1210 H1195 0.959 . S
C1210 H1196 0.961 . S
C1210 C1209 1.502 . S
C1211 H1197 0.960 . S
C1211 H1198 0.961 . S
C1211 H1199 0.959 . S
C1211 C1209 1.561 . S
C1212 C1209 1.526 . S
C1212 C1213 1.396 1_545 S
C1212 C1217 1.390 . S
C1213 C1207 1.465 . S
C1213 C1212 1.396 1_565 S
C1213 C1214 1.399 . S
C1214 H1200 0.929 . S
C1214 C1213 1.399 . S
C1214 C1215 1.385 . S
C1215 H1201 0.931 . S
C1215 C1214 1.385 . S
C1215 C1216 1.389 . S
C1216 C1215 1.389 . S
C1216 C1217 1.387 1_565 S
C1217 H1202 0.930 . S
C1217 C1212 1.390 . S
C1217 C1216 1.387 1_545 S
C421 C292 0.928 . S
C433 C20 0.864 . S
C448 C54 0.871 . S
C460 C326 0.925 . S
C475 C88 0.919 . S
C487 C360 0.844 . S
C502 C122 0.896 . S
C514 C394 0.909 . S
C529 C156 0.888 . S
C541 C224 0.914 . S
C556 C190 0.912 . S
C568 C258 0.893 . S
C583 C9 1.603 . S
C595 C203 1.801 . S
C610 C33 1.765 . S
C622 C43 1.587 . S
C637 C77 1.631 . S
C649 C67 1.801 . S
C664 C101 1.782 . S
C676 C111 1.556 . S
C691 C135 1.787 . S
C703 C145 1.559 1_556 S
C718 C179 1.620 . S
C730 C169 1.766 . S
C745 C271 1.783 . S
C757 C213 1.556 . S
C772 C305 1.801 . S
C784 C247 1.600 . S
C799 C339 1.768 . S
C811 C281 1.572 . S
C826 C373 1.774 . S
C838 C315 1.655 1_554 S
C853 C407 1.770 . S
C865 C349 1.568 . S
C880 C383 1.657 . S
C892 C237 1.795 . S
C907 C2 1.098 . S
C919 C206 1.055 . S
C934 C36 1.117 . S
C946 C240 1.047 . S
C961 C70 1.051 . S
C973 C274 1.103 . S
C988 C104 1.116 . S
C1000 C308 1.047 . S
C1015 C342 1.125 . S
C1027 C138 1.046 . S
C1042 C172 1.083 . S
C1054 C376 1.140 . S
C1069 C311 1.263 . S
C1081 C5 1.323 . S
C1096 C39 1.311 . S
C1108 C345 1.254 . S
C1123 C73 1.323 . S
C1135 C379 1.264 . S
C1150 C107 1.258 . S
C1162 C209 1.320 . S
C1177 C141 1.310 . S
C1189 C243 1.254 . S
C1204 C277 1.324 . S
C1216 C175 1.268 . S
