# Generated by pormake.
# Topology sml, (6)-cn, num edge types: 1
# Building blocks:
#     Node 0, Type 0, BuildingBlock: BETGAK_clean_sbu_0, # of connection points: 6
#     Node 1, Type 0, BuildingBlock: BETGAK_clean_sbu_0, # of connection points: 6
#     Node 2, Type 0, BuildingBlock: BETGAK_clean_sbu_0, # of connection points: 6
#     Node 3, Type 0, BuildingBlock: BETGAK_clean_sbu_0, # of connection points: 6
#     Node 4, Type 0, BuildingBlock: BETGAK_clean_sbu_0, # of connection points: 6
#     Node 5, Type 0, BuildingBlock: BETGAK_clean_sbu_0, # of connection points: 6
#     Edge 6, Type (0, 0), BuildingBlock: MIFKUJ_clean_linker_0, # of connection points: 2
#     Edge 7, Type (0, 0), BuildingBlock: MIFKUJ_clean_linker_0, # of connection points: 2
#     Edge 8, Type (0, 0), BuildingBlock: MIFKUJ_clean_linker_0, # of connection points: 2
#     Edge 9, Type (0, 0), BuildingBlock: MIFKUJ_clean_linker_0, # of connection points: 2
#     Edge 10, Type (0, 0), BuildingBlock: MIFKUJ_clean_linker_0, # of connection points: 2
#     Edge 11, Type (0, 0), BuildingBlock: MIFKUJ_clean_linker_0, # of connection points: 2
#     Edge 12, Type (0, 0), BuildingBlock: MIFKUJ_clean_linker_0, # of connection points: 2
#     Edge 13, Type (0, 0), BuildingBlock: MIFKUJ_clean_linker_0, # of connection points: 2
#     Edge 14, Type (0, 0), BuildingBlock: MIFKUJ_clean_linker_0, # of connection points: 2
#     Edge 15, Type (0, 0), BuildingBlock: MIFKUJ_clean_linker_0, # of connection points: 2
#     Edge 16, Type (0, 0), BuildingBlock: MIFKUJ_clean_linker_0, # of connection points: 2
#     Edge 17, Type (0, 0), BuildingBlock: MIFKUJ_clean_linker_0, # of connection points: 2
#     Edge 18, Type (0, 0), BuildingBlock: MIFKUJ_clean_linker_0, # of connection points: 2
#     Edge 19, Type (0, 0), BuildingBlock: MIFKUJ_clean_linker_0, # of connection points: 2
#     Edge 20, Type (0, 0), BuildingBlock: MIFKUJ_clean_linker_0, # of connection points: 2
#     Edge 21, Type (0, 0), BuildingBlock: MIFKUJ_clean_linker_0, # of connection points: 2
#     Edge 22, Type (0, 0), BuildingBlock: MIFKUJ_clean_linker_0, # of connection points: 2
#     Edge 23, Type (0, 0), BuildingBlock: MIFKUJ_clean_linker_0, # of connection points: 2
# Relax obj value: 0.156
# Max RMSD: 0.198
# Mean RMSD: 0.198
data_MOF--net-sml--node1-BETGAK_clean_sbu_0--edge1-MIFKUJ_clean_linker_0
_symmetry_space_group_name_H-M    P1
_symmetry_Int_Tables_number       1
_symmetry_cell_setting            triclinic
loop_
_symmetry_equiv_pos_as_xyz
'x, y, z'
_cell_length_a     43.791635
_cell_length_b     43.712895
_cell_length_c     29.724057
_cell_angle_alpha  89.909056
_cell_angle_beta   90.130893
_cell_angle_gamma 119.99258
loop_
_atom_site_label
_atom_site_type_symbol
_atom_site_fract_x
_atom_site_fract_y
_atom_site_fract_z
_atom_type_partial_charge
La0 La 0.18824 0.42005 0.08657 0.0
La1 La 0.21128 0.40346 0.17559 0.0
C2 C 0.18515 0.44732 0.01296 0.0
C3 C 0.18804 0.44149 0.96457 0.0
C4 C 0.1678 0.44802 0.93357 0.0
C5 C 0.16986 0.44274 0.88752 0.0
C6 C 0.19241 0.43097 0.87142 0.0
C7 C 0.21273 0.42442 0.9026 0.0
C8 C 0.21041 0.42943 0.9488 0.0
C9 C 0.13703 0.3717 0.13601 0.0
C10 C 0.20089 0.35597 0.08872 0.0
C11 C 0.21793 0.37791 0.24881 0.0
C12 C 0.21519 0.38322 0.29737 0.0
C13 C 0.23648 0.37761 0.32767 0.0
C14 C 0.23485 0.38276 0.37384 0.0
C15 C 0.21173 0.39352 0.39079 0.0
C16 C 0.19032 0.39911 0.36028 0.0
C17 C 0.19218 0.39421 0.31395 0.0
C18 C 0.26172 0.45128 0.12452 0.0
C19 C 0.1951 0.46502 0.17531 0.0
O20 O 0.1575 0.42255 0.03374 0.0
O21 O 0.21386 0.45911 0.03722 0.0
O22 O 0.13668 0.3723 0.09241 0.0
O23 O 0.16387 0.39911 0.15002 0.0
O24 O 0.19914 0.3797 0.06286 0.0
O25 O 0.20336 0.35896 0.13316 0.0
O26 O 0.24415 0.40405 0.22765 0.0
O27 O 0.18872 0.36408 0.22525 0.0
O28 O 0.262 0.45261 0.16805 0.0
O29 O 0.23509 0.42336 0.11172 0.0
O30 O 0.19618 0.44047 0.20013 0.0
O31 O 0.19513 0.46393 0.13058 0.0
H32 H 0.15036 0.4573 0.945 0.0
H33 H 0.15416 0.4484 0.86442 0.0
H34 H 0.23005 0.41497 0.89134 0.0
H35 H 0.226 0.42378 0.97209 0.0
H36 H 0.25445 0.3692 0.31558 0.0
H37 H 0.25138 0.37782 0.39638 0.0
H38 H 0.1725 0.40776 0.37216 0.0
H39 H 0.17578 0.39912 0.29116 0.0
La40 La 0.79947 0.2406 0.49391 0.0
La41 La 0.77628 0.19309 0.41108 0.0
C42 C 0.80544 0.26784 0.57042 0.0
C43 C 0.80248 0.25841 0.61844 0.0
C44 C 0.82465 0.28434 0.64916 0.0
C45 C 0.82164 0.27719 0.69524 0.0
C46 C 0.79622 0.24388 0.71174 0.0
C47 C 0.77445 0.21755 0.68067 0.0
C48 C 0.77757 0.22474 0.63436 0.0
C49 C 0.84991 0.24884 0.43938 0.0
C50 C 0.7823 0.16016 0.50032 0.0
C51 C 0.77083 0.16595 0.33455 0.0
C52 C 0.77306 0.17507 0.28645 0.0
C53 C 0.75126 0.14863 0.25606 0.0
C54 C 0.75348 0.15558 0.20996 0.0
C55 C 0.7778 0.18919 0.19306 0.0
C56 C 0.79921 0.216 0.22382 0.0
C57 C 0.79686 0.209 0.27017 0.0
C58 C 0.72607 0.18685 0.46516 0.0
C59 C 0.79291 0.27335 0.40419 0.0
O60 O 0.83175 0.2686 0.54862 0.0
O61 O 0.77628 0.25371 0.54662 0.0
O62 O 0.85017 0.27433 0.46186 0.0
O63 O 0.82316 0.21998 0.44979 0.0
O64 O 0.78458 0.18808 0.52113 0.0
O65 O 0.78364 0.15849 0.45605 0.0
O66 O 0.7441 0.16389 0.35679 0.0
O67 O 0.80016 0.18135 0.35791 0.0
O68 O 0.72492 0.16037 0.44397 0.0
O69 O 0.75328 0.21485 0.45407 0.0
O70 O 0.78977 0.24503 0.38346 0.0
O71 O 0.79276 0.2757 0.44858 0.0
H72 H 0.84415 0.3104 0.63751 0.0
H73 H 0.83936 0.29785 0.71795 0.0
H74 H 0.75443 0.19169 0.69217 0.0
H75 H 0.76014 0.2043 0.61116 0.0
H76 H 0.73258 0.12236 0.26799 0.0
H77 H 0.73599 0.13452 0.18757 0.0
H78 H 0.81844 0.24209 0.21206 0.0
H79 H 0.81399 0.22986 0.29309 0.0
La80 La 0.56543 0.7583 0.75657 0.0
La81 La 0.58301 0.80408 0.84036 0.0
C82 C 0.54859 0.73149 0.67886 0.0
C83 C 0.56032 0.74031 0.63181 0.0
C84 C 0.55222 0.71281 0.60141 0.0
C85 C 0.5615 0.72007 0.55607 0.0
C86 C 0.57901 0.75506 0.54018 0.0
C87 C 0.58806 0.78271 0.57106 0.0
C88 C 0.57871 0.77539 0.61651 0.0
C89 C 0.60902 0.7541 0.81366 0.0
C90 C 0.62402 0.84098 0.75331 0.0
C91 C 0.59992 0.82911 0.91878 0.0
C92 C 0.59687 0.81696 0.96608 0.0
C93 C 0.57319 0.81972 0.9953 0.0
C94 C 0.57219 0.8116 0.04099 0.0
C95 C 0.59511 0.80082 0.05875 0.0
C96 C 0.61836 0.79737 0.02936 0.0
C97 C 0.61924 0.80534 0.98354 0.0
C98 C 0.53863 0.80773 0.78375 0.0
C99 C 0.52446 0.72231 0.84357 0.0
O100 O 0.56958 0.72701 0.70598 0.0
O101 O 0.53536 0.74932 0.69785 0.0
O102 O 0.58609 0.7278 0.7898 0.0
O103 O 0.6083 0.78163 0.80324 0.0
O104 O 0.60288 0.8114 0.73122 0.0
O105 O 0.62338 0.84339 0.79757 0.0
O106 O 0.5708 0.82305 0.89854 0.0
O107 O 0.6208 0.8242 0.89196 0.0
O108 O 0.56107 0.83402 0.80814 0.0
O109 O 0.53995 0.78047 0.79399 0.0
O110 O 0.54928 0.75012 0.86535 0.0
O111 O 0.52225 0.72162 0.79912 0.0
H112 H 0.53806 0.68557 0.61259 0.0
H113 H 0.55381 0.69817 0.53314 0.0
H114 H 0.60178 0.80994 0.5599 0.0
H115 H 0.58516 0.79701 0.63943 0.0
H116 H 0.55596 0.82904 0.98303 0.0
H117 H 0.55427 0.81498 0.06272 0.0
H118 H 0.63608 0.78873 0.04186 0.0
H119 H 0.63795 0.80304 0.96209 0.0
La120 La 0.76184 0.57266 0.15027 0.0
La121 La 0.80421 0.59013 0.06272 0.0
C122 C 0.72969 0.54447 0.2223 0.0
C123 C 0.73453 0.55199 0.27127 0.0
C124 C 0.72405 0.57415 0.29207 0.0
C125 C 0.72838 0.58027 0.33854 0.0
C126 C 0.74333 0.56443 0.36511 0.0
C127 C 0.75346 0.54205 0.34429 0.0
C128 C 0.74895 0.53578 0.29805 0.0
C129 C 0.77152 0.62985 0.10751 0.0
C130 C 0.84226 0.62963 0.15051 0.0
C131 C 0.82836 0.60621 0.98409 0.0
C132 C 0.81621 0.60205 0.93682 0.0
C133 C 0.82504 0.58269 0.90726 0.0
C134 C 0.81618 0.57998 0.86174 0.0
C135 C 0.79846 0.59683 0.84446 0.0
C136 C 0.78889 0.61563 0.87425 0.0
C137 C 0.79776 0.6183 0.92 0.0
C138 C 0.81053 0.54687 0.11873 0.0
C139 C 0.72208 0.53326 0.06081 0.0
O140 O 0.72203 0.56424 0.1967 0.0
O141 O 0.75274 0.53784 0.20338 0.0
O142 O 0.76936 0.62629 0.15098 0.0
O143 O 0.76621 0.60136 0.09034 0.0
O144 O 0.81613 0.60398 0.17356 0.0
O145 O 0.84031 0.63312 0.10649 0.0
O146 O 0.82246 0.57726 1.00476 0.0
O147 O 0.82342 0.6275 1.01038 0.0
O148 O 0.8363 0.56998 0.09443 0.0
O149 O 0.7832 0.5481 0.10982 0.0
O150 O 0.7518 0.55176 0.03797 0.0
O151 O 0.71996 0.53693 0.10478 0.0
H152 H 0.71251 0.58675 0.27252 0.0
H153 H 0.72043 0.59775 0.3536 0.0
H154 H 0.76442 0.5289 0.36389 0.0
H155 H 0.7567 0.51803 0.28327 0.0
H156 H 0.83933 0.56997 0.91929 0.0
H157 H 0.82341 0.56477 0.83999 0.0
H158 H 0.77547 0.62915 0.86198 0.0
H159 H 0.79074 0.6336 0.94187 0.0
La160 La 0.25417 0.81819 0.38794 0.0
La161 La 0.20659 0.80265 0.47039 0.0
C162 C 0.28141 0.82021 0.31219 0.0
C163 C 0.273 0.81569 0.26369 0.0
C164 C 0.30056 0.82537 0.23296 0.0
C165 C 0.2942 0.82333 0.18664 0.0
C166 C 0.26003 0.81156 0.16986 0.0
C167 C 0.23221 0.80121 0.20087 0.0
C168 C 0.23867 0.80336 0.24741 0.0
C169 C 0.26486 0.87296 0.43589 0.0
C170 C 0.17486 0.80317 0.37822 0.0
C171 C 0.18301 0.80604 0.5467 0.0
C172 C 0.19155 0.80558 0.59482 0.0
C173 C 0.16411 0.79194 0.62633 0.0
C174 C 0.17115 0.79158 0.67221 0.0
C175 C 0.2059 0.80476 0.68781 0.0
C176 C 0.23346 0.81842 0.65601 0.0
C177 C 0.22636 0.81887 0.60999 0.0
C178 C 0.19775 0.74735 0.42447 0.0
C179 C 0.28422 0.81229 0.48071 0.0
O180 O 0.28229 0.84753 0.33144 0.0
O181 O 0.26625 0.79202 0.33768 0.0
O182 O 0.28955 0.87017 0.41581 0.0
O183 O 0.23532 0.84649 0.42686 0.0
O184 O 0.2016 0.80144 0.36007 0.0
O185 O 0.17396 0.80978 0.42144 0.0
O186 O 0.1721 0.7766 0.52433 0.0
O187 O 0.20497 0.83371 0.52315 0.0
O188 O 0.1724 0.74851 0.44555 0.0
O189 O 0.22634 0.77506 0.43242 0.0
O190 O 0.25637 0.81141 0.49959 0.0
O191 O 0.28767 0.81143 0.43647 0.0
H192 H 0.32723 0.8349 0.24484 0.0
H193 H 0.31614 0.83091 0.16393 0.0
H194 H 0.20562 0.79226 0.18919 0.0
H195 H 0.21702 0.79587 0.27059 0.0
H196 H 0.1371 0.78177 0.61545 0.0
H197 H 0.14928 0.78146 0.69555 0.0
H198 H 0.26049 0.82846 0.66659 0.0
H199 H 0.24805 0.82965 0.58635 0.0
La200 La 0.42394 0.18041 0.84041 0.0
La201 La 0.39972 0.20263 0.75637 0.0
C202 C 0.44471 0.17461 0.91757 0.0
C203 C 0.43596 0.17535 0.96518 0.0
C204 C 0.44379 0.15627 0.9965 0.0
C205 C 0.43593 0.15634 0.04199 0.0
C206 C 0.42007 0.17556 0.05705 0.0
C207 C 0.41173 0.19429 0.02546 0.0
C208 C 0.41972 0.19427 0.97983 0.0
C209 C 0.38379 0.12918 0.7851 0.0
C210 C 0.35933 0.1954 0.84467 0.0
C211 C 0.37827 0.20765 0.67929 0.0
C212 C 0.38406 0.20395 0.63127 0.0
C213 C 0.38009 0.22584 0.60024 0.0
C214 C 0.38427 0.22267 0.55426 0.0
C215 C 0.39259 0.19746 0.53817 0.0
C216 C 0.39667 0.17548 0.56945 0.0
C217 C 0.39253 0.17875 0.61569 0.0
C218 C 0.44181 0.25393 0.81108 0.0
C219 C 0.46481 0.18884 0.75171 0.0
O220 O 0.42123 0.14787 0.89405 0.0
O221 O 0.45806 0.20439 0.8952 0.0
O222 O 0.40876 0.12981 0.80919 0.0
O223 O 0.38051 0.15549 0.79468 0.0
O224 O 0.3845 0.1929 0.86635 0.0
O225 O 0.3573 0.19498 0.80031 0.0
O226 O 0.404 0.23422 0.70064 0.0
O227 O 0.36346 0.17883 0.70365 0.0
O228 O 0.4168 0.2541 0.78784 0.0
O229 O 0.44374 0.22703 0.80108 0.0
O230 O 0.43911 0.19042 0.73011 0.0
O231 O 0.46691 0.18914 0.79618 0.0
H232 H 0.45627 0.14146 0.98578 0.0
H233 H 0.44296 0.14194 0.06558 0.0
H234 H 0.39926 0.2091 0.03611 0.0
H235 H 0.41354 0.20923 0.95614 0.0
H236 H 0.37336 0.24529 0.61158 0.0
H237 H 0.38031 0.23959 0.53121 0.0
H238 H 0.40335 0.15599 0.55824 0.0
H239 H 0.39578 0.16158 0.63914 0.0
H240 H 0.35471 0.19876 0.93625 0.0
H241 H 0.31905 0.21742 0.97832 0.0
H242 H 0.27206 0.22579 0.85459 0.0
H243 H 0.30801 0.20773 0.8121 0.0
H244 H 0.29706 0.28501 0.9052 0.0
H245 H 0.22426 0.15956 0.92929 0.0
H246 H 0.21274 0.10044 0.95202 0.0
H247 H 0.24866 0.13829 0.08591 0.0
H248 H 0.26078 0.19776 0.06384 0.0
H249 H 0.18227 0.3311 1.00324 0.0
H250 H 0.1986 0.29273 0.96299 0.0
H251 H 0.24639 0.28064 0.0838 0.0
H252 H 0.22906 0.318 0.1247 0.0
H253 H 0.21819 0.22109 0.03345 0.0
H254 H 0.29401 0.3456 1.01133 0.0
H255 H 0.30483 0.40519 0.99273 0.0
H256 H 0.26751 0.37141 0.85816 0.0
H257 H 0.25524 0.31117 0.87643 0.0
C258 C 0.33653 0.20415 0.91796 0.0
C259 C 0.33446 0.20199 0.87074 0.0
C260 C 0.31601 0.21466 0.94212 0.0
C261 C 0.29285 0.22289 0.91954 0.0
C262 C 0.28984 0.21961 0.8726 0.0
C263 C 0.31034 0.20913 0.84842 0.0
C264 C 0.27348 0.23713 0.94453 0.0
C265 C 0.27931 0.27074 0.93269 0.0
C266 C 0.25127 0.219 0.98135 0.0
C267 C 0.24365 0.18317 0.99481 0.0
C268 C 0.2299 0.15533 0.9635 0.0
C269 C 0.22322 0.12174 0.97629 0.0
C270 C 0.23002 0.11563 0.02036 0.0
C271 C 0.24341 0.14306 0.05178 0.0
C272 C 0.25013 0.1767 0.03917 0.0
C273 C 0.19556 0.31962 0.02147 0.0
C274 C 0.20499 0.32803 0.06685 0.0
C275 C 0.20483 0.2977 0.99847 0.0
C276 C 0.22446 0.28462 0.02019 0.0
C277 C 0.2314 0.29063 0.0664 0.0
C278 C 0.2216 0.31211 0.08966 0.0
C279 C 0.24148 0.26866 0.99371 0.0
C280 C 0.23558 0.23506 1.00555 0.0
C281 C 0.26412 0.28703 0.95728 0.0
C282 C 0.27337 0.32374 0.94539 0.0
C283 C 0.28797 0.35081 0.9778 0.0
C284 C 0.29426 0.38467 0.96737 0.0
C285 C 0.28687 0.39207 0.92429 0.0
C286 C 0.2732 0.36561 0.89153 0.0
C287 C 0.26648 0.33156 0.90194 0.0
H288 H 0.2918 0.41833 0.91629 0.0
H289 H 0.22485 0.08961 0.03017 0.0
H290 H 0.06986 0.3274 0.10706 0.0
H291 H 0.0163 0.30042 0.15293 0.0
H292 H 0.07975 0.34036 0.27306 0.0
H293 H 0.13282 0.36956 0.22717 0.0
H294 H 0.98623 0.25443 0.21635 0.0
H295 H 0.0442 0.3683 0.34721 0.0
H296 H 0.08853 0.43175 0.35082 0.0
H297 H 0.07622 0.44205 0.20924 0.0
H298 H 0.03149 0.37873 0.20485 0.0
H299 H 0.87803 0.20879 0.41195 0.0
H300 H 0.92189 0.22347 0.35239 0.0
H301 H 0.91335 0.3149 0.31724 0.0
H302 H 0.8719 0.30169 0.37888 0.0
H303 H 0.97645 0.3353 0.32461 0.0
H304 H 0.88436 0.2373 0.24579 0.0
H305 H 0.8365 0.17598 0.23333 0.0
H306 H 0.90844 0.13799 0.25697 0.0
H307 H 0.95678 0.19894 0.26964 0.0
C308 C 0.0723 0.33009 0.14331 0.0
C309 C 0.10543 0.35074 0.16365 0.0
C310 C 0.04171 0.31454 0.16948 0.0
C311 C 0.04393 0.31905 0.21637 0.0
C312 C 0.07729 0.33731 0.23685 0.0
C313 C 0.1077 0.35365 0.21066 0.0
C314 C 0.01157 0.30714 0.2436 0.0
C315 C 0.98393 0.27205 0.23999 0.0
C316 C 0.00809 0.33047 0.27333 0.0
C317 C 0.03466 0.36871 0.2757 0.0
C318 C 0.05082 0.38413 0.3169 0.0
C319 C 0.07604 0.42005 0.31906 0.0
C320 C 0.08517 0.44086 0.28028 0.0
C321 C 0.06913 0.42584 0.23923 0.0
C322 C 0.04386 0.38994 0.23688 0.0
C323 C 0.88543 0.23176 0.39103 0.0
C324 C 0.87229 0.25449 0.40012 0.0
C325 C 0.91017 0.23999 0.35672 0.0
C326 C 0.92102 0.27034 0.33006 0.0
C327 C 0.90586 0.29163 0.33758 0.0
C328 C 0.88217 0.28409 0.37274 0.0
C329 C 0.95082 0.28227 0.29794 0.0
C330 C 0.97826 0.31753 0.30075 0.0
C331 C 0.9533 0.25943 0.26627 0.0
C332 C 0.92416 0.2227 0.25902 0.0
C333 C 0.88994 0.21586 0.24866 0.0
C334 C 0.86273 0.18119 0.24149 0.0
C335 C 0.86939 0.15316 0.24459 0.0
C336 C 0.90331 0.15973 0.25465 0.0
C337 C 0.93065 0.19433 0.26169 0.0
H338 H 0.84826 0.12637 0.23905 0.0
H339 H 0.10456 0.46865 0.28212 0.0
H340 H 0.77597 0.0983 0.46965 0.0
H341 H 0.75688 0.04385 0.51195 0.0
H342 H 0.7525 0.09551 0.63325 0.0
H343 H 0.77186 0.15033 0.59132 0.0
H344 H 0.77949 0.05059 0.64772 0.0
H345 H 0.67955 0.04763 0.57359 0.0
H346 H 0.6467 0.05103 0.50812 0.0
H347 H 0.64993 0.96391 0.44643 0.0
H348 H 0.68338 0.9604 0.51123 0.0
H349 H 0.65804 0.9092 0.78276 0.0
H350 H 0.6925 0.96251 0.73844 0.0
H351 H 0.67895 0.89906 0.6209 0.0
H352 H 0.64357 0.84542 0.66495 0.0
H353 H 0.66509 0.94847 0.60048 0.0
H354 H 0.76035 0.94728 0.67622 0.0
H355 H 0.79385 0.94348 0.74064 0.0
H356 H 0.80072 0.03684 0.7979 0.0
H357 H 0.76681 0.04094 0.73412 0.0
C358 C 0.77142 0.09832 0.50545 0.0
C359 C 0.77512 0.12864 0.527 0.0
C360 C 0.76045 0.06711 0.52953 0.0
C361 C 0.75279 0.06554 0.57554 0.0
C362 C 0.75821 0.09619 0.5977 0.0
C363 C 0.7692 0.12748 0.57363 0.0
C364 C 0.73691 0.03142 0.5999 0.0
C365 C 0.75436 0.02828 0.63771 0.0
C366 C 0.70464 0.00207 0.58588 0.0
C367 C 0.68432 0.00402 0.54703 0.0
C368 C 0.67352 0.02939 0.5459 0.0
C369 C 0.65476 0.03132 0.50893 0.0
C370 C 0.64632 0.00777 0.47308 0.0
C371 C 0.65656 0.98219 0.47418 0.0
C372 C 0.67542 0.98022 0.51102 0.0
C373 C 0.66279 0.90649 0.74764 0.0
C374 C 0.64793 0.87303 0.72735 0.0
C375 C 0.6827 0.93708 0.72234 0.0
C376 C 0.68873 0.93488 0.67639 0.0
C377 C 0.67467 0.90144 0.65629 0.0
C378 C 0.65442 0.87079 0.68151 0.0
C379 C 0.70747 0.96749 0.64882 0.0
C380 C 0.69048 0.97047 0.61035 0.0
C381 C 0.74028 0.99655 0.6621 0.0
C382 C 0.76079 0.99425 0.70051 0.0
C383 C 0.76877 0.96686 0.7027 0.0
C384 C 0.78788 0.96467 0.73909 0.0
C385 C 0.79935 0.98986 0.77338 0.0
C386 C 0.7918 0.01734 0.77132 0.0
C387 C 0.77267 0.01963 0.73502 0.0
H388 H 0.81413 0.98812 0.80153 0.0
H389 H 0.63177 0.00928 0.4445 0.0
H390 H 0.66871 0.80667 0.85329 0.0
H391 H 0.70421 0.7999 0.91262 0.0
H392 H 0.63098 0.68774 0.91609 0.0
H393 H 0.59583 0.69433 0.85698 0.0
H394 H 0.65228 0.71819 1.00222 0.0
H395 H 0.70234 0.71621 0.85587 0.0
H396 H 0.72971 0.74234 0.78285 0.0
H397 H 0.81456 0.83069 0.85078 0.0
H398 H 0.78741 0.80522 0.92422 0.0
H399 H 0.76328 0.63178 0.01757 0.0
H400 H 0.74523 0.66815 0.97614 0.0
H401 H 0.74894 0.72296 0.0985 0.0
H402 H 0.7669 0.68603 0.1405 0.0
H403 H 0.76952 0.73624 0.95883 0.0
H404 H 0.67882 0.73867 0.09337 0.0
H405 H 0.64871 0.70803 0.16331 0.0
H406 H 0.64119 0.61202 0.1147 0.0
H407 H 0.67117 0.64211 0.04443 0.0
C408 C 0.66014 0.7807 0.86717 0.0
C409 C 0.62974 0.75097 0.85058 0.0
C410 C 0.68037 0.77688 0.90092 0.0
C411 C 0.67015 0.74332 0.91868 0.0
C412 C 0.63918 0.71388 0.903 0.0
C413 C 0.6193 0.71762 0.86902 0.0
C414 C 0.69257 0.73786 0.9513 0.0
C415 C 0.67822 0.72274 0.99316 0.0
C416 C 0.72637 0.74383 0.93946 0.0
C417 C 0.74264 0.75908 0.89541 0.0
C418 C 0.72667 0.74136 0.85518 0.0
C419 C 0.74217 0.75601 0.81375 0.0
C420 C 0.77379 0.78822 0.81217 0.0
C421 C 0.79003 0.80579 0.85205 0.0
C422 C 0.7746 0.79126 0.89357 0.0
C423 C 0.76111 0.65214 0.03554 0.0
C424 C 0.76633 0.65598 0.08226 0.0
C425 C 0.75079 0.67297 1.01178 0.0
C426 C 0.74533 0.69804 0.03425 0.0
C427 C 0.75261 0.70349 0.08057 0.0
C428 C 0.76296 0.6825 0.10448 0.0
C429 C 0.72879 0.7155 1.00932 0.0
C430 C 0.74421 0.73291 0.9688 0.0
C431 C 0.69574 0.71123 0.02217 0.0
C432 C 0.67761 0.69275 0.06404 0.0
C433 C 0.67072 0.71102 0.09768 0.0
C434 C 0.65369 0.69376 0.13734 0.0
C435 C 0.6431 0.65812 0.1435 0.0
C436 C 0.64951 0.63965 0.10996 0.0
C437 C 0.66658 0.65681 0.07025 0.0
H438 H 0.62987 0.6448 0.17421 0.0
H439 H 0.78576 0.79952 0.78006 0.0
H440 H 0.12761 0.82664 0.38478 0.0
H441 H 0.07265 0.8054 0.34225 0.0
H442 H 0.09492 0.73332 0.26947 0.0
H443 H 0.15071 0.75628 0.30946 0.0
H444 H 0.06534 0.75295 0.21532 0.0
H445 H 0.03744 0.71018 0.36743 0.0
H446 H 0.03728 0.71489 0.45012 0.0
H447 H 0.9855 0.77604 0.43944 0.0
H448 H 0.98574 0.77203 0.35662 0.0
H449 H 0.86469 0.6175 0.23053 0.0
H450 H 0.92184 0.65322 0.26653 0.0
H451 H 0.95242 0.73109 0.16103 0.0
H452 H 0.89561 0.69448 0.12369 0.0
H453 H 0.95558 0.71323 0.30293 0.0
H454 H 0.03918 0.77066 0.1416 0.0
H455 H 0.03796 0.75445 0.06178 0.0
H456 H 0.97698 0.64453 0.09607 0.0
H457 H 0.97782 0.66004 0.17599 0.0
C458 C 0.12089 0.80667 0.35915 0.0
C459 C 0.14331 0.79307 0.35039 0.0
C460 C 0.08936 0.79431 0.33509 0.0
C461 C 0.07903 0.76707 0.30324 0.0
C462 C 0.10211 0.75435 0.29366 0.0
C463 C 0.13405 0.76747 0.31664 0.0
C464 C 0.04369 0.75049 0.28122 0.0
C465 C 0.0414 0.74446 0.23457 0.0
C466 C 0.01217 0.73871 0.30613 0.0
C467 C 0.01199 0.74116 0.35587 0.0
C468 C 0.02624 0.72482 0.38273 0.0
C469 C 0.0261 0.72735 0.42961 0.0
C470 C 0.01149 0.74585 0.45001 0.0
C471 C 0.99688 0.76179 0.42358 0.0
C472 C 0.997 0.75939 0.37668 0.0
C473 C 0.88346 0.64236 0.21511 0.0
C474 C 0.87572 0.65309 0.17411 0.0
C475 C 0.91617 0.66283 0.23581 0.0
C476 C 0.94176 0.69471 0.21629 0.0
C477 C 0.9335 0.70623 0.17628 0.0
C478 C 0.90095 0.68539 0.15507 0.0
C479 C 0.97728 0.71506 0.23735 0.0
C480 C 0.97958 0.72205 0.2837 0.0
C481 C 0.0087 0.72609 0.21259 0.0
C482 C 0.00824 0.71656 0.16464 0.0
C483 C 0.02557 0.74305 0.13207 0.0
C484 C 0.02496 0.73398 0.08684 0.0
C485 C 0.00743 0.69851 0.07388 0.0
C486 C 0.99046 0.672 0.10612 0.0
C487 C 0.99091 0.68091 0.15136 0.0
H488 H 0.00703 0.69157 0.03886 0.0
H489 H 0.0114 0.74777 0.48631 0.0
H490 H 0.32271 0.1133 0.74044 0.0
H491 H 0.29668 0.07294 0.67605 0.0
H492 H 0.38253 0.05113 0.67982 0.0
H493 H 0.40855 0.09139 0.74313 0.0
H494 H 0.36891 0.06282 0.59537 0.0
H495 H 0.30293 0.99379 0.72475 0.0
H496 H 0.26454 0.98075 0.79101 0.0
H497 H 0.184 0.9802 0.70774 0.0
H498 H 0.22214 0.99365 0.64103 0.0
H499 H 0.32227 0.90482 0.48913 0.0
H500 H 0.3362 0.95039 0.54547 0.0
H501 H 0.23771 0.94688 0.51755 0.0
H502 H 0.22282 0.89949 0.46227 0.0
H503 H 0.25168 0.95418 0.60581 0.0
H504 H 0.31864 0.01561 0.47317 0.0
H505 H 0.35856 0.02414 0.40981 0.0
H506 H 0.43917 0.03635 0.50267 0.0
H507 H 0.39954 0.02733 0.56633 0.0
C508 C 0.336 0.10001 0.72712 0.0
C509 C 0.36757 0.10538 0.74652 0.0
C510 C 0.32108 0.07689 0.69065 0.0
C511 C 0.33762 0.05894 0.67335 0.0
C512 C 0.36935 0.06473 0.69258 0.0
C513 C 0.38407 0.08756 0.72893 0.0
C514 C 0.32221 0.03367 0.63557 0.0
C515 C 0.34322 0.03912 0.59757 0.0
C516 C 0.28839 0.00316 0.63803 0.0
C517 C 0.26554 0.99521 0.67807 0.0
C518 C 0.27716 0.99122 0.72066 0.0
C519 C 0.25543 0.98368 0.75827 0.0
C520 C 0.2219 0.97979 0.75362 0.0
C521 C 0.21001 0.98332 0.71131 0.0
C522 C 0.23166 0.99089 0.6736 0.0
C523 C 0.30358 0.91376 0.49504 0.0
C524 C 0.27176 0.8992 0.47106 0.0
C525 C 0.31162 0.93993 0.52704 0.0
C526 C 0.28858 0.95298 0.53459 0.0
C527 C 0.25609 0.93755 0.51177 0.0
C528 C 0.24763 0.91063 0.48028 0.0
C529 C 0.29892 0.98279 0.56627 0.0
C530 C 0.27694 0.97832 0.60297 0.0
C531 C 0.33207 0.01415 0.56291 0.0
C532 C 0.3562 0.02088 0.52449 0.0
C533 C 0.3449 0.02016 0.48 0.0
C534 C 0.36743 0.02498 0.44405 0.0
C535 C 0.4013 0.0306 0.45225 0.0
C536 C 0.41292 0.03195 0.49637 0.0
C537 C 0.3905 0.02711 0.53237 0.0
H538 H 0.41852 0.03372 0.42449 0.0
H539 H 0.20511 0.97393 0.78277 0.0
H540 H 0.25171 0.45095 0.82068 0.0
H541 H 0.25529 0.44454 0.73925 0.0
H542 H 0.14202 0.39322 0.72946 0.0
H543 H 0.13823 0.39928 0.81082 0.0
H544 H 0.16903 0.35933 0.67928 0.0
H545 H 0.19043 0.47734 0.69925 0.0
H546 H 0.21994 0.53754 0.73085 0.0
H547 H 0.31866 0.55721 0.6756 0.0
H548 H 0.28982 0.49689 0.64421 0.0
H549 H 0.1529 0.37243 0.44291 0.0
H550 H 0.15016 0.379 0.5244 0.0
H551 H 0.26364 0.43222 0.53189 0.0
H552 H 0.26658 0.42619 0.45038 0.0
H553 H 0.23712 0.46516 0.58338 0.0
H554 H 0.21609 0.34758 0.56313 0.0
H555 H 0.18695 0.28738 0.53158 0.0
H556 H 0.08812 0.2668 0.58747 0.0
H557 H 0.11659 0.32711 0.61882 0.0
C558 C 0.22755 0.43802 0.80124 0.0
C559 C 0.19469 0.42581 0.82223 0.0
C560 C 0.22965 0.43459 0.75465 0.0
C561 C 0.19894 0.41871 0.72813 0.0
C562 C 0.16607 0.40568 0.74917 0.0
C563 C 0.16397 0.40937 0.79564 0.0
C564 C 0.20102 0.41603 0.6784 0.0
C565 C 0.18356 0.3825 0.65826 0.0
C566 C 0.22061 0.44619 0.651 0.0
C567 C 0.23804 0.48246 0.66982 0.0
C568 C 0.2185 0.49439 0.69419 0.0
C569 C 0.23509 0.52855 0.71199 0.0
C570 C 0.27118 0.55115 0.70535 0.0
C571 C 0.29072 0.53965 0.68079 0.0
C572 C 0.27426 0.50548 0.66296 0.0
C573 C 0.17728 0.38584 0.46184 0.0
C574 C 0.20996 0.39862 0.44012 0.0
C575 C 0.17567 0.38933 0.50848 0.0
C576 C 0.20669 0.40576 0.53441 0.0
C577 C 0.23936 0.41933 0.51267 0.0
C578 C 0.24098 0.41563 0.4661 0.0
C579 C 0.20506 0.40845 0.58422 0.0
C580 C 0.22262 0.44197 0.60439 0.0
C581 C 0.18561 0.37828 0.61167 0.0
C582 C 0.1684 0.34199 0.59291 0.0
C583 C 0.18808 0.33033 0.56836 0.0
C584 C 0.1717 0.29617 0.55057 0.0
C585 C 0.13568 0.27331 0.5574 0.0
C586 C 0.116 0.28455 0.58214 0.0
C587 C 0.13225 0.31872 0.59995 0.0
H588 H 0.12305 0.24686 0.54362 0.0
H589 H 0.28397 0.5776 0.71914 0.0
H590 H 0.774 0.1444 0.12605 0.0
H591 H 0.77622 0.15361 0.04503 0.0
H592 H 0.79263 0.25841 0.06603 0.0
H593 H 0.7886 0.24868 0.14748 0.0
H594 H 0.74603 0.22637 1.00074 0.0
H595 H 0.86067 0.24345 0.03468 0.0
H596 H 0.903 0.22777 0.06687 0.0
H597 H 0.86035 0.13527 0.98351 0.0
H598 H 0.81741 0.15012 0.95127 0.0
H599 H 0.80011 0.28874 0.77862 0.0
H600 H 0.79695 0.27917 0.85968 0.0
H601 H 0.77914 0.17388 0.83857 0.0
H602 H 0.78381 0.18383 0.75714 0.0
H603 H 0.82634 0.20612 0.90385 0.0
H604 H 0.7118 0.18924 0.86977 0.0
H605 H 0.66947 0.20496 0.83771 0.0
H606 H 0.71211 0.29732 0.92132 0.0
H607 H 0.75505 0.28242 0.95344 0.0
C608 C 0.77772 0.16933 0.11359 0.0
C609 C 0.78092 0.19573 0.14352 0.0
C610 C 0.77944 0.17472 0.0671 0.0
C611 C 0.78505 0.20688 0.04926 0.0
C612 C 0.78839 0.23339 0.07895 0.0
C613 C 0.78643 0.22792 0.12557 0.0
C614 C 0.78681 0.21252 0.99965 0.0
C615 C 0.76398 0.22245 0.97965 0.0
C616 C 0.80956 0.20653 0.97184 0.0
C617 C 0.83562 0.19775 0.99084 0.0
C618 C 0.86017 0.21964 0.02342 0.0
C619 C 0.88429 0.21092 0.04165 0.0
C620 C 0.88431 0.1805 0.02732 0.0
C621 C 0.86028 0.1588 0.99461 0.0
C622 C 0.83607 0.16738 0.97632 0.0
C623 C 0.79579 0.2636 0.79111 0.0
C624 C 0.79241 0.23712 0.7612 0.0
C625 C 0.79357 0.25802 0.83758 0.0
C626 C 0.78741 0.22565 0.85537 0.0
C627 C 0.78381 0.19905 0.82568 0.0
C628 C 0.78617 0.20467 0.77908 0.0
C629 C 0.78557 0.21997 0.90496 0.0
C630 C 0.8084 0.21003 0.92495 0.0
C631 C 0.76284 0.22599 0.93275 0.0
C632 C 0.73685 0.23486 0.91372 0.0
C633 C 0.71232 0.21303 0.88109 0.0
C634 C 0.68819 0.22178 0.86294 0.0
C635 C 0.68815 0.25216 0.87739 0.0
C636 C 0.71219 0.27381 0.91012 0.0
C637 C 0.73641 0.26521 0.92835 0.0
H638 H 0.66945 0.25889 0.86329 0.0
H639 H 0.903 0.17378 0.04149 0.0
H640 H 0.60495 0.72585 0.48085 0.0
H641 H 0.61187 0.7347 0.39937 0.0
H642 H 0.57341 0.80818 0.40698 0.0
H643 H 0.56696 0.79979 0.48849 0.0
H644 H 0.56522 0.72035 0.33599 0.0
H645 H 0.60778 0.86842 0.32346 0.0
H646 H 0.64025 0.92286 0.36843 0.0
H647 H 0.69917 0.88061 0.43256 0.0
H648 H 0.66738 0.82612 0.38761 0.0
H649 H 0.53878 0.76643 0.11577 0.0
H650 H 0.53988 0.75935 0.19732 0.0
H651 H 0.65353 0.81403 0.19495 0.0
H652 H 0.65266 0.82181 0.11344 0.0
H653 H 0.629 0.83798 0.26274 0.0
H654 H 0.60824 0.72629 0.20751 0.0
H655 H 0.5779 0.67148 0.16283 0.0
H656 H 0.48172 0.64058 0.23433 0.0
H657 H 0.51129 0.69547 0.27892 0.0
C658 C 0.5982 0.74406 0.46515 0.0
C659 C 0.58561 0.76227 0.49117 0.0
C660 C 0.60212 0.74908 0.41856 0.0
C661 C 0.59346 0.77234 0.3969 0.0
C662 C 0.58099 0.79065 0.42288 0.0
C663 C 0.57735 0.78587 0.46954 0.0
C664 C 0.59639 0.7765 0.34703 0.0
C665 C 0.57925 0.7461 0.32006 0.0
C666 C 0.61501 0.81003 0.326 0.0
C667 C 0.63496 0.84307 0.3524 0.0
C668 C 0.62781 0.87084 0.34697 0.0
C669 C 0.64605 0.90168 0.37251 0.0
C670 C 0.67168 0.90515 0.40343 0.0
C671 C 0.67923 0.87784 0.40872 0.0
C672 C 0.66108 0.84696 0.38325 0.0
C673 C 0.56402 0.77701 0.13259 0.0
C674 C 0.59563 0.79466 0.10802 0.0
C675 C 0.5646 0.77275 0.17919 0.0
C676 C 0.59679 0.78602 0.20227 0.0
C677 C 0.62839 0.80357 0.17787 0.0
C678 C 0.62783 0.80769 0.13121 0.0
C679 C 0.59742 0.78188 0.25192 0.0
C680 C 0.61512 0.81226 0.27878 0.0
C681 C 0.57971 0.74832 0.27287 0.0
C682 C 0.56193 0.71515 0.24631 0.0
C683 C 0.58056 0.70793 0.21348 0.0
C684 C 0.56352 0.67684 0.18822 0.0
C685 C 0.52792 0.65261 0.19571 0.0
C686 C 0.50929 0.65939 0.22855 0.0
C687 C 0.52618 0.69047 0.25385 0.0
H688 H 0.51478 0.62855 0.17611 0.0
H689 H 0.68572 0.92901 0.42324 0.0
H690 H 0.84205 0.60283 0.7752 0.0
H691 H 0.83025 0.59956 0.69469 0.0
H692 H 0.72745 0.58618 0.72113 0.0
H693 H 0.73864 0.58818 0.80229 0.0
H694 H 0.72426 0.54071 0.65715 0.0
H695 H 0.79461 0.66509 0.68331 0.0
H696 H 0.84568 0.7197 0.71185 0.0
H697 H 0.91505 0.70149 0.62863 0.0
H698 H 0.86444 0.64649 0.60005 0.0
H699 H 0.69693 0.56556 0.426 0.0
H700 H 0.70446 0.5738 0.50765 0.0
H701 H 0.80794 0.58534 0.49732 0.0
H702 H 0.80084 0.57775 0.41577 0.0
H703 H 0.80783 0.63422 0.55364 0.0
H704 H 0.73946 0.50862 0.53196 0.0
H705 H 0.68943 0.45306 0.50376 0.0
H706 H 0.61739 0.47295 0.57861 0.0
H707 H 0.66701 0.52892 0.60678 0.0
C708 C 0.81677 0.59888 0.76403 0.0
C709 C 0.79124 0.59566 0.7953 0.0
C710 C 0.81022 0.59742 0.71788 0.0
C711 C 0.77815 0.59311 0.70177 0.0
C712 C 0.75247 0.58971 0.73279 0.0
C713 C 0.759 0.59113 0.77914 0.0
C714 C 0.77146 0.59157 0.65251 0.0
C715 C 0.74215 0.56149 0.6346 0.0
C716 C 0.79525 0.61829 0.62292 0.0
C717 C 0.82573 0.65152 0.63978 0.0
C718 C 0.82078 0.6726 0.67132 0.0
C719 C 0.84964 0.70365 0.68747 0.0
C720 C 0.88359 0.71402 0.67213 0.0
C721 C 0.88874 0.69341 0.6405 0.0
C722 C 0.85996 0.66232 0.62427 0.0
C723 C 0.72143 0.57024 0.44109 0.0
C724 C 0.74822 0.57083 0.41444 0.0
C725 C 0.72559 0.57467 0.48777 0.0
C726 C 0.75663 0.57983 0.50865 0.0
C727 C 0.78373 0.58129 0.48198 0.0
C728 C 0.77953 0.57669 0.43541 0.0
C729 C 0.76085 0.58325 0.55833 0.0
C730 C 0.78972 0.61366 0.57627 0.0
C731 C 0.73676 0.55679 0.58791 0.0
C732 C 0.7069 0.52316 0.57104 0.0
C733 C 0.71292 0.5013 0.54208 0.0
C734 C 0.68465 0.46971 0.52617 0.0
C735 C 0.65024 0.45954 0.53927 0.0
C736 C 0.64405 0.4809 0.56842 0.0
C737 C 0.67224 0.51255 0.58439 0.0
H738 H 0.62838 0.43506 0.52693 0.0
H739 H 0.90591 0.73806 0.68469 0.0
H740 H 0.26102 0.85558 0.73769 0.0
H741 H 0.27098 0.8559 0.81875 0.0
H742 H 0.17675 0.75415 0.831 0.0
H743 H 0.16692 0.75336 0.75002 0.0
H744 H 0.17842 0.79826 0.89478 0.0
H745 H 0.25952 0.76356 0.83812 0.0
H746 H 0.30895 0.76835 0.79305 0.0
H747 H 0.37934 0.86764 0.85569 0.0
H748 H 0.33025 0.86369 0.90074 0.0
H749 H 0.20495 0.76055 0.12029 0.0
H750 H 0.19612 0.75893 0.03876 0.0
H751 H 0.29229 0.85897 0.02553 0.0
H752 H 0.30128 0.8607 0.1068 0.0
H753 H 0.28965 0.81551 0.9622 0.0
H754 H 0.21044 0.85227 0.01691 0.0
H755 H 0.16268 0.84852 0.06455 0.0
H756 H 0.09008 0.74802 1.00635 0.0
H757 H 0.13759 0.75098 0.95864 0.0
C758 C 0.24269 0.83299 0.75744 0.0
C759 C 0.21308 0.80448 0.73706 0.0
C760 C 0.24837 0.83326 0.80394 0.0
C761 C 0.22468 0.80497 0.83119 0.0
C762 C 0.19531 0.77639 0.81088 0.0
C763 C 0.18967 0.77606 0.76446 0.0
C764 C 0.22989 0.80545 0.88093 0.0
C765 C 0.20258 0.80154 0.90946 0.0
C766 C 0.26174 0.81071 0.90036 0.0
C767 C 0.29112 0.81345 0.87256 0.0
C768 C 0.28546 0.78658 0.84199 0.0
C769 C 0.31345 0.78908 0.81656 0.0
C770 C 0.34727 0.81823 0.82161 0.0
C771 C 0.35314 0.84504 0.8519 0.0
C772 C 0.32526 0.84267 0.8774 0.0
C773 C 0.22404 0.78237 0.10009 0.0
C774 C 0.25387 0.81072 0.12026 0.0
C775 C 0.219 0.78141 0.05338 0.0
C776 C 0.24341 0.80897 0.02578 0.0
C777 C 0.27315 0.83728 0.04589 0.0
C778 C 0.27828 0.83819 0.09247 0.0
C779 C 0.2382 0.80831 0.976 0.0
C780 C 0.26548 0.8122 0.94748 0.0
C781 C 0.20647 0.80335 0.95656 0.0
C782 C 0.17765 0.8017 0.98453 0.0
C783 C 0.18434 0.82927 0.01444 0.0
C784 C 0.15732 0.82731 0.04142 0.0
C785 C 0.12341 0.79802 0.03856 0.0
C786 C 0.11639 0.77068 1.00854 0.0
C787 C 0.14335 0.77251 0.98147 0.0
H788 H 0.10259 0.79657 0.05959 0.0
H789 H 0.36895 0.82006 0.80206 0.0
H790 H 0.3687 0.13685 0.48813 0.0
H791 H 0.37216 0.13194 0.40643 0.0
H792 H 0.42807 0.24551 0.39496 0.0
H793 H 0.425 0.25064 0.47638 0.0
H794 H 0.37582 0.21579 0.33368 0.0
H795 H 0.46879 0.19682 0.38782 0.0
H796 H 0.49506 0.16747 0.43094 0.0
H797 H 0.42994 0.07073 0.35969 0.0
H798 H 0.40219 0.09898 0.31772 0.0
H799 H 0.43669 0.23385 0.108 0.0
H800 H 0.43035 0.23657 0.18944 0.0
H801 H 0.38249 0.12318 0.19755 0.0
H802 H 0.38965 0.12053 0.11629 0.0
H803 H 0.42909 0.15168 0.26068 0.0
H804 H 0.33434 0.16752 0.20892 0.0
H805 H 0.3066 0.19477 0.16438 0.0
H806 H 0.37295 0.29447 0.22875 0.0
H807 H 0.40146 0.26794 0.27323 0.0
C808 C 0.38217 0.16078 0.46829 0.0
C809 C 0.39644 0.19415 0.48887 0.0
C810 C 0.38401 0.15794 0.42154 0.0
C811 C 0.40042 0.18838 0.39449 0.0
C812 C 0.41505 0.22166 0.41504 0.0
C813 C 0.41322 0.22452 0.46165 0.0
C814 C 0.402 0.18579 0.34472 0.0
C815 C 0.38779 0.20206 0.31771 0.0
C816 C 0.41675 0.16707 0.32381 0.0
C817 C 0.43302 0.14994 0.35001 0.0
C818 C 0.45962 0.16912 0.38192 0.0
C819 C 0.47477 0.15264 0.40624 0.0
C820 C 0.46396 0.11714 0.39843 0.0
C821 C 0.43803 0.09808 0.36623 0.0
C822 C 0.4225 0.11429 0.34224 0.0
C823 C 0.42436 0.20948 0.12712 0.0
C824 C 0.4136 0.17697 0.10582 0.0
C825 C 0.42071 0.21104 0.17369 0.0
C826 C 0.40559 0.18003 0.19977 0.0
C827 C 0.39432 0.14748 0.1783 0.0
C828 C 0.39837 0.14597 0.13186 0.0
C829 C 0.4028 0.18154 0.24959 0.0
C830 C 0.41689 0.1652 0.27662 0.0
C831 C 0.38759 0.19984 0.27052 0.0
C832 C 0.37025 0.2158 0.24413 0.0
C833 C 0.34318 0.19531 0.21337 0.0
C834 C 0.32729 0.21062 0.18816 0.0
C835 C 0.33806 0.24635 0.19366 0.0
C836 C 0.36466 0.26681 0.22449 0.0
C837 C 0.38067 0.25164 0.24975 0.0
H838 H 0.32574 0.25816 0.1741 0.0
H839 H 0.47582 0.10446 0.41714 0.0
H840 H 0.17757 0.46518 0.26297 0.0
H841 H 0.17299 0.51099 0.30332 0.0
H842 H 0.19987 0.57383 0.18229 0.0
H843 H 0.20382 0.52737 0.14108 0.0
H844 H 0.21994 0.57386 0.3227 0.0
H845 H 0.16388 0.62744 0.18557 0.0
H846 H 0.12408 0.60522 0.1199 0.0
H847 H 0.07206 0.50077 0.17634 0.0
H848 H 0.11116 0.52249 0.24259 0.0
H849 H 0.25081 0.73906 0.39158 0.0
H850 H 0.24619 0.69053 0.34626 0.0
H851 H 0.13267 0.63845 0.35387 0.0
H852 H 0.1373 0.68844 0.3972 0.0
H853 H 0.15124 0.62995 0.27273 0.0
H854 H 0.18055 0.61333 0.42185 0.0
H855 H 0.21395 0.62996 0.49311 0.0
H856 H 0.30755 0.64957 0.42267 0.0
H857 H 0.2748 0.63351 0.35087 0.0
C858 C 0.18246 0.48868 0.24471 0.0
C859 C 0.1913 0.49274 0.19878 0.0
C860 C 0.17982 0.5149 0.26794 0.0
C861 C 0.18592 0.54584 0.24592 0.0
C862 C 0.19445 0.54992 0.19988 0.0
C863 C 0.19687 0.52345 0.1764 0.0
C864 C 0.18489 0.57428 0.27199 0.0
C865 C 0.20487 0.58606 0.31169 0.0
C866 C 0.16463 0.58973 0.25831 0.0
C867 C 0.14074 0.57654 0.21879 0.0
C868 C 0.14387 0.59976 0.18402 0.0
C869 C 0.12144 0.58725 0.14669 0.0
C870 C 0.09565 0.55158 0.14386 0.0
C871 C 0.09214 0.52837 0.17845 0.0
C872 C 0.11447 0.54075 0.21587 0.0
C873 C 0.22486 0.71761 0.38288 0.0
C874 C 0.19441 0.71759 0.3975 0.0
C875 C 0.22223 0.68965 0.35742 0.0
C876 C 0.18909 0.66053 0.34723 0.0
C877 C 0.15853 0.66062 0.36137 0.0
C878 C 0.16117 0.68899 0.38635 0.0
C879 C 0.18668 0.62972 0.32296 0.0
C880 C 0.16619 0.61762 0.28365 0.0
C881 C 0.20552 0.61303 0.33777 0.0
C882 C 0.22528 0.62248 0.38093 0.0
C883 C 0.20831 0.6214 0.42152 0.0
C884 C 0.22712 0.6307 0.46201 0.0
C885 C 0.26287 0.64089 0.4624 0.0
C886 C 0.27986 0.6417 0.42231 0.0
C887 C 0.26118 0.63247 0.38171 0.0
H888 H 0.27739 0.64809 0.49378 0.0
H889 H 0.07833 0.54195 0.11492 0.0
H890 H 0.70812 0.2367 0.47911 0.0
H891 H 0.66441 0.23473 0.5313 0.0
H892 H 0.64343 0.13248 0.57862 0.0
H893 H 0.68537 0.13334 0.52318 0.0
H894 H 0.58552 0.12977 0.5747 0.0
H895 H 0.69229 0.21678 0.64961 0.0
H896 H 0.75041 0.27053 0.65892 0.0
H897 H 0.7096 0.33378 0.6043 0.0
H898 H 0.6508 0.2807 0.59651 0.0
H899 H 0.50665 0.16175 0.77659 0.0
H900 H 0.55152 0.15849 0.73065 0.0
H901 H 0.53004 0.20978 0.62113 0.0
H902 H 0.48451 0.21217 0.66604 0.0
H903 H 0.60987 0.23542 0.66411 0.0
H904 H 0.50091 0.14277 0.59171 0.0
H905 H 0.44267 0.08904 0.59884 0.0
H906 H 0.49094 0.03414 0.65882 0.0
H907 H 0.54942 0.08796 0.65313 0.0
C908 C 0.69409 0.21382 0.50069 0.0
C909 C 0.69988 0.18515 0.4973 0.0
C910 C 0.66946 0.21289 0.53107 0.0
C911 C 0.65124 0.18396 0.5602 0.0
C912 C 0.65717 0.15521 0.55677 0.0
C913 C 0.68106 0.15565 0.52517 0.0
C914 C 0.62488 0.18321 0.59244 0.0
C915 C 0.59125 0.15279 0.59467 0.0
C916 C 0.63182 0.21307 0.61877 0.0
C917 C 0.66733 0.24478 0.62202 0.0
C918 C 0.6958 0.24213 0.63929 0.0
C919 C 0.72882 0.27245 0.64441 0.0
C920 C 0.73387 0.30541 0.63152 0.0
C921 C 0.70572 0.30822 0.61409 0.0
C922 C 0.67247 0.2781 0.60972 0.0
C923 C 0.51152 0.1723 0.74272 0.0
C924 C 0.49218 0.18723 0.72483 0.0
C925 C 0.53698 0.1703 0.71659 0.0
C926 C 0.54373 0.18374 0.67265 0.0
C927 C 0.52488 0.19911 0.65497 0.0
C928 C 0.49894 0.20041 0.68062 0.0
C929 C 0.57109 0.18256 0.64527 0.0
C930 C 0.60467 0.21251 0.64422 0.0
C931 C 0.56433 0.15214 0.6209 0.0
C932 C 0.52942 0.11949 0.62258 0.0
C933 C 0.49906 0.11935 0.60681 0.0
C934 C 0.46601 0.08886 0.61053 0.0
C935 C 0.46309 0.05821 0.62943 0.0
C936 C 0.49324 0.05793 0.64432 0.0
C937 C 0.52633 0.08842 0.64088 0.0
H938 H 0.43749 0.03467 0.63253 0.0
H939 H 0.75952 0.32878 0.63537 0.0
H940 H 0.26888 0.44499 0.03458 0.0
H941 H 0.3133 0.48884 0.98417 0.0
H942 H 0.36286 0.55853 0.09711 0.0
H943 H 0.3174 0.51528 0.14718 0.0
H944 H 0.35766 0.5942 0.03071 0.0
H945 H 0.39768 0.51039 0.04466 0.0
H946 H 0.39385 0.45222 0.04096 0.0
H947 H 0.37114 0.44591 0.89959 0.0
H948 H 0.37426 0.50381 0.90257 0.0
H949 H 0.52025 0.71582 0.93501 0.0
H950 H 0.47551 0.66725 0.97942 0.0
H951 H 0.42417 0.61119 0.85788 0.0
H952 H 0.46912 0.65983 0.81276 0.0
H953 H 0.42855 0.56773 0.92435 0.0
H954 H 0.39008 0.65275 0.91136 0.0
H955 H 0.39706 0.71226 0.91563 0.0
H956 H 0.41911 0.71663 0.05705 0.0
H957 H 0.41271 0.65731 0.0535 0.0
C958 C 0.28912 0.46981 0.04849 0.0
C959 C 0.28948 0.47706 0.09458 0.0
C960 C 0.31476 0.49468 0.01977 0.0
C961 C 0.34168 0.52695 0.03684 0.0
C962 C 0.34232 0.53388 0.08311 0.0
C963 C 0.31646 0.50915 0.11173 0.0
C964 C 0.36846 0.55411 1.00646 0.0
C965 C 0.37344 0.58842 1.00793 0.0
C966 C 0.38838 0.54643 0.97565 0.0
C967 C 0.38591 0.51133 0.97394 0.0
C968 C 0.39155 0.49646 0.01286 0.0
C969 C 0.3896 0.46358 1.01087 0.0
C970 C 0.38236 0.44543 0.97004 0.0
C971 C 0.37689 0.46007 0.93115 0.0
C972 C 0.3787 0.49289 0.93299 0.0
C973 C 0.49958 0.69317 0.91752 0.0
C974 C 0.49812 0.69189 0.87022 0.0
C975 C 0.47398 0.66543 0.94305 0.0
C976 C 0.44631 0.63585 0.92193 0.0
C977 C 0.4453 0.63387 0.87478 0.0
C978 C 0.47092 0.66174 0.84909 0.0
C979 C 0.41796 0.60766 0.94937 0.0
C980 C 0.41261 0.57327 0.94715 0.0
C981 C 0.39778 0.61521 0.97972 0.0
C982 C 0.40118 0.6507 0.98208 0.0
C983 C 0.39663 0.6665 0.94331 0.0
C984 C 0.40045 0.70018 0.94561 0.0
C985 C 0.40859 0.71824 0.98657 0.0
C986 C 0.41282 0.70261 0.02534 0.0
C987 C 0.40905 0.66894 0.02322 0.0
H988 H 0.41156 0.74433 0.98827 0.0
H989 H 0.38083 0.41996 0.96857 0.0
H990 H 0.81268 0.34035 0.4322 0.0
H991 H 0.82008 0.38996 0.38616 0.0
H992 H 0.78933 0.32373 0.26807 0.0
H993 H 0.78303 0.27441 0.31355 0.0
H994 H 0.84217 0.38531 0.24805 0.0
H995 H 0.73211 0.34417 0.32643 0.0
H996 H 0.69336 0.32888 0.3927 0.0
H997 H 0.75386 0.43545 0.4409 0.0
H998 H 0.79333 0.45124 0.37526 0.0
H999 H 0.75501 0.48733 0.15157 0.0
H1000 H 0.75604 0.44421 0.2028 0.0
H1001 H 0.86973 0.50494 0.20674 0.0
H1002 H 0.86874 0.54836 0.15494 0.0
H1003 H 0.77871 0.4492 0.2865 0.0
H1004 H 0.9002 0.446 0.21837 0.0
H1005 H 0.9336 0.45709 0.14766 0.0
H1006 H 0.84048 0.43168 0.07139 0.0
H1007 H 0.80647 0.42002 0.14158 0.0
C1008 C 0.80742 0.33632 0.39644 0.0
C1009 C 0.79696 0.30334 0.3766 0.0
C1010 C 0.81162 0.36472 0.37017 0.0
C1011 C 0.80481 0.36049 0.32372 0.0
C1012 C 0.79477 0.32767 0.30382 0.0
C1013 C 0.791 0.29942 0.32994 0.0
C1014 C 0.80769 0.38999 0.29573 0.0
C1015 C 0.8284 0.39937 0.25662 0.0
C1016 C 0.7896 0.40827 0.30667 0.0
C1017 C 0.76593 0.39876 0.34621 0.0
C1018 C 0.73734 0.36426 0.35137 0.0
C1019 C 0.71522 0.35552 0.38879 0.0
C1020 C 0.72122 0.38115 0.42107 0.0
C1021 C 0.74931 0.4156 0.41594 0.0
C1022 C 0.77156 0.42446 0.37864 0.0
C1023 C 0.78023 0.49164 0.16363 0.0
C1024 C 0.8118 0.5212 0.14963 0.0
C1025 C 0.78078 0.467 0.1929 0.0
C1026 C 0.81294 0.47129 0.20854 0.0
C1027 C 0.84463 0.50095 0.19473 0.0
C1028 C 0.84406 0.52569 0.16524 0.0
C1029 C 0.81282 0.44416 0.23867 0.0
C1030 C 0.79279 0.43538 0.27828 0.0
C1031 C 0.83084 0.42588 0.22767 0.0
C1032 C 0.85095 0.4326 0.18524 0.0
C1033 C 0.88687 0.44273 0.18649 0.0
C1034 C 0.9059 0.44911 0.14651 0.0
C1035 C 0.88921 0.44523 0.10507 0.0
C1036 C 0.85342 0.43483 0.10351 0.0
C1037 C 0.83427 0.42839 0.14338 0.0
H1038 H 0.90399 0.45019 0.07416 0.0
H1039 H 0.70405 0.37433 0.44999 0.0
H1040 H 0.27558 0.79003 0.56764 0.0
H1041 H 0.31962 0.79066 0.61835 0.0
H1042 H 0.39805 0.83654 0.5137 0.0
H1043 H 0.35345 0.83467 0.46199 0.0
H1044 H 0.40463 0.78793 0.5545 0.0
H1045 H 0.39449 0.88711 0.60636 0.0
H1046 H 0.36116 0.9157 0.63167 0.0
H1047 H 0.32042 0.84425 0.74361 0.0
H1048 H 0.35324 0.81496 0.71859 0.0
H1049 H 0.53693 0.86591 0.75474 0.0
H1050 H 0.49478 0.86821 0.70241 0.0
H1051 H 0.44072 0.75473 0.68972 0.0
H1052 H 0.48271 0.75233 0.74216 0.0
H1053 H 0.42427 0.84066 0.70698 0.0
H1054 H 0.4102 0.73153 0.5865 0.0
H1055 H 0.44541 0.70753 0.55299 0.0
H1056 H 0.53966 0.80795 0.57021 0.0
H1057 H 0.50514 0.83221 0.60444 0.0
C1058 C 0.30224 0.8004 0.5554 0.0
C1059 C 0.31116 0.81253 0.51088 0.0
C1060 C 0.32747 0.80091 0.58457 0.0
C1061 C 0.36239 0.81437 0.57024 0.0
C1062 C 0.37129 0.82617 0.5256 0.0
C1063 C 0.34584 0.8251 0.49607 0.0
C1064 C 0.38936 0.8153 0.6015 0.0
C1065 C 0.40891 0.79954 0.5878 0.0
C1066 C 0.39526 0.83069 0.64488 0.0
C1067 C 0.37636 0.84891 0.66069 0.0
C1068 C 0.37845 0.87752 0.63639 0.0
C1069 C 0.35963 0.89382 0.65065 0.0
C1070 C 0.33877 0.88185 0.6893 0.0
C1071 C 0.33673 0.85358 0.71382 0.0
C1072 C 0.3555 0.83719 0.69969 0.0
C1073 C 0.51605 0.84148 0.74071 0.0
C1074 C 0.51326 0.80897 0.75207 0.0
C1075 C 0.49197 0.84282 0.71093 0.0
C1076 C 0.46479 0.81169 0.6918 0.0
C1077 C 0.46181 0.77914 0.70347 0.0
C1078 C 0.48582 0.77779 0.73338 0.0
C1079 C 0.43945 0.81323 0.65985 0.0
C1080 C 0.42003 0.8292 0.67361 0.0
C1081 C 0.43401 0.79858 0.61619 0.0
C1082 C 0.45517 0.78353 0.59831 0.0
C1083 C 0.4385 0.74832 0.58345 0.0
C1084 C 0.45833 0.73465 0.56444 0.0
C1085 C 0.49477 0.7561 0.55967 0.0
C1086 C 0.51152 0.79117 0.57435 0.0
C1087 C 0.49187 0.80485 0.59379 0.0
H1088 H 0.50988 0.74557 0.54424 0.0
H1089 H 0.32415 0.89443 0.7002 0.0
H1090 H 0.71684 0.51459 0.97211 0.0
H1091 H 0.66509 0.46939 0.93252 0.0
H1092 H 0.60326 0.44778 0.05343 0.0
H1093 H 0.65515 0.49247 0.0937 0.0
H1094 H 0.59159 0.38849 0.01695 0.0
H1095 H 0.59263 0.49192 0.96374 0.0
H1096 H 0.61878 0.55155 0.93076 0.0
H1097 H 0.63997 0.51368 0.80822 0.0
H1098 H 0.61431 0.45387 0.84068 0.0
H1099 H 0.43872 0.31176 0.83873 0.0
H1100 H 0.482 0.36096 0.88494 0.0
H1101 H 0.5456 0.31115 0.8933 0.0
H1102 H 0.50263 0.2622 0.84718 0.0
H1103 H 0.5504 0.40798 0.86969 0.0
H1104 H 0.58413 0.3253 0.99052 0.0
H1105 H 0.55446 0.26793 0.0301 0.0
H1106 H 0.45675 0.26863 0.02664 0.0
H1107 H 0.48564 0.32544 0.98642 0.0
C1108 C 0.69221 0.50043 0.99032 0.0
C1109 C 0.69021 0.50714 0.03618 0.0
C1110 C 0.66256 0.47469 0.9675 0.0
C1111 C 0.63018 0.45542 0.98986 0.0
C1112 C 0.62798 0.46234 0.03549 0.0
C1113 C 0.65768 0.48796 0.05844 0.0
C1114 C 0.59911 0.4269 0.9662 0.0
C1115 C 0.58256 0.39286 0.98483 0.0
C1116 C 0.58678 0.43264 0.92471 0.0
C1117 C 0.60176 0.46845 0.90478 0.0
C1118 C 0.60303 0.49634 0.92984 0.0
C1119 C 0.61775 0.53017 0.91123 0.0
C1120 C 0.63109 0.53641 0.86745 0.0
C1121 C 0.62963 0.5088 0.84213 0.0
C1122 C 0.61494 0.47491 0.8606 0.0
C1123 C 0.46189 0.31132 0.85068 0.0
C1124 C 0.46722 0.28307 0.83983 0.0
C1125 C 0.48657 0.33941 0.87696 0.0
C1126 C 0.51683 0.33954 0.89299 0.0
C1127 C 0.52213 0.3113 0.88204 0.0
C1128 C 0.49756 0.28333 0.85572 0.0
C1129 C 0.54351 0.36956 0.92009 0.0
C1130 C 0.55933 0.4038 0.90198 0.0
C1131 C 0.55471 0.36426 0.96257 0.0
C1132 C 0.53697 0.32943 0.98525 0.0
C1133 C 0.55626 0.31303 0.99805 0.0
C1134 C 0.53955 0.28055 0.02043 0.0
C1135 C 0.50367 0.26447 0.03066 0.0
C1136 C 0.4844 0.28076 0.01828 0.0
C1137 C 0.50088 0.31302 0.99547 0.0
H1138 H 0.49092 0.23952 0.04839 0.0
H1139 H 0.64251 0.56263 0.85312 0.0
loop_
_geom_bond_atom_site_label_1
_geom_bond_atom_site_label_2
_geom_bond_distance
_geom_bond_site_symmetry_2
_ccdc_geom_bond_type
La0 C2 2.928 . S
La0 O20 2.521 . S
La0 O21 2.628 . S
La0 O22 2.554 . S
La0 O23 2.757 . S
La0 O24 2.470 . S
La0 O29 2.482 . S
La0 O31 2.503 . S
La1 C11 2.928 . S
La1 O23 2.482 . S
La1 O25 2.503 . S
La1 O26 2.521 . S
La1 O27 2.628 . S
La1 O28 2.554 . S
La1 O29 2.757 . S
La1 O30 2.470 . S
C2 La0 2.928 . S
C2 C3 1.503 1_554 S
C2 O20 1.261 . S
C2 O21 1.243 . S
C3 C2 1.503 1_556 S
C3 C4 1.394 . S
C3 C8 1.373 . S
C4 C3 1.394 . S
C4 C5 1.380 . S
C4 H32 0.930 . S
C5 C4 1.380 . S
C5 C6 1.376 . S
C5 H33 0.930 . S
C6 C5 1.376 . S
C6 C7 1.370 . S
C7 C6 1.370 . S
C7 C8 1.396 . S
C7 H34 0.929 . S
C8 C3 1.373 . S
C8 C7 1.396 . S
C8 H35 0.929 . S
C9 O22 1.240 . S
C9 O23 1.289 . S
C10 O24 1.258 . S
C10 O25 1.256 . S
C11 La1 2.928 . S
C11 C12 1.503 . S
C11 O26 1.261 . S
C11 O27 1.243 . S
C12 C11 1.503 . S
C12 C13 1.394 . S
C12 C17 1.373 . S
C13 C12 1.394 . S
C13 C14 1.380 . S
C13 H36 0.930 . S
C14 C13 1.380 . S
C14 C15 1.376 . S
C14 H37 0.930 . S
C15 C14 1.376 . S
C15 C16 1.370 . S
C16 C15 1.370 . S
C16 C17 1.396 . S
C16 H38 0.929 . S
C17 C12 1.373 . S
C17 C16 1.396 . S
C17 H39 0.929 . S
C18 O28 1.240 . S
C18 O29 1.289 . S
C19 O30 1.258 . S
C19 O31 1.256 . S
O20 La0 2.521 . S
O20 C2 1.261 . S
O21 La0 2.628 . S
O21 C2 1.243 . S
O22 La0 2.554 . S
O22 C9 1.240 . S
O23 La0 2.757 . S
O23 La1 2.482 . S
O23 C9 1.289 . S
O24 La0 2.470 . S
O24 C10 1.258 . S
O25 La1 2.503 . S
O25 C10 1.256 . S
O26 La1 2.521 . S
O26 C11 1.261 . S
O27 La1 2.628 . S
O27 C11 1.243 . S
O28 La1 2.554 . S
O28 C18 1.240 . S
O29 La0 2.482 . S
O29 La1 2.757 . S
O29 C18 1.289 . S
O30 La1 2.470 . S
O30 C19 1.258 . S
O31 La0 2.503 . S
O31 C19 1.256 . S
H32 C4 0.930 . S
H33 C5 0.930 . S
H34 C7 0.929 . S
H35 C8 0.929 . S
H36 C13 0.930 . S
H37 C14 0.930 . S
H38 C16 0.929 . S
H39 C17 0.929 . S
La40 C42 2.928 . S
La40 O60 2.521 . S
La40 O61 2.628 . S
La40 O62 2.554 . S
La40 O63 2.757 . S
La40 O64 2.470 . S
La40 O69 2.482 . S
La40 O71 2.503 . S
La41 C51 2.928 . S
La41 O63 2.482 . S
La41 O65 2.503 . S
La41 O66 2.521 . S
La41 O67 2.628 . S
La41 O68 2.554 . S
La41 O69 2.757 . S
La41 O70 2.470 . S
C42 La40 2.928 . S
C42 C43 1.503 . S
C42 O60 1.261 . S
C42 O61 1.243 . S
C43 C42 1.503 . S
C43 C44 1.394 . S
C43 C48 1.373 . S
C44 C43 1.394 . S
C44 C45 1.380 . S
C44 H72 0.930 . S
C45 C44 1.380 . S
C45 C46 1.376 . S
C45 H73 0.930 . S
C46 C45 1.376 . S
C46 C47 1.370 . S
C47 C46 1.370 . S
C47 C48 1.396 . S
C47 H74 0.929 . S
C48 C43 1.373 . S
C48 C47 1.396 . S
C48 H75 0.929 . S
C49 O62 1.240 . S
C49 O63 1.289 . S
C50 O64 1.258 . S
C50 O65 1.256 . S
C51 La41 2.928 . S
C51 C52 1.503 . S
C51 O66 1.261 . S
C51 O67 1.243 . S
C52 C51 1.503 . S
C52 C53 1.394 . S
C52 C57 1.373 . S
C53 C52 1.394 . S
C53 C54 1.380 . S
C53 H76 0.930 . S
C54 C53 1.380 . S
C54 C55 1.376 . S
C54 H77 0.930 . S
C55 C54 1.376 . S
C55 C56 1.370 . S
C56 C55 1.370 . S
C56 C57 1.396 . S
C56 H78 0.929 . S
C57 C52 1.373 . S
C57 C56 1.396 . S
C57 H79 0.929 . S
C58 O68 1.240 . S
C58 O69 1.289 . S
C59 O70 1.258 . S
C59 O71 1.256 . S
O60 La40 2.521 . S
O60 C42 1.261 . S
O61 La40 2.628 . S
O61 C42 1.243 . S
O62 La40 2.554 . S
O62 C49 1.240 . S
O63 La40 2.757 . S
O63 La41 2.482 . S
O63 C49 1.289 . S
O64 La40 2.470 . S
O64 C50 1.258 . S
O65 La41 2.503 . S
O65 C50 1.256 . S
O66 La41 2.521 . S
O66 C51 1.261 . S
O67 La41 2.628 . S
O67 C51 1.243 . S
O68 La41 2.554 . S
O68 C58 1.240 . S
O69 La40 2.482 . S
O69 La41 2.757 . S
O69 C58 1.289 . S
O70 La41 2.470 . S
O70 C59 1.258 . S
O71 La40 2.503 . S
O71 C59 1.256 . S
H72 C44 0.930 . S
H73 C45 0.930 . S
H74 C47 0.929 . S
H75 C48 0.929 . S
H76 C53 0.930 . S
H77 C54 0.930 . S
H78 C56 0.929 . S
H79 C57 0.929 . S
La80 C82 2.928 . S
La80 O100 2.521 . S
La80 O101 2.628 . S
La80 O102 2.554 . S
La80 O103 2.757 . S
La80 O104 2.470 . S
La80 O109 2.482 . S
La80 O111 2.503 . S
La81 C91 2.928 1_556 S
La81 O103 2.482 . S
La81 O105 2.503 . S
La81 O106 2.521 . S
La81 O107 2.628 . S
La81 O108 2.554 . S
La81 O109 2.757 . S
La81 O110 2.470 . S
C82 La80 2.928 . S
C82 C83 1.503 . S
C82 O100 1.261 . S
C82 O101 1.243 . S
C83 C82 1.503 . S
C83 C84 1.394 . S
C83 C88 1.373 . S
C84 C83 1.394 . S
C84 C85 1.380 . S
C84 H112 0.930 . S
C85 C84 1.380 . S
C85 C86 1.376 . S
C85 H113 0.930 . S
C86 C85 1.376 . S
C86 C87 1.370 . S
C87 C86 1.370 . S
C87 C88 1.396 . S
C87 H114 0.929 . S
C88 C83 1.373 . S
C88 C87 1.396 . S
C88 H115 0.929 . S
C89 O102 1.240 . S
C89 O103 1.289 . S
C90 O104 1.258 . S
C90 O105 1.256 . S
C91 La81 2.928 1_554 S
C91 C92 1.503 . S
C91 O106 1.261 1_554 S
C91 O107 1.243 1_554 S
C92 C91 1.503 . S
C92 C93 1.394 . S
C92 C97 1.373 . S
C93 C92 1.394 . S
C93 C94 1.380 . S
C93 H116 0.930 . S
C94 C93 1.380 . S
C94 C95 1.376 . S
C94 H117 0.930 . S
C95 C94 1.376 . S
C95 C96 1.370 . S
C96 C95 1.370 . S
C96 C97 1.396 . S
C96 H118 0.929 . S
C97 C92 1.373 . S
C97 C96 1.396 . S
C97 H119 0.929 . S
C98 O108 1.240 . S
C98 O109 1.289 . S
C99 O110 1.258 . S
C99 O111 1.256 . S
O100 La80 2.521 . S
O100 C82 1.261 . S
O101 La80 2.628 . S
O101 C82 1.243 . S
O102 La80 2.554 . S
O102 C89 1.240 . S
O103 La80 2.757 . S
O103 La81 2.482 . S
O103 C89 1.289 . S
O104 La80 2.470 . S
O104 C90 1.258 . S
O105 La81 2.503 . S
O105 C90 1.256 . S
O106 La81 2.521 . S
O106 C91 1.261 1_556 S
O107 La81 2.628 . S
O107 C91 1.243 1_556 S
O108 La81 2.554 . S
O108 C98 1.240 . S
O109 La80 2.482 . S
O109 La81 2.757 . S
O109 C98 1.289 . S
O110 La81 2.470 . S
O110 C99 1.258 . S
O111 La80 2.503 . S
O111 C99 1.256 . S
H112 C84 0.930 . S
H113 C85 0.930 . S
H114 C87 0.929 . S
H115 C88 0.929 . S
H116 C93 0.930 . S
H117 C94 0.930 . S
H118 C96 0.929 . S
H119 C97 0.929 . S
La120 C122 2.928 . S
La120 O140 2.521 . S
La120 O141 2.628 . S
La120 O142 2.554 . S
La120 O143 2.757 1_554 S
La120 O144 2.470 . S
La120 O149 2.482 . S
La120 O151 2.503 . S
La121 C131 2.928 . S
La121 O143 2.482 . S
La121 O145 2.503 1_556 S
La121 O146 2.521 . S
La121 O147 2.628 . S
La121 O148 2.554 . S
La121 O149 2.757 1_556 S
La121 O150 2.470 . S
C122 La120 2.928 . S
C122 C123 1.503 . S
C122 O140 1.261 . S
C122 O141 1.243 . S
C123 C122 1.503 . S
C123 C124 1.394 . S
C123 C128 1.373 . S
C124 C123 1.394 . S
C124 C125 1.380 . S
C124 H152 0.930 . S
C125 C124 1.380 . S
C125 C126 1.376 . S
C125 H153 0.930 . S
C126 C125 1.376 . S
C126 C127 1.370 . S
C127 C126 1.370 . S
C127 C128 1.396 . S
C127 H154 0.929 . S
C128 C123 1.373 . S
C128 C127 1.396 . S
C128 H155 0.929 . S
C129 O142 1.240 . S
C129 O143 1.289 1_554 S
C130 O144 1.258 . S
C130 O145 1.256 . S
C131 La121 2.928 . S
C131 C132 1.503 . S
C131 O146 1.261 . S
C131 O147 1.243 . S
C132 C131 1.503 . S
C132 C133 1.394 . S
C132 C137 1.373 . S
C133 C132 1.394 . S
C133 C134 1.380 . S
C133 H156 0.930 . S
C134 C133 1.380 . S
C134 C135 1.376 . S
C134 H157 0.930 . S
C135 C134 1.376 . S
C135 C136 1.370 . S
C136 C135 1.370 . S
C136 C137 1.396 . S
C136 H158 0.929 . S
C137 C132 1.373 . S
C137 C136 1.396 . S
C137 H159 0.929 . S
C138 O148 1.240 1_554 S
C138 O149 1.289 . S
C139 O150 1.258 . S
C139 O151 1.256 1_556 S
O140 La120 2.521 . S
O140 C122 1.261 . S
O141 La120 2.628 . S
O141 C122 1.243 . S
O142 La120 2.554 . S
O142 C129 1.240 . S
O143 La120 2.757 1_556 S
O143 La121 2.482 . S
O143 C129 1.289 1_556 S
O144 La120 2.470 . S
O144 C130 1.258 . S
O145 La121 2.503 1_554 S
O145 C130 1.256 . S
O146 La121 2.521 . S
O146 C131 1.261 . S
O147 La121 2.628 . S
O147 C131 1.243 . S
O148 La121 2.554 . S
O148 C138 1.240 1_556 S
O149 La120 2.482 . S
O149 La121 2.757 1_554 S
O149 C138 1.289 . S
O150 La121 2.470 . S
O150 C139 1.258 . S
O151 La120 2.503 . S
O151 C139 1.256 1_554 S
H152 C124 0.930 . S
H153 C125 0.930 . S
H154 C127 0.929 . S
H155 C128 0.929 . S
H156 C133 0.930 . S
H157 C134 0.930 . S
H158 C136 0.929 . S
H159 C137 0.929 . S
La160 C162 2.928 . S
La160 O180 2.521 . S
La160 O181 2.628 . S
La160 O182 2.554 . S
La160 O183 2.757 . S
La160 O184 2.470 . S
La160 O189 2.482 . S
La160 O191 2.503 . S
La161 C171 2.928 . S
La161 O183 2.482 . S
La161 O185 2.503 . S
La161 O186 2.521 . S
La161 O187 2.628 . S
La161 O188 2.554 . S
La161 O189 2.757 . S
La161 O190 2.470 . S
C162 La160 2.928 . S
C162 C163 1.503 . S
C162 O180 1.261 . S
C162 O181 1.243 . S
C163 C162 1.503 . S
C163 C164 1.394 . S
C163 C168 1.373 . S
C164 C163 1.394 . S
C164 C165 1.380 . S
C164 H192 0.930 . S
C165 C164 1.380 . S
C165 C166 1.376 . S
C165 H193 0.930 . S
C166 C165 1.376 . S
C166 C167 1.370 . S
C167 C166 1.370 . S
C167 C168 1.396 . S
C167 H194 0.929 . S
C168 C163 1.373 . S
C168 C167 1.396 . S
C168 H195 0.929 . S
C169 O182 1.240 . S
C169 O183 1.289 . S
C170 O184 1.258 . S
C170 O185 1.256 . S
C171 La161 2.928 . S
C171 C172 1.503 . S
C171 O186 1.261 . S
C171 O187 1.243 . S
C172 C171 1.503 . S
C172 C173 1.394 . S
C172 C177 1.373 . S
C173 C172 1.394 . S
C173 C174 1.380 . S
C173 H196 0.930 . S
C174 C173 1.380 . S
C174 C175 1.376 . S
C174 H197 0.930 . S
C175 C174 1.376 . S
C175 C176 1.370 . S
C176 C175 1.370 . S
C176 C177 1.396 . S
C176 H198 0.929 . S
C177 C172 1.373 . S
C177 C176 1.396 . S
C177 H199 0.929 . S
C178 O188 1.240 . S
C178 O189 1.289 . S
C179 O190 1.258 . S
C179 O191 1.256 . S
O180 La160 2.521 . S
O180 C162 1.261 . S
O181 La160 2.628 . S
O181 C162 1.243 . S
O182 La160 2.554 . S
O182 C169 1.240 . S
O183 La160 2.757 . S
O183 La161 2.482 . S
O183 C169 1.289 . S
O184 La160 2.470 . S
O184 C170 1.258 . S
O185 La161 2.503 . S
O185 C170 1.256 . S
O186 La161 2.521 . S
O186 C171 1.261 . S
O187 La161 2.628 . S
O187 C171 1.243 . S
O188 La161 2.554 . S
O188 C178 1.240 . S
O189 La160 2.482 . S
O189 La161 2.757 . S
O189 C178 1.289 . S
O190 La161 2.470 . S
O190 C179 1.258 . S
O191 La160 2.503 . S
O191 C179 1.256 . S
H192 C164 0.930 . S
H193 C165 0.930 . S
H194 C167 0.929 . S
H195 C168 0.929 . S
H196 C173 0.930 . S
H197 C174 0.930 . S
H198 C176 0.929 . S
H199 C177 0.929 . S
La200 C202 2.928 . S
La200 O220 2.521 . S
La200 O221 2.628 . S
La200 O222 2.554 . S
La200 O223 2.757 . S
La200 O224 2.470 . S
La200 O229 2.482 . S
La200 O231 2.503 . S
La201 C211 2.928 . S
La201 O223 2.482 . S
La201 O225 2.503 . S
La201 O226 2.521 . S
La201 O227 2.628 . S
La201 O228 2.554 . S
La201 O229 2.757 . S
La201 O230 2.470 . S
C202 La200 2.928 . S
C202 C203 1.503 . S
C202 O220 1.261 . S
C202 O221 1.243 . S
C203 C202 1.503 . S
C203 C204 1.394 . S
C203 C208 1.373 . S
C204 C203 1.394 . S
C204 C205 1.380 . S
C204 H232 0.930 . S
C205 C204 1.380 . S
C205 C206 1.376 . S
C205 H233 0.930 . S
C206 C205 1.376 . S
C206 C207 1.370 . S
C207 C206 1.370 . S
C207 C208 1.396 . S
C207 H234 0.929 . S
C208 C203 1.373 . S
C208 C207 1.396 . S
C208 H235 0.929 . S
C209 O222 1.240 . S
C209 O223 1.289 . S
C210 O224 1.258 . S
C210 O225 1.256 . S
C211 La201 2.928 . S
C211 C212 1.503 . S
C211 O226 1.261 . S
C211 O227 1.243 . S
C212 C211 1.503 . S
C212 C213 1.394 . S
C212 C217 1.373 . S
C213 C212 1.394 . S
C213 C214 1.380 . S
C213 H236 0.930 . S
C214 C213 1.380 . S
C214 C215 1.376 . S
C214 H237 0.930 . S
C215 C214 1.376 . S
C215 C216 1.370 . S
C216 C215 1.370 . S
C216 C217 1.396 . S
C216 H238 0.929 . S
C217 C212 1.373 . S
C217 C216 1.396 . S
C217 H239 0.929 . S
C218 O228 1.240 . S
C218 O229 1.289 . S
C219 O230 1.258 . S
C219 O231 1.256 . S
O220 La200 2.521 . S
O220 C202 1.261 . S
O221 La200 2.628 . S
O221 C202 1.243 . S
O222 La200 2.554 . S
O222 C209 1.240 . S
O223 La200 2.757 . S
O223 La201 2.482 . S
O223 C209 1.289 . S
O224 La200 2.470 . S
O224 C210 1.258 . S
O225 La201 2.503 . S
O225 C210 1.256 . S
O226 La201 2.521 . S
O226 C211 1.261 . S
O227 La201 2.628 . S
O227 C211 1.243 . S
O228 La201 2.554 . S
O228 C218 1.240 . S
O229 La200 2.482 . S
O229 La201 2.757 . S
O229 C218 1.289 . S
O230 La201 2.470 . S
O230 C219 1.258 . S
O231 La200 2.503 . S
O231 C219 1.256 . S
H232 C204 0.930 . S
H233 C205 0.930 . S
H234 C207 0.929 . S
H235 C208 0.929 . S
H236 C213 0.930 . S
H237 C214 0.930 . S
H238 C216 0.929 . S
H239 C217 0.929 . S
H240 C258 0.951 . S
H241 C260 0.951 . S
H242 C262 0.950 . S
H243 C263 0.950 . S
H244 C265 0.950 . S
H245 C268 0.950 . S
H246 C269 0.950 . S
H247 C271 0.950 . S
H248 C272 0.950 . S
H249 C273 0.951 . S
H250 C275 0.951 1_556 S
H251 C277 0.950 . S
H252 C278 0.950 . S
H253 C280 0.950 . S
H254 C283 0.950 . S
H255 C284 0.950 . S
H256 C286 0.950 . S
H257 C287 0.950 . S
C258 H240 0.951 . S
C258 C259 1.366 . S
C258 C260 1.388 . S
C259 C258 1.366 . S
C259 C263 1.385 . S
C260 H241 0.951 . S
C260 C258 1.388 . S
C260 C261 1.366 . S
C261 C260 1.366 . S
C261 C262 1.414 . S
C261 C264 1.499 . S
C262 H242 0.950 . S
C262 C261 1.414 . S
C262 C263 1.374 . S
C263 H243 0.950 . S
C263 C259 1.385 . S
C263 C262 1.374 . S
C264 C261 1.499 . S
C264 C265 1.373 . S
C264 C266 1.389 . S
C265 H244 0.950 . S
C265 C264 1.373 . S
C265 C281 1.377 . S
C266 C264 1.389 . S
C266 C267 1.524 . S
C266 C280 1.377 . S
C267 C266 1.524 . S
C267 C268 1.397 . S
C267 C272 1.363 . S
C268 H245 0.950 . S
C268 C267 1.397 . S
C268 C269 1.334 . S
C269 H246 0.950 . S
C269 C268 1.334 . S
C269 C270 1.287 . S
C270 C269 1.287 . S
C270 C271 1.524 . S
C270 H289 0.913 . S
C271 H247 0.950 . S
C271 C270 1.524 . S
C271 C272 1.415 . S
C272 H248 0.950 . S
C272 C267 1.363 . S
C272 C271 1.415 . S
C273 H249 0.951 . S
C273 C274 1.366 . S
C273 C275 1.388 . S
C274 C273 1.366 . S
C274 C278 1.385 . S
C275 H250 0.951 1_554 S
C275 C273 1.388 . S
C275 C276 1.366 . S
C276 C275 1.366 . S
C276 C277 1.414 . S
C276 C279 1.499 1_554 S
C277 H251 0.950 . S
C277 C276 1.414 . S
C277 C278 1.374 . S
C278 H252 0.950 . S
C278 C274 1.385 . S
C278 C277 1.374 . S
C279 C276 1.499 1_556 S
C279 C280 1.373 . S
C279 C281 1.389 . S
C280 H253 0.950 . S
C280 C266 1.377 . S
C280 C279 1.373 . S
C281 C265 1.377 . S
C281 C279 1.389 . S
C281 C282 1.524 . S
C282 C281 1.524 . S
C282 C283 1.397 1_556 S
C282 C287 1.363 . S
C283 H254 0.950 . S
C283 C282 1.397 1_554 S
C283 C284 1.334 . S
C284 H255 0.950 . S
C284 C283 1.334 . S
C284 C285 1.287 1_554 S
C285 C284 1.287 1_556 S
C285 C286 1.524 . S
C285 H288 1.001 . S
C286 H256 0.950 . S
C286 C285 1.524 . S
C286 C287 1.415 . S
C287 H257 0.950 . S
C287 C282 1.363 . S
C287 C286 1.415 . S
H288 C285 1.001 . S
H289 C270 0.913 . S
H290 C308 0.951 . S
H291 C310 0.951 . S
H292 C312 0.950 . S
H293 C313 0.950 . S
H294 C315 0.950 . S
H295 C318 0.950 . S
H296 C319 0.950 . S
H297 C321 0.950 . S
H298 C322 0.939 1_655 S
H299 C323 0.951 . S
H300 C325 0.951 . S
H301 C327 0.950 . S
H302 C328 0.950 . S
H303 C330 0.950 . S
H304 C333 0.950 . S
H305 C334 0.950 . S
H306 C336 0.950 . S
H307 C337 0.939 1_455 S
C308 H290 0.951 . S
C308 C309 1.366 . S
C308 C310 1.388 . S
C309 C308 1.366 . S
C309 C313 1.385 . S
C310 H291 0.951 . S
C310 C308 1.388 . S
C310 C311 1.366 . S
C311 C310 1.366 . S
C311 C312 1.414 . S
C311 C314 1.499 . S
C312 H292 0.950 . S
C312 C311 1.414 . S
C312 C313 1.374 . S
C313 H293 0.950 . S
C313 C309 1.385 . S
C313 C312 1.374 . S
C314 C311 1.499 . S
C314 C315 1.373 . S
C314 C316 1.389 . S
C315 H294 0.950 . S
C315 C314 1.373 . S
C315 C331 1.377 1_455 S
C316 C314 1.389 . S
C316 C317 1.524 . S
C316 C330 1.377 1_455 S
C317 C316 1.524 . S
C317 C318 1.397 . S
C317 C322 1.363 . S
C318 H295 0.950 . S
C318 C317 1.397 . S
C318 C319 1.334 . S
C319 H296 0.950 . S
C319 C318 1.334 . S
C319 C320 1.287 . S
C320 C319 1.287 . S
C320 C321 1.524 . S
C320 H339 0.913 . S
C321 H297 0.950 . S
C321 C320 1.524 . S
C321 C322 1.415 . S
C322 H298 0.939 1_455 S
C322 C317 1.363 . S
C322 C321 1.415 . S
C323 H299 0.951 . S
C323 C324 1.366 . S
C323 C325 1.388 . S
C324 C323 1.366 . S
C324 C328 1.385 . S
C325 H300 0.951 . S
C325 C323 1.388 . S
C325 C326 1.366 . S
C326 C325 1.366 . S
C326 C327 1.414 . S
C326 C329 1.499 . S
C327 H301 0.950 . S
C327 C326 1.414 . S
C327 C328 1.374 . S
C328 H302 0.950 . S
C328 C324 1.385 . S
C328 C327 1.374 . S
C329 C326 1.499 . S
C329 C330 1.373 . S
C329 C331 1.389 . S
C330 H303 0.950 . S
C330 C316 1.377 1_655 S
C330 C329 1.373 . S
C331 C315 1.377 1_655 S
C331 C329 1.389 . S
C331 C332 1.524 . S
C332 C331 1.524 . S
C332 C333 1.397 . S
C332 C337 1.363 . S
C333 H304 0.950 . S
C333 C332 1.397 . S
C333 C334 1.334 . S
C334 H305 0.950 . S
C334 C333 1.334 . S
C334 C335 1.287 . S
C335 C334 1.287 . S
C335 C336 1.524 . S
C335 H338 0.999 . S
C336 H306 0.950 . S
C336 C335 1.524 . S
C336 C337 1.415 . S
C337 H307 0.939 1_655 S
C337 C332 1.363 . S
C337 C336 1.415 . S
H338 C335 0.999 . S
H339 C320 0.913 . S
H340 C358 0.951 . S
H341 C360 0.951 . S
H342 C362 0.950 . S
H343 C363 0.950 . S
H344 C365 0.950 . S
H345 C368 0.950 1_545 S
H346 C369 0.950 . S
H347 C371 0.950 . S
H348 C372 0.950 . S
H349 C373 0.951 . S
H350 C375 0.951 . S
H351 C377 0.950 . S
H352 C378 0.950 . S
H353 C380 0.950 . S
H354 C383 0.950 1_565 S
H355 C384 0.950 . S
H356 C386 0.950 . S
H357 C387 0.950 . S
C358 H340 0.951 . S
C358 C359 1.366 . S
C358 C360 1.388 . S
C359 C358 1.366 . S
C359 C363 1.385 . S
C360 H341 0.951 . S
C360 C358 1.388 . S
C360 C361 1.366 . S
C361 C360 1.366 . S
C361 C362 1.414 . S
C361 C364 1.499 . S
C362 H342 0.950 . S
C362 C361 1.414 . S
C362 C363 1.374 . S
C363 H343 0.950 . S
C363 C359 1.385 . S
C363 C362 1.374 . S
C364 C361 1.499 . S
C364 C365 1.373 . S
C364 C366 1.389 1_545 S
C365 H344 0.950 . S
C365 C364 1.373 . S
C365 C381 1.377 . S
C366 C364 1.389 1_565 S
C366 C367 1.524 . S
C366 C380 1.377 . S
C367 C366 1.524 . S
C367 C368 1.397 . S
C367 C372 1.363 . S
C368 H345 0.950 1_565 S
C368 C367 1.397 . S
C368 C369 1.334 . S
C369 H346 0.950 . S
C369 C368 1.334 . S
C369 C370 1.287 . S
C370 C369 1.287 . S
C370 C371 1.524 . S
C370 H389 0.913 . S
C371 H347 0.950 . S
C371 C370 1.524 . S
C371 C372 1.415 . S
C372 H348 0.950 . S
C372 C367 1.363 . S
C372 C371 1.415 . S
C373 H349 0.951 . S
C373 C374 1.366 . S
C373 C375 1.388 . S
C374 C373 1.366 . S
C374 C378 1.385 . S
C375 H350 0.951 . S
C375 C373 1.388 . S
C375 C376 1.366 . S
C376 C375 1.366 . S
C376 C377 1.414 . S
C376 C379 1.499 . S
C377 H351 0.950 . S
C377 C376 1.414 . S
C377 C378 1.374 . S
C378 H352 0.950 . S
C378 C374 1.385 . S
C378 C377 1.374 . S
C379 C376 1.499 . S
C379 C380 1.373 . S
C379 C381 1.389 1_565 S
C380 H353 0.950 . S
C380 C366 1.377 . S
C380 C379 1.373 . S
C381 C365 1.377 . S
C381 C379 1.389 1_545 S
C381 C382 1.524 . S
C382 C381 1.524 . S
C382 C383 1.397 . S
C382 C387 1.363 . S
C383 H354 0.950 1_545 S
C383 C382 1.397 . S
C383 C384 1.334 . S
C384 H355 0.950 . S
C384 C383 1.334 . S
C384 C385 1.287 . S
C385 C384 1.287 . S
C385 C386 1.524 . S
C385 H388 0.999 . S
C386 H356 0.950 . S
C386 C385 1.524 . S
C386 C387 1.415 . S
C387 H357 0.950 . S
C387 C382 1.363 . S
C387 C386 1.415 . S
H388 C385 0.999 . S
H389 C370 0.913 . S
H390 C408 0.951 . S
H391 C410 0.951 . S
H392 C412 0.950 . S
H393 C413 0.950 . S
H394 C415 0.950 . S
H395 C418 0.950 . S
H396 C419 0.950 . S
H397 C421 0.950 . S
H398 C422 0.950 . S
H399 C423 0.951 1_554 S
H400 C425 0.951 . S
H401 C427 0.950 . S
H402 C428 0.950 . S
H403 C430 0.950 . S
H404 C433 0.950 . S
H405 C434 0.950 . S
H406 C436 0.950 . S
H407 C437 0.950 . S
C408 H390 0.951 . S
C408 C409 1.366 . S
C408 C410 1.388 . S
C409 C408 1.366 . S
C409 C413 1.385 . S
C410 H391 0.951 . S
C410 C408 1.388 . S
C410 C411 1.366 . S
C411 C410 1.366 . S
C411 C412 1.414 . S
C411 C414 1.499 . S
C412 H392 0.950 . S
C412 C411 1.414 . S
C412 C413 1.374 . S
C413 H393 0.950 . S
C413 C409 1.385 . S
C413 C412 1.374 . S
C414 C411 1.499 . S
C414 C415 1.373 . S
C414 C416 1.389 . S
C415 H394 0.950 . S
C415 C414 1.373 . S
C415 C431 1.377 . S
C416 C414 1.389 . S
C416 C417 1.524 . S
C416 C430 1.377 . S
C417 C416 1.524 . S
C417 C418 1.397 . S
C417 C422 1.363 . S
C418 H395 0.950 . S
C418 C417 1.397 . S
C418 C419 1.334 . S
C419 H396 0.950 . S
C419 C418 1.334 . S
C419 C420 1.287 . S
C420 C419 1.287 . S
C420 C421 1.524 . S
C420 H439 0.913 . S
C421 H397 0.950 . S
C421 C420 1.524 . S
C421 C422 1.415 . S
C422 H398 0.950 . S
C422 C417 1.363 . S
C422 C421 1.415 . S
C423 H399 0.951 1_556 S
C423 C424 1.366 . S
C423 C425 1.388 . S
C424 C423 1.366 . S
C424 C428 1.385 . S
C425 H400 0.951 . S
C425 C423 1.388 . S
C425 C426 1.366 . S
C426 C425 1.366 . S
C426 C427 1.414 . S
C426 C429 1.499 . S
C427 H401 0.950 . S
C427 C426 1.414 . S
C427 C428 1.374 . S
C428 H402 0.950 . S
C428 C424 1.385 . S
C428 C427 1.374 . S
C429 C426 1.499 . S
C429 C430 1.373 . S
C429 C431 1.389 . S
C430 H403 0.950 . S
C430 C416 1.377 . S
C430 C429 1.373 . S
C431 C415 1.377 . S
C431 C429 1.389 . S
C431 C432 1.524 1_556 S
C432 C431 1.524 1_554 S
C432 C433 1.397 . S
C432 C437 1.363 . S
C433 H404 0.950 . S
C433 C432 1.397 . S
C433 C434 1.334 . S
C434 H405 0.950 . S
C434 C433 1.334 . S
C434 C435 1.287 . S
C435 C434 1.287 . S
C435 C436 1.524 . S
C435 H438 0.999 . S
C436 H406 0.950 . S
C436 C435 1.524 . S
C436 C437 1.415 . S
C437 H407 0.950 . S
C437 C432 1.363 . S
C437 C436 1.415 . S
H438 C435 0.999 . S
H439 C420 0.913 . S
H440 C458 0.951 . S
H441 C460 0.951 . S
H442 C462 0.950 . S
H443 C463 0.950 . S
H444 C465 0.950 . S
H445 C468 0.950 . S
H446 C469 0.950 . S
H447 C471 0.950 . S
H448 C472 0.950 . S
H449 C473 0.951 . S
H450 C475 0.951 . S
H451 C477 0.950 . S
H452 C478 0.950 . S
H453 C480 0.950 . S
H454 C483 0.950 . S
H455 C484 0.950 . S
H456 C486 0.950 . S
H457 C487 0.950 . S
C458 H440 0.951 . S
C458 C459 1.366 . S
C458 C460 1.388 . S
C459 C458 1.366 . S
C459 C463 1.385 . S
C460 H441 0.951 . S
C460 C458 1.388 . S
C460 C461 1.366 . S
C461 C460 1.366 . S
C461 C462 1.414 . S
C461 C464 1.499 . S
C462 H442 0.950 . S
C462 C461 1.414 . S
C462 C463 1.374 . S
C463 H443 0.950 . S
C463 C459 1.385 . S
C463 C462 1.374 . S
C464 C461 1.499 . S
C464 C465 1.373 . S
C464 C466 1.389 1_455 S
C465 H444 0.950 . S
C465 C464 1.373 . S
C465 C481 1.377 . S
C466 C464 1.389 1_655 S
C466 C467 1.524 . S
C466 C480 1.377 . S
C467 C466 1.524 . S
C467 C468 1.397 . S
C467 C472 1.363 . S
C468 H445 0.950 . S
C468 C467 1.397 . S
C468 C469 1.334 . S
C469 H446 0.950 . S
C469 C468 1.334 . S
C469 C470 1.287 . S
C470 C469 1.287 . S
C470 C471 1.524 . S
C470 H489 0.913 . S
C471 H447 0.950 . S
C471 C470 1.524 . S
C471 C472 1.415 . S
C472 H448 0.950 . S
C472 C467 1.363 . S
C472 C471 1.415 . S
C473 H449 0.951 . S
C473 C474 1.366 . S
C473 C475 1.388 . S
C474 C473 1.366 . S
C474 C478 1.385 . S
C475 H450 0.951 . S
C475 C473 1.388 . S
C475 C476 1.366 . S
C476 C475 1.366 . S
C476 C477 1.414 . S
C476 C479 1.499 . S
C477 H451 0.950 . S
C477 C476 1.414 . S
C477 C478 1.374 . S
C478 H452 0.950 . S
C478 C474 1.385 . S
C478 C477 1.374 . S
C479 C476 1.499 . S
C479 C480 1.373 . S
C479 C481 1.389 1_655 S
C480 H453 0.950 . S
C480 C466 1.377 . S
C480 C479 1.373 . S
C481 C465 1.377 . S
C481 C479 1.389 1_455 S
C481 C482 1.524 . S
C482 C481 1.524 . S
C482 C483 1.397 . S
C482 C487 1.363 . S
C483 H454 0.950 . S
C483 C482 1.397 . S
C483 C484 1.334 . S
C484 H455 0.950 . S
C484 C483 1.334 . S
C484 C485 1.287 . S
C485 C484 1.287 . S
C485 C486 1.524 . S
C485 H488 0.999 . S
C486 H456 0.950 . S
C486 C485 1.524 . S
C486 C487 1.415 . S
C487 H457 0.950 . S
C487 C482 1.363 . S
C487 C486 1.415 . S
H488 C485 0.999 . S
H489 C470 0.913 . S
H490 C508 0.951 . S
H491 C510 0.951 . S
H492 C512 0.950 . S
H493 C513 0.950 . S
H494 C515 0.950 . S
H495 C518 0.950 . S
H496 C519 0.950 . S
H497 C521 0.950 . S
H498 C522 0.950 . S
H499 C523 0.951 . S
H500 C525 0.951 . S
H501 C527 0.950 . S
H502 C528 0.950 . S
H503 C530 0.950 . S
H504 C533 0.950 . S
H505 C534 0.950 . S
H506 C536 0.950 . S
H507 C537 0.950 . S
C508 H490 0.951 . S
C508 C509 1.366 . S
C508 C510 1.388 . S
C509 C508 1.366 . S
C509 C513 1.385 . S
C510 H491 0.951 . S
C510 C508 1.388 . S
C510 C511 1.366 . S
C511 C510 1.366 . S
C511 C512 1.414 . S
C511 C514 1.499 . S
C512 H492 0.950 . S
C512 C511 1.414 . S
C512 C513 1.374 . S
C513 H493 0.950 . S
C513 C509 1.385 . S
C513 C512 1.374 . S
C514 C511 1.499 . S
C514 C515 1.373 . S
C514 C516 1.389 . S
C515 H494 0.950 . S
C515 C514 1.373 . S
C515 C531 1.377 1_545 S
C516 C514 1.389 . S
C516 C517 1.524 . S
C516 C530 1.377 1_545 S
C517 C516 1.524 . S
C517 C518 1.397 . S
C517 C522 1.363 . S
C518 H495 0.950 . S
C518 C517 1.397 . S
C518 C519 1.334 . S
C519 H496 0.950 . S
C519 C518 1.334 . S
C519 C520 1.287 . S
C520 C519 1.287 . S
C520 C521 1.524 . S
C520 H539 0.913 . S
C521 H497 0.950 . S
C521 C520 1.524 . S
C521 C522 1.415 . S
C522 H498 0.950 . S
C522 C517 1.363 . S
C522 C521 1.415 . S
C523 H499 0.951 . S
C523 C524 1.366 . S
C523 C525 1.388 . S
C524 C523 1.366 . S
C524 C528 1.385 . S
C525 H500 0.951 . S
C525 C523 1.388 . S
C525 C526 1.366 . S
C526 C525 1.366 . S
C526 C527 1.414 . S
C526 C529 1.499 . S
C527 H501 0.950 . S
C527 C526 1.414 . S
C527 C528 1.374 . S
C528 H502 0.950 . S
C528 C524 1.385 . S
C528 C527 1.374 . S
C529 C526 1.499 . S
C529 C530 1.373 . S
C529 C531 1.389 . S
C530 H503 0.950 . S
C530 C516 1.377 1_565 S
C530 C529 1.373 . S
C531 C515 1.377 1_565 S
C531 C529 1.389 . S
C531 C532 1.524 . S
C532 C531 1.524 . S
C532 C533 1.397 . S
C532 C537 1.363 . S
C533 H504 0.950 . S
C533 C532 1.397 . S
C533 C534 1.334 . S
C534 H505 0.950 . S
C534 C533 1.334 . S
C534 C535 1.287 . S
C535 C534 1.287 . S
C535 C536 1.524 . S
C535 H538 0.999 . S
C536 H506 0.950 . S
C536 C535 1.524 . S
C536 C537 1.415 . S
C537 H507 0.950 . S
C537 C532 1.363 . S
C537 C536 1.415 . S
H538 C535 0.999 . S
H539 C520 0.913 . S
H540 C558 0.951 . S
H541 C560 0.951 . S
H542 C562 0.950 . S
H543 C563 0.950 . S
H544 C565 0.950 . S
H545 C568 0.950 . S
H546 C569 0.950 . S
H547 C571 0.950 . S
H548 C572 0.950 . S
H549 C573 0.951 . S
H550 C575 0.951 . S
H551 C577 0.950 . S
H552 C578 0.950 . S
H553 C580 0.950 . S
H554 C583 0.950 . S
H555 C584 0.950 . S
H556 C586 0.950 . S
H557 C587 0.950 . S
C558 H540 0.951 . S
C558 C559 1.366 . S
C558 C560 1.388 . S
C559 C558 1.366 . S
C559 C563 1.385 . S
C560 H541 0.951 . S
C560 C558 1.388 . S
C560 C561 1.366 . S
C561 C560 1.366 . S
C561 C562 1.414 . S
C561 C564 1.499 . S
C562 H542 0.950 . S
C562 C561 1.414 . S
C562 C563 1.374 . S
C563 H543 0.950 . S
C563 C559 1.385 . S
C563 C562 1.374 . S
C564 C561 1.499 . S
C564 C565 1.373 . S
C564 C566 1.389 . S
C565 H544 0.950 . S
C565 C564 1.373 . S
C565 C581 1.377 . S
C566 C564 1.389 . S
C566 C567 1.524 . S
C566 C580 1.377 . S
C567 C566 1.524 . S
C567 C568 1.397 . S
C567 C572 1.363 . S
C568 H545 0.950 . S
C568 C567 1.397 . S
C568 C569 1.334 . S
C569 H546 0.950 . S
C569 C568 1.334 . S
C569 C570 1.287 . S
C570 C569 1.287 . S
C570 C571 1.524 . S
C570 H589 0.913 . S
C571 H547 0.950 . S
C571 C570 1.524 . S
C571 C572 1.415 . S
C572 H548 0.950 . S
C572 C567 1.363 . S
C572 C571 1.415 . S
C573 H549 0.951 . S
C573 C574 1.366 . S
C573 C575 1.388 . S
C574 C573 1.366 . S
C574 C578 1.385 . S
C575 H550 0.951 . S
C575 C573 1.388 . S
C575 C576 1.366 . S
C576 C575 1.366 . S
C576 C577 1.414 . S
C576 C579 1.499 . S
C577 H551 0.950 . S
C577 C576 1.414 . S
C577 C578 1.374 . S
C578 H552 0.950 . S
C578 C574 1.385 . S
C578 C577 1.374 . S
C579 C576 1.499 . S
C579 C580 1.373 . S
C579 C581 1.389 . S
C580 H553 0.950 . S
C580 C566 1.377 . S
C580 C579 1.373 . S
C581 C565 1.377 . S
C581 C579 1.389 . S
C581 C582 1.524 . S
C582 C581 1.524 . S
C582 C583 1.397 . S
C582 C587 1.363 . S
C583 H554 0.950 . S
C583 C582 1.397 . S
C583 C584 1.334 . S
C584 H555 0.950 . S
C584 C583 1.334 . S
C584 C585 1.287 . S
C585 C584 1.287 . S
C585 C586 1.524 . S
C585 H588 0.999 . S
C586 H556 0.950 . S
C586 C585 1.524 . S
C586 C587 1.415 . S
C587 H557 0.950 . S
C587 C582 1.363 . S
C587 C586 1.415 . S
H588 C585 0.999 . S
H589 C570 0.913 . S
H590 C608 0.951 . S
H591 C610 0.951 . S
H592 C612 0.950 . S
H593 C613 0.950 . S
H594 C615 0.950 . S
H595 C618 0.950 . S
H596 C619 0.950 . S
H597 C621 0.950 . S
H598 C622 0.950 . S
H599 C623 0.951 . S
H600 C625 0.951 . S
H601 C627 0.950 . S
H602 C628 0.950 . S
H603 C630 0.950 . S
H604 C633 0.950 . S
H605 C634 0.950 . S
H606 C636 0.950 . S
H607 C637 0.950 . S
C608 H590 0.951 . S
C608 C609 1.366 . S
C608 C610 1.388 1_554 S
C609 C608 1.366 . S
C609 C613 1.385 . S
C610 H591 0.951 . S
C610 C608 1.388 1_556 S
C610 C611 1.366 . S
C611 C610 1.366 . S
C611 C612 1.414 . S
C611 C614 1.499 . S
C612 H592 0.950 . S
C612 C611 1.414 . S
C612 C613 1.374 1_556 S
C613 H593 0.950 . S
C613 C609 1.385 . S
C613 C612 1.374 1_554 S
C614 C611 1.499 . S
C614 C615 1.373 . S
C614 C616 1.389 . S
C615 H594 0.950 . S
C615 C614 1.373 . S
C615 C631 1.377 . S
C616 C614 1.389 . S
C616 C617 1.524 . S
C616 C630 1.377 . S
C617 C616 1.524 . S
C617 C618 1.397 . S
C617 C622 1.363 . S
C618 H595 0.950 . S
C618 C617 1.397 . S
C618 C619 1.334 . S
C619 H596 0.950 . S
C619 C618 1.334 . S
C619 C620 1.287 . S
C620 C619 1.287 . S
C620 C621 1.524 . S
C620 H639 0.913 . S
C621 H597 0.950 . S
C621 C620 1.524 . S
C621 C622 1.415 . S
C622 H598 0.950 . S
C622 C617 1.363 . S
C622 C621 1.415 . S
C623 H599 0.951 . S
C623 C624 1.366 . S
C623 C625 1.388 . S
C624 C623 1.366 . S
C624 C628 1.385 . S
C625 H600 0.951 . S
C625 C623 1.388 . S
C625 C626 1.366 . S
C626 C625 1.366 . S
C626 C627 1.414 . S
C626 C629 1.499 . S
C627 H601 0.950 . S
C627 C626 1.414 . S
C627 C628 1.374 . S
C628 H602 0.950 . S
C628 C624 1.385 . S
C628 C627 1.374 . S
C629 C626 1.499 . S
C629 C630 1.373 . S
C629 C631 1.389 . S
C630 H603 0.950 . S
C630 C616 1.377 . S
C630 C629 1.373 . S
C631 C615 1.377 . S
C631 C629 1.389 . S
C631 C632 1.524 . S
C632 C631 1.524 . S
C632 C633 1.397 . S
C632 C637 1.363 . S
C633 H604 0.950 . S
C633 C632 1.397 . S
C633 C634 1.334 . S
C634 H605 0.950 . S
C634 C633 1.334 . S
C634 C635 1.287 . S
C635 C634 1.287 . S
C635 C636 1.524 . S
C635 H638 0.999 . S
C636 H606 0.950 . S
C636 C635 1.524 . S
C636 C637 1.415 . S
C637 H607 0.950 . S
C637 C632 1.363 . S
C637 C636 1.415 . S
H638 C635 0.999 . S
H639 C620 0.913 . S
H640 C658 0.951 . S
H641 C660 0.951 . S
H642 C662 0.950 . S
H643 C663 0.950 . S
H644 C665 0.950 . S
H645 C668 0.950 . S
H646 C669 0.950 . S
H647 C671 0.950 . S
H648 C672 0.950 . S
H649 C673 0.951 . S
H650 C675 0.951 . S
H651 C677 0.950 . S
H652 C678 0.950 . S
H653 C680 0.950 . S
H654 C683 0.950 . S
H655 C684 0.950 . S
H656 C686 0.950 . S
H657 C687 0.950 . S
C658 H640 0.951 . S
C658 C659 1.366 . S
C658 C660 1.388 . S
C659 C658 1.366 . S
C659 C663 1.385 . S
C660 H641 0.951 . S
C660 C658 1.388 . S
C660 C661 1.366 . S
C661 C660 1.366 . S
C661 C662 1.414 . S
C661 C664 1.499 . S
C662 H642 0.950 . S
C662 C661 1.414 . S
C662 C663 1.374 . S
C663 H643 0.950 . S
C663 C659 1.385 . S
C663 C662 1.374 . S
C664 C661 1.499 . S
C664 C665 1.373 . S
C664 C666 1.389 . S
C665 H644 0.950 . S
C665 C664 1.373 . S
C665 C681 1.377 . S
C666 C664 1.389 . S
C666 C667 1.524 . S
C666 C680 1.377 . S
C667 C666 1.524 . S
C667 C668 1.397 . S
C667 C672 1.363 . S
C668 H645 0.950 . S
C668 C667 1.397 . S
C668 C669 1.334 . S
C669 H646 0.950 . S
C669 C668 1.334 . S
C669 C670 1.287 . S
C670 C669 1.287 . S
C670 C671 1.524 . S
C670 H689 0.913 . S
C671 H647 0.950 . S
C671 C670 1.524 . S
C671 C672 1.415 . S
C672 H648 0.950 . S
C672 C667 1.363 . S
C672 C671 1.415 . S
C673 H649 0.951 . S
C673 C674 1.366 . S
C673 C675 1.388 . S
C674 C673 1.366 . S
C674 C678 1.385 . S
C675 H650 0.951 . S
C675 C673 1.388 . S
C675 C676 1.366 . S
C676 C675 1.366 . S
C676 C677 1.414 . S
C676 C679 1.499 . S
C677 H651 0.950 . S
C677 C676 1.414 . S
C677 C678 1.374 . S
C678 H652 0.950 . S
C678 C674 1.385 . S
C678 C677 1.374 . S
C679 C676 1.499 . S
C679 C680 1.373 . S
C679 C681 1.389 . S
C680 H653 0.950 . S
C680 C666 1.377 . S
C680 C679 1.373 . S
C681 C665 1.377 . S
C681 C679 1.389 . S
C681 C682 1.524 . S
C682 C681 1.524 . S
C682 C683 1.397 . S
C682 C687 1.363 . S
C683 H654 0.950 . S
C683 C682 1.397 . S
C683 C684 1.334 . S
C684 H655 0.950 . S
C684 C683 1.334 . S
C684 C685 1.287 . S
C685 C684 1.287 . S
C685 C686 1.524 . S
C685 H688 0.999 . S
C686 H656 0.950 . S
C686 C685 1.524 . S
C686 C687 1.415 . S
C687 H657 0.950 . S
C687 C682 1.363 . S
C687 C686 1.415 . S
H688 C685 0.999 . S
H689 C670 0.913 . S
H690 C708 0.951 . S
H691 C710 0.951 . S
H692 C712 0.950 . S
H693 C713 0.950 . S
H694 C715 0.950 . S
H695 C718 0.950 . S
H696 C719 0.950 . S
H697 C721 0.950 . S
H698 C722 0.950 . S
H699 C723 0.951 . S
H700 C725 0.951 . S
H701 C727 0.950 . S
H702 C728 0.950 . S
H703 C730 0.950 . S
H704 C733 0.950 . S
H705 C734 0.950 . S
H706 C736 0.950 . S
H707 C737 0.950 . S
C708 H690 0.951 . S
C708 C709 1.366 . S
C708 C710 1.388 . S
C709 C708 1.366 . S
C709 C713 1.385 . S
C710 H691 0.951 . S
C710 C708 1.388 . S
C710 C711 1.366 . S
C711 C710 1.366 . S
C711 C712 1.414 . S
C711 C714 1.499 . S
C712 H692 0.950 . S
C712 C711 1.414 . S
C712 C713 1.374 . S
C713 H693 0.950 . S
C713 C709 1.385 . S
C713 C712 1.374 . S
C714 C711 1.499 . S
C714 C715 1.373 . S
C714 C716 1.389 . S
C715 H694 0.950 . S
C715 C714 1.373 . S
C715 C731 1.377 . S
C716 C714 1.389 . S
C716 C717 1.524 . S
C716 C730 1.377 . S
C717 C716 1.524 . S
C717 C718 1.397 . S
C717 C722 1.363 . S
C718 H695 0.950 . S
C718 C717 1.397 . S
C718 C719 1.334 . S
C719 H696 0.950 . S
C719 C718 1.334 . S
C719 C720 1.287 . S
C720 C719 1.287 . S
C720 C721 1.524 . S
C720 H739 0.913 . S
C721 H697 0.950 . S
C721 C720 1.524 . S
C721 C722 1.415 . S
C722 H698 0.950 . S
C722 C717 1.363 . S
C722 C721 1.415 . S
C723 H699 0.951 . S
C723 C724 1.366 . S
C723 C725 1.388 . S
C724 C723 1.366 . S
C724 C728 1.385 . S
C725 H700 0.951 . S
C725 C723 1.388 . S
C725 C726 1.366 . S
C726 C725 1.366 . S
C726 C727 1.414 . S
C726 C729 1.499 . S
C727 H701 0.950 . S
C727 C726 1.414 . S
C727 C728 1.374 . S
C728 H702 0.950 . S
C728 C724 1.385 . S
C728 C727 1.374 . S
C729 C726 1.499 . S
C729 C730 1.373 . S
C729 C731 1.389 . S
C730 H703 0.950 . S
C730 C716 1.377 . S
C730 C729 1.373 . S
C731 C715 1.377 . S
C731 C729 1.389 . S
C731 C732 1.524 . S
C732 C731 1.524 . S
C732 C733 1.397 . S
C732 C737 1.363 . S
C733 H704 0.950 . S
C733 C732 1.397 . S
C733 C734 1.334 . S
C734 H705 0.950 . S
C734 C733 1.334 . S
C734 C735 1.287 . S
C735 C734 1.287 . S
C735 C736 1.524 . S
C735 H738 0.999 . S
C736 H706 0.950 . S
C736 C735 1.524 . S
C736 C737 1.415 . S
C737 H707 0.950 . S
C737 C732 1.363 . S
C737 C736 1.415 . S
H738 C735 0.999 . S
H739 C720 0.913 . S
H740 C758 0.951 . S
H741 C760 0.951 . S
H742 C762 0.950 . S
H743 C763 0.950 . S
H744 C765 0.950 . S
H745 C768 0.950 . S
H746 C769 0.950 . S
H747 C771 0.950 . S
H748 C772 0.950 . S
H749 C773 0.951 . S
H750 C775 0.951 . S
H751 C777 0.950 . S
H752 C778 0.950 . S
H753 C780 0.950 . S
H754 C783 0.950 . S
H755 C784 0.950 . S
H756 C786 0.950 . S
H757 C787 0.950 . S
C758 H740 0.951 . S
C758 C759 1.366 . S
C758 C760 1.388 . S
C759 C758 1.366 . S
C759 C763 1.385 . S
C760 H741 0.951 . S
C760 C758 1.388 . S
C760 C761 1.366 . S
C761 C760 1.366 . S
C761 C762 1.414 . S
C761 C764 1.499 . S
C762 H742 0.950 . S
C762 C761 1.414 . S
C762 C763 1.374 . S
C763 H743 0.950 . S
C763 C759 1.385 . S
C763 C762 1.374 . S
C764 C761 1.499 . S
C764 C765 1.373 1_556 S
C764 C766 1.386 1_556 S
C765 H744 0.950 . S
C765 C764 1.373 1_554 S
C765 C781 1.377 . S
C766 C764 1.386 1_554 S
C766 C767 1.519 1_554 S
C766 C780 1.386 . S
C767 C766 1.519 1_556 S
C767 C768 1.397 . S
C767 C772 1.363 . S
C768 H745 0.950 . S
C768 C767 1.397 . S
C768 C769 1.334 . S
C769 H746 0.950 . S
C769 C768 1.334 . S
C769 C770 1.287 . S
C770 C769 1.287 . S
C770 C771 1.524 . S
C770 H789 0.913 . S
C771 H747 0.950 . S
C771 C770 1.524 . S
C771 C772 1.415 . S
C772 H748 0.950 . S
C772 C767 1.363 . S
C772 C771 1.415 . S
C773 H749 0.951 . S
C773 C774 1.366 . S
C773 C775 1.388 . S
C774 C773 1.366 . S
C774 C778 1.385 . S
C775 H750 0.951 . S
C775 C773 1.388 . S
C775 C776 1.366 . S
C776 C775 1.366 . S
C776 C777 1.414 . S
C776 C779 1.499 . S
C777 H751 0.950 . S
C777 C776 1.414 . S
C777 C778 1.374 . S
C778 H752 0.950 . S
C778 C774 1.385 . S
C778 C777 1.374 . S
C779 C776 1.499 . S
C779 C780 1.373 . S
C779 C781 1.389 . S
C780 H753 0.950 . S
C780 C766 1.386 . S
C780 C779 1.373 . S
C781 C765 1.377 . S
C781 C779 1.389 . S
C781 C782 1.524 . S
C782 C781 1.524 . S
C782 C783 1.397 . S
C782 C787 1.363 . S
C783 H754 0.950 . S
C783 C782 1.397 . S
C783 C784 1.334 . S
C784 H755 0.950 . S
C784 C783 1.334 . S
C784 C785 1.287 . S
C785 C784 1.287 . S
C785 C786 1.524 . S
C785 H788 0.999 . S
C786 H756 0.950 . S
C786 C785 1.524 . S
C786 C787 1.415 . S
C787 H757 0.950 . S
C787 C782 1.363 . S
C787 C786 1.415 . S
H788 C785 0.999 . S
H789 C770 0.913 . S
H790 C808 0.951 . S
H791 C810 0.951 . S
H792 C812 0.950 . S
H793 C813 0.950 . S
H794 C815 0.950 . S
H795 C818 0.950 . S
H796 C819 0.950 . S
H797 C821 0.950 . S
H798 C822 0.950 . S
H799 C823 0.951 . S
H800 C825 0.951 . S
H801 C827 0.950 . S
H802 C828 0.950 . S
H803 C830 0.950 . S
H804 C833 0.950 . S
H805 C834 0.950 . S
H806 C836 0.950 . S
H807 C837 0.950 . S
C808 H790 0.951 . S
C808 C809 1.366 . S
C808 C810 1.388 . S
C809 C808 1.366 . S
C809 C813 1.385 . S
C810 H791 0.951 . S
C810 C808 1.388 . S
C810 C811 1.366 . S
C811 C810 1.366 . S
C811 C812 1.414 . S
C811 C814 1.499 . S
C812 H792 0.950 . S
C812 C811 1.414 . S
C812 C813 1.374 . S
C813 H793 0.950 . S
C813 C809 1.385 . S
C813 C812 1.374 . S
C814 C811 1.499 . S
C814 C815 1.373 . S
C814 C816 1.389 . S
C815 H794 0.950 . S
C815 C814 1.373 . S
C815 C831 1.377 . S
C816 C814 1.389 . S
C816 C817 1.524 . S
C816 C830 1.377 . S
C817 C816 1.524 . S
C817 C818 1.397 . S
C817 C822 1.363 . S
C818 H795 0.950 . S
C818 C817 1.397 . S
C818 C819 1.334 . S
C819 H796 0.950 . S
C819 C818 1.334 . S
C819 C820 1.287 . S
C820 C819 1.287 . S
C820 C821 1.524 . S
C820 H839 0.913 . S
C821 H797 0.950 . S
C821 C820 1.524 . S
C821 C822 1.415 . S
C822 H798 0.950 . S
C822 C817 1.363 . S
C822 C821 1.415 . S
C823 H799 0.951 . S
C823 C824 1.366 . S
C823 C825 1.388 . S
C824 C823 1.366 . S
C824 C828 1.385 . S
C825 H800 0.951 . S
C825 C823 1.388 . S
C825 C826 1.366 . S
C826 C825 1.366 . S
C826 C827 1.414 . S
C826 C829 1.499 . S
C827 H801 0.950 . S
C827 C826 1.414 . S
C827 C828 1.374 . S
C828 H802 0.950 . S
C828 C824 1.385 . S
C828 C827 1.374 . S
C829 C826 1.499 . S
C829 C830 1.373 . S
C829 C831 1.389 . S
C830 H803 0.950 . S
C830 C816 1.377 . S
C830 C829 1.373 . S
C831 C815 1.377 . S
C831 C829 1.389 . S
C831 C832 1.524 . S
C832 C831 1.524 . S
C832 C833 1.397 . S
C832 C837 1.363 . S
C833 H804 0.950 . S
C833 C832 1.397 . S
C833 C834 1.334 . S
C834 H805 0.950 . S
C834 C833 1.334 . S
C834 C835 1.287 . S
C835 C834 1.287 . S
C835 C836 1.524 . S
C835 H838 0.999 . S
C836 H806 0.950 . S
C836 C835 1.524 . S
C836 C837 1.415 . S
C837 H807 0.950 . S
C837 C832 1.363 . S
C837 C836 1.415 . S
H838 C835 0.999 . S
H839 C820 0.913 . S
H840 C858 0.951 . S
H841 C860 0.951 . S
H842 C862 0.950 . S
H843 C863 0.950 . S
H844 C865 0.950 . S
H845 C868 0.950 . S
H846 C869 0.950 . S
H847 C871 0.950 . S
H848 C872 0.950 . S
H849 C873 0.951 . S
H850 C875 0.951 . S
H851 C877 0.950 . S
H852 C878 0.950 . S
H853 C880 0.950 . S
H854 C883 0.950 . S
H855 C884 0.950 . S
H856 C886 0.950 . S
H857 C887 0.950 . S
C858 H840 0.951 . S
C858 C859 1.366 . S
C858 C860 1.388 . S
C859 C858 1.366 . S
C859 C863 1.385 . S
C860 H841 0.951 . S
C860 C858 1.388 . S
C860 C861 1.366 . S
C861 C860 1.366 . S
C861 C862 1.414 . S
C861 C864 1.499 . S
C862 H842 0.950 . S
C862 C861 1.414 . S
C862 C863 1.374 . S
C863 H843 0.950 . S
C863 C859 1.385 . S
C863 C862 1.374 . S
C864 C861 1.499 . S
C864 C865 1.373 . S
C864 C866 1.389 . S
C865 H844 0.950 . S
C865 C864 1.373 . S
C865 C881 1.377 . S
C866 C864 1.389 . S
C866 C867 1.524 . S
C866 C880 1.377 . S
C867 C866 1.524 . S
C867 C868 1.397 . S
C867 C872 1.363 . S
C868 H845 0.950 . S
C868 C867 1.397 . S
C868 C869 1.334 . S
C869 H846 0.950 . S
C869 C868 1.334 . S
C869 C870 1.287 . S
C870 C869 1.287 . S
C870 C871 1.524 . S
C870 H889 0.913 . S
C871 H847 0.950 . S
C871 C870 1.524 . S
C871 C872 1.415 . S
C872 H848 0.950 . S
C872 C867 1.363 . S
C872 C871 1.415 . S
C873 H849 0.951 . S
C873 C874 1.366 . S
C873 C875 1.388 . S
C874 C873 1.366 . S
C874 C878 1.385 . S
C875 H850 0.951 . S
C875 C873 1.388 . S
C875 C876 1.366 . S
C876 C875 1.366 . S
C876 C877 1.414 . S
C876 C879 1.499 . S
C877 H851 0.950 . S
C877 C876 1.414 . S
C877 C878 1.374 . S
C878 H852 0.950 . S
C878 C874 1.385 . S
C878 C877 1.374 . S
C879 C876 1.499 . S
C879 C880 1.373 . S
C879 C881 1.389 . S
C880 H853 0.950 . S
C880 C866 1.377 . S
C880 C879 1.373 . S
C881 C865 1.377 . S
C881 C879 1.389 . S
C881 C882 1.524 . S
C882 C881 1.524 . S
C882 C883 1.397 . S
C882 C887 1.363 . S
C883 H854 0.950 . S
C883 C882 1.397 . S
C883 C884 1.334 . S
C884 H855 0.950 . S
C884 C883 1.334 . S
C884 C885 1.287 . S
C885 C884 1.287 . S
C885 C886 1.524 . S
C885 H888 0.999 . S
C886 H856 0.950 . S
C886 C885 1.524 . S
C886 C887 1.415 . S
C887 H857 0.950 . S
C887 C882 1.363 . S
C887 C886 1.415 . S
H888 C885 0.999 . S
H889 C870 0.913 . S
H890 C908 0.951 . S
H891 C910 0.951 . S
H892 C912 0.950 . S
H893 C913 0.950 . S
H894 C915 0.950 . S
H895 C918 0.950 . S
H896 C919 0.950 . S
H897 C921 0.950 . S
H898 C922 0.950 . S
H899 C923 0.951 . S
H900 C925 0.951 . S
H901 C927 0.950 . S
H902 C928 0.950 . S
H903 C930 0.950 . S
H904 C933 0.950 . S
H905 C934 0.950 . S
H906 C936 0.950 . S
H907 C937 0.950 . S
C908 H890 0.951 . S
C908 C909 1.366 . S
C908 C910 1.388 . S
C909 C908 1.366 . S
C909 C913 1.385 . S
C910 H891 0.951 . S
C910 C908 1.388 . S
C910 C911 1.366 . S
C911 C910 1.366 . S
C911 C912 1.414 . S
C911 C914 1.499 . S
C912 H892 0.950 . S
C912 C911 1.414 . S
C912 C913 1.374 . S
C913 H893 0.950 . S
C913 C909 1.385 . S
C913 C912 1.374 . S
C914 C911 1.499 . S
C914 C915 1.373 . S
C914 C916 1.389 . S
C915 H894 0.950 . S
C915 C914 1.373 . S
C915 C931 1.377 . S
C916 C914 1.389 . S
C916 C917 1.524 . S
C916 C930 1.377 . S
C917 C916 1.524 . S
C917 C918 1.397 . S
C917 C922 1.363 . S
C918 H895 0.950 . S
C918 C917 1.397 . S
C918 C919 1.334 . S
C919 H896 0.950 . S
C919 C918 1.334 . S
C919 C920 1.287 . S
C920 C919 1.287 . S
C920 C921 1.524 . S
C920 H939 0.913 . S
C921 H897 0.950 . S
C921 C920 1.524 . S
C921 C922 1.415 . S
C922 H898 0.950 . S
C922 C917 1.363 . S
C922 C921 1.415 . S
C923 H899 0.951 . S
C923 C924 1.366 . S
C923 C925 1.388 . S
C924 C923 1.366 . S
C924 C928 1.385 . S
C925 H900 0.951 . S
C925 C923 1.388 . S
C925 C926 1.366 . S
C926 C925 1.366 . S
C926 C927 1.414 . S
C926 C929 1.499 . S
C927 H901 0.950 . S
C927 C926 1.414 . S
C927 C928 1.374 . S
C928 H902 0.950 . S
C928 C924 1.385 . S
C928 C927 1.374 . S
C929 C926 1.499 . S
C929 C930 1.373 . S
C929 C931 1.389 . S
C930 H903 0.950 . S
C930 C916 1.377 . S
C930 C929 1.373 . S
C931 C915 1.377 . S
C931 C929 1.389 . S
C931 C932 1.524 . S
C932 C931 1.524 . S
C932 C933 1.397 . S
C932 C937 1.363 . S
C933 H904 0.950 . S
C933 C932 1.397 . S
C933 C934 1.334 . S
C934 H905 0.950 . S
C934 C933 1.334 . S
C934 C935 1.287 . S
C935 C934 1.287 . S
C935 C936 1.524 . S
C935 H938 0.999 . S
C936 H906 0.950 . S
C936 C935 1.524 . S
C936 C937 1.415 . S
C937 H907 0.950 . S
C937 C932 1.363 . S
C937 C936 1.415 . S
H938 C935 0.999 . S
H939 C920 0.913 . S
H940 C958 0.951 . S
H941 C960 0.951 . S
H942 C962 0.950 . S
H943 C963 0.950 . S
H944 C965 0.950 . S
H945 C968 0.950 . S
H946 C969 0.950 . S
H947 C971 0.950 . S
H948 C972 0.950 . S
H949 C973 0.958 . S
H950 C975 0.951 . S
H951 C977 0.950 . S
H952 C978 0.950 . S
H953 C980 0.950 . S
H954 C983 0.950 . S
H955 C984 0.950 . S
H956 C986 0.950 . S
H957 C987 0.950 . S
C958 H940 0.951 . S
C958 C959 1.366 . S
C958 C960 1.388 . S
C959 C958 1.366 . S
C959 C963 1.385 . S
C960 H941 0.951 . S
C960 C958 1.388 . S
C960 C961 1.366 . S
C961 C960 1.366 . S
C961 C962 1.414 . S
C961 C964 1.499 . S
C962 H942 0.950 . S
C962 C961 1.414 . S
C962 C963 1.374 . S
C963 H943 0.950 . S
C963 C959 1.385 . S
C963 C962 1.374 . S
C964 C961 1.499 . S
C964 C965 1.373 . S
C964 C966 1.389 . S
C965 H944 0.950 . S
C965 C964 1.373 . S
C965 C981 1.377 . S
C966 C964 1.389 . S
C966 C967 1.524 . S
C966 C980 1.377 . S
C967 C966 1.524 . S
C967 C968 1.397 . S
C967 C972 1.363 . S
C968 H945 0.950 . S
C968 C967 1.397 . S
C968 C969 1.334 . S
C969 H946 0.950 . S
C969 C968 1.334 . S
C969 C970 1.287 . S
C970 C969 1.287 . S
C970 C971 1.524 . S
C970 H989 0.913 . S
C971 H947 0.950 . S
C971 C970 1.524 . S
C971 C972 1.415 . S
C972 H948 0.950 . S
C972 C967 1.363 . S
C972 C971 1.415 . S
C973 H949 0.958 . S
C973 C974 1.366 . S
C973 C975 1.388 1_556 S
C974 C973 1.366 . S
C974 C978 1.385 . S
C975 H950 0.951 . S
C975 C973 1.388 1_554 S
C975 C976 1.366 1_554 S
C976 C975 1.366 1_556 S
C976 C977 1.414 . S
C976 C979 1.499 1_556 S
C977 H951 0.950 . S
C977 C976 1.414 . S
C977 C978 1.374 . S
C978 H952 0.950 . S
C978 C974 1.385 . S
C978 C977 1.374 . S
C979 C976 1.499 1_554 S
C979 C980 1.373 . S
C979 C981 1.389 . S
C980 H953 0.950 . S
C980 C966 1.377 . S
C980 C979 1.373 . S
C981 C965 1.377 . S
C981 C979 1.389 . S
C981 C982 1.524 . S
C982 C981 1.524 . S
C982 C983 1.397 1_554 S
C982 C987 1.363 . S
C983 H954 0.950 . S
C983 C982 1.397 1_556 S
C983 C984 1.334 . S
C984 H955 0.950 . S
C984 C983 1.334 . S
C984 C985 1.293 . S
C985 C984 1.293 . S
C985 C986 1.515 1_556 S
C985 H988 1.001 . S
C986 H956 0.950 . S
C986 C985 1.515 1_554 S
C986 C987 1.415 . S
C987 H957 0.950 . S
C987 C982 1.363 . S
C987 C986 1.415 . S
H988 C985 1.001 . S
H989 C970 0.913 . S
H990 C1008 0.951 . S
H991 C1010 0.951 . S
H992 C1012 0.950 . S
H993 C1013 0.950 . S
H994 C1015 0.950 . S
H995 C1018 0.950 . S
H996 C1019 0.950 . S
H997 C1021 0.950 . S
H998 C1022 0.950 . S
H999 C1023 0.951 . S
H1000 C1025 0.951 . S
H1001 C1027 0.950 . S
H1002 C1028 0.950 . S
H1003 C1030 0.950 . S
H1004 C1033 0.950 . S
H1005 C1034 0.950 1_556 S
H1006 C1036 0.950 . S
H1007 C1037 0.950 . S
C1008 H990 0.951 . S
C1008 C1009 1.366 . S
C1008 C1010 1.388 . S
C1009 C1008 1.366 . S
C1009 C1013 1.385 . S
C1010 H991 0.951 . S
C1010 C1008 1.388 . S
C1010 C1011 1.366 . S
C1011 C1010 1.366 . S
C1011 C1012 1.414 . S
C1011 C1014 1.499 . S
C1012 H992 0.950 . S
C1012 C1011 1.414 . S
C1012 C1013 1.374 . S
C1013 H993 0.950 . S
C1013 C1009 1.385 . S
C1013 C1012 1.374 . S
C1014 C1011 1.499 . S
C1014 C1015 1.373 . S
C1014 C1016 1.389 . S
C1015 H994 0.950 . S
C1015 C1014 1.373 . S
C1015 C1031 1.377 . S
C1016 C1014 1.389 . S
C1016 C1017 1.524 . S
C1016 C1030 1.377 . S
C1017 C1016 1.524 . S
C1017 C1018 1.397 . S
C1017 C1022 1.363 . S
C1018 H995 0.950 . S
C1018 C1017 1.397 . S
C1018 C1019 1.334 . S
C1019 H996 0.950 . S
C1019 C1018 1.334 . S
C1019 C1020 1.287 . S
C1020 C1019 1.287 . S
C1020 C1021 1.524 . S
C1020 H1039 0.913 . S
C1021 H997 0.950 . S
C1021 C1020 1.524 . S
C1021 C1022 1.415 . S
C1022 H998 0.950 . S
C1022 C1017 1.363 . S
C1022 C1021 1.415 . S
C1023 H999 0.951 . S
C1023 C1024 1.366 . S
C1023 C1025 1.388 . S
C1024 C1023 1.366 . S
C1024 C1028 1.385 . S
C1025 H1000 0.951 . S
C1025 C1023 1.388 . S
C1025 C1026 1.366 . S
C1026 C1025 1.366 . S
C1026 C1027 1.414 . S
C1026 C1029 1.499 . S
C1027 H1001 0.950 . S
C1027 C1026 1.414 . S
C1027 C1028 1.374 . S
C1028 H1002 0.950 . S
C1028 C1024 1.385 . S
C1028 C1027 1.374 . S
C1029 C1026 1.499 . S
C1029 C1030 1.373 . S
C1029 C1031 1.389 . S
C1030 H1003 0.950 . S
C1030 C1016 1.377 . S
C1030 C1029 1.373 . S
C1031 C1015 1.377 . S
C1031 C1029 1.389 . S
C1031 C1032 1.524 . S
C1032 C1031 1.524 . S
C1032 C1033 1.397 . S
C1032 C1037 1.363 . S
C1033 H1004 0.950 . S
C1033 C1032 1.397 . S
C1033 C1034 1.334 . S
C1034 H1005 0.950 1_554 S
C1034 C1033 1.334 . S
C1034 C1035 1.287 . S
C1035 C1034 1.287 . S
C1035 C1036 1.524 . S
C1035 H1038 0.999 1_554 S
C1036 H1006 0.950 . S
C1036 C1035 1.524 . S
C1036 C1037 1.415 . S
C1037 H1007 0.950 . S
C1037 C1032 1.363 . S
C1037 C1036 1.415 . S
H1038 C1035 0.999 1_556 S
H1039 C1020 0.913 . S
H1040 C1058 0.951 . S
H1041 C1060 0.951 . S
H1042 C1062 0.950 . S
H1043 C1063 0.950 . S
H1044 C1065 0.950 . S
H1045 C1068 0.950 . S
H1046 C1069 0.950 . S
H1047 C1071 0.950 . S
H1048 C1072 0.950 . S
H1049 C1073 0.951 . S
H1050 C1075 0.951 . S
H1051 C1077 0.950 . S
H1052 C1078 0.950 . S
H1053 C1080 0.950 . S
H1054 C1083 0.950 . S
H1055 C1084 0.950 . S
H1056 C1086 0.950 . S
H1057 C1087 0.950 . S
C1058 H1040 0.951 . S
C1058 C1059 1.366 . S
C1058 C1060 1.388 . S
C1059 C1058 1.366 . S
C1059 C1063 1.385 . S
C1060 H1041 0.951 . S
C1060 C1058 1.388 . S
C1060 C1061 1.366 . S
C1061 C1060 1.366 . S
C1061 C1062 1.414 . S
C1061 C1064 1.499 . S
C1062 H1042 0.950 . S
C1062 C1061 1.414 . S
C1062 C1063 1.374 . S
C1063 H1043 0.950 . S
C1063 C1059 1.385 . S
C1063 C1062 1.374 . S
C1064 C1061 1.499 . S
C1064 C1065 1.373 . S
C1064 C1066 1.389 . S
C1065 H1044 0.950 . S
C1065 C1064 1.373 . S
C1065 C1081 1.377 . S
C1066 C1064 1.389 . S
C1066 C1067 1.524 . S
C1066 C1080 1.377 . S
C1067 C1066 1.524 . S
C1067 C1068 1.397 . S
C1067 C1072 1.363 . S
C1068 H1045 0.950 . S
C1068 C1067 1.397 . S
C1068 C1069 1.334 . S
C1069 H1046 0.950 . S
C1069 C1068 1.334 . S
C1069 C1070 1.287 . S
C1070 C1069 1.287 . S
C1070 C1071 1.524 . S
C1070 H1089 0.913 . S
C1071 H1047 0.950 . S
C1071 C1070 1.524 . S
C1071 C1072 1.415 . S
C1072 H1048 0.950 . S
C1072 C1067 1.363 . S
C1072 C1071 1.415 . S
C1073 H1049 0.951 . S
C1073 C1074 1.366 . S
C1073 C1075 1.388 . S
C1074 C1073 1.366 . S
C1074 C1078 1.385 . S
C1075 H1050 0.951 . S
C1075 C1073 1.388 . S
C1075 C1076 1.366 . S
C1076 C1075 1.366 . S
C1076 C1077 1.414 . S
C1076 C1079 1.499 . S
C1077 H1051 0.950 . S
C1077 C1076 1.414 . S
C1077 C1078 1.374 . S
C1078 H1052 0.950 . S
C1078 C1074 1.385 . S
C1078 C1077 1.374 . S
C1079 C1076 1.499 . S
C1079 C1080 1.373 . S
C1079 C1081 1.389 . S
C1080 H1053 0.950 . S
C1080 C1066 1.377 . S
C1080 C1079 1.373 . S
C1081 C1065 1.377 . S
C1081 C1079 1.389 . S
C1081 C1082 1.524 . S
C1082 C1081 1.524 . S
C1082 C1083 1.397 . S
C1082 C1087 1.363 . S
C1083 H1054 0.950 . S
C1083 C1082 1.397 . S
C1083 C1084 1.334 . S
C1084 H1055 0.950 . S
C1084 C1083 1.334 . S
C1084 C1085 1.287 . S
C1085 C1084 1.287 . S
C1085 C1086 1.524 . S
C1085 H1088 0.999 . S
C1086 H1056 0.950 . S
C1086 C1085 1.524 . S
C1086 C1087 1.415 . S
C1087 H1057 0.950 . S
C1087 C1082 1.363 . S
C1087 C1086 1.415 . S
H1088 C1085 0.999 . S
H1089 C1070 0.913 . S
H1090 C1108 0.951 . S
H1091 C1110 0.951 . S
H1092 C1112 0.950 . S
H1093 C1113 0.950 . S
H1094 C1115 0.950 . S
H1095 C1118 0.950 . S
H1096 C1119 0.950 . S
H1097 C1121 0.950 . S
H1098 C1122 0.950 . S
H1099 C1123 0.951 . S
H1100 C1125 0.951 . S
H1101 C1127 0.950 . S
H1102 C1128 0.950 . S
H1103 C1130 0.950 . S
H1104 C1133 0.950 . S
H1105 C1134 0.950 . S
H1106 C1136 0.950 . S
H1107 C1137 0.950 . S
C1108 H1090 0.951 . S
C1108 C1109 1.366 . S
C1108 C1110 1.388 . S
C1109 C1108 1.366 . S
C1109 C1113 1.385 . S
C1110 H1091 0.951 . S
C1110 C1108 1.388 . S
C1110 C1111 1.366 . S
C1111 C1110 1.366 . S
C1111 C1112 1.414 . S
C1111 C1114 1.499 . S
C1112 H1092 0.950 . S
C1112 C1111 1.414 . S
C1112 C1113 1.374 . S
C1113 H1093 0.950 . S
C1113 C1109 1.385 . S
C1113 C1112 1.374 . S
C1114 C1111 1.499 . S
C1114 C1115 1.373 . S
C1114 C1116 1.389 . S
C1115 H1094 0.950 . S
C1115 C1114 1.373 . S
C1115 C1131 1.377 . S
C1116 C1114 1.389 . S
C1116 C1117 1.524 . S
C1116 C1130 1.377 . S
C1117 C1116 1.524 . S
C1117 C1118 1.397 . S
C1117 C1122 1.363 . S
C1118 H1095 0.950 . S
C1118 C1117 1.397 . S
C1118 C1119 1.334 . S
C1119 H1096 0.950 . S
C1119 C1118 1.334 . S
C1119 C1120 1.287 . S
C1120 C1119 1.287 . S
C1120 C1121 1.524 . S
C1120 H1139 0.913 . S
C1121 H1097 0.950 . S
C1121 C1120 1.524 . S
C1121 C1122 1.415 . S
C1122 H1098 0.950 . S
C1122 C1117 1.363 . S
C1122 C1121 1.415 . S
C1123 H1099 0.951 . S
C1123 C1124 1.366 . S
C1123 C1125 1.388 . S
C1124 C1123 1.366 . S
C1124 C1128 1.385 . S
C1125 H1100 0.951 . S
C1125 C1123 1.388 . S
C1125 C1126 1.366 . S
C1126 C1125 1.366 . S
C1126 C1127 1.414 . S
C1126 C1129 1.499 . S
C1127 H1101 0.950 . S
C1127 C1126 1.414 . S
C1127 C1128 1.374 . S
C1128 H1102 0.950 . S
C1128 C1124 1.385 . S
C1128 C1127 1.374 . S
C1129 C1126 1.499 . S
C1129 C1130 1.373 . S
C1129 C1131 1.389 . S
C1130 H1103 0.950 . S
C1130 C1116 1.377 . S
C1130 C1129 1.373 . S
C1131 C1115 1.377 . S
C1131 C1129 1.389 . S
C1131 C1132 1.524 . S
C1132 C1131 1.524 . S
C1132 C1133 1.397 . S
C1132 C1137 1.363 . S
C1133 H1104 0.950 . S
C1133 C1132 1.397 . S
C1133 C1134 1.334 . S
C1134 H1105 0.950 . S
C1134 C1133 1.334 . S
C1134 C1135 1.287 . S
C1135 C1134 1.287 . S
C1135 C1136 1.524 . S
C1135 H1138 0.999 . S
C1136 H1106 0.950 . S
C1136 C1135 1.524 . S
C1136 C1137 1.415 . S
C1137 H1107 0.950 . S
C1137 C1132 1.363 . S
C1137 C1136 1.415 . S
H1138 C1135 0.999 . S
H1139 C1120 0.913 . S
C259 C210 1.662 . S
C274 C10 1.662 . S
C309 C9 1.376 . S
C324 C49 1.374 . S
C359 C50 1.661 . S
C374 C90 1.661 . S
C409 C89 1.376 . S
C424 C129 1.375 1_556 S
C459 C170 1.661 . S
C474 C130 1.661 . S
C509 C209 1.374 . S
C524 C169 1.376 . S
C559 C6 1.046 . S
C574 C15 1.046 . S
C609 C55 1.047 . S
C624 C46 1.047 . S
C659 C86 1.047 . S
C674 C95 1.047 . S
C709 C135 1.047 . S
C724 C126 1.047 . S
C759 C175 1.047 . S
C774 C166 1.047 . S
C809 C215 1.047 . S
C824 C206 1.047 1_554 S
C859 C19 1.768 . S
C874 C178 1.797 . S
C909 C58 1.798 . S
C924 C219 1.768 . S
C959 C18 1.797 . S
C974 C99 1.768 . S
C1009 C59 1.769 . S
C1024 C138 1.797 . S
C1059 C179 1.768 . S
C1074 C98 1.797 . S
C1109 C139 1.768 . S
C1124 C218 1.797 . S
