# Generated by pormake.
# Topology mok, (4)-cn, num edge types: 1
# Building blocks:
#     Node 0, Type 0, BuildingBlock: NAHDIM_clean_sbu_0, # of connection points: 4
#     Node 1, Type 0, BuildingBlock: NAHDIM_clean_sbu_0, # of connection points: 4
#     Node 2, Type 0, BuildingBlock: NAHDIM_clean_sbu_0, # of connection points: 4
#     Node 3, Type 0, BuildingBlock: NAHDIM_clean_sbu_0, # of connection points: 4
#     Node 4, Type 0, BuildingBlock: NAHDIM_clean_sbu_0, # of connection points: 4
#     Node 5, Type 0, BuildingBlock: NAHDIM_clean_sbu_0, # of connection points: 4
#     Node 6, Type 0, BuildingBlock: NAHDIM_clean_sbu_0, # of connection points: 4
#     Node 7, Type 0, BuildingBlock: NAHDIM_clean_sbu_0, # of connection points: 4
#     Edge 8, Type (0, 0), BuildingBlock: EZIPEK_clean_linker_0, # of connection points: 2
#     Edge 9, Type (0, 0), BuildingBlock: EZIPEK_clean_linker_0, # of connection points: 2
#     Edge 10, Type (0, 0), BuildingBlock: EZIPEK_clean_linker_0, # of connection points: 2
#     Edge 11, Type (0, 0), BuildingBlock: EZIPEK_clean_linker_0, # of connection points: 2
#     Edge 12, Type (0, 0), BuildingBlock: EZIPEK_clean_linker_0, # of connection points: 2
#     Edge 13, Type (0, 0), BuildingBlock: EZIPEK_clean_linker_0, # of connection points: 2
#     Edge 14, Type (0, 0), BuildingBlock: EZIPEK_clean_linker_0, # of connection points: 2
#     Edge 15, Type (0, 0), BuildingBlock: EZIPEK_clean_linker_0, # of connection points: 2
#     Edge 16, Type (0, 0), BuildingBlock: EZIPEK_clean_linker_0, # of connection points: 2
#     Edge 17, Type (0, 0), BuildingBlock: EZIPEK_clean_linker_0, # of connection points: 2
#     Edge 18, Type (0, 0), BuildingBlock: EZIPEK_clean_linker_0, # of connection points: 2
#     Edge 19, Type (0, 0), BuildingBlock: EZIPEK_clean_linker_0, # of connection points: 2
#     Edge 20, Type (0, 0), BuildingBlock: EZIPEK_clean_linker_0, # of connection points: 2
#     Edge 21, Type (0, 0), BuildingBlock: EZIPEK_clean_linker_0, # of connection points: 2
#     Edge 22, Type (0, 0), BuildingBlock: EZIPEK_clean_linker_0, # of connection points: 2
#     Edge 23, Type (0, 0), BuildingBlock: EZIPEK_clean_linker_0, # of connection points: 2
# Relax obj value: 0.049
# Max RMSD: 0.061
# Mean RMSD: 0.061
data_MOF--net-mok--node1-NAHDIM_clean_sbu_0--edge1-EZIPEK_clean_linker_0
_symmetry_space_group_name_H-M    P1
_symmetry_Int_Tables_number       1
_symmetry_cell_setting            triclinic
loop_
_symmetry_equiv_pos_as_xyz
'x, y, z'
_cell_length_a     37.09717
_cell_length_b     14.738182
_cell_length_c     18.214641
_cell_angle_alpha  90.020871
_cell_angle_beta   90.061257
_cell_angle_gamma 89.964684
loop_
_atom_site_label
_atom_site_type_symbol
_atom_site_fract_x
_atom_site_fract_y
_atom_site_fract_z
_atom_type_partial_charge
C0 C 0.53177 0.17623 0.013 0.0
O1 O 0.51255 0.25011 0.00341 0.0
O2 O 0.56974 0.35902 0.91152 0.0
Zn3 Zn 0.59027 0.3002 0.00171 0.0
O4 O 0.58448 0.37852 0.09067 0.0
C5 C 0.66593 0.33918 0.98091 0.0
O6 O 0.6552 0.42403 0.98287 0.0
O7 O 0.56585 0.18119 0.01592 0.0
C8 C 0.58774 0.34227 0.15356 0.0
O9 O 0.59311 0.25444 0.15892 0.0
C10 C 0.57156 0.44384 0.90011 0.0
O11 O 0.58523 0.49712 0.95078 0.0
O12 O 0.64304 0.27557 0.98696 0.0
C13 C 0.4648 0.82374 0.0137 0.0
O14 O 0.48376 0.74876 0.0081 0.0
O15 O 0.42511 0.64324 0.90789 0.0
Zn16 Zn 0.40579 0.70183 0.99921 0.0
O17 O 0.41472 0.62348 0.08689 0.0
C18 C 0.32871 0.66754 0.98219 0.0
O19 O 0.33802 0.58196 0.97616 0.0
O20 O 0.43068 0.82035 0.01224 0.0
C21 C 0.40902 0.65802 0.14962 0.0
O22 O 0.39822 0.74262 0.15482 0.0
C23 C 0.42222 0.55874 0.89575 0.0
O24 O 0.40695 0.50654 0.94516 0.0
O25 O 0.35268 0.72805 0.99105 0.0
C26 C 0.543 0.83575 0.47231 0.0
O27 O 0.5309 0.76746 0.43307 0.0
O28 O 0.58501 0.63847 0.60172 0.0
Zn29 Zn 0.59856 0.7095 0.51221 0.0
O30 O 0.58774 0.63809 0.42148 0.0
C31 C 0.67364 0.69026 0.55414 0.0
O32 O 0.66156 0.62303 0.59448 0.0
O33 O 0.57137 0.82662 0.51064 0.0
C34 C 0.59898 0.55707 0.41689 0.0
O35 O 0.61684 0.52084 0.47181 0.0
C36 C 0.55347 0.61517 0.62111 0.0
O37 O 0.52551 0.63548 0.57998 0.0
O38 O 0.65189 0.73608 0.51487 0.0
C39 C 0.46589 0.17581 0.47452 0.0
O40 O 0.4789 0.2499 0.44467 0.0
O41 O 0.41828 0.36432 0.59774 0.0
Zn42 Zn 0.40592 0.2912 0.50779 0.0
O43 O 0.41354 0.36335 0.41573 0.0
C44 C 0.32959 0.31637 0.5231 0.0
O45 O 0.33913 0.40134 0.53274 0.0
O46 O 0.43519 0.17751 0.50509 0.0
C47 C 0.41241 0.4494 0.41672 0.0
O48 O 0.40675 0.49237 0.47869 0.0
C49 C 0.44952 0.38205 0.62268 0.0
O50 O 0.47844 0.35364 0.58811 0.0
O51 O 0.35357 0.25635 0.51213 0.0
C52 C 0.03702 0.66759 0.01208 0.0
O53 O 0.02235 0.74809 0.00393 0.0
O54 O 0.09028 0.82548 0.90179 0.0
Zn55 Zn 0.10266 0.76775 0.99878 0.0
O56 O 0.09611 0.85559 0.08266 0.0
C57 C 0.17966 0.78053 0.98326 0.0
O58 O 0.17246 0.86646 0.97129 0.0
O59 O 0.07105 0.65926 0.01263 0.0
C60 C 0.10374 0.82894 0.14717 0.0
O61 O 0.11407 0.74466 0.15763 0.0
C62 C 0.09233 0.91054 0.89148 0.0
O63 O 0.1018 0.96391 0.94594 0.0
O64 O 0.15423 0.72533 0.99653 0.0
C65 C 0.95214 0.33979 0.0254 0.0
O66 O 0.96544 0.26793 0.0584 0.0
O67 O 0.89856 0.14454 0.91358 0.0
Zn68 Zn 0.89088 0.22325 0.00267 0.0
O69 O 0.90242 0.15529 0.09552 0.0
C70 C 0.81692 0.24727 0.95451 0.0
O71 O 0.82854 0.21013 0.89342 0.0
O72 O 0.92092 0.33633 0.99687 0.0
C73 C 0.88611 0.08156 0.10941 0.0
O74 O 0.86378 0.04754 0.06065 0.0
C75 C 0.92856 0.13231 0.88153 0.0
O76 O 0.95793 0.16938 0.90829 0.0
O77 O 0.83862 0.26011 0.00755 0.0
C78 C 0.04024 0.3226 0.50939 0.0
O79 O 0.02326 0.2458 0.52103 0.0
O80 O 0.09639 0.14139 0.59636 0.0
Zn81 Zn 0.10371 0.20815 0.50096 0.0
O82 O 0.09162 0.12883 0.41428 0.0
C83 C 0.17969 0.21139 0.53733 0.0
O84 O 0.17008 0.15344 0.58839 0.0
O85 O 0.0741 0.32252 0.49921 0.0
C86 C 0.1096 0.05638 0.4049 0.0
O87 O 0.13464 0.0338 0.45248 0.0
C88 C 0.07324 0.07989 0.60868 0.0
O89 O 0.05038 0.05564 0.55727 0.0
O90 O 0.15618 0.24364 0.49368 0.0
C91 C 0.96374 0.6643 0.51169 0.0
O92 O 0.98102 0.74105 0.52173 0.0
O93 O 0.917 0.84694 0.60287 0.0
Zn94 Zn 0.90118 0.77986 0.51113 0.0
O95 O 0.9098 0.85266 0.41816 0.0
C96 C 0.82435 0.79126 0.54935 0.0
O97 O 0.83311 0.86857 0.58038 0.0
O98 O 0.92967 0.66433 0.50504 0.0
C99 C 0.88573 0.90545 0.39263 0.0
O100 O 0.85576 0.91795 0.42946 0.0
C101 C 0.91234 0.93165 0.61172 0.0
O102 O 0.89822 0.97978 0.55834 0.0
O103 O 0.84849 0.74372 0.51808 0.0
C104 C 0.75766 0.2353 0.02016 0.0
C105 C 0.77845 0.27238 0.96206 0.0
C106 C 0.72464 0.34773 0.913 0.0
C107 C 0.70474 0.3175 0.97479 0.0
N108 N 0.70414 0.24889 0.09518 0.0
N109 N 0.78356 0.37853 0.86168 0.0
C110 C 0.72176 0.2659 0.03073 0.0
C111 C 0.76246 0.33272 0.91074 0.0
N112 N 0.77157 0.16787 0.06329 0.0
N113 N 0.70727 0.38758 0.85513 0.0
H114 H 0.81149 0.37105 0.85933 0.0
H115 H 0.77386 0.43041 0.82821 0.0
H116 H 0.67953 0.39892 0.85422 0.0
H117 H 0.71982 0.40186 0.80533 0.0
H118 H 0.75625 0.13176 0.10123 0.0
H119 H 0.79745 0.14166 0.05641 0.0
H120 H 0.71667 0.22022 0.14083 0.0
H121 H 0.678 0.27136 0.10577 0.0
C122 C 0.23918 0.76434 0.0465 0.0
C123 C 0.21742 0.74871 0.98369 0.0
C124 C 0.26894 0.68211 0.9188 0.0
C125 C 0.2902 0.69341 0.98298 0.0
N126 N 0.2945 0.7298 0.11183 0.0
N127 N 0.20925 0.68188 0.86401 0.0
C128 C 0.27506 0.73055 0.04794 0.0
C129 C 0.23159 0.70398 0.92106 0.0
N130 N 0.22558 0.81216 0.10459 0.0
N131 N 0.28485 0.65447 0.85485 0.0
H132 H 0.18204 0.69971 0.86264 0.0
H133 H 0.21691 0.64047 0.82042 0.0
H134 H 0.31213 0.63799 0.85105 0.0
H135 H 0.27183 0.65442 0.80421 0.0
H136 H 0.24124 0.83574 0.14802 0.0
H137 H 0.19878 0.83319 0.10745 0.0
H138 H 0.28374 0.74657 0.16282 0.0
H139 H 0.32077 0.70498 0.11529 0.0
C140 C 0.76798 0.7402 0.48398 0.0
C141 C 0.78631 0.76021 0.55061 0.0
C142 C 0.73014 0.7385 0.6193 0.0
C143 C 0.7126 0.7119 0.5535 0.0
N144 N 0.71676 0.66711 0.42644 0.0
N145 N 0.78689 0.75749 0.68314 0.0
C146 C 0.73209 0.70684 0.4867 0.0
C147 C 0.76797 0.75338 0.61878 0.0
N148 N 0.78411 0.75678 0.41789 0.0
N149 N 0.71051 0.75315 0.68168 0.0
H150 H 0.81481 0.76527 0.68507 0.0
H151 H 0.7755 0.74373 0.73418 0.0
H152 H 0.68267 0.74397 0.68427 0.0
H153 H 0.7213 0.78224 0.72896 0.0
H154 H 0.77044 0.75331 0.36797 0.0
H155 H 0.81021 0.78188 0.41286 0.0
H156 H 0.73096 0.65299 0.37846 0.0
H157 H 0.69084 0.63978 0.42693 0.0
C158 C 0.23355 0.28801 0.59197 0.0
C159 C 0.2177 0.24075 0.53227 0.0
C160 C 0.2743 0.25136 0.46349 0.0
C161 C 0.29109 0.29047 0.52606 0.0
N162 N 0.28856 0.33213 0.65412 0.0
N163 N 0.22386 0.16532 0.41535 0.0
C164 C 0.27121 0.30529 0.59148 0.0
C165 C 0.23827 0.21931 0.46896 0.0
N166 N 0.21239 0.31919 0.64801 0.0
N167 N 0.29235 0.24769 0.39813 0.0
H168 H 0.19756 0.14054 0.41724 0.0
H169 H 0.23882 0.13886 0.37199 0.0
H170 H 0.31882 0.27 0.39185 0.0
H171 H 0.28017 0.22967 0.34871 0.0
H172 H 0.22174 0.36257 0.68896 0.0
H173 H 0.1846 0.30871 0.65 0.0
H174 H 0.27618 0.33436 0.70539 0.0
H175 H 0.31623 0.34428 0.65644 0.0
C176 C 0.5635 0.38862 0.27636 0.0
C177 C 0.58944 0.39976 0.21988 0.0
C178 C 0.61791 0.52349 0.28844 0.0
C179 C 0.59439 0.50597 0.348 0.0
N180 N 0.54635 0.41938 0.4025 0.0
N181 N 0.64514 0.46604 0.17716 0.0
C182 C 0.56761 0.43767 0.3431 0.0
C183 C 0.61756 0.46448 0.22694 0.0
N184 N 0.53426 0.33383 0.265 0.0
N185 N 0.64049 0.59678 0.29045 0.0
H186 H 0.64652 0.42231 0.13231 0.0
H187 H 0.66842 0.50459 0.18391 0.0
H188 H 0.64222 0.64045 0.33534 0.0
H189 H 0.6553 0.61884 0.24533 0.0
H190 H 0.51246 0.3299 0.30078 0.0
H191 H 0.53035 0.29735 0.21657 0.0
H192 H 0.5294 0.36339 0.40571 0.0
H193 H 0.54702 0.45784 0.45055 0.0
C194 C 0.44034 0.61229 0.26566 0.0
C195 C 0.41114 0.60119 0.21604 0.0
C196 C 0.3823 0.49346 0.29955 0.0
C197 C 0.41247 0.50034 0.34714 0.0
N198 N 0.47242 0.55497 0.3724 0.0
N199 N 0.357 0.52244 0.1792 0.0
C200 C 0.44215 0.55677 0.32943 0.0
C201 C 0.38303 0.53866 0.23083 0.0
N202 N 0.46607 0.67654 0.25207 0.0
N203 N 0.35215 0.44767 0.32182 0.0
H204 H 0.35552 0.55717 0.12946 0.0
H205 H 0.33833 0.46997 0.18314 0.0
H206 H 0.35034 0.41469 0.37229 0.0
H207 H 0.32779 0.44871 0.29343 0.0
H208 H 0.48574 0.69544 0.28989 0.0
H209 H 0.46662 0.71497 0.20401 0.0
H210 H 0.49648 0.58693 0.35854 0.0
H211 H 0.47442 0.51559 0.41983 0.0
C212 C 0.4558 0.43867 0.82534 0.0
C213 C 0.43489 0.51962 0.82526 0.0
C214 C 0.43897 0.52447 0.69135 0.0
C215 C 0.45236 0.43493 0.69129 0.0
N216 N 0.47417 0.30465 0.7578 0.0
N217 N 0.40205 0.63304 0.75541 0.0
C218 C 0.4615 0.39169 0.75816 0.0
C219 C 0.42569 0.56187 0.75758 0.0
N220 N 0.47112 0.40822 0.88897 0.0
N221 N 0.43914 0.57368 0.62792 0.0
H222 H 0.38909 0.65884 0.80161 0.0
H223 H 0.39214 0.65991 0.70647 0.0
H224 H 0.45041 0.54824 0.57962 0.0
H225 H 0.43243 0.64232 0.62586 0.0
H226 H 0.48959 0.35505 0.89058 0.0
H227 H 0.46861 0.44238 0.93885 0.0
H228 H 0.47707 0.26568 0.80514 0.0
H229 H 0.47998 0.26965 0.70951 0.0
C230 C 0.57703 0.44216 0.76269 0.0
C231 C 0.56192 0.48116 0.82712 0.0
C232 C 0.53457 0.60224 0.75302 0.0
C233 C 0.54943 0.56191 0.68923 0.0
N234 N 0.57433 0.43029 0.63025 0.0
N235 N 0.52018 0.58673 0.88237 0.0
C236 C 0.56704 0.47712 0.69325 0.0
C237 C 0.53868 0.55768 0.82189 0.0
N238 N 0.60324 0.37707 0.7675 0.0
N239 N 0.51798 0.68483 0.74821 0.0
H240 H 0.52201 0.55472 0.93328 0.0
H241 H 0.50054 0.6371 0.88083 0.0
H242 H 0.51322 0.71737 0.69835 0.0
H243 H 0.5105 0.72325 0.7936 0.0
H244 H 0.61769 0.35381 0.72222 0.0
H245 H 0.61359 0.35313 0.81701 0.0
H246 H 0.58406 0.36395 0.62994 0.0
H247 H 0.56685 0.45446 0.5786 0.0
C248 C 0.08035 0.87172 0.27151 0.0
C249 C 0.10241 0.89267 0.21015 0.0
C250 C 0.12391 0.03004 0.27259 0.0
C251 C 0.1053 0.00282 0.33687 0.0
N252 N 0.06815 0.89478 0.40101 0.0
N253 N 0.14846 0.98607 0.15468 0.0
C254 C 0.08412 0.9228 0.33732 0.0
C255 C 0.12479 0.97092 0.21089 0.0
N256 N 0.05482 0.80522 0.26578 0.0
N257 N 0.14076 0.11254 0.27052 0.0
H258 H 0.15006 0.94501 0.10826 0.0
H259 H 0.16857 0.03526 0.15636 0.0
H260 H 0.1419 0.15627 0.31551 0.0
H261 H 0.15123 0.1409 0.22274 0.0
H262 H 0.03549 0.79251 0.30586 0.0
H263 H 0.05066 0.76834 0.21766 0.0
H264 H 0.05589 0.83172 0.40723 0.0
H265 H 0.06916 0.93243 0.44945 0.0
C266 C 0.88585 0.04671 0.31659 0.0
C267 C 0.89052 0.95136 0.32085 0.0
C268 C 0.89985 0.9457 0.18758 0.0
C269 C 0.88967 0.03827 0.1825 0.0
N270 N 0.86677 0.17337 0.24187 0.0
N271 N 0.89683 0.80721 0.25859 0.0
C272 C 0.88124 0.08822 0.24693 0.0
C273 C 0.89648 0.89992 0.25595 0.0
N274 N 0.88663 0.09803 0.37907 0.0
N275 N 0.91351 0.90203 0.12751 0.0
H276 H 0.89361 0.77042 0.30697 0.0
H277 H 0.89706 0.76652 0.21182 0.0
H278 H 0.91684 0.93387 0.07682 0.0
H279 H 0.92481 0.83736 0.12986 0.0
H280 H 0.88698 0.16872 0.37857 0.0
H281 H 0.89085 0.07016 0.43098 0.0
H282 H 0.85655 0.20848 0.28694 0.0
H283 H 0.86155 0.20562 0.19206 0.0
C284 C 0.907 0.94163 0.74978 0.0
C285 C 0.92112 0.97604 0.68276 0.0
C286 C 0.94231 0.11232 0.74688 0.0
C287 C 0.9298 0.07568 0.81429 0.0
N288 N 0.90975 0.94512 0.8826 0.0
N289 N 0.96087 0.08131 0.62186 0.0
C290 C 0.91523 0.98688 0.81654 0.0
C291 C 0.94156 0.05742 0.68273 0.0
N292 N 0.88385 0.8695 0.74978 0.0
N293 N 0.95295 0.20094 0.74284 0.0
H294 H 0.96199 0.04096 0.57484 0.0
H295 H 0.97864 0.13595 0.62074 0.0
H296 H 0.95346 0.24419 0.78804 0.0
H297 H 0.95845 0.23369 0.69343 0.0
H298 H 0.86969 0.84886 0.79623 0.0
H299 H 0.87597 0.83531 0.70244 0.0
H300 H 0.9025 0.87709 0.88737 0.0
H301 H 0.91619 0.97567 0.93261 0.0
C302 C 0.10503 0.9176 0.75598 0.0
C303 C 0.08527 0.94918 0.81773 0.0
C304 C 0.05676 0.06604 0.7415 0.0
C305 C 0.07467 0.03056 0.67914 0.0
N306 N 0.11018 0.91222 0.62338 0.0
N307 N 0.0363 0.03908 0.86573 0.0
C308 C 0.09686 0.95263 0.68523 0.0
C309 C 0.05938 0.01938 0.80952 0.0
N310 N 0.13314 0.8586 0.76533 0.0
N311 N 0.03805 0.14564 0.73625 0.0
H312 H 0.03667 0.00475 0.91579 0.0
H313 H 0.01453 0.08303 0.86004 0.0
H314 H 0.03457 0.17998 0.68672 0.0
H315 H 0.02823 0.1807 0.7817 0.0
H316 H 0.15088 0.84092 0.72341 0.0
H317 H 0.14108 0.83385 0.81643 0.0
H318 H 0.12333 0.84975 0.6238 0.0
H319 H 0.1053 0.93716 0.57074 0.0
C320 C 0.50127 0.94278 0.95071 0.0
C321 C 0.48279 0.91286 0.01435 0.0
C322 C 0.49314 0.05956 0.07405 0.0
C323 C 0.51426 0.08652 0.01299 0.0
N324 N 0.54113 0.05328 0.89522 0.0
N325 N 0.46468 0.93592 0.14 0.0
C326 C 0.5193 0.0277 0.95207 0.0
C327 C 0.47952 0.96955 0.07692 0.0
N328 N 0.49984 0.89233 0.88768 0.0
N329 N 0.48592 0.12017 0.12897 0.0
H330 H 0.45472 0.86998 0.14419 0.0
H331 H 0.46474 0.97036 0.18986 0.0
H332 H 0.49705 0.18508 0.13087 0.0
H333 H 0.46691 0.10869 0.16989 0.0
H334 H 0.50927 0.91486 0.83707 0.0
H335 H 0.48639 0.83039 0.88416 0.0
H336 H 0.54966 0.00911 0.85414 0.0
H337 H 0.55243 0.11781 0.89078 0.0
C338 C 0.5197 0.97277 0.40626 0.0
C339 C 0.52358 0.92313 0.47251 0.0
C340 C 0.49451 0.04584 0.54087 0.0
C341 C 0.48691 0.09063 0.47366 0.0
N342 N 0.48728 0.09042 0.34103 0.0
N343 N 0.50933 0.90423 0.60091 0.0
C344 C 0.49825 0.05265 0.40586 0.0
C345 C 0.50956 0.95742 0.53939 0.0
N346 N 0.53746 0.94532 0.34434 0.0
N347 N 0.48871 0.08919 0.60619 0.0
H348 H 0.51963 0.83841 0.60185 0.0
H349 H 0.49594 0.92206 0.64904 0.0
H350 H 0.47859 0.15506 0.6096 0.0
H351 H 0.49727 0.06353 0.65657 0.0
H352 H 0.53886 0.98412 0.29665 0.0
H353 H 0.55362 0.88743 0.34254 0.0
H354 H 0.49182 0.06039 0.29018 0.0
H355 H 0.47085 0.1477 0.33799 0.0
C356 C 0.00863 0.54242 0.08447 0.0
C357 C 0.01419 0.58584 0.01598 0.0
C358 C 0.98133 0.46454 0.95298 0.0
C359 C 0.97326 0.42487 0.02211 0.0
N360 N 0.97304 0.43532 0.15444 0.0
N361 N 0.00201 0.59681 0.88614 0.0
C362 C 0.9853 0.46617 0.08819 0.0
C363 C 0.99918 0.54974 0.95059 0.0
N364 N 0.02594 0.5735 0.14583 0.0
N365 N 0.97371 0.41857 0.88959 0.0
H366 H 0.01628 0.65747 0.8814 0.0
H367 H 0.98806 0.57931 0.83854 0.0
H368 H 0.96131 0.35518 0.8889 0.0
H369 H 0.98252 0.43911 0.83796 0.0
H370 H 0.02628 0.53868 0.19556 0.0
H371 H 0.04225 0.63108 0.14568 0.0
H372 H 0.97787 0.46846 0.20399 0.0
H373 H 0.95511 0.38123 0.15952 0.0
C374 C 0.01986 0.4645 0.44569 0.0
C375 C 0.02026 0.4096 0.50975 0.0
C376 C 0.9816 0.51936 0.57339 0.0
C377 C 0.9836 0.57738 0.51134 0.0
N378 N 0.00796 0.61213 0.3919 0.0
N379 N 0.00686 0.39068 0.63845 0.0
C380 C 0.00388 0.55216 0.44859 0.0
C381 C 0.00239 0.43832 0.57463 0.0
N382 N 0.03323 0.43104 0.38114 0.0
N383 N 0.9598 0.54173 0.63118 0.0
H384 H 0.02246 0.33204 0.64197 0.0
H385 H 0.99778 0.4131 0.68938 0.0
H386 H 0.94582 0.60301 0.63445 0.0
H387 H 0.95374 0.49734 0.67387 0.0
H388 H 0.03024 0.46354 0.33077 0.0
H389 H 0.04462 0.36657 0.37651 0.0
H390 H 0.02578 0.60207 0.34852 0.0
H391 H 0.99532 0.67536 0.39056 0.0
loop_
_geom_bond_atom_site_label_1
_geom_bond_atom_site_label_2
_geom_bond_distance
_geom_bond_site_symmetry_2
_ccdc_geom_bond_type
C0 O1 1.160 1_554 S
C0 O7 1.185 . S
O1 C0 1.160 1_556 S
O2 Zn3 1.899 1_556 S
O2 C10 1.284 . S
Zn3 O2 1.899 1_554 S
Zn3 O4 2.032 . S
Zn3 O7 2.086 . S
Zn3 O12 1.977 . S
O4 Zn3 2.032 . S
O4 C8 1.278 . S
C5 O6 1.203 1_554 S
C5 O12 1.267 . S
O6 C5 1.203 1_556 S
O7 C0 1.185 . S
O7 Zn3 2.086 . S
C8 O4 1.278 . S
C8 O9 1.211 . S
O9 C8 1.211 . S
C10 O2 1.284 . S
C10 O11 1.273 . S
O11 C10 1.273 . S
O12 Zn3 1.977 . S
O12 C5 1.267 . S
C13 O14 1.160 1_554 S
C13 O20 1.185 . S
O14 C13 1.160 1_556 S
O15 Zn16 1.899 1_556 S
O15 C23 1.284 . S
Zn16 O15 1.899 1_554 S
Zn16 O17 2.032 . S
Zn16 O20 2.086 . S
Zn16 O25 1.977 . S
O17 Zn16 2.032 . S
O17 C21 1.278 . S
C18 O19 1.203 1_554 S
C18 O25 1.267 . S
O19 C18 1.203 1_556 S
O20 C13 1.185 . S
O20 Zn16 2.086 . S
C21 O17 1.278 . S
C21 O22 1.211 . S
O22 C21 1.211 . S
C23 O15 1.284 . S
C23 O24 1.273 . S
O24 C23 1.273 . S
O25 Zn16 1.977 . S
O25 C18 1.267 . S
C26 O27 1.160 . S
C26 O33 1.185 . S
O27 C26 1.160 . S
O28 Zn29 1.899 . S
O28 C36 1.284 . S
Zn29 O28 1.899 . S
Zn29 O30 2.032 . S
Zn29 O33 2.086 . S
Zn29 O38 1.977 . S
O30 Zn29 2.032 . S
O30 C34 1.278 . S
C31 O32 1.203 . S
C31 O38 1.267 . S
O32 C31 1.203 . S
O33 C26 1.185 . S
O33 Zn29 2.086 . S
C34 O30 1.278 . S
C34 O35 1.211 . S
O35 C34 1.211 . S
C36 O28 1.284 . S
C36 O37 1.273 . S
O37 C36 1.273 . S
O38 Zn29 1.977 . S
O38 C31 1.267 . S
C39 O40 1.160 . S
C39 O46 1.185 . S
O40 C39 1.160 . S
O41 Zn42 1.899 . S
O41 C49 1.284 . S
Zn42 O41 1.899 . S
Zn42 O43 2.032 . S
Zn42 O46 2.086 . S
Zn42 O51 1.977 . S
O43 Zn42 2.032 . S
O43 C47 1.278 . S
C44 O45 1.203 . S
C44 O51 1.267 . S
O45 C44 1.203 . S
O46 C39 1.185 . S
O46 Zn42 2.086 . S
C47 O43 1.278 . S
C47 O48 1.211 . S
O48 C47 1.211 . S
C49 O41 1.284 . S
C49 O50 1.273 . S
O50 C49 1.273 . S
O51 Zn42 1.977 . S
O51 C44 1.267 . S
C52 O53 1.160 1_554 S
C52 O59 1.185 . S
O53 C52 1.160 1_556 S
O54 Zn55 1.899 1_556 S
O54 C62 1.284 . S
Zn55 O54 1.899 1_554 S
Zn55 O56 2.032 . S
Zn55 O59 2.086 . S
Zn55 O64 1.977 . S
O56 Zn55 2.032 . S
O56 C60 1.278 . S
C57 O58 1.203 1_554 S
C57 O64 1.267 . S
O58 C57 1.203 1_556 S
O59 C52 1.185 . S
O59 Zn55 2.086 . S
C60 O56 1.278 . S
C60 O61 1.211 . S
O61 C60 1.211 . S
C62 O54 1.284 . S
C62 O63 1.273 . S
O63 C62 1.273 . S
O64 Zn55 1.977 . S
O64 C57 1.267 . S
C65 O66 1.160 1_554 S
C65 O72 1.185 . S
O66 C65 1.160 1_556 S
O67 Zn68 1.899 1_556 S
O67 C75 1.284 . S
Zn68 O67 1.899 1_554 S
Zn68 O69 2.032 . S
Zn68 O72 2.086 . S
Zn68 O77 1.977 . S
O69 Zn68 2.032 . S
O69 C73 1.278 . S
C70 O71 1.203 1_554 S
C70 O77 1.267 . S
O71 C70 1.203 1_556 S
O72 C65 1.185 . S
O72 Zn68 2.086 . S
C73 O69 1.278 . S
C73 O74 1.211 . S
O74 C73 1.211 . S
C75 O67 1.284 . S
C75 O76 1.273 . S
O76 C75 1.273 . S
O77 Zn68 1.977 . S
O77 C70 1.267 . S
C78 O79 1.160 . S
C78 O85 1.185 . S
O79 C78 1.160 . S
O80 Zn81 1.899 . S
O80 C88 1.284 . S
Zn81 O80 1.899 . S
Zn81 O82 2.032 . S
Zn81 O85 2.086 . S
Zn81 O90 1.977 . S
O82 Zn81 2.032 . S
O82 C86 1.278 . S
C83 O84 1.203 . S
C83 O90 1.267 . S
O84 C83 1.203 . S
O85 C78 1.185 . S
O85 Zn81 2.086 . S
C86 O82 1.278 . S
C86 O87 1.211 . S
O87 C86 1.211 . S
C88 O80 1.284 . S
C88 O89 1.273 . S
O89 C88 1.273 . S
O90 Zn81 1.977 . S
O90 C83 1.267 . S
C91 O92 1.160 . S
C91 O98 1.185 . S
O92 C91 1.160 . S
O93 Zn94 1.899 . S
O93 C101 1.284 . S
Zn94 O93 1.899 . S
Zn94 O95 2.032 . S
Zn94 O98 2.086 . S
Zn94 O103 1.977 . S
O95 Zn94 2.032 . S
O95 C99 1.278 . S
C96 O97 1.203 . S
C96 O103 1.267 . S
O97 C96 1.203 . S
O98 C91 1.185 . S
O98 Zn94 2.086 . S
C99 O95 1.278 . S
C99 O100 1.211 . S
O100 C99 1.211 . S
C101 O93 1.284 . S
C101 O102 1.273 . S
O102 C101 1.273 . S
O103 Zn94 1.977 . S
O103 C96 1.267 . S
C104 C105 1.363 . S
C104 C110 1.379 . S
C104 N112 1.356 . S
C105 C104 1.363 . S
C105 C111 1.363 1_554 S
C106 C107 1.363 1_556 S
C106 C111 1.379 . S
C106 N113 1.356 . S
C107 C106 1.363 1_554 S
C107 C110 1.363 . S
N108 C110 1.356 . S
N108 H120 0.984 . S
N108 H121 0.985 . S
N109 C111 1.356 . S
N109 H114 0.984 . S
N109 H115 0.985 . S
C110 C104 1.379 . S
C110 C107 1.363 . S
C110 N108 1.356 . S
C111 C105 1.363 1_556 S
C111 C106 1.379 . S
C111 N109 1.356 . S
N112 C104 1.356 . S
N112 H118 0.984 . S
N112 H119 0.984 . S
N113 C106 1.356 . S
N113 H116 0.984 . S
N113 H117 0.985 . S
H114 N109 0.984 . S
H115 N109 0.985 . S
H116 N113 0.984 . S
H117 N113 0.985 . S
H118 N112 0.984 . S
H119 N112 0.984 . S
H120 N108 0.984 . S
H121 N108 0.985 . S
C122 C123 1.363 . S
C122 C128 1.379 . S
C122 N130 1.356 . S
C123 C122 1.363 . S
C123 C129 1.363 1_554 S
C124 C125 1.363 1_556 S
C124 C129 1.379 . S
C124 N131 1.356 . S
C125 C124 1.363 1_554 S
C125 C128 1.363 . S
N126 C128 1.356 . S
N126 H138 0.984 . S
N126 H139 0.985 . S
N127 C129 1.356 . S
N127 H132 0.984 . S
N127 H133 0.985 . S
C128 C122 1.379 . S
C128 C125 1.363 . S
C128 N126 1.356 . S
C129 C123 1.363 1_556 S
C129 C124 1.379 . S
C129 N127 1.356 . S
N130 C122 1.356 . S
N130 H136 0.984 . S
N130 H137 0.984 . S
N131 C124 1.356 . S
N131 H134 0.984 . S
N131 H135 0.985 . S
H132 N127 0.984 . S
H133 N127 0.985 . S
H134 N131 0.984 . S
H135 N131 0.985 . S
H136 N130 0.984 . S
H137 N130 0.984 . S
H138 N126 0.984 . S
H139 N126 0.985 . S
C140 C141 1.363 . S
C140 C146 1.379 . S
C140 N148 1.356 . S
C141 C140 1.363 . S
C141 C147 1.363 . S
C142 C143 1.363 . S
C142 C147 1.379 . S
C142 N149 1.356 . S
C143 C142 1.363 . S
C143 C146 1.363 . S
N144 C146 1.356 . S
N144 H156 0.984 . S
N144 H157 0.985 . S
N145 C147 1.356 . S
N145 H150 0.984 . S
N145 H151 0.985 . S
C146 C140 1.379 . S
C146 C143 1.363 . S
C146 N144 1.356 . S
C147 C141 1.363 . S
C147 C142 1.379 . S
C147 N145 1.356 . S
N148 C140 1.356 . S
N148 H154 0.984 . S
N148 H155 0.984 . S
N149 C142 1.356 . S
N149 H152 0.984 . S
N149 H153 0.985 . S
H150 N145 0.984 . S
H151 N145 0.985 . S
H152 N149 0.984 . S
H153 N149 0.985 . S
H154 N148 0.984 . S
H155 N148 0.984 . S
H156 N144 0.984 . S
H157 N144 0.985 . S
C158 C159 1.363 . S
C158 C164 1.379 . S
C158 N166 1.356 . S
C159 C158 1.363 . S
C159 C165 1.363 . S
C160 C161 1.363 . S
C160 C165 1.379 . S
C160 N167 1.356 . S
C161 C160 1.363 . S
C161 C164 1.363 . S
N162 C164 1.356 . S
N162 H174 0.984 . S
N162 H175 0.985 . S
N163 C165 1.356 . S
N163 H168 0.984 . S
N163 H169 0.985 . S
C164 C158 1.379 . S
C164 C161 1.363 . S
C164 N162 1.356 . S
C165 C159 1.363 . S
C165 C160 1.379 . S
C165 N163 1.356 . S
N166 C158 1.356 . S
N166 H172 0.984 . S
N166 H173 0.984 . S
N167 C160 1.356 . S
N167 H170 0.984 . S
N167 H171 0.985 . S
H168 N163 0.984 . S
H169 N163 0.985 . S
H170 N167 0.984 . S
H171 N167 0.985 . S
H172 N166 0.984 . S
H173 N166 0.984 . S
H174 N162 0.984 . S
H175 N162 0.985 . S
C176 C177 1.363 . S
C176 C182 1.379 . S
C176 N184 1.356 . S
C177 C176 1.363 . S
C177 C183 1.363 . S
C178 C179 1.363 . S
C178 C183 1.379 . S
C178 N185 1.356 . S
C179 C178 1.363 . S
C179 C182 1.363 . S
N180 C182 1.356 . S
N180 H192 0.984 . S
N180 H193 0.985 . S
N181 C183 1.356 . S
N181 H186 0.984 . S
N181 H187 0.985 . S
C182 C176 1.379 . S
C182 C179 1.363 . S
C182 N180 1.356 . S
C183 C177 1.363 . S
C183 C178 1.379 . S
C183 N181 1.356 . S
N184 C176 1.356 . S
N184 H190 0.984 . S
N184 H191 0.984 . S
N185 C178 1.356 . S
N185 H188 0.984 . S
N185 H189 0.985 . S
H186 N181 0.984 . S
H187 N181 0.985 . S
H188 N185 0.984 . S
H189 N185 0.985 . S
H190 N184 0.984 . S
H191 N184 0.984 . S
H192 N180 0.984 . S
H193 N180 0.985 . S
C194 C195 1.363 . S
C194 C200 1.379 . S
C194 N202 1.356 . S
C195 C194 1.363 . S
C195 C201 1.363 . S
C196 C197 1.363 . S
C196 C201 1.379 . S
C196 N203 1.356 . S
C197 C196 1.363 . S
C197 C200 1.363 . S
N198 C200 1.356 . S
N198 H210 0.984 . S
N198 H211 0.985 . S
N199 C201 1.356 . S
N199 H204 0.984 . S
N199 H205 0.985 . S
C200 C194 1.379 . S
C200 C197 1.363 . S
C200 N198 1.356 . S
C201 C195 1.363 . S
C201 C196 1.379 . S
C201 N199 1.356 . S
N202 C194 1.356 . S
N202 H208 0.984 . S
N202 H209 0.984 . S
N203 C196 1.356 . S
N203 H206 0.984 . S
N203 H207 0.985 . S
H204 N199 0.984 . S
H205 N199 0.985 . S
H206 N203 0.984 . S
H207 N203 0.985 . S
H208 N202 0.984 . S
H209 N202 0.984 . S
H210 N198 0.984 . S
H211 N198 0.985 . S
C212 C213 1.363 . S
C212 C218 1.379 . S
C212 N220 1.356 . S
C213 C212 1.363 . S
C213 C219 1.363 . S
C214 C215 1.363 . S
C214 C219 1.379 . S
C214 N221 1.356 . S
C215 C214 1.363 . S
C215 C218 1.363 . S
N216 C218 1.356 . S
N216 H228 0.984 . S
N216 H229 0.985 . S
N217 C219 1.356 . S
N217 H222 0.984 . S
N217 H223 0.985 . S
C218 C212 1.379 . S
C218 C215 1.363 . S
C218 N216 1.356 . S
C219 C213 1.363 . S
C219 C214 1.379 . S
C219 N217 1.356 . S
N220 C212 1.356 . S
N220 H226 0.984 . S
N220 H227 0.984 . S
N221 C214 1.356 . S
N221 H224 0.984 . S
N221 H225 0.985 . S
H222 N217 0.984 . S
H223 N217 0.985 . S
H224 N221 0.984 . S
H225 N221 0.985 . S
H226 N220 0.984 . S
H227 N220 0.984 . S
H228 N216 0.984 . S
H229 N216 0.985 . S
C230 C231 1.363 . S
C230 C236 1.379 . S
C230 N238 1.356 . S
C231 C230 1.363 . S
C231 C237 1.363 . S
C232 C233 1.363 . S
C232 C237 1.379 . S
C232 N239 1.356 . S
C233 C232 1.363 . S
C233 C236 1.363 . S
N234 C236 1.356 . S
N234 H246 0.984 . S
N234 H247 0.985 . S
N235 C237 1.356 . S
N235 H240 0.984 . S
N235 H241 0.985 . S
C236 C230 1.379 . S
C236 C233 1.363 . S
C236 N234 1.356 . S
C237 C231 1.363 . S
C237 C232 1.379 . S
C237 N235 1.356 . S
N238 C230 1.356 . S
N238 H244 0.984 . S
N238 H245 0.984 . S
N239 C232 1.356 . S
N239 H242 0.984 . S
N239 H243 0.985 . S
H240 N235 0.984 . S
H241 N235 0.985 . S
H242 N239 0.984 . S
H243 N239 0.985 . S
H244 N238 0.984 . S
H245 N238 0.984 . S
H246 N234 0.984 . S
H247 N234 0.985 . S
C248 C249 1.363 . S
C248 C254 1.379 . S
C248 N256 1.356 . S
C249 C248 1.363 . S
C249 C255 1.363 1_565 S
C250 C251 1.363 . S
C250 C255 1.379 . S
C250 N257 1.356 . S
C251 C250 1.363 . S
C251 C254 1.363 1_545 S
N252 C254 1.357 . S
N252 H264 0.988 . S
N252 H265 0.980 1_565 S
N253 C255 1.357 . S
N253 H258 0.980 1_545 S
N253 H259 0.988 . S
C254 C248 1.379 . S
C254 C251 1.363 1_565 S
C254 N252 1.357 . S
C255 C249 1.363 1_545 S
C255 C250 1.379 . S
C255 N253 1.357 . S
N256 C248 1.356 . S
N256 H262 0.984 . S
N256 H263 0.984 . S
N257 C250 1.356 . S
N257 H260 0.984 . S
N257 H261 0.985 . S
H258 N253 0.980 1_565 S
H259 N253 0.988 . S
H260 N257 0.984 . S
H261 N257 0.985 . S
H262 N256 0.984 . S
H263 N256 0.984 . S
H264 N252 0.988 . S
H265 N252 0.980 1_545 S
C266 C267 1.363 1_545 S
C266 C272 1.379 . S
C266 N274 1.356 . S
C267 C266 1.363 1_565 S
C267 C273 1.363 . S
C268 C269 1.363 1_565 S
C268 C273 1.379 . S
C268 N275 1.356 . S
C269 C268 1.363 1_545 S
C269 C272 1.363 . S
N270 C272 1.356 . S
N270 H282 0.984 . S
N270 H283 0.985 . S
N271 C273 1.356 . S
N271 H276 0.984 . S
N271 H277 0.985 . S
C272 C266 1.379 . S
C272 C269 1.363 . S
C272 N270 1.356 . S
C273 C267 1.363 . S
C273 C268 1.379 . S
C273 N271 1.356 . S
N274 C266 1.356 . S
N274 H280 0.984 . S
N274 H281 0.984 . S
N275 C268 1.356 . S
N275 H278 0.984 . S
N275 H279 0.985 . S
H276 N271 0.984 . S
H277 N271 0.985 . S
H278 N275 0.984 . S
H279 N275 0.985 . S
H280 N274 0.984 . S
H281 N274 0.984 . S
H282 N270 0.984 . S
H283 N270 0.985 . S
C284 C285 1.363 . S
C284 C290 1.379 . S
C284 N292 1.356 . S
C285 C284 1.363 . S
C285 C291 1.363 1_565 S
C286 C287 1.363 . S
C286 C291 1.379 . S
C286 N293 1.356 . S
C287 C286 1.363 . S
C287 C290 1.363 1_545 S
N288 C290 1.356 . S
N288 H300 0.984 . S
N288 H301 0.985 . S
N289 C291 1.356 . S
N289 H294 0.984 . S
N289 H295 0.985 . S
C290 C284 1.379 . S
C290 C287 1.363 1_565 S
C290 N288 1.356 . S
C291 C285 1.363 1_545 S
C291 C286 1.379 . S
C291 N289 1.356 . S
N292 C284 1.356 . S
N292 H298 0.984 . S
N292 H299 0.984 . S
N293 C286 1.356 . S
N293 H296 0.984 . S
N293 H297 0.985 . S
H294 N289 0.984 . S
H295 N289 0.985 . S
H296 N293 0.984 . S
H297 N293 0.985 . S
H298 N292 0.984 . S
H299 N292 0.984 . S
H300 N288 0.984 . S
H301 N288 0.985 . S
C302 C303 1.363 . S
C302 C308 1.379 . S
C302 N310 1.356 . S
C303 C302 1.363 . S
C303 C309 1.363 1_565 S
C304 C305 1.363 . S
C304 C309 1.379 . S
C304 N311 1.356 . S
C305 C304 1.363 . S
C305 C308 1.363 1_545 S
N306 C308 1.356 . S
N306 H318 0.984 . S
N306 H319 0.985 . S
N307 C309 1.356 . S
N307 H312 0.984 . S
N307 H313 0.985 . S
C308 C302 1.379 . S
C308 C305 1.363 1_565 S
C308 N306 1.356 . S
C309 C303 1.363 1_545 S
C309 C304 1.379 . S
C309 N307 1.356 . S
N310 C302 1.356 . S
N310 H316 0.984 . S
N310 H317 0.984 . S
N311 C304 1.356 . S
N311 H314 0.984 . S
N311 H315 0.985 . S
H312 N307 0.984 . S
H313 N307 0.985 . S
H314 N311 0.984 . S
H315 N311 0.985 . S
H316 N310 0.984 . S
H317 N310 0.984 . S
H318 N306 0.984 . S
H319 N306 0.985 . S
C320 C321 1.363 1_556 S
C320 C326 1.379 1_565 S
C320 N328 1.356 . S
C321 C320 1.363 1_554 S
C321 C327 1.363 . S
C322 C323 1.363 . S
C322 C327 1.379 1_545 S
C322 N329 1.356 . S
C323 C322 1.363 . S
C323 C326 1.363 1_554 S
N324 C326 1.356 . S
N324 H336 0.984 . S
N324 H337 0.985 . S
N325 C327 1.356 . S
N325 H330 0.984 . S
N325 H331 0.985 . S
C326 C320 1.379 1_545 S
C326 C323 1.363 1_556 S
C326 N324 1.356 . S
C327 C321 1.363 . S
C327 C322 1.379 1_565 S
C327 N325 1.356 . S
N328 C320 1.356 . S
N328 H334 0.984 . S
N328 H335 0.984 . S
N329 C322 1.356 . S
N329 H332 0.984 . S
N329 H333 0.985 . S
H330 N325 0.984 . S
H331 N325 0.985 . S
H332 N329 0.984 . S
H333 N329 0.985 . S
H334 N328 0.984 . S
H335 N328 0.984 . S
H336 N324 0.984 . S
H337 N324 0.985 . S
C338 C339 1.363 . S
C338 C344 1.379 1_565 S
C338 N346 1.356 . S
C339 C338 1.363 . S
C339 C345 1.363 . S
C340 C341 1.363 . S
C340 C345 1.379 1_545 S
C340 N347 1.356 . S
C341 C340 1.363 . S
C341 C344 1.363 . S
N342 C344 1.356 . S
N342 H354 0.984 . S
N342 H355 0.985 . S
N343 C345 1.356 . S
N343 H348 0.984 . S
N343 H349 0.985 . S
C344 C338 1.379 1_545 S
C344 C341 1.363 . S
C344 N342 1.356 . S
C345 C339 1.363 . S
C345 C340 1.379 1_565 S
C345 N343 1.356 . S
N346 C338 1.356 . S
N346 H352 0.984 . S
N346 H353 0.984 . S
N347 C340 1.356 . S
N347 H350 0.984 . S
N347 H351 0.985 . S
H348 N343 0.984 . S
H349 N343 0.985 . S
H350 N347 0.984 . S
H351 N347 0.985 . S
H352 N346 0.984 . S
H353 N346 0.984 . S
H354 N342 0.984 . S
H355 N342 0.985 . S
C356 C357 1.363 . S
C356 C362 1.379 . S
C356 N364 1.356 . S
C357 C356 1.363 . S
C357 C363 1.363 1_454 S
C358 C359 1.363 1_556 S
C358 C363 1.379 . S
C358 N365 1.356 . S
C359 C358 1.363 1_554 S
C359 C362 1.363 1_655 S
N360 C362 1.356 . S
N360 H372 0.984 . S
N360 H373 0.985 1_455 S
N361 C363 1.356 . S
N361 H366 0.984 1_655 S
N361 H367 0.985 . S
C362 C356 1.379 . S
C362 C359 1.363 1_455 S
C362 N360 1.356 . S
C363 C357 1.363 1_656 S
C363 C358 1.379 . S
C363 N361 1.356 . S
N364 C356 1.356 . S
N364 H370 0.984 . S
N364 H371 0.984 . S
N365 C358 1.356 . S
N365 H368 0.984 . S
N365 H369 0.985 . S
H366 N361 0.984 1_455 S
H367 N361 0.985 . S
H368 N365 0.984 . S
H369 N365 0.985 . S
H370 N364 0.984 . S
H371 N364 0.984 . S
H372 N360 0.984 . S
H373 N360 0.985 1_655 S
C374 C375 1.363 . S
C374 C380 1.379 . S
C374 N382 1.356 . S
C375 C374 1.363 . S
C375 C381 1.363 1_455 S
C376 C377 1.363 . S
C376 C381 1.379 . S
C376 N383 1.356 . S
C377 C376 1.363 . S
C377 C380 1.363 1_655 S
N378 C380 1.356 . S
N378 H390 0.984 . S
N378 H391 0.985 1_455 S
N379 C381 1.356 . S
N379 H384 0.984 1_655 S
N379 H385 0.985 . S
C380 C374 1.379 . S
C380 C377 1.363 1_455 S
C380 N378 1.356 . S
C381 C375 1.363 1_655 S
C381 C376 1.379 . S
C381 N379 1.356 . S
N382 C374 1.356 . S
N382 H388 0.984 . S
N382 H389 0.984 . S
N383 C376 1.356 . S
N383 H386 0.984 . S
N383 H387 0.985 . S
H384 N379 0.984 1_455 S
H385 N379 0.985 . S
H386 N383 0.984 . S
H387 N383 0.985 . S
H388 N382 0.984 . S
H389 N382 0.984 . S
H390 N378 0.984 . S
H391 N378 0.985 1_655 S
C105 C70 1.470 . S
C107 C5 1.470 . S
C123 C57 1.470 . S
C125 C18 1.470 . S
C141 C96 1.470 . S
C143 C31 1.470 . S
C159 C83 1.470 . S
C161 C44 1.470 . S
C177 C8 1.368 . S
C179 C34 1.368 . S
C195 C21 1.368 . S
C197 C47 1.368 . S
C213 C23 1.412 . S
C215 C49 1.412 . S
C231 C10 1.412 . S
C233 C36 1.412 . S
C249 C60 1.368 . S
C251 C86 1.368 . S
C267 C99 1.368 . S
C269 C73 1.368 . S
C285 C101 1.412 . S
C287 C75 1.412 . S
C303 C62 1.412 . S
C305 C88 1.412 . S
C321 C13 1.501 . S
C323 C0 1.501 . S
C339 C26 1.500 . S
C341 C39 1.500 . S
C357 C52 1.501 . S
C359 C65 1.501 . S
C375 C78 1.500 . S
C377 C91 1.500 . S
