# Generated by pormake.
# Topology wme, (6)-cn, num edge types: 1
# Building blocks:
#     Node 0, Type 0, BuildingBlock: BETDEL_clean_sbu_0, # of connection points: 6
#     Node 1, Type 0, BuildingBlock: BETDEL_clean_sbu_0, # of connection points: 6
#     Node 2, Type 0, BuildingBlock: BETDEL_clean_sbu_0, # of connection points: 6
#     Node 3, Type 0, BuildingBlock: BETDEL_clean_sbu_0, # of connection points: 6
#     Node 4, Type 0, BuildingBlock: BETDEL_clean_sbu_0, # of connection points: 6
#     Node 5, Type 0, BuildingBlock: BETDEL_clean_sbu_0, # of connection points: 6
#     Node 6, Type 0, BuildingBlock: BETDEL_clean_sbu_0, # of connection points: 6
#     Node 7, Type 0, BuildingBlock: BETDEL_clean_sbu_0, # of connection points: 6
#     Node 8, Type 0, BuildingBlock: BETDEL_clean_sbu_0, # of connection points: 6
#     Node 9, Type 0, BuildingBlock: BETDEL_clean_sbu_0, # of connection points: 6
#     Node 10, Type 0, BuildingBlock: BETDEL_clean_sbu_0, # of connection points: 6
#     Node 11, Type 0, BuildingBlock: BETDEL_clean_sbu_0, # of connection points: 6
#     Edge 12, Type (0, 0), None
#     Edge 13, Type (0, 0), None
#     Edge 14, Type (0, 0), None
#     Edge 15, Type (0, 0), None
#     Edge 16, Type (0, 0), None
#     Edge 17, Type (0, 0), None
#     Edge 18, Type (0, 0), None
#     Edge 19, Type (0, 0), None
#     Edge 20, Type (0, 0), None
#     Edge 21, Type (0, 0), None
#     Edge 22, Type (0, 0), None
#     Edge 23, Type (0, 0), None
#     Edge 24, Type (0, 0), None
#     Edge 25, Type (0, 0), None
#     Edge 26, Type (0, 0), None
#     Edge 27, Type (0, 0), None
#     Edge 28, Type (0, 0), None
#     Edge 29, Type (0, 0), None
#     Edge 30, Type (0, 0), None
#     Edge 31, Type (0, 0), None
#     Edge 32, Type (0, 0), None
#     Edge 33, Type (0, 0), None
#     Edge 34, Type (0, 0), None
#     Edge 35, Type (0, 0), None
#     Edge 36, Type (0, 0), None
#     Edge 37, Type (0, 0), None
#     Edge 38, Type (0, 0), None
#     Edge 39, Type (0, 0), None
#     Edge 40, Type (0, 0), None
#     Edge 41, Type (0, 0), None
#     Edge 42, Type (0, 0), None
#     Edge 43, Type (0, 0), None
#     Edge 44, Type (0, 0), None
#     Edge 45, Type (0, 0), None
#     Edge 46, Type (0, 0), None
#     Edge 47, Type (0, 0), None
# Relax obj value: 0.103
# Max RMSD: 0.194
# Mean RMSD: 0.194
data_MOF--net-wme--node1-BETDEL_clean_sbu_0--edge1-none
_symmetry_space_group_name_H-M    P1
_symmetry_Int_Tables_number       1
_symmetry_cell_setting            triclinic
loop_
_symmetry_equiv_pos_as_xyz
'x, y, z'
_cell_length_a     15.600649
_cell_length_b     15.600801
_cell_length_c     21.275623
_cell_angle_alpha  90.004414
_cell_angle_beta   89.997781
_cell_angle_gamma 120.00009
loop_
_atom_site_label
_atom_site_type_symbol
_atom_site_fract_x
_atom_site_fract_y
_atom_site_fract_z
_atom_type_partial_charge
Dy0 Dy 0.21911 0.42632 0.12619 0.0
C1 C 0.28536 0.12968 0.2167 0.0
C2 C 0.13394 0.54395 0.12248 0.0
Dy3 Dy 0.30347 0.30994 0.20443 0.0
O4 O 0.1829 0.5318 0.07652 0.0
O5 O 0.13116 0.48962 0.16936 0.0
O6 O 0.26446 0.37724 1.03556 0.0
O7 O 0.2341 0.29557 0.11673 0.0
C8 C 0.26943 0.3043 0.06254 0.0
C9 C 0.2936 0.44079 0.27915 0.0
O10 O 0.44129 0.43567 0.1569 0.0
O11 O 0.37636 0.53793 0.12965 0.0
O12 O 0.22546 0.15534 0.24045 0.0
O13 O 0.3623 0.20614 0.19201 0.0
O14 O 0.33531 0.38952 0.29659 0.0
O15 O 0.27917 0.42958 0.22001 0.0
O16 O 0.07537 0.30537 0.15409 0.0
O17 O 0.13664 0.23311 0.22337 0.0
C18 C 0.45053 0.52045 0.13439 0.0
C19 C 0.06321 0.24312 0.19908 0.0
Dy20 Dy 0.82913 0.20091 0.62619 0.0
C21 C 0.19205 0.2672 0.71669 0.0
C22 C 0.62633 0.11575 0.62246 0.0
Dy23 Dy 1.02987 0.28527 0.70443 0.0
O24 O 0.68744 0.16471 0.57652 0.0
O25 O 0.67787 0.11295 0.66935 0.0
O26 O 0.92355 0.24626 0.53555 0.0
O27 O 0.97488 0.21591 0.61672 0.0
C28 C 1.00146 0.25123 0.56253 0.0
C29 C 0.88917 0.27541 0.77915 0.0
O30 O 1.04196 0.42309 0.6569 0.0
O31 O 0.87477 0.35817 0.62965 0.0
O32 O 0.10646 0.20726 0.74045 0.0
O33 O 0.1925 0.3441 0.69202 0.0
O34 O 0.98215 0.31713 0.79659 0.0
O35 O 0.88594 0.26098 0.72001 0.0
O36 O 0.80634 0.05717 0.65409 0.0
O37 O 0.93989 0.11846 0.72337 0.0
C38 C 0.96642 0.43234 0.6344 0.0
C39 C 0.85642 0.04501 0.69907 0.0
Dy40 Dy 0.66461 0.81098 0.1262 0.0
C41 C 0.96125 0.17378 0.21659 0.0
C42 C 0.54692 0.60832 0.12253 0.0
Dy43 Dy 0.78097 1.01174 0.20445 0.0
O44 O 0.55904 0.66932 0.07652 0.0
O45 O 0.60136 0.65975 0.1694 0.0
O46 O 0.71369 0.90539 1.03556 0.0
O47 O 0.79533 0.95674 0.11674 0.0
C48 C 0.78661 0.98332 0.06255 0.0
C49 C 0.65014 0.87103 0.27915 0.0
O50 O 0.65525 1.02382 0.15692 0.0
O51 O 0.553 0.85663 0.12966 0.0
O52 O 0.9356 0.08826 0.24043 0.0
O53 O 0.88479 0.17435 0.192 0.0
O54 O 0.70141 0.96401 0.29661 0.0
O55 O 0.66135 0.86781 0.22001 0.0
O56 O 0.78557 0.7882 0.15409 0.0
O57 O 0.85781 0.92175 0.22338 0.0
C58 C 0.57047 0.94827 0.13441 0.0
C59 C 0.84782 0.83833 0.19909 0.0
Dy60 Dy 0.88996 0.64641 0.62621 0.0
C61 C 0.82383 0.94307 0.7166 0.0
C62 C 0.97493 0.52872 0.62253 0.0
Dy63 Dy 0.80558 0.76278 0.70447 0.0
O64 O 0.92605 0.54084 0.57653 0.0
O65 O 0.97794 0.58315 0.66941 0.0
O66 O 0.84462 0.69547 0.53558 0.0
O67 O 0.87492 0.77713 0.61675 0.0
C68 C 0.83961 0.76839 0.56256 0.0
C69 C 0.81546 0.63196 0.77917 0.0
O70 O 0.66777 0.63705 0.65693 0.0
O71 O 0.73271 0.5348 0.62968 0.0
O72 O 0.88369 0.91742 0.74044 0.0
O73 O 0.74678 0.8666 0.692 0.0
O74 O 0.77376 0.68323 0.79662 0.0
O75 O 0.82989 0.64316 0.72003 0.0
O76 O 1.0337 0.76737 0.6541 0.0
O77 O 0.9724 0.83962 0.72339 0.0
C78 C 0.65853 0.55227 0.63442 0.0
C79 C 1.04584 0.82962 0.69909 0.0
Dy80 Dy 0.27994 0.87179 0.12621 0.0
C81 C 0.91718 0.80572 0.21659 0.0
C82 C 0.48259 0.95677 0.12254 0.0
Dy83 Dy 0.07921 0.78748 0.20446 0.0
O84 O 0.42159 0.90788 0.07653 0.0
O85 O 0.43116 0.95977 0.16942 0.0
O86 O 0.18551 0.82645 1.03557 0.0
O87 O 0.1342 0.85681 0.11674 0.0
C88 C 0.1076 0.82148 0.06255 0.0
C89 C 0.21988 0.79727 0.27916 0.0
O90 O 0.06705 0.64966 0.15688 0.0
O91 O 0.23424 0.71451 0.12966 0.0
O92 O 1.00273 0.86566 0.24039 0.0
O93 O 0.91659 0.72867 0.19204 0.0
O94 O 0.1269 0.75558 0.2966 0.0
O95 O 0.22312 0.81172 0.22002 0.0
O96 O 0.30273 1.01556 0.15409 0.0
O97 O 0.16926 0.95429 0.22343 0.0
C98 C 0.14256 0.64038 0.13436 0.0
C99 C 0.25272 1.02772 0.19912 0.0
Dy100 Dy 0.44448 0.26174 0.6262 0.0
C101 C 0.1478 0.89899 0.7166 0.0
C102 C 0.56215 0.4644 0.62254 0.0
Dy103 Dy 0.32808 0.06103 0.70445 0.0
O104 O 0.55004 0.4034 0.57653 0.0
O105 O 0.50773 0.41296 0.66942 0.0
O106 O 0.39537 0.16731 0.53557 0.0
O107 O 0.31371 0.116 0.61674 0.0
C108 C 0.32243 0.0894 0.56255 0.0
C109 C 0.45897 0.20171 0.77915 0.0
O110 O 0.45373 0.04886 0.65687 0.0
O111 O 0.55606 0.21604 0.62964 0.0
O112 O 0.17343 0.98454 0.7404 0.0
O113 O 0.22427 0.8984 0.69203 0.0
O114 O 0.40769 0.10873 0.7966 0.0
O115 O 0.44775 0.20493 0.72001 0.0
O116 O 0.32352 0.28454 0.65408 0.0
O117 O 0.25132 0.15108 0.72343 0.0
C118 C 0.53852 0.12437 0.63434 0.0
C119 C 0.26132 0.2345 0.69913 0.0
Dy120 Dy 0.6646 0.87176 0.47468 0.0
C121 C 0.96124 0.80553 0.38415 0.0
C122 C 0.54697 0.95693 0.47836 0.0
Dy123 Dy 0.78094 0.78737 0.39635 0.0
O124 O 0.55912 0.90801 0.52433 0.0
O125 O 0.6013 0.95968 0.43149 0.0
O126 O 0.7137 0.82637 0.5653 0.0
O127 O 0.79529 0.85665 0.48409 0.0
C128 C 0.7865 0.82123 0.53825 0.0
C129 C 0.65028 0.79736 0.3217 0.0
O130 O 0.65515 0.64953 0.44384 0.0
O131 O 0.55297 0.71451 0.47122 0.0
O132 O 0.93556 0.86539 0.36036 0.0
O133 O 0.88477 0.7286 0.40884 0.0
O134 O 0.70143 0.75556 0.30417 0.0
O135 O 0.6614 0.81182 0.38083 0.0
O136 O 0.7856 1.01549 0.44681 0.0
O137 O 0.85777 0.9542 0.37746 0.0
C138 C 0.5704 0.64032 0.46641 0.0
C139 C 0.8478 1.02763 0.40178 0.0
Dy140 Dy 0.82922 0.64645 0.97469 0.0
C141 C 0.1921 0.94307 0.88416 0.0
C142 C 0.62641 0.52882 0.97836 0.0
Dy143 Dy 1.02994 0.76277 0.89636 0.0
O144 O 0.68748 0.54098 1.02433 0.0
O145 O 0.67799 0.58314 0.93148 0.0
O146 O 0.92371 0.69558 0.06531 0.0
O147 O 0.97501 0.77714 0.98409 0.0
C148 C 1.00165 0.76837 1.03825 0.0
C149 C 0.88928 0.63211 0.82171 0.0
O150 O 1.04198 0.63698 0.94385 0.0
O151 O 0.87483 0.53481 0.97124 0.0
O152 O 0.10654 0.91739 0.86036 0.0
O153 O 0.19255 0.86662 0.90885 0.0
O154 O 0.98223 0.68325 0.80417 0.0
O155 O 0.88595 0.64323 0.88084 0.0
O156 O 0.80648 0.76744 0.94681 0.0
O157 O 0.93994 0.8396 0.87746 0.0
C158 C 0.96645 0.55224 0.96642 0.0
C159 C 0.85654 0.82964 0.90178 0.0
Dy160 Dy 0.21912 0.81102 0.47469 0.0
C161 C 0.28529 0.17385 0.38416 0.0
C162 C 0.13394 0.60822 0.47835 0.0
Dy163 Dy 0.30345 1.0117 0.39637 0.0
O164 O 0.18286 0.66928 0.52433 0.0
O165 O 0.1312 0.6598 0.43148 0.0
O166 O 0.26448 0.90552 0.56531 0.0
O167 O 0.23416 0.95679 0.4841 0.0
C168 C 0.26959 0.98344 0.53826 0.0
C169 C 0.29355 0.87109 0.32171 0.0
O170 O 0.44129 1.02383 0.4439 0.0
O171 O 0.37639 0.85668 0.47125 0.0
O172 O 0.22536 0.08826 0.3604 0.0
O173 O 0.36223 0.17432 0.40881 0.0
O174 O 0.33533 0.96403 0.30419 0.0
O175 O 0.27907 0.86774 0.38085 0.0
O176 O 0.07536 0.78826 0.44682 0.0
O177 O 0.13663 0.92165 0.37741 0.0
C178 C 0.45054 0.94833 0.46648 0.0
C179 C 0.0632 0.83821 0.40176 0.0
Dy180 Dy 0.44448 0.20097 0.97468 0.0
C181 C 0.1478 0.2671 0.88415 0.0
C182 C 0.5621 0.11579 0.97834 0.0
Dy183 Dy 0.32812 0.28528 0.89635 0.0
O184 O 0.54996 0.16471 1.02432 0.0
O185 O 0.50778 0.11305 0.93147 0.0
O186 O 0.39537 0.24636 0.0653 0.0
O187 O 0.31376 0.21601 0.98409 0.0
C188 C 0.32254 0.25145 1.03825 0.0
C189 C 0.45883 0.27538 0.8217 0.0
O190 O 0.45383 0.42313 0.94389 0.0
O191 O 0.55609 0.35824 0.97124 0.0
O192 O 0.17347 0.2072 0.8604 0.0
O193 O 0.22428 0.34407 0.90881 0.0
O194 O 0.40766 0.31716 0.80418 0.0
O195 O 0.44771 0.26091 0.88084 0.0
O196 O 0.32349 0.05721 0.94682 0.0
O197 O 0.25136 0.11846 0.87741 0.0
C198 C 0.53859 0.43239 0.96647 0.0
C199 C 0.26135 0.04504 0.90174 0.0
Dy200 Dy 0.27984 0.42627 0.47467 0.0
C201 C 0.91713 0.1296 0.38426 0.0
C202 C 0.48251 0.54395 0.47828 0.0
Dy203 Dy 0.07914 0.30992 0.39633 0.0
O204 O 0.42154 0.53183 0.52431 0.0
O205 O 0.43104 0.48952 0.43141 0.0
O206 O 0.18535 0.37714 0.56529 0.0
O207 O 0.13406 0.29558 0.48406 0.0
C208 C 0.10742 0.30435 0.53823 0.0
C209 C 0.21977 0.44062 0.32169 0.0
O210 O 0.06702 0.43563 0.44387 0.0
O211 O 0.23418 0.53788 0.47123 0.0
O212 O 1.00265 0.15525 0.36041 0.0
O213 O 0.91654 0.20606 0.40883 0.0
O214 O 0.12682 0.38945 0.30416 0.0
O215 O 0.22311 0.4295 0.38083 0.0
O216 O 0.30259 0.30527 0.44681 0.0
O217 O 0.16921 0.23316 0.37739 0.0
C218 C 0.14253 0.52038 0.46646 0.0
C219 C 0.2526 0.24312 0.40173 0.0
Dy220 Dy 0.88995 0.26169 0.97467 0.0
C221 C 0.8239 0.89896 0.88426 0.0
C222 C 0.97493 0.46435 0.97829 0.0
Dy223 Dy 0.8056 0.06098 0.89634 0.0
O224 O 0.92608 0.40338 1.02432 0.0
O225 O 0.9779 0.41288 0.93142 0.0
O226 O 0.84459 0.16721 0.0653 0.0
O227 O 0.87486 0.1159 0.98408 0.0
C228 C 0.83945 0.08927 1.03824 0.0
C229 C 0.81551 0.20159 0.8217 0.0
O230 O 0.66777 0.04886 0.94388 0.0
O231 O 0.73268 0.21602 0.97122 0.0
O232 O 0.88379 0.98449 0.86042 0.0
O233 O 0.74685 0.89838 0.90882 0.0
O234 O 0.77373 0.10864 0.80416 0.0
O235 O 0.82999 0.20494 0.88083 0.0
O236 O 1.0337 0.28443 0.94681 0.0
O237 O 0.97241 0.15103 0.87739 0.0
C238 C 0.65852 0.12437 0.96645 0.0
C239 C 1.04586 0.23446 0.90175 0.0
loop_
_geom_bond_atom_site_label_1
_geom_bond_atom_site_label_2
_geom_bond_distance
_geom_bond_site_symmetry_2
_ccdc_geom_bond_type
Dy0 O4 2.398 . S
Dy0 O5 2.491 . S
Dy0 O6 2.403 1_554 S
Dy0 O7 2.664 . S
Dy0 O11 2.326 . S
Dy0 O15 2.310 . S
Dy0 O16 2.351 . S
C1 O12 1.185 . S
C1 O13 1.355 . S
C2 O4 1.185 . S
C2 O5 1.355 . S
Dy3 O7 2.310 . S
Dy3 O10 2.351 . S
Dy3 O12 2.398 . S
Dy3 O13 2.491 . S
Dy3 O14 2.403 . S
Dy3 O15 2.664 . S
Dy3 O17 2.326 . S
O4 Dy0 2.398 . S
O4 C2 1.185 . S
O5 Dy0 2.491 . S
O5 C2 1.355 . S
O6 Dy0 2.403 1_556 S
O6 C8 1.254 1_556 S
O7 Dy0 2.664 . S
O7 Dy3 2.310 . S
O7 C8 1.268 . S
C8 O6 1.254 1_554 S
C8 O7 1.268 . S
C9 O14 1.254 . S
C9 O15 1.268 . S
O10 Dy3 2.351 . S
O10 C18 1.249 . S
O11 Dy0 2.326 . S
O11 C18 1.267 . S
O12 C1 1.185 . S
O12 Dy3 2.398 . S
O13 C1 1.355 . S
O13 Dy3 2.491 . S
O14 Dy3 2.403 . S
O14 C9 1.254 . S
O15 Dy0 2.310 . S
O15 Dy3 2.664 . S
O15 C9 1.268 . S
O16 Dy0 2.351 . S
O16 C19 1.249 . S
O17 Dy3 2.326 . S
O17 C19 1.267 . S
C18 O10 1.249 . S
C18 O11 1.267 . S
C19 O16 1.249 . S
C19 O17 1.267 . S
Dy20 O24 2.398 . S
Dy20 O25 2.491 . S
Dy20 O26 2.403 . S
Dy20 O27 2.664 . S
Dy20 O31 2.326 . S
Dy20 O35 2.310 . S
Dy20 O36 2.351 . S
C21 O32 1.185 . S
C21 O33 1.355 . S
C22 O24 1.185 . S
C22 O25 1.355 . S
Dy23 O27 2.310 . S
Dy23 O30 2.351 . S
Dy23 O32 2.398 1_655 S
Dy23 O33 2.491 1_655 S
Dy23 O34 2.403 . S
Dy23 O35 2.664 . S
Dy23 O37 2.326 . S
O24 Dy20 2.398 . S
O24 C22 1.185 . S
O25 Dy20 2.491 . S
O25 C22 1.355 . S
O26 Dy20 2.403 . S
O26 C28 1.254 . S
O27 Dy20 2.664 . S
O27 Dy23 2.310 . S
O27 C28 1.268 . S
C28 O26 1.254 . S
C28 O27 1.268 . S
C29 O34 1.254 . S
C29 O35 1.268 . S
O30 Dy23 2.351 . S
O30 C38 1.249 . S
O31 Dy20 2.326 . S
O31 C38 1.267 . S
O32 C21 1.185 . S
O32 Dy23 2.398 1_455 S
O33 C21 1.355 . S
O33 Dy23 2.491 1_455 S
O34 Dy23 2.403 . S
O34 C29 1.254 . S
O35 Dy20 2.310 . S
O35 Dy23 2.664 . S
O35 C29 1.268 . S
O36 Dy20 2.351 . S
O36 C39 1.249 . S
O37 Dy23 2.326 . S
O37 C39 1.267 . S
C38 O30 1.249 . S
C38 O31 1.267 . S
C39 O36 1.249 . S
C39 O37 1.267 . S
Dy40 O44 2.398 . S
Dy40 O45 2.491 . S
Dy40 O46 2.403 1_554 S
Dy40 O47 2.664 . S
Dy40 O51 2.326 . S
Dy40 O55 2.310 . S
Dy40 O56 2.351 . S
C41 O52 1.185 . S
C41 O53 1.355 . S
C42 O44 1.185 . S
C42 O45 1.355 . S
Dy43 O47 2.310 . S
Dy43 O50 2.351 . S
Dy43 O52 2.398 1_565 S
Dy43 O53 2.491 1_565 S
Dy43 O54 2.403 . S
Dy43 O55 2.664 . S
Dy43 O57 2.326 . S
O44 Dy40 2.398 . S
O44 C42 1.185 . S
O45 Dy40 2.491 . S
O45 C42 1.355 . S
O46 Dy40 2.403 1_556 S
O46 C48 1.254 1_556 S
O47 Dy40 2.664 . S
O47 Dy43 2.310 . S
O47 C48 1.268 . S
C48 O46 1.254 1_554 S
C48 O47 1.268 . S
C49 O54 1.254 . S
C49 O55 1.268 . S
O50 Dy43 2.351 . S
O50 C58 1.249 . S
O51 Dy40 2.326 . S
O51 C58 1.267 . S
O52 C41 1.185 . S
O52 Dy43 2.398 1_545 S
O53 C41 1.355 . S
O53 Dy43 2.491 1_545 S
O54 Dy43 2.403 . S
O54 C49 1.254 . S
O55 Dy40 2.310 . S
O55 Dy43 2.664 . S
O55 C49 1.268 . S
O56 Dy40 2.351 . S
O56 C59 1.249 . S
O57 Dy43 2.326 . S
O57 C59 1.267 . S
C58 O50 1.249 . S
C58 O51 1.267 . S
C59 O56 1.249 . S
C59 O57 1.267 . S
Dy60 O64 2.398 . S
Dy60 O65 2.491 . S
Dy60 O66 2.403 . S
Dy60 O67 2.664 . S
Dy60 O71 2.326 . S
Dy60 O75 2.310 . S
Dy60 O76 2.351 . S
C61 O72 1.185 . S
C61 O73 1.355 . S
C62 O64 1.185 . S
C62 O65 1.355 . S
Dy63 O67 2.310 . S
Dy63 O70 2.351 . S
Dy63 O72 2.398 . S
Dy63 O73 2.491 . S
Dy63 O74 2.403 . S
Dy63 O75 2.664 . S
Dy63 O77 2.326 . S
O64 Dy60 2.398 . S
O64 C62 1.185 . S
O65 Dy60 2.491 . S
O65 C62 1.355 . S
O66 Dy60 2.403 . S
O66 C68 1.254 . S
O67 Dy60 2.664 . S
O67 Dy63 2.310 . S
O67 C68 1.268 . S
C68 O66 1.254 . S
C68 O67 1.268 . S
C69 O74 1.254 . S
C69 O75 1.268 . S
O70 Dy63 2.351 . S
O70 C78 1.249 . S
O71 Dy60 2.326 . S
O71 C78 1.267 . S
O72 C61 1.185 . S
O72 Dy63 2.398 . S
O73 C61 1.355 . S
O73 Dy63 2.491 . S
O74 Dy63 2.403 . S
O74 C69 1.254 . S
O75 Dy60 2.310 . S
O75 Dy63 2.664 . S
O75 C69 1.268 . S
O76 Dy60 2.351 . S
O76 C79 1.249 . S
O77 Dy63 2.326 . S
O77 C79 1.267 . S
C78 O70 1.249 . S
C78 O71 1.267 . S
C79 O76 1.249 . S
C79 O77 1.267 . S
Dy80 O84 2.398 . S
Dy80 O85 2.491 . S
Dy80 O86 2.403 1_554 S
Dy80 O87 2.664 . S
Dy80 O91 2.326 . S
Dy80 O95 2.310 . S
Dy80 O96 2.351 . S
C81 O92 1.185 . S
C81 O93 1.355 . S
C82 O84 1.185 . S
C82 O85 1.355 . S
Dy83 O87 2.310 . S
Dy83 O90 2.351 . S
Dy83 O92 2.398 1_455 S
Dy83 O93 2.491 1_455 S
Dy83 O94 2.403 . S
Dy83 O95 2.664 . S
Dy83 O97 2.326 . S
O84 Dy80 2.398 . S
O84 C82 1.185 . S
O85 Dy80 2.491 . S
O85 C82 1.355 . S
O86 Dy80 2.403 1_556 S
O86 C88 1.254 1_556 S
O87 Dy80 2.664 . S
O87 Dy83 2.310 . S
O87 C88 1.268 . S
C88 O86 1.254 1_554 S
C88 O87 1.268 . S
C89 O94 1.254 . S
C89 O95 1.268 . S
O90 Dy83 2.351 . S
O90 C98 1.249 . S
O91 Dy80 2.326 . S
O91 C98 1.267 . S
O92 C81 1.185 . S
O92 Dy83 2.398 1_655 S
O93 C81 1.355 . S
O93 Dy83 2.491 1_655 S
O94 Dy83 2.403 . S
O94 C89 1.254 . S
O95 Dy80 2.310 . S
O95 Dy83 2.664 . S
O95 C89 1.268 . S
O96 Dy80 2.351 . S
O96 C99 1.249 . S
O97 Dy83 2.326 . S
O97 C99 1.267 . S
C98 O90 1.249 . S
C98 O91 1.267 . S
C99 O96 1.249 . S
C99 O97 1.267 . S
Dy100 O104 2.398 . S
Dy100 O105 2.491 . S
Dy100 O106 2.403 . S
Dy100 O107 2.664 . S
Dy100 O111 2.326 . S
Dy100 O115 2.310 . S
Dy100 O116 2.351 . S
C101 O112 1.185 . S
C101 O113 1.355 . S
C102 O104 1.185 . S
C102 O105 1.355 . S
Dy103 O107 2.310 . S
Dy103 O110 2.351 . S
Dy103 O112 2.398 1_545 S
Dy103 O113 2.491 1_545 S
Dy103 O114 2.403 . S
Dy103 O115 2.664 . S
Dy103 O117 2.326 . S
O104 Dy100 2.398 . S
O104 C102 1.185 . S
O105 Dy100 2.491 . S
O105 C102 1.355 . S
O106 Dy100 2.403 . S
O106 C108 1.254 . S
O107 Dy100 2.664 . S
O107 Dy103 2.310 . S
O107 C108 1.268 . S
C108 O106 1.254 . S
C108 O107 1.268 . S
C109 O114 1.254 . S
C109 O115 1.268 . S
O110 Dy103 2.351 . S
O110 C118 1.249 . S
O111 Dy100 2.326 . S
O111 C118 1.267 . S
O112 C101 1.185 . S
O112 Dy103 2.398 1_565 S
O113 C101 1.355 . S
O113 Dy103 2.491 1_565 S
O114 Dy103 2.403 . S
O114 C109 1.254 . S
O115 Dy100 2.310 . S
O115 Dy103 2.664 . S
O115 C109 1.268 . S
O116 Dy100 2.351 . S
O116 C119 1.249 . S
O117 Dy103 2.326 . S
O117 C119 1.267 . S
C118 O110 1.249 . S
C118 O111 1.267 . S
C119 O116 1.249 . S
C119 O117 1.267 . S
Dy120 O124 2.398 . S
Dy120 O125 2.491 . S
Dy120 O126 2.403 . S
Dy120 O127 2.664 . S
Dy120 O131 2.326 . S
Dy120 O135 2.310 . S
Dy120 O136 2.351 . S
C121 O132 1.185 . S
C121 O133 1.355 . S
C122 O124 1.185 . S
C122 O125 1.355 . S
Dy123 O127 2.310 . S
Dy123 O130 2.351 . S
Dy123 O132 2.398 . S
Dy123 O133 2.491 . S
Dy123 O134 2.403 . S
Dy123 O135 2.664 . S
Dy123 O137 2.326 . S
O124 Dy120 2.398 . S
O124 C122 1.185 . S
O125 Dy120 2.491 . S
O125 C122 1.355 . S
O126 Dy120 2.403 . S
O126 C128 1.254 . S
O127 Dy120 2.664 . S
O127 Dy123 2.310 . S
O127 C128 1.268 . S
C128 O126 1.254 . S
C128 O127 1.268 . S
C129 O134 1.254 . S
C129 O135 1.268 . S
O130 Dy123 2.351 . S
O130 C138 1.249 . S
O131 Dy120 2.326 . S
O131 C138 1.267 . S
O132 C121 1.185 . S
O132 Dy123 2.398 . S
O133 C121 1.355 . S
O133 Dy123 2.491 . S
O134 Dy123 2.403 . S
O134 C129 1.254 . S
O135 Dy120 2.310 . S
O135 Dy123 2.664 . S
O135 C129 1.268 . S
O136 Dy120 2.351 . S
O136 C139 1.249 . S
O137 Dy123 2.326 . S
O137 C139 1.267 . S
C138 O130 1.249 . S
C138 O131 1.267 . S
C139 O136 1.249 . S
C139 O137 1.267 . S
Dy140 O144 2.398 . S
Dy140 O145 2.491 . S
Dy140 O146 2.403 1_556 S
Dy140 O147 2.664 . S
Dy140 O151 2.326 . S
Dy140 O155 2.310 . S
Dy140 O156 2.351 . S
C141 O152 1.185 . S
C141 O153 1.355 . S
C142 O144 1.185 . S
C142 O145 1.355 . S
Dy143 O147 2.310 . S
Dy143 O150 2.351 . S
Dy143 O152 2.398 1_655 S
Dy143 O153 2.491 1_655 S
Dy143 O154 2.403 . S
Dy143 O155 2.664 . S
Dy143 O157 2.326 . S
O144 Dy140 2.398 . S
O144 C142 1.185 . S
O145 Dy140 2.491 . S
O145 C142 1.355 . S
O146 Dy140 2.403 1_554 S
O146 C148 1.254 1_554 S
O147 Dy140 2.664 . S
O147 Dy143 2.310 . S
O147 C148 1.268 . S
C148 O146 1.254 1_556 S
C148 O147 1.268 . S
C149 O154 1.254 . S
C149 O155 1.268 . S
O150 Dy143 2.351 . S
O150 C158 1.249 . S
O151 Dy140 2.326 . S
O151 C158 1.267 . S
O152 C141 1.185 . S
O152 Dy143 2.398 1_455 S
O153 C141 1.355 . S
O153 Dy143 2.491 1_455 S
O154 Dy143 2.403 . S
O154 C149 1.254 . S
O155 Dy140 2.310 . S
O155 Dy143 2.664 . S
O155 C149 1.268 . S
O156 Dy140 2.351 . S
O156 C159 1.249 . S
O157 Dy143 2.326 . S
O157 C159 1.267 . S
C158 O150 1.249 . S
C158 O151 1.267 . S
C159 O156 1.249 . S
C159 O157 1.267 . S
Dy160 O164 2.398 . S
Dy160 O165 2.491 . S
Dy160 O166 2.403 . S
Dy160 O167 2.664 . S
Dy160 O171 2.326 . S
Dy160 O175 2.310 . S
Dy160 O176 2.351 . S
C161 O172 1.185 . S
C161 O173 1.355 . S
C162 O164 1.185 . S
C162 O165 1.355 . S
Dy163 O167 2.310 . S
Dy163 O170 2.351 . S
Dy163 O172 2.398 1_565 S
Dy163 O173 2.491 1_565 S
Dy163 O174 2.403 . S
Dy163 O175 2.664 . S
Dy163 O177 2.326 . S
O164 Dy160 2.398 . S
O164 C162 1.185 . S
O165 Dy160 2.491 . S
O165 C162 1.355 . S
O166 Dy160 2.403 . S
O166 C168 1.254 . S
O167 Dy160 2.664 . S
O167 Dy163 2.310 . S
O167 C168 1.268 . S
C168 O166 1.254 . S
C168 O167 1.268 . S
C169 O174 1.254 . S
C169 O175 1.268 . S
O170 Dy163 2.351 . S
O170 C178 1.249 . S
O171 Dy160 2.326 . S
O171 C178 1.267 . S
O172 C161 1.185 . S
O172 Dy163 2.398 1_545 S
O173 C161 1.355 . S
O173 Dy163 2.491 1_545 S
O174 Dy163 2.403 . S
O174 C169 1.254 . S
O175 Dy160 2.310 . S
O175 Dy163 2.664 . S
O175 C169 1.268 . S
O176 Dy160 2.351 . S
O176 C179 1.249 . S
O177 Dy163 2.326 . S
O177 C179 1.267 . S
C178 O170 1.249 . S
C178 O171 1.267 . S
C179 O176 1.249 . S
C179 O177 1.267 . S
Dy180 O184 2.398 . S
Dy180 O185 2.491 . S
Dy180 O186 2.403 1_556 S
Dy180 O187 2.664 . S
Dy180 O191 2.326 . S
Dy180 O195 2.310 . S
Dy180 O196 2.351 . S
C181 O192 1.185 . S
C181 O193 1.355 . S
C182 O184 1.185 . S
C182 O185 1.355 . S
Dy183 O187 2.310 . S
Dy183 O190 2.351 . S
Dy183 O192 2.398 . S
Dy183 O193 2.491 . S
Dy183 O194 2.403 . S
Dy183 O195 2.664 . S
Dy183 O197 2.326 . S
O184 Dy180 2.398 . S
O184 C182 1.185 . S
O185 Dy180 2.491 . S
O185 C182 1.355 . S
O186 Dy180 2.403 1_554 S
O186 C188 1.254 1_554 S
O187 Dy180 2.664 . S
O187 Dy183 2.310 . S
O187 C188 1.268 . S
C188 O186 1.254 1_556 S
C188 O187 1.268 . S
C189 O194 1.254 . S
C189 O195 1.268 . S
O190 Dy183 2.351 . S
O190 C198 1.249 . S
O191 Dy180 2.326 . S
O191 C198 1.267 . S
O192 C181 1.185 . S
O192 Dy183 2.398 . S
O193 C181 1.355 . S
O193 Dy183 2.491 . S
O194 Dy183 2.403 . S
O194 C189 1.254 . S
O195 Dy180 2.310 . S
O195 Dy183 2.664 . S
O195 C189 1.268 . S
O196 Dy180 2.351 . S
O196 C199 1.249 . S
O197 Dy183 2.326 . S
O197 C199 1.267 . S
C198 O190 1.249 . S
C198 O191 1.267 . S
C199 O196 1.249 . S
C199 O197 1.267 . S
Dy200 O204 2.398 . S
Dy200 O205 2.491 . S
Dy200 O206 2.403 . S
Dy200 O207 2.664 . S
Dy200 O211 2.326 . S
Dy200 O215 2.310 . S
Dy200 O216 2.351 . S
C201 O212 1.185 . S
C201 O213 1.355 . S
C202 O204 1.185 . S
C202 O205 1.355 . S
Dy203 O207 2.310 . S
Dy203 O210 2.351 . S
Dy203 O212 2.398 1_455 S
Dy203 O213 2.491 1_455 S
Dy203 O214 2.403 . S
Dy203 O215 2.664 . S
Dy203 O217 2.326 . S
O204 Dy200 2.398 . S
O204 C202 1.185 . S
O205 Dy200 2.491 . S
O205 C202 1.355 . S
O206 Dy200 2.403 . S
O206 C208 1.254 . S
O207 Dy200 2.664 . S
O207 Dy203 2.310 . S
O207 C208 1.268 . S
C208 O206 1.254 . S
C208 O207 1.268 . S
C209 O214 1.254 . S
C209 O215 1.268 . S
O210 Dy203 2.351 . S
O210 C218 1.249 . S
O211 Dy200 2.326 . S
O211 C218 1.267 . S
O212 C201 1.185 . S
O212 Dy203 2.398 1_655 S
O213 C201 1.355 . S
O213 Dy203 2.491 1_655 S
O214 Dy203 2.403 . S
O214 C209 1.254 . S
O215 Dy200 2.310 . S
O215 Dy203 2.664 . S
O215 C209 1.268 . S
O216 Dy200 2.351 . S
O216 C219 1.249 . S
O217 Dy203 2.326 . S
O217 C219 1.267 . S
C218 O210 1.249 . S
C218 O211 1.267 . S
C219 O216 1.249 . S
C219 O217 1.267 . S
Dy220 O224 2.398 . S
Dy220 O225 2.491 . S
Dy220 O226 2.403 1_556 S
Dy220 O227 2.664 . S
Dy220 O231 2.326 . S
Dy220 O235 2.310 . S
Dy220 O236 2.351 . S
C221 O232 1.185 . S
C221 O233 1.355 . S
C222 O224 1.185 . S
C222 O225 1.355 . S
Dy223 O227 2.310 . S
Dy223 O230 2.351 . S
Dy223 O232 2.398 1_545 S
Dy223 O233 2.491 1_545 S
Dy223 O234 2.403 . S
Dy223 O235 2.664 . S
Dy223 O237 2.326 . S
O224 Dy220 2.398 . S
O224 C222 1.185 . S
O225 Dy220 2.491 . S
O225 C222 1.355 . S
O226 Dy220 2.403 1_554 S
O226 C228 1.254 1_554 S
O227 Dy220 2.664 . S
O227 Dy223 2.310 . S
O227 C228 1.268 . S
C228 O226 1.254 1_556 S
C228 O227 1.268 . S
C229 O234 1.254 . S
C229 O235 1.268 . S
O230 Dy223 2.351 . S
O230 C238 1.249 . S
O231 Dy220 2.326 . S
O231 C238 1.267 . S
O232 C221 1.185 . S
O232 Dy223 2.398 1_565 S
O233 C221 1.355 . S
O233 Dy223 2.491 1_565 S
O234 Dy223 2.403 . S
O234 C229 1.254 . S
O235 Dy220 2.310 . S
O235 Dy223 2.664 . S
O235 C229 1.268 . S
O236 Dy220 2.351 . S
O236 C239 1.249 . S
O237 Dy223 2.326 . S
O237 C239 1.267 . S
C238 O230 1.249 . S
C238 O231 1.267 . S
C239 O236 1.249 . S
C239 O237 1.267 . S
C99 C1 1.568 1_565 S
C119 C21 1.568 . S
C41 C19 1.568 1_655 S
C61 C39 1.568 1_565 S
C81 C59 1.568 . S
C79 C101 1.568 1_655 S
C179 C121 1.568 1_455 S
C141 C199 1.568 1_565 S
C219 C161 1.568 . S
C181 C239 1.568 1_455 S
C201 C139 1.568 1_545 S
C159 C221 1.568 . S
C98 C2 1.759 . S
C22 C118 1.759 . S
C42 C18 1.759 . S
C62 C38 1.759 . S
C58 C82 1.758 . S
C78 C102 1.759 . S
C178 C122 1.758 . S
C142 C198 1.759 . S
C162 C218 1.758 . S
C238 C182 1.759 . S
C202 C138 1.759 . S
C158 C222 1.759 . S
C209 C9 1.421 . S
C29 C229 1.421 . S
C49 C129 1.421 . S
C69 C149 1.421 . S
C89 C169 1.421 . S
C189 C109 1.421 . S
C188 C8 3.379 1_556 S
C208 C28 3.379 1_455 S
C48 C228 3.379 1_564 S
C68 C128 3.379 . S
C148 C88 3.379 1_656 S
C168 C108 3.379 1_565 S
