# Generated by pormake.
# Topology upb, (4)-cn, num edge types: 1
# Building blocks:
#     Node 0, Type 0, BuildingBlock: NAHDIM_clean_sbu_0, # of connection points: 4
#     Node 1, Type 0, BuildingBlock: NAHDIM_clean_sbu_0, # of connection points: 4
#     Node 2, Type 0, BuildingBlock: NAHDIM_clean_sbu_0, # of connection points: 4
#     Node 3, Type 0, BuildingBlock: NAHDIM_clean_sbu_0, # of connection points: 4
#     Node 4, Type 0, BuildingBlock: NAHDIM_clean_sbu_0, # of connection points: 4
#     Node 5, Type 0, BuildingBlock: NAHDIM_clean_sbu_0, # of connection points: 4
#     Node 6, Type 0, BuildingBlock: NAHDIM_clean_sbu_0, # of connection points: 4
#     Node 7, Type 0, BuildingBlock: NAHDIM_clean_sbu_0, # of connection points: 4
#     Node 8, Type 0, BuildingBlock: NAHDIM_clean_sbu_0, # of connection points: 4
#     Node 9, Type 0, BuildingBlock: NAHDIM_clean_sbu_0, # of connection points: 4
#     Node 10, Type 0, BuildingBlock: NAHDIM_clean_sbu_0, # of connection points: 4
#     Node 11, Type 0, BuildingBlock: NAHDIM_clean_sbu_0, # of connection points: 4
#     Node 12, Type 0, BuildingBlock: NAHDIM_clean_sbu_0, # of connection points: 4
#     Node 13, Type 0, BuildingBlock: NAHDIM_clean_sbu_0, # of connection points: 4
#     Node 14, Type 0, BuildingBlock: NAHDIM_clean_sbu_0, # of connection points: 4
#     Node 15, Type 0, BuildingBlock: NAHDIM_clean_sbu_0, # of connection points: 4
#     Edge 16, Type (0, 0), BuildingBlock: EZIPEK_clean_linker_0, # of connection points: 2
#     Edge 17, Type (0, 0), BuildingBlock: EZIPEK_clean_linker_0, # of connection points: 2
#     Edge 18, Type (0, 0), BuildingBlock: EZIPEK_clean_linker_0, # of connection points: 2
#     Edge 19, Type (0, 0), BuildingBlock: EZIPEK_clean_linker_0, # of connection points: 2
#     Edge 20, Type (0, 0), BuildingBlock: EZIPEK_clean_linker_0, # of connection points: 2
#     Edge 21, Type (0, 0), BuildingBlock: EZIPEK_clean_linker_0, # of connection points: 2
#     Edge 22, Type (0, 0), BuildingBlock: EZIPEK_clean_linker_0, # of connection points: 2
#     Edge 23, Type (0, 0), BuildingBlock: EZIPEK_clean_linker_0, # of connection points: 2
#     Edge 24, Type (0, 0), BuildingBlock: EZIPEK_clean_linker_0, # of connection points: 2
#     Edge 25, Type (0, 0), BuildingBlock: EZIPEK_clean_linker_0, # of connection points: 2
#     Edge 26, Type (0, 0), BuildingBlock: EZIPEK_clean_linker_0, # of connection points: 2
#     Edge 27, Type (0, 0), BuildingBlock: EZIPEK_clean_linker_0, # of connection points: 2
#     Edge 28, Type (0, 0), BuildingBlock: EZIPEK_clean_linker_0, # of connection points: 2
#     Edge 29, Type (0, 0), BuildingBlock: EZIPEK_clean_linker_0, # of connection points: 2
#     Edge 30, Type (0, 0), BuildingBlock: EZIPEK_clean_linker_0, # of connection points: 2
#     Edge 31, Type (0, 0), BuildingBlock: EZIPEK_clean_linker_0, # of connection points: 2
#     Edge 32, Type (0, 0), BuildingBlock: EZIPEK_clean_linker_0, # of connection points: 2
#     Edge 33, Type (0, 0), BuildingBlock: EZIPEK_clean_linker_0, # of connection points: 2
#     Edge 34, Type (0, 0), BuildingBlock: EZIPEK_clean_linker_0, # of connection points: 2
#     Edge 35, Type (0, 0), BuildingBlock: EZIPEK_clean_linker_0, # of connection points: 2
#     Edge 36, Type (0, 0), BuildingBlock: EZIPEK_clean_linker_0, # of connection points: 2
#     Edge 37, Type (0, 0), BuildingBlock: EZIPEK_clean_linker_0, # of connection points: 2
#     Edge 38, Type (0, 0), BuildingBlock: EZIPEK_clean_linker_0, # of connection points: 2
#     Edge 39, Type (0, 0), BuildingBlock: EZIPEK_clean_linker_0, # of connection points: 2
#     Edge 40, Type (0, 0), BuildingBlock: EZIPEK_clean_linker_0, # of connection points: 2
#     Edge 41, Type (0, 0), BuildingBlock: EZIPEK_clean_linker_0, # of connection points: 2
#     Edge 42, Type (0, 0), BuildingBlock: EZIPEK_clean_linker_0, # of connection points: 2
#     Edge 43, Type (0, 0), BuildingBlock: EZIPEK_clean_linker_0, # of connection points: 2
#     Edge 44, Type (0, 0), BuildingBlock: EZIPEK_clean_linker_0, # of connection points: 2
#     Edge 45, Type (0, 0), BuildingBlock: EZIPEK_clean_linker_0, # of connection points: 2
#     Edge 46, Type (0, 0), BuildingBlock: EZIPEK_clean_linker_0, # of connection points: 2
#     Edge 47, Type (0, 0), BuildingBlock: EZIPEK_clean_linker_0, # of connection points: 2
# Relax obj value: 0.223
# Max RMSD: 0.106
# Mean RMSD: 0.106
data_MOF--net-upb--node1-NAHDIM_clean_sbu_0--edge1-EZIPEK_clean_linker_0
_symmetry_space_group_name_H-M    P1
_symmetry_Int_Tables_number       1
_symmetry_cell_setting            triclinic
loop_
_symmetry_equiv_pos_as_xyz
'x, y, z'
_cell_length_a     29.075587
_cell_length_b     29.05211
_cell_length_c     33.153924
_cell_angle_alpha  89.907698
_cell_angle_beta   90.003108
_cell_angle_gamma 90.009167
loop_
_atom_site_label
_atom_site_type_symbol
_atom_site_fract_x
_atom_site_fract_y
_atom_site_fract_z
_atom_type_partial_charge
C0 C 0.03526 0.36384 0.29703 0.0
O1 O 0.07056 0.34514 0.31553 0.0
O2 O 0.98805 0.29271 0.38936 0.0
Zn3 Zn 0.99412 0.28386 0.32896 0.0
O4 O 0.05215 0.24764 0.31393 0.0
C5 C 0.93868 0.2043 0.32024 0.0
O6 O 0.97507 0.18685 0.33793 0.0
O7 O 0.99601 0.34494 0.29994 0.0
C8 C 0.07241 0.21994 0.3378 0.0
O9 O 0.05715 0.21464 0.37473 0.0
C10 C 0.02053 0.3006 0.41408 0.0
O11 O 0.06224 0.30796 0.40034 0.0
O12 O 0.93802 0.24703 0.31186 0.0
C13 C 0.63263 0.00899 0.30091 0.0
O14 O 0.62231 0.98593 0.33379 0.0
O15 O 0.70678 0.99143 0.38616 0.0
Zn16 Zn 0.72748 0.00386 0.32856 0.0
O17 O 0.76687 0.06078 0.3276 0.0
C18 C 0.7648 0.91136 0.32296 0.0
O19 O 0.72871 0.89939 0.3443 0.0
O20 O 0.67437 0.01674 0.29207 0.0
C21 C 0.79646 0.06781 0.30004 0.0
O22 O 0.79999 0.03863 0.26999 0.0
C23 C 0.72725 0.01184 0.41495 0.0
O24 O 0.75913 0.04241 0.40683 0.0
O25 O 0.76878 0.95251 0.31057 0.0
C26 C 0.95746 0.64392 0.30046 0.0
O27 O 0.93998 0.6472 0.33686 0.0
O28 O 0.00844 0.70448 0.38228 0.0
Zn29 Zn 0.9963 0.72781 0.32551 0.0
O30 O 0.93666 0.76478 0.32427 0.0
C31 C 0.06593 0.79644 0.33209 0.0
O32 O 0.04758 0.79902 0.36818 0.0
O33 O 0.9859 0.67419 0.28842 0.0
C34 C 0.93428 0.80819 0.31981 0.0
O35 O 0.97199 0.83251 0.31604 0.0
C36 C 0.98825 0.72349 0.4119 0.0
O37 O 0.95794 0.75603 0.40505 0.0
O38 O 0.05038 0.76709 0.30713 0.0
C39 C 0.35552 0.96758 0.30188 0.0
O40 O 0.35283 0.95489 0.33985 0.0
O41 O 0.29504 0.01802 0.38106 0.0
Zn42 Zn 0.27171 0.00827 0.32397 0.0
O43 O 0.23281 0.95016 0.32106 0.0
C44 C 0.21002 0.08442 0.33093 0.0
O45 O 0.20918 0.0694 0.36822 0.0
O46 O 0.32524 0.9946 0.28761 0.0
C47 C 0.18933 0.94853 0.32451 0.0
O48 O 0.16602 0.98664 0.33014 0.0
C49 C 0.27132 0.00336 0.41058 0.0
O50 O 0.23233 0.98207 0.40374 0.0
O51 O 0.23528 0.06423 0.30511 0.0
C52 C 0.02382 0.6259 0.69595 0.0
O53 O 0.99961 0.61415 0.66415 0.0
O54 O 0.00723 0.69891 0.61006 0.0
Zn55 Zn 0.01615 0.7215 0.66756 0.0
O56 O 0.07271 0.76229 0.67091 0.0
C57 C 0.93849 0.7821 0.6621 0.0
O58 O 0.95128 0.7822 0.62418 0.0
O59 O 0.03166 0.66803 0.70333 0.0
C60 C 0.07184 0.80575 0.66672 0.0
O61 O 0.03262 0.82668 0.65996 0.0
C62 C 0.01997 0.72418 0.58078 0.0
O63 O 0.03967 0.76388 0.58814 0.0
O64 O 0.95984 0.75677 0.68723 0.0
C65 C 0.3764 0.01936 0.69022 0.0
O66 O 0.38607 0.00542 0.65353 0.0
O67 O 0.30125 0.0059 0.60822 0.0
Zn68 Zn 0.28033 0.0114 0.66643 0.0
O69 O 0.24247 0.06933 0.67476 0.0
C70 C 0.21671 0.93751 0.65699 0.0
O71 O 0.21517 0.95464 0.62039 0.0
O72 O 0.33491 0.02064 0.70203 0.0
C73 C 0.19937 0.07218 0.66895 0.0
O74 O 0.17641 0.03575 0.65708 0.0
C75 C 0.27802 0.02429 0.58004 0.0
O76 O 0.2415 0.04872 0.58892 0.0
O77 O 0.24353 0.95525 0.68294 0.0
C78 C 0.9521 0.35898 0.70258 0.0
O79 O 0.92386 0.34944 0.67284 0.0
O80 O 0.99772 0.29959 0.61335 0.0
Zn81 Zn 0.99368 0.27932 0.67185 0.0
O82 O 0.93541 0.24146 0.67884 0.0
C83 C 0.08144 0.22902 0.66742 0.0
O84 O 0.0841 0.24687 0.6311 0.0
O85 O 0.98774 0.33445 0.70768 0.0
C86 C 0.93578 0.19796 0.6747 0.0
O87 O 0.97464 0.17687 0.6668 0.0
C88 C 0.99934 0.26924 0.58583 0.0
O89 O 0.99878 0.22556 0.59609 0.0
O90 O 0.04816 0.24062 0.68998 0.0
C91 C 0.63235 0.98097 0.69451 0.0
O92 O 0.6236 1.00008 0.65942 0.0
O93 O 0.70811 0.99631 0.6135 0.0
Zn94 Zn 0.7291 0.98932 0.67166 0.0
O95 O 0.76841 0.93175 0.67744 0.0
C96 C 0.79082 0.06624 0.66438 0.0
O97 O 0.79171 0.05163 0.62699 0.0
O98 O 0.67371 0.97655 0.70626 0.0
C99 C 0.81186 0.93096 0.67335 0.0
O100 O 0.83407 0.96928 0.66559 0.0
C101 C 0.73327 0.98236 0.58467 0.0
O102 O 0.77266 0.96233 0.59269 0.0
O103 O 0.76501 0.04604 0.68989 0.0
C104 C 0.53715 0.85069 0.79087 0.0
O105 O 0.56624 0.84078 0.8199 0.0
O106 O 0.48979 0.78826 0.88049 0.0
Zn107 Zn 0.49959 0.77 0.82222 0.0
O108 O 0.56144 0.73813 0.81787 0.0
C109 C 0.4102 0.72433 0.82216 0.0
O110 O 0.39915 0.75639 0.84828 0.0
O111 O 0.50153 0.82589 0.78634 0.0
C112 C 0.56522 0.69499 0.82317 0.0
O113 O 0.52833 0.67015 0.82993 0.0
C114 C 0.52208 0.78452 0.90618 0.0
O115 O 0.56361 0.77378 0.89388 0.0
O116 O 0.44993 0.72447 0.80612 0.0
C117 C 0.15068 0.53279 0.79825 0.0
O118 O 0.15589 0.55723 0.83124 0.0
O119 O 0.2044 0.48434 0.88721 0.0
Zn120 Zn 0.22973 0.49454 0.83139 0.0
O121 O 0.26511 0.5544 0.8318 0.0
C122 C 0.26493 0.40175 0.81371 0.0
O123 O 0.2218 0.38837 0.81447 0.0
O124 O 0.1783 0.49988 0.79124 0.0
C125 C 0.29058 0.56659 0.80252 0.0
O126 O 0.29332 0.54051 0.7703 0.0
C127 C 0.23218 0.49262 0.91584 0.0
O128 O 0.27395 0.50694 0.90757 0.0
O129 O 0.27484 0.44391 0.81896 0.0
C130 C 0.46056 0.14361 0.79907 0.0
O131 O 0.43136 0.14949 0.82883 0.0
O132 O 0.50664 0.19827 0.89179 0.0
Zn133 Zn 0.4986 0.22203 0.83529 0.0
O134 O 0.43793 0.25686 0.83484 0.0
C135 C 0.55078 0.30633 0.82453 0.0
O136 O 0.51179 0.32618 0.83388 0.0
O137 O 0.49514 0.16998 0.79608 0.0
C138 C 0.42379 0.2821 0.80606 0.0
O139 O 0.44857 0.28555 0.77305 0.0
C140 C 0.50779 0.22963 0.9184 0.0
O141 O 0.50448 0.27286 0.90722 0.0
O142 O 0.55301 0.26278 0.8218 0.0
C143 C 0.86531 0.48657 0.80933 0.0
O144 O 0.87602 0.49712 0.84667 0.0
O145 O 0.79194 0.50339 0.89352 0.0
Zn146 Zn 0.77121 0.50079 0.83533 0.0
O147 O 0.7312 0.44411 0.82975 0.0
C148 C 0.73595 0.59563 0.83676 0.0
O149 O 0.77035 0.60471 0.86113 0.0
O150 O 0.82391 0.49008 0.79759 0.0
C151 C 0.68797 0.447 0.82467 0.0
O152 O 0.66838 0.4876 0.82211 0.0
C153 C 0.76036 0.49836 0.91961 0.0
O154 O 0.71758 0.49373 0.9077 0.0
O155 O 0.73225 0.55594 0.82119 0.0
C156 C 0.54435 0.14416 0.20589 0.0
O157 O 0.57627 0.15894 0.181 0.0
O158 O 0.49215 0.20638 0.11531 0.0
Zn159 Zn 0.49934 0.22229 0.17411 0.0
O160 O 0.55454 0.26436 0.17997 0.0
C161 C 0.44092 0.29845 0.17622 0.0
O162 O 0.47418 0.31391 0.15313 0.0
O163 O 0.50613 0.1651 0.20752 0.0
C164 C 0.57995 0.27075 0.21064 0.0
O165 O 0.57161 0.24859 0.24441 0.0
C166 C 0.5245 0.21454 0.09052 0.0
O167 O 0.56437 0.22922 0.10392 0.0
O168 O 0.44317 0.25791 0.19045 0.0
C169 C 0.85467 0.52385 0.19599 0.0
O170 O 0.86117 0.52199 0.15684 0.0
O171 O 0.78417 0.48228 0.11757 0.0
Zn172 Zn 0.76324 0.49553 0.17428 0.0
O173 O 0.72436 0.55267 0.16999 0.0
C174 C 0.72452 0.40357 0.18242 0.0
O175 O 0.756 0.39235 0.1558 0.0
O176 O 0.81624 0.5114 0.21063 0.0
C177 C 0.70367 0.57112 0.19956 0.0
O178 O 0.70697 0.55285 0.23569 0.0
C179 C 0.75354 0.48658 0.09052 0.0
O180 O 0.71106 0.49607 0.10095 0.0
O181 O 0.72295 0.44449 0.19589 0.0
C182 C 0.45794 0.85585 0.1901 0.0
O183 O 0.44002 0.85312 0.15383 0.0
O184 O 0.50614 0.7979 0.10609 0.0
Zn185 Zn 0.49665 0.7735 0.16273 0.0
O186 O 0.43728 0.73649 0.1634 0.0
C187 C 0.58637 0.72602 0.16198 0.0
O188 O 0.59556 0.75079 0.12986 0.0
O189 O 0.48678 0.82561 0.20135 0.0
C190 C 0.43537 0.69524 0.17626 0.0
O191 O 0.47284 0.67551 0.19003 0.0
C192 C 0.50369 0.76852 0.07788 0.0
O193 O 0.49652 0.72513 0.08704 0.0
O194 O 0.5485 0.73146 0.18049 0.0
C195 C 0.12448 0.49427 0.19963 0.0
O196 O 0.11485 0.51924 0.16767 0.0
O197 O 0.20054 0.49805 0.11372 0.0
Zn198 Zn 0.22095 0.49537 0.17243 0.0
O199 O 0.26214 0.43969 0.18195 0.0
C200 C 0.28344 0.56987 0.16154 0.0
O201 O 0.28642 0.54992 0.12616 0.0
O202 O 0.1659 0.48381 0.2076 0.0
C203 C 0.30556 0.43956 0.17746 0.0
O204 O 0.32685 0.47761 0.16725 0.0
C205 C 0.22492 0.47966 0.08629 0.0
O206 O 0.26238 0.45721 0.0962 0.0
O207 O 0.25519 0.55404 0.18738 0.0
C208 C 0.10692 0.15494 0.29833 0.0
C209 C 0.1129 0.19283 0.32481 0.0
C210 C 0.19111 0.16698 0.34047 0.0
C211 C 0.18168 0.12502 0.32046 0.0
N212 N 0.13315 0.07917 0.27752 0.0
N213 N 0.16147 0.23869 0.36761 0.0
C214 C 0.14078 0.11949 0.29763 0.0
C215 C 0.15562 0.20031 0.34436 0.0
N216 N 0.06854 0.15249 0.27461 0.0
N217 N 0.23422 0.17456 0.35556 0.0
H218 H 0.13734 0.26525 0.36844 0.0
H219 H 0.18937 0.244 0.38667 0.0
H220 H 0.26079 0.15068 0.3523 0.0
H221 H 0.24493 0.2055 0.36821 0.0
H222 H 0.06375 0.12802 0.25213 0.0
H223 H 0.04265 0.17726 0.27514 0.0
H224 H 0.1018 0.07002 0.26471 0.0
H225 H 0.15819 0.05373 0.27462 0.0
C226 C 0.88286 0.14809 0.34842 0.0
C227 C 0.89756 0.17474 0.31504 0.0
C228 C 0.83946 0.13679 0.27304 0.0
C229 C 0.83079 0.10509 0.30485 0.0
N230 N 0.85414 0.0742 0.36953 0.0
N231 N 0.89344 0.19091 0.24364 0.0
C232 C 0.85506 0.10901 0.34176 0.0
C233 C 0.87664 0.16847 0.27675 0.0
N234 N 0.89454 0.16076 0.3867 0.0
N235 N 0.81157 0.13752 0.23989 0.0
H236 H 0.92072 0.21412 0.24504 0.0
H237 H 0.88267 0.1837 0.21435 0.0
H238 H 0.78355 0.11544 0.23651 0.0
H239 H 0.8136 0.16284 0.21767 0.0
H240 H 0.88159 0.14436 0.4123 0.0
H241 H 0.91229 0.19116 0.39269 0.0
H242 H 0.87459 0.07421 0.39536 0.0
H243 H 0.83755 0.04292 0.36444 0.0
C244 C 0.84157 0.89215 0.35221 0.0
C245 C 0.8064 0.88222 0.32377 0.0
C246 C 0.85529 0.82398 0.2921 0.0
C247 C 0.88938 0.83203 0.32196 0.0
N248 N 0.91136 0.8666 0.38521 0.0
N249 N 0.77574 0.83378 0.27141 0.0
C250 C 0.88149 0.8641 0.3534 0.0
C251 C 0.8119 0.84634 0.29533 0.0
N252 N 0.83731 0.929 0.3776 0.0
N253 N 0.86535 0.79721 0.25941 0.0
H254 H 0.74393 0.85037 0.27242 0.0
H255 H 0.77606 0.80477 0.25301 0.0
H256 H 0.89743 0.78193 0.25524 0.0
H257 H 0.8436 0.79356 0.23467 0.0
H258 H 0.86419 0.94144 0.39525 0.0
H259 H 0.80787 0.94938 0.37916 0.0
H260 H 0.90479 0.88548 0.41125 0.0
H261 H 0.94096 0.84649 0.38736 0.0
C262 C 0.14366 0.82802 0.34664 0.0
C263 C 0.10415 0.82816 0.32168 0.0
C264 C 0.13037 0.89986 0.29002 0.0
C265 C 0.16441 0.9042 0.32044 0.0
N266 N 0.20492 0.87194 0.37756 0.0
N267 N 0.06065 0.86224 0.26731 0.0
C268 C 0.17212 0.86774 0.34827 0.0
C269 C 0.09813 0.86307 0.29214 0.0
N270 N 0.15421 0.78928 0.36819 0.0
N271 N 0.12977 0.93034 0.25854 0.0
H272 H 0.0385 0.83419 0.26545 0.0
H273 H 0.05059 0.88992 0.24939 0.0
H274 H 0.15356 0.95706 0.25576 0.0
H275 H 0.10876 0.92677 0.23332 0.0
H276 H 0.18464 0.78506 0.38433 0.0
H277 H 0.13452 0.75932 0.36636 0.0
H278 H 0.20792 0.84945 0.4019 0.0
H279 H 0.22792 0.8993 0.37892 0.0
C280 C 0.11571 0.86962 0.69895 0.0
C281 C 0.11443 0.8334 0.67035 0.0
C282 C 0.18939 0.85777 0.64417 0.0
C283 C 0.18603 0.89862 0.66723 0.0
N284 N 0.1457 0.94467 0.71645 0.0
N285 N 0.14983 0.79264 0.61488 0.0
C286 C 0.14956 0.90461 0.69517 0.0
C287 C 0.15162 0.82677 0.64317 0.0
N288 N 0.08502 0.86993 0.7302 0.0
N289 N 0.22909 0.84852 0.62362 0.0
H290 H 0.1237 0.76822 0.61367 0.0
H291 H 0.1729 0.79005 0.59098 0.0
H292 H 0.25754 0.87043 0.62442 0.0
H293 H 0.23559 0.81734 0.60927 0.0
H294 H 0.08681 0.89295 0.75419 0.0
H295 H 0.06053 0.84409 0.7343 0.0
H296 H 0.1166 0.95353 0.73302 0.0
H297 H 0.17051 0.97049 0.71579 0.0
C298 C 0.18803 0.15759 0.65796 0.0
C299 C 0.17438 0.1158 0.67667 0.0
C300 C 0.10314 0.15208 0.70026 0.0
C301 C 0.11591 0.19346 0.67979 0.0
N302 N 0.17846 0.24032 0.65564 0.0
N303 N 0.12839 0.07893 0.72772 0.0
C304 C 0.1611 0.19769 0.66409 0.0
C305 C 0.13482 0.11484 0.7016 0.0
N306 N 0.22488 0.15878 0.63239 0.0
N307 N 0.0606 0.14693 0.71716 0.0
H308 H 0.15198 0.05208 0.73061 0.0
H309 H 0.1027 0.07837 0.74962 0.0
H310 H 0.03806 0.17377 0.72287 0.0
H311 H 0.04725 0.11498 0.72542 0.0
H312 H 0.2327 0.18725 0.61451 0.0
H313 H 0.24555 0.13037 0.62638 0.0
H314 H 0.21258 0.24589 0.64733 0.0
H315 H 0.16016 0.27043 0.66177 0.0
C316 C 0.85571 0.17732 0.65174 0.0
C317 C 0.89303 0.17044 0.67871 0.0
C318 C 0.8578 0.09896 0.70337 0.0
C319 C 0.82106 0.10529 0.67567 0.0
N320 N 0.77786 0.15629 0.63282 0.0
N321 N 0.92301 0.13299 0.73797 0.0
C322 C 0.81771 0.14655 0.65297 0.0
C323 C 0.89186 0.13386 0.70709 0.0
N324 N 0.85772 0.21132 0.62323 0.0
N325 N 0.86183 0.05864 0.72435 0.0
H326 H 0.94784 0.15855 0.74184 0.0
H327 H 0.92139 0.10975 0.76188 0.0
H328 H 0.83696 0.03288 0.72387 0.0
H329 H 0.8911 0.04955 0.74061 0.0
H330 H 0.83435 0.21419 0.59957 0.0
H331 H 0.88453 0.235 0.6214 0.0
H332 H 0.77146 0.18769 0.6187 0.0
H333 H 0.74927 0.13457 0.6338 0.0
C334 C 0.82904 0.84945 0.65156 0.0
C335 C 0.838 0.88733 0.67749 0.0
C336 C 0.90871 0.85018 0.70145 0.0
C337 C 0.90056 0.81317 0.67443 0.0
N338 N 0.847 0.77041 0.63391 0.0
N339 N 0.87759 0.91703 0.73571 0.0
C340 C 0.85858 0.81051 0.65289 0.0
C341 C 0.87509 0.88546 0.70524 0.0
N342 N 0.79424 0.85163 0.6239 0.0
N343 N 0.94949 0.85323 0.72176 0.0
H344 H 0.85288 0.94267 0.73975 0.0
H345 H 0.90125 0.91502 0.75923 0.0
H346 H 0.97415 0.8273 0.72162 0.0
H347 H 0.95996 0.88259 0.73722 0.0
H348 H 0.79004 0.82776 0.60079 0.0
H349 H 0.77104 0.8788 0.6222 0.0
H350 H 0.815 0.76457 0.62078 0.0
H351 H 0.86788 0.74119 0.635 0.0
C352 C 0.62438 0.65534 0.86536 0.0
C353 C 0.61124 0.67378 0.82741 0.0
C354 C 0.68514 0.64985 0.7984 0.0
C355 C 0.69569 0.6267 0.83491 0.0
N356 N 0.67403 0.60345 0.90227 0.0
N357 N 0.62687 0.68658 0.75687 0.0
C358 C 0.66518 0.62875 0.86832 0.0
C359 C 0.64124 0.67097 0.79371 0.0
N360 N 0.59843 0.66427 0.89887 0.0
N361 N 0.71749 0.65209 0.76854 0.0
H362 H 0.59512 0.7025 0.7524 0.0
H363 H 0.64486 0.68109 0.73017 0.0
H364 H 0.74982 0.63677 0.77124 0.0
H365 H 0.71397 0.67209 0.74265 0.0
H366 H 0.60906 0.65662 0.92811 0.0
H367 H 0.56781 0.6829 0.89801 0.0
H368 H 0.65022 0.59845 0.92532 0.0
H369 H 0.70416 0.5847 0.90643 0.0
C370 C 0.34092 0.68717 0.79069 0.0
C371 C 0.37954 0.68402 0.81672 0.0
C372 C 0.35891 0.60442 0.83428 0.0
C373 C 0.3214 0.60691 0.80691 0.0
N374 N 0.27836 0.64792 0.75621 0.0
N375 N 0.42779 0.6399 0.86155 0.0
C376 C 0.31294 0.64753 0.7842 0.0
C377 C 0.38919 0.64268 0.83806 0.0
N378 N 0.3306 0.7284 0.77288 0.0
N379 N 0.3653 0.56547 0.8569 0.0
H380 H 0.44912 0.66795 0.86719 0.0
H381 H 0.44029 0.60955 0.87409 0.0
H382 H 0.34639 0.53536 0.85272 0.0
H383 H 0.38799 0.5631 0.88106 0.0
H384 H 0.30046 0.7348 0.75693 0.0
H385 H 0.35121 0.75758 0.77598 0.0
H386 H 0.27316 0.67436 0.73553 0.0
H387 H 0.25591 0.62033 0.75204 0.0
C388 C 0.31019 0.33955 0.77872 0.0
C389 C 0.30258 0.36738 0.81316 0.0
C390 C 0.37348 0.33837 0.84403 0.0
C391 C 0.3805 0.3091 0.81016 0.0
N392 N 0.34913 0.27315 0.75062 0.0
N393 N 0.31983 0.38419 0.88273 0.0
C394 C 0.34693 0.30714 0.77902 0.0
C395 C 0.33206 0.36396 0.84708 0.0
N396 N 0.28347 0.34524 0.74517 0.0
N397 N 0.40713 0.34391 0.8724 0.0
H398 H 0.28964 0.40309 0.88629 0.0
H399 H 0.33715 0.37843 0.90978 0.0
H400 H 0.43794 0.3259 0.87231 0.0
H401 H 0.40611 0.36933 0.89451 0.0
H402 H 0.29065 0.32973 0.71758 0.0
H403 H 0.256 0.3683 0.74399 0.0
H404 H 0.32327 0.2672 0.72952 0.0
H405 H 0.3745 0.24776 0.75075 0.0
C406 C 0.63158 0.39907 0.78657 0.0
C407 C 0.65926 0.40507 0.82139 0.0
C408 C 0.62495 0.33618 0.8519 0.0
C409 C 0.59224 0.33514 0.82019 0.0
N410 N 0.56334 0.36474 0.75719 0.0
N411 N 0.68104 0.38116 0.88856 0.0
C412 C 0.59547 0.36616 0.78728 0.0
C413 C 0.65634 0.37357 0.85414 0.0
N414 N 0.64073 0.42408 0.75253 0.0
N415 N 0.62545 0.30196 0.88028 0.0
H416 H 0.70452 0.4079 0.89153 0.0
H417 H 0.67603 0.36306 0.91533 0.0
H418 H 0.60182 0.27501 0.88074 0.0
H419 H 0.65158 0.29804 0.90149 0.0
H420 H 0.62463 0.41844 0.72493 0.0
H421 H 0.6677 0.44771 0.75082 0.0
H422 H 0.56019 0.38999 0.73504 0.0
H423 H 0.53822 0.33915 0.75544 0.0
C424 C 0.69895 0.32641 0.20885 0.0
C425 C 0.68758 0.37033 0.19282 0.0
C426 C 0.60567 0.35144 0.19788 0.0
C427 C 0.61716 0.30554 0.20831 0.0
N428 N 0.675 0.24731 0.21942 0.0
N429 N 0.63006 0.42129 0.16466 0.0
C430 C 0.6639 0.29244 0.21294 0.0
C431 C 0.64089 0.38212 0.18553 0.0
N432 N 0.74293 0.31757 0.22118 0.0
N433 N 0.56112 0.36608 0.20075 0.0
H434 H 0.65468 0.44389 0.15326 0.0
H435 H 0.59684 0.4289 0.15493 0.0
H436 H 0.53464 0.34485 0.211 0.0
H437 H 0.55139 0.40037 0.19727 0.0
H438 H 0.75231 0.2879 0.23682 0.0
H439 H 0.76929 0.34182 0.21912 0.0
H440 H 0.70859 0.23491 0.21847 0.0
H441 H 0.6504 0.22146 0.22265 0.0
C442 C 0.60274 0.64152 0.16032 0.0
C443 C 0.61613 0.68644 0.17247 0.0
C444 C 0.68429 0.655 0.20648 0.0
C445 C 0.67244 0.6105 0.19213 0.0
N446 N 0.62214 0.56054 0.15435 0.0
N447 N 0.67071 0.73757 0.20363 0.0
C448 C 0.63208 0.60354 0.16878 0.0
C449 C 0.65722 0.69364 0.19466 0.0
N450 N 0.56157 0.63519 0.14109 0.0
N451 N 0.72124 0.66013 0.23162 0.0
H452 H 0.65093 0.76642 0.19652 0.0
H453 H 0.70253 0.74599 0.21591 0.0
H454 H 0.74269 0.63291 0.23978 0.0
H455 H 0.72929 0.69057 0.24652 0.0
H456 H 0.54679 0.60318 0.13575 0.0
H457 H 0.54051 0.6623 0.13202 0.0
H458 H 0.597 0.5538 0.13284 0.0
H459 H 0.6404 0.53115 0.16272 0.0
C460 C 0.3638 0.6677 0.14015 0.0
C461 C 0.3915 0.66885 0.17543 0.0
C462 C 0.34442 0.60755 0.20523 0.0
C463 C 0.31538 0.60835 0.17072 0.0
N464 N 0.2889 0.65029 0.1124 0.0
N465 N 0.39825 0.65049 0.24624 0.0
C466 C 0.32219 0.64234 0.14064 0.0
C467 C 0.37859 0.6422 0.20954 0.0
N468 N 0.37859 0.68752 0.10513 0.0
N469 N 0.34189 0.57244 0.23262 0.0
H470 H 0.42194 0.67693 0.2509 0.0
H471 H 0.3871 0.63468 0.27274 0.0
H472 H 0.31836 0.54557 0.23074 0.0
H473 H 0.36609 0.5679 0.25548 0.0
H474 H 0.36141 0.68369 0.07775 0.0
H475 H 0.41062 0.70303 0.10229 0.0
H476 H 0.29067 0.67728 0.0917 0.0
H477 H 0.2573 0.63327 0.1129 0.0
C478 C 0.36902 0.39788 0.21292 0.0
C479 C 0.33297 0.39718 0.18398 0.0
C480 C 0.36276 0.32517 0.15573 0.0
C481 C 0.40014 0.32753 0.18306 0.0
N482 N 0.43391 0.35806 0.24349 0.0
N483 N 0.28833 0.35448 0.13513 0.0
C484 C 0.40157 0.36136 0.21367 0.0
C485 C 0.32729 0.35878 0.15791 0.0
N486 N 0.37239 0.43401 0.23917 0.0
N487 N 0.36245 0.29202 0.12647 0.0
H488 H 0.2618 0.37845 0.13524 0.0
H489 H 0.2802 0.32518 0.11859 0.0
H490 H 0.38647 0.26537 0.12549 0.0
H491 H 0.33991 0.29191 0.10209 0.0
H492 H 0.40067 0.43998 0.25765 0.0
H493 H 0.3469 0.45911 0.2418 0.0
H494 H 0.43512 0.3794 0.26862 0.0
H495 H 0.45771 0.3312 0.24476 0.0
C496 C 0.06134 0.44528 0.28862 0.0
C497 C 0.04305 0.40469 0.2711 0.0
C498 C 0.06643 0.43078 0.20392 0.0
C499 C 0.08785 0.46963 0.22185 0.0
N500 N 0.09495 0.52109 0.27805 0.0
N501 N 0.01525 0.36552 0.21172 0.0
C502 C 0.08149 0.47932 0.26328 0.0
C503 C 0.04079 0.39999 0.22856 0.0
N504 N 0.06057 0.45035 0.32959 0.0
N505 N 0.07372 0.42119 0.16405 0.0
H506 H 0.99718 0.34133 0.22863 0.0
H507 H 0.00842 0.36332 0.18095 0.0
H508 H 0.09148 0.44312 0.14464 0.0
H509 H 0.06459 0.39019 0.15053 0.0
H510 H 0.07777 0.47639 0.34495 0.0
H511 H 0.04331 0.42736 0.34851 0.0
H512 H 0.08839 0.53217 0.30731 0.0
H513 H 0.10937 0.54643 0.2596 0.0
C514 C 0.58272 0.07875 0.29829 0.0
C515 C 0.59749 0.03703 0.28022 0.0
C516 C 0.56645 0.06155 0.21503 0.0
C517 C 0.55427 0.10444 0.23253 0.0
N518 N 0.53842 0.14897 0.29253 0.0
N519 N 0.59432 0.98335 0.22537 0.0
C520 C 0.55783 0.1112 0.27482 0.0
C521 C 0.5861 0.02663 0.23978 0.0
N522 N 0.59566 0.08905 0.33693 0.0
N523 N 0.56001 0.05484 0.17461 0.0
H524 H 0.60821 0.95736 0.24344 0.0
H525 H 0.58435 0.97196 0.19696 0.0
H526 H 0.54267 0.07851 0.15643 0.0
H527 H 0.5725 0.02661 0.15878 0.0
H528 H 0.59182 0.12146 0.34983 0.0
H529 H 0.61302 0.06605 0.35566 0.0
H530 H 0.53538 0.1529 0.32362 0.0
H531 H 0.52162 0.17479 0.27654 0.0
C532 C 0.92159 0.53663 0.24247 0.0
C533 C 0.88399 0.55461 0.22027 0.0
C534 C 0.89996 0.63213 0.24569 0.0
C535 C 0.93479 0.61345 0.27089 0.0
N536 N 0.97758 0.54844 0.29592 0.0
N537 N 0.83483 0.61818 0.20171 0.0
C538 C 0.94545 0.56581 0.26991 0.0
C539 C 0.8727 0.60211 0.2219 0.0
N540 N 0.93483 0.49197 0.23668 0.0
N541 N 0.893 0.6787 0.24454 0.0
H542 H 0.81491 0.59784 0.18259 0.0
H543 H 0.82125 0.65102 0.20543 0.0
H544 H 0.91025 0.70168 0.26326 0.0
H545 H 0.87231 0.69521 0.2234 0.0
H546 H 0.96465 0.47778 0.24879 0.0
H547 H 0.91749 0.46977 0.21719 0.0
H548 H 0.98331 0.51342 0.30017 0.0
H549 H 0.99701 0.56922 0.31509 0.0
C550 C 0.42288 0.958 0.2551 0.0
C551 C 0.38314 0.93946 0.27387 0.0
C552 C 0.39708 0.86475 0.24211 0.0
C553 C 0.43447 0.88427 0.2206 0.0
N554 N 0.48109 0.9498 0.20297 0.0
N555 N 0.32747 0.87809 0.28022 0.0
C556 C 0.44694 0.93106 0.22608 0.0
C557 C 0.36898 0.89355 0.26616 0.0
N558 N 0.43811 0.0008 0.26579 0.0
N559 N 0.3886 0.81848 0.23986 0.0
H560 H 0.30554 0.89795 0.29794 0.0
H561 H 0.3127 0.84702 0.27146 0.0
H562 H 0.40725 0.79619 0.22148 0.0
H563 H 0.36548 0.80138 0.25861 0.0
H564 H 0.46942 0.01456 0.25645 0.0
H565 H 0.42071 0.0215 0.28646 0.0
H566 H 0.48854 0.98483 0.2022 0.0
H567 H 0.50039 0.93047 0.18257 0.0
C568 C 0.06909 0.55201 0.78154 0.0
C569 C 0.11527 0.54667 0.76848 0.0
C570 C 0.09444 0.5782 0.70237 0.0
C571 C 0.05109 0.5913 0.71816 0.0
N572 N 0.9968 0.59253 0.77293 0.0
N573 N 0.17352 0.55928 0.71746 0.0
C574 C 0.03806 0.57827 0.75769 0.0
C575 C 0.12831 0.56007 0.72885 0.0
N576 N 0.05489 0.5314 0.81647 0.0
N577 N 0.10367 0.58417 0.66228 0.0
H578 H 0.20001 0.54758 0.73594 0.0
H579 H 0.18553 0.57407 0.69083 0.0
H580 H 0.08019 0.59865 0.64217 0.0
H581 H 0.13285 0.57089 0.64827 0.0
H582 H 0.02069 0.53049 0.82576 0.0
H583 H 0.07675 0.51124 0.83415 0.0
H584 H 0.98753 0.58877 0.8031 0.0
H585 H 0.97261 0.61025 0.75559 0.0
C586 C 0.43449 0.12672 0.72886 0.0
C587 C 0.44972 0.11022 0.76692 0.0
C588 C 0.43126 0.03105 0.74703 0.0
C589 C 0.40932 0.04857 0.71219 0.0
N590 N 0.38883 0.11235 0.66906 0.0
N591 N 0.46544 0.04737 0.81235 0.0
C592 C 0.41154 0.09608 0.70234 0.0
C593 C 0.44944 0.0624 0.77586 0.0
N594 N 0.44097 0.17183 0.71839 0.0
N595 N 0.4345 0.98448 0.75224 0.0
H596 H 0.48148 0.0692 0.83299 0.0
H597 H 0.46167 0.01383 0.82287 0.0
H598 H 0.42161 0.96122 0.73109 0.0
H599 H 0.45276 0.96883 0.77548 0.0
H600 H 0.43561 0.18459 0.68942 0.0
H601 H 0.45491 0.19633 0.73772 0.0
H602 H 0.38335 0.14712 0.66324 0.0
H603 H 0.37296 0.09099 0.648 0.0
C604 C 0.93717 0.44064 0.72304 0.0
C605 C 0.93827 0.39316 0.73321 0.0
C606 C 0.89728 0.40845 0.79628 0.0
C607 C 0.89573 0.45591 0.78599 0.0
N608 N 0.91998 0.51901 0.74417 0.0
N609 N 0.92793 0.33263 0.78249 0.0
C610 C 0.91772 0.47261 0.75077 0.0
C611 C 0.9215 0.37743 0.771 0.0
N612 N 0.95392 0.45477 0.68652 0.0
N613 N 0.87276 0.39245 0.82868 0.0
H614 H 0.94251 0.30769 0.76394 0.0
H615 H 0.92181 0.32065 0.81161 0.0
H616 H 0.85493 0.41377 0.84851 0.0
H617 H 0.86717 0.35768 0.83453 0.0
H618 H 0.95014 0.48792 0.6751 0.0
H619 H 0.9706 0.43251 0.66664 0.0
H620 H 0.93834 0.53419 0.72074 0.0
H621 H 0.90589 0.54288 0.76416 0.0
C622 C 0.59005 0.90645 0.69922 0.0
C623 C 0.59726 0.9517 0.71404 0.0
C624 C 0.55462 0.93329 0.77562 0.0
C625 C 0.54928 0.88738 0.7617 0.0
N626 N 0.55151 0.83299 0.70663 0.0
N627 N 0.57762 0.01199 0.76038 0.0
C628 C 0.5631 0.87504 0.72209 0.0
C629 C 0.57646 0.96639 0.75037 0.0
N630 N 0.61165 0.89251 0.66464 0.0
N631 N 0.53995 0.94465 0.81349 0.0
H632 H 0.59338 0.03662 0.74206 0.0
H633 H 0.56004 0.02602 0.78477 0.0
H634 H 0.52109 0.92202 0.83153 0.0
H635 H 0.54746 0.97575 0.82756 0.0
H636 H 0.61321 0.85842 0.65514 0.0
H637 H 0.63066 0.91464 0.64631 0.0
H638 H 0.55596 0.82414 0.67647 0.0
H639 H 0.53399 0.80785 0.7229 0.0
C640 C 0.98585 0.25811 0.47319 0.0
C641 C 0.01253 0.29544 0.45824 0.0
C642 C 0.03239 0.31611 0.52783 0.0
C643 C 0.00144 0.28197 0.54241 0.0
N644 N 0.93756 0.23155 0.52748 0.0
N645 N 0.05125 0.36721 0.47248 0.0
C646 C 0.97455 0.25658 0.51462 0.0
C647 C 0.03276 0.32676 0.4859 0.0
N648 N 0.97385 0.22217 0.44889 0.0
N649 N 0.06327 0.33659 0.55314 0.0
H650 H 0.05041 0.37719 0.44226 0.0
H651 H 0.06268 0.39295 0.49193 0.0
H652 H 0.06606 0.32853 0.58365 0.0
H653 H 0.08942 0.35817 0.54286 0.0
H654 H 0.9582 0.19242 0.45996 0.0
H655 H 0.98447 0.2192 0.41907 0.0
H656 H 0.9148 0.21561 0.5076 0.0
H657 H 0.92652 0.23145 0.5574 0.0
C658 C 0.72083 0.95001 0.51611 0.0
C659 C 0.71953 0.98873 0.542 0.0
C660 C 0.70541 0.03856 0.48365 0.0
C661 C 0.71665 0.00151 0.45772 0.0
N662 N 0.73797 0.92163 0.44937 0.0
N663 N 0.71246 0.0712 0.55039 0.0
C664 C 0.72431 0.95685 0.47383 0.0
C665 C 0.71142 0.03338 0.52594 0.0
N666 N 0.71839 0.90666 0.53205 0.0
N667 N 0.68873 0.07863 0.4677 0.0
H668 H 0.71637 0.0694 0.58154 0.0
H669 H 0.71265 0.10481 0.53942 0.0
H670 H 0.68329 0.08299 0.4368 0.0
H671 H 0.67587 0.10543 0.48522 0.0
H672 H 0.71501 0.87713 0.51451 0.0
H673 H 0.71472 0.9007 0.56294 0.0
H674 H 0.74962 0.89007 0.46028 0.0
H675 H 0.74101 0.92491 0.41827 0.0
C676 C 0.05112 0.71054 0.51208 0.0
C677 C 0.01269 0.71034 0.53831 0.0
C678 C 0.9616 0.7001 0.48033 0.0
C679 C 0.99876 0.71056 0.4542 0.0
N680 N 0.07981 0.7267 0.44516 0.0
N681 N 0.93038 0.70538 0.5478 0.0
C682 C 0.04404 0.71507 0.46988 0.0
C683 C 0.96764 0.70426 0.5227 0.0
N684 N 0.09441 0.70616 0.5277 0.0
N685 N 0.92065 0.68576 0.46448 0.0
H686 H 0.93301 0.7072 0.57907 0.0
H687 H 0.89661 0.70728 0.53747 0.0
H688 H 0.91568 0.6815 0.43352 0.0
H689 H 0.89348 0.67357 0.48197 0.0
H690 H 0.12368 0.70178 0.51 0.0
H691 H 0.10041 0.70204 0.55855 0.0
H692 H 0.11205 0.73651 0.45582 0.0
H693 H 0.07683 0.72942 0.41401 0.0
C694 C 0.29038 0.97336 0.51947 0.0
C695 C 0.29041 0.01792 0.5371 0.0
C696 C 0.28933 0.05372 0.47016 0.0
C697 C 0.2868 0.00925 0.45269 0.0
N698 N 0.29974 0.92779 0.45871 0.0
N699 N 0.305 0.09904 0.53005 0.0
C700 C 0.29232 0.96938 0.47682 0.0
C701 C 0.29496 0.05766 0.51257 0.0
N702 N 0.28554 0.93501 0.54301 0.0
N703 N 0.28356 0.09205 0.44675 0.0
H704 H 0.3101 0.10254 0.56107 0.0
H705 H 0.31281 0.12866 0.51369 0.0
H706 H 0.28091 0.09085 0.41545 0.0
H707 H 0.27897 0.12495 0.45849 0.0
H708 H 0.27873 0.9024 0.53145 0.0
H709 H 0.286 0.93576 0.57436 0.0
H710 H 0.3083 0.89797 0.47448 0.0
H711 H 0.30188 0.92417 0.42744 0.0
C712 C 0.54391 0.81253 0.97517 0.0
C713 C 0.51277 0.78796 0.95012 0.0
C714 C 0.46798 0.7674 0.00985 0.0
C715 C 0.50431 0.78254 0.03486 0.0
N716 N 0.57885 0.81853 0.04127 0.0
N717 N 0.44846 0.73484 0.94548 0.0
C718 C 0.54268 0.80545 0.01764 0.0
C719 C 0.47525 0.76386 0.9678 0.0
N720 N 0.57389 0.84338 0.9585 0.0
N721 N 0.42618 0.75713 0.02629 0.0
H722 H 0.45406 0.72808 0.91511 0.0
H723 H 0.42373 0.71337 0.95834 0.0
H724 H 0.41918 0.76264 0.05675 0.0
H725 H 0.39734 0.74919 0.00895 0.0
H726 H 0.59456 0.86517 0.97562 0.0
H727 H 0.57439 0.85074 0.92768 0.0
H728 H 0.60993 0.83032 0.02951 0.0
H729 H 0.57903 0.81477 0.0725 0.0
C730 C 0.21349 0.53041 0.98107 0.0
C731 C 0.21747 0.48937 0.95838 0.0
C732 C 0.20817 0.44356 0.01985 0.0
C733 C 0.2131 0.48426 0.04301 0.0
N734 N 0.21907 0.56715 0.04636 0.0
N735 N 0.21651 0.40659 0.95465 0.0
C736 C 0.21432 0.52805 0.02388 0.0
C737 C 0.21331 0.44577 0.97724 0.0
N738 N 0.20847 0.57154 0.96144 0.0
N739 N 0.19808 0.40299 0.03885 0.0
H740 H 0.21787 0.40708 0.92323 0.0
H741 H 0.21971 0.37376 0.96692 0.0
H742 H 0.19337 0.4008 0.07001 0.0
H743 H 0.19021 0.37262 0.02374 0.0
H744 H 0.201 0.60239 0.97595 0.0
H745 H 0.20751 0.57405 0.93003 0.0
H746 H 0.22681 0.59925 0.03412 0.0
H747 H 0.21723 0.56744 0.07768 0.0
C748 C 0.47979 0.23809 0.0289 0.0
C749 C 0.51628 0.21241 0.04648 0.0
C750 C 0.54622 0.19454 0.97916 0.0
C751 C 0.50851 0.21841 0.96185 0.0
N752 N 0.4327 0.25078 0.96976 0.0
N753 N 0.5772 0.15683 0.03853 0.0
C754 C 0.47307 0.23617 0.98663 0.0
C755 C 0.54731 0.18762 0.02162 0.0
N756 N 0.45351 0.26694 0.05189 0.0
N757 N 0.58213 0.18067 0.95552 0.0
H758 H 0.57817 0.15024 0.06947 0.0
H759 H 0.59763 0.13461 0.02162 0.0
H760 H 0.58277 0.18524 0.92433 0.0
H761 H 0.61285 0.16789 0.9672 0.0
H762 H 0.42986 0.29 0.03965 0.0
H763 H 0.45837 0.27151 0.0827 0.0
H764 H 0.404 0.25993 0.98678 0.0
H765 H 0.42624 0.24898 0.93884 0.0
C766 C 0.77791 0.53408 0.98664 0.0
C767 C 0.77105 0.49408 0.963 0.0
C768 C 0.7611 0.44725 0.02381 0.0
C769 C 0.76613 0.4875 0.04745 0.0
N770 N 0.78981 0.56669 0.05327 0.0
N771 N 0.77021 0.41155 0.95813 0.0
C772 C 0.77823 0.53012 0.02941 0.0
C773 C 0.7672 0.45022 0.98138 0.0
N774 N 0.78194 0.57597 0.96818 0.0
N775 N 0.74885 0.40669 0.04179 0.0
H776 H 0.77642 0.4131 0.92714 0.0
H777 H 0.77123 0.37829 0.9698 0.0
H778 H 0.74585 0.40308 0.07299 0.0
H779 H 0.73934 0.37736 0.02583 0.0
H780 H 0.78113 0.60723 0.98344 0.0
H781 H 0.78433 0.57951 0.93697 0.0
H782 H 0.80297 0.59753 0.04219 0.0
H783 H 0.7897 0.56498 0.08471 0.0
loop_
_geom_bond_atom_site_label_1
_geom_bond_atom_site_label_2
_geom_bond_distance
_geom_bond_site_symmetry_2
_ccdc_geom_bond_type
C0 O1 1.160 . S
C0 O7 1.185 . S
O1 C0 1.160 . S
O2 Zn3 1.899 1_655 S
O2 C10 1.284 1_655 S
Zn3 O2 1.899 1_455 S
Zn3 O4 2.032 . S
Zn3 O7 2.086 . S
Zn3 O12 1.977 1_455 S
O4 Zn3 2.032 . S
O4 C8 1.278 . S
C5 O6 1.203 . S
C5 O12 1.267 . S
O6 C5 1.203 . S
O7 C0 1.185 . S
O7 Zn3 2.086 . S
C8 O4 1.278 . S
C8 O9 1.211 . S
O9 C8 1.211 . S
C10 O2 1.284 1_455 S
C10 O11 1.273 . S
O11 C10 1.273 . S
O12 Zn3 1.977 1_655 S
O12 C5 1.267 . S
C13 O14 1.160 . S
C13 O20 1.185 . S
O14 C13 1.160 . S
O15 Zn16 1.899 1_565 S
O15 C23 1.284 1_565 S
Zn16 O15 1.899 1_545 S
Zn16 O17 2.032 . S
Zn16 O20 2.086 . S
Zn16 O25 1.977 1_545 S
O17 Zn16 2.032 . S
O17 C21 1.278 . S
C18 O19 1.203 . S
C18 O25 1.267 . S
O19 C18 1.203 . S
O20 C13 1.185 . S
O20 Zn16 2.086 . S
C21 O17 1.278 . S
C21 O22 1.211 . S
O22 C21 1.211 . S
C23 O15 1.284 1_545 S
C23 O24 1.273 . S
O24 C23 1.273 . S
O25 Zn16 1.977 1_565 S
O25 C18 1.267 . S
C26 O27 1.160 . S
C26 O33 1.185 . S
O27 C26 1.160 . S
O28 Zn29 1.899 1_455 S
O28 C36 1.284 1_455 S
Zn29 O28 1.899 1_655 S
Zn29 O30 2.032 . S
Zn29 O33 2.086 . S
Zn29 O38 1.977 1_655 S
O30 Zn29 2.032 . S
O30 C34 1.278 . S
C31 O32 1.203 . S
C31 O38 1.267 . S
O32 C31 1.203 . S
O33 C26 1.185 . S
O33 Zn29 2.086 . S
C34 O30 1.278 . S
C34 O35 1.211 . S
O35 C34 1.211 . S
C36 O28 1.284 1_655 S
C36 O37 1.273 . S
O37 C36 1.273 . S
O38 Zn29 1.977 1_455 S
O38 C31 1.267 . S
C39 O40 1.160 . S
C39 O46 1.185 . S
O40 C39 1.160 . S
O41 Zn42 1.899 1_545 S
O41 C49 1.284 1_545 S
Zn42 O41 1.899 1_565 S
Zn42 O43 2.032 . S
Zn42 O46 2.086 . S
Zn42 O51 1.977 1_565 S
O43 Zn42 2.032 . S
O43 C47 1.278 . S
C44 O45 1.203 . S
C44 O51 1.267 . S
O45 C44 1.203 . S
O46 C39 1.185 . S
O46 Zn42 2.086 . S
C47 O43 1.278 . S
C47 O48 1.211 . S
O48 C47 1.211 . S
C49 O41 1.284 1_565 S
C49 O50 1.273 . S
O50 C49 1.273 . S
O51 Zn42 1.977 1_545 S
O51 C44 1.267 . S
C52 O53 1.160 . S
C52 O59 1.185 . S
O53 C52 1.160 . S
O54 Zn55 1.899 1_655 S
O54 C62 1.284 1_655 S
Zn55 O54 1.899 1_455 S
Zn55 O56 2.032 . S
Zn55 O59 2.086 . S
Zn55 O64 1.977 1_455 S
O56 Zn55 2.032 . S
O56 C60 1.278 . S
C57 O58 1.203 . S
C57 O64 1.267 . S
O58 C57 1.203 . S
O59 C52 1.185 . S
O59 Zn55 2.086 . S
C60 O56 1.278 . S
C60 O61 1.211 . S
O61 C60 1.211 . S
C62 O54 1.284 1_455 S
C62 O63 1.273 . S
O63 C62 1.273 . S
O64 Zn55 1.977 1_655 S
O64 C57 1.267 . S
C65 O66 1.160 . S
C65 O72 1.185 . S
O66 C65 1.160 . S
O67 Zn68 1.899 1_565 S
O67 C75 1.284 1_565 S
Zn68 O67 1.899 1_545 S
Zn68 O69 2.032 . S
Zn68 O72 2.086 . S
Zn68 O77 1.977 1_545 S
O69 Zn68 2.032 . S
O69 C73 1.278 . S
C70 O71 1.203 . S
C70 O77 1.267 . S
O71 C70 1.203 . S
O72 C65 1.185 . S
O72 Zn68 2.086 . S
C73 O69 1.278 . S
C73 O74 1.211 . S
O74 C73 1.211 . S
C75 O67 1.284 1_545 S
C75 O76 1.273 . S
O76 C75 1.273 . S
O77 Zn68 1.977 1_565 S
O77 C70 1.267 . S
C78 O79 1.160 . S
C78 O85 1.185 . S
O79 C78 1.160 . S
O80 Zn81 1.899 1_455 S
O80 C88 1.284 1_455 S
Zn81 O80 1.899 1_655 S
Zn81 O82 2.032 . S
Zn81 O85 2.086 . S
Zn81 O90 1.977 1_655 S
O82 Zn81 2.032 . S
O82 C86 1.278 . S
C83 O84 1.203 . S
C83 O90 1.267 . S
O84 C83 1.203 . S
O85 C78 1.185 . S
O85 Zn81 2.086 . S
C86 O82 1.278 . S
C86 O87 1.211 . S
O87 C86 1.211 . S
C88 O80 1.284 1_655 S
C88 O89 1.273 . S
O89 C88 1.273 . S
O90 Zn81 1.977 1_455 S
O90 C83 1.267 . S
C91 O92 1.160 . S
C91 O98 1.185 . S
O92 C91 1.160 . S
O93 Zn94 1.899 1_545 S
O93 C101 1.284 1_545 S
Zn94 O93 1.899 1_565 S
Zn94 O95 2.032 . S
Zn94 O98 2.086 . S
Zn94 O103 1.977 1_565 S
O95 Zn94 2.032 . S
O95 C99 1.278 . S
C96 O97 1.203 . S
C96 O103 1.267 . S
O97 C96 1.203 . S
O98 C91 1.185 . S
O98 Zn94 2.086 . S
C99 O95 1.278 . S
C99 O100 1.211 . S
O100 C99 1.211 . S
C101 O93 1.284 1_565 S
C101 O102 1.273 . S
O102 C101 1.273 . S
O103 Zn94 1.977 1_545 S
O103 C96 1.267 . S
C104 O105 1.160 . S
C104 O111 1.185 . S
O105 C104 1.160 . S
O106 Zn107 1.899 . S
O106 C114 1.284 . S
Zn107 O106 1.899 . S
Zn107 O108 2.032 . S
Zn107 O111 2.086 . S
Zn107 O116 1.977 . S
O108 Zn107 2.032 . S
O108 C112 1.278 . S
C109 O110 1.203 . S
C109 O116 1.267 . S
O110 C109 1.203 . S
O111 C104 1.185 . S
O111 Zn107 2.086 . S
C112 O108 1.278 . S
C112 O113 1.211 . S
O113 C112 1.211 . S
C114 O106 1.284 . S
C114 O115 1.273 . S
O115 C114 1.273 . S
O116 Zn107 1.977 . S
O116 C109 1.267 . S
C117 O118 1.160 . S
C117 O124 1.185 . S
O118 C117 1.160 . S
O119 Zn120 1.899 . S
O119 C127 1.284 . S
Zn120 O119 1.899 . S
Zn120 O121 2.032 . S
Zn120 O124 2.086 . S
Zn120 O129 1.977 . S
O121 Zn120 2.032 . S
O121 C125 1.278 . S
C122 O123 1.203 . S
C122 O129 1.267 . S
O123 C122 1.203 . S
O124 C117 1.185 . S
O124 Zn120 2.086 . S
C125 O121 1.278 . S
C125 O126 1.211 . S
O126 C125 1.211 . S
C127 O119 1.284 . S
C127 O128 1.273 . S
O128 C127 1.273 . S
O129 Zn120 1.977 . S
O129 C122 1.267 . S
C130 O131 1.160 . S
C130 O137 1.185 . S
O131 C130 1.160 . S
O132 Zn133 1.899 . S
O132 C140 1.284 . S
Zn133 O132 1.899 . S
Zn133 O134 2.032 . S
Zn133 O137 2.086 . S
Zn133 O142 1.977 . S
O134 Zn133 2.032 . S
O134 C138 1.278 . S
C135 O136 1.203 . S
C135 O142 1.267 . S
O136 C135 1.203 . S
O137 C130 1.185 . S
O137 Zn133 2.086 . S
C138 O134 1.278 . S
C138 O139 1.211 . S
O139 C138 1.211 . S
C140 O132 1.284 . S
C140 O141 1.273 . S
O141 C140 1.273 . S
O142 Zn133 1.977 . S
O142 C135 1.267 . S
C143 O144 1.160 . S
C143 O150 1.185 . S
O144 C143 1.160 . S
O145 Zn146 1.899 . S
O145 C153 1.284 . S
Zn146 O145 1.899 . S
Zn146 O147 2.032 . S
Zn146 O150 2.086 . S
Zn146 O155 1.977 . S
O147 Zn146 2.032 . S
O147 C151 1.278 . S
C148 O149 1.203 . S
C148 O155 1.267 . S
O149 C148 1.203 . S
O150 C143 1.185 . S
O150 Zn146 2.086 . S
C151 O147 1.278 . S
C151 O152 1.211 . S
O152 C151 1.211 . S
C153 O145 1.284 . S
C153 O154 1.273 . S
O154 C153 1.273 . S
O155 Zn146 1.977 . S
O155 C148 1.267 . S
C156 O157 1.160 . S
C156 O163 1.185 . S
O157 C156 1.160 . S
O158 Zn159 1.899 . S
O158 C166 1.284 . S
Zn159 O158 1.899 . S
Zn159 O160 2.032 . S
Zn159 O163 2.086 . S
Zn159 O168 1.977 . S
O160 Zn159 2.032 . S
O160 C164 1.278 . S
C161 O162 1.203 . S
C161 O168 1.267 . S
O162 C161 1.203 . S
O163 C156 1.185 . S
O163 Zn159 2.086 . S
C164 O160 1.278 . S
C164 O165 1.211 . S
O165 C164 1.211 . S
C166 O158 1.284 . S
C166 O167 1.273 . S
O167 C166 1.273 . S
O168 Zn159 1.977 . S
O168 C161 1.267 . S
C169 O170 1.160 . S
C169 O176 1.185 . S
O170 C169 1.160 . S
O171 Zn172 1.899 . S
O171 C179 1.284 . S
Zn172 O171 1.899 . S
Zn172 O173 2.032 . S
Zn172 O176 2.086 . S
Zn172 O181 1.977 . S
O173 Zn172 2.032 . S
O173 C177 1.278 . S
C174 O175 1.203 . S
C174 O181 1.267 . S
O175 C174 1.203 . S
O176 C169 1.185 . S
O176 Zn172 2.086 . S
C177 O173 1.278 . S
C177 O178 1.211 . S
O178 C177 1.211 . S
C179 O171 1.284 . S
C179 O180 1.273 . S
O180 C179 1.273 . S
O181 Zn172 1.977 . S
O181 C174 1.267 . S
C182 O183 1.160 . S
C182 O189 1.185 . S
O183 C182 1.160 . S
O184 Zn185 1.899 . S
O184 C192 1.284 . S
Zn185 O184 1.899 . S
Zn185 O186 2.032 . S
Zn185 O189 2.086 . S
Zn185 O194 1.977 . S
O186 Zn185 2.032 . S
O186 C190 1.278 . S
C187 O188 1.203 . S
C187 O194 1.267 . S
O188 C187 1.203 . S
O189 C182 1.185 . S
O189 Zn185 2.086 . S
C190 O186 1.278 . S
C190 O191 1.211 . S
O191 C190 1.211 . S
C192 O184 1.284 . S
C192 O193 1.273 . S
O193 C192 1.273 . S
O194 Zn185 1.977 . S
O194 C187 1.267 . S
C195 O196 1.160 . S
C195 O202 1.185 . S
O196 C195 1.160 . S
O197 Zn198 1.899 . S
O197 C205 1.284 . S
Zn198 O197 1.899 . S
Zn198 O199 2.032 . S
Zn198 O202 2.086 . S
Zn198 O207 1.977 . S
O199 Zn198 2.032 . S
O199 C203 1.278 . S
C200 O201 1.203 . S
C200 O207 1.267 . S
O201 C200 1.203 . S
O202 C195 1.185 . S
O202 Zn198 2.086 . S
C203 O199 1.278 . S
C203 O204 1.211 . S
O204 C203 1.211 . S
C205 O197 1.284 . S
C205 O206 1.273 . S
O206 C205 1.273 . S
O207 Zn198 1.977 . S
O207 C200 1.267 . S
C208 C209 1.363 . S
C208 C214 1.379 . S
C208 N216 1.356 . S
C209 C208 1.363 . S
C209 C215 1.363 . S
C210 C211 1.363 . S
C210 C215 1.379 . S
C210 N217 1.356 . S
C211 C210 1.363 . S
C211 C214 1.363 . S
N212 C214 1.356 . S
N212 H224 0.984 . S
N212 H225 0.985 . S
N213 C215 1.356 . S
N213 H218 0.984 . S
N213 H219 0.985 . S
C214 C208 1.379 . S
C214 C211 1.363 . S
C214 N212 1.356 . S
C215 C209 1.363 . S
C215 C210 1.379 . S
C215 N213 1.356 . S
N216 C208 1.356 . S
N216 H222 0.984 . S
N216 H223 0.984 . S
N217 C210 1.356 . S
N217 H220 0.984 . S
N217 H221 0.985 . S
H218 N213 0.984 . S
H219 N213 0.985 . S
H220 N217 0.984 . S
H221 N217 0.985 . S
H222 N216 0.984 . S
H223 N216 0.984 . S
H224 N212 0.984 . S
H225 N212 0.985 . S
C226 C227 1.363 . S
C226 C232 1.379 . S
C226 N234 1.356 . S
C227 C226 1.363 . S
C227 C233 1.363 . S
C228 C229 1.363 . S
C228 C233 1.379 . S
C228 N235 1.356 . S
C229 C228 1.363 . S
C229 C232 1.363 . S
N230 C232 1.356 . S
N230 H242 0.984 . S
N230 H243 0.985 . S
N231 C233 1.356 . S
N231 H236 0.984 . S
N231 H237 0.985 . S
C232 C226 1.379 . S
C232 C229 1.363 . S
C232 N230 1.356 . S
C233 C227 1.363 . S
C233 C228 1.379 . S
C233 N231 1.356 . S
N234 C226 1.356 . S
N234 H240 0.984 . S
N234 H241 0.984 . S
N235 C228 1.356 . S
N235 H238 0.984 . S
N235 H239 0.985 . S
H236 N231 0.984 . S
H237 N231 0.985 . S
H238 N235 0.984 . S
H239 N235 0.985 . S
H240 N234 0.984 . S
H241 N234 0.984 . S
H242 N230 0.984 . S
H243 N230 0.985 . S
C244 C245 1.363 . S
C244 C250 1.379 . S
C244 N252 1.356 . S
C245 C244 1.363 . S
C245 C251 1.363 . S
C246 C247 1.363 . S
C246 C251 1.379 . S
C246 N253 1.356 . S
C247 C246 1.363 . S
C247 C250 1.363 . S
N248 C250 1.356 . S
N248 H260 0.984 . S
N248 H261 0.985 . S
N249 C251 1.356 . S
N249 H254 0.984 . S
N249 H255 0.985 . S
C250 C244 1.379 . S
C250 C247 1.363 . S
C250 N248 1.356 . S
C251 C245 1.363 . S
C251 C246 1.379 . S
C251 N249 1.356 . S
N252 C244 1.356 . S
N252 H258 0.984 . S
N252 H259 0.984 . S
N253 C246 1.356 . S
N253 H256 0.984 . S
N253 H257 0.985 . S
H254 N249 0.984 . S
H255 N249 0.985 . S
H256 N253 0.984 . S
H257 N253 0.985 . S
H258 N252 0.984 . S
H259 N252 0.984 . S
H260 N248 0.984 . S
H261 N248 0.985 . S
C262 C263 1.363 . S
C262 C268 1.379 . S
C262 N270 1.356 . S
C263 C262 1.363 . S
C263 C269 1.363 . S
C264 C265 1.363 . S
C264 C269 1.379 . S
C264 N271 1.356 . S
C265 C264 1.363 . S
C265 C268 1.363 . S
N266 C268 1.356 . S
N266 H278 0.984 . S
N266 H279 0.985 . S
N267 C269 1.356 . S
N267 H272 0.984 . S
N267 H273 0.985 . S
C268 C262 1.379 . S
C268 C265 1.363 . S
C268 N266 1.356 . S
C269 C263 1.363 . S
C269 C264 1.379 . S
C269 N267 1.356 . S
N270 C262 1.356 . S
N270 H276 0.984 . S
N270 H277 0.984 . S
N271 C264 1.356 . S
N271 H274 0.984 . S
N271 H275 0.985 . S
H272 N267 0.984 . S
H273 N267 0.985 . S
H274 N271 0.984 . S
H275 N271 0.985 . S
H276 N270 0.984 . S
H277 N270 0.984 . S
H278 N266 0.984 . S
H279 N266 0.985 . S
C280 C281 1.363 . S
C280 C286 1.379 . S
C280 N288 1.356 . S
C281 C280 1.363 . S
C281 C287 1.363 . S
C282 C283 1.363 . S
C282 C287 1.379 . S
C282 N289 1.356 . S
C283 C282 1.363 . S
C283 C286 1.363 . S
N284 C286 1.356 . S
N284 H296 0.984 . S
N284 H297 0.985 . S
N285 C287 1.356 . S
N285 H290 0.984 . S
N285 H291 0.985 . S
C286 C280 1.379 . S
C286 C283 1.363 . S
C286 N284 1.356 . S
C287 C281 1.363 . S
C287 C282 1.379 . S
C287 N285 1.356 . S
N288 C280 1.356 . S
N288 H294 0.984 . S
N288 H295 0.984 . S
N289 C282 1.356 . S
N289 H292 0.984 . S
N289 H293 0.985 . S
H290 N285 0.984 . S
H291 N285 0.985 . S
H292 N289 0.984 . S
H293 N289 0.985 . S
H294 N288 0.984 . S
H295 N288 0.984 . S
H296 N284 0.984 . S
H297 N284 0.985 . S
C298 C299 1.363 . S
C298 C304 1.379 . S
C298 N306 1.356 . S
C299 C298 1.363 . S
C299 C305 1.363 . S
C300 C301 1.363 . S
C300 C305 1.379 . S
C300 N307 1.356 . S
C301 C300 1.363 . S
C301 C304 1.363 . S
N302 C304 1.356 . S
N302 H314 0.984 . S
N302 H315 0.985 . S
N303 C305 1.356 . S
N303 H308 0.984 . S
N303 H309 0.985 . S
C304 C298 1.379 . S
C304 C301 1.363 . S
C304 N302 1.356 . S
C305 C299 1.363 . S
C305 C300 1.379 . S
C305 N303 1.356 . S
N306 C298 1.356 . S
N306 H312 0.984 . S
N306 H313 0.984 . S
N307 C300 1.356 . S
N307 H310 0.984 . S
N307 H311 0.985 . S
H308 N303 0.984 . S
H309 N303 0.985 . S
H310 N307 0.984 . S
H311 N307 0.985 . S
H312 N306 0.984 . S
H313 N306 0.984 . S
H314 N302 0.984 . S
H315 N302 0.985 . S
C316 C317 1.363 . S
C316 C322 1.379 . S
C316 N324 1.356 . S
C317 C316 1.363 . S
C317 C323 1.363 . S
C318 C319 1.363 . S
C318 C323 1.379 . S
C318 N325 1.356 . S
C319 C318 1.363 . S
C319 C322 1.363 . S
N320 C322 1.356 . S
N320 H332 0.984 . S
N320 H333 0.985 . S
N321 C323 1.356 . S
N321 H326 0.984 . S
N321 H327 0.985 . S
C322 C316 1.379 . S
C322 C319 1.363 . S
C322 N320 1.356 . S
C323 C317 1.363 . S
C323 C318 1.379 . S
C323 N321 1.356 . S
N324 C316 1.356 . S
N324 H330 0.984 . S
N324 H331 0.984 . S
N325 C318 1.356 . S
N325 H328 0.984 . S
N325 H329 0.985 . S
H326 N321 0.984 . S
H327 N321 0.985 . S
H328 N325 0.984 . S
H329 N325 0.985 . S
H330 N324 0.984 . S
H331 N324 0.984 . S
H332 N320 0.984 . S
H333 N320 0.985 . S
C334 C335 1.363 . S
C334 C340 1.379 . S
C334 N342 1.356 . S
C335 C334 1.363 . S
C335 C341 1.363 . S
C336 C337 1.363 . S
C336 C341 1.379 . S
C336 N343 1.356 . S
C337 C336 1.363 . S
C337 C340 1.363 . S
N338 C340 1.356 . S
N338 H350 0.984 . S
N338 H351 0.985 . S
N339 C341 1.356 . S
N339 H344 0.984 . S
N339 H345 0.985 . S
C340 C334 1.379 . S
C340 C337 1.363 . S
C340 N338 1.356 . S
C341 C335 1.363 . S
C341 C336 1.379 . S
C341 N339 1.356 . S
N342 C334 1.356 . S
N342 H348 0.984 . S
N342 H349 0.984 . S
N343 C336 1.356 . S
N343 H346 0.984 . S
N343 H347 0.985 . S
H344 N339 0.984 . S
H345 N339 0.985 . S
H346 N343 0.984 . S
H347 N343 0.985 . S
H348 N342 0.984 . S
H349 N342 0.984 . S
H350 N338 0.984 . S
H351 N338 0.985 . S
C352 C353 1.363 . S
C352 C358 1.379 . S
C352 N360 1.356 . S
C353 C352 1.363 . S
C353 C359 1.363 . S
C354 C355 1.363 . S
C354 C359 1.379 . S
C354 N361 1.356 . S
C355 C354 1.363 . S
C355 C358 1.363 . S
N356 C358 1.356 . S
N356 H368 0.984 . S
N356 H369 0.985 . S
N357 C359 1.356 . S
N357 H362 0.984 . S
N357 H363 0.985 . S
C358 C352 1.379 . S
C358 C355 1.363 . S
C358 N356 1.356 . S
C359 C353 1.363 . S
C359 C354 1.379 . S
C359 N357 1.356 . S
N360 C352 1.356 . S
N360 H366 0.984 . S
N360 H367 0.984 . S
N361 C354 1.356 . S
N361 H364 0.984 . S
N361 H365 0.985 . S
H362 N357 0.984 . S
H363 N357 0.985 . S
H364 N361 0.984 . S
H365 N361 0.985 . S
H366 N360 0.984 . S
H367 N360 0.984 . S
H368 N356 0.984 . S
H369 N356 0.985 . S
C370 C371 1.363 . S
C370 C376 1.379 . S
C370 N378 1.356 . S
C371 C370 1.363 . S
C371 C377 1.363 . S
C372 C373 1.363 . S
C372 C377 1.379 . S
C372 N379 1.356 . S
C373 C372 1.363 . S
C373 C376 1.363 . S
N374 C376 1.356 . S
N374 H386 0.984 . S
N374 H387 0.985 . S
N375 C377 1.356 . S
N375 H380 0.984 . S
N375 H381 0.985 . S
C376 C370 1.379 . S
C376 C373 1.363 . S
C376 N374 1.356 . S
C377 C371 1.363 . S
C377 C372 1.379 . S
C377 N375 1.356 . S
N378 C370 1.356 . S
N378 H384 0.984 . S
N378 H385 0.984 . S
N379 C372 1.356 . S
N379 H382 0.984 . S
N379 H383 0.985 . S
H380 N375 0.984 . S
H381 N375 0.985 . S
H382 N379 0.984 . S
H383 N379 0.985 . S
H384 N378 0.984 . S
H385 N378 0.984 . S
H386 N374 0.984 . S
H387 N374 0.985 . S
C388 C389 1.363 . S
C388 C394 1.379 . S
C388 N396 1.356 . S
C389 C388 1.363 . S
C389 C395 1.363 . S
C390 C391 1.363 . S
C390 C395 1.379 . S
C390 N397 1.356 . S
C391 C390 1.363 . S
C391 C394 1.363 . S
N392 C394 1.356 . S
N392 H404 0.984 . S
N392 H405 0.985 . S
N393 C395 1.356 . S
N393 H398 0.984 . S
N393 H399 0.985 . S
C394 C388 1.379 . S
C394 C391 1.363 . S
C394 N392 1.356 . S
C395 C389 1.363 . S
C395 C390 1.379 . S
C395 N393 1.356 . S
N396 C388 1.356 . S
N396 H402 0.984 . S
N396 H403 0.984 . S
N397 C390 1.356 . S
N397 H400 0.984 . S
N397 H401 0.985 . S
H398 N393 0.984 . S
H399 N393 0.985 . S
H400 N397 0.984 . S
H401 N397 0.985 . S
H402 N396 0.984 . S
H403 N396 0.984 . S
H404 N392 0.984 . S
H405 N392 0.985 . S
C406 C407 1.363 . S
C406 C412 1.379 . S
C406 N414 1.356 . S
C407 C406 1.363 . S
C407 C413 1.363 . S
C408 C409 1.363 . S
C408 C413 1.379 . S
C408 N415 1.356 . S
C409 C408 1.363 . S
C409 C412 1.363 . S
N410 C412 1.356 . S
N410 H422 0.984 . S
N410 H423 0.985 . S
N411 C413 1.356 . S
N411 H416 0.984 . S
N411 H417 0.985 . S
C412 C406 1.379 . S
C412 C409 1.363 . S
C412 N410 1.356 . S
C413 C407 1.363 . S
C413 C408 1.379 . S
C413 N411 1.356 . S
N414 C406 1.356 . S
N414 H420 0.984 . S
N414 H421 0.984 . S
N415 C408 1.356 . S
N415 H418 0.984 . S
N415 H419 0.985 . S
H416 N411 0.984 . S
H417 N411 0.985 . S
H418 N415 0.984 . S
H419 N415 0.985 . S
H420 N414 0.984 . S
H421 N414 0.984 . S
H422 N410 0.984 . S
H423 N410 0.985 . S
C424 C425 1.363 . S
C424 C430 1.379 . S
C424 N432 1.356 . S
C425 C424 1.363 . S
C425 C431 1.363 . S
C426 C427 1.363 . S
C426 C431 1.379 . S
C426 N433 1.356 . S
C427 C426 1.363 . S
C427 C430 1.363 . S
N428 C430 1.356 . S
N428 H440 0.984 . S
N428 H441 0.985 . S
N429 C431 1.356 . S
N429 H434 0.984 . S
N429 H435 0.985 . S
C430 C424 1.379 . S
C430 C427 1.363 . S
C430 N428 1.356 . S
C431 C425 1.363 . S
C431 C426 1.379 . S
C431 N429 1.356 . S
N432 C424 1.356 . S
N432 H438 0.984 . S
N432 H439 0.984 . S
N433 C426 1.356 . S
N433 H436 0.984 . S
N433 H437 0.985 . S
H434 N429 0.984 . S
H435 N429 0.985 . S
H436 N433 0.984 . S
H437 N433 0.985 . S
H438 N432 0.984 . S
H439 N432 0.984 . S
H440 N428 0.984 . S
H441 N428 0.985 . S
C442 C443 1.363 . S
C442 C448 1.379 . S
C442 N450 1.356 . S
C443 C442 1.363 . S
C443 C449 1.363 . S
C444 C445 1.363 . S
C444 C449 1.379 . S
C444 N451 1.356 . S
C445 C444 1.363 . S
C445 C448 1.363 . S
N446 C448 1.356 . S
N446 H458 0.984 . S
N446 H459 0.985 . S
N447 C449 1.356 . S
N447 H452 0.984 . S
N447 H453 0.985 . S
C448 C442 1.379 . S
C448 C445 1.363 . S
C448 N446 1.356 . S
C449 C443 1.363 . S
C449 C444 1.379 . S
C449 N447 1.356 . S
N450 C442 1.356 . S
N450 H456 0.984 . S
N450 H457 0.984 . S
N451 C444 1.356 . S
N451 H454 0.984 . S
N451 H455 0.985 . S
H452 N447 0.984 . S
H453 N447 0.985 . S
H454 N451 0.984 . S
H455 N451 0.985 . S
H456 N450 0.984 . S
H457 N450 0.984 . S
H458 N446 0.984 . S
H459 N446 0.985 . S
C460 C461 1.363 . S
C460 C466 1.379 . S
C460 N468 1.356 . S
C461 C460 1.363 . S
C461 C467 1.363 . S
C462 C463 1.363 . S
C462 C467 1.379 . S
C462 N469 1.356 . S
C463 C462 1.363 . S
C463 C466 1.363 . S
N464 C466 1.356 . S
N464 H476 0.984 . S
N464 H477 0.985 . S
N465 C467 1.356 . S
N465 H470 0.984 . S
N465 H471 0.985 . S
C466 C460 1.379 . S
C466 C463 1.363 . S
C466 N464 1.356 . S
C467 C461 1.363 . S
C467 C462 1.379 . S
C467 N465 1.356 . S
N468 C460 1.356 . S
N468 H474 0.984 . S
N468 H475 0.984 . S
N469 C462 1.356 . S
N469 H472 0.984 . S
N469 H473 0.985 . S
H470 N465 0.984 . S
H471 N465 0.985 . S
H472 N469 0.984 . S
H473 N469 0.985 . S
H474 N468 0.984 . S
H475 N468 0.984 . S
H476 N464 0.984 . S
H477 N464 0.985 . S
C478 C479 1.363 . S
C478 C484 1.379 . S
C478 N486 1.356 . S
C479 C478 1.363 . S
C479 C485 1.363 . S
C480 C481 1.363 . S
C480 C485 1.379 . S
C480 N487 1.356 . S
C481 C480 1.363 . S
C481 C484 1.363 . S
N482 C484 1.356 . S
N482 H494 0.984 . S
N482 H495 0.985 . S
N483 C485 1.356 . S
N483 H488 0.984 . S
N483 H489 0.985 . S
C484 C478 1.379 . S
C484 C481 1.363 . S
C484 N482 1.356 . S
C485 C479 1.363 . S
C485 C480 1.379 . S
C485 N483 1.356 . S
N486 C478 1.356 . S
N486 H492 0.984 . S
N486 H493 0.984 . S
N487 C480 1.356 . S
N487 H490 0.984 . S
N487 H491 0.985 . S
H488 N483 0.984 . S
H489 N483 0.985 . S
H490 N487 0.984 . S
H491 N487 0.985 . S
H492 N486 0.984 . S
H493 N486 0.984 . S
H494 N482 0.984 . S
H495 N482 0.985 . S
C496 C497 1.363 . S
C496 C502 1.379 . S
C496 N504 1.356 . S
C497 C496 1.363 . S
C497 C503 1.363 . S
C498 C499 1.363 . S
C498 C503 1.379 . S
C498 N505 1.356 . S
C499 C498 1.363 . S
C499 C502 1.363 . S
N500 C502 1.356 . S
N500 H512 0.984 . S
N500 H513 0.985 . S
N501 C503 1.356 . S
N501 H506 0.984 . S
N501 H507 0.985 . S
C502 C496 1.379 . S
C502 C499 1.363 . S
C502 N500 1.356 . S
C503 C497 1.363 . S
C503 C498 1.379 . S
C503 N501 1.356 . S
N504 C496 1.356 . S
N504 H510 0.984 . S
N504 H511 0.984 . S
N505 C498 1.356 . S
N505 H508 0.984 . S
N505 H509 0.985 . S
H506 N501 0.984 . S
H507 N501 0.985 . S
H508 N505 0.984 . S
H509 N505 0.985 . S
H510 N504 0.984 . S
H511 N504 0.984 . S
H512 N500 0.984 . S
H513 N500 0.985 . S
C514 C515 1.363 . S
C514 C520 1.379 . S
C514 N522 1.356 . S
C515 C514 1.363 . S
C515 C521 1.363 . S
C516 C517 1.363 . S
C516 C521 1.379 . S
C516 N523 1.356 . S
C517 C516 1.363 . S
C517 C520 1.363 . S
N518 C520 1.356 . S
N518 H530 0.984 . S
N518 H531 0.985 . S
N519 C521 1.356 . S
N519 H524 0.984 . S
N519 H525 0.985 . S
C520 C514 1.379 . S
C520 C517 1.363 . S
C520 N518 1.356 . S
C521 C515 1.363 . S
C521 C516 1.379 . S
C521 N519 1.356 . S
N522 C514 1.356 . S
N522 H528 0.984 . S
N522 H529 0.984 . S
N523 C516 1.356 . S
N523 H526 0.984 . S
N523 H527 0.985 . S
H524 N519 0.984 . S
H525 N519 0.985 . S
H526 N523 0.984 . S
H527 N523 0.985 . S
H528 N522 0.984 . S
H529 N522 0.984 . S
H530 N518 0.984 . S
H531 N518 0.985 . S
C532 C533 1.363 . S
C532 C538 1.379 . S
C532 N540 1.356 . S
C533 C532 1.363 . S
C533 C539 1.363 . S
C534 C535 1.363 . S
C534 C539 1.379 . S
C534 N541 1.356 . S
C535 C534 1.363 . S
C535 C538 1.363 . S
N536 C538 1.356 . S
N536 H548 0.984 . S
N536 H549 0.985 . S
N537 C539 1.356 . S
N537 H542 0.984 . S
N537 H543 0.985 . S
C538 C532 1.379 . S
C538 C535 1.363 . S
C538 N536 1.356 . S
C539 C533 1.363 . S
C539 C534 1.379 . S
C539 N537 1.356 . S
N540 C532 1.356 . S
N540 H546 0.984 . S
N540 H547 0.984 . S
N541 C534 1.356 . S
N541 H544 0.984 . S
N541 H545 0.985 . S
H542 N537 0.984 . S
H543 N537 0.985 . S
H544 N541 0.984 . S
H545 N541 0.985 . S
H546 N540 0.984 . S
H547 N540 0.984 . S
H548 N536 0.984 . S
H549 N536 0.985 . S
C550 C551 1.363 . S
C550 C556 1.379 . S
C550 N558 1.356 . S
C551 C550 1.363 . S
C551 C557 1.363 . S
C552 C553 1.363 . S
C552 C557 1.379 . S
C552 N559 1.356 . S
C553 C552 1.363 . S
C553 C556 1.363 . S
N554 C556 1.356 . S
N554 H566 0.984 . S
N554 H567 0.985 . S
N555 C557 1.356 . S
N555 H560 0.984 . S
N555 H561 0.985 . S
C556 C550 1.379 . S
C556 C553 1.363 . S
C556 N554 1.356 . S
C557 C551 1.363 . S
C557 C552 1.379 . S
C557 N555 1.356 . S
N558 C550 1.356 . S
N558 H564 0.984 . S
N558 H565 0.984 . S
N559 C552 1.356 . S
N559 H562 0.984 . S
N559 H563 0.985 . S
H560 N555 0.984 . S
H561 N555 0.985 . S
H562 N559 0.984 . S
H563 N559 0.985 . S
H564 N558 0.984 . S
H565 N558 0.984 . S
H566 N554 0.984 . S
H567 N554 0.985 . S
C568 C569 1.363 . S
C568 C574 1.379 . S
C568 N576 1.356 . S
C569 C568 1.363 . S
C569 C575 1.363 . S
C570 C571 1.363 . S
C570 C575 1.379 . S
C570 N577 1.356 . S
C571 C570 1.363 . S
C571 C574 1.363 . S
N572 C574 1.356 . S
N572 H584 0.984 . S
N572 H585 0.985 . S
N573 C575 1.356 . S
N573 H578 0.984 . S
N573 H579 0.985 . S
C574 C568 1.379 . S
C574 C571 1.363 . S
C574 N572 1.356 . S
C575 C569 1.363 . S
C575 C570 1.379 . S
C575 N573 1.356 . S
N576 C568 1.356 . S
N576 H582 0.984 . S
N576 H583 0.984 . S
N577 C570 1.356 . S
N577 H580 0.984 . S
N577 H581 0.985 . S
H578 N573 0.984 . S
H579 N573 0.985 . S
H580 N577 0.984 . S
H581 N577 0.985 . S
H582 N576 0.984 . S
H583 N576 0.984 . S
H584 N572 0.984 . S
H585 N572 0.985 . S
C586 C587 1.363 . S
C586 C592 1.379 . S
C586 N594 1.356 . S
C587 C586 1.363 . S
C587 C593 1.363 . S
C588 C589 1.363 . S
C588 C593 1.379 . S
C588 N595 1.356 . S
C589 C588 1.363 . S
C589 C592 1.363 . S
N590 C592 1.356 . S
N590 H602 0.984 . S
N590 H603 0.985 . S
N591 C593 1.356 . S
N591 H596 0.984 . S
N591 H597 0.985 . S
C592 C586 1.379 . S
C592 C589 1.363 . S
C592 N590 1.356 . S
C593 C587 1.363 . S
C593 C588 1.379 . S
C593 N591 1.356 . S
N594 C586 1.356 . S
N594 H600 0.984 . S
N594 H601 0.984 . S
N595 C588 1.356 . S
N595 H598 0.984 1_545 S
N595 H599 0.985 1_545 S
H596 N591 0.984 . S
H597 N591 0.985 . S
H598 N595 0.984 1_565 S
H599 N595 0.985 1_565 S
H600 N594 0.984 . S
H601 N594 0.984 . S
H602 N590 0.984 . S
H603 N590 0.985 . S
C604 C605 1.363 . S
C604 C610 1.379 . S
C604 N612 1.356 . S
C605 C604 1.363 . S
C605 C611 1.363 . S
C606 C607 1.363 . S
C606 C611 1.379 . S
C606 N613 1.356 . S
C607 C606 1.363 . S
C607 C610 1.363 . S
N608 C610 1.356 . S
N608 H620 0.984 . S
N608 H621 0.985 . S
N609 C611 1.356 . S
N609 H614 0.984 . S
N609 H615 0.985 . S
C610 C604 1.379 . S
C610 C607 1.363 . S
C610 N608 1.356 . S
C611 C605 1.363 . S
C611 C606 1.379 . S
C611 N609 1.356 . S
N612 C604 1.356 . S
N612 H618 0.984 . S
N612 H619 0.984 . S
N613 C606 1.356 . S
N613 H616 0.984 . S
N613 H617 0.985 . S
H614 N609 0.984 . S
H615 N609 0.985 . S
H616 N613 0.984 . S
H617 N613 0.985 . S
H618 N612 0.984 . S
H619 N612 0.984 . S
H620 N608 0.984 . S
H621 N608 0.985 . S
C622 C623 1.363 . S
C622 C628 1.379 . S
C622 N630 1.356 . S
C623 C622 1.363 . S
C623 C629 1.363 . S
C624 C625 1.363 . S
C624 C629 1.379 . S
C624 N631 1.356 . S
C625 C624 1.363 . S
C625 C628 1.363 . S
N626 C628 1.356 . S
N626 H638 0.984 . S
N626 H639 0.985 . S
N627 C629 1.356 . S
N627 H632 0.984 1_565 S
N627 H633 0.985 1_565 S
C628 C622 1.379 . S
C628 C625 1.363 . S
C628 N626 1.356 . S
C629 C623 1.363 . S
C629 C624 1.379 . S
C629 N627 1.356 . S
N630 C622 1.356 . S
N630 H636 0.984 . S
N630 H637 0.984 . S
N631 C624 1.356 . S
N631 H634 0.984 . S
N631 H635 0.985 . S
H632 N627 0.984 1_545 S
H633 N627 0.985 1_545 S
H634 N631 0.984 . S
H635 N631 0.985 . S
H636 N630 0.984 . S
H637 N630 0.984 . S
H638 N626 0.984 . S
H639 N626 0.985 . S
C640 C641 1.363 1_655 S
C640 C646 1.379 . S
C640 N648 1.356 . S
C641 C640 1.363 1_455 S
C641 C647 1.363 . S
C642 C643 1.363 1_455 S
C642 C647 1.379 . S
C642 N649 1.356 . S
C643 C642 1.363 1_655 S
C643 C646 1.363 . S
N644 C646 1.356 . S
N644 H656 0.984 . S
N644 H657 0.985 . S
N645 C647 1.356 . S
N645 H650 0.984 . S
N645 H651 0.985 . S
C646 C640 1.379 . S
C646 C643 1.363 . S
C646 N644 1.356 . S
C647 C641 1.363 . S
C647 C642 1.379 . S
C647 N645 1.356 . S
N648 C640 1.356 . S
N648 H654 0.984 . S
N648 H655 0.984 . S
N649 C642 1.356 . S
N649 H652 0.984 . S
N649 H653 0.985 . S
H650 N645 0.984 . S
H651 N645 0.985 . S
H652 N649 0.984 . S
H653 N649 0.985 . S
H654 N648 0.984 . S
H655 N648 0.984 . S
H656 N644 0.984 . S
H657 N644 0.985 . S
C658 C659 1.363 . S
C658 C664 1.379 . S
C658 N666 1.356 . S
C659 C658 1.363 . S
C659 C665 1.363 1_565 S
C660 C661 1.363 . S
C660 C665 1.379 . S
C660 N667 1.356 . S
C661 C660 1.363 . S
C661 C664 1.363 1_545 S
N662 C664 1.356 . S
N662 H674 0.984 . S
N662 H675 0.985 . S
N663 C665 1.356 . S
N663 H668 0.984 . S
N663 H669 0.985 . S
C664 C658 1.379 . S
C664 C661 1.363 1_565 S
C664 N662 1.356 . S
C665 C659 1.363 1_545 S
C665 C660 1.379 . S
C665 N663 1.356 . S
N666 C658 1.356 . S
N666 H672 0.984 . S
N666 H673 0.984 . S
N667 C660 1.356 . S
N667 H670 0.984 . S
N667 H671 0.985 . S
H668 N663 0.984 . S
H669 N663 0.985 . S
H670 N667 0.984 . S
H671 N667 0.985 . S
H672 N666 0.984 . S
H673 N666 0.984 . S
H674 N662 0.984 . S
H675 N662 0.985 . S
C676 C677 1.363 . S
C676 C682 1.379 . S
C676 N684 1.356 . S
C677 C676 1.363 . S
C677 C683 1.363 1_455 S
C678 C679 1.363 . S
C678 C683 1.379 . S
C678 N685 1.356 . S
C679 C678 1.363 . S
C679 C682 1.363 1_655 S
N680 C682 1.356 . S
N680 H692 0.984 . S
N680 H693 0.985 . S
N681 C683 1.356 . S
N681 H686 0.984 . S
N681 H687 0.985 . S
C682 C676 1.379 . S
C682 C679 1.363 1_455 S
C682 N680 1.356 . S
C683 C677 1.363 1_655 S
C683 C678 1.379 . S
C683 N681 1.356 . S
N684 C676 1.356 . S
N684 H690 0.984 . S
N684 H691 0.984 . S
N685 C678 1.356 . S
N685 H688 0.984 . S
N685 H689 0.985 . S
H686 N681 0.984 . S
H687 N681 0.985 . S
H688 N685 0.984 . S
H689 N685 0.985 . S
H690 N684 0.984 . S
H691 N684 0.984 . S
H692 N680 0.984 . S
H693 N680 0.985 . S
C694 C695 1.363 1_565 S
C694 C700 1.379 . S
C694 N702 1.356 . S
C695 C694 1.363 1_545 S
C695 C701 1.363 . S
C696 C697 1.363 1_545 S
C696 C701 1.379 . S
C696 N703 1.356 . S
C697 C696 1.363 1_565 S
C697 C700 1.363 . S
N698 C700 1.356 . S
N698 H710 0.984 . S
N698 H711 0.985 . S
N699 C701 1.356 . S
N699 H704 0.984 . S
N699 H705 0.985 . S
C700 C694 1.379 . S
C700 C697 1.363 . S
C700 N698 1.356 . S
C701 C695 1.363 . S
C701 C696 1.379 . S
C701 N699 1.356 . S
N702 C694 1.356 . S
N702 H708 0.984 . S
N702 H709 0.984 . S
N703 C696 1.356 . S
N703 H706 0.984 . S
N703 H707 0.985 . S
H704 N699 0.984 . S
H705 N699 0.985 . S
H706 N703 0.984 . S
H707 N703 0.985 . S
H708 N702 0.984 . S
H709 N702 0.984 . S
H710 N698 0.984 . S
H711 N698 0.985 . S
C712 C713 1.363 . S
C712 C718 1.379 1_556 S
C712 N720 1.356 . S
C713 C712 1.363 . S
C713 C719 1.363 . S
C714 C715 1.363 . S
C714 C719 1.379 1_554 S
C714 N721 1.356 . S
C715 C714 1.363 . S
C715 C718 1.363 . S
N716 C718 1.356 . S
N716 H728 0.984 . S
N716 H729 0.985 . S
N717 C719 1.356 . S
N717 H722 0.984 . S
N717 H723 0.985 . S
C718 C712 1.379 1_554 S
C718 C715 1.363 . S
C718 N716 1.356 . S
C719 C713 1.363 . S
C719 C714 1.379 1_556 S
C719 N717 1.356 . S
N720 C712 1.356 . S
N720 H726 0.984 . S
N720 H727 0.984 . S
N721 C714 1.356 . S
N721 H724 0.984 . S
N721 H725 0.985 . S
H722 N717 0.984 . S
H723 N717 0.985 . S
H724 N721 0.984 . S
H725 N721 0.985 . S
H726 N720 0.984 . S
H727 N720 0.984 . S
H728 N716 0.984 . S
H729 N716 0.985 . S
C730 C731 1.363 . S
C730 C736 1.379 1_556 S
C730 N738 1.356 . S
C731 C730 1.363 . S
C731 C737 1.363 . S
C732 C733 1.363 . S
C732 C737 1.379 1_554 S
C732 N739 1.356 . S
C733 C732 1.363 . S
C733 C736 1.363 . S
N734 C736 1.356 . S
N734 H746 0.984 . S
N734 H747 0.985 . S
N735 C737 1.356 . S
N735 H740 0.984 . S
N735 H741 0.985 . S
C736 C730 1.379 1_554 S
C736 C733 1.363 . S
C736 N734 1.356 . S
C737 C731 1.363 . S
C737 C732 1.379 1_556 S
C737 N735 1.356 . S
N738 C730 1.356 . S
N738 H744 0.984 . S
N738 H745 0.984 . S
N739 C732 1.356 . S
N739 H742 0.984 . S
N739 H743 0.985 . S
H740 N735 0.984 . S
H741 N735 0.985 . S
H742 N739 0.984 . S
H743 N739 0.985 . S
H744 N738 0.984 . S
H745 N738 0.984 . S
H746 N734 0.984 . S
H747 N734 0.985 . S
C748 C749 1.363 . S
C748 C754 1.379 1_554 S
C748 N756 1.356 . S
C749 C748 1.363 . S
C749 C755 1.363 . S
C750 C751 1.363 . S
C750 C755 1.379 1_556 S
C750 N757 1.356 . S
C751 C750 1.363 . S
C751 C754 1.363 . S
N752 C754 1.356 . S
N752 H764 0.984 . S
N752 H765 0.985 . S
N753 C755 1.356 . S
N753 H758 0.984 . S
N753 H759 0.985 . S
C754 C748 1.379 1_556 S
C754 C751 1.363 . S
C754 N752 1.356 . S
C755 C749 1.363 . S
C755 C750 1.379 1_554 S
C755 N753 1.356 . S
N756 C748 1.356 . S
N756 H762 0.984 . S
N756 H763 0.984 . S
N757 C750 1.356 . S
N757 H760 0.984 . S
N757 H761 0.985 . S
H758 N753 0.984 . S
H759 N753 0.985 . S
H760 N757 0.984 . S
H761 N757 0.985 . S
H762 N756 0.984 . S
H763 N756 0.984 . S
H764 N752 0.984 . S
H765 N752 0.985 . S
C766 C767 1.363 . S
C766 C772 1.379 1_556 S
C766 N774 1.356 . S
C767 C766 1.363 . S
C767 C773 1.363 . S
C768 C769 1.363 . S
C768 C773 1.379 1_554 S
C768 N775 1.356 . S
C769 C768 1.363 . S
C769 C772 1.363 . S
N770 C772 1.356 . S
N770 H782 0.984 . S
N770 H783 0.985 . S
N771 C773 1.356 . S
N771 H776 0.984 . S
N771 H777 0.985 . S
C772 C766 1.379 1_554 S
C772 C769 1.363 . S
C772 N770 1.356 . S
C773 C767 1.363 . S
C773 C768 1.379 1_556 S
C773 N771 1.356 . S
N774 C766 1.356 . S
N774 H780 0.984 . S
N774 H781 0.984 . S
N775 C768 1.356 . S
N775 H778 0.984 . S
N775 H779 0.985 . S
H776 N771 0.984 . S
H777 N771 0.985 . S
H778 N775 0.984 . S
H779 N775 0.985 . S
H780 N774 0.984 . S
H781 N774 0.984 . S
H782 N770 0.984 . S
H783 N770 0.985 . S
C209 C8 1.488 . S
C211 C44 1.359 . S
C227 C5 1.359 . S
C229 C21 1.488 . S
C245 C18 1.359 . S
C247 C34 1.488 . S
C263 C31 1.359 . S
C265 C47 1.488 . S
C281 C60 1.488 . S
C283 C70 1.359 . S
C299 C73 1.488 . S
C301 C83 1.359 . S
C317 C86 1.488 . S
C319 C96 1.359 . S
C335 C99 1.488 . S
C337 C57 1.359 . S
C353 C112 1.488 . S
C355 C148 1.359 . S
C371 C109 1.359 . S
C373 C125 1.488 . S
C389 C122 1.359 . S
C391 C138 1.488 . S
C407 C151 1.488 . S
C409 C135 1.359 . S
C425 C174 1.359 . S
C427 C164 1.488 . S
C443 C187 1.359 . S
C445 C177 1.488 . S
C461 C190 1.488 . S
C463 C200 1.359 . S
C479 C203 1.488 . S
C481 C161 1.359 . S
C497 C0 1.201 . S
C499 C195 1.201 . S
C515 C13 1.201 . S
C517 C156 1.201 . S
C533 C169 1.201 . S
C535 C26 1.201 . S
C551 C39 1.201 . S
C553 C182 1.201 . S
C569 C117 1.201 . S
C571 C52 1.201 . S
C587 C130 1.201 . S
C589 C65 1.201 . S
C605 C78 1.201 . S
C607 C143 1.201 . S
C623 C91 1.201 . S
C625 C104 1.201 . S
C641 C10 1.436 . S
C643 C88 1.436 . S
C659 C101 1.436 . S
C661 C23 1.436 . S
C677 C62 1.436 . S
C679 C36 1.436 . S
C695 C75 1.436 . S
C697 C49 1.436 . S
C713 C114 1.436 . S
C715 C192 1.436 . S
C731 C127 1.436 . S
C733 C205 1.436 . S
C749 C166 1.436 . S
C751 C140 1.436 . S
C767 C153 1.436 . S
C769 C179 1.436 . S
