# Generated by pormake.
# Topology mmt, (4)-cn, num edge types: 1
# Building blocks:
#     Node 0, Type 0, BuildingBlock: QUQFOY_clean_sbu_1, # of connection points: 4
#     Node 1, Type 0, BuildingBlock: QUQFOY_clean_sbu_1, # of connection points: 4
#     Node 2, Type 0, BuildingBlock: QUQFOY_clean_sbu_1, # of connection points: 4
#     Node 3, Type 0, BuildingBlock: QUQFOY_clean_sbu_1, # of connection points: 4
#     Node 4, Type 0, BuildingBlock: QUQFOY_clean_sbu_1, # of connection points: 4
#     Node 5, Type 0, BuildingBlock: QUQFOY_clean_sbu_1, # of connection points: 4
#     Node 6, Type 0, BuildingBlock: QUQFOY_clean_sbu_1, # of connection points: 4
#     Node 7, Type 0, BuildingBlock: QUQFOY_clean_sbu_1, # of connection points: 4
#     Edge 8, Type (0, 0), BuildingBlock: OJICUG_clean_linker_0, # of connection points: 2
#     Edge 9, Type (0, 0), BuildingBlock: OJICUG_clean_linker_0, # of connection points: 2
#     Edge 10, Type (0, 0), BuildingBlock: OJICUG_clean_linker_0, # of connection points: 2
#     Edge 11, Type (0, 0), BuildingBlock: OJICUG_clean_linker_0, # of connection points: 2
#     Edge 12, Type (0, 0), BuildingBlock: OJICUG_clean_linker_0, # of connection points: 2
#     Edge 13, Type (0, 0), BuildingBlock: OJICUG_clean_linker_0, # of connection points: 2
#     Edge 14, Type (0, 0), BuildingBlock: OJICUG_clean_linker_0, # of connection points: 2
#     Edge 15, Type (0, 0), BuildingBlock: OJICUG_clean_linker_0, # of connection points: 2
#     Edge 16, Type (0, 0), BuildingBlock: OJICUG_clean_linker_0, # of connection points: 2
#     Edge 17, Type (0, 0), BuildingBlock: OJICUG_clean_linker_0, # of connection points: 2
#     Edge 18, Type (0, 0), BuildingBlock: OJICUG_clean_linker_0, # of connection points: 2
#     Edge 19, Type (0, 0), BuildingBlock: OJICUG_clean_linker_0, # of connection points: 2
#     Edge 20, Type (0, 0), BuildingBlock: OJICUG_clean_linker_0, # of connection points: 2
#     Edge 21, Type (0, 0), BuildingBlock: OJICUG_clean_linker_0, # of connection points: 2
#     Edge 22, Type (0, 0), BuildingBlock: OJICUG_clean_linker_0, # of connection points: 2
#     Edge 23, Type (0, 0), BuildingBlock: OJICUG_clean_linker_0, # of connection points: 2
# Relax obj value: 0.024
# Max RMSD: 0.102
# Mean RMSD: 0.102
data_MOF--net-mmt--node1-QUQFOY_clean_sbu_1--edge1-OJICUG_clean_linker_0
_symmetry_space_group_name_H-M    P1
_symmetry_Int_Tables_number       1
_symmetry_cell_setting            triclinic
loop_
_symmetry_equiv_pos_as_xyz
'x, y, z'
_cell_length_a     18.508417
_cell_length_b     29.894678
_cell_length_c     31.912495
_cell_angle_alpha  90.199625
_cell_angle_beta   90.049597
_cell_angle_gamma 89.913252
loop_
_atom_site_label
_atom_site_type_symbol
_atom_site_fract_x
_atom_site_fract_y
_atom_site_fract_z
_atom_type_partial_charge
O0 O 0.14257 0.59668 0.33954 0.0
Cd1 Cd 0.05874 0.63564 0.36047 0.0
Cd2 Cd 0.04424 0.55736 0.40469 0.0
O3 O 0.14769 0.54176 0.38529 0.0
O4 O 0.08345 0.69167 0.33048 0.0
O5 O 0.08588 0.68691 0.39938 0.0
C6 C 0.09893 0.70976 0.36598 0.0
C7 C 0.00191 0.55128 0.47307 0.0
C8 C 0.17417 0.56239 0.35416 0.0
C9 C -0.06759 0.58034 0.33915 0.0
O10 O -0.03593 0.55064 0.36087 0.0
O11 O -0.04321 0.62006 0.33809 0.0
O12 O 0.01459 0.51623 0.45052 0.0
O13 O 0.01829 0.58992 0.45765 0.0
O14 O 0.20803 0.99069 0.34036 0.0
Cd15 Cd 0.29301 0.95227 0.36044 0.0
Cd16 Cd 0.30813 1.03115 0.40455 0.0
O17 O 0.20431 0.04651 0.38557 0.0
O18 O 0.2682 0.89607 0.33036 0.0
O19 O 0.26742 0.90095 0.39929 0.0
C20 C 0.25377 0.87799 0.36588 0.0
C21 C 0.35101 1.03707 0.47296 0.0
C22 C 0.17683 1.02522 0.35495 0.0
C23 C 0.41871 1.00788 0.3383 0.0
O24 O 0.38764 1.03766 0.36038 0.0
O25 O 0.39426 0.96816 0.33728 0.0
O26 O 0.33829 0.07217 0.45069 0.0
O27 O 0.33454 0.99847 0.4572 0.0
O28 O 0.64344 0.49101 0.26546 0.0
Cd29 Cd 0.55927 0.45214 0.24502 0.0
Cd30 Cd 0.54392 0.53062 0.20051 0.0
O31 O 0.64716 0.54639 0.22012 0.0
O32 O 0.58431 0.39614 0.27508 0.0
O33 O 0.58577 0.4007 0.20615 0.0
C34 C 0.59921 0.3779 0.23956 0.0
C35 C 0.50186 0.53688 0.13203 0.0
C36 C 0.6744 0.5255 0.25095 0.0
C37 C 0.43238 0.50753 0.26609 0.0
O38 O 0.46344 0.53713 0.24408 0.0
O39 O 0.4575 0.46795 0.26761 0.0
O40 O 0.51412 0.57186 0.15472 0.0
O41 O 0.5185 0.49821 0.14738 0.0
O42 O 0.70732 0.09623 0.26442 0.0
Cd43 Cd 0.79227 0.13465 0.24463 0.0
Cd44 Cd 0.80779 0.05581 0.20033 0.0
O45 O 0.70412 1.04032 0.21929 0.0
O46 O 0.76737 0.19077 0.27488 0.0
O47 O 0.76671 0.18617 0.20593 0.0
C48 C 0.75305 0.20904 0.2394 0.0
C49 C 0.85057 0.0504 0.13191 0.0
C50 C 0.67641 0.06165 0.24982 0.0
C51 C 0.91839 0.07893 0.26662 0.0
O52 O 0.88751 0.0492 0.24443 0.0
O53 O 0.89358 0.1186 0.26781 0.0
O54 O 0.83813 1.01513 0.15395 0.0
O55 O 0.83381 0.08887 0.14788 0.0
O56 O 0.71589 0.49179 0.76813 0.0
Cd57 Cd 0.7974 0.45177 0.74598 0.0
Cd58 Cd 0.81157 0.52898 0.70021 0.0
O59 O 0.70942 0.54559 0.72129 0.0
O60 O 0.77224 0.39567 0.77576 0.0
O61 O 0.76758 0.40124 0.70693 0.0
C62 C 0.75514 0.37812 0.74026 0.0
C63 C 0.85093 0.53527 0.63122 0.0
C64 C 0.68428 0.52601 0.75339 0.0
C65 C 0.92624 0.50581 0.76426 0.0
O66 O 0.8944 0.53533 0.74241 0.0
O67 O 0.90062 0.46647 0.76675 0.0
O68 O 0.83959 0.57023 0.65412 0.0
O69 O 0.83461 0.49663 0.64665 0.0
O70 O 0.64111 0.0977 0.76648 0.0
Cd71 Cd 0.55742 0.13672 0.74563 0.0
Cd72 Cd 0.54293 0.05863 0.70029 0.0
O73 O 0.64598 1.04275 0.72038 0.0
O74 O 0.58222 0.19296 0.77567 0.0
O75 O 0.58461 0.18769 0.70676 0.0
C76 C 0.59772 0.21079 0.74017 0.0
C77 C 0.50207 0.05264 0.63145 0.0
C78 C 0.67248 0.06331 0.75172 0.0
C79 C 0.4303 0.08159 0.76561 0.0
O80 O 0.46166 0.05207 0.74337 0.0
O81 O 0.45537 0.12112 0.76767 0.0
O82 O 0.51408 1.01757 0.65389 0.0
O83 O 0.51829 0.09124 0.64728 0.0
O84 O 0.21551 0.59702 0.83681 0.0
Cd85 Cd 0.29713 0.63693 0.85886 0.0
Cd86 Cd 0.31185 0.55961 0.9046 0.0
O87 O 0.20977 0.54299 0.88344 0.0
O88 O 0.27174 0.69307 0.82911 0.0
O89 O 0.26761 0.68753 0.89795 0.0
C90 C 0.25496 0.71067 0.86464 0.0
C91 C 0.35124 0.5532 0.97362 0.0
C92 C 0.18425 0.5627 0.85146 0.0
C93 C 0.42619 0.58286 0.84055 0.0
O94 O 0.39469 0.55334 0.86246 0.0
O95 O 0.40025 0.62215 0.83797 0.0
O96 O 0.34012 0.51828 0.95064 0.0
O97 O 0.3347 0.59187 0.95824 0.0
O98 O 0.14139 0.99172 0.83871 0.0
Cd99 Cd 0.05795 0.95272 0.8596 0.0
Cd100 Cd 0.04332 1.03068 0.90485 0.0
O101 O 0.14631 0.04657 0.88489 0.0
O102 O 0.08273 0.89648 0.82949 0.0
O103 O 0.08537 0.90166 0.8984 0.0
C104 C 0.09833 0.87858 0.86496 0.0
C105 C 0.00229 1.03612 0.97365 0.0
C106 C 0.17273 1.02607 0.85349 0.0
C107 C -0.06932 1.00792 0.83952 0.0
O108 O -0.03791 1.03747 0.86168 0.0
O109 O -0.04425 0.96835 0.8376 0.0
O110 O 0.01421 0.07137 0.95149 0.0
O111 O 0.01876 0.99765 0.95758 0.0
C112 C 0.27533 0.57628 0.305 0.0
C113 C 0.24168 0.54748 0.33364 0.0
H114 H 0.3606 0.58628 0.26154 0.0
C115 C 0.27175 0.50491 0.34062 0.0
H116 H 0.25404 0.60941 0.29893 0.0
C117 C 0.3338 0.49134 0.31865 0.0
C118 C 0.36674 0.52032 0.28973 0.0
H119 H 0.24682 0.48197 0.36243 0.0
H120 H 0.35586 0.45833 0.3243 0.0
C121 C 0.33684 0.56295 0.28345 0.0
C122 C 0.01133 1.02275 0.28638 0.0
C123 C -0.01651 0.06622 0.29081 0.0
H124 H 0.09274 0.97597 0.30332 0.0
C125 C 0.01826 0.09627 0.31826 0.0
H126 H -0.014 0.99854 0.26577 0.0
C127 C 0.08038 0.08302 0.34032 0.0
C128 C 0.10868 1.0397 0.33492 0.0
H129 H -0.00218 0.12994 0.3225 0.0
H130 H 0.10696 0.10684 0.36078 0.0
C131 C 0.07291 1.00974 0.30803 0.0
C132 C 0.77764 0.51087 0.29855 0.0
C133 C 0.7421 0.54035 0.27123 0.0
H134 H 0.86432 0.5003 0.34106 0.0
C135 C 0.77035 0.58355 0.26551 0.0
H136 H 0.75781 0.47723 0.30355 0.0
C137 C 0.83235 0.5971 0.28754 0.0
C138 C 0.86704 0.56747 0.31528 0.0
H139 H 0.74392 0.60702 0.24473 0.0
H140 H 0.85287 0.63063 0.28297 0.0
C141 C 0.83909 0.52417 0.32016 0.0
C142 C 0.57188 0.07732 0.29616 0.0
C143 C 0.60833 0.04716 0.26976 0.0
H144 H 0.48464 0.08868 0.3381 0.0
C145 C 0.58086 1.00362 0.26486 0.0
H146 H 0.59106 0.11126 0.30045 0.0
C147 C 0.51894 0.99036 0.28698 0.0
C148 C 0.48355 1.0206 0.31399 0.0
H149 H 0.60799 0.97964 0.24478 0.0
H150 H 0.49918 0.95651 0.28316 0.0
C151 C 0.51051 0.0643 0.31787 0.0
C152 C 0.52337 0.59729 0.78673 0.0
C153 C 0.49301 0.57016 0.81807 0.0
H154 H 0.60785 0.6045 0.74099 0.0
C155 C 0.52605 0.52912 0.82749 0.0
H156 H 0.49888 0.62905 0.7787 0.0
C157 C 0.58754 0.51528 0.80621 0.0
C158 C 0.61803 0.54194 0.77468 0.0
H159 H 0.50446 0.50737 0.85149 0.0
H160 H 0.61097 0.4833 0.81458 0.0
C161 C 0.58539 0.58316 0.76503 0.0
C162 C 0.76957 1.00554 0.76514 0.0
C163 C 0.73986 0.04822 0.77227 0.0
H164 H 0.85338 0.95876 0.78126 0.0
C165 C 0.77382 0.077 0.80104 0.0
H166 H 0.7444 0.98261 0.74323 0.0
C167 C 0.83532 0.06355 0.82253 0.0
C168 C 0.86489 1.02081 0.81607 0.0
H169 H 0.75283 0.11022 0.80722 0.0
H170 H 0.85938 0.08688 0.84451 0.0
C171 C 0.83159 0.99184 0.78705 0.0
C172 C 0.08587 0.50542 0.83963 0.0
C173 C 0.11798 0.54679 0.83019 0.0
H174 H -0.00017 0.4594 0.82577 0.0
C175 C 0.08696 0.5736 0.79887 0.0
H176 H 0.10876 0.48396 0.8635 0.0
C177 C 0.0255 0.55975 0.77758 0.0
C178 C -0.00698 0.51855 0.78677 0.0
H179 H 0.10997 0.6057 0.79068 0.0
H180 H 0.0035 0.58161 0.75374 0.0
C181 C 0.02389 0.49129 0.81792 0.0
C182 C 0.27337 1.0127 0.80365 0.0
C183 C 0.23988 1.04121 0.83285 0.0
H184 H 0.35838 1.00306 0.75983 0.0
C185 C 0.26986 0.0837 0.84035 0.0
H186 H 0.25215 0.97963 0.79714 0.0
C187 C 0.33171 0.09745 0.81843 0.0
C188 C 0.36458 0.06872 0.78901 0.0
H189 H 0.24506 0.10645 0.86259 0.0
H190 H 0.35375 0.13037 0.82454 0.0
C191 C 0.33468 1.02619 0.78214 0.0
C192 C -0.05618 0.50499 0.52907 0.0
C193 C -0.03506 0.5472 0.51407 0.0
H194 H 0.89049 0.46809 0.57741 0.0
C195 C -0.05359 0.58547 0.53738 0.0
H196 H -0.04327 0.47481 0.51173 0.0
C197 C 0.90788 0.58161 0.57489 0.0
C198 C 0.88694 0.53939 0.58994 0.0
H199 H -0.03869 0.6185 0.52657 0.0
H200 H 0.89507 0.61178 0.59225 0.0
C201 C 0.90528 0.50112 0.56657 0.0
C202 C 0.40653 1.0027 0.53703 0.0
C203 C 0.38796 1.04104 0.51405 0.0
H204 H 0.45789 0.97624 0.59172 0.0
C205 C 0.40887 0.08322 0.52953 0.0
H206 H 0.39177 0.9697 0.52587 0.0
C207 C 0.44732 0.08698 0.56715 0.0
C208 C 0.46577 0.04865 0.59017 0.0
H209 H 0.39589 0.11345 0.51247 0.0
H210 H 0.46201 0.11999 0.57833 0.0
C211 C 0.44497 1.00646 0.57465 0.0
C212 C 0.44691 0.50282 0.0675 0.0
C213 C 0.46503 0.54104 0.09095 0.0
H214 H 0.39596 0.47662 1.01245 0.0
C215 C 0.44364 0.58328 0.07602 0.0
H216 H 0.46203 0.46978 0.07825 0.0
C217 C 0.40518 0.58721 1.03845 0.0
C218 C 0.38722 0.549 1.01494 0.0
H219 H 0.45624 0.61342 0.09347 0.0
H220 H 0.39015 0.62026 1.02767 0.0
C221 C 0.40847 0.50676 1.02992 0.0
C222 C -0.05251 1.00125 1.03759 0.0
C223 C -0.0342 1.03977 1.01487 0.0
H224 H 0.89602 0.97434 0.09196 0.0
C225 C -0.05534 0.08183 1.03062 0.0
H226 H -0.03756 0.96834 1.02622 0.0
C227 C 0.90604 0.08528 0.06817 0.0
C228 C 0.88762 0.04676 0.09085 0.0
H229 H -0.04255 0.11219 1.01378 0.0
H230 H 0.89102 0.11819 0.07952 0.0
C231 C 0.90886 1.00471 0.07514 0.0
C232 C 0.15701 0.77387 0.40529 0.0
C233 C 0.13636 0.75356 0.36728 0.0
H234 H 0.21106 0.82924 0.43491 0.0
C235 C 0.15641 0.77397 0.32945 0.0
H236 H 0.1429 0.75875 0.43496 0.0
C237 C 0.19616 0.81347 0.32942 0.0
C238 C 0.21667 0.83409 0.36722 0.0
H239 H 0.14208 0.75919 0.29955 0.0
H240 H 0.21006 0.82811 0.2995 0.0
C241 C 0.19659 0.81396 0.40526 0.0
C242 C 0.69599 0.27374 0.27597 0.0
C243 C 0.71615 0.25307 0.23814 0.0
H244 H 0.64244 0.32825 0.30594 0.0
C245 C 0.69598 0.27332 0.20013 0.0
H246 H 0.70999 0.25903 0.30587 0.0
C247 C 0.65664 0.31357 0.20017 0.0
C248 C 0.63636 0.33394 0.23822 0.0
H249 H 0.71018 0.25801 0.17046 0.0
H250 H 0.64245 0.32877 0.17052 0.0
C251 C 0.6565 0.31343 0.27601 0.0
C252 C 0.65606 0.27501 0.77671 0.0
C253 C 0.63539 0.25451 0.7389 0.0
H254 H 0.71085 0.329 0.80665 0.0
C255 C 0.65579 0.27457 0.70088 0.0
H256 H 0.6419 0.26043 0.80662 0.0
C257 C 0.69588 0.31446 0.70089 0.0
C258 C 0.71679 0.33462 0.73893 0.0
H259 H 0.64118 0.25938 0.67121 0.0
H260 H 0.71029 0.32951 0.67124 0.0
C261 C 0.69636 0.31431 0.77673 0.0
C262 C 0.19629 0.77472 0.82826 0.0
C263 C 0.21682 0.75431 0.86603 0.0
H264 H 0.14196 0.82884 0.79844 0.0
C265 C 0.19624 0.77453 0.90409 0.0
H266 H 0.21054 0.76 0.79831 0.0
C267 C 0.15636 0.81457 0.90417 0.0
C268 C 0.13586 0.83474 0.86618 0.0
H269 H 0.21074 0.7594 0.93373 0.0
H270 H 0.14199 0.8298 0.93386 0.0
C271 C 0.15621 0.81418 0.82833 0.0
loop_
_geom_bond_atom_site_label_1
_geom_bond_atom_site_label_2
_geom_bond_distance
_geom_bond_site_symmetry_2
_ccdc_geom_bond_type
O0 Cd1 2.223 . S
O0 C8 1.315 . S
Cd1 O0 2.223 . S
Cd1 O4 2.297 . S
Cd1 O5 2.439 . S
Cd1 O11 2.240 . S
Cd2 O3 2.240 . S
Cd2 O10 2.223 . S
Cd2 O12 2.297 . S
Cd2 O13 2.439 . S
O3 Cd2 2.240 . S
O3 C8 1.279 . S
O4 Cd1 2.297 . S
O4 C6 1.247 . S
O5 Cd1 2.439 . S
O5 C6 1.208 . S
C6 O4 1.247 . S
C6 O5 1.208 . S
C7 O12 1.247 . S
C7 O13 1.208 . S
C8 O0 1.315 . S
C8 O3 1.279 . S
C9 O10 1.315 . S
C9 O11 1.279 . S
O10 Cd2 2.223 . S
O10 C9 1.315 . S
O11 Cd1 2.240 . S
O11 C9 1.279 . S
O12 Cd2 2.297 . S
O12 C7 1.247 . S
O13 Cd2 2.439 . S
O13 C7 1.208 . S
O14 Cd15 2.223 . S
O14 C22 1.315 . S
Cd15 O14 2.223 . S
Cd15 O18 2.297 . S
Cd15 O19 2.439 . S
Cd15 O25 2.240 . S
Cd16 O17 2.240 . S
Cd16 O24 2.223 1_565 S
Cd16 O26 2.297 1_565 S
Cd16 O27 2.439 . S
O17 Cd16 2.240 . S
O17 C22 1.279 . S
O18 Cd15 2.297 . S
O18 C20 1.247 . S
O19 Cd15 2.439 . S
O19 C20 1.208 . S
C20 O18 1.247 . S
C20 O19 1.208 . S
C21 O26 1.247 1_565 S
C21 O27 1.208 . S
C22 O14 1.315 . S
C22 O17 1.279 . S
C23 O24 1.315 1_565 S
C23 O25 1.279 . S
O24 Cd16 2.223 1_545 S
O24 C23 1.315 1_545 S
O25 Cd15 2.240 . S
O25 C23 1.279 . S
O26 Cd16 2.297 1_545 S
O26 C21 1.247 1_545 S
O27 Cd16 2.439 . S
O27 C21 1.208 . S
O28 Cd29 2.223 . S
O28 C36 1.315 . S
Cd29 O28 2.223 . S
Cd29 O32 2.297 . S
Cd29 O33 2.439 . S
Cd29 O39 2.240 . S
Cd30 O31 2.240 . S
Cd30 O38 2.223 . S
Cd30 O40 2.297 . S
Cd30 O41 2.439 . S
O31 Cd30 2.240 . S
O31 C36 1.279 . S
O32 Cd29 2.297 . S
O32 C34 1.247 . S
O33 Cd29 2.439 . S
O33 C34 1.208 . S
C34 O32 1.247 . S
C34 O33 1.208 . S
C35 O40 1.247 . S
C35 O41 1.208 . S
C36 O28 1.315 . S
C36 O31 1.279 . S
C37 O38 1.315 . S
C37 O39 1.279 . S
O38 Cd30 2.223 . S
O38 C37 1.315 . S
O39 Cd29 2.240 . S
O39 C37 1.279 . S
O40 Cd30 2.297 . S
O40 C35 1.247 . S
O41 Cd30 2.439 . S
O41 C35 1.208 . S
O42 Cd43 2.223 . S
O42 C50 1.315 . S
Cd43 O42 2.223 . S
Cd43 O46 2.297 . S
Cd43 O47 2.439 . S
Cd43 O53 2.240 . S
Cd44 O45 2.240 . S
Cd44 O52 2.223 1_545 S
Cd44 O54 2.297 1_545 S
Cd44 O55 2.439 . S
O45 Cd44 2.240 . S
O45 C50 1.279 . S
O46 Cd43 2.297 . S
O46 C48 1.247 . S
O47 Cd43 2.439 . S
O47 C48 1.208 . S
C48 O46 1.247 . S
C48 O47 1.208 . S
C49 O54 1.247 1_545 S
C49 O55 1.208 . S
C50 O42 1.315 . S
C50 O45 1.279 . S
C51 O52 1.315 1_545 S
C51 O53 1.279 . S
O52 Cd44 2.223 1_565 S
O52 C51 1.315 1_565 S
O53 Cd43 2.240 . S
O53 C51 1.279 . S
O54 Cd44 2.297 1_565 S
O54 C49 1.247 1_565 S
O55 Cd44 2.439 . S
O55 C49 1.208 . S
O56 Cd57 2.223 . S
O56 C64 1.315 . S
Cd57 O56 2.223 . S
Cd57 O60 2.297 . S
Cd57 O61 2.439 . S
Cd57 O67 2.240 . S
Cd58 O59 2.240 . S
Cd58 O66 2.223 . S
Cd58 O68 2.297 . S
Cd58 O69 2.439 . S
O59 Cd58 2.240 . S
O59 C64 1.279 . S
O60 Cd57 2.297 . S
O60 C62 1.247 . S
O61 Cd57 2.439 . S
O61 C62 1.208 . S
C62 O60 1.247 . S
C62 O61 1.208 . S
C63 O68 1.247 . S
C63 O69 1.208 . S
C64 O56 1.315 . S
C64 O59 1.279 . S
C65 O66 1.315 . S
C65 O67 1.279 . S
O66 Cd58 2.223 . S
O66 C65 1.315 . S
O67 Cd57 2.240 . S
O67 C65 1.279 . S
O68 Cd58 2.297 . S
O68 C63 1.247 . S
O69 Cd58 2.439 . S
O69 C63 1.208 . S
O70 Cd71 2.223 . S
O70 C78 1.315 . S
Cd71 O70 2.223 . S
Cd71 O74 2.297 . S
Cd71 O75 2.439 . S
Cd71 O81 2.240 . S
Cd72 O73 2.240 . S
Cd72 O80 2.223 1_545 S
Cd72 O82 2.297 1_545 S
Cd72 O83 2.439 . S
O73 Cd72 2.240 . S
O73 C78 1.279 . S
O74 Cd71 2.297 . S
O74 C76 1.247 . S
O75 Cd71 2.439 . S
O75 C76 1.208 . S
C76 O74 1.247 . S
C76 O75 1.208 . S
C77 O82 1.247 1_545 S
C77 O83 1.208 . S
C78 O70 1.315 . S
C78 O73 1.279 . S
C79 O80 1.315 1_545 S
C79 O81 1.279 . S
O80 Cd72 2.223 1_565 S
O80 C79 1.315 1_565 S
O81 Cd71 2.240 . S
O81 C79 1.279 . S
O82 Cd72 2.297 1_565 S
O82 C77 1.247 1_565 S
O83 Cd72 2.439 . S
O83 C77 1.208 . S
O84 Cd85 2.223 . S
O84 C92 1.315 . S
Cd85 O84 2.223 . S
Cd85 O88 2.297 . S
Cd85 O89 2.439 . S
Cd85 O95 2.240 . S
Cd86 O87 2.240 . S
Cd86 O94 2.223 . S
Cd86 O96 2.297 . S
Cd86 O97 2.439 . S
O87 Cd86 2.240 . S
O87 C92 1.279 . S
O88 Cd85 2.297 . S
O88 C90 1.247 . S
O89 Cd85 2.439 . S
O89 C90 1.208 . S
C90 O88 1.247 . S
C90 O89 1.208 . S
C91 O96 1.247 . S
C91 O97 1.208 . S
C92 O84 1.315 . S
C92 O87 1.279 . S
C93 O94 1.315 . S
C93 O95 1.279 . S
O94 Cd86 2.223 . S
O94 C93 1.315 . S
O95 Cd85 2.240 . S
O95 C93 1.279 . S
O96 Cd86 2.297 . S
O96 C91 1.247 . S
O97 Cd86 2.439 . S
O97 C91 1.208 . S
O98 Cd99 2.223 . S
O98 C106 1.315 . S
Cd99 O98 2.223 . S
Cd99 O102 2.297 . S
Cd99 O103 2.439 . S
Cd99 O109 2.240 . S
Cd100 O101 2.240 . S
Cd100 O108 2.223 1_565 S
Cd100 O110 2.297 1_565 S
Cd100 O111 2.439 . S
O101 Cd100 2.240 . S
O101 C106 1.279 . S
O102 Cd99 2.297 . S
O102 C104 1.247 . S
O103 Cd99 2.439 . S
O103 C104 1.208 . S
C104 O102 1.247 . S
C104 O103 1.208 . S
C105 O110 1.247 1_565 S
C105 O111 1.208 . S
C106 O98 1.315 . S
C106 O101 1.279 . S
C107 O108 1.315 1_565 S
C107 O109 1.279 . S
O108 Cd100 2.223 1_545 S
O108 C107 1.315 1_545 S
O109 Cd99 2.240 . S
O109 C107 1.279 . S
O110 Cd100 2.297 1_545 S
O110 C105 1.247 1_545 S
O111 Cd100 2.439 . S
O111 C105 1.208 . S
C112 C113 1.387 . S
C112 H116 0.950 . S
C112 C121 1.390 . S
C113 C112 1.387 . S
C113 C115 1.387 . S
H114 C121 0.950 . S
C115 C113 1.387 . S
C115 C117 1.390 . S
C115 H119 0.950 . S
H116 C112 0.950 . S
C117 C115 1.390 . S
C117 C118 1.387 . S
C117 H120 0.950 . S
C118 C117 1.387 . S
C118 C121 1.387 . S
H119 C115 0.950 . S
H120 C117 0.950 . S
C121 C112 1.390 . S
C121 H114 0.950 . S
C121 C118 1.387 . S
C122 C123 1.387 1_565 S
C122 H126 0.950 . S
C122 C131 1.390 . S
C123 C122 1.387 1_545 S
C123 C125 1.387 . S
H124 C131 0.950 . S
C125 C123 1.387 . S
C125 C127 1.390 . S
C125 H129 0.950 . S
H126 C122 0.950 . S
C127 C125 1.390 . S
C127 C128 1.387 1_545 S
C127 H130 0.950 . S
C128 C127 1.387 1_565 S
C128 C131 1.387 . S
H129 C125 0.950 . S
H130 C127 0.950 . S
C131 C122 1.390 . S
C131 H124 0.950 . S
C131 C128 1.387 . S
C132 C133 1.387 . S
C132 H136 0.950 . S
C132 C141 1.390 . S
C133 C132 1.387 . S
C133 C135 1.387 . S
H134 C141 0.950 . S
C135 C133 1.387 . S
C135 C137 1.390 . S
C135 H139 0.950 . S
H136 C132 0.950 . S
C137 C135 1.390 . S
C137 C138 1.387 . S
C137 H140 0.950 . S
C138 C137 1.387 . S
C138 C141 1.387 . S
H139 C135 0.950 . S
H140 C137 0.950 . S
C141 C132 1.390 . S
C141 H134 0.950 . S
C141 C138 1.387 . S
C142 C143 1.387 . S
C142 H146 0.950 . S
C142 C151 1.390 . S
C143 C142 1.387 . S
C143 C145 1.387 1_545 S
H144 C151 0.950 . S
C145 C143 1.387 1_565 S
C145 C147 1.390 . S
C145 H149 0.950 . S
H146 C142 0.950 . S
C147 C145 1.390 . S
C147 C148 1.387 . S
C147 H150 0.950 . S
C148 C147 1.387 . S
C148 C151 1.387 1_565 S
H149 C145 0.950 . S
H150 C147 0.950 . S
C151 C142 1.390 . S
C151 H144 0.950 . S
C151 C148 1.387 1_545 S
C152 C153 1.387 . S
C152 H156 0.950 . S
C152 C161 1.390 . S
C153 C152 1.387 . S
C153 C155 1.387 . S
H154 C161 0.950 . S
C155 C153 1.387 . S
C155 C157 1.390 . S
C155 H159 0.950 . S
H156 C152 0.950 . S
C157 C155 1.390 . S
C157 C158 1.387 . S
C157 H160 0.950 . S
C158 C157 1.387 . S
C158 C161 1.387 . S
H159 C155 0.950 . S
H160 C157 0.950 . S
C161 C152 1.390 . S
C161 H154 0.950 . S
C161 C158 1.387 . S
C162 C163 1.387 1_565 S
C162 H166 0.950 . S
C162 C171 1.390 . S
C163 C162 1.387 1_545 S
C163 C165 1.387 . S
H164 C171 0.950 . S
C165 C163 1.387 . S
C165 C167 1.390 . S
C165 H169 0.950 . S
H166 C162 0.950 . S
C167 C165 1.390 . S
C167 C168 1.387 1_545 S
C167 H170 0.950 . S
C168 C167 1.387 1_565 S
C168 C171 1.387 . S
H169 C165 0.950 . S
H170 C167 0.950 . S
C171 C162 1.390 . S
C171 H164 0.950 . S
C171 C168 1.387 . S
C172 C173 1.387 . S
C172 H176 0.950 . S
C172 C181 1.390 . S
C173 C172 1.387 . S
C173 C175 1.387 . S
H174 C181 0.950 . S
C175 C173 1.387 . S
C175 C177 1.390 . S
C175 H179 0.950 . S
H176 C172 0.950 . S
C177 C175 1.390 . S
C177 C178 1.387 . S
C177 H180 0.950 . S
C178 C177 1.387 . S
C178 C181 1.387 . S
H179 C175 0.950 . S
H180 C177 0.950 . S
C181 C172 1.390 . S
C181 H174 0.950 . S
C181 C178 1.387 . S
C182 C183 1.387 . S
C182 H186 0.950 . S
C182 C191 1.390 . S
C183 C182 1.387 . S
C183 C185 1.387 1_565 S
H184 C191 0.950 . S
C185 C183 1.387 1_545 S
C185 C187 1.390 . S
C185 H189 0.950 . S
H186 C182 0.950 . S
C187 C185 1.390 . S
C187 C188 1.387 . S
C187 H190 0.950 . S
C188 C187 1.387 . S
C188 C191 1.387 1_545 S
H189 C185 0.950 . S
H190 C187 0.950 . S
C191 C182 1.390 . S
C191 H184 0.950 . S
C191 C188 1.387 1_565 S
C192 C193 1.387 . S
C192 H196 0.950 . S
C192 C201 1.390 . S
C193 C192 1.387 . S
C193 C195 1.387 1_455 S
H194 C201 0.950 . S
C195 C193 1.387 1_655 S
C195 C197 1.390 . S
C195 H199 0.950 . S
H196 C192 0.950 . S
C197 C195 1.390 . S
C197 C198 1.387 . S
C197 H200 0.950 . S
C198 C197 1.387 . S
C198 C201 1.387 1_655 S
H199 C195 0.950 . S
H200 C197 0.950 . S
C201 C192 1.390 . S
C201 H194 0.950 . S
C201 C198 1.387 1_455 S
C202 C203 1.387 . S
C202 H206 0.950 . S
C202 C211 1.390 . S
C203 C202 1.387 . S
C203 C205 1.387 1_565 S
H204 C211 0.950 . S
C205 C203 1.387 1_545 S
C205 C207 1.390 . S
C205 H209 0.950 . S
H206 C202 0.950 . S
C207 C205 1.390 . S
C207 C208 1.387 . S
C207 H210 0.950 . S
C208 C207 1.387 . S
C208 C211 1.387 1_545 S
H209 C205 0.950 . S
H210 C207 0.950 . S
C211 C202 1.390 . S
C211 H204 0.950 . S
C211 C208 1.387 1_565 S
C212 C213 1.387 . S
C212 H216 0.950 . S
C212 C221 1.390 1_554 S
C213 C212 1.387 . S
C213 C215 1.387 . S
H214 C221 0.950 . S
C215 C213 1.387 . S
C215 C217 1.390 1_554 S
C215 H219 0.950 . S
H216 C212 0.950 . S
C217 C215 1.390 1_556 S
C217 C218 1.387 . S
C217 H220 0.950 . S
C218 C217 1.387 . S
C218 C221 1.387 . S
H219 C215 0.950 . S
H220 C217 0.950 . S
C221 C212 1.390 1_556 S
C221 H214 0.950 . S
C221 C218 1.387 . S
C222 C223 1.387 1_655 S
C222 H226 0.950 . S
C222 C231 1.390 1_556 S
C223 C222 1.387 1_455 S
C223 C225 1.387 1_565 S
H224 C231 0.950 . S
C225 C223 1.387 1_545 S
C225 C227 1.390 1_556 S
C225 H229 0.950 . S
H226 C222 0.950 . S
C227 C225 1.390 1_554 S
C227 C228 1.387 1_455 S
C227 H230 0.950 . S
C228 C227 1.387 1_655 S
C228 C231 1.387 1_545 S
H229 C225 0.950 . S
H230 C227 0.950 . S
C231 C222 1.390 1_554 S
C231 H224 0.950 . S
C231 C228 1.387 1_565 S
C232 C233 1.387 . S
C232 H236 0.950 . S
C232 C241 1.390 . S
C233 C232 1.387 . S
C233 C235 1.387 . S
H234 C241 0.950 . S
C235 C233 1.387 . S
C235 C237 1.390 . S
C235 H239 0.950 . S
H236 C232 0.950 . S
C237 C235 1.390 . S
C237 C238 1.387 . S
C237 H240 0.950 . S
C238 C237 1.387 . S
C238 C241 1.387 . S
H239 C235 0.950 . S
H240 C237 0.950 . S
C241 C232 1.390 . S
C241 H234 0.950 . S
C241 C238 1.387 . S
C242 C243 1.387 . S
C242 H246 0.950 . S
C242 C251 1.390 . S
C243 C242 1.387 . S
C243 C245 1.387 . S
H244 C251 0.950 . S
C245 C243 1.387 . S
C245 C247 1.390 . S
C245 H249 0.950 . S
H246 C242 0.950 . S
C247 C245 1.390 . S
C247 C248 1.387 . S
C247 H250 0.950 . S
C248 C247 1.387 . S
C248 C251 1.387 . S
H249 C245 0.950 . S
H250 C247 0.950 . S
C251 C242 1.390 . S
C251 H244 0.950 . S
C251 C248 1.387 . S
C252 C253 1.387 . S
C252 H256 0.950 . S
C252 C261 1.390 . S
C253 C252 1.387 . S
C253 C255 1.387 . S
H254 C261 0.950 . S
C255 C253 1.387 . S
C255 C257 1.390 . S
C255 H259 0.950 . S
H256 C252 0.950 . S
C257 C255 1.390 . S
C257 C258 1.387 . S
C257 H260 0.950 . S
C258 C257 1.387 . S
C258 C261 1.387 . S
H259 C255 0.950 . S
H260 C257 0.950 . S
C261 C252 1.390 . S
C261 H254 0.950 . S
C261 C258 1.387 . S
C262 C263 1.387 . S
C262 H266 0.950 . S
C262 C271 1.390 . S
C263 C262 1.387 . S
C263 C265 1.387 . S
H264 C271 0.950 . S
C265 C263 1.387 . S
C265 C267 1.390 . S
C265 H269 0.950 . S
H266 C262 0.950 . S
C267 C265 1.390 . S
C267 C268 1.387 . S
C267 H270 0.950 . S
C268 C267 1.387 . S
C268 C271 1.387 . S
H269 C265 0.950 . S
H270 C267 0.950 . S
C271 C262 1.390 . S
C271 H264 0.950 . S
C271 C268 1.387 . S
C113 C8 1.653 . S
C118 C37 1.657 . S
C123 C51 1.658 1_455 S
C128 C22 1.653 . S
C133 C36 1.652 . S
C138 C9 1.658 1_655 S
C143 C50 1.652 . S
C148 C23 1.658 . S
C153 C93 1.658 . S
C158 C64 1.653 . S
C163 C78 1.652 . S
C168 C107 1.658 1_655 S
C173 C92 1.653 . S
C178 C65 1.658 1_455 S
C183 C106 1.652 . S
C188 C79 1.657 . S
C193 C7 1.486 . S
C198 C63 1.486 . S
C203 C21 1.485 . S
C208 C77 1.485 . S
C213 C35 1.486 . S
C218 C91 1.486 . S
C223 C105 1.488 . S
C228 C49 1.488 . S
C233 C6 1.491 . S
C238 C20 1.491 . S
C243 C48 1.493 . S
C248 C34 1.493 . S
C253 C76 1.491 . S
C258 C62 1.491 . S
C263 C90 1.491 . S
C268 C104 1.491 . S
