# Generated by pormake.
# Topology afi, (4)-cn, num edge types: 1
# Building blocks:
#     Node 0, Type 0, BuildingBlock: NAHDIM_clean_sbu_0, # of connection points: 4
#     Node 1, Type 0, BuildingBlock: NAHDIM_clean_sbu_0, # of connection points: 4
#     Node 2, Type 0, BuildingBlock: NAHDIM_clean_sbu_0, # of connection points: 4
#     Node 3, Type 0, BuildingBlock: NAHDIM_clean_sbu_0, # of connection points: 4
#     Node 4, Type 0, BuildingBlock: NAHDIM_clean_sbu_0, # of connection points: 4
#     Node 5, Type 0, BuildingBlock: NAHDIM_clean_sbu_0, # of connection points: 4
#     Node 6, Type 0, BuildingBlock: NAHDIM_clean_sbu_0, # of connection points: 4
#     Node 7, Type 0, BuildingBlock: NAHDIM_clean_sbu_0, # of connection points: 4
#     Node 8, Type 0, BuildingBlock: NAHDIM_clean_sbu_0, # of connection points: 4
#     Node 9, Type 0, BuildingBlock: NAHDIM_clean_sbu_0, # of connection points: 4
#     Node 10, Type 0, BuildingBlock: NAHDIM_clean_sbu_0, # of connection points: 4
#     Node 11, Type 0, BuildingBlock: NAHDIM_clean_sbu_0, # of connection points: 4
#     Node 12, Type 0, BuildingBlock: NAHDIM_clean_sbu_0, # of connection points: 4
#     Node 13, Type 0, BuildingBlock: NAHDIM_clean_sbu_0, # of connection points: 4
#     Node 14, Type 0, BuildingBlock: NAHDIM_clean_sbu_0, # of connection points: 4
#     Node 15, Type 0, BuildingBlock: NAHDIM_clean_sbu_0, # of connection points: 4
#     Node 16, Type 0, BuildingBlock: NAHDIM_clean_sbu_0, # of connection points: 4
#     Node 17, Type 0, BuildingBlock: NAHDIM_clean_sbu_0, # of connection points: 4
#     Node 18, Type 0, BuildingBlock: NAHDIM_clean_sbu_0, # of connection points: 4
#     Node 19, Type 0, BuildingBlock: NAHDIM_clean_sbu_0, # of connection points: 4
#     Node 20, Type 0, BuildingBlock: NAHDIM_clean_sbu_0, # of connection points: 4
#     Node 21, Type 0, BuildingBlock: NAHDIM_clean_sbu_0, # of connection points: 4
#     Node 22, Type 0, BuildingBlock: NAHDIM_clean_sbu_0, # of connection points: 4
#     Node 23, Type 0, BuildingBlock: NAHDIM_clean_sbu_0, # of connection points: 4
#     Edge 24, Type (0, 0), BuildingBlock: TEMPAE_clean_linker_10, # of connection points: 2
#     Edge 25, Type (0, 0), BuildingBlock: TEMPAE_clean_linker_10, # of connection points: 2
#     Edge 26, Type (0, 0), BuildingBlock: TEMPAE_clean_linker_10, # of connection points: 2
#     Edge 27, Type (0, 0), BuildingBlock: TEMPAE_clean_linker_10, # of connection points: 2
#     Edge 28, Type (0, 0), BuildingBlock: TEMPAE_clean_linker_10, # of connection points: 2
#     Edge 29, Type (0, 0), BuildingBlock: TEMPAE_clean_linker_10, # of connection points: 2
#     Edge 30, Type (0, 0), BuildingBlock: TEMPAE_clean_linker_10, # of connection points: 2
#     Edge 31, Type (0, 0), BuildingBlock: TEMPAE_clean_linker_10, # of connection points: 2
#     Edge 32, Type (0, 0), BuildingBlock: TEMPAE_clean_linker_10, # of connection points: 2
#     Edge 33, Type (0, 0), BuildingBlock: TEMPAE_clean_linker_10, # of connection points: 2
#     Edge 34, Type (0, 0), BuildingBlock: TEMPAE_clean_linker_10, # of connection points: 2
#     Edge 35, Type (0, 0), BuildingBlock: TEMPAE_clean_linker_10, # of connection points: 2
#     Edge 36, Type (0, 0), BuildingBlock: TEMPAE_clean_linker_10, # of connection points: 2
#     Edge 37, Type (0, 0), BuildingBlock: TEMPAE_clean_linker_10, # of connection points: 2
#     Edge 38, Type (0, 0), BuildingBlock: TEMPAE_clean_linker_10, # of connection points: 2
#     Edge 39, Type (0, 0), BuildingBlock: TEMPAE_clean_linker_10, # of connection points: 2
#     Edge 40, Type (0, 0), BuildingBlock: TEMPAE_clean_linker_10, # of connection points: 2
#     Edge 41, Type (0, 0), BuildingBlock: TEMPAE_clean_linker_10, # of connection points: 2
#     Edge 42, Type (0, 0), BuildingBlock: TEMPAE_clean_linker_10, # of connection points: 2
#     Edge 43, Type (0, 0), BuildingBlock: TEMPAE_clean_linker_10, # of connection points: 2
#     Edge 44, Type (0, 0), BuildingBlock: TEMPAE_clean_linker_10, # of connection points: 2
#     Edge 45, Type (0, 0), BuildingBlock: TEMPAE_clean_linker_10, # of connection points: 2
#     Edge 46, Type (0, 0), BuildingBlock: TEMPAE_clean_linker_10, # of connection points: 2
#     Edge 47, Type (0, 0), BuildingBlock: TEMPAE_clean_linker_10, # of connection points: 2
#     Edge 48, Type (0, 0), BuildingBlock: TEMPAE_clean_linker_10, # of connection points: 2
#     Edge 49, Type (0, 0), BuildingBlock: TEMPAE_clean_linker_10, # of connection points: 2
#     Edge 50, Type (0, 0), BuildingBlock: TEMPAE_clean_linker_10, # of connection points: 2
#     Edge 51, Type (0, 0), BuildingBlock: TEMPAE_clean_linker_10, # of connection points: 2
#     Edge 52, Type (0, 0), BuildingBlock: TEMPAE_clean_linker_10, # of connection points: 2
#     Edge 53, Type (0, 0), BuildingBlock: TEMPAE_clean_linker_10, # of connection points: 2
#     Edge 54, Type (0, 0), BuildingBlock: TEMPAE_clean_linker_10, # of connection points: 2
#     Edge 55, Type (0, 0), BuildingBlock: TEMPAE_clean_linker_10, # of connection points: 2
#     Edge 56, Type (0, 0), BuildingBlock: TEMPAE_clean_linker_10, # of connection points: 2
#     Edge 57, Type (0, 0), BuildingBlock: TEMPAE_clean_linker_10, # of connection points: 2
#     Edge 58, Type (0, 0), BuildingBlock: TEMPAE_clean_linker_10, # of connection points: 2
#     Edge 59, Type (0, 0), BuildingBlock: TEMPAE_clean_linker_10, # of connection points: 2
#     Edge 60, Type (0, 0), BuildingBlock: TEMPAE_clean_linker_10, # of connection points: 2
#     Edge 61, Type (0, 0), BuildingBlock: TEMPAE_clean_linker_10, # of connection points: 2
#     Edge 62, Type (0, 0), BuildingBlock: TEMPAE_clean_linker_10, # of connection points: 2
#     Edge 63, Type (0, 0), BuildingBlock: TEMPAE_clean_linker_10, # of connection points: 2
#     Edge 64, Type (0, 0), BuildingBlock: TEMPAE_clean_linker_10, # of connection points: 2
#     Edge 65, Type (0, 0), BuildingBlock: TEMPAE_clean_linker_10, # of connection points: 2
#     Edge 66, Type (0, 0), BuildingBlock: TEMPAE_clean_linker_10, # of connection points: 2
#     Edge 67, Type (0, 0), BuildingBlock: TEMPAE_clean_linker_10, # of connection points: 2
#     Edge 68, Type (0, 0), BuildingBlock: TEMPAE_clean_linker_10, # of connection points: 2
#     Edge 69, Type (0, 0), BuildingBlock: TEMPAE_clean_linker_10, # of connection points: 2
#     Edge 70, Type (0, 0), BuildingBlock: TEMPAE_clean_linker_10, # of connection points: 2
#     Edge 71, Type (0, 0), BuildingBlock: TEMPAE_clean_linker_10, # of connection points: 2
# Relax obj value: 0.071
# Max RMSD: 0.083
# Mean RMSD: 0.083
data_MOF--net-afi--node1-NAHDIM_clean_sbu_0--edge1-TEMPAE_clean_linker_10
_symmetry_space_group_name_H-M    P1
_symmetry_Int_Tables_number       1
_symmetry_cell_setting            triclinic
loop_
_symmetry_equiv_pos_as_xyz
'x, y, z'
_cell_length_a     69.215891
_cell_length_b     69.240711
_cell_length_c     39.742198
_cell_angle_alpha  90.033545
_cell_angle_beta   90.009073
_cell_angle_gamma 119.98071
loop_
_atom_site_label
_atom_site_type_symbol
_atom_site_fract_x
_atom_site_fract_y
_atom_site_fract_z
_atom_type_partial_charge
C0 C 0.45498 0.16141 0.22037 0.0
O1 O 0.4669 0.16438 0.19312 0.0
O2 O 0.47742 0.11986 0.23127 0.0
Zn3 Zn 0.4493 0.1181 0.21392 0.0
O4 O 0.45056 0.12086 0.16374 0.0
C5 C 0.42394 0.07662 0.24911 0.0
O6 O 0.44121 0.08552 0.26946 0.0
O7 O 0.44538 0.14238 0.23435 0.0
C8 C 0.44902 0.10479 0.14626 0.0
O9 O 0.44746 0.08728 0.16168 0.0
C10 C 0.49658 0.13321 0.21935 0.0
O11 O 0.49837 0.14662 0.19466 0.0
O12 O 0.42332 0.08803 0.22458 0.0
C13 C 0.29747 0.45652 0.20927 0.0
O14 O 0.31506 0.46892 0.22797 0.0
O15 O 0.35403 0.48021 0.1882 0.0
Zn16 Zn 0.32936 0.4513 0.16991 0.0
O17 O 0.33154 0.45173 0.11964 0.0
C18 C 0.3418 0.42812 0.21691 0.0
O19 O 0.34648 0.44554 0.23569 0.0
O20 O 0.29959 0.44704 0.1833 0.0
C21 C 0.32455 0.43365 0.10334 0.0
O22 O 0.31567 0.4147 0.11985 0.0
C23 C 0.37411 0.48567 0.18191 0.0
O24 O 0.37808 0.47274 0.16235 0.0
O25 O 0.33343 0.4265 0.1879 0.0
C26 C 0.83257 0.29538 0.2106 0.0
O27 O 0.82925 0.30458 0.18398 0.0
O28 O 0.86944 0.35849 0.21938 0.0
Zn29 Zn 0.87474 0.33387 0.20406 0.0
O30 O 0.87236 0.33085 0.15386 0.0
C31 C 0.91526 0.33122 0.20845 0.0
O32 O 0.9044 0.31355 0.18919 0.0
O33 O 0.85164 0.30502 0.22455 0.0
C34 C 0.88823 0.34332 0.13427 0.0
O35 O 0.90701 0.35917 0.14707 0.0
C36 C 0.85656 0.36377 0.20428 0.0
O37 O 0.846 0.3528 0.17706 0.0
O38 O 0.90555 0.34168 0.21825 0.0
C39 C 0.5354 0.82751 0.21801 0.0
O40 O 0.5231 0.8249 0.19135 0.0
O41 O 0.51457 0.86895 0.22372 0.0
Zn42 Zn 0.54368 0.87145 0.20983 0.0
O43 O 0.54451 0.86923 0.15968 0.0
C44 C 0.56648 0.91076 0.25002 0.0
O45 O 0.54867 0.89973 0.26891 0.0
O46 O 0.54649 0.84676 0.23111 0.0
C47 C 0.54664 0.88527 0.14156 0.0
O48 O 0.54832 0.90307 0.15622 0.0
C49 C 0.49666 0.85817 0.20694 0.0
O50 O 0.49678 0.84792 0.17918 0.0
O51 O 0.56857 0.90146 0.22383 0.0
C52 C 0.70565 0.55666 0.18955 0.0
O53 O 0.70598 0.57289 0.17196 0.0
O54 O 0.63368 0.50588 0.19329 0.0
Zn55 Zn 0.65833 0.53639 0.18014 0.0
O56 O 0.66035 0.54021 0.12983 0.0
C57 C 0.63234 0.55442 0.20521 0.0
O58 O 0.61663 0.5357 0.19207 0.0
O59 O 0.68703 0.5396 0.19654 0.0
C60 C 0.65264 0.55064 0.11347 0.0
O61 O 0.64236 0.55944 0.12965 0.0
C62 C 0.61741 0.49327 0.17434 0.0
O63 O 0.6168 0.49966 0.14343 0.0
O64 O 0.65253 0.55909 0.20276 0.0
C65 C 0.15742 0.68825 0.1905 0.0
O66 O 0.1607 0.67458 0.17157 0.0
O67 O 0.11517 0.62986 0.19097 0.0
Zn68 Zn 0.11243 0.65616 0.17653 0.0
O69 O 0.11323 0.65864 0.12613 0.0
C70 C 0.06569 0.64098 0.17684 0.0
O71 O 0.067 0.63408 0.14657 0.0
O72 O 0.13759 0.68375 0.19652 0.0
C73 C 0.12161 0.67746 0.1116 0.0
O74 O 0.13013 0.6957 0.12988 0.0
C75 C 0.10505 0.61131 0.17559 0.0
O76 O 0.09315 0.60953 0.14879 0.0
O77 O 0.08336 0.65162 0.19419 0.0
C78 C 0.84246 0.5504 0.25638 0.0
O79 O 0.85241 0.5439 0.23472 0.0
O80 O 0.86551 0.51633 0.28106 0.0
Zn81 Zn 0.87137 0.54523 0.30156 0.0
O82 O 0.87187 0.54307 0.35171 0.0
C83 C 0.91713 0.56469 0.2911 0.0
O84 O 0.91276 0.54664 0.30801 0.0
O85 O 0.84801 0.55237 0.28718 0.0
C86 C 0.87658 0.55995 0.36987 0.0
O87 O 0.88073 0.57867 0.3553 0.0
C88 C 0.85078 0.49731 0.29174 0.0
O89 O 0.83802 0.49609 0.31706 0.0
O90 O 0.90139 0.56863 0.28539 0.0
C91 C 0.28807 0.82709 0.28528 0.0
O92 O 0.29627 0.82632 0.31473 0.0
O93 O 0.35204 0.87012 0.27293 0.0
Zn94 Zn 0.32487 0.87126 0.28768 0.0
O95 O 0.32331 0.87073 0.33797 0.0
C96 C 0.33969 0.91076 0.24783 0.0
O97 O 0.34837 0.90133 0.22921 0.0
O98 O 0.29748 0.84513 0.26856 0.0
C99 C 0.33711 0.88784 0.35442 0.0
O100 O 0.35243 0.90526 0.33801 0.0
C101 C 0.35727 0.85652 0.28559 0.0
O102 O 0.34459 0.84271 0.30917 0.0
O103 O 0.3278 0.90026 0.27301 0.0
C104 C 0.45216 0.29541 0.31153 0.0
O105 O 0.46855 0.30936 0.33106 0.0
O106 O 0.47328 0.35389 0.28811 0.0
Zn107 Zn 0.44507 0.33188 0.31142 0.0
O108 O 0.44955 0.33664 0.36111 0.0
C109 C 0.41968 0.34283 0.26676 0.0
O110 O 0.43473 0.34423 0.24522 0.0
O111 O 0.43876 0.30121 0.29977 0.0
C112 C 0.43293 0.32883 0.38086 0.0
O113 O 0.41271 0.31757 0.36824 0.0
C114 C 0.47951 0.37452 0.28902 0.0
O115 O 0.46741 0.38106 0.30574 0.0
O116 O 0.4202 0.33689 0.29681 0.0
C117 C 0.15263 0.45242 0.25735 0.0
O118 O 0.14724 0.46501 0.23953 0.0
O119 O 0.11603 0.47181 0.27482 0.0
Zn120 Zn 0.11433 0.44467 0.29618 0.0
O121 O 0.11469 0.44816 0.34639 0.0
C122 C 0.07922 0.41572 0.25164 0.0
O123 O 0.09212 0.43072 0.22947 0.0
O124 O 0.14066 0.44179 0.28243 0.0
C125 C 0.09681 0.43966 0.36355 0.0
O126 O 0.07755 0.42803 0.34816 0.0
C127 C 0.10023 0.47593 0.27865 0.0
O128 O 0.08292 0.46237 0.297 0.0
O129 O 0.08576 0.41776 0.28196 0.0
C130 C 0.70027 0.15979 0.30816 0.0
O131 O 0.68926 0.16253 0.33288 0.0
O132 O 0.63827 0.11929 0.29698 0.0
Zn133 Zn 0.66391 0.11605 0.31398 0.0
O134 O 0.66513 0.11774 0.36426 0.0
C135 C 0.64805 0.07658 0.274 0.0
O136 O 0.64152 0.08747 0.25432 0.0
O137 O 0.69259 0.14054 0.29524 0.0
C138 C 0.65008 0.10203 0.3816 0.0
O139 O 0.63365 0.08496 0.36608 0.0
C140 C 0.63082 0.13034 0.31224 0.0
O141 O 0.64014 0.1404 0.34065 0.0
O142 O 0.65893 0.08599 0.30054 0.0
C143 C 0.5312 0.69105 0.31437 0.0
O144 O 0.5149 0.67797 0.33473 0.0
O145 O 0.51134 0.63129 0.29638 0.0
Zn146 Zn 0.53909 0.65491 0.31891 0.0
O147 O 0.5351 0.65234 0.36897 0.0
C148 C 0.57022 0.6388 0.32217 0.0
O149 O 0.56051 0.63095 0.35132 0.0
O150 O 0.54452 0.68476 0.30397 0.0
C151 C 0.55093 0.66536 0.38825 0.0
O152 O 0.56987 0.68054 0.37494 0.0
C153 C 0.50204 0.61128 0.30672 0.0
O154 O 0.51044 0.60648 0.33293 0.0
O155 O 0.5643 0.65027 0.30454 0.0
C156 C 0.52264 0.83063 0.7918 0.0
O157 O 0.50242 0.82766 0.78905 0.0
O158 O 0.50237 0.86702 0.80251 0.0
Zn159 Zn 0.53135 0.87195 0.82168 0.0
O160 O 0.53008 0.87114 0.87203 0.0
C161 C 0.55983 0.9195 0.82241 0.0
O162 O 0.54986 0.91751 0.85137 0.0
O163 O 0.53789 0.84848 0.80503 0.0
C164 C 0.54756 0.87572 0.88856 0.0
O165 O 0.5659 0.88052 0.87213 0.0
C166 C 0.49311 0.87753 0.81392 0.0
O167 O 0.50218 0.89103 0.83965 0.0
O168 O 0.55516 0.90205 0.8057 0.0
C169 C 0.7032 0.54423 0.80081 0.0
O170 O 0.694 0.5345 0.82943 0.0
O171 O 0.63985 0.5159 0.77404 0.0
Zn172 Zn 0.66255 0.5454 0.79355 0.0
O173 O 0.65856 0.54443 0.84353 0.0
C174 C 0.639 0.56481 0.76311 0.0
O175 O 0.62311 0.54381 0.76275 0.0
O176 O 0.69296 0.55083 0.78168 0.0
C177 C 0.67057 0.56153 0.86137 0.0
O178 O 0.68577 0.57986 0.84664 0.0
C179 C 0.63627 0.49746 0.78632 0.0
O180 O 0.648 0.49756 0.81236 0.0
O181 O 0.65798 0.56982 0.77497 0.0
C182 C 0.16353 0.70028 0.77099 0.0
O183 O 0.16937 0.68803 0.78879 0.0
O184 O 0.12792 0.64188 0.77725 0.0
Zn185 Zn 0.12191 0.66609 0.79233 0.0
O186 O 0.12632 0.67083 0.84218 0.0
C187 C 0.07483 0.64137 0.79758 0.0
O188 O 0.08007 0.63328 0.8237 0.0
O189 O 0.14299 0.69423 0.76857 0.0
C190 C 0.1173 0.68002 0.85851 0.0
O191 O 0.10525 0.68684 0.84231 0.0
C192 C 0.13046 0.62909 0.7974 0.0
O193 O 0.12956 0.63178 0.82997 0.0
O194 O 0.09035 0.65648 0.78003 0.0
C195 C 0.44774 0.15047 0.78612 0.0
O196 O 0.45621 0.1427 0.76392 0.0
O197 O 0.47477 0.12046 0.80397 0.0
Zn198 Zn 0.44662 0.11567 0.8257 0.0
O199 O 0.44951 0.11402 0.8755 0.0
C200 C 0.42306 0.06964 0.81491 0.0
O201 O 0.43933 0.07176 0.83446 0.0
O202 O 0.44177 0.14108 0.81464 0.0
C203 C 0.43257 0.1067 0.89455 0.0
O204 O 0.41288 0.10004 0.88114 0.0
C205 C 0.49384 0.13686 0.81103 0.0
O206 O 0.49545 0.1515 0.83354 0.0
O207 O 0.42183 0.08688 0.80792 0.0
C208 C 0.28571 0.44885 0.77464 0.0
O209 O 0.29736 0.46331 0.79826 0.0
O210 O 0.34637 0.46827 0.76923 0.0
Zn211 Zn 0.32021 0.43872 0.78295 0.0
O212 O 0.31789 0.43674 0.83314 0.0
C213 C 0.33363 0.41533 0.73783 0.0
O214 O 0.33895 0.43272 0.71863 0.0
O215 O 0.29222 0.43584 0.76365 0.0
C216 C 0.33372 0.43735 0.85015 0.0
O217 O 0.35125 0.43927 0.83429 0.0
C218 C 0.35371 0.48559 0.78755 0.0
O219 O 0.3441 0.4843 0.8166 0.0
O220 O 0.32482 0.41406 0.76634 0.0
C221 C 0.82534 0.29092 0.80643 0.0
O222 O 0.82127 0.3046 0.82395 0.0
O223 O 0.86311 0.34948 0.79359 0.0
Zn224 Zn 0.86907 0.32667 0.81491 0.0
O225 O 0.86846 0.32915 0.86508 0.0
C226 C 0.91656 0.34361 0.81688 0.0
O227 O 0.91479 0.35055 0.84688 0.0
O228 O 0.84541 0.29659 0.79971 0.0
C229 C 0.87166 0.31622 0.88397 0.0
O230 O 0.87488 0.3008 0.87018 0.0
C231 C 0.87778 0.37 0.79521 0.0
O232 O 0.8964 0.37594 0.81162 0.0
O233 O 0.8991 0.33248 0.79922 0.0
C234 C 0.15108 0.44985 0.68143 0.0
O235 O 0.15215 0.4595 0.65248 0.0
O236 O 0.11346 0.47706 0.70053 0.0
Zn237 Zn 0.10877 0.44754 0.68407 0.0
O238 O 0.10656 0.44548 0.6337 0.0
C239 C 0.06332 0.42665 0.69913 0.0
O240 O 0.06597 0.44382 0.68138 0.0
O241 O 0.13378 0.4431 0.69957 0.0
C242 C 0.10436 0.45932 0.61546 0.0
O243 O 0.10342 0.47594 0.62979 0.0
C244 C 0.13227 0.49448 0.7052 0.0
O245 O 0.15061 0.49401 0.69851 0.0
O246 O 0.07999 0.42398 0.70372 0.0
C247 C 0.69453 0.15707 0.70253 0.0
O248 O 0.68587 0.15985 0.67481 0.0
O249 O 0.63087 0.121 0.72191 0.0
Zn250 Zn 0.65409 0.11512 0.70233 0.0
O251 O 0.65226 0.11484 0.65203 0.0
C252 C 0.62878 0.06886 0.71072 0.0
O253 O 0.61535 0.07251 0.69181 0.0
O254 O 0.68403 0.13877 0.71838 0.0
C255 C 0.66189 0.10674 0.63461 0.0
O256 O 0.67326 0.09881 0.65001 0.0
C257 C 0.62564 0.13455 0.70905 0.0
O258 O 0.63582 0.14544 0.6816 0.0
O259 O 0.64768 0.08521 0.71865 0.0
C260 C 0.54671 0.70645 0.71198 0.0
O261 O 0.55639 0.70739 0.68311 0.0
O262 O 0.5073 0.63365 0.7237 0.0
Zn263 Zn 0.53521 0.66073 0.7082 0.0
O264 O 0.53482 0.66215 0.65785 0.0
C265 C 0.57884 0.66415 0.70657 0.0
O266 O 0.58156 0.67505 0.6783 0.0
O267 O 0.53684 0.68808 0.7278 0.0
C268 C 0.53541 0.64722 0.64006 0.0
O269 O 0.53595 0.63059 0.65506 0.0
C270 C 0.48813 0.62932 0.71362 0.0
O271 O 0.48648 0.64318 0.69285 0.0
O272 O 0.56102 0.65752 0.72339 0.0
C273 C 0.83105 0.53201 0.70557 0.0
O274 O 0.82592 0.51452 0.68664 0.0
O275 O 0.86555 0.50809 0.70355 0.0
Zn276 Zn 0.8737 0.53927 0.69019 0.0
O277 O 0.87258 0.54206 0.63985 0.0
C278 C 0.91863 0.55394 0.7088 0.0
O279 O 0.91319 0.53432 0.69623 0.0
O280 O 0.85146 0.54596 0.711 0.0
C281 C 0.88982 0.55066 0.62125 0.0
O282 O 0.90953 0.55808 0.635 0.0
C283 C 0.86639 0.49405 0.6839 0.0
O284 O 0.87213 0.4995 0.65232 0.0
O285 O 0.90427 0.56028 0.70863 0.0
C286 C 0.28873 0.83908 0.66937 0.0
O287 O 0.29852 0.83781 0.64182 0.0
O288 O 0.35132 0.8746 0.69615 0.0
Zn289 Zn 0.32887 0.88115 0.67512 0.0
O290 O 0.3327 0.88303 0.62507 0.0
C291 C 0.34894 0.9284 0.68167 0.0
O292 O 0.35985 0.9279 0.65494 0.0
O293 O 0.29846 0.85652 0.68743 0.0
C294 C 0.32185 0.88913 0.60641 0.0
O295 O 0.30791 0.89446 0.62031 0.0
C296 C 0.3711 0.88339 0.68487 0.0
O297 O 0.37662 0.89636 0.65831 0.0
O298 O 0.33399 0.91013 0.69425 0.0
C299 C 0.45778 0.2979 0.7405 0.0
O300 O 0.47361 0.31594 0.75503 0.0
O301 O 0.48255 0.35406 0.71582 0.0
Zn302 Zn 0.45313 0.32954 0.69906 0.0
O303 O 0.45338 0.32876 0.64877 0.0
C304 C 0.4108 0.3281 0.69886 0.0
O305 O 0.40588 0.31305 0.67525 0.0
O306 O 0.44664 0.2998 0.71665 0.0
C307 C 0.45413 0.34478 0.63217 0.0
O308 O 0.45542 0.36191 0.64848 0.0
C309 C 0.50111 0.35828 0.70319 0.0
O310 O 0.50137 0.34597 0.67822 0.0
O311 O 0.42967 0.33659 0.71333 0.0
C312 C 0.389 0.04306 0.22916 0.0
C313 C 0.40725 0.05261 0.25129 0.0
C314 C 0.37482 0.01988 0.22771 0.0
C315 C 0.37917 0.006 0.24868 0.0
C316 C 0.39688 0.0156 0.27225 0.0
C317 C 0.41064 0.03882 0.27338 0.0
C318 C 0.35587 0.01024 0.20269 0.0
C319 C 0.40202 0.00131 0.29509 0.0
C320 C 0.33827 0.94489 0.26432 0.0
C321 C 0.34706 0.93468 0.24369 0.0
C322 C 0.34773 0.96814 0.26479 0.0
C323 C 0.3665 0.98142 0.24436 0.0
C324 C 0.37453 0.97115 0.22194 0.0
C325 C 0.36463 0.94787 0.22175 0.0
C326 C 0.33845 0.9785 0.28856 0.0
C327 C 0.39451 0.98479 0.19968 0.0
H328 H 0.38616 0.05364 0.21217 0.0
H329 H 0.42465 0.04606 0.29062 0.0
H330 H 0.35969 0.0018 0.18216 0.0
H331 H 0.34023 -0.00249 0.21488 0.0
H332 H 0.35299 0.02325 0.19137 0.0
H333 H 0.41552 0.01139 0.31334 0.0
H334 H 0.38689 0.98945 0.30928 0.0
H335 H 0.40723 0.9913 0.27974 0.0
H336 H 0.32454 0.93478 0.28112 0.0
H337 H 0.37145 0.94012 0.20561 0.0
H338 H 0.33656 0.99165 0.2756 0.0
H339 H 0.35023 0.98655 0.30976 0.0
H340 H 0.32203 0.96595 0.29905 0.0
H341 H 0.39221 -0.00285 0.18513 0.0
H342 H 0.39754 0.97426 0.18178 0.0
H343 H 0.40961 0.9942 0.21553 0.0
C344 C 0.40957 0.36571 0.23036 0.0
C345 C 0.4045 0.3512 0.25771 0.0
C346 C 0.39711 0.37621 0.22403 0.0
C347 C 0.37887 0.37172 0.24518 0.0
C348 C 0.37289 0.35611 0.27167 0.0
C349 C 0.38595 0.3462 0.27787 0.0
C350 C 0.40419 0.39298 0.19578 0.0
C351 C 0.35322 0.35051 0.2942 0.0
C352 C 0.36585 0.41858 0.25156 0.0
C353 C 0.34913 0.41231 0.22719 0.0
C354 C 0.37519 0.40512 0.25843 0.0
C355 C 0.36727 0.3847 0.24098 0.0
C356 C 0.3495 0.37767 0.21776 0.0
C357 C 0.34079 0.3917 0.21085 0.0
C358 C 0.39433 0.41333 0.28306 0.0
C359 C 0.34027 0.35575 0.19931 0.0
H360 H 0.42395 0.3697 0.21478 0.0
H361 H 0.38187 0.33484 0.29889 0.0
H362 H 0.38994 0.38873 0.17871 0.0
H363 H 0.4096 0.40978 0.20631 0.0
H364 H 0.41813 0.39384 0.18075 0.0
H365 H 0.34923 0.33619 0.31103 0.0
H366 H 0.3569 0.36517 0.31002 0.0
H367 H 0.33826 0.34651 0.2789 0.0
H368 H 0.37242 0.43454 0.26416 0.0
H369 H 0.32772 0.38671 0.19217 0.0
H370 H 0.40963 0.41628 0.26966 0.0
H371 H 0.3907 0.40054 0.30261 0.0
H372 H 0.39779 0.42907 0.29568 0.0
H373 H 0.35286 0.35658 0.1812 0.0
H374 H 0.32479 0.35152 0.18523 0.0
H375 H 0.33665 0.34206 0.21723 0.0
C376 C 0.95106 0.36061 0.23334 0.0
C377 C 0.93919 0.34029 0.2161 0.0
C378 C 0.97407 0.3705 0.2386 0.0
C379 C 0.98553 0.35974 0.22658 0.0
C380 C 0.97359 0.33888 0.2101 0.0
C381 C 0.95052 0.32942 0.20492 0.0
C382 C 0.98621 0.3928 0.25625 0.0
C383 C 0.98527 0.32684 0.19733 0.0
C384 C 0.04688 0.39999 0.21203 0.0
C385 C 0.05608 0.39876 0.24283 0.0
C386 C 0.02403 0.38635 0.20553 0.0
C387 C 0.01014 0.371 0.23032 0.0
C388 C 0.01962 0.36856 0.26043 0.0
C389 C 0.04249 0.38255 0.26641 0.0
C390 C 0.01453 0.38948 0.17313 0.0
C391 C 0.0054 0.35215 0.28726 0.0
H392 H 0.94246 0.36913 0.24213 0.0
H393 H 0.94146 0.31368 0.19167 0.0
H394 H -0.00471 0.3917 0.2785 0.0
H395 H -0.00122 0.40548 0.23907 0.0
H396 H 0.97474 0.39871 0.2647 0.0
H397 H 0.97337 0.31003 0.18727 0.0
H398 H -0.00289 0.33674 0.17705 0.0
H399 H -0.00485 0.32505 0.21781 0.0
H400 H 0.05728 0.41239 0.19361 0.0
H401 H 0.04953 0.38133 0.29014 0.0
H402 H 0.00425 0.3973 0.17866 0.0
H403 H 0.00348 0.37316 0.16101 0.0
H404 H 0.02779 0.40026 0.15499 0.0
H405 H -0.00493 0.35819 0.29973 0.0
H406 H 0.01565 0.34997 0.30677 0.0
H407 H -0.00614 0.33567 0.27596 0.0
C408 C 0.57685 0.94633 0.27996 0.0
C409 C 0.58215 0.93469 0.25627 0.0
C410 C 0.58988 0.96955 0.283 0.0
C411 C 0.60881 0.98136 0.26212 0.0
C412 C 0.61497 0.9696 0.23948 0.0
C413 C 0.60148 0.94637 0.23668 0.0
C414 C 0.58274 0.98153 0.30739 0.0
C415 C 0.63525 0.98162 0.21722 0.0
C416 C 0.62373 0.04088 0.24376 0.0
C417 C 0.64021 0.05271 0.268 0.0
C418 C 0.61394 0.01769 0.24078 0.0
C419 C 0.621 0.00611 0.26228 0.0
C420 C 0.63849 0.01809 0.28551 0.0
C421 C 0.64782 0.04127 0.28824 0.0
C422 C 0.59526 0.00547 0.21574 0.0
C423 C 0.6467 0.00633 0.30845 0.0
H424 H 0.56198 0.93742 0.29523 0.0
H425 H 0.60577 0.93746 0.21848 0.0
H426 H 0.59679 0.99254 0.32417 0.0
H427 H 0.5779 0.99229 0.29325 0.0
H428 H 0.56839 0.96981 0.32318 0.0
H429 H 0.63919 0.9699 0.20388 0.0
H430 H 0.63233 0.99159 0.19818 0.0
H431 H 0.64999 0.99338 0.23229 0.0
H432 H 0.61778 0.04959 0.22799 0.0
H433 H 0.66069 0.05034 0.30685 0.0
H434 H 0.57951 0.99451 0.22936 0.0
H435 H 0.59882 0.99463 0.19939 0.0
H436 H 0.59265 0.01703 0.19955 0.0
H437 H 0.63357 -0.00382 0.32707 0.0
H438 H 0.66205 0.01823 0.3223 0.0
H439 H 0.6502 0.99477 0.29381 0.0
C440 C 0.59313 0.63733 0.27467 0.0
C441 C 0.58519 0.63147 0.30771 0.0
C442 C 0.6041 0.62747 0.25864 0.0
C443 C 0.60721 0.61143 0.27612 0.0
C444 C 0.60078 0.60675 0.31029 0.0
C445 C 0.58984 0.61684 0.32569 0.0
C446 C 0.61086 0.63302 0.22224 0.0
C447 C 0.60397 0.58986 0.32985 0.0
C448 C 0.60388 0.56376 0.22504 0.0
C449 C 0.62633 0.56951 0.22278 0.0
C450 C 0.59756 0.57738 0.24217 0.0
C451 C 0.6141 0.5973 0.25746 0.0
C452 C 0.63685 0.60336 0.25509 0.0
C453 C 0.64272 0.58936 0.23773 0.0
C454 C 0.57309 0.57034 0.24412 0.0
C455 C 0.65489 0.62451 0.27108 0.0
H456 H 0.58983 0.64881 0.26069 0.0
H457 H 0.584 0.61242 0.35137 0.0
H458 H 0.62794 0.63587 0.21815 0.0
H459 H 0.59937 0.61873 0.20617 0.0
H460 H 0.61029 0.64802 0.21382 0.0
H461 H 0.60099 0.59041 0.35721 0.0
H462 H 0.59215 0.57287 0.32041 0.0
H463 H 0.62108 0.59268 0.32623 0.0
H464 H 0.5911 0.54847 0.21355 0.0
H465 H 0.66011 0.5939 0.23607 0.0
H466 H 0.57028 0.58346 0.23315 0.0
H467 H 0.5677 0.56822 0.2708 0.0
H468 H 0.56236 0.55444 0.23059 0.0
H469 H 0.65414 0.63911 0.26124 0.0
H470 H 0.67183 0.62707 0.26633 0.0
H471 H 0.6522 0.62398 0.29866 0.0
C472 C 0.04231 0.64133 0.22453 0.0
C473 C 0.04372 0.63396 0.19221 0.0
C474 C 0.02175 0.63259 0.24112 0.0
C475 C 0.00222 0.61601 0.22505 0.0
C476 C 0.00337 0.60937 0.19177 0.0
C477 C 0.02411 0.6185 0.17568 0.0
C478 C 0.0211 0.64028 0.27646 0.0
C479 C 0.98287 0.5917 0.17383 0.0
C480 C 0.9556 0.57238 0.27852 0.0
C481 C 0.93949 0.57894 0.27642 0.0
C482 C 0.97626 0.58461 0.26245 0.0
C483 C 0.981 0.60399 0.24408 0.0
C484 C 0.96513 0.61117 0.24281 0.0
C485 C 0.94448 0.59849 0.25891 0.0
C486 C 0.99276 0.57638 0.26429 0.0
C487 C 0.96976 0.63191 0.22377 0.0
H488 H 0.05737 0.65343 0.23735 0.0
H489 H 0.02504 0.6128 0.15065 0.0
H490 H 0.0076 0.64439 0.27893 0.0
H491 H 0.01743 0.62662 0.29445 0.0
H492 H 0.03717 0.65511 0.28379 0.0
H493 H 0.98627 0.58979 0.14707 0.0
H494 H 0.97672 0.57543 0.18668 0.0
H495 H 0.9693 0.59578 0.17481 0.0
H496 H 0.95189 0.55731 0.29202 0.0
H497 H 0.93213 0.60371 0.25734 0.0
H498 H 0.00895 0.58968 0.27432 0.0
H499 H -0.0041 0.57218 0.23867 0.0
H500 H 0.98677 0.56138 0.28047 0.0
H501 H 0.98584 0.64629 0.23206 0.0
H502 H 0.95637 0.63613 0.22729 0.0
H503 H 0.9713 0.62949 0.19651 0.0
C504 C 0.57562 0.96071 0.82291 0.0
C505 C 0.57402 0.94177 0.80744 0.0
C506 C 0.58661 0.98155 0.80702 0.0
C507 C 0.59641 0.98349 0.77503 0.0
C508 C 0.59592 0.9647 0.76009 0.0
C509 C 0.58464 0.94401 0.77644 0.0
C510 C 0.58677 0.00123 0.82371 0.0
C511 C 0.60644 0.96623 0.72619 0.0
C512 C 0.59922 0.02929 0.7197 0.0
C513 C 0.62122 0.04646 0.72484 0.0
C514 C 0.59114 0.0085 0.73521 0.0
C515 C 0.60547 0.00474 0.75616 0.0
C516 C 0.62795 0.02169 0.76044 0.0
C517 C 0.63556 0.04241 0.7448 0.0
C518 C 0.56703 0.99081 0.73008 0.0
C519 C 0.64375 0.01815 0.78233 0.0
H520 H 0.56753 0.95915 0.84691 0.0
H521 H 0.58363 0.92946 0.76445 0.0
H522 H 0.60401 0.01559 0.82497 0.0
H523 H 0.57675 0.00651 0.80853 0.0
H524 H 0.57978 -0.00269 0.84959 0.0
H525 H 0.60674 0.95076 0.71977 0.0
H526 H 0.59693 0.96923 0.70643 0.0
H527 H 0.62377 0.98051 0.72565 0.0
H528 H 0.58806 0.03226 0.70424 0.0
H529 H 0.65263 0.05557 0.74871 0.0
H530 H 0.55804 0.98699 0.75446 0.0
H531 H 0.56592 0.97517 0.72087 0.0
H532 H 0.55837 -0.00394 0.71185 0.0
H533 H 0.6382 0.01614 0.80892 0.0
H534 H 0.66114 0.03231 0.78081 0.0
H535 H 0.6436 0.00263 0.77488 0.0
C536 C 0.61375 0.57641 0.73676 0.0
C537 C 0.63428 0.58238 0.75188 0.0
C538 C 0.6081 0.59259 0.72831 0.0
C539 C 0.62333 0.61531 0.73525 0.0
C540 C 0.64444 0.62158 0.74934 0.0
C541 C 0.64969 0.605 0.75748 0.0
C542 C 0.58546 0.58524 0.71309 0.0
C543 C 0.66108 0.64565 0.757 0.0
C544 C 0.60784 0.6542 0.69148 0.0
C545 C 0.59412 0.65593 0.71582 0.0
C546 C 0.61887 0.64225 0.69817 0.0
C547 C 0.61619 0.63204 0.72999 0.0
C548 C 0.60393 0.6354 0.75553 0.0
C549 C 0.59296 0.64725 0.74808 0.0
C550 C 0.63189 0.6391 0.67036 0.0
C551 C 0.60094 0.62505 0.78995 0.0
H552 H 0.60184 0.55899 0.73207 0.0
H553 H 0.66562 0.60973 0.76908 0.0
H554 H 0.57535 0.58899 0.73077 0.0
H555 H 0.58726 0.59457 0.68952 0.0
H556 H 0.57615 0.56711 0.70736 0.0
H557 H 0.67759 0.648 0.76448 0.0
H558 H 0.66333 0.65629 0.73481 0.0
H559 H 0.6547 0.6516 0.77782 0.0
H560 H 0.60884 0.66093 0.66651 0.0
H561 H 0.58262 0.64883 0.76713 0.0
H562 H 0.62213 0.62187 0.66035 0.0
H563 H 0.64789 0.64126 0.68003 0.0
H564 H 0.63545 0.65094 0.64928 0.0
H565 H 0.58987 0.60672 0.78799 0.0
H566 H 0.59342 0.6316 0.80814 0.0
H567 H 0.61717 0.62815 0.80009 0.0
C568 C 0.95757 0.56225 0.71884 0.0
C569 C 0.94122 0.5684 0.72258 0.0
C570 C 0.97905 0.57552 0.73194 0.0
C571 C 0.98427 0.59536 0.74941 0.0
C572 C 0.96788 0.60171 0.75331 0.0
C573 C 0.94652 0.58817 0.7397 0.0
C574 C -0.00385 0.56828 0.72709 0.0
C575 C 0.97287 0.62269 0.77201 0.0
C576 C 0.03415 0.61572 0.80728 0.0
C577 C 0.05131 0.63156 0.78696 0.0
C578 C 0.01199 0.60457 0.79603 0.0
C579 C 0.00696 0.60929 0.7636 0.0
C580 C 0.02405 0.62597 0.74359 0.0
C581 C 0.04604 0.63699 0.75558 0.0
C582 C -0.00587 0.58704 0.81821 0.0
C583 C 0.0193 0.63139 0.70882 0.0
H584 H 0.95363 0.54704 0.70555 0.0
H585 H 0.93393 0.59297 0.74276 0.0
H586 H 0.01095 0.58148 0.71374 0.0
H587 H 0.00192 0.5658 0.75191 0.0
H588 H 0.98948 0.55254 0.71248 0.0
H589 H 0.95829 0.6253 0.77274 0.0
H590 H 0.97797 0.6219 0.79821 0.0
H591 H 0.98703 0.63739 0.75992 0.0
H592 H 0.03808 0.6116 0.83171 0.0
H593 H 0.05921 0.64927 0.73978 0.0
H594 H 0.98796 0.57033 0.80686 0.0
H595 H 0.9797 0.5898 0.82019 0.0
H596 H 0.00036 0.58696 0.84395 0.0
H597 H 0.01435 0.61687 0.69196 0.0
H598 H 0.03402 0.6461 0.69771 0.0
H599 H 0.00519 0.63468 0.70959 0.0
C600 C 0.39194 0.04618 0.77517 0.0
C601 C 0.40823 0.04814 0.79814 0.0
C602 C 0.37955 0.02661 0.75634 0.0
C603 C 0.38366 0.00869 0.76053 0.0
C604 C 0.39937 0.01021 0.78474 0.0
C605 C 0.41141 0.02989 0.80332 0.0
C606 C 0.36274 0.02545 0.73101 0.0
C607 C 0.40419 0.99141 0.78996 0.0
C608 C 0.34476 0.9502 0.72853 0.0
C609 C 0.35599 0.94966 0.69945 0.0
C610 C 0.35296 0.96968 0.7479 0.0
C611 C 0.3729 0.98897 0.73802 0.0
C612 C 0.38369 0.98883 0.70783 0.0
C613 C 0.37504 0.96919 0.68883 0.0
C614 C 0.34088 0.96931 0.77973 0.0
C615 C 0.40501 0.0091 0.69648 0.0
H616 H 0.38929 0.06017 0.77117 0.0
H617 H 0.42387 0.03121 0.82115 0.0
H618 H 0.3688 0.0254 0.70518 0.0
H619 H 0.34661 0.00975 0.73411 0.0
H620 H 0.35981 0.03978 0.73332 0.0
H621 H 0.41591 0.99471 0.81117 0.0
H622 H 0.38851 0.9756 0.79501 0.0
H623 H 0.41159 0.98894 0.76673 0.0
H624 H 0.32991 0.9352 0.73675 0.0
H625 H 0.38376 0.96896 0.66632 0.0
H626 H 0.33854 0.98403 0.7808 0.0
H627 H 0.35103 0.97021 0.8019 0.0
H628 H 0.3243 0.95395 0.78179 0.0
H629 H 0.40286 0.02393 0.69567 0.0
H630 H 0.41044 0.00676 0.67123 0.0
H631 H 0.41851 0.01271 0.71479 0.0
C632 C 0.35507 0.40313 0.70163 0.0
C633 C 0.34033 0.39884 0.72847 0.0
C634 C 0.36403 0.38924 0.69546 0.0
C635 C 0.35792 0.37054 0.71644 0.0
C636 C 0.34192 0.3653 0.74215 0.0
C637 C 0.33339 0.3796 0.74798 0.0
C638 C 0.3811 0.3954 0.66783 0.0
C639 C 0.33476 0.34532 0.7647 0.0
C640 C 0.37589 0.32953 0.68787 0.0
C641 C 0.39592 0.33724 0.70568 0.0
C642 C 0.36286 0.33973 0.69184 0.0
C643 C 0.37018 0.35811 0.71395 0.0
C644 C 0.38998 0.36546 0.73282 0.0
C645 C 0.40255 0.35488 0.72856 0.0
C646 C 0.34168 0.33131 0.67164 0.0
C647 C 0.39835 0.38502 0.75668 0.0
H648 H 0.36043 0.41791 0.68637 0.0
H649 H 0.32179 0.37604 0.76854 0.0
H650 H 0.39769 0.40073 0.67912 0.0
H651 H 0.37681 0.38074 0.65163 0.0
H652 H 0.38245 0.40915 0.65179 0.0
H653 H 0.32007 0.34187 0.78035 0.0
H654 H 0.33061 0.33027 0.74956 0.0
H655 H 0.3487 0.34833 0.78172 0.0
H656 H 0.37061 0.31586 0.67022 0.0
H657 H 0.41796 0.3609 0.74253 0.0
H658 H 0.34369 0.34414 0.65305 0.0
H659 H 0.3276 0.3283 0.68834 0.0
H660 H 0.33726 0.31565 0.65793 0.0
H661 H 0.40208 0.4003 0.74248 0.0
H662 H 0.41367 0.38815 0.77031 0.0
H663 H 0.3853 0.38207 0.77546 0.0
C664 C 0.03846 0.39291 0.73352 0.0
C665 C 0.04168 0.41166 0.71533 0.0
C666 C 0.01833 0.37933 0.75047 0.0
C667 C 0.00119 0.38479 0.74933 0.0
C668 C 0.0042 0.40343 0.73048 0.0
C669 C 0.02438 0.41659 0.71361 0.0
C670 C 0.01556 0.35944 0.77007 0.0
C671 C 0.98629 0.40982 0.72878 0.0
C672 C 0.94072 0.34422 0.76969 0.0
C673 C 0.93877 0.35158 0.80174 0.0
C674 C 0.96132 0.35401 0.75302 0.0
C675 C 0.9803 0.37163 0.76873 0.0
C676 C 0.97869 0.37823 0.80184 0.0
C677 C 0.95794 0.36803 0.81803 0.0
C678 C 0.96249 0.34633 0.7179 0.0
C679 C -0.00142 0.397 0.81938 0.0
H680 H 0.05174 0.38896 0.73483 0.0
H681 H 0.02673 0.43103 0.6996 0.0
H682 H 0.01377 0.36186 0.79725 0.0
H683 H 0.00014 0.34416 0.76205 0.0
H684 H 0.02995 0.3567 0.76677 0.0
H685 H 0.99111 0.42455 0.71242 0.0
H686 H 0.97056 0.39566 0.719 0.0
H687 H 0.9828 0.41369 0.7544 0.0
H688 H 0.92601 0.33134 0.75709 0.0
H689 H 0.95659 0.37373 0.84287 0.0
H690 H 0.97694 0.34364 0.71546 0.0
H691 H 0.96492 0.35943 0.69954 0.0
H692 H 0.94706 0.33066 0.71101 0.0
H693 H 0.01311 0.39436 0.8182 0.0
H694 H -0.00492 0.39865 0.84619 0.0
H695 H 0.0034 0.41296 0.80639 0.0
C696 C 0.44047 0.17708 0.26389 0.0
C697 C 0.45311 0.1801 0.23475 0.0
C698 C 0.43894 0.19485 0.278 0.0
C699 C 0.45035 0.21609 0.26258 0.0
C700 C 0.46298 0.21919 0.23304 0.0
C701 C 0.4642 0.20115 0.21947 0.0
C702 C 0.42529 0.19097 0.30951 0.0
C703 C 0.4754 0.24163 0.21591 0.0
C704 C 0.43371 0.25974 0.27891 0.0
C705 C 0.45045 0.27409 0.30127 0.0
C706 C 0.43303 0.24036 0.26691 0.0
C707 C 0.44949 0.23527 0.27754 0.0
C708 C 0.46597 0.24927 0.30098 0.0
C709 C 0.46624 0.26852 0.31259 0.0
C710 C 0.41515 0.22573 0.24203 0.0
C711 C 0.48378 0.24434 0.31291 0.0
H712 H 0.43182 0.16085 0.27582 0.0
H713 H 0.47399 0.20362 0.19693 0.0
H714 H 0.43613 0.20176 0.33012 0.0
H715 H 0.4123 0.19561 0.30509 0.0
H716 H 0.41704 0.17334 0.31798 0.0
H717 H 0.48421 0.24116 0.19283 0.0
H718 H 0.46362 0.24744 0.20896 0.0
H719 H 0.48783 0.25413 0.23346 0.0
H720 H 0.42139 0.26388 0.27017 0.0
H721 H 0.47917 0.27947 0.32999 0.0
H722 H 0.40635 0.20818 0.25079 0.0
H723 H 0.42291 0.22611 0.21743 0.0
H724 H 0.40269 0.23117 0.23813 0.0
H725 H 0.47604 0.22712 0.32296 0.0
H726 H 0.49454 0.25613 0.33274 0.0
H727 H 0.49448 0.2454 0.29139 0.0
C728 C 0.18807 0.4659 0.22514 0.0
C729 C 0.1731 0.45161 0.24949 0.0
C730 C 0.20808 0.4661 0.21858 0.0
C731 C 0.21312 0.45155 0.23663 0.0
C732 C 0.19789 0.4368 0.26078 0.0
C733 C 0.17808 0.43705 0.26701 0.0
C734 C 0.22398 0.48214 0.19272 0.0
C735 C 0.20266 0.42093 0.2803 0.0
C736 C 0.25659 0.43994 0.19883 0.0
C737 C 0.27568 0.45449 0.21732 0.0
C738 C 0.23601 0.43853 0.20524 0.0
C739 C 0.23453 0.45209 0.23058 0.0
C740 C 0.25365 0.46658 0.24965 0.0
C741 C 0.274 0.46754 0.24286 0.0
C742 C 0.21591 0.42276 0.1846 0.0
C743 C 0.2527 0.48136 0.27679 0.0
H744 H 0.18437 0.47722 0.21154 0.0
H745 H 0.16654 0.4259 0.28579 0.0
H746 H 0.24018 0.49371 0.2048 0.0
H747 H 0.22731 0.47287 0.17293 0.0
H748 H 0.21742 0.49214 0.18053 0.0
H749 H 0.18877 0.41004 0.29747 0.0
H750 H 0.20562 0.41022 0.26271 0.0
H751 H 0.21806 0.43047 0.29545 0.0
H752 H 0.25774 0.42972 0.17914 0.0
H753 H 0.28867 0.47884 0.25723 0.0
H754 H 0.20976 0.43231 0.17014 0.0
H755 H 0.20216 0.41119 0.20139 0.0
H756 H 0.21968 0.41276 0.16667 0.0
H757 H 0.24774 0.49293 0.26566 0.0
H758 H 0.26897 0.49136 0.2898 0.0
H759 H 0.2399 0.47111 0.29577 0.0
C760 C 0.73353 0.176 0.27015 0.0
C761 C 0.72086 0.17902 0.29496 0.0
C762 C 0.75265 0.19428 0.25665 0.0
C763 C 0.75911 0.21603 0.2681 0.0
C764 C 0.74661 0.21914 0.29353 0.0
C765 C 0.72767 0.20058 0.30673 0.0
C766 C 0.7657 0.19036 0.2297 0.0
C767 C 0.75294 0.24213 0.30623 0.0
C768 C 0.81759 0.26413 0.25233 0.0
C769 C 0.8141 0.27453 0.22459 0.0
C770 C 0.79992 0.24475 0.26638 0.0
C771 C 0.77829 0.2357 0.25242 0.0
C772 C 0.77475 0.24593 0.22411 0.0
C773 C 0.79271 0.26519 0.21049 0.0
C774 C 0.80429 0.23417 0.29646 0.0
C775 C 0.75188 0.23678 0.20862 0.0
H776 H 0.72842 0.15936 0.26106 0.0
H777 H 0.71798 0.20305 0.32591 0.0
H778 H 0.765 0.19833 0.20587 0.0
H779 H 0.7835 0.19816 0.23707 0.0
H780 H 0.75918 0.17234 0.2249 0.0
H781 H 0.74192 0.24161 0.32695 0.0
H782 H 0.77042 0.25082 0.3154 0.0
H783 H 0.75196 0.25223 0.28534 0.0
H784 H 0.8341 0.27121 0.26326 0.0
H785 H 0.78988 0.2731 0.18903 0.0
H786 H 0.79849 0.21635 0.29125 0.0
H787 H 0.79473 0.23475 0.31845 0.0
H788 H 0.82225 0.24265 0.3033 0.0
H789 H 0.74515 0.21911 0.20125 0.0
H790 H 0.75208 0.24635 0.18607 0.0
H791 H 0.74024 0.23723 0.22737 0.0
C792 C 0.54827 0.81064 0.26209 0.0
C793 C 0.53591 0.80819 0.23281 0.0
C794 C 0.54847 0.79228 0.27662 0.0
C795 C 0.53605 0.77103 0.26146 0.0
C796 C 0.52369 0.76848 0.2318 0.0
C797 C 0.52376 0.78709 0.21784 0.0
C798 C 0.56184 0.79558 0.30829 0.0
C799 C 0.51026 0.74605 0.2149 0.0
C800 C 0.55012 0.7257 0.27953 0.0
C801 C 0.53328 0.71222 0.30237 0.0
C802 C 0.55153 0.7452 0.26656 0.0
C803 C 0.53573 0.75132 0.27671 0.0
C804 C 0.51902 0.73808 0.30035 0.0
C805 C 0.518 0.71868 0.31291 0.0
C806 C 0.5696 0.75895 0.24141 0.0
C807 C 0.50191 0.74414 0.31177 0.0
H808 H 0.5577 0.8269 0.27381 0.0
H809 H 0.51419 0.78505 0.19519 0.0
H810 H 0.55064 0.78516 0.32886 0.0
H811 H 0.5742 0.79008 0.30409 0.0
H812 H 0.57082 0.81325 0.3167 0.0
H813 H 0.50176 0.74695 0.19174 0.0
H814 H 0.52128 0.73928 0.20814 0.0
H815 H 0.49746 0.73405 0.23252 0.0
H816 H 0.56204 0.72086 0.27134 0.0
H817 H 0.50498 0.70839 0.33063 0.0
H818 H 0.57935 0.7765 0.25007 0.0
H819 H 0.56195 0.75903 0.21691 0.0
H820 H 0.58122 0.75247 0.23735 0.0
H821 H 0.51032 0.76138 0.32187 0.0
H822 H 0.49064 0.73264 0.33145 0.0
H823 H 0.49164 0.74367 0.29001 0.0
C824 C 0.74735 0.57649 0.193 0.0
C825 C 0.72663 0.55759 0.1998 0.0
C826 C 0.76732 0.57714 0.20176 0.0
C827 C 0.76647 0.5584 0.2175 0.0
C828 C 0.74561 0.53936 0.22465 0.0
C829 C 0.72596 0.53921 0.21581 0.0
C830 C 0.7893 0.59777 0.19398 0.0
C831 C 0.74404 0.51901 0.24133 0.0
C832 C 0.81535 0.54822 0.21293 0.0
C833 C 0.82419 0.55416 0.24549 0.0
C834 C 0.79695 0.55018 0.2031 0.0
C835 C 0.78731 0.55843 0.22632 0.0
C836 C 0.79668 0.56524 0.25879 0.0
C837 C 0.81497 0.56294 0.26804 0.0
C838 C 0.78731 0.54266 0.16829 0.0
C839 C 0.78694 0.57429 0.28412 0.0
H840 H 0.748 0.59077 0.18069 0.0
H841 H 0.71003 0.52452 0.22114 0.0
H842 H 0.79923 0.60438 0.21737 0.0
H843 H 0.79915 0.59352 0.17657 0.0
H844 H 0.78708 0.61112 0.18234 0.0
H845 H 0.72651 0.5056 0.24528 0.0
H846 H 0.75261 0.51229 0.22567 0.0
H847 H 0.7526 0.52362 0.26608 0.0
H848 H 0.82241 0.54145 0.19536 0.0
H849 H 0.82184 0.56774 0.29317 0.0
H850 H 0.78587 0.55605 0.1553 0.0
H851 H 0.77026 0.52802 0.17024 0.0
H852 H 0.7976 0.53797 0.15255 0.0
H853 H 0.78537 0.58811 0.27292 0.0
H854 H 0.79724 0.58048 0.3073 0.0
H855 H 0.76993 0.56101 0.29128 0.0
C856 C 0.17287 0.72361 0.22353 0.0
C857 C 0.17651 0.70876 0.20421 0.0
C858 C 0.1908 0.74314 0.23669 0.0
C859 C 0.21286 0.7479 0.23039 0.0
C860 C 0.21667 0.73303 0.21085 0.0
C861 C 0.19843 0.71362 0.19796 0.0
C862 C 0.18613 0.75865 0.25742 0.0
C863 C 0.24001 0.73759 0.20368 0.0
C864 C 0.26007 0.80754 0.23962 0.0
C865 C 0.26856 0.807 0.27143 0.0
C866 C 0.24187 0.78842 0.22596 0.0
C867 C 0.23198 0.76833 0.24459 0.0
C868 C 0.24037 0.76769 0.27678 0.0
C869 C 0.25857 0.78705 0.28982 0.0
C870 C 0.2333 0.78968 0.19155 0.0
C871 C 0.2302 0.74653 0.29736 0.0
H872 H 0.15598 0.71999 0.22842 0.0
H873 H 0.20137 0.70223 0.18304 0.0
H874 H 0.1932 0.76044 0.28304 0.0
H875 H 0.19436 0.77549 0.24589 0.0
H876 H 0.168 0.75262 0.25971 0.0
H877 H 0.24011 0.72442 0.18781 0.0
H878 H 0.2497 0.75385 0.19068 0.0
H879 H 0.24874 0.73873 0.22766 0.0
H880 H 0.2677 0.8229 0.22525 0.0
H881 H 0.26502 0.78649 0.31443 0.0
H882 H 0.21544 0.78486 0.19313 0.0
H883 H 0.23446 0.77771 0.17426 0.0
H884 H 0.24275 0.80664 0.18046 0.0
H885 H 0.21226 0.74056 0.30187 0.0
H886 H 0.23862 0.74888 0.32206 0.0
H887 H 0.23124 0.73323 0.28331 0.0
C888 C 0.53725 0.72557 0.7569 0.0
C889 C 0.54581 0.72602 0.72474 0.0
C890 C 0.53479 0.74333 0.76846 0.0
C891 C 0.54087 0.7619 0.74724 0.0
C892 C 0.55008 0.76275 0.71512 0.0
C893 C 0.55253 0.74481 0.70429 0.0
C894 C 0.52511 0.74196 0.80303 0.0
C895 C 0.55667 0.78227 0.69178 0.0
C896 C 0.51134 0.79474 0.76218 0.0
C897 C 0.52754 0.8133 0.77992 0.0
C898 C 0.5156 0.77802 0.75105 0.0
C899 C 0.53651 0.77987 0.75803 0.0
C900 C 0.55298 0.7986 0.77578 0.0
C901 C 0.54833 0.81516 0.78644 0.0
C902 C 0.49767 0.75831 0.73198 0.0
C903 C 0.57541 0.80102 0.78383 0.0
H904 H 0.53217 0.71116 0.77293 0.0
H905 H 0.55916 0.74528 0.6794 0.0
H906 H 0.53629 0.75706 0.81788 0.0
H907 H 0.50883 0.74134 0.80072 0.0
H908 H 0.52252 0.72702 0.81718 0.0
H909 H 0.56467 0.78091 0.66835 0.0
H910 H 0.54168 0.7833 0.68484 0.0
H911 H 0.56838 0.7981 0.70464 0.0
H912 H 0.49528 0.79324 0.75693 0.0
H913 H 0.56091 0.82945 0.80019 0.0
H914 H 0.49284 0.7427 0.74602 0.0
H915 H 0.50413 0.75684 0.70714 0.0
H916 H 0.48251 0.75967 0.72791 0.0
H917 H 0.57314 0.7868 0.79956 0.0
H918 H 0.58652 0.81678 0.79742 0.0
H919 H 0.58383 0.8006 0.76031 0.0
C920 C 0.73348 0.55524 0.75826 0.0
C921 C 0.7241 0.54547 0.78935 0.0
C922 C 0.75203 0.55461 0.74553 0.0
C923 C 0.76138 0.54394 0.76433 0.0
C924 C 0.75257 0.53485 0.79633 0.0
C925 C 0.73402 0.53575 0.80849 0.0
C926 C 0.76108 0.56459 0.71137 0.0
C927 C 0.76218 0.52339 0.81711 0.0
C928 C 0.79085 0.51921 0.71556 0.0
C929 C 0.81332 0.53519 0.72063 0.0
C930 C 0.7738 0.52185 0.72979 0.0
C931 C 0.77938 0.54097 0.74951 0.0
C932 C 0.80202 0.55718 0.75476 0.0
C933 C 0.81876 0.55409 0.74026 0.0
C934 C 0.7498 0.50419 0.72369 0.0
C935 C 0.80853 0.57778 0.77562 0.0
H936 H 0.72599 0.56291 0.74341 0.0
H937 H 0.72693 0.52824 0.8326 0.0
H938 H 0.77932 0.57623 0.71283 0.0
H939 H 0.75834 0.55117 0.69343 0.0
H940 H 0.75299 0.57373 0.70111 0.0
H941 H 0.75448 0.51868 0.84249 0.0
H942 H 0.75944 0.50808 0.80398 0.0
H943 H 0.78045 0.53439 0.82007 0.0
H944 H 0.78652 0.50455 0.70047 0.0
H945 H 0.8361 0.56651 0.74429 0.0
H946 H 0.74082 0.51166 0.71098 0.0
H947 H 0.74129 0.4973 0.74804 0.0
H948 H 0.7483 0.49024 0.70794 0.0
H949 H 0.80132 0.58747 0.76449 0.0
H950 H 0.82691 0.58875 0.77742 0.0
H951 H 0.80165 0.57295 0.80141 0.0
C952 C 0.25904 0.82004 0.71278 0.0
C953 C 0.26785 0.81958 0.6812 0.0
C954 C 0.2407 0.80092 0.72603 0.0
C955 C 0.2309 0.78092 0.70715 0.0
C956 C 0.23899 0.78061 0.67457 0.0
C957 C 0.25743 0.79997 0.66198 0.0
C958 C 0.23249 0.80186 0.76087 0.0
C959 C 0.2288 0.7596 0.65362 0.0
C960 C 0.20322 0.72714 0.75691 0.0
C961 C 0.18061 0.72073 0.75412 0.0
C962 C 0.21971 0.74659 0.7414 0.0
C963 C 0.21342 0.75994 0.72265 0.0
C964 C 0.19063 0.7535 0.71944 0.0
C965 C 0.17446 0.73394 0.73526 0.0
C966 C 0.24389 0.75295 0.74537 0.0
C967 C 0.18337 0.76736 0.69956 0.0
H968 H 0.26691 0.83516 0.72773 0.0
H969 H 0.26403 0.79954 0.63745 0.0
H970 H 0.21421 0.79517 0.76058 0.0
H971 H 0.23577 0.79126 0.7782 0.0
H972 H 0.24076 0.8191 0.77113 0.0
H973 H 0.23564 0.76267 0.62764 0.0
H974 H 0.2321 0.74709 0.66568 0.0
H975 H 0.21044 0.75221 0.65218 0.0
H976 H 0.20811 0.717 0.77137 0.0
H977 H 0.157 0.72906 0.73294 0.0
H978 H 0.25326 0.76942 0.75795 0.0
H979 H 0.25158 0.75454 0.72029 0.0
H980 H 0.24594 0.74055 0.76036 0.0
H981 H 0.19058 0.78422 0.71087 0.0
H982 H 0.16493 0.75971 0.69875 0.0
H983 H 0.18972 0.76955 0.6734 0.0
C984 C 0.46939 0.27372 0.7707 0.0
C985 C 0.45415 0.27566 0.74977 0.0
C986 C 0.46717 0.25283 0.77742 0.0
C987 C 0.44917 0.23346 0.7631 0.0
C988 C 0.43329 0.23523 0.74292 0.0
C989 C 0.43602 0.25634 0.73637 0.0
C990 C 0.48448 0.25156 0.79896 0.0
C991 C 0.41374 0.21489 0.72757 0.0
C992 C 0.45757 0.1839 0.75074 0.0
C993 C 0.44678 0.17092 0.77908 0.0
C994 C 0.4582 0.20417 0.74501 0.0
C995 C 0.44758 0.21149 0.76801 0.0
C996 C 0.4361 0.19816 0.79613 0.0
C997 C 0.43592 0.17805 0.80142 0.0
C998 C 0.4707 0.21803 0.71481 0.0
C999 C 0.42438 0.20534 0.82094 0.0
H1000 H 0.48343 0.28857 0.78112 0.0
H1001 H 0.42409 0.25772 0.72034 0.0
H1002 H 0.47634 0.2399 0.82023 0.0
H1003 H 0.49337 0.24494 0.78384 0.0
H1004 H 0.49696 0.26808 0.80927 0.0
H1005 H 0.4021 0.21897 0.71433 0.0
H1006 H 0.41986 0.20704 0.7093 0.0
H1007 H 0.40437 0.20233 0.74734 0.0
H1008 H 0.46603 0.1785 0.73341 0.0
H1009 H 0.42744 0.16803 0.82329 0.0
H1010 H 0.48467 0.23434 0.72325 0.0
H1011 H 0.45952 0.22149 0.69912 0.0
H1012 H 0.47758 0.20969 0.6989 0.0
H1013 H 0.43673 0.22099 0.83358 0.0
H1014 H 0.41521 0.1925 0.84049 0.0
H1015 H 0.41241 0.20888 0.80759 0.0
C1016 C 0.16842 0.43613 0.72318 0.0
C1017 C 0.17027 0.4481 0.69374 0.0
C1018 C 0.1868 0.4352 0.73602 0.0
C1019 C 0.20752 0.44666 0.71912 0.0
C1020 C 0.20942 0.45845 0.6891 0.0
C1021 C 0.19072 0.45896 0.67667 0.0
C1022 C 0.18414 0.4223 0.76797 0.0
C1023 C 0.23132 0.47096 0.67053 0.0
C1024 C 0.25993 0.46414 0.77015 0.0
C1025 C 0.26554 0.44805 0.7607 0.0
C1026 C 0.24107 0.46387 0.75676 0.0
C1027 C 0.22744 0.447 0.73355 0.0
C1028 C 0.23289 0.4306 0.72408 0.0
C1029 C 0.25194 0.43136 0.7377 0.0
C1030 C 0.23581 0.4817 0.7673 0.0
C1031 C 0.2186 0.41228 0.69956 0.0
H1032 H 0.15262 0.4276 0.73639 0.0
H1033 H 0.19227 0.46826 0.65393 0.0
H1034 H 0.18959 0.4099 0.76379 0.0
H1035 H 0.19493 0.43383 0.78799 0.0
H1036 H 0.16664 0.41344 0.77715 0.0
H1037 H 0.22981 0.47871 0.64695 0.0
H1038 H 0.24394 0.48427 0.68692 0.0
H1039 H 0.23768 0.45954 0.6642 0.0
H1040 H 0.27039 0.47712 0.78784 0.0
H1041 H 0.25616 0.41883 0.73036 0.0
H1042 H 0.21901 0.47394 0.77893 0.0
H1043 H 0.23551 0.49111 0.7449 0.0
H1044 H 0.24815 0.49367 0.78555 0.0
H1045 H 0.20127 0.40262 0.70916 0.0
H1046 H 0.225 0.40063 0.69514 0.0
H1047 H 0.21789 0.41962 0.6751 0.0
C1048 C 0.78464 0.26434 0.79881 0.0
C1049 C 0.8068 0.27001 0.79267 0.0
C1050 C 0.76689 0.24529 0.78426 0.0
C1051 C 0.77144 0.23159 0.7631 0.0
C1052 C 0.79373 0.23693 0.75736 0.0
C1053 C 0.81118 0.2561 0.77224 0.0
C1054 C 0.74327 0.24004 0.79103 0.0
C1055 C 0.79917 0.22265 0.73499 0.0
C1056 C 0.72357 0.17307 0.74759 0.0
C1057 C 0.71528 0.17562 0.7167 0.0
C1058 C 0.74222 0.19104 0.76263 0.0
C1059 C 0.7528 0.21199 0.74634 0.0
C1060 C 0.74495 0.2145 0.71468 0.0
C1061 C 0.72626 0.19626 0.70022 0.0
C1062 C 0.75019 0.18776 0.79639 0.0
C1063 C 0.7559 0.23662 0.69653 0.0
H1064 H 0.78112 0.27498 0.81461 0.0
H1065 H 0.82827 0.26035 0.76742 0.0
H1066 H 0.73521 0.24043 0.7671 0.0
H1067 H 0.73335 0.22298 0.80153 0.0
H1068 H 0.74256 0.25202 0.80888 0.0
H1069 H 0.81734 0.22864 0.73413 0.0
H1070 H 0.79035 0.20515 0.74399 0.0
H1071 H 0.79326 0.22259 0.70902 0.0
H1072 H 0.71522 0.15715 0.76044 0.0
H1073 H 0.72 0.19834 0.67629 0.0
H1074 H 0.7481 0.1982 0.8156 0.0
H1075 H 0.76822 0.19322 0.79526 0.0
H1076 H 0.74092 0.1701 0.80479 0.0
H1077 H 0.75421 0.24915 0.71171 0.0
H1078 H 0.74846 0.2355 0.67132 0.0
H1079 H 0.774 0.24284 0.69341 0.0
C1080 C 0.44416 0.08676 0.09 0.0
C1081 C 0.44768 0.10525 0.10917 0.0
C1082 C 0.44187 0.0866 0.05492 0.0
C1083 C 0.44319 0.1054 0.03868 0.0
C1084 C 0.44704 0.12424 0.05782 0.0
C1085 C 0.44924 0.12394 0.09285 0.0
C1086 C 0.43781 0.06622 0.03526 0.0
C1087 C 0.44862 0.14463 0.04132 0.0
C1088 C 0.45636 0.11355 0.94544 0.0
C1089 C 0.43517 0.10599 0.93139 0.0
C1090 C 0.45919 0.11333 0.98033 0.0
C1091 C 0.44038 0.10534 0.00166 0.0
C1092 C 0.41893 0.09754 0.98766 0.0
C1093 C 0.41658 0.09797 0.95266 0.0
C1094 C 0.48233 0.12178 0.99439 0.0
C1095 C 0.39849 0.08887 0.00969 0.0
H1096 H 0.44293 0.07225 0.10242 0.0
H1097 H 0.45199 0.13832 0.10748 0.0
H1098 H 0.42163 0.05911 0.0218 0.0
H1099 H 0.45099 0.0709 0.01596 0.0
H1100 H 0.43754 0.0531 0.05165 0.0
H1101 H 0.45201 0.15803 0.05975 0.0
H1102 H 0.4621 0.15133 0.0222 0.0
H1103 H 0.43281 0.14005 0.02802 0.0
H1104 H 0.47083 0.11977 0.92919 0.0
H1105 H 0.40015 0.09207 0.94199 0.0
H1106 H 0.48278 0.10856 0.00953 0.0
H1107 H 0.4868 0.1361 0.01146 0.0
H1108 H 0.49518 0.12718 0.97434 0.0
H1109 H 0.39673 0.07478 0.02523 0.0
H1110 H 0.38296 0.08311 0.99482 0.0
H1111 H 0.40029 0.10215 0.02723 0.0
C1112 C 0.31348 0.43362 0.90396 0.0
C1113 C 0.33254 0.43633 0.8873 0.0
C1114 C 0.31219 0.43287 0.93917 0.0
C1115 C 0.33043 0.43494 0.95815 0.0
C1116 C 0.34968 0.43758 0.94153 0.0
C1117 C 0.3505 0.43821 0.90626 0.0
C1118 C 0.29136 0.43 0.95606 0.0
C1119 C 0.36946 0.43988 0.96102 0.0
C1120 C 0.33522 0.45421 0.04864 0.0
C1121 C 0.32636 0.43399 0.06624 0.0
C1122 C 0.33682 0.45477 0.01345 0.0
C1123 C 0.32942 0.43464 0.99546 0.0
C1124 C 0.32065 0.4142 0.01305 0.0
C1125 C 0.3192 0.41412 0.04826 0.0
C1126 C 0.34626 0.47689 0.99551 0.0
C1127 C 0.31263 0.39241 0.99465 0.0
H1128 H 0.29951 0.43211 0.88949 0.0
H1129 H 0.36529 0.44033 0.89357 0.0
H1130 H 0.28403 0.41496 0.9723 0.0
H1131 H 0.29561 0.44452 0.97254 0.0
H1132 H 0.27855 0.42834 0.93763 0.0
H1133 H 0.38305 0.44154 0.94428 0.0
H1134 H 0.37618 0.45474 0.97761 0.0
H1135 H 0.3642 0.42514 0.97747 0.0
H1136 H 0.34082 0.46965 0.06234 0.0
H1137 H 0.3124 0.39843 0.06167 0.0
H1138 H 0.33354 0.47666 0.97826 0.0
H1139 H 0.36076 0.4798 0.97991 0.0
H1140 H 0.35166 0.49107 0.01325 0.0
H1141 H 0.29881 0.38939 0.97735 0.0
H1142 H 0.30667 0.37802 0.01209 0.0
H1143 H 0.3263 0.39321 0.97903 0.0
C1144 C 0.86917 0.33567 0.93537 0.0
C1145 C 0.87327 0.31959 0.92084 0.0
C1146 C 0.87142 0.33966 0.97013 0.0
C1147 C 0.878 0.32733 0.99081 0.0
C1148 C 0.88201 0.31097 0.97637 0.0
C1149 C 0.87955 0.30725 0.94153 0.0
C1150 C 0.86686 0.35715 0.98469 0.0
C1151 C 0.88909 0.29753 -0.0023 0.0
C1152 C 0.9037 0.35165 0.07581 0.0
C1153 C 0.88563 0.33952 0.09752 0.0
C1154 C 0.90147 0.34782 0.04098 0.0
C1155 C 0.88065 0.33154 0.02761 0.0
C1156 C 0.86232 0.31934 0.04936 0.0
C1157 C 0.86504 0.32345 0.08406 0.0
C1158 C 0.92139 0.36111 0.01849 0.0
C1159 C 0.83984 0.30193 0.03598 0.0
H1160 H 0.86428 0.34525 0.91956 0.0
H1161 H 0.8828 0.29484 0.93048 0.0
H1162 H 0.85356 0.34956 0.00402 0.0
H1163 H 0.88205 0.3703 -0.00263 0.0
H1164 H 0.86164 0.3651 0.9652 0.0
H1165 H 0.89148 0.28538 0.98259 0.0
H1166 H 0.90495 0.30884 0.01084 0.0
H1167 H 0.87637 0.28829 0.01733 0.0
H1168 H 0.91966 0.36406 0.08603 0.0
H1169 H 0.85096 0.31402 0.10066 0.0
H1170 H 0.9175 0.37051 -0.00032 0.0
H1171 H 0.92535 0.34969 0.00437 0.0
H1172 H 0.93643 0.3731 0.03286 0.0
H1173 H 0.8336 0.30961 0.01763 0.0
H1174 H 0.82725 0.29396 0.05627 0.0
H1175 H 0.84141 0.28877 0.02243 0.0
C1176 C 0.55086 0.90207 0.08447 0.0
C1177 C 0.54703 0.88381 0.10448 0.0
C1178 C 0.55119 0.90086 0.04926 0.0
C1179 C 0.54751 0.88089 0.03376 0.0
C1180 C 0.54366 0.86242 0.05379 0.0
C1181 C 0.5435 0.86411 0.08893 0.0
C1182 C 0.55543 0.92092 0.02865 0.0
C1183 C 0.53958 0.84082 0.03809 0.0
C1184 C 0.52767 0.87068 0.94315 0.0
C1185 C 0.54748 0.87658 0.92573 0.0
C1186 C 0.52742 0.87189 0.97835 0.0
C1187 C 0.54749 0.87926 -0.00348 0.0
C1188 C 0.56753 0.88515 0.97913 0.0
C1189 C 0.56728 0.88369 0.94391 0.0
C1190 C 0.50572 0.86538 0.99608 0.0
C1191 C 0.58926 0.89314 -0.00228 0.0
H1192 H 0.55364 0.91736 0.0963 0.0
H1193 H 0.54049 0.84991 0.10422 0.0
H1194 H 0.57024 0.92617 0.01235 0.0
H1195 H 0.54101 0.91655 0.01186 0.0
H1196 H 0.55826 0.93529 0.0446 0.0
H1197 H 0.53695 0.82805 0.05724 0.0
H1198 H 0.52469 0.834 0.02154 0.0
H1199 H 0.55398 0.84388 0.02211 0.0
H1200 H 0.5123 0.86515 0.92928 0.0
H1201 H 0.58266 0.88832 0.93063 0.0
H1202 H 0.50726 0.87976 0.01064 0.0
H1203 H 0.50181 0.85176 0.01427 0.0
H1204 H 0.49153 0.85974 0.97828 0.0
H1205 H 0.59336 0.90836 0.01239 0.0
H1206 H 0.60335 0.89698 0.98046 0.0
H1207 H 0.58763 0.88026 0.01591 0.0
C1208 C 0.64453 0.56186 0.05776 0.0
C1209 C 0.6553 0.55284 0.07651 0.0
C1210 C 0.64679 0.56384 0.02266 0.0
C1211 C 0.66027 0.55678 0.00602 0.0
C1212 C 0.67134 0.54785 0.02482 0.0
C1213 C 0.66866 0.54591 0.05984 0.0
C1214 C 0.63462 0.57331 0.00334 0.0
C1215 C 0.68596 0.54025 0.00794 0.0
C1216 C 0.65044 0.54145 0.91354 0.0
C1217 C 0.66767 0.56061 0.89831 0.0
C1218 C 0.64765 0.54012 0.94856 0.0
C1219 C 0.66253 0.55834 0.96883 0.0
C1220 C 0.67984 0.5778 0.95364 0.0
C1221 C 0.68218 0.57872 0.91851 0.0
C1222 C 0.62892 0.51913 0.96387 0.0
C1223 C 0.69607 0.59752 0.97453 0.0
H1224 H 0.63414 0.56721 0.07047 0.0
H1225 H 0.67712 0.53902 0.07416 0.0
H1226 H 0.64668 0.58812 0.98875 0.0
H1227 H 0.62298 0.5608 0.98502 0.0
H1228 H 0.62497 0.57824 0.0201 0.0
H1229 H 0.69378 0.53412 0.02627 0.0
H1230 H 0.67595 0.52667 0.98981 0.0
H1231 H 0.69936 0.55421 0.99343 0.0
H1232 H 0.6391 0.52739 0.8981 0.0
H1233 H 0.69553 0.59358 0.90693 0.0
H1234 H 0.61815 0.52323 0.97945 0.0
H1235 H 0.63586 0.51135 0.98075 0.0
H1236 H 0.6184 0.50672 0.94452 0.0
H1237 H 0.68691 0.60353 0.9903 0.0
H1238 H 0.70834 0.61157 0.9588 0.0
H1239 H 0.70528 0.59241 0.99186 0.0
C1240 C 0.10495 0.68637 0.91447 0.0
C1241 C 0.1192 0.68166 0.89556 0.0
C1242 C 0.10564 0.68657 0.94975 0.0
C1243 C 0.12115 0.68223 0.96642 0.0
C1244 C 0.13601 0.6781 0.94745 0.0
C1245 C 0.13476 0.67773 0.91223 0.0
C1246 C 0.08938 0.69082 0.96919 0.0
C1247 C 0.15296 0.67368 0.96437 0.0
C1248 C 0.13449 0.6992 0.05807 0.0
C1249 C 0.12154 0.67875 0.0745 0.0
C1250 C 0.13461 0.70059 0.02284 0.0
C1251 C 0.12124 0.68112 0.00371 0.0
C1252 C 0.10801 0.66048 0.02017 0.0
C1253 C 0.10842 0.65952 0.05537 0.0
C1254 C 0.14913 0.72283 0.00608 0.0
C1255 C 0.09336 0.6394 0.0006 0.0
H1256 H 0.09283 0.68935 0.90173 0.0
H1257 H 0.14592 0.67421 0.89774 0.0
H1258 H 0.07832 0.67596 0.98455 0.0
H1259 H 0.0985 0.70498 0.98681 0.0
H1260 H 0.07885 0.69461 0.95244 0.0
H1261 H 0.16411 0.67198 0.94598 0.0
H1262 H 0.16335 0.68742 0.98205 0.0
H1263 H 0.1443 0.65812 0.97936 0.0
H1264 H 0.14473 0.7141 0.07272 0.0
H1265 H 0.09828 0.64369 0.06794 0.0
H1266 H 0.13872 0.72746 0.99063 0.0
H1267 H 0.16111 0.72167 0.98882 0.0
H1268 H 0.15865 0.73636 0.02457 0.0
H1269 H 0.08143 0.64169 0.98481 0.0
H1270 H 0.08377 0.62478 0.01727 0.0
H1271 H 0.10371 0.6357 0.98338 0.0
C1272 C 0.86688 0.54615 0.57007 0.0
C1273 C 0.88767 0.55224 0.58447 0.0
C1274 C 0.86462 0.54756 0.53523 0.0
C1275 C 0.88358 0.55513 0.5143 0.0
C1276 C 0.90461 0.56131 0.52864 0.0
C1277 C 0.90641 0.55985 0.56358 0.0
C1278 C 0.84195 0.54091 0.5208 0.0
C1279 C 0.92517 0.56934 0.50705 0.0
C1280 C 0.87478 0.53897 0.42204 0.0
C1281 C 0.87793 0.55863 0.40688 0.0
C1282 C 0.87648 0.53758 0.457 0.0
C1283 C 0.88138 0.55628 0.47729 0.0
C1284 C 0.88439 0.57611 0.46222 0.0
C1285 C 0.88266 0.57707 0.42716 0.0
C1286 C 0.87322 0.51616 0.4722 0.0
C1287 C 0.88955 0.59636 0.48313 0.0
H1288 H 0.85233 0.54031 0.58605 0.0
H1289 H 0.92253 0.56455 0.57449 0.0
H1290 H 0.84269 0.55504 0.50657 0.0
H1291 H 0.83682 0.52691 0.50283 0.0
H1292 H 0.82895 0.53571 0.54058 0.0
H1293 H 0.94031 0.57365 0.52216 0.0
H1294 H 0.92264 0.55625 0.48859 0.0
H1295 H 0.92816 0.58426 0.49252 0.0
H1296 H 0.87113 0.52464 0.40656 0.0
H1297 H 0.88509 0.59231 0.41564 0.0
H1298 H 0.85943 0.50965 0.4908 0.0
H1299 H 0.88852 0.51937 0.48587 0.0
H1300 H 0.86932 0.50308 0.45293 0.0
H1301 H 0.87625 0.59199 0.50212 0.0
H1302 H 0.89106 0.61037 0.46759 0.0
H1303 H 0.90541 0.60211 0.49704 0.0
C1304 C 0.339 0.88329 0.55495 0.0
C1305 C 0.3247 0.88985 0.56949 0.0
C1306 C 0.34155 0.88337 0.51996 0.0
C1307 C 0.32955 0.89022 0.49903 0.0
C1308 C 0.3153 0.89711 0.51351 0.0
C1309 C 0.31302 0.89683 0.54861 0.0
C1310 C 0.35689 0.87588 0.50539 0.0
C1311 C 0.30229 0.90458 0.4919 0.0
C1312 C 0.34993 0.90768 0.40956 0.0
C1313 C 0.33543 0.88839 0.39145 0.0
C1314 C 0.34817 0.90855 0.44463 0.0
C1315 C 0.33155 0.88967 0.46191 0.0
C1316 C 0.31693 0.87013 0.44382 0.0
C1317 C 0.31905 0.86973 0.40879 0.0
C1318 C 0.36406 0.92966 0.46317 0.0
C1319 C 0.29904 0.84965 0.46145 0.0
H1320 H 0.34811 0.87789 0.57089 0.0
H1321 H 0.30198 0.90197 0.55967 0.0
H1322 H 0.34726 0.8611 0.48904 0.0
H1323 H 0.36977 0.88925 0.48941 0.0
H1324 H 0.36538 0.8715 0.52518 0.0
H1325 H 0.29235 0.90996 0.50712 0.0
H1326 H 0.31383 0.91864 0.47556 0.0
H1327 H 0.2908 0.89076 0.47512 0.0
H1328 H 0.36261 0.92218 0.39634 0.0
H1329 H 0.30778 0.85476 0.39498 0.0
H1330 H 0.37367 0.92608 0.48202 0.0
H1331 H 0.35455 0.93611 0.47707 0.0
H1332 H 0.37598 0.94291 0.44597 0.0
H1333 H 0.30674 0.84372 0.48027 0.0
H1334 H 0.28899 0.83581 0.44367 0.0
H1335 H 0.28768 0.85382 0.47528 0.0
C1336 C 0.45101 0.36019 0.57682 0.0
C1337 C 0.45223 0.3435 0.59508 0.0
C1338 C 0.44821 0.35863 0.54177 0.0
C1339 C 0.44665 0.33997 0.52466 0.0
C1340 C 0.44819 0.32324 0.54288 0.0
C1341 C 0.45095 0.3252 0.57788 0.0
C1342 C 0.44665 0.37679 0.52311 0.0
C1343 C 0.44667 0.30314 0.52543 0.0
C1344 C 0.41811 0.32367 0.43953 0.0
C1345 C 0.4364 0.33214 0.4176 0.0
C1346 C 0.42121 0.32635 0.47446 0.0
C1347 C 0.44312 0.33775 0.48771 0.0
C1348 C 0.46166 0.34653 0.46571 0.0
C1349 C 0.45807 0.34363 0.4309 0.0
C1350 C 0.40105 0.3168 0.49722 0.0
C1351 C 0.48527 0.35876 0.47897 0.0
H1352 H 0.45197 0.37437 0.58993 0.0
H1353 H 0.45192 0.31225 0.5918 0.0
H1354 H 0.45969 0.38401 0.50335 0.0
H1355 H 0.43026 0.36968 0.51028 0.0
H1356 H 0.44862 0.39042 0.54006 0.0
H1357 H 0.44861 0.29183 0.54319 0.0
H1358 H 0.43031 0.29359 0.51261 0.0
H1359 H 0.45976 0.30854 0.50581 0.0
H1360 H 0.40131 0.31482 0.42945 0.0
H1361 H 0.47231 0.35025 0.41413 0.0
H1362 H 0.40159 0.33012 0.51339 0.0
H1363 H 0.40118 0.30412 0.51414 0.0
H1364 H 0.38514 0.30888 0.48288 0.0
H1365 H 0.48784 0.37309 0.49473 0.0
H1366 H 0.49785 0.36505 0.45845 0.0
H1367 H 0.48827 0.34751 0.49525 0.0
C1368 C 0.10062 0.47189 0.558 0.0
C1369 C 0.10296 0.45668 0.57846 0.0
C1370 C 0.09939 0.46955 0.52287 0.0
C1371 C 0.10052 0.45158 0.50792 0.0
C1372 C 0.1028 0.43614 0.52841 0.0
C1373 C 0.104 0.43888 0.56343 0.0
C1374 C 0.09697 0.48634 0.50173 0.0
C1375 C 0.10405 0.41676 0.51335 0.0
C1376 C 0.07805 0.43314 0.41953 0.0
C1377 C 0.09771 0.44294 0.40043 0.0
C1378 C 0.07869 0.43598 0.45454 0.0
C1379 C 0.09949 0.44896 0.47077 0.0
C1380 C 0.11939 0.45905 0.45163 0.0
C1381 C 0.11826 0.4559 0.41668 0.0
C1382 C 0.05714 0.42495 0.4742 0.0
C1383 C 0.14187 0.47302 0.46811 0.0
H1384 H 0.0998 0.48568 0.56941 0.0
H1385 H 0.1058 0.42704 0.57904 0.0
H1386 H 0.11126 0.4947 0.48414 0.0
H1387 H 0.08161 0.47775 0.48625 0.0
H1388 H 0.09619 0.49927 0.51727 0.0
H1389 H 0.10564 0.40613 0.53283 0.0
H1390 H 0.08888 0.40626 0.49818 0.0
H1391 H 0.11857 0.42301 0.49613 0.0
H1392 H 0.06211 0.42312 0.40717 0.0
H1393 H 0.13353 0.46359 0.4021 0.0
H1394 H 0.05529 0.43765 0.48862 0.0
H1395 H 0.05742 0.41309 0.49268 0.0
H1396 H 0.04232 0.41574 0.4577 0.0
H1397 H 0.14215 0.48694 0.48237 0.0
H1398 H 0.15572 0.4801 0.44955 0.0
H1399 H 0.14495 0.46276 0.48641 0.0
C1400 C 0.63541 0.08502 0.43803 0.0
C1401 C 0.6514 0.1028 0.41876 0.0
C1402 C 0.63677 0.08539 0.47327 0.0
C1403 C 0.65453 0.10397 0.48954 0.0
C1404 C 0.67064 0.12202 0.47025 0.0
C1405 C 0.66888 0.12122 0.43508 0.0
C1406 C 0.61928 0.06584 0.49308 0.0
C1407 C 0.68979 0.14215 0.48677 0.0
C1408 C 0.64789 0.11456 0.58129 0.0
C1409 C 0.66006 0.10604 0.5975 0.0
C1410 C 0.64589 0.11392 0.54615 0.0
C1411 C 0.65632 0.10455 0.52679 0.0
C1412 C 0.66861 0.09591 0.54295 0.0
C1413 C 0.67034 0.09676 0.57816 0.0
C1414 C 0.63267 0.12332 0.52974 0.0
C1415 C 0.67995 0.0858 0.52306 0.0
H1416 H 0.62186 0.07073 0.4256 0.0
H1417 H 0.6813 0.13504 0.42038 0.0
H1418 H 0.62728 0.05833 0.50829 0.0
H1419 H 0.61084 0.07158 0.51086 0.0
H1420 H 0.60647 0.05273 0.47661 0.0
H1421 H 0.70083 0.15485 0.46815 0.0
H1422 H 0.68328 0.15 0.50436 0.0
H1423 H 0.69993 0.13697 0.5018 0.0
H1424 H 0.63989 0.12176 0.59606 0.0
H1425 H 0.67975 0.09013 0.59049 0.0
H1426 H 0.61888 0.11022 0.51457 0.0
H1427 H 0.64351 0.13698 0.51228 0.0
H1428 H 0.62548 0.1299 0.54843 0.0
H1429 H 0.66748 0.07166 0.50769 0.0
H1430 H 0.68875 0.07968 0.53947 0.0
H1431 H 0.69222 0.09834 0.50541 0.0
C1432 C 0.52738 0.64815 0.43923 0.0
C1433 C 0.54826 0.66285 0.42517 0.0
C1434 C 0.52465 0.6453 0.47417 0.0
C1435 C 0.54328 0.65732 0.49551 0.0
C1436 C 0.5644 0.67221 0.4815 0.0
C1437 C 0.56662 0.67486 0.44647 0.0
C1438 C 0.50184 0.62942 0.48825 0.0
C1439 C 0.58467 0.68522 0.50351 0.0
C1440 C 0.53379 0.66571 0.58703 0.0
C1441 C 0.53669 0.64927 0.603 0.0
C1442 C 0.53565 0.66836 0.552 0.0
C1443 C 0.5407 0.65434 0.53253 0.0
C1444 C 0.5435 0.63761 0.54845 0.0
C1445 C 0.54137 0.63521 0.58352 0.0
C1446 C 0.53236 0.68625 0.53584 0.0
C1447 C 0.54903 0.62244 0.52847 0.0
H1448 H 0.51309 0.63885 0.42293 0.0
H1449 H 0.58282 0.6862 0.43578 0.0
H1450 H 0.50242 0.61608 0.50287 0.0
H1451 H 0.49658 0.6384 0.5058 0.0
H1452 H 0.489 0.62153 0.46824 0.0
H1453 H 0.59991 0.69605 0.48865 0.0
H1454 H 0.58174 0.69582 0.52134 0.0
H1455 H 0.58773 0.67358 0.51874 0.0
H1456 H 0.5301 0.67659 0.60192 0.0
H1457 H 0.5437 0.62253 0.59571 0.0
H1458 H 0.51889 0.67873 0.51674 0.0
H1459 H 0.54782 0.69838 0.52257 0.0
H1460 H 0.52801 0.69542 0.55449 0.0
H1461 H 0.53593 0.61323 0.50929 0.0
H1462 H 0.55051 0.61016 0.54464 0.0
H1463 H 0.56499 0.63249 0.51483 0.0
C1464 C 0.53795 0.14902 0.2215 0.0
C1465 C 0.51659 0.13344 0.23305 0.0
C1466 C 0.55701 0.14926 0.23419 0.0
C1467 C 0.5546 0.13348 0.25889 0.0
C1468 C 0.5331 0.11775 0.2707 0.0
C1469 C 0.51436 0.11795 0.25769 0.0
C1470 C 0.57969 0.16633 0.22109 0.0
C1471 C 0.52986 0.1006 0.29692 0.0
C1472 C 0.60065 0.11936 0.26933 0.0
C1473 C 0.61161 0.13154 0.29827 0.0
C1474 C 0.58218 0.11999 0.2561 0.0
C1475 C 0.57454 0.13319 0.27211 0.0
C1476 C 0.58565 0.14571 0.30112 0.0
C1477 C 0.60403 0.1447 0.3139 0.0
C1478 C 0.5707 0.10633 0.22519 0.0
C1479 C 0.57801 0.16004 0.31878 0.0
H1480 H 0.53983 0.16107 0.20252 0.0
H1481 H 0.49792 0.10582 0.26674 0.0
H1482 H 0.59047 0.17648 0.24222 0.0
H1483 H 0.58793 0.15781 0.20925 0.0
H1484 H 0.57874 0.17768 0.20227 0.0
H1485 H 0.51203 0.08963 0.30361 0.0
H1486 H 0.53659 0.09004 0.28753 0.0
H1487 H 0.53925 0.10902 0.32009 0.0
H1488 H 0.60637 0.10913 0.25709 0.0
H1489 H 0.61244 0.15422 0.33621 0.0
H1490 H 0.57056 0.1173 0.20497 0.0
H1491 H 0.55307 0.09405 0.23113 0.0
H1492 H 0.57894 0.0972 0.21544 0.0
H1493 H 0.57797 0.17232 0.30091 0.0
H1494 H 0.58879 0.16918 0.34056 0.0
H1495 H 0.56065 0.1495 0.32787 0.0
C1496 C 0.47493 0.59828 0.2588 0.0
C1497 C 0.48263 0.59346 0.28854 0.0
C1498 C 0.45709 0.58139 0.24065 0.0
C1499 C 0.44665 0.55919 0.2526 0.0
C1500 C 0.45413 0.55425 0.28281 0.0
C1501 C 0.47206 0.57144 0.30039 0.0
C1502 C 0.44959 0.58726 0.20847 0.0
C1503 C 0.44332 0.53076 0.2964 0.0
C1504 C 0.38832 0.5175 0.22253 0.0
C1505 C 0.39269 0.50527 0.19859 0.0
C1506 C 0.40575 0.53528 0.24001 0.0
C1507 C 0.42806 0.54102 0.23329 0.0
C1508 C 0.43262 0.52904 0.20868 0.0
C1509 C 0.41487 0.51128 0.19166 0.0
C1510 C 0.40025 0.54766 0.26614 0.0
C1511 C 0.45623 0.53476 0.20073 0.0
H1512 H 0.48302 0.61524 0.24944 0.0
H1513 H 0.47787 0.56758 0.32337 0.0
H1514 H 0.45148 0.57804 0.18706 0.0
H1515 H 0.43165 0.58211 0.21014 0.0
H1516 H 0.45925 0.60539 0.20288 0.0
H1517 H 0.45082 0.52979 0.3206 0.0
H1518 H 0.42522 0.52419 0.30031 0.0
H1519 H 0.445 0.5197 0.27788 0.0
H1520 H 0.37123 0.51295 0.22808 0.0
H1521 H 0.4184 0.50195 0.17316 0.0
H1522 H 0.40904 0.56573 0.26027 0.0
H1523 H 0.40616 0.54576 0.29122 0.0
H1524 H 0.38207 0.54154 0.26769 0.0
H1525 H 0.4663 0.55255 0.19337 0.0
H1526 H 0.45698 0.52432 0.1801 0.0
H1527 H 0.46412 0.53239 0.22347 0.0
C1528 C 0.86366 0.47862 0.25101 0.0
C1529 C 0.84924 0.47691 0.27712 0.0
C1530 C 0.86356 0.45968 0.23833 0.0
C1531 C 0.84866 0.43849 0.25202 0.0
C1532 C 0.83359 0.43653 0.27768 0.0
C1533 C 0.83407 0.45579 0.28996 0.0
C1534 C 0.8799 0.46245 0.21095 0.0
C1535 C 0.81741 0.41418 0.29278 0.0
C1536 C 0.83914 0.38793 0.20133 0.0
C1537 C 0.85386 0.38238 0.21707 0.0
C1538 C 0.8369 0.40589 0.21285 0.0
C1539 C 0.84975 0.41861 0.24065 0.0
C1540 C 0.8644 0.4129 0.25691 0.0
C1541 C 0.86625 0.39485 0.24497 0.0
C1542 C 0.82105 0.41146 0.19498 0.0
C1543 C 0.87844 0.42613 0.28658 0.0
H1544 H 0.87539 0.49485 0.24082 0.0
H1545 H 0.82283 0.45432 0.31006 0.0
H1546 H 0.89172 0.45732 0.22052 0.0
H1547 H 0.87094 0.45151 0.18927 0.0
H1548 H 0.88963 0.47993 0.20188 0.0
H1549 H 0.80584 0.41531 0.31101 0.0
H1550 H 0.80743 0.4022 0.27266 0.0
H1551 H 0.82674 0.40726 0.30595 0.0
H1552 H 0.82944 0.37833 0.17985 0.0
H1553 H 0.87765 0.39067 0.25733 0.0
H1554 H 0.83051 0.42835 0.18373 0.0
H1555 H 0.80906 0.41177 0.21319 0.0
H1556 H 0.81154 0.39933 0.17471 0.0
H1557 H 0.88993 0.44362 0.27886 0.0
H1558 H 0.88851 0.4191 0.29704 0.0
H1559 H 0.86763 0.42656 0.30683 0.0
C1560 C 0.47627 0.86947 0.2471 0.0
C1561 C 0.47597 0.85742 0.2185 0.0
C1562 C 0.45689 0.86915 0.2582 0.0
C1563 C 0.43669 0.85642 0.24035 0.0
C1564 C 0.43621 0.84413 0.21158 0.0
C1565 C 0.45588 0.8448 0.20096 0.0
C1566 C 0.45805 0.88254 0.28893 0.0
C1567 C 0.41495 0.83033 0.19196 0.0
C1568 C 0.38259 0.84043 0.28613 0.0
C1569 C 0.37747 0.85633 0.27384 0.0
C1570 C 0.40174 0.84015 0.27524 0.0
C1571 C 0.41611 0.8562 0.25161 0.0
C1572 C 0.41102 0.87226 0.23905 0.0
C1573 C 0.39173 0.8721 0.25027 0.0
C1574 C 0.40663 0.82273 0.28909 0.0
C1575 C 0.42601 0.8897 0.21393 0.0
H1576 H 0.49172 0.87929 0.26079 0.0
H1577 H 0.45549 0.83542 0.17887 0.0
H1578 H 0.45305 0.89498 0.28221 0.0
H1579 H 0.44618 0.87142 0.30832 0.0
H1580 H 0.47504 0.89146 0.3001 0.0
H1581 H 0.41732 0.82149 0.17042 0.0
H1582 H 0.40186 0.81781 0.20871 0.0
H1583 H 0.40867 0.84118 0.1822 0.0
H1584 H 0.37164 0.82815 0.30428 0.0
H1585 H 0.38791 0.88447 0.24066 0.0
H1586 H 0.42292 0.83094 0.30233 0.0
H1587 H 0.4079 0.81279 0.2682 0.0
H1588 H 0.39358 0.81121 0.30691 0.0
H1589 H 0.44293 0.89999 0.22477 0.0
H1590 H 0.41957 0.90089 0.20643 0.0
H1591 H 0.42776 0.88153 0.19102 0.0
C1592 C 0.59867 0.46689 0.22197 0.0
C1593 C 0.59794 0.47335 0.18875 0.0
C1594 C 0.57964 0.44969 0.23743 0.0
C1595 C 0.55937 0.43871 0.21924 0.0
C1596 C 0.55871 0.44451 0.18528 0.0
C1597 C 0.57804 0.46176 0.1704 0.0
C1598 C 0.58103 0.44387 0.27364 0.0
C1599 C 0.53739 0.4331 0.1651 0.0
C1600 C 0.51303 0.3839 0.25376 0.0
C1601 C 0.49984 0.39086 0.27091 0.0
C1602 C 0.53237 0.39925 0.23654 0.0
C1603 C 0.53862 0.42207 0.23645 0.0
C1604 C 0.5253 0.42918 0.2535 0.0
C1605 C 0.50608 0.41349 0.27055 0.0
C1606 C 0.5462 0.39109 0.21868 0.0
C1607 C 0.53144 0.45341 0.25391 0.0
H1608 H 0.61401 0.47567 0.23629 0.0
H1609 H 0.57733 0.46663 0.14471 0.0
H1610 H 0.57048 0.44806 0.28958 0.0
H1611 H 0.57452 0.42569 0.27618 0.0
H1612 H 0.59836 0.45293 0.2835 0.0
H1613 H 0.54003 0.43843 0.13833 0.0
H1614 H 0.53007 0.41474 0.16611 0.0
H1615 H 0.52499 0.43696 0.17616 0.0
H1616 H 0.50831 0.36643 0.25387 0.0
H1617 H 0.49595 0.419 0.28364 0.0
H1618 H 0.56324 0.39921 0.22956 0.0
H1619 H 0.54794 0.39575 0.19169 0.0
H1620 H 0.53879 0.37272 0.22057 0.0
H1621 H 0.54801 0.46362 0.26589 0.0
H1622 H 0.51907 0.45613 0.26778 0.0
H1623 H 0.53272 0.45958 0.22779 0.0
C1624 C 0.11706 0.59329 0.21895 0.0
C1625 C 0.10557 0.59163 0.18902 0.0
C1626 C 0.11672 0.57454 0.233 0.0
C1627 C 0.10466 0.55365 0.21668 0.0
C1628 C 0.0934 0.55193 0.18612 0.0
C1629 C 0.09396 0.57094 0.17266 0.0
C1630 C 0.12891 0.57702 0.26567 0.0
C1631 C 0.08045 0.52993 0.16793 0.0
C1632 C 0.11846 0.50871 0.23986 0.0
C1633 C 0.10127 0.49569 0.26253 0.0
C1634 C 0.11965 0.52751 0.22447 0.0
C1635 C 0.10336 0.53349 0.23211 0.0
C1636 C 0.08595 0.5204 0.25491 0.0
C1637 C 0.08508 0.5016 0.26976 0.0
C1638 C 0.13838 0.54101 0.20012 0.0
C1639 C 0.06835 0.52634 0.26382 0.0
H1640 H 0.12609 0.6092 0.23176 0.0
H1641 H 0.08507 0.56952 0.1495 0.0
H1642 H 0.11688 0.5665 0.28536 0.0
H1643 H 0.14105 0.57112 0.2625 0.0
H1644 H 0.138 0.59455 0.27471 0.0
H1645 H 0.07331 0.53156 0.14379 0.0
H1646 H 0.09142 0.52285 0.16268 0.0
H1647 H 0.06664 0.51781 0.18411 0.0
H1648 H 0.13099 0.50419 0.23402 0.0
H1649 H 0.07177 0.49165 0.28728 0.0
H1650 H 0.14856 0.55835 0.20947 0.0
H1651 H 0.13144 0.54187 0.17536 0.0
H1652 H 0.14947 0.53388 0.1964 0.0
H1653 H 0.0763 0.54325 0.27513 0.0
H1654 H 0.05584 0.51434 0.28183 0.0
H1655 H 0.05953 0.52675 0.24075 0.0
C1656 C 0.4632 0.86086 0.77011 0.0
C1657 C 0.47349 0.87603 0.7966 0.0
C1658 C 0.44562 0.86039 0.75187 0.0
C1659 C 0.43827 0.87554 0.76022 0.0
C1660 C 0.44821 0.89051 0.78744 0.0
C1661 C 0.46566 0.89052 0.80539 0.0
C1662 C 0.43526 0.84406 0.72319 0.0
C1663 C 0.44085 0.90696 0.79701 0.0
C1664 C 0.41054 0.89246 0.6933 0.0
C1665 C 0.38806 0.88026 0.70284 0.0
C1666 C 0.42701 0.89078 0.71145 0.0
C1667 C 0.42081 0.87643 0.73967 0.0
C1668 C 0.39809 0.8636 0.74889 0.0
C1669 C 0.38197 0.86571 0.73041 0.0
C1670 C 0.45111 0.90476 0.70091 0.0
C1671 C 0.39086 0.84799 0.77867 0.0
H1672 H 0.46909 0.84953 0.76327 0.0
H1673 H 0.47352 0.90229 0.82581 0.0
H1674 H 0.41691 0.83406 0.72647 0.0
H1675 H 0.43843 0.85326 0.69911 0.0
H1676 H 0.44199 0.83251 0.7212 0.0
H1677 H 0.44973 0.91692 0.81959 0.0
H1678 H 0.44397 0.91856 0.77577 0.0
H1679 H 0.42266 0.89807 0.8021 0.0
H1680 H 0.41538 0.90373 0.67203 0.0
H1681 H 0.36461 0.85613 0.73784 0.0
H1682 H 0.45846 0.89396 0.69638 0.0
H1683 H 0.46085 0.9165 0.72143 0.0
H1684 H 0.45307 0.91454 0.67774 0.0
H1685 H 0.39717 0.83615 0.77609 0.0
H1686 H 0.37243 0.83832 0.78144 0.0
H1687 H 0.39813 0.85767 0.8021 0.0
C1688 C 0.61341 0.45577 0.78679 0.0
C1689 C 0.61818 0.47621 0.77254 0.0
C1690 C 0.5954 0.43564 0.77522 0.0
C1691 C 0.58186 0.43602 0.74883 0.0
C1692 C 0.58698 0.45653 0.7337 0.0
C1693 C 0.60508 0.47637 0.74572 0.0
C1694 C 0.59046 0.41405 0.79188 0.0
C1695 C 0.57291 0.45761 0.70549 0.0
C1696 C 0.54259 0.38331 0.70076 0.0
C1697 C 0.52206 0.3774 0.71589 0.0
C1698 C 0.56235 0.4021 0.71171 0.0
C1699 C 0.56149 0.41521 0.73837 0.0
C1700 C 0.5409 0.40902 0.75424 0.0
C1701 C 0.52145 0.3902 0.74282 0.0
C1702 C 0.58404 0.4082 0.69427 0.0
C1703 C 0.53932 0.42257 0.78281 0.0
H1704 H 0.62351 0.45549 0.80743 0.0
H1705 H 0.60868 0.49208 0.73445 0.0
H1706 H 0.57418 0.40673 0.80507 0.0
H1707 H 0.5891 0.4018 0.77268 0.0
H1708 H 0.60349 0.41643 0.81041 0.0
H1709 H 0.57985 0.47473 0.69521 0.0
H1710 H 0.57155 0.44627 0.68474 0.0
H1711 H 0.55577 0.4519 0.71476 0.0
H1712 H 0.5432 0.37348 0.68 0.0
H1713 H 0.50569 0.38571 0.75478 0.0
H1714 H 0.59672 0.40994 0.71297 0.0
H1715 H 0.5906 0.42456 0.68158 0.0
H1716 H 0.58208 0.3956 0.67521 0.0
H1717 H 0.55094 0.42427 0.80333 0.0
H1718 H 0.52219 0.41499 0.79332 0.0
H1719 H 0.54436 0.43963 0.77386 0.0
C1720 C 0.13327 0.60737 0.74925 0.0
C1721 C 0.13318 0.61062 0.7841 0.0
C1722 C 0.13447 0.58918 0.7362 0.0
C1723 C 0.13564 0.57389 0.75852 0.0
C1724 C 0.13619 0.57739 0.79369 0.0
C1725 C 0.13495 0.59573 0.80607 0.0
C1726 C 0.13385 0.58599 0.69853 0.0
C1727 C 0.13747 0.56143 0.81824 0.0
C1728 C 0.11358 0.51488 0.72689 0.0
C1729 C 0.13331 0.5149 0.71872 0.0
C1730 C 0.11416 0.53394 0.74003 0.0
C1731 C 0.13496 0.55354 0.74508 0.0
C1732 C 0.15496 0.55372 0.7369 0.0
C1733 C 0.1539 0.53437 0.72382 0.0
C1734 C 0.09247 0.53311 0.74846 0.0
C1735 C 0.17743 0.57436 0.7419 0.0
H1736 H 0.132 0.61883 0.73206 0.0
H1737 H 0.13498 0.59816 0.83302 0.0
H1738 H 0.14825 0.58428 0.69033 0.0
H1739 H 0.11847 0.57038 0.69143 0.0
H1740 H 0.1342 0.60007 0.68459 0.0
H1741 H 0.13909 0.56724 0.8447 0.0
H1742 H 0.12222 0.54482 0.81611 0.0
H1743 H 0.1519 0.55924 0.81217 0.0
H1744 H 0.09759 0.49992 0.72308 0.0
H1745 H 0.16921 0.53451 0.71759 0.0
H1746 H 0.09088 0.54579 0.73355 0.0
H1747 H 0.09229 0.53718 0.77542 0.0
H1748 H 0.0777 0.51649 0.74332 0.0
H1749 H 0.17845 0.58831 0.72678 0.0
H1750 H 0.19142 0.57171 0.73454 0.0
H1751 H 0.17959 0.57959 0.76866 0.0
C1752 C 0.60049 0.15089 0.70912 0.0
C1753 C 0.6077 0.13733 0.72439 0.0
C1754 C 0.58275 0.15272 0.72274 0.0
C1755 C 0.57205 0.14073 0.75228 0.0
C1756 C 0.57962 0.12747 0.76824 0.0
C1757 C 0.59733 0.12591 0.75409 0.0
C1758 C 0.5751 0.16702 0.70506 0.0
C1759 C 0.56865 0.11445 0.79984 0.0
C1760 C 0.53535 0.15549 0.80464 0.0
C1761 C 0.51397 0.13887 0.79469 0.0
C1762 C 0.55449 0.1567 0.7904 0.0
C1763 C 0.55214 0.14097 0.76563 0.0
C1764 C 0.53062 0.12456 0.75484 0.0
C1765 C 0.51181 0.12369 0.76952 0.0
C1766 C 0.57721 0.17442 0.8025 0.0
C1767 C 0.52744 0.10753 0.7284 0.0
H1768 H 0.60845 0.15981 0.68621 0.0
H1769 H 0.60285 0.11547 0.76616 0.0
H1770 H 0.55784 0.15639 0.69561 0.0
H1771 H 0.57477 0.17916 0.72294 0.0
H1772 H 0.58601 0.17631 0.68349 0.0
H1773 H 0.57725 0.1058 0.81005 0.0
H1774 H 0.56847 0.12574 0.81951 0.0
H1775 H 0.55104 0.10179 0.79445 0.0
H1776 H 0.53715 0.1673 0.82401 0.0
H1777 H 0.49535 0.11088 0.76152 0.0
H1778 H 0.58775 0.18399 0.78084 0.0
H1779 H 0.58571 0.16645 0.8152 0.0
H1780 H 0.57621 0.18623 0.82039 0.0
H1781 H 0.53691 0.11599 0.70533 0.0
H1782 H 0.50962 0.09661 0.72155 0.0
H1783 H 0.53407 0.09689 0.73778 0.0
C1784 C 0.38048 0.52626 0.79591 0.0
C1785 C 0.37294 0.50694 0.77632 0.0
C1786 C 0.39884 0.54656 0.78576 0.0
C1787 C 0.40994 0.54753 0.75537 0.0
C1788 C 0.40232 0.52815 0.73535 0.0
C1789 C 0.38389 0.50809 0.74605 0.0
C1790 C 0.40648 0.56691 0.80772 0.0
C1791 C 0.4138 0.52855 0.70282 0.0
C1792 C 0.44672 0.60383 0.71428 0.0
C1793 C 0.46803 0.6086 0.72465 0.0
C1794 C 0.42762 0.58405 0.72423 0.0
C1795 C 0.42992 0.5687 0.74495 0.0
C1796 C 0.45137 0.57346 0.7556 0.0
C1797 C 0.47015 0.59336 0.74536 0.0
C1798 C 0.40498 0.57953 0.71248 0.0
C1799 C 0.45449 0.55746 0.77765 0.0
H1800 H 0.37209 0.52554 0.81928 0.0
H1801 H 0.37817 0.49324 0.73075 0.0
H1802 H 0.42382 0.57296 0.81637 0.0
H1803 H 0.40658 0.58059 0.79305 0.0
H1804 H 0.39567 0.5635 0.83015 0.0
H1805 H 0.40551 0.51214 0.68984 0.0
H1806 H 0.41402 0.54125 0.68558 0.0
H1807 H 0.4314 0.53335 0.70789 0.0
H1808 H 0.44493 0.61552 0.6983 0.0
H1809 H 0.48655 0.59688 0.75348 0.0
H1810 H 0.39415 0.57715 0.73448 0.0
H1811 H 0.39676 0.56389 0.69757 0.0
H1812 H 0.40602 0.59329 0.69678 0.0
H1813 H 0.44505 0.55454 0.80145 0.0
H1814 H 0.47229 0.56371 0.78388 0.0
H1815 H 0.44775 0.54111 0.76481 0.0
C1816 C 0.854 0.38087 0.76182 0.0
C1817 C 0.87426 0.38695 0.77806 0.0
C1818 C 0.85064 0.39684 0.74519 0.0
C1819 C 0.86799 0.41936 0.74471 0.0
C1820 C 0.88848 0.42557 0.76097 0.0
C1821 C 0.89135 0.40931 0.77751 0.0
C1822 C 0.82854 0.38966 0.72824 0.0
C1823 C 0.9074 0.44944 0.76094 0.0
C1824 C 0.87056 0.46029 0.67902 0.0
C1825 C 0.86402 0.47318 0.69787 0.0
C1826 C 0.87109 0.4421 0.69357 0.0
C1827 C 0.86479 0.43663 0.72766 0.0
C1828 C 0.85705 0.44885 0.74625 0.0
C1829 C 0.85681 0.46702 0.73115 0.0
C1830 C 0.87943 0.42942 0.67297 0.0
C1831 C 0.84998 0.44339 0.78256 0.0
H1832 H 0.8407 0.36363 0.76215 0.0
H1833 H 0.90707 0.41414 0.78989 0.0
H1834 H 0.82067 0.39877 0.73931 0.0
H1835 H 0.83117 0.39393 0.7011 0.0
H1836 H 0.8168 0.37147 0.73075 0.0
H1837 H 0.92238 0.45145 0.77438 0.0
H1838 H 0.91218 0.45537 0.73469 0.0
H1839 H 0.90196 0.46035 0.77311 0.0
H1840 H 0.87612 0.46492 0.65328 0.0
H1841 H 0.85153 0.47678 0.7458 0.0
H1842 H 0.86757 0.41123 0.6745 0.0
H1843 H 0.89561 0.43243 0.68327 0.0
H1844 H 0.88184 0.43449 0.64609 0.0
H1845 H 0.83771 0.42538 0.78536 0.0
H1846 H 0.84249 0.45317 0.79251 0.0
H1847 H 0.86468 0.44701 0.79826 0.0
loop_
_geom_bond_atom_site_label_1
_geom_bond_atom_site_label_2
_geom_bond_distance
_geom_bond_site_symmetry_2
_ccdc_geom_bond_type
C0 O1 1.160 . S
C0 O7 1.185 . S
O1 C0 1.160 . S
O2 Zn3 1.899 . S
O2 C10 1.284 . S
Zn3 O2 1.899 . S
Zn3 O4 2.032 . S
Zn3 O7 2.086 . S
Zn3 O12 1.977 . S
O4 Zn3 2.032 . S
O4 C8 1.278 . S
C5 O6 1.203 . S
C5 O12 1.267 . S
O6 C5 1.203 . S
O7 C0 1.185 . S
O7 Zn3 2.086 . S
C8 O4 1.278 . S
C8 O9 1.211 . S
O9 C8 1.211 . S
C10 O2 1.284 . S
C10 O11 1.273 . S
O11 C10 1.273 . S
O12 Zn3 1.977 . S
O12 C5 1.267 . S
C13 O14 1.160 . S
C13 O20 1.185 . S
O14 C13 1.160 . S
O15 Zn16 1.899 . S
O15 C23 1.284 . S
Zn16 O15 1.899 . S
Zn16 O17 2.032 . S
Zn16 O20 2.086 . S
Zn16 O25 1.977 . S
O17 Zn16 2.032 . S
O17 C21 1.278 . S
C18 O19 1.203 . S
C18 O25 1.267 . S
O19 C18 1.203 . S
O20 C13 1.185 . S
O20 Zn16 2.086 . S
C21 O17 1.278 . S
C21 O22 1.211 . S
O22 C21 1.211 . S
C23 O15 1.284 . S
C23 O24 1.273 . S
O24 C23 1.273 . S
O25 Zn16 1.977 . S
O25 C18 1.267 . S
C26 O27 1.160 . S
C26 O33 1.185 . S
O27 C26 1.160 . S
O28 Zn29 1.899 . S
O28 C36 1.284 . S
Zn29 O28 1.899 . S
Zn29 O30 2.032 . S
Zn29 O33 2.086 . S
Zn29 O38 1.977 . S
O30 Zn29 2.032 . S
O30 C34 1.278 . S
C31 O32 1.203 . S
C31 O38 1.267 . S
O32 C31 1.203 . S
O33 C26 1.185 . S
O33 Zn29 2.086 . S
C34 O30 1.278 . S
C34 O35 1.211 . S
O35 C34 1.211 . S
C36 O28 1.284 . S
C36 O37 1.273 . S
O37 C36 1.273 . S
O38 Zn29 1.977 . S
O38 C31 1.267 . S
C39 O40 1.160 . S
C39 O46 1.185 . S
O40 C39 1.160 . S
O41 Zn42 1.899 . S
O41 C49 1.284 . S
Zn42 O41 1.899 . S
Zn42 O43 2.032 . S
Zn42 O46 2.086 . S
Zn42 O51 1.977 . S
O43 Zn42 2.032 . S
O43 C47 1.278 . S
C44 O45 1.203 . S
C44 O51 1.267 . S
O45 C44 1.203 . S
O46 C39 1.185 . S
O46 Zn42 2.086 . S
C47 O43 1.278 . S
C47 O48 1.211 . S
O48 C47 1.211 . S
C49 O41 1.284 . S
C49 O50 1.273 . S
O50 C49 1.273 . S
O51 Zn42 1.977 . S
O51 C44 1.267 . S
C52 O53 1.160 . S
C52 O59 1.185 . S
O53 C52 1.160 . S
O54 Zn55 1.899 . S
O54 C62 1.284 . S
Zn55 O54 1.899 . S
Zn55 O56 2.032 . S
Zn55 O59 2.086 . S
Zn55 O64 1.977 . S
O56 Zn55 2.032 . S
O56 C60 1.278 . S
C57 O58 1.203 . S
C57 O64 1.267 . S
O58 C57 1.203 . S
O59 C52 1.185 . S
O59 Zn55 2.086 . S
C60 O56 1.278 . S
C60 O61 1.211 . S
O61 C60 1.211 . S
C62 O54 1.284 . S
C62 O63 1.273 . S
O63 C62 1.273 . S
O64 Zn55 1.977 . S
O64 C57 1.267 . S
C65 O66 1.160 . S
C65 O72 1.185 . S
O66 C65 1.160 . S
O67 Zn68 1.899 . S
O67 C75 1.284 . S
Zn68 O67 1.899 . S
Zn68 O69 2.032 . S
Zn68 O72 2.086 . S
Zn68 O77 1.977 . S
O69 Zn68 2.032 . S
O69 C73 1.278 . S
C70 O71 1.203 . S
C70 O77 1.267 . S
O71 C70 1.203 . S
O72 C65 1.185 . S
O72 Zn68 2.086 . S
C73 O69 1.278 . S
C73 O74 1.211 . S
O74 C73 1.211 . S
C75 O67 1.284 . S
C75 O76 1.273 . S
O76 C75 1.273 . S
O77 Zn68 1.977 . S
O77 C70 1.267 . S
C78 O79 1.160 . S
C78 O85 1.185 . S
O79 C78 1.160 . S
O80 Zn81 1.899 . S
O80 C88 1.284 . S
Zn81 O80 1.899 . S
Zn81 O82 2.032 . S
Zn81 O85 2.086 . S
Zn81 O90 1.977 . S
O82 Zn81 2.032 . S
O82 C86 1.278 . S
C83 O84 1.203 . S
C83 O90 1.267 . S
O84 C83 1.203 . S
O85 C78 1.185 . S
O85 Zn81 2.086 . S
C86 O82 1.278 . S
C86 O87 1.211 . S
O87 C86 1.211 . S
C88 O80 1.284 . S
C88 O89 1.273 . S
O89 C88 1.273 . S
O90 Zn81 1.977 . S
O90 C83 1.267 . S
C91 O92 1.160 . S
C91 O98 1.185 . S
O92 C91 1.160 . S
O93 Zn94 1.899 . S
O93 C101 1.284 . S
Zn94 O93 1.899 . S
Zn94 O95 2.032 . S
Zn94 O98 2.086 . S
Zn94 O103 1.977 . S
O95 Zn94 2.032 . S
O95 C99 1.278 . S
C96 O97 1.203 . S
C96 O103 1.267 . S
O97 C96 1.203 . S
O98 C91 1.185 . S
O98 Zn94 2.086 . S
C99 O95 1.278 . S
C99 O100 1.211 . S
O100 C99 1.211 . S
C101 O93 1.284 . S
C101 O102 1.273 . S
O102 C101 1.273 . S
O103 Zn94 1.977 . S
O103 C96 1.267 . S
C104 O105 1.160 . S
C104 O111 1.185 . S
O105 C104 1.160 . S
O106 Zn107 1.899 . S
O106 C114 1.284 . S
Zn107 O106 1.899 . S
Zn107 O108 2.032 . S
Zn107 O111 2.086 . S
Zn107 O116 1.977 . S
O108 Zn107 2.032 . S
O108 C112 1.278 . S
C109 O110 1.203 . S
C109 O116 1.267 . S
O110 C109 1.203 . S
O111 C104 1.185 . S
O111 Zn107 2.086 . S
C112 O108 1.278 . S
C112 O113 1.211 . S
O113 C112 1.211 . S
C114 O106 1.284 . S
C114 O115 1.273 . S
O115 C114 1.273 . S
O116 Zn107 1.977 . S
O116 C109 1.267 . S
C117 O118 1.160 . S
C117 O124 1.185 . S
O118 C117 1.160 . S
O119 Zn120 1.899 . S
O119 C127 1.284 . S
Zn120 O119 1.899 . S
Zn120 O121 2.032 . S
Zn120 O124 2.086 . S
Zn120 O129 1.977 . S
O121 Zn120 2.032 . S
O121 C125 1.278 . S
C122 O123 1.203 . S
C122 O129 1.267 . S
O123 C122 1.203 . S
O124 C117 1.185 . S
O124 Zn120 2.086 . S
C125 O121 1.278 . S
C125 O126 1.211 . S
O126 C125 1.211 . S
C127 O119 1.284 . S
C127 O128 1.273 . S
O128 C127 1.273 . S
O129 Zn120 1.977 . S
O129 C122 1.267 . S
C130 O131 1.160 . S
C130 O137 1.185 . S
O131 C130 1.160 . S
O132 Zn133 1.899 . S
O132 C140 1.284 . S
Zn133 O132 1.899 . S
Zn133 O134 2.032 . S
Zn133 O137 2.086 . S
Zn133 O142 1.977 . S
O134 Zn133 2.032 . S
O134 C138 1.278 . S
C135 O136 1.203 . S
C135 O142 1.267 . S
O136 C135 1.203 . S
O137 C130 1.185 . S
O137 Zn133 2.086 . S
C138 O134 1.278 . S
C138 O139 1.211 . S
O139 C138 1.211 . S
C140 O132 1.284 . S
C140 O141 1.273 . S
O141 C140 1.273 . S
O142 Zn133 1.977 . S
O142 C135 1.267 . S
C143 O144 1.160 . S
C143 O150 1.185 . S
O144 C143 1.160 . S
O145 Zn146 1.899 . S
O145 C153 1.284 . S
Zn146 O145 1.899 . S
Zn146 O147 2.032 . S
Zn146 O150 2.086 . S
Zn146 O155 1.977 . S
O147 Zn146 2.032 . S
O147 C151 1.278 . S
C148 O149 1.203 . S
C148 O155 1.267 . S
O149 C148 1.203 . S
O150 C143 1.185 . S
O150 Zn146 2.086 . S
C151 O147 1.278 . S
C151 O152 1.211 . S
O152 C151 1.211 . S
C153 O145 1.284 . S
C153 O154 1.273 . S
O154 C153 1.273 . S
O155 Zn146 1.977 . S
O155 C148 1.267 . S
C156 O157 1.160 . S
C156 O163 1.185 . S
O157 C156 1.160 . S
O158 Zn159 1.899 . S
O158 C166 1.284 . S
Zn159 O158 1.899 . S
Zn159 O160 2.032 . S
Zn159 O163 2.086 . S
Zn159 O168 1.977 . S
O160 Zn159 2.032 . S
O160 C164 1.278 . S
C161 O162 1.203 . S
C161 O168 1.267 . S
O162 C161 1.203 . S
O163 C156 1.185 . S
O163 Zn159 2.086 . S
C164 O160 1.278 . S
C164 O165 1.211 . S
O165 C164 1.211 . S
C166 O158 1.284 . S
C166 O167 1.273 . S
O167 C166 1.273 . S
O168 Zn159 1.977 . S
O168 C161 1.267 . S
C169 O170 1.160 . S
C169 O176 1.185 . S
O170 C169 1.160 . S
O171 Zn172 1.899 . S
O171 C179 1.284 . S
Zn172 O171 1.899 . S
Zn172 O173 2.032 . S
Zn172 O176 2.086 . S
Zn172 O181 1.977 . S
O173 Zn172 2.032 . S
O173 C177 1.278 . S
C174 O175 1.203 . S
C174 O181 1.267 . S
O175 C174 1.203 . S
O176 C169 1.185 . S
O176 Zn172 2.086 . S
C177 O173 1.278 . S
C177 O178 1.211 . S
O178 C177 1.211 . S
C179 O171 1.284 . S
C179 O180 1.273 . S
O180 C179 1.273 . S
O181 Zn172 1.977 . S
O181 C174 1.267 . S
C182 O183 1.160 . S
C182 O189 1.185 . S
O183 C182 1.160 . S
O184 Zn185 1.899 . S
O184 C192 1.284 . S
Zn185 O184 1.899 . S
Zn185 O186 2.032 . S
Zn185 O189 2.086 . S
Zn185 O194 1.977 . S
O186 Zn185 2.032 . S
O186 C190 1.278 . S
C187 O188 1.203 . S
C187 O194 1.267 . S
O188 C187 1.203 . S
O189 C182 1.185 . S
O189 Zn185 2.086 . S
C190 O186 1.278 . S
C190 O191 1.211 . S
O191 C190 1.211 . S
C192 O184 1.284 . S
C192 O193 1.273 . S
O193 C192 1.273 . S
O194 Zn185 1.977 . S
O194 C187 1.267 . S
C195 O196 1.160 . S
C195 O202 1.185 . S
O196 C195 1.160 . S
O197 Zn198 1.899 . S
O197 C205 1.284 . S
Zn198 O197 1.899 . S
Zn198 O199 2.032 . S
Zn198 O202 2.086 . S
Zn198 O207 1.977 . S
O199 Zn198 2.032 . S
O199 C203 1.278 . S
C200 O201 1.203 . S
C200 O207 1.267 . S
O201 C200 1.203 . S
O202 C195 1.185 . S
O202 Zn198 2.086 . S
C203 O199 1.278 . S
C203 O204 1.211 . S
O204 C203 1.211 . S
C205 O197 1.284 . S
C205 O206 1.273 . S
O206 C205 1.273 . S
O207 Zn198 1.977 . S
O207 C200 1.267 . S
C208 O209 1.160 . S
C208 O215 1.185 . S
O209 C208 1.160 . S
O210 Zn211 1.899 . S
O210 C218 1.284 . S
Zn211 O210 1.899 . S
Zn211 O212 2.032 . S
Zn211 O215 2.086 . S
Zn211 O220 1.977 . S
O212 Zn211 2.032 . S
O212 C216 1.278 . S
C213 O214 1.203 . S
C213 O220 1.267 . S
O214 C213 1.203 . S
O215 C208 1.185 . S
O215 Zn211 2.086 . S
C216 O212 1.278 . S
C216 O217 1.211 . S
O217 C216 1.211 . S
C218 O210 1.284 . S
C218 O219 1.273 . S
O219 C218 1.273 . S
O220 Zn211 1.977 . S
O220 C213 1.267 . S
C221 O222 1.160 . S
C221 O228 1.185 . S
O222 C221 1.160 . S
O223 Zn224 1.899 . S
O223 C231 1.284 . S
Zn224 O223 1.899 . S
Zn224 O225 2.032 . S
Zn224 O228 2.086 . S
Zn224 O233 1.977 . S
O225 Zn224 2.032 . S
O225 C229 1.278 . S
C226 O227 1.203 . S
C226 O233 1.267 . S
O227 C226 1.203 . S
O228 C221 1.185 . S
O228 Zn224 2.086 . S
C229 O225 1.278 . S
C229 O230 1.211 . S
O230 C229 1.211 . S
C231 O223 1.284 . S
C231 O232 1.273 . S
O232 C231 1.273 . S
O233 Zn224 1.977 . S
O233 C226 1.267 . S
C234 O235 1.160 . S
C234 O241 1.185 . S
O235 C234 1.160 . S
O236 Zn237 1.899 . S
O236 C244 1.284 . S
Zn237 O236 1.899 . S
Zn237 O238 2.032 . S
Zn237 O241 2.086 . S
Zn237 O246 1.977 . S
O238 Zn237 2.032 . S
O238 C242 1.278 . S
C239 O240 1.203 . S
C239 O246 1.267 . S
O240 C239 1.203 . S
O241 C234 1.185 . S
O241 Zn237 2.086 . S
C242 O238 1.278 . S
C242 O243 1.211 . S
O243 C242 1.211 . S
C244 O236 1.284 . S
C244 O245 1.273 . S
O245 C244 1.273 . S
O246 Zn237 1.977 . S
O246 C239 1.267 . S
C247 O248 1.160 . S
C247 O254 1.185 . S
O248 C247 1.160 . S
O249 Zn250 1.899 . S
O249 C257 1.284 . S
Zn250 O249 1.899 . S
Zn250 O251 2.032 . S
Zn250 O254 2.086 . S
Zn250 O259 1.977 . S
O251 Zn250 2.032 . S
O251 C255 1.278 . S
C252 O253 1.203 . S
C252 O259 1.267 . S
O253 C252 1.203 . S
O254 C247 1.185 . S
O254 Zn250 2.086 . S
C255 O251 1.278 . S
C255 O256 1.211 . S
O256 C255 1.211 . S
C257 O249 1.284 . S
C257 O258 1.273 . S
O258 C257 1.273 . S
O259 Zn250 1.977 . S
O259 C252 1.267 . S
C260 O261 1.160 . S
C260 O267 1.185 . S
O261 C260 1.160 . S
O262 Zn263 1.899 . S
O262 C270 1.284 . S
Zn263 O262 1.899 . S
Zn263 O264 2.032 . S
Zn263 O267 2.086 . S
Zn263 O272 1.977 . S
O264 Zn263 2.032 . S
O264 C268 1.278 . S
C265 O266 1.203 . S
C265 O272 1.267 . S
O266 C265 1.203 . S
O267 C260 1.185 . S
O267 Zn263 2.086 . S
C268 O264 1.278 . S
C268 O269 1.211 . S
O269 C268 1.211 . S
C270 O262 1.284 . S
C270 O271 1.273 . S
O271 C270 1.273 . S
O272 Zn263 1.977 . S
O272 C265 1.267 . S
C273 O274 1.160 . S
C273 O280 1.185 . S
O274 C273 1.160 . S
O275 Zn276 1.899 . S
O275 C283 1.284 . S
Zn276 O275 1.899 . S
Zn276 O277 2.032 . S
Zn276 O280 2.086 . S
Zn276 O285 1.977 . S
O277 Zn276 2.032 . S
O277 C281 1.278 . S
C278 O279 1.203 . S
C278 O285 1.267 . S
O279 C278 1.203 . S
O280 C273 1.185 . S
O280 Zn276 2.086 . S
C281 O277 1.278 . S
C281 O282 1.211 . S
O282 C281 1.211 . S
C283 O275 1.284 . S
C283 O284 1.273 . S
O284 C283 1.273 . S
O285 Zn276 1.977 . S
O285 C278 1.267 . S
C286 O287 1.160 . S
C286 O293 1.185 . S
O287 C286 1.160 . S
O288 Zn289 1.899 . S
O288 C296 1.284 . S
Zn289 O288 1.899 . S
Zn289 O290 2.032 . S
Zn289 O293 2.086 . S
Zn289 O298 1.977 . S
O290 Zn289 2.032 . S
O290 C294 1.278 . S
C291 O292 1.203 . S
C291 O298 1.267 . S
O292 C291 1.203 . S
O293 C286 1.185 . S
O293 Zn289 2.086 . S
C294 O290 1.278 . S
C294 O295 1.211 . S
O295 C294 1.211 . S
C296 O288 1.284 . S
C296 O297 1.273 . S
O297 C296 1.273 . S
O298 Zn289 1.977 . S
O298 C291 1.267 . S
C299 O300 1.160 . S
C299 O306 1.185 . S
O300 C299 1.160 . S
O301 Zn302 1.899 . S
O301 C309 1.284 . S
Zn302 O301 1.899 . S
Zn302 O303 2.032 . S
Zn302 O306 2.086 . S
Zn302 O311 1.977 . S
O303 Zn302 2.032 . S
O303 C307 1.278 . S
C304 O305 1.203 . S
C304 O311 1.267 . S
O305 C304 1.203 . S
O306 C299 1.185 . S
O306 Zn302 2.086 . S
C307 O303 1.278 . S
C307 O308 1.211 . S
O308 C307 1.211 . S
C309 O301 1.284 . S
C309 O310 1.273 . S
O310 C309 1.273 . S
O311 Zn302 1.977 . S
O311 C304 1.267 . S
C312 C313 1.391 . S
C312 C314 1.394 . S
C312 H328 0.931 . S
C313 C312 1.391 . S
C313 C317 1.376 . S
C314 C312 1.394 . S
C314 C315 1.369 . S
C314 C318 1.531 . S
C315 C314 1.369 . S
C315 C316 1.410 . S
C315 C323 1.503 1_545 S
C316 C315 1.410 . S
C316 C317 1.392 . S
C316 C319 1.511 . S
C317 C313 1.376 . S
C317 C316 1.392 . S
C317 H329 0.929 . S
C318 C314 1.531 . S
C318 H330 0.960 1_545 S
C318 H331 0.943 . S
C318 H332 0.960 . S
C319 C316 1.511 . S
C319 H333 0.961 . S
C319 H334 0.961 . S
C319 H335 0.961 . S
C320 C321 1.370 . S
C320 C322 1.363 . S
C320 H336 0.931 . S
C321 C320 1.370 . S
C321 C325 1.408 . S
C322 C320 1.363 . S
C322 C323 1.370 . S
C322 C326 1.487 1_565 S
C323 C315 1.503 1_565 S
C323 C322 1.370 . S
C323 C324 1.403 . S
C324 C323 1.403 . S
C324 C325 1.404 . S
C324 C327 1.539 . S
C325 C321 1.408 . S
C325 C324 1.404 . S
C325 H337 0.930 . S
C326 C322 1.487 1_545 S
C326 H338 0.984 . S
C326 H339 0.976 . S
C326 H340 0.957 1_545 S
C327 C324 1.539 . S
C327 H341 0.958 . S
C327 H342 0.961 . S
C327 H343 0.960 . S
H328 C312 0.931 . S
H329 C317 0.929 . S
H330 C318 0.960 1_565 S
H331 C318 0.943 . S
H332 C318 0.960 . S
H333 C319 0.961 . S
H334 C319 0.961 . S
H335 C319 0.961 . S
H336 C320 0.931 . S
H337 C325 0.930 . S
H338 C326 0.984 . S
H339 C326 0.976 . S
H340 C326 0.957 1_565 S
H341 C327 0.958 . S
H342 C327 0.961 . S
H343 C327 0.960 . S
C344 C345 1.391 . S
C344 C346 1.394 . S
C344 H360 0.931 . S
C345 C344 1.391 . S
C345 C349 1.376 . S
C346 C344 1.394 . S
C346 C347 1.369 . S
C346 C350 1.531 . S
C347 C346 1.369 . S
C347 C348 1.410 . S
C347 C355 1.503 . S
C348 C347 1.410 . S
C348 C349 1.392 . S
C348 C351 1.511 . S
C349 C345 1.376 . S
C349 C348 1.392 . S
C349 H361 0.929 . S
C350 C346 1.531 . S
C350 H362 0.960 . S
C350 H363 0.962 . S
C350 H364 0.960 . S
C351 C348 1.511 . S
C351 H365 0.961 . S
C351 H366 0.961 . S
C351 H367 0.961 . S
C352 C353 1.370 . S
C352 C354 1.363 . S
C352 H368 0.931 . S
C353 C352 1.370 . S
C353 C357 1.408 . S
C354 C352 1.363 . S
C354 C355 1.370 . S
C354 C358 1.524 . S
C355 C347 1.503 . S
C355 C354 1.370 . S
C355 C356 1.403 . S
C356 C355 1.403 . S
C356 C357 1.404 . S
C356 C359 1.539 . S
C357 C353 1.408 . S
C357 C356 1.404 . S
C357 H369 0.930 . S
C358 C354 1.524 . S
C358 H370 0.956 . S
C358 H371 0.961 . S
C358 H372 0.961 . S
C359 C356 1.539 . S
C359 H373 0.958 . S
C359 H374 0.961 . S
C359 H375 0.960 . S
H360 C344 0.931 . S
H361 C349 0.929 . S
H362 C350 0.960 . S
H363 C350 0.962 . S
H364 C350 0.960 . S
H365 C351 0.961 . S
H366 C351 0.961 . S
H367 C351 0.961 . S
H368 C352 0.931 . S
H369 C357 0.930 . S
H370 C358 0.956 . S
H371 C358 0.961 . S
H372 C358 0.961 . S
H373 C359 0.958 . S
H374 C359 0.961 . S
H375 C359 0.960 . S
C376 C377 1.391 . S
C376 C378 1.394 . S
C376 H392 0.931 . S
C377 C376 1.391 . S
C377 C381 1.376 . S
C378 C376 1.394 . S
C378 C379 1.369 . S
C378 C382 1.531 . S
C379 C378 1.369 . S
C379 C380 1.410 . S
C379 C387 1.503 1_655 S
C380 C379 1.410 . S
C380 C381 1.392 . S
C380 C383 1.511 1_655 S
C381 C377 1.376 . S
C381 C380 1.392 . S
C381 H393 0.929 . S
C382 C378 1.531 . S
C382 H394 0.960 . S
C382 H395 0.962 . S
C382 H396 0.960 . S
C383 C380 1.511 1_455 S
C383 H397 0.961 1_455 S
C383 H398 0.961 . S
C383 H399 0.961 . S
C384 C385 1.370 . S
C384 C386 1.363 . S
C384 H400 0.931 . S
C385 C384 1.370 . S
C385 C389 1.408 . S
C386 C384 1.363 . S
C386 C387 1.370 . S
C386 C390 1.524 . S
C387 C379 1.503 1_455 S
C387 C386 1.370 . S
C387 C388 1.403 . S
C388 C387 1.403 . S
C388 C389 1.404 . S
C388 C391 1.539 . S
C389 C385 1.408 . S
C389 C388 1.404 . S
C389 H401 0.930 . S
C390 C386 1.524 . S
C390 H402 0.956 1_455 S
C390 H403 0.961 . S
C390 H404 0.961 . S
C391 C388 1.539 . S
C391 H405 0.958 . S
C391 H406 0.961 . S
C391 H407 0.960 . S
H392 C376 0.931 . S
H393 C381 0.929 . S
H394 C382 0.960 . S
H395 C382 0.962 . S
H396 C382 0.960 . S
H397 C383 0.961 1_655 S
H398 C383 0.961 . S
H399 C383 0.961 . S
H400 C384 0.931 . S
H401 C389 0.930 . S
H402 C390 0.956 1_655 S
H403 C390 0.961 . S
H404 C390 0.961 . S
H405 C391 0.958 . S
H406 C391 0.961 . S
H407 C391 0.960 . S
C408 C409 1.391 . S
C408 C410 1.394 . S
C408 H424 0.931 . S
C409 C408 1.391 . S
C409 C413 1.376 . S
C410 C408 1.394 . S
C410 C411 1.369 . S
C410 C414 1.531 . S
C411 C410 1.369 . S
C411 C412 1.410 . S
C411 C419 1.503 1_565 S
C412 C411 1.410 . S
C412 C413 1.392 . S
C412 C415 1.511 . S
C413 C409 1.376 . S
C413 C412 1.392 . S
C413 H425 0.929 . S
C414 C410 1.531 . S
C414 H426 0.960 . S
C414 H427 0.962 . S
C414 H428 0.960 . S
C415 C412 1.511 . S
C415 H429 0.961 . S
C415 H430 0.961 1_565 S
C415 H431 0.961 . S
C416 C417 1.370 . S
C416 C418 1.363 . S
C416 H432 0.931 . S
C417 C416 1.370 . S
C417 C421 1.408 . S
C418 C416 1.363 . S
C418 C419 1.370 . S
C418 C422 1.524 . S
C419 C411 1.503 1_545 S
C419 C418 1.370 . S
C419 C420 1.403 . S
C420 C419 1.403 . S
C420 C421 1.404 . S
C420 C423 1.544 . S
C421 C417 1.408 . S
C421 C420 1.404 . S
C421 H433 0.930 . S
C422 C418 1.524 . S
C422 H434 0.956 . S
C422 H435 0.961 . S
C422 H436 0.961 . S
C423 C420 1.544 . S
C423 H437 0.959 1_545 S
C423 H438 0.962 . S
C423 H439 0.953 1_545 S
H424 C408 0.931 . S
H425 C413 0.929 . S
H426 C414 0.960 . S
H427 C414 0.962 . S
H428 C414 0.960 . S
H429 C415 0.961 . S
H430 C415 0.961 1_545 S
H431 C415 0.961 . S
H432 C416 0.931 . S
H433 C421 0.930 . S
H434 C422 0.956 . S
H435 C422 0.961 . S
H436 C422 0.961 . S
H437 C423 0.959 1_565 S
H438 C423 0.962 . S
H439 C423 0.953 1_565 S
C440 C441 1.391 . S
C440 C442 1.394 . S
C440 H456 0.931 . S
C441 C440 1.391 . S
C441 C445 1.376 . S
C442 C440 1.394 . S
C442 C443 1.369 . S
C442 C446 1.531 . S
C443 C442 1.369 . S
C443 C444 1.410 . S
C443 C451 1.503 . S
C444 C443 1.410 . S
C444 C445 1.392 . S
C444 C447 1.511 . S
C445 C441 1.376 . S
C445 C444 1.392 . S
C445 H457 0.929 . S
C446 C442 1.531 . S
C446 H458 0.960 . S
C446 H459 0.962 . S
C446 H460 0.960 . S
C447 C444 1.511 . S
C447 H461 0.961 . S
C447 H462 0.961 . S
C447 H463 0.961 . S
C448 C449 1.370 . S
C448 C450 1.363 . S
C448 H464 0.931 . S
C449 C448 1.370 . S
C449 C453 1.408 . S
C450 C448 1.363 . S
C450 C451 1.370 . S
C450 C454 1.524 . S
C451 C443 1.503 . S
C451 C450 1.370 . S
C451 C452 1.403 . S
C452 C451 1.403 . S
C452 C453 1.404 . S
C452 C455 1.539 . S
C453 C449 1.408 . S
C453 C452 1.404 . S
C453 H465 0.930 . S
C454 C450 1.524 . S
C454 H466 0.956 . S
C454 H467 0.961 . S
C454 H468 0.961 . S
C455 C452 1.539 . S
C455 H469 0.958 . S
C455 H470 0.961 . S
C455 H471 0.960 . S
H456 C440 0.931 . S
H457 C445 0.929 . S
H458 C446 0.960 . S
H459 C446 0.962 . S
H460 C446 0.960 . S
H461 C447 0.961 . S
H462 C447 0.961 . S
H463 C447 0.961 . S
H464 C448 0.931 . S
H465 C453 0.930 . S
H466 C454 0.956 . S
H467 C454 0.961 . S
H468 C454 0.961 . S
H469 C455 0.958 . S
H470 C455 0.961 . S
H471 C455 0.960 . S
C472 C473 1.391 . S
C472 C474 1.394 . S
C472 H488 0.931 . S
C473 C472 1.391 . S
C473 C477 1.376 . S
C474 C472 1.394 . S
C474 C475 1.369 . S
C474 C478 1.531 . S
C475 C474 1.369 . S
C475 C476 1.410 . S
C475 C483 1.503 1_455 S
C476 C475 1.410 . S
C476 C477 1.392 . S
C476 C479 1.520 . S
C477 C473 1.376 . S
C477 C476 1.392 . S
C477 H489 0.929 . S
C478 C474 1.531 . S
C478 H490 0.960 . S
C478 H491 0.962 . S
C478 H492 0.960 . S
C479 C476 1.520 . S
C479 H493 0.986 . S
C479 H494 0.946 1_455 S
C479 H495 0.942 1_455 S
C480 C481 1.370 . S
C480 C482 1.363 . S
C480 H496 0.931 . S
C481 C480 1.370 . S
C481 C485 1.408 . S
C482 C480 1.363 . S
C482 C483 1.370 . S
C482 C486 1.543 . S
C483 C475 1.503 1_655 S
C483 C482 1.370 . S
C483 C484 1.403 . S
C484 C483 1.403 . S
C484 C485 1.404 . S
C484 C487 1.539 . S
C485 C481 1.408 . S
C485 C484 1.404 . S
C485 H497 0.930 . S
C486 C482 1.543 . S
C486 H498 0.949 1_655 S
C486 H499 0.947 1_655 S
C486 H500 0.962 . S
C487 C484 1.539 . S
C487 H501 0.958 . S
C487 H502 0.961 . S
C487 H503 0.960 . S
H488 C472 0.931 . S
H489 C477 0.929 . S
H490 C478 0.960 . S
H491 C478 0.962 . S
H492 C478 0.960 . S
H493 C479 0.986 . S
H494 C479 0.946 1_655 S
H495 C479 0.942 1_655 S
H496 C480 0.931 . S
H497 C485 0.930 . S
H498 C486 0.949 1_455 S
H499 C486 0.947 1_455 S
H500 C486 0.962 . S
H501 C487 0.958 . S
H502 C487 0.961 . S
H503 C487 0.960 . S
C504 C505 1.391 . S
C504 C506 1.394 . S
C504 H520 0.931 . S
C505 C504 1.391 . S
C505 C509 1.376 . S
C506 C504 1.394 . S
C506 C507 1.369 . S
C506 C510 1.531 . S
C507 C506 1.369 . S
C507 C508 1.410 . S
C507 C515 1.503 1_565 S
C508 C507 1.410 . S
C508 C509 1.392 . S
C508 C511 1.511 . S
C509 C505 1.376 . S
C509 C508 1.392 . S
C509 H521 0.929 . S
C510 C506 1.531 . S
C510 H522 0.960 1_565 S
C510 H523 0.962 . S
C510 H524 0.960 . S
C511 C508 1.511 . S
C511 H525 0.961 . S
C511 H526 0.961 . S
C511 H527 0.961 . S
C512 C513 1.370 . S
C512 C514 1.363 . S
C512 H528 0.931 . S
C513 C512 1.370 . S
C513 C517 1.408 . S
C514 C512 1.363 . S
C514 C515 1.370 . S
C514 C518 1.524 1_545 S
C515 C507 1.503 1_545 S
C515 C514 1.370 . S
C515 C516 1.403 . S
C516 C515 1.403 . S
C516 C517 1.404 . S
C516 C519 1.539 . S
C517 C513 1.408 . S
C517 C516 1.404 . S
C517 H529 0.930 . S
C518 C514 1.524 1_565 S
C518 H530 0.956 . S
C518 H531 0.961 . S
C518 H532 0.961 1_565 S
C519 C516 1.539 . S
C519 H533 0.958 . S
C519 H534 0.961 . S
C519 H535 0.960 . S
H520 C504 0.931 . S
H521 C509 0.929 . S
H522 C510 0.960 1_545 S
H523 C510 0.962 . S
H524 C510 0.960 . S
H525 C511 0.961 . S
H526 C511 0.961 . S
H527 C511 0.961 . S
H528 C512 0.931 . S
H529 C517 0.930 . S
H530 C518 0.956 . S
H531 C518 0.961 . S
H532 C518 0.961 1_545 S
H533 C519 0.958 . S
H534 C519 0.961 . S
H535 C519 0.960 . S
C536 C537 1.391 . S
C536 C538 1.394 . S
C536 H552 0.931 . S
C537 C536 1.391 . S
C537 C541 1.376 . S
C538 C536 1.394 . S
C538 C539 1.369 . S
C538 C542 1.531 . S
C539 C538 1.369 . S
C539 C540 1.410 . S
C539 C547 1.503 . S
C540 C539 1.410 . S
C540 C541 1.392 . S
C540 C543 1.511 . S
C541 C537 1.376 . S
C541 C540 1.392 . S
C541 H553 0.929 . S
C542 C538 1.531 . S
C542 H554 0.960 . S
C542 H555 0.962 . S
C542 H556 0.960 . S
C543 C540 1.511 . S
C543 H557 0.961 . S
C543 H558 0.961 . S
C543 H559 0.961 . S
C544 C545 1.370 . S
C544 C546 1.363 . S
C544 H560 0.931 . S
C545 C544 1.370 . S
C545 C549 1.408 . S
C546 C544 1.363 . S
C546 C547 1.370 . S
C546 C550 1.524 . S
C547 C539 1.503 . S
C547 C546 1.370 . S
C547 C548 1.403 . S
C548 C547 1.403 . S
C548 C549 1.404 . S
C548 C551 1.539 . S
C549 C545 1.408 . S
C549 C548 1.404 . S
C549 H561 0.930 . S
C550 C546 1.524 . S
C550 H562 0.956 . S
C550 H563 0.961 . S
C550 H564 0.961 . S
C551 C548 1.539 . S
C551 H565 0.958 . S
C551 H566 0.961 . S
C551 H567 0.960 . S
H552 C536 0.931 . S
H553 C541 0.929 . S
H554 C542 0.960 . S
H555 C542 0.962 . S
H556 C542 0.960 . S
H557 C543 0.961 . S
H558 C543 0.961 . S
H559 C543 0.961 . S
H560 C544 0.931 . S
H561 C549 0.930 . S
H562 C550 0.956 . S
H563 C550 0.961 . S
H564 C550 0.961 . S
H565 C551 0.958 . S
H566 C551 0.961 . S
H567 C551 0.960 . S
C568 C569 1.391 . S
C568 C570 1.394 . S
C568 H584 0.931 . S
C569 C568 1.391 . S
C569 C573 1.376 . S
C570 C568 1.394 . S
C570 C571 1.369 . S
C570 C574 1.531 . S
C571 C570 1.369 . S
C571 C572 1.410 . S
C571 C579 1.503 1_655 S
C572 C571 1.410 . S
C572 C573 1.392 . S
C572 C575 1.511 . S
C573 C569 1.376 . S
C573 C572 1.392 . S
C573 H585 0.929 . S
C574 C570 1.531 . S
C574 H586 0.960 1_655 S
C574 H587 0.962 . S
C574 H588 0.960 . S
C575 C572 1.511 . S
C575 H589 0.961 . S
C575 H590 0.961 1_655 S
C575 H591 0.961 . S
C576 C577 1.370 . S
C576 C578 1.363 . S
C576 H592 0.931 . S
C577 C576 1.370 . S
C577 C581 1.408 . S
C578 C576 1.363 . S
C578 C579 1.370 . S
C578 C582 1.524 1_455 S
C579 C571 1.503 1_455 S
C579 C578 1.370 . S
C579 C580 1.403 . S
C580 C579 1.403 . S
C580 C581 1.404 . S
C580 C583 1.539 . S
C581 C577 1.408 . S
C581 C580 1.404 . S
C581 H593 0.930 . S
C582 C578 1.524 1_655 S
C582 H594 0.956 . S
C582 H595 0.961 . S
C582 H596 0.961 1_655 S
C583 C580 1.539 . S
C583 H597 0.958 . S
C583 H598 0.961 . S
C583 H599 0.960 . S
H584 C568 0.931 . S
H585 C573 0.929 . S
H586 C574 0.960 1_455 S
H587 C574 0.962 . S
H588 C574 0.960 . S
H589 C575 0.961 . S
H590 C575 0.961 1_455 S
H591 C575 0.961 . S
H592 C576 0.931 . S
H593 C581 0.930 . S
H594 C582 0.956 . S
H595 C582 0.961 . S
H596 C582 0.961 1_455 S
H597 C583 0.958 . S
H598 C583 0.961 . S
H599 C583 0.960 . S
C600 C601 1.391 . S
C600 C602 1.394 . S
C600 H616 0.931 . S
C601 C600 1.391 . S
C601 C605 1.376 . S
C602 C600 1.394 . S
C602 C603 1.369 . S
C602 C606 1.531 . S
C603 C602 1.369 . S
C603 C604 1.410 . S
C603 C611 1.503 1_545 S
C604 C603 1.410 . S
C604 C605 1.392 . S
C604 C607 1.511 1_545 S
C605 C601 1.376 . S
C605 C604 1.392 . S
C605 H617 0.929 . S
C606 C602 1.531 . S
C606 H618 0.960 . S
C606 H619 0.962 . S
C606 H620 0.960 . S
C607 C604 1.511 1_565 S
C607 H621 0.961 1_565 S
C607 H622 0.961 . S
C607 H623 0.961 . S
C608 C609 1.370 . S
C608 C610 1.363 . S
C608 H624 0.931 . S
C609 C608 1.370 . S
C609 C613 1.408 . S
C610 C608 1.363 . S
C610 C611 1.370 . S
C610 C614 1.524 . S
C611 C603 1.503 1_565 S
C611 C610 1.370 . S
C611 C612 1.403 . S
C612 C611 1.403 . S
C612 C613 1.404 . S
C612 C615 1.539 . S
C613 C609 1.408 . S
C613 C612 1.404 . S
C613 H625 0.930 . S
C614 C610 1.524 . S
C614 H626 0.956 1_565 S
C614 H627 0.980 . S
C614 H628 0.961 . S
C615 C612 1.539 . S
C615 H629 0.958 . S
C615 H630 0.961 . S
C615 H631 0.960 . S
H616 C600 0.931 . S
H617 C605 0.929 . S
H618 C606 0.960 . S
H619 C606 0.962 . S
H620 C606 0.960 . S
H621 C607 0.961 1_545 S
H622 C607 0.961 . S
H623 C607 0.961 . S
H624 C608 0.931 . S
H625 C613 0.930 . S
H626 C614 0.956 1_545 S
H627 C614 0.980 . S
H628 C614 0.961 . S
H629 C615 0.958 . S
H630 C615 0.961 . S
H631 C615 0.960 . S
C632 C633 1.391 . S
C632 C634 1.394 . S
C632 H648 0.931 . S
C633 C632 1.391 . S
C633 C637 1.376 . S
C634 C632 1.394 . S
C634 C635 1.369 . S
C634 C638 1.531 . S
C635 C634 1.369 . S
C635 C636 1.410 . S
C635 C643 1.503 . S
C636 C635 1.410 . S
C636 C637 1.392 . S
C636 C639 1.511 . S
C637 C633 1.376 . S
C637 C636 1.392 . S
C637 H649 0.929 . S
C638 C634 1.531 . S
C638 H650 0.960 . S
C638 H651 0.962 . S
C638 H652 0.960 . S
C639 C636 1.511 . S
C639 H653 0.961 . S
C639 H654 0.961 . S
C639 H655 0.961 . S
C640 C641 1.370 . S
C640 C642 1.363 . S
C640 H656 0.931 . S
C641 C640 1.370 . S
C641 C645 1.408 . S
C642 C640 1.363 . S
C642 C643 1.370 . S
C642 C646 1.524 . S
C643 C635 1.503 . S
C643 C642 1.370 . S
C643 C644 1.403 . S
C644 C643 1.403 . S
C644 C645 1.404 . S
C644 C647 1.539 . S
C645 C641 1.408 . S
C645 C644 1.404 . S
C645 H657 0.930 . S
C646 C642 1.524 . S
C646 H658 0.956 . S
C646 H659 0.961 . S
C646 H660 0.961 . S
C647 C644 1.539 . S
C647 H661 0.958 . S
C647 H662 0.961 . S
C647 H663 0.960 . S
H648 C632 0.931 . S
H649 C637 0.929 . S
H650 C638 0.960 . S
H651 C638 0.962 . S
H652 C638 0.960 . S
H653 C639 0.961 . S
H654 C639 0.961 . S
H655 C639 0.961 . S
H656 C640 0.931 . S
H657 C645 0.930 . S
H658 C646 0.956 . S
H659 C646 0.961 . S
H660 C646 0.961 . S
H661 C647 0.958 . S
H662 C647 0.961 . S
H663 C647 0.960 . S
C664 C665 1.391 . S
C664 C666 1.394 . S
C664 H680 0.931 . S
C665 C664 1.391 . S
C665 C669 1.376 . S
C666 C664 1.394 . S
C666 C667 1.369 . S
C666 C670 1.531 . S
C667 C666 1.369 . S
C667 C668 1.410 . S
C667 C675 1.503 1_455 S
C668 C667 1.410 . S
C668 C669 1.392 . S
C668 C671 1.513 1_455 S
C669 C665 1.376 . S
C669 C668 1.392 . S
C669 H681 0.929 . S
C670 C666 1.531 . S
C670 H682 0.960 . S
C670 H683 0.962 . S
C670 H684 0.960 . S
C671 C668 1.513 1_655 S
C671 H685 0.961 1_655 S
C671 H686 0.960 . S
C671 H687 0.959 . S
C672 C673 1.370 . S
C672 C674 1.363 . S
C672 H688 0.931 . S
C673 C672 1.370 . S
C673 C677 1.408 . S
C674 C672 1.363 . S
C674 C675 1.370 . S
C674 C678 1.524 . S
C675 C667 1.503 1_655 S
C675 C674 1.370 . S
C675 C676 1.403 . S
C676 C675 1.403 . S
C676 C677 1.404 . S
C676 C679 1.539 . S
C677 C673 1.408 . S
C677 C676 1.404 . S
C677 H689 0.930 . S
C678 C674 1.524 . S
C678 H690 0.956 . S
C678 H691 0.961 . S
C678 H692 0.961 . S
C679 C676 1.539 . S
C679 H693 0.958 . S
C679 H694 0.961 . S
C679 H695 0.960 1_655 S
H680 C664 0.931 . S
H681 C669 0.929 . S
H682 C670 0.960 . S
H683 C670 0.962 . S
H684 C670 0.960 . S
H685 C671 0.961 1_455 S
H686 C671 0.960 . S
H687 C671 0.959 . S
H688 C672 0.931 . S
H689 C677 0.930 . S
H690 C678 0.956 . S
H691 C678 0.961 . S
H692 C678 0.961 . S
H693 C679 0.958 . S
H694 C679 0.961 . S
H695 C679 0.960 1_455 S
C696 C697 1.391 . S
C696 C698 1.394 . S
C696 H712 0.931 . S
C697 C696 1.391 . S
C697 C701 1.376 . S
C698 C696 1.394 . S
C698 C699 1.369 . S
C698 C702 1.531 . S
C699 C698 1.369 . S
C699 C700 1.410 . S
C699 C707 1.503 . S
C700 C699 1.410 . S
C700 C701 1.392 . S
C700 C703 1.511 . S
C701 C697 1.376 . S
C701 C700 1.392 . S
C701 H713 0.929 . S
C702 C698 1.531 . S
C702 H714 0.960 . S
C702 H715 0.962 . S
C702 H716 0.960 . S
C703 C700 1.511 . S
C703 H717 0.961 . S
C703 H718 0.961 . S
C703 H719 0.961 . S
C704 C705 1.370 . S
C704 C706 1.363 . S
C704 H720 0.931 . S
C705 C704 1.370 . S
C705 C709 1.408 . S
C706 C704 1.363 . S
C706 C707 1.370 . S
C706 C710 1.524 . S
C707 C699 1.503 . S
C707 C706 1.370 . S
C707 C708 1.403 . S
C708 C707 1.403 . S
C708 C709 1.404 . S
C708 C711 1.539 . S
C709 C705 1.408 . S
C709 C708 1.404 . S
C709 H721 0.930 . S
C710 C706 1.524 . S
C710 H722 0.956 . S
C710 H723 0.961 . S
C710 H724 0.961 . S
C711 C708 1.539 . S
C711 H725 0.958 . S
C711 H726 0.961 . S
C711 H727 0.960 . S
H712 C696 0.931 . S
H713 C701 0.929 . S
H714 C702 0.960 . S
H715 C702 0.962 . S
H716 C702 0.960 . S
H717 C703 0.961 . S
H718 C703 0.961 . S
H719 C703 0.961 . S
H720 C704 0.931 . S
H721 C709 0.930 . S
H722 C710 0.956 . S
H723 C710 0.961 . S
H724 C710 0.961 . S
H725 C711 0.958 . S
H726 C711 0.961 . S
H727 C711 0.960 . S
C728 C729 1.391 . S
C728 C730 1.394 . S
C728 H744 0.931 . S
C729 C728 1.391 . S
C729 C733 1.376 . S
C730 C728 1.394 . S
C730 C731 1.369 . S
C730 C734 1.531 . S
C731 C730 1.369 . S
C731 C732 1.410 . S
C731 C739 1.503 . S
C732 C731 1.410 . S
C732 C733 1.392 . S
C732 C735 1.511 . S
C733 C729 1.376 . S
C733 C732 1.392 . S
C733 H745 0.929 . S
C734 C730 1.531 . S
C734 H746 0.960 . S
C734 H747 0.962 . S
C734 H748 0.960 . S
C735 C732 1.511 . S
C735 H749 0.961 . S
C735 H750 0.961 . S
C735 H751 0.961 . S
C736 C737 1.370 . S
C736 C738 1.363 . S
C736 H752 0.931 . S
C737 C736 1.370 . S
C737 C741 1.408 . S
C738 C736 1.363 . S
C738 C739 1.370 . S
C738 C742 1.524 . S
C739 C731 1.503 . S
C739 C738 1.370 . S
C739 C740 1.403 . S
C740 C739 1.403 . S
C740 C741 1.404 . S
C740 C743 1.539 . S
C741 C737 1.408 . S
C741 C740 1.404 . S
C741 H753 0.930 . S
C742 C738 1.524 . S
C742 H754 0.956 . S
C742 H755 0.961 . S
C742 H756 0.961 . S
C743 C740 1.539 . S
C743 H757 0.958 . S
C743 H758 0.961 . S
C743 H759 0.960 . S
H744 C728 0.931 . S
H745 C733 0.929 . S
H746 C734 0.960 . S
H747 C734 0.962 . S
H748 C734 0.960 . S
H749 C735 0.961 . S
H750 C735 0.961 . S
H751 C735 0.961 . S
H752 C736 0.931 . S
H753 C741 0.930 . S
H754 C742 0.956 . S
H755 C742 0.961 . S
H756 C742 0.961 . S
H757 C743 0.958 . S
H758 C743 0.961 . S
H759 C743 0.960 . S
C760 C761 1.391 . S
C760 C762 1.394 . S
C760 H776 0.931 . S
C761 C760 1.391 . S
C761 C765 1.376 . S
C762 C760 1.394 . S
C762 C763 1.369 . S
C762 C766 1.531 . S
C763 C762 1.369 . S
C763 C764 1.410 . S
C763 C771 1.503 . S
C764 C763 1.410 . S
C764 C765 1.392 . S
C764 C767 1.511 . S
C765 C761 1.376 . S
C765 C764 1.392 . S
C765 H777 0.929 . S
C766 C762 1.531 . S
C766 H778 0.960 . S
C766 H779 0.962 . S
C766 H780 0.960 . S
C767 C764 1.511 . S
C767 H781 0.961 . S
C767 H782 0.961 . S
C767 H783 0.961 . S
C768 C769 1.370 . S
C768 C770 1.363 . S
C768 H784 0.931 . S
C769 C768 1.370 . S
C769 C773 1.408 . S
C770 C768 1.363 . S
C770 C771 1.370 . S
C770 C774 1.524 . S
C771 C763 1.503 . S
C771 C770 1.370 . S
C771 C772 1.403 . S
C772 C771 1.403 . S
C772 C773 1.404 . S
C772 C775 1.539 . S
C773 C769 1.408 . S
C773 C772 1.404 . S
C773 H785 0.930 . S
C774 C770 1.524 . S
C774 H786 0.956 . S
C774 H787 0.961 . S
C774 H788 0.961 . S
C775 C772 1.539 . S
C775 H789 0.958 . S
C775 H790 0.961 . S
C775 H791 0.960 . S
H776 C760 0.931 . S
H777 C765 0.929 . S
H778 C766 0.960 . S
H779 C766 0.962 . S
H780 C766 0.960 . S
H781 C767 0.961 . S
H782 C767 0.961 . S
H783 C767 0.961 . S
H784 C768 0.931 . S
H785 C773 0.930 . S
H786 C774 0.956 . S
H787 C774 0.961 . S
H788 C774 0.961 . S
H789 C775 0.958 . S
H790 C775 0.961 . S
H791 C775 0.960 . S
C792 C793 1.391 . S
C792 C794 1.394 . S
C792 H808 0.931 . S
C793 C792 1.391 . S
C793 C797 1.376 . S
C794 C792 1.394 . S
C794 C795 1.369 . S
C794 C798 1.531 . S
C795 C794 1.369 . S
C795 C796 1.410 . S
C795 C803 1.503 . S
C796 C795 1.410 . S
C796 C797 1.392 . S
C796 C799 1.511 . S
C797 C793 1.376 . S
C797 C796 1.392 . S
C797 H809 0.929 . S
C798 C794 1.531 . S
C798 H810 0.960 . S
C798 H811 0.962 . S
C798 H812 0.960 . S
C799 C796 1.511 . S
C799 H813 0.961 . S
C799 H814 0.961 . S
C799 H815 0.961 . S
C800 C801 1.370 . S
C800 C802 1.363 . S
C800 H816 0.931 . S
C801 C800 1.370 . S
C801 C805 1.408 . S
C802 C800 1.363 . S
C802 C803 1.370 . S
C802 C806 1.524 . S
C803 C795 1.503 . S
C803 C802 1.370 . S
C803 C804 1.403 . S
C804 C803 1.403 . S
C804 C805 1.404 . S
C804 C807 1.539 . S
C805 C801 1.408 . S
C805 C804 1.404 . S
C805 H817 0.930 . S
C806 C802 1.524 . S
C806 H818 0.956 . S
C806 H819 0.961 . S
C806 H820 0.961 . S
C807 C804 1.539 . S
C807 H821 0.958 . S
C807 H822 0.961 . S
C807 H823 0.960 . S
H808 C792 0.931 . S
H809 C797 0.929 . S
H810 C798 0.960 . S
H811 C798 0.962 . S
H812 C798 0.960 . S
H813 C799 0.961 . S
H814 C799 0.961 . S
H815 C799 0.961 . S
H816 C800 0.931 . S
H817 C805 0.930 . S
H818 C806 0.956 . S
H819 C806 0.961 . S
H820 C806 0.961 . S
H821 C807 0.958 . S
H822 C807 0.961 . S
H823 C807 0.960 . S
C824 C825 1.391 . S
C824 C826 1.394 . S
C824 H840 0.931 . S
C825 C824 1.391 . S
C825 C829 1.376 . S
C826 C824 1.394 . S
C826 C827 1.369 . S
C826 C830 1.531 . S
C827 C826 1.369 . S
C827 C828 1.410 . S
C827 C835 1.503 . S
C828 C827 1.410 . S
C828 C829 1.392 . S
C828 C831 1.511 . S
C829 C825 1.376 . S
C829 C828 1.392 . S
C829 H841 0.929 . S
C830 C826 1.531 . S
C830 H842 0.960 . S
C830 H843 0.962 . S
C830 H844 0.960 . S
C831 C828 1.511 . S
C831 H845 0.961 . S
C831 H846 0.961 . S
C831 H847 0.961 . S
C832 C833 1.370 . S
C832 C834 1.363 . S
C832 H848 0.931 . S
C833 C832 1.370 . S
C833 C837 1.408 . S
C834 C832 1.363 . S
C834 C835 1.370 . S
C834 C838 1.524 . S
C835 C827 1.503 . S
C835 C834 1.370 . S
C835 C836 1.403 . S
C836 C835 1.403 . S
C836 C837 1.404 . S
C836 C839 1.539 . S
C837 C833 1.408 . S
C837 C836 1.404 . S
C837 H849 0.930 . S
C838 C834 1.524 . S
C838 H850 0.956 . S
C838 H851 0.961 . S
C838 H852 0.961 . S
C839 C836 1.539 . S
C839 H853 0.958 . S
C839 H854 0.961 . S
C839 H855 0.960 . S
H840 C824 0.931 . S
H841 C829 0.929 . S
H842 C830 0.960 . S
H843 C830 0.962 . S
H844 C830 0.960 . S
H845 C831 0.961 . S
H846 C831 0.961 . S
H847 C831 0.961 . S
H848 C832 0.931 . S
H849 C837 0.930 . S
H850 C838 0.956 . S
H851 C838 0.961 . S
H852 C838 0.961 . S
H853 C839 0.958 . S
H854 C839 0.961 . S
H855 C839 0.960 . S
C856 C857 1.391 . S
C856 C858 1.394 . S
C856 H872 0.931 . S
C857 C856 1.391 . S
C857 C861 1.376 . S
C858 C856 1.394 . S
C858 C859 1.369 . S
C858 C862 1.531 . S
C859 C858 1.369 . S
C859 C860 1.410 . S
C859 C867 1.503 . S
C860 C859 1.410 . S
C860 C861 1.392 . S
C860 C863 1.511 . S
C861 C857 1.376 . S
C861 C860 1.392 . S
C861 H873 0.929 . S
C862 C858 1.531 . S
C862 H874 0.960 . S
C862 H875 0.962 . S
C862 H876 0.960 . S
C863 C860 1.511 . S
C863 H877 0.961 . S
C863 H878 0.961 . S
C863 H879 0.961 . S
C864 C865 1.370 . S
C864 C866 1.363 . S
C864 H880 0.931 . S
C865 C864 1.370 . S
C865 C869 1.408 . S
C866 C864 1.363 . S
C866 C867 1.370 . S
C866 C870 1.524 . S
C867 C859 1.503 . S
C867 C866 1.370 . S
C867 C868 1.403 . S
C868 C867 1.403 . S
C868 C869 1.404 . S
C868 C871 1.539 . S
C869 C865 1.408 . S
C869 C868 1.404 . S
C869 H881 0.930 . S
C870 C866 1.524 . S
C870 H882 0.956 . S
C870 H883 0.961 . S
C870 H884 0.961 . S
C871 C868 1.539 . S
C871 H885 0.958 . S
C871 H886 0.961 . S
C871 H887 0.960 . S
H872 C856 0.931 . S
H873 C861 0.929 . S
H874 C862 0.960 . S
H875 C862 0.962 . S
H876 C862 0.960 . S
H877 C863 0.961 . S
H878 C863 0.961 . S
H879 C863 0.961 . S
H880 C864 0.931 . S
H881 C869 0.930 . S
H882 C870 0.956 . S
H883 C870 0.961 . S
H884 C870 0.961 . S
H885 C871 0.958 . S
H886 C871 0.961 . S
H887 C871 0.960 . S
C888 C889 1.391 . S
C888 C890 1.394 . S
C888 H904 0.931 . S
C889 C888 1.391 . S
C889 C893 1.376 . S
C890 C888 1.394 . S
C890 C891 1.369 . S
C890 C894 1.531 . S
C891 C890 1.369 . S
C891 C892 1.410 . S
C891 C899 1.503 . S
C892 C891 1.410 . S
C892 C893 1.392 . S
C892 C895 1.511 . S
C893 C889 1.376 . S
C893 C892 1.392 . S
C893 H905 0.929 . S
C894 C890 1.531 . S
C894 H906 0.960 . S
C894 H907 0.962 . S
C894 H908 0.960 . S
C895 C892 1.511 . S
C895 H909 0.961 . S
C895 H910 0.961 . S
C895 H911 0.961 . S
C896 C897 1.370 . S
C896 C898 1.363 . S
C896 H912 0.931 . S
C897 C896 1.370 . S
C897 C901 1.408 . S
C898 C896 1.363 . S
C898 C899 1.370 . S
C898 C902 1.524 . S
C899 C891 1.503 . S
C899 C898 1.370 . S
C899 C900 1.403 . S
C900 C899 1.403 . S
C900 C901 1.404 . S
C900 C903 1.539 . S
C901 C897 1.408 . S
C901 C900 1.404 . S
C901 H913 0.930 . S
C902 C898 1.524 . S
C902 H914 0.956 . S
C902 H915 0.961 . S
C902 H916 0.961 . S
C903 C900 1.539 . S
C903 H917 0.958 . S
C903 H918 0.961 . S
C903 H919 0.960 . S
H904 C888 0.931 . S
H905 C893 0.929 . S
H906 C894 0.960 . S
H907 C894 0.962 . S
H908 C894 0.960 . S
H909 C895 0.961 . S
H910 C895 0.961 . S
H911 C895 0.961 . S
H912 C896 0.931 . S
H913 C901 0.930 . S
H914 C902 0.956 . S
H915 C902 0.961 . S
H916 C902 0.961 . S
H917 C903 0.958 . S
H918 C903 0.961 . S
H919 C903 0.960 . S
C920 C921 1.391 . S
C920 C922 1.394 . S
C920 H936 0.931 . S
C921 C920 1.391 . S
C921 C925 1.376 . S
C922 C920 1.394 . S
C922 C923 1.369 . S
C922 C926 1.531 . S
C923 C922 1.369 . S
C923 C924 1.410 . S
C923 C931 1.503 . S
C924 C923 1.410 . S
C924 C925 1.392 . S
C924 C927 1.511 . S
C925 C921 1.376 . S
C925 C924 1.392 . S
C925 H937 0.929 . S
C926 C922 1.531 . S
C926 H938 0.960 . S
C926 H939 0.962 . S
C926 H940 0.960 . S
C927 C924 1.511 . S
C927 H941 0.961 . S
C927 H942 0.961 . S
C927 H943 0.961 . S
C928 C929 1.370 . S
C928 C930 1.363 . S
C928 H944 0.931 . S
C929 C928 1.370 . S
C929 C933 1.408 . S
C930 C928 1.363 . S
C930 C931 1.370 . S
C930 C934 1.524 . S
C931 C923 1.503 . S
C931 C930 1.370 . S
C931 C932 1.403 . S
C932 C931 1.403 . S
C932 C933 1.404 . S
C932 C935 1.539 . S
C933 C929 1.408 . S
C933 C932 1.404 . S
C933 H945 0.930 . S
C934 C930 1.524 . S
C934 H946 0.956 . S
C934 H947 0.961 . S
C934 H948 0.961 . S
C935 C932 1.539 . S
C935 H949 0.958 . S
C935 H950 0.961 . S
C935 H951 0.960 . S
H936 C920 0.931 . S
H937 C925 0.929 . S
H938 C926 0.960 . S
H939 C926 0.962 . S
H940 C926 0.960 . S
H941 C927 0.961 . S
H942 C927 0.961 . S
H943 C927 0.961 . S
H944 C928 0.931 . S
H945 C933 0.930 . S
H946 C934 0.956 . S
H947 C934 0.961 . S
H948 C934 0.961 . S
H949 C935 0.958 . S
H950 C935 0.961 . S
H951 C935 0.960 . S
C952 C953 1.391 . S
C952 C954 1.394 . S
C952 H968 0.931 . S
C953 C952 1.391 . S
C953 C957 1.376 . S
C954 C952 1.394 . S
C954 C955 1.369 . S
C954 C958 1.531 . S
C955 C954 1.369 . S
C955 C956 1.410 . S
C955 C963 1.503 . S
C956 C955 1.410 . S
C956 C957 1.392 . S
C956 C959 1.511 . S
C957 C953 1.376 . S
C957 C956 1.392 . S
C957 H969 0.929 . S
C958 C954 1.531 . S
C958 H970 0.960 . S
C958 H971 0.962 . S
C958 H972 0.960 . S
C959 C956 1.511 . S
C959 H973 0.961 . S
C959 H974 0.961 . S
C959 H975 0.961 . S
C960 C961 1.370 . S
C960 C962 1.363 . S
C960 H976 0.931 . S
C961 C960 1.370 . S
C961 C965 1.408 . S
C962 C960 1.363 . S
C962 C963 1.370 . S
C962 C966 1.524 . S
C963 C955 1.503 . S
C963 C962 1.370 . S
C963 C964 1.403 . S
C964 C963 1.403 . S
C964 C965 1.404 . S
C964 C967 1.539 . S
C965 C961 1.408 . S
C965 C964 1.404 . S
C965 H977 0.930 . S
C966 C962 1.524 . S
C966 H978 0.956 . S
C966 H979 0.961 . S
C966 H980 0.961 . S
C967 C964 1.539 . S
C967 H981 0.958 . S
C967 H982 0.961 . S
C967 H983 0.960 . S
H968 C952 0.931 . S
H969 C957 0.929 . S
H970 C958 0.960 . S
H971 C958 0.962 . S
H972 C958 0.960 . S
H973 C959 0.961 . S
H974 C959 0.961 . S
H975 C959 0.961 . S
H976 C960 0.931 . S
H977 C965 0.930 . S
H978 C966 0.956 . S
H979 C966 0.961 . S
H980 C966 0.961 . S
H981 C967 0.958 . S
H982 C967 0.961 . S
H983 C967 0.960 . S
C984 C985 1.391 . S
C984 C986 1.394 . S
C984 H1000 0.931 . S
C985 C984 1.391 . S
C985 C989 1.376 . S
C986 C984 1.394 . S
C986 C987 1.369 . S
C986 C990 1.531 . S
C987 C986 1.369 . S
C987 C988 1.410 . S
C987 C995 1.503 . S
C988 C987 1.410 . S
C988 C989 1.392 . S
C988 C991 1.511 . S
C989 C985 1.376 . S
C989 C988 1.392 . S
C989 H1001 0.929 . S
C990 C986 1.531 . S
C990 H1002 0.960 . S
C990 H1003 0.962 . S
C990 H1004 0.960 . S
C991 C988 1.511 . S
C991 H1005 0.961 . S
C991 H1006 0.961 . S
C991 H1007 0.961 . S
C992 C993 1.370 . S
C992 C994 1.363 . S
C992 H1008 0.931 . S
C993 C992 1.370 . S
C993 C997 1.408 . S
C994 C992 1.363 . S
C994 C995 1.370 . S
C994 C998 1.524 . S
C995 C987 1.503 . S
C995 C994 1.370 . S
C995 C996 1.403 . S
C996 C995 1.403 . S
C996 C997 1.404 . S
C996 C999 1.539 . S
C997 C993 1.408 . S
C997 C996 1.404 . S
C997 H1009 0.930 . S
C998 C994 1.524 . S
C998 H1010 0.956 . S
C998 H1011 0.961 . S
C998 H1012 0.961 . S
C999 C996 1.539 . S
C999 H1013 0.958 . S
C999 H1014 0.961 . S
C999 H1015 0.960 . S
H1000 C984 0.931 . S
H1001 C989 0.929 . S
H1002 C990 0.960 . S
H1003 C990 0.962 . S
H1004 C990 0.960 . S
H1005 C991 0.961 . S
H1006 C991 0.961 . S
H1007 C991 0.961 . S
H1008 C992 0.931 . S
H1009 C997 0.930 . S
H1010 C998 0.956 . S
H1011 C998 0.961 . S
H1012 C998 0.961 . S
H1013 C999 0.958 . S
H1014 C999 0.961 . S
H1015 C999 0.960 . S
C1016 C1017 1.391 . S
C1016 C1018 1.394 . S
C1016 H1032 0.931 . S
C1017 C1016 1.391 . S
C1017 C1021 1.376 . S
C1018 C1016 1.394 . S
C1018 C1019 1.369 . S
C1018 C1022 1.531 . S
C1019 C1018 1.369 . S
C1019 C1020 1.410 . S
C1019 C1027 1.503 . S
C1020 C1019 1.410 . S
C1020 C1021 1.392 . S
C1020 C1023 1.511 . S
C1021 C1017 1.376 . S
C1021 C1020 1.392 . S
C1021 H1033 0.929 . S
C1022 C1018 1.531 . S
C1022 H1034 0.960 . S
C1022 H1035 0.962 . S
C1022 H1036 0.960 . S
C1023 C1020 1.511 . S
C1023 H1037 0.961 . S
C1023 H1038 0.961 . S
C1023 H1039 0.961 . S
C1024 C1025 1.370 . S
C1024 C1026 1.363 . S
C1024 H1040 0.931 . S
C1025 C1024 1.370 . S
C1025 C1029 1.408 . S
C1026 C1024 1.363 . S
C1026 C1027 1.370 . S
C1026 C1030 1.524 . S
C1027 C1019 1.503 . S
C1027 C1026 1.370 . S
C1027 C1028 1.403 . S
C1028 C1027 1.403 . S
C1028 C1029 1.404 . S
C1028 C1031 1.539 . S
C1029 C1025 1.408 . S
C1029 C1028 1.404 . S
C1029 H1041 0.930 . S
C1030 C1026 1.524 . S
C1030 H1042 0.956 . S
C1030 H1043 0.961 . S
C1030 H1044 0.961 . S
C1031 C1028 1.539 . S
C1031 H1045 0.958 . S
C1031 H1046 0.961 . S
C1031 H1047 0.960 . S
H1032 C1016 0.931 . S
H1033 C1021 0.929 . S
H1034 C1022 0.960 . S
H1035 C1022 0.962 . S
H1036 C1022 0.960 . S
H1037 C1023 0.961 . S
H1038 C1023 0.961 . S
H1039 C1023 0.961 . S
H1040 C1024 0.931 . S
H1041 C1029 0.930 . S
H1042 C1030 0.956 . S
H1043 C1030 0.961 . S
H1044 C1030 0.961 . S
H1045 C1031 0.958 . S
H1046 C1031 0.961 . S
H1047 C1031 0.960 . S
C1048 C1049 1.391 . S
C1048 C1050 1.394 . S
C1048 H1064 0.931 . S
C1049 C1048 1.391 . S
C1049 C1053 1.376 . S
C1050 C1048 1.394 . S
C1050 C1051 1.369 . S
C1050 C1054 1.531 . S
C1051 C1050 1.369 . S
C1051 C1052 1.410 . S
C1051 C1059 1.503 . S
C1052 C1051 1.410 . S
C1052 C1053 1.392 . S
C1052 C1055 1.511 . S
C1053 C1049 1.376 . S
C1053 C1052 1.392 . S
C1053 H1065 0.929 . S
C1054 C1050 1.531 . S
C1054 H1066 0.960 . S
C1054 H1067 0.962 . S
C1054 H1068 0.960 . S
C1055 C1052 1.511 . S
C1055 H1069 0.961 . S
C1055 H1070 0.961 . S
C1055 H1071 0.961 . S
C1056 C1057 1.370 . S
C1056 C1058 1.363 . S
C1056 H1072 0.931 . S
C1057 C1056 1.370 . S
C1057 C1061 1.408 . S
C1058 C1056 1.363 . S
C1058 C1059 1.370 . S
C1058 C1062 1.524 . S
C1059 C1051 1.503 . S
C1059 C1058 1.370 . S
C1059 C1060 1.403 . S
C1060 C1059 1.403 . S
C1060 C1061 1.404 . S
C1060 C1063 1.539 . S
C1061 C1057 1.408 . S
C1061 C1060 1.404 . S
C1061 H1073 0.930 . S
C1062 C1058 1.524 . S
C1062 H1074 0.956 . S
C1062 H1075 0.961 . S
C1062 H1076 0.961 . S
C1063 C1060 1.539 . S
C1063 H1077 0.958 . S
C1063 H1078 0.961 . S
C1063 H1079 0.960 . S
H1064 C1048 0.931 . S
H1065 C1053 0.929 . S
H1066 C1054 0.960 . S
H1067 C1054 0.962 . S
H1068 C1054 0.960 . S
H1069 C1055 0.961 . S
H1070 C1055 0.961 . S
H1071 C1055 0.961 . S
H1072 C1056 0.931 . S
H1073 C1061 0.930 . S
H1074 C1062 0.956 . S
H1075 C1062 0.961 . S
H1076 C1062 0.961 . S
H1077 C1063 0.958 . S
H1078 C1063 0.961 . S
H1079 C1063 0.960 . S
C1080 C1081 1.391 . S
C1080 C1082 1.394 . S
C1080 H1096 0.931 . S
C1081 C1080 1.391 . S
C1081 C1085 1.376 . S
C1082 C1080 1.394 . S
C1082 C1083 1.369 . S
C1082 C1086 1.531 . S
C1083 C1082 1.369 . S
C1083 C1084 1.410 . S
C1083 C1091 1.503 1_554 S
C1084 C1083 1.410 . S
C1084 C1085 1.392 . S
C1084 C1087 1.511 . S
C1085 C1081 1.376 . S
C1085 C1084 1.392 . S
C1085 H1097 0.929 . S
C1086 C1082 1.531 . S
C1086 H1098 0.960 1_554 S
C1086 H1099 0.962 . S
C1086 H1100 0.960 . S
C1087 C1084 1.511 . S
C1087 H1101 0.961 . S
C1087 H1102 0.961 1_554 S
C1087 H1103 0.961 . S
C1088 C1089 1.370 . S
C1088 C1090 1.363 . S
C1088 H1104 0.931 . S
C1089 C1088 1.370 . S
C1089 C1093 1.408 . S
C1090 C1088 1.363 . S
C1090 C1091 1.370 . S
C1090 C1094 1.524 . S
C1091 C1083 1.503 1_556 S
C1091 C1090 1.370 . S
C1091 C1092 1.403 . S
C1092 C1091 1.403 . S
C1092 C1093 1.404 . S
C1092 C1095 1.539 . S
C1093 C1089 1.408 . S
C1093 C1092 1.404 . S
C1093 H1105 0.930 . S
C1094 C1090 1.524 . S
C1094 H1106 0.956 . S
C1094 H1107 0.961 1_556 S
C1094 H1108 0.961 . S
C1095 C1092 1.539 . S
C1095 H1109 0.958 . S
C1095 H1110 0.961 . S
C1095 H1111 0.972 . S
H1096 C1080 0.931 . S
H1097 C1085 0.929 . S
H1098 C1086 0.960 1_556 S
H1099 C1086 0.962 . S
H1100 C1086 0.960 . S
H1101 C1087 0.961 . S
H1102 C1087 0.961 1_556 S
H1103 C1087 0.961 . S
H1104 C1088 0.931 . S
H1105 C1093 0.930 . S
H1106 C1094 0.956 . S
H1107 C1094 0.961 1_554 S
H1108 C1094 0.961 . S
H1109 C1095 0.958 . S
H1110 C1095 0.961 . S
H1111 C1095 0.972 . S
C1112 C1113 1.391 . S
C1112 C1114 1.394 . S
C1112 H1128 0.931 . S
C1113 C1112 1.391 . S
C1113 C1117 1.376 . S
C1114 C1112 1.394 . S
C1114 C1115 1.369 . S
C1114 C1118 1.531 . S
C1115 C1114 1.369 . S
C1115 C1116 1.410 . S
C1115 C1123 1.503 1_556 S
C1116 C1115 1.410 . S
C1116 C1117 1.392 . S
C1116 C1119 1.511 . S
C1117 C1113 1.376 . S
C1117 C1116 1.392 . S
C1117 H1129 0.929 . S
C1118 C1114 1.531 . S
C1118 H1130 0.960 1_556 S
C1118 H1131 0.962 . S
C1118 H1132 0.960 . S
C1119 C1116 1.511 . S
C1119 H1133 0.961 . S
C1119 H1134 0.961 1_556 S
C1119 H1135 0.961 . S
C1120 C1121 1.370 . S
C1120 C1122 1.363 . S
C1120 H1136 0.931 . S
C1121 C1120 1.370 . S
C1121 C1125 1.408 . S
C1122 C1120 1.363 . S
C1122 C1123 1.370 . S
C1122 C1126 1.524 . S
C1123 C1115 1.503 1_554 S
C1123 C1122 1.370 . S
C1123 C1124 1.403 . S
C1124 C1123 1.403 . S
C1124 C1125 1.404 . S
C1124 C1127 1.539 . S
C1125 C1121 1.408 . S
C1125 C1124 1.404 . S
C1125 H1137 0.930 . S
C1126 C1122 1.524 . S
C1126 H1138 0.956 . S
C1126 H1139 0.961 1_554 S
C1126 H1140 0.961 . S
C1127 C1124 1.539 . S
C1127 H1141 0.958 . S
C1127 H1142 0.961 . S
C1127 H1143 0.972 . S
H1128 C1112 0.931 . S
H1129 C1117 0.929 . S
H1130 C1118 0.960 1_554 S
H1131 C1118 0.962 . S
H1132 C1118 0.960 . S
H1133 C1119 0.961 . S
H1134 C1119 0.961 1_554 S
H1135 C1119 0.961 . S
H1136 C1120 0.931 . S
H1137 C1125 0.930 . S
H1138 C1126 0.956 . S
H1139 C1126 0.961 1_556 S
H1140 C1126 0.961 . S
H1141 C1127 0.958 . S
H1142 C1127 0.961 . S
H1143 C1127 0.972 . S
C1144 C1145 1.391 . S
C1144 C1146 1.394 . S
C1144 H1160 0.931 . S
C1145 C1144 1.391 . S
C1145 C1149 1.376 . S
C1146 C1144 1.394 . S
C1146 C1147 1.369 . S
C1146 C1150 1.531 . S
C1147 C1146 1.369 . S
C1147 C1148 1.410 . S
C1147 C1155 1.503 1_556 S
C1148 C1147 1.410 . S
C1148 C1149 1.392 . S
C1148 C1151 1.511 . S
C1149 C1145 1.376 . S
C1149 C1148 1.392 . S
C1149 H1161 0.929 . S
C1150 C1146 1.531 . S
C1150 H1162 0.960 1_556 S
C1150 H1163 0.962 . S
C1150 H1164 0.960 . S
C1151 C1148 1.511 . S
C1151 H1165 0.961 . S
C1151 H1166 0.961 1_556 S
C1151 H1167 0.961 . S
C1152 C1153 1.370 . S
C1152 C1154 1.363 . S
C1152 H1168 0.931 . S
C1153 C1152 1.370 . S
C1153 C1157 1.408 . S
C1154 C1152 1.363 . S
C1154 C1155 1.370 . S
C1154 C1158 1.524 . S
C1155 C1147 1.503 1_554 S
C1155 C1154 1.370 . S
C1155 C1156 1.403 . S
C1156 C1155 1.403 . S
C1156 C1157 1.404 . S
C1156 C1159 1.539 . S
C1157 C1153 1.408 . S
C1157 C1156 1.404 . S
C1157 H1169 0.930 . S
C1158 C1154 1.524 . S
C1158 H1170 0.956 . S
C1158 H1171 0.961 1_554 S
C1158 H1172 0.961 . S
C1159 C1156 1.539 . S
C1159 H1173 0.958 . S
C1159 H1174 0.961 . S
C1159 H1175 0.972 . S
H1160 C1144 0.931 . S
H1161 C1149 0.929 . S
H1162 C1150 0.960 1_554 S
H1163 C1150 0.962 . S
H1164 C1150 0.960 . S
H1165 C1151 0.961 . S
H1166 C1151 0.961 1_554 S
H1167 C1151 0.961 . S
H1168 C1152 0.931 . S
H1169 C1157 0.930 . S
H1170 C1158 0.956 . S
H1171 C1158 0.961 1_556 S
H1172 C1158 0.961 . S
H1173 C1159 0.958 . S
H1174 C1159 0.961 . S
H1175 C1159 0.972 . S
C1176 C1177 1.391 . S
C1176 C1178 1.394 . S
C1176 H1192 0.931 . S
C1177 C1176 1.391 . S
C1177 C1181 1.376 . S
C1178 C1176 1.394 . S
C1178 C1179 1.369 . S
C1178 C1182 1.531 . S
C1179 C1178 1.369 . S
C1179 C1180 1.410 . S
C1179 C1187 1.503 1_554 S
C1180 C1179 1.410 . S
C1180 C1181 1.392 . S
C1180 C1183 1.511 . S
C1181 C1177 1.376 . S
C1181 C1180 1.392 . S
C1181 H1193 0.929 . S
C1182 C1178 1.531 . S
C1182 H1194 0.960 1_554 S
C1182 H1195 0.962 . S
C1182 H1196 0.960 . S
C1183 C1180 1.511 . S
C1183 H1197 0.961 . S
C1183 H1198 0.961 1_554 S
C1183 H1199 0.961 . S
C1184 C1185 1.370 . S
C1184 C1186 1.363 . S
C1184 H1200 0.931 . S
C1185 C1184 1.370 . S
C1185 C1189 1.408 . S
C1186 C1184 1.363 . S
C1186 C1187 1.370 . S
C1186 C1190 1.524 . S
C1187 C1179 1.503 1_556 S
C1187 C1186 1.370 . S
C1187 C1188 1.403 . S
C1188 C1187 1.403 . S
C1188 C1189 1.404 . S
C1188 C1191 1.539 . S
C1189 C1185 1.408 . S
C1189 C1188 1.404 . S
C1189 H1201 0.930 . S
C1190 C1186 1.524 . S
C1190 H1202 0.956 . S
C1190 H1203 0.961 1_556 S
C1190 H1204 0.961 . S
C1191 C1188 1.539 . S
C1191 H1205 0.958 . S
C1191 H1206 0.961 . S
C1191 H1207 0.972 . S
H1192 C1176 0.931 . S
H1193 C1181 0.929 . S
H1194 C1182 0.960 1_556 S
H1195 C1182 0.962 . S
H1196 C1182 0.960 . S
H1197 C1183 0.961 . S
H1198 C1183 0.961 1_556 S
H1199 C1183 0.961 . S
H1200 C1184 0.931 . S
H1201 C1189 0.930 . S
H1202 C1190 0.956 . S
H1203 C1190 0.961 1_554 S
H1204 C1190 0.961 . S
H1205 C1191 0.958 . S
H1206 C1191 0.961 . S
H1207 C1191 0.972 . S
C1208 C1209 1.391 . S
C1208 C1210 1.394 . S
C1208 H1224 0.931 . S
C1209 C1208 1.391 . S
C1209 C1213 1.376 . S
C1210 C1208 1.394 . S
C1210 C1211 1.369 . S
C1210 C1214 1.531 . S
C1211 C1210 1.369 . S
C1211 C1212 1.410 . S
C1211 C1219 1.503 1_554 S
C1212 C1211 1.410 . S
C1212 C1213 1.392 . S
C1212 C1215 1.511 . S
C1213 C1209 1.376 . S
C1213 C1212 1.392 . S
C1213 H1225 0.929 . S
C1214 C1210 1.531 . S
C1214 H1226 0.960 1_554 S
C1214 H1227 0.962 . S
C1214 H1228 0.960 . S
C1215 C1212 1.511 . S
C1215 H1229 0.961 . S
C1215 H1230 0.961 1_554 S
C1215 H1231 0.961 . S
C1216 C1217 1.370 . S
C1216 C1218 1.363 . S
C1216 H1232 0.931 . S
C1217 C1216 1.370 . S
C1217 C1221 1.408 . S
C1218 C1216 1.363 . S
C1218 C1219 1.370 . S
C1218 C1222 1.524 . S
C1219 C1211 1.503 1_556 S
C1219 C1218 1.370 . S
C1219 C1220 1.403 . S
C1220 C1219 1.403 . S
C1220 C1221 1.404 . S
C1220 C1223 1.539 . S
C1221 C1217 1.408 . S
C1221 C1220 1.404 . S
C1221 H1233 0.930 . S
C1222 C1218 1.524 . S
C1222 H1234 0.956 . S
C1222 H1235 0.961 1_556 S
C1222 H1236 0.961 . S
C1223 C1220 1.539 . S
C1223 H1237 0.958 . S
C1223 H1238 0.961 . S
C1223 H1239 0.972 . S
H1224 C1208 0.931 . S
H1225 C1213 0.929 . S
H1226 C1214 0.960 1_556 S
H1227 C1214 0.962 . S
H1228 C1214 0.960 . S
H1229 C1215 0.961 . S
H1230 C1215 0.961 1_556 S
H1231 C1215 0.961 . S
H1232 C1216 0.931 . S
H1233 C1221 0.930 . S
H1234 C1222 0.956 . S
H1235 C1222 0.961 1_554 S
H1236 C1222 0.961 . S
H1237 C1223 0.958 . S
H1238 C1223 0.961 . S
H1239 C1223 0.972 . S
C1240 C1241 1.391 . S
C1240 C1242 1.394 . S
C1240 H1256 0.931 . S
C1241 C1240 1.391 . S
C1241 C1245 1.376 . S
C1242 C1240 1.394 . S
C1242 C1243 1.369 . S
C1242 C1246 1.531 . S
C1243 C1242 1.369 . S
C1243 C1244 1.410 . S
C1243 C1251 1.503 1_556 S
C1244 C1243 1.410 . S
C1244 C1245 1.392 . S
C1244 C1247 1.511 . S
C1245 C1241 1.376 . S
C1245 C1244 1.392 . S
C1245 H1257 0.929 . S
C1246 C1242 1.531 . S
C1246 H1258 0.960 1_556 S
C1246 H1259 0.962 . S
C1246 H1260 0.960 . S
C1247 C1244 1.511 . S
C1247 H1261 0.961 . S
C1247 H1262 0.961 1_556 S
C1247 H1263 0.961 . S
C1248 C1249 1.370 . S
C1248 C1250 1.363 . S
C1248 H1264 0.931 . S
C1249 C1248 1.370 . S
C1249 C1253 1.408 . S
C1250 C1248 1.363 . S
C1250 C1251 1.370 . S
C1250 C1254 1.524 . S
C1251 C1243 1.503 1_554 S
C1251 C1250 1.370 . S
C1251 C1252 1.403 . S
C1252 C1251 1.403 . S
C1252 C1253 1.404 . S
C1252 C1255 1.539 . S
C1253 C1249 1.408 . S
C1253 C1252 1.404 . S
C1253 H1265 0.930 . S
C1254 C1250 1.524 . S
C1254 H1266 0.956 . S
C1254 H1267 0.961 1_554 S
C1254 H1268 0.961 . S
C1255 C1252 1.539 . S
C1255 H1269 0.958 . S
C1255 H1270 0.961 . S
C1255 H1271 0.972 . S
H1256 C1240 0.931 . S
H1257 C1245 0.929 . S
H1258 C1246 0.960 1_554 S
H1259 C1246 0.962 . S
H1260 C1246 0.960 . S
H1261 C1247 0.961 . S
H1262 C1247 0.961 1_554 S
H1263 C1247 0.961 . S
H1264 C1248 0.931 . S
H1265 C1253 0.930 . S
H1266 C1254 0.956 . S
H1267 C1254 0.961 1_556 S
H1268 C1254 0.961 . S
H1269 C1255 0.958 . S
H1270 C1255 0.961 . S
H1271 C1255 0.972 . S
C1272 C1273 1.391 . S
C1272 C1274 1.394 . S
C1272 H1288 0.931 . S
C1273 C1272 1.391 . S
C1273 C1277 1.376 . S
C1274 C1272 1.394 . S
C1274 C1275 1.369 . S
C1274 C1278 1.531 . S
C1275 C1274 1.369 . S
C1275 C1276 1.410 . S
C1275 C1283 1.503 . S
C1276 C1275 1.410 . S
C1276 C1277 1.392 . S
C1276 C1279 1.511 . S
C1277 C1273 1.376 . S
C1277 C1276 1.392 . S
C1277 H1289 0.929 . S
C1278 C1274 1.531 . S
C1278 H1290 0.960 . S
C1278 H1291 0.962 . S
C1278 H1292 0.960 . S
C1279 C1276 1.511 . S
C1279 H1293 0.961 . S
C1279 H1294 0.961 . S
C1279 H1295 0.961 . S
C1280 C1281 1.370 . S
C1280 C1282 1.363 . S
C1280 H1296 0.931 . S
C1281 C1280 1.370 . S
C1281 C1285 1.408 . S
C1282 C1280 1.363 . S
C1282 C1283 1.370 . S
C1282 C1286 1.524 . S
C1283 C1275 1.503 . S
C1283 C1282 1.370 . S
C1283 C1284 1.403 . S
C1284 C1283 1.403 . S
C1284 C1285 1.404 . S
C1284 C1287 1.539 . S
C1285 C1281 1.408 . S
C1285 C1284 1.404 . S
C1285 H1297 0.930 . S
C1286 C1282 1.524 . S
C1286 H1298 0.956 . S
C1286 H1299 0.961 . S
C1286 H1300 0.961 . S
C1287 C1284 1.539 . S
C1287 H1301 0.958 . S
C1287 H1302 0.961 . S
C1287 H1303 0.960 . S
H1288 C1272 0.931 . S
H1289 C1277 0.929 . S
H1290 C1278 0.960 . S
H1291 C1278 0.962 . S
H1292 C1278 0.960 . S
H1293 C1279 0.961 . S
H1294 C1279 0.961 . S
H1295 C1279 0.961 . S
H1296 C1280 0.931 . S
H1297 C1285 0.930 . S
H1298 C1286 0.956 . S
H1299 C1286 0.961 . S
H1300 C1286 0.961 . S
H1301 C1287 0.958 . S
H1302 C1287 0.961 . S
H1303 C1287 0.960 . S
C1304 C1305 1.391 . S
C1304 C1306 1.394 . S
C1304 H1320 0.931 . S
C1305 C1304 1.391 . S
C1305 C1309 1.376 . S
C1306 C1304 1.394 . S
C1306 C1307 1.369 . S
C1306 C1310 1.531 . S
C1307 C1306 1.369 . S
C1307 C1308 1.410 . S
C1307 C1315 1.503 . S
C1308 C1307 1.410 . S
C1308 C1309 1.392 . S
C1308 C1311 1.511 . S
C1309 C1305 1.376 . S
C1309 C1308 1.392 . S
C1309 H1321 0.929 . S
C1310 C1306 1.531 . S
C1310 H1322 0.960 . S
C1310 H1323 0.962 . S
C1310 H1324 0.960 . S
C1311 C1308 1.511 . S
C1311 H1325 0.961 . S
C1311 H1326 0.961 . S
C1311 H1327 0.961 . S
C1312 C1313 1.370 . S
C1312 C1314 1.363 . S
C1312 H1328 0.931 . S
C1313 C1312 1.370 . S
C1313 C1317 1.408 . S
C1314 C1312 1.363 . S
C1314 C1315 1.370 . S
C1314 C1318 1.524 . S
C1315 C1307 1.503 . S
C1315 C1314 1.370 . S
C1315 C1316 1.403 . S
C1316 C1315 1.403 . S
C1316 C1317 1.404 . S
C1316 C1319 1.539 . S
C1317 C1313 1.408 . S
C1317 C1316 1.404 . S
C1317 H1329 0.930 . S
C1318 C1314 1.524 . S
C1318 H1330 0.956 . S
C1318 H1331 0.961 . S
C1318 H1332 0.961 . S
C1319 C1316 1.539 . S
C1319 H1333 0.958 . S
C1319 H1334 0.961 . S
C1319 H1335 0.960 . S
H1320 C1304 0.931 . S
H1321 C1309 0.929 . S
H1322 C1310 0.960 . S
H1323 C1310 0.962 . S
H1324 C1310 0.960 . S
H1325 C1311 0.961 . S
H1326 C1311 0.961 . S
H1327 C1311 0.961 . S
H1328 C1312 0.931 . S
H1329 C1317 0.930 . S
H1330 C1318 0.956 . S
H1331 C1318 0.961 . S
H1332 C1318 0.961 . S
H1333 C1319 0.958 . S
H1334 C1319 0.961 . S
H1335 C1319 0.960 . S
C1336 C1337 1.391 . S
C1336 C1338 1.394 . S
C1336 H1352 0.931 . S
C1337 C1336 1.391 . S
C1337 C1341 1.376 . S
C1338 C1336 1.394 . S
C1338 C1339 1.369 . S
C1338 C1342 1.531 . S
C1339 C1338 1.369 . S
C1339 C1340 1.410 . S
C1339 C1347 1.503 . S
C1340 C1339 1.410 . S
C1340 C1341 1.392 . S
C1340 C1343 1.511 . S
C1341 C1337 1.376 . S
C1341 C1340 1.392 . S
C1341 H1353 0.929 . S
C1342 C1338 1.531 . S
C1342 H1354 0.960 . S
C1342 H1355 0.962 . S
C1342 H1356 0.960 . S
C1343 C1340 1.511 . S
C1343 H1357 0.961 . S
C1343 H1358 0.961 . S
C1343 H1359 0.961 . S
C1344 C1345 1.370 . S
C1344 C1346 1.363 . S
C1344 H1360 0.931 . S
C1345 C1344 1.370 . S
C1345 C1349 1.408 . S
C1346 C1344 1.363 . S
C1346 C1347 1.370 . S
C1346 C1350 1.524 . S
C1347 C1339 1.503 . S
C1347 C1346 1.370 . S
C1347 C1348 1.403 . S
C1348 C1347 1.403 . S
C1348 C1349 1.404 . S
C1348 C1351 1.539 . S
C1349 C1345 1.408 . S
C1349 C1348 1.404 . S
C1349 H1361 0.930 . S
C1350 C1346 1.524 . S
C1350 H1362 0.956 . S
C1350 H1363 0.961 . S
C1350 H1364 0.961 . S
C1351 C1348 1.539 . S
C1351 H1365 0.958 . S
C1351 H1366 0.961 . S
C1351 H1367 0.960 . S
H1352 C1336 0.931 . S
H1353 C1341 0.929 . S
H1354 C1342 0.960 . S
H1355 C1342 0.962 . S
H1356 C1342 0.960 . S
H1357 C1343 0.961 . S
H1358 C1343 0.961 . S
H1359 C1343 0.961 . S
H1360 C1344 0.931 . S
H1361 C1349 0.930 . S
H1362 C1350 0.956 . S
H1363 C1350 0.961 . S
H1364 C1350 0.961 . S
H1365 C1351 0.958 . S
H1366 C1351 0.961 . S
H1367 C1351 0.960 . S
C1368 C1369 1.391 . S
C1368 C1370 1.394 . S
C1368 H1384 0.931 . S
C1369 C1368 1.391 . S
C1369 C1373 1.376 . S
C1370 C1368 1.394 . S
C1370 C1371 1.369 . S
C1370 C1374 1.531 . S
C1371 C1370 1.369 . S
C1371 C1372 1.410 . S
C1371 C1379 1.503 . S
C1372 C1371 1.410 . S
C1372 C1373 1.392 . S
C1372 C1375 1.511 . S
C1373 C1369 1.376 . S
C1373 C1372 1.392 . S
C1373 H1385 0.929 . S
C1374 C1370 1.531 . S
C1374 H1386 0.960 . S
C1374 H1387 0.962 . S
C1374 H1388 0.960 . S
C1375 C1372 1.511 . S
C1375 H1389 0.961 . S
C1375 H1390 0.961 . S
C1375 H1391 0.961 . S
C1376 C1377 1.370 . S
C1376 C1378 1.363 . S
C1376 H1392 0.931 . S
C1377 C1376 1.370 . S
C1377 C1381 1.408 . S
C1378 C1376 1.363 . S
C1378 C1379 1.370 . S
C1378 C1382 1.524 . S
C1379 C1371 1.503 . S
C1379 C1378 1.370 . S
C1379 C1380 1.403 . S
C1380 C1379 1.403 . S
C1380 C1381 1.404 . S
C1380 C1383 1.539 . S
C1381 C1377 1.408 . S
C1381 C1380 1.404 . S
C1381 H1393 0.930 . S
C1382 C1378 1.524 . S
C1382 H1394 0.956 . S
C1382 H1395 0.961 . S
C1382 H1396 0.961 . S
C1383 C1380 1.539 . S
C1383 H1397 0.958 . S
C1383 H1398 0.961 . S
C1383 H1399 0.960 . S
H1384 C1368 0.931 . S
H1385 C1373 0.929 . S
H1386 C1374 0.960 . S
H1387 C1374 0.962 . S
H1388 C1374 0.960 . S
H1389 C1375 0.961 . S
H1390 C1375 0.961 . S
H1391 C1375 0.961 . S
H1392 C1376 0.931 . S
H1393 C1381 0.930 . S
H1394 C1382 0.956 . S
H1395 C1382 0.961 . S
H1396 C1382 0.961 . S
H1397 C1383 0.958 . S
H1398 C1383 0.961 . S
H1399 C1383 0.960 . S
C1400 C1401 1.391 . S
C1400 C1402 1.394 . S
C1400 H1416 0.931 . S
C1401 C1400 1.391 . S
C1401 C1405 1.376 . S
C1402 C1400 1.394 . S
C1402 C1403 1.369 . S
C1402 C1406 1.531 . S
C1403 C1402 1.369 . S
C1403 C1404 1.410 . S
C1403 C1411 1.503 . S
C1404 C1403 1.410 . S
C1404 C1405 1.392 . S
C1404 C1407 1.511 . S
C1405 C1401 1.376 . S
C1405 C1404 1.392 . S
C1405 H1417 0.929 . S
C1406 C1402 1.531 . S
C1406 H1418 0.960 . S
C1406 H1419 0.962 . S
C1406 H1420 0.960 . S
C1407 C1404 1.511 . S
C1407 H1421 0.961 . S
C1407 H1422 0.961 . S
C1407 H1423 0.961 . S
C1408 C1409 1.370 . S
C1408 C1410 1.363 . S
C1408 H1424 0.931 . S
C1409 C1408 1.370 . S
C1409 C1413 1.408 . S
C1410 C1408 1.363 . S
C1410 C1411 1.370 . S
C1410 C1414 1.524 . S
C1411 C1403 1.503 . S
C1411 C1410 1.370 . S
C1411 C1412 1.403 . S
C1412 C1411 1.403 . S
C1412 C1413 1.404 . S
C1412 C1415 1.539 . S
C1413 C1409 1.408 . S
C1413 C1412 1.404 . S
C1413 H1425 0.930 . S
C1414 C1410 1.524 . S
C1414 H1426 0.956 . S
C1414 H1427 0.961 . S
C1414 H1428 0.961 . S
C1415 C1412 1.539 . S
C1415 H1429 0.958 . S
C1415 H1430 0.961 . S
C1415 H1431 0.960 . S
H1416 C1400 0.931 . S
H1417 C1405 0.929 . S
H1418 C1406 0.960 . S
H1419 C1406 0.962 . S
H1420 C1406 0.960 . S
H1421 C1407 0.961 . S
H1422 C1407 0.961 . S
H1423 C1407 0.961 . S
H1424 C1408 0.931 . S
H1425 C1413 0.930 . S
H1426 C1414 0.956 . S
H1427 C1414 0.961 . S
H1428 C1414 0.961 . S
H1429 C1415 0.958 . S
H1430 C1415 0.961 . S
H1431 C1415 0.960 . S
C1432 C1433 1.391 . S
C1432 C1434 1.394 . S
C1432 H1448 0.931 . S
C1433 C1432 1.391 . S
C1433 C1437 1.376 . S
C1434 C1432 1.394 . S
C1434 C1435 1.369 . S
C1434 C1438 1.531 . S
C1435 C1434 1.369 . S
C1435 C1436 1.410 . S
C1435 C1443 1.503 . S
C1436 C1435 1.410 . S
C1436 C1437 1.392 . S
C1436 C1439 1.511 . S
C1437 C1433 1.376 . S
C1437 C1436 1.392 . S
C1437 H1449 0.929 . S
C1438 C1434 1.531 . S
C1438 H1450 0.960 . S
C1438 H1451 0.962 . S
C1438 H1452 0.960 . S
C1439 C1436 1.511 . S
C1439 H1453 0.961 . S
C1439 H1454 0.961 . S
C1439 H1455 0.961 . S
C1440 C1441 1.370 . S
C1440 C1442 1.363 . S
C1440 H1456 0.931 . S
C1441 C1440 1.370 . S
C1441 C1445 1.408 . S
C1442 C1440 1.363 . S
C1442 C1443 1.370 . S
C1442 C1446 1.524 . S
C1443 C1435 1.503 . S
C1443 C1442 1.370 . S
C1443 C1444 1.403 . S
C1444 C1443 1.403 . S
C1444 C1445 1.404 . S
C1444 C1447 1.539 . S
C1445 C1441 1.408 . S
C1445 C1444 1.404 . S
C1445 H1457 0.930 . S
C1446 C1442 1.524 . S
C1446 H1458 0.956 . S
C1446 H1459 0.961 . S
C1446 H1460 0.961 . S
C1447 C1444 1.539 . S
C1447 H1461 0.958 . S
C1447 H1462 0.961 . S
C1447 H1463 0.960 . S
H1448 C1432 0.931 . S
H1449 C1437 0.929 . S
H1450 C1438 0.960 . S
H1451 C1438 0.962 . S
H1452 C1438 0.960 . S
H1453 C1439 0.961 . S
H1454 C1439 0.961 . S
H1455 C1439 0.961 . S
H1456 C1440 0.931 . S
H1457 C1445 0.930 . S
H1458 C1446 0.956 . S
H1459 C1446 0.961 . S
H1460 C1446 0.961 . S
H1461 C1447 0.958 . S
H1462 C1447 0.961 . S
H1463 C1447 0.960 . S
C1464 C1465 1.391 . S
C1464 C1466 1.394 . S
C1464 H1480 0.931 . S
C1465 C1464 1.391 . S
C1465 C1469 1.376 . S
C1466 C1464 1.394 . S
C1466 C1467 1.369 . S
C1466 C1470 1.531 . S
C1467 C1466 1.369 . S
C1467 C1468 1.410 . S
C1467 C1475 1.503 . S
C1468 C1467 1.410 . S
C1468 C1469 1.392 . S
C1468 C1471 1.511 . S
C1469 C1465 1.376 . S
C1469 C1468 1.392 . S
C1469 H1481 0.929 . S
C1470 C1466 1.531 . S
C1470 H1482 0.960 . S
C1470 H1483 0.962 . S
C1470 H1484 0.960 . S
C1471 C1468 1.511 . S
C1471 H1485 0.961 . S
C1471 H1486 0.961 . S
C1471 H1487 0.961 . S
C1472 C1473 1.370 . S
C1472 C1474 1.363 . S
C1472 H1488 0.931 . S
C1473 C1472 1.370 . S
C1473 C1477 1.408 . S
C1474 C1472 1.363 . S
C1474 C1475 1.370 . S
C1474 C1478 1.524 . S
C1475 C1467 1.503 . S
C1475 C1474 1.370 . S
C1475 C1476 1.403 . S
C1476 C1475 1.403 . S
C1476 C1477 1.404 . S
C1476 C1479 1.539 . S
C1477 C1473 1.408 . S
C1477 C1476 1.404 . S
C1477 H1489 0.930 . S
C1478 C1474 1.524 . S
C1478 H1490 0.956 . S
C1478 H1491 0.961 . S
C1478 H1492 0.961 . S
C1479 C1476 1.539 . S
C1479 H1493 0.958 . S
C1479 H1494 0.961 . S
C1479 H1495 0.960 . S
H1480 C1464 0.931 . S
H1481 C1469 0.929 . S
H1482 C1470 0.960 . S
H1483 C1470 0.962 . S
H1484 C1470 0.960 . S
H1485 C1471 0.961 . S
H1486 C1471 0.961 . S
H1487 C1471 0.961 . S
H1488 C1472 0.931 . S
H1489 C1477 0.930 . S
H1490 C1478 0.956 . S
H1491 C1478 0.961 . S
H1492 C1478 0.961 . S
H1493 C1479 0.958 . S
H1494 C1479 0.961 . S
H1495 C1479 0.960 . S
C1496 C1497 1.391 . S
C1496 C1498 1.394 . S
C1496 H1512 0.931 . S
C1497 C1496 1.391 . S
C1497 C1501 1.376 . S
C1498 C1496 1.394 . S
C1498 C1499 1.369 . S
C1498 C1502 1.531 . S
C1499 C1498 1.369 . S
C1499 C1500 1.410 . S
C1499 C1507 1.503 . S
C1500 C1499 1.410 . S
C1500 C1501 1.392 . S
C1500 C1503 1.511 . S
C1501 C1497 1.376 . S
C1501 C1500 1.392 . S
C1501 H1513 0.929 . S
C1502 C1498 1.531 . S
C1502 H1514 0.960 . S
C1502 H1515 0.962 . S
C1502 H1516 0.960 . S
C1503 C1500 1.511 . S
C1503 H1517 0.961 . S
C1503 H1518 0.961 . S
C1503 H1519 0.961 . S
C1504 C1505 1.370 . S
C1504 C1506 1.363 . S
C1504 H1520 0.931 . S
C1505 C1504 1.370 . S
C1505 C1509 1.408 . S
C1506 C1504 1.363 . S
C1506 C1507 1.370 . S
C1506 C1510 1.524 . S
C1507 C1499 1.503 . S
C1507 C1506 1.370 . S
C1507 C1508 1.403 . S
C1508 C1507 1.403 . S
C1508 C1509 1.404 . S
C1508 C1511 1.539 . S
C1509 C1505 1.408 . S
C1509 C1508 1.404 . S
C1509 H1521 0.930 . S
C1510 C1506 1.524 . S
C1510 H1522 0.956 . S
C1510 H1523 0.961 . S
C1510 H1524 0.961 . S
C1511 C1508 1.539 . S
C1511 H1525 0.958 . S
C1511 H1526 0.961 . S
C1511 H1527 0.960 . S
H1512 C1496 0.931 . S
H1513 C1501 0.929 . S
H1514 C1502 0.960 . S
H1515 C1502 0.962 . S
H1516 C1502 0.960 . S
H1517 C1503 0.961 . S
H1518 C1503 0.961 . S
H1519 C1503 0.961 . S
H1520 C1504 0.931 . S
H1521 C1509 0.930 . S
H1522 C1510 0.956 . S
H1523 C1510 0.961 . S
H1524 C1510 0.961 . S
H1525 C1511 0.958 . S
H1526 C1511 0.961 . S
H1527 C1511 0.960 . S
C1528 C1529 1.391 . S
C1528 C1530 1.394 . S
C1528 H1544 0.931 . S
C1529 C1528 1.391 . S
C1529 C1533 1.376 . S
C1530 C1528 1.394 . S
C1530 C1531 1.369 . S
C1530 C1534 1.531 . S
C1531 C1530 1.369 . S
C1531 C1532 1.410 . S
C1531 C1539 1.503 . S
C1532 C1531 1.410 . S
C1532 C1533 1.392 . S
C1532 C1535 1.511 . S
C1533 C1529 1.376 . S
C1533 C1532 1.392 . S
C1533 H1545 0.929 . S
C1534 C1530 1.531 . S
C1534 H1546 0.960 . S
C1534 H1547 0.962 . S
C1534 H1548 0.960 . S
C1535 C1532 1.511 . S
C1535 H1549 0.961 . S
C1535 H1550 0.961 . S
C1535 H1551 0.961 . S
C1536 C1537 1.370 . S
C1536 C1538 1.363 . S
C1536 H1552 0.931 . S
C1537 C1536 1.370 . S
C1537 C1541 1.408 . S
C1538 C1536 1.363 . S
C1538 C1539 1.370 . S
C1538 C1542 1.524 . S
C1539 C1531 1.503 . S
C1539 C1538 1.370 . S
C1539 C1540 1.403 . S
C1540 C1539 1.403 . S
C1540 C1541 1.404 . S
C1540 C1543 1.539 . S
C1541 C1537 1.408 . S
C1541 C1540 1.404 . S
C1541 H1553 0.930 . S
C1542 C1538 1.524 . S
C1542 H1554 0.956 . S
C1542 H1555 0.961 . S
C1542 H1556 0.961 . S
C1543 C1540 1.539 . S
C1543 H1557 0.958 . S
C1543 H1558 0.961 . S
C1543 H1559 0.960 . S
H1544 C1528 0.931 . S
H1545 C1533 0.929 . S
H1546 C1534 0.960 . S
H1547 C1534 0.962 . S
H1548 C1534 0.960 . S
H1549 C1535 0.961 . S
H1550 C1535 0.961 . S
H1551 C1535 0.961 . S
H1552 C1536 0.931 . S
H1553 C1541 0.930 . S
H1554 C1542 0.956 . S
H1555 C1542 0.961 . S
H1556 C1542 0.961 . S
H1557 C1543 0.958 . S
H1558 C1543 0.961 . S
H1559 C1543 0.960 . S
C1560 C1561 1.391 . S
C1560 C1562 1.394 . S
C1560 H1576 0.931 . S
C1561 C1560 1.391 . S
C1561 C1565 1.376 . S
C1562 C1560 1.394 . S
C1562 C1563 1.369 . S
C1562 C1566 1.531 . S
C1563 C1562 1.369 . S
C1563 C1564 1.410 . S
C1563 C1571 1.503 . S
C1564 C1563 1.410 . S
C1564 C1565 1.392 . S
C1564 C1567 1.511 . S
C1565 C1561 1.376 . S
C1565 C1564 1.392 . S
C1565 H1577 0.929 . S
C1566 C1562 1.531 . S
C1566 H1578 0.960 . S
C1566 H1579 0.962 . S
C1566 H1580 0.960 . S
C1567 C1564 1.511 . S
C1567 H1581 0.961 . S
C1567 H1582 0.961 . S
C1567 H1583 0.961 . S
C1568 C1569 1.370 . S
C1568 C1570 1.363 . S
C1568 H1584 0.931 . S
C1569 C1568 1.370 . S
C1569 C1573 1.408 . S
C1570 C1568 1.363 . S
C1570 C1571 1.370 . S
C1570 C1574 1.524 . S
C1571 C1563 1.503 . S
C1571 C1570 1.370 . S
C1571 C1572 1.403 . S
C1572 C1571 1.403 . S
C1572 C1573 1.404 . S
C1572 C1575 1.539 . S
C1573 C1569 1.408 . S
C1573 C1572 1.404 . S
C1573 H1585 0.930 . S
C1574 C1570 1.524 . S
C1574 H1586 0.956 . S
C1574 H1587 0.961 . S
C1574 H1588 0.961 . S
C1575 C1572 1.539 . S
C1575 H1589 0.958 . S
C1575 H1590 0.961 . S
C1575 H1591 0.960 . S
H1576 C1560 0.931 . S
H1577 C1565 0.929 . S
H1578 C1566 0.960 . S
H1579 C1566 0.962 . S
H1580 C1566 0.960 . S
H1581 C1567 0.961 . S
H1582 C1567 0.961 . S
H1583 C1567 0.961 . S
H1584 C1568 0.931 . S
H1585 C1573 0.930 . S
H1586 C1574 0.956 . S
H1587 C1574 0.961 . S
H1588 C1574 0.961 . S
H1589 C1575 0.958 . S
H1590 C1575 0.961 . S
H1591 C1575 0.960 . S
C1592 C1593 1.391 . S
C1592 C1594 1.394 . S
C1592 H1608 0.931 . S
C1593 C1592 1.391 . S
C1593 C1597 1.376 . S
C1594 C1592 1.394 . S
C1594 C1595 1.369 . S
C1594 C1598 1.531 . S
C1595 C1594 1.369 . S
C1595 C1596 1.410 . S
C1595 C1603 1.503 . S
C1596 C1595 1.410 . S
C1596 C1597 1.392 . S
C1596 C1599 1.511 . S
C1597 C1593 1.376 . S
C1597 C1596 1.392 . S
C1597 H1609 0.929 . S
C1598 C1594 1.531 . S
C1598 H1610 0.960 . S
C1598 H1611 0.962 . S
C1598 H1612 0.960 . S
C1599 C1596 1.511 . S
C1599 H1613 0.961 . S
C1599 H1614 0.961 . S
C1599 H1615 0.961 . S
C1600 C1601 1.370 . S
C1600 C1602 1.363 . S
C1600 H1616 0.931 . S
C1601 C1600 1.370 . S
C1601 C1605 1.408 . S
C1602 C1600 1.363 . S
C1602 C1603 1.370 . S
C1602 C1606 1.524 . S
C1603 C1595 1.503 . S
C1603 C1602 1.370 . S
C1603 C1604 1.403 . S
C1604 C1603 1.403 . S
C1604 C1605 1.404 . S
C1604 C1607 1.539 . S
C1605 C1601 1.408 . S
C1605 C1604 1.404 . S
C1605 H1617 0.930 . S
C1606 C1602 1.524 . S
C1606 H1618 0.956 . S
C1606 H1619 0.961 . S
C1606 H1620 0.961 . S
C1607 C1604 1.539 . S
C1607 H1621 0.958 . S
C1607 H1622 0.961 . S
C1607 H1623 0.960 . S
H1608 C1592 0.931 . S
H1609 C1597 0.929 . S
H1610 C1598 0.960 . S
H1611 C1598 0.962 . S
H1612 C1598 0.960 . S
H1613 C1599 0.961 . S
H1614 C1599 0.961 . S
H1615 C1599 0.961 . S
H1616 C1600 0.931 . S
H1617 C1605 0.930 . S
H1618 C1606 0.956 . S
H1619 C1606 0.961 . S
H1620 C1606 0.961 . S
H1621 C1607 0.958 . S
H1622 C1607 0.961 . S
H1623 C1607 0.960 . S
C1624 C1625 1.391 . S
C1624 C1626 1.394 . S
C1624 H1640 0.931 . S
C1625 C1624 1.391 . S
C1625 C1629 1.376 . S
C1626 C1624 1.394 . S
C1626 C1627 1.369 . S
C1626 C1630 1.531 . S
C1627 C1626 1.369 . S
C1627 C1628 1.410 . S
C1627 C1635 1.503 . S
C1628 C1627 1.410 . S
C1628 C1629 1.392 . S
C1628 C1631 1.511 . S
C1629 C1625 1.376 . S
C1629 C1628 1.392 . S
C1629 H1641 0.929 . S
C1630 C1626 1.531 . S
C1630 H1642 0.960 . S
C1630 H1643 0.962 . S
C1630 H1644 0.960 . S
C1631 C1628 1.511 . S
C1631 H1645 0.961 . S
C1631 H1646 0.961 . S
C1631 H1647 0.961 . S
C1632 C1633 1.370 . S
C1632 C1634 1.363 . S
C1632 H1648 0.931 . S
C1633 C1632 1.370 . S
C1633 C1637 1.408 . S
C1634 C1632 1.363 . S
C1634 C1635 1.370 . S
C1634 C1638 1.524 . S
C1635 C1627 1.503 . S
C1635 C1634 1.370 . S
C1635 C1636 1.403 . S
C1636 C1635 1.403 . S
C1636 C1637 1.404 . S
C1636 C1639 1.539 . S
C1637 C1633 1.408 . S
C1637 C1636 1.404 . S
C1637 H1649 0.930 . S
C1638 C1634 1.524 . S
C1638 H1650 0.956 . S
C1638 H1651 0.961 . S
C1638 H1652 0.961 . S
C1639 C1636 1.539 . S
C1639 H1653 0.958 . S
C1639 H1654 0.961 . S
C1639 H1655 0.960 . S
H1640 C1624 0.931 . S
H1641 C1629 0.929 . S
H1642 C1630 0.960 . S
H1643 C1630 0.962 . S
H1644 C1630 0.960 . S
H1645 C1631 0.961 . S
H1646 C1631 0.961 . S
H1647 C1631 0.961 . S
H1648 C1632 0.931 . S
H1649 C1637 0.930 . S
H1650 C1638 0.956 . S
H1651 C1638 0.961 . S
H1652 C1638 0.961 . S
H1653 C1639 0.958 . S
H1654 C1639 0.961 . S
H1655 C1639 0.960 . S
C1656 C1657 1.391 . S
C1656 C1658 1.394 . S
C1656 H1672 0.931 . S
C1657 C1656 1.391 . S
C1657 C1661 1.376 . S
C1658 C1656 1.394 . S
C1658 C1659 1.369 . S
C1658 C1662 1.531 . S
C1659 C1658 1.369 . S
C1659 C1660 1.410 . S
C1659 C1667 1.503 . S
C1660 C1659 1.410 . S
C1660 C1661 1.392 . S
C1660 C1663 1.511 . S
C1661 C1657 1.376 . S
C1661 C1660 1.392 . S
C1661 H1673 0.929 . S
C1662 C1658 1.531 . S
C1662 H1674 0.960 . S
C1662 H1675 0.962 . S
C1662 H1676 0.960 . S
C1663 C1660 1.511 . S
C1663 H1677 0.961 . S
C1663 H1678 0.961 . S
C1663 H1679 0.961 . S
C1664 C1665 1.370 . S
C1664 C1666 1.363 . S
C1664 H1680 0.931 . S
C1665 C1664 1.370 . S
C1665 C1669 1.408 . S
C1666 C1664 1.363 . S
C1666 C1667 1.370 . S
C1666 C1670 1.524 . S
C1667 C1659 1.503 . S
C1667 C1666 1.370 . S
C1667 C1668 1.403 . S
C1668 C1667 1.403 . S
C1668 C1669 1.404 . S
C1668 C1671 1.539 . S
C1669 C1665 1.408 . S
C1669 C1668 1.404 . S
C1669 H1681 0.930 . S
C1670 C1666 1.524 . S
C1670 H1682 0.956 . S
C1670 H1683 0.961 . S
C1670 H1684 0.961 . S
C1671 C1668 1.539 . S
C1671 H1685 0.958 . S
C1671 H1686 0.961 . S
C1671 H1687 0.960 . S
H1672 C1656 0.931 . S
H1673 C1661 0.929 . S
H1674 C1662 0.960 . S
H1675 C1662 0.962 . S
H1676 C1662 0.960 . S
H1677 C1663 0.961 . S
H1678 C1663 0.961 . S
H1679 C1663 0.961 . S
H1680 C1664 0.931 . S
H1681 C1669 0.930 . S
H1682 C1670 0.956 . S
H1683 C1670 0.961 . S
H1684 C1670 0.961 . S
H1685 C1671 0.958 . S
H1686 C1671 0.961 . S
H1687 C1671 0.960 . S
C1688 C1689 1.391 . S
C1688 C1690 1.394 . S
C1688 H1704 0.931 . S
C1689 C1688 1.391 . S
C1689 C1693 1.376 . S
C1690 C1688 1.394 . S
C1690 C1691 1.369 . S
C1690 C1694 1.531 . S
C1691 C1690 1.369 . S
C1691 C1692 1.410 . S
C1691 C1699 1.503 . S
C1692 C1691 1.410 . S
C1692 C1693 1.392 . S
C1692 C1695 1.511 . S
C1693 C1689 1.376 . S
C1693 C1692 1.392 . S
C1693 H1705 0.929 . S
C1694 C1690 1.531 . S
C1694 H1706 0.960 . S
C1694 H1707 0.962 . S
C1694 H1708 0.960 . S
C1695 C1692 1.511 . S
C1695 H1709 0.961 . S
C1695 H1710 0.961 . S
C1695 H1711 0.961 . S
C1696 C1697 1.370 . S
C1696 C1698 1.363 . S
C1696 H1712 0.931 . S
C1697 C1696 1.370 . S
C1697 C1701 1.408 . S
C1698 C1696 1.363 . S
C1698 C1699 1.370 . S
C1698 C1702 1.524 . S
C1699 C1691 1.503 . S
C1699 C1698 1.370 . S
C1699 C1700 1.403 . S
C1700 C1699 1.403 . S
C1700 C1701 1.404 . S
C1700 C1703 1.539 . S
C1701 C1697 1.408 . S
C1701 C1700 1.404 . S
C1701 H1713 0.930 . S
C1702 C1698 1.524 . S
C1702 H1714 0.956 . S
C1702 H1715 0.961 . S
C1702 H1716 0.961 . S
C1703 C1700 1.539 . S
C1703 H1717 0.958 . S
C1703 H1718 0.961 . S
C1703 H1719 0.960 . S
H1704 C1688 0.931 . S
H1705 C1693 0.929 . S
H1706 C1694 0.960 . S
H1707 C1694 0.962 . S
H1708 C1694 0.960 . S
H1709 C1695 0.961 . S
H1710 C1695 0.961 . S
H1711 C1695 0.961 . S
H1712 C1696 0.931 . S
H1713 C1701 0.930 . S
H1714 C1702 0.956 . S
H1715 C1702 0.961 . S
H1716 C1702 0.961 . S
H1717 C1703 0.958 . S
H1718 C1703 0.961 . S
H1719 C1703 0.960 . S
C1720 C1721 1.391 . S
C1720 C1722 1.394 . S
C1720 H1736 0.931 . S
C1721 C1720 1.391 . S
C1721 C1725 1.376 . S
C1722 C1720 1.394 . S
C1722 C1723 1.369 . S
C1722 C1726 1.531 . S
C1723 C1722 1.369 . S
C1723 C1724 1.410 . S
C1723 C1731 1.503 . S
C1724 C1723 1.410 . S
C1724 C1725 1.392 . S
C1724 C1727 1.511 . S
C1725 C1721 1.376 . S
C1725 C1724 1.392 . S
C1725 H1737 0.929 . S
C1726 C1722 1.531 . S
C1726 H1738 0.960 . S
C1726 H1739 0.962 . S
C1726 H1740 0.960 . S
C1727 C1724 1.511 . S
C1727 H1741 0.961 . S
C1727 H1742 0.961 . S
C1727 H1743 0.961 . S
C1728 C1729 1.370 . S
C1728 C1730 1.363 . S
C1728 H1744 0.931 . S
C1729 C1728 1.370 . S
C1729 C1733 1.408 . S
C1730 C1728 1.363 . S
C1730 C1731 1.370 . S
C1730 C1734 1.524 . S
C1731 C1723 1.503 . S
C1731 C1730 1.370 . S
C1731 C1732 1.403 . S
C1732 C1731 1.403 . S
C1732 C1733 1.404 . S
C1732 C1735 1.539 . S
C1733 C1729 1.408 . S
C1733 C1732 1.404 . S
C1733 H1745 0.930 . S
C1734 C1730 1.524 . S
C1734 H1746 0.956 . S
C1734 H1747 0.961 . S
C1734 H1748 0.961 . S
C1735 C1732 1.539 . S
C1735 H1749 0.958 . S
C1735 H1750 0.961 . S
C1735 H1751 0.960 . S
H1736 C1720 0.931 . S
H1737 C1725 0.929 . S
H1738 C1726 0.960 . S
H1739 C1726 0.962 . S
H1740 C1726 0.960 . S
H1741 C1727 0.961 . S
H1742 C1727 0.961 . S
H1743 C1727 0.961 . S
H1744 C1728 0.931 . S
H1745 C1733 0.930 . S
H1746 C1734 0.956 . S
H1747 C1734 0.961 . S
H1748 C1734 0.961 . S
H1749 C1735 0.958 . S
H1750 C1735 0.961 . S
H1751 C1735 0.960 . S
C1752 C1753 1.391 . S
C1752 C1754 1.394 . S
C1752 H1768 0.931 . S
C1753 C1752 1.391 . S
C1753 C1757 1.376 . S
C1754 C1752 1.394 . S
C1754 C1755 1.369 . S
C1754 C1758 1.531 . S
C1755 C1754 1.369 . S
C1755 C1756 1.410 . S
C1755 C1763 1.503 . S
C1756 C1755 1.410 . S
C1756 C1757 1.392 . S
C1756 C1759 1.511 . S
C1757 C1753 1.376 . S
C1757 C1756 1.392 . S
C1757 H1769 0.929 . S
C1758 C1754 1.531 . S
C1758 H1770 0.960 . S
C1758 H1771 0.962 . S
C1758 H1772 0.960 . S
C1759 C1756 1.511 . S
C1759 H1773 0.961 . S
C1759 H1774 0.961 . S
C1759 H1775 0.961 . S
C1760 C1761 1.370 . S
C1760 C1762 1.363 . S
C1760 H1776 0.931 . S
C1761 C1760 1.370 . S
C1761 C1765 1.408 . S
C1762 C1760 1.363 . S
C1762 C1763 1.370 . S
C1762 C1766 1.524 . S
C1763 C1755 1.503 . S
C1763 C1762 1.370 . S
C1763 C1764 1.403 . S
C1764 C1763 1.403 . S
C1764 C1765 1.404 . S
C1764 C1767 1.539 . S
C1765 C1761 1.408 . S
C1765 C1764 1.404 . S
C1765 H1777 0.930 . S
C1766 C1762 1.524 . S
C1766 H1778 0.956 . S
C1766 H1779 0.961 . S
C1766 H1780 0.961 . S
C1767 C1764 1.539 . S
C1767 H1781 0.958 . S
C1767 H1782 0.961 . S
C1767 H1783 0.960 . S
H1768 C1752 0.931 . S
H1769 C1757 0.929 . S
H1770 C1758 0.960 . S
H1771 C1758 0.962 . S
H1772 C1758 0.960 . S
H1773 C1759 0.961 . S
H1774 C1759 0.961 . S
H1775 C1759 0.961 . S
H1776 C1760 0.931 . S
H1777 C1765 0.930 . S
H1778 C1766 0.956 . S
H1779 C1766 0.961 . S
H1780 C1766 0.961 . S
H1781 C1767 0.958 . S
H1782 C1767 0.961 . S
H1783 C1767 0.960 . S
C1784 C1785 1.391 . S
C1784 C1786 1.394 . S
C1784 H1800 0.931 . S
C1785 C1784 1.391 . S
C1785 C1789 1.376 . S
C1786 C1784 1.394 . S
C1786 C1787 1.369 . S
C1786 C1790 1.531 . S
C1787 C1786 1.369 . S
C1787 C1788 1.410 . S
C1787 C1795 1.503 . S
C1788 C1787 1.410 . S
C1788 C1789 1.392 . S
C1788 C1791 1.511 . S
C1789 C1785 1.376 . S
C1789 C1788 1.392 . S
C1789 H1801 0.929 . S
C1790 C1786 1.531 . S
C1790 H1802 0.960 . S
C1790 H1803 0.962 . S
C1790 H1804 0.960 . S
C1791 C1788 1.511 . S
C1791 H1805 0.961 . S
C1791 H1806 0.961 . S
C1791 H1807 0.961 . S
C1792 C1793 1.370 . S
C1792 C1794 1.363 . S
C1792 H1808 0.931 . S
C1793 C1792 1.370 . S
C1793 C1797 1.408 . S
C1794 C1792 1.363 . S
C1794 C1795 1.370 . S
C1794 C1798 1.524 . S
C1795 C1787 1.503 . S
C1795 C1794 1.370 . S
C1795 C1796 1.403 . S
C1796 C1795 1.403 . S
C1796 C1797 1.404 . S
C1796 C1799 1.539 . S
C1797 C1793 1.408 . S
C1797 C1796 1.404 . S
C1797 H1809 0.930 . S
C1798 C1794 1.524 . S
C1798 H1810 0.956 . S
C1798 H1811 0.961 . S
C1798 H1812 0.961 . S
C1799 C1796 1.539 . S
C1799 H1813 0.958 . S
C1799 H1814 0.961 . S
C1799 H1815 0.960 . S
H1800 C1784 0.931 . S
H1801 C1789 0.929 . S
H1802 C1790 0.960 . S
H1803 C1790 0.962 . S
H1804 C1790 0.960 . S
H1805 C1791 0.961 . S
H1806 C1791 0.961 . S
H1807 C1791 0.961 . S
H1808 C1792 0.931 . S
H1809 C1797 0.930 . S
H1810 C1798 0.956 . S
H1811 C1798 0.961 . S
H1812 C1798 0.961 . S
H1813 C1799 0.958 . S
H1814 C1799 0.961 . S
H1815 C1799 0.960 . S
C1816 C1817 1.391 . S
C1816 C1818 1.394 . S
C1816 H1832 0.931 . S
C1817 C1816 1.391 . S
C1817 C1821 1.376 . S
C1818 C1816 1.394 . S
C1818 C1819 1.369 . S
C1818 C1822 1.531 . S
C1819 C1818 1.369 . S
C1819 C1820 1.410 . S
C1819 C1827 1.503 . S
C1820 C1819 1.410 . S
C1820 C1821 1.392 . S
C1820 C1823 1.511 . S
C1821 C1817 1.376 . S
C1821 C1820 1.392 . S
C1821 H1833 0.929 . S
C1822 C1818 1.531 . S
C1822 H1834 0.960 . S
C1822 H1835 0.962 . S
C1822 H1836 0.960 . S
C1823 C1820 1.511 . S
C1823 H1837 0.961 . S
C1823 H1838 0.961 . S
C1823 H1839 0.961 . S
C1824 C1825 1.370 . S
C1824 C1826 1.363 . S
C1824 H1840 0.931 . S
C1825 C1824 1.370 . S
C1825 C1829 1.408 . S
C1826 C1824 1.363 . S
C1826 C1827 1.370 . S
C1826 C1830 1.524 . S
C1827 C1819 1.503 . S
C1827 C1826 1.370 . S
C1827 C1828 1.403 . S
C1828 C1827 1.403 . S
C1828 C1829 1.404 . S
C1828 C1831 1.539 . S
C1829 C1825 1.408 . S
C1829 C1828 1.404 . S
C1829 H1841 0.930 . S
C1830 C1826 1.524 . S
C1830 H1842 0.956 . S
C1830 H1843 0.961 . S
C1830 H1844 0.961 . S
C1831 C1828 1.539 . S
C1831 H1845 0.958 . S
C1831 H1846 0.961 . S
C1831 H1847 0.960 . S
H1832 C1816 0.931 . S
H1833 C1821 0.929 . S
H1834 C1822 0.960 . S
H1835 C1822 0.962 . S
H1836 C1822 0.960 . S
H1837 C1823 0.961 . S
H1838 C1823 0.961 . S
H1839 C1823 0.961 . S
H1840 C1824 0.931 . S
H1841 C1829 0.930 . S
H1842 C1830 0.956 . S
H1843 C1830 0.961 . S
H1844 C1830 0.961 . S
H1845 C1831 0.958 . S
H1846 C1831 0.961 . S
H1847 C1831 0.960 . S
C313 C5 1.211 . S
C321 C96 1.232 . S
C345 C109 1.270 . S
C353 C18 1.254 . S
C377 C31 1.280 . S
C385 C122 1.259 . S
C409 C44 1.258 . S
C417 C135 1.249 . S
C441 C148 1.266 . S
C449 C57 1.255 . S
C473 C70 1.265 . S
C481 C83 1.254 . S
C505 C161 1.246 . S
C513 C252 1.252 . S
C537 C174 1.263 . S
C545 C265 1.257 . S
C569 C278 1.235 . S
C577 C187 1.248 . S
C601 C200 1.199 . S
C609 C291 1.227 . S
C633 C213 1.234 . S
C641 C304 1.247 . S
C665 C239 1.204 . S
C673 C226 1.226 . S
C697 C0 1.209 . S
C705 C104 1.230 . S
C729 C117 1.215 . S
C737 C13 1.222 . S
C761 C130 1.212 . S
C769 C26 1.232 . S
C793 C39 1.198 . S
C801 C143 1.223 . S
C825 C52 1.258 . S
C833 C78 1.247 . S
C857 C65 1.200 . S
C865 C91 1.224 . S
C889 C260 1.258 . S
C897 C156 1.247 . S
C921 C169 1.258 . S
C929 C273 1.247 . S
C953 C286 1.257 . S
C961 C182 1.247 . S
C985 C299 1.241 . S
C993 C195 1.246 . S
C1017 C234 1.263 . S
C1025 C208 1.245 . S
C1049 C221 1.218 . S
C1057 C247 1.239 . S
C1081 C8 1.465 . S
C1089 C203 1.481 . S
C1113 C216 1.461 . S
C1121 C21 1.478 . S
C1145 C229 1.501 . S
C1153 C34 1.493 . S
C1177 C47 1.462 . S
C1185 C164 1.479 . S
C1209 C60 1.462 . S
C1217 C177 1.479 . S
C1241 C190 1.483 . S
C1249 C73 1.489 . S
C1273 C281 1.463 . S
C1281 C86 1.478 . S
C1305 C294 1.505 . S
C1313 C99 1.495 . S
C1337 C307 1.490 . S
C1345 C112 1.492 . S
C1369 C242 1.506 . S
C1377 C125 1.497 . S
C1401 C138 1.463 . S
C1409 C255 1.480 . S
C1433 C151 1.462 . S
C1441 C268 1.478 . S
C1465 C10 1.530 . S
C1473 C140 1.517 . S
C1497 C153 1.524 . S
C1505 C23 1.515 . S
C1529 C88 1.504 . S
C1537 C36 1.522 . S
C1561 C49 1.508 . S
C1569 C101 1.519 . S
C1593 C62 1.525 . S
C1601 C114 1.514 . S
C1625 C75 1.527 . S
C1633 C127 1.514 . S
C1657 C166 1.518 . S
C1665 C296 1.525 . S
C1689 C179 1.502 . S
C1697 C309 1.523 . S
C1721 C192 1.526 . S
C1729 C244 1.522 . S
C1753 C257 1.502 . S
C1761 C205 1.522 . S
C1785 C218 1.505 . S
C1793 C270 1.519 . S
C1817 C231 1.506 . S
C1825 C283 1.526 . S
