# Generated by pormake.
# Topology vbf, (5)-cn, num edge types: 1
# Building blocks:
#     Node 0, Type 0, BuildingBlock: XOMCOT_clean_sbu_0, # of connection points: 5
#     Node 1, Type 0, BuildingBlock: XOMCOT_clean_sbu_0, # of connection points: 5
#     Node 2, Type 0, BuildingBlock: XOMCOT_clean_sbu_0, # of connection points: 5
#     Node 3, Type 0, BuildingBlock: XOMCOT_clean_sbu_0, # of connection points: 5
#     Node 4, Type 0, BuildingBlock: XOMCOT_clean_sbu_0, # of connection points: 5
#     Node 5, Type 0, BuildingBlock: XOMCOT_clean_sbu_0, # of connection points: 5
#     Node 6, Type 0, BuildingBlock: XOMCOT_clean_sbu_0, # of connection points: 5
#     Node 7, Type 0, BuildingBlock: XOMCOT_clean_sbu_0, # of connection points: 5
#     Node 8, Type 0, BuildingBlock: XOMCOT_clean_sbu_0, # of connection points: 5
#     Node 9, Type 0, BuildingBlock: XOMCOT_clean_sbu_0, # of connection points: 5
#     Node 10, Type 0, BuildingBlock: XOMCOT_clean_sbu_0, # of connection points: 5
#     Node 11, Type 0, BuildingBlock: XOMCOT_clean_sbu_0, # of connection points: 5
#     Node 12, Type 0, BuildingBlock: XOMCOT_clean_sbu_0, # of connection points: 5
#     Node 13, Type 0, BuildingBlock: XOMCOT_clean_sbu_0, # of connection points: 5
#     Node 14, Type 0, BuildingBlock: XOMCOT_clean_sbu_0, # of connection points: 5
#     Node 15, Type 0, BuildingBlock: XOMCOT_clean_sbu_0, # of connection points: 5
#     Edge 16, Type (0, 0), BuildingBlock: UVAHIK_clean_linker_0, # of connection points: 2
#     Edge 17, Type (0, 0), BuildingBlock: UVAHIK_clean_linker_0, # of connection points: 2
#     Edge 18, Type (0, 0), BuildingBlock: UVAHIK_clean_linker_0, # of connection points: 2
#     Edge 19, Type (0, 0), BuildingBlock: UVAHIK_clean_linker_0, # of connection points: 2
#     Edge 20, Type (0, 0), BuildingBlock: UVAHIK_clean_linker_0, # of connection points: 2
#     Edge 21, Type (0, 0), BuildingBlock: UVAHIK_clean_linker_0, # of connection points: 2
#     Edge 22, Type (0, 0), BuildingBlock: UVAHIK_clean_linker_0, # of connection points: 2
#     Edge 23, Type (0, 0), BuildingBlock: UVAHIK_clean_linker_0, # of connection points: 2
#     Edge 24, Type (0, 0), BuildingBlock: UVAHIK_clean_linker_0, # of connection points: 2
#     Edge 25, Type (0, 0), BuildingBlock: UVAHIK_clean_linker_0, # of connection points: 2
#     Edge 26, Type (0, 0), BuildingBlock: UVAHIK_clean_linker_0, # of connection points: 2
#     Edge 27, Type (0, 0), BuildingBlock: UVAHIK_clean_linker_0, # of connection points: 2
#     Edge 28, Type (0, 0), BuildingBlock: UVAHIK_clean_linker_0, # of connection points: 2
#     Edge 29, Type (0, 0), BuildingBlock: UVAHIK_clean_linker_0, # of connection points: 2
#     Edge 30, Type (0, 0), BuildingBlock: UVAHIK_clean_linker_0, # of connection points: 2
#     Edge 31, Type (0, 0), BuildingBlock: UVAHIK_clean_linker_0, # of connection points: 2
#     Edge 32, Type (0, 0), BuildingBlock: UVAHIK_clean_linker_0, # of connection points: 2
#     Edge 33, Type (0, 0), BuildingBlock: UVAHIK_clean_linker_0, # of connection points: 2
#     Edge 34, Type (0, 0), BuildingBlock: UVAHIK_clean_linker_0, # of connection points: 2
#     Edge 35, Type (0, 0), BuildingBlock: UVAHIK_clean_linker_0, # of connection points: 2
#     Edge 36, Type (0, 0), BuildingBlock: UVAHIK_clean_linker_0, # of connection points: 2
#     Edge 37, Type (0, 0), BuildingBlock: UVAHIK_clean_linker_0, # of connection points: 2
#     Edge 38, Type (0, 0), BuildingBlock: UVAHIK_clean_linker_0, # of connection points: 2
#     Edge 39, Type (0, 0), BuildingBlock: UVAHIK_clean_linker_0, # of connection points: 2
#     Edge 40, Type (0, 0), BuildingBlock: UVAHIK_clean_linker_0, # of connection points: 2
#     Edge 41, Type (0, 0), BuildingBlock: UVAHIK_clean_linker_0, # of connection points: 2
#     Edge 42, Type (0, 0), BuildingBlock: UVAHIK_clean_linker_0, # of connection points: 2
#     Edge 43, Type (0, 0), BuildingBlock: UVAHIK_clean_linker_0, # of connection points: 2
#     Edge 44, Type (0, 0), BuildingBlock: UVAHIK_clean_linker_0, # of connection points: 2
#     Edge 45, Type (0, 0), BuildingBlock: UVAHIK_clean_linker_0, # of connection points: 2
#     Edge 46, Type (0, 0), BuildingBlock: UVAHIK_clean_linker_0, # of connection points: 2
#     Edge 47, Type (0, 0), BuildingBlock: UVAHIK_clean_linker_0, # of connection points: 2
#     Edge 48, Type (0, 0), BuildingBlock: UVAHIK_clean_linker_0, # of connection points: 2
#     Edge 49, Type (0, 0), BuildingBlock: UVAHIK_clean_linker_0, # of connection points: 2
#     Edge 50, Type (0, 0), BuildingBlock: UVAHIK_clean_linker_0, # of connection points: 2
#     Edge 51, Type (0, 0), BuildingBlock: UVAHIK_clean_linker_0, # of connection points: 2
#     Edge 52, Type (0, 0), BuildingBlock: UVAHIK_clean_linker_0, # of connection points: 2
#     Edge 53, Type (0, 0), BuildingBlock: UVAHIK_clean_linker_0, # of connection points: 2
#     Edge 54, Type (0, 0), BuildingBlock: UVAHIK_clean_linker_0, # of connection points: 2
#     Edge 55, Type (0, 0), BuildingBlock: UVAHIK_clean_linker_0, # of connection points: 2
# Relax obj value: 0.129
# Max RMSD: 0.207
# Mean RMSD: 0.207
data_MOF--net-vbf--node1-XOMCOT_clean_sbu_0--edge1-UVAHIK_clean_linker_0
_symmetry_space_group_name_H-M    P1
_symmetry_Int_Tables_number       1
_symmetry_cell_setting            triclinic
loop_
_symmetry_equiv_pos_as_xyz
'x, y, z'
_cell_length_a     56.293547
_cell_length_b     92.912746
_cell_length_c     32.600612
_cell_angle_alpha  90.010847
_cell_angle_beta   89.981278
_cell_angle_gamma 90.090283
loop_
_atom_site_label
_atom_site_type_symbol
_atom_site_fract_x
_atom_site_fract_y
_atom_site_fract_z
_atom_type_partial_charge
Co0 Co 0.08619 0.31184 1.00379 0.0
C1 C 0.1281 0.29438 0.97729 0.0
C2 C 0.1109 0.28531 0.03002 0.0
C3 C 0.12994 0.2768 0.02003 0.0
N4 N 0.10949 0.29632 1.00306 0.0
N5 N 0.14078 0.28253 0.98707 0.0
H6 H 0.13255 0.3015 0.95219 0.0
H7 H 0.0992 0.28352 0.05576 0.0
C8 C 0.05167 0.30185 0.06769 0.0
O9 O 0.03459 0.3047 0.04141 0.0
N10 N 0.06334 0.32767 0.00599 0.0
C11 C 0.05541 0.33618 0.9753 0.0
C12 C 0.04059 0.34656 0.99136 0.0
C13 C 0.05413 0.33361 0.04044 0.0
N14 N 0.03962 0.34479 0.03231 0.0
C15 C 0.05959 0.30389 0.93231 0.0
C16 C 0.04611 0.27674 0.95764 0.0
C17 C 0.0404 0.2811 0.91765 0.0
C18 C 0.04727 0.29494 0.90532 0.0
C19 C 0.05861 0.28605 0.98369 0.0
N20 N 0.0648 0.29964 0.97137 0.0
H21 H 0.06616 0.31392 0.92052 0.0
H22 H 0.06376 0.28204 0.01338 0.0
H23 H 0.06051 0.33542 0.94351 0.0
H24 H 0.05828 0.33005 0.07118 0.0
O25 O 0.10201 0.32109 0.95876 0.0
O26 O 0.11061 0.32508 0.02398 0.0
O27 O 0.07334 0.30426 0.05786 0.0
C28 C 0.11483 0.32794 0.98543 0.0
H29 H 0.13597 0.26743 0.0368 0.0
H30 H 0.03109 0.35468 0.97417 0.0
H31 H 0.04138 0.26611 0.96861 0.0
H32 H 0.04425 0.29864 0.87426 0.0
Co33 Co 0.92484 0.6934 0.0085 0.0
C34 C 0.88335 0.7129 0.98746 0.0
C35 C 0.87996 0.70166 0.04466 0.0
C36 C 0.85934 0.7091 0.03781 0.0
N37 N 0.89507 0.7039 0.01312 0.0
N38 N 0.86155 0.71614 1.00202 0.0
H39 H 0.88988 0.71675 0.95843 0.0
H40 H 0.88356 0.69475 0.07063 0.0
C41 C 0.93168 0.71403 0.07712 0.0
O42 O 0.92149 0.72364 0.05343 0.0
N43 N 0.95386 0.68248 0.00589 0.0
C44 C 0.96749 0.67985 0.97284 0.0
C45 C 0.98648 0.67151 0.98496 0.0
C46 C 0.96453 0.67573 0.03748 0.0
N47 N 0.9846 0.66894 0.02565 0.0
C48 C 0.93388 0.71109 0.93883 0.0
C49 C 0.97381 0.72503 0.96804 0.0
C50 C 0.96686 0.7272 0.92722 0.0
C51 C 0.94652 0.7202 0.91292 0.0
C52 C 0.96072 0.7156 0.99304 0.0
N53 N 0.94061 0.70899 0.97864 0.0
H54 H 0.9191 0.70526 0.92596 0.0
H55 H 0.96756 0.71309 0.02311 0.0
H56 H 0.9639 0.68373 0.94219 0.0
H57 H 0.95743 0.6756 0.06833 0.0
O58 O 0.91265 0.68321 0.96177 0.0
O59 O 0.90762 0.67608 0.02577 0.0
O60 O 0.93494 0.70122 0.06384 0.0
C61 C 0.90321 0.67406 0.98689 0.0
H62 H 0.8438 0.70929 0.0574 0.0
H63 H 1.00067 0.66778 0.96528 0.0
H64 H 0.98986 0.72999 0.9798 0.0
H65 H 0.94073 0.72146 0.88143 0.0
Co66 Co 0.17262 0.55949 0.25812 0.0
C67 C 0.12662 0.54402 0.2383 0.0
C68 C 0.13286 0.54695 0.30255 0.0
C69 C 0.11052 0.54134 0.29769 0.0
N70 N 0.14346 0.54832 0.26553 0.0
N71 N 0.1067 0.53945 0.25742 0.0
H72 H 0.12759 0.54545 0.20555 0.0
H73 H 0.1402 0.55074 0.33123 0.0
C74 C 0.18491 0.53902 0.32446 0.0
O75 O 0.17637 0.52896 0.30024 0.0
N76 N 0.20088 0.57117 0.25319 0.0
C77 C 0.21343 0.57424 0.21916 0.0
C78 C 0.23248 0.58279 0.23011 0.0
C79 C 0.21221 0.57793 0.28416 0.0
N80 N 0.23171 0.5851 0.27107 0.0
C81 C 0.17908 0.5398 0.19179 0.0
C82 C 0.22452 0.53105 0.21164 0.0
C83 C 0.21484 0.52687 0.17377 0.0
C84 C 0.19149 0.53098 0.16484 0.0
C85 C 0.21121 0.53976 0.23829 0.0
N86 N 0.1887 0.54408 0.22818 0.0
H87 H 0.16245 0.54405 0.18151 0.0
H88 H 0.21961 0.54377 0.26584 0.0
H89 H 0.20919 0.5704 0.1887 0.0
H90 H 0.20605 0.57771 0.31559 0.0
O91 O 0.15907 0.56897 0.21157 0.0
O92 O 0.15475 0.57645 0.2756 0.0
O93 O 0.18484 0.55216 0.3127 0.0
C94 C 0.14989 0.57822 0.23673 0.0
H95 H 0.09757 0.53948 0.32167 0.0
H96 H 0.24601 0.58679 0.20946 0.0
H97 H 0.24265 0.52834 0.21955 0.0
H98 H 0.18316 0.528 0.13611 0.0
Co99 Co 0.83332 0.44145 0.25426 0.0
C100 C 0.87207 0.46196 0.2315 0.0
C101 C 0.86411 0.46207 0.29601 0.0
C102 C 0.88173 0.47195 0.28879 0.0
N103 N 0.85776 0.45595 0.26016 0.0
N104 N 0.88673 0.47186 0.24843 0.0
H105 H 0.87173 0.45922 0.19924 0.0
H106 H 0.85682 0.45938 0.32568 0.0
C107 C 0.796 0.45044 0.31498 0.0
O108 O 0.77968 0.44752 0.28737 0.0
N109 N 0.80898 0.42653 0.25031 0.0
C110 C 0.79716 0.42155 0.21718 0.0
C111 C 0.78025 0.41181 0.22986 0.0
C112 C 0.79981 0.41909 0.28237 0.0
N113 N 0.78175 0.4104 0.27092 0.0
C114 C 0.81354 0.45199 0.17913 0.0
C115 C 0.79541 0.47753 0.20887 0.0
C116 C 0.79184 0.47407 0.1674 0.0
C117 C 0.80155 0.46121 0.15261 0.0
C118 C 0.80756 0.4679 0.23451 0.0
N119 N 0.81525 0.45487 0.22009 0.0
H120 H 0.82198 0.44266 0.1661 0.0
H121 H 0.81117 0.47114 0.26567 0.0
H122 H 0.8002 0.42461 0.18581 0.0
H123 H 0.80536 0.42064 0.31384 0.0
O124 O 0.85113 0.43226 0.21129 0.0
O125 O 0.85504 0.42725 0.27736 0.0
O126 O 0.81803 0.44874 0.30659 0.0
C127 C 0.86153 0.42478 0.23959 0.0
H128 H 0.89073 0.47844 0.31161 0.0
H129 H 0.76761 0.4063 0.21036 0.0
H130 H 0.78893 0.48757 0.22143 0.0
H131 H 0.80053 0.45844 0.12038 0.0
Co132 Co 0.08541 0.81093 0.50952 0.0
C133 C 0.12463 0.7912 0.48385 0.0
C134 C 0.11027 0.78546 0.54257 0.0
C135 C 0.12839 0.77615 0.53349 0.0
N136 N 0.10766 0.79489 0.51141 0.0
N137 N 0.13748 0.77978 0.49672 0.0
H138 H 0.12775 0.79677 0.45523 0.0
H139 H 0.10006 0.78531 0.57056 0.0
C140 C 0.05038 0.80212 0.57452 0.0
O141 O 0.0332 0.80443 0.54804 0.0
N142 N 0.06363 0.82739 0.50896 0.0
C143 C 0.05807 0.83605 0.47709 0.0
C144 C 0.04273 0.8466 0.49028 0.0
C145 C 0.05278 0.83358 0.54163 0.0
N146 N 0.03923 0.84496 0.53089 0.0
C147 C 0.05664 0.8031 0.44047 0.0
C148 C 0.04355 0.77601 0.46704 0.0
C149 C 0.03594 0.78067 0.42828 0.0
C150 C 0.04273 0.79441 0.41521 0.0
C151 C 0.05733 0.78517 0.49167 0.0
N152 N 0.06323 0.79875 0.47878 0.0
H153 H 0.06307 0.81304 0.42798 0.0
H154 H 0.06354 0.78118 0.52083 0.0
H155 H 0.06524 0.83529 0.44649 0.0
H156 H 0.05473 0.82992 0.57286 0.0
O157 O 0.10215 0.81881 0.46336 0.0
O158 O 0.11061 0.82384 0.52811 0.0
O159 O 0.07198 0.80458 0.56439 0.0
C160 C 0.11553 0.82563 0.48928 0.0
H161 H 0.135 0.76768 0.55323 0.0
H162 H 0.03512 0.85501 0.47148 0.0
H163 H 0.03903 0.76537 0.47814 0.0
H164 H 0.03819 0.79824 0.38482 0.0
Co165 Co 0.92404 0.19328 0.50501 0.0
C166 C 0.88343 0.2132 0.48838 0.0
C167 C 0.90475 0.22039 0.53889 0.0
C168 C 0.88635 0.22988 0.53384 0.0
N169 N 0.90316 0.20992 0.51023 0.0
N170 N 0.87291 0.22532 0.50228 0.0
H171 H 0.8766 0.20684 0.46324 0.0
H172 H 0.91803 0.22112 0.56267 0.0
C173 C 0.96172 0.20021 0.5674 0.0
O174 O 0.97794 0.1972 0.53969 0.0
N175 N 0.94456 0.17638 0.50131 0.0
C176 C 0.94988 0.16834 0.46811 0.0
C177 C 0.96384 0.15693 0.48003 0.0
C178 C 0.95432 0.16916 0.53319 0.0
N179 N 0.96688 0.15753 0.52105 0.0
C180 C 0.94912 0.20149 0.4322 0.0
C181 C 0.96845 0.22688 0.46081 0.0
C182 C 0.97233 0.22301 0.41975 0.0
C183 C 0.96239 0.2101 0.4057 0.0
C184 C 0.95496 0.21791 0.4864 0.0
N185 N 0.94596 0.20511 0.47243 0.0
H186 H 0.94033 0.19228 0.41934 0.0
H187 H 0.95148 0.22154 0.51718 0.0
H188 H 0.94335 0.17006 0.43744 0.0
H189 H 0.95213 0.17233 0.56481 0.0
O190 O 0.90514 0.18608 0.46038 0.0
O191 O 0.8987 0.18081 0.52561 0.0
O192 O 0.93966 0.19882 0.55876 0.0
C193 C 0.8924 0.17929 0.48731 0.0
H194 H 0.88253 0.23907 0.55313 0.0
H195 H 0.97067 0.14866 0.4599 0.0
H196 H 0.9755 0.23685 0.47304 0.0
H197 H 0.96388 0.20692 0.37384 0.0
Co198 Co 0.17189 0.05857 0.75035 0.0
C199 C 0.13008 0.04036 0.72707 0.0
C200 C 0.14964 0.03125 0.77708 0.0
C201 C 0.1306 0.02247 0.76883 0.0
N202 N 0.14953 0.04249 0.75082 0.0
N203 N 0.11825 0.02823 0.73755 0.0
H204 H 0.12441 0.04754 0.70291 0.0
H205 H 0.16234 0.02953 0.80132 0.0
C206 C 0.20617 0.05194 0.81778 0.0
O207 O 0.22335 0.05567 0.7926 0.0
N208 N 0.19376 0.07491 0.75107 0.0
C209 C 0.20553 0.08125 0.71982 0.0
C210 C 0.21914 0.09234 0.73506 0.0
C211 C 0.19964 0.08277 0.78455 0.0
N212 N 0.21565 0.09319 0.77589 0.0
C213 C 0.19815 0.04939 0.67975 0.0
C214 C 0.2159 0.02412 0.71185 0.0
C215 C 0.22052 0.02748 0.67079 0.0
C216 C 0.21168 0.04035 0.65492 0.0
C217 C 0.20277 0.03369 0.73606 0.0
N218 N 0.19435 0.04637 0.72026 0.0
H219 H 0.18973 0.05846 0.66535 0.0
H220 H 0.19869 0.03047 0.76697 0.0
H221 H 0.20447 0.07832 0.68797 0.0
H222 H 0.19258 0.08074 0.81488 0.0
O223 O 0.15599 0.06681 0.70389 0.0
O224 O 0.14658 0.0715 0.76837 0.0
O225 O 0.18452 0.05225 0.80576 0.0
C226 C 0.14248 0.07367 0.72946 0.0
H227 H 0.12563 0.01292 0.7858 0.0
H228 H 0.2312 0.099 0.71746 0.0
H229 H 0.22196 0.01405 0.72488 0.0
H230 H 0.21404 0.04303 0.62282 0.0
Co231 Co 0.83299 0.94317 0.75798 0.0
C232 C 0.87452 0.96142 0.73332 0.0
C233 C 0.85667 0.96981 0.78628 0.0
C234 C 0.87525 0.9788 0.77691 0.0
N235 N 0.8559 0.95895 0.75874 0.0
N236 N 0.88648 0.97349 0.7438 0.0
H237 H 0.87939 0.95459 0.7078 0.0
H238 H 0.84473 0.97125 0.81187 0.0
C239 C 0.79797 0.9525 0.82198 0.0
O240 O 0.78095 0.94986 0.79539 0.0
N241 N 0.81048 0.92708 0.75866 0.0
C242 C 0.80337 0.91856 0.72735 0.0
C243 C 0.7883 0.90807 0.74224 0.0
C244 C 0.80057 0.92103 0.79237 0.0
N245 N 0.78636 0.9098 0.7831 0.0
C246 C 0.80639 0.9512 0.68668 0.0
C247 C 0.79194 0.97801 0.71312 0.0
C248 C 0.78629 0.97373 0.67301 0.0
C249 C 0.79371 0.96007 0.66009 0.0
C250 C 0.80484 0.96879 0.73873 0.0
N251 N 0.81147 0.95534 0.72589 0.0
H252 H 0.81326 0.9413 0.67453 0.0
H253 H 0.80983 0.97271 0.7686 0.0
H254 H 0.80918 0.91941 0.69593 0.0
H255 H 0.80399 0.92452 0.82343 0.0
O256 O 0.84933 0.93445 0.71271 0.0
O257 O 0.85754 0.93004 0.77787 0.0
O258 O 0.81967 0.95019 0.81224 0.0
C259 C 0.86206 0.9275 0.73925 0.0
H260 H 0.88062 0.98826 0.79394 0.0
H261 H 0.77925 0.89992 0.72434 0.0
H262 H 0.78679 0.98849 0.72454 0.0
H263 H 0.79078 0.95646 0.62891 0.0
Co264 Co 0.58232 0.30887 0.50819 0.0
C265 C 0.62797 0.29239 0.50218 0.0
C266 C 0.59957 0.27993 0.52795 0.0
C267 C 0.61938 0.27135 0.52526 0.0
N268 N 0.6049 0.29315 0.51353 0.0
N269 N 0.63722 0.27919 0.50903 0.0
H270 H 0.63775 0.30108 0.48813 0.0
H271 H 0.58225 0.27664 0.53888 0.0
C272 C 0.54866 0.30481 0.58172 0.0
O273 O 0.53256 0.31339 0.56611 0.0
N274 N 0.56002 0.32465 0.50341 0.0
C275 C 0.54465 0.32742 0.47277 0.0
C276 C 0.53108 0.33917 0.48361 0.0
C277 C 0.55655 0.3352 0.53124 0.0
N278 N 0.53831 0.34389 0.52076 0.0
C279 C 0.57302 0.29038 0.44177 0.0
C280 C 0.5255 0.28477 0.45525 0.0
C281 C 0.5364 0.27918 0.4199 0.0
C282 C 0.56064 0.28185 0.41407 0.0
C283 C 0.53875 0.29321 0.48276 0.0
N284 N 0.5622 0.29612 0.47547 0.0
H285 H 0.59159 0.29247 0.43587 0.0
H286 H 0.52978 0.29772 0.50869 0.0
H287 H 0.5428 0.32107 0.44515 0.0
H288 H 0.56611 0.33583 0.55999 0.0
O289 O 0.59978 0.31691 0.46315 0.0
O290 O 0.60621 0.32258 0.52816 0.0
O291 O 0.56802 0.30214 0.56243 0.0
C292 C 0.61178 0.32437 0.48958 0.0
H293 H 0.62054 0.26021 0.53472 0.0
H294 H 0.51611 0.34334 0.46654 0.0
H295 H 0.50677 0.28302 0.46099 0.0
H296 H 0.57011 0.27745 0.38803 0.0
Co297 Co 0.42095 0.69372 0.50976 0.0
C298 C 0.37652 0.71087 0.49033 0.0
C299 C 0.37943 0.7041 0.55294 0.0
C300 C 0.35761 0.71035 0.5477 0.0
N301 N 0.39164 0.70458 0.5173 0.0
N302 N 0.35582 0.7146 0.50842 0.0
H303 H 0.37937 0.71176 0.4578 0.0
H304 H 0.38556 0.69886 0.58059 0.0
C305 C 0.43094 0.71331 0.57967 0.0
O306 O 0.42143 0.72351 0.55712 0.0
N307 N 0.44941 0.68229 0.5046 0.0
C308 C 0.46156 0.67909 0.4703 0.0
C309 C 0.48041 0.67036 0.4808 0.0
C310 C 0.46082 0.67547 0.53533 0.0
N311 N 0.48 0.66808 0.52182 0.0
C312 C 0.4289 0.71392 0.44484 0.0
C313 C 0.47222 0.72421 0.47177 0.0
C314 C 0.46322 0.72909 0.43418 0.0
C315 C 0.44119 0.72392 0.42105 0.0
C316 C 0.45895 0.71443 0.49532 0.0
N317 N 0.43724 0.70961 0.48217 0.0
H318 H 0.41349 0.70894 0.43158 0.0
H319 H 0.46673 0.71022 0.52312 0.0
H320 H 0.45697 0.68277 0.43985 0.0
H321 H 0.45511 0.67599 0.56694 0.0
O322 O 0.40794 0.68473 0.46177 0.0
O323 O 0.40308 0.6764 0.52475 0.0
O324 O 0.43232 0.70046 0.56566 0.0
C325 C 0.39859 0.6751 0.4856 0.0
H326 H 0.34377 0.71128 0.57061 0.0
H327 H 0.49314 0.66589 0.45949 0.0
H328 H 0.48955 0.72765 0.48238 0.0
H329 H 0.43416 0.72689 0.39129 0.0
Co330 Co 0.67587 0.56121 0.75138 0.0
C331 C 0.63392 0.54365 0.72533 0.0
C332 C 0.64705 0.53726 0.78438 0.0
C333 C 0.62817 0.52857 0.77447 0.0
N334 N 0.65098 0.54663 0.7534 0.0
N335 N 0.61995 0.53263 0.73756 0.0
H336 H 0.63166 0.54936 0.69668 0.0
H337 H 0.65706 0.53664 0.81256 0.0
C338 C 0.70991 0.55086 0.81504 0.0
O339 O 0.72669 0.55248 0.78736 0.0
N340 N 0.70035 0.57622 0.75095 0.0
C341 C 0.7085 0.58412 0.71911 0.0
C342 C 0.72469 0.59405 0.73332 0.0
C343 C 0.71066 0.58227 0.78433 0.0
N344 N 0.72622 0.59281 0.77444 0.0
C345 C 0.70297 0.55132 0.6823 0.0
C346 C 0.71033 0.52353 0.70942 0.0
C347 C 0.71844 0.52745 0.67037 0.0
C348 C 0.71482 0.54157 0.65709 0.0
C349 C 0.699 0.53377 0.73418 0.0
N350 N 0.69577 0.54762 0.72088 0.0
H351 H 0.69838 0.56155 0.66943 0.0
H352 H 0.69233 0.53037 0.76364 0.0
H353 H 0.70246 0.5834 0.68782 0.0
H354 H 0.70632 0.57935 0.81551 0.0
O355 O 0.66091 0.57007 0.70497 0.0
O356 O 0.65294 0.57567 0.76953 0.0
O357 O 0.68841 0.55414 0.80621 0.0
C358 C 0.64893 0.57789 0.73056 0.0
H359 H 0.62056 0.52018 0.79343 0.0
H360 H 0.73444 0.60163 0.71457 0.0
H361 H 0.7124 0.51261 0.72045 0.0
H362 H 0.71993 0.54486 0.62643 0.0
Co363 Co 0.33981 0.44475 0.75717 0.0
C364 C 0.37939 0.46409 0.73062 0.0
C365 C 0.3655 0.4702 0.78934 0.0
C366 C 0.38392 0.4793 0.77969 0.0
N367 N 0.36242 0.46068 0.75846 0.0
N368 N 0.39272 0.4754 0.74296 0.0
H369 H 0.38234 0.45831 0.70228 0.0
H370 H 0.35549 0.47049 0.81758 0.0
C371 C 0.30533 0.45432 0.82146 0.0
O372 O 0.28826 0.45226 0.79459 0.0
N373 N 0.31771 0.42838 0.75718 0.0
C374 C 0.31263 0.41938 0.72578 0.0
C375 C 0.29704 0.40895 0.73904 0.0
C376 C 0.30624 0.42253 0.78978 0.0
N377 N 0.29286 0.411 0.77929 0.0
C378 C 0.31003 0.45239 0.6893 0.0
C379 C 0.29893 0.47996 0.71445 0.0
C380 C 0.29028 0.47506 0.67659 0.0
C381 C 0.29609 0.46108 0.6642 0.0
C382 C 0.31279 0.47082 0.73887 0.0
N383 N 0.31768 0.45701 0.72677 0.0
H384 H 0.31558 0.44219 0.67733 0.0
H385 H 0.31967 0.47496 0.76741 0.0
H386 H 0.32029 0.41987 0.69546 0.0
H387 H 0.30768 0.42646 0.82081 0.0
O388 O 0.35591 0.43682 0.71059 0.0
O389 O 0.36502 0.43173 0.77502 0.0
O390 O 0.32684 0.45125 0.8122 0.0
C391 C 0.36949 0.42994 0.736 0.0
H392 H 0.39107 0.4877 0.79913 0.0
H393 H 0.28977 0.40033 0.72057 0.0
H394 H 0.29514 0.49076 0.72505 0.0
H395 H 0.29072 0.45703 0.63444 0.0
Co396 Co 0.58641 0.80955 0.01186 0.0
C397 C 0.63142 0.79384 0.99019 0.0
C398 C 0.62631 0.79666 0.05479 0.0
C399 C 0.64861 0.79114 0.04865 0.0
N400 N 0.61512 0.79808 0.01831 0.0
N401 N 0.65165 0.78934 0.00816 0.0
H402 H 0.62979 0.79522 0.9575 0.0
H403 H 0.6194 0.80038 0.08385 0.0
C404 C 0.57401 0.78868 0.07787 0.0
O405 O 0.58295 0.77861 0.05411 0.0
N406 N 0.55859 0.82153 0.00752 0.0
C407 C 0.54704 0.82554 0.97329 0.0
C408 C 0.5284 0.83434 0.98436 0.0
C409 C 0.54707 0.82796 0.03879 0.0
N410 N 0.52841 0.83585 0.02564 0.0
C411 C 0.57902 0.79046 0.94372 0.0
C412 C 0.53485 0.78039 0.9671 0.0
C413 C 0.54457 0.77566 0.92985 0.0
C414 C 0.56699 0.78078 0.91842 0.0
C415 C 0.54779 0.78988 0.99204 0.0
N416 N 0.56992 0.79455 0.98072 0.0
H417 H 0.59501 0.79526 0.93214 0.0
H418 H 0.53957 0.79388 0.01973 0.0
H419 H 0.55189 0.82233 0.94251 0.0
H420 H 0.55223 0.82674 0.07055 0.0
O421 O 0.60059 0.81961 0.9664 0.0
O422 O 0.60467 0.82595 0.03161 0.0
O423 O 0.57385 0.80179 0.06583 0.0
C424 C 0.60987 0.82829 0.99318 0.0
H425 H 0.66201 0.78925 0.07184 0.0
H426 H 0.51607 0.83938 0.96341 0.0
H427 H 0.5173 0.77694 0.97658 0.0
H428 H 0.57466 0.77792 0.88905 0.0
Co429 Co 0.4174 0.19189 0.00866 0.0
C430 C 0.3791 0.21217 0.98285 0.0
C431 C 0.39284 0.2174 0.04242 0.0
C432 C 0.37552 0.2272 0.03267 0.0
N433 N 0.39539 0.20803 0.01102 0.0
N434 N 0.36687 0.22386 0.99542 0.0
H435 H 0.37605 0.20677 0.95393 0.0
H436 H 0.40264 0.21722 0.07087 0.0
C437 C 0.45322 0.20101 0.07148 0.0
O438 O 0.4699 0.19865 0.04406 0.0
N439 N 0.43896 0.17533 0.00772 0.0
C440 C 0.44375 0.16639 0.97609 0.0
C441 C 0.45907 0.1558 0.98909 0.0
C442 C 0.45026 0.1693 0.04014 0.0
N443 N 0.46332 0.15771 0.02939 0.0
C444 C 0.44617 0.19942 0.93901 0.0
C445 C 0.45805 0.22688 0.96415 0.0
C446 C 0.46555 0.22219 0.92537 0.0
C447 C 0.45956 0.20821 0.91312 0.0
C448 C 0.44483 0.21766 0.98933 0.0
N449 N 0.43938 0.20394 0.97709 0.0
H450 H 0.44019 0.18928 0.92715 0.0
H451 H 0.43864 0.22172 0.01842 0.0
H452 H 0.43604 0.16702 0.94584 0.0
H453 H 0.44894 0.17319 0.07123 0.0
O454 O 0.40007 0.18403 0.96315 0.0
O455 O 0.39227 0.17915 0.0283 0.0
O456 O 0.4315 0.19832 0.06284 0.0
C457 C 0.38687 0.17735 0.98967 0.0
H458 H 0.3691 0.23582 0.0521 0.0
H459 H 0.46612 0.14717 0.97042 0.0
H460 H 0.46205 0.23767 0.97472 0.0
H461 H 0.46411 0.20432 0.8828 0.0
Co462 Co 0.6718 0.0612 0.25765 0.0
C463 C 0.63028 0.04248 0.23559 0.0
C464 C 0.64978 0.03423 0.28694 0.0
C465 C 0.63146 0.02493 0.27856 0.0
N466 N 0.64932 0.04523 0.25984 0.0
N467 N 0.61919 0.03013 0.24643 0.0
H468 H 0.62459 0.04926 0.21049 0.0
H469 H 0.66246 0.03289 0.31147 0.0
C470 C 0.7074 0.05372 0.32244 0.0
O471 O 0.72416 0.05695 0.29588 0.0
N472 N 0.69401 0.07739 0.25693 0.0
C473 C 0.70447 0.08399 0.22474 0.0
C474 C 0.71885 0.09489 0.23903 0.0
C475 C 0.70145 0.08491 0.29015 0.0
N476 N 0.71715 0.09538 0.28026 0.0
C477 C 0.69641 0.05205 0.1854 0.0
C478 C 0.71541 0.02687 0.21587 0.0
C479 C 0.71946 0.03042 0.17463 0.0
C480 C 0.70962 0.04319 0.15959 0.0
C481 C 0.70205 0.03612 0.2408 0.0
N482 N 0.69338 0.04888 0.22598 0.0
H483 H 0.6877 0.06114 0.17172 0.0
H484 H 0.69829 0.03269 0.27167 0.0
H485 H 0.70187 0.0814 0.1929 0.0
H486 H 0.69556 0.08269 0.32109 0.0
O487 O 0.65504 0.06946 0.21216 0.0
O488 O 0.64706 0.07435 0.27705 0.0
O489 O 0.68552 0.05488 0.31224 0.0
C490 C 0.64231 0.07655 0.23836 0.0
H491 H 0.62707 0.01527 0.29551 0.0
H492 H 0.73009 0.10171 0.22038 0.0
H493 H 0.72223 0.01696 0.2287 0.0
H494 H 0.71117 0.04606 0.1275 0.0
Co495 Co 0.33332 0.94338 0.25025 0.0
C496 C 0.37697 0.96035 0.2286 0.0
C497 C 0.35699 0.97016 0.27707 0.0
C498 C 0.37647 0.97859 0.26914 0.0
N499 N 0.35705 0.95871 0.25154 0.0
N500 N 0.38906 0.97243 0.23879 0.0
H501 H 0.38265 0.95292 0.20502 0.0
H502 H 0.34392 0.97234 0.3004 0.0
C503 C 0.29909 0.95078 0.31724 0.0
O504 O 0.28177 0.9474 0.29196 0.0
N505 N 0.30997 0.92782 0.25017 0.0
C506 C 0.29714 0.92237 0.21882 0.0
C507 C 0.28272 0.91156 0.23345 0.0
C508 C 0.30376 0.91975 0.28307 0.0
N509 N 0.2867 0.91 0.27399 0.0
C510 C 0.30909 0.95355 0.17865 0.0
C511 C 0.29144 0.9788 0.21112 0.0
C512 C 0.28721 0.97564 0.1698 0.0
C513 C 0.29611 0.96282 0.15368 0.0
C514 C 0.30404 0.969 0.23543 0.0
N515 N 0.3123 0.9563 0.21947 0.0
H516 H 0.31728 0.94438 0.16431 0.0
H517 H 0.3077 0.97202 0.26664 0.0
H518 H 0.29793 0.92576 0.18732 0.0
H519 H 0.31135 0.92118 0.31329 0.0
O520 O 0.34893 0.93453 0.2043 0.0
O521 O 0.35708 0.92961 0.26918 0.0
O522 O 0.32073 0.95007 0.30534 0.0
C523 C 0.36113 0.92707 0.23045 0.0
H524 H 0.38144 0.98829 0.28547 0.0
H525 H 0.26981 0.90559 0.21567 0.0
H526 H 0.28533 0.98882 0.22437 0.0
H527 H 0.294 0.96028 0.12143 0.0
C528 C 0.15083 0.3438 0.9975 0.0
C529 C 0.13334 0.33817 0.97117 0.0
C530 C 0.16866 0.35296 0.98207 0.0
C531 C 0.18184 0.37663 0.89294 0.0
H532 H 0.24818 0.36994 0.91842 0.0
C533 C 0.25609 0.39669 0.78726 0.0
C534 C 0.27625 0.40318 0.80481 0.0
C535 C 0.23927 0.38973 0.81175 0.0
C536 C 0.22971 0.37207 0.91142 0.0
H537 H 0.12078 0.33786 0.90821 0.0
H538 H 0.15144 0.35357 0.88178 0.0
H539 H 0.21728 0.3564 0.95493 0.0
H540 H 0.29471 0.40706 0.86214 0.0
H541 H 0.2652 0.39481 0.90506 0.0
H542 H 0.19409 0.39197 0.84881 0.0
C543 C 0.15146 0.35114 0.91427 0.0
C544 C 0.21201 0.36434 0.93241 0.0
C545 C 0.13391 0.342 0.92948 0.0
C546 C 0.27931 0.4023 0.84761 0.0
C547 C 0.2625 0.39519 0.87219 0.0
C548 C 0.19943 0.38427 0.87198 0.0
C549 C 0.16909 0.35676 0.94021 0.0
C550 C 0.18788 0.36627 0.92258 0.0
C551 C 0.24212 0.38898 0.85454 0.0
C552 C 0.2236 0.38184 0.88016 0.0
H553 H 0.15091 0.34099 0.02973 0.0
H554 H 0.18199 0.35714 1.00287 0.0
H555 H 0.16342 0.37864 0.88526 0.0
H556 H 0.25297 0.39727 0.75456 0.0
H557 H 0.22396 0.38489 0.79707 0.0
C558 C 0.87285 0.65426 0.99756 0.0
C559 C 0.886 0.66326 0.97125 0.0
C560 C 0.85448 0.64557 0.98186 0.0
C561 C 0.8108 0.64577 0.90071 0.0
H562 H 0.80848 0.60411 0.90421 0.0
C563 C 0.752 0.61384 0.7894 0.0
C564 C 0.74172 0.60074 0.80181 0.0
C565 C 0.76797 0.62113 0.81481 0.0
C566 C 0.80853 0.61576 0.90359 0.0
H567 H 0.89075 0.66971 0.90769 0.0
H568 H 0.85875 0.65491 0.88101 0.0
H569 H 0.83973 0.61699 0.9416 0.0
H570 H 0.74035 0.58516 0.85141 0.0
H571 H 0.76754 0.59814 0.89625 0.0
H572 H 0.77979 0.64478 0.86313 0.0
C573 C 0.86257 0.65455 0.91358 0.0
C574 C 0.82648 0.6231 0.92498 0.0
C575 C 0.88098 0.66299 0.92898 0.0
C576 C 0.74761 0.59529 0.84083 0.0
C577 C 0.76352 0.60265 0.86644 0.0
C578 C 0.79274 0.6385 0.8799 0.0
C579 C 0.84883 0.64598 0.93984 0.0
C580 C 0.82811 0.63815 0.92276 0.0
C581 C 0.77404 0.61565 0.85368 0.0
C582 C 0.79172 0.62336 0.87997 0.0
H583 H 0.87625 0.65427 0.03025 0.0
H584 H 0.84411 0.639 1.00268 0.0
H585 H 0.81155 0.65741 0.89892 0.0
H586 H 0.74783 0.61851 0.7599 0.0
H587 H 0.77596 0.63096 0.80344 0.0
C588 C 1.00175 0.66267 0.09356 0.0
C589 C 1.00038 0.66044 0.05088 0.0
C590 C 0.01688 0.65428 0.11791 0.0
C591 C 0.04898 0.61948 0.11699 0.0
H592 H 0.08789 0.63642 0.20261 0.0
C593 C 0.1305 0.5906 0.17813 0.0
C594 C 0.13351 0.58937 0.2208 0.0
C595 C 0.11348 0.59979 0.16174 0.0
C596 C 0.07687 0.63153 0.17919 0.0
H597 H 0.01397 0.64756 1.00063 0.0
H598 H 0.04054 0.63323 0.04266 0.0
H599 H 0.05938 0.65144 0.16519 0.0
H600 H 0.12154 0.59734 0.27975 0.0
H601 H 0.09158 0.61374 0.25066 0.0
H602 H 0.06679 0.5997 0.13011 0.0
C603 C 0.0297 0.64132 0.05751 0.0
C604 C 0.06055 0.64011 0.15774 0.0
C605 C 0.01464 0.64969 0.03323 0.0
C606 C 0.11965 0.59806 0.24676 0.0
C607 C 0.10253 0.60742 0.23015 0.0
C608 C 0.06527 0.61098 0.13819 0.0
C609 C 0.03092 0.64343 0.1002 0.0
C610 C 0.0468 0.63424 0.12571 0.0
C611 C 0.09894 0.60809 0.18743 0.0
C612 C 0.0798 0.61696 0.16885 0.0
H613 H 0.99127 0.67096 0.10819 0.0
H614 H 0.0173 0.65616 0.15069 0.0
H615 H 0.03824 0.6145 0.09335 0.0
H616 H 0.14099 0.58419 0.1571 0.0
H617 H 0.11151 0.60029 0.1287 0.0
C618 C 0.01915 0.36699 0.05486 0.0
C619 C 0.02467 0.3524 0.06095 0.0
C620 C 1.00339 0.37409 0.08122 0.0
C621 C 0.95194 0.36719 0.14564 0.0
H622 H 0.96314 0.40555 0.18858 0.0
C623 C 0.87805 0.40698 0.1905 0.0
C624 C 0.87997 0.41422 0.22817 0.0
C625 C 0.89638 0.39816 0.17652 0.0
C626 C 0.9599 0.39477 0.17722 0.0
H627 H 0.01808 0.33384 0.09957 0.0
H628 H 0.9902 0.34617 0.14518 0.0
H629 H 0.99491 0.393 0.1515 0.0
H630 H 0.90245 0.41787 0.28103 0.0
H631 H 0.93518 0.40266 0.25575 0.0
H632 H 0.91662 0.36922 0.16962 0.0
C633 C 0.99828 0.35214 0.12027 0.0
C634 C 0.97798 0.38765 0.15574 0.0
C635 C 0.01436 0.34512 0.09435 0.0
C636 C 0.90046 0.41227 0.25208 0.0
C637 C 0.91918 0.40368 0.23753 0.0
C638 C 0.93376 0.37441 0.1664 0.0
C639 C 0.99248 0.36667 0.11379 0.0
C640 C 0.97409 0.37385 0.13933 0.0
C641 C 0.91733 0.39663 0.19943 0.0
C642 C 0.93747 0.38834 0.18198 0.0
H643 H 0.02692 0.37288 0.02954 0.0
H644 H 0.99911 0.38526 0.0753 0.0
H645 H 0.94837 0.35661 0.1331 0.0
H646 H 0.86244 0.40833 0.17144 0.0
H647 H 0.89455 0.39296 0.14694 0.0
C648 C 0.14857 0.84377 0.49972 0.0
C649 C 0.13589 0.83429 0.4742 0.0
C650 C 0.16767 0.85184 0.48396 0.0
C651 C 0.2112 0.85196 0.39906 0.0
H652 H 0.2132 0.8934 0.41244 0.0
C653 C 0.26271 0.88819 0.2875 0.0
C654 C 0.27376 0.90078 0.3019 0.0
C655 C 0.24862 0.8798 0.31349 0.0
C656 C 0.21321 0.88181 0.40897 0.0
H657 H 0.13351 0.82572 0.41236 0.0
H658 H 0.16654 0.83954 0.3854 0.0
H659 H 0.18365 0.87926 0.45004 0.0
H660 H 0.2788 0.91431 0.35545 0.0
H661 H 0.25457 0.89948 0.40114 0.0
H662 H 0.24043 0.85439 0.35776 0.0
C663 C 0.16192 0.84079 0.41747 0.0
C664 C 0.19625 0.87371 0.43054 0.0
C665 C 0.14281 0.83294 0.43294 0.0
C666 C 0.27078 0.9046 0.34338 0.0
C667 C 0.25663 0.89618 0.36948 0.0
C668 C 0.22819 0.86 0.37778 0.0
C669 C 0.17461 0.85033 0.44266 0.0
C670 C 0.19465 0.85875 0.42489 0.0
C671 C 0.24519 0.88373 0.35476 0.0
C672 C 0.22902 0.87508 0.38149 0.0
H673 H 0.14364 0.84504 0.53163 0.0
H674 H 0.17716 0.85912 0.5041 0.0
H675 H 0.21068 0.84041 0.39463 0.0
H676 H 0.26476 0.88484 0.25591 0.0
H677 H 0.23986 0.87042 0.30078 0.0
C678 C 0.86209 0.17334 0.43444 0.0
C679 C 0.87131 0.17095 0.47392 0.0
C680 C 0.84268 0.16548 0.42011 0.0
C681 C 0.81184 0.13114 0.43048 0.0
H682 H 0.76306 0.15056 0.3674 0.0
C683 C 0.73607 0.09983 0.34795 0.0
C684 C 0.73078 0.10439 0.30779 0.0
C685 C 0.75076 0.10812 0.37346 0.0
C686 C 0.77659 0.14493 0.38467 0.0
H687 H 0.86724 0.15843 0.52951 0.0
H688 H 0.83321 0.14434 0.50393 0.0
H689 H 0.79312 0.16466 0.40318 0.0
H690 H 0.73628 0.12154 0.2637 0.0
H691 H 0.76209 0.13578 0.30754 0.0
H692 H 0.7958 0.11138 0.41074 0.0
C693 C 0.84112 0.15243 0.48429 0.0
C694 C 0.79377 0.15303 0.40535 0.0
C695 C 0.86049 0.16052 0.49898 0.0
C696 C 0.74012 0.1176 0.29422 0.0
C697 C 0.75474 0.12588 0.31966 0.0
C698 C 0.79467 0.123 0.40955 0.0
C699 C 0.832 0.15487 0.44464 0.0
C700 C 0.81194 0.14624 0.42769 0.0
C701 C 0.76046 0.12121 0.35953 0.0
C702 C 0.77715 0.12979 0.38554 0.0
H703 H 0.86991 0.18133 0.41433 0.0
H704 H 0.83636 0.1675 0.38926 0.0
H705 H 0.8257 0.12559 0.44718 0.0
H706 H 0.72943 0.08965 0.35934 0.0
H707 H 0.75459 0.10424 0.40407 0.0
C708 C 0.97929 0.14802 0.58925 0.0
C709 C 0.98151 0.1482 0.54615 0.0
C710 C 0.99435 0.13951 0.6134 0.0
C711 C 0.03427 0.10799 0.60761 0.0
H712 H 0.0655 0.12455 0.70265 0.0
C713 C 0.11972 0.08403 0.67118 0.0
C714 C 0.12271 0.08265 0.7138 0.0
C715 C 0.10065 0.09168 0.65503 0.0
C716 C 0.05663 0.11969 0.67662 0.0
H717 H 1.00178 0.13944 0.49523 0.0
H718 H 0.0275 0.12459 0.53702 0.0
H719 H 0.03511 0.13839 0.66613 0.0
H720 H 0.10815 0.08852 0.773 0.0
H721 H 0.0745 0.10213 0.74446 0.0
H722 H 0.05595 0.08944 0.61741 0.0
C723 C 0.01392 0.13092 0.55213 0.0
C724 C 0.03924 0.12762 0.65567 0.0
C725 C 0.99904 0.13947 0.52805 0.0
C726 C 0.10632 0.08941 0.74003 0.0
C727 C 0.08711 0.09719 0.7237 0.0
C728 C 0.05154 0.1001 0.62848 0.0
C729 C 0.01185 0.13087 0.59509 0.0
C730 C 0.02832 0.12198 0.62028 0.0
C731 C 0.08392 0.09822 0.68094 0.0
C732 C 0.06342 0.106 0.66254 0.0
H733 H 0.96592 0.1544 0.60457 0.0
H734 H 0.99216 0.13961 0.64641 0.0
H735 H 0.02581 0.1032 0.58107 0.0
H736 H 0.13205 0.07906 0.64997 0.0
H737 H 0.09907 0.09252 0.622 0.0
C738 C 0.89815 0.91179 0.75105 0.0
C739 C 0.88063 0.91739 0.72482 0.0
C740 C 0.91598 0.90269 0.7355 0.0
C741 C 0.92892 0.87897 0.64663 0.0
H742 H 0.99536 0.88624 0.67024 0.0
C743 C 1.00244 0.85915 0.53942 0.0
C744 C 0.02287 0.85288 0.55656 0.0
C745 C 0.98576 0.86608 0.56421 0.0
C746 C 0.97687 0.88395 0.66378 0.0
H747 H 0.86795 0.91769 0.66194 0.0
H748 H 0.89858 0.90204 0.6353 0.0
H749 H 0.96457 0.89963 0.7073 0.0
H750 H 0.042 0.84941 0.61344 0.0
H751 H 0.01274 0.86158 0.65686 0.0
H752 H 0.94102 0.8636 0.60252 0.0
C753 C 0.89865 0.90449 0.66779 0.0
C754 C 0.95924 0.89159 0.68508 0.0
C755 C 0.88113 0.91359 0.68311 0.0
C756 C 0.02638 0.85399 0.59923 0.0
C757 C 0.00971 0.86106 0.62409 0.0
C758 C 0.94644 0.8714 0.62538 0.0
C759 C 0.91632 0.89891 0.69363 0.0
C760 C 0.93507 0.88946 0.67589 0.0
C761 C 0.98903 0.86701 0.60688 0.0
C762 C 0.97063 0.87406 0.63287 0.0
H763 H 0.89827 0.91458 0.78331 0.0
H764 H 0.92936 0.89854 0.7562 0.0
H765 H 0.91046 0.87683 0.63945 0.0
H766 H 0.99896 0.85838 0.50686 0.0
H767 H 0.97021 0.87073 0.54985 0.0
C768 C 0.77305 0.39643 0.33411 0.0
C769 C 0.76543 0.40271 0.29717 0.0
C770 C 0.75706 0.38872 0.35887 0.0
C771 C 0.69881 0.36999 0.35154 0.0
H772 H 0.70229 0.36879 0.47029 0.0
C773 C 0.64383 0.32893 0.43926 0.0
C774 C 0.63201 0.33321 0.47516 0.0
C775 C 0.66132 0.33756 0.42176 0.0
C776 C 0.70096 0.36912 0.43717 0.0
H777 H 0.73479 0.40663 0.25864 0.0
H778 H 0.70695 0.39363 0.3018 0.0
H779 H 0.72983 0.38414 0.43175 0.0
H780 H 0.62998 0.34965 0.52204 0.0
H781 H 0.66039 0.36522 0.49045 0.0
H782 H 0.66967 0.35544 0.35652 0.0
C783 C 0.72539 0.39408 0.31115 0.0
C784 C 0.71693 0.37779 0.41501 0.0
C785 C 0.74137 0.40157 0.28629 0.0
C786 C 0.63882 0.34612 0.49431 0.0
C787 C 0.65625 0.35498 0.47623 0.0
C788 C 0.68286 0.36148 0.37353 0.0
C789 C 0.73303 0.38729 0.34741 0.0
C790 C 0.71609 0.3783 0.37181 0.0
C791 C 0.66724 0.35095 0.43905 0.0
C792 C 0.68385 0.36074 0.41661 0.0
H793 H 0.7915 0.39716 0.34328 0.0
H794 H 0.76368 0.38357 0.38636 0.0
H795 H 0.69773 0.36986 0.31838 0.0
H796 H 0.63931 0.3189 0.42418 0.0
H797 H 0.66993 0.33381 0.39403 0.0
C798 C 0.26236 0.60418 0.27736 0.0
C799 C 0.24814 0.59348 0.29557 0.0
C800 C 0.27807 0.6124 0.30097 0.0
C801 C 0.31005 0.6134 0.40074 0.0
H802 H 0.31729 0.65373 0.37295 0.0
C803 C 0.3686 0.65489 0.49276 0.0
C804 C 0.38247 0.66404 0.46805 0.0
C805 C 0.35182 0.64557 0.47482 0.0
C806 C 0.31557 0.64246 0.38101 0.0
H807 H 0.23989 0.58293 0.35327 0.0
H808 H 0.26687 0.59751 0.39453 0.0
H809 H 0.28862 0.63908 0.33589 0.0
H810 H 0.39027 0.67009 0.40512 0.0
H811 H 0.3614 0.65403 0.37438 0.0
H812 H 0.33715 0.61696 0.44611 0.0
C813 C 0.26598 0.59944 0.36182 0.0
C814 C 0.29917 0.63403 0.35962 0.0
C815 C 0.25025 0.59118 0.33814 0.0
C816 C 0.37977 0.66332 0.42522 0.0
C817 C 0.36308 0.65415 0.40749 0.0
C818 C 0.32645 0.6219 0.42239 0.0
C819 C 0.28 0.61023 0.34358 0.0
C820 C 0.29648 0.61931 0.36856 0.0
C821 C 0.34855 0.64537 0.43196 0.0
C822 C 0.32973 0.63647 0.41215 0.0
H823 H 0.26119 0.60637 0.24485 0.0
H824 H 0.28884 0.62043 0.28565 0.0
H825 H 0.30855 0.60209 0.40838 0.0
H826 H 0.37025 0.65521 0.52584 0.0
H827 H 0.34088 0.6389 0.49447 0.0
C828 C 0.51826 0.655 0.52926 0.0
C829 C 0.4964 0.6595 0.54591 0.0
C830 C 0.53387 0.64646 0.55204 0.0
C831 C 0.55039 0.63557 0.65703 0.0
H832 H 0.57917 0.60314 0.60129 0.0
C833 C 0.61255 0.59365 0.73823 0.0
C834 C 0.63165 0.58854 0.71463 0.0
C835 C 0.59524 0.6026 0.72039 0.0
C836 C 0.57156 0.61225 0.61731 0.0
H837 H 0.4743 0.65841 0.60058 0.0
H838 H 0.50176 0.64375 0.64024 0.0
H839 H 0.55089 0.61819 0.56495 0.0
H840 H 0.64835 0.58945 0.65471 0.0
H841 H 0.61896 0.60517 0.62436 0.0
H842 H 0.5715 0.6297 0.70928 0.0
C843 C 0.5067 0.64691 0.60942 0.0
C844 C 0.55527 0.62087 0.5964 0.0
C845 C 0.49093 0.65536 0.58649 0.0
C846 C 0.63365 0.59301 0.67362 0.0
C847 C 0.61664 0.60197 0.65605 0.0
C848 C 0.56691 0.62697 0.67798 0.0
C849 C 0.52825 0.64224 0.5923 0.0
C850 C 0.54472 0.63275 0.61573 0.0
C851 C 0.59686 0.60663 0.67874 0.0
C852 C 0.57801 0.61532 0.65811 0.0
H853 H 0.52353 0.6581 0.49864 0.0
H854 H 0.55052 0.64324 0.53816 0.0
H855 H 0.5426 0.64468 0.67276 0.0
H856 H 0.61055 0.59035 0.7699 0.0
H857 H 0.58025 0.60598 0.73881 0.0
C858 C 0.5124 0.36516 0.5298 0.0
C859 C 0.52599 0.354 0.54689 0.0
C860 C 0.49859 0.37408 0.5548 0.0
C861 C 0.46843 0.37469 0.65539 0.0
H862 H 0.46028 0.41511 0.62984 0.0
C863 C 0.40397 0.41278 0.74544 0.0
C864 C 0.38958 0.4213 0.71997 0.0
C865 C 0.42301 0.40491 0.72876 0.0
C866 C 0.46233 0.40383 0.63737 0.0
H867 H 0.53583 0.34362 0.60406 0.0
H868 H 0.51208 0.35933 0.64763 0.0
H869 H 0.48948 0.401 0.59214 0.0
H870 H 0.38399 0.42828 0.6571 0.0
H871 H 0.4167 0.41474 0.62855 0.0
H872 H 0.44084 0.37752 0.70014 0.0
C873 C 0.51198 0.36111 0.6148 0.0
C874 C 0.47904 0.39573 0.61567 0.0
C875 C 0.52587 0.35222 0.58979 0.0
C876 C 0.39465 0.42183 0.67776 0.0
C877 C 0.41361 0.41415 0.6613 0.0
C878 C 0.45168 0.38282 0.67719 0.0
C879 C 0.49794 0.37206 0.59759 0.0
C880 C 0.48192 0.38097 0.62369 0.0
C881 C 0.42811 0.40563 0.68647 0.0
C882 C 0.44803 0.3974 0.66768 0.0
H883 H 0.51217 0.36686 0.49696 0.0
H884 H 0.48782 0.3823 0.54038 0.0
H885 H 0.47005 0.36332 0.66221 0.0
H886 H 0.40053 0.41217 0.77808 0.0
H887 H 0.4339 0.39843 0.74894 0.0
C888 C 0.64721 0.84259 1.00344 0.0
C889 C 0.62699 0.8394 0.97988 0.0
C890 C 0.66524 0.85138 0.98738 0.0
C891 C 0.67825 0.87922 0.91106 0.0
H892 H 0.74091 0.86214 0.90234 0.0
C893 C 0.75924 0.90949 0.84269 0.0
C894 C 0.77072 0.90216 0.81059 0.0
C895 C 0.74267 0.9024 0.86755 0.0
C896 C 0.72354 0.86706 0.90479 0.0
H897 H 0.60921 0.8433 0.92205 0.0
H898 H 0.64016 0.85911 0.89478 0.0
H899 H 0.70939 0.84944 0.93978 0.0
H900 H 0.77445 0.88156 0.78026 0.0
H901 H 0.74583 0.86903 0.82444 0.0
H902 H 0.6923 0.89679 0.87591 0.0
C903 C 0.64226 0.85471 0.92533 0.0
C904 C 0.70559 0.85987 0.92643 0.0
C905 C 0.62458 0.84566 0.9409 0.0
C906 C 0.76579 0.88747 0.80465 0.0
C907 C 0.74955 0.88031 0.83005 0.0
C908 C 0.69631 0.88655 0.89016 0.0
C909 C 0.663 0.8574 0.94798 0.0
C910 C 0.68267 0.86577 0.92916 0.0
C911 C 0.73757 0.88776 0.86136 0.0
C912 C 0.71902 0.88043 0.8862 0.0
H913 H 0.64962 0.83772 0.03334 0.0
H914 H 0.68108 0.85331 0.00545 0.0
H915 H 0.66073 0.88399 0.91269 0.0
H916 H 0.7625 0.92085 0.84771 0.0
H917 H 0.73373 0.90839 0.89152 0.0
C918 C 0.35477 0.15867 1.00067 0.0
C919 C 0.36616 0.16884 0.97549 0.0
C920 C 0.33555 0.15057 0.98552 0.0
C921 C 0.28938 0.151 0.90489 0.0
H922 H 0.29093 0.10936 0.91106 0.0
C923 C 0.23789 0.11552 0.79131 0.0
C924 C 0.2283 0.10233 0.80439 0.0
C925 C 0.25185 0.12385 0.81766 0.0
C926 C 0.28992 0.12099 0.90968 0.0
H927 H 0.366 0.17873 0.91516 0.0
H928 H 0.33268 0.16487 0.88929 0.0
H929 H 0.32046 0.12354 0.94849 0.0
H930 H 0.2257 0.08766 0.85595 0.0
H931 H 0.24973 0.10234 0.90229 0.0
H932 H 0.25918 0.14857 0.86573 0.0
C933 C 0.33846 0.16307 0.92057 0.0
C934 C 0.30687 0.1291 0.93115 0.0
C935 C 0.35773 0.17093 0.93536 0.0
C936 C 0.23257 0.09784 0.84496 0.0
C937 C 0.24661 0.10618 0.87139 0.0
C938 C 0.2724 0.14293 0.8837 0.0
C939 C 0.32716 0.15276 0.9453 0.0
C940 C 0.30718 0.14418 0.928 0.0
C941 C 0.25663 0.11923 0.85794 0.0
C942 C 0.27284 0.1278 0.88481 0.0
H943 H 0.3609 0.15683 0.03171 0.0
H944 H 0.32714 0.1427 0.00528 0.0
H945 H 0.28892 0.16263 0.90244 0.0
H946 H 0.23481 0.11937 0.76045 0.0
H947 H 0.2595 0.13372 0.80592 0.0
C948 C 0.6064 0.09249 0.24968 0.0
C949 C 0.62348 0.08639 0.22344 0.0
C950 C 0.58841 0.10139 0.23373 0.0
C951 C 0.57451 0.12368 0.14236 0.0
H952 H 0.50834 0.11747 0.17031 0.0
C953 C 0.4997 0.14306 0.03711 0.0
C954 C 0.47981 0.14978 0.05479 0.0
C955 C 0.51657 0.13617 0.06159 0.0
C956 C 0.52676 0.11946 0.16258 0.0
H957 H 0.63511 0.08495 0.16006 0.0
H958 H 0.60421 0.10023 0.13276 0.0
H959 H 0.53942 0.10437 0.20746 0.0
H960 H 0.46181 0.15405 0.11236 0.0
H961 H 0.49141 0.14199 0.1552 0.0
H962 H 0.56205 0.13847 0.097 0.0
C963 C 0.60464 0.09834 0.16555 0.0
C964 C 0.54456 0.11199 0.18393 0.0
C965 C 0.62232 0.08946 0.18127 0.0
C966 C 0.47701 0.14913 0.0977 0.0
C967 C 0.49387 0.14212 0.12225 0.0
C968 C 0.55682 0.13108 0.12107 0.0
C969 C 0.58745 0.10446 0.19141 0.0
C970 C 0.56861 0.11375 0.17328 0.0
C971 C 0.51404 0.13574 0.10449 0.0
C972 C 0.5327 0.12881 0.13015 0.0
H973 H 0.60678 0.09027 0.28228 0.0
H974 H 0.57542 0.10596 0.25446 0.0
H975 H 0.59288 0.12554 0.13399 0.0
H976 H 0.50262 0.14345 0.00433 0.0
H977 H 0.5317 0.13117 0.04682 0.0
C978 C 0.5178 0.84828 0.09068 0.0
C979 C 0.51192 0.84407 0.05042 0.0
C980 C 0.50176 0.85616 0.11463 0.0
C981 C 0.43772 0.86586 0.12134 0.0
H982 H 0.46022 0.89738 0.1891 0.0
C983 C 0.377 0.91151 0.17484 0.0
C984 C 0.37843 0.91626 0.21569 0.0
C985 C 0.39329 0.90161 0.15941 0.0
C986 C 0.45372 0.88847 0.17083 0.0
H987 H 0.48419 0.84489 0.00425 0.0
H988 H 0.45673 0.85893 0.04522 0.0
H989 H 0.48882 0.88235 0.15237 0.0
H990 H 0.39814 0.91438 0.27247 0.0
H991 H 0.42721 0.89709 0.24499 0.0
H992 H 0.40263 0.87232 0.13865 0.0
C993 C 0.47359 0.85592 0.05868 0.0
C994 C 0.47009 0.87984 0.14974 0.0
C995 C 0.48956 0.84801 0.03483 0.0
C996 C 0.39658 0.91085 0.24092 0.0
C997 C 0.41323 0.90104 0.22517 0.0
C998 C 0.42142 0.87454 0.14211 0.0
C999 C 0.47941 0.86008 0.09896 0.0
C1000 C 0.46226 0.86859 0.12406 0.0
C1001 C 0.41165 0.8963 0.18423 0.0
C1002 C 0.4292 0.8861 0.16645 0.0
H1003 H 0.53489 0.84564 0.10377 0.0
H1004 H 0.50682 0.85906 0.14559 0.0
H1005 H 0.43103 0.85708 0.10278 0.0
H1006 H 0.36321 0.91543 0.15458 0.0
H1007 H 0.39178 0.89832 0.12763 0.0
C1008 C 0.98171 0.24766 0.39167 0.0
C1009 C 0.98515 0.23268 0.39065 0.0
C1010 C 0.99167 0.25652 0.36142 0.0
C1011 C 0.99924 0.27072 0.27864 0.0
H1012 H 0.05911 0.26189 0.22557 0.0
C1013 C 0.02201 0.29201 0.11762 0.0
C1014 C 0.04567 0.29554 0.10819 0.0
C1015 C 0.01622 0.28562 0.15511 0.0
C1016 C 0.0425 0.26466 0.24032 0.0
H1017 H 1.003 0.2154 0.35824 0.0
H1018 H 0.01963 0.23068 0.30501 0.0
H1019 H 0.04747 0.24878 0.28705 0.0
H1020 H 0.0818 0.29535 0.13125 0.0
H1021 H 0.07165 0.28441 0.19709 0.0
H1022 H 0.99441 0.28674 0.23231 0.0
C1023 C 0.00947 0.23569 0.32933 0.0
C1024 C 0.03566 0.257 0.27536 0.0
C1025 C 0.99964 0.22686 0.35964 0.0
C1026 C 0.0634 0.29272 0.13747 0.0
C1027 C 0.05759 0.28637 0.17514 0.0
C1028 C 0.00614 0.27844 0.24379 0.0
C1029 C 0.00525 0.25061 0.32931 0.0
C1030 C 0.01373 0.25973 0.29455 0.0
C1031 C 0.03392 0.28266 0.18437 0.0
C1032 C 0.02764 0.27532 0.22364 0.0
H1033 H 0.97055 0.25253 0.41489 0.0
H1034 H 0.98835 0.26798 0.36284 0.0
H1035 H 0.98213 0.27307 0.29223 0.0
H1036 H 0.00789 0.29398 0.09579 0.0
H1037 H 0.99788 0.2827 0.16069 0.0
C1038 C 0.02862 0.75674 0.39401 0.0
C1039 C 0.02209 0.77118 0.40025 0.0
C1040 C 0.01722 0.7484 0.36403 0.0
C1041 C 0.96358 0.74715 0.29718 0.0
H1042 H 0.00395 0.72544 0.22334 0.0
C1043 C 0.93422 0.73195 0.13418 0.0
C1044 C 0.94046 0.71843 0.11817 0.0
C1045 C 0.94292 0.7365 0.17214 0.0
C1046 C 0.99235 0.73124 0.24404 0.0
H1047 H 0.99768 0.78793 0.3814 0.0
H1048 H 0.97801 0.77352 0.32915 0.0
H1049 H 0.02109 0.73665 0.28429 0.0
H1050 H 0.96066 0.69899 0.12984 0.0
H1051 H 0.97598 0.707 0.19641 0.0
H1052 H 0.93497 0.74209 0.25639 0.0
C1053 C 0.99184 0.76856 0.34736 0.0
C1054 C 1.00217 0.73766 0.27905 0.0
C1055 C 1.00328 0.77689 0.37709 0.0
C1056 C 0.95549 0.70947 0.14132 0.0
C1057 C 0.96436 0.71409 0.17934 0.0
C1058 C 0.95378 0.74076 0.26222 0.0
C1059 C 0.99891 0.75428 0.33991 0.0
C1060 C 0.988 0.74598 0.30555 0.0
C1061 C 0.95819 0.72768 0.19515 0.0
C1062 C 0.96814 0.73301 0.2347 0.0
H1063 H 0.04315 0.75205 0.41117 0.0
H1064 H 0.02294 0.73739 0.35938 0.0
H1065 H 0.95204 0.75323 0.31735 0.0
H1066 H 0.92269 0.73913 0.11725 0.0
H1067 H 0.93809 0.74711 0.18302 0.0
C1068 C 0.18895 0.52132 0.38162 0.0
C1069 C 0.19403 0.53501 0.36549 0.0
C1070 C 0.19765 0.51724 0.41994 0.0
C1071 C 0.24597 0.52383 0.49211 0.0
H1072 H 0.20583 0.50222 0.56675 0.0
C1073 C 0.28314 0.49887 0.64173 0.0
C1074 C 0.27632 0.48451 0.64878 0.0
C1075 C 0.27154 0.50716 0.61195 0.0
C1076 C 0.21732 0.50819 0.54622 0.0
H1077 H 0.2123 0.55518 0.37703 0.0
H1078 H 0.22788 0.5479 0.44417 0.0
H1079 H 0.18869 0.51279 0.50507 0.0
H1080 H 0.25116 0.46788 0.63167 0.0
H1081 H 0.2313 0.48214 0.57954 0.0
H1082 H 0.27481 0.51876 0.53238 0.0
C1083 C 0.21701 0.54039 0.427 0.0
C1084 C 0.20748 0.51427 0.51092 0.0
C1085 C 0.20802 0.54457 0.3887 0.0
C1086 C 0.25703 0.47885 0.62667 0.0
C1087 C 0.24545 0.48711 0.59704 0.0
C1088 C 0.25588 0.51767 0.52736 0.0
C1089 C 0.21187 0.52668 0.44303 0.0
C1090 C 0.22179 0.52186 0.48297 0.0
C1091 C 0.2528 0.50129 0.58875 0.0
C1092 C 0.24178 0.50946 0.55433 0.0
H1093 H 0.17819 0.5137 0.36463 0.0
H1094 H 0.19366 0.50653 0.43114 0.0
H1095 H 0.25748 0.52954 0.47101 0.0
H1096 H 0.29803 0.50353 0.65808 0.0
H1097 H 0.27748 0.5181 0.60668 0.0
C1098 C 0.75004 0.51985 0.62091 0.0
C1099 C 0.7288 0.51677 0.64179 0.0
C1100 C 0.75825 0.51071 0.58998 0.0
C1101 C 0.73595 0.48681 0.51139 0.0
H1102 H 0.80129 0.47429 0.50027 0.0
C1103 C 0.76607 0.45361 0.37104 0.0
C1104 C 0.78887 0.4563 0.35532 0.0
C1105 C 0.75912 0.45943 0.40876 0.0
C1106 C 0.78303 0.47785 0.50253 0.0
H1107 H 0.69974 0.50159 0.64742 0.0
H1108 H 0.7139 0.48568 0.5926 0.0
H1109 H 0.78893 0.48722 0.56184 0.0
H1110 H 0.82222 0.46727 0.3666 0.0
H1111 H 0.80989 0.47791 0.43132 0.0
H1112 H 0.73011 0.47822 0.45151 0.0
C1113 C 0.72427 0.49511 0.60053 0.0
C1114 C 0.77595 0.48516 0.53801 0.0
C1115 C 0.71628 0.50413 0.63203 0.0
C1116 C 0.80462 0.46487 0.37813 0.0
C1117 C 0.79754 0.47091 0.41548 0.0
C1118 C 0.74309 0.47974 0.47562 0.0
C1119 C 0.74514 0.49844 0.5788 0.0
C1120 C 0.75238 0.48978 0.54267 0.0
C1121 C 0.77464 0.46832 0.43134 0.0
C1122 C 0.76679 0.47523 0.47047 0.0
H1123 H 0.75997 0.52955 0.62788 0.0
H1124 H 0.7743 0.51357 0.57353 0.0
H1125 H 0.71773 0.49045 0.51395 0.0
H1126 H 0.75364 0.44691 0.35432 0.0
H1127 H 0.74154 0.4569 0.42019 0.0
C1128 C 0.98615 0.75044 0.90573 0.0
C1129 C 0.98125 0.73586 0.89821 0.0
C1130 C 0.9971 0.7589 0.87547 0.0
C1131 C 1.00209 0.77488 0.79308 0.0
H1132 H 0.05354 0.76026 0.72582 0.0
C1133 C 0.0209 0.79486 0.62845 0.0
C1134 C 0.04467 0.79655 0.61605 0.0
C1135 C 0.0154 0.78897 0.66679 0.0
C1136 C 0.03937 0.76459 0.74457 0.0
H1137 H 0.98497 0.71848 0.85442 0.0
H1138 H 0.00431 0.7331 0.80204 0.0
H1139 H 0.04125 0.74701 0.78696 0.0
H1140 H 0.08132 0.79373 0.63498 0.0
H1141 H 0.07168 0.78327 0.70165 0.0
H1142 H 0.9998 0.79227 0.75003 0.0
C1143 C 0.99969 0.73808 0.83101 0.0
C1144 C 0.03222 0.75695 0.77943 0.0
C1145 C 0.98849 0.72972 0.86088 0.0
C1146 C 0.06282 0.79248 0.64332 0.0
C1147 C 0.05731 0.78646 0.68153 0.0
C1148 C 0.00909 0.78246 0.75797 0.0
C1149 C 0.00369 0.75283 0.83756 0.0
C1150 C 0.01323 0.76187 0.80367 0.0
C1151 C 0.03354 0.78453 0.69357 0.0
C1152 C 0.02754 0.77727 0.73293 0.0
H1153 H 0.98064 0.75541 0.93424 0.0
H1154 H 1.00009 0.77023 0.88145 0.0
H1155 H 0.98729 0.77889 0.81095 0.0
H1156 H 0.00645 0.79791 0.60833 0.0
H1157 H 0.99691 0.7875 0.67494 0.0
C1158 C 0.01287 0.27631 0.85832 0.0
C1159 C 0.02895 0.27109 0.88778 0.0
C1160 C 0.00399 0.26729 0.8276 0.0
C1161 C 0.97991 0.24505 0.77391 0.0
H1162 H 0.02384 0.21772 0.72597 0.0
C1163 C 0.95205 0.20836 0.63893 0.0
C1164 C 0.96889 0.20624 0.60766 0.0
C1165 C 0.95859 0.21487 0.67599 0.0
C1166 C 0.01136 0.22535 0.73877 0.0
H1167 H 0.04759 0.25201 0.90857 0.0
H1168 H 0.03139 0.23617 0.85606 0.0
H1169 H 0.03606 0.23191 0.78494 0.0
H1170 H 0.0059 0.20916 0.59109 0.0
H1171 H 0.01715 0.22078 0.65502 0.0
H1172 H 0.95567 0.23904 0.72641 0.0
C1173 C 0.02608 0.24736 0.8561 0.0
C1174 C 0.01826 0.23336 0.77311 0.0
C1175 C 0.03512 0.25642 0.88668 0.0
C1176 C 0.99249 0.21054 0.61459 0.0
C1177 C 0.99898 0.21715 0.65147 0.0
C1178 C 0.97309 0.23713 0.73936 0.0
C1179 C 0.01075 0.25274 0.82565 0.0
C1180 C 1.00273 0.24345 0.7909 0.0
C1181 C 0.98209 0.21952 0.68258 0.0
C1182 C 0.98882 0.22729 0.72099 0.0
H1183 H 0.0074 0.28748 0.85853 0.0
H1184 H 0.99243 0.2719 0.80458 0.0
H1185 H 0.96731 0.25253 0.78707 0.0
H1186 H 0.93373 0.2051 0.6347 0.0
H1187 H 0.94516 0.21626 0.69943 0.0
C1188 C 0.23384 0.05065 0.87755 0.0
C1189 C 0.2122 0.0467 0.8593 0.0
C1190 C 0.24037 0.04506 0.9157 0.0
C1191 C 0.2172 0.02384 0.00538 0.0
H1192 H 0.28405 0.01536 0.0205 0.0
C1193 C 0.25587 0.98165 0.11833 0.0
C1194 C 0.27529 0.98603 0.14231 0.0
C1195 C 0.24648 0.99082 0.08848 0.0
C1196 C 0.26536 0.01784 0.0169 0.0
H1197 H 0.18016 0.03407 0.8672 0.0
H1198 H 0.19199 0.02369 0.93249 0.0
H1199 H 0.27115 0.02779 0.95883 0.0
H1200 H 0.2999 0.00343 0.15469 0.0
H1201 H 0.28384 0.01938 0.10152 0.0
H1202 H 0.21156 0.01297 0.0627 0.0
C1203 C 0.20372 0.03144 0.9182 0.0
C1204 C 0.2579 0.02505 0.9816 0.0
C1205 C 0.19696 0.0373 0.88044 0.0
C1206 C 0.28476 0.99988 0.13679 0.0
C1207 C 0.27569 0.00895 0.10632 0.0
C1208 C 0.22466 0.01636 0.04032 0.0
C1209 C 0.22567 0.0351 0.93621 0.0
C1210 C 0.23367 0.02809 0.97511 0.0
C1211 C 0.25669 0.0044 0.08152 0.0
C1212 C 0.2488 0.01324 0.04627 0.0
H1213 H 0.24578 0.05807 0.86228 0.0
H1214 H 0.25707 0.04851 0.92891 0.0
H1215 H 0.19848 0.02622 1.0021 0.0
H1216 H 0.24835 0.97099 0.12201 0.0
H1217 H 0.23194 0.98703 0.06954 0.0
C1218 C 0.80961 0.96075 0.89263 0.0
C1219 C 0.79193 0.95843 0.8629 0.0
C1220 C 0.80385 0.96679 0.93071 0.0
C1221 C 0.75246 0.97491 0.99921 0.0
H1222 H 0.79487 0.00375 0.0443 0.0
C1223 C 0.74727 0.02622 0.11561 0.0
C1224 C 0.73234 0.02058 0.14626 0.0
C1225 C 0.75704 0.01729 0.08559 0.0
C1226 C 0.78278 0.99575 0.03211 0.0
H1227 H 0.75427 0.96052 0.85009 0.0
H1228 H 0.74436 0.97129 0.91576 0.0
H1229 H 0.80621 0.99081 0.98242 0.0
H1230 H 0.71693 1.00091 0.17037 0.0
H1231 H 0.73458 0.98523 0.11866 0.0
H1232 H 0.72846 0.98037 0.04757 0.0
C1233 C 0.76261 0.9682 0.9102 0.0
C1234 C 0.78943 0.98818 0.99684 0.0
C1235 C 0.76834 0.96211 0.87229 0.0
C1236 C 0.72843 0.00563 0.14736 0.0
C1237 C 0.73831 0.99666 0.11735 0.0
C1238 C 0.74574 0.98253 0.03431 0.0
C1239 C 0.78029 0.9707 0.93988 0.0
C1240 C 0.77417 0.97784 0.97947 0.0
C1241 C 0.7523 0.00242 0.08552 0.0
C1242 C 0.76062 0.99325 0.05083 0.0
H1243 H 0.82795 0.95797 0.88647 0.0
H1244 H 0.81788 0.96837 0.95298 0.0
H1245 H 0.74043 0.96684 0.98718 0.0
H1246 H 0.75095 0.03766 0.1142 0.0
H1247 H 0.76752 0.02218 0.06146 0.0
C1248 C 0.55583 0.28516 0.63343 0.0
C1249 C 0.54341 0.29755 0.62119 0.0
C1250 C 0.54936 0.27781 0.6693 0.0
C1251 C 0.49801 0.27354 0.73994 0.0
H1252 H 0.54371 0.2541 0.8094 0.0
C1253 C 0.46964 0.24619 0.89061 0.0
C1254 C 0.47784 0.23205 0.8963 0.0
C1255 C 0.47938 0.25493 0.85997 0.0
C1256 C 0.53075 0.25944 0.79018 0.0
H1257 H 0.51535 0.31238 0.6382 0.0
H1258 H 0.5046 0.29988 0.70094 0.0
H1259 H 0.55757 0.26801 0.75038 0.0
H1260 H 0.50352 0.21626 0.87566 0.0
H1261 H 0.52053 0.23153 0.82212 0.0
H1262 H 0.47123 0.26501 0.77969 0.0
C1263 C 0.51878 0.2955 0.68232 0.0
C1264 C 0.53867 0.26737 0.75625 0.0
C1265 C 0.52505 0.30273 0.64637 0.0
C1266 C 0.49668 0.22707 0.87179 0.0
C1267 C 0.50655 0.23585 0.84134 0.0
C1268 C 0.49015 0.26573 0.77394 0.0
C1269 C 0.53049 0.28277 0.6939 0.0
C1270 C 0.52238 0.27451 0.7306 0.0
C1271 C 0.49766 0.24977 0.8345 0.0
C1272 C 0.50639 0.25855 0.7994 0.0
H1273 H 0.57006 0.28089 0.61472 0.0
H1274 H 0.55868 0.26799 0.67699 0.0
H1275 H 0.48485 0.27858 0.72046 0.0
H1276 H 0.45503 0.25032 0.90872 0.0
H1277 H 0.47233 0.26567 0.85574 0.0
C1278 C 0.5418 0.75443 0.88252 0.0
C1279 C 0.53094 0.76636 0.90115 0.0
C1280 C 0.52994 0.74657 0.85214 0.0
C1281 C 0.47043 0.74158 0.80203 0.0
H1282 H 0.50875 0.72836 0.71063 0.0
C1283 C 0.43291 0.72953 0.64071 0.0
C1284 C 0.44074 0.71704 0.6205 0.0
C1285 C 0.44291 0.73369 0.67811 0.0
C1286 C 0.49784 0.73181 0.73618 0.0
H1287 H 0.49903 0.7793 0.90304 0.0
H1288 H 0.47856 0.76596 0.84922 0.0
H1289 H 0.52799 0.73918 0.76999 0.0
H1290 H 0.46505 0.69901 0.6239 0.0
H1291 H 0.483 0.70651 0.68913 0.0
H1292 H 0.44022 0.7348 0.76684 0.0
C1293 C 0.49597 0.76232 0.8587 0.0
C1294 C 0.50886 0.73798 0.77043 0.0
C1295 C 0.50771 0.77004 0.88956 0.0
C1296 C 0.45859 0.70866 0.63884 0.0
C1297 C 0.46893 0.71299 0.67601 0.0
C1298 C 0.45942 0.7356 0.76749 0.0
C1299 C 0.50705 0.7506 0.83903 0.0
C1300 C 0.49532 0.74311 0.80374 0.0
C1301 C 0.46126 0.72559 0.69591 0.0
C1302 C 0.47299 0.73078 0.73402 0.0
H1303 H 0.55963 0.75128 0.89114 0.0
H1304 H 0.5389 0.73742 0.83862 0.0
H1305 H 0.45936 0.74508 0.82728 0.0
H1306 H 0.41912 0.73618 0.62746 0.0
H1307 H 0.43677 0.74352 0.6925 0.0
C1308 C 0.78293 0.49886 0.13973 0.0
C1309 C 0.77911 0.4839 0.13877 0.0
C1310 C 0.77275 0.50779 0.10991 0.0
C1311 C 0.76413 0.52186 0.02693 0.0
H1312 H 0.70301 0.51338 0.97765 0.0
C1313 C 0.73973 0.5413 0.86495 0.0
C1314 C 0.71614 0.54514 0.85615 0.0
C1315 C 0.74578 0.53544 0.90297 0.0
C1316 C 0.71997 0.51607 0.99135 0.0
H1317 H 0.76043 0.46676 0.10709 0.0
H1318 H 0.74328 0.48217 0.05481 0.0
H1319 H 0.7153 0.50055 0.03922 0.0
H1320 H 0.68042 0.54606 0.88094 0.0
H1321 H 0.69104 0.53595 0.94768 0.0
H1322 H 0.76874 0.53744 0.97926 0.0
C1323 C 0.75394 0.4871 0.07864 0.0
C1324 C 0.72716 0.50857 0.02644 0.0
C1325 C 0.76406 0.4782 0.10839 0.0
C1326 C 0.69875 0.54317 0.88663 0.0
C1327 C 0.70483 0.5373 0.92484 0.0
C1328 C 0.7569 0.5294 0.99197 0.0
C1329 C 0.75848 0.50198 0.0785 0.0
C1330 C 0.74957 0.51114 0.04417 0.0
C1331 C 0.72843 0.53329 0.93341 0.0
C1332 C 0.73496 0.52637 0.97314 0.0
H1333 H 0.7945 0.50361 0.16258 0.0
H1334 H 0.77637 0.51924 0.11112 0.0
H1335 H 0.78157 0.52408 0.03945 0.0
H1336 H 0.75361 0.54262 0.84222 0.0
H1337 H 0.76404 0.53225 0.90806 0.0
C1338 C 0.22706 0.52369 0.10054 0.0
C1339 C 0.22929 0.51948 0.14178 0.0
C1340 C 0.23941 0.51655 0.06965 0.0
C1341 C 0.26915 0.4821 0.04572 0.0
H1342 H 0.28724 0.50321 0.94787 0.0
C1343 C 0.31519 0.45954 0.8953 0.0
C1344 C 0.29963 0.46083 0.86171 0.0
C1345 C 0.30979 0.46615 0.93284 0.0
C1346 C 0.28246 0.49722 0.97517 0.0
H1347 H 0.24709 0.5047 0.18293 0.0
H1348 H 0.26933 0.49233 0.12867 0.0
H1349 H 0.27362 0.5163 0.00826 0.0
H1350 H 0.26636 0.4701 0.8411 0.0
H1351 H 0.25743 0.48196 0.90612 0.0
H1352 H 0.27828 0.463 0.01191 0.0
C1353 C 0.2575 0.50103 0.12032 0.0
C1354 C 0.27446 0.50467 0.00968 0.0
C1355 C 0.24494 0.50819 0.15146 0.0
C1356 C 0.27864 0.46882 0.86642 0.0
C1357 C 0.27354 0.47565 0.90351 0.0
C1358 C 0.27758 0.47465 0.01126 0.0
C1359 C 0.25475 0.50508 0.07892 0.0
C1360 C 0.26686 0.4972 0.04494 0.0
C1361 C 0.28906 0.4744 0.93695 0.0
C1362 C 0.28362 0.48216 0.97539 0.0
H1363 H 0.21562 0.53255 0.09191 0.0
H1364 H 0.23641 0.51987 0.03824 0.0
H1365 H 0.26335 0.47597 0.07213 0.0
H1366 H 0.33148 0.45343 0.89256 0.0
H1367 H 0.32201 0.4651 0.95833 0.0
C1368 C 0.46721 0.75064 0.38854 0.0
C1369 C 0.4774 0.73834 0.40628 0.0
C1370 C 0.4791 0.75817 0.35755 0.0
C1371 C 0.53751 0.76095 0.30216 0.0
H1372 H 0.49771 0.77526 0.2141 0.0
C1373 C 0.57106 0.77171 0.13721 0.0
C1374 C 0.56427 0.7847 0.11855 0.0
C1375 C 0.5616 0.76767 0.17517 0.0
C1376 C 0.50905 0.77148 0.23867 0.0
H1377 H 0.50819 0.72444 0.40627 0.0
H1378 H 0.52867 0.7372 0.35131 0.0
H1379 H 0.47937 0.76532 0.27547 0.0
H1380 H 0.54224 0.80369 0.12511 0.0
H1381 H 0.52518 0.7964 0.19119 0.0
H1382 H 0.56716 0.76649 0.26386 0.0
C1383 C 0.51182 0.74138 0.36193 0.0
C1384 C 0.49856 0.76583 0.2741 0.0
C1385 C 0.50009 0.73401 0.39347 0.0
C1386 C 0.54786 0.79362 0.13878 0.0
C1387 C 0.53804 0.78944 0.17647 0.0
C1388 C 0.54797 0.76639 0.26638 0.0
C1389 C 0.50128 0.75341 0.34286 0.0
C1390 C 0.51261 0.76035 0.3063 0.0
C1391 C 0.54482 0.77641 0.19502 0.0
C1392 C 0.53384 0.7716 0.23414 0.0
H1393 H 0.44975 0.75423 0.39805 0.0
H1394 H 0.47061 0.76757 0.34459 0.0
H1395 H 0.54901 0.75715 0.32644 0.0
H1396 H 0.58373 0.76463 0.1225 0.0
H1397 H 0.56698 0.75752 0.18855 0.0
C1398 C 0.5284 0.2727 0.34658 0.0
C1399 C 0.52298 0.27085 0.38842 0.0
C1400 C 0.51802 0.26395 0.31686 0.0
C1401 C 0.46943 0.24475 0.28103 0.0
H1402 H 0.51363 0.21805 0.23064 0.0
C1403 C 0.44256 0.20857 0.14324 0.0
C1404 C 0.45962 0.20713 0.11198 0.0
C1405 C 0.44859 0.21489 0.18086 0.0
C1406 C 0.50106 0.22549 0.24411 0.0
H1407 H 0.50122 0.2588 0.43138 0.0
H1408 H 0.48243 0.24367 0.37856 0.0
H1409 H 0.52617 0.23241 0.28948 0.0
H1410 H 0.4964 0.2112 0.09582 0.0
H1411 H 0.50673 0.22246 0.16053 0.0
H1412 H 0.44472 0.23855 0.2343 0.0
C1413 C 0.4951 0.25185 0.36942 0.0
C1414 C 0.50821 0.23357 0.27804 0.0
C1415 C 0.50577 0.26053 0.39948 0.0
C1416 C 0.48285 0.21203 0.11929 0.0
C1417 C 0.48882 0.21841 0.15666 0.0
C1418 C 0.46232 0.23678 0.24664 0.0
C1419 C 0.50161 0.25332 0.32807 0.0
C1420 C 0.4926 0.24342 0.29629 0.0
C1421 C 0.4718 0.21997 0.18798 0.0
C1422 C 0.47826 0.22728 0.22717 0.0
H1423 H 0.54103 0.2808 0.33674 0.0
H1424 H 0.52307 0.26534 0.28502 0.0
H1425 H 0.45724 0.25241 0.29452 0.0
H1426 H 0.4245 0.20487 0.13864 0.0
H1427 H 0.43508 0.21575 0.20437 0.0
C1428 C 0.77963 0.99845 0.6432 0.0
C1429 C 0.77427 0.98365 0.64364 0.0
C1430 C 0.77013 0.00746 0.61298 0.0
C1431 C 0.76202 0.02164 0.53051 0.0
H1432 H 0.70041 0.01455 0.48139 0.0
C1433 C 0.7376 0.04384 0.37119 0.0
C1434 C 0.71393 0.04762 0.36289 0.0
C1435 C 0.74372 0.03735 0.40836 0.0
C1436 C 0.71753 0.01686 0.49503 0.0
H1437 H 0.75357 0.96696 0.6137 0.0
H1438 H 0.7379 0.98245 0.56028 0.0
H1439 H 0.71207 1.00126 0.54236 0.0
H1440 H 0.6782 0.04792 0.38774 0.0
H1441 H 0.68897 0.03696 0.45314 0.0
H1442 H 0.76726 0.03748 0.48383 0.0
C1443 C 0.74916 0.98721 0.58356 0.0
C1444 C 0.72438 0.00906 0.52977 0.0
C1445 C 0.75846 0.97824 0.61396 0.0
C1446 C 0.69659 0.04506 0.39307 0.0
C1447 C 0.70276 0.03868 0.43049 0.0
C1448 C 0.75507 0.02953 0.49606 0.0
C1449 C 0.75517 1.0019 0.5822 0.0
C1450 C 0.7469 0.01114 0.54756 0.0
C1451 C 0.72639 0.0346 0.43849 0.0
C1452 C 0.73292 0.02707 0.47732 0.0
H1453 H 0.79186 0.00302 0.66528 0.0
H1454 H 0.77484 0.01876 0.61344 0.0
H1455 H 0.77959 0.02348 0.54295 0.0
H1456 H 0.7514 0.04557 0.34857 0.0
H1457 H 0.76201 0.03414 0.41293 0.0
C1458 C 0.22279 0.00333 0.63728 0.0
C1459 C 0.2324 0.01714 0.64307 0.0
C1460 C 0.23166 0.99434 0.60646 0.0
C1461 C 0.28219 0.98675 0.53976 0.0
H1462 H 0.23519 0.97614 0.45827 0.0
C1463 C 0.30891 0.96536 0.37972 0.0
C1464 C 0.29325 0.9562 0.35867 0.0
C1465 C 0.30242 0.97138 0.41744 0.0
C1466 C 0.24857 0.97865 0.48102 0.0
H1467 H 0.2594 0.03216 0.62285 0.0
H1468 H 0.27548 0.01621 0.56973 0.0
H1469 H 0.22283 0.9886 0.52023 0.0
H1470 H 0.25916 0.94541 0.36172 0.0
H1471 H 0.2483 0.95523 0.42828 0.0
H1472 H 0.30794 0.97658 0.50128 0.0
C1473 C 0.26099 0.01242 0.58877 0.0
C1474 C 0.24142 0.98589 0.51649 0.0
C1475 C 0.25179 0.02153 0.61899 0.0
C1476 C 0.27144 0.95265 0.37693 0.0
C1477 C 0.26516 0.95839 0.41504 0.0
C1478 C 0.28932 0.97923 0.50465 0.0
C1479 C 0.25059 0.9989 0.58154 0.0
C1480 C 0.25818 0.99017 0.54589 0.0
C1481 C 0.28031 0.96811 0.43549 0.0
C1482 C 0.27265 0.97525 0.47441 0.0
H1483 H 0.20767 0.99978 0.65521 0.0
H1484 H 0.22338 0.98395 0.60144 0.0
H1485 H 0.29542 0.9899 0.56217 0.0
H1486 H 0.32587 0.96829 0.36647 0.0
H1487 H 0.3145 0.97894 0.43168 0.0
C1488 C 0.34521 0.24564 0.97521 0.0
C1489 C 0.34679 0.23059 0.97632 0.0
C1490 C 0.32413 0.25235 0.96334 0.0
C1491 C 0.26274 0.24538 0.92222 0.0
H1492 H 0.24752 0.27839 0.99008 0.0
C1493 C 0.16801 0.26295 0.96775 0.0
C1494 C 0.16295 0.27773 0.96993 0.0
C1495 C 0.19075 0.25819 0.95731 0.0
C1496 C 0.25161 0.26936 0.97029 0.0
H1497 H 0.32814 0.21069 0.96451 0.0
H1498 H 0.29081 0.22227 0.94551 0.0
H1499 H 0.28704 0.26815 0.99289 0.0
H1500 H 0.17732 0.29913 0.96109 0.0
H1501 H 0.21738 0.29082 0.94339 0.0
H1502 H 0.22647 0.24617 0.90194 0.0
C1503 C 0.30597 0.22902 0.95246 0.0
C1504 C 0.27439 0.26347 0.97173 0.0
C1505 C 0.32732 0.22233 0.96344 0.0
C1506 C 0.18075 0.28768 0.95938 0.0
C1507 C 0.20364 0.28292 0.94955 0.0
C1508 C 0.23978 0.25117 0.9213 0.0
C1509 C 0.30386 0.24415 0.95347 0.0
C1510 C 0.28024 0.25125 0.94822 0.0
C1511 C 0.209 0.26814 0.9494 0.0
C1512 C 0.23391 0.26309 0.94581 0.0
H1513 H 0.36016 0.25219 0.98475 0.0
H1514 H 0.32354 0.264 0.96326 0.0
H1515 H 0.2666 0.23616 0.90307 0.0
H1516 H 0.15452 0.25509 0.97551 0.0
H1517 H 0.19437 0.24675 0.95775 0.0
C1518 C 0.82057 0.71928 0.97852 0.0
C1519 C 0.84357 0.72483 0.98333 0.0
C1520 C 0.80196 0.72822 0.96645 0.0
C1521 C 0.78241 0.76422 0.98254 0.0
H1522 H 0.73188 0.75429 0.90681 0.0
C1523 C 0.69349 0.79382 0.99168 0.0
C1524 C 0.6733 0.78507 0.98872 0.0
C1525 C 0.71562 0.7887 0.97892 0.0
C1526 C 0.74574 0.7572 0.92827 0.0
H1527 H 0.86562 0.74379 0.97815 0.0
H1528 H 0.83269 0.75976 0.95821 0.0
H1529 H 0.76901 0.74072 0.90572 0.0
H1530 H 0.65972 0.76446 0.96928 0.0
H1531 H 0.69841 0.75509 0.94852 0.0
H1532 H 0.75885 0.77984 0.00762 0.0
C1533 C 0.82921 0.74842 0.96303 0.0
C1534 C 0.76707 0.74951 0.92732 0.0
C1535 C 0.84798 0.73934 0.97422 0.0
C1536 C 0.6752 0.77137 0.97126 0.0
C1537 C 0.69738 0.76609 0.95924 0.0
C1538 C 0.76097 0.77174 0.98403 0.0
C1539 C 0.80595 0.74297 0.95987 0.0
C1540 C 0.78535 0.75272 0.95516 0.0
C1541 C 0.71805 0.77454 0.96399 0.0
C1542 C 0.74205 0.76808 0.9577 0.0
H1543 H 0.81692 0.7081 0.98555 0.0
H1544 H 0.78418 0.72378 0.96473 0.0
H1545 H 0.7961 0.76679 0.00473 0.0
H1546 H 0.69218 0.80445 0.00512 0.0
H1547 H 0.73092 0.79568 0.98212 0.0
C1548 C 0.08255 0.52239 0.21724 0.0
C1549 C 0.08447 0.53525 0.23952 0.0
C1550 C 0.0601 0.51679 0.20739 0.0
C1551 C 0.9991 0.51852 0.24826 0.0
H1552 H 0.98238 0.49537 0.15356 0.0
C1553 C 0.90644 0.49501 0.23769 0.0
C1554 C 0.90522 0.48022 0.22966 0.0
C1555 C 0.92706 0.50276 0.22896 0.0
C1556 C 0.98685 0.5018 0.18018 0.0
H1557 H 0.0651 0.55296 0.26622 0.0
H1558 H 0.02599 0.54366 0.24757 0.0
H1559 H 0.02125 0.50737 0.1563 0.0
H1560 H 0.92379 0.462 0.20392 0.0
H1561 H 0.96039 0.47551 0.1891 0.0
H1562 H 0.96524 0.51285 0.27269 0.0
C1563 C 0.04155 0.53755 0.23883 0.0
C1564 C 0.0091 0.50865 0.18179 0.0
C1565 C 0.06387 0.54297 0.24919 0.0
C1566 C 0.92434 0.47346 0.20989 0.0
C1567 C 0.94524 0.4812 0.20154 0.0
C1568 C 0.97702 0.51177 0.24658 0.0
C1569 C 0.03929 0.52407 0.21944 0.0
C1570 C 0.01546 0.51713 0.21592 0.0
C1571 C 0.94714 0.4958 0.21272 0.0
C1572 C 0.97052 0.50334 0.21257 0.0
H1573 H 0.09833 0.51626 0.20989 0.0
H1574 H 0.05907 0.50637 0.19259 0.0
H1575 H 0.00355 0.52453 0.27566 0.0
H1576 H 0.89181 0.50039 0.25287 0.0
H1577 H 0.9277 0.51407 0.237 0.0
C1578 C 0.33655 0.73274 0.46415 0.0
C1579 C 0.33498 0.72058 0.48957 0.0
C1580 C 0.31585 0.73955 0.45018 0.0
C1581 C 0.25123 0.73432 0.43578 0.0
H1582 H 0.24507 0.77425 0.46856 0.0
C1583 C 0.16276 0.75871 0.48373 0.0
C1584 C 0.15816 0.77342 0.47812 0.0
C1585 C 0.18438 0.75277 0.47158 0.0
C1586 C 0.24656 0.76322 0.45814 0.0
H1587 H 0.31095 0.70548 0.5184 0.0
H1588 H 0.2749 0.71709 0.49348 0.0
H1589 H 0.28388 0.76262 0.47125 0.0
H1590 H 0.17211 0.79334 0.45339 0.0
H1591 H 0.21013 0.78292 0.43171 0.0
H1592 H 0.21387 0.73471 0.42396 0.0
C1593 C 0.29196 0.72148 0.48449 0.0
C1594 C 0.26883 0.75656 0.45976 0.0
C1595 C 0.31254 0.7149 0.49903 0.0
C1596 C 0.17517 0.78194 0.45792 0.0
C1597 C 0.19699 0.77601 0.4459 0.0
C1598 C 0.22904 0.741 0.43383 0.0
C1599 C 0.29334 0.73405 0.46065 0.0
C1600 C 0.27118 0.74188 0.45022 0.0
C1601 C 0.20205 0.7614 0.45349 0.0
C1602 C 0.22623 0.75535 0.44671 0.0
H1603 H 0.35372 0.73731 0.4567 0.0
H1604 H 0.31739 0.74923 0.43185 0.0
H1605 H 0.25262 0.72305 0.42766 0.0
H1606 H 0.14986 0.75187 0.49884 0.0
H1607 H 0.18766 0.74155 0.47844 0.0
C1608 C 0.83123 0.22242 0.47997 0.0
C1609 C 0.85046 0.23137 0.49025 0.0
C1610 C 0.80848 0.22823 0.47491 0.0
C1611 C 0.77387 0.25979 0.50856 0.0
H1612 H 0.72617 0.24499 0.43385 0.0
C1613 C 0.68011 0.28428 0.50073 0.0
C1614 C 0.66112 0.27444 0.5007 0.0
C1615 C 0.70339 0.27957 0.49442 0.0
C1616 C 0.7393 0.24918 0.455 0.0
H1617 H 0.86148 0.25342 0.49996 0.0
H1618 H 0.82204 0.26364 0.49008 0.0
H1619 H 0.76682 0.23584 0.43022 0.0
H1620 H 0.65169 0.25199 0.49235 0.0
H1621 H 0.69233 0.24374 0.48198 0.0
H1622 H 0.74642 0.273 0.53365 0.0
C1623 C 0.82424 0.2521 0.48729 0.0
C1624 C 0.76257 0.24393 0.45295 0.0
C1625 C 0.84685 0.24628 0.49274 0.0
C1626 C 0.66592 0.25982 0.49318 0.0
C1627 C 0.68919 0.25512 0.48671 0.0
C1628 C 0.75071 0.26506 0.51048 0.0
C1629 C 0.80461 0.24311 0.47969 0.0
C1630 C 0.78012 0.24912 0.4799 0.0
C1631 C 0.70822 0.26491 0.48776 0.0
C1632 C 0.7331 0.25976 0.48395 0.0
H1633 H 0.83351 0.21087 0.47819 0.0
H1634 H 0.79376 0.22097 0.46933 0.0
H1635 H 0.78673 0.26381 0.53046 0.0
H1636 H 0.67709 0.29559 0.50665 0.0
H1637 H 0.71766 0.28741 0.495 0.0
C1638 C 0.07777 0.03302 0.71146 0.0
C1639 C 0.09561 0.02321 0.72261 0.0
C1640 C 0.05475 0.02817 0.70282 0.0
C1641 C 0.01835 0.9959 0.67912 0.0
H1642 H 0.97023 0.01535 0.74344 0.0
C1643 C 0.92746 0.97004 0.71883 0.0
C1644 C 0.9081 0.97912 0.72665 0.0
C1645 C 0.94978 0.97587 0.70937 0.0
C1646 C 0.98319 0.00994 0.72439 0.0
H1647 H 0.10382 1.00063 0.73063 0.0
H1648 H 0.06371 0.99214 0.71543 0.0
H1649 H 0.01031 0.02491 0.74159 0.0
H1650 H 0.89615 1.0012 0.72753 0.0
H1651 H 0.93462 0.01142 0.70904 0.0
H1652 H 0.99122 0.98083 0.66217 0.0
C1653 C 0.06742 0.00356 0.71349 0.0
C1654 C 0.00628 0.01544 0.72346 0.0
C1655 C 0.09033 0.00842 0.72255 0.0
C1656 C 0.91096 0.99403 0.72207 0.0
C1657 C 0.93307 0.99985 0.71186 0.0
C1658 C 0.99512 0.99046 0.67965 0.0
C1659 C 0.04921 0.0134 0.70467 0.0
C1660 C 0.02421 0.00836 0.70141 0.0
C1661 C 0.95302 0.9909 0.70694 0.0
C1662 C 0.97729 0.99728 0.70287 0.0
H1663 H 0.08128 0.04447 0.71146 0.0
H1664 H 0.04111 0.03599 0.69579 0.0
H1665 H 0.03179 0.99027 0.6616 0.0
H1666 H 0.92567 0.95851 0.72258 0.0
H1667 H 0.96468 0.96861 0.70618 0.0
C1668 C 0.41948 0.49571 0.72773 0.0
C1669 C 0.41405 0.48099 0.72451 0.0
C1670 C 0.4417 0.50092 0.71561 0.0
C1671 C 0.50265 0.48915 0.71339 0.0
H1672 H 0.5149 0.52521 0.65736 0.0
C1673 C 0.59688 0.51214 0.71188 0.0
C1674 C 0.59901 0.52699 0.71833 0.0
C1675 C 0.57505 0.50611 0.70089 0.0
C1676 C 0.51183 0.51517 0.67336 0.0
H1677 H 0.42719 0.46026 0.70451 0.0
H1678 H 0.46634 0.46932 0.68386 0.0
H1679 H 0.47454 0.51548 0.65945 0.0
H1680 H 0.58058 0.54733 0.71716 0.0
H1681 H 0.542 0.53688 0.69983 0.0
H1682 H 0.53923 0.48914 0.72994 0.0
C1683 C 0.45328 0.47683 0.69551 0.0
C1684 C 0.48871 0.50957 0.67426 0.0
C1685 C 0.43087 0.47167 0.70704 0.0
C1686 C 0.57928 0.53586 0.71173 0.0
C1687 C 0.55721 0.52981 0.70172 0.0
C1688 C 0.52562 0.49485 0.71311 0.0
C1689 C 0.45909 0.49146 0.70058 0.0
C1690 C 0.48386 0.4966 0.6948 0.0
C1691 C 0.55462 0.51478 0.69745 0.0
C1692 C 0.53054 0.50806 0.69363 0.0
H1693 H 0.40674 0.50311 0.7409 0.0
H1694 H 0.44572 0.51221 0.72016 0.0
H1695 H 0.49939 0.47926 0.73007 0.0
H1696 H 0.61201 0.50516 0.7168 0.0
H1697 H 0.57406 0.49458 0.69661 0.0
C1698 C 0.42996 0.96757 0.2147 0.0
C1699 C 0.41173 0.97737 0.22381 0.0
C1700 C 0.453 0.97251 0.2064 0.0
C1701 C 0.48875 0.00495 0.18046 0.0
H1702 H 0.53674 0.98694 0.2483 0.0
C1703 C 0.57799 0.03267 0.22133 0.0
C1704 C 0.59773 0.02399 0.23 0.0
C1705 C 0.55599 0.0264 0.21196 0.0
C1706 C 0.52381 0.99196 0.22833 0.0
H1707 H 0.40285 0.99997 0.22845 0.0
H1708 H 0.4429 0.00861 0.21383 0.0
H1709 H 0.49707 0.97675 0.24571 0.0
H1710 H 0.6106 0.0021 0.2325 0.0
H1711 H 0.57267 0.99112 0.21447 0.0
H1712 H 0.51546 0.02028 0.16343 0.0
C1713 C 0.43954 0.99713 0.21322 0.0
C1714 C 0.50097 0.98608 0.22693 0.0
C1715 C 0.41664 0.99219 0.22195 0.0
C1716 C 0.59551 0.009 0.22651 0.0
C1717 C 0.57371 0.00273 0.21649 0.0
C1718 C 0.51172 0.01077 0.18152 0.0
C1719 C 0.45815 0.98735 0.20651 0.0
C1720 C 0.48305 0.99264 0.20359 0.0
C1721 C 0.55341 0.0113 0.21051 0.0
C1722 C 0.52948 0.00449 0.20605 0.0
H1723 H 0.42669 0.95609 0.2161 0.0
H1724 H 0.46695 0.96472 0.20098 0.0
H1725 H 0.47535 0.01019 0.1619 0.0
H1726 H 0.57926 0.04426 0.22417 0.0
H1727 H 0.5408 0.03338 0.20792 0.0
loop_
_geom_bond_atom_site_label_1
_geom_bond_atom_site_label_2
_geom_bond_distance
_geom_bond_site_symmetry_2
_ccdc_geom_bond_type
Co0 N4 2.148 . S
Co0 N10 2.128 . S
Co0 N20 2.194 1_554 S
Co0 O25 2.351 1_554 S
Co0 O26 2.155 . S
Co0 O27 2.096 . S
C1 N4 1.301 1_556 S
C1 N5 1.328 . S
C1 H6 0.930 . S
C2 C3 1.333 . S
C2 N4 1.317 . S
C2 H7 0.930 . S
C3 C2 1.333 . S
C3 N5 1.350 1_554 S
C3 H29 0.931 . S
N4 Co0 2.148 . S
N4 C1 1.301 1_554 S
N4 C2 1.317 . S
N5 C1 1.328 . S
N5 C3 1.350 1_556 S
H6 C1 0.930 . S
H7 C2 0.930 . S
C8 O9 1.224 . S
C8 O27 1.247 . S
O9 C8 1.224 . S
N10 Co0 2.128 . S
N10 C11 1.355 1_554 S
N10 C13 1.311 . S
C11 N10 1.355 1_556 S
C11 C12 1.363 . S
C11 H23 0.929 . S
C12 C11 1.363 . S
C12 N14 1.375 1_556 S
C12 H30 0.931 . S
C13 N10 1.311 . S
C13 N14 1.347 . S
C13 H24 0.929 . S
N14 C12 1.375 1_554 S
N14 C13 1.347 . S
C15 C18 1.365 . S
C15 N20 1.328 . S
C15 H21 0.929 . S
C16 C17 1.362 . S
C16 C19 1.378 . S
C16 H31 0.929 . S
C17 C16 1.362 . S
C17 C18 1.366 . S
C18 C15 1.365 . S
C18 C17 1.366 . S
C18 H32 0.930 . S
C19 C16 1.378 . S
C19 N20 1.315 . S
C19 H22 0.930 . S
N20 Co0 2.194 1_556 S
N20 C15 1.328 . S
N20 C19 1.315 . S
H21 C15 0.929 . S
H22 C19 0.930 . S
H23 C11 0.929 . S
H24 C13 0.929 . S
O25 Co0 2.351 1_556 S
O25 C28 1.244 . S
O26 Co0 2.155 . S
O26 C28 1.240 1_554 S
O27 Co0 2.096 . S
O27 C8 1.247 . S
C28 O25 1.244 . S
C28 O26 1.240 1_556 S
H29 C3 0.931 . S
H30 C12 0.931 . S
H31 C16 0.929 . S
H32 C18 0.930 . S
Co33 N37 2.148 . S
Co33 N43 2.128 . S
Co33 N53 2.194 1_554 S
Co33 O58 2.351 1_554 S
Co33 O59 2.155 . S
Co33 O60 2.096 . S
C34 N37 1.301 1_556 S
C34 N38 1.328 . S
C34 H39 0.930 . S
C35 C36 1.333 . S
C35 N37 1.317 . S
C35 H40 0.930 . S
C36 C35 1.333 . S
C36 N38 1.350 1_554 S
C36 H62 0.931 . S
N37 Co33 2.148 . S
N37 C34 1.301 1_554 S
N37 C35 1.317 . S
N38 C34 1.328 . S
N38 C36 1.350 1_556 S
H39 C34 0.930 . S
H40 C35 0.930 . S
C41 O42 1.224 . S
C41 O60 1.247 . S
O42 C41 1.224 . S
N43 Co33 2.128 . S
N43 C44 1.355 1_554 S
N43 C46 1.311 . S
C44 N43 1.355 1_556 S
C44 C45 1.363 . S
C44 H56 0.929 . S
C45 C44 1.363 . S
C45 N47 1.375 1_556 S
C45 H63 0.931 . S
C46 N43 1.311 . S
C46 N47 1.347 . S
C46 H57 0.929 . S
N47 C45 1.375 1_554 S
N47 C46 1.347 . S
C48 C51 1.365 . S
C48 N53 1.328 . S
C48 H54 0.929 . S
C49 C50 1.362 . S
C49 C52 1.378 . S
C49 H64 0.929 . S
C50 C49 1.362 . S
C50 C51 1.366 . S
C51 C48 1.365 . S
C51 C50 1.366 . S
C51 H65 0.930 . S
C52 C49 1.378 . S
C52 N53 1.315 . S
C52 H55 0.930 . S
N53 Co33 2.194 1_556 S
N53 C48 1.328 . S
N53 C52 1.315 . S
H54 C48 0.929 . S
H55 C52 0.930 . S
H56 C44 0.929 . S
H57 C46 0.929 . S
O58 Co33 2.351 1_556 S
O58 C61 1.244 . S
O59 Co33 2.155 . S
O59 C61 1.240 1_554 S
O60 Co33 2.096 . S
O60 C41 1.247 . S
C61 O58 1.244 . S
C61 O59 1.240 1_556 S
H62 C36 0.931 . S
H63 C45 0.931 . S
H64 C49 0.929 . S
H65 C51 0.930 . S
Co66 N70 2.148 . S
Co66 N76 2.128 . S
Co66 N86 2.194 . S
Co66 O91 2.351 . S
Co66 O92 2.155 . S
Co66 O93 2.096 . S
C67 N70 1.301 . S
C67 N71 1.328 . S
C67 H72 0.930 . S
C68 C69 1.333 . S
C68 N70 1.317 . S
C68 H73 0.930 . S
C69 C68 1.333 . S
C69 N71 1.350 . S
C69 H95 0.931 . S
N70 Co66 2.148 . S
N70 C67 1.301 . S
N70 C68 1.317 . S
N71 C67 1.328 . S
N71 C69 1.350 . S
H72 C67 0.930 . S
H73 C68 0.930 . S
C74 O75 1.224 . S
C74 O93 1.247 . S
O75 C74 1.224 . S
N76 Co66 2.128 . S
N76 C77 1.355 . S
N76 C79 1.311 . S
C77 N76 1.355 . S
C77 C78 1.363 . S
C77 H89 0.929 . S
C78 C77 1.363 . S
C78 N80 1.375 . S
C78 H96 0.931 . S
C79 N76 1.311 . S
C79 N80 1.347 . S
C79 H90 0.929 . S
N80 C78 1.375 . S
N80 C79 1.347 . S
C81 C84 1.365 . S
C81 N86 1.328 . S
C81 H87 0.929 . S
C82 C83 1.362 . S
C82 C85 1.378 . S
C82 H97 0.929 . S
C83 C82 1.362 . S
C83 C84 1.366 . S
C84 C81 1.365 . S
C84 C83 1.366 . S
C84 H98 0.930 . S
C85 C82 1.378 . S
C85 N86 1.315 . S
C85 H88 0.930 . S
N86 Co66 2.194 . S
N86 C81 1.328 . S
N86 C85 1.315 . S
H87 C81 0.929 . S
H88 C85 0.930 . S
H89 C77 0.929 . S
H90 C79 0.929 . S
O91 Co66 2.351 . S
O91 C94 1.244 . S
O92 Co66 2.155 . S
O92 C94 1.240 . S
O93 Co66 2.096 . S
O93 C74 1.247 . S
C94 O91 1.244 . S
C94 O92 1.240 . S
H95 C69 0.931 . S
H96 C78 0.931 . S
H97 C82 0.929 . S
H98 C84 0.930 . S
Co99 N103 2.148 . S
Co99 N109 2.128 . S
Co99 N119 2.194 . S
Co99 O124 2.351 . S
Co99 O125 2.155 . S
Co99 O126 2.096 . S
C100 N103 1.301 . S
C100 N104 1.328 . S
C100 H105 0.930 . S
C101 C102 1.333 . S
C101 N103 1.317 . S
C101 H106 0.930 . S
C102 C101 1.333 . S
C102 N104 1.350 . S
C102 H128 0.931 . S
N103 Co99 2.148 . S
N103 C100 1.301 . S
N103 C101 1.317 . S
N104 C100 1.328 . S
N104 C102 1.350 . S
H105 C100 0.930 . S
H106 C101 0.930 . S
C107 O108 1.224 . S
C107 O126 1.247 . S
O108 C107 1.224 . S
N109 Co99 2.128 . S
N109 C110 1.355 . S
N109 C112 1.311 . S
C110 N109 1.355 . S
C110 C111 1.363 . S
C110 H122 0.929 . S
C111 C110 1.363 . S
C111 N113 1.375 . S
C111 H129 0.931 . S
C112 N109 1.311 . S
C112 N113 1.347 . S
C112 H123 0.929 . S
N113 C111 1.375 . S
N113 C112 1.347 . S
C114 C117 1.365 . S
C114 N119 1.328 . S
C114 H120 0.929 . S
C115 C116 1.362 . S
C115 C118 1.378 . S
C115 H130 0.929 . S
C116 C115 1.362 . S
C116 C117 1.366 . S
C117 C114 1.365 . S
C117 C116 1.366 . S
C117 H131 0.930 . S
C118 C115 1.378 . S
C118 N119 1.315 . S
C118 H121 0.930 . S
N119 Co99 2.194 . S
N119 C114 1.328 . S
N119 C118 1.315 . S
H120 C114 0.929 . S
H121 C118 0.930 . S
H122 C110 0.929 . S
H123 C112 0.929 . S
O124 Co99 2.351 . S
O124 C127 1.244 . S
O125 Co99 2.155 . S
O125 C127 1.240 . S
O126 Co99 2.096 . S
O126 C107 1.247 . S
C127 O124 1.244 . S
C127 O125 1.240 . S
H128 C102 0.931 . S
H129 C111 0.931 . S
H130 C115 0.929 . S
H131 C117 0.930 . S
Co132 N136 2.148 . S
Co132 N142 2.128 . S
Co132 N152 2.194 . S
Co132 O157 2.351 . S
Co132 O158 2.155 . S
Co132 O159 2.096 . S
C133 N136 1.301 . S
C133 N137 1.328 . S
C133 H138 0.930 . S
C134 C135 1.333 . S
C134 N136 1.317 . S
C134 H139 0.930 . S
C135 C134 1.333 . S
C135 N137 1.350 . S
C135 H161 0.931 . S
N136 Co132 2.148 . S
N136 C133 1.301 . S
N136 C134 1.317 . S
N137 C133 1.328 . S
N137 C135 1.350 . S
H138 C133 0.930 . S
H139 C134 0.930 . S
C140 O141 1.224 . S
C140 O159 1.247 . S
O141 C140 1.224 . S
N142 Co132 2.128 . S
N142 C143 1.355 . S
N142 C145 1.311 . S
C143 N142 1.355 . S
C143 C144 1.363 . S
C143 H155 0.929 . S
C144 C143 1.363 . S
C144 N146 1.375 . S
C144 H162 0.931 . S
C145 N142 1.311 . S
C145 N146 1.347 . S
C145 H156 0.929 . S
N146 C144 1.375 . S
N146 C145 1.347 . S
C147 C150 1.365 . S
C147 N152 1.328 . S
C147 H153 0.929 . S
C148 C149 1.362 . S
C148 C151 1.378 . S
C148 H163 0.929 . S
C149 C148 1.362 . S
C149 C150 1.366 . S
C150 C147 1.365 . S
C150 C149 1.366 . S
C150 H164 0.930 . S
C151 C148 1.378 . S
C151 N152 1.315 . S
C151 H154 0.930 . S
N152 Co132 2.194 . S
N152 C147 1.328 . S
N152 C151 1.315 . S
H153 C147 0.929 . S
H154 C151 0.930 . S
H155 C143 0.929 . S
H156 C145 0.929 . S
O157 Co132 2.351 . S
O157 C160 1.244 . S
O158 Co132 2.155 . S
O158 C160 1.240 . S
O159 Co132 2.096 . S
O159 C140 1.247 . S
C160 O157 1.244 . S
C160 O158 1.240 . S
H161 C135 0.931 . S
H162 C144 0.931 . S
H163 C148 0.929 . S
H164 C150 0.930 . S
Co165 N169 2.148 . S
Co165 N175 2.128 . S
Co165 N185 2.194 . S
Co165 O190 2.351 . S
Co165 O191 2.155 . S
Co165 O192 2.096 . S
C166 N169 1.301 . S
C166 N170 1.328 . S
C166 H171 0.930 . S
C167 C168 1.333 . S
C167 N169 1.317 . S
C167 H172 0.930 . S
C168 C167 1.333 . S
C168 N170 1.350 . S
C168 H194 0.931 . S
N169 Co165 2.148 . S
N169 C166 1.301 . S
N169 C167 1.317 . S
N170 C166 1.328 . S
N170 C168 1.350 . S
H171 C166 0.930 . S
H172 C167 0.930 . S
C173 O174 1.224 . S
C173 O192 1.247 . S
O174 C173 1.224 . S
N175 Co165 2.128 . S
N175 C176 1.355 . S
N175 C178 1.311 . S
C176 N175 1.355 . S
C176 C177 1.363 . S
C176 H188 0.929 . S
C177 C176 1.363 . S
C177 N179 1.375 . S
C177 H195 0.931 . S
C178 N175 1.311 . S
C178 N179 1.347 . S
C178 H189 0.929 . S
N179 C177 1.375 . S
N179 C178 1.347 . S
C180 C183 1.365 . S
C180 N185 1.328 . S
C180 H186 0.929 . S
C181 C182 1.362 . S
C181 C184 1.378 . S
C181 H196 0.929 . S
C182 C181 1.362 . S
C182 C183 1.366 . S
C183 C180 1.365 . S
C183 C182 1.366 . S
C183 H197 0.930 . S
C184 C181 1.378 . S
C184 N185 1.315 . S
C184 H187 0.930 . S
N185 Co165 2.194 . S
N185 C180 1.328 . S
N185 C184 1.315 . S
H186 C180 0.929 . S
H187 C184 0.930 . S
H188 C176 0.929 . S
H189 C178 0.929 . S
O190 Co165 2.351 . S
O190 C193 1.244 . S
O191 Co165 2.155 . S
O191 C193 1.240 . S
O192 Co165 2.096 . S
O192 C173 1.247 . S
C193 O190 1.244 . S
C193 O191 1.240 . S
H194 C168 0.931 . S
H195 C177 0.931 . S
H196 C181 0.929 . S
H197 C183 0.930 . S
Co198 N202 2.148 . S
Co198 N208 2.128 . S
Co198 N218 2.194 . S
Co198 O223 2.351 . S
Co198 O224 2.155 . S
Co198 O225 2.096 . S
C199 N202 1.301 . S
C199 N203 1.328 . S
C199 H204 0.930 . S
C200 C201 1.333 . S
C200 N202 1.317 . S
C200 H205 0.930 . S
C201 C200 1.333 . S
C201 N203 1.350 . S
C201 H227 0.931 . S
N202 Co198 2.148 . S
N202 C199 1.301 . S
N202 C200 1.317 . S
N203 C199 1.328 . S
N203 C201 1.350 . S
H204 C199 0.930 . S
H205 C200 0.930 . S
C206 O207 1.224 . S
C206 O225 1.247 . S
O207 C206 1.224 . S
N208 Co198 2.128 . S
N208 C209 1.355 . S
N208 C211 1.311 . S
C209 N208 1.355 . S
C209 C210 1.363 . S
C209 H221 0.929 . S
C210 C209 1.363 . S
C210 N212 1.375 . S
C210 H228 0.931 . S
C211 N208 1.311 . S
C211 N212 1.347 . S
C211 H222 0.929 . S
N212 C210 1.375 . S
N212 C211 1.347 . S
C213 C216 1.365 . S
C213 N218 1.328 . S
C213 H219 0.929 . S
C214 C215 1.362 . S
C214 C217 1.378 . S
C214 H229 0.929 . S
C215 C214 1.362 . S
C215 C216 1.366 . S
C216 C213 1.365 . S
C216 C215 1.366 . S
C216 H230 0.930 . S
C217 C214 1.378 . S
C217 N218 1.315 . S
C217 H220 0.930 . S
N218 Co198 2.194 . S
N218 C213 1.328 . S
N218 C217 1.315 . S
H219 C213 0.929 . S
H220 C217 0.930 . S
H221 C209 0.929 . S
H222 C211 0.929 . S
O223 Co198 2.351 . S
O223 C226 1.244 . S
O224 Co198 2.155 . S
O224 C226 1.240 . S
O225 Co198 2.096 . S
O225 C206 1.247 . S
C226 O223 1.244 . S
C226 O224 1.240 . S
H227 C201 0.931 . S
H228 C210 0.931 . S
H229 C214 0.929 . S
H230 C216 0.930 . S
Co231 N235 2.148 . S
Co231 N241 2.128 . S
Co231 N251 2.194 . S
Co231 O256 2.351 . S
Co231 O257 2.155 . S
Co231 O258 2.096 . S
C232 N235 1.301 . S
C232 N236 1.328 . S
C232 H237 0.930 . S
C233 C234 1.333 . S
C233 N235 1.317 . S
C233 H238 0.930 . S
C234 C233 1.333 . S
C234 N236 1.350 . S
C234 H260 0.931 . S
N235 Co231 2.148 . S
N235 C232 1.301 . S
N235 C233 1.317 . S
N236 C232 1.328 . S
N236 C234 1.350 . S
H237 C232 0.930 . S
H238 C233 0.930 . S
C239 O240 1.224 . S
C239 O258 1.247 . S
O240 C239 1.224 . S
N241 Co231 2.128 . S
N241 C242 1.355 . S
N241 C244 1.311 . S
C242 N241 1.355 . S
C242 C243 1.363 . S
C242 H254 0.929 . S
C243 C242 1.363 . S
C243 N245 1.375 . S
C243 H261 0.931 . S
C244 N241 1.311 . S
C244 N245 1.347 . S
C244 H255 0.929 . S
N245 C243 1.375 . S
N245 C244 1.347 . S
C246 C249 1.365 . S
C246 N251 1.328 . S
C246 H252 0.929 . S
C247 C248 1.362 . S
C247 C250 1.378 . S
C247 H262 0.929 . S
C248 C247 1.362 . S
C248 C249 1.366 . S
C249 C246 1.365 . S
C249 C248 1.366 . S
C249 H263 0.930 . S
C250 C247 1.378 . S
C250 N251 1.315 . S
C250 H253 0.930 . S
N251 Co231 2.194 . S
N251 C246 1.328 . S
N251 C250 1.315 . S
H252 C246 0.929 . S
H253 C250 0.930 . S
H254 C242 0.929 . S
H255 C244 0.929 . S
O256 Co231 2.351 . S
O256 C259 1.244 . S
O257 Co231 2.155 . S
O257 C259 1.240 . S
O258 Co231 2.096 . S
O258 C239 1.247 . S
C259 O256 1.244 . S
C259 O257 1.240 . S
H260 C234 0.931 . S
H261 C243 0.931 . S
H262 C247 0.929 . S
H263 C249 0.930 . S
Co264 N268 2.148 . S
Co264 N274 2.128 . S
Co264 N284 2.194 . S
Co264 O289 2.351 . S
Co264 O290 2.155 . S
Co264 O291 2.096 . S
C265 N268 1.301 . S
C265 N269 1.328 . S
C265 H270 0.930 . S
C266 C267 1.333 . S
C266 N268 1.317 . S
C266 H271 0.930 . S
C267 C266 1.333 . S
C267 N269 1.350 . S
C267 H293 0.931 . S
N268 Co264 2.148 . S
N268 C265 1.301 . S
N268 C266 1.317 . S
N269 C265 1.328 . S
N269 C267 1.350 . S
H270 C265 0.930 . S
H271 C266 0.930 . S
C272 O273 1.224 . S
C272 O291 1.247 . S
O273 C272 1.224 . S
N274 Co264 2.128 . S
N274 C275 1.355 . S
N274 C277 1.311 . S
C275 N274 1.355 . S
C275 C276 1.363 . S
C275 H287 0.929 . S
C276 C275 1.363 . S
C276 N278 1.375 . S
C276 H294 0.931 . S
C277 N274 1.311 . S
C277 N278 1.347 . S
C277 H288 0.929 . S
N278 C276 1.375 . S
N278 C277 1.347 . S
C279 C282 1.365 . S
C279 N284 1.328 . S
C279 H285 0.929 . S
C280 C281 1.362 . S
C280 C283 1.378 . S
C280 H295 0.929 . S
C281 C280 1.362 . S
C281 C282 1.366 . S
C282 C279 1.365 . S
C282 C281 1.366 . S
C282 H296 0.930 . S
C283 C280 1.378 . S
C283 N284 1.315 . S
C283 H286 0.930 . S
N284 Co264 2.194 . S
N284 C279 1.328 . S
N284 C283 1.315 . S
H285 C279 0.929 . S
H286 C283 0.930 . S
H287 C275 0.929 . S
H288 C277 0.929 . S
O289 Co264 2.351 . S
O289 C292 1.244 . S
O290 Co264 2.155 . S
O290 C292 1.240 . S
O291 Co264 2.096 . S
O291 C272 1.247 . S
C292 O289 1.244 . S
C292 O290 1.240 . S
H293 C267 0.931 . S
H294 C276 0.931 . S
H295 C280 0.929 . S
H296 C282 0.930 . S
Co297 N301 2.148 . S
Co297 N307 2.128 . S
Co297 N317 2.194 . S
Co297 O322 2.351 . S
Co297 O323 2.155 . S
Co297 O324 2.096 . S
C298 N301 1.301 . S
C298 N302 1.328 . S
C298 H303 0.930 . S
C299 C300 1.333 . S
C299 N301 1.317 . S
C299 H304 0.930 . S
C300 C299 1.333 . S
C300 N302 1.350 . S
C300 H326 0.931 . S
N301 Co297 2.148 . S
N301 C298 1.301 . S
N301 C299 1.317 . S
N302 C298 1.328 . S
N302 C300 1.350 . S
H303 C298 0.930 . S
H304 C299 0.930 . S
C305 O306 1.224 . S
C305 O324 1.247 . S
O306 C305 1.224 . S
N307 Co297 2.128 . S
N307 C308 1.355 . S
N307 C310 1.311 . S
C308 N307 1.355 . S
C308 C309 1.363 . S
C308 H320 0.929 . S
C309 C308 1.363 . S
C309 N311 1.375 . S
C309 H327 0.931 . S
C310 N307 1.311 . S
C310 N311 1.347 . S
C310 H321 0.929 . S
N311 C309 1.375 . S
N311 C310 1.347 . S
C312 C315 1.365 . S
C312 N317 1.328 . S
C312 H318 0.929 . S
C313 C314 1.362 . S
C313 C316 1.378 . S
C313 H328 0.929 . S
C314 C313 1.362 . S
C314 C315 1.366 . S
C315 C312 1.365 . S
C315 C314 1.366 . S
C315 H329 0.930 . S
C316 C313 1.378 . S
C316 N317 1.315 . S
C316 H319 0.930 . S
N317 Co297 2.194 . S
N317 C312 1.328 . S
N317 C316 1.315 . S
H318 C312 0.929 . S
H319 C316 0.930 . S
H320 C308 0.929 . S
H321 C310 0.929 . S
O322 Co297 2.351 . S
O322 C325 1.244 . S
O323 Co297 2.155 . S
O323 C325 1.240 . S
O324 Co297 2.096 . S
O324 C305 1.247 . S
C325 O322 1.244 . S
C325 O323 1.240 . S
H326 C300 0.931 . S
H327 C309 0.931 . S
H328 C313 0.929 . S
H329 C315 0.930 . S
Co330 N334 2.148 . S
Co330 N340 2.128 . S
Co330 N350 2.194 . S
Co330 O355 2.351 . S
Co330 O356 2.155 . S
Co330 O357 2.096 . S
C331 N334 1.301 . S
C331 N335 1.328 . S
C331 H336 0.930 . S
C332 C333 1.333 . S
C332 N334 1.317 . S
C332 H337 0.930 . S
C333 C332 1.333 . S
C333 N335 1.350 . S
C333 H359 0.931 . S
N334 Co330 2.148 . S
N334 C331 1.301 . S
N334 C332 1.317 . S
N335 C331 1.328 . S
N335 C333 1.350 . S
H336 C331 0.930 . S
H337 C332 0.930 . S
C338 O339 1.224 . S
C338 O357 1.247 . S
O339 C338 1.224 . S
N340 Co330 2.128 . S
N340 C341 1.355 . S
N340 C343 1.311 . S
C341 N340 1.355 . S
C341 C342 1.363 . S
C341 H353 0.929 . S
C342 C341 1.363 . S
C342 N344 1.375 . S
C342 H360 0.931 . S
C343 N340 1.311 . S
C343 N344 1.347 . S
C343 H354 0.929 . S
N344 C342 1.375 . S
N344 C343 1.347 . S
C345 C348 1.365 . S
C345 N350 1.328 . S
C345 H351 0.929 . S
C346 C347 1.362 . S
C346 C349 1.378 . S
C346 H361 0.929 . S
C347 C346 1.362 . S
C347 C348 1.366 . S
C348 C345 1.365 . S
C348 C347 1.366 . S
C348 H362 0.930 . S
C349 C346 1.378 . S
C349 N350 1.315 . S
C349 H352 0.930 . S
N350 Co330 2.194 . S
N350 C345 1.328 . S
N350 C349 1.315 . S
H351 C345 0.929 . S
H352 C349 0.930 . S
H353 C341 0.929 . S
H354 C343 0.929 . S
O355 Co330 2.351 . S
O355 C358 1.244 . S
O356 Co330 2.155 . S
O356 C358 1.240 . S
O357 Co330 2.096 . S
O357 C338 1.247 . S
C358 O355 1.244 . S
C358 O356 1.240 . S
H359 C333 0.931 . S
H360 C342 0.931 . S
H361 C346 0.929 . S
H362 C348 0.930 . S
Co363 N367 2.148 . S
Co363 N373 2.128 . S
Co363 N383 2.194 . S
Co363 O388 2.351 . S
Co363 O389 2.155 . S
Co363 O390 2.096 . S
C364 N367 1.301 . S
C364 N368 1.328 . S
C364 H369 0.930 . S
C365 C366 1.333 . S
C365 N367 1.317 . S
C365 H370 0.930 . S
C366 C365 1.333 . S
C366 N368 1.350 . S
C366 H392 0.931 . S
N367 Co363 2.148 . S
N367 C364 1.301 . S
N367 C365 1.317 . S
N368 C364 1.328 . S
N368 C366 1.350 . S
H369 C364 0.930 . S
H370 C365 0.930 . S
C371 O372 1.224 . S
C371 O390 1.247 . S
O372 C371 1.224 . S
N373 Co363 2.128 . S
N373 C374 1.355 . S
N373 C376 1.311 . S
C374 N373 1.355 . S
C374 C375 1.363 . S
C374 H386 0.929 . S
C375 C374 1.363 . S
C375 N377 1.375 . S
C375 H393 0.931 . S
C376 N373 1.311 . S
C376 N377 1.347 . S
C376 H387 0.929 . S
N377 C375 1.375 . S
N377 C376 1.347 . S
C378 C381 1.365 . S
C378 N383 1.328 . S
C378 H384 0.929 . S
C379 C380 1.362 . S
C379 C382 1.378 . S
C379 H394 0.929 . S
C380 C379 1.362 . S
C380 C381 1.366 . S
C381 C378 1.365 . S
C381 C380 1.366 . S
C381 H395 0.930 . S
C382 C379 1.378 . S
C382 N383 1.315 . S
C382 H385 0.930 . S
N383 Co363 2.194 . S
N383 C378 1.328 . S
N383 C382 1.315 . S
H384 C378 0.929 . S
H385 C382 0.930 . S
H386 C374 0.929 . S
H387 C376 0.929 . S
O388 Co363 2.351 . S
O388 C391 1.244 . S
O389 Co363 2.155 . S
O389 C391 1.240 . S
O390 Co363 2.096 . S
O390 C371 1.247 . S
C391 O388 1.244 . S
C391 O389 1.240 . S
H392 C366 0.931 . S
H393 C375 0.931 . S
H394 C379 0.929 . S
H395 C381 0.930 . S
Co396 N400 2.148 . S
Co396 N406 2.128 . S
Co396 N416 2.194 1_554 S
Co396 O421 2.351 1_554 S
Co396 O422 2.155 . S
Co396 O423 2.096 . S
C397 N400 1.301 1_556 S
C397 N401 1.328 . S
C397 H402 0.930 . S
C398 C399 1.333 . S
C398 N400 1.317 . S
C398 H403 0.930 . S
C399 C398 1.333 . S
C399 N401 1.350 1_554 S
C399 H425 0.931 . S
N400 Co396 2.148 . S
N400 C397 1.301 1_554 S
N400 C398 1.317 . S
N401 C397 1.328 . S
N401 C399 1.350 1_556 S
H402 C397 0.930 . S
H403 C398 0.930 . S
C404 O405 1.224 . S
C404 O423 1.247 . S
O405 C404 1.224 . S
N406 Co396 2.128 . S
N406 C407 1.355 1_554 S
N406 C409 1.311 . S
C407 N406 1.355 1_556 S
C407 C408 1.363 . S
C407 H419 0.929 . S
C408 C407 1.363 . S
C408 N410 1.375 1_556 S
C408 H426 0.931 . S
C409 N406 1.311 . S
C409 N410 1.347 . S
C409 H420 0.929 . S
N410 C408 1.375 1_554 S
N410 C409 1.347 . S
C411 C414 1.365 . S
C411 N416 1.328 . S
C411 H417 0.929 . S
C412 C413 1.362 . S
C412 C415 1.378 . S
C412 H427 0.929 . S
C413 C412 1.362 . S
C413 C414 1.366 . S
C414 C411 1.365 . S
C414 C413 1.366 . S
C414 H428 0.930 . S
C415 C412 1.378 . S
C415 N416 1.315 . S
C415 H418 0.930 . S
N416 Co396 2.194 1_556 S
N416 C411 1.328 . S
N416 C415 1.315 . S
H417 C411 0.929 . S
H418 C415 0.930 . S
H419 C407 0.929 . S
H420 C409 0.929 . S
O421 Co396 2.351 1_556 S
O421 C424 1.244 . S
O422 Co396 2.155 . S
O422 C424 1.240 1_554 S
O423 Co396 2.096 . S
O423 C404 1.247 . S
C424 O421 1.244 . S
C424 O422 1.240 1_556 S
H425 C399 0.931 . S
H426 C408 0.931 . S
H427 C412 0.929 . S
H428 C414 0.930 . S
Co429 N433 2.148 . S
Co429 N439 2.128 . S
Co429 N449 2.194 1_554 S
Co429 O454 2.351 1_554 S
Co429 O455 2.155 . S
Co429 O456 2.096 . S
C430 N433 1.301 1_556 S
C430 N434 1.328 . S
C430 H435 0.930 . S
C431 C432 1.333 . S
C431 N433 1.317 . S
C431 H436 0.930 . S
C432 C431 1.333 . S
C432 N434 1.350 1_554 S
C432 H458 0.931 . S
N433 Co429 2.148 . S
N433 C430 1.301 1_554 S
N433 C431 1.317 . S
N434 C430 1.328 . S
N434 C432 1.350 1_556 S
H435 C430 0.930 . S
H436 C431 0.930 . S
C437 O438 1.224 . S
C437 O456 1.247 . S
O438 C437 1.224 . S
N439 Co429 2.128 . S
N439 C440 1.355 1_554 S
N439 C442 1.311 . S
C440 N439 1.355 1_556 S
C440 C441 1.363 . S
C440 H452 0.929 . S
C441 C440 1.363 . S
C441 N443 1.375 1_556 S
C441 H459 0.931 . S
C442 N439 1.311 . S
C442 N443 1.347 . S
C442 H453 0.929 . S
N443 C441 1.375 1_554 S
N443 C442 1.347 . S
C444 C447 1.365 . S
C444 N449 1.328 . S
C444 H450 0.929 . S
C445 C446 1.362 . S
C445 C448 1.378 . S
C445 H460 0.929 . S
C446 C445 1.362 . S
C446 C447 1.366 . S
C447 C444 1.365 . S
C447 C446 1.366 . S
C447 H461 0.930 . S
C448 C445 1.378 . S
C448 N449 1.315 . S
C448 H451 0.930 . S
N449 Co429 2.194 1_556 S
N449 C444 1.328 . S
N449 C448 1.315 . S
H450 C444 0.929 . S
H451 C448 0.930 . S
H452 C440 0.929 . S
H453 C442 0.929 . S
O454 Co429 2.351 1_556 S
O454 C457 1.244 . S
O455 Co429 2.155 . S
O455 C457 1.240 1_554 S
O456 Co429 2.096 . S
O456 C437 1.247 . S
C457 O454 1.244 . S
C457 O455 1.240 1_556 S
H458 C432 0.931 . S
H459 C441 0.931 . S
H460 C445 0.929 . S
H461 C447 0.930 . S
Co462 N466 2.148 . S
Co462 N472 2.128 . S
Co462 N482 2.194 . S
Co462 O487 2.351 . S
Co462 O488 2.155 . S
Co462 O489 2.096 . S
C463 N466 1.301 . S
C463 N467 1.328 . S
C463 H468 0.930 . S
C464 C465 1.333 . S
C464 N466 1.317 . S
C464 H469 0.930 . S
C465 C464 1.333 . S
C465 N467 1.350 . S
C465 H491 0.931 . S
N466 Co462 2.148 . S
N466 C463 1.301 . S
N466 C464 1.317 . S
N467 C463 1.328 . S
N467 C465 1.350 . S
H468 C463 0.930 . S
H469 C464 0.930 . S
C470 O471 1.224 . S
C470 O489 1.247 . S
O471 C470 1.224 . S
N472 Co462 2.128 . S
N472 C473 1.355 . S
N472 C475 1.311 . S
C473 N472 1.355 . S
C473 C474 1.363 . S
C473 H485 0.929 . S
C474 C473 1.363 . S
C474 N476 1.375 . S
C474 H492 0.931 . S
C475 N472 1.311 . S
C475 N476 1.347 . S
C475 H486 0.929 . S
N476 C474 1.375 . S
N476 C475 1.347 . S
C477 C480 1.365 . S
C477 N482 1.328 . S
C477 H483 0.929 . S
C478 C479 1.362 . S
C478 C481 1.378 . S
C478 H493 0.929 . S
C479 C478 1.362 . S
C479 C480 1.366 . S
C480 C477 1.365 . S
C480 C479 1.366 . S
C480 H494 0.930 . S
C481 C478 1.378 . S
C481 N482 1.315 . S
C481 H484 0.930 . S
N482 Co462 2.194 . S
N482 C477 1.328 . S
N482 C481 1.315 . S
H483 C477 0.929 . S
H484 C481 0.930 . S
H485 C473 0.929 . S
H486 C475 0.929 . S
O487 Co462 2.351 . S
O487 C490 1.244 . S
O488 Co462 2.155 . S
O488 C490 1.240 . S
O489 Co462 2.096 . S
O489 C470 1.247 . S
C490 O487 1.244 . S
C490 O488 1.240 . S
H491 C465 0.931 . S
H492 C474 0.931 . S
H493 C478 0.929 . S
H494 C480 0.930 . S
Co495 N499 2.148 . S
Co495 N505 2.128 . S
Co495 N515 2.194 . S
Co495 O520 2.351 . S
Co495 O521 2.155 . S
Co495 O522 2.096 . S
C496 N499 1.301 . S
C496 N500 1.328 . S
C496 H501 0.930 . S
C497 C498 1.333 . S
C497 N499 1.317 . S
C497 H502 0.930 . S
C498 C497 1.333 . S
C498 N500 1.350 . S
C498 H524 0.931 . S
N499 Co495 2.148 . S
N499 C496 1.301 . S
N499 C497 1.317 . S
N500 C496 1.328 . S
N500 C498 1.350 . S
H501 C496 0.930 . S
H502 C497 0.930 . S
C503 O504 1.224 . S
C503 O522 1.247 . S
O504 C503 1.224 . S
N505 Co495 2.128 . S
N505 C506 1.355 . S
N505 C508 1.311 . S
C506 N505 1.355 . S
C506 C507 1.363 . S
C506 H518 0.929 . S
C507 C506 1.363 . S
C507 N509 1.375 . S
C507 H525 0.931 . S
C508 N505 1.311 . S
C508 N509 1.347 . S
C508 H519 0.929 . S
N509 C507 1.375 . S
N509 C508 1.347 . S
C510 C513 1.365 . S
C510 N515 1.328 . S
C510 H516 0.929 . S
C511 C512 1.362 . S
C511 C514 1.378 . S
C511 H526 0.929 . S
C512 C511 1.362 . S
C512 C513 1.366 . S
C513 C510 1.365 . S
C513 C512 1.366 . S
C513 H527 0.930 . S
C514 C511 1.378 . S
C514 N515 1.315 . S
C514 H517 0.930 . S
N515 Co495 2.194 . S
N515 C510 1.328 . S
N515 C514 1.315 . S
H516 C510 0.929 . S
H517 C514 0.930 . S
H518 C506 0.929 . S
H519 C508 0.929 . S
O520 Co495 2.351 . S
O520 C523 1.244 . S
O521 Co495 2.155 . S
O521 C523 1.240 . S
O522 Co495 2.096 . S
O522 C503 1.247 . S
C523 O520 1.244 . S
C523 O521 1.240 . S
H524 C498 0.931 . S
H525 C507 0.931 . S
H526 C511 0.929 . S
H527 C513 0.930 . S
C528 C529 1.349 . S
C528 C530 1.327 . S
C528 H553 0.950 1_556 S
C529 C528 1.349 . S
C529 C545 1.349 . S
C530 C528 1.327 . S
C530 C549 1.429 . S
C530 H554 0.950 . S
C531 C548 1.574 . S
C531 C550 1.368 . S
C531 H555 0.949 . S
H532 C536 0.949 . S
C533 C534 1.349 . S
C533 C535 1.327 . S
C533 H556 0.950 . S
C534 C533 1.349 . S
C534 C546 1.349 . S
C535 C533 1.327 . S
C535 C551 1.429 . S
C535 H557 0.950 . S
C536 H532 0.949 . S
C536 C544 1.574 . S
C536 C552 1.368 . S
H537 C545 0.950 . S
H538 C543 0.950 . S
H539 C544 0.949 . S
H540 C546 0.950 . S
H541 C547 0.950 . S
H542 C548 0.949 . S
C543 H538 0.950 . S
C543 C545 1.327 . S
C543 C549 1.429 . S
C544 C536 1.574 . S
C544 H539 0.949 . S
C544 C550 1.368 . S
C545 C529 1.349 . S
C545 H537 0.950 . S
C545 C543 1.327 . S
C546 C534 1.349 . S
C546 H540 0.950 . S
C546 C547 1.327 . S
C547 H541 0.950 . S
C547 C546 1.327 . S
C547 C551 1.429 . S
C548 C531 1.574 . S
C548 H542 0.949 . S
C548 C552 1.368 . S
C549 C530 1.429 . S
C549 C543 1.429 . S
C549 C550 1.523 . S
C550 C531 1.368 . S
C550 C544 1.368 . S
C550 C549 1.523 . S
C551 C535 1.429 . S
C551 C547 1.429 . S
C551 C552 1.523 . S
C552 C536 1.368 . S
C552 C548 1.368 . S
C552 C551 1.523 . S
H553 C528 0.950 1_554 S
H554 C530 0.950 . S
H555 C531 0.949 . S
H556 C533 0.950 . S
H557 C535 0.950 . S
C558 C559 1.349 . S
C558 C560 1.327 . S
C558 H583 0.950 . S
C559 C558 1.349 . S
C559 C575 1.349 . S
C560 C558 1.327 . S
C560 C579 1.429 . S
C560 H584 0.950 . S
C561 C578 1.574 . S
C561 C580 1.368 . S
C561 H585 0.949 . S
H562 C566 0.949 . S
C563 C564 1.349 . S
C563 C565 1.327 . S
C563 H586 0.950 . S
C564 C563 1.349 . S
C564 C576 1.349 . S
C565 C563 1.327 . S
C565 C581 1.429 . S
C565 H587 0.950 . S
C566 H562 0.949 . S
C566 C574 1.574 . S
C566 C582 1.368 . S
H567 C575 0.950 . S
H568 C573 0.950 . S
H569 C574 0.949 . S
H570 C576 0.950 . S
H571 C577 0.950 . S
H572 C578 0.949 . S
C573 H568 0.950 . S
C573 C575 1.327 . S
C573 C579 1.429 . S
C574 C566 1.574 . S
C574 H569 0.949 . S
C574 C580 1.368 . S
C575 C559 1.349 . S
C575 H567 0.950 . S
C575 C573 1.327 . S
C576 C564 1.349 . S
C576 H570 0.950 . S
C576 C577 1.327 . S
C577 H571 0.950 . S
C577 C576 1.327 . S
C577 C581 1.429 . S
C578 C561 1.574 . S
C578 H572 0.949 . S
C578 C582 1.368 . S
C579 C560 1.429 . S
C579 C573 1.429 . S
C579 C580 1.523 . S
C580 C561 1.368 . S
C580 C574 1.368 . S
C580 C579 1.523 . S
C581 C565 1.429 . S
C581 C577 1.429 . S
C581 C582 1.523 . S
C582 C566 1.368 . S
C582 C578 1.368 . S
C582 C581 1.523 . S
H583 C558 0.950 . S
H584 C560 0.950 . S
H585 C561 0.949 . S
H586 C563 0.950 . S
H587 C565 0.950 . S
C588 C589 1.349 . S
C588 C590 1.327 . S
C588 H613 0.950 . S
C589 C588 1.349 . S
C589 C605 1.349 . S
C590 C588 1.327 . S
C590 C609 1.429 . S
C590 H614 0.950 . S
C591 C608 1.574 . S
C591 C610 1.368 . S
C591 H615 0.949 . S
H592 C596 0.949 . S
C593 C594 1.349 . S
C593 C595 1.327 . S
C593 H616 0.950 . S
C594 C593 1.349 . S
C594 C606 1.349 . S
C595 C593 1.327 . S
C595 C611 1.429 . S
C595 H617 0.950 . S
C596 H592 0.949 . S
C596 C604 1.574 . S
C596 C612 1.368 . S
H597 C605 0.950 1_655 S
H598 C603 0.950 . S
H599 C604 0.949 . S
H600 C606 0.950 . S
H601 C607 0.950 . S
H602 C608 0.949 . S
C603 H598 0.950 . S
C603 C605 1.327 . S
C603 C609 1.429 . S
C604 C596 1.574 . S
C604 H599 0.949 . S
C604 C610 1.368 . S
C605 C589 1.349 . S
C605 H597 0.950 1_455 S
C605 C603 1.327 . S
C606 C594 1.349 . S
C606 H600 0.950 . S
C606 C607 1.327 . S
C607 H601 0.950 . S
C607 C606 1.327 . S
C607 C611 1.429 . S
C608 C591 1.574 . S
C608 H602 0.949 . S
C608 C612 1.368 . S
C609 C590 1.429 . S
C609 C603 1.429 . S
C609 C610 1.523 . S
C610 C591 1.368 . S
C610 C604 1.368 . S
C610 C609 1.523 . S
C611 C595 1.429 . S
C611 C607 1.429 . S
C611 C612 1.523 . S
C612 C596 1.368 . S
C612 C608 1.368 . S
C612 C611 1.523 . S
H613 C588 0.950 . S
H614 C590 0.950 . S
H615 C591 0.949 . S
H616 C593 0.950 . S
H617 C595 0.950 . S
C618 C619 1.349 . S
C618 C620 1.327 . S
C618 H643 0.950 1_655 S
C619 C618 1.349 . S
C619 C635 1.349 . S
C620 C618 1.327 . S
C620 C639 1.429 . S
C620 H644 0.950 . S
C621 C638 1.574 . S
C621 C640 1.368 . S
C621 H645 0.949 . S
H622 C626 0.949 . S
C623 C624 1.349 . S
C623 C625 1.327 . S
C623 H646 0.950 . S
C624 C623 1.349 . S
C624 C636 1.349 . S
C625 C623 1.327 . S
C625 C641 1.429 . S
C625 H647 0.950 . S
C626 H622 0.949 . S
C626 C634 1.574 . S
C626 C642 1.368 . S
H627 C635 0.950 . S
H628 C633 0.950 . S
H629 C634 0.949 . S
H630 C636 0.950 . S
H631 C637 0.950 . S
H632 C638 0.949 . S
C633 H628 0.950 . S
C633 C635 1.327 . S
C633 C639 1.429 . S
C634 C626 1.574 . S
C634 H629 0.949 . S
C634 C640 1.368 . S
C635 C619 1.349 . S
C635 H627 0.950 . S
C635 C633 1.327 . S
C636 C624 1.349 . S
C636 H630 0.950 . S
C636 C637 1.327 . S
C637 H631 0.950 . S
C637 C636 1.327 . S
C637 C641 1.429 . S
C638 C621 1.574 . S
C638 H632 0.949 . S
C638 C642 1.368 . S
C639 C620 1.429 . S
C639 C633 1.429 . S
C639 C640 1.523 . S
C640 C621 1.368 . S
C640 C634 1.368 . S
C640 C639 1.523 . S
C641 C625 1.429 . S
C641 C637 1.429 . S
C641 C642 1.523 . S
C642 C626 1.368 . S
C642 C638 1.368 . S
C642 C641 1.523 . S
H643 C618 0.950 1_455 S
H644 C620 0.950 . S
H645 C621 0.949 . S
H646 C623 0.950 . S
H647 C625 0.950 . S
C648 C649 1.349 . S
C648 C650 1.327 . S
C648 H673 0.950 . S
C649 C648 1.349 . S
C649 C665 1.349 . S
C650 C648 1.327 . S
C650 C669 1.429 . S
C650 H674 0.950 . S
C651 C668 1.574 . S
C651 C670 1.368 . S
C651 H675 0.949 . S
H652 C656 0.949 . S
C653 C654 1.349 . S
C653 C655 1.327 . S
C653 H676 0.950 . S
C654 C653 1.349 . S
C654 C666 1.349 . S
C655 C653 1.327 . S
C655 C671 1.429 . S
C655 H677 0.950 . S
C656 H652 0.949 . S
C656 C664 1.574 . S
C656 C672 1.368 . S
H657 C665 0.950 . S
H658 C663 0.950 . S
H659 C664 0.949 . S
H660 C666 0.950 . S
H661 C667 0.950 . S
H662 C668 0.949 . S
C663 H658 0.950 . S
C663 C665 1.327 . S
C663 C669 1.429 . S
C664 C656 1.574 . S
C664 H659 0.949 . S
C664 C670 1.368 . S
C665 C649 1.349 . S
C665 H657 0.950 . S
C665 C663 1.327 . S
C666 C654 1.349 . S
C666 H660 0.950 . S
C666 C667 1.327 . S
C667 H661 0.950 . S
C667 C666 1.327 . S
C667 C671 1.429 . S
C668 C651 1.574 . S
C668 H662 0.949 . S
C668 C672 1.368 . S
C669 C650 1.429 . S
C669 C663 1.429 . S
C669 C670 1.523 . S
C670 C651 1.368 . S
C670 C664 1.368 . S
C670 C669 1.523 . S
C671 C655 1.429 . S
C671 C667 1.429 . S
C671 C672 1.523 . S
C672 C656 1.368 . S
C672 C668 1.368 . S
C672 C671 1.523 . S
H673 C648 0.950 . S
H674 C650 0.950 . S
H675 C651 0.949 . S
H676 C653 0.950 . S
H677 C655 0.950 . S
C678 C679 1.349 . S
C678 C680 1.327 . S
C678 H703 0.950 . S
C679 C678 1.349 . S
C679 C695 1.349 . S
C680 C678 1.327 . S
C680 C699 1.429 . S
C680 H704 0.950 . S
C681 C698 1.574 . S
C681 C700 1.368 . S
C681 H705 0.949 . S
H682 C686 0.949 . S
C683 C684 1.349 . S
C683 C685 1.327 . S
C683 H706 0.950 . S
C684 C683 1.349 . S
C684 C696 1.349 . S
C685 C683 1.327 . S
C685 C701 1.429 . S
C685 H707 0.950 . S
C686 H682 0.949 . S
C686 C694 1.574 . S
C686 C702 1.368 . S
H687 C695 0.950 . S
H688 C693 0.950 . S
H689 C694 0.949 . S
H690 C696 0.950 . S
H691 C697 0.950 . S
H692 C698 0.949 . S
C693 H688 0.950 . S
C693 C695 1.327 . S
C693 C699 1.429 . S
C694 C686 1.574 . S
C694 H689 0.949 . S
C694 C700 1.368 . S
C695 C679 1.349 . S
C695 H687 0.950 . S
C695 C693 1.327 . S
C696 C684 1.349 . S
C696 H690 0.950 . S
C696 C697 1.327 . S
C697 H691 0.950 . S
C697 C696 1.327 . S
C697 C701 1.429 . S
C698 C681 1.574 . S
C698 H692 0.949 . S
C698 C702 1.368 . S
C699 C680 1.429 . S
C699 C693 1.429 . S
C699 C700 1.523 . S
C700 C681 1.368 . S
C700 C694 1.368 . S
C700 C699 1.523 . S
C701 C685 1.429 . S
C701 C697 1.429 . S
C701 C702 1.523 . S
C702 C686 1.368 . S
C702 C698 1.368 . S
C702 C701 1.523 . S
H703 C678 0.950 . S
H704 C680 0.950 . S
H705 C681 0.949 . S
H706 C683 0.950 . S
H707 C685 0.950 . S
C708 C709 1.349 . S
C708 C710 1.327 . S
C708 H733 0.950 1_455 S
C709 C708 1.349 . S
C709 C725 1.349 . S
C710 C708 1.327 . S
C710 C729 1.429 . S
C710 H734 0.950 . S
C711 C728 1.574 . S
C711 C730 1.368 . S
C711 H735 0.949 . S
H712 C716 0.949 . S
C713 C714 1.349 . S
C713 C715 1.327 . S
C713 H736 0.950 . S
C714 C713 1.349 . S
C714 C726 1.349 . S
C715 C713 1.327 . S
C715 C731 1.429 . S
C715 H737 0.950 . S
C716 H712 0.949 . S
C716 C724 1.574 . S
C716 C732 1.368 . S
H717 C725 0.950 . S
H718 C723 0.950 . S
H719 C724 0.949 . S
H720 C726 0.950 . S
H721 C727 0.950 . S
H722 C728 0.949 . S
C723 H718 0.950 . S
C723 C725 1.327 . S
C723 C729 1.429 . S
C724 C716 1.574 . S
C724 H719 0.949 . S
C724 C730 1.368 . S
C725 C709 1.349 . S
C725 H717 0.950 . S
C725 C723 1.327 . S
C726 C714 1.349 . S
C726 H720 0.950 . S
C726 C727 1.327 . S
C727 H721 0.950 . S
C727 C726 1.327 . S
C727 C731 1.429 . S
C728 C711 1.574 . S
C728 H722 0.949 . S
C728 C732 1.368 . S
C729 C710 1.429 . S
C729 C723 1.429 . S
C729 C730 1.523 . S
C730 C711 1.368 . S
C730 C724 1.368 . S
C730 C729 1.523 . S
C731 C715 1.429 . S
C731 C727 1.429 . S
C731 C732 1.523 . S
C732 C716 1.368 . S
C732 C728 1.368 . S
C732 C731 1.523 . S
H733 C708 0.950 1_655 S
H734 C710 0.950 . S
H735 C711 0.949 . S
H736 C713 0.950 . S
H737 C715 0.950 . S
C738 C739 1.349 . S
C738 C740 1.327 . S
C738 H763 0.950 . S
C739 C738 1.349 . S
C739 C755 1.349 . S
C740 C738 1.327 . S
C740 C759 1.429 . S
C740 H764 0.950 . S
C741 C758 1.574 . S
C741 C760 1.368 . S
C741 H765 0.949 . S
H742 C746 0.949 . S
C743 C744 1.349 . S
C743 C745 1.327 . S
C743 H766 0.950 . S
C744 C743 1.349 . S
C744 C756 1.359 . S
C745 C743 1.327 . S
C745 C761 1.429 . S
C745 H767 0.950 . S
C746 H742 0.949 . S
C746 C754 1.574 . S
C746 C762 1.368 . S
H747 C755 0.950 . S
H748 C753 0.950 . S
H749 C754 0.949 . S
H750 C756 0.922 1_455 S
H751 C757 0.950 . S
H752 C758 0.949 . S
C753 H748 0.950 . S
C753 C755 1.327 . S
C753 C759 1.429 . S
C754 C746 1.574 . S
C754 H749 0.949 . S
C754 C760 1.368 . S
C755 C739 1.349 . S
C755 H747 0.950 . S
C755 C753 1.327 . S
C756 C744 1.359 . S
C756 H750 0.922 1_655 S
C756 C757 1.344 . S
C757 H751 0.950 . S
C757 C756 1.344 . S
C757 C761 1.429 . S
C758 C741 1.574 . S
C758 H752 0.949 . S
C758 C762 1.368 . S
C759 C740 1.429 . S
C759 C753 1.429 . S
C759 C760 1.523 . S
C760 C741 1.368 . S
C760 C754 1.368 . S
C760 C759 1.523 . S
C761 C745 1.429 . S
C761 C757 1.429 . S
C761 C762 1.523 . S
C762 C746 1.368 . S
C762 C758 1.368 . S
C762 C761 1.523 . S
H763 C738 0.950 . S
H764 C740 0.950 . S
H765 C741 0.949 . S
H766 C743 0.950 . S
H767 C745 0.950 . S
C768 C769 1.349 . S
C768 C770 1.327 . S
C768 H793 0.950 . S
C769 C768 1.349 . S
C769 C785 1.349 . S
C770 C768 1.327 . S
C770 C789 1.429 . S
C770 H794 0.950 . S
C771 C788 1.574 . S
C771 C790 1.368 . S
C771 H795 0.949 . S
H772 C776 0.949 . S
C773 C774 1.349 . S
C773 C775 1.327 . S
C773 H796 0.950 . S
C774 C773 1.349 . S
C774 C786 1.349 . S
C775 C773 1.327 . S
C775 C791 1.429 . S
C775 H797 0.950 . S
C776 H772 0.949 . S
C776 C784 1.574 . S
C776 C792 1.368 . S
H777 C785 0.950 . S
H778 C783 0.950 . S
H779 C784 0.949 . S
H780 C786 0.950 . S
H781 C787 0.950 . S
H782 C788 0.949 . S
C783 H778 0.950 . S
C783 C785 1.327 . S
C783 C789 1.429 . S
C784 C776 1.574 . S
C784 H779 0.949 . S
C784 C790 1.368 . S
C785 C769 1.349 . S
C785 H777 0.950 . S
C785 C783 1.327 . S
C786 C774 1.349 . S
C786 H780 0.950 . S
C786 C787 1.327 . S
C787 H781 0.950 . S
C787 C786 1.327 . S
C787 C791 1.429 . S
C788 C771 1.574 . S
C788 H782 0.949 . S
C788 C792 1.368 . S
C789 C770 1.429 . S
C789 C783 1.429 . S
C789 C790 1.523 . S
C790 C771 1.368 . S
C790 C784 1.368 . S
C790 C789 1.523 . S
C791 C775 1.429 . S
C791 C787 1.429 . S
C791 C792 1.523 . S
C792 C776 1.368 . S
C792 C788 1.368 . S
C792 C791 1.523 . S
H793 C768 0.950 . S
H794 C770 0.950 . S
H795 C771 0.949 . S
H796 C773 0.950 . S
H797 C775 0.950 . S
C798 C799 1.349 . S
C798 C800 1.327 . S
C798 H823 0.950 . S
C799 C798 1.349 . S
C799 C815 1.349 . S
C800 C798 1.327 . S
C800 C819 1.429 . S
C800 H824 0.950 . S
C801 C818 1.574 . S
C801 C820 1.368 . S
C801 H825 0.949 . S
H802 C806 0.949 . S
C803 C804 1.349 . S
C803 C805 1.327 . S
C803 H826 0.950 . S
C804 C803 1.349 . S
C804 C816 1.349 . S
C805 C803 1.327 . S
C805 C821 1.429 . S
C805 H827 0.950 . S
C806 H802 0.949 . S
C806 C814 1.574 . S
C806 C822 1.368 . S
H807 C815 0.950 . S
H808 C813 0.950 . S
H809 C814 0.949 . S
H810 C816 0.950 . S
H811 C817 0.950 . S
H812 C818 0.949 . S
C813 H808 0.950 . S
C813 C815 1.327 . S
C813 C819 1.429 . S
C814 C806 1.574 . S
C814 H809 0.949 . S
C814 C820 1.368 . S
C815 C799 1.349 . S
C815 H807 0.950 . S
C815 C813 1.327 . S
C816 C804 1.349 . S
C816 H810 0.950 . S
C816 C817 1.327 . S
C817 H811 0.950 . S
C817 C816 1.327 . S
C817 C821 1.429 . S
C818 C801 1.574 . S
C818 H812 0.949 . S
C818 C822 1.368 . S
C819 C800 1.429 . S
C819 C813 1.429 . S
C819 C820 1.523 . S
C820 C801 1.368 . S
C820 C814 1.368 . S
C820 C819 1.523 . S
C821 C805 1.429 . S
C821 C817 1.429 . S
C821 C822 1.523 . S
C822 C806 1.368 . S
C822 C818 1.368 . S
C822 C821 1.523 . S
H823 C798 0.950 . S
H824 C800 0.950 . S
H825 C801 0.949 . S
H826 C803 0.950 . S
H827 C805 0.950 . S
C828 C829 1.349 . S
C828 C830 1.327 . S
C828 H853 0.950 . S
C829 C828 1.349 . S
C829 C845 1.349 . S
C830 C828 1.327 . S
C830 C849 1.429 . S
C830 H854 0.950 . S
C831 C848 1.574 . S
C831 C850 1.368 . S
C831 H855 0.949 . S
H832 C836 0.949 . S
C833 C834 1.349 . S
C833 C835 1.327 . S
C833 H856 0.950 . S
C834 C833 1.349 . S
C834 C846 1.349 . S
C835 C833 1.327 . S
C835 C851 1.429 . S
C835 H857 0.950 . S
C836 H832 0.949 . S
C836 C844 1.574 . S
C836 C852 1.368 . S
H837 C845 0.950 . S
H838 C843 0.950 . S
H839 C844 0.949 . S
H840 C846 0.950 . S
H841 C847 0.950 . S
H842 C848 0.949 . S
C843 H838 0.950 . S
C843 C845 1.327 . S
C843 C849 1.429 . S
C844 C836 1.574 . S
C844 H839 0.949 . S
C844 C850 1.368 . S
C845 C829 1.349 . S
C845 H837 0.950 . S
C845 C843 1.327 . S
C846 C834 1.349 . S
C846 H840 0.950 . S
C846 C847 1.327 . S
C847 H841 0.950 . S
C847 C846 1.327 . S
C847 C851 1.429 . S
C848 C831 1.574 . S
C848 H842 0.949 . S
C848 C852 1.368 . S
C849 C830 1.429 . S
C849 C843 1.429 . S
C849 C850 1.523 . S
C850 C831 1.368 . S
C850 C844 1.368 . S
C850 C849 1.523 . S
C851 C835 1.429 . S
C851 C847 1.429 . S
C851 C852 1.523 . S
C852 C836 1.368 . S
C852 C848 1.368 . S
C852 C851 1.523 . S
H853 C828 0.950 . S
H854 C830 0.950 . S
H855 C831 0.949 . S
H856 C833 0.950 . S
H857 C835 0.950 . S
C858 C859 1.349 . S
C858 C860 1.327 . S
C858 H883 0.950 . S
C859 C858 1.349 . S
C859 C875 1.349 . S
C860 C858 1.327 . S
C860 C879 1.429 . S
C860 H884 0.950 . S
C861 C878 1.574 . S
C861 C880 1.368 . S
C861 H885 0.949 . S
H862 C866 0.949 . S
C863 C864 1.349 . S
C863 C865 1.327 . S
C863 H886 0.950 . S
C864 C863 1.349 . S
C864 C876 1.349 . S
C865 C863 1.327 . S
C865 C881 1.429 . S
C865 H887 0.950 . S
C866 H862 0.949 . S
C866 C874 1.574 . S
C866 C882 1.368 . S
H867 C875 0.950 . S
H868 C873 0.950 . S
H869 C874 0.949 . S
H870 C876 0.950 . S
H871 C877 0.950 . S
H872 C878 0.949 . S
C873 H868 0.950 . S
C873 C875 1.327 . S
C873 C879 1.429 . S
C874 C866 1.574 . S
C874 H869 0.949 . S
C874 C880 1.368 . S
C875 C859 1.349 . S
C875 H867 0.950 . S
C875 C873 1.327 . S
C876 C864 1.349 . S
C876 H870 0.950 . S
C876 C877 1.327 . S
C877 H871 0.950 . S
C877 C876 1.327 . S
C877 C881 1.429 . S
C878 C861 1.574 . S
C878 H872 0.949 . S
C878 C882 1.368 . S
C879 C860 1.429 . S
C879 C873 1.429 . S
C879 C880 1.523 . S
C880 C861 1.368 . S
C880 C874 1.368 . S
C880 C879 1.523 . S
C881 C865 1.429 . S
C881 C877 1.429 . S
C881 C882 1.523 . S
C882 C866 1.368 . S
C882 C878 1.368 . S
C882 C881 1.523 . S
H883 C858 0.950 . S
H884 C860 0.950 . S
H885 C861 0.949 . S
H886 C863 0.950 . S
H887 C865 0.950 . S
C888 C889 1.349 . S
C888 C890 1.327 . S
C888 H913 0.950 . S
C889 C888 1.349 . S
C889 C905 1.349 . S
C890 C888 1.327 . S
C890 C909 1.429 . S
C890 H914 0.950 . S
C891 C908 1.574 . S
C891 C910 1.368 . S
C891 H915 0.949 . S
H892 C896 0.949 . S
C893 C894 1.349 . S
C893 C895 1.327 . S
C893 H916 0.950 . S
C894 C893 1.349 . S
C894 C906 1.349 . S
C895 C893 1.327 . S
C895 C911 1.429 . S
C895 H917 0.950 . S
C896 H892 0.949 . S
C896 C904 1.574 . S
C896 C912 1.368 . S
H897 C905 0.950 1_554 S
H898 C903 0.950 . S
H899 C904 0.949 . S
H900 C906 0.950 . S
H901 C907 0.950 . S
H902 C908 0.949 . S
C903 H898 0.950 . S
C903 C905 1.327 . S
C903 C909 1.429 . S
C904 C896 1.574 . S
C904 H899 0.949 . S
C904 C910 1.368 . S
C905 C889 1.349 . S
C905 H897 0.950 1_556 S
C905 C903 1.327 . S
C906 C894 1.349 . S
C906 H900 0.950 . S
C906 C907 1.327 . S
C907 H901 0.950 . S
C907 C906 1.327 . S
C907 C911 1.429 . S
C908 C891 1.574 . S
C908 H902 0.949 . S
C908 C912 1.368 . S
C909 C890 1.429 . S
C909 C903 1.429 . S
C909 C910 1.523 . S
C910 C891 1.368 . S
C910 C904 1.368 . S
C910 C909 1.523 . S
C911 C895 1.429 . S
C911 C907 1.429 . S
C911 C912 1.523 . S
C912 C896 1.368 . S
C912 C908 1.368 . S
C912 C911 1.523 . S
H913 C888 0.950 . S
H914 C890 0.950 . S
H915 C891 0.949 . S
H916 C893 0.950 . S
H917 C895 0.950 . S
C918 C919 1.349 . S
C918 C920 1.327 . S
C918 H943 0.950 1_556 S
C919 C918 1.349 . S
C919 C935 1.349 . S
C920 C918 1.327 . S
C920 C939 1.429 . S
C920 H944 0.950 . S
C921 C938 1.574 . S
C921 C940 1.368 . S
C921 H945 0.949 . S
H922 C926 0.949 . S
C923 C924 1.349 . S
C923 C925 1.327 . S
C923 H946 0.950 . S
C924 C923 1.349 . S
C924 C936 1.349 . S
C925 C923 1.327 . S
C925 C941 1.429 . S
C925 H947 0.950 . S
C926 H922 0.949 . S
C926 C934 1.574 . S
C926 C942 1.368 . S
H927 C935 0.950 . S
H928 C933 0.950 . S
H929 C934 0.949 . S
H930 C936 0.950 . S
H931 C937 0.950 . S
H932 C938 0.949 . S
C933 H928 0.950 . S
C933 C935 1.327 . S
C933 C939 1.429 . S
C934 C926 1.574 . S
C934 H929 0.949 . S
C934 C940 1.368 . S
C935 C919 1.349 . S
C935 H927 0.950 . S
C935 C933 1.327 . S
C936 C924 1.349 . S
C936 H930 0.950 . S
C936 C937 1.327 . S
C937 H931 0.950 . S
C937 C936 1.327 . S
C937 C941 1.429 . S
C938 C921 1.574 . S
C938 H932 0.949 . S
C938 C942 1.368 . S
C939 C920 1.429 . S
C939 C933 1.429 . S
C939 C940 1.523 . S
C940 C921 1.368 . S
C940 C934 1.368 . S
C940 C939 1.523 . S
C941 C925 1.429 . S
C941 C937 1.429 . S
C941 C942 1.523 . S
C942 C926 1.368 . S
C942 C938 1.368 . S
C942 C941 1.523 . S
H943 C918 0.950 1_554 S
H944 C920 0.950 . S
H945 C921 0.949 . S
H946 C923 0.950 . S
H947 C925 0.950 . S
C948 C949 1.349 . S
C948 C950 1.327 . S
C948 H973 0.950 . S
C949 C948 1.349 . S
C949 C965 1.349 . S
C950 C948 1.327 . S
C950 C969 1.429 . S
C950 H974 0.950 . S
C951 C968 1.574 . S
C951 C970 1.368 . S
C951 H975 0.949 . S
H952 C956 0.949 . S
C953 C954 1.349 . S
C953 C955 1.327 . S
C953 H976 0.950 . S
C954 C953 1.349 . S
C954 C966 1.349 . S
C955 C953 1.327 . S
C955 C971 1.429 . S
C955 H977 0.950 . S
C956 H952 0.949 . S
C956 C964 1.574 . S
C956 C972 1.368 . S
H957 C965 0.950 . S
H958 C963 0.950 . S
H959 C964 0.949 . S
H960 C966 0.950 . S
H961 C967 0.950 . S
H962 C968 0.949 . S
C963 H958 0.950 . S
C963 C965 1.327 . S
C963 C969 1.429 . S
C964 C956 1.574 . S
C964 H959 0.949 . S
C964 C970 1.368 . S
C965 C949 1.349 . S
C965 H957 0.950 . S
C965 C963 1.327 . S
C966 C954 1.349 . S
C966 H960 0.950 . S
C966 C967 1.327 . S
C967 H961 0.950 . S
C967 C966 1.327 . S
C967 C971 1.429 . S
C968 C951 1.574 . S
C968 H962 0.949 . S
C968 C972 1.368 . S
C969 C950 1.429 . S
C969 C963 1.429 . S
C969 C970 1.523 . S
C970 C951 1.368 . S
C970 C964 1.368 . S
C970 C969 1.523 . S
C971 C955 1.429 . S
C971 C967 1.429 . S
C971 C972 1.523 . S
C972 C956 1.368 . S
C972 C968 1.368 . S
C972 C971 1.523 . S
H973 C948 0.950 . S
H974 C950 0.950 . S
H975 C951 0.949 . S
H976 C953 0.950 . S
H977 C955 0.950 . S
C978 C979 1.349 . S
C978 C980 1.327 . S
C978 H1003 0.950 . S
C979 C978 1.349 . S
C979 C995 1.349 . S
C980 C978 1.327 . S
C980 C999 1.429 . S
C980 H1004 0.950 . S
C981 C998 1.574 . S
C981 C1000 1.368 . S
C981 H1005 0.949 . S
H982 C986 0.949 . S
C983 C984 1.349 . S
C983 C985 1.327 . S
C983 H1006 0.950 . S
C984 C983 1.349 . S
C984 C996 1.349 . S
C985 C983 1.327 . S
C985 C1001 1.429 . S
C985 H1007 0.950 . S
C986 H982 0.949 . S
C986 C994 1.574 . S
C986 C1002 1.368 . S
H987 C995 0.950 . S
H988 C993 0.950 . S
H989 C994 0.949 . S
H990 C996 0.950 . S
H991 C997 0.950 . S
H992 C998 0.949 . S
C993 H988 0.950 . S
C993 C995 1.327 . S
C993 C999 1.429 . S
C994 C986 1.574 . S
C994 H989 0.949 . S
C994 C1000 1.368 . S
C995 C979 1.349 . S
C995 H987 0.950 . S
C995 C993 1.327 . S
C996 C984 1.349 . S
C996 H990 0.950 . S
C996 C997 1.327 . S
C997 H991 0.950 . S
C997 C996 1.327 . S
C997 C1001 1.429 . S
C998 C981 1.574 . S
C998 H992 0.949 . S
C998 C1002 1.368 . S
C999 C980 1.429 . S
C999 C993 1.429 . S
C999 C1000 1.523 . S
C1000 C981 1.368 . S
C1000 C994 1.368 . S
C1000 C999 1.523 . S
C1001 C985 1.429 . S
C1001 C997 1.429 . S
C1001 C1002 1.523 . S
C1002 C986 1.368 . S
C1002 C998 1.368 . S
C1002 C1001 1.523 . S
H1003 C978 0.950 . S
H1004 C980 0.950 . S
H1005 C981 0.949 . S
H1006 C983 0.950 . S
H1007 C985 0.950 . S
C1008 C1009 1.349 . S
C1008 C1010 1.327 . S
C1008 H1033 0.950 . S
C1009 C1008 1.349 . S
C1009 C1025 1.349 . S
C1010 C1008 1.327 . S
C1010 C1029 1.429 . S
C1010 H1034 0.950 1_655 S
C1011 C1028 1.574 1_655 S
C1011 C1030 1.368 1_655 S
C1011 H1035 0.949 . S
H1012 C1016 0.949 . S
C1013 C1014 1.349 . S
C1013 C1015 1.327 . S
C1013 H1036 0.950 . S
C1014 C1013 1.349 . S
C1014 C1026 1.349 . S
C1015 C1013 1.327 . S
C1015 C1031 1.429 . S
C1015 H1037 0.950 . S
C1016 H1012 0.949 . S
C1016 C1024 1.574 . S
C1016 C1032 1.368 . S
H1017 C1025 0.950 . S
H1018 C1023 0.950 . S
H1019 C1024 0.949 . S
H1020 C1026 0.950 . S
H1021 C1027 0.950 . S
H1022 C1028 0.949 . S
C1023 H1018 0.950 . S
C1023 C1025 1.327 . S
C1023 C1029 1.429 . S
C1024 C1016 1.574 . S
C1024 H1019 0.949 . S
C1024 C1030 1.368 . S
C1025 C1009 1.349 . S
C1025 H1017 0.950 . S
C1025 C1023 1.327 . S
C1026 C1014 1.349 . S
C1026 H1020 0.950 . S
C1026 C1027 1.327 . S
C1027 H1021 0.950 . S
C1027 C1026 1.327 . S
C1027 C1031 1.429 . S
C1028 C1011 1.574 1_455 S
C1028 H1022 0.949 . S
C1028 C1032 1.368 . S
C1029 C1010 1.429 . S
C1029 C1023 1.429 . S
C1029 C1030 1.523 1_655 S
C1030 C1011 1.368 1_455 S
C1030 C1024 1.368 . S
C1030 C1029 1.523 1_455 S
C1031 C1015 1.429 . S
C1031 C1027 1.429 . S
C1031 C1032 1.523 . S
C1032 C1016 1.368 . S
C1032 C1028 1.368 . S
C1032 C1031 1.523 . S
H1033 C1008 0.950 . S
H1034 C1010 0.950 1_455 S
H1035 C1011 0.949 . S
H1036 C1013 0.950 . S
H1037 C1015 0.950 . S
C1038 C1039 1.349 . S
C1038 C1040 1.327 . S
C1038 H1063 0.950 . S
C1039 C1038 1.349 . S
C1039 C1055 1.349 . S
C1040 C1038 1.327 . S
C1040 C1059 1.429 . S
C1040 H1064 0.950 . S
C1041 C1058 1.574 . S
C1041 C1060 1.368 . S
C1041 H1065 0.949 . S
H1042 C1046 0.949 . S
C1043 C1044 1.349 . S
C1043 C1045 1.327 . S
C1043 H1066 0.950 . S
C1044 C1043 1.349 . S
C1044 C1056 1.349 . S
C1045 C1043 1.327 . S
C1045 C1061 1.429 . S
C1045 H1067 0.950 . S
C1046 H1042 0.949 . S
C1046 C1054 1.574 . S
C1046 C1062 1.368 1_455 S
H1047 C1055 0.950 1_655 S
H1048 C1053 0.950 . S
H1049 C1054 0.949 . S
H1050 C1056 0.950 . S
H1051 C1057 0.986 . S
H1052 C1058 0.949 . S
C1053 H1048 0.950 . S
C1053 C1055 1.327 1_655 S
C1053 C1059 1.429 1_655 S
C1054 C1046 1.574 . S
C1054 H1049 0.949 . S
C1054 C1060 1.368 1_455 S
C1055 C1039 1.349 . S
C1055 H1047 0.950 1_455 S
C1055 C1053 1.327 1_455 S
C1056 C1044 1.349 . S
C1056 H1050 0.950 . S
C1056 C1057 1.327 . S
C1057 H1051 0.986 . S
C1057 C1056 1.327 . S
C1057 C1061 1.429 . S
C1058 C1041 1.574 . S
C1058 H1052 0.949 . S
C1058 C1062 1.368 . S
C1059 C1040 1.429 . S
C1059 C1053 1.429 1_455 S
C1059 C1060 1.523 1_455 S
C1060 C1041 1.368 . S
C1060 C1054 1.368 1_655 S
C1060 C1059 1.523 1_655 S
C1061 C1045 1.429 . S
C1061 C1057 1.429 . S
C1061 C1062 1.523 . S
C1062 C1046 1.368 1_655 S
C1062 C1058 1.368 . S
C1062 C1061 1.523 . S
H1063 C1038 0.950 . S
H1064 C1040 0.950 . S
H1065 C1041 0.949 . S
H1066 C1043 0.950 . S
H1067 C1045 0.950 . S
C1068 C1069 1.349 . S
C1068 C1070 1.327 . S
C1068 H1093 0.950 . S
C1069 C1068 1.349 . S
C1069 C1085 1.349 . S
C1070 C1068 1.327 . S
C1070 C1089 1.429 . S
C1070 H1094 0.950 . S
C1071 C1088 1.574 . S
C1071 C1090 1.368 . S
C1071 H1095 0.949 . S
H1072 C1076 0.949 . S
C1073 C1074 1.349 . S
C1073 C1075 1.327 . S
C1073 H1096 0.950 . S
C1074 C1073 1.349 . S
C1074 C1086 1.349 . S
C1075 C1073 1.327 . S
C1075 C1091 1.429 . S
C1075 H1097 0.950 . S
C1076 H1072 0.949 . S
C1076 C1084 1.574 . S
C1076 C1092 1.368 . S
H1077 C1085 0.950 . S
H1078 C1083 0.950 . S
H1079 C1084 0.949 . S
H1080 C1086 0.950 . S
H1081 C1087 0.950 . S
H1082 C1088 0.949 . S
C1083 H1078 0.950 . S
C1083 C1085 1.327 . S
C1083 C1089 1.429 . S
C1084 C1076 1.574 . S
C1084 H1079 0.949 . S
C1084 C1090 1.368 . S
C1085 C1069 1.349 . S
C1085 H1077 0.950 . S
C1085 C1083 1.327 . S
C1086 C1074 1.349 . S
C1086 H1080 0.950 . S
C1086 C1087 1.327 . S
C1087 H1081 0.950 . S
C1087 C1086 1.327 . S
C1087 C1091 1.429 . S
C1088 C1071 1.574 . S
C1088 H1082 0.949 . S
C1088 C1092 1.368 . S
C1089 C1070 1.429 . S
C1089 C1083 1.429 . S
C1089 C1090 1.523 . S
C1090 C1071 1.368 . S
C1090 C1084 1.368 . S
C1090 C1089 1.523 . S
C1091 C1075 1.429 . S
C1091 C1087 1.429 . S
C1091 C1092 1.523 . S
C1092 C1076 1.368 . S
C1092 C1088 1.368 . S
C1092 C1091 1.523 . S
H1093 C1068 0.950 . S
H1094 C1070 0.950 . S
H1095 C1071 0.949 . S
H1096 C1073 0.950 . S
H1097 C1075 0.950 . S
C1098 C1099 1.349 . S
C1098 C1100 1.327 . S
C1098 H1123 0.950 . S
C1099 C1098 1.349 . S
C1099 C1115 1.349 . S
C1100 C1098 1.327 . S
C1100 C1119 1.429 . S
C1100 H1124 0.950 . S
C1101 C1118 1.574 . S
C1101 C1120 1.368 . S
C1101 H1125 0.949 . S
H1102 C1106 0.949 . S
C1103 C1104 1.349 . S
C1103 C1105 1.327 . S
C1103 H1126 0.950 . S
C1104 C1103 1.349 . S
C1104 C1116 1.349 . S
C1105 C1103 1.327 . S
C1105 C1121 1.429 . S
C1105 H1127 0.950 . S
C1106 H1102 0.949 . S
C1106 C1114 1.574 . S
C1106 C1122 1.368 . S
H1107 C1115 0.950 . S
H1108 C1113 0.950 . S
H1109 C1114 0.949 . S
H1110 C1116 0.950 . S
H1111 C1117 0.950 . S
H1112 C1118 0.949 . S
C1113 H1108 0.950 . S
C1113 C1115 1.327 . S
C1113 C1119 1.429 . S
C1114 C1106 1.574 . S
C1114 H1109 0.949 . S
C1114 C1120 1.368 . S
C1115 C1099 1.349 . S
C1115 H1107 0.950 . S
C1115 C1113 1.327 . S
C1116 C1104 1.349 . S
C1116 H1110 0.950 . S
C1116 C1117 1.327 . S
C1117 H1111 0.950 . S
C1117 C1116 1.327 . S
C1117 C1121 1.429 . S
C1118 C1101 1.574 . S
C1118 H1112 0.949 . S
C1118 C1122 1.368 . S
C1119 C1100 1.429 . S
C1119 C1113 1.429 . S
C1119 C1120 1.523 . S
C1120 C1101 1.368 . S
C1120 C1114 1.368 . S
C1120 C1119 1.523 . S
C1121 C1105 1.429 . S
C1121 C1117 1.429 . S
C1121 C1122 1.523 . S
C1122 C1106 1.368 . S
C1122 C1118 1.368 . S
C1122 C1121 1.523 . S
H1123 C1098 0.950 . S
H1124 C1100 0.950 . S
H1125 C1101 0.949 . S
H1126 C1103 0.950 . S
H1127 C1105 0.950 . S
C1128 C1129 1.349 . S
C1128 C1130 1.327 . S
C1128 H1153 0.950 . S
C1129 C1128 1.349 . S
C1129 C1145 1.349 . S
C1130 C1128 1.327 . S
C1130 C1149 1.429 . S
C1130 H1154 0.950 1_655 S
C1131 C1148 1.574 1_655 S
C1131 C1150 1.368 1_655 S
C1131 H1155 0.949 . S
H1132 C1136 0.949 . S
C1133 C1134 1.349 . S
C1133 C1135 1.327 . S
C1133 H1156 0.950 . S
C1134 C1133 1.349 . S
C1134 C1146 1.349 . S
C1135 C1133 1.327 . S
C1135 C1151 1.429 . S
C1135 H1157 0.950 . S
C1136 H1132 0.949 . S
C1136 C1144 1.574 . S
C1136 C1152 1.368 . S
H1137 C1145 0.950 . S
H1138 C1143 0.950 . S
H1139 C1144 0.949 . S
H1140 C1146 0.950 . S
H1141 C1147 0.950 . S
H1142 C1148 0.949 . S
C1143 H1138 0.950 . S
C1143 C1145 1.327 . S
C1143 C1149 1.429 . S
C1144 C1136 1.574 . S
C1144 H1139 0.949 . S
C1144 C1150 1.368 . S
C1145 C1129 1.349 . S
C1145 H1137 0.950 . S
C1145 C1143 1.327 . S
C1146 C1134 1.349 . S
C1146 H1140 0.950 . S
C1146 C1147 1.327 . S
C1147 H1141 0.950 . S
C1147 C1146 1.327 . S
C1147 C1151 1.429 . S
C1148 C1131 1.574 1_455 S
C1148 H1142 0.949 . S
C1148 C1152 1.368 . S
C1149 C1130 1.429 . S
C1149 C1143 1.429 . S
C1149 C1150 1.523 1_655 S
C1150 C1131 1.368 1_455 S
C1150 C1144 1.368 . S
C1150 C1149 1.523 1_455 S
C1151 C1135 1.429 . S
C1151 C1147 1.429 . S
C1151 C1152 1.523 . S
C1152 C1136 1.368 . S
C1152 C1148 1.368 . S
C1152 C1151 1.523 . S
H1153 C1128 0.950 . S
H1154 C1130 0.950 1_455 S
H1155 C1131 0.949 . S
H1156 C1133 0.950 . S
H1157 C1135 0.950 . S
C1158 C1159 1.349 . S
C1158 C1160 1.327 . S
C1158 H1183 0.950 . S
C1159 C1158 1.349 . S
C1159 C1175 1.349 . S
C1160 C1158 1.327 . S
C1160 C1179 1.429 . S
C1160 H1184 0.950 . S
C1161 C1178 1.574 . S
C1161 C1180 1.368 . S
C1161 H1185 0.949 . S
H1162 C1166 0.956 . S
C1163 C1164 1.349 . S
C1163 C1165 1.327 . S
C1163 H1186 0.950 . S
C1164 C1163 1.349 . S
C1164 C1176 1.349 . S
C1165 C1163 1.327 . S
C1165 C1181 1.429 . S
C1165 H1187 0.950 . S
C1166 H1162 0.956 . S
C1166 C1174 1.574 1_655 S
C1166 C1182 1.368 . S
H1167 C1175 0.950 . S
H1168 C1173 0.950 1_655 S
H1169 C1174 0.949 . S
H1170 C1176 0.950 . S
H1171 C1177 0.950 . S
H1172 C1178 0.949 . S
C1173 H1168 0.950 1_455 S
C1173 C1175 1.327 . S
C1173 C1179 1.429 . S
C1174 C1166 1.574 1_455 S
C1174 H1169 0.949 . S
C1174 C1180 1.368 1_455 S
C1175 C1159 1.349 . S
C1175 H1167 0.950 . S
C1175 C1173 1.327 . S
C1176 C1164 1.349 . S
C1176 H1170 0.950 . S
C1176 C1177 1.327 . S
C1177 H1171 0.950 . S
C1177 C1176 1.327 . S
C1177 C1181 1.429 . S
C1178 C1161 1.574 . S
C1178 H1172 0.949 . S
C1178 C1182 1.368 . S
C1179 C1160 1.429 . S
C1179 C1173 1.429 . S
C1179 C1180 1.523 1_455 S
C1180 C1161 1.368 . S
C1180 C1174 1.368 1_655 S
C1180 C1179 1.523 1_655 S
C1181 C1165 1.429 . S
C1181 C1177 1.429 . S
C1181 C1182 1.523 . S
C1182 C1166 1.368 . S
C1182 C1178 1.368 . S
C1182 C1181 1.523 . S
H1183 C1158 0.950 . S
H1184 C1160 0.950 . S
H1185 C1161 0.949 . S
H1186 C1163 0.950 . S
H1187 C1165 0.950 . S
C1188 C1189 1.349 . S
C1188 C1190 1.327 . S
C1188 H1213 0.950 . S
C1189 C1188 1.349 . S
C1189 C1205 1.349 . S
C1190 C1188 1.327 . S
C1190 C1209 1.429 . S
C1190 H1214 0.950 . S
C1191 C1208 1.592 . S
C1191 C1210 1.333 1_565 S
C1191 H1215 0.965 . S
H1192 C1196 0.949 . S
C1193 C1194 1.349 . S
C1193 C1195 1.327 . S
C1193 H1216 0.950 . S
C1194 C1193 1.349 . S
C1194 C1206 1.349 . S
C1195 C1193 1.327 . S
C1195 C1211 1.429 . S
C1195 H1217 0.950 . S
C1196 H1192 0.949 . S
C1196 C1204 1.574 1_554 S
C1196 C1212 1.336 1_545 S
H1197 C1205 0.950 . S
H1198 C1203 0.950 . S
H1199 C1204 0.949 . S
H1200 C1206 0.950 . S
H1201 C1207 0.950 1_545 S
H1202 C1208 0.949 . S
C1203 H1198 0.950 . S
C1203 C1205 1.327 . S
C1203 C1209 1.429 . S
C1204 C1196 1.574 1_556 S
C1204 H1199 0.949 . S
C1204 C1210 1.368 . S
C1205 C1189 1.349 . S
C1205 H1197 0.950 . S
C1205 C1203 1.327 . S
C1206 C1194 1.349 . S
C1206 H1200 0.950 . S
C1206 C1207 1.327 . S
C1207 H1201 0.950 1_565 S
C1207 C1206 1.327 . S
C1207 C1211 1.429 . S
C1208 C1191 1.592 . S
C1208 H1202 0.949 . S
C1208 C1212 1.388 1_556 S
C1209 C1190 1.429 . S
C1209 C1203 1.429 . S
C1209 C1210 1.523 . S
C1210 C1191 1.333 1_545 S
C1210 C1204 1.368 . S
C1210 C1209 1.523 . S
C1211 C1195 1.429 . S
C1211 C1207 1.429 . S
C1211 C1212 1.540 . S
C1212 C1196 1.336 1_565 S
C1212 C1208 1.388 1_554 S
C1212 C1211 1.540 . S
H1213 C1188 0.950 . S
H1214 C1190 0.950 . S
H1215 C1191 0.965 . S
H1216 C1193 0.950 . S
H1217 C1195 0.950 . S
C1218 C1219 1.349 . S
C1218 C1220 1.327 . S
C1218 H1243 0.950 . S
C1219 C1218 1.349 . S
C1219 C1235 1.349 . S
C1220 C1218 1.327 . S
C1220 C1239 1.429 . S
C1220 H1244 0.950 . S
C1221 C1238 1.574 1_565 S
C1221 C1240 1.368 . S
C1221 H1245 0.933 1_565 S
H1222 C1226 0.949 . S
C1223 C1224 1.349 . S
C1223 C1225 1.327 . S
C1223 H1246 0.950 . S
C1224 C1223 1.349 . S
C1224 C1236 1.349 . S
C1225 C1223 1.327 . S
C1225 C1241 1.429 . S
C1225 H1247 0.950 . S
C1226 H1222 0.949 . S
C1226 C1234 1.574 1_554 S
C1226 C1242 1.341 1_565 S
H1227 C1235 0.950 . S
H1228 C1233 0.950 . S
H1229 C1234 0.949 1_554 S
H1230 C1236 0.950 . S
H1231 C1237 0.950 1_565 S
H1232 C1238 0.949 . S
C1233 H1228 0.950 . S
C1233 C1235 1.327 . S
C1233 C1239 1.429 . S
C1234 C1226 1.574 1_556 S
C1234 H1229 0.949 1_556 S
C1234 C1240 1.368 . S
C1235 C1219 1.349 . S
C1235 H1227 0.950 . S
C1235 C1233 1.327 . S
C1236 C1224 1.349 . S
C1236 H1230 0.950 . S
C1236 C1237 1.327 . S
C1237 H1231 0.950 1_545 S
C1237 C1236 1.327 . S
C1237 C1241 1.429 . S
C1238 C1221 1.574 1_545 S
C1238 H1232 0.949 . S
C1238 C1242 1.383 1_556 S
C1239 C1220 1.429 . S
C1239 C1233 1.429 . S
C1239 C1240 1.523 . S
C1240 C1221 1.368 . S
C1240 C1234 1.368 . S
C1240 C1239 1.523 . S
C1241 C1225 1.429 . S
C1241 C1237 1.429 . S
C1241 C1242 1.540 . S
C1242 C1226 1.341 1_545 S
C1242 C1238 1.383 1_554 S
C1242 C1241 1.540 . S
H1243 C1218 0.950 . S
H1244 C1220 0.950 . S
H1245 C1221 0.933 1_545 S
H1246 C1223 0.950 . S
H1247 C1225 0.950 . S
C1248 C1249 1.349 . S
C1248 C1250 1.327 . S
C1248 H1273 0.950 . S
C1249 C1248 1.349 . S
C1249 C1265 1.349 . S
C1250 C1248 1.327 . S
C1250 C1269 1.429 . S
C1250 H1274 0.950 . S
C1251 C1268 1.574 . S
C1251 C1270 1.368 . S
C1251 H1275 0.949 . S
H1252 C1256 0.949 . S
C1253 C1254 1.349 . S
C1253 C1255 1.327 . S
C1253 H1276 0.950 . S
C1254 C1253 1.349 . S
C1254 C1266 1.349 . S
C1255 C1253 1.327 . S
C1255 C1271 1.429 . S
C1255 H1277 0.950 . S
C1256 H1252 0.949 . S
C1256 C1264 1.574 . S
C1256 C1272 1.368 . S
H1257 C1265 0.950 . S
H1258 C1263 0.950 . S
H1259 C1264 0.949 . S
H1260 C1266 0.950 . S
H1261 C1267 0.950 . S
H1262 C1268 0.949 . S
C1263 H1258 0.950 . S
C1263 C1265 1.327 . S
C1263 C1269 1.429 . S
C1264 C1256 1.574 . S
C1264 H1259 0.949 . S
C1264 C1270 1.368 . S
C1265 C1249 1.349 . S
C1265 H1257 0.950 . S
C1265 C1263 1.327 . S
C1266 C1254 1.349 . S
C1266 H1260 0.950 . S
C1266 C1267 1.327 . S
C1267 H1261 0.950 . S
C1267 C1266 1.327 . S
C1267 C1271 1.429 . S
C1268 C1251 1.574 . S
C1268 H1262 0.949 . S
C1268 C1272 1.368 . S
C1269 C1250 1.429 . S
C1269 C1263 1.429 . S
C1269 C1270 1.523 . S
C1270 C1251 1.368 . S
C1270 C1264 1.368 . S
C1270 C1269 1.523 . S
C1271 C1255 1.429 . S
C1271 C1267 1.429 . S
C1271 C1272 1.523 . S
C1272 C1256 1.368 . S
C1272 C1268 1.368 . S
C1272 C1271 1.523 . S
H1273 C1248 0.950 . S
H1274 C1250 0.950 . S
H1275 C1251 0.949 . S
H1276 C1253 0.950 . S
H1277 C1255 0.950 . S
C1278 C1279 1.349 . S
C1278 C1280 1.327 . S
C1278 H1303 0.950 . S
C1279 C1278 1.349 . S
C1279 C1295 1.349 . S
C1280 C1278 1.327 . S
C1280 C1299 1.429 . S
C1280 H1304 0.950 . S
C1281 C1298 1.574 . S
C1281 C1300 1.368 . S
C1281 H1305 0.949 . S
H1282 C1286 0.949 . S
C1283 C1284 1.349 . S
C1283 C1285 1.327 . S
C1283 H1306 0.950 . S
C1284 C1283 1.349 . S
C1284 C1296 1.349 . S
C1285 C1283 1.327 . S
C1285 C1301 1.429 . S
C1285 H1307 0.950 . S
C1286 H1282 0.949 . S
C1286 C1294 1.574 . S
C1286 C1302 1.368 . S
H1287 C1295 0.950 . S
H1288 C1293 0.950 . S
H1289 C1294 0.949 . S
H1290 C1296 0.950 . S
H1291 C1297 0.950 . S
H1292 C1298 0.949 . S
C1293 H1288 0.950 . S
C1293 C1295 1.327 . S
C1293 C1299 1.429 . S
C1294 C1286 1.574 . S
C1294 H1289 0.949 . S
C1294 C1300 1.368 . S
C1295 C1279 1.349 . S
C1295 H1287 0.950 . S
C1295 C1293 1.327 . S
C1296 C1284 1.349 . S
C1296 H1290 0.950 . S
C1296 C1297 1.327 . S
C1297 H1291 0.950 . S
C1297 C1296 1.327 . S
C1297 C1301 1.429 . S
C1298 C1281 1.574 . S
C1298 H1292 0.949 . S
C1298 C1302 1.368 . S
C1299 C1280 1.429 . S
C1299 C1293 1.429 . S
C1299 C1300 1.523 . S
C1300 C1281 1.368 . S
C1300 C1294 1.368 . S
C1300 C1299 1.523 . S
C1301 C1285 1.429 . S
C1301 C1297 1.429 . S
C1301 C1302 1.523 . S
C1302 C1286 1.368 . S
C1302 C1298 1.368 . S
C1302 C1301 1.523 . S
H1303 C1278 0.950 . S
H1304 C1280 0.950 . S
H1305 C1281 0.949 . S
H1306 C1283 0.950 . S
H1307 C1285 0.950 . S
C1308 C1309 1.349 . S
C1308 C1310 1.327 . S
C1308 H1333 0.950 . S
C1309 C1308 1.349 . S
C1309 C1325 1.349 . S
C1310 C1308 1.327 . S
C1310 C1329 1.429 . S
C1310 H1334 0.950 . S
C1311 C1328 1.574 . S
C1311 C1330 1.368 1_556 S
C1311 H1335 0.949 . S
H1312 C1316 0.949 1_554 S
C1313 C1314 1.349 . S
C1313 C1315 1.327 . S
C1313 H1336 0.950 . S
C1314 C1313 1.349 . S
C1314 C1326 1.349 . S
C1315 C1313 1.327 . S
C1315 C1331 1.429 . S
C1315 H1337 0.950 . S
C1316 H1312 0.949 1_556 S
C1316 C1324 1.574 1_556 S
C1316 C1332 1.368 . S
H1317 C1325 0.950 . S
H1318 C1323 0.950 . S
H1319 C1324 0.949 . S
H1320 C1326 0.950 . S
H1321 C1327 0.950 . S
H1322 C1328 0.949 . S
C1323 H1318 0.950 . S
C1323 C1325 1.327 . S
C1323 C1329 1.429 . S
C1324 C1316 1.574 1_554 S
C1324 H1319 0.949 . S
C1324 C1330 1.368 . S
C1325 C1309 1.349 . S
C1325 H1317 0.950 . S
C1325 C1323 1.327 . S
C1326 C1314 1.349 . S
C1326 H1320 0.950 . S
C1326 C1327 1.327 . S
C1327 H1321 0.950 . S
C1327 C1326 1.327 . S
C1327 C1331 1.429 . S
C1328 C1311 1.574 . S
C1328 H1322 0.949 . S
C1328 C1332 1.368 . S
C1329 C1310 1.429 . S
C1329 C1323 1.429 . S
C1329 C1330 1.523 . S
C1330 C1311 1.368 1_554 S
C1330 C1324 1.368 . S
C1330 C1329 1.523 . S
C1331 C1315 1.429 . S
C1331 C1327 1.429 . S
C1331 C1332 1.523 . S
C1332 C1316 1.368 . S
C1332 C1328 1.368 . S
C1332 C1331 1.523 . S
H1333 C1308 0.950 . S
H1334 C1310 0.950 . S
H1335 C1311 0.949 . S
H1336 C1313 0.950 . S
H1337 C1315 0.950 . S
C1338 C1339 1.349 . S
C1338 C1340 1.327 . S
C1338 H1363 0.950 . S
C1339 C1338 1.349 . S
C1339 C1355 1.349 . S
C1340 C1338 1.327 . S
C1340 C1359 1.429 . S
C1340 H1364 0.950 . S
C1341 C1358 1.574 1_554 S
C1341 C1360 1.368 . S
C1341 H1365 0.949 . S
H1342 C1346 0.949 . S
C1343 C1344 1.349 . S
C1343 C1345 1.327 . S
C1343 H1366 0.950 . S
C1344 C1343 1.349 . S
C1344 C1356 1.349 . S
C1345 C1343 1.327 . S
C1345 C1361 1.429 . S
C1345 H1367 0.950 . S
C1346 H1342 0.949 . S
C1346 C1354 1.574 . S
C1346 C1362 1.368 . S
H1347 C1355 0.950 . S
H1348 C1353 0.950 . S
H1349 C1354 0.949 . S
H1350 C1356 0.950 . S
H1351 C1357 0.950 . S
H1352 C1358 0.949 . S
C1353 H1348 0.950 . S
C1353 C1355 1.327 . S
C1353 C1359 1.429 . S
C1354 C1346 1.574 . S
C1354 H1349 0.949 . S
C1354 C1360 1.368 1_556 S
C1355 C1339 1.349 . S
C1355 H1347 0.950 . S
C1355 C1353 1.327 . S
C1356 C1344 1.349 . S
C1356 H1350 0.950 . S
C1356 C1357 1.327 . S
C1357 H1351 0.950 . S
C1357 C1356 1.327 . S
C1357 C1361 1.429 . S
C1358 C1341 1.574 1_556 S
C1358 H1352 0.949 . S
C1358 C1362 1.368 . S
C1359 C1340 1.429 . S
C1359 C1353 1.429 . S
C1359 C1360 1.523 . S
C1360 C1341 1.368 . S
C1360 C1354 1.368 1_554 S
C1360 C1359 1.523 . S
C1361 C1345 1.429 . S
C1361 C1357 1.429 . S
C1361 C1362 1.523 . S
C1362 C1346 1.368 . S
C1362 C1358 1.368 . S
C1362 C1361 1.523 . S
H1363 C1338 0.950 . S
H1364 C1340 0.950 . S
H1365 C1341 0.949 . S
H1366 C1343 0.950 . S
H1367 C1345 0.950 . S
C1368 C1369 1.349 . S
C1368 C1370 1.327 . S
C1368 H1393 0.950 . S
C1369 C1368 1.349 . S
C1369 C1385 1.349 . S
C1370 C1368 1.327 . S
C1370 C1389 1.429 . S
C1370 H1394 0.950 . S
C1371 C1388 1.574 . S
C1371 C1390 1.368 . S
C1371 H1395 0.949 . S
H1372 C1376 0.949 . S
C1373 C1374 1.349 . S
C1373 C1375 1.327 . S
C1373 H1396 0.950 . S
C1374 C1373 1.349 . S
C1374 C1386 1.349 . S
C1375 C1373 1.327 . S
C1375 C1391 1.429 . S
C1375 H1397 0.950 . S
C1376 H1372 0.949 . S
C1376 C1384 1.574 . S
C1376 C1392 1.368 . S
H1377 C1385 0.950 . S
H1378 C1383 0.950 . S
H1379 C1384 0.949 . S
H1380 C1386 0.950 . S
H1381 C1387 0.950 . S
H1382 C1388 0.949 . S
C1383 H1378 0.950 . S
C1383 C1385 1.327 . S
C1383 C1389 1.429 . S
C1384 C1376 1.574 . S
C1384 H1379 0.949 . S
C1384 C1390 1.368 . S
C1385 C1369 1.349 . S
C1385 H1377 0.950 . S
C1385 C1383 1.327 . S
C1386 C1374 1.349 . S
C1386 H1380 0.950 . S
C1386 C1387 1.327 . S
C1387 H1381 0.950 . S
C1387 C1386 1.327 . S
C1387 C1391 1.429 . S
C1388 C1371 1.574 . S
C1388 H1382 0.949 . S
C1388 C1392 1.368 . S
C1389 C1370 1.429 . S
C1389 C1383 1.429 . S
C1389 C1390 1.523 . S
C1390 C1371 1.368 . S
C1390 C1384 1.368 . S
C1390 C1389 1.523 . S
C1391 C1375 1.429 . S
C1391 C1387 1.429 . S
C1391 C1392 1.523 . S
C1392 C1376 1.368 . S
C1392 C1388 1.368 . S
C1392 C1391 1.523 . S
H1393 C1368 0.950 . S
H1394 C1370 0.950 . S
H1395 C1371 0.949 . S
H1396 C1373 0.950 . S
H1397 C1375 0.950 . S
C1398 C1399 1.349 . S
C1398 C1400 1.327 . S
C1398 H1423 0.950 . S
C1399 C1398 1.349 . S
C1399 C1415 1.349 . S
C1400 C1398 1.327 . S
C1400 C1419 1.429 . S
C1400 H1424 0.950 . S
C1401 C1418 1.574 . S
C1401 C1420 1.368 . S
C1401 H1425 0.949 . S
H1402 C1406 0.949 . S
C1403 C1404 1.349 . S
C1403 C1405 1.327 . S
C1403 H1426 0.950 . S
C1404 C1403 1.349 . S
C1404 C1416 1.349 . S
C1405 C1403 1.327 . S
C1405 C1421 1.429 . S
C1405 H1427 0.950 . S
C1406 H1402 0.949 . S
C1406 C1414 1.574 . S
C1406 C1422 1.368 . S
H1407 C1415 0.950 . S
H1408 C1413 0.950 . S
H1409 C1414 0.949 . S
H1410 C1416 0.950 . S
H1411 C1417 0.950 . S
H1412 C1418 0.949 . S
C1413 H1408 0.950 . S
C1413 C1415 1.327 . S
C1413 C1419 1.429 . S
C1414 C1406 1.574 . S
C1414 H1409 0.949 . S
C1414 C1420 1.368 . S
C1415 C1399 1.349 . S
C1415 H1407 0.950 . S
C1415 C1413 1.327 . S
C1416 C1404 1.349 . S
C1416 H1410 0.950 . S
C1416 C1417 1.327 . S
C1417 H1411 0.950 . S
C1417 C1416 1.327 . S
C1417 C1421 1.429 . S
C1418 C1401 1.574 . S
C1418 H1412 0.949 . S
C1418 C1422 1.368 . S
C1419 C1400 1.429 . S
C1419 C1413 1.429 . S
C1419 C1420 1.523 . S
C1420 C1401 1.368 . S
C1420 C1414 1.368 . S
C1420 C1419 1.523 . S
C1421 C1405 1.429 . S
C1421 C1417 1.429 . S
C1421 C1422 1.523 . S
C1422 C1406 1.368 . S
C1422 C1418 1.368 . S
C1422 C1421 1.523 . S
H1423 C1398 0.950 . S
H1424 C1400 0.950 . S
H1425 C1401 0.949 . S
H1426 C1403 0.950 . S
H1427 C1405 0.950 . S
C1428 C1429 1.349 . S
C1428 C1430 1.327 . S
C1428 H1453 0.950 . S
C1429 C1428 1.349 . S
C1429 C1445 1.349 . S
C1430 C1428 1.327 . S
C1430 C1449 1.429 . S
C1430 H1454 0.950 1_565 S
C1431 C1448 1.574 1_565 S
C1431 C1450 1.380 . S
C1431 H1455 0.949 . S
H1432 C1436 0.949 . S
C1433 C1434 1.349 . S
C1433 C1435 1.327 . S
C1433 H1456 0.950 . S
C1434 C1433 1.349 . S
C1434 C1446 1.349 . S
C1435 C1433 1.327 . S
C1435 C1451 1.429 . S
C1435 H1457 0.950 . S
C1436 H1432 0.949 . S
C1436 C1444 1.574 . S
C1436 C1452 1.368 . S
H1437 C1445 0.950 . S
H1438 C1443 0.950 . S
H1439 C1444 0.949 . S
H1440 C1446 0.950 . S
H1441 C1447 0.950 . S
H1442 C1448 0.964 . S
C1443 H1438 0.950 . S
C1443 C1445 1.327 . S
C1443 C1449 1.429 . S
C1444 C1436 1.574 . S
C1444 H1439 0.949 . S
C1444 C1450 1.344 1_545 S
C1445 C1429 1.349 . S
C1445 H1437 0.950 . S
C1445 C1443 1.327 . S
C1446 C1434 1.349 . S
C1446 H1440 0.950 . S
C1446 C1447 1.327 . S
C1447 H1441 0.950 . S
C1447 C1446 1.327 . S
C1447 C1451 1.429 . S
C1448 C1431 1.574 1_545 S
C1448 H1442 0.964 . S
C1448 C1452 1.368 . S
C1449 C1430 1.429 . S
C1449 C1443 1.429 . S
C1449 C1450 1.540 . S
C1450 C1431 1.380 . S
C1450 C1444 1.344 1_565 S
C1450 C1449 1.540 . S
C1451 C1435 1.429 . S
C1451 C1447 1.429 . S
C1451 C1452 1.523 . S
C1452 C1436 1.368 . S
C1452 C1448 1.368 . S
C1452 C1451 1.523 . S
H1453 C1428 0.950 . S
H1454 C1430 0.950 1_545 S
H1455 C1431 0.949 . S
H1456 C1433 0.950 . S
H1457 C1435 0.950 . S
C1458 C1459 1.349 . S
C1458 C1460 1.327 . S
C1458 H1483 0.950 . S
C1459 C1458 1.349 . S
C1459 C1475 1.349 . S
C1460 C1458 1.327 . S
C1460 C1479 1.429 . S
C1460 H1484 0.950 1_545 S
C1461 C1478 1.574 1_545 S
C1461 C1480 1.382 . S
C1461 H1485 0.949 . S
H1462 C1466 0.949 . S
C1463 C1464 1.349 . S
C1463 C1465 1.327 . S
C1463 H1486 0.950 . S
C1464 C1463 1.349 . S
C1464 C1476 1.349 . S
C1465 C1463 1.327 . S
C1465 C1481 1.429 . S
C1465 H1487 0.950 . S
C1466 H1462 0.949 . S
C1466 C1474 1.574 . S
C1466 C1482 1.368 . S
H1467 C1475 0.950 . S
H1468 C1473 0.950 . S
H1469 C1474 0.949 . S
H1470 C1476 0.950 . S
H1471 C1477 0.950 . S
H1472 C1478 0.945 1_545 S
C1473 H1468 0.950 . S
C1473 C1475 1.327 . S
C1473 C1479 1.429 . S
C1474 C1466 1.574 . S
C1474 H1469 0.949 . S
C1474 C1480 1.342 1_565 S
C1475 C1459 1.349 . S
C1475 H1467 0.950 . S
C1475 C1473 1.327 . S
C1476 C1464 1.349 . S
C1476 H1470 0.950 . S
C1476 C1477 1.327 . S
C1477 H1471 0.950 . S
C1477 C1476 1.327 . S
C1477 C1481 1.429 . S
C1478 C1461 1.574 1_565 S
C1478 H1472 0.945 1_565 S
C1478 C1482 1.368 . S
C1479 C1460 1.429 . S
C1479 C1473 1.429 . S
C1479 C1480 1.540 . S
C1480 C1461 1.382 . S
C1480 C1474 1.342 1_545 S
C1480 C1479 1.540 . S
C1481 C1465 1.429 . S
C1481 C1477 1.429 . S
C1481 C1482 1.523 . S
C1482 C1466 1.368 . S
C1482 C1478 1.368 . S
C1482 C1481 1.523 . S
H1483 C1458 0.950 . S
H1484 C1460 0.950 1_565 S
H1485 C1461 0.949 . S
H1486 C1463 0.950 . S
H1487 C1465 0.950 . S
C1488 C1489 1.349 1_554 S
C1488 C1490 1.327 . S
C1488 H1513 0.950 . S
C1489 C1488 1.349 1_556 S
C1489 C1505 1.349 . S
C1490 C1488 1.327 . S
C1490 C1509 1.429 1_554 S
C1490 H1514 0.950 . S
C1491 C1508 1.574 . S
C1491 C1510 1.368 . S
C1491 H1515 0.949 . S
H1492 C1496 0.949 . S
C1493 C1494 1.349 . S
C1493 C1495 1.327 . S
C1493 H1516 0.950 . S
C1494 C1493 1.349 . S
C1494 C1506 1.349 1_556 S
C1495 C1493 1.327 . S
C1495 C1511 1.429 . S
C1495 H1517 0.950 . S
C1496 H1492 0.949 . S
C1496 C1504 1.574 . S
C1496 C1512 1.368 1_554 S
H1497 C1505 0.950 . S
H1498 C1503 0.950 . S
H1499 C1504 0.949 . S
H1500 C1506 0.950 . S
H1501 C1507 0.950 . S
H1502 C1508 0.949 . S
C1503 H1498 0.950 . S
C1503 C1505 1.327 . S
C1503 C1509 1.429 . S
C1504 C1496 1.574 . S
C1504 H1499 0.949 . S
C1504 C1510 1.368 1_554 S
C1505 C1489 1.349 . S
C1505 H1497 0.950 . S
C1505 C1503 1.327 . S
C1506 C1494 1.349 1_554 S
C1506 H1500 0.950 . S
C1506 C1507 1.327 . S
C1507 H1501 0.950 . S
C1507 C1506 1.327 . S
C1507 C1511 1.429 1_554 S
C1508 C1491 1.574 . S
C1508 H1502 0.949 . S
C1508 C1512 1.368 . S
C1509 C1490 1.429 1_556 S
C1509 C1503 1.429 . S
C1509 C1510 1.523 . S
C1510 C1491 1.368 . S
C1510 C1504 1.368 1_556 S
C1510 C1509 1.523 . S
C1511 C1495 1.429 . S
C1511 C1507 1.429 1_556 S
C1511 C1512 1.523 . S
C1512 C1496 1.368 1_556 S
C1512 C1508 1.368 . S
C1512 C1511 1.523 . S
H1513 C1488 0.950 . S
H1514 C1490 0.950 . S
H1515 C1491 0.949 . S
H1516 C1493 0.950 . S
H1517 C1495 0.950 . S
C1518 C1519 1.349 . S
C1518 C1520 1.327 . S
C1518 H1543 0.950 . S
C1519 C1518 1.349 . S
C1519 C1535 1.349 1_556 S
C1520 C1518 1.327 . S
C1520 C1539 1.429 . S
C1520 H1544 0.950 . S
C1521 C1538 1.574 . S
C1521 C1540 1.368 1_554 S
C1521 H1545 0.949 . S
H1522 C1526 0.949 . S
C1523 C1524 1.349 1_554 S
C1523 C1525 1.327 . S
C1523 H1546 0.950 . S
C1524 C1523 1.349 1_556 S
C1524 C1536 1.349 . S
C1525 C1523 1.327 . S
C1525 C1541 1.429 1_554 S
C1525 H1547 0.950 . S
C1526 H1522 0.949 . S
C1526 C1534 1.574 . S
C1526 C1542 1.368 . S
H1527 C1535 0.950 . S
H1528 C1533 0.950 . S
H1529 C1534 0.949 . S
H1530 C1536 0.950 . S
H1531 C1537 0.950 . S
H1532 C1538 0.949 . S
C1533 H1528 0.950 . S
C1533 C1535 1.327 . S
C1533 C1539 1.429 1_554 S
C1534 C1526 1.574 . S
C1534 H1529 0.949 . S
C1534 C1540 1.368 . S
C1535 C1519 1.349 1_554 S
C1535 H1527 0.950 . S
C1535 C1533 1.327 . S
C1536 C1524 1.349 . S
C1536 H1530 0.950 . S
C1536 C1537 1.327 . S
C1537 H1531 0.950 . S
C1537 C1536 1.327 . S
C1537 C1541 1.429 . S
C1538 C1521 1.574 . S
C1538 H1532 0.949 . S
C1538 C1542 1.368 1_554 S
C1539 C1520 1.429 . S
C1539 C1533 1.429 1_556 S
C1539 C1540 1.523 . S
C1540 C1521 1.368 1_556 S
C1540 C1534 1.368 . S
C1540 C1539 1.523 . S
C1541 C1525 1.429 1_556 S
C1541 C1537 1.429 . S
C1541 C1542 1.523 . S
C1542 C1526 1.368 . S
C1542 C1538 1.368 1_556 S
C1542 C1541 1.523 . S
H1543 C1518 0.950 . S
H1544 C1520 0.950 . S
H1545 C1521 0.949 . S
H1546 C1523 0.950 . S
H1547 C1525 0.950 . S
C1548 C1549 1.349 . S
C1548 C1550 1.327 . S
C1548 H1573 0.950 . S
C1549 C1548 1.349 . S
C1549 C1565 1.349 . S
C1550 C1548 1.327 . S
C1550 C1569 1.429 . S
C1550 H1574 0.950 . S
C1551 C1568 1.574 1_455 S
C1551 C1570 1.368 . S
C1551 H1575 0.949 . S
H1552 C1556 0.949 . S
C1553 C1554 1.349 . S
C1553 C1555 1.327 . S
C1553 H1576 0.950 . S
C1554 C1553 1.349 . S
C1554 C1566 1.349 . S
C1555 C1553 1.327 . S
C1555 C1571 1.429 . S
C1555 H1577 0.950 . S
C1556 H1552 0.949 . S
C1556 C1564 1.574 1_655 S
C1556 C1572 1.368 . S
H1557 C1565 0.950 . S
H1558 C1563 0.950 . S
H1559 C1564 0.949 . S
H1560 C1566 0.950 . S
H1561 C1567 0.950 . S
H1562 C1568 0.949 . S
C1563 H1558 0.950 . S
C1563 C1565 1.327 . S
C1563 C1569 1.429 . S
C1564 C1556 1.574 1_455 S
C1564 H1559 0.949 . S
C1564 C1570 1.368 . S
C1565 C1549 1.349 . S
C1565 H1557 0.950 . S
C1565 C1563 1.327 . S
C1566 C1554 1.349 . S
C1566 H1560 0.950 . S
C1566 C1567 1.327 . S
C1567 H1561 0.950 . S
C1567 C1566 1.327 . S
C1567 C1571 1.429 . S
C1568 C1551 1.574 1_655 S
C1568 H1562 0.949 . S
C1568 C1572 1.368 . S
C1569 C1550 1.429 . S
C1569 C1563 1.429 . S
C1569 C1570 1.523 . S
C1570 C1551 1.368 . S
C1570 C1564 1.368 . S
C1570 C1569 1.523 . S
C1571 C1555 1.429 . S
C1571 C1567 1.429 . S
C1571 C1572 1.523 . S
C1572 C1556 1.368 . S
C1572 C1568 1.368 . S
C1572 C1571 1.523 . S
H1573 C1548 0.950 . S
H1574 C1550 0.950 . S
H1575 C1551 0.949 . S
H1576 C1553 0.950 . S
H1577 C1555 0.950 . S
C1578 C1579 1.349 . S
C1578 C1580 1.327 . S
C1578 H1603 0.950 . S
C1579 C1578 1.349 . S
C1579 C1595 1.349 . S
C1580 C1578 1.327 . S
C1580 C1599 1.429 . S
C1580 H1604 0.950 . S
C1581 C1598 1.574 . S
C1581 C1600 1.368 . S
C1581 H1605 0.949 . S
H1582 C1586 0.949 . S
C1583 C1584 1.349 . S
C1583 C1585 1.327 . S
C1583 H1606 0.950 . S
C1584 C1583 1.349 . S
C1584 C1596 1.349 . S
C1585 C1583 1.327 . S
C1585 C1601 1.429 . S
C1585 H1607 0.950 . S
C1586 H1582 0.949 . S
C1586 C1594 1.574 . S
C1586 C1602 1.368 . S
H1587 C1595 0.950 . S
H1588 C1593 0.950 . S
H1589 C1594 0.949 . S
H1590 C1596 0.950 . S
H1591 C1597 0.950 . S
H1592 C1598 0.949 . S
C1593 H1588 0.950 . S
C1593 C1595 1.327 . S
C1593 C1599 1.429 . S
C1594 C1586 1.574 . S
C1594 H1589 0.949 . S
C1594 C1600 1.368 . S
C1595 C1579 1.349 . S
C1595 H1587 0.950 . S
C1595 C1593 1.327 . S
C1596 C1584 1.349 . S
C1596 H1590 0.950 . S
C1596 C1597 1.327 . S
C1597 H1591 0.950 . S
C1597 C1596 1.327 . S
C1597 C1601 1.429 . S
C1598 C1581 1.574 . S
C1598 H1592 0.949 . S
C1598 C1602 1.368 . S
C1599 C1580 1.429 . S
C1599 C1593 1.429 . S
C1599 C1600 1.523 . S
C1600 C1581 1.368 . S
C1600 C1594 1.368 . S
C1600 C1599 1.523 . S
C1601 C1585 1.429 . S
C1601 C1597 1.429 . S
C1601 C1602 1.523 . S
C1602 C1586 1.368 . S
C1602 C1598 1.368 . S
C1602 C1601 1.523 . S
H1603 C1578 0.950 . S
H1604 C1580 0.950 . S
H1605 C1581 0.949 . S
H1606 C1583 0.950 . S
H1607 C1585 0.950 . S
C1608 C1609 1.349 . S
C1608 C1610 1.327 . S
C1608 H1633 0.950 . S
C1609 C1608 1.349 . S
C1609 C1625 1.349 . S
C1610 C1608 1.327 . S
C1610 C1629 1.429 . S
C1610 H1634 0.950 . S
C1611 C1628 1.574 . S
C1611 C1630 1.368 . S
C1611 H1635 0.949 . S
H1612 C1616 0.949 . S
C1613 C1614 1.349 . S
C1613 C1615 1.327 . S
C1613 H1636 0.950 . S
C1614 C1613 1.349 . S
C1614 C1626 1.349 . S
C1615 C1613 1.327 . S
C1615 C1631 1.429 . S
C1615 H1637 0.950 . S
C1616 H1612 0.949 . S
C1616 C1624 1.574 . S
C1616 C1632 1.368 . S
H1617 C1625 0.950 . S
H1618 C1623 0.950 . S
H1619 C1624 0.949 . S
H1620 C1626 0.950 . S
H1621 C1627 0.950 . S
H1622 C1628 0.949 . S
C1623 H1618 0.950 . S
C1623 C1625 1.327 . S
C1623 C1629 1.429 . S
C1624 C1616 1.574 . S
C1624 H1619 0.949 . S
C1624 C1630 1.368 . S
C1625 C1609 1.349 . S
C1625 H1617 0.950 . S
C1625 C1623 1.327 . S
C1626 C1614 1.349 . S
C1626 H1620 0.950 . S
C1626 C1627 1.327 . S
C1627 H1621 0.950 . S
C1627 C1626 1.327 . S
C1627 C1631 1.429 . S
C1628 C1611 1.574 . S
C1628 H1622 0.949 . S
C1628 C1632 1.368 . S
C1629 C1610 1.429 . S
C1629 C1623 1.429 . S
C1629 C1630 1.523 . S
C1630 C1611 1.368 . S
C1630 C1624 1.368 . S
C1630 C1629 1.523 . S
C1631 C1615 1.429 . S
C1631 C1627 1.429 . S
C1631 C1632 1.523 . S
C1632 C1616 1.368 . S
C1632 C1628 1.368 . S
C1632 C1631 1.523 . S
H1633 C1608 0.950 . S
H1634 C1610 0.950 . S
H1635 C1611 0.949 . S
H1636 C1613 0.950 . S
H1637 C1615 0.950 . S
C1638 C1639 1.349 . S
C1638 C1640 1.327 . S
C1638 H1663 0.950 . S
C1639 C1638 1.349 . S
C1639 C1655 1.349 . S
C1640 C1638 1.327 . S
C1640 C1659 1.429 . S
C1640 H1664 0.950 . S
C1641 C1658 1.574 1_455 S
C1641 C1660 1.368 1_565 S
C1641 H1665 0.949 . S
H1642 C1646 0.949 . S
C1643 C1644 1.349 . S
C1643 C1645 1.327 . S
C1643 H1666 0.950 . S
C1644 C1643 1.349 . S
C1644 C1656 1.349 . S
C1645 C1643 1.327 . S
C1645 C1661 1.429 . S
C1645 H1667 0.950 . S
C1646 H1642 0.949 . S
C1646 C1654 1.574 1_655 S
C1646 C1662 1.368 1_545 S
H1647 C1655 0.950 . S
H1648 C1653 0.922 1_565 S
H1649 C1654 0.949 . S
H1650 C1656 0.950 . S
H1651 C1657 0.922 1_545 S
H1652 C1658 0.949 . S
C1653 H1648 0.922 1_545 S
C1653 C1655 1.327 . S
C1653 C1659 1.429 . S
C1654 C1646 1.574 1_455 S
C1654 H1649 0.949 . S
C1654 C1660 1.368 . S
C1655 C1639 1.349 . S
C1655 H1647 0.950 . S
C1655 C1653 1.327 . S
C1656 C1644 1.349 . S
C1656 H1650 0.950 . S
C1656 C1657 1.327 . S
C1657 H1651 0.922 1_565 S
C1657 C1656 1.327 . S
C1657 C1661 1.429 . S
C1658 C1641 1.574 1_655 S
C1658 H1652 0.949 . S
C1658 C1662 1.368 . S
C1659 C1640 1.429 . S
C1659 C1653 1.429 . S
C1659 C1660 1.523 . S
C1660 C1641 1.368 1_545 S
C1660 C1654 1.368 . S
C1660 C1659 1.523 . S
C1661 C1645 1.429 . S
C1661 C1657 1.429 . S
C1661 C1662 1.523 . S
C1662 C1646 1.368 1_565 S
C1662 C1658 1.368 . S
C1662 C1661 1.523 . S
H1663 C1638 0.950 . S
H1664 C1640 0.950 . S
H1665 C1641 0.949 . S
H1666 C1643 0.950 . S
H1667 C1645 0.950 . S
C1668 C1669 1.349 . S
C1668 C1670 1.327 . S
C1668 H1693 0.950 . S
C1669 C1668 1.349 . S
C1669 C1685 1.349 . S
C1670 C1668 1.327 . S
C1670 C1689 1.429 . S
C1670 H1694 0.950 . S
C1671 C1688 1.574 . S
C1671 C1690 1.368 . S
C1671 H1695 0.949 . S
H1672 C1676 0.949 . S
C1673 C1674 1.349 . S
C1673 C1675 1.327 . S
C1673 H1696 0.950 . S
C1674 C1673 1.349 . S
C1674 C1686 1.349 . S
C1675 C1673 1.327 . S
C1675 C1691 1.429 . S
C1675 H1697 0.950 . S
C1676 H1672 0.949 . S
C1676 C1684 1.574 . S
C1676 C1692 1.368 . S
H1677 C1685 0.950 . S
H1678 C1683 0.950 . S
H1679 C1684 0.949 . S
H1680 C1686 0.950 . S
H1681 C1687 0.950 . S
H1682 C1688 0.949 . S
C1683 H1678 0.950 . S
C1683 C1685 1.327 . S
C1683 C1689 1.429 . S
C1684 C1676 1.574 . S
C1684 H1679 0.949 . S
C1684 C1690 1.368 . S
C1685 C1669 1.349 . S
C1685 H1677 0.950 . S
C1685 C1683 1.327 . S
C1686 C1674 1.349 . S
C1686 H1680 0.950 . S
C1686 C1687 1.327 . S
C1687 H1681 0.950 . S
C1687 C1686 1.327 . S
C1687 C1691 1.429 . S
C1688 C1671 1.574 . S
C1688 H1682 0.949 . S
C1688 C1692 1.368 . S
C1689 C1670 1.429 . S
C1689 C1683 1.429 . S
C1689 C1690 1.523 . S
C1690 C1671 1.368 . S
C1690 C1684 1.368 . S
C1690 C1689 1.523 . S
C1691 C1675 1.429 . S
C1691 C1687 1.429 . S
C1691 C1692 1.523 . S
C1692 C1676 1.368 . S
C1692 C1688 1.368 . S
C1692 C1691 1.523 . S
H1693 C1668 0.950 . S
H1694 C1670 0.950 . S
H1695 C1671 0.949 . S
H1696 C1673 0.950 . S
H1697 C1675 0.950 . S
C1698 C1699 1.349 . S
C1698 C1700 1.327 . S
C1698 H1723 0.950 . S
C1699 C1698 1.349 . S
C1699 C1715 1.349 . S
C1700 C1698 1.327 . S
C1700 C1719 1.429 . S
C1700 H1724 0.950 . S
C1701 C1718 1.574 . S
C1701 C1720 1.368 1_545 S
C1701 H1725 0.949 . S
H1702 C1706 0.949 . S
C1703 C1704 1.349 . S
C1703 C1705 1.327 . S
C1703 H1726 0.950 . S
C1704 C1703 1.349 . S
C1704 C1716 1.349 . S
C1705 C1703 1.327 . S
C1705 C1721 1.429 . S
C1705 H1727 0.950 . S
C1706 H1702 0.949 . S
C1706 C1714 1.574 . S
C1706 C1722 1.368 1_565 S
H1707 C1715 0.950 . S
H1708 C1713 0.922 1_545 S
H1709 C1714 0.949 . S
H1710 C1716 0.950 . S
H1711 C1717 0.922 1_565 S
H1712 C1718 0.949 . S
C1713 H1708 0.922 1_565 S
C1713 C1715 1.327 . S
C1713 C1719 1.429 . S
C1714 C1706 1.574 . S
C1714 H1709 0.949 . S
C1714 C1720 1.368 . S
C1715 C1699 1.349 . S
C1715 H1707 0.950 . S
C1715 C1713 1.327 . S
C1716 C1704 1.349 . S
C1716 H1710 0.950 . S
C1716 C1717 1.327 . S
C1717 H1711 0.922 1_545 S
C1717 C1716 1.327 . S
C1717 C1721 1.429 . S
C1718 C1701 1.574 . S
C1718 H1712 0.949 . S
C1718 C1722 1.368 . S
C1719 C1700 1.429 . S
C1719 C1713 1.429 . S
C1719 C1720 1.523 . S
C1720 C1701 1.368 1_565 S
C1720 C1714 1.368 . S
C1720 C1719 1.523 . S
C1721 C1705 1.429 . S
C1721 C1717 1.429 . S
C1721 C1722 1.523 . S
C1722 C1706 1.368 1_545 S
C1722 C1718 1.368 . S
C1722 C1721 1.523 . S
H1723 C1698 0.950 . S
H1724 C1700 0.950 . S
H1725 C1701 0.949 . S
H1726 C1703 0.950 . S
H1727 C1705 0.950 . S
C529 C28 1.723 . S
C534 N377 1.720 . S
C559 C61 1.723 . S
C564 N344 1.720 . S
C589 N47 1.718 1_455 S
C594 C94 1.722 . S
C619 N14 1.718 1_655 S
C624 C127 1.722 . S
C649 C160 1.723 . S
C654 N509 1.718 . S
C679 C193 1.723 . S
C684 N476 1.718 . S
C709 N179 1.718 1_455 S
C714 C226 1.723 . S
C739 C259 1.723 . S
C744 N146 1.718 1_655 S
C769 N113 1.718 . S
C774 C292 1.723 . S
C799 N80 1.718 . S
C804 C325 1.723 . S
C829 N311 1.718 . S
C834 C358 1.723 . S
C859 N278 1.718 . S
C864 C391 1.723 . S
C889 C424 1.723 . S
C894 N245 1.720 . S
C919 C457 1.723 . S
C924 N212 1.720 . S
C949 C490 1.723 . S
C954 N443 1.717 . S
C979 N410 1.718 . S
C984 C523 1.722 . S
C1009 C182 1.037 . S
C1014 C8 1.025 . S
C1039 C149 1.037 . S
C1044 C41 1.025 . S
C1069 C74 1.027 . S
C1074 C380 1.037 . S
C1099 C347 1.037 . S
C1104 C107 1.027 . S
C1129 C50 1.037 . S
C1134 C140 1.030 . S
C1159 C17 1.037 . S
C1164 C173 1.030 . S
C1189 C206 1.027 . S
C1194 C512 1.037 . S
C1219 C239 1.027 . S
C1224 C479 1.037 . S
C1249 C272 1.027 . S
C1254 C446 1.039 . S
C1279 C413 1.037 . S
C1284 C305 1.030 . S
C1309 C116 1.037 . S
C1314 C338 1.027 . S
C1339 C83 1.037 . S
C1344 C371 1.027 . S
C1369 C314 1.037 . S
C1374 C404 1.025 . S
C1399 C281 1.037 . S
C1404 C437 1.025 . S
C1429 C248 1.037 . S
C1434 C470 1.027 . S
C1459 C215 1.037 . S
C1464 C503 1.027 . S
C1489 N434 1.423 . S
C1494 N5 1.423 . S
C1519 N38 1.423 . S
C1524 N401 1.423 . S
C1549 N71 1.423 . S
C1554 N104 1.423 . S
C1579 N302 1.424 . S
C1584 N137 1.424 . S
C1609 N170 1.424 . S
C1614 N269 1.424 . S
C1639 N203 1.423 . S
C1644 N236 1.423 . S
C1669 N368 1.423 . S
C1674 N335 1.423 . S
C1699 N500 1.423 . S
C1704 N467 1.423 . S
