# Generated by pormake.
# Topology wmi, (6)-cn, num edge types: 1
# Building blocks:
#     Node 0, Type 0, BuildingBlock: KUMBUR_clean_sbu_0, # of connection points: 6
#     Node 1, Type 0, BuildingBlock: KUMBUR_clean_sbu_0, # of connection points: 6
#     Node 2, Type 0, BuildingBlock: KUMBUR_clean_sbu_0, # of connection points: 6
#     Node 3, Type 0, BuildingBlock: KUMBUR_clean_sbu_0, # of connection points: 6
#     Node 4, Type 0, BuildingBlock: KUMBUR_clean_sbu_0, # of connection points: 6
#     Node 5, Type 0, BuildingBlock: KUMBUR_clean_sbu_0, # of connection points: 6
#     Node 6, Type 0, BuildingBlock: KUMBUR_clean_sbu_0, # of connection points: 6
#     Node 7, Type 0, BuildingBlock: KUMBUR_clean_sbu_0, # of connection points: 6
#     Node 8, Type 0, BuildingBlock: KUMBUR_clean_sbu_0, # of connection points: 6
#     Node 9, Type 0, BuildingBlock: KUMBUR_clean_sbu_0, # of connection points: 6
#     Node 10, Type 0, BuildingBlock: KUMBUR_clean_sbu_0, # of connection points: 6
#     Node 11, Type 0, BuildingBlock: KUMBUR_clean_sbu_0, # of connection points: 6
#     Node 12, Type 0, BuildingBlock: KUMBUR_clean_sbu_0, # of connection points: 6
#     Node 13, Type 0, BuildingBlock: KUMBUR_clean_sbu_0, # of connection points: 6
#     Node 14, Type 0, BuildingBlock: KUMBUR_clean_sbu_0, # of connection points: 6
#     Node 15, Type 0, BuildingBlock: KUMBUR_clean_sbu_0, # of connection points: 6
#     Node 16, Type 0, BuildingBlock: KUMBUR_clean_sbu_0, # of connection points: 6
#     Node 17, Type 0, BuildingBlock: KUMBUR_clean_sbu_0, # of connection points: 6
#     Edge 18, Type (0, 0), BuildingBlock: ZUJKAS_clean_linker_0, # of connection points: 2
#     Edge 19, Type (0, 0), BuildingBlock: ZUJKAS_clean_linker_0, # of connection points: 2
#     Edge 20, Type (0, 0), BuildingBlock: ZUJKAS_clean_linker_0, # of connection points: 2
#     Edge 21, Type (0, 0), BuildingBlock: ZUJKAS_clean_linker_0, # of connection points: 2
#     Edge 22, Type (0, 0), BuildingBlock: ZUJKAS_clean_linker_0, # of connection points: 2
#     Edge 23, Type (0, 0), BuildingBlock: ZUJKAS_clean_linker_0, # of connection points: 2
#     Edge 24, Type (0, 0), BuildingBlock: ZUJKAS_clean_linker_0, # of connection points: 2
#     Edge 25, Type (0, 0), BuildingBlock: ZUJKAS_clean_linker_0, # of connection points: 2
#     Edge 26, Type (0, 0), BuildingBlock: ZUJKAS_clean_linker_0, # of connection points: 2
#     Edge 27, Type (0, 0), BuildingBlock: ZUJKAS_clean_linker_0, # of connection points: 2
#     Edge 28, Type (0, 0), BuildingBlock: ZUJKAS_clean_linker_0, # of connection points: 2
#     Edge 29, Type (0, 0), BuildingBlock: ZUJKAS_clean_linker_0, # of connection points: 2
#     Edge 30, Type (0, 0), BuildingBlock: ZUJKAS_clean_linker_0, # of connection points: 2
#     Edge 31, Type (0, 0), BuildingBlock: ZUJKAS_clean_linker_0, # of connection points: 2
#     Edge 32, Type (0, 0), BuildingBlock: ZUJKAS_clean_linker_0, # of connection points: 2
#     Edge 33, Type (0, 0), BuildingBlock: ZUJKAS_clean_linker_0, # of connection points: 2
#     Edge 34, Type (0, 0), BuildingBlock: ZUJKAS_clean_linker_0, # of connection points: 2
#     Edge 35, Type (0, 0), BuildingBlock: ZUJKAS_clean_linker_0, # of connection points: 2
#     Edge 36, Type (0, 0), BuildingBlock: ZUJKAS_clean_linker_0, # of connection points: 2
#     Edge 37, Type (0, 0), BuildingBlock: ZUJKAS_clean_linker_0, # of connection points: 2
#     Edge 38, Type (0, 0), BuildingBlock: ZUJKAS_clean_linker_0, # of connection points: 2
#     Edge 39, Type (0, 0), BuildingBlock: ZUJKAS_clean_linker_0, # of connection points: 2
#     Edge 40, Type (0, 0), BuildingBlock: ZUJKAS_clean_linker_0, # of connection points: 2
#     Edge 41, Type (0, 0), BuildingBlock: ZUJKAS_clean_linker_0, # of connection points: 2
#     Edge 42, Type (0, 0), BuildingBlock: ZUJKAS_clean_linker_0, # of connection points: 2
#     Edge 43, Type (0, 0), BuildingBlock: ZUJKAS_clean_linker_0, # of connection points: 2
#     Edge 44, Type (0, 0), BuildingBlock: ZUJKAS_clean_linker_0, # of connection points: 2
#     Edge 45, Type (0, 0), BuildingBlock: ZUJKAS_clean_linker_0, # of connection points: 2
#     Edge 46, Type (0, 0), BuildingBlock: ZUJKAS_clean_linker_0, # of connection points: 2
#     Edge 47, Type (0, 0), BuildingBlock: ZUJKAS_clean_linker_0, # of connection points: 2
#     Edge 48, Type (0, 0), BuildingBlock: ZUJKAS_clean_linker_0, # of connection points: 2
#     Edge 49, Type (0, 0), BuildingBlock: ZUJKAS_clean_linker_0, # of connection points: 2
#     Edge 50, Type (0, 0), BuildingBlock: ZUJKAS_clean_linker_0, # of connection points: 2
#     Edge 51, Type (0, 0), BuildingBlock: ZUJKAS_clean_linker_0, # of connection points: 2
#     Edge 52, Type (0, 0), BuildingBlock: ZUJKAS_clean_linker_0, # of connection points: 2
#     Edge 53, Type (0, 0), BuildingBlock: ZUJKAS_clean_linker_0, # of connection points: 2
#     Edge 54, Type (0, 0), BuildingBlock: ZUJKAS_clean_linker_0, # of connection points: 2
#     Edge 55, Type (0, 0), BuildingBlock: ZUJKAS_clean_linker_0, # of connection points: 2
#     Edge 56, Type (0, 0), BuildingBlock: ZUJKAS_clean_linker_0, # of connection points: 2
#     Edge 57, Type (0, 0), BuildingBlock: ZUJKAS_clean_linker_0, # of connection points: 2
#     Edge 58, Type (0, 0), BuildingBlock: ZUJKAS_clean_linker_0, # of connection points: 2
#     Edge 59, Type (0, 0), BuildingBlock: ZUJKAS_clean_linker_0, # of connection points: 2
#     Edge 60, Type (0, 0), BuildingBlock: ZUJKAS_clean_linker_0, # of connection points: 2
#     Edge 61, Type (0, 0), BuildingBlock: ZUJKAS_clean_linker_0, # of connection points: 2
#     Edge 62, Type (0, 0), BuildingBlock: ZUJKAS_clean_linker_0, # of connection points: 2
#     Edge 63, Type (0, 0), BuildingBlock: ZUJKAS_clean_linker_0, # of connection points: 2
#     Edge 64, Type (0, 0), BuildingBlock: ZUJKAS_clean_linker_0, # of connection points: 2
#     Edge 65, Type (0, 0), BuildingBlock: ZUJKAS_clean_linker_0, # of connection points: 2
#     Edge 66, Type (0, 0), BuildingBlock: ZUJKAS_clean_linker_0, # of connection points: 2
#     Edge 67, Type (0, 0), BuildingBlock: ZUJKAS_clean_linker_0, # of connection points: 2
#     Edge 68, Type (0, 0), BuildingBlock: ZUJKAS_clean_linker_0, # of connection points: 2
#     Edge 69, Type (0, 0), BuildingBlock: ZUJKAS_clean_linker_0, # of connection points: 2
#     Edge 70, Type (0, 0), BuildingBlock: ZUJKAS_clean_linker_0, # of connection points: 2
#     Edge 71, Type (0, 0), BuildingBlock: ZUJKAS_clean_linker_0, # of connection points: 2
# Relax obj value: 0.084
# Max RMSD: 0.191
# Mean RMSD: 0.191
data_MOF--net-wmi--node1-KUMBUR_clean_sbu_0--edge1-ZUJKAS_clean_linker_0
_symmetry_space_group_name_H-M    P1
_symmetry_Int_Tables_number       1
_symmetry_cell_setting            triclinic
loop_
_symmetry_equiv_pos_as_xyz
'x, y, z'
_cell_length_a     47.465804
_cell_length_b     47.550416
_cell_length_c     106.3713
_cell_angle_alpha  90.018407
_cell_angle_beta   89.945414
_cell_angle_gamma 119.93037
loop_
_atom_site_label
_atom_site_type_symbol
_atom_site_fract_x
_atom_site_fract_y
_atom_site_fract_z
_atom_type_partial_charge
Tb0 Tb 0.56191 0.05348 0.10832 0.0
C1 C 0.4408 0.03292 0.08144 0.0
C2 C 0.41365 0.04911 0.09668 0.0
C3 C 0.40115 0.04805 0.07455 0.0
C4 C 0.43535 0.03769 0.09382 0.0
C5 C 0.42363 0.03804 0.07167 0.0
C6 C 0.39619 0.05361 0.08703 0.0
C7 C 0.45083 0.02172 0.05678 0.0
N8 N 0.46291 0.02344 0.07894 0.0
C9 C 0.46693 0.01658 0.0667 0.0
C10 C 0.42918 0.03265 0.05925 0.0
Tb11 Tb 0.48158 1.0083 0.09631 0.0
N12 N 0.45367 0.03442 0.10289 0.0
C13 C 0.4524 0.04433 0.11496 0.0
C14 C 0.41118 0.05722 0.10907 0.0
C15 C 0.43111 0.0554 0.11819 0.0
H16 H 0.48107 1.00535 0.06427 0.0
H17 H 0.43039 0.06288 0.12774 0.0
H18 H 0.37934 0.06211 0.08909 0.0
H19 H 0.45443 0.01625 0.04723 0.0
H20 H 0.46823 0.04511 0.12232 0.0
H21 H 0.61555 1.00014 0.07846 0.0
H22 H 0.39495 0.06616 0.11161 0.0
H23 H 0.57194 0.07028 0.13876 0.0
H24 H 0.58732 0.02975 0.08308 0.0
H25 H 0.59365 0.05613 0.1573 0.0
H26 H 0.38771 0.05191 0.06717 0.0
H27 H 0.63553 0.98019 0.09579 0.0
H28 H 0.644 0.97802 0.11893 0.0
H29 H 0.41638 0.03618 0.05154 0.0
H30 H 0.6363 0.99148 0.14049 0.0
N31 N 0.58753 0.02468 0.10298 0.0
C32 C 0.59414 0.02025 0.09084 0.0
C33 C 0.62215 0.99257 0.09791 0.0
C34 C 0.61696 0.99854 0.11031 0.0
C35 C 0.61091 1.00377 0.08812 0.0
C36 C 0.59933 0.01477 0.11256 0.0
H37 H 0.61748 0.02054 0.15491 0.0
N38 N 0.58047 0.04046 0.12616 0.0
C39 C 0.59394 0.04619 0.14818 0.0
C40 C 0.59534 0.02266 0.1246 0.0
C41 C 0.58151 0.05399 0.13767 0.0
C42 C 0.6073 0.02607 0.1468 0.0
C43 C 0.60903 0.01483 0.13485 0.0
O44 O 0.59246 0.09982 0.11604 0.0
O45 O 0.5222 0.05778 0.0998 0.0
O46 O 0.51507 0.01723 0.08094 0.0
O47 O 0.56253 0.06232 0.08751 0.0
O48 O 0.5403 0.07965 0.11677 0.0
O49 O 0.60677 0.08585 0.09937 0.0
O50 O 0.46332 0.96875 0.08376 0.0
O51 O 0.52658 1.00828 0.10024 0.0
O52 O 0.52764 0.02647 0.12483 0.0
O53 O 0.47514 1.0029 0.11638 0.0
O54 O 0.48356 0.96907 0.10608 0.0
O55 O 0.43326 0.97086 0.09903 0.0
C56 C 0.52246 0.07859 0.10744 0.0
C57 C 0.64931 0.1273 0.11185 0.0
C58 C 0.70347 0.17696 0.11204 0.0
C59 C 0.67178 0.15842 0.10683 0.0
C60 C 0.71216 0.16372 0.1221 0.0
C61 C 0.65936 0.11491 0.12174 0.0
C62 C 0.69045 0.133 0.12682 0.0
C63 C 0.54318 0.04299 0.07844 0.0
C64 C 0.61483 0.109 0.10748 0.0
C65 C 0.62561 0.9977 0.13275 0.0
C66 C 0.6299 0.98992 0.12048 0.0
C67 C 0.51437 0.98094 0.10561 0.0
C68 C 0.40854 0.92281 0.0858 0.0
C69 C 0.38665 0.90102 0.09475 0.0
C70 C 0.36193 0.87025 0.09093 0.0
C71 C 0.3591 0.86153 0.0782 0.0
C72 C 0.40552 0.91359 0.07312 0.0
C73 C 0.38079 0.88311 0.06935 0.0
C74 C 0.49497 1.00961 0.126 0.0
C75 C 0.43555 0.95442 0.08966 0.0
H76 H 0.66438 0.16848 0.09924 0.0
H77 H 0.73606 0.17724 0.12632 0.0
H78 H 0.643 0.09141 0.12572 0.0
H79 H 0.69768 0.12326 0.13457 0.0
H80 H 0.38915 0.90768 0.10461 0.0
H81 H 0.34017 0.83782 0.07513 0.0
H82 H 0.42229 0.92998 0.06613 0.0
H83 H 0.37853 0.87611 0.05956 0.0
Tb84 Tb 0.02891 0.54182 0.10891 0.0
C85 C 0.04491 0.43789 0.08083 0.0
C86 C 1.01751 0.3924 0.0951 0.0
C87 C 0.02149 0.38268 0.07294 0.0
C88 C 0.03454 0.42617 0.09283 0.0
C89 C 0.03908 0.41629 0.07078 0.0
C90 C 1.01067 0.37077 0.08507 0.0
C91 C 0.07095 0.46264 0.05743 0.0
N92 N 0.0621 0.47046 0.07911 0.0
C93 C 0.07639 0.48304 0.06771 0.0
C94 C 0.05192 0.4291 0.05894 0.0
Tb95 Tb 0.07067 0.50184 0.09661 0.0
N96 N 0.0421 0.44781 0.10233 0.0
C97 C 0.03397 0.43677 0.11446 0.0
C98 C 1.00842 0.38129 0.10741 0.0
C99 C 1.01686 0.40363 0.11713 0.0
H100 H 0.09164 0.50899 0.06656 0.0
H101 H 1.01004 0.39537 0.12672 0.0
H102 H 0.99758 0.34479 0.08665 0.0
H103 H 0.0817 0.47277 0.04839 0.0
H104 H 0.03898 0.45287 0.12226 0.0
H105 H 0.07895 0.64991 0.07903 0.0
H106 H 0.99525 0.35558 0.10953 0.0
H107 H 1.01126 0.53639 0.13917 0.0
H108 H 0.04714 0.59272 0.08331 0.0
H109 H 0.02768 0.57247 0.15774 0.0
H110 H 1.01666 0.36571 0.06534 0.0
H111 H 0.10549 0.68907 0.09628 0.0
H112 H 0.11366 0.69939 0.1194 0.0
H113 H 0.048 0.41329 0.051 0.0
H114 H 0.09949 0.67835 0.14097 0.0
N115 N 0.0562 0.59656 0.1033 0.0
C116 C 0.05871 0.60815 0.09123 0.0
C117 C 0.09166 0.66335 0.09835 0.0
C118 C 0.08727 0.65196 0.11069 0.0
C119 C 0.07669 0.64135 0.08861 0.0
C120 C 0.069 0.61813 0.11288 0.0
H121 H 0.06674 0.63113 0.15534 0.0
N122 N 0.04201 0.574 0.12652 0.0
C123 C 0.03772 0.5823 0.14859 0.0
C124 C 0.06157 0.60638 0.12494 0.0
C125 C 0.02847 0.56198 0.13806 0.0
C126 C 0.05983 0.61537 0.14721 0.0
C127 C 0.07147 0.62795 0.13523 0.0
O128 O 0.98141 0.52323 0.11607 0.0
O129 O 0.02397 0.49714 0.10145 0.0
O130 O 0.04269 0.50251 0.08065 0.0
O131 O 0.02924 0.54073 0.08768 0.0
O132 O 0.99954 0.49478 0.1177 0.0
O133 O 0.99562 0.55193 0.09941 0.0
O134 O 0.11828 0.52528 0.08982 0.0
O135 O 0.07415 0.54563 0.1041 0.0
O136 O 0.05696 0.53644 0.12522 0.0
O137 O 0.07739 0.50449 0.117 0.0
O138 O 0.09997 0.55015 0.08817 0.0
O139 O 0.10388 0.48945 0.1046 0.0
C140 C 1.00333 0.47753 0.10927 0.0
C141 C 0.95389 0.55233 0.11189 0.0
C142 C 0.90486 0.55775 0.11162 0.0
C143 C 0.92366 0.54497 0.1064 0.0
C144 C 0.91675 0.57787 0.12224 0.0
C145 C 0.9652 0.5732 0.1223 0.0
C146 C 0.9467 0.58567 0.12746 0.0
C147 C 0.03344 0.52394 0.0785 0.0
C148 C 0.97231 0.53641 0.10747 0.0
C149 C 0.09128 0.66144 0.13318 0.0
C150 C 0.0993 0.67342 0.1209 0.0
C151 C 0.09439 0.56619 0.09659 0.0
C152 C 0.15194 0.50305 0.09283 0.0
C153 C 0.1809 0.5149 0.09962 0.0
C154 C 0.20769 0.51492 0.09419 0.0
C155 C 0.20534 0.50237 0.08205 0.0
C156 C 0.14948 0.48988 0.0808 0.0
C157 C 0.17616 0.48956 0.07544 0.0
C158 C 0.07225 0.51919 0.12651 0.0
C159 C 0.12762 0.51055 0.09761 0.0
H160 H 0.91447 0.5288 0.09838 0.0
H161 H 0.90277 0.58774 0.12649 0.0
H162 H 0.98814 0.57949 0.12663 0.0
H163 H 0.95551 0.60129 0.13562 0.0
H164 H 0.18315 0.52559 0.10884 0.0
H165 H 0.22606 0.50238 0.07775 0.0
H166 H 0.12746 0.48077 0.07541 0.0
H167 H 0.17442 0.47994 0.06607 0.0
Tb168 Tb 0.54026 0.5194 0.10848 0.0
C169 C 0.64735 0.63926 0.08121 0.0
C170 C 0.69248 0.6594 0.09579 0.0
C171 C 0.70285 0.67328 0.0737 0.0
C172 C 0.65864 0.64164 0.09341 0.0
C173 C 0.66942 0.65555 0.07127 0.0
C174 C 0.71435 0.67509 0.0859 0.0
C175 C 0.62393 0.63788 0.05723 0.0
N176 N 0.61489 0.622 0.07908 0.0
C177 C 0.60305 0.62245 0.06729 0.0
C178 C 0.65731 0.65431 0.05919 0.0
Tb179 Tb 0.58251 0.60109 0.09663 0.0
N180 N 0.63681 0.62667 0.10289 0.0
C181 C 0.64828 0.62787 0.11491 0.0
C182 C 0.70363 0.66098 0.10803 0.0
C183 C 0.68144 0.64491 0.11758 0.0
H184 H 0.57722 0.61037 0.06546 0.0
H185 H 0.68987 0.64533 0.12707 0.0
H186 H 0.74029 0.6889 0.08762 0.0
H187 H 0.61419 0.63737 0.04798 0.0
H188 H 0.63291 0.61472 0.12269 0.0
H189 H 0.4316 0.48271 0.08064 0.0
H190 H 0.72937 0.67423 0.11018 0.0
H191 H 0.54962 0.50989 0.13866 0.0
H192 H 0.4897 0.51199 0.08492 0.0
H193 H 0.51488 0.48429 0.15729 0.0
H194 H 0.72004 0.68591 0.06619 0.0
H195 H 0.39269 0.45336 0.09778 0.0
H196 H 0.38339 0.43755 0.12056 0.0
H197 H 0.67351 0.66657 0.05138 0.0
H198 H 0.40602 0.4391 0.14153 0.0
N199 N 0.48556 0.49736 0.10405 0.0
C200 C 0.4738 0.49771 0.09233 0.0
C201 C 0.41858 0.46548 0.09962 0.0
C202 C 0.43048 0.46566 0.11165 0.0
C203 C 0.44041 0.48179 0.08993 0.0
C204 C 0.46446 0.482 0.11355 0.0
H205 H 0.455 0.45694 0.15536 0.0
N206 N 0.50994 0.49952 0.12654 0.0
C207 C 0.50393 0.48416 0.14836 0.0
C208 C 0.47712 0.48338 0.12527 0.0
C209 C 0.52353 0.49895 0.13783 0.0
C210 C 0.47015 0.46866 0.14723 0.0
C211 C 0.45629 0.46775 0.13554 0.0
O212 O 0.56155 0.49096 0.11326 0.0
O213 O 0.58558 0.55812 0.10071 0.0
O214 O 0.57298 0.56949 0.08045 0.0
O215 O 0.54 0.51642 0.08746 0.0
O216 O 0.58721 0.53716 0.11738 0.0
O217 O 0.52247 0.47275 0.1003 0.0
O218 O 0.55538 0.615 0.08534 0.0
O219 O 0.53596 0.55769 0.09993 0.0
O220 O 0.54742 0.55367 0.12487 0.0
O221 O 0.584 0.60566 0.11691 0.0
O222 O 0.54206 0.60138 0.10609 0.0
O223 O 0.59414 0.65014 0.09784 0.0
C224 C 0.60482 0.55694 0.10866 0.0
C225 C 0.53058 0.43376 0.11153 0.0
C226 C 0.52659 0.38012 0.11118 0.0
C227 C 0.53688 0.41074 0.10555 0.0
C228 C 0.51067 0.37316 0.12284 0.0
C229 C 0.51415 0.42564 0.12309 0.0
C230 C 0.50456 0.39575 0.12873 0.0
C231 C 0.55435 0.53822 0.07833 0.0
C232 C 0.54288 0.46671 0.10612 0.0
C233 C 0.42242 0.45127 0.13376 0.0
C234 C 0.40953 0.45027 0.12183 0.0
C235 C 0.52183 0.57102 0.10527 0.0
C236 C 0.56358 0.66939 0.08553 0.0
C237 C 0.56354 0.6923 0.09393 0.0
C238 C 0.5546 0.71467 0.08959 0.0
C239 C 0.54563 0.71382 0.07696 0.0
C240 C 0.55439 0.66886 0.07297 0.0
C241 C 0.54554 0.69104 0.06871 0.0
C242 C 0.56725 0.58602 0.12628 0.0
C243 C 0.57074 0.64439 0.08991 0.0
H244 H 0.54962 0.41658 0.09664 0.0
H245 H 0.50294 0.35006 0.12742 0.0
H246 H 0.5089 0.44245 0.12784 0.0
H247 H 0.49231 0.39005 0.13774 0.0
H248 H 0.57032 0.6927 0.10368 0.0
H249 H 0.53884 0.73102 0.07346 0.0
H250 H 0.554 0.6512 0.06642 0.0
H251 H 0.5386 0.69061 0.059 0.0
Tb252 Tb 0.06053 0.55746 0.91239 0.0
C253 C 0.03736 0.43342 0.94007 0.0
C254 C 0.06348 0.41393 0.92574 0.0
C255 C 0.05642 0.39755 0.94765 0.0
C256 C 0.04803 0.43224 0.9281 0.0
C257 C 0.04093 0.41565 0.94995 0.0
C258 C 0.06774 0.39677 0.93558 0.0
C259 C 1.01175 0.4332 0.96345 0.0
N260 N 0.02271 0.45129 0.94198 0.0
C261 C 1.00868 0.45024 0.95335 0.0
C262 C 0.02825 0.41606 0.96178 0.0
Tb263 Tb 1.01659 0.47641 0.92473 0.0
N264 N 0.04353 0.44919 0.91882 0.0
C265 C 0.0539 0.44828 0.90684 0.0
C266 C 0.07422 0.41335 0.91356 0.0
C267 C 0.06942 0.43065 0.90409 0.0
H268 H 0.99551 0.46309 0.95463 0.0
H269 H 0.07785 0.43063 0.89463 0.0
H270 H 0.07955 0.38261 0.93393 0.0
H271 H 1.00119 0.43311 0.97248 0.0
H272 H 0.05181 0.46203 0.89929 0.0
H273 H 1.01603 0.62124 0.94198 0.0
H274 H 0.08628 0.39969 0.91138 0.0
H275 H 0.07755 0.56915 0.88195 0.0
H276 H 0.04766 0.59538 0.93754 0.0
H277 H 0.05948 0.58714 0.86335 0.0
H278 H 0.05949 0.38384 0.95513 0.0
H279 H 0.98673 0.63122 0.92499 0.0
H280 H 0.97532 0.63012 0.90195 0.0
H281 H 0.03048 0.4027 0.9696 0.0
H282 H 0.98742 0.62106 0.88031 0.0
N283 N 0.03516 0.58697 0.91789 0.0
C284 C 0.03448 0.59783 0.92982 0.0
C285 C 1.00031 0.61901 0.92289 0.0
C286 C 1.0031 0.61042 0.9106 0.0
C287 C 1.01678 0.61341 0.93249 0.0
C288 C 0.02122 0.59467 0.90838 0.0
H289 H 0.01975 0.60604 0.86582 0.0
N290 N 0.04735 0.5766 0.89475 0.0
C291 C 0.05 0.58752 0.87256 0.0
C292 C 0.0276 0.58926 0.89633 0.0
C293 C 0.06025 0.57747 0.88312 0.0
C294 C 0.02749 0.59805 0.87398 0.0
C295 C 1.01662 0.59982 0.88602 0.0
O296 O 0.10767 0.58458 0.90478 0.0
O297 O 0.06465 0.51764 0.92034 0.0
O298 O 0.04522 0.50411 0.94074 0.0
O299 O 0.05949 0.55602 0.93374 0.0
O300 O 0.0871 0.53693 0.90356 0.0
O301 O 0.09574 0.60014 0.92173 0.0
O302 O 0.9688 0.45725 0.93075 0.0
O303 O 1.01482 0.51743 0.91704 0.0
O304 O 0.03199 0.52411 0.89615 0.0
O305 O 1.01039 0.47168 0.90436 0.0
O306 O 0.98995 0.49833 0.93329 0.0
O307 O 0.98088 0.42954 0.91815 0.0
C308 C 0.08525 0.51807 0.9126 0.0
C309 C 0.13775 0.64099 0.909 0.0
C310 C 0.18616 0.6954 0.9104 0.0
C311 C 0.16684 0.66357 0.91523 0.0
C312 C 0.17641 0.70393 0.89926 0.0
C313 C 0.12861 0.65071 0.89801 0.0
C314 C 0.14795 0.68179 0.89314 0.0
C315 C 0.05494 0.53491 0.94295 0.0
C316 C 0.11825 0.60684 0.9134 0.0
C317 C 0.99658 0.61332 0.88811 0.0
C318 C 0.98973 0.61852 0.90042 0.0
C319 C 0.99574 0.51952 0.92465 0.0
C320 C 0.93175 0.40172 0.93056 0.0
C321 C 0.90751 0.37694 0.92318 0.0
C322 C 0.8796 0.35188 0.92893 0.0
C323 C 0.87582 0.35201 0.94203 0.0
C324 C 0.92735 0.4013 0.94367 0.0
C325 C 0.89962 0.37657 0.94934 0.0
C326 C 1.01608 0.49162 0.89485 0.0
C327 C 0.95776 0.43075 0.92435 0.0
H328 H 0.17431 0.65649 0.92371 0.0
H329 H 0.191 0.72795 0.89527 0.0
H330 H 0.10671 0.63415 0.89305 0.0
H331 H 0.14085 0.68875 0.88454 0.0
H332 H 0.91001 0.3775 0.91304 0.0
H333 H 0.85414 0.33322 0.94659 0.0
H334 H 0.94444 0.42081 0.94956 0.0
H335 H 0.89624 0.37682 0.95939 0.0
Tb336 Tb 0.52898 0.53774 0.91324 0.0
C337 C 0.65066 0.64057 0.93914 0.0
C338 C 0.67659 0.6833 0.92363 0.0
C339 C 0.68862 0.69605 0.94571 0.0
C340 C 0.65501 0.65036 0.92672 0.0
C341 C 0.66782 0.66337 0.94876 0.0
C342 C 0.69314 0.70595 0.93317 0.0
C343 C 0.64623 0.61961 0.96368 0.0
N344 N 0.63098 0.60864 0.94179 0.0
C345 C 0.63036 0.59795 0.95387 0.0
C346 C 0.66469 0.65257 0.96115 0.0
Tb347 Tb 0.6104 0.57427 0.9247 0.0
N348 N 0.6378 0.628 0.91771 0.0
C349 C 0.63981 0.63844 0.90547 0.0
C350 C 0.6806 0.6928 0.91104 0.0
C351 C 0.66184 0.6703 0.90194 0.0
H352 H 0.61881 0.57253 0.95615 0.0
H353 H 0.66324 0.67778 0.89224 0.0
H354 H 0.7095 0.73125 0.93094 0.0
H355 H 0.64503 0.61067 0.97314 0.0
H356 H 0.62333 0.6236 0.89826 0.0
H357 H 0.48468 0.42935 0.94224 0.0
H358 H 0.69702 0.71773 0.90832 0.0
H359 H 0.51659 0.54524 0.88314 0.0
H360 H 0.51032 0.48702 0.93826 0.0
H361 H 0.49343 0.50988 0.86452 0.0
H362 H 0.70185 0.71377 0.95297 0.0
H363 H 0.46342 0.39038 0.92464 0.0
H364 H 0.45305 0.38064 0.90157 0.0
H365 H 0.67756 0.6693 0.96875 0.0
H366 H 0.45586 0.40252 0.88036 0.0
N367 N 0.50533 0.48307 0.91825 0.0
C368 C 0.5017 0.47136 0.93029 0.0
C369 C 0.4749 0.41618 0.92276 0.0
C370 C 0.47748 0.42786 0.91053 0.0
C371 C 0.48683 0.43806 0.93269 0.0
C372 C 0.49288 0.46178 0.90857 0.0
H373 H 0.47081 0.45062 0.86647 0.0
N374 N 0.50949 0.50671 0.89531 0.0
C375 C 0.49416 0.4995 0.87348 0.0
C376 C 0.49517 0.47405 0.89668 0.0
C377 C 0.50745 0.51945 0.88402 0.0
C378 C 0.48139 0.46607 0.87462 0.0
C379 C 0.48119 0.45285 0.88636 0.0
O380 O 0.49885 0.55591 0.90701 0.0
O381 O 0.56875 0.58134 0.92179 0.0
O382 O 0.57887 0.55452 0.94084 0.0
O383 O 0.52723 0.54201 0.93429 0.0
O384 O 0.54852 0.58659 0.90575 0.0
O385 O 0.48305 0.52164 0.92193 0.0
O386 O 0.62654 0.54945 0.9364 0.0
O387 O 0.56558 0.52931 0.92103 0.0
O388 O 0.56263 0.54593 0.89617 0.0
O389 O 0.615 0.57455 0.90464 0.0
O390 O 0.60826 0.5335 0.91455 0.0
O391 O 0.65911 0.58568 0.92264 0.0
C392 C 0.56818 0.60268 0.91475 0.0
C393 C 0.44157 0.5249 0.91024 0.0
C394 C 0.38704 0.51941 0.91111 0.0
C395 C 0.41854 0.53125 0.91629 0.0
C396 C 0.37917 0.5016 0.89988 0.0
C397 C 0.43239 0.50639 0.89918 0.0
C398 C 0.40159 0.4951 0.89401 0.0
C399 C 0.54851 0.54588 0.94328 0.0
C400 C 0.4756 0.53939 0.91497 0.0
C401 C 0.46651 0.41915 0.88818 0.0
C402 C 0.46478 0.40668 0.90025 0.0
C403 C 0.57754 0.51434 0.91534 0.0
C404 C 0.68144 0.5585 0.93498 0.0
C405 C 0.70335 0.55873 0.92603 0.0
C406 C 0.72742 0.55162 0.92975 0.0
C407 C 0.72961 0.54451 0.9424 0.0
C408 C 0.68366 0.55104 0.94757 0.0
C409 C 0.7078 0.54423 0.95125 0.0
C410 C 0.59541 0.56232 0.89492 0.0
C411 C 0.6552 0.56433 0.93118 0.0
H412 H 0.42518 0.5456 0.92482 0.0
H413 H 0.35548 0.49269 0.89562 0.0
H414 H 0.44912 0.50095 0.89441 0.0
H415 H 0.3951 0.48133 0.88535 0.0
H416 H 0.70148 0.56399 0.91624 0.0
H417 H 0.74822 0.53912 0.9454 0.0
H418 H 0.66678 0.55055 0.95455 0.0
H419 H 0.70957 0.53865 0.96098 0.0
Tb420 Tb 0.54806 0.02252 0.91258 0.0
C421 C 0.44342 0.04373 0.94019 0.0
C422 C 0.39937 0.02142 0.92514 0.0
C423 C 0.38848 0.02781 0.94694 0.0
C424 C 0.43264 0.03464 0.92803 0.0
C425 C 0.42154 0.04074 0.94978 0.0
C426 C 0.37742 0.01821 0.93464 0.0
C427 C 0.46695 0.06578 0.96407 0.0
N428 N 0.47548 0.05614 0.94257 0.0
C429 C 0.48766 0.06873 0.95419 0.0
C430 C 0.43363 0.0514 0.96189 0.0
Tb431 Tb 0.50812 0.06327 0.92562 0.0
N432 N 0.45447 0.03733 0.91918 0.0
C433 C 0.44401 0.02686 0.90714 0.0
C434 C 0.38899 1.01134 0.91283 0.0
C435 C 0.41141 0.01392 0.90382 0.0
H436 H 0.51348 0.08178 0.95575 0.0
H437 H 0.40359 1.00575 0.8943 0.0
H438 H 0.35183 1.00817 0.93258 0.0
H439 H 0.47679 0.0753 0.97328 0.0
H440 H 0.46011 0.02744 0.89989 0.0
H441 H 0.65816 0.075 0.94153 0.0
H442 H 0.36368 1.00113 0.91024 0.0
H443 H 0.54072 1.00524 0.88225 0.0
H444 H 0.60074 0.04243 0.93781 0.0
H445 H 0.57586 0.02108 0.86339 0.0
H446 H 0.3713 0.0253 0.95418 0.0
H447 H 0.69631 0.10051 0.92387 0.0
H448 H 0.70532 0.10687 0.90066 0.0
H449 H 0.41761 0.04948 0.96951 0.0
H450 H 0.68301 0.09211 0.87929 0.0
N451 N 0.60326 0.05005 0.91773 0.0
C452 C 0.61563 0.05349 0.92971 0.0
C453 C 0.67044 0.0863 0.92205 0.0
C454 C 0.65832 0.08088 0.90981 0.0
C455 C 0.64901 0.07197 0.93201 0.0
C456 C 0.62431 0.06232 0.90794 0.0
H457 H 0.63488 0.05946 0.86533 0.0
N458 N 0.57927 0.03542 0.89466 0.0
C459 C 0.58627 0.03104 0.87248 0.0
C460 C 0.61185 0.05461 0.89597 0.0
C461 C 0.56649 0.02212 0.88317 0.0
C462 C 0.61955 0.05274 0.8736 0.0
C463 C 0.63286 0.06433 0.88548 0.0
O464 O 0.52954 0.97565 0.9051 0.0
O465 O 0.50349 0.01628 0.92098 0.0
O466 O 0.50939 0.03507 0.94137 0.0
O467 O 0.54829 0.02289 0.93387 0.0
O468 O 0.50026 0.99403 0.90426 0.0
O469 O 0.55895 0.98903 0.92156 0.0
O470 O 0.53121 0.11005 0.93328 0.0
O471 O 0.5517 0.06718 0.91781 0.0
O472 O 0.54282 0.05158 0.89653 0.0
O473 O 0.51007 0.07005 0.90542 0.0
O474 O 0.55664 0.09248 0.9339 0.0
O475 O 0.49991 0.09852 0.91707 0.0
C476 C 0.48319 0.99507 0.91348 0.0
C477 C 0.55739 0.94667 0.90875 0.0
C478 C 0.56412 0.8985 0.90976 0.0
C479 C 0.5521 0.91796 0.91499 0.0
C480 C 0.58048 0.90769 0.89818 0.0
C481 C 0.57441 0.95517 0.89731 0.0
C482 C 0.58551 0.93567 0.89203 0.0
C483 C 0.5318 0.02685 0.94328 0.0
C484 C 0.54272 0.96599 0.91348 0.0
C485 C 0.66653 0.08408 0.88724 0.0
C486 C 0.67923 0.09245 0.8994 0.0
C487 C 0.57246 0.08733 0.92525 0.0
C488 C 0.51093 0.14498 0.92911 0.0
C489 C 0.52537 0.1751 0.92301 0.0
C490 C 0.52232 0.20056 0.92808 0.0
C491 C 0.50424 0.19563 0.93914 0.0
C492 C 0.49236 0.14004 0.94 0.0
C493 C 0.48909 0.16537 0.945 0.0
C494 C 0.52528 0.0667 0.89568 0.0
C495 C 0.51947 0.12107 0.92482 0.0
H496 H 0.5388 0.91087 0.92378 0.0
H497 H 0.58925 0.89292 0.89379 0.0
H498 H 0.57866 0.97662 0.89228 0.0
H499 H 0.598 0.94222 0.88307 0.0
H500 H 0.54002 0.17912 0.91465 0.0
H501 H 0.50167 0.21517 0.94316 0.0
H502 H 0.48098 0.11701 0.94478 0.0
H503 H 0.47514 0.16167 0.95351 0.0
Tb504 Tb 0.23159 0.38601 0.44177 0.0
C505 C 0.11399 0.37344 0.41412 0.0
C506 C 0.09321 0.39814 0.42862 0.0
C507 C 0.08137 0.39637 0.4064 0.0
C508 C 0.11114 0.38216 0.42631 0.0
C509 C 0.09855 0.38001 0.40409 0.0
C510 C 0.07871 0.40539 0.41862 0.0
C511 C 0.11417 0.35002 0.39029 0.0
N512 N 0.12984 0.35667 0.41216 0.0
C513 C 0.12827 0.34333 0.4005 0.0
C514 C 0.09953 0.36876 0.39206 0.0
Tb515 Tb 0.14946 0.3444 0.42991 0.0
N516 N 0.1246 0.37394 0.43592 0.0
C517 C 0.12085 0.38178 0.44807 0.0
C518 C 0.08957 0.4058 0.44095 0.0
C519 C 0.10349 0.3976 0.45068 0.0
H520 H 0.13818 0.32748 0.39892 0.0
H521 H 0.10112 0.40373 0.46028 0.0
H522 H 0.0648 0.41747 0.42029 0.0
H523 H 0.11402 0.3401 0.38111 0.0
H524 H 0.132 0.37767 0.45609 0.0
H525 H 0.27647 0.32194 0.41349 0.0
H526 H 0.07595 0.41794 0.44306 0.0
H527 H 0.24051 0.40476 0.47199 0.0
H528 H 0.24549 0.3492 0.41774 0.0
H529 H 0.26404 0.39389 0.49086 0.0
H530 H 0.06935 0.40147 0.39882 0.0
H531 H 0.30329 0.31017 0.43097 0.0
H532 H 0.31457 0.31243 0.45412 0.0
H533 H 0.08797 0.37336 0.38417 0.0
H534 H 0.30936 0.33015 0.47531 0.0
N535 N 0.25569 0.3554 0.43727 0.0
C536 C 0.25801 0.34584 0.42537 0.0
C537 C 0.28989 0.32264 0.43285 0.0
C538 C 0.28703 0.33182 0.44505 0.0
C539 C 0.2751 0.32953 0.42296 0.0
C540 C 0.26971 0.34849 0.44695 0.0
H541 H 0.29028 0.36029 0.48913 0.0
N542 N 0.25079 0.37526 0.45994 0.0
C543 C 0.26467 0.38344 0.4819 0.0
C544 C 0.26673 0.35836 0.45875 0.0
C545 C 0.25117 0.38935 0.47123 0.0
C546 C 0.27947 0.36449 0.48089 0.0
C547 C 0.28129 0.35226 0.46916 0.0
O548 O 0.26048 0.4352 0.44717 0.0
O549 O 0.19182 0.39098 0.43416 0.0
O550 O 0.18048 0.36075 0.41335 0.0
O551 O 0.23386 0.39083 0.42065 0.0
O552 O 0.2131 0.41498 0.45055 0.0
O553 O 0.27771 0.41542 0.43326 0.0
O554 O 0.12866 0.30073 0.41987 0.0
O555 O 0.19416 0.34313 0.43306 0.0
O556 O 0.19763 0.35697 0.45807 0.0
O557 O 0.14598 0.34181 0.45012 0.0
O558 O 0.15111 0.30319 0.43805 0.0
O559 O 0.10047 0.31035 0.43392 0.0
C560 C 0.19254 0.41149 0.44194 0.0
C561 C 0.31788 0.4609 0.44484 0.0
C562 C 0.37178 0.51063 0.44503 0.0
C563 C 0.34096 0.49101 0.43932 0.0
C564 C 0.37906 0.49958 0.45613 0.0
C565 C 0.32651 0.45057 0.45577 0.0
C566 C 0.35675 0.46979 0.46138 0.0
C567 C 0.21195 0.37874 0.41138 0.0
C568 C 0.28438 0.44127 0.43964 0.0
C569 C 0.29808 0.33515 0.46743 0.0
C570 C 0.3011 0.32511 0.45538 0.0
C571 C 0.18179 0.315 0.43771 0.0
C572 C 0.07216 0.26156 0.42152 0.0
C573 C 0.05579 0.23426 0.42932 0.0
C574 C 0.02935 0.20588 0.42465 0.0
C575 C 1.01883 0.20519 0.41226 0.0
C576 C 0.06155 0.26071 0.40917 0.0
C577 C 0.03476 0.23257 0.4046 0.0
C578 C 0.16514 0.34374 0.45944 0.0
C579 C 0.10167 0.28936 0.4263 0.0
H580 H 0.33472 0.49944 0.43088 0.0
H581 H 0.40232 0.51406 0.46073 0.0
H582 H 0.30979 0.42779 0.46011 0.0
H583 H 0.36286 0.46162 0.46991 0.0
H584 H 0.06421 0.23476 0.43884 0.0
H585 H 0.99818 0.18345 0.40855 0.0
H586 H 0.07407 0.28152 0.40306 0.0
H587 H 0.02651 0.23184 0.39506 0.0
Tb588 Tb 0.69766 0.87416 0.44071 0.0
C589 C 0.70503 0.76615 0.41594 0.0
C590 C 0.68427 0.72405 0.4318 0.0
C591 C 0.68199 0.70939 0.40987 0.0
C592 C 0.69993 0.75729 0.42847 0.0
C593 C 0.69647 0.74218 0.40651 0.0
C594 C 0.67558 0.70032 0.42247 0.0
C595 C 0.71846 0.78443 0.39099 0.0
N596 N 0.71895 0.7981 0.41295 0.0
C597 C 0.72633 0.80721 0.40053 0.0
C598 C 0.70335 0.75172 0.39397 0.0
Tb599 Tb 0.7398 0.83388 0.42973 0.0
N600 N 0.70966 0.78093 0.43735 0.0
C601 C 0.70247 0.77199 0.44978 0.0
C602 C 0.67757 0.71539 0.44442 0.0
C603 C 0.68632 0.73946 0.45341 0.0
H604 H 0.74043 0.83215 0.39767 0.0
H605 H 0.68057 0.73301 0.46322 0.0
H606 H 0.66397 0.67482 0.42491 0.0
H607 H 0.72502 0.7923 0.38134 0.0
H608 H 0.70728 0.78904 0.45719 0.0
H609 H 0.76553 0.98241 0.41217 0.0
H610 H 0.66529 0.69017 0.44731 0.0
H611 H 0.67901 0.86539 0.47127 0.0
H612 H 0.73329 0.9245 0.416 0.0
H613 H 0.68956 0.90079 0.48973 0.0
H614 H 0.67555 0.69082 0.40277 0.0
H615 H 0.78049 0.02112 0.42977 0.0
H616 H 0.77671 0.03056 0.45267 0.0
H617 H 0.69771 0.7341 0.38654 0.0
H618 H 0.7562 1.00845 0.47372 0.0
N619 N 0.72997 0.92842 0.43588 0.0
C620 C 0.73936 0.9402 0.42393 0.0
C621 C 0.76626 0.99528 0.43158 0.0
C622 C 0.7558 0.98343 0.44372 0.0
C623 C 0.75784 0.97354 0.42164 0.0
C624 C 0.73751 0.94949 0.44561 0.0
H625 H 0.72384 0.96028 0.48758 0.0
N626 N 0.70864 0.90427 0.45888 0.0
C627 C 0.7004 0.91129 0.48074 0.0
C628 C 0.72648 0.93702 0.45747 0.0
C629 C 0.69469 0.89133 0.47028 0.0
C630 C 0.71971 0.94485 0.47949 0.0
C631 C 0.73276 0.95816 0.46775 0.0
O632 O 0.64635 0.85031 0.44239 0.0
O633 O 0.69209 0.82883 0.43319 0.0
O634 O 0.73332 0.85918 0.41404 0.0
O635 O 0.69186 0.86883 0.41978 0.0
O636 O 0.66986 0.82813 0.45015 0.0
O637 O 0.67135 0.89807 0.43542 0.0
O638 O 0.77565 0.84848 0.41607 0.0
O639 O 0.74206 0.88015 0.43279 0.0
O640 O 0.72389 0.86699 0.4575 0.0
O641 O 0.74779 0.83704 0.4499 0.0
O642 O 0.78109 0.87542 0.43844 0.0
O643 O 0.77515 0.81912 0.4316 0.0
C644 C 0.67187 0.8102 0.44143 0.0
C645 C 0.61936 0.88051 0.44532 0.0
C646 C 0.57019 0.88641 0.44667 0.0
C647 C 0.59345 0.88268 0.43935 0.0
C648 C 0.57322 0.88699 0.45987 0.0
C649 C 0.621 0.88166 0.45846 0.0
C650 C 0.5984 0.88498 0.46562 0.0
C651 C 0.71023 0.86559 0.41109 0.0
C652 C 0.64291 0.87395 0.43824 0.0
C653 C 0.75114 0.99189 0.46594 0.0
C654 C 0.76275 1.00449 0.45396 0.0
C655 C 0.76997 0.89505 0.4378 0.0
C656 C 0.82578 0.85176 0.42038 0.0
C657 C 0.84566 0.84789 0.42926 0.0
C658 C 0.87924 0.86182 0.42695 0.0
C659 C 0.89271 0.87946 0.41586 0.0
C660 C 0.84 0.8695 0.4093 0.0
C661 C 0.87318 0.88327 0.4071 0.0
C662 C 0.74077 0.85124 0.45915 0.0
C663 C 0.7899 0.8342 0.42128 0.0
H664 H 0.59145 0.88148 0.4292 0.0
H665 H 0.55565 0.88851 0.4659 0.0
H666 H 0.6391 0.87869 0.46329 0.0
H667 H 0.60003 0.88537 0.47578 0.0
H668 H 0.83512 0.83344 0.43765 0.0
H669 H 0.91837 0.88962 0.41384 0.0
H670 H 0.82526 0.87195 0.40209 0.0
H671 H 0.88367 0.8963 0.39844 0.0
Tb672 Tb 0.20589 0.85012 0.44209 0.0
C673 C 0.30821 0.97028 0.41266 0.0
C674 C 0.35458 0.99054 0.42661 0.0
C675 C 0.3628 1.00444 0.40444 0.0
C676 C 0.32069 0.97235 0.42456 0.0
C677 C 0.32904 0.98688 0.40251 0.0
C678 C 0.37554 1.00614 0.41647 0.0
C679 C 0.28148 0.9698 0.38951 0.0
N680 N 0.27552 0.95338 0.41114 0.0
C681 C 0.26183 0.95387 0.39988 0.0
C682 C 0.31526 0.98614 0.3908 0.0
Tb683 Tb 0.24524 0.93056 0.42873 0.0
N684 N 0.29961 0.95771 0.43419 0.0
C685 C 0.31133 0.96138 0.44626 0.0
C686 C 0.36642 0.99325 0.43884 0.0
C687 C 0.34464 0.97875 0.4487 0.0
H688 H 0.23568 0.94149 0.39891 0.0
H689 H 0.35345 0.98077 0.45823 0.0
H690 H 0.4016 0.02017 0.41787 0.0
H691 H 0.27056 0.96962 0.38056 0.0
H692 H 0.29577 0.94997 0.4542 0.0
H693 H 0.09486 0.79562 0.41408 0.0
H694 H 0.39225 1.00684 0.44078 0.0
H695 H 0.21545 0.84146 0.47247 0.0
H696 H 0.1529 0.822 0.4175 0.0
H697 H 0.18129 0.8219 0.4916 0.0
H698 H 0.37922 0.01728 0.39676 0.0
H699 H 0.05735 0.78077 0.43213 0.0
H700 H 0.04949 0.77711 0.45544 0.0
H701 H 0.33045 0.9987 0.38278 0.0
H702 H 0.07298 0.78419 0.4766 0.0
N703 N 0.15063 0.82361 0.43755 0.0
C704 C 0.13786 0.81592 0.42563 0.0
C705 C 0.08332 0.79251 0.43375 0.0
C706 C 0.09602 0.79859 0.44592 0.0
C707 C 0.10436 0.80074 0.42357 0.0
C708 C 0.13013 0.81412 0.44752 0.0
H709 H 0.12198 0.80024 0.49013 0.0
N710 N 0.17606 0.83226 0.46039 0.0
C711 C 0.17032 0.82118 0.4826 0.0
C712 C 0.14331 0.81859 0.45936 0.0
C713 C 0.18957 0.83226 0.47177 0.0
C714 C 0.13687 0.80901 0.48174 0.0
C715 C 0.12285 0.80706 0.47 0.0
O716 O 0.22958 0.82399 0.44676 0.0
O717 O 0.25005 0.88942 0.43437 0.0
O718 O 0.24795 0.90124 0.41379 0.0
O719 O 0.20725 0.85034 0.42055 0.0
O720 O 0.25348 0.8687 0.45081 0.0
O721 O 0.18865 0.80252 0.43468 0.0
O722 O 0.22145 0.95453 0.42185 0.0
O723 O 0.20156 0.89072 0.43631 0.0
O724 O 0.21172 0.88458 0.4583 0.0
O725 O 0.2437 0.93493 0.44887 0.0
O726 O 0.19718 0.91037 0.4199 0.0
O727 O 0.25584 0.97491 0.43709 0.0
C728 C 0.27024 0.88949 0.44218 0.0
C729 C 0.20057 0.76652 0.44657 0.0
C730 C 0.19483 0.71176 0.44702 0.0
C731 C 0.20144 0.74038 0.44029 0.0
C732 C 0.18874 0.71067 0.46002 0.0
C733 C 0.1932 0.76339 0.45943 0.0
C734 C 0.18766 0.73598 0.46608 0.0
C735 C 0.22607 0.87076 0.41143 0.0
C736 C 0.21057 0.79832 0.44029 0.0
C737 C 0.08904 0.79287 0.46853 0.0
C738 C 0.07565 0.78877 0.45649 0.0
C739 C 0.181 0.88987 0.42865 0.0
C740 C 0.24375 1.01021 0.42552 0.0
C741 C 0.23001 0.0266 0.43165 0.0
C742 C 0.23362 0.05534 0.42657 0.0
C743 C 0.25151 0.06792 0.41544 0.0
C744 C 0.26215 0.02327 0.41456 0.0
C745 C 0.26595 0.05206 0.40954 0.0
C746 C 0.22961 0.91726 0.4589 0.0
C747 C 0.23515 0.97791 0.42999 0.0
H748 H 0.2071 0.74229 0.43035 0.0
H749 H 0.1848 0.68998 0.46562 0.0
H750 H 0.19275 0.78267 0.46451 0.0
H751 H 0.18278 0.73447 0.47608 0.0
H752 H 0.21557 0.01644 0.44009 0.0
H753 H 0.25452 0.09017 0.4114 0.0
H754 H 0.27305 1.01106 0.40977 0.0
H755 H 0.2798 0.06193 0.40099 0.0
Tb756 Tb 0.72899 0.88836 0.24633 0.0
C757 C 0.71106 0.77144 0.27335 0.0
C758 C 0.72449 0.74151 0.25836 0.0
C759 C 0.72828 0.73368 0.28064 0.0
C760 C 0.71439 0.76436 0.26101 0.0
C761 C 0.71768 0.75577 0.28329 0.0
C762 C 0.73156 0.72647 0.26821 0.0
C763 C 0.69865 0.78111 0.29787 0.0
N764 N 0.69956 0.79202 0.27565 0.0
C765 C 0.69203 0.79571 0.28782 0.0
C766 C 0.71197 0.76143 0.29563 0.0
Tb767 Tb 0.68187 0.80785 0.25823 0.0
N768 N 0.70763 0.77953 0.25164 0.0
C769 C 0.7125 0.77364 0.23935 0.0
C770 C 0.72718 0.73421 0.24586 0.0
C771 C 0.72139 0.75056 0.23633 0.0
H772 H 0.67888 0.80808 0.29006 0.0
H773 H 0.7249 0.74628 0.2266 0.0
H774 H 0.73936 0.70902 0.2663 0.0
H775 H 0.69208 0.78385 0.30732 0.0
H776 H 0.71185 0.78751 0.23158 0.0
H777 H 0.67209 0.93901 0.27604 0.0
H778 H 0.73466 0.71674 0.24349 0.0
H779 H 0.748 0.9004 0.21612 0.0
H780 H 0.70345 0.9126 0.27159 0.0
H781 H 0.73536 0.92356 0.19762 0.0
H782 H 0.73331 0.72145 0.28816 0.0
H783 H 0.65294 0.95952 0.25863 0.0
H784 H 0.6519 0.96891 0.2355 0.0
H785 H 0.71635 0.74954 0.30346 0.0
H786 H 0.66816 0.96375 0.21408 0.0
N787 N 0.69987 0.91381 0.25163 0.0
C788 C 0.69421 0.91942 0.26376 0.0
C789 C 0.66599 0.94677 0.25657 0.0
C790 C 0.67326 0.94272 0.2442 0.0
C791 C 0.67676 0.93526 0.26639 0.0
C792 C 0.6904 0.92593 0.24203 0.0
H793 H 0.69932 0.94694 0.19986 0.0
N794 N 0.717 0.90782 0.2285 0.0
C795 C 0.7246 0.92305 0.20665 0.0
C796 C 0.69909 0.92262 0.23002 0.0
C797 C 0.73151 0.90977 0.21712 0.0
C798 C 0.70423 0.93619 0.20794 0.0
C799 C 0.69187 0.93687 0.21979 0.0
O800 O 0.77696 0.91845 0.2396 0.0
O801 O 0.73129 0.84771 0.2548 0.0
O802 O 0.68855 0.84148 0.27321 0.0
O803 O 0.73619 0.88727 0.26725 0.0
O804 O 0.75637 0.86697 0.23854 0.0
O805 O 0.76004 0.93338 0.25528 0.0
O806 O 0.64225 0.78676 0.27078 0.0
O807 O 0.68309 0.85324 0.25414 0.0
O808 O 0.70316 0.85496 0.22938 0.0
O809 O 0.67702 0.8033 0.2383 0.0
O810 O 0.64302 0.81096 0.24858 0.0
O811 O 0.64531 0.75961 0.25462 0.0
C812 C 0.75232 0.84715 0.24756 0.0
C813 C 0.80239 0.9756 0.24308 0.0
C814 C 0.8514 0.03029 0.24238 0.0
C815 C 0.83388 0.99859 0.24768 0.0
C816 C 0.83667 0.03843 0.23267 0.0
C817 C 0.78864 0.98521 0.23354 0.0
C818 C 0.80564 0.01623 0.22838 0.0
C819 C 0.7153 0.86839 0.27609 0.0
C820 C 0.78446 0.94139 0.24779 0.0
C821 C 0.67402 0.95276 0.22182 0.0
C822 C 0.66476 0.9557 0.23402 0.0
C823 C 0.65589 0.84189 0.24874 0.0
C824 C 0.59784 0.73172 0.26804 0.0
C825 C 0.57307 0.7149 0.25913 0.0
C826 C 0.54316 0.68869 0.263 0.0
C827 C 0.53871 0.67886 0.27565 0.0
C828 C 0.59288 0.72181 0.28064 0.0
C829 C 0.5635 0.69525 0.28439 0.0
C830 C 0.68517 0.82233 0.22842 0.0
C831 C 0.62882 0.75981 0.26438 0.0
H832 H 0.84492 0.99166 0.25506 0.0
H833 H 0.8492 0.06233 0.22842 0.0
H834 H 0.76478 0.96869 0.22996 0.0
H835 H 0.79473 0.02309 0.22093 0.0
H836 H 0.57672 0.72261 0.24938 0.0
H837 H 0.51593 0.65838 0.27875 0.0
H838 H 0.61187 0.73446 0.28755 0.0
H839 H 0.55986 0.68745 0.2941 0.0
Tb840 Tb 0.19114 0.86524 0.24582 0.0
C841 C 0.31301 0.9693 0.27474 0.0
C842 C 0.33362 0.01646 0.26122 0.0
C843 C 0.34945 0.02296 0.2832 0.0
C844 C 0.31473 0.98258 0.26302 0.0
C845 C 0.33071 0.98925 0.28493 0.0
C846 C 0.35081 0.03654 0.27138 0.0
C847 C 0.31197 0.94089 0.29755 0.0
N848 N 0.29496 0.93667 0.27605 0.0
C849 C 0.29512 0.92213 0.28713 0.0
C850 C 0.3297 0.97465 0.29647 0.0
Tb851 Tb 0.27182 0.9077 0.25826 0.0
N852 N 0.29837 0.96232 0.25337 0.0
C853 C 0.30028 0.97494 0.24156 0.0
C854 C 0.33507 0.02919 0.24925 0.0
C855 C 0.31826 1.00829 0.23939 0.0
H856 H 0.2819 0.89597 0.28792 0.0
H857 H 0.31913 0.01783 0.23007 0.0
H858 H 0.36553 0.06256 0.27015 0.0
H859 H 0.31153 0.92931 0.30636 0.0
H860 H 0.28738 0.96009 0.23362 0.0
H861 H 0.14459 0.75724 0.27554 0.0
H862 H 0.34919 0.05505 0.2475 0.0
H863 H 0.1842 0.87242 0.21532 0.0
H864 H 0.17798 0.81424 0.27085 0.0
H865 H 0.15623 0.83681 0.19719 0.0
H866 H 0.36326 0.03871 0.2909 0.0
H867 H 0.11181 0.71848 0.25892 0.0
H868 H 0.09518 0.70851 0.23633 0.0
H869 H 0.34303 0.98915 0.30451 0.0
H870 H 0.0993 0.72986 0.21494 0.0
N871 N 0.16391 0.81057 0.25146 0.0
C872 C 0.16327 0.79893 0.26335 0.0
C873 C 0.12612 0.74412 0.25675 0.0
C874 C 0.12703 0.75561 0.2446 0.0
C875 C 0.14452 0.76589 0.26614 0.0
C876 C 0.14617 0.78929 0.24225 0.0
H877 H 0.12252 0.77748 0.20024 0.0
N878 N 0.16854 0.83344 0.22835 0.0
C879 C 0.15423 0.82639 0.20642 0.0
C880 C 0.14892 0.80114 0.23024 0.0
C881 C 0.17036 0.84643 0.21668 0.0
C882 C 0.1351 0.79295 0.20818 0.0
C883 C 0.13199 0.77993 0.22022 0.0
O884 O 0.16349 0.88558 0.23914 0.0
O885 O 0.22937 0.91076 0.25317 0.0
O886 O 0.24213 0.90919 0.27342 0.0
O887 O 0.19183 0.86644 0.26723 0.0
O888 O 0.20857 0.91157 0.23643 0.0
O889 O 0.14728 0.8545 0.25521 0.0
O890 O 0.29665 0.88459 0.26471 0.0
O891 O 0.23358 0.86307 0.25045 0.0
O892 O 0.22532 0.86922 0.22972 0.0
O893 O 0.27482 0.90842 0.23801 0.0
O894 O 0.25306 0.86015 0.26703 0.0
O895 O 0.31651 0.91933 0.2496 0.0
C896 C 0.22824 0.92972 0.24508 0.0
C897 C 0.10685 0.85822 0.24289 0.0
C898 C 0.05257 0.85279 0.24425 0.0
C899 C 0.08388 0.86369 0.24941 0.0
C900 C 0.04503 0.83729 0.23249 0.0
C901 C 0.09806 0.84222 0.23125 0.0
C902 C 0.06757 0.8321 0.22607 0.0
C903 C 0.2123 0.88603 0.27613 0.0
C904 C 0.14076 0.87185 0.24755 0.0
C905 C 0.11246 0.74652 0.22252 0.0
C906 C 0.11001 0.73438 0.23469 0.0
C907 C 0.23433 0.84311 0.25796 0.0
C908 C 0.35201 0.90666 0.26103 0.0
C909 C 0.36792 0.89234 0.25495 0.0
C910 C 0.39541 0.89383 0.26042 0.0
C911 C 0.40724 0.91009 0.27189 0.0
C912 C 0.36443 0.92352 0.27234 0.0
C913 C 0.39195 0.92512 0.27776 0.0
C914 C 0.25739 0.89073 0.22846 0.0
C915 C 0.31983 0.89855 0.25652 0.0
H916 H 0.09028 0.87628 0.25835 0.0
H917 H 0.02152 0.82929 0.2282 0.0
H918 H 0.11496 0.83811 0.22595 0.0
H919 H 0.06143 0.82031 0.21698 0.0
H920 H 0.35818 0.87892 0.24628 0.0
H921 H 0.42855 0.91145 0.27621 0.0
H922 H 0.3525 0.93466 0.27715 0.0
H923 H 0.40119 0.93769 0.28659 0.0
Tb924 Tb 0.21685 0.35612 0.24587 0.0
C925 C 0.11281 0.37431 0.27393 0.0
C926 C 0.06616 0.34709 0.26019 0.0
C927 C 0.05843 0.35496 0.28221 0.0
C928 C 0.10009 0.36301 0.26213 0.0
C929 C 0.0922 0.37095 0.28407 0.0
C930 C 0.04543 0.34289 0.27031 0.0
C931 C 0.13997 0.40123 0.29695 0.0
N932 N 0.1455 0.38974 0.27537 0.0
C933 C 0.15938 0.404 0.28661 0.0
C934 C 0.1062 0.38446 0.2957 0.0
Tb935 Tb 0.17541 0.39651 0.25767 0.0
N936 N 0.12096 0.36843 0.2525 0.0
C937 C 0.10899 0.35865 0.24058 0.0
C938 C 0.05404 0.33637 0.2481 0.0
C939 C 0.07561 0.34224 0.23826 0.0
H940 H 0.18556 0.41743 0.28755 0.0
H941 H 0.06656 0.33402 0.22885 0.0
H942 H 0.01934 0.33082 0.26897 0.0
H943 H 0.15108 0.41225 0.30583 0.0
H944 H 0.1245 0.36178 0.23275 0.0
H945 H 0.32542 0.42055 0.27511 0.0
H946 H 0.02815 0.32382 0.24625 0.0
H947 H 0.20919 0.3368 0.21587 0.0
H948 H 0.26782 0.39179 0.27095 0.0
H949 H 0.24473 0.3465 0.19744 0.0
H950 H 0.04218 0.35212 0.28988 0.0
H951 H 0.36465 0.43342 0.25781 0.0
H952 H 0.37458 0.42965 0.23496 0.0
H953 H 0.09118 0.38256 0.30369 0.0
H954 H 0.35277 0.41025 0.21378 0.0
N955 N 0.27177 0.38589 0.25115 0.0
C956 C 0.28346 0.39543 0.26315 0.0
C957 C 0.33881 0.42004 0.25586 0.0
C958 C 0.32719 0.41002 0.24368 0.0
C959 C 0.31679 0.41269 0.26563 0.0
C960 C 0.29321 0.39283 0.24162 0.0
H961 H 0.30446 0.37945 0.19971 0.0
N962 N 0.24831 0.36582 0.22823 0.0
C963 C 0.25528 0.35707 0.20645 0.0
C964 C 0.28104 0.38256 0.22973 0.0
C965 C 0.23524 0.35182 0.21687 0.0
C966 C 0.28897 0.37565 0.20776 0.0
C967 C 0.3023 0.38825 0.21954 0.0
O968 O 0.19735 0.30768 0.23979 0.0
O969 O 0.17171 0.35054 0.25297 0.0
O970 O 0.17322 0.36547 0.27308 0.0
O971 O 0.215 0.35593 0.2672 0.0
O972 O 0.16982 0.32585 0.23693 0.0
O973 O 0.22979 0.32488 0.2554 0.0
O974 O 0.19978 0.44394 0.26444 0.0
O975 O 0.21986 0.40138 0.25011 0.0
O976 O 0.21178 0.38384 0.22936 0.0
O977 O 0.17656 0.40097 0.23715 0.0
O978 O 0.22293 0.42469 0.26657 0.0
O979 O 0.1639 0.4306 0.24976 0.0
C980 C 0.15224 0.32976 0.24521 0.0
C981 C 0.22672 0.28028 0.24362 0.0
C982 C 0.22915 0.22961 0.24373 0.0
C983 C 0.21791 0.24962 0.24907 0.0
C984 C 0.24901 0.24059 0.23301 0.0
C985 C 0.24726 0.29056 0.23309 0.0
C986 C 0.25811 0.27083 0.22781 0.0
C987 C 0.19566 0.35784 0.27596 0.0
C988 C 0.21233 0.30009 0.24816 0.0
C989 C 0.33607 0.40556 0.22149 0.0
C990 C 0.34849 0.41651 0.23355 0.0
C991 C 0.23984 0.42186 0.2577 0.0
C992 C 0.17933 0.47905 0.26177 0.0
C993 C 0.18848 0.50674 0.25443 0.0
C994 C 0.18913 0.53395 0.25973 0.0
C995 C 0.18077 0.53363 0.2724 0.0
C996 C 0.17069 0.47887 0.27442 0.0
C997 C 0.1715 0.50609 0.27971 0.0
C998 C 0.19276 0.39722 0.2278 0.0
C999 C 0.18554 0.45399 0.25676 0.0
H1000 H 0.20196 0.24113 0.25717 0.0
H1001 H 0.25769 0.22568 0.22868 0.0
H1002 H 0.25459 0.31366 0.22877 0.0
H1003 H 0.27351 0.27894 0.21955 0.0
H1004 H 0.19613 0.50756 0.24475 0.0
H1005 H 0.18169 0.55482 0.27663 0.0
H1006 H 0.16447 0.45835 0.28037 0.0
H1007 H 0.16548 0.50602 0.28953 0.0
Tb1008 Tb 0.89922 0.72012 0.77519 0.0
C1009 C 0.77811 0.70355 0.74709 0.0
C1010 C 0.7586 0.72987 0.76128 0.0
C1011 C 0.74394 0.72433 0.7392 0.0
C1012 C 0.77665 0.71411 0.75903 0.0
C1013 C 0.76126 0.70796 0.73707 0.0
C1014 C 0.74268 0.73532 0.75128 0.0
C1015 C 0.77704 0.67678 0.72387 0.0
N1016 N 0.79442 0.68722 0.74543 0.0
C1017 C 0.79289 0.6726 0.73415 0.0
C1018 C 0.76137 0.69481 0.72531 0.0
Tb1019 Tb 0.81769 0.67949 0.76291 0.0
N1020 N 0.79157 0.70757 0.76852 0.0
C1021 C 0.78844 0.71566 0.78065 0.0
C1022 C 0.75628 0.7389 0.77357 0.0
C1023 C 0.77115 0.7316 0.78329 0.0
H1024 H 0.80399 0.65767 0.73312 0.0
H1025 H 0.76942 0.73833 0.79287 0.0
H1026 H 0.72872 0.74738 0.75285 0.0
H1027 H 0.77647 0.66567 0.71492 0.0
H1028 H 0.80007 0.71134 0.78848 0.0
H1029 H 0.94674 0.65935 0.74541 0.0
H1030 H 0.74268 0.75106 0.77568 0.0
H1031 H 0.90719 0.73564 0.80557 0.0
H1032 H 0.9144 0.68427 0.74981 0.0
H1033 H 0.9343 0.72706 0.8238 0.0
H1034 H 0.73087 0.728 0.73162 0.0
H1035 H 0.97739 0.65106 0.76231 0.0
H1036 H 0.99256 0.65626 0.78501 0.0
H1037 H 0.74864 0.69762 0.71739 0.0
H1038 H 0.98811 0.6733 0.8064 0.0
N1039 N 0.92618 0.69233 0.76953 0.0
C1040 C 0.92776 0.68225 0.75755 0.0
C1041 C 0.9633 0.66272 0.76442 0.0
C1042 C 0.96172 0.67268 0.77661 0.0
C1043 C 0.94609 0.66738 0.75488 0.0
C1044 C 0.94289 0.68767 0.77889 0.0
H1045 H 0.96593 0.69903 0.82097 0.0
N1046 N 0.92102 0.71028 0.79275 0.0
C1047 C 0.93574 0.718 0.81463 0.0
C1048 C 0.93973 0.69643 0.79093 0.0
C1049 C 0.92017 0.72251 0.80432 0.0
C1050 C 0.95364 0.70225 0.81299 0.0
C1051 C 0.95624 0.69168 0.80101 0.0
O1052 O 0.92796 0.76789 0.78208 0.0
O1053 O 0.85973 0.72548 0.76778 0.0
O1054 O 0.84695 0.70777 0.74707 0.0
O1055 O 0.89878 0.72079 0.75398 0.0
O1056 O 0.88135 0.74966 0.78403 0.0
O1057 O 0.94292 0.75287 0.76572 0.0
O1058 O 0.79296 0.63201 0.75602 0.0
O1059 O 0.85719 0.6747 0.77059 0.0
O1060 O 0.86607 0.69006 0.79129 0.0
O1061 O 0.81437 0.67383 0.78323 0.0
O1062 O 0.83691 0.65102 0.75429 0.0
O1063 O 0.77309 0.64592 0.77148 0.0
C1064 C 0.86037 0.74587 0.77557 0.0
C1065 C 0.98494 0.79499 0.77818 0.0
C1066 C 0.0396 0.84393 0.77851 0.0
C1067 C 1.00797 0.82587 0.77317 0.0
C1068 C 0.04776 0.83021 0.78859 0.0
C1069 C 0.9944 0.7827 0.7883 0.0
C1070 C 0.02541 0.79999 0.7934 0.0
C1071 C 0.87768 0.71683 0.74487 0.0
C1072 C 0.95057 0.77658 0.7736 0.0
C1073 C 0.97528 0.67716 0.79878 0.0
C1074 C 0.97796 0.66762 0.7866 0.0
C1075 C 0.85637 0.65359 0.76322 0.0
C1076 C 0.73754 0.5982 0.75987 0.0
C1077 C 0.7215 0.56818 0.76608 0.0
C1078 C 0.69357 0.54233 0.76079 0.0
C1079 C 0.68149 0.54676 0.74937 0.0
C1080 C 0.72485 0.60259 0.74861 0.0
C1081 C 0.69693 0.57687 0.74338 0.0
C1082 C 0.8336 0.6763 0.79261 0.0
C1083 C 0.76985 0.6223 0.76428 0.0
H1084 H 1.00104 0.83615 0.7655 0.0
H1085 H 0.07167 0.84303 0.79283 0.0
H1086 H 0.97777 0.7599 0.79248 0.0
H1087 H 0.03207 0.79002 0.80125 0.0
H1088 H 0.73141 0.56453 0.77471 0.0
H1089 H 0.65989 0.52696 0.74517 0.0
H1090 H 0.73685 0.62549 0.74372 0.0
H1091 H 0.68747 0.58015 0.73459 0.0
Tb1092 Tb 0.36281 0.20901 0.77518 0.0
C1093 C 0.37604 0.10426 0.74707 0.0
C1094 C 0.35032 0.05825 0.76124 0.0
C1095 C 0.35359 0.04915 0.73902 0.0
C1096 C 0.36665 0.0922 0.75916 0.0
C1097 C 0.37004 0.08272 0.73692 0.0
C1098 C 0.34374 0.03697 0.75113 0.0
C1099 C 0.40036 0.12886 0.72342 0.0
N1100 N 0.39266 0.13688 0.74529 0.0
C1101 C 0.40637 0.1492 0.73373 0.0
C1102 C 0.38182 0.09545 0.72499 0.0
Tb1103 Tb 0.40384 0.168 0.76317 0.0
N1104 N 0.37422 0.11342 0.76889 0.0
C1105 C 0.36533 0.10127 0.78093 0.0
C1106 C 0.34145 0.04641 0.77345 0.0
C1107 C 0.3489 0.06802 0.7833 0.0
H1108 H 0.42185 0.17503 0.73233 0.0
H1109 H 0.34179 0.05911 0.79281 0.0
H1110 H 0.33146 1.01097 0.75263 0.0
H1111 H 0.41057 0.13901 0.71432 0.0
H1112 H 0.36883 0.11608 0.78905 0.0
H1113 H 0.42833 0.31753 0.74676 0.0
H1114 H 0.32888 0.02059 0.77537 0.0
H1115 H 0.34532 0.19949 0.80556 0.0
H1116 H 0.40163 0.25954 0.75105 0.0
H1117 H 0.3558 0.23418 0.8243 0.0
H1118 H 0.34894 0.03239 0.73135 0.0
H1119 H 0.43844 0.35611 0.76405 0.0
H1120 H 0.43526 0.36538 0.78711 0.0
H1121 H 0.37767 0.07966 0.71701 0.0
H1122 H 0.41729 0.3428 0.80832 0.0
N1123 N 0.39365 0.26355 0.77052 0.0
C1124 C 0.40399 0.27532 0.75864 0.0
C1125 C 0.42609 0.33031 0.76598 0.0
C1126 C 0.41643 0.31843 0.77817 0.0
C1127 C 0.42013 0.30863 0.75619 0.0
C1128 C 0.39993 0.28453 0.78013 0.0
H1129 H 0.38799 0.29394 0.8223 0.0
N1130 N 0.37365 0.23912 0.7933 0.0
C1131 C 0.36587 0.24511 0.81528 0.0
C1132 C 0.38995 0.27187 0.79197 0.0
C1133 C 0.36026 0.22555 0.80469 0.0
C1134 C 0.38398 0.27883 0.81411 0.0
C1135 C 0.39581 0.29265 0.80232 0.0
O1136 O 0.31313 0.18723 0.78011 0.0
O1137 O 0.3576 0.16431 0.7675 0.0
O1138 O 0.38573 0.18125 0.74671 0.0
O1139 O 0.35824 0.20729 0.75411 0.0
O1140 O 0.3338 0.16174 0.78398 0.0
O1141 O 0.33343 0.2267 0.76731 0.0
O1142 O 0.44801 0.19146 0.75334 0.0
O1143 O 0.40553 0.21412 0.76634 0.0
O1144 O 0.39184 0.20372 0.79141 0.0
O1145 O 0.4049 0.16587 0.78336 0.0
O1146 O 0.44517 0.21055 0.77141 0.0
O1147 O 0.43807 0.15356 0.76731 0.0
C1148 C 0.33717 0.14469 0.77532 0.0
C1149 C 0.28615 0.21779 0.77875 0.0
C1150 C 0.23731 0.22364 0.7783 0.0
C1151 C 0.25781 0.21361 0.77249 0.0
C1152 C 0.24515 0.23693 0.79045 0.0
C1153 C 0.29317 0.2316 0.79079 0.0
C1154 C 0.27273 0.24079 0.79661 0.0
C1155 C 0.36885 0.19604 0.74481 0.0
C1156 C 0.30714 0.20596 0.77313 0.0
C1157 C 0.41251 0.32644 0.80049 0.0
C1158 C 0.42269 0.3393 0.78842 0.0
C1159 C 0.43364 0.22963 0.77106 0.0
C1160 C 0.48644 0.17317 0.75489 0.0
C1161 C 0.51481 0.18572 0.76215 0.0
C1162 C 0.54243 0.18619 0.75733 0.0
C1163 C 0.5413 0.17335 0.74533 0.0
C1164 C 0.4854 0.16029 0.74294 0.0
C1165 C 0.51284 0.16029 0.73821 0.0
C1166 C 0.40403 0.18356 0.79272 0.0
C1167 C 0.45939 0.17599 0.75986 0.0
H1168 H 0.2519 0.20288 0.76319 0.0
H1169 H 0.22967 0.24424 0.79525 0.0
H1170 H 0.31429 0.23498 0.7958 0.0
H1171 H 0.27827 0.25094 0.80599 0.0
H1172 H 0.51569 0.19591 0.77137 0.0
H1173 H 0.56243 0.17325 0.74151 0.0
H1174 H 0.46369 0.15049 0.73727 0.0
H1175 H 0.51213 0.15038 0.72899 0.0
Tb1176 Tb 0.87594 0.18674 0.77491 0.0
C1177 C 0.97923 0.30725 0.74876 0.0
C1178 C 0.02364 0.33171 0.76367 0.0
C1179 C 0.03484 0.34201 0.74142 0.0
C1180 C 0.99009 0.31135 0.7611 0.0
C1181 C 1.00154 0.32345 0.73886 0.0
C1182 C 0.04585 0.34618 0.75379 0.0
C1183 C 0.95643 0.3069 0.72475 0.0
N1184 N 0.94679 0.29018 0.74652 0.0
C1185 C 0.93533 0.29179 0.73479 0.0
C1186 C 0.98974 0.32229 0.72673 0.0
Tb1187 Tb 0.91386 0.26925 0.76397 0.0
N1188 N 0.96791 0.29765 0.77058 0.0
C1189 C 0.97869 0.30457 0.78283 0.0
C1190 C 0.03403 0.33839 0.77611 0.0
C1191 C 1.01139 0.32513 0.78571 0.0
H1192 H 0.90957 0.28061 0.73292 0.0
H1193 H 0.01917 0.33012 0.79542 0.0
H1194 H 0.07156 0.36164 0.75566 0.0
H1195 H 0.94691 0.30695 0.71551 0.0
H1196 H 0.96344 0.29417 0.79085 0.0
H1197 H 0.76861 0.14802 0.74589 0.0
H1198 H 0.05943 0.35418 0.77841 0.0
H1199 H 0.88326 0.17602 0.80552 0.0
H1200 H 0.8265 0.17609 0.7503 0.0
H1201 H 0.84712 0.15178 0.82387 0.0
H1202 H 0.05218 0.35441 0.73393 0.0
H1203 H 0.72899 0.12203 0.76311 0.0
H1204 H 0.71857 0.10886 0.78599 0.0
H1205 H 1.00613 0.33452 0.71896 0.0
H1206 H 0.73988 0.11086 0.80723 0.0
N1207 N 0.82158 0.1643 0.76984 0.0
C1208 C 0.81032 0.16345 0.7579 0.0
C1209 C 0.75479 0.1336 0.76508 0.0
C1210 C 0.76613 0.13465 0.77728 0.0
C1211 C 0.77703 0.14806 0.75534 0.0
C1212 C 0.80005 0.15021 0.77938 0.0
H1213 H 0.78762 0.12689 0.82142 0.0
N1214 N 0.84482 0.167 0.7929 0.0
C1215 C 0.83694 0.15199 0.8148 0.0
C1216 C 0.81207 0.15186 0.79132 0.0
C1217 C 0.85732 0.16596 0.80441 0.0
C1218 C 0.80338 0.13789 0.81337 0.0
C1219 C 0.79049 0.13729 0.80151 0.0
O1220 O 0.89971 0.15983 0.77823 0.0
O1221 O 0.92004 0.22771 0.76733 0.0
O1222 O 0.90319 0.2384 0.74738 0.0
O1223 O 0.87843 0.18454 0.75395 0.0
O1224 O 0.92416 0.20627 0.78325 0.0
O1225 O 0.85516 0.13781 0.76843 0.0
O1226 O 0.88724 0.28436 0.75282 0.0
O1227 O 0.8684 0.22402 0.76683 0.0
O1228 O 0.88283 0.21917 0.79183 0.0
O1229 O 0.91297 0.27273 0.78437 0.0
O1230 O 0.87226 0.26644 0.77361 0.0
O1231 O 0.92683 0.31844 0.7653 0.0
C1232 C 0.94083 0.22759 0.77476 0.0
C1233 C 0.86928 0.10219 0.77942 0.0
C1234 C 0.8622 0.04678 0.78019 0.0
C1235 C 0.86861 0.07512 0.77325 0.0
C1236 C 0.8574 0.04672 0.79326 0.0
C1237 C 0.86397 0.10031 0.79242 0.0
C1238 C 0.85809 0.07301 0.79924 0.0
C1239 C 0.88952 0.20709 0.74498 0.0
C1240 C 0.87821 0.13343 0.77278 0.0
C1241 C 0.75678 0.12203 0.79951 0.0
C1242 C 0.74462 0.12077 0.78742 0.0
C1243 C 0.85312 0.23587 0.77246 0.0
C1244 C 0.89883 0.33994 0.75302 0.0
C1245 C 0.89392 0.35892 0.76189 0.0
C1246 C 0.88924 0.38426 0.75781 0.0
C1247 C 0.89002 0.39087 0.74491 0.0
C1248 C 0.89909 0.34637 0.74014 0.0
C1249 C 0.89495 0.37198 0.73612 0.0
C1250 C 0.89944 0.25154 0.79362 0.0
C1251 C 0.90436 0.31388 0.75714 0.0
H1252 H 0.87301 0.07611 0.76322 0.0
H1253 H 0.85356 0.0263 0.79901 0.0
H1254 H 0.86544 0.12044 0.79746 0.0
H1255 H 0.85454 0.07245 0.80931 0.0
H1256 H 0.8935 0.35387 0.77185 0.0
H1257 H 0.88672 0.41064 0.74166 0.0
H1258 H 0.90299 0.33193 0.73323 0.0
H1259 H 0.89557 0.37719 0.72619 0.0
Tb1260 Tb 0.39205 0.2228 0.57946 0.0
C1261 C 0.37506 0.10096 0.60647 0.0
C1262 C 0.40465 0.08309 0.59315 0.0
C1263 C 0.39508 0.06665 0.61502 0.0
C1264 C 0.38772 0.10033 0.59475 0.0
C1265 C 0.37816 0.08355 0.61664 0.0
C1266 C 0.40835 0.0665 0.60333 0.0
C1267 C 0.34459 0.09763 0.62911 0.0
N1268 N 0.35836 0.11709 0.60779 0.0
C1269 C 0.34163 0.114 0.61876 0.0
C1270 C 0.36322 0.08261 0.62809 0.0
Tb1271 Tb 0.35204 0.1399 0.58972 0.0
N1272 N 0.38312 0.116 0.58493 0.0
C1273 C 0.39547 0.11512 0.57329 0.0
C1274 C 0.41719 0.0826 0.58134 0.0
C1275 C 0.41267 0.09879 0.5714 0.0
H1276 H 0.32641 0.12486 0.61969 0.0
H1277 H 0.42254 0.09881 0.56222 0.0
H1278 H 0.42111 0.05308 0.6022 0.0
H1279 H 0.33212 0.09627 0.63781 0.0
H1280 H 0.39388 0.12782 0.56521 0.0
H1281 H 0.32339 0.26044 0.609 0.0
H1282 H 0.4304 0.06976 0.57979 0.0
H1283 H 0.41075 0.23455 0.54928 0.0
H1284 H 0.35402 0.23318 0.60438 0.0
H1285 H 0.39995 0.26005 0.53103 0.0
H1286 H 0.39761 0.05316 0.62272 0.0
H1287 H 0.30996 0.28718 0.59201 0.0
H1288 H 0.31376 0.30207 0.56921 0.0
H1289 H 0.36511 0.06952 0.63608 0.0
H1290 H 0.33383 0.30125 0.54794 0.0
N1291 N 0.36013 0.24501 0.58479 0.0
C1292 C 0.34982 0.24549 0.5968 0.0
C1293 C 0.32411 0.27559 0.5899 0.0
C1294 C 0.33469 0.27522 0.57767 0.0
C1295 C 0.33175 0.26066 0.59951 0.0
C1296 C 0.35287 0.25958 0.57541 0.0
H1297 H 0.36573 0.28542 0.5336 0.0
N1298 N 0.38095 0.24328 0.5618 0.0
C1299 C 0.38924 0.25947 0.54008 0.0
C1300 C 0.36353 0.25853 0.56348 0.0
C1301 C 0.39507 0.24483 0.55039 0.0
C1302 C 0.36997 0.27383 0.54157 0.0
C1303 C 0.35721 0.27389 0.55342 0.0
O1304 O 0.44172 0.25173 0.57472 0.0
O1305 O 0.39859 0.18329 0.58625 0.0
O1306 O 0.36957 0.16885 0.60684 0.0
O1307 O 0.39639 0.22315 0.60051 0.0
O1308 O 0.42139 0.20621 0.56988 0.0
O1309 O 0.42041 0.26929 0.58783 0.0
O1310 O 0.30572 0.1177 0.59793 0.0
O1311 O 0.34933 0.18417 0.58774 0.0
O1312 O 0.36356 0.18985 0.56284 0.0
O1313 O 0.35497 0.13931 0.56948 0.0
O1314 O 0.31128 0.14178 0.58123 0.0
O1315 O 0.31928 0.09194 0.58432 0.0
C1316 C 0.41963 0.18586 0.57827 0.0
C1317 C 0.4676 0.30881 0.57674 0.0
C1318 C 0.51754 0.36218 0.57711 0.0
C1319 C 0.49698 0.33158 0.58272 0.0
C1320 C 0.50873 0.36937 0.56548 0.0
C1321 C 0.45936 0.31719 0.56524 0.0
C1322 C 0.47989 0.34706 0.55961 0.0
C1323 C 0.3859 0.20023 0.60939 0.0
C1324 C 0.447 0.27568 0.58201 0.0
C1325 C 0.33901 0.28939 0.55555 0.0
C1326 C 0.32768 0.28996 0.56766 0.0
C1327 C 0.32176 0.17196 0.58258 0.0
C1328 C 0.27109 0.06096 0.59641 0.0
C1329 C 0.23984 0.0473 0.59128 0.0
C1330 C 0.21424 0.01937 0.59662 0.0
C1331 C 0.22007 1.0053 0.60719 0.0
C1332 C 0.27699 0.04611 0.60664 0.0
C1333 C 0.25137 0.01856 0.61212 0.0
C1334 C 0.35374 0.15824 0.56073 0.0
C1335 C 0.2961 0.09156 0.59114 0.0
H1336 H 0.50383 0.32553 0.5916 0.0
H1337 H 0.52429 0.39243 0.56092 0.0
H1338 H 0.43722 0.30058 0.56049 0.0
H1339 H 0.47343 0.35294 0.55063 0.0
H1340 H 0.23535 0.05859 0.58325 0.0
H1341 H 0.20059 0.98352 0.61142 0.0
H1342 H 0.30114 0.05549 0.61034 0.0
H1343 H 0.25582 1.00727 0.62012 0.0
Tb1344 Tb 0.85954 0.19971 0.57969 0.0
C1345 C 0.97842 0.30653 0.60727 0.0
C1346 C 0.9981 0.35224 0.59297 0.0
C1347 C 1.01185 0.36173 0.61509 0.0
C1348 C 0.98053 0.31836 0.59515 0.0
C1349 C 0.99457 0.32822 0.6173 0.0
C1350 C 1.01355 0.3737 0.60297 0.0
C1351 C 0.9785 0.28229 0.63095 0.0
N1352 N 0.96197 0.27396 0.60917 0.0
C1353 C 0.96346 0.26178 0.62075 0.0
C1354 C 0.99389 0.31569 0.62925 0.0
Tb1355 Tb 0.94165 0.24265 0.59137 0.0
N1356 N 0.96594 0.29698 0.58553 0.0
C1357 C 0.96784 0.30886 0.57354 0.0
C1358 C 1.00001 0.36386 0.58078 0.0
C1359 C 0.98464 0.34207 0.57107 0.0
H1360 H 0.95254 0.23593 0.62227 0.0
H1361 H 0.98554 0.35082 0.5616 0.0
H1362 H 0.02723 0.39966 0.6014 0.0
H1363 H 0.97865 0.27226 0.64006 0.0
H1364 H 0.95552 0.29377 0.56559 0.0
H1365 H 0.81909 0.0913 0.60801 0.0
H1366 H 1.01319 0.38963 0.57878 0.0
H1367 H 0.84947 0.20882 0.5496 0.0
H1368 H 0.84755 0.14938 0.60391 0.0
H1369 H 0.82616 0.17416 0.53078 0.0
H1370 H 0.02441 0.37862 0.62267 0.0
H1371 H 0.79418 0.05249 0.59048 0.0
H1372 H 0.78236 0.04323 0.56739 0.0
H1373 H 1.00602 0.3316 0.63714 0.0
H1374 H 0.7853 0.06578 0.54628 0.0
N1375 N 0.837 0.14519 0.5843 0.0
C1376 C 0.83536 0.13347 0.59621 0.0
C1377 C 0.80597 0.07833 0.58865 0.0
C1378 C 0.80781 0.09021 0.57649 0.0
C1379 C 0.81978 0.10011 0.59857 0.0
C1380 C 0.82352 0.12413 0.57463 0.0
H1381 H 0.80176 0.1146 0.53252 0.0
N1382 N 0.8405 0.16947 0.56163 0.0
C1383 C 0.82615 0.16333 0.53972 0.0
C1384 C 0.82562 0.13676 0.56284 0.0
C1385 C 0.83951 0.18288 0.55036 0.0
C1386 C 0.81237 0.12972 0.54074 0.0
C1387 C 0.81147 0.11595 0.55245 0.0
O1388 O 0.83044 0.22011 0.57463 0.0
O1389 O 0.89843 0.24532 0.5871 0.0
O1390 O 0.91058 0.23121 0.60784 0.0
O1391 O 0.857 0.20145 0.60076 0.0
O1392 O 0.87667 0.24629 0.57056 0.0
O1393 O 0.81284 0.18184 0.58794 0.0
O1394 O 0.9616 0.21901 0.60146 0.0
O1395 O 0.89786 0.19585 0.58853 0.0
O1396 O 0.89398 0.20531 0.5634 0.0
O1397 O 0.94484 0.24448 0.57114 0.0
O1398 O 0.94143 0.20076 0.58296 0.0
O1399 O 0.9911 0.25792 0.58793 0.0
C1400 C 0.89676 0.26423 0.57914 0.0
C1401 C 0.7731 0.18899 0.57673 0.0
C1402 C 0.71996 0.18665 0.57669 0.0
C1403 C 0.75058 0.19669 0.58238 0.0
C1404 C 0.71237 0.16903 0.56541 0.0
C1405 C 0.76424 0.17078 0.5656 0.0
C1406 C 0.73422 0.16106 0.55998 0.0
C1407 C 0.87902 0.21466 0.60992 0.0
C1408 C 0.80641 0.20176 0.58196 0.0
C1409 C 0.79619 0.08217 0.55415 0.0
C1410 C 0.7944 0.06931 0.56616 0.0
C1411 C 0.911 0.18097 0.58369 0.0
C1412 C 1.01794 0.23496 0.60011 0.0
C1413 C 0.03386 0.22386 0.5921 0.0
C1414 C 0.05958 0.22037 0.59668 0.0
C1415 C 0.0698 0.22883 0.60919 0.0
C1416 C 0.02824 0.24324 0.61258 0.0
C1417 C 0.0543 0.24037 0.61706 0.0
C1418 C 0.92624 0.22597 0.56193 0.0
C1419 C 0.98921 0.23527 0.59547 0.0
H1420 H 0.75702 0.2108 0.59097 0.0
H1421 H 0.68925 0.16124 0.56083 0.0
H1422 H 0.78064 0.16433 0.56115 0.0
H1423 H 0.7279 0.14736 0.5513 0.0
H1424 H 0.0257 0.2171 0.58248 0.0
H1425 H 0.08996 0.22667 0.61282 0.0
H1426 H 1.01608 0.25164 0.61886 0.0
H1427 H 0.06233 0.24685 0.62668 0.0
Tb1428 Tb 0.88154 0.68857 0.5796 0.0
C1429 C 0.77965 0.70956 0.60695 0.0
C1430 C 0.7337 0.6874 0.59273 0.0
C1431 C 0.72552 0.69435 0.61473 0.0
C1432 C 0.76737 0.70049 0.59494 0.0
C1433 C 0.75868 0.70634 0.617 0.0
C1434 C 0.71308 0.68501 0.60261 0.0
C1435 C 0.80477 0.72882 0.63086 0.0
N1436 N 0.81198 0.72154 0.60882 0.0
C1437 C 0.82473 0.73252 0.62062 0.0
C1438 C 0.77157 0.71562 0.62906 0.0
Tb1439 Tb 0.84297 0.73166 0.59077 0.0
N1440 N 0.78787 0.70239 0.58563 0.0
C1441 C 0.77496 0.68924 0.57405 0.0
C1442 C 0.72138 0.67617 0.58074 0.0
C1443 C 0.74204 0.67656 0.57143 0.0
H1444 H 0.85055 0.74586 0.62232 0.0
H1445 H 0.73261 0.6668 0.56221 0.0
H1446 H 0.68732 0.67536 0.60102 0.0
H1447 H 0.81527 0.73731 0.64007 0.0
H1448 H 0.78915 0.68728 0.56658 0.0
H1449 H 0.98887 0.74869 0.60917 0.0
H1450 H 0.69578 0.66612 0.57868 0.0
H1451 H 0.87516 0.66947 0.54943 0.0
H1452 H 0.93112 0.71568 0.60482 0.0
H1453 H 0.91102 0.68395 0.53081 0.0
H1454 H 0.70923 0.69206 0.62231 0.0
H1455 H 0.02838 0.77034 0.59169 0.0
H1456 H 0.03884 0.7733 0.56848 0.0
H1457 H 0.75623 0.71342 0.63698 0.0
H1458 H 1.01762 0.75592 0.54707 0.0
N1459 N 0.93594 0.71913 0.58483 0.0
C1460 C 0.94719 0.72513 0.59696 0.0
C1461 C 1.00263 0.75591 0.58967 0.0
C1462 C 0.99136 0.74846 0.57731 0.0
C1463 C 0.98043 0.74378 0.59954 0.0
C1464 C 0.95752 0.72959 0.5752 0.0
H1465 H 0.97 0.72237 0.53294 0.0
N1466 N 0.91309 0.70119 0.56178 0.0
C1467 C 0.92105 0.69473 0.53985 0.0
C1468 C 0.94563 0.72042 0.56323 0.0
C1469 C 0.90083 0.68671 0.55039 0.0
C1470 C 0.95431 0.71643 0.54108 0.0
C1471 C 0.96713 0.72902 0.55293 0.0
O1472 O 0.86386 0.64065 0.57321 0.0
O1473 O 0.83681 0.68313 0.58776 0.0
O1474 O 0.86694 0.72434 0.60671 0.0
O1475 O 0.87457 0.68183 0.60061 0.0
O1476 O 0.83467 0.66133 0.5708 0.0
O1477 O 0.89709 0.65845 0.5884 0.0
O1478 O 0.86473 0.77536 0.60089 0.0
O1479 O 0.88868 0.73273 0.58744 0.0
O1480 O 0.87408 0.71489 0.56269 0.0
O1481 O 0.83843 0.7308 0.57069 0.0
O1482 O 0.88374 0.7702 0.58054 0.0
O1483 O 0.83241 0.7677 0.58513 0.0
C1484 C 0.81731 0.66194 0.58 0.0
C1485 C 0.89488 0.61468 0.57647 0.0
C1486 C 0.89931 0.5651 0.57638 0.0
C1487 C 0.88748 0.5844 0.58191 0.0
C1488 C 0.91856 0.57659 0.56551 0.0
C1489 C 0.91488 0.62554 0.56579 0.0
C1490 C 0.92643 0.60657 0.56034 0.0
C1491 C 0.8727 0.70077 0.60946 0.0
C1492 C 0.87978 0.63355 0.58128 0.0
C1493 C 1.00074 0.7488 0.55487 0.0
C1494 C 1.01283 0.7586 0.56706 0.0
C1495 C 0.90333 0.75933 0.58165 0.0
C1496 C 0.84542 0.81246 0.5985 0.0
C1497 C 0.85927 0.84254 0.59237 0.0
C1498 C 0.85577 0.86775 0.59743 0.0
C1499 C 0.83774 0.86245 0.60853 0.0
C1500 C 0.82722 0.80722 0.60949 0.0
C1501 C 0.82338 0.83224 0.61448 0.0
C1502 C 0.85403 0.72721 0.56118 0.0
C1503 C 0.85233 0.78813 0.59343 0.0
H1504 H 0.87198 0.57555 0.59014 0.0
H1505 H 0.92773 0.56228 0.56102 0.0
H1506 H 0.92122 0.64851 0.56152 0.0
H1507 H 0.9414 0.61507 0.55198 0.0
H1508 H 0.87354 0.84663 0.58389 0.0
H1509 H 0.83457 0.88164 0.61255 0.0
H1510 H 0.81626 0.78409 0.61425 0.0
H1511 H 0.80944 0.82832 0.623 0.0
H1512 H 0.51918 0.95474 0.12735 0.0
H1513 H 0.52798 0.90824 0.12962 0.0
H1514 H 0.54499 0.90998 0.08974 0.0
H1515 H 0.53583 0.95627 0.08744 0.0
H1516 H 0.48878 0.84517 0.10638 0.0
H1517 H 0.62041 0.90633 0.11842 0.0
H1518 H 0.5949 0.92142 0.1245 0.0
H1519 H 0.60448 0.92501 0.10803 0.0
C1520 C 0.52599 0.94586 0.11917 0.0
C1521 C 0.5283 0.95979 0.10731 0.0
C1522 C 0.53062 0.91919 0.12045 0.0
C1523 C 0.53708 0.90583 0.10986 0.0
C1524 C 0.54015 0.92016 0.09803 0.0
H1525 H 0.59642 0.77819 0.0872 0.0
H1526 H 0.59034 0.82226 0.09565 0.0
C1527 C 0.53552 0.94685 0.09675 0.0
C1528 C 0.53918 0.87597 0.11101 0.0
H1529 H 0.59322 0.84992 0.11607 0.0
C1530 C 0.51147 0.84592 0.10856 0.0
C1531 C 0.56868 0.8773 0.114 0.0
C1532 C 0.59902 0.90919 0.1164 0.0
C1533 C 0.51308 0.81717 0.10825 0.0
C1534 C 0.5432 0.81868 0.11077 0.0
C1535 C 0.57019 0.84864 0.11411 0.0
C1536 C 0.54923 0.79162 0.10762 0.0
C1537 C 0.48298 0.78603 0.10452 0.0
C1538 C 0.52939 0.75968 0.11201 0.0
C1539 C 0.53263 0.73417 0.10693 0.0
C1540 C 0.55623 0.74063 0.09766 0.0
C1541 C 0.57801 0.77277 0.0943 0.0
C1542 C 0.57446 0.79794 0.09916 0.0
H1543 H 0.46377 0.79043 0.10066 0.0
H1544 H 0.48879 0.77271 0.09735 0.0
H1545 H 0.47282 0.7703 0.11292 0.0
H1546 H 0.51053 0.75425 0.11888 0.0
H1547 H 0.51556 0.70941 0.10964 0.0
H1548 H 0.3011 0.85781 0.09627 0.0
H1549 H 0.25724 0.80664 0.10465 0.0
H1550 H 0.32649 0.77574 0.1131 0.0
H1551 H 0.37045 0.82717 0.10476 0.0
H1552 H 0.27966 0.74092 0.09371 0.0
H1553 H 0.21984 0.74923 0.1373 0.0
H1554 H 0.2343 0.78321 0.12669 0.0
H1555 H 0.26289 0.77463 0.13428 0.0
C1556 C 0.30708 0.84079 0.10055 0.0
C1557 C 0.33892 0.8462 0.09993 0.0
C1558 C 0.28207 0.8116 0.10537 0.0
C1559 C 0.28861 0.78742 0.10953 0.0
C1560 C 0.32099 0.79422 0.11005 0.0
H1561 H 0.1225 0.58916 0.11965 0.0
H1562 H 0.17062 0.6421 0.1241 0.0
C1563 C 0.34606 0.82354 0.10531 0.0
C1564 C 0.26164 0.75339 0.1101 0.0
H1565 H 0.1883 0.70365 0.12395 0.0
C1566 C 0.25996 0.73252 0.10047 0.0
C1567 C 0.23621 0.74244 0.11899 0.0
C1568 C 0.2383 0.76334 0.12999 0.0
C1569 C 0.23283 0.70151 0.09907 0.0
C1570 C 0.2059 0.69137 0.1073 0.0
C1571 C 0.20845 0.71157 0.11744 0.0
C1572 C 0.17482 0.66047 0.10515 0.0
C1573 C 0.23357 0.6802 0.0887 0.0
C1574 C 0.16031 0.65349 0.09319 0.0
C1575 C 0.13389 0.62293 0.09052 0.0
C1576 C 0.11982 0.59944 0.09998 0.0
C1577 C 0.1327 0.60705 0.11222 0.0
C1578 C 0.16017 0.63729 0.11476 0.0
H1579 H 0.25889 0.68619 0.08655 0.0
H1580 H 0.21926 0.65408 0.09119 0.0
H1581 H 0.22342 0.68448 0.07998 0.0
H1582 H 0.17006 0.6714 0.08575 0.0
H1583 H 0.12436 0.61761 0.08104 0.0
H1584 H 0.26348 0.57056 0.08914 0.0
H1585 H 0.31783 0.58367 0.09618 0.0
H1586 H 0.27505 0.50157 0.12136 0.0
H1587 H 0.22064 0.48841 0.11427 0.0
H1588 H 0.35573 0.59074 0.11856 0.0
H1589 H 0.31585 0.47704 0.09138 0.0
H1590 H 0.29304 0.49802 0.0917 0.0
H1591 H 0.29088 0.47298 0.10474 0.0
C1592 C 0.26584 0.55611 0.0965 0.0
C1593 C 0.23844 0.52815 0.10101 0.0
C1594 C 0.29671 0.56368 0.10056 0.0
C1595 C 0.3002 0.54304 0.10903 0.0
C1596 C 0.27261 0.51749 0.11472 0.0
H1597 H 0.48325 0.55019 0.12589 0.0
H1598 H 0.42758 0.5411 0.12748 0.0
C1599 C 0.2417 0.50998 0.11068 0.0
C1600 C 0.33154 0.54389 0.10962 0.0
H1601 H 0.36899 0.50257 0.09955 0.0
C1602 C 0.35864 0.5713 0.11462 0.0
C1603 C 0.33522 0.51895 0.10396 0.0
C1604 C 0.30734 0.49021 0.09752 0.0
C1605 C 0.38948 0.57416 0.11423 0.0
C1606 C 0.39284 0.54877 0.10891 0.0
C1607 C 0.36587 0.52154 0.10385 0.0
C1608 C 0.42469 0.55101 0.10782 0.0
C1609 C 0.41857 0.60476 0.119 0.0
C1610 C 0.4405 0.55835 0.09616 0.0
C1611 C 0.47172 0.56282 0.09521 0.0
C1612 C 0.48712 0.55946 0.10587 0.0
C1613 C 0.47115 0.55174 0.11751 0.0
C1614 C 0.43974 0.54694 0.11844 0.0
H1615 H 0.41207 0.62307 0.12217 0.0
H1616 H 0.42972 0.59886 0.12699 0.0
H1617 H 0.43719 0.61561 0.11146 0.0
H1618 H 0.42912 0.56173 0.08791 0.0
H1619 H 0.48432 0.56998 0.08627 0.0
H1620 H 0.96505 0.54174 0.93958 0.0
H1621 H 0.91774 0.54721 0.93423 0.0
H1622 H 0.91945 0.51549 0.89639 0.0
H1623 H 0.96755 0.51121 0.90158 0.0
H1624 H 0.90825 0.57242 0.89972 0.0
H1625 H 0.82677 0.4635 0.92824 0.0
H1626 H 0.86522 0.49165 0.93519 0.0
H1627 H 0.86423 0.46952 0.92136 0.0
C1628 C 0.95562 0.53655 0.93007 0.0
C1629 C 0.9701 0.52661 0.92094 0.0
C1630 C 0.92861 0.53948 0.92705 0.0
C1631 C 0.91503 0.5314 0.91497 0.0
C1632 C 0.92977 0.522 0.90574 0.0
H1633 H 0.71988 0.50228 0.91463 0.0
H1634 H 0.7644 0.49646 0.9057 0.0
C1635 C 0.95723 0.51966 0.9087 0.0
C1636 C 0.88464 0.53159 0.91226 0.0
H1637 H 0.80584 0.49694 0.92181 0.0
C1638 C 0.88562 0.55563 0.90434 0.0
C1639 C 0.85513 0.50918 0.9181 0.0
C1640 C 0.85247 0.48178 0.92613 0.0
C1641 C 0.85816 0.55917 0.90278 0.0
C1642 C 0.8293 0.53837 0.90945 0.0
C1643 C 0.82789 0.51296 0.91668 0.0
C1644 C 0.80205 0.54502 0.91074 0.0
C1645 C 0.86065 0.58563 0.89425 0.0
C1646 C 0.80817 0.57479 0.91585 0.0
C1647 C 0.78279 0.57815 0.9208 0.0
C1648 C 0.75103 0.55176 0.92078 0.0
C1649 C 0.74429 0.52302 0.9146 0.0
C1650 C 0.76969 0.51969 0.90956 0.0
H1651 H 0.87755 0.58982 0.88632 0.0
H1652 H 0.83659 0.57973 0.89039 0.0
H1653 H 0.87065 0.60863 0.89964 0.0
H1654 H 0.83284 0.59444 0.91717 0.0
H1655 H 0.78838 0.60035 0.92567 0.0
H1656 H 0.56973 0.25685 0.93778 0.0
H1657 H 0.58308 0.3112 0.93102 0.0
H1658 H 0.52346 0.27064 0.89799 0.0
H1659 H 0.5094 0.21592 0.90498 0.0
H1660 H 0.60567 0.35343 0.91201 0.0
H1661 H 0.47244 0.30269 0.91788 0.0
H1662 H 0.49222 0.27981 0.92158 0.0
H1663 H 0.48337 0.28427 0.9055 0.0
C1664 C 0.56024 0.25976 0.92891 0.0
C1665 C 0.53786 0.23258 0.92205 0.0
C1666 C 0.56794 0.29072 0.92502 0.0
C1667 C 0.55316 0.29469 0.91428 0.0
C1668 C 0.53427 0.26785 0.90652 0.0
H1669 H 0.56159 0.47655 0.89469 0.0
H1670 H 0.5528 0.42106 0.89371 0.0
C1671 C 0.52645 0.23675 0.91044 0.0
C1672 C 0.55336 0.32561 0.91258 0.0
H1673 H 0.50374 0.35854 0.91373 0.0
C1674 C 0.58339 0.35453 0.91219 0.0
C1675 C 0.52417 0.32693 0.91323 0.0
C1676 C 0.49123 0.29684 0.9147 0.0
C1677 C 0.58501 0.38475 0.91255 0.0
C1678 C 0.55588 0.38589 0.91306 0.0
C1679 C 0.52588 0.3572 0.91321 0.0
C1680 C 0.5564 0.41695 0.91381 0.0
C1681 C 0.61774 0.41536 0.91282 0.0
C1682 C 0.56013 0.43207 0.92549 0.0
C1683 C 0.56447 0.46329 0.92606 0.0
C1684 C 0.56478 0.4794 0.91498 0.0
C1685 C 0.56034 0.46394 0.90334 0.0
C1686 C 0.55558 0.43256 0.90278 0.0
H1687 H 0.63811 0.4104 0.9116 0.0
H1688 H 0.61912 0.43218 0.9053 0.0
H1689 H 0.62084 0.42788 0.92196 0.0
H1690 H 0.56107 0.42027 0.93406 0.0
H1691 H 0.56915 0.47547 0.93508 0.0
H1692 H 0.6229 0.12332 0.94075 0.0
H1693 H 0.67629 0.16923 0.93509 0.0
H1694 H 0.64861 0.15621 0.89601 0.0
H1695 H 0.59519 0.1103 0.90162 0.0
H1696 H 0.71787 0.16443 0.90632 0.0
H1697 H 0.68538 0.25911 0.91768 0.0
H1698 H 0.66815 0.22284 0.92717 0.0
H1699 H 0.65646 0.22027 0.91102 0.0
C1700 C 0.62837 0.13016 0.93096 0.0
C1701 C 0.60529 0.113 0.9216 0.0
C1702 C 0.6587 0.1563 0.92775 0.0
C1703 C 0.6661 0.16598 0.91516 0.0
C1704 C 0.6432 0.1489 0.90577 0.0
H1705 H 0.84271 0.35549 0.90982 0.0
H1706 H 0.79178 0.31001 0.90164 0.0
C1707 C 0.61285 0.12264 0.90898 0.0
C1708 C 0.69786 0.19426 0.912 0.0
H1709 H 0.74115 0.27637 0.91537 0.0
C1710 C 0.72296 0.18901 0.90801 0.0
C1711 C 0.70405 0.22619 0.91397 0.0
C1712 C 0.67717 0.23276 0.91764 0.0
C1713 C 0.75485 0.21493 0.90676 0.0
C1714 C 0.7618 0.2467 0.90996 0.0
C1715 C 0.73604 0.25209 0.91299 0.0
C1716 C 0.79548 0.27325 0.91239 0.0
C1717 C 0.78082 0.2077 0.90238 0.0
C1718 C 0.81487 0.26765 0.92082 0.0
C1719 C 0.84387 0.29325 0.92526 0.0
C1720 C 0.85378 0.32515 0.92163 0.0
C1721 C 0.83561 0.33092 0.91263 0.0
C1722 C 0.8065 0.30504 0.90804 0.0
H1723 H 0.77086 0.18787 0.89531 0.0
H1724 H 0.80195 0.22937 0.89821 0.0
H1725 H 0.78929 0.19918 0.91048 0.0
H1726 H 0.80659 0.24375 0.9247 0.0
H1727 H 0.85753 0.28838 0.93223 0.0
H1728 H 0.24841 0.08439 0.4495 0.0
H1729 H 0.23474 0.12502 0.45692 0.0
H1730 H 0.17341 0.1064 0.42443 0.0
H1731 H 0.18674 0.06575 0.41718 0.0
H1732 H 0.25517 0.17743 0.44264 0.0
H1733 H 0.12331 0.12522 0.44996 0.0
H1734 H 0.14209 0.10025 0.44944 0.0
H1735 H 0.13093 0.1125 0.43511 0.0
C1736 C 0.23099 0.08818 0.44427 0.0
C1737 C 0.21893 0.07262 0.4327 0.0
C1738 C 0.2232 0.1113 0.44849 0.0
C1739 C 0.20308 0.11878 0.44123 0.0
C1740 C 0.18855 0.10076 0.43031 0.0
H1741 H 0.19109 0.2828 0.41887 0.0
H1742 H 0.20035 0.23662 0.42103 0.0
C1743 C 0.19643 0.07781 0.42608 0.0
C1744 C 0.20279 0.14934 0.44339 0.0
H1745 H 0.1531 0.18203 0.44339 0.0
C1746 C 0.23284 0.17839 0.44317 0.0
C1747 C 0.17367 0.1506 0.44389 0.0
C1748 C 0.14074 0.12038 0.44474 0.0
C1749 C 0.23444 0.20858 0.44279 0.0
C1750 C 0.20538 0.2097 0.44267 0.0
C1751 C 0.17536 0.18088 0.44341 0.0
C1752 C 0.20542 0.2405 0.44126 0.0
C1753 C 0.26702 0.23908 0.44196 0.0
C1754 C 0.20594 0.2581 0.45191 0.0
C1755 C 0.20059 0.28432 0.45068 0.0
C1756 C 0.19569 0.29373 0.43876 0.0
C1757 C 0.19618 0.27667 0.42808 0.0
C1758 C 0.20123 0.2503 0.42931 0.0
H1759 H 0.28756 0.2342 0.4426 0.0
H1760 H 0.26875 0.25135 0.43288 0.0
H1761 H 0.26926 0.25584 0.44964 0.0
H1762 H 0.20884 0.25052 0.46119 0.0
H1763 H 0.19901 0.29642 0.45906 0.0
H1764 H 0.02786 0.1488 0.4214 0.0
H1765 H 0.98549 0.09622 0.42925 0.0
H1766 H 0.94958 0.14448 0.45334 0.0
H1767 H 0.99174 0.19725 0.44522 0.0
H1768 H 0.95581 0.0601 0.45004 0.0
H1769 H 0.87934 0.10288 0.42657 0.0
H1770 H 0.92308 0.12558 0.42613 0.0
H1771 H 0.90164 0.12671 0.4399 0.0
C1772 C 1.01152 0.14809 0.42867 0.0
C1773 C 1.01214 0.17662 0.43247 0.0
C1774 C 0.98744 0.11814 0.43319 0.0
C1775 C 0.96367 0.11652 0.44148 0.0
C1776 C 0.96723 0.14531 0.44666 0.0
H1777 H 0.78832 0.93226 0.45879 0.0
H1778 H 0.83448 0.98793 0.46058 0.0
C1779 C 0.99133 0.17536 0.4421 0.0
C1780 C 0.93261 0.08558 0.44262 0.0
H1781 H 0.85253 0.04943 0.4342 0.0
C1782 C 0.9331 0.05784 0.44681 0.0
C1783 C 0.90327 0.08254 0.4379 0.0
C1784 C 0.9017 0.11089 0.43225 0.0
C1785 C 0.90498 0.02715 0.4464 0.0
C1786 C 0.87569 0.0244 0.44193 0.0
C1787 C 0.87506 0.052 0.43783 0.0
C1788 C 0.8459 0.99263 0.44074 0.0
C1789 C 0.90693 0.99756 0.45013 0.0
C1790 C 0.83663 0.97771 0.42893 0.0
C1791 C 0.80999 0.94645 0.42787 0.0
C1792 C 0.79214 0.93 0.43858 0.0
C1793 C 0.80116 0.94511 0.45037 0.0
C1794 C 0.82759 0.97657 0.45141 0.0
H1795 H 0.93193 1.00368 0.45288 0.0
H1796 H 0.89029 0.98518 0.45814 0.0
H1797 H 0.8989 0.98013 0.44217 0.0
H1798 H 0.85077 0.98975 0.42062 0.0
H1799 H 0.80415 0.93452 0.41879 0.0
H1800 H 0.1312 0.87779 0.41303 0.0
H1801 H 0.07801 0.87114 0.41859 0.0
H1802 H 0.10453 0.88348 0.45778 0.0
H1803 H 0.15778 0.89007 0.45228 0.0
H1804 H 0.03585 0.82537 0.44868 0.0
H1805 H 0.06848 0.95067 0.43436 0.0
H1806 H 0.08395 0.92982 0.42495 0.0
H1807 H 0.09789 0.94105 0.4408 0.0
C1808 C 0.12557 0.87891 0.42283 0.0
C1809 C 0.14833 0.88389 0.43223 0.0
C1810 C 0.0953 0.87513 0.42599 0.0
C1811 C 0.0875 0.8769 0.43858 0.0
C1812 C 0.11012 0.88188 0.44802 0.0
H1813 H 0.91834 0.90087 0.44556 0.0
H1814 H 0.9679 0.90224 0.45298 0.0
C1815 C 0.14043 0.88554 0.44487 0.0
C1816 C 0.05582 0.8741 0.44169 0.0
H1817 H 1.01298 0.91335 0.43762 0.0
C1818 C 0.03082 0.84472 0.44648 0.0
C1819 C 0.04966 0.89962 0.43906 0.0
C1820 C 0.07634 0.93224 0.43458 0.0
C1821 C 0.99915 0.83954 0.44804 0.0
C1822 C 0.99225 0.86417 0.44442 0.0
C1823 C 1.01795 0.89429 0.44036 0.0
C1824 C 0.95847 0.85835 0.44322 0.0
C1825 C 0.97348 0.80756 0.45341 0.0
C1826 C 0.93565 0.83229 0.4359 0.0
C1827 C 0.90697 0.83106 0.432 0.0
C1828 C 0.9009 0.85618 0.43515 0.0
C1829 C 0.92226 0.88087 0.44327 0.0
C1830 C 0.95074 0.88182 0.44737 0.0
H1831 H 0.98424 0.79823 0.46038 0.0
H1832 H 0.95359 0.80961 0.45802 0.0
H1833 H 0.96304 0.7894 0.44573 0.0
H1834 H 0.94121 0.8144 0.43221 0.0
H1835 H 0.89119 0.81229 0.42547 0.0
H1836 H 0.42908 0.91295 0.23859 0.0
H1837 H 0.47066 0.89997 0.23179 0.0
H1838 H 0.44269 0.83009 0.26187 0.0
H1839 H 0.4012 0.84305 0.2686 0.0
H1840 H 0.51828 0.91539 0.24929 0.0
H1841 H 0.46815 0.78757 0.23447 0.0
H1842 H 0.44384 0.80712 0.23479 0.0
H1843 H 0.45099 0.7911 0.249 0.0
C1844 C 0.431 0.89384 0.24336 0.0
C1845 C 0.41261 0.87925 0.25418 0.0
C1846 C 0.45465 0.88644 0.23949 0.0
C1847 C 0.45978 0.86417 0.24636 0.0
C1848 C 0.43889 0.84706 0.25635 0.0
H1849 H 0.62737 0.85366 0.26838 0.0
H1850 H 0.5809 0.8629 0.26724 0.0
C1851 C 0.41542 0.85462 0.26026 0.0
C1852 C 0.49074 0.86425 0.24504 0.0
H1853 H 0.52363 0.81516 0.24198 0.0
C1854 C 0.5195 0.89358 0.24744 0.0
C1855 C 0.49214 0.83566 0.24285 0.0
C1856 C 0.46211 0.80365 0.24003 0.0
C1857 C 0.54956 0.8949 0.24806 0.0
C1858 C 0.55085 0.86629 0.24612 0.0
C1859 C 0.52233 0.83707 0.24344 0.0
C1860 C 0.58162 0.86604 0.24694 0.0
C1861 C 0.57976 0.92663 0.25093 0.0
C1862 C 0.59749 0.86551 0.23591 0.0
C1863 C 0.62376 0.86011 0.23655 0.0
C1864 C 0.63492 0.85615 0.24824 0.0
C1865 C 0.61983 0.85799 0.25931 0.0
C1866 C 0.59329 0.86299 0.25866 0.0
H1867 H 0.57481 0.94706 0.25177 0.0
H1868 H 0.59058 0.92446 0.25987 0.0
H1869 H 0.59789 0.93228 0.24337 0.0
H1870 H 0.58857 0.86772 0.22681 0.0
H1871 H 0.63456 0.85774 0.22793 0.0
H1872 H 0.271 0.81903 0.2676 0.0
H1873 H 0.27315 0.77162 0.26112 0.0
H1874 H 0.19705 0.74986 0.23396 0.0
H1875 H 0.20491 0.8038 0.23737 0.0
H1876 H 0.23725 0.71932 0.26578 0.0
H1877 H 0.2299 0.70933 0.21382 0.0
H1878 H 0.23884 0.74659 0.22148 0.0
H1879 H 0.19727 0.71367 0.21992 0.0
C1880 C 0.25531 0.80459 0.25999 0.0
C1881 C 0.23498 0.81366 0.25379 0.0
C1882 C 0.25621 0.77695 0.25635 0.0
C1883 C 0.23441 0.75561 0.24728 0.0
C1884 C 0.21477 0.76531 0.24082 0.0
H1885 H 0.14952 0.55213 0.24902 0.0
H1886 H 0.16484 0.60726 0.2424 0.0
C1887 C 0.21726 0.79533 0.24338 0.0
C1888 C 0.23076 0.72261 0.24578 0.0
H1889 H 0.21416 0.66051 0.22532 0.0
C1890 C 0.23359 0.70752 0.25674 0.0
C1891 C 0.22453 0.70564 0.23414 0.0
C1892 C 0.22278 0.71987 0.2217 0.0
C1893 C 0.23119 0.67708 0.25645 0.0
C1894 C 0.22395 0.66004 0.24498 0.0
C1895 C 0.22023 0.67415 0.23403 0.0
C1896 C 0.21646 0.62609 0.24477 0.0
C1897 C 0.23562 0.66301 0.26855 0.0
C1898 C 0.24068 0.61832 0.24757 0.0
C1899 C 0.23191 0.58691 0.25139 0.0
C1900 C 0.19894 0.56328 0.25232 0.0
C1901 C 0.17504 0.57024 0.24827 0.0
C1902 C 0.18378 0.60155 0.24446 0.0
H1903 H 0.23674 0.67751 0.27692 0.0
H1904 H 0.21552 0.6377 0.26989 0.0
H1905 H 0.25874 0.66252 0.26807 0.0
H1906 H 0.26602 0.63712 0.24786 0.0
H1907 H 0.25057 0.5818 0.25458 0.0
H1908 H 0.48734 0.69072 0.26203 0.0
H1909 H 0.43555 0.64761 0.25383 0.0
H1910 H 0.4852 0.60246 0.23647 0.0
H1911 H 0.53707 0.64541 0.24495 0.0
H1912 H 0.40286 0.61112 0.23227 0.0
H1913 H 0.43559 0.54307 0.26621 0.0
H1914 H 0.45903 0.58651 0.2646 0.0
H1915 H 0.46339 0.56076 0.2533 0.0
C1916 C 0.48728 0.67231 0.25601 0.0
C1917 C 0.51586 0.67092 0.25424 0.0
C1918 C 0.45772 0.64771 0.25131 0.0
C1919 C 0.45644 0.62138 0.24485 0.0
C1920 C 0.48566 0.62235 0.24162 0.0
H1921 H 0.27059 0.43691 0.23451 0.0
H1922 H 0.32277 0.48521 0.22914 0.0
C1923 C 0.51527 0.64693 0.24638 0.0
C1924 C 0.42496 0.59059 0.24402 0.0
H1925 H 0.38432 0.51477 0.25693 0.0
C1926 C 0.39889 0.58978 0.23744 0.0
C1927 C 0.41959 0.56316 0.25115 0.0
C1928 C 0.44571 0.56334 0.25932 0.0
C1929 C 0.36753 0.56227 0.23791 0.0
C1930 C 0.36242 0.53502 0.24503 0.0
C1931 C 0.38859 0.5356 0.25132 0.0
C1932 C 0.32967 0.50711 0.24754 0.0
C1933 C 0.33968 0.56306 0.23146 0.0
C1934 C 0.31671 0.50328 0.25966 0.0
C1935 C 0.28794 0.47527 0.26288 0.0
C1936 C 0.2712 0.45055 0.25401 0.0
C1937 C 0.28349 0.45498 0.24167 0.0
C1938 C 0.31291 0.48283 0.23852 0.0
H1939 H 0.34773 0.58603 0.2262 0.0
H1940 H 0.32763 0.54239 0.22482 0.0
H1941 H 0.3213 0.56032 0.23856 0.0
H1942 H 0.32929 0.5218 0.26674 0.0
H1943 H 0.27875 0.473 0.27237 0.0
H1944 H 0.81998 0.59279 0.7537 0.0
H1945 H 0.81798 0.54344 0.76023 0.0
H1946 H 0.89331 0.59757 0.78764 0.0
H1947 H 0.88511 0.64353 0.78414 0.0
H1948 H 0.85461 0.52784 0.75544 0.0
H1949 H 0.86118 0.52358 0.80742 0.0
H1950 H 0.8519 0.55183 0.79987 0.0
H1951 H 0.89357 0.56068 0.80136 0.0
C1952 C 0.83561 0.59414 0.76136 0.0
C1953 C 0.85578 0.62355 0.76756 0.0
C1954 C 0.83478 0.56566 0.76503 0.0
C1955 C 0.85657 0.56612 0.77412 0.0
C1956 C 0.87581 0.59536 0.78068 0.0
H1957 H 0.93427 0.43975 0.76893 0.0
H1958 H 0.92413 0.48207 0.77715 0.0
C1959 C 0.87321 0.62286 0.77806 0.0
C1960 C 0.86055 0.53685 0.7755 0.0
H1961 H 0.87584 0.48989 0.79578 0.0
C1962 C 0.85799 0.51933 0.76445 0.0
C1963 C 0.86648 0.52561 0.78708 0.0
C1964 C 0.86813 0.5413 0.79959 0.0
C1965 C 0.8599 0.49101 0.76462 0.0
C1966 C 0.86654 0.48049 0.77604 0.0
C1967 C 0.87035 0.49808 0.78708 0.0
C1968 C 0.87178 0.45245 0.77614 0.0
C1969 C 0.85504 0.47261 0.75246 0.0
C1970 C 0.84559 0.42131 0.77368 0.0
C1971 C 0.85138 0.3973 0.76892 0.0
C1972 C 0.88335 0.40426 0.76674 0.0
C1973 C 0.90946 0.43404 0.77065 0.0
C1974 C 0.90368 0.45809 0.77537 0.0
H1975 H 0.85448 0.48643 0.74413 0.0
H1976 H 0.87461 0.46657 0.75109 0.0
H1977 H 0.83152 0.44948 0.75286 0.0
H1978 H 0.82083 0.41668 0.77416 0.0
H1979 H 0.831 0.37445 0.76584 0.0
H1980 H 0.66048 0.52804 0.78281 0.0
H1981 H 0.61916 0.47369 0.78981 0.0
H1982 H 0.64571 0.43137 0.75938 0.0
H1983 H 0.68697 0.48553 0.75249 0.0
H1984 H 0.57018 0.44072 0.7734 0.0
H1985 H 0.62258 0.36381 0.78638 0.0
H1986 H 0.64676 0.40757 0.78583 0.0
H1987 H 0.63831 0.38395 0.77165 0.0
C1988 C 0.65831 0.50696 0.778 0.0
C1989 C 0.67632 0.5106 0.76706 0.0
C1990 C 0.63477 0.47602 0.78197 0.0
C1991 C 0.62932 0.4485 0.7751 0.0
C1992 C 0.64974 0.45215 0.76493 0.0
H1993 H 0.46721 0.27016 0.75213 0.0
H1994 H 0.51315 0.32574 0.75413 0.0
C1995 C 0.6731 0.48305 0.76093 0.0
C1996 C 0.59859 0.41748 0.77671 0.0
H1997 H 0.56683 0.33554 0.77886 0.0
C1998 C 0.56942 0.4178 0.77491 0.0
C1999 C 0.59768 0.38757 0.77846 0.0
C2000 C 0.62805 0.38573 0.7808 0.0
C2001 C 0.53952 0.38892 0.77432 0.0
C2002 C 0.53877 0.3591 0.77565 0.0
C2003 C 0.56767 0.35865 0.77785 0.0
C2004 C 0.50835 0.32791 0.77427 0.0
C2005 C 0.50899 0.39024 0.77185 0.0
C2006 C 0.49036 0.31127 0.78493 0.0
C2007 C 0.46425 0.27963 0.7838 0.0
C2008 C 0.45535 0.26476 0.77196 0.0
C2009 C 0.47294 0.28179 0.76127 0.0
C2010 C 0.49916 0.3133 0.76241 0.0
H2011 H 0.51342 0.4155 0.77164 0.0
H2012 H 0.4986 0.37853 0.76267 0.0
H2013 H 0.49077 0.37647 0.77925 0.0
H2014 H 0.49743 0.32224 0.79416 0.0
H2015 H 0.45174 0.26638 0.7922 0.0
H2016 H 0.60033 0.23792 0.7512 0.0
H2017 H 0.65313 0.24907 0.75912 0.0
H2018 H 0.60554 0.17682 0.78807 0.0
H2019 H 0.55238 0.16487 0.7798 0.0
H2020 H 0.69154 0.26381 0.7787 0.0
H2021 H 0.64222 0.13391 0.76624 0.0
H2022 H 0.61977 0.15465 0.76359 0.0
H2023 H 0.62162 0.14042 0.77908 0.0
C2024 C 0.60128 0.22506 0.75945 0.0
C2025 C 0.5727 0.1998 0.76464 0.0
C2026 C 0.63139 0.23151 0.76402 0.0
C2027 C 0.63315 0.21265 0.7738 0.0
C2028 C 0.60458 0.19076 0.78021 0.0
H2029 H 0.81443 0.21742 0.79299 0.0
H2030 H 0.75903 0.20913 0.79416 0.0
C2031 C 0.57432 0.18413 0.77556 0.0
C2032 C 0.66384 0.2122 0.77558 0.0
H2033 H 0.69724 0.16345 0.77191 0.0
C2034 C 0.69271 0.24178 0.77743 0.0
C2035 C 0.66542 0.18351 0.77348 0.0
C2036 C 0.6357 0.15138 0.77036 0.0
C2037 C 0.72306 0.24351 0.77705 0.0
C2038 C 0.72439 0.21483 0.77513 0.0
C2039 C 0.69575 0.18519 0.77355 0.0
C2040 C 0.75566 0.21558 0.77421 0.0
C2041 C 0.75367 0.27605 0.77818 0.0
C2042 C 0.77126 0.22091 0.76255 0.0
C2043 C 0.80246 0.22504 0.76185 0.0
C2044 C 0.81807 0.22335 0.77278 0.0
C2045 C 0.80219 0.21752 0.78441 0.0
C2046 C 0.77086 0.21309 0.7851 0.0
H2047 H 0.74848 0.29601 0.78004 0.0
H2048 H 0.76911 0.27537 0.78587 0.0
H2049 H 0.76785 0.28148 0.76932 0.0
H2050 H 0.75984 0.22319 0.75409 0.0
H2051 H 0.81498 0.23094 0.75288 0.0
H2052 H 0.0605 0.16432 0.59934 0.0
H2053 H 0.10342 0.15464 0.59161 0.0
H2054 H 0.1403 0.24008 0.56829 0.0
H2055 H 0.09764 0.2502 0.57631 0.0
H2056 H 0.13444 0.14949 0.57101 0.0
H2057 H 0.20922 0.26726 0.59551 0.0
H2058 H 0.16546 0.24618 0.59563 0.0
H2059 H 0.18752 0.2695 0.5821 0.0
C2060 C 0.07714 0.18033 0.59223 0.0
C2061 C 0.07664 0.20845 0.58866 0.0
C2062 C 0.10158 0.17478 0.5878 0.0
C2063 C 0.12578 0.19743 0.5798 0.0
C2064 C 0.12234 0.22287 0.57476 0.0
H2065 H 0.30269 0.1918 0.56209 0.0
H2066 H 0.25581 0.20037 0.56075 0.0
C2067 C 0.0979 0.22851 0.57925 0.0
C2068 C 0.157 0.19767 0.57881 0.0
H2069 H 0.23677 0.2414 0.58767 0.0
C2070 C 0.15693 0.16978 0.57444 0.0
C2071 C 0.18606 0.22374 0.58379 0.0
C2072 C 0.18716 0.25323 0.58964 0.0
C2073 C 0.18521 0.16737 0.57487 0.0
C2074 C 0.21425 0.19373 0.57956 0.0
C2075 C 0.21444 0.22157 0.58389 0.0
C2076 C 0.24436 0.19211 0.58056 0.0
C2077 C 0.18372 0.13623 0.57085 0.0
C2078 C 0.25384 0.18583 0.59222 0.0
C2079 C 0.2809 0.18167 0.59303 0.0
C2080 C 0.29903 0.18429 0.58222 0.0
C2081 C 0.28973 0.19096 0.5706 0.0
C2082 C 0.26287 0.19546 0.5698 0.0
H2083 H 0.15883 0.11737 0.56801 0.0
H2084 H 0.20049 0.14103 0.56283 0.0
H2085 H 0.19188 0.12659 0.5787 0.0
H2086 H 0.23957 0.1829 0.60058 0.0
H2087 H 0.2869 0.17508 0.60197 0.0
H2088 H 0.8985 0.92527 0.60781 0.0
H2089 H 0.91205 0.97881 0.60011 0.0
H2090 H 0.86216 0.93631 0.56529 0.0
H2091 H 0.8474 0.88217 0.57329 0.0
H2092 H 0.93967 0.0202 0.58209 0.0
H2093 H 0.80573 0.96927 0.57892 0.0
H2094 H 0.82324 0.94587 0.58474 0.0
H2095 H 0.82211 0.95217 0.5681 0.0
C2096 C 0.89086 0.9275 0.59844 0.0
C2097 C 0.87089 0.89981 0.59133 0.0
C2098 C 0.89878 0.95807 0.59399 0.0
C2099 C 0.88681 0.96138 0.58236 0.0
C2100 C 0.87051 0.9341 0.57451 0.0
H2101 H 0.89537 0.14469 0.56249 0.0
H2102 H 0.88684 0.08939 0.56072 0.0
C2103 C 0.86234 0.90331 0.57902 0.0
C2104 C 0.88775 0.99236 0.57956 0.0
H2105 H 0.83853 0.02553 0.5768 0.0
C2106 C 0.9176 0.02132 0.58072 0.0
C2107 C 0.85878 0.9938 0.578 0.0
C2108 C 0.82561 0.96369 0.57747 0.0
C2109 C 0.91912 0.0515 0.5809 0.0
C2110 C 0.89018 0.05275 0.57957 0.0
C2111 C 0.86057 0.02416 0.57777 0.0
C2112 C 0.89029 0.08365 0.58072 0.0
C2113 C 0.95143 0.08183 0.58307 0.0
C2114 C 0.89393 0.09791 0.59259 0.0
C2115 C 0.89836 0.1291 0.5936 0.0
C2116 C 0.89848 0.14604 0.5828 0.0
C2117 C 0.8941 0.13145 0.57095 0.0
C2118 C 0.88946 0.10012 0.56994 0.0
H2119 H 0.97215 0.07732 0.58209 0.0
H2120 H 0.95476 0.10115 0.57636 0.0
H2121 H 0.95193 0.09097 0.59272 0.0
H2122 H 0.89474 0.08545 0.60099 0.0
H2123 H 0.90295 0.14052 0.60277 0.0
H2124 H 0.15742 1.00311 0.60822 0.0
H2125 H 0.10358 0.96273 0.60096 0.0
H2126 H 0.14345 0.96083 0.56465 0.0
H2127 H 0.19796 1.00028 0.57223 0.0
H2128 H 0.05995 0.94873 0.58425 0.0
H2129 H 0.11561 0.8712 0.57601 0.0
H2130 H 0.13855 0.91156 0.58232 0.0
H2131 H 0.1299 0.90555 0.56574 0.0
C2132 C 0.15451 0.99445 0.59863 0.0
C2133 C 0.18167 1.00358 0.59094 0.0
C2134 C 0.12377 0.97154 0.59443 0.0
C2135 C 0.1198 0.95759 0.58246 0.0
C2136 C 0.14627 0.97028 0.57411 0.0
H2137 H 0.93978 0.78447 0.56089 0.0
H2138 H 0.99477 0.83193 0.56009 0.0
C2139 C 0.17726 0.99304 0.57838 0.0
C2140 C 0.08927 0.92714 0.57975 0.0
H2141 H 0.05892 0.84591 0.57493 0.0
C2142 C 0.05976 0.92635 0.58205 0.0
C2143 C 0.0891 0.89777 0.57708 0.0
C2144 C 0.11994 0.89637 0.57525 0.0
C2145 C 0.03031 0.89699 0.58229 0.0
C2146 C 0.03035 0.86787 0.57978 0.0
C2147 C 0.05939 0.86855 0.57686 0.0
C2148 C 1.00019 0.83643 0.58029 0.0
C2149 C 0.99945 0.89705 0.58566 0.0
C2150 C 0.98605 0.82288 0.59192 0.0
C2151 C 0.95502 0.79567 0.59238 0.0
C2152 C 0.93821 0.78169 0.5812 0.0
C2153 C 0.95291 0.79455 0.56958 0.0
C2154 C 0.98405 0.82156 0.56912 0.0
H2155 H 1.00284 0.92192 0.58568 0.0
H2156 H 0.9797 0.88175 0.57898 0.0
H2157 H 0.99148 0.88655 0.5952 0.0
H2158 H 0.99834 0.83429 0.60062 0.0
H2159 H 0.94346 0.78662 0.60142 0.0
H2160 H 0.55536 0.09246 0.06193 0.0
H2161 H 0.55935 0.09088 0.03884 0.0
H2162 H 0.55665 0.99912 0.04161 0.0
H2163 H 0.55144 1.00014 0.06445 0.0
H2164 H 0.60181 0.08635 0.0219 0.0
H2165 H 0.48111 0.9751 0.01843 0.0
H2166 H 0.49529 0.9983 0.03276 0.0
H2167 H 0.50909 0.97061 0.02837 0.0
C2168 C 0.55659 0.07248 0.0576 0.0
C2169 C 0.55379 0.04677 0.06505 0.0
C2170 C 0.55851 0.07136 0.04438 0.0
C2171 C 0.55756 0.04447 0.03834 0.0
C2172 C 0.55656 0.01973 0.04589 0.0
H2173 H 0.53003 0.97932 0.9591 0.0
H2174 H 0.54098 0.98431 0.98191 0.0
C2175 C 0.55418 0.02063 0.05901 0.0
C2176 C 0.55672 0.04167 0.02421 0.0
H2177 H 0.5119 0.99297 0.99975 0.0
C2178 C 0.58211 0.06594 0.01706 0.0
C2179 C 0.53123 0.01494 0.01777 0.0
C2180 C 0.50248 0.98839 0.0247 0.0
C2181 C 0.58311 0.06402 1.00381 0.0
C2182 C 0.55727 0.0375 0.99729 0.0
C2183 C 0.53194 0.01321 1.00452 0.0
C2184 C 0.55479 0.03517 0.98309 0.0
C2185 C 0.61262 0.09018 0.9971 0.0
C2186 C 0.5597 0.06196 0.97584 0.0
C2187 C 0.55494 0.05934 0.96281 0.0
C2188 C 0.54309 0.02946 0.95657 0.0
C2189 C 0.53897 1.00267 0.96361 0.0
C2190 C 0.54493 1.00554 0.9767 0.0
H2191 H 0.63452 0.09999 1.00319 0.0
H2192 H 0.61778 0.08113 0.98827 0.0
H2193 H 0.60854 0.11067 0.99486 0.0
H2194 H 0.5662 0.08489 0.98026 0.0
H2195 H 0.55968 0.08082 0.95763 0.0
H2196 H 1.00108 0.51524 0.95724 0.0
H2197 H 0.99719 0.51858 0.98005 0.0
H2198 H 0.10153 0.57648 0.98238 0.0
H2199 H 0.10547 0.57224 0.95937 0.0
H2200 H 0.02407 0.49506 0.99793 0.0
H2201 H 0.07025 0.62649 1.00515 0.0
H2202 H 0.05596 0.6069 0.99009 0.0
H2203 H 0.09559 0.61681 0.99562 0.0
C2204 C 0.02327 0.52897 0.96257 0.0
C2205 C 0.05363 0.54335 0.95643 0.0
C2206 C 0.02098 0.53089 0.97567 0.0
C2207 C 0.04898 0.54782 0.98311 0.0
C2208 C 0.07942 0.56353 0.97694 0.0
H2209 H 0.08611 0.56238 0.06414 0.0
H2210 H 0.08887 0.56969 0.04125 0.0
C2211 C 0.08172 0.56123 0.96376 0.0
C2212 C 0.04611 0.54703 0.99727 0.0
H2213 H 0.06139 0.59465 0.0235 0.0
C2214 C 0.0321 0.51688 1.00348 0.0
C2215 C 0.05646 0.57535 1.00466 0.0
C2216 C 0.07017 0.60826 0.99859 0.0
C2217 C 0.02889 0.51434 0.01672 0.0
C2218 C 0.03927 0.54263 0.02413 0.0
C2219 C 0.05323 0.57284 0.01793 0.0
C2220 C 0.03695 0.54116 0.03831 0.0
C2221 C 1.01537 0.48134 0.02272 0.0
C2222 C 1.00679 0.52357 0.04456 0.0
C2223 C 1.00517 0.51945 0.05775 0.0
C2224 C 0.03366 0.53305 0.06502 0.0
C2225 C 0.06366 0.55183 0.05884 0.0
C2226 C 0.06528 0.55598 0.0457 0.0
H2227 H 1.01475 0.46306 0.01604 0.0
H2228 H 0.03008 0.48254 0.03103 0.0
H2229 H 0.99015 0.47284 0.02595 0.0
H2230 H 0.98444 0.51228 0.0392 0.0
H2231 H 0.98176 0.5046 0.06219 0.0
H2232 H 0.57218 0.51907 0.95953 0.0
H2233 H 0.5662 0.51398 0.98225 0.0
H2234 H 0.49684 0.5472 0.98095 0.0
H2235 H 0.50349 0.55339 0.95782 0.0
H2236 H 0.56324 0.58096 0.99899 0.0
H2237 H 0.47862 0.44818 1.00412 0.0
H2238 H 0.50819 0.46244 0.9916 0.0
H2239 H 0.47553 0.47107 0.99114 0.0
C2240 C 0.5555 0.52532 0.96399 0.0
C2241 C 0.5389 0.53746 0.95679 0.0
C2242 C 0.552 0.52215 0.97704 0.0
C2243 C 0.53132 0.53042 0.98339 0.0
C2244 C 0.51318 0.54089 0.97626 0.0
H2245 H 0.49636 0.50706 0.06502 0.0
H2246 H 0.48989 0.50543 0.04226 0.0
C2247 C 0.51678 0.5442 0.96304 0.0
C2248 C 0.53061 0.52958 0.99747 0.0
H2249 H 0.50453 0.47734 0.02254 0.0
C2250 C 0.55005 0.55838 1.00416 0.0
C2251 C 0.51378 0.50011 1.00424 0.0
C2252 C 0.49269 0.46855 0.9975 0.0
C2253 C 0.55347 0.55845 0.01735 0.0
C2254 C 0.53735 0.52878 0.02413 0.0
C2255 C 0.51716 0.50008 0.01744 0.0
C2256 C 0.54118 0.52717 0.03811 0.0
C2257 C 0.5742 0.59045 0.02392 0.0
C2258 C 0.57204 0.5388 0.04356 0.0
C2259 C 0.57587 0.54004 0.05668 0.0
C2260 C 0.54889 0.5288 0.06476 0.0
C2261 C 0.51778 0.51534 0.05928 0.0
C2262 C 0.51401 0.51461 0.04614 0.0
H2263 H 0.57789 0.61129 0.01802 0.0
H2264 H 0.56305 0.59139 0.03298 0.0
H2265 H 0.59847 0.59341 0.02593 0.0
H2266 H 0.59342 0.54778 0.03766 0.0
H2267 H 0.60019 0.55095 0.06055 0.0
H2268 H 0.19395 0.40785 0.39373 0.0
H2269 H 0.19744 0.40509 0.37078 0.0
H2270 H 0.25188 0.35544 0.37498 0.0
H2271 H 0.249 0.3586 0.39777 0.0
H2272 H 0.25159 0.42576 0.35307 0.0
H2273 H 0.17048 0.29191 0.35399 0.0
H2274 H 0.17472 0.3173 0.3673 0.0
H2275 H 0.20597 0.30767 0.36381 0.0
C2276 C 0.20761 0.39728 0.38978 0.0
C2277 C 0.22169 0.3841 0.39779 0.0
C2278 C 0.20936 0.39547 0.37661 0.0
C2279 C 0.2246 0.3797 0.37103 0.0
C2280 C 0.23974 0.36754 0.37897 0.0
H2281 H 0.25001 0.36335 0.28866 0.0
H2282 H 0.26027 0.36972 0.3114 0.0
C2283 C 0.2384 0.36978 0.39215 0.0
C2284 C 0.22321 0.37467 0.35701 0.0
H2285 H 0.18984 0.31601 0.33417 0.0
C2286 C 0.23836 0.40173 0.34896 0.0
C2287 C 0.20571 0.34334 0.35152 0.0
C2288 C 0.18804 0.31332 0.35955 0.0
C2289 C 0.23644 0.39829 0.33571 0.0
C2290 C 0.21867 0.367 0.33026 0.0
C2291 C 0.20373 0.33997 0.33829 0.0
C2292 C 0.21273 0.36207 0.31633 0.0
C2293 C 0.25248 0.4282 0.32757 0.0
C2294 C 0.18228 0.3544 0.31145 0.0
C2295 C 0.17636 0.35075 0.29846 0.0
C2296 C 0.20078 0.35504 0.28982 0.0
C2297 C 0.23077 0.3608 0.2948 0.0
C2298 C 0.23674 0.36453 0.30789 0.0
H2299 H 0.26515 0.45085 0.33321 0.0
H2300 H 0.27042 0.42693 0.32124 0.0
H2301 H 0.23394 0.42931 0.32156 0.0
H2302 H 0.16312 0.35187 0.31771 0.0
H2303 H 0.15258 0.34525 0.29516 0.0
H2304 H 0.76114 0.89328 0.39502 0.0
H2305 H 0.76041 0.89762 0.37226 0.0
H2306 H 0.65722 0.86147 0.37327 0.0
H2307 H 0.65754 0.85598 0.39641 0.0
H2308 H 0.71286 0.83667 0.35605 0.0
H2309 H 0.70762 0.95018 0.34956 0.0
H2310 H 0.72569 0.94359 0.36338 0.0
H2311 H 0.68248 0.92118 0.36138 0.0
C2312 C 0.73817 0.88642 0.39049 0.0
C2313 C 0.70924 0.8737 0.39758 0.0
C2314 C 0.73789 0.88899 0.37742 0.0
C2315 C 0.70882 0.87967 0.37101 0.0
C2316 C 0.67999 0.86876 0.37804 0.0
H2317 H 0.66963 0.87022 0.2907 0.0
H2318 H 0.66907 0.87431 0.31362 0.0
C2319 C 0.68019 0.86582 0.39125 0.0
C2320 C 0.70906 0.87982 0.35696 0.0
H2321 H 0.71135 0.92423 0.33124 0.0
C2322 C 0.71245 0.85576 0.35062 0.0
C2323 C 0.70869 0.90479 0.34988 0.0
C2324 C 0.70602 0.9316 0.3563 0.0
C2325 C 0.71528 0.85592 0.33742 0.0
C2326 C 0.71541 0.88117 0.33029 0.0
C2327 C 0.71164 0.90505 0.33665 0.0
C2328 C 0.71759 0.88206 0.31621 0.0
C2329 C 0.71685 0.82837 0.33112 0.0
C2330 C 0.74552 0.88618 0.30987 0.0
C2331 C 0.74613 0.88444 0.29664 0.0
C2332 C 0.71871 0.87835 0.28954 0.0
C2333 C 0.69132 0.87542 0.2959 0.0
C2334 C 0.69088 0.87755 0.30903 0.0
H2335 H 0.71175 0.80832 0.33775 0.0
H2336 H 0.69887 0.81864 0.32337 0.0
H2337 H 0.74137 0.83733 0.32702 0.0
H2338 H 0.76659 0.88994 0.31518 0.0
H2339 H 0.76724 0.88602 0.29205 0.0
H2340 H 0.16376 0.83123 0.28879 0.0
H2341 H 0.15879 0.82152 0.31163 0.0
H2342 H 0.23958 0.91784 0.31765 0.0
H2343 H 0.24281 0.92844 0.29532 0.0
H2344 H 0.19699 0.81842 0.32918 0.0
H2345 H 0.18094 0.9213 0.34256 0.0
H2346 H 0.17871 0.90899 0.32641 0.0
H2347 H 0.21748 0.93606 0.33358 0.0
C2348 C 0.18004 0.85059 0.29497 0.0
C2349 C 0.20416 0.88054 0.28997 0.0
C2350 C 0.17733 0.84489 0.30812 0.0
C2351 C 0.19849 0.86905 0.31663 0.0
C2352 C 0.22214 0.89892 0.31157 0.0
H2353 H 0.26891 0.9006 0.3922 0.0
H2354 H 0.25821 0.89637 0.36971 0.0
C2355 C 0.22433 0.9048 0.2986 0.0
C2356 C 0.19686 0.86355 0.33071 0.0
H2357 H 0.20189 0.9012 0.35885 0.0
C2358 C 0.19744 0.83627 0.33564 0.0
C2359 C 0.19702 0.88639 0.3394 0.0
C2360 C 0.19312 0.91457 0.3352 0.0
C2361 C 0.20005 0.83239 0.34874 0.0
C2362 C 0.20244 0.85643 0.35725 0.0
C2363 C 0.20053 0.8829 0.35239 0.0
C2364 C 0.20917 0.85605 0.37108 0.0
C2365 C 0.20149 0.80324 0.35344 0.0
C2366 C 0.18549 0.83426 0.37957 0.0
C2367 C 0.1914 0.83699 0.39268 0.0
C2368 C 0.22108 0.86172 0.39764 0.0
C2369 C 0.24533 0.88184 0.38894 0.0
C2370 C 0.23934 0.87939 0.37596 0.0
H2371 H 0.20226 0.78812 0.34563 0.0
H2372 H 0.22324 0.81111 0.35947 0.0
H2373 H 0.17973 0.78804 0.3593 0.0
H2374 H 0.16197 0.81591 0.3761 0.0
H2375 H 0.17217 0.82053 0.39884 0.0
H2376 H 0.91677 0.76728 0.72865 0.0
H2377 H 0.92109 0.76356 0.7056 0.0
H2378 H 0.86037 0.65962 0.7077 0.0
H2379 H 0.85668 0.66326 0.73049 0.0
H2380 H 0.94108 0.72778 0.68904 0.0
H2381 H 0.80999 0.68652 0.68359 0.0
H2382 H 0.8319 0.70445 0.69794 0.0
H2383 H 0.81824 0.66261 0.69445 0.0
C2384 C 0.90493 0.74367 0.72419 0.0
C2385 C 0.88604 0.71561 0.7314 0.0
C2386 C 0.90723 0.74151 0.71099 0.0
C2387 C 0.89035 0.71132 0.70476 0.0
C2388 C 0.87302 0.68328 0.71213 0.0
H2389 H 0.84981 0.64743 0.62535 0.0
H2390 H 0.85582 0.64859 0.64846 0.0
C2391 C 0.87097 0.68541 0.72521 0.0
C2392 C 0.88953 0.70882 0.69063 0.0
H2393 H 0.83746 0.68356 0.66543 0.0
C2394 C 0.91843 0.71824 0.6839 0.0
C2395 C 0.86002 0.69626 0.68378 0.0
C2396 C 0.82829 0.68714 0.69026 0.0
C2397 C 0.9185 0.71498 0.67066 0.0
C2398 C 0.88895 0.70229 0.66383 0.0
C2399 C 0.86009 0.69288 0.67057 0.0
C2400 C 0.8877 0.70062 0.64967 0.0
C2401 C 0.95023 0.72466 0.6641 0.0
C2402 C 0.90378 0.72921 0.64254 0.0
C2403 C 0.90034 0.72851 0.62943 0.0
C2404 C 0.88077 0.69919 0.62296 0.0
C2405 C 0.86553 0.67029 0.62998 0.0
C2406 C 0.86873 0.67105 0.64322 0.0
H2407 H 0.96874 0.72548 0.67071 0.0
H2408 H 0.94674 0.70756 0.65635 0.0
H2409 H 0.9599 0.74923 0.65999 0.0
H2410 H 0.91803 0.75243 0.64716 0.0
H2411 H 0.91218 0.7513 0.62435 0.0
H2412 H 0.3915 0.25462 0.62216 0.0
H2413 H 0.39087 0.26161 0.64514 0.0
H2414 H 0.38512 0.16896 0.6505 0.0
H2415 H 0.39178 0.16524 0.62822 0.0
H2416 H 0.35188 0.23539 0.6631 0.0
H2417 H 0.45001 0.21129 0.67548 0.0
H2418 H 0.44219 0.21639 0.65934 0.0
H2419 H 0.42051 0.17701 0.66686 0.0
C2420 C 0.39127 0.23636 0.6283 0.0
C2421 C 0.39067 0.20869 0.62317 0.0
C2422 C 0.39044 0.24012 0.64151 0.0
C2423 C 0.38863 0.21616 0.64991 0.0
C2424 C 0.38795 0.18874 0.64462 0.0
H2425 H 0.34809 0.15066 0.72646 0.0
H2426 H 0.35209 0.15901 0.70374 0.0
C2427 C 0.39047 0.18591 0.63164 0.0
C2428 C 0.38652 0.21867 0.66407 0.0
H2429 H 0.41009 0.19951 0.69177 0.0
C2430 C 0.3651 0.22804 0.66933 0.0
C2431 C 0.40406 0.20983 0.67253 0.0
C2432 C 0.43071 0.20349 0.66822 0.0
C2433 C 0.3594 0.22686 0.68247 0.0
C2434 C 0.37502 0.21545 0.6907 0.0
C2435 C 0.39737 0.20747 0.68553 0.0
C2436 C 0.36811 0.21026 0.70461 0.0
C2437 C 0.33597 0.23691 0.68742 0.0
C2438 C 0.37467 0.23596 0.71291 0.0
C2439 C 0.37199 0.23106 0.72607 0.0
C2440 C 0.3633 0.20046 0.73124 0.0
C2441 C 0.35511 0.17459 0.72286 0.0
C2442 C 0.35749 0.17938 0.70981 0.0
H2443 H 0.32103 0.23886 0.67981 0.0
H2444 H 0.31955 0.21943 0.69459 0.0
H2445 H 0.3499 0.26103 0.69199 0.0
H2446 H 0.38342 0.26019 0.70928 0.0
H2447 H 0.37859 0.25171 0.73209 0.0
H2448 H 0.90327 0.26052 0.62818 0.0
H2449 H 0.89892 0.25266 0.65096 0.0
H2450 H 0.83045 0.15104 0.64571 0.0
H2451 H 0.83423 0.15888 0.62285 0.0
H2452 H 0.84457 0.22681 0.66813 0.0
H2453 H 0.90585 0.15312 0.66706 0.0
H2454 H 0.90711 0.17779 0.65393 0.0
H2455 H 0.871 0.13977 0.657 0.0
C2456 C 0.8868 0.23654 0.63184 0.0
C2457 C 0.86947 0.21036 0.62354 0.0
C2458 C 0.8844 0.23206 0.64493 0.0
C2459 C 0.86488 0.20112 0.65017 0.0
C2460 C 0.84616 0.1751 0.64196 0.0
H2461 H 0.83655 0.15732 0.73224 0.0
H2462 H 0.82753 0.15316 0.70937 0.0
C2463 C 0.84817 0.1797 0.6288 0.0
C2464 C 0.86509 0.19638 0.66415 0.0
H2465 H 0.89055 0.16294 0.68693 0.0
C2466 C 0.85424 0.21248 0.67221 0.0
C2467 C 0.87814 0.17808 0.66959 0.0
C2468 C 0.89146 0.16134 0.66151 0.0
C2469 C 0.85615 0.21084 0.68543 0.0
C2470 C 0.8694 0.19278 0.69085 0.0
C2471 C 0.87999 0.17644 0.68282 0.0
C2472 C 0.87514 0.19319 0.70474 0.0
C2473 C 0.84484 0.22921 0.6936 0.0
C2474 C 0.90522 0.21618 0.70979 0.0
C2475 C 0.91044 0.21852 0.72283 0.0
C2476 C 0.88568 0.19827 0.73127 0.0
C2477 C 0.85614 0.17376 0.72616 0.0
C2478 C 0.85086 0.17142 0.71303 0.0
H2479 H 0.83409 0.24127 0.68803 0.0
H2480 H 0.82645 0.21237 0.70044 0.0
H2481 H 0.8657 0.24794 0.69908 0.0
H2482 H 0.92453 0.23299 0.70365 0.0
H2483 H 0.93384 0.23689 0.72635 0.0
H2484 H 0.24234 0.86295 0.20356 0.0
H2485 H 0.28113 0.87633 0.18575 0.0
H2486 H 0.35865 0.94664 0.20887 0.0
H2487 H 0.32209 0.93457 0.22591 0.0
H2488 H 0.32347 0.93585 0.17263 0.0
H2489 H 0.4006 0.89629 0.19656 0.0
H2490 H 0.36028 0.88474 0.20208 0.0
H2491 H 0.39451 0.92338 0.2064 0.0
C2492 C 0.26762 0.88116 0.20485 0.0
C2493 C 0.27819 0.89699 0.21659 0.0
C2494 C 0.29 0.88886 0.19461 0.0
C2495 C 0.3236 0.91213 0.19591 0.0
C2496 C 0.33356 0.92798 0.20748 0.0
H2497 H 0.50329 0.03165 0.15123 0.0
H2498 H 0.46264 1.00675 0.16837 0.0
C2499 C 0.31175 0.92075 0.21743 0.0
C2500 C 0.34899 0.92168 0.18551 0.0
H2501 H 0.42674 0.93594 0.18007 0.0
C2502 C 0.34575 0.93531 0.17422 0.0
C2503 C 0.37867 0.92147 0.18736 0.0
C2504 C 0.38361 0.90537 0.1987 0.0
C2505 C 0.37125 0.94953 0.16519 0.0
C2506 C 0.40134 0.95055 0.16733 0.0
C2507 C 0.40431 0.93617 0.17843 0.0
C2508 C 0.42877 0.96446 0.15769 0.0
C2509 C 0.36606 0.9641 0.15345 0.0
C2510 C 0.42468 0.94853 0.14617 0.0
C2511 C 0.44809 0.96224 0.13659 0.0
C2512 C 0.47668 0.99284 0.13793 0.0
C2513 C 0.48199 1.00808 0.14976 0.0
C2514 C 0.4584 0.99391 0.15955 0.0
H2515 H 0.34465 0.96755 0.15427 0.0
H2516 H 0.3879 0.98787 0.15132 0.0
H2517 H 0.36198 0.94767 0.14539 0.0
H2518 H 0.40267 0.9257 0.1444 0.0
H2519 H 0.4428 0.94934 0.12773 0.0
H2520 H 0.04059 0.47143 0.14422 0.0
H2521 H 0.06483 0.45418 0.16077 0.0
H2522 H 0.15874 0.53674 0.15287 0.0
H2523 H 0.13451 0.55353 0.13609 0.0
H2524 H 0.11516 0.43781 0.1571 0.0
H2525 H 0.15702 0.53764 0.19194 0.0
H2526 H 0.1265 0.53054 0.18027 0.0
H2527 H 0.1685 0.54916 0.17582 0.0
C2528 C 0.06619 0.48669 0.1463 0.0
C2529 C 0.08509 0.51478 0.13901 0.0
C2530 C 0.08028 0.47649 0.15574 0.0
C2531 C 0.1139 0.49406 0.15843 0.0
C2532 C 0.13273 0.52274 0.15139 0.0
H2533 H 0.22971 0.45744 0.21656 0.0
H2534 H 0.2133 0.48118 0.19944 0.0
C2535 C 0.11868 0.53265 0.14179 0.0
C2536 C 0.12919 0.48105 0.16784 0.0
H2537 H 0.16993 0.49666 0.1961 0.0
C2538 C 0.12701 0.45078 0.16564 0.0
C2539 C 0.14572 0.49785 0.17896 0.0
C2540 C 0.14955 0.53052 0.18202 0.0
C2541 C 0.14047 0.43711 0.17397 0.0
C2542 C 0.15548 0.45295 0.18548 0.0
C2543 C 0.15831 0.4837 0.18754 0.0
C2544 C 0.16741 0.43773 0.19548 0.0
C2545 C 0.13946 0.40622 0.16992 0.0
C2546 C 0.14801 0.40501 0.19928 0.0
C2547 C 0.1581 0.3911 0.20879 0.0
C2548 C 0.18784 0.40925 0.21521 0.0
C2549 C 0.20737 0.44202 0.21153 0.0
C2550 C 0.19752 0.45588 0.20181 0.0
H2551 H 0.13963 0.40445 0.15951 0.0
H2552 H 0.16044 0.40462 0.17367 0.0
H2553 H 0.11658 0.3851 0.17333 0.0
H2554 H 0.12413 0.3902 0.19525 0.0
H2555 H 0.14162 0.36627 0.21158 0.0
H2556 H 0.68481 0.84012 0.20243 0.0
H2557 H 0.6595 0.80211 0.18442 0.0
H2558 H 0.62978 0.72094 0.20941 0.0
H2559 H 0.65184 0.75627 0.22669 0.0
H2560 H 0.66861 0.75496 0.17332 0.0
H2561 H 0.54539 0.68919 0.19314 0.0
H2562 H 0.57619 0.72715 0.19971 0.0
H2563 H 0.57322 0.68931 0.20448 0.0
C2564 C 0.67262 0.81421 0.20408 0.0
C2565 C 0.67109 0.80231 0.21639 0.0
C2566 C 0.65803 0.79229 0.19373 0.0
C2567 C 0.64147 0.75801 0.19545 0.0
C2568 C 0.64081 0.74672 0.2076 0.0
H2569 H 0.57721 0.57668 0.15179 0.0
H2570 H 0.59316 0.61763 0.16879 0.0
C2571 C 0.65446 0.76791 0.21769 0.0
C2572 C 0.62589 0.733 0.18496 0.0
H2573 H 0.55887 0.65843 0.17851 0.0
C2574 C 0.64442 0.73422 0.17441 0.0
C2575 C 0.59408 0.70534 0.18612 0.0
C2576 C 0.57102 0.70288 0.19641 0.0
C2577 C 0.63287 0.70852 0.16552 0.0
C2578 C 0.60192 0.68025 0.16709 0.0
C2579 C 0.58294 0.67937 0.17739 0.0
C2580 C 0.58818 0.65287 0.15753 0.0
C2581 C 0.65414 0.71151 0.15448 0.0
C2582 C 0.57828 0.65784 0.14573 0.0
C2583 C 0.56853 0.63435 0.13622 0.0
C2584 C 0.5685 0.60481 0.13796 0.0
C2585 C 0.57648 0.59874 0.15004 0.0
C2586 C 0.58603 0.62246 0.15974 0.0
H2587 H 0.67946 0.73179 0.15569 0.0
H2588 H 0.65459 0.68859 0.1531 0.0
H2589 H 0.64397 0.71606 0.14583 0.0
H2590 H 0.57914 0.68058 0.1437 0.0
H2591 H 0.56258 0.64023 0.12712 0.0
H2592 H 0.9547 0.46663 0.88459 0.0
H2593 H 0.93007 0.42551 0.86784 0.0
H2594 H 0.02256 0.43194 0.86123 0.0
H2595 H 0.04729 0.47365 0.87762 0.0
H2596 H 0.94636 0.42219 0.84037 0.0
H2597 H 0.95836 0.33364 0.87038 0.0
H2598 H 0.95959 0.36955 0.87664 0.0
H2599 H 0.99466 0.37259 0.86891 0.0
C2600 C 0.97016 0.46037 0.8792 0.0
C2601 C 1.00347 0.47462 0.88233 0.0
C2602 C 0.95585 0.43631 0.86967 0.0
C2603 C 0.97407 0.4248 0.86316 0.0
C2604 C 1.00753 0.4398 0.86602 0.0
H2605 H 0.94611 0.26772 0.81187 0.0
H2606 H 0.96125 0.30869 0.82839 0.0
C2607 C 0.0219 0.46418 0.87537 0.0
C2608 C 0.95829 0.39632 0.85392 0.0
H2609 H 0.94309 0.31831 0.84929 0.0
C2610 C 0.94556 0.39945 0.84236 0.0
C2611 C 0.95654 0.3661 0.85634 0.0
C2612 C 0.9677 0.35991 0.86877 0.0
C2613 C 0.93293 0.37434 0.83309 0.0
C2614 C 0.93198 0.34422 0.83538 0.0
C2615 C 0.94384 0.34096 0.84716 0.0
C2616 C 0.92044 0.31652 0.82568 0.0
C2617 C 0.92206 0.38128 0.82073 0.0
C2618 C 0.8914 0.30505 0.81865 0.0
C2619 C 0.88284 0.28147 0.80902 0.0
C2620 C 0.90215 0.26727 0.8063 0.0
C2621 C 0.92996 0.27711 0.81383 0.0
C2622 C 0.93887 0.30111 0.82329 0.0
H2623 H 0.93315 0.40777 0.81903 0.0
H2624 H 0.92844 0.3705 0.81274 0.0
H2625 H 0.8953 0.37085 0.82091 0.0
H2626 H 0.8755 0.31482 0.82035 0.0
H2627 H 0.86173 0.27539 0.80327 0.0
H2628 H 0.66009 0.60478 0.89174 0.0
H2629 H 0.69512 0.61669 0.87437 0.0
H2630 H 0.61599 0.54473 0.85221 0.0
H2631 H 0.57824 0.53366 0.87013 0.0
H2632 H 0.71864 0.58751 0.86363 0.0
H2633 H 0.65312 0.6121 0.82587 0.0
H2634 H 0.63988 0.60685 0.84202 0.0
H2635 H 0.63155 0.57216 0.83257 0.0
C2636 C 0.64875 0.59159 0.88323 0.0
C2637 C 0.61493 0.5686 0.88268 0.0
C2638 C 0.66983 0.59838 0.8731 0.0
C2639 C 0.65917 0.58219 0.86161 0.0
C2640 C 0.62544 0.55863 0.86075 0.0
H2641 H 0.78123 0.61599 0.79392 0.0
H2642 H 0.7403 0.59214 0.81045 0.0
C2643 C 0.60356 0.55209 0.8711 0.0
C2644 C 0.68456 0.59087 0.85117 0.0
H2645 H 0.70434 0.61876 0.82076 0.0
C2646 C 0.7152 0.59435 0.85428 0.0
C2647 C 0.681 0.59977 0.83876 0.0
C2648 C 0.64977 0.59784 0.83457 0.0
C2649 C 0.74179 0.60699 0.84574 0.0
C2650 C 0.73842 0.61669 0.83349 0.0
C2651 C 0.70754 0.61197 0.83015 0.0
C2652 C 0.76605 0.63068 0.82389 0.0
C2653 C 0.77335 0.60954 0.84989 0.0
C2654 C 0.79548 0.66032 0.82576 0.0
C2655 C 0.81946 0.67434 0.81613 0.0
C2656 C 0.81481 0.65898 0.80435 0.0
C2657 C 0.78612 0.62862 0.80284 0.0
C2658 C 0.76228 0.61491 0.81232 0.0
H2659 H 0.7703 0.59513 0.85852 0.0
H2660 H 0.78355 0.60113 0.84233 0.0
H2661 H 0.79127 0.6353 0.85193 0.0
H2662 H 0.7993 0.67349 0.83448 0.0
H2663 H 0.84056 0.69804 0.81763 0.0
H2664 H 0.3943 0.18817 0.81909 0.0
H2665 H 0.41921 0.17357 0.83659 0.0
H2666 H 0.47512 0.15367 0.8098 0.0
H2667 H 0.45329 0.1704 0.79296 0.0
H2668 H 0.41776 0.12067 0.84397 0.0
H2669 H 0.54682 0.19998 0.83258 0.0
H2670 H 0.51563 0.2047 0.82491 0.0
H2671 H 0.52689 0.17596 0.81905 0.0
C2672 C 0.4127 0.18175 0.81699 0.0
C2673 C 0.42131 0.18064 0.80436 0.0
C2674 C 0.42682 0.17292 0.82705 0.0
C2675 C 0.45003 0.1628 0.82481 0.0
C2676 C 0.45861 0.16231 0.81222 0.0
H2677 H 0.52171 0.05026 0.86974 0.0
H2678 H 0.50494 0.07325 0.85221 0.0
C2679 C 0.44529 0.17158 0.80238 0.0
C2680 C 0.46417 0.15092 0.83518 0.0
H2681 H 0.53448 0.1527 0.84495 0.0
C2682 C 0.44335 0.12804 0.84415 0.0
C2683 C 0.49782 0.16019 0.83583 0.0
C2684 C 0.52304 0.18681 0.82766 0.0
C2685 C 0.4547 0.11387 0.85318 0.0
C2686 C 0.48787 0.12202 0.85339 0.0
C2687 C 0.50887 0.14531 0.84466 0.0
C2688 C 0.50143 0.10929 0.86352 0.0
C2689 C 0.43101 0.09008 0.86256 0.0
C2690 C 0.50673 0.12245 0.87565 0.0
C2691 C 0.51699 0.10996 0.8855 0.0
C2692 C 0.52196 0.08313 0.88388 0.0
C2693 C 0.51833 0.0708 0.87153 0.0
C2694 C 0.50834 0.08383 0.86149 0.0
H2695 H 0.4054 0.08227 0.86011 0.0
H2696 H 0.43388 0.06833 0.86321 0.0
H2697 H 0.43626 0.10161 0.87199 0.0
H2698 H 0.50222 0.14222 0.87763 0.0
H2699 H 0.52006 0.12103 0.89466 0.0
H2700 H 0.98897 0.23978 0.56165 0.0
H2701 H 0.02712 0.25525 0.54459 0.0
H2702 H 0.94977 0.23121 0.51807 0.0
H2703 H 0.91094 0.21787 0.53566 0.0
H2704 H 0.04216 0.23301 0.52678 0.0
H2705 H 1.00783 0.31582 0.50349 0.0
H2706 H 0.99067 0.29709 0.51838 0.0
H2707 H 0.97549 0.27451 0.50396 0.0
C2708 C 0.97954 0.23788 0.55223 0.0
C2709 C 0.94634 0.22827 0.55032 0.0
C2710 C 1.00189 0.24667 0.54229 0.0
C2711 C 0.99252 0.24589 0.52972 0.0
C2712 C 0.95875 0.23383 0.52758 0.0
H2713 H 0.10519 0.29036 0.45998 0.0
H2714 H 0.06636 0.26759 0.47704 0.0
C2715 C 0.93606 0.22543 0.53771 0.0
C2716 C 1.01869 0.25836 0.51935 0.0
H2717 H 0.049 0.30954 0.49377 0.0
C2718 C 0.04349 0.24998 0.51968 0.0
C2719 C 0.02147 0.28067 0.50981 0.0
C2720 C 0.99767 0.29284 0.50891 0.0
C2721 C 0.07003 0.26289 0.51106 0.0
C2722 C 0.07261 0.28507 0.5016 0.0
C2723 C 0.0477 0.29302 0.50107 0.0
C2724 C 0.09908 0.29809 0.49152 0.0
C2725 C 0.09498 0.25219 0.5119 0.0
C2726 C 0.13171 0.32282 0.49372 0.0
C2727 C 0.15468 0.33678 0.48367 0.0
C2728 C 0.14563 0.32617 0.47115 0.0
C2729 C 0.11354 0.29999 0.46932 0.0
C2730 C 0.09087 0.28664 0.47917 0.0
H2731 H 0.08893 0.2335 0.51928 0.0
H2732 H 0.09695 0.24221 0.50271 0.0
H2733 H 0.11915 0.27345 0.51402 0.0
H2734 H 0.13911 0.33226 0.50314 0.0
H2735 H 0.17879 0.35678 0.48562 0.0
H2736 H 0.80413 0.86995 0.46308 0.0
H2737 H 0.82763 0.85339 0.47994 0.0
H2738 H 0.73675 0.81183 0.50002 0.0
H2739 H 0.7127 0.82757 0.48276 0.0
H2740 H 0.84125 0.86075 0.50449 0.0
H2741 H 0.74545 0.73295 0.49729 0.0
H2742 H 0.74999 0.76497 0.48695 0.0
H2743 H 0.72949 0.75858 0.50183 0.0
C2744 C 0.78924 0.85807 0.47125 0.0
C2745 C 0.75637 0.85046 0.47146 0.0
C2746 C 0.80282 0.84833 0.48095 0.0
C2747 C 0.78407 0.83022 0.4913 0.0
C2748 C 0.75186 0.82477 0.49205 0.0
H2749 H 0.80257 0.73568 0.55621 0.0
H2750 H 0.79192 0.76186 0.53933 0.0
C2751 C 0.73814 0.83448 0.48225 0.0
C2752 C 0.79765 0.81544 0.50065 0.0
H2753 H 0.78148 0.74321 0.5142 0.0
C2754 C 0.82816 0.83497 0.50651 0.0
C2755 C 0.78141 0.78164 0.50335 0.0
C2756 C 0.74996 0.75822 0.49694 0.0
C2757 C 0.84175 0.82203 0.51517 0.0
C2758 C 0.82491 0.78835 0.51808 0.0
C2759 C 0.79488 0.76892 0.51202 0.0
C2760 C 0.83479 0.77317 0.52861 0.0
C2761 C 0.87337 0.84468 0.5216 0.0
C2762 C 0.86302 0.7699 0.52862 0.0
C2763 C 0.8695 0.75379 0.53867 0.0
C2764 C 0.84787 0.74051 0.54897 0.0
C2765 C 0.81996 0.7442 0.54862 0.0
C2766 C 0.81367 0.75987 0.53883 0.0
H2767 H 0.88281 0.87041 0.51887 0.0
H2768 H 0.87004 0.84249 0.53196 0.0
H2769 H 0.89187 0.83781 0.51915 0.0
H2770 H 0.87996 0.77961 0.52085 0.0
H2771 H 0.89165 0.75253 0.53851 0.0
H2772 H 0.21127 0.90158 0.48499 0.0
H2773 H 0.22584 0.94048 0.50278 0.0
H2774 H 0.27879 0.02015 0.47731 0.0
H2775 H 0.26485 0.98355 0.46024 0.0
H2776 H 0.28434 0.98765 0.51353 0.0
H2777 H 0.2274 0.05425 0.49398 0.0
H2778 H 0.21903 0.01558 0.48773 0.0
H2779 H 0.25422 0.05258 0.48255 0.0
C2780 C 0.2257 0.92735 0.48316 0.0
C2781 C 0.23614 0.9384 0.47074 0.0
C2782 C 0.23419 0.94985 0.49341 0.0
C2783 C 0.25297 0.98404 0.49155 0.0
C2784 C 0.26345 0.99452 0.47927 0.0
H2785 H 0.37022 0.16747 0.53484 0.0
H2786 H 0.34474 0.12602 0.51805 0.0
C2787 C 0.25525 0.97266 0.46927 0.0
C2788 C 0.26335 1.00957 0.50202 0.0
H2789 H 0.27094 0.08414 0.50878 0.0
C2790 C 0.28089 1.0084 0.51251 0.0
C2791 C 0.2593 0.03733 0.50101 0.0
C2792 C 0.23866 0.03985 0.49078 0.0
C2793 C 0.29515 0.03408 0.52148 0.0
C2794 C 0.29234 0.06237 0.52012 0.0
C2795 C 0.27415 0.06323 0.50983 0.0
C2796 C 0.30629 0.08994 0.52975 0.0
C2797 C 0.31382 0.03106 0.53235 0.0
C2798 C 0.2927 0.08482 0.54184 0.0
C2799 C 0.30668 0.10871 0.55127 0.0
C2800 C 0.3352 0.13899 0.54919 0.0
C2801 C 0.34806 0.14502 0.53688 0.0
C2802 C 0.33362 0.12093 0.52727 0.0
H2803 H 0.31919 1.01105 0.53094 0.0
H2804 H 0.33705 0.05411 0.53375 0.0
H2805 H 0.29923 0.02605 0.54107 0.0
H2806 H 0.27158 0.06171 0.54415 0.0
H2807 H 0.29589 0.10262 0.56055 0.0
H2808 H 0.58237 0.37656 0.11057 0.0
H2809 H 0.58646 0.32787 0.10626 0.0
H2810 H 0.48522 0.27593 0.09582 0.0
H2811 H 0.48132 0.32451 0.10001 0.0
H2812 H 0.55214 0.27151 0.11935 0.0
H2813 H 0.52319 0.24474 0.06885 0.0
H2814 H 0.5347 0.28387 0.0756 0.0
H2815 H 0.49371 0.25069 0.07719 0.0
C2816 C 0.56143 0.35513 0.10684 0.0
C2817 C 0.5317 0.35451 0.10537 0.0
C2818 C 0.56365 0.32719 0.1045 0.0
C2819 C 0.53624 0.29812 0.10056 0.0
C2820 C 0.50695 0.29807 0.09853 0.0
H2821 H 0.48013 0.0943 0.09481 0.0
H2822 H 0.48419 0.14701 0.09322 0.0
C2823 C 0.50472 0.3259 0.10092 0.0
C2824 C 0.53709 0.26705 0.10004 0.0
H2825 H 0.51981 0.2016 0.08143 0.0
C2826 C 0.54547 0.25644 0.11101 0.0
C2827 C 0.52795 0.24699 0.08922 0.0
C2828 C 0.51966 0.25725 0.07701 0.0
C2829 C 0.54402 0.22616 0.1116 0.0
C2830 C 0.53484 0.20601 0.10077 0.0
C2831 C 0.52682 0.2168 0.08975 0.0
C2832 C 0.53294 0.17357 0.1008 0.0
C2833 C 0.55106 0.21565 0.12405 0.0
C2834 C 0.55917 0.17037 0.10499 0.0
C2835 C 0.55592 0.13969 0.10655 0.0
C2836 C 0.52681 0.11098 0.10347 0.0
C2837 C 0.50201 0.11471 0.09794 0.0
C2838 C 0.50467 0.14542 0.09684 0.0
H2839 H 0.54775 0.22876 0.13205 0.0
H2840 H 0.53507 0.18919 0.12559 0.0
H2841 H 0.57673 0.2213 0.12419 0.0
H2842 H 0.58202 0.1916 0.10746 0.0
H2843 H 0.57631 0.13885 0.11053 0.0
H2844 H 0.72886 0.23336 0.12528 0.0
H2845 H 0.77871 0.28456 0.12075 0.0
H2846 H 0.78634 0.24711 0.08483 0.0
H2847 H 0.73612 0.19553 0.08936 0.0
H2848 H 0.84063 0.27736 0.11308 0.0
H2849 H 0.80916 0.35102 0.0815 0.0
H2850 H 0.78036 0.32403 0.09303 0.0
H2851 H 0.7898 0.30752 0.07961 0.0
C2852 C 0.7405 0.23639 0.11622 0.0
C2853 C 0.72823 0.21036 0.10764 0.0
C2854 C 0.76916 0.26569 0.11366 0.0
C2855 C 0.78646 0.26991 0.10244 0.0
C2856 C 0.77334 0.24469 0.0935 0.0
H2857 H 0.98063 0.44473 0.08635 0.0
H2858 H 0.92923 0.39315 0.08294 0.0
C2859 C 0.74448 0.21523 0.09606 0.0
C2860 C 0.82004 0.29868 0.10102 0.0
H2861 H 0.86329 0.37566 0.08889 0.0
C2862 C 0.84559 0.29867 0.10766 0.0
C2863 C 0.8268 0.32649 0.09387 0.0
C2864 C 0.80025 0.32764 0.08655 0.0
C2865 C 0.87729 0.32574 0.10762 0.0
C2866 C 0.88385 0.35431 0.10103 0.0
C2867 C 0.85855 0.35395 0.09396 0.0
C2868 C 0.91565 0.38541 0.10262 0.0
C2869 C 0.90354 0.3235 0.11478 0.0
C2870 C 0.92546 0.39836 0.11473 0.0
C2871 C 0.95481 0.42709 0.11668 0.0
C2872 C 0.97532 0.44441 0.10659 0.0
C2873 C 0.96578 0.43169 0.09437 0.0
C2874 C 0.93617 0.40241 0.09241 0.0
H2875 H 0.89798 0.29795 0.11562 0.0
H2876 H 0.92762 0.33794 0.11018 0.0
H2877 H 0.9051 0.33302 0.12444 0.0
H2878 H 0.91002 0.38645 0.12276 0.0
H2879 H 0.96107 0.43635 0.12619 0.0
H2880 H 0.64018 0.57338 0.08624 0.0
H2881 H 0.691 0.57239 0.08222 0.0
H2882 H 0.69124 0.54375 0.12063 0.0
H2883 H 0.6421 0.54622 0.12482 0.0
H2884 H 0.75571 0.60681 0.09845 0.0
H2885 H 0.69445 0.47245 0.0965 0.0
H2886 H 0.67359 0.49464 0.09309 0.0
H2887 H 0.68177 0.48895 0.10908 0.0
C2888 C 0.65158 0.56767 0.09387 0.0
C2889 C 0.63724 0.56031 0.1059 0.0
C2890 C 0.6804 0.56675 0.09154 0.0
C2891 C 0.69474 0.55754 0.1011 0.0
C2892 C 0.68059 0.55065 0.11308 0.0
H2893 H 0.84597 0.52107 0.1227 0.0
H2894 H 0.79514 0.5201 0.11779 0.0
C2895 C 0.65248 0.55224 0.11547 0.0
C2896 C 0.7246 0.55511 0.09893 0.0
H2897 H 0.75177 0.50062 0.0996 0.0
C2898 C 0.75494 0.58363 0.09842 0.0
C2899 C 0.72357 0.52484 0.09904 0.0
C2900 C 0.69162 0.49338 0.09936 0.0
C2901 C 0.78428 0.58281 0.09874 0.0
C2902 C 0.78338 0.55247 0.09925 0.0
C2903 C 0.75282 0.52391 0.09921 0.0
C2904 C 0.81347 0.54987 0.10108 0.0
C2905 C 0.81586 0.61462 0.09933 0.0
C2906 C 0.84063 0.56546 0.09302 0.0
C2907 C 0.86985 0.56587 0.09583 0.0
C2908 C 0.87242 0.55033 0.10667 0.0
C2909 C 0.84465 0.53299 0.11422 0.0
C2910 C 0.81557 0.5326 0.11144 0.0
H2911 H 0.81203 0.63503 0.10204 0.0
H2912 H 0.83286 0.6134 0.10617 0.0
H2913 H 0.8275 0.62018 0.08992 0.0
H2914 H 0.83963 0.57824 0.08477 0.0
H2915 H 0.89094 0.5798 0.08993 0.0
H2916 H 0.33856 0.48079 0.92747 0.0
H2917 H 0.28827 0.48221 0.93164 0.0
H2918 H 0.32614 0.57116 0.91056 0.0
H2919 H 0.37627 0.56964 0.90635 0.0
H2920 H 0.2705 0.53145 0.94147 0.0
H2921 H 0.24468 0.5019 0.89076 0.0
H2922 H 0.2758 0.49795 0.89896 0.0
H2923 H 0.28302 0.53729 0.89425 0.0
C2924 C 0.33664 0.50132 0.92416 0.0
C2925 C 0.36165 0.52541 0.91677 0.0
C2926 C 0.30778 0.50203 0.92649 0.0
C2927 C 0.30312 0.52663 0.92133 0.0
C2928 C 0.32898 0.55183 0.91462 0.0
H2929 H 0.14297 0.55059 0.90048 0.0
H2930 H 0.19397 0.5537 0.90496 0.0
C2931 C 0.35781 0.55115 0.91232 0.0
C2932 C 0.27017 0.52386 0.92152 0.0
H2933 H 0.20772 0.51103 0.90205 0.0
C2934 C 0.2567 0.52708 0.93286 0.0
C2935 C 0.25187 0.51774 0.91035 0.0
C2936 C 0.26433 0.51323 0.89789 0.0
C2937 C 0.22624 0.52592 0.93319 0.0
C2938 C 0.20811 0.52026 0.92191 0.0
C2939 C 0.22133 0.51579 0.91072 0.0
C2940 C 0.17677 0.52109 0.92091 0.0
C2941 C 0.21456 0.532 0.94554 0.0
C2942 C 0.14949 0.50314 0.92879 0.0
C2943 C 0.11989 0.50284 0.92663 0.0
C2944 C 0.11624 0.51859 0.91606 0.0
C2945 C 0.14389 0.53705 0.9085 0.0
C2946 C 0.17353 0.53884 0.91104 0.0
H2947 H 0.23481 0.5446 0.95235 0.0
H2948 H 0.20267 0.54683 0.9442 0.0
H2949 H 0.1966 0.50841 0.94975 0.0
H2950 H 0.15069 0.48884 0.93645 0.0
H2951 H 0.09997 0.49001 0.9331 0.0
H2952 H 0.6119 0.88612 0.91667 0.0
H2953 H 0.60676 0.83343 0.92135 0.0
H2954 H 0.50233 0.78915 0.9208 0.0
H2955 H 0.50755 0.84213 0.9158 0.0
H2956 H 0.58114 0.78778 0.93897 0.0
H2957 H 0.51573 0.73674 0.89414 0.0
H2958 H 0.53392 0.77918 0.89799 0.0
H2959 H 0.49508 0.75029 0.90451 0.0
C2960 C 0.58781 0.86526 0.91782 0.0
C2961 C 0.56015 0.86833 0.91581 0.0
C2962 C 0.58487 0.83503 0.92045 0.0
C2963 C 0.55416 0.80687 0.92109 0.0
C2964 C 0.52636 0.81023 0.92002 0.0
H2965 H 0.51376 0.60305 0.92331 0.0
H2966 H 0.50644 0.65024 0.92625 0.0
C2967 C 0.52932 0.84064 0.91737 0.0
C2968 C 0.55175 0.77423 0.92222 0.0
H2969 H 0.52409 0.70139 0.90711 0.0
C2970 C 0.56833 0.76883 0.93206 0.0
C2971 C 0.53551 0.74937 0.91313 0.0
C2972 C 0.51932 0.75418 0.90177 0.0
C2973 C 0.56924 0.7397 0.933 0.0
C2974 C 0.55311 0.71503 0.9239 0.0
C2975 C 0.53593 0.72 0.91423 0.0
C2976 C 0.55711 0.68579 0.92338 0.0
C2977 C 0.58793 0.7357 0.94364 0.0
C2978 C 0.5878 0.68972 0.92087 0.0
C2979 C 0.59176 0.66284 0.91896 0.0
C2980 C 0.56558 0.63096 0.91969 0.0
C2981 C 0.53484 0.62702 0.92273 0.0
C2982 C 0.53055 0.65408 0.92441 0.0
H2983 H 0.59139 0.7523 0.95158 0.0
H2984 H 0.57533 0.71032 0.94716 0.0
H2985 H 0.61232 0.74147 0.9402 0.0
H2986 H 0.60866 0.71379 0.91974 0.0
H2987 H 0.61523 0.66787 0.91625 0.0
H2988 H 0.47067 0.93417 0.90699 0.0
H2989 H 0.42269 0.88225 0.91094 0.0
H2990 H 0.38114 0.92927 0.93246 0.0
H2991 H 0.43166 0.9812 0.93006 0.0
H2992 H 0.38266 0.8502 0.93657 0.0
H2993 H 0.32428 0.8797 0.89732 0.0
H2994 H 0.36785 0.89923 0.89905 0.0
H2995 H 0.34481 0.91013 0.90928 0.0
C2996 C 0.45185 0.93398 0.91276 0.0
C2997 C 0.45473 0.96309 0.91753 0.0
C2998 C 0.42419 0.90386 0.915 0.0
C2999 C 0.3979 0.90183 0.9217 0.0
C3000 C 0.40101 0.93027 0.92708 0.0
H3001 H 0.19556 0.75064 0.92152 0.0
H3002 H 0.24757 0.7993 0.9261 0.0
C3003 C 0.42966 0.96036 0.92539 0.0
C3004 C 0.36657 0.87044 0.92206 0.0
H3005 H 0.29295 0.82937 0.90733 0.0
C3006 C 0.36288 0.84564 0.93027 0.0
C3007 C 0.34112 0.86428 0.91364 0.0
C3008 C 0.3445 0.88954 0.90423 0.0
C3009 C 0.33402 0.81513 0.93045 0.0
C3010 C 0.30836 0.80908 0.92209 0.0
C3011 C 0.31237 0.83393 0.91383 0.0
C3012 C 0.27692 0.7775 0.92167 0.0
C3013 C 0.33098 0.78982 0.93974 0.0
C3014 C 0.27573 0.74839 0.91809 0.0
C3015 C 0.24575 0.72026 0.91558 0.0
C3016 C 0.21647 0.72082 0.91655 0.0
C3017 C 0.21767 0.74936 0.92086 0.0
C3018 C 0.24746 0.77728 0.92338 0.0
H3019 H 0.34951 0.8005 0.94731 0.0
H3020 H 0.30642 0.77742 0.94409 0.0
H3021 H 0.33445 0.77126 0.93477 0.0
H3022 H 0.29802 0.74791 0.91647 0.0
H3023 H 0.24563 0.69886 0.91201 0.0
H3024 H 0.23795 0.70685 0.4304 0.0
H3025 H 0.23857 0.65688 0.42451 0.0
H3026 H 0.15107 0.60037 0.4461 0.0
H3027 H 0.14889 0.64888 0.45095 0.0
H3028 H 0.24622 0.61508 0.43738 0.0
H3029 H 0.12403 0.54313 0.41731 0.0
H3030 H 0.1412 0.58585 0.42043 0.0
H3031 H 0.11978 0.5561 0.4326 0.0
C3032 C 0.21823 0.68358 0.43345 0.0
C3033 C 0.19337 0.68212 0.44119 0.0
C3034 C 0.21878 0.65494 0.43022 0.0
C3035 C 0.19447 0.62422 0.43461 0.0
C3036 C 0.16952 0.62308 0.44209 0.0
H3037 H 0.17691 0.44609 0.45772 0.0
H3038 H 0.17954 0.49813 0.45383 0.0
C3039 C 0.16857 0.65123 0.44505 0.0
C3040 C 0.19563 0.59343 0.43229 0.0
H3041 H 0.14607 0.5118 0.42713 0.0
C3042 C 0.22444 0.59273 0.43485 0.0
C3043 C 0.16756 0.56382 0.42877 0.0
C3044 C 0.1366 0.56242 0.42449 0.0
C3045 C 0.22512 0.56329 0.43486 0.0
C3046 C 0.19627 0.53364 0.43243 0.0
C3047 C 0.1681 0.53445 0.42918 0.0
C3048 C 0.19399 0.5014 0.43437 0.0
C3049 C 0.25638 0.56372 0.43781 0.0
C3050 C 0.20023 0.48523 0.42461 0.0
C3051 C 0.19767 0.45475 0.42673 0.0
C3052 C 0.18913 0.44012 0.43869 0.0
C3053 C 0.18283 0.45639 0.44835 0.0
C3054 C 0.18471 0.48634 0.44618 0.0
H3055 H 0.27708 0.58875 0.43911 0.0
H3056 H 0.25334 0.54954 0.4465 0.0
H3057 H 0.26233 0.55189 0.43006 0.0
H3058 H 0.20755 0.49641 0.41543 0.0
H3059 H 0.20377 0.44336 0.4192 0.0
H3060 H 0.65089 0.77536 0.41901 0.0
H3061 H 0.59911 0.72465 0.41534 0.0
H3062 H 0.57248 0.72437 0.45409 0.0
H3063 H 0.62451 0.77321 0.45798 0.0
H3064 H 0.5702 0.65985 0.43217 0.0
H3065 H 0.49657 0.72085 0.42989 0.0
H3066 H 0.53946 0.74145 0.42616 0.0
H3067 H 0.52639 0.73406 0.44225 0.0
C3068 C 0.63448 0.76385 0.42682 0.0
C3069 C 0.64241 0.77796 0.43887 0.0
C3070 C 0.60464 0.73514 0.42468 0.0
C3071 C 0.5817 0.72078 0.43443 0.0
C3072 C 0.58964 0.73493 0.4464 0.0
H3073 H 0.39366 0.56957 0.45597 0.0
H3074 H 0.44343 0.62033 0.45109 0.0
C3075 C 0.61958 0.76287 0.44861 0.0
C3076 C 0.54942 0.69088 0.43244 0.0
H3077 H 0.46766 0.66366 0.43288 0.0
C3078 C 0.54773 0.66059 0.43207 0.0
C3079 C 0.5201 0.69186 0.43244 0.0
C3080 C 0.52048 0.72376 0.43261 0.0
C3081 C 0.51763 0.63127 0.43237 0.0
C3082 C 0.48809 0.63211 0.43273 0.0
C3083 C 0.48997 0.66263 0.43259 0.0
C3084 C 0.45541 0.602 0.43451 0.0
C3085 C 0.51802 0.59978 0.43308 0.0
C3086 C 0.44415 0.57482 0.4265 0.0
C3087 C 0.41535 0.5456 0.42929 0.0
C3088 C 0.39698 0.54302 0.44007 0.0
C3089 C 0.40712 0.57083 0.44756 0.0
C3090 C 0.43576 0.59989 0.44479 0.0
H3091 H 0.54226 0.60367 0.43588 0.0
H3092 H 0.4997 0.58285 0.4399 0.0
H3093 H 0.51219 0.58809 0.42368 0.0
H3094 H 0.45813 0.57581 0.4183 0.0
H3095 H 0.40844 0.52453 0.42342 0.0
H3096 H 0.54859 0.92681 0.45481 0.0
H3097 H 0.49818 0.92531 0.45017 0.0
H3098 H 0.47846 0.8554 0.42074 0.0
H3099 H 0.52802 0.85403 0.42652 0.0
H3100 H 0.47506 0.94163 0.43367 0.0
H3101 H 0.3919 0.80802 0.43475 0.0
H3102 H 0.43409 0.82586 0.43901 0.0
H3103 H 0.42227 0.82157 0.4227 0.0
C3104 C 0.53346 0.91059 0.44744 0.0
C3105 C 0.54236 0.88978 0.44137 0.0
C3106 C 0.50439 0.91003 0.44466 0.0
C3107 C 0.48319 0.88958 0.43528 0.0
C3108 C 0.49314 0.87047 0.42842 0.0
H3109 H 0.29603 0.88712 0.41901 0.0
H3110 H 0.347 0.88644 0.41524 0.0
C3111 C 0.52212 0.87026 0.43152 0.0
C3112 C 0.45141 0.88933 0.43304 0.0
H3113 H 0.36823 0.84058 0.43161 0.0
C3114 C 0.45189 0.9193 0.4332 0.0
C3115 C 0.42049 0.86049 0.43219 0.0
C3116 C 0.41698 0.82716 0.43225 0.0
C3117 C 0.42317 0.9212 0.43328 0.0
C3118 C 0.39262 0.89254 0.43285 0.0
C3119 C 0.39172 0.86261 0.43192 0.0
C3120 C 0.36173 0.89337 0.43477 0.0
C3121 C 0.4255 0.95395 0.43434 0.0
C3122 C 0.35318 0.89796 0.44692 0.0
C3123 C 0.32422 0.89828 0.44906 0.0
C3124 C 0.30319 0.89463 0.43911 0.0
C3125 C 0.31204 0.89083 0.42685 0.0
C3126 C 0.34098 0.89 0.42471 0.0
H3127 H 0.45056 0.97416 0.43254 0.0
H3128 H 0.40857 0.9558 0.42764 0.0
H3129 H 0.41825 0.95684 0.44397 0.0
H3130 H 0.36872 0.90072 0.45482 0.0
H3131 H 0.31789 0.90081 0.45862 0.0
H3132 H 0.8058 0.89987 0.25749 0.0
H3133 H 0.86059 0.90726 0.25993 0.0
H3134 H 0.82271 0.80616 0.25134 0.0
H3135 H 0.77048 0.80035 0.24732 0.0
H3136 H 0.89155 0.88172 0.27386 0.0
H3137 H 0.88841 0.84637 0.22415 0.0
H3138 H 0.85825 0.85467 0.23069 0.0
H3139 H 0.85478 0.81542 0.23274 0.0
C3140 C 0.80911 0.87913 0.25626 0.0
C3141 C 0.78281 0.84902 0.25238 0.0
C3142 C 0.84052 0.8834 0.25769 0.0
C3143 C 0.84615 0.85744 0.25548 0.0
C3144 C 0.81945 0.82692 0.25273 0.0
H3145 H 0.99315 0.80505 0.2515 0.0
H3146 H 0.94531 0.81001 0.25603 0.0
C3147 C 0.7887 0.82317 0.2508 0.0
C3148 C 0.8797 0.862 0.25514 0.0
H3149 H 0.92918 0.84535 0.23701 0.0
C3150 C 0.89999 0.87421 0.26574 0.0
C3151 C 0.89111 0.85265 0.24448 0.0
C3152 C 0.87213 0.8419 0.23234 0.0
C3153 C 0.93042 0.87558 0.26619 0.0
C3154 C 0.94079 0.86448 0.25579 0.0
C3155 C 0.92107 0.85348 0.24506 0.0
C3156 C 0.97119 0.86246 0.25584 0.0
C3157 C 0.95084 0.88773 0.2779 0.0
C3158 C 1.00206 0.89035 0.25466 0.0
C3159 C 0.02968 0.88752 0.25209 0.0
C3160 C 0.02674 0.85675 0.25061 0.0
C3161 C 0.99621 0.82905 0.25269 0.0
C3162 C 0.96881 0.83186 0.25523 0.0
H3163 H 0.93804 0.89255 0.28563 0.0
H3164 H 0.95761 0.86972 0.28118 0.0
H3165 H 0.97367 0.91056 0.27573 0.0
H3166 H 1.00446 0.91422 0.25493 0.0
H3167 H 0.05275 0.90927 0.25033 0.0
H3168 H 0.20975 0.96276 0.2297 0.0
H3169 H 0.20696 1.01158 0.23395 0.0
H3170 H 0.24788 0.01852 0.27072 0.0
H3171 H 0.24885 0.96786 0.26682 0.0
H3172 H 0.1738 0.0233 0.25691 0.0
H3173 H 0.30609 0.10944 0.25034 0.0
H3174 H 0.28655 0.06915 0.24366 0.0
H3175 H 0.29336 0.07434 0.26026 0.0
C3176 C 0.21837 0.97459 0.23872 0.0
C3177 C 0.23019 0.96152 0.24782 0.0
C3178 C 0.21659 1.00254 0.24113 0.0
C3179 C 0.22728 0.0189 0.25261 0.0
C3180 C 0.23953 1.00636 0.26176 0.0
H3181 H 0.25669 0.21572 0.26361 0.0
H3182 H 0.25384 0.16361 0.26806 0.0
C3183 C 0.24048 0.9776 0.25946 0.0
C3184 C 0.22577 0.04924 0.25466 0.0
H3185 H 0.27209 0.13188 0.25274 0.0
C3186 C 0.19534 0.04709 0.25619 0.0
C3187 C 0.25378 0.08026 0.25371 0.0
C3188 C 0.28691 0.0838 0.25185 0.0
C3189 C 0.19214 0.07505 0.25659 0.0
C3190 C 0.22002 0.1062 0.25504 0.0
C3191 C 0.2506 0.10825 0.25393 0.0
C3192 C 0.21802 0.13671 0.25372 0.0
C3193 C 0.1588 0.07079 0.25871 0.0
C3194 C 0.19834 0.1392 0.24439 0.0
C3195 C 0.19974 0.16893 0.24196 0.0
C3196 C 0.22083 0.19702 0.24877 0.0
C3197 C 0.23953 0.19434 0.25845 0.0
C3198 C 0.23818 0.16457 0.26088 0.0
H3199 H 0.1431 0.0483 0.26413 0.0
H3200 H 0.16012 0.09175 0.26384 0.0
H3201 H 0.14696 0.06855 0.24949 0.0
H3202 H 0.18319 0.11861 0.23846 0.0
H3203 H 0.18574 0.17042 0.23421 0.0
H3204 H 0.90532 0.06143 0.22765 0.0
H3205 H 0.95636 0.11116 0.23234 0.0
H3206 H 0.92474 0.10856 0.27049 0.0
H3207 H 0.87318 0.05836 0.2658 0.0
H3208 H 0.94883 0.17092 0.24653 0.0
H3209 H 0.03154 0.13047 0.26614 0.0
H3210 H 1.00162 0.10609 0.25445 0.0
H3211 H 0.98868 0.10944 0.26992 0.0
C3212 C 0.90952 0.07088 0.23715 0.0
C3213 C 0.88507 0.05568 0.24635 0.0
C3214 C 0.93875 0.09947 0.23981 0.0
C3215 C 0.94454 0.11384 0.25175 0.0
C3216 C 0.92099 0.09793 0.2612 0.0
H3217 H 0.12312 0.30418 0.26837 0.0
H3218 H 0.07211 0.25257 0.27198 0.0
C3219 C 0.89159 0.06906 0.25854 0.0
C3220 C 0.97364 0.1469 0.25374 0.0
H3221 H 0.0547 0.18625 0.2613 0.0
C3222 C 0.97181 0.17427 0.24996 0.0
C3223 C 1.00373 0.1515 0.25823 0.0
C3224 C 1.00688 0.12297 0.26246 0.0
C3225 C 0.9993 0.20572 0.25014 0.0
C3226 C 0.02982 0.2102 0.25401 0.0
C3227 C 0.03142 0.18303 0.25833 0.0
C3228 C 0.06051 0.24216 0.25224 0.0
C3229 C 0.99569 0.23406 0.24595 0.0
C3230 C 0.071 0.25381 0.24001 0.0
C3231 C 0.09989 0.28306 0.23796 0.0
C3232 C 0.11919 0.30187 0.24805 0.0
C3233 C 0.10852 0.2907 0.26038 0.0
C3234 C 0.07953 0.26098 0.26244 0.0
H3235 H 0.96999 0.22835 0.24641 0.0
H3236 H 1.0108 0.25582 0.25181 0.0
H3237 H 1.00404 0.24016 0.23606 0.0
H3238 H 0.0571 0.2398 0.23196 0.0
H3239 H 0.10761 0.29071 0.22836 0.0
H3240 H 0.84997 0.78254 0.79215 0.0
H3241 H 0.85131 0.83387 0.78853 0.0
H3242 H 0.86476 0.8261 0.74883 0.0
H3243 H 0.86194 0.77362 0.75245 0.0
H3244 H 0.90066 0.88883 0.7803 0.0
H3245 H 0.79776 0.85363 0.74723 0.0
H3246 H 0.80331 0.82385 0.7557 0.0
H3247 H 0.82811 0.84404 0.74223 0.0
C3248 C 0.85232 0.79133 0.7826 0.0
C3249 C 0.85529 0.7737 0.77259 0.0
C3250 C 0.85339 0.82093 0.78053 0.0
C3251 C 0.85805 0.83426 0.76839 0.0
C3252 C 0.8604 0.81632 0.75827 0.0
H3253 H 0.90357 0.04147 0.76288 0.0
H3254 H 0.90562 0.99188 0.75757 0.0
C3255 C 0.85875 0.78619 0.76033 0.0
C3256 C 0.86185 0.86748 0.76676 0.0
H3257 H 0.82728 0.90862 0.75329 0.0
C3258 C 0.88485 0.89315 0.77424 0.0
C3259 C 0.84145 0.87358 0.75883 0.0
C3260 C 0.81608 0.84734 0.7506 0.0
C3261 C 0.88709 0.92388 0.77441 0.0
C3262 C 0.86586 0.92957 0.76688 0.0
C3263 C 0.84373 0.90444 0.75901 0.0
C3264 C 0.86321 0.95955 0.76853 0.0
C3265 C 0.91093 0.94966 0.7832 0.0
C3266 C 0.83816 0.95789 0.77604 0.0
C3267 C 0.83676 0.98591 0.77895 0.0
C3268 C 0.86059 0.01681 0.77457 0.0
C3269 C 0.88476 0.01828 0.76642 0.0
C3270 C 0.88611 0.98993 0.76347 0.0
H3271 H 0.92662 0.94198 0.78812 0.0
H3272 H 0.92667 0.97226 0.77788 0.0
H3273 H 0.89747 0.95541 0.79034 0.0
H3274 H 0.82021 0.93493 0.78008 0.0
H3275 H 0.8175 0.98349 0.78512 0.0
H3276 H 0.31298 0.11609 0.75207 0.0
H3277 H 0.26056 0.06616 0.74814 0.0
H3278 H 0.24576 0.05052 0.78809 0.0
H3279 H 0.29728 0.10002 0.79199 0.0
H3280 H 0.23255 0.99823 0.75632 0.0
H3281 H 0.16557 0.05535 0.77627 0.0
H3282 H 0.20747 0.07863 0.77129 0.0
H3283 H 0.19742 0.05879 0.78636 0.0
C3284 C 0.29875 0.10156 0.75997 0.0
C3285 C 0.3092 0.11198 0.77236 0.0
C3286 C 0.26873 0.07313 0.75773 0.0
C3287 C 0.24872 0.05487 0.76783 0.0
C3288 C 0.26024 0.06446 0.78013 0.0
H3289 H 0.07305 0.89705 0.79327 0.0
H3290 H 0.12179 0.94781 0.78817 0.0
C3291 C 0.28987 0.09269 0.78236 0.0
C3292 C 0.21527 0.02649 0.76589 0.0
H3293 H 0.13638 0.99751 0.77494 0.0
C3294 C 0.21135 0.99808 0.76021 0.0
C3295 C 0.18747 0.02637 0.7708 0.0
C3296 C 0.18954 0.05651 0.77641 0.0
C3297 C 0.18098 0.96892 0.76023 0.0
C3298 C 0.15346 0.96824 0.7659 0.0
C3299 C 0.15721 0.99747 0.77076 0.0
C3300 C 0.12183 0.93733 0.76835 0.0
C3301 C 0.17933 0.93883 0.75481 0.0
C3302 C 0.10418 0.9143 0.7589 0.0
C3303 C 0.07603 0.88457 0.7619 0.0
C3304 C 0.06472 0.87745 0.77439 0.0
C3305 C 0.08117 0.90148 0.78358 0.0
C3306 C 0.10922 0.93072 0.78064 0.0
H3307 H 0.20389 0.94182 0.75342 0.0
H3308 H 0.1651 0.91755 0.761 0.0
H3309 H 0.16724 0.93366 0.7455 0.0
H3310 H 0.11239 0.91894 0.74924 0.0
H3311 H 0.06403 0.86663 0.75459 0.0
H3312 H 0.22492 0.27248 0.77348 0.0
H3313 H 0.17256 0.26815 0.7687 0.0
H3314 H 0.12921 0.16439 0.76503 0.0
H3315 H 0.18184 0.16874 0.77017 0.0
H3316 H 0.12919 0.24763 0.7503 0.0
H3317 H 0.07239 0.1689 0.79196 0.0
H3318 H 0.11538 0.18817 0.78888 0.0
H3319 H 0.08746 0.15196 0.78051 0.0
C3320 C 0.20437 0.24878 0.7714 0.0
C3321 C 0.20759 0.22097 0.77225 0.0
C3322 C 0.17431 0.24628 0.76869 0.0
C3323 C 0.14639 0.21586 0.76682 0.0
C3324 C 0.15001 0.18813 0.76677 0.0
H3325 H 0.94583 0.18615 0.75828 0.0
H3326 H 0.99367 0.17978 0.7546 0.0
C3327 C 0.18027 0.19065 0.7695 0.0
C3328 C 0.11369 0.2136 0.76567 0.0
H3329 H 0.03931 0.18267 0.78005 0.0
C3330 C 0.10946 0.23304 0.75672 0.0
C3331 C 0.08774 0.19494 0.77412 0.0
C3332 C 0.09093 0.17504 0.78449 0.0
C3333 C 0.08062 0.23474 0.75617 0.0
C3334 C 0.05509 0.21651 0.76471 0.0
C3335 C 0.05875 0.19633 0.77339 0.0
C3336 C 0.02634 0.22125 0.76586 0.0
C3337 C 0.07785 0.25689 0.74674 0.0
C3338 C 0.02851 0.24624 0.77353 0.0
C3339 C 1.00099 0.24894 0.77607 0.0
C3340 C 0.97102 0.2283 0.77033 0.0
C3341 C 0.96897 0.20362 0.76235 0.0
C3342 C 0.99624 0.19982 0.76029 0.0
H3343 H 0.09765 0.26609 0.73963 0.0
H3344 H 0.05404 0.24397 0.74184 0.0
H3345 H 0.07896 0.27793 0.75174 0.0
H3346 H 0.05123 0.26267 0.77814 0.0
H3347 H 1.00298 0.26601 0.78311 0.0
H3348 H 0.47268 0.2074 0.56342 0.0
H3349 H 0.52446 0.2106 0.56781 0.0
H3350 H 0.48857 0.16545 0.60385 0.0
H3351 H 0.43678 0.16443 0.5999 0.0
H3352 H 0.56781 0.23996 0.59258 0.0
H3353 H 0.52261 0.11051 0.58026 0.0
H3354 H 0.50337 0.13224 0.57419 0.0
H3355 H 0.49863 0.12084 0.59042 0.0
C3356 C 0.4755 0.19799 0.57232 0.0
C3357 C 0.44995 0.18475 0.58116 0.0
C3358 C 0.50536 0.20004 0.57482 0.0
C3359 C 0.5105 0.18816 0.58611 0.0
C3360 C 0.48517 0.17476 0.59504 0.0
H3361 H 0.67579 0.15441 0.59537 0.0
H3362 H 0.62629 0.15686 0.59998 0.0
C3363 C 0.45536 0.17366 0.59269 0.0
C3364 C 0.54215 0.18908 0.58806 0.0
H3365 H 0.57873 0.14344 0.58376 0.0
C3366 C 0.57018 0.21875 0.59085 0.0
C3367 C 0.54535 0.16155 0.58573 0.0
C3368 C 0.51605 0.12937 0.58244 0.0
C3369 C 0.60129 0.22165 0.59123 0.0
C3370 C 0.60476 0.19434 0.58839 0.0
C3371 C 0.57643 0.16446 0.58596 0.0
C3372 C 0.63735 0.19636 0.58714 0.0
C3373 C 0.63009 0.25401 0.5947 0.0
C3374 C 0.6608 0.21821 0.57862 0.0
C3375 C 0.68923 0.21695 0.57607 0.0
C3376 C 0.69509 0.1939 0.58199 0.0
C3377 C 0.67241 0.17299 0.59091 0.0
C3378 C 0.64389 0.17417 0.59344 0.0
H3379 H 0.62264 0.26836 0.60068 0.0
H3380 H 0.64883 0.25101 0.5998 0.0
H3381 H 0.64118 0.26818 0.58601 0.0
H3382 H 0.65631 0.23506 0.57335 0.0
H3383 H 0.7058 0.2328 0.56892 0.0
H3384 H 0.9127 0.29934 0.60157 0.0
H3385 H 0.91209 0.35026 0.60554 0.0
H3386 H 0.8836 0.3506 0.56712 0.0
H3387 H 0.88579 0.30134 0.56297 0.0
H3388 H 0.94714 0.41486 0.58915 0.0
H3389 H 0.81261 0.35465 0.5914 0.0
H3390 H 0.83462 0.33365 0.5949 0.0
H3391 H 0.82892 0.34156 0.57888 0.0
C3392 C 0.90714 0.31078 0.59392 0.0
C3393 C 0.89985 0.29649 0.58188 0.0
C3394 C 0.90642 0.33967 0.59622 0.0
C3395 C 0.89742 0.35412 0.58664 0.0
C3396 C 0.89041 0.33991 0.57468 0.0
H3397 H 0.86221 0.50634 0.5653 0.0
H3398 H 0.86083 0.45536 0.57014 0.0
C3399 C 0.89182 0.31172 0.57232 0.0
C3400 C 0.8953 0.38412 0.58879 0.0
H3401 H 0.84119 0.41187 0.58833 0.0
C3402 C 0.92401 0.4143 0.58924 0.0
C3403 C 0.86511 0.38337 0.58878 0.0
C3404 C 0.83346 0.3516 0.58856 0.0
C3405 C 0.92345 0.44374 0.58897 0.0
C3406 C 0.89319 0.44313 0.58856 0.0
C3407 C 0.86443 0.41272 0.58865 0.0
C3408 C 0.89085 0.47337 0.58679 0.0
C3409 C 0.95545 0.47512 0.58834 0.0
C3410 C 0.90673 0.50044 0.59485 0.0
C3411 C 0.90736 0.52977 0.59208 0.0
C3412 C 0.89181 0.53257 0.58129 0.0
C3413 C 0.87419 0.50489 0.57374 0.0
C3414 C 0.87356 0.4757 0.57648 0.0
H3415 H 0.97575 0.4711 0.58557 0.0
H3416 H 0.9543 0.49219 0.58152 0.0
H3417 H 0.96119 0.48671 0.59775 0.0
H3418 H 0.91953 0.49928 0.60306 0.0
H3419 H 0.92148 0.55074 0.598 0.0
H3420 H 0.57729 0.36689 0.57629 0.0
H3421 H 0.6299 0.41578 0.5805 0.0
H3422 H 0.58005 0.46496 0.59379 0.0
H3423 H 0.52766 0.41614 0.58966 0.0
H3424 H 0.64739 0.47333 0.56799 0.0
H3425 H 0.65368 0.49552 0.61935 0.0
H3426 H 0.6263 0.45643 0.61249 0.0
H3427 H 0.61663 0.48846 0.61204 0.0
C3428 C 0.57765 0.38769 0.58063 0.0
C3429 C 0.54839 0.38749 0.58292 0.0
C3430 C 0.60772 0.41574 0.58293 0.0
C3431 C 0.60913 0.44413 0.58762 0.0
C3432 C 0.57982 0.44331 0.59049 0.0
H3433 H 0.76648 0.64648 0.59725 0.0
H3434 H 0.71538 0.59482 0.59875 0.0
C3435 C 0.54982 0.41534 0.58814 0.0
C3436 C 0.64069 0.47555 0.58787 0.0
H3437 H 0.69255 0.53866 0.60673 0.0
C3438 C 0.6574 0.4875 0.57648 0.0
C3439 C 0.65346 0.4945 0.59888 0.0
C3440 C 0.63676 0.48303 0.61142 0.0
C3441 C 0.68592 0.51793 0.57569 0.0
C3442 C 0.69946 0.53669 0.58678 0.0
C3443 C 0.68264 0.52463 0.59821 0.0
C3444 C 0.73102 0.56841 0.58665 0.0
C3445 C 0.70012 0.52989 0.56276 0.0
C3446 C 0.75778 0.57116 0.58 0.0
C3447 C 0.78535 0.60135 0.57807 0.0
C3448 C 0.7886 0.6298 0.58361 0.0
C3449 C 0.76393 0.62623 0.59189 0.0
C3450 C 0.73492 0.59616 0.59304 0.0
H3451 H 0.68112 0.51914 0.55536 0.0
H3452 H 0.71204 0.55669 0.56202 0.0
H3453 H 0.71821 0.52221 0.56066 0.0
H3454 H 0.75704 0.55003 0.57584 0.0
H3455 H 0.804 0.60205 0.57203 0.0
loop_
_geom_bond_atom_site_label_1
_geom_bond_atom_site_label_2
_geom_bond_distance
_geom_bond_site_symmetry_2
_ccdc_geom_bond_type
Tb0 N31 2.696 . S
Tb0 N38 2.600 . S
Tb0 O44 2.546 . S
Tb0 O45 2.610 . S
Tb0 O47 2.320 . S
Tb0 O48 2.552 . S
Tb0 O49 2.413 . S
Tb0 O51 2.362 1_545 S
Tb0 O52 2.421 . S
Tb0 C64 2.833 . S
C1 C4 1.432 . S
C1 C5 1.414 . S
C1 N8 1.359 1_545 S
C2 C4 1.417 . S
C2 C6 1.432 . S
C2 C14 1.410 . S
C3 C5 1.444 . S
C3 C6 1.317 . S
C3 H26 0.929 . S
C4 C1 1.432 . S
C4 C2 1.417 . S
C4 N12 1.360 . S
C5 C1 1.414 . S
C5 C3 1.444 . S
C5 C10 1.385 . S
C6 C2 1.432 . S
C6 C3 1.317 . S
C6 H18 0.930 . S
C7 C9 1.392 . S
C7 C10 1.370 1_565 S
C7 H19 0.931 . S
N8 C1 1.359 1_565 S
N8 C9 1.327 . S
N8 Tb11 2.600 . S
C9 C7 1.392 . S
C9 N8 1.327 . S
C9 H16 0.930 . S
C10 C5 1.385 . S
C10 C7 1.370 1_545 S
C10 H29 0.930 . S
Tb11 N8 2.600 . S
Tb11 N12 2.660 1_565 S
Tb11 O45 2.362 1_565 S
Tb11 O46 2.420 . S
Tb11 O50 2.546 . S
Tb11 O51 2.610 . S
Tb11 O53 2.320 . S
Tb11 O54 2.552 . S
Tb11 O55 2.413 . S
Tb11 C75 2.833 . S
N12 C4 1.360 . S
N12 Tb11 2.660 1_545 S
N12 C13 1.305 . S
C13 N12 1.305 . S
C13 C15 1.407 . S
C13 H20 0.930 . S
C14 C2 1.410 . S
C14 C15 1.345 . S
C14 H22 0.930 . S
C15 C13 1.407 . S
C15 C14 1.345 . S
C15 H17 0.930 . S
H16 C9 0.930 . S
H17 C15 0.930 . S
H18 C6 0.930 . S
H19 C7 0.931 . S
H20 C13 0.930 . S
H21 C35 0.930 . S
H22 C14 0.930 . S
H23 C41 0.930 . S
H24 C32 0.930 . S
H25 C39 0.931 . S
H26 C3 0.929 . S
H27 C33 0.930 . S
H28 C66 0.930 . S
H29 C10 0.930 . S
H30 C65 0.929 . S
N31 Tb0 2.696 . S
N31 C32 1.291 1_545 S
N31 C36 1.336 1_545 S
C32 H24 0.930 . S
C32 N31 1.291 1_565 S
C32 C35 1.407 . S
C33 H27 0.930 . S
C33 C34 1.410 . S
C33 C35 1.345 . S
C34 C33 1.410 . S
C34 C36 1.417 . S
C34 C66 1.432 . S
C35 H21 0.930 . S
C35 C32 1.407 . S
C35 C33 1.345 . S
C36 N31 1.336 1_565 S
C36 C34 1.417 . S
C36 C40 1.432 1_565 S
H37 C42 0.930 1_565 S
N38 Tb0 2.600 . S
N38 C40 1.359 . S
N38 C41 1.327 . S
C39 H25 0.931 . S
C39 C41 1.392 . S
C39 C42 1.370 . S
C40 C36 1.432 1_545 S
C40 N38 1.359 . S
C40 C43 1.414 1_545 S
C41 H23 0.930 . S
C41 N38 1.327 . S
C41 C39 1.392 . S
C42 H37 0.930 1_545 S
C42 C39 1.370 . S
C42 C43 1.385 1_545 S
C43 C40 1.414 1_565 S
C43 C42 1.385 1_565 S
C43 C65 1.444 . S
O44 Tb0 2.546 . S
O44 C64 1.251 . S
O45 Tb0 2.610 . S
O45 Tb11 2.362 1_545 S
O45 C56 1.283 . S
O46 Tb11 2.420 . S
O46 C63 1.252 1_565 S
O47 Tb0 2.320 . S
O47 C63 1.260 . S
O48 Tb0 2.552 . S
O48 C56 1.243 . S
O49 Tb0 2.413 . S
O49 C64 1.256 . S
O50 Tb11 2.546 . S
O50 C75 1.251 . S
O51 Tb0 2.362 1_565 S
O51 Tb11 2.610 . S
O51 C67 1.283 . S
O52 Tb0 2.421 . S
O52 C74 1.262 1_545 S
O53 Tb11 2.320 . S
O53 C74 1.260 . S
O54 Tb11 2.552 . S
O54 C67 1.243 . S
O55 Tb11 2.413 . S
O55 C75 1.256 . S
C56 O45 1.283 . S
C56 O48 1.243 . S
C57 C59 1.382 . S
C57 C61 1.393 . S
C57 C64 1.500 . S
C58 C59 1.400 . S
C58 C60 1.384 . S
C59 C57 1.382 . S
C59 C58 1.400 . S
C59 H76 0.930 . S
C60 C58 1.384 . S
C60 C62 1.392 . S
C60 H77 0.931 . S
C61 C57 1.393 . S
C61 C62 1.401 . S
C61 H78 0.930 . S
C62 C60 1.392 . S
C62 C61 1.401 . S
C62 H79 0.930 . S
C63 O46 1.252 1_545 S
C63 O47 1.260 . S
C64 Tb0 2.833 . S
C64 O44 1.251 . S
C64 O49 1.256 . S
C64 C57 1.500 . S
C65 H30 0.929 . S
C65 C43 1.444 . S
C65 C66 1.317 . S
C66 H28 0.930 . S
C66 C34 1.432 . S
C66 C65 1.317 . S
C67 O51 1.283 . S
C67 O54 1.243 . S
C68 C69 1.382 . S
C68 C72 1.393 . S
C68 C75 1.500 . S
C69 C68 1.382 . S
C69 C70 1.400 . S
C69 H80 0.930 . S
C70 C69 1.400 . S
C70 C71 1.384 . S
C71 C70 1.384 . S
C71 C73 1.392 . S
C71 H81 0.931 . S
C72 C68 1.393 . S
C72 C73 1.401 . S
C72 H82 0.930 . S
C73 C71 1.392 . S
C73 C72 1.401 . S
C73 H83 0.930 . S
C74 O52 1.262 1_565 S
C74 O53 1.260 . S
C75 Tb11 2.833 . S
C75 O50 1.251 . S
C75 O55 1.256 . S
C75 C68 1.500 . S
H76 C59 0.930 . S
H77 C60 0.931 . S
H78 C61 0.930 . S
H79 C62 0.930 . S
H80 C69 0.930 . S
H81 C71 0.931 . S
H82 C72 0.930 . S
H83 C73 0.930 . S
Tb84 N115 2.660 . S
Tb84 N122 2.600 . S
Tb84 O128 2.546 1_455 S
Tb84 O129 2.610 . S
Tb84 O131 2.320 . S
Tb84 O132 2.552 1_455 S
Tb84 O133 2.413 1_455 S
Tb84 O135 2.362 . S
Tb84 O136 2.421 . S
Tb84 C148 2.833 1_455 S
C85 C88 1.432 . S
C85 C89 1.414 . S
C85 N92 1.359 . S
C86 C88 1.417 . S
C86 C90 1.432 . S
C86 C98 1.410 . S
C87 C89 1.444 . S
C87 C90 1.317 . S
C87 H110 0.929 . S
C88 C85 1.432 . S
C88 C86 1.417 . S
C88 N96 1.360 . S
C89 C85 1.414 . S
C89 C87 1.444 . S
C89 C94 1.385 . S
C90 C86 1.432 . S
C90 C87 1.317 . S
C90 H102 0.930 1_455 S
C91 C93 1.392 . S
C91 C94 1.370 . S
C91 H103 0.931 . S
N92 C85 1.359 . S
N92 C93 1.327 . S
N92 Tb95 2.600 . S
C93 C91 1.392 . S
C93 N92 1.327 . S
C93 H100 0.930 . S
C94 C89 1.385 . S
C94 C91 1.370 . S
C94 H113 0.930 . S
Tb95 N92 2.600 . S
Tb95 N96 2.660 . S
Tb95 O129 2.362 . S
Tb95 O130 2.421 . S
Tb95 O134 2.546 . S
Tb95 O135 2.610 . S
Tb95 O137 2.320 . S
Tb95 O138 2.552 . S
Tb95 O139 2.413 . S
Tb95 C159 2.833 . S
N96 C88 1.360 . S
N96 Tb95 2.660 . S
N96 C97 1.305 . S
C97 N96 1.305 . S
C97 C99 1.407 . S
C97 H104 0.930 . S
C98 C86 1.410 . S
C98 C99 1.345 . S
C98 H106 0.930 1_455 S
C99 C97 1.407 . S
C99 C98 1.345 . S
C99 H101 0.930 . S
H100 C93 0.930 . S
H101 C99 0.930 . S
H102 C90 0.930 1_655 S
H103 C91 0.931 . S
H104 C97 0.930 . S
H105 C119 0.930 . S
H106 C98 0.930 1_655 S
H107 C125 0.930 . S
H108 C116 0.930 . S
H109 C123 0.931 . S
H110 C87 0.929 . S
H111 C117 0.930 . S
H112 C150 0.930 . S
H113 C94 0.930 . S
H114 C149 0.929 . S
N115 Tb84 2.660 . S
N115 C116 1.305 . S
N115 C120 1.360 . S
C116 H108 0.930 . S
C116 N115 1.305 . S
C116 C119 1.407 . S
C117 H111 0.930 . S
C117 C118 1.410 . S
C117 C119 1.345 . S
C118 C117 1.410 . S
C118 C120 1.417 . S
C118 C150 1.432 . S
C119 H105 0.930 . S
C119 C116 1.407 . S
C119 C117 1.345 . S
C120 N115 1.360 . S
C120 C118 1.417 . S
C120 C124 1.432 . S
H121 C126 0.930 . S
N122 Tb84 2.600 . S
N122 C124 1.359 . S
N122 C125 1.327 . S
C123 H109 0.931 . S
C123 C125 1.392 . S
C123 C126 1.370 . S
C124 C120 1.432 . S
C124 N122 1.359 . S
C124 C127 1.414 . S
C125 H107 0.930 . S
C125 N122 1.327 . S
C125 C123 1.392 . S
C126 H121 0.930 . S
C126 C123 1.370 . S
C126 C127 1.385 . S
C127 C124 1.414 . S
C127 C126 1.385 . S
C127 C149 1.444 . S
O128 Tb84 2.546 1_655 S
O128 C148 1.251 . S
O129 Tb84 2.610 . S
O129 Tb95 2.362 . S
O129 C140 1.283 1_455 S
O130 Tb95 2.421 . S
O130 C147 1.262 . S
O131 Tb84 2.320 . S
O131 C147 1.260 . S
O132 Tb84 2.552 1_655 S
O132 C140 1.243 . S
O133 Tb84 2.413 1_655 S
O133 C148 1.256 . S
O134 Tb95 2.546 . S
O134 C159 1.251 . S
O135 Tb84 2.362 . S
O135 Tb95 2.610 . S
O135 C151 1.283 . S
O136 Tb84 2.421 . S
O136 C158 1.262 . S
O137 Tb95 2.320 . S
O137 C158 1.260 . S
O138 Tb95 2.552 . S
O138 C151 1.243 . S
O139 Tb95 2.413 . S
O139 C159 1.256 . S
C140 O129 1.283 1_655 S
C140 O132 1.243 . S
C141 C143 1.382 . S
C141 C145 1.393 . S
C141 C148 1.500 . S
C142 C143 1.400 . S
C142 C144 1.384 . S
C143 C141 1.382 . S
C143 C142 1.400 . S
C143 H160 0.930 . S
C144 C142 1.384 . S
C144 C146 1.392 . S
C144 H161 0.931 . S
C145 C141 1.393 . S
C145 C146 1.401 . S
C145 H162 0.930 . S
C146 C144 1.392 . S
C146 C145 1.401 . S
C146 H163 0.930 . S
C147 O130 1.262 . S
C147 O131 1.260 . S
C148 Tb84 2.833 1_655 S
C148 O128 1.251 . S
C148 O133 1.256 . S
C148 C141 1.500 . S
C149 H114 0.929 . S
C149 C127 1.444 . S
C149 C150 1.317 . S
C150 H112 0.930 . S
C150 C118 1.432 . S
C150 C149 1.317 . S
C151 O135 1.283 . S
C151 O138 1.243 . S
C152 C153 1.382 . S
C152 C156 1.393 . S
C152 C159 1.500 . S
C153 C152 1.382 . S
C153 C154 1.400 . S
C153 H164 0.930 . S
C154 C153 1.400 . S
C154 C155 1.384 . S
C155 C154 1.384 . S
C155 C157 1.392 . S
C155 H165 0.931 . S
C156 C152 1.393 . S
C156 C157 1.401 . S
C156 H166 0.930 . S
C157 C155 1.392 . S
C157 C156 1.401 . S
C157 H167 0.930 . S
C158 O136 1.262 . S
C158 O137 1.260 . S
C159 Tb95 2.833 . S
C159 O134 1.251 . S
C159 O139 1.256 . S
C159 C152 1.500 . S
H160 C143 0.930 . S
H161 C144 0.931 . S
H162 C145 0.930 . S
H163 C146 0.930 . S
H164 C153 0.930 . S
H165 C155 0.931 . S
H166 C156 0.930 . S
H167 C157 0.930 . S
Tb168 N199 2.660 . S
Tb168 N206 2.600 . S
Tb168 O212 2.546 . S
Tb168 O213 2.610 . S
Tb168 O215 2.320 . S
Tb168 O216 2.552 . S
Tb168 O217 2.413 . S
Tb168 O219 2.362 . S
Tb168 O220 2.421 . S
Tb168 C232 2.833 . S
C169 C172 1.432 . S
C169 C173 1.414 . S
C169 N176 1.359 . S
C170 C172 1.417 . S
C170 C174 1.432 . S
C170 C182 1.410 . S
C171 C173 1.444 . S
C171 C174 1.317 . S
C171 H194 0.929 . S
C172 C169 1.432 . S
C172 C170 1.417 . S
C172 N180 1.360 . S
C173 C169 1.414 . S
C173 C171 1.444 . S
C173 C178 1.385 . S
C174 C170 1.432 . S
C174 C171 1.317 . S
C174 H186 0.930 . S
C175 C177 1.392 . S
C175 C178 1.370 . S
C175 H187 0.931 . S
N176 C169 1.359 . S
N176 C177 1.327 . S
N176 Tb179 2.600 . S
C177 C175 1.392 . S
C177 N176 1.327 . S
C177 H184 0.930 . S
C178 C173 1.385 . S
C178 C175 1.370 . S
C178 H197 0.930 . S
Tb179 N176 2.600 . S
Tb179 N180 2.660 . S
Tb179 O213 2.362 . S
Tb179 O214 2.421 . S
Tb179 O218 2.546 . S
Tb179 O219 2.610 . S
Tb179 O221 2.320 . S
Tb179 O222 2.552 . S
Tb179 O223 2.413 . S
Tb179 C243 2.833 . S
N180 C172 1.360 . S
N180 Tb179 2.660 . S
N180 C181 1.305 . S
C181 N180 1.305 . S
C181 C183 1.407 . S
C181 H188 0.930 . S
C182 C170 1.410 . S
C182 C183 1.345 . S
C182 H190 0.930 . S
C183 C181 1.407 . S
C183 C182 1.345 . S
C183 H185 0.930 . S
H184 C177 0.930 . S
H185 C183 0.930 . S
H186 C174 0.930 . S
H187 C175 0.931 . S
H188 C181 0.930 . S
H189 C203 0.930 . S
H190 C182 0.930 . S
H191 C209 0.930 . S
H192 C200 0.930 . S
H193 C207 0.931 . S
H194 C171 0.929 . S
H195 C201 0.930 . S
H196 C234 0.930 . S
H197 C178 0.930 . S
H198 C233 0.929 . S
N199 Tb168 2.660 . S
N199 C200 1.305 . S
N199 C204 1.360 . S
C200 H192 0.930 . S
C200 N199 1.305 . S
C200 C203 1.407 . S
C201 H195 0.930 . S
C201 C202 1.410 . S
C201 C203 1.345 . S
C202 C201 1.410 . S
C202 C204 1.417 . S
C202 C234 1.432 . S
C203 H189 0.930 . S
C203 C200 1.407 . S
C203 C201 1.345 . S
C204 N199 1.360 . S
C204 C202 1.417 . S
C204 C208 1.432 . S
H205 C210 0.930 . S
N206 Tb168 2.600 . S
N206 C208 1.359 . S
N206 C209 1.327 . S
C207 H193 0.931 . S
C207 C209 1.392 . S
C207 C210 1.370 . S
C208 C204 1.432 . S
C208 N206 1.359 . S
C208 C211 1.414 . S
C209 H191 0.930 . S
C209 N206 1.327 . S
C209 C207 1.392 . S
C210 H205 0.930 . S
C210 C207 1.370 . S
C210 C211 1.385 . S
C211 C208 1.414 . S
C211 C210 1.385 . S
C211 C233 1.444 . S
O212 Tb168 2.546 . S
O212 C232 1.251 . S
O213 Tb168 2.610 . S
O213 Tb179 2.362 . S
O213 C224 1.283 . S
O214 Tb179 2.421 . S
O214 C231 1.262 . S
O215 Tb168 2.320 . S
O215 C231 1.260 . S
O216 Tb168 2.552 . S
O216 C224 1.243 . S
O217 Tb168 2.413 . S
O217 C232 1.256 . S
O218 Tb179 2.546 . S
O218 C243 1.251 . S
O219 Tb168 2.362 . S
O219 Tb179 2.610 . S
O219 C235 1.283 . S
O220 Tb168 2.421 . S
O220 C242 1.262 . S
O221 Tb179 2.320 . S
O221 C242 1.260 . S
O222 Tb179 2.552 . S
O222 C235 1.243 . S
O223 Tb179 2.413 . S
O223 C243 1.256 . S
C224 O213 1.283 . S
C224 O216 1.243 . S
C225 C227 1.382 . S
C225 C229 1.393 . S
C225 C232 1.500 . S
C226 C227 1.400 . S
C226 C228 1.384 . S
C227 C225 1.382 . S
C227 C226 1.400 . S
C227 H244 0.930 . S
C228 C226 1.384 . S
C228 C230 1.392 . S
C228 H245 0.931 . S
C229 C225 1.393 . S
C229 C230 1.401 . S
C229 H246 0.930 . S
C230 C228 1.392 . S
C230 C229 1.401 . S
C230 H247 0.930 . S
C231 O214 1.262 . S
C231 O215 1.260 . S
C232 Tb168 2.833 . S
C232 O212 1.251 . S
C232 O217 1.256 . S
C232 C225 1.500 . S
C233 H198 0.929 . S
C233 C211 1.444 . S
C233 C234 1.317 . S
C234 H196 0.930 . S
C234 C202 1.432 . S
C234 C233 1.317 . S
C235 O219 1.283 . S
C235 O222 1.243 . S
C236 C237 1.382 . S
C236 C240 1.393 . S
C236 C243 1.500 . S
C237 C236 1.382 . S
C237 C238 1.400 . S
C237 H248 0.930 . S
C238 C237 1.400 . S
C238 C239 1.384 . S
C239 C238 1.384 . S
C239 C241 1.392 . S
C239 H249 0.931 . S
C240 C236 1.393 . S
C240 C241 1.401 . S
C240 H250 0.930 . S
C241 C239 1.392 . S
C241 C240 1.401 . S
C241 H251 0.930 . S
C242 O220 1.262 . S
C242 O221 1.260 . S
C243 Tb179 2.833 . S
C243 O218 1.251 . S
C243 O223 1.256 . S
C243 C236 1.500 . S
H244 C227 0.930 . S
H245 C228 0.931 . S
H246 C229 0.930 . S
H247 C230 0.930 . S
H248 C237 0.930 . S
H249 C239 0.931 . S
H250 C240 0.930 . S
H251 C241 0.930 . S
Tb252 N283 2.696 . S
Tb252 N290 2.600 . S
Tb252 O296 2.546 . S
Tb252 O297 2.610 . S
Tb252 O299 2.320 . S
Tb252 O300 2.552 . S
Tb252 O301 2.413 . S
Tb252 O303 2.362 1_455 S
Tb252 O304 2.421 . S
Tb252 C316 2.833 . S
C253 C256 1.432 . S
C253 C257 1.414 . S
C253 N260 1.359 1_455 S
C254 C256 1.417 . S
C254 C258 1.432 . S
C254 C266 1.410 . S
C255 C257 1.444 . S
C255 C258 1.317 . S
C255 H278 0.929 . S
C256 C253 1.432 . S
C256 C254 1.417 . S
C256 N264 1.360 . S
C257 C253 1.414 . S
C257 C255 1.444 . S
C257 C262 1.385 . S
C258 C254 1.432 . S
C258 C255 1.317 . S
C258 H270 0.930 . S
C259 C261 1.392 . S
C259 C262 1.370 1_655 S
C259 H271 0.931 . S
N260 C253 1.359 1_655 S
N260 C261 1.327 . S
N260 Tb263 2.600 . S
C261 C259 1.392 . S
C261 N260 1.327 . S
C261 H268 0.930 . S
C262 C257 1.385 . S
C262 C259 1.370 1_455 S
C262 H281 0.930 . S
Tb263 N260 2.600 . S
Tb263 N264 2.660 1_655 S
Tb263 O297 2.362 1_655 S
Tb263 O298 2.420 . S
Tb263 O302 2.546 . S
Tb263 O303 2.610 . S
Tb263 O305 2.320 . S
Tb263 O306 2.552 . S
Tb263 O307 2.413 . S
Tb263 C327 2.833 . S
N264 C256 1.360 . S
N264 Tb263 2.660 1_455 S
N264 C265 1.305 . S
C265 N264 1.305 . S
C265 C267 1.407 . S
C265 H272 0.930 . S
C266 C254 1.410 . S
C266 C267 1.345 . S
C266 H274 0.930 . S
C267 C265 1.407 . S
C267 C266 1.345 . S
C267 H269 0.930 . S
H268 C261 0.930 . S
H269 C267 0.930 . S
H270 C258 0.930 . S
H271 C259 0.931 . S
H272 C265 0.930 . S
H273 C287 0.930 . S
H274 C266 0.930 . S
H275 C293 0.930 . S
H276 C284 0.930 . S
H277 C291 0.931 . S
H278 C255 0.929 . S
H279 C285 0.930 . S
H280 C318 0.930 . S
H281 C262 0.930 . S
H282 C317 0.929 . S
N283 Tb252 2.696 . S
N283 C284 1.291 1_455 S
N283 C288 1.336 1_455 S
C284 H276 0.930 . S
C284 N283 1.291 1_655 S
C284 C287 1.407 . S
C285 H279 0.930 . S
C285 C286 1.410 . S
C285 C287 1.345 . S
C286 C285 1.410 . S
C286 C288 1.417 . S
C286 C318 1.432 . S
C287 H273 0.930 . S
C287 C284 1.407 . S
C287 C285 1.345 . S
C288 N283 1.336 1_655 S
C288 C286 1.417 . S
C288 C292 1.432 1_655 S
H289 C294 0.930 1_655 S
N290 Tb252 2.600 . S
N290 C292 1.359 . S
N290 C293 1.327 . S
C291 H277 0.931 . S
C291 C293 1.392 . S
C291 C294 1.370 . S
C292 C288 1.432 1_455 S
C292 N290 1.359 . S
C292 C295 1.414 1_455 S
C293 H275 0.930 . S
C293 N290 1.327 . S
C293 C291 1.392 . S
C294 H289 0.930 1_455 S
C294 C291 1.370 . S
C294 C295 1.385 1_455 S
C295 C292 1.414 1_655 S
C295 C294 1.385 1_655 S
C295 C317 1.444 . S
O296 Tb252 2.546 . S
O296 C316 1.251 . S
O297 Tb252 2.610 . S
O297 Tb263 2.362 1_455 S
O297 C308 1.283 . S
O298 Tb263 2.420 . S
O298 C315 1.252 1_655 S
O299 Tb252 2.320 . S
O299 C315 1.260 . S
O300 Tb252 2.552 . S
O300 C308 1.243 . S
O301 Tb252 2.413 . S
O301 C316 1.256 . S
O302 Tb263 2.546 . S
O302 C327 1.251 . S
O303 Tb252 2.362 1_655 S
O303 Tb263 2.610 . S
O303 C319 1.283 . S
O304 Tb252 2.421 . S
O304 C326 1.262 1_455 S
O305 Tb263 2.320 . S
O305 C326 1.260 . S
O306 Tb263 2.552 . S
O306 C319 1.243 . S
O307 Tb263 2.413 . S
O307 C327 1.256 . S
C308 O297 1.283 . S
C308 O300 1.243 . S
C309 C311 1.382 . S
C309 C313 1.393 . S
C309 C316 1.500 . S
C310 C311 1.400 . S
C310 C312 1.384 . S
C311 C309 1.382 . S
C311 C310 1.400 . S
C311 H328 0.930 . S
C312 C310 1.384 . S
C312 C314 1.392 . S
C312 H329 0.931 . S
C313 C309 1.393 . S
C313 C314 1.401 . S
C313 H330 0.930 . S
C314 C312 1.392 . S
C314 C313 1.401 . S
C314 H331 0.930 . S
C315 O298 1.252 1_455 S
C315 O299 1.260 . S
C316 Tb252 2.833 . S
C316 O296 1.251 . S
C316 O301 1.256 . S
C316 C309 1.500 . S
C317 H282 0.929 . S
C317 C295 1.444 . S
C317 C318 1.317 . S
C318 H280 0.930 . S
C318 C286 1.432 . S
C318 C317 1.317 . S
C319 O303 1.283 . S
C319 O306 1.243 . S
C320 C321 1.382 . S
C320 C324 1.393 . S
C320 C327 1.500 . S
C321 C320 1.382 . S
C321 C322 1.400 . S
C321 H332 0.930 . S
C322 C321 1.400 . S
C322 C323 1.384 . S
C323 C322 1.384 . S
C323 C325 1.392 . S
C323 H333 0.931 . S
C324 C320 1.393 . S
C324 C325 1.401 . S
C324 H334 0.930 . S
C325 C323 1.392 . S
C325 C324 1.401 . S
C325 H335 0.930 . S
C326 O304 1.262 1_655 S
C326 O305 1.260 . S
C327 Tb263 2.833 . S
C327 O302 1.251 . S
C327 O307 1.256 . S
C327 C320 1.500 . S
H328 C311 0.930 . S
H329 C312 0.931 . S
H330 C313 0.930 . S
H331 C314 0.930 . S
H332 C321 0.930 . S
H333 C323 0.931 . S
H334 C324 0.930 . S
H335 C325 0.930 . S
Tb336 N367 2.660 . S
Tb336 N374 2.600 . S
Tb336 O380 2.546 . S
Tb336 O381 2.610 . S
Tb336 O383 2.320 . S
Tb336 O384 2.552 . S
Tb336 O385 2.413 . S
Tb336 O387 2.362 . S
Tb336 O388 2.421 . S
Tb336 C400 2.833 . S
C337 C340 1.432 . S
C337 C341 1.414 . S
C337 N344 1.359 . S
C338 C340 1.417 . S
C338 C342 1.432 . S
C338 C350 1.410 . S
C339 C341 1.444 . S
C339 C342 1.317 . S
C339 H362 0.929 . S
C340 C337 1.432 . S
C340 C338 1.417 . S
C340 N348 1.360 . S
C341 C337 1.414 . S
C341 C339 1.444 . S
C341 C346 1.385 . S
C342 C338 1.432 . S
C342 C339 1.317 . S
C342 H354 0.930 . S
C343 C345 1.392 . S
C343 C346 1.370 . S
C343 H355 0.931 . S
N344 C337 1.359 . S
N344 C345 1.327 . S
N344 Tb347 2.600 . S
C345 C343 1.392 . S
C345 N344 1.327 . S
C345 H352 0.930 . S
C346 C341 1.385 . S
C346 C343 1.370 . S
C346 H365 0.930 . S
Tb347 N344 2.600 . S
Tb347 N348 2.660 . S
Tb347 O381 2.362 . S
Tb347 O382 2.421 . S
Tb347 O386 2.546 . S
Tb347 O387 2.610 . S
Tb347 O389 2.320 . S
Tb347 O390 2.552 . S
Tb347 O391 2.413 . S
Tb347 C411 2.833 . S
N348 C340 1.360 . S
N348 Tb347 2.660 . S
N348 C349 1.305 . S
C349 N348 1.305 . S
C349 C351 1.407 . S
C349 H356 0.930 . S
C350 C338 1.410 . S
C350 C351 1.345 . S
C350 H358 0.930 . S
C351 C349 1.407 . S
C351 C350 1.345 . S
C351 H353 0.930 . S
H352 C345 0.930 . S
H353 C351 0.930 . S
H354 C342 0.930 . S
H355 C343 0.931 . S
H356 C349 0.930 . S
H357 C371 0.930 . S
H358 C350 0.930 . S
H359 C377 0.930 . S
H360 C368 0.930 . S
H361 C375 0.931 . S
H362 C339 0.929 . S
H363 C369 0.930 . S
H364 C402 0.930 . S
H365 C346 0.930 . S
H366 C401 0.929 . S
N367 Tb336 2.660 . S
N367 C368 1.305 . S
N367 C372 1.360 . S
C368 H360 0.930 . S
C368 N367 1.305 . S
C368 C371 1.407 . S
C369 H363 0.930 . S
C369 C370 1.410 . S
C369 C371 1.345 . S
C370 C369 1.410 . S
C370 C372 1.417 . S
C370 C402 1.432 . S
C371 H357 0.930 . S
C371 C368 1.407 . S
C371 C369 1.345 . S
C372 N367 1.360 . S
C372 C370 1.417 . S
C372 C376 1.432 . S
H373 C378 0.930 . S
N374 Tb336 2.600 . S
N374 C376 1.359 . S
N374 C377 1.327 . S
C375 H361 0.931 . S
C375 C377 1.392 . S
C375 C378 1.370 . S
C376 C372 1.432 . S
C376 N374 1.359 . S
C376 C379 1.414 . S
C377 H359 0.930 . S
C377 N374 1.327 . S
C377 C375 1.392 . S
C378 H373 0.930 . S
C378 C375 1.370 . S
C378 C379 1.385 . S
C379 C376 1.414 . S
C379 C378 1.385 . S
C379 C401 1.444 . S
O380 Tb336 2.546 . S
O380 C400 1.251 . S
O381 Tb336 2.610 . S
O381 Tb347 2.362 . S
O381 C392 1.283 . S
O382 Tb347 2.421 . S
O382 C399 1.262 . S
O383 Tb336 2.320 . S
O383 C399 1.260 . S
O384 Tb336 2.552 . S
O384 C392 1.243 . S
O385 Tb336 2.413 . S
O385 C400 1.256 . S
O386 Tb347 2.546 . S
O386 C411 1.251 . S
O387 Tb336 2.362 . S
O387 Tb347 2.610 . S
O387 C403 1.283 . S
O388 Tb336 2.421 . S
O388 C410 1.262 . S
O389 Tb347 2.320 . S
O389 C410 1.260 . S
O390 Tb347 2.552 . S
O390 C403 1.243 . S
O391 Tb347 2.413 . S
O391 C411 1.256 . S
C392 O381 1.283 . S
C392 O384 1.243 . S
C393 C395 1.382 . S
C393 C397 1.393 . S
C393 C400 1.500 . S
C394 C395 1.400 . S
C394 C396 1.384 . S
C395 C393 1.382 . S
C395 C394 1.400 . S
C395 H412 0.930 . S
C396 C394 1.384 . S
C396 C398 1.392 . S
C396 H413 0.931 . S
C397 C393 1.393 . S
C397 C398 1.401 . S
C397 H414 0.930 . S
C398 C396 1.392 . S
C398 C397 1.401 . S
C398 H415 0.930 . S
C399 O382 1.262 . S
C399 O383 1.260 . S
C400 Tb336 2.833 . S
C400 O380 1.251 . S
C400 O385 1.256 . S
C400 C393 1.500 . S
C401 H366 0.929 . S
C401 C379 1.444 . S
C401 C402 1.317 . S
C402 H364 0.930 . S
C402 C370 1.432 . S
C402 C401 1.317 . S
C403 O387 1.283 . S
C403 O390 1.243 . S
C404 C405 1.382 . S
C404 C408 1.393 . S
C404 C411 1.500 . S
C405 C404 1.382 . S
C405 C406 1.400 . S
C405 H416 0.930 . S
C406 C405 1.400 . S
C406 C407 1.384 . S
C407 C406 1.384 . S
C407 C409 1.392 . S
C407 H417 0.931 . S
C408 C404 1.393 . S
C408 C409 1.401 . S
C408 H418 0.930 . S
C409 C407 1.392 . S
C409 C408 1.401 . S
C409 H419 0.930 . S
C410 O388 1.262 . S
C410 O389 1.260 . S
C411 Tb347 2.833 . S
C411 O386 1.251 . S
C411 O391 1.256 . S
C411 C404 1.500 . S
H412 C395 0.930 . S
H413 C396 0.931 . S
H414 C397 0.930 . S
H415 C398 0.930 . S
H416 C405 0.930 . S
H417 C407 0.931 . S
H418 C408 0.930 . S
H419 C409 0.930 . S
Tb420 N451 2.660 . S
Tb420 N458 2.600 . S
Tb420 O464 2.546 1_545 S
Tb420 O465 2.610 . S
Tb420 O467 2.320 . S
Tb420 O468 2.552 1_545 S
Tb420 O469 2.413 1_545 S
Tb420 O471 2.362 . S
Tb420 O472 2.421 . S
Tb420 C484 2.833 1_545 S
C421 C424 1.432 . S
C421 C425 1.414 . S
C421 N428 1.359 . S
C422 C424 1.417 . S
C422 C426 1.432 . S
C422 C434 1.410 . S
C423 C425 1.444 . S
C423 C426 1.317 . S
C423 H446 0.929 . S
C424 C421 1.432 . S
C424 C422 1.417 . S
C424 N432 1.360 . S
C425 C421 1.414 . S
C425 C423 1.444 . S
C425 C430 1.385 . S
C426 C422 1.432 . S
C426 C423 1.317 . S
C426 H438 0.930 1_545 S
C427 C429 1.392 . S
C427 C430 1.370 . S
C427 H439 0.931 . S
N428 C421 1.359 . S
N428 C429 1.327 . S
N428 Tb431 2.600 . S
C429 C427 1.392 . S
C429 N428 1.327 . S
C429 H436 0.930 . S
C430 C425 1.385 . S
C430 C427 1.370 . S
C430 H449 0.930 . S
Tb431 N428 2.600 . S
Tb431 N432 2.660 . S
Tb431 O465 2.362 . S
Tb431 O466 2.421 . S
Tb431 O470 2.546 . S
Tb431 O471 2.610 . S
Tb431 O473 2.320 . S
Tb431 O474 2.552 . S
Tb431 O475 2.413 . S
Tb431 C495 2.833 . S
N432 C424 1.360 . S
N432 Tb431 2.660 . S
N432 C433 1.305 . S
C433 N432 1.305 . S
C433 C435 1.407 . S
C433 H440 0.930 . S
C434 C422 1.410 . S
C434 C435 1.345 . S
C434 H442 0.930 1_545 S
C435 C433 1.407 . S
C435 C434 1.345 . S
C435 H437 0.930 . S
H436 C429 0.930 . S
H437 C435 0.930 . S
H438 C426 0.930 1_565 S
H439 C427 0.931 . S
H440 C433 0.930 . S
H441 C455 0.930 . S
H442 C434 0.930 1_565 S
H443 C461 0.930 . S
H444 C452 0.930 . S
H445 C459 0.931 . S
H446 C423 0.929 . S
H447 C453 0.930 . S
H448 C486 0.930 . S
H449 C430 0.930 . S
H450 C485 0.929 . S
N451 Tb420 2.660 . S
N451 C452 1.305 . S
N451 C456 1.360 . S
C452 H444 0.930 . S
C452 N451 1.305 . S
C452 C455 1.407 . S
C453 H447 0.930 . S
C453 C454 1.410 . S
C453 C455 1.345 . S
C454 C453 1.410 . S
C454 C456 1.417 . S
C454 C486 1.432 . S
C455 H441 0.930 . S
C455 C452 1.407 . S
C455 C453 1.345 . S
C456 N451 1.360 . S
C456 C454 1.417 . S
C456 C460 1.432 . S
H457 C462 0.930 . S
N458 Tb420 2.600 . S
N458 C460 1.359 . S
N458 C461 1.327 . S
C459 H445 0.931 . S
C459 C461 1.392 . S
C459 C462 1.370 . S
C460 C456 1.432 . S
C460 N458 1.359 . S
C460 C463 1.414 . S
C461 H443 0.930 . S
C461 N458 1.327 . S
C461 C459 1.392 . S
C462 H457 0.930 . S
C462 C459 1.370 . S
C462 C463 1.385 . S
C463 C460 1.414 . S
C463 C462 1.385 . S
C463 C485 1.444 . S
O464 Tb420 2.546 1_565 S
O464 C484 1.251 . S
O465 Tb420 2.610 . S
O465 Tb431 2.362 . S
O465 C476 1.283 1_545 S
O466 Tb431 2.421 . S
O466 C483 1.262 . S
O467 Tb420 2.320 . S
O467 C483 1.260 . S
O468 Tb420 2.552 1_565 S
O468 C476 1.243 . S
O469 Tb420 2.413 1_565 S
O469 C484 1.256 . S
O470 Tb431 2.546 . S
O470 C495 1.251 . S
O471 Tb420 2.362 . S
O471 Tb431 2.610 . S
O471 C487 1.283 . S
O472 Tb420 2.421 . S
O472 C494 1.262 . S
O473 Tb431 2.320 . S
O473 C494 1.260 . S
O474 Tb431 2.552 . S
O474 C487 1.243 . S
O475 Tb431 2.413 . S
O475 C495 1.256 . S
C476 O465 1.283 1_565 S
C476 O468 1.243 . S
C477 C479 1.382 . S
C477 C481 1.393 . S
C477 C484 1.500 . S
C478 C479 1.400 . S
C478 C480 1.384 . S
C479 C477 1.382 . S
C479 C478 1.400 . S
C479 H496 0.930 . S
C480 C478 1.384 . S
C480 C482 1.392 . S
C480 H497 0.931 . S
C481 C477 1.393 . S
C481 C482 1.401 . S
C481 H498 0.930 . S
C482 C480 1.392 . S
C482 C481 1.401 . S
C482 H499 0.930 . S
C483 O466 1.262 . S
C483 O467 1.260 . S
C484 Tb420 2.833 1_565 S
C484 O464 1.251 . S
C484 O469 1.256 . S
C484 C477 1.500 . S
C485 H450 0.929 . S
C485 C463 1.444 . S
C485 C486 1.317 . S
C486 H448 0.930 . S
C486 C454 1.432 . S
C486 C485 1.317 . S
C487 O471 1.283 . S
C487 O474 1.243 . S
C488 C489 1.382 . S
C488 C492 1.393 . S
C488 C495 1.500 . S
C489 C488 1.382 . S
C489 C490 1.400 . S
C489 H500 0.930 . S
C490 C489 1.400 . S
C490 C491 1.384 . S
C491 C490 1.384 . S
C491 C493 1.392 . S
C491 H501 0.931 . S
C492 C488 1.393 . S
C492 C493 1.401 . S
C492 H502 0.930 . S
C493 C491 1.392 . S
C493 C492 1.401 . S
C493 H503 0.930 . S
C494 O472 1.262 . S
C494 O473 1.260 . S
C495 Tb431 2.833 . S
C495 O470 1.251 . S
C495 O475 1.256 . S
C495 C488 1.500 . S
H496 C479 0.930 . S
H497 C480 0.931 . S
H498 C481 0.930 . S
H499 C482 0.930 . S
H500 C489 0.930 . S
H501 C491 0.931 . S
H502 C492 0.930 . S
H503 C493 0.930 . S
Tb504 N535 2.660 . S
Tb504 N542 2.600 . S
Tb504 O548 2.546 . S
Tb504 O549 2.610 . S
Tb504 O551 2.320 . S
Tb504 O552 2.552 . S
Tb504 O553 2.413 . S
Tb504 O555 2.362 . S
Tb504 O556 2.421 . S
Tb504 C568 2.833 . S
C505 C508 1.432 . S
C505 C509 1.414 . S
C505 N512 1.359 . S
C506 C508 1.417 . S
C506 C510 1.432 . S
C506 C518 1.410 . S
C507 C509 1.444 . S
C507 C510 1.317 . S
C507 H530 0.929 . S
C508 C505 1.432 . S
C508 C506 1.417 . S
C508 N516 1.360 . S
C509 C505 1.414 . S
C509 C507 1.444 . S
C509 C514 1.385 . S
C510 C506 1.432 . S
C510 C507 1.317 . S
C510 H522 0.930 . S
C511 C513 1.392 . S
C511 C514 1.370 . S
C511 H523 0.931 . S
N512 C505 1.359 . S
N512 C513 1.327 . S
N512 Tb515 2.600 . S
C513 C511 1.392 . S
C513 N512 1.327 . S
C513 H520 0.930 . S
C514 C509 1.385 . S
C514 C511 1.370 . S
C514 H533 0.930 . S
Tb515 N512 2.600 . S
Tb515 N516 2.660 . S
Tb515 O549 2.362 . S
Tb515 O550 2.421 . S
Tb515 O554 2.546 . S
Tb515 O555 2.610 . S
Tb515 O557 2.320 . S
Tb515 O558 2.552 . S
Tb515 O559 2.413 . S
Tb515 C579 2.833 . S
N516 C508 1.360 . S
N516 Tb515 2.660 . S
N516 C517 1.305 . S
C517 N516 1.305 . S
C517 C519 1.407 . S
C517 H524 0.930 . S
C518 C506 1.410 . S
C518 C519 1.345 . S
C518 H526 0.930 . S
C519 C517 1.407 . S
C519 C518 1.345 . S
C519 H521 0.930 . S
H520 C513 0.930 . S
H521 C519 0.930 . S
H522 C510 0.930 . S
H523 C511 0.931 . S
H524 C517 0.930 . S
H525 C539 0.930 . S
H526 C518 0.930 . S
H527 C545 0.930 . S
H528 C536 0.930 . S
H529 C543 0.931 . S
H530 C507 0.929 . S
H531 C537 0.930 . S
H532 C570 0.930 . S
H533 C514 0.930 . S
H534 C569 0.929 . S
N535 Tb504 2.660 . S
N535 C536 1.305 . S
N535 C540 1.360 . S
C536 H528 0.930 . S
C536 N535 1.305 . S
C536 C539 1.407 . S
C537 H531 0.930 . S
C537 C538 1.410 . S
C537 C539 1.345 . S
C538 C537 1.410 . S
C538 C540 1.417 . S
C538 C570 1.432 . S
C539 H525 0.930 . S
C539 C536 1.407 . S
C539 C537 1.345 . S
C540 N535 1.360 . S
C540 C538 1.417 . S
C540 C544 1.432 . S
H541 C546 0.930 . S
N542 Tb504 2.600 . S
N542 C544 1.359 . S
N542 C545 1.327 . S
C543 H529 0.931 . S
C543 C545 1.392 . S
C543 C546 1.370 . S
C544 C540 1.432 . S
C544 N542 1.359 . S
C544 C547 1.414 . S
C545 H527 0.930 . S
C545 N542 1.327 . S
C545 C543 1.392 . S
C546 H541 0.930 . S
C546 C543 1.370 . S
C546 C547 1.385 . S
C547 C544 1.414 . S
C547 C546 1.385 . S
C547 C569 1.444 . S
O548 Tb504 2.546 . S
O548 C568 1.251 . S
O549 Tb504 2.610 . S
O549 Tb515 2.362 . S
O549 C560 1.283 . S
O550 Tb515 2.421 . S
O550 C567 1.262 . S
O551 Tb504 2.320 . S
O551 C567 1.260 . S
O552 Tb504 2.552 . S
O552 C560 1.243 . S
O553 Tb504 2.413 . S
O553 C568 1.256 . S
O554 Tb515 2.546 . S
O554 C579 1.251 . S
O555 Tb504 2.362 . S
O555 Tb515 2.610 . S
O555 C571 1.283 . S
O556 Tb504 2.421 . S
O556 C578 1.262 . S
O557 Tb515 2.320 . S
O557 C578 1.260 . S
O558 Tb515 2.552 . S
O558 C571 1.243 . S
O559 Tb515 2.413 . S
O559 C579 1.256 . S
C560 O549 1.283 . S
C560 O552 1.243 . S
C561 C563 1.382 . S
C561 C565 1.393 . S
C561 C568 1.500 . S
C562 C563 1.400 . S
C562 C564 1.384 . S
C563 C561 1.382 . S
C563 C562 1.400 . S
C563 H580 0.930 . S
C564 C562 1.384 . S
C564 C566 1.392 . S
C564 H581 0.931 . S
C565 C561 1.393 . S
C565 C566 1.401 . S
C565 H582 0.930 . S
C566 C564 1.392 . S
C566 C565 1.401 . S
C566 H583 0.930 . S
C567 O550 1.262 . S
C567 O551 1.260 . S
C568 Tb504 2.833 . S
C568 O548 1.251 . S
C568 O553 1.256 . S
C568 C561 1.500 . S
C569 H534 0.929 . S
C569 C547 1.444 . S
C569 C570 1.317 . S
C570 H532 0.930 . S
C570 C538 1.432 . S
C570 C569 1.317 . S
C571 O555 1.283 . S
C571 O558 1.243 . S
C572 C573 1.382 . S
C572 C576 1.393 . S
C572 C579 1.500 . S
C573 C572 1.382 . S
C573 C574 1.400 . S
C573 H584 0.930 . S
C574 C573 1.400 . S
C574 C575 1.384 1_455 S
C575 C574 1.384 1_655 S
C575 C577 1.392 . S
C575 H585 0.931 . S
C576 C572 1.393 . S
C576 C577 1.401 1_455 S
C576 H586 0.930 . S
C577 C575 1.392 . S
C577 C576 1.401 1_655 S
C577 H587 0.930 . S
C578 O556 1.262 . S
C578 O557 1.260 . S
C579 Tb515 2.833 . S
C579 O554 1.251 . S
C579 O559 1.256 . S
C579 C572 1.500 . S
H580 C563 0.930 . S
H581 C564 0.931 . S
H582 C565 0.930 . S
H583 C566 0.930 . S
H584 C573 0.930 . S
H585 C575 0.931 . S
H586 C576 0.930 . S
H587 C577 0.930 . S
Tb588 N619 2.660 . S
Tb588 N626 2.600 . S
Tb588 O632 2.546 . S
Tb588 O633 2.610 . S
Tb588 O635 2.320 . S
Tb588 O636 2.552 . S
Tb588 O637 2.413 . S
Tb588 O639 2.362 . S
Tb588 O640 2.421 . S
Tb588 C652 2.833 . S
C589 C592 1.432 . S
C589 C593 1.414 . S
C589 N596 1.359 . S
C590 C592 1.417 . S
C590 C594 1.432 . S
C590 C602 1.410 . S
C591 C593 1.444 . S
C591 C594 1.317 . S
C591 H614 0.929 . S
C592 C589 1.432 . S
C592 C590 1.417 . S
C592 N600 1.360 . S
C593 C589 1.414 . S
C593 C591 1.444 . S
C593 C598 1.385 . S
C594 C590 1.432 . S
C594 C591 1.317 . S
C594 H606 0.930 . S
C595 C597 1.392 . S
C595 C598 1.370 . S
C595 H607 0.931 . S
N596 C589 1.359 . S
N596 C597 1.327 . S
N596 Tb599 2.600 . S
C597 C595 1.392 . S
C597 N596 1.327 . S
C597 H604 0.930 . S
C598 C593 1.385 . S
C598 C595 1.370 . S
C598 H617 0.930 . S
Tb599 N596 2.600 . S
Tb599 N600 2.660 . S
Tb599 O633 2.362 . S
Tb599 O634 2.421 . S
Tb599 O638 2.546 . S
Tb599 O639 2.610 . S
Tb599 O641 2.320 . S
Tb599 O642 2.552 . S
Tb599 O643 2.413 . S
Tb599 C663 2.833 . S
N600 C592 1.360 . S
N600 Tb599 2.660 . S
N600 C601 1.305 . S
C601 N600 1.305 . S
C601 C603 1.407 . S
C601 H608 0.930 . S
C602 C590 1.410 . S
C602 C603 1.345 . S
C602 H610 0.930 . S
C603 C601 1.407 . S
C603 C602 1.345 . S
C603 H605 0.930 . S
H604 C597 0.930 . S
H605 C603 0.930 . S
H606 C594 0.930 . S
H607 C595 0.931 . S
H608 C601 0.930 . S
H609 C623 0.930 . S
H610 C602 0.930 . S
H611 C629 0.930 . S
H612 C620 0.930 . S
H613 C627 0.931 . S
H614 C591 0.929 . S
H615 C621 0.930 . S
H616 C654 0.930 . S
H617 C598 0.930 . S
H618 C653 0.929 . S
N619 Tb588 2.660 . S
N619 C620 1.305 . S
N619 C624 1.360 . S
C620 H612 0.930 . S
C620 N619 1.305 . S
C620 C623 1.407 . S
C621 H615 0.930 . S
C621 C622 1.410 1_545 S
C621 C623 1.345 1_545 S
C622 C621 1.410 1_565 S
C622 C624 1.417 . S
C622 C654 1.432 1_565 S
C623 H609 0.930 . S
C623 C620 1.407 . S
C623 C621 1.345 1_565 S
C624 N619 1.360 . S
C624 C622 1.417 . S
C624 C628 1.432 . S
H625 C630 0.930 . S
N626 Tb588 2.600 . S
N626 C628 1.359 . S
N626 C629 1.327 . S
C627 H613 0.931 . S
C627 C629 1.392 . S
C627 C630 1.370 . S
C628 C624 1.432 . S
C628 N626 1.359 . S
C628 C631 1.414 . S
C629 H611 0.930 . S
C629 N626 1.327 . S
C629 C627 1.392 . S
C630 H625 0.930 . S
C630 C627 1.370 . S
C630 C631 1.385 . S
C631 C628 1.414 . S
C631 C630 1.385 . S
C631 C653 1.444 1_565 S
O632 Tb588 2.546 . S
O632 C652 1.251 . S
O633 Tb588 2.610 . S
O633 Tb599 2.362 . S
O633 C644 1.283 . S
O634 Tb599 2.421 . S
O634 C651 1.262 . S
O635 Tb588 2.320 . S
O635 C651 1.260 . S
O636 Tb588 2.552 . S
O636 C644 1.243 . S
O637 Tb588 2.413 . S
O637 C652 1.256 . S
O638 Tb599 2.546 . S
O638 C663 1.251 . S
O639 Tb588 2.362 . S
O639 Tb599 2.610 . S
O639 C655 1.283 . S
O640 Tb588 2.421 . S
O640 C662 1.262 . S
O641 Tb599 2.320 . S
O641 C662 1.260 . S
O642 Tb599 2.552 . S
O642 C655 1.243 . S
O643 Tb599 2.413 . S
O643 C663 1.256 . S
C644 O633 1.283 . S
C644 O636 1.243 . S
C645 C647 1.382 . S
C645 C649 1.393 . S
C645 C652 1.500 . S
C646 C647 1.400 . S
C646 C648 1.384 . S
C647 C645 1.382 . S
C647 C646 1.400 . S
C647 H664 0.930 . S
C648 C646 1.384 . S
C648 C650 1.392 . S
C648 H665 0.931 . S
C649 C645 1.393 . S
C649 C650 1.401 . S
C649 H666 0.930 . S
C650 C648 1.392 . S
C650 C649 1.401 . S
C650 H667 0.930 . S
C651 O634 1.262 . S
C651 O635 1.260 . S
C652 Tb588 2.833 . S
C652 O632 1.251 . S
C652 O637 1.256 . S
C652 C645 1.500 . S
C653 H618 0.929 . S
C653 C631 1.444 1_545 S
C653 C654 1.317 . S
C654 H616 0.930 . S
C654 C622 1.432 1_545 S
C654 C653 1.317 . S
C655 O639 1.283 . S
C655 O642 1.243 . S
C656 C657 1.382 . S
C656 C660 1.393 . S
C656 C663 1.500 . S
C657 C656 1.382 . S
C657 C658 1.400 . S
C657 H668 0.930 . S
C658 C657 1.400 . S
C658 C659 1.384 . S
C659 C658 1.384 . S
C659 C661 1.392 . S
C659 H669 0.931 . S
C660 C656 1.393 . S
C660 C661 1.401 . S
C660 H670 0.930 . S
C661 C659 1.392 . S
C661 C660 1.401 . S
C661 H671 0.930 . S
C662 O640 1.262 . S
C662 O641 1.260 . S
C663 Tb599 2.833 . S
C663 O638 1.251 . S
C663 O643 1.256 . S
C663 C656 1.500 . S
H664 C647 0.930 . S
H665 C648 0.931 . S
H666 C649 0.930 . S
H667 C650 0.930 . S
H668 C657 0.930 . S
H669 C659 0.931 . S
H670 C660 0.930 . S
H671 C661 0.930 . S
Tb672 N703 2.660 . S
Tb672 N710 2.600 . S
Tb672 O716 2.546 . S
Tb672 O717 2.610 . S
Tb672 O719 2.320 . S
Tb672 O720 2.552 . S
Tb672 O721 2.413 . S
Tb672 O723 2.362 . S
Tb672 O724 2.421 . S
Tb672 C736 2.833 . S
C673 C676 1.432 . S
C673 C677 1.414 . S
C673 N680 1.359 . S
C674 C676 1.417 . S
C674 C678 1.432 . S
C674 C686 1.410 . S
C675 C677 1.444 . S
C675 C678 1.317 . S
C675 H698 0.929 1_565 S
C676 C673 1.432 . S
C676 C674 1.417 . S
C676 N684 1.360 . S
C677 C673 1.414 . S
C677 C675 1.444 . S
C677 C682 1.385 . S
C678 C674 1.432 . S
C678 C675 1.317 . S
C678 H690 0.930 1_565 S
C679 C681 1.392 . S
C679 C682 1.370 . S
C679 H691 0.931 . S
N680 C673 1.359 . S
N680 C681 1.327 . S
N680 Tb683 2.600 . S
C681 C679 1.392 . S
C681 N680 1.327 . S
C681 H688 0.930 . S
C682 C677 1.385 . S
C682 C679 1.370 . S
C682 H701 0.930 . S
Tb683 N680 2.600 . S
Tb683 N684 2.660 . S
Tb683 O717 2.362 . S
Tb683 O718 2.421 . S
Tb683 O722 2.546 . S
Tb683 O723 2.610 . S
Tb683 O725 2.320 . S
Tb683 O726 2.552 . S
Tb683 O727 2.413 . S
Tb683 C747 2.833 . S
N684 C676 1.360 . S
N684 Tb683 2.660 . S
N684 C685 1.305 . S
C685 N684 1.305 . S
C685 C687 1.407 . S
C685 H692 0.930 . S
C686 C674 1.410 . S
C686 C687 1.345 . S
C686 H694 0.930 . S
C687 C685 1.407 . S
C687 C686 1.345 . S
C687 H689 0.930 . S
H688 C681 0.930 . S
H689 C687 0.930 . S
H690 C678 0.930 1_545 S
H691 C679 0.931 . S
H692 C685 0.930 . S
H693 C707 0.930 . S
H694 C686 0.930 . S
H695 C713 0.930 . S
H696 C704 0.930 . S
H697 C711 0.931 . S
H698 C675 0.929 1_545 S
H699 C705 0.930 . S
H700 C738 0.930 . S
H701 C682 0.930 . S
H702 C737 0.929 . S
N703 Tb672 2.660 . S
N703 C704 1.305 . S
N703 C708 1.360 . S
C704 H696 0.930 . S
C704 N703 1.305 . S
C704 C707 1.407 . S
C705 H699 0.930 . S
C705 C706 1.410 . S
C705 C707 1.345 . S
C706 C705 1.410 . S
C706 C708 1.417 . S
C706 C738 1.432 . S
C707 H693 0.930 . S
C707 C704 1.407 . S
C707 C705 1.345 . S
C708 N703 1.360 . S
C708 C706 1.417 . S
C708 C712 1.432 . S
H709 C714 0.930 . S
N710 Tb672 2.600 . S
N710 C712 1.359 . S
N710 C713 1.327 . S
C711 H697 0.931 . S
C711 C713 1.392 . S
C711 C714 1.370 . S
C712 C708 1.432 . S
C712 N710 1.359 . S
C712 C715 1.414 . S
C713 H695 0.930 . S
C713 N710 1.327 . S
C713 C711 1.392 . S
C714 H709 0.930 . S
C714 C711 1.370 . S
C714 C715 1.385 . S
C715 C712 1.414 . S
C715 C714 1.385 . S
C715 C737 1.444 . S
O716 Tb672 2.546 . S
O716 C736 1.251 . S
O717 Tb672 2.610 . S
O717 Tb683 2.362 . S
O717 C728 1.283 . S
O718 Tb683 2.421 . S
O718 C735 1.262 . S
O719 Tb672 2.320 . S
O719 C735 1.260 . S
O720 Tb672 2.552 . S
O720 C728 1.243 . S
O721 Tb672 2.413 . S
O721 C736 1.256 . S
O722 Tb683 2.546 . S
O722 C747 1.251 . S
O723 Tb672 2.362 . S
O723 Tb683 2.610 . S
O723 C739 1.283 . S
O724 Tb672 2.421 . S
O724 C746 1.262 . S
O725 Tb683 2.320 . S
O725 C746 1.260 . S
O726 Tb683 2.552 . S
O726 C739 1.243 . S
O727 Tb683 2.413 . S
O727 C747 1.256 . S
C728 O717 1.283 . S
C728 O720 1.243 . S
C729 C731 1.382 . S
C729 C733 1.393 . S
C729 C736 1.500 . S
C730 C731 1.400 . S
C730 C732 1.384 . S
C731 C729 1.382 . S
C731 C730 1.400 . S
C731 H748 0.930 . S
C732 C730 1.384 . S
C732 C734 1.392 . S
C732 H749 0.931 . S
C733 C729 1.393 . S
C733 C734 1.401 . S
C733 H750 0.930 . S
C734 C732 1.392 . S
C734 C733 1.401 . S
C734 H751 0.930 . S
C735 O718 1.262 . S
C735 O719 1.260 . S
C736 Tb672 2.833 . S
C736 O716 1.251 . S
C736 O721 1.256 . S
C736 C729 1.500 . S
C737 H702 0.929 . S
C737 C715 1.444 . S
C737 C738 1.317 . S
C738 H700 0.930 . S
C738 C706 1.432 . S
C738 C737 1.317 . S
C739 O723 1.283 . S
C739 O726 1.243 . S
C740 C741 1.382 . S
C740 C744 1.393 . S
C740 C747 1.500 1_545 S
C741 C740 1.382 . S
C741 C742 1.400 . S
C741 H752 0.930 . S
C742 C741 1.400 . S
C742 C743 1.384 . S
C743 C742 1.384 . S
C743 C745 1.392 . S
C743 H753 0.931 . S
C744 C740 1.393 . S
C744 C745 1.401 . S
C744 H754 0.930 . S
C745 C743 1.392 . S
C745 C744 1.401 . S
C745 H755 0.930 . S
C746 O724 1.262 . S
C746 O725 1.260 . S
C747 Tb683 2.833 . S
C747 O722 1.251 . S
C747 O727 1.256 . S
C747 C740 1.500 1_565 S
H748 C731 0.930 . S
H749 C732 0.931 . S
H750 C733 0.930 . S
H751 C734 0.930 . S
H752 C741 0.930 . S
H753 C743 0.931 . S
H754 C744 0.930 . S
H755 C745 0.930 . S
Tb756 N787 2.660 . S
Tb756 N794 2.600 . S
Tb756 O800 2.546 . S
Tb756 O801 2.610 . S
Tb756 O803 2.320 . S
Tb756 O804 2.552 . S
Tb756 O805 2.413 . S
Tb756 O807 2.362 . S
Tb756 O808 2.421 . S
Tb756 C820 2.833 . S
C757 C760 1.432 . S
C757 C761 1.414 . S
C757 N764 1.359 . S
C758 C760 1.417 . S
C758 C762 1.432 . S
C758 C770 1.410 . S
C759 C761 1.444 . S
C759 C762 1.317 . S
C759 H782 0.929 . S
C760 C757 1.432 . S
C760 C758 1.417 . S
C760 N768 1.360 . S
C761 C757 1.414 . S
C761 C759 1.444 . S
C761 C766 1.385 . S
C762 C758 1.432 . S
C762 C759 1.317 . S
C762 H774 0.930 . S
C763 C765 1.392 . S
C763 C766 1.370 . S
C763 H775 0.931 . S
N764 C757 1.359 . S
N764 C765 1.327 . S
N764 Tb767 2.600 . S
C765 C763 1.392 . S
C765 N764 1.327 . S
C765 H772 0.930 . S
C766 C761 1.385 . S
C766 C763 1.370 . S
C766 H785 0.930 . S
Tb767 N764 2.600 . S
Tb767 N768 2.660 . S
Tb767 O801 2.362 . S
Tb767 O802 2.421 . S
Tb767 O806 2.546 . S
Tb767 O807 2.610 . S
Tb767 O809 2.320 . S
Tb767 O810 2.552 . S
Tb767 O811 2.413 . S
Tb767 C831 2.833 . S
N768 C760 1.360 . S
N768 Tb767 2.660 . S
N768 C769 1.305 . S
C769 N768 1.305 . S
C769 C771 1.407 . S
C769 H776 0.930 . S
C770 C758 1.410 . S
C770 C771 1.345 . S
C770 H778 0.930 . S
C771 C769 1.407 . S
C771 C770 1.345 . S
C771 H773 0.930 . S
H772 C765 0.930 . S
H773 C771 0.930 . S
H774 C762 0.930 . S
H775 C763 0.931 . S
H776 C769 0.930 . S
H777 C791 0.930 . S
H778 C770 0.930 . S
H779 C797 0.930 . S
H780 C788 0.930 . S
H781 C795 0.931 . S
H782 C759 0.929 . S
H783 C789 0.930 . S
H784 C822 0.930 . S
H785 C766 0.930 . S
H786 C821 0.929 . S
N787 Tb756 2.660 . S
N787 C788 1.305 . S
N787 C792 1.360 . S
C788 H780 0.930 . S
C788 N787 1.305 . S
C788 C791 1.407 . S
C789 H783 0.930 . S
C789 C790 1.410 . S
C789 C791 1.345 . S
C790 C789 1.410 . S
C790 C792 1.417 . S
C790 C822 1.432 . S
C791 H777 0.930 . S
C791 C788 1.407 . S
C791 C789 1.345 . S
C792 N787 1.360 . S
C792 C790 1.417 . S
C792 C796 1.432 . S
H793 C798 0.930 . S
N794 Tb756 2.600 . S
N794 C796 1.359 . S
N794 C797 1.327 . S
C795 H781 0.931 . S
C795 C797 1.392 . S
C795 C798 1.370 . S
C796 C792 1.432 . S
C796 N794 1.359 . S
C796 C799 1.414 . S
C797 H779 0.930 . S
C797 N794 1.327 . S
C797 C795 1.392 . S
C798 H793 0.930 . S
C798 C795 1.370 . S
C798 C799 1.385 . S
C799 C796 1.414 . S
C799 C798 1.385 . S
C799 C821 1.444 . S
O800 Tb756 2.546 . S
O800 C820 1.251 . S
O801 Tb756 2.610 . S
O801 Tb767 2.362 . S
O801 C812 1.283 . S
O802 Tb767 2.421 . S
O802 C819 1.262 . S
O803 Tb756 2.320 . S
O803 C819 1.260 . S
O804 Tb756 2.552 . S
O804 C812 1.243 . S
O805 Tb756 2.413 . S
O805 C820 1.256 . S
O806 Tb767 2.546 . S
O806 C831 1.251 . S
O807 Tb756 2.362 . S
O807 Tb767 2.610 . S
O807 C823 1.283 . S
O808 Tb756 2.421 . S
O808 C830 1.262 . S
O809 Tb767 2.320 . S
O809 C830 1.260 . S
O810 Tb767 2.552 . S
O810 C823 1.243 . S
O811 Tb767 2.413 . S
O811 C831 1.256 . S
C812 O801 1.283 . S
C812 O804 1.243 . S
C813 C815 1.382 . S
C813 C817 1.393 . S
C813 C820 1.500 . S
C814 C815 1.400 1_545 S
C814 C816 1.384 . S
C815 C813 1.382 . S
C815 C814 1.400 1_565 S
C815 H832 0.930 . S
C816 C814 1.384 . S
C816 C818 1.392 . S
C816 H833 0.931 . S
C817 C813 1.393 . S
C817 C818 1.401 1_565 S
C817 H834 0.930 . S
C818 C816 1.392 . S
C818 C817 1.401 1_545 S
C818 H835 0.930 . S
C819 O802 1.262 . S
C819 O803 1.260 . S
C820 Tb756 2.833 . S
C820 O800 1.251 . S
C820 O805 1.256 . S
C820 C813 1.500 . S
C821 H786 0.929 . S
C821 C799 1.444 . S
C821 C822 1.317 . S
C822 H784 0.930 . S
C822 C790 1.432 . S
C822 C821 1.317 . S
C823 O807 1.283 . S
C823 O810 1.243 . S
C824 C825 1.382 . S
C824 C828 1.393 . S
C824 C831 1.500 . S
C825 C824 1.382 . S
C825 C826 1.400 . S
C825 H836 0.930 . S
C826 C825 1.400 . S
C826 C827 1.384 . S
C827 C826 1.384 . S
C827 C829 1.392 . S
C827 H837 0.931 . S
C828 C824 1.393 . S
C828 C829 1.401 . S
C828 H838 0.930 . S
C829 C827 1.392 . S
C829 C828 1.401 . S
C829 H839 0.930 . S
C830 O808 1.262 . S
C830 O809 1.260 . S
C831 Tb767 2.833 . S
C831 O806 1.251 . S
C831 O811 1.256 . S
C831 C824 1.500 . S
H832 C815 0.930 . S
H833 C816 0.931 . S
H834 C817 0.930 . S
H835 C818 0.930 . S
H836 C825 0.930 . S
H837 C827 0.931 . S
H838 C828 0.930 . S
H839 C829 0.930 . S
Tb840 N871 2.660 . S
Tb840 N878 2.600 . S
Tb840 O884 2.546 . S
Tb840 O885 2.610 . S
Tb840 O887 2.320 . S
Tb840 O888 2.552 . S
Tb840 O889 2.413 . S
Tb840 O891 2.362 . S
Tb840 O892 2.421 . S
Tb840 C904 2.833 . S
C841 C844 1.432 . S
C841 C845 1.414 . S
C841 N848 1.359 . S
C842 C844 1.417 . S
C842 C846 1.432 1_565 S
C842 C854 1.410 1_565 S
C843 C845 1.444 1_545 S
C843 C846 1.317 . S
C843 H866 0.929 . S
C844 C841 1.432 . S
C844 C842 1.417 . S
C844 N852 1.360 . S
C845 C841 1.414 . S
C845 C843 1.444 1_565 S
C845 C850 1.385 . S
C846 C842 1.432 1_545 S
C846 C843 1.317 . S
C846 H858 0.930 . S
C847 C849 1.392 . S
C847 C850 1.370 . S
C847 H859 0.931 . S
N848 C841 1.359 . S
N848 C849 1.327 . S
N848 Tb851 2.600 . S
C849 C847 1.392 . S
C849 N848 1.327 . S
C849 H856 0.930 . S
C850 C845 1.385 . S
C850 C847 1.370 . S
C850 H869 0.930 . S
Tb851 N848 2.600 . S
Tb851 N852 2.660 . S
Tb851 O885 2.362 . S
Tb851 O886 2.421 . S
Tb851 O890 2.546 . S
Tb851 O891 2.610 . S
Tb851 O893 2.320 . S
Tb851 O894 2.552 . S
Tb851 O895 2.413 . S
Tb851 C915 2.833 . S
N852 C844 1.360 . S
N852 Tb851 2.660 . S
N852 C853 1.305 . S
C853 N852 1.305 . S
C853 C855 1.407 . S
C853 H860 0.930 . S
C854 C842 1.410 1_545 S
C854 C855 1.345 1_545 S
C854 H862 0.930 . S
C855 C853 1.407 . S
C855 C854 1.345 1_565 S
C855 H857 0.930 . S
H856 C849 0.930 . S
H857 C855 0.930 . S
H858 C846 0.930 . S
H859 C847 0.931 . S
H860 C853 0.930 . S
H861 C875 0.930 . S
H862 C854 0.930 . S
H863 C881 0.930 . S
H864 C872 0.930 . S
H865 C879 0.931 . S
H866 C843 0.929 . S
H867 C873 0.930 . S
H868 C906 0.930 . S
H869 C850 0.930 . S
H870 C905 0.929 . S
N871 Tb840 2.660 . S
N871 C872 1.305 . S
N871 C876 1.360 . S
C872 H864 0.930 . S
C872 N871 1.305 . S
C872 C875 1.407 . S
C873 H867 0.930 . S
C873 C874 1.410 . S
C873 C875 1.345 . S
C874 C873 1.410 . S
C874 C876 1.417 . S
C874 C906 1.432 . S
C875 H861 0.930 . S
C875 C872 1.407 . S
C875 C873 1.345 . S
C876 N871 1.360 . S
C876 C874 1.417 . S
C876 C880 1.432 . S
H877 C882 0.930 . S
N878 Tb840 2.600 . S
N878 C880 1.359 . S
N878 C881 1.327 . S
C879 H865 0.931 . S
C879 C881 1.392 . S
C879 C882 1.370 . S
C880 C876 1.432 . S
C880 N878 1.359 . S
C880 C883 1.414 . S
C881 H863 0.930 . S
C881 N878 1.327 . S
C881 C879 1.392 . S
C882 H877 0.930 . S
C882 C879 1.370 . S
C882 C883 1.385 . S
C883 C880 1.414 . S
C883 C882 1.385 . S
C883 C905 1.444 . S
O884 Tb840 2.546 . S
O884 C904 1.251 . S
O885 Tb840 2.610 . S
O885 Tb851 2.362 . S
O885 C896 1.283 . S
O886 Tb851 2.421 . S
O886 C903 1.262 . S
O887 Tb840 2.320 . S
O887 C903 1.260 . S
O888 Tb840 2.552 . S
O888 C896 1.243 . S
O889 Tb840 2.413 . S
O889 C904 1.256 . S
O890 Tb851 2.546 . S
O890 C915 1.251 . S
O891 Tb840 2.362 . S
O891 Tb851 2.610 . S
O891 C907 1.283 . S
O892 Tb840 2.421 . S
O892 C914 1.262 . S
O893 Tb851 2.320 . S
O893 C914 1.260 . S
O894 Tb851 2.552 . S
O894 C907 1.243 . S
O895 Tb851 2.413 . S
O895 C915 1.256 . S
C896 O885 1.283 . S
C896 O888 1.243 . S
C897 C899 1.382 . S
C897 C901 1.393 . S
C897 C904 1.500 . S
C898 C899 1.400 . S
C898 C900 1.384 . S
C899 C897 1.382 . S
C899 C898 1.400 . S
C899 H916 0.930 . S
C900 C898 1.384 . S
C900 C902 1.392 . S
C900 H917 0.931 . S
C901 C897 1.393 . S
C901 C902 1.401 . S
C901 H918 0.930 . S
C902 C900 1.392 . S
C902 C901 1.401 . S
C902 H919 0.930 . S
C903 O886 1.262 . S
C903 O887 1.260 . S
C904 Tb840 2.833 . S
C904 O884 1.251 . S
C904 O889 1.256 . S
C904 C897 1.500 . S
C905 H870 0.929 . S
C905 C883 1.444 . S
C905 C906 1.317 . S
C906 H868 0.930 . S
C906 C874 1.432 . S
C906 C905 1.317 . S
C907 O891 1.283 . S
C907 O894 1.243 . S
C908 C909 1.382 . S
C908 C912 1.393 . S
C908 C915 1.500 . S
C909 C908 1.382 . S
C909 C910 1.400 . S
C909 H920 0.930 . S
C910 C909 1.400 . S
C910 C911 1.384 . S
C911 C910 1.384 . S
C911 C913 1.392 . S
C911 H921 0.931 . S
C912 C908 1.393 . S
C912 C913 1.401 . S
C912 H922 0.930 . S
C913 C911 1.392 . S
C913 C912 1.401 . S
C913 H923 0.930 . S
C914 O892 1.262 . S
C914 O893 1.260 . S
C915 Tb851 2.833 . S
C915 O890 1.251 . S
C915 O895 1.256 . S
C915 C908 1.500 . S
H916 C899 0.930 . S
H917 C900 0.931 . S
H918 C901 0.930 . S
H919 C902 0.930 . S
H920 C909 0.930 . S
H921 C911 0.931 . S
H922 C912 0.930 . S
H923 C913 0.930 . S
Tb924 N955 2.660 . S
Tb924 N962 2.600 . S
Tb924 O968 2.546 . S
Tb924 O969 2.610 . S
Tb924 O971 2.320 . S
Tb924 O972 2.552 . S
Tb924 O973 2.413 . S
Tb924 O975 2.362 . S
Tb924 O976 2.421 . S
Tb924 C988 2.833 . S
C925 C928 1.432 . S
C925 C929 1.414 . S
C925 N932 1.359 . S
C926 C928 1.417 . S
C926 C930 1.432 . S
C926 C938 1.410 . S
C927 C929 1.444 . S
C927 C930 1.317 . S
C927 H950 0.929 . S
C928 C925 1.432 . S
C928 C926 1.417 . S
C928 N936 1.360 . S
C929 C925 1.414 . S
C929 C927 1.444 . S
C929 C934 1.385 . S
C930 C926 1.432 . S
C930 C927 1.317 . S
C930 H942 0.930 . S
C931 C933 1.392 . S
C931 C934 1.370 . S
C931 H943 0.931 . S
N932 C925 1.359 . S
N932 C933 1.327 . S
N932 Tb935 2.600 . S
C933 C931 1.392 . S
C933 N932 1.327 . S
C933 H940 0.930 . S
C934 C929 1.385 . S
C934 C931 1.370 . S
C934 H953 0.930 . S
Tb935 N932 2.600 . S
Tb935 N936 2.660 . S
Tb935 O969 2.362 . S
Tb935 O970 2.421 . S
Tb935 O974 2.546 . S
Tb935 O975 2.610 . S
Tb935 O977 2.320 . S
Tb935 O978 2.552 . S
Tb935 O979 2.413 . S
Tb935 C999 2.833 . S
N936 C928 1.360 . S
N936 Tb935 2.660 . S
N936 C937 1.305 . S
C937 N936 1.305 . S
C937 C939 1.407 . S
C937 H944 0.930 . S
C938 C926 1.410 . S
C938 C939 1.345 . S
C938 H946 0.930 . S
C939 C937 1.407 . S
C939 C938 1.345 . S
C939 H941 0.930 . S
H940 C933 0.930 . S
H941 C939 0.930 . S
H942 C930 0.930 . S
H943 C931 0.931 . S
H944 C937 0.930 . S
H945 C959 0.930 . S
H946 C938 0.930 . S
H947 C965 0.930 . S
H948 C956 0.930 . S
H949 C963 0.931 . S
H950 C927 0.929 . S
H951 C957 0.930 . S
H952 C990 0.930 . S
H953 C934 0.930 . S
H954 C989 0.929 . S
N955 Tb924 2.660 . S
N955 C956 1.305 . S
N955 C960 1.360 . S
C956 H948 0.930 . S
C956 N955 1.305 . S
C956 C959 1.407 . S
C957 H951 0.930 . S
C957 C958 1.410 . S
C957 C959 1.345 . S
C958 C957 1.410 . S
C958 C960 1.417 . S
C958 C990 1.432 . S
C959 H945 0.930 . S
C959 C956 1.407 . S
C959 C957 1.345 . S
C960 N955 1.360 . S
C960 C958 1.417 . S
C960 C964 1.432 . S
H961 C966 0.930 . S
N962 Tb924 2.600 . S
N962 C964 1.359 . S
N962 C965 1.327 . S
C963 H949 0.931 . S
C963 C965 1.392 . S
C963 C966 1.370 . S
C964 C960 1.432 . S
C964 N962 1.359 . S
C964 C967 1.414 . S
C965 H947 0.930 . S
C965 N962 1.327 . S
C965 C963 1.392 . S
C966 H961 0.930 . S
C966 C963 1.370 . S
C966 C967 1.385 . S
C967 C964 1.414 . S
C967 C966 1.385 . S
C967 C989 1.444 . S
O968 Tb924 2.546 . S
O968 C988 1.251 . S
O969 Tb924 2.610 . S
O969 Tb935 2.362 . S
O969 C980 1.283 . S
O970 Tb935 2.421 . S
O970 C987 1.262 . S
O971 Tb924 2.320 . S
O971 C987 1.260 . S
O972 Tb924 2.552 . S
O972 C980 1.243 . S
O973 Tb924 2.413 . S
O973 C988 1.256 . S
O974 Tb935 2.546 . S
O974 C999 1.251 . S
O975 Tb924 2.362 . S
O975 Tb935 2.610 . S
O975 C991 1.283 . S
O976 Tb924 2.421 . S
O976 C998 1.262 . S
O977 Tb935 2.320 . S
O977 C998 1.260 . S
O978 Tb935 2.552 . S
O978 C991 1.243 . S
O979 Tb935 2.413 . S
O979 C999 1.256 . S
C980 O969 1.283 . S
C980 O972 1.243 . S
C981 C983 1.382 . S
C981 C985 1.393 . S
C981 C988 1.500 . S
C982 C983 1.400 . S
C982 C984 1.384 . S
C983 C981 1.382 . S
C983 C982 1.400 . S
C983 H1000 0.930 . S
C984 C982 1.384 . S
C984 C986 1.392 . S
C984 H1001 0.931 . S
C985 C981 1.393 . S
C985 C986 1.401 . S
C985 H1002 0.930 . S
C986 C984 1.392 . S
C986 C985 1.401 . S
C986 H1003 0.930 . S
C987 O970 1.262 . S
C987 O971 1.260 . S
C988 Tb924 2.833 . S
C988 O968 1.251 . S
C988 O973 1.256 . S
C988 C981 1.500 . S
C989 H954 0.929 . S
C989 C967 1.444 . S
C989 C990 1.317 . S
C990 H952 0.930 . S
C990 C958 1.432 . S
C990 C989 1.317 . S
C991 O975 1.283 . S
C991 O978 1.243 . S
C992 C993 1.382 . S
C992 C996 1.393 . S
C992 C999 1.500 . S
C993 C992 1.382 . S
C993 C994 1.400 . S
C993 H1004 0.930 . S
C994 C993 1.400 . S
C994 C995 1.384 . S
C995 C994 1.384 . S
C995 C997 1.392 . S
C995 H1005 0.931 . S
C996 C992 1.393 . S
C996 C997 1.401 . S
C996 H1006 0.930 . S
C997 C995 1.392 . S
C997 C996 1.401 . S
C997 H1007 0.930 . S
C998 O976 1.262 . S
C998 O977 1.260 . S
C999 Tb935 2.833 . S
C999 O974 1.251 . S
C999 O979 1.256 . S
C999 C992 1.500 . S
H1000 C983 0.930 . S
H1001 C984 0.931 . S
H1002 C985 0.930 . S
H1003 C986 0.930 . S
H1004 C993 0.930 . S
H1005 C995 0.931 . S
H1006 C996 0.930 . S
H1007 C997 0.930 . S
Tb1008 N1039 2.660 . S
Tb1008 N1046 2.600 . S
Tb1008 O1052 2.546 . S
Tb1008 O1053 2.610 . S
Tb1008 O1055 2.320 . S
Tb1008 O1056 2.552 . S
Tb1008 O1057 2.413 . S
Tb1008 O1059 2.362 . S
Tb1008 O1060 2.421 . S
Tb1008 C1072 2.833 . S
C1009 C1012 1.432 . S
C1009 C1013 1.414 . S
C1009 N1016 1.359 . S
C1010 C1012 1.417 . S
C1010 C1014 1.432 . S
C1010 C1022 1.410 . S
C1011 C1013 1.444 . S
C1011 C1014 1.317 . S
C1011 H1034 0.929 . S
C1012 C1009 1.432 . S
C1012 C1010 1.417 . S
C1012 N1020 1.360 . S
C1013 C1009 1.414 . S
C1013 C1011 1.444 . S
C1013 C1018 1.385 . S
C1014 C1010 1.432 . S
C1014 C1011 1.317 . S
C1014 H1026 0.930 . S
C1015 C1017 1.392 . S
C1015 C1018 1.370 . S
C1015 H1027 0.931 . S
N1016 C1009 1.359 . S
N1016 C1017 1.327 . S
N1016 Tb1019 2.600 . S
C1017 C1015 1.392 . S
C1017 N1016 1.327 . S
C1017 H1024 0.930 . S
C1018 C1013 1.385 . S
C1018 C1015 1.370 . S
C1018 H1037 0.930 . S
Tb1019 N1016 2.600 . S
Tb1019 N1020 2.660 . S
Tb1019 O1053 2.362 . S
Tb1019 O1054 2.421 . S
Tb1019 O1058 2.546 . S
Tb1019 O1059 2.610 . S
Tb1019 O1061 2.320 . S
Tb1019 O1062 2.552 . S
Tb1019 O1063 2.413 . S
Tb1019 C1083 2.833 . S
N1020 C1012 1.360 . S
N1020 Tb1019 2.660 . S
N1020 C1021 1.305 . S
C1021 N1020 1.305 . S
C1021 C1023 1.407 . S
C1021 H1028 0.930 . S
C1022 C1010 1.410 . S
C1022 C1023 1.345 . S
C1022 H1030 0.930 . S
C1023 C1021 1.407 . S
C1023 C1022 1.345 . S
C1023 H1025 0.930 . S
H1024 C1017 0.930 . S
H1025 C1023 0.930 . S
H1026 C1014 0.930 . S
H1027 C1015 0.931 . S
H1028 C1021 0.930 . S
H1029 C1043 0.930 . S
H1030 C1022 0.930 . S
H1031 C1049 0.930 . S
H1032 C1040 0.930 . S
H1033 C1047 0.931 . S
H1034 C1011 0.929 . S
H1035 C1041 0.930 . S
H1036 C1074 0.930 . S
H1037 C1018 0.930 . S
H1038 C1073 0.929 . S
N1039 Tb1008 2.660 . S
N1039 C1040 1.305 . S
N1039 C1044 1.360 . S
C1040 H1032 0.930 . S
C1040 N1039 1.305 . S
C1040 C1043 1.407 . S
C1041 H1035 0.930 . S
C1041 C1042 1.410 . S
C1041 C1043 1.345 . S
C1042 C1041 1.410 . S
C1042 C1044 1.417 . S
C1042 C1074 1.432 . S
C1043 H1029 0.930 . S
C1043 C1040 1.407 . S
C1043 C1041 1.345 . S
C1044 N1039 1.360 . S
C1044 C1042 1.417 . S
C1044 C1048 1.432 . S
H1045 C1050 0.930 . S
N1046 Tb1008 2.600 . S
N1046 C1048 1.359 . S
N1046 C1049 1.327 . S
C1047 H1033 0.931 . S
C1047 C1049 1.392 . S
C1047 C1050 1.370 . S
C1048 C1044 1.432 . S
C1048 N1046 1.359 . S
C1048 C1051 1.414 . S
C1049 H1031 0.930 . S
C1049 N1046 1.327 . S
C1049 C1047 1.392 . S
C1050 H1045 0.930 . S
C1050 C1047 1.370 . S
C1050 C1051 1.385 . S
C1051 C1048 1.414 . S
C1051 C1050 1.385 . S
C1051 C1073 1.444 . S
O1052 Tb1008 2.546 . S
O1052 C1072 1.251 . S
O1053 Tb1008 2.610 . S
O1053 Tb1019 2.362 . S
O1053 C1064 1.283 . S
O1054 Tb1019 2.421 . S
O1054 C1071 1.262 . S
O1055 Tb1008 2.320 . S
O1055 C1071 1.260 . S
O1056 Tb1008 2.552 . S
O1056 C1064 1.243 . S
O1057 Tb1008 2.413 . S
O1057 C1072 1.256 . S
O1058 Tb1019 2.546 . S
O1058 C1083 1.251 . S
O1059 Tb1008 2.362 . S
O1059 Tb1019 2.610 . S
O1059 C1075 1.283 . S
O1060 Tb1008 2.421 . S
O1060 C1082 1.262 . S
O1061 Tb1019 2.320 . S
O1061 C1082 1.260 . S
O1062 Tb1019 2.552 . S
O1062 C1075 1.243 . S
O1063 Tb1019 2.413 . S
O1063 C1083 1.256 . S
C1064 O1053 1.283 . S
C1064 O1056 1.243 . S
C1065 C1067 1.382 . S
C1065 C1069 1.393 . S
C1065 C1072 1.500 . S
C1066 C1067 1.400 1_455 S
C1066 C1068 1.384 . S
C1067 C1065 1.382 . S
C1067 C1066 1.400 1_655 S
C1067 H1084 0.930 . S
C1068 C1066 1.384 . S
C1068 C1070 1.392 . S
C1068 H1085 0.931 . S
C1069 C1065 1.393 . S
C1069 C1070 1.401 1_655 S
C1069 H1086 0.930 . S
C1070 C1068 1.392 . S
C1070 C1069 1.401 1_455 S
C1070 H1087 0.930 . S
C1071 O1054 1.262 . S
C1071 O1055 1.260 . S
C1072 Tb1008 2.833 . S
C1072 O1052 1.251 . S
C1072 O1057 1.256 . S
C1072 C1065 1.500 . S
C1073 H1038 0.929 . S
C1073 C1051 1.444 . S
C1073 C1074 1.317 . S
C1074 H1036 0.930 . S
C1074 C1042 1.432 . S
C1074 C1073 1.317 . S
C1075 O1059 1.283 . S
C1075 O1062 1.243 . S
C1076 C1077 1.382 . S
C1076 C1080 1.393 . S
C1076 C1083 1.500 . S
C1077 C1076 1.382 . S
C1077 C1078 1.400 . S
C1077 H1088 0.930 . S
C1078 C1077 1.400 . S
C1078 C1079 1.384 . S
C1079 C1078 1.384 . S
C1079 C1081 1.392 . S
C1079 H1089 0.931 . S
C1080 C1076 1.393 . S
C1080 C1081 1.401 . S
C1080 H1090 0.930 . S
C1081 C1079 1.392 . S
C1081 C1080 1.401 . S
C1081 H1091 0.930 . S
C1082 O1060 1.262 . S
C1082 O1061 1.260 . S
C1083 Tb1019 2.833 . S
C1083 O1058 1.251 . S
C1083 O1063 1.256 . S
C1083 C1076 1.500 . S
H1084 C1067 0.930 . S
H1085 C1068 0.931 . S
H1086 C1069 0.930 . S
H1087 C1070 0.930 . S
H1088 C1077 0.930 . S
H1089 C1079 0.931 . S
H1090 C1080 0.930 . S
H1091 C1081 0.930 . S
Tb1092 N1123 2.660 . S
Tb1092 N1130 2.600 . S
Tb1092 O1136 2.546 . S
Tb1092 O1137 2.610 . S
Tb1092 O1139 2.320 . S
Tb1092 O1140 2.552 . S
Tb1092 O1141 2.413 . S
Tb1092 O1143 2.362 . S
Tb1092 O1144 2.421 . S
Tb1092 C1156 2.833 . S
C1093 C1096 1.432 . S
C1093 C1097 1.414 . S
C1093 N1100 1.359 . S
C1094 C1096 1.417 . S
C1094 C1098 1.432 . S
C1094 C1106 1.410 . S
C1095 C1097 1.444 . S
C1095 C1098 1.317 . S
C1095 H1118 0.929 . S
C1096 C1093 1.432 . S
C1096 C1094 1.417 . S
C1096 N1104 1.360 . S
C1097 C1093 1.414 . S
C1097 C1095 1.444 . S
C1097 C1102 1.385 . S
C1098 C1094 1.432 . S
C1098 C1095 1.317 . S
C1098 H1110 0.930 . S
C1099 C1101 1.392 . S
C1099 C1102 1.370 . S
C1099 H1111 0.931 . S
N1100 C1093 1.359 . S
N1100 C1101 1.327 . S
N1100 Tb1103 2.600 . S
C1101 C1099 1.392 . S
C1101 N1100 1.327 . S
C1101 H1108 0.930 . S
C1102 C1097 1.385 . S
C1102 C1099 1.370 . S
C1102 H1121 0.930 . S
Tb1103 N1100 2.600 . S
Tb1103 N1104 2.660 . S
Tb1103 O1137 2.362 . S
Tb1103 O1138 2.421 . S
Tb1103 O1142 2.546 . S
Tb1103 O1143 2.610 . S
Tb1103 O1145 2.320 . S
Tb1103 O1146 2.552 . S
Tb1103 O1147 2.413 . S
Tb1103 C1167 2.833 . S
N1104 C1096 1.360 . S
N1104 Tb1103 2.660 . S
N1104 C1105 1.305 . S
C1105 N1104 1.305 . S
C1105 C1107 1.407 . S
C1105 H1112 0.930 . S
C1106 C1094 1.410 . S
C1106 C1107 1.345 . S
C1106 H1114 0.930 . S
C1107 C1105 1.407 . S
C1107 C1106 1.345 . S
C1107 H1109 0.930 . S
H1108 C1101 0.930 . S
H1109 C1107 0.930 . S
H1110 C1098 0.930 . S
H1111 C1099 0.931 . S
H1112 C1105 0.930 . S
H1113 C1127 0.930 . S
H1114 C1106 0.930 . S
H1115 C1133 0.930 . S
H1116 C1124 0.930 . S
H1117 C1131 0.931 . S
H1118 C1095 0.929 . S
H1119 C1125 0.930 . S
H1120 C1158 0.930 . S
H1121 C1102 0.930 . S
H1122 C1157 0.929 . S
N1123 Tb1092 2.660 . S
N1123 C1124 1.305 . S
N1123 C1128 1.360 . S
C1124 H1116 0.930 . S
C1124 N1123 1.305 . S
C1124 C1127 1.407 . S
C1125 H1119 0.930 . S
C1125 C1126 1.410 . S
C1125 C1127 1.345 . S
C1126 C1125 1.410 . S
C1126 C1128 1.417 . S
C1126 C1158 1.432 . S
C1127 H1113 0.930 . S
C1127 C1124 1.407 . S
C1127 C1125 1.345 . S
C1128 N1123 1.360 . S
C1128 C1126 1.417 . S
C1128 C1132 1.432 . S
H1129 C1134 0.930 . S
N1130 Tb1092 2.600 . S
N1130 C1132 1.359 . S
N1130 C1133 1.327 . S
C1131 H1117 0.931 . S
C1131 C1133 1.392 . S
C1131 C1134 1.370 . S
C1132 C1128 1.432 . S
C1132 N1130 1.359 . S
C1132 C1135 1.414 . S
C1133 H1115 0.930 . S
C1133 N1130 1.327 . S
C1133 C1131 1.392 . S
C1134 H1129 0.930 . S
C1134 C1131 1.370 . S
C1134 C1135 1.385 . S
C1135 C1132 1.414 . S
C1135 C1134 1.385 . S
C1135 C1157 1.444 . S
O1136 Tb1092 2.546 . S
O1136 C1156 1.251 . S
O1137 Tb1092 2.610 . S
O1137 Tb1103 2.362 . S
O1137 C1148 1.283 . S
O1138 Tb1103 2.421 . S
O1138 C1155 1.262 . S
O1139 Tb1092 2.320 . S
O1139 C1155 1.260 . S
O1140 Tb1092 2.552 . S
O1140 C1148 1.243 . S
O1141 Tb1092 2.413 . S
O1141 C1156 1.256 . S
O1142 Tb1103 2.546 . S
O1142 C1167 1.251 . S
O1143 Tb1092 2.362 . S
O1143 Tb1103 2.610 . S
O1143 C1159 1.283 . S
O1144 Tb1092 2.421 . S
O1144 C1166 1.262 . S
O1145 Tb1103 2.320 . S
O1145 C1166 1.260 . S
O1146 Tb1103 2.552 . S
O1146 C1159 1.243 . S
O1147 Tb1103 2.413 . S
O1147 C1167 1.256 . S
C1148 O1137 1.283 . S
C1148 O1140 1.243 . S
C1149 C1151 1.382 . S
C1149 C1153 1.393 . S
C1149 C1156 1.500 . S
C1150 C1151 1.400 . S
C1150 C1152 1.384 . S
C1151 C1149 1.382 . S
C1151 C1150 1.400 . S
C1151 H1168 0.930 . S
C1152 C1150 1.384 . S
C1152 C1154 1.392 . S
C1152 H1169 0.931 . S
C1153 C1149 1.393 . S
C1153 C1154 1.401 . S
C1153 H1170 0.930 . S
C1154 C1152 1.392 . S
C1154 C1153 1.401 . S
C1154 H1171 0.930 . S
C1155 O1138 1.262 . S
C1155 O1139 1.260 . S
C1156 Tb1092 2.833 . S
C1156 O1136 1.251 . S
C1156 O1141 1.256 . S
C1156 C1149 1.500 . S
C1157 H1122 0.929 . S
C1157 C1135 1.444 . S
C1157 C1158 1.317 . S
C1158 H1120 0.930 . S
C1158 C1126 1.432 . S
C1158 C1157 1.317 . S
C1159 O1143 1.283 . S
C1159 O1146 1.243 . S
C1160 C1161 1.382 . S
C1160 C1164 1.393 . S
C1160 C1167 1.500 . S
C1161 C1160 1.382 . S
C1161 C1162 1.400 . S
C1161 H1172 0.930 . S
C1162 C1161 1.400 . S
C1162 C1163 1.384 . S
C1163 C1162 1.384 . S
C1163 C1165 1.392 . S
C1163 H1173 0.931 . S
C1164 C1160 1.393 . S
C1164 C1165 1.401 . S
C1164 H1174 0.930 . S
C1165 C1163 1.392 . S
C1165 C1164 1.401 . S
C1165 H1175 0.930 . S
C1166 O1144 1.262 . S
C1166 O1145 1.260 . S
C1167 Tb1103 2.833 . S
C1167 O1142 1.251 . S
C1167 O1147 1.256 . S
C1167 C1160 1.500 . S
H1168 C1151 0.930 . S
H1169 C1152 0.931 . S
H1170 C1153 0.930 . S
H1171 C1154 0.930 . S
H1172 C1161 0.930 . S
H1173 C1163 0.931 . S
H1174 C1164 0.930 . S
H1175 C1165 0.930 . S
Tb1176 N1207 2.660 . S
Tb1176 N1214 2.600 . S
Tb1176 O1220 2.546 . S
Tb1176 O1221 2.610 . S
Tb1176 O1223 2.320 . S
Tb1176 O1224 2.552 . S
Tb1176 O1225 2.413 . S
Tb1176 O1227 2.362 . S
Tb1176 O1228 2.421 . S
Tb1176 C1240 2.833 . S
C1177 C1180 1.432 . S
C1177 C1181 1.414 . S
C1177 N1184 1.359 . S
C1178 C1180 1.417 . S
C1178 C1182 1.432 1_655 S
C1178 C1190 1.410 1_655 S
C1179 C1181 1.444 1_455 S
C1179 C1182 1.317 . S
C1179 H1202 0.929 . S
C1180 C1177 1.432 . S
C1180 C1178 1.417 . S
C1180 N1188 1.360 . S
C1181 C1177 1.414 . S
C1181 C1179 1.444 1_655 S
C1181 C1186 1.385 . S
C1182 C1178 1.432 1_455 S
C1182 C1179 1.317 . S
C1182 H1194 0.930 . S
C1183 C1185 1.392 . S
C1183 C1186 1.370 . S
C1183 H1195 0.931 . S
N1184 C1177 1.359 . S
N1184 C1185 1.327 . S
N1184 Tb1187 2.600 . S
C1185 C1183 1.392 . S
C1185 N1184 1.327 . S
C1185 H1192 0.930 . S
C1186 C1181 1.385 . S
C1186 C1183 1.370 . S
C1186 H1205 0.930 . S
Tb1187 N1184 2.600 . S
Tb1187 N1188 2.660 . S
Tb1187 O1221 2.362 . S
Tb1187 O1222 2.421 . S
Tb1187 O1226 2.546 . S
Tb1187 O1227 2.610 . S
Tb1187 O1229 2.320 . S
Tb1187 O1230 2.552 . S
Tb1187 O1231 2.413 . S
Tb1187 C1251 2.833 . S
N1188 C1180 1.360 . S
N1188 Tb1187 2.660 . S
N1188 C1189 1.305 . S
C1189 N1188 1.305 . S
C1189 C1191 1.407 . S
C1189 H1196 0.930 . S
C1190 C1178 1.410 1_455 S
C1190 C1191 1.345 1_455 S
C1190 H1198 0.930 . S
C1191 C1189 1.407 . S
C1191 C1190 1.345 1_655 S
C1191 H1193 0.930 . S
H1192 C1185 0.930 . S
H1193 C1191 0.930 . S
H1194 C1182 0.930 . S
H1195 C1183 0.931 . S
H1196 C1189 0.930 . S
H1197 C1211 0.930 . S
H1198 C1190 0.930 . S
H1199 C1217 0.930 . S
H1200 C1208 0.930 . S
H1201 C1215 0.931 . S
H1202 C1179 0.929 . S
H1203 C1209 0.930 . S
H1204 C1242 0.930 . S
H1205 C1186 0.930 . S
H1206 C1241 0.929 . S
N1207 Tb1176 2.660 . S
N1207 C1208 1.305 . S
N1207 C1212 1.360 . S
C1208 H1200 0.930 . S
C1208 N1207 1.305 . S
C1208 C1211 1.407 . S
C1209 H1203 0.930 . S
C1209 C1210 1.410 . S
C1209 C1211 1.345 . S
C1210 C1209 1.410 . S
C1210 C1212 1.417 . S
C1210 C1242 1.432 . S
C1211 H1197 0.930 . S
C1211 C1208 1.407 . S
C1211 C1209 1.345 . S
C1212 N1207 1.360 . S
C1212 C1210 1.417 . S
C1212 C1216 1.432 . S
H1213 C1218 0.930 . S
N1214 Tb1176 2.600 . S
N1214 C1216 1.359 . S
N1214 C1217 1.327 . S
C1215 H1201 0.931 . S
C1215 C1217 1.392 . S
C1215 C1218 1.370 . S
C1216 C1212 1.432 . S
C1216 N1214 1.359 . S
C1216 C1219 1.414 . S
C1217 H1199 0.930 . S
C1217 N1214 1.327 . S
C1217 C1215 1.392 . S
C1218 H1213 0.930 . S
C1218 C1215 1.370 . S
C1218 C1219 1.385 . S
C1219 C1216 1.414 . S
C1219 C1218 1.385 . S
C1219 C1241 1.444 . S
O1220 Tb1176 2.546 . S
O1220 C1240 1.251 . S
O1221 Tb1176 2.610 . S
O1221 Tb1187 2.362 . S
O1221 C1232 1.283 . S
O1222 Tb1187 2.421 . S
O1222 C1239 1.262 . S
O1223 Tb1176 2.320 . S
O1223 C1239 1.260 . S
O1224 Tb1176 2.552 . S
O1224 C1232 1.243 . S
O1225 Tb1176 2.413 . S
O1225 C1240 1.256 . S
O1226 Tb1187 2.546 . S
O1226 C1251 1.251 . S
O1227 Tb1176 2.362 . S
O1227 Tb1187 2.610 . S
O1227 C1243 1.283 . S
O1228 Tb1176 2.421 . S
O1228 C1250 1.262 . S
O1229 Tb1187 2.320 . S
O1229 C1250 1.260 . S
O1230 Tb1187 2.552 . S
O1230 C1243 1.243 . S
O1231 Tb1187 2.413 . S
O1231 C1251 1.256 . S
C1232 O1221 1.283 . S
C1232 O1224 1.243 . S
C1233 C1235 1.382 . S
C1233 C1237 1.393 . S
C1233 C1240 1.500 . S
C1234 C1235 1.400 . S
C1234 C1236 1.384 . S
C1235 C1233 1.382 . S
C1235 C1234 1.400 . S
C1235 H1252 0.930 . S
C1236 C1234 1.384 . S
C1236 C1238 1.392 . S
C1236 H1253 0.931 . S
C1237 C1233 1.393 . S
C1237 C1238 1.401 . S
C1237 H1254 0.930 . S
C1238 C1236 1.392 . S
C1238 C1237 1.401 . S
C1238 H1255 0.930 . S
C1239 O1222 1.262 . S
C1239 O1223 1.260 . S
C1240 Tb1176 2.833 . S
C1240 O1220 1.251 . S
C1240 O1225 1.256 . S
C1240 C1233 1.500 . S
C1241 H1206 0.929 . S
C1241 C1219 1.444 . S
C1241 C1242 1.317 . S
C1242 H1204 0.930 . S
C1242 C1210 1.432 . S
C1242 C1241 1.317 . S
C1243 O1227 1.283 . S
C1243 O1230 1.243 . S
C1244 C1245 1.382 . S
C1244 C1248 1.393 . S
C1244 C1251 1.500 . S
C1245 C1244 1.382 . S
C1245 C1246 1.400 . S
C1245 H1256 0.930 . S
C1246 C1245 1.400 . S
C1246 C1247 1.384 . S
C1247 C1246 1.384 . S
C1247 C1249 1.392 . S
C1247 H1257 0.931 . S
C1248 C1244 1.393 . S
C1248 C1249 1.401 . S
C1248 H1258 0.930 . S
C1249 C1247 1.392 . S
C1249 C1248 1.401 . S
C1249 H1259 0.930 . S
C1250 O1228 1.262 . S
C1250 O1229 1.260 . S
C1251 Tb1187 2.833 . S
C1251 O1226 1.251 . S
C1251 O1231 1.256 . S
C1251 C1244 1.500 . S
H1252 C1235 0.930 . S
H1253 C1236 0.931 . S
H1254 C1237 0.930 . S
H1255 C1238 0.930 . S
H1256 C1245 0.930 . S
H1257 C1247 0.931 . S
H1258 C1248 0.930 . S
H1259 C1249 0.930 . S
Tb1260 N1291 2.660 . S
Tb1260 N1298 2.600 . S
Tb1260 O1304 2.546 . S
Tb1260 O1305 2.610 . S
Tb1260 O1307 2.320 . S
Tb1260 O1308 2.552 . S
Tb1260 O1309 2.413 . S
Tb1260 O1311 2.362 . S
Tb1260 O1312 2.421 . S
Tb1260 C1324 2.833 . S
C1261 C1264 1.432 . S
C1261 C1265 1.414 . S
C1261 N1268 1.359 . S
C1262 C1264 1.417 . S
C1262 C1266 1.432 . S
C1262 C1274 1.410 . S
C1263 C1265 1.444 . S
C1263 C1266 1.317 . S
C1263 H1286 0.929 . S
C1264 C1261 1.432 . S
C1264 C1262 1.417 . S
C1264 N1272 1.360 . S
C1265 C1261 1.414 . S
C1265 C1263 1.444 . S
C1265 C1270 1.385 . S
C1266 C1262 1.432 . S
C1266 C1263 1.317 . S
C1266 H1278 0.930 . S
C1267 C1269 1.392 . S
C1267 C1270 1.370 . S
C1267 H1279 0.931 . S
N1268 C1261 1.359 . S
N1268 C1269 1.327 . S
N1268 Tb1271 2.600 . S
C1269 C1267 1.392 . S
C1269 N1268 1.327 . S
C1269 H1276 0.930 . S
C1270 C1265 1.385 . S
C1270 C1267 1.370 . S
C1270 H1289 0.930 . S
Tb1271 N1268 2.600 . S
Tb1271 N1272 2.660 . S
Tb1271 O1305 2.362 . S
Tb1271 O1306 2.421 . S
Tb1271 O1310 2.546 . S
Tb1271 O1311 2.610 . S
Tb1271 O1313 2.320 . S
Tb1271 O1314 2.552 . S
Tb1271 O1315 2.413 . S
Tb1271 C1335 2.833 . S
N1272 C1264 1.360 . S
N1272 Tb1271 2.660 . S
N1272 C1273 1.305 . S
C1273 N1272 1.305 . S
C1273 C1275 1.407 . S
C1273 H1280 0.930 . S
C1274 C1262 1.410 . S
C1274 C1275 1.345 . S
C1274 H1282 0.930 . S
C1275 C1273 1.407 . S
C1275 C1274 1.345 . S
C1275 H1277 0.930 . S
H1276 C1269 0.930 . S
H1277 C1275 0.930 . S
H1278 C1266 0.930 . S
H1279 C1267 0.931 . S
H1280 C1273 0.930 . S
H1281 C1295 0.930 . S
H1282 C1274 0.930 . S
H1283 C1301 0.930 . S
H1284 C1292 0.930 . S
H1285 C1299 0.931 . S
H1286 C1263 0.929 . S
H1287 C1293 0.930 . S
H1288 C1326 0.930 . S
H1289 C1270 0.930 . S
H1290 C1325 0.929 . S
N1291 Tb1260 2.660 . S
N1291 C1292 1.305 . S
N1291 C1296 1.360 . S
C1292 H1284 0.930 . S
C1292 N1291 1.305 . S
C1292 C1295 1.407 . S
C1293 H1287 0.930 . S
C1293 C1294 1.410 . S
C1293 C1295 1.345 . S
C1294 C1293 1.410 . S
C1294 C1296 1.417 . S
C1294 C1326 1.432 . S
C1295 H1281 0.930 . S
C1295 C1292 1.407 . S
C1295 C1293 1.345 . S
C1296 N1291 1.360 . S
C1296 C1294 1.417 . S
C1296 C1300 1.432 . S
H1297 C1302 0.930 . S
N1298 Tb1260 2.600 . S
N1298 C1300 1.359 . S
N1298 C1301 1.327 . S
C1299 H1285 0.931 . S
C1299 C1301 1.392 . S
C1299 C1302 1.370 . S
C1300 C1296 1.432 . S
C1300 N1298 1.359 . S
C1300 C1303 1.414 . S
C1301 H1283 0.930 . S
C1301 N1298 1.327 . S
C1301 C1299 1.392 . S
C1302 H1297 0.930 . S
C1302 C1299 1.370 . S
C1302 C1303 1.385 . S
C1303 C1300 1.414 . S
C1303 C1302 1.385 . S
C1303 C1325 1.444 . S
O1304 Tb1260 2.546 . S
O1304 C1324 1.251 . S
O1305 Tb1260 2.610 . S
O1305 Tb1271 2.362 . S
O1305 C1316 1.283 . S
O1306 Tb1271 2.421 . S
O1306 C1323 1.262 . S
O1307 Tb1260 2.320 . S
O1307 C1323 1.260 . S
O1308 Tb1260 2.552 . S
O1308 C1316 1.243 . S
O1309 Tb1260 2.413 . S
O1309 C1324 1.256 . S
O1310 Tb1271 2.546 . S
O1310 C1335 1.251 . S
O1311 Tb1260 2.362 . S
O1311 Tb1271 2.610 . S
O1311 C1327 1.283 . S
O1312 Tb1260 2.421 . S
O1312 C1334 1.262 . S
O1313 Tb1271 2.320 . S
O1313 C1334 1.260 . S
O1314 Tb1271 2.552 . S
O1314 C1327 1.243 . S
O1315 Tb1271 2.413 . S
O1315 C1335 1.256 . S
C1316 O1305 1.283 . S
C1316 O1308 1.243 . S
C1317 C1319 1.382 . S
C1317 C1321 1.393 . S
C1317 C1324 1.500 . S
C1318 C1319 1.400 . S
C1318 C1320 1.384 . S
C1319 C1317 1.382 . S
C1319 C1318 1.400 . S
C1319 H1336 0.930 . S
C1320 C1318 1.384 . S
C1320 C1322 1.392 . S
C1320 H1337 0.931 . S
C1321 C1317 1.393 . S
C1321 C1322 1.401 . S
C1321 H1338 0.930 . S
C1322 C1320 1.392 . S
C1322 C1321 1.401 . S
C1322 H1339 0.930 . S
C1323 O1306 1.262 . S
C1323 O1307 1.260 . S
C1324 Tb1260 2.833 . S
C1324 O1304 1.251 . S
C1324 O1309 1.256 . S
C1324 C1317 1.500 . S
C1325 H1290 0.929 . S
C1325 C1303 1.444 . S
C1325 C1326 1.317 . S
C1326 H1288 0.930 . S
C1326 C1294 1.432 . S
C1326 C1325 1.317 . S
C1327 O1311 1.283 . S
C1327 O1314 1.243 . S
C1328 C1329 1.382 . S
C1328 C1332 1.393 . S
C1328 C1335 1.500 . S
C1329 C1328 1.382 . S
C1329 C1330 1.400 . S
C1329 H1340 0.930 . S
C1330 C1329 1.400 . S
C1330 C1331 1.384 1_545 S
C1331 C1330 1.384 1_565 S
C1331 C1333 1.392 . S
C1331 H1341 0.931 . S
C1332 C1328 1.393 . S
C1332 C1333 1.401 1_545 S
C1332 H1342 0.930 . S
C1333 C1331 1.392 . S
C1333 C1332 1.401 1_565 S
C1333 H1343 0.930 . S
C1334 O1312 1.262 . S
C1334 O1313 1.260 . S
C1335 Tb1271 2.833 . S
C1335 O1310 1.251 . S
C1335 O1315 1.256 . S
C1335 C1328 1.500 . S
H1336 C1319 0.930 . S
H1337 C1320 0.931 . S
H1338 C1321 0.930 . S
H1339 C1322 0.930 . S
H1340 C1329 0.930 . S
H1341 C1331 0.931 . S
H1342 C1332 0.930 . S
H1343 C1333 0.930 . S
Tb1344 N1375 2.660 . S
Tb1344 N1382 2.600 . S
Tb1344 O1388 2.546 . S
Tb1344 O1389 2.610 . S
Tb1344 O1391 2.320 . S
Tb1344 O1392 2.552 . S
Tb1344 O1393 2.413 . S
Tb1344 O1395 2.362 . S
Tb1344 O1396 2.421 . S
Tb1344 C1408 2.833 . S
C1345 C1348 1.432 . S
C1345 C1349 1.414 . S
C1345 N1352 1.359 . S
C1346 C1348 1.417 . S
C1346 C1350 1.432 . S
C1346 C1358 1.410 . S
C1347 C1349 1.444 . S
C1347 C1350 1.317 . S
C1347 H1370 0.929 1_655 S
C1348 C1345 1.432 . S
C1348 C1346 1.417 . S
C1348 N1356 1.360 . S
C1349 C1345 1.414 . S
C1349 C1347 1.444 . S
C1349 C1354 1.385 . S
C1350 C1346 1.432 . S
C1350 C1347 1.317 . S
C1350 H1362 0.930 1_655 S
C1351 C1353 1.392 . S
C1351 C1354 1.370 . S
C1351 H1363 0.931 . S
N1352 C1345 1.359 . S
N1352 C1353 1.327 . S
N1352 Tb1355 2.600 . S
C1353 C1351 1.392 . S
C1353 N1352 1.327 . S
C1353 H1360 0.930 . S
C1354 C1349 1.385 . S
C1354 C1351 1.370 . S
C1354 H1373 0.930 . S
Tb1355 N1352 2.600 . S
Tb1355 N1356 2.660 . S
Tb1355 O1389 2.362 . S
Tb1355 O1390 2.421 . S
Tb1355 O1394 2.546 . S
Tb1355 O1395 2.610 . S
Tb1355 O1397 2.320 . S
Tb1355 O1398 2.552 . S
Tb1355 O1399 2.413 . S
Tb1355 C1419 2.833 . S
N1356 C1348 1.360 . S
N1356 Tb1355 2.660 . S
N1356 C1357 1.305 . S
C1357 N1356 1.305 . S
C1357 C1359 1.407 . S
C1357 H1364 0.930 . S
C1358 C1346 1.410 . S
C1358 C1359 1.345 . S
C1358 H1366 0.930 . S
C1359 C1357 1.407 . S
C1359 C1358 1.345 . S
C1359 H1361 0.930 . S
H1360 C1353 0.930 . S
H1361 C1359 0.930 . S
H1362 C1350 0.930 1_455 S
H1363 C1351 0.931 . S
H1364 C1357 0.930 . S
H1365 C1379 0.930 . S
H1366 C1358 0.930 . S
H1367 C1385 0.930 . S
H1368 C1376 0.930 . S
H1369 C1383 0.931 . S
H1370 C1347 0.929 1_455 S
H1371 C1377 0.930 . S
H1372 C1410 0.930 . S
H1373 C1354 0.930 . S
H1374 C1409 0.929 . S
N1375 Tb1344 2.660 . S
N1375 C1376 1.305 . S
N1375 C1380 1.360 . S
C1376 H1368 0.930 . S
C1376 N1375 1.305 . S
C1376 C1379 1.407 . S
C1377 H1371 0.930 . S
C1377 C1378 1.410 . S
C1377 C1379 1.345 . S
C1378 C1377 1.410 . S
C1378 C1380 1.417 . S
C1378 C1410 1.432 . S
C1379 H1365 0.930 . S
C1379 C1376 1.407 . S
C1379 C1377 1.345 . S
C1380 N1375 1.360 . S
C1380 C1378 1.417 . S
C1380 C1384 1.432 . S
H1381 C1386 0.930 . S
N1382 Tb1344 2.600 . S
N1382 C1384 1.359 . S
N1382 C1385 1.327 . S
C1383 H1369 0.931 . S
C1383 C1385 1.392 . S
C1383 C1386 1.370 . S
C1384 C1380 1.432 . S
C1384 N1382 1.359 . S
C1384 C1387 1.414 . S
C1385 H1367 0.930 . S
C1385 N1382 1.327 . S
C1385 C1383 1.392 . S
C1386 H1381 0.930 . S
C1386 C1383 1.370 . S
C1386 C1387 1.385 . S
C1387 C1384 1.414 . S
C1387 C1386 1.385 . S
C1387 C1409 1.444 . S
O1388 Tb1344 2.546 . S
O1388 C1408 1.251 . S
O1389 Tb1344 2.610 . S
O1389 Tb1355 2.362 . S
O1389 C1400 1.283 . S
O1390 Tb1355 2.421 . S
O1390 C1407 1.262 . S
O1391 Tb1344 2.320 . S
O1391 C1407 1.260 . S
O1392 Tb1344 2.552 . S
O1392 C1400 1.243 . S
O1393 Tb1344 2.413 . S
O1393 C1408 1.256 . S
O1394 Tb1355 2.546 . S
O1394 C1419 1.251 . S
O1395 Tb1344 2.362 . S
O1395 Tb1355 2.610 . S
O1395 C1411 1.283 . S
O1396 Tb1344 2.421 . S
O1396 C1418 1.262 . S
O1397 Tb1355 2.320 . S
O1397 C1418 1.260 . S
O1398 Tb1355 2.552 . S
O1398 C1411 1.243 . S
O1399 Tb1355 2.413 . S
O1399 C1419 1.256 . S
C1400 O1389 1.283 . S
C1400 O1392 1.243 . S
C1401 C1403 1.382 . S
C1401 C1405 1.393 . S
C1401 C1408 1.500 . S
C1402 C1403 1.400 . S
C1402 C1404 1.384 . S
C1403 C1401 1.382 . S
C1403 C1402 1.400 . S
C1403 H1420 0.930 . S
C1404 C1402 1.384 . S
C1404 C1406 1.392 . S
C1404 H1421 0.931 . S
C1405 C1401 1.393 . S
C1405 C1406 1.401 . S
C1405 H1422 0.930 . S
C1406 C1404 1.392 . S
C1406 C1405 1.401 . S
C1406 H1423 0.930 . S
C1407 O1390 1.262 . S
C1407 O1391 1.260 . S
C1408 Tb1344 2.833 . S
C1408 O1388 1.251 . S
C1408 O1393 1.256 . S
C1408 C1401 1.500 . S
C1409 H1374 0.929 . S
C1409 C1387 1.444 . S
C1409 C1410 1.317 . S
C1410 H1372 0.930 . S
C1410 C1378 1.432 . S
C1410 C1409 1.317 . S
C1411 O1395 1.283 . S
C1411 O1398 1.243 . S
C1412 C1413 1.382 . S
C1412 C1416 1.393 . S
C1412 C1419 1.500 1_455 S
C1413 C1412 1.382 . S
C1413 C1414 1.400 . S
C1413 H1424 0.930 . S
C1414 C1413 1.400 . S
C1414 C1415 1.384 . S
C1415 C1414 1.384 . S
C1415 C1417 1.392 . S
C1415 H1425 0.931 . S
C1416 C1412 1.393 . S
C1416 C1417 1.401 . S
C1416 H1426 0.930 . S
C1417 C1415 1.392 . S
C1417 C1416 1.401 . S
C1417 H1427 0.930 . S
C1418 O1396 1.262 . S
C1418 O1397 1.260 . S
C1419 Tb1355 2.833 . S
C1419 O1394 1.251 . S
C1419 O1399 1.256 . S
C1419 C1412 1.500 1_655 S
H1420 C1403 0.930 . S
H1421 C1404 0.931 . S
H1422 C1405 0.930 . S
H1423 C1406 0.930 . S
H1424 C1413 0.930 . S
H1425 C1415 0.931 . S
H1426 C1416 0.930 . S
H1427 C1417 0.930 . S
Tb1428 N1459 2.660 . S
Tb1428 N1466 2.600 . S
Tb1428 O1472 2.546 . S
Tb1428 O1473 2.610 . S
Tb1428 O1475 2.320 . S
Tb1428 O1476 2.552 . S
Tb1428 O1477 2.413 . S
Tb1428 O1479 2.362 . S
Tb1428 O1480 2.421 . S
Tb1428 C1492 2.833 . S
C1429 C1432 1.432 . S
C1429 C1433 1.414 . S
C1429 N1436 1.359 . S
C1430 C1432 1.417 . S
C1430 C1434 1.432 . S
C1430 C1442 1.410 . S
C1431 C1433 1.444 . S
C1431 C1434 1.317 . S
C1431 H1454 0.929 . S
C1432 C1429 1.432 . S
C1432 C1430 1.417 . S
C1432 N1440 1.360 . S
C1433 C1429 1.414 . S
C1433 C1431 1.444 . S
C1433 C1438 1.385 . S
C1434 C1430 1.432 . S
C1434 C1431 1.317 . S
C1434 H1446 0.930 . S
C1435 C1437 1.392 . S
C1435 C1438 1.370 . S
C1435 H1447 0.931 . S
N1436 C1429 1.359 . S
N1436 C1437 1.327 . S
N1436 Tb1439 2.600 . S
C1437 C1435 1.392 . S
C1437 N1436 1.327 . S
C1437 H1444 0.930 . S
C1438 C1433 1.385 . S
C1438 C1435 1.370 . S
C1438 H1457 0.930 . S
Tb1439 N1436 2.600 . S
Tb1439 N1440 2.660 . S
Tb1439 O1473 2.362 . S
Tb1439 O1474 2.421 . S
Tb1439 O1478 2.546 . S
Tb1439 O1479 2.610 . S
Tb1439 O1481 2.320 . S
Tb1439 O1482 2.552 . S
Tb1439 O1483 2.413 . S
Tb1439 C1503 2.833 . S
N1440 C1432 1.360 . S
N1440 Tb1439 2.660 . S
N1440 C1441 1.305 . S
C1441 N1440 1.305 . S
C1441 C1443 1.407 . S
C1441 H1448 0.930 . S
C1442 C1430 1.410 . S
C1442 C1443 1.345 . S
C1442 H1450 0.930 . S
C1443 C1441 1.407 . S
C1443 C1442 1.345 . S
C1443 H1445 0.930 . S
H1444 C1437 0.930 . S
H1445 C1443 0.930 . S
H1446 C1434 0.930 . S
H1447 C1435 0.931 . S
H1448 C1441 0.930 . S
H1449 C1463 0.930 . S
H1450 C1442 0.930 . S
H1451 C1469 0.930 . S
H1452 C1460 0.930 . S
H1453 C1467 0.931 . S
H1454 C1431 0.929 . S
H1455 C1461 0.930 . S
H1456 C1494 0.930 . S
H1457 C1438 0.930 . S
H1458 C1493 0.929 . S
N1459 Tb1428 2.660 . S
N1459 C1460 1.305 . S
N1459 C1464 1.360 . S
C1460 H1452 0.930 . S
C1460 N1459 1.305 . S
C1460 C1463 1.407 . S
C1461 H1455 0.930 . S
C1461 C1462 1.410 1_455 S
C1461 C1463 1.345 1_455 S
C1462 C1461 1.410 1_655 S
C1462 C1464 1.417 . S
C1462 C1494 1.432 1_655 S
C1463 H1449 0.930 . S
C1463 C1460 1.407 . S
C1463 C1461 1.345 1_655 S
C1464 N1459 1.360 . S
C1464 C1462 1.417 . S
C1464 C1468 1.432 . S
H1465 C1470 0.930 . S
N1466 Tb1428 2.600 . S
N1466 C1468 1.359 . S
N1466 C1469 1.327 . S
C1467 H1453 0.931 . S
C1467 C1469 1.392 . S
C1467 C1470 1.370 . S
C1468 C1464 1.432 . S
C1468 N1466 1.359 . S
C1468 C1471 1.414 . S
C1469 H1451 0.930 . S
C1469 N1466 1.327 . S
C1469 C1467 1.392 . S
C1470 H1465 0.930 . S
C1470 C1467 1.370 . S
C1470 C1471 1.385 . S
C1471 C1468 1.414 . S
C1471 C1470 1.385 . S
C1471 C1493 1.444 1_655 S
O1472 Tb1428 2.546 . S
O1472 C1492 1.251 . S
O1473 Tb1428 2.610 . S
O1473 Tb1439 2.362 . S
O1473 C1484 1.283 . S
O1474 Tb1439 2.421 . S
O1474 C1491 1.262 . S
O1475 Tb1428 2.320 . S
O1475 C1491 1.260 . S
O1476 Tb1428 2.552 . S
O1476 C1484 1.243 . S
O1477 Tb1428 2.413 . S
O1477 C1492 1.256 . S
O1478 Tb1439 2.546 . S
O1478 C1503 1.251 . S
O1479 Tb1428 2.362 . S
O1479 Tb1439 2.610 . S
O1479 C1495 1.283 . S
O1480 Tb1428 2.421 . S
O1480 C1502 1.262 . S
O1481 Tb1439 2.320 . S
O1481 C1502 1.260 . S
O1482 Tb1439 2.552 . S
O1482 C1495 1.243 . S
O1483 Tb1439 2.413 . S
O1483 C1503 1.256 . S
C1484 O1473 1.283 . S
C1484 O1476 1.243 . S
C1485 C1487 1.382 . S
C1485 C1489 1.393 . S
C1485 C1492 1.500 . S
C1486 C1487 1.400 . S
C1486 C1488 1.384 . S
C1487 C1485 1.382 . S
C1487 C1486 1.400 . S
C1487 H1504 0.930 . S
C1488 C1486 1.384 . S
C1488 C1490 1.392 . S
C1488 H1505 0.931 . S
C1489 C1485 1.393 . S
C1489 C1490 1.401 . S
C1489 H1506 0.930 . S
C1490 C1488 1.392 . S
C1490 C1489 1.401 . S
C1490 H1507 0.930 . S
C1491 O1474 1.262 . S
C1491 O1475 1.260 . S
C1492 Tb1428 2.833 . S
C1492 O1472 1.251 . S
C1492 O1477 1.256 . S
C1492 C1485 1.500 . S
C1493 H1458 0.929 . S
C1493 C1471 1.444 1_455 S
C1493 C1494 1.317 . S
C1494 H1456 0.930 . S
C1494 C1462 1.432 1_455 S
C1494 C1493 1.317 . S
C1495 O1479 1.283 . S
C1495 O1482 1.243 . S
C1496 C1497 1.382 . S
C1496 C1500 1.393 . S
C1496 C1503 1.500 . S
C1497 C1496 1.382 . S
C1497 C1498 1.400 . S
C1497 H1508 0.930 . S
C1498 C1497 1.400 . S
C1498 C1499 1.384 . S
C1499 C1498 1.384 . S
C1499 C1501 1.392 . S
C1499 H1509 0.931 . S
C1500 C1496 1.393 . S
C1500 C1501 1.401 . S
C1500 H1510 0.930 . S
C1501 C1499 1.392 . S
C1501 C1500 1.401 . S
C1501 H1511 0.930 . S
C1502 O1480 1.262 . S
C1502 O1481 1.260 . S
C1503 Tb1439 2.833 . S
C1503 O1478 1.251 . S
C1503 O1483 1.256 . S
C1503 C1496 1.500 . S
H1504 C1487 0.930 . S
H1505 C1488 0.931 . S
H1506 C1489 0.930 . S
H1507 C1490 0.930 . S
H1508 C1497 0.930 . S
H1509 C1499 0.931 . S
H1510 C1500 0.930 . S
H1511 C1501 0.930 . S
H1512 C1520 0.929 . S
H1513 C1522 0.930 . S
H1514 C1524 0.930 . S
H1515 C1527 0.929 . S
H1516 C1530 0.930 . S
H1517 C1532 0.960 . S
H1518 C1532 0.960 . S
H1519 C1532 0.960 . S
C1520 H1512 0.929 . S
C1520 C1521 1.377 . S
C1520 C1522 1.384 . S
C1521 C1520 1.377 . S
C1521 C1527 1.390 . S
C1522 H1513 0.930 . S
C1522 C1520 1.384 . S
C1522 C1523 1.372 . S
C1523 C1522 1.372 . S
C1523 C1524 1.400 . S
C1523 C1528 1.490 . S
C1524 H1514 0.930 . S
C1524 C1523 1.400 . S
C1524 C1527 1.386 . S
H1525 C1541 0.930 . S
H1526 C1542 0.931 . S
C1527 H1515 0.929 . S
C1527 C1521 1.390 . S
C1527 C1524 1.386 . S
C1528 C1523 1.490 . S
C1528 C1530 1.395 . S
C1528 C1531 1.403 . S
H1529 C1535 0.930 . S
C1530 H1516 0.930 . S
C1530 C1528 1.395 . S
C1530 C1533 1.403 . S
C1531 C1528 1.403 . S
C1531 C1532 1.524 . S
C1531 C1535 1.400 . S
C1532 H1517 0.960 . S
C1532 H1518 0.960 . S
C1532 H1519 0.960 . S
C1532 C1531 1.524 . S
C1533 C1530 1.403 . S
C1533 C1534 1.392 . S
C1533 C1537 1.495 . S
C1534 C1533 1.392 . S
C1534 C1535 1.385 . S
C1534 C1536 1.478 . S
C1535 H1529 0.930 . S
C1535 C1531 1.400 . S
C1535 C1534 1.385 . S
C1536 C1534 1.478 . S
C1536 C1538 1.381 . S
C1536 C1542 1.383 . S
C1537 C1533 1.495 . S
C1537 H1543 0.959 . S
C1537 H1544 0.961 . S
C1537 H1545 0.960 . S
C1538 C1536 1.381 . S
C1538 C1539 1.394 . S
C1538 H1546 0.930 . S
C1539 C1538 1.394 . S
C1539 C1540 1.383 . S
C1539 H1547 0.929 . S
C1540 C1539 1.383 . S
C1540 C1541 1.377 . S
C1541 H1525 0.930 . S
C1541 C1540 1.377 . S
C1541 C1542 1.379 . S
C1542 H1526 0.931 . S
C1542 C1536 1.383 . S
C1542 C1541 1.379 . S
H1543 C1537 0.959 . S
H1544 C1537 0.961 . S
H1545 C1537 0.960 . S
H1546 C1538 0.930 . S
H1547 C1539 0.929 . S
H1548 C1556 0.929 . S
H1549 C1558 0.930 . S
H1550 C1560 0.930 . S
H1551 C1563 0.929 . S
H1552 C1566 0.930 . S
H1553 C1568 0.960 . S
H1554 C1568 0.960 . S
H1555 C1568 0.960 . S
C1556 H1548 0.929 . S
C1556 C1557 1.377 . S
C1556 C1558 1.384 . S
C1557 C1556 1.377 . S
C1557 C1563 1.390 . S
C1558 H1549 0.930 . S
C1558 C1556 1.384 . S
C1558 C1559 1.372 . S
C1559 C1558 1.372 . S
C1559 C1560 1.400 . S
C1559 C1564 1.490 . S
C1560 H1550 0.930 . S
C1560 C1559 1.400 . S
C1560 C1563 1.386 . S
H1561 C1577 0.930 . S
H1562 C1578 0.931 . S
C1563 H1551 0.929 . S
C1563 C1557 1.390 . S
C1563 C1560 1.386 . S
C1564 C1559 1.490 . S
C1564 C1566 1.395 . S
C1564 C1567 1.403 . S
H1565 C1571 0.930 . S
C1566 H1552 0.930 . S
C1566 C1564 1.395 . S
C1566 C1569 1.403 . S
C1567 C1564 1.403 . S
C1567 C1568 1.524 . S
C1567 C1571 1.400 . S
C1568 H1553 0.960 . S
C1568 H1554 0.960 . S
C1568 H1555 0.960 . S
C1568 C1567 1.524 . S
C1569 C1566 1.403 . S
C1569 C1570 1.392 . S
C1569 C1573 1.495 . S
C1570 C1569 1.392 . S
C1570 C1571 1.385 . S
C1570 C1572 1.478 . S
C1571 H1565 0.930 . S
C1571 C1567 1.400 . S
C1571 C1570 1.385 . S
C1572 C1570 1.478 . S
C1572 C1574 1.381 . S
C1572 C1578 1.383 . S
C1573 C1569 1.495 . S
C1573 H1579 0.959 . S
C1573 H1580 0.961 . S
C1573 H1581 0.960 . S
C1574 C1572 1.381 . S
C1574 C1575 1.394 . S
C1574 H1582 0.930 . S
C1575 C1574 1.394 . S
C1575 C1576 1.383 . S
C1575 H1583 0.929 . S
C1576 C1575 1.383 . S
C1576 C1577 1.377 . S
C1577 H1561 0.930 . S
C1577 C1576 1.377 . S
C1577 C1578 1.379 . S
C1578 H1562 0.931 . S
C1578 C1572 1.383 . S
C1578 C1577 1.379 . S
H1579 C1573 0.959 . S
H1580 C1573 0.961 . S
H1581 C1573 0.960 . S
H1582 C1574 0.930 . S
H1583 C1575 0.929 . S
H1584 C1592 0.929 . S
H1585 C1594 0.930 . S
H1586 C1596 0.930 . S
H1587 C1599 0.929 . S
H1588 C1602 0.930 . S
H1589 C1604 0.960 . S
H1590 C1604 0.960 . S
H1591 C1604 0.960 . S
C1592 H1584 0.929 . S
C1592 C1593 1.377 . S
C1592 C1594 1.384 . S
C1593 C1592 1.377 . S
C1593 C1599 1.390 . S
C1594 H1585 0.930 . S
C1594 C1592 1.384 . S
C1594 C1595 1.372 . S
C1595 C1594 1.372 . S
C1595 C1596 1.400 . S
C1595 C1600 1.490 . S
C1596 H1586 0.930 . S
C1596 C1595 1.400 . S
C1596 C1599 1.386 . S
H1597 C1613 0.930 . S
H1598 C1614 0.931 . S
C1599 H1587 0.929 . S
C1599 C1593 1.390 . S
C1599 C1596 1.386 . S
C1600 C1595 1.490 . S
C1600 C1602 1.395 . S
C1600 C1603 1.403 . S
H1601 C1607 0.930 . S
C1602 H1588 0.930 . S
C1602 C1600 1.395 . S
C1602 C1605 1.403 . S
C1603 C1600 1.403 . S
C1603 C1604 1.524 . S
C1603 C1607 1.400 . S
C1604 H1589 0.960 . S
C1604 H1590 0.960 . S
C1604 H1591 0.960 . S
C1604 C1603 1.524 . S
C1605 C1602 1.403 . S
C1605 C1606 1.392 . S
C1605 C1609 1.495 . S
C1606 C1605 1.392 . S
C1606 C1607 1.385 . S
C1606 C1608 1.478 . S
C1607 H1601 0.930 . S
C1607 C1603 1.400 . S
C1607 C1606 1.385 . S
C1608 C1606 1.478 . S
C1608 C1610 1.381 . S
C1608 C1614 1.383 . S
C1609 C1605 1.495 . S
C1609 H1615 0.959 . S
C1609 H1616 0.961 . S
C1609 H1617 0.960 . S
C1610 C1608 1.381 . S
C1610 C1611 1.394 . S
C1610 H1618 0.930 . S
C1611 C1610 1.394 . S
C1611 C1612 1.383 . S
C1611 H1619 0.929 . S
C1612 C1611 1.383 . S
C1612 C1613 1.377 . S
C1613 H1597 0.930 . S
C1613 C1612 1.377 . S
C1613 C1614 1.379 . S
C1614 H1598 0.931 . S
C1614 C1608 1.383 . S
C1614 C1613 1.379 . S
H1615 C1609 0.959 . S
H1616 C1609 0.961 . S
H1617 C1609 0.960 . S
H1618 C1610 0.930 . S
H1619 C1611 0.929 . S
H1620 C1628 0.929 . S
H1621 C1630 0.930 . S
H1622 C1632 0.930 . S
H1623 C1635 0.929 . S
H1624 C1638 0.930 . S
H1625 C1640 0.960 . S
H1626 C1640 0.960 . S
H1627 C1640 0.960 . S
C1628 H1620 0.929 . S
C1628 C1629 1.377 . S
C1628 C1630 1.384 . S
C1629 C1628 1.377 . S
C1629 C1635 1.390 . S
C1630 H1621 0.930 . S
C1630 C1628 1.384 . S
C1630 C1631 1.372 . S
C1631 C1630 1.372 . S
C1631 C1632 1.400 . S
C1631 C1636 1.490 . S
C1632 H1622 0.930 . S
C1632 C1631 1.400 . S
C1632 C1635 1.386 . S
H1633 C1649 0.930 . S
H1634 C1650 0.931 . S
C1635 H1623 0.929 . S
C1635 C1629 1.390 . S
C1635 C1632 1.386 . S
C1636 C1631 1.490 . S
C1636 C1638 1.395 . S
C1636 C1639 1.403 . S
H1637 C1643 0.930 . S
C1638 H1624 0.930 . S
C1638 C1636 1.395 . S
C1638 C1641 1.403 . S
C1639 C1636 1.403 . S
C1639 C1640 1.524 . S
C1639 C1643 1.400 . S
C1640 H1625 0.960 . S
C1640 H1626 0.960 . S
C1640 H1627 0.960 . S
C1640 C1639 1.524 . S
C1641 C1638 1.403 . S
C1641 C1642 1.392 . S
C1641 C1645 1.495 . S
C1642 C1641 1.392 . S
C1642 C1643 1.385 . S
C1642 C1644 1.478 . S
C1643 H1637 0.930 . S
C1643 C1639 1.400 . S
C1643 C1642 1.385 . S
C1644 C1642 1.478 . S
C1644 C1646 1.381 . S
C1644 C1650 1.383 . S
C1645 C1641 1.495 . S
C1645 H1651 0.959 . S
C1645 H1652 0.961 . S
C1645 H1653 0.960 . S
C1646 C1644 1.381 . S
C1646 C1647 1.394 . S
C1646 H1654 0.930 . S
C1647 C1646 1.394 . S
C1647 C1648 1.383 . S
C1647 H1655 0.929 . S
C1648 C1647 1.383 . S
C1648 C1649 1.377 . S
C1649 H1633 0.930 . S
C1649 C1648 1.377 . S
C1649 C1650 1.379 . S
C1650 H1634 0.931 . S
C1650 C1644 1.383 . S
C1650 C1649 1.379 . S
H1651 C1645 0.959 . S
H1652 C1645 0.961 . S
H1653 C1645 0.960 . S
H1654 C1646 0.930 . S
H1655 C1647 0.929 . S
H1656 C1664 0.929 . S
H1657 C1666 0.930 . S
H1658 C1668 0.930 . S
H1659 C1671 0.929 . S
H1660 C1674 0.930 . S
H1661 C1676 0.960 . S
H1662 C1676 0.960 . S
H1663 C1676 0.960 . S
C1664 H1656 0.929 . S
C1664 C1665 1.377 . S
C1664 C1666 1.384 . S
C1665 C1664 1.377 . S
C1665 C1671 1.390 . S
C1666 H1657 0.930 . S
C1666 C1664 1.384 . S
C1666 C1667 1.372 . S
C1667 C1666 1.372 . S
C1667 C1668 1.400 . S
C1667 C1672 1.490 . S
C1668 H1658 0.930 . S
C1668 C1667 1.400 . S
C1668 C1671 1.386 . S
H1669 C1685 0.930 . S
H1670 C1686 0.931 . S
C1671 H1659 0.929 . S
C1671 C1665 1.390 . S
C1671 C1668 1.386 . S
C1672 C1667 1.490 . S
C1672 C1674 1.395 . S
C1672 C1675 1.403 . S
H1673 C1679 0.930 . S
C1674 H1660 0.930 . S
C1674 C1672 1.395 . S
C1674 C1677 1.403 . S
C1675 C1672 1.403 . S
C1675 C1676 1.524 . S
C1675 C1679 1.400 . S
C1676 H1661 0.960 . S
C1676 H1662 0.960 . S
C1676 H1663 0.960 . S
C1676 C1675 1.524 . S
C1677 C1674 1.403 . S
C1677 C1678 1.392 . S
C1677 C1681 1.495 . S
C1678 C1677 1.392 . S
C1678 C1679 1.385 . S
C1678 C1680 1.478 . S
C1679 H1673 0.930 . S
C1679 C1675 1.400 . S
C1679 C1678 1.385 . S
C1680 C1678 1.478 . S
C1680 C1682 1.381 . S
C1680 C1686 1.383 . S
C1681 C1677 1.495 . S
C1681 H1687 0.959 . S
C1681 H1688 0.961 . S
C1681 H1689 0.960 . S
C1682 C1680 1.381 . S
C1682 C1683 1.394 . S
C1682 H1690 0.930 . S
C1683 C1682 1.394 . S
C1683 C1684 1.383 . S
C1683 H1691 0.929 . S
C1684 C1683 1.383 . S
C1684 C1685 1.377 . S
C1685 H1669 0.930 . S
C1685 C1684 1.377 . S
C1685 C1686 1.379 . S
C1686 H1670 0.931 . S
C1686 C1680 1.383 . S
C1686 C1685 1.379 . S
H1687 C1681 0.959 . S
H1688 C1681 0.961 . S
H1689 C1681 0.960 . S
H1690 C1682 0.930 . S
H1691 C1683 0.929 . S
H1692 C1700 0.929 . S
H1693 C1702 0.930 . S
H1694 C1704 0.930 . S
H1695 C1707 0.929 . S
H1696 C1710 0.930 . S
H1697 C1712 0.960 . S
H1698 C1712 0.960 . S
H1699 C1712 0.960 . S
C1700 H1692 0.929 . S
C1700 C1701 1.377 . S
C1700 C1702 1.384 . S
C1701 C1700 1.377 . S
C1701 C1707 1.390 . S
C1702 H1693 0.930 . S
C1702 C1700 1.384 . S
C1702 C1703 1.372 . S
C1703 C1702 1.372 . S
C1703 C1704 1.400 . S
C1703 C1708 1.490 . S
C1704 H1694 0.930 . S
C1704 C1703 1.400 . S
C1704 C1707 1.386 . S
H1705 C1721 0.930 . S
H1706 C1722 0.931 . S
C1707 H1695 0.929 . S
C1707 C1701 1.390 . S
C1707 C1704 1.386 . S
C1708 C1703 1.490 . S
C1708 C1710 1.395 . S
C1708 C1711 1.403 . S
H1709 C1715 0.930 . S
C1710 H1696 0.930 . S
C1710 C1708 1.395 . S
C1710 C1713 1.403 . S
C1711 C1708 1.403 . S
C1711 C1712 1.524 . S
C1711 C1715 1.400 . S
C1712 H1697 0.960 . S
C1712 H1698 0.960 . S
C1712 H1699 0.960 . S
C1712 C1711 1.524 . S
C1713 C1710 1.403 . S
C1713 C1714 1.392 . S
C1713 C1717 1.495 . S
C1714 C1713 1.392 . S
C1714 C1715 1.385 . S
C1714 C1716 1.478 . S
C1715 H1709 0.930 . S
C1715 C1711 1.400 . S
C1715 C1714 1.385 . S
C1716 C1714 1.478 . S
C1716 C1718 1.381 . S
C1716 C1722 1.383 . S
C1717 C1713 1.495 . S
C1717 H1723 0.959 . S
C1717 H1724 0.961 . S
C1717 H1725 0.960 . S
C1718 C1716 1.381 . S
C1718 C1719 1.394 . S
C1718 H1726 0.930 . S
C1719 C1718 1.394 . S
C1719 C1720 1.383 . S
C1719 H1727 0.929 . S
C1720 C1719 1.383 . S
C1720 C1721 1.377 . S
C1721 H1705 0.930 . S
C1721 C1720 1.377 . S
C1721 C1722 1.379 . S
C1722 H1706 0.931 . S
C1722 C1716 1.383 . S
C1722 C1721 1.379 . S
H1723 C1717 0.959 . S
H1724 C1717 0.961 . S
H1725 C1717 0.960 . S
H1726 C1718 0.930 . S
H1727 C1719 0.929 . S
H1728 C1736 0.929 . S
H1729 C1738 0.930 . S
H1730 C1740 0.930 . S
H1731 C1743 0.929 . S
H1732 C1746 0.930 . S
H1733 C1748 0.960 . S
H1734 C1748 0.960 . S
H1735 C1748 0.960 . S
C1736 H1728 0.929 . S
C1736 C1737 1.377 . S
C1736 C1738 1.384 . S
C1737 C1736 1.377 . S
C1737 C1743 1.390 . S
C1738 H1729 0.930 . S
C1738 C1736 1.384 . S
C1738 C1739 1.372 . S
C1739 C1738 1.372 . S
C1739 C1740 1.400 . S
C1739 C1744 1.490 . S
C1740 H1730 0.930 . S
C1740 C1739 1.400 . S
C1740 C1743 1.386 . S
H1741 C1757 0.930 . S
H1742 C1758 0.931 . S
C1743 H1731 0.929 . S
C1743 C1737 1.390 . S
C1743 C1740 1.386 . S
C1744 C1739 1.490 . S
C1744 C1746 1.395 . S
C1744 C1747 1.403 . S
H1745 C1751 0.930 . S
C1746 H1732 0.930 . S
C1746 C1744 1.395 . S
C1746 C1749 1.403 . S
C1747 C1744 1.403 . S
C1747 C1748 1.524 . S
C1747 C1751 1.400 . S
C1748 H1733 0.960 . S
C1748 H1734 0.960 . S
C1748 H1735 0.960 . S
C1748 C1747 1.524 . S
C1749 C1746 1.403 . S
C1749 C1750 1.392 . S
C1749 C1753 1.495 . S
C1750 C1749 1.392 . S
C1750 C1751 1.385 . S
C1750 C1752 1.478 . S
C1751 H1745 0.930 . S
C1751 C1747 1.400 . S
C1751 C1750 1.385 . S
C1752 C1750 1.478 . S
C1752 C1754 1.381 . S
C1752 C1758 1.383 . S
C1753 C1749 1.495 . S
C1753 H1759 0.959 . S
C1753 H1760 0.961 . S
C1753 H1761 0.960 . S
C1754 C1752 1.381 . S
C1754 C1755 1.394 . S
C1754 H1762 0.930 . S
C1755 C1754 1.394 . S
C1755 C1756 1.383 . S
C1755 H1763 0.929 . S
C1756 C1755 1.383 . S
C1756 C1757 1.377 . S
C1757 H1741 0.930 . S
C1757 C1756 1.377 . S
C1757 C1758 1.379 . S
C1758 H1742 0.931 . S
C1758 C1752 1.383 . S
C1758 C1757 1.379 . S
H1759 C1753 0.959 . S
H1760 C1753 0.961 . S
H1761 C1753 0.960 . S
H1762 C1754 0.930 . S
H1763 C1755 0.929 . S
H1764 C1772 0.929 1_455 S
H1765 C1774 0.930 . S
H1766 C1776 0.930 . S
H1767 C1779 0.929 . S
H1768 C1782 0.930 . S
H1769 C1784 0.960 . S
H1770 C1784 0.960 . S
H1771 C1784 0.960 . S
C1772 H1764 0.929 1_655 S
C1772 C1773 1.377 . S
C1772 C1774 1.384 . S
C1773 C1772 1.377 . S
C1773 C1779 1.390 . S
C1774 H1765 0.930 . S
C1774 C1772 1.384 . S
C1774 C1775 1.372 . S
C1775 C1774 1.372 . S
C1775 C1776 1.400 . S
C1775 C1780 1.490 . S
C1776 H1766 0.930 . S
C1776 C1775 1.400 . S
C1776 C1779 1.386 . S
H1777 C1793 0.930 . S
H1778 C1794 0.931 . S
C1779 H1767 0.929 . S
C1779 C1773 1.390 . S
C1779 C1776 1.386 . S
C1780 C1775 1.490 . S
C1780 C1782 1.395 . S
C1780 C1783 1.403 . S
H1781 C1787 0.930 . S
C1782 H1768 0.930 . S
C1782 C1780 1.395 . S
C1782 C1785 1.403 . S
C1783 C1780 1.403 . S
C1783 C1784 1.524 . S
C1783 C1787 1.400 . S
C1784 H1769 0.960 . S
C1784 H1770 0.960 . S
C1784 H1771 0.960 . S
C1784 C1783 1.524 . S
C1785 C1782 1.403 . S
C1785 C1786 1.392 . S
C1785 C1789 1.495 1_545 S
C1786 C1785 1.392 . S
C1786 C1787 1.385 . S
C1786 C1788 1.478 1_545 S
C1787 H1781 0.930 . S
C1787 C1783 1.400 . S
C1787 C1786 1.385 . S
C1788 C1786 1.478 1_565 S
C1788 C1790 1.381 . S
C1788 C1794 1.383 . S
C1789 C1785 1.495 1_565 S
C1789 H1795 0.959 . S
C1789 H1796 0.961 . S
C1789 H1797 0.960 . S
C1790 C1788 1.381 . S
C1790 C1791 1.394 . S
C1790 H1798 0.930 . S
C1791 C1790 1.394 . S
C1791 C1792 1.383 . S
C1791 H1799 0.929 . S
C1792 C1791 1.383 . S
C1792 C1793 1.377 . S
C1793 H1777 0.930 . S
C1793 C1792 1.377 . S
C1793 C1794 1.379 . S
C1794 H1778 0.931 . S
C1794 C1788 1.383 . S
C1794 C1793 1.379 . S
H1795 C1789 0.959 . S
H1796 C1789 0.961 . S
H1797 C1789 0.960 . S
H1798 C1790 0.930 . S
H1799 C1791 0.929 . S
H1800 C1808 0.929 . S
H1801 C1810 0.930 . S
H1802 C1812 0.930 . S
H1803 C1815 0.929 . S
H1804 C1818 0.930 . S
H1805 C1820 0.960 . S
H1806 C1820 0.960 . S
H1807 C1820 0.960 . S
C1808 H1800 0.929 . S
C1808 C1809 1.377 . S
C1808 C1810 1.384 . S
C1809 C1808 1.377 . S
C1809 C1815 1.390 . S
C1810 H1801 0.930 . S
C1810 C1808 1.384 . S
C1810 C1811 1.372 . S
C1811 C1810 1.372 . S
C1811 C1812 1.400 . S
C1811 C1816 1.490 . S
C1812 H1802 0.930 . S
C1812 C1811 1.400 . S
C1812 C1815 1.386 . S
H1813 C1829 0.930 . S
H1814 C1830 0.931 . S
C1815 H1803 0.929 . S
C1815 C1809 1.390 . S
C1815 C1812 1.386 . S
C1816 C1811 1.490 . S
C1816 C1818 1.395 . S
C1816 C1819 1.403 . S
H1817 C1823 0.930 . S
C1818 H1804 0.930 . S
C1818 C1816 1.395 . S
C1818 C1821 1.403 1_455 S
C1819 C1816 1.403 . S
C1819 C1820 1.524 . S
C1819 C1823 1.400 1_455 S
C1820 H1805 0.960 . S
C1820 H1806 0.960 . S
C1820 H1807 0.960 . S
C1820 C1819 1.524 . S
C1821 C1818 1.403 1_655 S
C1821 C1822 1.392 . S
C1821 C1825 1.495 . S
C1822 C1821 1.392 . S
C1822 C1823 1.385 . S
C1822 C1824 1.478 . S
C1823 H1817 0.930 . S
C1823 C1819 1.400 1_655 S
C1823 C1822 1.385 . S
C1824 C1822 1.478 . S
C1824 C1826 1.381 . S
C1824 C1830 1.383 . S
C1825 C1821 1.495 . S
C1825 H1831 0.959 . S
C1825 H1832 0.961 . S
C1825 H1833 0.960 . S
C1826 C1824 1.381 . S
C1826 C1827 1.394 . S
C1826 H1834 0.930 . S
C1827 C1826 1.394 . S
C1827 C1828 1.383 . S
C1827 H1835 0.929 . S
C1828 C1827 1.383 . S
C1828 C1829 1.377 . S
C1829 H1813 0.930 . S
C1829 C1828 1.377 . S
C1829 C1830 1.379 . S
C1830 H1814 0.931 . S
C1830 C1824 1.383 . S
C1830 C1829 1.379 . S
H1831 C1825 0.959 . S
H1832 C1825 0.961 . S
H1833 C1825 0.960 . S
H1834 C1826 0.930 . S
H1835 C1827 0.929 . S
H1836 C1844 0.929 . S
H1837 C1846 0.930 . S
H1838 C1848 0.930 . S
H1839 C1851 0.929 . S
H1840 C1854 0.930 . S
H1841 C1856 0.960 . S
H1842 C1856 0.960 . S
H1843 C1856 0.960 . S
C1844 H1836 0.929 . S
C1844 C1845 1.377 . S
C1844 C1846 1.384 . S
C1845 C1844 1.377 . S
C1845 C1851 1.390 . S
C1846 H1837 0.930 . S
C1846 C1844 1.384 . S
C1846 C1847 1.372 . S
C1847 C1846 1.372 . S
C1847 C1848 1.400 . S
C1847 C1852 1.490 . S
C1848 H1838 0.930 . S
C1848 C1847 1.400 . S
C1848 C1851 1.386 . S
H1849 C1865 0.930 . S
H1850 C1866 0.931 . S
C1851 H1839 0.929 . S
C1851 C1845 1.390 . S
C1851 C1848 1.386 . S
C1852 C1847 1.490 . S
C1852 C1854 1.395 . S
C1852 C1855 1.403 . S
H1853 C1859 0.930 . S
C1854 H1840 0.930 . S
C1854 C1852 1.395 . S
C1854 C1857 1.403 . S
C1855 C1852 1.403 . S
C1855 C1856 1.524 . S
C1855 C1859 1.400 . S
C1856 H1841 0.960 . S
C1856 H1842 0.960 . S
C1856 H1843 0.960 . S
C1856 C1855 1.524 . S
C1857 C1854 1.403 . S
C1857 C1858 1.392 . S
C1857 C1861 1.495 . S
C1858 C1857 1.392 . S
C1858 C1859 1.385 . S
C1858 C1860 1.478 . S
C1859 H1853 0.930 . S
C1859 C1855 1.400 . S
C1859 C1858 1.385 . S
C1860 C1858 1.478 . S
C1860 C1862 1.381 . S
C1860 C1866 1.383 . S
C1861 C1857 1.495 . S
C1861 H1867 0.959 . S
C1861 H1868 0.961 . S
C1861 H1869 0.960 . S
C1862 C1860 1.381 . S
C1862 C1863 1.394 . S
C1862 H1870 0.930 . S
C1863 C1862 1.394 . S
C1863 C1864 1.383 . S
C1863 H1871 0.929 . S
C1864 C1863 1.383 . S
C1864 C1865 1.377 . S
C1865 H1849 0.930 . S
C1865 C1864 1.377 . S
C1865 C1866 1.379 . S
C1866 H1850 0.931 . S
C1866 C1860 1.383 . S
C1866 C1865 1.379 . S
H1867 C1861 0.959 . S
H1868 C1861 0.961 . S
H1869 C1861 0.960 . S
H1870 C1862 0.930 . S
H1871 C1863 0.929 . S
H1872 C1880 0.929 . S
H1873 C1882 0.930 . S
H1874 C1884 0.930 . S
H1875 C1887 0.929 . S
H1876 C1890 0.930 . S
H1877 C1892 0.960 . S
H1878 C1892 0.960 . S
H1879 C1892 0.960 . S
C1880 H1872 0.929 . S
C1880 C1881 1.377 . S
C1880 C1882 1.384 . S
C1881 C1880 1.377 . S
C1881 C1887 1.390 . S
C1882 H1873 0.930 . S
C1882 C1880 1.384 . S
C1882 C1883 1.372 . S
C1883 C1882 1.372 . S
C1883 C1884 1.400 . S
C1883 C1888 1.490 . S
C1884 H1874 0.930 . S
C1884 C1883 1.400 . S
C1884 C1887 1.386 . S
H1885 C1901 0.930 . S
H1886 C1902 0.931 . S
C1887 H1875 0.929 . S
C1887 C1881 1.390 . S
C1887 C1884 1.386 . S
C1888 C1883 1.490 . S
C1888 C1890 1.395 . S
C1888 C1891 1.403 . S
H1889 C1895 0.930 . S
C1890 H1876 0.930 . S
C1890 C1888 1.395 . S
C1890 C1893 1.403 . S
C1891 C1888 1.403 . S
C1891 C1892 1.524 . S
C1891 C1895 1.400 . S
C1892 H1877 0.960 . S
C1892 H1878 0.960 . S
C1892 H1879 0.960 . S
C1892 C1891 1.524 . S
C1893 C1890 1.403 . S
C1893 C1894 1.392 . S
C1893 C1897 1.495 . S
C1894 C1893 1.392 . S
C1894 C1895 1.385 . S
C1894 C1896 1.478 . S
C1895 H1889 0.930 . S
C1895 C1891 1.400 . S
C1895 C1894 1.385 . S
C1896 C1894 1.478 . S
C1896 C1898 1.381 . S
C1896 C1902 1.383 . S
C1897 C1893 1.495 . S
C1897 H1903 0.959 . S
C1897 H1904 0.961 . S
C1897 H1905 0.960 . S
C1898 C1896 1.381 . S
C1898 C1899 1.394 . S
C1898 H1906 0.930 . S
C1899 C1898 1.394 . S
C1899 C1900 1.383 . S
C1899 H1907 0.929 . S
C1900 C1899 1.383 . S
C1900 C1901 1.377 . S
C1901 H1885 0.930 . S
C1901 C1900 1.377 . S
C1901 C1902 1.379 . S
C1902 H1886 0.931 . S
C1902 C1896 1.383 . S
C1902 C1901 1.379 . S
H1903 C1897 0.959 . S
H1904 C1897 0.961 . S
H1905 C1897 0.960 . S
H1906 C1898 0.930 . S
H1907 C1899 0.929 . S
H1908 C1916 0.929 . S
H1909 C1918 0.930 . S
H1910 C1920 0.930 . S
H1911 C1923 0.929 . S
H1912 C1926 0.930 . S
H1913 C1928 0.960 . S
H1914 C1928 0.960 . S
H1915 C1928 0.960 . S
C1916 H1908 0.929 . S
C1916 C1917 1.377 . S
C1916 C1918 1.384 . S
C1917 C1916 1.377 . S
C1917 C1923 1.390 . S
C1918 H1909 0.930 . S
C1918 C1916 1.384 . S
C1918 C1919 1.372 . S
C1919 C1918 1.372 . S
C1919 C1920 1.400 . S
C1919 C1924 1.490 . S
C1920 H1910 0.930 . S
C1920 C1919 1.400 . S
C1920 C1923 1.386 . S
H1921 C1937 0.930 . S
H1922 C1938 0.931 . S
C1923 H1911 0.929 . S
C1923 C1917 1.390 . S
C1923 C1920 1.386 . S
C1924 C1919 1.490 . S
C1924 C1926 1.395 . S
C1924 C1927 1.403 . S
H1925 C1931 0.930 . S
C1926 H1912 0.930 . S
C1926 C1924 1.395 . S
C1926 C1929 1.403 . S
C1927 C1924 1.403 . S
C1927 C1928 1.524 . S
C1927 C1931 1.400 . S
C1928 H1913 0.960 . S
C1928 H1914 0.960 . S
C1928 H1915 0.960 . S
C1928 C1927 1.524 . S
C1929 C1926 1.403 . S
C1929 C1930 1.392 . S
C1929 C1933 1.495 . S
C1930 C1929 1.392 . S
C1930 C1931 1.385 . S
C1930 C1932 1.478 . S
C1931 H1925 0.930 . S
C1931 C1927 1.400 . S
C1931 C1930 1.385 . S
C1932 C1930 1.478 . S
C1932 C1934 1.381 . S
C1932 C1938 1.383 . S
C1933 C1929 1.495 . S
C1933 H1939 0.959 . S
C1933 H1940 0.961 . S
C1933 H1941 0.960 . S
C1934 C1932 1.381 . S
C1934 C1935 1.394 . S
C1934 H1942 0.930 . S
C1935 C1934 1.394 . S
C1935 C1936 1.383 . S
C1935 H1943 0.929 . S
C1936 C1935 1.383 . S
C1936 C1937 1.377 . S
C1937 H1921 0.930 . S
C1937 C1936 1.377 . S
C1937 C1938 1.379 . S
C1938 H1922 0.931 . S
C1938 C1932 1.383 . S
C1938 C1937 1.379 . S
H1939 C1933 0.959 . S
H1940 C1933 0.961 . S
H1941 C1933 0.960 . S
H1942 C1934 0.930 . S
H1943 C1935 0.929 . S
H1944 C1952 0.929 . S
H1945 C1954 0.930 . S
H1946 C1956 0.930 . S
H1947 C1959 0.929 . S
H1948 C1962 0.930 . S
H1949 C1964 0.960 . S
H1950 C1964 0.960 . S
H1951 C1964 0.960 . S
C1952 H1944 0.929 . S
C1952 C1953 1.377 . S
C1952 C1954 1.384 . S
C1953 C1952 1.377 . S
C1953 C1959 1.390 . S
C1954 H1945 0.930 . S
C1954 C1952 1.384 . S
C1954 C1955 1.372 . S
C1955 C1954 1.372 . S
C1955 C1956 1.400 . S
C1955 C1960 1.490 . S
C1956 H1946 0.930 . S
C1956 C1955 1.400 . S
C1956 C1959 1.386 . S
H1957 C1973 0.930 . S
H1958 C1974 0.931 . S
C1959 H1947 0.929 . S
C1959 C1953 1.390 . S
C1959 C1956 1.386 . S
C1960 C1955 1.490 . S
C1960 C1962 1.395 . S
C1960 C1963 1.403 . S
H1961 C1967 0.930 . S
C1962 H1948 0.930 . S
C1962 C1960 1.395 . S
C1962 C1965 1.403 . S
C1963 C1960 1.403 . S
C1963 C1964 1.524 . S
C1963 C1967 1.400 . S
C1964 H1949 0.960 . S
C1964 H1950 0.960 . S
C1964 H1951 0.960 . S
C1964 C1963 1.524 . S
C1965 C1962 1.403 . S
C1965 C1966 1.392 . S
C1965 C1969 1.495 . S
C1966 C1965 1.392 . S
C1966 C1967 1.385 . S
C1966 C1968 1.478 . S
C1967 H1961 0.930 . S
C1967 C1963 1.400 . S
C1967 C1966 1.385 . S
C1968 C1966 1.478 . S
C1968 C1970 1.381 . S
C1968 C1974 1.383 . S
C1969 C1965 1.495 . S
C1969 H1975 0.959 . S
C1969 H1976 0.961 . S
C1969 H1977 0.960 . S
C1970 C1968 1.381 . S
C1970 C1971 1.394 . S
C1970 H1978 0.930 . S
C1971 C1970 1.394 . S
C1971 C1972 1.383 . S
C1971 H1979 0.929 . S
C1972 C1971 1.383 . S
C1972 C1973 1.377 . S
C1973 H1957 0.930 . S
C1973 C1972 1.377 . S
C1973 C1974 1.379 . S
C1974 H1958 0.931 . S
C1974 C1968 1.383 . S
C1974 C1973 1.379 . S
H1975 C1969 0.959 . S
H1976 C1969 0.961 . S
H1977 C1969 0.960 . S
H1978 C1970 0.930 . S
H1979 C1971 0.929 . S
H1980 C1988 0.929 . S
H1981 C1990 0.930 . S
H1982 C1992 0.930 . S
H1983 C1995 0.929 . S
H1984 C1998 0.930 . S
H1985 C2000 0.960 . S
H1986 C2000 0.960 . S
H1987 C2000 0.960 . S
C1988 H1980 0.929 . S
C1988 C1989 1.377 . S
C1988 C1990 1.384 . S
C1989 C1988 1.377 . S
C1989 C1995 1.390 . S
C1990 H1981 0.930 . S
C1990 C1988 1.384 . S
C1990 C1991 1.372 . S
C1991 C1990 1.372 . S
C1991 C1992 1.400 . S
C1991 C1996 1.490 . S
C1992 H1982 0.930 . S
C1992 C1991 1.400 . S
C1992 C1995 1.386 . S
H1993 C2009 0.930 . S
H1994 C2010 0.931 . S
C1995 H1983 0.929 . S
C1995 C1989 1.390 . S
C1995 C1992 1.386 . S
C1996 C1991 1.490 . S
C1996 C1998 1.395 . S
C1996 C1999 1.403 . S
H1997 C2003 0.930 . S
C1998 H1984 0.930 . S
C1998 C1996 1.395 . S
C1998 C2001 1.403 . S
C1999 C1996 1.403 . S
C1999 C2000 1.524 . S
C1999 C2003 1.400 . S
C2000 H1985 0.960 . S
C2000 H1986 0.960 . S
C2000 H1987 0.960 . S
C2000 C1999 1.524 . S
C2001 C1998 1.403 . S
C2001 C2002 1.392 . S
C2001 C2005 1.495 . S
C2002 C2001 1.392 . S
C2002 C2003 1.385 . S
C2002 C2004 1.478 . S
C2003 H1997 0.930 . S
C2003 C1999 1.400 . S
C2003 C2002 1.385 . S
C2004 C2002 1.478 . S
C2004 C2006 1.381 . S
C2004 C2010 1.383 . S
C2005 C2001 1.495 . S
C2005 H2011 0.959 . S
C2005 H2012 0.961 . S
C2005 H2013 0.960 . S
C2006 C2004 1.381 . S
C2006 C2007 1.394 . S
C2006 H2014 0.930 . S
C2007 C2006 1.394 . S
C2007 C2008 1.383 . S
C2007 H2015 0.929 . S
C2008 C2007 1.383 . S
C2008 C2009 1.377 . S
C2009 H1993 0.930 . S
C2009 C2008 1.377 . S
C2009 C2010 1.379 . S
C2010 H1994 0.931 . S
C2010 C2004 1.383 . S
C2010 C2009 1.379 . S
H2011 C2005 0.959 . S
H2012 C2005 0.961 . S
H2013 C2005 0.960 . S
H2014 C2006 0.930 . S
H2015 C2007 0.929 . S
H2016 C2024 0.929 . S
H2017 C2026 0.930 . S
H2018 C2028 0.930 . S
H2019 C2031 0.929 . S
H2020 C2034 0.930 . S
H2021 C2036 0.960 . S
H2022 C2036 0.960 . S
H2023 C2036 0.960 . S
C2024 H2016 0.929 . S
C2024 C2025 1.377 . S
C2024 C2026 1.384 . S
C2025 C2024 1.377 . S
C2025 C2031 1.390 . S
C2026 H2017 0.930 . S
C2026 C2024 1.384 . S
C2026 C2027 1.372 . S
C2027 C2026 1.372 . S
C2027 C2028 1.400 . S
C2027 C2032 1.490 . S
C2028 H2018 0.930 . S
C2028 C2027 1.400 . S
C2028 C2031 1.386 . S
H2029 C2045 0.930 . S
H2030 C2046 0.931 . S
C2031 H2019 0.929 . S
C2031 C2025 1.390 . S
C2031 C2028 1.386 . S
C2032 C2027 1.490 . S
C2032 C2034 1.395 . S
C2032 C2035 1.403 . S
H2033 C2039 0.930 . S
C2034 H2020 0.930 . S
C2034 C2032 1.395 . S
C2034 C2037 1.403 . S
C2035 C2032 1.403 . S
C2035 C2036 1.524 . S
C2035 C2039 1.400 . S
C2036 H2021 0.960 . S
C2036 H2022 0.960 . S
C2036 H2023 0.960 . S
C2036 C2035 1.524 . S
C2037 C2034 1.403 . S
C2037 C2038 1.392 . S
C2037 C2041 1.495 . S
C2038 C2037 1.392 . S
C2038 C2039 1.385 . S
C2038 C2040 1.478 . S
C2039 H2033 0.930 . S
C2039 C2035 1.400 . S
C2039 C2038 1.385 . S
C2040 C2038 1.478 . S
C2040 C2042 1.381 . S
C2040 C2046 1.383 . S
C2041 C2037 1.495 . S
C2041 H2047 0.959 . S
C2041 H2048 0.961 . S
C2041 H2049 0.960 . S
C2042 C2040 1.381 . S
C2042 C2043 1.394 . S
C2042 H2050 0.930 . S
C2043 C2042 1.394 . S
C2043 C2044 1.383 . S
C2043 H2051 0.929 . S
C2044 C2043 1.383 . S
C2044 C2045 1.377 . S
C2045 H2029 0.930 . S
C2045 C2044 1.377 . S
C2045 C2046 1.379 . S
C2046 H2030 0.931 . S
C2046 C2040 1.383 . S
C2046 C2045 1.379 . S
H2047 C2041 0.959 . S
H2048 C2041 0.961 . S
H2049 C2041 0.960 . S
H2050 C2042 0.930 . S
H2051 C2043 0.929 . S
H2052 C2060 0.929 . S
H2053 C2062 0.930 . S
H2054 C2064 0.930 . S
H2055 C2067 0.929 . S
H2056 C2070 0.930 . S
H2057 C2072 0.960 . S
H2058 C2072 0.960 . S
H2059 C2072 0.960 . S
C2060 H2052 0.929 . S
C2060 C2061 1.377 . S
C2060 C2062 1.384 . S
C2061 C2060 1.377 . S
C2061 C2067 1.390 . S
C2062 H2053 0.930 . S
C2062 C2060 1.384 . S
C2062 C2063 1.372 . S
C2063 C2062 1.372 . S
C2063 C2064 1.400 . S
C2063 C2068 1.490 . S
C2064 H2054 0.930 . S
C2064 C2063 1.400 . S
C2064 C2067 1.386 . S
H2065 C2081 0.930 . S
H2066 C2082 0.931 . S
C2067 H2055 0.929 . S
C2067 C2061 1.390 . S
C2067 C2064 1.386 . S
C2068 C2063 1.490 . S
C2068 C2070 1.395 . S
C2068 C2071 1.403 . S
H2069 C2075 0.930 . S
C2070 H2056 0.930 . S
C2070 C2068 1.395 . S
C2070 C2073 1.403 . S
C2071 C2068 1.403 . S
C2071 C2072 1.524 . S
C2071 C2075 1.400 . S
C2072 H2057 0.960 . S
C2072 H2058 0.960 . S
C2072 H2059 0.960 . S
C2072 C2071 1.524 . S
C2073 C2070 1.403 . S
C2073 C2074 1.392 . S
C2073 C2077 1.495 . S
C2074 C2073 1.392 . S
C2074 C2075 1.385 . S
C2074 C2076 1.478 . S
C2075 H2069 0.930 . S
C2075 C2071 1.400 . S
C2075 C2074 1.385 . S
C2076 C2074 1.478 . S
C2076 C2078 1.381 . S
C2076 C2082 1.383 . S
C2077 C2073 1.495 . S
C2077 H2083 0.959 . S
C2077 H2084 0.961 . S
C2077 H2085 0.960 . S
C2078 C2076 1.381 . S
C2078 C2079 1.394 . S
C2078 H2086 0.930 . S
C2079 C2078 1.394 . S
C2079 C2080 1.383 . S
C2079 H2087 0.929 . S
C2080 C2079 1.383 . S
C2080 C2081 1.377 . S
C2081 H2065 0.930 . S
C2081 C2080 1.377 . S
C2081 C2082 1.379 . S
C2082 H2066 0.931 . S
C2082 C2076 1.383 . S
C2082 C2081 1.379 . S
H2083 C2077 0.959 . S
H2084 C2077 0.961 . S
H2085 C2077 0.960 . S
H2086 C2078 0.930 . S
H2087 C2079 0.929 . S
H2088 C2096 0.929 . S
H2089 C2098 0.930 . S
H2090 C2100 0.930 . S
H2091 C2103 0.929 . S
H2092 C2106 0.930 1_565 S
H2093 C2108 0.960 . S
H2094 C2108 0.960 . S
H2095 C2108 0.960 . S
C2096 H2088 0.929 . S
C2096 C2097 1.377 . S
C2096 C2098 1.384 . S
C2097 C2096 1.377 . S
C2097 C2103 1.390 . S
C2098 H2089 0.930 . S
C2098 C2096 1.384 . S
C2098 C2099 1.372 . S
C2099 C2098 1.372 . S
C2099 C2100 1.400 . S
C2099 C2104 1.490 . S
C2100 H2090 0.930 . S
C2100 C2099 1.400 . S
C2100 C2103 1.386 . S
H2101 C2117 0.930 . S
H2102 C2118 0.931 . S
C2103 H2091 0.929 . S
C2103 C2097 1.390 . S
C2103 C2100 1.386 . S
C2104 C2099 1.490 . S
C2104 C2106 1.395 1_565 S
C2104 C2107 1.403 . S
H2105 C2111 0.930 . S
C2106 H2092 0.930 1_545 S
C2106 C2104 1.395 1_545 S
C2106 C2109 1.403 . S
C2107 C2104 1.403 . S
C2107 C2108 1.524 . S
C2107 C2111 1.400 1_565 S
C2108 H2093 0.960 . S
C2108 H2094 0.960 . S
C2108 H2095 0.960 . S
C2108 C2107 1.524 . S
C2109 C2106 1.403 . S
C2109 C2110 1.392 . S
C2109 C2113 1.495 . S
C2110 C2109 1.392 . S
C2110 C2111 1.385 . S
C2110 C2112 1.478 . S
C2111 H2105 0.930 . S
C2111 C2107 1.400 1_545 S
C2111 C2110 1.385 . S
C2112 C2110 1.478 . S
C2112 C2114 1.381 . S
C2112 C2118 1.383 . S
C2113 C2109 1.495 . S
C2113 H2119 0.959 . S
C2113 H2120 0.961 . S
C2113 H2121 0.960 . S
C2114 C2112 1.381 . S
C2114 C2115 1.394 . S
C2114 H2122 0.930 . S
C2115 C2114 1.394 . S
C2115 C2116 1.383 . S
C2115 H2123 0.929 . S
C2116 C2115 1.383 . S
C2116 C2117 1.377 . S
C2117 H2101 0.930 . S
C2117 C2116 1.377 . S
C2117 C2118 1.379 . S
C2118 H2102 0.931 . S
C2118 C2112 1.383 . S
C2118 C2117 1.379 . S
H2119 C2113 0.959 . S
H2120 C2113 0.961 . S
H2121 C2113 0.960 . S
H2122 C2114 0.930 . S
H2123 C2115 0.929 . S
H2124 C2132 0.929 . S
H2125 C2134 0.930 . S
H2126 C2136 0.930 . S
H2127 C2139 0.929 . S
H2128 C2142 0.930 . S
H2129 C2144 0.960 . S
H2130 C2144 0.960 . S
H2131 C2144 0.960 . S
C2132 H2124 0.929 . S
C2132 C2133 1.377 . S
C2132 C2134 1.384 . S
C2133 C2132 1.377 . S
C2133 C2139 1.390 . S
C2134 H2125 0.930 . S
C2134 C2132 1.384 . S
C2134 C2135 1.372 . S
C2135 C2134 1.372 . S
C2135 C2136 1.400 . S
C2135 C2140 1.490 . S
C2136 H2126 0.930 . S
C2136 C2135 1.400 . S
C2136 C2139 1.386 . S
H2137 C2153 0.930 . S
H2138 C2154 0.931 . S
C2139 H2127 0.929 . S
C2139 C2133 1.390 . S
C2139 C2136 1.386 . S
C2140 C2135 1.490 . S
C2140 C2142 1.395 . S
C2140 C2143 1.403 . S
H2141 C2147 0.930 . S
C2142 H2128 0.930 . S
C2142 C2140 1.395 . S
C2142 C2145 1.403 . S
C2143 C2140 1.403 . S
C2143 C2144 1.524 . S
C2143 C2147 1.400 . S
C2144 H2129 0.960 . S
C2144 H2130 0.960 . S
C2144 H2131 0.960 . S
C2144 C2143 1.524 . S
C2145 C2142 1.403 . S
C2145 C2146 1.392 . S
C2145 C2149 1.495 1_455 S
C2146 C2145 1.392 . S
C2146 C2147 1.385 . S
C2146 C2148 1.478 1_455 S
C2147 H2141 0.930 . S
C2147 C2143 1.400 . S
C2147 C2146 1.385 . S
C2148 C2146 1.478 1_655 S
C2148 C2150 1.381 . S
C2148 C2154 1.383 . S
C2149 C2145 1.495 1_655 S
C2149 H2155 0.964 1_655 S
C2149 H2156 0.961 . S
C2149 H2157 0.960 . S
C2150 C2148 1.381 . S
C2150 C2151 1.394 . S
C2150 H2158 0.930 . S
C2151 C2150 1.394 . S
C2151 C2152 1.383 . S
C2151 H2159 0.929 . S
C2152 C2151 1.383 . S
C2152 C2153 1.377 . S
C2153 H2137 0.930 . S
C2153 C2152 1.377 . S
C2153 C2154 1.379 . S
C2154 H2138 0.931 . S
C2154 C2148 1.383 . S
C2154 C2153 1.379 . S
H2155 C2149 0.964 1_455 S
H2156 C2149 0.961 . S
H2157 C2149 0.960 . S
H2158 C2150 0.930 . S
H2159 C2151 0.929 . S
H2160 C2168 0.929 . S
H2161 C2170 0.930 . S
H2162 C2172 0.930 1_565 S
H2163 C2175 0.929 1_565 S
H2164 C2178 0.930 . S
H2165 C2180 0.960 . S
H2166 C2180 0.960 . S
H2167 C2180 0.960 . S
C2168 H2160 0.929 . S
C2168 C2169 1.377 . S
C2168 C2170 1.384 . S
C2169 C2168 1.377 . S
C2169 C2175 1.390 . S
C2170 H2161 0.930 . S
C2170 C2168 1.384 . S
C2170 C2171 1.372 . S
C2171 C2170 1.372 . S
C2171 C2172 1.400 . S
C2171 C2176 1.490 . S
C2172 H2162 0.930 1_545 S
C2172 C2171 1.400 . S
C2172 C2175 1.386 . S
H2173 C2189 0.930 1_565 S
H2174 C2190 0.931 1_565 S
C2175 H2163 0.929 1_545 S
C2175 C2169 1.390 . S
C2175 C2172 1.386 . S
C2176 C2171 1.490 . S
C2176 C2178 1.395 . S
C2176 C2179 1.403 . S
H2177 C2183 0.930 1_565 S
C2178 H2164 0.930 . S
C2178 C2176 1.395 . S
C2178 C2181 1.403 1_554 S
C2179 C2176 1.403 . S
C2179 C2180 1.524 1_545 S
C2179 C2183 1.400 1_554 S
C2180 H2165 0.960 . S
C2180 H2166 0.960 . S
C2180 H2167 0.960 . S
C2180 C2179 1.524 1_565 S
C2181 C2178 1.403 1_556 S
C2181 C2182 1.392 . S
C2181 C2185 1.495 . S
C2182 C2181 1.392 . S
C2182 C2183 1.385 . S
C2182 C2184 1.478 . S
C2183 H2177 0.930 1_545 S
C2183 C2179 1.400 1_556 S
C2183 C2182 1.385 . S
C2184 C2182 1.478 . S
C2184 C2186 1.381 . S
C2184 C2190 1.383 . S
C2185 C2181 1.495 . S
C2185 H2191 0.959 . S
C2185 H2192 0.961 . S
C2185 H2193 0.960 . S
C2186 C2184 1.381 . S
C2186 C2187 1.394 . S
C2186 H2194 0.930 . S
C2187 C2186 1.394 . S
C2187 C2188 1.383 . S
C2187 H2195 0.929 . S
C2188 C2187 1.383 . S
C2188 C2189 1.377 . S
C2189 H2173 0.930 1_545 S
C2189 C2188 1.377 . S
C2189 C2190 1.379 . S
C2190 H2174 0.931 1_545 S
C2190 C2184 1.383 . S
C2190 C2189 1.379 . S
H2191 C2185 0.959 . S
H2192 C2185 0.961 . S
H2193 C2185 0.960 . S
H2194 C2186 0.930 . S
H2195 C2187 0.929 . S
H2196 C2204 0.929 1_655 S
H2197 C2206 0.916 1_655 S
H2198 C2208 0.930 . S
H2199 C2211 0.929 . S
H2200 C2214 0.930 . S
H2201 C2216 0.960 . S
H2202 C2216 0.960 . S
H2203 C2216 0.960 . S
C2204 H2196 0.929 1_455 S
C2204 C2205 1.377 . S
C2204 C2206 1.385 . S
C2205 C2204 1.377 . S
C2205 C2211 1.390 . S
C2206 H2197 0.916 1_455 S
C2206 C2204 1.385 . S
C2206 C2207 1.385 . S
C2207 C2206 1.385 . S
C2207 C2208 1.400 . S
C2207 C2212 1.490 . S
C2208 H2198 0.930 . S
C2208 C2207 1.400 . S
C2208 C2211 1.386 . S
H2209 C2225 0.930 . S
H2210 C2226 0.931 . S
C2211 H2199 0.929 . S
C2211 C2205 1.390 . S
C2211 C2208 1.386 . S
C2212 C2207 1.490 . S
C2212 C2214 1.395 . S
C2212 C2215 1.403 . S
H2213 C2219 0.930 . S
C2214 H2200 0.930 . S
C2214 C2212 1.395 . S
C2214 C2217 1.403 1_556 S
C2215 C2212 1.403 . S
C2215 C2216 1.524 . S
C2215 C2219 1.400 1_556 S
C2216 H2201 0.960 . S
C2216 H2202 0.960 . S
C2216 H2203 0.960 . S
C2216 C2215 1.524 . S
C2217 C2214 1.403 1_554 S
C2217 C2218 1.392 . S
C2217 C2221 1.495 1_455 S
C2218 C2217 1.392 . S
C2218 C2219 1.385 . S
C2218 C2220 1.478 . S
C2219 H2213 0.930 . S
C2219 C2215 1.400 1_554 S
C2219 C2218 1.385 . S
C2220 C2218 1.478 . S
C2220 C2222 1.381 1_455 S
C2220 C2226 1.383 . S
C2221 C2217 1.495 1_655 S
C2221 H2227 0.959 . S
C2221 H2228 0.961 1_655 S
C2221 H2229 0.960 . S
C2222 C2220 1.381 1_655 S
C2222 C2223 1.394 . S
C2222 H2230 0.930 . S
C2223 C2222 1.394 . S
C2223 C2224 1.383 1_655 S
C2223 H2231 0.929 . S
C2224 C2223 1.383 1_455 S
C2224 C2225 1.377 . S
C2225 H2209 0.930 . S
C2225 C2224 1.377 . S
C2225 C2226 1.379 . S
C2226 H2210 0.931 . S
C2226 C2220 1.383 . S
C2226 C2225 1.379 . S
H2227 C2221 0.959 . S
H2228 C2221 0.961 1_455 S
H2229 C2221 0.960 . S
H2230 C2222 0.930 . S
H2231 C2223 0.929 . S
H2232 C2240 0.929 . S
H2233 C2242 0.930 . S
H2234 C2244 0.930 . S
H2235 C2247 0.929 . S
H2236 C2250 0.930 . S
H2237 C2252 0.960 . S
H2238 C2252 0.960 . S
H2239 C2252 0.960 . S
C2240 H2232 0.929 . S
C2240 C2241 1.377 . S
C2240 C2242 1.384 . S
C2241 C2240 1.377 . S
C2241 C2247 1.390 . S
C2242 H2233 0.930 . S
C2242 C2240 1.384 . S
C2242 C2243 1.372 . S
C2243 C2242 1.372 . S
C2243 C2244 1.400 . S
C2243 C2248 1.490 . S
C2244 H2234 0.930 . S
C2244 C2243 1.400 . S
C2244 C2247 1.386 . S
H2245 C2261 0.930 . S
H2246 C2262 0.931 . S
C2247 H2235 0.929 . S
C2247 C2241 1.390 . S
C2247 C2244 1.386 . S
C2248 C2243 1.490 . S
C2248 C2250 1.395 . S
C2248 C2251 1.403 . S
H2249 C2255 0.930 . S
C2250 H2236 0.930 . S
C2250 C2248 1.395 . S
C2250 C2253 1.403 1_556 S
C2251 C2248 1.403 . S
C2251 C2252 1.524 . S
C2251 C2255 1.400 1_556 S
C2252 H2237 0.960 . S
C2252 H2238 0.960 . S
C2252 H2239 0.960 . S
C2252 C2251 1.524 . S
C2253 C2250 1.403 1_554 S
C2253 C2254 1.392 . S
C2253 C2257 1.495 . S
C2254 C2253 1.392 . S
C2254 C2255 1.385 . S
C2254 C2256 1.478 . S
C2255 H2249 0.930 . S
C2255 C2251 1.400 1_554 S
C2255 C2254 1.385 . S
C2256 C2254 1.478 . S
C2256 C2258 1.381 . S
C2256 C2262 1.383 . S
C2257 C2253 1.495 . S
C2257 H2263 0.959 . S
C2257 H2264 0.961 . S
C2257 H2265 0.960 . S
C2258 C2256 1.381 . S
C2258 C2259 1.394 . S
C2258 H2266 0.930 . S
C2259 C2258 1.394 . S
C2259 C2260 1.383 . S
C2259 H2267 0.929 . S
C2260 C2259 1.383 . S
C2260 C2261 1.377 . S
C2261 H2245 0.930 . S
C2261 C2260 1.377 . S
C2261 C2262 1.379 . S
C2262 H2246 0.931 . S
C2262 C2256 1.383 . S
C2262 C2261 1.379 . S
H2263 C2257 0.959 . S
H2264 C2257 0.961 . S
H2265 C2257 0.960 . S
H2266 C2258 0.930 . S
H2267 C2259 0.929 . S
H2268 C2276 0.929 . S
H2269 C2278 0.930 . S
H2270 C2280 0.930 . S
H2271 C2283 0.929 . S
H2272 C2286 0.930 . S
H2273 C2288 0.960 . S
H2274 C2288 0.960 . S
H2275 C2288 0.960 . S
C2276 H2268 0.929 . S
C2276 C2277 1.377 . S
C2276 C2278 1.384 . S
C2277 C2276 1.377 . S
C2277 C2283 1.390 . S
C2278 H2269 0.930 . S
C2278 C2276 1.384 . S
C2278 C2279 1.372 . S
C2279 C2278 1.372 . S
C2279 C2280 1.400 . S
C2279 C2284 1.490 . S
C2280 H2270 0.930 . S
C2280 C2279 1.400 . S
C2280 C2283 1.386 . S
H2281 C2297 0.930 . S
H2282 C2298 0.931 . S
C2283 H2271 0.929 . S
C2283 C2277 1.390 . S
C2283 C2280 1.386 . S
C2284 C2279 1.490 . S
C2284 C2286 1.395 . S
C2284 C2287 1.403 . S
H2285 C2291 0.930 . S
C2286 H2272 0.930 . S
C2286 C2284 1.395 . S
C2286 C2289 1.403 . S
C2287 C2284 1.403 . S
C2287 C2288 1.524 . S
C2287 C2291 1.400 . S
C2288 H2273 0.960 . S
C2288 H2274 0.960 . S
C2288 H2275 0.960 . S
C2288 C2287 1.524 . S
C2289 C2286 1.403 . S
C2289 C2290 1.392 . S
C2289 C2293 1.495 . S
C2290 C2289 1.392 . S
C2290 C2291 1.385 . S
C2290 C2292 1.478 . S
C2291 H2285 0.930 . S
C2291 C2287 1.400 . S
C2291 C2290 1.385 . S
C2292 C2290 1.478 . S
C2292 C2294 1.381 . S
C2292 C2298 1.383 . S
C2293 C2289 1.495 . S
C2293 H2299 0.959 . S
C2293 H2300 0.961 . S
C2293 H2301 0.960 . S
C2294 C2292 1.381 . S
C2294 C2295 1.394 . S
C2294 H2302 0.930 . S
C2295 C2294 1.394 . S
C2295 C2296 1.383 . S
C2295 H2303 0.929 . S
C2296 C2295 1.383 . S
C2296 C2297 1.377 . S
C2297 H2281 0.930 . S
C2297 C2296 1.377 . S
C2297 C2298 1.379 . S
C2298 H2282 0.931 . S
C2298 C2292 1.383 . S
C2298 C2297 1.379 . S
H2299 C2293 0.959 . S
H2300 C2293 0.961 . S
H2301 C2293 0.960 . S
H2302 C2294 0.930 . S
H2303 C2295 0.929 . S
H2304 C2312 0.929 . S
H2305 C2314 0.930 . S
H2306 C2316 0.930 . S
H2307 C2319 0.929 . S
H2308 C2322 0.930 . S
H2309 C2324 0.960 . S
H2310 C2324 0.960 . S
H2311 C2324 0.960 . S
C2312 H2304 0.929 . S
C2312 C2313 1.377 . S
C2312 C2314 1.384 . S
C2313 C2312 1.377 . S
C2313 C2319 1.390 . S
C2314 H2305 0.930 . S
C2314 C2312 1.384 . S
C2314 C2315 1.372 . S
C2315 C2314 1.372 . S
C2315 C2316 1.400 . S
C2315 C2320 1.490 . S
C2316 H2306 0.930 . S
C2316 C2315 1.400 . S
C2316 C2319 1.386 . S
H2317 C2333 0.930 . S
H2318 C2334 0.931 . S
C2319 H2307 0.929 . S
C2319 C2313 1.390 . S
C2319 C2316 1.386 . S
C2320 C2315 1.490 . S
C2320 C2322 1.395 . S
C2320 C2323 1.403 . S
H2321 C2327 0.930 . S
C2322 H2308 0.930 . S
C2322 C2320 1.395 . S
C2322 C2325 1.403 . S
C2323 C2320 1.403 . S
C2323 C2324 1.524 . S
C2323 C2327 1.400 . S
C2324 H2309 0.960 . S
C2324 H2310 0.960 . S
C2324 H2311 0.960 . S
C2324 C2323 1.524 . S
C2325 C2322 1.403 . S
C2325 C2326 1.392 . S
C2325 C2329 1.495 . S
C2326 C2325 1.392 . S
C2326 C2327 1.385 . S
C2326 C2328 1.478 . S
C2327 H2321 0.930 . S
C2327 C2323 1.400 . S
C2327 C2326 1.385 . S
C2328 C2326 1.478 . S
C2328 C2330 1.381 . S
C2328 C2334 1.383 . S
C2329 C2325 1.495 . S
C2329 H2335 0.959 . S
C2329 H2336 0.961 . S
C2329 H2337 0.960 . S
C2330 C2328 1.381 . S
C2330 C2331 1.394 . S
C2330 H2338 0.930 . S
C2331 C2330 1.394 . S
C2331 C2332 1.383 . S
C2331 H2339 0.929 . S
C2332 C2331 1.383 . S
C2332 C2333 1.377 . S
C2333 H2317 0.930 . S
C2333 C2332 1.377 . S
C2333 C2334 1.379 . S
C2334 H2318 0.931 . S
C2334 C2328 1.383 . S
C2334 C2333 1.379 . S
H2335 C2329 0.959 . S
H2336 C2329 0.961 . S
H2337 C2329 0.960 . S
H2338 C2330 0.930 . S
H2339 C2331 0.929 . S
H2340 C2348 0.929 . S
H2341 C2350 0.930 . S
H2342 C2352 0.930 . S
H2343 C2355 0.929 . S
H2344 C2358 0.930 . S
H2345 C2360 0.960 . S
H2346 C2360 0.960 . S
H2347 C2360 0.960 . S
C2348 H2340 0.929 . S
C2348 C2349 1.377 . S
C2348 C2350 1.384 . S
C2349 C2348 1.377 . S
C2349 C2355 1.390 . S
C2350 H2341 0.930 . S
C2350 C2348 1.384 . S
C2350 C2351 1.372 . S
C2351 C2350 1.372 . S
C2351 C2352 1.400 . S
C2351 C2356 1.490 . S
C2352 H2342 0.930 . S
C2352 C2351 1.400 . S
C2352 C2355 1.386 . S
H2353 C2369 0.930 . S
H2354 C2370 0.931 . S
C2355 H2343 0.929 . S
C2355 C2349 1.390 . S
C2355 C2352 1.386 . S
C2356 C2351 1.490 . S
C2356 C2358 1.395 . S
C2356 C2359 1.403 . S
H2357 C2363 0.930 . S
C2358 H2344 0.930 . S
C2358 C2356 1.395 . S
C2358 C2361 1.403 . S
C2359 C2356 1.403 . S
C2359 C2360 1.524 . S
C2359 C2363 1.400 . S
C2360 H2345 0.960 . S
C2360 H2346 0.960 . S
C2360 H2347 0.960 . S
C2360 C2359 1.524 . S
C2361 C2358 1.403 . S
C2361 C2362 1.392 . S
C2361 C2365 1.495 . S
C2362 C2361 1.392 . S
C2362 C2363 1.385 . S
C2362 C2364 1.478 . S
C2363 H2357 0.930 . S
C2363 C2359 1.400 . S
C2363 C2362 1.385 . S
C2364 C2362 1.478 . S
C2364 C2366 1.381 . S
C2364 C2370 1.383 . S
C2365 C2361 1.495 . S
C2365 H2371 0.959 . S
C2365 H2372 0.961 . S
C2365 H2373 0.960 . S
C2366 C2364 1.381 . S
C2366 C2367 1.394 . S
C2366 H2374 0.930 . S
C2367 C2366 1.394 . S
C2367 C2368 1.383 . S
C2367 H2375 0.929 . S
C2368 C2367 1.383 . S
C2368 C2369 1.377 . S
C2369 H2353 0.930 . S
C2369 C2368 1.377 . S
C2369 C2370 1.379 . S
C2370 H2354 0.931 . S
C2370 C2364 1.383 . S
C2370 C2369 1.379 . S
H2371 C2365 0.959 . S
H2372 C2365 0.961 . S
H2373 C2365 0.960 . S
H2374 C2366 0.930 . S
H2375 C2367 0.929 . S
H2376 C2384 0.929 . S
H2377 C2386 0.930 . S
H2378 C2388 0.930 . S
H2379 C2391 0.929 . S
H2380 C2394 0.930 . S
H2381 C2396 0.960 . S
H2382 C2396 0.960 . S
H2383 C2396 0.960 . S
C2384 H2376 0.929 . S
C2384 C2385 1.377 . S
C2384 C2386 1.384 . S
C2385 C2384 1.377 . S
C2385 C2391 1.390 . S
C2386 H2377 0.930 . S
C2386 C2384 1.384 . S
C2386 C2387 1.372 . S
C2387 C2386 1.372 . S
C2387 C2388 1.400 . S
C2387 C2392 1.490 . S
C2388 H2378 0.930 . S
C2388 C2387 1.400 . S
C2388 C2391 1.386 . S
H2389 C2405 0.930 . S
H2390 C2406 0.931 . S
C2391 H2379 0.929 . S
C2391 C2385 1.390 . S
C2391 C2388 1.386 . S
C2392 C2387 1.490 . S
C2392 C2394 1.395 . S
C2392 C2395 1.403 . S
H2393 C2399 0.930 . S
C2394 H2380 0.930 . S
C2394 C2392 1.395 . S
C2394 C2397 1.403 . S
C2395 C2392 1.403 . S
C2395 C2396 1.524 . S
C2395 C2399 1.400 . S
C2396 H2381 0.960 . S
C2396 H2382 0.960 . S
C2396 H2383 0.960 . S
C2396 C2395 1.524 . S
C2397 C2394 1.403 . S
C2397 C2398 1.392 . S
C2397 C2401 1.495 . S
C2398 C2397 1.392 . S
C2398 C2399 1.385 . S
C2398 C2400 1.478 . S
C2399 H2393 0.930 . S
C2399 C2395 1.400 . S
C2399 C2398 1.385 . S
C2400 C2398 1.478 . S
C2400 C2402 1.381 . S
C2400 C2406 1.383 . S
C2401 C2397 1.495 . S
C2401 H2407 0.959 . S
C2401 H2408 0.961 . S
C2401 H2409 0.960 . S
C2402 C2400 1.381 . S
C2402 C2403 1.394 . S
C2402 H2410 0.930 . S
C2403 C2402 1.394 . S
C2403 C2404 1.383 . S
C2403 H2411 0.929 . S
C2404 C2403 1.383 . S
C2404 C2405 1.377 . S
C2405 H2389 0.930 . S
C2405 C2404 1.377 . S
C2405 C2406 1.379 . S
C2406 H2390 0.931 . S
C2406 C2400 1.383 . S
C2406 C2405 1.379 . S
H2407 C2401 0.959 . S
H2408 C2401 0.961 . S
H2409 C2401 0.960 . S
H2410 C2402 0.930 . S
H2411 C2403 0.929 . S
H2412 C2420 0.929 . S
H2413 C2422 0.930 . S
H2414 C2424 0.930 . S
H2415 C2427 0.929 . S
H2416 C2430 0.930 . S
H2417 C2432 0.960 . S
H2418 C2432 0.960 . S
H2419 C2432 0.960 . S
C2420 H2412 0.929 . S
C2420 C2421 1.377 . S
C2420 C2422 1.384 . S
C2421 C2420 1.377 . S
C2421 C2427 1.390 . S
C2422 H2413 0.930 . S
C2422 C2420 1.384 . S
C2422 C2423 1.372 . S
C2423 C2422 1.372 . S
C2423 C2424 1.400 . S
C2423 C2428 1.490 . S
C2424 H2414 0.930 . S
C2424 C2423 1.400 . S
C2424 C2427 1.386 . S
H2425 C2441 0.930 . S
H2426 C2442 0.931 . S
C2427 H2415 0.929 . S
C2427 C2421 1.390 . S
C2427 C2424 1.386 . S
C2428 C2423 1.490 . S
C2428 C2430 1.395 . S
C2428 C2431 1.403 . S
H2429 C2435 0.930 . S
C2430 H2416 0.930 . S
C2430 C2428 1.395 . S
C2430 C2433 1.403 . S
C2431 C2428 1.403 . S
C2431 C2432 1.524 . S
C2431 C2435 1.400 . S
C2432 H2417 0.960 . S
C2432 H2418 0.960 . S
C2432 H2419 0.960 . S
C2432 C2431 1.524 . S
C2433 C2430 1.403 . S
C2433 C2434 1.392 . S
C2433 C2437 1.495 . S
C2434 C2433 1.392 . S
C2434 C2435 1.385 . S
C2434 C2436 1.478 . S
C2435 H2429 0.930 . S
C2435 C2431 1.400 . S
C2435 C2434 1.385 . S
C2436 C2434 1.478 . S
C2436 C2438 1.381 . S
C2436 C2442 1.383 . S
C2437 C2433 1.495 . S
C2437 H2443 0.959 . S
C2437 H2444 0.961 . S
C2437 H2445 0.960 . S
C2438 C2436 1.381 . S
C2438 C2439 1.394 . S
C2438 H2446 0.930 . S
C2439 C2438 1.394 . S
C2439 C2440 1.383 . S
C2439 H2447 0.929 . S
C2440 C2439 1.383 . S
C2440 C2441 1.377 . S
C2441 H2425 0.930 . S
C2441 C2440 1.377 . S
C2441 C2442 1.379 . S
C2442 H2426 0.931 . S
C2442 C2436 1.383 . S
C2442 C2441 1.379 . S
H2443 C2437 0.959 . S
H2444 C2437 0.961 . S
H2445 C2437 0.960 . S
H2446 C2438 0.930 . S
H2447 C2439 0.929 . S
H2448 C2456 0.929 . S
H2449 C2458 0.930 . S
H2450 C2460 0.930 . S
H2451 C2463 0.929 . S
H2452 C2466 0.930 . S
H2453 C2468 0.960 . S
H2454 C2468 0.960 . S
H2455 C2468 0.960 . S
C2456 H2448 0.929 . S
C2456 C2457 1.377 . S
C2456 C2458 1.384 . S
C2457 C2456 1.377 . S
C2457 C2463 1.390 . S
C2458 H2449 0.930 . S
C2458 C2456 1.384 . S
C2458 C2459 1.372 . S
C2459 C2458 1.372 . S
C2459 C2460 1.400 . S
C2459 C2464 1.490 . S
C2460 H2450 0.930 . S
C2460 C2459 1.400 . S
C2460 C2463 1.386 . S
H2461 C2477 0.930 . S
H2462 C2478 0.931 . S
C2463 H2451 0.929 . S
C2463 C2457 1.390 . S
C2463 C2460 1.386 . S
C2464 C2459 1.490 . S
C2464 C2466 1.395 . S
C2464 C2467 1.403 . S
H2465 C2471 0.930 . S
C2466 H2452 0.930 . S
C2466 C2464 1.395 . S
C2466 C2469 1.403 . S
C2467 C2464 1.403 . S
C2467 C2468 1.524 . S
C2467 C2471 1.400 . S
C2468 H2453 0.960 . S
C2468 H2454 0.960 . S
C2468 H2455 0.960 . S
C2468 C2467 1.524 . S
C2469 C2466 1.403 . S
C2469 C2470 1.392 . S
C2469 C2473 1.495 . S
C2470 C2469 1.392 . S
C2470 C2471 1.385 . S
C2470 C2472 1.478 . S
C2471 H2465 0.930 . S
C2471 C2467 1.400 . S
C2471 C2470 1.385 . S
C2472 C2470 1.478 . S
C2472 C2474 1.381 . S
C2472 C2478 1.383 . S
C2473 C2469 1.495 . S
C2473 H2479 0.959 . S
C2473 H2480 0.961 . S
C2473 H2481 0.960 . S
C2474 C2472 1.381 . S
C2474 C2475 1.394 . S
C2474 H2482 0.930 . S
C2475 C2474 1.394 . S
C2475 C2476 1.383 . S
C2475 H2483 0.929 . S
C2476 C2475 1.383 . S
C2476 C2477 1.377 . S
C2477 H2461 0.930 . S
C2477 C2476 1.377 . S
C2477 C2478 1.379 . S
C2478 H2462 0.931 . S
C2478 C2472 1.383 . S
C2478 C2477 1.379 . S
H2479 C2473 0.959 . S
H2480 C2473 0.961 . S
H2481 C2473 0.960 . S
H2482 C2474 0.930 . S
H2483 C2475 0.929 . S
H2484 C2492 0.929 . S
H2485 C2494 0.930 . S
H2486 C2496 0.930 . S
H2487 C2499 0.929 . S
H2488 C2502 0.930 . S
H2489 C2504 0.960 . S
H2490 C2504 0.960 . S
H2491 C2504 0.960 . S
C2492 H2484 0.929 . S
C2492 C2493 1.377 . S
C2492 C2494 1.384 . S
C2493 C2492 1.377 . S
C2493 C2499 1.390 . S
C2494 H2485 0.930 . S
C2494 C2492 1.384 . S
C2494 C2495 1.372 . S
C2495 C2494 1.372 . S
C2495 C2496 1.400 . S
C2495 C2500 1.490 . S
C2496 H2486 0.930 . S
C2496 C2495 1.400 . S
C2496 C2499 1.386 . S
H2497 C2513 0.940 . S
H2498 C2514 0.931 . S
C2499 H2487 0.929 . S
C2499 C2493 1.390 . S
C2499 C2496 1.386 . S
C2500 C2495 1.490 . S
C2500 C2502 1.395 . S
C2500 C2503 1.403 . S
H2501 C2507 0.930 . S
C2502 H2488 0.930 . S
C2502 C2500 1.395 . S
C2502 C2505 1.403 . S
C2503 C2500 1.403 . S
C2503 C2504 1.524 . S
C2503 C2507 1.400 . S
C2504 H2489 0.960 . S
C2504 H2490 0.960 . S
C2504 H2491 0.960 . S
C2504 C2503 1.524 . S
C2505 C2502 1.403 . S
C2505 C2506 1.392 . S
C2505 C2509 1.495 . S
C2506 C2505 1.392 . S
C2506 C2507 1.385 . S
C2506 C2508 1.478 . S
C2507 H2501 0.930 . S
C2507 C2503 1.400 . S
C2507 C2506 1.385 . S
C2508 C2506 1.478 . S
C2508 C2510 1.381 . S
C2508 C2514 1.383 . S
C2509 C2505 1.495 . S
C2509 H2515 0.959 . S
C2509 H2516 0.961 . S
C2509 H2517 0.960 . S
C2510 C2508 1.381 . S
C2510 C2511 1.394 . S
C2510 H2518 0.930 . S
C2511 C2510 1.394 . S
C2511 C2512 1.383 . S
C2511 H2519 0.929 . S
C2512 C2511 1.383 . S
C2512 C2513 1.377 . S
C2513 H2497 0.940 . S
C2513 C2512 1.377 . S
C2513 C2514 1.379 . S
C2514 H2498 0.931 . S
C2514 C2508 1.383 . S
C2514 C2513 1.379 . S
H2515 C2509 0.959 . S
H2516 C2509 0.961 . S
H2517 C2509 0.960 . S
H2518 C2510 0.930 . S
H2519 C2511 0.929 . S
H2520 C2528 0.929 . S
H2521 C2530 0.930 . S
H2522 C2532 0.930 . S
H2523 C2535 0.929 . S
H2524 C2538 0.930 . S
H2525 C2540 0.960 . S
H2526 C2540 0.960 . S
H2527 C2540 0.960 . S
C2528 H2520 0.929 . S
C2528 C2529 1.377 . S
C2528 C2530 1.384 . S
C2529 C2528 1.377 . S
C2529 C2535 1.390 . S
C2530 H2521 0.930 . S
C2530 C2528 1.384 . S
C2530 C2531 1.372 . S
C2531 C2530 1.372 . S
C2531 C2532 1.400 . S
C2531 C2536 1.490 . S
C2532 H2522 0.930 . S
C2532 C2531 1.400 . S
C2532 C2535 1.386 . S
H2533 C2549 0.930 . S
H2534 C2550 0.931 . S
C2535 H2523 0.929 . S
C2535 C2529 1.390 . S
C2535 C2532 1.386 . S
C2536 C2531 1.490 . S
C2536 C2538 1.395 . S
C2536 C2539 1.403 . S
H2537 C2543 0.930 . S
C2538 H2524 0.930 . S
C2538 C2536 1.395 . S
C2538 C2541 1.403 . S
C2539 C2536 1.403 . S
C2539 C2540 1.524 . S
C2539 C2543 1.400 . S
C2540 H2525 0.960 . S
C2540 H2526 0.960 . S
C2540 H2527 0.960 . S
C2540 C2539 1.524 . S
C2541 C2538 1.403 . S
C2541 C2542 1.392 . S
C2541 C2545 1.495 . S
C2542 C2541 1.392 . S
C2542 C2543 1.385 . S
C2542 C2544 1.478 . S
C2543 H2537 0.930 . S
C2543 C2539 1.400 . S
C2543 C2542 1.385 . S
C2544 C2542 1.478 . S
C2544 C2546 1.381 . S
C2544 C2550 1.383 . S
C2545 C2541 1.495 . S
C2545 H2551 0.959 . S
C2545 H2552 0.961 . S
C2545 H2553 0.960 . S
C2546 C2544 1.381 . S
C2546 C2547 1.394 . S
C2546 H2554 0.930 . S
C2547 C2546 1.394 . S
C2547 C2548 1.383 . S
C2547 H2555 0.929 . S
C2548 C2547 1.383 . S
C2548 C2549 1.377 . S
C2549 H2533 0.930 . S
C2549 C2548 1.377 . S
C2549 C2550 1.379 . S
C2550 H2534 0.931 . S
C2550 C2544 1.383 . S
C2550 C2549 1.379 . S
H2551 C2545 0.959 . S
H2552 C2545 0.961 . S
H2553 C2545 0.960 . S
H2554 C2546 0.930 . S
H2555 C2547 0.929 . S
H2556 C2564 0.929 . S
H2557 C2566 0.930 . S
H2558 C2568 0.930 . S
H2559 C2571 0.929 . S
H2560 C2574 0.930 . S
H2561 C2576 0.960 . S
H2562 C2576 0.960 . S
H2563 C2576 0.960 . S
C2564 H2556 0.929 . S
C2564 C2565 1.377 . S
C2564 C2566 1.384 . S
C2565 C2564 1.377 . S
C2565 C2571 1.390 . S
C2566 H2557 0.930 . S
C2566 C2564 1.384 . S
C2566 C2567 1.372 . S
C2567 C2566 1.372 . S
C2567 C2568 1.400 . S
C2567 C2572 1.490 . S
C2568 H2558 0.930 . S
C2568 C2567 1.400 . S
C2568 C2571 1.386 . S
H2569 C2585 0.930 . S
H2570 C2586 0.931 . S
C2571 H2559 0.929 . S
C2571 C2565 1.390 . S
C2571 C2568 1.386 . S
C2572 C2567 1.490 . S
C2572 C2574 1.395 . S
C2572 C2575 1.403 . S
H2573 C2579 0.930 . S
C2574 H2560 0.930 . S
C2574 C2572 1.395 . S
C2574 C2577 1.403 . S
C2575 C2572 1.403 . S
C2575 C2576 1.524 . S
C2575 C2579 1.400 . S
C2576 H2561 0.960 . S
C2576 H2562 0.960 . S
C2576 H2563 0.960 . S
C2576 C2575 1.524 . S
C2577 C2574 1.403 . S
C2577 C2578 1.392 . S
C2577 C2581 1.495 . S
C2578 C2577 1.392 . S
C2578 C2579 1.385 . S
C2578 C2580 1.478 . S
C2579 H2573 0.930 . S
C2579 C2575 1.400 . S
C2579 C2578 1.385 . S
C2580 C2578 1.478 . S
C2580 C2582 1.381 . S
C2580 C2586 1.383 . S
C2581 C2577 1.495 . S
C2581 H2587 0.959 . S
C2581 H2588 0.961 . S
C2581 H2589 0.960 . S
C2582 C2580 1.381 . S
C2582 C2583 1.394 . S
C2582 H2590 0.930 . S
C2583 C2582 1.394 . S
C2583 C2584 1.383 . S
C2583 H2591 0.929 . S
C2584 C2583 1.383 . S
C2584 C2585 1.377 . S
C2585 H2569 0.930 . S
C2585 C2584 1.377 . S
C2585 C2586 1.379 . S
C2586 H2570 0.931 . S
C2586 C2580 1.383 . S
C2586 C2585 1.379 . S
H2587 C2581 0.959 . S
H2588 C2581 0.961 . S
H2589 C2581 0.960 . S
H2590 C2582 0.930 . S
H2591 C2583 0.929 . S
H2592 C2600 0.929 . S
H2593 C2602 0.930 . S
H2594 C2604 0.930 . S
H2595 C2607 0.929 1_455 S
H2596 C2610 0.930 . S
H2597 C2612 0.960 . S
H2598 C2612 0.960 . S
H2599 C2612 0.960 . S
C2600 H2592 0.929 . S
C2600 C2601 1.377 . S
C2600 C2602 1.384 . S
C2601 C2600 1.377 . S
C2601 C2607 1.390 . S
C2602 H2593 0.930 . S
C2602 C2600 1.384 . S
C2602 C2603 1.372 . S
C2603 C2602 1.372 . S
C2603 C2604 1.400 . S
C2603 C2608 1.490 . S
C2604 H2594 0.930 . S
C2604 C2603 1.400 . S
C2604 C2607 1.386 . S
H2605 C2621 0.930 . S
H2606 C2622 0.931 . S
C2607 H2595 0.929 1_655 S
C2607 C2601 1.390 . S
C2607 C2604 1.386 . S
C2608 C2603 1.490 . S
C2608 C2610 1.395 . S
C2608 C2611 1.403 . S
H2609 C2615 0.930 . S
C2610 H2596 0.930 . S
C2610 C2608 1.395 . S
C2610 C2613 1.403 . S
C2611 C2608 1.403 . S
C2611 C2612 1.524 . S
C2611 C2615 1.400 . S
C2612 H2597 0.960 . S
C2612 H2598 0.960 . S
C2612 H2599 0.960 . S
C2612 C2611 1.524 . S
C2613 C2610 1.403 . S
C2613 C2614 1.392 . S
C2613 C2617 1.495 . S
C2614 C2613 1.392 . S
C2614 C2615 1.385 . S
C2614 C2616 1.478 . S
C2615 H2609 0.930 . S
C2615 C2611 1.400 . S
C2615 C2614 1.385 . S
C2616 C2614 1.478 . S
C2616 C2618 1.381 . S
C2616 C2622 1.383 . S
C2617 C2613 1.495 . S
C2617 H2623 0.959 . S
C2617 H2624 0.961 . S
C2617 H2625 0.960 . S
C2618 C2616 1.381 . S
C2618 C2619 1.394 . S
C2618 H2626 0.930 . S
C2619 C2618 1.394 . S
C2619 C2620 1.383 . S
C2619 H2627 0.929 . S
C2620 C2619 1.383 . S
C2620 C2621 1.377 . S
C2621 H2605 0.930 . S
C2621 C2620 1.377 . S
C2621 C2622 1.379 . S
C2622 H2606 0.931 . S
C2622 C2616 1.383 . S
C2622 C2621 1.379 . S
H2623 C2617 0.959 . S
H2624 C2617 0.961 . S
H2625 C2617 0.960 . S
H2626 C2618 0.930 . S
H2627 C2619 0.929 . S
H2628 C2636 0.929 . S
H2629 C2638 0.930 . S
H2630 C2640 0.930 . S
H2631 C2643 0.929 . S
H2632 C2646 0.930 . S
H2633 C2648 0.960 . S
H2634 C2648 0.960 . S
H2635 C2648 0.960 . S
C2636 H2628 0.929 . S
C2636 C2637 1.377 . S
C2636 C2638 1.384 . S
C2637 C2636 1.377 . S
C2637 C2643 1.390 . S
C2638 H2629 0.930 . S
C2638 C2636 1.384 . S
C2638 C2639 1.372 . S
C2639 C2638 1.372 . S
C2639 C2640 1.400 . S
C2639 C2644 1.490 . S
C2640 H2630 0.930 . S
C2640 C2639 1.400 . S
C2640 C2643 1.386 . S
H2641 C2657 0.930 . S
H2642 C2658 0.931 . S
C2643 H2631 0.929 . S
C2643 C2637 1.390 . S
C2643 C2640 1.386 . S
C2644 C2639 1.490 . S
C2644 C2646 1.395 . S
C2644 C2647 1.403 . S
H2645 C2651 0.930 . S
C2646 H2632 0.930 . S
C2646 C2644 1.395 . S
C2646 C2649 1.403 . S
C2647 C2644 1.403 . S
C2647 C2648 1.524 . S
C2647 C2651 1.400 . S
C2648 H2633 0.960 . S
C2648 H2634 0.960 . S
C2648 H2635 0.960 . S
C2648 C2647 1.524 . S
C2649 C2646 1.403 . S
C2649 C2650 1.392 . S
C2649 C2653 1.495 . S
C2650 C2649 1.392 . S
C2650 C2651 1.385 . S
C2650 C2652 1.478 . S
C2651 H2645 0.930 . S
C2651 C2647 1.400 . S
C2651 C2650 1.385 . S
C2652 C2650 1.478 . S
C2652 C2654 1.381 . S
C2652 C2658 1.383 . S
C2653 C2649 1.495 . S
C2653 H2659 0.959 . S
C2653 H2660 0.961 . S
C2653 H2661 0.960 . S
C2654 C2652 1.381 . S
C2654 C2655 1.394 . S
C2654 H2662 0.930 . S
C2655 C2654 1.394 . S
C2655 C2656 1.383 . S
C2655 H2663 0.929 . S
C2656 C2655 1.383 . S
C2656 C2657 1.377 . S
C2657 H2641 0.930 . S
C2657 C2656 1.377 . S
C2657 C2658 1.379 . S
C2658 H2642 0.931 . S
C2658 C2652 1.383 . S
C2658 C2657 1.379 . S
H2659 C2653 0.959 . S
H2660 C2653 0.961 . S
H2661 C2653 0.960 . S
H2662 C2654 0.930 . S
H2663 C2655 0.929 . S
H2664 C2672 0.929 . S
H2665 C2674 0.930 . S
H2666 C2676 0.930 . S
H2667 C2679 0.929 . S
H2668 C2682 0.930 . S
H2669 C2684 0.960 . S
H2670 C2684 0.960 . S
H2671 C2684 0.960 . S
C2672 H2664 0.929 . S
C2672 C2673 1.377 . S
C2672 C2674 1.384 . S
C2673 C2672 1.377 . S
C2673 C2679 1.390 . S
C2674 H2665 0.930 . S
C2674 C2672 1.384 . S
C2674 C2675 1.372 . S
C2675 C2674 1.372 . S
C2675 C2676 1.400 . S
C2675 C2680 1.490 . S
C2676 H2666 0.930 . S
C2676 C2675 1.400 . S
C2676 C2679 1.386 . S
H2677 C2693 0.930 . S
H2678 C2694 0.931 . S
C2679 H2667 0.929 . S
C2679 C2673 1.390 . S
C2679 C2676 1.386 . S
C2680 C2675 1.490 . S
C2680 C2682 1.395 . S
C2680 C2683 1.403 . S
H2681 C2687 0.930 . S
C2682 H2668 0.930 . S
C2682 C2680 1.395 . S
C2682 C2685 1.403 . S
C2683 C2680 1.403 . S
C2683 C2684 1.524 . S
C2683 C2687 1.400 . S
C2684 H2669 0.960 . S
C2684 H2670 0.960 . S
C2684 H2671 0.960 . S
C2684 C2683 1.524 . S
C2685 C2682 1.403 . S
C2685 C2686 1.392 . S
C2685 C2689 1.495 . S
C2686 C2685 1.392 . S
C2686 C2687 1.385 . S
C2686 C2688 1.478 . S
C2687 H2681 0.930 . S
C2687 C2683 1.400 . S
C2687 C2686 1.385 . S
C2688 C2686 1.478 . S
C2688 C2690 1.381 . S
C2688 C2694 1.383 . S
C2689 C2685 1.495 . S
C2689 H2695 0.959 . S
C2689 H2696 0.961 . S
C2689 H2697 0.960 . S
C2690 C2688 1.381 . S
C2690 C2691 1.394 . S
C2690 H2698 0.930 . S
C2691 C2690 1.394 . S
C2691 C2692 1.383 . S
C2691 H2699 0.929 . S
C2692 C2691 1.383 . S
C2692 C2693 1.377 . S
C2693 H2677 0.930 . S
C2693 C2692 1.377 . S
C2693 C2694 1.379 . S
C2694 H2678 0.931 . S
C2694 C2688 1.383 . S
C2694 C2693 1.379 . S
H2695 C2689 0.959 . S
H2696 C2689 0.961 . S
H2697 C2689 0.960 . S
H2698 C2690 0.930 . S
H2699 C2691 0.929 . S
H2700 C2708 0.929 . S
H2701 C2710 0.930 1_455 S
H2702 C2712 0.930 . S
H2703 C2715 0.929 . S
H2704 C2718 0.930 . S
H2705 C2720 0.960 . S
H2706 C2720 0.960 . S
H2707 C2720 0.960 . S
C2708 H2700 0.929 . S
C2708 C2709 1.377 . S
C2708 C2710 1.384 . S
C2709 C2708 1.377 . S
C2709 C2715 1.390 . S
C2710 H2701 0.930 1_655 S
C2710 C2708 1.384 . S
C2710 C2711 1.372 . S
C2711 C2710 1.372 . S
C2711 C2712 1.400 . S
C2711 C2716 1.490 1_655 S
C2712 H2702 0.930 . S
C2712 C2711 1.400 . S
C2712 C2715 1.386 . S
H2713 C2729 0.930 . S
H2714 C2730 0.931 . S
C2715 H2703 0.929 . S
C2715 C2709 1.390 . S
C2715 C2712 1.386 . S
C2716 C2711 1.490 1_455 S
C2716 C2718 1.395 . S
C2716 C2719 1.403 . S
H2717 C2723 0.930 . S
C2718 H2704 0.930 . S
C2718 C2716 1.395 . S
C2718 C2721 1.403 . S
C2719 C2716 1.403 . S
C2719 C2720 1.524 1_455 S
C2719 C2723 1.400 . S
C2720 H2705 0.960 . S
C2720 H2706 0.960 . S
C2720 H2707 0.960 . S
C2720 C2719 1.524 1_655 S
C2721 C2718 1.403 . S
C2721 C2722 1.392 . S
C2721 C2725 1.495 . S
C2722 C2721 1.392 . S
C2722 C2723 1.385 . S
C2722 C2724 1.478 . S
C2723 H2717 0.930 . S
C2723 C2719 1.400 . S
C2723 C2722 1.385 . S
C2724 C2722 1.478 . S
C2724 C2726 1.381 . S
C2724 C2730 1.383 . S
C2725 C2721 1.495 . S
C2725 H2731 0.959 . S
C2725 H2732 0.961 . S
C2725 H2733 0.960 . S
C2726 C2724 1.381 . S
C2726 C2727 1.394 . S
C2726 H2734 0.930 . S
C2727 C2726 1.394 . S
C2727 C2728 1.383 . S
C2727 H2735 0.929 . S
C2728 C2727 1.383 . S
C2728 C2729 1.377 . S
C2729 H2713 0.930 . S
C2729 C2728 1.377 . S
C2729 C2730 1.379 . S
C2730 H2714 0.931 . S
C2730 C2724 1.383 . S
C2730 C2729 1.379 . S
H2731 C2725 0.959 . S
H2732 C2725 0.961 . S
H2733 C2725 0.960 . S
H2734 C2726 0.930 . S
H2735 C2727 0.929 . S
H2736 C2744 0.929 . S
H2737 C2746 0.930 . S
H2738 C2748 0.930 . S
H2739 C2751 0.929 . S
H2740 C2754 0.930 . S
H2741 C2756 0.960 . S
H2742 C2756 0.960 . S
H2743 C2756 0.960 . S
C2744 H2736 0.929 . S
C2744 C2745 1.377 . S
C2744 C2746 1.384 . S
C2745 C2744 1.377 . S
C2745 C2751 1.390 . S
C2746 H2737 0.930 . S
C2746 C2744 1.384 . S
C2746 C2747 1.372 . S
C2747 C2746 1.372 . S
C2747 C2748 1.400 . S
C2747 C2752 1.490 . S
C2748 H2738 0.930 . S
C2748 C2747 1.400 . S
C2748 C2751 1.386 . S
H2749 C2765 0.930 . S
H2750 C2766 0.931 . S
C2751 H2739 0.929 . S
C2751 C2745 1.390 . S
C2751 C2748 1.386 . S
C2752 C2747 1.490 . S
C2752 C2754 1.395 . S
C2752 C2755 1.403 . S
H2753 C2759 0.930 . S
C2754 H2740 0.930 . S
C2754 C2752 1.395 . S
C2754 C2757 1.403 . S
C2755 C2752 1.403 . S
C2755 C2756 1.524 . S
C2755 C2759 1.400 . S
C2756 H2741 0.960 . S
C2756 H2742 0.960 . S
C2756 H2743 0.960 . S
C2756 C2755 1.524 . S
C2757 C2754 1.403 . S
C2757 C2758 1.392 . S
C2757 C2761 1.495 . S
C2758 C2757 1.392 . S
C2758 C2759 1.385 . S
C2758 C2760 1.478 . S
C2759 H2753 0.930 . S
C2759 C2755 1.400 . S
C2759 C2758 1.385 . S
C2760 C2758 1.478 . S
C2760 C2762 1.381 . S
C2760 C2766 1.383 . S
C2761 C2757 1.495 . S
C2761 H2767 0.959 . S
C2761 H2768 0.961 . S
C2761 H2769 0.960 . S
C2762 C2760 1.381 . S
C2762 C2763 1.394 . S
C2762 H2770 0.930 . S
C2763 C2762 1.394 . S
C2763 C2764 1.383 . S
C2763 H2771 0.929 . S
C2764 C2763 1.383 . S
C2764 C2765 1.377 . S
C2765 H2749 0.930 . S
C2765 C2764 1.377 . S
C2765 C2766 1.379 . S
C2766 H2750 0.931 . S
C2766 C2760 1.383 . S
C2766 C2765 1.379 . S
H2767 C2761 0.959 . S
H2768 C2761 0.961 . S
H2769 C2761 0.960 . S
H2770 C2762 0.930 . S
H2771 C2763 0.929 . S
H2772 C2780 0.929 . S
H2773 C2782 0.930 . S
H2774 C2784 0.930 1_545 S
H2775 C2787 0.929 . S
H2776 C2790 0.930 . S
H2777 C2792 0.960 . S
H2778 C2792 0.960 . S
H2779 C2792 0.960 . S
C2780 H2772 0.929 . S
C2780 C2781 1.377 . S
C2780 C2782 1.384 . S
C2781 C2780 1.377 . S
C2781 C2787 1.390 . S
C2782 H2773 0.930 . S
C2782 C2780 1.384 . S
C2782 C2783 1.372 . S
C2783 C2782 1.372 . S
C2783 C2784 1.400 . S
C2783 C2788 1.472 1_565 S
C2784 H2774 0.930 1_565 S
C2784 C2783 1.400 . S
C2784 C2787 1.386 . S
H2785 C2801 0.930 . S
H2786 C2802 0.931 . S
C2787 H2775 0.929 . S
C2787 C2781 1.390 . S
C2787 C2784 1.386 . S
C2788 C2783 1.472 1_545 S
C2788 C2790 1.382 1_545 S
C2788 C2791 1.433 . S
H2789 C2795 0.930 . S
C2790 H2776 0.930 . S
C2790 C2788 1.382 1_565 S
C2790 C2793 1.403 1_565 S
C2791 C2788 1.433 . S
C2791 C2792 1.524 . S
C2791 C2795 1.400 . S
C2792 H2777 0.960 . S
C2792 H2778 0.960 . S
C2792 H2779 0.960 . S
C2792 C2791 1.524 . S
C2793 C2790 1.403 1_545 S
C2793 C2794 1.392 . S
C2793 C2797 1.495 . S
C2794 C2793 1.392 . S
C2794 C2795 1.385 . S
C2794 C2796 1.478 . S
C2795 H2789 0.930 . S
C2795 C2791 1.400 . S
C2795 C2794 1.385 . S
C2796 C2794 1.478 . S
C2796 C2798 1.381 . S
C2796 C2802 1.383 . S
C2797 C2793 1.495 . S
C2797 H2803 0.959 1_545 S
C2797 H2804 0.961 . S
C2797 H2805 0.960 . S
C2798 C2796 1.381 . S
C2798 C2799 1.394 . S
C2798 H2806 0.930 . S
C2799 C2798 1.394 . S
C2799 C2800 1.383 . S
C2799 H2807 0.929 . S
C2800 C2799 1.383 . S
C2800 C2801 1.377 . S
C2801 H2785 0.930 . S
C2801 C2800 1.377 . S
C2801 C2802 1.379 . S
C2802 H2786 0.931 . S
C2802 C2796 1.383 . S
C2802 C2801 1.379 . S
H2803 C2797 0.959 1_565 S
H2804 C2797 0.961 . S
H2805 C2797 0.960 . S
H2806 C2798 0.930 . S
H2807 C2799 0.929 . S
H2808 C2816 0.929 . S
H2809 C2818 0.930 . S
H2810 C2820 0.930 . S
H2811 C2823 0.929 . S
H2812 C2826 0.930 . S
H2813 C2828 0.960 . S
H2814 C2828 0.960 . S
H2815 C2828 0.960 . S
C2816 H2808 0.929 . S
C2816 C2817 1.377 . S
C2816 C2818 1.384 . S
C2817 C2816 1.377 . S
C2817 C2823 1.390 . S
C2818 H2809 0.930 . S
C2818 C2816 1.384 . S
C2818 C2819 1.372 . S
C2819 C2818 1.372 . S
C2819 C2820 1.400 . S
C2819 C2824 1.490 . S
C2820 H2810 0.930 . S
C2820 C2819 1.400 . S
C2820 C2823 1.386 . S
H2821 C2837 0.930 . S
H2822 C2838 0.931 . S
C2823 H2811 0.929 . S
C2823 C2817 1.390 . S
C2823 C2820 1.386 . S
C2824 C2819 1.490 . S
C2824 C2826 1.395 . S
C2824 C2827 1.403 . S
H2825 C2831 0.930 . S
C2826 H2812 0.930 . S
C2826 C2824 1.395 . S
C2826 C2829 1.403 . S
C2827 C2824 1.403 . S
C2827 C2828 1.524 . S
C2827 C2831 1.400 . S
C2828 H2813 0.960 . S
C2828 H2814 0.960 . S
C2828 H2815 0.960 . S
C2828 C2827 1.524 . S
C2829 C2826 1.403 . S
C2829 C2830 1.392 . S
C2829 C2833 1.495 . S
C2830 C2829 1.392 . S
C2830 C2831 1.385 . S
C2830 C2832 1.478 . S
C2831 H2825 0.930 . S
C2831 C2827 1.400 . S
C2831 C2830 1.385 . S
C2832 C2830 1.478 . S
C2832 C2834 1.381 . S
C2832 C2838 1.383 . S
C2833 C2829 1.495 . S
C2833 H2839 0.959 . S
C2833 H2840 0.961 . S
C2833 H2841 0.960 . S
C2834 C2832 1.381 . S
C2834 C2835 1.394 . S
C2834 H2842 0.930 . S
C2835 C2834 1.394 . S
C2835 C2836 1.383 . S
C2835 H2843 0.929 . S
C2836 C2835 1.383 . S
C2836 C2837 1.377 . S
C2837 H2821 0.930 . S
C2837 C2836 1.377 . S
C2837 C2838 1.379 . S
C2838 H2822 0.931 . S
C2838 C2832 1.383 . S
C2838 C2837 1.379 . S
H2839 C2833 0.959 . S
H2840 C2833 0.961 . S
H2841 C2833 0.960 . S
H2842 C2834 0.930 . S
H2843 C2835 0.929 . S
H2844 C2852 0.929 . S
H2845 C2854 0.930 . S
H2846 C2856 0.930 . S
H2847 C2859 0.929 . S
H2848 C2862 0.930 . S
H2849 C2864 0.960 . S
H2850 C2864 0.960 . S
H2851 C2864 0.960 . S
C2852 H2844 0.929 . S
C2852 C2853 1.377 . S
C2852 C2854 1.384 . S
C2853 C2852 1.377 . S
C2853 C2859 1.390 . S
C2854 H2845 0.930 . S
C2854 C2852 1.384 . S
C2854 C2855 1.372 . S
C2855 C2854 1.372 . S
C2855 C2856 1.400 . S
C2855 C2860 1.490 . S
C2856 H2846 0.930 . S
C2856 C2855 1.400 . S
C2856 C2859 1.386 . S
H2857 C2873 0.930 . S
H2858 C2874 0.931 . S
C2859 H2847 0.929 . S
C2859 C2853 1.390 . S
C2859 C2856 1.386 . S
C2860 C2855 1.490 . S
C2860 C2862 1.395 . S
C2860 C2863 1.403 . S
H2861 C2867 0.930 . S
C2862 H2848 0.930 . S
C2862 C2860 1.395 . S
C2862 C2865 1.403 . S
C2863 C2860 1.403 . S
C2863 C2864 1.524 . S
C2863 C2867 1.400 . S
C2864 H2849 0.960 . S
C2864 H2850 0.960 . S
C2864 H2851 0.960 . S
C2864 C2863 1.524 . S
C2865 C2862 1.403 . S
C2865 C2866 1.392 . S
C2865 C2869 1.495 . S
C2866 C2865 1.392 . S
C2866 C2867 1.385 . S
C2866 C2868 1.478 . S
C2867 H2861 0.930 . S
C2867 C2863 1.400 . S
C2867 C2866 1.385 . S
C2868 C2866 1.478 . S
C2868 C2870 1.381 . S
C2868 C2874 1.383 . S
C2869 C2865 1.495 . S
C2869 H2875 0.959 . S
C2869 H2876 0.961 . S
C2869 H2877 0.960 . S
C2870 C2868 1.381 . S
C2870 C2871 1.394 . S
C2870 H2878 0.930 . S
C2871 C2870 1.394 . S
C2871 C2872 1.383 . S
C2871 H2879 0.929 . S
C2872 C2871 1.383 . S
C2872 C2873 1.377 . S
C2873 H2857 0.930 . S
C2873 C2872 1.377 . S
C2873 C2874 1.379 . S
C2874 H2858 0.931 . S
C2874 C2868 1.383 . S
C2874 C2873 1.379 . S
H2875 C2869 0.959 . S
H2876 C2869 0.961 . S
H2877 C2869 0.960 . S
H2878 C2870 0.930 . S
H2879 C2871 0.929 . S
H2880 C2888 0.929 . S
H2881 C2890 0.930 . S
H2882 C2892 0.930 . S
H2883 C2895 0.929 . S
H2884 C2898 0.930 . S
H2885 C2900 0.960 . S
H2886 C2900 0.960 . S
H2887 C2900 0.960 . S
C2888 H2880 0.929 . S
C2888 C2889 1.377 . S
C2888 C2890 1.384 . S
C2889 C2888 1.377 . S
C2889 C2895 1.390 . S
C2890 H2881 0.930 . S
C2890 C2888 1.384 . S
C2890 C2891 1.372 . S
C2891 C2890 1.372 . S
C2891 C2892 1.400 . S
C2891 C2896 1.490 . S
C2892 H2882 0.930 . S
C2892 C2891 1.400 . S
C2892 C2895 1.386 . S
H2893 C2909 0.930 . S
H2894 C2910 0.931 . S
C2895 H2883 0.929 . S
C2895 C2889 1.390 . S
C2895 C2892 1.386 . S
C2896 C2891 1.490 . S
C2896 C2898 1.395 . S
C2896 C2899 1.403 . S
H2897 C2903 0.930 . S
C2898 H2884 0.930 . S
C2898 C2896 1.395 . S
C2898 C2901 1.403 . S
C2899 C2896 1.403 . S
C2899 C2900 1.524 . S
C2899 C2903 1.400 . S
C2900 H2885 0.960 . S
C2900 H2886 0.960 . S
C2900 H2887 0.960 . S
C2900 C2899 1.524 . S
C2901 C2898 1.403 . S
C2901 C2902 1.392 . S
C2901 C2905 1.495 . S
C2902 C2901 1.392 . S
C2902 C2903 1.385 . S
C2902 C2904 1.478 . S
C2903 H2897 0.930 . S
C2903 C2899 1.400 . S
C2903 C2902 1.385 . S
C2904 C2902 1.478 . S
C2904 C2906 1.381 . S
C2904 C2910 1.383 . S
C2905 C2901 1.495 . S
C2905 H2911 0.959 . S
C2905 H2912 0.961 . S
C2905 H2913 0.960 . S
C2906 C2904 1.381 . S
C2906 C2907 1.394 . S
C2906 H2914 0.930 . S
C2907 C2906 1.394 . S
C2907 C2908 1.383 . S
C2907 H2915 0.929 . S
C2908 C2907 1.383 . S
C2908 C2909 1.377 . S
C2909 H2893 0.930 . S
C2909 C2908 1.377 . S
C2909 C2910 1.379 . S
C2910 H2894 0.931 . S
C2910 C2904 1.383 . S
C2910 C2909 1.379 . S
H2911 C2905 0.959 . S
H2912 C2905 0.961 . S
H2913 C2905 0.960 . S
H2914 C2906 0.930 . S
H2915 C2907 0.929 . S
H2916 C2924 0.929 . S
H2917 C2926 0.930 . S
H2918 C2928 0.930 . S
H2919 C2931 0.929 . S
H2920 C2934 0.930 . S
H2921 C2936 0.960 . S
H2922 C2936 0.960 . S
H2923 C2936 0.960 . S
C2924 H2916 0.929 . S
C2924 C2925 1.377 . S
C2924 C2926 1.384 . S
C2925 C2924 1.377 . S
C2925 C2931 1.390 . S
C2926 H2917 0.930 . S
C2926 C2924 1.384 . S
C2926 C2927 1.372 . S
C2927 C2926 1.372 . S
C2927 C2928 1.400 . S
C2927 C2932 1.490 . S
C2928 H2918 0.930 . S
C2928 C2927 1.400 . S
C2928 C2931 1.386 . S
H2929 C2945 0.930 . S
H2930 C2946 0.931 . S
C2931 H2919 0.929 . S
C2931 C2925 1.390 . S
C2931 C2928 1.386 . S
C2932 C2927 1.490 . S
C2932 C2934 1.395 . S
C2932 C2935 1.403 . S
H2933 C2939 0.930 . S
C2934 H2920 0.930 . S
C2934 C2932 1.395 . S
C2934 C2937 1.403 . S
C2935 C2932 1.403 . S
C2935 C2936 1.524 . S
C2935 C2939 1.400 . S
C2936 H2921 0.960 . S
C2936 H2922 0.960 . S
C2936 H2923 0.960 . S
C2936 C2935 1.524 . S
C2937 C2934 1.403 . S
C2937 C2938 1.392 . S
C2937 C2941 1.495 . S
C2938 C2937 1.392 . S
C2938 C2939 1.385 . S
C2938 C2940 1.478 . S
C2939 H2933 0.930 . S
C2939 C2935 1.400 . S
C2939 C2938 1.385 . S
C2940 C2938 1.478 . S
C2940 C2942 1.381 . S
C2940 C2946 1.383 . S
C2941 C2937 1.495 . S
C2941 H2947 0.959 . S
C2941 H2948 0.961 . S
C2941 H2949 0.960 . S
C2942 C2940 1.381 . S
C2942 C2943 1.394 . S
C2942 H2950 0.930 . S
C2943 C2942 1.394 . S
C2943 C2944 1.383 . S
C2943 H2951 0.929 . S
C2944 C2943 1.383 . S
C2944 C2945 1.377 . S
C2945 H2929 0.930 . S
C2945 C2944 1.377 . S
C2945 C2946 1.379 . S
C2946 H2930 0.931 . S
C2946 C2940 1.383 . S
C2946 C2945 1.379 . S
H2947 C2941 0.959 . S
H2948 C2941 0.961 . S
H2949 C2941 0.960 . S
H2950 C2942 0.930 . S
H2951 C2943 0.929 . S
H2952 C2960 0.929 . S
H2953 C2962 0.930 . S
H2954 C2964 0.930 . S
H2955 C2967 0.929 . S
H2956 C2970 0.930 . S
H2957 C2972 0.960 . S
H2958 C2972 0.960 . S
H2959 C2972 0.960 . S
C2960 H2952 0.929 . S
C2960 C2961 1.377 . S
C2960 C2962 1.384 . S
C2961 C2960 1.377 . S
C2961 C2967 1.390 . S
C2962 H2953 0.930 . S
C2962 C2960 1.384 . S
C2962 C2963 1.372 . S
C2963 C2962 1.372 . S
C2963 C2964 1.400 . S
C2963 C2968 1.490 . S
C2964 H2954 0.930 . S
C2964 C2963 1.400 . S
C2964 C2967 1.386 . S
H2965 C2981 0.930 . S
H2966 C2982 0.931 . S
C2967 H2955 0.929 . S
C2967 C2961 1.390 . S
C2967 C2964 1.386 . S
C2968 C2963 1.490 . S
C2968 C2970 1.395 . S
C2968 C2971 1.403 . S
H2969 C2975 0.930 . S
C2970 H2956 0.930 . S
C2970 C2968 1.395 . S
C2970 C2973 1.403 . S
C2971 C2968 1.403 . S
C2971 C2972 1.524 . S
C2971 C2975 1.400 . S
C2972 H2957 0.960 . S
C2972 H2958 0.960 . S
C2972 H2959 0.960 . S
C2972 C2971 1.524 . S
C2973 C2970 1.403 . S
C2973 C2974 1.392 . S
C2973 C2977 1.495 . S
C2974 C2973 1.392 . S
C2974 C2975 1.385 . S
C2974 C2976 1.478 . S
C2975 H2969 0.930 . S
C2975 C2971 1.400 . S
C2975 C2974 1.385 . S
C2976 C2974 1.478 . S
C2976 C2978 1.381 . S
C2976 C2982 1.383 . S
C2977 C2973 1.495 . S
C2977 H2983 0.959 . S
C2977 H2984 0.961 . S
C2977 H2985 0.960 . S
C2978 C2976 1.381 . S
C2978 C2979 1.394 . S
C2978 H2986 0.930 . S
C2979 C2978 1.394 . S
C2979 C2980 1.383 . S
C2979 H2987 0.929 . S
C2980 C2979 1.383 . S
C2980 C2981 1.377 . S
C2981 H2965 0.930 . S
C2981 C2980 1.377 . S
C2981 C2982 1.379 . S
C2982 H2966 0.931 . S
C2982 C2976 1.383 . S
C2982 C2981 1.379 . S
H2983 C2977 0.959 . S
H2984 C2977 0.961 . S
H2985 C2977 0.960 . S
H2986 C2978 0.930 . S
H2987 C2979 0.929 . S
H2988 C2996 0.929 . S
H2989 C2998 0.930 . S
H2990 C3000 0.930 . S
H2991 C3003 0.929 . S
H2992 C3006 0.930 . S
H2993 C3008 0.960 . S
H2994 C3008 0.960 . S
H2995 C3008 0.960 . S
C2996 H2988 0.929 . S
C2996 C2997 1.377 . S
C2996 C2998 1.384 . S
C2997 C2996 1.377 . S
C2997 C3003 1.390 . S
C2998 H2989 0.930 . S
C2998 C2996 1.384 . S
C2998 C2999 1.372 . S
C2999 C2998 1.372 . S
C2999 C3000 1.400 . S
C2999 C3004 1.490 . S
C3000 H2990 0.930 . S
C3000 C2999 1.400 . S
C3000 C3003 1.386 . S
H3001 C3017 0.930 . S
H3002 C3018 0.931 . S
C3003 H2991 0.929 . S
C3003 C2997 1.390 . S
C3003 C3000 1.386 . S
C3004 C2999 1.490 . S
C3004 C3006 1.395 . S
C3004 C3007 1.403 . S
H3005 C3011 0.930 . S
C3006 H2992 0.930 . S
C3006 C3004 1.395 . S
C3006 C3009 1.403 . S
C3007 C3004 1.403 . S
C3007 C3008 1.524 . S
C3007 C3011 1.400 . S
C3008 H2993 0.960 . S
C3008 H2994 0.960 . S
C3008 H2995 0.960 . S
C3008 C3007 1.524 . S
C3009 C3006 1.403 . S
C3009 C3010 1.392 . S
C3009 C3013 1.495 . S
C3010 C3009 1.392 . S
C3010 C3011 1.385 . S
C3010 C3012 1.478 . S
C3011 H3005 0.930 . S
C3011 C3007 1.400 . S
C3011 C3010 1.385 . S
C3012 C3010 1.478 . S
C3012 C3014 1.381 . S
C3012 C3018 1.383 . S
C3013 C3009 1.495 . S
C3013 H3019 0.959 . S
C3013 H3020 0.961 . S
C3013 H3021 0.960 . S
C3014 C3012 1.381 . S
C3014 C3015 1.394 . S
C3014 H3022 0.930 . S
C3015 C3014 1.394 . S
C3015 C3016 1.383 . S
C3015 H3023 0.929 . S
C3016 C3015 1.383 . S
C3016 C3017 1.377 . S
C3017 H3001 0.930 . S
C3017 C3016 1.377 . S
C3017 C3018 1.379 . S
C3018 H3002 0.931 . S
C3018 C3012 1.383 . S
C3018 C3017 1.379 . S
H3019 C3013 0.959 . S
H3020 C3013 0.961 . S
H3021 C3013 0.960 . S
H3022 C3014 0.930 . S
H3023 C3015 0.929 . S
H3024 C3032 0.929 . S
H3025 C3034 0.930 . S
H3026 C3036 0.930 . S
H3027 C3039 0.929 . S
H3028 C3042 0.930 . S
H3029 C3044 0.960 . S
H3030 C3044 0.960 . S
H3031 C3044 0.960 . S
C3032 H3024 0.929 . S
C3032 C3033 1.377 . S
C3032 C3034 1.384 . S
C3033 C3032 1.377 . S
C3033 C3039 1.390 . S
C3034 H3025 0.930 . S
C3034 C3032 1.384 . S
C3034 C3035 1.372 . S
C3035 C3034 1.372 . S
C3035 C3036 1.400 . S
C3035 C3040 1.490 . S
C3036 H3026 0.930 . S
C3036 C3035 1.400 . S
C3036 C3039 1.386 . S
H3037 C3053 0.930 . S
H3038 C3054 0.931 . S
C3039 H3027 0.929 . S
C3039 C3033 1.390 . S
C3039 C3036 1.386 . S
C3040 C3035 1.490 . S
C3040 C3042 1.395 . S
C3040 C3043 1.403 . S
H3041 C3047 0.930 . S
C3042 H3028 0.930 . S
C3042 C3040 1.395 . S
C3042 C3045 1.403 . S
C3043 C3040 1.403 . S
C3043 C3044 1.524 . S
C3043 C3047 1.400 . S
C3044 H3029 0.960 . S
C3044 H3030 0.960 . S
C3044 H3031 0.960 . S
C3044 C3043 1.524 . S
C3045 C3042 1.403 . S
C3045 C3046 1.392 . S
C3045 C3049 1.495 . S
C3046 C3045 1.392 . S
C3046 C3047 1.385 . S
C3046 C3048 1.478 . S
C3047 H3041 0.930 . S
C3047 C3043 1.400 . S
C3047 C3046 1.385 . S
C3048 C3046 1.478 . S
C3048 C3050 1.381 . S
C3048 C3054 1.383 . S
C3049 C3045 1.495 . S
C3049 H3055 0.959 . S
C3049 H3056 0.961 . S
C3049 H3057 0.960 . S
C3050 C3048 1.381 . S
C3050 C3051 1.394 . S
C3050 H3058 0.930 . S
C3051 C3050 1.394 . S
C3051 C3052 1.383 . S
C3051 H3059 0.929 . S
C3052 C3051 1.383 . S
C3052 C3053 1.377 . S
C3053 H3037 0.930 . S
C3053 C3052 1.377 . S
C3053 C3054 1.379 . S
C3054 H3038 0.931 . S
C3054 C3048 1.383 . S
C3054 C3053 1.379 . S
H3055 C3049 0.959 . S
H3056 C3049 0.961 . S
H3057 C3049 0.960 . S
H3058 C3050 0.930 . S
H3059 C3051 0.929 . S
H3060 C3068 0.929 . S
H3061 C3070 0.930 . S
H3062 C3072 0.930 . S
H3063 C3075 0.929 . S
H3064 C3078 0.930 . S
H3065 C3080 0.960 . S
H3066 C3080 0.960 . S
H3067 C3080 0.960 . S
C3068 H3060 0.929 . S
C3068 C3069 1.377 . S
C3068 C3070 1.384 . S
C3069 C3068 1.377 . S
C3069 C3075 1.390 . S
C3070 H3061 0.930 . S
C3070 C3068 1.384 . S
C3070 C3071 1.372 . S
C3071 C3070 1.372 . S
C3071 C3072 1.400 . S
C3071 C3076 1.490 . S
C3072 H3062 0.930 . S
C3072 C3071 1.400 . S
C3072 C3075 1.386 . S
H3073 C3089 0.930 . S
H3074 C3090 0.931 . S
C3075 H3063 0.929 . S
C3075 C3069 1.390 . S
C3075 C3072 1.386 . S
C3076 C3071 1.490 . S
C3076 C3078 1.395 . S
C3076 C3079 1.403 . S
H3077 C3083 0.930 . S
C3078 H3064 0.930 . S
C3078 C3076 1.395 . S
C3078 C3081 1.403 . S
C3079 C3076 1.403 . S
C3079 C3080 1.524 . S
C3079 C3083 1.400 . S
C3080 H3065 0.960 . S
C3080 H3066 0.960 . S
C3080 H3067 0.960 . S
C3080 C3079 1.524 . S
C3081 C3078 1.403 . S
C3081 C3082 1.392 . S
C3081 C3085 1.495 . S
C3082 C3081 1.392 . S
C3082 C3083 1.385 . S
C3082 C3084 1.478 . S
C3083 H3077 0.930 . S
C3083 C3079 1.400 . S
C3083 C3082 1.385 . S
C3084 C3082 1.478 . S
C3084 C3086 1.381 . S
C3084 C3090 1.383 . S
C3085 C3081 1.495 . S
C3085 H3091 0.959 . S
C3085 H3092 0.961 . S
C3085 H3093 0.960 . S
C3086 C3084 1.381 . S
C3086 C3087 1.394 . S
C3086 H3094 0.930 . S
C3087 C3086 1.394 . S
C3087 C3088 1.383 . S
C3087 H3095 0.929 . S
C3088 C3087 1.383 . S
C3088 C3089 1.377 . S
C3089 H3073 0.930 . S
C3089 C3088 1.377 . S
C3089 C3090 1.379 . S
C3090 H3074 0.931 . S
C3090 C3084 1.383 . S
C3090 C3089 1.379 . S
H3091 C3085 0.959 . S
H3092 C3085 0.961 . S
H3093 C3085 0.960 . S
H3094 C3086 0.930 . S
H3095 C3087 0.929 . S
H3096 C3104 0.929 . S
H3097 C3106 0.930 . S
H3098 C3108 0.930 . S
H3099 C3111 0.929 . S
H3100 C3114 0.930 . S
H3101 C3116 0.960 . S
H3102 C3116 0.960 . S
H3103 C3116 0.960 . S
C3104 H3096 0.929 . S
C3104 C3105 1.377 . S
C3104 C3106 1.384 . S
C3105 C3104 1.377 . S
C3105 C3111 1.390 . S
C3106 H3097 0.930 . S
C3106 C3104 1.384 . S
C3106 C3107 1.372 . S
C3107 C3106 1.372 . S
C3107 C3108 1.400 . S
C3107 C3112 1.490 . S
C3108 H3098 0.930 . S
C3108 C3107 1.400 . S
C3108 C3111 1.386 . S
H3109 C3125 0.930 . S
H3110 C3126 0.931 . S
C3111 H3099 0.929 . S
C3111 C3105 1.390 . S
C3111 C3108 1.386 . S
C3112 C3107 1.490 . S
C3112 C3114 1.395 . S
C3112 C3115 1.403 . S
H3113 C3119 0.930 . S
C3114 H3100 0.930 . S
C3114 C3112 1.395 . S
C3114 C3117 1.403 . S
C3115 C3112 1.403 . S
C3115 C3116 1.524 . S
C3115 C3119 1.400 . S
C3116 H3101 0.960 . S
C3116 H3102 0.960 . S
C3116 H3103 0.960 . S
C3116 C3115 1.524 . S
C3117 C3114 1.403 . S
C3117 C3118 1.392 . S
C3117 C3121 1.495 . S
C3118 C3117 1.392 . S
C3118 C3119 1.385 . S
C3118 C3120 1.478 . S
C3119 H3113 0.930 . S
C3119 C3115 1.400 . S
C3119 C3118 1.385 . S
C3120 C3118 1.478 . S
C3120 C3122 1.381 . S
C3120 C3126 1.383 . S
C3121 C3117 1.495 . S
C3121 H3127 0.959 . S
C3121 H3128 0.961 . S
C3121 H3129 0.960 . S
C3122 C3120 1.381 . S
C3122 C3123 1.394 . S
C3122 H3130 0.930 . S
C3123 C3122 1.394 . S
C3123 C3124 1.383 . S
C3123 H3131 0.929 . S
C3124 C3123 1.383 . S
C3124 C3125 1.377 . S
C3125 H3109 0.930 . S
C3125 C3124 1.377 . S
C3125 C3126 1.379 . S
C3126 H3110 0.931 . S
C3126 C3120 1.383 . S
C3126 C3125 1.379 . S
H3127 C3121 0.959 . S
H3128 C3121 0.961 . S
H3129 C3121 0.960 . S
H3130 C3122 0.930 . S
H3131 C3123 0.929 . S
H3132 C3140 0.929 . S
H3133 C3142 0.930 . S
H3134 C3144 0.930 . S
H3135 C3147 0.929 . S
H3136 C3150 0.930 . S
H3137 C3152 0.960 . S
H3138 C3152 0.960 . S
H3139 C3152 0.960 . S
C3140 H3132 0.929 . S
C3140 C3141 1.377 . S
C3140 C3142 1.384 . S
C3141 C3140 1.377 . S
C3141 C3147 1.390 . S
C3142 H3133 0.930 . S
C3142 C3140 1.384 . S
C3142 C3143 1.372 . S
C3143 C3142 1.372 . S
C3143 C3144 1.400 . S
C3143 C3148 1.490 . S
C3144 H3134 0.930 . S
C3144 C3143 1.400 . S
C3144 C3147 1.386 . S
H3145 C3161 0.930 . S
H3146 C3162 0.931 . S
C3147 H3135 0.929 . S
C3147 C3141 1.390 . S
C3147 C3144 1.386 . S
C3148 C3143 1.490 . S
C3148 C3150 1.395 . S
C3148 C3151 1.403 . S
H3149 C3155 0.930 . S
C3150 H3136 0.930 . S
C3150 C3148 1.395 . S
C3150 C3153 1.403 . S
C3151 C3148 1.403 . S
C3151 C3152 1.524 . S
C3151 C3155 1.400 . S
C3152 H3137 0.960 . S
C3152 H3138 0.960 . S
C3152 H3139 0.960 . S
C3152 C3151 1.524 . S
C3153 C3150 1.403 . S
C3153 C3154 1.392 . S
C3153 C3157 1.495 . S
C3154 C3153 1.392 . S
C3154 C3155 1.385 . S
C3154 C3156 1.478 . S
C3155 H3149 0.930 . S
C3155 C3151 1.400 . S
C3155 C3154 1.385 . S
C3156 C3154 1.478 . S
C3156 C3158 1.381 . S
C3156 C3162 1.383 . S
C3157 C3153 1.495 . S
C3157 H3163 0.959 . S
C3157 H3164 0.961 . S
C3157 H3165 0.960 . S
C3158 C3156 1.381 . S
C3158 C3159 1.394 1_655 S
C3158 H3166 0.930 . S
C3159 C3158 1.394 1_455 S
C3159 C3160 1.383 . S
C3159 H3167 0.929 . S
C3160 C3159 1.383 . S
C3160 C3161 1.377 1_455 S
C3161 H3145 0.930 . S
C3161 C3160 1.377 1_655 S
C3161 C3162 1.379 . S
C3162 H3146 0.931 . S
C3162 C3156 1.383 . S
C3162 C3161 1.379 . S
H3163 C3157 0.959 . S
H3164 C3157 0.961 . S
H3165 C3157 0.960 . S
H3166 C3158 0.930 . S
H3167 C3159 0.929 . S
H3168 C3176 0.929 . S
H3169 C3178 0.930 . S
H3170 C3180 0.930 . S
H3171 C3183 0.929 . S
H3172 C3186 0.930 . S
H3173 C3188 0.960 . S
H3174 C3188 0.960 . S
H3175 C3188 0.960 . S
C3176 H3168 0.929 . S
C3176 C3177 1.377 . S
C3176 C3178 1.384 . S
C3177 C3176 1.377 . S
C3177 C3183 1.390 . S
C3178 H3169 0.930 . S
C3178 C3176 1.384 . S
C3178 C3179 1.372 1_565 S
C3179 C3178 1.372 1_545 S
C3179 C3180 1.400 . S
C3179 C3184 1.490 . S
C3180 H3170 0.930 . S
C3180 C3179 1.400 . S
C3180 C3183 1.386 1_545 S
H3181 C3197 0.930 . S
H3182 C3198 0.931 . S
C3183 H3171 0.929 . S
C3183 C3177 1.390 . S
C3183 C3180 1.386 1_565 S
C3184 C3179 1.490 . S
C3184 C3186 1.395 . S
C3184 C3187 1.403 . S
H3185 C3191 0.930 . S
C3186 H3172 0.930 . S
C3186 C3184 1.395 . S
C3186 C3189 1.403 . S
C3187 C3184 1.403 . S
C3187 C3188 1.524 . S
C3187 C3191 1.400 . S
C3188 H3173 0.960 . S
C3188 H3174 0.960 . S
C3188 H3175 0.960 . S
C3188 C3187 1.524 . S
C3189 C3186 1.403 . S
C3189 C3190 1.392 . S
C3189 C3193 1.495 . S
C3190 C3189 1.392 . S
C3190 C3191 1.385 . S
C3190 C3192 1.478 . S
C3191 H3185 0.930 . S
C3191 C3187 1.400 . S
C3191 C3190 1.385 . S
C3192 C3190 1.478 . S
C3192 C3194 1.381 . S
C3192 C3198 1.383 . S
C3193 C3189 1.495 . S
C3193 H3199 0.959 . S
C3193 H3200 0.961 . S
C3193 H3201 0.960 . S
C3194 C3192 1.381 . S
C3194 C3195 1.394 . S
C3194 H3202 0.930 . S
C3195 C3194 1.394 . S
C3195 C3196 1.383 . S
C3195 H3203 0.929 . S
C3196 C3195 1.383 . S
C3196 C3197 1.377 . S
C3197 H3181 0.930 . S
C3197 C3196 1.377 . S
C3197 C3198 1.379 . S
C3198 H3182 0.931 . S
C3198 C3192 1.383 . S
C3198 C3197 1.379 . S
H3199 C3193 0.959 . S
H3200 C3193 0.961 . S
H3201 C3193 0.960 . S
H3202 C3194 0.930 . S
H3203 C3195 0.929 . S
H3204 C3212 0.929 . S
H3205 C3214 0.930 . S
H3206 C3216 0.930 . S
H3207 C3219 0.929 . S
H3208 C3222 0.930 . S
H3209 C3224 0.960 1_455 S
H3210 C3224 0.960 . S
H3211 C3224 0.960 . S
C3212 H3204 0.929 . S
C3212 C3213 1.377 . S
C3212 C3214 1.384 . S
C3213 C3212 1.377 . S
C3213 C3219 1.390 . S
C3214 H3205 0.930 . S
C3214 C3212 1.384 . S
C3214 C3215 1.372 . S
C3215 C3214 1.372 . S
C3215 C3216 1.400 . S
C3215 C3220 1.490 . S
C3216 H3206 0.930 . S
C3216 C3215 1.400 . S
C3216 C3219 1.386 . S
H3217 C3233 0.930 . S
H3218 C3234 0.931 . S
C3219 H3207 0.929 . S
C3219 C3213 1.390 . S
C3219 C3216 1.386 . S
C3220 C3215 1.490 . S
C3220 C3222 1.395 . S
C3220 C3223 1.403 . S
H3221 C3227 0.930 . S
C3222 H3208 0.930 . S
C3222 C3220 1.395 . S
C3222 C3225 1.403 . S
C3223 C3220 1.403 . S
C3223 C3224 1.524 . S
C3223 C3227 1.400 1_655 S
C3224 H3209 0.960 1_655 S
C3224 H3210 0.960 . S
C3224 H3211 0.960 . S
C3224 C3223 1.524 . S
C3225 C3222 1.403 . S
C3225 C3226 1.392 1_655 S
C3225 C3229 1.495 . S
C3226 C3225 1.392 1_455 S
C3226 C3227 1.385 . S
C3226 C3228 1.478 . S
C3227 H3221 0.930 . S
C3227 C3223 1.400 1_455 S
C3227 C3226 1.385 . S
C3228 C3226 1.478 . S
C3228 C3230 1.381 . S
C3228 C3234 1.383 . S
C3229 C3225 1.495 . S
C3229 H3235 0.959 . S
C3229 H3236 0.961 . S
C3229 H3237 0.960 . S
C3230 C3228 1.381 . S
C3230 C3231 1.394 . S
C3230 H3238 0.930 . S
C3231 C3230 1.394 . S
C3231 C3232 1.383 . S
C3231 H3239 0.929 . S
C3232 C3231 1.383 . S
C3232 C3233 1.377 . S
C3233 H3217 0.930 . S
C3233 C3232 1.377 . S
C3233 C3234 1.379 . S
C3234 H3218 0.931 . S
C3234 C3228 1.383 . S
C3234 C3233 1.379 . S
H3235 C3229 0.959 . S
H3236 C3229 0.961 . S
H3237 C3229 0.960 . S
H3238 C3230 0.930 . S
H3239 C3231 0.929 . S
H3240 C3248 0.929 . S
H3241 C3250 0.930 . S
H3242 C3252 0.930 . S
H3243 C3255 0.929 . S
H3244 C3258 0.930 . S
H3245 C3260 0.960 . S
H3246 C3260 0.960 . S
H3247 C3260 0.960 . S
C3248 H3240 0.929 . S
C3248 C3249 1.377 . S
C3248 C3250 1.384 . S
C3249 C3248 1.377 . S
C3249 C3255 1.390 . S
C3250 H3241 0.930 . S
C3250 C3248 1.384 . S
C3250 C3251 1.372 . S
C3251 C3250 1.372 . S
C3251 C3252 1.400 . S
C3251 C3256 1.490 . S
C3252 H3242 0.930 . S
C3252 C3251 1.400 . S
C3252 C3255 1.386 . S
H3253 C3269 0.930 1_545 S
H3254 C3270 0.931 . S
C3255 H3243 0.929 . S
C3255 C3249 1.390 . S
C3255 C3252 1.386 . S
C3256 C3251 1.490 . S
C3256 C3258 1.395 . S
C3256 C3259 1.403 . S
H3257 C3263 0.930 . S
C3258 H3244 0.930 . S
C3258 C3256 1.395 . S
C3258 C3261 1.403 . S
C3259 C3256 1.403 . S
C3259 C3260 1.524 . S
C3259 C3263 1.400 . S
C3260 H3245 0.960 . S
C3260 H3246 0.960 . S
C3260 H3247 0.960 . S
C3260 C3259 1.524 . S
C3261 C3258 1.403 . S
C3261 C3262 1.392 . S
C3261 C3265 1.495 . S
C3262 C3261 1.392 . S
C3262 C3263 1.385 . S
C3262 C3264 1.478 . S
C3263 H3257 0.930 . S
C3263 C3259 1.400 . S
C3263 C3262 1.385 . S
C3264 C3262 1.478 . S
C3264 C3266 1.381 . S
C3264 C3270 1.383 . S
C3265 C3261 1.495 . S
C3265 H3271 0.959 . S
C3265 H3272 0.961 . S
C3265 H3273 0.960 . S
C3266 C3264 1.381 . S
C3266 C3267 1.394 . S
C3266 H3274 0.930 . S
C3267 C3266 1.394 . S
C3267 C3268 1.383 1_565 S
C3267 H3275 0.929 . S
C3268 C3267 1.383 1_545 S
C3268 C3269 1.377 1_545 S
C3269 H3253 0.930 1_565 S
C3269 C3268 1.377 1_565 S
C3269 C3270 1.379 . S
C3270 H3254 0.931 . S
C3270 C3264 1.383 . S
C3270 C3269 1.379 . S
H3271 C3265 0.959 . S
H3272 C3265 0.961 . S
H3273 C3265 0.960 . S
H3274 C3266 0.930 . S
H3275 C3267 0.929 . S
H3276 C3284 0.929 . S
H3277 C3286 0.930 . S
H3278 C3288 0.930 . S
H3279 C3291 0.929 . S
H3280 C3294 0.930 . S
H3281 C3296 0.960 . S
H3282 C3296 0.960 . S
H3283 C3296 0.960 . S
C3284 H3276 0.929 . S
C3284 C3285 1.377 . S
C3284 C3286 1.384 . S
C3285 C3284 1.377 . S
C3285 C3291 1.390 . S
C3286 H3277 0.930 . S
C3286 C3284 1.384 . S
C3286 C3287 1.372 . S
C3287 C3286 1.372 . S
C3287 C3288 1.400 . S
C3287 C3292 1.490 . S
C3288 H3278 0.930 . S
C3288 C3287 1.400 . S
C3288 C3291 1.386 . S
H3289 C3305 0.930 . S
H3290 C3306 0.931 . S
C3291 H3279 0.929 . S
C3291 C3285 1.390 . S
C3291 C3288 1.386 . S
C3292 C3287 1.490 . S
C3292 C3294 1.395 1_545 S
C3292 C3295 1.403 . S
H3293 C3299 0.930 . S
C3294 H3280 0.930 . S
C3294 C3292 1.395 1_565 S
C3294 C3297 1.403 . S
C3295 C3292 1.403 . S
C3295 C3296 1.524 . S
C3295 C3299 1.400 1_545 S
C3296 H3281 0.960 . S
C3296 H3282 0.960 . S
C3296 H3283 0.960 . S
C3296 C3295 1.524 . S
C3297 C3294 1.403 . S
C3297 C3298 1.392 . S
C3297 C3301 1.495 . S
C3298 C3297 1.392 . S
C3298 C3299 1.385 . S
C3298 C3300 1.478 . S
C3299 H3293 0.930 . S
C3299 C3295 1.400 1_565 S
C3299 C3298 1.385 . S
C3300 C3298 1.478 . S
C3300 C3302 1.381 . S
C3300 C3306 1.383 . S
C3301 C3297 1.495 . S
C3301 H3307 0.959 . S
C3301 H3308 0.961 . S
C3301 H3309 0.960 . S
C3302 C3300 1.381 . S
C3302 C3303 1.394 . S
C3302 H3310 0.930 . S
C3303 C3302 1.394 . S
C3303 C3304 1.383 . S
C3303 H3311 0.929 . S
C3304 C3303 1.383 . S
C3304 C3305 1.377 . S
C3305 H3289 0.930 . S
C3305 C3304 1.377 . S
C3305 C3306 1.379 . S
C3306 H3290 0.931 . S
C3306 C3300 1.383 . S
C3306 C3305 1.379 . S
H3307 C3301 0.959 . S
H3308 C3301 0.961 . S
H3309 C3301 0.960 . S
H3310 C3302 0.930 . S
H3311 C3303 0.929 . S
H3312 C3320 0.929 . S
H3313 C3322 0.930 . S
H3314 C3324 0.930 . S
H3315 C3327 0.929 . S
H3316 C3330 0.930 . S
H3317 C3332 0.960 . S
H3318 C3332 0.960 . S
H3319 C3332 0.960 . S
C3320 H3312 0.929 . S
C3320 C3321 1.377 . S
C3320 C3322 1.384 . S
C3321 C3320 1.377 . S
C3321 C3327 1.390 . S
C3322 H3313 0.930 . S
C3322 C3320 1.384 . S
C3322 C3323 1.372 . S
C3323 C3322 1.372 . S
C3323 C3324 1.400 . S
C3323 C3328 1.490 . S
C3324 H3314 0.930 . S
C3324 C3323 1.400 . S
C3324 C3327 1.386 . S
H3325 C3341 0.930 . S
H3326 C3342 0.931 . S
C3327 H3315 0.929 . S
C3327 C3321 1.390 . S
C3327 C3324 1.386 . S
C3328 C3323 1.490 . S
C3328 C3330 1.395 . S
C3328 C3331 1.403 . S
H3329 C3335 0.930 . S
C3330 H3316 0.930 . S
C3330 C3328 1.395 . S
C3330 C3333 1.403 . S
C3331 C3328 1.403 . S
C3331 C3332 1.524 . S
C3331 C3335 1.400 . S
C3332 H3317 0.960 . S
C3332 H3318 0.960 . S
C3332 H3319 0.960 . S
C3332 C3331 1.524 . S
C3333 C3330 1.403 . S
C3333 C3334 1.392 . S
C3333 C3337 1.495 . S
C3334 C3333 1.392 . S
C3334 C3335 1.385 . S
C3334 C3336 1.478 . S
C3335 H3329 0.930 . S
C3335 C3331 1.400 . S
C3335 C3334 1.385 . S
C3336 C3334 1.478 . S
C3336 C3338 1.381 . S
C3336 C3342 1.383 1_455 S
C3337 C3333 1.495 . S
C3337 H3343 0.959 . S
C3337 H3344 0.961 . S
C3337 H3345 0.960 . S
C3338 C3336 1.381 . S
C3338 C3339 1.394 1_455 S
C3338 H3346 0.930 . S
C3339 C3338 1.394 1_655 S
C3339 C3340 1.383 . S
C3339 H3347 0.929 . S
C3340 C3339 1.383 . S
C3340 C3341 1.377 . S
C3341 H3325 0.930 . S
C3341 C3340 1.377 . S
C3341 C3342 1.379 . S
C3342 H3326 0.931 . S
C3342 C3336 1.383 1_655 S
C3342 C3341 1.379 . S
H3343 C3337 0.959 . S
H3344 C3337 0.961 . S
H3345 C3337 0.960 . S
H3346 C3338 0.930 . S
H3347 C3339 0.929 . S
H3348 C3356 0.929 . S
H3349 C3358 0.930 . S
H3350 C3360 0.930 . S
H3351 C3363 0.929 . S
H3352 C3366 0.930 . S
H3353 C3368 0.960 . S
H3354 C3368 0.960 . S
H3355 C3368 0.960 . S
C3356 H3348 0.929 . S
C3356 C3357 1.377 . S
C3356 C3358 1.384 . S
C3357 C3356 1.377 . S
C3357 C3363 1.390 . S
C3358 H3349 0.930 . S
C3358 C3356 1.384 . S
C3358 C3359 1.372 . S
C3359 C3358 1.372 . S
C3359 C3360 1.400 . S
C3359 C3364 1.490 . S
C3360 H3350 0.930 . S
C3360 C3359 1.400 . S
C3360 C3363 1.386 . S
H3361 C3377 0.930 . S
H3362 C3378 0.931 . S
C3363 H3351 0.929 . S
C3363 C3357 1.390 . S
C3363 C3360 1.386 . S
C3364 C3359 1.490 . S
C3364 C3366 1.395 . S
C3364 C3367 1.403 . S
H3365 C3371 0.930 . S
C3366 H3352 0.930 . S
C3366 C3364 1.395 . S
C3366 C3369 1.403 . S
C3367 C3364 1.403 . S
C3367 C3368 1.524 . S
C3367 C3371 1.400 . S
C3368 H3353 0.960 . S
C3368 H3354 0.960 . S
C3368 H3355 0.960 . S
C3368 C3367 1.524 . S
C3369 C3366 1.403 . S
C3369 C3370 1.392 . S
C3369 C3373 1.495 . S
C3370 C3369 1.392 . S
C3370 C3371 1.385 . S
C3370 C3372 1.478 . S
C3371 H3365 0.930 . S
C3371 C3367 1.400 . S
C3371 C3370 1.385 . S
C3372 C3370 1.478 . S
C3372 C3374 1.381 . S
C3372 C3378 1.383 . S
C3373 C3369 1.495 . S
C3373 H3379 0.959 . S
C3373 H3380 0.961 . S
C3373 H3381 0.960 . S
C3374 C3372 1.381 . S
C3374 C3375 1.394 . S
C3374 H3382 0.930 . S
C3375 C3374 1.394 . S
C3375 C3376 1.383 . S
C3375 H3383 0.929 . S
C3376 C3375 1.383 . S
C3376 C3377 1.377 . S
C3377 H3361 0.930 . S
C3377 C3376 1.377 . S
C3377 C3378 1.379 . S
C3378 H3362 0.931 . S
C3378 C3372 1.383 . S
C3378 C3377 1.379 . S
H3379 C3373 0.959 . S
H3380 C3373 0.961 . S
H3381 C3373 0.960 . S
H3382 C3374 0.930 . S
H3383 C3375 0.929 . S
H3384 C3392 0.929 . S
H3385 C3394 0.930 . S
H3386 C3396 0.930 . S
H3387 C3399 0.929 . S
H3388 C3402 0.930 . S
H3389 C3404 0.960 . S
H3390 C3404 0.960 . S
H3391 C3404 0.960 . S
C3392 H3384 0.929 . S
C3392 C3393 1.377 . S
C3392 C3394 1.384 . S
C3393 C3392 1.377 . S
C3393 C3399 1.390 . S
C3394 H3385 0.930 . S
C3394 C3392 1.384 . S
C3394 C3395 1.372 . S
C3395 C3394 1.372 . S
C3395 C3396 1.400 . S
C3395 C3400 1.490 . S
C3396 H3386 0.930 . S
C3396 C3395 1.400 . S
C3396 C3399 1.386 . S
H3397 C3413 0.930 . S
H3398 C3414 0.931 . S
C3399 H3387 0.929 . S
C3399 C3393 1.390 . S
C3399 C3396 1.386 . S
C3400 C3395 1.490 . S
C3400 C3402 1.395 . S
C3400 C3403 1.403 . S
H3401 C3407 0.930 . S
C3402 H3388 0.930 . S
C3402 C3400 1.395 . S
C3402 C3405 1.403 . S
C3403 C3400 1.403 . S
C3403 C3404 1.524 . S
C3403 C3407 1.400 . S
C3404 H3389 0.960 . S
C3404 H3390 0.960 . S
C3404 H3391 0.960 . S
C3404 C3403 1.524 . S
C3405 C3402 1.403 . S
C3405 C3406 1.392 . S
C3405 C3409 1.495 . S
C3406 C3405 1.392 . S
C3406 C3407 1.385 . S
C3406 C3408 1.478 . S
C3407 H3401 0.930 . S
C3407 C3403 1.400 . S
C3407 C3406 1.385 . S
C3408 C3406 1.478 . S
C3408 C3410 1.381 . S
C3408 C3414 1.383 . S
C3409 C3405 1.495 . S
C3409 H3415 0.959 . S
C3409 H3416 0.961 . S
C3409 H3417 0.960 . S
C3410 C3408 1.381 . S
C3410 C3411 1.394 . S
C3410 H3418 0.930 . S
C3411 C3410 1.394 . S
C3411 C3412 1.383 . S
C3411 H3419 0.929 . S
C3412 C3411 1.383 . S
C3412 C3413 1.377 . S
C3413 H3397 0.930 . S
C3413 C3412 1.377 . S
C3413 C3414 1.379 . S
C3414 H3398 0.931 . S
C3414 C3408 1.383 . S
C3414 C3413 1.379 . S
H3415 C3409 0.959 . S
H3416 C3409 0.961 . S
H3417 C3409 0.960 . S
H3418 C3410 0.930 . S
H3419 C3411 0.929 . S
H3420 C3428 0.929 . S
H3421 C3430 0.930 . S
H3422 C3432 0.930 . S
H3423 C3435 0.929 . S
H3424 C3438 0.930 . S
H3425 C3440 0.960 . S
H3426 C3440 0.960 . S
H3427 C3440 0.960 . S
C3428 H3420 0.929 . S
C3428 C3429 1.377 . S
C3428 C3430 1.384 . S
C3429 C3428 1.377 . S
C3429 C3435 1.390 . S
C3430 H3421 0.930 . S
C3430 C3428 1.384 . S
C3430 C3431 1.372 . S
C3431 C3430 1.372 . S
C3431 C3432 1.400 . S
C3431 C3436 1.490 . S
C3432 H3422 0.930 . S
C3432 C3431 1.400 . S
C3432 C3435 1.386 . S
H3433 C3449 0.930 . S
H3434 C3450 0.931 . S
C3435 H3423 0.929 . S
C3435 C3429 1.390 . S
C3435 C3432 1.386 . S
C3436 C3431 1.490 . S
C3436 C3438 1.395 . S
C3436 C3439 1.403 . S
H3437 C3443 0.930 . S
C3438 H3424 0.930 . S
C3438 C3436 1.395 . S
C3438 C3441 1.403 . S
C3439 C3436 1.403 . S
C3439 C3440 1.524 . S
C3439 C3443 1.400 . S
C3440 H3425 0.960 . S
C3440 H3426 0.960 . S
C3440 H3427 0.960 . S
C3440 C3439 1.524 . S
C3441 C3438 1.403 . S
C3441 C3442 1.392 . S
C3441 C3445 1.495 . S
C3442 C3441 1.392 . S
C3442 C3443 1.385 . S
C3442 C3444 1.478 . S
C3443 H3437 0.930 . S
C3443 C3439 1.400 . S
C3443 C3442 1.385 . S
C3444 C3442 1.478 . S
C3444 C3446 1.381 . S
C3444 C3450 1.383 . S
C3445 C3441 1.495 . S
C3445 H3451 0.959 . S
C3445 H3452 0.961 . S
C3445 H3453 0.960 . S
C3446 C3444 1.381 . S
C3446 C3447 1.394 . S
C3446 H3454 0.930 . S
C3447 C3446 1.394 . S
C3447 C3448 1.383 . S
C3447 H3455 0.929 . S
C3448 C3447 1.383 . S
C3448 C3449 1.377 . S
C3449 H3433 0.930 . S
C3449 C3448 1.377 . S
C3449 C3450 1.379 . S
C3450 H3434 0.931 . S
C3450 C3444 1.383 . S
C3450 C3449 1.379 . S
H3451 C3445 0.959 . S
H3452 C3445 0.961 . S
H3453 C3445 0.960 . S
H3454 C3446 0.930 . S
H3455 C3447 0.929 . S
C1521 C67 0.733 . S
C1540 C238 0.753 . S
C1557 C70 0.725 . S
C1576 C151 0.664 . S
C1593 C154 0.715 . S
C1612 C235 0.709 . S
C1629 C319 0.715 . S
C1648 C406 0.764 . S
C1665 C490 0.714 . S
C1684 C403 0.684 . S
C1701 C487 0.711 . S
C1720 C322 0.724 . S
C1737 C742 0.749 . S
C1756 C571 0.761 . S
C1773 C574 0.714 1_655 S
C1792 C655 0.703 . S
C1809 C739 0.712 . S
C1828 C658 0.733 . S
C1845 C910 0.749 . S
C1864 C823 0.753 . S
C1881 C907 0.723 . S
C1900 C994 0.663 . S
C1917 C826 0.716 . S
C1936 C991 0.720 . S
C1953 C1075 0.722 . S
C1972 C1246 0.662 . S
C1989 C1078 0.750 . S
C2008 C1159 0.755 . S
C2025 C1162 0.714 . S
C2044 C1243 0.690 . S
C2061 C1414 0.714 . S
C2080 C1327 0.704 . S
C2097 C1498 0.715 . S
C2116 C1411 0.675 . S
C2133 C1330 0.716 1_565 S
C2152 C1495 0.671 . S
C2169 C63 1.888 . S
C2188 C483 1.863 . S
C2205 C315 1.884 . S
C2224 C147 1.891 . S
C2241 C399 1.882 . S
C2260 C231 1.870 . S
C2277 C567 1.886 . S
C2296 C987 1.858 . S
C2313 C651 1.883 . S
C2332 C819 1.881 . S
C2349 C903 1.893 . S
C2368 C735 1.910 . S
C2385 C1071 1.892 . S
C2404 C1491 1.880 . S
C2421 C1323 1.894 . S
C2440 C1155 1.903 . S
C2457 C1407 1.885 . S
C2476 C1239 1.857 . S
C2493 C914 2.044 . S
C2512 C74 2.014 . S
C2529 C158 2.040 . S
C2548 C998 2.035 . S
C2565 C830 2.044 . S
C2584 C242 2.013 . S
C2601 C326 2.040 . S
C2620 C1250 2.035 . S
C2637 C410 2.035 . S
C2656 C1082 2.055 . S
C2673 C1166 2.045 . S
C2692 C494 2.013 . S
C2709 C1418 2.035 . S
C2728 C578 2.058 . S
C2745 C662 2.037 . S
C2764 C1502 2.052 . S
C2781 C746 2.044 . S
C2800 C1334 2.013 . S
C2817 C226 1.886 . S
C2836 C56 1.993 . S
C2853 C58 1.879 . S
C2872 C140 2.019 . S
C2889 C224 2.016 . S
C2908 C142 1.861 . S
C2925 C394 1.876 . S
C2944 C308 2.022 . S
C2961 C478 1.873 . S
C2980 C392 2.033 . S
C2997 C476 2.011 . S
C3016 C310 1.910 . S
C3033 C730 1.886 . S
C3052 C560 1.990 . S
C3069 C644 2.017 . S
C3088 C562 1.860 . S
C3105 C646 1.876 . S
C3124 C728 2.029 . S
C3141 C812 2.010 . S
C3160 C898 1.910 . S
C3177 C896 2.013 . S
C3196 C982 1.897 . S
C3213 C814 1.877 . S
C3232 C980 2.025 . S
C3249 C1064 2.017 . S
C3268 C1234 1.867 . S
C3285 C1148 2.014 . S
C3304 C1066 1.879 . S
C3321 C1150 1.873 . S
C3340 C1232 2.034 . S
C3357 C1316 2.012 . S
C3376 C1402 1.900 . S
C3393 C1400 2.017 . S
C3412 C1486 1.861 . S
C3429 C1318 1.886 . S
C3448 C1484 1.994 . S
