# Generated by pormake.
# Topology ukh, (4)-cn, num edge types: 1
# Building blocks:
#     Node 0, Type 0, BuildingBlock: AZAVOO_clean_sbu_0, # of connection points: 4
#     Node 1, Type 0, BuildingBlock: AZAVOO_clean_sbu_0, # of connection points: 4
#     Node 2, Type 0, BuildingBlock: AZAVOO_clean_sbu_0, # of connection points: 4
#     Node 3, Type 0, BuildingBlock: AZAVOO_clean_sbu_0, # of connection points: 4
#     Node 4, Type 0, BuildingBlock: AZAVOO_clean_sbu_0, # of connection points: 4
#     Node 5, Type 0, BuildingBlock: AZAVOO_clean_sbu_0, # of connection points: 4
#     Node 6, Type 0, BuildingBlock: AZAVOO_clean_sbu_0, # of connection points: 4
#     Node 7, Type 0, BuildingBlock: AZAVOO_clean_sbu_0, # of connection points: 4
#     Node 8, Type 0, BuildingBlock: AZAVOO_clean_sbu_0, # of connection points: 4
#     Node 9, Type 0, BuildingBlock: AZAVOO_clean_sbu_0, # of connection points: 4
#     Node 10, Type 0, BuildingBlock: AZAVOO_clean_sbu_0, # of connection points: 4
#     Node 11, Type 0, BuildingBlock: AZAVOO_clean_sbu_0, # of connection points: 4
#     Edge 12, Type (0, 0), BuildingBlock: UVAHIK_clean_linker_0, # of connection points: 2
#     Edge 13, Type (0, 0), BuildingBlock: UVAHIK_clean_linker_0, # of connection points: 2
#     Edge 14, Type (0, 0), BuildingBlock: UVAHIK_clean_linker_0, # of connection points: 2
#     Edge 15, Type (0, 0), BuildingBlock: UVAHIK_clean_linker_0, # of connection points: 2
#     Edge 16, Type (0, 0), BuildingBlock: UVAHIK_clean_linker_0, # of connection points: 2
#     Edge 17, Type (0, 0), BuildingBlock: UVAHIK_clean_linker_0, # of connection points: 2
#     Edge 18, Type (0, 0), BuildingBlock: UVAHIK_clean_linker_0, # of connection points: 2
#     Edge 19, Type (0, 0), BuildingBlock: UVAHIK_clean_linker_0, # of connection points: 2
#     Edge 20, Type (0, 0), BuildingBlock: UVAHIK_clean_linker_0, # of connection points: 2
#     Edge 21, Type (0, 0), BuildingBlock: UVAHIK_clean_linker_0, # of connection points: 2
#     Edge 22, Type (0, 0), BuildingBlock: UVAHIK_clean_linker_0, # of connection points: 2
#     Edge 23, Type (0, 0), BuildingBlock: UVAHIK_clean_linker_0, # of connection points: 2
#     Edge 24, Type (0, 0), BuildingBlock: UVAHIK_clean_linker_0, # of connection points: 2
#     Edge 25, Type (0, 0), BuildingBlock: UVAHIK_clean_linker_0, # of connection points: 2
#     Edge 26, Type (0, 0), BuildingBlock: UVAHIK_clean_linker_0, # of connection points: 2
#     Edge 27, Type (0, 0), BuildingBlock: UVAHIK_clean_linker_0, # of connection points: 2
#     Edge 28, Type (0, 0), BuildingBlock: UVAHIK_clean_linker_0, # of connection points: 2
#     Edge 29, Type (0, 0), BuildingBlock: UVAHIK_clean_linker_0, # of connection points: 2
#     Edge 30, Type (0, 0), BuildingBlock: UVAHIK_clean_linker_0, # of connection points: 2
#     Edge 31, Type (0, 0), BuildingBlock: UVAHIK_clean_linker_0, # of connection points: 2
#     Edge 32, Type (0, 0), BuildingBlock: UVAHIK_clean_linker_0, # of connection points: 2
#     Edge 33, Type (0, 0), BuildingBlock: UVAHIK_clean_linker_0, # of connection points: 2
#     Edge 34, Type (0, 0), BuildingBlock: UVAHIK_clean_linker_0, # of connection points: 2
#     Edge 35, Type (0, 0), BuildingBlock: UVAHIK_clean_linker_0, # of connection points: 2
# Relax obj value: 0.220
# Max RMSD: 0.236
# Mean RMSD: 0.236
data_MOF--net-ukh--node1-AZAVOO_clean_sbu_0--edge1-UVAHIK_clean_linker_0
_symmetry_space_group_name_H-M    P1
_symmetry_Int_Tables_number       1
_symmetry_cell_setting            triclinic
loop_
_symmetry_equiv_pos_as_xyz
'x, y, z'
_cell_length_a     40.574572
_cell_length_b     40.7021
_cell_length_c     77.562735
_cell_angle_alpha  90.028822
_cell_angle_beta   90.003484
_cell_angle_gamma 120.04554
loop_
_atom_site_label
_atom_site_type_symbol
_atom_site_fract_x
_atom_site_fract_y
_atom_site_fract_z
_atom_type_partial_charge
Mg0 Mg 0.33643 0.21126 0.04604 0.0
O1 O 0.27709 0.20543 0.04092 0.0
O2 O 0.23768 0.14339 0.03638 0.0
Mg3 Mg 0.26915 0.11039 0.03769 0.0
C4 C 0.24393 0.17733 0.03758 0.0
C5 C 0.36454 0.29792 0.04645 0.0
O6 O 0.3479 0.28892 0.03128 0.0
O7 O 0.31845 0.1851 0.07308 0.0
O8 O 0.27975 0.12396 0.06633 0.0
O9 O 0.34924 0.21783 0.01748 0.0
O10 O 0.32067 0.16344 0.03168 0.0
C11 C 0.29684 0.15039 0.07741 0.0
C12 C 0.3318 0.18114 0.0173 0.0
O13 O 0.36217 0.27168 0.05615 0.0
Mg14 Mg 0.14979 0.37846 0.35758 0.0
O15 O 0.10636 0.31492 0.35506 0.0
O16 O 0.13778 0.28378 0.35035 0.0
Mg17 Mg 0.20167 0.32708 0.35184 0.0
C18 C 0.10671 0.28429 0.35194 0.0
C19 C 0.09167 0.40628 0.35665 0.0
O20 O 0.10839 0.41763 0.34159 0.0
O21 O 0.16435 0.37015 0.38527 0.0
O22 O 0.19677 0.3401 0.38006 0.0
O23 O 0.14847 0.38026 0.32864 0.0
O24 O 0.18975 0.3717 0.34377 0.0
C25 C 0.18354 0.35492 0.39048 0.0
C26 C 0.17524 0.37179 0.32908 0.0
O27 O 0.10224 0.38864 0.36669 0.0
Mg28 Mg 0.74875 0.16102 0.70794 0.0
O29 O 0.76715 0.11838 0.69945 0.0
O30 O 0.83061 0.14854 0.69817 0.0
Mg31 Mg 0.85307 0.20944 0.70757 0.0
C32 C 0.79817 0.11872 0.69617 0.0
C33 C 0.67129 0.09148 0.69775 0.0
O34 O 0.69116 0.09668 0.68361 0.0
O35 O 0.76369 0.15662 0.73609 0.0
O36 O 0.82723 0.18777 0.73416 0.0
O37 O 0.75385 0.17956 0.68026 0.0
O38 O 0.79985 0.20628 0.69962 0.0
C39 C 0.79664 0.16998 0.74297 0.0
C40 C 0.78891 0.20393 0.68394 0.0
O41 O 0.68744 0.1127 0.7107 0.0
Mg42 Mg 0.70468 0.75839 0.03448 0.0
O43 O 0.76442 0.77003 0.02545 0.0
O44 O 0.79827 0.83299 0.02174 0.0
Mg45 Mg 0.76321 0.86113 0.0277 0.0
C46 C 0.79529 0.80024 0.02124 0.0
C47 C 0.65709 0.68652 0.05362 0.0
O48 O 0.64886 0.71172 0.05968 0.0
O49 O 0.72692 0.78226 0.0616 0.0
O50 O 0.75877 0.84451 0.056 0.0
O51 O 0.68614 0.75415 0.00658 0.0
O52 O 0.71326 0.80644 0.02238 0.0
C53 C 0.74609 0.81683 0.06659 0.0
C54 C 0.70033 0.79047 0.00778 0.0
O55 O 0.68395 0.69742 0.0427 0.0
Mg56 Mg 0.84293 0.6246 0.41812 0.0
O57 O 0.89826 0.67664 0.40875 0.0
O58 O 0.89777 0.72909 0.41663 0.0
Mg59 Mg 0.84231 0.71066 0.4313 0.0
C60 C 0.91371 0.71274 0.40915 0.0
C61 C 0.85277 0.55679 0.4049 0.0
O62 O 0.8175 0.54369 0.39976 0.0
O63 O 0.86323 0.63341 0.44596 0.0
O64 O 0.86062 0.68528 0.45322 0.0
O65 O 0.81424 0.62585 0.39375 0.0
O66 O 0.81489 0.65558 0.41771 0.0
C67 C 0.86702 0.6584 0.45695 0.0
C68 C 0.80548 0.64841 0.40174 0.0
O69 O 0.86996 0.58845 0.41271 0.0
Mg70 Mg 0.18348 0.86919 0.67307 0.0
O71 O 0.18207 0.91936 0.68569 0.0
O72 O 0.12152 0.90161 0.69152 0.0
Mg73 Mg 0.08489 0.83841 0.68482 0.0
C74 C 0.1568 0.92686 0.69106 0.0
C75 C 0.26432 0.88163 0.68001 0.0
O76 O 0.24357 0.84455 0.68148 0.0
O77 O 0.17576 0.84054 0.69926 0.0
O78 O 0.11486 0.82166 0.70503 0.0
O79 O 0.17193 0.89055 0.64842 0.0
O80 O 0.12727 0.84677 0.66506 0.0
C81 C 0.14642 0.82376 0.7089 0.0
C82 C 0.13624 0.87006 0.65238 0.0
O83 O 0.248 0.90048 0.67635 0.0
Mg84 Mg 0.77789 0.69722 0.66603 0.0
O85 O 0.78659 0.75421 0.65568 0.0
O86 O 0.84927 0.79474 0.65482 0.0
Mg87 Mg 0.88039 0.7633 0.66249 0.0
C88 C 0.81496 0.78738 0.65296 0.0
C89 C 0.69205 0.63992 0.6681 0.0
O90 O 0.70555 0.63113 0.68163 0.0
O91 O 0.7935 0.68248 0.63974 0.0
O92 O 0.85569 0.7249 0.63911 0.0
O93 O 0.78227 0.72257 0.69237 0.0
O94 O 0.83067 0.72519 0.6781 0.0
C95 C 0.82587 0.69788 0.63221 0.0
C96 C 0.81863 0.73629 0.69091 0.0
O97 O 0.71498 0.66751 0.65866 0.0
Mg98 Mg 0.16951 0.77397 0.92719 0.0
O99 O 0.12113 0.78536 0.93403 0.0
O100 O 0.13952 0.84541 0.92741 0.0
Mg101 Mg 0.19933 0.87197 0.91545 0.0
C102 C 0.11501 0.81318 0.93356 0.0
C103 C 0.11268 0.69867 0.94557 0.0
O104 O 0.11951 0.72264 0.95826 0.0
O105 O 0.15537 0.76989 0.89846 0.0
O106 O 0.17826 0.83133 0.89241 0.0
O107 O 0.19519 0.79721 0.95317 0.0
O108 O 0.20969 0.83093 0.92914 0.0
C109 C 0.16332 0.79666 0.88773 0.0
C110 C 0.21356 0.82973 0.94548 0.0
O111 O 0.12884 0.71119 0.93111 0.0
Mg112 Mg 0.28071 0.0463 0.28343 0.0
O113 O 0.23247 0.99189 0.29604 0.0
O114 O 0.1781 0.984 0.28494 0.0
Mg115 Mg 0.18981 0.03395 0.26759 0.0
C116 C 0.19616 0.97313 0.2947 0.0
C117 C 0.36035 0.05695 0.28932 0.0
O118 O 0.36769 0.09119 0.28503 0.0
O119 O 0.27259 0.01823 0.25712 0.0
O120 O 0.22028 0.01752 0.24752 0.0
O121 O 0.27911 0.08345 0.30462 0.0
O122 O 0.24417 0.06775 0.28104 0.0
C123 C 0.24854 0.01238 0.2452 0.0
C124 C 0.25344 0.08545 0.29548 0.0
O125 O 0.32578 0.03071 0.29062 0.0
Mg126 Mg 0.22005 0.344 0.60769 0.0
O127 O 0.2135 0.28858 0.61923 0.0
O128 O 0.15713 0.24148 0.61019 0.0
Mg129 Mg 0.12874 0.26477 0.59258 0.0
C130 C 0.1877 0.25351 0.61894 0.0
C131 C 0.29493 0.40673 0.62406 0.0
O132 O 0.27051 0.41721 0.62887 0.0
O133 O 0.23369 0.33075 0.58077 0.0
O134 O 0.17612 0.28452 0.57263 0.0
O135 O 0.1882 0.34973 0.63026 0.0
O136 O 0.16111 0.31883 0.60625 0.0
C137 C 0.21132 0.30709 0.56954 0.0
C138 C 0.15747 0.32853 0.62157 0.0
O139 O 0.28304 0.37671 0.61511 0.0
Mg140 Mg 0.8568 0.21003 0.96451 0.0
O141 O 0.90756 0.20092 0.96985 0.0
O142 O 0.8874 0.13934 0.96608 0.0
Mg143 Mg 0.82539 0.10986 0.95706 0.0
C144 C 0.91336 0.17284 0.97017 0.0
C145 C 0.88136 0.29418 0.96424 0.0
O146 O 0.84405 0.27776 0.96363 0.0
O147 O 0.86301 0.20667 0.93531 0.0
O148 O 0.84174 0.1446 0.93222 0.0
O149 O 0.83828 0.19329 0.99206 0.0
O150 O 0.81854 0.15416 0.9697 0.0
C151 C 0.85444 0.17772 0.92585 0.0
C152 C 0.81879 0.15912 0.98602 0.0
O153 O 0.89662 0.27355 0.96479 0.0
Mg154 Mg 0.68083 0.90071 0.27831 0.0
O155 O 0.73964 0.94679 0.28877 0.0
O156 O 0.77681 0.92075 0.28863 0.0
Mg157 Mg 0.74414 0.86041 0.27817 0.0
C158 C 0.77158 0.94863 0.29169 0.0
C159 C 0.65355 0.95661 0.28975 0.0
O160 O 0.66431 0.94967 0.30463 0.0
O161 O 0.70385 0.91093 0.25051 0.0
O162 O 0.74005 0.88381 0.25208 0.0
O163 O 0.66335 0.87574 0.30501 0.0
O164 O 0.69133 0.85804 0.28575 0.0
C165 C 0.72609 0.90086 0.24359 0.0
C166 C 0.67794 0.85483 0.30101 0.0
O167 O 0.65935 0.94288 0.2761 0.0
C168 C 0.60001 0.63472 0.06837 0.0
C169 C 0.63115 0.64572 0.05723 0.0
C170 C 0.57184 0.59665 0.06983 0.0
C171 C 0.54838 0.49816 0.06135 0.0
H172 H 0.44541 0.47987 0.05602 0.0
C173 C 0.41672 0.34764 0.06467 0.0
C174 C 0.39097 0.33817 0.05088 0.0
C175 C 0.44523 0.38527 0.0674 0.0
C176 C 0.47398 0.48454 0.05755 0.0
H177 H 0.65832 0.62503 0.03969 0.0
H178 H 0.60905 0.55827 0.04235 0.0
H179 H 0.49863 0.5449 0.0574 0.0
H180 H 0.37383 0.36106 0.02969 0.0
H181 H 0.42329 0.42681 0.03461 0.0
H182 H 0.52367 0.43769 0.06117 0.0
C183 C 0.6065 0.57927 0.04991 0.0
C184 C 0.50443 0.52174 0.05849 0.0
C185 C 0.63468 0.6175 0.04837 0.0
C186 C 0.39322 0.36739 0.04041 0.0
C187 C 0.4215 0.40507 0.04325 0.0
C188 C 0.51785 0.4609 0.06058 0.0
C189 C 0.57425 0.56863 0.06027 0.0
C190 C 0.54199 0.52897 0.06024 0.0
C191 C 0.44831 0.41428 0.05653 0.0
C192 C 0.48037 0.45373 0.05849 0.0
H193 H 0.59654 0.65566 0.07551 0.0
H194 H 0.54767 0.58922 0.07815 0.0
H195 H 0.57699 0.50289 0.06278 0.0
H196 H 0.41579 0.32584 0.073 0.0
H197 H 0.46521 0.39163 0.07787 0.0
C198 C 0.04447 0.40406 0.37823 0.0
C199 C 0.06197 0.41517 0.36198 0.0
C200 C 0.01755 0.41395 0.38342 0.0
C201 C 0.95405 0.44797 0.36681 0.0
H202 H 0.96321 0.48762 0.41311 0.0
C203 C 0.85483 0.5011 0.39218 0.0
C204 C 0.87292 0.53568 0.40122 0.0
C205 C 0.87454 0.48202 0.38825 0.0
C206 C 0.96031 0.47667 0.40013 0.0
H207 H 0.06437 0.44473 0.33832 0.0
H208 H 0.01799 0.46236 0.34744 0.0
H209 H 0.00369 0.46228 0.40421 0.0
H210 H 0.92577 0.57707 0.41342 0.0
H211 H 0.96012 0.54414 0.40641 0.0
H212 H 0.91177 0.46381 0.36251 0.0
C213 C 0.02459 0.44558 0.3561 0.0
C214 C 0.9832 0.46172 0.39509 0.0
C215 C 0.05145 0.4357 0.35092 0.0
C216 C 0.91092 0.55046 0.40647 0.0
C217 C 0.93057 0.53141 0.40255 0.0
C218 C 0.93116 0.46294 0.37185 0.0
C219 C 0.00756 0.43511 0.37247 0.0
C220 C 0.9808 0.44779 0.37828 0.0
C221 C 0.91272 0.4971 0.39331 0.0
C222 C 0.93451 0.47807 0.38847 0.0
H223 H 0.05181 0.38805 0.38702 0.0
H224 H 0.00462 0.40508 0.39603 0.0
H225 H 0.95114 0.43698 0.35384 0.0
H226 H 0.82553 0.48889 0.388 0.0
H227 H 0.85987 0.45544 0.38127 0.0
C228 C 0.32379 0.88022 0.6873 0.0
C229 C 0.306 0.9011 0.68285 0.0
C230 C 0.36309 0.89854 0.69008 0.0
C231 C 0.44621 0.99253 0.7001 0.0
H232 H 0.5043 0.94843 0.68175 0.0
C233 C 0.60753 0.06109 0.71233 0.0
C234 C 0.6298 0.06425 0.69787 0.0
C235 C 0.56789 0.03822 0.71175 0.0
C236 C 0.4885 0.96115 0.68692 0.0
H237 H 0.31562 0.95766 0.6778 0.0
H238 H 0.3842 0.98955 0.68244 0.0
H239 H 0.4354 0.91541 0.67788 0.0
H240 H 0.62796 0.04463 0.67167 0.0
H241 H 0.55898 0.00515 0.67061 0.0
H242 H 0.49937 0.03885 0.70865 0.0
C243 C 0.3677 0.95904 0.68403 0.0
C244 C 0.44896 0.94205 0.68486 0.0
C245 C 0.3284 0.94073 0.68125 0.0
C246 C 0.61168 0.0429 0.68305 0.0
C247 C 0.57208 0.02006 0.68246 0.0
C248 C 0.48572 0.01161 0.70217 0.0
C249 C 0.38552 0.93817 0.68848 0.0
C250 C 0.42738 0.9577 0.69127 0.0
C251 C 0.54965 0.01797 0.69669 0.0
C252 C 0.50739 0.99634 0.69547 0.0
H253 H 0.30736 0.84966 0.6887 0.0
H254 H 0.37584 0.88167 0.69368 0.0
H255 H 0.43039 0.00513 0.7054 0.0
H256 H 0.6206 0.07699 0.72399 0.0
H257 H 0.55147 0.03674 0.72303 0.0
C258 C 0.6369 0.62344 0.64826 0.0
C259 C 0.6511 0.61698 0.66364 0.0
C260 C 0.59841 0.60081 0.64391 0.0
C261 C 0.50396 0.53694 0.66288 0.0
H262 H 0.47551 0.50052 0.61598 0.0
C263 C 0.34807 0.46216 0.63936 0.0
C264 C 0.33573 0.43015 0.62871 0.0
C265 C 0.38654 0.48473 0.6436 0.0
C266 C 0.48302 0.51027 0.62916 0.0
H267 H 0.63589 0.58178 0.68656 0.0
H268 H 0.56897 0.54245 0.67897 0.0
H269 H 0.5427 0.54054 0.62342 0.0
H270 H 0.35424 0.39672 0.61418 0.0
H271 H 0.4215 0.43616 0.62165 0.0
H272 H 0.4444 0.50637 0.66868 0.0
C273 C 0.58747 0.56516 0.67032 0.0
C274 C 0.52147 0.53354 0.63337 0.0
C275 C 0.62591 0.58763 0.67463 0.0
C276 C 0.36279 0.42119 0.62241 0.0
C277 C 0.40136 0.44392 0.6266 0.0
C278 C 0.46555 0.51385 0.65865 0.0
C279 C 0.57326 0.57138 0.65489 0.0
C280 C 0.53239 0.5471 0.6503 0.0
C281 C 0.41367 0.47595 0.63725 0.0
C282 C 0.45461 0.50022 0.64174 0.0
H283 H 0.65553 0.64581 0.63951 0.0
H284 H 0.58826 0.60659 0.63202 0.0
H285 H 0.51138 0.54716 0.676 0.0
H286 H 0.32803 0.46994 0.64441 0.0
H287 H 0.39513 0.50945 0.65167 0.0
C288 C 0.94499 0.3536 0.96497 0.0
C289 C 0.90514 0.33598 0.96387 0.0
C290 C 0.96747 0.39306 0.9641 0.0
C291 C 0.96406 0.48185 0.96838 0.0
H292 H 0.0552 0.52376 0.94024 0.0
C293 C 0.07221 0.64289 0.9645 0.0
C294 C 0.08759 0.65745 0.94817 0.0
C295 C 0.04965 0.60376 0.96702 0.0
C296 C 0.0297 0.5125 0.94805 0.0
H297 H 0.8576 0.34592 0.96123 0.0
H298 H 0.89688 0.41472 0.95944 0.0
H299 H 0.01636 0.45531 0.94365 0.0
H300 H 0.09063 0.64245 0.92159 0.0
H301 H 0.05092 0.57439 0.92594 0.0
H302 H 0.97693 0.53912 0.97237 0.0
C303 C 0.91073 0.39809 0.96122 0.0
C304 C 0.00771 0.47329 0.95019 0.0
C305 C 0.88823 0.35864 0.96213 0.0
C306 C 0.07944 0.63215 0.93437 0.0
C307 C 0.05687 0.59311 0.93688 0.0
C308 C 0.98607 0.52112 0.96622 0.0
C309 C 0.95061 0.41572 0.96207 0.0
C310 C 0.97455 0.4575 0.96031 0.0
C311 C 0.04201 0.57845 0.95326 0.0
C312 C 0.019 0.53685 0.95594 0.0
H313 H 0.95888 0.33694 0.96642 0.0
H314 H -0.0019 0.40583 0.96504 0.0
H315 H 0.93886 0.47055 0.9764 0.0
H316 H 0.07799 0.66165 0.9754 0.0
H317 H 0.03887 0.59331 0.97983 0.0
C318 C 0.42995 0.07819 0.28997 0.0
C319 C 0.39188 0.04868 0.29109 0.0
C320 C 0.45979 0.07036 0.29036 0.0
C321 C 0.4804 0.99362 0.28148 0.0
H322 H 0.57398 0.05742 0.30649 0.0
C323 C 0.61167 0.97551 0.27387 0.0
C324 C 0.62952 0.97458 0.28925 0.0
C325 C 0.58488 0.98758 0.27392 0.0
C326 C 0.54799 0.03929 0.29947 0.0
H327 H 0.35541 0.98783 0.29394 0.0
H328 H 0.40755 0.97419 0.2947 0.0
H329 H 0.52175 0.07094 0.3079 0.0
H330 H 0.63457 0.98748 0.3166 0.0
H331 H 0.58794 0.00854 0.31666 0.0
H332 H 0.50631 0.96163 0.27325 0.0
C333 C 0.41426 0.00337 0.29332 0.0
C334 C 0.51818 0.04719 0.30018 0.0
C335 C 0.38439 0.01122 0.29301 0.0
C336 C 0.62133 0.98776 0.30452 0.0
C337 C 0.59466 -3e-05 0.30455 0.0
C338 C 0.51024 0.98585 0.2807 0.0
C339 C 0.4523 0.03282 0.29181 0.0
C340 C 0.48397 0.02435 0.29124 0.0
C341 C 0.57546 -0.00082 0.28933 0.0
C342 C 0.54438 0.00852 0.28972 0.0
H343 H 0.43677 0.10739 0.28848 0.0
H344 H 0.48872 0.09367 0.28903 0.0
H345 H 0.45463 0.97575 0.27427 0.0
H346 H 0.61739 0.96569 0.26186 0.0
H347 H 0.57108 0.98726 0.26191 0.0
C348 C 0.22975 0.99531 0.21451 0.0
C349 C 0.25836 0.00923 0.22718 0.0
C350 C 0.23911 0.00488 0.19721 0.0
C351 C 0.30749 0.08759 0.17434 0.0
H352 H 0.25815 0.02877 0.13342 0.0
C353 C 0.32567 0.15569 0.10654 0.0
C354 C 0.29386 0.13873 0.0956 0.0
C355 C 0.32494 0.13904 0.12245 0.0
C356 C 0.27186 0.0457 0.14475 0.0
H357 H 0.31941 0.04033 0.23145 0.0
H358 H 0.33565 0.05732 0.2012 0.0
H359 H 0.25186 0.9963 0.16069 0.0
H360 H 0.23554 0.09292 0.09312 0.0
H361 H 0.23352 0.06508 0.12108 0.0
H362 H 0.32579 0.13708 0.15875 0.0
C363 C 0.30604 0.03921 0.2047 0.0
C364 C 0.26858 0.027 0.1603 0.0
C365 C 0.29671 0.0291 0.22199 0.0
C366 C 0.26058 0.1064 0.10128 0.0
C367 C 0.25965 0.09014 0.1172 0.0
C368 C 0.31039 0.10635 0.15884 0.0
C369 C 0.2772 0.02888 0.19234 0.0
C370 C 0.28578 0.04779 0.17531 0.0
C371 C 0.29221 0.10541 0.12774 0.0
C372 C 0.29187 0.08566 0.14394 0.0
H373 H 0.19998 0.97985 0.21815 0.0
H374 H 0.21629 0.99647 0.18795 0.0
H375 H 0.32054 0.10439 0.18579 0.0
H376 H 0.35183 0.18038 0.10237 0.0
H377 H 0.35056 0.15158 0.13022 0.0
C378 C 0.22001 0.34627 0.41425 0.0
C379 C 0.19167 0.35451 0.40908 0.0
C380 C 0.22729 0.3443 0.43166 0.0
C381 C 0.18066 0.32314 0.47347 0.0
H382 H 0.28299 0.36399 0.49167 0.0
C383 C 0.24996 0.34585 0.54447 0.0
C384 C 0.22351 0.31032 0.55138 0.0
C385 C 0.25191 0.35177 0.52662 0.0
C386 C 0.25431 0.35248 0.48674 0.0
H387 H 0.14935 0.36802 0.41822 0.0
H388 H 0.16185 0.3641 0.44885 0.0
H389 H 0.27382 0.37671 0.46168 0.0
H390 H 0.18206 0.25204 0.54503 0.0
H391 H 0.18601 0.26221 0.514 0.0
H392 H 0.16102 0.29893 0.49841 0.0
C393 C 0.17833 0.35914 0.43929 0.0
C394 C 0.24904 0.35964 0.46961 0.0
C395 C 0.17126 0.36151 0.42178 0.0
C396 C 0.20235 0.27986 0.54008 0.0
C397 C 0.20435 0.28574 0.52233 0.0
C398 C 0.18592 0.31571 0.49049 0.0
C399 C 0.20625 0.35023 0.44437 0.0
C400 C 0.21213 0.3449 0.4628 0.0
C401 C 0.22754 0.3222 0.5155 0.0
C402 C 0.22276 0.33002 0.49727 0.0
H403 H 0.23653 0.341 0.40482 0.0
H404 H 0.24866 0.33696 0.43516 0.0
H405 H 0.15192 0.31109 0.46855 0.0
H406 H 0.26655 0.3699 0.55285 0.0
H407 H 0.27021 0.38014 0.52168 0.0
C408 C 0.76917 0.15452 0.773 0.0
C409 C 0.80059 0.16756 0.76185 0.0
C410 C 0.7744 0.15612 0.79091 0.0
C411 C 0.79433 0.14426 0.82783 0.0
H412 H 0.88003 0.23572 0.84652 0.0
C413 C 0.84787 0.14961 0.89659 0.0
C414 C 0.8548 0.18098 0.90683 0.0
C415 C 0.84188 0.14965 0.87891 0.0
C416 C 0.85585 0.21016 0.84151 0.0
H417 H 0.86191 0.19091 0.76085 0.0
H418 H 0.87069 0.19342 0.7918 0.0
H419 H 0.86613 0.23155 0.8157 0.0
H420 H 0.86295 0.23787 0.9063 0.0
H421 H 0.85278 0.23802 0.87521 0.0
H422 H 0.78412 0.12282 0.85363 0.0
C423 C 0.8422 0.18272 0.78677 0.0
C424 C 0.84805 0.20762 0.82387 0.0
C425 C 0.83703 0.18099 0.76899 0.0
C426 C 0.85773 0.21329 0.89879 0.0
C427 C 0.85182 0.21335 0.881 0.0
C428 C 0.80227 0.14671 0.84546 0.0
C429 C 0.81112 0.17095 0.79793 0.0
C430 C 0.81753 0.17446 0.81682 0.0
C431 C 0.8428 0.18108 0.87099 0.0
C432 C 0.83341 0.17948 0.85243 0.0
H433 H 0.74076 0.14404 0.76793 0.0
H434 H 0.7499 0.14679 0.79925 0.0
H435 H 0.77072 0.11834 0.82275 0.0
H436 H 0.84585 0.12438 0.90229 0.0
H437 H 0.83594 0.12476 0.87145 0.0
C438 C 0.72765 0.79908 0.09763 0.0
C439 C 0.75032 0.8262 0.08522 0.0
C440 C 0.72735 0.81005 0.11473 0.0
C441 C 0.78022 0.88918 0.14579 0.0
H442 H 0.68258 0.84515 0.16897 0.0
C443 C 0.76565 0.90441 0.21843 0.0
C444 C 0.73361 0.90511 0.22485 0.0
C445 C 0.76941 0.90005 0.20087 0.0
C446 C 0.70998 0.85819 0.16257 0.0
H447 H 0.79198 0.88575 0.0813 0.0
H448 H 0.79103 0.90469 0.11078 0.0
H449 H 0.68622 0.82451 0.13987 0.0
H450 H 0.68164 0.90445 0.21773 0.0
H451 H 0.68851 0.89738 0.18676 0.0
H452 H 0.80387 0.92342 0.1683 0.0
C453 C 0.77366 0.87496 0.10747 0.0
C454 C 0.71218 0.8458 0.14601 0.0
C455 C 0.77404 0.86404 0.09048 0.0
C456 C 0.70667 0.90407 0.21315 0.0
C457 C 0.71038 0.89955 0.19547 0.0
C458 C 0.77798 0.90168 0.16228 0.0
C459 C 0.74974 0.84832 0.11974 0.0
C460 C 0.74739 0.86093 0.13748 0.0
C461 C 0.74124 0.89632 0.18921 0.0
C462 C 0.74292 0.88605 0.17096 0.0
H463 H 0.70901 0.76972 0.09401 0.0
H464 H 0.70911 0.78867 0.12395 0.0
H465 H 0.80786 0.90131 0.13967 0.0
H466 H 0.78703 0.90537 0.22712 0.0
H467 H 0.79339 0.89741 0.19659 0.0
C468 C 0.80332 0.64925 0.6083 0.0
C469 C 0.83005 0.68499 0.61492 0.0
C470 C 0.80919 0.63745 0.59215 0.0
C471 C 0.88534 0.66238 0.55905 0.0
H472 H 0.8008 0.61394 0.52709 0.0
C473 C 0.89286 0.68505 0.48595 0.0
C474 C 0.87311 0.65325 0.47523 0.0
C475 C 0.8915 0.68078 0.50383 0.0
C476 C 0.82456 0.62676 0.536 0.0
H477 H 0.88321 0.73678 0.60954 0.0
H478 H 0.89259 0.71705 0.58153 0.0
H479 H 0.78863 0.62169 0.55722 0.0
H480 H 0.83789 0.59194 0.47465 0.0
H481 H 0.83445 0.58466 0.5061 0.0
H482 H 0.92138 0.67012 0.53739 0.0
C483 C 0.86789 0.69729 0.58891 0.0
C484 C 0.81762 0.63117 0.55327 0.0
C485 C 0.86226 0.70881 0.60498 0.0
C486 C 0.85373 0.61687 0.48265 0.0
C487 C 0.85152 0.61269 0.50058 0.0
C488 C 0.89227 0.65859 0.54174 0.0
C489 C 0.84173 0.66134 0.58231 0.0
C490 C 0.84808 0.65032 0.56486 0.0
C491 C 0.8696 0.64474 0.51128 0.0
C492 C 0.86203 0.64175 0.53 0.0
H493 H 0.77829 0.63022 0.6157 0.0
H494 H 0.78847 0.60954 0.58747 0.0
H495 H 0.90941 0.67623 0.56772 0.0
H496 H 0.90785 0.71337 0.48052 0.0
H497 H 0.90543 0.70593 0.51185 0.0
C498 C 0.1841 0.81674 0.85758 0.0
C499 C 0.15909 0.78854 0.86906 0.0
C500 C 0.18172 0.80977 0.83994 0.0
C501 C 0.11704 0.7627 0.80609 0.0
H502 H 0.20664 0.78437 0.77946 0.0
C503 C 0.1161 0.77699 0.73272 0.0
C504 C 0.14887 0.80762 0.72555 0.0
C505 C 0.11673 0.76464 0.74943 0.0
C506 C 0.18138 0.77839 0.78666 0.0
H507 H 0.11192 0.73089 0.87109 0.0
H508 H 0.10659 0.71926 0.83975 0.0
H509 H 0.20828 0.78134 0.81086 0.0
H510 H 0.20843 0.84829 0.72986 0.0
H511 H 0.20928 0.82812 0.75932 0.0
H512 H 0.09094 0.76285 0.78227 0.0
C513 C 0.12848 0.74643 0.84467 0.0
C514 C 0.18226 0.77626 0.80461 0.0
C515 C 0.13148 0.7531 0.8625 0.0
C516 C 0.18281 0.82452 0.73507 0.0
C517 C 0.18325 0.81271 0.75196 0.0
C518 C 0.11634 0.76551 0.78817 0.0
C519 C 0.15383 0.77472 0.83332 0.0
C520 C 0.15042 0.76938 0.81446 0.0
C521 C 0.14992 0.78322 0.75952 0.0
C522 C 0.14889 0.77448 0.77823 0.0
H523 H 0.20597 0.8442 0.86224 0.0
H524 H 0.20123 0.83216 0.83139 0.0
H525 H 0.09233 0.75783 0.81348 0.0
H526 H 0.08967 0.76305 0.72552 0.0
H527 H 0.09081 0.74118 0.75459 0.0
C528 C 0.26912 0.89363 0.94937 0.0
C529 C 0.23283 0.86566 0.95486 0.0
C530 C 0.2838 0.93131 0.9544 0.0
C531 C 0.31043 0.00652 0.97445 0.0
H532 H 0.24263 0.04425 0.96223 0.0
C533 C 0.35174 0.15778 0.99217 0.0
C534 C 0.3227 0.15893 0.00142 0.0
C535 C 0.34311 0.12654 0.98164 0.0
C536 C 0.26189 0.03421 0.96575 0.0
H537 H 0.18363 0.85422 0.97016 0.0
H538 H 0.20917 0.92064 0.97885 0.0
H539 H 0.22315 0.97788 0.95689 0.0
H540 H 0.26199 0.13157 0.00562 0.0
H541 H 0.24674 0.07726 0.98759 0.0
H542 H 0.34834 0.06196 0.98422 0.0
C543 C 0.22641 0.91322 0.97088 0.0
C544 C 0.25064 0.99623 0.96276 0.0
C545 C 0.21208 0.87533 0.96615 0.0
C546 C 0.28475 0.13108 -0.00145 0.0
C547 C 0.27609 0.09996 0.98813 0.0
C548 C 0.32145 0.04439 0.97775 0.0
C549 C 0.26187 0.94156 0.9646 0.0
C550 C 0.27449 0.98196 0.96741 0.0
C551 C 0.30538 0.09618 0.9804 0.0
C552 C 0.29693 0.05848 0.97379 0.0
H553 H 0.28515 0.88667 0.94038 0.0
H554 H 0.31113 0.95275 0.94938 0.0
H555 H 0.32935 0.99606 0.978 0.0
H556 H 0.38128 0.17895 0.99438 0.0
H557 H 0.36623 0.12489 0.97553 0.0
C558 C 0.21785 0.3564 0.31293 0.0
C559 C 0.18133 0.35147 0.31495 0.0
C560 C 0.22255 0.32759 0.30583 0.0
C561 C 0.1677 0.22403 0.30527 0.0
H562 H 0.26147 0.23619 0.28615 0.0
C563 C 0.20274 0.10292 0.29416 0.0
C564 C 0.23881 0.11094 0.3 0.0
C565 C 0.19219 0.13072 0.29477 0.0
C566 C 0.23518 0.23248 0.29154 0.0
H567 H 0.12146 0.31481 0.30937 0.0
H568 H 0.12965 0.26461 0.29639 0.0
H569 H 0.24903 0.28891 0.28485 0.0
H570 H 0.29134 0.15342 0.31189 0.0
H571 H 0.27303 0.20231 0.31279 0.0
H572 H 0.15402 0.16738 0.31186 0.0
C573 C 0.15465 0.29039 0.30063 0.0
C574 C 0.22796 0.26256 0.29075 0.0
C575 C 0.15 0.31943 0.30774 0.0
C576 C 0.26327 0.14644 0.30742 0.0
C577 C 0.25301 0.17449 0.30774 0.0
C578 C 0.17468 0.19372 0.30579 0.0
C579 C 0.1907 0.29322 0.30062 0.0
C580 C 0.19469 0.25915 0.29809 0.0
C581 C 0.21785 0.16717 0.30095 0.0
C582 C 0.20899 0.19812 0.2994 0.0
H583 H 0.24234 0.38077 0.31856 0.0
H584 H 0.25074 0.33091 0.30612 0.0
H585 H 0.14207 0.22046 0.31134 0.0
H586 H 0.18322 0.07565 0.28852 0.0
H587 H 0.16484 0.12437 0.28957 0.0
C588 C 0.82168 0.20106 0.65743 0.0
C589 C 0.81828 0.22257 0.67069 0.0
C590 C 0.8564 0.21473 0.64879 0.0
C591 C 0.93898 0.23406 0.64901 0.0
H592 H 0.01074 0.33778 0.63584 0.0
C593 C 0.08925 0.27917 0.62437 0.0
C594 C 0.11927 0.31528 0.62876 0.0
C595 C 0.05191 0.26833 0.62874 0.0
C596 C 0.99113 0.30882 0.63969 0.0
H597 H 0.8464 0.27618 0.6843 0.0
H598 H 0.90651 0.30047 0.66898 0.0
H599 H 0.94446 0.31927 0.64173 0.0
H600 H 0.13432 0.36765 0.64212 0.0
H601 H 0.06866 0.34835 0.65026 0.0
H602 H 0.98555 0.22371 0.64761 0.0
C603 C 0.88283 0.27319 0.66521 0.0
C604 C 0.95315 0.29816 0.64286 0.0
C605 C 0.84842 0.25934 0.67397 0.0
C606 C 0.11157 0.33966 0.63854 0.0
C607 C 0.074 0.32879 0.64297 0.0
C608 C 0.97691 0.24474 0.64596 0.0
C609 C 0.8878 0.25018 0.65322 0.0
C610 C 0.92676 0.26071 0.64764 0.0
C611 C 0.04368 0.29326 0.63778 0.0
C612 C 0.0035 0.28227 0.64134 0.0
H613 H 0.79894 0.17237 0.65491 0.0
H614 H 0.85944 0.19661 0.63946 0.0
H615 H 0.91954 0.20524 0.65312 0.0
H616 H 0.09443 0.25928 0.61738 0.0
H617 H 0.02937 0.2408 0.62452 0.0
C618 C 0.74204 0.83969 0.98771 0.0
C619 C 0.70469 0.81494 0.99321 0.0
C620 C 0.75322 0.87722 0.98365 0.0
C621 C 0.72382 0.94895 0.97906 0.0
H622 H 0.79914 0.00162 0.01487 0.0
C623 C 0.7645 0.10008 0.99635 0.0
C624 C 0.80382 0.12537 0.99682 0.0
C625 C 0.75035 0.06113 -0.00214 0.0
C626 C 0.77843 0.98757 0.00471 0.0
H627 H 0.64822 0.80724 0.99579 0.0
H628 H 0.66729 0.87242 0.98806 0.0
H629 H 0.78034 0.93635 0.00767 0.0
H630 H 0.85899 0.13085 0.00103 0.0
H631 H 0.83476 0.06305 0.00343 0.0
H632 H 0.72232 0.00026 0.97582 0.0
C633 C 0.68817 0.86332 0.98719 0.0
C634 C 0.76786 0.95027 0.00049 0.0
C635 C 0.67711 0.82582 0.99139 0.0
C636 C 0.82845 0.11179 0.00097 0.0
C637 C 0.81446 0.07279 0.00215 0.0
C638 C 0.7348 0.98652 0.9831 0.0
C639 C 0.72689 0.88994 0.9848 0.0
C640 C 0.7405 0.93064 0.98763 0.0
C641 C 0.77549 0.04696 -0.00052 0.0
C642 C 0.76213 0.00625 0.99605 0.0
H643 H 0.7638 0.83187 0.98915 0.0
H644 H 0.78315 0.8972 0.98155 0.0
H645 H 0.70244 0.93425 0.96921 0.0
H646 H 0.7451 0.11004 0.9929 0.0
H647 H 0.72004 0.04206 0.99635 0.0
C648 C 0.68887 0.80136 0.3073 0.0
C649 C 0.68182 0.82968 0.31349 0.0
C650 C 0.69533 0.77877 0.31865 0.0
C651 C 0.73183 0.78009 0.36159 0.0
H652 H 0.69602 0.67412 0.35141 0.0
C653 C 0.77555 0.68913 0.40218 0.0
C654 C 0.78691 0.66689 0.39281 0.0
C655 C 0.75816 0.7069 0.39389 0.0
C656 C 0.70635 0.70371 0.35437 0.0
H657 H 0.67474 0.85585 0.33646 0.0
H658 H 0.68636 0.81607 0.35656 0.0
H659 H 0.67131 0.70824 0.33501 0.0
H660 H 0.78842 0.64537 0.36742 0.0
H661 H 0.75817 0.67665 0.35288 0.0
H662 H 0.76755 0.77577 0.38069 0.0
C663 C 0.68698 0.81165 0.34282 0.0
C664 C 0.69212 0.7232 0.34504 0.0
C665 C 0.68018 0.83423 0.33136 0.0
C666 C 0.78004 0.66236 0.37499 0.0
C667 C 0.7625 0.68006 0.36669 0.0
C668 C 0.74602 0.76055 0.37096 0.0
C669 C 0.69497 0.78392 0.33652 0.0
C670 C 0.70544 0.76185 0.34824 0.0
C671 C 0.75153 0.70265 0.37606 0.0
C672 C 0.73406 0.7224 0.36717 0.0
H673 H 0.68995 0.7969 0.29359 0.0
H674 H 0.70194 0.75809 0.31337 0.0
H675 H 0.74296 0.80996 0.36422 0.0
H676 H 0.77986 0.69272 0.41598 0.0
H677 H 0.74959 0.72371 0.40148 0.0
C678 C 0.07076 0.85231 0.64417 0.0
C679 C 0.10825 0.88115 0.64734 0.0
C680 C 0.0404 0.85826 0.64763 0.0
C681 C 0.9806 0.88108 0.65665 0.0
H682 H 0.98838 0.88214 0.70653 0.0
C683 C 0.88069 0.77513 0.70475 0.0
C684 C 0.84643 0.77209 0.69915 0.0
C685 C 0.91495 0.80909 0.70257 0.0
C686 C 0.98598 0.88312 0.69266 0.0
H687 H 0.14391 0.94017 0.65448 0.0
H688 H 0.09052 0.95007 0.66131 0.0
H689 H 0.04562 0.90492 0.68893 0.0
H690 H 0.8199 0.80357 0.69008 0.0
H691 H 0.87998 0.86263 0.68553 0.0
H692 H 0.92061 0.85597 0.66031 0.0
C693 C 0.08471 0.92317 0.65587 0.0
C694 C 0.01876 0.89631 0.68256 0.0
C695 C 0.11519 0.91755 0.65182 0.0
C696 C 0.84607 0.80521 0.6944 0.0
C697 C 0.88051 0.83899 0.69166 0.0
C698 C 0.94792 0.86855 0.66674 0.0
C699 C 0.04713 0.89284 0.65473 0.0
C700 C 0.01599 0.89321 0.66449 0.0
C701 C 0.9153 0.84015 0.69446 0.0
C702 C 0.95001 0.86713 0.68482 0.0
H703 H 0.06474 0.82394 0.64091 0.0
H704 H 0.01168 0.83434 0.64672 0.0
H705 H 0.97772 0.87811 0.64276 0.0
H706 H 0.88167 0.74994 0.70843 0.0
H707 H 0.94127 0.80908 0.70492 0.0
C708 C 0.98139 0.21515 0.97965 0.0
C709 C 0.95018 0.17851 0.97685 0.0
C710 C 0.01497 0.22004 0.98722 0.0
C711 C 0.04831 0.17147 0.01609 0.0
H712 H 0.14849 0.236 0.99654 0.0
C713 C 0.17444 0.15217 0.03308 0.0
C714 C 0.21154 0.18358 0.03391 0.0
C715 C 0.14393 0.15643 0.02788 0.0
C716 C 0.12083 0.21846 0.00238 0.0
H717 H 0.93026 0.11833 0.97958 0.0
H718 H 0.98844 0.12695 0.9928 0.0
H719 H 0.09274 0.23422 0.98337 0.0
H720 H 0.24534 0.24452 0.03039 0.0
H721 H 0.1915 0.25209 0.02141 0.0
H722 H 0.07588 0.15549 0.03503 0.0
C723 C 0.9869 0.15188 0.98921 0.0
C724 C 0.08891 0.21733 0.99478 0.0
C725 C 0.95364 0.14697 0.98149 0.0
C726 C 0.21711 0.21974 0.02993 0.0
C727 C 0.18634 0.22402 0.02465 0.0
C728 C 0.0801 0.17285 0.02376 0.0
C729 C 0.01776 0.18842 0.99235 0.0
C730 C 0.05222 0.193 0.00129 0.0
C731 C 0.14941 0.19227 0.0234 0.0
C732 C 0.11666 0.19547 0.01672 0.0
H733 H 0.97973 0.24007 0.97623 0.0
H734 H 0.03832 0.24854 0.98949 0.0
H735 H 0.02047 0.15309 0.02162 0.0
H736 H 0.16892 0.12386 0.03606 0.0
H737 H 0.11613 0.13121 0.02682 0.0
C738 C 0.79975 0.01491 0.30386 0.0
C739 C 0.80387 0.98384 0.29901 0.0
C740 C 0.83049 0.04756 0.31102 0.0
C741 C 0.9237 0.08062 0.33263 0.0
H742 H 0.94543 0.18071 0.31826 0.0
C743 C 0.06937 0.21515 0.34408 0.0
C744 C 0.07001 0.24891 0.34865 0.0
C745 C 0.03517 0.18271 0.33956 0.0
C746 C 0.93946 0.15297 0.32259 0.0
H747 H 0.84394 0.96322 0.29769 0.0
H748 H 0.89706 0.01984 0.30982 0.0
H749 H 0.88867 0.12463 0.30735 0.0
H750 H 0.03476 0.27459 0.35236 0.0
H751 H 0.97518 0.21792 0.34455 0.0
H752 H 0.9748 0.10886 0.34761 0.0
C753 C 0.87001 0.01885 0.30847 0.0
C754 C 0.90689 0.12082 0.31634 0.0
C755 C 0.83946 0.98638 0.30137 0.0
C756 C 0.03542 0.24914 0.34892 0.0
C757 C 0.00125 0.21672 0.34432 0.0
C758 C 0.95625 0.1127 0.33882 0.0
C759 C 0.86594 0.0498 0.31349 0.0
C760 C 0.89892 0.08421 0.32108 0.0
C761 C 0.00077 0.18323 0.33943 0.0
C762 C 0.96482 0.14925 0.33371 0.0
H763 H 0.77276 0.01394 0.30226 0.0
H764 H 0.82631 0.07081 0.31484 0.0
H765 H 0.91802 0.0529 0.33685 0.0
H766 H 0.09541 0.21392 0.34361 0.0
H767 H 0.0359 0.15753 0.33566 0.0
C768 C 0.77164 0.81492 0.65319 0.0
C769 C 0.80819 0.81978 0.65076 0.0
C770 C 0.76668 0.84643 0.65488 0.0
C771 C 0.81568 0.95179 0.65002 0.0
H772 H 0.75232 0.94516 0.68881 0.0
C773 C 0.82991 0.08423 0.68414 0.0
C774 C 0.7965 0.08373 0.68943 0.0
C775 C 0.82842 0.05153 0.67756 0.0
C776 C 0.76968 0.94738 0.67778 0.0
H777 H 0.86772 0.86178 0.64688 0.0
H778 H 0.85916 0.91633 0.65002 0.0
H779 H 0.75408 0.88891 0.67951 0.0
H780 H 0.73518 0.04818 0.69183 0.0
H781 H 0.73268 0.99111 0.68038 0.0
H782 H 0.83208 0.0106 0.64865 0.0
C783 C 0.83422 0.88828 0.65056 0.0
C784 C 0.77061 0.91505 0.67239 0.0
C785 C 0.83917 0.85685 0.64883 0.0
C786 C 0.76152 0.04963 0.68795 0.0
C787 C 0.76007 0.01684 0.68143 0.0
C788 C 0.81485 0.98415 0.65545 0.0
C789 C 0.79812 0.88351 0.65417 0.0
C790 C 0.79407 0.91695 0.65861 0.0
C791 C 0.79351 0.01742 0.67614 0.0
C792 C 0.79229 0.98246 0.66957 0.0
H793 H 0.74707 0.78684 0.65469 0.0
H794 H 0.73835 0.84172 0.65731 0.0
H795 H 0.83361 0.95418 0.6392 0.0
H796 H 0.85736 0.10994 0.68505 0.0
H797 H 0.85478 0.05283 0.67384 0.0
C798 C 0.86132 0.83127 0.00916 0.0
C799 C 0.828 0.79778 0.01402 0.0
C800 C 0.89066 0.82979 0.00051 0.0
C801 C 0.93377 0.77132 0.99107 0.0
H802 H 0.97368 0.83686 0.95107 0.0
C803 C 0.05087 0.77291 0.9474 0.0
C804 C 0.07944 0.80854 0.94137 0.0
C805 C 0.01842 0.76904 0.95568 0.0
C806 C 0.96326 0.8187 0.9623 0.0
H807 H 0.80047 0.73633 0.01418 0.0
H808 H 0.85243 0.73384 -0.00085 0.0
H809 H 0.92121 0.83455 0.96726 0.0
H810 H 0.09599 0.86801 0.93935 0.0
H811 H 0.04004 0.86143 0.95397 0.0
H812 H 0.97651 0.75617 0.98637 0.0
C813 C 0.85539 0.76123 0.00203 0.0
C814 C 0.93304 0.81728 0.97156 0.0
C815 C 0.82566 0.76267 0.01064 0.0
C816 C 0.07449 0.84007 0.94367 0.0
C817 C 0.0422 0.83623 0.95202 0.0
C818 C 0.96432 0.77296 0.98187 0.0
C819 C 0.8878 0.79482 0.99652 0.0
C820 C 0.91827 0.79401 0.98618 0.0
C821 C 0.01375 0.80071 0.95821 0.0
C822 C 0.97981 0.79708 0.96748 0.0
H823 H 0.8645 0.85891 0.01163 0.0
H824 H 0.91559 0.85619 0.99676 0.0
H825 H 0.92312 0.75327 0.00234 0.0
H826 H 0.05363 0.74795 0.94584 0.0
H827 H 0.99693 0.74115 0.96003 0.0
C828 C 0.96541 0.71933 0.38906 0.0
C829 C 0.94985 0.73632 0.3996 0.0
C830 C 0.99725 0.74161 0.37874 0.0
C831 C 0.07657 0.84028 0.37179 0.0
H832 H 0.0684 0.80874 0.32405 0.0
C833 C 0.18913 0.93361 0.3209 0.0
C834 C 0.17352 0.93951 0.30582 0.0
C835 C 0.16594 0.90498 0.33257 0.0
C836 C 0.07121 0.81787 0.33736 0.0
H837 H 0.95678 0.79029 0.40803 0.0
H838 H 0.012 0.82893 0.39003 0.0
H839 H 0.02064 0.76703 0.34484 0.0
H840 H 0.12176 0.91847 0.29073 0.0
H841 H 0.08167 0.86879 0.31093 0.0
H842 H 0.12626 0.89185 0.36413 0.0
C843 C -0.00023 0.79841 0.38981 0.0
C844 C 0.04402 0.7938 0.34932 0.0
C845 C 0.96787 0.77617 0.40007 0.0
C846 C 0.13473 0.91488 0.30225 0.0
C847 C 0.11173 0.88616 0.3138 0.0
C848 C 0.10386 0.8643 0.35984 0.0
C849 C 0.01444 0.7814 0.37878 0.0
C850 C 0.04587 0.80508 0.3666 0.0
C851 C 0.12681 0.88139 0.32929 0.0
C852 C 0.10098 0.85376 0.34239 0.0
H853 H 0.9524 0.68875 0.3884 0.0
H854 H 0.00813 0.72764 0.37055 0.0
H855 H 0.07908 0.84963 0.38505 0.0
H856 H 0.21887 0.9521 0.32406 0.0
H857 H 0.17848 0.90176 0.34432 0.0
C858 C 0.13933 0.97753 0.69397 0.0
C859 C 0.16767 0.96736 0.69303 0.0
C860 C 0.14815 0.01483 0.69077 0.0
C861 C 0.21936 0.0978 0.6662 0.0
H862 H 0.15692 0.13984 0.68111 0.0
C863 C 0.22722 0.23305 0.63606 0.0
C864 C 0.19154 0.22598 0.63003 0.0
C865 C 0.22992 0.20663 0.6467 0.0
C866 C 0.17479 0.12858 0.67693 0.0
H867 H 0.22843 0.9896 0.69015 0.0
H868 H 0.24402 0.05492 0.68529 0.0
H869 H 0.15281 0.08544 0.69632 0.0
H870 H 0.13073 0.18608 0.63082 0.0
H871 H 0.13551 0.14069 0.6495 0.0
H872 H 0.24089 0.14089 0.64667 0.0
C873 C 0.21464 0.03371 0.68773 0.0
C874 C 0.17232 0.09728 0.68557 0.0
C875 C 0.20572 0.99625 0.69072 0.0
C876 C 0.15871 0.19232 0.63509 0.0
C877 C 0.16135 0.16645 0.64594 0.0
C878 C 0.22221 0.12946 0.65773 0.0
C879 C 0.1857 0.04311 0.68685 0.0
C880 C 0.19354 0.08058 0.67993 0.0
C881 C 0.19691 0.17322 0.65182 0.0
C882 C 0.19899 0.1443 0.66265 0.0
H883 H 0.10977 0.95619 0.69584 0.0
H884 H 0.12493 0.02068 0.69015 0.0
H885 H 0.23583 0.08559 0.66128 0.0
H886 H 0.25301 0.25874 0.6324 0.0
H887 H 0.25769 0.2124 0.65104 0.0
loop_
_geom_bond_atom_site_label_1
_geom_bond_atom_site_label_2
_geom_bond_distance
_geom_bond_site_symmetry_2
_ccdc_geom_bond_type
Mg0 O1 2.028 . S
Mg0 O7 1.986 . S
Mg0 O9 2.114 . S
Mg0 O10 2.251 . S
Mg0 O13 2.010 . S
O1 Mg0 2.028 . S
O1 C4 1.250 . S
O2 Mg3 2.028 . S
O2 C4 1.248 . S
Mg3 O2 2.028 . S
Mg3 O8 2.032 . S
Mg3 O10 2.079 . S
C4 O1 1.250 . S
C4 O2 1.248 . S
C5 O6 1.264 . S
C5 O13 1.249 . S
O6 C5 1.264 . S
O7 Mg0 1.986 . S
O7 C11 1.246 . S
O8 Mg3 2.032 . S
O8 C11 1.259 . S
O9 Mg0 2.114 . S
O9 C12 1.252 . S
O10 Mg0 2.251 . S
O10 Mg3 2.079 . S
O10 C12 1.273 . S
C11 O7 1.246 . S
C11 O8 1.259 . S
C12 O9 1.252 . S
C12 O10 1.273 . S
O13 Mg0 2.010 . S
O13 C5 1.249 . S
Mg14 O15 2.028 . S
Mg14 O21 1.986 . S
Mg14 O23 2.114 . S
Mg14 O24 2.251 . S
Mg14 O27 2.010 . S
O15 Mg14 2.028 . S
O15 C18 1.250 . S
O16 Mg17 2.028 . S
O16 C18 1.248 . S
Mg17 O16 2.028 . S
Mg17 O22 2.032 . S
Mg17 O24 2.079 . S
C18 O15 1.250 . S
C18 O16 1.248 . S
C19 O20 1.264 . S
C19 O27 1.249 . S
O20 C19 1.264 . S
O21 Mg14 1.986 . S
O21 C25 1.246 . S
O22 Mg17 2.032 . S
O22 C25 1.259 . S
O23 Mg14 2.114 . S
O23 C26 1.252 . S
O24 Mg14 2.251 . S
O24 Mg17 2.079 . S
O24 C26 1.273 . S
C25 O21 1.246 . S
C25 O22 1.259 . S
C26 O23 1.252 . S
C26 O24 1.273 . S
O27 Mg14 2.010 . S
O27 C19 1.249 . S
Mg28 O29 2.028 . S
Mg28 O35 1.986 . S
Mg28 O37 2.114 . S
Mg28 O38 2.251 . S
Mg28 O41 2.010 . S
O29 Mg28 2.028 . S
O29 C32 1.250 . S
O30 Mg31 2.028 . S
O30 C32 1.248 . S
Mg31 O30 2.028 . S
Mg31 O36 2.032 . S
Mg31 O38 2.079 . S
C32 O29 1.250 . S
C32 O30 1.248 . S
C33 O34 1.264 . S
C33 O41 1.249 . S
O34 C33 1.264 . S
O35 Mg28 1.986 . S
O35 C39 1.246 . S
O36 Mg31 2.032 . S
O36 C39 1.259 . S
O37 Mg28 2.114 . S
O37 C40 1.252 . S
O38 Mg28 2.251 . S
O38 Mg31 2.079 . S
O38 C40 1.273 . S
C39 O35 1.246 . S
C39 O36 1.259 . S
C40 O37 1.252 . S
C40 O38 1.273 . S
O41 Mg28 2.010 . S
O41 C33 1.249 . S
Mg42 O43 2.028 . S
Mg42 O49 1.986 . S
Mg42 O51 2.114 . S
Mg42 O52 2.251 . S
Mg42 O55 2.010 . S
O43 Mg42 2.028 . S
O43 C46 1.250 . S
O44 Mg45 2.028 . S
O44 C46 1.248 . S
Mg45 O44 2.028 . S
Mg45 O50 2.032 . S
Mg45 O52 2.079 . S
C46 O43 1.250 . S
C46 O44 1.248 . S
C47 O48 1.264 . S
C47 O55 1.249 . S
O48 C47 1.264 . S
O49 Mg42 1.986 . S
O49 C53 1.246 . S
O50 Mg45 2.032 . S
O50 C53 1.259 . S
O51 Mg42 2.114 . S
O51 C54 1.252 . S
O52 Mg42 2.251 . S
O52 Mg45 2.079 . S
O52 C54 1.273 . S
C53 O49 1.246 . S
C53 O50 1.259 . S
C54 O51 1.252 . S
C54 O52 1.273 . S
O55 Mg42 2.010 . S
O55 C47 1.249 . S
Mg56 O57 2.028 . S
Mg56 O63 1.986 . S
Mg56 O65 2.114 . S
Mg56 O66 2.251 . S
Mg56 O69 2.010 . S
O57 Mg56 2.028 . S
O57 C60 1.250 . S
O58 Mg59 2.028 . S
O58 C60 1.248 . S
Mg59 O58 2.028 . S
Mg59 O64 2.032 . S
Mg59 O66 2.079 . S
C60 O57 1.250 . S
C60 O58 1.248 . S
C61 O62 1.264 . S
C61 O69 1.249 . S
O62 C61 1.264 . S
O63 Mg56 1.986 . S
O63 C67 1.246 . S
O64 Mg59 2.032 . S
O64 C67 1.259 . S
O65 Mg56 2.114 . S
O65 C68 1.252 . S
O66 Mg56 2.251 . S
O66 Mg59 2.079 . S
O66 C68 1.273 . S
C67 O63 1.246 . S
C67 O64 1.259 . S
C68 O65 1.252 . S
C68 O66 1.273 . S
O69 Mg56 2.010 . S
O69 C61 1.249 . S
Mg70 O71 2.028 . S
Mg70 O77 1.986 . S
Mg70 O79 2.114 . S
Mg70 O80 2.251 . S
Mg70 O83 2.010 . S
O71 Mg70 2.028 . S
O71 C74 1.250 . S
O72 Mg73 2.028 . S
O72 C74 1.248 . S
Mg73 O72 2.028 . S
Mg73 O78 2.032 . S
Mg73 O80 2.079 . S
C74 O71 1.250 . S
C74 O72 1.248 . S
C75 O76 1.264 . S
C75 O83 1.249 . S
O76 C75 1.264 . S
O77 Mg70 1.986 . S
O77 C81 1.246 . S
O78 Mg73 2.032 . S
O78 C81 1.259 . S
O79 Mg70 2.114 . S
O79 C82 1.252 . S
O80 Mg70 2.251 . S
O80 Mg73 2.079 . S
O80 C82 1.273 . S
C81 O77 1.246 . S
C81 O78 1.259 . S
C82 O79 1.252 . S
C82 O80 1.273 . S
O83 Mg70 2.010 . S
O83 C75 1.249 . S
Mg84 O85 2.028 . S
Mg84 O91 1.986 . S
Mg84 O93 2.114 . S
Mg84 O94 2.251 . S
Mg84 O97 2.010 . S
O85 Mg84 2.028 . S
O85 C88 1.250 . S
O86 Mg87 2.028 . S
O86 C88 1.248 . S
Mg87 O86 2.028 . S
Mg87 O92 2.032 . S
Mg87 O94 2.079 . S
C88 O85 1.250 . S
C88 O86 1.248 . S
C89 O90 1.264 . S
C89 O97 1.249 . S
O90 C89 1.264 . S
O91 Mg84 1.986 . S
O91 C95 1.246 . S
O92 Mg87 2.032 . S
O92 C95 1.259 . S
O93 Mg84 2.114 . S
O93 C96 1.252 . S
O94 Mg84 2.251 . S
O94 Mg87 2.079 . S
O94 C96 1.273 . S
C95 O91 1.246 . S
C95 O92 1.259 . S
C96 O93 1.252 . S
C96 O94 1.273 . S
O97 Mg84 2.010 . S
O97 C89 1.249 . S
Mg98 O99 2.028 . S
Mg98 O105 1.986 . S
Mg98 O107 2.114 . S
Mg98 O108 2.251 . S
Mg98 O111 2.010 . S
O99 Mg98 2.028 . S
O99 C102 1.250 . S
O100 Mg101 2.028 . S
O100 C102 1.248 . S
Mg101 O100 2.028 . S
Mg101 O106 2.032 . S
Mg101 O108 2.079 . S
C102 O99 1.250 . S
C102 O100 1.248 . S
C103 O104 1.264 . S
C103 O111 1.249 . S
O104 C103 1.264 . S
O105 Mg98 1.986 . S
O105 C109 1.246 . S
O106 Mg101 2.032 . S
O106 C109 1.259 . S
O107 Mg98 2.114 . S
O107 C110 1.252 . S
O108 Mg98 2.251 . S
O108 Mg101 2.079 . S
O108 C110 1.273 . S
C109 O105 1.246 . S
C109 O106 1.259 . S
C110 O107 1.252 . S
C110 O108 1.273 . S
O111 Mg98 2.010 . S
O111 C103 1.249 . S
Mg112 O113 2.028 . S
Mg112 O119 1.986 . S
Mg112 O121 2.114 . S
Mg112 O122 2.251 . S
Mg112 O125 2.010 . S
O113 Mg112 2.028 . S
O113 C116 1.250 . S
O114 Mg115 2.028 . S
O114 C116 1.248 . S
Mg115 O114 2.028 . S
Mg115 O120 2.032 . S
Mg115 O122 2.079 . S
C116 O113 1.250 . S
C116 O114 1.248 . S
C117 O118 1.264 . S
C117 O125 1.249 . S
O118 C117 1.264 . S
O119 Mg112 1.986 . S
O119 C123 1.246 . S
O120 Mg115 2.032 . S
O120 C123 1.259 . S
O121 Mg112 2.114 . S
O121 C124 1.252 . S
O122 Mg112 2.251 . S
O122 Mg115 2.079 . S
O122 C124 1.273 . S
C123 O119 1.246 . S
C123 O120 1.259 . S
C124 O121 1.252 . S
C124 O122 1.273 . S
O125 Mg112 2.010 . S
O125 C117 1.249 . S
Mg126 O127 2.028 . S
Mg126 O133 1.986 . S
Mg126 O135 2.114 . S
Mg126 O136 2.251 . S
Mg126 O139 2.010 . S
O127 Mg126 2.028 . S
O127 C130 1.250 . S
O128 Mg129 2.028 . S
O128 C130 1.248 . S
Mg129 O128 2.028 . S
Mg129 O134 2.032 . S
Mg129 O136 2.079 . S
C130 O127 1.250 . S
C130 O128 1.248 . S
C131 O132 1.264 . S
C131 O139 1.249 . S
O132 C131 1.264 . S
O133 Mg126 1.986 . S
O133 C137 1.246 . S
O134 Mg129 2.032 . S
O134 C137 1.259 . S
O135 Mg126 2.114 . S
O135 C138 1.252 . S
O136 Mg126 2.251 . S
O136 Mg129 2.079 . S
O136 C138 1.273 . S
C137 O133 1.246 . S
C137 O134 1.259 . S
C138 O135 1.252 . S
C138 O136 1.273 . S
O139 Mg126 2.010 . S
O139 C131 1.249 . S
Mg140 O141 2.028 . S
Mg140 O147 1.986 . S
Mg140 O149 2.114 . S
Mg140 O150 2.251 . S
Mg140 O153 2.010 . S
O141 Mg140 2.028 . S
O141 C144 1.250 . S
O142 Mg143 2.028 . S
O142 C144 1.248 . S
Mg143 O142 2.028 . S
Mg143 O148 2.032 . S
Mg143 O150 2.079 . S
C144 O141 1.250 . S
C144 O142 1.248 . S
C145 O146 1.264 . S
C145 O153 1.249 . S
O146 C145 1.264 . S
O147 Mg140 1.986 . S
O147 C151 1.246 . S
O148 Mg143 2.032 . S
O148 C151 1.259 . S
O149 Mg140 2.114 . S
O149 C152 1.252 . S
O150 Mg140 2.251 . S
O150 Mg143 2.079 . S
O150 C152 1.273 . S
C151 O147 1.246 . S
C151 O148 1.259 . S
C152 O149 1.252 . S
C152 O150 1.273 . S
O153 Mg140 2.010 . S
O153 C145 1.249 . S
Mg154 O155 2.028 . S
Mg154 O161 1.986 . S
Mg154 O163 2.114 . S
Mg154 O164 2.251 . S
Mg154 O167 2.010 . S
O155 Mg154 2.028 . S
O155 C158 1.250 . S
O156 Mg157 2.028 . S
O156 C158 1.248 . S
Mg157 O156 2.028 . S
Mg157 O162 2.032 . S
Mg157 O164 2.079 . S
C158 O155 1.250 . S
C158 O156 1.248 . S
C159 O160 1.264 . S
C159 O167 1.249 . S
O160 C159 1.264 . S
O161 Mg154 1.986 . S
O161 C165 1.246 . S
O162 Mg157 2.032 . S
O162 C165 1.259 . S
O163 Mg154 2.114 . S
O163 C166 1.252 . S
O164 Mg154 2.251 . S
O164 Mg157 2.079 . S
O164 C166 1.273 . S
C165 O161 1.246 . S
C165 O162 1.259 . S
C166 O163 1.252 . S
C166 O164 1.273 . S
O167 Mg154 2.010 . S
O167 C159 1.249 . S
C168 C169 1.349 . S
C168 C170 1.327 . S
C168 H193 0.950 . S
C169 C168 1.349 . S
C169 C185 1.349 . S
C170 C168 1.327 . S
C170 C189 1.429 . S
C170 H194 0.950 . S
C171 C188 1.574 . S
C171 C190 1.368 . S
C171 H195 0.949 . S
H172 C176 0.949 . S
C173 C174 1.349 . S
C173 C175 1.327 . S
C173 H196 0.950 . S
C174 C173 1.349 . S
C174 C186 1.349 . S
C175 C173 1.327 . S
C175 C191 1.429 . S
C175 H197 0.950 . S
C176 H172 0.949 . S
C176 C184 1.574 . S
C176 C192 1.368 . S
H177 C185 0.950 . S
H178 C183 0.950 . S
H179 C184 0.949 . S
H180 C186 0.950 . S
H181 C187 0.950 . S
H182 C188 0.949 . S
C183 H178 0.950 . S
C183 C185 1.327 . S
C183 C189 1.429 . S
C184 C176 1.574 . S
C184 H179 0.949 . S
C184 C190 1.368 . S
C185 C169 1.349 . S
C185 H177 0.950 . S
C185 C183 1.327 . S
C186 C174 1.349 . S
C186 H180 0.950 . S
C186 C187 1.327 . S
C187 H181 0.950 . S
C187 C186 1.327 . S
C187 C191 1.429 . S
C188 C171 1.574 . S
C188 H182 0.949 . S
C188 C192 1.368 . S
C189 C170 1.429 . S
C189 C183 1.429 . S
C189 C190 1.523 . S
C190 C171 1.368 . S
C190 C184 1.368 . S
C190 C189 1.523 . S
C191 C175 1.429 . S
C191 C187 1.429 . S
C191 C192 1.523 . S
C192 C176 1.368 . S
C192 C188 1.368 . S
C192 C191 1.523 . S
H193 C168 0.950 . S
H194 C170 0.950 . S
H195 C171 0.949 . S
H196 C173 0.950 . S
H197 C175 0.950 . S
C198 C199 1.349 . S
C198 C200 1.327 . S
C198 H223 0.950 . S
C199 C198 1.349 . S
C199 C215 1.349 . S
C200 C198 1.327 . S
C200 C219 1.429 . S
C200 H224 0.950 . S
C201 C218 1.574 . S
C201 C220 1.368 1_655 S
C201 H225 0.949 . S
H202 C206 0.949 . S
C203 C204 1.349 . S
C203 C205 1.327 . S
C203 H226 0.950 . S
C204 C203 1.349 . S
C204 C216 1.349 . S
C205 C203 1.327 . S
C205 C221 1.429 . S
C205 H227 0.950 . S
C206 H202 0.949 . S
C206 C214 1.574 . S
C206 C222 1.368 1_455 S
H207 C215 0.950 . S
H208 C213 0.950 . S
H209 C214 0.949 . S
H210 C216 0.950 . S
H211 C217 0.950 . S
H212 C218 0.949 . S
C213 H208 0.950 . S
C213 C215 1.327 . S
C213 C219 1.429 . S
C214 C206 1.574 . S
C214 H209 0.949 . S
C214 C220 1.368 . S
C215 C199 1.349 . S
C215 H207 0.950 . S
C215 C213 1.327 . S
C216 C204 1.349 . S
C216 H210 0.950 . S
C216 C217 1.327 . S
C217 H211 0.950 . S
C217 C216 1.327 . S
C217 C221 1.429 . S
C218 C201 1.574 . S
C218 H212 0.949 . S
C218 C222 1.368 . S
C219 C200 1.429 . S
C219 C213 1.429 . S
C219 C220 1.523 . S
C220 C201 1.368 1_455 S
C220 C214 1.368 . S
C220 C219 1.523 . S
C221 C205 1.429 . S
C221 C217 1.429 . S
C221 C222 1.523 . S
C222 C206 1.368 1_655 S
C222 C218 1.368 . S
C222 C221 1.523 . S
H223 C198 0.950 . S
H224 C200 0.950 . S
H225 C201 0.949 . S
H226 C203 0.950 . S
H227 C205 0.950 . S
C228 C229 1.349 . S
C228 C230 1.327 . S
C228 H253 0.950 . S
C229 C228 1.349 . S
C229 C245 1.349 . S
C230 C228 1.327 . S
C230 C249 1.429 . S
C230 H254 0.950 . S
C231 C248 1.574 . S
C231 C250 1.368 . S
C231 H255 0.949 . S
H232 C236 0.949 . S
C233 C234 1.349 . S
C233 C235 1.327 . S
C233 H256 0.950 . S
C234 C233 1.349 . S
C234 C246 1.349 . S
C235 C233 1.327 . S
C235 C251 1.429 . S
C235 H257 0.950 . S
C236 H232 0.949 . S
C236 C244 1.574 . S
C236 C252 1.368 . S
H237 C245 0.950 . S
H238 C243 0.950 . S
H239 C244 0.949 . S
H240 C246 0.950 . S
H241 C247 0.950 . S
H242 C248 0.949 . S
C243 H238 0.950 . S
C243 C245 1.327 . S
C243 C249 1.429 . S
C244 C236 1.574 . S
C244 H239 0.949 . S
C244 C250 1.368 1_545 S
C245 C229 1.349 . S
C245 H237 0.950 . S
C245 C243 1.327 . S
C246 C234 1.349 . S
C246 H240 0.950 . S
C246 C247 1.327 . S
C247 H241 0.950 . S
C247 C246 1.327 . S
C247 C251 1.429 . S
C248 C231 1.574 . S
C248 H242 0.949 . S
C248 C252 1.368 1_565 S
C249 C230 1.429 . S
C249 C243 1.429 . S
C249 C250 1.523 . S
C250 C231 1.368 . S
C250 C244 1.368 1_565 S
C250 C249 1.523 . S
C251 C235 1.429 . S
C251 C247 1.429 . S
C251 C252 1.523 . S
C252 C236 1.368 . S
C252 C248 1.368 1_545 S
C252 C251 1.523 . S
H253 C228 0.950 . S
H254 C230 0.950 . S
H255 C231 0.949 . S
H256 C233 0.950 . S
H257 C235 0.950 . S
C258 C259 1.349 . S
C258 C260 1.327 . S
C258 H283 0.950 . S
C259 C258 1.349 . S
C259 C275 1.349 . S
C260 C258 1.327 . S
C260 C279 1.429 . S
C260 H284 0.950 . S
C261 C278 1.574 . S
C261 C280 1.368 . S
C261 H285 0.949 . S
H262 C266 0.949 . S
C263 C264 1.349 . S
C263 C265 1.327 . S
C263 H286 0.950 . S
C264 C263 1.349 . S
C264 C276 1.349 . S
C265 C263 1.327 . S
C265 C281 1.429 . S
C265 H287 0.950 . S
C266 H262 0.949 . S
C266 C274 1.574 . S
C266 C282 1.368 . S
H267 C275 0.950 . S
H268 C273 0.950 . S
H269 C274 0.949 . S
H270 C276 0.950 . S
H271 C277 0.950 . S
H272 C278 0.949 . S
C273 H268 0.950 . S
C273 C275 1.327 . S
C273 C279 1.429 . S
C274 C266 1.574 . S
C274 H269 0.949 . S
C274 C280 1.368 . S
C275 C259 1.349 . S
C275 H267 0.950 . S
C275 C273 1.327 . S
C276 C264 1.349 . S
C276 H270 0.950 . S
C276 C277 1.327 . S
C277 H271 0.950 . S
C277 C276 1.327 . S
C277 C281 1.429 . S
C278 C261 1.574 . S
C278 H272 0.949 . S
C278 C282 1.368 . S
C279 C260 1.429 . S
C279 C273 1.429 . S
C279 C280 1.523 . S
C280 C261 1.368 . S
C280 C274 1.368 . S
C280 C279 1.523 . S
C281 C265 1.429 . S
C281 C277 1.429 . S
C281 C282 1.523 . S
C282 C266 1.368 . S
C282 C278 1.368 . S
C282 C281 1.523 . S
H283 C258 0.950 . S
H284 C260 0.950 . S
H285 C261 0.949 . S
H286 C263 0.950 . S
H287 C265 0.950 . S
C288 C289 1.349 . S
C288 C290 1.327 . S
C288 H313 0.950 . S
C289 C288 1.349 . S
C289 C305 1.349 . S
C290 C288 1.327 . S
C290 C309 1.429 . S
C290 H314 0.950 . S
C291 C308 1.574 . S
C291 C310 1.368 1_455 S
C291 H315 0.949 . S
H292 C296 0.949 . S
C293 C294 1.349 . S
C293 C295 1.327 . S
C293 H316 0.950 . S
C294 C293 1.349 . S
C294 C306 1.349 . S
C295 C293 1.327 . S
C295 C311 1.429 . S
C295 H317 0.950 . S
C296 H292 0.949 . S
C296 C304 1.574 . S
C296 C312 1.368 1_655 S
H297 C305 0.950 . S
H298 C303 0.950 . S
H299 C304 0.949 . S
H300 C306 0.950 . S
H301 C307 0.950 . S
H302 C308 0.949 . S
C303 H298 0.950 . S
C303 C305 1.327 . S
C303 C309 1.429 . S
C304 C296 1.574 . S
C304 H299 0.949 . S
C304 C310 1.368 . S
C305 C289 1.349 . S
C305 H297 0.950 . S
C305 C303 1.327 . S
C306 C294 1.349 . S
C306 H300 0.950 . S
C306 C307 1.327 . S
C307 H301 0.950 . S
C307 C306 1.327 . S
C307 C311 1.429 . S
C308 C291 1.574 . S
C308 H302 0.949 . S
C308 C312 1.368 . S
C309 C290 1.429 . S
C309 C303 1.429 . S
C309 C310 1.523 . S
C310 C291 1.368 1_655 S
C310 C304 1.368 . S
C310 C309 1.523 . S
C311 C295 1.429 . S
C311 C307 1.429 . S
C311 C312 1.523 . S
C312 C296 1.368 1_455 S
C312 C308 1.368 . S
C312 C311 1.523 . S
H313 C288 0.950 . S
H314 C290 0.950 . S
H315 C291 0.949 . S
H316 C293 0.950 . S
H317 C295 0.950 . S
C318 C319 1.349 . S
C318 C320 1.327 . S
C318 H343 0.950 . S
C319 C318 1.349 . S
C319 C335 1.349 . S
C320 C318 1.327 . S
C320 C339 1.429 . S
C320 H344 0.950 . S
C321 C338 1.574 . S
C321 C340 1.368 . S
C321 H345 0.949 . S
H322 C326 0.949 . S
C323 C324 1.349 . S
C323 C325 1.327 . S
C323 H346 0.950 . S
C324 C323 1.349 . S
C324 C336 1.349 . S
C325 C323 1.327 . S
C325 C341 1.429 . S
C325 H347 0.950 . S
C326 H322 0.949 . S
C326 C334 1.574 . S
C326 C342 1.368 . S
H327 C335 0.950 . S
H328 C333 0.950 . S
H329 C334 0.949 . S
H330 C336 0.950 . S
H331 C337 0.950 . S
H332 C338 0.949 . S
C333 H328 0.950 . S
C333 C335 1.327 . S
C333 C339 1.429 . S
C334 C326 1.574 . S
C334 H329 0.949 . S
C334 C340 1.368 1_565 S
C335 C319 1.349 . S
C335 H327 0.950 . S
C335 C333 1.327 . S
C336 C324 1.349 . S
C336 H330 0.950 . S
C336 C337 1.327 . S
C337 H331 0.950 . S
C337 C336 1.327 . S
C337 C341 1.429 . S
C338 C321 1.574 . S
C338 H332 0.949 . S
C338 C342 1.368 1_545 S
C339 C320 1.429 . S
C339 C333 1.429 . S
C339 C340 1.523 . S
C340 C321 1.368 . S
C340 C334 1.368 1_545 S
C340 C339 1.523 . S
C341 C325 1.429 . S
C341 C337 1.429 . S
C341 C342 1.523 . S
C342 C326 1.368 . S
C342 C338 1.368 1_565 S
C342 C341 1.523 . S
H343 C318 0.950 . S
H344 C320 0.950 . S
H345 C321 0.949 . S
H346 C323 0.950 . S
H347 C325 0.950 . S
C348 C349 1.349 . S
C348 C350 1.327 . S
C348 H373 0.950 . S
C349 C348 1.349 . S
C349 C365 1.349 . S
C350 C348 1.327 . S
C350 C369 1.429 . S
C350 H374 0.950 . S
C351 C368 1.574 . S
C351 C370 1.368 . S
C351 H375 0.949 . S
H352 C356 0.949 . S
C353 C354 1.349 . S
C353 C355 1.327 . S
C353 H376 0.950 . S
C354 C353 1.349 . S
C354 C366 1.349 . S
C355 C353 1.327 . S
C355 C371 1.429 . S
C355 H377 0.950 . S
C356 H352 0.949 . S
C356 C364 1.574 . S
C356 C372 1.368 . S
H357 C365 0.950 . S
H358 C363 0.950 . S
H359 C364 0.949 . S
H360 C366 0.950 . S
H361 C367 0.950 . S
H362 C368 0.949 . S
C363 H358 0.950 . S
C363 C365 1.327 . S
C363 C369 1.429 . S
C364 C356 1.574 . S
C364 H359 0.949 . S
C364 C370 1.368 . S
C365 C349 1.349 . S
C365 H357 0.950 . S
C365 C363 1.327 . S
C366 C354 1.349 . S
C366 H360 0.950 . S
C366 C367 1.327 . S
C367 H361 0.950 . S
C367 C366 1.327 . S
C367 C371 1.429 . S
C368 C351 1.574 . S
C368 H362 0.949 . S
C368 C372 1.368 . S
C369 C350 1.429 . S
C369 C363 1.429 . S
C369 C370 1.523 . S
C370 C351 1.368 . S
C370 C364 1.368 . S
C370 C369 1.523 . S
C371 C355 1.429 . S
C371 C367 1.429 . S
C371 C372 1.523 . S
C372 C356 1.368 . S
C372 C368 1.368 . S
C372 C371 1.523 . S
H373 C348 0.950 . S
H374 C350 0.950 . S
H375 C351 0.949 . S
H376 C353 0.950 . S
H377 C355 0.950 . S
C378 C379 1.349 . S
C378 C380 1.327 . S
C378 H403 0.950 . S
C379 C378 1.349 . S
C379 C395 1.349 . S
C380 C378 1.327 . S
C380 C399 1.429 . S
C380 H404 0.950 . S
C381 C398 1.574 . S
C381 C400 1.368 . S
C381 H405 0.949 . S
H382 C386 0.949 . S
C383 C384 1.349 . S
C383 C385 1.327 . S
C383 H406 0.950 . S
C384 C383 1.349 . S
C384 C396 1.349 . S
C385 C383 1.327 . S
C385 C401 1.429 . S
C385 H407 0.950 . S
C386 H382 0.949 . S
C386 C394 1.574 . S
C386 C402 1.368 . S
H387 C395 0.950 . S
H388 C393 0.950 . S
H389 C394 0.949 . S
H390 C396 0.950 . S
H391 C397 0.950 . S
H392 C398 0.949 . S
C393 H388 0.950 . S
C393 C395 1.327 . S
C393 C399 1.429 . S
C394 C386 1.574 . S
C394 H389 0.949 . S
C394 C400 1.368 . S
C395 C379 1.349 . S
C395 H387 0.950 . S
C395 C393 1.327 . S
C396 C384 1.349 . S
C396 H390 0.950 . S
C396 C397 1.327 . S
C397 H391 0.950 . S
C397 C396 1.327 . S
C397 C401 1.429 . S
C398 C381 1.574 . S
C398 H392 0.949 . S
C398 C402 1.368 . S
C399 C380 1.429 . S
C399 C393 1.429 . S
C399 C400 1.523 . S
C400 C381 1.368 . S
C400 C394 1.368 . S
C400 C399 1.523 . S
C401 C385 1.429 . S
C401 C397 1.429 . S
C401 C402 1.523 . S
C402 C386 1.368 . S
C402 C398 1.368 . S
C402 C401 1.523 . S
H403 C378 0.950 . S
H404 C380 0.950 . S
H405 C381 0.949 . S
H406 C383 0.950 . S
H407 C385 0.950 . S
C408 C409 1.349 . S
C408 C410 1.327 . S
C408 H433 0.950 . S
C409 C408 1.349 . S
C409 C425 1.349 . S
C410 C408 1.327 . S
C410 C429 1.429 . S
C410 H434 0.950 . S
C411 C428 1.574 . S
C411 C430 1.368 . S
C411 H435 0.949 . S
H412 C416 0.949 . S
C413 C414 1.349 . S
C413 C415 1.327 . S
C413 H436 0.950 . S
C414 C413 1.349 . S
C414 C426 1.349 . S
C415 C413 1.327 . S
C415 C431 1.429 . S
C415 H437 0.950 . S
C416 H412 0.949 . S
C416 C424 1.574 . S
C416 C432 1.368 . S
H417 C425 0.950 . S
H418 C423 0.950 . S
H419 C424 0.949 . S
H420 C426 0.950 . S
H421 C427 0.950 . S
H422 C428 0.949 . S
C423 H418 0.950 . S
C423 C425 1.327 . S
C423 C429 1.429 . S
C424 C416 1.574 . S
C424 H419 0.949 . S
C424 C430 1.368 . S
C425 C409 1.349 . S
C425 H417 0.950 . S
C425 C423 1.327 . S
C426 C414 1.349 . S
C426 H420 0.950 . S
C426 C427 1.327 . S
C427 H421 0.950 . S
C427 C426 1.327 . S
C427 C431 1.429 . S
C428 C411 1.574 . S
C428 H422 0.949 . S
C428 C432 1.368 . S
C429 C410 1.429 . S
C429 C423 1.429 . S
C429 C430 1.523 . S
C430 C411 1.368 . S
C430 C424 1.368 . S
C430 C429 1.523 . S
C431 C415 1.429 . S
C431 C427 1.429 . S
C431 C432 1.523 . S
C432 C416 1.368 . S
C432 C428 1.368 . S
C432 C431 1.523 . S
H433 C408 0.950 . S
H434 C410 0.950 . S
H435 C411 0.949 . S
H436 C413 0.950 . S
H437 C415 0.950 . S
C438 C439 1.349 . S
C438 C440 1.327 . S
C438 H463 0.950 . S
C439 C438 1.349 . S
C439 C455 1.349 . S
C440 C438 1.327 . S
C440 C459 1.429 . S
C440 H464 0.950 . S
C441 C458 1.574 . S
C441 C460 1.368 . S
C441 H465 0.949 . S
H442 C446 0.949 . S
C443 C444 1.349 . S
C443 C445 1.327 . S
C443 H466 0.950 . S
C444 C443 1.349 . S
C444 C456 1.349 . S
C445 C443 1.327 . S
C445 C461 1.429 . S
C445 H467 0.950 . S
C446 H442 0.949 . S
C446 C454 1.574 . S
C446 C462 1.368 . S
H447 C455 0.950 . S
H448 C453 0.950 . S
H449 C454 0.949 . S
H450 C456 0.950 . S
H451 C457 0.950 . S
H452 C458 0.949 . S
C453 H448 0.950 . S
C453 C455 1.327 . S
C453 C459 1.429 . S
C454 C446 1.574 . S
C454 H449 0.949 . S
C454 C460 1.368 . S
C455 C439 1.349 . S
C455 H447 0.950 . S
C455 C453 1.327 . S
C456 C444 1.349 . S
C456 H450 0.950 . S
C456 C457 1.327 . S
C457 H451 0.950 . S
C457 C456 1.327 . S
C457 C461 1.429 . S
C458 C441 1.574 . S
C458 H452 0.949 . S
C458 C462 1.368 . S
C459 C440 1.429 . S
C459 C453 1.429 . S
C459 C460 1.523 . S
C460 C441 1.368 . S
C460 C454 1.368 . S
C460 C459 1.523 . S
C461 C445 1.429 . S
C461 C457 1.429 . S
C461 C462 1.523 . S
C462 C446 1.368 . S
C462 C458 1.368 . S
C462 C461 1.523 . S
H463 C438 0.950 . S
H464 C440 0.950 . S
H465 C441 0.949 . S
H466 C443 0.950 . S
H467 C445 0.950 . S
C468 C469 1.349 . S
C468 C470 1.327 . S
C468 H493 0.950 . S
C469 C468 1.349 . S
C469 C485 1.349 . S
C470 C468 1.327 . S
C470 C489 1.429 . S
C470 H494 0.950 . S
C471 C488 1.574 . S
C471 C490 1.368 . S
C471 H495 0.949 . S
H472 C476 0.949 . S
C473 C474 1.349 . S
C473 C475 1.327 . S
C473 H496 0.950 . S
C474 C473 1.349 . S
C474 C486 1.349 . S
C475 C473 1.327 . S
C475 C491 1.429 . S
C475 H497 0.950 . S
C476 H472 0.949 . S
C476 C484 1.574 . S
C476 C492 1.368 . S
H477 C485 0.950 . S
H478 C483 0.950 . S
H479 C484 0.949 . S
H480 C486 0.950 . S
H481 C487 0.950 . S
H482 C488 0.949 . S
C483 H478 0.950 . S
C483 C485 1.327 . S
C483 C489 1.429 . S
C484 C476 1.574 . S
C484 H479 0.949 . S
C484 C490 1.368 . S
C485 C469 1.349 . S
C485 H477 0.950 . S
C485 C483 1.327 . S
C486 C474 1.349 . S
C486 H480 0.950 . S
C486 C487 1.327 . S
C487 H481 0.950 . S
C487 C486 1.327 . S
C487 C491 1.429 . S
C488 C471 1.574 . S
C488 H482 0.949 . S
C488 C492 1.368 . S
C489 C470 1.429 . S
C489 C483 1.429 . S
C489 C490 1.523 . S
C490 C471 1.368 . S
C490 C484 1.368 . S
C490 C489 1.523 . S
C491 C475 1.429 . S
C491 C487 1.429 . S
C491 C492 1.523 . S
C492 C476 1.368 . S
C492 C488 1.368 . S
C492 C491 1.523 . S
H493 C468 0.950 . S
H494 C470 0.950 . S
H495 C471 0.949 . S
H496 C473 0.950 . S
H497 C475 0.950 . S
C498 C499 1.349 . S
C498 C500 1.327 . S
C498 H523 0.950 . S
C499 C498 1.349 . S
C499 C515 1.349 . S
C500 C498 1.327 . S
C500 C519 1.429 . S
C500 H524 0.950 . S
C501 C518 1.574 . S
C501 C520 1.368 . S
C501 H525 0.949 . S
H502 C506 0.949 . S
C503 C504 1.349 . S
C503 C505 1.327 . S
C503 H526 0.950 . S
C504 C503 1.349 . S
C504 C516 1.349 . S
C505 C503 1.327 . S
C505 C521 1.429 . S
C505 H527 0.950 . S
C506 H502 0.949 . S
C506 C514 1.574 . S
C506 C522 1.368 . S
H507 C515 0.950 . S
H508 C513 0.950 . S
H509 C514 0.949 . S
H510 C516 0.950 . S
H511 C517 0.950 . S
H512 C518 0.949 . S
C513 H508 0.950 . S
C513 C515 1.327 . S
C513 C519 1.429 . S
C514 C506 1.574 . S
C514 H509 0.949 . S
C514 C520 1.368 . S
C515 C499 1.349 . S
C515 H507 0.950 . S
C515 C513 1.327 . S
C516 C504 1.349 . S
C516 H510 0.950 . S
C516 C517 1.327 . S
C517 H511 0.950 . S
C517 C516 1.327 . S
C517 C521 1.429 . S
C518 C501 1.574 . S
C518 H512 0.949 . S
C518 C522 1.368 . S
C519 C500 1.429 . S
C519 C513 1.429 . S
C519 C520 1.523 . S
C520 C501 1.368 . S
C520 C514 1.368 . S
C520 C519 1.523 . S
C521 C505 1.429 . S
C521 C517 1.429 . S
C521 C522 1.523 . S
C522 C506 1.368 . S
C522 C518 1.368 . S
C522 C521 1.523 . S
H523 C498 0.950 . S
H524 C500 0.950 . S
H525 C501 0.949 . S
H526 C503 0.950 . S
H527 C505 0.950 . S
C528 C529 1.349 . S
C528 C530 1.327 . S
C528 H553 0.950 . S
C529 C528 1.349 . S
C529 C545 1.349 . S
C530 C528 1.327 . S
C530 C549 1.429 . S
C530 H554 0.950 . S
C531 C548 1.574 1_565 S
C531 C550 1.368 1_554 S
C531 H555 0.949 . S
H532 C536 0.949 . S
C533 C534 1.349 . S
C533 C535 1.327 . S
C533 H556 0.950 . S
C534 C533 1.349 . S
C534 C546 1.349 . S
C535 C533 1.327 . S
C535 C551 1.429 . S
C535 H557 0.950 . S
C536 H532 0.949 . S
C536 C544 1.574 1_545 S
C536 C552 1.368 1_556 S
H537 C545 0.950 1_554 S
H538 C543 0.980 . S
H539 C544 0.949 . S
H540 C546 0.950 1_556 S
H541 C547 0.980 . S
H542 C548 0.949 . S
C543 H538 0.980 . S
C543 C545 1.318 1_554 S
C543 C549 1.409 1_554 S
C544 C536 1.574 1_565 S
C544 H539 0.949 . S
C544 C550 1.368 . S
C545 C529 1.349 . S
C545 H537 0.950 1_556 S
C545 C543 1.318 1_556 S
C546 C534 1.349 . S
C546 H540 0.950 1_554 S
C546 C547 1.318 1_554 S
C547 H541 0.980 . S
C547 C546 1.318 1_556 S
C547 C551 1.409 1_556 S
C548 C531 1.574 1_545 S
C548 H542 0.949 . S
C548 C552 1.368 . S
C549 C530 1.429 . S
C549 C543 1.409 1_556 S
C549 C550 1.523 . S
C550 C531 1.368 1_556 S
C550 C544 1.368 . S
C550 C549 1.523 . S
C551 C535 1.429 . S
C551 C547 1.409 1_554 S
C551 C552 1.523 . S
C552 C536 1.368 1_554 S
C552 C548 1.368 . S
C552 C551 1.523 . S
H553 C528 0.950 . S
H554 C530 0.950 . S
H555 C531 0.949 . S
H556 C533 0.950 . S
H557 C535 0.950 . S
C558 C559 1.349 . S
C558 C560 1.327 . S
C558 H583 0.950 . S
C559 C558 1.349 . S
C559 C575 1.349 . S
C560 C558 1.327 . S
C560 C579 1.429 . S
C560 H584 0.950 . S
C561 C578 1.574 . S
C561 C580 1.368 . S
C561 H585 0.949 . S
H562 C566 0.949 . S
C563 C564 1.349 . S
C563 C565 1.327 . S
C563 H586 0.950 . S
C564 C563 1.349 . S
C564 C576 1.349 . S
C565 C563 1.327 . S
C565 C581 1.429 . S
C565 H587 0.950 . S
C566 H562 0.949 . S
C566 C574 1.574 . S
C566 C582 1.368 . S
H567 C575 0.950 . S
H568 C573 0.950 . S
H569 C574 0.949 . S
H570 C576 0.950 . S
H571 C577 0.950 . S
H572 C578 0.949 . S
C573 H568 0.950 . S
C573 C575 1.327 . S
C573 C579 1.429 . S
C574 C566 1.574 . S
C574 H569 0.949 . S
C574 C580 1.368 . S
C575 C559 1.349 . S
C575 H567 0.950 . S
C575 C573 1.327 . S
C576 C564 1.349 . S
C576 H570 0.950 . S
C576 C577 1.327 . S
C577 H571 0.950 . S
C577 C576 1.327 . S
C577 C581 1.429 . S
C578 C561 1.574 . S
C578 H572 0.949 . S
C578 C582 1.368 . S
C579 C560 1.429 . S
C579 C573 1.429 . S
C579 C580 1.523 . S
C580 C561 1.368 . S
C580 C574 1.368 . S
C580 C579 1.523 . S
C581 C565 1.429 . S
C581 C577 1.429 . S
C581 C582 1.523 . S
C582 C566 1.368 . S
C582 C578 1.368 . S
C582 C581 1.523 . S
H583 C558 0.950 . S
H584 C560 0.950 . S
H585 C561 0.949 . S
H586 C563 0.950 . S
H587 C565 0.950 . S
C588 C589 1.349 . S
C588 C590 1.327 . S
C588 H613 0.950 . S
C589 C588 1.349 . S
C589 C605 1.349 . S
C590 C588 1.327 . S
C590 C609 1.429 . S
C590 H614 0.950 . S
C591 C608 1.574 1_655 S
C591 C610 1.368 . S
C591 H615 0.949 . S
H592 C596 0.949 . S
C593 C594 1.349 . S
C593 C595 1.327 . S
C593 H616 0.950 . S
C594 C593 1.349 . S
C594 C606 1.349 . S
C595 C593 1.327 . S
C595 C611 1.429 . S
C595 H617 0.950 . S
C596 H592 0.949 . S
C596 C604 1.574 1_455 S
C596 C612 1.368 . S
H597 C605 0.950 . S
H598 C603 0.950 . S
H599 C604 0.949 . S
H600 C606 0.950 . S
H601 C607 0.950 . S
H602 C608 0.949 . S
C603 H598 0.950 . S
C603 C605 1.327 . S
C603 C609 1.429 . S
C604 C596 1.574 1_655 S
C604 H599 0.949 . S
C604 C610 1.368 . S
C605 C589 1.349 . S
C605 H597 0.950 . S
C605 C603 1.327 . S
C606 C594 1.349 . S
C606 H600 0.950 . S
C606 C607 1.327 . S
C607 H601 0.950 . S
C607 C606 1.327 . S
C607 C611 1.429 . S
C608 C591 1.574 1_455 S
C608 H602 0.949 . S
C608 C612 1.368 . S
C609 C590 1.429 . S
C609 C603 1.429 . S
C609 C610 1.523 . S
C610 C591 1.368 . S
C610 C604 1.368 . S
C610 C609 1.523 . S
C611 C595 1.429 . S
C611 C607 1.429 . S
C611 C612 1.523 . S
C612 C596 1.368 . S
C612 C608 1.368 . S
C612 C611 1.523 . S
H613 C588 0.950 . S
H614 C590 0.950 . S
H615 C591 0.949 . S
H616 C593 0.950 . S
H617 C595 0.950 . S
C618 C619 1.349 . S
C618 C620 1.327 . S
C618 H643 0.950 . S
C619 C618 1.349 . S
C619 C635 1.349 . S
C620 C618 1.327 . S
C620 C639 1.429 . S
C620 H644 0.950 . S
C621 C638 1.574 1_565 S
C621 C640 1.368 1_556 S
C621 H645 0.949 . S
H622 C626 0.949 . S
C623 C624 1.349 . S
C623 C625 1.327 . S
C623 H646 0.950 . S
C624 C623 1.349 . S
C624 C636 1.349 . S
C625 C623 1.327 . S
C625 C641 1.429 . S
C625 H647 0.950 . S
C626 H622 0.949 . S
C626 C634 1.574 1_545 S
C626 C642 1.368 1_554 S
H627 C635 0.920 1_556 S
H628 C633 0.925 1_556 S
H629 C634 0.949 . S
H630 C636 0.920 1_554 S
H631 C637 0.926 1_554 S
H632 C638 0.949 . S
C633 H628 0.925 1_554 S
C633 C635 1.336 . S
C633 C639 1.444 . S
C634 C626 1.574 1_565 S
C634 H629 0.949 . S
C634 C640 1.368 . S
C635 C619 1.349 . S
C635 H627 0.920 1_554 S
C635 C633 1.336 . S
C636 C624 1.349 . S
C636 H630 0.920 1_556 S
C636 C637 1.336 . S
C637 H631 0.926 1_556 S
C637 C636 1.336 . S
C637 C641 1.444 . S
C638 C621 1.574 1_545 S
C638 H632 0.949 . S
C638 C642 1.368 . S
C639 C620 1.429 . S
C639 C633 1.444 . S
C639 C640 1.523 . S
C640 C621 1.368 1_554 S
C640 C634 1.368 . S
C640 C639 1.523 . S
C641 C625 1.429 . S
C641 C637 1.444 . S
C641 C642 1.523 . S
C642 C626 1.368 1_556 S
C642 C638 1.368 . S
C642 C641 1.523 . S
H643 C618 0.950 . S
H644 C620 0.950 . S
H645 C621 0.949 . S
H646 C623 0.950 . S
H647 C625 0.950 . S
C648 C649 1.349 . S
C648 C650 1.327 . S
C648 H673 0.950 . S
C649 C648 1.349 . S
C649 C665 1.349 . S
C650 C648 1.327 . S
C650 C669 1.429 . S
C650 H674 0.950 . S
C651 C668 1.574 . S
C651 C670 1.368 . S
C651 H675 0.949 . S
H652 C656 0.949 . S
C653 C654 1.349 . S
C653 C655 1.327 . S
C653 H676 0.950 . S
C654 C653 1.349 . S
C654 C666 1.349 . S
C655 C653 1.327 . S
C655 C671 1.429 . S
C655 H677 0.950 . S
C656 H652 0.949 . S
C656 C664 1.574 . S
C656 C672 1.368 . S
H657 C665 0.950 . S
H658 C663 0.950 . S
H659 C664 0.949 . S
H660 C666 0.950 . S
H661 C667 0.950 . S
H662 C668 0.949 . S
C663 H658 0.950 . S
C663 C665 1.327 . S
C663 C669 1.429 . S
C664 C656 1.574 . S
C664 H659 0.949 . S
C664 C670 1.368 . S
C665 C649 1.349 . S
C665 H657 0.950 . S
C665 C663 1.327 . S
C666 C654 1.349 . S
C666 H660 0.950 . S
C666 C667 1.327 . S
C667 H661 0.950 . S
C667 C666 1.327 . S
C667 C671 1.429 . S
C668 C651 1.574 . S
C668 H662 0.949 . S
C668 C672 1.368 . S
C669 C650 1.429 . S
C669 C663 1.429 . S
C669 C670 1.523 . S
C670 C651 1.368 . S
C670 C664 1.368 . S
C670 C669 1.523 . S
C671 C655 1.429 . S
C671 C667 1.429 . S
C671 C672 1.523 . S
C672 C656 1.368 . S
C672 C668 1.368 . S
C672 C671 1.523 . S
H673 C648 0.950 . S
H674 C650 0.950 . S
H675 C651 0.949 . S
H676 C653 0.950 . S
H677 C655 0.950 . S
C678 C679 1.349 . S
C678 C680 1.327 . S
C678 H703 0.950 . S
C679 C678 1.349 . S
C679 C695 1.349 . S
C680 C678 1.327 . S
C680 C699 1.429 . S
C680 H704 0.950 . S
C681 C698 1.574 1_455 S
C681 C700 1.368 . S
C681 H705 0.949 . S
H682 C686 0.949 . S
C683 C684 1.349 . S
C683 C685 1.327 . S
C683 H706 0.950 . S
C684 C683 1.349 . S
C684 C696 1.349 . S
C685 C683 1.327 . S
C685 C701 1.429 . S
C685 H707 0.950 . S
C686 H682 0.949 . S
C686 C694 1.574 1_655 S
C686 C702 1.368 . S
H687 C695 0.950 . S
H688 C693 0.950 . S
H689 C694 0.949 . S
H690 C696 0.950 . S
H691 C697 0.950 . S
H692 C698 0.949 . S
C693 H688 0.950 . S
C693 C695 1.327 . S
C693 C699 1.429 . S
C694 C686 1.574 1_455 S
C694 H689 0.949 . S
C694 C700 1.368 . S
C695 C679 1.349 . S
C695 H687 0.950 . S
C695 C693 1.327 . S
C696 C684 1.349 . S
C696 H690 0.950 . S
C696 C697 1.327 . S
C697 H691 0.950 . S
C697 C696 1.327 . S
C697 C701 1.429 . S
C698 C681 1.574 1_655 S
C698 H692 0.949 . S
C698 C702 1.368 . S
C699 C680 1.429 . S
C699 C693 1.429 . S
C699 C700 1.523 . S
C700 C681 1.368 . S
C700 C694 1.368 . S
C700 C699 1.523 . S
C701 C685 1.429 . S
C701 C697 1.429 . S
C701 C702 1.523 . S
C702 C686 1.368 . S
C702 C698 1.368 . S
C702 C701 1.523 . S
H703 C678 0.950 . S
H704 C680 0.950 . S
H705 C681 0.949 . S
H706 C683 0.950 . S
H707 C685 0.950 . S
C708 C709 1.349 1_455 S
C708 C710 1.327 . S
C708 H733 0.950 . S
C709 C708 1.349 1_655 S
C709 C725 1.349 . S
C710 C708 1.327 . S
C710 C729 1.429 . S
C710 H734 0.950 . S
C711 C728 1.574 . S
C711 C730 1.368 . S
C711 H735 0.949 . S
H712 C716 0.949 . S
C713 C714 1.349 . S
C713 C715 1.327 . S
C713 H736 0.950 . S
C714 C713 1.349 . S
C714 C726 1.349 . S
C715 C713 1.327 . S
C715 C731 1.429 . S
C715 H737 0.950 . S
C716 H712 0.949 . S
C716 C724 1.574 . S
C716 C732 1.368 . S
H717 C725 0.950 . S
H718 C723 0.950 . S
H719 C724 0.949 . S
H720 C726 0.950 . S
H721 C727 0.950 . S
H722 C728 0.949 . S
C723 H718 0.950 . S
C723 C725 1.327 1_455 S
C723 C729 1.429 . S
C724 C716 1.574 . S
C724 H719 0.949 . S
C724 C730 1.368 1_554 S
C725 C709 1.349 . S
C725 H717 0.950 . S
C725 C723 1.327 1_655 S
C726 C714 1.349 . S
C726 H720 0.950 . S
C726 C727 1.327 . S
C727 H721 0.950 . S
C727 C726 1.327 . S
C727 C731 1.429 . S
C728 C711 1.574 . S
C728 H722 0.949 . S
C728 C732 1.368 1_556 S
C729 C710 1.429 . S
C729 C723 1.429 . S
C729 C730 1.523 . S
C730 C711 1.368 . S
C730 C724 1.368 1_556 S
C730 C729 1.523 . S
C731 C715 1.429 . S
C731 C727 1.429 . S
C731 C732 1.523 . S
C732 C716 1.368 . S
C732 C728 1.368 1_554 S
C732 C731 1.523 . S
H733 C708 0.950 . S
H734 C710 0.950 . S
H735 C711 0.949 . S
H736 C713 0.950 . S
H737 C715 0.950 . S
C738 C739 1.349 1_545 S
C738 C740 1.327 . S
C738 H763 0.950 . S
C739 C738 1.349 1_565 S
C739 C755 1.349 . S
C740 C738 1.327 . S
C740 C759 1.429 . S
C740 H764 0.950 . S
C741 C758 1.574 . S
C741 C760 1.368 . S
C741 H765 0.949 . S
H742 C746 0.949 . S
C743 C744 1.349 . S
C743 C745 1.327 1_455 S
C743 H766 0.950 . S
C744 C743 1.349 . S
C744 C756 1.349 1_455 S
C745 C743 1.327 1_655 S
C745 C761 1.429 . S
C745 H767 0.950 . S
C746 H742 0.949 . S
C746 C754 1.574 . S
C746 C762 1.368 . S
H747 C755 0.950 . S
H748 C753 0.950 . S
H749 C754 0.949 . S
H750 C756 0.950 . S
H751 C757 0.950 . S
H752 C758 0.949 . S
C753 H748 0.950 . S
C753 C755 1.327 1_545 S
C753 C759 1.429 . S
C754 C746 1.574 . S
C754 H749 0.949 . S
C754 C760 1.368 . S
C755 C739 1.349 . S
C755 H747 0.950 . S
C755 C753 1.327 1_565 S
C756 C744 1.349 1_655 S
C756 H750 0.950 . S
C756 C757 1.327 . S
C757 H751 0.950 . S
C757 C756 1.327 . S
C757 C761 1.429 . S
C758 C741 1.574 . S
C758 H752 0.949 . S
C758 C762 1.368 . S
C759 C740 1.429 . S
C759 C753 1.429 . S
C759 C760 1.523 . S
C760 C741 1.368 . S
C760 C754 1.368 . S
C760 C759 1.523 . S
C761 C745 1.429 . S
C761 C757 1.429 . S
C761 C762 1.523 . S
C762 C746 1.368 . S
C762 C758 1.368 . S
C762 C761 1.523 . S
H763 C738 0.950 . S
H764 C740 0.950 . S
H765 C741 0.949 . S
H766 C743 0.950 . S
H767 C745 0.950 . S
C768 C769 1.349 . S
C768 C770 1.327 . S
C768 H793 0.950 . S
C769 C768 1.349 . S
C769 C785 1.349 . S
C770 C768 1.327 . S
C770 C789 1.429 . S
C770 H794 0.950 . S
C771 C788 1.574 . S
C771 C790 1.368 . S
C771 H795 0.949 . S
H772 C776 0.949 . S
C773 C774 1.349 . S
C773 C775 1.327 1_545 S
C773 H796 0.950 . S
C774 C773 1.349 . S
C774 C786 1.349 1_545 S
C775 C773 1.327 1_565 S
C775 C791 1.429 . S
C775 H797 0.950 . S
C776 H772 0.949 . S
C776 C784 1.574 . S
C776 C792 1.368 . S
H777 C785 0.950 . S
H778 C783 0.950 . S
H779 C784 0.949 . S
H780 C786 0.950 . S
H781 C787 0.950 . S
H782 C788 0.949 . S
C783 H778 0.950 . S
C783 C785 1.327 . S
C783 C789 1.429 . S
C784 C776 1.574 . S
C784 H779 0.949 . S
C784 C790 1.368 . S
C785 C769 1.349 . S
C785 H777 0.950 . S
C785 C783 1.327 . S
C786 C774 1.349 1_565 S
C786 H780 0.950 . S
C786 C787 1.327 . S
C787 H781 0.950 . S
C787 C786 1.327 . S
C787 C791 1.429 . S
C788 C771 1.574 . S
C788 H782 0.949 . S
C788 C792 1.368 . S
C789 C770 1.429 . S
C789 C783 1.429 . S
C789 C790 1.523 . S
C790 C771 1.368 . S
C790 C784 1.368 . S
C790 C789 1.523 . S
C791 C775 1.429 . S
C791 C787 1.429 . S
C791 C792 1.523 . S
C792 C776 1.368 . S
C792 C788 1.368 . S
C792 C791 1.523 . S
H793 C768 0.950 . S
H794 C770 0.950 . S
H795 C771 0.949 . S
H796 C773 0.950 . S
H797 C775 0.950 . S
C798 C799 1.349 . S
C798 C800 1.327 . S
C798 H823 0.950 . S
C799 C798 1.349 . S
C799 C815 1.349 . S
C800 C798 1.327 . S
C800 C819 1.429 . S
C800 H824 0.950 . S
C801 C818 1.574 . S
C801 C820 1.368 1_556 S
C801 H825 0.949 . S
H802 C806 0.949 . S
C803 C804 1.349 1_655 S
C803 C805 1.327 . S
C803 H826 0.950 . S
C804 C803 1.349 1_455 S
C804 C816 1.349 . S
C805 C803 1.327 . S
C805 C821 1.429 . S
C805 H827 0.950 . S
C806 H802 0.949 . S
C806 C814 1.574 . S
C806 C822 1.368 1_554 S
H807 C815 0.950 . S
H808 C813 0.950 . S
H809 C814 0.949 . S
H810 C816 0.950 . S
H811 C817 0.950 . S
H812 C818 0.949 . S
C813 H808 0.950 . S
C813 C815 1.327 . S
C813 C819 1.429 . S
C814 C806 1.574 . S
C814 H809 0.949 . S
C814 C820 1.368 . S
C815 C799 1.349 . S
C815 H807 0.950 . S
C815 C813 1.327 . S
C816 C804 1.349 . S
C816 H810 0.950 . S
C816 C817 1.327 1_455 S
C817 H811 0.950 . S
C817 C816 1.327 1_655 S
C817 C821 1.429 . S
C818 C801 1.574 . S
C818 H812 0.949 . S
C818 C822 1.368 . S
C819 C800 1.429 . S
C819 C813 1.429 . S
C819 C820 1.523 . S
C820 C801 1.368 1_554 S
C820 C814 1.368 . S
C820 C819 1.523 . S
C821 C805 1.429 . S
C821 C817 1.429 . S
C821 C822 1.523 . S
C822 C806 1.368 1_556 S
C822 C818 1.368 . S
C822 C821 1.523 . S
H823 C798 0.950 . S
H824 C800 0.950 . S
H825 C801 0.949 . S
H826 C803 0.950 . S
H827 C805 0.950 . S
C828 C829 1.349 . S
C828 C830 1.327 1_655 S
C828 H853 0.950 . S
C829 C828 1.349 . S
C829 C845 1.349 1_655 S
C830 C828 1.327 1_455 S
C830 C849 1.429 . S
C830 H854 0.950 . S
C831 C848 1.574 . S
C831 C850 1.368 . S
C831 H855 0.949 . S
H832 C836 0.949 . S
C833 C834 1.349 . S
C833 C835 1.327 1_545 S
C833 H856 0.950 . S
C834 C833 1.349 . S
C834 C846 1.349 1_545 S
C835 C833 1.327 1_565 S
C835 C851 1.429 . S
C835 H857 0.950 . S
C836 H832 0.949 . S
C836 C844 1.574 . S
C836 C852 1.368 . S
H837 C845 0.950 . S
H838 C843 0.950 . S
H839 C844 0.949 . S
H840 C846 0.950 . S
H841 C847 0.950 . S
H842 C848 0.949 . S
C843 H838 0.950 . S
C843 C845 1.327 . S
C843 C849 1.429 . S
C844 C836 1.574 . S
C844 H839 0.949 . S
C844 C850 1.368 . S
C845 C829 1.349 1_455 S
C845 H837 0.950 . S
C845 C843 1.327 . S
C846 C834 1.349 1_565 S
C846 H840 0.950 . S
C846 C847 1.327 . S
C847 H841 0.950 . S
C847 C846 1.327 . S
C847 C851 1.429 . S
C848 C831 1.574 . S
C848 H842 0.949 . S
C848 C852 1.368 . S
C849 C830 1.429 . S
C849 C843 1.429 . S
C849 C850 1.523 . S
C850 C831 1.368 . S
C850 C844 1.368 . S
C850 C849 1.523 . S
C851 C835 1.429 . S
C851 C847 1.429 . S
C851 C852 1.523 . S
C852 C836 1.368 . S
C852 C848 1.368 . S
C852 C851 1.523 . S
H853 C828 0.950 . S
H854 C830 0.950 . S
H855 C831 0.949 . S
H856 C833 0.950 . S
H857 C835 0.950 . S
C858 C859 1.349 1_545 S
C858 C860 1.327 . S
C858 H883 0.950 . S
C859 C858 1.349 1_565 S
C859 C875 1.349 . S
C860 C858 1.327 . S
C860 C879 1.429 . S
C860 H884 0.950 . S
C861 C878 1.574 . S
C861 C880 1.368 . S
C861 H885 0.949 . S
H862 C866 0.949 . S
C863 C864 1.349 . S
C863 C865 1.327 . S
C863 H886 0.950 . S
C864 C863 1.349 . S
C864 C876 1.349 . S
C865 C863 1.327 . S
C865 C881 1.429 . S
C865 H887 0.950 . S
C866 H862 0.949 . S
C866 C874 1.574 . S
C866 C882 1.368 . S
H867 C875 0.950 . S
H868 C873 0.950 . S
H869 C874 0.949 . S
H870 C876 0.950 . S
H871 C877 0.950 . S
H872 C878 0.949 . S
C873 H868 0.950 . S
C873 C875 1.327 1_545 S
C873 C879 1.429 . S
C874 C866 1.574 . S
C874 H869 0.949 . S
C874 C880 1.368 . S
C875 C859 1.349 . S
C875 H867 0.950 . S
C875 C873 1.327 1_565 S
C876 C864 1.349 . S
C876 H870 0.950 . S
C876 C877 1.327 . S
C877 H871 0.950 . S
C877 C876 1.327 . S
C877 C881 1.429 . S
C878 C861 1.574 . S
C878 H872 0.949 . S
C878 C882 1.368 . S
C879 C860 1.429 . S
C879 C873 1.429 . S
C879 C880 1.523 . S
C880 C861 1.368 . S
C880 C874 1.368 . S
C880 C879 1.523 . S
C881 C865 1.429 . S
C881 C877 1.429 . S
C881 C882 1.523 . S
C882 C866 1.368 . S
C882 C878 1.368 . S
C882 C881 1.523 . S
H883 C858 0.950 . S
H884 C860 0.950 . S
H885 C861 0.949 . S
H886 C863 0.950 . S
H887 C865 0.950 . S
C169 C47 1.195 . S
C174 C5 1.195 . S
C199 C19 1.196 . S
C204 C61 1.196 . S
C229 C75 1.196 . S
C234 C33 1.196 . S
C259 C89 1.195 . S
C264 C131 1.195 . S
C289 C145 1.196 . S
C294 C103 1.196 . S
C319 C117 1.196 . S
C324 C159 1.196 . S
C349 C123 1.530 . S
C354 C11 1.530 . S
C379 C25 1.530 . S
C384 C137 1.530 . S
C409 C39 1.530 . S
C414 C151 1.530 . S
C439 C53 1.530 . S
C444 C165 1.530 . S
C469 C95 1.529 . S
C474 C67 1.529 . S
C499 C109 1.529 . S
C504 C81 1.529 . S
C529 C110 0.692 . S
C534 C12 0.692 . S
C559 C26 0.692 . S
C564 C124 0.692 . S
C589 C40 0.691 . S
C594 C138 0.691 . S
C619 C54 0.692 . S
C624 C152 0.692 . S
C649 C166 0.692 . S
C654 C68 0.692 . S
C679 C82 0.692 . S
C684 C96 0.692 . S
C709 C144 1.240 . S
C714 C4 1.240 . S
C739 C158 1.240 . S
C744 C18 1.240 . S
C769 C88 1.240 . S
C774 C32 1.240 . S
C799 C46 1.240 . S
C804 C102 1.240 . S
C829 C60 1.240 . S
C834 C116 1.240 . S
C859 C74 1.240 . S
C864 C130 1.240 . S
