# Generated by pormake.
# Topology ecv, (8)-cn, num edge types: 1
# Building blocks:
#     Node 0, Type 0, BuildingBlock: EBIMEJ_clean_sbu_0, # of connection points: 8
#     Node 1, Type 0, BuildingBlock: EBIMEJ_clean_sbu_0, # of connection points: 8
#     Node 2, Type 0, BuildingBlock: EBIMEJ_clean_sbu_0, # of connection points: 8
#     Node 3, Type 0, BuildingBlock: EBIMEJ_clean_sbu_0, # of connection points: 8
#     Node 4, Type 0, BuildingBlock: EBIMEJ_clean_sbu_0, # of connection points: 8
#     Node 5, Type 0, BuildingBlock: EBIMEJ_clean_sbu_0, # of connection points: 8
#     Node 6, Type 0, BuildingBlock: EBIMEJ_clean_sbu_0, # of connection points: 8
#     Node 7, Type 0, BuildingBlock: EBIMEJ_clean_sbu_0, # of connection points: 8
#     Node 8, Type 0, BuildingBlock: EBIMEJ_clean_sbu_0, # of connection points: 8
#     Node 9, Type 0, BuildingBlock: EBIMEJ_clean_sbu_0, # of connection points: 8
#     Node 10, Type 0, BuildingBlock: EBIMEJ_clean_sbu_0, # of connection points: 8
#     Node 11, Type 0, BuildingBlock: EBIMEJ_clean_sbu_0, # of connection points: 8
#     Node 12, Type 0, BuildingBlock: EBIMEJ_clean_sbu_0, # of connection points: 8
#     Node 13, Type 0, BuildingBlock: EBIMEJ_clean_sbu_0, # of connection points: 8
#     Node 14, Type 0, BuildingBlock: EBIMEJ_clean_sbu_0, # of connection points: 8
#     Node 15, Type 0, BuildingBlock: EBIMEJ_clean_sbu_0, # of connection points: 8
#     Edge 16, Type (0, 0), BuildingBlock: TEMPAE_clean_linker_10, # of connection points: 2
#     Edge 17, Type (0, 0), BuildingBlock: TEMPAE_clean_linker_10, # of connection points: 2
#     Edge 18, Type (0, 0), BuildingBlock: TEMPAE_clean_linker_10, # of connection points: 2
#     Edge 19, Type (0, 0), BuildingBlock: TEMPAE_clean_linker_10, # of connection points: 2
#     Edge 20, Type (0, 0), BuildingBlock: TEMPAE_clean_linker_10, # of connection points: 2
#     Edge 21, Type (0, 0), BuildingBlock: TEMPAE_clean_linker_10, # of connection points: 2
#     Edge 22, Type (0, 0), BuildingBlock: TEMPAE_clean_linker_10, # of connection points: 2
#     Edge 23, Type (0, 0), BuildingBlock: TEMPAE_clean_linker_10, # of connection points: 2
#     Edge 24, Type (0, 0), BuildingBlock: TEMPAE_clean_linker_10, # of connection points: 2
#     Edge 25, Type (0, 0), BuildingBlock: TEMPAE_clean_linker_10, # of connection points: 2
#     Edge 26, Type (0, 0), BuildingBlock: TEMPAE_clean_linker_10, # of connection points: 2
#     Edge 27, Type (0, 0), BuildingBlock: TEMPAE_clean_linker_10, # of connection points: 2
#     Edge 28, Type (0, 0), BuildingBlock: TEMPAE_clean_linker_10, # of connection points: 2
#     Edge 29, Type (0, 0), BuildingBlock: TEMPAE_clean_linker_10, # of connection points: 2
#     Edge 30, Type (0, 0), BuildingBlock: TEMPAE_clean_linker_10, # of connection points: 2
#     Edge 31, Type (0, 0), BuildingBlock: TEMPAE_clean_linker_10, # of connection points: 2
#     Edge 32, Type (0, 0), BuildingBlock: TEMPAE_clean_linker_10, # of connection points: 2
#     Edge 33, Type (0, 0), BuildingBlock: TEMPAE_clean_linker_10, # of connection points: 2
#     Edge 34, Type (0, 0), BuildingBlock: TEMPAE_clean_linker_10, # of connection points: 2
#     Edge 35, Type (0, 0), BuildingBlock: TEMPAE_clean_linker_10, # of connection points: 2
#     Edge 36, Type (0, 0), BuildingBlock: TEMPAE_clean_linker_10, # of connection points: 2
#     Edge 37, Type (0, 0), BuildingBlock: TEMPAE_clean_linker_10, # of connection points: 2
#     Edge 38, Type (0, 0), BuildingBlock: TEMPAE_clean_linker_10, # of connection points: 2
#     Edge 39, Type (0, 0), BuildingBlock: TEMPAE_clean_linker_10, # of connection points: 2
#     Edge 40, Type (0, 0), BuildingBlock: TEMPAE_clean_linker_10, # of connection points: 2
#     Edge 41, Type (0, 0), BuildingBlock: TEMPAE_clean_linker_10, # of connection points: 2
#     Edge 42, Type (0, 0), BuildingBlock: TEMPAE_clean_linker_10, # of connection points: 2
#     Edge 43, Type (0, 0), BuildingBlock: TEMPAE_clean_linker_10, # of connection points: 2
#     Edge 44, Type (0, 0), BuildingBlock: TEMPAE_clean_linker_10, # of connection points: 2
#     Edge 45, Type (0, 0), BuildingBlock: TEMPAE_clean_linker_10, # of connection points: 2
#     Edge 46, Type (0, 0), BuildingBlock: TEMPAE_clean_linker_10, # of connection points: 2
#     Edge 47, Type (0, 0), BuildingBlock: TEMPAE_clean_linker_10, # of connection points: 2
#     Edge 48, Type (0, 0), BuildingBlock: TEMPAE_clean_linker_10, # of connection points: 2
#     Edge 49, Type (0, 0), BuildingBlock: TEMPAE_clean_linker_10, # of connection points: 2
#     Edge 50, Type (0, 0), BuildingBlock: TEMPAE_clean_linker_10, # of connection points: 2
#     Edge 51, Type (0, 0), BuildingBlock: TEMPAE_clean_linker_10, # of connection points: 2
#     Edge 52, Type (0, 0), BuildingBlock: TEMPAE_clean_linker_10, # of connection points: 2
#     Edge 53, Type (0, 0), BuildingBlock: TEMPAE_clean_linker_10, # of connection points: 2
#     Edge 54, Type (0, 0), BuildingBlock: TEMPAE_clean_linker_10, # of connection points: 2
#     Edge 55, Type (0, 0), BuildingBlock: TEMPAE_clean_linker_10, # of connection points: 2
#     Edge 56, Type (0, 0), BuildingBlock: TEMPAE_clean_linker_10, # of connection points: 2
#     Edge 57, Type (0, 0), BuildingBlock: TEMPAE_clean_linker_10, # of connection points: 2
#     Edge 58, Type (0, 0), BuildingBlock: TEMPAE_clean_linker_10, # of connection points: 2
#     Edge 59, Type (0, 0), BuildingBlock: TEMPAE_clean_linker_10, # of connection points: 2
#     Edge 60, Type (0, 0), BuildingBlock: TEMPAE_clean_linker_10, # of connection points: 2
#     Edge 61, Type (0, 0), BuildingBlock: TEMPAE_clean_linker_10, # of connection points: 2
#     Edge 62, Type (0, 0), BuildingBlock: TEMPAE_clean_linker_10, # of connection points: 2
#     Edge 63, Type (0, 0), BuildingBlock: TEMPAE_clean_linker_10, # of connection points: 2
#     Edge 64, Type (0, 0), BuildingBlock: TEMPAE_clean_linker_10, # of connection points: 2
#     Edge 65, Type (0, 0), BuildingBlock: TEMPAE_clean_linker_10, # of connection points: 2
#     Edge 66, Type (0, 0), BuildingBlock: TEMPAE_clean_linker_10, # of connection points: 2
#     Edge 67, Type (0, 0), BuildingBlock: TEMPAE_clean_linker_10, # of connection points: 2
#     Edge 68, Type (0, 0), BuildingBlock: TEMPAE_clean_linker_10, # of connection points: 2
#     Edge 69, Type (0, 0), BuildingBlock: TEMPAE_clean_linker_10, # of connection points: 2
#     Edge 70, Type (0, 0), BuildingBlock: TEMPAE_clean_linker_10, # of connection points: 2
#     Edge 71, Type (0, 0), BuildingBlock: TEMPAE_clean_linker_10, # of connection points: 2
#     Edge 72, Type (0, 0), BuildingBlock: TEMPAE_clean_linker_10, # of connection points: 2
#     Edge 73, Type (0, 0), BuildingBlock: TEMPAE_clean_linker_10, # of connection points: 2
#     Edge 74, Type (0, 0), BuildingBlock: TEMPAE_clean_linker_10, # of connection points: 2
#     Edge 75, Type (0, 0), BuildingBlock: TEMPAE_clean_linker_10, # of connection points: 2
#     Edge 76, Type (0, 0), BuildingBlock: TEMPAE_clean_linker_10, # of connection points: 2
#     Edge 77, Type (0, 0), BuildingBlock: TEMPAE_clean_linker_10, # of connection points: 2
#     Edge 78, Type (0, 0), BuildingBlock: TEMPAE_clean_linker_10, # of connection points: 2
#     Edge 79, Type (0, 0), BuildingBlock: TEMPAE_clean_linker_10, # of connection points: 2
# Relax obj value: 0.075
# Max RMSD: 0.179
# Mean RMSD: 0.179
data_MOF--net-ecv--node1-EBIMEJ_clean_sbu_0--edge1-TEMPAE_clean_linker_10
_symmetry_space_group_name_H-M    P1
_symmetry_Int_Tables_number       1
_symmetry_cell_setting            triclinic
loop_
_symmetry_equiv_pos_as_xyz
'x, y, z'
_cell_length_a     16.187983
_cell_length_b     29.353203
_cell_length_c     137.96114
_cell_angle_alpha  100.32761
_cell_angle_beta   90.014017
_cell_angle_gamma 89.943038
loop_
_atom_site_label
_atom_site_type_symbol
_atom_site_fract_x
_atom_site_fract_y
_atom_site_fract_z
_atom_type_partial_charge
Co0 Co 0.2002 0.18815 0.43626 0.0
Co1 Co 0.10068 0.11082 0.44628 0.0
Co2 Co 0.18677 0.18813 0.45955 0.0
H3 H 0.19232 0.17543 0.44783 0.0
O4 O 0.20185 0.14638 0.44598 0.0
H5 H 0.10467 0.1183 0.45806 0.0
O6 O 0.09267 0.14675 0.46046 0.0
Co7 Co 0.11208 0.10036 0.4691 0.0
O8 O 0.03456 0.05175 0.46158 0.0
O9 O 1.00115 0.07438 0.44738 0.0
O10 O 0.14562 0.15392 0.4801 0.0
O11 O 0.17891 0.21704 0.47372 0.0
O12 O 0.23493 0.2239 0.42527 0.0
O13 O 0.26061 0.15394 0.42381 0.0
O14 O 0.21223 0.06516 0.46321 0.0
O15 O 0.17378 0.05441 0.44742 0.0
C16 C 0.32661 0.22656 0.45057 0.0
C17 C 0.07519 0.1227 0.42633 0.0
C18 C 0.07593 0.06993 0.48446 0.0
C19 C 0.09185 0.25691 0.44889 0.0
C20 C 0.99167 0.04819 0.45369 0.0
C21 C 0.16708 0.19648 0.48104 0.0
C22 C 0.26745 0.1894 0.41997 0.0
C23 C 0.21916 0.04384 0.45437 0.0
O24 O 0.31239 0.19653 0.4429 0.0
O25 O 0.27955 0.22999 0.45804 0.0
O26 O 0.09537 0.09195 0.43148 0.0
O27 O 0.09532 0.16504 0.4291 0.0
O28 O 0.05369 0.05152 0.47594 0.0
O29 O 0.11871 0.10535 0.48424 0.0
O30 O 0.12675 0.2435 0.44059 0.0
O31 O 0.10471 0.23674 0.45631 0.0
Co32 Co 0.19969 0.08747 0.84568 0.0
Co33 Co 0.10207 0.16908 0.83639 0.0
Co34 Co 0.18625 0.09156 0.82264 0.0
H35 H 0.19318 0.10269 0.83434 0.0
O36 O 0.20293 0.13163 0.83644 0.0
H37 H 0.10413 0.16086 0.82446 0.0
O38 O 0.09094 0.13238 0.8223 0.0
Co39 Co 0.10721 0.17649 0.81303 0.0
O40 O 0.99634 0.17557 0.82 0.0
O41 O 0.00336 0.2078 0.83544 0.0
O42 O 0.16067 0.13041 0.80203 0.0
O43 O 0.17661 0.06503 0.80828 0.0
O44 O 0.20317 0.07407 0.85987 0.0
O45 O 0.30294 0.10573 0.85444 0.0
O46 O 0.20322 0.21656 0.81851 0.0
O47 O 0.17489 0.2244 0.83466 0.0
C48 C 0.30904 0.03092 0.83019 0.0
C49 C 0.08289 0.1585 0.85645 0.0
C50 C 0.07393 0.21276 0.79834 0.0
C51 C 0.08937 0.02141 0.83289 0.0
C52 C 0.97188 0.20709 0.82699 0.0
C53 C 0.17639 0.08717 0.80107 0.0
C54 C 0.27425 0.09039 0.86169 0.0
C55 C 0.2141 0.23657 0.8274 0.0
O56 O 0.28183 0.04046 0.83899 0.0
O57 O 0.28233 0.05036 0.82325 0.0
O58 O 0.10086 0.18894 0.85115 0.0
O59 O 0.10197 0.11596 0.85369 0.0
O60 O 0.1447 0.21223 0.80208 0.0
O61 O 0.02249 0.19292 0.80296 0.0
O62 O 0.12104 0.03528 0.84133 0.0
O63 O 0.10664 0.04082 0.82547 0.0
Co64 Co 0.88963 0.93209 0.56359 0.0
Co65 Co 0.82301 0.8425 0.57247 0.0
Co66 Co 0.90123 0.92119 0.5863 0.0
H67 H 0.89928 0.91386 0.57454 0.0
O68 O 0.91461 0.88595 0.57216 0.0
H69 H 0.81455 0.85328 0.58421 0.0
O70 O 0.80281 0.88203 0.58624 0.0
Co71 Co 0.8076 0.83822 0.59561 0.0
O72 O 0.73527 0.7868 0.58851 0.0
O73 O 0.73051 0.79908 0.57293 0.0
O74 O 0.89145 0.87205 0.6053 0.0
O75 O 0.90142 0.94194 0.60096 0.0
O76 O 0.86112 0.96902 0.55258 0.0
O77 O 0.97201 0.93346 0.55213 0.0
O78 O 0.89486 0.79016 0.59144 0.0
O79 O 0.90601 0.79367 0.57543 0.0
C80 C 0.01076 0.98479 0.57887 0.0
C81 C 0.828 0.84049 0.55125 0.0
C82 C 0.72419 0.83901 0.61095 0.0
C83 C 0.784 0.98948 0.57816 0.0
C84 C 0.70798 0.77746 0.57971 0.0
C85 C 0.91305 0.91457 0.60711 0.0
C86 C 0.92743 0.95921 0.54794 0.0
C87 C 0.92651 0.77602 0.583 0.0
O88 O 0.97156 0.97918 0.5707 0.0
O89 O 0.99761 0.96078 0.58554 0.0
O90 O 0.83553 0.81653 0.55811 0.0
O91 O 0.83513 0.88455 0.5529 0.0
O92 O 0.74482 0.80306 0.60508 0.0
O93 O 0.7498 0.87463 0.60805 0.0
O94 O 0.79282 0.97082 0.56919 0.0
O95 O 0.82573 0.97618 0.58508 0.0
Co96 Co 0.88476 0.85611 0.21945 0.0
Co97 Co 0.80244 0.94023 0.20955 0.0
Co98 Co 0.89482 0.864 0.19651 0.0
H99 H 0.89073 0.87292 0.20829 0.0
O100 O 0.9005 0.90175 0.21059 0.0
H101 H 0.79922 0.92697 0.1978 0.0
O102 O 0.79142 0.89772 0.19598 0.0
Co103 Co 0.79259 0.93899 0.18613 0.0
O104 O 0.68273 0.93899 0.19321 0.0
O105 O 0.70499 0.97865 0.20792 0.0
O106 O 0.89462 0.91483 0.17854 0.0
O107 O 0.90045 0.84304 0.18174 0.0
O108 O 0.90283 0.80147 0.2269 0.0
O109 O 0.92482 0.86877 0.23393 0.0
O110 O 0.88236 0.98635 0.18992 0.0
O111 O 0.87907 0.99132 0.20632 0.0
C112 C 0.00902 0.80505 0.20453 0.0
C113 C 0.8231 0.95072 0.23111 0.0
C114 C 0.72132 0.94704 0.17041 0.0
C115 C 0.78215 0.79555 0.20496 0.0
C116 C 0.66251 0.97204 0.20006 0.0
C117 C 0.91547 0.87241 0.17606 0.0
C118 C 0.92559 0.82686 0.23476 0.0
C119 C 0.90613 1.00491 0.19852 0.0
O120 O 0.96736 0.80957 0.2125 0.0
O121 O 0.99626 0.82902 0.19785 0.0
O122 O 0.80783 0.97006 0.2237 0.0
O123 O 0.84863 0.909 0.23034 0.0
O124 O 0.79604 0.95642 0.17222 0.0
O125 O 0.68705 0.93368 0.17756 0.0
O126 O 0.78759 0.81786 0.21373 0.0
O127 O 0.82572 0.80673 0.19793 0.0
Co128 Co 0.1831 0.68965 0.93565 0.0
Co129 Co 0.10103 0.60518 0.94506 0.0
Co130 Co 0.17366 0.68621 0.95881 0.0
H131 H 0.18128 0.67512 0.94708 0.0
O132 O 0.1959 0.64676 0.94506 0.0
H133 H 0.10213 0.61387 0.95698 0.0
O134 O 0.08473 0.64163 0.95908 0.0
Co135 Co 0.10798 0.5987 0.9684 0.0
O136 O 0.9966 0.59692 0.96136 0.0
O137 O 0.00735 0.5634 0.946 0.0
O138 O 0.17689 0.64292 0.9782 0.0
O139 O 0.16125 0.71118 0.97328 0.0
O140 O 0.18747 0.69664 0.92103 0.0
O141 O 0.29339 0.67893 0.92791 0.0
O142 O 0.20256 0.55693 0.96313 0.0
O143 O 0.18027 0.55288 0.94694 0.0
C144 C 0.27293 0.75623 0.9515 0.0
C145 C 0.08201 0.61166 0.92474 0.0
C146 C 0.07656 0.56723 0.98377 0.0
C147 C 0.06469 0.75099 0.94841 0.0
C148 C 0.97418 0.5648 0.95436 0.0
C149 C 0.17796 0.68718 0.97996 0.0
C150 C 0.2631 0.68764 0.92005 0.0
C151 C 0.21726 0.53936 0.95419 0.0
O152 O 0.24139 0.74612 0.94293 0.0
O153 O 0.26258 0.73187 0.95817 0.0
O154 O 0.10387 0.5837 0.93042 0.0
O155 O 0.09335 0.65523 0.92707 0.0
O156 O 0.14736 0.57849 0.98133 0.0
O157 O 0.02369 0.5739 0.97753 0.0
O158 O 0.0962 0.73763 0.93994 0.0
O159 O 0.08663 0.73338 0.95594 0.0
Co160 Co 0.20003 0.58766 0.34541 0.0
Co161 Co 0.10442 0.6693 0.33597 0.0
Co162 Co 0.18938 0.59222 0.32229 0.0
H163 H 0.1948 0.60287 0.33403 0.0
O164 O 0.20462 0.63176 0.33614 0.0
H165 H 0.10547 0.66098 0.32403 0.0
O166 O 0.09331 0.63233 0.32191 0.0
Co167 Co 0.10495 0.67669 0.31261 0.0
O168 O 0.99365 0.6758 0.31948 0.0
O169 O 0.00671 0.70845 0.33494 0.0
O170 O 0.15811 0.63012 0.30162 0.0
O171 O 0.1812 0.56556 0.3079 0.0
O172 O 0.19892 0.57976 0.36002 0.0
O173 O 0.30622 0.6003 0.35387 0.0
O174 O 0.18373 0.72773 0.31823 0.0
O175 O 0.17948 0.72353 0.33433 0.0
C176 C 0.31229 0.53266 0.32995 0.0
C177 C 0.08338 0.65973 0.35599 0.0
C178 C 0.07329 0.70916 0.2974 0.0
C179 C 0.09496 0.5203 0.33226 0.0
C180 C 0.97052 0.70643 0.32672 0.0
C181 C 0.17729 0.58729 0.30064 0.0
C182 C 0.27351 0.59043 0.3615 0.0
C183 C 0.2048 0.74235 0.32713 0.0
O184 O 0.2834 0.54152 0.33868 0.0
O185 O 0.28623 0.55209 0.32299 0.0
O186 O 0.10324 0.68968 0.35066 0.0
O187 O 0.10248 0.61703 0.35343 0.0
O188 O 0.14371 0.70966 0.30127 0.0
O189 O 0.02149 0.69002 0.30211 0.0
O190 O 0.12653 0.53339 0.34073 0.0
O191 O 0.11058 0.54095 0.32497 0.0
Co192 Co 0.89062 0.4349 0.06356 0.0
Co193 Co 0.82598 0.34514 0.07314 0.0
Co194 Co 0.89606 0.42752 0.08667 0.0
H195 H 0.89631 0.41867 0.07483 0.0
O196 O 0.91336 0.39089 0.07266 0.0
H197 H 0.82079 0.35646 0.0849 0.0
O198 O 0.804 0.38445 0.08689 0.0
Co199 Co 0.82495 0.3424 0.09635 0.0
O200 O 0.77473 0.28371 0.08908 0.0
O201 O 0.74002 0.29808 0.07417 0.0
O202 O 0.903 0.38099 0.10589 0.0
O203 O 0.89417 0.45032 0.10133 0.0
O204 O 0.87509 0.47837 0.05344 0.0
O205 O 0.96034 0.42499 0.0507 0.0
O206 O 0.92344 0.3016 0.09206 0.0
O207 O 0.91456 0.29895 0.07579 0.0
C208 C 0.00678 0.49066 0.07894 0.0
C209 C 0.82403 0.34327 0.052 0.0
C210 C 0.74452 0.34099 0.11183 0.0
C211 C 0.78449 0.49695 0.07774 0.0
C212 C 0.73954 0.27253 0.08073 0.0
C213 C 0.91321 0.4247 0.10763 0.0
C214 C 0.92881 0.45878 0.04756 0.0
C215 C 0.94734 0.28572 0.08332 0.0
O216 O 0.9733 0.48232 0.07041 0.0
O217 O 0.98834 0.46929 0.08587 0.0
O218 O 0.838 0.31948 0.05876 0.0
O219 O 0.82726 0.38751 0.05359 0.0
O220 O 0.82146 0.33649 0.11106 0.0
O221 O 0.71298 0.34688 0.10382 0.0
O222 O 0.80553 0.48182 0.06889 0.0
O223 O 0.81313 0.47919 0.08496 0.0
Co224 Co 0.88957 0.35202 0.71931 0.0
Co225 Co 0.81626 0.43818 0.70915 0.0
Co226 Co 0.9035 0.35983 0.69633 0.0
H227 H 0.8982 0.3687 0.70814 0.0
O228 O 0.91028 0.39728 0.7104 0.0
H229 H 0.81426 0.42517 0.69746 0.0
O230 O 0.80381 0.39621 0.6956 0.0
Co231 Co 0.81257 0.4376 0.68587 0.0
O232 O 0.69707 0.44805 0.69156 0.0
O233 O 0.72198 0.47859 0.70725 0.0
O234 O 0.9173 0.41129 0.67911 0.0
O235 O 0.90979 0.33872 0.68161 0.0
O236 O 0.91821 0.29983 0.72704 0.0
O237 O 0.91879 0.36814 0.73418 0.0
O238 O 0.8955 0.48804 0.69005 0.0
O239 O 0.89697 0.48792 0.70627 0.0
C240 C 0.01514 0.29996 0.70459 0.0
C241 C 0.81394 0.44388 0.73036 0.0
C242 C 0.75372 0.44323 0.66936 0.0
C243 C 0.7959 0.28667 0.70442 0.0
C244 C 0.67742 0.47506 0.69953 0.0
C245 C 0.9301 0.36817 0.67618 0.0
C246 C 0.92995 0.32672 0.73508 0.0
C247 C 0.92139 0.50416 0.69869 0.0
O248 O 0.97474 0.30591 0.71267 0.0
O249 O 0.00172 0.32281 0.69774 0.0
O250 O 0.82189 0.46687 0.72337 0.0
O251 O 0.82624 0.40011 0.72921 0.0
O252 O 0.7695 0.47749 0.67596 0.0
O253 O 0.77112 0.40598 0.67213 0.0
O254 O 0.80976 0.30263 0.71344 0.0
O255 O 0.82832 0.30445 0.69743 0.0
Co256 Co 0.70119 0.18963 0.93705 0.0
Co257 Co 0.59856 0.11295 0.94704 0.0
Co258 Co 0.69185 0.18805 0.96019 0.0
H259 H 0.69634 0.17536 0.94848 0.0
O260 O 0.70331 0.14608 0.94648 0.0
H261 H 0.60485 0.12161 0.95877 0.0
O262 O 0.594 0.15025 0.9611 0.0
Co263 Co 0.61632 0.10491 0.96983 0.0
O264 O 0.50761 0.07678 0.96462 0.0
O265 O 0.49419 0.08034 0.94858 0.0
O266 O 0.65989 0.15419 0.98094 0.0
O267 O 0.68597 0.2175 0.97445 0.0
O268 O 0.70109 0.19703 0.92245 0.0
O269 O 0.80984 0.18062 0.92897 0.0
O270 O 0.71486 0.06976 0.96364 0.0
O271 O 0.66361 0.05432 0.94844 0.0
C272 C 0.81611 0.24456 0.9521 0.0
C273 C 0.57781 0.12115 0.92672 0.0
C274 C 0.58942 0.06779 0.98449 0.0
C275 C 0.59066 0.25565 0.9496 0.0
C276 C 0.46773 0.06873 0.9565 0.0
C277 C 0.67923 0.19692 0.98185 0.0
C278 C 0.77687 0.18906 0.92123 0.0
C279 C 0.71316 0.04496 0.9551 0.0
O280 O 0.78583 0.23605 0.94343 0.0
O281 O 0.79087 0.22529 0.95909 0.0
O282 O 0.59255 0.09163 0.93234 0.0
O283 O 0.60231 0.16304 0.92893 0.0
O284 O 0.55582 0.05569 0.97623 0.0
O285 O 0.63956 0.10029 0.98436 0.0
O286 O 0.61544 0.23821 0.94101 0.0
O287 O 0.61563 0.24013 0.95726 0.0
Co288 Co 0.69106 0.08885 0.34575 0.0
Co289 Co 0.60202 0.17285 0.33638 0.0
Co290 Co 0.68067 0.09359 0.32262 0.0
H291 H 0.68717 0.10407 0.33437 0.0
O292 O 0.69934 0.13272 0.33647 0.0
H293 H 0.60267 0.1637 0.32451 0.0
O294 O 0.5874 0.13555 0.32239 0.0
Co295 Co 0.60748 0.1791 0.31313 0.0
O296 O 0.49566 0.18005 0.32 0.0
O297 O 0.50657 0.21361 0.33534 0.0
O298 O 0.67743 0.13683 0.30311 0.0
O299 O 0.67012 0.0685 0.30815 0.0
O300 O 0.69183 0.07998 0.36027 0.0
O301 O 0.80047 0.0961 0.35372 0.0
O302 O 0.70635 0.21731 0.31822 0.0
O303 O 0.68011 0.22566 0.33438 0.0
C304 C 0.79265 0.02837 0.32988 0.0
C305 C 0.59312 0.16882 0.35728 0.0
C306 C 0.57572 0.21337 0.29816 0.0
C307 C 0.57411 0.02754 0.33286 0.0
C308 C 0.473 0.21214 0.32698 0.0
C309 C 0.68367 0.09273 0.30144 0.0
C310 C 0.76785 0.08739 0.36145 0.0
C311 C 0.71995 0.23689 0.32707 0.0
O312 O 0.76225 0.03684 0.33854 0.0
O313 O 0.77423 0.0512 0.32316 0.0
O314 O 0.604 0.1955 0.35098 0.0
O315 O 0.61124 0.12579 0.35549 0.0
O316 O 0.64631 0.20078 0.30038 0.0
O317 O 0.5232 0.20656 0.30442 0.0
O318 O 0.60062 0.04311 0.34148 0.0
O319 O 0.59991 0.04341 0.32528 0.0
Co320 Co 0.3836 0.92316 0.06188 0.0
Co321 Co 0.29541 0.84242 0.07213 0.0
Co322 Co 0.39493 0.91622 0.08491 0.0
H323 H 0.38849 0.90713 0.07314 0.0
O324 O 0.3959 0.87802 0.07089 0.0
H325 H 0.29502 0.85575 0.08393 0.0
O326 O 0.28919 0.88516 0.08576 0.0
Co327 Co 0.29122 0.8441 0.09568 0.0
O328 O 0.18041 0.84565 0.08882 0.0
O329 O 0.19534 0.80681 0.07391 0.0
O330 O 0.39498 0.86643 0.10318 0.0
O331 O 0.40431 0.93753 0.09964 0.0
O332 O 0.36155 0.96668 0.05188 0.0
O333 O 0.4572 0.91882 0.04957 0.0
O334 O 0.38317 0.7983 0.09163 0.0
O335 O 0.36814 0.78943 0.07523 0.0
C336 C 0.52666 0.96131 0.07555 0.0
C337 C 0.31051 0.83161 0.05047 0.0
C338 C 0.22305 0.83454 0.11149 0.0
C339 C 0.29792 0.99278 0.0767 0.0
C340 C 0.15684 0.81306 0.08203 0.0
C341 C 0.4209 0.9081 0.10524 0.0
C342 C 0.42069 0.95089 0.04637 0.0
C343 C 0.40051 0.77764 0.08295 0.0
O344 O 0.48845 0.95435 0.06734 0.0
O345 O 0.49992 0.94784 0.08325 0.0
O346 O 0.29753 0.81221 0.05794 0.0
O347 O 0.33674 0.87304 0.05119 0.0
O348 O 0.29971 0.83334 0.11011 0.0
O349 O 0.18523 0.84103 0.10393 0.0
O350 O 0.30797 0.97491 0.0677 0.0
O351 O 0.32939 0.97494 0.08374 0.0
Co352 Co 0.39524 0.85068 0.71921 0.0
Co353 Co 0.3205 0.93837 0.70985 0.0
Co354 Co 0.40273 0.85996 0.69634 0.0
H355 H 0.40128 0.86822 0.70813 0.0
O356 O 0.41446 0.89657 0.71046 0.0
H357 H 0.31444 0.92636 0.69805 0.0
O358 O 0.30349 0.89748 0.69623 0.0
Co359 Co 0.30663 0.93832 0.68634 0.0
O360 O 0.1967 0.94587 0.6936 0.0
O361 O 0.22751 0.98023 0.70866 0.0
O362 O 0.39996 0.90977 0.67753 0.0
O363 O 0.40466 0.83919 0.68159 0.0
O364 O 0.40356 0.79988 0.72778 0.0
O365 O 0.44679 0.866 0.73317 0.0
O366 O 0.39744 0.98517 0.69023 0.0
O367 O 0.40007 0.98757 0.70658 0.0
C368 C 0.50759 0.79435 0.70357 0.0
C369 C 0.32788 0.9431 0.73113 0.0
C370 C 0.2326 0.94161 0.67051 0.0
C371 C 0.29242 0.78888 0.70473 0.0
C372 C 0.18258 0.97729 0.70103 0.0
C373 C 0.41977 0.86701 0.67559 0.0
C374 C 0.43706 0.82576 0.73493 0.0
C375 C 0.4245 1.00213 0.69879 0.0
O376 O 0.46719 0.79992 0.71163 0.0
O377 O 0.49979 0.82076 0.69726 0.0
O378 O 0.33064 0.96636 0.72412 0.0
O379 O 0.34177 0.89953 0.72975 0.0
O380 O 0.25847 0.97652 0.67633 0.0
O381 O 0.24912 0.90512 0.67364 0.0
O382 O 0.30958 0.8041 0.7137 0.0
O383 O 0.32494 0.80592 0.69765 0.0
Co384 Co 0.70464 0.69011 0.43644 0.0
Co385 Co 0.6054 0.61207 0.44651 0.0
Co386 Co 0.68901 0.69065 0.45971 0.0
H387 H 0.69539 0.67752 0.44802 0.0
O388 O 0.70553 0.64851 0.4462 0.0
H389 H 0.60951 0.62048 0.45829 0.0
O390 O 0.59599 0.64882 0.46061 0.0
Co391 Co 0.6192 0.60391 0.46943 0.0
O392 O 0.54084 0.55517 0.4623 0.0
O393 O 0.50776 0.57414 0.4477 0.0
O394 O 0.66738 0.65468 0.48012 0.0
O395 O 0.67952 0.72003 0.47382 0.0
O396 O 0.70267 0.70696 0.42247 0.0
O397 O 0.80692 0.67726 0.42746 0.0
O398 O 0.71713 0.56669 0.46357 0.0
O399 O 0.6797 0.55625 0.44774 0.0
C400 C 0.82926 0.72678 0.45081 0.0
C401 C 0.58042 0.62354 0.42647 0.0
C402 C 0.57526 0.5763 0.4848 0.0
C403 C 0.59694 0.75972 0.44888 0.0
C404 C 0.49878 0.54949 0.45434 0.0
C405 C 0.68082 0.69822 0.48105 0.0
C406 C 0.77504 0.69285 0.42044 0.0
C407 C 0.72385 0.54516 0.45475 0.0
O408 O 0.81472 0.69463 0.44354 0.0
O409 O 0.78184 0.73234 0.45826 0.0
O410 O 0.60036 0.59294 0.43168 0.0
O411 O 0.60098 0.66592 0.42913 0.0
O412 O 0.57453 0.55177 0.47635 0.0
O413 O 0.60086 0.61636 0.48451 0.0
O414 O 0.63409 0.74672 0.44071 0.0
O415 O 0.60713 0.73883 0.45626 0.0
Co416 Co 0.69946 0.58519 0.84489 0.0
Co417 Co 0.60361 0.66849 0.83617 0.0
Co418 Co 0.6841 0.59096 0.82199 0.0
H419 H 0.69255 0.60128 0.83365 0.0
O420 O 0.7034 0.63 0.83586 0.0
H421 H 0.60491 0.66134 0.82428 0.0
O422 O 0.59041 0.63319 0.82198 0.0
Co423 Co 0.6088 0.67834 0.81304 0.0
O424 O 0.49772 0.67773 0.81999 0.0
O425 O 0.50603 0.70841 0.8355 0.0
O426 O 0.65732 0.63201 0.80174 0.0
O427 O 0.67214 0.56558 0.80758 0.0
O428 O 0.7236 0.55651 0.85715 0.0
O429 O 0.78774 0.61491 0.85493 0.0
O430 O 0.70693 0.71662 0.81856 0.0
O431 O 0.67798 0.72357 0.83466 0.0
C432 C 0.80598 0.52845 0.82912 0.0
C433 C 0.58471 0.65607 0.85614 0.0
C434 C 0.57872 0.71674 0.79861 0.0
C435 C 0.58544 0.52137 0.83221 0.0
C436 C 0.47419 0.7088 0.82712 0.0
C437 C 0.67112 0.58847 0.80048 0.0
C438 C 0.77803 0.58557 0.86045 0.0
C439 C 0.71822 0.73587 0.82749 0.0
O440 O 0.78024 0.53793 0.83799 0.0
O441 O 0.77867 0.54831 0.82228 0.0
O442 O 0.60352 0.68689 0.85096 0.0
O443 O 0.60355 0.61356 0.85327 0.0
O444 O 0.65015 0.70918 0.80153 0.0
O445 O 0.52477 0.70274 0.8039 0.0
O446 O 0.61779 0.53471 0.84062 0.0
O447 O 0.60306 0.54076 0.82479 0.0
Co448 Co 0.39546 0.42734 0.56253 0.0
Co449 Co 0.32022 0.34388 0.57246 0.0
Co450 Co 0.41034 0.42059 0.5857 0.0
H451 H 0.40384 0.41186 0.57386 0.0
O452 O 0.41595 0.38331 0.57162 0.0
H453 H 0.31538 0.35637 0.58427 0.0
O454 O 0.30772 0.38562 0.58618 0.0
Co455 Co 0.30573 0.3439 0.59594 0.0
O456 O 0.19573 0.33898 0.58876 0.0
O457 O 0.22539 0.30324 0.57381 0.0
O458 O 0.40036 0.37225 0.60464 0.0
O459 O 0.41642 0.44201 0.60037 0.0
O460 O 0.35925 0.46456 0.55182 0.0
O461 O 0.47804 0.43819 0.5518 0.0
O462 O 0.38952 0.29349 0.59178 0.0
O463 O 0.39883 0.29356 0.57557 0.0
C464 C 0.53917 0.45506 0.57552 0.0
C465 C 0.31557 0.34025 0.55119 0.0
C466 C 0.23239 0.33328 0.61139 0.0
C467 C 0.29791 0.4903 0.57728 0.0
C468 C 0.18056 0.30711 0.58145 0.0
C469 C 0.42709 0.41392 0.60642 0.0
C470 C 0.42813 0.46072 0.54754 0.0
C471 C 0.41885 0.27707 0.5833 0.0
O472 O 0.50998 0.42452 0.56863 0.0
O473 O 0.51066 0.45671 0.58414 0.0
O474 O 0.32691 0.31657 0.55806 0.0
O475 O 0.32498 0.38424 0.55262 0.0
O476 O 0.30947 0.33413 0.61045 0.0
O477 O 0.19693 0.33826 0.60357 0.0
O478 O 0.30435 0.47026 0.56835 0.0
O479 O 0.33963 0.47731 0.58427 0.0
Co480 Co 0.39119 0.3468 0.21855 0.0
Co481 Co 0.32484 0.43782 0.20969 0.0
Co482 Co 0.39894 0.35864 0.19568 0.0
H483 H 0.39784 0.36488 0.20751 0.0
O484 O 0.41395 0.39266 0.20991 0.0
H485 H 0.31454 0.42672 0.19799 0.0
O486 O 0.30161 0.39814 0.19605 0.0
Co487 Co 0.30433 0.44078 0.18653 0.0
O488 O 0.19574 0.45292 0.19389 0.0
O489 O 0.23653 0.48368 0.20891 0.0
O490 O 0.40649 0.416 0.17899 0.0
O491 O 0.40094 0.34219 0.1808 0.0
O492 O 0.37794 0.30158 0.22836 0.0
O493 O 0.4561 0.35802 0.23174 0.0
O494 O 0.38485 0.49275 0.19076 0.0
O495 O 0.4101 0.4844 0.20633 0.0
C496 C 0.50953 0.29428 0.20277 0.0
C497 C 0.32816 0.43941 0.23068 0.0
C498 C 0.23353 0.44476 0.17053 0.0
C499 C 0.29246 0.28411 0.20351 0.0
C500 C 0.18742 0.48302 0.20169 0.0
C501 C 0.42352 0.37345 0.17588 0.0
C502 C 0.4279 0.32264 0.23455 0.0
C503 C 0.42239 0.50483 0.19893 0.0
O504 O 0.47277 0.30022 0.21112 0.0
O505 O 0.49443 0.3182 0.19614 0.0
O506 O 0.34001 0.46368 0.22396 0.0
O507 O 0.33237 0.39509 0.22894 0.0
O508 O 0.25944 0.47923 0.17645 0.0
O509 O 0.24833 0.40796 0.17364 0.0
O510 O 0.31237 0.29728 0.21248 0.0
O511 O 0.32024 0.30417 0.19658 0.0
C512 C 0.43316 0.28798 0.45461 0.0
C513 C 0.36502 0.26948 0.44908 0.0
C514 C 0.45872 0.33337 0.45434 0.0
C515 C 0.4131 0.36023 0.44862 0.0
C516 C 0.34634 0.34076 0.44276 0.0
C517 C 0.32295 0.29565 0.44313 0.0
C518 C 0.53133 0.35335 0.46054 0.0
C519 C 0.29512 0.36859 0.43673 0.0
C520 C 0.40681 0.48857 0.45815 0.0
C521 C 0.46032 0.50454 0.45158 0.0
C522 C 0.38901 0.44141 0.45709 0.0
C523 C 0.42883 0.41002 0.44953 0.0
C524 C 0.48137 0.42625 0.44273 0.0
C525 C 0.49536 0.47374 0.44374 0.0
C526 C 0.33021 0.42506 0.46425 0.0
C527 C 0.52612 0.39342 0.43475 0.0
H528 H 0.46425 0.26769 0.45936 0.0
H529 H 0.26759 0.28216 0.43935 0.0
H530 H 0.57399 0.37117 0.45615 0.0
H531 H 0.50911 0.37955 0.46682 0.0
H532 H 0.56628 0.32633 0.46352 0.0
H533 H 0.25282 0.34634 0.43157 0.0
H534 H 0.25737 0.39424 0.44175 0.0
H535 H 0.33524 0.38805 0.43239 0.0
H536 H 0.38183 0.51274 0.46434 0.0
H537 H 0.53919 0.48642 0.4389 0.0
H538 H 0.36368 0.40297 0.46868 0.0
H539 H 0.2805 0.40365 0.46018 0.0
H540 H 0.30131 0.45433 0.46935 0.0
H541 H 0.56835 0.37101 0.43817 0.0
H542 H 0.56302 0.41198 0.42989 0.0
H543 H 0.48143 0.37036 0.43015 0.0
C544 C 0.88566 0.98891 0.45482 0.0
C545 C 0.95514 1.0033 0.45023 0.0
C546 C 0.86442 0.94198 0.45321 0.0
C547 C 0.91725 0.90946 0.4474 0.0
C548 C 0.98508 0.92444 0.44237 0.0
C549 C 0.00219 0.97162 0.44371 0.0
C550 C 0.78889 0.92695 0.45824 0.0
C551 C 0.04426 0.89077 0.43638 0.0
C552 C 0.9191 0.79471 0.45593 0.0
C553 C 0.86877 0.7686 0.44882 0.0
C554 C 0.93961 0.84025 0.45523 0.0
C555 C 0.90626 0.85986 0.44741 0.0
C556 C 0.85846 0.83285 0.43998 0.0
C557 C 0.84081 0.78723 0.44075 0.0
C558 C 0.99295 0.86811 0.46312 0.0
C559 C 0.82049 0.85302 0.43167 0.0
H560 H 0.85033 1.01391 0.45993 0.0
H561 H 0.0568 0.98338 0.44033 0.0
H562 H 0.75266 0.90137 0.45302 0.0
H563 H 0.80818 0.90989 0.46443 0.0
H564 H 0.74819 0.95669 0.4612 0.0
H565 H 0.08551 0.87606 0.44147 0.0
H566 H 0.01098 0.86155 0.43182 0.0
H567 H 0.08334 0.90792 0.43148 0.0
H568 H 0.93917 0.7802 0.46224 0.0
H569 H 0.79902 0.7676 0.43549 0.0
H570 H 0.95514 0.89542 0.46768 0.0
H571 H 0.04314 0.88566 0.45973 0.0
H572 H 0.02096 0.84626 0.46804 0.0
H573 H 0.7711 0.87785 0.43466 0.0
H574 H 0.79304 0.8259 0.42592 0.0
H575 H 0.86722 0.87242 0.42817 0.0
C576 C 0.35594 0.96223 0.81825 0.0
C577 C 0.36183 0.98976 0.82765 0.0
C578 C 0.38328 0.91623 0.8166 0.0
C579 C 0.41795 0.8981 0.82451 0.0
C580 C 0.43321 0.92743 0.83365 0.0
C581 C 0.4045 0.97306 0.83513 0.0
C582 C 0.36752 0.88601 0.8067 0.0
C583 C 0.47274 0.90954 0.84215 0.0
C584 C 0.37784 0.77489 0.82764 0.0
C585 C 0.45456 0.7547 0.82507 0.0
C586 C 0.36346 0.82125 0.82691 0.0
C587 C 0.4283 0.84767 0.82376 0.0
C588 C 0.50491 0.82671 0.82083 0.0
C589 C 0.51692 0.78036 0.82153 0.0
C590 C 0.2804 0.84257 0.82998 0.0
C591 C 0.57576 0.85373 0.81752 0.0
H592 H 0.3233 0.9751 0.81243 0.0
H593 H 0.4103 0.99462 0.84235 0.0
H594 H 0.42099 0.863 0.80436 0.0
H595 H 0.31327 0.86357 0.80728 0.0
H596 H 0.35457 0.90689 0.80091 0.0
H597 H 0.49038 0.93806 0.84823 0.0
H598 H 0.42865 0.8865 0.8451 0.0
H599 H 0.52863 0.8888 0.83967 0.0
H600 H 0.33015 0.75484 0.83045 0.0
H601 H 0.57632 0.76465 0.81966 0.0
H602 H 0.25568 0.86072 0.82421 0.0
H603 H 0.28742 0.8687 0.83682 0.0
H604 H 0.23456 0.81633 0.83137 0.0
H605 H 0.62657 0.83072 0.81416 0.0
H606 H 0.60109 0.87778 0.82396 0.0
H607 H 0.5544 0.87498 0.81212 0.0
C608 C 0.01052 0.27687 0.82044 0.0
C609 C 0.95074 0.25244 0.82474 0.0
C610 C 0.99795 0.32293 0.8195 0.0
C611 C 0.92375 0.34501 0.82308 0.0
C612 C 0.86157 0.31993 0.82712 0.0
C613 C 0.87632 0.27378 0.82799 0.0
C614 C 0.06637 0.34845 0.81529 0.0
C615 C 0.78122 0.34248 0.83095 0.0
C616 C 0.90559 0.47165 0.83367 0.0
C617 C 0.85771 0.487 0.82644 0.0
C618 C 0.93453 0.42606 0.83226 0.0
C619 C 0.91348 0.3953 0.8235 0.0
C620 C 0.87294 0.41196 0.81576 0.0
C621 C 0.84595 0.45802 0.81729 0.0
C622 C 0.98086 0.40982 0.84052 0.0
C623 C 0.851 0.3802 0.80624 0.0
H624 H 0.06892 0.26066 0.81823 0.0
H625 H 0.83089 0.25481 0.83146 0.0
H626 H 0.04131 0.37171 0.81049 0.0
H627 H 0.10039 0.37022 0.82141 0.0
H628 H 0.11117 0.32419 0.81097 0.0
H629 H 0.73677 0.31717 0.83308 0.0
H630 H 0.79351 0.36955 0.83751 0.0
H631 H 0.75198 0.35972 0.82529 0.0
H632 H 0.9157 0.49435 0.84069 0.0
H633 H 0.80906 0.46988 0.81167 0.0
H634 H 0.03466 0.38819 0.83761 0.0
H635 H 0.9395 0.3881 0.84422 0.0
H636 H 0.00308 0.43926 0.84613 0.0
H637 H 0.90405 0.35765 0.80346 0.0
H638 H 0.83159 0.39981 0.80044 0.0
H639 H 0.79932 0.35732 0.8076 0.0
C640 C 0.63926 0.51929 0.57639 0.0
C641 C 0.56339 0.4997 0.57319 0.0
C642 C 0.65609 0.56552 0.57581 0.0
C643 C 0.59441 0.59243 0.57217 0.0
C644 C 0.51893 0.57205 0.56858 0.0
C645 C 0.50441 0.52578 0.56917 0.0
C646 C 0.73778 0.58625 0.57962 0.0
C647 C 0.45134 0.59977 0.5648 0.0
C648 C 0.61453 0.71741 0.58407 0.0
C649 C 0.65971 0.73489 0.57691 0.0
C650 C 0.58644 0.67168 0.58227 0.0
C651 C 0.60588 0.64288 0.57319 0.0
C652 C 0.6449 0.66153 0.56562 0.0
C653 C 0.67082 0.70771 0.56755 0.0
C654 C 0.54233 0.65325 0.59041 0.0
C655 C 0.66628 0.63178 0.55583 0.0
H656 H 0.68396 0.499 0.57965 0.0
H657 H 0.44479 0.51086 0.56705 0.0
H658 H 0.76621 0.60518 0.57419 0.0
H659 H 0.72756 0.61159 0.58651 0.0
H660 H 0.78202 0.55954 0.58119 0.0
H661 H 0.39985 0.57748 0.56138 0.0
H662 H 0.42603 0.62541 0.57098 0.0
H663 H 0.47628 0.6194 0.55929 0.0
H664 H 0.60516 0.73869 0.59127 0.0
H665 H 0.70596 0.7212 0.56199 0.0
H666 H 0.58562 0.63159 0.59388 0.0
H667 H 0.48942 0.63106 0.58745 0.0
H668 H 0.51924 0.6816 0.59622 0.0
H669 H 0.71928 0.60907 0.55685 0.0
H670 H 0.68367 0.65295 0.55023 0.0
H671 H 0.61384 0.60901 0.55296 0.0
C672 C 0.02605 0.05953 0.58983 0.0
C673 C 0.05481 0.02834 0.58165 0.0
C674 C 0.04638 0.10642 0.59106 0.0
C675 C 0.09928 0.12155 0.58414 0.0
C676 C 0.13466 0.0893 0.57639 0.0
C677 C 0.11018 0.04293 0.57508 0.0
C678 C 0.00588 0.14017 0.59924 0.0
C679 C 0.19413 0.10421 0.56912 0.0
C680 C 0.08237 0.24153 0.57805 0.0
C681 C 0.14809 0.2636 0.58351 0.0
C682 C 0.06255 0.19568 0.57865 0.0
C683 C 0.11227 0.17146 0.58451 0.0
C684 C 0.17734 0.19421 0.59023 0.0
C685 C 0.19386 0.24031 0.58973 0.0
C686 C 0.99146 0.17254 0.57259 0.0
C687 C 0.23349 0.16909 0.59627 0.0
H688 H 0.98148 0.04805 0.59475 0.0
H689 H 0.13126 0.01853 0.5687 0.0
H690 H 0.05323 0.16156 0.60375 0.0
H691 H 0.9655 0.16416 0.59602 0.0
H692 H 0.9679 0.12246 0.60415 0.0
H693 H 0.2248 0.07415 0.56446 0.0
H694 H 0.16037 0.12399 0.56423 0.0
H695 H 0.24234 0.12734 0.57304 0.0
H696 H 0.04838 0.2596 0.57312 0.0
H697 H 0.24636 0.25715 0.59369 0.0
H698 H 0.95488 0.15097 0.57685 0.0
H699 H 0.01599 0.14933 0.56598 0.0
H700 H 0.94968 0.19819 0.5701 0.0
H701 H 0.19705 0.14927 0.60091 0.0
H702 H 0.27527 0.19317 0.60112 0.0
H703 H 0.27199 0.14385 0.59125 0.0
C704 C 0.68404 0.03713 0.19152 0.0
C705 C 0.63218 1.01432 0.1972 0.0
C706 C 0.67028 0.08326 0.19081 0.0
C707 C 0.6015 0.10632 0.19571 0.0
C708 C 0.54469 0.08214 0.20075 0.0
C709 C 0.56191 0.03632 0.20163 0.0
C710 C 0.73356 0.10821 0.18564 0.0
C711 C 0.46887 0.1055 0.20574 0.0
C712 C 0.6021 0.23306 0.20666 0.0
C713 C 0.55357 0.25071 0.19982 0.0
C714 C 0.62408 0.18627 0.20499 0.0
C715 C 0.59345 0.15674 0.1965 0.0
C716 C 0.54908 0.17508 0.18927 0.0
C717 C 0.53086 0.22232 0.19095 0.0
C718 C 0.67484 0.16789 0.21264 0.0
C719 C 0.51406 0.14436 0.18025 0.0
H720 H 0.7392 0.02007 0.18828 0.0
H721 H 0.5227 0.01844 0.2061 0.0
H722 H 0.70334 0.13063 0.18102 0.0
H723 H 0.77146 0.13088 0.19124 0.0
H724 H 0.77561 0.0837 0.18093 0.0
H725 H 0.42585 0.08025 0.20815 0.0
H726 H 0.48753 0.13102 0.21231 0.0
H727 H 0.43544 0.12467 0.2007 0.0
H728 H 0.61902 0.25529 0.21353 0.0
H729 H 0.49187 0.23605 0.18576 0.0
H730 H 0.72479 0.14491 0.20906 0.0
H731 H 0.63495 0.14699 0.21669 0.0
H732 H 0.70301 0.1962 0.21805 0.0
H733 H 0.56096 0.11923 0.1767 0.0
H734 H 0.49113 0.16467 0.17473 0.0
H735 H 0.46173 0.12413 0.18248 0.0
C736 C 0.02478 0.73002 0.19382 0.0
C737 C 0.05364 0.76178 0.2019 0.0
C738 C 0.04273 0.68298 0.19296 0.0
C739 C 0.09295 0.66826 0.20019 0.0
C740 C 0.12788 0.70083 0.20791 0.0
C741 C 0.10627 0.74744 0.20879 0.0
C742 C 0.00397 0.64887 0.18472 0.0
C743 C 0.18454 0.68618 0.21549 0.0
C744 C 0.08441 0.54667 0.20558 0.0
C745 C 0.15438 0.52772 0.20049 0.0
C746 C 0.06073 0.59226 0.20516 0.0
C747 C 0.10965 0.61875 0.19969 0.0
C748 C 0.17881 0.59895 0.19433 0.0
C749 C 0.20059 0.55375 0.19489 0.0
C750 C 0.98556 0.61262 0.21082 0.0
C751 C 0.23329 0.62619 0.18853 0.0
H752 H 0.98195 0.74135 0.18868 0.0
H753 H 0.12684 0.77231 0.21511 0.0
H754 H 0.05208 0.62641 0.18058 0.0
H755 H 0.96077 0.626 0.18785 0.0
H756 H 0.96924 0.66635 0.17947 0.0
H757 H 0.21062 0.71628 0.22061 0.0
H758 H 0.15011 0.66427 0.21988 0.0
H759 H 0.2363 0.66506 0.2118 0.0
H760 H 0.04975 0.52636 0.21001 0.0
H761 H 0.25655 0.53962 0.19133 0.0
H762 H 0.94428 0.62883 0.20598 0.0
H763 H 0.00487 0.64021 0.21699 0.0
H764 H 0.94999 0.58615 0.2139 0.0
H765 H 0.19623 0.64835 0.18446 0.0
H766 H 0.27265 0.60311 0.18315 0.0
H767 H 0.27427 0.64918 0.1937 0.0
C768 C 0.37183 0.02369 0.96496 0.0
C769 C 0.39874 0.03602 0.9561 0.0
C770 C 0.3398 0.97973 0.96503 0.0
C771 C 0.32969 0.94915 0.95599 0.0
C772 C 0.34141 0.96481 0.94697 0.0
C773 C 0.37708 1.00831 0.94711 0.0
C774 C 0.32719 0.96416 0.97479 0.0
C775 C 0.32451 0.93392 0.93719 0.0
C776 C 0.37285 0.82139 0.95407 0.0
C777 C 0.29279 0.80473 0.95463 0.0
C778 C 0.38625 0.86915 0.95502 0.0
C779 C 0.31723 0.89959 0.95599 0.0
C780 C 0.23681 0.88251 0.95681 0.0
C781 C 0.22607 0.83527 0.9564 0.0
C782 C 0.47354 0.88684 0.95461 0.0
C783 C 0.16138 0.91307 0.95731 0.0
H784 H 0.38536 0.04601 0.97193 0.0
H785 H 0.39548 0.01826 0.94023 0.0
H786 H 0.26655 0.94691 0.97502 0.0
H787 H 0.37549 0.93837 0.97568 0.0
H788 H 0.33088 0.99339 0.98112 0.0
H789 H 0.32144 0.95396 0.93109 0.0
H790 H 0.37467 0.9079 0.93553 0.0
H791 H 0.26557 0.91489 0.93745 0.0
H792 H 0.42397 0.79724 0.95261 0.0
H793 H 0.16442 0.82181 0.95687 0.0
H794 H 0.48467 0.9159 0.96083 0.0
H795 H 0.48287 0.9003 0.94768 0.0
H796 H 0.52017 0.85935 0.95494 0.0
H797 H 0.17093 0.94678 0.96226 0.0
H798 H 0.10628 0.89599 0.95984 0.0
H799 H 0.14825 0.92037 0.94984 0.0
C800 C 0.85856 0.31349 0.96399 0.0
C801 C 0.86841 0.28548 0.95469 0.0
C802 C 0.88312 0.35977 0.96559 0.0
C803 C 0.92026 0.3774 0.95779 0.0
C804 C 0.94041 0.34761 0.94885 0.0
C805 C 0.91308 0.30181 0.94735 0.0
C806 C 0.86044 0.39062 0.9752 0.0
C807 C 0.98331 0.36511 0.94052 0.0
C808 C 0.87882 0.49862 0.95364 0.0
C809 C 0.95353 0.51987 0.95674 0.0
C810 C 0.86501 0.45249 0.95451 0.0
C811 C 0.92849 0.42762 0.95839 0.0
C812 C 0.00261 0.44973 0.96189 0.0
C813 C 0.01431 0.49568 0.96094 0.0
C814 C 0.78444 0.42975 0.95085 0.0
C815 C 0.07105 0.42428 0.96614 0.0
H816 H 0.82393 0.30087 0.96969 0.0
H817 H 0.9215 0.27982 0.94021 0.0
H818 H 0.90904 0.41675 0.97763 0.0
H819 H 0.80269 0.40958 0.97416 0.0
H820 H 0.84971 0.3703 0.98115 0.0
H821 H 0.00951 0.33628 0.93505 0.0
H822 H 0.93815 0.3841 0.93667 0.0
H823 H 0.03373 0.3895 0.94333 0.0
H824 H 0.83264 0.51754 0.95026 0.0
H825 H 0.07262 0.51206 0.96311 0.0
H826 H 0.75735 0.41154 0.95649 0.0
H827 H 0.79587 0.40346 0.94414 0.0
H828 H 0.7386 0.45513 0.94903 0.0
H829 H 0.04819 0.41082 0.97266 0.0
H830 H 0.12546 0.44673 0.9684 0.0
H831 H 0.09122 0.39401 0.96064 0.0
C832 C 0.51856 0.28315 0.32153 0.0
C833 C 0.45404 0.25727 0.32454 0.0
C834 C 0.50729 0.32923 0.32064 0.0
C835 C 0.42921 0.34969 0.32289 0.0
C836 C 0.36206 0.32288 0.32537 0.0
C837 C 0.37567 0.27669 0.32627 0.0
C838 C 0.58057 0.35661 0.31807 0.0
C839 C 0.27744 0.34378 0.32768 0.0
C840 C 0.40381 0.47364 0.33502 0.0
C841 C 0.36592 0.49197 0.32744 0.0
C842 C 0.43109 0.42782 0.3334 0.0
C843 C 0.42003 0.40019 0.32398 0.0
C844 C 0.39127 0.42008 0.31601 0.0
C845 C 0.36473 0.46616 0.31784 0.0
C846 C 0.4642 0.40787 0.34199 0.0
C847 C 0.38088 0.39165 0.30582 0.0
H848 H 0.57892 0.26783 0.32023 0.0
H849 H 0.32622 0.25636 0.32865 0.0
H850 H 0.56245 0.3804 0.31303 0.0
H851 H 0.60546 0.37803 0.32489 0.0
H852 H 0.63095 0.33363 0.31457 0.0
H853 H 0.23023 0.31714 0.32841 0.0
H854 H 0.27982 0.36903 0.3347 0.0
H855 H 0.25749 0.36287 0.32183 0.0
H856 H 0.40626 0.49394 0.3424 0.0
H857 H 0.33617 0.48038 0.31192 0.0
H858 H 0.52164 0.38792 0.33988 0.0
H859 H 0.41812 0.38364 0.34418 0.0
H860 H 0.47746 0.43517 0.34849 0.0
H861 H 0.43508 0.36881 0.30376 0.0
H862 H 0.37215 0.41383 0.30016 0.0
H863 H 0.32583 0.36907 0.30573 0.0
C864 C 0.80923 0.95417 0.31854 0.0
C865 C 0.83596 0.98447 0.32698 0.0
C866 C 0.83148 0.90742 0.31698 0.0
C867 C 0.88333 0.89149 0.32391 0.0
C868 C 0.91697 0.92303 0.33191 0.0
C869 C 0.89131 0.96924 0.33348 0.0
C870 C 0.79354 0.87467 0.30845 0.0
C871 C 0.976 0.90741 0.33915 0.0
C872 C 0.86887 0.77069 0.32956 0.0
C873 C 0.93882 0.75033 0.32469 0.0
C874 C 0.84691 0.81617 0.32886 0.0
C875 C 0.89748 0.84151 0.32333 0.0
C876 C 0.96631 0.82031 0.3181 0.0
C877 C 0.98647 0.77503 0.31895 0.0
C878 C 0.77216 0.83785 0.33442 0.0
C879 C 0.02092 0.84608 0.31202 0.0
H880 H 0.76521 0.96609 0.31361 0.0
H881 H 0.91165 0.99301 0.33998 0.0
H882 H 0.83985 0.8496 0.30475 0.0
H883 H 0.74393 0.85447 0.31127 0.0
H884 H 0.76614 0.89343 0.30291 0.0
H885 H 0.94274 0.88528 0.34359 0.0
H886 H 0.02659 0.88631 0.33517 0.0
H887 H 0.00364 0.9371 0.34424 0.0
H888 H 0.83313 0.7516 0.33415 0.0
H889 H 0.04265 0.76006 0.31562 0.0
H890 H 0.73254 0.85476 0.32953 0.0
H891 H 0.79236 0.86507 0.34061 0.0
H892 H 0.73456 0.81204 0.33745 0.0
H893 H 0.9848 0.8559 0.30589 0.0
H894 H 0.07485 0.8251 0.30885 0.0
H895 H 0.0437 0.87859 0.31659 0.0
C896 C 0.63248 1.00358 0.0679 0.0
C897 C 0.59281 0.99555 0.07647 0.0
C898 C 0.66734 0.04668 0.06753 0.0
C899 C 0.66229 0.08177 0.07596 0.0
C900 C 0.63134 0.072 0.08496 0.0
C901 C 0.5977 0.02844 0.08513 0.0
C902 C 0.70203 0.05585 0.0579 0.0
C903 C 0.62632 0.1088 0.09413 0.0
C904 C 0.78137 0.19211 0.07957 0.0
C905 C 0.72051 0.22364 0.07786 0.0
C906 C 0.76505 0.14502 0.07822 0.0
C907 C 0.68503 0.12949 0.07534 0.0
C908 C 0.62413 0.16082 0.07307 0.0
C909 C 0.64314 0.2081 0.07427 0.0
C910 C 0.83176 0.11246 0.0805 0.0
C911 C 0.53776 0.14487 0.07002 0.0
H912 H 0.62925 0.97773 0.06122 0.0
H913 H 0.56706 0.02218 0.09176 0.0
H914 H 0.65708 0.0767 0.05446 0.0
H915 H 0.76018 0.07602 0.05912 0.0
H916 H 0.71418 0.02322 0.05263 0.0
H917 H 0.60575 0.09453 0.10067 0.0
H918 H 0.68724 0.12564 0.09579 0.0
H919 H 0.58194 0.13606 0.09291 0.0
H920 H 0.84121 0.20461 0.08235 0.0
H921 H 0.59663 0.23292 0.07297 0.0
H922 H 0.84045 0.08379 0.07415 0.0
H923 H 0.81329 0.09676 0.08691 0.0
H924 H 0.89177 0.13038 0.08221 0.0
H925 H 0.53992 0.11478 0.06388 0.0
H926 H 0.50032 0.17275 0.06768 0.0
H927 H 0.50605 0.13339 0.0763 0.0
C928 C 0.03423 0.56204 0.09071 0.0
C929 C 0.05237 0.53384 0.08164 0.0
C930 C 0.05474 0.60886 0.09242 0.0
C931 C 0.09703 0.62692 0.08502 0.0
C932 C 0.12413 0.5974 0.07634 0.0
C933 C 0.09964 0.55102 0.07463 0.0
C934 C 0.02387 0.63966 0.10168 0.0
C935 C 0.17332 0.61551 0.06854 0.0
C936 C 0.05882 0.74804 0.08068 0.0
C937 C 0.12969 0.77021 0.08488 0.0
C938 C 0.04458 0.70163 0.08125 0.0
C939 C 0.10461 0.67722 0.0858 0.0
C940 C 0.17435 0.70023 0.09044 0.0
C941 C 0.18552 0.74679 0.08999 0.0
C942 C 0.9682 0.67801 0.07646 0.0
C943 C 0.24076 0.67502 0.09509 0.0
H944 H 0.99685 0.5487 0.0961 0.0
H945 H 0.11377 0.52887 0.06766 0.0
H946 H 0.07314 0.66349 0.10509 0.0
H947 H 0.97218 0.6613 0.09977 0.0
H948 H 0.00128 0.61936 0.10721 0.0
H949 H 0.20049 0.58701 0.06308 0.0
H950 H 0.13249 0.63637 0.06457 0.0
H951 H 0.22388 0.63843 0.07195 0.0
H952 H 0.01689 0.7663 0.07658 0.0
H953 H 0.2414 0.76384 0.09298 0.0
H954 H 0.93693 0.65821 0.08154 0.0
H955 H 0.98599 0.653 0.06977 0.0
H956 H 0.92349 0.7031 0.07429 0.0
H957 H 0.21345 0.65156 0.09969 0.0
H958 H 0.2835 0.69937 0.09973 0.0
H959 H 0.27747 0.65337 0.0892 0.0
C960 C 0.47447 0.71672 0.69531 0.0
C961 C 0.53428 0.74735 0.69999 0.0
C962 C 0.4842 0.66914 0.69459 0.0
C963 C 0.55794 0.65229 0.69811 0.0
C964 C 0.62258 0.68313 0.70184 0.0
C965 C 0.60857 0.73086 0.7031 0.0
C966 C 0.41458 0.63724 0.69044 0.0
C967 C 0.70528 0.66589 0.70476 0.0
C968 C 0.58909 0.5408 0.70732 0.0
C969 C 0.61918 0.51259 0.6988 0.0
C970 C 0.55998 0.58534 0.70695 0.0
C971 C 0.56732 0.60249 0.69803 0.0
C972 C 0.59003 0.57259 0.68925 0.0
C973 C 0.61113 0.52702 0.68969 0.0
C974 C 0.52698 0.6149 0.71624 0.0
C975 C 0.59949 0.58852 0.67948 0.0
H976 H 0.41709 0.73012 0.69291 0.0
H977 H 0.65413 0.75506 0.70677 0.0
H978 H 0.43326 0.61679 0.68322 0.0
H979 H 0.4006 0.61245 0.69541 0.0
H980 H 0.35733 0.65647 0.68929 0.0
H981 H 0.75324 0.69335 0.70546 0.0
H982 H 0.6998 0.65444 0.71196 0.0
H983 H 0.72635 0.63578 0.69925 0.0
H984 H 0.59285 0.52919 0.71435 0.0
H985 H 0.63051 0.50461 0.68299 0.0
H986 H 0.47587 0.63749 0.71455 0.0
H987 H 0.57688 0.63748 0.71991 0.0
H988 H 0.50421 0.59328 0.72151 0.0
H989 H 0.55351 0.57018 0.67422 0.0
H990 H 0.66179 0.57892 0.6764 0.0
H991 H 0.59156 0.62628 0.67986 0.0
C992 C 0.04331 0.22789 0.69313 0.0
C993 C 0.06116 0.25694 0.70209 0.0
C994 C 0.06253 0.18086 0.69174 0.0
C995 C 0.10281 0.16348 0.69939 0.0
C996 C 0.12782 0.19357 0.70809 0.0
C997 C 0.10526 0.24016 0.70941 0.0
C998 C 0.03393 0.14935 0.68247 0.0
C999 C 0.17373 0.17606 0.71623 0.0
C1000 C 0.07804 0.03991 0.70293 0.0
C1001 C 0.153 0.02142 0.69911 0.0
C1002 C 0.05843 0.08607 0.70259 0.0
C1003 C 0.11636 0.11354 0.6985 0.0
C1004 C 0.19065 0.09417 0.69432 0.0
C1005 C 0.20812 0.04824 0.69474 0.0
C1006 C 0.97811 0.10606 0.70702 0.0
C1007 C 0.25432 0.12265 0.69005 0.0
H1008 H 0.00744 0.24093 0.68757 0.0
H1009 H 0.11806 0.26292 0.71635 0.0
H1010 H 0.08506 0.12662 0.67914 0.0
H1011 H 0.98393 0.12653 0.68433 0.0
H1012 H 0.00999 0.16902 0.67689 0.0
H1013 H 0.19554 0.20477 0.72203 0.0
H1014 H 0.13259 0.15339 0.7197 0.0
H1015 H 0.22786 0.155 0.71319 0.0
H1016 H 0.03668 0.01896 0.70649 0.0
H1017 H 0.26743 0.03414 0.69219 0.0
H1018 H 0.94519 0.12438 0.7018 0.0
H1019 H 0.99092 0.13186 0.71378 0.0
H1020 H 0.93676 0.07898 0.70901 0.0
H1021 H 0.22512 0.1423 0.6848 0.0
H1022 H 0.30472 0.1009 0.68618 0.0
H1023 H 0.28209 0.14825 0.69606 0.0
C1024 C 0.26152 0.96355 0.44549 0.0
C1025 C 0.27776 1.00332 0.45256 0.0
C1026 C 0.31145 0.92331 0.44474 0.0
C1027 C 0.38049 0.92269 0.45111 0.0
C1028 C 0.39842 0.9633 0.45804 0.0
C1029 C 0.34675 1.00256 0.45875 0.0
C1030 C 0.28849 0.88087 0.43735 0.0
C1031 C 0.47212 0.96524 0.46481 0.0
C1032 C 0.47382 0.8082 0.45622 0.0
C1033 C 0.54115 0.80133 0.44969 0.0
C1034 C 0.42015 0.84673 0.4566 0.0
C1035 C 0.43478 0.88012 0.45049 0.0
C1036 C 0.50353 0.87361 0.44401 0.0
C1037 C 0.55488 0.83441 0.44362 0.0
C1038 C 0.34729 0.85158 0.46352 0.0
C1039 C 0.52343 0.90838 0.43751 0.0
H1040 H 0.20794 0.9632 0.44077 0.0
H1041 H 0.36027 0.0329 0.46425 0.0
H1042 H 0.34337 0.86649 0.43304 0.0
H1043 H 0.26524 0.85374 0.44132 0.0
H1044 H 0.23992 0.88829 0.43217 0.0
H1045 H 0.47983 0.99987 0.46952 0.0
H1046 H 0.46527 0.93912 0.46965 0.0
H1047 H 0.52933 0.95661 0.46043 0.0
H1048 H 0.46206 0.78297 0.4609 0.0
H1049 H 0.60702 0.83001 0.43861 0.0
H1050 H 0.28929 0.85365 0.45933 0.0
H1051 H 0.35252 0.8842 0.46897 0.0
H1052 H 0.34251 0.82217 0.46756 0.0
H1053 H 0.47069 0.91135 0.43253 0.0
H1054 H 0.5796 0.8988 0.43297 0.0
H1055 H 0.53314 0.94306 0.4421 0.0
C1056 C 0.05666 0.33453 0.44466 0.0
C1057 C 0.03679 0.29876 0.44981 0.0
C1058 C 0.00618 0.37411 0.44511 0.0
C1059 C 0.93179 0.37807 0.45063 0.0
C1060 C 0.9107 0.34174 0.45576 0.0
C1061 C 0.96388 0.30302 0.45542 0.0
C1062 C 0.03336 0.41212 0.43976 0.0
C1063 C 0.83155 0.3437 0.4616 0.0
C1064 C 0.84313 0.49948 0.4599 0.0
C1065 C 0.7804 0.50364 0.45303 0.0
C1066 C 0.8923 0.45927 0.45917 0.0
C1067 C 0.87877 0.42122 0.45142 0.0
C1068 C 0.81592 0.42514 0.4444 0.0
C1069 C 0.768 0.4662 0.44524 0.0
C1070 C 0.95867 0.45747 0.46678 0.0
C1071 C 0.7982 0.38552 0.43608 0.0
H1072 H 0.11305 0.33192 0.44036 0.0
H1073 H 0.94736 0.27552 0.45935 0.0
H1074 H 0.98516 0.41835 0.43443 0.0
H1075 H 0.04142 0.44488 0.44511 0.0
H1076 H 0.09242 0.40378 0.43573 0.0
H1077 H 0.82165 0.31191 0.46476 0.0
H1078 H 0.83258 0.374 0.46769 0.0
H1079 H 0.77816 0.3483 0.45681 0.0
H1080 H 0.85365 0.52786 0.46597 0.0
H1081 H 0.71907 0.46837 0.43998 0.0
H1082 H 0.01962 0.45071 0.46313 0.0
H1083 H 0.94625 0.42854 0.47077 0.0
H1084 H 0.96262 0.49012 0.47226 0.0
H1085 H 0.85445 0.37691 0.43152 0.0
H1086 H 0.74724 0.39358 0.43126 0.0
H1087 H 0.78127 0.35423 0.4391 0.0
C1088 C 0.24222 0.32088 0.83415 0.0
C1089 C 0.26954 0.27796 0.82896 0.0
C1090 C 0.28959 0.36161 0.8344 0.0
C1091 C 0.36728 0.35943 0.82952 0.0
C1092 C 0.3955 0.31588 0.82443 0.0
C1093 C 0.34587 0.2761 0.82407 0.0
C1094 C 0.25565 0.40719 0.8397 0.0
C1095 C 0.47844 0.31123 0.81934 0.0
C1096 C 0.47286 0.46861 0.82333 0.0
C1097 C 0.52818 0.48036 0.83124 0.0
C1098 C 0.41897 0.43009 0.82276 0.0
C1099 C 0.42113 0.40195 0.83015 0.0
C1100 C 0.47736 0.41354 0.83807 0.0
C1101 C 0.52925 0.45234 0.83854 0.0
C1102 C 0.35953 0.4195 0.81423 0.0
C1103 C 0.48365 0.3845 0.84604 0.0
H1104 H 0.18216 0.32296 0.83768 0.0
H1105 H 0.36685 0.24322 0.81992 0.0
H1106 H 0.29919 0.42312 0.84555 0.0
H1107 H 0.24917 0.43156 0.83446 0.0
H1108 H 0.19449 0.40329 0.84311 0.0
H1109 H 0.49211 0.27494 0.81581 0.0
H1110 H 0.48041 0.33335 0.81362 0.0
H1111 H 0.52806 0.32342 0.82473 0.0
H1112 H 0.47097 0.48978 0.81766 0.0
H1113 H 0.57193 0.46035 0.84466 0.0
H1114 H 0.29541 0.41834 0.81703 0.0
H1115 H 0.37335 0.38488 0.80983 0.0
H1116 H 0.36263 0.44556 0.80932 0.0
H1117 H 0.42296 0.38327 0.84971 0.0
H1118 H 0.5304 0.39805 0.85172 0.0
H1119 H 0.50048 0.34839 0.84273 0.0
C1120 C 0.85165 0.77503 0.82457 0.0
C1121 C 0.77414 0.77711 0.8292 0.0
C1122 C 0.90174 0.81476 0.82506 0.0
C1123 C 0.87278 0.85848 0.82998 0.0
C1124 C 0.7939 0.86084 0.83459 0.0
C1125 C 0.74617 0.82018 0.83425 0.0
C1126 C 0.98587 0.8099 0.82026 0.0
C1127 C 0.75906 0.90657 0.83969 0.0
C1128 C 0.03248 0.95254 0.83928 0.0
C1129 C 0.03278 0.98005 0.83188 0.0
C1130 C 0.98101 0.91347 0.83874 0.0
C1131 C 0.92661 0.9011 0.83066 0.0
C1132 C 0.9259 0.92873 0.82317 0.0
C1133 C 0.97929 0.9675 0.82382 0.0
C1134 C 0.98572 0.88503 0.84683 0.0
C1135 C 0.86848 0.91735 0.81446 0.0
H1136 H 0.87317 0.74206 0.82052 0.0
H1137 H 0.68527 0.82242 0.83757 0.0
H1138 H 0.98922 0.83143 0.81443 0.0
H1139 H 0.03421 0.82267 0.82578 0.0
H1140 H 1.00032 0.77346 0.81691 0.0
H1141 H 0.69636 0.90294 0.84274 0.0
H1142 H 0.8005 0.92226 0.84579 0.0
H1143 H 0.75564 0.93101 0.83443 0.0
H1144 H 0.07368 0.96119 0.84553 0.0
H1145 H 0.97844 0.98824 0.81807 0.0
H1146 H 0.00329 0.84886 0.84367 0.0
H1147 H 0.92428 0.88384 0.85033 0.0
H1148 H 0.03124 0.89907 0.85262 0.0
H1149 H 0.88367 0.88266 0.81018 0.0
H1150 H 0.87238 0.94311 0.80948 0.0
H1151 H 0.80378 0.91593 0.81705 0.0
C1152 C 0.494 0.21719 0.59106 0.0
C1153 C 0.47614 0.23603 0.58258 0.0
C1154 C 0.54451 0.17775 0.59068 0.0
C1155 C 0.57928 0.1559 0.58161 0.0
C1156 C 0.56246 0.17484 0.57302 0.0
C1157 C 0.51113 0.21441 0.5736 0.0
C1158 C 0.56009 0.15916 0.60004 0.0
C1159 C 0.59852 0.15312 0.5632 0.0
C1160 C 0.7663 0.0757 0.58253 0.0
C1161 C 0.73052 0.03153 0.58025 0.0
C1162 C 0.71829 0.11629 0.58293 0.0
C1163 C 0.63184 0.11291 0.58115 0.0
C1164 C 0.59535 0.06821 0.5791 0.0
C1165 C 0.6452 0.02823 0.5785 0.0
C1166 C 0.7608 0.16276 0.58492 0.0
C1167 C 0.50351 0.06257 0.57743 0.0
H1168 H 0.46771 0.23303 0.59808 0.0
H1169 H 0.49809 0.22821 0.56698 0.0
H1170 H 0.53817 0.12284 0.59916 0.0
H1171 H 0.62738 0.15893 0.60157 0.0
H1172 H 0.52863 0.17993 0.60652 0.0
H1173 H 0.58102 0.17216 0.55724 0.0
H1174 H 0.66689 0.15222 0.56372 0.0
H1175 H 0.57707 0.11678 0.56115 0.0
H1176 H 0.83262 0.07847 0.5836 0.0
H1177 H 0.61752 0.9942 0.57656 0.0
H1178 H 0.72753 0.18714 0.59068 0.0
H1179 H 0.7603 0.17794 0.57811 0.0
H1180 H 0.82586 0.16004 0.58729 0.0
H1181 H 0.46934 0.0822 0.58381 0.0
H1182 H 0.48401 0.02572 0.57634 0.0
H1183 H 0.48524 0.07704 0.57084 0.0
C1184 C 0.16035 0.5292 0.57662 0.0
C1185 C 0.24416 0.53233 0.57925 0.0
C1186 C 0.1104 0.56911 0.5772 0.0
C1187 C 0.14548 0.61379 0.58013 0.0
C1188 C 0.23056 0.61707 0.58274 0.0
C1189 C 0.2785 0.57642 0.58236 0.0
C1190 C 0.01991 0.5634 0.57462 0.0
C1191 C 0.27158 0.66363 0.58566 0.0
C1192 C 0.02629 0.71744 0.57323 0.0
C1193 C 0.98604 0.73584 0.58211 0.0
C1194 C 0.07941 0.67848 0.57251 0.0
C1195 C 0.09236 0.65673 0.58081 0.0
C1196 C 0.05223 0.67532 0.58977 0.0
C1197 C 1.00048 0.71435 0.59032 0.0
C1198 C 0.1213 0.6603 0.56282 0.0
C1199 C 0.06273 0.6534 0.5988 0.0
H1200 H 0.13383 0.49529 0.57404 0.0
H1201 H 0.34381 0.57916 0.58412 0.0
H1202 H 0.98163 0.58072 0.58089 0.0
H1203 H 0.00575 0.58027 0.56824 0.0
H1204 H 0.00136 0.52643 0.57278 0.0
H1205 H 0.33736 0.66053 0.58775 0.0
H1206 H 0.26851 0.68283 0.57944 0.0
H1207 H 0.23841 0.68464 0.59196 0.0
H1208 H 0.01601 0.7333 0.56682 0.0
H1209 H 0.97006 0.7276 0.59724 0.0
H1210 H 0.10023 0.62446 0.55996 0.0
H1211 H 0.18912 0.65886 0.5639 0.0
H1212 H 0.1082 0.68202 0.55718 0.0
H1213 H 0.0412 0.61694 0.5972 0.0
H1214 H 0.02784 0.67205 0.60524 0.0
H1215 H 0.12901 0.65283 0.60081 0.0
C1216 C 0.5488 0.55162 0.20583 0.0
C1217 C 0.47825 0.54629 0.1998 0.0
C1218 C 0.60135 0.59064 0.20629 0.0
C1219 C 0.58182 0.62613 0.20086 0.0
C1220 C 0.50997 0.62101 0.19489 0.0
C1221 C 0.46024 0.58122 0.19434 0.0
C1222 C 0.67802 0.59387 0.21259 0.0
C1223 C 0.48433 0.65816 0.18921 0.0
C1224 C 0.6638 0.74902 0.20996 0.0
C1225 C 0.72808 0.75318 0.2033 0.0
C1226 C 0.61635 0.70824 0.20923 0.0
C1227 C 0.63364 0.66962 0.20174 0.0
C1228 C 0.6984 0.67349 0.19497 0.0
C1229 C 0.74426 0.71515 0.19578 0.0
C1230 C 0.54747 0.70653 0.21654 0.0
C1231 C 0.72008 0.63328 0.18693 0.0
H1232 H 0.56383 0.52489 0.21003 0.0
H1233 H 0.40568 0.57789 0.18972 0.0
H1234 H 0.73315 0.59868 0.2081 0.0
H1235 H 0.67393 0.62451 0.21858 0.0
H1236 H 0.6873 0.56251 0.21593 0.0
H1237 H 0.42858 0.64832 0.18461 0.0
H1238 H 0.47093 0.69074 0.19442 0.0
H1239 H 0.53536 0.66552 0.18436 0.0
H1240 H 0.65049 0.77791 0.21583 0.0
H1241 H 0.79449 0.71741 0.19069 0.0
H1242 H 0.559 0.67821 0.22072 0.0
H1243 H 0.48797 0.6989 0.21259 0.0
H1244 H 0.54102 0.73955 0.22186 0.0
H1245 H 0.73549 0.60248 0.19022 0.0
H1246 H 0.77326 0.64109 0.18241 0.0
H1247 H 0.6661 0.62399 0.18202 0.0
C1248 C 0.16361 0.24094 0.19643 0.0
C1249 C 0.23957 0.24157 0.20136 0.0
C1250 C 0.10864 0.20288 0.19589 0.0
C1251 C 0.13052 0.16396 0.20021 0.0
C1252 C 0.20849 0.16411 0.20491 0.0
C1253 C 0.26121 0.20278 0.20549 0.0
C1254 C 0.0258 0.205 0.19099 0.0
C1255 C 0.23652 0.12337 0.20938 0.0
C1256 C 0.96523 0.08135 0.20741 0.0
C1257 C 0.96577 0.04474 0.1993 0.0
C1258 C 0.01691 0.12056 0.20771 0.0
C1259 C 0.07249 0.12313 0.19984 0.0
C1260 C 0.07427 0.08577 0.19174 0.0
C1261 C 0.02052 0.04767 0.19151 0.0
C1262 C 0.01157 0.15954 0.21645 0.0
C1263 C 0.13354 0.08585 0.1833 0.0
H1264 H 0.14557 0.27101 0.19338 0.0
H1265 H 0.31977 0.20292 0.20933 0.0
H1266 H 0.01827 0.17482 0.18494 0.0
H1267 H 0.97575 0.20311 0.1964 0.0
H1268 H 0.01786 0.23724 0.18792 0.0
H1269 H 0.29471 0.13068 0.21364 0.0
H1270 H 0.18837 0.11361 0.21435 0.0
H1271 H 0.2467 0.09303 0.20343 0.0
H1272 H 0.92265 0.07997 0.21341 0.0
H1273 H 0.02187 0.01973 0.1852 0.0
H1274 H 0.99768 0.19254 0.21392 0.0
H1275 H 0.07192 0.16389 0.22032 0.0
H1276 H 0.96328 0.15338 0.22179 0.0
H1277 H 0.12188 0.11642 0.17979 0.0
H1278 H 0.12823 0.05409 0.17759 0.0
H1279 H 0.19795 0.08861 0.1861 0.0
C1280 C 0.23878 0.45349 0.9502 0.0
C1281 C 0.27265 0.49813 0.95241 0.0
C1282 C 0.28821 0.41365 0.95004 0.0
C1283 C 0.37429 0.4183 0.95197 0.0
C1284 C 0.40895 0.46347 0.95395 0.0
C1285 C 0.35758 0.50272 0.95433 0.0
C1286 C 0.24765 0.36662 0.94812 0.0
C1287 C 0.50049 0.47035 0.95571 0.0
C1288 C 0.49897 0.31814 0.9595 0.0
C1289 C 0.53333 0.29666 0.95047 0.0
C1290 C 0.44656 0.3573 0.96011 0.0
C1291 C 0.42853 0.37605 0.95152 0.0
C1292 C 0.46299 0.35446 0.94242 0.0
C1293 C 0.51409 0.31531 0.94201 0.0
C1294 C 0.41025 0.37862 0.96994 0.0
C1295 C 0.44621 0.3729 0.93307 0.0
H1296 H 0.1728 0.4498 0.94895 0.0
H1297 H 0.38376 0.53715 0.95621 0.0
H1298 H 0.24797 0.35203 0.95501 0.0
H1299 H 0.18277 0.36827 0.9456 0.0
H1300 H 0.28238 0.34229 0.94249 0.0
H1301 H 0.51839 0.50745 0.95684 0.0
H1302 H 0.51927 0.45601 0.96229 0.0
H1303 H 0.53558 0.45127 0.94934 0.0
H1304 H 0.51292 0.30438 0.9661 0.0
H1305 H 0.53978 0.29954 0.93494 0.0
H1306 H 0.34183 0.37885 0.96944 0.0
H1307 H 0.43057 0.41516 0.972 0.0
H1308 H 0.42864 0.35971 0.97589 0.0
H1309 H 0.37892 0.37204 0.93152 0.0
H1310 H 0.47853 0.35269 0.92659 0.0
H1311 H 0.46625 0.40956 0.93397 0.0
C1312 C 0.95006 0.80274 0.9571 0.0
C1313 C 0.00879 0.79261 0.94953 0.0
C1314 C 0.89914 0.84265 0.95797 0.0
C1315 C 0.90849 0.87409 0.9513 0.0
C1316 C 0.96899 0.86439 0.9438 0.0
C1317 C 0.01708 0.82385 0.94294 0.0
C1318 C 0.83576 0.85151 0.96609 0.0
C1319 C 0.98452 0.8975 0.93679 0.0
C1320 C 0.73906 0.96108 0.94727 0.0
C1321 C 0.76505 1.00189 0.95345 0.0
C1322 C 0.78375 0.91914 0.94669 0.0
C1323 C 0.85732 0.91785 0.95227 0.0
C1324 C 0.88389 0.95922 0.95844 0.0
C1325 C 0.83762 1.00028 0.95896 0.0
C1326 C 0.75144 0.87592 0.94021 0.0
C1327 C 0.96267 0.96116 0.96433 0.0
H1328 H 0.94328 0.77927 0.96228 0.0
H1329 H 0.06341 0.81731 0.93718 0.0
H1330 H 0.85074 0.88418 0.97119 0.0
H1331 H 0.77378 0.85593 0.96294 0.0
H1332 H 0.83295 0.82294 0.97039 0.0
H1333 H 0.03523 0.88564 0.93152 0.0
H1334 H 0.92759 0.90162 0.93256 0.0
H1335 H 1.00082 0.93215 0.94102 0.0
H1336 H 0.68227 0.96154 0.94312 0.0
H1337 H 0.85862 0.0315 0.96376 0.0
H1338 H 0.7432 0.84815 0.94463 0.0
H1339 H 0.79692 0.86316 0.93434 0.0
H1340 H 0.69153 0.88187 0.93671 0.0
H1341 H 0.97422 0.92848 0.96708 0.0
H1342 H 0.96192 0.99016 0.97073 0.0
H1343 H 0.01483 0.96712 0.95951 0.0
C1344 C 0.34039 0.78327 0.33152 0.0
C1345 C 0.25663 0.78499 0.32902 0.0
C1346 C 0.3919 0.82256 0.33199 0.0
C1347 C 0.35874 0.86489 0.33004 0.0
C1348 C 0.27342 0.86688 0.32778 0.0
C1349 C 0.22401 0.82689 0.32717 0.0
C1350 C 0.48228 0.81854 0.33438 0.0
C1351 C 0.23434 0.91105 0.32582 0.0
C1352 C 0.47305 0.97771 0.34011 0.0
C1353 C 0.51469 0.98761 0.33177 0.0
C1354 C 0.42226 0.93839 0.33962 0.0
C1355 C 0.41255 0.9073 0.33057 0.0
C1356 C 0.45348 0.91726 0.32207 0.0
C1357 C 0.50362 0.95724 0.32275 0.0
C1358 C 0.37902 0.93006 0.34884 0.0
C1359 C 0.44526 0.88521 0.31227 0.0
H1360 H 0.36623 0.75077 0.3328 0.0
H1361 H 0.15945 0.82827 0.32516 0.0
H1362 H 0.52056 0.8265 0.32822 0.0
H1363 H 0.49847 0.84422 0.34103 0.0
H1364 H 0.49879 0.78342 0.3357 0.0
H1365 H 0.16586 0.90919 0.32579 0.0
H1366 H 0.25358 0.94103 0.33146 0.0
H1367 H 0.2552 0.91773 0.31855 0.0
H1368 H 0.48048 1.00075 0.34712 0.0
H1369 H 0.53589 0.96402 0.31628 0.0
H1370 H 0.39881 0.89636 0.35064 0.0
H1371 H 0.31127 0.92819 0.3476 0.0
H1372 H 0.39201 0.9577 0.35528 0.0
H1373 H 0.46681 0.84999 0.31293 0.0
H1374 H 0.48132 0.89734 0.30637 0.0
H1375 H 0.37937 0.88227 0.31004 0.0
C1376 C 0.97079 0.47324 0.32489 0.0
C1377 C 0.04076 0.47822 0.33101 0.0
C1378 C 0.91714 0.43476 0.32445 0.0
C1379 C 0.93476 0.39965 0.33005 0.0
C1380 C 0.0066 0.40411 0.33602 0.0
C1381 C 0.05773 0.44328 0.3365 0.0
C1382 C 0.84092 0.43192 0.31808 0.0
C1383 C 0.02986 0.36733 0.3419 0.0
C1384 C 0.7655 0.3163 0.33586 0.0
C1385 C 0.77856 0.27711 0.32852 0.0
C1386 C 0.81478 0.35652 0.33636 0.0
C1387 C 0.87991 0.35759 0.32949 0.0
C1388 C 0.89426 0.3177 0.32222 0.0
C1389 C 0.8432 0.27845 0.32177 0.0
C1390 C 0.7961 0.39828 0.34415 0.0
C1391 C 0.96358 0.31647 0.31486 0.0
H1392 H 0.95667 0.50008 0.32068 0.0
H1393 H 0.11201 0.44641 0.34118 0.0
H1394 H 0.8432 0.4002 0.31234 0.0
H1395 H 0.78506 0.42935 0.32261 0.0
H1396 H 0.83432 0.46245 0.3144 0.0
H1397 H 0.08847 0.37544 0.34604 0.0
H1398 H 0.98001 0.36353 0.34721 0.0
H1399 H 0.03686 0.33341 0.33692 0.0
H1400 H 0.71478 0.31617 0.34098 0.0
H1401 H 0.85378 0.24857 0.31603 0.0
H1402 H 0.78201 0.42847 0.34061 0.0
H1403 H 0.85101 0.40745 0.34891 0.0
H1404 H 0.74297 0.39237 0.34887 0.0
H1405 H 0.95431 0.34401 0.31041 0.0
H1406 H 0.96786 0.28259 0.30979 0.0
H1407 H 0.02341 0.32347 0.31877 0.0
C1408 C 0.4334 0.69308 0.07714 0.0
C1409 C 0.45794 0.73711 0.08201 0.0
C1410 C 0.48396 0.65367 0.07712 0.0
C1411 C 0.56248 0.65831 0.08183 0.0
C1412 C 0.5877 0.70298 0.08665 0.0
C1413 C 0.53463 0.74144 0.08685 0.0
C1414 C 0.453 0.6069 0.0721 0.0
C1415 C 0.67142 0.71036 0.09149 0.0
C1416 C 0.67732 0.55062 0.08762 0.0
C1417 C 0.72872 0.53881 0.07934 0.0
C1418 C 0.62274 0.58913 0.08854 0.0
C1419 C 0.6203 0.61722 0.08113 0.0
C1420 C 0.67385 0.60605 0.07293 0.0
C1421 C 0.72635 0.56727 0.07212 0.0
C1422 C 0.56659 0.59936 0.09738 0.0
C1423 C 0.67584 0.63515 0.06495 0.0
H1424 H 0.37333 0.68922 0.07361 0.0
H1425 H 0.5536 0.77525 0.09073 0.0
H1426 H 0.49361 0.59303 0.06578 0.0
H1427 H 0.4553 0.5821 0.0773 0.0
H1428 H 0.38867 0.60842 0.06937 0.0
H1429 H 0.68191 0.74707 0.09496 0.0
H1430 H 0.67786 0.68847 0.09722 0.0
H1431 H 0.72063 0.69968 0.08595 0.0
H1432 H 0.67834 0.52922 0.09325 0.0
H1433 H 0.76646 0.5594 0.06575 0.0
H1434 H 0.50119 0.5977 0.09493 0.0
H1435 H 0.57774 0.635 0.10144 0.0
H1436 H 0.57571 0.57467 0.10252 0.0
H1437 H 0.61447 0.63451 0.06135 0.0
H1438 H 0.72287 0.62287 0.0592 0.0
H1439 H 0.68949 0.67174 0.0682 0.0
C1440 C 0.27601 0.07377 0.07389 0.0
C1441 C 0.25236 0.03778 0.07877 0.0
C1442 C 0.23014 0.11519 0.07478 0.0
C1443 C 0.15651 0.12062 0.08045 0.0
C1444 C 0.13278 0.08445 0.08551 0.0
C1445 C 0.18138 0.04376 0.08469 0.0
C1446 C 0.26025 0.153 0.06955 0.0
C1447 C 0.05374 0.08729 0.09137 0.0
C1448 C 0.06582 0.24203 0.08926 0.0
C1449 C 0.00705 0.24593 0.08195 0.0
C1450 C 0.11557 0.20211 0.08876 0.0
C1451 C 0.10468 0.16391 0.08096 0.0
C1452 C 0.04517 0.16759 0.07357 0.0
C1453 C 0.9987 0.20877 0.07402 0.0
C1454 C 0.17913 0.20052 0.0967 0.0
C1455 C 0.02834 0.12732 0.06535 0.0
H1456 H 0.33078 0.06936 0.06928 0.0
H1457 H 0.16179 0.01578 0.08833 0.0
H1458 H 0.21577 0.15783 0.06371 0.0
H1459 H 0.26402 0.18634 0.07481 0.0
H1460 H 0.32192 0.1451 0.06612 0.0
H1461 H 0.05414 0.06295 0.09668 0.0
H1462 H 0.04235 0.12282 0.09547 0.0
H1463 H 0.00142 0.07777 0.08622 0.0
H1464 H 0.07262 0.2703 0.09544 0.0
H1465 H 0.95233 0.21083 0.06845 0.0
H1466 H 0.24086 0.19245 0.09332 0.0
H1467 H 0.16355 0.17249 0.10081 0.0
H1468 H 0.183 0.23373 0.102 0.0
H1469 H 0.08436 0.11929 0.06074 0.0
H1470 H 0.97638 0.13436 0.06057 0.0
H1471 H 0.01327 0.09602 0.06848 0.0
C1472 C 0.53793 0.04594 0.69191 0.0
C1473 C 0.4832 0.04222 0.69965 0.0
C1474 C 0.59011 0.08475 0.69224 0.0
C1475 C 0.58624 0.12194 0.70036 0.0
C1476 C 0.53048 0.11856 0.70816 0.0
C1477 C 0.48069 0.07865 0.70778 0.0
C1478 C 0.64979 0.08582 0.68388 0.0
C1479 C 0.52274 0.15744 0.7169 0.0
C1480 C 0.76953 0.20499 0.70643 0.0
C1481 C 0.74576 0.24329 0.70226 0.0
C1482 C 0.71933 0.16526 0.70569 0.0
C1483 C 0.64192 0.16367 0.70082 0.0
C1484 C 0.61789 0.2022 0.6965 0.0
C1485 C 0.6704 0.24128 0.69718 0.0
C1486 C 0.74938 0.12498 0.71018 0.0
C1487 C 0.53531 0.20279 0.69146 0.0
H1488 H 0.54041 0.01813 0.68558 0.0
H1489 H 0.43775 0.07664 0.71371 0.0
H1490 H 0.63662 0.11613 0.68035 0.0
H1491 H 0.71386 0.08977 0.68677 0.0
H1492 H 0.64651 0.05394 0.67818 0.0
H1493 H 0.47451 0.15049 0.72217 0.0
H1494 H 0.58263 0.16278 0.72084 0.0
H1495 H 0.5073 0.1902 0.71435 0.0
H1496 H 0.8277 0.20634 0.71037 0.0
H1497 H 0.65093 0.27104 0.6941 0.0
H1498 H 0.76222 0.09503 0.70422 0.0
H1499 H 0.70131 0.11401 0.715 0.0
H1500 H 0.80654 0.13342 0.71459 0.0
H1501 H 0.52997 0.17258 0.68539 0.0
H1502 H 0.5257 0.23494 0.68841 0.0
H1503 H 0.48501 0.19986 0.69678 0.0
C1504 C 0.98221 0.57825 0.70837 0.0
C1505 C 0.98021 0.5443 0.69978 0.0
C1506 C 0.03205 0.61829 0.70898 0.0
C1507 C 0.08299 0.62432 0.70091 0.0
C1508 C 0.08276 0.58948 0.69234 0.0
C1509 C 0.03093 0.5505 0.69184 0.0
C1510 C 0.029 0.65466 0.71821 0.0
C1511 C 0.13744 0.59335 0.68366 0.0
C1512 C 0.16267 0.74536 0.6984 0.0
C1513 C 0.2411 0.74601 0.70273 0.0
C1514 C 0.11025 0.70634 0.69785 0.0
C1515 C 0.13765 0.66645 0.70146 0.0
C1516 C 0.21797 0.66675 0.70558 0.0
C1517 C 0.26768 0.70664 0.70633 0.0
C1518 C 0.02451 0.70831 0.69366 0.0
C1519 C 0.25155 0.6249 0.70923 0.0
H1520 H 0.94275 0.57426 0.71451 0.0
H1521 H 0.03034 0.52456 0.68517 0.0
H1522 H 0.09132 0.65951 0.72157 0.0
H1523 H 0.00996 0.68837 0.71634 0.0
H1524 H 0.98533 0.64545 0.72376 0.0
H1525 H 0.13236 0.56267 0.67767 0.0
H1526 H 0.12069 0.62468 0.68063 0.0
H1527 H 0.20289 0.59727 0.68606 0.0
H1528 H 0.14105 0.77603 0.69581 0.0
H1529 H 0.32804 0.70709 0.70976 0.0
H1530 H 0.97802 0.7032 0.69928 0.0
H1531 H 0.01611 0.67989 0.68726 0.0
H1532 H 0.01186 0.74182 0.69127 0.0
H1533 H 0.21154 0.61627 0.71517 0.0
H1534 H 0.31555 0.63038 0.71211 0.0
H1535 H 0.25133 0.5945 0.70315 0.0
C1536 C 0.32359 0.15065 0.40363 0.0
C1537 C 0.31261 0.19096 0.41067 0.0
C1538 C 0.36831 0.15147 0.39491 0.0
C1539 C 0.40521 0.19334 0.39331 0.0
C1540 C 0.39442 0.23412 0.40045 0.0
C1541 C 0.34725 0.23259 0.40896 0.0
C1542 C 0.37635 0.10739 0.38741 0.0
C1543 C 0.43449 0.27912 0.39921 0.0
C1544 C 0.58711 0.1766 0.37549 0.0
C1545 C 0.55122 0.18558 0.36678 0.0
C1546 C 0.54158 0.18131 0.38429 0.0
C1547 C 0.457 0.19395 0.38433 0.0
C1548 C 0.42114 0.2045 0.3756 0.0
C1549 C 0.46901 0.20066 0.36695 0.0
C1550 C 0.58319 0.17041 0.3934 0.0
C1551 C 0.33079 0.21679 0.37521 0.0
H1552 H 0.29657 0.11846 0.4049 0.0
H1553 H 0.33955 0.26377 0.41444 0.0
H1554 H 0.35519 0.1133 0.38009 0.0
H1555 H 0.44211 0.0967 0.38665 0.0
H1556 H 0.33997 0.07849 0.38947 0.0
H1557 H 0.42082 0.30766 0.40545 0.0
H1558 H 0.50247 0.27449 0.3986 0.0
H1559 H 0.41289 0.28948 0.39229 0.0
H1560 H 0.65029 0.16415 0.37532 0.0
H1561 H 0.44049 0.20624 0.36014 0.0
H1562 H 0.55965 0.13698 0.39496 0.0
H1563 H 0.56882 0.19746 0.3999 0.0
H1564 H 0.65137 0.16765 0.39254 0.0
H1565 H 0.29269 0.18663 0.37626 0.0
H1566 H 0.31345 0.22679 0.36809 0.0
H1567 H 0.31519 0.24573 0.38127 0.0
C1568 C 0.89835 0.09263 0.37148 0.0
C1569 C 0.81239 0.08688 0.37087 0.0
C1570 C 0.94058 0.09352 0.38045 0.0
C1571 C 0.89586 0.08871 0.38905 0.0
C1572 C 0.80914 0.0821 0.38842 0.0
C1573 C 0.7686 0.08119 0.37935 0.0
C1574 C 0.03284 0.10115 0.38078 0.0
C1575 C 0.75861 0.07763 0.39739 0.0
C1576 C 0.01673 0.06652 0.41173 0.0
C1577 C 0.02509 0.11163 0.4171 0.0
C1578 C 0.97395 0.0582 0.40263 0.0
C1579 C 0.93839 0.09577 0.39887 0.0
C1580 C 0.9448 0.14102 0.40442 0.0
C1581 C 0.98776 0.1483 0.41339 0.0
C1582 C 0.96815 1.00941 0.39694 0.0
C1583 C 0.90757 0.1822 0.40081 0.0
H1584 H 0.93265 0.09698 0.36496 0.0
H1585 H 0.7021 0.07689 0.37896 0.0
H1586 H 0.04708 0.13501 0.38549 0.0
H1587 H 0.06381 0.074 0.38413 0.0
H1588 H 0.05947 0.10085 0.37335 0.0
H1589 H 0.69319 0.06858 0.39552 0.0
H1590 H 0.78554 0.05078 0.40118 0.0
H1591 H 0.75976 0.11087 0.40269 0.0
H1592 H 0.04519 0.03797 0.4145 0.0
H1593 H 0.99257 0.18335 0.41747 0.0
H1594 H 1.00103 1.00696 0.38981 0.0
H1595 H 0.90263 1.00019 0.39524 0.0
H1596 H 0.99526 0.98371 0.40105 0.0
H1597 H 0.93698 0.18639 0.39376 0.0
H1598 H 0.91546 0.21496 0.40618 0.0
H1599 H 0.84062 0.17655 0.39936 0.0
C1600 C 0.47329 0.14398 0.91527 0.0
C1601 C 0.52598 0.10962 0.91769 0.0
C1602 C 0.431 0.13798 0.90626 0.0
C1603 C 0.44208 0.09669 0.89931 0.0
C1604 C 0.49332 0.06114 0.9018 0.0
C1605 C 0.53426 0.06786 0.91101 0.0
C1606 C 0.37624 0.17661 0.90406 0.0
C1607 C 0.50722 0.01675 0.89459 0.0
C1608 C 0.28013 0.07331 0.87887 0.0
C1609 C 0.31856 0.09074 0.87118 0.0
C1610 C 0.32045 0.07367 0.88794 0.0
C1611 C 0.40149 0.09187 0.88939 0.0
C1612 C 0.44105 0.10898 0.88159 0.0
C1613 C 0.39918 0.10821 0.8726 0.0
C1614 C 0.27541 0.05564 0.89605 0.0
C1615 C 0.52709 0.12905 0.88282 0.0
H1616 H 0.46612 0.17629 0.92042 0.0
H1617 H 0.57549 0.04142 0.91279 0.0
H1618 H 0.40173 0.19069 0.89774 0.0
H1619 H 0.31351 0.16322 0.90194 0.0
H1620 H 0.3706 0.20542 0.91046 0.0
H1621 H 0.54475 0.99145 0.8978 0.0
H1622 H 0.44716 1.00058 0.89209 0.0
H1623 H 0.53949 0.02442 0.88797 0.0
H1624 H 0.21787 0.05973 0.87785 0.0
H1625 H 0.42942 0.12166 0.86669 0.0
H1626 H 0.26492 0.08433 0.90235 0.0
H1627 H 0.31348 0.02917 0.89879 0.0
H1628 H 0.21473 0.0401 0.89358 0.0
H1629 H 0.52701 0.16052 0.88864 0.0
H1630 H 0.55115 0.13851 0.87591 0.0
H1631 H 0.57008 0.10384 0.88525 0.0
C1632 C 0.77792 0.19804 0.90349 0.0
C1633 C 0.82145 0.19041 0.91186 0.0
C1634 C 0.81856 0.19846 0.89449 0.0
C1635 C 0.90512 0.1912 0.8938 0.0
C1636 C 0.94965 0.18453 0.9023 0.0
C1637 C 0.90732 0.18418 0.91121 0.0
C1638 C 0.76828 0.20494 0.88562 0.0
C1639 C 0.04173 0.17611 0.90189 0.0
C1640 C 0.99443 0.13294 0.86926 0.0
C1641 C 0.03318 0.16962 0.8657 0.0
C1642 C 0.95196 0.13984 0.87824 0.0
C1643 C 0.9473 0.18475 0.88398 0.0
C1644 C 0.98412 0.22241 0.88038 0.0
C1645 C 0.02653 0.21446 0.87125 0.0
C1646 C 0.91339 0.09857 0.88167 0.0
C1647 C 0.98014 0.27084 0.88628 0.0
H1648 H 0.71154 0.20293 0.90393 0.0
H1649 H 0.94144 0.17847 0.91765 0.0
H1650 H 0.79548 0.23272 0.88214 0.0
H1651 H 0.76945 0.1726 0.88004 0.0
H1652 H 0.70285 0.21382 0.88753 0.0
H1653 H 0.06838 0.17532 0.90928 0.0
H1654 H 0.05512 0.14252 0.89703 0.0
H1655 H 0.07336 0.20347 0.89868 0.0
H1656 H 0.99772 0.09811 0.86502 0.0
H1657 H 0.05608 0.24299 0.86861 0.0
H1658 H 0.84664 0.10485 0.88316 0.0
H1659 H 0.94266 0.09332 0.88865 0.0
H1660 H 0.9202 0.06614 0.87617 0.0
H1661 H 0.91498 0.28074 0.88806 0.0
H1662 H 0.00815 0.29672 0.8823 0.0
H1663 H 0.01313 0.27213 0.89338 0.0
C1664 C 0.42215 0.8614 0.65741 0.0
C1665 C 0.45968 0.85091 0.66591 0.0
C1666 C 0.46425 0.85561 0.64837 0.0
C1667 C 0.54747 0.84037 0.64783 0.0
C1668 C 0.58527 0.82863 0.65635 0.0
C1669 C 0.54055 0.83356 0.66527 0.0
C1670 C 0.42051 0.86781 0.63951 0.0
C1671 C 0.67438 0.81339 0.65619 0.0
C1672 C 0.64094 0.79889 0.6223 0.0
C1673 C 0.67926 0.8392 0.62038 0.0
C1674 C 0.5985 0.79859 0.63121 0.0
C1675 C 0.59564 0.83932 0.63849 0.0
C1676 C 0.63566 0.87989 0.63665 0.0
C1677 C 0.67592 0.8795 0.62758 0.0
C1678 C 0.5555 0.75489 0.63277 0.0
C1679 C 0.63572 0.9239 0.64423 0.0
H1680 H 0.36029 0.87565 0.65793 0.0
H1681 H 0.5705 0.82665 0.67189 0.0
H1682 H 0.44894 0.8992 0.6375 0.0
H1683 H 0.4273 0.83934 0.63308 0.0
H1684 H 0.35362 0.87464 0.6409 0.0
H1685 H 0.69341 0.80303 0.66322 0.0
H1686 H 0.68494 0.78385 0.65007 0.0
H1687 H 0.71478 0.84214 0.65483 0.0
H1688 H 0.64315 0.76762 0.61677 0.0
H1689 H 0.70555 0.91076 0.62617 0.0
H1690 H 0.48837 0.76159 0.63388 0.0
H1691 H 0.57936 0.74385 0.63952 0.0
H1692 H 0.56398 0.726 0.62644 0.0
H1693 H 0.57163 0.93696 0.64554 0.0
H1694 H 0.67387 0.95153 0.64192 0.0
H1695 H 0.65981 0.91689 0.65135 0.0
C1696 C 0.91992 0.91992 0.62529 0.0
C1697 C 0.95451 0.93082 0.61668 0.0
C1698 C 0.9642 0.92655 0.63419 0.0
C1699 C 0.0467 0.94286 0.63443 0.0
C1700 C 0.08132 0.95506 0.62579 0.0
C1701 C 0.0343 0.94952 0.61704 0.0
C1702 C 0.9237 0.91401 0.64321 0.0
C1703 C 0.16974 0.97113 0.62562 0.0
C1704 C 0.14901 0.98352 0.6595 0.0
C1705 C 0.18782 0.94287 0.66116 0.0
C1706 C 0.10318 0.98421 0.65083 0.0
C1707 C 0.09813 0.94367 0.64351 0.0
C1708 C 0.13942 0.90295 0.64505 0.0
C1709 C 0.1823 0.90283 0.65392 0.0
C1710 C 0.05833 0.02793 0.64962 0.0
C1711 C 0.13776 0.85923 0.63738 0.0
H1712 H 0.85873 0.90483 0.62498 0.0
H1713 H 0.06189 0.95689 0.61033 0.0
H1714 H 0.953 0.88235 0.645 0.0
H1715 H 0.93248 0.94217 0.64966 0.0
H1716 H 0.85644 0.90738 0.64212 0.0
H1717 H 0.18589 0.98208 0.61855 0.0
H1718 H 0.1812 1.00044 0.63175 0.0
H1719 H 0.21177 0.94256 0.6267 0.0
H1720 H 0.15254 1.01449 0.6651 0.0
H1721 H 0.21194 0.87125 0.65516 0.0
H1722 H 0.99105 0.02098 0.64884 0.0
H1723 H 0.07919 0.0395 0.6428 0.0
H1724 H 0.06839 0.05652 0.65597 0.0
H1725 H 0.07376 0.84566 0.63648 0.0
H1726 H 0.1783 0.83175 0.63937 0.0
H1727 H 0.15789 0.86675 0.63014 0.0
C1728 C 0.59376 0.94286 0.15999 0.0
C1729 C 0.67953 0.94901 0.16089 0.0
C1730 C 0.55365 0.94146 0.15088 0.0
C1731 C 0.60038 0.94599 0.14241 0.0
C1732 C 0.68686 0.9533 0.14334 0.0
C1733 C 0.72529 0.95495 0.15257 0.0
C1734 C 0.46153 0.93333 0.15025 0.0
C1735 C 0.73938 0.9574 0.13451 0.0
C1736 C 0.51044 0.88406 0.11816 0.0
C1737 C 0.47271 0.92014 0.11429 0.0
C1738 C 0.55379 0.89232 0.1271 0.0
C1739 C 0.55996 0.93799 0.13247 0.0
C1740 C 0.52438 0.97497 0.1285 0.0
C1741 C 0.48146 0.96567 0.11943 0.0
C1742 C 0.59099 0.85172 0.13092 0.0
C1743 C 0.52945 0.02412 0.13401 0.0
H1744 H 0.55794 0.93835 0.16638 0.0
H1745 H 0.79166 0.95948 0.15321 0.0
H1746 H 0.43112 0.96015 0.14675 0.0
H1747 H 0.44861 0.89927 0.14556 0.0
H1748 H 0.43319 0.93377 0.1576 0.0
H1749 H 0.80463 0.96606 0.13655 0.0
H1750 H 0.73833 0.92417 0.1292 0.0
H1751 H 0.71392 0.98439 0.13065 0.0
H1752 H 0.50528 0.84872 0.11422 0.0
H1753 H 0.45258 0.99374 0.11653 0.0
H1754 H 0.5598 0.8475 0.13787 0.0
H1755 H 0.6574 0.85805 0.13263 0.0
H1756 H 0.58508 0.81875 0.12557 0.0
H1757 H 0.49483 0.02725 0.14104 0.0
H1758 H 0.50362 0.04933 0.1297 0.0
H1759 H 0.59461 0.03347 0.13591 0.0
C1760 C 0.96714 0.89284 0.16033 0.0
C1761 C 0.96036 0.85956 0.16648 0.0
C1762 C 0.01151 0.8842 0.15148 0.0
C1763 C 0.05058 0.84087 0.14851 0.0
C1764 C 0.04335 0.80659 0.15455 0.0
C1765 C 0.99838 0.81633 0.16348 0.0
C1766 C 0.01704 0.92196 0.14535 0.0
C1767 C 0.08346 0.75979 0.15157 0.0
C1768 C 0.09891 0.81772 0.12106 0.0
C1769 C 0.18199 0.83107 0.12094 0.0
C1770 C 0.05702 0.81754 0.12999 0.0
C1771 C 0.09848 0.83231 0.13906 0.0
C1772 C 0.18317 0.8447 0.13896 0.0
C1773 C 0.22417 0.84332 0.12991 0.0
C1774 C 0.96723 0.8035 0.1297 0.0
C1775 C 0.22925 0.8621 0.14841 0.0
H1776 H 0.9381 0.92641 0.16244 0.0
H1777 H 0.99383 0.79038 0.16814 0.0
H1778 H 0.08269 0.9306 0.14425 0.0
H1779 H 0.98985 0.90979 0.13796 0.0
H1780 H 0.98431 0.95409 0.1488 0.0
H1781 H 0.07079 0.7365 0.15692 0.0
H1782 H 0.06084 0.74305 0.1442 0.0
H1783 H 0.15128 0.76393 0.15098 0.0
H1784 H 0.06626 0.80787 0.11413 0.0
H1785 H 0.28829 0.85394 0.12985 0.0
H1786 H 0.92815 0.83445 0.13221 0.0
H1787 H 0.95597 0.77888 0.13479 0.0
H1788 H 0.94714 0.78719 0.12218 0.0
H1789 H 0.20395 0.89627 0.15191 0.0
H1790 H 0.29643 0.86609 0.14716 0.0
H1791 H 0.22071 0.83815 0.1537 0.0
C1792 C 0.49287 0.63014 0.86862 0.0
C1793 C 0.53377 0.66683 0.86532 0.0
C1794 C 0.44823 0.63683 0.87747 0.0
C1795 C 0.44377 0.68148 0.88333 0.0
C1796 C 0.48308 0.71912 0.87999 0.0
C1797 C 0.5274 0.71143 0.87099 0.0
C1798 C 0.40688 0.59563 0.8806 0.0
C1799 C 0.47964 0.76728 0.88603 0.0
C1800 C 0.26954 0.6963 0.90229 0.0
C1801 C 0.31028 0.68804 0.9108 0.0
C1802 C 0.31267 0.69621 0.89342 0.0
C1803 C 0.39897 0.68775 0.893 0.0
C1804 C 0.44066 0.68023 0.90163 0.0
C1805 C 0.39588 0.68042 0.9104 0.0
C1806 C 0.26528 0.70369 0.88441 0.0
C1807 C 0.53232 0.67057 0.90151 0.0
H1808 H 0.49591 0.59552 0.86429 0.0
H1809 H 0.55857 0.73997 0.86853 0.0
H1810 H 0.43387 0.58953 0.88765 0.0
H1811 H 0.34002 0.60254 0.88188 0.0
H1812 H 0.41383 0.56345 0.87503 0.0
H1813 H 0.5098 0.79323 0.88225 0.0
H1814 H 0.41449 0.77777 0.88763 0.0
H1815 H 0.51081 0.76767 0.89321 0.0
H1816 H 0.2034 0.70223 0.90253 0.0
H1817 H 0.4279 0.67414 0.91694 0.0
H1818 H 0.26725 0.67171 0.87874 0.0
H1819 H 0.29434 0.73168 0.88116 0.0
H1820 H 0.19957 0.71283 0.8861 0.0
H1821 H 0.54538 0.63713 0.89658 0.0
H1822 H 0.55673 0.6688 0.90896 0.0
H1823 H 0.5663 0.69786 0.89854 0.0
C1824 C 0.06754 0.5683 0.90745 0.0
C1825 C 0.03272 0.59596 0.91576 0.0
C1826 C 0.02751 0.56289 0.89823 0.0
C1827 C 0.95096 0.58554 0.89737 0.0
C1828 C 0.91412 0.61171 0.9059 0.0
C1829 C 0.95573 0.61684 0.91495 0.0
C1830 C 0.06914 0.53502 0.88931 0.0
C1831 C 0.83256 0.63626 0.90539 0.0
C1832 C 0.8842 0.61872 0.87304 0.0
C1833 C 0.82462 0.58489 0.8697 0.0
C1834 C 0.92742 0.61861 0.8819 0.0
C1835 C 0.91062 0.58383 0.88756 0.0
C1836 C 0.85136 0.54923 0.88413 0.0
C1837 C 0.80915 0.55019 0.87526 0.0
C1838 C 0.98988 0.65629 0.8853 0.0
C1839 C 0.8313 0.51172 0.88994 0.0
H1840 H 0.12806 0.55318 0.90803 0.0
H1841 H 0.92952 0.63886 0.92137 0.0
H1842 H 0.02529 0.50965 0.88519 0.0
H1843 H 0.08883 0.55846 0.88427 0.0
H1844 H 0.12429 0.51616 0.89132 0.0
H1845 H 0.80958 0.65251 0.91279 0.0
H1846 H 0.83957 0.66369 0.90086 0.0
H1847 H 0.78517 0.61166 0.90178 0.0
H1848 H 0.89656 0.64559 0.86877 0.0
H1849 H 0.76331 0.52385 0.87272 0.0
H1850 H 0.05038 0.64081 0.88667 0.0
H1851 H 0.96941 0.67754 0.89236 0.0
H1852 H 0.99873 0.67947 0.87984 0.0
H1853 H 0.88855 0.49334 0.89144 0.0
H1854 H 0.7868 0.486 0.88604 0.0
H1855 H 0.80447 0.52741 0.89717 0.0
C1856 C 0.27444 0.58115 0.37926 0.0
C1857 C 0.31743 0.59048 0.371 0.0
C1858 C 0.31472 0.58165 0.38834 0.0
C1859 C 0.40041 0.59158 0.38922 0.0
C1860 C 0.44438 0.60027 0.38084 0.0
C1861 C 0.40244 0.59966 0.37186 0.0
C1862 C 0.26494 0.57291 0.39707 0.0
C1863 C 0.53545 0.61152 0.38144 0.0
C1864 C 0.48671 0.64882 0.41407 0.0
C1865 C 0.529 0.61245 0.41734 0.0
C1866 C 0.44363 0.6421 0.40511 0.0
C1867 C 0.44219 0.59772 0.39909 0.0
C1868 C 0.48246 0.56031 0.40243 0.0
C1869 C 0.52517 0.56804 0.41155 0.0
C1870 C 0.40125 0.68305 0.40198 0.0
C1871 C 0.48225 0.51244 0.39624 0.0
H1872 H 0.20875 0.57403 0.37867 0.0
H1873 H 0.43623 0.60678 0.36551 0.0
H1874 H 0.29434 0.54529 0.40042 0.0
H1875 H 0.26351 0.60472 0.40279 0.0
H1876 H 0.20031 0.56262 0.39504 0.0
H1877 H 0.56197 0.61432 0.37414 0.0
H1878 H 0.54549 0.64486 0.38653 0.0
H1879 H 0.56979 0.58449 0.38446 0.0
H1880 H 0.48797 0.68327 0.41851 0.0
H1881 H 0.55756 0.53975 0.41397 0.0
H1882 H 0.33521 0.6751 0.40034 0.0
H1883 H 0.43011 0.6904 0.39513 0.0
H1884 H 0.40497 0.71484 0.40771 0.0
H1885 H 0.41795 0.50123 0.39433 0.0
H1886 H 0.51223 0.48653 0.40006 0.0
H1887 H 0.51541 0.51298 0.38923 0.0
C1888 C 0.90212 0.68238 0.40994 0.0
C1889 C 0.81842 0.69469 0.41102 0.0
C1890 C 0.94389 0.68219 0.40099 0.0
C1891 C 0.90096 0.69442 0.39287 0.0
C1892 C 0.8168 0.70784 0.394 0.0
C1893 C 0.77663 0.70796 0.40306 0.0
C1894 C 0.03334 0.66728 0.40013 0.0
C1895 C 0.76829 0.72039 0.38551 0.0
C1896 C 0.03154 0.71589 0.37093 0.0
C1897 C 0.0309 0.67187 0.36496 0.0
C1898 C 0.98779 0.72435 0.37995 0.0
C1899 C 0.9418 0.68813 0.38298 0.0
C1900 C 0.93831 0.64435 0.37674 0.0
C1901 C 0.98279 0.63682 0.36789 0.0
C1902 C 0.99312 0.77147 0.38642 0.0
C1903 C 0.88979 0.60471 0.37956 0.0
H1904 H 0.93495 0.67227 0.41607 0.0
H1905 H 0.71194 0.71748 0.40385 0.0
H1906 H 0.03899 0.63415 0.39485 0.0
H1907 H 0.07097 0.69337 0.39722 0.0
H1908 H 0.05968 0.66235 0.40731 0.0
H1909 H 0.70564 0.73369 0.38778 0.0
H1910 H 0.80178 0.74699 0.38226 0.0
H1911 H 0.76161 0.6894 0.37964 0.0
H1912 H 0.06853 0.74309 0.36875 0.0
H1913 H 0.98068 0.60279 0.36328 0.0
H1914 H 0.02633 0.76865 0.39332 0.0
H1915 H 0.9303 0.78485 0.38852 0.0
H1916 H 0.02597 0.79689 0.38274 0.0
H1917 H 0.91733 0.59461 0.38623 0.0
H1918 H 0.88893 0.57377 0.37359 0.0
H1919 H 0.82512 0.61551 0.38138 0.0
C1920 C 0.50353 0.39996 0.16242 0.0
C1921 C 0.47265 0.36279 0.16654 0.0
C1922 C 0.54827 0.39291 0.15358 0.0
C1923 C 0.56317 0.34735 0.14853 0.0
C1924 C 0.53334 0.30939 0.15263 0.0
C1925 C 0.48857 0.31751 0.16161 0.0
C1926 C 0.5791 0.43458 0.14961 0.0
C1927 C 0.54815 0.26028 0.14749 0.0
C1928 C 0.611 0.34099 0.12119 0.0
C1929 C 0.69765 0.33992 0.12109 0.0
C1930 C 0.56638 0.34108 0.12998 0.0
C1931 C 0.60926 0.34039 0.13892 0.0
C1932 C 0.69682 0.33847 0.1388 0.0
C1933 C 0.73978 0.33814 0.12991 0.0
C1934 C 0.47325 0.34347 0.12974 0.0
C1935 C 0.74546 0.33864 0.14814 0.0
H1936 H 0.49273 0.43527 0.16611 0.0
H1937 H 0.46544 0.28853 0.16469 0.0
H1938 H 0.64705 0.43248 0.14858 0.0
H1939 H 0.55109 0.43518 0.14229 0.0
H1940 H 0.56417 0.46776 0.15456 0.0
H1941 H 0.52339 0.23451 0.15173 0.0
H1942 H 0.51849 0.25461 0.14012 0.0
H1943 H 0.61533 0.25408 0.14631 0.0
H1944 H 0.57792 0.34222 0.11441 0.0
H1945 H 0.80675 0.33743 0.12991 0.0
H1946 H 0.4521 0.37714 0.13401 0.0
H1947 H 0.44616 0.31582 0.13328 0.0
H1948 H 0.44882 0.33987 0.12212 0.0
H1949 H 0.73908 0.37288 0.15302 0.0
H1950 H 0.81222 0.33182 0.14667 0.0
H1951 H 0.72093 0.31224 0.15222 0.0
C1952 C 0.17899 0.40766 0.15396 0.0
C1953 C 0.18862 0.4473 0.16123 0.0
C1954 C 0.13487 0.40929 0.14523 0.0
C1955 C 0.09775 0.45139 0.14379 0.0
C1956 C 0.10761 0.49157 0.15111 0.0
C1957 C 0.1536 0.48916 0.15969 0.0
C1958 C 0.12743 0.36575 0.13757 0.0
C1959 C 0.06792 0.53688 0.14999 0.0
C1960 C 0.03511 0.45896 0.11737 0.0
C1961 C 0.95294 0.44384 0.11714 0.0
C1962 C 0.08238 0.46325 0.12609 0.0
C1963 C 0.04619 0.4527 0.1348 0.0
C1964 C 0.96158 0.44016 0.1347 0.0
C1965 C 0.9165 0.43535 0.12586 0.0
C1966 C 0.17262 0.47578 0.12578 0.0
C1967 C 0.91972 0.42894 0.14376 0.0
H1968 H 0.20632 0.37527 0.15509 0.0
H1969 H 0.16047 0.51989 0.1653 0.0
H1970 H 0.06168 0.35524 0.13666 0.0
H1971 H 0.14956 0.37228 0.13033 0.0
H1972 H 0.16334 0.33649 0.13956 0.0
H1973 H 0.08165 0.56503 0.15631 0.0
H1974 H 0.08977 0.54762 0.14312 0.0
H1975 H 0.99993 0.53248 0.14936 0.0
H1976 H 0.06419 0.46407 0.11057 0.0
H1977 H 0.85351 0.42264 0.12564 0.0
H1978 H 0.21093 0.44532 0.12659 0.0
H1979 H 0.18818 0.50396 0.132 0.0
H1980 H 0.18969 0.4869 0.11876 0.0
H1981 H 0.9432 0.39535 0.14525 0.0
H1982 H 0.85157 0.4263 0.14287 0.0
H1983 H 0.93396 0.45572 0.1503 0.0
C1984 C 0.45609 0.40628 0.62378 0.0
C1985 C 0.47454 0.42777 0.61574 0.0
C1986 C 0.50508 0.4128 0.63229 0.0
C1987 C 0.57604 0.44119 0.63282 0.0
C1988 C 0.59469 0.46392 0.62482 0.0
C1989 C 0.5432 0.45731 0.61639 0.0
C1990 C 0.48128 0.38854 0.64066 0.0
C1991 C 0.67069 0.49374 0.62502 0.0
C1992 C 0.65901 0.48105 0.65881 0.0
C1993 C 0.71543 0.44583 0.6597 0.0
C1994 C 0.6155 0.48113 0.64998 0.0
C1995 C 0.6306 0.44582 0.64172 0.0
C1996 C 0.69121 0.41161 0.64243 0.0
C1997 C 0.73176 0.41156 0.65146 0.0
C1998 C 0.54978 0.51737 0.64969 0.0
C1999 C 0.71074 0.37381 0.63379 0.0
H2000 H 0.40366 0.38339 0.62335 0.0
H2001 H 0.55883 0.47347 0.61016 0.0
H2002 H 0.53306 0.36676 0.64247 0.0
H2003 H 0.46791 0.41461 0.64736 0.0
H2004 H 0.4262 0.36607 0.63891 0.0
H2005 H 0.67532 0.51028 0.6184 0.0
H2006 H 0.67042 0.52119 0.63169 0.0
H2007 H 0.72666 0.47229 0.62542 0.0
H2008 H 0.64575 0.50724 0.66518 0.0
H2009 H 0.77587 0.38442 0.6521 0.0
H2010 H 0.48794 0.50096 0.64954 0.0
H2011 H 0.5555 0.53253 0.64291 0.0
H2012 H 0.55287 0.54576 0.65618 0.0
H2013 H 0.65798 0.3494 0.63241 0.0
H2014 H 0.76689 0.35394 0.63509 0.0
H2015 H 0.71999 0.38869 0.62702 0.0
C2016 C 0.10759 0.3125 0.62049 0.0
C2017 C 0.18851 0.32972 0.62069 0.0
C2018 C 0.06368 0.3116 0.62927 0.0
C2019 C 0.10049 0.32983 0.63848 0.0
C2020 C 0.18261 0.34672 0.6387 0.0
C2021 C 0.22596 0.3456 0.62982 0.0
C2022 C 0.97693 0.29252 0.62869 0.0
C2023 C 0.22337 0.36815 0.64828 0.0
C2024 C 0.96392 0.38601 0.65965 0.0
C2025 C 0.96755 0.35444 0.66621 0.0
C2026 C 0.00461 0.37764 0.65055 0.0
C2027 C 0.05055 0.33636 0.64778 0.0
C2028 C 0.05206 0.30329 0.65415 0.0
C2029 C 0.01037 0.31267 0.6633 0.0
C2030 C 1.00091 0.41409 0.64408 0.0
C2031 C 0.09947 0.25861 0.65139 0.0
H2032 H 0.07846 0.29986 0.61344 0.0
H2033 H 0.28802 0.35919 0.63005 0.0
H2034 H 0.96923 0.26814 0.63391 0.0
H2035 H 0.93214 0.32117 0.63085 0.0
H2036 H 0.96119 0.27427 0.62115 0.0
H2037 H 0.2875 0.37968 0.64722 0.0
H2038 H 0.18704 0.39856 0.65191 0.0
H2039 H 0.2247 0.34295 0.65339 0.0
H2040 H 0.93014 0.41819 0.66172 0.0
H2041 H 0.01354 0.28809 0.66829 0.0
H2042 H 0.97742 0.39882 0.63666 0.0
H2043 H 0.06392 0.42747 0.64313 0.0
H2044 H 0.96052 0.44373 0.64721 0.0
H2045 H 0.08109 0.2407 0.64392 0.0
H2046 H 0.08929 0.23489 0.65671 0.0
H2047 H 0.1665 0.26612 0.65113 0.0
C2048 C 0.25324 0.34416 0.53476 0.0
C2049 C 0.28946 0.31736 0.54112 0.0
C2050 C 0.23145 0.32479 0.52506 0.0
C2051 C 0.24737 0.27739 0.52145 0.0
C2052 C 0.28341 0.24988 0.52782 0.0
C2053 C 0.30333 0.27009 0.53761 0.0
C2054 C 0.1916 0.35526 0.51864 0.0
C2055 C 0.30297 0.19941 0.52421 0.0
C2056 C 0.12934 0.21706 0.49883 0.0
C2057 C 0.1843 0.22106 0.49118 0.0
C2058 C 0.14867 0.23555 0.50869 0.0
C2059 C 0.22634 0.25702 0.51101 0.0
C2060 C 0.28254 0.26061 0.50329 0.0
C2061 C 0.2602 0.24332 0.49345 0.0
C2062 C 0.08564 0.23246 0.51661 0.0
C2063 C 0.36708 0.2817 0.50544 0.0
H2064 H 0.24164 0.38068 0.53738 0.0
H2065 H 0.33181 0.2492 0.54243 0.0
H2066 H 0.23229 0.35786 0.51229 0.0
H2067 H 0.13243 0.33976 0.51561 0.0
H2068 H 0.17923 0.39081 0.52271 0.0
H2069 H 0.32784 0.18229 0.53015 0.0
H2070 H 0.24684 0.18056 0.52112 0.0
H2071 H 0.34918 0.19624 0.51818 0.0
H2072 H 0.07097 0.19939 0.49708 0.0
H2073 H 0.30365 0.24532 0.48756 0.0
H2074 H 0.06764 0.26786 0.52028 0.0
H2075 H 0.11252 0.21483 0.52234 0.0
H2076 H 0.02917 0.21346 0.51362 0.0
H2077 H 0.36121 0.31857 0.50898 0.0
H2078 H 0.40515 0.27968 0.49868 0.0
H2079 H 0.40025 0.26362 0.51069 0.0
C2080 C 0.02349 0.96143 0.53371 0.0
C2081 C 0.9487 0.97472 0.53854 0.0
C2082 C 0.04435 0.97608 0.52484 0.0
C2083 C 0.9892 1.0048 0.52066 0.0
C2084 C 0.91337 0.0181 0.5255 0.0
C2085 C 0.89406 1.00289 0.53435 0.0
C2086 C 0.12571 0.961 0.51995 0.0
C2087 C 0.85272 0.04865 0.52135 0.0
C2088 C 0.07596 0.07864 0.50288 0.0
C2089 C 0.05362 0.053 0.49366 0.0
C2090 C 0.05528 0.06346 0.51169 0.0
C2091 C 0.0113 0.02143 0.51132 0.0
C2092 C 0.98856 0.99538 0.50203 0.0
C2093 C 0.0098 1.01152 0.49332 0.0
C2094 C 0.08039 0.09257 0.5214 0.0
C2095 C 0.94185 0.95038 0.50127 0.0
H2096 H 0.06597 0.93959 0.53688 0.0
H2097 H 0.83604 1.01323 0.53802 0.0
H2098 H 0.11483 0.94213 0.51234 0.0
H2099 H 0.1638 0.99181 0.51938 0.0
H2100 H 0.16136 0.93823 0.52405 0.0
H2101 H 0.79629 0.05573 0.52595 0.0
H2102 H 0.88233 0.08213 0.52077 0.0
H2103 H 0.83416 0.03202 0.5138 0.0
H2104 H 0.1095 0.11085 0.50322 0.0
H2105 H 0.99227 0.99153 0.48623 0.0
H2106 H 0.11948 0.07189 0.5256 0.0
H2107 H 0.02472 0.1034 0.52592 0.0
H2108 H 0.11513 0.12405 0.52043 0.0
H2109 H 0.97797 0.92557 0.50478 0.0
H2110 H 0.92873 0.9342 0.49351 0.0
H2111 H 0.88244 0.9564 0.50531 0.0
C2112 C 0.3021 1.01411 0.74422 0.0
C2113 C 0.30635 0.96581 0.74138 0.0
C2114 C 0.28229 0.0346 0.754 0.0
C2115 C 0.26508 1.00611 0.76105 0.0
C2116 C 0.26891 0.95743 0.7582 0.0
C2117 C 0.28989 0.93803 0.74849 0.0
C2118 C 0.2804 0.0867 0.75681 0.0
C2119 C 0.24998 0.92563 0.76541 0.0
C2120 C 0.2803 0.05178 0.78867 0.0
C2121 C 0.19786 0.0628 0.7911 0.0
C2122 C 0.30343 0.03433 0.77888 0.0
C2123 C 0.24219 0.02676 0.7714 0.0
C2124 C 0.15846 0.03706 0.77392 0.0
C2125 C 0.13758 0.05579 0.78372 0.0
C2126 C 0.39352 0.02481 0.77649 0.0
C2127 C 0.09089 0.02819 0.76627 0.0
H2128 H 0.31498 0.03591 0.73884 0.0
H2129 H 0.29252 0.90064 0.74645 0.0
H2130 H 0.21767 0.09843 0.75936 0.0
H2131 H 0.32349 0.09818 0.76302 0.0
H2132 H 0.29769 0.10401 0.75057 0.0
H2133 H 0.2537 0.88846 0.76195 0.0
H2134 H 0.29402 0.93197 0.77166 0.0
H2135 H 0.18706 0.93287 0.76849 0.0
H2136 H 0.32703 0.05829 0.79439 0.0
H2137 H 0.07402 0.06508 0.78563 0.0
H2138 H 0.41367 0.04467 0.77078 0.0
H2139 H 0.40274 0.98758 0.77341 0.0
H2140 H 0.43379 0.03424 0.78306 0.0
H2141 H 0.10151 0.04934 0.76049 0.0
H2142 H 0.02863 0.03651 0.7695 0.0
H2143 H 0.09181 0.9913 0.76262 0.0
C2144 C 0.97169 0.23345 0.78616 0.0
C2145 C 0.05383 0.23218 0.78936 0.0
C2146 C 0.95151 0.24996 0.77748 0.0
C2147 C 0.01496 0.26548 0.77179 0.0
C2148 C 0.09799 0.26478 0.77506 0.0
C2149 C 0.11637 0.2483 0.78381 0.0
C2150 C 0.86221 0.25025 0.77434 0.0
C2151 C 0.16756 0.28101 0.76924 0.0
C2152 C 0.97137 0.26472 0.74452 0.0
C2153 C 0.95276 0.31136 0.74445 0.0
C2154 C 0.99236 0.24947 0.75333 0.0
C2155 C 0.99454 0.28155 0.76233 0.0
C2156 C 0.97605 0.32877 0.76229 0.0
C2157 C 0.95541 0.34307 0.75336 0.0
C2158 C 0.01183 0.19889 0.75299 0.0
C2159 C 0.97687 0.36416 0.77169 0.0
H2160 H 0.92293 0.22121 0.79043 0.0
H2161 H 0.17998 0.24741 0.78622 0.0
H2162 H 0.84349 0.28581 0.77359 0.0
H2163 H 0.85429 0.22785 0.76702 0.0
H2164 H 0.82001 0.23785 0.77966 0.0
H2165 H 0.22854 0.27916 0.77285 0.0
H2166 H 0.17001 0.25946 0.76177 0.0
H2167 H 0.15638 0.31727 0.76831 0.0
H2168 H 0.9696 0.24 0.73767 0.0
H2169 H 0.94064 0.37913 0.75339 0.0
H2170 H 0.9676 0.18385 0.75769 0.0
H2171 H 0.07458 0.19511 0.75599 0.0
H2172 H 0.00881 0.1785 0.74539 0.0
H2173 H 0.92524 0.35715 0.7765 0.0
H2174 H 0.9703 0.40007 0.77028 0.0
H2175 H 0.03512 0.36175 0.77581 0.0
C2176 C 0.78493 0.72544 0.49401 0.0
C2177 C 0.70225 0.72283 0.491 0.0
C2178 C 0.80641 0.74262 0.50386 0.0
C2179 C 0.74355 0.75778 0.51086 0.0
C2180 C 0.65975 0.75538 0.50779 0.0
C2181 C 0.64008 0.73745 0.4979 0.0
C2182 C 0.89628 0.74394 0.50682 0.0
C2183 C 0.59089 0.77139 0.51497 0.0
C2184 C 0.79139 0.77033 0.53839 0.0
C2185 C 0.80795 0.81792 0.54094 0.0
C2186 C 0.77031 0.75013 0.52863 0.0
C2187 C 0.76574 0.77813 0.52126 0.0
C2188 C 0.78278 0.82603 0.52379 0.0
C2189 C 0.80374 0.84517 0.53353 0.0
C2190 C 0.75378 0.69875 0.5262 0.0
C2191 C 0.77832 0.85734 0.51621 0.0
H2192 H 0.83269 0.71286 0.48868 0.0
H2193 H 0.57601 0.7342 0.49559 0.0
H2194 H 0.91503 0.78004 0.50983 0.0
H2195 H 0.90564 0.72337 0.51274 0.0
H2196 H 0.93749 0.73008 0.50054 0.0
H2197 H 0.52922 0.76823 0.51138 0.0
H2198 H 0.59099 0.75063 0.52094 0.0
H2199 H 0.60077 0.80809 0.51845 0.0
H2200 H 0.79446 0.7489 0.54401 0.0
H2201 H 0.81652 0.88195 0.53531 0.0
H2202 H 0.80325 0.68163 0.52129 0.0
H2203 H 0.69454 0.69187 0.52217 0.0
H2204 H 0.75148 0.68264 0.5329 0.0
H2205 H 0.82229 0.84532 0.51012 0.0
H2206 H 0.7929 0.89396 0.51939 0.0
H2207 H 0.71549 0.8559 0.51296 0.0
C2208 C 0.73052 0.99746 0.24358 0.0
C2209 C 0.80688 0.9759 0.24119 0.0
C2210 C 0.70945 0.01485 0.25345 0.0
C2211 C 0.76719 1.0118 0.26105 0.0
C2212 C 0.8455 0.99141 0.25859 0.0
C2213 C 0.86378 0.97302 0.24872 0.0
C2214 C 0.6247 0.03545 0.25578 0.0
C2215 C 0.9099 0.98875 0.26639 0.0
C2216 C 0.74266 0.09772 0.28494 0.0
C2217 C 0.70805 0.07041 0.29129 0.0
C2218 C 0.76262 0.07896 0.27516 0.0
C2219 C 0.74707 0.03161 0.27151 0.0
C2220 C 0.71297 1.00353 0.27788 0.0
C2221 C 0.6944 0.0232 0.28773 0.0
C2222 C 0.80053 0.10996 0.26872 0.0
C2223 C 0.69456 0.95298 0.27422 0.0
H2224 H 0.68585 0.99877 0.23778 0.0
H2225 H 0.92274 0.95615 0.24686 0.0
H2226 H 0.5926 0.01682 0.26101 0.0
H2227 H 0.63015 0.07221 0.25941 0.0
H2228 H 0.58588 0.03367 0.24908 0.0
H2229 H 0.96966 0.97485 0.26317 0.0
H2230 H 0.92074 0.02362 0.27085 0.0
H2231 H 0.88763 0.96614 0.27147 0.0
H2232 H 0.75444 0.13414 0.28761 0.0
H2233 H 0.66746 1.0019 0.29256 0.0
H2234 H 0.75991 0.11152 0.26231 0.0
H2235 H 0.86073 0.0955 0.26578 0.0
H2236 H 0.81054 0.14582 0.27275 0.0
H2237 H 0.65044 0.94942 0.26797 0.0
H2238 H 0.66788 0.93589 0.28007 0.0
H2239 H 0.75183 0.93437 0.27143 0.0
C2240 C 0.97095 0.73504 0.2859 0.0
C2241 C 0.05345 0.72777 0.28834 0.0
C2242 C 0.95045 0.75184 0.27727 0.0
C2243 C 0.0139 0.761 0.27081 0.0
C2244 C 0.09745 0.75379 0.27326 0.0
C2245 C 0.11624 0.73762 0.28203 0.0
C2246 C 0.86074 0.75965 0.27506 0.0
C2247 C 0.16698 0.76284 0.26657 0.0
C2248 C 0.95513 0.76233 0.24403 0.0
C2249 C 0.94909 0.80992 0.24392 0.0
C2250 C 0.97693 0.74597 0.25268 0.0
C2251 C 0.9927 0.77792 0.26148 0.0
C2252 C 0.98688 0.82604 0.2614 0.0
C2253 C 0.9653 0.84142 0.25264 0.0
C2254 C 0.98273 0.69442 0.25241 0.0
C2255 C 0.00245 0.86134 0.27061 0.0
H2256 H 0.92217 0.72782 0.29079 0.0
H2257 H 0.1801 0.73194 0.28386 0.0
H2258 H 0.85096 0.79617 0.27423 0.0
H2259 H 0.84311 0.73751 0.26798 0.0
H2260 H 0.81893 0.75181 0.28093 0.0
H2261 H 0.22856 0.7556 0.26951 0.0
H2262 H 0.1592 0.74091 0.25919 0.0
H2263 H 0.16532 0.79946 0.26555 0.0
H2264 H 0.94289 0.73779 0.23732 0.0
H2265 H 0.9605 0.87826 0.25263 0.0
H2266 H 0.93744 0.68385 0.25762 0.0
H2267 H 0.04505 0.68532 0.25482 0.0
H2268 H 0.97071 0.67414 0.24494 0.0
H2269 H 0.95474 0.85798 0.27621 0.0
H2270 H 1.00117 0.89737 0.26918 0.0
H2271 H 0.0633 0.85505 0.27383 0.0
C2272 C 0.34893 0.81139 0.03276 0.0
C2273 C 0.29401 0.80642 0.04037 0.0
C2274 C 0.33118 0.79251 0.0229 0.0
C2275 C 0.2552 0.76933 0.02052 0.0
C2276 C 0.19939 0.76415 0.02819 0.0
C2277 C 0.22006 0.78218 0.03805 0.0
C2278 C 0.39378 0.79751 1.01505 0.0
C2279 C 0.11712 0.74044 0.02593 0.0
C2280 C 0.1809 0.75635 0.99384 0.0
C2281 C 0.20032 0.7099 0.99016 0.0
C2282 C 0.19764 0.77616 1.00374 0.0
C2283 C 0.23572 0.74907 1.01004 0.0
C2284 C 0.25675 0.70249 1.0063 0.0
C2285 C 0.23861 0.68354 0.99646 0.0
C2286 C 0.17335 0.82583 1.00749 0.0
C2287 C 0.29933 0.67263 1.01264 0.0
H2288 H 0.40607 0.83032 0.03455 0.0
H2289 H 0.17687 0.7791 0.0439 0.0
H2290 H 0.41028 0.76289 1.01081 0.0
H2291 H 0.36695 0.81781 1.00977 0.0
H2292 H 0.45118 0.815 0.01818 0.0
H2293 H 0.0792 0.74096 0.03266 0.0
H2294 H 0.08194 0.75767 0.0207 0.0
H2295 H 0.12672 0.7039 0.02233 0.0
H2296 H 0.151 0.7769 0.98906 0.0
H2297 H 0.25486 0.64773 0.99371 0.0
H2298 H 0.22866 0.84652 1.01021 0.0
H2299 H 0.13036 0.82756 1.01382 0.0
H2300 H 0.14313 0.84204 1.00173 0.0
H2301 H 0.36065 0.68758 1.01498 0.0
H2302 H 0.30825 0.63643 1.00874 0.0
H2303 H 0.26302 0.67192 0.01943 0.0
C2304 C 0.10348 0.56433 1.00156 0.0
C2305 C 0.05711 0.5498 0.99298 0.0
C2306 C 0.08318 0.54978 1.01047 0.0
C2307 C 0.01653 0.51864 1.01074 0.0
C2308 C 0.97064 0.50314 1.00201 0.0
C2309 C 0.99079 0.51937 0.99328 0.0
C2310 C 0.13235 0.56831 0.01962 0.0
C2311 C 0.90051 0.46915 1.00186 0.0
C2312 C 0.00991 0.44913 0.03173 0.0
C2313 C 0.95117 0.47366 0.03812 0.0
C2314 C 0.03156 0.46322 0.02281 0.0
C2315 C 0.99393 0.50296 0.02019 0.0
C2316 C 0.93449 0.52779 0.02662 0.0
C2317 C 0.9138 0.51283 0.03546 0.0
C2318 C 0.09474 0.43551 0.01618 0.0
C2319 C 0.89275 0.57033 0.02417 0.0
H2320 H 0.15434 0.58818 1.00138 0.0
H2321 H 0.95527 0.50772 0.98663 0.0
H2322 H 0.0905 0.58543 0.02554 0.0
H2323 H 0.16327 0.53935 0.02236 0.0
H2324 H 0.18004 0.59364 0.01828 0.0
H2325 H 0.86746 0.46284 0.99469 0.0
H2326 H 0.92492 0.43566 1.0033 0.0
H2327 H 0.8554 0.48199 1.00777 0.0
H2328 H 0.03903 0.41881 0.03371 0.0
H2329 H 0.86832 0.53203 0.04034 0.0
H2330 H 0.1481 0.45782 1.01513 0.0
H2331 H 0.06746 0.42302 1.0088 0.0
H2332 H 0.11771 0.40521 0.01919 0.0
H2333 H 0.93981 0.59664 0.02322 0.0
H2334 H 0.84844 0.58604 0.02996 0.0
H2335 H 0.85897 0.56128 0.01709 0.0
C2336 C 0.26707 0.53448 0.2887 0.0
C2337 C 0.19703 0.56282 0.29054 0.0
C2338 C 0.29092 0.51548 0.27899 0.0
C2339 C 0.24176 0.5236 0.27094 0.0
C2340 C 0.16948 0.55106 0.27282 0.0
C2341 C 0.14908 0.57108 0.28256 0.0
C2342 C 0.36983 0.48771 0.27732 0.0
C2343 C 0.11326 0.55913 0.26456 0.0
C2344 C 0.32926 0.50766 0.24476 0.0
C2345 C 0.30518 0.46215 0.24087 0.0
C2346 C 0.31049 0.52785 0.25458 0.0
C2347 C 0.26447 0.50245 0.26058 0.0
C2348 C 0.23864 0.45688 0.2566 0.0
C2349 C 0.26026 0.43716 0.24689 0.0
C2350 C 0.34106 0.5761 0.25861 0.0
C2351 C 0.1873 0.42898 0.26256 0.0
H2352 H 0.30501 0.5287 0.29485 0.0
H2353 H 0.09494 0.59307 0.28396 0.0
H2354 H 0.35631 0.45187 0.27355 0.0
H2355 H 0.41161 0.5033 0.27244 0.0
H2356 H 0.40278 0.48609 0.28432 0.0
H2357 H 0.05702 0.57907 0.26731 0.0
H2358 H 0.14668 0.5784 0.25956 0.0
H2359 H 0.094 0.52547 0.26012 0.0
H2360 H 0.36451 0.52707 0.2402 0.0
H2361 H 0.2408 0.40207 0.24395 0.0
H2362 H 0.3789 0.57573 0.2653 0.0
H2363 H 0.28802 0.59958 0.26082 0.0
H2364 H 0.37878 0.59057 0.25315 0.0
H2365 H 0.22266 0.42276 0.26908 0.0
H2366 H 0.16853 0.39495 0.25822 0.0
H2367 H 0.13084 0.44859 0.26532 0.0
C2368 C 0.65834 0.20698 1.00004 0.0
C2369 C 0.69635 0.22196 0.99201 0.0
C2370 C 0.67875 0.22632 1.0098 0.0
C2371 C 0.7397 0.26134 1.01166 0.0
C2372 C 0.77764 0.27723 1.0036 0.0
C2373 C 0.75497 0.25762 0.99386 0.0
C2374 C 0.63496 0.20911 0.01811 0.0
C2375 C 0.84366 0.3141 1.00525 0.0
C2376 C 0.74074 0.34092 0.03671 0.0
C2377 C 0.80014 0.32011 0.04192 0.0
C2378 C 0.72013 0.32196 0.02693 0.0
C2379 C 0.76185 0.28192 0.02207 0.0
C2380 C 0.82236 0.26082 0.02727 0.0
C2381 C 0.83986 0.27975 0.0372 0.0
C2382 C 0.65323 0.3447 0.02183 0.0
C2383 C 0.8696 0.21872 0.0223 0.0
H2384 H 0.61232 0.17978 0.99869 0.0
H2385 H 0.78522 0.26904 0.98771 0.0
H2386 H 0.6042 0.23844 0.02297 0.0
H2387 H 0.5878 0.18234 1.01542 0.0
H2388 H 0.6803 0.1941 0.02269 0.0
H2389 H 0.86715 0.3227 0.99823 0.0
H2390 H 0.81917 0.34616 1.00985 0.0
H2391 H 0.89618 0.30219 1.00933 0.0
H2392 H 0.70971 0.37211 0.04035 0.0
H2393 H 0.88662 0.26395 0.04115 0.0
H2394 H 0.60405 0.3192 0.01916 0.0
H2395 H 0.67904 0.35683 1.01529 0.0
H2396 H 0.62475 0.37472 0.02675 0.0
H2397 H 0.82644 0.1896 0.01986 0.0
H2398 H 0.9167 0.20739 0.02722 0.0
H2399 H 0.90096 0.22636 1.01562 0.0
C2400 C 0.64676 0.57922 0.7824 0.0
C2401 C 0.68809 0.56475 0.79027 0.0
C2402 C 0.6657 0.56019 0.77258 0.0
C2403 C 0.72967 0.52691 0.77053 0.0
C2404 C 0.77204 0.51228 0.77845 0.0
C2405 C 0.74977 0.53084 0.78824 0.0
C2406 C 0.61687 0.57562 0.76441 0.0
C2407 C 0.84222 0.4779 0.77659 0.0
C2408 C 0.73391 0.44516 0.7458 0.0
C2409 C 0.78881 0.46746 0.74033 0.0
C2410 C 0.7131 0.46455 0.75555 0.0
C2411 C 0.75041 0.50656 0.76009 0.0
C2412 C 0.80632 0.52924 0.75461 0.0
C2413 C 0.82379 0.50979 0.74472 0.0
C2414 C 0.65108 0.43999 0.76096 0.0
C2415 C 0.84936 0.57334 0.75928 0.0
H2416 H 0.59904 0.60548 0.78395 0.0
H2417 H 0.78276 0.52018 0.7943 0.0
H2418 H 0.65834 0.59251 0.75973 0.0
H2419 H 0.58895 0.54512 0.75962 0.0
H2420 H 0.56684 0.60036 0.76727 0.0
H2421 H 0.87061 0.4712 0.78353 0.0
H2422 H 0.81994 0.44456 0.77231 0.0
H2423 H 0.89066 0.49101 0.7721 0.0
H2424 H 0.70676 0.41239 0.74242 0.0
H2425 H 0.86725 0.52669 0.74055 0.0
H2426 H 0.60042 0.46406 0.7639 0.0
H2427 H 0.68109 0.42854 0.76734 0.0
H2428 H 0.62384 0.4092 0.75617 0.0
H2429 H 0.80327 0.60084 0.76183 0.0
H2430 H 0.89265 0.58605 0.75411 0.0
H2431 H 0.88445 0.56743 0.76585 0.0
C2432 C 0.6006 0.06896 1.00265 0.0
C2433 C 0.5675 0.04908 0.99347 0.0
C2434 C 0.57727 0.05323 1.01131 0.0
C2435 C 0.5193 0.01669 1.01078 0.0
C2436 C 0.48658 0.99607 1.0015 0.0
C2437 C 0.51086 1.01261 0.99297 0.0
C2438 C 0.6139 0.07615 0.02103 0.0
C2439 C 0.42474 0.95705 1.0006 0.0
C2440 C 0.51252 0.94768 0.03168 0.0
C2441 C 0.44481 0.96757 0.03724 0.0
C2442 C 0.53739 0.96337 0.02309 0.0
C2443 C 0.49341 0.9998 0.01993 0.0
C2444 C 0.42463 0.01985 0.02548 0.0
C2445 C 0.40124 1.00356 0.03408 0.0
C2446 C 0.61086 0.94095 0.01739 0.0
C2447 C 0.37572 0.05851 0.02233 0.0
H2448 H 0.64416 0.09729 1.00311 0.0
H2449 H 0.48511 0.99713 0.98589 0.0
H2450 H 0.63988 0.04974 0.02501 0.0
H2451 H 0.66341 0.10117 0.02009 0.0
H2452 H 0.56474 0.09491 0.02574 0.0
H2453 H 0.41435 0.94037 0.99282 0.0
H2454 H 0.44561 0.93015 1.00477 0.0
H2455 H 0.36488 0.97074 1.0038 0.0
H2456 H 0.54644 0.91983 0.03408 0.0
H2457 H 0.34885 0.01905 0.03833 0.0
H2458 H 0.65884 0.9674 0.01689 0.0
H2459 H 0.59202 0.92589 1.00975 0.0
H2460 H 0.63865 0.91313 0.02084 0.0
H2461 H 0.41673 0.08844 0.02198 0.0
H2462 H 0.32382 0.07036 0.02743 0.0
H2463 H 0.35032 0.04681 1.01483 0.0
C2464 C 0.48617 0.25958 0.28867 0.0
C2465 C 0.55599 0.23164 0.28906 0.0
C2466 C 0.46546 0.27611 0.28 0.0
C2467 C 0.5147 0.26357 0.27143 0.0
C2468 C 0.58534 0.23528 0.27181 0.0
C2469 C 0.60564 0.22016 0.28065 0.0
C2470 C 0.39077 0.30696 0.28001 0.0
C2471 C 0.63865 0.22021 0.26283 0.0
C2472 C 0.41715 0.26686 0.24632 0.0
C2473 C 0.4494 0.30801 0.24403 0.0
C2474 C 0.43761 0.25214 0.2552 0.0
C2475 C 0.49153 0.27924 0.26201 0.0
C2476 C 0.52373 0.32105 0.25976 0.0
C2477 C 0.50243 0.33486 0.25081 0.0
C2478 C 0.40176 0.20739 0.25726 0.0
C2479 C 0.58101 0.35113 0.26681 0.0
H2480 H 0.44804 0.26886 0.29519 0.0
H2481 H 0.6593 0.19826 0.2809 0.0
H2482 H 0.40986 0.341 0.27833 0.0
H2483 H 0.34682 0.29141 0.27418 0.0
H2484 H 0.35806 0.31282 0.28721 0.0
H2485 H 0.69241 0.1991 0.26439 0.0
H2486 H 0.60135 0.19944 0.25688 0.0
H2487 H 0.66168 0.25093 0.26001 0.0
H2488 H 0.37606 0.24591 0.24114 0.0
H2489 H 0.52744 0.36676 0.24911 0.0
H2490 H 0.36579 0.21405 0.26422 0.0
H2491 H 0.45229 0.18308 0.25826 0.0
H2492 H 0.36072 0.19032 0.25124 0.0
H2493 H 0.55033 0.3616 0.27406 0.0
H2494 H 0.60007 0.38284 0.26405 0.0
H2495 H 0.63721 0.33128 0.26804 0.0
C2496 C 0.47976 0.7512 0.78798 0.0
C2497 C 0.55993 0.73612 0.78963 0.0
C2498 C 0.45959 0.76737 0.77926 0.0
C2499 C 0.52084 0.76797 0.77194 0.0
C2500 C 0.60219 0.75319 0.77363 0.0
C2501 C 0.62086 0.73773 0.78248 0.0
C2502 C 0.37233 0.7831 0.77783 0.0
C2503 C 0.66919 0.75291 0.76602 0.0
C2504 C 0.45119 0.76459 0.74539 0.0
C2505 C 0.45896 0.81111 0.74437 0.0
C2506 C 0.47115 0.75012 0.75429 0.0
C2507 C 0.49934 0.78297 0.76243 0.0
C2508 C 0.50684 0.83007 0.76145 0.0
C2509 C 0.48671 0.84354 0.75244 0.0
C2510 C 0.4619 0.69963 0.755 0.0
C2511 C 0.53614 0.86626 0.76994 0.0
H2512 H 0.4325 0.75019 0.7935 0.0
H2513 H 0.68278 0.72582 0.78369 0.0
H2514 H 0.37252 0.81882 0.77623 0.0
H2515 H 0.34404 0.76038 0.77139 0.0
H2516 H 0.33295 0.78245 0.78439 0.0
H2517 H 0.72972 0.7415 0.76854 0.0
H2518 H 0.65165 0.72933 0.75911 0.0
H2519 H 0.67637 0.78805 0.76422 0.0
H2520 H 0.4296 0.73935 0.73919 0.0
H2521 H 0.49228 0.87959 0.75173 0.0
H2522 H 0.41761 0.69592 0.76094 0.0
H2523 H 0.52201 0.68548 0.75695 0.0
H2524 H 0.4397 0.67841 0.748 0.0
H2525 H 0.49487 0.86701 0.77638 0.0
H2526 H 0.53784 0.90146 0.76804 0.0
H2527 H 0.59897 0.85732 0.77222 0.0
C2528 C 0.52758 0.47354 0.53441 0.0
C2529 C 0.44802 0.47922 0.53848 0.0
C2530 C 0.54744 0.48978 0.52571 0.0
C2531 C 0.48628 0.51228 0.52093 0.0
C2532 C 0.40595 0.51845 0.52505 0.0
C2533 C 0.38779 0.50187 0.53378 0.0
C2534 C 0.63389 0.48264 0.52161 0.0
C2535 C 0.33916 0.54254 0.52023 0.0
C2536 C 0.55981 0.58941 0.50315 0.0
C2537 C 0.55062 0.56018 0.49398 0.0
C2538 C 0.53812 0.57455 0.51196 0.0
C2539 C 0.50657 0.52925 0.51161 0.0
C2540 C 0.49635 0.49976 0.50235 0.0
C2541 C 0.5186 0.51555 0.49366 0.0
C2542 C 0.55067 0.60711 0.52164 0.0
C2543 C 0.46265 0.45132 0.50163 0.0
H2544 H 0.57451 0.45615 0.53802 0.0
H2545 H 0.32622 0.50641 0.5369 0.0
H2546 H 0.63186 0.4621 0.51404 0.0
H2547 H 0.66217 0.51656 0.52113 0.0
H2548 H 0.67431 0.46446 0.52621 0.0
H2549 H 0.28003 0.54483 0.52438 0.0
H2550 H 0.35939 0.57808 0.51967 0.0
H2551 H 0.32802 0.52372 0.51263 0.0
H2552 H 0.58476 0.62392 0.50347 0.0
H2553 H 0.51114 0.49285 0.48659 0.0
H2554 H 0.60335 0.59483 0.52563 0.0
H2555 H 0.49528 0.60773 0.52639 0.0
H2556 H 0.56395 0.64303 0.52059 0.0
H2557 H 0.50417 0.43069 0.50557 0.0
H2558 H 0.45624 0.4332 0.49387 0.0
H2559 H 0.40129 0.45246 0.50525 0.0
loop_
_geom_bond_atom_site_label_1
_geom_bond_atom_site_label_2
_geom_bond_distance
_geom_bond_site_symmetry_2
_ccdc_geom_bond_type
Co0 H3 2.400 . S
Co0 O4 2.009 . S
Co0 O12 2.115 . S
Co0 O13 2.315 . S
Co0 O24 2.053 . S
Co0 O27 2.094 . S
Co0 O30 2.122 . S
Co1 O4 2.126 . S
Co1 H5 2.388 . S
Co1 O6 2.053 . S
Co1 O9 2.047 . S
Co1 O15 2.113 . S
Co1 O26 2.063 . S
Co2 H3 2.388 . S
Co2 O4 2.053 . S
Co2 O6 2.126 . S
Co2 O11 2.063 . S
Co2 O25 2.047 . S
Co2 O31 2.113 . S
H3 Co0 2.400 . S
H3 Co2 2.388 . S
H3 O4 0.760 . S
O4 Co0 2.009 . S
O4 Co1 2.126 . S
O4 Co2 2.053 . S
O4 H3 0.760 . S
H5 Co1 2.388 . S
H5 O6 0.760 . S
H5 Co7 2.400 . S
O6 Co1 2.053 . S
O6 Co2 2.126 . S
O6 H5 0.760 . S
O6 Co7 2.009 . S
Co7 H5 2.400 . S
Co7 O6 2.009 . S
Co7 O8 2.053 . S
Co7 O10 2.094 . S
Co7 O14 2.122 . S
Co7 O28 2.115 . S
Co7 O29 2.315 . S
O8 Co7 2.053 . S
O8 C20 1.259 . S
O9 Co1 2.047 . S
O9 C20 1.257 . S
O10 Co7 2.094 . S
O10 C21 1.253 . S
O11 Co2 2.063 . S
O11 C21 1.268 . S
O12 Co0 2.115 . S
O12 C22 1.281 . S
O13 Co0 2.315 . S
O13 C22 1.252 . S
O14 Co7 2.122 . S
O14 C23 1.272 . S
O15 Co1 2.113 . S
O15 C23 1.245 . S
C16 O24 1.259 . S
C16 O25 1.257 . S
C17 O26 1.268 . S
C17 O27 1.253 . S
C18 O28 1.281 . S
C18 O29 1.252 . S
C19 O30 1.272 . S
C19 O31 1.245 . S
C20 O8 1.259 . S
C20 O9 1.257 . S
C21 O10 1.253 . S
C21 O11 1.268 . S
C22 O12 1.281 . S
C22 O13 1.252 . S
C23 O14 1.272 . S
C23 O15 1.245 . S
O24 Co0 2.053 . S
O24 C16 1.259 . S
O25 Co2 2.047 . S
O25 C16 1.257 . S
O26 Co1 2.063 . S
O26 C17 1.268 . S
O27 Co0 2.094 . S
O27 C17 1.253 . S
O28 Co7 2.115 . S
O28 C18 1.281 . S
O29 Co7 2.315 . S
O29 C18 1.252 . S
O30 Co0 2.122 . S
O30 C19 1.272 . S
O31 Co2 2.113 . S
O31 C19 1.245 . S
Co32 H35 2.400 . S
Co32 O36 2.009 . S
Co32 O44 2.115 . S
Co32 O45 2.315 . S
Co32 O56 2.053 . S
Co32 O59 2.094 . S
Co32 O62 2.122 . S
Co33 O36 2.126 . S
Co33 H37 2.388 . S
Co33 O38 2.053 . S
Co33 O41 2.047 . S
Co33 O47 2.113 . S
Co33 O58 2.063 . S
Co34 H35 2.388 . S
Co34 O36 2.053 . S
Co34 O38 2.126 . S
Co34 O43 2.063 . S
Co34 O57 2.047 . S
Co34 O63 2.113 . S
H35 Co32 2.400 . S
H35 Co34 2.388 . S
H35 O36 0.760 . S
O36 Co32 2.009 . S
O36 Co33 2.126 . S
O36 Co34 2.053 . S
O36 H35 0.760 . S
H37 Co33 2.388 . S
H37 O38 0.760 . S
H37 Co39 2.400 . S
O38 Co33 2.053 . S
O38 Co34 2.126 . S
O38 H37 0.760 . S
O38 Co39 2.009 . S
Co39 H37 2.400 . S
Co39 O38 2.009 . S
Co39 O40 2.053 . S
Co39 O42 2.094 . S
Co39 O46 2.122 . S
Co39 O60 2.115 . S
Co39 O61 2.315 . S
O40 Co39 2.053 . S
O40 C52 1.259 . S
O41 Co33 2.047 . S
O41 C52 1.257 . S
O42 Co39 2.094 . S
O42 C53 1.253 . S
O43 Co34 2.063 . S
O43 C53 1.268 . S
O44 Co32 2.115 . S
O44 C54 1.281 . S
O45 Co32 2.315 . S
O45 C54 1.252 . S
O46 Co39 2.122 . S
O46 C55 1.272 . S
O47 Co33 2.113 . S
O47 C55 1.245 . S
C48 O56 1.259 . S
C48 O57 1.257 . S
C49 O58 1.268 . S
C49 O59 1.253 . S
C50 O60 1.281 . S
C50 O61 1.252 . S
C51 O62 1.272 . S
C51 O63 1.245 . S
C52 O40 1.259 . S
C52 O41 1.257 . S
C53 O42 1.253 . S
C53 O43 1.268 . S
C54 O44 1.281 . S
C54 O45 1.252 . S
C55 O46 1.272 . S
C55 O47 1.245 . S
O56 Co32 2.053 . S
O56 C48 1.259 . S
O57 Co34 2.047 . S
O57 C48 1.257 . S
O58 Co33 2.063 . S
O58 C49 1.268 . S
O59 Co32 2.094 . S
O59 C49 1.253 . S
O60 Co39 2.115 . S
O60 C50 1.281 . S
O61 Co39 2.315 . S
O61 C50 1.252 . S
O62 Co32 2.122 . S
O62 C51 1.272 . S
O63 Co34 2.113 . S
O63 C51 1.245 . S
Co64 H67 2.400 . S
Co64 O68 2.009 . S
Co64 O76 2.115 . S
Co64 O77 2.315 . S
Co64 O88 2.053 . S
Co64 O91 2.094 . S
Co64 O94 2.122 . S
Co65 O68 2.126 . S
Co65 H69 2.388 . S
Co65 O70 2.053 . S
Co65 O73 2.047 . S
Co65 O79 2.113 . S
Co65 O90 2.063 . S
Co66 H67 2.388 . S
Co66 O68 2.053 . S
Co66 O70 2.126 . S
Co66 O75 2.063 . S
Co66 O89 2.047 . S
Co66 O95 2.113 . S
H67 Co64 2.400 . S
H67 Co66 2.388 . S
H67 O68 0.760 . S
O68 Co64 2.009 . S
O68 Co65 2.126 . S
O68 Co66 2.053 . S
O68 H67 0.760 . S
H69 Co65 2.388 . S
H69 O70 0.760 . S
H69 Co71 2.400 . S
O70 Co65 2.053 . S
O70 Co66 2.126 . S
O70 H69 0.760 . S
O70 Co71 2.009 . S
Co71 H69 2.400 . S
Co71 O70 2.009 . S
Co71 O72 2.053 . S
Co71 O74 2.094 . S
Co71 O78 2.122 . S
Co71 O92 2.115 . S
Co71 O93 2.315 . S
O72 Co71 2.053 . S
O72 C84 1.259 . S
O73 Co65 2.047 . S
O73 C84 1.257 . S
O74 Co71 2.094 . S
O74 C85 1.253 . S
O75 Co66 2.063 . S
O75 C85 1.268 . S
O76 Co64 2.115 . S
O76 C86 1.281 . S
O77 Co64 2.315 . S
O77 C86 1.252 . S
O78 Co71 2.122 . S
O78 C87 1.272 . S
O79 Co65 2.113 . S
O79 C87 1.245 . S
C80 O88 1.259 . S
C80 O89 1.257 . S
C81 O90 1.268 . S
C81 O91 1.253 . S
C82 O92 1.281 . S
C82 O93 1.252 . S
C83 O94 1.272 . S
C83 O95 1.245 . S
C84 O72 1.259 . S
C84 O73 1.257 . S
C85 O74 1.253 . S
C85 O75 1.268 . S
C86 O76 1.281 . S
C86 O77 1.252 . S
C87 O78 1.272 . S
C87 O79 1.245 . S
O88 Co64 2.053 . S
O88 C80 1.259 . S
O89 Co66 2.047 . S
O89 C80 1.257 . S
O90 Co65 2.063 . S
O90 C81 1.268 . S
O91 Co64 2.094 . S
O91 C81 1.253 . S
O92 Co71 2.115 . S
O92 C82 1.281 . S
O93 Co71 2.315 . S
O93 C82 1.252 . S
O94 Co64 2.122 . S
O94 C83 1.272 . S
O95 Co66 2.113 . S
O95 C83 1.245 . S
Co96 H99 2.400 . S
Co96 O100 2.009 . S
Co96 O108 2.115 . S
Co96 O109 2.315 . S
Co96 O120 2.053 . S
Co96 O123 2.094 . S
Co96 O126 2.122 . S
Co97 O100 2.126 . S
Co97 H101 2.388 . S
Co97 O102 2.053 . S
Co97 O105 2.047 . S
Co97 O111 2.113 . S
Co97 O122 2.063 . S
Co98 H99 2.388 . S
Co98 O100 2.053 . S
Co98 O102 2.126 . S
Co98 O107 2.063 . S
Co98 O121 2.047 . S
Co98 O127 2.113 . S
H99 Co96 2.400 . S
H99 Co98 2.388 . S
H99 O100 0.760 . S
O100 Co96 2.009 . S
O100 Co97 2.126 . S
O100 Co98 2.053 . S
O100 H99 0.760 . S
H101 Co97 2.388 . S
H101 O102 0.760 . S
H101 Co103 2.400 . S
O102 Co97 2.053 . S
O102 Co98 2.126 . S
O102 H101 0.760 . S
O102 Co103 2.009 . S
Co103 H101 2.400 . S
Co103 O102 2.009 . S
Co103 O104 2.053 . S
Co103 O106 2.094 . S
Co103 O110 2.122 . S
Co103 O124 2.115 . S
Co103 O125 2.315 . S
O104 Co103 2.053 . S
O104 C116 1.259 . S
O105 Co97 2.047 . S
O105 C116 1.257 . S
O106 Co103 2.094 . S
O106 C117 1.253 . S
O107 Co98 2.063 . S
O107 C117 1.268 . S
O108 Co96 2.115 . S
O108 C118 1.281 . S
O109 Co96 2.315 . S
O109 C118 1.252 . S
O110 Co103 2.122 . S
O110 C119 1.272 . S
O111 Co97 2.113 . S
O111 C119 1.245 . S
C112 O120 1.259 . S
C112 O121 1.257 . S
C113 O122 1.268 . S
C113 O123 1.253 . S
C114 O124 1.281 . S
C114 O125 1.252 . S
C115 O126 1.272 . S
C115 O127 1.245 . S
C116 O104 1.259 . S
C116 O105 1.257 . S
C117 O106 1.253 . S
C117 O107 1.268 . S
C118 O108 1.281 . S
C118 O109 1.252 . S
C119 O110 1.272 . S
C119 O111 1.245 . S
O120 Co96 2.053 . S
O120 C112 1.259 . S
O121 Co98 2.047 . S
O121 C112 1.257 . S
O122 Co97 2.063 . S
O122 C113 1.268 . S
O123 Co96 2.094 . S
O123 C113 1.253 . S
O124 Co103 2.115 . S
O124 C114 1.281 . S
O125 Co103 2.315 . S
O125 C114 1.252 . S
O126 Co96 2.122 . S
O126 C115 1.272 . S
O127 Co98 2.113 . S
O127 C115 1.245 . S
Co128 H131 2.400 . S
Co128 O132 2.009 . S
Co128 O140 2.115 . S
Co128 O141 2.315 . S
Co128 O152 2.053 . S
Co128 O155 2.094 . S
Co128 O158 2.122 . S
Co129 O132 2.126 . S
Co129 H133 2.388 . S
Co129 O134 2.053 . S
Co129 O137 2.047 . S
Co129 O143 2.113 . S
Co129 O154 2.063 . S
Co130 H131 2.388 . S
Co130 O132 2.053 . S
Co130 O134 2.126 . S
Co130 O139 2.063 . S
Co130 O153 2.047 . S
Co130 O159 2.113 . S
H131 Co128 2.400 . S
H131 Co130 2.388 . S
H131 O132 0.760 . S
O132 Co128 2.009 . S
O132 Co129 2.126 . S
O132 Co130 2.053 . S
O132 H131 0.760 . S
H133 Co129 2.388 . S
H133 O134 0.760 . S
H133 Co135 2.400 . S
O134 Co129 2.053 . S
O134 Co130 2.126 . S
O134 H133 0.760 . S
O134 Co135 2.009 . S
Co135 H133 2.400 . S
Co135 O134 2.009 . S
Co135 O136 2.053 . S
Co135 O138 2.094 . S
Co135 O142 2.122 . S
Co135 O156 2.115 . S
Co135 O157 2.315 . S
O136 Co135 2.053 . S
O136 C148 1.259 . S
O137 Co129 2.047 . S
O137 C148 1.257 . S
O138 Co135 2.094 . S
O138 C149 1.253 . S
O139 Co130 2.063 . S
O139 C149 1.268 . S
O140 Co128 2.115 . S
O140 C150 1.281 . S
O141 Co128 2.315 . S
O141 C150 1.252 . S
O142 Co135 2.122 . S
O142 C151 1.272 . S
O143 Co129 2.113 . S
O143 C151 1.245 . S
C144 O152 1.259 . S
C144 O153 1.257 . S
C145 O154 1.268 . S
C145 O155 1.253 . S
C146 O156 1.281 . S
C146 O157 1.252 . S
C147 O158 1.272 . S
C147 O159 1.245 . S
C148 O136 1.259 . S
C148 O137 1.257 . S
C149 O138 1.253 . S
C149 O139 1.268 . S
C150 O140 1.281 . S
C150 O141 1.252 . S
C151 O142 1.272 . S
C151 O143 1.245 . S
O152 Co128 2.053 . S
O152 C144 1.259 . S
O153 Co130 2.047 . S
O153 C144 1.257 . S
O154 Co129 2.063 . S
O154 C145 1.268 . S
O155 Co128 2.094 . S
O155 C145 1.253 . S
O156 Co135 2.115 . S
O156 C146 1.281 . S
O157 Co135 2.315 . S
O157 C146 1.252 . S
O158 Co128 2.122 . S
O158 C147 1.272 . S
O159 Co130 2.113 . S
O159 C147 1.245 . S
Co160 H163 2.400 . S
Co160 O164 2.009 . S
Co160 O172 2.115 . S
Co160 O173 2.315 . S
Co160 O184 2.053 . S
Co160 O187 2.094 . S
Co160 O190 2.122 . S
Co161 O164 2.126 . S
Co161 H165 2.388 . S
Co161 O166 2.053 . S
Co161 O169 2.047 . S
Co161 O175 2.113 . S
Co161 O186 2.063 . S
Co162 H163 2.388 . S
Co162 O164 2.053 . S
Co162 O166 2.126 . S
Co162 O171 2.063 . S
Co162 O185 2.047 . S
Co162 O191 2.113 . S
H163 Co160 2.400 . S
H163 Co162 2.388 . S
H163 O164 0.760 . S
O164 Co160 2.009 . S
O164 Co161 2.126 . S
O164 Co162 2.053 . S
O164 H163 0.760 . S
H165 Co161 2.388 . S
H165 O166 0.760 . S
H165 Co167 2.400 . S
O166 Co161 2.053 . S
O166 Co162 2.126 . S
O166 H165 0.760 . S
O166 Co167 2.009 . S
Co167 H165 2.400 . S
Co167 O166 2.009 . S
Co167 O168 2.053 . S
Co167 O170 2.094 . S
Co167 O174 2.122 . S
Co167 O188 2.115 . S
Co167 O189 2.315 . S
O168 Co167 2.053 . S
O168 C180 1.259 . S
O169 Co161 2.047 . S
O169 C180 1.257 . S
O170 Co167 2.094 . S
O170 C181 1.253 . S
O171 Co162 2.063 . S
O171 C181 1.268 . S
O172 Co160 2.115 . S
O172 C182 1.281 . S
O173 Co160 2.315 . S
O173 C182 1.252 . S
O174 Co167 2.122 . S
O174 C183 1.272 . S
O175 Co161 2.113 . S
O175 C183 1.245 . S
C176 O184 1.259 . S
C176 O185 1.257 . S
C177 O186 1.268 . S
C177 O187 1.253 . S
C178 O188 1.281 . S
C178 O189 1.252 . S
C179 O190 1.272 . S
C179 O191 1.245 . S
C180 O168 1.259 . S
C180 O169 1.257 . S
C181 O170 1.253 . S
C181 O171 1.268 . S
C182 O172 1.281 . S
C182 O173 1.252 . S
C183 O174 1.272 . S
C183 O175 1.245 . S
O184 Co160 2.053 . S
O184 C176 1.259 . S
O185 Co162 2.047 . S
O185 C176 1.257 . S
O186 Co161 2.063 . S
O186 C177 1.268 . S
O187 Co160 2.094 . S
O187 C177 1.253 . S
O188 Co167 2.115 . S
O188 C178 1.281 . S
O189 Co167 2.315 . S
O189 C178 1.252 . S
O190 Co160 2.122 . S
O190 C179 1.272 . S
O191 Co162 2.113 . S
O191 C179 1.245 . S
Co192 H195 2.400 . S
Co192 O196 2.009 . S
Co192 O204 2.115 . S
Co192 O205 2.315 . S
Co192 O216 2.053 . S
Co192 O219 2.094 . S
Co192 O222 2.122 . S
Co193 O196 2.126 . S
Co193 H197 2.388 . S
Co193 O198 2.053 . S
Co193 O201 2.047 . S
Co193 O207 2.113 . S
Co193 O218 2.063 . S
Co194 H195 2.388 . S
Co194 O196 2.053 . S
Co194 O198 2.126 . S
Co194 O203 2.063 . S
Co194 O217 2.047 . S
Co194 O223 2.113 . S
H195 Co192 2.400 . S
H195 Co194 2.388 . S
H195 O196 0.760 . S
O196 Co192 2.009 . S
O196 Co193 2.126 . S
O196 Co194 2.053 . S
O196 H195 0.760 . S
H197 Co193 2.388 . S
H197 O198 0.760 . S
H197 Co199 2.400 . S
O198 Co193 2.053 . S
O198 Co194 2.126 . S
O198 H197 0.760 . S
O198 Co199 2.009 . S
Co199 H197 2.400 . S
Co199 O198 2.009 . S
Co199 O200 2.053 . S
Co199 O202 2.094 . S
Co199 O206 2.122 . S
Co199 O220 2.115 . S
Co199 O221 2.315 . S
O200 Co199 2.053 . S
O200 C212 1.259 . S
O201 Co193 2.047 . S
O201 C212 1.257 . S
O202 Co199 2.094 . S
O202 C213 1.253 . S
O203 Co194 2.063 . S
O203 C213 1.268 . S
O204 Co192 2.115 . S
O204 C214 1.281 . S
O205 Co192 2.315 . S
O205 C214 1.252 . S
O206 Co199 2.122 . S
O206 C215 1.272 . S
O207 Co193 2.113 . S
O207 C215 1.245 . S
C208 O216 1.259 . S
C208 O217 1.257 . S
C209 O218 1.268 . S
C209 O219 1.253 . S
C210 O220 1.281 . S
C210 O221 1.252 . S
C211 O222 1.272 . S
C211 O223 1.245 . S
C212 O200 1.259 . S
C212 O201 1.257 . S
C213 O202 1.253 . S
C213 O203 1.268 . S
C214 O204 1.281 . S
C214 O205 1.252 . S
C215 O206 1.272 . S
C215 O207 1.245 . S
O216 Co192 2.053 . S
O216 C208 1.259 . S
O217 Co194 2.047 . S
O217 C208 1.257 . S
O218 Co193 2.063 . S
O218 C209 1.268 . S
O219 Co192 2.094 . S
O219 C209 1.253 . S
O220 Co199 2.115 . S
O220 C210 1.281 . S
O221 Co199 2.315 . S
O221 C210 1.252 . S
O222 Co192 2.122 . S
O222 C211 1.272 . S
O223 Co194 2.113 . S
O223 C211 1.245 . S
Co224 H227 2.400 . S
Co224 O228 2.009 . S
Co224 O236 2.115 . S
Co224 O237 2.315 . S
Co224 O248 2.053 . S
Co224 O251 2.094 . S
Co224 O254 2.122 . S
Co225 O228 2.126 . S
Co225 H229 2.388 . S
Co225 O230 2.053 . S
Co225 O233 2.047 . S
Co225 O239 2.113 . S
Co225 O250 2.063 . S
Co226 H227 2.388 . S
Co226 O228 2.053 . S
Co226 O230 2.126 . S
Co226 O235 2.063 . S
Co226 O249 2.047 . S
Co226 O255 2.113 . S
H227 Co224 2.400 . S
H227 Co226 2.388 . S
H227 O228 0.760 . S
O228 Co224 2.009 . S
O228 Co225 2.126 . S
O228 Co226 2.053 . S
O228 H227 0.760 . S
H229 Co225 2.388 . S
H229 O230 0.760 . S
H229 Co231 2.400 . S
O230 Co225 2.053 . S
O230 Co226 2.126 . S
O230 H229 0.760 . S
O230 Co231 2.009 . S
Co231 H229 2.400 . S
Co231 O230 2.009 . S
Co231 O232 2.053 . S
Co231 O234 2.094 . S
Co231 O238 2.122 . S
Co231 O252 2.115 . S
Co231 O253 2.315 . S
O232 Co231 2.053 . S
O232 C244 1.259 . S
O233 Co225 2.047 . S
O233 C244 1.257 . S
O234 Co231 2.094 . S
O234 C245 1.253 . S
O235 Co226 2.063 . S
O235 C245 1.268 . S
O236 Co224 2.115 . S
O236 C246 1.281 . S
O237 Co224 2.315 . S
O237 C246 1.252 . S
O238 Co231 2.122 . S
O238 C247 1.272 . S
O239 Co225 2.113 . S
O239 C247 1.245 . S
C240 O248 1.259 . S
C240 O249 1.257 . S
C241 O250 1.268 . S
C241 O251 1.253 . S
C242 O252 1.281 . S
C242 O253 1.252 . S
C243 O254 1.272 . S
C243 O255 1.245 . S
C244 O232 1.259 . S
C244 O233 1.257 . S
C245 O234 1.253 . S
C245 O235 1.268 . S
C246 O236 1.281 . S
C246 O237 1.252 . S
C247 O238 1.272 . S
C247 O239 1.245 . S
O248 Co224 2.053 . S
O248 C240 1.259 . S
O249 Co226 2.047 . S
O249 C240 1.257 . S
O250 Co225 2.063 . S
O250 C241 1.268 . S
O251 Co224 2.094 . S
O251 C241 1.253 . S
O252 Co231 2.115 . S
O252 C242 1.281 . S
O253 Co231 2.315 . S
O253 C242 1.252 . S
O254 Co224 2.122 . S
O254 C243 1.272 . S
O255 Co226 2.113 . S
O255 C243 1.245 . S
Co256 H259 2.400 . S
Co256 O260 2.009 . S
Co256 O268 2.115 . S
Co256 O269 2.315 . S
Co256 O280 2.053 . S
Co256 O283 2.094 . S
Co256 O286 2.122 . S
Co257 O260 2.126 . S
Co257 H261 2.388 . S
Co257 O262 2.053 . S
Co257 O265 2.047 . S
Co257 O271 2.113 . S
Co257 O282 2.063 . S
Co258 H259 2.388 . S
Co258 O260 2.053 . S
Co258 O262 2.126 . S
Co258 O267 2.063 . S
Co258 O281 2.047 . S
Co258 O287 2.113 . S
H259 Co256 2.400 . S
H259 Co258 2.388 . S
H259 O260 0.760 . S
O260 Co256 2.009 . S
O260 Co257 2.126 . S
O260 Co258 2.053 . S
O260 H259 0.760 . S
H261 Co257 2.388 . S
H261 O262 0.760 . S
H261 Co263 2.400 . S
O262 Co257 2.053 . S
O262 Co258 2.126 . S
O262 H261 0.760 . S
O262 Co263 2.009 . S
Co263 H261 2.400 . S
Co263 O262 2.009 . S
Co263 O264 2.053 . S
Co263 O266 2.094 . S
Co263 O270 2.122 . S
Co263 O284 2.115 . S
Co263 O285 2.315 . S
O264 Co263 2.053 . S
O264 C276 1.259 . S
O265 Co257 2.047 . S
O265 C276 1.257 . S
O266 Co263 2.094 . S
O266 C277 1.253 . S
O267 Co258 2.063 . S
O267 C277 1.268 . S
O268 Co256 2.115 . S
O268 C278 1.281 . S
O269 Co256 2.315 . S
O269 C278 1.252 . S
O270 Co263 2.122 . S
O270 C279 1.272 . S
O271 Co257 2.113 . S
O271 C279 1.245 . S
C272 O280 1.259 . S
C272 O281 1.257 . S
C273 O282 1.268 . S
C273 O283 1.253 . S
C274 O284 1.281 . S
C274 O285 1.252 . S
C275 O286 1.272 . S
C275 O287 1.245 . S
C276 O264 1.259 . S
C276 O265 1.257 . S
C277 O266 1.253 . S
C277 O267 1.268 . S
C278 O268 1.281 . S
C278 O269 1.252 . S
C279 O270 1.272 . S
C279 O271 1.245 . S
O280 Co256 2.053 . S
O280 C272 1.259 . S
O281 Co258 2.047 . S
O281 C272 1.257 . S
O282 Co257 2.063 . S
O282 C273 1.268 . S
O283 Co256 2.094 . S
O283 C273 1.253 . S
O284 Co263 2.115 . S
O284 C274 1.281 . S
O285 Co263 2.315 . S
O285 C274 1.252 . S
O286 Co256 2.122 . S
O286 C275 1.272 . S
O287 Co258 2.113 . S
O287 C275 1.245 . S
Co288 H291 2.400 . S
Co288 O292 2.009 . S
Co288 O300 2.115 . S
Co288 O301 2.315 . S
Co288 O312 2.053 . S
Co288 O315 2.094 . S
Co288 O318 2.122 . S
Co289 O292 2.126 . S
Co289 H293 2.388 . S
Co289 O294 2.053 . S
Co289 O297 2.047 . S
Co289 O303 2.113 . S
Co289 O314 2.063 . S
Co290 H291 2.388 . S
Co290 O292 2.053 . S
Co290 O294 2.126 . S
Co290 O299 2.063 . S
Co290 O313 2.047 . S
Co290 O319 2.113 . S
H291 Co288 2.400 . S
H291 Co290 2.388 . S
H291 O292 0.760 . S
O292 Co288 2.009 . S
O292 Co289 2.126 . S
O292 Co290 2.053 . S
O292 H291 0.760 . S
H293 Co289 2.388 . S
H293 O294 0.760 . S
H293 Co295 2.400 . S
O294 Co289 2.053 . S
O294 Co290 2.126 . S
O294 H293 0.760 . S
O294 Co295 2.009 . S
Co295 H293 2.400 . S
Co295 O294 2.009 . S
Co295 O296 2.053 . S
Co295 O298 2.094 . S
Co295 O302 2.122 . S
Co295 O316 2.115 . S
Co295 O317 2.315 . S
O296 Co295 2.053 . S
O296 C308 1.259 . S
O297 Co289 2.047 . S
O297 C308 1.257 . S
O298 Co295 2.094 . S
O298 C309 1.253 . S
O299 Co290 2.063 . S
O299 C309 1.268 . S
O300 Co288 2.115 . S
O300 C310 1.281 . S
O301 Co288 2.315 . S
O301 C310 1.252 . S
O302 Co295 2.122 . S
O302 C311 1.272 . S
O303 Co289 2.113 . S
O303 C311 1.245 . S
C304 O312 1.259 . S
C304 O313 1.257 . S
C305 O314 1.268 . S
C305 O315 1.253 . S
C306 O316 1.281 . S
C306 O317 1.252 . S
C307 O318 1.272 . S
C307 O319 1.245 . S
C308 O296 1.259 . S
C308 O297 1.257 . S
C309 O298 1.253 . S
C309 O299 1.268 . S
C310 O300 1.281 . S
C310 O301 1.252 . S
C311 O302 1.272 . S
C311 O303 1.245 . S
O312 Co288 2.053 . S
O312 C304 1.259 . S
O313 Co290 2.047 . S
O313 C304 1.257 . S
O314 Co289 2.063 . S
O314 C305 1.268 . S
O315 Co288 2.094 . S
O315 C305 1.253 . S
O316 Co295 2.115 . S
O316 C306 1.281 . S
O317 Co295 2.315 . S
O317 C306 1.252 . S
O318 Co288 2.122 . S
O318 C307 1.272 . S
O319 Co290 2.113 . S
O319 C307 1.245 . S
Co320 H323 2.400 . S
Co320 O324 2.009 . S
Co320 O332 2.115 . S
Co320 O333 2.315 . S
Co320 O344 2.053 . S
Co320 O347 2.094 . S
Co320 O350 2.122 . S
Co321 O324 2.126 . S
Co321 H325 2.388 . S
Co321 O326 2.053 . S
Co321 O329 2.047 . S
Co321 O335 2.113 . S
Co321 O346 2.063 . S
Co322 H323 2.388 . S
Co322 O324 2.053 . S
Co322 O326 2.126 . S
Co322 O331 2.063 . S
Co322 O345 2.047 . S
Co322 O351 2.113 . S
H323 Co320 2.400 . S
H323 Co322 2.388 . S
H323 O324 0.760 . S
O324 Co320 2.009 . S
O324 Co321 2.126 . S
O324 Co322 2.053 . S
O324 H323 0.760 . S
H325 Co321 2.388 . S
H325 O326 0.760 . S
H325 Co327 2.400 . S
O326 Co321 2.053 . S
O326 Co322 2.126 . S
O326 H325 0.760 . S
O326 Co327 2.009 . S
Co327 H325 2.400 . S
Co327 O326 2.009 . S
Co327 O328 2.053 . S
Co327 O330 2.094 . S
Co327 O334 2.122 . S
Co327 O348 2.115 . S
Co327 O349 2.315 . S
O328 Co327 2.053 . S
O328 C340 1.259 . S
O329 Co321 2.047 . S
O329 C340 1.257 . S
O330 Co327 2.094 . S
O330 C341 1.253 . S
O331 Co322 2.063 . S
O331 C341 1.268 . S
O332 Co320 2.115 . S
O332 C342 1.281 . S
O333 Co320 2.315 . S
O333 C342 1.252 . S
O334 Co327 2.122 . S
O334 C343 1.272 . S
O335 Co321 2.113 . S
O335 C343 1.245 . S
C336 O344 1.259 . S
C336 O345 1.257 . S
C337 O346 1.268 . S
C337 O347 1.253 . S
C338 O348 1.281 . S
C338 O349 1.252 . S
C339 O350 1.272 . S
C339 O351 1.245 . S
C340 O328 1.259 . S
C340 O329 1.257 . S
C341 O330 1.253 . S
C341 O331 1.268 . S
C342 O332 1.281 . S
C342 O333 1.252 . S
C343 O334 1.272 . S
C343 O335 1.245 . S
O344 Co320 2.053 . S
O344 C336 1.259 . S
O345 Co322 2.047 . S
O345 C336 1.257 . S
O346 Co321 2.063 . S
O346 C337 1.268 . S
O347 Co320 2.094 . S
O347 C337 1.253 . S
O348 Co327 2.115 . S
O348 C338 1.281 . S
O349 Co327 2.315 . S
O349 C338 1.252 . S
O350 Co320 2.122 . S
O350 C339 1.272 . S
O351 Co322 2.113 . S
O351 C339 1.245 . S
Co352 H355 2.400 . S
Co352 O356 2.009 . S
Co352 O364 2.115 . S
Co352 O365 2.315 . S
Co352 O376 2.053 . S
Co352 O379 2.094 . S
Co352 O382 2.122 . S
Co353 O356 2.126 . S
Co353 H357 2.388 . S
Co353 O358 2.053 . S
Co353 O361 2.047 . S
Co353 O367 2.113 . S
Co353 O378 2.063 . S
Co354 H355 2.388 . S
Co354 O356 2.053 . S
Co354 O358 2.126 . S
Co354 O363 2.063 . S
Co354 O377 2.047 . S
Co354 O383 2.113 . S
H355 Co352 2.400 . S
H355 Co354 2.388 . S
H355 O356 0.760 . S
O356 Co352 2.009 . S
O356 Co353 2.126 . S
O356 Co354 2.053 . S
O356 H355 0.760 . S
H357 Co353 2.388 . S
H357 O358 0.760 . S
H357 Co359 2.400 . S
O358 Co353 2.053 . S
O358 Co354 2.126 . S
O358 H357 0.760 . S
O358 Co359 2.009 . S
Co359 H357 2.400 . S
Co359 O358 2.009 . S
Co359 O360 2.053 . S
Co359 O362 2.094 . S
Co359 O366 2.122 . S
Co359 O380 2.115 . S
Co359 O381 2.315 . S
O360 Co359 2.053 . S
O360 C372 1.259 . S
O361 Co353 2.047 . S
O361 C372 1.257 . S
O362 Co359 2.094 . S
O362 C373 1.253 . S
O363 Co354 2.063 . S
O363 C373 1.268 . S
O364 Co352 2.115 . S
O364 C374 1.281 . S
O365 Co352 2.315 . S
O365 C374 1.252 . S
O366 Co359 2.122 . S
O366 C375 1.272 . S
O367 Co353 2.113 . S
O367 C375 1.245 . S
C368 O376 1.259 . S
C368 O377 1.257 . S
C369 O378 1.268 . S
C369 O379 1.253 . S
C370 O380 1.281 . S
C370 O381 1.252 . S
C371 O382 1.272 . S
C371 O383 1.245 . S
C372 O360 1.259 . S
C372 O361 1.257 . S
C373 O362 1.253 . S
C373 O363 1.268 . S
C374 O364 1.281 . S
C374 O365 1.252 . S
C375 O366 1.272 . S
C375 O367 1.245 . S
O376 Co352 2.053 . S
O376 C368 1.259 . S
O377 Co354 2.047 . S
O377 C368 1.257 . S
O378 Co353 2.063 . S
O378 C369 1.268 . S
O379 Co352 2.094 . S
O379 C369 1.253 . S
O380 Co359 2.115 . S
O380 C370 1.281 . S
O381 Co359 2.315 . S
O381 C370 1.252 . S
O382 Co352 2.122 . S
O382 C371 1.272 . S
O383 Co354 2.113 . S
O383 C371 1.245 . S
Co384 H387 2.400 . S
Co384 O388 2.009 . S
Co384 O396 2.115 . S
Co384 O397 2.315 . S
Co384 O408 2.053 . S
Co384 O411 2.094 . S
Co384 O414 2.122 . S
Co385 O388 2.126 . S
Co385 H389 2.388 . S
Co385 O390 2.053 . S
Co385 O393 2.047 . S
Co385 O399 2.113 . S
Co385 O410 2.063 . S
Co386 H387 2.388 . S
Co386 O388 2.053 . S
Co386 O390 2.126 . S
Co386 O395 2.063 . S
Co386 O409 2.047 . S
Co386 O415 2.113 . S
H387 Co384 2.400 . S
H387 Co386 2.388 . S
H387 O388 0.760 . S
O388 Co384 2.009 . S
O388 Co385 2.126 . S
O388 Co386 2.053 . S
O388 H387 0.760 . S
H389 Co385 2.388 . S
H389 O390 0.760 . S
H389 Co391 2.400 . S
O390 Co385 2.053 . S
O390 Co386 2.126 . S
O390 H389 0.760 . S
O390 Co391 2.009 . S
Co391 H389 2.400 . S
Co391 O390 2.009 . S
Co391 O392 2.053 . S
Co391 O394 2.094 . S
Co391 O398 2.122 . S
Co391 O412 2.115 . S
Co391 O413 2.315 . S
O392 Co391 2.053 . S
O392 C404 1.259 . S
O393 Co385 2.047 . S
O393 C404 1.257 . S
O394 Co391 2.094 . S
O394 C405 1.253 . S
O395 Co386 2.063 . S
O395 C405 1.268 . S
O396 Co384 2.115 . S
O396 C406 1.281 . S
O397 Co384 2.315 . S
O397 C406 1.252 . S
O398 Co391 2.122 . S
O398 C407 1.272 . S
O399 Co385 2.113 . S
O399 C407 1.245 . S
C400 O408 1.259 . S
C400 O409 1.257 . S
C401 O410 1.268 . S
C401 O411 1.253 . S
C402 O412 1.281 . S
C402 O413 1.252 . S
C403 O414 1.272 . S
C403 O415 1.245 . S
C404 O392 1.259 . S
C404 O393 1.257 . S
C405 O394 1.253 . S
C405 O395 1.268 . S
C406 O396 1.281 . S
C406 O397 1.252 . S
C407 O398 1.272 . S
C407 O399 1.245 . S
O408 Co384 2.053 . S
O408 C400 1.259 . S
O409 Co386 2.047 . S
O409 C400 1.257 . S
O410 Co385 2.063 . S
O410 C401 1.268 . S
O411 Co384 2.094 . S
O411 C401 1.253 . S
O412 Co391 2.115 . S
O412 C402 1.281 . S
O413 Co391 2.315 . S
O413 C402 1.252 . S
O414 Co384 2.122 . S
O414 C403 1.272 . S
O415 Co386 2.113 . S
O415 C403 1.245 . S
Co416 H419 2.400 . S
Co416 O420 2.009 . S
Co416 O428 2.115 . S
Co416 O429 2.315 . S
Co416 O440 2.053 . S
Co416 O443 2.094 . S
Co416 O446 2.122 . S
Co417 O420 2.126 . S
Co417 H421 2.388 . S
Co417 O422 2.053 . S
Co417 O425 2.047 . S
Co417 O431 2.113 . S
Co417 O442 2.063 . S
Co418 H419 2.388 . S
Co418 O420 2.053 . S
Co418 O422 2.126 . S
Co418 O427 2.063 . S
Co418 O441 2.047 . S
Co418 O447 2.113 . S
H419 Co416 2.400 . S
H419 Co418 2.388 . S
H419 O420 0.760 . S
O420 Co416 2.009 . S
O420 Co417 2.126 . S
O420 Co418 2.053 . S
O420 H419 0.760 . S
H421 Co417 2.388 . S
H421 O422 0.760 . S
H421 Co423 2.400 . S
O422 Co417 2.053 . S
O422 Co418 2.126 . S
O422 H421 0.760 . S
O422 Co423 2.009 . S
Co423 H421 2.400 . S
Co423 O422 2.009 . S
Co423 O424 2.053 . S
Co423 O426 2.094 . S
Co423 O430 2.122 . S
Co423 O444 2.115 . S
Co423 O445 2.315 . S
O424 Co423 2.053 . S
O424 C436 1.259 . S
O425 Co417 2.047 . S
O425 C436 1.257 . S
O426 Co423 2.094 . S
O426 C437 1.253 . S
O427 Co418 2.063 . S
O427 C437 1.268 . S
O428 Co416 2.115 . S
O428 C438 1.281 . S
O429 Co416 2.315 . S
O429 C438 1.252 . S
O430 Co423 2.122 . S
O430 C439 1.272 . S
O431 Co417 2.113 . S
O431 C439 1.245 . S
C432 O440 1.259 . S
C432 O441 1.257 . S
C433 O442 1.268 . S
C433 O443 1.253 . S
C434 O444 1.281 . S
C434 O445 1.252 . S
C435 O446 1.272 . S
C435 O447 1.245 . S
C436 O424 1.259 . S
C436 O425 1.257 . S
C437 O426 1.253 . S
C437 O427 1.268 . S
C438 O428 1.281 . S
C438 O429 1.252 . S
C439 O430 1.272 . S
C439 O431 1.245 . S
O440 Co416 2.053 . S
O440 C432 1.259 . S
O441 Co418 2.047 . S
O441 C432 1.257 . S
O442 Co417 2.063 . S
O442 C433 1.268 . S
O443 Co416 2.094 . S
O443 C433 1.253 . S
O444 Co423 2.115 . S
O444 C434 1.281 . S
O445 Co423 2.315 . S
O445 C434 1.252 . S
O446 Co416 2.122 . S
O446 C435 1.272 . S
O447 Co418 2.113 . S
O447 C435 1.245 . S
Co448 H451 2.400 . S
Co448 O452 2.009 . S
Co448 O460 2.115 . S
Co448 O461 2.315 . S
Co448 O472 2.053 . S
Co448 O475 2.094 . S
Co448 O478 2.122 . S
Co449 O452 2.126 . S
Co449 H453 2.388 . S
Co449 O454 2.053 . S
Co449 O457 2.047 . S
Co449 O463 2.113 . S
Co449 O474 2.063 . S
Co450 H451 2.388 . S
Co450 O452 2.053 . S
Co450 O454 2.126 . S
Co450 O459 2.063 . S
Co450 O473 2.047 . S
Co450 O479 2.113 . S
H451 Co448 2.400 . S
H451 Co450 2.388 . S
H451 O452 0.760 . S
O452 Co448 2.009 . S
O452 Co449 2.126 . S
O452 Co450 2.053 . S
O452 H451 0.760 . S
H453 Co449 2.388 . S
H453 O454 0.760 . S
H453 Co455 2.400 . S
O454 Co449 2.053 . S
O454 Co450 2.126 . S
O454 H453 0.760 . S
O454 Co455 2.009 . S
Co455 H453 2.400 . S
Co455 O454 2.009 . S
Co455 O456 2.053 . S
Co455 O458 2.094 . S
Co455 O462 2.122 . S
Co455 O476 2.115 . S
Co455 O477 2.315 . S
O456 Co455 2.053 . S
O456 C468 1.259 . S
O457 Co449 2.047 . S
O457 C468 1.257 . S
O458 Co455 2.094 . S
O458 C469 1.253 . S
O459 Co450 2.063 . S
O459 C469 1.268 . S
O460 Co448 2.115 . S
O460 C470 1.281 . S
O461 Co448 2.315 . S
O461 C470 1.252 . S
O462 Co455 2.122 . S
O462 C471 1.272 . S
O463 Co449 2.113 . S
O463 C471 1.245 . S
C464 O472 1.259 . S
C464 O473 1.257 . S
C465 O474 1.268 . S
C465 O475 1.253 . S
C466 O476 1.281 . S
C466 O477 1.252 . S
C467 O478 1.272 . S
C467 O479 1.245 . S
C468 O456 1.259 . S
C468 O457 1.257 . S
C469 O458 1.253 . S
C469 O459 1.268 . S
C470 O460 1.281 . S
C470 O461 1.252 . S
C471 O462 1.272 . S
C471 O463 1.245 . S
O472 Co448 2.053 . S
O472 C464 1.259 . S
O473 Co450 2.047 . S
O473 C464 1.257 . S
O474 Co449 2.063 . S
O474 C465 1.268 . S
O475 Co448 2.094 . S
O475 C465 1.253 . S
O476 Co455 2.115 . S
O476 C466 1.281 . S
O477 Co455 2.315 . S
O477 C466 1.252 . S
O478 Co448 2.122 . S
O478 C467 1.272 . S
O479 Co450 2.113 . S
O479 C467 1.245 . S
Co480 H483 2.400 . S
Co480 O484 2.009 . S
Co480 O492 2.115 . S
Co480 O493 2.315 . S
Co480 O504 2.053 . S
Co480 O507 2.094 . S
Co480 O510 2.122 . S
Co481 O484 2.126 . S
Co481 H485 2.388 . S
Co481 O486 2.053 . S
Co481 O489 2.047 . S
Co481 O495 2.113 . S
Co481 O506 2.063 . S
Co482 H483 2.388 . S
Co482 O484 2.053 . S
Co482 O486 2.126 . S
Co482 O491 2.063 . S
Co482 O505 2.047 . S
Co482 O511 2.113 . S
H483 Co480 2.400 . S
H483 Co482 2.388 . S
H483 O484 0.760 . S
O484 Co480 2.009 . S
O484 Co481 2.126 . S
O484 Co482 2.053 . S
O484 H483 0.760 . S
H485 Co481 2.388 . S
H485 O486 0.760 . S
H485 Co487 2.400 . S
O486 Co481 2.053 . S
O486 Co482 2.126 . S
O486 H485 0.760 . S
O486 Co487 2.009 . S
Co487 H485 2.400 . S
Co487 O486 2.009 . S
Co487 O488 2.053 . S
Co487 O490 2.094 . S
Co487 O494 2.122 . S
Co487 O508 2.115 . S
Co487 O509 2.315 . S
O488 Co487 2.053 . S
O488 C500 1.259 . S
O489 Co481 2.047 . S
O489 C500 1.257 . S
O490 Co487 2.094 . S
O490 C501 1.253 . S
O491 Co482 2.063 . S
O491 C501 1.268 . S
O492 Co480 2.115 . S
O492 C502 1.281 . S
O493 Co480 2.315 . S
O493 C502 1.252 . S
O494 Co487 2.122 . S
O494 C503 1.272 . S
O495 Co481 2.113 . S
O495 C503 1.245 . S
C496 O504 1.259 . S
C496 O505 1.257 . S
C497 O506 1.268 . S
C497 O507 1.253 . S
C498 O508 1.281 . S
C498 O509 1.252 . S
C499 O510 1.272 . S
C499 O511 1.245 . S
C500 O488 1.259 . S
C500 O489 1.257 . S
C501 O490 1.253 . S
C501 O491 1.268 . S
C502 O492 1.281 . S
C502 O493 1.252 . S
C503 O494 1.272 . S
C503 O495 1.245 . S
O504 Co480 2.053 . S
O504 C496 1.259 . S
O505 Co482 2.047 . S
O505 C496 1.257 . S
O506 Co481 2.063 . S
O506 C497 1.268 . S
O507 Co480 2.094 . S
O507 C497 1.253 . S
O508 Co487 2.115 . S
O508 C498 1.281 . S
O509 Co487 2.315 . S
O509 C498 1.252 . S
O510 Co480 2.122 . S
O510 C499 1.272 . S
O511 Co482 2.113 . S
O511 C499 1.245 . S
C512 C513 1.391 . S
C512 C514 1.394 . S
C512 H528 0.931 . S
C513 C512 1.391 . S
C513 C517 1.376 . S
C514 C512 1.394 . S
C514 C515 1.369 . S
C514 C518 1.531 . S
C515 C514 1.369 . S
C515 C516 1.410 . S
C515 C523 1.503 . S
C516 C515 1.410 . S
C516 C517 1.392 . S
C516 C519 1.511 . S
C517 C513 1.376 . S
C517 C516 1.392 . S
C517 H529 0.929 . S
C518 C514 1.531 . S
C518 H530 0.960 . S
C518 H531 0.962 . S
C518 H532 0.960 . S
C519 C516 1.511 . S
C519 H533 0.961 . S
C519 H534 0.961 . S
C519 H535 0.961 . S
C520 C521 1.370 . S
C520 C522 1.363 . S
C520 H536 0.931 . S
C521 C520 1.370 . S
C521 C525 1.408 . S
C522 C520 1.363 . S
C522 C523 1.370 . S
C522 C526 1.524 . S
C523 C515 1.503 . S
C523 C522 1.370 . S
C523 C524 1.403 . S
C524 C523 1.403 . S
C524 C525 1.404 . S
C524 C527 1.539 . S
C525 C521 1.408 . S
C525 C524 1.404 . S
C525 H537 0.930 . S
C526 C522 1.524 . S
C526 H538 0.956 . S
C526 H539 0.961 . S
C526 H540 0.961 . S
C527 C524 1.539 . S
C527 H541 0.958 . S
C527 H542 0.961 . S
C527 H543 0.960 . S
H528 C512 0.931 . S
H529 C517 0.929 . S
H530 C518 0.960 . S
H531 C518 0.962 . S
H532 C518 0.960 . S
H533 C519 0.961 . S
H534 C519 0.961 . S
H535 C519 0.961 . S
H536 C520 0.931 . S
H537 C525 0.930 . S
H538 C526 0.956 . S
H539 C526 0.961 . S
H540 C526 0.961 . S
H541 C527 0.958 . S
H542 C527 0.961 . S
H543 C527 0.960 . S
C544 C545 1.391 . S
C544 C546 1.394 . S
C544 H560 0.931 1_565 S
C545 C544 1.391 . S
C545 C549 1.376 1_655 S
C546 C544 1.394 . S
C546 C547 1.369 . S
C546 C550 1.531 . S
C547 C546 1.369 . S
C547 C548 1.410 1_655 S
C547 C555 1.503 . S
C548 C547 1.410 1_455 S
C548 C549 1.392 . S
C548 C551 1.511 . S
C549 C545 1.376 1_455 S
C549 C548 1.392 . S
C549 H561 0.929 . S
C550 C546 1.531 . S
C550 H562 0.960 . S
C550 H563 0.962 . S
C550 H564 0.960 . S
C551 C548 1.511 . S
C551 H565 0.961 . S
C551 H566 0.961 . S
C551 H567 0.961 . S
C552 C553 1.370 . S
C552 C554 1.363 . S
C552 H568 0.931 . S
C553 C552 1.370 . S
C553 C557 1.408 . S
C554 C552 1.363 . S
C554 C555 1.370 . S
C554 C558 1.524 . S
C555 C547 1.503 . S
C555 C554 1.370 . S
C555 C556 1.403 . S
C556 C555 1.403 . S
C556 C557 1.404 . S
C556 C559 1.539 . S
C557 C553 1.408 . S
C557 C556 1.404 . S
C557 H569 0.930 . S
C558 C554 1.524 . S
C558 H570 0.956 . S
C558 H571 0.961 . S
C558 H572 0.961 . S
C559 C556 1.539 . S
C559 H573 0.958 . S
C559 H574 0.961 . S
C559 H575 0.960 . S
H560 C544 0.931 1_545 S
H561 C549 0.929 . S
H562 C550 0.960 . S
H563 C550 0.962 . S
H564 C550 0.960 . S
H565 C551 0.961 . S
H566 C551 0.961 . S
H567 C551 0.961 . S
H568 C552 0.931 . S
H569 C557 0.930 . S
H570 C558 0.956 . S
H571 C558 0.961 . S
H572 C558 0.961 . S
H573 C559 0.958 . S
H574 C559 0.961 . S
H575 C559 0.960 . S
C576 C577 1.391 . S
C576 C578 1.394 . S
C576 H592 0.931 . S
C577 C576 1.391 . S
C577 C581 1.376 . S
C578 C576 1.394 . S
C578 C579 1.369 . S
C578 C582 1.531 . S
C579 C578 1.369 . S
C579 C580 1.410 . S
C579 C587 1.503 . S
C580 C579 1.410 . S
C580 C581 1.392 . S
C580 C583 1.511 . S
C581 C577 1.376 . S
C581 C580 1.392 . S
C581 H593 0.929 . S
C582 C578 1.531 . S
C582 H594 0.960 . S
C582 H595 0.962 . S
C582 H596 0.960 . S
C583 C580 1.511 . S
C583 H597 0.961 . S
C583 H598 0.961 . S
C583 H599 0.961 . S
C584 C585 1.370 . S
C584 C586 1.363 . S
C584 H600 0.931 . S
C585 C584 1.370 . S
C585 C589 1.408 . S
C586 C584 1.363 . S
C586 C587 1.370 . S
C586 C590 1.524 . S
C587 C579 1.503 . S
C587 C586 1.370 . S
C587 C588 1.403 . S
C588 C587 1.403 . S
C588 C589 1.404 . S
C588 C591 1.539 . S
C589 C585 1.408 . S
C589 C588 1.404 . S
C589 H601 0.930 . S
C590 C586 1.524 . S
C590 H602 0.956 . S
C590 H603 0.961 . S
C590 H604 0.961 . S
C591 C588 1.539 . S
C591 H605 0.958 . S
C591 H606 0.961 . S
C591 H607 0.960 . S
H592 C576 0.931 . S
H593 C581 0.929 . S
H594 C582 0.960 . S
H595 C582 0.962 . S
H596 C582 0.960 . S
H597 C583 0.961 . S
H598 C583 0.961 . S
H599 C583 0.961 . S
H600 C584 0.931 . S
H601 C589 0.930 . S
H602 C590 0.956 . S
H603 C590 0.961 . S
H604 C590 0.961 . S
H605 C591 0.958 . S
H606 C591 0.961 . S
H607 C591 0.960 . S
C608 C609 1.391 1_455 S
C608 C610 1.394 1_455 S
C608 H624 0.931 . S
C609 C608 1.391 1_655 S
C609 C613 1.376 . S
C610 C608 1.394 1_655 S
C610 C611 1.369 . S
C610 C614 1.531 1_655 S
C611 C610 1.369 . S
C611 C612 1.410 . S
C611 C619 1.503 . S
C612 C611 1.410 . S
C612 C613 1.392 . S
C612 C615 1.511 . S
C613 C609 1.376 . S
C613 C612 1.392 . S
C613 H625 0.929 . S
C614 C610 1.531 1_455 S
C614 H626 0.960 1_455 S
C614 H627 0.962 . S
C614 H628 0.960 . S
C615 C612 1.511 . S
C615 H629 0.961 . S
C615 H630 0.961 . S
C615 H631 0.961 . S
C616 C617 1.370 . S
C616 C618 1.363 . S
C616 H632 0.931 . S
C617 C616 1.370 . S
C617 C621 1.408 . S
C618 C616 1.363 . S
C618 C619 1.370 . S
C618 C622 1.524 . S
C619 C611 1.503 . S
C619 C618 1.370 . S
C619 C620 1.403 . S
C620 C619 1.403 . S
C620 C621 1.404 . S
C620 C623 1.539 . S
C621 C617 1.408 . S
C621 C620 1.404 . S
C621 H633 0.930 . S
C622 C618 1.524 . S
C622 H634 0.956 1_655 S
C622 H635 0.961 . S
C622 H636 0.961 . S
C623 C620 1.539 . S
C623 H637 0.958 . S
C623 H638 0.961 . S
C623 H639 0.960 . S
H624 C608 0.931 . S
H625 C613 0.929 . S
H626 C614 0.960 1_655 S
H627 C614 0.962 . S
H628 C614 0.960 . S
H629 C615 0.961 . S
H630 C615 0.961 . S
H631 C615 0.961 . S
H632 C616 0.931 . S
H633 C621 0.930 . S
H634 C622 0.956 1_455 S
H635 C622 0.961 . S
H636 C622 0.961 . S
H637 C623 0.958 . S
H638 C623 0.961 . S
H639 C623 0.960 . S
C640 C641 1.391 . S
C640 C642 1.394 . S
C640 H656 0.931 . S
C641 C640 1.391 . S
C641 C645 1.376 . S
C642 C640 1.394 . S
C642 C643 1.369 . S
C642 C646 1.531 . S
C643 C642 1.369 . S
C643 C644 1.410 . S
C643 C651 1.503 . S
C644 C643 1.410 . S
C644 C645 1.392 . S
C644 C647 1.511 . S
C645 C641 1.376 . S
C645 C644 1.392 . S
C645 H657 0.929 . S
C646 C642 1.531 . S
C646 H658 0.960 . S
C646 H659 0.962 . S
C646 H660 0.960 . S
C647 C644 1.511 . S
C647 H661 0.961 . S
C647 H662 0.961 . S
C647 H663 0.961 . S
C648 C649 1.370 . S
C648 C650 1.363 . S
C648 H664 0.931 . S
C649 C648 1.370 . S
C649 C653 1.408 . S
C650 C648 1.363 . S
C650 C651 1.370 . S
C650 C654 1.524 . S
C651 C643 1.503 . S
C651 C650 1.370 . S
C651 C652 1.403 . S
C652 C651 1.403 . S
C652 C653 1.404 . S
C652 C655 1.539 . S
C653 C649 1.408 . S
C653 C652 1.404 . S
C653 H665 0.930 . S
C654 C650 1.524 . S
C654 H666 0.956 . S
C654 H667 0.961 . S
C654 H668 0.961 . S
C655 C652 1.539 . S
C655 H669 0.958 . S
C655 H670 0.961 . S
C655 H671 0.960 . S
H656 C640 0.931 . S
H657 C645 0.929 . S
H658 C646 0.960 . S
H659 C646 0.962 . S
H660 C646 0.960 . S
H661 C647 0.961 . S
H662 C647 0.961 . S
H663 C647 0.961 . S
H664 C648 0.931 . S
H665 C653 0.930 . S
H666 C654 0.956 . S
H667 C654 0.961 . S
H668 C654 0.961 . S
H669 C655 0.958 . S
H670 C655 0.961 . S
H671 C655 0.960 . S
C672 C673 1.391 1_655 S
C672 C674 1.394 1_655 S
C672 H688 0.931 . S
C673 C672 1.391 1_455 S
C673 C677 1.376 . S
C674 C672 1.394 1_455 S
C674 C675 1.369 . S
C674 C678 1.531 1_455 S
C675 C674 1.369 . S
C675 C676 1.410 . S
C675 C683 1.503 . S
C676 C675 1.410 . S
C676 C677 1.392 . S
C676 C679 1.511 . S
C677 C673 1.376 . S
C677 C676 1.392 . S
C677 H689 0.929 1_545 S
C678 C674 1.531 1_655 S
C678 H690 0.960 1_655 S
C678 H691 0.962 . S
C678 H692 0.960 . S
C679 C676 1.511 . S
C679 H693 0.961 . S
C679 H694 0.961 . S
C679 H695 0.961 . S
C680 C681 1.370 . S
C680 C682 1.363 . S
C680 H696 0.931 . S
C681 C680 1.370 . S
C681 C685 1.408 . S
C682 C680 1.363 . S
C682 C683 1.370 . S
C682 C686 1.524 . S
C683 C675 1.503 . S
C683 C682 1.370 . S
C683 C684 1.403 . S
C684 C683 1.403 . S
C684 C685 1.404 . S
C684 C687 1.539 . S
C685 C681 1.408 . S
C685 C684 1.404 . S
C685 H697 0.930 . S
C686 C682 1.524 . S
C686 H698 0.956 1_455 S
C686 H699 0.961 . S
C686 H700 0.961 . S
C687 C684 1.539 . S
C687 H701 0.958 . S
C687 H702 0.961 . S
C687 H703 0.960 . S
H688 C672 0.931 . S
H689 C677 0.929 1_565 S
H690 C678 0.960 1_455 S
H691 C678 0.962 . S
H692 C678 0.960 . S
H693 C679 0.961 . S
H694 C679 0.961 . S
H695 C679 0.961 . S
H696 C680 0.931 . S
H697 C685 0.930 . S
H698 C686 0.956 1_655 S
H699 C686 0.961 . S
H700 C686 0.961 . S
H701 C687 0.958 . S
H702 C687 0.961 . S
H703 C687 0.960 . S
C704 C705 1.391 . S
C704 C706 1.394 . S
C704 H720 0.931 . S
C705 C704 1.391 . S
C705 C709 1.376 . S
C706 C704 1.394 . S
C706 C707 1.369 . S
C706 C710 1.531 . S
C707 C706 1.369 . S
C707 C708 1.410 . S
C707 C715 1.503 . S
C708 C707 1.410 . S
C708 C709 1.392 . S
C708 C711 1.511 . S
C709 C705 1.376 . S
C709 C708 1.392 . S
C709 H721 0.929 . S
C710 C706 1.531 . S
C710 H722 0.960 . S
C710 H723 0.962 . S
C710 H724 0.960 . S
C711 C708 1.511 . S
C711 H725 0.961 . S
C711 H726 0.961 . S
C711 H727 0.961 . S
C712 C713 1.370 . S
C712 C714 1.363 . S
C712 H728 0.931 . S
C713 C712 1.370 . S
C713 C717 1.408 . S
C714 C712 1.363 . S
C714 C715 1.370 . S
C714 C718 1.524 . S
C715 C707 1.503 . S
C715 C714 1.370 . S
C715 C716 1.403 . S
C716 C715 1.403 . S
C716 C717 1.404 . S
C716 C719 1.539 . S
C717 C713 1.408 . S
C717 C716 1.404 . S
C717 H729 0.930 . S
C718 C714 1.524 . S
C718 H730 0.956 . S
C718 H731 0.961 . S
C718 H732 0.961 . S
C719 C716 1.539 . S
C719 H733 0.958 . S
C719 H734 0.961 . S
C719 H735 0.960 . S
H720 C704 0.931 . S
H721 C709 0.929 . S
H722 C710 0.960 . S
H723 C710 0.962 . S
H724 C710 0.960 . S
H725 C711 0.961 . S
H726 C711 0.961 . S
H727 C711 0.961 . S
H728 C712 0.931 . S
H729 C717 0.930 . S
H730 C718 0.956 . S
H731 C718 0.961 . S
H732 C718 0.961 . S
H733 C719 0.958 . S
H734 C719 0.961 . S
H735 C719 0.960 . S
C736 C737 1.391 1_655 S
C736 C738 1.394 1_655 S
C736 H752 0.931 . S
C737 C736 1.391 1_455 S
C737 C741 1.376 . S
C738 C736 1.394 1_455 S
C738 C739 1.369 . S
C738 C742 1.531 1_455 S
C739 C738 1.369 . S
C739 C740 1.410 . S
C739 C747 1.503 . S
C740 C739 1.410 . S
C740 C741 1.392 . S
C740 C743 1.511 . S
C741 C737 1.376 . S
C741 C740 1.392 . S
C741 H753 0.929 . S
C742 C738 1.531 1_655 S
C742 H754 0.960 1_655 S
C742 H755 0.962 . S
C742 H756 0.960 . S
C743 C740 1.511 . S
C743 H757 0.961 . S
C743 H758 0.961 . S
C743 H759 0.961 . S
C744 C745 1.370 . S
C744 C746 1.363 . S
C744 H760 0.931 . S
C745 C744 1.370 . S
C745 C749 1.408 . S
C746 C744 1.363 . S
C746 C747 1.370 . S
C746 C750 1.524 . S
C747 C739 1.503 . S
C747 C746 1.370 . S
C747 C748 1.403 . S
C748 C747 1.403 . S
C748 C749 1.404 . S
C748 C751 1.539 . S
C749 C745 1.408 . S
C749 C748 1.404 . S
C749 H761 0.930 . S
C750 C746 1.524 . S
C750 H762 0.956 1_455 S
C750 H763 0.961 . S
C750 H764 0.961 . S
C751 C748 1.539 . S
C751 H765 0.958 . S
C751 H766 0.961 . S
C751 H767 0.960 . S
H752 C736 0.931 . S
H753 C741 0.929 . S
H754 C742 0.960 1_455 S
H755 C742 0.962 . S
H756 C742 0.960 . S
H757 C743 0.961 . S
H758 C743 0.961 . S
H759 C743 0.961 . S
H760 C744 0.931 . S
H761 C749 0.930 . S
H762 C750 0.956 1_655 S
H763 C750 0.961 . S
H764 C750 0.961 . S
H765 C751 0.958 . S
H766 C751 0.961 . S
H767 C751 0.960 . S
C768 C769 1.391 . S
C768 C770 1.394 . S
C768 H784 0.931 . S
C769 C768 1.391 . S
C769 C773 1.376 . S
C770 C768 1.394 . S
C770 C771 1.369 . S
C770 C774 1.531 . S
C771 C770 1.369 . S
C771 C772 1.410 . S
C771 C779 1.503 . S
C772 C771 1.410 . S
C772 C773 1.392 . S
C772 C775 1.511 . S
C773 C769 1.376 . S
C773 C772 1.392 . S
C773 H785 0.929 . S
C774 C770 1.531 . S
C774 H786 0.960 . S
C774 H787 0.962 . S
C774 H788 0.960 . S
C775 C772 1.511 . S
C775 H789 0.961 . S
C775 H790 0.961 . S
C775 H791 0.961 . S
C776 C777 1.370 . S
C776 C778 1.363 . S
C776 H792 0.931 . S
C777 C776 1.370 . S
C777 C781 1.408 . S
C778 C776 1.363 . S
C778 C779 1.370 . S
C778 C782 1.524 . S
C779 C771 1.503 . S
C779 C778 1.370 . S
C779 C780 1.403 . S
C780 C779 1.403 . S
C780 C781 1.404 . S
C780 C783 1.539 . S
C781 C777 1.408 . S
C781 C780 1.404 . S
C781 H793 0.930 . S
C782 C778 1.524 . S
C782 H794 0.956 . S
C782 H795 0.961 . S
C782 H796 0.961 . S
C783 C780 1.539 . S
C783 H797 0.958 . S
C783 H798 0.961 . S
C783 H799 0.960 . S
H784 C768 0.931 . S
H785 C773 0.929 . S
H786 C774 0.960 . S
H787 C774 0.962 . S
H788 C774 0.960 . S
H789 C775 0.961 . S
H790 C775 0.961 . S
H791 C775 0.961 . S
H792 C776 0.931 . S
H793 C781 0.930 . S
H794 C782 0.956 . S
H795 C782 0.961 . S
H796 C782 0.961 . S
H797 C783 0.958 . S
H798 C783 0.961 . S
H799 C783 0.960 . S
C800 C801 1.391 . S
C800 C802 1.394 . S
C800 H816 0.931 . S
C801 C800 1.391 . S
C801 C805 1.376 . S
C802 C800 1.394 . S
C802 C803 1.369 . S
C802 C806 1.531 . S
C803 C802 1.369 . S
C803 C804 1.410 . S
C803 C811 1.503 . S
C804 C803 1.410 . S
C804 C805 1.392 . S
C804 C807 1.511 1_655 S
C805 C801 1.376 . S
C805 C804 1.392 . S
C805 H817 0.929 . S
C806 C802 1.531 . S
C806 H818 0.960 . S
C806 H819 0.962 . S
C806 H820 0.960 . S
C807 C804 1.511 1_455 S
C807 H821 0.961 . S
C807 H822 0.961 . S
C807 H823 0.961 . S
C808 C809 1.370 . S
C808 C810 1.363 . S
C808 H824 0.931 . S
C809 C808 1.370 . S
C809 C813 1.408 1_655 S
C810 C808 1.363 . S
C810 C811 1.370 . S
C810 C814 1.524 . S
C811 C803 1.503 . S
C811 C810 1.370 . S
C811 C812 1.403 . S
C812 C811 1.403 . S
C812 C813 1.404 1_655 S
C812 C815 1.539 1_655 S
C813 C809 1.408 1_455 S
C813 C812 1.404 1_455 S
C813 H825 0.930 . S
C814 C810 1.524 . S
C814 H826 0.956 . S
C814 H827 0.961 . S
C814 H828 0.961 . S
C815 C812 1.539 1_455 S
C815 H829 0.958 1_455 S
C815 H830 0.961 . S
C815 H831 0.960 . S
H816 C800 0.931 . S
H817 C805 0.929 . S
H818 C806 0.960 . S
H819 C806 0.962 . S
H820 C806 0.960 . S
H821 C807 0.961 . S
H822 C807 0.961 . S
H823 C807 0.961 . S
H824 C808 0.931 . S
H825 C813 0.930 . S
H826 C814 0.956 . S
H827 C814 0.961 . S
H828 C814 0.961 . S
H829 C815 0.958 1_655 S
H830 C815 0.961 . S
H831 C815 0.960 . S
C832 C833 1.391 . S
C832 C834 1.394 . S
C832 H848 0.931 . S
C833 C832 1.391 . S
C833 C837 1.376 . S
C834 C832 1.394 . S
C834 C835 1.369 . S
C834 C838 1.531 . S
C835 C834 1.369 . S
C835 C836 1.410 . S
C835 C843 1.503 . S
C836 C835 1.410 . S
C836 C837 1.392 . S
C836 C839 1.511 . S
C837 C833 1.376 . S
C837 C836 1.392 . S
C837 H849 0.929 . S
C838 C834 1.531 . S
C838 H850 0.960 . S
C838 H851 0.962 . S
C838 H852 0.960 . S
C839 C836 1.511 . S
C839 H853 0.961 . S
C839 H854 0.961 . S
C839 H855 0.961 . S
C840 C841 1.370 . S
C840 C842 1.363 . S
C840 H856 0.931 . S
C841 C840 1.370 . S
C841 C845 1.408 . S
C842 C840 1.363 . S
C842 C843 1.370 . S
C842 C846 1.524 . S
C843 C835 1.503 . S
C843 C842 1.370 . S
C843 C844 1.403 . S
C844 C843 1.403 . S
C844 C845 1.404 . S
C844 C847 1.539 . S
C845 C841 1.408 . S
C845 C844 1.404 . S
C845 H857 0.930 . S
C846 C842 1.524 . S
C846 H858 0.956 . S
C846 H859 0.961 . S
C846 H860 0.961 . S
C847 C844 1.539 . S
C847 H861 0.958 . S
C847 H862 0.961 . S
C847 H863 0.960 . S
H848 C832 0.931 . S
H849 C837 0.929 . S
H850 C838 0.960 . S
H851 C838 0.962 . S
H852 C838 0.960 . S
H853 C839 0.961 . S
H854 C839 0.961 . S
H855 C839 0.961 . S
H856 C840 0.931 . S
H857 C845 0.930 . S
H858 C846 0.956 . S
H859 C846 0.961 . S
H860 C846 0.961 . S
H861 C847 0.958 . S
H862 C847 0.961 . S
H863 C847 0.960 . S
C864 C865 1.391 . S
C864 C866 1.394 . S
C864 H880 0.931 . S
C865 C864 1.391 . S
C865 C869 1.376 . S
C866 C864 1.394 . S
C866 C867 1.369 . S
C866 C870 1.531 . S
C867 C866 1.369 . S
C867 C868 1.410 . S
C867 C875 1.503 . S
C868 C867 1.410 . S
C868 C869 1.392 . S
C868 C871 1.511 1_655 S
C869 C865 1.376 . S
C869 C868 1.392 . S
C869 H881 0.929 1_565 S
C870 C866 1.531 . S
C870 H882 0.960 . S
C870 H883 0.962 . S
C870 H884 0.960 . S
C871 C868 1.511 1_455 S
C871 H885 0.961 . S
C871 H886 0.961 . S
C871 H887 0.961 . S
C872 C873 1.370 . S
C872 C874 1.363 . S
C872 H888 0.931 . S
C873 C872 1.370 . S
C873 C877 1.408 1_655 S
C874 C872 1.363 . S
C874 C875 1.370 . S
C874 C878 1.524 . S
C875 C867 1.503 . S
C875 C874 1.370 . S
C875 C876 1.403 . S
C876 C875 1.403 . S
C876 C877 1.404 1_655 S
C876 C879 1.539 1_655 S
C877 C873 1.408 1_455 S
C877 C876 1.404 1_455 S
C877 H889 0.930 . S
C878 C874 1.524 . S
C878 H890 0.956 . S
C878 H891 0.961 . S
C878 H892 0.961 . S
C879 C876 1.539 1_455 S
C879 H893 0.958 1_455 S
C879 H894 0.961 . S
C879 H895 0.960 . S
H880 C864 0.931 . S
H881 C869 0.929 1_545 S
H882 C870 0.960 . S
H883 C870 0.962 . S
H884 C870 0.960 . S
H885 C871 0.961 . S
H886 C871 0.961 . S
H887 C871 0.961 . S
H888 C872 0.931 . S
H889 C877 0.930 . S
H890 C878 0.956 . S
H891 C878 0.961 . S
H892 C878 0.961 . S
H893 C879 0.958 1_655 S
H894 C879 0.961 . S
H895 C879 0.960 . S
C896 C897 1.391 . S
C896 C898 1.394 . S
C896 H912 0.931 1_545 S
C897 C896 1.391 . S
C897 C901 1.376 . S
C898 C896 1.394 . S
C898 C899 1.369 . S
C898 C902 1.531 . S
C899 C898 1.369 . S
C899 C900 1.410 . S
C899 C907 1.503 . S
C900 C899 1.410 . S
C900 C901 1.392 . S
C900 C903 1.511 . S
C901 C897 1.376 . S
C901 C900 1.392 . S
C901 H913 0.929 . S
C902 C898 1.531 . S
C902 H914 0.960 . S
C902 H915 0.962 . S
C902 H916 0.960 . S
C903 C900 1.511 . S
C903 H917 0.961 . S
C903 H918 0.961 . S
C903 H919 0.961 . S
C904 C905 1.370 . S
C904 C906 1.363 . S
C904 H920 0.931 . S
C905 C904 1.370 . S
C905 C909 1.408 . S
C906 C904 1.363 . S
C906 C907 1.370 . S
C906 C910 1.524 . S
C907 C899 1.503 . S
C907 C906 1.370 . S
C907 C908 1.403 . S
C908 C907 1.403 . S
C908 C909 1.404 . S
C908 C911 1.539 . S
C909 C905 1.408 . S
C909 C908 1.404 . S
C909 H921 0.930 . S
C910 C906 1.524 . S
C910 H922 0.956 . S
C910 H923 0.961 . S
C910 H924 0.961 . S
C911 C908 1.539 . S
C911 H925 0.958 . S
C911 H926 0.961 . S
C911 H927 0.960 . S
H912 C896 0.931 1_565 S
H913 C901 0.929 . S
H914 C902 0.960 . S
H915 C902 0.962 . S
H916 C902 0.960 . S
H917 C903 0.961 . S
H918 C903 0.961 . S
H919 C903 0.961 . S
H920 C904 0.931 . S
H921 C909 0.930 . S
H922 C910 0.956 . S
H923 C910 0.961 . S
H924 C910 0.961 . S
H925 C911 0.958 . S
H926 C911 0.961 . S
H927 C911 0.960 . S
C928 C929 1.391 1_655 S
C928 C930 1.394 1_655 S
C928 H944 0.931 . S
C929 C928 1.391 1_455 S
C929 C933 1.376 . S
C930 C928 1.394 1_455 S
C930 C931 1.369 . S
C930 C934 1.531 1_455 S
C931 C930 1.369 . S
C931 C932 1.410 . S
C931 C939 1.503 . S
C932 C931 1.410 . S
C932 C933 1.392 . S
C932 C935 1.511 . S
C933 C929 1.376 . S
C933 C932 1.392 . S
C933 H945 0.929 . S
C934 C930 1.531 1_655 S
C934 H946 0.965 . S
C934 H947 0.962 . S
C934 H948 0.960 . S
C935 C932 1.511 . S
C935 H949 0.961 . S
C935 H950 0.961 . S
C935 H951 0.961 . S
C936 C937 1.370 . S
C936 C938 1.363 . S
C936 H952 0.931 . S
C937 C936 1.370 . S
C937 C941 1.408 . S
C938 C936 1.363 . S
C938 C939 1.370 . S
C938 C942 1.524 . S
C939 C931 1.503 . S
C939 C938 1.370 . S
C939 C940 1.403 . S
C940 C939 1.403 . S
C940 C941 1.404 . S
C940 C943 1.539 . S
C941 C937 1.408 . S
C941 C940 1.404 . S
C941 H953 0.930 . S
C942 C938 1.524 . S
C942 H954 0.956 1_455 S
C942 H955 0.961 . S
C942 H956 0.961 . S
C943 C940 1.539 . S
C943 H957 0.958 . S
C943 H958 0.961 . S
C943 H959 0.960 . S
H944 C928 0.931 . S
H945 C933 0.929 . S
H946 C934 0.965 . S
H947 C934 0.962 . S
H948 C934 0.960 . S
H949 C935 0.961 . S
H950 C935 0.961 . S
H951 C935 0.961 . S
H952 C936 0.931 . S
H953 C941 0.930 . S
H954 C942 0.956 1_655 S
H955 C942 0.961 . S
H956 C942 0.961 . S
H957 C943 0.958 . S
H958 C943 0.961 . S
H959 C943 0.960 . S
C960 C961 1.391 . S
C960 C962 1.394 . S
C960 H976 0.931 . S
C961 C960 1.391 . S
C961 C965 1.376 . S
C962 C960 1.394 . S
C962 C963 1.369 . S
C962 C966 1.531 . S
C963 C962 1.369 . S
C963 C964 1.410 . S
C963 C971 1.503 . S
C964 C963 1.410 . S
C964 C965 1.392 . S
C964 C967 1.511 . S
C965 C961 1.376 . S
C965 C964 1.392 . S
C965 H977 0.929 . S
C966 C962 1.531 . S
C966 H978 0.960 . S
C966 H979 0.962 . S
C966 H980 0.960 . S
C967 C964 1.511 . S
C967 H981 0.961 . S
C967 H982 0.961 . S
C967 H983 0.961 . S
C968 C969 1.370 . S
C968 C970 1.363 . S
C968 H984 0.931 . S
C969 C968 1.370 . S
C969 C973 1.408 . S
C970 C968 1.363 . S
C970 C971 1.370 . S
C970 C974 1.524 . S
C971 C963 1.503 . S
C971 C970 1.370 . S
C971 C972 1.403 . S
C972 C971 1.403 . S
C972 C973 1.404 . S
C972 C975 1.539 . S
C973 C969 1.408 . S
C973 C972 1.404 . S
C973 H985 0.930 . S
C974 C970 1.524 . S
C974 H986 0.956 . S
C974 H987 0.961 . S
C974 H988 0.961 . S
C975 C972 1.539 . S
C975 H989 0.958 . S
C975 H990 0.961 . S
C975 H991 0.960 . S
H976 C960 0.931 . S
H977 C965 0.929 . S
H978 C966 0.960 . S
H979 C966 0.962 . S
H980 C966 0.960 . S
H981 C967 0.961 . S
H982 C967 0.961 . S
H983 C967 0.961 . S
H984 C968 0.931 . S
H985 C973 0.930 . S
H986 C974 0.956 . S
H987 C974 0.961 . S
H988 C974 0.961 . S
H989 C975 0.958 . S
H990 C975 0.961 . S
H991 C975 0.960 . S
C992 C993 1.391 1_655 S
C992 C994 1.394 1_655 S
C992 H1008 0.931 . S
C993 C992 1.391 1_455 S
C993 C997 1.376 . S
C994 C992 1.394 1_455 S
C994 C995 1.369 . S
C994 C998 1.531 1_455 S
C995 C994 1.369 . S
C995 C996 1.410 . S
C995 C1003 1.503 . S
C996 C995 1.410 . S
C996 C997 1.392 . S
C996 C999 1.511 . S
C997 C993 1.376 . S
C997 C996 1.392 . S
C997 H1009 0.929 . S
C998 C994 1.531 1_655 S
C998 H1010 0.960 1_655 S
C998 H1011 0.962 . S
C998 H1012 0.960 . S
C999 C996 1.511 . S
C999 H1013 0.961 . S
C999 H1014 0.961 . S
C999 H1015 0.961 . S
C1000 C1001 1.370 . S
C1000 C1002 1.363 . S
C1000 H1016 0.931 . S
C1001 C1000 1.370 . S
C1001 C1005 1.408 . S
C1002 C1000 1.363 . S
C1002 C1003 1.370 . S
C1002 C1006 1.524 . S
C1003 C995 1.503 . S
C1003 C1002 1.370 . S
C1003 C1004 1.403 . S
C1004 C1003 1.403 . S
C1004 C1005 1.404 . S
C1004 C1007 1.539 . S
C1005 C1001 1.408 . S
C1005 C1004 1.404 . S
C1005 H1017 0.930 . S
C1006 C1002 1.524 . S
C1006 H1018 0.956 1_455 S
C1006 H1019 0.961 . S
C1006 H1020 0.961 . S
C1007 C1004 1.539 . S
C1007 H1021 0.958 . S
C1007 H1022 0.961 . S
C1007 H1023 0.960 . S
H1008 C992 0.931 . S
H1009 C997 0.929 . S
H1010 C998 0.960 1_455 S
H1011 C998 0.962 . S
H1012 C998 0.960 . S
H1013 C999 0.961 . S
H1014 C999 0.961 . S
H1015 C999 0.961 . S
H1016 C1000 0.931 . S
H1017 C1005 0.930 . S
H1018 C1006 0.956 1_655 S
H1019 C1006 0.961 . S
H1020 C1006 0.961 . S
H1021 C1007 0.958 . S
H1022 C1007 0.961 . S
H1023 C1007 0.960 . S
C1024 C1025 1.391 . S
C1024 C1026 1.394 . S
C1024 H1040 0.931 . S
C1025 C1024 1.391 . S
C1025 C1029 1.376 . S
C1026 C1024 1.394 . S
C1026 C1027 1.369 . S
C1026 C1030 1.531 . S
C1027 C1026 1.369 . S
C1027 C1028 1.410 . S
C1027 C1035 1.503 . S
C1028 C1027 1.410 . S
C1028 C1029 1.392 . S
C1028 C1031 1.511 . S
C1029 C1025 1.376 . S
C1029 C1028 1.392 . S
C1029 H1041 0.929 1_565 S
C1030 C1026 1.531 . S
C1030 H1042 0.960 . S
C1030 H1043 0.962 . S
C1030 H1044 0.960 . S
C1031 C1028 1.511 . S
C1031 H1045 0.961 . S
C1031 H1046 0.961 . S
C1031 H1047 0.961 . S
C1032 C1033 1.370 . S
C1032 C1034 1.363 . S
C1032 H1048 0.931 . S
C1033 C1032 1.370 . S
C1033 C1037 1.408 . S
C1034 C1032 1.363 . S
C1034 C1035 1.370 . S
C1034 C1038 1.524 . S
C1035 C1027 1.503 . S
C1035 C1034 1.370 . S
C1035 C1036 1.403 . S
C1036 C1035 1.403 . S
C1036 C1037 1.404 . S
C1036 C1039 1.539 . S
C1037 C1033 1.408 . S
C1037 C1036 1.404 . S
C1037 H1049 0.930 . S
C1038 C1034 1.524 . S
C1038 H1050 0.956 . S
C1038 H1051 0.961 . S
C1038 H1052 0.961 . S
C1039 C1036 1.539 . S
C1039 H1053 0.958 . S
C1039 H1054 0.961 . S
C1039 H1055 0.960 . S
H1040 C1024 0.931 . S
H1041 C1029 0.929 1_545 S
H1042 C1030 0.960 . S
H1043 C1030 0.962 . S
H1044 C1030 0.960 . S
H1045 C1031 0.961 . S
H1046 C1031 0.961 . S
H1047 C1031 0.961 . S
H1048 C1032 0.931 . S
H1049 C1037 0.930 . S
H1050 C1038 0.956 . S
H1051 C1038 0.961 . S
H1052 C1038 0.961 . S
H1053 C1039 0.958 . S
H1054 C1039 0.961 . S
H1055 C1039 0.960 . S
C1056 C1057 1.391 . S
C1056 C1058 1.394 . S
C1056 H1072 0.931 . S
C1057 C1056 1.391 . S
C1057 C1061 1.376 1_455 S
C1058 C1056 1.394 . S
C1058 C1059 1.369 1_455 S
C1058 C1062 1.531 . S
C1059 C1058 1.369 1_655 S
C1059 C1060 1.410 . S
C1059 C1067 1.503 . S
C1060 C1059 1.410 . S
C1060 C1061 1.392 . S
C1060 C1063 1.511 . S
C1061 C1057 1.376 1_655 S
C1061 C1060 1.392 . S
C1061 H1073 0.929 . S
C1062 C1058 1.531 . S
C1062 H1074 0.960 . S
C1062 H1075 0.962 . S
C1062 H1076 0.960 . S
C1063 C1060 1.511 . S
C1063 H1077 0.961 . S
C1063 H1078 0.961 . S
C1063 H1079 0.961 . S
C1064 C1065 1.370 . S
C1064 C1066 1.363 . S
C1064 H1080 0.931 . S
C1065 C1064 1.370 . S
C1065 C1069 1.408 . S
C1066 C1064 1.363 . S
C1066 C1067 1.370 . S
C1066 C1070 1.524 . S
C1067 C1059 1.503 . S
C1067 C1066 1.370 . S
C1067 C1068 1.403 . S
C1068 C1067 1.403 . S
C1068 C1069 1.404 . S
C1068 C1071 1.539 . S
C1069 C1065 1.408 . S
C1069 C1068 1.404 . S
C1069 H1081 0.930 . S
C1070 C1066 1.524 . S
C1070 H1082 0.956 . S
C1070 H1083 0.961 . S
C1070 H1084 0.961 . S
C1071 C1068 1.539 . S
C1071 H1085 0.958 . S
C1071 H1086 0.961 . S
C1071 H1087 0.960 . S
H1072 C1056 0.931 . S
H1073 C1061 0.929 . S
H1074 C1062 0.960 . S
H1075 C1062 0.962 . S
H1076 C1062 0.960 . S
H1077 C1063 0.961 . S
H1078 C1063 0.961 . S
H1079 C1063 0.961 . S
H1080 C1064 0.931 . S
H1081 C1069 0.930 . S
H1082 C1070 0.956 . S
H1083 C1070 0.961 . S
H1084 C1070 0.961 . S
H1085 C1071 0.958 . S
H1086 C1071 0.961 . S
H1087 C1071 0.960 . S
C1088 C1089 1.391 . S
C1088 C1090 1.394 . S
C1088 H1104 0.931 . S
C1089 C1088 1.391 . S
C1089 C1093 1.376 . S
C1090 C1088 1.394 . S
C1090 C1091 1.369 . S
C1090 C1094 1.531 . S
C1091 C1090 1.369 . S
C1091 C1092 1.410 . S
C1091 C1099 1.503 . S
C1092 C1091 1.410 . S
C1092 C1093 1.392 . S
C1092 C1095 1.511 . S
C1093 C1089 1.376 . S
C1093 C1092 1.392 . S
C1093 H1105 0.929 . S
C1094 C1090 1.531 . S
C1094 H1106 0.960 . S
C1094 H1107 0.962 . S
C1094 H1108 0.960 . S
C1095 C1092 1.511 . S
C1095 H1109 0.961 . S
C1095 H1110 0.961 . S
C1095 H1111 0.961 . S
C1096 C1097 1.370 . S
C1096 C1098 1.363 . S
C1096 H1112 0.931 . S
C1097 C1096 1.370 . S
C1097 C1101 1.408 . S
C1098 C1096 1.363 . S
C1098 C1099 1.370 . S
C1098 C1102 1.524 . S
C1099 C1091 1.503 . S
C1099 C1098 1.370 . S
C1099 C1100 1.403 . S
C1100 C1099 1.403 . S
C1100 C1101 1.404 . S
C1100 C1103 1.539 . S
C1101 C1097 1.408 . S
C1101 C1100 1.404 . S
C1101 H1113 0.930 . S
C1102 C1098 1.524 . S
C1102 H1114 0.956 . S
C1102 H1115 0.961 . S
C1102 H1116 0.961 . S
C1103 C1100 1.539 . S
C1103 H1117 0.958 . S
C1103 H1118 0.961 . S
C1103 H1119 0.960 . S
H1104 C1088 0.931 . S
H1105 C1093 0.929 . S
H1106 C1094 0.960 . S
H1107 C1094 0.962 . S
H1108 C1094 0.960 . S
H1109 C1095 0.961 . S
H1110 C1095 0.961 . S
H1111 C1095 0.961 . S
H1112 C1096 0.931 . S
H1113 C1101 0.930 . S
H1114 C1102 0.956 . S
H1115 C1102 0.961 . S
H1116 C1102 0.961 . S
H1117 C1103 0.958 . S
H1118 C1103 0.961 . S
H1119 C1103 0.960 . S
C1120 C1121 1.391 . S
C1120 C1122 1.394 . S
C1120 H1136 0.931 . S
C1121 C1120 1.391 . S
C1121 C1125 1.376 . S
C1122 C1120 1.394 . S
C1122 C1123 1.369 . S
C1122 C1126 1.531 1_655 S
C1123 C1122 1.369 . S
C1123 C1124 1.410 . S
C1123 C1131 1.503 . S
C1124 C1123 1.410 . S
C1124 C1125 1.392 . S
C1124 C1127 1.511 . S
C1125 C1121 1.376 . S
C1125 C1124 1.392 . S
C1125 H1137 0.929 . S
C1126 C1122 1.531 1_455 S
C1126 H1138 0.960 . S
C1126 H1139 0.962 . S
C1126 H1140 0.960 . S
C1127 C1124 1.511 . S
C1127 H1141 0.961 . S
C1127 H1142 0.961 . S
C1127 H1143 0.961 . S
C1128 C1129 1.370 . S
C1128 C1130 1.363 1_455 S
C1128 H1144 0.931 . S
C1129 C1128 1.370 . S
C1129 C1133 1.408 1_455 S
C1130 C1128 1.363 1_655 S
C1130 C1131 1.370 . S
C1130 C1134 1.524 . S
C1131 C1123 1.503 . S
C1131 C1130 1.370 . S
C1131 C1132 1.403 . S
C1132 C1131 1.403 . S
C1132 C1133 1.404 . S
C1132 C1135 1.539 . S
C1133 C1129 1.408 1_655 S
C1133 C1132 1.404 . S
C1133 H1145 0.930 . S
C1134 C1130 1.524 . S
C1134 H1146 0.956 . S
C1134 H1147 0.961 . S
C1134 H1148 0.961 . S
C1135 C1132 1.539 . S
C1135 H1149 0.958 . S
C1135 H1150 0.961 . S
C1135 H1151 0.960 . S
H1136 C1120 0.931 . S
H1137 C1125 0.929 . S
H1138 C1126 0.960 . S
H1139 C1126 0.962 . S
H1140 C1126 0.960 . S
H1141 C1127 0.961 . S
H1142 C1127 0.961 . S
H1143 C1127 0.961 . S
H1144 C1128 0.931 . S
H1145 C1133 0.930 . S
H1146 C1134 0.956 . S
H1147 C1134 0.961 . S
H1148 C1134 0.961 . S
H1149 C1135 0.958 . S
H1150 C1135 0.961 . S
H1151 C1135 0.960 . S
C1152 C1153 1.391 . S
C1152 C1154 1.394 . S
C1152 H1168 0.931 . S
C1153 C1152 1.391 . S
C1153 C1157 1.376 . S
C1154 C1152 1.394 . S
C1154 C1155 1.369 . S
C1154 C1158 1.531 . S
C1155 C1154 1.369 . S
C1155 C1156 1.410 . S
C1155 C1163 1.503 . S
C1156 C1155 1.410 . S
C1156 C1157 1.392 . S
C1156 C1159 1.511 . S
C1157 C1153 1.376 . S
C1157 C1156 1.392 . S
C1157 H1169 0.929 . S
C1158 C1154 1.531 . S
C1158 H1170 0.960 . S
C1158 H1171 0.962 . S
C1158 H1172 0.960 . S
C1159 C1156 1.511 . S
C1159 H1173 0.961 . S
C1159 H1174 0.961 . S
C1159 H1175 0.961 . S
C1160 C1161 1.370 . S
C1160 C1162 1.363 . S
C1160 H1176 0.931 . S
C1161 C1160 1.370 . S
C1161 C1165 1.408 . S
C1162 C1160 1.363 . S
C1162 C1163 1.370 . S
C1162 C1166 1.524 . S
C1163 C1155 1.503 . S
C1163 C1162 1.370 . S
C1163 C1164 1.403 . S
C1164 C1163 1.403 . S
C1164 C1165 1.404 . S
C1164 C1167 1.539 . S
C1165 C1161 1.408 . S
C1165 C1164 1.404 . S
C1165 H1177 0.930 1_545 S
C1166 C1162 1.524 . S
C1166 H1178 0.956 . S
C1166 H1179 0.961 . S
C1166 H1180 0.961 . S
C1167 C1164 1.539 . S
C1167 H1181 0.958 . S
C1167 H1182 0.961 . S
C1167 H1183 0.960 . S
H1168 C1152 0.931 . S
H1169 C1157 0.929 . S
H1170 C1158 0.960 . S
H1171 C1158 0.962 . S
H1172 C1158 0.960 . S
H1173 C1159 0.961 . S
H1174 C1159 0.961 . S
H1175 C1159 0.961 . S
H1176 C1160 0.931 . S
H1177 C1165 0.930 1_565 S
H1178 C1166 0.956 . S
H1179 C1166 0.961 . S
H1180 C1166 0.961 . S
H1181 C1167 0.958 . S
H1182 C1167 0.961 . S
H1183 C1167 0.960 . S
C1184 C1185 1.391 . S
C1184 C1186 1.394 . S
C1184 H1200 0.931 . S
C1185 C1184 1.391 . S
C1185 C1189 1.376 . S
C1186 C1184 1.394 . S
C1186 C1187 1.369 . S
C1186 C1190 1.531 1_455 S
C1187 C1186 1.369 . S
C1187 C1188 1.410 . S
C1187 C1195 1.503 . S
C1188 C1187 1.410 . S
C1188 C1189 1.392 . S
C1188 C1191 1.511 . S
C1189 C1185 1.376 . S
C1189 C1188 1.392 . S
C1189 H1201 0.929 . S
C1190 C1186 1.531 1_655 S
C1190 H1202 0.960 . S
C1190 H1203 0.962 . S
C1190 H1204 0.960 . S
C1191 C1188 1.511 . S
C1191 H1205 0.961 . S
C1191 H1206 0.961 . S
C1191 H1207 0.961 . S
C1192 C1193 1.370 1_455 S
C1192 C1194 1.363 . S
C1192 H1208 0.931 . S
C1193 C1192 1.370 1_655 S
C1193 C1197 1.408 . S
C1194 C1192 1.363 . S
C1194 C1195 1.370 . S
C1194 C1198 1.524 . S
C1195 C1187 1.503 . S
C1195 C1194 1.370 . S
C1195 C1196 1.403 . S
C1196 C1195 1.403 . S
C1196 C1197 1.404 1_455 S
C1196 C1199 1.539 . S
C1197 C1193 1.408 . S
C1197 C1196 1.404 1_655 S
C1197 H1209 0.930 . S
C1198 C1194 1.524 . S
C1198 H1210 0.956 . S
C1198 H1211 0.961 . S
C1198 H1212 0.961 . S
C1199 C1196 1.539 . S
C1199 H1213 0.958 1_455 S
C1199 H1214 0.961 . S
C1199 H1215 0.960 . S
H1200 C1184 0.931 . S
H1201 C1189 0.929 . S
H1202 C1190 0.960 . S
H1203 C1190 0.962 . S
H1204 C1190 0.960 . S
H1205 C1191 0.961 . S
H1206 C1191 0.961 . S
H1207 C1191 0.961 . S
H1208 C1192 0.931 . S
H1209 C1197 0.930 . S
H1210 C1198 0.956 . S
H1211 C1198 0.961 . S
H1212 C1198 0.961 . S
H1213 C1199 0.958 1_655 S
H1214 C1199 0.961 . S
H1215 C1199 0.960 . S
C1216 C1217 1.391 . S
C1216 C1218 1.394 . S
C1216 H1232 0.931 . S
C1217 C1216 1.391 . S
C1217 C1221 1.376 . S
C1218 C1216 1.394 . S
C1218 C1219 1.369 . S
C1218 C1222 1.531 . S
C1219 C1218 1.369 . S
C1219 C1220 1.410 . S
C1219 C1227 1.503 . S
C1220 C1219 1.410 . S
C1220 C1221 1.392 . S
C1220 C1223 1.511 . S
C1221 C1217 1.376 . S
C1221 C1220 1.392 . S
C1221 H1233 0.929 . S
C1222 C1218 1.531 . S
C1222 H1234 0.960 . S
C1222 H1235 0.962 . S
C1222 H1236 0.960 . S
C1223 C1220 1.511 . S
C1223 H1237 0.961 . S
C1223 H1238 0.961 . S
C1223 H1239 0.961 . S
C1224 C1225 1.370 . S
C1224 C1226 1.363 . S
C1224 H1240 0.931 . S
C1225 C1224 1.370 . S
C1225 C1229 1.408 . S
C1226 C1224 1.363 . S
C1226 C1227 1.370 . S
C1226 C1230 1.524 . S
C1227 C1219 1.503 . S
C1227 C1226 1.370 . S
C1227 C1228 1.403 . S
C1228 C1227 1.403 . S
C1228 C1229 1.404 . S
C1228 C1231 1.539 . S
C1229 C1225 1.408 . S
C1229 C1228 1.404 . S
C1229 H1241 0.930 . S
C1230 C1226 1.524 . S
C1230 H1242 0.956 . S
C1230 H1243 0.961 . S
C1230 H1244 0.961 . S
C1231 C1228 1.539 . S
C1231 H1245 0.958 . S
C1231 H1246 0.961 . S
C1231 H1247 0.960 . S
H1232 C1216 0.931 . S
H1233 C1221 0.929 . S
H1234 C1222 0.960 . S
H1235 C1222 0.962 . S
H1236 C1222 0.960 . S
H1237 C1223 0.961 . S
H1238 C1223 0.961 . S
H1239 C1223 0.961 . S
H1240 C1224 0.931 . S
H1241 C1229 0.930 . S
H1242 C1230 0.956 . S
H1243 C1230 0.961 . S
H1244 C1230 0.961 . S
H1245 C1231 0.958 . S
H1246 C1231 0.961 . S
H1247 C1231 0.960 . S
C1248 C1249 1.391 . S
C1248 C1250 1.394 . S
C1248 H1264 0.931 . S
C1249 C1248 1.391 . S
C1249 C1253 1.376 . S
C1250 C1248 1.394 . S
C1250 C1251 1.369 . S
C1250 C1254 1.531 1_455 S
C1251 C1250 1.369 . S
C1251 C1252 1.410 . S
C1251 C1259 1.503 . S
C1252 C1251 1.410 . S
C1252 C1253 1.392 . S
C1252 C1255 1.511 . S
C1253 C1249 1.376 . S
C1253 C1252 1.392 . S
C1253 H1265 0.929 . S
C1254 C1250 1.531 1_655 S
C1254 H1266 0.960 . S
C1254 H1267 0.962 . S
C1254 H1268 0.960 . S
C1255 C1252 1.511 . S
C1255 H1269 0.961 . S
C1255 H1270 0.961 . S
C1255 H1271 0.961 . S
C1256 C1257 1.370 . S
C1256 C1258 1.363 1_655 S
C1256 H1272 0.931 . S
C1257 C1256 1.370 . S
C1257 C1261 1.408 1_655 S
C1258 C1256 1.363 1_455 S
C1258 C1259 1.370 . S
C1258 C1262 1.524 . S
C1259 C1251 1.503 . S
C1259 C1258 1.370 . S
C1259 C1260 1.403 . S
C1260 C1259 1.403 . S
C1260 C1261 1.404 . S
C1260 C1263 1.539 . S
C1261 C1257 1.408 1_455 S
C1261 C1260 1.404 . S
C1261 H1273 0.913 1_545 S
C1262 C1258 1.524 . S
C1262 H1274 0.956 1_455 S
C1262 H1275 0.961 . S
C1262 H1276 0.961 1_455 S
C1263 C1260 1.539 . S
C1263 H1277 0.958 . S
C1263 H1278 0.961 . S
C1263 H1279 0.960 . S
H1264 C1248 0.931 . S
H1265 C1253 0.929 . S
H1266 C1254 0.960 . S
H1267 C1254 0.962 . S
H1268 C1254 0.960 . S
H1269 C1255 0.961 . S
H1270 C1255 0.961 . S
H1271 C1255 0.961 . S
H1272 C1256 0.931 . S
H1273 C1261 0.913 1_565 S
H1274 C1262 0.956 1_655 S
H1275 C1262 0.961 . S
H1276 C1262 0.961 1_655 S
H1277 C1263 0.958 . S
H1278 C1263 0.961 . S
H1279 C1263 0.960 . S
C1280 C1281 1.391 . S
C1280 C1282 1.394 . S
C1280 H1296 0.931 . S
C1281 C1280 1.391 . S
C1281 C1285 1.376 . S
C1282 C1280 1.394 . S
C1282 C1283 1.369 . S
C1282 C1286 1.531 . S
C1283 C1282 1.369 . S
C1283 C1284 1.410 . S
C1283 C1291 1.503 . S
C1284 C1283 1.410 . S
C1284 C1285 1.392 . S
C1284 C1287 1.511 . S
C1285 C1281 1.376 . S
C1285 C1284 1.392 . S
C1285 H1297 0.929 . S
C1286 C1282 1.531 . S
C1286 H1298 0.960 . S
C1286 H1299 0.962 . S
C1286 H1300 0.960 . S
C1287 C1284 1.511 . S
C1287 H1301 0.961 . S
C1287 H1302 0.961 . S
C1287 H1303 0.961 . S
C1288 C1289 1.370 . S
C1288 C1290 1.363 . S
C1288 H1304 0.931 . S
C1289 C1288 1.370 . S
C1289 C1293 1.408 . S
C1290 C1288 1.363 . S
C1290 C1291 1.370 . S
C1290 C1294 1.524 . S
C1291 C1283 1.503 . S
C1291 C1290 1.370 . S
C1291 C1292 1.403 . S
C1292 C1291 1.403 . S
C1292 C1293 1.404 . S
C1292 C1295 1.539 . S
C1293 C1289 1.408 . S
C1293 C1292 1.404 . S
C1293 H1305 0.930 . S
C1294 C1290 1.524 . S
C1294 H1306 0.956 . S
C1294 H1307 0.961 . S
C1294 H1308 0.961 . S
C1295 C1292 1.539 . S
C1295 H1309 0.958 . S
C1295 H1310 0.961 . S
C1295 H1311 0.960 . S
H1296 C1280 0.931 . S
H1297 C1285 0.929 . S
H1298 C1286 0.960 . S
H1299 C1286 0.962 . S
H1300 C1286 0.960 . S
H1301 C1287 0.961 . S
H1302 C1287 0.961 . S
H1303 C1287 0.961 . S
H1304 C1288 0.931 . S
H1305 C1293 0.930 . S
H1306 C1294 0.956 . S
H1307 C1294 0.961 . S
H1308 C1294 0.961 . S
H1309 C1295 0.958 . S
H1310 C1295 0.961 . S
H1311 C1295 0.960 . S
C1312 C1313 1.391 1_655 S
C1312 C1314 1.394 . S
C1312 H1328 0.931 . S
C1313 C1312 1.391 1_455 S
C1313 C1317 1.376 . S
C1314 C1312 1.394 . S
C1314 C1315 1.369 . S
C1314 C1318 1.531 . S
C1315 C1314 1.369 . S
C1315 C1316 1.410 1_655 S
C1315 C1323 1.503 . S
C1316 C1315 1.410 1_455 S
C1316 C1317 1.392 . S
C1316 C1319 1.511 . S
C1317 C1313 1.376 . S
C1317 C1316 1.392 . S
C1317 H1329 0.929 . S
C1318 C1314 1.531 . S
C1318 H1330 0.960 . S
C1318 H1331 0.962 . S
C1318 H1332 0.960 . S
C1319 C1316 1.511 . S
C1319 H1333 0.961 . S
C1319 H1334 0.961 1_455 S
C1319 H1335 0.961 . S
C1320 C1321 1.370 . S
C1320 C1322 1.363 . S
C1320 H1336 0.931 . S
C1321 C1320 1.370 . S
C1321 C1325 1.408 . S
C1322 C1320 1.363 . S
C1322 C1323 1.370 . S
C1322 C1326 1.524 . S
C1323 C1315 1.503 . S
C1323 C1322 1.370 . S
C1323 C1324 1.403 . S
C1324 C1323 1.403 . S
C1324 C1325 1.404 . S
C1324 C1327 1.539 . S
C1325 C1321 1.408 . S
C1325 C1324 1.404 . S
C1325 H1337 0.930 1_565 S
C1326 C1322 1.524 . S
C1326 H1338 0.956 . S
C1326 H1339 0.961 . S
C1326 H1340 0.961 . S
C1327 C1324 1.539 . S
C1327 H1341 0.958 . S
C1327 H1342 0.961 1_655 S
C1327 H1343 0.960 1_655 S
H1328 C1312 0.931 . S
H1329 C1317 0.929 . S
H1330 C1318 0.960 . S
H1331 C1318 0.962 . S
H1332 C1318 0.960 . S
H1333 C1319 0.961 . S
H1334 C1319 0.961 1_655 S
H1335 C1319 0.961 . S
H1336 C1320 0.931 . S
H1337 C1325 0.930 1_545 S
H1338 C1326 0.956 . S
H1339 C1326 0.961 . S
H1340 C1326 0.961 . S
H1341 C1327 0.958 . S
H1342 C1327 0.961 1_455 S
H1343 C1327 0.960 1_455 S
C1344 C1345 1.391 . S
C1344 C1346 1.394 . S
C1344 H1360 0.931 . S
C1345 C1344 1.391 . S
C1345 C1349 1.376 . S
C1346 C1344 1.394 . S
C1346 C1347 1.369 . S
C1346 C1350 1.531 . S
C1347 C1346 1.369 . S
C1347 C1348 1.410 . S
C1347 C1355 1.503 . S
C1348 C1347 1.410 . S
C1348 C1349 1.392 . S
C1348 C1351 1.511 . S
C1349 C1345 1.376 . S
C1349 C1348 1.392 . S
C1349 H1361 0.929 . S
C1350 C1346 1.531 . S
C1350 H1362 0.960 . S
C1350 H1363 0.962 . S
C1350 H1364 0.960 . S
C1351 C1348 1.511 . S
C1351 H1365 0.961 . S
C1351 H1366 0.961 . S
C1351 H1367 0.961 . S
C1352 C1353 1.370 . S
C1352 C1354 1.363 . S
C1352 H1368 0.931 . S
C1353 C1352 1.370 . S
C1353 C1357 1.408 . S
C1354 C1352 1.363 . S
C1354 C1355 1.370 . S
C1354 C1358 1.524 . S
C1355 C1347 1.503 . S
C1355 C1354 1.370 . S
C1355 C1356 1.403 . S
C1356 C1355 1.403 . S
C1356 C1357 1.404 . S
C1356 C1359 1.539 . S
C1357 C1353 1.408 . S
C1357 C1356 1.404 . S
C1357 H1369 0.930 . S
C1358 C1354 1.524 . S
C1358 H1370 0.956 . S
C1358 H1371 0.961 . S
C1358 H1372 0.961 . S
C1359 C1356 1.539 . S
C1359 H1373 0.958 . S
C1359 H1374 0.961 . S
C1359 H1375 0.960 . S
H1360 C1344 0.931 . S
H1361 C1349 0.929 . S
H1362 C1350 0.960 . S
H1363 C1350 0.962 . S
H1364 C1350 0.960 . S
H1365 C1351 0.961 . S
H1366 C1351 0.961 . S
H1367 C1351 0.961 . S
H1368 C1352 0.931 . S
H1369 C1357 0.930 . S
H1370 C1358 0.956 . S
H1371 C1358 0.961 . S
H1372 C1358 0.961 . S
H1373 C1359 0.958 . S
H1374 C1359 0.961 . S
H1375 C1359 0.960 . S
C1376 C1377 1.391 1_655 S
C1376 C1378 1.394 . S
C1376 H1392 0.931 . S
C1377 C1376 1.391 1_455 S
C1377 C1381 1.376 . S
C1378 C1376 1.394 . S
C1378 C1379 1.369 . S
C1378 C1382 1.531 . S
C1379 C1378 1.369 . S
C1379 C1380 1.410 1_655 S
C1379 C1387 1.503 . S
C1380 C1379 1.410 1_455 S
C1380 C1381 1.392 . S
C1380 C1383 1.511 . S
C1381 C1377 1.376 . S
C1381 C1380 1.392 . S
C1381 H1393 0.929 . S
C1382 C1378 1.531 . S
C1382 H1394 0.960 . S
C1382 H1395 0.962 . S
C1382 H1396 0.960 . S
C1383 C1380 1.511 . S
C1383 H1397 0.961 . S
C1383 H1398 0.961 . S
C1383 H1399 0.961 . S
C1384 C1385 1.370 . S
C1384 C1386 1.363 . S
C1384 H1400 0.931 . S
C1385 C1384 1.370 . S
C1385 C1389 1.408 . S
C1386 C1384 1.363 . S
C1386 C1387 1.370 . S
C1386 C1390 1.524 . S
C1387 C1379 1.503 . S
C1387 C1386 1.370 . S
C1387 C1388 1.403 . S
C1388 C1387 1.403 . S
C1388 C1389 1.404 . S
C1388 C1391 1.539 . S
C1389 C1385 1.408 . S
C1389 C1388 1.404 . S
C1389 H1401 0.930 . S
C1390 C1386 1.524 . S
C1390 H1402 0.956 . S
C1390 H1403 0.961 . S
C1390 H1404 0.961 . S
C1391 C1388 1.539 . S
C1391 H1405 0.958 . S
C1391 H1406 0.961 . S
C1391 H1407 0.960 1_655 S
H1392 C1376 0.931 . S
H1393 C1381 0.929 . S
H1394 C1382 0.960 . S
H1395 C1382 0.962 . S
H1396 C1382 0.960 . S
H1397 C1383 0.961 . S
H1398 C1383 0.961 . S
H1399 C1383 0.961 . S
H1400 C1384 0.931 . S
H1401 C1389 0.930 . S
H1402 C1390 0.956 . S
H1403 C1390 0.961 . S
H1404 C1390 0.961 . S
H1405 C1391 0.958 . S
H1406 C1391 0.961 . S
H1407 C1391 0.960 1_455 S
C1408 C1409 1.391 . S
C1408 C1410 1.394 . S
C1408 H1424 0.931 . S
C1409 C1408 1.391 . S
C1409 C1413 1.376 . S
C1410 C1408 1.394 . S
C1410 C1411 1.369 . S
C1410 C1414 1.531 . S
C1411 C1410 1.369 . S
C1411 C1412 1.410 . S
C1411 C1419 1.503 . S
C1412 C1411 1.410 . S
C1412 C1413 1.392 . S
C1412 C1415 1.511 . S
C1413 C1409 1.376 . S
C1413 C1412 1.392 . S
C1413 H1425 0.929 . S
C1414 C1410 1.531 . S
C1414 H1426 0.960 . S
C1414 H1427 0.962 . S
C1414 H1428 0.960 . S
C1415 C1412 1.511 . S
C1415 H1429 0.961 . S
C1415 H1430 0.961 . S
C1415 H1431 0.961 . S
C1416 C1417 1.370 . S
C1416 C1418 1.363 . S
C1416 H1432 0.931 . S
C1417 C1416 1.370 . S
C1417 C1421 1.408 . S
C1418 C1416 1.363 . S
C1418 C1419 1.370 . S
C1418 C1422 1.524 . S
C1419 C1411 1.503 . S
C1419 C1418 1.370 . S
C1419 C1420 1.403 . S
C1420 C1419 1.403 . S
C1420 C1421 1.404 . S
C1420 C1423 1.539 . S
C1421 C1417 1.408 . S
C1421 C1420 1.404 . S
C1421 H1433 0.930 . S
C1422 C1418 1.524 . S
C1422 H1434 0.956 . S
C1422 H1435 0.961 . S
C1422 H1436 0.961 . S
C1423 C1420 1.539 . S
C1423 H1437 0.958 . S
C1423 H1438 0.961 . S
C1423 H1439 0.960 . S
H1424 C1408 0.931 . S
H1425 C1413 0.929 . S
H1426 C1414 0.960 . S
H1427 C1414 0.962 . S
H1428 C1414 0.960 . S
H1429 C1415 0.961 . S
H1430 C1415 0.961 . S
H1431 C1415 0.961 . S
H1432 C1416 0.931 . S
H1433 C1421 0.930 . S
H1434 C1422 0.956 . S
H1435 C1422 0.961 . S
H1436 C1422 0.961 . S
H1437 C1423 0.958 . S
H1438 C1423 0.961 . S
H1439 C1423 0.960 . S
C1440 C1441 1.391 . S
C1440 C1442 1.394 . S
C1440 H1456 0.931 . S
C1441 C1440 1.391 . S
C1441 C1445 1.376 . S
C1442 C1440 1.394 . S
C1442 C1443 1.369 . S
C1442 C1446 1.531 . S
C1443 C1442 1.369 . S
C1443 C1444 1.410 . S
C1443 C1451 1.503 . S
C1444 C1443 1.410 . S
C1444 C1445 1.392 . S
C1444 C1447 1.511 1_455 S
C1445 C1441 1.376 . S
C1445 C1444 1.392 . S
C1445 H1457 0.929 . S
C1446 C1442 1.531 . S
C1446 H1458 0.960 . S
C1446 H1459 0.962 . S
C1446 H1460 0.960 . S
C1447 C1444 1.511 1_655 S
C1447 H1461 0.961 . S
C1447 H1462 0.961 . S
C1447 H1463 0.961 . S
C1448 C1449 1.370 1_455 S
C1448 C1450 1.363 . S
C1448 H1464 0.931 . S
C1449 C1448 1.370 1_655 S
C1449 C1453 1.408 . S
C1450 C1448 1.363 . S
C1450 C1451 1.370 . S
C1450 C1454 1.524 . S
C1451 C1443 1.503 . S
C1451 C1450 1.370 . S
C1451 C1452 1.403 1_455 S
C1452 C1451 1.403 1_655 S
C1452 C1453 1.404 . S
C1452 C1455 1.539 . S
C1453 C1449 1.408 . S
C1453 C1452 1.404 . S
C1453 H1465 0.930 . S
C1454 C1450 1.524 . S
C1454 H1466 0.956 . S
C1454 H1467 0.961 . S
C1454 H1468 0.961 . S
C1455 C1452 1.539 . S
C1455 H1469 0.958 . S
C1455 H1470 0.961 . S
C1455 H1471 0.960 . S
H1456 C1440 0.931 . S
H1457 C1445 0.929 . S
H1458 C1446 0.960 . S
H1459 C1446 0.962 . S
H1460 C1446 0.960 . S
H1461 C1447 0.961 . S
H1462 C1447 0.961 . S
H1463 C1447 0.961 . S
H1464 C1448 0.931 . S
H1465 C1453 0.930 . S
H1466 C1454 0.956 . S
H1467 C1454 0.961 . S
H1468 C1454 0.961 . S
H1469 C1455 0.958 . S
H1470 C1455 0.961 . S
H1471 C1455 0.960 . S
C1472 C1473 1.391 . S
C1472 C1474 1.394 . S
C1472 H1488 0.931 . S
C1473 C1472 1.391 . S
C1473 C1477 1.376 . S
C1474 C1472 1.394 . S
C1474 C1475 1.369 . S
C1474 C1478 1.531 . S
C1475 C1474 1.369 . S
C1475 C1476 1.410 . S
C1475 C1483 1.503 . S
C1476 C1475 1.410 . S
C1476 C1477 1.392 . S
C1476 C1479 1.511 . S
C1477 C1473 1.376 . S
C1477 C1476 1.392 . S
C1477 H1489 0.929 . S
C1478 C1474 1.531 . S
C1478 H1490 0.960 . S
C1478 H1491 0.962 . S
C1478 H1492 0.960 . S
C1479 C1476 1.511 . S
C1479 H1493 0.961 . S
C1479 H1494 0.961 . S
C1479 H1495 0.961 . S
C1480 C1481 1.370 . S
C1480 C1482 1.363 . S
C1480 H1496 0.931 . S
C1481 C1480 1.370 . S
C1481 C1485 1.408 . S
C1482 C1480 1.363 . S
C1482 C1483 1.370 . S
C1482 C1486 1.524 . S
C1483 C1475 1.503 . S
C1483 C1482 1.370 . S
C1483 C1484 1.403 . S
C1484 C1483 1.403 . S
C1484 C1485 1.404 . S
C1484 C1487 1.539 . S
C1485 C1481 1.408 . S
C1485 C1484 1.404 . S
C1485 H1497 0.930 . S
C1486 C1482 1.524 . S
C1486 H1498 0.956 . S
C1486 H1499 0.961 . S
C1486 H1500 0.961 . S
C1487 C1484 1.539 . S
C1487 H1501 0.958 . S
C1487 H1502 0.961 . S
C1487 H1503 0.960 . S
H1488 C1472 0.931 . S
H1489 C1477 0.929 . S
H1490 C1478 0.960 . S
H1491 C1478 0.962 . S
H1492 C1478 0.960 . S
H1493 C1479 0.961 . S
H1494 C1479 0.961 . S
H1495 C1479 0.961 . S
H1496 C1480 0.931 . S
H1497 C1485 0.930 . S
H1498 C1486 0.956 . S
H1499 C1486 0.961 . S
H1500 C1486 0.961 . S
H1501 C1487 0.958 . S
H1502 C1487 0.961 . S
H1503 C1487 0.960 . S
C1504 C1505 1.391 1_455 S
C1504 C1506 1.394 . S
C1504 H1520 0.931 1_455 S
C1505 C1504 1.391 1_655 S
C1505 C1509 1.376 1_655 S
C1506 C1504 1.394 . S
C1506 C1507 1.369 . S
C1506 C1510 1.531 . S
C1507 C1506 1.369 . S
C1507 C1508 1.410 . S
C1507 C1515 1.503 . S
C1508 C1507 1.410 . S
C1508 C1509 1.392 . S
C1508 C1511 1.511 . S
C1509 C1505 1.376 1_455 S
C1509 C1508 1.392 . S
C1509 H1521 0.929 . S
C1510 C1506 1.531 . S
C1510 H1522 0.960 . S
C1510 H1523 0.962 . S
C1510 H1524 0.960 . S
C1511 C1508 1.511 . S
C1511 H1525 0.961 . S
C1511 H1526 0.961 . S
C1511 H1527 0.961 . S
C1512 C1513 1.370 . S
C1512 C1514 1.363 . S
C1512 H1528 0.931 . S
C1513 C1512 1.370 . S
C1513 C1517 1.408 . S
C1514 C1512 1.363 . S
C1514 C1515 1.370 . S
C1514 C1518 1.524 1_455 S
C1515 C1507 1.503 . S
C1515 C1514 1.370 . S
C1515 C1516 1.403 . S
C1516 C1515 1.403 . S
C1516 C1517 1.404 . S
C1516 C1519 1.539 . S
C1517 C1513 1.408 . S
C1517 C1516 1.404 . S
C1517 H1529 0.930 . S
C1518 C1514 1.524 1_655 S
C1518 H1530 0.956 . S
C1518 H1531 0.961 . S
C1518 H1532 0.961 . S
C1519 C1516 1.539 . S
C1519 H1533 0.958 . S
C1519 H1534 0.961 . S
C1519 H1535 0.960 . S
H1520 C1504 0.931 1_655 S
H1521 C1509 0.929 . S
H1522 C1510 0.960 . S
H1523 C1510 0.962 . S
H1524 C1510 0.960 . S
H1525 C1511 0.961 . S
H1526 C1511 0.961 . S
H1527 C1511 0.961 . S
H1528 C1512 0.931 . S
H1529 C1517 0.930 . S
H1530 C1518 0.956 . S
H1531 C1518 0.961 . S
H1532 C1518 0.961 . S
H1533 C1519 0.958 . S
H1534 C1519 0.961 . S
H1535 C1519 0.960 . S
C1536 C1537 1.391 . S
C1536 C1538 1.394 . S
C1536 H1552 0.931 . S
C1537 C1536 1.391 . S
C1537 C1541 1.376 . S
C1538 C1536 1.394 . S
C1538 C1539 1.369 . S
C1538 C1542 1.531 . S
C1539 C1538 1.369 . S
C1539 C1540 1.410 . S
C1539 C1547 1.503 . S
C1540 C1539 1.410 . S
C1540 C1541 1.392 . S
C1540 C1543 1.511 . S
C1541 C1537 1.376 . S
C1541 C1540 1.392 . S
C1541 H1553 0.929 . S
C1542 C1538 1.531 . S
C1542 H1554 0.960 . S
C1542 H1555 0.962 . S
C1542 H1556 0.960 . S
C1543 C1540 1.511 . S
C1543 H1557 0.961 . S
C1543 H1558 0.961 . S
C1543 H1559 0.961 . S
C1544 C1545 1.370 . S
C1544 C1546 1.363 . S
C1544 H1560 0.931 . S
C1545 C1544 1.370 . S
C1545 C1549 1.408 . S
C1546 C1544 1.363 . S
C1546 C1547 1.370 . S
C1546 C1550 1.524 . S
C1547 C1539 1.503 . S
C1547 C1546 1.370 . S
C1547 C1548 1.403 . S
C1548 C1547 1.403 . S
C1548 C1549 1.404 . S
C1548 C1551 1.539 . S
C1549 C1545 1.408 . S
C1549 C1548 1.404 . S
C1549 H1561 0.930 . S
C1550 C1546 1.524 . S
C1550 H1562 0.956 . S
C1550 H1563 0.961 . S
C1550 H1564 0.961 . S
C1551 C1548 1.539 . S
C1551 H1565 0.958 . S
C1551 H1566 0.961 . S
C1551 H1567 0.960 . S
H1552 C1536 0.931 . S
H1553 C1541 0.929 . S
H1554 C1542 0.960 . S
H1555 C1542 0.962 . S
H1556 C1542 0.960 . S
H1557 C1543 0.961 . S
H1558 C1543 0.961 . S
H1559 C1543 0.961 . S
H1560 C1544 0.931 . S
H1561 C1549 0.930 . S
H1562 C1550 0.956 . S
H1563 C1550 0.961 . S
H1564 C1550 0.961 . S
H1565 C1551 0.958 . S
H1566 C1551 0.961 . S
H1567 C1551 0.960 . S
C1568 C1569 1.391 . S
C1568 C1570 1.394 . S
C1568 H1584 0.931 . S
C1569 C1568 1.391 . S
C1569 C1573 1.376 . S
C1570 C1568 1.394 . S
C1570 C1571 1.369 . S
C1570 C1574 1.531 1_655 S
C1571 C1570 1.369 . S
C1571 C1572 1.410 . S
C1571 C1579 1.503 . S
C1572 C1571 1.410 . S
C1572 C1573 1.392 . S
C1572 C1575 1.511 . S
C1573 C1569 1.376 . S
C1573 C1572 1.392 . S
C1573 H1585 0.929 . S
C1574 C1570 1.531 1_455 S
C1574 H1586 0.960 . S
C1574 H1587 0.962 . S
C1574 H1588 0.960 . S
C1575 C1572 1.511 . S
C1575 H1589 0.961 . S
C1575 H1590 0.961 . S
C1575 H1591 0.961 . S
C1576 C1577 1.370 . S
C1576 C1578 1.363 1_455 S
C1576 H1592 0.931 . S
C1577 C1576 1.370 . S
C1577 C1581 1.408 . S
C1578 C1576 1.363 1_655 S
C1578 C1579 1.370 . S
C1578 C1582 1.524 1_545 S
C1579 C1571 1.503 . S
C1579 C1578 1.370 . S
C1579 C1580 1.403 . S
C1580 C1579 1.403 . S
C1580 C1581 1.404 1_655 S
C1580 C1583 1.539 . S
C1581 C1577 1.408 . S
C1581 C1580 1.404 1_455 S
C1581 H1593 0.930 . S
C1582 C1578 1.524 1_565 S
C1582 H1594 0.956 . S
C1582 H1595 0.961 . S
C1582 H1596 0.961 . S
C1583 C1580 1.539 . S
C1583 H1597 0.958 . S
C1583 H1598 0.961 . S
C1583 H1599 0.960 . S
H1584 C1568 0.931 . S
H1585 C1573 0.929 . S
H1586 C1574 0.960 . S
H1587 C1574 0.962 . S
H1588 C1574 0.960 . S
H1589 C1575 0.961 . S
H1590 C1575 0.961 . S
H1591 C1575 0.961 . S
H1592 C1576 0.931 . S
H1593 C1581 0.930 . S
H1594 C1582 0.956 . S
H1595 C1582 0.961 . S
H1596 C1582 0.961 . S
H1597 C1583 0.958 . S
H1598 C1583 0.961 . S
H1599 C1583 0.960 . S
C1600 C1601 1.391 . S
C1600 C1602 1.394 . S
C1600 H1616 0.931 . S
C1601 C1600 1.391 . S
C1601 C1605 1.376 . S
C1602 C1600 1.394 . S
C1602 C1603 1.369 . S
C1602 C1606 1.531 . S
C1603 C1602 1.369 . S
C1603 C1604 1.410 . S
C1603 C1611 1.503 . S
C1604 C1603 1.410 . S
C1604 C1605 1.392 . S
C1604 C1607 1.511 . S
C1605 C1601 1.376 . S
C1605 C1604 1.392 . S
C1605 H1617 0.929 . S
C1606 C1602 1.531 . S
C1606 H1618 0.960 . S
C1606 H1619 0.962 . S
C1606 H1620 0.960 . S
C1607 C1604 1.511 . S
C1607 H1621 0.961 1_545 S
C1607 H1622 0.961 . S
C1607 H1623 0.961 . S
C1608 C1609 1.370 . S
C1608 C1610 1.363 . S
C1608 H1624 0.931 . S
C1609 C1608 1.370 . S
C1609 C1613 1.408 . S
C1610 C1608 1.363 . S
C1610 C1611 1.370 . S
C1610 C1614 1.524 . S
C1611 C1603 1.503 . S
C1611 C1610 1.370 . S
C1611 C1612 1.403 . S
C1612 C1611 1.403 . S
C1612 C1613 1.404 . S
C1612 C1615 1.539 . S
C1613 C1609 1.408 . S
C1613 C1612 1.404 . S
C1613 H1625 0.930 . S
C1614 C1610 1.524 . S
C1614 H1626 0.956 . S
C1614 H1627 0.961 . S
C1614 H1628 0.961 . S
C1615 C1612 1.539 . S
C1615 H1629 0.958 . S
C1615 H1630 0.961 . S
C1615 H1631 0.960 . S
H1616 C1600 0.931 . S
H1617 C1605 0.929 . S
H1618 C1606 0.960 . S
H1619 C1606 0.962 . S
H1620 C1606 0.960 . S
H1621 C1607 0.961 1_565 S
H1622 C1607 0.961 . S
H1623 C1607 0.961 . S
H1624 C1608 0.931 . S
H1625 C1613 0.930 . S
H1626 C1614 0.956 . S
H1627 C1614 0.961 . S
H1628 C1614 0.961 . S
H1629 C1615 0.958 . S
H1630 C1615 0.961 . S
H1631 C1615 0.960 . S
C1632 C1633 1.391 . S
C1632 C1634 1.394 . S
C1632 H1648 0.931 . S
C1633 C1632 1.391 . S
C1633 C1637 1.376 . S
C1634 C1632 1.394 . S
C1634 C1635 1.369 . S
C1634 C1638 1.531 . S
C1635 C1634 1.369 . S
C1635 C1636 1.410 . S
C1635 C1643 1.503 . S
C1636 C1635 1.410 . S
C1636 C1637 1.392 . S
C1636 C1639 1.511 1_655 S
C1637 C1633 1.376 . S
C1637 C1636 1.392 . S
C1637 H1649 0.929 . S
C1638 C1634 1.531 . S
C1638 H1650 0.960 . S
C1638 H1651 0.962 . S
C1638 H1652 0.960 . S
C1639 C1636 1.511 1_455 S
C1639 H1653 0.961 . S
C1639 H1654 0.961 . S
C1639 H1655 0.961 . S
C1640 C1641 1.370 . S
C1640 C1642 1.363 1_455 S
C1640 H1656 0.931 . S
C1641 C1640 1.370 . S
C1641 C1645 1.408 . S
C1642 C1640 1.363 1_655 S
C1642 C1643 1.370 . S
C1642 C1646 1.524 . S
C1643 C1635 1.503 . S
C1643 C1642 1.370 . S
C1643 C1644 1.403 . S
C1644 C1643 1.403 . S
C1644 C1645 1.404 1_655 S
C1644 C1647 1.539 . S
C1645 C1641 1.408 . S
C1645 C1644 1.404 1_455 S
C1645 H1657 0.930 . S
C1646 C1642 1.524 . S
C1646 H1658 0.956 . S
C1646 H1659 0.961 . S
C1646 H1660 0.961 . S
C1647 C1644 1.539 . S
C1647 H1661 0.958 . S
C1647 H1662 0.961 1_655 S
C1647 H1663 0.960 . S
H1648 C1632 0.931 . S
H1649 C1637 0.929 . S
H1650 C1638 0.960 . S
H1651 C1638 0.962 . S
H1652 C1638 0.960 . S
H1653 C1639 0.961 . S
H1654 C1639 0.961 . S
H1655 C1639 0.961 . S
H1656 C1640 0.931 . S
H1657 C1645 0.930 . S
H1658 C1646 0.956 . S
H1659 C1646 0.961 . S
H1660 C1646 0.961 . S
H1661 C1647 0.958 . S
H1662 C1647 0.961 1_455 S
H1663 C1647 0.960 . S
C1664 C1665 1.391 . S
C1664 C1666 1.394 . S
C1664 H1680 0.931 . S
C1665 C1664 1.391 . S
C1665 C1669 1.376 . S
C1666 C1664 1.394 . S
C1666 C1667 1.369 . S
C1666 C1670 1.531 . S
C1667 C1666 1.369 . S
C1667 C1668 1.410 . S
C1667 C1675 1.503 . S
C1668 C1667 1.410 . S
C1668 C1669 1.392 . S
C1668 C1671 1.511 . S
C1669 C1665 1.376 . S
C1669 C1668 1.392 . S
C1669 H1681 0.929 . S
C1670 C1666 1.531 . S
C1670 H1682 0.960 . S
C1670 H1683 0.962 . S
C1670 H1684 0.960 . S
C1671 C1668 1.511 . S
C1671 H1685 0.961 . S
C1671 H1686 0.961 . S
C1671 H1687 0.961 . S
C1672 C1673 1.370 . S
C1672 C1674 1.363 . S
C1672 H1688 0.931 . S
C1673 C1672 1.370 . S
C1673 C1677 1.408 . S
C1674 C1672 1.363 . S
C1674 C1675 1.370 . S
C1674 C1678 1.524 . S
C1675 C1667 1.503 . S
C1675 C1674 1.370 . S
C1675 C1676 1.403 . S
C1676 C1675 1.403 . S
C1676 C1677 1.404 . S
C1676 C1679 1.539 . S
C1677 C1673 1.408 . S
C1677 C1676 1.404 . S
C1677 H1689 0.930 . S
C1678 C1674 1.524 . S
C1678 H1690 0.956 . S
C1678 H1691 0.961 . S
C1678 H1692 0.961 . S
C1679 C1676 1.539 . S
C1679 H1693 0.958 . S
C1679 H1694 0.961 . S
C1679 H1695 0.960 . S
H1680 C1664 0.931 . S
H1681 C1669 0.929 . S
H1682 C1670 0.960 . S
H1683 C1670 0.962 . S
H1684 C1670 0.960 . S
H1685 C1671 0.961 . S
H1686 C1671 0.961 . S
H1687 C1671 0.961 . S
H1688 C1672 0.931 . S
H1689 C1677 0.930 . S
H1690 C1678 0.956 . S
H1691 C1678 0.961 . S
H1692 C1678 0.961 . S
H1693 C1679 0.958 . S
H1694 C1679 0.961 . S
H1695 C1679 0.960 . S
C1696 C1697 1.391 . S
C1696 C1698 1.394 . S
C1696 H1712 0.931 . S
C1697 C1696 1.391 . S
C1697 C1701 1.376 1_655 S
C1698 C1696 1.394 . S
C1698 C1699 1.369 1_655 S
C1698 C1702 1.531 . S
C1699 C1698 1.369 1_455 S
C1699 C1700 1.410 . S
C1699 C1707 1.503 . S
C1700 C1699 1.410 . S
C1700 C1701 1.392 . S
C1700 C1703 1.511 . S
C1701 C1697 1.376 1_455 S
C1701 C1700 1.392 . S
C1701 H1713 0.929 . S
C1702 C1698 1.531 . S
C1702 H1714 0.960 . S
C1702 H1715 0.962 . S
C1702 H1716 0.960 . S
C1703 C1700 1.511 . S
C1703 H1717 0.961 . S
C1703 H1718 0.961 . S
C1703 H1719 0.961 . S
C1704 C1705 1.370 . S
C1704 C1706 1.363 . S
C1704 H1720 0.931 . S
C1705 C1704 1.370 . S
C1705 C1709 1.408 . S
C1706 C1704 1.363 . S
C1706 C1707 1.370 . S
C1706 C1710 1.524 1_565 S
C1707 C1699 1.503 . S
C1707 C1706 1.370 . S
C1707 C1708 1.403 . S
C1708 C1707 1.403 . S
C1708 C1709 1.404 . S
C1708 C1711 1.539 . S
C1709 C1705 1.408 . S
C1709 C1708 1.404 . S
C1709 H1721 0.930 . S
C1710 C1706 1.524 1_545 S
C1710 H1722 0.956 1_445 S
C1710 H1723 0.961 . S
C1710 H1724 0.961 . S
C1711 C1708 1.539 . S
C1711 H1725 0.958 . S
C1711 H1726 0.961 . S
C1711 H1727 0.960 . S
H1712 C1696 0.931 . S
H1713 C1701 0.929 . S
H1714 C1702 0.960 . S
H1715 C1702 0.962 . S
H1716 C1702 0.960 . S
H1717 C1703 0.961 . S
H1718 C1703 0.961 . S
H1719 C1703 0.961 . S
H1720 C1704 0.931 . S
H1721 C1709 0.930 . S
H1722 C1710 0.956 1_665 S
H1723 C1710 0.961 . S
H1724 C1710 0.961 . S
H1725 C1711 0.958 . S
H1726 C1711 0.961 . S
H1727 C1711 0.960 . S
C1728 C1729 1.391 . S
C1728 C1730 1.394 . S
C1728 H1744 0.931 . S
C1729 C1728 1.391 . S
C1729 C1733 1.376 . S
C1730 C1728 1.394 . S
C1730 C1731 1.369 . S
C1730 C1734 1.531 . S
C1731 C1730 1.369 . S
C1731 C1732 1.410 . S
C1731 C1739 1.503 . S
C1732 C1731 1.410 . S
C1732 C1733 1.392 . S
C1732 C1735 1.511 . S
C1733 C1729 1.376 . S
C1733 C1732 1.392 . S
C1733 H1745 0.929 . S
C1734 C1730 1.531 . S
C1734 H1746 0.960 . S
C1734 H1747 0.962 . S
C1734 H1748 0.960 . S
C1735 C1732 1.511 . S
C1735 H1749 0.961 . S
C1735 H1750 0.961 . S
C1735 H1751 0.961 . S
C1736 C1737 1.370 . S
C1736 C1738 1.363 . S
C1736 H1752 0.931 . S
C1737 C1736 1.370 . S
C1737 C1741 1.408 . S
C1738 C1736 1.363 . S
C1738 C1739 1.370 . S
C1738 C1742 1.524 . S
C1739 C1731 1.503 . S
C1739 C1738 1.370 . S
C1739 C1740 1.403 . S
C1740 C1739 1.403 . S
C1740 C1741 1.404 . S
C1740 C1743 1.539 1_565 S
C1741 C1737 1.408 . S
C1741 C1740 1.404 . S
C1741 H1753 0.930 . S
C1742 C1738 1.524 . S
C1742 H1754 0.956 . S
C1742 H1755 0.961 . S
C1742 H1756 0.961 . S
C1743 C1740 1.539 1_545 S
C1743 H1757 0.958 . S
C1743 H1758 0.961 . S
C1743 H1759 0.960 . S
H1744 C1728 0.931 . S
H1745 C1733 0.929 . S
H1746 C1734 0.960 . S
H1747 C1734 0.962 . S
H1748 C1734 0.960 . S
H1749 C1735 0.961 . S
H1750 C1735 0.961 . S
H1751 C1735 0.961 . S
H1752 C1736 0.931 . S
H1753 C1741 0.930 . S
H1754 C1742 0.956 . S
H1755 C1742 0.961 . S
H1756 C1742 0.961 . S
H1757 C1743 0.958 . S
H1758 C1743 0.961 . S
H1759 C1743 0.960 . S
C1760 C1761 1.391 . S
C1760 C1762 1.394 . S
C1760 H1776 0.931 . S
C1761 C1760 1.391 . S
C1761 C1765 1.376 1_655 S
C1762 C1760 1.394 . S
C1762 C1763 1.369 1_655 S
C1762 C1766 1.531 . S
C1763 C1762 1.369 1_455 S
C1763 C1764 1.410 . S
C1763 C1771 1.503 . S
C1764 C1763 1.410 . S
C1764 C1765 1.392 . S
C1764 C1767 1.511 . S
C1765 C1761 1.376 1_455 S
C1765 C1764 1.392 . S
C1765 H1777 0.929 . S
C1766 C1762 1.531 . S
C1766 H1778 0.960 1_655 S
C1766 H1779 0.962 . S
C1766 H1780 0.960 . S
C1767 C1764 1.511 . S
C1767 H1781 0.961 . S
C1767 H1782 0.961 . S
C1767 H1783 0.961 . S
C1768 C1769 1.370 . S
C1768 C1770 1.363 . S
C1768 H1784 0.931 . S
C1769 C1768 1.370 . S
C1769 C1773 1.408 . S
C1770 C1768 1.363 . S
C1770 C1771 1.370 . S
C1770 C1774 1.524 1_455 S
C1771 C1763 1.503 . S
C1771 C1770 1.370 . S
C1771 C1772 1.403 . S
C1772 C1771 1.403 . S
C1772 C1773 1.404 . S
C1772 C1775 1.539 . S
C1773 C1769 1.408 . S
C1773 C1772 1.404 . S
C1773 H1785 0.930 . S
C1774 C1770 1.524 1_655 S
C1774 H1786 0.956 . S
C1774 H1787 0.961 . S
C1774 H1788 0.961 . S
C1775 C1772 1.539 . S
C1775 H1789 0.958 . S
C1775 H1790 0.961 . S
C1775 H1791 0.960 . S
H1776 C1760 0.931 . S
H1777 C1765 0.929 . S
H1778 C1766 0.960 1_455 S
H1779 C1766 0.962 . S
H1780 C1766 0.960 . S
H1781 C1767 0.961 . S
H1782 C1767 0.961 . S
H1783 C1767 0.961 . S
H1784 C1768 0.931 . S
H1785 C1773 0.930 . S
H1786 C1774 0.956 . S
H1787 C1774 0.961 . S
H1788 C1774 0.961 . S
H1789 C1775 0.958 . S
H1790 C1775 0.961 . S
H1791 C1775 0.960 . S
C1792 C1793 1.391 . S
C1792 C1794 1.394 . S
C1792 H1808 0.931 . S
C1793 C1792 1.391 . S
C1793 C1797 1.376 . S
C1794 C1792 1.394 . S
C1794 C1795 1.369 . S
C1794 C1798 1.531 . S
C1795 C1794 1.369 . S
C1795 C1796 1.410 . S
C1795 C1803 1.503 . S
C1796 C1795 1.410 . S
C1796 C1797 1.392 . S
C1796 C1799 1.511 . S
C1797 C1793 1.376 . S
C1797 C1796 1.392 . S
C1797 H1809 0.929 . S
C1798 C1794 1.531 . S
C1798 H1810 0.960 . S
C1798 H1811 0.962 . S
C1798 H1812 0.960 . S
C1799 C1796 1.511 . S
C1799 H1813 0.961 . S
C1799 H1814 0.961 . S
C1799 H1815 0.961 . S
C1800 C1801 1.370 . S
C1800 C1802 1.363 . S
C1800 H1816 0.931 . S
C1801 C1800 1.370 . S
C1801 C1805 1.408 . S
C1802 C1800 1.363 . S
C1802 C1803 1.370 . S
C1802 C1806 1.524 . S
C1803 C1795 1.503 . S
C1803 C1802 1.370 . S
C1803 C1804 1.403 . S
C1804 C1803 1.403 . S
C1804 C1805 1.404 . S
C1804 C1807 1.539 . S
C1805 C1801 1.408 . S
C1805 C1804 1.404 . S
C1805 H1817 0.930 . S
C1806 C1802 1.524 . S
C1806 H1818 0.956 . S
C1806 H1819 0.961 . S
C1806 H1820 0.961 . S
C1807 C1804 1.539 . S
C1807 H1821 0.958 . S
C1807 H1822 0.961 . S
C1807 H1823 0.960 . S
H1808 C1792 0.931 . S
H1809 C1797 0.929 . S
H1810 C1798 0.960 . S
H1811 C1798 0.962 . S
H1812 C1798 0.960 . S
H1813 C1799 0.961 . S
H1814 C1799 0.961 . S
H1815 C1799 0.961 . S
H1816 C1800 0.931 . S
H1817 C1805 0.930 . S
H1818 C1806 0.956 . S
H1819 C1806 0.961 . S
H1820 C1806 0.961 . S
H1821 C1807 0.958 . S
H1822 C1807 0.961 . S
H1823 C1807 0.960 . S
C1824 C1825 1.391 . S
C1824 C1826 1.394 . S
C1824 H1840 0.931 . S
C1825 C1824 1.391 . S
C1825 C1829 1.376 1_455 S
C1826 C1824 1.394 . S
C1826 C1827 1.369 1_455 S
C1826 C1830 1.531 . S
C1827 C1826 1.369 1_655 S
C1827 C1828 1.410 . S
C1827 C1835 1.503 . S
C1828 C1827 1.410 . S
C1828 C1829 1.392 . S
C1828 C1831 1.511 . S
C1829 C1825 1.376 1_655 S
C1829 C1828 1.392 . S
C1829 H1841 0.929 . S
C1830 C1826 1.531 . S
C1830 H1842 0.960 . S
C1830 H1843 0.962 . S
C1830 H1844 0.960 . S
C1831 C1828 1.511 . S
C1831 H1845 0.961 . S
C1831 H1846 0.961 . S
C1831 H1847 0.961 . S
C1832 C1833 1.370 . S
C1832 C1834 1.363 . S
C1832 H1848 0.931 . S
C1833 C1832 1.370 . S
C1833 C1837 1.408 . S
C1834 C1832 1.363 . S
C1834 C1835 1.370 . S
C1834 C1838 1.524 . S
C1835 C1827 1.503 . S
C1835 C1834 1.370 . S
C1835 C1836 1.403 . S
C1836 C1835 1.403 . S
C1836 C1837 1.404 . S
C1836 C1839 1.539 . S
C1837 C1833 1.408 . S
C1837 C1836 1.404 . S
C1837 H1849 0.930 . S
C1838 C1834 1.524 . S
C1838 H1850 0.956 1_655 S
C1838 H1851 0.961 . S
C1838 H1852 0.961 . S
C1839 C1836 1.539 . S
C1839 H1853 0.958 . S
C1839 H1854 0.961 . S
C1839 H1855 0.960 . S
H1840 C1824 0.931 . S
H1841 C1829 0.929 . S
H1842 C1830 0.960 . S
H1843 C1830 0.962 . S
H1844 C1830 0.960 . S
H1845 C1831 0.961 . S
H1846 C1831 0.961 . S
H1847 C1831 0.961 . S
H1848 C1832 0.931 . S
H1849 C1837 0.930 . S
H1850 C1838 0.956 1_455 S
H1851 C1838 0.961 . S
H1852 C1838 0.961 . S
H1853 C1839 0.958 . S
H1854 C1839 0.961 . S
H1855 C1839 0.960 . S
C1856 C1857 1.391 . S
C1856 C1858 1.394 . S
C1856 H1872 0.931 . S
C1857 C1856 1.391 . S
C1857 C1861 1.376 . S
C1858 C1856 1.394 . S
C1858 C1859 1.369 . S
C1858 C1862 1.531 . S
C1859 C1858 1.369 . S
C1859 C1860 1.410 . S
C1859 C1867 1.503 . S
C1860 C1859 1.410 . S
C1860 C1861 1.392 . S
C1860 C1863 1.511 . S
C1861 C1857 1.376 . S
C1861 C1860 1.392 . S
C1861 H1873 0.929 . S
C1862 C1858 1.531 . S
C1862 H1874 0.960 . S
C1862 H1875 0.962 . S
C1862 H1876 0.960 . S
C1863 C1860 1.511 . S
C1863 H1877 0.961 . S
C1863 H1878 0.961 . S
C1863 H1879 0.961 . S
C1864 C1865 1.370 . S
C1864 C1866 1.363 . S
C1864 H1880 0.931 . S
C1865 C1864 1.370 . S
C1865 C1869 1.408 . S
C1866 C1864 1.363 . S
C1866 C1867 1.370 . S
C1866 C1870 1.524 . S
C1867 C1859 1.503 . S
C1867 C1866 1.370 . S
C1867 C1868 1.403 . S
C1868 C1867 1.403 . S
C1868 C1869 1.404 . S
C1868 C1871 1.539 . S
C1869 C1865 1.408 . S
C1869 C1868 1.404 . S
C1869 H1881 0.930 . S
C1870 C1866 1.524 . S
C1870 H1882 0.956 . S
C1870 H1883 0.961 . S
C1870 H1884 0.961 . S
C1871 C1868 1.539 . S
C1871 H1885 0.958 . S
C1871 H1886 0.961 . S
C1871 H1887 0.960 . S
H1872 C1856 0.931 . S
H1873 C1861 0.929 . S
H1874 C1862 0.960 . S
H1875 C1862 0.962 . S
H1876 C1862 0.960 . S
H1877 C1863 0.961 . S
H1878 C1863 0.961 . S
H1879 C1863 0.961 . S
H1880 C1864 0.931 . S
H1881 C1869 0.930 . S
H1882 C1870 0.956 . S
H1883 C1870 0.961 . S
H1884 C1870 0.961 . S
H1885 C1871 0.958 . S
H1886 C1871 0.961 . S
H1887 C1871 0.960 . S
C1888 C1889 1.391 . S
C1888 C1890 1.394 . S
C1888 H1904 0.931 . S
C1889 C1888 1.391 . S
C1889 C1893 1.376 . S
C1890 C1888 1.394 . S
C1890 C1891 1.369 . S
C1890 C1894 1.531 1_655 S
C1891 C1890 1.369 . S
C1891 C1892 1.410 . S
C1891 C1899 1.503 . S
C1892 C1891 1.410 . S
C1892 C1893 1.392 . S
C1892 C1895 1.511 . S
C1893 C1889 1.376 . S
C1893 C1892 1.392 . S
C1893 H1905 0.929 . S
C1894 C1890 1.531 1_455 S
C1894 H1906 0.960 . S
C1894 H1907 0.962 . S
C1894 H1908 0.960 . S
C1895 C1892 1.511 . S
C1895 H1909 0.961 . S
C1895 H1910 0.961 . S
C1895 H1911 0.961 . S
C1896 C1897 1.370 . S
C1896 C1898 1.363 1_455 S
C1896 H1912 0.931 . S
C1897 C1896 1.370 . S
C1897 C1901 1.408 . S
C1898 C1896 1.363 1_655 S
C1898 C1899 1.370 . S
C1898 C1902 1.524 . S
C1899 C1891 1.503 . S
C1899 C1898 1.370 . S
C1899 C1900 1.403 . S
C1900 C1899 1.403 . S
C1900 C1901 1.404 1_655 S
C1900 C1903 1.539 . S
C1901 C1897 1.408 . S
C1901 C1900 1.404 1_455 S
C1901 H1913 0.930 . S
C1902 C1898 1.524 . S
C1902 H1914 0.956 1_655 S
C1902 H1915 0.961 . S
C1902 H1916 0.961 1_655 S
C1903 C1900 1.539 . S
C1903 H1917 0.958 . S
C1903 H1918 0.961 . S
C1903 H1919 0.960 . S
H1904 C1888 0.931 . S
H1905 C1893 0.929 . S
H1906 C1894 0.960 . S
H1907 C1894 0.962 . S
H1908 C1894 0.960 . S
H1909 C1895 0.961 . S
H1910 C1895 0.961 . S
H1911 C1895 0.961 . S
H1912 C1896 0.931 . S
H1913 C1901 0.930 . S
H1914 C1902 0.956 1_455 S
H1915 C1902 0.961 . S
H1916 C1902 0.961 1_455 S
H1917 C1903 0.958 . S
H1918 C1903 0.961 . S
H1919 C1903 0.960 . S
C1920 C1921 1.391 . S
C1920 C1922 1.394 . S
C1920 H1936 0.931 . S
C1921 C1920 1.391 . S
C1921 C1925 1.376 . S
C1922 C1920 1.394 . S
C1922 C1923 1.369 . S
C1922 C1926 1.531 . S
C1923 C1922 1.369 . S
C1923 C1924 1.410 . S
C1923 C1931 1.503 . S
C1924 C1923 1.410 . S
C1924 C1925 1.392 . S
C1924 C1927 1.511 . S
C1925 C1921 1.376 . S
C1925 C1924 1.392 . S
C1925 H1937 0.929 . S
C1926 C1922 1.531 . S
C1926 H1938 0.960 . S
C1926 H1939 0.962 . S
C1926 H1940 0.960 . S
C1927 C1924 1.511 . S
C1927 H1941 0.961 . S
C1927 H1942 0.961 . S
C1927 H1943 0.961 . S
C1928 C1929 1.370 . S
C1928 C1930 1.363 . S
C1928 H1944 0.931 . S
C1929 C1928 1.370 . S
C1929 C1933 1.408 . S
C1930 C1928 1.363 . S
C1930 C1931 1.370 . S
C1930 C1934 1.524 . S
C1931 C1923 1.503 . S
C1931 C1930 1.370 . S
C1931 C1932 1.403 . S
C1932 C1931 1.403 . S
C1932 C1933 1.404 . S
C1932 C1935 1.539 . S
C1933 C1929 1.408 . S
C1933 C1932 1.404 . S
C1933 H1945 0.930 . S
C1934 C1930 1.524 . S
C1934 H1946 0.956 . S
C1934 H1947 0.961 . S
C1934 H1948 0.961 . S
C1935 C1932 1.539 . S
C1935 H1949 0.958 . S
C1935 H1950 0.961 . S
C1935 H1951 0.960 . S
H1936 C1920 0.931 . S
H1937 C1925 0.929 . S
H1938 C1926 0.960 . S
H1939 C1926 0.962 . S
H1940 C1926 0.960 . S
H1941 C1927 0.961 . S
H1942 C1927 0.961 . S
H1943 C1927 0.961 . S
H1944 C1928 0.931 . S
H1945 C1933 0.930 . S
H1946 C1934 0.956 . S
H1947 C1934 0.961 . S
H1948 C1934 0.961 . S
H1949 C1935 0.958 . S
H1950 C1935 0.961 . S
H1951 C1935 0.960 . S
C1952 C1953 1.391 . S
C1952 C1954 1.394 . S
C1952 H1968 0.931 . S
C1953 C1952 1.391 . S
C1953 C1957 1.376 . S
C1954 C1952 1.394 . S
C1954 C1955 1.369 . S
C1954 C1958 1.531 . S
C1955 C1954 1.369 . S
C1955 C1956 1.410 . S
C1955 C1963 1.503 . S
C1956 C1955 1.410 . S
C1956 C1957 1.392 . S
C1956 C1959 1.511 . S
C1957 C1953 1.376 . S
C1957 C1956 1.392 . S
C1957 H1969 0.929 . S
C1958 C1954 1.531 . S
C1958 H1970 0.960 . S
C1958 H1971 0.962 . S
C1958 H1972 0.960 . S
C1959 C1956 1.511 . S
C1959 H1973 0.961 . S
C1959 H1974 0.963 . S
C1959 H1975 0.961 1_455 S
C1960 C1961 1.370 1_455 S
C1960 C1962 1.363 . S
C1960 H1976 0.931 . S
C1961 C1960 1.370 1_655 S
C1961 C1965 1.408 . S
C1962 C1960 1.363 . S
C1962 C1963 1.370 . S
C1962 C1966 1.524 . S
C1963 C1955 1.503 . S
C1963 C1962 1.370 . S
C1963 C1964 1.403 1_455 S
C1964 C1963 1.403 1_655 S
C1964 C1965 1.404 . S
C1964 C1967 1.539 . S
C1965 C1961 1.408 . S
C1965 C1964 1.404 . S
C1965 H1977 0.930 . S
C1966 C1962 1.524 . S
C1966 H1978 0.956 . S
C1966 H1979 0.961 . S
C1966 H1980 0.961 . S
C1967 C1964 1.539 . S
C1967 H1981 0.958 . S
C1967 H1982 0.961 . S
C1967 H1983 0.960 . S
H1968 C1952 0.931 . S
H1969 C1957 0.929 . S
H1970 C1958 0.960 . S
H1971 C1958 0.962 . S
H1972 C1958 0.960 . S
H1973 C1959 0.961 . S
H1974 C1959 0.963 . S
H1975 C1959 0.961 1_655 S
H1976 C1960 0.931 . S
H1977 C1965 0.930 . S
H1978 C1966 0.956 . S
H1979 C1966 0.961 . S
H1980 C1966 0.961 . S
H1981 C1967 0.958 . S
H1982 C1967 0.961 . S
H1983 C1967 0.960 . S
C1984 C1985 1.391 . S
C1984 C1986 1.394 . S
C1984 H2000 0.931 . S
C1985 C1984 1.391 . S
C1985 C1989 1.376 . S
C1986 C1984 1.394 . S
C1986 C1987 1.369 . S
C1986 C1990 1.531 . S
C1987 C1986 1.369 . S
C1987 C1988 1.410 . S
C1987 C1995 1.503 . S
C1988 C1987 1.410 . S
C1988 C1989 1.392 . S
C1988 C1991 1.511 . S
C1989 C1985 1.376 . S
C1989 C1988 1.392 . S
C1989 H2001 0.929 . S
C1990 C1986 1.531 . S
C1990 H2002 0.960 . S
C1990 H2003 0.962 . S
C1990 H2004 0.960 . S
C1991 C1988 1.511 . S
C1991 H2005 0.961 . S
C1991 H2006 0.961 . S
C1991 H2007 0.961 . S
C1992 C1993 1.370 . S
C1992 C1994 1.363 . S
C1992 H2008 0.931 . S
C1993 C1992 1.370 . S
C1993 C1997 1.408 . S
C1994 C1992 1.363 . S
C1994 C1995 1.370 . S
C1994 C1998 1.524 . S
C1995 C1987 1.503 . S
C1995 C1994 1.370 . S
C1995 C1996 1.403 . S
C1996 C1995 1.403 . S
C1996 C1997 1.404 . S
C1996 C1999 1.539 . S
C1997 C1993 1.408 . S
C1997 C1996 1.404 . S
C1997 H2009 0.930 . S
C1998 C1994 1.524 . S
C1998 H2010 0.956 . S
C1998 H2011 0.961 . S
C1998 H2012 0.961 . S
C1999 C1996 1.539 . S
C1999 H2013 0.958 . S
C1999 H2014 0.961 . S
C1999 H2015 0.960 . S
H2000 C1984 0.931 . S
H2001 C1989 0.929 . S
H2002 C1990 0.960 . S
H2003 C1990 0.962 . S
H2004 C1990 0.960 . S
H2005 C1991 0.961 . S
H2006 C1991 0.961 . S
H2007 C1991 0.961 . S
H2008 C1992 0.931 . S
H2009 C1997 0.930 . S
H2010 C1998 0.956 . S
H2011 C1998 0.961 . S
H2012 C1998 0.961 . S
H2013 C1999 0.958 . S
H2014 C1999 0.961 . S
H2015 C1999 0.960 . S
C2016 C2017 1.391 . S
C2016 C2018 1.394 . S
C2016 H2032 0.931 . S
C2017 C2016 1.391 . S
C2017 C2021 1.376 . S
C2018 C2016 1.394 . S
C2018 C2019 1.369 . S
C2018 C2022 1.531 1_455 S
C2019 C2018 1.369 . S
C2019 C2020 1.410 . S
C2019 C2027 1.503 . S
C2020 C2019 1.410 . S
C2020 C2021 1.392 . S
C2020 C2023 1.511 . S
C2021 C2017 1.376 . S
C2021 C2020 1.392 . S
C2021 H2033 0.929 . S
C2022 C2018 1.531 1_655 S
C2022 H2034 0.960 . S
C2022 H2035 0.962 . S
C2022 H2036 0.960 . S
C2023 C2020 1.511 . S
C2023 H2037 0.961 . S
C2023 H2038 0.961 . S
C2023 H2039 0.961 . S
C2024 C2025 1.370 . S
C2024 C2026 1.363 . S
C2024 H2040 0.931 . S
C2025 C2024 1.370 . S
C2025 C2029 1.408 1_655 S
C2026 C2024 1.363 . S
C2026 C2027 1.370 1_655 S
C2026 C2030 1.524 . S
C2027 C2019 1.503 . S
C2027 C2026 1.370 1_455 S
C2027 C2028 1.403 . S
C2028 C2027 1.403 . S
C2028 C2029 1.404 . S
C2028 C2031 1.539 . S
C2029 C2025 1.408 1_455 S
C2029 C2028 1.404 . S
C2029 H2041 0.930 . S
C2030 C2026 1.524 . S
C2030 H2042 0.956 . S
C2030 H2043 0.961 1_655 S
C2030 H2044 0.961 . S
C2031 C2028 1.539 . S
C2031 H2045 0.958 . S
C2031 H2046 0.961 . S
C2031 H2047 0.960 . S
H2032 C2016 0.931 . S
H2033 C2021 0.929 . S
H2034 C2022 0.960 . S
H2035 C2022 0.962 . S
H2036 C2022 0.960 . S
H2037 C2023 0.961 . S
H2038 C2023 0.961 . S
H2039 C2023 0.961 . S
H2040 C2024 0.931 . S
H2041 C2029 0.930 . S
H2042 C2030 0.956 . S
H2043 C2030 0.961 1_455 S
H2044 C2030 0.961 . S
H2045 C2031 0.958 . S
H2046 C2031 0.961 . S
H2047 C2031 0.960 . S
C2048 C2049 1.391 . S
C2048 C2050 1.394 . S
C2048 H2064 0.931 . S
C2049 C2048 1.391 . S
C2049 C2053 1.376 . S
C2050 C2048 1.394 . S
C2050 C2051 1.369 . S
C2050 C2054 1.531 . S
C2051 C2050 1.369 . S
C2051 C2052 1.410 . S
C2051 C2059 1.503 . S
C2052 C2051 1.410 . S
C2052 C2053 1.392 . S
C2052 C2055 1.511 . S
C2053 C2049 1.376 . S
C2053 C2052 1.392 . S
C2053 H2065 0.929 . S
C2054 C2050 1.531 . S
C2054 H2066 0.960 . S
C2054 H2067 0.962 . S
C2054 H2068 0.960 . S
C2055 C2052 1.511 . S
C2055 H2069 0.961 . S
C2055 H2070 0.961 . S
C2055 H2071 0.961 . S
C2056 C2057 1.370 . S
C2056 C2058 1.363 . S
C2056 H2072 0.931 . S
C2057 C2056 1.370 . S
C2057 C2061 1.408 . S
C2058 C2056 1.363 . S
C2058 C2059 1.370 . S
C2058 C2062 1.524 . S
C2059 C2051 1.503 . S
C2059 C2058 1.370 . S
C2059 C2060 1.403 . S
C2060 C2059 1.403 . S
C2060 C2061 1.404 . S
C2060 C2063 1.539 . S
C2061 C2057 1.408 . S
C2061 C2060 1.404 . S
C2061 H2073 0.930 . S
C2062 C2058 1.524 . S
C2062 H2074 0.956 . S
C2062 H2075 0.961 . S
C2062 H2076 0.961 . S
C2063 C2060 1.539 . S
C2063 H2077 0.958 . S
C2063 H2078 0.961 . S
C2063 H2079 0.960 . S
H2064 C2048 0.931 . S
H2065 C2053 0.929 . S
H2066 C2054 0.960 . S
H2067 C2054 0.962 . S
H2068 C2054 0.960 . S
H2069 C2055 0.961 . S
H2070 C2055 0.961 . S
H2071 C2055 0.961 . S
H2072 C2056 0.931 . S
H2073 C2061 0.930 . S
H2074 C2062 0.956 . S
H2075 C2062 0.961 . S
H2076 C2062 0.961 . S
H2077 C2063 0.958 . S
H2078 C2063 0.961 . S
H2079 C2063 0.960 . S
C2080 C2081 1.391 1_455 S
C2080 C2082 1.394 . S
C2080 H2096 0.931 . S
C2081 C2080 1.391 1_655 S
C2081 C2085 1.376 . S
C2082 C2080 1.394 . S
C2082 C2083 1.369 1_455 S
C2082 C2086 1.531 . S
C2083 C2082 1.369 1_655 S
C2083 C2084 1.410 . S
C2083 C2091 1.503 1_665 S
C2084 C2083 1.410 . S
C2084 C2085 1.392 . S
C2084 C2087 1.511 1_565 S
C2085 C2081 1.376 . S
C2085 C2084 1.392 . S
C2085 H2097 0.929 . S
C2086 C2082 1.531 . S
C2086 H2098 0.960 . S
C2086 H2099 0.962 . S
C2086 H2100 0.960 . S
C2087 C2084 1.511 1_545 S
C2087 H2101 0.961 . S
C2087 H2102 0.961 . S
C2087 H2103 0.961 . S
C2088 C2089 1.370 . S
C2088 C2090 1.363 . S
C2088 H2104 0.931 . S
C2089 C2088 1.370 . S
C2089 C2093 1.408 . S
C2090 C2088 1.363 . S
C2090 C2091 1.370 . S
C2090 C2094 1.524 . S
C2091 C2083 1.503 1_445 S
C2091 C2090 1.370 . S
C2091 C2092 1.403 1_445 S
C2092 C2091 1.403 1_665 S
C2092 C2093 1.404 1_665 S
C2092 C2095 1.539 . S
C2093 C2089 1.408 . S
C2093 C2092 1.404 1_445 S
C2093 H2105 0.930 1_455 S
C2094 C2090 1.524 . S
C2094 H2106 0.956 . S
C2094 H2107 0.961 . S
C2094 H2108 0.961 . S
C2095 C2092 1.539 . S
C2095 H2109 0.958 . S
C2095 H2110 0.961 . S
C2095 H2111 0.960 . S
H2096 C2080 0.931 . S
H2097 C2085 0.929 . S
H2098 C2086 0.960 . S
H2099 C2086 0.962 . S
H2100 C2086 0.960 . S
H2101 C2087 0.961 . S
H2102 C2087 0.961 . S
H2103 C2087 0.961 . S
H2104 C2088 0.931 . S
H2105 C2093 0.930 1_655 S
H2106 C2094 0.956 . S
H2107 C2094 0.961 . S
H2108 C2094 0.961 . S
H2109 C2095 0.958 . S
H2110 C2095 0.961 . S
H2111 C2095 0.960 . S
C2112 C2113 1.391 . S
C2112 C2114 1.394 1_565 S
C2112 H2128 0.931 1_565 S
C2113 C2112 1.391 . S
C2113 C2117 1.376 . S
C2114 C2112 1.394 1_545 S
C2114 C2115 1.369 1_545 S
C2114 C2118 1.531 . S
C2115 C2114 1.369 1_565 S
C2115 C2116 1.410 . S
C2115 C2123 1.503 1_565 S
C2116 C2115 1.410 . S
C2116 C2117 1.392 . S
C2116 C2119 1.511 . S
C2117 C2113 1.376 . S
C2117 C2116 1.392 . S
C2117 H2129 0.929 . S
C2118 C2114 1.531 . S
C2118 H2130 0.960 . S
C2118 H2131 0.962 . S
C2118 H2132 0.960 . S
C2119 C2116 1.511 . S
C2119 H2133 0.961 . S
C2119 H2134 0.961 . S
C2119 H2135 0.961 . S
C2120 C2121 1.370 . S
C2120 C2122 1.363 . S
C2120 H2136 0.931 . S
C2121 C2120 1.370 . S
C2121 C2125 1.408 . S
C2122 C2120 1.363 . S
C2122 C2123 1.370 . S
C2122 C2126 1.524 . S
C2123 C2115 1.503 1_545 S
C2123 C2122 1.370 . S
C2123 C2124 1.403 . S
C2124 C2123 1.403 . S
C2124 C2125 1.404 . S
C2124 C2127 1.539 . S
C2125 C2121 1.408 . S
C2125 C2124 1.404 . S
C2125 H2137 0.930 . S
C2126 C2122 1.524 . S
C2126 H2138 0.956 . S
C2126 H2139 0.961 1_545 S
C2126 H2140 0.961 . S
C2127 C2124 1.539 . S
C2127 H2141 0.958 . S
C2127 H2142 0.961 . S
C2127 H2143 0.960 1_545 S
H2128 C2112 0.931 1_545 S
H2129 C2117 0.929 . S
H2130 C2118 0.960 . S
H2131 C2118 0.962 . S
H2132 C2118 0.960 . S
H2133 C2119 0.961 . S
H2134 C2119 0.961 . S
H2135 C2119 0.961 . S
H2136 C2120 0.931 . S
H2137 C2125 0.930 . S
H2138 C2126 0.956 . S
H2139 C2126 0.961 1_565 S
H2140 C2126 0.961 . S
H2141 C2127 0.958 . S
H2142 C2127 0.961 . S
H2143 C2127 0.960 1_565 S
C2144 C2145 1.391 1_655 S
C2144 C2146 1.394 . S
C2144 H2160 0.931 . S
C2145 C2144 1.391 1_455 S
C2145 C2149 1.376 . S
C2146 C2144 1.394 . S
C2146 C2147 1.369 1_655 S
C2146 C2150 1.531 . S
C2147 C2146 1.369 1_455 S
C2147 C2148 1.410 . S
C2147 C2155 1.503 1_455 S
C2148 C2147 1.410 . S
C2148 C2149 1.392 . S
C2148 C2151 1.511 . S
C2149 C2145 1.376 . S
C2149 C2148 1.392 . S
C2149 H2161 0.929 . S
C2150 C2146 1.531 . S
C2150 H2162 0.960 . S
C2150 H2163 0.962 . S
C2150 H2164 0.960 . S
C2151 C2148 1.511 . S
C2151 H2165 0.961 . S
C2151 H2166 0.961 . S
C2151 H2167 0.961 . S
C2152 C2153 1.370 . S
C2152 C2154 1.363 . S
C2152 H2168 0.931 . S
C2153 C2152 1.370 . S
C2153 C2157 1.408 . S
C2154 C2152 1.363 . S
C2154 C2155 1.370 . S
C2154 C2158 1.524 1_655 S
C2155 C2147 1.503 1_655 S
C2155 C2154 1.370 . S
C2155 C2156 1.403 . S
C2156 C2155 1.403 . S
C2156 C2157 1.404 . S
C2156 C2159 1.539 . S
C2157 C2153 1.408 . S
C2157 C2156 1.404 . S
C2157 H2169 0.930 . S
C2158 C2154 1.524 1_455 S
C2158 H2170 0.956 1_455 S
C2158 H2171 0.961 . S
C2158 H2172 0.961 . S
C2159 C2156 1.539 . S
C2159 H2173 0.958 . S
C2159 H2174 0.960 1_655 S
C2159 H2175 0.960 1_655 S
H2160 C2144 0.931 . S
H2161 C2149 0.929 . S
H2162 C2150 0.960 . S
H2163 C2150 0.962 . S
H2164 C2150 0.960 . S
H2165 C2151 0.961 . S
H2166 C2151 0.961 . S
H2167 C2151 0.961 . S
H2168 C2152 0.931 . S
H2169 C2157 0.930 . S
H2170 C2158 0.956 1_655 S
H2171 C2158 0.961 . S
H2172 C2158 0.961 . S
H2173 C2159 0.958 . S
H2174 C2159 0.960 1_455 S
H2175 C2159 0.960 1_455 S
C2176 C2177 1.391 . S
C2176 C2178 1.394 . S
C2176 H2192 0.931 . S
C2177 C2176 1.391 . S
C2177 C2181 1.376 . S
C2178 C2176 1.394 . S
C2178 C2179 1.369 . S
C2178 C2182 1.531 . S
C2179 C2178 1.369 . S
C2179 C2180 1.410 . S
C2179 C2187 1.503 . S
C2180 C2179 1.410 . S
C2180 C2181 1.392 . S
C2180 C2183 1.511 . S
C2181 C2177 1.376 . S
C2181 C2180 1.392 . S
C2181 H2193 0.929 . S
C2182 C2178 1.531 . S
C2182 H2194 0.960 . S
C2182 H2195 0.962 . S
C2182 H2196 0.960 . S
C2183 C2180 1.511 . S
C2183 H2197 0.961 . S
C2183 H2198 0.961 . S
C2183 H2199 0.961 . S
C2184 C2185 1.370 . S
C2184 C2186 1.363 . S
C2184 H2200 0.931 . S
C2185 C2184 1.370 . S
C2185 C2189 1.408 . S
C2186 C2184 1.363 . S
C2186 C2187 1.370 . S
C2186 C2190 1.524 . S
C2187 C2179 1.503 . S
C2187 C2186 1.370 . S
C2187 C2188 1.403 . S
C2188 C2187 1.403 . S
C2188 C2189 1.404 . S
C2188 C2191 1.539 . S
C2189 C2185 1.408 . S
C2189 C2188 1.404 . S
C2189 H2201 0.930 . S
C2190 C2186 1.524 . S
C2190 H2202 0.956 . S
C2190 H2203 0.961 . S
C2190 H2204 0.961 . S
C2191 C2188 1.539 . S
C2191 H2205 0.958 . S
C2191 H2206 0.961 . S
C2191 H2207 0.960 . S
H2192 C2176 0.931 . S
H2193 C2181 0.929 . S
H2194 C2182 0.960 . S
H2195 C2182 0.962 . S
H2196 C2182 0.960 . S
H2197 C2183 0.961 . S
H2198 C2183 0.961 . S
H2199 C2183 0.961 . S
H2200 C2184 0.931 . S
H2201 C2189 0.930 . S
H2202 C2190 0.956 . S
H2203 C2190 0.961 . S
H2204 C2190 0.961 . S
H2205 C2191 0.958 . S
H2206 C2191 0.961 . S
H2207 C2191 0.960 . S
C2208 C2209 1.391 . S
C2208 C2210 1.394 . S
C2208 H2224 0.931 . S
C2209 C2208 1.391 . S
C2209 C2213 1.376 . S
C2210 C2208 1.394 . S
C2210 C2211 1.369 . S
C2210 C2214 1.531 . S
C2211 C2210 1.369 . S
C2211 C2212 1.410 . S
C2211 C2219 1.503 1_565 S
C2212 C2211 1.410 . S
C2212 C2213 1.392 . S
C2212 C2215 1.511 . S
C2213 C2209 1.376 . S
C2213 C2212 1.392 . S
C2213 H2225 0.929 . S
C2214 C2210 1.531 . S
C2214 H2226 0.960 . S
C2214 H2227 0.962 . S
C2214 H2228 0.960 . S
C2215 C2212 1.511 . S
C2215 H2229 0.961 . S
C2215 H2230 0.961 1_565 S
C2215 H2231 0.961 . S
C2216 C2217 1.370 . S
C2216 C2218 1.363 . S
C2216 H2232 0.931 . S
C2217 C2216 1.370 . S
C2217 C2221 1.408 . S
C2218 C2216 1.363 . S
C2218 C2219 1.370 . S
C2218 C2222 1.524 . S
C2219 C2211 1.503 1_545 S
C2219 C2218 1.370 . S
C2219 C2220 1.403 1_545 S
C2220 C2219 1.403 1_565 S
C2220 C2221 1.404 1_565 S
C2220 C2223 1.539 . S
C2221 C2217 1.408 . S
C2221 C2220 1.404 1_545 S
C2221 H2233 0.930 1_545 S
C2222 C2218 1.524 . S
C2222 H2234 0.956 . S
C2222 H2235 0.961 . S
C2222 H2236 0.961 . S
C2223 C2220 1.539 . S
C2223 H2237 0.958 . S
C2223 H2238 0.961 . S
C2223 H2239 0.960 . S
H2224 C2208 0.931 . S
H2225 C2213 0.929 . S
H2226 C2214 0.960 . S
H2227 C2214 0.962 . S
H2228 C2214 0.960 . S
H2229 C2215 0.961 . S
H2230 C2215 0.961 1_545 S
H2231 C2215 0.961 . S
H2232 C2216 0.931 . S
H2233 C2221 0.930 1_565 S
H2234 C2222 0.956 . S
H2235 C2222 0.961 . S
H2236 C2222 0.961 . S
H2237 C2223 0.958 . S
H2238 C2223 0.961 . S
H2239 C2223 0.960 . S
C2240 C2241 1.391 1_655 S
C2240 C2242 1.394 . S
C2240 H2256 0.931 . S
C2241 C2240 1.391 1_455 S
C2241 C2245 1.376 . S
C2242 C2240 1.394 . S
C2242 C2243 1.369 1_655 S
C2242 C2246 1.531 . S
C2243 C2242 1.369 1_455 S
C2243 C2244 1.410 . S
C2243 C2251 1.503 1_455 S
C2244 C2243 1.410 . S
C2244 C2245 1.392 . S
C2244 C2247 1.511 . S
C2245 C2241 1.376 . S
C2245 C2244 1.392 . S
C2245 H2257 0.929 . S
C2246 C2242 1.531 . S
C2246 H2258 0.960 . S
C2246 H2259 0.962 . S
C2246 H2260 0.960 . S
C2247 C2244 1.511 . S
C2247 H2261 0.961 . S
C2247 H2262 0.961 . S
C2247 H2263 0.961 . S
C2248 C2249 1.370 . S
C2248 C2250 1.363 . S
C2248 H2264 0.931 . S
C2249 C2248 1.370 . S
C2249 C2253 1.408 . S
C2250 C2248 1.363 . S
C2250 C2251 1.370 . S
C2250 C2254 1.524 . S
C2251 C2243 1.503 1_655 S
C2251 C2250 1.370 . S
C2251 C2252 1.403 1_655 S
C2252 C2251 1.403 1_455 S
C2252 C2253 1.404 1_455 S
C2252 C2255 1.539 . S
C2253 C2249 1.408 . S
C2253 C2252 1.404 1_655 S
C2253 H2265 0.930 . S
C2254 C2250 1.524 . S
C2254 H2266 0.956 . S
C2254 H2267 0.961 1_655 S
C2254 H2268 0.961 . S
C2255 C2252 1.539 . S
C2255 H2269 0.958 1_455 S
C2255 H2270 0.961 . S
C2255 H2271 0.960 . S
H2256 C2240 0.931 . S
H2257 C2245 0.929 . S
H2258 C2246 0.960 . S
H2259 C2246 0.962 . S
H2260 C2246 0.960 . S
H2261 C2247 0.961 . S
H2262 C2247 0.961 . S
H2263 C2247 0.961 . S
H2264 C2248 0.931 . S
H2265 C2253 0.930 . S
H2266 C2254 0.956 . S
H2267 C2254 0.961 1_455 S
H2268 C2254 0.961 . S
H2269 C2255 0.958 1_655 S
H2270 C2255 0.961 . S
H2271 C2255 0.960 . S
C2272 C2273 1.391 . S
C2272 C2274 1.394 . S
C2272 H2288 0.931 . S
C2273 C2272 1.391 . S
C2273 C2277 1.376 . S
C2274 C2272 1.394 . S
C2274 C2275 1.369 . S
C2274 C2278 1.531 . S
C2275 C2274 1.369 . S
C2275 C2276 1.410 . S
C2275 C2283 1.503 1_554 S
C2276 C2275 1.410 . S
C2276 C2277 1.392 . S
C2276 C2279 1.511 . S
C2277 C2273 1.376 . S
C2277 C2276 1.392 . S
C2277 H2289 0.929 . S
C2278 C2274 1.531 . S
C2278 H2290 0.965 . S
C2278 H2291 1.047 . S
C2278 H2292 0.960 . S
C2279 C2276 1.511 . S
C2279 H2293 0.961 . S
C2279 H2294 0.953 1_554 S
C2279 H2295 0.961 . S
C2280 C2281 1.370 . S
C2280 C2282 1.363 . S
C2280 H2296 0.931 . S
C2281 C2280 1.370 . S
C2281 C2285 1.408 . S
C2282 C2280 1.363 . S
C2282 C2283 1.370 . S
C2282 C2286 1.524 . S
C2283 C2275 1.503 1_556 S
C2283 C2282 1.370 . S
C2283 C2284 1.403 . S
C2284 C2283 1.403 . S
C2284 C2285 1.404 . S
C2284 C2287 1.506 1_556 S
C2285 C2281 1.408 . S
C2285 C2284 1.404 . S
C2285 H2297 0.930 . S
C2286 C2282 1.524 . S
C2286 H2298 0.956 . S
C2286 H2299 0.961 . S
C2286 H2300 0.961 . S
C2287 C2284 1.506 1_554 S
C2287 H2301 0.970 . S
C2287 H2302 0.953 1_554 S
C2287 H2303 0.991 . S
H2288 C2272 0.931 . S
H2289 C2277 0.929 . S
H2290 C2278 0.965 . S
H2291 C2278 1.047 . S
H2292 C2278 0.960 . S
H2293 C2279 0.961 . S
H2294 C2279 0.953 1_556 S
H2295 C2279 0.961 . S
H2296 C2280 0.931 . S
H2297 C2285 0.930 . S
H2298 C2286 0.956 . S
H2299 C2286 0.961 . S
H2300 C2286 0.961 . S
H2301 C2287 0.970 . S
H2302 C2287 0.953 1_556 S
H2303 C2287 0.991 . S
C2304 C2305 1.391 . S
C2304 C2306 1.394 . S
C2304 H2320 0.931 . S
C2305 C2304 1.391 . S
C2305 C2309 1.376 1_455 S
C2306 C2304 1.394 . S
C2306 C2307 1.369 1_455 S
C2306 C2310 1.531 1_556 S
C2307 C2306 1.369 1_655 S
C2307 C2308 1.410 . S
C2307 C2315 1.503 1_556 S
C2308 C2307 1.410 . S
C2308 C2309 1.392 . S
C2308 C2311 1.511 . S
C2309 C2305 1.376 1_655 S
C2309 C2308 1.392 . S
C2309 H2321 0.929 . S
C2310 C2306 1.531 1_554 S
C2310 H2322 0.960 . S
C2310 H2323 0.962 . S
C2310 H2324 0.960 . S
C2311 C2308 1.511 . S
C2311 H2325 0.961 . S
C2311 H2326 0.961 . S
C2311 H2327 0.961 . S
C2312 C2313 1.370 1_455 S
C2312 C2314 1.363 . S
C2312 H2328 0.931 . S
C2313 C2312 1.370 1_655 S
C2313 C2317 1.408 . S
C2314 C2312 1.363 . S
C2314 C2315 1.370 1_455 S
C2314 C2318 1.482 1_554 S
C2315 C2307 1.503 1_554 S
C2315 C2314 1.370 1_655 S
C2315 C2316 1.403 . S
C2316 C2315 1.403 . S
C2316 C2317 1.404 . S
C2316 C2319 1.539 . S
C2317 C2313 1.408 . S
C2317 C2316 1.404 . S
C2317 H2329 0.930 . S
C2318 C2314 1.482 1_556 S
C2318 H2330 0.962 1_556 S
C2318 H2331 1.034 . S
C2318 H2332 0.903 1_556 S
C2319 C2316 1.539 . S
C2319 H2333 0.958 . S
C2319 H2334 0.961 . S
C2319 H2335 0.960 . S
H2320 C2304 0.931 . S
H2321 C2309 0.929 . S
H2322 C2310 0.960 . S
H2323 C2310 0.962 . S
H2324 C2310 0.960 . S
H2325 C2311 0.961 . S
H2326 C2311 0.961 . S
H2327 C2311 0.961 . S
H2328 C2312 0.931 . S
H2329 C2317 0.930 . S
H2330 C2318 0.962 1_554 S
H2331 C2318 1.034 . S
H2332 C2318 0.903 1_554 S
H2333 C2319 0.958 . S
H2334 C2319 0.961 . S
H2335 C2319 0.960 . S
C2336 C2337 1.391 . S
C2336 C2338 1.394 . S
C2336 H2352 0.931 . S
C2337 C2336 1.391 . S
C2337 C2341 1.376 . S
C2338 C2336 1.394 . S
C2338 C2339 1.369 . S
C2338 C2342 1.531 . S
C2339 C2338 1.369 . S
C2339 C2340 1.410 . S
C2339 C2347 1.503 . S
C2340 C2339 1.410 . S
C2340 C2341 1.392 . S
C2340 C2343 1.511 . S
C2341 C2337 1.376 . S
C2341 C2340 1.392 . S
C2341 H2353 0.929 . S
C2342 C2338 1.531 . S
C2342 H2354 0.960 . S
C2342 H2355 0.962 . S
C2342 H2356 0.960 . S
C2343 C2340 1.511 . S
C2343 H2357 0.961 . S
C2343 H2358 0.961 . S
C2343 H2359 0.961 . S
C2344 C2345 1.370 . S
C2344 C2346 1.363 . S
C2344 H2360 0.931 . S
C2345 C2344 1.370 . S
C2345 C2349 1.408 . S
C2346 C2344 1.363 . S
C2346 C2347 1.370 . S
C2346 C2350 1.524 . S
C2347 C2339 1.503 . S
C2347 C2346 1.370 . S
C2347 C2348 1.403 . S
C2348 C2347 1.403 . S
C2348 C2349 1.404 . S
C2348 C2351 1.539 . S
C2349 C2345 1.408 . S
C2349 C2348 1.404 . S
C2349 H2361 0.930 . S
C2350 C2346 1.524 . S
C2350 H2362 0.956 . S
C2350 H2363 0.961 . S
C2350 H2364 0.961 . S
C2351 C2348 1.539 . S
C2351 H2365 0.958 . S
C2351 H2366 0.961 . S
C2351 H2367 0.960 . S
H2352 C2336 0.931 . S
H2353 C2341 0.929 . S
H2354 C2342 0.960 . S
H2355 C2342 0.962 . S
H2356 C2342 0.960 . S
H2357 C2343 0.961 . S
H2358 C2343 0.961 . S
H2359 C2343 0.961 . S
H2360 C2344 0.931 . S
H2361 C2349 0.930 . S
H2362 C2350 0.956 . S
H2363 C2350 0.961 . S
H2364 C2350 0.961 . S
H2365 C2351 0.958 . S
H2366 C2351 0.961 . S
H2367 C2351 0.960 . S
C2368 C2369 1.391 . S
C2368 C2370 1.394 . S
C2368 H2384 0.931 . S
C2369 C2368 1.391 . S
C2369 C2373 1.376 . S
C2370 C2368 1.394 . S
C2370 C2371 1.369 . S
C2370 C2374 1.531 1_556 S
C2371 C2370 1.369 . S
C2371 C2372 1.410 . S
C2371 C2379 1.503 1_556 S
C2372 C2371 1.410 . S
C2372 C2373 1.392 . S
C2372 C2375 1.511 . S
C2373 C2369 1.376 . S
C2373 C2372 1.392 . S
C2373 H2385 0.929 . S
C2374 C2370 1.531 1_554 S
C2374 H2386 0.960 . S
C2374 H2387 0.962 . S
C2374 H2388 0.960 1_554 S
C2375 C2372 1.511 . S
C2375 H2389 0.961 . S
C2375 H2390 0.961 . S
C2375 H2391 0.961 . S
C2376 C2377 1.370 . S
C2376 C2378 1.363 . S
C2376 H2392 0.931 . S
C2377 C2376 1.370 . S
C2377 C2381 1.408 . S
C2378 C2376 1.363 . S
C2378 C2379 1.370 . S
C2378 C2382 1.524 . S
C2379 C2371 1.503 1_554 S
C2379 C2378 1.370 . S
C2379 C2380 1.403 . S
C2380 C2379 1.403 . S
C2380 C2381 1.404 . S
C2380 C2383 1.539 . S
C2381 C2377 1.408 . S
C2381 C2380 1.404 . S
C2381 H2393 0.930 . S
C2382 C2378 1.524 . S
C2382 H2394 0.971 . S
C2382 H2395 0.961 1_554 S
C2382 H2396 0.961 . S
C2383 C2380 1.539 . S
C2383 H2397 0.958 . S
C2383 H2398 0.961 . S
C2383 H2399 1.013 . S
H2384 C2368 0.931 . S
H2385 C2373 0.929 . S
H2386 C2374 0.960 . S
H2387 C2374 0.962 . S
H2388 C2374 0.960 1_556 S
H2389 C2375 0.961 . S
H2390 C2375 0.961 . S
H2391 C2375 0.961 . S
H2392 C2376 0.931 . S
H2393 C2381 0.930 . S
H2394 C2382 0.971 . S
H2395 C2382 0.961 1_556 S
H2396 C2382 0.961 . S
H2397 C2383 0.958 . S
H2398 C2383 0.961 . S
H2399 C2383 1.013 . S
C2400 C2401 1.391 . S
C2400 C2402 1.394 . S
C2400 H2416 0.931 . S
C2401 C2400 1.391 . S
C2401 C2405 1.376 . S
C2402 C2400 1.394 . S
C2402 C2403 1.369 . S
C2402 C2406 1.531 . S
C2403 C2402 1.369 . S
C2403 C2404 1.410 . S
C2403 C2411 1.503 . S
C2404 C2403 1.410 . S
C2404 C2405 1.392 . S
C2404 C2407 1.511 . S
C2405 C2401 1.376 . S
C2405 C2404 1.392 . S
C2405 H2417 0.929 . S
C2406 C2402 1.531 . S
C2406 H2418 0.960 . S
C2406 H2419 0.962 . S
C2406 H2420 0.960 . S
C2407 C2404 1.511 . S
C2407 H2421 0.961 . S
C2407 H2422 0.961 . S
C2407 H2423 0.961 . S
C2408 C2409 1.370 . S
C2408 C2410 1.363 . S
C2408 H2424 0.931 . S
C2409 C2408 1.370 . S
C2409 C2413 1.408 . S
C2410 C2408 1.363 . S
C2410 C2411 1.370 . S
C2410 C2414 1.524 . S
C2411 C2403 1.503 . S
C2411 C2410 1.370 . S
C2411 C2412 1.403 . S
C2412 C2411 1.403 . S
C2412 C2413 1.404 . S
C2412 C2415 1.539 . S
C2413 C2409 1.408 . S
C2413 C2412 1.404 . S
C2413 H2425 0.930 . S
C2414 C2410 1.524 . S
C2414 H2426 0.956 . S
C2414 H2427 0.961 . S
C2414 H2428 0.961 . S
C2415 C2412 1.539 . S
C2415 H2429 0.958 . S
C2415 H2430 0.961 . S
C2415 H2431 0.960 . S
H2416 C2400 0.931 . S
H2417 C2405 0.929 . S
H2418 C2406 0.960 . S
H2419 C2406 0.962 . S
H2420 C2406 0.960 . S
H2421 C2407 0.961 . S
H2422 C2407 0.961 . S
H2423 C2407 0.961 . S
H2424 C2408 0.931 . S
H2425 C2413 0.930 . S
H2426 C2414 0.956 . S
H2427 C2414 0.961 . S
H2428 C2414 0.961 . S
H2429 C2415 0.958 . S
H2430 C2415 0.961 . S
H2431 C2415 0.960 . S
C2432 C2433 1.391 . S
C2432 C2434 1.394 . S
C2432 H2448 0.931 . S
C2433 C2432 1.391 . S
C2433 C2437 1.376 . S
C2434 C2432 1.394 . S
C2434 C2435 1.369 . S
C2434 C2438 1.531 1_556 S
C2435 C2434 1.369 . S
C2435 C2436 1.410 . S
C2435 C2443 1.503 1_546 S
C2436 C2435 1.410 . S
C2436 C2437 1.392 . S
C2436 C2439 1.511 1_545 S
C2437 C2433 1.376 . S
C2437 C2436 1.392 . S
C2437 H2449 0.929 . S
C2438 C2434 1.531 1_554 S
C2438 H2450 0.960 . S
C2438 H2451 0.962 . S
C2438 H2452 0.960 . S
C2439 C2436 1.511 1_565 S
C2439 H2453 0.961 . S
C2439 H2454 0.961 . S
C2439 H2455 0.961 . S
C2440 C2441 1.370 . S
C2440 C2442 1.363 . S
C2440 H2456 0.931 . S
C2441 C2440 1.370 . S
C2441 C2445 1.408 . S
C2442 C2440 1.363 . S
C2442 C2443 1.370 . S
C2442 C2446 1.473 1_554 S
C2443 C2435 1.503 1_564 S
C2443 C2442 1.370 . S
C2443 C2444 1.403 1_565 S
C2444 C2443 1.403 1_545 S
C2444 C2445 1.404 1_545 S
C2444 C2447 1.539 . S
C2445 C2441 1.408 . S
C2445 C2444 1.404 1_565 S
C2445 H2457 0.930 . S
C2446 C2442 1.473 1_556 S
C2446 H2458 0.962 1_556 S
C2446 H2459 1.047 . S
C2446 H2460 0.905 1_556 S
C2447 C2444 1.539 . S
C2447 H2461 0.958 . S
C2447 H2462 0.961 . S
C2447 H2463 0.960 . S
H2448 C2432 0.931 . S
H2449 C2437 0.929 . S
H2450 C2438 0.960 . S
H2451 C2438 0.962 . S
H2452 C2438 0.960 . S
H2453 C2439 0.961 . S
H2454 C2439 0.961 . S
H2455 C2439 0.961 . S
H2456 C2440 0.931 . S
H2457 C2445 0.930 . S
H2458 C2446 0.962 1_554 S
H2459 C2446 1.047 . S
H2460 C2446 0.905 1_554 S
H2461 C2447 0.958 . S
H2462 C2447 0.961 . S
H2463 C2447 0.960 . S
C2464 C2465 1.391 . S
C2464 C2466 1.394 . S
C2464 H2480 0.931 . S
C2465 C2464 1.391 . S
C2465 C2469 1.376 . S
C2466 C2464 1.394 . S
C2466 C2467 1.369 . S
C2466 C2470 1.531 . S
C2467 C2466 1.369 . S
C2467 C2468 1.410 . S
C2467 C2475 1.503 . S
C2468 C2467 1.410 . S
C2468 C2469 1.392 . S
C2468 C2471 1.511 . S
C2469 C2465 1.376 . S
C2469 C2468 1.392 . S
C2469 H2481 0.929 . S
C2470 C2466 1.531 . S
C2470 H2482 0.960 . S
C2470 H2483 0.962 . S
C2470 H2484 0.960 . S
C2471 C2468 1.511 . S
C2471 H2485 0.961 . S
C2471 H2486 0.961 . S
C2471 H2487 0.961 . S
C2472 C2473 1.370 . S
C2472 C2474 1.363 . S
C2472 H2488 0.931 . S
C2473 C2472 1.370 . S
C2473 C2477 1.408 . S
C2474 C2472 1.363 . S
C2474 C2475 1.370 . S
C2474 C2478 1.524 . S
C2475 C2467 1.503 . S
C2475 C2474 1.370 . S
C2475 C2476 1.403 . S
C2476 C2475 1.403 . S
C2476 C2477 1.404 . S
C2476 C2479 1.539 . S
C2477 C2473 1.408 . S
C2477 C2476 1.404 . S
C2477 H2489 0.930 . S
C2478 C2474 1.524 . S
C2478 H2490 0.956 . S
C2478 H2491 0.961 . S
C2478 H2492 0.961 . S
C2479 C2476 1.539 . S
C2479 H2493 0.958 . S
C2479 H2494 0.961 . S
C2479 H2495 0.960 . S
H2480 C2464 0.931 . S
H2481 C2469 0.929 . S
H2482 C2470 0.960 . S
H2483 C2470 0.962 . S
H2484 C2470 0.960 . S
H2485 C2471 0.961 . S
H2486 C2471 0.961 . S
H2487 C2471 0.961 . S
H2488 C2472 0.931 . S
H2489 C2477 0.930 . S
H2490 C2478 0.956 . S
H2491 C2478 0.961 . S
H2492 C2478 0.961 . S
H2493 C2479 0.958 . S
H2494 C2479 0.961 . S
H2495 C2479 0.960 . S
C2496 C2497 1.391 . S
C2496 C2498 1.394 . S
C2496 H2512 0.931 . S
C2497 C2496 1.391 . S
C2497 C2501 1.376 . S
C2498 C2496 1.394 . S
C2498 C2499 1.369 . S
C2498 C2502 1.531 . S
C2499 C2498 1.369 . S
C2499 C2500 1.410 . S
C2499 C2507 1.503 . S
C2500 C2499 1.410 . S
C2500 C2501 1.392 . S
C2500 C2503 1.511 . S
C2501 C2497 1.376 . S
C2501 C2500 1.392 . S
C2501 H2513 0.929 . S
C2502 C2498 1.531 . S
C2502 H2514 0.960 . S
C2502 H2515 0.962 . S
C2502 H2516 0.960 . S
C2503 C2500 1.511 . S
C2503 H2517 0.961 . S
C2503 H2518 0.961 . S
C2503 H2519 0.961 . S
C2504 C2505 1.370 . S
C2504 C2506 1.363 . S
C2504 H2520 0.931 . S
C2505 C2504 1.370 . S
C2505 C2509 1.408 . S
C2506 C2504 1.363 . S
C2506 C2507 1.370 . S
C2506 C2510 1.524 . S
C2507 C2499 1.503 . S
C2507 C2506 1.370 . S
C2507 C2508 1.403 . S
C2508 C2507 1.403 . S
C2508 C2509 1.404 . S
C2508 C2511 1.539 . S
C2509 C2505 1.408 . S
C2509 C2508 1.404 . S
C2509 H2521 0.930 . S
C2510 C2506 1.524 . S
C2510 H2522 0.956 . S
C2510 H2523 0.961 . S
C2510 H2524 0.961 . S
C2511 C2508 1.539 . S
C2511 H2525 0.958 . S
C2511 H2526 0.961 . S
C2511 H2527 0.960 . S
H2512 C2496 0.931 . S
H2513 C2501 0.929 . S
H2514 C2502 0.960 . S
H2515 C2502 0.962 . S
H2516 C2502 0.960 . S
H2517 C2503 0.961 . S
H2518 C2503 0.961 . S
H2519 C2503 0.961 . S
H2520 C2504 0.931 . S
H2521 C2509 0.930 . S
H2522 C2510 0.956 . S
H2523 C2510 0.961 . S
H2524 C2510 0.961 . S
H2525 C2511 0.958 . S
H2526 C2511 0.961 . S
H2527 C2511 0.960 . S
C2528 C2529 1.391 . S
C2528 C2530 1.394 . S
C2528 H2544 0.931 . S
C2529 C2528 1.391 . S
C2529 C2533 1.376 . S
C2530 C2528 1.394 . S
C2530 C2531 1.369 . S
C2530 C2534 1.531 . S
C2531 C2530 1.369 . S
C2531 C2532 1.410 . S
C2531 C2539 1.503 . S
C2532 C2531 1.410 . S
C2532 C2533 1.392 . S
C2532 C2535 1.511 . S
C2533 C2529 1.376 . S
C2533 C2532 1.392 . S
C2533 H2545 0.929 . S
C2534 C2530 1.531 . S
C2534 H2546 0.960 . S
C2534 H2547 0.962 . S
C2534 H2548 0.960 . S
C2535 C2532 1.511 . S
C2535 H2549 0.961 . S
C2535 H2550 0.961 . S
C2535 H2551 0.961 . S
C2536 C2537 1.370 . S
C2536 C2538 1.363 . S
C2536 H2552 0.931 . S
C2537 C2536 1.370 . S
C2537 C2541 1.408 . S
C2538 C2536 1.363 . S
C2538 C2539 1.370 . S
C2538 C2542 1.524 . S
C2539 C2531 1.503 . S
C2539 C2538 1.370 . S
C2539 C2540 1.403 . S
C2540 C2539 1.403 . S
C2540 C2541 1.404 . S
C2540 C2543 1.539 . S
C2541 C2537 1.408 . S
C2541 C2540 1.404 . S
C2541 H2553 0.930 . S
C2542 C2538 1.524 . S
C2542 H2554 0.956 . S
C2542 H2555 0.961 . S
C2542 H2556 0.961 . S
C2543 C2540 1.539 . S
C2543 H2557 0.958 . S
C2543 H2558 0.961 . S
C2543 H2559 0.960 . S
H2544 C2528 0.931 . S
H2545 C2533 0.929 . S
H2546 C2534 0.960 . S
H2547 C2534 0.962 . S
H2548 C2534 0.960 . S
H2549 C2535 0.961 . S
H2550 C2535 0.961 . S
H2551 C2535 0.961 . S
H2552 C2536 0.931 . S
H2553 C2541 0.930 . S
H2554 C2542 0.956 . S
H2555 C2542 0.961 . S
H2556 C2542 0.961 . S
H2557 C2543 0.958 . S
H2558 C2543 0.961 . S
H2559 C2543 0.960 . S
C513 C16 0.870 . S
C521 C404 0.865 . S
C545 C20 0.886 1_665 S
C553 C400 0.859 . S
C577 C48 0.885 1_565 S
C585 C436 0.859 . S
C609 C52 0.865 1_655 S
C617 C432 0.864 . S
C641 C464 0.864 . S
C649 C84 0.868 . S
C673 C80 0.891 1_445 S
C681 C468 0.854 . S
C705 C116 0.859 1_545 S
C713 C496 0.867 . S
C737 C112 0.891 1_455 S
C745 C500 0.854 . S
C769 C276 0.885 1_565 S
C777 C144 0.857 . S
C801 C272 0.890 . S
C809 C148 0.854 1_655 S
C833 C308 0.846 . S
C841 C176 0.872 . S
C865 C304 0.890 1_565 S
C873 C180 0.855 1_655 S
C897 C336 0.838 1_545 S
C905 C212 0.876 . S
C929 C208 0.890 1_455 S
C937 C340 0.855 . S
C961 C368 0.887 . S
C969 C244 0.856 . S
C993 C240 0.890 1_455 S
C1001 C372 0.854 1_545 S
C1025 C23 1.573 1_565 S
C1033 C403 1.542 . S
C1057 C19 1.531 . S
C1065 C407 1.558 . S
C1089 C55 1.574 . S
C1097 C435 1.542 . S
C1121 C439 1.525 . S
C1129 C51 1.563 1_565 S
C1153 C471 1.531 . S
C1161 C83 1.559 1_545 S
C1185 C467 1.572 . S
C1193 C87 1.544 . S
C1217 C503 1.534 . S
C1225 C115 1.560 . S
C1249 C499 1.561 . S
C1257 C119 1.550 1_545 S
C1281 C151 1.570 . S
C1289 C275 1.543 . S
C1313 C147 1.550 . S
C1321 C279 1.554 1_565 S
C1345 C183 1.530 . S
C1353 C307 1.562 1_565 S
C1377 C179 1.558 . S
C1385 C311 1.551 . S
C1409 C343 1.573 . S
C1417 C211 1.542 . S
C1441 C339 1.543 1_545 S
C1449 C215 1.553 . S
C1473 C375 1.524 1_545 S
C1481 C243 1.562 . S
C1505 C247 1.568 . S
C1513 C371 1.546 . S
C1537 C22 2.002 . S
C1545 C305 1.959 . S
C1569 C310 1.985 . S
C1577 C17 1.951 . S
C1601 C273 1.956 . S
C1609 C54 1.984 . S
C1633 C278 1.984 . S
C1641 C49 1.969 . S
C1665 C373 1.935 . S
C1673 C82 1.992 . S
C1697 C85 1.932 . S
C1705 C370 1.994 . S
C1729 C114 1.986 . S
C1737 C341 1.967 . S
C1761 C117 1.932 . S
C1769 C338 1.996 . S
C1793 C433 1.964 . S
C1801 C150 1.983 . S
C1825 C145 1.963 . S
C1833 C438 1.996 . S
C1857 C182 1.982 . S
C1865 C401 1.969 . S
C1889 C406 1.989 . S
C1897 C177 1.950 . S
C1921 C501 1.937 . S
C1929 C210 1.998 . S
C1953 C498 1.969 . S
C1961 C213 1.963 . S
C1985 C469 1.932 . S
C1993 C242 1.995 . S
C2017 C466 1.997 . S
C2025 C245 1.961 . S
C2049 C465 1.682 . S
C2057 C21 1.696 . S
C2081 C86 1.711 . S
C2089 C18 1.687 . S
C2113 C369 1.695 . S
C2121 C53 1.690 . S
C2145 C50 1.667 . S
C2153 C246 1.704 . S
C2177 C405 1.688 . S
C2185 C81 1.694 . S
C2209 C113 1.690 . S
C2217 C309 1.693 . S
C2241 C178 1.667 . S
C2249 C118 1.703 . S
C2273 C337 1.688 . S
C2281 C149 1.693 . S
C2305 C146 1.705 . S
C2313 C214 1.690 . S
C2337 C181 1.685 . S
C2345 C497 1.695 . S
C2369 C277 1.695 . S
C2377 C209 1.690 . S
C2401 C437 1.694 . S
C2409 C241 1.691 . S
C2433 C274 1.705 . S
C2441 C342 1.690 . S
C2465 C306 1.675 . S
C2473 C502 1.700 . S
C2497 C434 1.668 . S
C2505 C374 1.703 . S
C2529 C470 1.712 . S
C2537 C402 1.686 . S
