# Generated by pormake.
# Topology ukv, (4)-cn, num edge types: 1
# Building blocks:
#     Node 0, Type 0, BuildingBlock: NAHDIM_clean_sbu_0, # of connection points: 4
#     Node 1, Type 0, BuildingBlock: NAHDIM_clean_sbu_0, # of connection points: 4
#     Node 2, Type 0, BuildingBlock: NAHDIM_clean_sbu_0, # of connection points: 4
#     Node 3, Type 0, BuildingBlock: NAHDIM_clean_sbu_0, # of connection points: 4
#     Node 4, Type 0, BuildingBlock: NAHDIM_clean_sbu_0, # of connection points: 4
#     Node 5, Type 0, BuildingBlock: NAHDIM_clean_sbu_0, # of connection points: 4
#     Node 6, Type 0, BuildingBlock: NAHDIM_clean_sbu_0, # of connection points: 4
#     Node 7, Type 0, BuildingBlock: NAHDIM_clean_sbu_0, # of connection points: 4
#     Node 8, Type 0, BuildingBlock: NAHDIM_clean_sbu_0, # of connection points: 4
#     Node 9, Type 0, BuildingBlock: NAHDIM_clean_sbu_0, # of connection points: 4
#     Node 10, Type 0, BuildingBlock: NAHDIM_clean_sbu_0, # of connection points: 4
#     Node 11, Type 0, BuildingBlock: NAHDIM_clean_sbu_0, # of connection points: 4
#     Node 12, Type 0, BuildingBlock: NAHDIM_clean_sbu_0, # of connection points: 4
#     Node 13, Type 0, BuildingBlock: NAHDIM_clean_sbu_0, # of connection points: 4
#     Node 14, Type 0, BuildingBlock: NAHDIM_clean_sbu_0, # of connection points: 4
#     Node 15, Type 0, BuildingBlock: NAHDIM_clean_sbu_0, # of connection points: 4
#     Node 16, Type 0, BuildingBlock: NAHDIM_clean_sbu_0, # of connection points: 4
#     Node 17, Type 0, BuildingBlock: NAHDIM_clean_sbu_0, # of connection points: 4
#     Node 18, Type 0, BuildingBlock: NAHDIM_clean_sbu_0, # of connection points: 4
#     Node 19, Type 0, BuildingBlock: NAHDIM_clean_sbu_0, # of connection points: 4
#     Node 20, Type 0, BuildingBlock: NAHDIM_clean_sbu_0, # of connection points: 4
#     Node 21, Type 0, BuildingBlock: NAHDIM_clean_sbu_0, # of connection points: 4
#     Node 22, Type 0, BuildingBlock: NAHDIM_clean_sbu_0, # of connection points: 4
#     Node 23, Type 0, BuildingBlock: NAHDIM_clean_sbu_0, # of connection points: 4
#     Node 24, Type 0, BuildingBlock: NAHDIM_clean_sbu_0, # of connection points: 4
#     Node 25, Type 0, BuildingBlock: NAHDIM_clean_sbu_0, # of connection points: 4
#     Node 26, Type 0, BuildingBlock: NAHDIM_clean_sbu_0, # of connection points: 4
#     Node 27, Type 0, BuildingBlock: NAHDIM_clean_sbu_0, # of connection points: 4
#     Node 28, Type 0, BuildingBlock: NAHDIM_clean_sbu_0, # of connection points: 4
#     Node 29, Type 0, BuildingBlock: NAHDIM_clean_sbu_0, # of connection points: 4
#     Node 30, Type 0, BuildingBlock: NAHDIM_clean_sbu_0, # of connection points: 4
#     Node 31, Type 0, BuildingBlock: NAHDIM_clean_sbu_0, # of connection points: 4
#     Node 32, Type 0, BuildingBlock: NAHDIM_clean_sbu_0, # of connection points: 4
#     Node 33, Type 0, BuildingBlock: NAHDIM_clean_sbu_0, # of connection points: 4
#     Node 34, Type 0, BuildingBlock: NAHDIM_clean_sbu_0, # of connection points: 4
#     Node 35, Type 0, BuildingBlock: NAHDIM_clean_sbu_0, # of connection points: 4
#     Edge 36, Type (0, 0), BuildingBlock: ZUJKAS_clean_linker_0, # of connection points: 2
#     Edge 37, Type (0, 0), BuildingBlock: ZUJKAS_clean_linker_0, # of connection points: 2
#     Edge 38, Type (0, 0), BuildingBlock: ZUJKAS_clean_linker_0, # of connection points: 2
#     Edge 39, Type (0, 0), BuildingBlock: ZUJKAS_clean_linker_0, # of connection points: 2
#     Edge 40, Type (0, 0), BuildingBlock: ZUJKAS_clean_linker_0, # of connection points: 2
#     Edge 41, Type (0, 0), BuildingBlock: ZUJKAS_clean_linker_0, # of connection points: 2
#     Edge 42, Type (0, 0), BuildingBlock: ZUJKAS_clean_linker_0, # of connection points: 2
#     Edge 43, Type (0, 0), BuildingBlock: ZUJKAS_clean_linker_0, # of connection points: 2
#     Edge 44, Type (0, 0), BuildingBlock: ZUJKAS_clean_linker_0, # of connection points: 2
#     Edge 45, Type (0, 0), BuildingBlock: ZUJKAS_clean_linker_0, # of connection points: 2
#     Edge 46, Type (0, 0), BuildingBlock: ZUJKAS_clean_linker_0, # of connection points: 2
#     Edge 47, Type (0, 0), BuildingBlock: ZUJKAS_clean_linker_0, # of connection points: 2
#     Edge 48, Type (0, 0), BuildingBlock: ZUJKAS_clean_linker_0, # of connection points: 2
#     Edge 49, Type (0, 0), BuildingBlock: ZUJKAS_clean_linker_0, # of connection points: 2
#     Edge 50, Type (0, 0), BuildingBlock: ZUJKAS_clean_linker_0, # of connection points: 2
#     Edge 51, Type (0, 0), BuildingBlock: ZUJKAS_clean_linker_0, # of connection points: 2
#     Edge 52, Type (0, 0), BuildingBlock: ZUJKAS_clean_linker_0, # of connection points: 2
#     Edge 53, Type (0, 0), BuildingBlock: ZUJKAS_clean_linker_0, # of connection points: 2
#     Edge 54, Type (0, 0), BuildingBlock: ZUJKAS_clean_linker_0, # of connection points: 2
#     Edge 55, Type (0, 0), BuildingBlock: ZUJKAS_clean_linker_0, # of connection points: 2
#     Edge 56, Type (0, 0), BuildingBlock: ZUJKAS_clean_linker_0, # of connection points: 2
#     Edge 57, Type (0, 0), BuildingBlock: ZUJKAS_clean_linker_0, # of connection points: 2
#     Edge 58, Type (0, 0), BuildingBlock: ZUJKAS_clean_linker_0, # of connection points: 2
#     Edge 59, Type (0, 0), BuildingBlock: ZUJKAS_clean_linker_0, # of connection points: 2
#     Edge 60, Type (0, 0), BuildingBlock: ZUJKAS_clean_linker_0, # of connection points: 2
#     Edge 61, Type (0, 0), BuildingBlock: ZUJKAS_clean_linker_0, # of connection points: 2
#     Edge 62, Type (0, 0), BuildingBlock: ZUJKAS_clean_linker_0, # of connection points: 2
#     Edge 63, Type (0, 0), BuildingBlock: ZUJKAS_clean_linker_0, # of connection points: 2
#     Edge 64, Type (0, 0), BuildingBlock: ZUJKAS_clean_linker_0, # of connection points: 2
#     Edge 65, Type (0, 0), BuildingBlock: ZUJKAS_clean_linker_0, # of connection points: 2
#     Edge 66, Type (0, 0), BuildingBlock: ZUJKAS_clean_linker_0, # of connection points: 2
#     Edge 67, Type (0, 0), BuildingBlock: ZUJKAS_clean_linker_0, # of connection points: 2
#     Edge 68, Type (0, 0), BuildingBlock: ZUJKAS_clean_linker_0, # of connection points: 2
#     Edge 69, Type (0, 0), BuildingBlock: ZUJKAS_clean_linker_0, # of connection points: 2
#     Edge 70, Type (0, 0), BuildingBlock: ZUJKAS_clean_linker_0, # of connection points: 2
#     Edge 71, Type (0, 0), BuildingBlock: ZUJKAS_clean_linker_0, # of connection points: 2
#     Edge 72, Type (0, 0), BuildingBlock: ZUJKAS_clean_linker_0, # of connection points: 2
#     Edge 73, Type (0, 0), BuildingBlock: ZUJKAS_clean_linker_0, # of connection points: 2
#     Edge 74, Type (0, 0), BuildingBlock: ZUJKAS_clean_linker_0, # of connection points: 2
#     Edge 75, Type (0, 0), BuildingBlock: ZUJKAS_clean_linker_0, # of connection points: 2
#     Edge 76, Type (0, 0), BuildingBlock: ZUJKAS_clean_linker_0, # of connection points: 2
#     Edge 77, Type (0, 0), BuildingBlock: ZUJKAS_clean_linker_0, # of connection points: 2
#     Edge 78, Type (0, 0), BuildingBlock: ZUJKAS_clean_linker_0, # of connection points: 2
#     Edge 79, Type (0, 0), BuildingBlock: ZUJKAS_clean_linker_0, # of connection points: 2
#     Edge 80, Type (0, 0), BuildingBlock: ZUJKAS_clean_linker_0, # of connection points: 2
#     Edge 81, Type (0, 0), BuildingBlock: ZUJKAS_clean_linker_0, # of connection points: 2
#     Edge 82, Type (0, 0), BuildingBlock: ZUJKAS_clean_linker_0, # of connection points: 2
#     Edge 83, Type (0, 0), BuildingBlock: ZUJKAS_clean_linker_0, # of connection points: 2
#     Edge 84, Type (0, 0), BuildingBlock: ZUJKAS_clean_linker_0, # of connection points: 2
#     Edge 85, Type (0, 0), BuildingBlock: ZUJKAS_clean_linker_0, # of connection points: 2
#     Edge 86, Type (0, 0), BuildingBlock: ZUJKAS_clean_linker_0, # of connection points: 2
#     Edge 87, Type (0, 0), BuildingBlock: ZUJKAS_clean_linker_0, # of connection points: 2
#     Edge 88, Type (0, 0), BuildingBlock: ZUJKAS_clean_linker_0, # of connection points: 2
#     Edge 89, Type (0, 0), BuildingBlock: ZUJKAS_clean_linker_0, # of connection points: 2
#     Edge 90, Type (0, 0), BuildingBlock: ZUJKAS_clean_linker_0, # of connection points: 2
#     Edge 91, Type (0, 0), BuildingBlock: ZUJKAS_clean_linker_0, # of connection points: 2
#     Edge 92, Type (0, 0), BuildingBlock: ZUJKAS_clean_linker_0, # of connection points: 2
#     Edge 93, Type (0, 0), BuildingBlock: ZUJKAS_clean_linker_0, # of connection points: 2
#     Edge 94, Type (0, 0), BuildingBlock: ZUJKAS_clean_linker_0, # of connection points: 2
#     Edge 95, Type (0, 0), BuildingBlock: ZUJKAS_clean_linker_0, # of connection points: 2
#     Edge 96, Type (0, 0), BuildingBlock: ZUJKAS_clean_linker_0, # of connection points: 2
#     Edge 97, Type (0, 0), BuildingBlock: ZUJKAS_clean_linker_0, # of connection points: 2
#     Edge 98, Type (0, 0), BuildingBlock: ZUJKAS_clean_linker_0, # of connection points: 2
#     Edge 99, Type (0, 0), BuildingBlock: ZUJKAS_clean_linker_0, # of connection points: 2
#     Edge 100, Type (0, 0), BuildingBlock: ZUJKAS_clean_linker_0, # of connection points: 2
#     Edge 101, Type (0, 0), BuildingBlock: ZUJKAS_clean_linker_0, # of connection points: 2
#     Edge 102, Type (0, 0), BuildingBlock: ZUJKAS_clean_linker_0, # of connection points: 2
#     Edge 103, Type (0, 0), BuildingBlock: ZUJKAS_clean_linker_0, # of connection points: 2
#     Edge 104, Type (0, 0), BuildingBlock: ZUJKAS_clean_linker_0, # of connection points: 2
#     Edge 105, Type (0, 0), BuildingBlock: ZUJKAS_clean_linker_0, # of connection points: 2
#     Edge 106, Type (0, 0), BuildingBlock: ZUJKAS_clean_linker_0, # of connection points: 2
#     Edge 107, Type (0, 0), BuildingBlock: ZUJKAS_clean_linker_0, # of connection points: 2
# Relax obj value: 0.253
# Max RMSD: 0.179
# Mean RMSD: 0.179
data_MOF--net-ukv--node1-NAHDIM_clean_sbu_0--edge1-ZUJKAS_clean_linker_0
_symmetry_space_group_name_H-M    P1
_symmetry_Int_Tables_number       1
_symmetry_cell_setting            triclinic
loop_
_symmetry_equiv_pos_as_xyz
'x, y, z'
_cell_length_a     123.92532
_cell_length_b     123.90929
_cell_length_c     26.212668
_cell_angle_alpha  89.967389
_cell_angle_beta   90.020808
_cell_angle_gamma 119.98554
loop_
_atom_site_label
_atom_site_type_symbol
_atom_site_fract_x
_atom_site_fract_y
_atom_site_fract_z
_atom_type_partial_charge
C0 C 0.24214 0.04662 0.06472 0.0
O1 O 0.2542 0.05336 0.05709 0.0
O2 O 0.25998 0.07353 0.98765 0.0
Zn3 Zn 0.24181 0.0662 0.00576 0.0
O4 O 0.2399 0.07823 0.05075 0.0
C5 C 0.23684 0.06533 0.89785 0.0
O6 O 0.24715 0.06482 0.89427 0.0
O7 O 0.23497 0.04997 0.04427 0.0
C8 C 0.24227 0.08878 0.03348 0.0
O9 O 0.24631 0.09181 0.98639 0.0
C10 C 0.26873 0.08106 0.01672 0.0
O11 O 0.26596 0.0838 0.06147 0.0
O12 O 0.23227 0.06487 0.94173 0.0
C13 C 0.94929 0.19113 0.05812 0.0
O14 O 0.94505 0.19812 0.03924 0.0
O15 O 0.92126 0.18285 0.99036 0.0
Zn16 Zn 0.92717 0.17099 0.01054 0.0
O17 O 0.9144 0.15763 0.05573 0.0
C18 C 0.9301 0.16802 0.90361 0.0
O19 O 0.93428 0.18007 0.90279 0.0
O20 O 0.9435 0.17951 0.04868 0.0
C21 C 0.90381 0.14983 0.03757 0.0
O22 O 0.90126 0.15098 0.9899 0.0
C23 C 0.91583 0.18677 0.01981 0.0
O24 O 0.91418 0.18339 0.068 0.0
O25 O 0.92769 0.16244 0.94635 0.0
C26 C 0.8045 0.7621 0.04037 0.0
O27 O 0.79812 0.75033 0.02698 0.0
O28 O 0.81376 0.74256 0.97856 0.0
Zn29 Zn 0.82503 0.76085 0.99357 0.0
O30 O 0.8385 0.76282 0.04166 0.0
C31 C 0.82927 0.7645 0.88541 0.0
O32 O 0.81799 0.75477 0.8832 0.0
O33 O 0.81589 0.76852 0.02756 0.0
C34 C 0.84649 0.75983 0.02789 0.0
O35 O 0.84565 0.75514 0.98215 0.0
C36 C 0.81181 0.73395 0.00991 0.0
O37 O 0.81693 0.73692 0.0554 0.0
O38 O 0.83369 0.76938 0.92856 0.0
C39 C 0.04462 0.24235 0.44249 0.0
O40 O 0.05095 0.2545 0.4483 0.0
O41 O 0.07179 0.26166 0.51677 0.0
Zn42 Zn 0.06542 0.24368 0.49796 0.0
O43 O 0.07747 0.2426 0.45006 0.0
C44 C 0.06491 0.2386 0.60557 0.0
O45 O 0.06219 0.24754 0.60945 0.0
O46 O 0.04868 0.23575 0.46283 0.0
C47 C 0.08844 0.24583 0.46483 0.0
O48 O 0.09194 0.25038 0.51101 0.0
C49 C 0.07832 0.27075 0.48718 0.0
O50 O 0.08069 0.26853 0.44072 0.0
O51 O 0.06558 0.23469 0.56151 0.0
C52 C 0.7566 0.80464 0.44276 0.0
O53 O 0.74454 0.79861 0.45108 0.0
O54 O 0.73788 0.81154 0.52452 0.0
Zn55 Zn 0.75555 0.82357 0.50321 0.0
O56 O 0.7559 0.83695 0.45873 0.0
C57 C 0.76153 0.8273 0.61019 0.0
O58 O 0.75284 0.81552 0.61311 0.0
O59 O 0.76331 0.81523 0.4634 0.0
C60 C 0.75335 0.84488 0.47744 0.0
O61 O 0.74997 0.84386 0.52552 0.0
C62 C 0.7284 0.80917 0.49778 0.0
O63 O 0.72998 0.81435 0.45261 0.0
O64 O 0.76507 0.83228 0.56647 0.0
C65 C 0.19726 0.95509 0.46381 0.0
O66 O 0.20412 0.95029 0.47825 0.0
O67 O 0.18922 0.92694 0.52979 0.0
Zn68 Zn 0.17731 0.93295 0.51169 0.0
O69 O 0.16421 0.92078 0.46398 0.0
C70 C 0.17304 0.93333 0.61949 0.0
O71 O 0.18479 0.93629 0.62246 0.0
O72 O 0.18582 0.94965 0.47633 0.0
C73 C 0.1561 0.91001 0.47945 0.0
O74 O 0.15673 0.90671 0.52652 0.0
C75 C 0.19242 0.92102 0.49959 0.0
O76 O 0.18819 0.91894 0.45255 0.0
O77 O 0.16828 0.93264 0.57582 0.0
C78 C 0.75777 0.95349 0.96322 0.0
O79 O 0.74666 0.94943 0.98298 0.0
O80 O 0.73738 0.92428 0.02324 0.0
Zn81 Zn 0.75544 0.93073 0.00644 0.0
O82 O 0.75687 0.91873 0.95955 0.0
C83 C 0.76017 0.9324 0.11442 0.0
O84 O 0.75179 0.93593 0.1152 0.0
O85 O 0.76335 0.94738 0.97079 0.0
C86 C 0.75419 0.90794 0.97491 0.0
O87 O 0.74997 0.9045 0.02154 0.0
C88 C 0.7285 0.91948 0.99128 0.0
O89 O 0.73097 0.91889 0.94295 0.0
O90 O 0.76397 0.93077 0.07166 0.0
C91 C 0.04476 0.80536 0.95953 0.0
O92 O 0.05004 0.79871 0.97025 0.0
O93 O 0.07171 0.81222 0.03157 0.0
Zn94 Zn 0.0663 0.82456 0.01226 0.0
O95 O 0.07886 0.83736 0.96463 0.0
C96 C 0.06586 0.8291 0.11972 0.0
O97 O 0.06243 0.81723 0.12315 0.0
O98 O 0.04967 0.81646 0.97616 0.0
C99 C 0.08974 0.84511 0.98026 0.0
O100 O 0.09286 0.84431 0.02744 0.0
C101 C 0.07774 0.80897 0.00223 0.0
O102 O 0.08035 0.81344 0.9556 0.0
O103 O 0.06683 0.83387 0.07583 0.0
C104 C 0.19366 0.23998 0.94808 0.0
O105 O 0.19956 0.25204 0.95642 0.0
O106 O 0.18526 0.25926 0.01647 0.0
Zn107 Zn 0.17372 0.24115 -0.00032 0.0
O108 O 0.16037 0.23961 0.95179 0.0
C109 C 0.16984 0.23678 0.10775 0.0
O110 O 0.1816 0.24556 0.10997 0.0
O111 O 0.1827 0.23329 0.96553 0.0
C112 C 0.15264 0.2429 0.96608 0.0
O113 O 0.15377 0.24769 0.0118 0.0
C114 C 0.18709 0.26822 0.98736 0.0
O115 O 0.18161 0.26579 0.94257 0.0
O116 O 0.16492 0.23261 0.0644 0.0
C117 C 0.95466 0.75711 0.55636 0.0
O118 O 0.95129 0.74576 0.54105 0.0
O119 O 0.92718 0.73368 0.50138 0.0
Zn120 Zn 0.93152 0.75164 0.50821 0.0
O121 O 0.91851 0.7526 0.55047 0.0
C122 C 0.92149 0.74986 0.41141 0.0
O123 O 0.91469 0.73854 0.42969 0.0
O124 O 0.94802 0.76188 0.54395 0.0
C125 C 0.91834 0.76277 0.55032 0.0
O126 O 0.92673 0.77219 0.52342 0.0
C127 C 0.92009 0.72516 0.53226 0.0
O128 O 0.916 0.72814 0.57305 0.0
O129 O 0.93044 0.75795 0.43827 0.0
C130 C 0.24069 0.19398 0.55549 0.0
O131 O 0.2521 0.20113 0.53874 0.0
O132 O 0.26135 0.18646 0.4922 0.0
Zn133 Zn 0.24328 0.17436 0.50689 0.0
O134 O 0.2421 0.16057 0.55124 0.0
C135 C 0.23929 0.17167 0.39783 0.0
O136 O 0.24844 0.18328 0.39704 0.0
O137 O 0.23498 0.18245 0.5443 0.0
C138 C 0.2319 0.15026 0.55265 0.0
O139 O 0.22241 0.14898 0.52552 0.0
C140 C 0.27003 0.18945 0.52453 0.0
O141 O 0.26723 0.18482 0.57089 0.0
O142 O 0.23497 0.16643 0.44056 0.0
C143 C 0.80198 0.04891 0.57877 0.0
O144 O 0.79795 0.05689 0.57961 0.0
O145 O 0.80824 0.07355 0.49117 0.0
Zn146 Zn 0.8199 0.06731 0.51119 0.0
O147 O 0.83367 0.07985 0.55564 0.0
C148 C 0.82272 0.06434 0.40393 0.0
O149 O 0.81086 0.06099 0.4027 0.0
O150 O 0.81112 0.05107 0.55001 0.0
C151 C 0.84181 0.09029 0.5374 0.0
O152 O 0.84075 0.09302 0.48989 0.0
C153 C 0.80695 0.08164 0.51595 0.0
O154 O 0.81305 0.086 0.55895 0.0
O155 O 0.82817 0.06632 0.44685 0.0
C156 C 0.90607 0.37877 0.36704 0.0
O157 O 0.91726 0.38304 0.34775 0.0
O158 O 0.9262 0.40785 0.30643 0.0
Zn159 Zn 0.90821 0.40143 0.32416 0.0
O160 O 0.90698 0.41346 0.37162 0.0
C161 C 0.90325 0.39972 0.21659 0.0
O162 O 0.91141 0.3959 0.21571 0.0
O163 O 0.90035 0.38474 0.35935 0.0
C164 C 0.91016 0.42442 0.35687 0.0
O165 O 0.91468 0.42794 0.31066 0.0
C166 C 0.93521 0.41278 0.33778 0.0
O167 O 0.93292 0.41352 0.38621 0.0
O168 O 0.8996 0.40151 0.25941 0.0
C169 C 0.62483 0.52835 0.3618 0.0
O170 O 0.62246 0.5355 0.3324 0.0
O171 O 0.5952 0.5202 0.30533 0.0
Zn172 Zn 0.6011 0.50824 0.32374 0.0
O173 O 0.58834 0.49506 0.36994 0.0
C174 C 0.60153 0.50402 0.21597 0.0
O175 O 0.60398 0.51561 0.21286 0.0
O176 O 0.61737 0.51665 0.36189 0.0
C177 C 0.57936 0.48504 0.35208 0.0
O178 O 0.5782 0.48341 0.30244 0.0
C179 C 0.59238 0.52605 0.33749 0.0
O180 O 0.59369 0.52472 0.38644 0.0
O181 O 0.60147 0.49951 0.25961 0.0
C182 C 0.4718 0.09283 0.37038 0.0
O183 O 0.46492 0.08258 0.3443 0.0
O184 O 0.48126 0.07234 0.31482 0.0
Zn185 Zn 0.49266 0.09031 0.33346 0.0
O186 O 0.50585 0.09137 0.38091 0.0
C187 C 0.49758 0.0954 0.22599 0.0
O188 O 0.48646 0.08552 0.22138 0.0
O189 O 0.48359 0.0978 0.36924 0.0
C190 C 0.51347 0.08803 0.36557 0.0
O191 O 0.51225 0.0835 0.31927 0.0
C192 C 0.47581 0.06361 0.34716 0.0
O193 O 0.47726 0.06627 0.39608 0.0
O194 O 0.50165 0.09968 0.27025 0.0
C195 C 0.71966 0.58066 0.74807 0.0
O196 O 0.72954 0.5916 0.73965 0.0
O197 O 0.74281 0.5996 0.83875 0.0
Zn198 Zn 0.73563 0.58119 0.82616 0.0
O199 O 0.74783 0.57867 0.78385 0.0
C200 C 0.73444 0.57768 0.9361 0.0
O201 O 0.73487 0.58848 0.93709 0.0
O202 O 0.71971 0.57423 0.78579 0.0
C203 C 0.75382 0.57365 0.80177 0.0
O204 O 0.75228 0.57015 0.84977 0.0
C205 C 0.75397 0.60594 0.85456 0.0
O206 O 0.7605 0.60035 0.86136 0.0
O207 O 0.73349 0.57242 0.8934 0.0
C208 C 0.41947 0.13917 0.73985 0.0
O209 O 0.40773 0.13623 0.73652 0.0
O210 O 0.40148 0.14574 0.82576 0.0
Zn211 Zn 0.4198 0.15677 0.81125 0.0
O212 O 0.42214 0.17155 0.76961 0.0
C213 C 0.424 0.15801 0.92051 0.0
O214 O 0.41393 0.14695 0.92053 0.0
O215 O 0.42657 0.14762 0.771 0.0
C216 C 0.42694 0.18245 0.78844 0.0
O217 O 0.43048 0.18424 0.83639 0.0
C218 C 0.3956 0.15069 0.84531 0.0
O219 O 0.40161 0.16274 0.85416 0.0
O220 O 0.42869 0.16324 0.87815 0.0
C221 C 0.86279 0.28508 0.75756 0.0
O222 O 0.86785 0.27798 0.76107 0.0
O223 O 0.85536 0.25923 0.84003 0.0
Zn224 Zn 0.84396 0.26582 0.82083 0.0
O225 O 0.83004 0.25328 0.77691 0.0
C226 C 0.84088 0.26799 0.92856 0.0
O227 O 0.85248 0.27044 0.93043 0.0
O228 O 0.8528 0.28203 0.7819 0.0
C229 C 0.82189 0.24297 0.79613 0.0
O230 O 0.82305 0.24051 0.84393 0.0
C231 C 0.85705 0.25174 0.81264 0.0
O232 O 0.85165 0.24843 0.76777 0.0
O233 O 0.83581 0.26694 0.8853 0.0
C234 C 0.42121 0.27674 0.23713 0.0
O235 O 0.4103 0.2667 0.23034 0.0
O236 O 0.40305 0.25636 0.33988 0.0
Zn237 Zn 0.42068 0.2617 0.31836 0.0
O238 O 0.42087 0.24814 0.27688 0.0
C239 C 0.4276 0.26613 0.42482 0.0
O240 O 0.41902 0.26939 0.42657 0.0
O241 O 0.42781 0.27718 0.27509 0.0
C242 C 0.43067 0.24731 0.27467 0.0
O243 O 0.4407 0.25551 0.29915 0.0
C244 C 0.39369 0.24651 0.32306 0.0
O245 O 0.39538 0.23981 0.28858 0.0
O246 O 0.43053 0.26356 0.38192 0.0
C247 C 0.7118 0.14087 0.29071 0.0
O248 O 0.71457 0.13372 0.31819 0.0
O249 O 0.74158 0.1493 0.34621 0.0
Zn250 Zn 0.73555 0.16116 0.32784 0.0
O251 O 0.74788 0.17439 0.28107 0.0
C252 C 0.73319 0.16425 0.43516 0.0
O253 O 0.72919 0.15223 0.43603 0.0
O254 O 0.71905 0.1526 0.29138 0.0
C255 C 0.75873 0.18228 0.29659 0.0
O256 O 0.76201 0.18143 0.34343 0.0
C257 C 0.74445 0.14337 0.31471 0.0
O258 O 0.74327 0.1446 0.26556 0.0
O259 O 0.73539 0.16979 0.39238 0.0
C260 C 0.85711 0.57373 0.26788 0.0
O261 O 0.86234 0.58586 0.27307 0.0
O262 O 0.85095 0.59191 0.3542 0.0
Zn263 Zn 0.83859 0.57451 0.33076 0.0
O264 O 0.82563 0.57496 0.28621 0.0
C265 C 0.83453 0.56725 0.43663 0.0
O266 O 0.84655 0.57511 0.44015 0.0
O267 O 0.84691 0.56673 0.2909 0.0
C268 C 0.8166 0.5647 0.27063 0.0
O269 O 0.81629 0.55425 0.28274 0.0
C270 C 0.85264 0.6016 0.33064 0.0
O271 O 0.84648 0.60036 0.28819 0.0
O272 O 0.82944 0.56474 0.39286 0.0
C273 C 0.61607 0.08704 0.9094 0.0
O274 O 0.60679 0.07571 0.91751 0.0
O275 O 0.59228 0.06764 0.82071 0.0
Zn276 Zn 0.59871 0.0858 0.83651 0.0
O277 O 0.58651 0.0875 0.88153 0.0
C278 C 0.59961 0.08991 0.72758 0.0
O279 O 0.6016 0.08045 0.72591 0.0
O280 O 0.61512 0.09347 0.87372 0.0
C281 C 0.58683 0.09791 0.88357 0.0
O282 O 0.59525 0.10732 0.85677 0.0
C283 C 0.58317 0.05884 0.8443 0.0
O284 O 0.57801 0.06152 0.88234 0.0
O285 O 0.59923 0.0944 0.77068 0.0
C286 C 0.90845 0.52953 0.88485 0.0
O287 O 0.92027 0.53649 0.87302 0.0
O288 O 0.92859 0.52267 0.81159 0.0
Zn289 Zn 0.91084 0.51039 0.83077 0.0
O290 O 0.91041 0.49706 0.87571 0.0
C291 C 0.90564 0.50656 0.72301 0.0
O292 O 0.91448 0.51829 0.72015 0.0
O293 O 0.90248 0.51835 0.86887 0.0
C294 C 0.91313 0.48922 0.85736 0.0
O295 O 0.91679 0.49037 0.80963 0.0
C296 C 0.93793 0.52554 0.84015 0.0
O297 O 0.93612 0.52075 0.88622 0.0
O298 O 0.90181 0.50166 0.76668 0.0
C299 C 0.46751 0.37477 0.86412 0.0
O300 O 0.45979 0.37702 0.83807 0.0
O301 O 0.47295 0.40469 0.8229 0.0
Zn302 Zn 0.48619 0.40001 0.83421 0.0
O303 O 0.49984 0.41196 0.88112 0.0
C304 C 0.49749 0.41243 0.74631 0.0
O305 O 0.49485 0.41998 0.77149 0.0
O306 O 0.47901 0.38293 0.86517 0.0
C307 C 0.50202 0.42271 0.89473 0.0
O308 O 0.49459 0.42678 0.87948 0.0
C309 C 0.46648 0.40676 0.85477 0.0
O310 O 0.46777 0.40553 0.90382 0.0
O311 O 0.49441 0.40187 0.76578 0.0
C312 C 0.57132 0.71041 0.70191 0.0
O313 O 0.58123 0.71259 0.67559 0.0
O314 O 0.59527 0.73972 0.6563 0.0
Zn315 Zn 0.57727 0.73495 0.66559 0.0
O316 O 0.5757 0.74757 0.70855 0.0
C317 C 0.57847 0.74521 0.57058 0.0
O318 O 0.5893 0.75283 0.59138 0.0
O319 O 0.56766 0.71833 0.70078 0.0
C320 C 0.58435 0.75872 0.71591 0.0
O321 O 0.59543 0.76251 0.69624 0.0
C322 C 0.60356 0.7419 0.68963 0.0
O323 O 0.6006 0.74064 0.73825 0.0
O324 O 0.57071 0.73566 0.5957 0.0
C325 C 0.2888 0.86101 0.70339 0.0
O326 O 0.28541 0.86839 0.68149 0.0
O327 O 0.25968 0.85345 0.64653 0.0
Zn328 Zn 0.26536 0.84119 0.66276 0.0
O329 O 0.25305 0.82814 0.71019 0.0
C330 C 0.26564 0.83736 0.5546 0.0
O331 O 0.269 0.84923 0.55272 0.0
O332 O 0.28204 0.84929 0.69788 0.0
C333 C 0.24192 0.82082 0.69584 0.0
O334 O 0.23843 0.82219 0.6501 0.0
C335 C 0.2557 0.85814 0.6794 0.0
O336 O 0.25553 0.8553 0.7278 0.0
O337 O 0.26473 0.83232 0.5978 0.0
C338 C 0.13815 0.42489 0.7145 0.0
O339 O 0.13118 0.41369 0.69542 0.0
O340 O 0.14678 0.40504 0.64937 0.0
Zn341 Zn 0.15848 0.42291 0.66872 0.0
O342 O 0.17168 0.42372 0.7155 0.0
C343 C 0.16237 0.42829 0.56135 0.0
O344 O 0.15057 0.41963 0.55867 0.0
O345 O 0.14979 0.43069 0.70561 0.0
C346 C 0.17946 0.42065 0.69968 0.0
O347 O 0.17847 0.41647 0.65285 0.0
C348 C 0.14279 0.39589 0.67996 0.0
O349 O 0.14601 0.39794 0.72827 0.0
O350 O 0.16734 0.43201 0.60496 0.0
C351 C 0.38125 0.91059 0.09886 0.0
O352 O 0.38924 0.9226 0.09831 0.0
O353 O 0.40622 0.9289 0.18502 0.0
Zn354 Zn 0.39976 0.91095 0.16519 0.0
O355 O 0.412 0.90972 0.11891 0.0
C356 C 0.39818 0.90535 0.27265 0.0
O357 O 0.39567 0.91444 0.27615 0.0
O358 O 0.3834 0.90357 0.12737 0.0
C359 C 0.42264 0.91215 0.13516 0.0
O360 O 0.42583 0.91602 0.18235 0.0
C361 C 0.41399 0.93812 0.15851 0.0
O362 O 0.41776 0.93611 0.11456 0.0
O363 O 0.3991 0.90156 0.2287 0.0
C364 C 0.08878 0.46933 0.10481 0.0
O365 O 0.07662 0.46394 0.10923 0.0
O366 O 0.06988 0.47746 0.17982 0.0
Zn367 Zn 0.08799 0.48879 0.16242 0.0
O368 O 0.08978 0.50241 0.11561 0.0
C369 C 0.09307 0.49142 0.27006 0.0
O370 O 0.08474 0.47949 0.27024 0.0
O371 O 0.09559 0.47972 0.12679 0.0
C372 C 0.08667 0.51029 0.12976 0.0
O373 O 0.0818 0.50922 0.1753 0.0
C374 C 0.06088 0.47537 0.15046 0.0
O375 O 0.06324 0.48037 0.10471 0.0
O376 O 0.09667 0.49707 0.22759 0.0
C377 C 0.52709 0.61511 0.08595 0.0
O378 O 0.52949 0.60603 0.0786 0.0
O379 O 0.52343 0.5919 0.17713 0.0
Zn380 Zn 0.51127 0.5977 0.15971 0.0
O381 O 0.49747 0.58513 0.11548 0.0
C382 C 0.50852 0.59974 0.26796 0.0
O383 O 0.52038 0.60306 0.26874 0.0
O384 O 0.51962 0.61403 0.12144 0.0
C385 C 0.4893 0.57473 0.13391 0.0
O386 O 0.49037 0.57203 0.18147 0.0
C387 C 0.52444 0.58361 0.15255 0.0
O388 O 0.51762 0.57866 0.11159 0.0
O389 O 0.5031 0.5982 0.2252 0.0
C390 C 0.09251 0.61883 0.61087 0.0
O391 O 0.08313 0.61693 0.64023 0.0
O392 O 0.07119 0.58989 0.67365 0.0
Zn393 Zn 0.08895 0.59556 0.65455 0.0
O394 O 0.08939 0.58234 0.61196 0.0
C395 C 0.09448 0.59795 0.76215 0.0
O396 O 0.08557 0.60075 0.76415 0.0
O397 O 0.09667 0.61132 0.61297 0.0
C398 C 0.08686 0.57197 0.63179 0.0
O399 O 0.08343 0.56983 0.67986 0.0
C400 C 0.0624 0.58707 0.64205 0.0
O401 O 0.06482 0.58812 0.59292 0.0
O402 O 0.09829 0.59665 0.71883 0.0
C403 C 0.37898 0.47406 0.62412 0.0
O404 O 0.38139 0.46666 0.6517 0.0
O405 O 0.40756 0.481 0.68452 0.0
Zn406 Zn 0.40268 0.49362 0.66387 0.0
O407 O 0.41578 0.50652 0.61817 0.0
C408 C 0.40002 0.49713 0.77058 0.0
O409 O 0.39537 0.485 0.77214 0.0
O410 O 0.38642 0.48575 0.6256 0.0
C411 C 0.42665 0.51387 0.63509 0.0
O412 O 0.42941 0.51254 0.68224 0.0
C413 C 0.41148 0.47573 0.6542 0.0
O414 O 0.41228 0.47829 0.60523 0.0
O415 O 0.40266 0.50258 0.72755 0.0
C416 C 0.52621 0.90514 0.61803 0.0
O417 O 0.5327 0.91682 0.63265 0.0
O418 O 0.51753 0.92459 0.6832 0.0
Zn419 Zn 0.50594 0.9065 0.66664 0.0
O420 O 0.49241 0.90498 0.61998 0.0
C421 C 0.50261 0.90202 0.77478 0.0
O422 O 0.51441 0.91072 0.77618 0.0
O423 O 0.51481 0.89876 0.63079 0.0
C424 C 0.48479 0.90838 0.63459 0.0
O425 O 0.48611 0.91331 0.68015 0.0
C426 C 0.51964 0.93354 0.65343 0.0
O427 O 0.51439 0.93108 0.60816 0.0
O428 O 0.49746 0.89792 0.73174 0.0
C429 C 0.2831 0.42138 0.2424 0.0
O430 O 0.27385 0.41 0.2499 0.0
O431 O 0.25893 0.4023 0.15452 0.0
Zn432 Zn 0.26563 0.4205 0.17061 0.0
O433 O 0.2537 0.4225 0.21607 0.0
C434 C 0.26666 0.42469 0.06208 0.0
O435 O 0.26882 0.41534 0.06077 0.0
O436 O 0.28209 0.42795 0.20747 0.0
C437 C 0.24337 0.42081 0.19887 0.0
O438 O 0.24035 0.41728 0.15124 0.0
C439 C 0.25015 0.39345 0.17934 0.0
O440 O 0.24544 0.39604 0.21923 0.0
O441 O 0.26622 0.4292 0.10504 0.0
C442 C 0.57429 0.86283 0.21476 0.0
O443 O 0.58621 0.86913 0.20369 0.0
O444 O 0.59316 0.85457 0.14026 0.0
Zn445 Zn 0.57506 0.84316 0.15762 0.0
O446 O 0.57355 0.82915 0.20183 0.0
C447 C 0.57047 0.84055 0.04945 0.0
O448 O 0.5797 0.85212 0.04867 0.0
O449 O 0.56765 0.8519 0.19693 0.0
C450 C 0.5714 0.81881 0.18295 0.0
O451 O 0.57052 0.8173 0.13323 0.0
C452 C 0.60208 0.85692 0.17052 0.0
O453 O 0.59959 0.85216 0.2167 0.0
O454 O 0.56601 0.83542 0.09223 0.0
C455 C 0.13454 0.70934 0.2076 0.0
O456 O 0.12685 0.71228 0.18541 0.0
O457 O 0.14184 0.7386 0.14964 0.0
Zn458 Zn 0.15411 0.73293 0.16551 0.0
O459 O 0.16724 0.74533 0.21233 0.0
C460 C 0.15824 0.73312 0.05723 0.0
O461 O 0.1466 0.73054 0.05477 0.0
O462 O 0.14621 0.71637 0.20163 0.0
C463 C 0.17466 0.7564 0.19771 0.0
O464 O 0.17334 0.75988 0.15186 0.0
C465 C 0.13678 0.74208 0.18295 0.0
O466 O 0.13916 0.7416 0.23148 0.0
O467 O 0.16298 0.73342 0.1006 0.0
H468 H 0.22103 0.96838 0.42685 0.0
H469 H 0.22875 0.98436 0.36033 0.0
H470 H 0.19263 0.98141 0.35093 0.0
H471 H 0.18487 0.9656 0.41792 0.0
H472 H 0.21968 0.98102 0.26185 0.0
H473 H 0.21589 0.01893 0.35738 0.0
H474 H 0.21523 0.00602 0.39206 0.0
H475 H 0.20174 0.00415 0.35854 0.0
C476 C 0.21477 0.97128 0.41126 0.0
C477 C 0.20233 0.96571 0.42774 0.0
C478 C 0.2192 0.98039 0.37315 0.0
C479 C 0.2113 0.98415 0.35101 0.0
C480 C 0.19896 0.97883 0.36817 0.0
H481 H 0.21814 0.03263 0.09889 0.0
H482 H 0.21046 0.01683 0.16626 0.0
C483 C 0.19452 0.96974 0.40636 0.0
C484 C 0.21574 0.99305 0.30775 0.0
H485 H 0.2198 0.02109 0.26805 0.0
C486 C 0.21979 0.98982 0.26329 0.0
C487 C 0.2158 0.00448 0.30969 0.0
C488 C 0.21204 0.00868 0.35713 0.0
C489 C 0.22373 0.99764 0.22038 0.0
C490 C 0.22376 0.00905 0.2223 0.0
C491 C 0.2197 0.01229 0.26669 0.0
C492 C 0.22822 0.01793 0.17907 0.0
C493 C 0.22761 0.99354 0.17302 0.0
C494 C 0.24073 0.02369 0.16378 0.0
C495 C 0.24515 0.03271 0.12533 0.0
C496 C 0.23715 0.03617 0.10161 0.0
C497 C 0.22454 0.03016 0.11625 0.0
C498 C 0.22014 0.02116 0.15483 0.0
H499 H 0.22416 0.98336 0.17326 0.0
H500 H 0.22411 0.99589 0.13816 0.0
H501 H 0.23794 0.99847 0.17098 0.0
H502 H 0.24716 0.02146 0.18256 0.0
H503 H 0.25492 0.03719 0.11512 0.0
H504 H 0.95958 0.17903 0.10811 0.0
H505 H 0.97577 0.18749 0.17375 0.0
H506 H 0.97888 0.22356 0.15716 0.0
H507 H 0.96279 0.21525 0.09107 0.0
H508 H 0.00197 0.22422 0.16279 0.0
H509 H 0.9701 0.19602 0.31948 0.0
H510 H 0.97026 0.1872 0.26537 0.0
H511 H 0.9645 0.19786 0.25835 0.0
C512 C 0.96375 0.18879 0.11814 0.0
C513 C 0.95982 0.19645 0.09458 0.0
C514 C 0.97294 0.19358 0.15592 0.0
C515 C 0.97832 0.20607 0.17098 0.0
C516 C 0.97475 0.21385 0.14631 0.0
H517 H 0.03388 0.25389 0.39195 0.0
H518 H 0.01752 0.24494 0.3272 0.0
C519 C 0.96557 0.20908 0.10853 0.0
C520 C 0.98763 0.21105 0.21266 0.0
H521 H 0.99154 0.20806 0.33987 0.0
C522 C -0.0003 0.22072 0.20155 0.0
C523 C 0.98461 0.20644 0.26313 0.0
C524 C 0.97164 0.19638 0.27761 0.0
C525 C 0.00891 0.2258 0.23947 0.0
C526 C 0.00588 0.22124 0.29001 0.0
C527 C 0.99382 0.21153 0.30109 0.0
C528 C 0.01513 0.22643 0.33184 0.0
C529 C 0.02188 0.23583 0.22488 0.0
C530 C 0.0188 0.21885 0.3575 0.0
C531 C 0.02809 0.22391 0.39488 0.0
C532 C 0.03383 0.23664 0.40732 0.0
C533 C 0.02973 0.24407 0.38302 0.0
C534 C 0.02044 0.239 0.34574 0.0
H535 H 0.02348 0.236 0.1831 0.0
H536 H 0.0232 0.24505 0.23604 0.0
H537 H 0.02903 0.2345 0.24488 0.0
H538 H 0.01473 0.2091 0.34758 0.0
H539 H 0.031 0.21792 0.41295 0.0
H540 H 0.74488 0.78237 0.39241 0.0
H541 H 0.75329 0.7753 0.32412 0.0
H542 H 0.78878 0.8091 0.33766 0.0
H543 H 0.78053 0.81617 0.40657 0.0
H544 H 0.76245 0.78714 0.23174 0.0
H545 H 0.79873 0.78237 0.33689 0.0
H546 H 0.78655 0.7837 0.36892 0.0
H547 H 0.79992 0.79734 0.3439 0.0
C548 C 0.75453 0.78823 0.38142 0.0
C549 C 0.76204 0.79983 0.40501 0.0
C550 C 0.75931 0.78418 0.34228 0.0
C551 C 0.77168 0.79162 0.32613 0.0
C552 C 0.77927 0.8031 0.35019 0.0
H553 H 0.81595 0.78524 0.08419 0.0
H554 H 0.80763 0.79287 0.15079 0.0
C555 C 0.77452 0.80715 0.38947 0.0
C556 C 0.77642 0.78766 0.28228 0.0
H557 H 0.7989 0.78096 0.24656 0.0
C558 C 0.77038 0.78573 0.235 0.0
C559 C 0.78679 0.78588 0.28665 0.0
C560 C 0.79332 0.78732 0.3369 0.0
C561 C 0.77454 0.78219 0.19176 0.0
C562 C 0.78492 0.78042 0.19615 0.0
C563 C 0.79098 0.78239 0.24334 0.0
C564 C 0.78949 0.77622 0.15262 0.0
C565 C 0.76795 0.78059 0.14155 0.0
C566 C 0.78197 0.76438 0.13124 0.0
C567 C 0.78669 0.75998 0.09316 0.0
C568 C 0.79903 0.76733 0.07599 0.0
C569 C 0.8064 0.77935 0.09646 0.0
C570 C 0.80168 0.78372 0.13462 0.0
H571 H 0.76229 0.78527 0.1416 0.0
H572 H 0.77472 0.78436 0.10958 0.0
H573 H 0.76159 0.77051 0.13446 0.0
H574 H 0.7726 0.75838 0.14518 0.0
H575 H 0.78077 0.75068 0.07835 0.0
H576 H 0.74807 0.96826 0.93611 0.0
H577 H 0.75585 0.98452 0.87062 0.0
H578 H 0.78713 0.97911 0.84351 0.0
H579 H 0.77944 0.96282 0.90869 0.0
H580 H 0.77991 0.00708 0.86207 0.0
H581 H 0.77016 0.97411 0.70161 0.0
H582 H 0.76334 0.96903 0.76409 0.0
H583 H 0.77925 0.97318 0.75308 0.0
C584 C 0.75666 0.97059 0.91653 0.0
C585 C 0.76308 0.96417 0.9274 0.0
C586 C 0.76108 0.97987 0.8791 0.0
C587 C 0.77193 0.98284 0.8517 0.0
C588 C 0.77861 0.97678 0.86365 0.0
H589 H 0.81074 0.03298 0.59968 0.0
H590 H 0.80336 0.01689 0.66587 0.0
C591 C 0.77423 0.96753 0.90115 0.0
C592 C 0.77619 0.99217 0.81017 0.0
H593 H 0.78065 0.99558 0.68129 0.0
C594 C 0.78005 0.00459 0.82251 0.0
C595 C 0.77639 0.98885 0.7587 0.0
C596 C 0.77198 0.97556 0.74326 0.0
C597 C 0.78429 0.01385 0.78472 0.0
C598 C 0.78438 0.01052 0.73311 0.0
C599 C 0.78055 0.9981 0.72085 0.0
C600 C 0.78841 0.01981 0.69134 0.0
C601 C 0.78891 0.02716 0.80061 0.0
C602 C 0.7822 0.0265 0.68268 0.0
C603 C 0.78642 0.03572 0.64509 0.0
C604 C 0.79684 0.03832 0.61501 0.0
C605 C 0.8027 0.03122 0.62225 0.0
C606 C 0.79852 0.02204 0.66011 0.0
H607 H 0.79147 0.02865 0.84167 0.0
H608 H 0.79713 0.03374 0.77773 0.0
H609 H 0.7814 0.02943 0.79441 0.0
H610 H 0.77417 0.02469 0.7054 0.0
H611 H 0.78161 0.04093 0.64016 0.0
H612 H 0.03312 0.78262 0.91294 0.0
H613 H 0.01752 0.77558 0.84526 0.0
H614 H 0.01695 0.81002 0.85529 0.0
H615 H 0.03274 0.81727 0.92264 0.0
H616 H 0.9936 0.77231 0.84274 0.0
H617 H 0.02488 0.80857 0.7045 0.0
H618 H 0.03056 0.80536 0.76266 0.0
H619 H 0.02287 0.81438 0.7644 0.0
C620 C 0.02963 0.78868 0.90109 0.0
C621 C 0.03427 0.80056 0.92289 0.0
C622 C 0.02072 0.78464 0.86236 0.0
C623 C 0.01628 0.79238 0.84457 0.0
C624 C 0.02047 0.80402 0.8677 0.0
H625 H 0.96316 0.77997 0.60097 0.0
H626 H 0.97827 0.78909 0.67064 0.0
C627 C 0.02942 0.8081 0.90646 0.0
C628 C 0.00741 0.78826 0.80129 0.0
H629 H 0.00424 0.7949 0.67749 0.0
C630 C 0.99591 0.77726 0.80666 0.0
C631 C 0.01047 0.79475 0.75426 0.0
C632 C 0.0229 0.80637 0.74571 0.0
C633 C 0.98738 0.77255 0.76619 0.0
C634 C 0.99052 0.77892 0.71896 0.0
C635 C 0.0019 0.79005 0.71381 0.0
C636 C 0.98218 0.77394 0.67421 0.0
C637 C 0.97503 0.76081 0.7743 0.0
C638 C 0.97974 0.76263 0.65215 0.0
C639 C 0.97118 0.75743 0.6123 0.0
C640 C 0.96489 0.76345 0.59377 0.0
C641 C 0.9678 0.77507 0.61446 0.0
C642 C 0.97641 0.78029 0.65429 0.0
H643 H 0.97285 0.75873 0.81548 0.0
H644 H 0.96736 0.76155 0.75586 0.0
H645 H 0.97537 0.75283 0.75678 0.0
H646 H 0.98429 0.75771 0.66648 0.0
H647 H 0.96922 0.7485 0.59709 0.0
H648 H 0.21789 0.18137 0.60185 0.0
H649 H 0.20959 0.18911 0.66812 0.0
H650 H 0.2427 0.22529 0.65937 0.0
H651 H 0.25102 0.2177 0.59271 0.0
H652 H 0.22071 0.19865 0.76285 0.0
H653 H 0.21463 0.23356 0.65298 0.0
H654 H 0.21669 0.22163 0.62257 0.0
H655 H 0.2299 0.23537 0.64785 0.0
C656 C 0.22333 0.19103 0.61346 0.0
C657 C 0.23512 0.19893 0.59193 0.0
C658 C 0.21859 0.19542 0.65143 0.0
C659 C 0.22549 0.20779 0.6683 0.0
C660 C 0.23713 0.21576 0.64624 0.0
H661 H 0.21648 0.25186 0.90201 0.0
H662 H 0.22442 0.24355 0.8368 0.0
C663 C 0.24189 0.21139 0.60826 0.0
C664 C 0.22081 0.21217 0.71087 0.0
H665 H 0.21277 0.2339 0.7431 0.0
C666 C 0.21889 0.20631 0.75853 0.0
C667 C 0.2185 0.22218 0.70506 0.0
C668 C 0.21992 0.22849 0.65426 0.0
C669 C 0.21495 0.21036 0.80091 0.0
C670 C 0.2127 0.22041 0.79514 0.0
C671 C 0.21456 0.22623 0.74742 0.0
C672 C 0.2083 0.22501 0.83791 0.0
C673 C 0.2135 0.20404 0.85171 0.0
C674 C 0.19666 0.21729 0.86056 0.0
C675 C 0.1921 0.222 0.89801 0.0
C676 C 0.19906 0.23455 0.91311 0.0
C677 C 0.21087 0.24216 0.89128 0.0
C678 C 0.21542 0.23744 0.85391 0.0
H679 H 0.21858 0.19877 0.85278 0.0
H680 H 0.21694 0.21094 0.88327 0.0
H681 H 0.20348 0.19735 0.85854 0.0
H682 H 0.19093 0.20773 0.84813 0.0
H683 H 0.18295 0.21591 0.91385 0.0
H684 H 0.8841 0.29414 0.70106 0.0
H685 H 0.8915 0.31024 0.6352 0.0
H686 H 0.86049 0.31594 0.66517 0.0
H687 H 0.85294 0.29977 0.73103 0.0
H688 H 0.86392 0.31213 0.56048 0.0
H689 H 0.90783 0.34838 0.64993 0.0
H690 H 0.906 0.33306 0.64831 0.0
H691 H 0.89553 0.33585 0.68603 0.0
C692 C 0.87892 0.29891 0.69416 0.0
C693 C 0.86792 0.29566 0.72132 0.0
C694 C 0.8832 0.30815 0.65662 0.0
C695 C 0.8766 0.31434 0.64566 0.0
C696 C 0.86574 0.31128 0.67325 0.0
H697 H 0.88408 0.36879 0.41953 0.0
H698 H 0.87659 0.35263 0.48509 0.0
C699 C 0.86147 0.30207 0.71096 0.0
C700 C 0.88065 0.3235 0.6035 0.0
H701 H 0.90464 0.35141 0.56308 0.0
C702 C 0.87279 0.32076 0.56108 0.0
C703 C 0.89226 0.33468 0.60439 0.0
C704 C 0.90087 0.33826 0.64975 0.0
C705 C 0.87632 0.32884 0.51902 0.0
C706 C 0.88792 0.34005 0.51993 0.0
C707 C 0.89577 0.34278 0.56241 0.0
C708 C 0.89202 0.34922 0.47771 0.0
C709 C 0.86773 0.32516 0.47354 0.0
C710 C 0.90323 0.35272 0.452 0.0
C711 C 0.90758 0.36202 0.41466 0.0
C712 C 0.90084 0.36804 0.40258 0.0
C713 C 0.88947 0.3643 0.42766 0.0
C714 C 0.88514 0.35502 0.46504 0.0
H715 H 0.86105 0.31498 0.47281 0.0
H716 H 0.86226 0.33002 0.47556 0.0
H717 H 0.87308 0.32786 0.43729 0.0
H718 H 0.9087 0.34837 0.46136 0.0
H719 H 0.91638 0.36468 0.39617 0.0
H720 H 0.63072 0.51629 0.43438 0.0
H721 H 0.64675 0.52556 0.50015 0.0
H722 H 0.65876 0.56212 0.43855 0.0
H723 H 0.64254 0.55295 0.37311 0.0
H724 H 0.67212 0.53976 0.49393 0.0
H725 H 0.65253 0.5664 0.58745 0.0
H726 H 0.64399 0.55445 0.54056 0.0
H727 H 0.65578 0.56977 0.52078 0.0
C728 C 0.63679 0.5263 0.4346 0.0
C729 C 0.63528 0.53389 0.39869 0.0
C730 C 0.64595 0.53158 0.47229 0.0
C731 C 0.65377 0.54454 0.47491 0.0
C732 C 0.65261 0.55212 0.43802 0.0
H733 H 0.71595 0.59276 0.6689 0.0
H734 H 0.69965 0.58385 0.60376 0.0
C735 C 0.6434 0.54685 0.40038 0.0
C736 C 0.66314 0.55007 0.51631 0.0
H737 H 0.67224 0.57021 0.61713 0.0
C738 C 0.67212 0.54638 0.52098 0.0
C739 C 0.66307 0.55866 0.55171 0.0
C740 C 0.65326 0.56248 0.55033 0.0
C741 C 0.68116 0.55121 0.5596 0.0
C742 C 0.68114 0.55986 0.59466 0.0
C743 C 0.6722 0.56357 0.59007 0.0
C744 C 0.6905 0.5653 0.6359 0.0
C745 C 0.69082 0.5472 0.56218 0.0
C746 C 0.69054 0.55785 0.67616 0.0
C747 C 0.69979 0.56291 0.71367 0.0
C748 C 0.70919 0.57551 0.71132 0.0
C749 C 0.70888 0.58301 0.67168 0.0
C750 C 0.69959 0.57795 0.63444 0.0
H751 H 0.69099 0.54233 0.52688 0.0
H752 H 0.70024 0.55538 0.56843 0.0
H753 H 0.68869 0.54074 0.59485 0.0
H754 H 0.68349 0.54808 0.6782 0.0
H755 H 0.69975 0.55689 0.74372 0.0
H756 H 0.40651 0.11961 0.67492 0.0
H757 H 0.41495 0.11095 0.61334 0.0
H758 H 0.45224 0.13732 0.66256 0.0
H759 H 0.44388 0.14585 0.72503 0.0
H760 H 0.43037 0.12294 0.53354 0.0
H761 H 0.45295 0.10506 0.66457 0.0
H762 H 0.44197 0.10958 0.68647 0.0
H763 H 0.45795 0.1212 0.67477 0.0
C764 C 0.4165 0.12348 0.67309 0.0
C765 C 0.42452 0.1334 0.70498 0.0
C766 C 0.42131 0.11852 0.63782 0.0
C767 C 0.43421 0.12338 0.63379 0.0
C768 C 0.44224 0.13323 0.66582 0.0
H769 H 0.48343 0.11325 0.43221 0.0
H770 H 0.47383 0.12063 0.49407 0.0
C771 C 0.43744 0.13813 0.70135 0.0
C772 C 0.43929 0.11859 0.59425 0.0
H773 H 0.45822 0.10623 0.57645 0.0
C774 C 0.43637 0.11919 0.54292 0.0
C775 C 0.44713 0.1137 0.60661 0.0
C776 C 0.45009 0.11222 0.66113 0.0
C777 C 0.44132 0.11531 0.5035 0.0
C778 C 0.4493 0.11061 0.51587 0.0
C779 C 0.45214 0.10991 0.56716 0.0
C780 C 0.45493 0.10648 0.47618 0.0
C781 C 0.43824 0.11656 0.44891 0.0
C782 C 0.44745 0.09611 0.44546 0.0
C783 C 0.4529 0.09186 0.40996 0.0
C784 C 0.46593 0.09788 0.4048 0.0
C785 C 0.47337 0.1084 0.43512 0.0
C786 C 0.46791 0.11262 0.4706 0.0
H787 H 0.43428 0.12283 0.44536 0.0
H788 H 0.44666 0.1202 0.42443 0.0
H789 H 0.43125 0.10725 0.43423 0.0
H790 H 0.43741 0.09113 0.44977 0.0
H791 H 0.44691 0.0837 0.3874 0.0
H792 H 0.40843 0.27945 0.1581 0.0
H793 H 0.4164 0.29577 0.09302 0.0
H794 H 0.45252 0.31346 0.16497 0.0
H795 H 0.44464 0.29715 0.23049 0.0
H796 H 0.42838 0.32281 0.10932 0.0
H797 H 0.45867 0.30795 0.01171 0.0
H798 H 0.44603 0.29772 0.05329 0.0
H799 H 0.46035 0.30981 0.07984 0.0
C800 C 0.41807 0.28682 0.16023 0.0
C801 C 0.42592 0.28698 0.19937 0.0
C802 C 0.42259 0.29613 0.12301 0.0
C803 C 0.43507 0.3057 0.12392 0.0
C804 C 0.44289 0.30603 0.16332 0.0
H805 H 0.48066 0.36898 0.93167 0.0
H806 H 0.47244 0.35187 0.99303 0.0
C807 C 0.43836 0.29676 0.20084 0.0
C808 C 0.43983 0.31536 0.08371 0.0
H809 H 0.45976 0.32651 0.98244 0.0
C810 C 0.43521 0.32363 0.08142 0.0
C811 C 0.44874 0.31635 0.04758 0.0
C812 C 0.45371 0.30745 0.04771 0.0
C813 C 0.43947 0.33307 0.04443 0.0
C814 C 0.44834 0.33403 0.00798 0.0
C815 C 0.45293 0.32572 0.01026 0.0
C816 C 0.45329 0.34388 0.96827 0.0
C817 C 0.4347 0.34214 0.04573 0.0
C818 C 0.44531 0.34484 0.93289 0.0
C819 C 0.44997 0.35467 0.89786 0.0
C820 C 0.46272 0.36363 0.89725 0.0
C821 C 0.47077 0.36228 0.93118 0.0
C822 C 0.4661 0.3525 0.96634 0.0
H823 H 0.4306 0.34216 0.08341 0.0
H824 H 0.44227 0.35176 0.03719 0.0
H825 H 0.42732 0.33943 0.01647 0.0
H826 H 0.43544 0.33809 0.93286 0.0
H827 H 0.44353 0.35538 0.87197 0.0
H828 H 0.70483 0.15303 0.2229 0.0
H829 H 0.6885 0.14385 0.15834 0.0
H830 H 0.6783 0.10706 0.21215 0.0
H831 H 0.69481 0.11617 0.27645 0.0
H832 H 0.68132 0.10942 0.10793 0.0
H833 H 0.65101 0.12782 0.17267 0.0
H834 H 0.66696 0.1397 0.16379 0.0
H835 H 0.66302 0.12809 0.21252 0.0
C836 C 0.69902 0.14298 0.22153 0.0
C837 C 0.70112 0.13533 0.25493 0.0
C838 C 0.68964 0.13775 0.1847 0.0
C839 C 0.68208 0.12478 0.18086 0.0
C840 C 0.684 0.1171 0.21464 0.0
H841 H 0.62174 0.07507 0.98282 0.0
H842 H 0.63836 0.08434 0.04633 0.0
C843 C 0.69342 0.12233 0.25144 0.0
C844 C 0.67263 0.11922 0.1398 0.0
H845 H 0.64684 0.11859 0.09011 0.0
C846 C 0.67373 0.11135 0.10422 0.0
C847 C 0.66278 0.12181 0.13492 0.0
C848 C 0.66077 0.12972 0.17327 0.0
C849 C 0.66534 0.10615 0.06344 0.0
C850 C 0.65554 0.1088 0.05847 0.0
C851 C 0.65444 0.11667 0.09393 0.0
C852 C 0.64606 0.10315 0.01775 0.0
C853 C 0.6671 0.098 0.02552 0.0
C854 C 0.6449 0.11068 0.98067 0.0
C855 C 0.63542 0.1054 0.94413 0.0
C856 C 0.62685 0.09253 0.9446 0.0
C857 C 0.62819 0.08501 0.98136 0.0
C858 C 0.63771 0.09028 0.01759 0.0
H859 H 0.67659 0.0992 0.02785 0.0
H860 H 0.66024 0.08809 0.03355 0.0
H861 H 0.66548 0.10011 0.98599 0.0
H862 H 0.65124 0.12065 0.9804 0.0
H863 H 0.63459 0.11145 0.91649 0.0
H864 H 0.87942 0.58604 0.21838 0.0
H865 H 0.8876 0.57776 0.154 0.0
H866 H 0.85524 0.54131 0.17144 0.0
H867 H 0.84692 0.54951 0.23593 0.0
H868 H 0.89249 0.55725 0.16188 0.0
H869 H 0.85663 0.54948 0.01619 0.0
H870 H 0.85958 0.55938 0.07105 0.0
H871 H 0.85091 0.54275 0.07805 0.0
C872 C 0.87405 0.57625 0.20878 0.0
C873 C 0.86248 0.56845 0.23205 0.0
C874 C 0.87875 0.57154 0.172 0.0
C875 C 0.87193 0.55898 0.15752 0.0
C876 C 0.86054 0.55107 0.18162 0.0
H877 H 0.88504 0.51667 0.92592 0.0
H878 H 0.87611 0.52375 0.99215 0.0
C879 C 0.85585 0.55576 0.21865 0.0
C880 C 0.87673 0.55427 0.11672 0.0
H881 H 0.8712 0.54325 0.99456 0.0
C882 C 0.88785 0.55418 0.12528 0.0
C883 C 0.87061 0.55026 0.06916 0.0
C884 C 0.85882 0.55053 0.05762 0.0
C885 C 0.893 0.55008 0.08754 0.0
C886 C 0.887 0.54626 0.0396 0.0
C887 C 0.8758 0.54623 0.03127 0.0
C888 C 0.8922 0.54224 0.99767 0.0
C889 C 0.9047 0.54967 0.09967 0.0
C890 C 0.90406 0.55042 0.97777 0.0
C891 C 0.90921 0.5464 0.94002 0.0
C892 C 0.90253 0.53415 0.92115 0.0
C893 C 0.89044 0.52615 0.93971 0.0
C894 C 0.88533 0.53017 0.9776 0.0
H895 H 0.90614 0.5496 0.14148 0.0
H896 H 0.90439 0.54132 0.08262 0.0
H897 H 0.91286 0.55808 0.08361 0.0
H898 H 0.90939 0.55988 0.99185 0.0
H899 H 0.9185 0.55283 0.92628 0.0
H900 H 0.5774 0.69224 0.71706 0.0
H901 H 0.56906 0.67584 0.78184 0.0
H902 H 0.54375 0.68799 0.83251 0.0
H903 H 0.55207 0.70448 0.76809 0.0
H904 H 0.55798 0.6854 0.91142 0.0
H905 H 0.53514 0.64334 0.78842 0.0
H906 H 0.55101 0.65423 0.77173 0.0
H907 H 0.53933 0.6587 0.76547 0.0
C908 C 0.56994 0.69133 0.74147 0.0
C909 C 0.56541 0.69968 0.73737 0.0
C910 C 0.56516 0.68192 0.77837 0.0
C911 C 0.55573 0.68065 0.81165 0.0
C912 C 0.55101 0.68881 0.80705 0.0
H913 H 0.52064 0.63323 0.07751 0.0
H914 H 0.52761 0.64956 0.01249 0.0
C915 C 0.55576 0.6982 0.77009 0.0
C916 C 0.55129 0.67128 0.85311 0.0
H917 H 0.53732 0.64005 0.87618 0.0
C918 C 0.55338 0.67547 0.90384 0.0
C919 C 0.54533 0.65837 0.84295 0.0
C920 C 0.54245 0.65334 0.78923 0.0
C921 C 0.54996 0.66708 0.9448 0.0
C922 C 0.54408 0.65415 0.93465 0.0
C923 C 0.54187 0.64997 0.88387 0.0
C924 C 0.54031 0.64476 0.97593 0.0
C925 C 0.55303 0.67215 0.99842 0.0
C926 C 0.54505 0.63658 0.97671 0.0
C927 C 0.541 0.62719 0.01344 0.0
C928 C 0.53212 0.62577 0.05016 0.0
C929 C 0.52756 0.63414 0.05001 0.0
C930 C 0.53157 0.64351 0.01298 0.0
H931 H 0.56034 0.68215 0.99891 0.0
H932 H 0.54454 0.6713 0.01647 0.0
H933 H 0.55625 0.66684 0.0219 0.0
H934 H 0.55179 0.63738 0.94846 0.0
H935 H 0.54471 0.62092 0.0125 0.0
H936 H 0.36529 0.88593 0.0776 0.0
H937 H 0.34971 0.87736 0.00947 0.0
H938 H 0.35799 0.91445 0.96877 0.0
H939 H 0.37369 0.92312 0.03606 0.0
H940 H 0.32853 0.87916 0.98996 0.0
H941 H 0.36327 0.90098 0.83456 0.0
H942 H 0.36765 0.90017 0.89953 0.0
H943 H 0.36383 0.91185 0.88119 0.0
C944 C 0.36373 0.89226 0.05443 0.0
C945 C 0.37083 0.90522 0.06191 0.0
C946 C 0.35484 0.88735 0.01546 0.0
C947 C 0.35292 0.8953 0.98335 0.0
C948 C 0.35957 0.90818 0.99228 0.0
H949 H 0.30428 0.88543 0.7293 0.0
H950 H 0.3201 0.89351 0.79655 0.0
C951 C 0.36848 0.9131 0.03102 0.0
C952 C 0.34404 0.89015 0.94021 0.0
H953 H 0.34195 0.89127 0.81055 0.0
C954 C 0.33146 0.88174 0.95071 0.0
C955 C 0.34792 0.89352 0.88902 0.0
C956 C 0.36142 0.90204 0.8752 0.0
C957 C 0.32259 0.87684 0.91144 0.0
C958 C 0.32646 0.88031 0.86036 0.0
C959 C 0.33904 0.88866 0.8498 0.0
C960 C 0.31751 0.87547 0.81743 0.0
C961 C 0.3091 0.86821 0.925 0.0
C962 C 0.31113 0.86272 0.80592 0.0
C963 C 0.30212 0.85807 0.76747 0.0
C964 C 0.29935 0.86611 0.73977 0.0
C965 C 0.30615 0.87897 0.75 0.0
C966 C 0.31518 0.88361 0.78844 0.0
H967 H 0.30728 0.86869 0.9662 0.0
H968 H 0.30291 0.87048 0.90237 0.0
H969 H 0.30659 0.85848 0.91606 0.0
H970 H 0.31299 0.85633 0.82725 0.0
H971 H 0.29711 0.84813 0.7604 0.0
H972 H 0.15032 0.44699 0.76631 0.0
H973 H 0.14194 0.4544 0.83348 0.0
H974 H 0.10562 0.42202 0.813 0.0
H975 H 0.11393 0.41442 0.74623 0.0
H976 H 0.1225 0.45976 0.83263 0.0
H977 H 0.11254 0.42092 0.96541 0.0
H978 H 0.1222 0.42419 0.90952 0.0
H979 H 0.10552 0.41604 0.90356 0.0
C980 C 0.14052 0.44147 0.7758 0.0
C981 C 0.13282 0.43005 0.7512 0.0
C982 C 0.13576 0.44572 0.81424 0.0
C983 C 0.12323 0.43862 0.8289 0.0
C984 C 0.11539 0.42748 0.80303 0.0
H985 H 0.0768 0.44755 0.05112 0.0
H986 H 0.08557 0.44018 0.98542 0.0
C987 C 0.12014 0.42321 0.76462 0.0
C988 C 0.11842 0.44284 0.8716 0.0
H989 H 0.10531 0.43462 0.99008 0.0
C990 C 0.11879 0.4543 0.86716 0.0
C991 C 0.11363 0.43569 0.91663 0.0
C992 C 0.11353 0.42358 0.92447 0.0
C993 C 0.11425 0.45871 0.90618 0.0
C994 C 0.10939 0.45153 0.95107 0.0
C995 C 0.10905 0.44009 0.95559 0.0
C996 C 0.10437 0.45565 0.99328 0.0
C997 C 0.1144 0.47086 0.89857 0.0
C998 C 0.11212 0.46658 0.0205 0.0
C999 C 0.10715 0.47082 0.05818 0.0
C1000 C 0.09433 0.46416 0.06931 0.0
C1001 C 0.0867 0.45293 0.04335 0.0
C1002 C 0.09169 0.4487 0.00578 0.0
H1003 H 0.11578 0.47377 0.85789 0.0
H1004 H 0.10557 0.47012 0.91217 0.0
H1005 H 0.12216 0.47827 0.92097 0.0
H1006 H 0.12199 0.47194 0.01204 0.0
H1007 H 0.1133 0.47947 0.0776 0.0
H1008 H 0.0856 0.63638 0.59398 0.0
H1009 H 0.09235 0.65157 0.52425 0.0
H1010 H 0.11684 0.63885 0.46902 0.0
H1011 H 0.1102 0.62367 0.53832 0.0
H1012 H 0.11747 0.67096 0.49694 0.0
H1013 H 0.09413 0.63544 0.34495 0.0
H1014 H 0.09016 0.63215 0.41163 0.0
H1015 H 0.10399 0.63277 0.38718 0.0
C1016 C 0.09248 0.63686 0.56721 0.0
C1017 C 0.0973 0.62875 0.57157 0.0
C1018 C 0.09631 0.64553 0.5274 0.0
C1019 C 0.10492 0.64615 0.49112 0.0
C1020 C 0.11002 0.63835 0.4962 0.0
H1021 H 0.1482 0.70259 0.26791 0.0
H1022 H 0.14058 0.68699 0.33582 0.0
C1023 C 0.10626 0.62973 0.53604 0.0
C1024 C 0.10858 0.65494 0.44777 0.0
H1025 H 0.1076 0.65626 0.31778 0.0
C1026 C 0.11528 0.66777 0.45778 0.0
C1027 C 0.10558 0.65071 0.39683 0.0
C1028 C 0.09798 0.63702 0.38427 0.0
C1029 C 0.11934 0.6765 0.41794 0.0
C1030 C 0.11668 0.67226 0.36693 0.0
C1031 C 0.10971 0.65944 0.35697 0.0
C1032 C 0.12115 0.68105 0.32348 0.0
C1033 C 0.12641 0.69021 0.43063 0.0
C1034 C 0.11268 0.68255 0.293 0.0
C1035 C 0.11699 0.69147 0.25406 0.0
C1036 C 0.12984 0.69895 0.24477 0.0
C1037 C 0.13825 0.69702 0.2741 0.0
C1038 C 0.13393 0.68816 0.31312 0.0
H1039 H 0.1254 0.69196 0.47145 0.0
H1040 H 0.13645 0.69397 0.42262 0.0
H1041 H 0.12314 0.69541 0.40668 0.0
H1042 H 0.10276 0.67706 0.30031 0.0
H1043 H 0.11027 0.69269 0.2321 0.0
H1044 H 0.36159 0.44952 0.60887 0.0
H1045 H 0.34543 0.44084 0.54302 0.0
H1046 H 0.35648 0.47791 0.49037 0.0
H1047 H 0.37269 0.4867 0.55581 0.0
H1048 H 0.3253 0.44581 0.52352 0.0
H1049 H 0.35862 0.45941 0.36172 0.0
H1050 H 0.36309 0.45895 0.42691 0.0
H1051 H 0.36129 0.47171 0.40524 0.0
C1052 C 0.36054 0.45584 0.58352 0.0
C1053 C 0.36849 0.4688 0.58741 0.0
C1054 C 0.35131 0.45086 0.54591 0.0
C1055 C 0.34994 0.45874 0.51138 0.0
C1056 C 0.35757 0.47168 0.51612 0.0
H1057 H 0.30166 0.44578 0.25029 0.0
H1058 H 0.318 0.45487 0.31538 0.0
C1059 C 0.36677 0.47667 0.55377 0.0
C1060 C 0.34054 0.45341 0.4702 0.0
H1061 H 0.33728 0.45056 0.34073 0.0
C1062 C 0.3279 0.4468 0.48355 0.0
C1063 C 0.344 0.4548 0.41816 0.0
C1064 C 0.35748 0.46151 0.40191 0.0
C1065 C 0.31857 0.44166 0.4461 0.0
C1066 C 0.32202 0.44292 0.394 0.0
C1067 C 0.33468 0.44959 0.38068 0.0
C1068 C 0.31261 0.43732 0.35286 0.0
C1069 C 0.3051 0.43516 0.46265 0.0
C1070 C 0.30444 0.42441 0.3514 0.0
C1071 C 0.29509 0.41921 0.31449 0.0
C1072 C 0.29381 0.4268 0.27792 0.0
C1073 C 0.30238 0.43968 0.27799 0.0
C1074 C 0.3117 0.44489 0.31518 0.0
H1075 H 0.30405 0.438 0.5017 0.0
H1076 H 0.29936 0.43717 0.43597 0.0
H1077 H 0.30139 0.42495 0.463 0.0
H1078 H 0.3052 0.41837 0.37929 0.0
H1079 H 0.28873 0.40924 0.31518 0.0
H1080 H 0.54987 0.91667 0.57942 0.0
H1081 H 0.55793 0.9092 0.51118 0.0
H1082 H 0.52288 0.87474 0.50495 0.0
H1083 H 0.51467 0.88214 0.57287 0.0
H1084 H 0.56 0.88731 0.50357 0.0
H1085 H 0.52806 0.88857 0.35782 0.0
H1086 H 0.53072 0.89626 0.4188 0.0
H1087 H 0.52058 0.8797 0.41418 0.0
C1088 C 0.5439 0.90745 0.56391 0.0
C1089 C 0.53158 0.90005 0.58127 0.0
C1090 C 0.54852 0.90321 0.52489 0.0
C1091 C 0.54091 0.89154 0.50242 0.0
C1092 C 0.52881 0.88389 0.52115 0.0
H1093 H 0.55052 0.85137 0.25264 0.0
H1094 H 0.54254 0.85859 0.32207 0.0
C1095 C 0.52417 0.88811 0.5602 0.0
C1096 C 0.54555 0.88749 0.45866 0.0
H1097 H 0.54062 0.88013 0.33206 0.0
C1098 C 0.55581 0.88577 0.46601 0.0
C1099 C 0.54004 0.88551 0.40977 0.0
C1100 C 0.5293 0.8877 0.39931 0.0
C1101 C 0.56057 0.88189 0.42588 0.0
C1102 C 0.55507 0.87994 0.37694 0.0
C1103 C 0.54481 0.88165 0.36962 0.0
C1104 C 0.55975 0.87597 0.33299 0.0
C1105 C 0.57127 0.87966 0.43647 0.0
C1106 C 0.57196 0.88354 0.31512 0.0
C1107 C 0.57656 0.87945 0.27546 0.0
C1108 C 0.569 0.86774 0.25277 0.0
C1109 C 0.5566 0.86042 0.26937 0.0
C1110 C 0.55202 0.86452 0.30908 0.0
H1111 H 0.57232 0.87853 0.47792 0.0
H1112 H 0.56997 0.87122 0.41622 0.0
H1113 H 0.58005 0.88776 0.42269 0.0
H1114 H 0.57798 0.89255 0.33231 0.0
H1115 H 0.58612 0.88536 0.26338 0.0
H1116 H 0.2116 0.12693 0.56237 0.0
H1117 H 0.20951 0.1099 0.61667 0.0
H1118 H 0.24733 0.13292 0.66857 0.0
H1119 H 0.2495 0.15002 0.61483 0.0
H1120 H 0.22395 0.0977 0.61838 0.0
H1121 H 0.22645 0.12148 0.80093 0.0
H1122 H 0.2235 0.12655 0.74055 0.0
H1123 H 0.23911 0.13063 0.75817 0.0
C1124 C 0.21947 0.12838 0.58537 0.0
C1125 C 0.23069 0.13987 0.5846 0.0
C1126 C 0.21826 0.11863 0.61623 0.0
C1127 C 0.22821 0.12023 0.64704 0.0
C1128 C 0.23948 0.13159 0.64564 0.0
H1129 H 0.24731 0.07193 0.803 0.0
H1130 H 0.24284 0.0832 0.73785 0.0
C1131 C 0.24071 0.14133 0.61479 0.0
C1132 C 0.22683 0.11009 0.68107 0.0
H1133 H 0.22863 0.10348 0.80593 0.0
C1134 C 0.22484 0.09888 0.65945 0.0
C1135 C 0.22776 0.11159 0.73461 0.0
C1136 C 0.2292 0.12316 0.76009 0.0
C1137 C 0.2243 0.08931 0.69002 0.0
C1138 C 0.22595 0.0911 0.74335 0.0
C1139 C 0.22742 0.10212 0.765 0.0
C1140 C 0.22703 0.08216 0.77751 0.0
C1141 C 0.22204 0.0774 0.66494 0.0
C1142 C 0.21948 0.0776 0.82108 0.0
C1143 C 0.22209 0.07125 0.85872 0.0
C1144 C 0.23235 0.0694 0.85356 0.0
C1145 C 0.23934 0.07318 0.80819 0.0
C1146 C 0.23675 0.07958 0.77066 0.0
H1147 H 0.21704 0.07584 0.62809 0.0
H1148 H 0.23113 0.07804 0.65688 0.0
H1149 H 0.21656 0.06923 0.69007 0.0
H1150 H 0.21194 0.0795 0.82712 0.0
H1151 H 0.21649 0.06842 0.89309 0.0
H1152 H 0.8599 0.11406 0.51328 0.0
H1153 H 0.878 0.12826 0.5648 0.0
H1154 H 0.86637 0.10044 0.68304 0.0
H1155 H 0.84828 0.08621 0.6321 0.0
H1156 H 0.8771 0.13651 0.66714 0.0
H1157 H 0.90366 0.11144 0.65681 0.0
H1158 H 0.89158 0.10888 0.61168 0.0
H1159 H 0.88754 0.10184 0.67385 0.0
C1160 C 0.86121 0.11095 0.55019 0.0
C1161 C 0.85265 0.099 0.56859 0.0
C1162 C 0.87157 0.11906 0.57946 0.0
C1163 C 0.87361 0.1153 0.62722 0.0
C1164 C 0.86507 0.10342 0.64578 0.0
H1165 H 0.91695 0.14266 0.89445 0.0
H1166 H 0.90509 0.13074 0.8204 0.0
C1167 C 0.85468 0.09534 0.61678 0.0
C1168 C 0.88427 0.12398 0.65921 0.0
H1169 H 0.90996 0.12715 0.72089 0.0
C1170 C 0.88442 0.13461 0.67832 0.0
C1171 C 0.89375 0.12141 0.67361 0.0
C1172 C 0.89424 0.11033 0.65262 0.0
C1173 C 0.89344 0.14242 0.71377 0.0
C1174 C 0.90275 0.13967 0.72937 0.0
C1175 C 0.90285 0.12927 0.70873 0.0
C1176 C 0.91165 0.14676 0.77074 0.0
C1177 C 0.89247 0.15312 0.73631 0.0
C1178 C 0.91977 0.15966 0.76661 0.0
C1179 C 0.92652 0.16655 0.80912 0.0
C1180 C 0.92532 0.16061 0.85625 0.0
C1181 C 0.91802 0.14755 0.85887 0.0
C1182 C 0.91123 0.1407 0.81652 0.0
H1183 H 0.88329 0.15232 0.72838 0.0
H1184 H 0.89389 0.15361 0.77826 0.0
H1185 H 0.89979 0.162 0.71944 0.0
H1186 H 0.92047 0.16447 0.73118 0.0
H1187 H 0.93216 0.17658 0.80567 0.0
H1188 H 0.89936 0.74496 0.60767 0.0
H1189 H 0.88391 0.74717 0.65754 0.0
H1190 H 0.90055 0.7856 0.61084 0.0
H1191 H 0.91594 0.78344 0.56023 0.0
H1192 H 0.88868 0.76342 0.73769 0.0
H1193 H 0.86344 0.77196 0.58198 0.0
H1194 H 0.87367 0.76577 0.57042 0.0
H1195 H 0.88003 0.78214 0.58177 0.0
C1196 C 0.89969 0.75386 0.60771 0.0
C1197 C 0.90887 0.76402 0.57996 0.0
C1198 C 0.89086 0.75511 0.63618 0.0
C1199 C 0.89099 0.7665 0.63729 0.0
C1200 C 0.90012 0.77665 0.60963 0.0
H1201 H 0.85341 0.78348 0.8779 0.0
H1202 H 0.86864 0.78568 0.81346 0.0
C1203 C 0.90896 0.77542 0.58104 0.0
C1204 C 0.88197 0.76787 0.66967 0.0
H1205 H 0.85807 0.77414 0.66678 0.0
C1206 C 0.882 0.76578 0.72223 0.0
C1207 C 0.87322 0.77087 0.64921 0.0
C1208 C 0.87246 0.77271 0.5927 0.0
C1209 C 0.87349 0.76657 0.75501 0.0
C1210 C 0.86488 0.76979 0.73476 0.0
C1211 C 0.86482 0.77186 0.68217 0.0
C1212 C 0.85538 0.77019 0.7676 0.0
C1213 C 0.87356 0.76358 0.81084 0.0
C1214 C 0.84277 0.76128 0.7612 0.0
C1215 C 0.83401 0.76005 0.79769 0.0
C1216 C 0.83776 0.76771 0.84124 0.0
C1217 C 0.85024 0.77734 0.84513 0.0
C1218 C 0.85897 0.77858 0.80848 0.0
H1219 H 0.87885 0.75867 0.81799 0.0
H1220 H 0.87803 0.77238 0.83309 0.0
H1221 H 0.86392 0.7577 0.82533 0.0
H1222 H 0.83982 0.75477 0.72964 0.0
H1223 H 0.82447 0.7526 0.79333 0.0
H1224 H 0.14588 0.2305 0.87514 0.0
H1225 H 0.12899 0.22765 0.81859 0.0
H1226 H 0.11939 0.24853 0.9224 0.0
H1227 H 0.13611 0.25119 0.97998 0.0
H1228 H 0.09868 0.22733 0.88582 0.0
H1229 H 0.1302 0.25463 0.72717 0.0
H1230 H 0.1323 0.24202 0.74807 0.0
H1231 H 0.13582 0.25473 0.79075 0.0
C1232 C 0.1402 0.23452 0.88596 0.0
C1233 C 0.14241 0.24117 0.93185 0.0
C1234 C 0.13058 0.2329 0.8535 0.0
C1235 C 0.12309 0.23807 0.86587 0.0
C1236 C 0.12511 0.24452 0.91206 0.0
H1237 H 0.06757 0.24722 0.70354 0.0
H1238 H 0.08021 0.24535 0.77086 0.0
C1239 C 0.13469 0.24606 0.94481 0.0
C1240 C 0.11326 0.23685 0.83027 0.0
H1241 H 0.10858 0.24349 0.7087 0.0
C1242 C 0.10083 0.23089 0.84713 0.0
C1243 C 0.11611 0.24156 0.77992 0.0
C1244 C 0.12934 0.2487 0.76048 0.0
C1245 C 0.09115 0.22932 0.81452 0.0
C1246 C 0.09402 0.23389 0.76406 0.0
C1247 C 0.10642 0.23987 0.74732 0.0
C1248 C 0.08444 0.23302 0.72797 0.0
C1249 C 0.07792 0.22268 0.83387 0.0
C1250 C 0.08241 0.22646 0.68212 0.0
C1251 C 0.07521 0.2275 0.64357 0.0
C1252 C 0.07004 0.23527 0.65 0.0
C1253 C 0.07142 0.24118 0.69732 0.0
C1254 C 0.07861 0.24009 0.73596 0.0
H1255 H 0.07695 0.21742 0.86956 0.0
H1256 H 0.07499 0.22963 0.84194 0.0
H1257 H 0.0715 0.21613 0.80464 0.0
H1258 H 0.08688 0.22099 0.67526 0.0
H1259 H 0.07431 0.22279 0.60769 0.0
H1260 H 0.75266 0.82054 0.70751 0.0
H1261 H 0.75393 0.83451 0.77612 0.0
H1262 H 0.77852 0.8663 0.68445 0.0
H1263 H 0.77733 0.85247 0.61556 0.0
H1264 H 0.77561 0.85726 0.82934 0.0
H1265 H 0.74445 0.8665 0.70646 0.0
H1266 H 0.74636 0.85311 0.69744 0.0
H1267 H 0.75833 0.86823 0.677 0.0
C1268 C 0.75862 0.83049 0.70241 0.0
C1269 C 0.76472 0.8354 0.6557 0.0
C1270 C 0.75933 0.83845 0.7417 0.0
C1271 C 0.76616 0.85139 0.73482 0.0
C1272 C 0.77312 0.85631 0.69011 0.0
H1273 H 0.76503 0.91321 0.88069 0.0
H1274 H 0.76862 0.8995 0.82522 0.0
C1275 C 0.77243 0.84838 0.65085 0.0
C1276 C 0.76475 0.85969 0.77122 0.0
H1277 H 0.75117 0.87764 0.78351 0.0
C1278 C 0.77028 0.86174 0.81954 0.0
C1279 C 0.75773 0.86542 0.7581 0.0
C1280 C 0.75128 0.86318 0.7071 0.0
C1281 C 0.76919 0.86967 0.85493 0.0
C1282 C 0.76216 0.87541 0.84175 0.0
C1283 C 0.75658 0.87326 0.79345 0.0
C1284 C 0.76049 0.8838 0.87703 0.0
C1285 C 0.77581 0.87204 0.90551 0.0
C1286 C 0.75462 0.87948 0.92444 0.0
C1287 C 0.75258 0.88733 0.9564 0.0
C1288 C 0.75626 0.89957 0.94119 0.0
C1289 C 0.76206 0.90383 0.89354 0.0
C1290 C 0.76415 0.89601 0.86181 0.0
H1291 H 0.78339 0.86974 0.90421 0.0
H1292 H 0.77983 0.88193 0.91722 0.0
H1293 H 0.76904 0.8661 0.93513 0.0
H1294 H 0.75143 0.86999 0.93638 0.0
H1295 H 0.74803 0.88375 0.99276 0.0
H1296 H 0.17946 0.93041 0.71637 0.0
H1297 H 0.16528 0.91732 0.78381 0.0
H1298 H 0.13378 0.91059 0.69121 0.0
H1299 H 0.14781 0.92362 0.62356 0.0
H1300 H 0.14239 0.91649 0.83585 0.0
H1301 H 0.13324 0.87603 0.71365 0.0
H1302 H 0.14681 0.89125 0.70548 0.0
H1303 H 0.13188 0.88836 0.68367 0.0
C1304 C 0.16953 0.92641 0.7108 0.0
C1305 C 0.16477 0.92791 0.66425 0.0
C1306 C 0.16145 0.91894 0.7494 0.0
C1307 C 0.14853 0.91289 0.74197 0.0
C1308 C 0.14375 0.91513 0.6973 0.0
H1309 H 0.08537 0.85066 0.88434 0.0
H1310 H 0.09977 0.86766 0.8291 0.0
C1311 C 0.1518 0.9226 0.65876 0.0
C1312 C 0.14009 0.90318 0.7781 0.0
H1313 H 0.12176 0.87167 0.78988 0.0
C1314 C 0.13787 0.90668 0.82605 0.0
C1315 C 0.1343 0.89043 0.76495 0.0
C1316 C 0.1367 0.88621 0.71431 0.0
C1317 C 0.1297 0.89769 0.86099 0.0
C1318 C 0.12387 0.88491 0.84776 0.0
C1319 C 0.12622 0.88146 0.79987 0.0
C1320 C 0.11514 0.8749 0.88248 0.0
C1321 C 0.12713 0.90197 0.91108 0.0
C1322 C 0.11906 0.87324 0.93063 0.0
C1323 C 0.11082 0.86353 0.96244 0.0
C1324 C 0.09857 0.85524 0.94639 0.0
C1325 C 0.09474 0.85686 0.89788 0.0
C1326 C 0.10295 0.86659 0.86628 0.0
H1327 H 0.12963 0.91192 0.90964 0.0
H1328 H 0.11716 0.89625 0.92181 0.0
H1329 H 0.13281 0.90097 0.94146 0.0
H1330 H 0.12852 0.87935 0.94337 0.0
H1331 H 0.11408 0.8625 -0.00052 0.0
H1332 H 0.75232 0.93274 0.21172 0.0
H1333 H 0.75348 0.92122 0.28533 0.0
H1334 H 0.77479 0.90915 0.19634 0.0
H1335 H 0.77395 0.92083 0.12326 0.0
H1336 H 0.74298 0.89639 0.28507 0.0
H1337 H 0.79297 0.91671 0.32999 0.0
H1338 H 0.78718 0.92465 0.29042 0.0
H1339 H 0.79 0.91289 0.26362 0.0
C1340 C 0.75757 0.92793 0.20827 0.0
C1341 C 0.76297 0.92765 0.16149 0.0
C1342 C 0.7582 0.92133 0.25036 0.0
C1343 C 0.76429 0.91439 0.24652 0.0
C1344 C 0.77028 0.91466 0.20069 0.0
H1345 H 0.76227 0.85087 0.38007 0.0
H1346 H 0.765 0.86858 0.32898 0.0
C1347 C 0.76971 0.9213 0.15872 0.0
C1348 C 0.76302 0.90558 0.28756 0.0
H1349 H 0.77945 0.89549 0.35808 0.0
C1350 C 0.75096 0.89635 0.30184 0.0
C1351 C 0.77344 0.9055 0.3093 0.0
C1352 C 0.78662 0.91556 0.29791 0.0
C1353 C 0.74902 0.88671 0.33528 0.0
C1354 C 0.75943 0.88634 0.35516 0.0
C1355 C 0.77149 0.89578 0.34239 0.0
C1356 C 0.75793 0.87582 0.38699 0.0
C1357 C 0.73588 0.87665 0.34737 0.0
C1358 C 0.75308 0.8741 0.43654 0.0
C1359 C 0.75151 0.86399 0.46592 0.0
C1360 C 0.75475 0.85544 0.44611 0.0
C1361 C 0.75963 0.85724 0.39641 0.0
C1362 C 0.76125 0.86738 0.36723 0.0
H1363 H 0.72889 0.87733 0.32307 0.0
H1364 H 0.73486 0.86729 0.34215 0.0
H1365 H 0.73378 0.87747 0.38786 0.0
H1366 H 0.75054 0.88059 0.45249 0.0
H1367 H 0.74777 0.86289 0.50412 0.0
H1368 H 0.07648 0.85446 0.12296 0.0
H1369 H 0.08986 0.86832 0.1903 0.0
H1370 H 0.08178 0.83658 0.2841 0.0
H1371 H 0.06833 0.82257 0.21701 0.0
H1372 H 0.08379 0.85991 0.33563 0.0
H1373 H 0.12356 0.86737 0.21252 0.0
H1374 H 0.11161 0.86941 0.18283 0.0
H1375 H 0.10805 0.85424 0.2044 0.0
C1376 C 0.07727 0.8504 0.15836 0.0
C1377 C 0.07148 0.83739 0.16429 0.0
C1378 C 0.08494 0.85834 0.19673 0.0
C1379 C 0.08691 0.85342 0.24163 0.0
C1380 C 0.08038 0.84051 0.24951 0.0
H1381 H 0.13789 0.88595 0.49833 0.0
H1382 H 0.12069 0.87213 0.44227 0.0
C1383 C 0.07271 0.83253 0.2111 0.0
C1384 C 0.09682 0.86165 0.27752 0.0
H1385 H 0.12843 0.87889 0.28877 0.0
C1386 C 0.09356 0.86407 0.32562 0.0
C1387 C 0.10952 0.86698 0.2641 0.0
C1388 C 0.11347 0.86434 0.21333 0.0
C1389 C 0.10275 0.87198 0.36046 0.0
C1390 C 0.11548 0.87733 0.34701 0.0
C1391 C 0.11868 0.8748 0.29894 0.0
C1392 C 0.12569 0.88571 0.38173 0.0
C1393 C 0.09875 0.87478 0.41074 0.0
C1394 C 0.13442 0.89779 0.36569 0.0
C1395 C 0.14435 0.90563 0.39727 0.0
C1396 C 0.14575 0.90155 0.44557 0.0
C1397 C 0.13704 0.88941 0.46146 0.0
C1398 C 0.12713 0.88153 0.42967 0.0
H1399 H 0.08895 0.87276 0.40947 0.0
H1400 H 0.09943 0.86887 0.44091 0.0
H1401 H 0.10485 0.88469 0.42164 0.0
H1402 H 0.13353 0.90116 0.32868 0.0
H1403 H 0.15088 0.91493 0.38386 0.0
H1404 H 0.17662 0.24619 0.20436 0.0
H1405 H 0.16273 0.24553 0.27211 0.0
H1406 H 0.13083 0.22108 0.18071 0.0
H1407 H 0.14457 0.22164 0.1128 0.0
H1408 H 0.13338 0.245 0.2108 0.0
H1409 H 0.13735 0.21857 0.37448 0.0
H1410 H 0.15162 0.22982 0.34405 0.0
H1411 H 0.14066 0.21621 0.30955 0.0
C1412 C 0.16665 0.24037 0.19922 0.0
C1413 C 0.16171 0.23409 0.15289 0.0
C1414 C 0.15873 0.23998 0.23808 0.0
C1415 C 0.14578 0.23326 0.23128 0.0
C1416 C 0.14082 0.22629 0.18661 0.0
H1417 H 0.08308 0.23392 0.37286 0.0
H1418 H 0.09708 0.23072 0.31761 0.0
C1419 C 0.1487 0.22663 0.14787 0.0
C1420 C 0.13751 0.23492 0.26704 0.0
H1421 H 0.126 0.22902 0.38837 0.0
C1422 C 0.1317 0.24146 0.24957 0.0
C1423 C 0.13555 0.23045 0.31767 0.0
C1424 C 0.14154 0.2233 0.33777 0.0
C1425 C 0.12398 0.24371 0.28152 0.0
C1426 C 0.12176 0.239 0.33193 0.0
C1427 C 0.12768 0.23256 0.34962 0.0
C1428 C 0.11319 0.24058 0.36651 0.0
C1429 C 0.11853 0.25137 0.26126 0.0
C1430 C 0.11751 0.24686 0.41312 0.0
C1431 C 0.10948 0.2486 0.44513 0.0
C1432 C 0.097 0.24408 0.43101 0.0
C1433 C 0.09268 0.23765 0.38459 0.0
C1434 C 0.10068 0.23584 0.35286 0.0
H1435 H 0.12396 0.25725 0.22842 0.0
H1436 H 0.10888 0.24504 0.24787 0.0
H1437 H 0.11821 0.25751 0.29133 0.0
H1438 H 0.12713 0.25054 0.42443 0.0
H1439 H 0.11309 0.25355 0.48074 0.0
H1440 H 0.85256 0.77188 0.11961 0.0
H1441 H 0.86846 0.77379 0.17988 0.0
H1442 H 0.87862 0.75306 0.07763 0.0
H1443 H 0.86295 0.75138 0.01652 0.0
H1444 H 0.86869 0.75492 0.22724 0.0
H1445 H 0.91255 0.78124 0.11814 0.0
H1446 H 0.89813 0.78027 0.09821 0.0
H1447 H 0.9011 0.76775 0.08442 0.0
C1448 C 0.85828 0.76785 0.10965 0.0
C1449 C 0.85648 0.76145 0.06334 0.0
C1450 C 0.86739 0.76899 0.14407 0.0
C1451 C 0.87487 0.76374 0.13295 0.0
C1452 C 0.8732 0.75748 0.08645 0.0
H1453 H 0.90597 0.73408 0.33925 0.0
H1454 H 0.89614 0.73898 0.26937 0.0
C1455 C 0.86415 0.75642 0.05177 0.0
C1456 C 0.88349 0.76373 0.17211 0.0
H1457 H 0.91341 0.77023 0.19248 0.0
C1458 C 0.8785 0.75844 0.21979 0.0
C1459 C 0.89633 0.76842 0.16258 0.0
C1460 C 0.90238 0.77486 0.11323 0.0
C1461 C 0.88585 0.75726 0.25743 0.0
C1462 C 0.89849 0.76128 0.24685 0.0
C1463 C 0.90366 0.76704 0.20009 0.0
C1464 C 0.90609 0.75883 0.28333 0.0
C1465 C 0.88 0.75149 0.30806 0.0
C1466 C 0.91535 0.76848 0.31274 0.0
C1467 C 0.92105 0.76571 0.35287 0.0
C1468 C 0.91748 0.75325 0.36393 0.0
C1469 C 0.90881 0.74375 0.33205 0.0
C1470 C 0.90319 0.74652 0.29207 0.0
H1471 H 0.87117 0.75155 0.31446 0.0
H1472 H 0.87788 0.74167 0.30883 0.0
H1473 H 0.88648 0.75651 0.33999 0.0
H1474 H 0.91769 0.77805 0.30633 0.0
H1475 H 0.92769 0.77322 0.37684 0.0
H1476 H 0.232 0.08444 0.12866 0.0
H1477 H 0.22926 0.09889 0.183 0.0
H1478 H 0.24591 0.12732 0.06722 0.0
H1479 H 0.24846 0.11282 0.01202 0.0
H1480 H 0.24768 0.12088 0.22025 0.0
H1481 H 0.21489 0.12899 0.10421 0.0
H1482 H 0.21779 0.11633 0.09162 0.0
H1483 H 0.22875 0.13188 0.07096 0.0
C1484 C 0.235 0.09374 0.11452 0.0
C1485 C 0.24045 0.09749 0.06601 0.0
C1486 C 0.2334 0.10197 0.1456 0.0
C1487 C 0.2372 0.11411 0.12885 0.0
C1488 C 0.24263 0.1179 0.08041 0.0
H1489 H 0.24961 0.17871 0.30268 0.0
H1490 H 0.24779 0.16484 0.23259 0.0
C1491 C 0.24418 0.10963 0.0491 0.0
C1492 C 0.23626 0.123 0.16372 0.0
H1493 H 0.22364 0.14187 0.17744 0.0
C1494 C 0.24237 0.12541 0.21092 0.0
C1495 C 0.22936 0.12895 0.15135 0.0
C1496 C 0.22223 0.12634 0.10198 0.0
C1497 C 0.24183 0.13364 0.24604 0.0
C1498 C 0.23495 0.13955 0.23374 0.0
C1499 C 0.2289 0.13727 0.1865 0.0
C1500 C 0.23401 0.14807 0.27044 0.0
C1501 C 0.24867 0.13602 0.29613 0.0
C1502 C 0.22646 0.14321 0.31372 0.0
C1503 C 0.22746 0.15107 0.35381 0.0
C1504 C 0.2361 0.16392 0.35126 0.0
C1505 C 0.24292 0.16886 0.30597 0.0
C1506 C 0.24188 0.16097 0.26583 0.0
H1507 H 0.2549 0.13197 0.29702 0.0
H1508 H 0.25433 0.14618 0.30349 0.0
H1509 H 0.24181 0.13182 0.32761 0.0
H1510 H 0.22032 0.13325 0.31772 0.0
H1511 H 0.22201 0.14696 0.38797 0.0
H1512 H 0.81458 0.06344 0.30608 0.0
H1513 H 0.82734 0.07441 0.23188 0.0
H1514 H 0.86063 0.08649 0.32152 0.0
H1515 H 0.84802 0.07537 0.39524 0.0
H1516 H 0.84189 0.09923 0.23095 0.0
H1517 H 0.87111 0.07823 0.18897 0.0
H1518 H 0.85736 0.07055 0.22849 0.0
H1519 H 0.87197 0.08229 0.25506 0.0
C1520 C 0.82462 0.06812 0.30958 0.0
C1521 C 0.83027 0.0686 0.35672 0.0
C1522 C 0.8319 0.0744 0.26714 0.0
C1523 C 0.84494 0.08121 0.271 0.0
C1524 C 0.85061 0.08109 0.31719 0.0
H1525 H 0.90693 0.14373 0.13456 0.0
H1526 H 0.8919 0.12619 0.18624 0.0
C1527 C 0.84335 0.07476 0.35952 0.0
C1528 C 0.85254 0.08982 0.22957 0.0
H1529 H 0.87901 0.09938 0.15943 0.0
C1530 C 0.84986 0.09911 0.2145 0.0
C1531 C 0.86297 0.08968 0.20831 0.0
C1532 C 0.86594 0.07956 0.22068 0.0
C1533 C 0.85765 0.10861 0.18071 0.0
C1534 C 0.86835 0.10876 0.1612 0.0
C1535 C 0.87082 0.09926 0.17479 0.0
C1536 C 0.87742 0.1191 0.12888 0.0
C1537 C 0.85472 0.11875 0.1679 0.0
C1538 C 0.87423 0.12085 0.07946 0.0
C1539 C 0.88279 0.13087 0.04978 0.0
C1540 C 0.89467 0.13931 0.06912 0.0
C1541 C 0.89784 0.13745 0.1186 0.0
C1542 C 0.8893 0.12741 0.14811 0.0
H1543 H 0.84723 0.11835 0.1925 0.0
H1544 H 0.86317 0.12807 0.17208 0.0
H1545 H 0.85161 0.11773 0.1276 0.0
H1546 H 0.86513 0.11446 0.06388 0.0
H1547 H 0.88008 0.13201 0.01175 0.0
H1548 H 0.8899 0.41174 0.20791 0.0
H1549 H 0.88956 0.42382 0.13531 0.0
H1550 H 0.91048 0.4113 0.04625 0.0
H1551 H 0.91113 0.39936 0.11937 0.0
H1552 H 0.92156 0.43621 0.04845 0.0
H1553 H 0.87188 0.41718 0.0006 0.0
H1554 H 0.87468 0.42066 0.06728 0.0
H1555 H 0.87723 0.40879 0.03983 0.0
C1556 C 0.89415 0.41126 0.17251 0.0
C1557 C 0.90064 0.40466 0.16962 0.0
C1558 C 0.89387 0.41813 0.13081 0.0
C1559 C 0.89991 0.41839 0.08515 0.0
C1560 C 0.90573 0.41119 0.0811 0.0
H1561 H 0.91867 0.47117 0.83091 0.0
H1562 H 0.91538 0.45319 0.88189 0.0
C1563 C 0.90607 0.40436 0.12292 0.0
C1564 C 0.90155 0.42745 0.04464 0.0
H1565 H 0.8859 0.43841 0.97403 0.0
C1566 C 0.91376 0.43654 0.03136 0.0
C1567 C 0.89137 0.4279 0.02253 0.0
C1568 C 0.87806 0.41802 0.03292 0.0
C1569 C 0.91606 0.44641 0.99854 0.0
C1570 C 0.90588 0.44714 0.97824 0.0
C1571 C 0.89368 0.43784 0.99002 0.0
C1572 C 0.90776 0.45786 0.9469 0.0
C1573 C 0.92934 0.4563 0.98758 0.0
C1574 C 0.90448 0.46634 0.9666 0.0
C1575 C 0.90639 0.47663 0.93777 0.0
C1576 C 0.91152 0.47855 0.8885 0.0
C1577 C 0.91475 0.46998 0.8688 0.0
C1578 C 0.91288 0.45972 0.89781 0.0
H1579 H 0.9361 0.45538 0.01244 0.0
H1580 H 0.9316 0.45552 0.94727 0.0
H1581 H 0.93055 0.46573 0.99294 0.0
H1582 H 0.90053 0.46504 0.00449 0.0
H1583 H 0.90375 0.48302 0.95402 0.0
H1584 H 0.59221 0.47881 0.21366 0.0
H1585 H 0.57747 0.46419 0.15157 0.0
H1586 H 0.5817 0.49489 0.05934 0.0
H1587 H 0.59648 0.50962 0.12107 0.0
H1588 H 0.55529 0.4648 0.13441 0.0
H1589 H 0.58053 0.46959 0.95326 0.0
H1590 H 0.58834 0.47432 0.01424 0.0
H1591 H 0.58363 0.48406 0.98172 0.0
C1592 C 0.59032 0.48249 0.17941 0.0
C1593 C 0.5954 0.4954 0.17269 0.0
C1594 C 0.58187 0.4741 0.14402 0.0
C1595 C 0.57849 0.47847 0.10098 0.0
C1596 C 0.5843 0.49133 0.09202 0.0
H1597 H 0.50857 0.44525 0.93828 0.0
H1598 H 0.52734 0.45859 0.98808 0.0
C1599 C 0.59273 0.49974 0.12749 0.0
C1600 C 0.56764 0.46973 0.0699 0.0
H1601 H 0.55832 0.45885 0.9489 0.0
C1602 C 0.55597 0.46342 0.09394 0.0
C1603 C 0.56857 0.46796 0.01718 0.0
C1604 C 0.58095 0.47425 0.99001 0.0
C1605 C 0.54514 0.45557 0.0664 0.0
C1606 C 0.54601 0.45408 0.01345 0.0
C1607 C 0.55771 0.46014 0.98951 0.0
C1608 C 0.53482 0.44617 0.98254 0.0
C1609 C 0.53282 0.44892 0.09405 0.0
C1610 C 0.53292 0.43484 0.96281 0.0
C1611 C 0.52219 0.42717 0.93472 0.0
C1612 C 0.51324 0.43076 0.92543 0.0
C1613 C 0.51526 0.4422 0.94487 0.0
C1614 C 0.52596 0.44983 0.97331 0.0
H1615 H 0.53403 0.44924 0.13612 0.0
H1616 H 0.52725 0.4534 0.08444 0.0
H1617 H 0.52742 0.43902 0.08185 0.0
H1618 H 0.53968 0.43189 0.96963 0.0
H1619 H 0.52097 0.41846 0.92005 0.0
H1620 H 0.58469 0.11871 0.89457 0.0
H1621 H 0.56999 0.12122 0.94872 0.0
H1622 H 0.55387 0.08305 0.99822 0.0
H1623 H 0.56855 0.08046 0.94464 0.0
H1624 H 0.54334 0.10753 0.94886 0.0
H1625 H 0.56347 0.10341 0.13192 0.0
H1626 H 0.57164 0.10634 0.07196 0.0
H1627 H 0.55969 0.09082 0.0884 0.0
C1628 C 0.57803 0.11085 0.91704 0.0
C1629 C 0.57785 0.09941 0.91562 0.0
C1630 C 0.56963 0.1123 0.9478 0.0
C1631 C 0.56098 0.10237 0.97787 0.0
C1632 C 0.56062 0.09089 0.97588 0.0
H1633 H 0.49368 0.0851 0.1308 0.0
H1634 H 0.50948 0.08916 0.06647 0.0
C1635 C 0.569 0.08942 0.94512 0.0
C1636 C 0.55234 0.10398 0.0117 0.0
H1637 H 0.54361 0.10196 0.13618 0.0
C1638 C 0.54345 0.10645 0.98989 0.0
C1639 C 0.55267 0.10279 0.0652 0.0
C1640 C 0.56245 0.10081 0.09091 0.0
C1641 C 0.53451 0.10722 0.02019 0.0
C1642 C 0.53442 0.10533 0.07343 0.0
C1643 C 0.54364 0.10337 0.09531 0.0
C1644 C 0.52447 0.10453 0.10724 0.0
C1645 C 0.52523 0.11001 0.99493 0.0
C1646 C 0.52758 0.11197 0.15118 0.0
C1647 C 0.51859 0.10958 0.18835 0.0
C1648 C 0.50632 0.09967 0.18232 0.0
C1649 C 0.50303 0.09281 0.13663 0.0
C1650 C 0.51205 0.09517 0.09958 0.0
H1651 H 0.52892 0.1151 0.9584 0.0
H1652 H 0.51662 0.10111 0.98624 0.0
H1653 H 0.52275 0.11562 0.02021 0.0
H1654 H 0.53712 0.11923 0.15785 0.0
H1655 H 0.52142 0.11508 0.22298 0.0
H1656 H 0.7335 0.55533 0.94918 0.0
H1657 H 0.74397 0.55008 0.01553 0.0
H1658 H 0.75522 0.58519 0.08988 0.0
H1659 H 0.74446 0.59031 0.02479 0.0
H1660 H 0.76841 0.56308 0.02714 0.0
H1661 H 0.74677 0.56293 0.21169 0.0
H1662 H 0.73942 0.56224 0.15136 0.0
H1663 H 0.75124 0.57697 0.17669 0.0
C1664 C 0.73786 0.56175 0.98057 0.0
C1665 C 0.73822 0.57327 0.98153 0.0
C1666 C 0.74387 0.55875 0.01842 0.0
C1667 C 0.75035 0.56721 0.05787 0.0
C1668 C 0.75006 0.57838 0.06057 0.0
H1669 H 0.81295 0.58422 0.2487 0.0
H1670 H 0.79602 0.58375 0.19869 0.0
C1671 C 0.74394 0.58133 0.02304 0.0
C1672 C 0.75882 0.56522 0.09155 0.0
H1673 H 0.76766 0.56609 0.21566 0.0
C1674 C 0.76808 0.5635 0.0684 0.0
C1675 C 0.75845 0.56585 0.1454 0.0
C1676 C 0.74835 0.56697 0.17271 0.0
C1677 C 0.77724 0.56286 0.09746 0.0
C1678 C 0.77711 0.56393 0.15102 0.0
C1679 C 0.76773 0.56535 0.17445 0.0
C1680 C 0.78696 0.564 0.18298 0.0
C1681 C 0.78726 0.56147 0.07073 0.0
C1682 C 0.78737 0.55302 0.19074 0.0
C1683 C 0.797 0.55324 0.21932 0.0
C1684 C 0.8064 0.56447 0.2404 0.0
C1685 C 0.80588 0.57544 0.23278 0.0
C1686 C 0.7962 0.57518 0.20447 0.0
H1687 H 0.78693 0.56232 0.02863 0.0
H1688 H 0.79661 0.56864 0.08456 0.0
H1689 H 0.7861 0.55219 0.07967 0.0
H1690 H 0.78027 0.5443 0.17445 0.0
H1691 H 0.79711 0.54462 0.22458 0.0
H1692 H 0.41201 0.15244 0.01262 0.0
H1693 H 0.41533 0.16716 0.08117 0.0
H1694 H 0.44773 0.19564 0.00322 0.0
H1695 H 0.44442 0.18107 0.93413 0.0
H1696 H 0.4358 0.18404 0.14736 0.0
H1697 H 0.42206 0.20799 0.00354 0.0
H1698 H 0.41989 0.19263 0.99327 0.0
H1699 H 0.43506 0.20615 0.98597 0.0
C1700 C 0.42005 0.16173 0.01066 0.0
C1701 C 0.42781 0.16566 0.96743 0.0
C1702 C 0.42193 0.17012 0.04992 0.0
C1703 C 0.43161 0.18253 0.04656 0.0
C1704 C 0.44008 0.18614 0.00596 0.0
H1705 H 0.45013 0.24306 0.26108 0.0
H1706 H 0.45051 0.22692 0.20867 0.0
C1707 C 0.43819 0.17779 0.9666 0.0
C1708 C 0.43189 0.19198 0.08177 0.0
H1709 H 0.42758 0.21709 0.08513 0.0
C1710 C 0.43406 0.19131 0.1339 0.0
C1711 C 0.42937 0.20128 0.064 0.0
C1712 C 0.42635 0.20205 0.00875 0.0
C1713 C 0.4339 0.19984 0.1688 0.0
C1714 C 0.43162 0.20928 0.15078 0.0
C1715 C 0.42939 0.20988 0.09871 0.0
C1716 C 0.43124 0.21856 0.18514 0.0
C1717 C 0.43588 0.19852 0.22472 0.0
C1718 C 0.42033 0.2193 0.18867 0.0
C1719 C 0.4201 0.22855 0.2182 0.0
C1720 C 0.43082 0.23729 0.24456 0.0
C1721 C 0.44171 0.23646 0.24132 0.0
C1722 C 0.44192 0.22718 0.21172 0.0
H1723 H 0.43458 0.18917 0.2337 0.0
H1724 H 0.44552 0.20562 0.23542 0.0
H1725 H 0.42936 0.20007 0.24852 0.0
H1726 H 0.41201 0.21276 0.16817 0.0
H1727 H 0.41156 0.22892 0.21993 0.0
H1728 H 0.84771 0.2654 0.02514 0.0
H1729 H 0.83372 0.25316 0.09457 0.0
H1730 H 0.80209 0.24753 0.00546 0.0
H1731 H 0.81593 0.25972 0.9358 0.0
H1732 H 0.81143 0.25344 0.14902 0.0
H1733 H 0.80046 0.21235 0.02747 0.0
H1734 H 0.81432 0.22731 0.01835 0.0
H1735 H 0.79947 0.22492 0.99772 0.0
C1736 C 0.83781 0.26186 0.02078 0.0
C1737 C 0.83292 0.26336 0.97458 0.0
C1738 C 0.82984 0.25488 0.06054 0.0
C1739 C 0.81691 0.24934 0.05463 0.0
C1740 C 0.81207 0.25169 0.0104 0.0
H1741 H 0.75385 0.18807 0.20203 0.0
H1742 H 0.76803 0.20504 0.1462 0.0
C1743 C 0.82 0.25867 0.97068 0.0
C1744 C 0.80846 0.23986 0.09147 0.0
H1745 H 0.78955 0.20848 0.10488 0.0
C1746 C 0.80663 0.24361 0.13961 0.0
C1747 C 0.80229 0.22707 0.07882 0.0
C1748 C 0.80425 0.22259 0.02795 0.0
C1749 C 0.79851 0.23482 0.17529 0.0
C1750 C 0.79233 0.22199 0.16259 0.0
C1751 C 0.79427 0.21831 0.11447 0.0
C1752 C 0.78368 0.21216 0.19812 0.0
C1753 C 0.79639 0.23935 0.22564 0.0
C1754 C 0.78781 0.21047 0.24574 0.0
C1755 C 0.7797 0.20078 0.27792 0.0
C1756 C 0.76737 0.19253 0.26272 0.0
C1757 C 0.7633 0.19423 0.21488 0.0
C1758 C 0.77138 0.20395 0.18294 0.0
H1759 H 0.79908 0.24935 0.22395 0.0
H1760 H 0.78648 0.23383 0.23743 0.0
H1761 H 0.80217 0.23829 0.2554 0.0
H1762 H 0.79736 0.21651 0.25768 0.0
H1763 H 0.78314 0.19969 0.31443 0.0
H1764 H 0.42076 0.26734 0.52303 0.0
H1765 H 0.42349 0.25711 0.59768 0.0
H1766 H 0.44552 0.24607 0.50787 0.0
H1767 H 0.44308 0.25646 0.43359 0.0
H1768 H 0.41397 0.23235 0.5982 0.0
H1769 H 0.46427 0.25492 0.64115 0.0
H1770 H 0.45777 0.26226 0.60195 0.0
H1771 H 0.46124 0.25098 0.57487 0.0
C1772 C 0.42652 0.26308 0.51956 0.0
C1773 C 0.43158 0.26259 0.47218 0.0
C1774 C 0.42806 0.25722 0.56228 0.0
C1775 C 0.43474 0.25085 0.55845 0.0
C1776 C 0.44053 0.25112 0.5121 0.0
H1777 H 0.41988 0.18192 0.68918 0.0
H1778 H 0.42199 0.19935 0.63791 0.0
C1779 C 0.43904 0.257 0.46946 0.0
C1780 C 0.43405 0.24237 0.59979 0.0
H1781 H 0.45162 0.23355 0.66966 0.0
C1782 C 0.42221 0.23277 0.61452 0.0
C1783 C 0.44479 0.24293 0.62136 0.0
C1784 C 0.45772 0.25342 0.60939 0.0
C1785 C 0.42083 0.22337 0.6482 0.0
C1786 C 0.43156 0.22346 0.66695 0.0
C1787 C 0.4434 0.2334 0.65449 0.0
C1788 C 0.43062 0.21304 0.6979 0.0
C1789 C 0.40787 0.21333 0.66287 0.0
C1790 C 0.43507 0.21505 0.74816 0.0
C1791 C 0.43391 0.20511 0.77757 0.0
C1792 C 0.42836 0.19301 0.75701 0.0
C1793 C 0.42413 0.19109 0.70627 0.0
C1794 C 0.42528 0.20103 0.67698 0.0
H1795 H 0.40094 0.21643 0.65716 0.0
H1796 H 0.40508 0.20502 0.63856 0.0
H1797 H 0.40752 0.21052 0.70334 0.0
H1798 H 0.43928 0.22427 0.76483 0.0
H1799 H 0.43731 0.20691 0.81646 0.0
H1800 H 0.8033 0.21977 0.82422 0.0
H1801 H 0.78514 0.20524 0.77386 0.0
H1802 H 0.79756 0.23152 0.64947 0.0
H1803 H 0.81573 0.24611 0.69933 0.0
H1804 H 0.77084 0.21995 0.67939 0.0
H1805 H 0.78727 0.18612 0.64509 0.0
H1806 H 0.78737 0.19102 0.70979 0.0
H1807 H 0.79776 0.20204 0.66382 0.0
C1808 C 0.80219 0.22246 0.78611 0.0
C1809 C 0.811 0.23408 0.76567 0.0
C1810 C 0.79181 0.21414 0.75746 0.0
C1811 C 0.79008 0.21732 0.70799 0.0
C1812 C 0.79876 0.22893 0.68766 0.0
H1813 H 0.74525 0.18959 0.44448 0.0
H1814 H 0.75686 0.20183 0.51817 0.0
C1815 C 0.80916 0.23723 0.71613 0.0
C1816 C 0.77935 0.20848 0.67671 0.0
H1817 H 0.76839 0.18178 0.60729 0.0
C1818 C 0.7702 0.21153 0.66394 0.0
C1819 C 0.77853 0.19748 0.65715 0.0
C1820 C 0.78826 0.19393 0.66924 0.0
C1821 C 0.76034 0.20395 0.63102 0.0
C1822 C 0.75984 0.19324 0.60949 0.0
C1823 C 0.76875 0.18997 0.62391 0.0
C1824 C 0.75099 0.18595 0.56823 0.0
C1825 C 0.75062 0.20754 0.61949 0.0
C1826 C 0.74369 0.17293 0.57184 0.0
C1827 C 0.73713 0.16586 0.52938 0.0
C1828 C 0.73782 0.1717 0.4825 0.0
C1829 C 0.74449 0.18479 0.47999 0.0
C1830 C 0.75108 0.19183 0.52232 0.0
H1831 H 0.74967 0.21287 0.65157 0.0
H1832 H 0.75351 0.21363 0.58526 0.0
H1833 H 0.74139 0.19922 0.61186 0.0
H1834 H 0.74352 0.1682 0.60687 0.0
H1835 H 0.73206 0.1558 0.53265 0.0
H1836 H 0.75929 0.57991 0.70127 0.0
H1837 H 0.77335 0.57652 0.64696 0.0
H1838 H 0.78183 0.55965 0.77313 0.0
H1839 H 0.76768 0.56287 0.82773 0.0
H1840 H 0.79888 0.58583 0.66258 0.0
H1841 H 0.77256 0.53403 0.65692 0.0
H1842 H 0.7656 0.54309 0.67748 0.0
H1843 H 0.7758 0.5409 0.71946 0.0
C1844 C 0.7641 0.57543 0.71748 0.0
C1845 C 0.76234 0.57164 0.76881 0.0
C1846 C 0.77213 0.5735 0.68639 0.0
C1847 C 0.7785 0.5677 0.7059 0.0
C1848 C 0.77682 0.56394 0.75713 0.0
H1849 H 0.84188 0.57334 0.53607 0.0
H1850 H 0.82868 0.57192 0.60809 0.0
C1851 C 0.76879 0.56587 0.78832 0.0
C1852 C 0.78723 0.56604 0.67282 0.0
H1853 H 0.79205 0.54411 0.61492 0.0
C1854 C 0.79745 0.57672 0.65238 0.0
C1855 C 0.78526 0.55413 0.65949 0.0
C1856 C 0.77417 0.54235 0.67906 0.0
C1857 C 0.80565 0.57582 0.61818 0.0
C1858 C 0.80372 0.56391 0.60487 0.0
C1859 C 0.79359 0.55322 0.62582 0.0
C1860 C 0.81145 0.56245 0.56545 0.0
C1861 C 0.81601 0.58763 0.59494 0.0
C1862 C 0.80603 0.55683 0.51878 0.0
C1863 C 0.81351 0.55751 0.47773 0.0
C1864 C 0.82657 0.56387 0.48266 0.0
C1865 C 0.83188 0.56851 0.53082 0.0
C1866 C 0.82436 0.56777 0.57196 0.0
H1867 H 0.81464 0.59573 0.6012 0.0
H1868 H 0.825 0.5898 0.61268 0.0
H1869 H 0.8167 0.58648 0.55327 0.0
H1870 H 0.79606 0.5526 0.51313 0.0
H1871 H 0.8091 0.55373 0.44133 0.0
H1872 H 0.59241 0.10743 0.72029 0.0
H1873 H 0.58014 0.10942 0.65181 0.0
H1874 H 0.58341 0.08184 0.56367 0.0
H1875 H 0.59571 0.07974 0.63195 0.0
H1876 H 0.58467 0.10476 0.50801 0.0
H1877 H 0.5439 0.07694 0.63471 0.0
H1878 H 0.5571 0.09028 0.66249 0.0
H1879 H 0.55851 0.0772 0.64248 0.0
C1880 C 0.59081 0.102 0.68585 0.0
C1881 C 0.59487 0.09326 0.68195 0.0
C1882 C 0.58379 0.10316 0.6468 0.0
C1883 C 0.58076 0.09565 0.60322 0.0
C1884 C 0.58565 0.08769 0.59721 0.0
H1885 H 0.53019 0.08014 0.34796 0.0
H1886 H 0.54708 0.08256 0.4038 0.0
C1887 C 0.59267 0.0865 0.63631 0.0
C1888 C 0.57127 0.09498 0.56726 0.0
H1889 H 0.54002 0.08381 0.55691 0.0
C1890 C 0.5749 0.1002 0.51848 0.0
C1891 C 0.55857 0.08898 0.5813 0.0
C1892 C 0.55419 0.08294 0.63294 0.0
C1893 C 0.5661 0.09977 0.48346 0.0
C1894 C 0.55336 0.09371 0.49748 0.0
C1895 C 0.54979 0.08847 0.5463 0.0
C1896 C 0.5435 0.09267 0.46243 0.0
C1897 C 0.57055 0.10604 0.43231 0.0
C1898 C 0.53568 0.09726 0.47744 0.0
C1899 C 0.52591 0.09573 0.44602 0.0
C1900 C 0.52377 0.08957 0.39891 0.0
C1901 C 0.53163 0.08499 0.3839 0.0
C1902 C 0.54136 0.08646 0.41555 0.0
H1903 H 0.58064 0.11309 0.43298 0.0
H1904 H 0.56911 0.09892 0.40329 0.0
H1905 H 0.56526 0.11066 0.42024 0.0
H1906 H 0.53711 0.102 0.51365 0.0
H1907 H 0.52005 0.09939 0.45869 0.0
H1908 H 0.899 0.41921 0.45047 0.0
H1909 H 0.89601 0.43324 0.50649 0.0
H1910 H 0.91458 0.46299 0.39722 0.0
H1911 H 0.91739 0.44894 0.3403 0.0
H1912 H 0.914 0.45463 0.54969 0.0
H1913 H 0.88334 0.46471 0.42849 0.0
H1914 H 0.88624 0.45209 0.41508 0.0
H1915 H 0.89759 0.46781 0.39805 0.0
C1916 C 0.90239 0.42872 0.43814 0.0
C1917 C 0.90842 0.43296 0.39087 0.0
C1918 C 0.90065 0.43671 0.47019 0.0
C1919 C 0.90488 0.44909 0.45565 0.0
C1920 C 0.91096 0.45339 0.40862 0.0
H1921 H 0.91485 0.5131 0.62603 0.0
H1922 H 0.91325 0.49894 0.55761 0.0
C1923 C 0.91266 0.44537 0.37635 0.0
C1924 C 0.90357 0.45764 0.49125 0.0
H1925 H 0.89138 0.4769 0.50394 0.0
C1926 C 0.90898 0.45943 0.53977 0.0
C1927 C 0.89705 0.46393 0.4781 0.0
C1928 C 0.89062 0.46198 0.42727 0.0
C1929 C 0.90818 0.46742 0.57535 0.0
C1930 C 0.90168 0.4737 0.56224 0.0
C1931 C 0.89631 0.47201 0.51372 0.0
C1932 C 0.90064 0.48219 0.59883 0.0
C1933 C 0.91446 0.46926 0.62654 0.0
C1934 C 0.89359 0.47743 0.64345 0.0
C1935 C 0.89447 0.48546 0.68259 0.0
C1936 C 0.90244 0.4984 0.6777 0.0
C1937 C 0.90868 0.50318 0.63115 0.0
C1938 C 0.90779 0.49512 0.59198 0.0
H1939 H 0.92099 0.46557 0.62712 0.0
H1940 H 0.91969 0.4793 0.6368 0.0
H1941 H 0.90727 0.46431 0.65629 0.0
H1942 H 0.88793 0.46745 0.64908 0.0
H1943 H 0.88945 0.48146 0.71776 0.0
H1944 H 0.56079 0.46158 0.32718 0.0
H1945 H 0.54603 0.44542 0.385 0.0
H1946 H 0.56286 0.47019 0.51283 0.0
H1947 H 0.5778 0.48628 0.45562 0.0
H1948 H 0.55826 0.44619 0.53155 0.0
H1949 H 0.51646 0.4458 0.45134 0.0
H1950 H 0.52569 0.44284 0.40679 0.0
H1951 H 0.5321 0.45788 0.43637 0.0
C1952 C 0.56134 0.46359 0.36761 0.0
C1953 C 0.57042 0.47525 0.3868 0.0
C1954 C 0.55288 0.45435 0.40054 0.0
C1955 C 0.55327 0.45666 0.45307 0.0
C1956 C 0.56242 0.46822 0.47236 0.0
H1957 H 0.50389 0.43393 0.69614 0.0
H1958 H 0.51662 0.44209 0.62011 0.0
C1959 C 0.57092 0.47742 0.43959 0.0
C1960 C 0.54404 0.44724 0.48834 0.0
H1961 H 0.51332 0.43279 0.52151 0.0
C1962 C 0.54839 0.4431 0.52909 0.0
C1963 C 0.53119 0.44326 0.48483 0.0
C1964 C 0.52604 0.44771 0.44277 0.0
C1965 C 0.54034 0.43558 0.5679 0.0
C1966 C 0.52757 0.43194 0.56524 0.0
C1967 C 0.52311 0.43554 0.52311 0.0
C1968 C 0.51914 0.42617 0.6093 0.0
C1969 C 0.54569 0.43225 0.61297 0.0
C1970 C 0.51614 0.41438 0.6281 0.0
C1971 C 0.50884 0.40966 0.67219 0.0
C1972 C 0.50445 0.41668 0.69779 0.0
C1973 C 0.50717 0.42829 0.67766 0.0
C1974 C 0.51442 0.43297 0.63397 0.0
H1975 H 0.55604 0.43733 0.61256 0.0
H1976 H 0.54252 0.43437 0.64927 0.0
H1977 H 0.54236 0.42211 0.61228 0.0
H1978 H 0.51955 0.40891 0.60909 0.0
H1979 H 0.50684 0.40065 0.68668 0.0
H1980 H 0.56416 0.79479 0.15602 0.0
H1981 H 0.5611 0.77771 0.21223 0.0
H1982 H 0.57187 0.80243 0.34172 0.0
H1983 H 0.57466 0.81944 0.28618 0.0
H1984 H 0.57764 0.77563 0.27014 0.0
H1985 H 0.54048 0.77291 0.39458 0.0
H1986 H 0.54467 0.78142 0.33513 0.0
H1987 H 0.55336 0.78854 0.3925 0.0
C1988 C 0.56579 0.79657 0.19654 0.0
C1989 C 0.5696 0.80846 0.21669 0.0
C1990 C 0.564 0.78678 0.22858 0.0
C1991 C 0.56597 0.78871 0.28132 0.0
C1992 C 0.5699 0.80061 0.30139 0.0
H1993 H 0.59428 0.76323 0.50581 0.0
H1994 H 0.58919 0.77065 0.42891 0.0
C1995 C 0.57162 0.81037 0.26949 0.0
C1996 C 0.5648 0.7786 0.31521 0.0
H1997 H 0.55335 0.76514 0.43096 0.0
C1998 C 0.57211 0.77313 0.30477 0.0
C1999 C 0.55733 0.77503 0.35968 0.0
C2000 C 0.54841 0.77969 0.37079 0.0
C2001 C 0.57296 0.76502 0.33973 0.0
C2002 C 0.56656 0.76256 0.38679 0.0
C2003 C 0.55842 0.76717 0.39523 0.0
C2004 C 0.56955 0.75686 0.43024 0.0
C2005 C 0.58103 0.75948 0.32658 0.0
C2006 C 0.56016 0.74669 0.45721 0.0
C2007 C 0.56304 0.74245 0.50198 0.0
C2008 C 0.57533 0.74845 0.52059 0.0
C2009 C 0.58471 0.75839 0.49261 0.0
C2010 C 0.58184 0.76258 0.44817 0.0
H2011 H 0.58116 0.75813 0.28472 0.0
H2012 H 0.59075 0.76599 0.33871 0.0
H2013 H 0.57776 0.75039 0.34591 0.0
H2014 H 0.55058 0.74223 0.44428 0.0
H2015 H 0.55562 0.7348 0.52285 0.0
H2016 H 0.25509 0.81206 0.54854 0.0
H2017 H 0.24172 0.7986 0.48036 0.0
H2018 H 0.24961 0.83089 0.39057 0.0
H2019 H 0.26304 0.84449 0.45856 0.0
H2020 H 0.22057 0.80145 0.45126 0.0
H2021 H 0.25076 0.80571 0.28645 0.0
H2022 H 0.2565 0.80889 0.35128 0.0
H2023 H 0.25384 0.81993 0.31744 0.0
C2024 C 0.25428 0.81633 0.51376 0.0
C2025 C 0.26002 0.82936 0.50925 0.0
C2026 C 0.24662 0.80861 0.47486 0.0
C2027 C 0.2447 0.81377 0.43056 0.0
C2028 C 0.2511 0.82674 0.42429 0.0
H2029 H 0.19123 0.78116 0.18174 0.0
H2030 H 0.2083 0.79537 0.23771 0.0
C2031 C 0.25875 0.83449 0.46329 0.0
C2032 C 0.23471 0.80567 0.39463 0.0
H2033 H 0.22896 0.79443 0.27288 0.0
C2034 C 0.22239 0.79986 0.4123 0.0
C2035 C 0.23715 0.80383 0.34374 0.0
C2036 C 0.25027 0.80984 0.32339 0.0
C2037 C 0.21238 0.79221 0.38037 0.0
C2038 C 0.21481 0.79008 0.32975 0.0
C2039 C 0.22714 0.79605 0.31179 0.0
C2040 C 0.20464 0.78146 0.29541 0.0
C2041 C 0.19929 0.7867 0.40093 0.0
C2042 C 0.19705 0.76891 0.30906 0.0
C2043 C 0.18725 0.76082 0.27753 0.0
C2044 C 0.18495 0.76508 0.23131 0.0
C2045 C 0.19272 0.77761 0.21721 0.0
C2046 C 0.20249 0.78573 0.24901 0.0
H2047 H 0.19888 0.7921 0.43394 0.0
H2048 H 0.19278 0.78637 0.37108 0.0
H2049 H 0.19604 0.77705 0.41416 0.0
H2050 H 0.19872 0.76536 0.34415 0.0
H2051 H 0.18153 0.7512 0.28927 0.0
H2052 H 0.15554 0.4193 0.46421 0.0
H2053 H 0.16945 0.42046 0.39546 0.0
H2054 H 0.20133 0.4449 0.4869 0.0
H2055 H 0.18758 0.44386 0.55585 0.0
H2056 H 0.19337 0.44323 0.34424 0.0
H2057 H 0.19999 0.40954 0.46213 0.0
H2058 H 0.1866 0.41154 0.46932 0.0
H2059 H 0.20146 0.42311 0.49369 0.0
C2060 C 0.1655 0.42521 0.46923 0.0
C2061 C 0.17046 0.43133 0.51585 0.0
C2062 C 0.17342 0.42586 0.42986 0.0
C2063 C 0.18636 0.43265 0.43658 0.0
C2064 C 0.19133 0.43958 0.48129 0.0
H2065 H 0.24797 0.43039 0.29532 0.0
H2066 H 0.23414 0.43397 0.35013 0.0
C2067 C 0.18345 0.43896 0.52062 0.0
C2068 C 0.19462 0.43119 0.40015 0.0
H2069 H 0.21159 0.41659 0.38634 0.0
C2070 C 0.19737 0.43741 0.35318 0.0
C2071 C 0.19974 0.42356 0.41223 0.0
C2072 C 0.19679 0.41646 0.46191 0.0
C2073 C 0.20541 0.4364 0.31813 0.0
C2074 C 0.21055 0.42875 0.33026 0.0
C2075 C 0.20767 0.42247 0.37719 0.0
C2076 C 0.21907 0.42718 0.29538 0.0
C2077 C 0.20857 0.44375 0.26914 0.0
C2078 C 0.21515 0.4221 0.24649 0.0
C2079 C 0.22307 0.42008 0.21491 0.0
C2080 C 0.23498 0.42298 0.23197 0.0
C2081 C 0.23885 0.42803 0.28104 0.0
C2082 C 0.23097 0.43011 0.31239 0.0
H2083 H 0.20665 0.45158 0.2718 0.0
H2084 H 0.21852 0.44757 0.25897 0.0
H2085 H 0.20279 0.43753 0.23779 0.0
H2086 H 0.20589 0.41948 0.23308 0.0
H2087 H 0.21979 0.41612 0.17741 0.0
H2088 H 0.47764 0.89572 0.54438 0.0
H2089 H 0.46074 0.89299 0.48821 0.0
H2090 H 0.45176 0.91443 0.59156 0.0
H2091 H 0.4685 0.91697 0.64878 0.0
H2092 H 0.43075 0.89333 0.55513 0.0
H2093 H 0.46253 0.92024 0.39653 0.0
H2094 H 0.4644 0.9075 0.41767 0.0
H2095 H 0.46808 0.92028 0.46019 0.0
C2096 C 0.47209 0.89988 0.55521 0.0
C2097 C 0.47449 0.90667 0.60081 0.0
C2098 C 0.46245 0.89833 0.52297 0.0
C2099 C 0.45515 0.9037 0.53529 0.0
C2100 C 0.45733 0.91026 0.58128 0.0
H2101 H 0.40057 0.9139 0.37065 0.0
H2102 H 0.41279 0.9117 0.4389 0.0
C2103 C 0.46692 0.91174 0.61381 0.0
C2104 C 0.44539 0.90264 0.49964 0.0
H2105 H 0.44092 0.9093 0.37782 0.0
C2106 C 0.43296 0.89685 0.5164 0.0
C2107 C 0.44832 0.90731 0.44925 0.0
C2108 C 0.46156 0.91429 0.42992 0.0
C2109 C 0.42334 0.8954 0.48361 0.0
C2110 C 0.42629 0.89989 0.43308 0.0
C2111 C 0.4387 0.90572 0.41649 0.0
C2112 C 0.41681 0.89912 0.39671 0.0
C2113 C 0.41011 0.88893 0.50282 0.0
C2114 C 0.41475 0.8925 0.35099 0.0
C2115 C 0.40779 0.89374 0.3119 0.0
C2116 C 0.40289 0.90175 0.31767 0.0
C2117 C 0.40423 0.90767 0.36493 0.0
C2118 C 0.41117 0.90639 0.4041 0.0
H2119 H 0.40905 0.88373 0.53876 0.0
H2120 H 0.40729 0.89599 0.51036 0.0
H2121 H 0.40367 0.88236 0.47369 0.0
H2122 H 0.41907 0.88687 0.34461 0.0
H2123 H 0.40691 0.889 0.27611 0.0
H2124 H 0.0959 0.57449 0.53486 0.0
H2125 H 0.09865 0.55929 0.4856 0.0
H2126 H 0.0841 0.53336 0.611 0.0
H2127 H 0.0813 0.54851 0.66083 0.0
H2128 H 0.113 0.5468 0.51688 0.0
H2129 H 0.06238 0.51461 0.48201 0.0
H2130 H 0.06844 0.5307 0.49984 0.0
H2131 H 0.06733 0.51961 0.54653 0.0
C2132 C 0.09325 0.56555 0.55202 0.0
C2133 C 0.08832 0.56268 0.6017 0.0
C2134 C 0.09489 0.55691 0.52389 0.0
C2135 C 0.09154 0.54523 0.5447 0.0
C2136 C 0.08666 0.54232 0.59427 0.0
H2137 H 0.08531 0.48279 0.36701 0.0
H2138 H 0.08671 0.49517 0.44197 0.0
C2139 C 0.08507 0.55098 0.62261 0.0
C2140 C 0.09297 0.53606 0.51374 0.0
H2141 H 0.0764 0.50964 0.4435 0.0
C2142 C 0.10502 0.53858 0.5012 0.0
C2143 C 0.08253 0.52533 0.4939 0.0
C2144 C 0.06941 0.52235 0.50585 0.0
C2145 C 0.1069 0.53077 0.4681 0.0
C2146 C 0.09645 0.52037 0.44612 0.0
C2147 C 0.08441 0.5176 0.46044 0.0
C2148 C 0.09766 0.51297 0.4044 0.0
C2149 C 0.12005 0.5338 0.45676 0.0
C2150 C 0.10365 0.51887 0.35882 0.0
C2151 C 0.10294 0.51183 0.31607 0.0
C2152 C 0.09605 0.49874 0.31781 0.0
C2153 C 0.09067 0.49285 0.36434 0.0
C2154 C 0.09144 0.49991 0.40722 0.0
H2155 H 0.12638 0.53882 0.48915 0.0
H2156 H 0.12053 0.52526 0.44865 0.0
H2157 H 0.12353 0.53999 0.42289 0.0
H2158 H 0.10826 0.52891 0.35527 0.0
H2159 H 0.10718 0.51668 0.28085 0.0
H2160 H 0.45112 0.53035 0.65677 0.0
H2161 H 0.46612 0.54772 0.60392 0.0
H2162 H 0.43802 0.53816 0.48833 0.0
H2163 H 0.42298 0.52081 0.54063 0.0
H2164 H 0.47337 0.5459 0.50095 0.0
H2165 H 0.45217 0.57606 0.51414 0.0
H2166 H 0.44874 0.56368 0.55909 0.0
H2167 H 0.44148 0.56013 0.49732 0.0
C2168 C 0.44812 0.53196 0.62015 0.0
C2169 C 0.43585 0.52421 0.60293 0.0
C2170 C 0.45669 0.54189 0.59011 0.0
C2171 C 0.45309 0.54433 0.54273 0.0
C2172 C 0.44089 0.53657 0.52528 0.0
H2173 H 0.48316 0.58807 0.27639 0.0
H2174 H 0.47061 0.57626 0.34936 0.0
C2175 C 0.43234 0.5266 0.55507 0.0
C2176 C 0.46221 0.5546 0.51014 0.0
H2177 H 0.46757 0.58123 0.44957 0.0
C2178 C 0.47224 0.55374 0.49023 0.0
C2179 C 0.46064 0.56476 0.49632 0.0
C2180 C 0.45024 0.56632 0.51813 0.0
C2181 C 0.48044 0.56247 0.45475 0.0
C2182 C 0.47872 0.5725 0.43992 0.0
C2183 C 0.46889 0.57356 0.46115 0.0
C2184 C 0.48636 0.58131 0.39913 0.0
C2185 C 0.49047 0.56048 0.43151 0.0
C2186 C 0.49936 0.58857 0.40372 0.0
C2187 C 0.5066 0.59529 0.36185 0.0
C2188 C 0.50093 0.59495 0.3149 0.0
C2189 C 0.48785 0.58849 0.31185 0.0
C2190 C 0.48064 0.58172 0.35357 0.0
H2191 H 0.48878 0.55092 0.43861 0.0
H2192 H 0.49107 0.5621 0.38967 0.0
H2193 H 0.4996 0.56717 0.44857 0.0
H2194 H 0.50393 0.58863 0.43901 0.0
H2195 H 0.51665 0.60027 0.36563 0.0
H2196 H 0.08567 0.59623 0.85937 0.0
H2197 H 0.08694 0.58379 0.92908 0.0
H2198 H 0.11132 0.57604 0.83863 0.0
H2199 H 0.11013 0.58842 0.76872 0.0
H2200 H 0.08796 0.55478 0.87093 0.0
H2201 H 0.11407 0.58637 0.03194 0.0
H2202 H 0.10248 0.58887 0.00141 0.0
H2203 H 0.1161 0.59167 0.96651 0.0
C2204 C 0.09162 0.5922 0.85483 0.0
C2205 C 0.09767 0.59319 0.8082 0.0
C2206 C 0.09236 0.58513 0.89483 0.0
C2207 C 0.09922 0.57901 0.8889 0.0
C2208 C 0.106 0.58073 0.84389 0.0
H2209 H 0.0993 0.51686 0.0394 0.0
H2210 H 0.10269 0.5339 0.98266 0.0
C2211 C 0.10531 0.58782 0.80398 0.0
C2212 C 0.09781 0.56938 0.9259 0.0
H2213 H 0.10373 0.56465 0.04857 0.0
C2214 C 0.09148 0.55693 0.90969 0.0
C2215 C 0.10223 0.57224 0.97653 0.0
C2216 C 0.10918 0.58551 0.99533 0.0
C2217 C 0.08935 0.5472 0.9429 0.0
C2218 C 0.09399 0.55005 0.99336 0.0
C2219 C 0.10024 0.56251 0.00978 0.0
C2220 C 0.09248 0.54016 0.02932 0.0
C2221 C 0.08189 0.53396 0.92391 0.0
C2222 C 0.08597 0.53829 0.07527 0.0
C2223 C 0.08411 0.52861 0.10815 0.0
C2224 C 0.08874 0.52064 0.09554 0.0
C2225 C 0.09547 0.52272 0.04995 0.0
C2226 C 0.0974 0.53244 0.01737 0.0
H2227 H 0.07606 0.53323 0.89044 0.0
H2228 H 0.08836 0.53069 0.91189 0.0
H2229 H 0.07573 0.52764 0.95429 0.0
H2230 H 0.08214 0.54419 0.08527 0.0
H2231 H 0.07893 0.52729 0.1431 0.0
H2232 H 0.4829 0.57873 0.03895 0.0
H2233 H 0.46467 0.56459 0.98853 0.0
H2234 H 0.45274 0.53701 0.10786 0.0
H2235 H 0.47099 0.55112 0.15886 0.0
H2236 H 0.45328 0.52837 0.0062 0.0
H2237 H 0.42762 0.55437 0.01495 0.0
H2238 H 0.44374 0.56366 0.99733 0.0
H2239 H 0.43971 0.55685 0.05991 0.0
C2240 C 0.4764 0.56967 0.05462 0.0
C2241 C 0.47839 0.56606 0.10297 0.0
C2242 C 0.46593 0.56165 0.02591 0.0
C2243 C 0.45727 0.54987 0.04495 0.0
C2244 C 0.45928 0.54614 0.09285 0.0
H2245 H 0.39778 0.48879 0.869 0.0
H2246 H 0.40966 0.50096 0.94305 0.0
C2247 C 0.46971 0.5542 0.12181 0.0
C2248 C 0.4465 0.54124 0.01332 0.0
H2249 H 0.42099 0.53847 0.95146 0.0
C2250 C 0.44608 0.53043 0.99481 0.0
C2251 C 0.43718 0.54402 0.99867 0.0
C2252 C 0.43697 0.5553 0.01905 0.0
C2253 C 0.43695 0.52265 0.95968 0.0
C2254 C 0.42781 0.52561 0.94378 0.0
C2255 C 0.42797 0.53619 0.96385 0.0
C2256 C 0.41884 0.51854 0.90262 0.0
C2257 C 0.43762 0.51173 0.93777 0.0
C2258 C 0.41941 0.52454 0.85647 0.0
C2259 C 0.41252 0.51766 0.81436 0.0
C2260 C 0.40496 0.50463 0.81761 0.0
C2261 C 0.40363 0.49879 0.86507 0.0
C2262 C 0.41047 0.50571 0.90734 0.0
H2263 H 0.4467 0.51231 0.94591 0.0
H2264 H 0.43016 0.50297 0.95491 0.0
H2265 H 0.43621 0.51116 0.89581 0.0
H2266 H 0.42574 0.53445 0.85215 0.0
H2267 H 0.41371 0.52248 0.77851 0.0
H2268 H 0.50995 0.91128 0.8713 0.0
H2269 H 0.49648 0.91085 0.94049 0.0
H2270 H 0.46403 0.88685 0.85093 0.0
H2271 H 0.47734 0.88716 0.78167 0.0
H2272 H 0.46811 0.91188 0.88269 0.0
H2273 H 0.47027 0.88336 0.04252 0.0
H2274 H 0.48456 0.89396 0.01034 0.0
H2275 H 0.47275 0.88069 0.97685 0.0
C2276 C 0.49995 0.9056 0.86687 0.0
C2277 C 0.49472 0.89938 0.82068 0.0
C2278 C 0.49227 0.90534 0.90653 0.0
C2279 C 0.47929 0.89883 0.90063 0.0
C2280 C 0.47404 0.8919 0.85612 0.0
H2281 H 0.41758 0.90121 0.04123 0.0
H2282 H 0.43151 0.89788 0.98614 0.0
C2283 C 0.48168 0.89209 0.8166 0.0
C2284 C 0.47131 0.90074 0.93701 0.0
H2285 H 0.45918 0.89401 0.05728 0.0
C2286 C 0.46611 0.90794 0.92083 0.0
C2287 C 0.46894 0.89576 0.98684 0.0
C2288 C 0.47434 0.88795 0.00546 0.0
C2289 C 0.45856 0.91032 0.95325 0.0
C2290 C 0.45585 0.90505 0.00272 0.0
C2291 C 0.46122 0.89798 0.01922 0.0
C2292 C 0.4473 0.90663 0.03736 0.0
C2293 C 0.45377 0.91868 0.93445 0.0
C2294 C 0.45143 0.91229 0.08522 0.0
C2295 C 0.44343 0.91409 0.11714 0.0
C2296 C 0.43116 0.91026 0.10167 0.0
C2297 C 0.42701 0.90441 0.05404 0.0
C2298 C 0.43498 0.90253 0.0224 0.0
H2299 H 0.45961 0.92483 0.90297 0.0
H2300 H 0.44417 0.91284 0.91956 0.0
H2301 H 0.45351 0.92459 0.9657 0.0
H2302 H 0.46089 0.91546 0.09755 0.0
H2303 H 0.44688 0.91857 0.15371 0.0
H2304 H 0.18556 0.43137 0.79407 0.0
H2305 H 0.20268 0.43413 0.84895 0.0
H2306 H 0.21364 0.416 0.73672 0.0
H2307 H 0.19668 0.41345 0.68093 0.0
H2308 H 0.20624 0.41613 0.89019 0.0
H2309 H 0.24665 0.44706 0.76812 0.0
H2310 H 0.23109 0.44417 0.75563 0.0
H2311 H 0.23545 0.43288 0.73747 0.0
C2312 C 0.19164 0.42802 0.78087 0.0
C2313 C 0.18977 0.4222 0.73308 0.0
C2314 C 0.20144 0.42963 0.81226 0.0
C2315 C 0.20956 0.42547 0.79656 0.0
C2316 C 0.20768 0.41958 0.74903 0.0
H2317 H 0.26322 0.41462 0.96641 0.0
H2318 H 0.25062 0.41615 0.89792 0.0
C2319 C 0.19791 0.41802 0.71741 0.0
C2320 C 0.21952 0.42668 0.83143 0.0
H2321 H 0.25101 0.43888 0.84268 0.0
C2322 C 0.21603 0.42117 0.87985 0.0
C2323 C 0.23229 0.43323 0.81779 0.0
C2324 C 0.23664 0.43978 0.76711 0.0
C2325 C 0.22492 0.42194 0.91487 0.0
C2326 C 0.23766 0.42846 0.90125 0.0
C2327 C 0.24121 0.43392 0.85282 0.0
C2328 C 0.24727 0.42951 0.93739 0.0
C2329 C 0.22065 0.41565 0.96614 0.0
C2330 C 0.24998 0.43696 0.98102 0.0
C2331 C 0.25717 0.43613 0.02018 0.0
C2332 C 0.26172 0.42778 0.01636 0.0
C2333 C 0.25981 0.42109 0.9707 0.0
C2334 C 0.25262 0.42195 0.93149 0.0
H2335 H 0.2104 0.40932 0.96759 0.0
H2336 H 0.2253 0.4102 0.97526 0.0
H2337 H 0.22326 0.42285 0.99616 0.0
H2338 H 0.24596 0.4429 0.98596 0.0
H2339 H 0.25852 0.44148 0.05465 0.0
H2340 H 0.56185 0.75479 0.75031 0.0
H2341 H 0.55766 0.76917 0.79874 0.0
H2342 H 0.59677 0.79663 0.79606 0.0
H2343 H 0.60108 0.78233 0.74748 0.0
H2344 H 0.58459 0.7909 0.89531 0.0
H2345 H 0.5594 0.8022 0.74807 0.0
H2346 H 0.55428 0.78594 0.75704 0.0
H2347 H 0.56957 0.79616 0.73218 0.0
C2348 C 0.56957 0.7639 0.75983 0.0
C2349 C 0.58181 0.76742 0.74509 0.0
C2350 C 0.56713 0.77213 0.78715 0.0
C2351 C 0.57688 0.78399 0.80026 0.0
C2352 C 0.58911 0.78753 0.78582 0.0
H2353 H 0.5814 0.84733 0.95528 0.0
H2354 H 0.58131 0.83326 0.88962 0.0
C2355 C 0.59155 0.77935 0.75817 0.0
C2356 C 0.57444 0.79242 0.83175 0.0
H2357 H 0.55999 0.80978 0.83181 0.0
C2358 C 0.57923 0.79504 0.88145 0.0
C2359 C 0.56747 0.79781 0.81329 0.0
C2360 C 0.56243 0.7955 0.7596 0.0
C2361 C 0.57713 0.80284 0.91356 0.0
C2362 C 0.57001 0.80809 0.89544 0.0
C2363 C 0.56533 0.80561 0.84553 0.0
C2364 C 0.56779 0.81647 0.92814 0.0
C2365 C 0.58261 0.80551 0.96662 0.0
C2366 C 0.55971 0.81163 0.96997 0.0
C2367 C 0.55971 0.81962 0.00752 0.0
C2368 C 0.56787 0.83256 0.00391 0.0
C2369 C 0.57507 0.83741 0.95944 0.0
C2370 C 0.57504 0.8294 0.92182 0.0
H2371 H 0.58934 0.80216 0.97217 0.0
H2372 H 0.58741 0.81567 0.97455 0.0
H2373 H 0.575 0.80079 0.99497 0.0
H2374 H 0.55401 0.80165 0.97518 0.0
H2375 H 0.55396 0.81557 0.04103 0.0
H2376 H 0.24695 0.81403 0.78805 0.0
H2377 H 0.2326 0.79704 0.84346 0.0
H2378 H 0.20274 0.78769 0.7365 0.0
H2379 H 0.21711 0.80452 0.68017 0.0
H2380 H 0.2117 0.79426 0.88914 0.0
H2381 H 0.19958 0.7539 0.76242 0.0
H2382 H 0.21257 0.76926 0.74983 0.0
H2383 H 0.19697 0.76562 0.73436 0.0
C2384 C 0.23735 0.80833 0.77612 0.0
C2385 C 0.23318 0.81061 0.72963 0.0
C2386 C 0.22916 0.79861 0.80781 0.0
C2387 C 0.21666 0.79096 0.7937 0.0
C2388 C 0.21243 0.79327 0.74752 0.0
H2389 H 0.15201 0.73697 0.96142 0.0
H2390 H 0.16637 0.74993 0.89423 0.0
C2391 C 0.22063 0.80296 0.7156 0.0
C2392 C 0.20795 0.78105 0.82882 0.0
H2393 H 0.18769 0.74973 0.83874 0.0
C2394 C 0.20652 0.78452 0.8782 0.0
C2395 C 0.20117 0.76835 0.81435 0.0
C2396 C 0.20271 0.76401 0.76251 0.0
C2397 C 0.1984 0.77567 0.91337 0.0
C2398 C 0.19163 0.76299 0.89894 0.0
C2399 C 0.19296 0.75948 0.84956 0.0
C2400 C 0.18297 0.75338 0.93496 0.0
C2401 C 0.19696 0.77996 0.96552 0.0
C2402 C 0.18757 0.7506 0.97888 0.0
C2403 C 0.17942 0.74321 0.01731 0.0
C2404 C 0.16652 0.7385 0.01242 0.0
C2405 C 0.16189 0.74051 0.96654 0.0
C2406 C 0.17007 0.74791 0.92807 0.0
H2407 H 0.20097 0.79023 0.96719 0.0
H2408 H 0.18698 0.77539 0.97652 0.0
H2409 H 0.20185 0.77734 0.99412 0.0
H2410 H 0.19752 0.75466 0.98449 0.0
H2411 H 0.1833 0.74177 0.05197 0.0
H2412 H 0.38047 0.15858 0.88617 0.0
H2413 H 0.35886 0.1458 0.91392 0.0
H2414 H 0.35912 0.11263 0.86623 0.0
H2415 H 0.38081 0.12533 0.83859 0.0
H2416 H 0.33775 0.12887 0.85565 0.0
H2417 H 0.34737 0.10569 0.01684 0.0
H2418 H 0.35943 0.1196 0.9865 0.0
H2419 H 0.35352 0.10472 0.95599 0.0
C2420 C 0.37595 0.14857 0.88151 0.0
C2421 C 0.38238 0.14297 0.86037 0.0
C2422 C 0.3636 0.14129 0.89736 0.0
C2423 C 0.35747 0.12828 0.89271 0.0
C2424 C 0.36377 0.12265 0.87089 0.0
H2425 H 0.27744 0.07842 0.92439 0.0
H2426 H 0.29895 0.08941 0.89372 0.0
C2427 C 0.37613 0.12993 0.85488 0.0
C2428 C 0.34445 0.12066 0.91052 0.0
H2429 H 0.32621 0.09893 0.99909 0.0
C2430 C 0.3352 0.12229 0.8869 0.0
C2431 C 0.34122 0.11221 0.95167 0.0
C2432 C 0.35089 0.11048 0.97964 0.0
C2433 C 0.32276 0.11564 0.90323 0.0
C2434 C 0.3195 0.10705 0.94387 0.0
C2435 C 0.32875 0.10546 0.96766 0.0
C2436 C 0.30657 0.09992 0.96322 0.0
C2437 C 0.31327 0.11807 0.87767 0.0
C2438 C 0.30381 0.10194 0.01298 0.0
C2439 C 0.29153 0.09565 0.03073 0.0
C2440 C 0.28181 0.08717 0.99907 0.0
C2441 C 0.28469 0.08493 0.94968 0.0
C2442 C 0.29696 0.09124 0.93196 0.0
H2443 H 0.31774 0.12684 0.85508 0.0
H2444 H 0.30749 0.11027 0.85138 0.0
H2445 H 0.30698 0.11865 0.90633 0.0
H2446 H 0.31112 0.10857 0.03772 0.0
H2447 H 0.28965 0.09757 0.069 0.0
H2448 H 0.90511 0.19818 0.07207 0.0
H2449 H 0.89616 0.21027 0.03617 0.0
H2450 H 0.90635 0.20496 0.88497 0.0
H2451 H 0.91537 0.19297 0.92018 0.0
H2452 H 0.90967 0.233 0.95952 0.0
H2453 H 0.86653 0.19105 0.89108 0.0
H2454 H 0.87565 0.19038 0.94352 0.0
H2455 H 0.88124 0.19187 0.87939 0.0
C2456 C 0.90551 0.19964 0.03121 0.0
C2457 C 0.91091 0.19457 0.99898 0.0
C2458 C 0.90042 0.20656 0.01085 0.0
C2459 C 0.90056 0.20841 0.95802 0.0
C2460 C 0.90612 0.20356 0.92585 0.0
H2461 H 0.86465 0.23746 0.76143 0.0
H2462 H 0.87612 0.22776 0.79589 0.0
C2463 C 0.91128 0.19673 0.94611 0.0
C2464 C 0.89463 0.21514 0.93612 0.0
H2465 H 0.86893 0.21062 0.87051 0.0
C2466 C 0.90075 0.22815 0.94013 0.0
C2467 C 0.88307 0.20874 0.91056 0.0
C2468 C 0.87614 0.19472 0.90588 0.0
C2469 C 0.89564 0.23499 0.91859 0.0
C2470 C 0.88396 0.22857 0.89361 0.0
C2471 C 0.87788 0.21553 0.88959 0.0
C2472 C 0.87772 0.23512 0.87213 0.0
C2473 C 0.90295 0.24903 0.92178 0.0
C2474 C 0.87479 0.24247 0.90353 0.0
C2475 C 0.86834 0.24811 0.88384 0.0
C2476 C 0.86451 0.24635 0.83252 0.0
C2477 C 0.86747 0.239 0.80109 0.0
C2478 C 0.87402 0.23345 0.82074 0.0
H2479 H 0.91305 0.25252 0.92749 0.0
H2480 H 0.90176 0.25336 0.88675 0.0
H2481 H 0.89959 0.25212 0.95484 0.0
H2482 H 0.87724 0.24362 0.9436 0.0
H2483 H 0.8661 0.2536 0.90923 0.0
H2484 H 0.74269 0.62011 0.84967 0.0
H2485 H 0.75161 0.64208 0.87313 0.0
H2486 H 0.78618 0.6438 0.91318 0.0
H2487 H 0.77743 0.62194 0.88947 0.0
H2488 H 0.76127 0.65328 0.9685 0.0
H2489 H 0.79707 0.67357 0.81627 0.0
H2490 H 0.78416 0.65779 0.81371 0.0
H2491 H 0.79755 0.6615 0.85246 0.0
C2492 C 0.75222 0.62519 0.86315 0.0
C2493 C 0.75937 0.61929 0.86747 0.0
C2494 C 0.75728 0.63772 0.87661 0.0
C2495 C 0.7696 0.64459 0.89423 0.0
C2496 C 0.77674 0.63872 0.89875 0.0
H2497 H 0.8066 0.71321 0.06565 0.0
H2498 H 0.79548 0.69151 0.03732 0.0
C2499 C 0.77169 0.6262 0.88538 0.0
C2500 C 0.77491 0.6578 0.90926 0.0
H2501 H 0.79879 0.68713 0.88406 0.0
C2502 C 0.76942 0.6607 0.94986 0.0
C2503 C 0.78545 0.66747 0.88443 0.0
C2504 C 0.79135 0.66498 0.83897 0.0
C2505 C 0.77441 0.673 0.96725 0.0
C2506 C 0.78526 0.6826 0.9438 0.0
C2507 C 0.79054 0.67974 0.90228 0.0
C2508 C 0.7914 0.69566 0.96194 0.0
C2509 C 0.76798 0.67564 0.01032 0.0
C2510 C 0.79292 0.70521 0.92875 0.0
C2511 C 0.79933 0.71762 0.9447 0.0
C2512 C 0.80441 0.72074 0.99411 0.0
C2513 C 0.80275 0.71113 0.02746 0.0
C2514 C 0.79634 0.69871 0.01144 0.0
H2515 H 0.75814 0.66809 0.01457 0.0
H2516 H 0.7729 0.67631 0.0466 0.0
H2517 H 0.76817 0.6846 0.0042 0.0
H2518 H 0.78922 0.70305 0.89031 0.0
H2519 H 0.80045 0.72479 0.91801 0.0
H2520 H 0.13145 0.37412 0.73467 0.0
H2521 H 0.11949 0.35285 0.70112 0.0
H2522 H 0.12479 0.36732 0.54798 0.0
H2523 H 0.13669 0.38857 0.58087 0.0
H2524 H 0.09703 0.34242 0.63055 0.0
H2525 H 0.13862 0.34216 0.55194 0.0
H2526 H 0.13975 0.35279 0.60157 0.0
H2527 H 0.13701 0.35545 0.53678 0.0
C2528 C 0.13002 0.37278 0.69387 0.0
C2529 C 0.13507 0.38303 0.66044 0.0
C2530 C 0.12318 0.36064 0.67484 0.0
C2531 C 0.12139 0.35857 0.62214 0.0
C2532 C 0.12619 0.36876 0.58876 0.0
H2533 H 0.09093 0.29237 0.43242 0.0
H2534 H 0.10054 0.31373 0.46461 0.0
C2535 C 0.13296 0.38089 0.6077 0.0
C2536 C 0.11468 0.34573 0.60176 0.0
H2537 H 0.119 0.32467 0.53419 0.0
C2538 C 0.1018 0.33849 0.60957 0.0
C2539 C 0.12097 0.34074 0.57419 0.0
C2540 C 0.13487 0.34811 0.56574 0.0
C2541 C 0.09496 0.32636 0.58981 0.0
C2542 C 0.10127 0.32128 0.56269 0.0
C2543 C 0.11417 0.32858 0.55488 0.0
C2544 C 0.09476 0.30834 0.54284 0.0
C2545 C 0.08102 0.31923 0.59719 0.0
C2546 C 0.08834 0.29822 0.57613 0.0
C2547 C 0.08276 0.28602 0.5578 0.0
C2548 C 0.08365 0.28369 0.5059 0.0
C2549 C 0.09006 0.29384 0.47259 0.0
C2550 C 0.09557 0.30605 0.49092 0.0
H2551 H 0.07728 0.32559 0.60445 0.0
H2552 H 0.07622 0.31341 0.56334 0.0
H2553 H 0.07873 0.313 0.63077 0.0
H2554 H 0.08787 0.29975 0.61655 0.0
H2555 H 0.07799 0.27841 0.58458 0.0
H2556 H 0.70611 0.80093 0.44911 0.0
H2557 H 0.68522 0.78851 0.4851 0.0
H2558 H 0.7011 0.787 0.62951 0.0
H2559 H 0.72203 0.79921 0.59361 0.0
H2560 H 0.68095 0.76431 0.60204 0.0
H2561 H 0.6696 0.80213 0.58367 0.0
H2562 H 0.67425 0.79839 0.5245 0.0
H2563 H 0.68523 0.80481 0.57618 0.0
C2564 C 0.70517 0.79793 0.48848 0.0
C2565 C 0.71573 0.80115 0.51859 0.0
C2566 C 0.69322 0.79089 0.50907 0.0
C2567 C 0.69163 0.78706 0.56027 0.0
C2568 C 0.70214 0.78994 0.59 0.0
H2569 H 0.62433 0.74901 0.74908 0.0
H2570 H 0.64611 0.75936 0.7205 0.0
C2571 C 0.71409 0.79693 0.56939 0.0
C2572 C 0.679 0.78016 0.5829 0.0
H2573 H 0.65278 0.78198 0.60433 0.0
C2574 C 0.67482 0.7682 0.60297 0.0
C2575 C 0.67107 0.78532 0.58451 0.0
C2576 C 0.67529 0.79842 0.56655 0.0
C2577 C 0.66273 0.76108 0.62294 0.0
C2578 C 0.65472 0.76611 0.62297 0.0
C2579 C 0.65897 0.77815 0.60392 0.0
C2580 C 0.64165 0.75888 0.64044 0.0
C2581 C 0.65844 0.74811 0.64251 0.0
C2582 C 0.63202 0.75516 0.60481 0.0
C2583 C 0.61964 0.74927 0.62085 0.0
C2584 C 0.61665 0.74708 0.67303 0.0
C2585 C 0.62633 0.75055 0.70866 0.0
C2586 C 0.63876 0.75642 0.69243 0.0
H2587 H 0.66524 0.74499 0.63397 0.0
H2588 H 0.65717 0.74791 0.68448 0.0
H2589 H 0.64931 0.7414 0.6254 0.0
H2590 H 0.6341 0.75702 0.56454 0.0
H2591 H 0.61245 0.74672 0.5923 0.0
H2592 H 0.20171 0.90857 0.44534 0.0
H2593 H 0.21379 0.89933 0.47822 0.0
H2594 H 0.21303 0.91287 0.62886 0.0
H2595 H 0.20097 0.92212 0.59661 0.0
H2596 H 0.23769 0.91158 0.53582 0.0
H2597 H 0.1978 0.8742 0.6436 0.0
H2598 H 0.19572 0.88279 0.5926 0.0
H2599 H 0.20098 0.88986 0.6541 0.0
C2600 C 0.20416 0.90963 0.48542 0.0
C2601 C 0.20031 0.91601 0.5184 0.0
C2602 C 0.21107 0.90437 0.50407 0.0
C2603 C 0.21415 0.90532 0.556 0.0
C2604 C 0.2106 0.91193 0.58877 0.0
H2605 H 0.24715 0.87048 0.73887 0.0
H2606 H 0.2381 0.88305 0.71013 0.0
C2607 C 0.20374 0.91723 0.57017 0.0
C2608 C 0.22086 0.89916 0.5762 0.0
H2609 H 0.21723 0.87527 0.65255 0.0
C2610 C 0.23325 0.90364 0.56135 0.0
C2611 C 0.21502 0.88888 0.60971 0.0
C2612 C 0.20162 0.88355 0.62582 0.0
C2613 C 0.24002 0.89812 0.57946 0.0
C2614 C 0.23412 0.88767 0.61227 0.0
C2615 C 0.22175 0.88329 0.6275 0.0
C2616 C 0.24037 0.88078 0.62969 0.0
C2617 C 0.25349 0.90365 0.56389 0.0
C2618 C 0.24462 0.87531 0.59402 0.0
C2619 C 0.24984 0.86819 0.61028 0.0
C2620 C 0.25077 0.86626 0.6626 0.0
C2621 C 0.24658 0.8718 0.69832 0.0
C2622 C 0.2414 0.87898 0.68197 0.0
H2623 H 0.2576 0.91358 0.55262 0.0
H2624 H 0.25916 0.90299 0.59525 0.0
H2625 H 0.25407 0.89847 0.53049 0.0
H2626 H 0.24363 0.8763 0.5535 0.0
H2627 H 0.2529 0.86399 0.58171 0.0
H2628 H 0.72036 0.91721 0.08959 0.0
H2629 H 0.69885 0.90742 0.11976 0.0
H2630 H 0.68563 0.89973 0.96457 0.0
H2631 H 0.70718 0.90951 0.93373 0.0
H2632 H 0.67447 0.91087 0.03544 0.0
H2633 H 0.67398 0.86853 0.10969 0.0
H2634 H 0.68705 0.88331 0.12774 0.0
H2635 H 0.685 0.87855 0.06214 0.0
C2636 C 0.7129 0.91349 0.06173 0.0
C2637 C 0.71548 0.91408 0.00919 0.0
C2638 C 0.70062 0.90787 0.07912 0.0
C2639 C 0.69071 0.90277 0.04438 0.0
C2640 C 0.69321 0.9036 0.9919 0.0
H2641 H 0.61027 0.86541 0.07403 0.0
H2642 H 0.63176 0.87705 0.04401 0.0
C2643 C 0.7055 0.90916 0.9744 0.0
C2644 C 0.67772 0.89638 0.06311 0.0
H2645 H 0.65633 0.87045 0.12697 0.0
C2646 C 0.67045 0.90201 0.05532 0.0
C2647 C 0.6726 0.88489 0.08926 0.0
C2648 C 0.67999 0.87837 0.09755 0.0
C2649 C 0.65819 0.89651 0.07382 0.0
C2650 C 0.65301 0.88493 0.09962 0.0
C2651 C 0.66032 0.87933 0.10732 0.0
C2652 C 0.63996 0.87832 0.11827 0.0
C2653 C 0.65103 0.9033 0.06661 0.0
C2654 C 0.6374 0.87491 0.16983 0.0
C2655 C 0.62509 0.86809 0.18705 0.0
C2656 C 0.61512 0.86456 0.15296 0.0
C2657 C 0.61773 0.86808 0.1014 0.0
C2658 C 0.63002 0.87481 0.08419 0.0
H2659 H 0.65737 0.91344 0.06047 0.0
H2660 H 0.64499 0.89954 0.03244 0.0
H2661 H 0.64502 0.90203 0.10009 0.0
H2662 H 0.64494 0.87746 0.19673 0.0
H2663 H 0.62341 0.86553 0.22697 0.0
H2664 H 0.13224 0.74661 0.08564 0.0
H2665 H 0.12055 0.75667 0.05862 0.0
H2666 H 0.11164 0.75934 0.21546 0.0
H2667 H 0.12358 0.74951 0.24309 0.0
H2668 H 0.09606 0.75034 0.07119 0.0
H2669 H 0.12759 0.79527 0.16741 0.0
H2670 H 0.13154 0.78319 0.15962 0.0
H2671 H 0.12092 0.78198 0.20902 0.0
C2672 C 0.12777 0.7493 0.11449 0.0
C2673 C 0.12895 0.74737 0.16662 0.0
C2674 C 0.12108 0.75503 0.09892 0.0
C2675 C 0.11542 0.75895 0.13506 0.0
C2676 C 0.11618 0.75664 0.18702 0.0
H2677 H 0.07593 0.80013 0.09925 0.0
H2678 H 0.08409 0.78712 0.13186 0.0
C2679 C 0.12295 0.75096 0.20271 0.0
C2680 C 0.10897 0.76567 0.11807 0.0
H2681 H 0.10979 0.79357 0.1268 0.0
C2682 C 0.09905 0.75979 0.0834 0.0
C2683 C 0.11291 0.77801 0.13395 0.0
C2684 C 0.12389 0.78505 0.16918 0.0
C2685 C 0.09295 0.76591 0.06424 0.0
C2686 C 0.09696 0.77826 0.07986 0.0
C2687 C 0.10674 0.78408 0.11507 0.0
C2688 C 0.09138 0.78547 0.05916 0.0
C2689 C 0.08221 0.75911 0.02772 0.0
C2690 C 0.09282 0.78886 0.00747 0.0
C2691 C 0.08822 0.79635 0.98868 0.0
C2692 C 0.08212 0.80058 0.02134 0.0
C2693 C 0.08056 0.79701 0.07301 0.0
C2694 C 0.08521 0.78958 0.09177 0.0
H2695 H 0.07843 0.74888 0.02885 0.0
H2696 H 0.07458 0.76106 0.03654 0.0
H2697 H 0.08547 0.76239 0.9883 0.0
H2698 H 0.09773 0.78593 0.9819 0.0
H2699 H 0.0896 0.79894 0.94875 0.0
H2700 H 0.23132 0.37238 0.22289 0.0
H2701 H 0.22175 0.35104 0.19069 0.0
H2702 H 0.24704 0.36374 0.06286 0.0
H2703 H 0.25678 0.38509 0.09503 0.0
H2704 H 0.20996 0.34264 0.09716 0.0
H2705 H 0.24967 0.33405 0.11608 0.0
H2706 H 0.24928 0.34676 0.148 0.0
H2707 H 0.25323 0.34797 0.08149 0.0
C2708 C 0.23494 0.37063 0.18822 0.0
C2709 C 0.24483 0.38044 0.16159 0.0
C2710 C 0.22945 0.35843 0.16986 0.0
C2711 C 0.23378 0.3558 0.12473 0.0
C2712 C 0.24372 0.36554 0.0983 0.0
H2713 H 0.19221 0.28963 0.93695 0.0
H2714 H 0.20395 0.31102 0.96895 0.0
C2715 C 0.24923 0.37774 0.11664 0.0
C2716 C 0.22744 0.34297 0.10394 0.0
H2717 H 0.23202 0.31895 0.07002 0.0
C2718 C 0.21477 0.33744 0.09132 0.0
C2719 C 0.23373 0.3362 0.09676 0.0
C2720 C 0.2472 0.34148 0.11169 0.0
C2721 C 0.20822 0.32534 0.07126 0.0
C2722 C 0.21458 0.31869 0.06286 0.0
C2723 C 0.22722 0.32415 0.07599 0.0
C2724 C 0.20813 0.30587 0.04211 0.0
C2725 C 0.19449 0.3197 0.06014 0.0
C2726 C 0.20695 0.29595 0.07205 0.0
C2727 C 0.20031 0.28374 0.05384 0.0
C2728 C 0.19477 0.28123 0.0052 0.0
C2729 C 0.1963 0.29123 0.97468 0.0
C2730 C 0.20294 0.30345 0.99297 0.0
H2731 H 0.19044 0.32482 0.07962 0.0
H2732 H 0.19314 0.32006 0.01845 0.0
H2733 H 0.18927 0.30979 0.07226 0.0
H2734 H 0.21093 0.29764 0.11 0.0
H2735 H 0.19936 0.27626 0.07828 0.0
H2736 H 0.85848 0.62418 0.28983 0.0
H2737 H 0.87149 0.64478 0.32749 0.0
H2738 H 0.87851 0.62796 0.45797 0.0
H2739 H 0.86565 0.60733 0.42037 0.0
H2740 H 0.86727 0.65283 0.42018 0.0
H2741 H 0.91349 0.65579 0.4183 0.0
H2742 H 0.90048 0.64451 0.38096 0.0
H2743 H 0.90127 0.64204 0.44807 0.0
C2744 C 0.86289 0.62486 0.32629 0.0
C2745 C 0.86103 0.61411 0.35207 0.0
C2746 C 0.87031 0.63664 0.34776 0.0
C2747 C 0.87606 0.6379 0.39523 0.0
C2748 C 0.87435 0.62721 0.42085 0.0
H2749 H 0.90314 0.70441 0.58456 0.0
H2750 H 0.89299 0.68276 0.55526 0.0
C2751 C 0.86694 0.61542 0.39939 0.0
C2752 C 0.88326 0.65035 0.41907 0.0
H2753 H 0.91217 0.67186 0.46211 0.0
C2754 C 0.87708 0.657 0.4294 0.0
C2755 C 0.89608 0.65576 0.43072 0.0
C2756 C 0.90328 0.64923 0.41859 0.0
C2757 C 0.88337 0.66893 0.45104 0.0
C2758 C 0.89614 0.67427 0.4635 0.0
C2759 C 0.90234 0.66765 0.45309 0.0
C2760 C 0.90331 0.68703 0.48451 0.0
C2761 C 0.87638 0.67587 0.45908 0.0
C2762 C 0.91286 0.69647 0.45547 0.0
C2763 C 0.91872 0.70882 0.47216 0.0
C2764 C 0.91514 0.71193 0.5183 0.0
C2765 C 0.90605 0.70234 0.54867 0.0
C2766 C 0.9002 0.68998 0.53191 0.0
H2767 H 0.86748 0.67161 0.43746 0.0
H2768 H 0.87417 0.67568 0.50021 0.0
H2769 H 0.88213 0.68577 0.44727 0.0
H2770 H 0.91543 0.69436 0.41888 0.0
H2771 H 0.92574 0.71597 0.44796 0.0
H2772 H 0.29102 0.19718 0.58255 0.0
H2773 H 0.31273 0.20918 0.55431 0.0
H2774 H 0.30044 0.21141 0.40273 0.0
H2775 H 0.27879 0.19964 0.43063 0.0
H2776 H 0.32347 0.20206 0.48048 0.0
H2777 H 0.32751 0.24725 0.42831 0.0
H2778 H 0.3149 0.23579 0.46688 0.0
H2779 H 0.31444 0.23424 0.39854 0.0
C2780 C 0.29294 0.20038 0.54338 0.0
C2781 C 0.28317 0.19745 0.50885 0.0
C2782 C 0.30535 0.20723 0.52733 0.0
C2783 C 0.30819 0.21133 0.47661 0.0
C2784 C 0.29847 0.20859 0.44232 0.0
H2785 H 0.37189 0.22566 0.29707 0.0
H2786 H 0.35146 0.21774 0.33667 0.0
C2787 C 0.28608 0.20177 0.4583 0.0
C2788 C 0.32125 0.21758 0.45834 0.0
H2789 H 0.34328 0.24332 0.39509 0.0
C2790 C 0.32785 0.21114 0.46233 0.0
C2791 C 0.32701 0.22949 0.43518 0.0
C2792 C 0.32065 0.23716 0.43239 0.0
C2793 C 0.33988 0.21608 0.44208 0.0
C2794 C 0.34535 0.22766 0.41641 0.0
C2795 C 0.33897 0.23435 0.41415 0.0
C2796 C 0.3576 0.23285 0.39091 0.0
C2797 C 0.34662 0.20884 0.4483 0.0
C2798 C 0.36771 0.24419 0.40714 0.0
C2799 C 0.37941 0.24879 0.3844 0.0
C2800 C 0.38116 0.24214 0.34483 0.0
C2801 C 0.37089 0.23097 0.32765 0.0
C2802 C 0.35922 0.22639 0.35041 0.0
H2803 H 0.34268 0.20202 0.48011 0.0
H2804 H 0.34565 0.20359 0.41269 0.0
H2805 H 0.3567 0.21518 0.45554 0.0
H2806 H 0.36662 0.24934 0.43814 0.0
H2807 H 0.38712 0.25744 0.39845 0.0
H2808 H 0.79568 0.07685 0.42251 0.0
H2809 H 0.78376 0.08585 0.38599 0.0
H2810 H 0.78867 0.10651 0.5246 0.0
H2811 H 0.80066 0.09759 0.56161 0.0
H2812 H 0.76284 0.09263 0.4784 0.0
H2813 H 0.80051 0.12399 0.34475 0.0
H2814 H 0.79647 0.10787 0.34627 0.0
H2815 H 0.80356 0.11753 0.40106 0.0
C2816 C 0.79418 0.08325 0.44542 0.0
C2817 C 0.79917 0.08655 0.49493 0.0
C2818 C 0.7874 0.08841 0.42438 0.0
C2819 C 0.78546 0.0969 0.4525 0.0
C2820 C 0.79013 0.09998 0.50234 0.0
H2821 H 0.74973 0.14056 0.41324 0.0
H2822 H 0.75886 0.12838 0.44468 0.0
C2823 C 0.79698 0.0949 0.52334 0.0
C2824 C 0.77875 0.10277 0.42958 0.0
H2825 H 0.78168 0.12426 0.34101 0.0
C2826 C 0.76692 0.09953 0.44829 0.0
C2827 C 0.78409 0.11167 0.39006 0.0
C2828 C 0.79689 0.11558 0.36934 0.0
C2829 C 0.76024 0.10499 0.42846 0.0
C2830 C 0.76573 0.11417 0.38986 0.0
C2831 C 0.77749 0.11723 0.37057 0.0
C2832 C 0.75971 0.12114 0.3706 0.0
C2833 C 0.74733 0.10077 0.44865 0.0
C2834 C 0.75744 0.12138 0.31824 0.0
C2835 C 0.75234 0.12848 0.29993 0.0
C2836 C 0.74947 0.1355 0.33373 0.0
C2837 C 0.75174 0.13519 0.38616 0.0
C2838 C 0.75687 0.12815 0.40432 0.0
H2839 H 0.74303 0.09123 0.46497 0.0
H2840 H 0.74792 0.10716 0.47954 0.0
H2841 H 0.74114 0.10086 0.41825 0.0
H2842 H 0.75966 0.1161 0.29151 0.0
H2843 H 0.75073 0.12853 0.25935 0.0
H2844 H 0.95675 0.42286 0.39391 0.0
H2845 H 0.97817 0.43262 0.36158 0.0
H2846 H 0.96433 0.42473 0.2073 0.0
H2847 H 0.94295 0.41493 0.23893 0.0
H2848 H 0.98892 0.4212 0.28775 0.0
H2849 H 0.98931 0.46386 0.21833 0.0
H2850 H 0.97865 0.45388 0.26695 0.0
H2851 H 0.97604 0.44911 0.20138 0.0
C2852 C 0.95826 0.42315 0.35312 0.0
C2853 C 0.94815 0.41817 0.319 0.0
C2854 C 0.97049 0.42871 0.33478 0.0
C2855 C 0.97277 0.42947 0.28213 0.0
C2856 C 0.96272 0.42431 0.24806 0.0
H2857 H 0.03937 0.46718 0.09567 0.0
H2858 H 0.01795 0.45523 0.12707 0.0
C2859 C 0.95052 0.41869 0.26628 0.0
C2860 C 0.98567 0.43586 0.26251 0.0
H2861 H 0.00688 0.46198 0.19921 0.0
C2862 C 0.9929 0.43013 0.26851 0.0
C2863 C 0.99073 0.44744 0.23718 0.0
C2864 C 0.98335 0.45403 0.23069 0.0
C2865 C 0.00507 0.43564 0.24906 0.0
C2866 C 0.01021 0.44733 0.22415 0.0
C2867 C 0.00293 0.45302 0.21821 0.0
C2868 C 0.02318 0.45396 0.20469 0.0
C2869 C 0.01219 0.42875 0.25431 0.0
C2870 C 0.03323 0.45726 0.23792 0.0
C2871 C 0.04547 0.464 0.22003 0.0
C2872 C 0.0479 0.46774 0.16865 0.0
C2873 C 0.03782 0.46444 0.13542 0.0
C2874 C 0.02557 0.45761 0.15331 0.0
H2875 H 0.00582 0.4186 0.25982 0.0
H2876 H 0.01807 0.43015 0.22024 0.0
H2877 H 0.01835 0.43232 0.28821 0.0
H2878 H 0.03163 0.45484 0.27799 0.0
H2879 H 0.05302 0.46648 0.24676 0.0
H2880 H 0.53057 0.5677 0.10544 0.0
H2881 H 0.5436 0.55961 0.13918 0.0
H2882 H 0.55009 0.58123 0.27621 0.0
H2883 H 0.53716 0.58942 0.2429 0.0
H2884 H 0.57034 0.57492 0.18011 0.0
H2885 H 0.53469 0.54305 0.31966 0.0
H2886 H 0.53063 0.54878 0.2637 0.0
H2887 H 0.53796 0.55893 0.31694 0.0
C2888 C 0.53481 0.57078 0.14265 0.0
C2889 C 0.53279 0.57916 0.17156 0.0
C2890 C 0.54226 0.56617 0.16177 0.0
C2891 C 0.54769 0.56977 0.21024 0.0
C2892 C 0.54589 0.5783 0.23884 0.0
H2893 H 0.58606 0.54059 0.39463 0.0
H2894 H 0.57633 0.55245 0.36472 0.0
C2895 C 0.53852 0.58298 0.21965 0.0
C2896 C 0.55503 0.5644 0.23134 0.0
H2897 H 0.55387 0.54346 0.31886 0.0
C2898 C 0.56679 0.56806 0.21052 0.0
C2899 C 0.55037 0.55556 0.27125 0.0
C2900 C 0.53769 0.55124 0.29424 0.0
C2901 C 0.57404 0.56307 0.22864 0.0
C2902 C 0.56923 0.55394 0.26765 0.0
C2903 C 0.55754 0.55046 0.289 0.0
C2904 C 0.57587 0.54745 0.28533 0.0
C2905 C 0.58683 0.56774 0.20625 0.0
C2906 C 0.5788 0.54067 0.25067 0.0
C2907 C 0.58441 0.53397 0.26755 0.0
C2908 C 0.58706 0.53375 0.31961 0.0
C2909 C 0.58416 0.54058 0.35429 0.0
C2910 C 0.57859 0.54736 0.33728 0.0
H2911 H 0.59064 0.57723 0.18986 0.0
H2912 H 0.59346 0.56797 0.23537 0.0
H2913 H 0.58622 0.56142 0.17498 0.0
H2914 H 0.57648 0.54033 0.21064 0.0
H2915 H 0.58643 0.52874 0.23983 0.0
H2916 H 0.41079 0.94529 0.25329 0.0
H2917 H 0.41998 0.96651 0.28675 0.0
H2918 H 0.43792 0.98118 0.1421 0.0
H2919 H 0.42881 0.96 0.1082 0.0
H2920 H 0.44686 0.98449 0.28916 0.0
H2921 H 0.41957 0.00097 0.17846 0.0
H2922 H 0.41429 0.98464 0.18826 0.0
H2923 H 0.42626 0.99342 0.14229 0.0
C2924 C 0.4166 0.95303 0.2284 0.0
C2925 C 0.41907 0.95096 0.17803 0.0
C2926 C 0.42185 0.96513 0.24764 0.0
C2927 C 0.42951 0.97537 0.21671 0.0
C2928 C 0.43189 0.97338 0.1663 0.0
H2929 H 0.47311 0.05496 0.24955 0.0
H2930 H 0.46149 0.03338 0.22053 0.0
C2931 C 0.42672 0.96127 0.1471 0.0
C2932 C 0.4355 0.98813 0.23786 0.0
H2933 H 0.43669 0.01613 0.2262 0.0
C2934 C 0.4446 0.99141 0.27578 0.0
C2935 C 0.43252 0.99709 0.22002 0.0
C2936 C 0.42256 0.99389 0.18028 0.0
C2937 C 0.45109 0.00356 0.29541 0.0
C2938 C 0.44815 0.01257 0.27747 0.0
C2939 C 0.43891 0.00922 0.23996 0.0
C2940 C 0.45487 0.02564 0.29565 0.0
C2941 C 0.46134 0.00675 0.33378 0.0
C2942 C 0.45485 0.02849 0.34748 0.0
C2943 C 0.46157 0.04084 0.36434 0.0
C2944 C 0.46832 0.05057 0.32951 0.0
C2945 C 0.46804 0.04769 0.27744 0.0
C2946 C 0.46139 0.03536 0.26072 0.0
H2947 H 0.46455 -0.00017 0.33344 0.0
H2948 H 0.46946 0.01613 0.3262 0.0
H2949 H 0.4578 0.0068 0.3726 0.0
H2950 H 0.44964 0.02116 0.37492 0.0
H2951 H 0.46151 0.04275 0.40462 0.0
H2952 H 0.56394 0.03786 0.88655 0.0
H2953 H 0.55435 0.01653 0.85432 0.0
H2954 H 0.58051 0.02902 0.72948 0.0
H2955 H 0.59028 0.05036 0.76176 0.0
H2956 H 0.54313 0.00834 0.76009 0.0
H2957 H 0.58222 0.99898 0.78403 0.0
H2958 H 0.58191 0.01181 0.81516 0.0
H2959 H 0.58619 0.01294 0.74904 0.0
C2960 C 0.56775 0.03606 0.85256 0.0
C2961 C 0.57788 0.04581 0.82678 0.0
C2962 C 0.56225 0.02387 0.83418 0.0
C2963 C 0.5668 0.02118 0.78984 0.0
C2964 C 0.57701 0.03085 0.76432 0.0
H2965 H 0.52526 0.95495 0.60183 0.0
H2966 H 0.53714 0.97638 0.63334 0.0
C2967 C 0.58254 0.04306 0.78272 0.0
C2968 C 0.56042 0.00837 0.76886 0.0
H2969 H 0.5647 0.98405 0.73687 0.0
C2970 C 0.54783 0.00302 0.75509 0.0
C2971 C 0.56657 0.00143 0.76275 0.0
C2972 C 0.57994 0.00652 0.77893 0.0
C2973 C 0.54123 0.99092 0.73502 0.0
C2974 C 0.54745 0.98409 0.72777 0.0
C2975 C 0.56001 0.98939 0.74196 0.0
C2976 C 0.54091 0.97124 0.70734 0.0
C2977 C 0.52758 0.98546 0.72275 0.0
C2978 C 0.53946 0.96131 0.73794 0.0
C2979 C 0.53274 0.94908 0.72003 0.0
C2980 C 0.52739 0.94656 0.67101 0.0
C2981 C 0.52919 0.95656 0.63985 0.0
C2982 C 0.53592 0.96881 0.65785 0.0
H2983 H 0.52357 0.99072 0.74136 0.0
H2984 H 0.52644 0.9858 0.68089 0.0
H2985 H 0.52217 0.97557 0.73502 0.0
H2986 H 0.54329 0.96301 0.77617 0.0
H2987 H 0.53157 0.9416 0.74497 0.0
H2988 H 0.05425 0.58203 0.7406 0.0
H2989 H 0.03288 0.57283 0.77154 0.0
H2990 H 0.02001 0.57196 0.61789 0.0
H2991 H 0.04139 0.58094 0.58628 0.0
H2992 H 0.01583 0.58088 0.76568 0.0
H2993 H 0.99858 0.53593 0.6635 0.0
H2994 H 0.01495 0.54717 0.66951 0.0
H2995 H 0.00559 0.54943 0.62303 0.0
C2996 C 0.04689 0.5799 0.71328 0.0
C2997 C 0.04951 0.58211 0.66085 0.0
C2998 C 0.03468 0.57466 0.7311 0.0
C2999 C 0.02484 0.57152 0.69694 0.0
C3000 C 0.02744 0.57406 0.64476 0.0
H3001 H 0.94472 0.5349 0.74371 0.0
H3002 H 0.96579 0.54698 0.70916 0.0
C3003 C 0.03967 0.57925 0.62681 0.0
C3004 C 0.01186 0.56545 0.7162 0.0
H3005 H 0.98364 0.53873 0.70852 0.0
C3006 C 0.00878 0.57167 0.75317 0.0
C3007 C 0.0027 0.55342 0.69992 0.0
C3008 C 0.00561 0.54603 0.66216 0.0
C3009 C 0.99676 0.56619 0.77413 0.0
C3010 C 0.98765 0.55414 0.758 0.0
C3011 C 0.99067 0.54799 0.72063 0.0
C3012 C 0.97497 0.54759 0.78015 0.0
C3013 C 0.99385 0.57334 0.81302 0.0
C3014 C 0.97318 0.54395 0.83158 0.0
C3015 C 0.96114 0.537 0.85149 0.0
C3016 C 0.95069 0.53355 0.82022 0.0
C3017 C 0.95255 0.53741 0.7689 0.0
C3018 C 0.96458 0.54431 0.74902 0.0
H3019 H 0.00085 0.58345 0.81241 0.0
H3020 H 0.98447 0.57215 0.80621 0.0
H3021 H 0.99389 0.56971 0.85168 0.0
H3022 H 0.98109 0.54623 0.856 0.0
H3023 H 0.96003 0.53415 0.8911 0.0
H3024 H 0.41165 0.46923 0.75372 0.0
H3025 H 0.41959 0.45621 0.78816 0.0
H3026 H 0.42838 0.4498 0.63602 0.0
H3027 H 0.42061 0.46297 0.6011 0.0
H3028 H 0.41277 0.43125 0.7695 0.0
H3029 H 0.46166 0.46387 0.71192 0.0
H3030 H 0.44979 0.46825 0.7118 0.0
H3031 H 0.45061 0.45905 0.66057 0.0
C3032 C 0.41524 0.46503 0.72746 0.0
C3033 C 0.41561 0.46724 0.67463 0.0
C3034 C 0.41974 0.45757 0.74728 0.0
C3035 C 0.42474 0.45222 0.71473 0.0
C3036 C 0.42477 0.45406 0.66186 0.0
H3037 H 0.46137 0.40937 0.75592 0.0
H3038 H 0.45018 0.41949 0.72396 0.0
C3039 C 0.42028 0.46154 0.64197 0.0
C3040 C 0.4302 0.44495 0.73629 0.0
H3041 H 0.45738 0.4444 0.74556 0.0
C3042 C 0.42253 0.43412 0.76444 0.0
C3043 C 0.44295 0.44879 0.72991 0.0
C3044 C 0.45178 0.46068 0.70234 0.0
C3045 C 0.42723 0.42685 0.78535 0.0
C3046 C 0.43994 0.43063 0.77838 0.0
C3047 C 0.44761 0.4415 0.75061 0.0
C3048 C 0.44555 0.42338 0.79866 0.0
C3049 C 0.41853 0.41505 0.81371 0.0
C3050 C 0.44653 0.42208 0.85142 0.0
C3051 C 0.45295 0.41627 0.87001 0.0
C3052 C 0.45856 0.41175 0.83604 0.0
C3053 C 0.45722 0.41277 0.78323 0.0
C3054 C 0.45081 0.41855 0.7648 0.0
H3055 H 0.4086 0.41204 0.80614 0.0
H3056 H 0.42026 0.40738 0.80299 0.0
H3057 H 0.42021 0.4167 0.85531 0.0
H3058 H 0.44269 0.42593 0.8782 0.0
H3059 H 0.45385 0.41567 0.91086 0.0
loop_
_geom_bond_atom_site_label_1
_geom_bond_atom_site_label_2
_geom_bond_distance
_geom_bond_site_symmetry_2
_ccdc_geom_bond_type
C0 O1 1.160 . S
C0 O7 1.185 . S
O1 C0 1.160 . S
O2 Zn3 1.899 . S
O2 C10 1.284 . S
Zn3 O2 1.899 . S
Zn3 O4 2.032 . S
Zn3 O7 2.086 . S
Zn3 O12 1.977 1_554 S
O4 Zn3 2.032 . S
O4 C8 1.278 . S
C5 O6 1.203 . S
C5 O12 1.267 . S
O6 C5 1.203 . S
O7 C0 1.185 . S
O7 Zn3 2.086 . S
C8 O4 1.278 . S
C8 O9 1.211 . S
O9 C8 1.211 . S
C10 O2 1.284 . S
C10 O11 1.273 . S
O11 C10 1.273 . S
O12 Zn3 1.977 1_556 S
O12 C5 1.267 . S
C13 O14 1.160 . S
C13 O20 1.185 . S
O14 C13 1.160 . S
O15 Zn16 1.899 . S
O15 C23 1.284 . S
Zn16 O15 1.899 . S
Zn16 O17 2.032 . S
Zn16 O20 2.086 . S
Zn16 O25 1.977 1_554 S
O17 Zn16 2.032 . S
O17 C21 1.278 . S
C18 O19 1.203 . S
C18 O25 1.267 . S
O19 C18 1.203 . S
O20 C13 1.185 . S
O20 Zn16 2.086 . S
C21 O17 1.278 . S
C21 O22 1.211 . S
O22 C21 1.211 . S
C23 O15 1.284 . S
C23 O24 1.273 . S
O24 C23 1.273 . S
O25 Zn16 1.977 1_556 S
O25 C18 1.267 . S
C26 O27 1.160 . S
C26 O33 1.185 . S
O27 C26 1.160 . S
O28 Zn29 1.899 . S
O28 C36 1.284 . S
Zn29 O28 1.899 . S
Zn29 O30 2.032 . S
Zn29 O33 2.086 . S
Zn29 O38 1.977 1_554 S
O30 Zn29 2.032 . S
O30 C34 1.278 . S
C31 O32 1.203 . S
C31 O38 1.267 . S
O32 C31 1.203 . S
O33 C26 1.185 . S
O33 Zn29 2.086 . S
C34 O30 1.278 . S
C34 O35 1.211 . S
O35 C34 1.211 . S
C36 O28 1.284 . S
C36 O37 1.273 . S
O37 C36 1.273 . S
O38 Zn29 1.977 1_556 S
O38 C31 1.267 . S
C39 O40 1.160 . S
C39 O46 1.185 . S
O40 C39 1.160 . S
O41 Zn42 1.899 . S
O41 C49 1.284 . S
Zn42 O41 1.899 . S
Zn42 O43 2.032 . S
Zn42 O46 2.086 . S
Zn42 O51 1.977 . S
O43 Zn42 2.032 . S
O43 C47 1.278 . S
C44 O45 1.203 . S
C44 O51 1.267 . S
O45 C44 1.203 . S
O46 C39 1.185 . S
O46 Zn42 2.086 . S
C47 O43 1.278 . S
C47 O48 1.211 . S
O48 C47 1.211 . S
C49 O41 1.284 . S
C49 O50 1.273 . S
O50 C49 1.273 . S
O51 Zn42 1.977 . S
O51 C44 1.267 . S
C52 O53 1.160 . S
C52 O59 1.185 . S
O53 C52 1.160 . S
O54 Zn55 1.899 . S
O54 C62 1.284 . S
Zn55 O54 1.899 . S
Zn55 O56 2.032 . S
Zn55 O59 2.086 . S
Zn55 O64 1.977 . S
O56 Zn55 2.032 . S
O56 C60 1.278 . S
C57 O58 1.203 . S
C57 O64 1.267 . S
O58 C57 1.203 . S
O59 C52 1.185 . S
O59 Zn55 2.086 . S
C60 O56 1.278 . S
C60 O61 1.211 . S
O61 C60 1.211 . S
C62 O54 1.284 . S
C62 O63 1.273 . S
O63 C62 1.273 . S
O64 Zn55 1.977 . S
O64 C57 1.267 . S
C65 O66 1.160 . S
C65 O72 1.185 . S
O66 C65 1.160 . S
O67 Zn68 1.899 . S
O67 C75 1.284 . S
Zn68 O67 1.899 . S
Zn68 O69 2.032 . S
Zn68 O72 2.086 . S
Zn68 O77 1.977 . S
O69 Zn68 2.032 . S
O69 C73 1.278 . S
C70 O71 1.203 . S
C70 O77 1.267 . S
O71 C70 1.203 . S
O72 C65 1.185 . S
O72 Zn68 2.086 . S
C73 O69 1.278 . S
C73 O74 1.211 . S
O74 C73 1.211 . S
C75 O67 1.284 . S
C75 O76 1.273 . S
O76 C75 1.273 . S
O77 Zn68 1.977 . S
O77 C70 1.267 . S
C78 O79 1.160 . S
C78 O85 1.185 . S
O79 C78 1.160 . S
O80 Zn81 1.899 . S
O80 C88 1.284 . S
Zn81 O80 1.899 . S
Zn81 O82 2.032 . S
Zn81 O85 2.086 . S
Zn81 O90 1.977 1_556 S
O82 Zn81 2.032 . S
O82 C86 1.278 . S
C83 O84 1.203 . S
C83 O90 1.267 . S
O84 C83 1.203 . S
O85 C78 1.185 . S
O85 Zn81 2.086 . S
C86 O82 1.278 . S
C86 O87 1.211 . S
O87 C86 1.211 . S
C88 O80 1.284 . S
C88 O89 1.273 . S
O89 C88 1.273 . S
O90 Zn81 1.977 1_554 S
O90 C83 1.267 . S
C91 O92 1.160 . S
C91 O98 1.185 . S
O92 C91 1.160 . S
O93 Zn94 1.899 . S
O93 C101 1.284 . S
Zn94 O93 1.899 . S
Zn94 O95 2.032 . S
Zn94 O98 2.086 . S
Zn94 O103 1.977 1_556 S
O95 Zn94 2.032 . S
O95 C99 1.278 . S
C96 O97 1.203 . S
C96 O103 1.267 . S
O97 C96 1.203 . S
O98 C91 1.185 . S
O98 Zn94 2.086 . S
C99 O95 1.278 . S
C99 O100 1.211 . S
O100 C99 1.211 . S
C101 O93 1.284 . S
C101 O102 1.273 . S
O102 C101 1.273 . S
O103 Zn94 1.977 1_554 S
O103 C96 1.267 . S
C104 O105 1.160 . S
C104 O111 1.185 . S
O105 C104 1.160 . S
O106 Zn107 1.899 . S
O106 C114 1.284 . S
Zn107 O106 1.899 . S
Zn107 O108 2.032 . S
Zn107 O111 2.086 . S
Zn107 O116 1.977 1_556 S
O108 Zn107 2.032 . S
O108 C112 1.278 . S
C109 O110 1.203 . S
C109 O116 1.267 . S
O110 C109 1.203 . S
O111 C104 1.185 . S
O111 Zn107 2.086 . S
C112 O108 1.278 . S
C112 O113 1.211 . S
O113 C112 1.211 . S
C114 O106 1.284 . S
C114 O115 1.273 . S
O115 C114 1.273 . S
O116 Zn107 1.977 1_554 S
O116 C109 1.267 . S
C117 O118 1.160 . S
C117 O124 1.185 . S
O118 C117 1.160 . S
O119 Zn120 1.899 . S
O119 C127 1.284 . S
Zn120 O119 1.899 . S
Zn120 O121 2.032 . S
Zn120 O124 2.086 . S
Zn120 O129 1.977 . S
O121 Zn120 2.032 . S
O121 C125 1.278 . S
C122 O123 1.203 . S
C122 O129 1.267 . S
O123 C122 1.203 . S
O124 C117 1.185 . S
O124 Zn120 2.086 . S
C125 O121 1.278 . S
C125 O126 1.211 . S
O126 C125 1.211 . S
C127 O119 1.284 . S
C127 O128 1.273 . S
O128 C127 1.273 . S
O129 Zn120 1.977 . S
O129 C122 1.267 . S
C130 O131 1.160 . S
C130 O137 1.185 . S
O131 C130 1.160 . S
O132 Zn133 1.899 . S
O132 C140 1.284 . S
Zn133 O132 1.899 . S
Zn133 O134 2.032 . S
Zn133 O137 2.086 . S
Zn133 O142 1.977 . S
O134 Zn133 2.032 . S
O134 C138 1.278 . S
C135 O136 1.203 . S
C135 O142 1.267 . S
O136 C135 1.203 . S
O137 C130 1.185 . S
O137 Zn133 2.086 . S
C138 O134 1.278 . S
C138 O139 1.211 . S
O139 C138 1.211 . S
C140 O132 1.284 . S
C140 O141 1.273 . S
O141 C140 1.273 . S
O142 Zn133 1.977 . S
O142 C135 1.267 . S
C143 O144 1.160 . S
C143 O150 1.185 . S
O144 C143 1.160 . S
O145 Zn146 1.899 . S
O145 C153 1.284 . S
Zn146 O145 1.899 . S
Zn146 O147 2.032 . S
Zn146 O150 2.086 . S
Zn146 O155 1.977 . S
O147 Zn146 2.032 . S
O147 C151 1.278 . S
C148 O149 1.203 . S
C148 O155 1.267 . S
O149 C148 1.203 . S
O150 C143 1.185 . S
O150 Zn146 2.086 . S
C151 O147 1.278 . S
C151 O152 1.211 . S
O152 C151 1.211 . S
C153 O145 1.284 . S
C153 O154 1.273 . S
O154 C153 1.273 . S
O155 Zn146 1.977 . S
O155 C148 1.267 . S
C156 O157 1.160 . S
C156 O163 1.185 . S
O157 C156 1.160 . S
O158 Zn159 1.899 . S
O158 C166 1.284 . S
Zn159 O158 1.899 . S
Zn159 O160 2.032 . S
Zn159 O163 2.086 . S
Zn159 O168 1.977 . S
O160 Zn159 2.032 . S
O160 C164 1.278 . S
C161 O162 1.203 . S
C161 O168 1.267 . S
O162 C161 1.203 . S
O163 C156 1.185 . S
O163 Zn159 2.086 . S
C164 O160 1.278 . S
C164 O165 1.211 . S
O165 C164 1.211 . S
C166 O158 1.284 . S
C166 O167 1.273 . S
O167 C166 1.273 . S
O168 Zn159 1.977 . S
O168 C161 1.267 . S
C169 O170 1.160 . S
C169 O176 1.185 . S
O170 C169 1.160 . S
O171 Zn172 1.899 . S
O171 C179 1.284 . S
Zn172 O171 1.899 . S
Zn172 O173 2.032 . S
Zn172 O176 2.086 . S
Zn172 O181 1.977 . S
O173 Zn172 2.032 . S
O173 C177 1.278 . S
C174 O175 1.203 . S
C174 O181 1.267 . S
O175 C174 1.203 . S
O176 C169 1.185 . S
O176 Zn172 2.086 . S
C177 O173 1.278 . S
C177 O178 1.211 . S
O178 C177 1.211 . S
C179 O171 1.284 . S
C179 O180 1.273 . S
O180 C179 1.273 . S
O181 Zn172 1.977 . S
O181 C174 1.267 . S
C182 O183 1.160 . S
C182 O189 1.185 . S
O183 C182 1.160 . S
O184 Zn185 1.899 . S
O184 C192 1.284 . S
Zn185 O184 1.899 . S
Zn185 O186 2.032 . S
Zn185 O189 2.086 . S
Zn185 O194 1.977 . S
O186 Zn185 2.032 . S
O186 C190 1.278 . S
C187 O188 1.203 . S
C187 O194 1.267 . S
O188 C187 1.203 . S
O189 C182 1.185 . S
O189 Zn185 2.086 . S
C190 O186 1.278 . S
C190 O191 1.211 . S
O191 C190 1.211 . S
C192 O184 1.284 . S
C192 O193 1.273 . S
O193 C192 1.273 . S
O194 Zn185 1.977 . S
O194 C187 1.267 . S
C195 O196 1.160 . S
C195 O202 1.185 . S
O196 C195 1.160 . S
O197 Zn198 1.899 . S
O197 C205 1.284 . S
Zn198 O197 1.899 . S
Zn198 O199 2.032 . S
Zn198 O202 2.086 . S
Zn198 O207 1.977 . S
O199 Zn198 2.032 . S
O199 C203 1.278 . S
C200 O201 1.203 . S
C200 O207 1.267 . S
O201 C200 1.203 . S
O202 C195 1.185 . S
O202 Zn198 2.086 . S
C203 O199 1.278 . S
C203 O204 1.211 . S
O204 C203 1.211 . S
C205 O197 1.284 . S
C205 O206 1.273 . S
O206 C205 1.273 . S
O207 Zn198 1.977 . S
O207 C200 1.267 . S
C208 O209 1.160 . S
C208 O215 1.185 . S
O209 C208 1.160 . S
O210 Zn211 1.899 . S
O210 C218 1.284 . S
Zn211 O210 1.899 . S
Zn211 O212 2.032 . S
Zn211 O215 2.086 . S
Zn211 O220 1.977 . S
O212 Zn211 2.032 . S
O212 C216 1.278 . S
C213 O214 1.203 . S
C213 O220 1.267 . S
O214 C213 1.203 . S
O215 C208 1.185 . S
O215 Zn211 2.086 . S
C216 O212 1.278 . S
C216 O217 1.211 . S
O217 C216 1.211 . S
C218 O210 1.284 . S
C218 O219 1.273 . S
O219 C218 1.273 . S
O220 Zn211 1.977 . S
O220 C213 1.267 . S
C221 O222 1.160 . S
C221 O228 1.185 . S
O222 C221 1.160 . S
O223 Zn224 1.899 . S
O223 C231 1.284 . S
Zn224 O223 1.899 . S
Zn224 O225 2.032 . S
Zn224 O228 2.086 . S
Zn224 O233 1.977 . S
O225 Zn224 2.032 . S
O225 C229 1.278 . S
C226 O227 1.203 . S
C226 O233 1.267 . S
O227 C226 1.203 . S
O228 C221 1.185 . S
O228 Zn224 2.086 . S
C229 O225 1.278 . S
C229 O230 1.211 . S
O230 C229 1.211 . S
C231 O223 1.284 . S
C231 O232 1.273 . S
O232 C231 1.273 . S
O233 Zn224 1.977 . S
O233 C226 1.267 . S
C234 O235 1.160 . S
C234 O241 1.185 . S
O235 C234 1.160 . S
O236 Zn237 1.899 . S
O236 C244 1.284 . S
Zn237 O236 1.899 . S
Zn237 O238 2.032 . S
Zn237 O241 2.086 . S
Zn237 O246 1.977 . S
O238 Zn237 2.032 . S
O238 C242 1.278 . S
C239 O240 1.203 . S
C239 O246 1.267 . S
O240 C239 1.203 . S
O241 C234 1.185 . S
O241 Zn237 2.086 . S
C242 O238 1.278 . S
C242 O243 1.211 . S
O243 C242 1.211 . S
C244 O236 1.284 . S
C244 O245 1.273 . S
O245 C244 1.273 . S
O246 Zn237 1.977 . S
O246 C239 1.267 . S
C247 O248 1.160 . S
C247 O254 1.185 . S
O248 C247 1.160 . S
O249 Zn250 1.899 . S
O249 C257 1.284 . S
Zn250 O249 1.899 . S
Zn250 O251 2.032 . S
Zn250 O254 2.086 . S
Zn250 O259 1.977 . S
O251 Zn250 2.032 . S
O251 C255 1.278 . S
C252 O253 1.203 . S
C252 O259 1.267 . S
O253 C252 1.203 . S
O254 C247 1.185 . S
O254 Zn250 2.086 . S
C255 O251 1.278 . S
C255 O256 1.211 . S
O256 C255 1.211 . S
C257 O249 1.284 . S
C257 O258 1.273 . S
O258 C257 1.273 . S
O259 Zn250 1.977 . S
O259 C252 1.267 . S
C260 O261 1.160 . S
C260 O267 1.185 . S
O261 C260 1.160 . S
O262 Zn263 1.899 . S
O262 C270 1.284 . S
Zn263 O262 1.899 . S
Zn263 O264 2.032 . S
Zn263 O267 2.086 . S
Zn263 O272 1.977 . S
O264 Zn263 2.032 . S
O264 C268 1.278 . S
C265 O266 1.203 . S
C265 O272 1.267 . S
O266 C265 1.203 . S
O267 C260 1.185 . S
O267 Zn263 2.086 . S
C268 O264 1.278 . S
C268 O269 1.211 . S
O269 C268 1.211 . S
C270 O262 1.284 . S
C270 O271 1.273 . S
O271 C270 1.273 . S
O272 Zn263 1.977 . S
O272 C265 1.267 . S
C273 O274 1.160 . S
C273 O280 1.185 . S
O274 C273 1.160 . S
O275 Zn276 1.899 . S
O275 C283 1.284 . S
Zn276 O275 1.899 . S
Zn276 O277 2.032 . S
Zn276 O280 2.086 . S
Zn276 O285 1.977 . S
O277 Zn276 2.032 . S
O277 C281 1.278 . S
C278 O279 1.203 . S
C278 O285 1.267 . S
O279 C278 1.203 . S
O280 C273 1.185 . S
O280 Zn276 2.086 . S
C281 O277 1.278 . S
C281 O282 1.211 . S
O282 C281 1.211 . S
C283 O275 1.284 . S
C283 O284 1.273 . S
O284 C283 1.273 . S
O285 Zn276 1.977 . S
O285 C278 1.267 . S
C286 O287 1.160 . S
C286 O293 1.185 . S
O287 C286 1.160 . S
O288 Zn289 1.899 . S
O288 C296 1.284 . S
Zn289 O288 1.899 . S
Zn289 O290 2.032 . S
Zn289 O293 2.086 . S
Zn289 O298 1.977 . S
O290 Zn289 2.032 . S
O290 C294 1.278 . S
C291 O292 1.203 . S
C291 O298 1.267 . S
O292 C291 1.203 . S
O293 C286 1.185 . S
O293 Zn289 2.086 . S
C294 O290 1.278 . S
C294 O295 1.211 . S
O295 C294 1.211 . S
C296 O288 1.284 . S
C296 O297 1.273 . S
O297 C296 1.273 . S
O298 Zn289 1.977 . S
O298 C291 1.267 . S
C299 O300 1.160 . S
C299 O306 1.185 . S
O300 C299 1.160 . S
O301 Zn302 1.899 . S
O301 C309 1.284 . S
Zn302 O301 1.899 . S
Zn302 O303 2.032 . S
Zn302 O306 2.086 . S
Zn302 O311 1.977 . S
O303 Zn302 2.032 . S
O303 C307 1.278 . S
C304 O305 1.203 . S
C304 O311 1.267 . S
O305 C304 1.203 . S
O306 C299 1.185 . S
O306 Zn302 2.086 . S
C307 O303 1.278 . S
C307 O308 1.211 . S
O308 C307 1.211 . S
C309 O301 1.284 . S
C309 O310 1.273 . S
O310 C309 1.273 . S
O311 Zn302 1.977 . S
O311 C304 1.267 . S
C312 O313 1.160 . S
C312 O319 1.185 . S
O313 C312 1.160 . S
O314 Zn315 1.899 . S
O314 C322 1.284 . S
Zn315 O314 1.899 . S
Zn315 O316 2.032 . S
Zn315 O319 2.086 . S
Zn315 O324 1.977 . S
O316 Zn315 2.032 . S
O316 C320 1.278 . S
C317 O318 1.203 . S
C317 O324 1.267 . S
O318 C317 1.203 . S
O319 C312 1.185 . S
O319 Zn315 2.086 . S
C320 O316 1.278 . S
C320 O321 1.211 . S
O321 C320 1.211 . S
C322 O314 1.284 . S
C322 O323 1.273 . S
O323 C322 1.273 . S
O324 Zn315 1.977 . S
O324 C317 1.267 . S
C325 O326 1.160 . S
C325 O332 1.185 . S
O326 C325 1.160 . S
O327 Zn328 1.899 . S
O327 C335 1.284 . S
Zn328 O327 1.899 . S
Zn328 O329 2.032 . S
Zn328 O332 2.086 . S
Zn328 O337 1.977 . S
O329 Zn328 2.032 . S
O329 C333 1.278 . S
C330 O331 1.203 . S
C330 O337 1.267 . S
O331 C330 1.203 . S
O332 C325 1.185 . S
O332 Zn328 2.086 . S
C333 O329 1.278 . S
C333 O334 1.211 . S
O334 C333 1.211 . S
C335 O327 1.284 . S
C335 O336 1.273 . S
O336 C335 1.273 . S
O337 Zn328 1.977 . S
O337 C330 1.267 . S
C338 O339 1.160 . S
C338 O345 1.185 . S
O339 C338 1.160 . S
O340 Zn341 1.899 . S
O340 C348 1.284 . S
Zn341 O340 1.899 . S
Zn341 O342 2.032 . S
Zn341 O345 2.086 . S
Zn341 O350 1.977 . S
O342 Zn341 2.032 . S
O342 C346 1.278 . S
C343 O344 1.203 . S
C343 O350 1.267 . S
O344 C343 1.203 . S
O345 C338 1.185 . S
O345 Zn341 2.086 . S
C346 O342 1.278 . S
C346 O347 1.211 . S
O347 C346 1.211 . S
C348 O340 1.284 . S
C348 O349 1.273 . S
O349 C348 1.273 . S
O350 Zn341 1.977 . S
O350 C343 1.267 . S
C351 O352 1.160 . S
C351 O358 1.185 . S
O352 C351 1.160 . S
O353 Zn354 1.899 . S
O353 C361 1.284 . S
Zn354 O353 1.899 . S
Zn354 O355 2.032 . S
Zn354 O358 2.086 . S
Zn354 O363 1.977 . S
O355 Zn354 2.032 . S
O355 C359 1.278 . S
C356 O357 1.203 . S
C356 O363 1.267 . S
O357 C356 1.203 . S
O358 C351 1.185 . S
O358 Zn354 2.086 . S
C359 O355 1.278 . S
C359 O360 1.211 . S
O360 C359 1.211 . S
C361 O353 1.284 . S
C361 O362 1.273 . S
O362 C361 1.273 . S
O363 Zn354 1.977 . S
O363 C356 1.267 . S
C364 O365 1.160 . S
C364 O371 1.185 . S
O365 C364 1.160 . S
O366 Zn367 1.899 . S
O366 C374 1.284 . S
Zn367 O366 1.899 . S
Zn367 O368 2.032 . S
Zn367 O371 2.086 . S
Zn367 O376 1.977 . S
O368 Zn367 2.032 . S
O368 C372 1.278 . S
C369 O370 1.203 . S
C369 O376 1.267 . S
O370 C369 1.203 . S
O371 C364 1.185 . S
O371 Zn367 2.086 . S
C372 O368 1.278 . S
C372 O373 1.211 . S
O373 C372 1.211 . S
C374 O366 1.284 . S
C374 O375 1.273 . S
O375 C374 1.273 . S
O376 Zn367 1.977 . S
O376 C369 1.267 . S
C377 O378 1.160 . S
C377 O384 1.185 . S
O378 C377 1.160 . S
O379 Zn380 1.899 . S
O379 C387 1.284 . S
Zn380 O379 1.899 . S
Zn380 O381 2.032 . S
Zn380 O384 2.086 . S
Zn380 O389 1.977 . S
O381 Zn380 2.032 . S
O381 C385 1.278 . S
C382 O383 1.203 . S
C382 O389 1.267 . S
O383 C382 1.203 . S
O384 C377 1.185 . S
O384 Zn380 2.086 . S
C385 O381 1.278 . S
C385 O386 1.211 . S
O386 C385 1.211 . S
C387 O379 1.284 . S
C387 O388 1.273 . S
O388 C387 1.273 . S
O389 Zn380 1.977 . S
O389 C382 1.267 . S
C390 O391 1.160 . S
C390 O397 1.185 . S
O391 C390 1.160 . S
O392 Zn393 1.899 . S
O392 C400 1.284 . S
Zn393 O392 1.899 . S
Zn393 O394 2.032 . S
Zn393 O397 2.086 . S
Zn393 O402 1.977 . S
O394 Zn393 2.032 . S
O394 C398 1.278 . S
C395 O396 1.203 . S
C395 O402 1.267 . S
O396 C395 1.203 . S
O397 C390 1.185 . S
O397 Zn393 2.086 . S
C398 O394 1.278 . S
C398 O399 1.211 . S
O399 C398 1.211 . S
C400 O392 1.284 . S
C400 O401 1.273 . S
O401 C400 1.273 . S
O402 Zn393 1.977 . S
O402 C395 1.267 . S
C403 O404 1.160 . S
C403 O410 1.185 . S
O404 C403 1.160 . S
O405 Zn406 1.899 . S
O405 C413 1.284 . S
Zn406 O405 1.899 . S
Zn406 O407 2.032 . S
Zn406 O410 2.086 . S
Zn406 O415 1.977 . S
O407 Zn406 2.032 . S
O407 C411 1.278 . S
C408 O409 1.203 . S
C408 O415 1.267 . S
O409 C408 1.203 . S
O410 C403 1.185 . S
O410 Zn406 2.086 . S
C411 O407 1.278 . S
C411 O412 1.211 . S
O412 C411 1.211 . S
C413 O405 1.284 . S
C413 O414 1.273 . S
O414 C413 1.273 . S
O415 Zn406 1.977 . S
O415 C408 1.267 . S
C416 O417 1.160 . S
C416 O423 1.185 . S
O417 C416 1.160 . S
O418 Zn419 1.899 . S
O418 C426 1.284 . S
Zn419 O418 1.899 . S
Zn419 O420 2.032 . S
Zn419 O423 2.086 . S
Zn419 O428 1.977 . S
O420 Zn419 2.032 . S
O420 C424 1.278 . S
C421 O422 1.203 . S
C421 O428 1.267 . S
O422 C421 1.203 . S
O423 C416 1.185 . S
O423 Zn419 2.086 . S
C424 O420 1.278 . S
C424 O425 1.211 . S
O425 C424 1.211 . S
C426 O418 1.284 . S
C426 O427 1.273 . S
O427 C426 1.273 . S
O428 Zn419 1.977 . S
O428 C421 1.267 . S
C429 O430 1.160 . S
C429 O436 1.185 . S
O430 C429 1.160 . S
O431 Zn432 1.899 . S
O431 C439 1.284 . S
Zn432 O431 1.899 . S
Zn432 O433 2.032 . S
Zn432 O436 2.086 . S
Zn432 O441 1.977 . S
O433 Zn432 2.032 . S
O433 C437 1.278 . S
C434 O435 1.203 . S
C434 O441 1.267 . S
O435 C434 1.203 . S
O436 C429 1.185 . S
O436 Zn432 2.086 . S
C437 O433 1.278 . S
C437 O438 1.211 . S
O438 C437 1.211 . S
C439 O431 1.284 . S
C439 O440 1.273 . S
O440 C439 1.273 . S
O441 Zn432 1.977 . S
O441 C434 1.267 . S
C442 O443 1.160 . S
C442 O449 1.185 . S
O443 C442 1.160 . S
O444 Zn445 1.899 . S
O444 C452 1.284 . S
Zn445 O444 1.899 . S
Zn445 O446 2.032 . S
Zn445 O449 2.086 . S
Zn445 O454 1.977 . S
O446 Zn445 2.032 . S
O446 C450 1.278 . S
C447 O448 1.203 . S
C447 O454 1.267 . S
O448 C447 1.203 . S
O449 C442 1.185 . S
O449 Zn445 2.086 . S
C450 O446 1.278 . S
C450 O451 1.211 . S
O451 C450 1.211 . S
C452 O444 1.284 . S
C452 O453 1.273 . S
O453 C452 1.273 . S
O454 Zn445 1.977 . S
O454 C447 1.267 . S
C455 O456 1.160 . S
C455 O462 1.185 . S
O456 C455 1.160 . S
O457 Zn458 1.899 . S
O457 C465 1.284 . S
Zn458 O457 1.899 . S
Zn458 O459 2.032 . S
Zn458 O462 2.086 . S
Zn458 O467 1.977 . S
O459 Zn458 2.032 . S
O459 C463 1.278 . S
C460 O461 1.203 . S
C460 O467 1.267 . S
O461 C460 1.203 . S
O462 C455 1.185 . S
O462 Zn458 2.086 . S
C463 O459 1.278 . S
C463 O464 1.211 . S
O464 C463 1.211 . S
C465 O457 1.284 . S
C465 O466 1.273 . S
O466 C465 1.273 . S
O467 Zn458 1.977 . S
O467 C460 1.267 . S
H468 C476 0.929 . S
H469 C478 0.930 . S
H470 C480 0.930 . S
H471 C483 0.929 . S
H472 C486 0.930 . S
H473 C488 0.960 . S
H474 C488 0.960 . S
H475 C488 0.960 . S
C476 H468 0.929 . S
C476 C477 1.377 . S
C476 C478 1.384 . S
C477 C476 1.377 . S
C477 C483 1.390 . S
C478 H469 0.930 . S
C478 C476 1.384 . S
C478 C479 1.372 . S
C479 C478 1.372 . S
C479 C480 1.400 . S
C479 C484 1.490 . S
C480 H470 0.930 . S
C480 C479 1.400 . S
C480 C483 1.386 . S
H481 C497 0.930 . S
H482 C498 0.931 . S
C483 H471 0.929 . S
C483 C477 1.390 . S
C483 C480 1.386 . S
C484 C479 1.490 . S
C484 C486 1.395 . S
C484 C487 1.403 1_565 S
H485 C491 0.930 . S
C486 H472 0.930 . S
C486 C484 1.395 . S
C486 C489 1.403 . S
C487 C484 1.403 1_545 S
C487 C488 1.524 . S
C487 C491 1.400 . S
C488 H473 0.960 . S
C488 H474 0.960 . S
C488 H475 0.960 . S
C488 C487 1.524 . S
C489 C486 1.403 . S
C489 C490 1.392 1_565 S
C489 C493 1.495 . S
C490 C489 1.392 1_545 S
C490 C491 1.385 . S
C490 C492 1.478 . S
C491 H485 0.930 . S
C491 C487 1.400 . S
C491 C490 1.385 . S
C492 C490 1.478 . S
C492 C494 1.381 . S
C492 C498 1.383 . S
C493 C489 1.495 . S
C493 H499 0.959 . S
C493 H500 0.961 . S
C493 H501 0.960 . S
C494 C492 1.381 . S
C494 C495 1.394 . S
C494 H502 0.930 . S
C495 C494 1.394 . S
C495 C496 1.383 . S
C495 H503 0.929 . S
C496 C495 1.383 . S
C496 C497 1.377 . S
C497 H481 0.930 . S
C497 C496 1.377 . S
C497 C498 1.379 . S
C498 H482 0.931 . S
C498 C492 1.383 . S
C498 C497 1.379 . S
H499 C493 0.959 . S
H500 C493 0.961 . S
H501 C493 0.960 . S
H502 C494 0.930 . S
H503 C495 0.929 . S
H504 C512 0.929 . S
H505 C514 0.930 . S
H506 C516 0.930 . S
H507 C519 0.929 . S
H508 C522 0.913 . S
H509 C524 0.960 . S
H510 C524 0.960 . S
H511 C524 0.960 . S
C512 H504 0.929 . S
C512 C513 1.377 . S
C512 C514 1.384 . S
C513 C512 1.377 . S
C513 C519 1.390 . S
C514 H505 0.930 . S
C514 C512 1.384 . S
C514 C515 1.372 . S
C515 C514 1.372 . S
C515 C516 1.400 . S
C515 C520 1.490 . S
C516 H506 0.930 . S
C516 C515 1.400 . S
C516 C519 1.386 . S
H517 C533 0.930 . S
H518 C534 0.931 . S
C519 H507 0.929 . S
C519 C513 1.390 . S
C519 C516 1.386 . S
C520 C515 1.490 . S
C520 C522 1.382 1_655 S
C520 C523 1.403 . S
H521 C527 0.930 . S
C522 H508 0.913 . S
C522 C520 1.382 1_455 S
C522 C525 1.434 . S
C523 C520 1.403 . S
C523 C524 1.524 . S
C523 C527 1.400 1_655 S
C524 H509 0.960 . S
C524 H510 0.960 . S
C524 H511 0.960 . S
C524 C523 1.524 . S
C525 C522 1.434 . S
C525 C526 1.392 . S
C525 C529 1.495 . S
C526 C525 1.392 . S
C526 C527 1.385 . S
C526 C528 1.478 . S
C527 H521 0.930 . S
C527 C523 1.400 1_455 S
C527 C526 1.385 . S
C528 C526 1.478 . S
C528 C530 1.381 . S
C528 C534 1.383 . S
C529 C525 1.495 . S
C529 H535 0.959 . S
C529 H536 0.961 . S
C529 H537 0.960 . S
C530 C528 1.381 . S
C530 C531 1.394 . S
C530 H538 0.930 . S
C531 C530 1.394 . S
C531 C532 1.383 . S
C531 H539 0.929 . S
C532 C531 1.383 . S
C532 C533 1.377 . S
C533 H517 0.930 . S
C533 C532 1.377 . S
C533 C534 1.379 . S
C534 H518 0.931 . S
C534 C528 1.383 . S
C534 C533 1.379 . S
H535 C529 0.959 . S
H536 C529 0.961 . S
H537 C529 0.960 . S
H538 C530 0.930 . S
H539 C531 0.929 . S
H540 C548 0.929 . S
H541 C550 0.930 . S
H542 C552 0.930 . S
H543 C555 0.929 . S
H544 C558 0.930 . S
H545 C560 0.960 . S
H546 C560 0.960 . S
H547 C560 0.960 . S
C548 H540 0.929 . S
C548 C549 1.377 . S
C548 C550 1.384 . S
C549 C548 1.377 . S
C549 C555 1.390 . S
C550 H541 0.930 . S
C550 C548 1.384 . S
C550 C551 1.372 . S
C551 C550 1.372 . S
C551 C552 1.400 . S
C551 C556 1.490 . S
C552 H542 0.930 . S
C552 C551 1.400 . S
C552 C555 1.386 . S
H553 C569 0.930 . S
H554 C570 0.931 . S
C555 H543 0.929 . S
C555 C549 1.390 . S
C555 C552 1.386 . S
C556 C551 1.490 . S
C556 C558 1.395 . S
C556 C559 1.403 . S
H557 C563 0.930 . S
C558 H544 0.930 . S
C558 C556 1.395 . S
C558 C561 1.403 . S
C559 C556 1.403 . S
C559 C560 1.524 . S
C559 C563 1.400 . S
C560 H545 0.960 . S
C560 H546 0.960 . S
C560 H547 0.960 . S
C560 C559 1.524 . S
C561 C558 1.403 . S
C561 C562 1.392 . S
C561 C565 1.495 . S
C562 C561 1.392 . S
C562 C563 1.385 . S
C562 C564 1.478 . S
C563 H557 0.930 . S
C563 C559 1.400 . S
C563 C562 1.385 . S
C564 C562 1.478 . S
C564 C566 1.381 . S
C564 C570 1.383 . S
C565 C561 1.495 . S
C565 H571 0.959 . S
C565 H572 0.961 . S
C565 H573 0.960 . S
C566 C564 1.381 . S
C566 C567 1.394 . S
C566 H574 0.930 . S
C567 C566 1.394 . S
C567 C568 1.383 . S
C567 H575 0.929 . S
C568 C567 1.383 . S
C568 C569 1.377 . S
C569 H553 0.930 . S
C569 C568 1.377 . S
C569 C570 1.379 . S
C570 H554 0.931 . S
C570 C564 1.383 . S
C570 C569 1.379 . S
H571 C565 0.959 . S
H572 C565 0.961 . S
H573 C565 0.960 . S
H574 C566 0.930 . S
H575 C567 0.929 . S
H576 C584 0.929 . S
H577 C586 0.930 . S
H578 C588 0.930 . S
H579 C591 0.929 . S
H580 C594 0.930 . S
H581 C596 0.960 . S
H582 C596 0.960 . S
H583 C596 0.960 . S
C584 H576 0.929 . S
C584 C585 1.377 . S
C584 C586 1.384 . S
C585 C584 1.377 . S
C585 C591 1.390 . S
C586 H577 0.930 . S
C586 C584 1.384 . S
C586 C587 1.372 . S
C587 C586 1.372 . S
C587 C588 1.400 . S
C587 C592 1.490 . S
C588 H578 0.930 . S
C588 C587 1.400 . S
C588 C591 1.386 . S
H589 C605 0.930 . S
H590 C606 0.931 . S
C591 H579 0.929 . S
C591 C585 1.390 . S
C591 C588 1.386 . S
C592 C587 1.490 . S
C592 C594 1.395 1_565 S
C592 C595 1.403 . S
H593 C599 0.946 . S
C594 H580 0.930 . S
C594 C592 1.395 1_545 S
C594 C597 1.403 . S
C595 C592 1.403 . S
C595 C596 1.524 . S
C595 C599 1.451 . S
C596 H581 0.960 . S
C596 H582 0.960 . S
C596 H583 0.960 . S
C596 C595 1.524 . S
C597 C594 1.403 . S
C597 C598 1.392 . S
C597 C601 1.495 . S
C598 C597 1.392 . S
C598 C599 1.322 1_545 S
C598 C600 1.478 . S
C599 H593 0.946 . S
C599 C595 1.451 . S
C599 C598 1.322 1_565 S
C600 C598 1.478 . S
C600 C602 1.381 . S
C600 C606 1.383 . S
C601 C597 1.495 . S
C601 H607 0.959 . S
C601 H608 0.961 . S
C601 H609 0.960 . S
C602 C600 1.381 . S
C602 C603 1.394 . S
C602 H610 0.930 . S
C603 C602 1.394 . S
C603 C604 1.383 . S
C603 H611 0.929 . S
C604 C603 1.383 . S
C604 C605 1.377 . S
C605 H589 0.930 . S
C605 C604 1.377 . S
C605 C606 1.379 . S
C606 H590 0.931 . S
C606 C600 1.383 . S
C606 C605 1.379 . S
H607 C601 0.959 . S
H608 C601 0.961 . S
H609 C601 0.960 . S
H610 C602 0.930 . S
H611 C603 0.929 . S
H612 C620 0.929 . S
H613 C622 0.930 . S
H614 C624 0.930 . S
H615 C627 0.929 . S
H616 C630 0.930 . S
H617 C632 0.960 . S
H618 C632 0.960 . S
H619 C632 0.960 . S
C620 H612 0.929 . S
C620 C621 1.377 . S
C620 C622 1.384 . S
C621 C620 1.377 . S
C621 C627 1.390 . S
C622 H613 0.930 . S
C622 C620 1.384 . S
C622 C623 1.372 . S
C623 C622 1.372 . S
C623 C624 1.400 . S
C623 C628 1.490 . S
C624 H614 0.930 . S
C624 C623 1.400 . S
C624 C627 1.386 . S
H625 C641 0.930 . S
H626 C642 0.931 . S
C627 H615 0.929 . S
C627 C621 1.390 . S
C627 C624 1.386 . S
C628 C623 1.490 . S
C628 C630 1.395 1_455 S
C628 C631 1.403 . S
H629 C635 0.944 . S
C630 H616 0.930 . S
C630 C628 1.395 1_655 S
C630 C633 1.403 . S
C631 C628 1.403 . S
C631 C632 1.524 . S
C631 C635 1.410 . S
C632 H617 0.960 . S
C632 H618 0.960 . S
C632 H619 0.960 . S
C632 C631 1.524 . S
C633 C630 1.403 . S
C633 C634 1.392 . S
C633 C637 1.495 . S
C634 C633 1.392 . S
C634 C635 1.377 1_655 S
C634 C636 1.478 . S
C635 H629 0.944 . S
C635 C631 1.410 . S
C635 C634 1.377 1_455 S
C636 C634 1.478 . S
C636 C638 1.381 . S
C636 C642 1.383 . S
C637 C633 1.495 . S
C637 H643 0.959 . S
C637 H644 0.961 . S
C637 H645 0.960 . S
C638 C636 1.381 . S
C638 C639 1.394 . S
C638 H646 0.930 . S
C639 C638 1.394 . S
C639 C640 1.383 . S
C639 H647 0.929 . S
C640 C639 1.383 . S
C640 C641 1.377 . S
C641 H625 0.930 . S
C641 C640 1.377 . S
C641 C642 1.379 . S
C642 H626 0.931 . S
C642 C636 1.383 . S
C642 C641 1.379 . S
H643 C637 0.959 . S
H644 C637 0.961 . S
H645 C637 0.960 . S
H646 C638 0.930 . S
H647 C639 0.929 . S
H648 C656 0.929 . S
H649 C658 0.930 . S
H650 C660 0.930 . S
H651 C663 0.929 . S
H652 C666 0.930 . S
H653 C668 0.960 . S
H654 C668 0.960 . S
H655 C668 0.960 . S
C656 H648 0.929 . S
C656 C657 1.377 . S
C656 C658 1.384 . S
C657 C656 1.377 . S
C657 C663 1.390 . S
C658 H649 0.930 . S
C658 C656 1.384 . S
C658 C659 1.372 . S
C659 C658 1.372 . S
C659 C660 1.400 . S
C659 C664 1.490 . S
C660 H650 0.930 . S
C660 C659 1.400 . S
C660 C663 1.386 . S
H661 C677 0.930 . S
H662 C678 0.931 . S
C663 H651 0.929 . S
C663 C657 1.390 . S
C663 C660 1.386 . S
C664 C659 1.490 . S
C664 C666 1.395 . S
C664 C667 1.403 . S
H665 C671 0.930 . S
C666 H652 0.930 . S
C666 C664 1.395 . S
C666 C669 1.403 . S
C667 C664 1.403 . S
C667 C668 1.524 . S
C667 C671 1.400 . S
C668 H653 0.960 . S
C668 H654 0.960 . S
C668 H655 0.960 . S
C668 C667 1.524 . S
C669 C666 1.403 . S
C669 C670 1.392 . S
C669 C673 1.495 . S
C670 C669 1.392 . S
C670 C671 1.385 . S
C670 C672 1.478 . S
C671 H665 0.930 . S
C671 C667 1.400 . S
C671 C670 1.385 . S
C672 C670 1.478 . S
C672 C674 1.381 . S
C672 C678 1.383 . S
C673 C669 1.495 . S
C673 H679 0.959 . S
C673 H680 0.961 . S
C673 H681 0.960 . S
C674 C672 1.381 . S
C674 C675 1.394 . S
C674 H682 0.930 . S
C675 C674 1.394 . S
C675 C676 1.383 . S
C675 H683 0.929 . S
C676 C675 1.383 . S
C676 C677 1.377 . S
C677 H661 0.930 . S
C677 C676 1.377 . S
C677 C678 1.379 . S
C678 H662 0.931 . S
C678 C672 1.383 . S
C678 C677 1.379 . S
H679 C673 0.959 . S
H680 C673 0.961 . S
H681 C673 0.960 . S
H682 C674 0.930 . S
H683 C675 0.929 . S
H684 C692 0.929 . S
H685 C694 0.930 . S
H686 C696 0.930 . S
H687 C699 0.929 . S
H688 C702 0.930 . S
H689 C704 0.960 . S
H690 C704 0.960 . S
H691 C704 0.960 . S
C692 H684 0.929 . S
C692 C693 1.377 . S
C692 C694 1.384 . S
C693 C692 1.377 . S
C693 C699 1.390 . S
C694 H685 0.930 . S
C694 C692 1.384 . S
C694 C695 1.372 . S
C695 C694 1.372 . S
C695 C696 1.400 . S
C695 C700 1.490 . S
C696 H686 0.930 . S
C696 C695 1.400 . S
C696 C699 1.386 . S
H697 C713 0.930 . S
H698 C714 0.931 . S
C699 H687 0.929 . S
C699 C693 1.390 . S
C699 C696 1.386 . S
C700 C695 1.490 . S
C700 C702 1.395 . S
C700 C703 1.403 . S
H701 C707 0.930 . S
C702 H688 0.930 . S
C702 C700 1.395 . S
C702 C705 1.403 . S
C703 C700 1.403 . S
C703 C704 1.524 . S
C703 C707 1.400 . S
C704 H689 0.960 . S
C704 H690 0.960 . S
C704 H691 0.960 . S
C704 C703 1.524 . S
C705 C702 1.403 . S
C705 C706 1.392 . S
C705 C709 1.495 . S
C706 C705 1.392 . S
C706 C707 1.385 . S
C706 C708 1.478 . S
C707 H701 0.930 . S
C707 C703 1.400 . S
C707 C706 1.385 . S
C708 C706 1.478 . S
C708 C710 1.381 . S
C708 C714 1.383 . S
C709 C705 1.495 . S
C709 H715 0.959 . S
C709 H716 0.961 . S
C709 H717 0.960 . S
C710 C708 1.381 . S
C710 C711 1.394 . S
C710 H718 0.930 . S
C711 C710 1.394 . S
C711 C712 1.383 . S
C711 H719 0.929 . S
C712 C711 1.383 . S
C712 C713 1.377 . S
C713 H697 0.930 . S
C713 C712 1.377 . S
C713 C714 1.379 . S
C714 H698 0.931 . S
C714 C708 1.383 . S
C714 C713 1.379 . S
H715 C709 0.959 . S
H716 C709 0.961 . S
H717 C709 0.960 . S
H718 C710 0.930 . S
H719 C711 0.929 . S
H720 C728 0.929 . S
H721 C730 0.930 . S
H722 C732 0.930 . S
H723 C735 0.929 . S
H724 C738 0.930 . S
H725 C740 0.960 . S
H726 C740 0.960 . S
H727 C740 0.960 . S
C728 H720 0.929 . S
C728 C729 1.377 . S
C728 C730 1.384 . S
C729 C728 1.377 . S
C729 C735 1.390 . S
C730 H721 0.930 . S
C730 C728 1.384 . S
C730 C731 1.372 . S
C731 C730 1.372 . S
C731 C732 1.400 . S
C731 C736 1.490 . S
C732 H722 0.930 . S
C732 C731 1.400 . S
C732 C735 1.386 . S
H733 C749 0.930 . S
H734 C750 0.931 . S
C735 H723 0.929 . S
C735 C729 1.390 . S
C735 C732 1.386 . S
C736 C731 1.490 . S
C736 C738 1.395 . S
C736 C739 1.403 . S
H737 C743 0.930 . S
C738 H724 0.930 . S
C738 C736 1.395 . S
C738 C741 1.403 . S
C739 C736 1.403 . S
C739 C740 1.524 . S
C739 C743 1.400 . S
C740 H725 0.960 . S
C740 H726 0.960 . S
C740 H727 0.960 . S
C740 C739 1.524 . S
C741 C738 1.403 . S
C741 C742 1.392 . S
C741 C745 1.495 . S
C742 C741 1.392 . S
C742 C743 1.385 . S
C742 C744 1.478 . S
C743 H737 0.930 . S
C743 C739 1.400 . S
C743 C742 1.385 . S
C744 C742 1.478 . S
C744 C746 1.381 . S
C744 C750 1.383 . S
C745 C741 1.495 . S
C745 H751 0.959 . S
C745 H752 0.961 . S
C745 H753 0.960 . S
C746 C744 1.381 . S
C746 C747 1.394 . S
C746 H754 0.930 . S
C747 C746 1.394 . S
C747 C748 1.383 . S
C747 H755 0.929 . S
C748 C747 1.383 . S
C748 C749 1.377 . S
C749 H733 0.930 . S
C749 C748 1.377 . S
C749 C750 1.379 . S
C750 H734 0.931 . S
C750 C744 1.383 . S
C750 C749 1.379 . S
H751 C745 0.959 . S
H752 C745 0.961 . S
H753 C745 0.960 . S
H754 C746 0.930 . S
H755 C747 0.929 . S
H756 C764 0.929 . S
H757 C766 0.930 . S
H758 C768 0.930 . S
H759 C771 0.929 . S
H760 C774 0.930 . S
H761 C776 0.960 . S
H762 C776 0.960 . S
H763 C776 0.960 . S
C764 H756 0.929 . S
C764 C765 1.377 . S
C764 C766 1.384 . S
C765 C764 1.377 . S
C765 C771 1.390 . S
C766 H757 0.930 . S
C766 C764 1.384 . S
C766 C767 1.372 . S
C767 C766 1.372 . S
C767 C768 1.400 . S
C767 C772 1.490 . S
C768 H758 0.930 . S
C768 C767 1.400 . S
C768 C771 1.386 . S
H769 C785 0.930 . S
H770 C786 0.931 . S
C771 H759 0.929 . S
C771 C765 1.390 . S
C771 C768 1.386 . S
C772 C767 1.490 . S
C772 C774 1.395 . S
C772 C775 1.403 . S
H773 C779 0.930 . S
C774 H760 0.930 . S
C774 C772 1.395 . S
C774 C777 1.403 . S
C775 C772 1.403 . S
C775 C776 1.524 . S
C775 C779 1.400 . S
C776 H761 0.960 . S
C776 H762 0.960 . S
C776 H763 0.960 . S
C776 C775 1.524 . S
C777 C774 1.403 . S
C777 C778 1.392 . S
C777 C781 1.495 . S
C778 C777 1.392 . S
C778 C779 1.385 . S
C778 C780 1.478 . S
C779 H773 0.930 . S
C779 C775 1.400 . S
C779 C778 1.385 . S
C780 C778 1.478 . S
C780 C782 1.381 . S
C780 C786 1.383 . S
C781 C777 1.495 . S
C781 H787 0.959 . S
C781 H788 0.961 . S
C781 H789 0.960 . S
C782 C780 1.381 . S
C782 C783 1.394 . S
C782 H790 0.930 . S
C783 C782 1.394 . S
C783 C784 1.383 . S
C783 H791 0.929 . S
C784 C783 1.383 . S
C784 C785 1.377 . S
C785 H769 0.930 . S
C785 C784 1.377 . S
C785 C786 1.379 . S
C786 H770 0.931 . S
C786 C780 1.383 . S
C786 C785 1.379 . S
H787 C781 0.959 . S
H788 C781 0.961 . S
H789 C781 0.960 . S
H790 C782 0.930 . S
H791 C783 0.929 . S
H792 C800 0.929 . S
H793 C802 0.930 . S
H794 C804 0.930 . S
H795 C807 0.929 . S
H796 C810 0.930 . S
H797 C812 0.960 . S
H798 C812 0.960 . S
H799 C812 0.960 . S
C800 H792 0.929 . S
C800 C801 1.377 . S
C800 C802 1.384 . S
C801 C800 1.377 . S
C801 C807 1.390 . S
C802 H793 0.930 . S
C802 C800 1.384 . S
C802 C803 1.372 . S
C803 C802 1.372 . S
C803 C804 1.400 . S
C803 C808 1.490 . S
C804 H794 0.930 . S
C804 C803 1.400 . S
C804 C807 1.386 . S
H805 C821 0.930 . S
H806 C822 0.931 . S
C807 H795 0.929 . S
C807 C801 1.390 . S
C807 C804 1.386 . S
C808 C803 1.490 . S
C808 C810 1.395 . S
C808 C811 1.403 . S
H809 C815 0.930 . S
C810 H796 0.930 . S
C810 C808 1.395 . S
C810 C813 1.403 . S
C811 C808 1.403 . S
C811 C812 1.524 . S
C811 C815 1.400 . S
C812 H797 0.960 . S
C812 H798 0.960 . S
C812 H799 0.960 . S
C812 C811 1.524 . S
C813 C810 1.403 . S
C813 C814 1.392 . S
C813 C817 1.495 . S
C814 C813 1.392 . S
C814 C815 1.385 . S
C814 C816 1.478 . S
C815 H809 0.930 . S
C815 C811 1.400 . S
C815 C814 1.385 . S
C816 C814 1.478 . S
C816 C818 1.381 1_554 S
C816 C822 1.383 . S
C817 C813 1.495 . S
C817 H823 0.959 . S
C817 H824 0.961 . S
C817 H825 0.960 . S
C818 C816 1.381 1_556 S
C818 C819 1.394 . S
C818 H826 0.930 . S
C819 C818 1.394 . S
C819 C820 1.383 . S
C819 H827 0.929 . S
C820 C819 1.383 . S
C820 C821 1.377 . S
C821 H805 0.930 . S
C821 C820 1.377 . S
C821 C822 1.379 1_556 S
C822 H806 0.931 . S
C822 C816 1.383 . S
C822 C821 1.379 1_554 S
H823 C817 0.959 . S
H824 C817 0.961 . S
H825 C817 0.960 . S
H826 C818 0.930 . S
H827 C819 0.929 . S
H828 C836 0.929 . S
H829 C838 0.930 . S
H830 C840 0.930 . S
H831 C843 0.929 . S
H832 C846 0.930 . S
H833 C848 0.960 . S
H834 C848 0.960 . S
H835 C848 0.960 . S
C836 H828 0.929 . S
C836 C837 1.377 . S
C836 C838 1.384 . S
C837 C836 1.377 . S
C837 C843 1.390 . S
C838 H829 0.930 . S
C838 C836 1.384 . S
C838 C839 1.372 . S
C839 C838 1.372 . S
C839 C840 1.400 . S
C839 C844 1.490 . S
C840 H830 0.930 . S
C840 C839 1.400 . S
C840 C843 1.386 . S
H841 C857 0.930 . S
H842 C858 0.931 . S
C843 H831 0.929 . S
C843 C837 1.390 . S
C843 C840 1.386 . S
C844 C839 1.490 . S
C844 C846 1.395 . S
C844 C847 1.403 . S
H845 C851 0.930 . S
C846 H832 0.930 . S
C846 C844 1.395 . S
C846 C849 1.403 . S
C847 C844 1.403 . S
C847 C848 1.524 . S
C847 C851 1.400 . S
C848 H833 0.960 . S
C848 H834 0.960 . S
C848 H835 0.960 . S
C848 C847 1.524 . S
C849 C846 1.403 . S
C849 C850 1.392 . S
C849 C853 1.495 1_554 S
C850 C849 1.392 . S
C850 C851 1.385 . S
C850 C852 1.478 . S
C851 H845 0.930 . S
C851 C847 1.400 . S
C851 C850 1.385 . S
C852 C850 1.478 . S
C852 C854 1.381 1_554 S
C852 C858 1.383 . S
C853 C849 1.495 1_556 S
C853 H859 0.959 . S
C853 H860 0.961 . S
C853 H861 0.960 . S
C854 C852 1.381 1_556 S
C854 C855 1.394 . S
C854 H862 0.930 . S
C855 C854 1.394 . S
C855 C856 1.383 . S
C855 H863 0.929 . S
C856 C855 1.383 . S
C856 C857 1.377 . S
C857 H841 0.930 . S
C857 C856 1.377 . S
C857 C858 1.379 1_556 S
C858 H842 0.931 . S
C858 C852 1.383 . S
C858 C857 1.379 1_554 S
H859 C853 0.959 . S
H860 C853 0.961 . S
H861 C853 0.960 . S
H862 C854 0.930 . S
H863 C855 0.929 . S
H864 C872 0.929 . S
H865 C874 0.930 . S
H866 C876 0.930 . S
H867 C879 0.929 . S
H868 C882 0.930 . S
H869 C884 0.960 . S
H870 C884 0.960 . S
H871 C884 0.960 . S
C872 H864 0.929 . S
C872 C873 1.377 . S
C872 C874 1.384 . S
C873 C872 1.377 . S
C873 C879 1.390 . S
C874 H865 0.930 . S
C874 C872 1.384 . S
C874 C875 1.372 . S
C875 C874 1.372 . S
C875 C876 1.400 . S
C875 C880 1.490 . S
C876 H866 0.930 . S
C876 C875 1.400 . S
C876 C879 1.386 . S
H877 C893 0.930 . S
H878 C894 0.931 . S
C879 H867 0.929 . S
C879 C873 1.390 . S
C879 C876 1.386 . S
C880 C875 1.490 . S
C880 C882 1.395 . S
C880 C883 1.403 . S
H881 C887 0.930 . S
C882 H868 0.930 . S
C882 C880 1.395 . S
C882 C885 1.403 . S
C883 C880 1.403 . S
C883 C884 1.524 . S
C883 C887 1.400 . S
C884 H869 0.960 . S
C884 H870 0.960 . S
C884 H871 0.960 . S
C884 C883 1.524 . S
C885 C882 1.403 . S
C885 C886 1.392 . S
C885 C889 1.495 . S
C886 C885 1.392 . S
C886 C887 1.385 . S
C886 C888 1.478 . S
C887 H881 0.930 . S
C887 C883 1.400 . S
C887 C886 1.385 . S
C888 C886 1.478 . S
C888 C890 1.381 1_554 S
C888 C894 1.383 . S
C889 C885 1.495 . S
C889 H895 0.959 . S
C889 H896 0.961 . S
C889 H897 0.960 . S
C890 C888 1.381 1_556 S
C890 C891 1.394 . S
C890 H898 0.930 . S
C891 C890 1.394 . S
C891 C892 1.383 . S
C891 H899 0.929 . S
C892 C891 1.383 . S
C892 C893 1.377 . S
C893 H877 0.930 . S
C893 C892 1.377 . S
C893 C894 1.379 1_556 S
C894 H878 0.931 . S
C894 C888 1.383 . S
C894 C893 1.379 1_554 S
H895 C889 0.959 . S
H896 C889 0.961 . S
H897 C889 0.960 . S
H898 C890 0.930 . S
H899 C891 0.929 . S
H900 C908 0.929 . S
H901 C910 0.930 . S
H902 C912 0.930 . S
H903 C915 0.929 . S
H904 C918 0.930 . S
H905 C920 0.960 . S
H906 C920 0.960 . S
H907 C920 0.960 . S
C908 H900 0.929 . S
C908 C909 1.377 . S
C908 C910 1.384 . S
C909 C908 1.377 . S
C909 C915 1.390 . S
C910 H901 0.930 . S
C910 C908 1.384 . S
C910 C911 1.372 . S
C911 C910 1.372 . S
C911 C912 1.400 . S
C911 C916 1.490 . S
C912 H902 0.930 . S
C912 C911 1.400 . S
C912 C915 1.386 . S
H913 C929 0.930 . S
H914 C930 0.931 . S
C915 H903 0.929 . S
C915 C909 1.390 . S
C915 C912 1.386 . S
C916 C911 1.490 . S
C916 C918 1.395 . S
C916 C919 1.403 . S
H917 C923 0.930 . S
C918 H904 0.930 . S
C918 C916 1.395 . S
C918 C921 1.403 . S
C919 C916 1.403 . S
C919 C920 1.524 . S
C919 C923 1.400 . S
C920 H905 0.960 . S
C920 H906 0.960 . S
C920 H907 0.960 . S
C920 C919 1.524 . S
C921 C918 1.403 . S
C921 C922 1.392 . S
C921 C925 1.495 1_556 S
C922 C921 1.392 . S
C922 C923 1.385 . S
C922 C924 1.478 . S
C923 H917 0.930 . S
C923 C919 1.400 . S
C923 C922 1.385 . S
C924 C922 1.478 . S
C924 C926 1.381 1_556 S
C924 C930 1.383 . S
C925 C921 1.495 1_554 S
C925 H931 0.959 . S
C925 H932 0.961 . S
C925 H933 0.960 . S
C926 C924 1.381 1_554 S
C926 C927 1.394 . S
C926 H934 0.930 . S
C927 C926 1.394 . S
C927 C928 1.383 . S
C927 H935 0.929 . S
C928 C927 1.383 . S
C928 C929 1.377 . S
C929 H913 0.930 . S
C929 C928 1.377 . S
C929 C930 1.379 1_554 S
C930 H914 0.931 . S
C930 C924 1.383 . S
C930 C929 1.379 1_556 S
H931 C925 0.959 . S
H932 C925 0.961 . S
H933 C925 0.960 . S
H934 C926 0.930 . S
H935 C927 0.929 . S
H936 C944 0.929 . S
H937 C946 0.930 . S
H938 C948 0.920 1_556 S
H939 C951 0.929 . S
H940 C954 0.930 1_554 S
H941 C956 0.960 . S
H942 C956 0.960 . S
H943 C956 0.960 . S
C944 H936 0.929 . S
C944 C945 1.377 . S
C944 C946 1.384 . S
C945 C944 1.377 . S
C945 C951 1.390 . S
C946 H937 0.930 . S
C946 C944 1.384 . S
C946 C947 1.372 1_554 S
C947 C946 1.372 1_556 S
C947 C948 1.396 1_556 S
C947 C952 1.490 . S
C948 H938 0.920 1_554 S
C948 C947 1.396 1_554 S
C948 C951 1.399 . S
H949 C965 0.930 . S
H950 C966 0.931 . S
C951 H939 0.929 . S
C951 C945 1.390 . S
C951 C948 1.399 . S
C952 C947 1.490 . S
C952 C954 1.395 . S
C952 C955 1.403 . S
H953 C959 0.930 . S
C954 H940 0.930 1_556 S
C954 C952 1.395 . S
C954 C957 1.403 . S
C955 C952 1.403 . S
C955 C956 1.524 . S
C955 C959 1.400 . S
C956 H941 0.960 . S
C956 H942 0.960 . S
C956 H943 0.960 . S
C956 C955 1.524 . S
C957 C954 1.403 . S
C957 C958 1.392 . S
C957 C961 1.495 . S
C958 C957 1.392 . S
C958 C959 1.385 . S
C958 C960 1.478 . S
C959 H953 0.930 . S
C959 C955 1.400 . S
C959 C958 1.385 . S
C960 C958 1.478 . S
C960 C962 1.381 . S
C960 C966 1.383 . S
C961 C957 1.495 . S
C961 H967 0.959 . S
C961 H968 0.961 . S
C961 H969 0.960 . S
C962 C960 1.381 . S
C962 C963 1.394 . S
C962 H970 0.930 . S
C963 C962 1.394 . S
C963 C964 1.383 . S
C963 H971 0.929 . S
C964 C963 1.383 . S
C964 C965 1.377 . S
C965 H949 0.930 . S
C965 C964 1.377 . S
C965 C966 1.379 . S
C966 H950 0.931 . S
C966 C960 1.383 . S
C966 C965 1.379 . S
H967 C961 0.959 . S
H968 C961 0.961 . S
H969 C961 0.960 . S
H970 C962 0.930 . S
H971 C963 0.929 . S
H972 C980 0.929 . S
H973 C982 0.930 . S
H974 C984 0.930 . S
H975 C987 0.929 . S
H976 C990 0.930 . S
H977 C992 0.960 . S
H978 C992 0.960 . S
H979 C992 0.960 . S
C980 H972 0.929 . S
C980 C981 1.377 . S
C980 C982 1.384 . S
C981 C980 1.377 . S
C981 C987 1.390 . S
C982 H973 0.930 . S
C982 C980 1.384 . S
C982 C983 1.372 . S
C983 C982 1.372 . S
C983 C984 1.400 . S
C983 C988 1.490 . S
C984 H974 0.930 . S
C984 C983 1.400 . S
C984 C987 1.386 . S
H985 C1001 0.930 . S
H986 C1002 0.931 . S
C987 H975 0.929 . S
C987 C981 1.390 . S
C987 C984 1.386 . S
C988 C983 1.490 . S
C988 C990 1.395 . S
C988 C991 1.403 . S
H989 C995 0.930 . S
C990 H976 0.930 . S
C990 C988 1.395 . S
C990 C993 1.403 . S
C991 C988 1.403 . S
C991 C992 1.524 . S
C991 C995 1.400 . S
C992 H977 0.960 . S
C992 H978 0.960 . S
C992 H979 0.960 . S
C992 C991 1.524 . S
C993 C990 1.403 . S
C993 C994 1.392 . S
C993 C997 1.495 . S
C994 C993 1.392 . S
C994 C995 1.385 . S
C994 C996 1.478 . S
C995 H989 0.930 . S
C995 C991 1.400 . S
C995 C994 1.385 . S
C996 C994 1.478 . S
C996 C998 1.381 1_556 S
C996 C1002 1.383 . S
C997 C993 1.495 . S
C997 H1003 0.959 . S
C997 H1004 0.961 . S
C997 H1005 0.960 . S
C998 C996 1.381 1_554 S
C998 C999 1.394 . S
C998 H1006 0.930 . S
C999 C998 1.394 . S
C999 C1000 1.383 . S
C999 H1007 0.929 . S
C1000 C999 1.383 . S
C1000 C1001 1.377 . S
C1001 H985 0.930 . S
C1001 C1000 1.377 . S
C1001 C1002 1.379 1_554 S
C1002 H986 0.931 . S
C1002 C996 1.383 . S
C1002 C1001 1.379 1_556 S
H1003 C997 0.959 . S
H1004 C997 0.961 . S
H1005 C997 0.960 . S
H1006 C998 0.930 . S
H1007 C999 0.929 . S
H1008 C1016 0.929 . S
H1009 C1018 0.930 . S
H1010 C1020 0.930 . S
H1011 C1023 0.929 . S
H1012 C1026 0.930 . S
H1013 C1028 0.960 . S
H1014 C1028 0.960 . S
H1015 C1028 0.960 . S
C1016 H1008 0.929 . S
C1016 C1017 1.377 . S
C1016 C1018 1.384 . S
C1017 C1016 1.377 . S
C1017 C1023 1.390 . S
C1018 H1009 0.930 . S
C1018 C1016 1.384 . S
C1018 C1019 1.372 . S
C1019 C1018 1.372 . S
C1019 C1020 1.400 . S
C1019 C1024 1.490 . S
C1020 H1010 0.930 . S
C1020 C1019 1.400 . S
C1020 C1023 1.386 . S
H1021 C1037 0.930 . S
H1022 C1038 0.931 . S
C1023 H1011 0.929 . S
C1023 C1017 1.390 . S
C1023 C1020 1.386 . S
C1024 C1019 1.490 . S
C1024 C1026 1.395 . S
C1024 C1027 1.403 . S
H1025 C1031 0.930 . S
C1026 H1012 0.930 . S
C1026 C1024 1.395 . S
C1026 C1029 1.403 . S
C1027 C1024 1.403 . S
C1027 C1028 1.524 . S
C1027 C1031 1.400 . S
C1028 H1013 0.960 . S
C1028 H1014 0.960 . S
C1028 H1015 0.960 . S
C1028 C1027 1.524 . S
C1029 C1026 1.403 . S
C1029 C1030 1.392 . S
C1029 C1033 1.495 . S
C1030 C1029 1.392 . S
C1030 C1031 1.385 . S
C1030 C1032 1.478 . S
C1031 H1025 0.930 . S
C1031 C1027 1.400 . S
C1031 C1030 1.385 . S
C1032 C1030 1.478 . S
C1032 C1034 1.381 . S
C1032 C1038 1.383 . S
C1033 C1029 1.495 . S
C1033 H1039 0.959 . S
C1033 H1040 0.961 . S
C1033 H1041 0.960 . S
C1034 C1032 1.381 . S
C1034 C1035 1.394 . S
C1034 H1042 0.930 . S
C1035 C1034 1.394 . S
C1035 C1036 1.383 . S
C1035 H1043 0.929 . S
C1036 C1035 1.383 . S
C1036 C1037 1.377 . S
C1037 H1021 0.930 . S
C1037 C1036 1.377 . S
C1037 C1038 1.379 . S
C1038 H1022 0.931 . S
C1038 C1032 1.383 . S
C1038 C1037 1.379 . S
H1039 C1033 0.959 . S
H1040 C1033 0.961 . S
H1041 C1033 0.960 . S
H1042 C1034 0.930 . S
H1043 C1035 0.929 . S
H1044 C1052 0.929 . S
H1045 C1054 0.930 . S
H1046 C1056 0.930 . S
H1047 C1059 0.929 . S
H1048 C1062 0.930 . S
H1049 C1064 0.960 . S
H1050 C1064 0.960 . S
H1051 C1064 0.960 . S
C1052 H1044 0.929 . S
C1052 C1053 1.377 . S
C1052 C1054 1.384 . S
C1053 C1052 1.377 . S
C1053 C1059 1.390 . S
C1054 H1045 0.930 . S
C1054 C1052 1.384 . S
C1054 C1055 1.372 . S
C1055 C1054 1.372 . S
C1055 C1056 1.400 . S
C1055 C1060 1.490 . S
C1056 H1046 0.930 . S
C1056 C1055 1.400 . S
C1056 C1059 1.386 . S
H1057 C1073 0.930 . S
H1058 C1074 0.931 . S
C1059 H1047 0.929 . S
C1059 C1053 1.390 . S
C1059 C1056 1.386 . S
C1060 C1055 1.490 . S
C1060 C1062 1.395 . S
C1060 C1063 1.403 . S
H1061 C1067 0.930 . S
C1062 H1048 0.930 . S
C1062 C1060 1.395 . S
C1062 C1065 1.403 . S
C1063 C1060 1.403 . S
C1063 C1064 1.524 . S
C1063 C1067 1.400 . S
C1064 H1049 0.960 . S
C1064 H1050 0.960 . S
C1064 H1051 0.960 . S
C1064 C1063 1.524 . S
C1065 C1062 1.403 . S
C1065 C1066 1.392 . S
C1065 C1069 1.495 . S
C1066 C1065 1.392 . S
C1066 C1067 1.385 . S
C1066 C1068 1.478 . S
C1067 H1061 0.930 . S
C1067 C1063 1.400 . S
C1067 C1066 1.385 . S
C1068 C1066 1.478 . S
C1068 C1070 1.381 . S
C1068 C1074 1.383 . S
C1069 C1065 1.495 . S
C1069 H1075 0.959 . S
C1069 H1076 0.961 . S
C1069 H1077 0.960 . S
C1070 C1068 1.381 . S
C1070 C1071 1.394 . S
C1070 H1078 0.930 . S
C1071 C1070 1.394 . S
C1071 C1072 1.383 . S
C1071 H1079 0.929 . S
C1072 C1071 1.383 . S
C1072 C1073 1.377 . S
C1073 H1057 0.930 . S
C1073 C1072 1.377 . S
C1073 C1074 1.379 . S
C1074 H1058 0.931 . S
C1074 C1068 1.383 . S
C1074 C1073 1.379 . S
H1075 C1069 0.959 . S
H1076 C1069 0.961 . S
H1077 C1069 0.960 . S
H1078 C1070 0.930 . S
H1079 C1071 0.929 . S
H1080 C1088 0.929 . S
H1081 C1090 0.930 . S
H1082 C1092 0.930 . S
H1083 C1095 0.929 . S
H1084 C1098 0.930 . S
H1085 C1100 0.960 . S
H1086 C1100 0.960 . S
H1087 C1100 0.960 . S
C1088 H1080 0.929 . S
C1088 C1089 1.377 . S
C1088 C1090 1.384 . S
C1089 C1088 1.377 . S
C1089 C1095 1.390 . S
C1090 H1081 0.930 . S
C1090 C1088 1.384 . S
C1090 C1091 1.372 . S
C1091 C1090 1.372 . S
C1091 C1092 1.400 . S
C1091 C1096 1.490 . S
C1092 H1082 0.930 . S
C1092 C1091 1.400 . S
C1092 C1095 1.386 . S
H1093 C1109 0.930 . S
H1094 C1110 0.931 . S
C1095 H1083 0.929 . S
C1095 C1089 1.390 . S
C1095 C1092 1.386 . S
C1096 C1091 1.490 . S
C1096 C1098 1.395 . S
C1096 C1099 1.403 . S
H1097 C1103 0.930 . S
C1098 H1084 0.930 . S
C1098 C1096 1.395 . S
C1098 C1101 1.403 . S
C1099 C1096 1.403 . S
C1099 C1100 1.524 . S
C1099 C1103 1.400 . S
C1100 H1085 0.960 . S
C1100 H1086 0.960 . S
C1100 H1087 0.960 . S
C1100 C1099 1.524 . S
C1101 C1098 1.403 . S
C1101 C1102 1.392 . S
C1101 C1105 1.495 . S
C1102 C1101 1.392 . S
C1102 C1103 1.385 . S
C1102 C1104 1.478 . S
C1103 H1097 0.930 . S
C1103 C1099 1.400 . S
C1103 C1102 1.385 . S
C1104 C1102 1.478 . S
C1104 C1106 1.381 . S
C1104 C1110 1.383 . S
C1105 C1101 1.495 . S
C1105 H1111 0.959 . S
C1105 H1112 0.961 . S
C1105 H1113 0.960 . S
C1106 C1104 1.381 . S
C1106 C1107 1.394 . S
C1106 H1114 0.930 . S
C1107 C1106 1.394 . S
C1107 C1108 1.383 . S
C1107 H1115 0.929 . S
C1108 C1107 1.383 . S
C1108 C1109 1.377 . S
C1109 H1093 0.930 . S
C1109 C1108 1.377 . S
C1109 C1110 1.379 . S
C1110 H1094 0.931 . S
C1110 C1104 1.383 . S
C1110 C1109 1.379 . S
H1111 C1105 0.959 . S
H1112 C1105 0.961 . S
H1113 C1105 0.960 . S
H1114 C1106 0.930 . S
H1115 C1107 0.929 . S
H1116 C1124 0.929 . S
H1117 C1126 0.930 . S
H1118 C1128 0.930 . S
H1119 C1131 0.929 . S
H1120 C1134 0.930 . S
H1121 C1136 0.960 . S
H1122 C1136 0.960 . S
H1123 C1136 0.960 . S
C1124 H1116 0.929 . S
C1124 C1125 1.377 . S
C1124 C1126 1.384 . S
C1125 C1124 1.377 . S
C1125 C1131 1.390 . S
C1126 H1117 0.930 . S
C1126 C1124 1.384 . S
C1126 C1127 1.372 . S
C1127 C1126 1.372 . S
C1127 C1128 1.400 . S
C1127 C1132 1.490 . S
C1128 H1118 0.930 . S
C1128 C1127 1.400 . S
C1128 C1131 1.386 . S
H1129 C1145 0.930 . S
H1130 C1146 0.931 . S
C1131 H1119 0.929 . S
C1131 C1125 1.390 . S
C1131 C1128 1.386 . S
C1132 C1127 1.490 . S
C1132 C1134 1.395 . S
C1132 C1135 1.403 . S
H1133 C1139 0.930 . S
C1134 H1120 0.930 . S
C1134 C1132 1.395 . S
C1134 C1137 1.403 . S
C1135 C1132 1.403 . S
C1135 C1136 1.524 . S
C1135 C1139 1.400 . S
C1136 H1121 0.960 . S
C1136 H1122 0.960 . S
C1136 H1123 0.960 . S
C1136 C1135 1.524 . S
C1137 C1134 1.403 . S
C1137 C1138 1.392 . S
C1137 C1141 1.495 . S
C1138 C1137 1.392 . S
C1138 C1139 1.385 . S
C1138 C1140 1.478 . S
C1139 H1133 0.930 . S
C1139 C1135 1.400 . S
C1139 C1138 1.385 . S
C1140 C1138 1.478 . S
C1140 C1142 1.381 . S
C1140 C1146 1.383 . S
C1141 C1137 1.495 . S
C1141 H1147 0.959 . S
C1141 H1148 0.961 . S
C1141 H1149 0.960 . S
C1142 C1140 1.381 . S
C1142 C1143 1.394 . S
C1142 H1150 0.930 . S
C1143 C1142 1.394 . S
C1143 C1144 1.383 . S
C1143 H1151 0.929 . S
C1144 C1143 1.383 . S
C1144 C1145 1.377 . S
C1145 H1129 0.930 . S
C1145 C1144 1.377 . S
C1145 C1146 1.379 . S
C1146 H1130 0.931 . S
C1146 C1140 1.383 . S
C1146 C1145 1.379 . S
H1147 C1141 0.959 . S
H1148 C1141 0.961 . S
H1149 C1141 0.960 . S
H1150 C1142 0.930 . S
H1151 C1143 0.929 . S
H1152 C1160 0.929 . S
H1153 C1162 0.930 . S
H1154 C1164 0.930 . S
H1155 C1167 0.929 . S
H1156 C1170 0.930 . S
H1157 C1172 0.960 . S
H1158 C1172 0.960 . S
H1159 C1172 0.960 . S
C1160 H1152 0.929 . S
C1160 C1161 1.377 . S
C1160 C1162 1.384 . S
C1161 C1160 1.377 . S
C1161 C1167 1.390 . S
C1162 H1153 0.930 . S
C1162 C1160 1.384 . S
C1162 C1163 1.372 . S
C1163 C1162 1.372 . S
C1163 C1164 1.400 . S
C1163 C1168 1.490 . S
C1164 H1154 0.930 . S
C1164 C1163 1.400 . S
C1164 C1167 1.386 . S
H1165 C1181 0.930 . S
H1166 C1182 0.931 . S
C1167 H1155 0.929 . S
C1167 C1161 1.390 . S
C1167 C1164 1.386 . S
C1168 C1163 1.490 . S
C1168 C1170 1.395 . S
C1168 C1171 1.403 . S
H1169 C1175 0.930 . S
C1170 H1156 0.930 . S
C1170 C1168 1.395 . S
C1170 C1173 1.403 . S
C1171 C1168 1.403 . S
C1171 C1172 1.524 . S
C1171 C1175 1.400 . S
C1172 H1157 0.960 . S
C1172 H1158 0.960 . S
C1172 H1159 0.960 . S
C1172 C1171 1.524 . S
C1173 C1170 1.403 . S
C1173 C1174 1.392 . S
C1173 C1177 1.495 . S
C1174 C1173 1.392 . S
C1174 C1175 1.385 . S
C1174 C1176 1.478 . S
C1175 H1169 0.930 . S
C1175 C1171 1.400 . S
C1175 C1174 1.385 . S
C1176 C1174 1.478 . S
C1176 C1178 1.381 . S
C1176 C1182 1.383 . S
C1177 C1173 1.495 . S
C1177 H1183 0.959 . S
C1177 H1184 0.961 . S
C1177 H1185 0.960 . S
C1178 C1176 1.381 . S
C1178 C1179 1.394 . S
C1178 H1186 0.930 . S
C1179 C1178 1.394 . S
C1179 C1180 1.383 . S
C1179 H1187 0.929 . S
C1180 C1179 1.383 . S
C1180 C1181 1.377 . S
C1181 H1165 0.930 . S
C1181 C1180 1.377 . S
C1181 C1182 1.379 . S
C1182 H1166 0.931 . S
C1182 C1176 1.383 . S
C1182 C1181 1.379 . S
H1183 C1177 0.959 . S
H1184 C1177 0.961 . S
H1185 C1177 0.960 . S
H1186 C1178 0.930 . S
H1187 C1179 0.929 . S
H1188 C1196 0.929 . S
H1189 C1198 0.930 . S
H1190 C1200 0.930 . S
H1191 C1203 0.929 . S
H1192 C1206 0.930 . S
H1193 C1208 0.960 . S
H1194 C1208 0.960 . S
H1195 C1208 0.960 . S
C1196 H1188 0.929 . S
C1196 C1197 1.377 . S
C1196 C1198 1.384 . S
C1197 C1196 1.377 . S
C1197 C1203 1.390 . S
C1198 H1189 0.930 . S
C1198 C1196 1.384 . S
C1198 C1199 1.372 . S
C1199 C1198 1.372 . S
C1199 C1200 1.400 . S
C1199 C1204 1.490 . S
C1200 H1190 0.930 . S
C1200 C1199 1.400 . S
C1200 C1203 1.386 . S
H1201 C1217 0.930 . S
H1202 C1218 0.931 . S
C1203 H1191 0.929 . S
C1203 C1197 1.390 . S
C1203 C1200 1.386 . S
C1204 C1199 1.490 . S
C1204 C1206 1.395 . S
C1204 C1207 1.403 . S
H1205 C1211 0.930 . S
C1206 H1192 0.930 . S
C1206 C1204 1.395 . S
C1206 C1209 1.403 . S
C1207 C1204 1.403 . S
C1207 C1208 1.524 . S
C1207 C1211 1.400 . S
C1208 H1193 0.960 . S
C1208 H1194 0.960 . S
C1208 H1195 0.960 . S
C1208 C1207 1.524 . S
C1209 C1206 1.403 . S
C1209 C1210 1.392 . S
C1209 C1213 1.495 . S
C1210 C1209 1.392 . S
C1210 C1211 1.385 . S
C1210 C1212 1.478 . S
C1211 H1205 0.930 . S
C1211 C1207 1.400 . S
C1211 C1210 1.385 . S
C1212 C1210 1.478 . S
C1212 C1214 1.381 . S
C1212 C1218 1.383 . S
C1213 C1209 1.495 . S
C1213 H1219 0.959 . S
C1213 H1220 0.961 . S
C1213 H1221 0.960 . S
C1214 C1212 1.381 . S
C1214 C1215 1.394 . S
C1214 H1222 0.930 . S
C1215 C1214 1.394 . S
C1215 C1216 1.383 . S
C1215 H1223 0.929 . S
C1216 C1215 1.383 . S
C1216 C1217 1.377 . S
C1217 H1201 0.930 . S
C1217 C1216 1.377 . S
C1217 C1218 1.379 . S
C1218 H1202 0.931 . S
C1218 C1212 1.383 . S
C1218 C1217 1.379 . S
H1219 C1213 0.959 . S
H1220 C1213 0.961 . S
H1221 C1213 0.960 . S
H1222 C1214 0.930 . S
H1223 C1215 0.929 . S
H1224 C1232 0.929 . S
H1225 C1234 0.930 . S
H1226 C1236 0.930 . S
H1227 C1239 0.929 . S
H1228 C1242 0.930 . S
H1229 C1244 0.960 . S
H1230 C1244 0.960 . S
H1231 C1244 0.960 . S
C1232 H1224 0.929 . S
C1232 C1233 1.377 . S
C1232 C1234 1.384 . S
C1233 C1232 1.377 . S
C1233 C1239 1.390 . S
C1234 H1225 0.930 . S
C1234 C1232 1.384 . S
C1234 C1235 1.372 . S
C1235 C1234 1.372 . S
C1235 C1236 1.400 . S
C1235 C1240 1.490 . S
C1236 H1226 0.930 . S
C1236 C1235 1.400 . S
C1236 C1239 1.386 . S
H1237 C1253 0.930 . S
H1238 C1254 0.931 . S
C1239 H1227 0.929 . S
C1239 C1233 1.390 . S
C1239 C1236 1.386 . S
C1240 C1235 1.490 . S
C1240 C1242 1.395 . S
C1240 C1243 1.403 . S
H1241 C1247 0.930 . S
C1242 H1228 0.930 . S
C1242 C1240 1.395 . S
C1242 C1245 1.403 . S
C1243 C1240 1.403 . S
C1243 C1244 1.524 . S
C1243 C1247 1.400 . S
C1244 H1229 0.960 . S
C1244 H1230 0.960 . S
C1244 H1231 0.960 . S
C1244 C1243 1.524 . S
C1245 C1242 1.403 . S
C1245 C1246 1.392 . S
C1245 C1249 1.495 . S
C1246 C1245 1.392 . S
C1246 C1247 1.385 . S
C1246 C1248 1.478 . S
C1247 H1241 0.930 . S
C1247 C1243 1.400 . S
C1247 C1246 1.385 . S
C1248 C1246 1.478 . S
C1248 C1250 1.381 . S
C1248 C1254 1.383 . S
C1249 C1245 1.495 . S
C1249 H1255 0.959 . S
C1249 H1256 0.961 . S
C1249 H1257 0.960 . S
C1250 C1248 1.381 . S
C1250 C1251 1.394 . S
C1250 H1258 0.930 . S
C1251 C1250 1.394 . S
C1251 C1252 1.383 . S
C1251 H1259 0.929 . S
C1252 C1251 1.383 . S
C1252 C1253 1.377 . S
C1253 H1237 0.930 . S
C1253 C1252 1.377 . S
C1253 C1254 1.379 . S
C1254 H1238 0.931 . S
C1254 C1248 1.383 . S
C1254 C1253 1.379 . S
H1255 C1249 0.959 . S
H1256 C1249 0.961 . S
H1257 C1249 0.960 . S
H1258 C1250 0.930 . S
H1259 C1251 0.929 . S
H1260 C1268 0.929 . S
H1261 C1270 0.930 . S
H1262 C1272 0.930 . S
H1263 C1275 0.929 . S
H1264 C1278 0.930 . S
H1265 C1280 0.960 . S
H1266 C1280 0.960 . S
H1267 C1280 0.960 . S
C1268 H1260 0.929 . S
C1268 C1269 1.377 . S
C1268 C1270 1.384 . S
C1269 C1268 1.377 . S
C1269 C1275 1.390 . S
C1270 H1261 0.930 . S
C1270 C1268 1.384 . S
C1270 C1271 1.372 . S
C1271 C1270 1.372 . S
C1271 C1272 1.400 . S
C1271 C1276 1.490 . S
C1272 H1262 0.930 . S
C1272 C1271 1.400 . S
C1272 C1275 1.386 . S
H1273 C1289 0.930 . S
H1274 C1290 0.931 . S
C1275 H1263 0.929 . S
C1275 C1269 1.390 . S
C1275 C1272 1.386 . S
C1276 C1271 1.490 . S
C1276 C1278 1.395 . S
C1276 C1279 1.403 . S
H1277 C1283 0.930 . S
C1278 H1264 0.930 . S
C1278 C1276 1.395 . S
C1278 C1281 1.403 . S
C1279 C1276 1.403 . S
C1279 C1280 1.524 . S
C1279 C1283 1.400 . S
C1280 H1265 0.960 . S
C1280 H1266 0.960 . S
C1280 H1267 0.960 . S
C1280 C1279 1.524 . S
C1281 C1278 1.403 . S
C1281 C1282 1.392 . S
C1281 C1285 1.495 . S
C1282 C1281 1.392 . S
C1282 C1283 1.385 . S
C1282 C1284 1.478 . S
C1283 H1277 0.930 . S
C1283 C1279 1.400 . S
C1283 C1282 1.385 . S
C1284 C1282 1.478 . S
C1284 C1286 1.381 . S
C1284 C1290 1.383 . S
C1285 C1281 1.495 . S
C1285 H1291 0.959 . S
C1285 H1292 0.961 . S
C1285 H1293 0.960 . S
C1286 C1284 1.381 . S
C1286 C1287 1.394 . S
C1286 H1294 0.930 . S
C1287 C1286 1.394 . S
C1287 C1288 1.383 . S
C1287 H1295 0.929 . S
C1288 C1287 1.383 . S
C1288 C1289 1.377 . S
C1289 H1273 0.930 . S
C1289 C1288 1.377 . S
C1289 C1290 1.379 . S
C1290 H1274 0.931 . S
C1290 C1284 1.383 . S
C1290 C1289 1.379 . S
H1291 C1285 0.959 . S
H1292 C1285 0.961 . S
H1293 C1285 0.960 . S
H1294 C1286 0.930 . S
H1295 C1287 0.929 . S
H1296 C1304 0.929 . S
H1297 C1306 0.930 . S
H1298 C1308 0.930 . S
H1299 C1311 0.929 . S
H1300 C1314 0.930 . S
H1301 C1316 0.960 . S
H1302 C1316 0.960 . S
H1303 C1316 0.960 . S
C1304 H1296 0.929 . S
C1304 C1305 1.377 . S
C1304 C1306 1.384 . S
C1305 C1304 1.377 . S
C1305 C1311 1.390 . S
C1306 H1297 0.930 . S
C1306 C1304 1.384 . S
C1306 C1307 1.372 . S
C1307 C1306 1.372 . S
C1307 C1308 1.400 . S
C1307 C1312 1.490 . S
C1308 H1298 0.930 . S
C1308 C1307 1.400 . S
C1308 C1311 1.386 . S
H1309 C1325 0.930 . S
H1310 C1326 0.931 . S
C1311 H1299 0.929 . S
C1311 C1305 1.390 . S
C1311 C1308 1.386 . S
C1312 C1307 1.490 . S
C1312 C1314 1.395 . S
C1312 C1315 1.403 . S
H1313 C1319 0.930 . S
C1314 H1300 0.930 . S
C1314 C1312 1.395 . S
C1314 C1317 1.403 . S
C1315 C1312 1.403 . S
C1315 C1316 1.524 . S
C1315 C1319 1.400 . S
C1316 H1301 0.960 . S
C1316 H1302 0.960 . S
C1316 H1303 0.960 . S
C1316 C1315 1.524 . S
C1317 C1314 1.403 . S
C1317 C1318 1.392 . S
C1317 C1321 1.495 . S
C1318 C1317 1.392 . S
C1318 C1319 1.385 . S
C1318 C1320 1.478 . S
C1319 H1313 0.930 . S
C1319 C1315 1.400 . S
C1319 C1318 1.385 . S
C1320 C1318 1.478 . S
C1320 C1322 1.381 . S
C1320 C1326 1.383 . S
C1321 C1317 1.495 . S
C1321 H1327 0.959 . S
C1321 H1328 0.961 . S
C1321 H1329 0.960 . S
C1322 C1320 1.381 . S
C1322 C1323 1.394 . S
C1322 H1330 0.930 . S
C1323 C1322 1.394 . S
C1323 C1324 1.383 . S
C1323 H1331 0.929 . S
C1324 C1323 1.383 . S
C1324 C1325 1.377 . S
C1325 H1309 0.930 . S
C1325 C1324 1.377 . S
C1325 C1326 1.379 . S
C1326 H1310 0.931 . S
C1326 C1320 1.383 . S
C1326 C1325 1.379 . S
H1327 C1321 0.959 . S
H1328 C1321 0.961 . S
H1329 C1321 0.960 . S
H1330 C1322 0.930 . S
H1331 C1323 0.929 . S
H1332 C1340 0.929 . S
H1333 C1342 0.930 . S
H1334 C1344 0.930 . S
H1335 C1347 0.929 . S
H1336 C1350 0.930 . S
H1337 C1352 0.960 . S
H1338 C1352 0.960 . S
H1339 C1352 0.960 . S
C1340 H1332 0.929 . S
C1340 C1341 1.377 . S
C1340 C1342 1.384 . S
C1341 C1340 1.377 . S
C1341 C1347 1.390 . S
C1342 H1333 0.930 . S
C1342 C1340 1.384 . S
C1342 C1343 1.372 . S
C1343 C1342 1.372 . S
C1343 C1344 1.400 . S
C1343 C1348 1.490 . S
C1344 H1334 0.930 . S
C1344 C1343 1.400 . S
C1344 C1347 1.386 . S
H1345 C1361 0.930 . S
H1346 C1362 0.931 . S
C1347 H1335 0.929 . S
C1347 C1341 1.390 . S
C1347 C1344 1.386 . S
C1348 C1343 1.490 . S
C1348 C1350 1.395 . S
C1348 C1351 1.403 . S
H1349 C1355 0.930 . S
C1350 H1336 0.930 . S
C1350 C1348 1.395 . S
C1350 C1353 1.403 . S
C1351 C1348 1.403 . S
C1351 C1352 1.524 . S
C1351 C1355 1.400 . S
C1352 H1337 0.960 . S
C1352 H1338 0.960 . S
C1352 H1339 0.960 . S
C1352 C1351 1.524 . S
C1353 C1350 1.403 . S
C1353 C1354 1.392 . S
C1353 C1357 1.495 . S
C1354 C1353 1.392 . S
C1354 C1355 1.385 . S
C1354 C1356 1.478 . S
C1355 H1349 0.930 . S
C1355 C1351 1.400 . S
C1355 C1354 1.385 . S
C1356 C1354 1.478 . S
C1356 C1358 1.381 . S
C1356 C1362 1.383 . S
C1357 C1353 1.495 . S
C1357 H1363 0.959 . S
C1357 H1364 0.961 . S
C1357 H1365 0.960 . S
C1358 C1356 1.381 . S
C1358 C1359 1.394 . S
C1358 H1366 0.930 . S
C1359 C1358 1.394 . S
C1359 C1360 1.383 . S
C1359 H1367 0.929 . S
C1360 C1359 1.383 . S
C1360 C1361 1.377 . S
C1361 H1345 0.930 . S
C1361 C1360 1.377 . S
C1361 C1362 1.379 . S
C1362 H1346 0.931 . S
C1362 C1356 1.383 . S
C1362 C1361 1.379 . S
H1363 C1357 0.959 . S
H1364 C1357 0.961 . S
H1365 C1357 0.960 . S
H1366 C1358 0.930 . S
H1367 C1359 0.929 . S
H1368 C1376 0.929 . S
H1369 C1378 0.930 . S
H1370 C1380 0.930 . S
H1371 C1383 0.929 . S
H1372 C1386 0.930 . S
H1373 C1388 0.960 . S
H1374 C1388 0.960 . S
H1375 C1388 0.960 . S
C1376 H1368 0.929 . S
C1376 C1377 1.377 . S
C1376 C1378 1.384 . S
C1377 C1376 1.377 . S
C1377 C1383 1.390 . S
C1378 H1369 0.930 . S
C1378 C1376 1.384 . S
C1378 C1379 1.372 . S
C1379 C1378 1.372 . S
C1379 C1380 1.400 . S
C1379 C1384 1.490 . S
C1380 H1370 0.930 . S
C1380 C1379 1.400 . S
C1380 C1383 1.386 . S
H1381 C1397 0.930 . S
H1382 C1398 0.931 . S
C1383 H1371 0.929 . S
C1383 C1377 1.390 . S
C1383 C1380 1.386 . S
C1384 C1379 1.490 . S
C1384 C1386 1.395 . S
C1384 C1387 1.403 . S
H1385 C1391 0.930 . S
C1386 H1372 0.930 . S
C1386 C1384 1.395 . S
C1386 C1389 1.403 . S
C1387 C1384 1.403 . S
C1387 C1388 1.524 . S
C1387 C1391 1.400 . S
C1388 H1373 0.960 . S
C1388 H1374 0.960 . S
C1388 H1375 0.960 . S
C1388 C1387 1.524 . S
C1389 C1386 1.403 . S
C1389 C1390 1.392 . S
C1389 C1393 1.495 . S
C1390 C1389 1.392 . S
C1390 C1391 1.385 . S
C1390 C1392 1.478 . S
C1391 H1385 0.930 . S
C1391 C1387 1.400 . S
C1391 C1390 1.385 . S
C1392 C1390 1.478 . S
C1392 C1394 1.381 . S
C1392 C1398 1.383 . S
C1393 C1389 1.495 . S
C1393 H1399 0.959 . S
C1393 H1400 0.961 . S
C1393 H1401 0.960 . S
C1394 C1392 1.381 . S
C1394 C1395 1.394 . S
C1394 H1402 0.930 . S
C1395 C1394 1.394 . S
C1395 C1396 1.383 . S
C1395 H1403 0.929 . S
C1396 C1395 1.383 . S
C1396 C1397 1.377 . S
C1397 H1381 0.930 . S
C1397 C1396 1.377 . S
C1397 C1398 1.379 . S
C1398 H1382 0.931 . S
C1398 C1392 1.383 . S
C1398 C1397 1.379 . S
H1399 C1393 0.959 . S
H1400 C1393 0.961 . S
H1401 C1393 0.960 . S
H1402 C1394 0.930 . S
H1403 C1395 0.929 . S
H1404 C1412 0.929 . S
H1405 C1414 0.930 . S
H1406 C1416 0.930 . S
H1407 C1419 0.929 . S
H1408 C1422 0.930 . S
H1409 C1424 0.960 . S
H1410 C1424 0.960 . S
H1411 C1424 0.960 . S
C1412 H1404 0.929 . S
C1412 C1413 1.377 . S
C1412 C1414 1.384 . S
C1413 C1412 1.377 . S
C1413 C1419 1.390 . S
C1414 H1405 0.930 . S
C1414 C1412 1.384 . S
C1414 C1415 1.372 . S
C1415 C1414 1.372 . S
C1415 C1416 1.400 . S
C1415 C1420 1.490 . S
C1416 H1406 0.930 . S
C1416 C1415 1.400 . S
C1416 C1419 1.386 . S
H1417 C1433 0.930 . S
H1418 C1434 0.931 . S
C1419 H1407 0.929 . S
C1419 C1413 1.390 . S
C1419 C1416 1.386 . S
C1420 C1415 1.490 . S
C1420 C1422 1.395 . S
C1420 C1423 1.403 . S
H1421 C1427 0.930 . S
C1422 H1408 0.930 . S
C1422 C1420 1.395 . S
C1422 C1425 1.403 . S
C1423 C1420 1.403 . S
C1423 C1424 1.524 . S
C1423 C1427 1.400 . S
C1424 H1409 0.960 . S
C1424 H1410 0.960 . S
C1424 H1411 0.960 . S
C1424 C1423 1.524 . S
C1425 C1422 1.403 . S
C1425 C1426 1.392 . S
C1425 C1429 1.495 . S
C1426 C1425 1.392 . S
C1426 C1427 1.385 . S
C1426 C1428 1.478 . S
C1427 H1421 0.930 . S
C1427 C1423 1.400 . S
C1427 C1426 1.385 . S
C1428 C1426 1.478 . S
C1428 C1430 1.381 . S
C1428 C1434 1.383 . S
C1429 C1425 1.495 . S
C1429 H1435 0.959 . S
C1429 H1436 0.961 . S
C1429 H1437 0.960 . S
C1430 C1428 1.381 . S
C1430 C1431 1.394 . S
C1430 H1438 0.930 . S
C1431 C1430 1.394 . S
C1431 C1432 1.383 . S
C1431 H1439 0.929 . S
C1432 C1431 1.383 . S
C1432 C1433 1.377 . S
C1433 H1417 0.930 . S
C1433 C1432 1.377 . S
C1433 C1434 1.379 . S
C1434 H1418 0.931 . S
C1434 C1428 1.383 . S
C1434 C1433 1.379 . S
H1435 C1429 0.959 . S
H1436 C1429 0.961 . S
H1437 C1429 0.960 . S
H1438 C1430 0.930 . S
H1439 C1431 0.929 . S
H1440 C1448 0.929 . S
H1441 C1450 0.930 . S
H1442 C1452 0.930 . S
H1443 C1455 0.929 . S
H1444 C1458 0.930 . S
H1445 C1460 0.960 . S
H1446 C1460 0.960 . S
H1447 C1460 0.960 . S
C1448 H1440 0.929 . S
C1448 C1449 1.377 . S
C1448 C1450 1.384 . S
C1449 C1448 1.377 . S
C1449 C1455 1.390 . S
C1450 H1441 0.930 . S
C1450 C1448 1.384 . S
C1450 C1451 1.372 . S
C1451 C1450 1.372 . S
C1451 C1452 1.400 . S
C1451 C1456 1.490 . S
C1452 H1442 0.930 . S
C1452 C1451 1.400 . S
C1452 C1455 1.386 . S
H1453 C1469 0.930 . S
H1454 C1470 0.931 . S
C1455 H1443 0.929 . S
C1455 C1449 1.390 . S
C1455 C1452 1.386 . S
C1456 C1451 1.490 . S
C1456 C1458 1.395 . S
C1456 C1459 1.403 . S
H1457 C1463 0.930 . S
C1458 H1444 0.930 . S
C1458 C1456 1.395 . S
C1458 C1461 1.403 . S
C1459 C1456 1.403 . S
C1459 C1460 1.524 . S
C1459 C1463 1.400 . S
C1460 H1445 0.960 . S
C1460 H1446 0.960 . S
C1460 H1447 0.960 . S
C1460 C1459 1.524 . S
C1461 C1458 1.403 . S
C1461 C1462 1.392 . S
C1461 C1465 1.495 . S
C1462 C1461 1.392 . S
C1462 C1463 1.385 . S
C1462 C1464 1.478 . S
C1463 H1457 0.930 . S
C1463 C1459 1.400 . S
C1463 C1462 1.385 . S
C1464 C1462 1.478 . S
C1464 C1466 1.381 . S
C1464 C1470 1.383 . S
C1465 C1461 1.495 . S
C1465 H1471 0.959 . S
C1465 H1472 0.961 . S
C1465 H1473 0.960 . S
C1466 C1464 1.381 . S
C1466 C1467 1.394 . S
C1466 H1474 0.930 . S
C1467 C1466 1.394 . S
C1467 C1468 1.383 . S
C1467 H1475 0.929 . S
C1468 C1467 1.383 . S
C1468 C1469 1.377 . S
C1469 H1453 0.930 . S
C1469 C1468 1.377 . S
C1469 C1470 1.379 . S
C1470 H1454 0.931 . S
C1470 C1464 1.383 . S
C1470 C1469 1.379 . S
H1471 C1465 0.959 . S
H1472 C1465 0.961 . S
H1473 C1465 0.960 . S
H1474 C1466 0.930 . S
H1475 C1467 0.929 . S
H1476 C1484 0.929 . S
H1477 C1486 0.930 . S
H1478 C1488 0.930 . S
H1479 C1491 0.929 . S
H1480 C1494 0.930 . S
H1481 C1496 0.960 . S
H1482 C1496 0.960 . S
H1483 C1496 0.960 . S
C1484 H1476 0.929 . S
C1484 C1485 1.377 . S
C1484 C1486 1.384 . S
C1485 C1484 1.377 . S
C1485 C1491 1.390 . S
C1486 H1477 0.930 . S
C1486 C1484 1.384 . S
C1486 C1487 1.372 . S
C1487 C1486 1.372 . S
C1487 C1488 1.400 . S
C1487 C1492 1.490 . S
C1488 H1478 0.930 . S
C1488 C1487 1.400 . S
C1488 C1491 1.386 . S
H1489 C1505 0.930 . S
H1490 C1506 0.931 . S
C1491 H1479 0.929 . S
C1491 C1485 1.390 . S
C1491 C1488 1.386 . S
C1492 C1487 1.490 . S
C1492 C1494 1.395 . S
C1492 C1495 1.403 . S
H1493 C1499 0.930 . S
C1494 H1480 0.930 . S
C1494 C1492 1.395 . S
C1494 C1497 1.403 . S
C1495 C1492 1.403 . S
C1495 C1496 1.524 . S
C1495 C1499 1.400 . S
C1496 H1481 0.960 . S
C1496 H1482 0.960 . S
C1496 H1483 0.960 . S
C1496 C1495 1.524 . S
C1497 C1494 1.403 . S
C1497 C1498 1.392 . S
C1497 C1501 1.495 . S
C1498 C1497 1.392 . S
C1498 C1499 1.385 . S
C1498 C1500 1.478 . S
C1499 H1493 0.930 . S
C1499 C1495 1.400 . S
C1499 C1498 1.385 . S
C1500 C1498 1.478 . S
C1500 C1502 1.381 . S
C1500 C1506 1.383 . S
C1501 C1497 1.495 . S
C1501 H1507 0.959 . S
C1501 H1508 0.961 . S
C1501 H1509 0.960 . S
C1502 C1500 1.381 . S
C1502 C1503 1.394 . S
C1502 H1510 0.930 . S
C1503 C1502 1.394 . S
C1503 C1504 1.383 . S
C1503 H1511 0.929 . S
C1504 C1503 1.383 . S
C1504 C1505 1.377 . S
C1505 H1489 0.930 . S
C1505 C1504 1.377 . S
C1505 C1506 1.379 . S
C1506 H1490 0.931 . S
C1506 C1500 1.383 . S
C1506 C1505 1.379 . S
H1507 C1501 0.959 . S
H1508 C1501 0.961 . S
H1509 C1501 0.960 . S
H1510 C1502 0.930 . S
H1511 C1503 0.929 . S
H1512 C1520 0.929 . S
H1513 C1522 0.930 . S
H1514 C1524 0.930 . S
H1515 C1527 0.929 . S
H1516 C1530 0.930 . S
H1517 C1532 0.960 . S
H1518 C1532 0.960 . S
H1519 C1532 0.960 . S
C1520 H1512 0.929 . S
C1520 C1521 1.377 . S
C1520 C1522 1.384 . S
C1521 C1520 1.377 . S
C1521 C1527 1.390 . S
C1522 H1513 0.930 . S
C1522 C1520 1.384 . S
C1522 C1523 1.372 . S
C1523 C1522 1.372 . S
C1523 C1524 1.400 . S
C1523 C1528 1.490 . S
C1524 H1514 0.930 . S
C1524 C1523 1.400 . S
C1524 C1527 1.386 . S
H1525 C1541 0.930 . S
H1526 C1542 0.931 . S
C1527 H1515 0.929 . S
C1527 C1521 1.390 . S
C1527 C1524 1.386 . S
C1528 C1523 1.490 . S
C1528 C1530 1.395 . S
C1528 C1531 1.403 . S
H1529 C1535 0.930 . S
C1530 H1516 0.930 . S
C1530 C1528 1.395 . S
C1530 C1533 1.403 . S
C1531 C1528 1.403 . S
C1531 C1532 1.524 . S
C1531 C1535 1.400 . S
C1532 H1517 0.960 . S
C1532 H1518 0.960 . S
C1532 H1519 0.960 . S
C1532 C1531 1.524 . S
C1533 C1530 1.403 . S
C1533 C1534 1.392 . S
C1533 C1537 1.495 . S
C1534 C1533 1.392 . S
C1534 C1535 1.385 . S
C1534 C1536 1.478 . S
C1535 H1529 0.930 . S
C1535 C1531 1.400 . S
C1535 C1534 1.385 . S
C1536 C1534 1.478 . S
C1536 C1538 1.381 . S
C1536 C1542 1.383 . S
C1537 C1533 1.495 . S
C1537 H1543 0.959 . S
C1537 H1544 0.961 . S
C1537 H1545 0.960 . S
C1538 C1536 1.381 . S
C1538 C1539 1.394 . S
C1538 H1546 0.930 . S
C1539 C1538 1.394 . S
C1539 C1540 1.383 . S
C1539 H1547 0.929 . S
C1540 C1539 1.383 . S
C1540 C1541 1.377 . S
C1541 H1525 0.930 . S
C1541 C1540 1.377 . S
C1541 C1542 1.379 . S
C1542 H1526 0.931 . S
C1542 C1536 1.383 . S
C1542 C1541 1.379 . S
H1543 C1537 0.959 . S
H1544 C1537 0.961 . S
H1545 C1537 0.960 . S
H1546 C1538 0.930 . S
H1547 C1539 0.929 . S
H1548 C1556 0.929 . S
H1549 C1558 0.930 . S
H1550 C1560 0.930 . S
H1551 C1563 0.929 . S
H1552 C1566 0.930 . S
H1553 C1568 0.960 . S
H1554 C1568 0.960 . S
H1555 C1568 0.960 . S
C1556 H1548 0.929 . S
C1556 C1557 1.377 . S
C1556 C1558 1.384 . S
C1557 C1556 1.377 . S
C1557 C1563 1.390 . S
C1558 H1549 0.930 . S
C1558 C1556 1.384 . S
C1558 C1559 1.372 . S
C1559 C1558 1.372 . S
C1559 C1560 1.400 . S
C1559 C1564 1.490 . S
C1560 H1550 0.930 . S
C1560 C1559 1.400 . S
C1560 C1563 1.386 . S
H1561 C1577 0.930 . S
H1562 C1578 0.931 1_556 S
C1563 H1551 0.929 . S
C1563 C1557 1.390 . S
C1563 C1560 1.386 . S
C1564 C1559 1.490 . S
C1564 C1566 1.395 . S
C1564 C1567 1.403 . S
H1565 C1571 0.930 . S
C1566 H1552 0.930 . S
C1566 C1564 1.395 . S
C1566 C1569 1.403 . S
C1567 C1564 1.403 . S
C1567 C1568 1.524 . S
C1567 C1571 1.400 . S
C1568 H1553 0.960 . S
C1568 H1554 0.960 . S
C1568 H1555 0.960 . S
C1568 C1567 1.524 . S
C1569 C1566 1.403 . S
C1569 C1570 1.392 . S
C1569 C1573 1.495 . S
C1570 C1569 1.392 . S
C1570 C1571 1.385 . S
C1570 C1572 1.478 . S
C1571 H1565 0.930 . S
C1571 C1567 1.400 . S
C1571 C1570 1.385 . S
C1572 C1570 1.478 . S
C1572 C1574 1.381 . S
C1572 C1578 1.383 . S
C1573 C1569 1.495 . S
C1573 H1579 0.959 . S
C1573 H1580 0.961 . S
C1573 H1581 0.960 . S
C1574 C1572 1.381 . S
C1574 C1575 1.394 . S
C1574 H1582 0.930 . S
C1575 C1574 1.394 . S
C1575 C1576 1.383 1_554 S
C1575 H1583 0.929 . S
C1576 C1575 1.383 1_556 S
C1576 C1577 1.377 . S
C1577 H1561 0.930 . S
C1577 C1576 1.377 . S
C1577 C1578 1.379 1_556 S
C1578 H1562 0.931 1_554 S
C1578 C1572 1.383 . S
C1578 C1577 1.379 1_554 S
H1579 C1573 0.959 . S
H1580 C1573 0.961 . S
H1581 C1573 0.960 . S
H1582 C1574 0.930 . S
H1583 C1575 0.929 . S
H1584 C1592 0.929 . S
H1585 C1594 0.930 . S
H1586 C1596 0.930 . S
H1587 C1599 0.929 . S
H1588 C1602 0.930 . S
H1589 C1604 0.960 . S
H1590 C1604 0.960 . S
H1591 C1604 0.960 . S
C1592 H1584 0.929 . S
C1592 C1593 1.377 . S
C1592 C1594 1.384 . S
C1593 C1592 1.377 . S
C1593 C1599 1.390 . S
C1594 H1585 0.930 . S
C1594 C1592 1.384 . S
C1594 C1595 1.372 . S
C1595 C1594 1.372 . S
C1595 C1596 1.400 . S
C1595 C1600 1.490 . S
C1596 H1586 0.930 . S
C1596 C1595 1.400 . S
C1596 C1599 1.386 . S
H1597 C1613 0.930 . S
H1598 C1614 0.931 . S
C1599 H1587 0.929 . S
C1599 C1593 1.390 . S
C1599 C1596 1.386 . S
C1600 C1595 1.490 . S
C1600 C1602 1.395 . S
C1600 C1603 1.403 . S
H1601 C1607 0.930 . S
C1602 H1588 0.930 . S
C1602 C1600 1.395 . S
C1602 C1605 1.403 . S
C1603 C1600 1.403 . S
C1603 C1604 1.524 . S
C1603 C1607 1.400 . S
C1604 H1589 0.960 . S
C1604 H1590 0.960 . S
C1604 H1591 0.960 . S
C1604 C1603 1.524 . S
C1605 C1602 1.403 . S
C1605 C1606 1.392 . S
C1605 C1609 1.495 . S
C1606 C1605 1.392 . S
C1606 C1607 1.385 . S
C1606 C1608 1.478 . S
C1607 H1601 0.930 . S
C1607 C1603 1.400 . S
C1607 C1606 1.385 . S
C1608 C1606 1.478 . S
C1608 C1610 1.381 . S
C1608 C1614 1.383 . S
C1609 C1605 1.495 . S
C1609 H1615 0.959 . S
C1609 H1616 0.961 . S
C1609 H1617 0.960 . S
C1610 C1608 1.381 . S
C1610 C1611 1.394 . S
C1610 H1618 0.930 . S
C1611 C1610 1.394 . S
C1611 C1612 1.383 1_554 S
C1611 H1619 0.929 . S
C1612 C1611 1.383 1_556 S
C1612 C1613 1.377 . S
C1613 H1597 0.930 . S
C1613 C1612 1.377 . S
C1613 C1614 1.379 1_556 S
C1614 H1598 0.931 . S
C1614 C1608 1.383 . S
C1614 C1613 1.379 1_554 S
H1615 C1609 0.959 . S
H1616 C1609 0.961 . S
H1617 C1609 0.960 . S
H1618 C1610 0.930 . S
H1619 C1611 0.929 . S
H1620 C1628 0.929 . S
H1621 C1630 0.930 . S
H1622 C1632 0.930 . S
H1623 C1635 0.929 . S
H1624 C1638 0.930 . S
H1625 C1640 0.960 . S
H1626 C1640 0.960 . S
H1627 C1640 0.960 . S
C1628 H1620 0.929 . S
C1628 C1629 1.377 . S
C1628 C1630 1.384 1_556 S
C1629 C1628 1.377 . S
C1629 C1635 1.390 1_556 S
C1630 H1621 0.930 . S
C1630 C1628 1.384 1_554 S
C1630 C1631 1.372 . S
C1631 C1630 1.372 . S
C1631 C1632 1.400 . S
C1631 C1636 1.490 . S
C1632 H1622 0.930 . S
C1632 C1631 1.400 . S
C1632 C1635 1.386 . S
H1633 C1649 0.930 . S
H1634 C1650 0.931 . S
C1635 H1623 0.929 . S
C1635 C1629 1.390 1_554 S
C1635 C1632 1.386 . S
C1636 C1631 1.490 . S
C1636 C1638 1.395 . S
C1636 C1639 1.403 . S
H1637 C1643 0.930 . S
C1638 H1624 0.930 . S
C1638 C1636 1.395 . S
C1638 C1641 1.403 . S
C1639 C1636 1.403 . S
C1639 C1640 1.524 . S
C1639 C1643 1.400 . S
C1640 H1625 0.960 . S
C1640 H1626 0.960 . S
C1640 H1627 0.960 . S
C1640 C1639 1.524 . S
C1641 C1638 1.403 . S
C1641 C1642 1.392 . S
C1641 C1645 1.495 . S
C1642 C1641 1.392 . S
C1642 C1643 1.385 . S
C1642 C1644 1.478 . S
C1643 H1637 0.930 . S
C1643 C1639 1.400 . S
C1643 C1642 1.385 . S
C1644 C1642 1.478 . S
C1644 C1646 1.381 . S
C1644 C1650 1.383 . S
C1645 C1641 1.495 . S
C1645 H1651 0.959 . S
C1645 H1652 0.961 . S
C1645 H1653 0.960 . S
C1646 C1644 1.381 . S
C1646 C1647 1.394 . S
C1646 H1654 0.930 . S
C1647 C1646 1.394 . S
C1647 C1648 1.383 . S
C1647 H1655 0.929 . S
C1648 C1647 1.383 . S
C1648 C1649 1.377 . S
C1649 H1633 0.930 . S
C1649 C1648 1.377 . S
C1649 C1650 1.379 . S
C1650 H1634 0.931 . S
C1650 C1644 1.383 . S
C1650 C1649 1.379 . S
H1651 C1645 0.959 . S
H1652 C1645 0.961 . S
H1653 C1645 0.960 . S
H1654 C1646 0.930 . S
H1655 C1647 0.929 . S
H1656 C1664 0.929 . S
H1657 C1666 0.930 . S
H1658 C1668 0.930 . S
H1659 C1671 0.929 . S
H1660 C1674 0.930 1_556 S
H1661 C1676 0.960 . S
H1662 C1676 0.960 . S
H1663 C1676 0.960 . S
C1664 H1656 0.929 . S
C1664 C1665 1.377 . S
C1664 C1666 1.384 . S
C1665 C1664 1.377 . S
C1665 C1671 1.390 . S
C1666 H1657 0.930 . S
C1666 C1664 1.384 . S
C1666 C1667 1.372 . S
C1667 C1666 1.372 . S
C1667 C1668 1.400 . S
C1667 C1672 1.490 1_556 S
C1668 H1658 0.930 . S
C1668 C1667 1.400 . S
C1668 C1671 1.386 . S
H1669 C1685 0.930 . S
H1670 C1686 0.931 . S
C1671 H1659 0.929 . S
C1671 C1665 1.390 . S
C1671 C1668 1.386 . S
C1672 C1667 1.490 1_554 S
C1672 C1674 1.395 . S
C1672 C1675 1.403 . S
H1673 C1679 0.930 . S
C1674 H1660 0.930 1_554 S
C1674 C1672 1.395 . S
C1674 C1677 1.403 . S
C1675 C1672 1.403 . S
C1675 C1676 1.524 . S
C1675 C1679 1.400 . S
C1676 H1661 0.960 . S
C1676 H1662 0.960 . S
C1676 H1663 0.960 . S
C1676 C1675 1.524 . S
C1677 C1674 1.403 . S
C1677 C1678 1.392 . S
C1677 C1681 1.495 . S
C1678 C1677 1.392 . S
C1678 C1679 1.385 . S
C1678 C1680 1.478 . S
C1679 H1673 0.930 . S
C1679 C1675 1.400 . S
C1679 C1678 1.385 . S
C1680 C1678 1.478 . S
C1680 C1682 1.381 . S
C1680 C1686 1.383 . S
C1681 C1677 1.495 . S
C1681 H1687 0.959 . S
C1681 H1688 0.961 . S
C1681 H1689 0.960 . S
C1682 C1680 1.381 . S
C1682 C1683 1.394 . S
C1682 H1690 0.930 . S
C1683 C1682 1.394 . S
C1683 C1684 1.383 . S
C1683 H1691 0.929 . S
C1684 C1683 1.383 . S
C1684 C1685 1.377 . S
C1685 H1669 0.930 . S
C1685 C1684 1.377 . S
C1685 C1686 1.379 . S
C1686 H1670 0.931 . S
C1686 C1680 1.383 . S
C1686 C1685 1.379 . S
H1687 C1681 0.959 . S
H1688 C1681 0.961 . S
H1689 C1681 0.960 . S
H1690 C1682 0.930 . S
H1691 C1683 0.929 . S
H1692 C1700 0.929 . S
H1693 C1702 0.930 . S
H1694 C1704 0.920 1_554 S
H1695 C1707 0.929 . S
H1696 C1710 0.930 . S
H1697 C1712 0.960 . S
H1698 C1712 0.960 . S
H1699 C1712 0.960 . S
C1700 H1692 0.929 . S
C1700 C1701 1.377 . S
C1700 C1702 1.384 . S
C1701 C1700 1.377 . S
C1701 C1707 1.390 . S
C1702 H1693 0.930 . S
C1702 C1700 1.384 . S
C1702 C1703 1.372 . S
C1703 C1702 1.372 . S
C1703 C1704 1.400 . S
C1703 C1708 1.490 1_556 S
C1704 H1694 0.920 1_556 S
C1704 C1703 1.400 . S
C1704 C1707 1.386 . S
H1705 C1721 0.930 . S
H1706 C1722 0.931 . S
C1707 H1695 0.929 . S
C1707 C1701 1.390 . S
C1707 C1704 1.386 . S
C1708 C1703 1.490 1_554 S
C1708 C1710 1.395 . S
C1708 C1711 1.403 . S
H1709 C1715 0.930 . S
C1710 H1696 0.930 . S
C1710 C1708 1.395 . S
C1710 C1713 1.403 . S
C1711 C1708 1.403 . S
C1711 C1712 1.524 1_554 S
C1711 C1715 1.400 . S
C1712 H1697 0.960 . S
C1712 H1698 0.960 . S
C1712 H1699 0.960 . S
C1712 C1711 1.524 1_556 S
C1713 C1710 1.403 . S
C1713 C1714 1.392 . S
C1713 C1717 1.495 . S
C1714 C1713 1.392 . S
C1714 C1715 1.385 . S
C1714 C1716 1.478 . S
C1715 H1709 0.930 . S
C1715 C1711 1.400 . S
C1715 C1714 1.385 . S
C1716 C1714 1.478 . S
C1716 C1718 1.381 . S
C1716 C1722 1.383 . S
C1717 C1713 1.495 . S
C1717 H1723 0.959 . S
C1717 H1724 0.961 . S
C1717 H1725 0.960 . S
C1718 C1716 1.381 . S
C1718 C1719 1.394 . S
C1718 H1726 0.930 . S
C1719 C1718 1.394 . S
C1719 C1720 1.383 . S
C1719 H1727 0.929 . S
C1720 C1719 1.383 . S
C1720 C1721 1.377 . S
C1721 H1705 0.930 . S
C1721 C1720 1.377 . S
C1721 C1722 1.379 . S
C1722 H1706 0.931 . S
C1722 C1716 1.383 . S
C1722 C1721 1.379 . S
H1723 C1717 0.959 . S
H1724 C1717 0.961 . S
H1725 C1717 0.960 . S
H1726 C1718 0.930 . S
H1727 C1719 0.929 . S
H1728 C1736 0.929 . S
H1729 C1738 0.930 1_554 S
H1730 C1740 0.930 . S
H1731 C1743 0.929 . S
H1732 C1746 0.930 . S
H1733 C1748 0.960 . S
H1734 C1748 0.960 . S
H1735 C1748 0.960 . S
C1736 H1728 0.929 . S
C1736 C1737 1.377 . S
C1736 C1738 1.384 . S
C1737 C1736 1.377 . S
C1737 C1743 1.390 . S
C1738 H1729 0.930 1_556 S
C1738 C1736 1.384 . S
C1738 C1739 1.372 . S
C1739 C1738 1.372 . S
C1739 C1740 1.400 . S
C1739 C1744 1.490 1_556 S
C1740 H1730 0.930 . S
C1740 C1739 1.400 . S
C1740 C1743 1.386 . S
H1741 C1757 0.930 . S
H1742 C1758 0.931 . S
C1743 H1731 0.929 . S
C1743 C1737 1.390 . S
C1743 C1740 1.386 . S
C1744 C1739 1.490 1_554 S
C1744 C1746 1.395 . S
C1744 C1747 1.403 1_554 S
H1745 C1751 0.930 . S
C1746 H1732 0.930 . S
C1746 C1744 1.395 . S
C1746 C1749 1.403 . S
C1747 C1744 1.403 1_556 S
C1747 C1748 1.524 . S
C1747 C1751 1.400 1_556 S
C1748 H1733 0.960 . S
C1748 H1734 0.960 . S
C1748 H1735 0.960 . S
C1748 C1747 1.524 . S
C1749 C1746 1.403 . S
C1749 C1750 1.392 . S
C1749 C1753 1.495 . S
C1750 C1749 1.392 . S
C1750 C1751 1.385 . S
C1750 C1752 1.478 . S
C1751 H1745 0.930 . S
C1751 C1747 1.400 1_554 S
C1751 C1750 1.385 . S
C1752 C1750 1.478 . S
C1752 C1754 1.381 . S
C1752 C1758 1.383 . S
C1753 C1749 1.495 . S
C1753 H1759 0.959 . S
C1753 H1760 0.961 . S
C1753 H1761 0.960 . S
C1754 C1752 1.381 . S
C1754 C1755 1.394 . S
C1754 H1762 0.930 . S
C1755 C1754 1.394 . S
C1755 C1756 1.383 . S
C1755 H1763 0.929 . S
C1756 C1755 1.383 . S
C1756 C1757 1.377 . S
C1757 H1741 0.930 . S
C1757 C1756 1.377 . S
C1757 C1758 1.379 . S
C1758 H1742 0.931 . S
C1758 C1752 1.383 . S
C1758 C1757 1.379 . S
H1759 C1753 0.959 . S
H1760 C1753 0.961 . S
H1761 C1753 0.960 . S
H1762 C1754 0.930 . S
H1763 C1755 0.929 . S
H1764 C1772 0.929 . S
H1765 C1774 0.930 . S
H1766 C1776 0.930 . S
H1767 C1779 0.929 . S
H1768 C1782 0.930 . S
H1769 C1784 0.960 . S
H1770 C1784 0.960 . S
H1771 C1784 0.960 . S
C1772 H1764 0.929 . S
C1772 C1773 1.377 . S
C1772 C1774 1.384 . S
C1773 C1772 1.377 . S
C1773 C1779 1.390 . S
C1774 H1765 0.930 . S
C1774 C1772 1.384 . S
C1774 C1775 1.372 . S
C1775 C1774 1.372 . S
C1775 C1776 1.400 . S
C1775 C1780 1.490 . S
C1776 H1766 0.930 . S
C1776 C1775 1.400 . S
C1776 C1779 1.386 . S
H1777 C1793 0.930 . S
H1778 C1794 0.931 . S
C1779 H1767 0.929 . S
C1779 C1773 1.390 . S
C1779 C1776 1.386 . S
C1780 C1775 1.490 . S
C1780 C1782 1.395 . S
C1780 C1783 1.403 . S
H1781 C1787 0.930 . S
C1782 H1768 0.930 . S
C1782 C1780 1.395 . S
C1782 C1785 1.403 . S
C1783 C1780 1.403 . S
C1783 C1784 1.524 . S
C1783 C1787 1.400 . S
C1784 H1769 0.960 . S
C1784 H1770 0.960 . S
C1784 H1771 0.960 . S
C1784 C1783 1.524 . S
C1785 C1782 1.403 . S
C1785 C1786 1.392 . S
C1785 C1789 1.495 . S
C1786 C1785 1.392 . S
C1786 C1787 1.385 . S
C1786 C1788 1.478 . S
C1787 H1781 0.930 . S
C1787 C1783 1.400 . S
C1787 C1786 1.385 . S
C1788 C1786 1.478 . S
C1788 C1790 1.381 . S
C1788 C1794 1.383 . S
C1789 C1785 1.495 . S
C1789 H1795 0.959 . S
C1789 H1796 0.961 . S
C1789 H1797 0.960 . S
C1790 C1788 1.381 . S
C1790 C1791 1.394 . S
C1790 H1798 0.930 . S
C1791 C1790 1.394 . S
C1791 C1792 1.383 . S
C1791 H1799 0.929 . S
C1792 C1791 1.383 . S
C1792 C1793 1.377 . S
C1793 H1777 0.930 . S
C1793 C1792 1.377 . S
C1793 C1794 1.379 . S
C1794 H1778 0.931 . S
C1794 C1788 1.383 . S
C1794 C1793 1.379 . S
H1795 C1789 0.959 . S
H1796 C1789 0.961 . S
H1797 C1789 0.960 . S
H1798 C1790 0.930 . S
H1799 C1791 0.929 . S
H1800 C1808 0.929 . S
H1801 C1810 0.930 . S
H1802 C1812 0.930 . S
H1803 C1815 0.929 . S
H1804 C1818 0.930 . S
H1805 C1820 0.960 . S
H1806 C1820 0.960 . S
H1807 C1820 0.960 . S
C1808 H1800 0.929 . S
C1808 C1809 1.377 . S
C1808 C1810 1.384 . S
C1809 C1808 1.377 . S
C1809 C1815 1.390 . S
C1810 H1801 0.930 . S
C1810 C1808 1.384 . S
C1810 C1811 1.372 . S
C1811 C1810 1.372 . S
C1811 C1812 1.400 . S
C1811 C1816 1.490 . S
C1812 H1802 0.930 . S
C1812 C1811 1.400 . S
C1812 C1815 1.386 . S
H1813 C1829 0.930 . S
H1814 C1830 0.931 . S
C1815 H1803 0.929 . S
C1815 C1809 1.390 . S
C1815 C1812 1.386 . S
C1816 C1811 1.490 . S
C1816 C1818 1.395 . S
C1816 C1819 1.403 . S
H1817 C1823 0.930 . S
C1818 H1804 0.930 . S
C1818 C1816 1.395 . S
C1818 C1821 1.403 . S
C1819 C1816 1.403 . S
C1819 C1820 1.524 . S
C1819 C1823 1.400 . S
C1820 H1805 0.960 . S
C1820 H1806 0.960 . S
C1820 H1807 0.960 . S
C1820 C1819 1.524 . S
C1821 C1818 1.403 . S
C1821 C1822 1.392 . S
C1821 C1825 1.495 . S
C1822 C1821 1.392 . S
C1822 C1823 1.385 . S
C1822 C1824 1.478 . S
C1823 H1817 0.930 . S
C1823 C1819 1.400 . S
C1823 C1822 1.385 . S
C1824 C1822 1.478 . S
C1824 C1826 1.381 . S
C1824 C1830 1.383 . S
C1825 C1821 1.495 . S
C1825 H1831 0.959 . S
C1825 H1832 0.961 . S
C1825 H1833 0.960 . S
C1826 C1824 1.381 . S
C1826 C1827 1.394 . S
C1826 H1834 0.930 . S
C1827 C1826 1.394 . S
C1827 C1828 1.383 . S
C1827 H1835 0.929 . S
C1828 C1827 1.383 . S
C1828 C1829 1.377 . S
C1829 H1813 0.930 . S
C1829 C1828 1.377 . S
C1829 C1830 1.379 . S
C1830 H1814 0.931 . S
C1830 C1824 1.383 . S
C1830 C1829 1.379 . S
H1831 C1825 0.959 . S
H1832 C1825 0.961 . S
H1833 C1825 0.960 . S
H1834 C1826 0.930 . S
H1835 C1827 0.929 . S
H1836 C1844 0.929 . S
H1837 C1846 0.930 . S
H1838 C1848 0.930 . S
H1839 C1851 0.929 . S
H1840 C1854 0.930 . S
H1841 C1856 0.960 . S
H1842 C1856 0.960 . S
H1843 C1856 0.960 . S
C1844 H1836 0.929 . S
C1844 C1845 1.377 . S
C1844 C1846 1.384 . S
C1845 C1844 1.377 . S
C1845 C1851 1.390 . S
C1846 H1837 0.930 . S
C1846 C1844 1.384 . S
C1846 C1847 1.372 . S
C1847 C1846 1.372 . S
C1847 C1848 1.400 . S
C1847 C1852 1.490 . S
C1848 H1838 0.930 . S
C1848 C1847 1.400 . S
C1848 C1851 1.386 . S
H1849 C1865 0.930 . S
H1850 C1866 0.931 . S
C1851 H1839 0.929 . S
C1851 C1845 1.390 . S
C1851 C1848 1.386 . S
C1852 C1847 1.490 . S
C1852 C1854 1.395 . S
C1852 C1855 1.403 . S
H1853 C1859 0.930 . S
C1854 H1840 0.930 . S
C1854 C1852 1.395 . S
C1854 C1857 1.403 . S
C1855 C1852 1.403 . S
C1855 C1856 1.524 . S
C1855 C1859 1.400 . S
C1856 H1841 0.960 . S
C1856 H1842 0.960 . S
C1856 H1843 0.960 . S
C1856 C1855 1.524 . S
C1857 C1854 1.403 . S
C1857 C1858 1.392 . S
C1857 C1861 1.495 . S
C1858 C1857 1.392 . S
C1858 C1859 1.385 . S
C1858 C1860 1.478 . S
C1859 H1853 0.930 . S
C1859 C1855 1.400 . S
C1859 C1858 1.385 . S
C1860 C1858 1.478 . S
C1860 C1862 1.381 . S
C1860 C1866 1.383 . S
C1861 C1857 1.495 . S
C1861 H1867 0.959 . S
C1861 H1868 0.961 . S
C1861 H1869 0.960 . S
C1862 C1860 1.381 . S
C1862 C1863 1.394 . S
C1862 H1870 0.930 . S
C1863 C1862 1.394 . S
C1863 C1864 1.383 . S
C1863 H1871 0.929 . S
C1864 C1863 1.383 . S
C1864 C1865 1.377 . S
C1865 H1849 0.930 . S
C1865 C1864 1.377 . S
C1865 C1866 1.379 . S
C1866 H1850 0.931 . S
C1866 C1860 1.383 . S
C1866 C1865 1.379 . S
H1867 C1861 0.959 . S
H1868 C1861 0.961 . S
H1869 C1861 0.960 . S
H1870 C1862 0.930 . S
H1871 C1863 0.929 . S
H1872 C1880 0.929 . S
H1873 C1882 0.930 . S
H1874 C1884 0.930 . S
H1875 C1887 0.929 . S
H1876 C1890 0.930 . S
H1877 C1892 0.960 . S
H1878 C1892 0.960 . S
H1879 C1892 0.960 . S
C1880 H1872 0.929 . S
C1880 C1881 1.377 . S
C1880 C1882 1.384 . S
C1881 C1880 1.377 . S
C1881 C1887 1.390 . S
C1882 H1873 0.930 . S
C1882 C1880 1.384 . S
C1882 C1883 1.372 . S
C1883 C1882 1.372 . S
C1883 C1884 1.400 . S
C1883 C1888 1.490 . S
C1884 H1874 0.930 . S
C1884 C1883 1.400 . S
C1884 C1887 1.386 . S
H1885 C1901 0.930 . S
H1886 C1902 0.931 . S
C1887 H1875 0.929 . S
C1887 C1881 1.390 . S
C1887 C1884 1.386 . S
C1888 C1883 1.490 . S
C1888 C1890 1.395 . S
C1888 C1891 1.403 . S
H1889 C1895 0.930 . S
C1890 H1876 0.930 . S
C1890 C1888 1.395 . S
C1890 C1893 1.403 . S
C1891 C1888 1.403 . S
C1891 C1892 1.524 . S
C1891 C1895 1.400 . S
C1892 H1877 0.960 . S
C1892 H1878 0.960 . S
C1892 H1879 0.960 . S
C1892 C1891 1.524 . S
C1893 C1890 1.403 . S
C1893 C1894 1.392 . S
C1893 C1897 1.495 . S
C1894 C1893 1.392 . S
C1894 C1895 1.385 . S
C1894 C1896 1.478 . S
C1895 H1889 0.930 . S
C1895 C1891 1.400 . S
C1895 C1894 1.385 . S
C1896 C1894 1.478 . S
C1896 C1898 1.381 . S
C1896 C1902 1.383 . S
C1897 C1893 1.495 . S
C1897 H1903 0.959 . S
C1897 H1904 0.961 . S
C1897 H1905 0.960 . S
C1898 C1896 1.381 . S
C1898 C1899 1.394 . S
C1898 H1906 0.930 . S
C1899 C1898 1.394 . S
C1899 C1900 1.383 . S
C1899 H1907 0.929 . S
C1900 C1899 1.383 . S
C1900 C1901 1.377 . S
C1901 H1885 0.930 . S
C1901 C1900 1.377 . S
C1901 C1902 1.379 . S
C1902 H1886 0.931 . S
C1902 C1896 1.383 . S
C1902 C1901 1.379 . S
H1903 C1897 0.959 . S
H1904 C1897 0.961 . S
H1905 C1897 0.960 . S
H1906 C1898 0.930 . S
H1907 C1899 0.929 . S
H1908 C1916 0.929 . S
H1909 C1918 0.930 . S
H1910 C1920 0.930 . S
H1911 C1923 0.929 . S
H1912 C1926 0.930 . S
H1913 C1928 0.960 . S
H1914 C1928 0.960 . S
H1915 C1928 0.960 . S
C1916 H1908 0.929 . S
C1916 C1917 1.377 . S
C1916 C1918 1.384 . S
C1917 C1916 1.377 . S
C1917 C1923 1.390 . S
C1918 H1909 0.930 . S
C1918 C1916 1.384 . S
C1918 C1919 1.372 . S
C1919 C1918 1.372 . S
C1919 C1920 1.400 . S
C1919 C1924 1.490 . S
C1920 H1910 0.930 . S
C1920 C1919 1.400 . S
C1920 C1923 1.386 . S
H1921 C1937 0.930 . S
H1922 C1938 0.931 . S
C1923 H1911 0.929 . S
C1923 C1917 1.390 . S
C1923 C1920 1.386 . S
C1924 C1919 1.490 . S
C1924 C1926 1.395 . S
C1924 C1927 1.403 . S
H1925 C1931 0.930 . S
C1926 H1912 0.930 . S
C1926 C1924 1.395 . S
C1926 C1929 1.403 . S
C1927 C1924 1.403 . S
C1927 C1928 1.524 . S
C1927 C1931 1.400 . S
C1928 H1913 0.960 . S
C1928 H1914 0.960 . S
C1928 H1915 0.960 . S
C1928 C1927 1.524 . S
C1929 C1926 1.403 . S
C1929 C1930 1.392 . S
C1929 C1933 1.495 . S
C1930 C1929 1.392 . S
C1930 C1931 1.385 . S
C1930 C1932 1.478 . S
C1931 H1925 0.930 . S
C1931 C1927 1.400 . S
C1931 C1930 1.385 . S
C1932 C1930 1.478 . S
C1932 C1934 1.381 . S
C1932 C1938 1.383 . S
C1933 C1929 1.495 . S
C1933 H1939 0.959 . S
C1933 H1940 0.961 . S
C1933 H1941 0.960 . S
C1934 C1932 1.381 . S
C1934 C1935 1.394 . S
C1934 H1942 0.930 . S
C1935 C1934 1.394 . S
C1935 C1936 1.383 . S
C1935 H1943 0.929 . S
C1936 C1935 1.383 . S
C1936 C1937 1.377 . S
C1937 H1921 0.930 . S
C1937 C1936 1.377 . S
C1937 C1938 1.379 . S
C1938 H1922 0.931 . S
C1938 C1932 1.383 . S
C1938 C1937 1.379 . S
H1939 C1933 0.959 . S
H1940 C1933 0.961 . S
H1941 C1933 0.960 . S
H1942 C1934 0.930 . S
H1943 C1935 0.929 . S
H1944 C1952 0.929 . S
H1945 C1954 0.930 . S
H1946 C1956 0.930 . S
H1947 C1959 0.929 . S
H1948 C1962 0.930 . S
H1949 C1964 0.960 . S
H1950 C1964 0.960 . S
H1951 C1964 0.960 . S
C1952 H1944 0.929 . S
C1952 C1953 1.377 . S
C1952 C1954 1.384 . S
C1953 C1952 1.377 . S
C1953 C1959 1.390 . S
C1954 H1945 0.930 . S
C1954 C1952 1.384 . S
C1954 C1955 1.372 . S
C1955 C1954 1.372 . S
C1955 C1956 1.400 . S
C1955 C1960 1.490 . S
C1956 H1946 0.930 . S
C1956 C1955 1.400 . S
C1956 C1959 1.386 . S
H1957 C1973 0.930 . S
H1958 C1974 0.931 . S
C1959 H1947 0.929 . S
C1959 C1953 1.390 . S
C1959 C1956 1.386 . S
C1960 C1955 1.490 . S
C1960 C1962 1.395 . S
C1960 C1963 1.403 . S
H1961 C1967 0.930 . S
C1962 H1948 0.930 . S
C1962 C1960 1.395 . S
C1962 C1965 1.403 . S
C1963 C1960 1.403 . S
C1963 C1964 1.524 . S
C1963 C1967 1.400 . S
C1964 H1949 0.960 . S
C1964 H1950 0.960 . S
C1964 H1951 0.960 . S
C1964 C1963 1.524 . S
C1965 C1962 1.403 . S
C1965 C1966 1.392 . S
C1965 C1969 1.495 . S
C1966 C1965 1.392 . S
C1966 C1967 1.385 . S
C1966 C1968 1.478 . S
C1967 H1961 0.930 . S
C1967 C1963 1.400 . S
C1967 C1966 1.385 . S
C1968 C1966 1.478 . S
C1968 C1970 1.381 . S
C1968 C1974 1.383 . S
C1969 C1965 1.495 . S
C1969 H1975 0.959 . S
C1969 H1976 0.961 . S
C1969 H1977 0.960 . S
C1970 C1968 1.381 . S
C1970 C1971 1.394 . S
C1970 H1978 0.930 . S
C1971 C1970 1.394 . S
C1971 C1972 1.383 . S
C1971 H1979 0.929 . S
C1972 C1971 1.383 . S
C1972 C1973 1.377 . S
C1973 H1957 0.930 . S
C1973 C1972 1.377 . S
C1973 C1974 1.379 . S
C1974 H1958 0.931 . S
C1974 C1968 1.383 . S
C1974 C1973 1.379 . S
H1975 C1969 0.959 . S
H1976 C1969 0.961 . S
H1977 C1969 0.960 . S
H1978 C1970 0.930 . S
H1979 C1971 0.929 . S
H1980 C1988 0.929 . S
H1981 C1990 0.930 . S
H1982 C1992 0.930 . S
H1983 C1995 0.929 . S
H1984 C1998 0.930 . S
H1985 C2000 0.960 . S
H1986 C2000 0.960 . S
H1987 C2000 0.960 . S
C1988 H1980 0.929 . S
C1988 C1989 1.377 . S
C1988 C1990 1.384 . S
C1989 C1988 1.377 . S
C1989 C1995 1.390 . S
C1990 H1981 0.930 . S
C1990 C1988 1.384 . S
C1990 C1991 1.372 . S
C1991 C1990 1.372 . S
C1991 C1992 1.400 . S
C1991 C1996 1.490 . S
C1992 H1982 0.930 . S
C1992 C1991 1.400 . S
C1992 C1995 1.386 . S
H1993 C2009 0.930 . S
H1994 C2010 0.931 . S
C1995 H1983 0.929 . S
C1995 C1989 1.390 . S
C1995 C1992 1.386 . S
C1996 C1991 1.490 . S
C1996 C1998 1.395 . S
C1996 C1999 1.403 . S
H1997 C2003 0.930 . S
C1998 H1984 0.930 . S
C1998 C1996 1.395 . S
C1998 C2001 1.403 . S
C1999 C1996 1.403 . S
C1999 C2000 1.524 . S
C1999 C2003 1.400 . S
C2000 H1985 0.960 . S
C2000 H1986 0.960 . S
C2000 H1987 0.960 . S
C2000 C1999 1.524 . S
C2001 C1998 1.403 . S
C2001 C2002 1.392 . S
C2001 C2005 1.495 . S
C2002 C2001 1.392 . S
C2002 C2003 1.385 . S
C2002 C2004 1.478 . S
C2003 H1997 0.930 . S
C2003 C1999 1.400 . S
C2003 C2002 1.385 . S
C2004 C2002 1.478 . S
C2004 C2006 1.381 . S
C2004 C2010 1.383 . S
C2005 C2001 1.495 . S
C2005 H2011 0.959 . S
C2005 H2012 0.961 . S
C2005 H2013 0.960 . S
C2006 C2004 1.381 . S
C2006 C2007 1.394 . S
C2006 H2014 0.930 . S
C2007 C2006 1.394 . S
C2007 C2008 1.383 . S
C2007 H2015 0.929 . S
C2008 C2007 1.383 . S
C2008 C2009 1.377 . S
C2009 H1993 0.930 . S
C2009 C2008 1.377 . S
C2009 C2010 1.379 . S
C2010 H1994 0.931 . S
C2010 C2004 1.383 . S
C2010 C2009 1.379 . S
H2011 C2005 0.959 . S
H2012 C2005 0.961 . S
H2013 C2005 0.960 . S
H2014 C2006 0.930 . S
H2015 C2007 0.929 . S
H2016 C2024 0.929 . S
H2017 C2026 0.930 . S
H2018 C2028 0.930 . S
H2019 C2031 0.929 . S
H2020 C2034 0.930 . S
H2021 C2036 0.960 . S
H2022 C2036 0.960 . S
H2023 C2036 0.960 . S
C2024 H2016 0.929 . S
C2024 C2025 1.377 . S
C2024 C2026 1.384 . S
C2025 C2024 1.377 . S
C2025 C2031 1.390 . S
C2026 H2017 0.930 . S
C2026 C2024 1.384 . S
C2026 C2027 1.372 . S
C2027 C2026 1.372 . S
C2027 C2028 1.400 . S
C2027 C2032 1.490 . S
C2028 H2018 0.930 . S
C2028 C2027 1.400 . S
C2028 C2031 1.386 . S
H2029 C2045 0.930 . S
H2030 C2046 0.931 . S
C2031 H2019 0.929 . S
C2031 C2025 1.390 . S
C2031 C2028 1.386 . S
C2032 C2027 1.490 . S
C2032 C2034 1.395 . S
C2032 C2035 1.403 . S
H2033 C2039 0.930 . S
C2034 H2020 0.930 . S
C2034 C2032 1.395 . S
C2034 C2037 1.403 . S
C2035 C2032 1.403 . S
C2035 C2036 1.524 . S
C2035 C2039 1.400 . S
C2036 H2021 0.960 . S
C2036 H2022 0.960 . S
C2036 H2023 0.960 . S
C2036 C2035 1.524 . S
C2037 C2034 1.403 . S
C2037 C2038 1.392 . S
C2037 C2041 1.495 . S
C2038 C2037 1.392 . S
C2038 C2039 1.385 . S
C2038 C2040 1.478 . S
C2039 H2033 0.930 . S
C2039 C2035 1.400 . S
C2039 C2038 1.385 . S
C2040 C2038 1.478 . S
C2040 C2042 1.381 . S
C2040 C2046 1.383 . S
C2041 C2037 1.495 . S
C2041 H2047 0.959 . S
C2041 H2048 0.961 . S
C2041 H2049 0.960 . S
C2042 C2040 1.381 . S
C2042 C2043 1.394 . S
C2042 H2050 0.930 . S
C2043 C2042 1.394 . S
C2043 C2044 1.383 . S
C2043 H2051 0.929 . S
C2044 C2043 1.383 . S
C2044 C2045 1.377 . S
C2045 H2029 0.930 . S
C2045 C2044 1.377 . S
C2045 C2046 1.379 . S
C2046 H2030 0.931 . S
C2046 C2040 1.383 . S
C2046 C2045 1.379 . S
H2047 C2041 0.959 . S
H2048 C2041 0.961 . S
H2049 C2041 0.960 . S
H2050 C2042 0.930 . S
H2051 C2043 0.929 . S
H2052 C2060 0.929 . S
H2053 C2062 0.930 . S
H2054 C2064 0.930 . S
H2055 C2067 0.929 . S
H2056 C2070 0.930 . S
H2057 C2072 0.960 . S
H2058 C2072 0.960 . S
H2059 C2072 0.960 . S
C2060 H2052 0.929 . S
C2060 C2061 1.377 . S
C2060 C2062 1.384 . S
C2061 C2060 1.377 . S
C2061 C2067 1.390 . S
C2062 H2053 0.930 . S
C2062 C2060 1.384 . S
C2062 C2063 1.372 . S
C2063 C2062 1.372 . S
C2063 C2064 1.400 . S
C2063 C2068 1.490 . S
C2064 H2054 0.930 . S
C2064 C2063 1.400 . S
C2064 C2067 1.386 . S
H2065 C2081 0.930 . S
H2066 C2082 0.931 . S
C2067 H2055 0.929 . S
C2067 C2061 1.390 . S
C2067 C2064 1.386 . S
C2068 C2063 1.490 . S
C2068 C2070 1.395 . S
C2068 C2071 1.403 . S
H2069 C2075 0.930 . S
C2070 H2056 0.930 . S
C2070 C2068 1.395 . S
C2070 C2073 1.403 . S
C2071 C2068 1.403 . S
C2071 C2072 1.524 . S
C2071 C2075 1.400 . S
C2072 H2057 0.960 . S
C2072 H2058 0.960 . S
C2072 H2059 0.960 . S
C2072 C2071 1.524 . S
C2073 C2070 1.403 . S
C2073 C2074 1.392 . S
C2073 C2077 1.495 . S
C2074 C2073 1.392 . S
C2074 C2075 1.385 . S
C2074 C2076 1.478 . S
C2075 H2069 0.930 . S
C2075 C2071 1.400 . S
C2075 C2074 1.385 . S
C2076 C2074 1.478 . S
C2076 C2078 1.381 . S
C2076 C2082 1.383 . S
C2077 C2073 1.495 . S
C2077 H2083 0.959 . S
C2077 H2084 0.961 . S
C2077 H2085 0.960 . S
C2078 C2076 1.381 . S
C2078 C2079 1.394 . S
C2078 H2086 0.930 . S
C2079 C2078 1.394 . S
C2079 C2080 1.383 . S
C2079 H2087 0.929 . S
C2080 C2079 1.383 . S
C2080 C2081 1.377 . S
C2081 H2065 0.930 . S
C2081 C2080 1.377 . S
C2081 C2082 1.379 . S
C2082 H2066 0.931 . S
C2082 C2076 1.383 . S
C2082 C2081 1.379 . S
H2083 C2077 0.959 . S
H2084 C2077 0.961 . S
H2085 C2077 0.960 . S
H2086 C2078 0.930 . S
H2087 C2079 0.929 . S
H2088 C2096 0.929 . S
H2089 C2098 0.930 . S
H2090 C2100 0.930 . S
H2091 C2103 0.929 . S
H2092 C2106 0.930 . S
H2093 C2108 0.960 . S
H2094 C2108 0.960 . S
H2095 C2108 0.960 . S
C2096 H2088 0.929 . S
C2096 C2097 1.377 . S
C2096 C2098 1.384 . S
C2097 C2096 1.377 . S
C2097 C2103 1.390 . S
C2098 H2089 0.930 . S
C2098 C2096 1.384 . S
C2098 C2099 1.372 . S
C2099 C2098 1.372 . S
C2099 C2100 1.400 . S
C2099 C2104 1.490 . S
C2100 H2090 0.930 . S
C2100 C2099 1.400 . S
C2100 C2103 1.386 . S
H2101 C2117 0.930 . S
H2102 C2118 0.931 . S
C2103 H2091 0.929 . S
C2103 C2097 1.390 . S
C2103 C2100 1.386 . S
C2104 C2099 1.490 . S
C2104 C2106 1.395 . S
C2104 C2107 1.403 . S
H2105 C2111 0.930 . S
C2106 H2092 0.930 . S
C2106 C2104 1.395 . S
C2106 C2109 1.403 . S
C2107 C2104 1.403 . S
C2107 C2108 1.524 . S
C2107 C2111 1.400 . S
C2108 H2093 0.960 . S
C2108 H2094 0.960 . S
C2108 H2095 0.960 . S
C2108 C2107 1.524 . S
C2109 C2106 1.403 . S
C2109 C2110 1.392 . S
C2109 C2113 1.495 . S
C2110 C2109 1.392 . S
C2110 C2111 1.385 . S
C2110 C2112 1.478 . S
C2111 H2105 0.930 . S
C2111 C2107 1.400 . S
C2111 C2110 1.385 . S
C2112 C2110 1.478 . S
C2112 C2114 1.381 . S
C2112 C2118 1.383 . S
C2113 C2109 1.495 . S
C2113 H2119 0.959 . S
C2113 H2120 0.961 . S
C2113 H2121 0.960 . S
C2114 C2112 1.381 . S
C2114 C2115 1.394 . S
C2114 H2122 0.930 . S
C2115 C2114 1.394 . S
C2115 C2116 1.383 . S
C2115 H2123 0.929 . S
C2116 C2115 1.383 . S
C2116 C2117 1.377 . S
C2117 H2101 0.930 . S
C2117 C2116 1.377 . S
C2117 C2118 1.379 . S
C2118 H2102 0.931 . S
C2118 C2112 1.383 . S
C2118 C2117 1.379 . S
H2119 C2113 0.959 . S
H2120 C2113 0.961 . S
H2121 C2113 0.960 . S
H2122 C2114 0.930 . S
H2123 C2115 0.929 . S
H2124 C2132 0.929 . S
H2125 C2134 0.930 . S
H2126 C2136 0.930 . S
H2127 C2139 0.929 . S
H2128 C2142 0.930 . S
H2129 C2144 0.960 . S
H2130 C2144 0.960 . S
H2131 C2144 0.960 . S
C2132 H2124 0.929 . S
C2132 C2133 1.377 . S
C2132 C2134 1.384 . S
C2133 C2132 1.377 . S
C2133 C2139 1.390 . S
C2134 H2125 0.930 . S
C2134 C2132 1.384 . S
C2134 C2135 1.372 . S
C2135 C2134 1.372 . S
C2135 C2136 1.400 . S
C2135 C2140 1.490 . S
C2136 H2126 0.930 . S
C2136 C2135 1.400 . S
C2136 C2139 1.386 . S
H2137 C2153 0.930 . S
H2138 C2154 0.931 . S
C2139 H2127 0.929 . S
C2139 C2133 1.390 . S
C2139 C2136 1.386 . S
C2140 C2135 1.490 . S
C2140 C2142 1.395 . S
C2140 C2143 1.403 . S
H2141 C2147 0.930 . S
C2142 H2128 0.930 . S
C2142 C2140 1.395 . S
C2142 C2145 1.403 . S
C2143 C2140 1.403 . S
C2143 C2144 1.524 . S
C2143 C2147 1.400 . S
C2144 H2129 0.960 . S
C2144 H2130 0.960 . S
C2144 H2131 0.960 . S
C2144 C2143 1.524 . S
C2145 C2142 1.403 . S
C2145 C2146 1.392 . S
C2145 C2149 1.495 . S
C2146 C2145 1.392 . S
C2146 C2147 1.385 . S
C2146 C2148 1.478 . S
C2147 H2141 0.930 . S
C2147 C2143 1.400 . S
C2147 C2146 1.385 . S
C2148 C2146 1.478 . S
C2148 C2150 1.381 . S
C2148 C2154 1.383 . S
C2149 C2145 1.495 . S
C2149 H2155 0.959 . S
C2149 H2156 0.961 . S
C2149 H2157 0.960 . S
C2150 C2148 1.381 . S
C2150 C2151 1.394 . S
C2150 H2158 0.930 . S
C2151 C2150 1.394 . S
C2151 C2152 1.383 . S
C2151 H2159 0.929 . S
C2152 C2151 1.383 . S
C2152 C2153 1.377 . S
C2153 H2137 0.930 . S
C2153 C2152 1.377 . S
C2153 C2154 1.379 . S
C2154 H2138 0.931 . S
C2154 C2148 1.383 . S
C2154 C2153 1.379 . S
H2155 C2149 0.959 . S
H2156 C2149 0.961 . S
H2157 C2149 0.960 . S
H2158 C2150 0.930 . S
H2159 C2151 0.929 . S
H2160 C2168 0.929 . S
H2161 C2170 0.930 . S
H2162 C2172 0.930 . S
H2163 C2175 0.929 . S
H2164 C2178 0.930 . S
H2165 C2180 0.960 . S
H2166 C2180 0.960 . S
H2167 C2180 0.960 . S
C2168 H2160 0.929 . S
C2168 C2169 1.377 . S
C2168 C2170 1.384 . S
C2169 C2168 1.377 . S
C2169 C2175 1.390 . S
C2170 H2161 0.930 . S
C2170 C2168 1.384 . S
C2170 C2171 1.372 . S
C2171 C2170 1.372 . S
C2171 C2172 1.400 . S
C2171 C2176 1.490 . S
C2172 H2162 0.930 . S
C2172 C2171 1.400 . S
C2172 C2175 1.386 . S
H2173 C2189 0.930 . S
H2174 C2190 0.931 . S
C2175 H2163 0.929 . S
C2175 C2169 1.390 . S
C2175 C2172 1.386 . S
C2176 C2171 1.490 . S
C2176 C2178 1.395 . S
C2176 C2179 1.403 . S
H2177 C2183 0.930 . S
C2178 H2164 0.930 . S
C2178 C2176 1.395 . S
C2178 C2181 1.403 . S
C2179 C2176 1.403 . S
C2179 C2180 1.524 . S
C2179 C2183 1.400 . S
C2180 H2165 0.960 . S
C2180 H2166 0.960 . S
C2180 H2167 0.960 . S
C2180 C2179 1.524 . S
C2181 C2178 1.403 . S
C2181 C2182 1.392 . S
C2181 C2185 1.495 . S
C2182 C2181 1.392 . S
C2182 C2183 1.385 . S
C2182 C2184 1.478 . S
C2183 H2177 0.930 . S
C2183 C2179 1.400 . S
C2183 C2182 1.385 . S
C2184 C2182 1.478 . S
C2184 C2186 1.381 . S
C2184 C2190 1.383 . S
C2185 C2181 1.495 . S
C2185 H2191 0.959 . S
C2185 H2192 0.961 . S
C2185 H2193 0.960 . S
C2186 C2184 1.381 . S
C2186 C2187 1.394 . S
C2186 H2194 0.930 . S
C2187 C2186 1.394 . S
C2187 C2188 1.383 . S
C2187 H2195 0.929 . S
C2188 C2187 1.383 . S
C2188 C2189 1.377 . S
C2189 H2173 0.930 . S
C2189 C2188 1.377 . S
C2189 C2190 1.379 . S
C2190 H2174 0.931 . S
C2190 C2184 1.383 . S
C2190 C2189 1.379 . S
H2191 C2185 0.959 . S
H2192 C2185 0.961 . S
H2193 C2185 0.960 . S
H2194 C2186 0.930 . S
H2195 C2187 0.929 . S
H2196 C2204 0.929 . S
H2197 C2206 0.930 . S
H2198 C2208 0.930 . S
H2199 C2211 0.929 . S
H2200 C2214 0.930 . S
H2201 C2216 0.960 . S
H2202 C2216 0.960 . S
H2203 C2216 0.960 . S
C2204 H2196 0.929 . S
C2204 C2205 1.377 . S
C2204 C2206 1.384 . S
C2205 C2204 1.377 . S
C2205 C2211 1.390 . S
C2206 H2197 0.930 . S
C2206 C2204 1.384 . S
C2206 C2207 1.372 . S
C2207 C2206 1.372 . S
C2207 C2208 1.400 . S
C2207 C2212 1.490 . S
C2208 H2198 0.930 . S
C2208 C2207 1.400 . S
C2208 C2211 1.386 . S
H2209 C2225 0.926 1_554 S
H2210 C2226 0.931 . S
C2211 H2199 0.929 . S
C2211 C2205 1.390 . S
C2211 C2208 1.386 . S
C2212 C2207 1.490 . S
C2212 C2214 1.395 . S
C2212 C2215 1.403 . S
H2213 C2219 0.930 . S
C2214 H2200 0.930 . S
C2214 C2212 1.395 . S
C2214 C2217 1.403 . S
C2215 C2212 1.403 . S
C2215 C2216 1.524 . S
C2215 C2219 1.400 . S
C2216 H2201 0.960 . S
C2216 H2202 0.960 . S
C2216 H2203 0.960 . S
C2216 C2215 1.524 . S
C2217 C2214 1.403 . S
C2217 C2218 1.392 . S
C2217 C2221 1.495 . S
C2218 C2217 1.392 . S
C2218 C2219 1.385 . S
C2218 C2220 1.478 . S
C2219 H2213 0.930 . S
C2219 C2215 1.400 . S
C2219 C2218 1.385 . S
C2220 C2218 1.478 . S
C2220 C2222 1.381 . S
C2220 C2226 1.383 . S
C2221 C2217 1.495 . S
C2221 H2227 0.959 . S
C2221 H2228 0.961 . S
C2221 H2229 0.960 . S
C2222 C2220 1.381 . S
C2222 C2223 1.379 1_556 S
C2222 H2230 0.930 . S
C2223 C2222 1.379 1_554 S
C2223 C2224 1.391 . S
C2223 H2231 0.937 . S
C2224 C2223 1.391 . S
C2224 C2225 1.373 1_554 S
C2225 H2209 0.926 1_556 S
C2225 C2224 1.373 1_556 S
C2225 C2226 1.386 . S
C2226 H2210 0.931 . S
C2226 C2220 1.383 . S
C2226 C2225 1.386 . S
H2227 C2221 0.959 . S
H2228 C2221 0.961 . S
H2229 C2221 0.960 . S
H2230 C2222 0.930 . S
H2231 C2223 0.937 . S
H2232 C2240 0.929 . S
H2233 C2242 0.930 . S
H2234 C2244 0.930 . S
H2235 C2247 0.929 . S
H2236 C2250 0.930 . S
H2237 C2252 0.960 . S
H2238 C2252 0.960 . S
H2239 C2252 0.960 . S
C2240 H2232 0.929 . S
C2240 C2241 1.377 1_556 S
C2240 C2242 1.384 . S
C2241 C2240 1.377 1_554 S
C2241 C2247 1.390 . S
C2242 H2233 0.930 . S
C2242 C2240 1.384 . S
C2242 C2243 1.372 . S
C2243 C2242 1.372 . S
C2243 C2244 1.400 . S
C2243 C2248 1.490 . S
C2244 H2234 0.930 . S
C2244 C2243 1.400 . S
C2244 C2247 1.386 1_556 S
H2245 C2261 0.930 . S
H2246 C2262 0.931 . S
C2247 H2235 0.929 . S
C2247 C2241 1.390 . S
C2247 C2244 1.386 1_554 S
C2248 C2243 1.490 . S
C2248 C2250 1.395 . S
C2248 C2251 1.403 . S
H2249 C2255 0.930 . S
C2250 H2236 0.930 . S
C2250 C2248 1.395 . S
C2250 C2253 1.403 . S
C2251 C2248 1.403 . S
C2251 C2252 1.524 . S
C2251 C2255 1.400 . S
C2252 H2237 0.960 . S
C2252 H2238 0.960 . S
C2252 H2239 0.960 . S
C2252 C2251 1.524 . S
C2253 C2250 1.403 . S
C2253 C2254 1.392 . S
C2253 C2257 1.495 . S
C2254 C2253 1.392 . S
C2254 C2255 1.385 . S
C2254 C2256 1.478 . S
C2255 H2249 0.930 . S
C2255 C2251 1.400 . S
C2255 C2254 1.385 . S
C2256 C2254 1.478 . S
C2256 C2258 1.381 . S
C2256 C2262 1.383 . S
C2257 C2253 1.495 . S
C2257 H2263 0.959 . S
C2257 H2264 0.961 . S
C2257 H2265 0.960 . S
C2258 C2256 1.381 . S
C2258 C2259 1.394 . S
C2258 H2266 0.930 . S
C2259 C2258 1.394 . S
C2259 C2260 1.383 . S
C2259 H2267 0.929 . S
C2260 C2259 1.383 . S
C2260 C2261 1.377 . S
C2261 H2245 0.930 . S
C2261 C2260 1.377 . S
C2261 C2262 1.379 . S
C2262 H2246 0.931 . S
C2262 C2256 1.383 . S
C2262 C2261 1.379 . S
H2263 C2257 0.959 . S
H2264 C2257 0.961 . S
H2265 C2257 0.960 . S
H2266 C2258 0.930 . S
H2267 C2259 0.929 . S
H2268 C2276 0.929 . S
H2269 C2278 0.930 . S
H2270 C2280 0.930 . S
H2271 C2283 0.929 . S
H2272 C2286 0.930 . S
H2273 C2288 0.960 . S
H2274 C2288 0.960 . S
H2275 C2288 0.960 . S
C2276 H2268 0.929 . S
C2276 C2277 1.377 . S
C2276 C2278 1.384 . S
C2277 C2276 1.377 . S
C2277 C2283 1.390 . S
C2278 H2269 0.930 . S
C2278 C2276 1.384 . S
C2278 C2279 1.372 . S
C2279 C2278 1.372 . S
C2279 C2280 1.400 . S
C2279 C2284 1.490 . S
C2280 H2270 0.930 . S
C2280 C2279 1.400 . S
C2280 C2283 1.386 . S
H2281 C2297 0.930 . S
H2282 C2298 0.931 . S
C2283 H2271 0.929 . S
C2283 C2277 1.390 . S
C2283 C2280 1.386 . S
C2284 C2279 1.490 . S
C2284 C2286 1.395 . S
C2284 C2287 1.403 . S
H2285 C2291 0.930 . S
C2286 H2272 0.930 . S
C2286 C2284 1.395 . S
C2286 C2289 1.403 . S
C2287 C2284 1.403 . S
C2287 C2288 1.524 . S
C2287 C2291 1.400 . S
C2288 H2273 0.960 . S
C2288 H2274 0.960 . S
C2288 H2275 0.960 . S
C2288 C2287 1.524 . S
C2289 C2286 1.403 . S
C2289 C2290 1.392 . S
C2289 C2293 1.495 . S
C2290 C2289 1.392 . S
C2290 C2291 1.385 . S
C2290 C2292 1.478 . S
C2291 H2285 0.930 . S
C2291 C2287 1.400 . S
C2291 C2290 1.385 . S
C2292 C2290 1.478 . S
C2292 C2294 1.381 . S
C2292 C2298 1.383 . S
C2293 C2289 1.495 . S
C2293 H2299 0.959 . S
C2293 H2300 0.961 . S
C2293 H2301 0.960 . S
C2294 C2292 1.381 . S
C2294 C2295 1.394 . S
C2294 H2302 0.930 . S
C2295 C2294 1.394 . S
C2295 C2296 1.383 1_556 S
C2295 H2303 0.929 . S
C2296 C2295 1.383 1_554 S
C2296 C2297 1.377 . S
C2297 H2281 0.930 . S
C2297 C2296 1.377 . S
C2297 C2298 1.379 1_554 S
C2298 H2282 0.931 . S
C2298 C2292 1.383 . S
C2298 C2297 1.379 1_556 S
H2299 C2293 0.959 . S
H2300 C2293 0.961 . S
H2301 C2293 0.960 . S
H2302 C2294 0.930 . S
H2303 C2295 0.929 . S
H2304 C2312 0.929 . S
H2305 C2314 0.930 . S
H2306 C2316 0.930 . S
H2307 C2319 0.929 . S
H2308 C2322 0.930 . S
H2309 C2324 0.960 . S
H2310 C2324 0.960 . S
H2311 C2324 0.960 . S
C2312 H2304 0.929 . S
C2312 C2313 1.377 . S
C2312 C2314 1.384 . S
C2313 C2312 1.377 . S
C2313 C2319 1.390 . S
C2314 H2305 0.930 . S
C2314 C2312 1.384 . S
C2314 C2315 1.372 . S
C2315 C2314 1.372 . S
C2315 C2316 1.400 . S
C2315 C2320 1.490 . S
C2316 H2306 0.930 . S
C2316 C2315 1.400 . S
C2316 C2319 1.386 . S
H2317 C2333 0.930 . S
H2318 C2334 0.931 1_556 S
C2319 H2307 0.929 . S
C2319 C2313 1.390 . S
C2319 C2316 1.386 . S
C2320 C2315 1.490 . S
C2320 C2322 1.395 . S
C2320 C2323 1.403 . S
H2321 C2327 0.930 . S
C2322 H2308 0.930 . S
C2322 C2320 1.395 . S
C2322 C2325 1.403 1_556 S
C2323 C2320 1.403 . S
C2323 C2324 1.524 . S
C2323 C2327 1.400 . S
C2324 H2309 0.960 . S
C2324 H2310 0.960 . S
C2324 H2311 0.960 . S
C2324 C2323 1.524 . S
C2325 C2322 1.403 1_554 S
C2325 C2326 1.392 1_554 S
C2325 C2329 1.495 . S
C2326 C2325 1.392 1_556 S
C2326 C2327 1.387 . S
C2326 C2328 1.476 1_556 S
C2327 H2321 0.930 . S
C2327 C2323 1.400 . S
C2327 C2326 1.387 . S
C2328 C2326 1.476 1_554 S
C2328 C2330 1.381 . S
C2328 C2334 1.383 . S
C2329 C2325 1.495 . S
C2329 H2335 0.959 . S
C2329 H2336 0.961 . S
C2329 H2337 0.960 . S
C2330 C2328 1.381 . S
C2330 C2331 1.394 . S
C2330 H2338 0.930 . S
C2331 C2330 1.394 . S
C2331 C2332 1.383 . S
C2331 H2339 0.929 . S
C2332 C2331 1.383 . S
C2332 C2333 1.377 . S
C2333 H2317 0.930 . S
C2333 C2332 1.377 . S
C2333 C2334 1.379 . S
C2334 H2318 0.931 1_554 S
C2334 C2328 1.383 . S
C2334 C2333 1.379 . S
H2335 C2329 0.959 . S
H2336 C2329 0.961 . S
H2337 C2329 0.960 . S
H2338 C2330 0.930 . S
H2339 C2331 0.929 . S
H2340 C2348 0.929 . S
H2341 C2350 0.930 . S
H2342 C2352 0.930 . S
H2343 C2355 0.929 . S
H2344 C2358 0.930 . S
H2345 C2360 0.960 . S
H2346 C2360 0.960 . S
H2347 C2360 0.960 . S
C2348 H2340 0.929 . S
C2348 C2349 1.377 . S
C2348 C2350 1.384 . S
C2349 C2348 1.377 . S
C2349 C2355 1.390 . S
C2350 H2341 0.930 . S
C2350 C2348 1.384 . S
C2350 C2351 1.372 . S
C2351 C2350 1.372 . S
C2351 C2352 1.400 . S
C2351 C2356 1.490 . S
C2352 H2342 0.930 . S
C2352 C2351 1.400 . S
C2352 C2355 1.386 . S
H2353 C2369 0.930 . S
H2354 C2370 0.931 . S
C2355 H2343 0.929 . S
C2355 C2349 1.390 . S
C2355 C2352 1.386 . S
C2356 C2351 1.490 . S
C2356 C2358 1.395 . S
C2356 C2359 1.403 . S
H2357 C2363 0.930 . S
C2358 H2344 0.930 . S
C2358 C2356 1.395 . S
C2358 C2361 1.403 1_556 S
C2359 C2356 1.403 . S
C2359 C2360 1.524 . S
C2359 C2363 1.400 . S
C2360 H2345 0.960 . S
C2360 H2346 0.960 . S
C2360 H2347 0.960 . S
C2360 C2359 1.524 . S
C2361 C2358 1.403 1_554 S
C2361 C2362 1.392 1_554 S
C2361 C2365 1.495 . S
C2362 C2361 1.392 1_556 S
C2362 C2363 1.385 . S
C2362 C2364 1.478 1_556 S
C2363 H2357 0.930 . S
C2363 C2359 1.400 . S
C2363 C2362 1.385 . S
C2364 C2362 1.478 1_554 S
C2364 C2366 1.381 . S
C2364 C2370 1.383 . S
C2365 C2361 1.495 . S
C2365 H2371 0.959 . S
C2365 H2372 0.961 . S
C2365 H2373 0.960 . S
C2366 C2364 1.381 . S
C2366 C2367 1.394 . S
C2366 H2374 0.930 . S
C2367 C2366 1.394 . S
C2367 C2368 1.383 . S
C2367 H2375 0.929 . S
C2368 C2367 1.383 . S
C2368 C2369 1.377 . S
C2369 H2353 0.930 . S
C2369 C2368 1.377 . S
C2369 C2370 1.379 . S
C2370 H2354 0.931 . S
C2370 C2364 1.383 . S
C2370 C2369 1.379 . S
H2371 C2365 0.959 . S
H2372 C2365 0.961 . S
H2373 C2365 0.960 . S
H2374 C2366 0.930 . S
H2375 C2367 0.929 . S
H2376 C2384 0.929 . S
H2377 C2386 0.930 . S
H2378 C2388 0.930 . S
H2379 C2391 0.929 . S
H2380 C2394 0.930 . S
H2381 C2396 0.960 . S
H2382 C2396 0.960 . S
H2383 C2396 0.960 . S
C2384 H2376 0.929 . S
C2384 C2385 1.377 . S
C2384 C2386 1.384 . S
C2385 C2384 1.377 . S
C2385 C2391 1.390 . S
C2386 H2377 0.930 . S
C2386 C2384 1.384 . S
C2386 C2387 1.372 . S
C2387 C2386 1.372 . S
C2387 C2388 1.400 . S
C2387 C2392 1.490 . S
C2388 H2378 0.930 . S
C2388 C2387 1.400 . S
C2388 C2391 1.386 . S
H2389 C2405 0.930 . S
H2390 C2406 0.931 . S
C2391 H2379 0.929 . S
C2391 C2385 1.390 . S
C2391 C2388 1.386 . S
C2392 C2387 1.490 . S
C2392 C2394 1.395 . S
C2392 C2395 1.403 . S
H2393 C2399 0.930 . S
C2394 H2380 0.930 . S
C2394 C2392 1.395 . S
C2394 C2397 1.403 1_556 S
C2395 C2392 1.403 . S
C2395 C2396 1.524 . S
C2395 C2399 1.400 . S
C2396 H2381 0.960 . S
C2396 H2382 0.960 . S
C2396 H2383 0.960 . S
C2396 C2395 1.524 . S
C2397 C2394 1.403 1_554 S
C2397 C2398 1.392 1_554 S
C2397 C2401 1.495 . S
C2398 C2397 1.392 1_556 S
C2398 C2399 1.385 . S
C2398 C2400 1.478 1_556 S
C2399 H2393 0.930 . S
C2399 C2395 1.400 . S
C2399 C2398 1.385 . S
C2400 C2398 1.478 1_554 S
C2400 C2402 1.381 . S
C2400 C2406 1.383 . S
C2401 C2397 1.495 . S
C2401 H2407 0.959 . S
C2401 H2408 0.961 . S
C2401 H2409 0.960 . S
C2402 C2400 1.381 . S
C2402 C2403 1.394 . S
C2402 H2410 0.930 . S
C2403 C2402 1.394 . S
C2403 C2404 1.383 . S
C2403 H2411 0.929 . S
C2404 C2403 1.383 . S
C2404 C2405 1.377 . S
C2405 H2389 0.930 . S
C2405 C2404 1.377 . S
C2405 C2406 1.379 . S
C2406 H2390 0.931 . S
C2406 C2400 1.383 . S
C2406 C2405 1.379 . S
H2407 C2401 0.959 . S
H2408 C2401 0.961 . S
H2409 C2401 0.960 . S
H2410 C2402 0.930 . S
H2411 C2403 0.929 . S
H2412 C2420 0.929 . S
H2413 C2422 0.930 . S
H2414 C2424 0.930 . S
H2415 C2427 0.929 . S
H2416 C2430 0.930 . S
H2417 C2432 0.960 1_554 S
H2418 C2432 0.960 . S
H2419 C2432 0.960 . S
C2420 H2412 0.929 . S
C2420 C2421 1.377 . S
C2420 C2422 1.384 . S
C2421 C2420 1.377 . S
C2421 C2427 1.390 . S
C2422 H2413 0.930 . S
C2422 C2420 1.384 . S
C2422 C2423 1.372 . S
C2423 C2422 1.372 . S
C2423 C2424 1.400 . S
C2423 C2428 1.490 . S
C2424 H2414 0.930 . S
C2424 C2423 1.400 . S
C2424 C2427 1.386 . S
H2425 C2441 0.930 1_554 S
H2426 C2442 0.931 . S
C2427 H2415 0.929 . S
C2427 C2421 1.390 . S
C2427 C2424 1.386 . S
C2428 C2423 1.490 . S
C2428 C2430 1.395 . S
C2428 C2431 1.403 . S
H2429 C2435 0.930 . S
C2430 H2416 0.930 . S
C2430 C2428 1.395 . S
C2430 C2433 1.403 . S
C2431 C2428 1.403 . S
C2431 C2432 1.524 . S
C2431 C2435 1.400 . S
C2432 H2417 0.960 1_556 S
C2432 H2418 0.960 . S
C2432 H2419 0.960 . S
C2432 C2431 1.524 . S
C2433 C2430 1.403 . S
C2433 C2434 1.392 . S
C2433 C2437 1.495 . S
C2434 C2433 1.392 . S
C2434 C2435 1.385 . S
C2434 C2436 1.478 . S
C2435 H2429 0.930 . S
C2435 C2431 1.400 . S
C2435 C2434 1.385 . S
C2436 C2434 1.478 . S
C2436 C2438 1.381 . S
C2436 C2442 1.383 . S
C2437 C2433 1.495 . S
C2437 H2443 0.959 . S
C2437 H2444 0.961 . S
C2437 H2445 0.960 . S
C2438 C2436 1.381 . S
C2438 C2439 1.394 . S
C2438 H2446 0.930 . S
C2439 C2438 1.394 . S
C2439 C2440 1.383 1_556 S
C2439 H2447 0.929 . S
C2440 C2439 1.383 1_554 S
C2440 C2441 1.377 1_554 S
C2441 H2425 0.930 1_556 S
C2441 C2440 1.377 1_556 S
C2441 C2442 1.379 . S
C2442 H2426 0.931 . S
C2442 C2436 1.383 . S
C2442 C2441 1.379 . S
H2443 C2437 0.959 . S
H2444 C2437 0.961 . S
H2445 C2437 0.960 . S
H2446 C2438 0.930 . S
H2447 C2439 0.929 . S
H2448 C2456 0.929 . S
H2449 C2458 0.930 . S
H2450 C2460 0.930 . S
H2451 C2463 0.929 . S
H2452 C2466 0.930 . S
H2453 C2468 0.960 . S
H2454 C2468 0.960 . S
H2455 C2468 0.960 . S
C2456 H2448 0.929 . S
C2456 C2457 1.377 . S
C2456 C2458 1.384 . S
C2457 C2456 1.377 . S
C2457 C2463 1.390 1_554 S
C2458 H2449 0.930 . S
C2458 C2456 1.384 . S
C2458 C2459 1.372 1_554 S
C2459 C2458 1.372 1_556 S
C2459 C2460 1.400 . S
C2459 C2464 1.490 . S
C2460 H2450 0.930 . S
C2460 C2459 1.400 . S
C2460 C2463 1.386 . S
H2461 C2477 0.930 . S
H2462 C2478 0.931 . S
C2463 H2451 0.929 . S
C2463 C2457 1.390 1_556 S
C2463 C2460 1.386 . S
C2464 C2459 1.490 . S
C2464 C2466 1.395 . S
C2464 C2467 1.403 . S
H2465 C2471 0.930 . S
C2466 H2452 0.930 . S
C2466 C2464 1.395 . S
C2466 C2469 1.403 . S
C2467 C2464 1.403 . S
C2467 C2468 1.524 . S
C2467 C2471 1.400 . S
C2468 H2453 0.960 . S
C2468 H2454 0.960 . S
C2468 H2455 0.960 . S
C2468 C2467 1.524 . S
C2469 C2466 1.403 . S
C2469 C2470 1.392 . S
C2469 C2473 1.495 . S
C2470 C2469 1.392 . S
C2470 C2471 1.385 . S
C2470 C2472 1.478 . S
C2471 H2465 0.930 . S
C2471 C2467 1.400 . S
C2471 C2470 1.385 . S
C2472 C2470 1.478 . S
C2472 C2474 1.381 . S
C2472 C2478 1.383 . S
C2473 C2469 1.495 . S
C2473 H2479 0.959 . S
C2473 H2480 0.961 . S
C2473 H2481 0.960 . S
C2474 C2472 1.381 . S
C2474 C2475 1.394 . S
C2474 H2482 0.930 . S
C2475 C2474 1.394 . S
C2475 C2476 1.383 . S
C2475 H2483 0.929 . S
C2476 C2475 1.383 . S
C2476 C2477 1.377 . S
C2477 H2461 0.930 . S
C2477 C2476 1.377 . S
C2477 C2478 1.379 . S
C2478 H2462 0.931 . S
C2478 C2472 1.383 . S
C2478 C2477 1.379 . S
H2479 C2473 0.959 . S
H2480 C2473 0.961 . S
H2481 C2473 0.960 . S
H2482 C2474 0.930 . S
H2483 C2475 0.929 . S
H2484 C2492 0.929 . S
H2485 C2494 0.930 . S
H2486 C2496 0.930 . S
H2487 C2499 0.929 . S
H2488 C2502 0.930 . S
H2489 C2504 0.960 . S
H2490 C2504 0.960 . S
H2491 C2504 0.960 . S
C2492 H2484 0.929 . S
C2492 C2493 1.377 . S
C2492 C2494 1.384 . S
C2493 C2492 1.377 . S
C2493 C2499 1.390 . S
C2494 H2485 0.930 . S
C2494 C2492 1.384 . S
C2494 C2495 1.372 . S
C2495 C2494 1.372 . S
C2495 C2496 1.400 . S
C2495 C2500 1.490 . S
C2496 H2486 0.930 . S
C2496 C2495 1.400 . S
C2496 C2499 1.386 . S
H2497 C2513 0.927 1_554 S
H2498 C2514 0.931 . S
C2499 H2487 0.929 . S
C2499 C2493 1.390 . S
C2499 C2496 1.386 . S
C2500 C2495 1.490 . S
C2500 C2502 1.395 . S
C2500 C2503 1.403 . S
H2501 C2507 0.930 . S
C2502 H2488 0.930 . S
C2502 C2500 1.395 . S
C2502 C2505 1.403 . S
C2503 C2500 1.403 . S
C2503 C2504 1.524 . S
C2503 C2507 1.400 . S
C2504 H2489 0.960 . S
C2504 H2490 0.960 . S
C2504 H2491 0.960 . S
C2504 C2503 1.524 . S
C2505 C2502 1.403 . S
C2505 C2506 1.392 . S
C2505 C2509 1.495 1_556 S
C2506 C2505 1.392 . S
C2506 C2507 1.385 . S
C2506 C2508 1.478 . S
C2507 H2501 0.930 . S
C2507 C2503 1.400 . S
C2507 C2506 1.385 . S
C2508 C2506 1.478 . S
C2508 C2510 1.381 . S
C2508 C2514 1.383 . S
C2509 C2505 1.495 1_554 S
C2509 H2515 0.959 . S
C2509 H2516 0.961 . S
C2509 H2517 0.960 . S
C2510 C2508 1.381 . S
C2510 C2511 1.394 . S
C2510 H2518 0.930 . S
C2511 C2510 1.394 . S
C2511 C2512 1.383 1_556 S
C2511 H2519 0.929 1_556 S
C2512 C2511 1.383 1_554 S
C2512 C2513 1.375 1_554 S
C2513 H2497 0.927 1_556 S
C2513 C2512 1.375 1_556 S
C2513 C2514 1.384 . S
C2514 H2498 0.931 . S
C2514 C2508 1.383 . S
C2514 C2513 1.384 . S
H2515 C2509 0.959 . S
H2516 C2509 0.961 . S
H2517 C2509 0.960 . S
H2518 C2510 0.930 . S
H2519 C2511 0.929 1_554 S
H2520 C2528 0.929 . S
H2521 C2530 0.930 . S
H2522 C2532 0.930 . S
H2523 C2535 0.929 . S
H2524 C2538 0.930 . S
H2525 C2540 0.960 . S
H2526 C2540 0.960 . S
H2527 C2540 0.960 . S
C2528 H2520 0.929 . S
C2528 C2529 1.377 . S
C2528 C2530 1.384 . S
C2529 C2528 1.377 . S
C2529 C2535 1.390 . S
C2530 H2521 0.930 . S
C2530 C2528 1.384 . S
C2530 C2531 1.372 . S
C2531 C2530 1.372 . S
C2531 C2532 1.400 . S
C2531 C2536 1.490 . S
C2532 H2522 0.930 . S
C2532 C2531 1.400 . S
C2532 C2535 1.386 . S
H2533 C2549 0.930 . S
H2534 C2550 0.931 . S
C2535 H2523 0.929 . S
C2535 C2529 1.390 . S
C2535 C2532 1.386 . S
C2536 C2531 1.490 . S
C2536 C2538 1.395 . S
C2536 C2539 1.403 . S
H2537 C2543 0.930 . S
C2538 H2524 0.930 . S
C2538 C2536 1.395 . S
C2538 C2541 1.403 . S
C2539 C2536 1.403 . S
C2539 C2540 1.524 . S
C2539 C2543 1.400 . S
C2540 H2525 0.960 . S
C2540 H2526 0.960 . S
C2540 H2527 0.960 . S
C2540 C2539 1.524 . S
C2541 C2538 1.403 . S
C2541 C2542 1.392 . S
C2541 C2545 1.495 . S
C2542 C2541 1.392 . S
C2542 C2543 1.385 . S
C2542 C2544 1.478 . S
C2543 H2537 0.930 . S
C2543 C2539 1.400 . S
C2543 C2542 1.385 . S
C2544 C2542 1.478 . S
C2544 C2546 1.381 . S
C2544 C2550 1.383 . S
C2545 C2541 1.495 . S
C2545 H2551 0.959 . S
C2545 H2552 0.961 . S
C2545 H2553 0.960 . S
C2546 C2544 1.381 . S
C2546 C2547 1.394 . S
C2546 H2554 0.930 . S
C2547 C2546 1.394 . S
C2547 C2548 1.383 . S
C2547 H2555 0.929 . S
C2548 C2547 1.383 . S
C2548 C2549 1.377 . S
C2549 H2533 0.930 . S
C2549 C2548 1.377 . S
C2549 C2550 1.379 . S
C2550 H2534 0.931 . S
C2550 C2544 1.383 . S
C2550 C2549 1.379 . S
H2551 C2545 0.959 . S
H2552 C2545 0.961 . S
H2553 C2545 0.960 . S
H2554 C2546 0.930 . S
H2555 C2547 0.929 . S
H2556 C2564 0.929 . S
H2557 C2566 0.930 . S
H2558 C2568 0.930 . S
H2559 C2571 0.929 . S
H2560 C2574 0.930 . S
H2561 C2576 0.960 . S
H2562 C2576 0.960 . S
H2563 C2576 0.960 . S
C2564 H2556 0.929 . S
C2564 C2565 1.377 . S
C2564 C2566 1.384 . S
C2565 C2564 1.377 . S
C2565 C2571 1.390 . S
C2566 H2557 0.930 . S
C2566 C2564 1.384 . S
C2566 C2567 1.372 . S
C2567 C2566 1.372 . S
C2567 C2568 1.400 . S
C2567 C2572 1.490 . S
C2568 H2558 0.930 . S
C2568 C2567 1.400 . S
C2568 C2571 1.386 . S
H2569 C2585 0.930 . S
H2570 C2586 0.931 . S
C2571 H2559 0.929 . S
C2571 C2565 1.390 . S
C2571 C2568 1.386 . S
C2572 C2567 1.490 . S
C2572 C2574 1.395 . S
C2572 C2575 1.403 . S
H2573 C2579 0.930 . S
C2574 H2560 0.930 . S
C2574 C2572 1.395 . S
C2574 C2577 1.403 . S
C2575 C2572 1.403 . S
C2575 C2576 1.524 . S
C2575 C2579 1.400 . S
C2576 H2561 0.960 . S
C2576 H2562 0.960 . S
C2576 H2563 0.960 . S
C2576 C2575 1.524 . S
C2577 C2574 1.403 . S
C2577 C2578 1.392 . S
C2577 C2581 1.495 . S
C2578 C2577 1.392 . S
C2578 C2579 1.385 . S
C2578 C2580 1.478 . S
C2579 H2573 0.930 . S
C2579 C2575 1.400 . S
C2579 C2578 1.385 . S
C2580 C2578 1.478 . S
C2580 C2582 1.381 . S
C2580 C2586 1.383 . S
C2581 C2577 1.495 . S
C2581 H2587 0.959 . S
C2581 H2588 0.961 . S
C2581 H2589 0.960 . S
C2582 C2580 1.381 . S
C2582 C2583 1.394 . S
C2582 H2590 0.930 . S
C2583 C2582 1.394 . S
C2583 C2584 1.383 . S
C2583 H2591 0.929 . S
C2584 C2583 1.383 . S
C2584 C2585 1.377 . S
C2585 H2569 0.930 . S
C2585 C2584 1.377 . S
C2585 C2586 1.379 . S
C2586 H2570 0.931 . S
C2586 C2580 1.383 . S
C2586 C2585 1.379 . S
H2587 C2581 0.959 . S
H2588 C2581 0.961 . S
H2589 C2581 0.960 . S
H2590 C2582 0.930 . S
H2591 C2583 0.929 . S
H2592 C2600 0.929 . S
H2593 C2602 0.930 . S
H2594 C2604 0.930 . S
H2595 C2607 0.929 . S
H2596 C2610 0.930 . S
H2597 C2612 0.960 . S
H2598 C2612 0.960 . S
H2599 C2612 0.960 . S
C2600 H2592 0.929 . S
C2600 C2601 1.377 . S
C2600 C2602 1.384 . S
C2601 C2600 1.377 . S
C2601 C2607 1.390 . S
C2602 H2593 0.930 . S
C2602 C2600 1.384 . S
C2602 C2603 1.372 . S
C2603 C2602 1.372 . S
C2603 C2604 1.400 . S
C2603 C2608 1.490 . S
C2604 H2594 0.930 . S
C2604 C2603 1.400 . S
C2604 C2607 1.386 . S
H2605 C2621 0.930 . S
H2606 C2622 0.931 . S
C2607 H2595 0.929 . S
C2607 C2601 1.390 . S
C2607 C2604 1.386 . S
C2608 C2603 1.490 . S
C2608 C2610 1.395 . S
C2608 C2611 1.403 . S
H2609 C2615 0.930 . S
C2610 H2596 0.930 . S
C2610 C2608 1.395 . S
C2610 C2613 1.403 . S
C2611 C2608 1.403 . S
C2611 C2612 1.524 . S
C2611 C2615 1.400 . S
C2612 H2597 0.960 . S
C2612 H2598 0.960 . S
C2612 H2599 0.960 . S
C2612 C2611 1.524 . S
C2613 C2610 1.403 . S
C2613 C2614 1.392 . S
C2613 C2617 1.495 . S
C2614 C2613 1.392 . S
C2614 C2615 1.385 . S
C2614 C2616 1.478 . S
C2615 H2609 0.930 . S
C2615 C2611 1.400 . S
C2615 C2614 1.385 . S
C2616 C2614 1.478 . S
C2616 C2618 1.381 . S
C2616 C2622 1.383 . S
C2617 C2613 1.495 . S
C2617 H2623 0.959 . S
C2617 H2624 0.961 . S
C2617 H2625 0.960 . S
C2618 C2616 1.381 . S
C2618 C2619 1.394 . S
C2618 H2626 0.930 . S
C2619 C2618 1.394 . S
C2619 C2620 1.383 . S
C2619 H2627 0.929 . S
C2620 C2619 1.383 . S
C2620 C2621 1.377 . S
C2621 H2605 0.930 . S
C2621 C2620 1.377 . S
C2621 C2622 1.379 . S
C2622 H2606 0.931 . S
C2622 C2616 1.383 . S
C2622 C2621 1.379 . S
H2623 C2617 0.959 . S
H2624 C2617 0.961 . S
H2625 C2617 0.960 . S
H2626 C2618 0.930 . S
H2627 C2619 0.929 . S
H2628 C2636 0.929 . S
H2629 C2638 0.930 . S
H2630 C2640 0.930 1_556 S
H2631 C2643 0.929 . S
H2632 C2646 0.930 . S
H2633 C2648 0.960 . S
H2634 C2648 0.960 . S
H2635 C2648 0.960 . S
C2636 H2628 0.929 . S
C2636 C2637 1.377 1_554 S
C2636 C2638 1.384 . S
C2637 C2636 1.377 1_556 S
C2637 C2643 1.390 . S
C2638 H2629 0.930 . S
C2638 C2636 1.384 . S
C2638 C2639 1.372 . S
C2639 C2638 1.372 . S
C2639 C2640 1.400 . S
C2639 C2644 1.490 . S
C2640 H2630 0.930 1_554 S
C2640 C2639 1.400 . S
C2640 C2643 1.386 1_554 S
H2641 C2657 0.930 . S
H2642 C2658 0.931 . S
C2643 H2631 0.929 . S
C2643 C2637 1.390 . S
C2643 C2640 1.386 1_556 S
C2644 C2639 1.490 . S
C2644 C2646 1.395 . S
C2644 C2647 1.403 . S
H2645 C2651 0.930 . S
C2646 H2632 0.930 . S
C2646 C2644 1.395 . S
C2646 C2649 1.403 . S
C2647 C2644 1.403 . S
C2647 C2648 1.524 . S
C2647 C2651 1.400 . S
C2648 H2633 0.960 . S
C2648 H2634 0.960 . S
C2648 H2635 0.960 . S
C2648 C2647 1.524 . S
C2649 C2646 1.403 . S
C2649 C2650 1.392 . S
C2649 C2653 1.495 . S
C2650 C2649 1.392 . S
C2650 C2651 1.385 . S
C2650 C2652 1.478 . S
C2651 H2645 0.930 . S
C2651 C2647 1.400 . S
C2651 C2650 1.385 . S
C2652 C2650 1.478 . S
C2652 C2654 1.381 . S
C2652 C2658 1.383 . S
C2653 C2649 1.495 . S
C2653 H2659 0.959 . S
C2653 H2660 0.961 . S
C2653 H2661 0.960 . S
C2654 C2652 1.381 . S
C2654 C2655 1.394 . S
C2654 H2662 0.930 . S
C2655 C2654 1.394 . S
C2655 C2656 1.383 . S
C2655 H2663 0.929 . S
C2656 C2655 1.383 . S
C2656 C2657 1.377 . S
C2657 H2641 0.930 . S
C2657 C2656 1.377 . S
C2657 C2658 1.379 . S
C2658 H2642 0.931 . S
C2658 C2652 1.383 . S
C2658 C2657 1.379 . S
H2659 C2653 0.959 . S
H2660 C2653 0.961 . S
H2661 C2653 0.960 . S
H2662 C2654 0.930 . S
H2663 C2655 0.929 . S
H2664 C2672 0.929 . S
H2665 C2674 0.930 . S
H2666 C2676 0.930 . S
H2667 C2679 0.929 . S
H2668 C2682 0.930 . S
H2669 C2684 0.960 . S
H2670 C2684 0.960 . S
H2671 C2684 0.960 . S
C2672 H2664 0.929 . S
C2672 C2673 1.377 . S
C2672 C2674 1.384 . S
C2673 C2672 1.377 . S
C2673 C2679 1.390 . S
C2674 H2665 0.930 . S
C2674 C2672 1.384 . S
C2674 C2675 1.372 . S
C2675 C2674 1.372 . S
C2675 C2676 1.400 . S
C2675 C2680 1.490 . S
C2676 H2666 0.930 . S
C2676 C2675 1.400 . S
C2676 C2679 1.386 . S
H2677 C2693 0.930 . S
H2678 C2694 0.931 . S
C2679 H2667 0.929 . S
C2679 C2673 1.390 . S
C2679 C2676 1.386 . S
C2680 C2675 1.490 . S
C2680 C2682 1.395 . S
C2680 C2683 1.403 . S
H2681 C2687 0.930 . S
C2682 H2668 0.930 . S
C2682 C2680 1.395 . S
C2682 C2685 1.403 . S
C2683 C2680 1.403 . S
C2683 C2684 1.524 . S
C2683 C2687 1.400 . S
C2684 H2669 0.960 . S
C2684 H2670 0.960 . S
C2684 H2671 0.960 . S
C2684 C2683 1.524 . S
C2685 C2682 1.403 . S
C2685 C2686 1.392 . S
C2685 C2689 1.495 . S
C2686 C2685 1.392 . S
C2686 C2687 1.385 . S
C2686 C2688 1.478 . S
C2687 H2681 0.930 . S
C2687 C2683 1.400 . S
C2687 C2686 1.385 . S
C2688 C2686 1.478 . S
C2688 C2690 1.381 1_554 S
C2688 C2694 1.383 . S
C2689 C2685 1.495 . S
C2689 H2695 0.959 . S
C2689 H2696 0.961 . S
C2689 H2697 0.960 . S
C2690 C2688 1.381 1_556 S
C2690 C2691 1.394 . S
C2690 H2698 0.930 . S
C2691 C2690 1.394 . S
C2691 C2692 1.383 . S
C2691 H2699 0.929 . S
C2692 C2691 1.383 . S
C2692 C2693 1.377 1_556 S
C2693 H2677 0.930 . S
C2693 C2692 1.377 1_554 S
C2693 C2694 1.379 . S
C2694 H2678 0.931 . S
C2694 C2688 1.383 . S
C2694 C2693 1.379 . S
H2695 C2689 0.959 . S
H2696 C2689 0.961 . S
H2697 C2689 0.960 . S
H2698 C2690 0.930 . S
H2699 C2691 0.929 . S
H2700 C2708 0.929 . S
H2701 C2710 0.930 . S
H2702 C2712 0.930 . S
H2703 C2715 0.929 . S
H2704 C2718 0.930 . S
H2705 C2720 0.960 . S
H2706 C2720 0.960 . S
H2707 C2720 0.960 . S
C2708 H2700 0.929 . S
C2708 C2709 1.377 . S
C2708 C2710 1.384 . S
C2709 C2708 1.377 . S
C2709 C2715 1.390 . S
C2710 H2701 0.930 . S
C2710 C2708 1.384 . S
C2710 C2711 1.372 . S
C2711 C2710 1.372 . S
C2711 C2712 1.400 . S
C2711 C2716 1.490 . S
C2712 H2702 0.930 . S
C2712 C2711 1.400 . S
C2712 C2715 1.386 . S
H2713 C2729 0.930 . S
H2714 C2730 0.931 . S
C2715 H2703 0.929 . S
C2715 C2709 1.390 . S
C2715 C2712 1.386 . S
C2716 C2711 1.490 . S
C2716 C2718 1.395 . S
C2716 C2719 1.403 . S
H2717 C2723 0.930 . S
C2718 H2704 0.930 . S
C2718 C2716 1.395 . S
C2718 C2721 1.403 . S
C2719 C2716 1.403 . S
C2719 C2720 1.524 . S
C2719 C2723 1.400 . S
C2720 H2705 0.960 . S
C2720 H2706 0.960 . S
C2720 H2707 0.960 . S
C2720 C2719 1.524 . S
C2721 C2718 1.403 . S
C2721 C2722 1.392 . S
C2721 C2725 1.495 . S
C2722 C2721 1.392 . S
C2722 C2723 1.385 . S
C2722 C2724 1.478 . S
C2723 H2717 0.930 . S
C2723 C2719 1.400 . S
C2723 C2722 1.385 . S
C2724 C2722 1.478 . S
C2724 C2726 1.381 . S
C2724 C2730 1.383 1_554 S
C2725 C2721 1.495 . S
C2725 H2731 0.959 . S
C2725 H2732 0.961 1_554 S
C2725 H2733 0.960 . S
C2726 C2724 1.381 . S
C2726 C2727 1.394 . S
C2726 H2734 0.930 . S
C2727 C2726 1.394 . S
C2727 C2728 1.383 1_554 S
C2727 H2735 0.929 . S
C2728 C2727 1.383 1_556 S
C2728 C2729 1.377 . S
C2729 H2713 0.930 . S
C2729 C2728 1.377 . S
C2729 C2730 1.379 . S
C2730 H2714 0.931 . S
C2730 C2724 1.383 1_556 S
C2730 C2729 1.379 . S
H2731 C2725 0.959 . S
H2732 C2725 0.961 1_556 S
H2733 C2725 0.960 . S
H2734 C2726 0.930 . S
H2735 C2727 0.929 . S
H2736 C2744 0.929 . S
H2737 C2746 0.930 . S
H2738 C2748 0.930 . S
H2739 C2751 0.929 . S
H2740 C2754 0.930 . S
H2741 C2756 0.960 . S
H2742 C2756 0.960 . S
H2743 C2756 0.960 . S
C2744 H2736 0.929 . S
C2744 C2745 1.377 . S
C2744 C2746 1.384 . S
C2745 C2744 1.377 . S
C2745 C2751 1.390 . S
C2746 H2737 0.930 . S
C2746 C2744 1.384 . S
C2746 C2747 1.372 . S
C2747 C2746 1.372 . S
C2747 C2748 1.400 . S
C2747 C2752 1.490 . S
C2748 H2738 0.930 . S
C2748 C2747 1.400 . S
C2748 C2751 1.386 . S
H2749 C2765 0.930 . S
H2750 C2766 0.931 . S
C2751 H2739 0.929 . S
C2751 C2745 1.390 . S
C2751 C2748 1.386 . S
C2752 C2747 1.490 . S
C2752 C2754 1.395 . S
C2752 C2755 1.403 . S
H2753 C2759 0.930 . S
C2754 H2740 0.930 . S
C2754 C2752 1.395 . S
C2754 C2757 1.403 . S
C2755 C2752 1.403 . S
C2755 C2756 1.524 . S
C2755 C2759 1.400 . S
C2756 H2741 0.960 . S
C2756 H2742 0.960 . S
C2756 H2743 0.960 . S
C2756 C2755 1.524 . S
C2757 C2754 1.403 . S
C2757 C2758 1.392 . S
C2757 C2761 1.495 . S
C2758 C2757 1.392 . S
C2758 C2759 1.385 . S
C2758 C2760 1.478 . S
C2759 H2753 0.930 . S
C2759 C2755 1.400 . S
C2759 C2758 1.385 . S
C2760 C2758 1.478 . S
C2760 C2762 1.381 . S
C2760 C2766 1.383 . S
C2761 C2757 1.495 . S
C2761 H2767 0.959 . S
C2761 H2768 0.961 . S
C2761 H2769 0.960 . S
C2762 C2760 1.381 . S
C2762 C2763 1.394 . S
C2762 H2770 0.930 . S
C2763 C2762 1.394 . S
C2763 C2764 1.383 . S
C2763 H2771 0.929 . S
C2764 C2763 1.383 . S
C2764 C2765 1.377 . S
C2765 H2749 0.930 . S
C2765 C2764 1.377 . S
C2765 C2766 1.379 . S
C2766 H2750 0.931 . S
C2766 C2760 1.383 . S
C2766 C2765 1.379 . S
H2767 C2761 0.959 . S
H2768 C2761 0.961 . S
H2769 C2761 0.960 . S
H2770 C2762 0.930 . S
H2771 C2763 0.929 . S
H2772 C2780 0.929 . S
H2773 C2782 0.930 . S
H2774 C2784 0.930 . S
H2775 C2787 0.929 . S
H2776 C2790 0.930 . S
H2777 C2792 0.960 . S
H2778 C2792 0.960 . S
H2779 C2792 0.960 . S
C2780 H2772 0.929 . S
C2780 C2781 1.377 . S
C2780 C2782 1.384 . S
C2781 C2780 1.377 . S
C2781 C2787 1.390 . S
C2782 H2773 0.930 . S
C2782 C2780 1.384 . S
C2782 C2783 1.372 . S
C2783 C2782 1.372 . S
C2783 C2784 1.400 . S
C2783 C2788 1.490 . S
C2784 H2774 0.930 . S
C2784 C2783 1.400 . S
C2784 C2787 1.386 . S
H2785 C2801 0.930 . S
H2786 C2802 0.931 . S
C2787 H2775 0.929 . S
C2787 C2781 1.390 . S
C2787 C2784 1.386 . S
C2788 C2783 1.490 . S
C2788 C2790 1.395 . S
C2788 C2791 1.403 . S
H2789 C2795 0.930 . S
C2790 H2776 0.930 . S
C2790 C2788 1.395 . S
C2790 C2793 1.403 . S
C2791 C2788 1.403 . S
C2791 C2792 1.524 . S
C2791 C2795 1.400 . S
C2792 H2777 0.960 . S
C2792 H2778 0.960 . S
C2792 H2779 0.960 . S
C2792 C2791 1.524 . S
C2793 C2790 1.403 . S
C2793 C2794 1.392 . S
C2793 C2797 1.495 . S
C2794 C2793 1.392 . S
C2794 C2795 1.385 . S
C2794 C2796 1.478 . S
C2795 H2789 0.930 . S
C2795 C2791 1.400 . S
C2795 C2794 1.385 . S
C2796 C2794 1.478 . S
C2796 C2798 1.381 . S
C2796 C2802 1.383 . S
C2797 C2793 1.495 . S
C2797 H2803 0.959 . S
C2797 H2804 0.961 . S
C2797 H2805 0.960 . S
C2798 C2796 1.381 . S
C2798 C2799 1.394 . S
C2798 H2806 0.930 . S
C2799 C2798 1.394 . S
C2799 C2800 1.383 . S
C2799 H2807 0.929 . S
C2800 C2799 1.383 . S
C2800 C2801 1.377 . S
C2801 H2785 0.930 . S
C2801 C2800 1.377 . S
C2801 C2802 1.379 . S
C2802 H2786 0.931 . S
C2802 C2796 1.383 . S
C2802 C2801 1.379 . S
H2803 C2797 0.959 . S
H2804 C2797 0.961 . S
H2805 C2797 0.960 . S
H2806 C2798 0.930 . S
H2807 C2799 0.929 . S
H2808 C2816 0.929 . S
H2809 C2818 0.930 . S
H2810 C2820 0.930 . S
H2811 C2823 0.929 . S
H2812 C2826 0.930 . S
H2813 C2828 0.960 . S
H2814 C2828 0.960 . S
H2815 C2828 0.960 . S
C2816 H2808 0.929 . S
C2816 C2817 1.377 . S
C2816 C2818 1.384 . S
C2817 C2816 1.377 . S
C2817 C2823 1.390 . S
C2818 H2809 0.930 . S
C2818 C2816 1.384 . S
C2818 C2819 1.372 . S
C2819 C2818 1.372 . S
C2819 C2820 1.400 . S
C2819 C2824 1.490 . S
C2820 H2810 0.930 . S
C2820 C2819 1.400 . S
C2820 C2823 1.386 . S
H2821 C2837 0.930 . S
H2822 C2838 0.931 . S
C2823 H2811 0.929 . S
C2823 C2817 1.390 . S
C2823 C2820 1.386 . S
C2824 C2819 1.490 . S
C2824 C2826 1.395 . S
C2824 C2827 1.403 . S
H2825 C2831 0.930 . S
C2826 H2812 0.930 . S
C2826 C2824 1.395 . S
C2826 C2829 1.403 . S
C2827 C2824 1.403 . S
C2827 C2828 1.524 . S
C2827 C2831 1.400 . S
C2828 H2813 0.960 . S
C2828 H2814 0.960 . S
C2828 H2815 0.960 . S
C2828 C2827 1.524 . S
C2829 C2826 1.403 . S
C2829 C2830 1.392 . S
C2829 C2833 1.495 . S
C2830 C2829 1.392 . S
C2830 C2831 1.385 . S
C2830 C2832 1.478 . S
C2831 H2825 0.930 . S
C2831 C2827 1.400 . S
C2831 C2830 1.385 . S
C2832 C2830 1.478 . S
C2832 C2834 1.381 . S
C2832 C2838 1.383 . S
C2833 C2829 1.495 . S
C2833 H2839 0.959 . S
C2833 H2840 0.961 . S
C2833 H2841 0.960 . S
C2834 C2832 1.381 . S
C2834 C2835 1.394 . S
C2834 H2842 0.930 . S
C2835 C2834 1.394 . S
C2835 C2836 1.383 . S
C2835 H2843 0.929 . S
C2836 C2835 1.383 . S
C2836 C2837 1.377 . S
C2837 H2821 0.930 . S
C2837 C2836 1.377 . S
C2837 C2838 1.379 . S
C2838 H2822 0.931 . S
C2838 C2832 1.383 . S
C2838 C2837 1.379 . S
H2839 C2833 0.959 . S
H2840 C2833 0.961 . S
H2841 C2833 0.960 . S
H2842 C2834 0.930 . S
H2843 C2835 0.929 . S
H2844 C2852 0.929 . S
H2845 C2854 0.930 . S
H2846 C2856 0.930 . S
H2847 C2859 0.929 . S
H2848 C2862 0.930 . S
H2849 C2864 0.960 . S
H2850 C2864 0.960 . S
H2851 C2864 0.960 . S
C2852 H2844 0.929 . S
C2852 C2853 1.377 . S
C2852 C2854 1.384 . S
C2853 C2852 1.377 . S
C2853 C2859 1.390 . S
C2854 H2845 0.930 . S
C2854 C2852 1.384 . S
C2854 C2855 1.372 . S
C2855 C2854 1.372 . S
C2855 C2856 1.400 . S
C2855 C2860 1.490 . S
C2856 H2846 0.930 . S
C2856 C2855 1.400 . S
C2856 C2859 1.386 . S
H2857 C2873 0.930 . S
H2858 C2874 0.931 . S
C2859 H2847 0.929 . S
C2859 C2853 1.390 . S
C2859 C2856 1.386 . S
C2860 C2855 1.490 . S
C2860 C2862 1.395 . S
C2860 C2863 1.403 . S
H2861 C2867 0.930 . S
C2862 H2848 0.930 . S
C2862 C2860 1.395 . S
C2862 C2865 1.403 1_655 S
C2863 C2860 1.403 . S
C2863 C2864 1.524 . S
C2863 C2867 1.400 1_655 S
C2864 H2849 0.960 . S
C2864 H2850 0.960 . S
C2864 H2851 0.960 . S
C2864 C2863 1.524 . S
C2865 C2862 1.403 1_455 S
C2865 C2866 1.392 . S
C2865 C2869 1.495 . S
C2866 C2865 1.392 . S
C2866 C2867 1.385 . S
C2866 C2868 1.478 . S
C2867 H2861 0.930 . S
C2867 C2863 1.400 1_455 S
C2867 C2866 1.385 . S
C2868 C2866 1.478 . S
C2868 C2870 1.381 . S
C2868 C2874 1.383 . S
C2869 C2865 1.495 . S
C2869 H2875 0.959 . S
C2869 H2876 0.961 . S
C2869 H2877 0.960 . S
C2870 C2868 1.381 . S
C2870 C2871 1.394 . S
C2870 H2878 0.930 . S
C2871 C2870 1.394 . S
C2871 C2872 1.383 . S
C2871 H2879 0.929 . S
C2872 C2871 1.383 . S
C2872 C2873 1.377 . S
C2873 H2857 0.930 . S
C2873 C2872 1.377 . S
C2873 C2874 1.379 . S
C2874 H2858 0.931 . S
C2874 C2868 1.383 . S
C2874 C2873 1.379 . S
H2875 C2869 0.959 . S
H2876 C2869 0.961 . S
H2877 C2869 0.960 . S
H2878 C2870 0.930 . S
H2879 C2871 0.929 . S
H2880 C2888 0.929 . S
H2881 C2890 0.930 . S
H2882 C2892 0.930 . S
H2883 C2895 0.929 . S
H2884 C2898 0.930 . S
H2885 C2900 0.960 . S
H2886 C2900 0.960 . S
H2887 C2900 0.960 . S
C2888 H2880 0.929 . S
C2888 C2889 1.377 . S
C2888 C2890 1.384 . S
C2889 C2888 1.377 . S
C2889 C2895 1.390 . S
C2890 H2881 0.930 . S
C2890 C2888 1.384 . S
C2890 C2891 1.372 . S
C2891 C2890 1.372 . S
C2891 C2892 1.400 . S
C2891 C2896 1.490 . S
C2892 H2882 0.930 . S
C2892 C2891 1.400 . S
C2892 C2895 1.386 . S
H2893 C2909 0.930 . S
H2894 C2910 0.931 . S
C2895 H2883 0.929 . S
C2895 C2889 1.390 . S
C2895 C2892 1.386 . S
C2896 C2891 1.490 . S
C2896 C2898 1.395 . S
C2896 C2899 1.403 . S
H2897 C2903 0.930 . S
C2898 H2884 0.930 . S
C2898 C2896 1.395 . S
C2898 C2901 1.403 . S
C2899 C2896 1.403 . S
C2899 C2900 1.524 . S
C2899 C2903 1.400 . S
C2900 H2885 0.960 . S
C2900 H2886 0.960 . S
C2900 H2887 0.960 . S
C2900 C2899 1.524 . S
C2901 C2898 1.403 . S
C2901 C2902 1.392 . S
C2901 C2905 1.495 . S
C2902 C2901 1.392 . S
C2902 C2903 1.385 . S
C2902 C2904 1.478 . S
C2903 H2897 0.930 . S
C2903 C2899 1.400 . S
C2903 C2902 1.385 . S
C2904 C2902 1.478 . S
C2904 C2906 1.381 . S
C2904 C2910 1.383 . S
C2905 C2901 1.495 . S
C2905 H2911 0.959 . S
C2905 H2912 0.961 . S
C2905 H2913 0.960 . S
C2906 C2904 1.381 . S
C2906 C2907 1.394 . S
C2906 H2914 0.930 . S
C2907 C2906 1.394 . S
C2907 C2908 1.383 . S
C2907 H2915 0.929 . S
C2908 C2907 1.383 . S
C2908 C2909 1.377 . S
C2909 H2893 0.930 . S
C2909 C2908 1.377 . S
C2909 C2910 1.379 . S
C2910 H2894 0.931 . S
C2910 C2904 1.383 . S
C2910 C2909 1.379 . S
H2911 C2905 0.959 . S
H2912 C2905 0.961 . S
H2913 C2905 0.960 . S
H2914 C2906 0.930 . S
H2915 C2907 0.929 . S
H2916 C2924 0.929 . S
H2917 C2926 0.930 . S
H2918 C2928 0.930 . S
H2919 C2931 0.929 . S
H2920 C2934 0.930 . S
H2921 C2936 0.960 1_545 S
H2922 C2936 0.960 . S
H2923 C2936 0.960 . S
C2924 H2916 0.929 . S
C2924 C2925 1.377 . S
C2924 C2926 1.384 . S
C2925 C2924 1.377 . S
C2925 C2931 1.390 . S
C2926 H2917 0.930 . S
C2926 C2924 1.384 . S
C2926 C2927 1.372 . S
C2927 C2926 1.372 . S
C2927 C2928 1.400 . S
C2927 C2932 1.490 . S
C2928 H2918 0.930 . S
C2928 C2927 1.400 . S
C2928 C2931 1.386 . S
H2929 C2945 0.930 . S
H2930 C2946 0.931 . S
C2931 H2919 0.929 . S
C2931 C2925 1.390 . S
C2931 C2928 1.386 . S
C2932 C2927 1.490 . S
C2932 C2934 1.395 . S
C2932 C2935 1.403 . S
H2933 C2939 0.930 . S
C2934 H2920 0.930 . S
C2934 C2932 1.395 . S
C2934 C2937 1.351 1_565 S
C2935 C2932 1.403 . S
C2935 C2936 1.524 . S
C2935 C2939 1.400 1_565 S
C2936 H2921 0.960 1_565 S
C2936 H2922 0.960 . S
C2936 H2923 0.960 . S
C2936 C2935 1.524 . S
C2937 C2934 1.351 1_545 S
C2937 C2938 1.456 . S
C2937 C2941 1.485 . S
C2938 C2937 1.456 . S
C2938 C2939 1.385 . S
C2938 C2940 1.478 . S
C2939 H2933 0.930 . S
C2939 C2935 1.400 1_545 S
C2939 C2938 1.385 . S
C2940 C2938 1.478 . S
C2940 C2942 1.381 . S
C2940 C2946 1.383 . S
C2941 C2937 1.485 . S
C2941 H2947 0.959 1_545 S
C2941 H2948 0.961 . S
C2941 H2949 0.960 . S
C2942 C2940 1.381 . S
C2942 C2943 1.394 . S
C2942 H2950 0.930 . S
C2943 C2942 1.394 . S
C2943 C2944 1.383 . S
C2943 H2951 0.929 . S
C2944 C2943 1.383 . S
C2944 C2945 1.377 . S
C2945 H2929 0.930 . S
C2945 C2944 1.377 . S
C2945 C2946 1.379 . S
C2946 H2930 0.931 . S
C2946 C2940 1.383 . S
C2946 C2945 1.379 . S
H2947 C2941 0.959 1_565 S
H2948 C2941 0.961 . S
H2949 C2941 0.960 . S
H2950 C2942 0.930 . S
H2951 C2943 0.929 . S
H2952 C2960 0.929 . S
H2953 C2962 0.930 . S
H2954 C2964 0.930 . S
H2955 C2967 0.929 . S
H2956 C2970 0.930 . S
H2957 C2972 0.960 . S
H2958 C2972 0.960 . S
H2959 C2972 0.960 . S
C2960 H2952 0.929 . S
C2960 C2961 1.377 . S
C2960 C2962 1.384 . S
C2961 C2960 1.377 . S
C2961 C2967 1.390 . S
C2962 H2953 0.930 . S
C2962 C2960 1.384 . S
C2962 C2963 1.372 . S
C2963 C2962 1.372 . S
C2963 C2964 1.400 . S
C2963 C2968 1.490 . S
C2964 H2954 0.930 . S
C2964 C2963 1.400 . S
C2964 C2967 1.386 . S
H2965 C2981 0.930 . S
H2966 C2982 0.931 . S
C2967 H2955 0.929 . S
C2967 C2961 1.390 . S
C2967 C2964 1.386 . S
C2968 C2963 1.490 . S
C2968 C2970 1.395 . S
C2968 C2971 1.403 . S
H2969 C2975 0.930 . S
C2970 H2956 0.930 . S
C2970 C2968 1.395 . S
C2970 C2973 1.403 1_545 S
C2971 C2968 1.403 . S
C2971 C2972 1.524 . S
C2971 C2975 1.400 1_545 S
C2972 H2957 0.960 . S
C2972 H2958 0.960 . S
C2972 H2959 0.960 . S
C2972 C2971 1.524 . S
C2973 C2970 1.403 1_565 S
C2973 C2974 1.392 . S
C2973 C2977 1.495 . S
C2974 C2973 1.392 . S
C2974 C2975 1.385 . S
C2974 C2976 1.478 . S
C2975 H2969 0.930 . S
C2975 C2971 1.400 1_565 S
C2975 C2974 1.385 . S
C2976 C2974 1.478 . S
C2976 C2978 1.381 . S
C2976 C2982 1.383 . S
C2977 C2973 1.495 . S
C2977 H2983 0.959 . S
C2977 H2984 0.961 . S
C2977 H2985 0.960 . S
C2978 C2976 1.381 . S
C2978 C2979 1.394 . S
C2978 H2986 0.930 . S
C2979 C2978 1.394 . S
C2979 C2980 1.383 . S
C2979 H2987 0.929 . S
C2980 C2979 1.383 . S
C2980 C2981 1.377 . S
C2981 H2965 0.930 . S
C2981 C2980 1.377 . S
C2981 C2982 1.379 . S
C2982 H2966 0.931 . S
C2982 C2976 1.383 . S
C2982 C2981 1.379 . S
H2983 C2977 0.959 . S
H2984 C2977 0.961 . S
H2985 C2977 0.960 . S
H2986 C2978 0.930 . S
H2987 C2979 0.929 . S
H2988 C2996 0.929 . S
H2989 C2998 0.930 . S
H2990 C3000 0.930 . S
H2991 C3003 0.929 . S
H2992 C3006 0.930 . S
H2993 C3008 0.960 . S
H2994 C3008 0.960 . S
H2995 C3008 0.960 . S
C2996 H2988 0.929 . S
C2996 C2997 1.377 . S
C2996 C2998 1.384 . S
C2997 C2996 1.377 . S
C2997 C3003 1.390 . S
C2998 H2989 0.930 . S
C2998 C2996 1.384 . S
C2998 C2999 1.372 . S
C2999 C2998 1.372 . S
C2999 C3000 1.400 . S
C2999 C3004 1.490 . S
C3000 H2990 0.930 . S
C3000 C2999 1.400 . S
C3000 C3003 1.386 . S
H3001 C3017 0.930 . S
H3002 C3018 0.931 . S
C3003 H2991 0.929 . S
C3003 C2997 1.390 . S
C3003 C3000 1.386 . S
C3004 C2999 1.490 . S
C3004 C3006 1.395 . S
C3004 C3007 1.403 . S
H3005 C3011 0.930 . S
C3006 H2992 0.930 . S
C3006 C3004 1.395 . S
C3006 C3009 1.403 1_455 S
C3007 C3004 1.403 . S
C3007 C3008 1.524 . S
C3007 C3011 1.400 1_455 S
C3008 H2993 0.960 . S
C3008 H2994 0.960 . S
C3008 H2995 0.960 . S
C3008 C3007 1.524 . S
C3009 C3006 1.403 1_655 S
C3009 C3010 1.392 . S
C3009 C3013 1.495 . S
C3010 C3009 1.392 . S
C3010 C3011 1.385 . S
C3010 C3012 1.478 . S
C3011 H3005 0.930 . S
C3011 C3007 1.400 1_655 S
C3011 C3010 1.385 . S
C3012 C3010 1.478 . S
C3012 C3014 1.381 . S
C3012 C3018 1.383 . S
C3013 C3009 1.495 . S
C3013 H3019 0.959 . S
C3013 H3020 0.961 . S
C3013 H3021 0.960 . S
C3014 C3012 1.381 . S
C3014 C3015 1.394 . S
C3014 H3022 0.930 . S
C3015 C3014 1.394 . S
C3015 C3016 1.383 . S
C3015 H3023 0.929 . S
C3016 C3015 1.383 . S
C3016 C3017 1.377 . S
C3017 H3001 0.930 . S
C3017 C3016 1.377 . S
C3017 C3018 1.379 . S
C3018 H3002 0.931 . S
C3018 C3012 1.383 . S
C3018 C3017 1.379 . S
H3019 C3013 0.959 . S
H3020 C3013 0.961 . S
H3021 C3013 0.960 . S
H3022 C3014 0.930 . S
H3023 C3015 0.929 . S
H3024 C3032 0.929 . S
H3025 C3034 0.930 . S
H3026 C3036 0.930 . S
H3027 C3039 0.929 . S
H3028 C3042 0.930 . S
H3029 C3044 0.960 . S
H3030 C3044 0.960 . S
H3031 C3044 0.960 . S
C3032 H3024 0.929 . S
C3032 C3033 1.377 . S
C3032 C3034 1.384 . S
C3033 C3032 1.377 . S
C3033 C3039 1.390 . S
C3034 H3025 0.930 . S
C3034 C3032 1.384 . S
C3034 C3035 1.372 . S
C3035 C3034 1.372 . S
C3035 C3036 1.400 . S
C3035 C3040 1.490 . S
C3036 H3026 0.930 . S
C3036 C3035 1.400 . S
C3036 C3039 1.386 . S
H3037 C3053 0.930 . S
H3038 C3054 0.931 . S
C3039 H3027 0.929 . S
C3039 C3033 1.390 . S
C3039 C3036 1.386 . S
C3040 C3035 1.490 . S
C3040 C3042 1.395 . S
C3040 C3043 1.403 . S
H3041 C3047 0.930 . S
C3042 H3028 0.930 . S
C3042 C3040 1.395 . S
C3042 C3045 1.403 . S
C3043 C3040 1.403 . S
C3043 C3044 1.524 . S
C3043 C3047 1.400 . S
C3044 H3029 0.960 . S
C3044 H3030 0.960 . S
C3044 H3031 0.960 . S
C3044 C3043 1.524 . S
C3045 C3042 1.403 . S
C3045 C3046 1.392 . S
C3045 C3049 1.495 . S
C3046 C3045 1.392 . S
C3046 C3047 1.385 . S
C3046 C3048 1.478 . S
C3047 H3041 0.930 . S
C3047 C3043 1.400 . S
C3047 C3046 1.385 . S
C3048 C3046 1.478 . S
C3048 C3050 1.381 . S
C3048 C3054 1.383 . S
C3049 C3045 1.495 . S
C3049 H3055 0.959 . S
C3049 H3056 0.961 . S
C3049 H3057 0.960 . S
C3050 C3048 1.381 . S
C3050 C3051 1.394 . S
C3050 H3058 0.930 . S
C3051 C3050 1.394 . S
C3051 C3052 1.383 . S
C3051 H3059 0.929 . S
C3052 C3051 1.383 . S
C3052 C3053 1.377 . S
C3053 H3037 0.930 . S
C3053 C3052 1.377 . S
C3053 C3054 1.379 . S
C3054 H3038 0.931 . S
C3054 C3048 1.383 . S
C3054 C3053 1.379 . S
H3055 C3049 0.959 . S
H3056 C3049 0.961 . S
H3057 C3049 0.960 . S
H3058 C3050 0.930 . S
H3059 C3051 0.929 . S
C477 C65 1.206 . S
C496 C0 1.228 . S
C513 C13 1.216 . S
C532 C39 1.175 . S
C549 C52 1.207 . S
C568 C26 1.222 . S
C585 C78 1.203 . S
C604 C143 1.186 . S
C621 C91 1.203 . S
C640 C117 1.180 . S
C657 C130 1.214 . S
C676 C104 1.237 . S
C693 C221 1.203 . S
C712 C156 1.238 . S
C729 C169 1.208 . S
C748 C195 1.205 . S
C765 C208 1.211 . S
C784 C182 1.206 . S
C801 C234 1.207 . S
C820 C299 1.179 . S
C837 C247 1.212 . S
C856 C273 1.201 . S
C873 C260 1.202 . S
C892 C286 1.177 . S
C909 C312 1.205 . S
C928 C377 1.234 . S
C945 C351 1.210 . S
C964 C325 1.192 . S
C981 C338 1.204 . S
C1000 C364 1.224 . S
C1017 C390 1.204 . S
C1036 C455 1.197 . S
C1053 C403 1.203 . S
C1072 C429 1.189 . S
C1089 C416 1.203 . S
C1108 C442 1.175 . S
C1125 C138 0.838 . S
C1144 C5 0.819 . S
C1161 C151 0.830 . S
C1180 C18 0.748 . S
C1197 C125 0.840 . S
C1216 C31 0.813 . S
C1233 C112 0.845 . S
C1252 C44 0.867 . S
C1269 C57 0.805 . S
C1288 C86 0.792 . S
C1305 C70 0.809 . S
C1324 C99 0.810 . S
C1341 C83 0.833 . S
C1360 C60 0.843 . S
C1377 C96 0.830 . S
C1396 C73 0.793 . S
C1413 C109 0.809 . S
C1432 C47 0.883 . S
C1449 C34 0.832 . S
C1468 C122 0.808 . S
C1485 C8 0.834 . S
C1504 C135 0.789 . S
C1521 C148 0.818 . S
C1540 C21 0.884 . S
C1557 C161 0.818 . S
C1576 C294 0.841 . S
C1593 C174 0.834 . S
C1612 C307 0.884 . S
C1629 C281 0.842 . S
C1648 C187 0.842 . S
C1665 C200 0.828 . S
C1684 C268 0.860 . S
C1701 C213 0.815 . S
C1720 C242 0.830 . S
C1737 C226 0.806 . S
C1756 C255 0.793 . S
C1773 C239 0.835 . S
C1792 C216 0.814 . S
C1809 C229 0.832 . S
C1828 C252 0.880 . S
C1845 C203 0.850 . S
C1864 C265 0.785 . S
C1881 C278 0.829 . S
C1900 C190 0.793 . S
C1917 C164 0.830 . S
C1936 C291 0.841 . S
C1953 C177 0.831 . S
C1972 C304 0.873 . S
C1989 C450 0.834 . S
C2008 C317 0.782 . S
C2025 C330 0.831 . S
C2044 C463 0.871 . S
C2061 C343 0.806 . S
C2080 C437 0.796 . S
C2097 C424 0.841 . S
C2116 C356 0.842 . S
C2133 C398 0.850 . S
C2152 C369 0.887 . S
C2169 C411 0.831 . S
C2188 C382 0.751 . S
C2205 C395 0.815 . S
C2224 C372 0.885 . S
C2241 C385 0.850 . S
C2260 C408 0.781 . S
C2277 C421 0.810 . S
C2296 C359 0.883 . S
C2313 C346 0.839 . S
C2332 C434 0.756 . S
C2349 C320 0.831 . S
C2368 C447 0.827 . S
C2385 C333 0.831 . S
C2404 C460 0.827 . S
C2421 C218 1.359 . S
C2440 C10 1.360 . S
C2457 C23 1.358 . S
C2476 C231 1.380 . S
C2493 C205 1.365 . S
C2512 C36 1.364 . S
C2529 C348 1.359 . S
C2548 C49 1.381 . S
C2565 C62 1.361 . S
C2584 C322 1.379 . S
C2601 C75 1.360 . S
C2620 C335 1.381 . S
C2637 C88 1.363 . S
C2656 C452 1.380 . S
C2673 C465 1.362 . S
C2692 C101 1.380 . S
C2709 C439 1.361 . S
C2728 C114 1.340 . S
C2745 C270 1.364 . S
C2764 C127 1.338 . S
C2781 C140 1.366 . S
C2800 C244 1.347 . S
C2817 C153 1.363 . S
C2836 C257 1.379 . S
C2853 C166 1.360 . S
C2872 C374 1.381 . S
C2889 C387 1.359 . S
C2908 C179 1.381 . S
C2925 C361 1.367 . S
C2944 C192 1.345 . S
C2961 C283 1.364 . S
C2980 C426 1.338 . S
C2997 C400 1.362 . S
C3016 C296 1.381 . S
C3033 C413 1.360 . S
C3052 C309 1.379 . S
