# Generated by pormake.
# Topology wkq, (6)-cn, num edge types: 1
# Building blocks:
#     Node 0, Type 0, BuildingBlock: IZENUY_clean_sbu_0, # of connection points: 6
#     Node 1, Type 0, BuildingBlock: IZENUY_clean_sbu_0, # of connection points: 6
#     Node 2, Type 0, BuildingBlock: IZENUY_clean_sbu_0, # of connection points: 6
#     Node 3, Type 0, BuildingBlock: IZENUY_clean_sbu_0, # of connection points: 6
#     Node 4, Type 0, BuildingBlock: IZENUY_clean_sbu_0, # of connection points: 6
#     Node 5, Type 0, BuildingBlock: IZENUY_clean_sbu_0, # of connection points: 6
#     Node 6, Type 0, BuildingBlock: IZENUY_clean_sbu_0, # of connection points: 6
#     Node 7, Type 0, BuildingBlock: IZENUY_clean_sbu_0, # of connection points: 6
#     Node 8, Type 0, BuildingBlock: IZENUY_clean_sbu_0, # of connection points: 6
#     Node 9, Type 0, BuildingBlock: IZENUY_clean_sbu_0, # of connection points: 6
#     Node 10, Type 0, BuildingBlock: IZENUY_clean_sbu_0, # of connection points: 6
#     Node 11, Type 0, BuildingBlock: IZENUY_clean_sbu_0, # of connection points: 6
#     Edge 12, Type (0, 0), BuildingBlock: ZUJKAS_clean_linker_0, # of connection points: 2
#     Edge 13, Type (0, 0), BuildingBlock: ZUJKAS_clean_linker_0, # of connection points: 2
#     Edge 14, Type (0, 0), BuildingBlock: ZUJKAS_clean_linker_0, # of connection points: 2
#     Edge 15, Type (0, 0), BuildingBlock: ZUJKAS_clean_linker_0, # of connection points: 2
#     Edge 16, Type (0, 0), BuildingBlock: ZUJKAS_clean_linker_0, # of connection points: 2
#     Edge 17, Type (0, 0), BuildingBlock: ZUJKAS_clean_linker_0, # of connection points: 2
#     Edge 18, Type (0, 0), BuildingBlock: ZUJKAS_clean_linker_0, # of connection points: 2
#     Edge 19, Type (0, 0), BuildingBlock: ZUJKAS_clean_linker_0, # of connection points: 2
#     Edge 20, Type (0, 0), BuildingBlock: ZUJKAS_clean_linker_0, # of connection points: 2
#     Edge 21, Type (0, 0), BuildingBlock: ZUJKAS_clean_linker_0, # of connection points: 2
#     Edge 22, Type (0, 0), BuildingBlock: ZUJKAS_clean_linker_0, # of connection points: 2
#     Edge 23, Type (0, 0), BuildingBlock: ZUJKAS_clean_linker_0, # of connection points: 2
#     Edge 24, Type (0, 0), BuildingBlock: ZUJKAS_clean_linker_0, # of connection points: 2
#     Edge 25, Type (0, 0), BuildingBlock: ZUJKAS_clean_linker_0, # of connection points: 2
#     Edge 26, Type (0, 0), BuildingBlock: ZUJKAS_clean_linker_0, # of connection points: 2
#     Edge 27, Type (0, 0), BuildingBlock: ZUJKAS_clean_linker_0, # of connection points: 2
#     Edge 28, Type (0, 0), BuildingBlock: ZUJKAS_clean_linker_0, # of connection points: 2
#     Edge 29, Type (0, 0), BuildingBlock: ZUJKAS_clean_linker_0, # of connection points: 2
#     Edge 30, Type (0, 0), BuildingBlock: ZUJKAS_clean_linker_0, # of connection points: 2
#     Edge 31, Type (0, 0), BuildingBlock: ZUJKAS_clean_linker_0, # of connection points: 2
#     Edge 32, Type (0, 0), BuildingBlock: ZUJKAS_clean_linker_0, # of connection points: 2
#     Edge 33, Type (0, 0), BuildingBlock: ZUJKAS_clean_linker_0, # of connection points: 2
#     Edge 34, Type (0, 0), BuildingBlock: ZUJKAS_clean_linker_0, # of connection points: 2
#     Edge 35, Type (0, 0), BuildingBlock: ZUJKAS_clean_linker_0, # of connection points: 2
#     Edge 36, Type (0, 0), BuildingBlock: ZUJKAS_clean_linker_0, # of connection points: 2
#     Edge 37, Type (0, 0), BuildingBlock: ZUJKAS_clean_linker_0, # of connection points: 2
#     Edge 38, Type (0, 0), BuildingBlock: ZUJKAS_clean_linker_0, # of connection points: 2
#     Edge 39, Type (0, 0), BuildingBlock: ZUJKAS_clean_linker_0, # of connection points: 2
#     Edge 40, Type (0, 0), BuildingBlock: ZUJKAS_clean_linker_0, # of connection points: 2
#     Edge 41, Type (0, 0), BuildingBlock: ZUJKAS_clean_linker_0, # of connection points: 2
#     Edge 42, Type (0, 0), BuildingBlock: ZUJKAS_clean_linker_0, # of connection points: 2
#     Edge 43, Type (0, 0), BuildingBlock: ZUJKAS_clean_linker_0, # of connection points: 2
#     Edge 44, Type (0, 0), BuildingBlock: ZUJKAS_clean_linker_0, # of connection points: 2
#     Edge 45, Type (0, 0), BuildingBlock: ZUJKAS_clean_linker_0, # of connection points: 2
#     Edge 46, Type (0, 0), BuildingBlock: ZUJKAS_clean_linker_0, # of connection points: 2
#     Edge 47, Type (0, 0), BuildingBlock: ZUJKAS_clean_linker_0, # of connection points: 2
# Relax obj value: 0.404
# Max RMSD: 0.286
# Mean RMSD: 0.286
data_MOF--net-wkq--node1-IZENUY_clean_sbu_0--edge1-ZUJKAS_clean_linker_0
_symmetry_space_group_name_H-M    P1
_symmetry_Int_Tables_number       1
_symmetry_cell_setting            triclinic
loop_
_symmetry_equiv_pos_as_xyz
'x, y, z'
_cell_length_a     48.515759
_cell_length_b     48.465356
_cell_length_c     43.827358
_cell_angle_alpha  90.107361
_cell_angle_beta   89.952807
_cell_angle_gamma 120.00451
loop_
_atom_site_label
_atom_site_type_symbol
_atom_site_fract_x
_atom_site_fract_y
_atom_site_fract_z
_atom_type_partial_charge
Fe0 Fe 0.22281 0.37563 0.03283 0.0
Fe1 Fe 0.26756 0.44575 0.04915 0.0
O2 O 0.23756 0.41665 0.02551 0.0
Fe3 Fe 0.22266 0.42875 0.99435 0.0
O4 O 0.18162 0.39438 -0.00334 0.0
O5 O 0.18292 0.36852 0.03722 0.0
O6 O 0.22648 0.38042 0.07418 0.0
C7 C 0.2298 0.40256 0.09185 0.0
C8 C 0.22948 0.38028 0.9691 0.0
O9 O 0.24212 0.43098 0.08254 0.0
C10 C 0.28908 0.47251 0.99329 0.0
O11 O 0.26203 0.37951 0.02982 0.0
O12 O 0.28604 0.42201 0.05863 0.0
O13 O 0.23556 0.40879 0.96748 0.0
O14 O 0.2164 0.36375 0.9926 0.0
C15 C 0.2279 0.47198 0.03759 0.0
O16 O 0.29481 0.46188 0.01726 0.0
O17 O 0.26081 0.46519 0.98648 0.0
C18 C 0.28468 0.39736 0.04733 0.0
O19 O 0.25459 0.47507 0.04463 0.0
O20 O 0.20953 0.45019 0.01941 0.0
C21 C 0.16751 0.37498 0.01831 0.0
Fe22 Fe 0.79404 0.21646 0.15163 0.0
Fe23 Fe 0.841 0.21419 0.19759 0.0
O24 O 0.81618 0.22933 0.18606 0.0
Fe25 Fe 0.81349 0.25781 0.20914 0.0
O26 O 0.77288 0.2463 0.19772 0.0
O27 O 0.7562 0.20207 0.17195 0.0
O28 O 0.78674 0.17519 0.15358 0.0
C29 C 0.78945 0.15975 0.17562 0.0
C30 C 0.81807 0.28325 0.15306 0.0
O31 O 0.80824 0.17392 0.19733 0.0
C32 C 0.87834 0.27511 0.21699 0.0
O33 O 0.83031 0.2304 0.12938 0.0
O34 O 0.85296 0.21069 0.15876 0.0
O35 O 0.83033 0.28714 0.17922 0.0
O36 O 0.79777 0.25558 0.14359 0.0
C37 C 0.81034 0.2161 0.25208 0.0
O38 O 0.87625 0.25369 0.1992 0.0
O39 O 0.85344 0.27498 0.22563 0.0
C40 C 0.85245 0.22448 0.13444 0.0
O41 O 0.83277 0.21485 0.23841 0.0
O42 O 0.7966 0.22963 0.24003 0.0
C43 C 0.75038 0.21966 0.18896 0.0
Fe44 Fe 0.6448 0.84582 0.36412 0.0
Fe45 Fe 0.57621 0.81968 0.38616 0.0
O46 O 0.60316 0.82204 0.35775 0.0
Fe47 Fe 0.58917 0.80034 0.32313 0.0
O48 O 0.61028 0.77883 0.33091 0.0
O49 O 0.65572 0.82165 0.34022 0.0
O50 O 0.64293 0.82151 0.39616 0.0
C51 C 0.62427 0.81522 0.41845 0.0
C52 C 0.6399 0.86126 0.30559 0.0
O53 O 0.60169 0.8213 0.41772 0.0
C54 C 0.54697 0.82194 0.33046 0.0
O55 O 0.64231 0.87472 0.38947 0.0
O56 O 0.59241 0.86249 0.38664 0.0
O57 O 0.62197 0.83166 0.29994 0.0
O58 O 0.64838 0.87104 0.33254 0.0
C59 C 0.54608 0.75722 0.36747 0.0
O60 O 0.5461 0.8171 0.35899 0.0
O61 O 0.56693 0.81988 0.31358 0.0
C62 C 0.6209 0.88199 0.39346 0.0
O63 O 0.55803 0.77707 0.3888 0.0
O64 O 0.55355 0.76583 0.33994 0.0
C65 C 0.63977 0.79196 0.33579 0.0
Fe66 Fe 0.80342 0.63587 0.52914 0.0
Fe67 Fe 0.7584 0.56447 0.5387 0.0
O68 O 0.7883 0.596 0.51705 0.0
Fe69 Fe 0.80266 0.58716 0.48331 0.0
O70 O 0.84385 0.621 0.48675 0.0
O71 O 0.84347 0.64295 0.53051 0.0
O72 O 0.80104 0.62619 0.56971 0.0
C73 C 0.79831 0.60198 0.58351 0.0
C74 C 0.7955 0.63797 0.46566 0.0
O75 O 0.78468 0.57477 0.57116 0.0
C76 C 0.73591 0.54446 0.48156 0.0
O77 O 0.76428 0.6323 0.52948 0.0
O78 O 0.74077 0.58727 0.55431 0.0
O79 O 0.78982 0.60997 0.46036 0.0
O80 O 0.80847 0.65192 0.49042 0.0
C81 C 0.79731 0.53948 0.52054 0.0
O82 O 0.73074 0.55288 0.5072 0.0
O83 O 0.76401 0.55182 0.47369 0.0
C84 C 0.74218 0.61307 0.54665 0.0
O85 O 0.77031 0.53529 0.52805 0.0
O86 O 0.81594 0.56334 0.50457 0.0
C87 C 0.85844 0.63868 0.50937 0.0
Fe88 Fe 0.17131 0.79668 0.69708 0.0
Fe89 Fe 0.19789 0.75243 0.71065 0.0
O90 O 0.19729 0.78214 0.68774 0.0
Fe91 Fe 0.22264 0.79702 0.65539 0.0
O92 O 0.22904 0.83791 0.65816 0.0
O93 O 0.20405 0.83688 0.70029 0.0
O94 O 0.17489 0.79359 0.7383 0.0
C95 C 0.19504 0.79088 0.75445 0.0
C96 C 0.16597 0.78935 0.63326 0.0
O97 O 0.21046 0.77836 0.74379 0.0
C98 C 0.20006 0.73062 0.65387 0.0
O99 O 0.13615 0.75727 0.69531 0.0
O100 O 0.15614 0.73376 0.72261 0.0
O101 O 0.18854 0.78369 0.63013 0.0
O102 O 0.16342 0.80236 0.65734 0.0
C103 C 0.26298 0.79257 0.69614 0.0
O104 O 0.1851 0.72486 0.67878 0.0
O105 O 0.22076 0.75893 0.64675 0.0
C106 C 0.13226 0.73489 0.71269 0.0
O107 O 0.23998 0.76562 0.70364 0.0
O108 O 0.25835 0.81069 0.67879 0.0
C109 C 0.22482 0.85221 0.68038 0.0
Fe110 Fe 0.37636 0.17103 0.86858 0.0
Fe111 Fe 0.44552 0.19912 0.88944 0.0
O112 O 0.41771 0.19556 0.86143 0.0
Fe113 Fe 0.43074 0.21663 0.82645 0.0
O114 O 0.4089 0.23743 0.83395 0.0
O115 O 0.36416 0.19449 0.84528 0.0
O116 O 0.37814 0.19518 0.90079 0.0
C117 C 0.3969 0.20147 0.92295 0.0
C118 C 0.38018 0.15508 0.80983 0.0
O119 O 0.42016 0.19649 0.92151 0.0
C120 C 0.47428 0.19685 0.83372 0.0
O121 O 0.38039 0.14276 0.89345 0.0
O122 O 0.43066 0.15647 0.8897 0.0
O123 O 0.39803 0.18455 0.80374 0.0
O124 O 0.37248 0.14571 0.83693 0.0
C125 C 0.47367 0.26122 0.87029 0.0
O126 O 0.4758 0.20289 0.862 0.0
O127 O 0.45356 0.1976 0.81699 0.0
C128 C 0.40241 0.13619 0.8966 0.0
O129 O 0.46234 0.24165 0.89191 0.0
O130 O 0.46608 0.252 0.84284 0.0
C131 C 0.37955 0.22401 0.83971 0.0
Fe132 Fe 0.58753 0.79605 0.82884 0.0
Fe133 Fe 0.64047 0.79656 0.78951 0.0
O134 O 0.59955 0.78211 0.79677 0.0
Fe135 Fe 0.57045 0.75344 0.77208 0.0
O136 O 0.5416 0.76696 0.77769 0.0
O137 O 0.56689 0.81079 0.80482 0.0
O138 O 0.62233 0.83692 0.82797 0.0
C139 C 0.64203 0.85176 0.80671 0.0
C140 C 0.54299 0.72978 0.82731 0.0
O141 O 0.64833 0.83691 0.78693 0.0
C142 C 0.61797 0.73507 0.77241 0.0
O143 O 0.60676 0.78156 0.85481 0.0
O144 O 0.6519 0.80112 0.82982 0.0
O145 O 0.55355 0.72483 0.80283 0.0
O146 O 0.55069 0.75788 0.83542 0.0
C147 C 0.61446 0.79267 0.73067 0.0
O148 O 0.63586 0.75691 0.79069 0.0
O149 O 0.59372 0.73465 0.76132 0.0
C150 C 0.63515 0.78743 0.85306 0.0
O151 O 0.63616 0.79472 0.74813 0.0
O152 O 0.58598 0.78031 0.73976 0.0
C153 C 0.54507 0.7935 0.7862 0.0
Fe154 Fe 0.84628 0.63849 0.9571 0.0
Fe155 Fe 0.81895 0.5673 0.94502 0.0
O156 O 0.82163 0.59835 0.96846 0.0
Fe157 Fe 0.7994 0.58856 0.00286 0.0
O158 O 0.79114 0.62185 0.00129 0.0
O159 O 0.81389 0.64638 0.95855 0.0
O160 O 0.83668 0.62966 0.91655 0.0
C161 C 0.81367 0.60596 0.90343 0.0
C162 C 0.85799 0.63914 0.02034 0.0
O163 O 0.80109 0.57837 0.91484 0.0
C164 C 0.8246 0.54665 0.00073 0.0
O165 O 0.88147 0.63442 0.95405 0.0
O166 O 0.85838 0.59043 0.92758 0.0
O167 O 0.83537 0.61127 0.02533 0.0
O168 O 0.85934 0.65358 -0.00416 0.0
C169 C 0.75609 0.54101 0.96603 0.0
O170 O 0.83664 0.55517 0.97446 0.0
O171 O 0.80415 0.5537 0.01052 0.0
C172 C 0.88333 0.61547 0.93561 0.0
O173 O 0.7788 0.53744 0.957 0.0
O174 O 0.76163 0.56468 0.98246 0.0
C175 C 0.79452 0.64085 0.97988 0.0
Fe176 Fe 0.26218 0.81831 0.11344 0.0
Fe177 Fe 0.22314 0.79685 0.17292 0.0
O178 O 0.23424 0.81939 0.13866 0.0
Fe179 Fe 0.21667 0.84282 0.12929 0.0
O180 O 0.19845 0.8194 0.09526 0.0
O181 O 0.24233 0.8211 0.07913 0.0
O182 O 0.23826 0.7757 0.10901 0.0
C183 C 0.2275 0.75511 0.1298 0.0
C184 C 0.27982 0.88081 0.10707 0.0
O185 O 0.2261 0.76293 0.15717 0.0
C186 C 0.23052 0.85695 0.18949 0.0
O187 O 0.2865 0.81482 0.14363 0.0
O188 O 0.26373 0.81636 0.18656 0.0
O189 O 0.25068 0.87274 0.10735 0.0
O190 O 0.28843 0.86129 0.11515 0.0
C191 C 0.16536 0.78815 0.15433 0.0
O192 O 0.21907 0.82738 0.19489 0.0
O193 O 0.23408 0.86727 0.16254 0.0
C194 C 0.28748 0.81906 0.17224 0.0
O195 O 0.18146 0.77524 0.16139 0.0
O196 O 0.17912 0.81772 0.14936 0.0
C197 C 0.21394 0.81476 0.0747 0.0
Fe198 Fe 0.3755 0.21207 0.2951 0.0
Fe199 Fe 0.44508 0.25549 0.27669 0.0
O200 O 0.41662 0.22754 0.30214 0.0
Fe201 Fe 0.4294 0.21525 0.33476 0.0
O202 O 0.3949 0.17417 0.33522 0.0
O203 O 0.36866 0.17206 0.29366 0.0
O204 O 0.37931 0.21269 0.25366 0.0
C205 C 0.40095 0.21434 0.23635 0.0
C206 C 0.38143 0.22386 0.35813 0.0
O207 O 0.42951 0.2274 0.24526 0.0
C208 C 0.47332 0.28154 0.33101 0.0
O209 O 0.37923 0.25137 0.29522 0.0
O210 O 0.42115 0.27332 0.26546 0.0
O211 O 0.4101 0.23054 0.35993 0.0
O212 O 0.36452 0.20855 0.33549 0.0
C213 C 0.47126 0.21655 0.29192 0.0
O214 O 0.46205 0.28526 0.30648 0.0
O215 O 0.4661 0.25389 0.3401 0.0
C216 C 0.39708 0.27307 0.27686 0.0
O217 O 0.4744 0.24275 0.28283 0.0
O218 O 0.45007 0.19991 0.31132 0.0
C219 C 0.37536 0.15826 0.31417 0.0
Fe220 Fe 0.17299 0.37457 0.45722 0.0
Fe221 Fe 0.20099 0.44375 0.43657 0.0
O222 O 0.19701 0.41594 0.46469 0.0
Fe223 Fe 0.21721 0.42876 0.50017 0.0
O224 O 0.23841 0.40716 0.49304 0.0
O225 O 0.19556 0.36247 0.48192 0.0
O226 O 0.19846 0.37669 0.4261 0.0
C227 C 0.20581 0.39586 0.40409 0.0
C228 C 0.15504 0.37884 0.51505 0.0
O229 O 0.20006 0.41869 0.40479 0.0
C230 C 0.19721 0.47217 0.49235 0.0
O231 O 0.1456 0.37826 0.43096 0.0
O232 O 0.15836 0.42833 0.43461 0.0
O233 O 0.18446 0.3956 0.52203 0.0
O234 O 0.14666 0.37099 0.48771 0.0
C235 C 0.26253 0.47223 0.45748 0.0
O236 O 0.20318 0.47359 0.46401 0.0
O237 O 0.19798 0.45146 0.50914 0.0
C238 C 0.13872 0.39998 0.42733 0.0
O239 O 0.24351 0.46111 0.43546 0.0
O240 O 0.25278 0.46448 0.48472 0.0
C241 C 0.22508 0.3778 0.48724 0.0
Fe242 Fe 0.75649 0.20235 0.61932 0.0
Fe243 Fe 0.79997 0.22312 0.67525 0.0
O244 O 0.78576 0.20005 0.64141 0.0
Fe245 Fe 0.80038 0.17484 0.62946 0.0
O246 O 0.79878 0.18272 0.58878 0.0
O247 O 0.78355 0.21865 0.58743 0.0
O248 O 0.76826 0.24319 0.63045 0.0
C249 C 0.79523 0.26591 0.63805 0.0
C250 C 0.73921 0.13739 0.61113 0.0
O251 O 0.81361 0.26046 0.65415 0.0
C252 C 0.79228 0.16491 0.69311 0.0
O253 O 0.72826 0.18605 0.65028 0.0
O254 O 0.7612 0.21955 0.68463 0.0
O255 O 0.76081 0.13961 0.62865 0.0
O256 O 0.73885 0.16221 0.60314 0.0
C257 C 0.85569 0.22688 0.64971 0.0
O258 O 0.78697 0.18749 0.69822 0.0
O259 O 0.80461 0.16322 0.6682 0.0
C260 C 0.73321 0.1989 0.6763 0.0
O261 O 0.84105 0.23037 0.67204 0.0
O262 O 0.84076 0.20739 0.62869 0.0
C263 C 0.79688 0.20477 0.57509 0.0
H264 H 0.1788 0.48226 0.02035 0.0
H265 H 0.17098 0.52668 0.03625 0.0
H266 H 0.25276 0.56189 0.09522 0.0
H267 H 0.26074 0.51816 0.07981 0.0
H268 H 0.16731 0.55022 0.10185 0.0
H269 H 0.27001 0.63484 0.03094 0.0
H270 H 0.24877 0.59238 0.02406 0.0
H271 H 0.27688 0.60873 0.05482 0.0
C272 C 0.19489 0.49929 0.03692 0.0
C273 C 0.22065 0.4968 0.04844 0.0
C274 C 0.19036 0.52459 0.04602 0.0
C275 C 0.2115 0.5477 0.0667 0.0
C276 C 0.23635 0.54449 0.07905 0.0
H277 H 0.22082 0.70677 0.16779 0.0
H278 H 0.2129 0.6545 0.15252 0.0
C279 C 0.24088 0.51941 0.07008 0.0
C280 C 0.20927 0.57639 0.07432 0.0
H281 H 0.24985 0.65727 0.06634 0.0
C282 C 0.18509 0.57364 0.09388 0.0
C283 C 0.23245 0.60685 0.06379 0.0
C284 C 0.25841 0.61106 0.04204 0.0
C285 C 0.184 0.60077 0.10379 0.0
C286 C 0.20795 0.63139 0.09414 0.0
C287 C 0.23159 0.63389 0.07394 0.0
C288 C 0.20912 0.66135 0.10421 0.0
C289 C 0.15716 0.59643 0.1243 0.0
C290 C 0.20968 0.68266 0.08226 0.0
C291 C 0.21457 0.71253 0.09087 0.0
C292 C 0.21907 0.72198 0.12171 0.0
C293 C 0.21731 0.7002 0.14389 0.0
C294 C 0.2126 0.67023 0.13518 0.0
H295 H 0.13652 0.57182 0.12284 0.0
H296 H 0.1656 0.60086 0.14828 0.0
H297 H 0.14906 0.61351 0.11839 0.0
H298 H 0.20706 0.67643 0.05826 0.0
H299 H 0.21546 0.72852 0.07315 0.0
H300 H 0.47826 0.16534 0.30923 0.0
H301 H 0.51896 0.15287 0.29145 0.0
H302 H 0.55825 0.23512 0.23268 0.0
H303 H 0.51793 0.24735 0.24968 0.0
H304 H 0.55377 0.18229 0.20387 0.0
H305 H 0.61266 0.20207 0.31719 0.0
H306 H 0.57105 0.17274 0.31543 0.0
H307 H 0.58361 0.21399 0.30936 0.0
C308 C 0.49554 0.18068 0.29248 0.0
C309 C 0.4949 0.20755 0.28119 0.0
C310 C 0.51887 0.1736 0.2824 0.0
C311 C 0.54196 0.19328 0.26093 0.0
C312 C 0.54078 0.21956 0.24922 0.0
H313 H 0.73207 0.25613 0.22054 0.0
H314 H 0.6792 0.24286 0.23717 0.0
C315 C 0.51767 0.22661 0.25918 0.0
C316 C 0.56824 0.18777 0.25094 0.0
H317 H 0.63784 0.1937 0.27554 0.0
C318 C 0.57189 0.18418 0.21959 0.0
C319 C 0.59198 0.19043 0.27144 0.0
C320 C 0.58995 0.19523 0.30522 0.0
C321 C 0.5993 0.18479 0.20806 0.0
C322 C 0.62359 0.18868 0.22845 0.0
C323 C 0.61915 0.19058 0.25993 0.0
C324 C 0.65554 0.19558 0.21754 0.0
C325 C 0.60299 0.18334 0.17401 0.0
C326 C 0.66008 0.17341 0.20067 0.0
C327 C 0.69073 0.18104 0.19081 0.0
C328 C 0.7173 0.21093 0.19775 0.0
C329 C 0.71237 0.23288 0.21461 0.0
C330 C 0.68202 0.2253 0.22433 0.0
H331 H 0.58406 0.18485 0.16115 0.0
H332 H 0.62651 0.20304 0.16649 0.0
H333 H 0.60179 0.16051 0.168 0.0
H334 H 0.64005 0.15014 0.19544 0.0
H335 H 0.69366 0.16348 0.17812 0.0
H336 H 0.29219 0.48475 0.40244 0.0
H337 H 0.34332 0.53006 0.38815 0.0
H338 H 0.35961 0.56276 0.48143 0.0
H339 H 0.30792 0.51707 0.49615 0.0
H340 H 0.35766 0.59434 0.3966 0.0
H341 H 0.44546 0.56984 0.45379 0.0
H342 H 0.40492 0.53899 0.4464 0.0
H343 H 0.41344 0.56666 0.4771 0.0
C344 C 0.30672 0.50128 0.42014 0.0
C345 C 0.29575 0.49735 0.45048 0.0
C346 C 0.33602 0.5272 0.41185 0.0
C347 C 0.35532 0.54979 0.43365 0.0
C348 C 0.34523 0.54538 0.46427 0.0
H349 H 0.52781 0.73189 0.42438 0.0
H350 H 0.48248 0.68086 0.43863 0.0
C351 C 0.3157 0.51928 0.47266 0.0
C352 C 0.38461 0.57905 0.42356 0.0
H353 H 0.46573 0.61952 0.42885 0.0
C354 C 0.38133 0.59982 0.40355 0.0
C355 C 0.4154 0.58614 0.43269 0.0
C356 C 0.42027 0.5642 0.45351 0.0
C357 C 0.40792 0.62782 0.39288 0.0
C358 C 0.43883 0.63489 0.40179 0.0
C359 C 0.4421 0.61401 0.42177 0.0
C360 C 0.46785 0.66487 0.39229 0.0
C361 C 0.4025 0.65009 0.37302 0.0
C362 C 0.47547 0.67272 0.36133 0.0
C363 C 0.50147 0.70229 0.35294 0.0
C364 C 0.52047 0.72443 0.37541 0.0
C365 C 0.51359 0.7157 0.40634 0.0
C366 C 0.48765 0.68636 0.41463 0.0
H367 H 0.37764 0.64533 0.37472 0.0
H368 H 0.4189 0.67534 0.37936 0.0
H369 H 0.40702 0.64675 0.34885 0.0
H370 H 0.46101 0.65619 0.34363 0.0
H371 H 0.50619 0.70808 0.32896 0.0
H372 H 0.85639 0.54406 0.52448 0.0
H373 H 0.868 0.50275 0.5427 0.0
H374 H 0.7676 0.43765 0.55427 0.0
H375 H 0.75589 0.47827 0.53659 0.0
H376 H 0.8429 0.46568 0.60438 0.0
H377 H 0.80512 0.39071 0.5 0.0
H378 H 0.81845 0.43285 0.49935 0.0
H379 H 0.77887 0.40485 0.51191 0.0
C380 C 0.83685 0.52081 0.53061 0.0
C381 C 0.80522 0.5145 0.52901 0.0
C382 C 0.84351 0.49733 0.54118 0.0
C383 C 0.81862 0.4671 0.54975 0.0
C384 C 0.78715 0.46072 0.54765 0.0
H385 H 0.75463 0.28509 0.61787 0.0
H386 H 0.76706 0.33646 0.59719 0.0
C387 C 0.78053 0.48408 0.53753 0.0
C388 C 0.82467 0.44182 0.56148 0.0
H389 H 0.80652 0.36544 0.54624 0.0
C390 C 0.83576 0.44402 0.59149 0.0
C391 C 0.81523 0.41358 0.54465 0.0
C392 C 0.80398 0.41029 0.51208 0.0
C393 C 0.83556 0.41784 0.60577 0.0
C394 C 0.8243 0.38893 0.58945 0.0
C395 C 0.81508 0.38753 0.55883 0.0
C396 C 0.81782 0.35867 0.60447 0.0
C397 C 0.84536 0.42054 0.63877 0.0
C398 C 0.84223 0.354 0.61612 0.0
C399 C 0.83512 0.32426 0.62829 0.0
C400 C 0.80353 0.29873 0.62876 0.0
C401 C 0.77927 0.30401 0.61778 0.0
C402 C 0.78633 0.33347 0.60584 0.0
H403 H 0.84977 0.44328 0.64927 0.0
H404 H 0.82668 0.40039 0.65212 0.0
H405 H 0.86754 0.4193 0.64043 0.0
H406 H 0.86678 0.37299 0.61502 0.0
H407 H 0.85437 0.32094 0.63632 0.0
H408 H 0.49684 0.76166 0.74552 0.0
H409 H 0.45552 0.7732 0.73037 0.0
H410 H 0.49649 0.85625 0.7884 0.0
H411 H 0.53818 0.84451 0.80427 0.0
H412 H 0.43193 0.81991 0.79573 0.0
H413 H 0.4588 0.83966 0.67272 0.0
H414 H 0.45512 0.80261 0.68466 0.0
H415 H 0.48664 0.83951 0.69994 0.0
C416 C 0.4974 0.78258 0.75502 0.0
C417 C 0.52099 0.80214 0.77622 0.0
C418 C 0.47379 0.78932 0.74604 0.0
C419 C 0.47315 0.81596 0.75769 0.0
C420 C 0.49665 0.8357 0.77883 0.0
H421 H 0.32065 0.84567 0.68135 0.0
H422 H 0.37405 0.8576 0.69757 0.0
C423 C 0.52048 0.82898 0.78788 0.0
C424 C 0.44659 0.82153 0.74906 0.0
H425 H 0.40463 0.82367 0.68731 0.0
C426 C 0.42632 0.82136 0.77204 0.0
C427 C 0.43942 0.82407 0.7182 0.0
C428 C 0.46137 0.82684 0.69252 0.0
C429 C 0.39807 0.8214 0.76491 0.0
C430 C 0.38948 0.821 0.73394 0.0
C431 C 0.41085 0.82347 0.71104 0.0
C432 C 0.3573 0.815 0.7249 0.0
C433 C 0.3774 0.82128 0.7907 0.0
C434 C 0.33016 0.78697 0.73446 0.0
C435 C 0.29984 0.78012 0.72527 0.0
C436 C 0.29569 0.80096 0.70594 0.0
C437 C 0.3229 0.8291 0.69625 0.0
C438 C 0.35344 0.83595 0.70551 0.0
H439 H 0.39177 0.83277 0.81146 0.0
H440 H 0.36436 0.83381 0.78426 0.0
H441 H 0.35975 0.79628 0.79661 0.0
H442 H 0.33243 0.76998 0.7487 0.0
H443 H 0.27959 0.75818 0.73321 0.0
H444 H 0.73574 0.47841 0.95734 0.0
H445 H 0.68432 0.43706 0.9385 0.0
H446 H 0.65054 0.50416 0.93718 0.0
H447 H 0.70231 0.54592 0.95717 0.0
H448 H 0.60444 0.44621 0.95646 0.0
H449 H 0.65666 0.42947 0.85121 0.0
H450 H 0.67576 0.42455 0.88402 0.0
H451 H 0.67895 0.46264 0.87668 0.0
C452 C 0.71734 0.48443 0.95328 0.0
C453 C 0.72321 0.51556 0.95849 0.0
C454 C 0.68798 0.46076 0.9422 0.0
C455 C 0.66383 0.46766 0.9353 0.0
C456 C 0.66896 0.49834 0.94188 0.0
H457 H 0.50535 0.3129 0.83161 0.0
H458 H 0.54838 0.36665 0.84497 0.0
C459 C 0.69845 0.52214 0.95346 0.0
C460 C 0.6335 0.44246 0.92138 0.0
H461 H 0.6053 0.38538 0.86563 0.0
C462 C 0.60456 0.43325 0.93631 0.0
C463 C 0.63325 0.42601 0.89449 0.0
C464 C 0.6628 0.43644 0.8755 0.0
C465 C 0.57592 0.40676 0.92635 0.0
C466 C 0.57631 0.38834 0.90131 0.0
C467 C 0.60486 0.39895 0.88515 0.0
C468 C 0.54832 0.35673 0.89316 0.0
C469 C 0.54559 0.39879 0.94297 0.0
C470 C 0.53396 0.33308 0.91557 0.0
C471 C 0.50931 0.30265 0.90808 0.0
C472 C 0.4986 0.29458 0.87774 0.0
C473 C 0.51289 0.31823 0.85517 0.0
C474 C 0.53752 0.34899 0.86282 0.0
H475 H 0.54665 0.42065 0.95226 0.0
H476 H 0.52447 0.38648 0.92787 0.0
H477 H 0.5425 0.38303 0.96258 0.0
H478 H 0.54242 0.33783 0.9389 0.0
H479 H 0.49921 0.28516 0.92616 0.0
H480 H 0.33914 0.43127 0.07996 0.0
H481 H 0.3593 0.41039 0.11932 0.0
H482 H 0.29157 0.31445 0.09193 0.0
H483 H 0.27075 0.33512 0.05257 0.0
H484 H 0.31139 0.36521 0.16632 0.0
H485 H 0.38377 0.32216 0.10614 0.0
H486 H 0.37512 0.35103 0.08947 0.0
H487 H 0.3448 0.30983 0.09084 0.0
C488 C 0.32912 0.40571 0.08161 0.0
C489 C 0.30313 0.38487 0.06325 0.0
C490 C 0.34056 0.39385 0.10429 0.0
C491 C 0.32661 0.36095 0.10875 0.0
C492 C 0.30258 0.33997 0.08879 0.0
H493 H 0.33541 0.25996 0.26991 0.0
H494 H 0.31653 0.28315 0.23129 0.0
C495 C 0.29093 0.35184 0.06611 0.0
C496 C 0.33531 0.34895 0.13601 0.0
H497 H 0.37663 0.31285 0.15908 0.0
C498 C 0.3256 0.35368 0.16483 0.0
C499 C 0.35388 0.33409 0.13386 0.0
C500 C 0.36525 0.32904 0.10347 0.0
C501 C 0.33421 0.34402 0.19169 0.0
C502 C 0.35289 0.32921 0.18955 0.0
C503 C 0.36237 0.32431 0.16066 0.0
C504 C 0.36367 0.3191 0.21684 0.0
C505 C 0.32391 0.35038 0.22212 0.0
C506 C 0.39635 0.33235 0.22228 0.0
C507 C 0.40717 0.31924 0.24431 0.0
C508 C 0.38552 0.29244 0.26123 0.0
C509 C 0.35271 0.28081 0.25752 0.0
C510 C 0.34187 0.29395 0.23533 0.0
H511 H 0.31491 0.36736 0.22015 0.0
H512 H 0.30451 0.32768 0.23152 0.0
H513 H 0.34396 0.36008 0.23862 0.0
H514 H 0.41357 0.35185 0.20837 0.0
H515 H 0.43258 0.32878 0.24665 0.0
H516 H 0.93936 0.28916 0.20244 0.0
H517 H 0.98697 0.31709 0.23463 0.0
H518 H 0.93178 0.33211 0.30306 0.0
H519 H 0.88509 0.30617 0.27063 0.0
H520 H 0.98739 0.38178 0.30115 0.0
H521 H 1.00313 0.27605 0.30515 0.0
H522 H 1.00667 0.29178 0.26746 0.0
H523 H 0.96917 0.2749 0.28728 0.0
C524 C 0.93759 0.29889 0.22416 0.0
C525 C 0.90834 0.29521 0.234 0.0
C526 C 0.96473 0.31455 0.24271 0.0
C527 C 0.96285 0.32595 0.27177 0.0
C528 C 0.93398 0.32349 0.28088 0.0
H529 H 0.08144 0.34536 0.42608 0.0
H530 H 0.03869 0.33009 0.38882 0.0
C531 C 0.90717 0.30856 0.26219 0.0
C532 C 0.99016 0.33931 0.29352 0.0
H533 H 0.04099 0.3218 0.33142 0.0
C534 C 0.99913 0.36865 0.30775 0.0
C535 C 1.00522 0.32202 0.30259 0.0
C536 C 0.99539 0.28932 0.29008 0.0
C537 C 0.02209 0.38082 0.3311 0.0
C538 C 0.03761 0.36385 0.33968 0.0
C539 C 0.02916 0.33488 0.32494 0.0
C540 C 0.06202 0.37491 0.36437 0.0
C541 C 0.02833 0.411 0.34714 0.0
C542 C 0.0891 0.40553 0.36375 0.0
C543 C 0.11309 0.41462 0.3857 0.0
C544 C 0.11092 0.39292 0.40813 0.0
C545 C 0.08361 0.36259 0.40914 0.0
C546 C 0.0593 0.3538 0.38769 0.0
H547 H 1.00781 0.41505 0.3449 0.0
H548 H 0.03324 0.41034 0.37178 0.0
H549 H 0.04929 0.43162 0.3366 0.0
H550 H 0.09237 0.422 0.34559 0.0
H551 H 0.13422 0.43792 0.38398 0.0
H552 H 0.72688 0.0763 0.62312 0.0
H553 H 0.70101 0.02998 0.58894 0.0
H554 H 0.68511 0.0866 0.52301 0.0
H555 H 0.70879 0.1318 0.55744 0.0
H556 H 0.637 0.03086 0.5221 0.0
H557 H 0.74398 0.01752 0.51801 0.0
H558 H 0.72731 0.01191 0.55553 0.0
H559 H 0.74391 0.05028 0.53737 0.0
C560 C 0.71733 0.0786 0.60156 0.0
C561 C 0.72007 0.10784 0.59305 0.0
C562 C 0.70291 0.05223 0.58183 0.0
C563 C 0.69189 0.05493 0.55287 0.0
C564 C 0.69345 0.08374 0.54507 0.0
H565 H 0.67624 0.9389 0.39599 0.0
H566 H 0.69132 0.98133 0.43377 0.0
C567 C 0.70707 0.10971 0.56494 0.0
C568 C 0.67961 0.02853 0.53001 0.0
H569 H 0.69889 0.97948 0.49089 0.0
C570 C 0.6506 0.01967 0.51527 0.0
C571 C 0.69752 0.01421 0.52056 0.0
C572 C 0.73004 0.02416 0.53345 0.0
C573 C 0.63929 0.99748 0.49119 0.0
C574 C 0.65669 0.98242 0.48243 0.0
C575 C 0.68543 0.99088 0.49752 0.0
C576 C 0.64604 0.9582 0.45747 0.0
C577 C 0.60953 0.99159 0.47468 0.0
C578 C 0.61532 0.9313 0.45754 0.0
C579 C 0.60635 0.90758 0.43526 0.0
C580 C 0.62826 0.90973 0.41305 0.0
C581 C 0.65881 0.93677 0.41269 0.0
C582 C 0.66749 0.96088 0.43446 0.0
H583 H 0.60565 0.01224 0.47691 0.0
H584 H 0.6106 0.98688 0.45003 0.0
H585 H 0.58863 0.97064 0.48489 0.0
H586 H 0.5986 0.92795 0.47548 0.0
H587 H 0.58288 0.88665 0.43657 0.0
H588 H 0.6794 0.74625 0.76909 0.0
H589 H 0.70007 0.724 0.73107 0.0
H590 H 0.60456 0.65998 0.69996 0.0
H591 H 0.58371 0.68195 0.7377 0.0
H592 H 0.68701 0.66041 0.71533 0.0
H593 H 0.65139 0.71584 0.62423 0.0
H594 H 0.65354 0.72669 0.66395 0.0
H595 H 0.61986 0.69079 0.64994 0.0
C596 C 0.6627 0.72676 0.75483 0.0
C597 C 0.62989 0.71613 0.75626 0.0
C598 C 0.67459 0.71425 0.73292 0.0
C599 C 0.65389 0.69098 0.71215 0.0
C600 C 0.621 0.67845 0.71529 0.0
H601 H 0.69158 0.57764 0.58411 0.0
H602 H 0.66985 0.59732 0.62324 0.0
C603 C 0.60912 0.69088 0.73709 0.0
C604 C 0.66655 0.68103 0.68607 0.0
H605 H 0.66913 0.68048 0.60809 0.0
C606 C 0.68319 0.66484 0.69189 0.0
C607 C 0.66209 0.68744 0.65549 0.0
C608 C 0.64603 0.7064 0.6479 0.0
C609 C 0.69466 0.65402 0.66791 0.0
C610 C 0.68887 0.65909 0.63729 0.0
C611 C 0.6731 0.67617 0.63152 0.0
C612 C 0.69922 0.64695 0.61106 0.0
C613 C 0.71323 0.63757 0.67559 0.0
C614 C 0.72145 0.66811 0.58986 0.0
C615 C 0.73374 0.65689 0.56712 0.0
C616 C 0.72395 0.62425 0.56517 0.0
C617 C 0.6999 0.60294 0.58506 0.0
C618 C 0.68765 0.61418 0.60769 0.0
H619 H 0.72275 0.64301 0.69924 0.0
H620 H 0.69731 0.6114 0.67375 0.0
H621 H 0.73339 0.64468 0.65954 0.0
H622 H 0.73041 0.69349 0.5918 0.0
H623 H 0.75222 0.67401 0.55227 0.0
H624 H 0.08168 0.74552 0.71558 0.0
H625 H 0.03866 0.72338 0.75329 0.0
H626 H 0.071 0.66052 0.78583 0.0
H627 H 0.11413 0.68257 0.74849 0.0
H628 H 0.98877 0.66181 0.76845 0.0
H629 H 0.07789 0.71431 0.86154 0.0
H630 H 0.08779 0.72507 0.822 0.0
H631 H 0.0841 0.68865 0.83635 0.0
C632 C 0.07917 0.72639 0.73018 0.0
C633 C 0.10165 0.71611 0.72922 0.0
C634 C 0.05467 0.71392 0.7519 0.0
C635 C 0.05224 0.691 0.77296 0.0
C636 C 0.07297 0.67881 0.77034 0.0
H637 H 0.89689 0.57942 0.89732 0.0
H638 H 0.93897 0.59829 0.85899 0.0
C639 C 0.09744 0.69126 0.74875 0.0
C640 C 0.02916 0.68095 0.7986 0.0
H641 H 0.02427 0.67955 0.8765 0.0
C642 C 0.99651 0.66571 0.79207 0.0
C643 C 0.03934 0.68672 0.82943 0.0
C644 C 0.07418 0.70486 0.83786 0.0
C645 C 0.97371 0.65527 0.81552 0.0
C646 C 0.98384 0.65967 0.84637 0.0
C647 C 0.01653 0.67573 0.85289 0.0
C648 C 0.96073 0.64788 0.87207 0.0
C649 C 0.93897 0.64005 0.80703 0.0
C650 C 0.96018 0.66922 0.89348 0.0
C651 C 0.93629 0.65843 0.91578 0.0
C652 C 0.91254 0.62609 0.91702 0.0
C653 C 0.91458 0.60454 0.89685 0.0
C654 C 0.93846 0.61531 0.8747 0.0
H655 H 0.93578 0.64624 0.7834 0.0
H656 H 0.92789 0.61376 0.80833 0.0
H657 H 0.92606 0.64751 0.82295 0.0
H658 H 0.97739 0.69443 0.8921 0.0
H659 H 0.93546 0.6757 0.93091 0.0
H660 H 0.34444 0.08469 0.90962 0.0
H661 H 0.33272 0.04154 0.94533 0.0
H662 H 0.43309 0.07935 0.96027 0.0
H663 H 0.44517 0.12281 0.92447 0.0
H664 H 0.35383 0.99451 0.94778 0.0
H665 H 0.3941 0.07857 0.04627 0.0
H666 H 0.38507 0.08888 0.00951 0.0
H667 H 0.42133 0.08811 0.01488 0.0
C668 C 0.3641 0.08364 0.92012 0.0
C669 C 0.39576 0.1074 0.91433 0.0
C670 C 0.35733 0.05892 0.94052 0.0
C671 C 0.38201 0.05753 0.95577 0.0
C672 C 0.41369 0.08024 0.94899 0.0
H673 H 0.33567 0.89506 0.07799 0.0
H674 H 0.36596 0.93931 0.0425 0.0
C675 C 0.42054 0.10493 0.92836 0.0
C676 C 0.37416 0.03326 0.97993 0.0
H677 H 0.37193 0.02413 0.05738 0.0
C678 C 0.35823 1.00093 0.97172 0.0
C679 C 0.37962 0.04179 0.01116 0.0
C680 C 0.39578 0.07618 0.02122 0.0
C681 C 0.34697 0.97685 0.99397 0.0
C682 C 0.35194 0.98538 0.02523 0.0
C683 C 0.3685 0.01771 0.0334 0.0
C684 C 0.33693 0.96109 0.04961 0.0
C685 C 0.32845 0.94245 0.984 0.0
C686 C 0.31152 0.95951 0.0663 0.0
C687 C 0.29424 0.93438 0.08649 0.0
C688 C 0.30218 0.91041 0.09064 0.0
C689 C 0.32902 0.91319 0.07542 0.0
C690 C 0.34618 0.93829 0.05494 0.0
H691 H 0.32302 0.94 0.95919 0.0
H692 H 0.34254 0.93068 0.989 0.0
H693 H 0.30573 0.92962 -0.00315 0.0
H694 H 0.30408 0.97693 0.06263 0.0
H695 H 0.2738 0.93302 0.09795 0.0
H696 H 0.52636 0.66704 0.82194 0.0
H697 H 0.48498 0.62165 0.8501 0.0
H698 H 0.4627 0.6848 0.90003 0.0
H699 H 0.50458 0.73038 0.87267 0.0
H700 H 0.4645 0.64158 0.937 0.0
H701 H 0.39047 0.58074 0.83546 0.0
H702 H 0.43043 0.58789 0.83277 0.0
H703 H 0.42347 0.62102 0.83413 0.0
C704 C 0.51264 0.67127 0.83891 0.0
C705 C 0.51859 0.70231 0.84487 0.0
C706 C 0.48887 0.64526 0.85486 0.0
C707 C 0.47028 0.64974 0.8767 0.0
C708 C 0.47663 0.68076 0.88315 0.0
H709 H 0.28727 0.51134 0.94913 0.0
H710 H 0.33207 0.55351 0.92118 0.0
C711 C 0.50059 0.7068 0.86746 0.0
C712 C 0.44424 0.62225 0.89301 0.0
H713 H 0.37446 0.55251 0.8822 0.0
C714 C 0.4448 0.62209 0.92503 0.0
C715 C 0.41836 0.59704 0.87735 0.0
C716 C 0.41538 0.59673 0.84306 0.0
C717 C 0.42018 0.59748 0.94186 0.0
C718 C 0.39471 0.57187 0.92618 0.0
C719 C 0.39417 0.57199 0.89416 0.0
C720 C 0.36763 0.54545 0.94257 0.0
C721 C 0.42122 0.59975 0.97624 0.0
C722 C 0.37263 0.52645 0.96344 0.0
C723 C 0.34708 0.50252 0.97972 0.0
C724 C 0.31597 0.49681 0.97507 0.0
C725 C 0.31092 0.51514 0.95334 0.0
C726 C 0.3365 0.53926 0.93731 0.0
H727 H 0.43735 0.62452 0.9842 0.0
H728 H 0.39714 0.59144 0.98583 0.0
H729 H 0.43025 0.58448 0.98552 0.0
H730 H 0.39632 0.53022 0.96725 0.0
H731 H 0.35173 0.48854 -0.004 0.0
H732 H 0.80611 0.52556 0.059 0.0
H733 H 0.81086 0.48382 0.08552 0.0
H734 H 0.85942 0.47346 0.00767 0.0
H735 H 0.85548 0.5156 0.98126 0.0
H736 H 0.78409 0.42271 0.06625 0.0
H737 H 0.91459 0.47449 0.07748 0.0
H738 H 0.89663 0.49822 0.06799 0.0
H739 H 0.90205 0.47497 0.03907 0.0
C740 C 0.81822 0.51474 0.04769 0.0
C741 C 0.83024 0.52377 0.01796 0.0
C742 C 0.82093 0.49092 0.06288 0.0
C743 C 0.83573 0.47576 0.04865 0.0
C744 C 0.84852 0.48531 0.01932 0.0
H745 H 0.79652 0.28526 0.09584 0.0
H746 H 0.80259 0.33218 0.06892 0.0
C747 C 0.84603 0.50928 0.00418 0.0
C748 C 0.83527 0.44813 0.06342 0.0
H749 H 0.88251 0.41879 0.08736 0.0
C750 C 0.80561 0.42191 0.07102 0.0
C751 C 0.86341 0.44728 0.06973 0.0
C752 C 0.89599 0.47537 0.06343 0.0
C753 C 0.80326 0.39469 0.08461 0.0
C754 C 0.83132 0.39339 0.09002 0.0
C755 C 0.86104 0.41973 0.08272 0.0
C756 C 0.83027 0.36545 0.10466 0.0
C757 C 0.7708 0.36789 0.09366 0.0
C758 C 0.84506 0.36891 0.13297 0.0
C759 C 0.84191 0.34228 0.14826 0.0
C760 C 0.82381 0.31165 0.13551 0.0
C761 C 0.81022 0.30845 0.10647 0.0
C762 C 0.81356 0.33518 0.09111 0.0
H763 H 0.75299 0.37589 0.09498 0.0
H764 H 0.76243 0.34862 0.07635 0.0
H765 H 0.77171 0.35777 0.11611 0.0
H766 H 0.85822 0.39212 0.14369 0.0
H767 H 0.85293 0.34566 0.17047 0.0
H768 H 0.29676 0.82583 0.23406 0.0
H769 H 0.34264 0.83199 0.26284 0.0
H770 H 0.38846 0.83067 0.17896 0.0
H771 H 0.34281 0.82466 0.14988 0.0
H772 H 0.3652 0.78823 0.26179 0.0
H773 H 0.45835 0.90885 0.2249 0.0
H774 H 0.41633 0.89458 0.22033 0.0
H775 H 0.4366 0.88212 0.19423 0.0
C776 C 0.31669 0.82712 0.22165 0.0
C777 C 0.31602 0.82463 0.18962 0.0
C778 C 0.34289 0.83067 0.23817 0.0
C779 C 0.36904 0.83214 0.223 0.0
C780 C 0.36873 0.83017 0.19106 0.0
H781 H 0.53948 0.82964 0.26978 0.0
H782 H 0.49639 0.83378 0.24565 0.0
C783 C 0.34251 0.82653 0.17449 0.0
C784 C 0.39573 0.83358 0.24067 0.0
H785 H 0.47603 0.87783 0.25169 0.0
C786 C 0.3894 0.80795 0.25988 0.0
C787 C 0.42722 0.85931 0.23796 0.0
C788 C 0.43511 0.88794 0.21846 0.0
C789 C 0.41392 0.80683 0.27573 0.0
C790 C 0.44552 0.83241 0.27279 0.0
C791 C 0.45177 0.85829 0.25394 0.0
C792 C 0.47257 0.83196 0.28797 0.0
C793 C 0.40594 0.77769 0.29453 0.0
C794 C 0.4739 0.83037 0.31987 0.0
C795 C 0.49843 0.82779 0.33381 0.0
C796 C 0.52222 0.827 0.31607 0.0
C797 C 0.52145 0.82991 0.28417 0.0
C798 C 0.49687 0.83237 0.2703 0.0
H799 H 0.38224 0.75722 0.28852 0.0
H800 H 0.42412 0.7704 0.29139 0.0
H801 H 0.40548 0.78325 0.31903 0.0
H802 H 0.45574 0.83074 0.33397 0.0
H803 H 0.49846 0.82592 0.35843 0.0
H804 H 0.67409 0.53054 0.48582 0.0
H805 H 0.62797 0.48871 0.45878 0.0
H806 H 0.68927 0.46342 0.40964 0.0
H807 H 0.73561 0.50582 0.43586 0.0
H808 H 0.64393 0.46206 0.37309 0.0
H809 H 0.58909 0.39558 0.47979 0.0
H810 H 0.59595 0.43555 0.48005 0.0
H811 H 0.6292 0.42883 0.47847 0.0
C812 C 0.67777 0.5162 0.4691 0.0
C813 C 0.70845 0.52123 0.46324 0.0
C814 C 0.65137 0.49219 0.45382 0.0
C815 C 0.6551 0.47242 0.43281 0.0
C816 C 0.68583 0.47826 0.42596 0.0
H817 H 0.51456 0.28362 0.37463 0.0
H818 H 0.55801 0.33083 0.39874 0.0
C819 C 0.7123 0.50252 0.44095 0.0
C820 C 0.62702 0.44512 0.41848 0.0
H821 H 0.55855 0.37588 0.43467 0.0
C822 C 0.62523 0.44321 0.38652 0.0
C823 C 0.60291 0.42032 0.43609 0.0
C824 C 0.60444 0.41991 0.47048 0.0
C825 C 0.59999 0.41716 0.37165 0.0
C826 C 0.57545 0.39279 0.38927 0.0
C827 C 0.57722 0.39474 0.42122 0.0
C828 C 0.54843 0.36432 0.37509 0.0
C829 C 0.60046 0.41553 0.33727 0.0
C830 C 0.52819 0.36742 0.35426 0.0
C831 C 0.50352 0.34048 0.34019 0.0
C832 C 0.49834 0.30991 0.34707 0.0
C833 C 0.51794 0.30681 0.36878 0.0
C834 C 0.54279 0.33378 0.38257 0.0
H835 H 0.62473 0.43116 0.32795 0.0
H836 H 0.5919 0.39078 0.32932 0.0
H837 H 0.58457 0.42366 0.32769 0.0
H838 H 0.53152 0.39068 0.34881 0.0
H839 H 0.48857 0.34363 0.32386 0.0
H840 H 0.23338 0.73375 0.60239 0.0
H841 H 0.22878 0.6895 0.57172 0.0
H842 H 0.15364 0.62271 0.63036 0.0
H843 H 0.15792 0.66682 0.66124 0.0
H844 H 0.23747 0.6396 0.59504 0.0
H845 H 0.11814 0.59383 0.54256 0.0
H846 H 0.14058 0.63335 0.55871 0.0
H847 H 0.11975 0.59942 0.58323 0.0
C848 C 0.21565 0.70969 0.60868 0.0
C849 C 0.19612 0.70384 0.63441 0.0
C850 C 0.21307 0.68445 0.59109 0.0
C851 C 0.19068 0.65292 0.59862 0.0
C852 C 0.17073 0.64694 0.62391 0.0
H853 H 0.18882 0.4793 0.55297 0.0
H854 H 0.18585 0.52304 0.57741 0.0
C855 C 0.17338 0.67218 0.64164 0.0
C856 C 0.18981 0.62627 0.58128 0.0
H857 H 0.14251 0.56202 0.53635 0.0
C858 C 0.21678 0.62273 0.58209 0.0
C859 C 0.16283 0.60448 0.56426 0.0
C860 C 0.13372 0.60797 0.56182 0.0
C861 C 0.21726 0.59752 0.56684 0.0
C862 C 0.19001 0.57525 0.55052 0.0
C863 C 0.16325 0.57911 0.5491 0.0
C864 C 0.18901 0.54756 0.53527 0.0
C865 C 0.24689 0.5948 0.56825 0.0
C866 C 0.191 0.5466 0.50341 0.0
C867 C 0.19287 0.52168 0.48927 0.0
C868 C 0.19259 0.49724 0.50683 0.0
C869 C 0.18932 0.49778 0.53871 0.0
C870 C 0.18761 0.52274 0.55277 0.0
H871 H 0.26768 0.61691 0.5771 0.0
H872 H 0.24258 0.57483 0.58359 0.0
H873 H 0.25282 0.5895 0.5453 0.0
H874 H 0.19204 0.56561 0.48958 0.0
H875 H 0.1952 0.52193 0.46468 0.0
H876 H 0.5308 0.20848 0.85862 0.0
H877 H 0.57371 0.20466 0.83333 0.0
H878 H 0.51672 0.16968 0.75177 0.0
H879 H 0.47398 0.17414 0.77656 0.0
H880 H 0.57739 0.15499 0.80682 0.0
H881 H 0.597 0.24697 0.7208 0.0
H882 H 0.57248 0.23982 0.75411 0.0
H883 H 0.55693 0.21411 0.72135 0.0
C884 C 0.52732 0.19983 0.83534 0.0
C885 C 0.49918 0.19207 0.81942 0.0
C886 C 0.55185 0.19763 0.82096 0.0
C887 C 0.54862 0.18754 0.7905 0.0
C888 C 0.51998 0.17832 0.77504 0.0
H889 H 0.6702 0.16561 0.66081 0.0
H890 H 0.62513 0.1604 0.69035 0.0
C891 C 0.49556 0.18079 0.78928 0.0
C892 C 0.57556 0.18758 0.77462 0.0
H893 H 0.62503 0.21904 0.71332 0.0
C894 C 0.5879 0.16906 0.78644 0.0
C895 C 0.58937 0.20622 0.74819 0.0
C896 C 0.57851 0.22816 0.73551 0.0
C897 C 0.61335 0.16821 0.77209 0.0
C898 C 0.62665 0.18636 0.74542 0.0
C899 C 0.61446 0.20497 0.7337 0.0
C900 C 0.6535 0.18676 0.72926 0.0
C901 C 0.62566 0.14766 0.78517 0.0
C902 C 0.68425 0.20314 0.74161 0.0
C903 C 0.71017 0.20642 0.72472 0.0
C904 C 0.70565 0.19335 0.69522 0.0
C905 C 0.67456 0.17604 0.68341 0.0
C906 C 0.64876 0.17299 0.70022 0.0
H907 H 0.60983 0.1315 0.8033 0.0
H908 H 0.62811 0.13314 0.76687 0.0
H909 H 0.64962 0.16314 0.79511 0.0
H910 H 0.68831 0.21419 0.76391 0.0
H911 H 0.73377 0.21974 0.73452 0.0
H912 H 0.21066 0.3176 0.95943 0.0
H913 H 0.23602 0.29613 0.92633 0.0
H914 H 0.29933 0.39026 0.89156 0.0
H915 H 0.274 0.4121 0.92461 0.0
H916 H 0.25051 0.30291 0.85812 0.0
H917 H 0.35587 0.35731 0.93546 0.0
H918 H 0.31748 0.35092 0.94737 0.0
H919 H 0.34117 0.38234 0.92115 0.0
C920 C 0.22951 0.3337 0.94427 0.0
C921 C 0.24039 0.36661 0.94479 0.0
C922 C 0.24395 0.32136 0.92535 0.0
C923 C 0.26974 0.34166 0.90678 0.0
C924 C 0.27954 0.37425 0.90588 0.0
H925 H 0.40485 0.28856 0.83222 0.0
H926 H 0.37874 0.31976 0.84249 0.0
C927 C 0.2649 0.38663 0.92465 0.0
C928 C 0.28792 0.32893 0.89068 0.0
H929 H 0.35557 0.32414 0.89641 0.0
C930 C 0.27367 0.30782 0.86617 0.0
C931 C 0.31816 0.33551 0.90119 0.0
C932 C 0.3342 0.35761 0.92782 0.0
C933 C 0.28864 0.29258 0.85227 0.0
C934 C 0.31821 0.29793 0.86377 0.0
C935 C 0.33295 0.32002 0.88754 0.0
C936 C 0.33297 0.27895 0.85353 0.0
C937 C 0.27252 0.2708 0.82548 0.0
C938 C 0.31593 0.24561 0.856 0.0
C939 C 0.33069 0.22775 0.84996 0.0
C940 C 0.36303 0.2428 0.84166 0.0
C941 C 0.37988 0.27615 0.83836 0.0
C942 C 0.365 0.29404 0.84431 0.0
H943 H 0.25731 0.27806 0.81286 0.0
H944 H 0.29012 0.27061 0.8094 0.0
H945 H 0.25688 0.24619 0.83392 0.0
H946 H 0.29151 0.23341 0.86389 0.0
H947 H 0.31699 0.20217 0.85301 0.0
H948 H 0.9004 0.21043 0.13508 0.0
H949 H 0.9505 0.23725 0.10702 0.0
H950 H 0.91803 0.29285 0.05833 0.0
H951 H 0.86747 0.26602 0.08637 0.0
H952 H 0.95582 0.26785 0.02262 0.0
H953 H 0.01266 0.33464 0.12897 0.0
H954 H 0.98868 0.29221 0.13357 0.0
H955 H 0.9702 0.31489 0.12269 0.0
C956 C 0.90352 0.22788 0.11799 0.0
C957 C 0.87993 0.23622 0.1132 0.0
C958 C 0.93224 0.24323 0.102 0.0
C959 C 0.93809 0.2673 0.08093 0.0
C960 C 0.91394 0.27435 0.07456 0.0
H961 H 0.12485 0.3894 0.9911 0.0
H962 H 0.06762 0.36517 0.00231 0.0
C963 C 0.88505 0.25893 0.09058 0.0
C964 C 0.97047 0.28675 0.06792 0.0
H965 H 0.04735 0.33705 0.08941 0.0
C966 C 0.97585 0.28339 0.037 0.0
C967 C 0.99643 0.30721 0.08673 0.0
C968 C 0.99181 0.31278 0.11978 0.0
C969 C 1.00693 0.29862 0.02487 0.0
C970 C 0.033 0.31777 0.04417 0.0
C971 C 0.02733 0.32225 0.07468 0.0
C972 C 0.06658 0.3308 0.03443 0.0
C973 C 0.01193 0.29296 0.99202 0.0
C974 C 0.08479 0.31938 0.04855 0.0
C975 C 0.11719 0.33311 0.04235 0.0
C976 C 0.13236 0.35877 0.02186 0.0
C977 C 0.11388 0.36959 0.00686 0.0
C978 C 0.0812 0.35575 0.01319 0.0
H979 H 0.98952 0.27478 0.98096 0.0
H980 H 0.02134 0.31559 0.97913 0.0
H981 H 0.0298 0.28507 0.99046 0.0
H982 H 0.07401 0.30016 0.06498 0.0
H983 H 0.13049 0.32394 0.05423 0.0
H984 H 0.69464 0.91833 0.30621 0.0
H985 H 0.71319 0.9608 0.26849 0.0
H986 H 0.63265 0.90169 0.21117 0.0
H987 H 0.61381 0.85844 0.2491 0.0
H988 H 0.72328 0.95681 0.19845 0.0
H989 H 0.63289 0.98954 0.23402 0.0
H990 H 0.64501 0.96871 0.26 0.0
H991 H 0.62159 0.94848 0.22714 0.0
C992 C 0.681 0.91409 0.28543 0.0
C993 C 0.6527 0.88503 0.28066 0.0
C994 C 0.69169 0.9384 0.26387 0.0
C995 C 0.67422 0.93442 0.23719 0.0
C996 C 0.64643 0.90515 0.23171 0.0
H997 H 0.734 0.1184 0.14524 0.0
H998 H 0.70261 0.06004 0.1511 0.0
C999 C 0.63582 0.88048 0.25326 0.0
C1000 C 0.68485 0.96202 0.21644 0.0
H1001 H 0.6772 0.02772 0.20645 0.0
C1002 C 0.71272 0.97193 0.19942 0.0
C1003 C 0.67092 0.98158 0.21761 0.0
C1004 C 0.64092 0.97177 0.23562 0.0
C1005 C 0.72824 1.00191 0.18526 0.0
C1006 C 0.71597 0.02278 0.1889 0.0
C1007 C 0.68665 0.01177 0.20374 0.0
C1008 C 0.73571 0.05741 0.18238 0.0
C1009 C 0.75848 0.01157 0.16775 0.0
C1010 C 0.76453 0.0752 0.19807 0.0
C1011 C 0.78219 0.10819 0.19497 0.0
C1012 C 0.77152 0.1244 0.1761 0.0
C1013 C 0.74297 0.10657 0.15974 0.0
C1014 C 0.72501 0.0733 0.16312 0.0
H1015 H 0.75829 0.99045 0.15758 0.0
H1016 H 0.76201 0.02869 0.14928 0.0
H1017 H 0.77905 0.02306 0.18359 0.0
H1018 H 0.77292 0.06366 0.21363 0.0
H1019 H 0.80405 0.12109 0.20791 0.0
H1020 H 0.61196 0.72727 0.34314 0.0
H1021 H 0.63846 0.69741 0.35766 0.0
H1022 H 0.72975 0.78324 0.35135 0.0
H1023 H 0.70363 0.81327 0.3369 0.0
H1024 H 0.72575 0.72327 0.32722 0.0
H1025 H 0.68043 0.71573 0.44552 0.0
H1026 H 0.65164 0.70256 0.41514 0.0
H1027 H 0.68145 0.74387 0.41797 0.0
C1028 C 0.63772 0.73966 0.34413 0.0
C1029 C 0.65566 0.77271 0.33903 0.0
C1030 C 0.6528 0.72258 0.35258 0.0
C1031 C 0.68602 0.73822 0.35585 0.0
C1032 C 0.70408 0.77075 0.34895 0.0
H1033 H 0.806 0.69881 0.46899 0.0
H1034 H 0.78031 0.72212 0.43924 0.0
C1035 C 0.68907 0.78787 0.34075 0.0
C1036 C 0.70187 0.7216 0.36916 0.0
H1037 H 0.71254 0.69294 0.43656 0.0
C1038 C 0.7227 0.71634 0.35104 0.0
C1039 C 0.69814 0.71305 0.40035 0.0
C1040 C 0.67691 0.7192 0.42108 0.0
C1041 C 0.73998 0.70276 0.36339 0.0
C1042 C 0.73627 0.69428 0.3946 0.0
C1043 C 0.71527 0.69938 0.4126 0.0
C1044 C 0.75478 0.68129 0.40964 0.0
C1045 C 0.76278 0.69842 0.3433 0.0
C1046 C 0.74954 0.65079 0.40242 0.0
C1047 C 0.76428 0.63728 0.41944 0.0
C1048 C 0.78443 0.65403 0.44407 0.0
C1049 C 0.79068 0.68517 0.45023 0.0
C1050 C 0.77593 0.69855 0.43328 0.0
H1051 H 0.76709 0.71125 0.32127 0.0
H1052 H 0.78592 0.70702 0.35511 0.0
H1053 H 0.75274 0.67269 0.33834 0.0
H1054 H 0.73298 0.63688 0.38451 0.0
H1055 H 0.75869 0.61318 0.41421 0.0
H1056 H 0.11699 0.80187 0.63047 0.0
H1057 H 0.07051 0.777 0.59718 0.0
H1058 H 0.1101 0.72686 0.54963 0.0
H1059 H 0.15676 0.75138 0.58322 0.0
H1060 H 0.0622 0.775 0.53316 0.0
H1061 H 0.02417 0.6549 0.58139 0.0
H1062 H 0.0547 0.69098 0.59902 0.0
H1063 H 0.06334 0.67604 0.56499 0.0
C1064 C 0.11615 0.78594 0.61267 0.0
C1065 C 0.1406 0.7785 0.60971 0.0
C1066 C 0.0895 0.77172 0.59362 0.0
C1067 C 0.08654 0.74964 0.57126 0.0
C1068 C 0.11163 0.74341 0.56708 0.0
H1069 H 0.90088 0.62451 0.48133 0.0
H1070 H 0.9589 0.65141 0.48943 0.0
C1071 C 0.13842 0.75769 0.58614 0.0
C1072 C 0.05631 0.7321 0.55381 0.0
H1073 H 0.98893 0.65916 0.5478 0.0
C1074 C 0.0464 0.74957 0.53595 0.0
C1075 C 0.03572 0.69887 0.55733 0.0
C1076 C 0.04476 0.67898 0.57684 0.0
C1077 C 0.016 0.73499 0.52261 0.0
C1078 C 0.99475 0.70217 0.52761 0.0
C1079 C 1.00529 0.6843 0.54393 0.0
C1080 C 0.96036 0.68717 0.5201 0.0
C1081 C 1.00653 0.75506 0.50399 0.0
C1082 C 0.94203 0.69826 0.53469 0.0
C1083 C 0.9092 0.68293 0.53034 0.0
C1084 C 0.89372 0.65606 0.51122 0.0
C1085 C 0.91213 0.6453 0.49597 0.0
C1086 C 0.94521 0.66057 0.50064 0.0
H1087 H 0.02768 0.776 0.49399 0.0
H1088 H 0.98999 0.74096 0.48528 0.0
H1089 H 0.9943 0.76406 0.51899 0.0
H1090 H 0.95303 0.71829 0.55027 0.0
H1091 H 0.89583 0.69193 0.54245 0.0
H1092 H 0.40683 0.15324 0.75495 0.0
H1093 H 0.38556 0.10843 0.71843 0.0
H1094 H 0.30131 0.05759 0.77375 0.0
H1095 H 0.32233 0.10159 0.81007 0.0
H1096 H 0.36744 0.04265 0.73675 0.0
H1097 H 0.26716 0.04962 0.68494 0.0
H1098 H 0.30082 0.08355 0.70244 0.0
H1099 H 0.2691 0.0543 0.72568 0.0
C1100 C 0.38347 0.13277 0.75883 0.0
C1101 C 0.36618 0.13091 0.78528 0.0
C1102 C 0.37145 0.10718 0.7381 0.0
C1103 C 0.3417 0.07984 0.74324 0.0
C1104 C 0.32406 0.07861 0.76907 0.0
H1105 H 0.214 0.8895 0.71944 0.0
H1106 H 0.24584 0.94669 0.72719 0.0
C1107 C 0.33619 0.10375 0.78989 0.0
C1108 C 0.32962 0.05112 0.72357 0.0
H1109 H 0.26257 0.99766 0.68545 0.0
C1110 C 0.345 0.03312 0.72468 0.0
C1111 C 0.30034 0.0388 0.7079 0.0
C1112 C 0.2835 0.05771 0.70487 0.0
C1113 C 0.33048 1.00195 0.71281 0.0
C1114 C 0.30004 0.98876 0.69913 0.0
C1115 C 0.28585 0.00773 0.69602 0.0
C1116 C 0.28048 0.95414 0.69236 0.0
C1117 C 0.34661 0.9825 0.71709 0.0
C1118 C 0.28909 0.93918 0.6698 0.0
C1119 C 0.27073 0.90609 0.6652 0.0
C1120 C 0.24355 0.88751 0.68317 0.0
C1121 C 0.2348 0.90288 0.70522 0.0
C1122 C 0.25296 0.93571 0.70966 0.0
H1123 H 0.36849 0.99508 0.73121 0.0
H1124 H 0.33008 0.9594 0.72811 0.0
H1125 H 0.35329 0.97727 0.69449 0.0
H1126 H 0.31007 0.95303 0.65594 0.0
H1127 H 0.27815 0.89503 0.64805 0.0
H1128 H 0.81118 0.69711 0.95256 0.0
H1129 H 0.77756 0.7201 0.94222 0.0
H1130 H 0.70099 0.64465 0.99309 0.0
H1131 H 0.73488 0.62119 0.00377 0.0
H1132 H 0.71298 0.67592 0.9111 0.0
H1133 H 0.70909 0.73651 0.01795 0.0
H1134 H 0.74342 0.73273 0.009 0.0
H1135 H 0.70669 0.69811 0.01932 0.0
C1136 C 0.78739 0.68562 0.96211 0.0
C1137 C 0.7756 0.65717 0.97882 0.0
C1138 C 0.76825 0.69888 0.95622 0.0
C1139 C 0.73686 0.68408 0.96687 0.0
C1140 C 0.72531 0.65655 0.98492 0.0
H1141 H 0.60343 0.74396 0.89862 0.0
H1142 H 0.62468 0.71743 0.93077 0.0
C1143 C 0.74467 0.64324 0.99103 0.0
C1144 C 0.71577 0.69583 0.95569 0.0
H1145 H 0.68724 0.74567 0.97344 0.0
C1146 C 0.7068 0.69066 0.92488 0.0
C1147 C 0.70782 0.71502 0.97374 0.0
C1148 C 0.71714 0.72111 0.0069 0.0
C1149 C 0.69125 0.70529 0.91127 0.0
C1150 C 0.68483 0.72593 0.92884 0.0
C1151 C 0.69233 0.7299 0.96006 0.0
C1152 C 0.67287 0.74536 0.91402 0.0
C1153 C 0.68278 0.6995 0.87784 0.0
C1154 C 0.6932 0.77052 0.89486 0.0
C1155 C 0.68123 0.78564 0.87652 0.0
C1156 C 0.64863 0.77594 0.87699 0.0
C1157 C 0.62867 0.75212 0.89779 0.0
C1158 C 0.64073 0.73689 0.91615 0.0
H1159 H 0.68325 0.67819 0.86916 0.0
H1160 H 0.65878 0.69633 0.87371 0.0
H1161 H 0.70023 0.7205 0.86453 0.0
H1162 H 0.71811 0.77743 0.893 0.0
H1163 H 0.69733 0.80397 0.86093 0.0
H1164 H 0.12295 0.80949 0.15164 0.0
H1165 H 0.06686 0.7793 0.1374 0.0
H1166 H 0.07222 0.69325 0.13272 0.0
H1167 H 0.12865 0.7234 0.14701 0.0
H1168 H 0.04881 0.70707 0.07935 0.0
H1169 H 0.98515 0.71355 0.18177 0.0
H1170 H 0.01806 0.75133 0.17042 0.0
H1171 H 0.0253 0.72031 0.18327 0.0
C1172 C 0.1121 0.78402 0.14823 0.0
C1173 C 0.13033 0.76886 0.15047 0.0
C1174 C 0.07992 0.76674 0.14026 0.0
C1175 C 0.06524 0.73396 0.1343 0.0
C1176 C 0.08304 0.7185 0.13748 0.0
H1177 H 0.86753 0.61381 0.07269 0.0
H1178 H 0.91653 0.63552 0.10293 0.0
C1179 C 0.11524 0.73574 0.14575 0.0
C1180 C 0.0325 0.71686 0.12151 0.0
H1181 H 0.95599 0.69956 0.13467 0.0
C1182 C 0.02844 0.70503 0.09162 0.0
C1183 C 1.00591 0.71412 0.13756 0.0
C1184 C 1.00865 0.72522 0.17015 0.0
C1185 C 0.99883 0.69173 0.0769 0.0
C1186 C 0.97261 0.69039 0.0924 0.0
C1187 C 0.97625 0.70096 0.12274 0.0
C1188 C 0.94164 0.679 0.07681 0.0
C1189 C 0.99586 0.67958 0.04465 0.0
C1190 C 0.9392 0.69681 0.05287 0.0
C1191 C 0.91127 0.68463 0.03567 0.0
C1192 C 0.88515 0.65429 0.04203 0.0
C1193 C 0.8871 0.63725 0.06716 0.0
C1194 C 0.91511 0.64957 0.08445 0.0
H1195 H 0.01601 0.67593 0.03838 0.0
H1196 H 0.97321 0.65674 0.04159 0.0
H1197 H 0.99571 0.69722 0.02863 0.0
H1198 H 0.95933 0.71974 0.04685 0.0
H1199 H 0.9107 0.69851 0.01659 0.0
H1200 H 0.38861 0.11771 0.34726 0.0
H1201 H 0.36272 0.05938 0.34209 0.0
H1202 H 0.29952 0.06116 0.274 0.0
H1203 H 0.32455 0.11855 0.27919 0.0
H1204 H 0.26861 0.01183 0.31686 0.0
H1205 H 0.37632 0.01542 0.2673 0.0
H1206 H 0.37991 0.03366 0.30398 0.0
H1207 H 0.37314 0.05084 0.27063 0.0
C1208 C 0.36896 0.10555 0.33146 0.0
C1209 C 0.35883 0.12289 0.31352 0.0
C1210 C 0.35434 0.07227 0.3284 0.0
C1211 C 0.32939 0.05596 0.30741 0.0
C1212 C 0.3187 0.07319 0.29033 0.0
H1213 H 0.22486 0.90977 0.19032 0.0
H1214 H 0.24699 0.95299 0.22762 0.0
C1215 C 0.33321 0.10615 0.29328 0.0
C1216 C 0.31473 0.02121 0.30162 0.0
H1217 H 0.3279 0.96764 0.26285 0.0
C1218 C 0.28173 1.00191 0.30576 0.0
C1219 C 0.33185 0.00823 0.28722 0.0
C1220 C 0.36724 0.02798 0.28179 0.0
C1221 C 0.2651 0.97082 0.29396 0.0
C1222 C 0.28186 0.95879 0.27747 0.0
C1223 C 0.31516 0.977 0.27554 0.0
C1224 C 0.265 0.93027 0.25767 0.0
C1225 C 0.22947 0.95166 0.29775 0.0
C1226 C 0.26747 0.90292 0.26237 0.0
C1227 C 0.25432 0.87779 0.24117 0.0
C1228 C 0.23929 0.88018 0.21468 0.0
C1229 C 0.23621 0.90724 0.21057 0.0
C1230 C 0.24876 0.93191 0.23191 0.0
H1231 H 0.22147 0.95981 0.31785 0.0
H1232 H 0.21793 0.95465 0.27715 0.0
H1233 H 0.22131 0.92591 0.30033 0.0
H1234 H 0.28023 0.90139 0.28196 0.0
H1235 H 0.25743 0.85739 0.24462 0.0
H1236 H 0.31867 0.20165 0.37015 0.0
H1237 H 0.2958 0.22815 0.39953 0.0
H1238 H 0.38986 0.30168 0.42587 0.0
H1239 H 0.41306 0.27483 0.39687 0.0
H1240 H 0.34357 0.28473 0.47299 0.0
H1241 H 0.3024 0.30926 0.36379 0.0
H1242 H 0.28846 0.26768 0.36952 0.0
H1243 H 0.33042 0.29511 0.36537 0.0
C1244 C 0.33453 0.2231 0.38269 0.0
C1245 C 0.36772 0.23627 0.38095 0.0
C1246 C 0.3214 0.23834 0.39934 0.0
C1247 C 0.34115 0.26734 0.41423 0.0
C1248 C 0.37419 0.27944 0.41435 0.0
H1249 H 0.29008 0.40375 0.49067 0.0
H1250 H 0.32081 0.37795 0.47652 0.0
C1251 C 0.3874 0.26399 0.39788 0.0
C1252 C 0.32721 0.28587 0.4276 0.0
H1253 H 0.28158 0.31894 0.40921 0.0
C1254 C 0.33027 0.2925 0.45905 0.0
C1255 C 0.31023 0.29641 0.4093 0.0
C1256 C 0.30792 0.29207 0.37508 0.0
C1257 C 0.31554 0.30813 0.47281 0.0
C1258 C 0.29746 0.31732 0.45463 0.0
C1259 C 0.29522 0.31155 0.42313 0.0
C1260 C 0.27948 0.33189 0.46769 0.0
C1261 C 0.31848 0.31391 0.50675 0.0
C1262 C 0.24613 0.31439 0.46789 0.0
C1263 C 0.22855 0.32892 0.47604 0.0
C1264 C 0.24394 0.36146 0.4839 0.0
C1265 C 0.27745 0.37864 0.48494 0.0
C1266 C 0.29507 0.36395 0.47687 0.0
H1267 H 0.33104 0.30286 0.51812 0.0
H1268 H 0.33185 0.33994 0.51124 0.0
H1269 H 0.29449 0.30424 0.51708 0.0
H1270 H 0.23367 0.28966 0.46074 0.0
H1271 H 0.20283 0.31491 0.47491 0.0
H1272 H 0.16078 0.38572 0.578 0.0
H1273 H 0.11708 0.36686 0.61549 0.0
H1274 H 0.04857 0.32735 0.54252 0.0
H1275 H 0.09121 0.34562 0.50543 0.0
H1276 H 0.04073 0.36918 0.58878 0.0
H1277 H 0.05123 0.2681 0.63602 0.0
H1278 H 0.08611 0.30695 0.63179 0.0
H1279 H 0.06652 0.28381 0.59858 0.0
C1280 C 0.13639 0.37286 0.57004 0.0
C1281 C 0.12962 0.36706 0.53866 0.0
C1282 C 0.1115 0.36216 0.59145 0.0
C1283 C 0.07963 0.34573 0.58169 0.0
C1284 C 0.07298 0.34003 0.55052 0.0
H1285 H 0.89356 0.21488 0.61279 0.0
H1286 H 0.95066 0.24721 0.6051 0.0
C1287 C 0.09755 0.35044 0.52932 0.0
C1288 C 0.05246 0.33393 0.60322 0.0
H1289 H 1.00359 0.26824 0.64548 0.0
C1290 C 0.03296 0.34766 0.60204 0.0
C1291 C 0.04241 0.30575 0.62023 0.0
C1292 C 0.06249 0.29006 0.62191 0.0
C1293 C 1.00263 0.33271 0.61557 0.0
C1294 C 0.99166 0.30336 0.63088 0.0
C1295 C 0.01212 0.29082 0.63388 0.0
C1296 C 0.9575 0.28275 0.63879 0.0
C1297 C 0.98154 0.34705 0.61123 0.0
C1298 C 0.94228 0.29161 0.66083 0.0
C1299 C 0.90924 0.27299 0.66536 0.0
C1300 C 0.891 0.24535 0.64779 0.0
C1301 C 0.9067 0.23612 0.6266 0.0
C1302 C 0.93948 0.25451 0.62224 0.0
H1303 H 0.99252 0.36824 0.59609 0.0
H1304 H 0.9583 0.32913 0.60133 0.0
H1305 H 0.97681 0.35444 0.6337 0.0
H1306 H 0.9558 0.31318 0.67407 0.0
H1307 H 0.8979 0.28075 0.68187 0.0
H1308 H 0.75313 0.15207 0.74276 0.0
H1309 H 0.72949 0.10391 0.77434 0.0
H1310 H 0.78266 0.06909 0.72459 0.0
H1311 H 0.80652 0.117 0.69324 0.0
H1312 H 0.69183 0.04272 0.75176 0.0
H1313 H 0.79541 0.05086 0.81251 0.0
H1314 H 0.79643 0.08489 0.79456 0.0
H1315 H 0.80237 0.05706 0.77224 0.0
C1316 C 0.76044 0.13455 0.73906 0.0
C1317 C 0.78185 0.13851 0.71547 0.0
C1318 C 0.74676 0.10695 0.75706 0.0
C1319 C 0.75456 0.08302 0.7521 0.0
C1320 C 0.77677 0.08748 0.72932 0.0
H1321 H 0.69345 0.8898 0.77154 0.0
H1322 H 0.71921 0.94713 0.76456 0.0
C1323 C 0.79029 0.11489 0.71126 0.0
C1324 C 0.73742 0.05203 0.76842 0.0
H1325 H 0.74978 0.99804 0.80708 0.0
C1326 C 0.70433 0.03317 0.7645 0.0
C1327 C 0.75374 0.03963 0.78512 0.0
C1328 C 0.78891 0.05931 0.79164 0.0
C1329 C 0.68754 1.0015 0.7749 0.0
C1330 C 0.70424 0.98851 0.79 0.0
C1331 C 0.737 0.00797 0.79545 0.0
C1332 C 0.68916 0.95387 0.79659 0.0
C1333 C 0.65248 0.98152 0.76791 0.0
C1334 C 0.66391 0.9385 0.81744 0.0
C1335 C 0.64895 0.90535 0.82159 0.0
C1336 C 0.65898 0.88712 0.80487 0.0
C1337 C 0.68487 0.90292 0.78471 0.0
C1338 C 0.69978 0.93582 0.78072 0.0
H1339 H 0.64408 0.99388 0.75238 0.0
H1340 H 0.6472 0.95857 0.75728 0.0
H1341 H 0.63872 0.97603 0.78947 0.0
H1342 H 0.65558 0.95206 0.83021 0.0
H1343 H 0.62911 0.89395 0.83728 0.0
H1344 H 0.19384 0.33825 0.38137 0.0
H1345 H 0.20453 0.3278 0.32909 0.0
H1346 H 0.25367 0.42872 0.31044 0.0
H1347 H 0.24302 0.43921 0.36215 0.0
H1348 H 0.17824 0.34665 0.28239 0.0
H1349 H 0.30757 0.39925 0.26405 0.0
H1350 H 0.2893 0.38714 0.30127 0.0
H1351 H 0.29865 0.42523 0.28575 0.0
C1352 C 0.20776 0.35818 0.36631 0.0
C1353 C 0.21716 0.38947 0.37539 0.0
C1354 C 0.21392 0.35219 0.33661 0.0
C1355 C 0.23015 0.37752 0.31613 0.0
C1356 C 0.24169 0.40891 0.32609 0.0
H1357 H 0.24694 0.44501 0.13925 0.0
H1358 H 0.24601 0.43314 0.19363 0.0
C1359 C 0.23521 0.41484 0.35548 0.0
C1360 C 0.22951 0.37165 0.28313 0.0
H1361 H 0.2768 0.39963 0.22021 0.0
C1362 C 0.19973 0.35729 0.26866 0.0
C1363 C 0.25762 0.38569 0.2655 0.0
C1364 C 0.29008 0.39991 0.27998 0.0
C1365 C 0.19735 0.35928 0.23703 0.0
C1366 C 0.22553 0.37557 0.21966 0.0
C1367 C 0.25528 0.38766 0.23384 0.0
C1368 C 0.22464 0.38223 0.18709 0.0
C1369 C 0.16486 0.34602 0.22269 0.0
C1370 C 0.21231 0.35738 0.16582 0.0
C1371 C 0.21248 0.364 0.13491 0.0
C1372 C 0.22531 0.39564 0.12477 0.0
C1373 C 0.2368 0.42042 0.14633 0.0
C1374 C 0.23655 0.41372 0.1773 0.0
H1375 H 0.14572 0.33857 0.24003 0.0
H1376 H 0.16421 0.36398 0.20747 0.0
H1377 H 0.15966 0.32491 0.2086 0.0
H1378 H 0.2032 0.33297 0.17305 0.0
H1379 H 0.20343 0.34433 0.11889 0.0
H1380 H 0.78513 0.24096 0.53514 0.0
H1381 H 0.78937 0.24114 0.4796 0.0
H1382 H 0.82983 0.17978 0.48538 0.0
H1383 H 0.82543 0.17908 0.54089 0.0
H1384 H 0.84173 0.25696 0.43949 0.0
H1385 H 0.7478 0.12906 0.43373 0.0
H1386 H 0.75509 0.15292 0.46766 0.0
H1387 H 0.78119 0.13799 0.45786 0.0
C1388 C 0.79536 0.22787 0.52466 0.0
C1389 C 0.80439 0.20951 0.54232 0.0
C1390 C 0.79773 0.22799 0.49298 0.0
C1391 C 0.80918 0.20986 0.47865 0.0
C1392 C 0.82027 0.19332 0.49621 0.0
H1393 H 0.839 0.19115 0.28716 0.0
H1394 H 0.837 0.18644 0.34274 0.0
C1395 C 0.81785 0.19309 0.52787 0.0
C1396 C 0.80804 0.20704 0.44526 0.0
H1397 H 0.77159 0.15422 0.38705 0.0
C1398 C 0.8265 0.23454 0.42797 0.0
C1399 C 0.78788 0.17767 0.43058 0.0
C1400 C 0.76663 0.14773 0.44833 0.0
C1401 C 0.82542 0.23339 0.3961 0.0
C1402 C 0.80528 0.20408 0.3815 0.0
C1403 C 0.78698 0.17653 0.39866 0.0
C1404 C 0.8027 0.20213 0.34822 0.0
C1405 C 0.84559 0.26341 0.37807 0.0
C1406 C 0.78315 0.21142 0.33335 0.0
C1407 C 0.78415 0.21414 0.30169 0.0
C1408 C 0.80494 0.20778 0.28466 0.0
C1409 C 0.82296 0.19648 0.29968 0.0
C1410 C 0.82186 0.19372 0.33134 0.0
H1411 H 0.86177 0.28375 0.39289 0.0
H1412 H 0.86008 0.25926 0.36101 0.0
H1413 H 0.82992 0.26999 0.3654 0.0
H1414 H 0.76817 0.21786 0.34633 0.0
H1415 H 0.76978 0.22265 0.29079 0.0
H1416 H 0.67312 0.82192 0.70447 0.0
H1417 H 0.68552 0.82319 0.65041 0.0
H1418 H 0.58555 0.77745 0.62861 0.0
H1419 H 0.57267 0.77548 0.68286 0.0
H1420 H 0.62126 0.7481 0.60354 0.0
H1421 H 0.67863 0.87877 0.58203 0.0
H1422 H 0.69231 0.86595 0.61424 0.0
H1423 H 0.65276 0.86007 0.61428 0.0
C1424 C 0.65372 0.81252 0.68818 0.0
C1425 C 0.62185 0.79844 0.69793 0.0
C1426 C 0.66093 0.8133 0.65734 0.0
C1427 C 0.63643 0.80034 0.63578 0.0
C1428 C 0.6047 0.78742 0.64517 0.0
H1429 H 0.58119 0.77783 0.46041 0.0
H1430 H 0.5918 0.76846 0.5125 0.0
C1431 C 0.59741 0.78659 0.67607 0.0
C1432 C 0.64366 0.79933 0.60339 0.0
H1433 H 0.67204 0.84591 0.5402 0.0
C1434 C 0.63278 0.76947 0.58967 0.0
C1435 C 0.65936 0.82735 0.58574 0.0
C1436 C 0.67137 0.85992 0.59963 0.0
C1437 C 0.63533 0.7668 0.55814 0.0
C1438 C 0.6487 0.79464 0.54014 0.0
C1439 C 0.66191 0.82463 0.5542 0.0
C1440 C 0.64304 0.79323 0.50708 0.0
C1441 C 0.62241 0.73418 0.54416 0.0
C1442 C 0.66837 0.80968 0.48664 0.0
C1443 C 0.6623 0.81502 0.45671 0.0
C1444 C 0.63091 0.80461 0.44738 0.0
C1445 C 0.60561 0.78637 0.46729 0.0
C1446 C 0.61163 0.78065 0.49689 0.0
H1447 H 0.62393 0.71746 0.56047 0.0
H1448 H 0.59694 0.72449 0.53834 0.0
H1449 H 0.63545 0.73517 0.52298 0.0
H1450 H 0.69276 0.81987 0.49434 0.0
H1451 H 0.68216 0.82913 0.44164 0.0
H1452 H 0.83736 0.661 0.87083 0.0
H1453 H 0.83169 0.66578 0.81611 0.0
H1454 H 0.76677 0.56451 0.81021 0.0
H1455 H 0.77193 0.55941 0.86491 0.0
H1456 H 0.8514 0.63315 0.77768 0.0
H1457 H 0.72705 0.60192 0.75275 0.0
H1458 H 0.74476 0.6145 0.79012 0.0
H1459 H 0.72983 0.57408 0.77773 0.0
C1460 C 0.82128 0.63983 0.85804 0.0
C1461 C 0.80562 0.6097 0.87199 0.0
C1462 C 0.81799 0.64268 0.82686 0.0
C1463 C 0.79881 0.61552 0.80936 0.0
C1464 C 0.78131 0.58579 0.82355 0.0
H1465 H 0.77928 0.55372 0.62487 0.0
H1466 H 0.78252 0.55912 0.68041 0.0
C1467 C 0.78453 0.58289 0.85474 0.0
C1468 C 0.80119 0.61722 0.776 0.0
H1469 H 0.75704 0.5981 0.71098 0.0
C1470 C 0.83091 0.626 0.763 0.0
C1471 C 0.77432 0.60766 0.75721 0.0
C1472 C 0.74224 0.59929 0.77013 0.0
C1473 C 0.83422 0.62431 0.7315 0.0
C1474 C 0.80713 0.61374 0.71287 0.0
C1475 C 0.7776 0.60582 0.72569 0.0
C1476 C 0.80885 0.61064 0.67982 0.0
C1477 C 0.86626 0.63276 0.71839 0.0
C1478 C 0.8234 0.63793 0.66161 0.0
C1479 C 0.82163 0.635 0.63 0.0
C1480 C 0.80513 0.6047 0.61633 0.0
C1481 C 0.79214 0.57735 0.63476 0.0
C1482 C 0.79381 0.58036 0.6664 0.0
H1483 H 0.88378 0.63611 0.73642 0.0
H1484 H 0.86388 0.61384 0.70246 0.0
H1485 H 0.87576 0.65523 0.70522 0.0
H1486 H 0.83497 0.66145 0.67184 0.0
H1487 H 0.83204 0.65648 0.61634 0.0
H1488 H 0.15874 0.80971 0.78586 0.0
H1489 H 0.1567 0.81568 0.84092 0.0
H1490 H 0.23088 0.7923 0.85295 0.0
H1491 H 0.23326 0.78627 0.79773 0.0
H1492 H 0.14324 0.76646 0.88467 0.0
H1493 H 0.26056 0.87532 0.903 0.0
H1494 H 0.2416 0.86417 0.86604 0.0
H1495 H 0.2623 0.845 0.88085 0.0
C1496 C 0.17496 0.80622 0.80011 0.0
C1497 C 0.1962 0.79749 0.78742 0.0
C1498 C 0.17363 0.80955 0.83155 0.0
C1499 C 0.19375 0.80461 0.85076 0.0
C1500 C 0.21546 0.79659 0.83827 0.0
H1501 H 0.22883 0.78379 0.03254 0.0
H1502 H 0.21709 0.77939 0.97807 0.0
C1503 C 0.21674 0.79309 0.80679 0.0
C1504 C 0.19113 0.80643 0.88405 0.0
H1505 H 0.23434 0.84452 0.9472 0.0
C1506 C 0.16291 0.78381 0.89842 0.0
C1507 C 0.21677 0.82932 0.90164 0.0
C1508 C 0.24693 0.85505 0.88713 0.0
C1509 C 0.16042 0.78242 0.93032 0.0
C1510 C 0.18672 0.80425 0.94783 0.0
C1511 C 0.2143 0.82778 0.93344 0.0
C1512 C 0.18777 0.80128 0.98106 0.0
C1513 C 0.13052 0.75686 0.94525 0.0
C1514 C 0.17411 0.81405 0.00063 0.0
C1515 C 0.18069 0.81652 0.03191 0.0
C1516 C 0.20136 0.80664 0.04353 0.0
C1517 C 0.21317 0.79196 0.02402 0.0
C1518 C 0.20642 0.78931 0.99301 0.0
H1519 H 0.11204 0.74175 0.9283 0.0
H1520 H 0.13625 0.74145 0.95947 0.0
H1521 H 0.12064 0.76799 0.96065 0.0
H1522 H 0.15982 0.82357 0.99153 0.0
H1523 H 0.17136 0.82796 0.04655 0.0
H1524 H 0.33798 0.18393 0.94589 0.0
H1525 H 0.32564 0.18888 -0.0007 0.0
H1526 H 0.42608 0.24185 0.01977 0.0
H1527 H 0.43845 0.23688 0.96692 0.0
H1528 H 0.34679 0.16185 0.04426 0.0
H1529 H 0.3907 0.28892 0.06922 0.0
H1530 H 0.37984 0.27239 0.03123 0.0
H1531 H 0.41843 0.28347 0.04663 0.0
C1532 C 0.35733 0.19748 0.96167 0.0
C1533 C 0.38913 0.20973 0.95263 0.0
C1534 C 0.35026 0.20028 0.99203 0.0
C1535 C 0.37497 0.21598 0.01323 0.0
C1536 C 0.40671 0.2302 0.00357 0.0
H1537 H 0.44271 0.23018 0.18876 0.0
H1538 H 0.42994 0.22742 0.13448 0.0
C1539 C 0.41375 0.22706 0.9735 0.0
C1540 C 0.36848 0.21296 0.04616 0.0
H1541 H 0.39285 0.25722 0.11125 0.0
C1542 C 0.35586 0.18254 0.05907 0.0
C1543 C 0.38048 0.24006 0.06516 0.0
C1544 C 0.39283 0.27302 0.05231 0.0
C1545 C 0.35767 0.1788 0.09054 0.0
C1546 C 0.37209 0.20619 0.10921 0.0
C1547 C 0.38231 0.23636 0.09659 0.0
C1548 C 0.37904 0.20442 0.1415 0.0
C1549 C 0.34635 0.14597 0.10336 0.0
C1550 C 0.35446 0.19147 0.16297 0.0
C1551 C 0.36161 0.19282 0.19389 0.0
C1552 C 0.39349 0.2074 0.20372 0.0
C1553 C 0.41796 0.21881 0.18192 0.0
C1554 C 0.41074 0.21746 0.15099 0.0
H1555 H 0.33887 0.12758 0.0852 0.0
H1556 H 0.3655 0.14584 0.1171 0.0
H1557 H 0.32578 0.13935 0.11872 0.0
H1558 H 0.32988 0.18142 0.15591 0.0
H1559 H 0.34221 0.18367 0.21016 0.0
loop_
_geom_bond_atom_site_label_1
_geom_bond_atom_site_label_2
_geom_bond_distance
_geom_bond_site_symmetry_2
_ccdc_geom_bond_type
Fe0 O2 1.918 . S
Fe0 O5 1.997 . S
Fe0 O6 2.002 . S
Fe0 O11 1.976 . S
Fe0 O14 1.996 . S
Fe1 O2 1.918 . S
Fe1 O9 1.997 . S
Fe1 O12 1.996 . S
Fe1 O16 1.976 . S
Fe1 O19 2.002 . S
O2 Fe0 1.918 . S
O2 Fe1 1.918 . S
O2 Fe3 1.922 . S
Fe3 O2 1.922 . S
Fe3 O4 2.003 . S
Fe3 O13 1.974 1_554 S
Fe3 O17 1.994 1_554 S
Fe3 O20 1.998 . S
O4 Fe3 2.003 . S
O4 C21 1.295 . S
O5 Fe0 1.997 . S
O5 C21 1.235 . S
O6 Fe0 2.002 . S
O6 C7 1.295 . S
C7 O6 1.295 . S
C7 O9 1.235 . S
C8 O13 1.287 . S
C8 O14 1.255 1_556 S
O9 Fe1 1.997 . S
O9 C7 1.235 . S
C10 O16 1.287 1_556 S
C10 O17 1.255 . S
O11 Fe0 1.976 . S
O11 C18 1.287 . S
O12 Fe1 1.996 . S
O12 C18 1.255 . S
O13 Fe3 1.974 1_556 S
O13 C8 1.287 . S
O14 Fe0 1.996 . S
O14 C8 1.255 1_554 S
C15 O19 1.295 . S
C15 O20 1.235 . S
O16 Fe1 1.976 . S
O16 C10 1.287 1_554 S
O17 Fe3 1.994 1_556 S
O17 C10 1.255 . S
C18 O11 1.287 . S
C18 O12 1.255 . S
O19 Fe1 2.002 . S
O19 C15 1.295 . S
O20 Fe3 1.998 . S
O20 C15 1.235 . S
C21 O4 1.295 . S
C21 O5 1.235 . S
Fe22 O24 1.918 . S
Fe22 O27 1.997 . S
Fe22 O28 2.002 . S
Fe22 O33 1.976 . S
Fe22 O36 1.996 . S
Fe23 O24 1.918 . S
Fe23 O31 1.997 . S
Fe23 O34 1.996 . S
Fe23 O38 1.976 . S
Fe23 O41 2.002 . S
O24 Fe22 1.918 . S
O24 Fe23 1.918 . S
O24 Fe25 1.918 . S
Fe25 O24 1.918 . S
Fe25 O26 2.002 . S
Fe25 O35 1.976 . S
Fe25 O39 1.996 . S
Fe25 O42 1.997 . S
O26 Fe25 2.002 . S
O26 C43 1.295 . S
O27 Fe22 1.997 . S
O27 C43 1.235 . S
O28 Fe22 2.002 . S
O28 C29 1.295 . S
C29 O28 1.295 . S
C29 O31 1.235 . S
C30 O35 1.287 . S
C30 O36 1.255 . S
O31 Fe23 1.997 . S
O31 C29 1.235 . S
C32 O38 1.287 . S
C32 O39 1.255 . S
O33 Fe22 1.976 . S
O33 C40 1.287 . S
O34 Fe23 1.996 . S
O34 C40 1.255 . S
O35 Fe25 1.976 . S
O35 C30 1.287 . S
O36 Fe22 1.996 . S
O36 C30 1.255 . S
C37 O41 1.295 . S
C37 O42 1.235 . S
O38 Fe23 1.976 . S
O38 C32 1.287 . S
O39 Fe25 1.996 . S
O39 C32 1.255 . S
C40 O33 1.287 . S
C40 O34 1.255 . S
O41 Fe23 2.002 . S
O41 C37 1.295 . S
O42 Fe25 1.997 . S
O42 C37 1.235 . S
C43 O26 1.295 . S
C43 O27 1.235 . S
Fe44 O46 1.918 . S
Fe44 O49 1.997 . S
Fe44 O50 2.002 . S
Fe44 O55 1.976 . S
Fe44 O58 1.996 . S
Fe45 O46 1.918 . S
Fe45 O53 1.997 . S
Fe45 O56 1.996 . S
Fe45 O60 1.976 . S
Fe45 O63 2.002 . S
O46 Fe44 1.918 . S
O46 Fe45 1.918 . S
O46 Fe47 1.918 . S
Fe47 O46 1.918 . S
Fe47 O48 2.002 . S
Fe47 O57 1.976 . S
Fe47 O61 1.996 . S
Fe47 O64 1.997 . S
O48 Fe47 2.002 . S
O48 C65 1.295 . S
O49 Fe44 1.997 . S
O49 C65 1.235 . S
O50 Fe44 2.002 . S
O50 C51 1.295 . S
C51 O50 1.295 . S
C51 O53 1.235 . S
C52 O57 1.287 . S
C52 O58 1.255 . S
O53 Fe45 1.997 . S
O53 C51 1.235 . S
C54 O60 1.287 . S
C54 O61 1.255 . S
O55 Fe44 1.976 . S
O55 C62 1.287 . S
O56 Fe45 1.996 . S
O56 C62 1.255 . S
O57 Fe47 1.976 . S
O57 C52 1.287 . S
O58 Fe44 1.996 . S
O58 C52 1.255 . S
C59 O63 1.295 . S
C59 O64 1.235 . S
O60 Fe45 1.976 . S
O60 C54 1.287 . S
O61 Fe47 1.996 . S
O61 C54 1.255 . S
C62 O55 1.287 . S
C62 O56 1.255 . S
O63 Fe45 2.002 . S
O63 C59 1.295 . S
O64 Fe47 1.997 . S
O64 C59 1.235 . S
C65 O48 1.295 . S
C65 O49 1.235 . S
Fe66 O68 1.918 . S
Fe66 O71 1.997 . S
Fe66 O72 2.002 . S
Fe66 O77 1.976 . S
Fe66 O80 1.996 . S
Fe67 O68 1.918 . S
Fe67 O75 1.997 . S
Fe67 O78 1.996 . S
Fe67 O82 1.976 . S
Fe67 O85 2.002 . S
O68 Fe66 1.918 . S
O68 Fe67 1.918 . S
O68 Fe69 1.918 . S
Fe69 O68 1.918 . S
Fe69 O70 2.002 . S
Fe69 O79 1.976 . S
Fe69 O83 1.996 . S
Fe69 O86 1.997 . S
O70 Fe69 2.002 . S
O70 C87 1.295 . S
O71 Fe66 1.997 . S
O71 C87 1.235 . S
O72 Fe66 2.002 . S
O72 C73 1.295 . S
C73 O72 1.295 . S
C73 O75 1.235 . S
C74 O79 1.287 . S
C74 O80 1.255 . S
O75 Fe67 1.997 . S
O75 C73 1.235 . S
C76 O82 1.287 . S
C76 O83 1.255 . S
O77 Fe66 1.976 . S
O77 C84 1.287 . S
O78 Fe67 1.996 . S
O78 C84 1.255 . S
O79 Fe69 1.976 . S
O79 C74 1.287 . S
O80 Fe66 1.996 . S
O80 C74 1.255 . S
C81 O85 1.295 . S
C81 O86 1.235 . S
O82 Fe67 1.976 . S
O82 C76 1.287 . S
O83 Fe69 1.996 . S
O83 C76 1.255 . S
C84 O77 1.287 . S
C84 O78 1.255 . S
O85 Fe67 2.002 . S
O85 C81 1.295 . S
O86 Fe69 1.997 . S
O86 C81 1.235 . S
C87 O70 1.295 . S
C87 O71 1.235 . S
Fe88 O90 1.918 . S
Fe88 O93 1.997 . S
Fe88 O94 2.002 . S
Fe88 O99 1.976 . S
Fe88 O102 1.996 . S
Fe89 O90 1.918 . S
Fe89 O97 1.997 . S
Fe89 O100 1.996 . S
Fe89 O104 1.976 . S
Fe89 O107 2.002 . S
O90 Fe88 1.918 . S
O90 Fe89 1.918 . S
O90 Fe91 1.918 . S
Fe91 O90 1.918 . S
Fe91 O92 2.002 . S
Fe91 O101 1.976 . S
Fe91 O105 1.996 . S
Fe91 O108 1.997 . S
O92 Fe91 2.002 . S
O92 C109 1.295 . S
O93 Fe88 1.997 . S
O93 C109 1.235 . S
O94 Fe88 2.002 . S
O94 C95 1.295 . S
C95 O94 1.295 . S
C95 O97 1.235 . S
C96 O101 1.287 . S
C96 O102 1.255 . S
O97 Fe89 1.997 . S
O97 C95 1.235 . S
C98 O104 1.287 . S
C98 O105 1.255 . S
O99 Fe88 1.976 . S
O99 C106 1.287 . S
O100 Fe89 1.996 . S
O100 C106 1.255 . S
O101 Fe91 1.976 . S
O101 C96 1.287 . S
O102 Fe88 1.996 . S
O102 C96 1.255 . S
C103 O107 1.295 . S
C103 O108 1.235 . S
O104 Fe89 1.976 . S
O104 C98 1.287 . S
O105 Fe91 1.996 . S
O105 C98 1.255 . S
C106 O99 1.287 . S
C106 O100 1.255 . S
O107 Fe89 2.002 . S
O107 C103 1.295 . S
O108 Fe91 1.997 . S
O108 C103 1.235 . S
C109 O92 1.295 . S
C109 O93 1.235 . S
Fe110 O112 1.918 . S
Fe110 O115 1.997 . S
Fe110 O116 2.002 . S
Fe110 O121 1.976 . S
Fe110 O124 1.996 . S
Fe111 O112 1.918 . S
Fe111 O119 1.997 . S
Fe111 O122 1.996 . S
Fe111 O126 1.976 . S
Fe111 O129 2.002 . S
O112 Fe110 1.918 . S
O112 Fe111 1.918 . S
O112 Fe113 1.918 . S
Fe113 O112 1.918 . S
Fe113 O114 2.002 . S
Fe113 O123 1.976 . S
Fe113 O127 1.996 . S
Fe113 O130 1.997 . S
O114 Fe113 2.002 . S
O114 C131 1.295 . S
O115 Fe110 1.997 . S
O115 C131 1.235 . S
O116 Fe110 2.002 . S
O116 C117 1.295 . S
C117 O116 1.295 . S
C117 O119 1.235 . S
C118 O123 1.287 . S
C118 O124 1.255 . S
O119 Fe111 1.997 . S
O119 C117 1.235 . S
C120 O126 1.287 . S
C120 O127 1.255 . S
O121 Fe110 1.976 . S
O121 C128 1.287 . S
O122 Fe111 1.996 . S
O122 C128 1.255 . S
O123 Fe113 1.976 . S
O123 C118 1.287 . S
O124 Fe110 1.996 . S
O124 C118 1.255 . S
C125 O129 1.295 . S
C125 O130 1.235 . S
O126 Fe111 1.976 . S
O126 C120 1.287 . S
O127 Fe113 1.996 . S
O127 C120 1.255 . S
C128 O121 1.287 . S
C128 O122 1.255 . S
O129 Fe111 2.002 . S
O129 C125 1.295 . S
O130 Fe113 1.997 . S
O130 C125 1.235 . S
C131 O114 1.295 . S
C131 O115 1.235 . S
Fe132 O134 1.918 . S
Fe132 O137 1.997 . S
Fe132 O138 2.002 . S
Fe132 O143 1.976 . S
Fe132 O146 1.996 . S
Fe133 O134 1.918 . S
Fe133 O141 1.997 . S
Fe133 O144 1.996 . S
Fe133 O148 1.976 . S
Fe133 O151 2.002 . S
O134 Fe132 1.918 . S
O134 Fe133 1.918 . S
O134 Fe135 1.918 . S
Fe135 O134 1.918 . S
Fe135 O136 2.002 . S
Fe135 O145 1.976 . S
Fe135 O149 1.996 . S
Fe135 O152 1.997 . S
O136 Fe135 2.002 . S
O136 C153 1.295 . S
O137 Fe132 1.997 . S
O137 C153 1.235 . S
O138 Fe132 2.002 . S
O138 C139 1.295 . S
C139 O138 1.295 . S
C139 O141 1.235 . S
C140 O145 1.287 . S
C140 O146 1.255 . S
O141 Fe133 1.997 . S
O141 C139 1.235 . S
C142 O148 1.287 . S
C142 O149 1.255 . S
O143 Fe132 1.976 . S
O143 C150 1.287 . S
O144 Fe133 1.996 . S
O144 C150 1.255 . S
O145 Fe135 1.976 . S
O145 C140 1.287 . S
O146 Fe132 1.996 . S
O146 C140 1.255 . S
C147 O151 1.295 . S
C147 O152 1.235 . S
O148 Fe133 1.976 . S
O148 C142 1.287 . S
O149 Fe135 1.996 . S
O149 C142 1.255 . S
C150 O143 1.287 . S
C150 O144 1.255 . S
O151 Fe133 2.002 . S
O151 C147 1.295 . S
O152 Fe135 1.997 . S
O152 C147 1.235 . S
C153 O136 1.295 . S
C153 O137 1.235 . S
Fe154 O156 1.918 . S
Fe154 O159 1.997 . S
Fe154 O160 2.002 . S
Fe154 O165 1.976 . S
Fe154 O168 1.996 . S
Fe155 O156 1.918 . S
Fe155 O163 1.997 . S
Fe155 O166 1.996 . S
Fe155 O170 1.976 . S
Fe155 O173 2.002 . S
O156 Fe154 1.918 . S
O156 Fe155 1.918 . S
O156 Fe157 1.922 . S
Fe157 O156 1.922 . S
Fe157 O158 2.003 . S
Fe157 O167 1.974 1_556 S
Fe157 O171 1.994 1_556 S
Fe157 O174 1.998 . S
O158 Fe157 2.003 . S
O158 C175 1.295 . S
O159 Fe154 1.997 . S
O159 C175 1.235 . S
O160 Fe154 2.002 . S
O160 C161 1.295 . S
C161 O160 1.295 . S
C161 O163 1.235 . S
C162 O167 1.287 . S
C162 O168 1.255 1_554 S
O163 Fe155 1.997 . S
O163 C161 1.235 . S
C164 O170 1.287 1_554 S
C164 O171 1.255 . S
O165 Fe154 1.976 . S
O165 C172 1.287 . S
O166 Fe155 1.996 . S
O166 C172 1.255 . S
O167 Fe157 1.974 1_554 S
O167 C162 1.287 . S
O168 Fe154 1.996 . S
O168 C162 1.255 1_556 S
C169 O173 1.295 . S
C169 O174 1.235 . S
O170 Fe155 1.976 . S
O170 C164 1.287 1_556 S
O171 Fe157 1.994 1_554 S
O171 C164 1.255 . S
C172 O165 1.287 . S
C172 O166 1.255 . S
O173 Fe155 2.002 . S
O173 C169 1.295 . S
O174 Fe157 1.998 . S
O174 C169 1.235 . S
C175 O158 1.295 . S
C175 O159 1.235 . S
Fe176 O178 1.918 . S
Fe176 O181 1.997 . S
Fe176 O182 2.002 . S
Fe176 O187 1.976 . S
Fe176 O190 1.996 . S
Fe177 O178 1.918 . S
Fe177 O185 1.997 . S
Fe177 O188 1.996 . S
Fe177 O192 1.976 . S
Fe177 O195 2.002 . S
O178 Fe176 1.918 . S
O178 Fe177 1.918 . S
O178 Fe179 1.918 . S
Fe179 O178 1.918 . S
Fe179 O180 2.002 . S
Fe179 O189 1.976 . S
Fe179 O193 1.996 . S
Fe179 O196 1.997 . S
O180 Fe179 2.002 . S
O180 C197 1.295 . S
O181 Fe176 1.997 . S
O181 C197 1.235 . S
O182 Fe176 2.002 . S
O182 C183 1.295 . S
C183 O182 1.295 . S
C183 O185 1.235 . S
C184 O189 1.287 . S
C184 O190 1.255 . S
O185 Fe177 1.997 . S
O185 C183 1.235 . S
C186 O192 1.287 . S
C186 O193 1.255 . S
O187 Fe176 1.976 . S
O187 C194 1.287 . S
O188 Fe177 1.996 . S
O188 C194 1.255 . S
O189 Fe179 1.976 . S
O189 C184 1.287 . S
O190 Fe176 1.996 . S
O190 C184 1.255 . S
C191 O195 1.295 . S
C191 O196 1.235 . S
O192 Fe177 1.976 . S
O192 C186 1.287 . S
O193 Fe179 1.996 . S
O193 C186 1.255 . S
C194 O187 1.287 . S
C194 O188 1.255 . S
O195 Fe177 2.002 . S
O195 C191 1.295 . S
O196 Fe179 1.997 . S
O196 C191 1.235 . S
C197 O180 1.295 . S
C197 O181 1.235 . S
Fe198 O200 1.918 . S
Fe198 O203 1.997 . S
Fe198 O204 2.002 . S
Fe198 O209 1.976 . S
Fe198 O212 1.996 . S
Fe199 O200 1.918 . S
Fe199 O207 1.997 . S
Fe199 O210 1.996 . S
Fe199 O214 1.976 . S
Fe199 O217 2.002 . S
O200 Fe198 1.918 . S
O200 Fe199 1.918 . S
O200 Fe201 1.918 . S
Fe201 O200 1.918 . S
Fe201 O202 2.002 . S
Fe201 O211 1.976 . S
Fe201 O215 1.996 . S
Fe201 O218 1.997 . S
O202 Fe201 2.002 . S
O202 C219 1.295 . S
O203 Fe198 1.997 . S
O203 C219 1.235 . S
O204 Fe198 2.002 . S
O204 C205 1.295 . S
C205 O204 1.295 . S
C205 O207 1.235 . S
C206 O211 1.287 . S
C206 O212 1.255 . S
O207 Fe199 1.997 . S
O207 C205 1.235 . S
C208 O214 1.287 . S
C208 O215 1.255 . S
O209 Fe198 1.976 . S
O209 C216 1.287 . S
O210 Fe199 1.996 . S
O210 C216 1.255 . S
O211 Fe201 1.976 . S
O211 C206 1.287 . S
O212 Fe198 1.996 . S
O212 C206 1.255 . S
C213 O217 1.295 . S
C213 O218 1.235 . S
O214 Fe199 1.976 . S
O214 C208 1.287 . S
O215 Fe201 1.996 . S
O215 C208 1.255 . S
C216 O209 1.287 . S
C216 O210 1.255 . S
O217 Fe199 2.002 . S
O217 C213 1.295 . S
O218 Fe201 1.997 . S
O218 C213 1.235 . S
C219 O202 1.295 . S
C219 O203 1.235 . S
Fe220 O222 1.918 . S
Fe220 O225 1.997 . S
Fe220 O226 2.002 . S
Fe220 O231 1.976 . S
Fe220 O234 1.996 . S
Fe221 O222 1.918 . S
Fe221 O229 1.997 . S
Fe221 O232 1.996 . S
Fe221 O236 1.976 . S
Fe221 O239 2.002 . S
O222 Fe220 1.918 . S
O222 Fe221 1.918 . S
O222 Fe223 1.918 . S
Fe223 O222 1.918 . S
Fe223 O224 2.002 . S
Fe223 O233 1.976 . S
Fe223 O237 1.996 . S
Fe223 O240 1.997 . S
O224 Fe223 2.002 . S
O224 C241 1.295 . S
O225 Fe220 1.997 . S
O225 C241 1.235 . S
O226 Fe220 2.002 . S
O226 C227 1.295 . S
C227 O226 1.295 . S
C227 O229 1.235 . S
C228 O233 1.287 . S
C228 O234 1.255 . S
O229 Fe221 1.997 . S
O229 C227 1.235 . S
C230 O236 1.287 . S
C230 O237 1.255 . S
O231 Fe220 1.976 . S
O231 C238 1.287 . S
O232 Fe221 1.996 . S
O232 C238 1.255 . S
O233 Fe223 1.976 . S
O233 C228 1.287 . S
O234 Fe220 1.996 . S
O234 C228 1.255 . S
C235 O239 1.295 . S
C235 O240 1.235 . S
O236 Fe221 1.976 . S
O236 C230 1.287 . S
O237 Fe223 1.996 . S
O237 C230 1.255 . S
C238 O231 1.287 . S
C238 O232 1.255 . S
O239 Fe221 2.002 . S
O239 C235 1.295 . S
O240 Fe223 1.997 . S
O240 C235 1.235 . S
C241 O224 1.295 . S
C241 O225 1.235 . S
Fe242 O244 1.918 . S
Fe242 O247 1.997 . S
Fe242 O248 2.002 . S
Fe242 O253 1.976 . S
Fe242 O256 1.996 . S
Fe243 O244 1.918 . S
Fe243 O251 1.997 . S
Fe243 O254 1.996 . S
Fe243 O258 1.976 . S
Fe243 O261 2.002 . S
O244 Fe242 1.918 . S
O244 Fe243 1.918 . S
O244 Fe245 1.918 . S
Fe245 O244 1.918 . S
Fe245 O246 2.002 . S
Fe245 O255 1.976 . S
Fe245 O259 1.996 . S
Fe245 O262 1.997 . S
O246 Fe245 2.002 . S
O246 C263 1.295 . S
O247 Fe242 1.997 . S
O247 C263 1.235 . S
O248 Fe242 2.002 . S
O248 C249 1.295 . S
C249 O248 1.295 . S
C249 O251 1.235 . S
C250 O255 1.287 . S
C250 O256 1.255 . S
O251 Fe243 1.997 . S
O251 C249 1.235 . S
C252 O258 1.287 . S
C252 O259 1.255 . S
O253 Fe242 1.976 . S
O253 C260 1.287 . S
O254 Fe243 1.996 . S
O254 C260 1.255 . S
O255 Fe245 1.976 . S
O255 C250 1.287 . S
O256 Fe242 1.996 . S
O256 C250 1.255 . S
C257 O261 1.295 . S
C257 O262 1.235 . S
O258 Fe243 1.976 . S
O258 C252 1.287 . S
O259 Fe245 1.996 . S
O259 C252 1.255 . S
C260 O253 1.287 . S
C260 O254 1.255 . S
O261 Fe243 2.002 . S
O261 C257 1.295 . S
O262 Fe245 1.997 . S
O262 C257 1.235 . S
C263 O246 1.295 . S
C263 O247 1.235 . S
H264 C272 0.929 . S
H265 C274 0.930 . S
H266 C276 0.930 . S
H267 C279 0.929 . S
H268 C282 0.930 . S
H269 C284 0.960 . S
H270 C284 0.960 . S
H271 C284 0.960 . S
C272 H264 0.929 . S
C272 C273 1.377 . S
C272 C274 1.384 . S
C273 C272 1.377 . S
C273 C279 1.390 . S
C274 H265 0.930 . S
C274 C272 1.384 . S
C274 C275 1.372 . S
C275 C274 1.372 . S
C275 C276 1.400 . S
C275 C280 1.490 . S
C276 H266 0.930 . S
C276 C275 1.400 . S
C276 C279 1.386 . S
H277 C293 0.930 . S
H278 C294 0.931 . S
C279 H267 0.929 . S
C279 C273 1.390 . S
C279 C276 1.386 . S
C280 C275 1.490 . S
C280 C282 1.395 . S
C280 C283 1.403 . S
H281 C287 0.930 . S
C282 H268 0.930 . S
C282 C280 1.395 . S
C282 C285 1.403 . S
C283 C280 1.403 . S
C283 C284 1.524 . S
C283 C287 1.400 . S
C284 H269 0.960 . S
C284 H270 0.960 . S
C284 H271 0.960 . S
C284 C283 1.524 . S
C285 C282 1.403 . S
C285 C286 1.392 . S
C285 C289 1.495 . S
C286 C285 1.392 . S
C286 C287 1.385 . S
C286 C288 1.478 . S
C287 H281 0.930 . S
C287 C283 1.400 . S
C287 C286 1.385 . S
C288 C286 1.478 . S
C288 C290 1.381 . S
C288 C294 1.383 . S
C289 C285 1.495 . S
C289 H295 0.959 . S
C289 H296 0.961 . S
C289 H297 0.960 . S
C290 C288 1.381 . S
C290 C291 1.394 . S
C290 H298 0.930 . S
C291 C290 1.394 . S
C291 C292 1.383 . S
C291 H299 0.929 . S
C292 C291 1.383 . S
C292 C293 1.377 . S
C293 H277 0.930 . S
C293 C292 1.377 . S
C293 C294 1.379 . S
C294 H278 0.931 . S
C294 C288 1.383 . S
C294 C293 1.379 . S
H295 C289 0.959 . S
H296 C289 0.961 . S
H297 C289 0.960 . S
H298 C290 0.930 . S
H299 C291 0.929 . S
H300 C308 0.929 . S
H301 C310 0.930 . S
H302 C312 0.930 . S
H303 C315 0.929 . S
H304 C318 0.930 . S
H305 C320 0.960 . S
H306 C320 0.960 . S
H307 C320 0.960 . S
C308 H300 0.929 . S
C308 C309 1.377 . S
C308 C310 1.384 . S
C309 C308 1.377 . S
C309 C315 1.390 . S
C310 H301 0.930 . S
C310 C308 1.384 . S
C310 C311 1.372 . S
C311 C310 1.372 . S
C311 C312 1.400 . S
C311 C316 1.490 . S
C312 H302 0.930 . S
C312 C311 1.400 . S
C312 C315 1.386 . S
H313 C329 0.930 . S
H314 C330 0.931 . S
C315 H303 0.929 . S
C315 C309 1.390 . S
C315 C312 1.386 . S
C316 C311 1.490 . S
C316 C318 1.395 . S
C316 C319 1.403 . S
H317 C323 0.930 . S
C318 H304 0.930 . S
C318 C316 1.395 . S
C318 C321 1.403 . S
C319 C316 1.403 . S
C319 C320 1.524 . S
C319 C323 1.400 . S
C320 H305 0.960 . S
C320 H306 0.960 . S
C320 H307 0.960 . S
C320 C319 1.524 . S
C321 C318 1.403 . S
C321 C322 1.392 . S
C321 C325 1.495 . S
C322 C321 1.392 . S
C322 C323 1.385 . S
C322 C324 1.478 . S
C323 H317 0.930 . S
C323 C319 1.400 . S
C323 C322 1.385 . S
C324 C322 1.478 . S
C324 C326 1.381 . S
C324 C330 1.383 . S
C325 C321 1.495 . S
C325 H331 0.959 . S
C325 H332 0.961 . S
C325 H333 0.960 . S
C326 C324 1.381 . S
C326 C327 1.394 . S
C326 H334 0.930 . S
C327 C326 1.394 . S
C327 C328 1.383 . S
C327 H335 0.929 . S
C328 C327 1.383 . S
C328 C329 1.377 . S
C329 H313 0.930 . S
C329 C328 1.377 . S
C329 C330 1.379 . S
C330 H314 0.931 . S
C330 C324 1.383 . S
C330 C329 1.379 . S
H331 C325 0.959 . S
H332 C325 0.961 . S
H333 C325 0.960 . S
H334 C326 0.930 . S
H335 C327 0.929 . S
H336 C344 0.929 . S
H337 C346 0.930 . S
H338 C348 0.930 . S
H339 C351 0.929 . S
H340 C354 0.930 . S
H341 C356 0.960 . S
H342 C356 0.960 . S
H343 C356 0.960 . S
C344 H336 0.929 . S
C344 C345 1.377 . S
C344 C346 1.384 . S
C345 C344 1.377 . S
C345 C351 1.390 . S
C346 H337 0.930 . S
C346 C344 1.384 . S
C346 C347 1.372 . S
C347 C346 1.372 . S
C347 C348 1.400 . S
C347 C352 1.490 . S
C348 H338 0.930 . S
C348 C347 1.400 . S
C348 C351 1.386 . S
H349 C365 0.930 . S
H350 C366 0.931 . S
C351 H339 0.929 . S
C351 C345 1.390 . S
C351 C348 1.386 . S
C352 C347 1.490 . S
C352 C354 1.395 . S
C352 C355 1.403 . S
H353 C359 0.930 . S
C354 H340 0.930 . S
C354 C352 1.395 . S
C354 C357 1.403 . S
C355 C352 1.403 . S
C355 C356 1.524 . S
C355 C359 1.400 . S
C356 H341 0.960 . S
C356 H342 0.960 . S
C356 H343 0.960 . S
C356 C355 1.524 . S
C357 C354 1.403 . S
C357 C358 1.392 . S
C357 C361 1.495 . S
C358 C357 1.392 . S
C358 C359 1.385 . S
C358 C360 1.478 . S
C359 H353 0.930 . S
C359 C355 1.400 . S
C359 C358 1.385 . S
C360 C358 1.478 . S
C360 C362 1.381 . S
C360 C366 1.383 . S
C361 C357 1.495 . S
C361 H367 0.959 . S
C361 H368 0.961 . S
C361 H369 0.960 . S
C362 C360 1.381 . S
C362 C363 1.394 . S
C362 H370 0.930 . S
C363 C362 1.394 . S
C363 C364 1.383 . S
C363 H371 0.929 . S
C364 C363 1.383 . S
C364 C365 1.377 . S
C365 H349 0.930 . S
C365 C364 1.377 . S
C365 C366 1.379 . S
C366 H350 0.931 . S
C366 C360 1.383 . S
C366 C365 1.379 . S
H367 C361 0.959 . S
H368 C361 0.961 . S
H369 C361 0.960 . S
H370 C362 0.930 . S
H371 C363 0.929 . S
H372 C380 0.929 . S
H373 C382 0.930 . S
H374 C384 0.930 . S
H375 C387 0.929 . S
H376 C390 0.930 . S
H377 C392 0.960 . S
H378 C392 0.960 . S
H379 C392 0.960 . S
C380 H372 0.929 . S
C380 C381 1.377 . S
C380 C382 1.384 . S
C381 C380 1.377 . S
C381 C387 1.390 . S
C382 H373 0.930 . S
C382 C380 1.384 . S
C382 C383 1.372 . S
C383 C382 1.372 . S
C383 C384 1.400 . S
C383 C388 1.490 . S
C384 H374 0.930 . S
C384 C383 1.400 . S
C384 C387 1.386 . S
H385 C401 0.930 . S
H386 C402 0.931 . S
C387 H375 0.929 . S
C387 C381 1.390 . S
C387 C384 1.386 . S
C388 C383 1.490 . S
C388 C390 1.395 . S
C388 C391 1.403 . S
H389 C395 0.930 . S
C390 H376 0.930 . S
C390 C388 1.395 . S
C390 C393 1.403 . S
C391 C388 1.403 . S
C391 C392 1.524 . S
C391 C395 1.400 . S
C392 H377 0.960 . S
C392 H378 0.960 . S
C392 H379 0.960 . S
C392 C391 1.524 . S
C393 C390 1.403 . S
C393 C394 1.392 . S
C393 C397 1.495 . S
C394 C393 1.392 . S
C394 C395 1.385 . S
C394 C396 1.478 . S
C395 H389 0.930 . S
C395 C391 1.400 . S
C395 C394 1.385 . S
C396 C394 1.478 . S
C396 C398 1.381 . S
C396 C402 1.383 . S
C397 C393 1.495 . S
C397 H403 0.959 . S
C397 H404 0.961 . S
C397 H405 0.960 . S
C398 C396 1.381 . S
C398 C399 1.394 . S
C398 H406 0.930 . S
C399 C398 1.394 . S
C399 C400 1.383 . S
C399 H407 0.929 . S
C400 C399 1.383 . S
C400 C401 1.377 . S
C401 H385 0.930 . S
C401 C400 1.377 . S
C401 C402 1.379 . S
C402 H386 0.931 . S
C402 C396 1.383 . S
C402 C401 1.379 . S
H403 C397 0.959 . S
H404 C397 0.961 . S
H405 C397 0.960 . S
H406 C398 0.930 . S
H407 C399 0.929 . S
H408 C416 0.929 . S
H409 C418 0.930 . S
H410 C420 0.930 . S
H411 C423 0.929 . S
H412 C426 0.930 . S
H413 C428 0.960 . S
H414 C428 0.960 . S
H415 C428 0.960 . S
C416 H408 0.929 . S
C416 C417 1.377 . S
C416 C418 1.384 . S
C417 C416 1.377 . S
C417 C423 1.390 . S
C418 H409 0.930 . S
C418 C416 1.384 . S
C418 C419 1.372 . S
C419 C418 1.372 . S
C419 C420 1.400 . S
C419 C424 1.490 . S
C420 H410 0.930 . S
C420 C419 1.400 . S
C420 C423 1.386 . S
H421 C437 0.930 . S
H422 C438 0.931 . S
C423 H411 0.929 . S
C423 C417 1.390 . S
C423 C420 1.386 . S
C424 C419 1.490 . S
C424 C426 1.395 . S
C424 C427 1.403 . S
H425 C431 0.930 . S
C426 H412 0.930 . S
C426 C424 1.395 . S
C426 C429 1.403 . S
C427 C424 1.403 . S
C427 C428 1.524 . S
C427 C431 1.400 . S
C428 H413 0.960 . S
C428 H414 0.960 . S
C428 H415 0.960 . S
C428 C427 1.524 . S
C429 C426 1.403 . S
C429 C430 1.392 . S
C429 C433 1.495 . S
C430 C429 1.392 . S
C430 C431 1.385 . S
C430 C432 1.478 . S
C431 H425 0.930 . S
C431 C427 1.400 . S
C431 C430 1.385 . S
C432 C430 1.478 . S
C432 C434 1.381 . S
C432 C438 1.383 . S
C433 C429 1.495 . S
C433 H439 0.959 . S
C433 H440 0.961 . S
C433 H441 0.960 . S
C434 C432 1.381 . S
C434 C435 1.394 . S
C434 H442 0.930 . S
C435 C434 1.394 . S
C435 C436 1.383 . S
C435 H443 0.929 . S
C436 C435 1.383 . S
C436 C437 1.377 . S
C437 H421 0.930 . S
C437 C436 1.377 . S
C437 C438 1.379 . S
C438 H422 0.931 . S
C438 C432 1.383 . S
C438 C437 1.379 . S
H439 C433 0.959 . S
H440 C433 0.961 . S
H441 C433 0.960 . S
H442 C434 0.930 . S
H443 C435 0.929 . S
H444 C452 0.929 . S
H445 C454 0.930 . S
H446 C456 0.930 . S
H447 C459 0.929 . S
H448 C462 0.930 . S
H449 C464 0.960 . S
H450 C464 0.960 . S
H451 C464 0.960 . S
C452 H444 0.929 . S
C452 C453 1.377 . S
C452 C454 1.384 . S
C453 C452 1.377 . S
C453 C459 1.390 . S
C454 H445 0.930 . S
C454 C452 1.384 . S
C454 C455 1.372 . S
C455 C454 1.372 . S
C455 C456 1.400 . S
C455 C460 1.490 . S
C456 H446 0.930 . S
C456 C455 1.400 . S
C456 C459 1.386 . S
H457 C473 0.930 . S
H458 C474 0.931 . S
C459 H447 0.929 . S
C459 C453 1.390 . S
C459 C456 1.386 . S
C460 C455 1.490 . S
C460 C462 1.395 . S
C460 C463 1.403 . S
H461 C467 0.930 . S
C462 H448 0.930 . S
C462 C460 1.395 . S
C462 C465 1.403 . S
C463 C460 1.403 . S
C463 C464 1.524 . S
C463 C467 1.400 . S
C464 H449 0.960 . S
C464 H450 0.960 . S
C464 H451 0.960 . S
C464 C463 1.524 . S
C465 C462 1.403 . S
C465 C466 1.392 . S
C465 C469 1.495 . S
C466 C465 1.392 . S
C466 C467 1.385 . S
C466 C468 1.478 . S
C467 H461 0.930 . S
C467 C463 1.400 . S
C467 C466 1.385 . S
C468 C466 1.478 . S
C468 C470 1.381 . S
C468 C474 1.383 . S
C469 C465 1.495 . S
C469 H475 0.959 . S
C469 H476 0.961 . S
C469 H477 0.960 . S
C470 C468 1.381 . S
C470 C471 1.394 . S
C470 H478 0.930 . S
C471 C470 1.394 . S
C471 C472 1.383 . S
C471 H479 0.929 . S
C472 C471 1.383 . S
C472 C473 1.377 . S
C473 H457 0.930 . S
C473 C472 1.377 . S
C473 C474 1.379 . S
C474 H458 0.931 . S
C474 C468 1.383 . S
C474 C473 1.379 . S
H475 C469 0.959 . S
H476 C469 0.961 . S
H477 C469 0.960 . S
H478 C470 0.930 . S
H479 C471 0.929 . S
H480 C488 0.929 . S
H481 C490 0.930 . S
H482 C492 0.930 . S
H483 C495 0.929 . S
H484 C498 0.930 . S
H485 C500 0.960 . S
H486 C500 0.960 . S
H487 C500 0.960 . S
C488 H480 0.929 . S
C488 C489 1.377 . S
C488 C490 1.384 . S
C489 C488 1.377 . S
C489 C495 1.390 . S
C490 H481 0.930 . S
C490 C488 1.384 . S
C490 C491 1.372 . S
C491 C490 1.372 . S
C491 C492 1.400 . S
C491 C496 1.490 . S
C492 H482 0.930 . S
C492 C491 1.400 . S
C492 C495 1.386 . S
H493 C509 0.930 . S
H494 C510 0.931 . S
C495 H483 0.929 . S
C495 C489 1.390 . S
C495 C492 1.386 . S
C496 C491 1.490 . S
C496 C498 1.395 . S
C496 C499 1.403 . S
H497 C503 0.930 . S
C498 H484 0.930 . S
C498 C496 1.395 . S
C498 C501 1.403 . S
C499 C496 1.403 . S
C499 C500 1.524 . S
C499 C503 1.400 . S
C500 H485 0.960 . S
C500 H486 0.960 . S
C500 H487 0.960 . S
C500 C499 1.524 . S
C501 C498 1.403 . S
C501 C502 1.392 . S
C501 C505 1.495 . S
C502 C501 1.392 . S
C502 C503 1.385 . S
C502 C504 1.478 . S
C503 H497 0.930 . S
C503 C499 1.400 . S
C503 C502 1.385 . S
C504 C502 1.478 . S
C504 C506 1.381 . S
C504 C510 1.383 . S
C505 C501 1.495 . S
C505 H511 0.959 . S
C505 H512 0.961 . S
C505 H513 0.960 . S
C506 C504 1.381 . S
C506 C507 1.394 . S
C506 H514 0.930 . S
C507 C506 1.394 . S
C507 C508 1.383 . S
C507 H515 0.929 . S
C508 C507 1.383 . S
C508 C509 1.377 . S
C509 H493 0.930 . S
C509 C508 1.377 . S
C509 C510 1.379 . S
C510 H494 0.931 . S
C510 C504 1.383 . S
C510 C509 1.379 . S
H511 C505 0.959 . S
H512 C505 0.961 . S
H513 C505 0.960 . S
H514 C506 0.930 . S
H515 C507 0.929 . S
H516 C524 0.929 . S
H517 C526 0.930 . S
H518 C528 0.930 . S
H519 C531 0.929 . S
H520 C534 0.950 . S
H521 C536 0.960 . S
H522 C536 0.960 . S
H523 C536 0.960 . S
C524 H516 0.929 . S
C524 C525 1.377 . S
C524 C526 1.384 . S
C525 C524 1.377 . S
C525 C531 1.390 . S
C526 H517 0.930 . S
C526 C524 1.384 . S
C526 C527 1.372 . S
C527 C526 1.372 . S
C527 C528 1.400 . S
C527 C532 1.490 . S
C528 H518 0.930 . S
C528 C527 1.400 . S
C528 C531 1.386 . S
H529 C545 0.930 . S
H530 C546 0.931 . S
C531 H519 0.929 . S
C531 C525 1.390 . S
C531 C528 1.386 . S
C532 C527 1.490 . S
C532 C534 1.405 . S
C532 C535 1.403 . S
H533 C539 0.930 . S
C534 H520 0.950 . S
C534 C532 1.405 . S
C534 C537 1.376 1_655 S
C535 C532 1.403 . S
C535 C536 1.524 . S
C535 C539 1.400 1_655 S
C536 H521 0.960 . S
C536 H522 0.960 . S
C536 H523 0.960 . S
C536 C535 1.524 . S
C537 C534 1.376 1_455 S
C537 C538 1.392 . S
C537 C541 1.495 . S
C538 C537 1.392 . S
C538 C539 1.385 . S
C538 C540 1.478 . S
C539 H533 0.930 . S
C539 C535 1.400 1_455 S
C539 C538 1.385 . S
C540 C538 1.478 . S
C540 C542 1.381 . S
C540 C546 1.383 . S
C541 C537 1.495 . S
C541 H547 0.959 . S
C541 H548 0.961 . S
C541 H549 0.960 . S
C542 C540 1.381 . S
C542 C543 1.394 . S
C542 H550 0.930 . S
C543 C542 1.394 . S
C543 C544 1.383 . S
C543 H551 0.929 . S
C544 C543 1.383 . S
C544 C545 1.377 . S
C545 H529 0.930 . S
C545 C544 1.377 . S
C545 C546 1.379 . S
C546 H530 0.931 . S
C546 C540 1.383 . S
C546 C545 1.379 . S
H547 C541 0.959 . S
H548 C541 0.961 . S
H549 C541 0.960 . S
H550 C542 0.930 . S
H551 C543 0.929 . S
H552 C560 0.929 . S
H553 C562 0.930 . S
H554 C564 0.930 . S
H555 C567 0.929 . S
H556 C570 0.930 . S
H557 C572 0.960 . S
H558 C572 0.960 . S
H559 C572 0.960 . S
C560 H552 0.929 . S
C560 C561 1.377 . S
C560 C562 1.384 . S
C561 C560 1.377 . S
C561 C567 1.390 . S
C562 H553 0.930 . S
C562 C560 1.384 . S
C562 C563 1.372 . S
C563 C562 1.372 . S
C563 C564 1.400 . S
C563 C568 1.490 . S
C564 H554 0.930 . S
C564 C563 1.400 . S
C564 C567 1.386 . S
H565 C581 0.930 . S
H566 C582 0.931 . S
C567 H555 0.929 . S
C567 C561 1.390 . S
C567 C564 1.386 . S
C568 C563 1.490 . S
C568 C570 1.395 . S
C568 C571 1.403 . S
H569 C575 0.930 . S
C570 H556 0.930 . S
C570 C568 1.395 . S
C570 C573 1.403 1_545 S
C571 C568 1.403 . S
C571 C572 1.524 . S
C571 C575 1.400 1_545 S
C572 H557 0.960 . S
C572 H558 0.960 . S
C572 H559 0.960 . S
C572 C571 1.524 . S
C573 C570 1.403 1_565 S
C573 C574 1.392 . S
C573 C577 1.495 . S
C574 C573 1.392 . S
C574 C575 1.385 . S
C574 C576 1.478 . S
C575 H569 0.930 . S
C575 C571 1.400 1_565 S
C575 C574 1.385 . S
C576 C574 1.478 . S
C576 C578 1.381 . S
C576 C582 1.383 . S
C577 C573 1.495 . S
C577 H583 0.959 . S
C577 H584 0.961 . S
C577 H585 0.960 . S
C578 C576 1.381 . S
C578 C579 1.394 . S
C578 H586 0.930 . S
C579 C578 1.394 . S
C579 C580 1.383 . S
C579 H587 0.929 . S
C580 C579 1.383 . S
C580 C581 1.377 . S
C581 H565 0.930 . S
C581 C580 1.377 . S
C581 C582 1.379 . S
C582 H566 0.931 . S
C582 C576 1.383 . S
C582 C581 1.379 . S
H583 C577 0.959 . S
H584 C577 0.961 . S
H585 C577 0.960 . S
H586 C578 0.930 . S
H587 C579 0.929 . S
H588 C596 0.929 . S
H589 C598 0.930 . S
H590 C600 0.930 . S
H591 C603 0.929 . S
H592 C606 0.930 . S
H593 C608 0.960 . S
H594 C608 0.960 . S
H595 C608 0.960 . S
C596 H588 0.929 . S
C596 C597 1.377 . S
C596 C598 1.384 . S
C597 C596 1.377 . S
C597 C603 1.390 . S
C598 H589 0.930 . S
C598 C596 1.384 . S
C598 C599 1.372 . S
C599 C598 1.372 . S
C599 C600 1.400 . S
C599 C604 1.490 . S
C600 H590 0.930 . S
C600 C599 1.400 . S
C600 C603 1.386 . S
H601 C617 0.930 . S
H602 C618 0.931 . S
C603 H591 0.929 . S
C603 C597 1.390 . S
C603 C600 1.386 . S
C604 C599 1.490 . S
C604 C606 1.395 . S
C604 C607 1.403 . S
H605 C611 0.930 . S
C606 H592 0.930 . S
C606 C604 1.395 . S
C606 C609 1.403 . S
C607 C604 1.403 . S
C607 C608 1.524 . S
C607 C611 1.400 . S
C608 H593 0.960 . S
C608 H594 0.960 . S
C608 H595 0.960 . S
C608 C607 1.524 . S
C609 C606 1.403 . S
C609 C610 1.392 . S
C609 C613 1.495 . S
C610 C609 1.392 . S
C610 C611 1.385 . S
C610 C612 1.478 . S
C611 H605 0.930 . S
C611 C607 1.400 . S
C611 C610 1.385 . S
C612 C610 1.478 . S
C612 C614 1.381 . S
C612 C618 1.383 . S
C613 C609 1.495 . S
C613 H619 0.959 . S
C613 H620 0.961 . S
C613 H621 0.960 . S
C614 C612 1.381 . S
C614 C615 1.394 . S
C614 H622 0.930 . S
C615 C614 1.394 . S
C615 C616 1.383 . S
C615 H623 0.929 . S
C616 C615 1.383 . S
C616 C617 1.377 . S
C617 H601 0.930 . S
C617 C616 1.377 . S
C617 C618 1.379 . S
C618 H602 0.931 . S
C618 C612 1.383 . S
C618 C617 1.379 . S
H619 C613 0.959 . S
H620 C613 0.961 . S
H621 C613 0.960 . S
H622 C614 0.930 . S
H623 C615 0.929 . S
H624 C632 0.929 . S
H625 C634 0.930 . S
H626 C636 0.930 . S
H627 C639 0.929 . S
H628 C642 0.930 . S
H629 C644 0.960 . S
H630 C644 0.960 . S
H631 C644 0.960 . S
C632 H624 0.929 . S
C632 C633 1.377 . S
C632 C634 1.384 . S
C633 C632 1.377 . S
C633 C639 1.390 . S
C634 H625 0.930 . S
C634 C632 1.384 . S
C634 C635 1.372 . S
C635 C634 1.372 . S
C635 C636 1.400 . S
C635 C640 1.490 . S
C636 H626 0.930 . S
C636 C635 1.400 . S
C636 C639 1.386 . S
H637 C653 0.930 . S
H638 C654 0.931 . S
C639 H627 0.929 . S
C639 C633 1.390 . S
C639 C636 1.386 . S
C640 C635 1.490 . S
C640 C642 1.395 1_455 S
C640 C643 1.403 . S
H641 C647 0.935 . S
C642 H628 0.930 . S
C642 C640 1.395 1_655 S
C642 C645 1.403 . S
C643 C640 1.403 . S
C643 C644 1.524 . S
C643 C647 1.418 . S
C644 H629 0.960 . S
C644 H630 0.960 . S
C644 H631 0.960 . S
C644 C643 1.524 . S
C645 C642 1.403 . S
C645 C646 1.392 . S
C645 C649 1.495 . S
C646 C645 1.392 . S
C646 C647 1.363 1_655 S
C646 C648 1.478 . S
C647 H641 0.935 . S
C647 C643 1.418 . S
C647 C646 1.363 1_455 S
C648 C646 1.478 . S
C648 C650 1.381 . S
C648 C654 1.383 . S
C649 C645 1.495 . S
C649 H655 0.959 . S
C649 H656 0.961 . S
C649 H657 0.960 . S
C650 C648 1.381 . S
C650 C651 1.394 . S
C650 H658 0.930 . S
C651 C650 1.394 . S
C651 C652 1.383 . S
C651 H659 0.929 . S
C652 C651 1.383 . S
C652 C653 1.377 . S
C653 H637 0.930 . S
C653 C652 1.377 . S
C653 C654 1.379 . S
C654 H638 0.931 . S
C654 C648 1.383 . S
C654 C653 1.379 . S
H655 C649 0.959 . S
H656 C649 0.961 . S
H657 C649 0.960 . S
H658 C650 0.930 . S
H659 C651 0.929 . S
H660 C668 0.929 . S
H661 C670 0.930 . S
H662 C672 0.930 . S
H663 C675 0.929 . S
H664 C678 0.930 . S
H665 C680 0.960 . S
H666 C680 0.960 . S
H667 C680 0.960 . S
C668 H660 0.929 . S
C668 C669 1.377 . S
C668 C670 1.384 . S
C669 C668 1.377 . S
C669 C675 1.390 . S
C670 H661 0.930 . S
C670 C668 1.384 . S
C670 C671 1.372 . S
C671 C670 1.372 . S
C671 C672 1.400 . S
C671 C676 1.490 . S
C672 H662 0.930 . S
C672 C671 1.400 . S
C672 C675 1.386 . S
H673 C689 0.930 . S
H674 C690 0.931 . S
C675 H663 0.929 . S
C675 C669 1.390 . S
C675 C672 1.386 . S
C676 C671 1.490 . S
C676 C678 1.395 . S
C676 C679 1.403 . S
H677 C683 0.930 . S
C678 H664 0.930 . S
C678 C676 1.395 . S
C678 C681 1.403 1_546 S
C679 C676 1.403 . S
C679 C680 1.524 . S
C679 C683 1.400 1_546 S
C680 H665 0.960 . S
C680 H666 0.960 . S
C680 H667 0.960 . S
C680 C679 1.524 . S
C681 C678 1.403 1_564 S
C681 C682 1.392 . S
C681 C685 1.495 . S
C682 C681 1.392 . S
C682 C683 1.385 . S
C682 C684 1.478 . S
C683 H677 0.930 . S
C683 C679 1.400 1_564 S
C683 C682 1.385 . S
C684 C682 1.478 . S
C684 C686 1.381 . S
C684 C690 1.383 . S
C685 C681 1.495 . S
C685 H691 0.959 . S
C685 H692 0.961 . S
C685 H693 0.960 . S
C686 C684 1.381 . S
C686 C687 1.394 . S
C686 H694 0.930 . S
C687 C686 1.394 . S
C687 C688 1.383 . S
C687 H695 0.929 . S
C688 C687 1.383 . S
C688 C689 1.377 . S
C689 H673 0.930 . S
C689 C688 1.377 . S
C689 C690 1.379 . S
C690 H674 0.931 . S
C690 C684 1.383 . S
C690 C689 1.379 . S
H691 C685 0.959 . S
H692 C685 0.961 . S
H693 C685 0.960 . S
H694 C686 0.930 . S
H695 C687 0.929 . S
H696 C704 0.929 . S
H697 C706 0.930 . S
H698 C708 0.930 . S
H699 C711 0.929 . S
H700 C714 0.930 . S
H701 C716 0.960 . S
H702 C716 0.960 . S
H703 C716 0.960 . S
C704 H696 0.929 . S
C704 C705 1.377 . S
C704 C706 1.384 . S
C705 C704 1.377 . S
C705 C711 1.390 . S
C706 H697 0.930 . S
C706 C704 1.384 . S
C706 C707 1.372 . S
C707 C706 1.372 . S
C707 C708 1.400 . S
C707 C712 1.490 . S
C708 H698 0.930 . S
C708 C707 1.400 . S
C708 C711 1.386 . S
H709 C725 0.930 . S
H710 C726 0.931 . S
C711 H699 0.929 . S
C711 C705 1.390 . S
C711 C708 1.386 . S
C712 C707 1.490 . S
C712 C714 1.395 . S
C712 C715 1.403 . S
H713 C719 0.930 . S
C714 H700 0.930 . S
C714 C712 1.395 . S
C714 C717 1.403 . S
C715 C712 1.403 . S
C715 C716 1.524 . S
C715 C719 1.400 . S
C716 H701 0.960 . S
C716 H702 0.960 . S
C716 H703 0.960 . S
C716 C715 1.524 . S
C717 C714 1.403 . S
C717 C718 1.392 . S
C717 C721 1.495 . S
C718 C717 1.392 . S
C718 C719 1.385 . S
C718 C720 1.478 . S
C719 H713 0.930 . S
C719 C715 1.400 . S
C719 C718 1.385 . S
C720 C718 1.478 . S
C720 C722 1.381 . S
C720 C726 1.383 . S
C721 C717 1.495 . S
C721 H727 0.959 . S
C721 H728 0.961 . S
C721 H729 0.960 . S
C722 C720 1.381 . S
C722 C723 1.394 . S
C722 H730 0.930 . S
C723 C722 1.394 . S
C723 C724 1.383 . S
C723 H731 0.929 . S
C724 C723 1.383 . S
C724 C725 1.377 . S
C725 H709 0.930 . S
C725 C724 1.377 . S
C725 C726 1.379 . S
C726 H710 0.931 . S
C726 C720 1.383 . S
C726 C725 1.379 . S
H727 C721 0.959 . S
H728 C721 0.961 . S
H729 C721 0.960 . S
H730 C722 0.930 . S
H731 C723 0.929 . S
H732 C740 0.929 . S
H733 C742 0.930 . S
H734 C744 0.930 . S
H735 C747 0.929 1_556 S
H736 C750 0.930 . S
H737 C752 0.960 . S
H738 C752 0.960 . S
H739 C752 0.960 . S
C740 H732 0.929 . S
C740 C741 1.377 . S
C740 C742 1.384 . S
C741 C740 1.377 . S
C741 C747 1.390 . S
C742 H733 0.930 . S
C742 C740 1.384 . S
C742 C743 1.372 . S
C743 C742 1.372 . S
C743 C744 1.400 . S
C743 C748 1.490 . S
C744 H734 0.930 . S
C744 C743 1.400 . S
C744 C747 1.386 . S
H745 C761 0.930 . S
H746 C762 0.931 . S
C747 H735 0.929 1_554 S
C747 C741 1.390 . S
C747 C744 1.386 . S
C748 C743 1.490 . S
C748 C750 1.395 . S
C748 C751 1.403 . S
H749 C755 0.930 . S
C750 H736 0.930 . S
C750 C748 1.395 . S
C750 C753 1.403 . S
C751 C748 1.403 . S
C751 C752 1.524 . S
C751 C755 1.400 . S
C752 H737 0.960 . S
C752 H738 0.960 . S
C752 H739 0.960 . S
C752 C751 1.524 . S
C753 C750 1.403 . S
C753 C754 1.392 . S
C753 C757 1.495 . S
C754 C753 1.392 . S
C754 C755 1.385 . S
C754 C756 1.478 . S
C755 H749 0.930 . S
C755 C751 1.400 . S
C755 C754 1.385 . S
C756 C754 1.478 . S
C756 C758 1.381 . S
C756 C762 1.383 . S
C757 C753 1.495 . S
C757 H763 0.959 . S
C757 H764 0.961 . S
C757 H765 0.960 . S
C758 C756 1.381 . S
C758 C759 1.394 . S
C758 H766 0.930 . S
C759 C758 1.394 . S
C759 C760 1.383 . S
C759 H767 0.929 . S
C760 C759 1.383 . S
C760 C761 1.377 . S
C761 H745 0.930 . S
C761 C760 1.377 . S
C761 C762 1.379 . S
C762 H746 0.931 . S
C762 C756 1.383 . S
C762 C761 1.379 . S
H763 C757 0.959 . S
H764 C757 0.961 . S
H765 C757 0.960 . S
H766 C758 0.930 . S
H767 C759 0.929 . S
H768 C776 0.929 . S
H769 C778 0.930 . S
H770 C780 0.930 . S
H771 C783 0.929 . S
H772 C786 0.930 . S
H773 C788 0.960 . S
H774 C788 0.960 . S
H775 C788 0.960 . S
C776 H768 0.929 . S
C776 C777 1.377 . S
C776 C778 1.384 . S
C777 C776 1.377 . S
C777 C783 1.390 . S
C778 H769 0.930 . S
C778 C776 1.384 . S
C778 C779 1.372 . S
C779 C778 1.372 . S
C779 C780 1.400 . S
C779 C784 1.490 . S
C780 H770 0.930 . S
C780 C779 1.400 . S
C780 C783 1.386 . S
H781 C797 0.930 . S
H782 C798 0.931 . S
C783 H771 0.929 . S
C783 C777 1.390 . S
C783 C780 1.386 . S
C784 C779 1.490 . S
C784 C786 1.395 . S
C784 C787 1.403 . S
H785 C791 0.930 . S
C786 H772 0.930 . S
C786 C784 1.395 . S
C786 C789 1.403 . S
C787 C784 1.403 . S
C787 C788 1.524 . S
C787 C791 1.400 . S
C788 H773 0.960 . S
C788 H774 0.960 . S
C788 H775 0.960 . S
C788 C787 1.524 . S
C789 C786 1.403 . S
C789 C790 1.392 . S
C789 C793 1.495 . S
C790 C789 1.392 . S
C790 C791 1.385 . S
C790 C792 1.478 . S
C791 H785 0.930 . S
C791 C787 1.400 . S
C791 C790 1.385 . S
C792 C790 1.478 . S
C792 C794 1.381 . S
C792 C798 1.383 . S
C793 C789 1.495 . S
C793 H799 0.959 . S
C793 H800 0.961 . S
C793 H801 0.960 . S
C794 C792 1.381 . S
C794 C795 1.394 . S
C794 H802 0.930 . S
C795 C794 1.394 . S
C795 C796 1.383 . S
C795 H803 0.929 . S
C796 C795 1.383 . S
C796 C797 1.377 . S
C797 H781 0.930 . S
C797 C796 1.377 . S
C797 C798 1.379 . S
C798 H782 0.931 . S
C798 C792 1.383 . S
C798 C797 1.379 . S
H799 C793 0.959 . S
H800 C793 0.961 . S
H801 C793 0.960 . S
H802 C794 0.930 . S
H803 C795 0.929 . S
H804 C812 0.929 . S
H805 C814 0.930 . S
H806 C816 0.930 . S
H807 C819 0.929 . S
H808 C822 0.930 . S
H809 C824 0.960 . S
H810 C824 0.960 . S
H811 C824 0.960 . S
C812 H804 0.929 . S
C812 C813 1.377 . S
C812 C814 1.384 . S
C813 C812 1.377 . S
C813 C819 1.390 . S
C814 H805 0.930 . S
C814 C812 1.384 . S
C814 C815 1.372 . S
C815 C814 1.372 . S
C815 C816 1.400 . S
C815 C820 1.490 . S
C816 H806 0.930 . S
C816 C815 1.400 . S
C816 C819 1.386 . S
H817 C833 0.930 . S
H818 C834 0.931 . S
C819 H807 0.929 . S
C819 C813 1.390 . S
C819 C816 1.386 . S
C820 C815 1.490 . S
C820 C822 1.395 . S
C820 C823 1.403 . S
H821 C827 0.930 . S
C822 H808 0.930 . S
C822 C820 1.395 . S
C822 C825 1.403 . S
C823 C820 1.403 . S
C823 C824 1.524 . S
C823 C827 1.400 . S
C824 H809 0.960 . S
C824 H810 0.960 . S
C824 H811 0.960 . S
C824 C823 1.524 . S
C825 C822 1.403 . S
C825 C826 1.392 . S
C825 C829 1.495 . S
C826 C825 1.392 . S
C826 C827 1.385 . S
C826 C828 1.478 . S
C827 H821 0.930 . S
C827 C823 1.400 . S
C827 C826 1.385 . S
C828 C826 1.478 . S
C828 C830 1.381 . S
C828 C834 1.383 . S
C829 C825 1.495 . S
C829 H835 0.959 . S
C829 H836 0.961 . S
C829 H837 0.960 . S
C830 C828 1.381 . S
C830 C831 1.394 . S
C830 H838 0.930 . S
C831 C830 1.394 . S
C831 C832 1.383 . S
C831 H839 0.929 . S
C832 C831 1.383 . S
C832 C833 1.377 . S
C833 H817 0.930 . S
C833 C832 1.377 . S
C833 C834 1.379 . S
C834 H818 0.931 . S
C834 C828 1.383 . S
C834 C833 1.379 . S
H835 C829 0.959 . S
H836 C829 0.961 . S
H837 C829 0.960 . S
H838 C830 0.930 . S
H839 C831 0.929 . S
H840 C848 0.929 . S
H841 C850 0.930 . S
H842 C852 0.930 . S
H843 C855 0.929 . S
H844 C858 0.930 . S
H845 C860 0.960 . S
H846 C860 0.960 . S
H847 C860 0.960 . S
C848 H840 0.929 . S
C848 C849 1.377 . S
C848 C850 1.384 . S
C849 C848 1.377 . S
C849 C855 1.390 . S
C850 H841 0.930 . S
C850 C848 1.384 . S
C850 C851 1.372 . S
C851 C850 1.372 . S
C851 C852 1.400 . S
C851 C856 1.490 . S
C852 H842 0.930 . S
C852 C851 1.400 . S
C852 C855 1.386 . S
H853 C869 0.930 . S
H854 C870 0.931 . S
C855 H843 0.929 . S
C855 C849 1.390 . S
C855 C852 1.386 . S
C856 C851 1.490 . S
C856 C858 1.395 . S
C856 C859 1.403 . S
H857 C863 0.930 . S
C858 H844 0.930 . S
C858 C856 1.395 . S
C858 C861 1.403 . S
C859 C856 1.403 . S
C859 C860 1.524 . S
C859 C863 1.400 . S
C860 H845 0.960 . S
C860 H846 0.960 . S
C860 H847 0.960 . S
C860 C859 1.524 . S
C861 C858 1.403 . S
C861 C862 1.392 . S
C861 C865 1.495 . S
C862 C861 1.392 . S
C862 C863 1.385 . S
C862 C864 1.478 . S
C863 H857 0.930 . S
C863 C859 1.400 . S
C863 C862 1.385 . S
C864 C862 1.478 . S
C864 C866 1.381 . S
C864 C870 1.383 . S
C865 C861 1.495 . S
C865 H871 0.959 . S
C865 H872 0.961 . S
C865 H873 0.960 . S
C866 C864 1.381 . S
C866 C867 1.394 . S
C866 H874 0.930 . S
C867 C866 1.394 . S
C867 C868 1.383 . S
C867 H875 0.929 . S
C868 C867 1.383 . S
C868 C869 1.377 . S
C869 H853 0.930 . S
C869 C868 1.377 . S
C869 C870 1.379 . S
C870 H854 0.931 . S
C870 C864 1.383 . S
C870 C869 1.379 . S
H871 C865 0.959 . S
H872 C865 0.961 . S
H873 C865 0.960 . S
H874 C866 0.930 . S
H875 C867 0.929 . S
H876 C884 0.929 . S
H877 C886 0.930 . S
H878 C888 0.930 . S
H879 C891 0.929 . S
H880 C894 0.930 . S
H881 C896 0.960 . S
H882 C896 0.960 . S
H883 C896 0.960 . S
C884 H876 0.929 . S
C884 C885 1.377 . S
C884 C886 1.384 . S
C885 C884 1.377 . S
C885 C891 1.390 . S
C886 H877 0.930 . S
C886 C884 1.384 . S
C886 C887 1.372 . S
C887 C886 1.372 . S
C887 C888 1.400 . S
C887 C892 1.490 . S
C888 H878 0.930 . S
C888 C887 1.400 . S
C888 C891 1.386 . S
H889 C905 0.930 . S
H890 C906 0.931 . S
C891 H879 0.929 . S
C891 C885 1.390 . S
C891 C888 1.386 . S
C892 C887 1.490 . S
C892 C894 1.395 . S
C892 C895 1.403 . S
H893 C899 0.930 . S
C894 H880 0.930 . S
C894 C892 1.395 . S
C894 C897 1.403 . S
C895 C892 1.403 . S
C895 C896 1.524 . S
C895 C899 1.400 . S
C896 H881 0.960 . S
C896 H882 0.960 . S
C896 H883 0.960 . S
C896 C895 1.524 . S
C897 C894 1.403 . S
C897 C898 1.392 . S
C897 C901 1.495 . S
C898 C897 1.392 . S
C898 C899 1.385 . S
C898 C900 1.478 . S
C899 H893 0.930 . S
C899 C895 1.400 . S
C899 C898 1.385 . S
C900 C898 1.478 . S
C900 C902 1.381 . S
C900 C906 1.383 . S
C901 C897 1.495 . S
C901 H907 0.959 . S
C901 H908 0.961 . S
C901 H909 0.960 . S
C902 C900 1.381 . S
C902 C903 1.394 . S
C902 H910 0.930 . S
C903 C902 1.394 . S
C903 C904 1.383 . S
C903 H911 0.929 . S
C904 C903 1.383 . S
C904 C905 1.377 . S
C905 H889 0.930 . S
C905 C904 1.377 . S
C905 C906 1.379 . S
C906 H890 0.931 . S
C906 C900 1.383 . S
C906 C905 1.379 . S
H907 C901 0.959 . S
H908 C901 0.961 . S
H909 C901 0.960 . S
H910 C902 0.930 . S
H911 C903 0.929 . S
H912 C920 0.929 . S
H913 C922 0.930 . S
H914 C924 0.930 . S
H915 C927 0.929 . S
H916 C930 0.930 . S
H917 C932 0.960 . S
H918 C932 0.960 . S
H919 C932 0.960 . S
C920 H912 0.929 . S
C920 C921 1.377 . S
C920 C922 1.384 . S
C921 C920 1.377 . S
C921 C927 1.390 . S
C922 H913 0.930 . S
C922 C920 1.384 . S
C922 C923 1.372 . S
C923 C922 1.372 . S
C923 C924 1.400 . S
C923 C928 1.490 . S
C924 H914 0.930 . S
C924 C923 1.400 . S
C924 C927 1.386 . S
H925 C941 0.930 . S
H926 C942 0.931 . S
C927 H915 0.929 . S
C927 C921 1.390 . S
C927 C924 1.386 . S
C928 C923 1.490 . S
C928 C930 1.395 . S
C928 C931 1.403 . S
H929 C935 0.930 . S
C930 H916 0.930 . S
C930 C928 1.395 . S
C930 C933 1.403 . S
C931 C928 1.403 . S
C931 C932 1.524 . S
C931 C935 1.400 . S
C932 H917 0.960 . S
C932 H918 0.960 . S
C932 H919 0.960 . S
C932 C931 1.524 . S
C933 C930 1.403 . S
C933 C934 1.392 . S
C933 C937 1.495 . S
C934 C933 1.392 . S
C934 C935 1.385 . S
C934 C936 1.478 . S
C935 H929 0.930 . S
C935 C931 1.400 . S
C935 C934 1.385 . S
C936 C934 1.478 . S
C936 C938 1.381 . S
C936 C942 1.383 . S
C937 C933 1.495 . S
C937 H943 0.959 . S
C937 H944 0.961 . S
C937 H945 0.960 . S
C938 C936 1.381 . S
C938 C939 1.394 . S
C938 H946 0.930 . S
C939 C938 1.394 . S
C939 C940 1.383 . S
C939 H947 0.929 . S
C940 C939 1.383 . S
C940 C941 1.377 . S
C941 H925 0.930 . S
C941 C940 1.377 . S
C941 C942 1.379 . S
C942 H926 0.931 . S
C942 C936 1.383 . S
C942 C941 1.379 . S
H943 C937 0.959 . S
H944 C937 0.961 . S
H945 C937 0.960 . S
H946 C938 0.930 . S
H947 C939 0.929 . S
H948 C956 0.929 . S
H949 C958 0.930 . S
H950 C960 0.930 . S
H951 C963 0.929 . S
H952 C966 0.930 . S
H953 C968 0.960 . S
H954 C968 0.960 1_655 S
H955 C968 0.960 1_655 S
C956 H948 0.929 . S
C956 C957 1.377 . S
C956 C958 1.384 . S
C957 C956 1.377 . S
C957 C963 1.390 . S
C958 H949 0.930 . S
C958 C956 1.384 . S
C958 C959 1.372 . S
C959 C958 1.372 . S
C959 C960 1.400 . S
C959 C964 1.490 . S
C960 H950 0.930 . S
C960 C959 1.400 . S
C960 C963 1.386 . S
H961 C977 0.930 . S
H962 C978 0.931 . S
C963 H951 0.929 . S
C963 C957 1.390 . S
C963 C960 1.386 . S
C964 C959 1.490 . S
C964 C966 1.395 . S
C964 C967 1.403 1_655 S
H965 C971 0.930 . S
C966 H952 0.930 . S
C966 C964 1.395 . S
C966 C969 1.403 1_655 S
C967 C964 1.403 1_455 S
C967 C968 1.524 . S
C967 C971 1.400 . S
C968 H953 0.960 . S
C968 H954 0.960 1_455 S
C968 H955 0.960 1_455 S
C968 C967 1.524 . S
C969 C966 1.403 1_455 S
C969 C970 1.392 . S
C969 C973 1.495 . S
C970 C969 1.392 . S
C970 C971 1.385 . S
C970 C972 1.478 . S
C971 H965 0.930 . S
C971 C967 1.400 . S
C971 C970 1.385 . S
C972 C970 1.478 . S
C972 C974 1.381 . S
C972 C978 1.383 . S
C973 C969 1.495 . S
C973 H979 0.959 1_455 S
C973 H980 0.961 . S
C973 H981 0.960 . S
C974 C972 1.381 . S
C974 C975 1.394 . S
C974 H982 0.930 . S
C975 C974 1.394 . S
C975 C976 1.383 . S
C975 H983 0.929 . S
C976 C975 1.383 . S
C976 C977 1.377 . S
C977 H961 0.930 . S
C977 C976 1.377 . S
C977 C978 1.379 . S
C978 H962 0.931 . S
C978 C972 1.383 . S
C978 C977 1.379 . S
H979 C973 0.959 1_655 S
H980 C973 0.961 . S
H981 C973 0.960 . S
H982 C974 0.930 . S
H983 C975 0.929 . S
H984 C992 0.929 . S
H985 C994 0.930 . S
H986 C996 0.930 . S
H987 C999 0.929 . S
H988 C1002 0.930 . S
H989 C1004 0.960 1_545 S
H990 C1004 0.960 . S
H991 C1004 0.960 . S
C992 H984 0.929 . S
C992 C993 1.377 . S
C992 C994 1.384 . S
C993 C992 1.377 . S
C993 C999 1.390 . S
C994 H985 0.930 . S
C994 C992 1.384 . S
C994 C995 1.372 . S
C995 C994 1.372 . S
C995 C996 1.400 . S
C995 C1000 1.490 . S
C996 H986 0.930 . S
C996 C995 1.400 . S
C996 C999 1.386 . S
H997 C1013 0.930 . S
H998 C1014 0.931 . S
C999 H987 0.929 . S
C999 C993 1.390 . S
C999 C996 1.386 . S
C1000 C995 1.490 . S
C1000 C1002 1.395 . S
C1000 C1003 1.428 . S
H1001 C1007 0.930 . S
C1002 H988 0.930 . S
C1002 C1000 1.395 . S
C1002 C1005 1.403 1_565 S
C1003 C1000 1.428 . S
C1003 C1004 1.518 . S
C1003 C1007 1.380 1_565 S
C1004 H989 0.960 1_565 S
C1004 H990 0.960 . S
C1004 H991 0.960 . S
C1004 C1003 1.518 . S
C1005 C1002 1.403 1_545 S
C1005 C1006 1.392 . S
C1005 C1009 1.495 . S
C1006 C1005 1.392 . S
C1006 C1007 1.385 . S
C1006 C1008 1.478 . S
C1007 H1001 0.930 . S
C1007 C1003 1.380 1_545 S
C1007 C1006 1.385 . S
C1008 C1006 1.478 . S
C1008 C1010 1.381 . S
C1008 C1014 1.383 . S
C1009 C1005 1.495 . S
C1009 H1015 0.987 . S
C1009 H1016 0.961 . S
C1009 H1017 0.960 . S
C1010 C1008 1.381 . S
C1010 C1011 1.394 . S
C1010 H1018 0.930 . S
C1011 C1010 1.394 . S
C1011 C1012 1.383 . S
C1011 H1019 0.929 . S
C1012 C1011 1.383 . S
C1012 C1013 1.377 . S
C1013 H997 0.930 . S
C1013 C1012 1.377 . S
C1013 C1014 1.379 . S
C1014 H998 0.931 . S
C1014 C1008 1.383 . S
C1014 C1013 1.379 . S
H1015 C1009 0.987 . S
H1016 C1009 0.961 . S
H1017 C1009 0.960 . S
H1018 C1010 0.930 . S
H1019 C1011 0.929 . S
H1020 C1028 0.929 . S
H1021 C1030 0.930 . S
H1022 C1032 0.930 . S
H1023 C1035 0.929 . S
H1024 C1038 0.930 . S
H1025 C1040 0.960 . S
H1026 C1040 0.960 . S
H1027 C1040 0.960 . S
C1028 H1020 0.929 . S
C1028 C1029 1.377 . S
C1028 C1030 1.384 . S
C1029 C1028 1.377 . S
C1029 C1035 1.390 . S
C1030 H1021 0.930 . S
C1030 C1028 1.384 . S
C1030 C1031 1.372 . S
C1031 C1030 1.372 . S
C1031 C1032 1.400 . S
C1031 C1036 1.490 . S
C1032 H1022 0.930 . S
C1032 C1031 1.400 . S
C1032 C1035 1.386 . S
H1033 C1049 0.930 . S
H1034 C1050 0.931 . S
C1035 H1023 0.929 . S
C1035 C1029 1.390 . S
C1035 C1032 1.386 . S
C1036 C1031 1.490 . S
C1036 C1038 1.395 . S
C1036 C1039 1.403 . S
H1037 C1043 0.930 . S
C1038 H1024 0.930 . S
C1038 C1036 1.395 . S
C1038 C1041 1.403 . S
C1039 C1036 1.403 . S
C1039 C1040 1.524 . S
C1039 C1043 1.400 . S
C1040 H1025 0.960 . S
C1040 H1026 0.960 . S
C1040 H1027 0.960 . S
C1040 C1039 1.524 . S
C1041 C1038 1.403 . S
C1041 C1042 1.392 . S
C1041 C1045 1.495 . S
C1042 C1041 1.392 . S
C1042 C1043 1.385 . S
C1042 C1044 1.478 . S
C1043 H1037 0.930 . S
C1043 C1039 1.400 . S
C1043 C1042 1.385 . S
C1044 C1042 1.478 . S
C1044 C1046 1.381 . S
C1044 C1050 1.383 . S
C1045 C1041 1.495 . S
C1045 H1051 0.959 . S
C1045 H1052 0.961 . S
C1045 H1053 0.960 . S
C1046 C1044 1.381 . S
C1046 C1047 1.394 . S
C1046 H1054 0.930 . S
C1047 C1046 1.394 . S
C1047 C1048 1.383 . S
C1047 H1055 0.929 . S
C1048 C1047 1.383 . S
C1048 C1049 1.377 . S
C1049 H1033 0.930 . S
C1049 C1048 1.377 . S
C1049 C1050 1.379 . S
C1050 H1034 0.931 . S
C1050 C1044 1.383 . S
C1050 C1049 1.379 . S
H1051 C1045 0.959 . S
H1052 C1045 0.961 . S
H1053 C1045 0.960 . S
H1054 C1046 0.930 . S
H1055 C1047 0.929 . S
H1056 C1064 0.929 . S
H1057 C1066 0.930 . S
H1058 C1068 0.930 . S
H1059 C1071 0.929 . S
H1060 C1074 0.930 . S
H1061 C1076 0.960 . S
H1062 C1076 0.960 . S
H1063 C1076 0.960 . S
C1064 H1056 0.929 . S
C1064 C1065 1.377 . S
C1064 C1066 1.384 . S
C1065 C1064 1.377 . S
C1065 C1071 1.390 . S
C1066 H1057 0.930 . S
C1066 C1064 1.384 . S
C1066 C1067 1.372 . S
C1067 C1066 1.372 . S
C1067 C1068 1.400 . S
C1067 C1072 1.490 . S
C1068 H1058 0.930 . S
C1068 C1067 1.400 . S
C1068 C1071 1.386 . S
H1069 C1085 0.930 . S
H1070 C1086 0.931 . S
C1071 H1059 0.929 . S
C1071 C1065 1.390 . S
C1071 C1068 1.386 . S
C1072 C1067 1.490 . S
C1072 C1074 1.395 . S
C1072 C1075 1.403 . S
H1073 C1079 0.930 . S
C1074 H1060 0.930 . S
C1074 C1072 1.395 . S
C1074 C1077 1.403 1_455 S
C1075 C1072 1.403 . S
C1075 C1076 1.524 . S
C1075 C1079 1.400 1_455 S
C1076 H1061 0.960 . S
C1076 H1062 0.960 . S
C1076 H1063 0.960 . S
C1076 C1075 1.524 . S
C1077 C1074 1.403 1_655 S
C1077 C1078 1.392 . S
C1077 C1081 1.495 . S
C1078 C1077 1.392 . S
C1078 C1079 1.385 . S
C1078 C1080 1.478 . S
C1079 H1073 0.930 . S
C1079 C1075 1.400 1_655 S
C1079 C1078 1.385 . S
C1080 C1078 1.478 . S
C1080 C1082 1.381 . S
C1080 C1086 1.383 . S
C1081 C1077 1.495 . S
C1081 H1087 0.959 . S
C1081 H1088 0.961 . S
C1081 H1089 0.960 . S
C1082 C1080 1.381 . S
C1082 C1083 1.394 . S
C1082 H1090 0.930 . S
C1083 C1082 1.394 . S
C1083 C1084 1.383 . S
C1083 H1091 0.929 . S
C1084 C1083 1.383 . S
C1084 C1085 1.377 . S
C1085 H1069 0.930 . S
C1085 C1084 1.377 . S
C1085 C1086 1.379 . S
C1086 H1070 0.931 . S
C1086 C1080 1.383 . S
C1086 C1085 1.379 . S
H1087 C1081 0.959 . S
H1088 C1081 0.961 . S
H1089 C1081 0.960 . S
H1090 C1082 0.930 . S
H1091 C1083 0.929 . S
H1092 C1100 0.929 . S
H1093 C1102 0.930 . S
H1094 C1104 0.930 . S
H1095 C1107 0.929 . S
H1096 C1110 0.930 1_545 S
H1097 C1112 0.960 . S
H1098 C1112 0.960 . S
H1099 C1112 0.960 . S
C1100 H1092 0.929 . S
C1100 C1101 1.377 . S
C1100 C1102 1.384 . S
C1101 C1100 1.377 . S
C1101 C1107 1.390 . S
C1102 H1093 0.930 . S
C1102 C1100 1.384 . S
C1102 C1103 1.372 . S
C1103 C1102 1.372 . S
C1103 C1104 1.400 . S
C1103 C1108 1.490 . S
C1104 H1094 0.930 . S
C1104 C1103 1.400 . S
C1104 C1107 1.386 . S
H1105 C1121 0.930 . S
H1106 C1122 0.931 . S
C1107 H1095 0.929 . S
C1107 C1101 1.390 . S
C1107 C1104 1.386 . S
C1108 C1103 1.490 . S
C1108 C1110 1.395 1_545 S
C1108 C1111 1.403 . S
H1109 C1115 0.930 . S
C1110 H1096 0.930 1_565 S
C1110 C1108 1.395 1_565 S
C1110 C1113 1.403 . S
C1111 C1108 1.403 . S
C1111 C1112 1.524 . S
C1111 C1115 1.400 1_545 S
C1112 H1097 0.960 . S
C1112 H1098 0.960 . S
C1112 H1099 0.960 . S
C1112 C1111 1.524 . S
C1113 C1110 1.403 . S
C1113 C1114 1.392 . S
C1113 C1117 1.495 . S
C1114 C1113 1.392 . S
C1114 C1115 1.385 . S
C1114 C1116 1.478 . S
C1115 H1109 0.930 . S
C1115 C1111 1.400 1_565 S
C1115 C1114 1.385 . S
C1116 C1114 1.478 . S
C1116 C1118 1.381 . S
C1116 C1122 1.383 . S
C1117 C1113 1.495 . S
C1117 H1123 0.959 . S
C1117 H1124 0.961 . S
C1117 H1125 0.960 . S
C1118 C1116 1.381 . S
C1118 C1119 1.394 . S
C1118 H1126 0.930 . S
C1119 C1118 1.394 . S
C1119 C1120 1.383 . S
C1119 H1127 0.929 . S
C1120 C1119 1.383 . S
C1120 C1121 1.377 . S
C1121 H1105 0.930 . S
C1121 C1120 1.377 . S
C1121 C1122 1.379 . S
C1122 H1106 0.931 . S
C1122 C1116 1.383 . S
C1122 C1121 1.379 . S
H1123 C1117 0.959 . S
H1124 C1117 0.961 . S
H1125 C1117 0.960 . S
H1126 C1118 0.930 . S
H1127 C1119 0.929 . S
H1128 C1136 0.929 . S
H1129 C1138 0.930 . S
H1130 C1140 0.930 . S
H1131 C1143 0.929 . S
H1132 C1146 0.930 . S
H1133 C1148 0.960 . S
H1134 C1148 0.960 . S
H1135 C1148 0.960 . S
C1136 H1128 0.929 . S
C1136 C1137 1.377 . S
C1136 C1138 1.384 . S
C1137 C1136 1.377 . S
C1137 C1143 1.390 . S
C1138 H1129 0.930 . S
C1138 C1136 1.384 . S
C1138 C1139 1.372 . S
C1139 C1138 1.372 . S
C1139 C1140 1.400 . S
C1139 C1144 1.490 . S
C1140 H1130 0.930 . S
C1140 C1139 1.400 . S
C1140 C1143 1.386 . S
H1141 C1157 0.930 . S
H1142 C1158 0.931 . S
C1143 H1131 0.929 . S
C1143 C1137 1.390 . S
C1143 C1140 1.386 . S
C1144 C1139 1.490 . S
C1144 C1146 1.395 . S
C1144 C1147 1.403 . S
H1145 C1151 0.930 . S
C1146 H1132 0.930 . S
C1146 C1144 1.395 . S
C1146 C1149 1.403 . S
C1147 C1144 1.403 . S
C1147 C1148 1.524 . S
C1147 C1151 1.400 . S
C1148 H1133 0.960 . S
C1148 H1134 0.960 . S
C1148 H1135 0.960 . S
C1148 C1147 1.524 . S
C1149 C1146 1.403 . S
C1149 C1150 1.392 . S
C1149 C1153 1.495 . S
C1150 C1149 1.392 . S
C1150 C1151 1.385 . S
C1150 C1152 1.478 . S
C1151 H1145 0.930 . S
C1151 C1147 1.400 . S
C1151 C1150 1.385 . S
C1152 C1150 1.478 . S
C1152 C1154 1.381 . S
C1152 C1158 1.383 . S
C1153 C1149 1.495 . S
C1153 H1159 0.959 . S
C1153 H1160 0.961 . S
C1153 H1161 0.960 . S
C1154 C1152 1.381 . S
C1154 C1155 1.394 . S
C1154 H1162 0.930 . S
C1155 C1154 1.394 . S
C1155 C1156 1.383 . S
C1155 H1163 0.929 . S
C1156 C1155 1.383 . S
C1156 C1157 1.377 . S
C1157 H1141 0.930 . S
C1157 C1156 1.377 . S
C1157 C1158 1.379 . S
C1158 H1142 0.931 . S
C1158 C1152 1.383 . S
C1158 C1157 1.379 . S
H1159 C1153 0.959 . S
H1160 C1153 0.961 . S
H1161 C1153 0.960 . S
H1162 C1154 0.930 . S
H1163 C1155 0.929 . S
H1164 C1172 0.929 . S
H1165 C1174 0.930 . S
H1166 C1176 0.930 . S
H1167 C1179 0.929 . S
H1168 C1182 0.930 . S
H1169 C1184 0.960 . S
H1170 C1184 0.960 . S
H1171 C1184 0.960 . S
C1172 H1164 0.929 . S
C1172 C1173 1.377 . S
C1172 C1174 1.384 . S
C1173 C1172 1.377 . S
C1173 C1179 1.390 . S
C1174 H1165 0.930 . S
C1174 C1172 1.384 . S
C1174 C1175 1.372 . S
C1175 C1174 1.372 . S
C1175 C1176 1.400 . S
C1175 C1180 1.490 . S
C1176 H1166 0.930 . S
C1176 C1175 1.400 . S
C1176 C1179 1.386 . S
H1177 C1193 0.930 1_556 S
H1178 C1194 0.931 . S
C1179 H1167 0.929 . S
C1179 C1173 1.390 . S
C1179 C1176 1.386 . S
C1180 C1175 1.490 . S
C1180 C1182 1.395 . S
C1180 C1183 1.403 . S
H1181 C1187 0.930 . S
C1182 H1168 0.930 . S
C1182 C1180 1.395 . S
C1182 C1185 1.403 1_455 S
C1183 C1180 1.403 . S
C1183 C1184 1.524 . S
C1183 C1187 1.400 1_455 S
C1184 H1169 0.960 . S
C1184 H1170 0.960 . S
C1184 H1171 0.960 . S
C1184 C1183 1.524 . S
C1185 C1182 1.403 1_655 S
C1185 C1186 1.392 . S
C1185 C1189 1.495 . S
C1186 C1185 1.392 . S
C1186 C1187 1.385 . S
C1186 C1188 1.478 . S
C1187 H1181 0.930 . S
C1187 C1183 1.400 1_655 S
C1187 C1186 1.385 . S
C1188 C1186 1.478 . S
C1188 C1190 1.381 . S
C1188 C1194 1.383 . S
C1189 C1185 1.495 . S
C1189 H1195 0.959 1_655 S
C1189 H1196 0.961 . S
C1189 H1197 0.960 . S
C1190 C1188 1.381 . S
C1190 C1191 1.394 . S
C1190 H1198 0.930 . S
C1191 C1190 1.394 . S
C1191 C1192 1.383 . S
C1191 H1199 0.929 . S
C1192 C1191 1.383 . S
C1192 C1193 1.377 . S
C1193 H1177 0.930 1_554 S
C1193 C1192 1.377 . S
C1193 C1194 1.379 . S
C1194 H1178 0.931 . S
C1194 C1188 1.383 . S
C1194 C1193 1.379 . S
H1195 C1189 0.959 1_455 S
H1196 C1189 0.961 . S
H1197 C1189 0.960 . S
H1198 C1190 0.930 . S
H1199 C1191 0.929 . S
H1200 C1208 0.929 . S
H1201 C1210 0.930 . S
H1202 C1212 0.930 . S
H1203 C1215 0.929 . S
H1204 C1218 0.930 . S
H1205 C1220 0.960 . S
H1206 C1220 0.960 . S
H1207 C1220 0.960 . S
C1208 H1200 0.929 . S
C1208 C1209 1.377 . S
C1208 C1210 1.384 . S
C1209 C1208 1.377 . S
C1209 C1215 1.390 . S
C1210 H1201 0.930 . S
C1210 C1208 1.384 . S
C1210 C1211 1.372 . S
C1211 C1210 1.372 . S
C1211 C1212 1.400 . S
C1211 C1216 1.490 . S
C1212 H1202 0.930 . S
C1212 C1211 1.400 . S
C1212 C1215 1.386 . S
H1213 C1229 0.930 . S
H1214 C1230 0.931 . S
C1215 H1203 0.929 . S
C1215 C1209 1.390 . S
C1215 C1212 1.386 . S
C1216 C1211 1.490 . S
C1216 C1218 1.395 . S
C1216 C1219 1.403 . S
H1217 C1223 0.930 . S
C1218 H1204 0.930 . S
C1218 C1216 1.395 . S
C1218 C1221 1.403 1_545 S
C1219 C1216 1.403 . S
C1219 C1220 1.524 . S
C1219 C1223 1.400 1_545 S
C1220 H1205 0.960 . S
C1220 H1206 0.960 . S
C1220 H1207 0.960 . S
C1220 C1219 1.524 . S
C1221 C1218 1.403 1_565 S
C1221 C1222 1.392 . S
C1221 C1225 1.495 . S
C1222 C1221 1.392 . S
C1222 C1223 1.385 . S
C1222 C1224 1.478 . S
C1223 H1217 0.930 . S
C1223 C1219 1.400 1_565 S
C1223 C1222 1.385 . S
C1224 C1222 1.478 . S
C1224 C1226 1.381 . S
C1224 C1230 1.383 . S
C1225 C1221 1.495 . S
C1225 H1231 0.959 . S
C1225 H1232 0.961 . S
C1225 H1233 0.960 . S
C1226 C1224 1.381 . S
C1226 C1227 1.394 . S
C1226 H1234 0.930 . S
C1227 C1226 1.394 . S
C1227 C1228 1.383 . S
C1227 H1235 0.929 . S
C1228 C1227 1.383 . S
C1228 C1229 1.377 . S
C1229 H1213 0.930 . S
C1229 C1228 1.377 . S
C1229 C1230 1.379 . S
C1230 H1214 0.931 . S
C1230 C1224 1.383 . S
C1230 C1229 1.379 . S
H1231 C1225 0.959 . S
H1232 C1225 0.961 . S
H1233 C1225 0.960 . S
H1234 C1226 0.930 . S
H1235 C1227 0.929 . S
H1236 C1244 0.929 . S
H1237 C1246 0.930 . S
H1238 C1248 0.930 . S
H1239 C1251 0.929 . S
H1240 C1254 0.930 . S
H1241 C1256 0.960 . S
H1242 C1256 0.960 . S
H1243 C1256 0.960 . S
C1244 H1236 0.929 . S
C1244 C1245 1.377 . S
C1244 C1246 1.384 . S
C1245 C1244 1.377 . S
C1245 C1251 1.390 . S
C1246 H1237 0.930 . S
C1246 C1244 1.384 . S
C1246 C1247 1.372 . S
C1247 C1246 1.372 . S
C1247 C1248 1.400 . S
C1247 C1252 1.490 . S
C1248 H1238 0.930 . S
C1248 C1247 1.400 . S
C1248 C1251 1.386 . S
H1249 C1265 0.930 . S
H1250 C1266 0.931 . S
C1251 H1239 0.929 . S
C1251 C1245 1.390 . S
C1251 C1248 1.386 . S
C1252 C1247 1.490 . S
C1252 C1254 1.395 . S
C1252 C1255 1.403 . S
H1253 C1259 0.930 . S
C1254 H1240 0.930 . S
C1254 C1252 1.395 . S
C1254 C1257 1.403 . S
C1255 C1252 1.403 . S
C1255 C1256 1.524 . S
C1255 C1259 1.400 . S
C1256 H1241 0.960 . S
C1256 H1242 0.960 . S
C1256 H1243 0.960 . S
C1256 C1255 1.524 . S
C1257 C1254 1.403 . S
C1257 C1258 1.392 . S
C1257 C1261 1.495 . S
C1258 C1257 1.392 . S
C1258 C1259 1.385 . S
C1258 C1260 1.478 . S
C1259 H1253 0.930 . S
C1259 C1255 1.400 . S
C1259 C1258 1.385 . S
C1260 C1258 1.478 . S
C1260 C1262 1.381 . S
C1260 C1266 1.383 . S
C1261 C1257 1.495 . S
C1261 H1267 0.959 . S
C1261 H1268 0.961 . S
C1261 H1269 0.960 . S
C1262 C1260 1.381 . S
C1262 C1263 1.394 . S
C1262 H1270 0.930 . S
C1263 C1262 1.394 . S
C1263 C1264 1.383 . S
C1263 H1271 0.929 . S
C1264 C1263 1.383 . S
C1264 C1265 1.377 . S
C1265 H1249 0.930 . S
C1265 C1264 1.377 . S
C1265 C1266 1.379 . S
C1266 H1250 0.931 . S
C1266 C1260 1.383 . S
C1266 C1265 1.379 . S
H1267 C1261 0.959 . S
H1268 C1261 0.961 . S
H1269 C1261 0.960 . S
H1270 C1262 0.930 . S
H1271 C1263 0.929 . S
H1272 C1280 0.929 . S
H1273 C1282 0.930 . S
H1274 C1284 0.930 . S
H1275 C1287 0.929 . S
H1276 C1290 0.930 . S
H1277 C1292 0.960 . S
H1278 C1292 0.960 1_455 S
H1279 C1292 0.960 1_455 S
C1280 H1272 0.929 . S
C1280 C1281 1.377 . S
C1280 C1282 1.384 . S
C1281 C1280 1.377 . S
C1281 C1287 1.390 . S
C1282 H1273 0.930 . S
C1282 C1280 1.384 . S
C1282 C1283 1.372 . S
C1283 C1282 1.372 . S
C1283 C1284 1.400 . S
C1283 C1288 1.490 . S
C1284 H1274 0.930 . S
C1284 C1283 1.400 . S
C1284 C1287 1.386 . S
H1285 C1301 0.930 . S
H1286 C1302 0.931 . S
C1287 H1275 0.929 . S
C1287 C1281 1.390 . S
C1287 C1284 1.386 . S
C1288 C1283 1.490 . S
C1288 C1290 1.395 . S
C1288 C1291 1.403 1_455 S
H1289 C1295 0.930 . S
C1290 H1276 0.930 . S
C1290 C1288 1.395 . S
C1290 C1293 1.403 1_455 S
C1291 C1288 1.403 1_655 S
C1291 C1292 1.524 . S
C1291 C1295 1.400 . S
C1292 H1277 0.960 . S
C1292 H1278 0.960 1_655 S
C1292 H1279 0.960 1_655 S
C1292 C1291 1.524 . S
C1293 C1290 1.403 1_655 S
C1293 C1294 1.392 . S
C1293 C1297 1.495 . S
C1294 C1293 1.392 . S
C1294 C1295 1.385 . S
C1294 C1296 1.478 . S
C1295 H1289 0.930 . S
C1295 C1291 1.400 . S
C1295 C1294 1.385 . S
C1296 C1294 1.478 . S
C1296 C1298 1.381 . S
C1296 C1302 1.383 . S
C1297 C1293 1.495 . S
C1297 H1303 0.959 1_655 S
C1297 H1304 0.961 . S
C1297 H1305 0.960 . S
C1298 C1296 1.381 . S
C1298 C1299 1.394 . S
C1298 H1306 0.930 . S
C1299 C1298 1.394 . S
C1299 C1300 1.383 . S
C1299 H1307 0.929 . S
C1300 C1299 1.383 . S
C1300 C1301 1.377 . S
C1301 H1285 0.930 . S
C1301 C1300 1.377 . S
C1301 C1302 1.379 . S
C1302 H1286 0.931 . S
C1302 C1296 1.383 . S
C1302 C1301 1.379 . S
H1303 C1297 0.959 1_455 S
H1304 C1297 0.961 . S
H1305 C1297 0.960 . S
H1306 C1298 0.930 . S
H1307 C1299 0.929 . S
H1308 C1316 0.929 . S
H1309 C1318 0.930 . S
H1310 C1320 0.930 . S
H1311 C1323 0.929 . S
H1312 C1326 0.930 . S
H1313 C1328 0.960 1_565 S
H1314 C1328 0.960 . S
H1315 C1328 0.960 . S
C1316 H1308 0.929 . S
C1316 C1317 1.377 . S
C1316 C1318 1.384 . S
C1317 C1316 1.377 . S
C1317 C1323 1.390 . S
C1318 H1309 0.930 . S
C1318 C1316 1.384 . S
C1318 C1319 1.372 . S
C1319 C1318 1.372 . S
C1319 C1320 1.400 . S
C1319 C1324 1.490 . S
C1320 H1310 0.930 . S
C1320 C1319 1.400 . S
C1320 C1323 1.386 . S
H1321 C1337 0.930 . S
H1322 C1338 0.931 . S
C1323 H1311 0.929 . S
C1323 C1317 1.390 . S
C1323 C1320 1.386 . S
C1324 C1319 1.490 . S
C1324 C1326 1.395 . S
C1324 C1327 1.403 . S
H1325 C1331 0.930 . S
C1326 H1312 0.930 . S
C1326 C1324 1.395 . S
C1326 C1329 1.403 1_545 S
C1327 C1324 1.403 . S
C1327 C1328 1.524 . S
C1327 C1331 1.400 1_545 S
C1328 H1313 0.960 1_545 S
C1328 H1314 0.960 . S
C1328 H1315 0.960 . S
C1328 C1327 1.524 . S
C1329 C1326 1.403 1_565 S
C1329 C1330 1.392 . S
C1329 C1333 1.495 . S
C1330 C1329 1.392 . S
C1330 C1331 1.385 . S
C1330 C1332 1.478 . S
C1331 H1325 0.930 . S
C1331 C1327 1.400 1_565 S
C1331 C1330 1.385 . S
C1332 C1330 1.478 . S
C1332 C1334 1.381 . S
C1332 C1338 1.383 . S
C1333 C1329 1.495 . S
C1333 H1339 0.959 . S
C1333 H1340 0.961 . S
C1333 H1341 0.960 . S
C1334 C1332 1.381 . S
C1334 C1335 1.394 . S
C1334 H1342 0.930 . S
C1335 C1334 1.394 . S
C1335 C1336 1.383 . S
C1335 H1343 0.929 . S
C1336 C1335 1.383 . S
C1336 C1337 1.377 . S
C1337 H1321 0.930 . S
C1337 C1336 1.377 . S
C1337 C1338 1.379 . S
C1338 H1322 0.931 . S
C1338 C1332 1.383 . S
C1338 C1337 1.379 . S
H1339 C1333 0.959 . S
H1340 C1333 0.961 . S
H1341 C1333 0.960 . S
H1342 C1334 0.930 . S
H1343 C1335 0.929 . S
H1344 C1352 0.929 . S
H1345 C1354 0.930 . S
H1346 C1356 0.930 . S
H1347 C1359 0.929 . S
H1348 C1362 0.930 . S
H1349 C1364 0.960 . S
H1350 C1364 0.960 . S
H1351 C1364 0.960 . S
C1352 H1344 0.929 . S
C1352 C1353 1.377 . S
C1352 C1354 1.384 . S
C1353 C1352 1.377 . S
C1353 C1359 1.390 . S
C1354 H1345 0.930 . S
C1354 C1352 1.384 . S
C1354 C1355 1.372 . S
C1355 C1354 1.372 . S
C1355 C1356 1.400 . S
C1355 C1360 1.490 . S
C1356 H1346 0.930 . S
C1356 C1355 1.400 . S
C1356 C1359 1.386 . S
H1357 C1373 0.930 . S
H1358 C1374 0.931 . S
C1359 H1347 0.929 . S
C1359 C1353 1.390 . S
C1359 C1356 1.386 . S
C1360 C1355 1.490 . S
C1360 C1362 1.395 . S
C1360 C1363 1.403 . S
H1361 C1367 0.930 . S
C1362 H1348 0.930 . S
C1362 C1360 1.395 . S
C1362 C1365 1.403 . S
C1363 C1360 1.403 . S
C1363 C1364 1.524 . S
C1363 C1367 1.400 . S
C1364 H1349 0.960 . S
C1364 H1350 0.960 . S
C1364 H1351 0.960 . S
C1364 C1363 1.524 . S
C1365 C1362 1.403 . S
C1365 C1366 1.392 . S
C1365 C1369 1.495 . S
C1366 C1365 1.392 . S
C1366 C1367 1.385 . S
C1366 C1368 1.478 . S
C1367 H1361 0.930 . S
C1367 C1363 1.400 . S
C1367 C1366 1.385 . S
C1368 C1366 1.478 . S
C1368 C1370 1.381 . S
C1368 C1374 1.383 . S
C1369 C1365 1.495 . S
C1369 H1375 0.959 . S
C1369 H1376 0.961 . S
C1369 H1377 0.960 . S
C1370 C1368 1.381 . S
C1370 C1371 1.394 . S
C1370 H1378 0.930 . S
C1371 C1370 1.394 . S
C1371 C1372 1.383 . S
C1371 H1379 0.929 . S
C1372 C1371 1.383 . S
C1372 C1373 1.377 . S
C1373 H1357 0.930 . S
C1373 C1372 1.377 . S
C1373 C1374 1.379 . S
C1374 H1358 0.931 . S
C1374 C1368 1.383 . S
C1374 C1373 1.379 . S
H1375 C1369 0.959 . S
H1376 C1369 0.961 . S
H1377 C1369 0.960 . S
H1378 C1370 0.930 . S
H1379 C1371 0.929 . S
H1380 C1388 0.929 . S
H1381 C1390 0.930 . S
H1382 C1392 0.930 . S
H1383 C1395 0.929 . S
H1384 C1398 0.930 . S
H1385 C1400 0.960 . S
H1386 C1400 0.960 . S
H1387 C1400 0.960 . S
C1388 H1380 0.929 . S
C1388 C1389 1.377 . S
C1388 C1390 1.384 . S
C1389 C1388 1.377 . S
C1389 C1395 1.390 . S
C1390 H1381 0.930 . S
C1390 C1388 1.384 . S
C1390 C1391 1.372 . S
C1391 C1390 1.372 . S
C1391 C1392 1.400 . S
C1391 C1396 1.490 . S
C1392 H1382 0.930 . S
C1392 C1391 1.400 . S
C1392 C1395 1.386 . S
H1393 C1409 0.930 . S
H1394 C1410 0.931 . S
C1395 H1383 0.929 . S
C1395 C1389 1.390 . S
C1395 C1392 1.386 . S
C1396 C1391 1.490 . S
C1396 C1398 1.395 . S
C1396 C1399 1.403 . S
H1397 C1403 0.930 . S
C1398 H1384 0.930 . S
C1398 C1396 1.395 . S
C1398 C1401 1.403 . S
C1399 C1396 1.403 . S
C1399 C1400 1.524 . S
C1399 C1403 1.400 . S
C1400 H1385 0.960 . S
C1400 H1386 0.960 . S
C1400 H1387 0.960 . S
C1400 C1399 1.524 . S
C1401 C1398 1.403 . S
C1401 C1402 1.392 . S
C1401 C1405 1.495 . S
C1402 C1401 1.392 . S
C1402 C1403 1.385 . S
C1402 C1404 1.478 . S
C1403 H1397 0.930 . S
C1403 C1399 1.400 . S
C1403 C1402 1.385 . S
C1404 C1402 1.478 . S
C1404 C1406 1.381 . S
C1404 C1410 1.383 . S
C1405 C1401 1.495 . S
C1405 H1411 0.959 . S
C1405 H1412 0.961 . S
C1405 H1413 0.960 . S
C1406 C1404 1.381 . S
C1406 C1407 1.394 . S
C1406 H1414 0.930 . S
C1407 C1406 1.394 . S
C1407 C1408 1.383 . S
C1407 H1415 0.929 . S
C1408 C1407 1.383 . S
C1408 C1409 1.377 . S
C1409 H1393 0.930 . S
C1409 C1408 1.377 . S
C1409 C1410 1.379 . S
C1410 H1394 0.931 . S
C1410 C1404 1.383 . S
C1410 C1409 1.379 . S
H1411 C1405 0.959 . S
H1412 C1405 0.961 . S
H1413 C1405 0.960 . S
H1414 C1406 0.930 . S
H1415 C1407 0.929 . S
H1416 C1424 0.929 . S
H1417 C1426 0.930 . S
H1418 C1428 0.930 . S
H1419 C1431 0.929 . S
H1420 C1434 0.930 . S
H1421 C1436 0.960 . S
H1422 C1436 0.960 . S
H1423 C1436 0.960 . S
C1424 H1416 0.929 . S
C1424 C1425 1.377 . S
C1424 C1426 1.384 . S
C1425 C1424 1.377 . S
C1425 C1431 1.390 . S
C1426 H1417 0.930 . S
C1426 C1424 1.384 . S
C1426 C1427 1.372 . S
C1427 C1426 1.372 . S
C1427 C1428 1.400 . S
C1427 C1432 1.490 . S
C1428 H1418 0.930 . S
C1428 C1427 1.400 . S
C1428 C1431 1.386 . S
H1429 C1445 0.930 . S
H1430 C1446 0.931 . S
C1431 H1419 0.929 . S
C1431 C1425 1.390 . S
C1431 C1428 1.386 . S
C1432 C1427 1.490 . S
C1432 C1434 1.395 . S
C1432 C1435 1.403 . S
H1433 C1439 0.930 . S
C1434 H1420 0.930 . S
C1434 C1432 1.395 . S
C1434 C1437 1.403 . S
C1435 C1432 1.403 . S
C1435 C1436 1.524 . S
C1435 C1439 1.400 . S
C1436 H1421 0.960 . S
C1436 H1422 0.960 . S
C1436 H1423 0.960 . S
C1436 C1435 1.524 . S
C1437 C1434 1.403 . S
C1437 C1438 1.392 . S
C1437 C1441 1.495 . S
C1438 C1437 1.392 . S
C1438 C1439 1.385 . S
C1438 C1440 1.478 . S
C1439 H1433 0.930 . S
C1439 C1435 1.400 . S
C1439 C1438 1.385 . S
C1440 C1438 1.478 . S
C1440 C1442 1.381 . S
C1440 C1446 1.383 . S
C1441 C1437 1.495 . S
C1441 H1447 0.959 . S
C1441 H1448 0.961 . S
C1441 H1449 0.960 . S
C1442 C1440 1.381 . S
C1442 C1443 1.394 . S
C1442 H1450 0.930 . S
C1443 C1442 1.394 . S
C1443 C1444 1.383 . S
C1443 H1451 0.929 . S
C1444 C1443 1.383 . S
C1444 C1445 1.377 . S
C1445 H1429 0.930 . S
C1445 C1444 1.377 . S
C1445 C1446 1.379 . S
C1446 H1430 0.931 . S
C1446 C1440 1.383 . S
C1446 C1445 1.379 . S
H1447 C1441 0.959 . S
H1448 C1441 0.961 . S
H1449 C1441 0.960 . S
H1450 C1442 0.930 . S
H1451 C1443 0.929 . S
H1452 C1460 0.929 . S
H1453 C1462 0.930 . S
H1454 C1464 0.930 . S
H1455 C1467 0.929 . S
H1456 C1470 0.930 . S
H1457 C1472 0.960 . S
H1458 C1472 0.960 . S
H1459 C1472 0.960 . S
C1460 H1452 0.929 . S
C1460 C1461 1.377 . S
C1460 C1462 1.384 . S
C1461 C1460 1.377 . S
C1461 C1467 1.390 . S
C1462 H1453 0.930 . S
C1462 C1460 1.384 . S
C1462 C1463 1.372 . S
C1463 C1462 1.372 . S
C1463 C1464 1.400 . S
C1463 C1468 1.490 . S
C1464 H1454 0.930 . S
C1464 C1463 1.400 . S
C1464 C1467 1.386 . S
H1465 C1481 0.930 . S
H1466 C1482 0.931 . S
C1467 H1455 0.929 . S
C1467 C1461 1.390 . S
C1467 C1464 1.386 . S
C1468 C1463 1.490 . S
C1468 C1470 1.395 . S
C1468 C1471 1.403 . S
H1469 C1475 0.930 . S
C1470 H1456 0.930 . S
C1470 C1468 1.395 . S
C1470 C1473 1.403 . S
C1471 C1468 1.403 . S
C1471 C1472 1.524 . S
C1471 C1475 1.400 . S
C1472 H1457 0.960 . S
C1472 H1458 0.960 . S
C1472 H1459 0.960 . S
C1472 C1471 1.524 . S
C1473 C1470 1.403 . S
C1473 C1474 1.392 . S
C1473 C1477 1.495 . S
C1474 C1473 1.392 . S
C1474 C1475 1.385 . S
C1474 C1476 1.478 . S
C1475 H1469 0.930 . S
C1475 C1471 1.400 . S
C1475 C1474 1.385 . S
C1476 C1474 1.478 . S
C1476 C1478 1.381 . S
C1476 C1482 1.383 . S
C1477 C1473 1.495 . S
C1477 H1483 0.959 . S
C1477 H1484 0.961 . S
C1477 H1485 0.960 . S
C1478 C1476 1.381 . S
C1478 C1479 1.394 . S
C1478 H1486 0.930 . S
C1479 C1478 1.394 . S
C1479 C1480 1.383 . S
C1479 H1487 0.929 . S
C1480 C1479 1.383 . S
C1480 C1481 1.377 . S
C1481 H1465 0.930 . S
C1481 C1480 1.377 . S
C1481 C1482 1.379 . S
C1482 H1466 0.931 . S
C1482 C1476 1.383 . S
C1482 C1481 1.379 . S
H1483 C1477 0.959 . S
H1484 C1477 0.961 . S
H1485 C1477 0.960 . S
H1486 C1478 0.930 . S
H1487 C1479 0.929 . S
H1488 C1496 0.929 . S
H1489 C1498 0.930 . S
H1490 C1500 0.930 . S
H1491 C1503 0.929 . S
H1492 C1506 0.930 . S
H1493 C1508 0.960 . S
H1494 C1508 0.960 . S
H1495 C1508 0.960 . S
C1496 H1488 0.929 . S
C1496 C1497 1.377 . S
C1496 C1498 1.384 . S
C1497 C1496 1.377 . S
C1497 C1503 1.390 . S
C1498 H1489 0.930 . S
C1498 C1496 1.384 . S
C1498 C1499 1.372 . S
C1499 C1498 1.372 . S
C1499 C1500 1.400 . S
C1499 C1504 1.490 . S
C1500 H1490 0.930 . S
C1500 C1499 1.400 . S
C1500 C1503 1.386 . S
H1501 C1517 0.930 . S
H1502 C1518 0.947 . S
C1503 H1491 0.929 . S
C1503 C1497 1.390 . S
C1503 C1500 1.386 . S
C1504 C1499 1.490 . S
C1504 C1506 1.395 . S
C1504 C1507 1.403 . S
H1505 C1511 0.930 . S
C1506 H1492 0.930 . S
C1506 C1504 1.395 . S
C1506 C1509 1.403 . S
C1507 C1504 1.403 . S
C1507 C1508 1.524 . S
C1507 C1511 1.400 . S
C1508 H1493 0.960 . S
C1508 H1494 0.960 . S
C1508 H1495 0.960 . S
C1508 C1507 1.524 . S
C1509 C1506 1.403 . S
C1509 C1510 1.392 . S
C1509 C1513 1.495 . S
C1510 C1509 1.392 . S
C1510 C1511 1.385 . S
C1510 C1512 1.478 . S
C1511 H1505 0.930 . S
C1511 C1507 1.400 . S
C1511 C1510 1.385 . S
C1512 C1510 1.478 . S
C1512 C1514 1.379 1_556 S
C1512 C1518 1.398 . S
C1513 C1509 1.495 . S
C1513 H1519 0.959 . S
C1513 H1520 0.961 . S
C1513 H1521 0.960 . S
C1514 C1512 1.379 1_554 S
C1514 C1515 1.398 . S
C1514 H1522 0.928 1_554 S
C1515 C1514 1.398 . S
C1515 C1516 1.383 . S
C1515 H1523 0.929 . S
C1516 C1515 1.383 . S
C1516 C1517 1.377 . S
C1517 H1501 0.930 . S
C1517 C1516 1.377 . S
C1517 C1518 1.349 1_554 S
C1518 H1502 0.947 . S
C1518 C1512 1.398 . S
C1518 C1517 1.349 1_556 S
H1519 C1513 0.959 . S
H1520 C1513 0.961 . S
H1521 C1513 0.960 . S
H1522 C1514 0.928 1_556 S
H1523 C1515 0.929 . S
H1524 C1532 0.929 . S
H1525 C1534 0.930 . S
H1526 C1536 0.942 . S
H1527 C1539 0.929 . S
H1528 C1542 0.930 . S
H1529 C1544 0.960 . S
H1530 C1544 0.960 . S
H1531 C1544 0.960 . S
C1532 H1524 0.929 . S
C1532 C1533 1.377 . S
C1532 C1534 1.384 1_556 S
C1533 C1532 1.377 . S
C1533 C1539 1.390 . S
C1534 H1525 0.930 . S
C1534 C1532 1.384 1_554 S
C1534 C1535 1.372 . S
C1535 C1534 1.372 . S
C1535 C1536 1.413 . S
C1535 C1540 1.490 . S
C1536 H1526 0.942 . S
C1536 C1535 1.413 . S
C1536 C1539 1.360 1_554 S
H1537 C1553 0.930 . S
H1538 C1554 0.931 . S
C1539 H1527 0.929 . S
C1539 C1533 1.390 . S
C1539 C1536 1.360 1_556 S
C1540 C1535 1.490 . S
C1540 C1542 1.395 . S
C1540 C1543 1.403 . S
H1541 C1547 0.930 . S
C1542 H1528 0.930 . S
C1542 C1540 1.395 . S
C1542 C1545 1.403 . S
C1543 C1540 1.403 . S
C1543 C1544 1.524 . S
C1543 C1547 1.400 . S
C1544 H1529 0.960 . S
C1544 H1530 0.960 . S
C1544 H1531 0.960 . S
C1544 C1543 1.524 . S
C1545 C1542 1.403 . S
C1545 C1546 1.392 . S
C1545 C1549 1.495 . S
C1546 C1545 1.392 . S
C1546 C1547 1.385 . S
C1546 C1548 1.478 . S
C1547 H1541 0.930 . S
C1547 C1543 1.400 . S
C1547 C1546 1.385 . S
C1548 C1546 1.478 . S
C1548 C1550 1.381 . S
C1548 C1554 1.383 . S
C1549 C1545 1.495 . S
C1549 H1555 0.959 . S
C1549 H1556 0.961 . S
C1549 H1557 0.960 . S
C1550 C1548 1.381 . S
C1550 C1551 1.394 . S
C1550 H1558 0.930 . S
C1551 C1550 1.394 . S
C1551 C1552 1.383 . S
C1551 H1559 0.929 . S
C1552 C1551 1.383 . S
C1552 C1553 1.377 . S
C1553 H1537 0.930 . S
C1553 C1552 1.377 . S
C1553 C1554 1.379 . S
C1554 H1538 0.931 . S
C1554 C1548 1.383 . S
C1554 C1553 1.379 . S
H1555 C1549 0.959 . S
H1556 C1549 0.961 . S
H1557 C1549 0.960 . S
H1558 C1550 0.930 . S
H1559 C1551 0.929 . S
C273 C15 1.497 . S
C292 C183 1.508 . S
C309 C213 1.498 . S
C328 C43 1.497 . S
C345 C235 1.494 . S
C364 C59 1.476 . S
C381 C81 1.496 . S
C400 C249 1.509 . S
C417 C153 1.490 . S
C436 C103 1.485 . S
C453 C169 1.490 . S
C472 C125 1.488 . S
C489 C18 0.725 . S
C508 C216 0.756 . S
C525 C32 0.715 . S
C544 C238 0.723 . S
C561 C250 0.718 . S
C580 C62 0.739 . S
C597 C142 0.706 . S
C616 C84 0.672 . S
C633 C106 0.707 . S
C652 C172 0.676 . S
C669 C128 0.711 . S
C688 C184 0.687 . S
C705 C140 1.378 . S
C724 C10 1.375 . S
C741 C164 1.380 . S
C760 C30 1.362 . S
C777 C194 1.378 . S
C796 C54 1.370 . S
C813 C76 1.376 . S
C832 C208 1.380 . S
C849 C98 1.378 . S
C868 C230 1.364 . S
C885 C120 1.375 . S
C904 C260 1.379 . S
C921 C8 1.264 . S
C940 C131 1.309 . S
C957 C40 1.273 . S
C976 C21 1.324 . S
C993 C52 1.264 . S
C1012 C29 1.310 . S
C1029 C65 1.301 . S
C1048 C74 1.268 . S
C1065 C96 1.260 . S
C1084 C87 1.283 . S
C1101 C118 1.265 . S
C1120 C109 1.281 . S
C1137 C175 1.308 . S
C1156 C150 1.265 . S
C1173 C191 1.309 . S
C1192 C162 1.277 . S
C1209 C219 1.305 . S
C1228 C186 1.293 . S
C1245 C206 1.272 . S
C1264 C241 1.324 . S
C1281 C228 1.272 . S
C1300 C257 1.324 . S
C1317 C252 1.275 . S
C1336 C139 1.316 . S
C1353 C227 0.437 . S
C1372 C7 0.495 . S
C1389 C263 0.419 . S
C1408 C37 0.454 . S
C1425 C147 0.440 . S
C1444 C51 0.490 . S
C1461 C161 0.433 . S
C1480 C73 0.496 . S
C1497 C95 0.440 . S
C1516 C197 0.489 . S
C1533 C117 0.436 . S
C1552 C205 0.496 . S
