# Generated by pormake.
# Topology uot, (4)-cn, num edge types: 1
# Building blocks:
#     Node 0, Type 0, BuildingBlock: QUQFOY_clean_sbu_3, # of connection points: 4
#     Node 1, Type 0, BuildingBlock: QUQFOY_clean_sbu_3, # of connection points: 4
#     Node 2, Type 0, BuildingBlock: QUQFOY_clean_sbu_3, # of connection points: 4
#     Node 3, Type 0, BuildingBlock: QUQFOY_clean_sbu_3, # of connection points: 4
#     Node 4, Type 0, BuildingBlock: QUQFOY_clean_sbu_3, # of connection points: 4
#     Node 5, Type 0, BuildingBlock: QUQFOY_clean_sbu_3, # of connection points: 4
#     Node 6, Type 0, BuildingBlock: QUQFOY_clean_sbu_3, # of connection points: 4
#     Node 7, Type 0, BuildingBlock: QUQFOY_clean_sbu_3, # of connection points: 4
#     Node 8, Type 0, BuildingBlock: QUQFOY_clean_sbu_3, # of connection points: 4
#     Node 9, Type 0, BuildingBlock: QUQFOY_clean_sbu_3, # of connection points: 4
#     Node 10, Type 0, BuildingBlock: QUQFOY_clean_sbu_3, # of connection points: 4
#     Node 11, Type 0, BuildingBlock: QUQFOY_clean_sbu_3, # of connection points: 4
#     Node 12, Type 0, BuildingBlock: QUQFOY_clean_sbu_3, # of connection points: 4
#     Node 13, Type 0, BuildingBlock: QUQFOY_clean_sbu_3, # of connection points: 4
#     Node 14, Type 0, BuildingBlock: QUQFOY_clean_sbu_3, # of connection points: 4
#     Node 15, Type 0, BuildingBlock: QUQFOY_clean_sbu_3, # of connection points: 4
#     Edge 16, Type (0, 0), BuildingBlock: ZUJKAS_clean_linker_0, # of connection points: 2
#     Edge 17, Type (0, 0), BuildingBlock: ZUJKAS_clean_linker_0, # of connection points: 2
#     Edge 18, Type (0, 0), BuildingBlock: ZUJKAS_clean_linker_0, # of connection points: 2
#     Edge 19, Type (0, 0), BuildingBlock: ZUJKAS_clean_linker_0, # of connection points: 2
#     Edge 20, Type (0, 0), BuildingBlock: ZUJKAS_clean_linker_0, # of connection points: 2
#     Edge 21, Type (0, 0), BuildingBlock: ZUJKAS_clean_linker_0, # of connection points: 2
#     Edge 22, Type (0, 0), BuildingBlock: ZUJKAS_clean_linker_0, # of connection points: 2
#     Edge 23, Type (0, 0), BuildingBlock: ZUJKAS_clean_linker_0, # of connection points: 2
#     Edge 24, Type (0, 0), BuildingBlock: ZUJKAS_clean_linker_0, # of connection points: 2
#     Edge 25, Type (0, 0), BuildingBlock: ZUJKAS_clean_linker_0, # of connection points: 2
#     Edge 26, Type (0, 0), BuildingBlock: ZUJKAS_clean_linker_0, # of connection points: 2
#     Edge 27, Type (0, 0), BuildingBlock: ZUJKAS_clean_linker_0, # of connection points: 2
#     Edge 28, Type (0, 0), BuildingBlock: ZUJKAS_clean_linker_0, # of connection points: 2
#     Edge 29, Type (0, 0), BuildingBlock: ZUJKAS_clean_linker_0, # of connection points: 2
#     Edge 30, Type (0, 0), BuildingBlock: ZUJKAS_clean_linker_0, # of connection points: 2
#     Edge 31, Type (0, 0), BuildingBlock: ZUJKAS_clean_linker_0, # of connection points: 2
#     Edge 32, Type (0, 0), BuildingBlock: ZUJKAS_clean_linker_0, # of connection points: 2
#     Edge 33, Type (0, 0), BuildingBlock: ZUJKAS_clean_linker_0, # of connection points: 2
#     Edge 34, Type (0, 0), BuildingBlock: ZUJKAS_clean_linker_0, # of connection points: 2
#     Edge 35, Type (0, 0), BuildingBlock: ZUJKAS_clean_linker_0, # of connection points: 2
#     Edge 36, Type (0, 0), BuildingBlock: ZUJKAS_clean_linker_0, # of connection points: 2
#     Edge 37, Type (0, 0), BuildingBlock: ZUJKAS_clean_linker_0, # of connection points: 2
#     Edge 38, Type (0, 0), BuildingBlock: ZUJKAS_clean_linker_0, # of connection points: 2
#     Edge 39, Type (0, 0), BuildingBlock: ZUJKAS_clean_linker_0, # of connection points: 2
#     Edge 40, Type (0, 0), BuildingBlock: ZUJKAS_clean_linker_0, # of connection points: 2
#     Edge 41, Type (0, 0), BuildingBlock: ZUJKAS_clean_linker_0, # of connection points: 2
#     Edge 42, Type (0, 0), BuildingBlock: ZUJKAS_clean_linker_0, # of connection points: 2
#     Edge 43, Type (0, 0), BuildingBlock: ZUJKAS_clean_linker_0, # of connection points: 2
#     Edge 44, Type (0, 0), BuildingBlock: ZUJKAS_clean_linker_0, # of connection points: 2
#     Edge 45, Type (0, 0), BuildingBlock: ZUJKAS_clean_linker_0, # of connection points: 2
#     Edge 46, Type (0, 0), BuildingBlock: ZUJKAS_clean_linker_0, # of connection points: 2
#     Edge 47, Type (0, 0), BuildingBlock: ZUJKAS_clean_linker_0, # of connection points: 2
# Relax obj value: 0.066
# Max RMSD: 0.085
# Mean RMSD: 0.085
data_MOF--net-uot--node1-QUQFOY_clean_sbu_3--edge1-ZUJKAS_clean_linker_0
_symmetry_space_group_name_H-M    P1
_symmetry_Int_Tables_number       1
_symmetry_cell_setting            triclinic
loop_
_symmetry_equiv_pos_as_xyz
'x, y, z'
_cell_length_a     59.936344
_cell_length_b     60.126722
_cell_length_c     53.766668
_cell_angle_alpha  89.864134
_cell_angle_beta   90.02235
_cell_angle_gamma 89.954258
loop_
_atom_site_label
_atom_site_type_symbol
_atom_site_fract_x
_atom_site_fract_y
_atom_site_fract_z
_atom_type_partial_charge
C0 C 0.14092 0.40289 0.31738 0.0
O1 O 0.13448 0.41678 0.33364 0.0
Cd2 Cd 0.15847 0.44343 0.35329 0.0
O3 O 0.16124 0.40238 0.31039 0.0
Cd4 Cd 0.19688 0.42215 0.319 0.0
C5 C 0.17479 0.4717 0.30084 0.0
O6 O 0.19199 0.42415 0.3638 0.0
O7 O 0.21998 0.44248 0.3494 0.0
O8 O 0.21426 0.38603 0.31324 0.0
C9 C 0.20887 0.43615 0.36818 0.0
O10 O 0.16464 0.47183 0.32165 0.0
C11 C 0.2297 0.39275 0.29894 0.0
O12 O 0.1865 0.45501 0.29429 0.0
O13 O 0.22981 0.41334 0.29355 0.0
C14 C 0.39629 0.82875 0.65444 0.0
O15 O 0.40735 0.83478 0.63546 0.0
Cd16 Cd 0.43729 0.81309 0.61897 0.0
O17 O 0.39953 0.80966 0.66424 0.0
Cd18 Cd 0.42125 0.77479 0.65702 0.0
C19 C 0.46751 0.8034 0.67307 0.0
O20 O 0.42225 0.77698 0.61195 0.0
O21 O 0.44371 0.75213 0.62817 0.0
O22 O 0.38585 0.75632 0.66328 0.0
C23 C 0.43602 0.76127 0.60869 0.0
O24 O 0.46512 0.81328 0.65224 0.0
C25 C 0.39292 0.74166 0.67837 0.0
O26 O 0.4536 0.78868 0.6802 0.0
O27 O 0.41349 0.74249 0.68412 0.0
C28 C 0.83142 0.56706 0.31557 0.0
O29 O 0.83712 0.55381 0.33288 0.0
Cd30 Cd 0.8121 0.52877 0.35365 0.0
O31 O 0.81125 0.56791 0.30808 0.0
Cd32 Cd 0.77482 0.54981 0.31711 0.0
C33 C 0.79595 0.4992 0.30205 0.0
O34 O 0.7789 0.54914 0.36201 0.0
O35 O 0.75093 0.53071 0.34784 0.0
O36 O 0.75872 0.5863 0.30998 0.0
C37 C 0.76181 0.53747 0.36657 0.0
O38 O 0.80547 0.49958 0.32323 0.0
C39 C 0.74309 0.57978 0.29583 0.0
O40 O 0.78497 0.51595 0.29411 0.0
O41 O 0.74238 0.55911 0.29101 0.0
C42 C 0.5746 0.13891 0.6573 0.0
O43 O 0.56346 0.13271 0.63846 0.0
Cd44 Cd 0.53456 0.1549 0.6205 0.0
O45 O 0.57182 0.15831 0.66635 0.0
Cd46 Cd 0.55057 0.19322 0.65779 0.0
C47 C 0.50374 0.16558 0.67375 0.0
O48 O 0.55017 0.19074 0.61272 0.0
O49 O 0.52753 0.21471 0.62837 0.0
O50 O 0.58595 0.21175 0.66413 0.0
C51 C 0.53597 0.20601 0.60908 0.0
O52 O 0.50601 0.15573 0.65294 0.0
C53 C 0.57867 0.22682 0.67847 0.0
O54 O 0.51806 0.17982 0.68105 0.0
O55 O 0.558 0.22623 0.68376 0.0
C56 C 0.14091 0.57087 0.65628 0.0
O57 O 0.13525 0.55934 0.63754 0.0
Cd58 Cd 0.15874 0.53196 0.61859 0.0
O59 O 0.16052 0.56925 0.66535 0.0
Cd60 Cd 0.19648 0.54965 0.65725 0.0
C61 C 0.17077 0.5011 0.67145 0.0
O62 O 0.19377 0.54955 0.61232 0.0
O63 O 0.21999 0.52911 0.62733 0.0
O64 O 0.21375 0.58538 0.66509 0.0
C65 C 0.21006 0.53665 0.60827 0.0
O66 O 0.16138 0.50288 0.65026 0.0
C67 C 0.22887 0.57817 0.67955 0.0
O68 O 0.18369 0.51633 0.67949 0.0
O69 O 0.2288 0.55743 0.68422 0.0
C70 C 0.56963 0.83139 0.32151 0.0
O71 O 0.55762 0.83714 0.33985 0.0
Cd72 Cd 0.52961 0.81335 0.35747 0.0
O73 O 0.56821 0.81182 0.31256 0.0
Cd74 Cd 0.54863 0.77609 0.32061 0.0
C75 C 0.50003 0.80071 0.30422 0.0
O76 O 0.5475 0.7787 0.36568 0.0
O77 O 0.52736 0.75266 0.34992 0.0
O78 O 0.58478 0.75891 0.31444 0.0
C79 C 0.53469 0.76226 0.36923 0.0
O80 O 0.50081 0.81014 0.32541 0.0
C81 C 0.57818 0.74396 0.29953 0.0
O82 O 0.51593 0.78827 0.29687 0.0
O83 O 0.55758 0.74407 0.29387 0.0
C84 C 0.82953 0.40036 0.65528 0.0
O85 O 0.83563 0.41247 0.63713 0.0
Cd86 Cd 0.81255 0.44058 0.61874 0.0
O87 O 0.80974 0.40181 0.66388 0.0
Cd88 Cd 0.77409 0.42194 0.65556 0.0
C89 C 0.79974 0.46983 0.67226 0.0
O90 O 0.77752 0.42347 0.61068 0.0
O91 O 0.75124 0.44364 0.62597 0.0
O92 O 0.75625 0.38616 0.66133 0.0
C93 C 0.76133 0.43657 0.60683 0.0
O94 O 0.80961 0.46867 0.65132 0.0
C95 C 0.74113 0.3929 0.67603 0.0
O96 O 0.78649 0.45447 0.67932 0.0
O97 O 0.74146 0.4134 0.68178 0.0
C98 C 0.39988 0.13985 0.3188 0.0
O99 O 0.41121 0.13367 0.33754 0.0
Cd100 Cd 0.43934 0.15641 0.35618 0.0
O101 O 0.40211 0.15945 0.31 0.0
Cd102 Cd 0.42258 0.19461 0.31883 0.0
C103 C 0.47007 0.16798 0.30309 0.0
O104 O 0.42273 0.19176 0.36385 0.0
O105 O 0.44534 0.21599 0.34842 0.0
O106 O 0.38698 0.21276 0.31286 0.0
C107 C 0.43668 0.20722 0.36759 0.0
O108 O 0.4683 0.15842 0.32419 0.0
C109 C 0.39394 0.22791 0.29834 0.0
O110 O 0.45508 0.18144 0.29549 0.0
O111 O 0.41455 0.22751 0.29276 0.0
C112 C 0.64092 0.9003 0.81981 0.0
O113 O 0.63488 0.91292 0.83749 0.0
Cd114 Cd 0.65901 0.93887 0.85801 0.0
O115 O 0.661 0.90053 0.81197 0.0
Cd116 Cd 0.69694 0.91976 0.82076 0.0
C117 C 0.67342 0.96956 0.80623 0.0
O118 O 0.69323 0.91992 0.86571 0.0
O119 O 0.72062 0.93914 0.85132 0.0
O120 O 0.7139 0.88382 0.813 0.0
C121 C 0.71002 0.93206 0.87013 0.0
O122 O 0.6637 0.96828 0.82725 0.0
C123 C 0.72919 0.89091 0.79871 0.0
O124 O 0.68558 0.95365 0.79835 0.0
O125 O 0.72937 0.91167 0.79417 0.0
C126 C 0.89769 0.33025 0.15721 0.0
O127 O 0.90876 0.33691 0.1385 0.0
Cd128 Cd 0.9381 0.31519 0.12055 0.0
O129 O 0.90075 0.31076 0.16599 0.0
Cd130 Cd 0.92214 0.2761 0.15738 0.0
C131 C 0.96899 0.30372 0.17362 0.0
O132 O 0.92296 0.27927 0.1123 0.0
O133 O 0.94434 0.25403 0.12795 0.0
O134 O 0.88666 0.25767 0.16298 0.0
C135 C 0.93665 0.26354 0.1087 0.0
O136 O 0.96656 0.31399 0.15304 0.0
C137 C 0.89358 0.24272 0.17779 0.0
O138 O 0.95483 0.2892 0.18066 0.0
O139 O 0.91412 0.24335 0.18371 0.0
C140 C 0.33247 0.06534 0.81836 0.0
O141 O 0.33886 0.05114 0.83438 0.0
Cd142 Cd 0.3148 0.02418 0.85359 0.0
O143 O 0.31213 0.06614 0.81146 0.0
Cd144 Cd 0.27636 0.0466 0.81994 0.0
C145 C 0.29799 -0.00259 0.80035 0.0
O146 O 0.28132 0.04316 0.86471 0.0
O147 O 0.25345 0.02519 0.84933 0.0
O148 O 0.25894 0.08294 0.81713 0.0
C149 C 0.26431 0.0311 0.86843 0.0
O150 O 0.30819 -0.00322 0.82113 0.0
C151 C 0.24355 0.0773 0.80221 0.0
O152 O 0.28635 0.01431 0.79417 0.0
O153 O 0.24359 0.05722 0.79488 0.0
C154 C 0.07883 0.64218 0.1544 0.0
O155 O 0.06848 0.63619 0.13493 0.0
Cd156 Cd 0.0382 0.65728 0.11823 0.0
O157 O 0.07476 0.66097 0.1644 0.0
Cd158 Cd 0.0523 0.69532 0.15672 0.0
C159 C 0.00695 0.66524 0.1719 0.0
O160 O 0.05196 0.69403 0.11161 0.0
O161 O 0.02828 0.71657 0.12801 0.0
O162 O 0.08691 0.71506 0.16338 0.0
C163 C 0.03705 0.7087 0.10845 0.0
O164 O 0.00982 0.65577 0.15095 0.0
C165 C 0.07921 0.72929 0.17851 0.0
O166 O 0.02039 0.68018 0.17946 0.0
O167 O 0.05864 0.7277 0.18402 0.0
C168 C 0.64152 0.06788 0.15747 0.0
O169 O 0.63574 0.05494 0.13997 0.0
Cd170 Cd 0.65974 0.02736 0.12211 0.0
O171 O 0.66139 0.06743 0.16598 0.0
Cd172 Cd 0.69744 0.04795 0.15831 0.0
C173 C 0.67354 -0.00062 0.17608 0.0
O174 O 0.69392 0.0459 0.11348 0.0
O175 O 0.7208 0.02658 0.12889 0.0
O176 O 0.71453 0.08413 0.16414 0.0
C177 C 0.71047 0.03327 0.1097 0.0
O178 O 0.66405 -0.00058 0.15486 0.0
C179 C 0.72985 0.07756 0.17873 0.0
O180 O 0.68563 0.01569 0.18295 0.0
O181 O 0.72998 0.057 0.18431 0.0
C182 C 0.06961 0.33152 0.81931 0.0
O183 O 0.05773 0.33749 0.83768 0.0
Cd184 Cd 0.03028 0.31399 0.85658 0.0
O185 O 0.0682 0.31179 0.81079 0.0
Cd186 Cd 0.04852 0.27616 0.81958 0.0
C187 C -0.00017 0.301 0.80388 0.0
O188 O 0.04811 0.27933 0.86465 0.0
O189 O 0.02759 0.25326 0.84961 0.0
O190 O 0.08476 0.2594 0.81256 0.0
C191 C 0.03521 0.26304 0.86866 0.0
O192 O 0.00131 0.31065 0.82489 0.0
C193 C 0.07785 0.2435 0.79913 0.0
O194 O 0.01535 0.28819 0.79626 0.0
O195 O 0.05706 0.24299 0.79447 0.0
C196 C 0.32832 0.89978 0.15794 0.0
O197 O 0.33397 0.9104 0.13849 0.0
Cd198 Cd 0.31068 0.93804 0.11952 0.0
O199 O 0.30891 0.90223 0.16725 0.0
Cd200 Cd 0.27309 0.92182 0.15842 0.0
C201 C 0.29928 0.97012 0.17149 0.0
O202 O 0.27536 0.92088 0.11337 0.0
O203 O 0.24981 0.94224 0.12816 0.0
O204 O 0.2558 0.8863 0.16729 0.0
C205 C 0.25923 0.93398 0.1092 0.0
O206 O 0.30873 0.96779 0.15042 0.0
C207 C 0.24066 0.89379 0.18148 0.0
O208 O 0.28606 0.95528 0.17984 0.0
O209 O 0.2407 0.91462 0.18551 0.0
C210 C 0.89795 0.63849 0.82167 0.0
O211 O 0.90954 0.63265 0.84036 0.0
Cd212 Cd 0.93793 0.65562 0.85809 0.0
O213 O 0.9001 0.65791 0.81235 0.0
Cd214 Cd 0.92084 0.69317 0.82014 0.0
C215 C 0.96838 0.66643 0.80464 0.0
O216 O 0.92126 0.69105 0.86523 0.0
O217 O 0.9436 0.71518 0.84917 0.0
O218 O 0.88535 0.7115 0.81372 0.0
C219 C 0.93513 0.70664 0.86857 0.0
O220 O 0.96676 0.6571 0.82588 0.0
C221 C 0.89244 0.7263 0.79884 0.0
O222 O 0.95331 0.67975 0.79695 0.0
O223 O 0.91305 0.72561 0.79329 0.0
H224 H 0.26832 0.40302 0.2741 0.0
H225 H 0.29861 0.37748 0.26277 0.0
H226 H 0.26102 0.32251 0.29281 0.0
H227 H 0.23081 0.34773 0.30403 0.0
H228 H 0.32228 0.35149 0.29687 0.0
H229 H 0.28254 0.29807 0.22608 0.0
H230 H 0.27149 0.32499 0.23456 0.0
H231 H 0.26555 0.30089 0.25336 0.0
C232 C 0.26638 0.38543 0.2779 0.0
C233 C 0.2472 0.37737 0.28999 0.0
C234 C 0.28368 0.37089 0.27141 0.0
C235 C 0.28189 0.34807 0.27659 0.0
C236 C 0.26253 0.33997 0.28811 0.0
H237 H 0.3491 0.23047 0.30533 0.0
H238 H 0.32431 0.26119 0.29473 0.0
C239 C 0.24534 0.35446 0.29471 0.0
C240 C 0.30095 0.33283 0.27239 0.0
H241 H 0.3137 0.28189 0.24843 0.0
C242 C 0.3207 0.33653 0.28577 0.0
C243 C 0.29883 0.31341 0.25782 0.0
C244 C 0.27853 0.3092 0.24193 0.0
C245 C 0.33767 0.32043 0.28659 0.0
C246 C 0.33486 0.30031 0.27335 0.0
C247 C 0.31576 0.2973 0.25865 0.0
C248 C 0.34997 0.28112 0.27728 0.0
C249 C 0.35771 0.32437 0.303 0.0
C250 C 0.37256 0.28193 0.27044 0.0
C251 C 0.38688 0.26431 0.27655 0.0
C252 C 0.37875 0.24568 0.28956 0.0
C253 C 0.35593 0.24463 0.29545 0.0
C254 C 0.3417 0.26215 0.28933 0.0
H255 H 0.3558 0.33946 0.31469 0.0
H256 H 0.3606 0.30984 0.31538 0.0
H257 H 0.37275 0.32652 0.29122 0.0
H258 H 0.37918 0.29633 0.26083 0.0
H259 H 0.40437 0.26554 0.27168 0.0
H260 H 0.40382 0.7045 0.70565 0.0
H261 H 0.37893 0.67376 0.71736 0.0
H262 H 0.32353 0.70812 0.6834 0.0
H263 H 0.34804 0.73877 0.67187 0.0
H264 H 0.31385 0.68792 0.7308 0.0
H265 H 0.35488 0.62993 0.6641 0.0
H266 H 0.37213 0.64342 0.68691 0.0
H267 H 0.35931 0.65959 0.66273 0.0
C268 C 0.38628 0.70557 0.70095 0.0
C269 C 0.37793 0.72396 0.68765 0.0
C270 C 0.37213 0.68798 0.70756 0.0
C271 C 0.34947 0.68859 0.70098 0.0
C272 C 0.34098 0.70733 0.68863 0.0
H273 H 0.22993 0.6233 0.67636 0.0
H274 H 0.26034 0.64804 0.68796 0.0
C275 C 0.35505 0.72481 0.68198 0.0
C276 C 0.33451 0.66941 0.70545 0.0
H277 H 0.32143 0.61826 0.68228 0.0
C278 C 0.31571 0.67249 0.72059 0.0
C279 C 0.33707 0.64925 0.69224 0.0
C280 C 0.35684 0.64522 0.67545 0.0
C281 C 0.29878 0.65642 0.72183 0.0
C282 C 0.30056 0.63699 0.70719 0.0
C283 C 0.32009 0.63321 0.69343 0.0
C284 C 0.2813 0.622 0.70313 0.0
C285 C 0.27881 0.6607 0.7382 0.0
C286 C 0.28301 0.59904 0.70763 0.0
C287 C 0.26558 0.58476 0.7009 0.0
C288 C 0.24633 0.59321 0.68924 0.0
C289 C 0.24451 0.61626 0.68534 0.0
C290 C 0.26182 0.63048 0.69216 0.0
H291 H 0.28328 0.67153 0.75417 0.0
H292 H 0.26579 0.66943 0.72721 0.0
H293 H 0.27166 0.64494 0.74544 0.0
H294 H 0.29802 0.59215 0.71583 0.0
H295 H 0.2675 0.56706 0.70406 0.0
H296 H 0.56845 0.70702 0.27165 0.0
H297 H 0.59409 0.6769 0.26005 0.0
H298 H 0.64831 0.71172 0.29548 0.0
H299 H 0.62304 0.74181 0.30687 0.0
H300 H 0.65924 0.6923 0.24828 0.0
H301 H 0.61785 0.63274 0.31313 0.0
H302 H 0.60067 0.64616 0.29012 0.0
H303 H 0.61286 0.66231 0.31463 0.0
C304 C 0.58589 0.70834 0.27671 0.0
C305 C 0.59369 0.72669 0.29037 0.0
C306 C 0.60047 0.6911 0.27016 0.0
C307 C 0.62301 0.692 0.27719 0.0
C308 C 0.63097 0.71071 0.28991 0.0
H309 H 0.74281 0.62483 0.30061 0.0
H310 H 0.71277 0.65047 0.28999 0.0
C311 C 0.61646 0.72786 0.29648 0.0
C312 C 0.63833 0.67309 0.27278 0.0
H313 H 0.65122 0.6213 0.29459 0.0
C314 C 0.65732 0.67661 0.25804 0.0
C315 C 0.63569 0.6526 0.28543 0.0
C316 C 0.61577 0.64811 0.30186 0.0
C317 C 0.67427 0.66055 0.25652 0.0
C318 C 0.67231 0.64069 0.27048 0.0
C319 C 0.65268 0.63658 0.28395 0.0
C320 C 0.69138 0.62529 0.27394 0.0
C321 C 0.69437 0.66526 0.2405 0.0
C322 C 0.68931 0.60254 0.26862 0.0
C323 C 0.7065 0.58774 0.27481 0.0
C324 C 0.7259 0.59547 0.28672 0.0
C325 C 0.72811 0.61834 0.29142 0.0
C326 C 0.71101 0.63308 0.28515 0.0
H327 H 0.69009 0.67666 0.22491 0.0
H328 H 0.70737 0.6735 0.25193 0.0
H329 H 0.70149 0.64971 0.23273 0.0
H330 H 0.67419 0.59618 0.2602 0.0
H331 H 0.70428 0.5702 0.27103 0.0
H332 H 0.62383 0.2286 0.67449 0.0
H333 H 0.64837 0.25937 0.68525 0.0
H334 H 0.59214 0.2965 0.71313 0.0
H335 H 0.56723 0.26558 0.70222 0.0
H336 H 0.61805 0.31983 0.67886 0.0
H337 H 0.67195 0.28284 0.75132 0.0
H338 H 0.66977 0.26516 0.72462 0.0
H339 H 0.64528 0.27107 0.74286 0.0
C340 C 0.61667 0.24315 0.68327 0.0
C341 C 0.59358 0.24468 0.68747 0.0
C342 C 0.63077 0.26067 0.68961 0.0
C343 C 0.62214 0.28008 0.70037 0.0
C344 C 0.59914 0.28155 0.70508 0.0
H345 H 0.70342 0.40311 0.70269 0.0
H346 H 0.67284 0.37783 0.7139 0.0
C347 C 0.58497 0.26389 0.69886 0.0
C348 C 0.63703 0.29944 0.70413 0.0
H349 H 0.688 0.31334 0.72771 0.0
C350 C 0.63307 0.31873 0.69006 0.0
C351 C 0.65655 0.29794 0.71882 0.0
C352 C 0.66103 0.27821 0.73546 0.0
C353 C 0.64901 0.3358 0.6887 0.0
C354 C 0.66924 0.33355 0.70203 0.0
C355 C 0.67251 0.31495 0.71741 0.0
C356 C 0.68826 0.34875 0.69765 0.0
C357 C 0.64479 0.35534 0.67165 0.0
C358 C 0.70727 0.3406 0.68551 0.0
C359 C 0.72467 0.35489 0.67914 0.0
C360 C 0.72347 0.37765 0.68489 0.0
C361 C 0.70478 0.38567 0.69793 0.0
C362 C 0.68728 0.3713 0.70426 0.0
H363 H 0.62952 0.35311 0.6602 0.0
H364 H 0.64275 0.37064 0.68292 0.0
H365 H 0.65923 0.3579 0.65902 0.0
H366 H 0.70835 0.32323 0.68028 0.0
H367 H 0.73886 0.34815 0.66922 0.0
H368 H 0.76786 0.9017 0.77421 0.0
H369 H 0.79814 0.87636 0.76229 0.0
H370 H 0.76012 0.82076 0.79013 0.0
H371 H 0.72994 0.84576 0.80188 0.0
H372 H 0.82142 0.84999 0.79573 0.0
H373 H 0.78269 0.79724 0.72375 0.0
H374 H 0.77129 0.82391 0.73259 0.0
H375 H 0.76531 0.79944 0.75078 0.0
C376 C 0.76581 0.88402 0.77734 0.0
C377 C 0.74654 0.87572 0.78903 0.0
C378 C 0.78311 0.86959 0.77052 0.0
C379 C 0.78123 0.84665 0.77496 0.0
C380 C 0.76172 0.83833 0.78597 0.0
H381 H 0.84755 0.72922 0.80526 0.0
H382 H 0.82307 0.76001 0.79394 0.0
C383 C 0.74454 0.85269 0.79289 0.0
C384 C 0.80037 0.8315 0.7708 0.0
H385 H 0.81328 0.78058 0.74687 0.0
C386 C 0.81996 0.83509 0.78452 0.0
C387 C 0.79841 0.81215 0.75607 0.0
C388 C 0.77836 0.80807 0.73976 0.0
C389 C 0.83685 0.81892 0.78557 0.0
C390 C 0.83414 0.79884 0.77225 0.0
C391 C 0.81526 0.79595 0.75716 0.0
C392 C 0.84904 0.77956 0.77652 0.0
C393 C 0.85669 0.82274 0.80232 0.0
C394 C 0.87169 0.78014 0.76994 0.0
C395 C 0.88583 0.76248 0.77644 0.0
C396 C 0.87745 0.74405 0.78962 0.0
C397 C 0.85457 0.74322 0.79525 0.0
C398 C 0.84052 0.76077 0.78872 0.0
H399 H 0.8548 0.83795 0.81384 0.0
H400 H 0.85919 0.80826 0.81488 0.0
H401 H 0.87194 0.8246 0.79082 0.0
H402 H 0.87851 0.7944 0.76024 0.0
H403 H 0.90337 0.76354 0.77176 0.0
H404 H 0.76842 0.06759 0.2039 0.0
H405 H 0.79861 0.0933 0.215 0.0
H406 H 0.76086 0.14791 0.18423 0.0
H407 H 0.73076 0.12254 0.17326 0.0
H408 H 0.82225 0.11891 0.18067 0.0
H409 H 0.78232 0.17318 0.25051 0.0
H410 H 0.7713 0.14618 0.24239 0.0
H411 H 0.76536 0.17007 0.22324 0.0
C412 C 0.76642 0.08515 0.19991 0.0
C413 C 0.74722 0.09305 0.18768 0.0
C414 C 0.78367 0.09978 0.20626 0.0
C415 C 0.78182 0.12255 0.20079 0.0
C416 C 0.76243 0.1305 0.18915 0.0
H417 H 0.84883 0.23986 0.17028 0.0
H418 H 0.82411 0.20919 0.18113 0.0
C419 C 0.7453 0.11593 0.1827 0.0
C420 C 0.80084 0.13786 0.20478 0.0
H421 H 0.81342 0.18914 0.22789 0.0
C422 C 0.82062 0.13401 0.19151 0.0
C423 C 0.79865 0.15748 0.21902 0.0
C424 C 0.77833 0.16188 0.2348 0.0
C425 C 0.83754 0.15013 0.19046 0.0
C426 C 0.83466 0.17042 0.20334 0.0
C427 C 0.81553 0.1736 0.21795 0.0
C428 C 0.84973 0.18956 0.19915 0.0
C429 C 0.85762 0.14599 0.17418 0.0
C430 C 0.87228 0.18891 0.20619 0.0
C431 C 0.88656 0.2065 0.19995 0.0
C432 C 0.87844 0.22496 0.18659 0.0
C433 C 0.85566 0.22584 0.18045 0.0
C434 C 0.84147 0.20835 0.18671 0.0
H435 H 0.8558 0.13071 0.16278 0.0
H436 H 0.86045 0.16034 0.16152 0.0
H437 H 0.87266 0.14408 0.18603 0.0
H438 H 0.8789 0.17465 0.2161 0.0
H439 H 0.90402 0.20539 0.20503 0.0
H440 H 0.06719 0.20262 0.78005 0.0
H441 H 0.09282 0.17145 0.7725 0.0
H442 H 0.14858 0.21289 0.79265 0.0
H443 H 0.12324 0.24397 0.80044 0.0
H444 H 0.15099 0.17983 0.74543 0.0
H445 H 0.12825 0.14582 0.83872 0.0
H446 H 0.10668 0.15578 0.81809 0.0
H447 H 0.12571 0.17513 0.83189 0.0
C448 C 0.08495 0.2052 0.7824 0.0
C449 C 0.0932 0.22568 0.79103 0.0
C450 C 0.09952 0.18741 0.77808 0.0
C451 C 0.1225 0.18997 0.78208 0.0
C452 C 0.13087 0.21069 0.7894 0.0
H453 H 0.24006 0.12082 0.8155 0.0
H454 H 0.20931 0.14636 0.80685 0.0
C455 C 0.11636 0.22838 0.79392 0.0
C456 C 0.13773 0.17068 0.78121 0.0
H457 H 0.15816 0.12894 0.81783 0.0
C458 C 0.15232 0.16838 0.76098 0.0
C459 C 0.13944 0.15599 0.80168 0.0
C460 C 0.12428 0.15816 0.82395 0.0
C461 C 0.16909 0.15203 0.76108 0.0
C462 C 0.1713 0.13794 0.78198 0.0
C463 C 0.15625 0.13977 0.8018 0.0
C464 C 0.19053 0.12282 0.78492 0.0
C465 C 0.18501 0.15042 0.73947 0.0
C466 C 0.19013 0.10122 0.77517 0.0
C467 C 0.20771 0.08649 0.78011 0.0
C468 C 0.22584 0.0932 0.79494 0.0
C469 C 0.22635 0.1151 0.80405 0.0
C470 C 0.20883 0.12974 0.79913 0.0
H471 H 0.18061 0.1621 0.72419 0.0
H472 H 0.20221 0.15414 0.74592 0.0
H473 H 0.18503 0.13319 0.73209 0.0
H474 H 0.17601 0.09564 0.76426 0.0
H475 H 0.20683 0.06973 0.77285 0.0
H476 H 0.20176 0.90533 0.20511 0.0
H477 H 0.17117 0.88041 0.21723 0.0
H478 H 0.20939 0.82405 0.19187 0.0
H479 H 0.23985 0.84862 0.17996 0.0
H480 H 0.14835 0.85376 0.18409 0.0
H481 H 0.18529 0.80158 0.25796 0.0
H482 H 0.19709 0.82803 0.24885 0.0
H483 H 0.20334 0.80323 0.23144 0.0
C484 C 0.20378 0.88758 0.20262 0.0
C485 C 0.22319 0.87893 0.19153 0.0
C486 C 0.18631 0.87339 0.20954 0.0
C487 C 0.18815 0.85035 0.20582 0.0
C488 C 0.20781 0.8417 0.19549 0.0
H489 H 0.12409 0.73335 0.17313 0.0
H490 H 0.14763 0.76443 0.18553 0.0
C491 C 0.22515 0.85581 0.18847 0.0
C492 C 0.16885 0.83539 0.20983 0.0
H493 H 0.15555 0.78449 0.23374 0.0
C494 C 0.14958 0.83892 0.19551 0.0
C495 C 0.17047 0.81611 0.22484 0.0
C496 C 0.19009 0.81214 0.24184 0.0
C497 C 0.13279 0.8227 0.19405 0.0
C498 C 0.1353 0.80262 0.20753 0.0
C499 C 0.15375 0.79985 0.22331 0.0
C500 C 0.12088 0.78316 0.20256 0.0
C501 C 0.11336 0.82639 0.17665 0.0
C502 C 0.09808 0.78319 0.20853 0.0
C503 C 0.08449 0.76535 0.20142 0.0
C504 C 0.09355 0.7473 0.18822 0.0
C505 C 0.11655 0.74705 0.18313 0.0
C506 C 0.13006 0.76476 0.19029 0.0
H507 H 0.1152 0.84185 0.16548 0.0
H508 H 0.11162 0.8121 0.16376 0.0
H509 H 0.09773 0.82765 0.18761 0.0
H510 H 0.09076 0.79717 0.21823 0.0
H511 H 0.06684 0.76596 0.20567 0.0
H512 H 0.15759 0.51254 0.31171 0.0
H513 H 0.14821 0.54239 0.28265 0.0
H514 H 0.17491 0.50393 0.22201 0.0
H515 H 0.18452 0.47383 0.25101 0.0
H516 H 0.17736 0.56605 0.24311 0.0
H517 H 0.10528 0.51635 0.20844 0.0
H518 H 0.11798 0.51091 0.2383 0.0
H519 H 0.13225 0.50321 0.21032 0.0
C520 C 0.16175 0.51048 0.29225 0.0
C521 C 0.1716 0.4907 0.28363 0.0
C522 C 0.15646 0.52761 0.27571 0.0
C523 C 0.16076 0.52524 0.25026 0.0
C524 C 0.17144 0.50597 0.24164 0.0
H525 H 0.09728 0.60471 0.13434 0.0
H526 H 0.12088 0.57725 0.15517 0.0
C527 C 0.17692 0.48884 0.25823 0.0
C528 C 0.15231 0.5422 0.23272 0.0
H529 H 0.10888 0.55274 0.19348 0.0
C530 C 0.16255 0.56315 0.23198 0.0
C531 C 0.13305 0.53823 0.21827 0.0
C532 C 0.12132 0.51603 0.21879 0.0
C533 C 0.15377 0.58045 0.21733 0.0
C534 C 0.13389 0.57679 0.2037 0.0
C535 C 0.12411 0.55557 0.20392 0.0
C536 C 0.12211 0.59488 0.1902 0.0
C537 C 0.16591 0.60241 0.21661 0.0
C538 C 0.11514 0.61407 0.20285 0.0
C539 C 0.10182 0.62993 0.1909 0.0
C540 C 0.09486 0.62667 0.16621 0.0
C541 C 0.10227 0.60768 0.1534 0.0
C542 C 0.11579 0.59197 0.16528 0.0
H543 H 0.18399 0.6002 0.22045 0.0
H544 H 0.16395 0.61076 0.19829 0.0
H545 H 0.15902 0.61347 0.23121 0.0
H546 H 0.11924 0.61641 0.22228 0.0
H547 H 0.09626 0.64428 0.20135 0.0
H548 H 0.48636 0.7797 0.71146 0.0
H549 H 0.5177 0.79102 0.73789 0.0
H550 H 0.52162 0.85346 0.69839 0.0
H551 H 0.4912 0.8419 0.67137 0.0
H552 H 0.56157 0.83733 0.70499 0.0
H553 H 0.51636 0.83331 0.795 0.0
H554 H 0.51718 0.80738 0.77859 0.0
H555 H 0.5023 0.83064 0.76552 0.0
C556 C 0.49393 0.79584 0.70848 0.0
C557 C 0.48629 0.80992 0.68936 0.0
C558 C 0.51174 0.80236 0.7237 0.0
C559 C 0.52181 0.82327 0.72044 0.0
C560 C 0.51417 0.83724 0.70129 0.0
H561 H 0.59573 0.90535 0.82004 0.0
H562 H 0.56821 0.88414 0.79655 0.0
C563 C 0.49673 0.83061 0.68585 0.0
C564 C 0.54045 0.83085 0.73657 0.0
H565 H 0.55452 0.84273 0.79664 0.0
C566 C 0.56006 0.83844 0.72505 0.0
C567 C 0.53841 0.83243 0.76274 0.0
C568 C 0.51737 0.82571 0.77621 0.0
C569 C 0.57732 0.84829 0.73877 0.0
C570 C 0.57537 0.84975 0.76497 0.0
C571 C 0.55607 0.84148 0.77659 0.0
C572 C 0.59223 0.86144 0.78042 0.0
C573 C 0.59688 0.85806 0.72483 0.0
C574 C 0.6149 0.85548 0.77967 0.0
C575 C 0.63076 0.86792 0.79271 0.0
C576 C 0.62416 0.88616 0.80728 0.0
C577 C 0.60136 0.89138 0.80899 0.0
C578 C 0.58559 0.87924 0.79558 0.0
H579 H 0.59292 0.86087 0.70488 0.0
H580 H 0.60214 0.87415 0.73305 0.0
H581 H 0.61117 0.84635 0.72578 0.0
H582 H 0.62037 0.84139 0.76875 0.0
H583 H 0.64819 0.86331 0.7913 0.0
H584 H 0.88537 0.37213 0.14243 0.0
H585 H 0.8625 0.39884 0.16541 0.0
H586 H 0.85189 0.35029 0.22327 0.0
H587 H 0.87463 0.32335 0.20049 0.0
H588 H 0.81346 0.39086 0.1912 0.0
H589 H 0.88723 0.41005 0.25061 0.0
H590 H 0.89023 0.39974 0.21926 0.0
H591 H 0.88114 0.38141 0.24355 0.0
C592 C 0.87794 0.36698 0.15987 0.0
C593 C 0.882 0.34565 0.16973 0.0
C594 C 0.8648 0.38225 0.17289 0.0
C595 C 0.8556 0.37645 0.19595 0.0
C596 C 0.85886 0.35496 0.20542 0.0
H597 H 0.80773 0.45743 0.31655 0.0
H598 H 0.81887 0.42646 0.29009 0.0
C599 C 0.8719 0.33964 0.19239 0.0
C600 C 0.84443 0.39349 0.21122 0.0
H601 H 0.85389 0.42879 0.25954 0.0
C602 C 0.82218 0.39919 0.20619 0.0
C603 C 0.85597 0.40419 0.23068 0.0
C604 C 0.88001 0.39872 0.23645 0.0
C605 C 0.81102 0.4153 0.22049 0.0
C606 C 0.82266 0.42617 0.23989 0.0
C607 C 0.84495 0.42038 0.24476 0.0
C608 C 0.81238 0.44373 0.25547 0.0
C609 C 0.78682 0.42017 0.21504 0.0
C610 C 0.80445 0.46358 0.24481 0.0
C611 C 0.79781 0.4813 0.25996 0.0
C612 C 0.79941 0.47956 0.28598 0.0
C613 C 0.80647 0.45935 0.29656 0.0
C614 C 0.81282 0.44161 0.28146 0.0
H615 H 0.77876 0.40624 0.20491 0.0
H616 H 0.77737 0.42333 0.23244 0.0
H617 H 0.78569 0.43524 0.20316 0.0
H618 H 0.80441 0.46578 0.22482 0.0
H619 H 0.79259 0.49672 0.25128 0.0
H620 H 0.47675 0.1294 0.66958 0.0
H621 H 0.44587 0.11863 0.69632 0.0
H622 H 0.45585 0.1774 0.74081 0.0
H623 H 0.48757 0.18797 0.71448 0.0
H624 H 0.44948 0.14262 0.76971 0.0
H625 H 0.3837 0.14189 0.69811 0.0
H626 H 0.40633 0.12435 0.68872 0.0
H627 H 0.41084 0.15382 0.69244 0.0
C628 C 0.47231 0.1402 0.6849 0.0
C629 C 0.48454 0.15965 0.68978 0.0
C630 C 0.45449 0.13408 0.70009 0.0
C631 C 0.4481 0.1475 0.72019 0.0
C632 C 0.46033 0.1669 0.72524 0.0
H633 H 0.32463 0.10423 0.79325 0.0
H634 H 0.35199 0.12799 0.77234 0.0
C635 C 0.47844 0.17292 0.71019 0.0
C636 C 0.42942 0.14042 0.73653 0.0
H637 H 0.37665 0.1193 0.73464 0.0
C638 C 0.43341 0.13789 0.76212 0.0
C639 C 0.4082 0.13479 0.72684 0.0
C640 C 0.40195 0.13912 0.70007 0.0
C641 C 0.41726 0.1286 0.77795 0.0
C642 C 0.39688 0.12093 0.76776 0.0
C643 C 0.3924 0.12475 0.74247 0.0
C644 C 0.38053 0.10779 0.78249 0.0
C645 C 0.42232 0.12711 0.8054 0.0
C646 C 0.38739 0.08853 0.79522 0.0
C647 C 0.37185 0.07516 0.80752 0.0
C648 C 0.34901 0.08043 0.80681 0.0
C649 C 0.34212 0.09971 0.7941 0.0
C650 C 0.35774 0.11331 0.78216 0.0
H651 H 0.43367 0.14072 0.81127 0.0
H652 H 0.40689 0.12795 0.81678 0.0
H653 H 0.43091 0.11113 0.80934 0.0
H654 H 0.40471 0.08342 0.79506 0.0
H655 H 0.37767 0.06027 0.81688 0.0
H656 H 0.18249 0.49365 0.72022 0.0
H657 H 0.16953 0.46345 0.74729 0.0
H658 H 0.13351 0.43472 0.68585 0.0
H659 H 0.14614 0.46472 0.65878 0.0
H660 H 0.10759 0.44263 0.72866 0.0
H661 H 0.18546 0.39616 0.75066 0.0
H662 H 0.18645 0.4258 0.75504 0.0
H663 H 0.18318 0.41472 0.72429 0.0
C664 C 0.17211 0.48071 0.71237 0.0
C665 C 0.16524 0.48171 0.68735 0.0
C666 C 0.16481 0.46342 0.72785 0.0
C667 C 0.15067 0.44682 0.7185 0.0
C668 C 0.14444 0.44738 0.69339 0.0
H669 H 0.09654 0.3252 0.77873 0.0
H670 H 0.11777 0.35342 0.75596 0.0
C671 C 0.15168 0.46458 0.67795 0.0
C672 C 0.14068 0.42993 0.73517 0.0
H673 H 0.15258 0.38488 0.77168 0.0
C674 C 0.11743 0.43003 0.73811 0.0
C675 C 0.15358 0.41347 0.74731 0.0
C676 C 0.17855 0.4123 0.74411 0.0
C677 C 0.10666 0.41407 0.75284 0.0
C678 C 0.11955 0.39775 0.76523 0.0
C679 C 0.14282 0.39757 0.76229 0.0
C680 C 0.10884 0.38035 0.78062 0.0
C681 C 0.08152 0.41448 0.75458 0.0
C682 C 0.09732 0.38611 0.80236 0.0
C683 C 0.08513 0.37008 0.81538 0.0
C684 C 0.08429 0.34797 0.8069 0.0
C685 C 0.09671 0.34208 0.7857 0.0
C686 C 0.10892 0.35815 0.7727 0.0
H687 H 0.07391 0.42513 0.73995 0.0
H688 H 0.07458 0.39743 0.75293 0.0
H689 H 0.07655 0.4212 0.77297 0.0
H690 H 0.0973 0.40314 0.8089 0.0
H691 H 0.07592 0.37518 0.83173 0.0
H692 H 0.32654 0.8831 0.20526 0.0
H693 H 0.35542 0.86202 0.22716 0.0
H694 H 0.39584 0.86178 0.16079 0.0
H695 H 0.36741 0.88353 0.13902 0.0
H696 H 0.37495 0.82201 0.22014 0.0
H697 H 0.4381 0.88897 0.21019 0.0
H698 H 0.40911 0.89311 0.20249 0.0
H699 H 0.42741 0.87918 0.18104 0.0
C700 C 0.34153 0.87847 0.19527 0.0
C701 C 0.34482 0.88525 0.1705 0.0
C702 C 0.35802 0.8664 0.20782 0.0
C703 C 0.37801 0.86076 0.19578 0.0
C704 C 0.38084 0.86651 0.17067 0.0
H705 H 0.49747 0.79456 0.25381 0.0
H706 H 0.46722 0.80638 0.22598 0.0
C707 C 0.3645 0.87885 0.15821 0.0
C708 C 0.39611 0.84948 0.20981 0.0
H709 H 0.45028 0.85533 0.22853 0.0
C710 C 0.39143 0.82927 0.22191 0.0
C711 C 0.41761 0.85904 0.21223 0.0
C712 C 0.42335 0.88136 0.20102 0.0
C713 C 0.40764 0.81844 0.23642 0.0
C714 C 0.42901 0.82804 0.23877 0.0
C715 C 0.43387 0.84797 0.22638 0.0
C716 C 0.44612 0.81863 0.25555 0.0
C717 C 0.40188 0.79693 0.24935 0.0
C718 C 0.44408 0.82154 0.28129 0.0
C719 C 0.46136 0.81509 0.29716 0.0
C720 C 0.48094 0.80547 0.28756 0.0
C721 C 0.48257 0.80183 0.26178 0.0
C722 C 0.46535 0.80857 0.24587 0.0
H723 H 0.38591 0.78983 0.24253 0.0
H724 H 0.41539 0.78452 0.24662 0.0
H725 H 0.40034 0.79997 0.26964 0.0
H726 H 0.42942 0.82949 0.28902 0.0
H727 H 0.45954 0.81804 0.31692 0.0
H728 H 0.82696 0.50518 0.66267 0.0
H729 H 0.83885 0.53413 0.69142 0.0
H730 H 0.79684 0.50638 0.74862 0.0
H731 H 0.78471 0.47709 0.71991 0.0
H732 H 0.79753 0.55718 0.74175 0.0
H733 H 0.88023 0.51637 0.7528 0.0
H734 H 0.87085 0.52006 0.72128 0.0
H735 H 0.8559 0.50171 0.74171 0.0
C736 C 0.82002 0.50526 0.68127 0.0
C737 C 0.80503 0.48863 0.68905 0.0
C738 C 0.82686 0.52185 0.69766 0.0
C739 C 0.81888 0.52219 0.72213 0.0
C740 C 0.80319 0.50629 0.72976 0.0
H741 H 0.8887 0.59612 0.83712 0.0
H742 H 0.86657 0.56806 0.81554 0.0
C743 C 0.79633 0.48958 0.71335 0.0
C744 C 0.82809 0.53844 0.73995 0.0
H745 H 0.87655 0.55281 0.76898 0.0
C746 C 0.81473 0.55619 0.74796 0.0
C747 C 0.85043 0.53686 0.74816 0.0
C748 C 0.86521 0.51765 0.74076 0.0
C749 C 0.82346 0.57293 0.76336 0.0
C750 C 0.84613 0.57186 0.77064 0.0
C751 C 0.8592 0.55365 0.76329 0.0
C752 C 0.85706 0.58972 0.78515 0.0
C753 C 0.80839 0.59157 0.77169 0.0
C754 C 0.85887 0.61129 0.77533 0.0
C755 C 0.87153 0.62742 0.78762 0.0
C756 C 0.88276 0.62218 0.80987 0.0
C757 C 0.88034 0.60072 0.82 0.0
C758 C 0.86767 0.58465 0.80772 0.0
H759 H 0.79053 0.58673 0.77066 0.0
H760 H 0.8123 0.59669 0.79104 0.0
H761 H 0.81089 0.60616 0.75932 0.0
H762 H 0.85122 0.61544 0.75766 0.0
H763 H 0.87307 0.64375 0.77926 0.0
H764 H 0.59818 0.07417 0.14308 0.0
H765 H 0.56953 0.09603 0.16411 0.0
H766 H 0.61765 0.11656 0.21909 0.0
H767 H 0.64655 0.09502 0.19798 0.0
H768 H 0.5556 0.08823 0.21155 0.0
H769 H 0.58602 0.17494 0.20286 0.0
H770 H 0.5966 0.15254 0.18387 0.0
H771 H 0.60653 0.15611 0.21517 0.0
C772 C 0.6028 0.08359 0.15943 0.0
C773 C 0.62468 0.08275 0.16889 0.0
C774 C 0.58639 0.09611 0.1714 0.0
C775 C 0.5915 0.10812 0.193 0.0
C776 C 0.61344 0.10782 0.20214 0.0
H777 H 0.50525 0.14086 0.31418 0.0
H778 H 0.53463 0.12807 0.28631 0.0
C779 C 0.62991 0.09534 0.19014 0.0
C780 C 0.57345 0.11909 0.20728 0.0
H781 H 0.55719 0.16846 0.23294 0.0
C782 C 0.55584 0.10582 0.21599 0.0
C783 C 0.5737 0.14207 0.2129 0.0
C784 C 0.59161 0.15731 0.20302 0.0
C785 C 0.53885 0.11475 0.23081 0.0
C786 C 0.53965 0.13748 0.23739 0.0
C787 C 0.55681 0.15097 0.22804 0.0
C788 C 0.5231 0.14713 0.25467 0.0
C789 C 0.52021 0.09975 0.23947 0.0
C790 C 0.50735 0.1627 0.24628 0.0
C791 C 0.49043 0.17012 0.2622 0.0
C792 C 0.48911 0.1621 0.28678 0.0
C793 C 0.5056 0.14725 0.29533 0.0
C794 C 0.52241 0.13987 0.27943 0.0
H795 H 0.5191 0.08439 0.22808 0.0
H796 H 0.5233 0.09476 0.25905 0.0
H797 H 0.50391 0.10852 0.23868 0.0
H798 H 0.50771 0.16854 0.2272 0.0
H799 H 0.47807 0.18162 0.25505 0.0
H800 H 0.68557 0.97627 0.75745 0.0
H801 H 0.67384 0.00687 0.73016 0.0
H802 H 0.63937 0.03759 0.79149 0.0
H803 H 0.65083 0.00727 0.81879 0.0
H804 H 0.6129 0.02908 0.74832 0.0
H805 H 0.69146 0.07431 0.72626 0.0
H806 H 0.69196 0.04452 0.72303 0.0
H807 H 0.68865 0.05659 0.75328 0.0
C808 C 0.67584 -0.01025 0.76523 0.0
C809 C 0.66899 -0.01079 0.79026 0.0
C810 C 0.66924 0.00725 0.74963 0.0
C811 C 0.65583 0.0245 0.75888 0.0
C812 C 0.64975 0.02444 0.78404 0.0
H813 H 0.60033 0.14567 0.69879 0.0
H814 H 0.62206 0.11786 0.72172 0.0
C815 C 0.65631 0.00704 0.79959 0.0
C816 C 0.64613 0.04143 0.74205 0.0
H817 H 0.65866 0.08628 0.70552 0.0
C818 C 0.6229 0.04155 0.73891 0.0
C819 C 0.65927 0.0577 0.72996 0.0
C820 C 0.68422 0.05851 0.73333 0.0
C821 C 0.61239 0.05756 0.72401 0.0
C822 C 0.62549 0.07374 0.71173 0.0
C823 C 0.64874 0.07371 0.71486 0.0
C824 C 0.61497 0.09109 0.69613 0.0
C825 C 0.58727 0.05734 0.72187 0.0
C826 C 0.60435 0.0853 0.67385 0.0
C827 C 0.5919 0.10108 0.66073 0.0
C828 C 0.58985 0.12296 0.66969 0.0
C829 C 0.60145 0.12895 0.69144 0.0
C830 C 0.61394 0.11313 0.70453 0.0
H831 H 0.57942 0.04642 0.73608 0.0
H832 H 0.58042 0.07441 0.7239 0.0
H833 H 0.58247 0.05112 0.70321 0.0
H834 H 0.60512 0.06837 0.66703 0.0
H835 H 0.58334 0.09591 0.64397 0.0
H836 H 0.09565 0.40742 0.31645 0.0
H837 H 0.06867 0.38419 0.29477 0.0
H838 H 0.12171 0.34064 0.27082 0.0
H839 H 0.149 0.3645 0.29161 0.0
H840 H 0.09645 0.34942 0.2336 0.0
H841 H 0.04069 0.32631 0.31081 0.0
H842 H 0.04304 0.35596 0.30922 0.0
H843 H 0.06738 0.33934 0.31606 0.0
C844 C 0.10157 0.39274 0.30685 0.0
C845 C 0.12447 0.38779 0.30577 0.0
C846 C 0.08606 0.37932 0.29463 0.0
C847 C 0.09302 0.36031 0.28161 0.0
C848 C 0.11588 0.35511 0.28088 0.0
H849 H 0.98561 0.28057 0.21375 0.0
H850 H 0.01758 0.29072 0.23991 0.0
C851 C 0.13147 0.36877 0.29274 0.0
C852 C 0.07666 0.34714 0.26699 0.0
H853 H 0.02426 0.32499 0.26945 0.0
C854 C 0.08085 0.34372 0.24159 0.0
C855 C 0.05649 0.33912 0.2774 0.0
C856 C 0.05178 0.34015 0.30494 0.0
C857 C 0.06492 0.3338 0.22608 0.0
C858 C 0.04386 0.32788 0.23601 0.0
C859 C 0.0402 0.32995 0.26169 0.0
C860 C 0.02499 0.32108 0.21983 0.0
C861 C 0.07084 0.32994 0.19914 0.0
C862 C 0.0183 0.33491 0.20013 0.0
C863 C 0.00034 0.32905 0.18505 0.0
C864 C -0.01175 0.30943 0.18965 0.0
C865 C -0.00537 0.29576 0.2097 0.0
C866 C 0.01288 0.30153 0.22464 0.0
H867 H 0.08907 0.32727 0.19688 0.0
H868 H 0.06191 0.31533 0.19142 0.0
H869 H 0.06626 0.34487 0.1881 0.0
H870 H 0.02682 0.35047 0.19657 0.0
H871 H -0.00431 0.34015 0.17002 0.0
H872 H 0.31398 0.95597 0.8107 0.0
H873 H 0.32372 0.92675 0.78118 0.0
H874 H 0.29942 0.96722 0.72068 0.0
H875 H 0.28945 -0.00329 0.75018 0.0
H876 H 0.29559 0.90454 0.73982 0.0
H877 H 0.36933 0.95426 0.70959 0.0
H878 H 0.35574 0.95907 0.73907 0.0
H879 H 0.34244 0.96763 0.71075 0.0
C880 C 0.31041 0.9586 0.79116 0.0
C881 C 0.30114 0.97877 0.78275 0.0
C882 C 0.3159 0.94183 0.77435 0.0
C883 C 0.3124 0.94495 0.74883 0.0
C884 C 0.30227 0.96461 0.74037 0.0
H885 H 0.37945 0.86706 0.63435 0.0
H886 H 0.3555 0.89451 0.65455 0.0
C887 C 0.29656 0.98138 0.75724 0.0
C888 C 0.32123 0.92835 0.73116 0.0
H889 H 0.36603 0.91817 0.69385 0.0
C890 C 0.31083 0.90753 0.72947 0.0
C891 C 0.34106 0.93243 0.71773 0.0
C892 C 0.35297 0.95449 0.71931 0.0
C893 C 0.32 0.89045 0.71489 0.0
C894 C 0.34043 0.89418 0.70234 0.0
C895 C 0.35039 0.9153 0.70346 0.0
C896 C 0.35259 0.87622 0.68912 0.0
C897 C 0.30768 0.86865 0.7131 0.0
C898 C 0.35878 0.85668 0.70173 0.0
C899 C 0.3723 0.84083 0.69014 0.0
C900 C 0.38025 0.84444 0.66586 0.0
C901 C 0.37369 0.86381 0.65311 0.0
C902 C 0.35996 0.87952 0.66461 0.0
H903 H 0.28947 0.87099 0.71602 0.0
H904 H 0.31031 0.86063 0.69475 0.0
H905 H 0.31382 0.85723 0.72783 0.0
H906 H 0.35387 0.85403 0.72088 0.0
H907 H 0.37718 0.82618 0.70055 0.0
H908 H 0.82529 0.60459 0.28742 0.0
H909 H 0.85376 0.62597 0.26519 0.0
H910 H 0.90462 0.58134 0.29255 0.0
H911 H 0.87645 0.56058 0.31568 0.0
H912 H 0.91925 0.62258 0.29356 0.0
H913 H 0.88119 0.60672 0.20117 0.0
H914 H 0.86303 0.62121 0.22211 0.0
H915 H 0.87153 0.59315 0.22906 0.0
C916 C 0.84257 0.59943 0.28879 0.0
C917 C 0.84861 0.58079 0.30314 0.0
C918 C 0.85881 0.61157 0.27594 0.0
C919 C 0.88128 0.60495 0.27668 0.0
C920 C 0.88739 0.58674 0.29159 0.0
H921 H 0.98355 0.62659 0.16884 0.0
H922 H 0.953 0.6141 0.19524 0.0
C923 C 0.87125 0.57485 0.30479 0.0
C924 C 0.8985 0.61652 0.26158 0.0
H925 H 0.91282 0.62998 0.20198 0.0
C926 C 0.91784 0.62426 0.27352 0.0
C927 C 0.89674 0.61849 0.2354 0.0
C928 C 0.87712 0.60927 0.22113 0.0
C929 C 0.93567 0.63342 0.26001 0.0
C930 C 0.93378 0.63562 0.23387 0.0
C931 C 0.9142 0.62841 0.22202 0.0
C932 C 0.95248 0.64368 0.21813 0.0
C933 C 0.95669 0.63966 0.2738 0.0
C934 C 0.96236 0.66457 0.22206 0.0
C935 C 0.98021 0.67162 0.2072 0.0
C936 C -0.01191 0.65811 0.18777 0.0
C937 C 0.97784 0.63744 0.18358 0.0
C938 C 0.96033 0.63028 0.19866 0.0
H939 H 0.9576 0.6315 0.29234 0.0
H940 H 0.97178 0.63498 0.26303 0.0
H941 H 0.95694 0.65791 0.27675 0.0
H942 H 0.95623 0.67548 0.23652 0.0
H943 H -0.01237 0.68773 0.21071 0.0
H944 H 0.67835 -0.00122 0.22676 0.0
H945 H 0.66618 0.96945 0.25551 0.0
H946 H 0.64625 0.92885 0.19341 0.0
H947 H 0.65803 0.95806 0.16458 0.0
H948 H 0.61752 0.95188 0.25113 0.0
H949 H 0.68434 0.88789 0.24436 0.0
H950 H 0.68953 0.91715 0.239 0.0
H951 H 0.67533 0.901 0.21591 0.0
C952 C 0.67176 0.98344 0.21921 0.0
C953 C 0.66903 0.98077 0.1934 0.0
C954 C 0.66481 0.96675 0.23566 0.0
C955 C 0.65549 0.94702 0.22649 0.0
C956 C 0.65363 0.94392 0.20076 0.0
H957 H 0.58931 0.82902 0.27575 0.0
H958 H 0.61157 0.85757 0.25499 0.0
C959 C 0.66027 0.96066 0.18435 0.0
C960 C 0.64551 0.93056 0.2436 0.0
H961 H 0.6509 0.8773 0.26471 0.0
C962 C 0.6249 0.93566 0.25447 0.0
C963 C 0.65515 0.90943 0.24749 0.0
C964 C 0.67739 0.90343 0.23624 0.0
C965 C 0.61315 0.9198 0.26843 0.0
C966 C 0.6227 0.89849 0.27227 0.0
C967 C 0.64364 0.89363 0.26185 0.0
C968 C 0.61061 0.88066 0.2858 0.0
C969 C 0.59016 0.9257 0.27781 0.0
C970 C 0.60315 0.88389 0.31028 0.0
C971 C 0.59011 0.86774 0.32206 0.0
C972 C 0.5847 0.84784 0.30977 0.0
C973 C 0.59313 0.84418 0.28572 0.0
C974 C 0.60589 0.86048 0.27383 0.0
H975 H 0.58302 0.94019 0.26771 0.0
H976 H 0.57851 0.91145 0.27585 0.0
H977 H 0.59119 0.93014 0.29779 0.0
H978 H 0.60712 0.89905 0.32015 0.0
H979 H 0.58413 0.87092 0.34073 0.0
H980 H 0.82323 0.37333 0.69584 0.0
H981 H 0.8516 0.35209 0.71848 0.0
H982 H 0.90131 0.37236 0.66515 0.0
H983 H 0.8732 0.39374 0.64244 0.0
H984 H 0.88359 0.31735 0.70275 0.0
H985 H 0.92303 0.39623 0.73404 0.0
H986 H 0.89522 0.39525 0.7212 0.0
H987 H 0.91904 0.39349 0.70105 0.0
C988 C 0.84013 0.37308 0.68873 0.0
C989 C 0.84598 0.38548 0.66748 0.0
C990 C 0.85629 0.36087 0.70166 0.0
C991 C 0.87854 0.36091 0.69361 0.0
C992 C 0.88424 0.37235 0.67178 0.0
H993 H -0.00695 0.28905 0.75509 0.0
H994 H 0.96277 0.30142 0.72763 0.0
C995 C 0.86813 0.38455 0.65883 0.0
C996 C 0.89608 0.35041 0.70905 0.0
H997 H 0.94086 0.36285 0.74563 0.0
C998 C 0.89618 0.32722 0.7121 0.0
C999 C 0.91228 0.36344 0.72138 0.0
C1000 C 0.91241 0.3885 0.7195 0.0
C1001 C 0.91224 0.31668 0.72715 0.0
C1002 C 0.92854 0.32973 0.73927 0.0
C1003 C 0.92838 0.3529 0.73619 0.0
C1004 C 0.94547 0.32 0.75615 0.0
C1005 C 0.91137 0.29179 0.73048 0.0
C1006 C 0.94567 0.32625 0.78124 0.0
C1007 C 0.96291 0.31935 0.79688 0.0
C1008 C 0.98043 0.30611 0.78773 0.0
C1009 C 0.97979 0.29919 0.76274 0.0
C1010 C 0.96247 0.30616 0.74705 0.0
H1011 H 0.89538 0.28467 0.72373 0.0
H1012 H 0.92519 0.28406 0.71982 0.0
H1013 H 0.91359 0.28725 0.75036 0.0
H1014 H 0.93271 0.33696 0.78859 0.0
H1015 H 0.96275 0.32491 0.81602 0.0
H1016 H 0.39207 0.09649 0.33164 0.0
H1017 H 0.37075 0.06887 0.30836 0.0
H1018 H 0.35296 0.1187 0.25408 0.0
H1019 H 0.37415 0.14658 0.27728 0.0
H1020 H 0.31703 0.0878 0.26896 0.0
H1021 H 0.39595 0.04634 0.24036 0.0
H1022 H 0.39252 0.05053 0.27324 0.0
H1023 H 0.39529 0.07414 0.25295 0.0
C1024 C 0.38344 0.1017 0.31491 0.0
C1025 C 0.38505 0.12372 0.30617 0.0
C1026 C 0.37129 0.08586 0.30163 0.0
C1027 C 0.36056 0.09173 0.27939 0.0
C1028 C 0.36119 0.11388 0.27121 0.0
H1029 H 0.32511 0.00561 0.15834 0.0
H1030 H 0.33765 0.03605 0.18473 0.0
C1031 C 0.37337 0.12976 0.28446 0.0
C1032 C 0.35004 0.07445 0.26378 0.0
H1033 H 0.36233 0.02908 0.22836 0.0
C1034 C 0.32686 0.07491 0.26008 0.0
C1035 C 0.36302 0.05789 0.25204 0.0
C1036 C 0.3881 0.05718 0.2546 0.0
C1037 C 0.31627 0.059 0.24504 0.0
C1038 C 0.32926 0.04224 0.23362 0.0
C1039 C 0.35243 0.04191 0.23726 0.0
C1040 C 0.31942 0.02511 0.21723 0.0
C1041 C 0.29141 0.06045 0.24104 0.0
C1042 C 0.30476 0.009 0.2267 0.0
C1043 C 0.29751 -0.00852 0.21163 0.0
C1044 C 0.30496 -0.01026 0.18688 0.0
C1045 C 0.3191 0.00634 0.17732 0.0
C1046 C 0.32629 0.02379 0.19236 0.0
H1047 H 0.28463 0.07688 0.24672 0.0
H1048 H 0.28716 0.05753 0.22121 0.0
H1049 H 0.28304 0.04742 0.25231 0.0
H1050 H 0.29955 0.00954 0.24598 0.0
H1051 H 0.28666 0.97895 0.2196 0.0
H1052 H 0.09791 0.57871 0.64161 0.0
H1053 H 0.06925 0.59966 0.66375 0.0
H1054 H 0.11683 0.6162 0.72095 0.0
H1055 H 0.14575 0.59551 0.69879 0.0
H1056 H 0.05476 0.58915 0.71077 0.0
H1057 H 0.08603 0.67592 0.70792 0.0
H1058 H 0.09641 0.65447 0.68746 0.0
H1059 H 0.10619 0.65612 0.71902 0.0
C1060 C 0.10242 0.58707 0.6587 0.0
C1061 C 0.12414 0.58534 0.66847 0.0
C1062 C 0.086 0.59906 0.67131 0.0
C1063 C 0.09096 0.60967 0.69385 0.0
C1064 C 0.11275 0.60852 0.70333 0.0
H1065 H 0.00297 0.63835 0.81517 0.0
H1066 H 0.03267 0.62618 0.78735 0.0
C1067 C 0.12923 0.59654 0.69071 0.0
C1068 C 0.07284 0.62004 0.70857 0.0
H1069 H 0.05647 0.66831 0.73663 0.0
C1070 C 0.05504 0.60651 0.71622 0.0
C1071 C 0.07317 0.64272 0.7155 0.0
C1072 C 0.09136 0.65824 0.70687 0.0
C1073 C 0.03788 0.61488 0.7312 0.0
C1074 C 0.03868 0.6373 0.739 0.0
C1075 C 0.05608 0.65106 0.73077 0.0
C1076 C 0.0218 0.64635 0.75628 0.0
C1077 C 0.01902 0.59964 0.73869 0.0
C1078 C 0.00627 0.66227 0.7482 0.0
C1079 C -0.01083 0.66931 0.76408 0.0
C1080 C -0.01256 0.66059 0.78833 0.0
C1081 C 0.00364 0.64531 0.79658 0.0
C1082 C 0.02064 0.63828 0.78071 0.0
H1083 H 0.01814 0.58468 0.72664 0.0
H1084 H 0.02166 0.594 0.75814 0.0
H1085 H 0.00277 0.60849 0.73783 0.0
H1086 H 0.00699 0.66872 0.72939 0.0
H1087 H 0.97704 0.68117 0.75716 0.0
H1088 H 0.18554 0.54332 0.56623 0.0
H1089 H 0.19075 0.52597 0.52566 0.0
H1090 H 0.25006 0.49306 0.55252 0.0
H1091 H 0.24457 0.5099 0.59353 0.0
H1092 H 0.22407 0.52733 0.49178 0.0
H1093 H 0.21342 0.4412 0.52757 0.0
H1094 H 0.20741 0.46537 0.5462 0.0
H1095 H 0.23577 0.45648 0.54172 0.0
C1096 C 0.19977 0.53248 0.5635 0.0
C1097 C 0.21452 0.52778 0.58315 0.0
C1098 C 0.20274 0.5226 0.54028 0.0
C1099 C 0.22055 0.50789 0.5362 0.0
C1100 C 0.23589 0.50392 0.55545 0.0
H1101 H 0.24485 0.46044 0.38373 0.0
H1102 H 0.25066 0.47711 0.42477 0.0
C1103 C 0.23281 0.51366 0.57881 0.0
C1104 C 0.22249 0.4964 0.51193 0.0
H1105 H 0.22073 0.44516 0.48475 0.0
C1106 C 0.2235 0.50936 0.49021 0.0
C1107 C 0.2215 0.47295 0.50997 0.0
C1108 C 0.21926 0.45814 0.53256 0.0
C1109 C 0.22301 0.49956 0.46655 0.0
C1110 C 0.22209 0.4761 0.4646 0.0
C1111 C 0.22162 0.46312 0.48632 0.0
C1112 C 0.21971 0.46478 0.44027 0.0
C1113 C 0.22244 0.51447 0.44393 0.0
C1114 C 0.20089 0.45153 0.43572 0.0
C1115 C 0.19771 0.44172 0.41249 0.0
C1116 C 0.21327 0.44506 0.3933 0.0
C1117 C 0.23247 0.45776 0.3981 0.0
C1118 C 0.23575 0.46741 0.42146 0.0
H1119 H 0.21789 0.53185 0.44878 0.0
H1120 H 0.23921 0.51477 0.4352 0.0
H1121 H 0.21032 0.50824 0.42997 0.0
H1122 H 0.18834 0.4492 0.45 0.0
H1123 H 0.18276 0.432 0.4094 0.0
H1124 H 0.54111 0.7855 0.41206 0.0
H1125 H 0.52489 0.77814 0.4528 0.0
H1126 H 0.49322 0.71907 0.42422 0.0
H1127 H 0.50891 0.72675 0.383 0.0
H1128 H 0.46443 0.74331 0.44967 0.0
H1129 H 0.54077 0.73445 0.50617 0.0
H1130 H 0.54118 0.76017 0.48929 0.0
H1131 H 0.54137 0.73419 0.47261 0.0
C1132 C 0.53094 0.77077 0.41448 0.0
C1133 C 0.5263 0.75669 0.39432 0.0
C1134 C 0.52181 0.76648 0.43787 0.0
C1135 C 0.5082 0.7478 0.44173 0.0
C1136 C 0.50382 0.73349 0.42171 0.0
H1137 H 0.46344 0.72683 0.59555 0.0
H1138 H 0.47953 0.71947 0.55449 0.0
C1139 C 0.51279 0.73789 0.39819 0.0
C1140 C 0.49721 0.74436 0.46615 0.0
H1141 H 0.50725 0.74461 0.52861 0.0
C1142 C 0.47382 0.74319 0.46693 0.0
C1143 C 0.50942 0.74369 0.48868 0.0
C1144 C 0.53458 0.74293 0.48913 0.0
C1145 C 0.46229 0.74275 0.48962 0.0
C1146 C 0.47446 0.74416 0.51213 0.0
C1147 C 0.49788 0.74393 0.51137 0.0
C1148 C 0.46332 0.74739 0.53649 0.0
C1149 C 0.43719 0.74097 0.48919 0.0
C1150 C 0.4489 0.76552 0.54002 0.0
C1151 C 0.43955 0.76962 0.56333 0.0
C1152 C 0.44476 0.7559 0.58372 0.0
C1153 C 0.45911 0.73768 0.58018 0.0
C1154 C 0.46831 0.73346 0.55675 0.0
H1155 H 0.43136 0.73207 0.4723 0.0
H1156 H 0.43077 0.73212 0.50587 0.0
H1157 H 0.42986 0.75792 0.48873 0.0
H1158 H 0.44533 0.7769 0.5249 0.0
H1159 H 0.42873 0.78392 0.56551 0.0
H1160 H 0.78767 0.54218 0.40791 0.0
H1161 H 0.78202 0.52524 0.44871 0.0
H1162 H 0.71979 0.49708 0.42362 0.0
H1163 H 0.72568 0.51349 0.38238 0.0
H1164 H 0.74962 0.52906 0.48351 0.0
H1165 H 0.75295 0.44248 0.44771 0.0
H1166 H 0.76037 0.46617 0.42885 0.0
H1167 H 0.73152 0.45948 0.43413 0.0
C1168 C 0.77271 0.53249 0.41108 0.0
C1169 C 0.75723 0.52896 0.39186 0.0
C1170 C 0.76949 0.52283 0.43443 0.0
C1171 C 0.7507 0.50954 0.43906 0.0
C1172 C 0.73469 0.50681 0.42025 0.0
H1173 H 0.72675 0.46346 0.59243 0.0
H1174 H 0.72106 0.48068 0.55155 0.0
C1175 C 0.738 0.51631 0.39677 0.0
C1176 C 0.74843 0.49817 0.46342 0.0
H1177 H 0.74699 0.44685 0.49071 0.0
C1178 C 0.74888 0.51109 0.48512 0.0
C1179 C 0.7477 0.4747 0.46542 0.0
C1180 C 0.7483 0.45984 0.44283 0.0
C1181 C 0.74919 0.5012 0.50879 0.0
C1182 C 0.74843 0.47774 0.51079 0.0
C1183 C 0.7474 0.46483 0.4891 0.0
C1184 C 0.75061 0.46618 0.53506 0.0
C1185 C 0.7514 0.51596 0.53134 0.0
C1186 C 0.76855 0.45158 0.53901 0.0
C1187 C 0.77164 0.44148 0.56215 0.0
C1188 C 0.75689 0.44586 0.58185 0.0
C1189 C 0.73852 0.45995 0.57766 0.0
C1190 C 0.73532 0.4699 0.55438 0.0
H1191 H 0.75705 0.53298 0.52629 0.0
H1192 H 0.73493 0.51742 0.5406 0.0
H1193 H 0.7634 0.50881 0.54492 0.0
H1194 H 0.78051 0.44841 0.52433 0.0
H1195 H 0.78593 0.43069 0.56477 0.0
H1196 H 0.41865 0.19395 0.41165 0.0
H1197 H 0.43443 0.19847 0.45323 0.0
H1198 H 0.49008 0.23452 0.42216 0.0
H1199 H 0.47402 0.23065 0.38056 0.0
H1200 H 0.47307 0.18148 0.46825 0.0
H1201 H 0.47509 0.27282 0.48132 0.0
H1202 H 0.45918 0.25977 0.45686 0.0
H1203 H 0.48871 0.26407 0.45328 0.0
C1204 C 0.43406 0.20318 0.41372 0.0
C1205 C 0.44513 0.2119 0.39285 0.0
C1206 C 0.44305 0.20574 0.43749 0.0
C1207 C 0.46333 0.21701 0.44086 0.0
C1208 C 0.47416 0.22622 0.42011 0.0
H1209 H 0.55217 0.19123 0.56473 0.0
H1210 H 0.53516 0.19553 0.52365 0.0
C1211 C 0.46504 0.22386 0.39631 0.0
C1212 C 0.47405 0.21723 0.46572 0.0
H1213 H 0.49644 0.25111 0.51011 0.0
C1214 C 0.47804 0.19673 0.47745 0.0
C1215 C 0.48036 0.23714 0.47782 0.0
C1216 C 0.47542 0.25971 0.4668 0.0
C1217 C 0.48838 0.19553 0.50078 0.0
C1218 C 0.49553 0.21536 0.51241 0.0
C1219 C 0.49123 0.23592 0.50094 0.0
C1220 C 0.50712 0.21494 0.53674 0.0
C1221 C 0.49118 0.17302 0.51291 0.0
C1222 C 0.49758 0.22539 0.55747 0.0
C1223 C 0.5074 0.22321 0.58094 0.0
C1224 C 0.52691 0.21048 0.58401 0.0
C1225 C 0.53698 0.20092 0.56299 0.0
C1226 C 0.52726 0.20327 0.53954 0.0
H1227 H 0.47952 0.16055 0.50498 0.0
H1228 H 0.50844 0.16698 0.50972 0.0
H1229 H 0.48833 0.17397 0.53329 0.0
H1230 H 0.48211 0.2346 0.55565 0.0
H1231 H 0.49932 0.23084 0.59675 0.0
H1232 H 0.68565 0.03864 0.06768 0.0
H1233 H 0.69112 0.02083 0.02743 0.0
H1234 H 0.75108 -0.01061 0.05471 0.0
H1235 H 0.74534 0.00672 0.09544 0.0
H1236 H 0.72447 0.02276 -0.00631 0.0
H1237 H 0.71569 0.93657 0.02996 0.0
H1238 H 0.70908 0.96068 0.04843 0.0
H1239 H 0.73765 0.95246 0.04402 0.0
C1240 C 0.70006 0.02801 0.06513 0.0
C1241 C 0.71496 0.02391 0.08481 0.0
C1242 C 0.70318 0.01786 0.04209 0.0
C1243 C 0.72128 0.00347 0.0382 0.0
C1244 C 0.7367 1e-05 0.0575 0.0
H1245 H 0.74592 0.95644 0.88568 0.0
H1246 H 0.75182 0.97285 0.92682 0.0
C1247 C 0.73348 0.01003 0.08069 0.0
C1248 C 0.72351 -0.00811 0.014 0.0
H1249 H 0.7227 0.94052 0.98707 0.0
C1250 C 0.72425 0.00478 -0.00778 0.0
C1251 C 0.723 0.96842 0.01217 0.0
C1252 C 0.72111 0.95367 0.03484 0.0
C1253 C 0.7239 -0.00512 0.96861 0.0
C1254 C 0.72342 0.9714 0.96677 0.0
C1255 C 0.72325 0.9585 -0.01144 0.0
C1256 C 0.72116 0.95998 0.94249 0.0
C1257 C 0.72296 0.00971 0.94593 0.0
C1258 C 0.70252 0.94645 0.93801 0.0
C1259 C 0.69929 0.93679 0.91471 0.0
C1260 C 0.71462 0.94056 0.89539 0.0
C1261 C 0.73371 0.95344 0.90014 0.0
C1262 C 0.73703 0.96294 0.92358 0.0
H1263 H 0.7181 0.02701 0.95073 0.0
H1264 H 0.73969 0.0103 0.93713 0.0
H1265 H 0.71091 0.00321 0.93205 0.0
H1266 H 0.69011 0.94387 0.95238 0.0
H1267 H 0.68444 0.92691 0.91165 0.0
H1268 H 0.04204 0.2869 0.91101 0.0
H1269 H 0.02575 0.28039 0.95192 0.0
H1270 H -0.0066 0.22122 0.92455 0.0
H1271 H 0.00916 0.22802 0.8832 0.0
H1272 H 0.96486 0.24648 0.94942 0.0
H1273 H 0.04112 0.23713 0.00608 0.0
H1274 H 0.04179 0.26258 -0.0113 0.0
H1275 H 0.04166 0.23636 0.97253 0.0
C1276 C 0.0317 0.27233 0.91375 0.0
C1277 C 0.02689 0.25796 0.89389 0.0
C1278 C 0.02253 0.26853 0.93723 0.0
C1279 C 0.00869 0.25008 0.94146 0.0
C1280 C 0.00415 0.23548 0.92175 0.0
H1281 H 0.96365 0.22902 0.09495 0.0
H1282 H 0.97966 0.22206 0.05379 0.0
C1283 C 0.01318 0.23938 0.89816 0.0
C1284 C -0.00236 0.24714 0.96592 0.0
H1285 H 0.00767 0.24745 0.02837 0.0
C1286 C 0.97424 0.24632 0.96668 0.0
C1287 C 0.00984 0.24645 -0.01156 0.0
C1288 C 0.035 0.24542 -0.01111 0.0
C1289 C 0.9627 0.24608 -0.01062 0.0
C1290 C 0.97488 0.24732 0.01187 0.0
C1291 C -0.0017 0.24687 0.01112 0.0
C1292 C 0.96378 0.2504 0.03627 0.0
C1293 C 0.93757 0.24462 -0.01105 0.0
C1294 C 0.94955 0.26863 0.04009 0.0
C1295 C 0.94023 0.27251 0.06347 0.0
C1296 C 0.94529 0.25846 0.08362 0.0
C1297 C 0.95944 0.24013 0.07976 0.0
C1298 C 0.9686 0.23614 0.05628 0.0
H1299 H 0.93159 0.23599 0.97196 0.0
H1300 H 0.93107 0.23568 0.00552 0.0
H1301 H 0.93046 0.26167 -0.01124 0.0
H1302 H 0.9461 0.28024 0.02515 0.0
H1303 H 0.92955 0.28689 0.0659 0.0
H1304 H 0.22802 0.00649 0.88243 0.0
H1305 H 0.22029 -0.00934 0.92356 0.0
H1306 H 0.28133 0.0192 0.95155 0.0
H1307 H 0.28884 0.03551 0.91083 0.0
H1308 H 0.2441 0.96065 0.94902 0.0
H1309 H 0.238 0.0374 0.00482 0.0
H1310 H 0.23743 0.03774 0.97125 0.0
H1311 H 0.26363 0.0366 0.98767 0.0
C1312 C 0.23964 0.00961 0.89745 0.0
C1313 C 0.25899 0.02232 0.89343 0.0
C1314 C 0.2352 0.00055 0.92092 0.0
C1315 C 0.25002 0.00408 0.94075 0.0
C1316 C 0.26933 0.01678 0.93673 0.0
H1317 H 0.28219 0.92502 0.06664 0.0
H1318 H 0.27621 0.94102 0.02548 0.0
C1319 C 0.27369 0.02596 0.91337 0.0
C1320 C 0.24619 -0.00667 0.96523 0.0
H1321 H 0.2461 0.00368 0.02757 0.0
C1322 C 0.24417 0.97008 0.96619 0.0
C1323 C 0.24579 0.00565 0.98761 0.0
C1324 C 0.24608 0.03074 0.98779 0.0
C1325 C 0.24304 0.95874 -0.01101 0.0
C1326 C 0.24456 0.97095 0.0114 0.0
C1327 C 0.24528 -0.00573 0.01041 0.0
C1328 C 0.24692 0.95991 0.03595 0.0
C1329 C 0.24041 0.93379 -0.0112 0.0
C1330 C 0.23268 0.96549 0.05572 0.0
C1331 C 0.23629 0.9566 0.07945 0.0
C1332 C 0.25421 0.94201 0.0838 0.0
C1333 C 0.26813 0.93608 0.06386 0.0
C1334 C 0.26462 0.94509 0.04023 0.0
H1335 H 0.23169 0.92814 0.9717 0.0
H1336 H 0.25716 0.92592 -0.011 0.0
H1337 H 0.23095 0.92784 0.00527 0.0
H1338 H 0.219 0.97701 0.05288 0.0
H1339 H 0.22529 0.96148 0.09446 0.0
H1340 H 0.91786 0.69336 0.91301 0.0
H1341 H 0.93395 0.69861 0.95433 0.0
H1342 H -0.01166 0.73579 0.92216 0.0
H1343 H 0.97199 0.73114 0.88081 0.0
H1344 H 0.97341 0.68265 0.96874 0.0
H1345 H 0.97285 0.77409 0.98137 0.0
H1346 H 0.95694 0.76045 0.95732 0.0
H1347 H -0.01373 0.76556 0.95312 0.0
C1348 C 0.93305 0.70299 0.91478 0.0
C1349 C 0.9437 0.71178 0.89367 0.0
C1350 C 0.94222 0.70598 0.9384 0.0
C1351 C 0.96224 0.71777 0.94138 0.0
C1352 C 0.97262 0.72707 0.9204 0.0
H1353 H 0.05349 0.69525 0.06369 0.0
H1354 H 0.03591 0.69922 0.02289 0.0
C1355 C 0.96333 0.72426 0.89675 0.0
C1356 C 0.97324 0.71841 0.96608 0.0
H1357 H -0.00493 0.75311 0.01001 0.0
C1358 C 0.97801 0.69808 0.97781 0.0
C1359 C 0.97907 0.73855 0.978 0.0
C1360 C 0.97333 0.76091 0.96693 0.0
C1361 C -0.01132 0.69728 0.00097 0.0
C1362 C -0.00467 0.71736 0.01244 0.0
C1363 C -0.00976 0.73775 0.00098 0.0
C1364 C 0.00724 0.71735 0.03657 0.0
C1365 C -0.00759 0.67491 0.01312 0.0
C1366 C -0.00252 0.72721 0.05754 0.0
C1367 C 0.00762 0.72518 0.08087 0.0
C1368 C 0.02765 0.71321 0.08354 0.0
C1369 C 0.03792 0.70433 0.06227 0.0
C1370 C 0.02787 0.70651 0.03897 0.0
H1371 H 0.98116 0.662 0.00533 0.0
H1372 H 0.00986 0.66952 0.0098 0.0
H1373 H -0.01033 0.67581 0.03352 0.0
H1374 H 0.98162 0.73577 0.05602 0.0
H1375 H -0.00064 0.73229 0.0969 0.0
loop_
_geom_bond_atom_site_label_1
_geom_bond_atom_site_label_2
_geom_bond_distance
_geom_bond_site_symmetry_2
_ccdc_geom_bond_type
C0 O1 1.306 . S
C0 O3 1.160 . S
O1 C0 1.306 . S
O1 Cd2 2.228 . S
Cd2 O1 2.228 . S
Cd2 O6 2.273 . S
Cd2 O10 2.277 . S
O3 C0 1.160 . S
O3 Cd4 2.203 . S
Cd4 O3 2.203 . S
Cd4 O6 2.411 . S
Cd4 O7 2.333 . S
Cd4 O8 2.352 . S
Cd4 O12 2.277 . S
Cd4 O13 2.356 . S
C5 O10 1.209 . S
C5 O12 1.226 . S
O6 Cd2 2.273 . S
O6 Cd4 2.411 . S
O6 C9 1.320 . S
O7 Cd4 2.333 . S
O7 C9 1.214 . S
O8 Cd4 2.352 . S
O8 C11 1.258 . S
C9 O6 1.320 . S
C9 O7 1.214 . S
O10 Cd2 2.277 . S
O10 C5 1.209 . S
C11 O8 1.258 . S
C11 O13 1.282 . S
O12 Cd4 2.277 . S
O12 C5 1.226 . S
O13 Cd4 2.356 . S
O13 C11 1.282 . S
C14 O15 1.306 . S
C14 O17 1.160 . S
O15 C14 1.306 . S
O15 Cd16 2.228 . S
Cd16 O15 2.228 . S
Cd16 O20 2.273 . S
Cd16 O24 2.277 . S
O17 C14 1.160 . S
O17 Cd18 2.203 . S
Cd18 O17 2.203 . S
Cd18 O20 2.411 . S
Cd18 O21 2.333 . S
Cd18 O22 2.352 . S
Cd18 O26 2.277 . S
Cd18 O27 2.356 . S
C19 O24 1.209 . S
C19 O26 1.226 . S
O20 Cd16 2.273 . S
O20 Cd18 2.411 . S
O20 C23 1.320 . S
O21 Cd18 2.333 . S
O21 C23 1.214 . S
O22 Cd18 2.352 . S
O22 C25 1.258 . S
C23 O20 1.320 . S
C23 O21 1.214 . S
O24 Cd16 2.277 . S
O24 C19 1.209 . S
C25 O22 1.258 . S
C25 O27 1.282 . S
O26 Cd18 2.277 . S
O26 C19 1.226 . S
O27 Cd18 2.356 . S
O27 C25 1.282 . S
C28 O29 1.306 . S
C28 O31 1.160 . S
O29 C28 1.306 . S
O29 Cd30 2.228 . S
Cd30 O29 2.228 . S
Cd30 O34 2.273 . S
Cd30 O38 2.277 . S
O31 C28 1.160 . S
O31 Cd32 2.203 . S
Cd32 O31 2.203 . S
Cd32 O34 2.411 . S
Cd32 O35 2.333 . S
Cd32 O36 2.352 . S
Cd32 O40 2.277 . S
Cd32 O41 2.356 . S
C33 O38 1.209 . S
C33 O40 1.226 . S
O34 Cd30 2.273 . S
O34 Cd32 2.411 . S
O34 C37 1.320 . S
O35 Cd32 2.333 . S
O35 C37 1.214 . S
O36 Cd32 2.352 . S
O36 C39 1.258 . S
C37 O34 1.320 . S
C37 O35 1.214 . S
O38 Cd30 2.277 . S
O38 C33 1.209 . S
C39 O36 1.258 . S
C39 O41 1.282 . S
O40 Cd32 2.277 . S
O40 C33 1.226 . S
O41 Cd32 2.356 . S
O41 C39 1.282 . S
C42 O43 1.306 . S
C42 O45 1.160 . S
O43 C42 1.306 . S
O43 Cd44 2.228 . S
Cd44 O43 2.228 . S
Cd44 O48 2.273 . S
Cd44 O52 2.277 . S
O45 C42 1.160 . S
O45 Cd46 2.203 . S
Cd46 O45 2.203 . S
Cd46 O48 2.411 . S
Cd46 O49 2.333 . S
Cd46 O50 2.352 . S
Cd46 O54 2.277 . S
Cd46 O55 2.356 . S
C47 O52 1.209 . S
C47 O54 1.226 . S
O48 Cd44 2.273 . S
O48 Cd46 2.411 . S
O48 C51 1.320 . S
O49 Cd46 2.333 . S
O49 C51 1.214 . S
O50 Cd46 2.352 . S
O50 C53 1.258 . S
C51 O48 1.320 . S
C51 O49 1.214 . S
O52 Cd44 2.277 . S
O52 C47 1.209 . S
C53 O50 1.258 . S
C53 O55 1.282 . S
O54 Cd46 2.277 . S
O54 C47 1.226 . S
O55 Cd46 2.356 . S
O55 C53 1.282 . S
C56 O57 1.306 . S
C56 O59 1.160 . S
O57 C56 1.306 . S
O57 Cd58 2.228 . S
Cd58 O57 2.228 . S
Cd58 O62 2.273 . S
Cd58 O66 2.277 . S
O59 C56 1.160 . S
O59 Cd60 2.203 . S
Cd60 O59 2.203 . S
Cd60 O62 2.411 . S
Cd60 O63 2.333 . S
Cd60 O64 2.352 . S
Cd60 O68 2.277 . S
Cd60 O69 2.356 . S
C61 O66 1.209 . S
C61 O68 1.226 . S
O62 Cd58 2.273 . S
O62 Cd60 2.411 . S
O62 C65 1.320 . S
O63 Cd60 2.333 . S
O63 C65 1.214 . S
O64 Cd60 2.352 . S
O64 C67 1.258 . S
C65 O62 1.320 . S
C65 O63 1.214 . S
O66 Cd58 2.277 . S
O66 C61 1.209 . S
C67 O64 1.258 . S
C67 O69 1.282 . S
O68 Cd60 2.277 . S
O68 C61 1.226 . S
O69 Cd60 2.356 . S
O69 C67 1.282 . S
C70 O71 1.306 . S
C70 O73 1.160 . S
O71 C70 1.306 . S
O71 Cd72 2.228 . S
Cd72 O71 2.228 . S
Cd72 O76 2.273 . S
Cd72 O80 2.277 . S
O73 C70 1.160 . S
O73 Cd74 2.203 . S
Cd74 O73 2.203 . S
Cd74 O76 2.411 . S
Cd74 O77 2.333 . S
Cd74 O78 2.352 . S
Cd74 O82 2.277 . S
Cd74 O83 2.356 . S
C75 O80 1.209 . S
C75 O82 1.226 . S
O76 Cd72 2.273 . S
O76 Cd74 2.411 . S
O76 C79 1.320 . S
O77 Cd74 2.333 . S
O77 C79 1.214 . S
O78 Cd74 2.352 . S
O78 C81 1.258 . S
C79 O76 1.320 . S
C79 O77 1.214 . S
O80 Cd72 2.277 . S
O80 C75 1.209 . S
C81 O78 1.258 . S
C81 O83 1.282 . S
O82 Cd74 2.277 . S
O82 C75 1.226 . S
O83 Cd74 2.356 . S
O83 C81 1.282 . S
C84 O85 1.306 . S
C84 O87 1.160 . S
O85 C84 1.306 . S
O85 Cd86 2.228 . S
Cd86 O85 2.228 . S
Cd86 O90 2.273 . S
Cd86 O94 2.277 . S
O87 C84 1.160 . S
O87 Cd88 2.203 . S
Cd88 O87 2.203 . S
Cd88 O90 2.411 . S
Cd88 O91 2.333 . S
Cd88 O92 2.352 . S
Cd88 O96 2.277 . S
Cd88 O97 2.356 . S
C89 O94 1.209 . S
C89 O96 1.226 . S
O90 Cd86 2.273 . S
O90 Cd88 2.411 . S
O90 C93 1.320 . S
O91 Cd88 2.333 . S
O91 C93 1.214 . S
O92 Cd88 2.352 . S
O92 C95 1.258 . S
C93 O90 1.320 . S
C93 O91 1.214 . S
O94 Cd86 2.277 . S
O94 C89 1.209 . S
C95 O92 1.258 . S
C95 O97 1.282 . S
O96 Cd88 2.277 . S
O96 C89 1.226 . S
O97 Cd88 2.356 . S
O97 C95 1.282 . S
C98 O99 1.306 . S
C98 O101 1.160 . S
O99 C98 1.306 . S
O99 Cd100 2.228 . S
Cd100 O99 2.228 . S
Cd100 O104 2.273 . S
Cd100 O108 2.277 . S
O101 C98 1.160 . S
O101 Cd102 2.203 . S
Cd102 O101 2.203 . S
Cd102 O104 2.411 . S
Cd102 O105 2.333 . S
Cd102 O106 2.352 . S
Cd102 O110 2.277 . S
Cd102 O111 2.356 . S
C103 O108 1.209 . S
C103 O110 1.226 . S
O104 Cd100 2.273 . S
O104 Cd102 2.411 . S
O104 C107 1.320 . S
O105 Cd102 2.333 . S
O105 C107 1.214 . S
O106 Cd102 2.352 . S
O106 C109 1.258 . S
C107 O104 1.320 . S
C107 O105 1.214 . S
O108 Cd100 2.277 . S
O108 C103 1.209 . S
C109 O106 1.258 . S
C109 O111 1.282 . S
O110 Cd102 2.277 . S
O110 C103 1.226 . S
O111 Cd102 2.356 . S
O111 C109 1.282 . S
C112 O113 1.306 . S
C112 O115 1.160 . S
O113 C112 1.306 . S
O113 Cd114 2.228 . S
Cd114 O113 2.228 . S
Cd114 O118 2.273 . S
Cd114 O122 2.277 . S
O115 C112 1.160 . S
O115 Cd116 2.203 . S
Cd116 O115 2.203 . S
Cd116 O118 2.411 . S
Cd116 O119 2.333 . S
Cd116 O120 2.352 . S
Cd116 O124 2.277 . S
Cd116 O125 2.356 . S
C117 O122 1.209 . S
C117 O124 1.226 . S
O118 Cd114 2.273 . S
O118 Cd116 2.411 . S
O118 C121 1.320 . S
O119 Cd116 2.333 . S
O119 C121 1.214 . S
O120 Cd116 2.352 . S
O120 C123 1.258 . S
C121 O118 1.320 . S
C121 O119 1.214 . S
O122 Cd114 2.277 . S
O122 C117 1.209 . S
C123 O120 1.258 . S
C123 O125 1.282 . S
O124 Cd116 2.277 . S
O124 C117 1.226 . S
O125 Cd116 2.356 . S
O125 C123 1.282 . S
C126 O127 1.306 . S
C126 O129 1.160 . S
O127 C126 1.306 . S
O127 Cd128 2.228 . S
Cd128 O127 2.228 . S
Cd128 O132 2.273 . S
Cd128 O136 2.277 . S
O129 C126 1.160 . S
O129 Cd130 2.203 . S
Cd130 O129 2.203 . S
Cd130 O132 2.411 . S
Cd130 O133 2.333 . S
Cd130 O134 2.352 . S
Cd130 O138 2.277 . S
Cd130 O139 2.356 . S
C131 O136 1.209 . S
C131 O138 1.226 . S
O132 Cd128 2.273 . S
O132 Cd130 2.411 . S
O132 C135 1.320 . S
O133 Cd130 2.333 . S
O133 C135 1.214 . S
O134 Cd130 2.352 . S
O134 C137 1.258 . S
C135 O132 1.320 . S
C135 O133 1.214 . S
O136 Cd128 2.277 . S
O136 C131 1.209 . S
C137 O134 1.258 . S
C137 O139 1.282 . S
O138 Cd130 2.277 . S
O138 C131 1.226 . S
O139 Cd130 2.356 . S
O139 C137 1.282 . S
C140 O141 1.306 . S
C140 O143 1.160 . S
O141 C140 1.306 . S
O141 Cd142 2.228 . S
Cd142 O141 2.228 . S
Cd142 O146 2.273 . S
Cd142 O150 2.277 . S
O143 C140 1.160 . S
O143 Cd144 2.203 . S
Cd144 O143 2.203 . S
Cd144 O146 2.411 . S
Cd144 O147 2.333 . S
Cd144 O148 2.352 . S
Cd144 O152 2.277 . S
Cd144 O153 2.356 . S
C145 O150 1.209 . S
C145 O152 1.226 . S
O146 Cd142 2.273 . S
O146 Cd144 2.411 . S
O146 C149 1.320 . S
O147 Cd144 2.333 . S
O147 C149 1.214 . S
O148 Cd144 2.352 . S
O148 C151 1.258 . S
C149 O146 1.320 . S
C149 O147 1.214 . S
O150 Cd142 2.277 . S
O150 C145 1.209 . S
C151 O148 1.258 . S
C151 O153 1.282 . S
O152 Cd144 2.277 . S
O152 C145 1.226 . S
O153 Cd144 2.356 . S
O153 C151 1.282 . S
C154 O155 1.306 . S
C154 O157 1.160 . S
O155 C154 1.306 . S
O155 Cd156 2.228 . S
Cd156 O155 2.228 . S
Cd156 O160 2.273 . S
Cd156 O164 2.277 . S
O157 C154 1.160 . S
O157 Cd158 2.203 . S
Cd158 O157 2.203 . S
Cd158 O160 2.411 . S
Cd158 O161 2.333 . S
Cd158 O162 2.352 . S
Cd158 O166 2.277 . S
Cd158 O167 2.356 . S
C159 O164 1.209 . S
C159 O166 1.226 . S
O160 Cd156 2.273 . S
O160 Cd158 2.411 . S
O160 C163 1.320 . S
O161 Cd158 2.333 . S
O161 C163 1.214 . S
O162 Cd158 2.352 . S
O162 C165 1.258 . S
C163 O160 1.320 . S
C163 O161 1.214 . S
O164 Cd156 2.277 . S
O164 C159 1.209 . S
C165 O162 1.258 . S
C165 O167 1.282 . S
O166 Cd158 2.277 . S
O166 C159 1.226 . S
O167 Cd158 2.356 . S
O167 C165 1.282 . S
C168 O169 1.306 . S
C168 O171 1.160 . S
O169 C168 1.306 . S
O169 Cd170 2.228 . S
Cd170 O169 2.228 . S
Cd170 O174 2.273 . S
Cd170 O178 2.277 . S
O171 C168 1.160 . S
O171 Cd172 2.203 . S
Cd172 O171 2.203 . S
Cd172 O174 2.411 . S
Cd172 O175 2.333 . S
Cd172 O176 2.352 . S
Cd172 O180 2.277 . S
Cd172 O181 2.356 . S
C173 O178 1.209 . S
C173 O180 1.226 . S
O174 Cd170 2.273 . S
O174 Cd172 2.411 . S
O174 C177 1.320 . S
O175 Cd172 2.333 . S
O175 C177 1.214 . S
O176 Cd172 2.352 . S
O176 C179 1.258 . S
C177 O174 1.320 . S
C177 O175 1.214 . S
O178 Cd170 2.277 . S
O178 C173 1.209 . S
C179 O176 1.258 . S
C179 O181 1.282 . S
O180 Cd172 2.277 . S
O180 C173 1.226 . S
O181 Cd172 2.356 . S
O181 C179 1.282 . S
C182 O183 1.306 . S
C182 O185 1.160 . S
O183 C182 1.306 . S
O183 Cd184 2.228 . S
Cd184 O183 2.228 . S
Cd184 O188 2.273 . S
Cd184 O192 2.277 . S
O185 C182 1.160 . S
O185 Cd186 2.203 . S
Cd186 O185 2.203 . S
Cd186 O188 2.411 . S
Cd186 O189 2.333 . S
Cd186 O190 2.352 . S
Cd186 O194 2.277 . S
Cd186 O195 2.356 . S
C187 O192 1.209 . S
C187 O194 1.226 . S
O188 Cd184 2.273 . S
O188 Cd186 2.411 . S
O188 C191 1.320 . S
O189 Cd186 2.333 . S
O189 C191 1.214 . S
O190 Cd186 2.352 . S
O190 C193 1.258 . S
C191 O188 1.320 . S
C191 O189 1.214 . S
O192 Cd184 2.277 . S
O192 C187 1.209 . S
C193 O190 1.258 . S
C193 O195 1.282 . S
O194 Cd186 2.277 . S
O194 C187 1.226 . S
O195 Cd186 2.356 . S
O195 C193 1.282 . S
C196 O197 1.306 . S
C196 O199 1.160 . S
O197 C196 1.306 . S
O197 Cd198 2.228 . S
Cd198 O197 2.228 . S
Cd198 O202 2.273 . S
Cd198 O206 2.277 . S
O199 C196 1.160 . S
O199 Cd200 2.203 . S
Cd200 O199 2.203 . S
Cd200 O202 2.411 . S
Cd200 O203 2.333 . S
Cd200 O204 2.352 . S
Cd200 O208 2.277 . S
Cd200 O209 2.356 . S
C201 O206 1.209 . S
C201 O208 1.226 . S
O202 Cd198 2.273 . S
O202 Cd200 2.411 . S
O202 C205 1.320 . S
O203 Cd200 2.333 . S
O203 C205 1.214 . S
O204 Cd200 2.352 . S
O204 C207 1.258 . S
C205 O202 1.320 . S
C205 O203 1.214 . S
O206 Cd198 2.277 . S
O206 C201 1.209 . S
C207 O204 1.258 . S
C207 O209 1.282 . S
O208 Cd200 2.277 . S
O208 C201 1.226 . S
O209 Cd200 2.356 . S
O209 C207 1.282 . S
C210 O211 1.306 . S
C210 O213 1.160 . S
O211 C210 1.306 . S
O211 Cd212 2.228 . S
Cd212 O211 2.228 . S
Cd212 O216 2.273 . S
Cd212 O220 2.277 . S
O213 C210 1.160 . S
O213 Cd214 2.203 . S
Cd214 O213 2.203 . S
Cd214 O216 2.411 . S
Cd214 O217 2.333 . S
Cd214 O218 2.352 . S
Cd214 O222 2.277 . S
Cd214 O223 2.356 . S
C215 O220 1.209 . S
C215 O222 1.226 . S
O216 Cd212 2.273 . S
O216 Cd214 2.411 . S
O216 C219 1.320 . S
O217 Cd214 2.333 . S
O217 C219 1.214 . S
O218 Cd214 2.352 . S
O218 C221 1.258 . S
C219 O216 1.320 . S
C219 O217 1.214 . S
O220 Cd212 2.277 . S
O220 C215 1.209 . S
C221 O218 1.258 . S
C221 O223 1.282 . S
O222 Cd214 2.277 . S
O222 C215 1.226 . S
O223 Cd214 2.356 . S
O223 C221 1.282 . S
H224 C232 0.929 . S
H225 C234 0.930 . S
H226 C236 0.930 . S
H227 C239 0.929 . S
H228 C242 0.930 . S
H229 C244 0.960 . S
H230 C244 0.960 . S
H231 C244 0.960 . S
C232 H224 0.929 . S
C232 C233 1.377 . S
C232 C234 1.384 . S
C233 C232 1.377 . S
C233 C239 1.390 . S
C234 H225 0.930 . S
C234 C232 1.384 . S
C234 C235 1.372 . S
C235 C234 1.372 . S
C235 C236 1.400 . S
C235 C240 1.490 . S
C236 H226 0.930 . S
C236 C235 1.400 . S
C236 C239 1.386 . S
H237 C253 0.930 . S
H238 C254 0.931 . S
C239 H227 0.929 . S
C239 C233 1.390 . S
C239 C236 1.386 . S
C240 C235 1.490 . S
C240 C242 1.395 . S
C240 C243 1.403 . S
H241 C247 0.930 . S
C242 H228 0.930 . S
C242 C240 1.395 . S
C242 C245 1.403 . S
C243 C240 1.403 . S
C243 C244 1.524 . S
C243 C247 1.400 . S
C244 H229 0.960 . S
C244 H230 0.960 . S
C244 H231 0.960 . S
C244 C243 1.524 . S
C245 C242 1.403 . S
C245 C246 1.392 . S
C245 C249 1.495 . S
C246 C245 1.392 . S
C246 C247 1.385 . S
C246 C248 1.478 . S
C247 H241 0.930 . S
C247 C243 1.400 . S
C247 C246 1.385 . S
C248 C246 1.478 . S
C248 C250 1.381 . S
C248 C254 1.383 . S
C249 C245 1.495 . S
C249 H255 0.959 . S
C249 H256 0.961 . S
C249 H257 0.960 . S
C250 C248 1.381 . S
C250 C251 1.394 . S
C250 H258 0.930 . S
C251 C250 1.394 . S
C251 C252 1.383 . S
C251 H259 0.929 . S
C252 C251 1.383 . S
C252 C253 1.377 . S
C253 H237 0.930 . S
C253 C252 1.377 . S
C253 C254 1.379 . S
C254 H238 0.931 . S
C254 C248 1.383 . S
C254 C253 1.379 . S
H255 C249 0.959 . S
H256 C249 0.961 . S
H257 C249 0.960 . S
H258 C250 0.930 . S
H259 C251 0.929 . S
H260 C268 0.929 . S
H261 C270 0.930 . S
H262 C272 0.930 . S
H263 C275 0.929 . S
H264 C278 0.930 . S
H265 C280 0.960 . S
H266 C280 0.960 . S
H267 C280 0.960 . S
C268 H260 0.929 . S
C268 C269 1.377 . S
C268 C270 1.384 . S
C269 C268 1.377 . S
C269 C275 1.390 . S
C270 H261 0.930 . S
C270 C268 1.384 . S
C270 C271 1.372 . S
C271 C270 1.372 . S
C271 C272 1.400 . S
C271 C276 1.490 . S
C272 H262 0.930 . S
C272 C271 1.400 . S
C272 C275 1.386 . S
H273 C289 0.930 . S
H274 C290 0.931 . S
C275 H263 0.929 . S
C275 C269 1.390 . S
C275 C272 1.386 . S
C276 C271 1.490 . S
C276 C278 1.395 . S
C276 C279 1.403 . S
H277 C283 0.930 . S
C278 H264 0.930 . S
C278 C276 1.395 . S
C278 C281 1.403 . S
C279 C276 1.403 . S
C279 C280 1.524 . S
C279 C283 1.400 . S
C280 H265 0.960 . S
C280 H266 0.960 . S
C280 H267 0.960 . S
C280 C279 1.524 . S
C281 C278 1.403 . S
C281 C282 1.392 . S
C281 C285 1.495 . S
C282 C281 1.392 . S
C282 C283 1.385 . S
C282 C284 1.478 . S
C283 H277 0.930 . S
C283 C279 1.400 . S
C283 C282 1.385 . S
C284 C282 1.478 . S
C284 C286 1.381 . S
C284 C290 1.383 . S
C285 C281 1.495 . S
C285 H291 0.959 . S
C285 H292 0.961 . S
C285 H293 0.960 . S
C286 C284 1.381 . S
C286 C287 1.394 . S
C286 H294 0.930 . S
C287 C286 1.394 . S
C287 C288 1.383 . S
C287 H295 0.929 . S
C288 C287 1.383 . S
C288 C289 1.377 . S
C289 H273 0.930 . S
C289 C288 1.377 . S
C289 C290 1.379 . S
C290 H274 0.931 . S
C290 C284 1.383 . S
C290 C289 1.379 . S
H291 C285 0.959 . S
H292 C285 0.961 . S
H293 C285 0.960 . S
H294 C286 0.930 . S
H295 C287 0.929 . S
H296 C304 0.929 . S
H297 C306 0.930 . S
H298 C308 0.930 . S
H299 C311 0.929 . S
H300 C314 0.930 . S
H301 C316 0.960 . S
H302 C316 0.960 . S
H303 C316 0.960 . S
C304 H296 0.929 . S
C304 C305 1.377 . S
C304 C306 1.384 . S
C305 C304 1.377 . S
C305 C311 1.390 . S
C306 H297 0.930 . S
C306 C304 1.384 . S
C306 C307 1.372 . S
C307 C306 1.372 . S
C307 C308 1.400 . S
C307 C312 1.490 . S
C308 H298 0.930 . S
C308 C307 1.400 . S
C308 C311 1.386 . S
H309 C325 0.930 . S
H310 C326 0.931 . S
C311 H299 0.929 . S
C311 C305 1.390 . S
C311 C308 1.386 . S
C312 C307 1.490 . S
C312 C314 1.395 . S
C312 C315 1.403 . S
H313 C319 0.930 . S
C314 H300 0.930 . S
C314 C312 1.395 . S
C314 C317 1.403 . S
C315 C312 1.403 . S
C315 C316 1.524 . S
C315 C319 1.400 . S
C316 H301 0.960 . S
C316 H302 0.960 . S
C316 H303 0.960 . S
C316 C315 1.524 . S
C317 C314 1.403 . S
C317 C318 1.392 . S
C317 C321 1.495 . S
C318 C317 1.392 . S
C318 C319 1.385 . S
C318 C320 1.478 . S
C319 H313 0.930 . S
C319 C315 1.400 . S
C319 C318 1.385 . S
C320 C318 1.478 . S
C320 C322 1.381 . S
C320 C326 1.383 . S
C321 C317 1.495 . S
C321 H327 0.959 . S
C321 H328 0.961 . S
C321 H329 0.960 . S
C322 C320 1.381 . S
C322 C323 1.394 . S
C322 H330 0.930 . S
C323 C322 1.394 . S
C323 C324 1.383 . S
C323 H331 0.929 . S
C324 C323 1.383 . S
C324 C325 1.377 . S
C325 H309 0.930 . S
C325 C324 1.377 . S
C325 C326 1.379 . S
C326 H310 0.931 . S
C326 C320 1.383 . S
C326 C325 1.379 . S
H327 C321 0.959 . S
H328 C321 0.961 . S
H329 C321 0.960 . S
H330 C322 0.930 . S
H331 C323 0.929 . S
H332 C340 0.929 . S
H333 C342 0.930 . S
H334 C344 0.930 . S
H335 C347 0.929 . S
H336 C350 0.930 . S
H337 C352 0.960 . S
H338 C352 0.960 . S
H339 C352 0.960 . S
C340 H332 0.929 . S
C340 C341 1.377 . S
C340 C342 1.384 . S
C341 C340 1.377 . S
C341 C347 1.390 . S
C342 H333 0.930 . S
C342 C340 1.384 . S
C342 C343 1.372 . S
C343 C342 1.372 . S
C343 C344 1.400 . S
C343 C348 1.490 . S
C344 H334 0.930 . S
C344 C343 1.400 . S
C344 C347 1.386 . S
H345 C361 0.930 . S
H346 C362 0.931 . S
C347 H335 0.929 . S
C347 C341 1.390 . S
C347 C344 1.386 . S
C348 C343 1.490 . S
C348 C350 1.395 . S
C348 C351 1.403 . S
H349 C355 0.930 . S
C350 H336 0.930 . S
C350 C348 1.395 . S
C350 C353 1.403 . S
C351 C348 1.403 . S
C351 C352 1.524 . S
C351 C355 1.400 . S
C352 H337 0.960 . S
C352 H338 0.960 . S
C352 H339 0.960 . S
C352 C351 1.524 . S
C353 C350 1.403 . S
C353 C354 1.392 . S
C353 C357 1.495 . S
C354 C353 1.392 . S
C354 C355 1.385 . S
C354 C356 1.478 . S
C355 H349 0.930 . S
C355 C351 1.400 . S
C355 C354 1.385 . S
C356 C354 1.478 . S
C356 C358 1.381 . S
C356 C362 1.383 . S
C357 C353 1.495 . S
C357 H363 0.959 . S
C357 H364 0.961 . S
C357 H365 0.960 . S
C358 C356 1.381 . S
C358 C359 1.394 . S
C358 H366 0.930 . S
C359 C358 1.394 . S
C359 C360 1.383 . S
C359 H367 0.929 . S
C360 C359 1.383 . S
C360 C361 1.377 . S
C361 H345 0.930 . S
C361 C360 1.377 . S
C361 C362 1.379 . S
C362 H346 0.931 . S
C362 C356 1.383 . S
C362 C361 1.379 . S
H363 C357 0.959 . S
H364 C357 0.961 . S
H365 C357 0.960 . S
H366 C358 0.930 . S
H367 C359 0.929 . S
H368 C376 0.929 . S
H369 C378 0.930 . S
H370 C380 0.930 . S
H371 C383 0.929 . S
H372 C386 0.930 . S
H373 C388 0.960 . S
H374 C388 0.960 . S
H375 C388 0.960 . S
C376 H368 0.929 . S
C376 C377 1.377 . S
C376 C378 1.384 . S
C377 C376 1.377 . S
C377 C383 1.390 . S
C378 H369 0.930 . S
C378 C376 1.384 . S
C378 C379 1.372 . S
C379 C378 1.372 . S
C379 C380 1.400 . S
C379 C384 1.490 . S
C380 H370 0.930 . S
C380 C379 1.400 . S
C380 C383 1.386 . S
H381 C397 0.930 . S
H382 C398 0.931 . S
C383 H371 0.929 . S
C383 C377 1.390 . S
C383 C380 1.386 . S
C384 C379 1.490 . S
C384 C386 1.395 . S
C384 C387 1.403 . S
H385 C391 0.930 . S
C386 H372 0.930 . S
C386 C384 1.395 . S
C386 C389 1.403 . S
C387 C384 1.403 . S
C387 C388 1.524 . S
C387 C391 1.400 . S
C388 H373 0.960 . S
C388 H374 0.960 . S
C388 H375 0.960 . S
C388 C387 1.524 . S
C389 C386 1.403 . S
C389 C390 1.392 . S
C389 C393 1.495 . S
C390 C389 1.392 . S
C390 C391 1.385 . S
C390 C392 1.478 . S
C391 H385 0.930 . S
C391 C387 1.400 . S
C391 C390 1.385 . S
C392 C390 1.478 . S
C392 C394 1.381 . S
C392 C398 1.383 . S
C393 C389 1.495 . S
C393 H399 0.959 . S
C393 H400 0.961 . S
C393 H401 0.960 . S
C394 C392 1.381 . S
C394 C395 1.394 . S
C394 H402 0.930 . S
C395 C394 1.394 . S
C395 C396 1.383 . S
C395 H403 0.929 . S
C396 C395 1.383 . S
C396 C397 1.377 . S
C397 H381 0.930 . S
C397 C396 1.377 . S
C397 C398 1.379 . S
C398 H382 0.931 . S
C398 C392 1.383 . S
C398 C397 1.379 . S
H399 C393 0.959 . S
H400 C393 0.961 . S
H401 C393 0.960 . S
H402 C394 0.930 . S
H403 C395 0.929 . S
H404 C412 0.929 . S
H405 C414 0.930 . S
H406 C416 0.930 . S
H407 C419 0.929 . S
H408 C422 0.930 . S
H409 C424 0.960 . S
H410 C424 0.960 . S
H411 C424 0.960 . S
C412 H404 0.929 . S
C412 C413 1.377 . S
C412 C414 1.384 . S
C413 C412 1.377 . S
C413 C419 1.390 . S
C414 H405 0.930 . S
C414 C412 1.384 . S
C414 C415 1.372 . S
C415 C414 1.372 . S
C415 C416 1.400 . S
C415 C420 1.490 . S
C416 H406 0.930 . S
C416 C415 1.400 . S
C416 C419 1.386 . S
H417 C433 0.930 . S
H418 C434 0.931 . S
C419 H407 0.929 . S
C419 C413 1.390 . S
C419 C416 1.386 . S
C420 C415 1.490 . S
C420 C422 1.395 . S
C420 C423 1.403 . S
H421 C427 0.930 . S
C422 H408 0.930 . S
C422 C420 1.395 . S
C422 C425 1.403 . S
C423 C420 1.403 . S
C423 C424 1.524 . S
C423 C427 1.400 . S
C424 H409 0.960 . S
C424 H410 0.960 . S
C424 H411 0.960 . S
C424 C423 1.524 . S
C425 C422 1.403 . S
C425 C426 1.392 . S
C425 C429 1.495 . S
C426 C425 1.392 . S
C426 C427 1.385 . S
C426 C428 1.478 . S
C427 H421 0.930 . S
C427 C423 1.400 . S
C427 C426 1.385 . S
C428 C426 1.478 . S
C428 C430 1.381 . S
C428 C434 1.383 . S
C429 C425 1.495 . S
C429 H435 0.959 . S
C429 H436 0.961 . S
C429 H437 0.960 . S
C430 C428 1.381 . S
C430 C431 1.394 . S
C430 H438 0.930 . S
C431 C430 1.394 . S
C431 C432 1.383 . S
C431 H439 0.929 . S
C432 C431 1.383 . S
C432 C433 1.377 . S
C433 H417 0.930 . S
C433 C432 1.377 . S
C433 C434 1.379 . S
C434 H418 0.931 . S
C434 C428 1.383 . S
C434 C433 1.379 . S
H435 C429 0.959 . S
H436 C429 0.961 . S
H437 C429 0.960 . S
H438 C430 0.930 . S
H439 C431 0.929 . S
H440 C448 0.929 . S
H441 C450 0.930 . S
H442 C452 0.930 . S
H443 C455 0.929 . S
H444 C458 0.930 . S
H445 C460 0.960 . S
H446 C460 0.960 . S
H447 C460 0.960 . S
C448 H440 0.929 . S
C448 C449 1.377 . S
C448 C450 1.384 . S
C449 C448 1.377 . S
C449 C455 1.390 . S
C450 H441 0.930 . S
C450 C448 1.384 . S
C450 C451 1.372 . S
C451 C450 1.372 . S
C451 C452 1.400 . S
C451 C456 1.490 . S
C452 H442 0.930 . S
C452 C451 1.400 . S
C452 C455 1.386 . S
H453 C469 0.930 . S
H454 C470 0.931 . S
C455 H443 0.929 . S
C455 C449 1.390 . S
C455 C452 1.386 . S
C456 C451 1.490 . S
C456 C458 1.395 . S
C456 C459 1.403 . S
H457 C463 0.930 . S
C458 H444 0.930 . S
C458 C456 1.395 . S
C458 C461 1.403 . S
C459 C456 1.403 . S
C459 C460 1.524 . S
C459 C463 1.400 . S
C460 H445 0.960 . S
C460 H446 0.960 . S
C460 H447 0.960 . S
C460 C459 1.524 . S
C461 C458 1.403 . S
C461 C462 1.392 . S
C461 C465 1.495 . S
C462 C461 1.392 . S
C462 C463 1.385 . S
C462 C464 1.478 . S
C463 H457 0.930 . S
C463 C459 1.400 . S
C463 C462 1.385 . S
C464 C462 1.478 . S
C464 C466 1.381 . S
C464 C470 1.383 . S
C465 C461 1.495 . S
C465 H471 0.959 . S
C465 H472 0.961 . S
C465 H473 0.960 . S
C466 C464 1.381 . S
C466 C467 1.394 . S
C466 H474 0.930 . S
C467 C466 1.394 . S
C467 C468 1.383 . S
C467 H475 0.929 . S
C468 C467 1.383 . S
C468 C469 1.377 . S
C469 H453 0.930 . S
C469 C468 1.377 . S
C469 C470 1.379 . S
C470 H454 0.931 . S
C470 C464 1.383 . S
C470 C469 1.379 . S
H471 C465 0.959 . S
H472 C465 0.961 . S
H473 C465 0.960 . S
H474 C466 0.930 . S
H475 C467 0.929 . S
H476 C484 0.929 . S
H477 C486 0.930 . S
H478 C488 0.930 . S
H479 C491 0.929 . S
H480 C494 0.930 . S
H481 C496 0.960 . S
H482 C496 0.960 . S
H483 C496 0.960 . S
C484 H476 0.929 . S
C484 C485 1.377 . S
C484 C486 1.384 . S
C485 C484 1.377 . S
C485 C491 1.390 . S
C486 H477 0.930 . S
C486 C484 1.384 . S
C486 C487 1.372 . S
C487 C486 1.372 . S
C487 C488 1.400 . S
C487 C492 1.490 . S
C488 H478 0.930 . S
C488 C487 1.400 . S
C488 C491 1.386 . S
H489 C505 0.930 . S
H490 C506 0.931 . S
C491 H479 0.929 . S
C491 C485 1.390 . S
C491 C488 1.386 . S
C492 C487 1.490 . S
C492 C494 1.395 . S
C492 C495 1.403 . S
H493 C499 0.930 . S
C494 H480 0.930 . S
C494 C492 1.395 . S
C494 C497 1.403 . S
C495 C492 1.403 . S
C495 C496 1.524 . S
C495 C499 1.400 . S
C496 H481 0.960 . S
C496 H482 0.960 . S
C496 H483 0.960 . S
C496 C495 1.524 . S
C497 C494 1.403 . S
C497 C498 1.392 . S
C497 C501 1.495 . S
C498 C497 1.392 . S
C498 C499 1.385 . S
C498 C500 1.478 . S
C499 H493 0.930 . S
C499 C495 1.400 . S
C499 C498 1.385 . S
C500 C498 1.478 . S
C500 C502 1.381 . S
C500 C506 1.383 . S
C501 C497 1.495 . S
C501 H507 0.959 . S
C501 H508 0.961 . S
C501 H509 0.960 . S
C502 C500 1.381 . S
C502 C503 1.394 . S
C502 H510 0.930 . S
C503 C502 1.394 . S
C503 C504 1.383 . S
C503 H511 0.929 . S
C504 C503 1.383 . S
C504 C505 1.377 . S
C505 H489 0.930 . S
C505 C504 1.377 . S
C505 C506 1.379 . S
C506 H490 0.931 . S
C506 C500 1.383 . S
C506 C505 1.379 . S
H507 C501 0.959 . S
H508 C501 0.961 . S
H509 C501 0.960 . S
H510 C502 0.930 . S
H511 C503 0.929 . S
H512 C520 0.929 . S
H513 C522 0.930 . S
H514 C524 0.930 . S
H515 C527 0.929 . S
H516 C530 0.930 . S
H517 C532 0.960 . S
H518 C532 0.960 . S
H519 C532 0.960 . S
C520 H512 0.929 . S
C520 C521 1.377 . S
C520 C522 1.384 . S
C521 C520 1.377 . S
C521 C527 1.390 . S
C522 H513 0.930 . S
C522 C520 1.384 . S
C522 C523 1.372 . S
C523 C522 1.372 . S
C523 C524 1.400 . S
C523 C528 1.490 . S
C524 H514 0.930 . S
C524 C523 1.400 . S
C524 C527 1.386 . S
H525 C541 0.930 . S
H526 C542 0.931 . S
C527 H515 0.929 . S
C527 C521 1.390 . S
C527 C524 1.386 . S
C528 C523 1.490 . S
C528 C530 1.395 . S
C528 C531 1.403 . S
H529 C535 0.930 . S
C530 H516 0.930 . S
C530 C528 1.395 . S
C530 C533 1.403 . S
C531 C528 1.403 . S
C531 C532 1.524 . S
C531 C535 1.400 . S
C532 H517 0.960 . S
C532 H518 0.960 . S
C532 H519 0.960 . S
C532 C531 1.524 . S
C533 C530 1.403 . S
C533 C534 1.392 . S
C533 C537 1.495 . S
C534 C533 1.392 . S
C534 C535 1.385 . S
C534 C536 1.478 . S
C535 H529 0.930 . S
C535 C531 1.400 . S
C535 C534 1.385 . S
C536 C534 1.478 . S
C536 C538 1.381 . S
C536 C542 1.383 . S
C537 C533 1.495 . S
C537 H543 0.959 . S
C537 H544 0.961 . S
C537 H545 0.960 . S
C538 C536 1.381 . S
C538 C539 1.394 . S
C538 H546 0.930 . S
C539 C538 1.394 . S
C539 C540 1.383 . S
C539 H547 0.929 . S
C540 C539 1.383 . S
C540 C541 1.377 . S
C541 H525 0.930 . S
C541 C540 1.377 . S
C541 C542 1.379 . S
C542 H526 0.931 . S
C542 C536 1.383 . S
C542 C541 1.379 . S
H543 C537 0.959 . S
H544 C537 0.961 . S
H545 C537 0.960 . S
H546 C538 0.930 . S
H547 C539 0.929 . S
H548 C556 0.929 . S
H549 C558 0.930 . S
H550 C560 0.930 . S
H551 C563 0.929 . S
H552 C566 0.930 . S
H553 C568 0.960 . S
H554 C568 0.960 . S
H555 C568 0.960 . S
C556 H548 0.929 . S
C556 C557 1.377 . S
C556 C558 1.384 . S
C557 C556 1.377 . S
C557 C563 1.390 . S
C558 H549 0.930 . S
C558 C556 1.384 . S
C558 C559 1.372 . S
C559 C558 1.372 . S
C559 C560 1.400 . S
C559 C564 1.490 . S
C560 H550 0.930 . S
C560 C559 1.400 . S
C560 C563 1.386 . S
H561 C577 0.930 . S
H562 C578 0.931 . S
C563 H551 0.929 . S
C563 C557 1.390 . S
C563 C560 1.386 . S
C564 C559 1.490 . S
C564 C566 1.395 . S
C564 C567 1.403 . S
H565 C571 0.930 . S
C566 H552 0.930 . S
C566 C564 1.395 . S
C566 C569 1.403 . S
C567 C564 1.403 . S
C567 C568 1.524 . S
C567 C571 1.400 . S
C568 H553 0.960 . S
C568 H554 0.960 . S
C568 H555 0.960 . S
C568 C567 1.524 . S
C569 C566 1.403 . S
C569 C570 1.392 . S
C569 C573 1.495 . S
C570 C569 1.392 . S
C570 C571 1.385 . S
C570 C572 1.478 . S
C571 H565 0.930 . S
C571 C567 1.400 . S
C571 C570 1.385 . S
C572 C570 1.478 . S
C572 C574 1.381 . S
C572 C578 1.383 . S
C573 C569 1.495 . S
C573 H579 0.959 . S
C573 H580 0.961 . S
C573 H581 0.960 . S
C574 C572 1.381 . S
C574 C575 1.394 . S
C574 H582 0.930 . S
C575 C574 1.394 . S
C575 C576 1.383 . S
C575 H583 0.929 . S
C576 C575 1.383 . S
C576 C577 1.377 . S
C577 H561 0.930 . S
C577 C576 1.377 . S
C577 C578 1.379 . S
C578 H562 0.931 . S
C578 C572 1.383 . S
C578 C577 1.379 . S
H579 C573 0.959 . S
H580 C573 0.961 . S
H581 C573 0.960 . S
H582 C574 0.930 . S
H583 C575 0.929 . S
H584 C592 0.929 . S
H585 C594 0.930 . S
H586 C596 0.930 . S
H587 C599 0.929 . S
H588 C602 0.930 . S
H589 C604 0.960 . S
H590 C604 0.960 . S
H591 C604 0.960 . S
C592 H584 0.929 . S
C592 C593 1.377 . S
C592 C594 1.384 . S
C593 C592 1.377 . S
C593 C599 1.390 . S
C594 H585 0.930 . S
C594 C592 1.384 . S
C594 C595 1.372 . S
C595 C594 1.372 . S
C595 C596 1.400 . S
C595 C600 1.490 . S
C596 H586 0.930 . S
C596 C595 1.400 . S
C596 C599 1.386 . S
H597 C613 0.930 . S
H598 C614 0.931 . S
C599 H587 0.929 . S
C599 C593 1.390 . S
C599 C596 1.386 . S
C600 C595 1.490 . S
C600 C602 1.395 . S
C600 C603 1.403 . S
H601 C607 0.930 . S
C602 H588 0.930 . S
C602 C600 1.395 . S
C602 C605 1.403 . S
C603 C600 1.403 . S
C603 C604 1.524 . S
C603 C607 1.400 . S
C604 H589 0.960 . S
C604 H590 0.960 . S
C604 H591 0.960 . S
C604 C603 1.524 . S
C605 C602 1.403 . S
C605 C606 1.392 . S
C605 C609 1.495 . S
C606 C605 1.392 . S
C606 C607 1.385 . S
C606 C608 1.478 . S
C607 H601 0.930 . S
C607 C603 1.400 . S
C607 C606 1.385 . S
C608 C606 1.478 . S
C608 C610 1.381 . S
C608 C614 1.383 . S
C609 C605 1.495 . S
C609 H615 0.959 . S
C609 H616 0.961 . S
C609 H617 0.960 . S
C610 C608 1.381 . S
C610 C611 1.394 . S
C610 H618 0.930 . S
C611 C610 1.394 . S
C611 C612 1.383 . S
C611 H619 0.929 . S
C612 C611 1.383 . S
C612 C613 1.377 . S
C613 H597 0.930 . S
C613 C612 1.377 . S
C613 C614 1.379 . S
C614 H598 0.931 . S
C614 C608 1.383 . S
C614 C613 1.379 . S
H615 C609 0.959 . S
H616 C609 0.961 . S
H617 C609 0.960 . S
H618 C610 0.930 . S
H619 C611 0.929 . S
H620 C628 0.929 . S
H621 C630 0.930 . S
H622 C632 0.930 . S
H623 C635 0.929 . S
H624 C638 0.930 . S
H625 C640 0.960 . S
H626 C640 0.960 . S
H627 C640 0.960 . S
C628 H620 0.929 . S
C628 C629 1.377 . S
C628 C630 1.384 . S
C629 C628 1.377 . S
C629 C635 1.390 . S
C630 H621 0.930 . S
C630 C628 1.384 . S
C630 C631 1.372 . S
C631 C630 1.372 . S
C631 C632 1.400 . S
C631 C636 1.490 . S
C632 H622 0.930 . S
C632 C631 1.400 . S
C632 C635 1.386 . S
H633 C649 0.930 . S
H634 C650 0.931 . S
C635 H623 0.929 . S
C635 C629 1.390 . S
C635 C632 1.386 . S
C636 C631 1.490 . S
C636 C638 1.395 . S
C636 C639 1.403 . S
H637 C643 0.930 . S
C638 H624 0.930 . S
C638 C636 1.395 . S
C638 C641 1.403 . S
C639 C636 1.403 . S
C639 C640 1.524 . S
C639 C643 1.400 . S
C640 H625 0.960 . S
C640 H626 0.960 . S
C640 H627 0.960 . S
C640 C639 1.524 . S
C641 C638 1.403 . S
C641 C642 1.392 . S
C641 C645 1.495 . S
C642 C641 1.392 . S
C642 C643 1.385 . S
C642 C644 1.478 . S
C643 H637 0.930 . S
C643 C639 1.400 . S
C643 C642 1.385 . S
C644 C642 1.478 . S
C644 C646 1.381 . S
C644 C650 1.383 . S
C645 C641 1.495 . S
C645 H651 0.959 . S
C645 H652 0.961 . S
C645 H653 0.960 . S
C646 C644 1.381 . S
C646 C647 1.394 . S
C646 H654 0.930 . S
C647 C646 1.394 . S
C647 C648 1.383 . S
C647 H655 0.929 . S
C648 C647 1.383 . S
C648 C649 1.377 . S
C649 H633 0.930 . S
C649 C648 1.377 . S
C649 C650 1.379 . S
C650 H634 0.931 . S
C650 C644 1.383 . S
C650 C649 1.379 . S
H651 C645 0.959 . S
H652 C645 0.961 . S
H653 C645 0.960 . S
H654 C646 0.930 . S
H655 C647 0.929 . S
H656 C664 0.929 . S
H657 C666 0.930 . S
H658 C668 0.930 . S
H659 C671 0.929 . S
H660 C674 0.930 . S
H661 C676 0.960 . S
H662 C676 0.960 . S
H663 C676 0.960 . S
C664 H656 0.929 . S
C664 C665 1.377 . S
C664 C666 1.384 . S
C665 C664 1.377 . S
C665 C671 1.390 . S
C666 H657 0.930 . S
C666 C664 1.384 . S
C666 C667 1.372 . S
C667 C666 1.372 . S
C667 C668 1.400 . S
C667 C672 1.490 . S
C668 H658 0.930 . S
C668 C667 1.400 . S
C668 C671 1.386 . S
H669 C685 0.930 . S
H670 C686 0.931 . S
C671 H659 0.929 . S
C671 C665 1.390 . S
C671 C668 1.386 . S
C672 C667 1.490 . S
C672 C674 1.395 . S
C672 C675 1.403 . S
H673 C679 0.930 . S
C674 H660 0.930 . S
C674 C672 1.395 . S
C674 C677 1.403 . S
C675 C672 1.403 . S
C675 C676 1.524 . S
C675 C679 1.400 . S
C676 H661 0.960 . S
C676 H662 0.960 . S
C676 H663 0.960 . S
C676 C675 1.524 . S
C677 C674 1.403 . S
C677 C678 1.392 . S
C677 C681 1.495 . S
C678 C677 1.392 . S
C678 C679 1.385 . S
C678 C680 1.478 . S
C679 H673 0.930 . S
C679 C675 1.400 . S
C679 C678 1.385 . S
C680 C678 1.478 . S
C680 C682 1.381 . S
C680 C686 1.383 . S
C681 C677 1.495 . S
C681 H687 0.959 . S
C681 H688 0.961 . S
C681 H689 0.960 . S
C682 C680 1.381 . S
C682 C683 1.394 . S
C682 H690 0.930 . S
C683 C682 1.394 . S
C683 C684 1.383 . S
C683 H691 0.929 . S
C684 C683 1.383 . S
C684 C685 1.377 . S
C685 H669 0.930 . S
C685 C684 1.377 . S
C685 C686 1.379 . S
C686 H670 0.931 . S
C686 C680 1.383 . S
C686 C685 1.379 . S
H687 C681 0.959 . S
H688 C681 0.961 . S
H689 C681 0.960 . S
H690 C682 0.930 . S
H691 C683 0.929 . S
H692 C700 0.929 . S
H693 C702 0.930 . S
H694 C704 0.930 . S
H695 C707 0.929 . S
H696 C710 0.930 . S
H697 C712 0.960 . S
H698 C712 0.960 . S
H699 C712 0.960 . S
C700 H692 0.929 . S
C700 C701 1.377 . S
C700 C702 1.384 . S
C701 C700 1.377 . S
C701 C707 1.390 . S
C702 H693 0.930 . S
C702 C700 1.384 . S
C702 C703 1.372 . S
C703 C702 1.372 . S
C703 C704 1.400 . S
C703 C708 1.490 . S
C704 H694 0.930 . S
C704 C703 1.400 . S
C704 C707 1.386 . S
H705 C721 0.930 . S
H706 C722 0.931 . S
C707 H695 0.929 . S
C707 C701 1.390 . S
C707 C704 1.386 . S
C708 C703 1.490 . S
C708 C710 1.395 . S
C708 C711 1.403 . S
H709 C715 0.930 . S
C710 H696 0.930 . S
C710 C708 1.395 . S
C710 C713 1.403 . S
C711 C708 1.403 . S
C711 C712 1.524 . S
C711 C715 1.400 . S
C712 H697 0.960 . S
C712 H698 0.960 . S
C712 H699 0.960 . S
C712 C711 1.524 . S
C713 C710 1.403 . S
C713 C714 1.392 . S
C713 C717 1.495 . S
C714 C713 1.392 . S
C714 C715 1.385 . S
C714 C716 1.478 . S
C715 H709 0.930 . S
C715 C711 1.400 . S
C715 C714 1.385 . S
C716 C714 1.478 . S
C716 C718 1.381 . S
C716 C722 1.383 . S
C717 C713 1.495 . S
C717 H723 0.959 . S
C717 H724 0.961 . S
C717 H725 0.960 . S
C718 C716 1.381 . S
C718 C719 1.394 . S
C718 H726 0.930 . S
C719 C718 1.394 . S
C719 C720 1.383 . S
C719 H727 0.929 . S
C720 C719 1.383 . S
C720 C721 1.377 . S
C721 H705 0.930 . S
C721 C720 1.377 . S
C721 C722 1.379 . S
C722 H706 0.931 . S
C722 C716 1.383 . S
C722 C721 1.379 . S
H723 C717 0.959 . S
H724 C717 0.961 . S
H725 C717 0.960 . S
H726 C718 0.930 . S
H727 C719 0.929 . S
H728 C736 0.929 . S
H729 C738 0.930 . S
H730 C740 0.930 . S
H731 C743 0.929 . S
H732 C746 0.930 . S
H733 C748 0.960 . S
H734 C748 0.960 . S
H735 C748 0.960 . S
C736 H728 0.929 . S
C736 C737 1.377 . S
C736 C738 1.384 . S
C737 C736 1.377 . S
C737 C743 1.390 . S
C738 H729 0.930 . S
C738 C736 1.384 . S
C738 C739 1.372 . S
C739 C738 1.372 . S
C739 C740 1.400 . S
C739 C744 1.490 . S
C740 H730 0.930 . S
C740 C739 1.400 . S
C740 C743 1.386 . S
H741 C757 0.930 . S
H742 C758 0.931 . S
C743 H731 0.929 . S
C743 C737 1.390 . S
C743 C740 1.386 . S
C744 C739 1.490 . S
C744 C746 1.395 . S
C744 C747 1.403 . S
H745 C751 0.930 . S
C746 H732 0.930 . S
C746 C744 1.395 . S
C746 C749 1.403 . S
C747 C744 1.403 . S
C747 C748 1.524 . S
C747 C751 1.400 . S
C748 H733 0.960 . S
C748 H734 0.960 . S
C748 H735 0.960 . S
C748 C747 1.524 . S
C749 C746 1.403 . S
C749 C750 1.392 . S
C749 C753 1.495 . S
C750 C749 1.392 . S
C750 C751 1.385 . S
C750 C752 1.478 . S
C751 H745 0.930 . S
C751 C747 1.400 . S
C751 C750 1.385 . S
C752 C750 1.478 . S
C752 C754 1.381 . S
C752 C758 1.383 . S
C753 C749 1.495 . S
C753 H759 0.959 . S
C753 H760 0.961 . S
C753 H761 0.960 . S
C754 C752 1.381 . S
C754 C755 1.394 . S
C754 H762 0.930 . S
C755 C754 1.394 . S
C755 C756 1.383 . S
C755 H763 0.929 . S
C756 C755 1.383 . S
C756 C757 1.377 . S
C757 H741 0.930 . S
C757 C756 1.377 . S
C757 C758 1.379 . S
C758 H742 0.931 . S
C758 C752 1.383 . S
C758 C757 1.379 . S
H759 C753 0.959 . S
H760 C753 0.961 . S
H761 C753 0.960 . S
H762 C754 0.930 . S
H763 C755 0.929 . S
H764 C772 0.929 . S
H765 C774 0.930 . S
H766 C776 0.930 . S
H767 C779 0.929 . S
H768 C782 0.930 . S
H769 C784 0.960 . S
H770 C784 0.960 . S
H771 C784 0.960 . S
C772 H764 0.929 . S
C772 C773 1.377 . S
C772 C774 1.384 . S
C773 C772 1.377 . S
C773 C779 1.390 . S
C774 H765 0.930 . S
C774 C772 1.384 . S
C774 C775 1.372 . S
C775 C774 1.372 . S
C775 C776 1.400 . S
C775 C780 1.490 . S
C776 H766 0.930 . S
C776 C775 1.400 . S
C776 C779 1.386 . S
H777 C793 0.930 . S
H778 C794 0.931 . S
C779 H767 0.929 . S
C779 C773 1.390 . S
C779 C776 1.386 . S
C780 C775 1.490 . S
C780 C782 1.395 . S
C780 C783 1.403 . S
H781 C787 0.930 . S
C782 H768 0.930 . S
C782 C780 1.395 . S
C782 C785 1.403 . S
C783 C780 1.403 . S
C783 C784 1.524 . S
C783 C787 1.400 . S
C784 H769 0.960 . S
C784 H770 0.960 . S
C784 H771 0.960 . S
C784 C783 1.524 . S
C785 C782 1.403 . S
C785 C786 1.392 . S
C785 C789 1.495 . S
C786 C785 1.392 . S
C786 C787 1.385 . S
C786 C788 1.478 . S
C787 H781 0.930 . S
C787 C783 1.400 . S
C787 C786 1.385 . S
C788 C786 1.478 . S
C788 C790 1.381 . S
C788 C794 1.383 . S
C789 C785 1.495 . S
C789 H795 0.959 . S
C789 H796 0.961 . S
C789 H797 0.960 . S
C790 C788 1.381 . S
C790 C791 1.394 . S
C790 H798 0.930 . S
C791 C790 1.394 . S
C791 C792 1.383 . S
C791 H799 0.929 . S
C792 C791 1.383 . S
C792 C793 1.377 . S
C793 H777 0.930 . S
C793 C792 1.377 . S
C793 C794 1.379 . S
C794 H778 0.931 . S
C794 C788 1.383 . S
C794 C793 1.379 . S
H795 C789 0.959 . S
H796 C789 0.961 . S
H797 C789 0.960 . S
H798 C790 0.930 . S
H799 C791 0.929 . S
H800 C808 0.929 1_565 S
H801 C810 0.930 . S
H802 C812 0.930 . S
H803 C815 0.929 . S
H804 C818 0.930 . S
H805 C820 0.960 . S
H806 C820 0.960 . S
H807 C820 0.960 . S
C808 H800 0.929 1_545 S
C808 C809 1.377 . S
C808 C810 1.384 . S
C809 C808 1.377 . S
C809 C815 1.390 . S
C810 H801 0.930 . S
C810 C808 1.384 . S
C810 C811 1.372 . S
C811 C810 1.372 . S
C811 C812 1.400 . S
C811 C816 1.490 . S
C812 H802 0.930 . S
C812 C811 1.400 . S
C812 C815 1.386 . S
H813 C829 0.930 . S
H814 C830 0.931 . S
C815 H803 0.929 . S
C815 C809 1.390 . S
C815 C812 1.386 . S
C816 C811 1.490 . S
C816 C818 1.395 . S
C816 C819 1.403 . S
H817 C823 0.930 . S
C818 H804 0.930 . S
C818 C816 1.395 . S
C818 C821 1.403 . S
C819 C816 1.403 . S
C819 C820 1.524 . S
C819 C823 1.400 . S
C820 H805 0.960 . S
C820 H806 0.960 . S
C820 H807 0.960 . S
C820 C819 1.524 . S
C821 C818 1.403 . S
C821 C822 1.392 . S
C821 C825 1.495 . S
C822 C821 1.392 . S
C822 C823 1.385 . S
C822 C824 1.478 . S
C823 H817 0.930 . S
C823 C819 1.400 . S
C823 C822 1.385 . S
C824 C822 1.478 . S
C824 C826 1.381 . S
C824 C830 1.383 . S
C825 C821 1.495 . S
C825 H831 0.959 . S
C825 H832 0.961 . S
C825 H833 0.960 . S
C826 C824 1.381 . S
C826 C827 1.394 . S
C826 H834 0.930 . S
C827 C826 1.394 . S
C827 C828 1.383 . S
C827 H835 0.929 . S
C828 C827 1.383 . S
C828 C829 1.377 . S
C829 H813 0.930 . S
C829 C828 1.377 . S
C829 C830 1.379 . S
C830 H814 0.931 . S
C830 C824 1.383 . S
C830 C829 1.379 . S
H831 C825 0.959 . S
H832 C825 0.961 . S
H833 C825 0.960 . S
H834 C826 0.930 . S
H835 C827 0.929 . S
H836 C844 0.929 . S
H837 C846 0.930 . S
H838 C848 0.930 . S
H839 C851 0.929 . S
H840 C854 0.930 . S
H841 C856 0.960 . S
H842 C856 0.960 . S
H843 C856 0.960 . S
C844 H836 0.929 . S
C844 C845 1.377 . S
C844 C846 1.384 . S
C845 C844 1.377 . S
C845 C851 1.390 . S
C846 H837 0.930 . S
C846 C844 1.384 . S
C846 C847 1.372 . S
C847 C846 1.372 . S
C847 C848 1.400 . S
C847 C852 1.490 . S
C848 H838 0.930 . S
C848 C847 1.400 . S
C848 C851 1.386 . S
H849 C865 0.930 . S
H850 C866 0.931 . S
C851 H839 0.929 . S
C851 C845 1.390 . S
C851 C848 1.386 . S
C852 C847 1.490 . S
C852 C854 1.395 . S
C852 C855 1.403 . S
H853 C859 0.930 . S
C854 H840 0.930 . S
C854 C852 1.395 . S
C854 C857 1.403 . S
C855 C852 1.403 . S
C855 C856 1.524 . S
C855 C859 1.400 . S
C856 H841 0.960 . S
C856 H842 0.960 . S
C856 H843 0.960 . S
C856 C855 1.524 . S
C857 C854 1.403 . S
C857 C858 1.392 . S
C857 C861 1.495 . S
C858 C857 1.392 . S
C858 C859 1.385 . S
C858 C860 1.478 . S
C859 H853 0.930 . S
C859 C855 1.400 . S
C859 C858 1.385 . S
C860 C858 1.478 . S
C860 C862 1.381 . S
C860 C866 1.383 . S
C861 C857 1.495 . S
C861 H867 0.959 . S
C861 H868 0.961 . S
C861 H869 0.960 . S
C862 C860 1.381 . S
C862 C863 1.394 . S
C862 H870 0.930 . S
C863 C862 1.394 . S
C863 C864 1.383 . S
C863 H871 0.929 1_455 S
C864 C863 1.383 . S
C864 C865 1.377 . S
C865 H849 0.930 . S
C865 C864 1.377 . S
C865 C866 1.379 . S
C866 H850 0.931 . S
C866 C860 1.383 . S
C866 C865 1.379 . S
H867 C861 0.959 . S
H868 C861 0.961 . S
H869 C861 0.960 . S
H870 C862 0.930 . S
H871 C863 0.929 1_655 S
H872 C880 0.929 . S
H873 C882 0.930 . S
H874 C884 0.930 . S
H875 C887 0.929 . S
H876 C890 0.930 . S
H877 C892 0.960 . S
H878 C892 0.960 . S
H879 C892 0.960 . S
C880 H872 0.929 . S
C880 C881 1.377 . S
C880 C882 1.384 . S
C881 C880 1.377 . S
C881 C887 1.390 . S
C882 H873 0.930 . S
C882 C880 1.384 . S
C882 C883 1.372 . S
C883 C882 1.372 . S
C883 C884 1.400 . S
C883 C888 1.490 . S
C884 H874 0.930 . S
C884 C883 1.400 . S
C884 C887 1.386 . S
H885 C901 0.930 . S
H886 C902 0.931 . S
C887 H875 0.929 . S
C887 C881 1.390 . S
C887 C884 1.386 . S
C888 C883 1.490 . S
C888 C890 1.395 . S
C888 C891 1.403 . S
H889 C895 0.930 . S
C890 H876 0.930 . S
C890 C888 1.395 . S
C890 C893 1.403 . S
C891 C888 1.403 . S
C891 C892 1.524 . S
C891 C895 1.400 . S
C892 H877 0.960 . S
C892 H878 0.960 . S
C892 H879 0.960 . S
C892 C891 1.524 . S
C893 C890 1.403 . S
C893 C894 1.392 . S
C893 C897 1.495 . S
C894 C893 1.392 . S
C894 C895 1.385 . S
C894 C896 1.478 . S
C895 H889 0.930 . S
C895 C891 1.400 . S
C895 C894 1.385 . S
C896 C894 1.478 . S
C896 C898 1.381 . S
C896 C902 1.383 . S
C897 C893 1.495 . S
C897 H903 0.959 . S
C897 H904 0.961 . S
C897 H905 0.960 . S
C898 C896 1.381 . S
C898 C899 1.394 . S
C898 H906 0.930 . S
C899 C898 1.394 . S
C899 C900 1.383 . S
C899 H907 0.929 . S
C900 C899 1.383 . S
C900 C901 1.377 . S
C901 H885 0.930 . S
C901 C900 1.377 . S
C901 C902 1.379 . S
C902 H886 0.931 . S
C902 C896 1.383 . S
C902 C901 1.379 . S
H903 C897 0.959 . S
H904 C897 0.961 . S
H905 C897 0.960 . S
H906 C898 0.930 . S
H907 C899 0.929 . S
H908 C916 0.929 . S
H909 C918 0.930 . S
H910 C920 0.930 . S
H911 C923 0.929 . S
H912 C926 0.930 . S
H913 C928 0.960 . S
H914 C928 0.960 . S
H915 C928 0.960 . S
C916 H908 0.929 . S
C916 C917 1.377 . S
C916 C918 1.384 . S
C917 C916 1.377 . S
C917 C923 1.390 . S
C918 H909 0.930 . S
C918 C916 1.384 . S
C918 C919 1.372 . S
C919 C918 1.372 . S
C919 C920 1.400 . S
C919 C924 1.490 . S
C920 H910 0.930 . S
C920 C919 1.400 . S
C920 C923 1.386 . S
H921 C937 0.930 1_455 S
H922 C938 0.931 . S
C923 H911 0.929 . S
C923 C917 1.390 . S
C923 C920 1.386 . S
C924 C919 1.490 . S
C924 C926 1.395 . S
C924 C927 1.403 . S
H925 C931 0.930 . S
C926 H912 0.930 . S
C926 C924 1.395 . S
C926 C929 1.403 . S
C927 C924 1.403 . S
C927 C928 1.524 . S
C927 C931 1.400 . S
C928 H913 0.960 . S
C928 H914 0.960 . S
C928 H915 0.960 . S
C928 C927 1.524 . S
C929 C926 1.403 . S
C929 C930 1.392 . S
C929 C933 1.495 . S
C930 C929 1.392 . S
C930 C931 1.385 . S
C930 C932 1.478 . S
C931 H925 0.930 . S
C931 C927 1.400 . S
C931 C930 1.385 . S
C932 C930 1.478 . S
C932 C934 1.381 . S
C932 C938 1.383 . S
C933 C929 1.495 . S
C933 H939 0.959 . S
C933 H940 0.961 . S
C933 H941 0.960 . S
C934 C932 1.381 . S
C934 C935 1.394 . S
C934 H942 0.930 . S
C935 C934 1.394 . S
C935 C936 1.383 . S
C935 H943 0.929 . S
C936 C935 1.383 . S
C936 C937 1.377 . S
C937 H921 0.930 1_655 S
C937 C936 1.377 . S
C937 C938 1.379 . S
C938 H922 0.931 . S
C938 C932 1.383 . S
C938 C937 1.379 . S
H939 C933 0.959 . S
H940 C933 0.961 . S
H941 C933 0.960 . S
H942 C934 0.930 . S
H943 C935 0.929 . S
H944 C952 0.929 1_545 S
H945 C954 0.930 . S
H946 C956 0.930 . S
H947 C959 0.929 . S
H948 C962 0.930 . S
H949 C964 0.960 . S
H950 C964 0.960 . S
H951 C964 0.960 . S
C952 H944 0.929 1_565 S
C952 C953 1.377 . S
C952 C954 1.384 . S
C953 C952 1.377 . S
C953 C959 1.390 . S
C954 H945 0.930 . S
C954 C952 1.384 . S
C954 C955 1.372 . S
C955 C954 1.372 . S
C955 C956 1.400 . S
C955 C960 1.490 . S
C956 H946 0.930 . S
C956 C955 1.400 . S
C956 C959 1.386 . S
H957 C973 0.930 . S
H958 C974 0.931 . S
C959 H947 0.929 . S
C959 C953 1.390 . S
C959 C956 1.386 . S
C960 C955 1.490 . S
C960 C962 1.395 . S
C960 C963 1.403 . S
H961 C967 0.930 . S
C962 H948 0.930 . S
C962 C960 1.395 . S
C962 C965 1.403 . S
C963 C960 1.403 . S
C963 C964 1.524 . S
C963 C967 1.400 . S
C964 H949 0.960 . S
C964 H950 0.960 . S
C964 H951 0.960 . S
C964 C963 1.524 . S
C965 C962 1.403 . S
C965 C966 1.392 . S
C965 C969 1.495 . S
C966 C965 1.392 . S
C966 C967 1.385 . S
C966 C968 1.478 . S
C967 H961 0.930 . S
C967 C963 1.400 . S
C967 C966 1.385 . S
C968 C966 1.478 . S
C968 C970 1.381 . S
C968 C974 1.383 . S
C969 C965 1.495 . S
C969 H975 0.959 . S
C969 H976 0.961 . S
C969 H977 0.960 . S
C970 C968 1.381 . S
C970 C971 1.394 . S
C970 H978 0.930 . S
C971 C970 1.394 . S
C971 C972 1.383 . S
C971 H979 0.929 . S
C972 C971 1.383 . S
C972 C973 1.377 . S
C973 H957 0.930 . S
C973 C972 1.377 . S
C973 C974 1.379 . S
C974 H958 0.931 . S
C974 C968 1.383 . S
C974 C973 1.379 . S
H975 C969 0.959 . S
H976 C969 0.961 . S
H977 C969 0.960 . S
H978 C970 0.930 . S
H979 C971 0.929 . S
H980 C988 0.929 . S
H981 C990 0.930 . S
H982 C992 0.930 . S
H983 C995 0.929 . S
H984 C998 0.930 . S
H985 C1000 0.960 . S
H986 C1000 0.960 . S
H987 C1000 0.960 . S
C988 H980 0.929 . S
C988 C989 1.377 . S
C988 C990 1.384 . S
C989 C988 1.377 . S
C989 C995 1.390 . S
C990 H981 0.930 . S
C990 C988 1.384 . S
C990 C991 1.372 . S
C991 C990 1.372 . S
C991 C992 1.400 . S
C991 C996 1.490 . S
C992 H982 0.930 . S
C992 C991 1.400 . S
C992 C995 1.386 . S
H993 C1009 0.930 1_455 S
H994 C1010 0.931 . S
C995 H983 0.929 . S
C995 C989 1.390 . S
C995 C992 1.386 . S
C996 C991 1.490 . S
C996 C998 1.395 . S
C996 C999 1.403 . S
H997 C1003 0.930 . S
C998 H984 0.930 . S
C998 C996 1.395 . S
C998 C1001 1.403 . S
C999 C996 1.403 . S
C999 C1000 1.524 . S
C999 C1003 1.400 . S
C1000 H985 0.960 . S
C1000 H986 0.960 . S
C1000 H987 0.960 . S
C1000 C999 1.524 . S
C1001 C998 1.403 . S
C1001 C1002 1.392 . S
C1001 C1005 1.495 . S
C1002 C1001 1.392 . S
C1002 C1003 1.385 . S
C1002 C1004 1.478 . S
C1003 H997 0.930 . S
C1003 C999 1.400 . S
C1003 C1002 1.385 . S
C1004 C1002 1.478 . S
C1004 C1006 1.381 . S
C1004 C1010 1.383 . S
C1005 C1001 1.495 . S
C1005 H1011 0.959 . S
C1005 H1012 0.961 . S
C1005 H1013 0.960 . S
C1006 C1004 1.381 . S
C1006 C1007 1.394 . S
C1006 H1014 0.930 . S
C1007 C1006 1.394 . S
C1007 C1008 1.383 . S
C1007 H1015 0.929 . S
C1008 C1007 1.383 . S
C1008 C1009 1.377 . S
C1009 H993 0.930 1_655 S
C1009 C1008 1.377 . S
C1009 C1010 1.379 . S
C1010 H994 0.931 . S
C1010 C1004 1.383 . S
C1010 C1009 1.379 . S
H1011 C1005 0.959 . S
H1012 C1005 0.961 . S
H1013 C1005 0.960 . S
H1014 C1006 0.930 . S
H1015 C1007 0.929 . S
H1016 C1024 0.929 . S
H1017 C1026 0.930 . S
H1018 C1028 0.930 . S
H1019 C1031 0.929 . S
H1020 C1034 0.930 . S
H1021 C1036 0.960 . S
H1022 C1036 0.960 . S
H1023 C1036 0.960 . S
C1024 H1016 0.929 . S
C1024 C1025 1.377 . S
C1024 C1026 1.384 . S
C1025 C1024 1.377 . S
C1025 C1031 1.390 . S
C1026 H1017 0.930 . S
C1026 C1024 1.384 . S
C1026 C1027 1.372 . S
C1027 C1026 1.372 . S
C1027 C1028 1.400 . S
C1027 C1032 1.490 . S
C1028 H1018 0.930 . S
C1028 C1027 1.400 . S
C1028 C1031 1.386 . S
H1029 C1045 0.930 . S
H1030 C1046 0.931 . S
C1031 H1019 0.929 . S
C1031 C1025 1.390 . S
C1031 C1028 1.386 . S
C1032 C1027 1.490 . S
C1032 C1034 1.395 . S
C1032 C1035 1.403 . S
H1033 C1039 0.930 . S
C1034 H1020 0.930 . S
C1034 C1032 1.395 . S
C1034 C1037 1.403 . S
C1035 C1032 1.403 . S
C1035 C1036 1.524 . S
C1035 C1039 1.400 . S
C1036 H1021 0.960 . S
C1036 H1022 0.960 . S
C1036 H1023 0.960 . S
C1036 C1035 1.524 . S
C1037 C1034 1.403 . S
C1037 C1038 1.392 . S
C1037 C1041 1.495 . S
C1038 C1037 1.392 . S
C1038 C1039 1.385 . S
C1038 C1040 1.478 . S
C1039 H1033 0.930 . S
C1039 C1035 1.400 . S
C1039 C1038 1.385 . S
C1040 C1038 1.478 . S
C1040 C1042 1.381 . S
C1040 C1046 1.383 . S
C1041 C1037 1.495 . S
C1041 H1047 0.959 . S
C1041 H1048 0.961 . S
C1041 H1049 0.960 . S
C1042 C1040 1.381 . S
C1042 C1043 1.394 . S
C1042 H1050 0.930 . S
C1043 C1042 1.394 . S
C1043 C1044 1.383 . S
C1043 H1051 0.929 1_545 S
C1044 C1043 1.383 . S
C1044 C1045 1.377 . S
C1045 H1029 0.930 . S
C1045 C1044 1.377 . S
C1045 C1046 1.379 . S
C1046 H1030 0.931 . S
C1046 C1040 1.383 . S
C1046 C1045 1.379 . S
H1047 C1041 0.959 . S
H1048 C1041 0.961 . S
H1049 C1041 0.960 . S
H1050 C1042 0.930 . S
H1051 C1043 0.929 1_565 S
H1052 C1060 0.929 . S
H1053 C1062 0.930 . S
H1054 C1064 0.930 . S
H1055 C1067 0.929 . S
H1056 C1070 0.930 . S
H1057 C1072 0.960 . S
H1058 C1072 0.960 . S
H1059 C1072 0.960 . S
C1060 H1052 0.929 . S
C1060 C1061 1.377 . S
C1060 C1062 1.384 . S
C1061 C1060 1.377 . S
C1061 C1067 1.390 . S
C1062 H1053 0.930 . S
C1062 C1060 1.384 . S
C1062 C1063 1.372 . S
C1063 C1062 1.372 . S
C1063 C1064 1.400 . S
C1063 C1068 1.490 . S
C1064 H1054 0.930 . S
C1064 C1063 1.400 . S
C1064 C1067 1.386 . S
H1065 C1081 0.930 . S
H1066 C1082 0.931 . S
C1067 H1055 0.929 . S
C1067 C1061 1.390 . S
C1067 C1064 1.386 . S
C1068 C1063 1.490 . S
C1068 C1070 1.395 . S
C1068 C1071 1.403 . S
H1069 C1075 0.930 . S
C1070 H1056 0.930 . S
C1070 C1068 1.395 . S
C1070 C1073 1.403 . S
C1071 C1068 1.403 . S
C1071 C1072 1.524 . S
C1071 C1075 1.400 . S
C1072 H1057 0.960 . S
C1072 H1058 0.960 . S
C1072 H1059 0.960 . S
C1072 C1071 1.524 . S
C1073 C1070 1.403 . S
C1073 C1074 1.392 . S
C1073 C1077 1.495 . S
C1074 C1073 1.392 . S
C1074 C1075 1.385 . S
C1074 C1076 1.478 . S
C1075 H1069 0.930 . S
C1075 C1071 1.400 . S
C1075 C1074 1.385 . S
C1076 C1074 1.478 . S
C1076 C1078 1.381 . S
C1076 C1082 1.383 . S
C1077 C1073 1.495 . S
C1077 H1083 0.959 . S
C1077 H1084 0.961 . S
C1077 H1085 0.960 . S
C1078 C1076 1.381 . S
C1078 C1079 1.394 . S
C1078 H1086 0.930 . S
C1079 C1078 1.394 . S
C1079 C1080 1.383 . S
C1079 H1087 0.929 1_455 S
C1080 C1079 1.383 . S
C1080 C1081 1.377 . S
C1081 H1065 0.930 . S
C1081 C1080 1.377 . S
C1081 C1082 1.379 . S
C1082 H1066 0.931 . S
C1082 C1076 1.383 . S
C1082 C1081 1.379 . S
H1083 C1077 0.959 . S
H1084 C1077 0.961 . S
H1085 C1077 0.960 . S
H1086 C1078 0.930 . S
H1087 C1079 0.929 1_655 S
H1088 C1096 0.929 . S
H1089 C1098 0.930 . S
H1090 C1100 0.930 . S
H1091 C1103 0.929 . S
H1092 C1106 0.930 . S
H1093 C1108 0.960 . S
H1094 C1108 0.960 . S
H1095 C1108 0.960 . S
C1096 H1088 0.929 . S
C1096 C1097 1.377 . S
C1096 C1098 1.384 . S
C1097 C1096 1.377 . S
C1097 C1103 1.390 . S
C1098 H1089 0.930 . S
C1098 C1096 1.384 . S
C1098 C1099 1.372 . S
C1099 C1098 1.372 . S
C1099 C1100 1.400 . S
C1099 C1104 1.490 . S
C1100 H1090 0.930 . S
C1100 C1099 1.400 . S
C1100 C1103 1.386 . S
H1101 C1117 0.930 . S
H1102 C1118 0.931 . S
C1103 H1091 0.929 . S
C1103 C1097 1.390 . S
C1103 C1100 1.386 . S
C1104 C1099 1.490 . S
C1104 C1106 1.395 . S
C1104 C1107 1.403 . S
H1105 C1111 0.930 . S
C1106 H1092 0.930 . S
C1106 C1104 1.395 . S
C1106 C1109 1.403 . S
C1107 C1104 1.403 . S
C1107 C1108 1.524 . S
C1107 C1111 1.400 . S
C1108 H1093 0.960 . S
C1108 H1094 0.960 . S
C1108 H1095 0.960 . S
C1108 C1107 1.524 . S
C1109 C1106 1.403 . S
C1109 C1110 1.392 . S
C1109 C1113 1.495 . S
C1110 C1109 1.392 . S
C1110 C1111 1.385 . S
C1110 C1112 1.478 . S
C1111 H1105 0.930 . S
C1111 C1107 1.400 . S
C1111 C1110 1.385 . S
C1112 C1110 1.478 . S
C1112 C1114 1.381 . S
C1112 C1118 1.383 . S
C1113 C1109 1.495 . S
C1113 H1119 0.959 . S
C1113 H1120 0.961 . S
C1113 H1121 0.960 . S
C1114 C1112 1.381 . S
C1114 C1115 1.394 . S
C1114 H1122 0.930 . S
C1115 C1114 1.394 . S
C1115 C1116 1.383 . S
C1115 H1123 0.929 . S
C1116 C1115 1.383 . S
C1116 C1117 1.377 . S
C1117 H1101 0.930 . S
C1117 C1116 1.377 . S
C1117 C1118 1.379 . S
C1118 H1102 0.931 . S
C1118 C1112 1.383 . S
C1118 C1117 1.379 . S
H1119 C1113 0.959 . S
H1120 C1113 0.961 . S
H1121 C1113 0.960 . S
H1122 C1114 0.930 . S
H1123 C1115 0.929 . S
H1124 C1132 0.929 . S
H1125 C1134 0.930 . S
H1126 C1136 0.930 . S
H1127 C1139 0.929 . S
H1128 C1142 0.930 . S
H1129 C1144 0.960 . S
H1130 C1144 0.960 . S
H1131 C1144 0.960 . S
C1132 H1124 0.929 . S
C1132 C1133 1.377 . S
C1132 C1134 1.384 . S
C1133 C1132 1.377 . S
C1133 C1139 1.390 . S
C1134 H1125 0.930 . S
C1134 C1132 1.384 . S
C1134 C1135 1.372 . S
C1135 C1134 1.372 . S
C1135 C1136 1.400 . S
C1135 C1140 1.490 . S
C1136 H1126 0.930 . S
C1136 C1135 1.400 . S
C1136 C1139 1.386 . S
H1137 C1153 0.930 . S
H1138 C1154 0.931 . S
C1139 H1127 0.929 . S
C1139 C1133 1.390 . S
C1139 C1136 1.386 . S
C1140 C1135 1.490 . S
C1140 C1142 1.395 . S
C1140 C1143 1.403 . S
H1141 C1147 0.930 . S
C1142 H1128 0.930 . S
C1142 C1140 1.395 . S
C1142 C1145 1.403 . S
C1143 C1140 1.403 . S
C1143 C1144 1.524 . S
C1143 C1147 1.400 . S
C1144 H1129 0.960 . S
C1144 H1130 0.960 . S
C1144 H1131 0.960 . S
C1144 C1143 1.524 . S
C1145 C1142 1.403 . S
C1145 C1146 1.392 . S
C1145 C1149 1.495 . S
C1146 C1145 1.392 . S
C1146 C1147 1.385 . S
C1146 C1148 1.478 . S
C1147 H1141 0.930 . S
C1147 C1143 1.400 . S
C1147 C1146 1.385 . S
C1148 C1146 1.478 . S
C1148 C1150 1.381 . S
C1148 C1154 1.383 . S
C1149 C1145 1.495 . S
C1149 H1155 0.959 . S
C1149 H1156 0.961 . S
C1149 H1157 0.960 . S
C1150 C1148 1.381 . S
C1150 C1151 1.394 . S
C1150 H1158 0.930 . S
C1151 C1150 1.394 . S
C1151 C1152 1.383 . S
C1151 H1159 0.929 . S
C1152 C1151 1.383 . S
C1152 C1153 1.377 . S
C1153 H1137 0.930 . S
C1153 C1152 1.377 . S
C1153 C1154 1.379 . S
C1154 H1138 0.931 . S
C1154 C1148 1.383 . S
C1154 C1153 1.379 . S
H1155 C1149 0.959 . S
H1156 C1149 0.961 . S
H1157 C1149 0.960 . S
H1158 C1150 0.930 . S
H1159 C1151 0.929 . S
H1160 C1168 0.929 . S
H1161 C1170 0.930 . S
H1162 C1172 0.930 . S
H1163 C1175 0.929 . S
H1164 C1178 0.930 . S
H1165 C1180 0.960 . S
H1166 C1180 0.960 . S
H1167 C1180 0.960 . S
C1168 H1160 0.929 . S
C1168 C1169 1.377 . S
C1168 C1170 1.384 . S
C1169 C1168 1.377 . S
C1169 C1175 1.390 . S
C1170 H1161 0.930 . S
C1170 C1168 1.384 . S
C1170 C1171 1.372 . S
C1171 C1170 1.372 . S
C1171 C1172 1.400 . S
C1171 C1176 1.490 . S
C1172 H1162 0.930 . S
C1172 C1171 1.400 . S
C1172 C1175 1.386 . S
H1173 C1189 0.930 . S
H1174 C1190 0.931 . S
C1175 H1163 0.929 . S
C1175 C1169 1.390 . S
C1175 C1172 1.386 . S
C1176 C1171 1.490 . S
C1176 C1178 1.395 . S
C1176 C1179 1.403 . S
H1177 C1183 0.930 . S
C1178 H1164 0.930 . S
C1178 C1176 1.395 . S
C1178 C1181 1.403 . S
C1179 C1176 1.403 . S
C1179 C1180 1.524 . S
C1179 C1183 1.400 . S
C1180 H1165 0.960 . S
C1180 H1166 0.960 . S
C1180 H1167 0.960 . S
C1180 C1179 1.524 . S
C1181 C1178 1.403 . S
C1181 C1182 1.392 . S
C1181 C1185 1.495 . S
C1182 C1181 1.392 . S
C1182 C1183 1.385 . S
C1182 C1184 1.478 . S
C1183 H1177 0.930 . S
C1183 C1179 1.400 . S
C1183 C1182 1.385 . S
C1184 C1182 1.478 . S
C1184 C1186 1.381 . S
C1184 C1190 1.383 . S
C1185 C1181 1.495 . S
C1185 H1191 0.959 . S
C1185 H1192 0.961 . S
C1185 H1193 0.960 . S
C1186 C1184 1.381 . S
C1186 C1187 1.394 . S
C1186 H1194 0.930 . S
C1187 C1186 1.394 . S
C1187 C1188 1.383 . S
C1187 H1195 0.929 . S
C1188 C1187 1.383 . S
C1188 C1189 1.377 . S
C1189 H1173 0.930 . S
C1189 C1188 1.377 . S
C1189 C1190 1.379 . S
C1190 H1174 0.931 . S
C1190 C1184 1.383 . S
C1190 C1189 1.379 . S
H1191 C1185 0.959 . S
H1192 C1185 0.961 . S
H1193 C1185 0.960 . S
H1194 C1186 0.930 . S
H1195 C1187 0.929 . S
H1196 C1204 0.929 . S
H1197 C1206 0.930 . S
H1198 C1208 0.930 . S
H1199 C1211 0.929 . S
H1200 C1214 0.930 . S
H1201 C1216 0.960 . S
H1202 C1216 0.960 . S
H1203 C1216 0.960 . S
C1204 H1196 0.929 . S
C1204 C1205 1.377 . S
C1204 C1206 1.384 . S
C1205 C1204 1.377 . S
C1205 C1211 1.390 . S
C1206 H1197 0.930 . S
C1206 C1204 1.384 . S
C1206 C1207 1.372 . S
C1207 C1206 1.372 . S
C1207 C1208 1.400 . S
C1207 C1212 1.490 . S
C1208 H1198 0.930 . S
C1208 C1207 1.400 . S
C1208 C1211 1.386 . S
H1209 C1225 0.930 . S
H1210 C1226 0.931 . S
C1211 H1199 0.929 . S
C1211 C1205 1.390 . S
C1211 C1208 1.386 . S
C1212 C1207 1.490 . S
C1212 C1214 1.395 . S
C1212 C1215 1.403 . S
H1213 C1219 0.930 . S
C1214 H1200 0.930 . S
C1214 C1212 1.395 . S
C1214 C1217 1.403 . S
C1215 C1212 1.403 . S
C1215 C1216 1.524 . S
C1215 C1219 1.400 . S
C1216 H1201 0.960 . S
C1216 H1202 0.960 . S
C1216 H1203 0.960 . S
C1216 C1215 1.524 . S
C1217 C1214 1.403 . S
C1217 C1218 1.392 . S
C1217 C1221 1.495 . S
C1218 C1217 1.392 . S
C1218 C1219 1.385 . S
C1218 C1220 1.478 . S
C1219 H1213 0.930 . S
C1219 C1215 1.400 . S
C1219 C1218 1.385 . S
C1220 C1218 1.478 . S
C1220 C1222 1.381 . S
C1220 C1226 1.383 . S
C1221 C1217 1.495 . S
C1221 H1227 0.959 . S
C1221 H1228 0.961 . S
C1221 H1229 0.960 . S
C1222 C1220 1.381 . S
C1222 C1223 1.394 . S
C1222 H1230 0.930 . S
C1223 C1222 1.394 . S
C1223 C1224 1.383 . S
C1223 H1231 0.929 . S
C1224 C1223 1.383 . S
C1224 C1225 1.377 . S
C1225 H1209 0.930 . S
C1225 C1224 1.377 . S
C1225 C1226 1.379 . S
C1226 H1210 0.931 . S
C1226 C1220 1.383 . S
C1226 C1225 1.379 . S
H1227 C1221 0.959 . S
H1228 C1221 0.961 . S
H1229 C1221 0.960 . S
H1230 C1222 0.930 . S
H1231 C1223 0.929 . S
H1232 C1240 0.929 . S
H1233 C1242 0.930 . S
H1234 C1244 0.930 . S
H1235 C1247 0.929 . S
H1236 C1250 0.930 . S
H1237 C1252 0.960 . S
H1238 C1252 0.960 . S
H1239 C1252 0.960 . S
C1240 H1232 0.929 . S
C1240 C1241 1.377 . S
C1240 C1242 1.384 . S
C1241 C1240 1.377 . S
C1241 C1247 1.390 . S
C1242 H1233 0.930 . S
C1242 C1240 1.384 . S
C1242 C1243 1.372 . S
C1243 C1242 1.372 . S
C1243 C1244 1.400 . S
C1243 C1248 1.490 . S
C1244 H1234 0.930 . S
C1244 C1243 1.400 . S
C1244 C1247 1.386 . S
H1245 C1261 0.930 . S
H1246 C1262 0.931 . S
C1247 H1235 0.929 . S
C1247 C1241 1.390 . S
C1247 C1244 1.386 . S
C1248 C1243 1.490 . S
C1248 C1250 1.395 . S
C1248 C1251 1.403 1_545 S
H1249 C1255 0.930 . S
C1250 H1236 0.930 . S
C1250 C1248 1.395 . S
C1250 C1253 1.403 1_554 S
C1251 C1248 1.403 1_565 S
C1251 C1252 1.524 . S
C1251 C1255 1.400 1_554 S
C1252 H1237 0.960 . S
C1252 H1238 0.960 . S
C1252 H1239 0.960 . S
C1252 C1251 1.524 . S
C1253 C1250 1.403 1_556 S
C1253 C1254 1.392 1_545 S
C1253 C1257 1.495 . S
C1254 C1253 1.392 1_565 S
C1254 C1255 1.385 . S
C1254 C1256 1.478 . S
C1255 H1249 0.930 . S
C1255 C1251 1.400 1_556 S
C1255 C1254 1.385 . S
C1256 C1254 1.478 . S
C1256 C1258 1.381 . S
C1256 C1262 1.383 . S
C1257 C1253 1.495 . S
C1257 H1263 0.959 . S
C1257 H1264 0.961 . S
C1257 H1265 0.960 . S
C1258 C1256 1.381 . S
C1258 C1259 1.394 . S
C1258 H1266 0.930 . S
C1259 C1258 1.394 . S
C1259 C1260 1.383 . S
C1259 H1267 0.929 . S
C1260 C1259 1.383 . S
C1260 C1261 1.377 . S
C1261 H1245 0.930 . S
C1261 C1260 1.377 . S
C1261 C1262 1.379 . S
C1262 H1246 0.931 . S
C1262 C1256 1.383 . S
C1262 C1261 1.379 . S
H1263 C1257 0.959 . S
H1264 C1257 0.961 . S
H1265 C1257 0.960 . S
H1266 C1258 0.930 . S
H1267 C1259 0.929 . S
H1268 C1276 0.929 . S
H1269 C1278 0.930 . S
H1270 C1280 0.930 . S
H1271 C1283 0.929 . S
H1272 C1286 0.930 . S
H1273 C1288 0.960 1_554 S
H1274 C1288 0.960 . S
H1275 C1288 0.960 . S
C1276 H1268 0.929 . S
C1276 C1277 1.377 . S
C1276 C1278 1.384 . S
C1277 C1276 1.377 . S
C1277 C1283 1.390 . S
C1278 H1269 0.930 . S
C1278 C1276 1.384 . S
C1278 C1279 1.372 . S
C1279 C1278 1.372 . S
C1279 C1280 1.400 . S
C1279 C1284 1.490 . S
C1280 H1270 0.930 . S
C1280 C1279 1.400 . S
C1280 C1283 1.386 . S
H1281 C1297 0.930 . S
H1282 C1298 0.931 . S
C1283 H1271 0.929 . S
C1283 C1277 1.390 . S
C1283 C1280 1.386 . S
C1284 C1279 1.490 . S
C1284 C1286 1.395 1_455 S
C1284 C1287 1.403 . S
H1285 C1291 0.930 . S
C1286 H1272 0.930 . S
C1286 C1284 1.395 1_655 S
C1286 C1289 1.403 1_556 S
C1287 C1284 1.403 . S
C1287 C1288 1.524 . S
C1287 C1291 1.400 1_556 S
C1288 H1273 0.960 1_556 S
C1288 H1274 0.960 . S
C1288 H1275 0.960 . S
C1288 C1287 1.524 . S
C1289 C1286 1.403 1_554 S
C1289 C1290 1.392 . S
C1289 C1293 1.495 . S
C1290 C1289 1.392 . S
C1290 C1291 1.385 1_655 S
C1290 C1292 1.478 . S
C1291 H1285 0.930 . S
C1291 C1287 1.400 1_554 S
C1291 C1290 1.385 1_455 S
C1292 C1290 1.478 . S
C1292 C1294 1.381 . S
C1292 C1298 1.383 . S
C1293 C1289 1.495 . S
C1293 H1299 0.959 1_554 S
C1293 H1300 0.961 . S
C1293 H1301 0.960 . S
C1294 C1292 1.381 . S
C1294 C1295 1.394 . S
C1294 H1302 0.930 . S
C1295 C1294 1.394 . S
C1295 C1296 1.383 . S
C1295 H1303 0.929 . S
C1296 C1295 1.383 . S
C1296 C1297 1.377 . S
C1297 H1281 0.930 . S
C1297 C1296 1.377 . S
C1297 C1298 1.379 . S
C1298 H1282 0.931 . S
C1298 C1292 1.383 . S
C1298 C1297 1.379 . S
H1299 C1293 0.959 1_556 S
H1300 C1293 0.961 . S
H1301 C1293 0.960 . S
H1302 C1294 0.930 . S
H1303 C1295 0.929 . S
H1304 C1312 0.929 . S
H1305 C1314 0.930 . S
H1306 C1316 0.930 . S
H1307 C1319 0.929 . S
H1308 C1322 0.930 . S
H1309 C1324 0.960 1_554 S
H1310 C1324 0.960 . S
H1311 C1324 0.960 . S
C1312 H1304 0.929 . S
C1312 C1313 1.377 . S
C1312 C1314 1.384 . S
C1313 C1312 1.377 . S
C1313 C1319 1.390 . S
C1314 H1305 0.930 . S
C1314 C1312 1.384 . S
C1314 C1315 1.372 . S
C1315 C1314 1.372 . S
C1315 C1316 1.400 . S
C1315 C1320 1.490 . S
C1316 H1306 0.930 . S
C1316 C1315 1.400 . S
C1316 C1319 1.386 . S
H1317 C1333 0.930 . S
H1318 C1334 0.931 . S
C1319 H1307 0.929 . S
C1319 C1313 1.390 . S
C1319 C1316 1.386 . S
C1320 C1315 1.490 . S
C1320 C1322 1.395 1_545 S
C1320 C1323 1.403 . S
H1321 C1327 0.930 . S
C1322 H1308 0.930 . S
C1322 C1320 1.395 1_565 S
C1322 C1325 1.403 1_556 S
C1323 C1320 1.403 . S
C1323 C1324 1.524 . S
C1323 C1327 1.400 1_556 S
C1324 H1309 0.960 1_556 S
C1324 H1310 0.960 . S
C1324 H1311 0.960 . S
C1324 C1323 1.524 . S
C1325 C1322 1.403 1_554 S
C1325 C1326 1.392 . S
C1325 C1329 1.495 . S
C1326 C1325 1.392 . S
C1326 C1327 1.385 1_565 S
C1326 C1328 1.478 . S
C1327 H1321 0.930 . S
C1327 C1323 1.400 1_554 S
C1327 C1326 1.385 1_545 S
C1328 C1326 1.478 . S
C1328 C1330 1.381 . S
C1328 C1334 1.383 . S
C1329 C1325 1.495 . S
C1329 H1335 0.959 1_554 S
C1329 H1336 0.961 . S
C1329 H1337 0.960 . S
C1330 C1328 1.381 . S
C1330 C1331 1.394 . S
C1330 H1338 0.930 . S
C1331 C1330 1.394 . S
C1331 C1332 1.383 . S
C1331 H1339 0.929 . S
C1332 C1331 1.383 . S
C1332 C1333 1.377 . S
C1333 H1317 0.930 . S
C1333 C1332 1.377 . S
C1333 C1334 1.379 . S
C1334 H1318 0.931 . S
C1334 C1328 1.383 . S
C1334 C1333 1.379 . S
H1335 C1329 0.959 1_556 S
H1336 C1329 0.961 . S
H1337 C1329 0.960 . S
H1338 C1330 0.930 . S
H1339 C1331 0.929 . S
H1340 C1348 0.929 . S
H1341 C1350 0.930 . S
H1342 C1352 0.895 1_455 S
H1343 C1355 0.929 1_455 S
H1344 C1358 0.930 . S
H1345 C1360 0.960 . S
H1346 C1360 0.960 . S
H1347 C1360 0.960 . S
C1348 H1340 0.929 . S
C1348 C1349 1.377 . S
C1348 C1350 1.384 . S
C1349 C1348 1.377 . S
C1349 C1355 1.390 . S
C1350 H1341 0.930 . S
C1350 C1348 1.384 . S
C1350 C1351 1.372 . S
C1351 C1350 1.372 . S
C1351 C1352 1.424 . S
C1351 C1356 1.490 . S
C1352 H1342 0.895 1_655 S
C1352 C1351 1.424 . S
C1352 C1355 1.397 . S
H1353 C1369 0.930 . S
H1354 C1370 0.931 . S
C1355 H1343 0.929 1_655 S
C1355 C1349 1.390 . S
C1355 C1352 1.397 . S
C1356 C1351 1.490 . S
C1356 C1358 1.395 . S
C1356 C1359 1.403 1_655 S
H1357 C1363 0.930 . S
C1358 H1344 0.930 . S
C1358 C1356 1.395 . S
C1358 C1361 1.403 1_556 S
C1359 C1356 1.403 1_455 S
C1359 C1360 1.524 . S
C1359 C1363 1.400 1_556 S
C1360 H1345 0.960 . S
C1360 H1346 0.960 . S
C1360 H1347 0.960 . S
C1360 C1359 1.524 . S
C1361 C1358 1.403 1_554 S
C1361 C1362 1.392 1_655 S
C1361 C1365 1.495 . S
C1362 C1361 1.392 1_455 S
C1362 C1363 1.385 . S
C1362 C1364 1.478 . S
C1363 H1357 0.930 . S
C1363 C1359 1.400 1_554 S
C1363 C1362 1.385 . S
C1364 C1362 1.478 . S
C1364 C1366 1.381 1_455 S
C1364 C1370 1.383 . S
C1365 C1361 1.495 . S
C1365 H1371 0.959 . S
C1365 H1372 0.961 . S
C1365 H1373 0.960 . S
C1366 C1364 1.381 1_655 S
C1366 C1367 1.394 1_655 S
C1366 H1374 0.930 . S
C1367 C1366 1.394 1_455 S
C1367 C1368 1.383 . S
C1367 H1375 0.929 1_455 S
C1368 C1367 1.383 . S
C1368 C1369 1.377 . S
C1369 H1353 0.930 . S
C1369 C1368 1.377 . S
C1369 C1370 1.379 . S
C1370 H1354 0.931 . S
C1370 C1364 1.383 . S
C1370 C1369 1.379 . S
H1371 C1365 0.959 . S
H1372 C1365 0.961 . S
H1373 C1365 0.960 . S
H1374 C1366 0.930 . S
H1375 C1367 0.929 1_655 S
C233 C11 1.166 . S
C252 C109 1.167 . S
C269 C25 1.167 . S
C288 C67 1.161 . S
C305 C81 1.167 . S
C324 C39 1.161 . S
C341 C53 1.167 . S
C360 C95 1.159 . S
C377 C123 1.166 . S
C396 C221 1.164 . S
C413 C179 1.166 . S
C432 C137 1.165 . S
C449 C193 1.165 . S
C468 C151 1.168 . S
C485 C207 1.166 . S
C504 C165 1.166 . S
C521 C5 1.323 . S
C540 C154 1.344 . S
C557 C19 1.330 . S
C576 C112 1.341 . S
C593 C126 1.331 . S
C612 C33 1.341 . S
C629 C47 1.323 . S
C648 C140 1.319 . S
C665 C61 1.327 . S
C684 C182 1.326 . S
C701 C196 1.333 . S
C720 C75 1.339 . S
C737 C89 1.326 . S
C756 C210 1.336 . S
C773 C168 1.334 . S
C792 C103 1.306 . S
C809 C117 1.328 1_545 S
C828 C42 1.321 . S
C845 C0 1.331 . S
C864 C131 1.310 1_455 S
C881 C145 1.323 1_565 S
C900 C14 1.341 . S
C917 C28 1.337 . S
C936 C159 1.330 1_655 S
C953 C173 1.329 1_565 S
C972 C70 1.317 . S
C989 C84 1.335 . S
C1008 C187 1.342 1_655 S
C1025 C98 1.331 . S
C1044 C201 1.339 1_545 S
C1061 C56 1.334 . S
C1080 C215 1.305 1_455 S
C1097 C65 1.659 . S
C1116 C9 1.657 . S
C1133 C79 1.659 . S
C1152 C23 1.656 . S
C1169 C37 1.659 . S
C1188 C93 1.655 . S
C1205 C107 1.658 . S
C1224 C51 1.657 . S
C1241 C177 1.659 . S
C1260 C121 1.657 . S
C1277 C191 1.659 . S
C1296 C135 1.655 . S
C1313 C149 1.658 . S
C1332 C205 1.653 . S
C1349 C219 1.658 . S
C1368 C163 1.658 . S
