# Generated by pormake.
# Topology cbo, (4)-cn, num edge types: 1
# Building blocks:
#     Node 0, Type 0, BuildingBlock: ESEHIV_clean_sbu_0, # of connection points: 4
#     Node 1, Type 0, BuildingBlock: ESEHIV_clean_sbu_0, # of connection points: 4
#     Node 2, Type 0, BuildingBlock: ESEHIV_clean_sbu_0, # of connection points: 4
#     Node 3, Type 0, BuildingBlock: ESEHIV_clean_sbu_0, # of connection points: 4
#     Node 4, Type 0, BuildingBlock: ESEHIV_clean_sbu_0, # of connection points: 4
#     Node 5, Type 0, BuildingBlock: ESEHIV_clean_sbu_0, # of connection points: 4
#     Node 6, Type 0, BuildingBlock: ESEHIV_clean_sbu_0, # of connection points: 4
#     Node 7, Type 0, BuildingBlock: ESEHIV_clean_sbu_0, # of connection points: 4
#     Node 8, Type 0, BuildingBlock: ESEHIV_clean_sbu_0, # of connection points: 4
#     Node 9, Type 0, BuildingBlock: ESEHIV_clean_sbu_0, # of connection points: 4
#     Node 10, Type 0, BuildingBlock: ESEHIV_clean_sbu_0, # of connection points: 4
#     Node 11, Type 0, BuildingBlock: ESEHIV_clean_sbu_0, # of connection points: 4
#     Node 12, Type 0, BuildingBlock: ESEHIV_clean_sbu_0, # of connection points: 4
#     Node 13, Type 0, BuildingBlock: ESEHIV_clean_sbu_0, # of connection points: 4
#     Node 14, Type 0, BuildingBlock: ESEHIV_clean_sbu_0, # of connection points: 4
#     Node 15, Type 0, BuildingBlock: ESEHIV_clean_sbu_0, # of connection points: 4
#     Node 16, Type 0, BuildingBlock: ESEHIV_clean_sbu_0, # of connection points: 4
#     Node 17, Type 0, BuildingBlock: ESEHIV_clean_sbu_0, # of connection points: 4
#     Node 18, Type 0, BuildingBlock: ESEHIV_clean_sbu_0, # of connection points: 4
#     Node 19, Type 0, BuildingBlock: ESEHIV_clean_sbu_0, # of connection points: 4
#     Node 20, Type 0, BuildingBlock: ESEHIV_clean_sbu_0, # of connection points: 4
#     Node 21, Type 0, BuildingBlock: ESEHIV_clean_sbu_0, # of connection points: 4
#     Node 22, Type 0, BuildingBlock: ESEHIV_clean_sbu_0, # of connection points: 4
#     Node 23, Type 0, BuildingBlock: ESEHIV_clean_sbu_0, # of connection points: 4
#     Edge 24, Type (0, 0), BuildingBlock: UVAHIK_clean_linker_0, # of connection points: 2
#     Edge 25, Type (0, 0), BuildingBlock: UVAHIK_clean_linker_0, # of connection points: 2
#     Edge 26, Type (0, 0), BuildingBlock: UVAHIK_clean_linker_0, # of connection points: 2
#     Edge 27, Type (0, 0), BuildingBlock: UVAHIK_clean_linker_0, # of connection points: 2
#     Edge 28, Type (0, 0), BuildingBlock: UVAHIK_clean_linker_0, # of connection points: 2
#     Edge 29, Type (0, 0), BuildingBlock: UVAHIK_clean_linker_0, # of connection points: 2
#     Edge 30, Type (0, 0), BuildingBlock: UVAHIK_clean_linker_0, # of connection points: 2
#     Edge 31, Type (0, 0), BuildingBlock: UVAHIK_clean_linker_0, # of connection points: 2
#     Edge 32, Type (0, 0), BuildingBlock: UVAHIK_clean_linker_0, # of connection points: 2
#     Edge 33, Type (0, 0), BuildingBlock: UVAHIK_clean_linker_0, # of connection points: 2
#     Edge 34, Type (0, 0), BuildingBlock: UVAHIK_clean_linker_0, # of connection points: 2
#     Edge 35, Type (0, 0), BuildingBlock: UVAHIK_clean_linker_0, # of connection points: 2
#     Edge 36, Type (0, 0), BuildingBlock: UVAHIK_clean_linker_0, # of connection points: 2
#     Edge 37, Type (0, 0), BuildingBlock: UVAHIK_clean_linker_0, # of connection points: 2
#     Edge 38, Type (0, 0), BuildingBlock: UVAHIK_clean_linker_0, # of connection points: 2
#     Edge 39, Type (0, 0), BuildingBlock: UVAHIK_clean_linker_0, # of connection points: 2
#     Edge 40, Type (0, 0), BuildingBlock: UVAHIK_clean_linker_0, # of connection points: 2
#     Edge 41, Type (0, 0), BuildingBlock: UVAHIK_clean_linker_0, # of connection points: 2
#     Edge 42, Type (0, 0), BuildingBlock: UVAHIK_clean_linker_0, # of connection points: 2
#     Edge 43, Type (0, 0), BuildingBlock: UVAHIK_clean_linker_0, # of connection points: 2
#     Edge 44, Type (0, 0), BuildingBlock: UVAHIK_clean_linker_0, # of connection points: 2
#     Edge 45, Type (0, 0), BuildingBlock: UVAHIK_clean_linker_0, # of connection points: 2
#     Edge 46, Type (0, 0), BuildingBlock: UVAHIK_clean_linker_0, # of connection points: 2
#     Edge 47, Type (0, 0), BuildingBlock: UVAHIK_clean_linker_0, # of connection points: 2
#     Edge 48, Type (0, 0), BuildingBlock: UVAHIK_clean_linker_0, # of connection points: 2
#     Edge 49, Type (0, 0), BuildingBlock: UVAHIK_clean_linker_0, # of connection points: 2
#     Edge 50, Type (0, 0), BuildingBlock: UVAHIK_clean_linker_0, # of connection points: 2
#     Edge 51, Type (0, 0), BuildingBlock: UVAHIK_clean_linker_0, # of connection points: 2
#     Edge 52, Type (0, 0), BuildingBlock: UVAHIK_clean_linker_0, # of connection points: 2
#     Edge 53, Type (0, 0), BuildingBlock: UVAHIK_clean_linker_0, # of connection points: 2
#     Edge 54, Type (0, 0), BuildingBlock: UVAHIK_clean_linker_0, # of connection points: 2
#     Edge 55, Type (0, 0), BuildingBlock: UVAHIK_clean_linker_0, # of connection points: 2
#     Edge 56, Type (0, 0), BuildingBlock: UVAHIK_clean_linker_0, # of connection points: 2
#     Edge 57, Type (0, 0), BuildingBlock: UVAHIK_clean_linker_0, # of connection points: 2
#     Edge 58, Type (0, 0), BuildingBlock: UVAHIK_clean_linker_0, # of connection points: 2
#     Edge 59, Type (0, 0), BuildingBlock: UVAHIK_clean_linker_0, # of connection points: 2
#     Edge 60, Type (0, 0), BuildingBlock: UVAHIK_clean_linker_0, # of connection points: 2
#     Edge 61, Type (0, 0), BuildingBlock: UVAHIK_clean_linker_0, # of connection points: 2
#     Edge 62, Type (0, 0), BuildingBlock: UVAHIK_clean_linker_0, # of connection points: 2
#     Edge 63, Type (0, 0), BuildingBlock: UVAHIK_clean_linker_0, # of connection points: 2
#     Edge 64, Type (0, 0), BuildingBlock: UVAHIK_clean_linker_0, # of connection points: 2
#     Edge 65, Type (0, 0), BuildingBlock: UVAHIK_clean_linker_0, # of connection points: 2
#     Edge 66, Type (0, 0), BuildingBlock: UVAHIK_clean_linker_0, # of connection points: 2
#     Edge 67, Type (0, 0), BuildingBlock: UVAHIK_clean_linker_0, # of connection points: 2
#     Edge 68, Type (0, 0), BuildingBlock: UVAHIK_clean_linker_0, # of connection points: 2
#     Edge 69, Type (0, 0), BuildingBlock: UVAHIK_clean_linker_0, # of connection points: 2
#     Edge 70, Type (0, 0), BuildingBlock: UVAHIK_clean_linker_0, # of connection points: 2
#     Edge 71, Type (0, 0), BuildingBlock: UVAHIK_clean_linker_0, # of connection points: 2
# Relax obj value: 0.116
# Max RMSD: 0.283
# Mean RMSD: 0.268
data_MOF--net-cbo--node1-ESEHIV_clean_sbu_0--edge1-UVAHIK_clean_linker_0
_symmetry_space_group_name_H-M    P1
_symmetry_Int_Tables_number       1
_symmetry_cell_setting            triclinic
loop_
_symmetry_equiv_pos_as_xyz
'x, y, z'
_cell_length_a     70.298662
_cell_length_b     75.173424
_cell_length_c     71.934924
_cell_angle_alpha  89.903472
_cell_angle_beta   90.058169
_cell_angle_gamma 89.99367
loop_
_atom_site_label
_atom_site_type_symbol
_atom_site_fract_x
_atom_site_fract_y
_atom_site_fract_z
_atom_type_partial_charge
Cu0 Cu 0.11886 0.19327 0.31514 0.0
N1 N 0.12636 0.20166 0.33845 0.0
N2 N 0.13146 0.20519 0.36898 0.0
C3 C 0.12235 0.19564 0.35571 0.0
C4 C 0.14155 0.21757 0.35955 0.0
C5 C 0.13836 0.21536 0.34086 0.0
O6 O 0.09369 0.18258 0.31607 0.0
C7 C 0.13738 0.16855 0.29111 0.0
O8 O 0.12168 0.16934 0.28122 0.0
H9 H 0.11302 0.1845 0.35843 0.0
H10 H 0.14466 0.223 0.3297 0.0
N11 N 0.11731 0.21292 0.29929 0.0
N12 N 0.12251 0.23265 0.27648 0.0
C13 C 0.12753 0.21675 0.28393 0.0
C14 C 0.10553 0.22679 0.3017 0.0
C15 C 0.10868 0.23895 0.28773 0.0
C16 C 0.08912 0.16822 0.32432 0.0
O17 O 0.10225 0.15897 0.33303 0.0
H18 H 0.13835 0.20803 0.27836 0.0
H19 H 0.09552 0.22804 0.31303 0.0
O20 O 0.13848 0.1773 0.30619 0.0
H21 H 0.15108 0.22726 0.36561 0.0
H22 H 0.10158 0.25164 0.28632 0.0
Cu23 Cu 0.40171 0.84286 0.82223 0.0
N24 N 0.38733 0.8385 0.84349 0.0
N25 N 0.37775 0.83456 0.87285 0.0
C26 C 0.3926 0.83831 0.86152 0.0
C27 C 0.36268 0.83242 0.86141 0.0
C28 C 0.36863 0.83482 0.84339 0.0
O29 O 0.42478 0.8558 0.82821 0.0
C30 C 0.37573 0.86867 0.8078 0.0
O31 O 0.37818 0.87694 0.8237 0.0
H32 H 0.40702 0.8407 0.86617 0.0
H33 H 0.35992 0.83408 0.83101 0.0
N34 N 0.40865 0.82123 0.81171 0.0
N35 N 0.41277 0.79984 0.79055 0.0
C36 C 0.4062 0.81643 0.79386 0.0
C37 C 0.41705 0.80728 0.82006 0.0
C38 C 0.41964 0.79405 0.80704 0.0
C39 C 0.4329 0.86631 0.81684 0.0
O40 O 0.42474 0.86971 0.80078 0.0
H41 H 0.39991 0.82507 0.78349 0.0
H42 H 0.42094 0.80677 0.83461 0.0
O43 O 0.38538 0.85475 0.80436 0.0
H44 H 0.34823 0.82964 0.86571 0.0
H45 H 0.42579 0.78109 0.80962 0.0
Cu46 Cu 0.62285 0.34256 0.69734 0.0
N47 N 0.63341 0.34466 0.67357 0.0
N48 N 0.63802 0.34417 0.64282 0.0
C49 C 0.6262 0.33978 0.65694 0.0
C50 C 0.65322 0.35191 0.65092 0.0
C51 C 0.65036 0.35214 0.66982 0.0
O52 O 0.59741 0.35264 0.69863 0.0
C53 C 0.64445 0.37002 0.71526 0.0
O54 O 0.63632 0.38096 0.70341 0.0
H55 H 0.61246 0.33351 0.65521 0.0
H56 H 0.66 0.35743 0.68014 0.0
N57 N 0.6212 0.31872 0.70427 0.0
N58 N 0.62007 0.29477 0.72272 0.0
C59 C 0.62151 0.31267 0.72188 0.0
C60 C 0.61948 0.30422 0.69349 0.0
C61 C 0.61876 0.2894 0.70484 0.0
C62 C 0.59069 0.36425 0.68751 0.0
O63 O 0.60161 0.37087 0.6744 0.0
H64 H 0.62254 0.32135 0.73383 0.0
H65 H 0.61887 0.3044 0.67847 0.0
O66 O 0.64 0.35362 0.71505 0.0
H67 H 0.66566 0.35685 0.64373 0.0
H68 H 0.61767 0.27574 0.70023 0.0
Cu69 Cu 0.90051 0.67351 0.19781 0.0
N70 N 0.88771 0.67604 0.17524 0.0
N71 N 0.88086 0.67774 0.14495 0.0
C72 C 0.89481 0.67779 0.15791 0.0
C73 C 0.86446 0.67602 0.15451 0.0
C74 C 0.86873 0.67502 0.17314 0.0
O75 O 0.92413 0.66063 0.19415 0.0
C76 C 0.87678 0.64629 0.21346 0.0
O77 O 0.88313 0.63599 0.2001 0.0
H78 H 0.90987 0.67847 0.15485 0.0
H79 H 0.85872 0.6733 0.18441 0.0
N80 N 0.90619 0.69575 0.20774 0.0
N81 N 0.90804 0.71796 0.22829 0.0
C82 C 0.90049 0.70187 0.2244 0.0
C83 C 0.91771 0.70837 0.20075 0.0
C84 C 0.91891 0.72211 0.21342 0.0
C85 C 0.93183 0.65101 0.20662 0.0
O86 O 0.92311 0.64877 0.2226 0.0
H87 H 0.89149 0.69436 0.23376 0.0
H88 H 0.92499 0.70747 0.18755 0.0
O89 O 0.88325 0.66202 0.21505 0.0
H90 H 0.85037 0.6755 0.14844 0.0
H91 H 0.92717 0.73416 0.21182 0.0
Cu92 Cu 0.32288 0.09704 0.1654 0.0
N93 N 0.31995 0.07682 0.15065 0.0
N94 N 0.32148 0.04915 0.1394 0.0
C95 C 0.32636 0.06013 0.15352 0.0
C96 C 0.31158 0.05935 0.12734 0.0
C97 C 0.31066 0.07634 0.13431 0.0
O98 O 0.34939 0.09924 0.1733 0.0
C99 C 0.30597 0.10581 0.20018 0.0
O100 O 0.32133 0.11543 0.20278 0.0
H101 H 0.33457 0.0562 0.16558 0.0
H102 H 0.30358 0.08759 0.12795 0.0
N103 N 0.31611 0.11658 0.15088 0.0
N104 N 0.29926 0.1394 0.13973 0.0
C105 C 0.30098 0.12726 0.15348 0.0
C106 C 0.3243 0.12214 0.13501 0.0
C107 C 0.31391 0.13623 0.12808 0.0
C108 C 0.35713 0.11441 0.1756 0.0
O109 O 0.34671 0.1288 0.17371 0.0
H110 H 0.2911 0.12578 0.1649 0.0
H111 H 0.33674 0.11615 0.12879 0.0
O112 O 0.3047 0.09614 0.18574 0.0
H113 H 0.30512 0.0548 0.11454 0.0
H114 H 0.31691 0.14356 0.11545 0.0
Cu115 Cu 0.18912 0.91392 0.66421 0.0
N116 N 0.1972 0.93349 0.65039 0.0
N117 N 0.20065 0.96114 0.63953 0.0
C118 C 0.18982 0.95004 0.64985 0.0
C119 C 0.21527 0.95117 0.63331 0.0
C120 C 0.21307 0.93413 0.64 0.0
O121 O 0.16285 0.91732 0.67202 0.0
C122 C 0.21104 0.89612 0.69224 0.0
O123 O 0.20243 0.88168 0.68636 0.0
H124 H 0.17727 0.95403 0.65749 0.0
H125 H 0.22264 0.92304 0.63787 0.0
N126 N 0.18977 0.89379 0.64901 0.0
N127 N 0.19893 0.86816 0.63614 0.0
C128 C 0.2045 0.88277 0.64561 0.0
C129 C 0.17455 0.88612 0.64101 0.0
C130 C 0.18013 0.87029 0.63313 0.0
C131 C 0.15448 0.90544 0.68162 0.0
O132 O 0.1643 0.89166 0.68744 0.0
H133 H 0.21869 0.88484 0.65105 0.0
H134 H 0.16022 0.89133 0.64158 0.0
O135 O 0.20666 0.91112 0.68514 0.0
H136 H 0.22686 0.95593 0.62474 0.0
H137 H 0.17094 0.86083 0.6262 0.0
Cu138 Cu 0.83415 0.41029 0.85466 0.0
N139 N 0.82791 0.43047 0.86842 0.0
N140 N 0.82646 0.45834 0.87906 0.0
C141 C 0.83341 0.44746 0.86574 0.0
C142 C 0.81624 0.44776 0.89047 0.0
C143 C 0.81715 0.43062 0.88385 0.0
O144 O 0.86047 0.4114 0.84665 0.0
C145 C 0.8076 0.41913 0.82569 0.0
O146 O 0.81185 0.43579 0.82926 0.0
H147 H 0.84253 0.45169 0.85445 0.0
H148 H 0.81049 0.419 0.88991 0.0
N149 N 0.83196 0.39065 0.87025 0.0
N150 N 0.82082 0.36583 0.88341 0.0
C151 C 0.81807 0.37835 0.87017 0.0
C152 C 0.84394 0.38584 0.88394 0.0
C153 C 0.8371 0.37054 0.89211 0.0
C154 C 0.86666 0.40209 0.8332 0.0
O155 O 0.85459 0.3926 0.8234 0.0
H156 H 0.80608 0.37873 0.86073 0.0
H157 H 0.85676 0.39296 0.88764 0.0
O158 O 0.81618 0.40677 0.83443 0.0
H159 H 0.80845 0.45214 0.9026 0.0
H160 H 0.84378 0.3633 0.90338 0.0
Cu161 Cu 0.68995 0.59895 0.35486 0.0
N162 N 0.69371 0.57881 0.36966 0.0
N163 N 0.69448 0.5508 0.38015 0.0
C164 C 0.69085 0.56154 0.36544 0.0
C165 C 0.6999 0.56176 0.39401 0.0
C166 C 0.69943 0.57897 0.38751 0.0
O167 O 0.6638 0.5989 0.34557 0.0
C168 C 0.71091 0.61282 0.32454 0.0
O169 O 0.69953 0.62651 0.32668 0.0
H170 H 0.68587 0.557 0.35203 0.0
H171 H 0.70295 0.59082 0.39529 0.0
N172 N 0.6932 0.61895 0.36998 0.0
N173 N 0.70375 0.6446 0.38181 0.0
C174 C 0.70699 0.63141 0.36947 0.0
C175 C 0.68104 0.62429 0.38328 0.0
C176 C 0.68746 0.64011 0.39055 0.0
C177 C 0.65519 0.61341 0.34189 0.0
O178 O 0.66449 0.62849 0.34336 0.0
H179 H 0.71883 0.63109 0.35988 0.0
H180 H 0.66819 0.61729 0.38712 0.0
O181 O 0.70873 0.59924 0.33491 0.0
H182 H 0.70411 0.55764 0.40784 0.0
H183 H 0.68062 0.64773 0.40141 0.0
Cu184 Cu 0.16401 0.33559 0.10729 0.0
N185 N 0.14839 0.35246 0.11863 0.0
N186 N 0.13976 0.3791 0.12948 0.0
C187 C 0.1542 0.36892 0.12325 0.0
C188 C 0.12418 0.36863 0.1287 0.0
C189 C 0.12957 0.35215 0.12203 0.0
O190 O 0.16022 0.33703 0.08058 0.0
C191 C 0.20041 0.33679 0.12681 0.0
O192 O 0.21849 0.34117 0.12722 0.0
H193 H 0.16865 0.37354 0.12137 0.0
H194 H 0.12032 0.34095 0.11934 0.0
N195 N 0.15974 0.3122 0.11493 0.0
N196 N 0.168 0.28413 0.12128 0.0
C197 C 0.17254 0.29922 0.11215 0.0
C198 C 0.1462 0.30501 0.12581 0.0
C199 C 0.15127 0.28762 0.12975 0.0
C200 C 0.14415 0.33336 0.07338 0.0
O201 O 0.13015 0.32834 0.08428 0.0
H202 H 0.18545 0.30122 0.10424 0.0
H203 H 0.13416 0.31216 0.13141 0.0
O204 O 0.19037 0.3417 0.1129 0.0
H205 H 0.10992 0.37265 0.13248 0.0
H206 H 0.14383 0.27866 0.13902 0.0
Cu207 Cu 0.6648 0.17735 0.91574 0.0
N208 N 0.67316 0.15707 0.90336 0.0
N209 N 0.67656 0.12916 0.89327 0.0
C210 C 0.66774 0.13999 0.90555 0.0
C211 C 0.68796 0.13987 0.88313 0.0
C212 C 0.68584 0.15703 0.88939 0.0
O213 O 0.65077 0.17109 0.93804 0.0
C214 C 0.64051 0.1859 0.88537 0.0
O215 O 0.63772 0.16864 0.88447 0.0
H216 H 0.65724 0.1357 0.91559 0.0
H217 H 0.6929 0.16875 0.88404 0.0
N218 N 0.68612 0.19019 0.92303 0.0
N219 N 0.7085 0.21126 0.92412 0.0
C220 C 0.6926 0.20542 0.91549 0.0
C221 C 0.69827 0.18618 0.93685 0.0
C222 C 0.71209 0.19916 0.93758 0.0
C223 C 0.63803 0.18105 0.94503 0.0
O224 O 0.63291 0.19555 0.93613 0.0
H225 H 0.68561 0.21216 0.90407 0.0
H226 H 0.69715 0.17458 0.94571 0.0
O227 O 0.65067 0.19219 0.89845 0.0
H228 H 0.69728 0.13561 0.87203 0.0
H229 H 0.724 0.19948 0.94711 0.0
Cu230 Cu 0.8503 0.84099 0.41517 0.0
N231 N 0.84008 0.86179 0.40517 0.0
N232 N 0.83628 0.89 0.396 0.0
C233 C 0.84729 0.87841 0.40558 0.0
C234 C 0.82162 0.88025 0.38943 0.0
C235 C 0.824 0.8629 0.39512 0.0
O236 O 0.86351 0.8466 0.43817 0.0
C237 C 0.87133 0.81359 0.39723 0.0
O238 O 0.8682 0.80454 0.41257 0.0
H239 H 0.86057 0.88181 0.41233 0.0
H240 H 0.81477 0.85179 0.39198 0.0
N241 N 0.83032 0.82584 0.42154 0.0
N242 N 0.80988 0.80308 0.42207 0.0
C243 C 0.82354 0.81161 0.41228 0.0
C244 C 0.82052 0.82646 0.43756 0.0
C245 C 0.80792 0.81245 0.43794 0.0
C246 C 0.8803 0.84221 0.44293 0.0
O247 O 0.89127 0.8338 0.43107 0.0
H248 H 0.82896 0.80725 0.39896 0.0
H249 H 0.82268 0.83625 0.44836 0.0
O250 O 0.86575 0.82967 0.39619 0.0
H251 H 0.80996 0.8853 0.38111 0.0
H252 H 0.79813 0.80938 0.4491 0.0
Cu253 Cu 0.35467 0.68183 0.60437 0.0
N254 N 0.35515 0.66049 0.6177 0.0
N255 N 0.3558 0.63189 0.62613 0.0
C256 C 0.35377 0.64347 0.61186 0.0
C257 C 0.35826 0.64198 0.64142 0.0
C258 C 0.35774 0.65954 0.6362 0.0
O259 O 0.36457 0.67978 0.57931 0.0
C260 C 0.38455 0.69703 0.626 0.0
O261 O 0.39362 0.68206 0.6228 0.0
H262 H 0.3518 0.63967 0.59747 0.0
H263 H 0.35933 0.67092 0.64525 0.0
N264 N 0.32978 0.69002 0.60238 0.0
N265 N 0.30525 0.70884 0.60349 0.0
C266 C 0.32295 0.7052 0.60969 0.0
C267 C 0.31593 0.68376 0.59126 0.0
C268 C 0.30075 0.69539 0.59188 0.0
C269 C 0.37771 0.66955 0.57354 0.0
O270 O 0.38644 0.65893 0.58528 0.0
H271 H 0.33122 0.71392 0.61852 0.0
H272 H 0.31714 0.672 0.58269 0.0
O273 O 0.36838 0.69961 0.61852 0.0
H274 H 0.36018 0.63698 0.65542 0.0
H275 H 0.28763 0.69426 0.58409 0.0
Cu276 Cu 0.92536 0.84412 0.69227 0.0
N277 N 0.91439 0.83974 0.66908 0.0
N278 N 0.90716 0.83988 0.63883 0.0
C279 C 0.92033 0.84411 0.65182 0.0
C280 C 0.89258 0.83249 0.64826 0.0
C281 C 0.8971 0.83238 0.66685 0.0
O282 O 0.95024 0.85515 0.69058 0.0
C283 C 0.89663 0.86964 0.70013 0.0
O284 O 0.89818 0.87374 0.68243 0.0
H285 H 0.93363 0.8508 0.64892 0.0
H286 H 0.88821 0.82769 0.6781 0.0
N287 N 0.92885 0.82253 0.70452 0.0
N288 N 0.9276 0.80145 0.72639 0.0
C289 C 0.92024 0.81697 0.7202 0.0
C290 C 0.94199 0.8101 0.70057 0.0
C291 C 0.94128 0.79707 0.71407 0.0
C292 C 0.9544 0.87001 0.68314 0.0
O293 O 0.94097 0.87955 0.67524 0.0
H294 H 0.90937 0.82453 0.72735 0.0
H295 H 0.95175 0.81075 0.68898 0.0
O296 O 0.90771 0.85801 0.70707 0.0
H297 H 0.87951 0.82762 0.64213 0.0
H298 H 0.95025 0.78539 0.71486 0.0
Cu299 Cu 0.58999 0.17069 0.19347 0.0
N300 N 0.60214 0.17342 0.17057 0.0
N301 N 0.60951 0.17299 0.14039 0.0
C302 C 0.59553 0.17102 0.15313 0.0
C303 C 0.62535 0.17688 0.15016 0.0
C304 C 0.62074 0.17721 0.16871 0.0
O305 O 0.56415 0.16182 0.19067 0.0
C306 C 0.6162 0.14342 0.20274 0.0
O307 O 0.61388 0.13868 0.18531 0.0
H308 H 0.581 0.16738 0.1499 0.0
H309 H 0.63036 0.17964 0.18018 0.0
N310 N 0.58837 0.19292 0.20472 0.0
N311 N 0.59162 0.21479 0.22552 0.0
C312 C 0.59607 0.19782 0.22107 0.0
C313 C 0.57874 0.20719 0.19854 0.0
C314 C 0.58072 0.22071 0.21131 0.0
C315 C 0.55901 0.14559 0.19024 0.0
O316 O 0.57191 0.133 0.19133 0.0
H317 H 0.60481 0.18907 0.22945 0.0
H318 H 0.57065 0.20762 0.18574 0.0
O319 O 0.60609 0.15599 0.20927 0.0
H320 H 0.63928 0.17928 0.14427 0.0
H321 H 0.57425 0.23374 0.21034 0.0
Cu322 Cu 0.42332 0.66632 0.32342 0.0
N323 N 0.41133 0.67182 0.34579 0.0
N324 N 0.40343 0.67493 0.3757 0.0
C325 C 0.41645 0.66853 0.36355 0.0
C326 C 0.3897 0.68235 0.36508 0.0
C327 C 0.39462 0.68042 0.34673 0.0
O328 O 0.44877 0.65695 0.32716 0.0
C329 C 0.39623 0.63917 0.31695 0.0
O330 O 0.39817 0.63618 0.33486 0.0
H331 H 0.42944 0.66176 0.36744 0.0
H332 H 0.38653 0.68487 0.3348 0.0
N333 N 0.42586 0.68749 0.31021 0.0
N334 N 0.42458 0.70781 0.28751 0.0
C335 C 0.42105 0.69074 0.2924 0.0
C336 C 0.43262 0.70293 0.31687 0.0
C337 C 0.43186 0.71549 0.30293 0.0
C338 C 0.45357 0.64064 0.32792 0.0
O339 O 0.44045 0.62825 0.32689 0.0
H340 H 0.41518 0.68073 0.28325 0.0
H341 H 0.43755 0.70493 0.33096 0.0
O342 O 0.40671 0.65082 0.30919 0.0
H343 H 0.37677 0.68846 0.37015 0.0
H344 H 0.43596 0.7293 0.30425 0.0
Cu345 Cu 0.09982 0.34273 0.82308 0.0
N346 N 0.11284 0.33801 0.84516 0.0
N347 N 0.1225 0.33685 0.87476 0.0
C348 C 0.10843 0.34182 0.86297 0.0
C349 C 0.1361 0.32961 0.86392 0.0
C350 C 0.1301 0.33034 0.84575 0.0
O351 O 0.0754 0.35423 0.82709 0.0
C352 C 0.12595 0.36999 0.81351 0.0
O353 O 0.12369 0.37509 0.83083 0.0
H354 H 0.09544 0.34844 0.86713 0.0
H355 H 0.13785 0.32577 0.83369 0.0
N356 N 0.09588 0.32128 0.81074 0.0
N357 N 0.09639 0.30063 0.78839 0.0
C358 C 0.10084 0.31753 0.79311 0.0
C359 C 0.08802 0.30632 0.8175 0.0
C360 C 0.08829 0.29355 0.80375 0.0
C361 C 0.06466 0.35644 0.81302 0.0
O362 O 0.07093 0.35158 0.79659 0.0
H363 H 0.10747 0.32712 0.78394 0.0
H364 H 0.08267 0.30478 0.8315 0.0
O365 O 0.11626 0.35697 0.8074 0.0
H366 H 0.14941 0.32405 0.86878 0.0
H367 H 0.08327 0.28001 0.80516 0.0
Cu368 Cu 0.68636 0.91173 0.83722 0.0
N369 N 0.66353 0.89921 0.83533 0.0
N370 N 0.63277 0.89183 0.83482 0.0
C371 C 0.64548 0.90531 0.83552 0.0
C372 C 0.6432 0.8768 0.83402 0.0
C373 C 0.66213 0.8814 0.83424 0.0
O374 O 0.68223 0.93616 0.84487 0.0
C375 C 0.69804 0.88995 0.86781 0.0
O376 O 0.68009 0.89041 0.87286 0.0
H377 H 0.64176 0.91925 0.83659 0.0
H378 H 0.67412 0.87238 0.83392 0.0
N379 N 0.69825 0.91204 0.81412 0.0
N380 N 0.72117 0.91005 0.7927 0.0
C381 C 0.71684 0.90906 0.81097 0.0
C382 C 0.69045 0.91504 0.79734 0.0
C383 C 0.70456 0.91384 0.78408 0.0
C384 C 0.67745 0.94097 0.86115 0.0
O385 O 0.67484 0.92887 0.87409 0.0
H386 H 0.72698 0.90638 0.82195 0.0
H387 H 0.67554 0.91777 0.79494 0.0
O388 O 0.70342 0.89897 0.85379 0.0
H389 H 0.63752 0.86343 0.83324 0.0
H390 H 0.70263 0.91531 0.76923 0.0
Cu391 Cu 0.83875 0.10254 0.32434 0.0
N392 N 0.862 0.10969 0.31416 0.0
N393 N 0.89216 0.11861 0.31069 0.0
C394 C 0.87898 0.11209 0.3226 0.0
C395 C 0.88312 0.12024 0.29422 0.0
C396 C 0.8646 0.11475 0.29641 0.0
O397 O 0.8412 0.07968 0.33664 0.0
C398 C 0.81608 0.1194 0.35213 0.0
O399 O 0.80968 0.10335 0.35576 0.0
H400 H 0.88144 0.10965 0.33724 0.0
H401 H 0.85364 0.11474 0.28584 0.0
N402 N 0.82159 0.09875 0.30497 0.0
N403 N 0.79571 0.09953 0.28683 0.0
C404 C 0.80475 0.10674 0.30166 0.0
C405 C 0.82327 0.08607 0.29195 0.0
C406 C 0.80742 0.08652 0.28075 0.0
C407 C 0.84853 0.07588 0.35232 0.0
O408 O 0.85568 0.08857 0.36272 0.0
H409 H 0.79926 0.11752 0.31002 0.0
H410 H 0.83509 0.0769 0.29093 0.0
O411 O 0.82891 0.12146 0.33986 0.0
H412 H 0.88943 0.12509 0.28146 0.0
H413 H 0.80456 0.07755 0.26934 0.0
Cu414 Cu 0.18297 0.59421 0.18641 0.0
N415 N 0.16075 0.60762 0.18907 0.0
N416 N 0.13044 0.61641 0.19061 0.0
C417 C 0.14246 0.60236 0.1906 0.0
C418 C 0.14158 0.63096 0.18932 0.0
C419 C 0.16022 0.6255 0.18849 0.0
O420 O 0.17799 0.57001 0.17833 0.0
C421 C 0.19408 0.61461 0.15483 0.0
O422 O 0.17631 0.61271 0.14951 0.0
H423 H 0.13801 0.58858 0.19101 0.0
H424 H 0.17259 0.63396 0.18708 0.0
N425 N 0.19557 0.59326 0.20915 0.0
N426 N 0.21903 0.59472 0.2301 0.0
C427 C 0.21419 0.59638 0.21199 0.0
C428 C 0.18828 0.58948 0.22597 0.0
C429 C 0.20273 0.59036 0.23893 0.0
C430 C 0.1657 0.56551 0.16622 0.0
O431 O 0.15554 0.57783 0.15788 0.0
H432 H 0.22399 0.59963 0.20091 0.0
H433 H 0.17349 0.58642 0.2286 0.0
O434 O 0.19976 0.60677 0.1695 0.0
H435 H 0.13658 0.64457 0.1889 0.0
H436 H 0.20122 0.58825 0.25374 0.0
Cu437 Cu 0.33714 0.41489 0.67923 0.0
N438 N 0.35863 0.40268 0.68752 0.0
N439 N 0.38856 0.39395 0.69288 0.0
C440 C 0.3772 0.40603 0.68438 0.0
C441 C 0.37658 0.38262 0.70157 0.0
C442 C 0.3582 0.38804 0.69825 0.0
O443 O 0.34415 0.43691 0.66698 0.0
C444 C 0.32976 0.38924 0.6512 0.0
O445 O 0.34811 0.39035 0.64792 0.0
H446 H 0.38222 0.41716 0.67618 0.0
H447 H 0.34535 0.38171 0.70319 0.0
N448 N 0.32216 0.42025 0.69978 0.0
N449 N 0.29747 0.42054 0.71938 0.0
C450 C 0.30394 0.41543 0.7025 0.0
C451 C 0.3275 0.42874 0.71534 0.0
C452 C 0.31232 0.42896 0.72746 0.0
C453 C 0.33265 0.44508 0.65629 0.0
O454 O 0.31604 0.43787 0.65261 0.0
H455 H 0.29572 0.4082 0.69228 0.0
H456 H 0.34157 0.43404 0.71784 0.0
O457 O 0.32237 0.39925 0.66344 0.0
H458 H 0.38073 0.37101 0.70951 0.0
H459 H 0.31248 0.43443 0.74136 0.0
Cu460 Cu 0.84179 0.69673 0.9162 0.0
N461 N 0.83345 0.67639 0.90382 0.0
N462 N 0.82994 0.64826 0.89447 0.0
C463 C 0.83771 0.65922 0.90729 0.0
C464 C 0.82038 0.65898 0.88263 0.0
C465 C 0.82256 0.67629 0.88846 0.0
O466 O 0.85338 0.69042 0.93978 0.0
C467 C 0.8687 0.70246 0.88751 0.0
O468 O 0.86912 0.685 0.8868 0.0
H469 H 0.84677 0.65493 0.91861 0.0
H470 H 0.81686 0.68806 0.88181 0.0
N471 N 0.82065 0.71086 0.92103 0.0
N472 N 0.80062 0.73397 0.92122 0.0
C473 C 0.81803 0.72799 0.91621 0.0
C474 C 0.80447 0.70575 0.92939 0.0
C475 C 0.79208 0.71995 0.92954 0.0
C476 C 0.86403 0.70115 0.94865 0.0
O477 O 0.86837 0.71654 0.94108 0.0
H478 H 0.82871 0.73582 0.90912 0.0
H479 H 0.80177 0.69251 0.93468 0.0
O480 O 0.85868 0.71004 0.8999 0.0
H481 H 0.81232 0.65462 0.87064 0.0
H482 H 0.77772 0.71973 0.93491 0.0
Cu483 Cu 0.33258 0.81038 0.10185 0.0
N484 N 0.32791 0.83136 0.11488 0.0
N485 N 0.32728 0.85964 0.12442 0.0
C486 C 0.33256 0.84832 0.11075 0.0
C487 C 0.31893 0.84936 0.13748 0.0
C488 C 0.31936 0.83199 0.13156 0.0
O489 O 0.34047 0.81469 0.07642 0.0
C490 C 0.36393 0.8027 0.12549 0.0
O491 O 0.36703 0.81992 0.1248 0.0
H492 H 0.33998 0.8522 0.09821 0.0
H493 H 0.31392 0.82053 0.13894 0.0
N494 N 0.30999 0.79751 0.10087 0.0
N495 N 0.28934 0.77498 0.1028 0.0
C496 C 0.30764 0.78015 0.10485 0.0
C497 C 0.29267 0.8036 0.09614 0.0
C498 C 0.27989 0.78973 0.0973 0.0
C499 C 0.35579 0.8221 0.07107 0.0
O500 O 0.36808 0.82781 0.08347 0.0
H501 H 0.3192 0.77151 0.10901 0.0
H502 H 0.28957 0.8172 0.09225 0.0
O503 O 0.35059 0.79606 0.11578 0.0
H504 H 0.31275 0.85406 0.15034 0.0
H505 H 0.26477 0.79058 0.09466 0.0
Cu506 Cu 0.18127 0.20017 0.59763 0.0
N507 N 0.1862 0.17858 0.60962 0.0
N508 N 0.19044 0.15011 0.61749 0.0
C509 C 0.18338 0.16147 0.60461 0.0
C510 C 0.19784 0.16041 0.631 0.0
C511 C 0.19516 0.17789 0.62613 0.0
O512 O 0.17138 0.19807 0.5725 0.0
C513 C 0.15143 0.20808 0.62285 0.0
O514 O 0.14684 0.19127 0.62066 0.0
H515 H 0.1769 0.1574 0.59165 0.0
H516 H 0.19969 0.18942 0.63395 0.0
N517 N 0.20447 0.21196 0.5957 0.0
N518 N 0.2269 0.233 0.5971 0.0
C519 C 0.20835 0.22904 0.59987 0.0
C520 C 0.22103 0.20484 0.59012 0.0
C521 C 0.23489 0.21775 0.59096 0.0
C522 C 0.15813 0.1882 0.56628 0.0
O523 O 0.14904 0.1774 0.57756 0.0
H524 H 0.19772 0.23833 0.60476 0.0
H525 H 0.22289 0.19113 0.58594 0.0
O526 O 0.16511 0.21453 0.61346 0.0
H527 H 0.2047 0.1556 0.64352 0.0
H528 H 0.24977 0.21588 0.58769 0.0
Cu529 Cu 0.68074 0.31281 0.41772 0.0
N530 N 0.69216 0.3326 0.40671 0.0
N531 N 0.69777 0.36053 0.39747 0.0
C532 C 0.68741 0.34986 0.40874 0.0
C533 C 0.70951 0.34951 0.38811 0.0
C534 C 0.70601 0.33232 0.39384 0.0
O535 O 0.6672 0.3199 0.44001 0.0
C536 C 0.65501 0.30979 0.38743 0.0
O537 O 0.65537 0.32726 0.38755 0.0
H538 H 0.67614 0.35439 0.4178 0.0
H539 H 0.71283 0.32039 0.38875 0.0
N540 N 0.69938 0.29644 0.42461 0.0
N541 N 0.71894 0.27305 0.42378 0.0
C542 C 0.70757 0.28398 0.41381 0.0
C543 C 0.70587 0.29338 0.44192 0.0
C544 C 0.71791 0.27892 0.44147 0.0
C545 C 0.65771 0.30863 0.44941 0.0
O546 O 0.65598 0.29233 0.44307 0.0
H547 H 0.7046 0.2825 0.39913 0.0
H548 H 0.70168 0.30083 0.4541 0.0
O549 O 0.66426 0.30125 0.39975 0.0
H550 H 0.71989 0.35356 0.37784 0.0
H551 H 0.72519 0.27305 0.45325 0.0
C552 C 0.17559 0.32973 0.15074 0.0
C553 C 0.1927 0.32544 0.14181 0.0
C554 C 0.1683 0.3187 0.1647 0.0
C555 C 0.18185 0.28487 0.19925 0.0
H556 H 0.1282 0.273 0.19836 0.0
C557 C 0.14846 0.23688 0.25338 0.0
C558 C 0.13038 0.24145 0.26029 0.0
C559 C 0.15625 0.24595 0.23814 0.0
C560 C 0.14317 0.27632 0.19897 0.0
H561 H 0.21635 0.30701 0.14133 0.0
H562 H 0.20358 0.28758 0.16566 0.0
H563 H 0.14155 0.29153 0.1738 0.0
H564 H 0.10616 0.25891 0.25593 0.0
H565 H 0.11991 0.27499 0.23006 0.0
H566 H 0.18343 0.2701 0.22466 0.0
C567 C 0.19565 0.29936 0.16174 0.0
C568 C 0.15082 0.28692 0.18484 0.0
C569 C 0.20292 0.31042 0.14777 0.0
C570 C 0.12022 0.25513 0.25131 0.0
C571 C 0.12803 0.26423 0.23619 0.0
C572 C 0.17416 0.27439 0.21349 0.0
C573 C 0.17814 0.30328 0.17022 0.0
C574 C 0.17021 0.29145 0.1849 0.0
C575 C 0.14619 0.25986 0.22942 0.0
C576 C 0.15466 0.27012 0.21366 0.0
H577 H 0.16794 0.34168 0.14709 0.0
H578 H 0.15501 0.32233 0.1713 0.0
H579 H 0.19682 0.28825 0.19976 0.0
H580 H 0.1568 0.22652 0.25991 0.0
H581 H 0.17017 0.24204 0.23319 0.0
C582 C 0.42524 0.77646 0.76957 0.0
C583 C 0.41228 0.79029 0.77315 0.0
C584 C 0.42462 0.76714 0.75276 0.0
C585 C 0.40626 0.76999 0.70449 0.0
H586 H 0.41067 0.71859 0.70557 0.0
C587 C 0.38119 0.72514 0.64434 0.0
C588 C 0.39145 0.70953 0.64042 0.0
C589 C 0.38617 0.73584 0.65943 0.0
C590 C 0.40974 0.73296 0.70495 0.0
H591 H 0.38832 0.80495 0.76181 0.0
H592 H 0.38725 0.78874 0.73261 0.0
H593 H 0.41453 0.73546 0.73422 0.0
H594 H 0.41555 0.69339 0.64883 0.0
H595 H 0.42436 0.7122 0.67511 0.0
H596 H 0.40113 0.76745 0.67527 0.0
C597 C 0.39813 0.7853 0.74266 0.0
C598 C 0.41193 0.74264 0.7214 0.0
C599 C 0.39874 0.7946 0.75945 0.0
C600 C 0.40732 0.70529 0.65148 0.0
C601 C 0.41228 0.71599 0.66663 0.0
C602 C 0.40408 0.76031 0.68804 0.0
C603 C 0.41103 0.77143 0.73911 0.0
C604 C 0.40995 0.76125 0.72141 0.0
C605 C 0.40154 0.73121 0.67099 0.0
C606 C 0.40553 0.74166 0.68812 0.0
H607 H 0.43603 0.77294 0.77966 0.0
H608 H 0.43491 0.75667 0.75038 0.0
H609 H 0.405 0.78434 0.70395 0.0
H610 H 0.36888 0.72882 0.63611 0.0
H611 H 0.37747 0.74736 0.66248 0.0
C612 C 0.61197 0.2667 0.73912 0.0
C613 C 0.62012 0.28379 0.73925 0.0
C614 C 0.61206 0.25612 0.75516 0.0
C615 C 0.61738 0.25852 0.80638 0.0
H616 H 0.63044 0.20858 0.80223 0.0
C617 C 0.63949 0.21567 0.86957 0.0
C618 C 0.63424 0.19762 0.86991 0.0
C619 C 0.63553 0.22625 0.85403 0.0
C620 C 0.62645 0.22243 0.80364 0.0
H621 H 0.63507 0.30294 0.75646 0.0
H622 H 0.63516 0.28458 0.7843 0.0
H623 H 0.62798 0.22675 0.77425 0.0
H624 H 0.61993 0.17677 0.85448 0.0
H625 H 0.61276 0.1953 0.8275 0.0
H626 H 0.61602 0.25424 0.83579 0.0
C627 C 0.6284 0.27947 0.77188 0.0
C628 C 0.62507 0.23286 0.78757 0.0
C629 C 0.62835 0.29002 0.75586 0.0
C630 C 0.62426 0.1906 0.85465 0.0
C631 C 0.62028 0.20119 0.83911 0.0
C632 C 0.61871 0.24808 0.82245 0.0
C633 C 0.62027 0.26238 0.77174 0.0
C634 C 0.62073 0.25108 0.78876 0.0
C635 C 0.62618 0.21906 0.83845 0.0
C636 C 0.62347 0.22994 0.82131 0.0
H637 H 0.60528 0.26154 0.7267 0.0
H638 H 0.60549 0.2431 0.75463 0.0
H639 H 0.61368 0.27244 0.80777 0.0
H640 H 0.64724 0.22152 0.88105 0.0
H641 H 0.64047 0.23989 0.85396 0.0
C642 C 0.91997 0.73958 0.25152 0.0
C643 C 0.90559 0.72811 0.24514 0.0
C644 C 0.91778 0.74896 0.26818 0.0
C645 C 0.90532 0.77455 0.29863 0.0
H646 H 0.87939 0.75161 0.33972 0.0
C647 C 0.87886 0.81316 0.36314 0.0
C648 C 0.87891 0.80452 0.38049 0.0
C649 C 0.88396 0.804 0.34698 0.0
C650 C 0.88689 0.75817 0.3285 0.0
H651 H 0.87737 0.71796 0.25101 0.0
H652 H 0.8734 0.73445 0.27983 0.0
H653 H 0.88468 0.73526 0.31107 0.0
H654 H 0.88523 0.77967 0.39455 0.0
H655 H 0.89455 0.76382 0.36647 0.0
H656 H 0.90787 0.79735 0.31625 0.0
C657 C 0.88661 0.73588 0.27226 0.0
C658 C 0.88967 0.74886 0.31192 0.0
C659 C 0.88886 0.72644 0.25568 0.0
C660 C 0.88491 0.78671 0.3814 0.0
C661 C 0.89011 0.77757 0.36526 0.0
C662 C 0.90261 0.78385 0.31526 0.0
C663 C 0.90109 0.74717 0.27882 0.0
C664 C 0.89875 0.75697 0.29669 0.0
C665 C 0.88934 0.78599 0.34778 0.0
C666 C 0.89322 0.77583 0.33038 0.0
H667 H 0.93313 0.741 0.24387 0.0
H668 H 0.92933 0.75734 0.27289 0.0
H669 H 0.91224 0.78129 0.28717 0.0
H670 H 0.87426 0.82687 0.3619 0.0
H671 H 0.88298 0.81089 0.33379 0.0
C672 C 0.29071 0.11802 0.22897 0.0
C673 C 0.28914 0.10841 0.21231 0.0
C674 C 0.27449 0.12237 0.23927 0.0
C675 C 0.22249 0.11282 0.24417 0.0
H676 H 0.22156 0.16042 0.26483 0.0
C677 C 0.15344 0.14902 0.2675 0.0
C678 C 0.15437 0.15905 0.28396 0.0
C679 C 0.16986 0.1412 0.26009 0.0
C680 C 0.22165 0.14701 0.25935 0.0
H681 H 0.26928 0.09534 0.1937 0.0
H682 H 0.24103 0.10324 0.21136 0.0
H683 H 0.25025 0.14965 0.24975 0.0
H684 H 0.17325 0.16827 0.30582 0.0
H685 H 0.20178 0.15472 0.29285 0.0
H686 H 0.19356 0.11053 0.25336 0.0
C687 C 0.25479 0.10717 0.21674 0.0
C688 C 0.23817 0.14077 0.25074 0.0
C689 C 0.27103 0.10267 0.20654 0.0
C690 C 0.172 0.16069 0.29308 0.0
C691 C 0.18839 0.153 0.2856 0.0
C692 C 0.20589 0.11914 0.25266 0.0
C693 C 0.25626 0.11738 0.23306 0.0
C694 C 0.23883 0.12361 0.24297 0.0
C695 C 0.18757 0.14337 0.2689 0.0
C696 C 0.20528 0.13633 0.26031 0.0
H697 H 0.30446 0.12253 0.23388 0.0
H698 H 0.27626 0.12988 0.25198 0.0
H699 H 0.22251 0.09945 0.2386 0.0
H700 H 0.1401 0.14747 0.26013 0.0
H701 H 0.16878 0.13395 0.24713 0.0
C702 C 0.35353 0.86178 0.78159 0.0
C703 C 0.35995 0.87379 0.79519 0.0
C704 C 0.33732 0.86553 0.77105 0.0
C705 C 0.30664 0.90042 0.75302 0.0
H706 H 0.26767 0.86392 0.7534 0.0
C707 C 0.2347 0.90971 0.71437 0.0
C708 C 0.22697 0.89461 0.70568 0.0
C709 C 0.25035 0.90812 0.72636 0.0
C710 C 0.27847 0.87417 0.75286 0.0
H711 H 0.35482 0.89954 0.80779 0.0
H712 H 0.32665 0.9063 0.78887 0.0
H713 H 0.29673 0.85961 0.77125 0.0
H714 H 0.22975 0.86602 0.70266 0.0
H715 H 0.25719 0.86332 0.72285 0.0
H716 H 0.28881 0.91471 0.73403 0.0
C717 C 0.33414 0.89389 0.78662 0.0
C718 C 0.29508 0.87171 0.76321 0.0
C719 C 0.35022 0.89 0.79744 0.0
C720 C 0.23517 0.87792 0.70929 0.0
C721 C 0.25092 0.87636 0.72101 0.0
C722 C 0.29012 0.90277 0.74237 0.0
C723 C 0.32732 0.8815 0.77363 0.0
C724 C 0.3094 0.88471 0.76325 0.0
C725 C 0.25877 0.89141 0.72975 0.0
C726 C 0.27588 0.88957 0.74197 0.0
H727 H 0.36064 0.84916 0.77948 0.0
H728 H 0.33246 0.85583 0.76098 0.0
H729 H 0.31752 0.91062 0.75279 0.0
H730 H 0.22866 0.92276 0.71191 0.0
H731 H 0.25577 0.91999 0.73301 0.0
C732 C 0.78541 0.39699 0.81123 0.0
C733 C 0.79161 0.41469 0.81302 0.0
C734 C 0.76938 0.39289 0.80054 0.0
C735 C 0.73806 0.40961 0.7632 0.0
H736 H 0.70182 0.37639 0.78435 0.0
C737 C 0.66591 0.3941 0.72752 0.0
C738 C 0.66006 0.37621 0.72756 0.0
C739 C 0.68143 0.39958 0.73832 0.0
C740 C 0.71186 0.38554 0.77812 0.0
H741 H 0.78609 0.44191 0.8045 0.0
H742 H 0.75813 0.4347 0.78576 0.0
H743 H 0.73034 0.38418 0.80174 0.0
H744 H 0.66587 0.35011 0.73919 0.0
H745 H 0.69295 0.35956 0.75768 0.0
H746 H 0.7197 0.41077 0.73944 0.0
C747 C 0.76571 0.424 0.79263 0.0
C748 C 0.72823 0.39002 0.78811 0.0
C749 C 0.78171 0.42813 0.80342 0.0
C750 C 0.6699 0.36401 0.73886 0.0
C751 C 0.68542 0.36947 0.74958 0.0
C752 C 0.7217 0.40506 0.75313 0.0
C753 C 0.7592 0.40636 0.79131 0.0
C754 C 0.7416 0.40199 0.78072 0.0
C755 C 0.69149 0.3873 0.74938 0.0
C756 C 0.70846 0.39285 0.76041 0.0
H757 H 0.7927 0.38628 0.81838 0.0
H758 H 0.76492 0.37913 0.79956 0.0
H759 H 0.74815 0.41877 0.75706 0.0
H760 H 0.65863 0.40386 0.71901 0.0
H761 H 0.68553 0.41347 0.73802 0.0
C762 C 0.85474 0.62273 0.22593 0.0
C763 C 0.86059 0.64062 0.22524 0.0
C764 C 0.83857 0.61782 0.23613 0.0
C765 C 0.7932 0.63546 0.25138 0.0
H766 H 0.79372 0.60003 0.29059 0.0
C767 C 0.73215 0.63063 0.30385 0.0
C768 C 0.72716 0.61407 0.3115 0.0
C769 C 0.74802 0.6323 0.29235 0.0
C770 C 0.79318 0.60971 0.27944 0.0
H771 H 0.8542 0.6673 0.23493 0.0
H772 H 0.8259 0.65875 0.25228 0.0
H773 H 0.82255 0.60548 0.2724 0.0
H774 H 0.73477 0.58616 0.31274 0.0
H775 H 0.76222 0.58892 0.29208 0.0
H776 H 0.76394 0.6396 0.25793 0.0
C777 C 0.83386 0.64855 0.24504 0.0
C778 C 0.80974 0.61286 0.26911 0.0
C779 C 0.85014 0.6534 0.23517 0.0
C780 C 0.73827 0.59911 0.3071 0.0
C781 C 0.75409 0.60074 0.29535 0.0
C782 C 0.77661 0.63212 0.26144 0.0
C783 C 0.82781 0.63076 0.24547 0.0
C784 C 0.80998 0.62606 0.25528 0.0
C785 C 0.75925 0.6174 0.28791 0.0
C786 C 0.77647 0.61953 0.27595 0.0
H787 H 0.86251 0.61258 0.21844 0.0
H788 H 0.83416 0.60401 0.23628 0.0
H789 H 0.79296 0.64552 0.24057 0.0
H790 H 0.72405 0.64248 0.3071 0.0
H791 H 0.75171 0.64543 0.28733 0.0
C792 C 0.2787 0.15819 0.11993 0.0
C793 C 0.28453 0.1526 0.13767 0.0
C794 C 0.2646 0.17115 0.1179 0.0
C795 C 0.22626 0.1951 0.14344 0.0
H796 H 0.234 0.23032 0.10478 0.0
C797 C 0.17205 0.25187 0.12768 0.0
C798 C 0.17989 0.26858 0.12335 0.0
C799 C 0.18377 0.23685 0.12935 0.0
C800 C 0.23166 0.22067 0.11573 0.0
H801 H 0.2801 0.15618 0.16723 0.0
H802 H 0.25579 0.1791 0.16376 0.0
H803 H 0.25638 0.20596 0.10805 0.0
H804 H 0.20639 0.28261 0.11828 0.0
H805 H 0.22658 0.2568 0.12143 0.0
H806 H 0.20189 0.21037 0.15155 0.0
C807 C 0.26178 0.17319 0.15136 0.0
C808 C 0.24438 0.20651 0.11744 0.0
C809 C 0.27578 0.1601 0.15337 0.0
C810 C 0.19971 0.26996 0.12116 0.0
C811 C 0.21136 0.25507 0.12295 0.0
C812 C 0.21355 0.20937 0.14178 0.0
C813 C 0.2561 0.17898 0.13359 0.0
C814 C 0.24196 0.1936 0.1314 0.0
C815 C 0.20357 0.23827 0.12682 0.0
C816 C 0.21624 0.22245 0.12804 0.0
H817 H 0.28491 0.15241 0.10757 0.0
H818 H 0.26032 0.17498 0.10399 0.0
H819 H 0.2238 0.18528 0.1542 0.0
H820 H 0.15685 0.25033 0.12939 0.0
H821 H 0.17729 0.22408 0.13225 0.0
C822 C 0.80893 0.34287 0.90518 0.0
C823 C 0.80897 0.35062 0.88738 0.0
C824 C 0.79756 0.32806 0.90901 0.0
C825 C 0.77263 0.29079 0.88622 0.0
H826 H 0.74573 0.28759 0.93314 0.0
C827 C 0.71878 0.23463 0.90198 0.0
C828 C 0.71934 0.22706 0.91987 0.0
C829 C 0.72933 0.2499 0.89787 0.0
C830 C 0.75331 0.28819 0.92006 0.0
H831 H 0.79711 0.34872 0.8596 0.0
H832 H 0.77707 0.32307 0.86635 0.0
H833 H 0.76477 0.31389 0.92624 0.0
H834 H 0.73131 0.22986 0.94751 0.0
H835 H 0.74996 0.25625 0.94026 0.0
H836 H 0.76125 0.26505 0.88007 0.0
C837 C 0.78597 0.32837 0.87732 0.0
C838 C 0.76422 0.30327 0.9161 0.0
C839 C 0.7973 0.34322 0.87351 0.0
C840 C 0.73068 0.23519 0.93355 0.0
C841 C 0.74121 0.25046 0.92944 0.0
C842 C 0.76173 0.2757 0.89018 0.0
C843 C 0.78597 0.32061 0.89511 0.0
C844 C 0.77407 0.30472 0.89916 0.0
C845 C 0.74067 0.258 0.91155 0.0
C846 C 0.752 0.27419 0.90718 0.0
H847 H 0.81756 0.34832 0.91625 0.0
H848 H 0.79806 0.3223 0.92281 0.0
H849 H 0.78026 0.29137 0.87316 0.0
H850 H 0.71038 0.22865 0.89104 0.0
H851 H 0.72845 0.25546 0.88399 0.0
C852 C 0.79672 0.78241 0.39852 0.0
C853 C 0.80011 0.78686 0.4172 0.0
C854 C 0.78676 0.76688 0.39395 0.0
C855 C 0.75335 0.73411 0.41449 0.0
H856 H 0.76687 0.70547 0.37172 0.0
C857 C 0.70584 0.67632 0.39048 0.0
C858 C 0.71474 0.66059 0.38454 0.0
C859 C 0.71643 0.69176 0.39353 0.0
C860 C 0.763 0.71324 0.38381 0.0
H861 H 0.79644 0.77806 0.44568 0.0
H862 H 0.77937 0.751 0.4378 0.0
H863 H 0.78547 0.73197 0.3791 0.0
H864 H 0.74176 0.64881 0.37698 0.0
H865 H 0.76039 0.67572 0.38262 0.0
H866 H 0.73128 0.7152 0.41959 0.0
C867 C 0.78387 0.75971 0.42663 0.0
C868 C 0.77353 0.72857 0.3879 0.0
C869 C 0.79369 0.77525 0.43118 0.0
C870 C 0.73448 0.66075 0.38143 0.0
C871 C 0.74513 0.67619 0.38462 0.0
C872 C 0.7429 0.7188 0.41045 0.0
C873 C 0.78007 0.7554 0.40798 0.0
C874 C 0.76885 0.73917 0.40334 0.0
C875 C 0.73625 0.69186 0.39087 0.0
C876 C 0.74754 0.70816 0.39505 0.0
H877 H 0.80137 0.79115 0.38745 0.0
H878 H 0.78392 0.76409 0.37945 0.0
H879 H 0.74913 0.74206 0.42633 0.0
H880 H 0.69061 0.67677 0.39259 0.0
H881 H 0.70901 0.70366 0.3979 0.0
C882 C 0.22952 0.85375 0.62825 0.0
C883 C 0.21005 0.85246 0.63245 0.0
C884 C 0.24031 0.8384 0.62505 0.0
C885 C 0.24217 0.79093 0.63604 0.0
H886 H 0.27375 0.78659 0.59209 0.0
C887 C 0.29546 0.73314 0.62446 0.0
C888 C 0.29442 0.72473 0.60706 0.0
C889 C 0.28539 0.74886 0.62778 0.0
C890 C 0.26498 0.78764 0.60441 0.0
H891 H 0.18672 0.8341 0.63694 0.0
H892 H 0.20558 0.80735 0.63155 0.0
H893 H 0.25592 0.81411 0.59754 0.0
H894 H 0.28224 0.7263 0.57943 0.0
H895 H 0.26479 0.75392 0.58516 0.0
H896 H 0.25127 0.76452 0.64297 0.0
C897 C 0.21245 0.82022 0.63059 0.0
C898 C 0.25491 0.8034 0.60759 0.0
C899 C 0.20163 0.83553 0.63349 0.0
C900 C 0.28314 0.73238 0.59303 0.0
C901 C 0.27331 0.74826 0.59625 0.0
C902 C 0.25247 0.7753 0.63302 0.0
C903 C 0.23189 0.82148 0.62634 0.0
C904 C 0.24326 0.80512 0.62334 0.0
C905 C 0.27434 0.75665 0.61366 0.0
C906 C 0.26384 0.77343 0.6171 0.0
H907 H 0.23633 0.86664 0.62732 0.0
H908 H 0.2553 0.83973 0.62187 0.0
H909 H 0.23339 0.79196 0.64836 0.0
H910 H 0.30398 0.72748 0.63553 0.0
H911 H 0.28648 0.75509 0.64131 0.0
C912 C 0.88423 0.70476 0.85631 0.0
C913 C 0.87772 0.71311 0.87257 0.0
C914 C 0.89096 0.71483 0.84135 0.0
C915 C 0.88886 0.76052 0.82163 0.0
H916 H 0.92777 0.74195 0.78885 0.0
C917 C 0.93666 0.78281 0.75329 0.0
C918 C 0.9227 0.7921 0.74322 0.0
C919 C 0.93198 0.77382 0.76969 0.0
C920 C 0.91706 0.74751 0.79795 0.0
H921 H 0.8739 0.73858 0.88615 0.0
H922 H 0.8863 0.75614 0.86032 0.0
H923 H 0.91946 0.72565 0.81683 0.0
H924 H 0.89286 0.7991 0.7423 0.0
H925 H 0.88445 0.78297 0.77057 0.0
H926 H 0.88696 0.78272 0.8031 0.0
C927 C 0.88568 0.74182 0.85888 0.0
C928 C 0.91207 0.73798 0.81392 0.0
C929 C 0.87872 0.73174 0.87378 0.0
C930 C 0.90393 0.7922 0.74989 0.0
C931 C 0.89917 0.78301 0.76616 0.0
C932 C 0.89402 0.77017 0.80577 0.0
C933 C 0.89159 0.73352 0.84232 0.0
C934 C 0.89774 0.74423 0.82589 0.0
C935 C 0.91314 0.77369 0.77632 0.0
C936 C 0.90806 0.76372 0.79359 0.0
H937 H 0.88353 0.69044 0.85484 0.0
H938 H 0.89506 0.70791 0.82879 0.0
H939 H 0.87759 0.76571 0.83033 0.0
H940 H 0.9513 0.78275 0.74866 0.0
H941 H 0.94323 0.76716 0.77728 0.0
C942 C 0.60254 0.21535 0.25833 0.0
C943 C 0.59703 0.22444 0.24208 0.0
C944 C 0.60773 0.2247 0.27434 0.0
C945 C 0.62402 0.26907 0.29015 0.0
H946 H 0.60933 0.2515 0.33879 0.0
C947 C 0.63782 0.30953 0.35686 0.0
C948 C 0.64569 0.30013 0.37194 0.0
C949 C 0.63061 0.30044 0.34144 0.0
C950 C 0.61365 0.25651 0.32531 0.0
H951 H 0.59284 0.25066 0.23008 0.0
H952 H 0.60137 0.2669 0.25806 0.0
H953 H 0.59942 0.23541 0.31098 0.0
H954 H 0.65156 0.27377 0.38287 0.0
H955 H 0.63896 0.25795 0.35596 0.0
H956 H 0.63822 0.29017 0.30448 0.0
C957 C 0.60193 0.25251 0.25835 0.0
C958 C 0.60801 0.24727 0.30936 0.0
C959 C 0.5968 0.24316 0.24232 0.0
C960 C 0.6456 0.28143 0.3715 0.0
C961 C 0.6383 0.27235 0.3561 0.0
C962 C 0.62957 0.27834 0.30608 0.0
C963 C 0.60749 0.24341 0.27457 0.0
C964 C 0.61319 0.25339 0.29157 0.0
C965 C 0.63101 0.28176 0.34077 0.0
C966 C 0.62452 0.27214 0.32385 0.0
H967 H 0.6027 0.20097 0.25881 0.0
H968 H 0.61214 0.21724 0.28649 0.0
H969 H 0.62856 0.27401 0.27672 0.0
H970 H 0.6376 0.32393 0.35675 0.0
H971 H 0.62483 0.30807 0.32996 0.0
C972 C 0.40728 0.7093 0.25747 0.0
C973 C 0.42089 0.71629 0.26983 0.0
C974 C 0.40324 0.71792 0.24067 0.0
C975 C 0.40533 0.76205 0.21873 0.0
H976 H 0.39717 0.73599 0.17294 0.0
C977 C 0.38858 0.79876 0.15038 0.0
C978 C 0.37394 0.79156 0.13942 0.0
C979 C 0.39644 0.78895 0.16504 0.0
C980 C 0.39926 0.74346 0.18563 0.0
H981 H 0.44139 0.73755 0.27371 0.0
H982 H 0.43417 0.75263 0.24459 0.0
H983 H 0.40651 0.72001 0.20109 0.0
H984 H 0.35659 0.76809 0.13482 0.0
H985 H 0.37002 0.75115 0.16051 0.0
H986 H 0.39765 0.78542 0.20353 0.0
C987 C 0.42646 0.7406 0.24803 0.0
C988 C 0.40463 0.73429 0.20176 0.0
C989 C 0.43056 0.73195 0.26477 0.0
C990 C 0.36788 0.77405 0.14296 0.0
C991 C 0.37566 0.76428 0.15767 0.0
C992 C 0.39988 0.7712 0.20266 0.0
C993 C 0.41264 0.73378 0.23586 0.0
C994 C 0.40762 0.74348 0.21851 0.0
C995 C 0.38977 0.77174 0.16914 0.0
C996 C 0.39666 0.76202 0.18592 0.0
H997 H 0.39937 0.69741 0.26094 0.0
H998 H 0.39235 0.71244 0.23169 0.0
H999 H 0.40724 0.7695 0.23147 0.0
H1000 H 0.39368 0.81216 0.14795 0.0
H1001 H 0.40755 0.79499 0.17334 0.0
C1002 C 0.14948 0.23578 0.64213 0.0
C1003 C 0.14243 0.21879 0.63774 0.0
C1004 C 0.14239 0.24515 0.65741 0.0
C1005 C 0.11792 0.23759 0.70219 0.0
H1006 H 0.11376 0.28902 0.7023 0.0
C1007 C 0.08959 0.27664 0.76567 0.0
C1008 C 0.09992 0.2919 0.77082 0.0
C1009 C 0.09327 0.26802 0.74883 0.0
C1010 C 0.11496 0.27466 0.70251 0.0
H1011 H 0.12179 0.19868 0.64551 0.0
H1012 H 0.10916 0.21517 0.67193 0.0
H1013 H 0.12224 0.27363 0.67365 0.0
H1014 H 0.12239 0.30989 0.7621 0.0
H1015 H 0.12862 0.29498 0.73277 0.0
H1016 H 0.11072 0.23865 0.73108 0.0
C1017 C 0.12047 0.22109 0.66381 0.0
C1018 C 0.11984 0.26583 0.68609 0.0
C1019 C 0.12762 0.21169 0.64856 0.0
C1020 C 0.1139 0.29838 0.75856 0.0
C1021 C 0.1175 0.28981 0.74169 0.0
C1022 C 0.11295 0.24642 0.71858 0.0
C1023 C 0.12801 0.23781 0.66863 0.0
C1024 C 0.12158 0.24718 0.68576 0.0
C1025 C 0.1073 0.27449 0.73666 0.0
C1026 C 0.11162 0.26507 0.71899 0.0
H1027 H 0.16093 0.24165 0.63414 0.0
H1028 H 0.14871 0.25787 0.66079 0.0
H1029 H 0.11944 0.22326 0.70257 0.0
H1030 H 0.07852 0.2714 0.77456 0.0
H1031 H 0.08498 0.25637 0.74525 0.0
C1032 C 0.74382 0.91463 0.76672 0.0
C1033 C 0.73957 0.90729 0.78424 0.0
C1034 C 0.76158 0.91177 0.75847 0.0
C1035 C 0.80261 0.88102 0.75966 0.0
H1036 H 0.82817 0.91858 0.73238 0.0
C1037 C 0.87771 0.87092 0.72965 0.0
C1038 C 0.88057 0.87669 0.71126 0.0
C1039 C 0.86142 0.87596 0.73945 0.0
C1040 C 0.82115 0.90792 0.73985 0.0
H1041 H 0.75082 0.89109 0.8067 0.0
H1042 H 0.78179 0.88644 0.79253 0.0
H1043 H 0.79783 0.92468 0.74761 0.0
H1044 H 0.86885 0.89288 0.68903 0.0
H1045 H 0.8404 0.90158 0.70609 0.0
H1046 H 0.82578 0.86422 0.7518 0.0
C1047 C 0.77132 0.89427 0.78507 0.0
C1048 C 0.80374 0.91141 0.74855 0.0
C1049 C 0.75359 0.89712 0.79332 0.0
C1050 C 0.86712 0.88819 0.70317 0.0
C1051 C 0.85082 0.89324 0.71298 0.0
C1052 C 0.81999 0.87755 0.75099 0.0
C1053 C 0.77552 0.90148 0.7675 0.0
C1054 C 0.79422 0.89797 0.75851 0.0
C1055 C 0.84759 0.8869 0.73111 0.0
C1056 C 0.82946 0.89093 0.74092 0.0
H1057 H 0.73348 0.92268 0.7594 0.0
H1058 H 0.76425 0.91739 0.74484 0.0
H1059 H 0.79553 0.87027 0.76693 0.0
H1060 H 0.88782 0.86211 0.73635 0.0
H1061 H 0.85954 0.87109 0.75351 0.0
C1062 C 0.6456 0.12475 0.20515 0.0
C1063 C 0.6326 0.13645 0.21353 0.0
C1064 C 0.66252 0.12014 0.21417 0.0
C1065 C 0.68737 0.11908 0.25938 0.0
H1066 H 0.73259 0.12299 0.22883 0.0
C1067 C 0.76374 0.11339 0.28997 0.0
C1068 C 0.77729 0.10419 0.27925 0.0
C1069 C 0.74579 0.11749 0.28262 0.0
C1070 C 0.72013 0.12159 0.23754 0.0
H1071 H 0.62676 0.15173 0.23846 0.0
H1072 H 0.65629 0.14352 0.25426 0.0
H1073 H 0.70153 0.12867 0.21518 0.0
H1074 H 0.78243 0.09244 0.25217 0.0
H1075 H 0.75122 0.09898 0.23971 0.0
H1076 H 0.706 0.11176 0.28172 0.0
C1077 C 0.65337 0.13797 0.24067 0.0
C1078 C 0.70229 0.12487 0.22969 0.0
C1079 C 0.63646 0.14269 0.23159 0.0
C1080 C 0.7724 0.09931 0.26099 0.0
C1081 C 0.75449 0.10331 0.25371 0.0
C1082 C 0.70525 0.11564 0.26723 0.0
C1083 C 0.66681 0.12702 0.23184 0.0
C1084 C 0.68569 0.12354 0.24046 0.0
C1085 C 0.74093 0.11248 0.26438 0.0
C1086 C 0.72187 0.11673 0.25636 0.0
H1087 H 0.64308 0.11961 0.19131 0.0
H1088 H 0.67244 0.11142 0.20714 0.0
H1089 H 0.67481 0.11789 0.26801 0.0
H1090 H 0.76685 0.11726 0.30412 0.0
H1091 H 0.73579 0.12473 0.29119 0.0
C1092 C 0.37586 0.63658 0.2884 0.0
C1093 C 0.38022 0.63102 0.30659 0.0
C1094 C 0.35936 0.63058 0.27952 0.0
C1095 C 0.3117 0.61304 0.29068 0.0
H1096 H 0.30892 0.60411 0.23768 0.0
C1097 C 0.24242 0.58923 0.25528 0.0
C1098 C 0.23762 0.59731 0.23826 0.0
C1099 C 0.26033 0.59193 0.26328 0.0
C1100 C 0.30944 0.60669 0.25248 0.0
H1101 H 0.37112 0.61403 0.32931 0.0
H1102 H 0.34255 0.60335 0.31371 0.0
H1103 H 0.3396 0.61075 0.25202 0.0
H1104 H 0.24803 0.61473 0.21643 0.0
H1105 H 0.27918 0.61941 0.23036 0.0
H1106 H 0.28155 0.60918 0.29114 0.0
C1107 C 0.35167 0.61266 0.30645 0.0
C1108 C 0.32703 0.61049 0.2607 0.0
C1109 C 0.36814 0.61869 0.31535 0.0
C1110 C 0.25127 0.60806 0.22939 0.0
C1111 C 0.26918 0.61075 0.23738 0.0
C1112 C 0.29414 0.60923 0.28247 0.0
C1113 C 0.34684 0.61884 0.28859 0.0
C1114 C 0.32836 0.61383 0.27989 0.0
C1115 C 0.27391 0.60278 0.25446 0.0
C1116 C 0.29276 0.60613 0.26325 0.0
H1117 H 0.38483 0.6461 0.28125 0.0
H1118 H 0.35603 0.63574 0.26583 0.0
H1119 H 0.3121 0.61588 0.30543 0.0
H1120 H 0.23242 0.58065 0.26236 0.0
H1121 H 0.2636 0.58539 0.27632 0.0
C1122 C 0.27249 0.42666 0.74289 0.0
C1123 C 0.27901 0.41694 0.72745 0.0
C1124 C 0.25497 0.42271 0.75114 0.0
C1125 C 0.21965 0.3863 0.75502 0.0
H1126 H 0.18736 0.42326 0.7754 0.0
C1127 C 0.1455 0.37047 0.78441 0.0
C1128 C 0.1413 0.37773 0.80193 0.0
C1129 C 0.16126 0.37638 0.77432 0.0
C1130 C 0.19629 0.4128 0.76985 0.0
H1131 H 0.27177 0.39547 0.70853 0.0
H1132 H 0.24115 0.38904 0.72245 0.0
H1133 H 0.21685 0.43137 0.75957 0.0
H1134 H 0.14995 0.39747 0.82222 0.0
H1135 H 0.17747 0.40781 0.80455 0.0
H1136 H 0.1991 0.36774 0.76526 0.0
C1137 C 0.24977 0.39951 0.72845 0.0
C1138 C 0.21322 0.41742 0.76082 0.0
C1139 C 0.26731 0.40339 0.72028 0.0
C1140 C 0.15279 0.39157 0.80878 0.0
C1141 C 0.16852 0.39755 0.79863 0.0
C1142 C 0.2027 0.38169 0.76392 0.0
C1143 C 0.24344 0.40898 0.74411 0.0
C1144 C 0.22516 0.40422 0.75335 0.0
C1145 C 0.17316 0.38975 0.78147 0.0
C1146 C 0.19085 0.39487 0.77149 0.0
H1147 H 0.28089 0.43734 0.7487 0.0
H1148 H 0.25067 0.43018 0.76328 0.0
H1149 H 0.22864 0.37573 0.74981 0.0
H1150 H 0.13692 0.35984 0.77866 0.0
H1151 H 0.1643 0.3703 0.76101 0.0
C1152 C 0.77658 0.75728 0.92781 0.0
C1153 C 0.79247 0.75132 0.91768 0.0
C1154 C 0.76814 0.77369 0.92382 0.0
C1155 C 0.764 0.80686 0.88599 0.0
H1156 H 0.74178 0.83618 0.9246 0.0
C1157 C 0.7295 0.8743 0.86896 0.0
C1158 C 0.71125 0.87698 0.87646 0.0
C1159 C 0.74103 0.86045 0.87541 0.0
C1160 C 0.74787 0.82809 0.91368 0.0
H1161 H 0.81205 0.75839 0.89553 0.0
H1162 H 0.79774 0.78711 0.88902 0.0
H1163 H 0.75905 0.80915 0.93308 0.0
H1164 H 0.69124 0.86776 0.8973 0.0
H1165 H 0.71141 0.84361 0.90856 0.0
H1166 H 0.75276 0.82574 0.8666 0.0
C1167 C 0.79157 0.77891 0.89983 0.0
C1168 C 0.75772 0.81258 0.91851 0.0
C1169 C 0.79995 0.76246 0.90375 0.0
C1170 C 0.7052 0.86605 0.89119 0.0
C1171 C 0.71679 0.85224 0.89771 0.0
C1172 C 0.75427 0.82241 0.88118 0.0
C1173 C 0.77541 0.78465 0.90966 0.0
C1174 C 0.76577 0.80167 0.9047 0.0
C1175 C 0.73463 0.84902 0.88957 0.0
C1176 C 0.74595 0.83312 0.89494 0.0
H1177 H 0.77055 0.74926 0.93882 0.0
H1178 H 0.75561 0.77756 0.93156 0.0
H1179 H 0.76967 0.79865 0.87494 0.0
H1180 H 0.73466 0.8825 0.85765 0.0
H1181 H 0.75483 0.85847 0.86906 0.0
C1182 C 0.22495 0.63113 0.15255 0.0
C1183 C 0.20643 0.62811 0.14587 0.0
C1184 C 0.23564 0.64552 0.14603 0.0
C1185 C 0.23857 0.67994 0.109 0.0
H1186 H 0.26321 0.70756 0.14762 0.0
C1187 C 0.26437 0.75224 0.09762 0.0
C1188 C 0.28147 0.75751 0.10617 0.0
C1189 C 0.25648 0.73552 0.10128 0.0
C1190 C 0.25668 0.69988 0.1366 0.0
H1191 H 0.18502 0.63733 0.12637 0.0
H1192 H 0.20361 0.6625 0.11511 0.0
H1193 H 0.24764 0.67969 0.15558 0.0
H1194 H 0.30368 0.74912 0.12523 0.0
H1195 H 0.29013 0.71991 0.13131 0.0
H1196 H 0.24744 0.70034 0.09006 0.0
C1197 C 0.20993 0.65368 0.12531 0.0
C1198 C 0.24775 0.68387 0.14116 0.0
C1199 C 0.19923 0.63926 0.13182 0.0
C1200 C 0.2906 0.74551 0.11826 0.0
C1201 C 0.28271 0.7288 0.12192 0.0
C1202 C 0.24754 0.69598 0.10442 0.0
C1203 C 0.22806 0.65724 0.1327 0.0
C1204 C 0.23848 0.67374 0.12746 0.0
C1205 C 0.26547 0.72365 0.11359 0.0
C1206 C 0.25659 0.70621 0.1182 0.0
H1207 H 0.23101 0.62273 0.16328 0.0
H1208 H 0.24971 0.64768 0.15175 0.0
H1209 H 0.23174 0.67236 0.09808 0.0
H1210 H 0.25706 0.76101 0.08805 0.0
H1211 H 0.24309 0.73207 0.09475 0.0
C1212 C 0.29929 0.37218 0.64807 0.0
C1213 C 0.31818 0.37508 0.6424 0.0
C1214 C 0.28892 0.35775 0.6412 0.0
C1215 C 0.29612 0.31338 0.62033 0.0
H1216 H 0.24172 0.31582 0.61165 0.0
C1217 C 0.25372 0.25372 0.59156 0.0
C1218 C 0.2364 0.24975 0.60043 0.0
C1219 C 0.26331 0.26961 0.59528 0.0
C1220 C 0.25689 0.31491 0.61413 0.0
H1221 H 0.34068 0.36551 0.6244 0.0
H1222 H 0.32246 0.34054 0.61212 0.0
H1223 H 0.25913 0.34274 0.62001 0.0
H1224 H 0.21557 0.25966 0.62012 0.0
H1225 H 0.23223 0.28741 0.62647 0.0
H1226 H 0.29386 0.28555 0.61451 0.0
C1227 C 0.3158 0.3492 0.62221 0.0
C1228 C 0.26688 0.33034 0.61894 0.0
C1229 C 0.32621 0.36359 0.62916 0.0
C1230 C 0.22873 0.2623 0.61285 0.0
C1231 C 0.23829 0.27824 0.6165 0.0
C1232 C 0.28615 0.298 0.61544 0.0
C1233 C 0.29714 0.3459 0.6284 0.0
C1234 C 0.28661 0.32974 0.62224 0.0
C1235 C 0.25578 0.282 0.60789 0.0
C1236 C 0.2664 0.29855 0.61242 0.0
H1237 H 0.29266 0.38073 0.65829 0.0
H1238 H 0.27469 0.35554 0.64645 0.0
H1239 H 0.31122 0.31232 0.62311 0.0
H1240 H 0.2599 0.2446 0.58165 0.0
H1241 H 0.2766 0.27225 0.58818 0.0
C1242 C 0.7308 0.24242 0.4284 0.0
C1243 C 0.72909 0.25766 0.41717 0.0
C1244 C 0.74046 0.22739 0.42194 0.0
C1245 C 0.77757 0.21319 0.3899 0.0
H1246 H 0.7534 0.16689 0.3922 0.0
C1247 C 0.80989 0.15218 0.35313 0.0
C1248 C 0.80732 0.13521 0.36095 0.0
C1249 C 0.80077 0.16702 0.36065 0.0
C1250 C 0.76057 0.17963 0.39175 0.0
H1251 H 0.73632 0.26922 0.39052 0.0
H1252 H 0.7536 0.24301 0.37932 0.0
H1253 H 0.73675 0.19293 0.40412 0.0
H1254 H 0.79352 0.12059 0.38314 0.0
H1255 H 0.77818 0.14658 0.39678 0.0
H1256 H 0.8016 0.20002 0.37805 0.0
C1257 C 0.74732 0.2427 0.39307 0.0
C1258 C 0.75093 0.19457 0.39848 0.0
C1259 C 0.73735 0.25762 0.3994 0.0
C1260 C 0.79571 0.13348 0.37673 0.0
C1261 C 0.78679 0.14839 0.38446 0.0
C1262 C 0.78735 0.19823 0.38344 0.0
C1263 C 0.74889 0.22741 0.40425 0.0
C1264 C 0.75927 0.21151 0.39747 0.0
C1265 C 0.78903 0.16537 0.37641 0.0
C1266 C 0.77892 0.18123 0.38409 0.0
H1267 H 0.72441 0.24203 0.44208 0.0
H1268 H 0.74152 0.21581 0.43087 0.0
H1269 H 0.78443 0.22608 0.38919 0.0
H1270 H 0.81858 0.15396 0.34084 0.0
H1271 H 0.80259 0.17972 0.35377 0.0
C1272 C 0.1602 0.20307 0.53526 0.0
C1273 C 0.1534 0.18893 0.54618 0.0
C1274 C 0.1566 0.20368 0.51619 0.0
C1275 C 0.12625 0.18496 0.47858 0.0
H1276 H 0.16647 0.20407 0.44757 0.0
C1277 C 0.12622 0.18608 0.39685 0.0
C1278 C 0.13146 0.20252 0.38892 0.0
C1279 C 0.12765 0.1833 0.41611 0.0
C1280 C 0.15507 0.19876 0.45605 0.0
H1281 H 0.13718 0.16442 0.5456 0.0
H1282 H 0.13127 0.16522 0.51206 0.0
H1283 H 0.17162 0.20094 0.48082 0.0
H1284 H 0.14115 0.22923 0.39548 0.0
H1285 H 0.14412 0.22418 0.42865 0.0
H1286 H 0.1099 0.18256 0.45342 0.0
C1287 C 0.13915 0.17602 0.51835 0.0
C1288 C 0.15796 0.19704 0.47516 0.0
C1289 C 0.1426 0.17551 0.53758 0.0
C1290 C 0.13751 0.21623 0.40085 0.0
C1291 C 0.13914 0.21339 0.41995 0.0
C1292 C 0.12344 0.18649 0.45932 0.0
C1293 C 0.14632 0.19003 0.50737 0.0
C1294 C 0.14346 0.1905 0.48679 0.0
C1295 C 0.13454 0.19683 0.42777 0.0
C1296 C 0.13771 0.19376 0.44794 0.0
H1297 H 0.16835 0.21377 0.54144 0.0
H1298 H 0.1619 0.21495 0.50837 0.0
H1299 H 0.11472 0.17994 0.48708 0.0
H1300 H 0.12156 0.17517 0.38819 0.0
H1301 H 0.12402 0.17039 0.4218 0.0
C1302 C 0.37568 0.83329 0.04436 0.0
C1303 C 0.35951 0.82421 0.05088 0.0
C1304 C 0.37884 0.83534 0.02523 0.0
C1305 C 0.35319 0.83402 0.98014 0.0
H1306 H 0.40335 0.82794 0.95865 0.0
C1307 C 0.36325 0.82357 0.90199 0.0
C1308 C 0.37758 0.83333 0.89291 0.0
C1309 C 0.36219 0.82318 0.92134 0.0
C1310 C 0.3893 0.82986 0.96449 0.0
H1311 H 0.33416 0.80989 0.04233 0.0
H1312 H 0.33978 0.8132 0.00924 0.0
H1313 H 0.39929 0.82611 0.99241 0.0
H1314 H 0.40241 0.84993 0.89731 0.0
H1315 H 0.40066 0.84906 0.93129 0.0
H1316 H 0.34313 0.83747 0.95231 0.0
C1317 C 0.34986 0.81909 0.01882 0.0
C1318 C 0.38697 0.82885 0.98382 0.0
C1319 C 0.3467 0.81709 0.03785 0.0
C1320 C 0.39125 0.84221 0.9038 0.0
C1321 C 0.39023 0.84174 0.92327 0.0
C1322 C 0.35551 0.83495 0.9609 0.0
C1323 C 0.36588 0.82835 0.01223 0.0
C1324 C 0.36881 0.83063 0.99185 0.0
C1325 C 0.37548 0.83245 0.93223 0.0
C1326 C 0.37351 0.8326 0.95281 0.0
H1327 H 0.38583 0.83895 0.05402 0.0
H1328 H 0.39125 0.84264 0.02064 0.0
H1329 H 0.33909 0.83591 0.98584 0.0
H1330 H 0.35277 0.81617 0.89415 0.0
H1331 H 0.35092 0.81555 0.92782 0.0
C1332 C 0.65522 0.32965 0.47639 0.0
C1333 C 0.65069 0.31319 0.46826 0.0
C1334 C 0.65027 0.33324 0.49484 0.0
C1335 C 0.63909 0.31005 0.53888 0.0
H1336 H 0.62628 0.35758 0.55554 0.0
C1337 C 0.62553 0.32633 0.61654 0.0
C1338 C 0.63537 0.34132 0.62316 0.0
C1339 C 0.62434 0.32297 0.59741 0.0
C1340 C 0.62987 0.34424 0.5511 0.0
H1341 H 0.63664 0.28789 0.47296 0.0
H1342 H 0.6277 0.29428 0.505 0.0
H1343 H 0.62951 0.35164 0.52236 0.0
H1344 H 0.65084 0.36496 0.61488 0.0
H1345 H 0.64886 0.35913 0.58166 0.0
H1346 H 0.63968 0.30273 0.56767 0.0
C1347 C 0.63544 0.30428 0.49725 0.0
C1348 C 0.63178 0.34084 0.53208 0.0
C1349 C 0.64046 0.30067 0.47881 0.0
C1350 C 0.64338 0.35318 0.61023 0.0
C1351 C 0.64206 0.34993 0.59117 0.0
C1352 C 0.63709 0.31344 0.5579 0.0
C1353 C 0.64058 0.32049 0.50562 0.0
C1354 C 0.63677 0.32377 0.52573 0.0
C1355 C 0.63276 0.33467 0.58451 0.0
C1356 C 0.63282 0.33065 0.56426 0.0
H1357 H 0.66313 0.33959 0.4687 0.0
H1358 H 0.65468 0.34578 0.50084 0.0
H1359 H 0.6432 0.29681 0.53456 0.0
H1360 H 0.61928 0.31692 0.62617 0.0
H1361 H 0.61696 0.31116 0.5927 0.0
C1362 C 0.89679 0.68939 0.11675 0.0
C1363 C 0.88279 0.67866 0.12503 0.0
C1364 C 0.89776 0.69106 0.09736 0.0
C1365 C 0.88367 0.66922 0.05359 0.0
H1366 H 0.88351 0.71679 0.03271 0.0
C1367 C 0.86165 0.68274 0.97767 0.0
C1368 C 0.86987 0.69708 0.96803 0.0
C1369 C 0.86583 0.67982 0.99643 0.0
C1370 C 0.88395 0.70338 0.03821 0.0
H1371 H 0.85937 0.66069 0.11952 0.0
H1372 H 0.86116 0.66342 0.08577 0.0
H1373 H 0.8866 0.7128 0.06621 0.0
H1374 H 0.88954 0.71917 0.97039 0.0
H1375 H 0.89729 0.71377 1.00296 0.0
H1376 H 0.88107 0.65971 0.0257 0.0
C1377 C 0.87132 0.67065 0.09421 0.0
C1378 C 0.88567 0.70112 0.05746 0.0
C1379 C 0.87017 0.66921 0.11354 0.0
C1380 C 0.88286 0.70807 0.97743 0.0
C1381 C 0.8872 0.70504 0.99618 0.0
C1382 C 0.88218 0.67145 0.03433 0.0
C1383 C 0.88496 0.68174 0.0859 0.0
C1384 C 0.88517 0.68404 0.06538 0.0
C1385 C 0.8785 0.69104 1.00603 0.0
C1386 C 0.8819 0.68858 0.02639 0.0
H1387 H 0.90663 0.69687 0.12529 0.0
H1388 H 0.90847 0.69965 0.09131 0.0
H1389 H 0.88351 0.65588 0.05929 0.0
H1390 H 0.8515 0.67406 0.97089 0.0
H1391 H 0.85859 0.66907 1.00354 0.0
C1392 C 0.38601 0.13296 0.18182 0.0
C1393 C 0.37786 0.11607 0.17927 0.0
C1394 C 0.40563 0.13487 0.18425 0.0
C1395 C 0.45138 0.11232 0.1752 0.0
H1396 H 0.47092 0.14815 0.2089 0.0
C1397 C 0.53231 0.1233 0.18837 0.0
C1398 C 0.53845 0.14109 0.18919 0.0
C1399 C 0.51286 0.1192 0.18785 0.0
C1400 C 0.46571 0.13818 0.19931 0.0
H1401 H 0.38401 0.08785 0.17757 0.0
H1402 H 0.41834 0.09117 0.18201 0.0
H1403 H 0.43682 0.14266 0.20735 0.0
H1404 H 0.52885 0.16853 0.1899 0.0
H1405 H 0.49512 0.1614 0.1889 0.0
H1406 H 0.48036 0.10794 0.16711 0.0
C1407 C 0.40951 0.10298 0.18191 0.0
C1408 C 0.44613 0.13502 0.19842 0.0
C1409 C 0.38981 0.10106 0.1795 0.0
C1410 C 0.52468 0.15467 0.18934 0.0
C1411 C 0.5053 0.15058 0.18889 0.0
C1412 C 0.47102 0.11545 0.17612 0.0
C1413 C 0.41767 0.11993 0.18422 0.0
C1414 C 0.43866 0.12225 0.18615 0.0
C1415 C 0.49911 0.1328 0.18824 0.0
C1416 C 0.47839 0.12862 0.18799 0.0
H1417 H 0.37728 0.14484 0.18167 0.0
H1418 H 0.41139 0.14815 0.18571 0.0
H1419 H 0.44614 0.10251 0.16545 0.0
H1420 H 0.54252 0.11251 0.18825 0.0
H1421 H 0.50858 0.10536 0.18746 0.0
C1422 C 0.97989 0.89214 0.67458 0.0
C1423 C 0.97438 0.87639 0.6837 0.0
C1424 C 0.99885 0.89793 0.67523 0.0
C1425 C 0.04332 0.89263 0.7024 0.0
H1426 H 0.06859 0.90763 0.65713 0.0
C1427 C 0.12467 0.89254 0.69496 0.0
C1428 C 0.13355 0.90579 0.68424 0.0
C1429 C 0.10487 0.89156 0.69601 0.0
C1430 C 0.06168 0.90379 0.66998 0.0
H1431 H 0.98453 0.85442 0.70064 0.0
H1432 H 0.01735 0.86444 0.70169 0.0
H1433 H 0.03457 0.90103 0.6566 0.0
H1434 H 0.12852 0.9288 0.66668 0.0
H1435 H 0.09382 0.92717 0.66866 0.0
H1436 H 0.0704 0.89509 0.71574 0.0
C1437 C 1.00706 0.87245 0.69422 0.0
C1438 C 0.04218 0.89998 0.66966 0.0
C1439 C 0.98822 0.86663 0.69349 0.0
C1440 C 0.12213 0.91842 0.67506 0.0
C1441 C 0.10224 0.91741 0.67608 0.0
C1442 C 0.06276 0.89647 0.70273 0.0
C1443 C 0.01263 0.88816 0.68512 0.0
C1444 C 0.03286 0.89398 0.68578 0.0
C1445 C 0.09337 0.90381 0.68638 0.0
C1446 C 0.07229 0.90172 0.68645 0.0
H1447 H 0.9696 0.89997 0.66692 0.0
H1448 H 1.00268 0.91014 0.66815 0.0
H1449 H 0.03649 0.8884 0.71515 0.0
H1450 H 0.13301 0.88258 0.7022 0.0
H1451 H 0.09857 0.88077 0.70387 0.0
C1452 C 0.03825 0.36991 0.83205 0.0
C1453 C 0.04494 0.36322 0.81501 0.0
C1454 C 0.01933 0.37556 0.83385 0.0
C1455 C 0.97205 0.36819 0.81372 0.0
H1456 H 0.95819 0.41268 0.83725 0.0
C1457 C 0.89429 0.39208 0.81385 0.0
C1458 C 0.88741 0.4003 0.83003 0.0
C1459 C 0.91375 0.38889 0.8116 0.0
C1460 C 0.96176 0.4001 0.83084 0.0
H1461 H 0.03703 0.35748 0.78646 0.0
H1462 H 1.00416 0.36712 0.7897 0.0
H1463 H 0.9917 0.40435 0.83477 0.0
H1464 H 0.89568 0.41195 0.85638 0.0
H1465 H 0.9295 0.40595 0.85273 0.0
H1466 H 0.9423 0.36355 0.81018 0.0
C1467 C 0.01349 0.36797 0.80166 0.0
C1468 C 0.98099 0.39537 0.8294 0.0
C1469 C 0.03238 0.36252 0.7998 0.0
C1470 C 0.90051 0.40568 0.84369 0.0
C1471 C 0.91997 0.40229 0.84155 0.0
C1472 C 0.95287 0.37279 0.81534 0.0
C1473 C 1.00669 0.37441 0.81872 0.0
C1474 C 0.98633 0.37941 0.82071 0.0
C1475 C 0.92685 0.39361 0.82559 0.0
C1476 C 0.94742 0.38887 0.82382 0.0
H1477 H 0.04757 0.37064 0.84402 0.0
H1478 H 0.01445 0.38039 0.84719 0.0
H1479 H 0.9757 0.35566 0.80721 0.0
H1480 H 0.8846 0.38791 0.80299 0.0
H1481 H 0.9185 0.38259 0.7989 0.0
C1482 C 0.48799 0.64921 0.32754 0.0
C1483 C 0.47404 0.63586 0.32886 0.0
C1484 C 0.50729 0.64487 0.32757 0.0
C1485 C 0.5417 0.61064 0.34161 0.0
H1486 H 0.57456 0.63522 0.30673 0.0
C1487 C 0.62333 0.59827 0.33881 0.0
C1488 C 0.63456 0.61372 0.33755 0.0
C1489 C 0.60359 0.59915 0.33609 0.0
C1490 C 0.56562 0.62831 0.31664 0.0
H1491 H 0.46956 0.60743 0.3316 0.0
H1492 H 0.50346 0.59985 0.33181 0.0
H1493 H 0.54035 0.64027 0.3057 0.0
H1494 H 0.63384 0.6421 0.33202 0.0
H1495 H 0.59971 0.64364 0.32749 0.0
H1496 H 0.56709 0.59903 0.35287 0.0
C1497 C 0.49933 0.61369 0.33072 0.0
C1498 C 0.54601 0.6312 0.31604 0.0
C1499 C 0.47993 0.61804 0.33055 0.0
C1500 C 0.62568 0.62992 0.33308 0.0
C1501 C 0.60605 0.63079 0.33034 0.0
C1502 C 0.5614 0.6078 0.34227 0.0
C1503 C 0.51321 0.62707 0.32903 0.0
C1504 C 0.53385 0.62268 0.32875 0.0
C1505 C 0.59469 0.61548 0.33197 0.0
C1506 C 0.57363 0.61689 0.33004 0.0
H1507 H 0.48402 0.66309 0.32628 0.0
H1508 H 0.51763 0.65551 0.32657 0.0
H1509 H 0.53272 0.60394 0.35164 0.0
H1510 H 0.62973 0.58557 0.34224 0.0
H1511 H 0.59528 0.58707 0.33728 0.0
C1512 C 0.15746 0.40441 0.1428 0.0
C1513 C 0.14085 0.39761 0.13458 0.0
C1514 C 0.15904 0.42252 0.14686 0.0
C1515 C 0.14125 0.46621 0.13257 0.0
H1516 H 0.16241 0.48199 0.17952 0.0
C1517 C 0.14644 0.54089 0.15198 0.0
C1518 C 0.16246 0.54642 0.16216 0.0
C1519 C 0.14306 0.52279 0.1488 0.0
C1520 C 0.15672 0.47785 0.16622 0.0
H1521 H 0.11283 0.40444 0.12426 0.0
H1522 H 0.11562 0.43622 0.13127 0.0
H1523 H 0.1577 0.45033 0.17398 0.0
H1524 H 0.18775 0.53726 0.17658 0.0
H1525 H 0.18221 0.50586 0.17059 0.0
H1526 H 0.14072 0.49363 0.12456 0.0
C1527 C 0.1274 0.42748 0.13458 0.0
C1528 C 0.15394 0.45968 0.1631 0.0
C1529 C 0.12573 0.40928 0.13073 0.0
C1530 C 0.17518 0.53346 0.16881 0.0
C1531 C 0.17191 0.5154 0.16549 0.0
C1532 C 0.14421 0.48439 0.13561 0.0
C1533 C 0.14412 0.43429 0.14262 0.0
C1534 C 0.14627 0.45365 0.14621 0.0
C1535 C 0.15572 0.50979 0.15558 0.0
C1536 C 0.1521 0.49045 0.15244 0.0
H1537 H 0.16927 0.3957 0.14607 0.0
H1538 H 0.17215 0.42738 0.15294 0.0
H1539 H 0.13553 0.46194 0.11932 0.0
H1540 H 0.1363 0.55053 0.14674 0.0
H1541 H 0.13032 0.519 0.14132 0.0
C1542 C 0.67751 0.97298 0.85139 0.0
C1543 C 0.6752 0.96015 0.86545 0.0
C1544 C 0.67573 0.99108 0.85536 0.0
C1545 C 0.67832 0.02338 0.89382 0.0
H1546 H 0.65398 0.05465 0.85807 0.0
C1547 C 0.6694 0.09931 0.90619 0.0
C1548 C 0.67416 0.11023 0.89101 0.0
C1549 C 0.6678 0.08085 0.90398 0.0
C1550 C 0.66091 0.04611 0.86815 0.0
H1551 H 0.66909 0.95634 0.89474 0.0
H1552 H 0.66587 0.98802 0.90166 0.0
H1553 H 0.65434 0.02267 0.8526 0.0
H1554 H 0.68039 0.11035 0.86149 0.0
H1555 H 0.67781 0.07831 0.85768 0.0
H1556 H 0.68507 0.04691 0.90926 0.0
C1557 C 0.66923 0.98403 0.88758 0.0
C1558 C 0.66114 0.02778 0.86501 0.0
C1559 C 0.67097 0.96587 0.88358 0.0
C1560 C 0.67694 0.10232 0.87353 0.0
C1561 C 0.67523 0.08395 0.87129 0.0
C1562 C 0.67806 0.04175 0.89699 0.0
C1563 C 0.67159 0.99685 0.8735 0.0
C1564 C 0.67013 0.0162 0.87763 0.0
C1565 C 0.67075 0.07297 0.88649 0.0
C1566 C 0.66963 0.05335 0.88402 0.0
H1567 H 0.68082 0.96907 0.83727 0.0
H1568 H 0.67794 1.00059 0.84425 0.0
H1569 H 0.68552 0.01486 0.90375 0.0
H1570 H 0.66728 0.10498 0.91985 0.0
H1571 H 0.66421 0.07275 0.91594 0.0
C1572 C 0.85683 0.05191 0.37562 0.0
C1573 C 0.84908 0.05698 0.35837 0.0
C1574 C 0.8574 0.03392 0.38088 0.0
C1575 C 0.85545 0.98861 0.36057 0.0
H1576 H 0.84069 0.97342 0.41002 0.0
C1577 C 0.83322 0.91674 0.37623 0.0
C1578 C 0.83971 0.90867 0.39269 0.0
C1579 C 0.83628 0.93482 0.37296 0.0
C1580 C 0.84511 0.97747 0.39624 0.0
H1581 H 0.83564 0.04704 0.33324 0.0
H1582 H 0.8365 0.01602 0.34241 0.0
H1583 H 0.84255 1.00521 0.40279 0.0
H1584 H 0.85442 0.91336 0.4187 0.0
H1585 H 0.85977 0.94514 0.41298 0.0
H1586 H 0.85762 0.96097 0.35386 0.0
C1587 C 0.84243 0.02581 0.3518 0.0
C1588 C 0.84619 0.99568 0.39209 0.0
C1589 C 0.84182 0.04368 0.3466 0.0
C1590 C 0.84938 0.91916 0.40583 0.0
C1591 C 0.8523 0.93737 0.40263 0.0
C1592 C 0.85432 0.97048 0.36468 0.0
C1593 C 0.85034 0.02065 0.36893 0.0
C1594 C 0.85098 1.00145 0.37407 0.0
C1595 C 0.84583 0.94538 0.3861 0.0
C1596 C 0.84875 0.96468 0.38244 0.0
H1597 H 0.86252 0.06181 0.38503 0.0
H1598 H 0.86364 0.03037 0.39415 0.0
H1599 H 0.85964 0.99257 0.34668 0.0
H1600 H 0.82591 0.90902 0.36573 0.0
H1601 H 0.83091 0.9406 0.36018 0.0
C1602 C 0.32468 0.47233 0.63757 0.0
C1603 C 0.3371 0.46331 0.6497 0.0
C1604 C 0.32797 0.49012 0.63277 0.0
C1605 C 0.35043 0.53005 0.65159 0.0
H1606 H 0.34479 0.54951 0.60193 0.0
C1607 C 0.36782 0.60312 0.63746 0.0
C1608 C 0.35569 0.61275 0.62565 0.0
C1609 C 0.36663 0.58463 0.63855 0.0
C1610 C 0.34621 0.54432 0.61591 0.0
H1611 H 0.36316 0.46576 0.66568 0.0
H1612 H 0.36882 0.49676 0.65739 0.0
H1613 H 0.3407 0.51753 0.60709 0.0
H1614 H 0.33324 0.61059 0.60521 0.0
H1615 H 0.3307 0.57813 0.6074 0.0
H1616 H 0.35535 0.55664 0.66067 0.0
C1617 C 0.35645 0.4901 0.65171 0.0
C1618 C 0.34394 0.526 0.61884 0.0
C1619 C 0.35325 0.4723 0.65638 0.0
C1620 C 0.34279 0.60344 0.61437 0.0
C1621 C 0.34139 0.58486 0.61563 0.0
C1622 C 0.35252 0.5483 0.64873 0.0
C1623 C 0.34367 0.49931 0.64013 0.0
C1624 C 0.34616 0.51867 0.63671 0.0
C1625 C 0.35305 0.57526 0.62805 0.0
C1626 C 0.3506 0.55571 0.63084 0.0
H1627 H 0.31214 0.46578 0.63212 0.0
H1628 H 0.31784 0.49689 0.62388 0.0
H1629 H 0.35181 0.52487 0.66559 0.0
H1630 H 0.37815 0.60997 0.64603 0.0
H1631 H 0.37626 0.57771 0.64783 0.0
C1632 C 0.90484 0.84006 0.46841 0.0
C1633 C 0.88662 0.84524 0.46238 0.0
C1634 C 0.91008 0.84181 0.48713 0.0
C1635 C 0.89538 0.8636 0.53155 0.0
H1636 H 0.92223 0.82428 0.55466 0.0
C1637 C 0.89106 0.84802 0.6096 0.0
C1638 C 0.90775 0.84323 0.61912 0.0
C1639 C 0.89116 0.85035 0.59035 0.0
C1640 C 0.91499 0.8355 0.54836 0.0
H1641 H 0.85978 0.85663 0.47131 0.0
H1642 H 0.8687 0.85931 0.50373 0.0
H1643 H 0.9175 0.82452 0.52103 0.0
H1644 H 0.93771 0.83735 0.616 0.0
H1645 H 0.93785 0.84112 0.58203 0.0
H1646 H 0.89214 0.87412 0.55903 0.0
C1647 C 0.87915 0.85423 0.49406 0.0
C1648 C 0.9123 0.83567 0.52906 0.0
C1649 C 0.87396 0.85256 0.4754 0.0
C1650 C 0.92468 0.84111 0.60899 0.0
C1651 C 0.92472 0.84316 0.5896 0.0
C1652 C 0.8979 0.86332 0.55083 0.0
C1653 C 0.89721 0.84874 0.50025 0.0
C1654 C 0.90207 0.84953 0.52045 0.0
C1655 C 0.90791 0.84774 0.58009 0.0
C1656 C 0.90738 0.84909 0.55948 0.0
H1657 H 0.91496 0.83441 0.45874 0.0
H1658 H 0.92419 0.83764 0.49134 0.0
H1659 H 0.88785 0.87472 0.5254 0.0
H1660 H 0.87786 0.84991 0.61708 0.0
H1661 H 0.87795 0.85372 0.58342 0.0
C1662 C 0.63996 0.16509 0.97559 0.0
C1663 C 0.63073 0.17744 0.96401 0.0
C1664 C 0.63439 0.16296 0.99412 0.0
C1665 C 0.60876 0.18683 0.03176 0.0
H1666 H 0.61569 0.14203 0.0577 0.0
C1667 C 0.59277 0.1778 0.11052 0.0
C1668 C 0.60833 0.17098 0.12052 0.0
C1669 C 0.59265 0.17725 0.09103 0.0
C1670 C 0.61362 0.15461 0.0506 0.0
H1671 H 0.60777 0.19665 0.96259 0.0
H1672 H 0.59759 0.1925 0.9947 0.0
H1673 H 0.62014 0.14334 0.0241 0.0
H1674 H 0.63542 0.1575 0.11817 0.0
H1675 H 0.63505 0.15619 0.08425 0.0
H1676 H 0.60218 0.19799 0.05841 0.0
C1677 C 0.60954 0.18482 0.98967 0.0
C1678 C 0.6163 0.15542 0.03136 0.0
C1679 C 0.61529 0.18711 0.97118 0.0
C1680 C 0.62334 0.16297 0.11076 0.0
C1681 C 0.62306 0.16211 0.09138 0.0
C1682 C 0.60581 0.18594 0.05098 0.0
C1683 C 0.61925 0.17295 1.00152 0.0
C1684 C 0.61436 0.17164 0.0217 0.0
C1685 C 0.60787 0.1695 0.08128 0.0
C1686 C 0.60863 0.16991 0.06065 0.0
H1687 H 0.652 0.15749 0.97057 0.0
H1688 H 0.64248 0.15391 1.00278 0.0
H1689 H 0.60739 0.19962 0.02497 0.0
H1690 H 0.58109 0.18411 0.11775 0.0
H1691 H 0.58074 0.18301 0.08357 0.0
C1692 C 0.3933 0.68652 0.40622 0.0
C1693 C 0.40356 0.67399 0.39576 0.0
C1694 C 0.39197 0.68499 0.42548 0.0
C1695 C 0.41357 0.66538 0.46725 0.0
H1696 H 0.36299 0.6722 0.48752 0.0
C1697 C 0.39518 0.65682 0.546 0.0
C1698 C 0.38246 0.66938 0.55344 0.0
C1699 C 0.39879 0.65636 0.52682 0.0
C1700 C 0.37725 0.67043 0.48215 0.0
H1701 H 0.42113 0.65034 0.39761 0.0
H1702 H 0.41895 0.64776 0.43154 0.0
H1703 H 0.36775 0.67336 0.45408 0.0
H1704 H 0.36406 0.69164 0.5466 0.0
H1705 H 0.37053 0.69099 0.5135 0.0
H1706 H 0.42308 0.66273 0.4955 0.0
C1707 C 0.4119 0.65875 0.42464 0.0
C1708 C 0.37997 0.67106 0.46296 0.0
C1709 C 0.41317 0.66025 0.40523 0.0
C1710 C 0.3738 0.68167 0.54137 0.0
C1711 C 0.37742 0.68123 0.52232 0.0
C1712 C 0.41086 0.66482 0.48657 0.0
C1713 C 0.40093 0.67092 0.43491 0.0
C1714 C 0.39818 0.66887 0.45529 0.0
C1715 C 0.38974 0.66843 0.51473 0.0
C1716 C 0.3927 0.66768 0.49425 0.0
H1717 H 0.38617 0.69755 0.39951 0.0
H1718 H 0.38381 0.69483 0.43304 0.0
H1719 H 0.42778 0.66367 0.46173 0.0
H1720 H 0.4021 0.64716 0.55491 0.0
H1721 H 0.4083 0.64628 0.52143 0.0
C1722 C 0.12286 0.33249 0.04539 0.0
C1723 C 0.14111 0.33485 0.05302 0.0
C1724 C 0.1199 0.33392 0.02621 0.0
C1725 C 0.14187 0.35165 0.98298 0.0
H1726 H 0.10752 0.31868 0.95865 0.0
C1727 C 0.14095 0.3411 0.90364 0.0
C1728 C 0.12332 0.33887 0.89469 0.0
C1729 C 0.14207 0.34201 0.92299 0.0
C1730 C 0.11695 0.32815 0.96527 0.0
H1731 H 0.17059 0.34051 0.04642 0.0
H1732 H 0.16552 0.34266 0.01296 0.0
H1733 H 0.11177 0.3172 0.99227 0.0
H1734 H 0.09299 0.33616 0.89907 0.0
H1735 H 0.09492 0.33776 0.93306 0.0
H1736 H 0.14734 0.36233 0.95589 0.0
C1737 C 0.15339 0.34003 0.02182 0.0
C1738 C 0.1194 0.32731 0.98456 0.0
C1739 C 0.15633 0.33868 0.04101 0.0
C1740 C 0.10675 0.33796 0.90556 0.0
C1741 C 0.10789 0.33871 0.92501 0.0
C1742 C 0.13949 0.35242 0.96369 0.0
C1743 C 0.13512 0.33767 0.01415 0.0
C1744 C 0.13202 0.33895 0.99367 0.0
C1745 C 0.1256 0.34062 0.93394 0.0
C1746 C 0.12713 0.34059 0.95458 0.0
H1747 H 0.11079 0.32962 0.05424 0.0
H1748 H 0.1056 0.33227 0.02087 0.0
H1749 H 0.1514 0.36107 0.98953 0.0
H1750 H 0.15395 0.34208 0.89566 0.0
H1751 H 0.15595 0.34333 0.9294 0.0
C1752 C 0.60272 0.90646 0.82538 0.0
C1753 C 0.61232 0.89292 0.83508 0.0
C1754 C 0.5828 0.90658 0.82453 0.0
C1755 C 0.53974 0.88997 0.84783 0.0
H1756 H 0.51666 0.89087 0.79888 0.0
C1757 C 0.46314 0.86559 0.83531 0.0
C1758 C 0.45233 0.87303 0.82081 0.0
C1759 C 0.48209 0.87061 0.83798 0.0
C1760 C 0.52273 0.89099 0.81271 0.0
H1761 H 0.60869 0.86942 0.85215 0.0
H1762 H 0.57397 0.86979 0.85096 0.0
H1763 H 0.55082 0.89546 0.80208 0.0
H1764 H 0.4527 0.89219 0.79827 0.0
H1765 H 0.48556 0.90144 0.80332 0.0
H1766 H 0.51178 0.8856 0.85857 0.0
C1767 C 0.58179 0.88021 0.84388 0.0
C1768 C 0.54236 0.89356 0.81451 0.0
C1769 C 0.60164 0.8799 0.84444 0.0
C1770 C 0.46069 0.88611 0.80948 0.0
C1771 C 0.4796 0.8913 0.8123 0.0
C1772 C 0.52008 0.88765 0.84608 0.0
C1773 C 0.57215 0.89339 0.83371 0.0
C1774 C 0.55111 0.89271 0.83204 0.0
C1775 C 0.49069 0.88339 0.82639 0.0
C1776 C 0.51133 0.88771 0.82845 0.0
H1777 H 0.61064 0.91658 0.81798 0.0
H1778 H 0.57571 0.91692 0.81664 0.0
H1779 H 0.5461 0.88946 0.86154 0.0
H1780 H 0.45719 0.85539 0.84423 0.0
H1781 H 0.49016 0.86395 0.84877 0.0
C1782 C 0.92247 0.11438 0.32789 0.0
C1783 C 0.91159 0.12361 0.31459 0.0
C1784 C 0.94161 0.11886 0.33091 0.0
C1785 C 0.9761 0.15553 0.32446 0.0
H1786 H 0.01449 0.11849 0.32514 0.0
C1787 C 0.05523 0.17181 0.31409 0.0
C1788 C 0.06892 0.16237 0.32441 0.0
C1789 C 0.03612 0.16673 0.3144 0.0
C1790 C 1.00395 0.129 0.32527 0.0
H1791 H 0.91209 0.14517 0.29455 0.0
H1792 H 0.94525 0.15296 0.29979 0.0
H1793 H 0.98083 0.11043 0.32362 0.0
H1794 H 0.07315 0.14005 0.3431 0.0
H1795 H 0.03967 0.13129 0.34382 0.0
H1796 H 0.99904 0.17412 0.32606 0.0
C1797 C 0.9391 0.14224 0.30787 0.0
C1798 C 0.98465 0.12436 0.32439 0.0
C1799 C 0.92013 0.13764 0.30472 0.0
C1800 C 0.063 0.1476 0.33495 0.0
C1801 C 0.0438 0.14253 0.3353 0.0
C1802 C 0.99533 0.16016 0.32543 0.0
C1803 C 0.95013 0.13285 0.32091 0.0
C1804 C 0.97052 0.13759 0.32362 0.0
C1805 C 0.03008 0.15211 0.32511 0.0
C1806 C 0.00955 0.14699 0.32548 0.0
H1807 H 0.91631 0.10345 0.33563 0.0
H1808 H 0.94971 0.11145 0.34113 0.0
H1809 H 0.96556 0.16604 0.32425 0.0
H1810 H 0.05926 0.18319 0.30571 0.0
H1811 H 0.02608 0.17421 0.30605 0.0
C1812 C 0.09969 0.62872 0.18036 0.0
C1813 C 0.10996 0.61621 0.19085 0.0
C1814 C 0.07986 0.62924 0.18116 0.0
C1815 C 0.04027 0.62009 0.21195 0.0
H1816 H 0.00965 0.62542 0.16742 0.0
C1817 C 0.95896 0.63125 0.21621 0.0
C1818 C 0.95115 0.64361 0.20366 0.0
C1819 C 0.97765 0.62516 0.214 0.0
C1820 C 0.01797 0.62413 0.18003 0.0
H1821 H 0.10759 0.59428 0.21023 0.0
H1822 H 0.07267 0.59542 0.21198 0.0
H1823 H 0.0437 0.61982 0.16471 0.0
H1824 H 0.95679 0.65908 0.17879 0.0
H1825 H 0.98938 0.64898 0.17527 0.0
H1826 H 0.01487 0.62525 0.22734 0.0
C1827 C 0.08007 0.60472 0.20304 0.0
C1828 C 0.03747 0.6208 0.17844 0.0
C1829 C 0.09997 0.604 0.20197 0.0
C1830 C 0.96231 0.64948 0.18866 0.0
C1831 C 0.98103 0.64356 0.18657 0.0
C1832 C 0.0208 0.62366 0.21356 0.0
C1833 C 0.06984 0.61742 0.19268 0.0
C1834 C 0.04887 0.61902 0.19438 0.0
C1835 C 0.98905 0.63143 0.19929 0.0
C1836 C 0.00942 0.62603 0.19761 0.0
H1837 H 0.10703 0.63816 0.17153 0.0
H1838 H 0.07238 0.63926 0.17314 0.0
H1839 H 0.04876 0.61895 0.22447 0.0
H1840 H 0.95069 0.62637 0.22784 0.0
H1841 H 0.98317 0.61559 0.22389 0.0
C1842 C 0.41887 0.38409 0.70703 0.0
C1843 C 0.40909 0.39293 0.69266 0.0
C1844 C 0.43861 0.38214 0.70644 0.0
C1845 C 0.48256 0.39969 0.68509 0.0
H1846 H 0.50271 0.35341 0.69856 0.0
C1847 C 0.56192 0.38014 0.67494 0.0
C1848 C 0.57032 0.36933 0.68866 0.0
C1849 C 0.54242 0.38393 0.67544 0.0
C1850 C 0.49739 0.3665 0.69499 0.0
H1851 H 0.41265 0.407 0.66655 0.0
H1852 H 0.44723 0.40366 0.66557 0.0
H1853 H 0.46856 0.35844 0.69932 0.0
H1854 H 0.56486 0.35455 0.71403 0.0
H1855 H 0.53106 0.36139 0.71508 0.0
H1856 H 0.51149 0.40773 0.68083 0.0
C1857 C 0.43952 0.39831 0.67735 0.0
C1858 C 0.47776 0.36938 0.6954 0.0
C1859 C 0.41969 0.40023 0.67792 0.0
C1860 C 0.55886 0.3628 0.70314 0.0
C1861 C 0.53941 0.36663 0.70368 0.0
C1862 C 0.50225 0.39682 0.68473 0.0
C1863 C 0.44917 0.38901 0.69149 0.0
C1864 C 0.47009 0.38603 0.69058 0.0
C1865 C 0.53087 0.37703 0.6897 0.0
C1866 C 0.50992 0.38021 0.68981 0.0
H1867 H 0.41129 0.37867 0.71882 0.0
H1868 H 0.44563 0.37526 0.71777 0.0
H1869 H 0.47711 0.41272 0.68143 0.0
H1870 H 0.57032 0.38536 0.66356 0.0
H1871 H 0.53631 0.39186 0.66436 0.0
C1872 C 0.83109 0.62062 0.87594 0.0
C1873 C 0.83168 0.62918 0.8933 0.0
C1874 C 0.83219 0.6021 0.87475 0.0
C1875 C 0.8227 0.56163 0.90161 0.0
H1876 H 0.85353 0.53852 0.86406 0.0
C1877 C 0.8291 0.48531 0.89845 0.0
C1878 C 0.82912 0.47728 0.88083 0.0
C1879 C 0.83081 0.50374 0.90023 0.0
C1880 C 0.84467 0.54475 0.87449 0.0
H1881 H 0.83403 0.62498 0.92301 0.0
H1882 H 0.8359 0.59254 0.92095 0.0
H1883 H 0.85399 0.57088 0.86675 0.0
H1884 H 0.83107 0.4823 0.85124 0.0
H1885 H 0.83368 0.51455 0.85426 0.0
H1886 H 0.81297 0.53566 0.9091 0.0
C1887 C 0.83455 0.60022 0.90827 0.0
C1888 C 0.845 0.5633 0.87607 0.0
C1889 C 0.83364 0.61879 0.90944 0.0
C1890 C 0.8312 0.48809 0.86501 0.0
C1891 C 0.83274 0.50658 0.86677 0.0
C1892 C 0.82226 0.54311 0.89995 0.0
C1893 C 0.83375 0.59167 0.8909 0.0
C1894 C 0.83398 0.57194 0.88962 0.0
C1895 C 0.8324 0.51467 0.88442 0.0
C1896 C 0.83321 0.53441 0.88634 0.0
H1897 H 0.82984 0.62826 0.86323 0.0
H1898 H 0.8314 0.59592 0.86118 0.0
H1899 H 0.81382 0.56792 0.912 0.0
H1900 H 0.82788 0.4773 0.91091 0.0
H1901 H 0.83093 0.50941 0.91406 0.0
C1902 C 0.33071 0.8889 0.10882 0.0
C1903 C 0.32984 0.87868 0.12518 0.0
C1904 C 0.33205 0.90747 0.10972 0.0
C1905 C 0.34409 0.94479 0.14146 0.0
H1906 H 0.3111 0.9721 0.10897 0.0
C1907 C 0.3274 0.01946 0.15331 0.0
C1908 C 0.32536 0.03038 0.13755 0.0
C1909 C 0.32981 1.00106 0.15138 0.0
C1910 C 0.32063 0.96472 0.11797 0.0
H1911 H 0.33058 0.87998 0.1553 0.0
H1912 H 0.33259 0.91222 0.15686 0.0
H1913 H 0.31225 0.93987 0.10605 0.0
H1914 H 0.32533 0.03062 0.10741 0.0
H1915 H 0.32962 0.99868 0.10404 0.0
H1916 H 0.35229 0.96968 0.15352 0.0
C1917 C 0.33231 0.90594 0.14332 0.0
C1918 C 0.32129 0.94621 0.11627 0.0
C1919 C 0.3309 0.88743 0.14242 0.0
C1920 C 0.32642 0.02256 0.11984 0.0
C1921 C 0.32888 1.00422 0.11791 0.0
C1922 C 0.34344 0.96333 0.14315 0.0
C1923 C 0.33267 0.91622 0.12699 0.0
C1924 C 0.33291 0.936 0.12809 0.0
C1925 C 0.3303 0.99319 0.13364 0.0
C1926 C 0.3316 0.97351 0.1315 0.0
H1927 H 0.32984 0.88261 0.09533 0.0
H1928 H 0.33251 0.91499 0.09687 0.0
H1929 H 0.35339 0.93734 0.15062 0.0
H1930 H 0.32648 0.02503 0.16714 0.0
H1931 H 0.33066 0.99294 0.1638 0.0
C1932 C 0.17991 0.98742 0.63487 0.0
C1933 C 0.19816 0.98001 0.6369 0.0
C1934 C 0.17766 1.00578 0.63213 0.0
C1935 C 0.20069 0.0481 0.64193 0.0
H1936 H 0.17295 0.06734 0.59983 0.0
C1937 C 0.20687 0.12185 0.62362 0.0
C1938 C 0.19075 0.13097 0.61719 0.0
C1939 C 0.2068 0.10337 0.6252 0.0
C1940 C 0.1805 0.06223 0.61182 0.0
H1941 H 0.22827 0.98597 0.63805 0.0
H1942 H 0.22436 0.01798 0.63369 0.0
H1943 H 0.17397 0.03512 0.60483 0.0
H1944 H 0.16203 0.12796 0.60688 0.0
H1945 H 0.16156 0.09547 0.61015 0.0
H1946 H 0.20693 0.07493 0.64934 0.0
C1947 C 0.21182 0.00961 0.63397 0.0
C1948 C 0.18111 0.04378 0.61464 0.0
C1949 C 0.21407 0.99129 0.63634 0.0
C1950 C 0.17467 0.12118 0.61178 0.0
C1951 C 0.17445 0.10259 0.61366 0.0
C1952 C 0.19986 0.06648 0.63931 0.0
C1953 C 0.19362 0.01704 0.63182 0.0
C1954 C 0.19152 0.03655 0.62953 0.0
C1955 C 0.19043 0.09347 0.62074 0.0
C1956 C 0.19011 0.07383 0.62399 0.0
H1957 H 0.16743 0.97898 0.63515 0.0
H1958 H 0.16348 0.01121 0.63058 0.0
H1959 H 0.20856 0.04289 0.6537 0.0
H1960 H 0.21955 0.12911 0.62757 0.0
H1961 H 0.21961 0.09686 0.63009 0.0
C1962 C 0.69015 0.39027 0.41025 0.0
C1963 C 0.69625 0.37959 0.39538 0.0
C1964 C 0.68906 0.40877 0.40831 0.0
C1965 C 0.68578 0.44475 0.37332 0.0
H1966 H 0.70579 0.4742 0.41295 0.0
C1967 C 0.69629 0.52104 0.36543 0.0
C1968 C 0.69296 0.53167 0.38115 0.0
C1969 C 0.69588 0.50244 0.36681 0.0
C1970 C 0.69986 0.46622 0.40184 0.0
H1971 H 0.70548 0.38003 0.36663 0.0
H1972 H 0.7037 0.41227 0.36328 0.0
H1973 H 0.70633 0.44197 0.41616 0.0
H1974 H 0.68564 0.53111 0.4104 0.0
H1975 H 0.68461 0.49885 0.41277 0.0
H1976 H 0.6792 0.46901 0.35903 0.0
C1977 C 0.69974 0.40633 0.37645 0.0
C1978 C 0.70022 0.44771 0.40369 0.0
C1979 C 0.70096 0.38785 0.37844 0.0
C1980 C 0.68867 0.52331 0.39812 0.0
C1981 C 0.68813 0.50478 0.39948 0.0
C1982 C 0.68532 0.46329 0.3715 0.0
C1983 C 0.69389 0.41703 0.3914 0.0
C1984 C 0.6932 0.43674 0.38946 0.0
C1985 C 0.692 0.49407 0.38393 0.0
C1986 C 0.69236 0.47429 0.38575 0.0
H1987 H 0.68653 0.38436 0.42351 0.0
H1988 H 0.68433 0.41662 0.42004 0.0
H1989 H 0.68007 0.43667 0.36218 0.0
H1990 H 0.69978 0.52708 0.3522 0.0
H1991 H 0.69912 0.49465 0.35458 0.0
loop_
_geom_bond_atom_site_label_1
_geom_bond_atom_site_label_2
_geom_bond_distance
_geom_bond_site_symmetry_2
_ccdc_geom_bond_type
Cu0 N1 1.999 . S
Cu0 O6 1.974 . S
Cu0 N11 1.985 . S
Cu0 O20 1.959 . S
N1 Cu0 1.999 . S
N1 C3 1.263 . S
N1 C5 1.389 . S
N2 C3 1.358 . S
N2 C4 1.400 . S
C3 N1 1.263 . S
C3 N2 1.358 . S
C3 H9 0.930 . S
C4 N2 1.400 . S
C4 C5 1.351 . S
C4 H21 0.930 . S
C5 N1 1.389 . S
C5 C4 1.351 . S
C5 H10 0.930 . S
O6 Cu0 1.974 . S
O6 C16 1.282 . S
C7 O8 1.261 . S
C7 O20 1.251 . S
O8 C7 1.261 . S
H9 C3 0.930 . S
H10 C5 0.930 . S
N11 Cu0 1.985 . S
N11 C13 1.335 . S
N11 C14 1.390 . S
N12 C13 1.345 . S
N12 C15 1.336 . S
C13 N11 1.335 . S
C13 N12 1.345 . S
C13 H18 0.930 . S
C14 N11 1.390 . S
C14 C15 1.346 . S
C14 H19 0.930 . S
C15 N12 1.336 . S
C15 C14 1.346 . S
C15 H22 0.929 . S
C16 O6 1.282 . S
C16 O17 1.216 . S
O17 C16 1.216 . S
H18 C13 0.930 . S
H19 C14 0.930 . S
O20 Cu0 1.959 . S
O20 C7 1.251 . S
H21 C4 0.930 . S
H22 C15 0.929 . S
Cu23 N24 1.999 . S
Cu23 O29 1.974 . S
Cu23 N34 1.985 . S
Cu23 O43 1.959 . S
N24 Cu23 1.999 . S
N24 C26 1.263 . S
N24 C28 1.389 . S
N25 C26 1.358 . S
N25 C27 1.400 . S
C26 N24 1.263 . S
C26 N25 1.358 . S
C26 H32 0.930 . S
C27 N25 1.400 . S
C27 C28 1.351 . S
C27 H44 0.930 . S
C28 N24 1.389 . S
C28 C27 1.351 . S
C28 H33 0.930 . S
O29 Cu23 1.974 . S
O29 C39 1.282 . S
C30 O31 1.261 . S
C30 O43 1.251 . S
O31 C30 1.261 . S
H32 C26 0.930 . S
H33 C28 0.930 . S
N34 Cu23 1.985 . S
N34 C36 1.335 . S
N34 C37 1.390 . S
N35 C36 1.345 . S
N35 C38 1.336 . S
C36 N34 1.335 . S
C36 N35 1.345 . S
C36 H41 0.930 . S
C37 N34 1.390 . S
C37 C38 1.346 . S
C37 H42 0.930 . S
C38 N35 1.336 . S
C38 C37 1.346 . S
C38 H45 0.929 . S
C39 O29 1.282 . S
C39 O40 1.216 . S
O40 C39 1.216 . S
H41 C36 0.930 . S
H42 C37 0.930 . S
O43 Cu23 1.959 . S
O43 C30 1.251 . S
H44 C27 0.930 . S
H45 C38 0.929 . S
Cu46 N47 1.999 . S
Cu46 O52 1.974 . S
Cu46 N57 1.985 . S
Cu46 O66 1.959 . S
N47 Cu46 1.999 . S
N47 C49 1.263 . S
N47 C51 1.389 . S
N48 C49 1.358 . S
N48 C50 1.400 . S
C49 N47 1.263 . S
C49 N48 1.358 . S
C49 H55 0.930 . S
C50 N48 1.400 . S
C50 C51 1.351 . S
C50 H67 0.930 . S
C51 N47 1.389 . S
C51 C50 1.351 . S
C51 H56 0.930 . S
O52 Cu46 1.974 . S
O52 C62 1.282 . S
C53 O54 1.261 . S
C53 O66 1.251 . S
O54 C53 1.261 . S
H55 C49 0.930 . S
H56 C51 0.930 . S
N57 Cu46 1.985 . S
N57 C59 1.335 . S
N57 C60 1.390 . S
N58 C59 1.345 . S
N58 C61 1.336 . S
C59 N57 1.335 . S
C59 N58 1.345 . S
C59 H64 0.930 . S
C60 N57 1.390 . S
C60 C61 1.346 . S
C60 H65 0.930 . S
C61 N58 1.336 . S
C61 C60 1.346 . S
C61 H68 0.929 . S
C62 O52 1.282 . S
C62 O63 1.216 . S
O63 C62 1.216 . S
H64 C59 0.930 . S
H65 C60 0.930 . S
O66 Cu46 1.959 . S
O66 C53 1.251 . S
H67 C50 0.930 . S
H68 C61 0.929 . S
Cu69 N70 1.999 . S
Cu69 O75 1.974 . S
Cu69 N80 1.985 . S
Cu69 O89 1.959 . S
N70 Cu69 1.999 . S
N70 C72 1.263 . S
N70 C74 1.389 . S
N71 C72 1.358 . S
N71 C73 1.400 . S
C72 N70 1.263 . S
C72 N71 1.358 . S
C72 H78 0.930 . S
C73 N71 1.400 . S
C73 C74 1.351 . S
C73 H90 0.930 . S
C74 N70 1.389 . S
C74 C73 1.351 . S
C74 H79 0.930 . S
O75 Cu69 1.974 . S
O75 C85 1.282 . S
C76 O77 1.261 . S
C76 O89 1.251 . S
O77 C76 1.261 . S
H78 C72 0.930 . S
H79 C74 0.930 . S
N80 Cu69 1.985 . S
N80 C82 1.335 . S
N80 C83 1.390 . S
N81 C82 1.345 . S
N81 C84 1.336 . S
C82 N80 1.335 . S
C82 N81 1.345 . S
C82 H87 0.930 . S
C83 N80 1.390 . S
C83 C84 1.346 . S
C83 H88 0.930 . S
C84 N81 1.336 . S
C84 C83 1.346 . S
C84 H91 0.929 . S
C85 O75 1.282 . S
C85 O86 1.216 . S
O86 C85 1.216 . S
H87 C82 0.930 . S
H88 C83 0.930 . S
O89 Cu69 1.959 . S
O89 C76 1.251 . S
H90 C73 0.930 . S
H91 C84 0.929 . S
Cu92 N93 1.999 . S
Cu92 O98 1.974 . S
Cu92 N103 1.985 . S
Cu92 O112 1.959 . S
N93 Cu92 1.999 . S
N93 C95 1.263 . S
N93 C97 1.389 . S
N94 C95 1.358 . S
N94 C96 1.400 . S
C95 N93 1.263 . S
C95 N94 1.358 . S
C95 H101 0.930 . S
C96 N94 1.400 . S
C96 C97 1.351 . S
C96 H113 0.930 . S
C97 N93 1.389 . S
C97 C96 1.351 . S
C97 H102 0.930 . S
O98 Cu92 1.974 . S
O98 C108 1.282 . S
C99 O100 1.261 . S
C99 O112 1.251 . S
O100 C99 1.261 . S
H101 C95 0.930 . S
H102 C97 0.930 . S
N103 Cu92 1.985 . S
N103 C105 1.335 . S
N103 C106 1.390 . S
N104 C105 1.345 . S
N104 C107 1.336 . S
C105 N103 1.335 . S
C105 N104 1.345 . S
C105 H110 0.930 . S
C106 N103 1.390 . S
C106 C107 1.346 . S
C106 H111 0.930 . S
C107 N104 1.336 . S
C107 C106 1.346 . S
C107 H114 0.929 . S
C108 O98 1.282 . S
C108 O109 1.216 . S
O109 C108 1.216 . S
H110 C105 0.930 . S
H111 C106 0.930 . S
O112 Cu92 1.959 . S
O112 C99 1.251 . S
H113 C96 0.930 . S
H114 C107 0.929 . S
Cu115 N116 1.999 . S
Cu115 O121 1.974 . S
Cu115 N126 1.985 . S
Cu115 O135 1.959 . S
N116 Cu115 1.999 . S
N116 C118 1.263 . S
N116 C120 1.389 . S
N117 C118 1.358 . S
N117 C119 1.400 . S
C118 N116 1.263 . S
C118 N117 1.358 . S
C118 H124 0.930 . S
C119 N117 1.400 . S
C119 C120 1.351 . S
C119 H136 0.930 . S
C120 N116 1.389 . S
C120 C119 1.351 . S
C120 H125 0.930 . S
O121 Cu115 1.974 . S
O121 C131 1.282 . S
C122 O123 1.261 . S
C122 O135 1.251 . S
O123 C122 1.261 . S
H124 C118 0.930 . S
H125 C120 0.930 . S
N126 Cu115 1.985 . S
N126 C128 1.335 . S
N126 C129 1.390 . S
N127 C128 1.345 . S
N127 C130 1.336 . S
C128 N126 1.335 . S
C128 N127 1.345 . S
C128 H133 0.930 . S
C129 N126 1.390 . S
C129 C130 1.346 . S
C129 H134 0.930 . S
C130 N127 1.336 . S
C130 C129 1.346 . S
C130 H137 0.929 . S
C131 O121 1.282 . S
C131 O132 1.216 . S
O132 C131 1.216 . S
H133 C128 0.930 . S
H134 C129 0.930 . S
O135 Cu115 1.959 . S
O135 C122 1.251 . S
H136 C119 0.930 . S
H137 C130 0.929 . S
Cu138 N139 1.999 . S
Cu138 O144 1.974 . S
Cu138 N149 1.985 . S
Cu138 O158 1.959 . S
N139 Cu138 1.999 . S
N139 C141 1.263 . S
N139 C143 1.389 . S
N140 C141 1.358 . S
N140 C142 1.400 . S
C141 N139 1.263 . S
C141 N140 1.358 . S
C141 H147 0.930 . S
C142 N140 1.400 . S
C142 C143 1.351 . S
C142 H159 0.930 . S
C143 N139 1.389 . S
C143 C142 1.351 . S
C143 H148 0.930 . S
O144 Cu138 1.974 . S
O144 C154 1.282 . S
C145 O146 1.261 . S
C145 O158 1.251 . S
O146 C145 1.261 . S
H147 C141 0.930 . S
H148 C143 0.930 . S
N149 Cu138 1.985 . S
N149 C151 1.335 . S
N149 C152 1.390 . S
N150 C151 1.345 . S
N150 C153 1.336 . S
C151 N149 1.335 . S
C151 N150 1.345 . S
C151 H156 0.930 . S
C152 N149 1.390 . S
C152 C153 1.346 . S
C152 H157 0.930 . S
C153 N150 1.336 . S
C153 C152 1.346 . S
C153 H160 0.929 . S
C154 O144 1.282 . S
C154 O155 1.216 . S
O155 C154 1.216 . S
H156 C151 0.930 . S
H157 C152 0.930 . S
O158 Cu138 1.959 . S
O158 C145 1.251 . S
H159 C142 0.930 . S
H160 C153 0.929 . S
Cu161 N162 1.999 . S
Cu161 O167 1.974 . S
Cu161 N172 1.985 . S
Cu161 O181 1.959 . S
N162 Cu161 1.999 . S
N162 C164 1.263 . S
N162 C166 1.389 . S
N163 C164 1.358 . S
N163 C165 1.400 . S
C164 N162 1.263 . S
C164 N163 1.358 . S
C164 H170 0.930 . S
C165 N163 1.400 . S
C165 C166 1.351 . S
C165 H182 0.930 . S
C166 N162 1.389 . S
C166 C165 1.351 . S
C166 H171 0.930 . S
O167 Cu161 1.974 . S
O167 C177 1.282 . S
C168 O169 1.261 . S
C168 O181 1.251 . S
O169 C168 1.261 . S
H170 C164 0.930 . S
H171 C166 0.930 . S
N172 Cu161 1.985 . S
N172 C174 1.335 . S
N172 C175 1.390 . S
N173 C174 1.345 . S
N173 C176 1.336 . S
C174 N172 1.335 . S
C174 N173 1.345 . S
C174 H179 0.930 . S
C175 N172 1.390 . S
C175 C176 1.346 . S
C175 H180 0.930 . S
C176 N173 1.336 . S
C176 C175 1.346 . S
C176 H183 0.929 . S
C177 O167 1.282 . S
C177 O178 1.216 . S
O178 C177 1.216 . S
H179 C174 0.930 . S
H180 C175 0.930 . S
O181 Cu161 1.959 . S
O181 C168 1.251 . S
H182 C165 0.930 . S
H183 C176 0.929 . S
Cu184 N185 1.999 . S
Cu184 O190 1.974 . S
Cu184 N195 1.985 . S
Cu184 O204 1.959 . S
N185 Cu184 1.999 . S
N185 C187 1.263 . S
N185 C189 1.389 . S
N186 C187 1.358 . S
N186 C188 1.400 . S
C187 N185 1.263 . S
C187 N186 1.358 . S
C187 H193 0.930 . S
C188 N186 1.400 . S
C188 C189 1.351 . S
C188 H205 0.930 . S
C189 N185 1.389 . S
C189 C188 1.351 . S
C189 H194 0.930 . S
O190 Cu184 1.974 . S
O190 C200 1.282 . S
C191 O192 1.261 . S
C191 O204 1.251 . S
O192 C191 1.261 . S
H193 C187 0.930 . S
H194 C189 0.930 . S
N195 Cu184 1.985 . S
N195 C197 1.335 . S
N195 C198 1.390 . S
N196 C197 1.345 . S
N196 C199 1.336 . S
C197 N195 1.335 . S
C197 N196 1.345 . S
C197 H202 0.930 . S
C198 N195 1.390 . S
C198 C199 1.346 . S
C198 H203 0.930 . S
C199 N196 1.336 . S
C199 C198 1.346 . S
C199 H206 0.929 . S
C200 O190 1.282 . S
C200 O201 1.216 . S
O201 C200 1.216 . S
H202 C197 0.930 . S
H203 C198 0.930 . S
O204 Cu184 1.959 . S
O204 C191 1.251 . S
H205 C188 0.930 . S
H206 C199 0.929 . S
Cu207 N208 1.999 . S
Cu207 O213 1.974 . S
Cu207 N218 1.985 . S
Cu207 O227 1.959 . S
N208 Cu207 1.999 . S
N208 C210 1.263 . S
N208 C212 1.389 . S
N209 C210 1.358 . S
N209 C211 1.400 . S
C210 N208 1.263 . S
C210 N209 1.358 . S
C210 H216 0.930 . S
C211 N209 1.400 . S
C211 C212 1.351 . S
C211 H228 0.930 . S
C212 N208 1.389 . S
C212 C211 1.351 . S
C212 H217 0.930 . S
O213 Cu207 1.974 . S
O213 C223 1.282 . S
C214 O215 1.261 . S
C214 O227 1.251 . S
O215 C214 1.261 . S
H216 C210 0.930 . S
H217 C212 0.930 . S
N218 Cu207 1.985 . S
N218 C220 1.335 . S
N218 C221 1.390 . S
N219 C220 1.345 . S
N219 C222 1.336 . S
C220 N218 1.335 . S
C220 N219 1.345 . S
C220 H225 0.930 . S
C221 N218 1.390 . S
C221 C222 1.346 . S
C221 H226 0.930 . S
C222 N219 1.336 . S
C222 C221 1.346 . S
C222 H229 0.929 . S
C223 O213 1.282 . S
C223 O224 1.216 . S
O224 C223 1.216 . S
H225 C220 0.930 . S
H226 C221 0.930 . S
O227 Cu207 1.959 . S
O227 C214 1.251 . S
H228 C211 0.930 . S
H229 C222 0.929 . S
Cu230 N231 1.999 . S
Cu230 O236 1.974 . S
Cu230 N241 1.985 . S
Cu230 O250 1.959 . S
N231 Cu230 1.999 . S
N231 C233 1.263 . S
N231 C235 1.389 . S
N232 C233 1.358 . S
N232 C234 1.400 . S
C233 N231 1.263 . S
C233 N232 1.358 . S
C233 H239 0.930 . S
C234 N232 1.400 . S
C234 C235 1.351 . S
C234 H251 0.930 . S
C235 N231 1.389 . S
C235 C234 1.351 . S
C235 H240 0.930 . S
O236 Cu230 1.974 . S
O236 C246 1.282 . S
C237 O238 1.261 . S
C237 O250 1.251 . S
O238 C237 1.261 . S
H239 C233 0.930 . S
H240 C235 0.930 . S
N241 Cu230 1.985 . S
N241 C243 1.335 . S
N241 C244 1.390 . S
N242 C243 1.345 . S
N242 C245 1.336 . S
C243 N241 1.335 . S
C243 N242 1.345 . S
C243 H248 0.930 . S
C244 N241 1.390 . S
C244 C245 1.346 . S
C244 H249 0.930 . S
C245 N242 1.336 . S
C245 C244 1.346 . S
C245 H252 0.929 . S
C246 O236 1.282 . S
C246 O247 1.216 . S
O247 C246 1.216 . S
H248 C243 0.930 . S
H249 C244 0.930 . S
O250 Cu230 1.959 . S
O250 C237 1.251 . S
H251 C234 0.930 . S
H252 C245 0.929 . S
Cu253 N254 1.999 . S
Cu253 O259 1.974 . S
Cu253 N264 1.985 . S
Cu253 O273 1.959 . S
N254 Cu253 1.999 . S
N254 C256 1.263 . S
N254 C258 1.389 . S
N255 C256 1.358 . S
N255 C257 1.400 . S
C256 N254 1.263 . S
C256 N255 1.358 . S
C256 H262 0.930 . S
C257 N255 1.400 . S
C257 C258 1.351 . S
C257 H274 0.930 . S
C258 N254 1.389 . S
C258 C257 1.351 . S
C258 H263 0.930 . S
O259 Cu253 1.974 . S
O259 C269 1.282 . S
C260 O261 1.261 . S
C260 O273 1.251 . S
O261 C260 1.261 . S
H262 C256 0.930 . S
H263 C258 0.930 . S
N264 Cu253 1.985 . S
N264 C266 1.335 . S
N264 C267 1.390 . S
N265 C266 1.345 . S
N265 C268 1.336 . S
C266 N264 1.335 . S
C266 N265 1.345 . S
C266 H271 0.930 . S
C267 N264 1.390 . S
C267 C268 1.346 . S
C267 H272 0.930 . S
C268 N265 1.336 . S
C268 C267 1.346 . S
C268 H275 0.929 . S
C269 O259 1.282 . S
C269 O270 1.216 . S
O270 C269 1.216 . S
H271 C266 0.930 . S
H272 C267 0.930 . S
O273 Cu253 1.959 . S
O273 C260 1.251 . S
H274 C257 0.930 . S
H275 C268 0.929 . S
Cu276 N277 1.999 . S
Cu276 O282 1.974 . S
Cu276 N287 1.985 . S
Cu276 O296 1.959 . S
N277 Cu276 1.999 . S
N277 C279 1.263 . S
N277 C281 1.389 . S
N278 C279 1.358 . S
N278 C280 1.400 . S
C279 N277 1.263 . S
C279 N278 1.358 . S
C279 H285 0.930 . S
C280 N278 1.400 . S
C280 C281 1.351 . S
C280 H297 0.930 . S
C281 N277 1.389 . S
C281 C280 1.351 . S
C281 H286 0.930 . S
O282 Cu276 1.974 . S
O282 C292 1.282 . S
C283 O284 1.261 . S
C283 O296 1.251 . S
O284 C283 1.261 . S
H285 C279 0.930 . S
H286 C281 0.930 . S
N287 Cu276 1.985 . S
N287 C289 1.335 . S
N287 C290 1.390 . S
N288 C289 1.345 . S
N288 C291 1.336 . S
C289 N287 1.335 . S
C289 N288 1.345 . S
C289 H294 0.930 . S
C290 N287 1.390 . S
C290 C291 1.346 . S
C290 H295 0.930 . S
C291 N288 1.336 . S
C291 C290 1.346 . S
C291 H298 0.929 . S
C292 O282 1.282 . S
C292 O293 1.216 . S
O293 C292 1.216 . S
H294 C289 0.930 . S
H295 C290 0.930 . S
O296 Cu276 1.959 . S
O296 C283 1.251 . S
H297 C280 0.930 . S
H298 C291 0.929 . S
Cu299 N300 1.999 . S
Cu299 O305 1.974 . S
Cu299 N310 1.985 . S
Cu299 O319 1.959 . S
N300 Cu299 1.999 . S
N300 C302 1.263 . S
N300 C304 1.389 . S
N301 C302 1.358 . S
N301 C303 1.400 . S
C302 N300 1.263 . S
C302 N301 1.358 . S
C302 H308 0.930 . S
C303 N301 1.400 . S
C303 C304 1.351 . S
C303 H320 0.930 . S
C304 N300 1.389 . S
C304 C303 1.351 . S
C304 H309 0.930 . S
O305 Cu299 1.974 . S
O305 C315 1.282 . S
C306 O307 1.261 . S
C306 O319 1.251 . S
O307 C306 1.261 . S
H308 C302 0.930 . S
H309 C304 0.930 . S
N310 Cu299 1.985 . S
N310 C312 1.335 . S
N310 C313 1.390 . S
N311 C312 1.345 . S
N311 C314 1.336 . S
C312 N310 1.335 . S
C312 N311 1.345 . S
C312 H317 0.930 . S
C313 N310 1.390 . S
C313 C314 1.346 . S
C313 H318 0.930 . S
C314 N311 1.336 . S
C314 C313 1.346 . S
C314 H321 0.929 . S
C315 O305 1.282 . S
C315 O316 1.216 . S
O316 C315 1.216 . S
H317 C312 0.930 . S
H318 C313 0.930 . S
O319 Cu299 1.959 . S
O319 C306 1.251 . S
H320 C303 0.930 . S
H321 C314 0.929 . S
Cu322 N323 1.999 . S
Cu322 O328 1.974 . S
Cu322 N333 1.985 . S
Cu322 O342 1.959 . S
N323 Cu322 1.999 . S
N323 C325 1.263 . S
N323 C327 1.389 . S
N324 C325 1.358 . S
N324 C326 1.400 . S
C325 N323 1.263 . S
C325 N324 1.358 . S
C325 H331 0.930 . S
C326 N324 1.400 . S
C326 C327 1.351 . S
C326 H343 0.930 . S
C327 N323 1.389 . S
C327 C326 1.351 . S
C327 H332 0.930 . S
O328 Cu322 1.974 . S
O328 C338 1.282 . S
C329 O330 1.261 . S
C329 O342 1.251 . S
O330 C329 1.261 . S
H331 C325 0.930 . S
H332 C327 0.930 . S
N333 Cu322 1.985 . S
N333 C335 1.335 . S
N333 C336 1.390 . S
N334 C335 1.345 . S
N334 C337 1.336 . S
C335 N333 1.335 . S
C335 N334 1.345 . S
C335 H340 0.930 . S
C336 N333 1.390 . S
C336 C337 1.346 . S
C336 H341 0.930 . S
C337 N334 1.336 . S
C337 C336 1.346 . S
C337 H344 0.929 . S
C338 O328 1.282 . S
C338 O339 1.216 . S
O339 C338 1.216 . S
H340 C335 0.930 . S
H341 C336 0.930 . S
O342 Cu322 1.959 . S
O342 C329 1.251 . S
H343 C326 0.930 . S
H344 C337 0.929 . S
Cu345 N346 1.999 . S
Cu345 O351 1.974 . S
Cu345 N356 1.985 . S
Cu345 O365 1.959 . S
N346 Cu345 1.999 . S
N346 C348 1.263 . S
N346 C350 1.389 . S
N347 C348 1.358 . S
N347 C349 1.400 . S
C348 N346 1.263 . S
C348 N347 1.358 . S
C348 H354 0.930 . S
C349 N347 1.400 . S
C349 C350 1.351 . S
C349 H366 0.930 . S
C350 N346 1.389 . S
C350 C349 1.351 . S
C350 H355 0.930 . S
O351 Cu345 1.974 . S
O351 C361 1.282 . S
C352 O353 1.261 . S
C352 O365 1.251 . S
O353 C352 1.261 . S
H354 C348 0.930 . S
H355 C350 0.930 . S
N356 Cu345 1.985 . S
N356 C358 1.335 . S
N356 C359 1.390 . S
N357 C358 1.345 . S
N357 C360 1.336 . S
C358 N356 1.335 . S
C358 N357 1.345 . S
C358 H363 0.930 . S
C359 N356 1.390 . S
C359 C360 1.346 . S
C359 H364 0.930 . S
C360 N357 1.336 . S
C360 C359 1.346 . S
C360 H367 0.929 . S
C361 O351 1.282 . S
C361 O362 1.216 . S
O362 C361 1.216 . S
H363 C358 0.930 . S
H364 C359 0.930 . S
O365 Cu345 1.959 . S
O365 C352 1.251 . S
H366 C349 0.930 . S
H367 C360 0.929 . S
Cu368 N369 1.999 . S
Cu368 O374 1.974 . S
Cu368 N379 1.985 . S
Cu368 O388 1.959 . S
N369 Cu368 1.999 . S
N369 C371 1.263 . S
N369 C373 1.389 . S
N370 C371 1.358 . S
N370 C372 1.400 . S
C371 N369 1.263 . S
C371 N370 1.358 . S
C371 H377 0.930 . S
C372 N370 1.400 . S
C372 C373 1.351 . S
C372 H389 0.930 . S
C373 N369 1.389 . S
C373 C372 1.351 . S
C373 H378 0.930 . S
O374 Cu368 1.974 . S
O374 C384 1.282 . S
C375 O376 1.261 . S
C375 O388 1.251 . S
O376 C375 1.261 . S
H377 C371 0.930 . S
H378 C373 0.930 . S
N379 Cu368 1.985 . S
N379 C381 1.335 . S
N379 C382 1.390 . S
N380 C381 1.345 . S
N380 C383 1.336 . S
C381 N379 1.335 . S
C381 N380 1.345 . S
C381 H386 0.930 . S
C382 N379 1.390 . S
C382 C383 1.346 . S
C382 H387 0.930 . S
C383 N380 1.336 . S
C383 C382 1.346 . S
C383 H390 0.929 . S
C384 O374 1.282 . S
C384 O385 1.216 . S
O385 C384 1.216 . S
H386 C381 0.930 . S
H387 C382 0.930 . S
O388 Cu368 1.959 . S
O388 C375 1.251 . S
H389 C372 0.930 . S
H390 C383 0.929 . S
Cu391 N392 1.999 . S
Cu391 O397 1.974 . S
Cu391 N402 1.985 . S
Cu391 O411 1.959 . S
N392 Cu391 1.999 . S
N392 C394 1.263 . S
N392 C396 1.389 . S
N393 C394 1.358 . S
N393 C395 1.400 . S
C394 N392 1.263 . S
C394 N393 1.358 . S
C394 H400 0.930 . S
C395 N393 1.400 . S
C395 C396 1.351 . S
C395 H412 0.930 . S
C396 N392 1.389 . S
C396 C395 1.351 . S
C396 H401 0.930 . S
O397 Cu391 1.974 . S
O397 C407 1.282 . S
C398 O399 1.261 . S
C398 O411 1.251 . S
O399 C398 1.261 . S
H400 C394 0.930 . S
H401 C396 0.930 . S
N402 Cu391 1.985 . S
N402 C404 1.335 . S
N402 C405 1.390 . S
N403 C404 1.345 . S
N403 C406 1.336 . S
C404 N402 1.335 . S
C404 N403 1.345 . S
C404 H409 0.930 . S
C405 N402 1.390 . S
C405 C406 1.346 . S
C405 H410 0.930 . S
C406 N403 1.336 . S
C406 C405 1.346 . S
C406 H413 0.929 . S
C407 O397 1.282 . S
C407 O408 1.216 . S
O408 C407 1.216 . S
H409 C404 0.930 . S
H410 C405 0.930 . S
O411 Cu391 1.959 . S
O411 C398 1.251 . S
H412 C395 0.930 . S
H413 C406 0.929 . S
Cu414 N415 1.999 . S
Cu414 O420 1.974 . S
Cu414 N425 1.985 . S
Cu414 O434 1.959 . S
N415 Cu414 1.999 . S
N415 C417 1.263 . S
N415 C419 1.389 . S
N416 C417 1.358 . S
N416 C418 1.400 . S
C417 N415 1.263 . S
C417 N416 1.358 . S
C417 H423 0.930 . S
C418 N416 1.400 . S
C418 C419 1.351 . S
C418 H435 0.930 . S
C419 N415 1.389 . S
C419 C418 1.351 . S
C419 H424 0.930 . S
O420 Cu414 1.974 . S
O420 C430 1.282 . S
C421 O422 1.261 . S
C421 O434 1.251 . S
O422 C421 1.261 . S
H423 C417 0.930 . S
H424 C419 0.930 . S
N425 Cu414 1.985 . S
N425 C427 1.335 . S
N425 C428 1.390 . S
N426 C427 1.345 . S
N426 C429 1.336 . S
C427 N425 1.335 . S
C427 N426 1.345 . S
C427 H432 0.930 . S
C428 N425 1.390 . S
C428 C429 1.346 . S
C428 H433 0.930 . S
C429 N426 1.336 . S
C429 C428 1.346 . S
C429 H436 0.929 . S
C430 O420 1.282 . S
C430 O431 1.216 . S
O431 C430 1.216 . S
H432 C427 0.930 . S
H433 C428 0.930 . S
O434 Cu414 1.959 . S
O434 C421 1.251 . S
H435 C418 0.930 . S
H436 C429 0.929 . S
Cu437 N438 1.999 . S
Cu437 O443 1.974 . S
Cu437 N448 1.985 . S
Cu437 O457 1.959 . S
N438 Cu437 1.999 . S
N438 C440 1.263 . S
N438 C442 1.389 . S
N439 C440 1.358 . S
N439 C441 1.400 . S
C440 N438 1.263 . S
C440 N439 1.358 . S
C440 H446 0.930 . S
C441 N439 1.400 . S
C441 C442 1.351 . S
C441 H458 0.930 . S
C442 N438 1.389 . S
C442 C441 1.351 . S
C442 H447 0.930 . S
O443 Cu437 1.974 . S
O443 C453 1.282 . S
C444 O445 1.261 . S
C444 O457 1.251 . S
O445 C444 1.261 . S
H446 C440 0.930 . S
H447 C442 0.930 . S
N448 Cu437 1.985 . S
N448 C450 1.335 . S
N448 C451 1.390 . S
N449 C450 1.345 . S
N449 C452 1.336 . S
C450 N448 1.335 . S
C450 N449 1.345 . S
C450 H455 0.930 . S
C451 N448 1.390 . S
C451 C452 1.346 . S
C451 H456 0.930 . S
C452 N449 1.336 . S
C452 C451 1.346 . S
C452 H459 0.929 . S
C453 O443 1.282 . S
C453 O454 1.216 . S
O454 C453 1.216 . S
H455 C450 0.930 . S
H456 C451 0.930 . S
O457 Cu437 1.959 . S
O457 C444 1.251 . S
H458 C441 0.930 . S
H459 C452 0.929 . S
Cu460 N461 1.999 . S
Cu460 O466 1.974 . S
Cu460 N471 1.985 . S
Cu460 O480 1.959 . S
N461 Cu460 1.999 . S
N461 C463 1.263 . S
N461 C465 1.389 . S
N462 C463 1.358 . S
N462 C464 1.400 . S
C463 N461 1.263 . S
C463 N462 1.358 . S
C463 H469 0.930 . S
C464 N462 1.400 . S
C464 C465 1.351 . S
C464 H481 0.930 . S
C465 N461 1.389 . S
C465 C464 1.351 . S
C465 H470 0.930 . S
O466 Cu460 1.974 . S
O466 C476 1.282 . S
C467 O468 1.261 . S
C467 O480 1.251 . S
O468 C467 1.261 . S
H469 C463 0.930 . S
H470 C465 0.930 . S
N471 Cu460 1.985 . S
N471 C473 1.335 . S
N471 C474 1.390 . S
N472 C473 1.345 . S
N472 C475 1.336 . S
C473 N471 1.335 . S
C473 N472 1.345 . S
C473 H478 0.930 . S
C474 N471 1.390 . S
C474 C475 1.346 . S
C474 H479 0.930 . S
C475 N472 1.336 . S
C475 C474 1.346 . S
C475 H482 0.929 . S
C476 O466 1.282 . S
C476 O477 1.216 . S
O477 C476 1.216 . S
H478 C473 0.930 . S
H479 C474 0.930 . S
O480 Cu460 1.959 . S
O480 C467 1.251 . S
H481 C464 0.930 . S
H482 C475 0.929 . S
Cu483 N484 1.999 . S
Cu483 O489 1.974 . S
Cu483 N494 1.985 . S
Cu483 O503 1.959 . S
N484 Cu483 1.999 . S
N484 C486 1.263 . S
N484 C488 1.389 . S
N485 C486 1.358 . S
N485 C487 1.400 . S
C486 N484 1.263 . S
C486 N485 1.358 . S
C486 H492 0.930 . S
C487 N485 1.400 . S
C487 C488 1.351 . S
C487 H504 0.930 . S
C488 N484 1.389 . S
C488 C487 1.351 . S
C488 H493 0.930 . S
O489 Cu483 1.974 . S
O489 C499 1.282 . S
C490 O491 1.261 . S
C490 O503 1.251 . S
O491 C490 1.261 . S
H492 C486 0.930 . S
H493 C488 0.930 . S
N494 Cu483 1.985 . S
N494 C496 1.335 . S
N494 C497 1.390 . S
N495 C496 1.345 . S
N495 C498 1.336 . S
C496 N494 1.335 . S
C496 N495 1.345 . S
C496 H501 0.930 . S
C497 N494 1.390 . S
C497 C498 1.346 . S
C497 H502 0.930 . S
C498 N495 1.336 . S
C498 C497 1.346 . S
C498 H505 0.929 . S
C499 O489 1.282 . S
C499 O500 1.216 . S
O500 C499 1.216 . S
H501 C496 0.930 . S
H502 C497 0.930 . S
O503 Cu483 1.959 . S
O503 C490 1.251 . S
H504 C487 0.930 . S
H505 C498 0.929 . S
Cu506 N507 1.999 . S
Cu506 O512 1.974 . S
Cu506 N517 1.985 . S
Cu506 O526 1.959 . S
N507 Cu506 1.999 . S
N507 C509 1.263 . S
N507 C511 1.389 . S
N508 C509 1.358 . S
N508 C510 1.400 . S
C509 N507 1.263 . S
C509 N508 1.358 . S
C509 H515 0.930 . S
C510 N508 1.400 . S
C510 C511 1.351 . S
C510 H527 0.930 . S
C511 N507 1.389 . S
C511 C510 1.351 . S
C511 H516 0.930 . S
O512 Cu506 1.974 . S
O512 C522 1.282 . S
C513 O514 1.261 . S
C513 O526 1.251 . S
O514 C513 1.261 . S
H515 C509 0.930 . S
H516 C511 0.930 . S
N517 Cu506 1.985 . S
N517 C519 1.335 . S
N517 C520 1.390 . S
N518 C519 1.345 . S
N518 C521 1.336 . S
C519 N517 1.335 . S
C519 N518 1.345 . S
C519 H524 0.930 . S
C520 N517 1.390 . S
C520 C521 1.346 . S
C520 H525 0.930 . S
C521 N518 1.336 . S
C521 C520 1.346 . S
C521 H528 0.929 . S
C522 O512 1.282 . S
C522 O523 1.216 . S
O523 C522 1.216 . S
H524 C519 0.930 . S
H525 C520 0.930 . S
O526 Cu506 1.959 . S
O526 C513 1.251 . S
H527 C510 0.930 . S
H528 C521 0.929 . S
Cu529 N530 1.999 . S
Cu529 O535 1.974 . S
Cu529 N540 1.985 . S
Cu529 O549 1.959 . S
N530 Cu529 1.999 . S
N530 C532 1.263 . S
N530 C534 1.389 . S
N531 C532 1.358 . S
N531 C533 1.400 . S
C532 N530 1.263 . S
C532 N531 1.358 . S
C532 H538 0.930 . S
C533 N531 1.400 . S
C533 C534 1.351 . S
C533 H550 0.930 . S
C534 N530 1.389 . S
C534 C533 1.351 . S
C534 H539 0.930 . S
O535 Cu529 1.974 . S
O535 C545 1.282 . S
C536 O537 1.261 . S
C536 O549 1.251 . S
O537 C536 1.261 . S
H538 C532 0.930 . S
H539 C534 0.930 . S
N540 Cu529 1.985 . S
N540 C542 1.335 . S
N540 C543 1.390 . S
N541 C542 1.345 . S
N541 C544 1.336 . S
C542 N540 1.335 . S
C542 N541 1.345 . S
C542 H547 0.930 . S
C543 N540 1.390 . S
C543 C544 1.346 . S
C543 H548 0.930 . S
C544 N541 1.336 . S
C544 C543 1.346 . S
C544 H551 0.929 . S
C545 O535 1.282 . S
C545 O546 1.216 . S
O546 C545 1.216 . S
H547 C542 0.930 . S
H548 C543 0.930 . S
O549 Cu529 1.959 . S
O549 C536 1.251 . S
H550 C533 0.930 . S
H551 C544 0.929 . S
C552 C553 1.349 . S
C552 C554 1.327 . S
C552 H577 0.950 . S
C553 C552 1.349 . S
C553 C569 1.349 . S
C554 C552 1.327 . S
C554 C573 1.429 . S
C554 H578 0.950 . S
C555 C572 1.574 . S
C555 C574 1.368 . S
C555 H579 0.949 . S
H556 C560 0.949 . S
C557 C558 1.349 . S
C557 C559 1.327 . S
C557 H580 0.950 . S
C558 C557 1.349 . S
C558 C570 1.349 . S
C559 C557 1.327 . S
C559 C575 1.429 . S
C559 H581 0.950 . S
C560 H556 0.949 . S
C560 C568 1.574 . S
C560 C576 1.368 . S
H561 C569 0.950 . S
H562 C567 0.950 . S
H563 C568 0.949 . S
H564 C570 0.950 . S
H565 C571 0.950 . S
H566 C572 0.949 . S
C567 H562 0.950 . S
C567 C569 1.327 . S
C567 C573 1.429 . S
C568 C560 1.574 . S
C568 H563 0.949 . S
C568 C574 1.368 . S
C569 C553 1.349 . S
C569 H561 0.950 . S
C569 C567 1.327 . S
C570 C558 1.349 . S
C570 H564 0.950 . S
C570 C571 1.327 . S
C571 H565 0.950 . S
C571 C570 1.327 . S
C571 C575 1.429 . S
C572 C555 1.574 . S
C572 H566 0.949 . S
C572 C576 1.368 . S
C573 C554 1.429 . S
C573 C567 1.429 . S
C573 C574 1.523 . S
C574 C555 1.368 . S
C574 C568 1.368 . S
C574 C573 1.523 . S
C575 C559 1.429 . S
C575 C571 1.429 . S
C575 C576 1.523 . S
C576 C560 1.368 . S
C576 C572 1.368 . S
C576 C575 1.523 . S
H577 C552 0.950 . S
H578 C554 0.950 . S
H579 C555 0.949 . S
H580 C557 0.950 . S
H581 C559 0.950 . S
C582 C583 1.349 . S
C582 C584 1.327 . S
C582 H607 0.950 . S
C583 C582 1.349 . S
C583 C599 1.349 . S
C584 C582 1.327 . S
C584 C603 1.429 . S
C584 H608 0.950 . S
C585 C602 1.574 . S
C585 C604 1.368 . S
C585 H609 0.949 . S
H586 C590 0.949 . S
C587 C588 1.349 . S
C587 C589 1.327 . S
C587 H610 0.950 . S
C588 C587 1.349 . S
C588 C600 1.349 . S
C589 C587 1.327 . S
C589 C605 1.429 . S
C589 H611 0.950 . S
C590 H586 0.949 . S
C590 C598 1.574 . S
C590 C606 1.368 . S
H591 C599 0.950 . S
H592 C597 0.950 . S
H593 C598 0.949 . S
H594 C600 0.950 . S
H595 C601 0.950 . S
H596 C602 0.949 . S
C597 H592 0.950 . S
C597 C599 1.327 . S
C597 C603 1.429 . S
C598 C590 1.574 . S
C598 H593 0.949 . S
C598 C604 1.368 . S
C599 C583 1.349 . S
C599 H591 0.950 . S
C599 C597 1.327 . S
C600 C588 1.349 . S
C600 H594 0.950 . S
C600 C601 1.327 . S
C601 H595 0.950 . S
C601 C600 1.327 . S
C601 C605 1.429 . S
C602 C585 1.574 . S
C602 H596 0.949 . S
C602 C606 1.368 . S
C603 C584 1.429 . S
C603 C597 1.429 . S
C603 C604 1.523 . S
C604 C585 1.368 . S
C604 C598 1.368 . S
C604 C603 1.523 . S
C605 C589 1.429 . S
C605 C601 1.429 . S
C605 C606 1.523 . S
C606 C590 1.368 . S
C606 C602 1.368 . S
C606 C605 1.523 . S
H607 C582 0.950 . S
H608 C584 0.950 . S
H609 C585 0.949 . S
H610 C587 0.950 . S
H611 C589 0.950 . S
C612 C613 1.349 . S
C612 C614 1.327 . S
C612 H637 0.950 . S
C613 C612 1.349 . S
C613 C629 1.349 . S
C614 C612 1.327 . S
C614 C633 1.429 . S
C614 H638 0.950 . S
C615 C632 1.574 . S
C615 C634 1.368 . S
C615 H639 0.949 . S
H616 C620 0.949 . S
C617 C618 1.349 . S
C617 C619 1.327 . S
C617 H640 0.950 . S
C618 C617 1.349 . S
C618 C630 1.349 . S
C619 C617 1.327 . S
C619 C635 1.429 . S
C619 H641 0.950 . S
C620 H616 0.949 . S
C620 C628 1.574 . S
C620 C636 1.368 . S
H621 C629 0.950 . S
H622 C627 0.950 . S
H623 C628 0.949 . S
H624 C630 0.950 . S
H625 C631 0.950 . S
H626 C632 0.949 . S
C627 H622 0.950 . S
C627 C629 1.327 . S
C627 C633 1.429 . S
C628 C620 1.574 . S
C628 H623 0.949 . S
C628 C634 1.368 . S
C629 C613 1.349 . S
C629 H621 0.950 . S
C629 C627 1.327 . S
C630 C618 1.349 . S
C630 H624 0.950 . S
C630 C631 1.327 . S
C631 H625 0.950 . S
C631 C630 1.327 . S
C631 C635 1.429 . S
C632 C615 1.574 . S
C632 H626 0.949 . S
C632 C636 1.368 . S
C633 C614 1.429 . S
C633 C627 1.429 . S
C633 C634 1.523 . S
C634 C615 1.368 . S
C634 C628 1.368 . S
C634 C633 1.523 . S
C635 C619 1.429 . S
C635 C631 1.429 . S
C635 C636 1.523 . S
C636 C620 1.368 . S
C636 C632 1.368 . S
C636 C635 1.523 . S
H637 C612 0.950 . S
H638 C614 0.950 . S
H639 C615 0.949 . S
H640 C617 0.950 . S
H641 C619 0.950 . S
C642 C643 1.349 . S
C642 C644 1.327 . S
C642 H667 0.950 . S
C643 C642 1.349 . S
C643 C659 1.349 . S
C644 C642 1.327 . S
C644 C663 1.429 . S
C644 H668 0.950 . S
C645 C662 1.574 . S
C645 C664 1.368 . S
C645 H669 0.949 . S
H646 C650 0.949 . S
C647 C648 1.349 . S
C647 C649 1.327 . S
C647 H670 0.950 . S
C648 C647 1.349 . S
C648 C660 1.349 . S
C649 C647 1.327 . S
C649 C665 1.429 . S
C649 H671 0.950 . S
C650 H646 0.949 . S
C650 C658 1.574 . S
C650 C666 1.368 . S
H651 C659 0.950 . S
H652 C657 0.950 . S
H653 C658 0.949 . S
H654 C660 0.950 . S
H655 C661 0.950 . S
H656 C662 0.949 . S
C657 H652 0.950 . S
C657 C659 1.327 . S
C657 C663 1.429 . S
C658 C650 1.574 . S
C658 H653 0.949 . S
C658 C664 1.368 . S
C659 C643 1.349 . S
C659 H651 0.950 . S
C659 C657 1.327 . S
C660 C648 1.349 . S
C660 H654 0.950 . S
C660 C661 1.327 . S
C661 H655 0.950 . S
C661 C660 1.327 . S
C661 C665 1.429 . S
C662 C645 1.574 . S
C662 H656 0.949 . S
C662 C666 1.368 . S
C663 C644 1.429 . S
C663 C657 1.429 . S
C663 C664 1.523 . S
C664 C645 1.368 . S
C664 C658 1.368 . S
C664 C663 1.523 . S
C665 C649 1.429 . S
C665 C661 1.429 . S
C665 C666 1.523 . S
C666 C650 1.368 . S
C666 C662 1.368 . S
C666 C665 1.523 . S
H667 C642 0.950 . S
H668 C644 0.950 . S
H669 C645 0.949 . S
H670 C647 0.950 . S
H671 C649 0.950 . S
C672 C673 1.349 . S
C672 C674 1.327 . S
C672 H697 0.950 . S
C673 C672 1.349 . S
C673 C689 1.349 . S
C674 C672 1.327 . S
C674 C693 1.429 . S
C674 H698 0.950 . S
C675 C692 1.574 . S
C675 C694 1.368 . S
C675 H699 0.949 . S
H676 C680 0.949 . S
C677 C678 1.349 . S
C677 C679 1.327 . S
C677 H700 0.950 . S
C678 C677 1.349 . S
C678 C690 1.349 . S
C679 C677 1.327 . S
C679 C695 1.429 . S
C679 H701 0.950 . S
C680 H676 0.949 . S
C680 C688 1.574 . S
C680 C696 1.368 . S
H681 C689 0.950 . S
H682 C687 0.950 . S
H683 C688 0.949 . S
H684 C690 0.950 . S
H685 C691 0.950 . S
H686 C692 0.949 . S
C687 H682 0.950 . S
C687 C689 1.327 . S
C687 C693 1.429 . S
C688 C680 1.574 . S
C688 H683 0.949 . S
C688 C694 1.368 . S
C689 C673 1.349 . S
C689 H681 0.950 . S
C689 C687 1.327 . S
C690 C678 1.349 . S
C690 H684 0.950 . S
C690 C691 1.327 . S
C691 H685 0.950 . S
C691 C690 1.327 . S
C691 C695 1.429 . S
C692 C675 1.574 . S
C692 H686 0.949 . S
C692 C696 1.368 . S
C693 C674 1.429 . S
C693 C687 1.429 . S
C693 C694 1.523 . S
C694 C675 1.368 . S
C694 C688 1.368 . S
C694 C693 1.523 . S
C695 C679 1.429 . S
C695 C691 1.429 . S
C695 C696 1.523 . S
C696 C680 1.368 . S
C696 C692 1.368 . S
C696 C695 1.523 . S
H697 C672 0.950 . S
H698 C674 0.950 . S
H699 C675 0.949 . S
H700 C677 0.950 . S
H701 C679 0.950 . S
C702 C703 1.349 . S
C702 C704 1.327 . S
C702 H727 0.950 . S
C703 C702 1.349 . S
C703 C719 1.349 . S
C704 C702 1.327 . S
C704 C723 1.429 . S
C704 H728 0.950 . S
C705 C722 1.574 . S
C705 C724 1.368 . S
C705 H729 0.949 . S
H706 C710 0.949 . S
C707 C708 1.349 . S
C707 C709 1.327 . S
C707 H730 0.950 . S
C708 C707 1.349 . S
C708 C720 1.349 . S
C709 C707 1.327 . S
C709 C725 1.429 . S
C709 H731 0.950 . S
C710 H706 0.949 . S
C710 C718 1.574 . S
C710 C726 1.368 . S
H711 C719 0.950 . S
H712 C717 0.950 . S
H713 C718 0.949 . S
H714 C720 0.950 . S
H715 C721 0.950 . S
H716 C722 0.949 . S
C717 H712 0.950 . S
C717 C719 1.327 . S
C717 C723 1.429 . S
C718 C710 1.574 . S
C718 H713 0.949 . S
C718 C724 1.368 . S
C719 C703 1.349 . S
C719 H711 0.950 . S
C719 C717 1.327 . S
C720 C708 1.349 . S
C720 H714 0.950 . S
C720 C721 1.327 . S
C721 H715 0.950 . S
C721 C720 1.327 . S
C721 C725 1.429 . S
C722 C705 1.574 . S
C722 H716 0.949 . S
C722 C726 1.368 . S
C723 C704 1.429 . S
C723 C717 1.429 . S
C723 C724 1.523 . S
C724 C705 1.368 . S
C724 C718 1.368 . S
C724 C723 1.523 . S
C725 C709 1.429 . S
C725 C721 1.429 . S
C725 C726 1.523 . S
C726 C710 1.368 . S
C726 C722 1.368 . S
C726 C725 1.523 . S
H727 C702 0.950 . S
H728 C704 0.950 . S
H729 C705 0.949 . S
H730 C707 0.950 . S
H731 C709 0.950 . S
C732 C733 1.349 . S
C732 C734 1.327 . S
C732 H757 0.950 . S
C733 C732 1.349 . S
C733 C749 1.349 . S
C734 C732 1.327 . S
C734 C753 1.429 . S
C734 H758 0.950 . S
C735 C752 1.574 . S
C735 C754 1.368 . S
C735 H759 0.949 . S
H736 C740 0.949 . S
C737 C738 1.349 . S
C737 C739 1.327 . S
C737 H760 0.950 . S
C738 C737 1.349 . S
C738 C750 1.349 . S
C739 C737 1.327 . S
C739 C755 1.429 . S
C739 H761 0.950 . S
C740 H736 0.949 . S
C740 C748 1.574 . S
C740 C756 1.368 . S
H741 C749 0.950 . S
H742 C747 0.950 . S
H743 C748 0.949 . S
H744 C750 0.950 . S
H745 C751 0.950 . S
H746 C752 0.949 . S
C747 H742 0.950 . S
C747 C749 1.327 . S
C747 C753 1.429 . S
C748 C740 1.574 . S
C748 H743 0.949 . S
C748 C754 1.368 . S
C749 C733 1.349 . S
C749 H741 0.950 . S
C749 C747 1.327 . S
C750 C738 1.349 . S
C750 H744 0.950 . S
C750 C751 1.327 . S
C751 H745 0.950 . S
C751 C750 1.327 . S
C751 C755 1.429 . S
C752 C735 1.574 . S
C752 H746 0.949 . S
C752 C756 1.368 . S
C753 C734 1.429 . S
C753 C747 1.429 . S
C753 C754 1.523 . S
C754 C735 1.368 . S
C754 C748 1.368 . S
C754 C753 1.523 . S
C755 C739 1.429 . S
C755 C751 1.429 . S
C755 C756 1.523 . S
C756 C740 1.368 . S
C756 C752 1.368 . S
C756 C755 1.523 . S
H757 C732 0.950 . S
H758 C734 0.950 . S
H759 C735 0.949 . S
H760 C737 0.950 . S
H761 C739 0.950 . S
C762 C763 1.349 . S
C762 C764 1.327 . S
C762 H787 0.950 . S
C763 C762 1.349 . S
C763 C779 1.349 . S
C764 C762 1.327 . S
C764 C783 1.429 . S
C764 H788 0.950 . S
C765 C782 1.574 . S
C765 C784 1.368 . S
C765 H789 0.949 . S
H766 C770 0.949 . S
C767 C768 1.349 . S
C767 C769 1.327 . S
C767 H790 0.950 . S
C768 C767 1.349 . S
C768 C780 1.349 . S
C769 C767 1.327 . S
C769 C785 1.429 . S
C769 H791 0.950 . S
C770 H766 0.949 . S
C770 C778 1.574 . S
C770 C786 1.368 . S
H771 C779 0.950 . S
H772 C777 0.950 . S
H773 C778 0.949 . S
H774 C780 0.950 . S
H775 C781 0.950 . S
H776 C782 0.949 . S
C777 H772 0.950 . S
C777 C779 1.327 . S
C777 C783 1.429 . S
C778 C770 1.574 . S
C778 H773 0.949 . S
C778 C784 1.368 . S
C779 C763 1.349 . S
C779 H771 0.950 . S
C779 C777 1.327 . S
C780 C768 1.349 . S
C780 H774 0.950 . S
C780 C781 1.327 . S
C781 H775 0.950 . S
C781 C780 1.327 . S
C781 C785 1.429 . S
C782 C765 1.574 . S
C782 H776 0.949 . S
C782 C786 1.368 . S
C783 C764 1.429 . S
C783 C777 1.429 . S
C783 C784 1.523 . S
C784 C765 1.368 . S
C784 C778 1.368 . S
C784 C783 1.523 . S
C785 C769 1.429 . S
C785 C781 1.429 . S
C785 C786 1.523 . S
C786 C770 1.368 . S
C786 C782 1.368 . S
C786 C785 1.523 . S
H787 C762 0.950 . S
H788 C764 0.950 . S
H789 C765 0.949 . S
H790 C767 0.950 . S
H791 C769 0.950 . S
C792 C793 1.349 . S
C792 C794 1.327 . S
C792 H817 0.950 . S
C793 C792 1.349 . S
C793 C809 1.349 . S
C794 C792 1.327 . S
C794 C813 1.429 . S
C794 H818 0.950 . S
C795 C812 1.574 . S
C795 C814 1.368 . S
C795 H819 0.949 . S
H796 C800 0.949 . S
C797 C798 1.349 . S
C797 C799 1.327 . S
C797 H820 0.950 . S
C798 C797 1.349 . S
C798 C810 1.349 . S
C799 C797 1.327 . S
C799 C815 1.429 . S
C799 H821 0.950 . S
C800 H796 0.949 . S
C800 C808 1.574 . S
C800 C816 1.368 . S
H801 C809 0.950 . S
H802 C807 0.950 . S
H803 C808 0.949 . S
H804 C810 0.950 . S
H805 C811 0.950 . S
H806 C812 0.949 . S
C807 H802 0.950 . S
C807 C809 1.327 . S
C807 C813 1.429 . S
C808 C800 1.574 . S
C808 H803 0.949 . S
C808 C814 1.368 . S
C809 C793 1.349 . S
C809 H801 0.950 . S
C809 C807 1.327 . S
C810 C798 1.349 . S
C810 H804 0.950 . S
C810 C811 1.327 . S
C811 H805 0.950 . S
C811 C810 1.327 . S
C811 C815 1.429 . S
C812 C795 1.574 . S
C812 H806 0.949 . S
C812 C816 1.368 . S
C813 C794 1.429 . S
C813 C807 1.429 . S
C813 C814 1.523 . S
C814 C795 1.368 . S
C814 C808 1.368 . S
C814 C813 1.523 . S
C815 C799 1.429 . S
C815 C811 1.429 . S
C815 C816 1.523 . S
C816 C800 1.368 . S
C816 C812 1.368 . S
C816 C815 1.523 . S
H817 C792 0.950 . S
H818 C794 0.950 . S
H819 C795 0.949 . S
H820 C797 0.950 . S
H821 C799 0.950 . S
C822 C823 1.349 . S
C822 C824 1.327 . S
C822 H847 0.950 . S
C823 C822 1.349 . S
C823 C839 1.349 . S
C824 C822 1.327 . S
C824 C843 1.429 . S
C824 H848 0.950 . S
C825 C842 1.574 . S
C825 C844 1.368 . S
C825 H849 0.949 . S
H826 C830 0.949 . S
C827 C828 1.349 . S
C827 C829 1.327 . S
C827 H850 0.950 . S
C828 C827 1.349 . S
C828 C840 1.349 . S
C829 C827 1.327 . S
C829 C845 1.429 . S
C829 H851 0.950 . S
C830 H826 0.949 . S
C830 C838 1.574 . S
C830 C846 1.368 . S
H831 C839 0.950 . S
H832 C837 0.950 . S
H833 C838 0.949 . S
H834 C840 0.950 . S
H835 C841 0.950 . S
H836 C842 0.949 . S
C837 H832 0.950 . S
C837 C839 1.327 . S
C837 C843 1.429 . S
C838 C830 1.574 . S
C838 H833 0.949 . S
C838 C844 1.368 . S
C839 C823 1.349 . S
C839 H831 0.950 . S
C839 C837 1.327 . S
C840 C828 1.349 . S
C840 H834 0.950 . S
C840 C841 1.327 . S
C841 H835 0.950 . S
C841 C840 1.327 . S
C841 C845 1.429 . S
C842 C825 1.574 . S
C842 H836 0.949 . S
C842 C846 1.368 . S
C843 C824 1.429 . S
C843 C837 1.429 . S
C843 C844 1.523 . S
C844 C825 1.368 . S
C844 C838 1.368 . S
C844 C843 1.523 . S
C845 C829 1.429 . S
C845 C841 1.429 . S
C845 C846 1.523 . S
C846 C830 1.368 . S
C846 C842 1.368 . S
C846 C845 1.523 . S
H847 C822 0.950 . S
H848 C824 0.950 . S
H849 C825 0.949 . S
H850 C827 0.950 . S
H851 C829 0.950 . S
C852 C853 1.349 . S
C852 C854 1.327 . S
C852 H877 0.950 . S
C853 C852 1.349 . S
C853 C869 1.349 . S
C854 C852 1.327 . S
C854 C873 1.429 . S
C854 H878 0.950 . S
C855 C872 1.574 . S
C855 C874 1.368 . S
C855 H879 0.949 . S
H856 C860 0.949 . S
C857 C858 1.349 . S
C857 C859 1.327 . S
C857 H880 0.950 . S
C858 C857 1.349 . S
C858 C870 1.349 . S
C859 C857 1.327 . S
C859 C875 1.429 . S
C859 H881 0.950 . S
C860 H856 0.949 . S
C860 C868 1.574 . S
C860 C876 1.368 . S
H861 C869 0.950 . S
H862 C867 0.950 . S
H863 C868 0.949 . S
H864 C870 0.950 . S
H865 C871 0.950 . S
H866 C872 0.949 . S
C867 H862 0.950 . S
C867 C869 1.327 . S
C867 C873 1.429 . S
C868 C860 1.574 . S
C868 H863 0.949 . S
C868 C874 1.368 . S
C869 C853 1.349 . S
C869 H861 0.950 . S
C869 C867 1.327 . S
C870 C858 1.349 . S
C870 H864 0.950 . S
C870 C871 1.327 . S
C871 H865 0.950 . S
C871 C870 1.327 . S
C871 C875 1.429 . S
C872 C855 1.574 . S
C872 H866 0.949 . S
C872 C876 1.368 . S
C873 C854 1.429 . S
C873 C867 1.429 . S
C873 C874 1.523 . S
C874 C855 1.368 . S
C874 C868 1.368 . S
C874 C873 1.523 . S
C875 C859 1.429 . S
C875 C871 1.429 . S
C875 C876 1.523 . S
C876 C860 1.368 . S
C876 C872 1.368 . S
C876 C875 1.523 . S
H877 C852 0.950 . S
H878 C854 0.950 . S
H879 C855 0.949 . S
H880 C857 0.950 . S
H881 C859 0.950 . S
C882 C883 1.349 . S
C882 C884 1.327 . S
C882 H907 0.950 . S
C883 C882 1.349 . S
C883 C899 1.349 . S
C884 C882 1.327 . S
C884 C903 1.429 . S
C884 H908 0.950 . S
C885 C902 1.574 . S
C885 C904 1.368 . S
C885 H909 0.949 . S
H886 C890 0.949 . S
C887 C888 1.349 . S
C887 C889 1.327 . S
C887 H910 0.950 . S
C888 C887 1.349 . S
C888 C900 1.349 . S
C889 C887 1.327 . S
C889 C905 1.429 . S
C889 H911 0.950 . S
C890 H886 0.949 . S
C890 C898 1.574 . S
C890 C906 1.368 . S
H891 C899 0.950 . S
H892 C897 0.950 . S
H893 C898 0.949 . S
H894 C900 0.950 . S
H895 C901 0.950 . S
H896 C902 0.949 . S
C897 H892 0.950 . S
C897 C899 1.327 . S
C897 C903 1.429 . S
C898 C890 1.574 . S
C898 H893 0.949 . S
C898 C904 1.368 . S
C899 C883 1.349 . S
C899 H891 0.950 . S
C899 C897 1.327 . S
C900 C888 1.349 . S
C900 H894 0.950 . S
C900 C901 1.327 . S
C901 H895 0.950 . S
C901 C900 1.327 . S
C901 C905 1.429 . S
C902 C885 1.574 . S
C902 H896 0.949 . S
C902 C906 1.368 . S
C903 C884 1.429 . S
C903 C897 1.429 . S
C903 C904 1.523 . S
C904 C885 1.368 . S
C904 C898 1.368 . S
C904 C903 1.523 . S
C905 C889 1.429 . S
C905 C901 1.429 . S
C905 C906 1.523 . S
C906 C890 1.368 . S
C906 C902 1.368 . S
C906 C905 1.523 . S
H907 C882 0.950 . S
H908 C884 0.950 . S
H909 C885 0.949 . S
H910 C887 0.950 . S
H911 C889 0.950 . S
C912 C913 1.349 . S
C912 C914 1.327 . S
C912 H937 0.950 . S
C913 C912 1.349 . S
C913 C929 1.349 . S
C914 C912 1.327 . S
C914 C933 1.429 . S
C914 H938 0.950 . S
C915 C932 1.574 . S
C915 C934 1.368 . S
C915 H939 0.949 . S
H916 C920 0.949 . S
C917 C918 1.349 . S
C917 C919 1.327 . S
C917 H940 0.950 . S
C918 C917 1.349 . S
C918 C930 1.349 . S
C919 C917 1.327 . S
C919 C935 1.429 . S
C919 H941 0.950 . S
C920 H916 0.949 . S
C920 C928 1.574 . S
C920 C936 1.368 . S
H921 C929 0.950 . S
H922 C927 0.950 . S
H923 C928 0.949 . S
H924 C930 0.950 . S
H925 C931 0.950 . S
H926 C932 0.949 . S
C927 H922 0.950 . S
C927 C929 1.327 . S
C927 C933 1.429 . S
C928 C920 1.574 . S
C928 H923 0.949 . S
C928 C934 1.368 . S
C929 C913 1.349 . S
C929 H921 0.950 . S
C929 C927 1.327 . S
C930 C918 1.349 . S
C930 H924 0.950 . S
C930 C931 1.327 . S
C931 H925 0.950 . S
C931 C930 1.327 . S
C931 C935 1.429 . S
C932 C915 1.574 . S
C932 H926 0.949 . S
C932 C936 1.368 . S
C933 C914 1.429 . S
C933 C927 1.429 . S
C933 C934 1.523 . S
C934 C915 1.368 . S
C934 C928 1.368 . S
C934 C933 1.523 . S
C935 C919 1.429 . S
C935 C931 1.429 . S
C935 C936 1.523 . S
C936 C920 1.368 . S
C936 C932 1.368 . S
C936 C935 1.523 . S
H937 C912 0.950 . S
H938 C914 0.950 . S
H939 C915 0.949 . S
H940 C917 0.950 . S
H941 C919 0.950 . S
C942 C943 1.349 . S
C942 C944 1.327 . S
C942 H967 0.950 . S
C943 C942 1.349 . S
C943 C959 1.349 . S
C944 C942 1.327 . S
C944 C963 1.429 . S
C944 H968 0.950 . S
C945 C962 1.574 . S
C945 C964 1.368 . S
C945 H969 0.949 . S
H946 C950 0.949 . S
C947 C948 1.349 . S
C947 C949 1.327 . S
C947 H970 0.950 . S
C948 C947 1.349 . S
C948 C960 1.349 . S
C949 C947 1.327 . S
C949 C965 1.429 . S
C949 H971 0.950 . S
C950 H946 0.949 . S
C950 C958 1.574 . S
C950 C966 1.368 . S
H951 C959 0.950 . S
H952 C957 0.950 . S
H953 C958 0.949 . S
H954 C960 0.950 . S
H955 C961 0.950 . S
H956 C962 0.949 . S
C957 H952 0.950 . S
C957 C959 1.327 . S
C957 C963 1.429 . S
C958 C950 1.574 . S
C958 H953 0.949 . S
C958 C964 1.368 . S
C959 C943 1.349 . S
C959 H951 0.950 . S
C959 C957 1.327 . S
C960 C948 1.349 . S
C960 H954 0.950 . S
C960 C961 1.327 . S
C961 H955 0.950 . S
C961 C960 1.327 . S
C961 C965 1.429 . S
C962 C945 1.574 . S
C962 H956 0.949 . S
C962 C966 1.368 . S
C963 C944 1.429 . S
C963 C957 1.429 . S
C963 C964 1.523 . S
C964 C945 1.368 . S
C964 C958 1.368 . S
C964 C963 1.523 . S
C965 C949 1.429 . S
C965 C961 1.429 . S
C965 C966 1.523 . S
C966 C950 1.368 . S
C966 C962 1.368 . S
C966 C965 1.523 . S
H967 C942 0.950 . S
H968 C944 0.950 . S
H969 C945 0.949 . S
H970 C947 0.950 . S
H971 C949 0.950 . S
C972 C973 1.349 . S
C972 C974 1.327 . S
C972 H997 0.950 . S
C973 C972 1.349 . S
C973 C989 1.349 . S
C974 C972 1.327 . S
C974 C993 1.429 . S
C974 H998 0.950 . S
C975 C992 1.574 . S
C975 C994 1.368 . S
C975 H999 0.949 . S
H976 C980 0.949 . S
C977 C978 1.349 . S
C977 C979 1.327 . S
C977 H1000 0.950 . S
C978 C977 1.349 . S
C978 C990 1.349 . S
C979 C977 1.327 . S
C979 C995 1.429 . S
C979 H1001 0.950 . S
C980 H976 0.949 . S
C980 C988 1.574 . S
C980 C996 1.368 . S
H981 C989 0.950 . S
H982 C987 0.950 . S
H983 C988 0.949 . S
H984 C990 0.950 . S
H985 C991 0.950 . S
H986 C992 0.949 . S
C987 H982 0.950 . S
C987 C989 1.327 . S
C987 C993 1.429 . S
C988 C980 1.574 . S
C988 H983 0.949 . S
C988 C994 1.368 . S
C989 C973 1.349 . S
C989 H981 0.950 . S
C989 C987 1.327 . S
C990 C978 1.349 . S
C990 H984 0.950 . S
C990 C991 1.327 . S
C991 H985 0.950 . S
C991 C990 1.327 . S
C991 C995 1.429 . S
C992 C975 1.574 . S
C992 H986 0.949 . S
C992 C996 1.368 . S
C993 C974 1.429 . S
C993 C987 1.429 . S
C993 C994 1.523 . S
C994 C975 1.368 . S
C994 C988 1.368 . S
C994 C993 1.523 . S
C995 C979 1.429 . S
C995 C991 1.429 . S
C995 C996 1.523 . S
C996 C980 1.368 . S
C996 C992 1.368 . S
C996 C995 1.523 . S
H997 C972 0.950 . S
H998 C974 0.950 . S
H999 C975 0.949 . S
H1000 C977 0.950 . S
H1001 C979 0.950 . S
C1002 C1003 1.349 . S
C1002 C1004 1.327 . S
C1002 H1027 0.950 . S
C1003 C1002 1.349 . S
C1003 C1019 1.349 . S
C1004 C1002 1.327 . S
C1004 C1023 1.429 . S
C1004 H1028 0.950 . S
C1005 C1022 1.574 . S
C1005 C1024 1.368 . S
C1005 H1029 0.949 . S
H1006 C1010 0.949 . S
C1007 C1008 1.349 . S
C1007 C1009 1.327 . S
C1007 H1030 0.950 . S
C1008 C1007 1.349 . S
C1008 C1020 1.349 . S
C1009 C1007 1.327 . S
C1009 C1025 1.429 . S
C1009 H1031 0.950 . S
C1010 H1006 0.949 . S
C1010 C1018 1.574 . S
C1010 C1026 1.368 . S
H1011 C1019 0.950 . S
H1012 C1017 0.950 . S
H1013 C1018 0.949 . S
H1014 C1020 0.950 . S
H1015 C1021 0.950 . S
H1016 C1022 0.949 . S
C1017 H1012 0.950 . S
C1017 C1019 1.327 . S
C1017 C1023 1.429 . S
C1018 C1010 1.574 . S
C1018 H1013 0.949 . S
C1018 C1024 1.368 . S
C1019 C1003 1.349 . S
C1019 H1011 0.950 . S
C1019 C1017 1.327 . S
C1020 C1008 1.349 . S
C1020 H1014 0.950 . S
C1020 C1021 1.327 . S
C1021 H1015 0.950 . S
C1021 C1020 1.327 . S
C1021 C1025 1.429 . S
C1022 C1005 1.574 . S
C1022 H1016 0.949 . S
C1022 C1026 1.368 . S
C1023 C1004 1.429 . S
C1023 C1017 1.429 . S
C1023 C1024 1.523 . S
C1024 C1005 1.368 . S
C1024 C1018 1.368 . S
C1024 C1023 1.523 . S
C1025 C1009 1.429 . S
C1025 C1021 1.429 . S
C1025 C1026 1.523 . S
C1026 C1010 1.368 . S
C1026 C1022 1.368 . S
C1026 C1025 1.523 . S
H1027 C1002 0.950 . S
H1028 C1004 0.950 . S
H1029 C1005 0.949 . S
H1030 C1007 0.950 . S
H1031 C1009 0.950 . S
C1032 C1033 1.349 . S
C1032 C1034 1.327 . S
C1032 H1057 0.950 . S
C1033 C1032 1.349 . S
C1033 C1049 1.349 . S
C1034 C1032 1.327 . S
C1034 C1053 1.429 . S
C1034 H1058 0.950 . S
C1035 C1052 1.574 . S
C1035 C1054 1.368 . S
C1035 H1059 0.949 . S
H1036 C1040 0.949 . S
C1037 C1038 1.349 . S
C1037 C1039 1.327 . S
C1037 H1060 0.950 . S
C1038 C1037 1.349 . S
C1038 C1050 1.349 . S
C1039 C1037 1.327 . S
C1039 C1055 1.429 . S
C1039 H1061 0.950 . S
C1040 H1036 0.949 . S
C1040 C1048 1.574 . S
C1040 C1056 1.368 . S
H1041 C1049 0.950 . S
H1042 C1047 0.950 . S
H1043 C1048 0.949 . S
H1044 C1050 0.950 . S
H1045 C1051 0.950 . S
H1046 C1052 0.949 . S
C1047 H1042 0.950 . S
C1047 C1049 1.327 . S
C1047 C1053 1.429 . S
C1048 C1040 1.574 . S
C1048 H1043 0.949 . S
C1048 C1054 1.368 . S
C1049 C1033 1.349 . S
C1049 H1041 0.950 . S
C1049 C1047 1.327 . S
C1050 C1038 1.349 . S
C1050 H1044 0.950 . S
C1050 C1051 1.327 . S
C1051 H1045 0.950 . S
C1051 C1050 1.327 . S
C1051 C1055 1.429 . S
C1052 C1035 1.574 . S
C1052 H1046 0.949 . S
C1052 C1056 1.368 . S
C1053 C1034 1.429 . S
C1053 C1047 1.429 . S
C1053 C1054 1.523 . S
C1054 C1035 1.368 . S
C1054 C1048 1.368 . S
C1054 C1053 1.523 . S
C1055 C1039 1.429 . S
C1055 C1051 1.429 . S
C1055 C1056 1.523 . S
C1056 C1040 1.368 . S
C1056 C1052 1.368 . S
C1056 C1055 1.523 . S
H1057 C1032 0.950 . S
H1058 C1034 0.950 . S
H1059 C1035 0.949 . S
H1060 C1037 0.950 . S
H1061 C1039 0.950 . S
C1062 C1063 1.349 . S
C1062 C1064 1.327 . S
C1062 H1087 0.950 . S
C1063 C1062 1.349 . S
C1063 C1079 1.349 . S
C1064 C1062 1.327 . S
C1064 C1083 1.429 . S
C1064 H1088 0.950 . S
C1065 C1082 1.574 . S
C1065 C1084 1.368 . S
C1065 H1089 0.949 . S
H1066 C1070 0.949 . S
C1067 C1068 1.349 . S
C1067 C1069 1.327 . S
C1067 H1090 0.950 . S
C1068 C1067 1.349 . S
C1068 C1080 1.349 . S
C1069 C1067 1.327 . S
C1069 C1085 1.429 . S
C1069 H1091 0.950 . S
C1070 H1066 0.949 . S
C1070 C1078 1.574 . S
C1070 C1086 1.368 . S
H1071 C1079 0.950 . S
H1072 C1077 0.950 . S
H1073 C1078 0.949 . S
H1074 C1080 0.950 . S
H1075 C1081 0.950 . S
H1076 C1082 0.949 . S
C1077 H1072 0.950 . S
C1077 C1079 1.327 . S
C1077 C1083 1.429 . S
C1078 C1070 1.574 . S
C1078 H1073 0.949 . S
C1078 C1084 1.368 . S
C1079 C1063 1.349 . S
C1079 H1071 0.950 . S
C1079 C1077 1.327 . S
C1080 C1068 1.349 . S
C1080 H1074 0.950 . S
C1080 C1081 1.327 . S
C1081 H1075 0.950 . S
C1081 C1080 1.327 . S
C1081 C1085 1.429 . S
C1082 C1065 1.574 . S
C1082 H1076 0.949 . S
C1082 C1086 1.368 . S
C1083 C1064 1.429 . S
C1083 C1077 1.429 . S
C1083 C1084 1.523 . S
C1084 C1065 1.368 . S
C1084 C1078 1.368 . S
C1084 C1083 1.523 . S
C1085 C1069 1.429 . S
C1085 C1081 1.429 . S
C1085 C1086 1.523 . S
C1086 C1070 1.368 . S
C1086 C1082 1.368 . S
C1086 C1085 1.523 . S
H1087 C1062 0.950 . S
H1088 C1064 0.950 . S
H1089 C1065 0.949 . S
H1090 C1067 0.950 . S
H1091 C1069 0.950 . S
C1092 C1093 1.349 . S
C1092 C1094 1.327 . S
C1092 H1117 0.950 . S
C1093 C1092 1.349 . S
C1093 C1109 1.349 . S
C1094 C1092 1.327 . S
C1094 C1113 1.429 . S
C1094 H1118 0.950 . S
C1095 C1112 1.574 . S
C1095 C1114 1.368 . S
C1095 H1119 0.949 . S
H1096 C1100 0.949 . S
C1097 C1098 1.349 . S
C1097 C1099 1.327 . S
C1097 H1120 0.950 . S
C1098 C1097 1.349 . S
C1098 C1110 1.349 . S
C1099 C1097 1.327 . S
C1099 C1115 1.429 . S
C1099 H1121 0.950 . S
C1100 H1096 0.949 . S
C1100 C1108 1.574 . S
C1100 C1116 1.368 . S
H1101 C1109 0.950 . S
H1102 C1107 0.950 . S
H1103 C1108 0.949 . S
H1104 C1110 0.950 . S
H1105 C1111 0.950 . S
H1106 C1112 0.949 . S
C1107 H1102 0.950 . S
C1107 C1109 1.327 . S
C1107 C1113 1.429 . S
C1108 C1100 1.574 . S
C1108 H1103 0.949 . S
C1108 C1114 1.368 . S
C1109 C1093 1.349 . S
C1109 H1101 0.950 . S
C1109 C1107 1.327 . S
C1110 C1098 1.349 . S
C1110 H1104 0.950 . S
C1110 C1111 1.327 . S
C1111 H1105 0.950 . S
C1111 C1110 1.327 . S
C1111 C1115 1.429 . S
C1112 C1095 1.574 . S
C1112 H1106 0.949 . S
C1112 C1116 1.368 . S
C1113 C1094 1.429 . S
C1113 C1107 1.429 . S
C1113 C1114 1.523 . S
C1114 C1095 1.368 . S
C1114 C1108 1.368 . S
C1114 C1113 1.523 . S
C1115 C1099 1.429 . S
C1115 C1111 1.429 . S
C1115 C1116 1.523 . S
C1116 C1100 1.368 . S
C1116 C1112 1.368 . S
C1116 C1115 1.523 . S
H1117 C1092 0.950 . S
H1118 C1094 0.950 . S
H1119 C1095 0.949 . S
H1120 C1097 0.950 . S
H1121 C1099 0.950 . S
C1122 C1123 1.349 . S
C1122 C1124 1.327 . S
C1122 H1147 0.950 . S
C1123 C1122 1.349 . S
C1123 C1139 1.349 . S
C1124 C1122 1.327 . S
C1124 C1143 1.429 . S
C1124 H1148 0.950 . S
C1125 C1142 1.574 . S
C1125 C1144 1.368 . S
C1125 H1149 0.949 . S
H1126 C1130 0.949 . S
C1127 C1128 1.349 . S
C1127 C1129 1.327 . S
C1127 H1150 0.950 . S
C1128 C1127 1.349 . S
C1128 C1140 1.349 . S
C1129 C1127 1.327 . S
C1129 C1145 1.429 . S
C1129 H1151 0.950 . S
C1130 H1126 0.949 . S
C1130 C1138 1.574 . S
C1130 C1146 1.368 . S
H1131 C1139 0.950 . S
H1132 C1137 0.950 . S
H1133 C1138 0.949 . S
H1134 C1140 0.950 . S
H1135 C1141 0.950 . S
H1136 C1142 0.949 . S
C1137 H1132 0.950 . S
C1137 C1139 1.327 . S
C1137 C1143 1.429 . S
C1138 C1130 1.574 . S
C1138 H1133 0.949 . S
C1138 C1144 1.368 . S
C1139 C1123 1.349 . S
C1139 H1131 0.950 . S
C1139 C1137 1.327 . S
C1140 C1128 1.349 . S
C1140 H1134 0.950 . S
C1140 C1141 1.327 . S
C1141 H1135 0.950 . S
C1141 C1140 1.327 . S
C1141 C1145 1.429 . S
C1142 C1125 1.574 . S
C1142 H1136 0.949 . S
C1142 C1146 1.368 . S
C1143 C1124 1.429 . S
C1143 C1137 1.429 . S
C1143 C1144 1.523 . S
C1144 C1125 1.368 . S
C1144 C1138 1.368 . S
C1144 C1143 1.523 . S
C1145 C1129 1.429 . S
C1145 C1141 1.429 . S
C1145 C1146 1.523 . S
C1146 C1130 1.368 . S
C1146 C1142 1.368 . S
C1146 C1145 1.523 . S
H1147 C1122 0.950 . S
H1148 C1124 0.950 . S
H1149 C1125 0.949 . S
H1150 C1127 0.950 . S
H1151 C1129 0.950 . S
C1152 C1153 1.349 . S
C1152 C1154 1.327 . S
C1152 H1177 0.950 . S
C1153 C1152 1.349 . S
C1153 C1169 1.349 . S
C1154 C1152 1.327 . S
C1154 C1173 1.429 . S
C1154 H1178 0.950 . S
C1155 C1172 1.574 . S
C1155 C1174 1.368 . S
C1155 H1179 0.949 . S
H1156 C1160 0.949 . S
C1157 C1158 1.349 . S
C1157 C1159 1.327 . S
C1157 H1180 0.950 . S
C1158 C1157 1.349 . S
C1158 C1170 1.349 . S
C1159 C1157 1.327 . S
C1159 C1175 1.429 . S
C1159 H1181 0.950 . S
C1160 H1156 0.949 . S
C1160 C1168 1.574 . S
C1160 C1176 1.368 . S
H1161 C1169 0.950 . S
H1162 C1167 0.950 . S
H1163 C1168 0.949 . S
H1164 C1170 0.950 . S
H1165 C1171 0.950 . S
H1166 C1172 0.949 . S
C1167 H1162 0.950 . S
C1167 C1169 1.327 . S
C1167 C1173 1.429 . S
C1168 C1160 1.574 . S
C1168 H1163 0.949 . S
C1168 C1174 1.368 . S
C1169 C1153 1.349 . S
C1169 H1161 0.950 . S
C1169 C1167 1.327 . S
C1170 C1158 1.349 . S
C1170 H1164 0.950 . S
C1170 C1171 1.327 . S
C1171 H1165 0.950 . S
C1171 C1170 1.327 . S
C1171 C1175 1.429 . S
C1172 C1155 1.574 . S
C1172 H1166 0.949 . S
C1172 C1176 1.368 . S
C1173 C1154 1.429 . S
C1173 C1167 1.429 . S
C1173 C1174 1.523 . S
C1174 C1155 1.368 . S
C1174 C1168 1.368 . S
C1174 C1173 1.523 . S
C1175 C1159 1.429 . S
C1175 C1171 1.429 . S
C1175 C1176 1.523 . S
C1176 C1160 1.368 . S
C1176 C1172 1.368 . S
C1176 C1175 1.523 . S
H1177 C1152 0.950 . S
H1178 C1154 0.950 . S
H1179 C1155 0.949 . S
H1180 C1157 0.950 . S
H1181 C1159 0.950 . S
C1182 C1183 1.349 . S
C1182 C1184 1.327 . S
C1182 H1207 0.950 . S
C1183 C1182 1.349 . S
C1183 C1199 1.349 . S
C1184 C1182 1.327 . S
C1184 C1203 1.429 . S
C1184 H1208 0.950 . S
C1185 C1202 1.574 . S
C1185 C1204 1.368 . S
C1185 H1209 0.949 . S
H1186 C1190 0.949 . S
C1187 C1188 1.349 . S
C1187 C1189 1.327 . S
C1187 H1210 0.950 . S
C1188 C1187 1.349 . S
C1188 C1200 1.349 . S
C1189 C1187 1.327 . S
C1189 C1205 1.429 . S
C1189 H1211 0.950 . S
C1190 H1186 0.949 . S
C1190 C1198 1.574 . S
C1190 C1206 1.368 . S
H1191 C1199 0.950 . S
H1192 C1197 0.950 . S
H1193 C1198 0.949 . S
H1194 C1200 0.950 . S
H1195 C1201 0.950 . S
H1196 C1202 0.949 . S
C1197 H1192 0.950 . S
C1197 C1199 1.327 . S
C1197 C1203 1.429 . S
C1198 C1190 1.574 . S
C1198 H1193 0.949 . S
C1198 C1204 1.368 . S
C1199 C1183 1.349 . S
C1199 H1191 0.950 . S
C1199 C1197 1.327 . S
C1200 C1188 1.349 . S
C1200 H1194 0.950 . S
C1200 C1201 1.327 . S
C1201 H1195 0.950 . S
C1201 C1200 1.327 . S
C1201 C1205 1.429 . S
C1202 C1185 1.574 . S
C1202 H1196 0.949 . S
C1202 C1206 1.368 . S
C1203 C1184 1.429 . S
C1203 C1197 1.429 . S
C1203 C1204 1.523 . S
C1204 C1185 1.368 . S
C1204 C1198 1.368 . S
C1204 C1203 1.523 . S
C1205 C1189 1.429 . S
C1205 C1201 1.429 . S
C1205 C1206 1.523 . S
C1206 C1190 1.368 . S
C1206 C1202 1.368 . S
C1206 C1205 1.523 . S
H1207 C1182 0.950 . S
H1208 C1184 0.950 . S
H1209 C1185 0.949 . S
H1210 C1187 0.950 . S
H1211 C1189 0.950 . S
C1212 C1213 1.349 . S
C1212 C1214 1.327 . S
C1212 H1237 0.950 . S
C1213 C1212 1.349 . S
C1213 C1229 1.349 . S
C1214 C1212 1.327 . S
C1214 C1233 1.429 . S
C1214 H1238 0.950 . S
C1215 C1232 1.574 . S
C1215 C1234 1.368 . S
C1215 H1239 0.949 . S
H1216 C1220 0.949 . S
C1217 C1218 1.349 . S
C1217 C1219 1.327 . S
C1217 H1240 0.950 . S
C1218 C1217 1.349 . S
C1218 C1230 1.349 . S
C1219 C1217 1.327 . S
C1219 C1235 1.429 . S
C1219 H1241 0.950 . S
C1220 H1216 0.949 . S
C1220 C1228 1.574 . S
C1220 C1236 1.368 . S
H1221 C1229 0.950 . S
H1222 C1227 0.950 . S
H1223 C1228 0.949 . S
H1224 C1230 0.950 . S
H1225 C1231 0.950 . S
H1226 C1232 0.949 . S
C1227 H1222 0.950 . S
C1227 C1229 1.327 . S
C1227 C1233 1.429 . S
C1228 C1220 1.574 . S
C1228 H1223 0.949 . S
C1228 C1234 1.368 . S
C1229 C1213 1.349 . S
C1229 H1221 0.950 . S
C1229 C1227 1.327 . S
C1230 C1218 1.349 . S
C1230 H1224 0.950 . S
C1230 C1231 1.327 . S
C1231 H1225 0.950 . S
C1231 C1230 1.327 . S
C1231 C1235 1.429 . S
C1232 C1215 1.574 . S
C1232 H1226 0.949 . S
C1232 C1236 1.368 . S
C1233 C1214 1.429 . S
C1233 C1227 1.429 . S
C1233 C1234 1.523 . S
C1234 C1215 1.368 . S
C1234 C1228 1.368 . S
C1234 C1233 1.523 . S
C1235 C1219 1.429 . S
C1235 C1231 1.429 . S
C1235 C1236 1.523 . S
C1236 C1220 1.368 . S
C1236 C1232 1.368 . S
C1236 C1235 1.523 . S
H1237 C1212 0.950 . S
H1238 C1214 0.950 . S
H1239 C1215 0.949 . S
H1240 C1217 0.950 . S
H1241 C1219 0.950 . S
C1242 C1243 1.349 . S
C1242 C1244 1.327 . S
C1242 H1267 0.950 . S
C1243 C1242 1.349 . S
C1243 C1259 1.349 . S
C1244 C1242 1.327 . S
C1244 C1263 1.429 . S
C1244 H1268 0.950 . S
C1245 C1262 1.574 . S
C1245 C1264 1.368 . S
C1245 H1269 0.949 . S
H1246 C1250 0.949 . S
C1247 C1248 1.349 . S
C1247 C1249 1.327 . S
C1247 H1270 0.950 . S
C1248 C1247 1.349 . S
C1248 C1260 1.349 . S
C1249 C1247 1.327 . S
C1249 C1265 1.429 . S
C1249 H1271 0.950 . S
C1250 H1246 0.949 . S
C1250 C1258 1.574 . S
C1250 C1266 1.368 . S
H1251 C1259 0.950 . S
H1252 C1257 0.950 . S
H1253 C1258 0.949 . S
H1254 C1260 0.950 . S
H1255 C1261 0.950 . S
H1256 C1262 0.949 . S
C1257 H1252 0.950 . S
C1257 C1259 1.327 . S
C1257 C1263 1.429 . S
C1258 C1250 1.574 . S
C1258 H1253 0.949 . S
C1258 C1264 1.368 . S
C1259 C1243 1.349 . S
C1259 H1251 0.950 . S
C1259 C1257 1.327 . S
C1260 C1248 1.349 . S
C1260 H1254 0.950 . S
C1260 C1261 1.327 . S
C1261 H1255 0.950 . S
C1261 C1260 1.327 . S
C1261 C1265 1.429 . S
C1262 C1245 1.574 . S
C1262 H1256 0.949 . S
C1262 C1266 1.368 . S
C1263 C1244 1.429 . S
C1263 C1257 1.429 . S
C1263 C1264 1.523 . S
C1264 C1245 1.368 . S
C1264 C1258 1.368 . S
C1264 C1263 1.523 . S
C1265 C1249 1.429 . S
C1265 C1261 1.429 . S
C1265 C1266 1.523 . S
C1266 C1250 1.368 . S
C1266 C1262 1.368 . S
C1266 C1265 1.523 . S
H1267 C1242 0.950 . S
H1268 C1244 0.950 . S
H1269 C1245 0.949 . S
H1270 C1247 0.950 . S
H1271 C1249 0.950 . S
C1272 C1273 1.349 . S
C1272 C1274 1.327 . S
C1272 H1297 0.950 . S
C1273 C1272 1.349 . S
C1273 C1289 1.349 . S
C1274 C1272 1.327 . S
C1274 C1293 1.429 . S
C1274 H1298 0.950 . S
C1275 C1292 1.574 . S
C1275 C1294 1.368 . S
C1275 H1299 0.949 . S
H1276 C1280 0.949 . S
C1277 C1278 1.349 . S
C1277 C1279 1.327 . S
C1277 H1300 0.950 . S
C1278 C1277 1.349 . S
C1278 C1290 1.349 . S
C1279 C1277 1.327 . S
C1279 C1295 1.429 . S
C1279 H1301 0.950 . S
C1280 H1276 0.949 . S
C1280 C1288 1.574 . S
C1280 C1296 1.368 . S
H1281 C1289 0.950 . S
H1282 C1287 0.950 . S
H1283 C1288 0.949 . S
H1284 C1290 0.950 . S
H1285 C1291 0.950 . S
H1286 C1292 0.949 . S
C1287 H1282 0.950 . S
C1287 C1289 1.327 . S
C1287 C1293 1.429 . S
C1288 C1280 1.574 . S
C1288 H1283 0.949 . S
C1288 C1294 1.368 . S
C1289 C1273 1.349 . S
C1289 H1281 0.950 . S
C1289 C1287 1.327 . S
C1290 C1278 1.349 . S
C1290 H1284 0.950 . S
C1290 C1291 1.327 . S
C1291 H1285 0.950 . S
C1291 C1290 1.327 . S
C1291 C1295 1.429 . S
C1292 C1275 1.574 . S
C1292 H1286 0.949 . S
C1292 C1296 1.368 . S
C1293 C1274 1.429 . S
C1293 C1287 1.429 . S
C1293 C1294 1.523 . S
C1294 C1275 1.368 . S
C1294 C1288 1.368 . S
C1294 C1293 1.523 . S
C1295 C1279 1.429 . S
C1295 C1291 1.429 . S
C1295 C1296 1.523 . S
C1296 C1280 1.368 . S
C1296 C1292 1.368 . S
C1296 C1295 1.523 . S
H1297 C1272 0.950 . S
H1298 C1274 0.950 . S
H1299 C1275 0.949 . S
H1300 C1277 0.950 . S
H1301 C1279 0.950 . S
C1302 C1303 1.349 . S
C1302 C1304 1.327 . S
C1302 H1327 0.950 . S
C1303 C1302 1.349 . S
C1303 C1319 1.349 . S
C1304 C1302 1.327 . S
C1304 C1323 1.429 . S
C1304 H1328 0.950 . S
C1305 C1322 1.574 . S
C1305 C1324 1.368 . S
C1305 H1329 0.949 . S
H1306 C1310 0.949 . S
C1307 C1308 1.349 . S
C1307 C1309 1.327 . S
C1307 H1330 0.950 . S
C1308 C1307 1.349 . S
C1308 C1320 1.349 . S
C1309 C1307 1.327 . S
C1309 C1325 1.429 . S
C1309 H1331 0.950 . S
C1310 H1306 0.949 . S
C1310 C1318 1.574 . S
C1310 C1326 1.368 . S
H1311 C1319 0.950 . S
H1312 C1317 0.950 . S
H1313 C1318 0.949 . S
H1314 C1320 0.950 . S
H1315 C1321 0.950 . S
H1316 C1322 0.949 . S
C1317 H1312 0.950 . S
C1317 C1319 1.327 . S
C1317 C1323 1.429 . S
C1318 C1310 1.574 . S
C1318 H1313 0.949 . S
C1318 C1324 1.368 . S
C1319 C1303 1.349 . S
C1319 H1311 0.950 . S
C1319 C1317 1.327 . S
C1320 C1308 1.349 . S
C1320 H1314 0.950 . S
C1320 C1321 1.327 . S
C1321 H1315 0.950 . S
C1321 C1320 1.327 . S
C1321 C1325 1.429 . S
C1322 C1305 1.574 . S
C1322 H1316 0.949 . S
C1322 C1326 1.368 . S
C1323 C1304 1.429 . S
C1323 C1317 1.429 . S
C1323 C1324 1.523 1_554 S
C1324 C1305 1.368 . S
C1324 C1318 1.368 . S
C1324 C1323 1.523 1_556 S
C1325 C1309 1.429 . S
C1325 C1321 1.429 . S
C1325 C1326 1.523 . S
C1326 C1310 1.368 . S
C1326 C1322 1.368 . S
C1326 C1325 1.523 . S
H1327 C1302 0.950 . S
H1328 C1304 0.950 . S
H1329 C1305 0.949 . S
H1330 C1307 0.950 . S
H1331 C1309 0.950 . S
C1332 C1333 1.349 . S
C1332 C1334 1.327 . S
C1332 H1357 0.950 . S
C1333 C1332 1.349 . S
C1333 C1349 1.349 . S
C1334 C1332 1.327 . S
C1334 C1353 1.429 . S
C1334 H1358 0.950 . S
C1335 C1352 1.574 . S
C1335 C1354 1.368 . S
C1335 H1359 0.949 . S
H1336 C1340 0.949 . S
C1337 C1338 1.349 . S
C1337 C1339 1.327 . S
C1337 H1360 0.950 . S
C1338 C1337 1.349 . S
C1338 C1350 1.349 . S
C1339 C1337 1.327 . S
C1339 C1355 1.429 . S
C1339 H1361 0.950 . S
C1340 H1336 0.949 . S
C1340 C1348 1.574 . S
C1340 C1356 1.368 . S
H1341 C1349 0.950 . S
H1342 C1347 0.950 . S
H1343 C1348 0.949 . S
H1344 C1350 0.950 . S
H1345 C1351 0.950 . S
H1346 C1352 0.949 . S
C1347 H1342 0.950 . S
C1347 C1349 1.327 . S
C1347 C1353 1.429 . S
C1348 C1340 1.574 . S
C1348 H1343 0.949 . S
C1348 C1354 1.368 . S
C1349 C1333 1.349 . S
C1349 H1341 0.950 . S
C1349 C1347 1.327 . S
C1350 C1338 1.349 . S
C1350 H1344 0.950 . S
C1350 C1351 1.327 . S
C1351 H1345 0.950 . S
C1351 C1350 1.327 . S
C1351 C1355 1.429 . S
C1352 C1335 1.574 . S
C1352 H1346 0.949 . S
C1352 C1356 1.368 . S
C1353 C1334 1.429 . S
C1353 C1347 1.429 . S
C1353 C1354 1.523 . S
C1354 C1335 1.368 . S
C1354 C1348 1.368 . S
C1354 C1353 1.523 . S
C1355 C1339 1.429 . S
C1355 C1351 1.429 . S
C1355 C1356 1.523 . S
C1356 C1340 1.368 . S
C1356 C1352 1.368 . S
C1356 C1355 1.523 . S
H1357 C1332 0.950 . S
H1358 C1334 0.950 . S
H1359 C1335 0.949 . S
H1360 C1337 0.950 . S
H1361 C1339 0.950 . S
C1362 C1363 1.349 . S
C1362 C1364 1.327 . S
C1362 H1387 0.950 . S
C1363 C1362 1.349 . S
C1363 C1379 1.349 . S
C1364 C1362 1.327 . S
C1364 C1383 1.429 . S
C1364 H1388 0.950 . S
C1365 C1382 1.574 . S
C1365 C1384 1.368 . S
C1365 H1389 0.949 . S
H1366 C1370 0.949 . S
C1367 C1368 1.349 . S
C1367 C1369 1.327 . S
C1367 H1390 0.950 . S
C1368 C1367 1.349 . S
C1368 C1380 1.349 . S
C1369 C1367 1.327 . S
C1369 C1385 1.429 . S
C1369 H1391 0.950 . S
C1370 H1366 0.949 . S
C1370 C1378 1.574 . S
C1370 C1386 1.368 . S
H1371 C1379 0.950 . S
H1372 C1377 0.950 . S
H1373 C1378 0.949 . S
H1374 C1380 0.950 . S
H1375 C1381 0.950 . S
H1376 C1382 0.949 . S
C1377 H1372 0.950 . S
C1377 C1379 1.327 . S
C1377 C1383 1.429 . S
C1378 C1370 1.574 . S
C1378 H1373 0.949 . S
C1378 C1384 1.368 . S
C1379 C1363 1.349 . S
C1379 H1371 0.950 . S
C1379 C1377 1.327 . S
C1380 C1368 1.349 . S
C1380 H1374 0.950 . S
C1380 C1381 1.327 . S
C1381 H1375 0.950 . S
C1381 C1380 1.327 . S
C1381 C1385 1.429 . S
C1382 C1365 1.574 . S
C1382 H1376 0.949 . S
C1382 C1386 1.368 . S
C1383 C1364 1.429 . S
C1383 C1377 1.429 . S
C1383 C1384 1.523 . S
C1384 C1365 1.368 . S
C1384 C1378 1.368 . S
C1384 C1383 1.523 . S
C1385 C1369 1.429 . S
C1385 C1381 1.429 . S
C1385 C1386 1.523 1_556 S
C1386 C1370 1.368 . S
C1386 C1382 1.368 . S
C1386 C1385 1.523 1_554 S
H1387 C1362 0.950 . S
H1388 C1364 0.950 . S
H1389 C1365 0.949 . S
H1390 C1367 0.950 . S
H1391 C1369 0.950 . S
C1392 C1393 1.349 . S
C1392 C1394 1.327 . S
C1392 H1417 0.950 . S
C1393 C1392 1.349 . S
C1393 C1409 1.349 . S
C1394 C1392 1.327 . S
C1394 C1413 1.429 . S
C1394 H1418 0.950 . S
C1395 C1412 1.574 . S
C1395 C1414 1.368 . S
C1395 H1419 0.949 . S
H1396 C1400 0.949 . S
C1397 C1398 1.349 . S
C1397 C1399 1.327 . S
C1397 H1420 0.950 . S
C1398 C1397 1.349 . S
C1398 C1410 1.349 . S
C1399 C1397 1.327 . S
C1399 C1415 1.429 . S
C1399 H1421 0.950 . S
C1400 H1396 0.949 . S
C1400 C1408 1.574 . S
C1400 C1416 1.368 . S
H1401 C1409 0.950 . S
H1402 C1407 0.950 . S
H1403 C1408 0.949 . S
H1404 C1410 0.950 . S
H1405 C1411 0.950 . S
H1406 C1412 0.949 . S
C1407 H1402 0.950 . S
C1407 C1409 1.327 . S
C1407 C1413 1.429 . S
C1408 C1400 1.574 . S
C1408 H1403 0.949 . S
C1408 C1414 1.368 . S
C1409 C1393 1.349 . S
C1409 H1401 0.950 . S
C1409 C1407 1.327 . S
C1410 C1398 1.349 . S
C1410 H1404 0.950 . S
C1410 C1411 1.327 . S
C1411 H1405 0.950 . S
C1411 C1410 1.327 . S
C1411 C1415 1.429 . S
C1412 C1395 1.574 . S
C1412 H1406 0.949 . S
C1412 C1416 1.368 . S
C1413 C1394 1.429 . S
C1413 C1407 1.429 . S
C1413 C1414 1.523 . S
C1414 C1395 1.368 . S
C1414 C1408 1.368 . S
C1414 C1413 1.523 . S
C1415 C1399 1.429 . S
C1415 C1411 1.429 . S
C1415 C1416 1.523 . S
C1416 C1400 1.368 . S
C1416 C1412 1.368 . S
C1416 C1415 1.523 . S
H1417 C1392 0.950 . S
H1418 C1394 0.950 . S
H1419 C1395 0.949 . S
H1420 C1397 0.950 . S
H1421 C1399 0.950 . S
C1422 C1423 1.349 . S
C1422 C1424 1.327 . S
C1422 H1447 0.950 . S
C1423 C1422 1.349 . S
C1423 C1439 1.349 . S
C1424 C1422 1.327 . S
C1424 C1443 1.429 1_655 S
C1424 H1448 0.950 . S
C1425 C1442 1.574 . S
C1425 C1444 1.368 . S
C1425 H1449 0.949 . S
H1426 C1430 0.949 . S
C1427 C1428 1.349 . S
C1427 C1429 1.327 . S
C1427 H1450 0.950 . S
C1428 C1427 1.349 . S
C1428 C1440 1.349 . S
C1429 C1427 1.327 . S
C1429 C1445 1.429 . S
C1429 H1451 0.950 . S
C1430 H1426 0.949 . S
C1430 C1438 1.574 . S
C1430 C1446 1.368 . S
H1431 C1439 0.950 . S
H1432 C1437 0.950 1_455 S
H1433 C1438 0.949 . S
H1434 C1440 0.950 . S
H1435 C1441 0.950 . S
H1436 C1442 0.949 . S
C1437 H1432 0.950 1_655 S
C1437 C1439 1.327 . S
C1437 C1443 1.429 1_655 S
C1438 C1430 1.574 . S
C1438 H1433 0.949 . S
C1438 C1444 1.368 . S
C1439 C1423 1.349 . S
C1439 H1431 0.950 . S
C1439 C1437 1.327 . S
C1440 C1428 1.349 . S
C1440 H1434 0.950 . S
C1440 C1441 1.327 . S
C1441 H1435 0.950 . S
C1441 C1440 1.327 . S
C1441 C1445 1.429 . S
C1442 C1425 1.574 . S
C1442 H1436 0.949 . S
C1442 C1446 1.368 . S
C1443 C1424 1.429 1_455 S
C1443 C1437 1.429 1_455 S
C1443 C1444 1.523 . S
C1444 C1425 1.368 . S
C1444 C1438 1.368 . S
C1444 C1443 1.523 . S
C1445 C1429 1.429 . S
C1445 C1441 1.429 . S
C1445 C1446 1.523 . S
C1446 C1430 1.368 . S
C1446 C1442 1.368 . S
C1446 C1445 1.523 . S
H1447 C1422 0.950 . S
H1448 C1424 0.950 . S
H1449 C1425 0.949 . S
H1450 C1427 0.950 . S
H1451 C1429 0.950 . S
C1452 C1453 1.349 . S
C1452 C1454 1.327 . S
C1452 H1477 0.950 . S
C1453 C1452 1.349 . S
C1453 C1469 1.349 . S
C1454 C1452 1.327 . S
C1454 C1473 1.429 1_455 S
C1454 H1478 0.950 . S
C1455 C1472 1.574 . S
C1455 C1474 1.368 . S
C1455 H1479 0.949 . S
H1456 C1460 0.949 . S
C1457 C1458 1.349 . S
C1457 C1459 1.327 . S
C1457 H1480 0.950 . S
C1458 C1457 1.349 . S
C1458 C1470 1.349 . S
C1459 C1457 1.327 . S
C1459 C1475 1.429 . S
C1459 H1481 0.950 . S
C1460 H1456 0.949 . S
C1460 C1468 1.574 . S
C1460 C1476 1.368 . S
H1461 C1469 0.950 . S
H1462 C1467 0.950 1_655 S
H1463 C1468 0.949 . S
H1464 C1470 0.950 . S
H1465 C1471 0.950 . S
H1466 C1472 0.949 . S
C1467 H1462 0.950 1_455 S
C1467 C1469 1.327 . S
C1467 C1473 1.429 1_455 S
C1468 C1460 1.574 . S
C1468 H1463 0.949 . S
C1468 C1474 1.368 . S
C1469 C1453 1.349 . S
C1469 H1461 0.950 . S
C1469 C1467 1.327 . S
C1470 C1458 1.349 . S
C1470 H1464 0.950 . S
C1470 C1471 1.327 . S
C1471 H1465 0.950 . S
C1471 C1470 1.327 . S
C1471 C1475 1.429 . S
C1472 C1455 1.574 . S
C1472 H1466 0.949 . S
C1472 C1476 1.368 . S
C1473 C1454 1.429 1_655 S
C1473 C1467 1.429 1_655 S
C1473 C1474 1.523 . S
C1474 C1455 1.368 . S
C1474 C1468 1.368 . S
C1474 C1473 1.523 . S
C1475 C1459 1.429 . S
C1475 C1471 1.429 . S
C1475 C1476 1.523 . S
C1476 C1460 1.368 . S
C1476 C1472 1.368 . S
C1476 C1475 1.523 . S
H1477 C1452 0.950 . S
H1478 C1454 0.950 . S
H1479 C1455 0.949 . S
H1480 C1457 0.950 . S
H1481 C1459 0.950 . S
C1482 C1483 1.349 . S
C1482 C1484 1.327 . S
C1482 H1507 0.950 . S
C1483 C1482 1.349 . S
C1483 C1499 1.349 . S
C1484 C1482 1.327 . S
C1484 C1503 1.429 . S
C1484 H1508 0.950 . S
C1485 C1502 1.574 . S
C1485 C1504 1.368 . S
C1485 H1509 0.949 . S
H1486 C1490 0.949 . S
C1487 C1488 1.349 . S
C1487 C1489 1.327 . S
C1487 H1510 0.950 . S
C1488 C1487 1.349 . S
C1488 C1500 1.349 . S
C1489 C1487 1.327 . S
C1489 C1505 1.429 . S
C1489 H1511 0.950 . S
C1490 H1486 0.949 . S
C1490 C1498 1.574 . S
C1490 C1506 1.368 . S
H1491 C1499 0.950 . S
H1492 C1497 0.950 . S
H1493 C1498 0.949 . S
H1494 C1500 0.950 . S
H1495 C1501 0.950 . S
H1496 C1502 0.949 . S
C1497 H1492 0.950 . S
C1497 C1499 1.327 . S
C1497 C1503 1.429 . S
C1498 C1490 1.574 . S
C1498 H1493 0.949 . S
C1498 C1504 1.368 . S
C1499 C1483 1.349 . S
C1499 H1491 0.950 . S
C1499 C1497 1.327 . S
C1500 C1488 1.349 . S
C1500 H1494 0.950 . S
C1500 C1501 1.327 . S
C1501 H1495 0.950 . S
C1501 C1500 1.327 . S
C1501 C1505 1.429 . S
C1502 C1485 1.574 . S
C1502 H1496 0.949 . S
C1502 C1506 1.368 . S
C1503 C1484 1.429 . S
C1503 C1497 1.429 . S
C1503 C1504 1.523 . S
C1504 C1485 1.368 . S
C1504 C1498 1.368 . S
C1504 C1503 1.523 . S
C1505 C1489 1.429 . S
C1505 C1501 1.429 . S
C1505 C1506 1.523 . S
C1506 C1490 1.368 . S
C1506 C1502 1.368 . S
C1506 C1505 1.523 . S
H1507 C1482 0.950 . S
H1508 C1484 0.950 . S
H1509 C1485 0.949 . S
H1510 C1487 0.950 . S
H1511 C1489 0.950 . S
C1512 C1513 1.349 . S
C1512 C1514 1.327 . S
C1512 H1537 0.950 . S
C1513 C1512 1.349 . S
C1513 C1529 1.349 . S
C1514 C1512 1.327 . S
C1514 C1533 1.429 . S
C1514 H1538 0.950 . S
C1515 C1532 1.574 . S
C1515 C1534 1.368 . S
C1515 H1539 0.949 . S
H1516 C1520 0.949 . S
C1517 C1518 1.349 . S
C1517 C1519 1.327 . S
C1517 H1540 0.950 . S
C1518 C1517 1.349 . S
C1518 C1530 1.349 . S
C1519 C1517 1.327 . S
C1519 C1535 1.429 . S
C1519 H1541 0.950 . S
C1520 H1516 0.949 . S
C1520 C1528 1.574 . S
C1520 C1536 1.368 . S
H1521 C1529 0.950 . S
H1522 C1527 0.950 . S
H1523 C1528 0.949 . S
H1524 C1530 0.950 . S
H1525 C1531 0.950 . S
H1526 C1532 0.949 . S
C1527 H1522 0.950 . S
C1527 C1529 1.327 . S
C1527 C1533 1.429 . S
C1528 C1520 1.574 . S
C1528 H1523 0.949 . S
C1528 C1534 1.368 . S
C1529 C1513 1.349 . S
C1529 H1521 0.950 . S
C1529 C1527 1.327 . S
C1530 C1518 1.349 . S
C1530 H1524 0.950 . S
C1530 C1531 1.327 . S
C1531 H1525 0.950 . S
C1531 C1530 1.327 . S
C1531 C1535 1.429 . S
C1532 C1515 1.574 . S
C1532 H1526 0.949 . S
C1532 C1536 1.368 . S
C1533 C1514 1.429 . S
C1533 C1527 1.429 . S
C1533 C1534 1.523 . S
C1534 C1515 1.368 . S
C1534 C1528 1.368 . S
C1534 C1533 1.523 . S
C1535 C1519 1.429 . S
C1535 C1531 1.429 . S
C1535 C1536 1.523 . S
C1536 C1520 1.368 . S
C1536 C1532 1.368 . S
C1536 C1535 1.523 . S
H1537 C1512 0.950 . S
H1538 C1514 0.950 . S
H1539 C1515 0.949 . S
H1540 C1517 0.950 . S
H1541 C1519 0.950 . S
C1542 C1543 1.349 . S
C1542 C1544 1.327 . S
C1542 H1567 0.950 . S
C1543 C1542 1.349 . S
C1543 C1559 1.349 . S
C1544 C1542 1.327 . S
C1544 C1563 1.429 . S
C1544 H1568 0.950 . S
C1545 C1562 1.574 . S
C1545 C1564 1.368 . S
C1545 H1569 0.949 . S
H1546 C1550 0.949 . S
C1547 C1548 1.349 . S
C1547 C1549 1.327 . S
C1547 H1570 0.950 . S
C1548 C1547 1.349 . S
C1548 C1560 1.349 . S
C1549 C1547 1.327 . S
C1549 C1565 1.429 . S
C1549 H1571 0.950 . S
C1550 H1546 0.949 . S
C1550 C1558 1.574 . S
C1550 C1566 1.368 . S
H1551 C1559 0.950 . S
H1552 C1557 0.950 . S
H1553 C1558 0.949 . S
H1554 C1560 0.950 . S
H1555 C1561 0.950 . S
H1556 C1562 0.949 . S
C1557 H1552 0.950 . S
C1557 C1559 1.327 . S
C1557 C1563 1.429 . S
C1558 C1550 1.574 . S
C1558 H1553 0.949 . S
C1558 C1564 1.368 . S
C1559 C1543 1.349 . S
C1559 H1551 0.950 . S
C1559 C1557 1.327 . S
C1560 C1548 1.349 . S
C1560 H1554 0.950 . S
C1560 C1561 1.327 . S
C1561 H1555 0.950 . S
C1561 C1560 1.327 . S
C1561 C1565 1.429 . S
C1562 C1545 1.574 . S
C1562 H1556 0.949 . S
C1562 C1566 1.368 . S
C1563 C1544 1.429 . S
C1563 C1557 1.429 . S
C1563 C1564 1.523 1_565 S
C1564 C1545 1.368 . S
C1564 C1558 1.368 . S
C1564 C1563 1.523 1_545 S
C1565 C1549 1.429 . S
C1565 C1561 1.429 . S
C1565 C1566 1.523 . S
C1566 C1550 1.368 . S
C1566 C1562 1.368 . S
C1566 C1565 1.523 . S
H1567 C1542 0.950 . S
H1568 C1544 0.950 . S
H1569 C1545 0.949 . S
H1570 C1547 0.950 . S
H1571 C1549 0.950 . S
C1572 C1573 1.349 . S
C1572 C1574 1.327 . S
C1572 H1597 0.950 . S
C1573 C1572 1.349 . S
C1573 C1589 1.349 . S
C1574 C1572 1.327 . S
C1574 C1593 1.429 . S
C1574 H1598 0.950 . S
C1575 C1592 1.574 . S
C1575 C1594 1.368 . S
C1575 H1599 0.949 . S
H1576 C1580 0.949 . S
C1577 C1578 1.349 . S
C1577 C1579 1.327 . S
C1577 H1600 0.950 . S
C1578 C1577 1.349 . S
C1578 C1590 1.349 . S
C1579 C1577 1.327 . S
C1579 C1595 1.429 . S
C1579 H1601 0.950 . S
C1580 H1576 0.949 . S
C1580 C1588 1.574 . S
C1580 C1596 1.368 . S
H1581 C1589 0.950 . S
H1582 C1587 0.950 . S
H1583 C1588 0.949 . S
H1584 C1590 0.950 . S
H1585 C1591 0.950 . S
H1586 C1592 0.949 . S
C1587 H1582 0.950 . S
C1587 C1589 1.327 . S
C1587 C1593 1.429 . S
C1588 C1580 1.574 . S
C1588 H1583 0.949 . S
C1588 C1594 1.368 . S
C1589 C1573 1.349 . S
C1589 H1581 0.950 . S
C1589 C1587 1.327 . S
C1590 C1578 1.349 . S
C1590 H1584 0.950 . S
C1590 C1591 1.327 . S
C1591 H1585 0.950 . S
C1591 C1590 1.327 . S
C1591 C1595 1.429 . S
C1592 C1575 1.574 . S
C1592 H1586 0.949 . S
C1592 C1596 1.368 . S
C1593 C1574 1.429 . S
C1593 C1587 1.429 . S
C1593 C1594 1.523 1_545 S
C1594 C1575 1.368 . S
C1594 C1588 1.368 . S
C1594 C1593 1.523 1_565 S
C1595 C1579 1.429 . S
C1595 C1591 1.429 . S
C1595 C1596 1.523 . S
C1596 C1580 1.368 . S
C1596 C1592 1.368 . S
C1596 C1595 1.523 . S
H1597 C1572 0.950 . S
H1598 C1574 0.950 . S
H1599 C1575 0.949 . S
H1600 C1577 0.950 . S
H1601 C1579 0.950 . S
C1602 C1603 1.349 . S
C1602 C1604 1.327 . S
C1602 H1627 0.950 . S
C1603 C1602 1.349 . S
C1603 C1619 1.349 . S
C1604 C1602 1.327 . S
C1604 C1623 1.429 . S
C1604 H1628 0.950 . S
C1605 C1622 1.574 . S
C1605 C1624 1.368 . S
C1605 H1629 0.949 . S
H1606 C1610 0.949 . S
C1607 C1608 1.349 . S
C1607 C1609 1.327 . S
C1607 H1630 0.950 . S
C1608 C1607 1.349 . S
C1608 C1620 1.349 . S
C1609 C1607 1.327 . S
C1609 C1625 1.429 . S
C1609 H1631 0.950 . S
C1610 H1606 0.949 . S
C1610 C1618 1.574 . S
C1610 C1626 1.368 . S
H1611 C1619 0.950 . S
H1612 C1617 0.950 . S
H1613 C1618 0.949 . S
H1614 C1620 0.950 . S
H1615 C1621 0.950 . S
H1616 C1622 0.949 . S
C1617 H1612 0.950 . S
C1617 C1619 1.327 . S
C1617 C1623 1.429 . S
C1618 C1610 1.574 . S
C1618 H1613 0.949 . S
C1618 C1624 1.368 . S
C1619 C1603 1.349 . S
C1619 H1611 0.950 . S
C1619 C1617 1.327 . S
C1620 C1608 1.349 . S
C1620 H1614 0.950 . S
C1620 C1621 1.327 . S
C1621 H1615 0.950 . S
C1621 C1620 1.327 . S
C1621 C1625 1.429 . S
C1622 C1605 1.574 . S
C1622 H1616 0.949 . S
C1622 C1626 1.368 . S
C1623 C1604 1.429 . S
C1623 C1617 1.429 . S
C1623 C1624 1.523 . S
C1624 C1605 1.368 . S
C1624 C1618 1.368 . S
C1624 C1623 1.523 . S
C1625 C1609 1.429 . S
C1625 C1621 1.429 . S
C1625 C1626 1.523 . S
C1626 C1610 1.368 . S
C1626 C1622 1.368 . S
C1626 C1625 1.523 . S
H1627 C1602 0.950 . S
H1628 C1604 0.950 . S
H1629 C1605 0.949 . S
H1630 C1607 0.950 . S
H1631 C1609 0.950 . S
C1632 C1633 1.349 . S
C1632 C1634 1.327 . S
C1632 H1657 0.950 . S
C1633 C1632 1.349 . S
C1633 C1649 1.349 . S
C1634 C1632 1.327 . S
C1634 C1653 1.429 . S
C1634 H1658 0.950 . S
C1635 C1652 1.574 . S
C1635 C1654 1.368 . S
C1635 H1659 0.949 . S
H1636 C1640 0.949 . S
C1637 C1638 1.349 . S
C1637 C1639 1.327 . S
C1637 H1660 0.950 . S
C1638 C1637 1.349 . S
C1638 C1650 1.349 . S
C1639 C1637 1.327 . S
C1639 C1655 1.429 . S
C1639 H1661 0.950 . S
C1640 H1636 0.949 . S
C1640 C1648 1.574 . S
C1640 C1656 1.368 . S
H1641 C1649 0.950 . S
H1642 C1647 0.950 . S
H1643 C1648 0.949 . S
H1644 C1650 0.950 . S
H1645 C1651 0.950 . S
H1646 C1652 0.949 . S
C1647 H1642 0.950 . S
C1647 C1649 1.327 . S
C1647 C1653 1.429 . S
C1648 C1640 1.574 . S
C1648 H1643 0.949 . S
C1648 C1654 1.368 . S
C1649 C1633 1.349 . S
C1649 H1641 0.950 . S
C1649 C1647 1.327 . S
C1650 C1638 1.349 . S
C1650 H1644 0.950 . S
C1650 C1651 1.327 . S
C1651 H1645 0.950 . S
C1651 C1650 1.327 . S
C1651 C1655 1.429 . S
C1652 C1635 1.574 . S
C1652 H1646 0.949 . S
C1652 C1656 1.368 . S
C1653 C1634 1.429 . S
C1653 C1647 1.429 . S
C1653 C1654 1.523 . S
C1654 C1635 1.368 . S
C1654 C1648 1.368 . S
C1654 C1653 1.523 . S
C1655 C1639 1.429 . S
C1655 C1651 1.429 . S
C1655 C1656 1.523 . S
C1656 C1640 1.368 . S
C1656 C1652 1.368 . S
C1656 C1655 1.523 . S
H1657 C1632 0.950 . S
H1658 C1634 0.950 . S
H1659 C1635 0.949 . S
H1660 C1637 0.950 . S
H1661 C1639 0.950 . S
C1662 C1663 1.349 . S
C1662 C1664 1.327 . S
C1662 H1687 0.950 . S
C1663 C1662 1.349 . S
C1663 C1679 1.349 . S
C1664 C1662 1.327 . S
C1664 C1683 1.429 . S
C1664 H1688 0.950 . S
C1665 C1682 1.574 . S
C1665 C1684 1.368 . S
C1665 H1689 0.949 . S
H1666 C1670 0.949 . S
C1667 C1668 1.349 . S
C1667 C1669 1.327 . S
C1667 H1690 0.950 . S
C1668 C1667 1.349 . S
C1668 C1680 1.349 . S
C1669 C1667 1.327 . S
C1669 C1685 1.429 . S
C1669 H1691 0.950 . S
C1670 H1666 0.949 . S
C1670 C1678 1.574 . S
C1670 C1686 1.368 . S
H1671 C1679 0.950 . S
H1672 C1677 0.950 . S
H1673 C1678 0.949 . S
H1674 C1680 0.950 . S
H1675 C1681 0.950 . S
H1676 C1682 0.949 . S
C1677 H1672 0.950 . S
C1677 C1679 1.327 . S
C1677 C1683 1.429 . S
C1678 C1670 1.574 . S
C1678 H1673 0.949 . S
C1678 C1684 1.368 . S
C1679 C1663 1.349 . S
C1679 H1671 0.950 . S
C1679 C1677 1.327 . S
C1680 C1668 1.349 . S
C1680 H1674 0.950 . S
C1680 C1681 1.327 . S
C1681 H1675 0.950 . S
C1681 C1680 1.327 . S
C1681 C1685 1.429 . S
C1682 C1665 1.574 . S
C1682 H1676 0.949 . S
C1682 C1686 1.368 . S
C1683 C1664 1.429 . S
C1683 C1677 1.429 . S
C1683 C1684 1.523 1_556 S
C1684 C1665 1.368 . S
C1684 C1678 1.368 . S
C1684 C1683 1.523 1_554 S
C1685 C1669 1.429 . S
C1685 C1681 1.429 . S
C1685 C1686 1.523 . S
C1686 C1670 1.368 . S
C1686 C1682 1.368 . S
C1686 C1685 1.523 . S
H1687 C1662 0.950 . S
H1688 C1664 0.950 . S
H1689 C1665 0.949 . S
H1690 C1667 0.950 . S
H1691 C1669 0.950 . S
C1692 C1693 1.349 . S
C1692 C1694 1.327 . S
C1692 H1717 0.950 . S
C1693 C1692 1.349 . S
C1693 C1709 1.349 . S
C1694 C1692 1.327 . S
C1694 C1713 1.429 . S
C1694 H1718 0.950 . S
C1695 C1712 1.574 . S
C1695 C1714 1.368 . S
C1695 H1719 0.949 . S
H1696 C1700 0.949 . S
C1697 C1698 1.349 . S
C1697 C1699 1.327 . S
C1697 H1720 0.950 . S
C1698 C1697 1.349 . S
C1698 C1710 1.349 . S
C1699 C1697 1.327 . S
C1699 C1715 1.429 . S
C1699 H1721 0.950 . S
C1700 H1696 0.949 . S
C1700 C1708 1.574 . S
C1700 C1716 1.368 . S
H1701 C1709 0.950 . S
H1702 C1707 0.950 . S
H1703 C1708 0.949 . S
H1704 C1710 0.950 . S
H1705 C1711 0.950 . S
H1706 C1712 0.949 . S
C1707 H1702 0.950 . S
C1707 C1709 1.327 . S
C1707 C1713 1.429 . S
C1708 C1700 1.574 . S
C1708 H1703 0.949 . S
C1708 C1714 1.368 . S
C1709 C1693 1.349 . S
C1709 H1701 0.950 . S
C1709 C1707 1.327 . S
C1710 C1698 1.349 . S
C1710 H1704 0.950 . S
C1710 C1711 1.327 . S
C1711 H1705 0.950 . S
C1711 C1710 1.327 . S
C1711 C1715 1.429 . S
C1712 C1695 1.574 . S
C1712 H1706 0.949 . S
C1712 C1716 1.368 . S
C1713 C1694 1.429 . S
C1713 C1707 1.429 . S
C1713 C1714 1.523 . S
C1714 C1695 1.368 . S
C1714 C1708 1.368 . S
C1714 C1713 1.523 . S
C1715 C1699 1.429 . S
C1715 C1711 1.429 . S
C1715 C1716 1.523 . S
C1716 C1700 1.368 . S
C1716 C1712 1.368 . S
C1716 C1715 1.523 . S
H1717 C1692 0.950 . S
H1718 C1694 0.950 . S
H1719 C1695 0.949 . S
H1720 C1697 0.950 . S
H1721 C1699 0.950 . S
C1722 C1723 1.349 . S
C1722 C1724 1.327 . S
C1722 H1747 0.950 . S
C1723 C1722 1.349 . S
C1723 C1739 1.349 . S
C1724 C1722 1.327 . S
C1724 C1743 1.429 . S
C1724 H1748 0.950 . S
C1725 C1742 1.574 . S
C1725 C1744 1.368 . S
C1725 H1749 0.949 . S
H1726 C1730 0.949 . S
C1727 C1728 1.349 . S
C1727 C1729 1.327 . S
C1727 H1750 0.950 . S
C1728 C1727 1.349 . S
C1728 C1740 1.349 . S
C1729 C1727 1.327 . S
C1729 C1745 1.429 . S
C1729 H1751 0.950 . S
C1730 H1726 0.949 . S
C1730 C1738 1.574 . S
C1730 C1746 1.368 . S
H1731 C1739 0.950 . S
H1732 C1737 0.950 . S
H1733 C1738 0.949 . S
H1734 C1740 0.950 . S
H1735 C1741 0.950 . S
H1736 C1742 0.949 . S
C1737 H1732 0.950 . S
C1737 C1739 1.327 . S
C1737 C1743 1.429 . S
C1738 C1730 1.574 . S
C1738 H1733 0.949 . S
C1738 C1744 1.368 . S
C1739 C1723 1.349 . S
C1739 H1731 0.950 . S
C1739 C1737 1.327 . S
C1740 C1728 1.349 . S
C1740 H1734 0.950 . S
C1740 C1741 1.327 . S
C1741 H1735 0.950 . S
C1741 C1740 1.327 . S
C1741 C1745 1.429 . S
C1742 C1725 1.574 . S
C1742 H1736 0.949 . S
C1742 C1746 1.368 . S
C1743 C1724 1.429 . S
C1743 C1737 1.429 . S
C1743 C1744 1.523 1_554 S
C1744 C1725 1.368 . S
C1744 C1738 1.368 . S
C1744 C1743 1.523 1_556 S
C1745 C1729 1.429 . S
C1745 C1741 1.429 . S
C1745 C1746 1.523 . S
C1746 C1730 1.368 . S
C1746 C1742 1.368 . S
C1746 C1745 1.523 . S
H1747 C1722 0.950 . S
H1748 C1724 0.950 . S
H1749 C1725 0.949 . S
H1750 C1727 0.950 . S
H1751 C1729 0.950 . S
C1752 C1753 1.349 . S
C1752 C1754 1.327 . S
C1752 H1777 0.950 . S
C1753 C1752 1.349 . S
C1753 C1769 1.349 . S
C1754 C1752 1.327 . S
C1754 C1773 1.429 . S
C1754 H1778 0.950 . S
C1755 C1772 1.574 . S
C1755 C1774 1.368 . S
C1755 H1779 0.949 . S
H1756 C1760 0.949 . S
C1757 C1758 1.349 . S
C1757 C1759 1.327 . S
C1757 H1780 0.950 . S
C1758 C1757 1.349 . S
C1758 C1770 1.349 . S
C1759 C1757 1.327 . S
C1759 C1775 1.429 . S
C1759 H1781 0.950 . S
C1760 H1756 0.949 . S
C1760 C1768 1.574 . S
C1760 C1776 1.368 . S
H1761 C1769 0.950 . S
H1762 C1767 0.950 . S
H1763 C1768 0.949 . S
H1764 C1770 0.950 . S
H1765 C1771 0.950 . S
H1766 C1772 0.949 . S
C1767 H1762 0.950 . S
C1767 C1769 1.327 . S
C1767 C1773 1.429 . S
C1768 C1760 1.574 . S
C1768 H1763 0.949 . S
C1768 C1774 1.368 . S
C1769 C1753 1.349 . S
C1769 H1761 0.950 . S
C1769 C1767 1.327 . S
C1770 C1758 1.349 . S
C1770 H1764 0.950 . S
C1770 C1771 1.327 . S
C1771 H1765 0.950 . S
C1771 C1770 1.327 . S
C1771 C1775 1.429 . S
C1772 C1755 1.574 . S
C1772 H1766 0.949 . S
C1772 C1776 1.368 . S
C1773 C1754 1.429 . S
C1773 C1767 1.429 . S
C1773 C1774 1.523 . S
C1774 C1755 1.368 . S
C1774 C1768 1.368 . S
C1774 C1773 1.523 . S
C1775 C1759 1.429 . S
C1775 C1771 1.429 . S
C1775 C1776 1.523 . S
C1776 C1760 1.368 . S
C1776 C1772 1.368 . S
C1776 C1775 1.523 . S
H1777 C1752 0.950 . S
H1778 C1754 0.950 . S
H1779 C1755 0.949 . S
H1780 C1757 0.950 . S
H1781 C1759 0.950 . S
C1782 C1783 1.349 . S
C1782 C1784 1.327 . S
C1782 H1807 0.950 . S
C1783 C1782 1.349 . S
C1783 C1799 1.349 . S
C1784 C1782 1.327 . S
C1784 C1803 1.429 . S
C1784 H1808 0.950 . S
C1785 C1802 1.574 . S
C1785 C1804 1.368 . S
C1785 H1809 0.949 . S
H1786 C1790 0.949 . S
C1787 C1788 1.349 . S
C1787 C1789 1.327 . S
C1787 H1810 0.950 . S
C1788 C1787 1.349 . S
C1788 C1800 1.349 . S
C1789 C1787 1.327 . S
C1789 C1805 1.429 . S
C1789 H1811 0.950 . S
C1790 H1786 0.949 . S
C1790 C1798 1.574 . S
C1790 C1806 1.368 . S
H1791 C1799 0.950 . S
H1792 C1797 0.950 . S
H1793 C1798 0.949 . S
H1794 C1800 0.950 . S
H1795 C1801 0.950 . S
H1796 C1802 0.949 . S
C1797 H1792 0.950 . S
C1797 C1799 1.327 . S
C1797 C1803 1.429 . S
C1798 C1790 1.574 . S
C1798 H1793 0.949 . S
C1798 C1804 1.368 . S
C1799 C1783 1.349 . S
C1799 H1791 0.950 . S
C1799 C1797 1.327 . S
C1800 C1788 1.349 . S
C1800 H1794 0.950 . S
C1800 C1801 1.327 . S
C1801 H1795 0.950 . S
C1801 C1800 1.327 . S
C1801 C1805 1.429 . S
C1802 C1785 1.574 . S
C1802 H1796 0.949 . S
C1802 C1806 1.368 . S
C1803 C1784 1.429 . S
C1803 C1797 1.429 . S
C1803 C1804 1.523 . S
C1804 C1785 1.368 . S
C1804 C1798 1.368 . S
C1804 C1803 1.523 . S
C1805 C1789 1.429 . S
C1805 C1801 1.429 . S
C1805 C1806 1.523 1_455 S
C1806 C1790 1.368 . S
C1806 C1802 1.368 . S
C1806 C1805 1.523 1_655 S
H1807 C1782 0.950 . S
H1808 C1784 0.950 . S
H1809 C1785 0.949 . S
H1810 C1787 0.950 . S
H1811 C1789 0.950 . S
C1812 C1813 1.349 . S
C1812 C1814 1.327 . S
C1812 H1837 0.950 . S
C1813 C1812 1.349 . S
C1813 C1829 1.349 . S
C1814 C1812 1.327 . S
C1814 C1833 1.429 . S
C1814 H1838 0.950 . S
C1815 C1832 1.574 . S
C1815 C1834 1.368 . S
C1815 H1839 0.949 . S
H1816 C1820 0.949 . S
C1817 C1818 1.349 . S
C1817 C1819 1.327 . S
C1817 H1840 0.950 . S
C1818 C1817 1.349 . S
C1818 C1830 1.349 . S
C1819 C1817 1.327 . S
C1819 C1835 1.429 . S
C1819 H1841 0.950 . S
C1820 H1816 0.949 . S
C1820 C1828 1.574 . S
C1820 C1836 1.368 . S
H1821 C1829 0.950 . S
H1822 C1827 0.950 . S
H1823 C1828 0.949 . S
H1824 C1830 0.950 . S
H1825 C1831 0.950 . S
H1826 C1832 0.949 . S
C1827 H1822 0.950 . S
C1827 C1829 1.327 . S
C1827 C1833 1.429 . S
C1828 C1820 1.574 . S
C1828 H1823 0.949 . S
C1828 C1834 1.368 . S
C1829 C1813 1.349 . S
C1829 H1821 0.950 . S
C1829 C1827 1.327 . S
C1830 C1818 1.349 . S
C1830 H1824 0.950 . S
C1830 C1831 1.327 . S
C1831 H1825 0.950 . S
C1831 C1830 1.327 . S
C1831 C1835 1.429 . S
C1832 C1815 1.574 . S
C1832 H1826 0.949 . S
C1832 C1836 1.368 . S
C1833 C1814 1.429 . S
C1833 C1827 1.429 . S
C1833 C1834 1.523 . S
C1834 C1815 1.368 . S
C1834 C1828 1.368 . S
C1834 C1833 1.523 . S
C1835 C1819 1.429 . S
C1835 C1831 1.429 . S
C1835 C1836 1.523 1_655 S
C1836 C1820 1.368 . S
C1836 C1832 1.368 . S
C1836 C1835 1.523 1_455 S
H1837 C1812 0.950 . S
H1838 C1814 0.950 . S
H1839 C1815 0.949 . S
H1840 C1817 0.950 . S
H1841 C1819 0.950 . S
C1842 C1843 1.349 . S
C1842 C1844 1.327 . S
C1842 H1867 0.950 . S
C1843 C1842 1.349 . S
C1843 C1859 1.349 . S
C1844 C1842 1.327 . S
C1844 C1863 1.429 . S
C1844 H1868 0.950 . S
C1845 C1862 1.574 . S
C1845 C1864 1.368 . S
C1845 H1869 0.949 . S
H1846 C1850 0.949 . S
C1847 C1848 1.349 . S
C1847 C1849 1.327 . S
C1847 H1870 0.950 . S
C1848 C1847 1.349 . S
C1848 C1860 1.349 . S
C1849 C1847 1.327 . S
C1849 C1865 1.429 . S
C1849 H1871 0.950 . S
C1850 H1846 0.949 . S
C1850 C1858 1.574 . S
C1850 C1866 1.368 . S
H1851 C1859 0.950 . S
H1852 C1857 0.950 . S
H1853 C1858 0.949 . S
H1854 C1860 0.950 . S
H1855 C1861 0.950 . S
H1856 C1862 0.949 . S
C1857 H1852 0.950 . S
C1857 C1859 1.327 . S
C1857 C1863 1.429 . S
C1858 C1850 1.574 . S
C1858 H1853 0.949 . S
C1858 C1864 1.368 . S
C1859 C1843 1.349 . S
C1859 H1851 0.950 . S
C1859 C1857 1.327 . S
C1860 C1848 1.349 . S
C1860 H1854 0.950 . S
C1860 C1861 1.327 . S
C1861 H1855 0.950 . S
C1861 C1860 1.327 . S
C1861 C1865 1.429 . S
C1862 C1845 1.574 . S
C1862 H1856 0.949 . S
C1862 C1866 1.368 . S
C1863 C1844 1.429 . S
C1863 C1857 1.429 . S
C1863 C1864 1.523 . S
C1864 C1845 1.368 . S
C1864 C1858 1.368 . S
C1864 C1863 1.523 . S
C1865 C1849 1.429 . S
C1865 C1861 1.429 . S
C1865 C1866 1.523 . S
C1866 C1850 1.368 . S
C1866 C1862 1.368 . S
C1866 C1865 1.523 . S
H1867 C1842 0.950 . S
H1868 C1844 0.950 . S
H1869 C1845 0.949 . S
H1870 C1847 0.950 . S
H1871 C1849 0.950 . S
C1872 C1873 1.349 . S
C1872 C1874 1.327 . S
C1872 H1897 0.950 . S
C1873 C1872 1.349 . S
C1873 C1889 1.349 . S
C1874 C1872 1.327 . S
C1874 C1893 1.429 . S
C1874 H1898 0.950 . S
C1875 C1892 1.574 . S
C1875 C1894 1.368 . S
C1875 H1899 0.949 . S
H1876 C1880 0.949 . S
C1877 C1878 1.349 . S
C1877 C1879 1.327 . S
C1877 H1900 0.950 . S
C1878 C1877 1.349 . S
C1878 C1890 1.349 . S
C1879 C1877 1.327 . S
C1879 C1895 1.429 . S
C1879 H1901 0.950 . S
C1880 H1876 0.949 . S
C1880 C1888 1.574 . S
C1880 C1896 1.368 . S
H1881 C1889 0.950 . S
H1882 C1887 0.950 . S
H1883 C1888 0.949 . S
H1884 C1890 0.950 . S
H1885 C1891 0.950 . S
H1886 C1892 0.949 . S
C1887 H1882 0.950 . S
C1887 C1889 1.327 . S
C1887 C1893 1.429 . S
C1888 C1880 1.574 . S
C1888 H1883 0.949 . S
C1888 C1894 1.368 . S
C1889 C1873 1.349 . S
C1889 H1881 0.950 . S
C1889 C1887 1.327 . S
C1890 C1878 1.349 . S
C1890 H1884 0.950 . S
C1890 C1891 1.327 . S
C1891 H1885 0.950 . S
C1891 C1890 1.327 . S
C1891 C1895 1.429 . S
C1892 C1875 1.574 . S
C1892 H1886 0.949 . S
C1892 C1896 1.368 . S
C1893 C1874 1.429 . S
C1893 C1887 1.429 . S
C1893 C1894 1.523 . S
C1894 C1875 1.368 . S
C1894 C1888 1.368 . S
C1894 C1893 1.523 . S
C1895 C1879 1.429 . S
C1895 C1891 1.429 . S
C1895 C1896 1.523 . S
C1896 C1880 1.368 . S
C1896 C1892 1.368 . S
C1896 C1895 1.523 . S
H1897 C1872 0.950 . S
H1898 C1874 0.950 . S
H1899 C1875 0.949 . S
H1900 C1877 0.950 . S
H1901 C1879 0.950 . S
C1902 C1903 1.349 . S
C1902 C1904 1.327 . S
C1902 H1927 0.950 . S
C1903 C1902 1.349 . S
C1903 C1919 1.349 . S
C1904 C1902 1.327 . S
C1904 C1923 1.429 . S
C1904 H1928 0.950 . S
C1905 C1922 1.574 . S
C1905 C1924 1.368 . S
C1905 H1929 0.949 . S
H1906 C1910 0.949 . S
C1907 C1908 1.349 . S
C1907 C1909 1.390 . S
C1907 H1930 0.950 . S
C1908 C1907 1.349 . S
C1908 C1920 1.349 . S
C1909 C1907 1.390 . S
C1909 C1925 1.401 1_545 S
C1909 H1931 0.917 1_545 S
C1910 H1906 0.949 . S
C1910 C1918 1.574 . S
C1910 C1926 1.368 . S
H1911 C1919 0.950 . S
H1912 C1917 0.950 . S
H1913 C1918 0.949 . S
H1914 C1920 0.950 . S
H1915 C1921 0.933 1_565 S
H1916 C1922 0.949 . S
C1917 H1912 0.950 . S
C1917 C1919 1.327 . S
C1917 C1923 1.429 . S
C1918 C1910 1.574 . S
C1918 H1913 0.949 . S
C1918 C1924 1.368 . S
C1919 C1903 1.349 . S
C1919 H1911 0.950 . S
C1919 C1917 1.327 . S
C1920 C1908 1.349 . S
C1920 H1914 0.950 . S
C1920 C1921 1.327 . S
C1921 H1915 0.933 1_545 S
C1921 C1920 1.327 . S
C1921 C1925 1.429 1_545 S
C1922 C1905 1.574 . S
C1922 H1916 0.949 . S
C1922 C1926 1.368 . S
C1923 C1904 1.429 . S
C1923 C1917 1.429 . S
C1923 C1924 1.523 . S
C1924 C1905 1.368 . S
C1924 C1918 1.368 . S
C1924 C1923 1.523 . S
C1925 C1909 1.401 1_565 S
C1925 C1921 1.429 1_565 S
C1925 C1926 1.523 . S
C1926 C1910 1.368 . S
C1926 C1922 1.368 . S
C1926 C1925 1.523 . S
H1927 C1902 0.950 . S
H1928 C1904 0.950 . S
H1929 C1905 0.949 . S
H1930 C1907 0.950 . S
H1931 C1909 0.917 1_565 S
C1932 C1933 1.349 . S
C1932 C1934 1.327 . S
C1932 H1957 0.950 . S
C1933 C1932 1.349 . S
C1933 C1949 1.349 . S
C1934 C1932 1.327 . S
C1934 C1953 1.429 1_565 S
C1934 H1958 0.950 . S
C1935 C1952 1.574 . S
C1935 C1954 1.368 . S
C1935 H1959 0.949 . S
H1936 C1940 0.949 . S
C1937 C1938 1.349 . S
C1937 C1939 1.327 . S
C1937 H1960 0.950 . S
C1938 C1937 1.349 . S
C1938 C1950 1.349 . S
C1939 C1937 1.327 . S
C1939 C1955 1.429 . S
C1939 H1961 0.950 . S
C1940 H1936 0.949 . S
C1940 C1948 1.574 . S
C1940 C1956 1.368 . S
H1941 C1949 0.950 . S
H1942 C1947 0.950 . S
H1943 C1948 0.949 . S
H1944 C1950 0.950 . S
H1945 C1951 0.950 . S
H1946 C1952 0.949 . S
C1947 H1942 0.950 . S
C1947 C1949 1.327 1_545 S
C1947 C1953 1.429 . S
C1948 C1940 1.574 . S
C1948 H1943 0.949 . S
C1948 C1954 1.368 . S
C1949 C1933 1.349 . S
C1949 H1941 0.950 . S
C1949 C1947 1.327 1_565 S
C1950 C1938 1.349 . S
C1950 H1944 0.950 . S
C1950 C1951 1.327 . S
C1951 H1945 0.950 . S
C1951 C1950 1.327 . S
C1951 C1955 1.429 . S
C1952 C1935 1.574 . S
C1952 H1946 0.949 . S
C1952 C1956 1.368 . S
C1953 C1934 1.429 1_545 S
C1953 C1947 1.429 . S
C1953 C1954 1.523 . S
C1954 C1935 1.368 . S
C1954 C1948 1.368 . S
C1954 C1953 1.523 . S
C1955 C1939 1.429 . S
C1955 C1951 1.429 . S
C1955 C1956 1.523 . S
C1956 C1940 1.368 . S
C1956 C1952 1.368 . S
C1956 C1955 1.523 . S
H1957 C1932 0.950 . S
H1958 C1934 0.950 . S
H1959 C1935 0.949 . S
H1960 C1937 0.950 . S
H1961 C1939 0.950 . S
C1962 C1963 1.349 . S
C1962 C1964 1.327 . S
C1962 H1987 0.950 . S
C1963 C1962 1.349 . S
C1963 C1979 1.349 . S
C1964 C1962 1.327 . S
C1964 C1983 1.429 . S
C1964 H1988 0.950 . S
C1965 C1982 1.574 . S
C1965 C1984 1.368 . S
C1965 H1989 0.949 . S
H1966 C1970 0.949 . S
C1967 C1968 1.349 . S
C1967 C1969 1.327 . S
C1967 H1990 0.950 . S
C1968 C1967 1.349 . S
C1968 C1980 1.349 . S
C1969 C1967 1.327 . S
C1969 C1985 1.429 . S
C1969 H1991 0.950 . S
C1970 H1966 0.949 . S
C1970 C1978 1.574 . S
C1970 C1986 1.368 . S
H1971 C1979 0.950 . S
H1972 C1977 0.950 . S
H1973 C1978 0.949 . S
H1974 C1980 0.950 . S
H1975 C1981 0.950 . S
H1976 C1982 0.949 . S
C1977 H1972 0.950 . S
C1977 C1979 1.327 . S
C1977 C1983 1.429 . S
C1978 C1970 1.574 . S
C1978 H1973 0.949 . S
C1978 C1984 1.368 . S
C1979 C1963 1.349 . S
C1979 H1971 0.950 . S
C1979 C1977 1.327 . S
C1980 C1968 1.349 . S
C1980 H1974 0.950 . S
C1980 C1981 1.327 . S
C1981 H1975 0.950 . S
C1981 C1980 1.327 . S
C1981 C1985 1.429 . S
C1982 C1965 1.574 . S
C1982 H1976 0.949 . S
C1982 C1986 1.368 . S
C1983 C1964 1.429 . S
C1983 C1977 1.429 . S
C1983 C1984 1.523 . S
C1984 C1965 1.368 . S
C1984 C1978 1.368 . S
C1984 C1983 1.523 . S
C1985 C1969 1.429 . S
C1985 C1981 1.429 . S
C1985 C1986 1.523 . S
C1986 C1970 1.368 . S
C1986 C1982 1.368 . S
C1986 C1985 1.523 . S
H1987 C1962 0.950 . S
H1988 C1964 0.950 . S
H1989 C1965 0.949 . S
H1990 C1967 0.950 . S
H1991 C1969 0.950 . S
C553 C191 1.718 . S
C558 N12 1.707 . S
C583 N35 1.707 . S
C588 C260 1.718 . S
C613 N58 1.707 . S
C618 C214 1.718 . S
C643 N81 1.707 . S
C648 C237 1.718 . S
C673 C99 1.763 . S
C678 C7 1.781 . S
C703 C30 1.781 . S
C708 C122 1.763 . S
C733 C145 1.763 . S
C738 C53 1.781 . S
C763 C76 1.781 . S
C768 C168 1.763 . S
C793 N104 1.535 . S
C798 N196 1.502 . S
C823 N150 1.535 . S
C828 N219 1.502 . S
C853 N242 1.502 . S
C858 N173 1.535 . S
C883 N127 1.535 . S
C888 N265 1.502 . S
C913 C467 1.680 . S
C918 N288 1.680 . S
C943 N311 1.680 . S
C948 C536 1.680 . S
C973 N334 1.680 . S
C978 C490 1.680 . S
C1003 C513 1.680 . S
C1008 N357 1.680 . S
C1033 N380 1.630 . S
C1038 C283 1.632 . S
C1063 C306 1.632 . S
C1068 N403 1.630 . S
C1093 C329 1.632 . S
C1098 N426 1.630 . S
C1123 N449 1.630 . S
C1128 C352 1.632 . S
C1153 N472 1.602 . S
C1158 C375 1.606 . S
C1183 C421 1.606 . S
C1188 N495 1.602 . S
C1213 C444 1.606 . S
C1218 N518 1.602 . S
C1243 N541 1.602 . S
C1248 C398 1.606 . S
C1273 C522 1.954 . S
C1278 N2 1.791 . S
C1303 C499 1.954 . S
C1308 N25 1.791 . S
C1333 C545 1.954 . S
C1338 N48 1.791 . S
C1363 N71 1.791 . S
C1368 C476 1.954 . S
C1393 C108 1.772 . S
C1398 C315 1.838 . S
C1423 C292 1.838 . S
C1428 C131 1.772 . S
C1453 C361 1.838 . S
C1458 C154 1.772 . S
C1483 C338 1.838 . S
C1488 C177 1.772 . S
C1513 N186 1.761 . S
C1518 C430 1.920 . S
C1543 C384 1.920 . S
C1548 N209 1.761 . S
C1573 C407 1.920 . S
C1578 N232 1.761 . S
C1603 C453 1.920 . S
C1608 N255 1.760 . S
C1633 C246 1.943 . S
C1638 N278 1.781 . S
C1663 C223 1.943 . S
C1668 N301 1.781 . S
C1693 N324 1.781 . S
C1698 C269 1.943 . S
C1723 C200 1.943 . S
C1728 N347 1.781 . S
C1753 N370 1.784 . S
C1758 C39 1.938 . S
C1783 N393 1.784 . S
C1788 C16 1.938 . S
C1813 N416 1.784 . S
C1818 C85 1.938 . S
C1843 N439 1.784 . S
C1848 C62 1.938 . S
C1873 N462 1.805 . S
C1878 N140 1.882 . S
C1903 N485 1.805 . S
C1908 N94 1.882 . S
C1933 N117 1.882 . S
C1938 N508 1.805 . S
C1963 N531 1.805 . S
C1968 N163 1.882 . S
