# Generated by pormake.
# Topology fau, (4)-cn, num edge types: 1
# Building blocks:
#     Node 0, Type 0, BuildingBlock: CEKHIL_clean_sbu_0, # of connection points: 4
#     Node 1, Type 0, BuildingBlock: CEKHIL_clean_sbu_0, # of connection points: 4
#     Node 2, Type 0, BuildingBlock: CEKHIL_clean_sbu_0, # of connection points: 4
#     Node 3, Type 0, BuildingBlock: CEKHIL_clean_sbu_0, # of connection points: 4
#     Node 4, Type 0, BuildingBlock: CEKHIL_clean_sbu_0, # of connection points: 4
#     Node 5, Type 0, BuildingBlock: CEKHIL_clean_sbu_0, # of connection points: 4
#     Node 6, Type 0, BuildingBlock: CEKHIL_clean_sbu_0, # of connection points: 4
#     Node 7, Type 0, BuildingBlock: CEKHIL_clean_sbu_0, # of connection points: 4
#     Node 8, Type 0, BuildingBlock: CEKHIL_clean_sbu_0, # of connection points: 4
#     Node 9, Type 0, BuildingBlock: CEKHIL_clean_sbu_0, # of connection points: 4
#     Node 10, Type 0, BuildingBlock: CEKHIL_clean_sbu_0, # of connection points: 4
#     Node 11, Type 0, BuildingBlock: CEKHIL_clean_sbu_0, # of connection points: 4
#     Node 12, Type 0, BuildingBlock: CEKHIL_clean_sbu_0, # of connection points: 4
#     Node 13, Type 0, BuildingBlock: CEKHIL_clean_sbu_0, # of connection points: 4
#     Node 14, Type 0, BuildingBlock: CEKHIL_clean_sbu_0, # of connection points: 4
#     Node 15, Type 0, BuildingBlock: CEKHIL_clean_sbu_0, # of connection points: 4
#     Node 16, Type 0, BuildingBlock: CEKHIL_clean_sbu_0, # of connection points: 4
#     Node 17, Type 0, BuildingBlock: CEKHIL_clean_sbu_0, # of connection points: 4
#     Node 18, Type 0, BuildingBlock: CEKHIL_clean_sbu_0, # of connection points: 4
#     Node 19, Type 0, BuildingBlock: CEKHIL_clean_sbu_0, # of connection points: 4
#     Node 20, Type 0, BuildingBlock: CEKHIL_clean_sbu_0, # of connection points: 4
#     Node 21, Type 0, BuildingBlock: CEKHIL_clean_sbu_0, # of connection points: 4
#     Node 22, Type 0, BuildingBlock: CEKHIL_clean_sbu_0, # of connection points: 4
#     Node 23, Type 0, BuildingBlock: CEKHIL_clean_sbu_0, # of connection points: 4
#     Node 24, Type 0, BuildingBlock: CEKHIL_clean_sbu_0, # of connection points: 4
#     Node 25, Type 0, BuildingBlock: CEKHIL_clean_sbu_0, # of connection points: 4
#     Node 26, Type 0, BuildingBlock: CEKHIL_clean_sbu_0, # of connection points: 4
#     Node 27, Type 0, BuildingBlock: CEKHIL_clean_sbu_0, # of connection points: 4
#     Node 28, Type 0, BuildingBlock: CEKHIL_clean_sbu_0, # of connection points: 4
#     Node 29, Type 0, BuildingBlock: CEKHIL_clean_sbu_0, # of connection points: 4
#     Node 30, Type 0, BuildingBlock: CEKHIL_clean_sbu_0, # of connection points: 4
#     Node 31, Type 0, BuildingBlock: CEKHIL_clean_sbu_0, # of connection points: 4
#     Node 32, Type 0, BuildingBlock: CEKHIL_clean_sbu_0, # of connection points: 4
#     Node 33, Type 0, BuildingBlock: CEKHIL_clean_sbu_0, # of connection points: 4
#     Node 34, Type 0, BuildingBlock: CEKHIL_clean_sbu_0, # of connection points: 4
#     Node 35, Type 0, BuildingBlock: CEKHIL_clean_sbu_0, # of connection points: 4
#     Node 36, Type 0, BuildingBlock: CEKHIL_clean_sbu_0, # of connection points: 4
#     Node 37, Type 0, BuildingBlock: CEKHIL_clean_sbu_0, # of connection points: 4
#     Node 38, Type 0, BuildingBlock: CEKHIL_clean_sbu_0, # of connection points: 4
#     Node 39, Type 0, BuildingBlock: CEKHIL_clean_sbu_0, # of connection points: 4
#     Node 40, Type 0, BuildingBlock: CEKHIL_clean_sbu_0, # of connection points: 4
#     Node 41, Type 0, BuildingBlock: CEKHIL_clean_sbu_0, # of connection points: 4
#     Node 42, Type 0, BuildingBlock: CEKHIL_clean_sbu_0, # of connection points: 4
#     Node 43, Type 0, BuildingBlock: CEKHIL_clean_sbu_0, # of connection points: 4
#     Node 44, Type 0, BuildingBlock: CEKHIL_clean_sbu_0, # of connection points: 4
#     Node 45, Type 0, BuildingBlock: CEKHIL_clean_sbu_0, # of connection points: 4
#     Node 46, Type 0, BuildingBlock: CEKHIL_clean_sbu_0, # of connection points: 4
#     Node 47, Type 0, BuildingBlock: CEKHIL_clean_sbu_0, # of connection points: 4
#     Node 48, Type 0, BuildingBlock: CEKHIL_clean_sbu_0, # of connection points: 4
#     Node 49, Type 0, BuildingBlock: CEKHIL_clean_sbu_0, # of connection points: 4
#     Node 50, Type 0, BuildingBlock: CEKHIL_clean_sbu_0, # of connection points: 4
#     Node 51, Type 0, BuildingBlock: CEKHIL_clean_sbu_0, # of connection points: 4
#     Node 52, Type 0, BuildingBlock: CEKHIL_clean_sbu_0, # of connection points: 4
#     Node 53, Type 0, BuildingBlock: CEKHIL_clean_sbu_0, # of connection points: 4
#     Node 54, Type 0, BuildingBlock: CEKHIL_clean_sbu_0, # of connection points: 4
#     Node 55, Type 0, BuildingBlock: CEKHIL_clean_sbu_0, # of connection points: 4
#     Node 56, Type 0, BuildingBlock: CEKHIL_clean_sbu_0, # of connection points: 4
#     Node 57, Type 0, BuildingBlock: CEKHIL_clean_sbu_0, # of connection points: 4
#     Node 58, Type 0, BuildingBlock: CEKHIL_clean_sbu_0, # of connection points: 4
#     Node 59, Type 0, BuildingBlock: CEKHIL_clean_sbu_0, # of connection points: 4
#     Node 60, Type 0, BuildingBlock: CEKHIL_clean_sbu_0, # of connection points: 4
#     Node 61, Type 0, BuildingBlock: CEKHIL_clean_sbu_0, # of connection points: 4
#     Node 62, Type 0, BuildingBlock: CEKHIL_clean_sbu_0, # of connection points: 4
#     Node 63, Type 0, BuildingBlock: CEKHIL_clean_sbu_0, # of connection points: 4
#     Node 64, Type 0, BuildingBlock: CEKHIL_clean_sbu_0, # of connection points: 4
#     Node 65, Type 0, BuildingBlock: CEKHIL_clean_sbu_0, # of connection points: 4
#     Node 66, Type 0, BuildingBlock: CEKHIL_clean_sbu_0, # of connection points: 4
#     Node 67, Type 0, BuildingBlock: CEKHIL_clean_sbu_0, # of connection points: 4
#     Node 68, Type 0, BuildingBlock: CEKHIL_clean_sbu_0, # of connection points: 4
#     Node 69, Type 0, BuildingBlock: CEKHIL_clean_sbu_0, # of connection points: 4
#     Node 70, Type 0, BuildingBlock: CEKHIL_clean_sbu_0, # of connection points: 4
#     Node 71, Type 0, BuildingBlock: CEKHIL_clean_sbu_0, # of connection points: 4
#     Node 72, Type 0, BuildingBlock: CEKHIL_clean_sbu_0, # of connection points: 4
#     Node 73, Type 0, BuildingBlock: CEKHIL_clean_sbu_0, # of connection points: 4
#     Node 74, Type 0, BuildingBlock: CEKHIL_clean_sbu_0, # of connection points: 4
#     Node 75, Type 0, BuildingBlock: CEKHIL_clean_sbu_0, # of connection points: 4
#     Node 76, Type 0, BuildingBlock: CEKHIL_clean_sbu_0, # of connection points: 4
#     Node 77, Type 0, BuildingBlock: CEKHIL_clean_sbu_0, # of connection points: 4
#     Node 78, Type 0, BuildingBlock: CEKHIL_clean_sbu_0, # of connection points: 4
#     Node 79, Type 0, BuildingBlock: CEKHIL_clean_sbu_0, # of connection points: 4
#     Node 80, Type 0, BuildingBlock: CEKHIL_clean_sbu_0, # of connection points: 4
#     Node 81, Type 0, BuildingBlock: CEKHIL_clean_sbu_0, # of connection points: 4
#     Node 82, Type 0, BuildingBlock: CEKHIL_clean_sbu_0, # of connection points: 4
#     Node 83, Type 0, BuildingBlock: CEKHIL_clean_sbu_0, # of connection points: 4
#     Node 84, Type 0, BuildingBlock: CEKHIL_clean_sbu_0, # of connection points: 4
#     Node 85, Type 0, BuildingBlock: CEKHIL_clean_sbu_0, # of connection points: 4
#     Node 86, Type 0, BuildingBlock: CEKHIL_clean_sbu_0, # of connection points: 4
#     Node 87, Type 0, BuildingBlock: CEKHIL_clean_sbu_0, # of connection points: 4
#     Node 88, Type 0, BuildingBlock: CEKHIL_clean_sbu_0, # of connection points: 4
#     Node 89, Type 0, BuildingBlock: CEKHIL_clean_sbu_0, # of connection points: 4
#     Node 90, Type 0, BuildingBlock: CEKHIL_clean_sbu_0, # of connection points: 4
#     Node 91, Type 0, BuildingBlock: CEKHIL_clean_sbu_0, # of connection points: 4
#     Node 92, Type 0, BuildingBlock: CEKHIL_clean_sbu_0, # of connection points: 4
#     Node 93, Type 0, BuildingBlock: CEKHIL_clean_sbu_0, # of connection points: 4
#     Node 94, Type 0, BuildingBlock: CEKHIL_clean_sbu_0, # of connection points: 4
#     Node 95, Type 0, BuildingBlock: CEKHIL_clean_sbu_0, # of connection points: 4
#     Node 96, Type 0, BuildingBlock: CEKHIL_clean_sbu_0, # of connection points: 4
#     Node 97, Type 0, BuildingBlock: CEKHIL_clean_sbu_0, # of connection points: 4
#     Node 98, Type 0, BuildingBlock: CEKHIL_clean_sbu_0, # of connection points: 4
#     Node 99, Type 0, BuildingBlock: CEKHIL_clean_sbu_0, # of connection points: 4
#     Node 100, Type 0, BuildingBlock: CEKHIL_clean_sbu_0, # of connection points: 4
#     Node 101, Type 0, BuildingBlock: CEKHIL_clean_sbu_0, # of connection points: 4
#     Node 102, Type 0, BuildingBlock: CEKHIL_clean_sbu_0, # of connection points: 4
#     Node 103, Type 0, BuildingBlock: CEKHIL_clean_sbu_0, # of connection points: 4
#     Node 104, Type 0, BuildingBlock: CEKHIL_clean_sbu_0, # of connection points: 4
#     Node 105, Type 0, BuildingBlock: CEKHIL_clean_sbu_0, # of connection points: 4
#     Node 106, Type 0, BuildingBlock: CEKHIL_clean_sbu_0, # of connection points: 4
#     Node 107, Type 0, BuildingBlock: CEKHIL_clean_sbu_0, # of connection points: 4
#     Node 108, Type 0, BuildingBlock: CEKHIL_clean_sbu_0, # of connection points: 4
#     Node 109, Type 0, BuildingBlock: CEKHIL_clean_sbu_0, # of connection points: 4
#     Node 110, Type 0, BuildingBlock: CEKHIL_clean_sbu_0, # of connection points: 4
#     Node 111, Type 0, BuildingBlock: CEKHIL_clean_sbu_0, # of connection points: 4
#     Node 112, Type 0, BuildingBlock: CEKHIL_clean_sbu_0, # of connection points: 4
#     Node 113, Type 0, BuildingBlock: CEKHIL_clean_sbu_0, # of connection points: 4
#     Node 114, Type 0, BuildingBlock: CEKHIL_clean_sbu_0, # of connection points: 4
#     Node 115, Type 0, BuildingBlock: CEKHIL_clean_sbu_0, # of connection points: 4
#     Node 116, Type 0, BuildingBlock: CEKHIL_clean_sbu_0, # of connection points: 4
#     Node 117, Type 0, BuildingBlock: CEKHIL_clean_sbu_0, # of connection points: 4
#     Node 118, Type 0, BuildingBlock: CEKHIL_clean_sbu_0, # of connection points: 4
#     Node 119, Type 0, BuildingBlock: CEKHIL_clean_sbu_0, # of connection points: 4
#     Node 120, Type 0, BuildingBlock: CEKHIL_clean_sbu_0, # of connection points: 4
#     Node 121, Type 0, BuildingBlock: CEKHIL_clean_sbu_0, # of connection points: 4
#     Node 122, Type 0, BuildingBlock: CEKHIL_clean_sbu_0, # of connection points: 4
#     Node 123, Type 0, BuildingBlock: CEKHIL_clean_sbu_0, # of connection points: 4
#     Node 124, Type 0, BuildingBlock: CEKHIL_clean_sbu_0, # of connection points: 4
#     Node 125, Type 0, BuildingBlock: CEKHIL_clean_sbu_0, # of connection points: 4
#     Node 126, Type 0, BuildingBlock: CEKHIL_clean_sbu_0, # of connection points: 4
#     Node 127, Type 0, BuildingBlock: CEKHIL_clean_sbu_0, # of connection points: 4
#     Node 128, Type 0, BuildingBlock: CEKHIL_clean_sbu_0, # of connection points: 4
#     Node 129, Type 0, BuildingBlock: CEKHIL_clean_sbu_0, # of connection points: 4
#     Node 130, Type 0, BuildingBlock: CEKHIL_clean_sbu_0, # of connection points: 4
#     Node 131, Type 0, BuildingBlock: CEKHIL_clean_sbu_0, # of connection points: 4
#     Node 132, Type 0, BuildingBlock: CEKHIL_clean_sbu_0, # of connection points: 4
#     Node 133, Type 0, BuildingBlock: CEKHIL_clean_sbu_0, # of connection points: 4
#     Node 134, Type 0, BuildingBlock: CEKHIL_clean_sbu_0, # of connection points: 4
#     Node 135, Type 0, BuildingBlock: CEKHIL_clean_sbu_0, # of connection points: 4
#     Node 136, Type 0, BuildingBlock: CEKHIL_clean_sbu_0, # of connection points: 4
#     Node 137, Type 0, BuildingBlock: CEKHIL_clean_sbu_0, # of connection points: 4
#     Node 138, Type 0, BuildingBlock: CEKHIL_clean_sbu_0, # of connection points: 4
#     Node 139, Type 0, BuildingBlock: CEKHIL_clean_sbu_0, # of connection points: 4
#     Node 140, Type 0, BuildingBlock: CEKHIL_clean_sbu_0, # of connection points: 4
#     Node 141, Type 0, BuildingBlock: CEKHIL_clean_sbu_0, # of connection points: 4
#     Node 142, Type 0, BuildingBlock: CEKHIL_clean_sbu_0, # of connection points: 4
#     Node 143, Type 0, BuildingBlock: CEKHIL_clean_sbu_0, # of connection points: 4
#     Node 144, Type 0, BuildingBlock: CEKHIL_clean_sbu_0, # of connection points: 4
#     Node 145, Type 0, BuildingBlock: CEKHIL_clean_sbu_0, # of connection points: 4
#     Node 146, Type 0, BuildingBlock: CEKHIL_clean_sbu_0, # of connection points: 4
#     Node 147, Type 0, BuildingBlock: CEKHIL_clean_sbu_0, # of connection points: 4
#     Node 148, Type 0, BuildingBlock: CEKHIL_clean_sbu_0, # of connection points: 4
#     Node 149, Type 0, BuildingBlock: CEKHIL_clean_sbu_0, # of connection points: 4
#     Node 150, Type 0, BuildingBlock: CEKHIL_clean_sbu_0, # of connection points: 4
#     Node 151, Type 0, BuildingBlock: CEKHIL_clean_sbu_0, # of connection points: 4
#     Node 152, Type 0, BuildingBlock: CEKHIL_clean_sbu_0, # of connection points: 4
#     Node 153, Type 0, BuildingBlock: CEKHIL_clean_sbu_0, # of connection points: 4
#     Node 154, Type 0, BuildingBlock: CEKHIL_clean_sbu_0, # of connection points: 4
#     Node 155, Type 0, BuildingBlock: CEKHIL_clean_sbu_0, # of connection points: 4
#     Node 156, Type 0, BuildingBlock: CEKHIL_clean_sbu_0, # of connection points: 4
#     Node 157, Type 0, BuildingBlock: CEKHIL_clean_sbu_0, # of connection points: 4
#     Node 158, Type 0, BuildingBlock: CEKHIL_clean_sbu_0, # of connection points: 4
#     Node 159, Type 0, BuildingBlock: CEKHIL_clean_sbu_0, # of connection points: 4
#     Node 160, Type 0, BuildingBlock: CEKHIL_clean_sbu_0, # of connection points: 4
#     Node 161, Type 0, BuildingBlock: CEKHIL_clean_sbu_0, # of connection points: 4
#     Node 162, Type 0, BuildingBlock: CEKHIL_clean_sbu_0, # of connection points: 4
#     Node 163, Type 0, BuildingBlock: CEKHIL_clean_sbu_0, # of connection points: 4
#     Node 164, Type 0, BuildingBlock: CEKHIL_clean_sbu_0, # of connection points: 4
#     Node 165, Type 0, BuildingBlock: CEKHIL_clean_sbu_0, # of connection points: 4
#     Node 166, Type 0, BuildingBlock: CEKHIL_clean_sbu_0, # of connection points: 4
#     Node 167, Type 0, BuildingBlock: CEKHIL_clean_sbu_0, # of connection points: 4
#     Node 168, Type 0, BuildingBlock: CEKHIL_clean_sbu_0, # of connection points: 4
#     Node 169, Type 0, BuildingBlock: CEKHIL_clean_sbu_0, # of connection points: 4
#     Node 170, Type 0, BuildingBlock: CEKHIL_clean_sbu_0, # of connection points: 4
#     Node 171, Type 0, BuildingBlock: CEKHIL_clean_sbu_0, # of connection points: 4
#     Node 172, Type 0, BuildingBlock: CEKHIL_clean_sbu_0, # of connection points: 4
#     Node 173, Type 0, BuildingBlock: CEKHIL_clean_sbu_0, # of connection points: 4
#     Node 174, Type 0, BuildingBlock: CEKHIL_clean_sbu_0, # of connection points: 4
#     Node 175, Type 0, BuildingBlock: CEKHIL_clean_sbu_0, # of connection points: 4
#     Node 176, Type 0, BuildingBlock: CEKHIL_clean_sbu_0, # of connection points: 4
#     Node 177, Type 0, BuildingBlock: CEKHIL_clean_sbu_0, # of connection points: 4
#     Node 178, Type 0, BuildingBlock: CEKHIL_clean_sbu_0, # of connection points: 4
#     Node 179, Type 0, BuildingBlock: CEKHIL_clean_sbu_0, # of connection points: 4
#     Node 180, Type 0, BuildingBlock: CEKHIL_clean_sbu_0, # of connection points: 4
#     Node 181, Type 0, BuildingBlock: CEKHIL_clean_sbu_0, # of connection points: 4
#     Node 182, Type 0, BuildingBlock: CEKHIL_clean_sbu_0, # of connection points: 4
#     Node 183, Type 0, BuildingBlock: CEKHIL_clean_sbu_0, # of connection points: 4
#     Node 184, Type 0, BuildingBlock: CEKHIL_clean_sbu_0, # of connection points: 4
#     Node 185, Type 0, BuildingBlock: CEKHIL_clean_sbu_0, # of connection points: 4
#     Node 186, Type 0, BuildingBlock: CEKHIL_clean_sbu_0, # of connection points: 4
#     Node 187, Type 0, BuildingBlock: CEKHIL_clean_sbu_0, # of connection points: 4
#     Node 188, Type 0, BuildingBlock: CEKHIL_clean_sbu_0, # of connection points: 4
#     Node 189, Type 0, BuildingBlock: CEKHIL_clean_sbu_0, # of connection points: 4
#     Node 190, Type 0, BuildingBlock: CEKHIL_clean_sbu_0, # of connection points: 4
#     Node 191, Type 0, BuildingBlock: CEKHIL_clean_sbu_0, # of connection points: 4
#     Edge 192, Type (0, 0), BuildingBlock: OJICUG_clean_linker_0, # of connection points: 2
#     Edge 193, Type (0, 0), BuildingBlock: OJICUG_clean_linker_0, # of connection points: 2
#     Edge 194, Type (0, 0), BuildingBlock: OJICUG_clean_linker_0, # of connection points: 2
#     Edge 195, Type (0, 0), BuildingBlock: OJICUG_clean_linker_0, # of connection points: 2
#     Edge 196, Type (0, 0), BuildingBlock: OJICUG_clean_linker_0, # of connection points: 2
#     Edge 197, Type (0, 0), BuildingBlock: OJICUG_clean_linker_0, # of connection points: 2
#     Edge 198, Type (0, 0), BuildingBlock: OJICUG_clean_linker_0, # of connection points: 2
#     Edge 199, Type (0, 0), BuildingBlock: OJICUG_clean_linker_0, # of connection points: 2
#     Edge 200, Type (0, 0), BuildingBlock: OJICUG_clean_linker_0, # of connection points: 2
#     Edge 201, Type (0, 0), BuildingBlock: OJICUG_clean_linker_0, # of connection points: 2
#     Edge 202, Type (0, 0), BuildingBlock: OJICUG_clean_linker_0, # of connection points: 2
#     Edge 203, Type (0, 0), BuildingBlock: OJICUG_clean_linker_0, # of connection points: 2
#     Edge 204, Type (0, 0), BuildingBlock: OJICUG_clean_linker_0, # of connection points: 2
#     Edge 205, Type (0, 0), BuildingBlock: OJICUG_clean_linker_0, # of connection points: 2
#     Edge 206, Type (0, 0), BuildingBlock: OJICUG_clean_linker_0, # of connection points: 2
#     Edge 207, Type (0, 0), BuildingBlock: OJICUG_clean_linker_0, # of connection points: 2
#     Edge 208, Type (0, 0), BuildingBlock: OJICUG_clean_linker_0, # of connection points: 2
#     Edge 209, Type (0, 0), BuildingBlock: OJICUG_clean_linker_0, # of connection points: 2
#     Edge 210, Type (0, 0), BuildingBlock: OJICUG_clean_linker_0, # of connection points: 2
#     Edge 211, Type (0, 0), BuildingBlock: OJICUG_clean_linker_0, # of connection points: 2
#     Edge 212, Type (0, 0), BuildingBlock: OJICUG_clean_linker_0, # of connection points: 2
#     Edge 213, Type (0, 0), BuildingBlock: OJICUG_clean_linker_0, # of connection points: 2
#     Edge 214, Type (0, 0), BuildingBlock: OJICUG_clean_linker_0, # of connection points: 2
#     Edge 215, Type (0, 0), BuildingBlock: OJICUG_clean_linker_0, # of connection points: 2
#     Edge 216, Type (0, 0), BuildingBlock: OJICUG_clean_linker_0, # of connection points: 2
#     Edge 217, Type (0, 0), BuildingBlock: OJICUG_clean_linker_0, # of connection points: 2
#     Edge 218, Type (0, 0), BuildingBlock: OJICUG_clean_linker_0, # of connection points: 2
#     Edge 219, Type (0, 0), BuildingBlock: OJICUG_clean_linker_0, # of connection points: 2
#     Edge 220, Type (0, 0), BuildingBlock: OJICUG_clean_linker_0, # of connection points: 2
#     Edge 221, Type (0, 0), BuildingBlock: OJICUG_clean_linker_0, # of connection points: 2
#     Edge 222, Type (0, 0), BuildingBlock: OJICUG_clean_linker_0, # of connection points: 2
#     Edge 223, Type (0, 0), BuildingBlock: OJICUG_clean_linker_0, # of connection points: 2
#     Edge 224, Type (0, 0), BuildingBlock: OJICUG_clean_linker_0, # of connection points: 2
#     Edge 225, Type (0, 0), BuildingBlock: OJICUG_clean_linker_0, # of connection points: 2
#     Edge 226, Type (0, 0), BuildingBlock: OJICUG_clean_linker_0, # of connection points: 2
#     Edge 227, Type (0, 0), BuildingBlock: OJICUG_clean_linker_0, # of connection points: 2
#     Edge 228, Type (0, 0), BuildingBlock: OJICUG_clean_linker_0, # of connection points: 2
#     Edge 229, Type (0, 0), BuildingBlock: OJICUG_clean_linker_0, # of connection points: 2
#     Edge 230, Type (0, 0), BuildingBlock: OJICUG_clean_linker_0, # of connection points: 2
#     Edge 231, Type (0, 0), BuildingBlock: OJICUG_clean_linker_0, # of connection points: 2
#     Edge 232, Type (0, 0), BuildingBlock: OJICUG_clean_linker_0, # of connection points: 2
#     Edge 233, Type (0, 0), BuildingBlock: OJICUG_clean_linker_0, # of connection points: 2
#     Edge 234, Type (0, 0), BuildingBlock: OJICUG_clean_linker_0, # of connection points: 2
#     Edge 235, Type (0, 0), BuildingBlock: OJICUG_clean_linker_0, # of connection points: 2
#     Edge 236, Type (0, 0), BuildingBlock: OJICUG_clean_linker_0, # of connection points: 2
#     Edge 237, Type (0, 0), BuildingBlock: OJICUG_clean_linker_0, # of connection points: 2
#     Edge 238, Type (0, 0), BuildingBlock: OJICUG_clean_linker_0, # of connection points: 2
#     Edge 239, Type (0, 0), BuildingBlock: OJICUG_clean_linker_0, # of connection points: 2
#     Edge 240, Type (0, 0), BuildingBlock: OJICUG_clean_linker_0, # of connection points: 2
#     Edge 241, Type (0, 0), BuildingBlock: OJICUG_clean_linker_0, # of connection points: 2
#     Edge 242, Type (0, 0), BuildingBlock: OJICUG_clean_linker_0, # of connection points: 2
#     Edge 243, Type (0, 0), BuildingBlock: OJICUG_clean_linker_0, # of connection points: 2
#     Edge 244, Type (0, 0), BuildingBlock: OJICUG_clean_linker_0, # of connection points: 2
#     Edge 245, Type (0, 0), BuildingBlock: OJICUG_clean_linker_0, # of connection points: 2
#     Edge 246, Type (0, 0), BuildingBlock: OJICUG_clean_linker_0, # of connection points: 2
#     Edge 247, Type (0, 0), BuildingBlock: OJICUG_clean_linker_0, # of connection points: 2
#     Edge 248, Type (0, 0), BuildingBlock: OJICUG_clean_linker_0, # of connection points: 2
#     Edge 249, Type (0, 0), BuildingBlock: OJICUG_clean_linker_0, # of connection points: 2
#     Edge 250, Type (0, 0), BuildingBlock: OJICUG_clean_linker_0, # of connection points: 2
#     Edge 251, Type (0, 0), BuildingBlock: OJICUG_clean_linker_0, # of connection points: 2
#     Edge 252, Type (0, 0), BuildingBlock: OJICUG_clean_linker_0, # of connection points: 2
#     Edge 253, Type (0, 0), BuildingBlock: OJICUG_clean_linker_0, # of connection points: 2
#     Edge 254, Type (0, 0), BuildingBlock: OJICUG_clean_linker_0, # of connection points: 2
#     Edge 255, Type (0, 0), BuildingBlock: OJICUG_clean_linker_0, # of connection points: 2
#     Edge 256, Type (0, 0), BuildingBlock: OJICUG_clean_linker_0, # of connection points: 2
#     Edge 257, Type (0, 0), BuildingBlock: OJICUG_clean_linker_0, # of connection points: 2
#     Edge 258, Type (0, 0), BuildingBlock: OJICUG_clean_linker_0, # of connection points: 2
#     Edge 259, Type (0, 0), BuildingBlock: OJICUG_clean_linker_0, # of connection points: 2
#     Edge 260, Type (0, 0), BuildingBlock: OJICUG_clean_linker_0, # of connection points: 2
#     Edge 261, Type (0, 0), BuildingBlock: OJICUG_clean_linker_0, # of connection points: 2
#     Edge 262, Type (0, 0), BuildingBlock: OJICUG_clean_linker_0, # of connection points: 2
#     Edge 263, Type (0, 0), BuildingBlock: OJICUG_clean_linker_0, # of connection points: 2
#     Edge 264, Type (0, 0), BuildingBlock: OJICUG_clean_linker_0, # of connection points: 2
#     Edge 265, Type (0, 0), BuildingBlock: OJICUG_clean_linker_0, # of connection points: 2
#     Edge 266, Type (0, 0), BuildingBlock: OJICUG_clean_linker_0, # of connection points: 2
#     Edge 267, Type (0, 0), BuildingBlock: OJICUG_clean_linker_0, # of connection points: 2
#     Edge 268, Type (0, 0), BuildingBlock: OJICUG_clean_linker_0, # of connection points: 2
#     Edge 269, Type (0, 0), BuildingBlock: OJICUG_clean_linker_0, # of connection points: 2
#     Edge 270, Type (0, 0), BuildingBlock: OJICUG_clean_linker_0, # of connection points: 2
#     Edge 271, Type (0, 0), BuildingBlock: OJICUG_clean_linker_0, # of connection points: 2
#     Edge 272, Type (0, 0), BuildingBlock: OJICUG_clean_linker_0, # of connection points: 2
#     Edge 273, Type (0, 0), BuildingBlock: OJICUG_clean_linker_0, # of connection points: 2
#     Edge 274, Type (0, 0), BuildingBlock: OJICUG_clean_linker_0, # of connection points: 2
#     Edge 275, Type (0, 0), BuildingBlock: OJICUG_clean_linker_0, # of connection points: 2
#     Edge 276, Type (0, 0), BuildingBlock: OJICUG_clean_linker_0, # of connection points: 2
#     Edge 277, Type (0, 0), BuildingBlock: OJICUG_clean_linker_0, # of connection points: 2
#     Edge 278, Type (0, 0), BuildingBlock: OJICUG_clean_linker_0, # of connection points: 2
#     Edge 279, Type (0, 0), BuildingBlock: OJICUG_clean_linker_0, # of connection points: 2
#     Edge 280, Type (0, 0), BuildingBlock: OJICUG_clean_linker_0, # of connection points: 2
#     Edge 281, Type (0, 0), BuildingBlock: OJICUG_clean_linker_0, # of connection points: 2
#     Edge 282, Type (0, 0), BuildingBlock: OJICUG_clean_linker_0, # of connection points: 2
#     Edge 283, Type (0, 0), BuildingBlock: OJICUG_clean_linker_0, # of connection points: 2
#     Edge 284, Type (0, 0), BuildingBlock: OJICUG_clean_linker_0, # of connection points: 2
#     Edge 285, Type (0, 0), BuildingBlock: OJICUG_clean_linker_0, # of connection points: 2
#     Edge 286, Type (0, 0), BuildingBlock: OJICUG_clean_linker_0, # of connection points: 2
#     Edge 287, Type (0, 0), BuildingBlock: OJICUG_clean_linker_0, # of connection points: 2
#     Edge 288, Type (0, 0), BuildingBlock: OJICUG_clean_linker_0, # of connection points: 2
#     Edge 289, Type (0, 0), BuildingBlock: OJICUG_clean_linker_0, # of connection points: 2
#     Edge 290, Type (0, 0), BuildingBlock: OJICUG_clean_linker_0, # of connection points: 2
#     Edge 291, Type (0, 0), BuildingBlock: OJICUG_clean_linker_0, # of connection points: 2
#     Edge 292, Type (0, 0), BuildingBlock: OJICUG_clean_linker_0, # of connection points: 2
#     Edge 293, Type (0, 0), BuildingBlock: OJICUG_clean_linker_0, # of connection points: 2
#     Edge 294, Type (0, 0), BuildingBlock: OJICUG_clean_linker_0, # of connection points: 2
#     Edge 295, Type (0, 0), BuildingBlock: OJICUG_clean_linker_0, # of connection points: 2
#     Edge 296, Type (0, 0), BuildingBlock: OJICUG_clean_linker_0, # of connection points: 2
#     Edge 297, Type (0, 0), BuildingBlock: OJICUG_clean_linker_0, # of connection points: 2
#     Edge 298, Type (0, 0), BuildingBlock: OJICUG_clean_linker_0, # of connection points: 2
#     Edge 299, Type (0, 0), BuildingBlock: OJICUG_clean_linker_0, # of connection points: 2
#     Edge 300, Type (0, 0), BuildingBlock: OJICUG_clean_linker_0, # of connection points: 2
#     Edge 301, Type (0, 0), BuildingBlock: OJICUG_clean_linker_0, # of connection points: 2
#     Edge 302, Type (0, 0), BuildingBlock: OJICUG_clean_linker_0, # of connection points: 2
#     Edge 303, Type (0, 0), BuildingBlock: OJICUG_clean_linker_0, # of connection points: 2
#     Edge 304, Type (0, 0), BuildingBlock: OJICUG_clean_linker_0, # of connection points: 2
#     Edge 305, Type (0, 0), BuildingBlock: OJICUG_clean_linker_0, # of connection points: 2
#     Edge 306, Type (0, 0), BuildingBlock: OJICUG_clean_linker_0, # of connection points: 2
#     Edge 307, Type (0, 0), BuildingBlock: OJICUG_clean_linker_0, # of connection points: 2
#     Edge 308, Type (0, 0), BuildingBlock: OJICUG_clean_linker_0, # of connection points: 2
#     Edge 309, Type (0, 0), BuildingBlock: OJICUG_clean_linker_0, # of connection points: 2
#     Edge 310, Type (0, 0), BuildingBlock: OJICUG_clean_linker_0, # of connection points: 2
#     Edge 311, Type (0, 0), BuildingBlock: OJICUG_clean_linker_0, # of connection points: 2
#     Edge 312, Type (0, 0), BuildingBlock: OJICUG_clean_linker_0, # of connection points: 2
#     Edge 313, Type (0, 0), BuildingBlock: OJICUG_clean_linker_0, # of connection points: 2
#     Edge 314, Type (0, 0), BuildingBlock: OJICUG_clean_linker_0, # of connection points: 2
#     Edge 315, Type (0, 0), BuildingBlock: OJICUG_clean_linker_0, # of connection points: 2
#     Edge 316, Type (0, 0), BuildingBlock: OJICUG_clean_linker_0, # of connection points: 2
#     Edge 317, Type (0, 0), BuildingBlock: OJICUG_clean_linker_0, # of connection points: 2
#     Edge 318, Type (0, 0), BuildingBlock: OJICUG_clean_linker_0, # of connection points: 2
#     Edge 319, Type (0, 0), BuildingBlock: OJICUG_clean_linker_0, # of connection points: 2
#     Edge 320, Type (0, 0), BuildingBlock: OJICUG_clean_linker_0, # of connection points: 2
#     Edge 321, Type (0, 0), BuildingBlock: OJICUG_clean_linker_0, # of connection points: 2
#     Edge 322, Type (0, 0), BuildingBlock: OJICUG_clean_linker_0, # of connection points: 2
#     Edge 323, Type (0, 0), BuildingBlock: OJICUG_clean_linker_0, # of connection points: 2
#     Edge 324, Type (0, 0), BuildingBlock: OJICUG_clean_linker_0, # of connection points: 2
#     Edge 325, Type (0, 0), BuildingBlock: OJICUG_clean_linker_0, # of connection points: 2
#     Edge 326, Type (0, 0), BuildingBlock: OJICUG_clean_linker_0, # of connection points: 2
#     Edge 327, Type (0, 0), BuildingBlock: OJICUG_clean_linker_0, # of connection points: 2
#     Edge 328, Type (0, 0), BuildingBlock: OJICUG_clean_linker_0, # of connection points: 2
#     Edge 329, Type (0, 0), BuildingBlock: OJICUG_clean_linker_0, # of connection points: 2
#     Edge 330, Type (0, 0), BuildingBlock: OJICUG_clean_linker_0, # of connection points: 2
#     Edge 331, Type (0, 0), BuildingBlock: OJICUG_clean_linker_0, # of connection points: 2
#     Edge 332, Type (0, 0), BuildingBlock: OJICUG_clean_linker_0, # of connection points: 2
#     Edge 333, Type (0, 0), BuildingBlock: OJICUG_clean_linker_0, # of connection points: 2
#     Edge 334, Type (0, 0), BuildingBlock: OJICUG_clean_linker_0, # of connection points: 2
#     Edge 335, Type (0, 0), BuildingBlock: OJICUG_clean_linker_0, # of connection points: 2
#     Edge 336, Type (0, 0), BuildingBlock: OJICUG_clean_linker_0, # of connection points: 2
#     Edge 337, Type (0, 0), BuildingBlock: OJICUG_clean_linker_0, # of connection points: 2
#     Edge 338, Type (0, 0), BuildingBlock: OJICUG_clean_linker_0, # of connection points: 2
#     Edge 339, Type (0, 0), BuildingBlock: OJICUG_clean_linker_0, # of connection points: 2
#     Edge 340, Type (0, 0), BuildingBlock: OJICUG_clean_linker_0, # of connection points: 2
#     Edge 341, Type (0, 0), BuildingBlock: OJICUG_clean_linker_0, # of connection points: 2
#     Edge 342, Type (0, 0), BuildingBlock: OJICUG_clean_linker_0, # of connection points: 2
#     Edge 343, Type (0, 0), BuildingBlock: OJICUG_clean_linker_0, # of connection points: 2
#     Edge 344, Type (0, 0), BuildingBlock: OJICUG_clean_linker_0, # of connection points: 2
#     Edge 345, Type (0, 0), BuildingBlock: OJICUG_clean_linker_0, # of connection points: 2
#     Edge 346, Type (0, 0), BuildingBlock: OJICUG_clean_linker_0, # of connection points: 2
#     Edge 347, Type (0, 0), BuildingBlock: OJICUG_clean_linker_0, # of connection points: 2
#     Edge 348, Type (0, 0), BuildingBlock: OJICUG_clean_linker_0, # of connection points: 2
#     Edge 349, Type (0, 0), BuildingBlock: OJICUG_clean_linker_0, # of connection points: 2
#     Edge 350, Type (0, 0), BuildingBlock: OJICUG_clean_linker_0, # of connection points: 2
#     Edge 351, Type (0, 0), BuildingBlock: OJICUG_clean_linker_0, # of connection points: 2
#     Edge 352, Type (0, 0), BuildingBlock: OJICUG_clean_linker_0, # of connection points: 2
#     Edge 353, Type (0, 0), BuildingBlock: OJICUG_clean_linker_0, # of connection points: 2
#     Edge 354, Type (0, 0), BuildingBlock: OJICUG_clean_linker_0, # of connection points: 2
#     Edge 355, Type (0, 0), BuildingBlock: OJICUG_clean_linker_0, # of connection points: 2
#     Edge 356, Type (0, 0), BuildingBlock: OJICUG_clean_linker_0, # of connection points: 2
#     Edge 357, Type (0, 0), BuildingBlock: OJICUG_clean_linker_0, # of connection points: 2
#     Edge 358, Type (0, 0), BuildingBlock: OJICUG_clean_linker_0, # of connection points: 2
#     Edge 359, Type (0, 0), BuildingBlock: OJICUG_clean_linker_0, # of connection points: 2
#     Edge 360, Type (0, 0), BuildingBlock: OJICUG_clean_linker_0, # of connection points: 2
#     Edge 361, Type (0, 0), BuildingBlock: OJICUG_clean_linker_0, # of connection points: 2
#     Edge 362, Type (0, 0), BuildingBlock: OJICUG_clean_linker_0, # of connection points: 2
#     Edge 363, Type (0, 0), BuildingBlock: OJICUG_clean_linker_0, # of connection points: 2
#     Edge 364, Type (0, 0), BuildingBlock: OJICUG_clean_linker_0, # of connection points: 2
#     Edge 365, Type (0, 0), BuildingBlock: OJICUG_clean_linker_0, # of connection points: 2
#     Edge 366, Type (0, 0), BuildingBlock: OJICUG_clean_linker_0, # of connection points: 2
#     Edge 367, Type (0, 0), BuildingBlock: OJICUG_clean_linker_0, # of connection points: 2
#     Edge 368, Type (0, 0), BuildingBlock: OJICUG_clean_linker_0, # of connection points: 2
#     Edge 369, Type (0, 0), BuildingBlock: OJICUG_clean_linker_0, # of connection points: 2
#     Edge 370, Type (0, 0), BuildingBlock: OJICUG_clean_linker_0, # of connection points: 2
#     Edge 371, Type (0, 0), BuildingBlock: OJICUG_clean_linker_0, # of connection points: 2
#     Edge 372, Type (0, 0), BuildingBlock: OJICUG_clean_linker_0, # of connection points: 2
#     Edge 373, Type (0, 0), BuildingBlock: OJICUG_clean_linker_0, # of connection points: 2
#     Edge 374, Type (0, 0), BuildingBlock: OJICUG_clean_linker_0, # of connection points: 2
#     Edge 375, Type (0, 0), BuildingBlock: OJICUG_clean_linker_0, # of connection points: 2
#     Edge 376, Type (0, 0), BuildingBlock: OJICUG_clean_linker_0, # of connection points: 2
#     Edge 377, Type (0, 0), BuildingBlock: OJICUG_clean_linker_0, # of connection points: 2
#     Edge 378, Type (0, 0), BuildingBlock: OJICUG_clean_linker_0, # of connection points: 2
#     Edge 379, Type (0, 0), BuildingBlock: OJICUG_clean_linker_0, # of connection points: 2
#     Edge 380, Type (0, 0), BuildingBlock: OJICUG_clean_linker_0, # of connection points: 2
#     Edge 381, Type (0, 0), BuildingBlock: OJICUG_clean_linker_0, # of connection points: 2
#     Edge 382, Type (0, 0), BuildingBlock: OJICUG_clean_linker_0, # of connection points: 2
#     Edge 383, Type (0, 0), BuildingBlock: OJICUG_clean_linker_0, # of connection points: 2
#     Edge 384, Type (0, 0), BuildingBlock: OJICUG_clean_linker_0, # of connection points: 2
#     Edge 385, Type (0, 0), BuildingBlock: OJICUG_clean_linker_0, # of connection points: 2
#     Edge 386, Type (0, 0), BuildingBlock: OJICUG_clean_linker_0, # of connection points: 2
#     Edge 387, Type (0, 0), BuildingBlock: OJICUG_clean_linker_0, # of connection points: 2
#     Edge 388, Type (0, 0), BuildingBlock: OJICUG_clean_linker_0, # of connection points: 2
#     Edge 389, Type (0, 0), BuildingBlock: OJICUG_clean_linker_0, # of connection points: 2
#     Edge 390, Type (0, 0), BuildingBlock: OJICUG_clean_linker_0, # of connection points: 2
#     Edge 391, Type (0, 0), BuildingBlock: OJICUG_clean_linker_0, # of connection points: 2
#     Edge 392, Type (0, 0), BuildingBlock: OJICUG_clean_linker_0, # of connection points: 2
#     Edge 393, Type (0, 0), BuildingBlock: OJICUG_clean_linker_0, # of connection points: 2
#     Edge 394, Type (0, 0), BuildingBlock: OJICUG_clean_linker_0, # of connection points: 2
#     Edge 395, Type (0, 0), BuildingBlock: OJICUG_clean_linker_0, # of connection points: 2
#     Edge 396, Type (0, 0), BuildingBlock: OJICUG_clean_linker_0, # of connection points: 2
#     Edge 397, Type (0, 0), BuildingBlock: OJICUG_clean_linker_0, # of connection points: 2
#     Edge 398, Type (0, 0), BuildingBlock: OJICUG_clean_linker_0, # of connection points: 2
#     Edge 399, Type (0, 0), BuildingBlock: OJICUG_clean_linker_0, # of connection points: 2
#     Edge 400, Type (0, 0), BuildingBlock: OJICUG_clean_linker_0, # of connection points: 2
#     Edge 401, Type (0, 0), BuildingBlock: OJICUG_clean_linker_0, # of connection points: 2
#     Edge 402, Type (0, 0), BuildingBlock: OJICUG_clean_linker_0, # of connection points: 2
#     Edge 403, Type (0, 0), BuildingBlock: OJICUG_clean_linker_0, # of connection points: 2
#     Edge 404, Type (0, 0), BuildingBlock: OJICUG_clean_linker_0, # of connection points: 2
#     Edge 405, Type (0, 0), BuildingBlock: OJICUG_clean_linker_0, # of connection points: 2
#     Edge 406, Type (0, 0), BuildingBlock: OJICUG_clean_linker_0, # of connection points: 2
#     Edge 407, Type (0, 0), BuildingBlock: OJICUG_clean_linker_0, # of connection points: 2
#     Edge 408, Type (0, 0), BuildingBlock: OJICUG_clean_linker_0, # of connection points: 2
#     Edge 409, Type (0, 0), BuildingBlock: OJICUG_clean_linker_0, # of connection points: 2
#     Edge 410, Type (0, 0), BuildingBlock: OJICUG_clean_linker_0, # of connection points: 2
#     Edge 411, Type (0, 0), BuildingBlock: OJICUG_clean_linker_0, # of connection points: 2
#     Edge 412, Type (0, 0), BuildingBlock: OJICUG_clean_linker_0, # of connection points: 2
#     Edge 413, Type (0, 0), BuildingBlock: OJICUG_clean_linker_0, # of connection points: 2
#     Edge 414, Type (0, 0), BuildingBlock: OJICUG_clean_linker_0, # of connection points: 2
#     Edge 415, Type (0, 0), BuildingBlock: OJICUG_clean_linker_0, # of connection points: 2
#     Edge 416, Type (0, 0), BuildingBlock: OJICUG_clean_linker_0, # of connection points: 2
#     Edge 417, Type (0, 0), BuildingBlock: OJICUG_clean_linker_0, # of connection points: 2
#     Edge 418, Type (0, 0), BuildingBlock: OJICUG_clean_linker_0, # of connection points: 2
#     Edge 419, Type (0, 0), BuildingBlock: OJICUG_clean_linker_0, # of connection points: 2
#     Edge 420, Type (0, 0), BuildingBlock: OJICUG_clean_linker_0, # of connection points: 2
#     Edge 421, Type (0, 0), BuildingBlock: OJICUG_clean_linker_0, # of connection points: 2
#     Edge 422, Type (0, 0), BuildingBlock: OJICUG_clean_linker_0, # of connection points: 2
#     Edge 423, Type (0, 0), BuildingBlock: OJICUG_clean_linker_0, # of connection points: 2
#     Edge 424, Type (0, 0), BuildingBlock: OJICUG_clean_linker_0, # of connection points: 2
#     Edge 425, Type (0, 0), BuildingBlock: OJICUG_clean_linker_0, # of connection points: 2
#     Edge 426, Type (0, 0), BuildingBlock: OJICUG_clean_linker_0, # of connection points: 2
#     Edge 427, Type (0, 0), BuildingBlock: OJICUG_clean_linker_0, # of connection points: 2
#     Edge 428, Type (0, 0), BuildingBlock: OJICUG_clean_linker_0, # of connection points: 2
#     Edge 429, Type (0, 0), BuildingBlock: OJICUG_clean_linker_0, # of connection points: 2
#     Edge 430, Type (0, 0), BuildingBlock: OJICUG_clean_linker_0, # of connection points: 2
#     Edge 431, Type (0, 0), BuildingBlock: OJICUG_clean_linker_0, # of connection points: 2
#     Edge 432, Type (0, 0), BuildingBlock: OJICUG_clean_linker_0, # of connection points: 2
#     Edge 433, Type (0, 0), BuildingBlock: OJICUG_clean_linker_0, # of connection points: 2
#     Edge 434, Type (0, 0), BuildingBlock: OJICUG_clean_linker_0, # of connection points: 2
#     Edge 435, Type (0, 0), BuildingBlock: OJICUG_clean_linker_0, # of connection points: 2
#     Edge 436, Type (0, 0), BuildingBlock: OJICUG_clean_linker_0, # of connection points: 2
#     Edge 437, Type (0, 0), BuildingBlock: OJICUG_clean_linker_0, # of connection points: 2
#     Edge 438, Type (0, 0), BuildingBlock: OJICUG_clean_linker_0, # of connection points: 2
#     Edge 439, Type (0, 0), BuildingBlock: OJICUG_clean_linker_0, # of connection points: 2
#     Edge 440, Type (0, 0), BuildingBlock: OJICUG_clean_linker_0, # of connection points: 2
#     Edge 441, Type (0, 0), BuildingBlock: OJICUG_clean_linker_0, # of connection points: 2
#     Edge 442, Type (0, 0), BuildingBlock: OJICUG_clean_linker_0, # of connection points: 2
#     Edge 443, Type (0, 0), BuildingBlock: OJICUG_clean_linker_0, # of connection points: 2
#     Edge 444, Type (0, 0), BuildingBlock: OJICUG_clean_linker_0, # of connection points: 2
#     Edge 445, Type (0, 0), BuildingBlock: OJICUG_clean_linker_0, # of connection points: 2
#     Edge 446, Type (0, 0), BuildingBlock: OJICUG_clean_linker_0, # of connection points: 2
#     Edge 447, Type (0, 0), BuildingBlock: OJICUG_clean_linker_0, # of connection points: 2
#     Edge 448, Type (0, 0), BuildingBlock: OJICUG_clean_linker_0, # of connection points: 2
#     Edge 449, Type (0, 0), BuildingBlock: OJICUG_clean_linker_0, # of connection points: 2
#     Edge 450, Type (0, 0), BuildingBlock: OJICUG_clean_linker_0, # of connection points: 2
#     Edge 451, Type (0, 0), BuildingBlock: OJICUG_clean_linker_0, # of connection points: 2
#     Edge 452, Type (0, 0), BuildingBlock: OJICUG_clean_linker_0, # of connection points: 2
#     Edge 453, Type (0, 0), BuildingBlock: OJICUG_clean_linker_0, # of connection points: 2
#     Edge 454, Type (0, 0), BuildingBlock: OJICUG_clean_linker_0, # of connection points: 2
#     Edge 455, Type (0, 0), BuildingBlock: OJICUG_clean_linker_0, # of connection points: 2
#     Edge 456, Type (0, 0), BuildingBlock: OJICUG_clean_linker_0, # of connection points: 2
#     Edge 457, Type (0, 0), BuildingBlock: OJICUG_clean_linker_0, # of connection points: 2
#     Edge 458, Type (0, 0), BuildingBlock: OJICUG_clean_linker_0, # of connection points: 2
#     Edge 459, Type (0, 0), BuildingBlock: OJICUG_clean_linker_0, # of connection points: 2
#     Edge 460, Type (0, 0), BuildingBlock: OJICUG_clean_linker_0, # of connection points: 2
#     Edge 461, Type (0, 0), BuildingBlock: OJICUG_clean_linker_0, # of connection points: 2
#     Edge 462, Type (0, 0), BuildingBlock: OJICUG_clean_linker_0, # of connection points: 2
#     Edge 463, Type (0, 0), BuildingBlock: OJICUG_clean_linker_0, # of connection points: 2
#     Edge 464, Type (0, 0), BuildingBlock: OJICUG_clean_linker_0, # of connection points: 2
#     Edge 465, Type (0, 0), BuildingBlock: OJICUG_clean_linker_0, # of connection points: 2
#     Edge 466, Type (0, 0), BuildingBlock: OJICUG_clean_linker_0, # of connection points: 2
#     Edge 467, Type (0, 0), BuildingBlock: OJICUG_clean_linker_0, # of connection points: 2
#     Edge 468, Type (0, 0), BuildingBlock: OJICUG_clean_linker_0, # of connection points: 2
#     Edge 469, Type (0, 0), BuildingBlock: OJICUG_clean_linker_0, # of connection points: 2
#     Edge 470, Type (0, 0), BuildingBlock: OJICUG_clean_linker_0, # of connection points: 2
#     Edge 471, Type (0, 0), BuildingBlock: OJICUG_clean_linker_0, # of connection points: 2
#     Edge 472, Type (0, 0), BuildingBlock: OJICUG_clean_linker_0, # of connection points: 2
#     Edge 473, Type (0, 0), BuildingBlock: OJICUG_clean_linker_0, # of connection points: 2
#     Edge 474, Type (0, 0), BuildingBlock: OJICUG_clean_linker_0, # of connection points: 2
#     Edge 475, Type (0, 0), BuildingBlock: OJICUG_clean_linker_0, # of connection points: 2
#     Edge 476, Type (0, 0), BuildingBlock: OJICUG_clean_linker_0, # of connection points: 2
#     Edge 477, Type (0, 0), BuildingBlock: OJICUG_clean_linker_0, # of connection points: 2
#     Edge 478, Type (0, 0), BuildingBlock: OJICUG_clean_linker_0, # of connection points: 2
#     Edge 479, Type (0, 0), BuildingBlock: OJICUG_clean_linker_0, # of connection points: 2
#     Edge 480, Type (0, 0), BuildingBlock: OJICUG_clean_linker_0, # of connection points: 2
#     Edge 481, Type (0, 0), BuildingBlock: OJICUG_clean_linker_0, # of connection points: 2
#     Edge 482, Type (0, 0), BuildingBlock: OJICUG_clean_linker_0, # of connection points: 2
#     Edge 483, Type (0, 0), BuildingBlock: OJICUG_clean_linker_0, # of connection points: 2
#     Edge 484, Type (0, 0), BuildingBlock: OJICUG_clean_linker_0, # of connection points: 2
#     Edge 485, Type (0, 0), BuildingBlock: OJICUG_clean_linker_0, # of connection points: 2
#     Edge 486, Type (0, 0), BuildingBlock: OJICUG_clean_linker_0, # of connection points: 2
#     Edge 487, Type (0, 0), BuildingBlock: OJICUG_clean_linker_0, # of connection points: 2
#     Edge 488, Type (0, 0), BuildingBlock: OJICUG_clean_linker_0, # of connection points: 2
#     Edge 489, Type (0, 0), BuildingBlock: OJICUG_clean_linker_0, # of connection points: 2
#     Edge 490, Type (0, 0), BuildingBlock: OJICUG_clean_linker_0, # of connection points: 2
#     Edge 491, Type (0, 0), BuildingBlock: OJICUG_clean_linker_0, # of connection points: 2
#     Edge 492, Type (0, 0), BuildingBlock: OJICUG_clean_linker_0, # of connection points: 2
#     Edge 493, Type (0, 0), BuildingBlock: OJICUG_clean_linker_0, # of connection points: 2
#     Edge 494, Type (0, 0), BuildingBlock: OJICUG_clean_linker_0, # of connection points: 2
#     Edge 495, Type (0, 0), BuildingBlock: OJICUG_clean_linker_0, # of connection points: 2
#     Edge 496, Type (0, 0), BuildingBlock: OJICUG_clean_linker_0, # of connection points: 2
#     Edge 497, Type (0, 0), BuildingBlock: OJICUG_clean_linker_0, # of connection points: 2
#     Edge 498, Type (0, 0), BuildingBlock: OJICUG_clean_linker_0, # of connection points: 2
#     Edge 499, Type (0, 0), BuildingBlock: OJICUG_clean_linker_0, # of connection points: 2
#     Edge 500, Type (0, 0), BuildingBlock: OJICUG_clean_linker_0, # of connection points: 2
#     Edge 501, Type (0, 0), BuildingBlock: OJICUG_clean_linker_0, # of connection points: 2
#     Edge 502, Type (0, 0), BuildingBlock: OJICUG_clean_linker_0, # of connection points: 2
#     Edge 503, Type (0, 0), BuildingBlock: OJICUG_clean_linker_0, # of connection points: 2
#     Edge 504, Type (0, 0), BuildingBlock: OJICUG_clean_linker_0, # of connection points: 2
#     Edge 505, Type (0, 0), BuildingBlock: OJICUG_clean_linker_0, # of connection points: 2
#     Edge 506, Type (0, 0), BuildingBlock: OJICUG_clean_linker_0, # of connection points: 2
#     Edge 507, Type (0, 0), BuildingBlock: OJICUG_clean_linker_0, # of connection points: 2
#     Edge 508, Type (0, 0), BuildingBlock: OJICUG_clean_linker_0, # of connection points: 2
#     Edge 509, Type (0, 0), BuildingBlock: OJICUG_clean_linker_0, # of connection points: 2
#     Edge 510, Type (0, 0), BuildingBlock: OJICUG_clean_linker_0, # of connection points: 2
#     Edge 511, Type (0, 0), BuildingBlock: OJICUG_clean_linker_0, # of connection points: 2
#     Edge 512, Type (0, 0), BuildingBlock: OJICUG_clean_linker_0, # of connection points: 2
#     Edge 513, Type (0, 0), BuildingBlock: OJICUG_clean_linker_0, # of connection points: 2
#     Edge 514, Type (0, 0), BuildingBlock: OJICUG_clean_linker_0, # of connection points: 2
#     Edge 515, Type (0, 0), BuildingBlock: OJICUG_clean_linker_0, # of connection points: 2
#     Edge 516, Type (0, 0), BuildingBlock: OJICUG_clean_linker_0, # of connection points: 2
#     Edge 517, Type (0, 0), BuildingBlock: OJICUG_clean_linker_0, # of connection points: 2
#     Edge 518, Type (0, 0), BuildingBlock: OJICUG_clean_linker_0, # of connection points: 2
#     Edge 519, Type (0, 0), BuildingBlock: OJICUG_clean_linker_0, # of connection points: 2
#     Edge 520, Type (0, 0), BuildingBlock: OJICUG_clean_linker_0, # of connection points: 2
#     Edge 521, Type (0, 0), BuildingBlock: OJICUG_clean_linker_0, # of connection points: 2
#     Edge 522, Type (0, 0), BuildingBlock: OJICUG_clean_linker_0, # of connection points: 2
#     Edge 523, Type (0, 0), BuildingBlock: OJICUG_clean_linker_0, # of connection points: 2
#     Edge 524, Type (0, 0), BuildingBlock: OJICUG_clean_linker_0, # of connection points: 2
#     Edge 525, Type (0, 0), BuildingBlock: OJICUG_clean_linker_0, # of connection points: 2
#     Edge 526, Type (0, 0), BuildingBlock: OJICUG_clean_linker_0, # of connection points: 2
#     Edge 527, Type (0, 0), BuildingBlock: OJICUG_clean_linker_0, # of connection points: 2
#     Edge 528, Type (0, 0), BuildingBlock: OJICUG_clean_linker_0, # of connection points: 2
#     Edge 529, Type (0, 0), BuildingBlock: OJICUG_clean_linker_0, # of connection points: 2
#     Edge 530, Type (0, 0), BuildingBlock: OJICUG_clean_linker_0, # of connection points: 2
#     Edge 531, Type (0, 0), BuildingBlock: OJICUG_clean_linker_0, # of connection points: 2
#     Edge 532, Type (0, 0), BuildingBlock: OJICUG_clean_linker_0, # of connection points: 2
#     Edge 533, Type (0, 0), BuildingBlock: OJICUG_clean_linker_0, # of connection points: 2
#     Edge 534, Type (0, 0), BuildingBlock: OJICUG_clean_linker_0, # of connection points: 2
#     Edge 535, Type (0, 0), BuildingBlock: OJICUG_clean_linker_0, # of connection points: 2
#     Edge 536, Type (0, 0), BuildingBlock: OJICUG_clean_linker_0, # of connection points: 2
#     Edge 537, Type (0, 0), BuildingBlock: OJICUG_clean_linker_0, # of connection points: 2
#     Edge 538, Type (0, 0), BuildingBlock: OJICUG_clean_linker_0, # of connection points: 2
#     Edge 539, Type (0, 0), BuildingBlock: OJICUG_clean_linker_0, # of connection points: 2
#     Edge 540, Type (0, 0), BuildingBlock: OJICUG_clean_linker_0, # of connection points: 2
#     Edge 541, Type (0, 0), BuildingBlock: OJICUG_clean_linker_0, # of connection points: 2
#     Edge 542, Type (0, 0), BuildingBlock: OJICUG_clean_linker_0, # of connection points: 2
#     Edge 543, Type (0, 0), BuildingBlock: OJICUG_clean_linker_0, # of connection points: 2
#     Edge 544, Type (0, 0), BuildingBlock: OJICUG_clean_linker_0, # of connection points: 2
#     Edge 545, Type (0, 0), BuildingBlock: OJICUG_clean_linker_0, # of connection points: 2
#     Edge 546, Type (0, 0), BuildingBlock: OJICUG_clean_linker_0, # of connection points: 2
#     Edge 547, Type (0, 0), BuildingBlock: OJICUG_clean_linker_0, # of connection points: 2
#     Edge 548, Type (0, 0), BuildingBlock: OJICUG_clean_linker_0, # of connection points: 2
#     Edge 549, Type (0, 0), BuildingBlock: OJICUG_clean_linker_0, # of connection points: 2
#     Edge 550, Type (0, 0), BuildingBlock: OJICUG_clean_linker_0, # of connection points: 2
#     Edge 551, Type (0, 0), BuildingBlock: OJICUG_clean_linker_0, # of connection points: 2
#     Edge 552, Type (0, 0), BuildingBlock: OJICUG_clean_linker_0, # of connection points: 2
#     Edge 553, Type (0, 0), BuildingBlock: OJICUG_clean_linker_0, # of connection points: 2
#     Edge 554, Type (0, 0), BuildingBlock: OJICUG_clean_linker_0, # of connection points: 2
#     Edge 555, Type (0, 0), BuildingBlock: OJICUG_clean_linker_0, # of connection points: 2
#     Edge 556, Type (0, 0), BuildingBlock: OJICUG_clean_linker_0, # of connection points: 2
#     Edge 557, Type (0, 0), BuildingBlock: OJICUG_clean_linker_0, # of connection points: 2
#     Edge 558, Type (0, 0), BuildingBlock: OJICUG_clean_linker_0, # of connection points: 2
#     Edge 559, Type (0, 0), BuildingBlock: OJICUG_clean_linker_0, # of connection points: 2
#     Edge 560, Type (0, 0), BuildingBlock: OJICUG_clean_linker_0, # of connection points: 2
#     Edge 561, Type (0, 0), BuildingBlock: OJICUG_clean_linker_0, # of connection points: 2
#     Edge 562, Type (0, 0), BuildingBlock: OJICUG_clean_linker_0, # of connection points: 2
#     Edge 563, Type (0, 0), BuildingBlock: OJICUG_clean_linker_0, # of connection points: 2
#     Edge 564, Type (0, 0), BuildingBlock: OJICUG_clean_linker_0, # of connection points: 2
#     Edge 565, Type (0, 0), BuildingBlock: OJICUG_clean_linker_0, # of connection points: 2
#     Edge 566, Type (0, 0), BuildingBlock: OJICUG_clean_linker_0, # of connection points: 2
#     Edge 567, Type (0, 0), BuildingBlock: OJICUG_clean_linker_0, # of connection points: 2
#     Edge 568, Type (0, 0), BuildingBlock: OJICUG_clean_linker_0, # of connection points: 2
#     Edge 569, Type (0, 0), BuildingBlock: OJICUG_clean_linker_0, # of connection points: 2
#     Edge 570, Type (0, 0), BuildingBlock: OJICUG_clean_linker_0, # of connection points: 2
#     Edge 571, Type (0, 0), BuildingBlock: OJICUG_clean_linker_0, # of connection points: 2
#     Edge 572, Type (0, 0), BuildingBlock: OJICUG_clean_linker_0, # of connection points: 2
#     Edge 573, Type (0, 0), BuildingBlock: OJICUG_clean_linker_0, # of connection points: 2
#     Edge 574, Type (0, 0), BuildingBlock: OJICUG_clean_linker_0, # of connection points: 2
#     Edge 575, Type (0, 0), BuildingBlock: OJICUG_clean_linker_0, # of connection points: 2
# Relax obj value: 0.089
# Max RMSD: 0.071
# Mean RMSD: 0.071
data_MOF--net-fau--node1-CEKHIL_clean_sbu_0--edge1-OJICUG_clean_linker_0
_symmetry_space_group_name_H-M    P1
_symmetry_Int_Tables_number       1
_symmetry_cell_setting            triclinic
loop_
_symmetry_equiv_pos_as_xyz
'x, y, z'
_cell_length_a     85.886714
_cell_length_b     85.887778
_cell_length_c     85.888155
_cell_angle_alpha  89.999983
_cell_angle_beta   90.000284
_cell_angle_gamma 90.0002
loop_
_atom_site_label
_atom_site_type_symbol
_atom_site_fract_x
_atom_site_fract_y
_atom_site_fract_z
_atom_type_partial_charge
Co0 Co 0.03924 0.13326 0.45564 0.0
O1 O 0.05189 0.14753 0.46736 0.0
O2 O 0.05102 0.14662 0.44165 0.0
C3 C 0.01739 0.13657 0.47022 0.0
O4 O 0.02724 0.12028 0.43958 0.0
Co5 Co 0.02502 0.10387 0.47164 0.0
O6 O 0.01222 0.10303 0.45244 0.0
C7 C 0.05873 0.1054 0.46476 0.0
C8 C 0.05677 0.15299 0.45415 0.0
C9 C 0.01636 0.10993 0.43998 0.0
O10 O 0.05675 0.11737 0.45592 0.0
O11 O 0.04788 0.09949 0.47311 0.0
O12 O 0.02067 0.14652 0.45928 0.0
O13 O 0.02778 0.12606 0.47255 0.0
Co14 Co 0.87424 0.28924 0.70564 0.0
O15 O 0.85996 0.30187 0.71736 0.0
O16 O 0.86084 0.301 0.69165 0.0
C17 C 0.87097 0.26739 0.72023 0.0
O18 O 0.88722 0.27726 0.68957 0.0
Co19 Co 0.90366 0.27507 0.72162 0.0
O20 O 0.90451 0.26228 0.70242 0.0
C21 C 0.90207 0.30878 0.71474 0.0
C22 C 0.85448 0.30674 0.70416 0.0
C23 C 0.89759 0.2664 0.68997 0.0
O24 O 0.8901 0.30678 0.70591 0.0
O25 O 0.908 0.29794 0.72309 0.0
O26 O 0.86101 0.27065 0.70929 0.0
O27 O 0.88147 0.2778 0.72255 0.0
Co28 Co 0.71831 0.12429 0.95557 0.0
O29 O 0.70567 0.11001 0.96729 0.0
O30 O 0.70652 0.11094 0.94158 0.0
C31 C 0.74017 0.12096 0.97013 0.0
O32 O 0.73029 0.13728 0.93951 0.0
Co33 Co 0.73254 0.15367 0.97159 0.0
O34 O 0.74532 0.15453 0.95237 0.0
C35 C 0.69883 0.15215 0.96473 0.0
C36 C 0.70079 0.10456 0.95409 0.0
C37 C 0.74117 0.14763 0.93991 0.0
O38 O 0.7008 0.14018 0.95589 0.0
O39 O 0.70969 0.15804 0.97308 0.0
O40 O 0.73688 0.11103 0.95918 0.0
O41 O 0.72978 0.13147 0.97248 0.0
Co42 Co 0.88325 0.9683 0.20562 0.0
O43 O 0.89753 0.95565 0.21733 0.0
O44 O 0.89663 0.95654 0.19162 0.0
C45 C 0.88654 0.99013 0.22023 0.0
O46 O 0.87026 0.98029 0.18957 0.0
Co47 Co 0.85384 0.98246 0.22163 0.0
O48 O 0.85298 0.99527 0.20244 0.0
C49 C 0.85541 0.94876 0.21473 0.0
C50 C 0.903 0.95079 0.20412 0.0
C51 C 0.8599 0.99115 0.18998 0.0
O52 O 0.86739 0.95076 0.20589 0.0
O53 O 0.8495 0.9596 0.22309 0.0
O54 O 0.89649 0.98688 0.20928 0.0
O55 O 0.87604 0.97972 0.22255 0.0
Co56 Co 0.03951 0.12439 0.80175 0.0
O57 O 0.05218 0.11012 0.79005 0.0
O58 O 0.05125 0.11101 0.81576 0.0
C59 C 0.0177 0.12111 0.7871 0.0
O60 O 0.02749 0.13737 0.81779 0.0
Co61 Co 0.02536 0.1538 0.78574 0.0
O62 O 0.0125 0.15463 0.8049 0.0
C63 C 0.05905 0.15224 0.79269 0.0
C64 C 0.05702 0.10465 0.80327 0.0
C65 C 0.01661 0.14772 0.81737 0.0
O66 O 0.05704 0.14026 0.80152 0.0
O67 O 0.04822 0.15816 0.78432 0.0
O68 O 0.02094 0.11116 0.79805 0.0
O69 O 0.02811 0.13161 0.78481 0.0
Co70 Co 0.88323 0.28923 0.05177 0.0
O71 O 0.8975 0.3019 0.04008 0.0
O72 O 0.89658 0.301 0.06579 0.0
C73 C 0.88657 0.26741 0.03716 0.0
O74 O 0.87024 0.27721 0.0678 0.0
Co75 Co 0.85386 0.27502 0.03573 0.0
O76 O 0.85301 0.2622 0.05492 0.0
C77 C 0.85536 0.30872 0.04266 0.0
C78 C 0.90296 0.30676 0.0533 0.0
C79 C 0.8599 0.26633 0.06739 0.0
O80 O 0.86734 0.30674 0.05149 0.0
O81 O 0.84947 0.29788 0.0343 0.0
O82 O 0.8965 0.27067 0.04812 0.0
O83 O 0.87605 0.2778 0.03483 0.0
Co84 Co 0.71809 0.13312 0.30179 0.0
O85 O 0.70542 0.14739 0.2901 0.0
O86 O 0.70636 0.14651 0.31581 0.0
C87 C 0.7399 0.13641 0.28714 0.0
O88 O 0.73012 0.12015 0.31783 0.0
Co89 Co 0.73225 0.10371 0.28579 0.0
O90 O 0.7451 0.10288 0.30495 0.0
C91 C 0.69855 0.10528 0.29273 0.0
C92 C 0.70058 0.15287 0.30332 0.0
C93 C 0.741 0.1098 0.31741 0.0
O94 O 0.70057 0.11725 0.30156 0.0
O95 O 0.70938 0.09936 0.28436 0.0
O96 O 0.73666 0.14636 0.2981 0.0
O97 O 0.72949 0.12591 0.28485 0.0
Co98 Co 0.87423 0.96824 0.55184 0.0
O99 O 0.85996 0.95559 0.54013 0.0
O100 O 0.86086 0.95648 0.56583 0.0
C101 C 0.87092 0.99008 0.53723 0.0
O102 O 0.88721 0.98025 0.56789 0.0
Co103 Co 0.90362 0.98243 0.53583 0.0
O104 O 0.90447 0.99525 0.55502 0.0
C105 C 0.90209 0.94873 0.54274 0.0
C106 C 0.85449 0.95072 0.55334 0.0
C107 C 0.89756 0.99113 0.56748 0.0
O108 O 0.89011 0.95073 0.55157 0.0
O109 O 0.90799 0.95957 0.53438 0.0
O110 O 0.86098 0.98681 0.54818 0.0
O111 O 0.88143 0.97968 0.53491 0.0
Co112 Co 0.45564 0.03923 0.1333 0.0
O113 O 0.46734 0.05188 0.14758 0.0
O114 O 0.44164 0.05099 0.14667 0.0
C115 C 0.47025 0.0174 0.13659 0.0
O116 O 0.4396 0.02724 0.1203 0.0
Co117 Co 0.47166 0.02508 0.10389 0.0
O118 O 0.45248 0.01226 0.10303 0.0
C119 C 0.46475 0.05878 0.10547 0.0
C120 C 0.45413 0.05674 0.15305 0.0
C121 C 0.44001 0.01637 0.10994 0.0
O122 O 0.45591 0.05677 0.11744 0.0
O123 O 0.47312 0.04794 0.09955 0.0
O124 O 0.4593 0.02065 0.14653 0.0
O125 O 0.47257 0.02781 0.12609 0.0
Co126 Co 0.96829 0.70575 0.38321 0.0
O127 O 0.95563 0.71744 0.39749 0.0
O128 O 0.95656 0.69173 0.3966 0.0
C129 C 0.99011 0.72038 0.38649 0.0
O130 O 0.98031 0.68971 0.37023 0.0
Co131 Co 0.98244 0.72176 0.3538 0.0
O132 O 0.99528 0.70259 0.35295 0.0
C133 C 0.94874 0.71481 0.35537 0.0
C134 C 0.95079 0.70422 0.40296 0.0
C135 C 0.99118 0.69012 0.35987 0.0
O136 O 0.95076 0.70599 0.36735 0.0
O137 O 0.95957 0.72319 0.34946 0.0
O138 O 0.98687 0.70943 0.39644 0.0
O139 O 0.9797 0.72268 0.37599 0.0
Co140 Co 0.30184 0.21814 0.63315 0.0
O141 O 0.29015 0.20547 0.64743 0.0
O142 O 0.31586 0.2064 0.64652 0.0
C143 C 0.28721 0.23995 0.63645 0.0
O144 O 0.31787 0.23016 0.62016 0.0
Co145 Co 0.28581 0.2323 0.60375 0.0
O146 O 0.30498 0.24514 0.6029 0.0
C147 C 0.29275 0.1986 0.60531 0.0
C148 C 0.30337 0.20063 0.65289 0.0
C149 C 0.31745 0.24104 0.60981 0.0
O150 O 0.30159 0.20061 0.61728 0.0
O151 O 0.28437 0.20943 0.59941 0.0
O152 O 0.29816 0.23671 0.64639 0.0
O153 O 0.2849 0.22955 0.62594 0.0
Co154 Co 0.78922 0.55193 0.88324 0.0
O155 O 0.80186 0.54021 0.89751 0.0
O156 O 0.80102 0.56592 0.8966 0.0
C157 C 0.76736 0.53737 0.88657 0.0
O158 O 0.77725 0.568 0.87025 0.0
Co159 Co 0.77498 0.53593 0.85386 0.0
O160 O 0.76222 0.55516 0.853 0.0
C161 C 0.8087 0.54278 0.85538 0.0
C162 C 0.80675 0.55341 0.90297 0.0
C163 C 0.76637 0.56761 0.8599 0.0
O164 O 0.80673 0.55162 0.86735 0.0
O165 O 0.79784 0.53444 0.84948 0.0
O166 O 0.77065 0.54832 0.8965 0.0
O167 O 0.77775 0.53503 0.87605 0.0
Co168 Co 0.45562 0.21819 0.12441 0.0
O169 O 0.46734 0.20554 0.11015 0.0
O170 O 0.44164 0.20642 0.11103 0.0
C171 C 0.47023 0.24003 0.1211 0.0
O172 O 0.43956 0.23019 0.13738 0.0
Co173 Co 0.47161 0.2324 0.1538 0.0
O174 O 0.45242 0.24521 0.15463 0.0
C175 C 0.46472 0.19869 0.15227 0.0
C176 C 0.45414 0.20067 0.10467 0.0
C177 C 0.43996 0.24108 0.14772 0.0
O178 O 0.45589 0.20068 0.14029 0.0
O179 O 0.47307 0.20954 0.15818 0.0
O180 O 0.45928 0.23676 0.11115 0.0
O181 O 0.47254 0.22963 0.13162 0.0
Co182 Co 0.78937 0.70567 0.37428 0.0
O183 O 0.80203 0.71737 0.36002 0.0
O184 O 0.80112 0.69167 0.36091 0.0
C185 C 0.76754 0.72029 0.37098 0.0
O186 O 0.77735 0.68962 0.38726 0.0
Co187 Co 0.77518 0.72167 0.40368 0.0
O188 O 0.76234 0.70249 0.40451 0.0
C189 C 0.80888 0.71474 0.40215 0.0
C190 C 0.80689 0.70416 0.35455 0.0
C191 C 0.76647 0.69003 0.3976 0.0
O192 O 0.80688 0.70592 0.39017 0.0
O193 O 0.79803 0.7231 0.40806 0.0
O194 O 0.7708 0.70934 0.36103 0.0
O195 O 0.77794 0.72259 0.38149 0.0
Co196 Co 0.30183 0.03922 0.62428 0.0
O197 O 0.29012 0.05187 0.61 0.0
O198 O 0.31583 0.05099 0.61091 0.0
C199 C 0.28724 0.01738 0.62098 0.0
O200 O 0.31788 0.02723 0.63727 0.0
Co201 Co 0.28582 0.02503 0.65367 0.0
O202 O 0.30502 0.01223 0.65453 0.0
C203 C 0.29272 0.05873 0.65213 0.0
C204 C 0.30333 0.05673 0.60453 0.0
C205 C 0.31748 0.01636 0.64763 0.0
O206 O 0.30155 0.05674 0.64015 0.0
O207 O 0.28436 0.04789 0.65804 0.0
O208 O 0.29819 0.02065 0.61103 0.0
O209 O 0.28491 0.02778 0.63148 0.0
Co210 Co 0.96814 0.55182 0.87431 0.0
O211 O 0.95548 0.5401 0.86005 0.0
O212 O 0.95638 0.56581 0.86092 0.0
C213 C 0.98997 0.5372 0.87104 0.0
O214 O 0.98014 0.56788 0.88728 0.0
Co215 Co 0.98231 0.53585 0.90373 0.0
O216 O 0.99513 0.55504 0.90456 0.0
C217 C 0.94861 0.54275 0.90217 0.0
C218 C 0.95063 0.55331 0.85457 0.0
C219 C 0.99101 0.56749 0.89764 0.0
O220 O 0.95061 0.55157 0.89018 0.0
O221 O 0.95945 0.5344 0.90809 0.0
O222 O 0.98671 0.54814 0.86108 0.0
O223 O 0.97956 0.5349 0.88154 0.0
Co224 Co 0.1331 0.45573 0.03942 0.0
O225 O 0.14738 0.46743 0.05208 0.0
O226 O 0.14651 0.44172 0.05114 0.0
C227 C 0.13636 0.47038 0.01761 0.0
O228 O 0.12013 0.43969 0.0274 0.0
Co229 Co 0.10367 0.47172 0.02529 0.0
O230 O 0.10285 0.45256 0.01243 0.0
C231 C 0.10527 0.46477 0.05898 0.0
C232 C 0.15287 0.45422 0.05691 0.0
C233 C 0.10977 0.4401 0.01653 0.0
O234 O 0.11725 0.45595 0.05696 0.0
O235 O 0.09934 0.47314 0.04815 0.0
O236 O 0.14632 0.45944 0.02084 0.0
O237 O 0.12587 0.47267 0.02803 0.0
Co238 Co 0.63321 0.30179 0.21824 0.0
O239 O 0.64749 0.29007 0.2056 0.0
O240 O 0.64659 0.31578 0.20649 0.0
C241 C 0.63649 0.28718 0.24008 0.0
O242 O 0.62022 0.31784 0.23024 0.0
Co243 Co 0.6038 0.28578 0.23241 0.0
O244 O 0.60294 0.30497 0.24522 0.0
C245 C 0.60537 0.29269 0.19871 0.0
C246 C 0.65296 0.30328 0.20074 0.0
C247 C 0.60986 0.31743 0.2411 0.0
O248 O 0.61734 0.30152 0.20071 0.0
O249 O 0.59945 0.28433 0.20954 0.0
O250 O 0.64644 0.29812 0.23682 0.0
O251 O 0.62599 0.28486 0.22967 0.0
Co252 Co 0.70563 0.8832 0.46819 0.0
O253 O 0.71733 0.89747 0.45554 0.0
O254 O 0.69163 0.89657 0.45643 0.0
C255 C 0.72023 0.88649 0.49002 0.0
O256 O 0.68957 0.87021 0.48018 0.0
Co257 Co 0.72163 0.85379 0.48237 0.0
O258 O 0.70244 0.85294 0.49518 0.0
C259 C 0.71473 0.85535 0.44866 0.0
C260 C 0.70412 0.90294 0.45068 0.0
C261 C 0.68998 0.85985 0.49106 0.0
O262 O 0.7059 0.86733 0.45066 0.0
O263 O 0.72309 0.84944 0.45951 0.0
O264 O 0.70928 0.89643 0.48677 0.0
O265 O 0.72255 0.87598 0.47962 0.0
Co266 Co 0.12431 0.95567 0.71819 0.0
O267 O 0.11003 0.96738 0.70554 0.0
O268 O 0.11092 0.94168 0.70645 0.0
C269 C 0.12103 0.9703 0.74002 0.0
O270 O 0.13729 0.93962 0.7302 0.0
Co271 Co 0.15372 0.97168 0.73234 0.0
O272 O 0.15457 0.95249 0.74517 0.0
C273 C 0.15215 0.96475 0.69865 0.0
C274 C 0.10455 0.95417 0.70069 0.0
C275 C 0.14765 0.94003 0.74107 0.0
O276 O 0.14017 0.95592 0.70066 0.0
O277 O 0.15807 0.97312 0.70948 0.0
O278 O 0.11108 0.95935 0.73677 0.0
O279 O 0.13153 0.9726 0.72961 0.0
Co280 Co 0.55181 0.37435 0.4682 0.0
O281 O 0.54011 0.36007 0.45555 0.0
O282 O 0.56582 0.36097 0.45645 0.0
C283 C 0.53719 0.37106 0.49002 0.0
O284 O 0.56785 0.38734 0.4802 0.0
Co285 Co 0.53579 0.40375 0.48236 0.0
O286 O 0.55497 0.4046 0.49519 0.0
C287 C 0.54272 0.40219 0.44866 0.0
C288 C 0.55332 0.3546 0.4507 0.0
C289 C 0.56744 0.39769 0.49108 0.0
O290 O 0.55155 0.39022 0.45067 0.0
O291 O 0.53436 0.40811 0.4595 0.0
O292 O 0.54814 0.36111 0.48678 0.0
O293 O 0.53488 0.38156 0.47962 0.0
Co294 Co 0.12429 0.80185 0.0393 0.0
O295 O 0.11003 0.79014 0.05196 0.0
O296 O 0.11093 0.81585 0.05108 0.0
C297 C 0.12097 0.78726 0.01747 0.0
O298 O 0.13727 0.8179 0.0273 0.0
Co299 Co 0.15367 0.78585 0.02509 0.0
O300 O 0.15451 0.80504 0.01227 0.0
C301 C 0.15216 0.79274 0.05879 0.0
C302 C 0.10456 0.80335 0.05683 0.0
C303 C 0.1476 0.8175 0.01641 0.0
O304 O 0.14018 0.80157 0.05681 0.0
O305 O 0.15806 0.78439 0.04794 0.0
O306 O 0.11103 0.7982 0.02074 0.0
O307 O 0.13149 0.78493 0.02786 0.0
Co308 Co 0.70572 0.87431 0.28925 0.0
O309 O 0.71743 0.86004 0.30191 0.0
O310 O 0.69172 0.86093 0.301 0.0
C311 C 0.72034 0.87101 0.26743 0.0
O312 O 0.68967 0.88728 0.27724 0.0
Co313 Co 0.72172 0.90371 0.27507 0.0
O314 O 0.70254 0.90455 0.26224 0.0
C315 C 0.7148 0.90217 0.30877 0.0
C316 C 0.70422 0.85457 0.30677 0.0
C317 C 0.69008 0.89763 0.26636 0.0
O318 O 0.70597 0.89019 0.30677 0.0
O319 O 0.72316 0.90808 0.29793 0.0
O320 O 0.70939 0.86106 0.27068 0.0
O321 O 0.72265 0.88152 0.27783 0.0
Co322 Co 0.05188 0.38318 0.78939 0.0
O323 O 0.04017 0.39743 0.80205 0.0
O324 O 0.06588 0.39658 0.80112 0.0
C325 C 0.03722 0.38644 0.76758 0.0
O326 O 0.06794 0.37022 0.77736 0.0
Co327 Co 0.03591 0.35374 0.77524 0.0
O328 O 0.05507 0.35294 0.76238 0.0
C329 C 0.04287 0.35532 0.80893 0.0
C330 C 0.05337 0.40293 0.80689 0.0
C331 C 0.06752 0.35987 0.76648 0.0
O332 O 0.05168 0.36731 0.80691 0.0
O333 O 0.0345 0.34939 0.79811 0.0
O334 O 0.04816 0.3964 0.77081 0.0
O335 O 0.03495 0.37593 0.77799 0.0
Co336 Co 0.9682 0.87436 0.55179 0.0
O337 O 0.95554 0.86009 0.54009 0.0
O338 O 0.95646 0.86097 0.56579 0.0
C339 C 0.99001 0.87108 0.53716 0.0
O340 O 0.98021 0.88734 0.56784 0.0
Co341 Co 0.98235 0.90378 0.53579 0.0
O342 O 0.99519 0.90461 0.55497 0.0
C343 C 0.94865 0.9022 0.54273 0.0
C344 C 0.95069 0.8546 0.5533 0.0
C345 C 0.99108 0.89769 0.56743 0.0
O346 O 0.95066 0.89022 0.55155 0.0
O347 O 0.95948 0.90812 0.53436 0.0
O348 O 0.98677 0.86113 0.5481 0.0
O349 O 0.9796 0.88159 0.53486 0.0
Co350 Co 0.13326 0.71826 0.30181 0.0
O351 O 0.14754 0.7056 0.29011 0.0
O352 O 0.14663 0.7065 0.31582 0.0
C353 C 0.13657 0.74009 0.2872 0.0
O354 O 0.12027 0.73027 0.31785 0.0
Co355 Co 0.10388 0.73244 0.28578 0.0
O356 O 0.10303 0.74527 0.30496 0.0
C357 C 0.10541 0.69874 0.2927 0.0
C358 C 0.153 0.70074 0.30333 0.0
C359 C 0.10993 0.74115 0.31743 0.0
O360 O 0.11738 0.70074 0.30154 0.0
O361 O 0.09951 0.70959 0.28433 0.0
O362 O 0.14651 0.73683 0.29815 0.0
O363 O 0.12607 0.72969 0.28488 0.0
Co364 Co 0.28929 0.88322 0.05182 0.0
O365 O 0.30194 0.8975 0.04012 0.0
O366 O 0.30106 0.89657 0.06582 0.0
C367 C 0.26745 0.88653 0.03724 0.0
O368 O 0.2773 0.87022 0.06786 0.0
Co369 Co 0.2751 0.85384 0.03579 0.0
O370 O 0.2623 0.85296 0.05499 0.0
C371 C 0.3088 0.85537 0.04268 0.0
C372 C 0.30681 0.90296 0.05333 0.0
C373 C 0.26643 0.85986 0.06745 0.0
O374 O 0.30681 0.86734 0.05152 0.0
O375 O 0.29796 0.84947 0.03432 0.0
O376 O 0.27072 0.89647 0.04819 0.0
O377 O 0.27785 0.87603 0.0349 0.0
Co378 Co 0.12445 0.03932 0.80181 0.0
O379 O 0.11019 0.05199 0.79009 0.0
O380 O 0.11109 0.05111 0.8158 0.0
C381 C 0.12112 0.01749 0.78721 0.0
O382 O 0.13742 0.02732 0.81786 0.0
Co383 Co 0.15383 0.0251 0.78581 0.0
O384 O 0.15467 0.0123 0.805 0.0
C385 C 0.15232 0.05881 0.7927 0.0
C386 C 0.10473 0.05686 0.8033 0.0
C387 C 0.14776 0.01643 0.81746 0.0
O388 O 0.14034 0.05683 0.80153 0.0
O389 O 0.15822 0.04796 0.78435 0.0
O390 O 0.11118 0.02077 0.79816 0.0
O391 O 0.13164 0.02788 0.78489 0.0
Co392 Co 0.96827 0.8833 0.2056 0.0
O393 O 0.95563 0.89759 0.21731 0.0
O394 O 0.95648 0.89666 0.19161 0.0
C395 C 0.99013 0.88662 0.22017 0.0
O396 O 0.98024 0.8703 0.18955 0.0
Co397 Co 0.98247 0.85393 0.22163 0.0
O398 O 0.99525 0.85304 0.20242 0.0
C399 C 0.94876 0.85545 0.21476 0.0
C400 C 0.95075 0.90304 0.2041 0.0
C401 C 0.99111 0.85994 0.18996 0.0
O402 O 0.95075 0.86743 0.20592 0.0
O403 O 0.95962 0.84956 0.22312 0.0
O404 O 0.98684 0.89656 0.20921 0.0
O405 O 0.97973 0.87612 0.22252 0.0
Co406 Co 0.1242 0.71825 0.95564 0.0
O407 O 0.10991 0.70561 0.96735 0.0
O408 O 0.11081 0.70651 0.94164 0.0
C409 C 0.12091 0.74008 0.97026 0.0
O410 O 0.13719 0.73025 0.9396 0.0
Co411 Co 0.1536 0.73241 0.97166 0.0
O412 O 0.15446 0.74523 0.95247 0.0
C413 C 0.15203 0.69871 0.96474 0.0
C414 C 0.10444 0.70076 0.95414 0.0
C415 C 0.14755 0.74112 0.94001 0.0
O416 O 0.14006 0.70072 0.95591 0.0
O417 O 0.15795 0.70955 0.9731 0.0
O418 O 0.11097 0.73683 0.95931 0.0
O419 O 0.13141 0.72967 0.97257 0.0
Co420 Co 0.2893 0.87429 0.70569 0.0
O421 O 0.30197 0.86003 0.71741 0.0
O422 O 0.30107 0.86091 0.6917 0.0
C423 C 0.26748 0.87099 0.72031 0.0
O424 O 0.27729 0.88725 0.68963 0.0
Co425 Co 0.27511 0.90369 0.72168 0.0
O426 O 0.26228 0.90451 0.70249 0.0
C427 C 0.30881 0.90216 0.71477 0.0
C428 C 0.30683 0.85456 0.7042 0.0
C429 C 0.2664 0.89759 0.69004 0.0
O430 O 0.30682 0.89018 0.70594 0.0
O431 O 0.29796 0.90807 0.72312 0.0
O432 O 0.27074 0.86104 0.70936 0.0
O433 O 0.27787 0.8815 0.72261 0.0
Co434 Co 0.13315 0.03934 0.45565 0.0
O435 O 0.14741 0.052 0.46737 0.0
O436 O 0.14651 0.05112 0.44166 0.0
C437 C 0.13646 0.0175 0.47025 0.0
O438 O 0.12017 0.02734 0.4396 0.0
Co439 Co 0.10376 0.02513 0.47165 0.0
O440 O 0.10291 0.01233 0.45245 0.0
C441 C 0.10528 0.05884 0.46476 0.0
C442 C 0.15288 0.05687 0.45416 0.0
C443 C 0.10982 0.01646 0.43999 0.0
O444 O 0.11726 0.05685 0.45593 0.0
O445 O 0.09938 0.04799 0.47311 0.0
O446 O 0.1464 0.02077 0.4593 0.0
O447 O 0.12595 0.0279 0.47257 0.0
Co448 Co 0.55191 0.9683 0.87423 0.0
O449 O 0.5402 0.95566 0.85995 0.0
O450 O 0.56591 0.95653 0.86086 0.0
C451 C 0.53732 0.99014 0.87095 0.0
O452 O 0.56796 0.98028 0.88723 0.0
Co453 Co 0.5359 0.98247 0.90364 0.0
O454 O 0.5551 0.99526 0.90451 0.0
C455 C 0.54279 0.94876 0.90207 0.0
C456 C 0.55341 0.95079 0.85448 0.0
C457 C 0.56756 0.99114 0.8976 0.0
O458 O 0.55163 0.95076 0.8901 0.0
O459 O 0.53444 0.95961 0.90799 0.0
O460 O 0.54827 0.98688 0.861 0.0
O461 O 0.53499 0.97973 0.88145 0.0
Co462 Co 0.03928 0.30183 0.62436 0.0
O463 O 0.05193 0.29013 0.61008 0.0
O464 O 0.05107 0.31584 0.61103 0.0
C465 C 0.01743 0.28726 0.62101 0.0
O466 O 0.02729 0.31786 0.63737 0.0
Co467 Co 0.02505 0.28577 0.65371 0.0
O468 O 0.01227 0.30498 0.6546 0.0
C469 C 0.05876 0.29266 0.65223 0.0
C470 C 0.05681 0.30335 0.60463 0.0
C471 C 0.01641 0.31745 0.64772 0.0
O472 O 0.05679 0.3015 0.64025 0.0
O473 O 0.04791 0.2843 0.65811 0.0
O474 O 0.02072 0.29822 0.61109 0.0
O475 O 0.02782 0.2849 0.63152 0.0
Co476 Co 0.70571 0.78929 0.37425 0.0
O477 O 0.71742 0.80196 0.35999 0.0
O478 O 0.69171 0.80104 0.36086 0.0
C479 C 0.72034 0.76747 0.37096 0.0
O480 O 0.68965 0.77727 0.38721 0.0
Co481 Co 0.7217 0.77512 0.40366 0.0
O482 O 0.70252 0.76227 0.40448 0.0
C483 C 0.71477 0.80881 0.40211 0.0
C484 C 0.70421 0.80681 0.35451 0.0
C485 C 0.69006 0.76639 0.39756 0.0
O486 O 0.70595 0.80681 0.39013 0.0
O487 O 0.72313 0.79798 0.40802 0.0
O488 O 0.70939 0.77073 0.361 0.0
O489 O 0.72263 0.77788 0.38147 0.0
Co490 Co 0.21819 0.45569 0.12434 0.0
O491 O 0.20553 0.4674 0.11007 0.0
O492 O 0.20643 0.4417 0.11096 0.0
C493 C 0.24002 0.4703 0.12105 0.0
O494 O 0.23019 0.43964 0.13732 0.0
Co495 Co 0.23236 0.47169 0.15375 0.0
O496 O 0.24518 0.45251 0.15459 0.0
C497 C 0.19866 0.46478 0.15219 0.0
C498 C 0.20067 0.45419 0.1046 0.0
C499 C 0.24106 0.44005 0.14767 0.0
O500 O 0.20066 0.45595 0.14021 0.0
O501 O 0.2095 0.47314 0.1581 0.0
O502 O 0.23676 0.45936 0.1111 0.0
O503 O 0.22961 0.47262 0.13155 0.0
Co504 Co 0.55191 0.78943 0.88308 0.0
O505 O 0.5402 0.80209 0.89735 0.0
O506 O 0.56591 0.80119 0.89646 0.0
C507 C 0.53729 0.7676 0.88639 0.0
O508 O 0.56796 0.77742 0.8701 0.0
Co509 Co 0.53591 0.77523 0.85368 0.0
O510 O 0.5551 0.76241 0.85285 0.0
C511 C 0.54283 0.80894 0.85522 0.0
C512 C 0.55341 0.80694 0.90282 0.0
C513 C 0.56756 0.76654 0.85976 0.0
O514 O 0.55165 0.80695 0.8672 0.0
O515 O 0.53447 0.79809 0.84931 0.0
O516 O 0.54824 0.77086 0.89633 0.0
O517 O 0.53498 0.778 0.87587 0.0
Co518 Co 0.21818 0.30178 0.63316 0.0
O519 O 0.20551 0.29009 0.64743 0.0
O520 O 0.20644 0.31579 0.64654 0.0
C521 C 0.24 0.28714 0.63646 0.0
O522 O 0.23021 0.31782 0.62018 0.0
Co523 Co 0.23235 0.28577 0.60376 0.0
O524 O 0.2452 0.30494 0.60293 0.0
C525 C 0.19866 0.29271 0.60531 0.0
C526 C 0.20067 0.3033 0.6529 0.0
C527 C 0.24109 0.3174 0.60984 0.0
O528 O 0.20066 0.30154 0.61729 0.0
O529 O 0.20949 0.28434 0.5994 0.0
O530 O 0.23675 0.29809 0.64641 0.0
O531 O 0.22959 0.28484 0.62595 0.0
Co532 Co 0.70561 0.96821 0.38319 0.0
O533 O 0.71732 0.95556 0.39747 0.0
O534 O 0.69161 0.95642 0.39655 0.0
C535 C 0.72019 0.99005 0.3865 0.0
O536 O 0.68955 0.98019 0.3702 0.0
Co537 Co 0.72161 0.98242 0.3538 0.0
O538 O 0.7024 0.9952 0.35294 0.0
C539 C 0.71474 0.94871 0.35534 0.0
C540 C 0.70411 0.95068 0.40293 0.0
C541 C 0.68995 0.99107 0.35985 0.0
O542 O 0.7059 0.95069 0.36731 0.0
O543 O 0.72309 0.95956 0.34943 0.0
O544 O 0.70924 0.98678 0.39644 0.0
O545 O 0.72252 0.97966 0.376 0.0
Co546 Co 0.03921 0.45559 0.13338 0.0
O547 O 0.05185 0.46732 0.14765 0.0
O548 O 0.05098 0.44161 0.14676 0.0
C549 C 0.01736 0.47018 0.13666 0.0
O550 O 0.02723 0.43952 0.12039 0.0
Co551 Co 0.02503 0.47158 0.10396 0.0
O552 O 0.01223 0.45237 0.10311 0.0
C553 C 0.05874 0.4647 0.10553 0.0
C554 C 0.05672 0.45411 0.15312 0.0
C555 C 0.01636 0.43992 0.11003 0.0
O556 O 0.05674 0.45587 0.11751 0.0
O557 O 0.04789 0.47305 0.09962 0.0
O558 O 0.02063 0.45924 0.14661 0.0
O559 O 0.02776 0.4725 0.12616 0.0
Co560 Co 0.87422 0.5518 0.96825 0.0
O561 O 0.85995 0.54012 0.95558 0.0
O562 O 0.86085 0.56582 0.95651 0.0
C563 C 0.87093 0.53717 0.99007 0.0
O564 O 0.88721 0.56784 0.98027 0.0
Co565 Co 0.90363 0.53578 0.9824 0.0
O566 O 0.90448 0.55495 0.99525 0.0
C567 C 0.90207 0.54273 0.94871 0.0
C568 C 0.85448 0.55333 0.95074 0.0
C569 C 0.89757 0.56741 0.99115 0.0
O570 O 0.89009 0.55156 0.95072 0.0
O571 O 0.90798 0.53435 0.95954 0.0
O572 O 0.86099 0.54812 0.98682 0.0
O573 O 0.88143 0.53486 0.97966 0.0
Co574 Co 0.37429 0.70565 0.78934 0.0
O575 O 0.36 0.71736 0.80198 0.0
O576 O 0.36091 0.69165 0.80109 0.0
C577 C 0.37101 0.72026 0.76751 0.0
O578 O 0.38729 0.6896 0.77735 0.0
Co579 Co 0.4037 0.72166 0.77518 0.0
O580 O 0.40456 0.70247 0.76237 0.0
C581 C 0.40212 0.71476 0.80888 0.0
C582 C 0.35453 0.70415 0.80684 0.0
C583 C 0.39765 0.69001 0.76648 0.0
O584 O 0.39015 0.70592 0.80687 0.0
O585 O 0.40804 0.72312 0.79804 0.0
O586 O 0.36106 0.70931 0.77076 0.0
O587 O 0.3815 0.72258 0.77791 0.0
Co588 Co 0.30182 0.1242 0.53925 0.0
O589 O 0.29012 0.10992 0.5519 0.0
O590 O 0.31582 0.11082 0.551 0.0
C591 C 0.28722 0.12092 0.51741 0.0
O592 O 0.31788 0.13719 0.52726 0.0
Co593 Co 0.28582 0.15361 0.52509 0.0
O594 O 0.30501 0.15447 0.51228 0.0
C595 C 0.29273 0.15204 0.55879 0.0
C596 C 0.30333 0.10445 0.55675 0.0
C597 C 0.31747 0.14755 0.51639 0.0
O598 O 0.30156 0.14006 0.55678 0.0
O599 O 0.28437 0.15796 0.54795 0.0
O600 O 0.29816 0.11097 0.52067 0.0
O601 O 0.2849 0.13142 0.52782 0.0
Co602 Co 0.88313 0.05188 0.28928 0.0
O603 O 0.89742 0.04018 0.30193 0.0
O604 O 0.89648 0.06588 0.30106 0.0
C605 C 0.88647 0.0373 0.26743 0.0
O606 O 0.87013 0.06792 0.27729 0.0
Co607 Co 0.85376 0.03583 0.27507 0.0
O608 O 0.85288 0.05504 0.26228 0.0
C609 C 0.85528 0.04272 0.30878 0.0
C610 C 0.90286 0.05339 0.30681 0.0
C611 C 0.85978 0.0675 0.26641 0.0
O612 O 0.86725 0.05157 0.30679 0.0
O613 O 0.84939 0.03436 0.29793 0.0
O614 O 0.89639 0.04826 0.27071 0.0
O615 O 0.87596 0.03495 0.27783 0.0
Co616 Co 0.45572 0.63312 0.5394 0.0
O617 O 0.46741 0.64739 0.55206 0.0
O618 O 0.4417 0.64649 0.55114 0.0
C619 C 0.47036 0.63641 0.51758 0.0
O620 O 0.43969 0.62012 0.52738 0.0
Co621 Co 0.47176 0.60372 0.52524 0.0
O622 O 0.45259 0.60287 0.5124 0.0
C623 C 0.46481 0.60527 0.55893 0.0
C624 C 0.45419 0.65286 0.5569 0.0
C625 C 0.44012 0.60977 0.5165 0.0
O626 O 0.45598 0.61724 0.55692 0.0
O627 O 0.47319 0.59936 0.5481 0.0
O628 O 0.4594 0.64635 0.52082 0.0
O629 O 0.47267 0.62591 0.52799 0.0
Co630 Co 0.88336 0.20562 0.96812 0.0
O631 O 0.89763 0.21734 0.95547 0.0
O632 O 0.89674 0.19163 0.95636 0.0
C633 C 0.88664 0.22023 0.98996 0.0
O634 O 0.87038 0.18957 0.98012 0.0
Co635 Co 0.85395 0.22162 0.98229 0.0
O636 O 0.8531 0.20243 0.99511 0.0
C637 C 0.85551 0.21471 0.94859 0.0
C638 C 0.90311 0.20413 0.95061 0.0
C639 C 0.86002 0.18997 0.99099 0.0
O640 O 0.86749 0.20588 0.95059 0.0
O641 O 0.8496 0.22307 0.95943 0.0
O642 O 0.8966 0.20929 0.9867 0.0
O643 O 0.87614 0.22254 0.97955 0.0
Co644 Co 0.30195 0.13315 0.71817 0.0
O645 O 0.29023 0.14742 0.70553 0.0
O646 O 0.31594 0.14651 0.70638 0.0
C647 C 0.28738 0.13648 0.74003 0.0
O648 O 0.31801 0.12017 0.73016 0.0
Co649 Co 0.28594 0.10378 0.7324 0.0
O650 O 0.30514 0.10293 0.74519 0.0
C651 C 0.29279 0.10529 0.69869 0.0
C652 C 0.30343 0.15288 0.70064 0.0
C653 C 0.3176 0.10983 0.74105 0.0
O654 O 0.30164 0.11726 0.70067 0.0
O655 O 0.28444 0.0994 0.70955 0.0
O656 O 0.29833 0.14642 0.73674 0.0
O657 O 0.28504 0.12597 0.72964 0.0
Co658 Co 0.95571 0.62422 0.21827 0.0
O659 O 0.9674 0.60994 0.20562 0.0
O660 O 0.9417 0.61085 0.20652 0.0
C661 C 0.97031 0.62093 0.2401 0.0
O662 O 0.93967 0.63722 0.23026 0.0
Co663 Co 0.97174 0.65362 0.23243 0.0
O664 O 0.95255 0.6545 0.24524 0.0
C665 C 0.96482 0.65206 0.19873 0.0
C666 C 0.95419 0.60448 0.20076 0.0
C667 C 0.94008 0.64759 0.24113 0.0
O668 O 0.95598 0.64009 0.20074 0.0
O669 O 0.97319 0.65797 0.20956 0.0
O670 O 0.95936 0.61099 0.23685 0.0
O671 O 0.97264 0.63143 0.22969 0.0
Co672 Co 0.03913 0.6333 0.95563 0.0
O673 O 0.05178 0.64759 0.96734 0.0
O674 O 0.05088 0.64669 0.94163 0.0
C675 C 0.0173 0.63658 0.97024 0.0
O676 O 0.02715 0.62031 0.93958 0.0
Co677 Co 0.02499 0.60389 0.97164 0.0
O678 O 0.01218 0.60301 0.95245 0.0
C679 C 0.05868 0.60548 0.96474 0.0
C680 C 0.05664 0.65306 0.95413 0.0
C681 C 0.01629 0.60993 0.93999 0.0
O682 O 0.05667 0.61745 0.9559 0.0
O683 O 0.04785 0.59956 0.9731 0.0
O684 O 0.02055 0.64653 0.95929 0.0
O685 O 0.02771 0.62608 0.97256 0.0
Co686 Co 0.8744 0.78934 0.20569 0.0
O687 O 0.86012 0.802 0.21738 0.0
O688 O 0.86103 0.8011 0.19168 0.0
C689 C 0.87109 0.76751 0.2203 0.0
O690 O 0.88739 0.77733 0.18965 0.0
Co691 Co 0.90379 0.77517 0.22172 0.0
O692 O 0.90464 0.76234 0.20254 0.0
C693 C 0.90224 0.80887 0.21479 0.0
C694 C 0.85466 0.80686 0.20417 0.0
C695 C 0.89774 0.76645 0.19007 0.0
O696 O 0.89027 0.80686 0.20595 0.0
O697 O 0.90815 0.79803 0.22316 0.0
O698 O 0.86115 0.77077 0.20935 0.0
O699 O 0.8816 0.77792 0.22262 0.0
Co700 Co 0.71828 0.62427 0.4556 0.0
O701 O 0.70563 0.61 0.46731 0.0
O702 O 0.70649 0.61092 0.4416 0.0
C703 C 0.74013 0.62093 0.47017 0.0
O704 O 0.73027 0.63726 0.43955 0.0
Co705 Co 0.73251 0.65364 0.47162 0.0
O706 O 0.74531 0.65449 0.45242 0.0
C707 C 0.6988 0.65214 0.46474 0.0
C708 C 0.70075 0.60454 0.4541 0.0
C709 C 0.74116 0.6476 0.43996 0.0
O710 O 0.70078 0.64016 0.45591 0.0
O711 O 0.70966 0.65803 0.47309 0.0
O712 O 0.73685 0.611 0.45922 0.0
O713 O 0.72975 0.63145 0.47252 0.0
Co714 Co 0.88318 0.46814 0.70565 0.0
O715 O 0.89745 0.45549 0.71737 0.0
O716 O 0.89658 0.45639 0.69166 0.0
C717 C 0.88646 0.48997 0.72027 0.0
O718 O 0.8702 0.48013 0.6896 0.0
Co719 Co 0.85376 0.4823 0.72164 0.0
O720 O 0.85292 0.49512 0.70245 0.0
C721 C 0.85534 0.4486 0.71473 0.0
C722 C 0.90294 0.45064 0.70416 0.0
C723 C 0.85984 0.491 0.69 0.0
O724 O 0.86732 0.45061 0.7059 0.0
O725 O 0.84942 0.45943 0.72309 0.0
O726 O 0.89641 0.48672 0.70933 0.0
O727 O 0.87595 0.47956 0.72257 0.0
Co728 Co 0.03935 0.62434 0.30188 0.0
O729 O 0.052 0.61006 0.29018 0.0
O730 O 0.05113 0.61099 0.31589 0.0
C731 C 0.0175 0.62101 0.28729 0.0
O732 O 0.02735 0.63734 0.31792 0.0
Co733 Co 0.02514 0.65371 0.28584 0.0
O734 O 0.01235 0.65459 0.30504 0.0
C735 C 0.05885 0.65219 0.29273 0.0
C736 C 0.05687 0.60461 0.30339 0.0
C737 C 0.01648 0.6477 0.31751 0.0
O738 O 0.05686 0.64023 0.30158 0.0
O739 O 0.048 0.65809 0.28437 0.0
O740 O 0.02078 0.61108 0.29825 0.0
O741 O 0.0279 0.63152 0.28495 0.0
Co742 Co 0.88325 0.78929 0.55179 0.0
O743 O 0.89752 0.80195 0.54008 0.0
O744 O 0.8966 0.80107 0.56579 0.0
C745 C 0.88657 0.76745 0.5372 0.0
O746 O 0.87025 0.77729 0.56783 0.0
Co747 Co 0.85387 0.7751 0.53575 0.0
O748 O 0.853 0.76229 0.55495 0.0
C749 C 0.8554 0.8088 0.54265 0.0
C750 C 0.90298 0.80682 0.5533 0.0
C751 C 0.8599 0.76641 0.56741 0.0
O752 O 0.86736 0.80681 0.55149 0.0
O753 O 0.8495 0.79795 0.53428 0.0
O754 O 0.8965 0.77072 0.54815 0.0
O755 O 0.87606 0.77785 0.53486 0.0
Co756 Co 0.71827 0.63331 0.80178 0.0
O757 O 0.70561 0.64757 0.79006 0.0
O758 O 0.70653 0.64671 0.81577 0.0
C759 C 0.74009 0.63657 0.78715 0.0
O760 O 0.73028 0.62034 0.81785 0.0
Co761 Co 0.73243 0.60387 0.78582 0.0
O762 O 0.74526 0.60305 0.805 0.0
C763 C 0.69873 0.60545 0.79275 0.0
C764 C 0.70077 0.65306 0.80327 0.0
C765 C 0.74115 0.60998 0.81745 0.0
O766 O 0.70074 0.61744 0.80156 0.0
O767 O 0.70956 0.59952 0.78439 0.0
O768 O 0.73685 0.64653 0.79808 0.0
O769 O 0.72968 0.62606 0.78486 0.0
Co770 Co 0.8743 0.46813 0.05186 0.0
O771 O 0.86004 0.45546 0.04016 0.0
O772 O 0.86094 0.45636 0.06587 0.0
C773 C 0.87098 0.48996 0.03725 0.0
O774 O 0.88727 0.48015 0.06791 0.0
Co775 Co 0.90369 0.48235 0.03586 0.0
O776 O 0.90451 0.49518 0.05504 0.0
C777 C 0.90218 0.44864 0.04278 0.0
C778 C 0.85458 0.4506 0.05337 0.0
C779 C 0.89761 0.49105 0.0675 0.0
O780 O 0.8902 0.45063 0.0516 0.0
O781 O 0.90808 0.45949 0.03442 0.0
O782 O 0.86104 0.48669 0.0482 0.0
O783 O 0.8815 0.47957 0.03494 0.0
Co784 Co 0.45566 0.53923 0.63336 0.0
O785 O 0.46738 0.55188 0.64763 0.0
O786 O 0.44167 0.551 0.64673 0.0
C787 C 0.47025 0.51739 0.63665 0.0
O788 O 0.4396 0.52725 0.62037 0.0
Co789 Co 0.47166 0.52504 0.60396 0.0
O790 O 0.45246 0.51225 0.6031 0.0
C791 C 0.46478 0.55874 0.6055 0.0
C792 C 0.45417 0.55675 0.6531 0.0
C793 C 0.44 0.51637 0.61001 0.0
O794 O 0.45595 0.55675 0.61748 0.0
O795 O 0.47313 0.5479 0.5996 0.0
O796 O 0.45931 0.52066 0.6466 0.0
O797 O 0.47258 0.52779 0.62615 0.0
Co798 Co 0.9684 0.20568 0.88315 0.0
O799 O 0.95574 0.21738 0.89743 0.0
O800 O 0.95661 0.19167 0.89648 0.0
C801 C 0.99024 0.22025 0.88649 0.0
O802 O 0.98039 0.18964 0.87014 0.0
Co803 Co 0.98261 0.22173 0.85379 0.0
O804 O 0.99541 0.20253 0.85291 0.0
C805 C 0.94891 0.21484 0.85529 0.0
C806 C 0.95086 0.20416 0.90287 0.0
C807 C 0.99127 0.19006 0.85979 0.0
O808 O 0.95089 0.206 0.86726 0.0
O809 O 0.95976 0.2232 0.8494 0.0
O810 O 0.98696 0.20929 0.89641 0.0
O811 O 0.97985 0.22261 0.87598 0.0
Co812 Co 0.3019 0.71821 0.13321 0.0
O813 O 0.29021 0.70556 0.1475 0.0
O814 O 0.31591 0.70646 0.14658 0.0
C815 C 0.28729 0.74004 0.13651 0.0
O816 O 0.31794 0.73021 0.12021 0.0
Co817 Co 0.28587 0.73237 0.10381 0.0
O818 O 0.30505 0.74519 0.10295 0.0
C819 C 0.29279 0.69867 0.10538 0.0
C820 C 0.30342 0.7007 0.15296 0.0
C821 C 0.31752 0.74108 0.10985 0.0
O822 O 0.30163 0.70068 0.11735 0.0
O823 O 0.28442 0.7095 0.09947 0.0
O824 O 0.29824 0.73678 0.14645 0.0
O825 O 0.28497 0.72963 0.12601 0.0
Co826 Co 0.78921 0.05182 0.38318 0.0
O827 O 0.80186 0.04012 0.39747 0.0
O828 O 0.80099 0.06583 0.39654 0.0
C829 C 0.76737 0.03724 0.3865 0.0
O830 O 0.77722 0.06787 0.37018 0.0
Co831 Co 0.77502 0.03579 0.3538 0.0
O832 O 0.76222 0.05499 0.35293 0.0
C833 C 0.80872 0.04269 0.35533 0.0
C834 C 0.80674 0.05333 0.40292 0.0
C835 C 0.76635 0.06746 0.35983 0.0
O836 O 0.80673 0.05153 0.3673 0.0
O837 O 0.79788 0.03433 0.34943 0.0
O838 O 0.77064 0.04819 0.39644 0.0
O839 O 0.77777 0.0349 0.376 0.0
Co840 Co 0.45564 0.71814 0.62437 0.0
O841 O 0.46735 0.70549 0.61011 0.0
O842 O 0.44164 0.70637 0.61101 0.0
C843 C 0.47024 0.73998 0.62106 0.0
O844 O 0.43959 0.73015 0.63736 0.0
Co845 Co 0.47165 0.73235 0.65376 0.0
O846 O 0.45246 0.74516 0.6546 0.0
C847 C 0.46476 0.69864 0.65223 0.0
C848 C 0.45414 0.70062 0.60464 0.0
C849 C 0.44 0.74103 0.6477 0.0
O850 O 0.45592 0.70063 0.64026 0.0
O851 O 0.47312 0.70949 0.65813 0.0
O852 O 0.45929 0.73671 0.61112 0.0
O853 O 0.47256 0.72958 0.63157 0.0
Co854 Co 0.78939 0.20568 0.87423 0.0
O855 O 0.80206 0.21738 0.85997 0.0
O856 O 0.80113 0.19168 0.86085 0.0
C857 C 0.76758 0.22032 0.87096 0.0
O858 O 0.77737 0.18963 0.88721 0.0
Co859 Co 0.77525 0.22167 0.90366 0.0
O860 O 0.7624 0.20251 0.90449 0.0
C861 C 0.80894 0.21473 0.90208 0.0
C862 C 0.80691 0.20417 0.85449 0.0
C863 C 0.7665 0.19005 0.89756 0.0
O864 O 0.80692 0.20591 0.8901 0.0
O865 O 0.79812 0.2231 0.908 0.0
O866 O 0.77082 0.20938 0.861 0.0
O867 O 0.77799 0.22261 0.88146 0.0
Co868 Co 0.30184 0.53932 0.12433 0.0
O869 O 0.29013 0.55198 0.11006 0.0
O870 O 0.31584 0.55107 0.11094 0.0
C871 C 0.28722 0.5175 0.12104 0.0
O872 O 0.31789 0.52731 0.1373 0.0
Co873 Co 0.28585 0.52514 0.15373 0.0
O874 O 0.30503 0.51231 0.15457 0.0
C875 C 0.29277 0.55884 0.15218 0.0
C876 C 0.30334 0.55683 0.10458 0.0
C877 C 0.31748 0.51643 0.14765 0.0
O878 O 0.30159 0.55684 0.1402 0.0
O879 O 0.28441 0.54801 0.1581 0.0
O880 O 0.29816 0.52075 0.11109 0.0
O881 O 0.28491 0.5279 0.13154 0.0
Co882 Co 0.96815 0.05191 0.37427 0.0
O883 O 0.9555 0.0402 0.36 0.0
O884 O 0.95637 0.06591 0.36091 0.0
C885 C 0.98999 0.03732 0.37095 0.0
O886 O 0.98016 0.06796 0.38726 0.0
Co887 Co 0.98236 0.0359 0.40365 0.0
O888 O 0.99518 0.05509 0.40449 0.0
C889 C 0.94866 0.04279 0.40213 0.0
C890 C 0.95062 0.05341 0.35454 0.0
C891 C 0.99104 0.06755 0.39759 0.0
O892 O 0.95064 0.05162 0.39016 0.0
O893 O 0.95951 0.03443 0.40803 0.0
O894 O 0.98672 0.04827 0.36101 0.0
O895 O 0.9796 0.03499 0.38146 0.0
Co896 Co 0.13321 0.9557 0.53927 0.0
O897 O 0.1475 0.96738 0.55192 0.0
O898 O 0.14657 0.94168 0.55101 0.0
C899 C 0.1365 0.97031 0.51744 0.0
O900 O 0.1202 0.93967 0.52726 0.0
Co901 Co 0.10381 0.97175 0.52512 0.0
O902 O 0.10293 0.95257 0.51229 0.0
C903 C 0.10538 0.96481 0.55881 0.0
C904 C 0.15295 0.95417 0.55677 0.0
C905 C 0.10984 0.9401 0.5164 0.0
O906 O 0.11734 0.95597 0.5568 0.0
O907 O 0.09947 0.97319 0.54798 0.0
O908 O 0.14644 0.95936 0.52069 0.0
O909 O 0.12601 0.97264 0.52785 0.0
Co910 Co 0.63323 0.80195 0.71809 0.0
O911 O 0.64749 0.79021 0.70544 0.0
O912 O 0.64661 0.81592 0.70631 0.0
C913 C 0.63654 0.78736 0.73994 0.0
O914 O 0.62027 0.81802 0.73009 0.0
Co915 Co 0.60383 0.78598 0.73232 0.0
O916 O 0.60301 0.80518 0.74511 0.0
C917 C 0.60536 0.79284 0.6986 0.0
C918 C 0.65296 0.80341 0.70056 0.0
C919 C 0.60993 0.81763 0.74097 0.0
O920 O 0.61735 0.80167 0.70058 0.0
O921 O 0.59946 0.7845 0.70946 0.0
O922 O 0.64649 0.7983 0.73666 0.0
O923 O 0.62602 0.78504 0.72955 0.0
Co924 Co 0.70564 0.38323 0.96829 0.0
O925 O 0.71735 0.39752 0.95565 0.0
O926 O 0.69164 0.39661 0.95653 0.0
C927 C 0.72024 0.38652 0.99013 0.0
O928 O 0.68959 0.37024 0.98028 0.0
Co929 Co 0.72165 0.35383 0.98247 0.0
O930 O 0.70246 0.35297 0.99527 0.0
C931 C 0.71476 0.35539 0.94877 0.0
C932 C 0.70414 0.40298 0.95079 0.0
C933 C 0.69 0.35988 0.99115 0.0
O934 O 0.70592 0.36736 0.95076 0.0
O935 O 0.72311 0.34948 0.95961 0.0
O936 O 0.70929 0.39647 0.98687 0.0
O937 O 0.72256 0.37602 0.97973 0.0
Co938 Co 0.12429 0.45572 0.2183 0.0
O939 O 0.11 0.46741 0.20565 0.0
O940 O 0.11091 0.4417 0.20657 0.0
C941 C 0.12101 0.47035 0.24012 0.0
O942 O 0.1373 0.43969 0.2303 0.0
Co943 Co 0.1537 0.47176 0.23243 0.0
O944 O 0.15457 0.45258 0.24527 0.0
C945 C 0.15212 0.46481 0.19874 0.0
C946 C 0.10453 0.45419 0.20081 0.0
C947 C 0.14766 0.44012 0.24117 0.0
O948 O 0.14015 0.45598 0.20076 0.0
O949 O 0.15804 0.47319 0.20956 0.0
O950 O 0.11107 0.4594 0.23688 0.0
O951 O 0.13151 0.47266 0.2297 0.0
Co952 Co 0.55186 0.87437 0.96815 0.0
O953 O 0.54016 0.8601 0.95547 0.0
O954 O 0.56587 0.861 0.95639 0.0
C955 C 0.53723 0.87106 0.98996 0.0
O956 O 0.56789 0.88735 0.98017 0.0
Co957 Co 0.53584 0.90376 0.98233 0.0
O958 O 0.55501 0.9046 0.99517 0.0
C959 C 0.54277 0.90222 0.94863 0.0
C960 C 0.55338 0.85464 0.95062 0.0
C961 C 0.56748 0.89769 0.99105 0.0
O962 O 0.5516 0.89025 0.95063 0.0
O963 O 0.5344 0.90813 0.95947 0.0
O964 O 0.54818 0.86111 0.98671 0.0
O965 O 0.53492 0.88157 0.97957 0.0
Co966 Co 0.12422 0.30191 0.53929 0.0
O967 O 0.10996 0.29019 0.55195 0.0
O968 O 0.11086 0.31589 0.55108 0.0
C969 C 0.1209 0.28732 0.51744 0.0
O970 O 0.1372 0.31797 0.5273 0.0
Co971 Co 0.15361 0.28591 0.52506 0.0
O972 O 0.15445 0.30512 0.51227 0.0
C973 C 0.15209 0.29278 0.55877 0.0
C974 C 0.1045 0.30339 0.55683 0.0
C975 C 0.14754 0.31757 0.51641 0.0
O976 O 0.14011 0.30162 0.5568 0.0
O977 O 0.15799 0.28443 0.54792 0.0
O978 O 0.11096 0.29827 0.52073 0.0
O979 O 0.13142 0.28499 0.52783 0.0
Co980 Co 0.70563 0.3744 0.78941 0.0
O981 O 0.71735 0.36012 0.80206 0.0
O982 O 0.69164 0.36103 0.80119 0.0
C983 C 0.72023 0.37109 0.76758 0.0
O984 O 0.68958 0.38739 0.77742 0.0
Co985 Co 0.72165 0.40379 0.77522 0.0
O986 O 0.70246 0.40464 0.76241 0.0
C987 C 0.71475 0.40225 0.80893 0.0
C988 C 0.70414 0.35465 0.80693 0.0
C989 C 0.68999 0.39774 0.76654 0.0
O990 O 0.70592 0.39027 0.80694 0.0
O991 O 0.72311 0.40815 0.79808 0.0
O992 O 0.70928 0.36115 0.77084 0.0
O993 O 0.72256 0.3816 0.77798 0.0
Co994 Co 0.05191 0.88334 0.28918 0.0
O995 O 0.04019 0.89761 0.30182 0.0
O996 O 0.0659 0.89671 0.30096 0.0
C997 C 0.03733 0.88664 0.26733 0.0
O998 O 0.06797 0.87035 0.2772 0.0
Co999 Co 0.03591 0.85394 0.27498 0.0
O1000 O 0.05511 0.85309 0.26219 0.0
C1001 C 0.04279 0.85548 0.30869 0.0
C1002 C 0.05339 0.90308 0.3067 0.0
C1003 C 0.06757 0.86 0.26632 0.0
O1004 O 0.05162 0.86746 0.3067 0.0
O1005 O 0.03444 0.84957 0.29784 0.0
O1006 O 0.04827 0.89659 0.27061 0.0
O1007 O 0.03499 0.87614 0.27773 0.0
Co1008 Co 0.96824 0.37423 0.05191 0.0
O1009 O 0.95559 0.35998 0.04018 0.0
O1010 O 0.95646 0.36086 0.06589 0.0
C1011 C 0.99009 0.37093 0.03733 0.0
O1012 O 0.98023 0.3872 0.06799 0.0
Co1013 Co 0.98247 0.40363 0.03595 0.0
O1014 O 0.99526 0.40446 0.05515 0.0
C1015 C 0.94875 0.4021 0.04281 0.0
C1016 C 0.95072 0.3545 0.05338 0.0
C1017 C 0.99112 0.39754 0.0676 0.0
O1018 O 0.95073 0.39012 0.05163 0.0
O1019 O 0.95961 0.40801 0.03447 0.0
O1020 O 0.98681 0.36098 0.04827 0.0
O1021 O 0.9797 0.38145 0.03501 0.0
Co1022 Co 0.13345 0.2183 0.80187 0.0
O1023 O 0.14772 0.20565 0.79015 0.0
O1024 O 0.14683 0.20653 0.81586 0.0
C1025 C 0.13674 0.24015 0.78728 0.0
O1026 O 0.12048 0.23029 0.81794 0.0
Co1027 Co 0.10404 0.23249 0.7859 0.0
O1028 O 0.1032 0.24529 0.8051 0.0
C1029 C 0.1056 0.19879 0.79277 0.0
C1030 C 0.15319 0.20078 0.80335 0.0
C1031 C 0.11012 0.24116 0.81755 0.0
O1032 O 0.11758 0.20078 0.8016 0.0
O1033 O 0.09969 0.20963 0.78442 0.0
O1034 O 0.14669 0.23688 0.79822 0.0
O1035 O 0.12623 0.22975 0.78496 0.0
Co1036 Co 0.28928 0.38322 0.55189 0.0
O1037 O 0.30192 0.39751 0.5402 0.0
O1038 O 0.30106 0.39656 0.5659 0.0
C1039 C 0.26743 0.38655 0.53732 0.0
O1040 O 0.2773 0.3702 0.56793 0.0
Co1041 Co 0.27509 0.35385 0.53584 0.0
O1042 O 0.26229 0.35295 0.55504 0.0
C1043 C 0.30879 0.35538 0.54273 0.0
C1044 C 0.3068 0.40296 0.55341 0.0
C1045 C 0.26642 0.35985 0.56751 0.0
O1046 O 0.3068 0.36734 0.55158 0.0
O1047 O 0.29794 0.34948 0.53436 0.0
O1048 O 0.27071 0.39647 0.54828 0.0
O1049 O 0.27783 0.37604 0.53496 0.0
Co1050 Co 0.12439 0.53938 0.30191 0.0
O1051 O 0.11012 0.55204 0.2902 0.0
O1052 O 0.11102 0.55115 0.31591 0.0
C1053 C 0.12108 0.51755 0.28731 0.0
O1054 O 0.13738 0.52738 0.31796 0.0
Co1055 Co 0.15378 0.52519 0.2859 0.0
O1056 O 0.15463 0.51237 0.30508 0.0
C1057 C 0.15225 0.55889 0.2928 0.0
C1058 C 0.10465 0.5569 0.30341 0.0
C1059 C 0.14772 0.5165 0.31755 0.0
O1060 O 0.14027 0.5569 0.30163 0.0
O1061 O 0.15815 0.54805 0.28444 0.0
O1062 O 0.11114 0.52081 0.29826 0.0
O1063 O 0.13159 0.52795 0.28498 0.0
Co1064 Co 0.96819 0.38315 0.70575 0.0
O1065 O 0.95552 0.39742 0.71744 0.0
O1066 O 0.95646 0.39653 0.69173 0.0
C1067 C 0.99 0.38642 0.7204 0.0
O1068 O 0.98021 0.37015 0.68972 0.0
Co1069 Co 0.98232 0.35373 0.72177 0.0
O1070 O 0.99518 0.35289 0.70261 0.0
C1071 C 0.94863 0.35531 0.71481 0.0
C1072 C 0.95069 0.4029 0.70422 0.0
C1073 C 0.99108 0.3598 0.69014 0.0
O1074 O 0.95065 0.36728 0.70598 0.0
O1075 O 0.95945 0.34939 0.72318 0.0
O1076 O 0.98676 0.39637 0.70944 0.0
O1077 O 0.97958 0.37593 0.72269 0.0
Co1078 Co 0.12424 0.21827 0.45571 0.0
O1079 O 0.10996 0.20561 0.4674 0.0
O1080 O 0.1109 0.20649 0.4417 0.0
C1081 C 0.1209 0.24012 0.47029 0.0
O1082 O 0.13724 0.23027 0.43966 0.0
Co1083 Co 0.15361 0.23249 0.47174 0.0
O1084 O 0.15447 0.24529 0.45255 0.0
C1085 C 0.1521 0.19878 0.46485 0.0
C1086 C 0.10452 0.20074 0.45419 0.0
C1087 C 0.14758 0.24116 0.44008 0.0
O1088 O 0.14013 0.20076 0.45601 0.0
O1089 O 0.15799 0.20963 0.47321 0.0
O1090 O 0.11098 0.23684 0.45933 0.0
O1091 O 0.13142 0.22973 0.47263 0.0
Co1092 Co 0.28923 0.3743 0.2057 0.0
O1093 O 0.30188 0.36002 0.21741 0.0
O1094 O 0.30099 0.36092 0.1917 0.0
C1095 C 0.2674 0.37102 0.22031 0.0
O1096 O 0.27724 0.38729 0.18965 0.0
Co1097 Co 0.27507 0.40371 0.2217 0.0
O1098 O 0.26226 0.40457 0.20251 0.0
C1099 C 0.30877 0.40215 0.21479 0.0
C1100 C 0.30674 0.35455 0.2042 0.0
C1101 C 0.26637 0.39765 0.19005 0.0
O1102 O 0.30677 0.39017 0.20596 0.0
O1103 O 0.29793 0.40806 0.22315 0.0
O1104 O 0.27066 0.36107 0.20937 0.0
O1105 O 0.27781 0.38152 0.22262 0.0
Co1106 Co 0.13307 0.53938 0.95573 0.0
O1107 O 0.14734 0.55205 0.96742 0.0
O1108 O 0.14646 0.5511 0.94172 0.0
C1109 C 0.13634 0.51758 0.97039 0.0
O1110 O 0.12008 0.52736 0.9397 0.0
Co1111 Co 0.10365 0.52525 0.97176 0.0
O1112 O 0.10281 0.51239 0.9526 0.0
C1113 C 0.10523 0.55894 0.96479 0.0
C1114 C 0.15282 0.55688 0.95421 0.0
C1115 C 0.10973 0.51648 0.94013 0.0
O1116 O 0.1172 0.55692 0.95596 0.0
O1117 O 0.09931 0.54812 0.97317 0.0
O1118 O 0.14629 0.52081 0.95944 0.0
O1119 O 0.12584 0.52799 0.97268 0.0
Co1120 Co 0.55189 0.46824 0.37425 0.0
O1121 O 0.54017 0.45559 0.35997 0.0
O1122 O 0.56588 0.45646 0.36088 0.0
C1123 C 0.5373 0.49008 0.37094 0.0
O1124 O 0.56794 0.48023 0.38723 0.0
Co1125 Co 0.53588 0.48244 0.40364 0.0
O1126 O 0.55509 0.49523 0.4045 0.0
C1127 C 0.54276 0.44873 0.4021 0.0
C1128 C 0.55338 0.45072 0.35451 0.0
C1129 C 0.56754 0.4911 0.39759 0.0
O1130 O 0.5516 0.45072 0.39013 0.0
O1131 O 0.53441 0.45958 0.408 0.0
O1132 O 0.54825 0.48681 0.361 0.0
O1133 O 0.53497 0.47969 0.38145 0.0
Co1134 Co 0.03929 0.80183 0.12431 0.0
O1135 O 0.05196 0.79012 0.11005 0.0
O1136 O 0.05104 0.81583 0.11093 0.0
C1137 C 0.01748 0.78719 0.12103 0.0
O1138 O 0.02727 0.81788 0.13728 0.0
Co1139 Co 0.02512 0.78584 0.15373 0.0
O1140 O 0.01227 0.80502 0.15454 0.0
C1141 C 0.05882 0.79278 0.15217 0.0
C1142 C 0.05681 0.80333 0.10457 0.0
C1143 C 0.01639 0.81747 0.14762 0.0
O1144 O 0.05681 0.8016 0.14019 0.0
O1145 O 0.04798 0.78441 0.15809 0.0
O1146 O 0.02072 0.79814 0.11107 0.0
O1147 O 0.02788 0.7849 0.13154 0.0
Co1148 Co 0.70572 0.28933 0.87435 0.0
O1149 O 0.71741 0.30201 0.86009 0.0
O1150 O 0.6917 0.30108 0.86099 0.0
C1151 C 0.72037 0.26752 0.87104 0.0
O1152 O 0.68969 0.27729 0.88733 0.0
Co1153 Co 0.72175 0.27515 0.90374 0.0
O1154 O 0.70259 0.26229 0.90457 0.0
C1155 C 0.7148 0.30884 0.90221 0.0
C1156 C 0.70419 0.30685 0.85463 0.0
C1157 C 0.69012 0.26641 0.89767 0.0
O1158 O 0.70597 0.30684 0.89024 0.0
O1159 O 0.72317 0.29801 0.90812 0.0
O1160 O 0.70941 0.27077 0.8611 0.0
O1161 O 0.72267 0.27792 0.88155 0.0
Co1162 Co 0.21822 0.95559 0.62426 0.0
O1163 O 0.20558 0.9673 0.60999 0.0
O1164 O 0.20645 0.9416 0.61088 0.0
C1165 C 0.24006 0.97018 0.62097 0.0
O1166 O 0.23021 0.93953 0.63725 0.0
Co1167 Co 0.2324 0.97159 0.65367 0.0
O1168 O 0.2452 0.95239 0.65452 0.0
C1169 C 0.19869 0.9647 0.6521 0.0
C1170 C 0.20071 0.9541 0.60452 0.0
C1171 C 0.24108 0.93993 0.64761 0.0
O1172 O 0.20069 0.95587 0.64013 0.0
O1173 O 0.20954 0.97306 0.65801 0.0
O1174 O 0.2368 0.95923 0.61102 0.0
O1175 O 0.22966 0.9725 0.63147 0.0
Co1176 Co 0.55182 0.28928 0.38326 0.0
O1177 O 0.54012 0.30195 0.39752 0.0
O1178 O 0.56582 0.30104 0.39663 0.0
C1179 C 0.5372 0.26746 0.38655 0.0
O1180 O 0.56786 0.27727 0.37027 0.0
Co1181 Co 0.5358 0.27511 0.35386 0.0
O1182 O 0.55498 0.26228 0.35301 0.0
C1183 C 0.54274 0.30881 0.3554 0.0
C1184 C 0.55333 0.3068 0.40299 0.0
C1185 C 0.56745 0.26639 0.35993 0.0
O1186 O 0.55157 0.30681 0.36738 0.0
O1187 O 0.53437 0.29798 0.34949 0.0
O1188 O 0.54814 0.27072 0.3965 0.0
O1189 O 0.53489 0.27787 0.37605 0.0
Co1190 Co 0.21826 0.80183 0.13318 0.0
O1191 O 0.2056 0.79013 0.14746 0.0
O1192 O 0.2065 0.81584 0.14654 0.0
C1193 C 0.24009 0.78722 0.13649 0.0
O1194 O 0.23026 0.81787 0.12019 0.0
Co1195 Co 0.23244 0.7858 0.10379 0.0
O1196 O 0.24526 0.80499 0.10294 0.0
C1197 C 0.19873 0.79272 0.10533 0.0
C1198 C 0.20074 0.80334 0.15292 0.0
C1199 C 0.24114 0.81745 0.10984 0.0
O1200 O 0.20073 0.80155 0.1173 0.0
O1201 O 0.20958 0.78436 0.09942 0.0
O1202 O 0.23683 0.79817 0.14643 0.0
O1203 O 0.22968 0.7849 0.12598 0.0
Co1204 Co 0.70564 0.4683 0.88334 0.0
O1205 O 0.71735 0.45565 0.89763 0.0
O1206 O 0.69164 0.45652 0.89671 0.0
C1207 C 0.72022 0.49015 0.88665 0.0
O1208 O 0.68959 0.48029 0.87035 0.0
Co1209 Co 0.72167 0.48249 0.85395 0.0
O1210 O 0.70246 0.49528 0.85308 0.0
C1211 C 0.71477 0.44878 0.8555 0.0
C1212 C 0.70414 0.45078 0.90308 0.0
C1213 C 0.69 0.49116 0.85999 0.0
O1214 O 0.70593 0.45078 0.86747 0.0
O1215 O 0.72313 0.45963 0.84959 0.0
O1216 O 0.70927 0.48688 0.89659 0.0
O1217 O 0.72256 0.47975 0.87615 0.0
Co1218 Co 0.03929 0.95568 0.63319 0.0
O1219 O 0.05194 0.96739 0.64748 0.0
O1220 O 0.05104 0.94168 0.64657 0.0
C1221 C 0.01745 0.97029 0.63648 0.0
O1222 O 0.02729 0.93964 0.6202 0.0
Co1223 Co 0.02512 0.9717 0.60379 0.0
O1224 O 0.01231 0.95251 0.60292 0.0
C1225 C 0.05883 0.9648 0.60536 0.0
C1226 C 0.0568 0.95418 0.65294 0.0
C1227 C 0.01643 0.94005 0.60983 0.0
O1228 O 0.05682 0.95596 0.61733 0.0
O1229 O 0.04799 0.97316 0.59945 0.0
O1230 O 0.02071 0.95934 0.64643 0.0
O1231 O 0.02786 0.97261 0.62598 0.0
Co1232 Co 0.87423 0.05185 0.46818 0.0
O1233 O 0.85996 0.04014 0.45553 0.0
O1234 O 0.86086 0.06584 0.45641 0.0
C1235 C 0.87092 0.03725 0.49002 0.0
O1236 O 0.88721 0.0679 0.48018 0.0
Co1237 Co 0.90362 0.03584 0.48238 0.0
O1238 O 0.90446 0.05503 0.4952 0.0
C1239 C 0.90209 0.04275 0.44868 0.0
C1240 C 0.85449 0.05335 0.45066 0.0
C1241 C 0.89756 0.06749 0.49107 0.0
O1242 O 0.89011 0.05157 0.45067 0.0
O1243 O 0.908 0.03439 0.45953 0.0
O1244 O 0.86098 0.0482 0.48675 0.0
O1245 O 0.88143 0.03493 0.47962 0.0
Co1246 Co 0.37423 0.20564 0.28934 0.0
O1247 O 0.35997 0.21736 0.302 0.0
O1248 O 0.36085 0.19165 0.30112 0.0
C1249 C 0.37092 0.22024 0.26751 0.0
O1250 O 0.3872 0.18958 0.27734 0.0
Co1251 Co 0.40362 0.22163 0.27513 0.0
O1252 O 0.40445 0.20243 0.26232 0.0
C1253 C 0.4021 0.21473 0.30884 0.0
C1254 C 0.35449 0.20416 0.30687 0.0
C1255 C 0.39754 0.18998 0.26646 0.0
O1256 O 0.39011 0.20591 0.30686 0.0
O1257 O 0.408 0.22309 0.29799 0.0
O1258 O 0.36097 0.2093 0.27078 0.0
O1259 O 0.38143 0.22256 0.2779 0.0
Co1260 Co 0.30182 0.62429 0.03928 0.0
O1261 O 0.29012 0.61002 0.05195 0.0
O1262 O 0.31582 0.6109 0.05102 0.0
C1263 C 0.28718 0.62101 0.01747 0.0
O1264 O 0.31787 0.63726 0.02726 0.0
Co1265 Co 0.28583 0.65371 0.02512 0.0
O1266 O 0.30499 0.65454 0.01228 0.0
C1267 C 0.29277 0.65214 0.05882 0.0
C1268 C 0.30333 0.60454 0.05679 0.0
C1269 C 0.31745 0.64761 0.01638 0.0
O1270 O 0.30159 0.64016 0.0568 0.0
O1271 O 0.2844 0.65806 0.04799 0.0
O1272 O 0.29812 0.61106 0.0207 0.0
O1273 O 0.28489 0.63152 0.02787 0.0
Co1274 Co 0.88313 0.55177 0.78931 0.0
O1275 O 0.89739 0.54007 0.80198 0.0
O1276 O 0.8965 0.56577 0.80107 0.0
C1277 C 0.88643 0.53714 0.76749 0.0
O1278 O 0.87015 0.56781 0.77729 0.0
Co1279 Co 0.85373 0.53576 0.77512 0.0
O1280 O 0.85291 0.55493 0.76228 0.0
C1281 C 0.85526 0.54269 0.80882 0.0
C1282 C 0.90286 0.55328 0.80683 0.0
C1283 C 0.85982 0.56739 0.7664 0.0
O1284 O 0.86724 0.55151 0.80682 0.0
O1285 O 0.84935 0.53433 0.79798 0.0
O1286 O 0.89638 0.54809 0.77075 0.0
O1287 O 0.87592 0.53483 0.77789 0.0
Co1288 Co 0.45572 0.13319 0.0394 0.0
O1289 O 0.46741 0.14746 0.05208 0.0
O1290 O 0.4417 0.14656 0.05114 0.0
C1291 C 0.47036 0.13648 0.01759 0.0
O1292 O 0.43968 0.12021 0.02738 0.0
Co1293 Co 0.47173 0.10379 0.02524 0.0
O1294 O 0.45257 0.10295 0.01239 0.0
C1295 C 0.46478 0.10534 0.05894 0.0
C1296 C 0.45419 0.15293 0.05692 0.0
C1297 C 0.4401 0.10986 0.0165 0.0
O1298 O 0.45595 0.11731 0.05693 0.0
O1299 O 0.47316 0.09943 0.04811 0.0
O1300 O 0.45941 0.14643 0.02084 0.0
O1301 O 0.47265 0.12598 0.028 0.0
Co1302 Co 0.88329 0.70562 0.46822 0.0
O1303 O 0.89754 0.71735 0.45557 0.0
O1304 O 0.89667 0.69164 0.45644 0.0
C1305 C 0.88658 0.72021 0.49006 0.0
O1306 O 0.87032 0.68954 0.48021 0.0
Co1307 Co 0.85387 0.72157 0.48242 0.0
O1308 O 0.85305 0.70237 0.49523 0.0
C1309 C 0.85542 0.7147 0.44871 0.0
C1310 C 0.90303 0.70415 0.4507 0.0
C1311 C 0.85998 0.68992 0.49109 0.0
O1312 O 0.86741 0.70588 0.4507 0.0
O1313 O 0.8495 0.72304 0.45957 0.0
O1314 O 0.89653 0.70928 0.48679 0.0
O1315 O 0.87606 0.72252 0.47966 0.0
Co1316 Co 0.30194 0.63324 0.21825 0.0
O1317 O 0.29023 0.64752 0.2056 0.0
O1318 O 0.31594 0.6466 0.20648 0.0
C1319 C 0.28735 0.63655 0.24009 0.0
O1320 O 0.31798 0.62024 0.23024 0.0
Co1321 Co 0.28591 0.60385 0.23244 0.0
O1322 O 0.30511 0.60298 0.24524 0.0
C1323 C 0.29281 0.60539 0.19874 0.0
C1324 C 0.30344 0.65298 0.20073 0.0
C1325 C 0.31757 0.60989 0.24112 0.0
O1326 O 0.30165 0.61736 0.20073 0.0
O1327 O 0.28445 0.59949 0.20958 0.0
O1328 O 0.2983 0.64649 0.23682 0.0
O1329 O 0.28501 0.62605 0.2297 0.0
Co1330 Co 0.9558 0.12435 0.71812 0.0
O1331 O 0.96748 0.11007 0.70545 0.0
O1332 O 0.94178 0.11095 0.70641 0.0
C1333 C 0.97047 0.12108 0.73992 0.0
O1334 O 0.93977 0.13733 0.73016 0.0
Co1335 Co 0.97182 0.15377 0.73224 0.0
O1336 O 0.95267 0.1546 0.74512 0.0
C1337 C 0.96483 0.15219 0.69856 0.0
C1338 C 0.95426 0.10459 0.70062 0.0
C1339 C 0.9402 0.14768 0.74103 0.0
O1340 O 0.95601 0.14021 0.70059 0.0
O1341 O 0.97321 0.15811 0.70938 0.0
O1342 O 0.95952 0.11112 0.7367 0.0
O1343 O 0.97275 0.13158 0.7295 0.0
Co1344 Co 0.53937 0.1332 0.95575 0.0
O1345 O 0.55204 0.14746 0.96744 0.0
O1346 O 0.55111 0.14658 0.94174 0.0
C1347 C 0.51756 0.13649 0.97039 0.0
O1348 O 0.52734 0.12022 0.93971 0.0
Co1349 Co 0.52521 0.10379 0.97175 0.0
O1350 O 0.51236 0.10296 0.95259 0.0
C1351 C 0.5589 0.10535 0.9648 0.0
C1352 C 0.55689 0.15294 0.95423 0.0
C1353 C 0.51646 0.10988 0.94013 0.0
O1354 O 0.55689 0.11732 0.95598 0.0
O1355 O 0.54807 0.09943 0.97318 0.0
O1356 O 0.5208 0.14644 0.95944 0.0
O1357 O 0.52797 0.12598 0.97269 0.0
Co1358 Co 0.37421 0.28927 0.20572 0.0
O1359 O 0.35994 0.30192 0.21742 0.0
O1360 O 0.36084 0.30103 0.19172 0.0
C1361 C 0.3709 0.26743 0.22032 0.0
O1362 O 0.3872 0.27726 0.18967 0.0
Co1363 Co 0.4036 0.27508 0.22174 0.0
O1364 O 0.40446 0.26226 0.20255 0.0
C1365 C 0.40207 0.30878 0.21482 0.0
C1366 C 0.35447 0.30678 0.20421 0.0
C1367 C 0.39755 0.26639 0.19009 0.0
O1368 O 0.39009 0.30678 0.20599 0.0
O1369 O 0.40797 0.29794 0.22319 0.0
O1370 O 0.36096 0.2707 0.20937 0.0
O1371 O 0.38141 0.27783 0.22265 0.0
Co1372 Co 0.21814 0.12435 0.45569 0.0
O1373 O 0.20549 0.11007 0.46739 0.0
O1374 O 0.20636 0.11101 0.44168 0.0
C1375 C 0.23999 0.12101 0.47026 0.0
O1376 O 0.23014 0.13735 0.43965 0.0
Co1377 Co 0.23237 0.15371 0.47173 0.0
O1378 O 0.24516 0.15459 0.45253 0.0
C1379 C 0.19866 0.15222 0.46485 0.0
C1380 C 0.20061 0.10463 0.45418 0.0
C1381 C 0.24102 0.1477 0.44006 0.0
O1382 O 0.20064 0.14024 0.456 0.0
O1383 O 0.20951 0.1581 0.4732 0.0
O1384 O 0.23671 0.11109 0.45931 0.0
O1385 O 0.2296 0.13152 0.47261 0.0
Co1386 Co 0.38322 0.96821 0.70566 0.0
O1387 O 0.3975 0.95555 0.71735 0.0
O1388 O 0.39658 0.95645 0.69165 0.0
C1389 C 0.38654 0.99004 0.72027 0.0
O1390 O 0.37023 0.98022 0.68962 0.0
Co1391 Co 0.35384 0.98241 0.72169 0.0
O1392 O 0.35299 0.99523 0.7025 0.0
C1393 C 0.35537 0.94871 0.71477 0.0
C1394 C 0.40296 0.95069 0.70414 0.0
C1395 C 0.35989 0.9911 0.69003 0.0
O1396 O 0.36734 0.9507 0.70594 0.0
O1397 O 0.34947 0.95955 0.72313 0.0
O1398 O 0.39648 0.98678 0.70931 0.0
O1399 O 0.37603 0.97964 0.72259 0.0
Co1400 Co 0.5392 0.12423 0.3019 0.0
O1401 O 0.55184 0.10996 0.29018 0.0
O1402 O 0.55098 0.11087 0.31589 0.0
C1403 C 0.51735 0.12092 0.28732 0.0
O1404 O 0.52722 0.13723 0.31795 0.0
Co1405 Co 0.525 0.15362 0.28589 0.0
O1406 O 0.51221 0.15448 0.30509 0.0
C1407 C 0.55871 0.15209 0.29277 0.0
C1408 C 0.55672 0.10449 0.30339 0.0
C1409 C 0.51634 0.14758 0.31755 0.0
O1410 O 0.55672 0.14011 0.3016 0.0
O1411 O 0.54786 0.15799 0.28442 0.0
O1412 O 0.52063 0.11098 0.29827 0.0
O1413 O 0.52775 0.13143 0.28498 0.0
Co1414 Co 0.38319 0.2893 0.55184 0.0
O1415 O 0.39747 0.30195 0.54014 0.0
O1416 O 0.39655 0.30107 0.56585 0.0
C1417 C 0.38651 0.26746 0.53725 0.0
O1418 O 0.37019 0.2773 0.56788 0.0
Co1419 Co 0.35381 0.27511 0.5358 0.0
O1420 O 0.35294 0.2623 0.55499 0.0
C1421 C 0.35534 0.30882 0.54271 0.0
C1422 C 0.40293 0.30682 0.55335 0.0
C1423 C 0.35984 0.26642 0.56746 0.0
O1424 O 0.36731 0.30682 0.55155 0.0
O1425 O 0.34944 0.29797 0.53434 0.0
O1426 O 0.39644 0.27073 0.5482 0.0
O1427 O 0.376 0.27786 0.53491 0.0
Co1428 Co 0.21839 0.13322 0.80182 0.0
O1429 O 0.20574 0.14751 0.79012 0.0
O1430 O 0.20662 0.14659 0.81582 0.0
C1431 C 0.24023 0.13653 0.78724 0.0
O1432 O 0.23037 0.12023 0.81788 0.0
Co1433 Co 0.23258 0.10383 0.78582 0.0
O1434 O 0.24538 0.10297 0.80502 0.0
C1435 C 0.19887 0.10537 0.7927 0.0
C1436 C 0.20088 0.15297 0.80333 0.0
C1437 C 0.24125 0.10988 0.81748 0.0
O1438 O 0.20086 0.11735 0.80154 0.0
O1439 O 0.20972 0.09946 0.78435 0.0
O1440 O 0.23696 0.14647 0.79819 0.0
O1441 O 0.22983 0.12602 0.78491 0.0
Co1442 Co 0.37428 0.96823 0.05187 0.0
O1443 O 0.36001 0.95559 0.04015 0.0
O1444 O 0.36091 0.95646 0.06586 0.0
C1445 C 0.37099 0.99008 0.03729 0.0
O1446 O 0.38727 0.98022 0.06793 0.0
Co1447 Co 0.40369 0.98242 0.03587 0.0
O1448 O 0.40455 0.99521 0.05507 0.0
C1449 C 0.40213 0.94871 0.04275 0.0
C1450 C 0.35454 0.95072 0.05336 0.0
C1451 C 0.39763 0.99109 0.06753 0.0
O1452 O 0.39015 0.95071 0.05159 0.0
O1453 O 0.40804 0.95956 0.03439 0.0
O1454 O 0.36104 0.98681 0.04823 0.0
O1455 O 0.38149 0.97968 0.03496 0.0
Co1456 Co 0.95565 0.03931 0.63315 0.0
O1457 O 0.96738 0.05197 0.6474 0.0
O1458 O 0.94167 0.05109 0.64653 0.0
C1459 C 0.97025 0.01747 0.63645 0.0
O1460 O 0.93958 0.02731 0.62018 0.0
Co1461 Co 0.97162 0.0251 0.60374 0.0
O1462 O 0.95243 0.01229 0.60292 0.0
C1463 C 0.96474 0.05881 0.60527 0.0
C1464 C 0.95418 0.05684 0.65288 0.0
C1465 C 0.93998 0.01643 0.60984 0.0
O1466 O 0.95592 0.05682 0.61726 0.0
O1467 O 0.97308 0.04796 0.59936 0.0
O1468 O 0.95931 0.02075 0.6464 0.0
O1469 O 0.97257 0.02786 0.62593 0.0
Co1470 Co 0.46825 0.70578 0.88323 0.0
O1471 O 0.45558 0.71747 0.89751 0.0
O1472 O 0.45653 0.69176 0.89662 0.0
C1473 C 0.49006 0.72043 0.8865 0.0
O1474 O 0.48027 0.68975 0.87024 0.0
Co1475 Co 0.48237 0.7218 0.85381 0.0
O1476 O 0.49523 0.70265 0.85296 0.0
C1477 C 0.44868 0.71483 0.8554 0.0
C1478 C 0.45075 0.70425 0.90298 0.0
C1479 C 0.49114 0.69018 0.85989 0.0
O1480 O 0.45071 0.70601 0.86737 0.0
O1481 O 0.4595 0.72322 0.84948 0.0
O1482 O 0.48683 0.70948 0.89645 0.0
O1483 O 0.47964 0.72273 0.87601 0.0
Co1484 Co 0.80185 0.21813 0.13309 0.0
O1485 O 0.79014 0.20547 0.14735 0.0
O1486 O 0.81585 0.20637 0.14647 0.0
C1487 C 0.78724 0.23996 0.13639 0.0
O1488 O 0.81791 0.23013 0.12011 0.0
Co1489 Co 0.78586 0.23232 0.10369 0.0
O1490 O 0.80504 0.24514 0.10286 0.0
C1491 C 0.79278 0.19862 0.10522 0.0
C1492 C 0.80334 0.20062 0.15283 0.0
C1493 C 0.8175 0.24102 0.10977 0.0
O1494 O 0.80159 0.20061 0.11721 0.0
O1495 O 0.78442 0.20947 0.09931 0.0
O1496 O 0.79819 0.2367 0.14634 0.0
O1497 O 0.78493 0.22956 0.12588 0.0
Co1498 Co 0.28936 0.55191 0.38325 0.0
O1499 O 0.30201 0.54019 0.39752 0.0
O1500 O 0.30115 0.56589 0.39662 0.0
C1501 C 0.26751 0.53732 0.38657 0.0
O1502 O 0.27737 0.56797 0.37028 0.0
Co1503 Co 0.27514 0.53592 0.35386 0.0
O1504 O 0.26234 0.55512 0.35303 0.0
C1505 C 0.30885 0.54279 0.35539 0.0
C1506 C 0.30689 0.55339 0.40298 0.0
C1507 C 0.26648 0.56758 0.35994 0.0
O1508 O 0.30687 0.55162 0.36737 0.0
O1509 O 0.29799 0.53444 0.34949 0.0
O1510 O 0.27079 0.54827 0.39651 0.0
O1511 O 0.2779 0.535 0.37605 0.0
Co1512 Co 0.95561 0.21827 0.6242 0.0
O1513 O 0.96732 0.20562 0.60991 0.0
O1514 O 0.94161 0.20651 0.61082 0.0
C1515 C 0.97021 0.24011 0.62091 0.0
O1516 O 0.93956 0.23026 0.63719 0.0
Co1517 Co 0.97162 0.23243 0.6536 0.0
O1518 O 0.95243 0.24524 0.65447 0.0
C1519 C 0.96473 0.19873 0.65203 0.0
C1520 C 0.95411 0.20076 0.60445 0.0
C1521 C 0.93997 0.24112 0.64755 0.0
O1522 O 0.95589 0.20074 0.64006 0.0
O1523 O 0.97309 0.20957 0.65794 0.0
O1524 O 0.95927 0.23685 0.61096 0.0
O1525 O 0.97253 0.2297 0.63141 0.0
Co1526 Co 0.28923 0.70566 0.87429 0.0
O1527 O 0.30189 0.71736 0.86002 0.0
O1528 O 0.30099 0.69166 0.86092 0.0
C1529 C 0.2674 0.72027 0.87099 0.0
O1530 O 0.27723 0.68962 0.88728 0.0
Co1531 Co 0.27506 0.72168 0.90369 0.0
O1532 O 0.26224 0.70249 0.90455 0.0
C1533 C 0.30876 0.71476 0.90214 0.0
C1534 C 0.30675 0.70415 0.85455 0.0
C1535 C 0.26636 0.69003 0.89764 0.0
O1536 O 0.30676 0.70593 0.89016 0.0
O1537 O 0.29793 0.72313 0.90805 0.0
O1538 O 0.27066 0.70932 0.86105 0.0
O1539 O 0.27781 0.72259 0.8815 0.0
Co1540 Co 0.80189 0.03927 0.12418 0.0
O1541 O 0.79019 0.05192 0.10988 0.0
O1542 O 0.8159 0.05102 0.1108 0.0
C1543 C 0.78728 0.01744 0.12089 0.0
O1544 O 0.81793 0.02729 0.13718 0.0
Co1545 Co 0.78586 0.02512 0.15358 0.0
O1546 O 0.80506 0.01231 0.15446 0.0
C1547 C 0.79277 0.05882 0.152 0.0
C1548 C 0.80341 0.05677 0.10442 0.0
C1549 C 0.81752 0.01642 0.14755 0.0
O1550 O 0.80161 0.05681 0.14003 0.0
O1551 O 0.78441 0.04799 0.15791 0.0
O1552 O 0.79824 0.02069 0.11095 0.0
O1553 O 0.78496 0.02785 0.13138 0.0
Co1554 Co 0.46826 0.55182 0.37432 0.0
O1555 O 0.45561 0.54011 0.36004 0.0
O1556 O 0.45646 0.56582 0.36097 0.0
C1557 C 0.49011 0.53726 0.37099 0.0
O1558 O 0.48024 0.56788 0.38731 0.0
Co1559 Co 0.48248 0.5358 0.40369 0.0
O1560 O 0.49526 0.55501 0.40456 0.0
C1561 C 0.44877 0.54267 0.40218 0.0
C1562 C 0.45073 0.55332 0.35459 0.0
C1563 C 0.49112 0.56748 0.39767 0.0
O1564 O 0.45074 0.55151 0.39021 0.0
O1565 O 0.45962 0.53432 0.40807 0.0
O1566 O 0.48682 0.54821 0.36106 0.0
O1567 O 0.47972 0.53491 0.3815 0.0
Co1568 Co 0.63318 0.45568 0.53931 0.0
O1569 O 0.64746 0.46737 0.55197 0.0
O1570 O 0.64652 0.44167 0.55108 0.0
C1571 C 0.63651 0.47028 0.51748 0.0
O1572 O 0.62018 0.43965 0.5273 0.0
Co1573 Co 0.60381 0.47173 0.52511 0.0
O1574 O 0.60294 0.45254 0.51229 0.0
C1575 C 0.60532 0.46481 0.55881 0.0
C1576 C 0.6529 0.45416 0.55684 0.0
C1577 C 0.60983 0.44007 0.51642 0.0
O1578 O 0.61729 0.45597 0.55682 0.0
O1579 O 0.59942 0.47318 0.54797 0.0
O1580 O 0.64644 0.45932 0.52075 0.0
O1581 O 0.626 0.47261 0.52787 0.0
Co1582 Co 0.13323 0.30187 0.71823 0.0
O1583 O 0.14749 0.29015 0.70557 0.0
O1584 O 0.14657 0.31586 0.70641 0.0
C1585 C 0.1366 0.28731 0.74008 0.0
O1586 O 0.12026 0.31793 0.73023 0.0
Co1587 Co 0.10388 0.28585 0.73251 0.0
O1588 O 0.10304 0.30507 0.74528 0.0
C1589 C 0.10534 0.2927 0.69879 0.0
C1590 C 0.15294 0.30335 0.70067 0.0
C1591 C 0.10993 0.31753 0.74113 0.0
O1592 O 0.11732 0.30154 0.70074 0.0
O1593 O 0.09946 0.28436 0.70966 0.0
O1594 O 0.14653 0.29826 0.73677 0.0
O1595 O 0.12607 0.28496 0.72971 0.0
Co1596 Co 0.20564 0.88323 0.96824 0.0
O1597 O 0.21736 0.89749 0.95558 0.0
O1598 O 0.19165 0.8966 0.95646 0.0
C1599 C 0.22024 0.88653 0.99007 0.0
O1600 O 0.18958 0.87025 0.98023 0.0
Co1601 Co 0.22164 0.85383 0.98243 0.0
O1602 O 0.20245 0.85299 0.99524 0.0
C1603 C 0.21474 0.85537 0.94873 0.0
C1604 C 0.20415 0.90297 0.95072 0.0
C1605 C 0.18999 0.8599 0.99111 0.0
O1606 O 0.20592 0.86735 0.95072 0.0
O1607 O 0.2231 0.84946 0.95958 0.0
O1608 O 0.20929 0.89648 0.9868 0.0
O1609 O 0.22256 0.87602 0.97968 0.0
Co1610 Co 0.62431 0.95562 0.21816 0.0
O1611 O 0.61003 0.96732 0.20551 0.0
O1612 O 0.61096 0.94161 0.20638 0.0
C1613 C 0.62097 0.9702 0.24001 0.0
O1614 O 0.63731 0.93957 0.23016 0.0
Co1615 Co 0.65368 0.97165 0.23239 0.0
O1616 O 0.65454 0.95245 0.24518 0.0
C1617 C 0.65218 0.96476 0.19868 0.0
C1618 C 0.60458 0.95411 0.20063 0.0
C1619 C 0.64765 0.93998 0.24105 0.0
O1620 O 0.6402 0.95592 0.20066 0.0
O1621 O 0.65807 0.97312 0.20953 0.0
O1622 O 0.61104 0.95924 0.23673 0.0
O1623 O 0.63149 0.97254 0.22962 0.0
Co1624 Co 0.05187 0.37426 0.96831 0.0
O1625 O 0.0402 0.35996 0.95566 0.0
O1626 O 0.0659 0.36092 0.95655 0.0
C1627 C 0.03728 0.37094 0.99014 0.0
O1628 O 0.06789 0.38729 0.9803 0.0
Co1629 Co 0.0358 0.40363 0.98247 0.0
O1630 O 0.05499 0.40454 0.99528 0.0
C1631 C 0.04271 0.40209 0.94878 0.0
C1632 C 0.05342 0.35452 0.9508 0.0
C1633 C 0.06746 0.39765 0.99117 0.0
O1634 O 0.05157 0.39013 0.95078 0.0
O1635 O 0.03434 0.40798 0.95961 0.0
O1636 O 0.04825 0.36102 0.98688 0.0
O1637 O 0.03493 0.38144 0.97974 0.0
Co1638 Co 0.62421 0.80181 0.53918 0.0
O1639 O 0.60993 0.7901 0.55182 0.0
O1640 O 0.61084 0.8158 0.55094 0.0
C1641 C 0.62093 0.78721 0.51734 0.0
O1642 O 0.6372 0.81786 0.52719 0.0
Co1643 Co 0.65362 0.7858 0.52501 0.0
O1644 O 0.65449 0.805 0.5122 0.0
C1645 C 0.65206 0.7927 0.55871 0.0
C1646 C 0.60447 0.80331 0.55669 0.0
C1647 C 0.64757 0.81746 0.51632 0.0
O1648 O 0.64008 0.80154 0.55671 0.0
O1649 O 0.65797 0.78434 0.54787 0.0
O1650 O 0.61098 0.79816 0.5206 0.0
O1651 O 0.63143 0.78489 0.52774 0.0
Co1652 Co 0.20565 0.87431 0.78931 0.0
O1653 O 0.21735 0.86004 0.80197 0.0
O1654 O 0.19164 0.86095 0.80107 0.0
C1655 C 0.22026 0.87101 0.76748 0.0
O1656 O 0.18961 0.8873 0.7773 0.0
Co1657 Co 0.22167 0.90371 0.77513 0.0
O1658 O 0.20248 0.90456 0.7623 0.0
C1659 C 0.21476 0.90216 0.80883 0.0
C1660 C 0.20414 0.85458 0.80683 0.0
C1661 C 0.19002 0.89765 0.76642 0.0
O1662 O 0.20592 0.89019 0.80683 0.0
O1663 O 0.22312 0.90807 0.79799 0.0
O1664 O 0.20931 0.86107 0.77074 0.0
O1665 O 0.22258 0.88152 0.77788 0.0
Co1666 Co 0.55185 0.38318 0.2893 0.0
O1667 O 0.54015 0.39746 0.30195 0.0
O1668 O 0.56585 0.39656 0.30104 0.0
C1669 C 0.53723 0.38646 0.26747 0.0
O1670 O 0.56789 0.37018 0.2773 0.0
Co1671 Co 0.53583 0.35377 0.27515 0.0
O1672 O 0.55501 0.35291 0.26232 0.0
C1673 C 0.54276 0.35534 0.30884 0.0
C1674 C 0.55336 0.40293 0.3068 0.0
C1675 C 0.56748 0.35982 0.26643 0.0
O1676 O 0.55159 0.36732 0.30683 0.0
O1677 O 0.53439 0.34943 0.29801 0.0
O1678 O 0.54818 0.39641 0.27072 0.0
O1679 O 0.53492 0.37596 0.27789 0.0
Co1680 Co 0.4682 0.8743 0.05177 0.0
O1681 O 0.45554 0.86003 0.04007 0.0
O1682 O 0.45645 0.86092 0.06577 0.0
C1683 C 0.49002 0.87102 0.03715 0.0
O1684 O 0.4802 0.88728 0.06782 0.0
Co1685 Co 0.48237 0.90372 0.03578 0.0
O1686 O 0.49519 0.90455 0.05496 0.0
C1687 C 0.44867 0.90216 0.0427 0.0
C1688 C 0.45068 0.85456 0.05328 0.0
C1689 C 0.49108 0.89763 0.06742 0.0
O1690 O 0.45067 0.89018 0.05153 0.0
O1691 O 0.4595 0.90807 0.03434 0.0
O1692 O 0.48677 0.86107 0.0481 0.0
O1693 O 0.47962 0.88152 0.03485 0.0
Co1694 Co 0.63328 0.71833 0.80173 0.0
O1695 O 0.64755 0.70567 0.79003 0.0
O1696 O 0.64665 0.70658 0.81574 0.0
C1697 C 0.63658 0.74016 0.78712 0.0
O1698 O 0.6203 0.73034 0.81778 0.0
Co1699 Co 0.60388 0.73251 0.78572 0.0
O1700 O 0.60303 0.74533 0.80491 0.0
C1701 C 0.60542 0.69881 0.79265 0.0
C1702 C 0.65302 0.70082 0.80324 0.0
C1703 C 0.60994 0.74122 0.81737 0.0
O1704 O 0.6174 0.70081 0.80147 0.0
O1705 O 0.59951 0.70965 0.78429 0.0
O1706 O 0.64652 0.7369 0.79807 0.0
O1707 O 0.62607 0.72976 0.78481 0.0
Co1708 Co 0.78929 0.88317 0.55177 0.0
O1709 O 0.80193 0.89747 0.54008 0.0
O1710 O 0.80105 0.89653 0.56579 0.0
C1711 C 0.76745 0.88647 0.53718 0.0
O1712 O 0.77731 0.87014 0.5678 0.0
Co1713 Co 0.77514 0.85379 0.53571 0.0
O1714 O 0.76234 0.85288 0.55491 0.0
C1715 C 0.80884 0.85534 0.54262 0.0
C1716 C 0.80679 0.90292 0.5533 0.0
C1717 C 0.76645 0.85978 0.56738 0.0
O1718 O 0.80683 0.86731 0.55147 0.0
O1719 O 0.798 0.84944 0.53425 0.0
O1720 O 0.77071 0.8964 0.54815 0.0
O1721 O 0.77786 0.87598 0.53484 0.0
Co1722 Co 0.62417 0.03919 0.30183 0.0
O1723 O 0.60989 0.05185 0.29014 0.0
O1724 O 0.61079 0.05094 0.31584 0.0
C1725 C 0.62089 0.01737 0.28722 0.0
O1726 O 0.63717 0.02719 0.31788 0.0
Co1727 Co 0.65358 0.02504 0.28582 0.0
O1728 O 0.65444 0.01222 0.305 0.0
C1729 C 0.65201 0.05874 0.29274 0.0
C1730 C 0.60442 0.0567 0.30335 0.0
C1731 C 0.64753 0.01633 0.31746 0.0
O1732 O 0.64003 0.05673 0.30157 0.0
O1733 O 0.65792 0.04791 0.28437 0.0
O1734 O 0.61094 0.02061 0.29817 0.0
O1735 O 0.63138 0.02778 0.2849 0.0
Co1736 Co 0.46825 0.88323 0.70559 0.0
O1737 O 0.4556 0.8975 0.7173 0.0
O1738 O 0.45645 0.89658 0.69159 0.0
C1739 C 0.4901 0.88657 0.72015 0.0
O1740 O 0.48023 0.87024 0.68953 0.0
Co1741 Co 0.48249 0.85386 0.7216 0.0
O1742 O 0.49526 0.853 0.70239 0.0
C1743 C 0.44877 0.85537 0.71474 0.0
C1744 C 0.45072 0.90295 0.70409 0.0
C1745 C 0.49111 0.85989 0.68993 0.0
O1746 O 0.45074 0.86734 0.7059 0.0
O1747 O 0.45963 0.84947 0.72309 0.0
O1748 O 0.48681 0.8965 0.7092 0.0
O1749 O 0.47972 0.87605 0.7225 0.0
Co1750 Co 0.62435 0.71817 0.45559 0.0
O1751 O 0.61009 0.70552 0.46731 0.0
O1752 O 0.611 0.70637 0.4416 0.0
C1753 C 0.62102 0.74002 0.47016 0.0
O1754 O 0.63733 0.73017 0.43952 0.0
Co1755 Co 0.65373 0.73242 0.47158 0.0
O1756 O 0.65456 0.74521 0.45238 0.0
C1757 C 0.65224 0.6987 0.46472 0.0
C1758 C 0.60463 0.70064 0.4541 0.0
C1759 C 0.64767 0.74106 0.43992 0.0
O1760 O 0.64025 0.70067 0.45589 0.0
O1761 O 0.65813 0.70957 0.47306 0.0
O1762 O 0.61108 0.73673 0.45921 0.0
O1763 O 0.63154 0.72964 0.4725 0.0
Co1764 Co 0.78937 0.87433 0.20563 0.0
O1765 O 0.80204 0.86007 0.21734 0.0
O1766 O 0.80114 0.86096 0.19164 0.0
C1767 C 0.76754 0.87103 0.22024 0.0
O1768 O 0.77737 0.88731 0.18958 0.0
Co1769 Co 0.77518 0.90373 0.22163 0.0
O1770 O 0.76236 0.90457 0.20244 0.0
C1771 C 0.80888 0.90219 0.21473 0.0
C1772 C 0.8069 0.8546 0.20414 0.0
C1773 C 0.76649 0.89765 0.18998 0.0
O1774 O 0.80689 0.89021 0.2059 0.0
O1775 O 0.79804 0.9081 0.22309 0.0
O1776 O 0.77081 0.86108 0.2093 0.0
O1777 O 0.77794 0.88154 0.22255 0.0
Co1778 Co 0.6333 0.03928 0.95564 0.0
O1779 O 0.64759 0.05194 0.96734 0.0
O1780 O 0.64667 0.05104 0.94164 0.0
C1781 C 0.6366 0.01745 0.97025 0.0
O1782 O 0.62031 0.02729 0.9396 0.0
Co1783 Co 0.60391 0.02511 0.97166 0.0
O1784 O 0.60305 0.01229 0.95247 0.0
C1785 C 0.60546 0.05881 0.96476 0.0
C1786 C 0.65305 0.0568 0.95413 0.0
C1787 C 0.60995 0.01641 0.94001 0.0
O1788 O 0.61743 0.05681 0.95592 0.0
O1789 O 0.59955 0.04797 0.97312 0.0
O1790 O 0.64655 0.02071 0.9593 0.0
O1791 O 0.6261 0.02786 0.97257 0.0
Co1792 Co 0.05183 0.96833 0.3742 0.0
O1793 O 0.04013 0.95567 0.35991 0.0
O1794 O 0.06584 0.95658 0.36083 0.0
C1795 C 0.03721 0.99015 0.37091 0.0
O1796 O 0.06786 0.98032 0.3872 0.0
Co1797 Co 0.0358 0.98248 0.4036 0.0
O1798 O 0.05498 0.9953 0.40447 0.0
C1799 C 0.04273 0.94879 0.40204 0.0
C1800 C 0.05335 0.95082 0.35445 0.0
C1801 C 0.06745 0.99119 0.39756 0.0
O1802 O 0.05156 0.95079 0.39006 0.0
O1803 O 0.03435 0.95962 0.40795 0.0
O1804 O 0.04816 0.9869 0.36096 0.0
O1805 O 0.03489 0.97974 0.38141 0.0
Co1806 Co 0.53927 0.3018 0.12433 0.0
O1807 O 0.55192 0.2901 0.11004 0.0
O1808 O 0.55103 0.31581 0.11095 0.0
C1809 C 0.51744 0.2872 0.12105 0.0
O1810 O 0.52728 0.31785 0.13733 0.0
Co1811 Co 0.52512 0.28578 0.15374 0.0
O1812 O 0.51231 0.30497 0.1546 0.0
C1813 C 0.55882 0.2927 0.15216 0.0
C1814 C 0.55677 0.30331 0.10458 0.0
C1815 C 0.51642 0.31743 0.14769 0.0
O1816 O 0.55681 0.30153 0.14019 0.0
O1817 O 0.54799 0.28433 0.15808 0.0
O1818 O 0.52069 0.29815 0.1111 0.0
O1819 O 0.52785 0.28488 0.13154 0.0
Co1820 Co 0.20562 0.78931 0.87432 0.0
O1821 O 0.21733 0.80196 0.86005 0.0
O1822 O 0.19162 0.80108 0.86095 0.0
C1823 C 0.22022 0.76747 0.87101 0.0
O1824 O 0.18956 0.77731 0.8873 0.0
Co1825 Co 0.22161 0.77511 0.90371 0.0
O1826 O 0.20242 0.7623 0.90455 0.0
C1827 C 0.21472 0.80881 0.90218 0.0
C1828 C 0.20412 0.80683 0.85458 0.0
C1829 C 0.18996 0.76643 0.89764 0.0
O1830 O 0.20589 0.80682 0.8902 0.0
O1831 O 0.22308 0.79796 0.90808 0.0
O1832 O 0.20927 0.77074 0.86107 0.0
O1833 O 0.22254 0.77787 0.88152 0.0
Co1834 Co 0.71819 0.45559 0.62431 0.0
O1835 O 0.70554 0.46731 0.61004 0.0
O1836 O 0.70639 0.4416 0.61096 0.0
C1837 C 0.74004 0.47016 0.62099 0.0
O1838 O 0.73017 0.43953 0.63731 0.0
Co1839 Co 0.73241 0.47161 0.65369 0.0
O1840 O 0.74518 0.45239 0.65456 0.0
C1841 C 0.6987 0.46474 0.65217 0.0
C1842 C 0.70066 0.4541 0.60458 0.0
C1843 C 0.74104 0.43993 0.64766 0.0
O1844 O 0.70067 0.4559 0.6402 0.0
O1845 O 0.70955 0.4731 0.65807 0.0
O1846 O 0.73675 0.45921 0.61105 0.0
O1847 O 0.72965 0.4725 0.6315 0.0
Co1848 Co 0.0519 0.78942 0.3831 0.0
O1849 O 0.04019 0.80208 0.39736 0.0
O1850 O 0.06589 0.80119 0.39647 0.0
C1851 C 0.03729 0.76759 0.38642 0.0
O1852 O 0.06795 0.77741 0.37012 0.0
Co1853 Co 0.03589 0.77521 0.35371 0.0
O1854 O 0.05508 0.76239 0.35288 0.0
C1855 C 0.04279 0.80892 0.35523 0.0
C1856 C 0.05339 0.80695 0.40283 0.0
C1857 C 0.06754 0.76652 0.35979 0.0
O1858 O 0.05163 0.80693 0.36721 0.0
O1859 O 0.03444 0.79807 0.34933 0.0
O1860 O 0.04824 0.77086 0.39636 0.0
O1861 O 0.03497 0.77798 0.3759 0.0
Co1862 Co 0.71819 0.30176 0.13322 0.0
O1863 O 0.70554 0.29006 0.1475 0.0
O1864 O 0.70646 0.31576 0.14661 0.0
C1865 C 0.74002 0.28713 0.13648 0.0
O1866 O 0.7302 0.3178 0.12023 0.0
Co1867 Co 0.73233 0.28575 0.1038 0.0
O1868 O 0.74517 0.30493 0.10295 0.0
C1869 C 0.69863 0.29269 0.10539 0.0
C1870 C 0.7007 0.30327 0.15298 0.0
C1871 C 0.74107 0.31739 0.10987 0.0
O1872 O 0.70065 0.30152 0.11736 0.0
O1873 O 0.70946 0.28432 0.09946 0.0
O1874 O 0.73678 0.29807 0.14644 0.0
O1875 O 0.7296 0.28483 0.12599 0.0
Co1876 Co 0.20573 0.96823 0.88323 0.0
O1877 O 0.21742 0.95557 0.89751 0.0
O1878 O 0.19171 0.95649 0.8966 0.0
C1879 C 0.22035 0.99006 0.88653 0.0
O1880 O 0.1897 0.98024 0.87024 0.0
Co1881 Co 0.22176 0.9824 0.85384 0.0
O1882 O 0.20259 0.99523 0.85298 0.0
C1883 C 0.21482 0.9487 0.85539 0.0
C1884 C 0.2042 0.95072 0.90297 0.0
C1885 C 0.19012 0.99112 0.85988 0.0
O1886 O 0.20599 0.95071 0.86736 0.0
O1887 O 0.22319 0.95953 0.84948 0.0
O1888 O 0.2094 0.98681 0.89648 0.0
O1889 O 0.22267 0.97965 0.87603 0.0
Co1890 Co 0.5393 0.45564 0.63326 0.0
O1891 O 0.55195 0.46736 0.64753 0.0
O1892 O 0.55109 0.44166 0.64662 0.0
C1893 C 0.51744 0.47021 0.63659 0.0
O1894 O 0.52731 0.43958 0.62028 0.0
Co1895 Co 0.52506 0.47165 0.60389 0.0
O1896 O 0.51227 0.45244 0.60304 0.0
C1897 C 0.55877 0.46478 0.60539 0.0
C1898 C 0.55683 0.45416 0.65299 0.0
C1899 C 0.51642 0.43998 0.60994 0.0
O1900 O 0.5568 0.45595 0.61737 0.0
O1901 O 0.54791 0.47313 0.59949 0.0
O1902 O 0.52073 0.45926 0.64653 0.0
O1903 O 0.52783 0.47255 0.62608 0.0
Co1904 Co 0.37437 0.5518 0.46826 0.0
O1905 O 0.36008 0.54011 0.4556 0.0
O1906 O 0.36103 0.56581 0.45648 0.0
C1907 C 0.37104 0.53721 0.4901 0.0
O1908 O 0.38738 0.56783 0.48026 0.0
Co1909 Co 0.40374 0.53574 0.48246 0.0
O1910 O 0.40462 0.55494 0.49526 0.0
C1911 C 0.40222 0.54265 0.44875 0.0
C1912 C 0.35464 0.55332 0.45073 0.0
C1913 C 0.39772 0.56741 0.49114 0.0
O1914 O 0.39026 0.5515 0.45074 0.0
O1915 O 0.40811 0.53428 0.4596 0.0
O1916 O 0.36111 0.54817 0.48682 0.0
O1917 O 0.38154 0.53486 0.4797 0.0
Co1918 Co 0.87437 0.70566 0.28929 0.0
O1919 O 0.8601 0.71737 0.30194 0.0
O1920 O 0.86099 0.69167 0.30104 0.0
C1921 C 0.87109 0.72028 0.26746 0.0
O1922 O 0.88736 0.68961 0.27729 0.0
Co1923 Co 0.90378 0.72166 0.27512 0.0
O1924 O 0.90464 0.70248 0.2623 0.0
C1925 C 0.90221 0.71476 0.30882 0.0
C1926 C 0.85463 0.70416 0.30679 0.0
C1927 C 0.89772 0.69002 0.26642 0.0
O1928 O 0.89024 0.70592 0.30682 0.0
O1929 O 0.90813 0.72312 0.29798 0.0
O1930 O 0.86114 0.70934 0.27071 0.0
O1931 O 0.88159 0.72259 0.27787 0.0
Co1932 Co 0.80196 0.12424 0.03914 0.0
O1933 O 0.79024 0.10997 0.05178 0.0
O1934 O 0.81595 0.11087 0.05091 0.0
C1935 C 0.78738 0.12094 0.01729 0.0
O1936 O 0.81802 0.13723 0.02715 0.0
Co1937 Co 0.78597 0.15364 0.02493 0.0
O1938 O 0.80517 0.15449 0.01214 0.0
C1939 C 0.79284 0.15209 0.05864 0.0
C1940 C 0.80345 0.1045 0.05666 0.0
C1941 C 0.81763 0.14758 0.01627 0.0
O1942 O 0.80167 0.14012 0.05666 0.0
O1943 O 0.78449 0.158 0.04779 0.0
O1944 O 0.79833 0.11099 0.02056 0.0
O1945 O 0.78505 0.13144 0.02768 0.0
Co1946 Co 0.3833 0.05183 0.78931 0.0
O1947 O 0.39758 0.04014 0.80197 0.0
O1948 O 0.39667 0.06584 0.80106 0.0
C1949 C 0.3866 0.03721 0.76749 0.0
O1950 O 0.37032 0.06787 0.77729 0.0
Co1951 Co 0.3539 0.03581 0.77514 0.0
O1952 O 0.35306 0.05499 0.7623 0.0
C1953 C 0.35545 0.04274 0.80884 0.0
C1954 C 0.40304 0.05335 0.80683 0.0
C1955 C 0.35997 0.06745 0.76641 0.0
O1956 O 0.36743 0.05158 0.80683 0.0
O1957 O 0.34955 0.03437 0.798 0.0
O1958 O 0.39655 0.04816 0.77074 0.0
O1959 O 0.3761 0.0349 0.77789 0.0
Co1960 Co 0.9556 0.63314 0.03933 0.0
O1961 O 0.96732 0.64742 0.05198 0.0
O1962 O 0.94161 0.64649 0.05114 0.0
C1963 C 0.97016 0.63648 0.01748 0.0
O1964 O 0.93955 0.62015 0.02735 0.0
Co1965 Co 0.97162 0.60378 0.02509 0.0
O1966 O 0.95241 0.60292 0.01231 0.0
C1967 C 0.96476 0.60527 0.05881 0.0
C1968 C 0.95411 0.65287 0.05687 0.0
C1969 C 0.93995 0.60981 0.01646 0.0
O1970 O 0.95592 0.61725 0.05684 0.0
O1971 O 0.9731 0.59938 0.04794 0.0
O1972 O 0.95921 0.64641 0.02077 0.0
O1973 O 0.97252 0.62597 0.02786 0.0
Co1974 Co 0.38319 0.20563 0.46826 0.0
O1975 O 0.39746 0.21735 0.45561 0.0
O1976 O 0.39656 0.19164 0.45649 0.0
C1977 C 0.3865 0.22023 0.4901 0.0
O1978 O 0.37021 0.18958 0.48026 0.0
Co1979 Co 0.35379 0.22163 0.48247 0.0
O1980 O 0.35295 0.20243 0.49527 0.0
C1981 C 0.35533 0.21474 0.44876 0.0
C1982 C 0.40293 0.20414 0.45074 0.0
C1983 C 0.35986 0.18997 0.49113 0.0
O1984 O 0.36731 0.20591 0.45075 0.0
O1985 O 0.34943 0.2231 0.45961 0.0
O1986 O 0.39644 0.20928 0.48683 0.0
O1987 O 0.37598 0.22255 0.4797 0.0
Co1988 Co 0.80176 0.13317 0.21813 0.0
O1989 O 0.79007 0.14744 0.20546 0.0
O1990 O 0.81578 0.14656 0.20641 0.0
C1991 C 0.7871 0.13644 0.23993 0.0
O1992 O 0.81779 0.12019 0.23016 0.0
Co1993 Co 0.78574 0.10375 0.23226 0.0
O1994 O 0.8049 0.10292 0.24513 0.0
C1995 C 0.79272 0.10533 0.19857 0.0
C1996 C 0.80329 0.15292 0.20063 0.0
C1997 C 0.81736 0.10984 0.24104 0.0
O1998 O 0.80154 0.11731 0.2006 0.0
O1999 O 0.78434 0.09941 0.20939 0.0
O2000 O 0.79805 0.1464 0.23671 0.0
O2001 O 0.78482 0.12594 0.22952 0.0
Co2002 Co 0.4557 0.62427 0.71834 0.0
O2003 O 0.46741 0.60998 0.70569 0.0
O2004 O 0.4417 0.61088 0.70659 0.0
C2005 C 0.47031 0.62099 0.74017 0.0
O2006 O 0.43965 0.63726 0.73033 0.0
Co2007 Co 0.4717 0.65368 0.7325 0.0
O2008 O 0.45252 0.65454 0.74531 0.0
C2009 C 0.46479 0.65211 0.6988 0.0
C2010 C 0.45419 0.60451 0.70083 0.0
C2011 C 0.44006 0.64762 0.7412 0.0
O2012 O 0.45596 0.64013 0.7008 0.0
O2013 O 0.47315 0.65802 0.70963 0.0
O2014 O 0.45936 0.61104 0.73692 0.0
O2015 O 0.47262 0.63148 0.72976 0.0
Co2016 Co 0.53934 0.63317 0.45569 0.0
O2017 O 0.55201 0.64744 0.46738 0.0
O2018 O 0.55107 0.64656 0.44168 0.0
C2019 C 0.51754 0.63645 0.47035 0.0
O2020 O 0.52731 0.62019 0.43966 0.0
Co2021 Co 0.5252 0.60375 0.47171 0.0
O2022 O 0.51234 0.60292 0.45255 0.0
C2023 C 0.55889 0.60533 0.46475 0.0
C2024 C 0.55685 0.65292 0.45417 0.0
C2025 C 0.51644 0.60984 0.44008 0.0
O2026 O 0.55687 0.6173 0.45592 0.0
O2027 O 0.54807 0.59941 0.47312 0.0
O2028 O 0.52077 0.6464 0.4594 0.0
O2029 O 0.52795 0.62595 0.47264 0.0
Co2030 Co 0.37434 0.7893 0.70573 0.0
O2031 O 0.36008 0.80197 0.71743 0.0
O2032 O 0.36097 0.80107 0.69172 0.0
C2033 C 0.37103 0.76748 0.72034 0.0
O2034 O 0.38731 0.77729 0.68968 0.0
Co2035 Co 0.40373 0.77511 0.72173 0.0
O2036 O 0.40455 0.76227 0.70256 0.0
C2037 C 0.40221 0.80881 0.71481 0.0
C2038 C 0.35461 0.80683 0.70422 0.0
C2039 C 0.39765 0.7664 0.69009 0.0
O2040 O 0.39023 0.80682 0.70599 0.0
O2041 O 0.40812 0.79796 0.72317 0.0
O2042 O 0.36108 0.77074 0.70939 0.0
O2043 O 0.38154 0.77787 0.72265 0.0
Co2044 Co 0.21813 0.62433 0.95566 0.0
O2045 O 0.20547 0.61006 0.96737 0.0
O2046 O 0.20637 0.61094 0.94167 0.0
C2047 C 0.23995 0.62104 0.97028 0.0
O2048 O 0.23013 0.63731 0.93961 0.0
Co2049 Co 0.23229 0.65374 0.97166 0.0
O2050 O 0.24512 0.65458 0.95248 0.0
C2051 C 0.19859 0.65218 0.96474 0.0
C2052 C 0.20061 0.60459 0.95416 0.0
C2053 C 0.24101 0.64766 0.94002 0.0
O2054 O 0.2006 0.6402 0.95591 0.0
O2055 O 0.20943 0.65809 0.9731 0.0
O2056 O 0.2367 0.61109 0.95934 0.0
O2057 O 0.22955 0.63155 0.97259 0.0
Co2058 Co 0.3832 0.46819 0.20566 0.0
O2059 O 0.39746 0.45552 0.21737 0.0
O2060 O 0.39656 0.45642 0.19166 0.0
C2061 C 0.38651 0.49001 0.22027 0.0
O2062 O 0.37022 0.4802 0.18961 0.0
Co2063 Co 0.3538 0.48238 0.22166 0.0
O2064 O 0.35296 0.4952 0.20248 0.0
C2065 C 0.35534 0.44868 0.21476 0.0
C2066 C 0.40293 0.45066 0.20416 0.0
C2067 C 0.35987 0.49108 0.19002 0.0
O2068 O 0.36731 0.45067 0.20592 0.0
O2069 O 0.34943 0.45953 0.22312 0.0
O2070 O 0.39645 0.48675 0.20932 0.0
O2071 O 0.37599 0.47962 0.22258 0.0
Co2072 Co 0.53936 0.62441 0.80191 0.0
O2073 O 0.55201 0.61013 0.79021 0.0
O2074 O 0.55115 0.61107 0.81591 0.0
C2075 C 0.51751 0.62108 0.78734 0.0
O2076 O 0.52738 0.63742 0.81795 0.0
Co2077 Co 0.52515 0.65378 0.78587 0.0
O2078 O 0.51236 0.65466 0.80507 0.0
C2079 C 0.55886 0.65226 0.79274 0.0
C2080 C 0.55689 0.60468 0.80342 0.0
C2081 C 0.5165 0.64777 0.81754 0.0
O2082 O 0.55688 0.6403 0.80159 0.0
O2083 O 0.54801 0.65815 0.78438 0.0
O2084 O 0.5208 0.61115 0.7983 0.0
O2085 O 0.52791 0.63159 0.78499 0.0
Co2086 Co 0.3832 0.78929 0.05179 0.0
O2087 O 0.39747 0.80194 0.04008 0.0
O2088 O 0.39657 0.80106 0.06578 0.0
C2089 C 0.3865 0.76745 0.03719 0.0
O2090 O 0.37022 0.77729 0.06784 0.0
Co2091 Co 0.3538 0.7751 0.03579 0.0
O2092 O 0.35296 0.76229 0.05498 0.0
C2093 C 0.35534 0.8088 0.04268 0.0
C2094 C 0.40294 0.80681 0.05328 0.0
C2095 C 0.35987 0.76641 0.06744 0.0
O2096 O 0.36732 0.80681 0.05151 0.0
O2097 O 0.34943 0.79796 0.03433 0.0
O2098 O 0.39644 0.77072 0.04814 0.0
O2099 O 0.37599 0.77785 0.03487 0.0
Co2100 Co 0.21832 0.6333 0.30188 0.0
O2101 O 0.20566 0.64756 0.29016 0.0
O2102 O 0.20655 0.64667 0.31587 0.0
C2103 C 0.24016 0.63659 0.28728 0.0
O2104 O 0.23032 0.62032 0.31794 0.0
Co2105 Co 0.23251 0.60389 0.28589 0.0
O2106 O 0.24532 0.60306 0.30509 0.0
C2107 C 0.19881 0.60544 0.29279 0.0
C2108 C 0.20079 0.65303 0.30337 0.0
C2109 C 0.2412 0.60997 0.31754 0.0
O2110 O 0.2008 0.61742 0.30162 0.0
O2111 O 0.20965 0.59953 0.28443 0.0
O2112 O 0.23689 0.64654 0.29822 0.0
O2113 O 0.22976 0.62608 0.28497 0.0
Co2114 Co 0.37427 0.46824 0.55195 0.0
O2115 O 0.36 0.45558 0.54024 0.0
O2116 O 0.36089 0.45648 0.56594 0.0
C2117 C 0.37099 0.49007 0.53734 0.0
O2118 O 0.38725 0.48023 0.56801 0.0
Co2119 Co 0.40369 0.48241 0.53596 0.0
O2120 O 0.40453 0.49522 0.55515 0.0
C2121 C 0.40212 0.44871 0.54287 0.0
C2122 C 0.35453 0.45073 0.55344 0.0
C2123 C 0.39761 0.49111 0.56761 0.0
O2124 O 0.39014 0.45071 0.55169 0.0
O2125 O 0.40803 0.45955 0.53451 0.0
O2126 O 0.36104 0.48681 0.54828 0.0
O2127 O 0.38149 0.47966 0.53503 0.0
Co2128 Co 0.95563 0.53923 0.13325 0.0
O2129 O 0.96735 0.55188 0.14752 0.0
O2130 O 0.94164 0.55103 0.1466 0.0
C2131 C 0.9702 0.51738 0.13658 0.0
O2132 O 0.93957 0.52724 0.12026 0.0
Co2133 Co 0.97164 0.52499 0.10388 0.0
O2134 O 0.95243 0.51221 0.10302 0.0
C2135 C 0.96477 0.55871 0.10537 0.0
C2136 C 0.95414 0.55676 0.15297 0.0
C2137 C 0.93997 0.51635 0.10992 0.0
O2138 O 0.95594 0.55674 0.11735 0.0
O2139 O 0.97312 0.54785 0.09948 0.0
O2140 O 0.95925 0.52067 0.14651 0.0
O2141 O 0.97254 0.52777 0.12607 0.0
Co2142 Co 0.46818 0.20565 0.38324 0.0
O2143 O 0.45552 0.21736 0.39751 0.0
O2144 O 0.45642 0.19165 0.39661 0.0
C2145 C 0.49 0.22026 0.38654 0.0
O2146 O 0.48018 0.1896 0.37026 0.0
Co2147 Co 0.48237 0.22165 0.35384 0.0
O2148 O 0.49519 0.20247 0.35301 0.0
C2149 C 0.44866 0.21474 0.35538 0.0
C2150 C 0.45066 0.20415 0.40298 0.0
C2151 C 0.49106 0.19001 0.35992 0.0
O2152 O 0.45066 0.20591 0.36736 0.0
O2153 O 0.45951 0.2231 0.34947 0.0
O2154 O 0.48674 0.20932 0.39649 0.0
O2155 O 0.4796 0.22258 0.37603 0.0
Co2156 Co 0.80188 0.71809 0.63306 0.0
O2157 O 0.79018 0.70543 0.64732 0.0
O2158 O 0.81589 0.70636 0.64645 0.0
C2159 C 0.78722 0.7399 0.63633 0.0
O2160 O 0.81792 0.73012 0.62008 0.0
Co2161 Co 0.78588 0.73224 0.60363 0.0
O2162 O 0.80504 0.7451 0.60281 0.0
C2163 C 0.79284 0.69854 0.60521 0.0
C2164 C 0.80339 0.70059 0.65281 0.0
C2165 C 0.8175 0.741 0.60974 0.0
O2166 O 0.80166 0.70056 0.61719 0.0
O2167 O 0.78446 0.70937 0.59929 0.0
O2168 O 0.79817 0.73667 0.64628 0.0
O2169 O 0.78494 0.72949 0.62582 0.0
Co2170 Co 0.28939 0.05185 0.88324 0.0
O2171 O 0.30204 0.04015 0.89752 0.0
O2172 O 0.30114 0.06586 0.89661 0.0
C2173 C 0.26756 0.03724 0.88654 0.0
O2174 O 0.27739 0.0679 0.87025 0.0
Co2175 Co 0.27522 0.03583 0.85384 0.0
O2176 O 0.2624 0.05502 0.85298 0.0
C2177 C 0.30892 0.04275 0.85539 0.0
C2178 C 0.3069 0.05336 0.90298 0.0
C2179 C 0.26652 0.06748 0.85989 0.0
O2180 O 0.30691 0.05158 0.86737 0.0
O2181 O 0.29808 0.03439 0.84948 0.0
O2182 O 0.27081 0.04819 0.89648 0.0
O2183 O 0.27796 0.03492 0.87603 0.0
Co2184 Co 0.95569 0.71814 0.12435 0.0
O2185 O 0.96738 0.70548 0.11007 0.0
O2186 O 0.94167 0.70639 0.11099 0.0
C2187 C 0.97031 0.73996 0.12104 0.0
O2188 O 0.93966 0.73016 0.13735 0.0
Co2189 Co 0.97173 0.73231 0.15374 0.0
O2190 O 0.95255 0.74514 0.1546 0.0
C2191 C 0.9648 0.69861 0.15219 0.0
C2192 C 0.95416 0.70062 0.10461 0.0
C2193 C 0.94008 0.74103 0.1477 0.0
O2194 O 0.95596 0.70062 0.14023 0.0
O2195 O 0.97318 0.70944 0.15809 0.0
O2196 O 0.95935 0.73671 0.11111 0.0
O2197 O 0.97263 0.72956 0.13155 0.0
Co2198 Co 0.28924 0.20573 0.37437 0.0
O2199 O 0.30191 0.21742 0.3601 0.0
O2200 O 0.30099 0.19172 0.36099 0.0
C2201 C 0.26743 0.22036 0.37108 0.0
O2202 O 0.27723 0.18969 0.38735 0.0
Co2203 Co 0.27508 0.22175 0.40377 0.0
O2204 O 0.26224 0.20258 0.40461 0.0
C2205 C 0.30878 0.2148 0.40222 0.0
C2206 C 0.30675 0.20421 0.35463 0.0
C2207 C 0.26635 0.19011 0.3977 0.0
O2208 O 0.30677 0.20598 0.39024 0.0
O2209 O 0.29794 0.22318 0.40813 0.0
O2210 O 0.27067 0.20941 0.36113 0.0
O2211 O 0.27783 0.22266 0.38158 0.0
Co2212 Co 0.80184 0.53916 0.62422 0.0
O2213 O 0.79015 0.55181 0.60993 0.0
O2214 O 0.81586 0.55092 0.61085 0.0
C2215 C 0.78724 0.51733 0.62093 0.0
O2216 O 0.81788 0.52717 0.63722 0.0
Co2217 Co 0.78581 0.525 0.65362 0.0
O2218 O 0.805 0.51219 0.65449 0.0
C2219 C 0.79273 0.5587 0.65206 0.0
C2220 C 0.80337 0.55667 0.60447 0.0
C2221 C 0.81747 0.5163 0.64758 0.0
O2222 O 0.80157 0.5567 0.64009 0.0
O2223 O 0.78437 0.54786 0.65797 0.0
O2224 O 0.79819 0.52058 0.61099 0.0
O2225 O 0.78491 0.52774 0.63142 0.0
Co2226 Co 0.46828 0.05189 0.87435 0.0
O2227 O 0.45563 0.04018 0.86007 0.0
O2228 O 0.45649 0.06588 0.86099 0.0
C2229 C 0.49013 0.03732 0.87102 0.0
O2230 O 0.48026 0.06794 0.88735 0.0
Co2231 Co 0.4825 0.03586 0.90372 0.0
O2232 O 0.49528 0.05507 0.90459 0.0
C2233 C 0.44878 0.04274 0.90221 0.0
C2234 C 0.45075 0.05338 0.85461 0.0
C2235 C 0.49114 0.06753 0.8977 0.0
O2236 O 0.45076 0.05158 0.89023 0.0
O2237 O 0.45964 0.03439 0.9081 0.0
O2238 O 0.48685 0.04827 0.86109 0.0
O2239 O 0.47974 0.03497 0.88153 0.0
Co2240 Co 0.63322 0.95567 0.03928 0.0
O2241 O 0.6475 0.96737 0.05194 0.0
O2242 O 0.64658 0.94167 0.05106 0.0
C2243 C 0.63655 0.97027 0.01745 0.0
O2244 O 0.62023 0.93963 0.02728 0.0
Co2245 Co 0.60385 0.9717 0.02507 0.0
O2246 O 0.60299 0.95251 0.01227 0.0
C2247 C 0.60536 0.9648 0.05878 0.0
C2248 C 0.65295 0.95416 0.05681 0.0
C2249 C 0.60988 0.94004 0.0164 0.0
O2250 O 0.61733 0.95596 0.05679 0.0
O2251 O 0.59946 0.97316 0.04793 0.0
O2252 O 0.64648 0.95931 0.02072 0.0
O2253 O 0.62604 0.9726 0.02784 0.0
Co2254 Co 0.13326 0.8019 0.21819 0.0
O2255 O 0.14752 0.79018 0.20554 0.0
O2256 O 0.14664 0.81589 0.20642 0.0
C2257 C 0.13656 0.7873 0.24003 0.0
O2258 O 0.12029 0.81796 0.23019 0.0
Co2259 Co 0.10386 0.78592 0.2324 0.0
O2260 O 0.10303 0.80511 0.24521 0.0
C2261 C 0.10539 0.79281 0.19869 0.0
C2262 C 0.153 0.80338 0.20067 0.0
C2263 C 0.10995 0.81757 0.24108 0.0
O2264 O 0.11738 0.80163 0.20068 0.0
O2265 O 0.09949 0.78446 0.20954 0.0
O2266 O 0.14651 0.79824 0.23676 0.0
O2267 O 0.12605 0.78498 0.22963 0.0
Co2268 Co 0.20562 0.38331 0.46832 0.0
O2269 O 0.21735 0.39758 0.45567 0.0
O2270 O 0.19164 0.3967 0.45655 0.0
C2271 C 0.22022 0.3866 0.49016 0.0
O2272 O 0.18956 0.37034 0.4803 0.0
Co2273 Co 0.2216 0.3539 0.4825 0.0
O2274 O 0.2024 0.35306 0.4953 0.0
C2275 C 0.21472 0.35546 0.4488 0.0
C2276 C 0.20415 0.40306 0.4508 0.0
C2277 C 0.18995 0.35998 0.49118 0.0
O2278 O 0.20589 0.36744 0.45079 0.0
O2279 O 0.22307 0.34954 0.45964 0.0
O2280 O 0.20928 0.39655 0.48689 0.0
O2281 O 0.22254 0.37609 0.47976 0.0
Co2282 Co 0.62431 0.45574 0.71827 0.0
O2283 O 0.61003 0.46744 0.7056 0.0
O2284 O 0.61094 0.44173 0.70652 0.0
C2285 C 0.62101 0.47038 0.74009 0.0
O2286 O 0.63729 0.43971 0.73029 0.0
Co2287 Co 0.65371 0.47176 0.73244 0.0
O2288 O 0.65455 0.4526 0.74528 0.0
C2289 C 0.65216 0.46482 0.69874 0.0
C2290 C 0.60457 0.45422 0.70075 0.0
C2291 C 0.64764 0.44013 0.74117 0.0
O2292 O 0.64018 0.45599 0.70075 0.0
O2293 O 0.65807 0.47319 0.70957 0.0
O2294 O 0.61106 0.45943 0.73684 0.0
O2295 O 0.63151 0.47268 0.72968 0.0
Co2296 Co 0.05183 0.87441 0.46812 0.0
O2297 O 0.04014 0.86013 0.45546 0.0
O2298 O 0.06584 0.86104 0.45638 0.0
C2299 C 0.0372 0.87111 0.48994 0.0
O2300 O 0.06786 0.8874 0.48014 0.0
Co2301 Co 0.0358 0.9038 0.48229 0.0
O2302 O 0.05498 0.90465 0.49512 0.0
C2303 C 0.04274 0.90225 0.44859 0.0
C2304 C 0.05335 0.85467 0.45061 0.0
C2305 C 0.06744 0.89775 0.49102 0.0
O2306 O 0.05157 0.89028 0.4506 0.0
O2307 O 0.03436 0.90816 0.45942 0.0
O2308 O 0.04815 0.86116 0.48669 0.0
O2309 O 0.03489 0.88161 0.47954 0.0
Co2310 Co 0.62426 0.30183 0.0393 0.0
O2311 O 0.60998 0.29012 0.05195 0.0
O2312 O 0.61087 0.31582 0.05106 0.0
C2313 C 0.62098 0.28722 0.01747 0.0
O2314 O 0.63725 0.31788 0.02731 0.0
Co2315 Co 0.65368 0.28583 0.02515 0.0
O2316 O 0.65453 0.30502 0.01233 0.0
C2317 C 0.65209 0.29273 0.05885 0.0
C2318 C 0.60451 0.30333 0.05681 0.0
C2319 C 0.64761 0.31748 0.01645 0.0
O2320 O 0.64012 0.30156 0.05684 0.0
O2321 O 0.65801 0.28437 0.04801 0.0
O2322 O 0.61103 0.29817 0.02072 0.0
O2323 O 0.63148 0.28491 0.02788 0.0
Co2324 Co 0.20566 0.37438 0.28938 0.0
O2325 O 0.21736 0.3601 0.30203 0.0
O2326 O 0.19166 0.36103 0.30115 0.0
C2327 C 0.22025 0.37106 0.26754 0.0
O2328 O 0.18962 0.38738 0.27739 0.0
Co2329 Co 0.2217 0.40376 0.27518 0.0
O2330 O 0.2025 0.40463 0.26238 0.0
C2331 C 0.2148 0.40223 0.30889 0.0
C2332 C 0.20415 0.35465 0.3069 0.0
C2333 C 0.19004 0.39773 0.26651 0.0
O2334 O 0.20596 0.39026 0.3069 0.0
O2335 O 0.22317 0.40812 0.29804 0.0
O2336 O 0.20929 0.36113 0.27081 0.0
O2337 O 0.22259 0.38156 0.27794 0.0
Co2338 Co 0.5519 0.88335 0.78916 0.0
O2339 O 0.54019 0.89762 0.80182 0.0
O2340 O 0.5659 0.89673 0.80093 0.0
C2341 C 0.5373 0.88665 0.76733 0.0
O2342 O 0.56796 0.87038 0.77715 0.0
Co2343 Co 0.53591 0.85395 0.77497 0.0
O2344 O 0.55509 0.85312 0.76215 0.0
C2345 C 0.54281 0.85549 0.80867 0.0
C2346 C 0.5534 0.90309 0.80668 0.0
C2347 C 0.56755 0.86003 0.76627 0.0
O2348 O 0.55164 0.86747 0.80668 0.0
O2349 O 0.53445 0.84958 0.79783 0.0
O2350 O 0.54824 0.8966 0.77059 0.0
O2351 O 0.53498 0.87614 0.77773 0.0
Co2352 Co 0.4682 0.37431 0.55188 0.0
O2353 O 0.45553 0.36005 0.54017 0.0
O2354 O 0.45645 0.36091 0.56588 0.0
C2355 C 0.49001 0.37103 0.53724 0.0
O2356 O 0.48021 0.38728 0.56793 0.0
Co2357 Co 0.48236 0.40373 0.5359 0.0
O2358 O 0.4952 0.40455 0.55507 0.0
C2359 C 0.44866 0.40216 0.54283 0.0
C2360 C 0.45069 0.35456 0.55338 0.0
C2361 C 0.49109 0.39762 0.56753 0.0
O2362 O 0.45067 0.39018 0.55165 0.0
O2363 O 0.45949 0.40808 0.53447 0.0
O2364 O 0.48677 0.36107 0.54818 0.0
O2365 O 0.47961 0.38154 0.53495 0.0
Co2366 Co 0.63312 0.21816 0.30187 0.0
O2367 O 0.64738 0.2055 0.29016 0.0
O2368 O 0.64649 0.20638 0.31586 0.0
C2369 C 0.63643 0.23999 0.28728 0.0
O2370 O 0.62014 0.23016 0.31793 0.0
Co2371 Co 0.60372 0.23237 0.28588 0.0
O2372 O 0.60289 0.24518 0.30507 0.0
C2373 C 0.60525 0.19866 0.29277 0.0
C2374 C 0.65285 0.20063 0.30336 0.0
C2375 C 0.6098 0.24105 0.31753 0.0
O2376 O 0.61723 0.20065 0.3016 0.0
O2377 O 0.59934 0.20951 0.28442 0.0
O2378 O 0.64637 0.23672 0.29822 0.0
O2379 O 0.62591 0.2296 0.28496 0.0
Co2380 Co 0.78929 0.38312 0.05187 0.0
O2381 O 0.80195 0.3974 0.04017 0.0
O2382 O 0.80108 0.39647 0.06587 0.0
C2383 C 0.76745 0.38646 0.0373 0.0
O2384 O 0.7773 0.37013 0.06792 0.0
Co2385 Co 0.77507 0.35375 0.03585 0.0
O2386 O 0.76228 0.35289 0.05505 0.0
C2387 C 0.80878 0.35526 0.04272 0.0
C2388 C 0.80683 0.40285 0.05338 0.0
C2389 C 0.76641 0.35979 0.06751 0.0
O2390 O 0.8068 0.36723 0.05157 0.0
O2391 O 0.79792 0.34937 0.03437 0.0
O2392 O 0.77073 0.39639 0.04825 0.0
O2393 O 0.77783 0.37595 0.03495 0.0
Co2394 Co 0.62434 0.53938 0.80192 0.0
O2395 O 0.61008 0.55205 0.79021 0.0
O2396 O 0.61097 0.55114 0.81592 0.0
C2397 C 0.62104 0.51756 0.7873 0.0
O2398 O 0.63731 0.52737 0.81797 0.0
Co2399 Co 0.65374 0.52519 0.78592 0.0
O2400 O 0.65457 0.51236 0.8051 0.0
C2401 C 0.65219 0.55889 0.79283 0.0
C2402 C 0.60461 0.5569 0.80342 0.0
C2403 C 0.64766 0.51648 0.81756 0.0
O2404 O 0.64022 0.5569 0.80166 0.0
O2405 O 0.6581 0.54805 0.78447 0.0
O2406 O 0.61109 0.52081 0.79825 0.0
O2407 O 0.63155 0.52795 0.78499 0.0
Co2408 Co 0.46817 0.38315 0.20569 0.0
O2409 O 0.45552 0.39743 0.21739 0.0
O2410 O 0.45642 0.39652 0.19168 0.0
C2411 C 0.49 0.38645 0.22031 0.0
O2412 O 0.48018 0.37015 0.18965 0.0
Co2413 Co 0.48234 0.35375 0.22172 0.0
O2414 O 0.49517 0.3529 0.20254 0.0
C2415 C 0.44864 0.35531 0.2148 0.0
C2416 C 0.45066 0.40289 0.20418 0.0
C2417 C 0.49106 0.35981 0.19007 0.0
O2418 O 0.45064 0.36728 0.20596 0.0
O2419 O 0.45948 0.3494 0.22317 0.0
O2420 O 0.48675 0.39639 0.20935 0.0
O2421 O 0.47959 0.37595 0.22263 0.0
Co2422 Co 0.62439 0.21819 0.95569 0.0
O2423 O 0.61012 0.20554 0.9674 0.0
O2424 O 0.61103 0.20641 0.94169 0.0
C2425 C 0.62107 0.24003 0.97028 0.0
O2426 O 0.63737 0.23019 0.93964 0.0
Co2427 Co 0.65377 0.23241 0.9717 0.0
O2428 O 0.65462 0.24521 0.9525 0.0
C2429 C 0.65226 0.1987 0.9648 0.0
C2430 C 0.60466 0.20067 0.95419 0.0
C2431 C 0.64772 0.24107 0.94004 0.0
O2432 O 0.64028 0.20068 0.95597 0.0
O2433 O 0.65816 0.20955 0.97315 0.0
O2434 O 0.61113 0.23675 0.95933 0.0
O2435 O 0.63158 0.22964 0.97261 0.0
Co2436 Co 0.78922 0.37424 0.70572 0.0
O2437 O 0.80188 0.35996 0.71742 0.0
O2438 O 0.80095 0.36084 0.69171 0.0
C2439 C 0.76741 0.37098 0.72036 0.0
O2440 O 0.77721 0.38722 0.68968 0.0
Co2441 Co 0.7751 0.40367 0.72172 0.0
O2442 O 0.76225 0.40451 0.70255 0.0
C2443 C 0.80879 0.40207 0.71477 0.0
C2444 C 0.80672 0.35448 0.70421 0.0
C2445 C 0.76635 0.39758 0.69009 0.0
O2446 O 0.80677 0.39009 0.70595 0.0
O2447 O 0.79797 0.408 0.72314 0.0
O2448 O 0.77064 0.36102 0.70942 0.0
O2449 O 0.77783 0.38148 0.72265 0.0
Co2450 Co 0.63328 0.53926 0.45563 0.0
O2451 O 0.64755 0.55192 0.46733 0.0
O2452 O 0.64666 0.55101 0.44162 0.0
C2453 C 0.63657 0.51743 0.47025 0.0
O2454 O 0.6203 0.52725 0.43958 0.0
Co2455 Co 0.60387 0.5251 0.47163 0.0
O2456 O 0.60302 0.51227 0.45245 0.0
C2457 C 0.60544 0.55879 0.46471 0.0
C2458 C 0.65302 0.55677 0.45412 0.0
C2459 C 0.60994 0.51638 0.43999 0.0
O2460 O 0.61741 0.55679 0.45588 0.0
O2461 O 0.59952 0.54796 0.47308 0.0
O2462 O 0.64652 0.52068 0.4593 0.0
O2463 O 0.62606 0.52784 0.47255 0.0
Co2464 Co 0.05179 0.46818 0.87439 0.0
O2465 O 0.0401 0.45552 0.8601 0.0
O2466 O 0.06581 0.45643 0.86102 0.0
C2467 C 0.03716 0.49 0.87108 0.0
O2468 O 0.06781 0.4802 0.88739 0.0
Co2469 Co 0.03574 0.48234 0.90378 0.0
O2470 O 0.05492 0.49517 0.90465 0.0
C2471 C 0.04268 0.44865 0.90223 0.0
C2472 C 0.05332 0.45067 0.85465 0.0
C2473 C 0.06739 0.49107 0.89774 0.0
O2474 O 0.05152 0.45066 0.89026 0.0
O2475 O 0.0343 0.45948 0.90813 0.0
O2476 O 0.04812 0.48675 0.86114 0.0
O2477 O 0.03484 0.4796 0.88158 0.0
Co2478 Co 0.53925 0.80181 0.62422 0.0
O2479 O 0.5519 0.7901 0.60995 0.0
O2480 O 0.55099 0.8158 0.61082 0.0
C2481 C 0.51743 0.78718 0.62096 0.0
O2482 O 0.52725 0.81786 0.6372 0.0
Co2483 Co 0.52511 0.78582 0.65365 0.0
O2484 O 0.51227 0.805 0.65448 0.0
C2485 C 0.5588 0.79276 0.65207 0.0
C2486 C 0.55675 0.80331 0.60446 0.0
C2487 C 0.51638 0.81746 0.64756 0.0
O2488 O 0.55679 0.80157 0.64008 0.0
O2489 O 0.54797 0.7844 0.658 0.0
O2490 O 0.52067 0.79812 0.611 0.0
O2491 O 0.52784 0.78488 0.63146 0.0
Co2492 Co 0.20562 0.28939 0.3744 0.0
O2493 O 0.21733 0.30205 0.36013 0.0
O2494 O 0.19163 0.30115 0.36102 0.0
C2495 C 0.22024 0.26756 0.3711 0.0
O2496 O 0.18957 0.27738 0.38738 0.0
Co2497 Co 0.22163 0.2752 0.4038 0.0
O2498 O 0.20244 0.26238 0.40463 0.0
C2499 C 0.21472 0.3089 0.40225 0.0
C2500 C 0.20413 0.30691 0.35466 0.0
C2501 C 0.18998 0.2665 0.39772 0.0
O2502 O 0.20589 0.30691 0.39028 0.0
O2503 O 0.22308 0.29806 0.40816 0.0
O2504 O 0.20929 0.27082 0.36115 0.0
O2505 O 0.22255 0.27796 0.38161 0.0
Co2506 Co 0.71825 0.95566 0.12427 0.0
O2507 O 0.70559 0.96736 0.11001 0.0
O2508 O 0.70647 0.94166 0.11091 0.0
C2509 C 0.74008 0.97026 0.12095 0.0
O2510 O 0.73026 0.93961 0.13726 0.0
Co2511 Co 0.73246 0.97168 0.15365 0.0
O2512 O 0.74528 0.95249 0.15449 0.0
C2513 C 0.69875 0.96477 0.15214 0.0
C2514 C 0.70072 0.95415 0.10455 0.0
C2515 C 0.74115 0.94002 0.14759 0.0
O2516 O 0.70074 0.95594 0.14016 0.0
O2517 O 0.7096 0.97313 0.15804 0.0
O2518 O 0.73681 0.9593 0.11101 0.0
O2519 O 0.72969 0.97258 0.13146 0.0
Co2520 Co 0.05205 0.28925 0.88331 0.0
O2521 O 0.04032 0.30188 0.89758 0.0
O2522 O 0.06603 0.30102 0.89671 0.0
C2523 C 0.03747 0.2674 0.88659 0.0
O2524 O 0.06813 0.27727 0.87033 0.0
Co2525 Co 0.03608 0.27507 0.85389 0.0
O2526 O 0.05528 0.26228 0.85304 0.0
C2527 C 0.04295 0.30878 0.85547 0.0
C2528 C 0.05352 0.30675 0.90306 0.0
C2529 C 0.06774 0.26641 0.85997 0.0
O2530 O 0.05178 0.30678 0.86745 0.0
O2531 O 0.0346 0.29793 0.84955 0.0
O2532 O 0.0484 0.27066 0.89654 0.0
O2533 O 0.03515 0.2778 0.87608 0.0
Co2534 Co 0.71819 0.80174 0.63305 0.0
O2535 O 0.70553 0.79007 0.64733 0.0
O2536 O 0.70648 0.81577 0.64643 0.0
C2537 C 0.74 0.78709 0.63633 0.0
O2538 O 0.73022 0.81776 0.62005 0.0
Co2539 Co 0.73232 0.78571 0.60364 0.0
O2540 O 0.74519 0.80486 0.60279 0.0
C2541 C 0.69863 0.79267 0.60522 0.0
C2542 C 0.7007 0.80329 0.6528 0.0
C2543 C 0.74109 0.81733 0.6097 0.0
O2544 O 0.70066 0.80151 0.61719 0.0
O2545 O 0.70945 0.78429 0.5993 0.0
O2546 O 0.73677 0.79804 0.64628 0.0
O2547 O 0.72958 0.78479 0.62583 0.0
Co2548 Co 0.20573 0.4683 0.38329 0.0
O2549 O 0.21742 0.45564 0.39758 0.0
O2550 O 0.19171 0.45654 0.39666 0.0
C2551 C 0.22033 0.49013 0.3866 0.0
O2552 O 0.18969 0.4803 0.37029 0.0
Co2553 Co 0.22176 0.48247 0.3539 0.0
O2554 O 0.20257 0.49529 0.35304 0.0
C2555 C 0.21484 0.44877 0.35545 0.0
C2556 C 0.2042 0.45079 0.40304 0.0
C2557 C 0.19011 0.49117 0.35994 0.0
O2558 O 0.206 0.45078 0.36742 0.0
O2559 O 0.22321 0.45961 0.34954 0.0
O2560 O 0.20938 0.48687 0.39654 0.0
O2561 O 0.22266 0.47973 0.3761 0.0
Co2562 Co 0.53928 0.95562 0.13317 0.0
O2563 O 0.55194 0.96732 0.14745 0.0
O2564 O 0.55107 0.94162 0.14652 0.0
C2565 C 0.51744 0.97021 0.13651 0.0
O2566 O 0.52728 0.93958 0.12018 0.0
Co2567 Co 0.52507 0.97165 0.1038 0.0
O2568 O 0.51226 0.95246 0.10294 0.0
C2569 C 0.55878 0.96476 0.10532 0.0
C2570 C 0.55682 0.95411 0.1529 0.0
C2571 C 0.5164 0.93999 0.10984 0.0
O2572 O 0.55679 0.95592 0.11729 0.0
O2573 O 0.54793 0.97312 0.09942 0.0
O2574 O 0.52072 0.95926 0.14644 0.0
O2575 O 0.52783 0.97255 0.12599 0.0
Co2576 Co 0.37437 0.05186 0.96827 0.0
O2577 O 0.3601 0.04016 0.95561 0.0
O2578 O 0.36101 0.06586 0.95649 0.0
C2579 C 0.37104 0.03727 0.99011 0.0
O2580 O 0.38736 0.06791 0.98027 0.0
Co2581 Co 0.40375 0.03584 0.98248 0.0
O2582 O 0.4046 0.05504 0.99528 0.0
C2583 C 0.40223 0.04273 0.94877 0.0
C2584 C 0.35464 0.05337 0.95074 0.0
C2585 C 0.3977 0.0675 0.99115 0.0
O2586 O 0.39026 0.05157 0.95076 0.0
O2587 O 0.40813 0.03437 0.95962 0.0
O2588 O 0.36111 0.04823 0.98683 0.0
O2589 O 0.38156 0.03494 0.97972 0.0
Co2590 Co 0.87445 0.20566 0.78927 0.0
O2591 O 0.86017 0.21736 0.80192 0.0
O2592 O 0.8611 0.19166 0.80107 0.0
C2593 C 0.8711 0.22022 0.76742 0.0
O2594 O 0.88745 0.18961 0.77729 0.0
Co2595 Co 0.9038 0.22169 0.77503 0.0
O2596 O 0.90467 0.20248 0.76225 0.0
C2597 C 0.90232 0.21482 0.80875 0.0
C2598 C 0.85472 0.20415 0.8068 0.0
C2599 C 0.89779 0.19002 0.7664 0.0
O2600 O 0.89034 0.20598 0.80678 0.0
O2601 O 0.9082 0.22317 0.79788 0.0
O2602 O 0.86118 0.20926 0.77071 0.0
O2603 O 0.88161 0.22258 0.77781 0.0
Co2604 Co 0.80194 0.62413 0.53917 0.0
O2605 O 0.79022 0.60986 0.55181 0.0
O2606 O 0.81593 0.61074 0.55094 0.0
C2607 C 0.78735 0.62085 0.51733 0.0
O2608 O 0.81801 0.63711 0.52718 0.0
Co2609 Co 0.78596 0.65354 0.525 0.0
O2610 O 0.80516 0.65439 0.5122 0.0
C2611 C 0.79285 0.65197 0.5587 0.0
C2612 C 0.80343 0.60438 0.55668 0.0
C2613 C 0.81761 0.64747 0.51632 0.0
O2614 O 0.80168 0.63999 0.5567 0.0
O2615 O 0.7845 0.65789 0.54786 0.0
O2616 O 0.79829 0.61089 0.52059 0.0
O2617 O 0.78503 0.63135 0.52773 0.0
Co2618 Co 0.38325 0.55181 0.28931 0.0
O2619 O 0.39752 0.5401 0.30197 0.0
O2620 O 0.39663 0.56581 0.30106 0.0
C2621 C 0.38655 0.53719 0.26748 0.0
O2622 O 0.37028 0.56786 0.2773 0.0
Co2623 Co 0.35385 0.53581 0.27512 0.0
O2624 O 0.35301 0.55499 0.2623 0.0
C2625 C 0.35539 0.54273 0.30882 0.0
C2626 C 0.40299 0.55331 0.30683 0.0
C2627 C 0.35993 0.56745 0.26642 0.0
O2628 O 0.36737 0.55155 0.30683 0.0
O2629 O 0.34948 0.53437 0.29798 0.0
O2630 O 0.3965 0.54814 0.27074 0.0
O2631 O 0.37604 0.53488 0.27788 0.0
Co2632 Co 0.9556 0.13323 0.53923 0.0
O2633 O 0.96731 0.14751 0.55188 0.0
O2634 O 0.9416 0.14659 0.551 0.0
C2635 C 0.97018 0.13655 0.51738 0.0
O2636 O 0.93955 0.12024 0.52724 0.0
Co2637 Co 0.97161 0.10385 0.52502 0.0
O2638 O 0.95241 0.10299 0.51222 0.0
C2639 C 0.96472 0.10537 0.55873 0.0
C2640 C 0.9541 0.15297 0.55675 0.0
C2641 C 0.93995 0.1099 0.51635 0.0
O2642 O 0.95589 0.11735 0.55674 0.0
O2643 O 0.97308 0.09947 0.54787 0.0
O2644 O 0.95923 0.14649 0.52066 0.0
O2645 O 0.97252 0.12604 0.52778 0.0
Co2646 Co 0.38319 0.70564 0.96818 0.0
O2647 O 0.39746 0.71737 0.95554 0.0
O2648 O 0.39657 0.69166 0.95641 0.0
C2649 C 0.38648 0.72024 0.99002 0.0
O2650 O 0.37021 0.68958 0.98017 0.0
Co2651 Co 0.35378 0.72163 0.98238 0.0
O2652 O 0.35294 0.70243 0.99517 0.0
C2653 C 0.35533 0.71474 0.94867 0.0
C2654 C 0.40294 0.70417 0.95067 0.0
C2655 C 0.35985 0.68998 0.99104 0.0
O2656 O 0.36731 0.70592 0.95066 0.0
O2657 O 0.34942 0.7231 0.95952 0.0
O2658 O 0.39643 0.7093 0.98676 0.0
O2659 O 0.37597 0.72256 0.97962 0.0
Co2660 Co 0.80187 0.63313 0.7181 0.0
O2661 O 0.79017 0.6474 0.70543 0.0
O2662 O 0.81588 0.64648 0.70633 0.0
C2663 C 0.78727 0.63646 0.73993 0.0
O2664 O 0.81791 0.62014 0.73011 0.0
Co2665 Co 0.78583 0.60376 0.7323 0.0
O2666 O 0.80502 0.6029 0.74512 0.0
C2667 C 0.79275 0.60527 0.6986 0.0
C2668 C 0.80339 0.65286 0.70057 0.0
C2669 C 0.81749 0.6098 0.741 0.0
O2670 O 0.80159 0.61724 0.70059 0.0
O2671 O 0.78438 0.59937 0.70944 0.0
O2672 O 0.79823 0.64639 0.73666 0.0
O2673 O 0.78494 0.62595 0.72954 0.0
Co2674 Co 0.45558 0.12425 0.2183 0.0
O2675 O 0.4673 0.10998 0.20565 0.0
O2676 O 0.44159 0.11088 0.20652 0.0
C2677 C 0.47016 0.12093 0.24014 0.0
O2678 O 0.43952 0.13723 0.23029 0.0
Co2679 Co 0.47158 0.15363 0.23252 0.0
O2680 O 0.45238 0.15448 0.24531 0.0
C2681 C 0.4647 0.15211 0.19881 0.0
C2682 C 0.45409 0.10451 0.20077 0.0
C2683 C 0.43992 0.14757 0.24117 0.0
O2684 O 0.45587 0.14013 0.20079 0.0
O2685 O 0.47305 0.15802 0.20966 0.0
O2686 O 0.45921 0.11099 0.23687 0.0
O2687 O 0.47249 0.13144 0.22975 0.0
C2688 C 0.08548 0.1835 0.46774 0.0
C2689 C 0.09191 0.18893 0.45372 0.0
H2690 H 0.06946 0.16809 0.47883 0.0
C2691 C 0.08639 0.18271 0.4396 0.0
H2692 H 0.0894 0.18803 0.47884 0.0
C2693 C 0.07481 0.17113 0.43959 0.0
C2694 C 0.06858 0.1656 0.4537 0.0
H2695 H 0.09111 0.18665 0.42859 0.0
H2696 H 0.07087 0.16642 0.42858 0.0
C2697 C 0.07399 0.17202 0.46773 0.0
C2698 C 0.82473 0.33633 0.68961 0.0
C2699 C 0.81852 0.34186 0.70373 0.0
H2700 H 0.84102 0.32082 0.67859 0.0
C2701 C 0.82396 0.33543 0.71776 0.0
H2702 H 0.82078 0.34105 0.67861 0.0
C2703 C 0.83544 0.32396 0.71775 0.0
C2704 C 0.84185 0.31854 0.70371 0.0
H2705 H 0.81943 0.33936 0.72886 0.0
H2706 H 0.83938 0.31943 0.72884 0.0
C2707 C 0.83631 0.32476 0.6896 0.0
C2708 C 0.67209 0.07404 0.96768 0.0
C2709 C 0.66566 0.06861 0.95366 0.0
H2710 H 0.68811 0.08945 0.97876 0.0
C2711 C 0.67117 0.07483 0.93954 0.0
H2712 H 0.66817 0.0695 0.97878 0.0
C2713 C 0.68275 0.08641 0.93953 0.0
C2714 C 0.68898 0.09194 0.95363 0.0
H2715 H 0.66645 0.07089 0.92853 0.0
H2716 H 0.68668 0.09113 0.92851 0.0
C2717 C 0.68357 0.08552 0.96767 0.0
C2718 C 0.93271 0.92118 0.18953 0.0
C2719 C 0.93894 0.91566 0.20364 0.0
H2720 H 0.91641 0.93669 0.17853 0.0
C2721 C 0.93353 0.92209 0.21768 0.0
H2722 H 0.93664 0.91645 0.17852 0.0
C2723 C 0.92205 0.93357 0.21768 0.0
C2724 C 0.91562 0.93899 0.20365 0.0
H2725 H 0.93808 0.91817 0.22877 0.0
H2726 H 0.91814 0.93811 0.22878 0.0
C2727 C 0.92114 0.93276 0.18954 0.0
C2728 C 0.07502 0.08649 0.81786 0.0
C2729 C 0.06881 0.09202 0.80374 0.0
H2730 H 0.09129 0.07095 0.82888 0.0
C2731 C 0.07425 0.0856 0.78971 0.0
H2732 H 0.07107 0.0912 0.82887 0.0
C2733 C 0.08572 0.07411 0.78972 0.0
C2734 C 0.09212 0.06868 0.80376 0.0
H2735 H 0.06973 0.08954 0.77861 0.0
H2736 H 0.08966 0.06958 0.77863 0.0
C2737 C 0.08658 0.0749 0.81787 0.0
C2738 C 0.93267 0.33635 0.06793 0.0
C2739 C 0.9389 0.34189 0.05382 0.0
H2740 H 0.91637 0.32082 0.07891 0.0
C2741 C 0.93348 0.33549 0.03978 0.0
H2742 H 0.93661 0.34105 0.07894 0.0
C2743 C 0.922 0.32401 0.03976 0.0
C2744 C 0.91557 0.31857 0.05378 0.0
H2745 H 0.93802 0.33943 0.02869 0.0
H2746 H 0.91807 0.31949 0.02866 0.0
C2747 C 0.92109 0.32478 0.06791 0.0
C2748 C 0.671 0.1826 0.31792 0.0
C2749 C 0.66546 0.18882 0.30381 0.0
H2750 H 0.68653 0.16631 0.32892 0.0
C2751 C 0.67186 0.18339 0.28978 0.0
H2752 H 0.6663 0.18654 0.32894 0.0
C2753 C 0.68334 0.1719 0.28977 0.0
C2754 C 0.68878 0.16549 0.30379 0.0
H2755 H 0.66792 0.18792 0.27868 0.0
H2756 H 0.68786 0.16797 0.27867 0.0
C2757 C 0.68258 0.17102 0.31791 0.0
C2758 C 0.824 0.922 0.53975 0.0
C2759 C 0.81858 0.91555 0.55377 0.0
H2760 H 0.83938 0.93804 0.52867 0.0
C2761 C 0.82481 0.92107 0.56789 0.0
H2762 H 0.81946 0.91808 0.52865 0.0
C2763 C 0.83637 0.93266 0.5679 0.0
C2764 C 0.84189 0.93891 0.55379 0.0
H2765 H 0.82087 0.91634 0.5789 0.0
H2766 H 0.84109 0.93659 0.57891 0.0
C2767 C 0.83546 0.93349 0.53976 0.0
C2768 C 0.43953 0.08636 0.18275 0.0
C2769 C 0.45364 0.09189 0.18897 0.0
H2770 H 0.42853 0.07083 0.16646 0.0
C2771 C 0.46767 0.08547 0.18356 0.0
H2772 H 0.42851 0.09107 0.18668 0.0
C2773 C 0.46768 0.07398 0.17209 0.0
C2774 C 0.45366 0.06855 0.16566 0.0
H2775 H 0.47877 0.08941 0.1881 0.0
H2776 H 0.47878 0.06945 0.16817 0.0
C2777 C 0.43954 0.07477 0.17118 0.0
C2778 C 0.92205 0.71775 0.43347 0.0
C2779 C 0.91565 0.70371 0.4389 0.0
H2780 H 0.93805 0.72887 0.41807 0.0
C2781 C 0.9212 0.6896 0.43268 0.0
H2782 H 0.9181 0.72884 0.438 0.0
C2783 C 0.93278 0.68962 0.4211 0.0
C2784 C 0.93898 0.70374 0.41558 0.0
H2785 H 0.9165 0.67858 0.43662 0.0
H2786 H 0.93674 0.67861 0.41639 0.0
C2787 C 0.93353 0.71777 0.422 0.0
C2788 C 0.28983 0.18339 0.67193 0.0
C2789 C 0.30385 0.18882 0.6655 0.0
H2790 H 0.27875 0.16797 0.68795 0.0
C2791 C 0.31798 0.18261 0.67102 0.0
H2792 H 0.27873 0.18791 0.66801 0.0
C2793 C 0.31799 0.17103 0.6826 0.0
C2794 C 0.30388 0.16549 0.68883 0.0
H2795 H 0.32898 0.18656 0.6663 0.0
H2796 H 0.329 0.16632 0.68653 0.0
C2797 C 0.28984 0.1719 0.68341 0.0
C2798 C 0.83636 0.56794 0.93272 0.0
C2799 C 0.84187 0.55382 0.93893 0.0
H2800 H 0.82086 0.57898 0.91642 0.0
C2801 C 0.83544 0.5398 0.93349 0.0
H2802 H 0.84108 0.57894 0.93667 0.0
C2803 C 0.82397 0.53981 0.922 0.0
C2804 C 0.81856 0.55385 0.91559 0.0
H2805 H 0.83936 0.52869 0.93802 0.0
H2806 H 0.81943 0.52873 0.91807 0.0
C2807 C 0.82479 0.56796 0.92113 0.0
C2808 C 0.43959 0.17107 0.07493 0.0
C2809 C 0.45371 0.16554 0.06872 0.0
H2810 H 0.42856 0.18659 0.09121 0.0
C2811 C 0.46774 0.17196 0.07417 0.0
H2812 H 0.42859 0.16636 0.07097 0.0
C2813 C 0.46773 0.18344 0.08565 0.0
C2814 C 0.45369 0.18886 0.09206 0.0
H2815 H 0.47884 0.16803 0.06965 0.0
H2816 H 0.47882 0.18797 0.0896 0.0
C2817 C 0.43958 0.18264 0.08651 0.0
C2818 C 0.8249 0.68958 0.33639 0.0
C2819 C 0.81869 0.7037 0.34193 0.0
H2820 H 0.84119 0.67857 0.32087 0.0
C2821 C 0.82412 0.71773 0.33552 0.0
H2822 H 0.82095 0.67858 0.34111 0.0
C2823 C 0.8356 0.71773 0.32403 0.0
C2824 C 0.84201 0.7037 0.3186 0.0
H2825 H 0.8196 0.72883 0.33945 0.0
H2826 H 0.83953 0.72883 0.31951 0.0
C2827 C 0.83648 0.68958 0.32481 0.0
C2828 C 0.3179 0.08632 0.57479 0.0
C2829 C 0.30379 0.09184 0.56856 0.0
H2830 H 0.32892 0.07081 0.5911 0.0
C2831 C 0.28976 0.08542 0.57399 0.0
H2832 H 0.32891 0.09103 0.57085 0.0
C2833 C 0.28976 0.07394 0.58548 0.0
C2834 C 0.30379 0.06853 0.59191 0.0
H2835 H 0.27866 0.08934 0.56945 0.0
H2836 H 0.27866 0.06941 0.58941 0.0
C2837 C 0.31791 0.07475 0.58638 0.0
C2838 C 0.9326 0.56787 0.83641 0.0
C2839 C 0.93882 0.55376 0.84196 0.0
H2840 H 0.91631 0.57887 0.82088 0.0
C2841 C 0.93338 0.53973 0.83555 0.0
H2842 H 0.93655 0.57889 0.84111 0.0
C2843 C 0.92189 0.53972 0.82408 0.0
C2844 C 0.91548 0.55375 0.81864 0.0
H2845 H 0.9379 0.52863 0.8395 0.0
H2846 H 0.91795 0.52862 0.81956 0.0
C2847 C 0.92102 0.56787 0.82484 0.0
C2848 C 0.18342 0.46777 0.08559 0.0
C2849 C 0.18885 0.45374 0.092 0.0
H2850 H 0.16798 0.47887 0.06961 0.0
C2851 C 0.18263 0.43962 0.08646 0.0
H2852 H 0.18795 0.47886 0.08953 0.0
C2853 C 0.17104 0.43963 0.0749 0.0
C2854 C 0.1655 0.45375 0.06869 0.0
H2855 H 0.18658 0.42861 0.09116 0.0
H2856 H 0.16633 0.42862 0.07095 0.0
C2857 C 0.17192 0.46778 0.07412 0.0
C2858 C 0.67111 0.31786 0.18271 0.0
C2859 C 0.66558 0.30374 0.18893 0.0
H2860 H 0.68663 0.32886 0.16642 0.0
C2861 C 0.67199 0.28971 0.18351 0.0
H2862 H 0.6664 0.32887 0.18666 0.0
C2863 C 0.68347 0.2897 0.17202 0.0
C2864 C 0.6889 0.30373 0.1656 0.0
H2865 H 0.66806 0.27861 0.18804 0.0
H2866 H 0.688 0.27861 0.16809 0.0
C2867 C 0.68269 0.31785 0.17114 0.0
C2868 C 0.71769 0.92198 0.43345 0.0
C2869 C 0.70366 0.91555 0.43887 0.0
H2870 H 0.72878 0.93799 0.41804 0.0
C2871 C 0.68954 0.92108 0.43265 0.0
H2872 H 0.72879 0.91805 0.43798 0.0
C2873 C 0.68954 0.93265 0.42107 0.0
C2874 C 0.70366 0.93888 0.41554 0.0
H2875 H 0.67854 0.91636 0.43659 0.0
H2876 H 0.67853 0.93659 0.41635 0.0
C2877 C 0.71769 0.93346 0.42197 0.0
C2878 C 0.07482 0.9396 0.67109 0.0
C2879 C 0.0686 0.95371 0.66556 0.0
H2880 H 0.09111 0.92859 0.68661 0.0
C2881 C 0.07403 0.96774 0.67198 0.0
H2882 H 0.07088 0.92859 0.66637 0.0
C2883 C 0.08551 0.96774 0.68346 0.0
C2884 C 0.09193 0.95371 0.68889 0.0
H2885 H 0.0695 0.97884 0.66805 0.0
H2886 H 0.08944 0.97884 0.68799 0.0
C2887 C 0.0864 0.9396 0.68267 0.0
C2888 C 0.53976 0.33554 0.43348 0.0
C2889 C 0.55379 0.34197 0.4389 0.0
H2890 H 0.52866 0.31952 0.41809 0.0
C2891 C 0.56791 0.33643 0.43269 0.0
H2892 H 0.52866 0.33948 0.43801 0.0
C2893 C 0.56791 0.32484 0.42113 0.0
C2894 C 0.55379 0.31862 0.4156 0.0
H2895 H 0.57892 0.34115 0.43663 0.0
H2896 H 0.57892 0.3209 0.41642 0.0
C2897 C 0.53976 0.32405 0.42201 0.0
C2898 C 0.07406 0.78977 0.08555 0.0
C2899 C 0.06861 0.8038 0.09196 0.0
H2900 H 0.08948 0.77868 0.06955 0.0
C2901 C 0.07482 0.81792 0.08642 0.0
H2902 H 0.06953 0.77867 0.08949 0.0
C2903 C 0.0864 0.81792 0.07485 0.0
C2904 C 0.09195 0.80381 0.06864 0.0
H2905 H 0.07087 0.82893 0.09113 0.0
H2906 H 0.09111 0.82893 0.0709 0.0
C2907 C 0.08554 0.78977 0.07407 0.0
C2908 C 0.68963 0.83641 0.32478 0.0
C2909 C 0.70375 0.84195 0.31857 0.0
H2910 H 0.67862 0.82088 0.34105 0.0
C2911 C 0.71778 0.83554 0.32401 0.0
H2912 H 0.67863 0.84112 0.32082 0.0
C2913 C 0.71778 0.82406 0.33549 0.0
C2914 C 0.70375 0.81862 0.3419 0.0
H2915 H 0.72888 0.83948 0.31949 0.0
H2916 H 0.72888 0.81954 0.33943 0.0
C2917 C 0.68963 0.82483 0.33635 0.0
C2918 C 0.03977 0.43343 0.83561 0.0
C2919 C 0.0538 0.43887 0.84203 0.0
H2920 H 0.0287 0.41801 0.81959 0.0
C2921 C 0.06792 0.43267 0.8365 0.0
H2922 H 0.02867 0.43794 0.83954 0.0
C2923 C 0.06794 0.42109 0.82492 0.0
C2924 C 0.05383 0.41554 0.8187 0.0
H2925 H 0.07893 0.43662 0.84121 0.0
H2926 H 0.07895 0.41639 0.82097 0.0
C2927 C 0.03979 0.42195 0.82412 0.0
C2928 C 0.93268 0.83644 0.56788 0.0
C2929 C 0.9389 0.84198 0.55376 0.0
H2930 H 0.9164 0.82091 0.57889 0.0
C2931 C 0.93347 0.83556 0.53973 0.0
H2932 H 0.93662 0.84116 0.57889 0.0
C2933 C 0.922 0.82407 0.53973 0.0
C2934 C 0.91558 0.81863 0.55376 0.0
H2935 H 0.938 0.83949 0.52864 0.0
H2936 H 0.91808 0.81953 0.52863 0.0
C2937 C 0.92111 0.82486 0.56788 0.0
C2938 C 0.17205 0.68351 0.28977 0.0
C2939 C 0.16562 0.68894 0.3038 0.0
H2940 H 0.18808 0.66811 0.27869 0.0
C2941 C 0.17116 0.68274 0.31792 0.0
H2942 H 0.16812 0.68804 0.27868 0.0
C2943 C 0.18275 0.67117 0.31793 0.0
C2944 C 0.18898 0.66564 0.30382 0.0
H2945 H 0.16644 0.68668 0.32893 0.0
H2946 H 0.18669 0.66647 0.32894 0.0
C2947 C 0.18355 0.67204 0.28978 0.0
C2948 C 0.3364 0.93268 0.06793 0.0
C2949 C 0.34193 0.93891 0.05382 0.0
H2950 H 0.3209 0.91637 0.07893 0.0
C2951 C 0.33551 0.9335 0.03978 0.0
H2952 H 0.34112 0.93661 0.07894 0.0
C2953 C 0.32403 0.92201 0.03977 0.0
C2954 C 0.31861 0.91557 0.0538 0.0
H2955 H 0.33943 0.93804 0.02869 0.0
H2956 H 0.3195 0.91809 0.02868 0.0
C2957 C 0.32483 0.92109 0.06792 0.0
C2958 C 0.08627 0.68275 0.93955 0.0
C2959 C 0.09181 0.68897 0.95367 0.0
H2960 H 0.07074 0.66647 0.92854 0.0
C2961 C 0.08537 0.68355 0.9677 0.0
H2962 H 0.091 0.68668 0.92855 0.0
C2963 C 0.07387 0.67209 0.9677 0.0
C2964 C 0.06845 0.66567 0.95367 0.0
H2965 H 0.0893 0.68808 0.9788 0.0
H2966 H 0.06933 0.66817 0.97879 0.0
C2967 C 0.07468 0.67119 0.93955 0.0
C2968 C 0.32486 0.83641 0.68963 0.0
C2969 C 0.31865 0.84195 0.70374 0.0
H2970 H 0.34116 0.82089 0.67863 0.0
C2971 C 0.32409 0.83555 0.71778 0.0
H2972 H 0.32091 0.84111 0.67862 0.0
C2973 C 0.33558 0.82408 0.71778 0.0
C2974 C 0.34199 0.81864 0.70375 0.0
H2975 H 0.31957 0.83949 0.72887 0.0
H2976 H 0.33952 0.81956 0.72888 0.0
C2977 C 0.33645 0.82484 0.68963 0.0
C2978 C 0.18258 0.08649 0.43959 0.0
C2979 C 0.1888 0.09202 0.45371 0.0
H2980 H 0.16629 0.07098 0.42858 0.0
C2981 C 0.18338 0.08558 0.46774 0.0
H2982 H 0.18652 0.09122 0.42859 0.0
C2983 C 0.17191 0.0741 0.46773 0.0
C2984 C 0.16548 0.06868 0.4537 0.0
H2985 H 0.18792 0.08951 0.47883 0.0
H2986 H 0.16798 0.06956 0.47883 0.0
C2987 C 0.17101 0.07491 0.43959 0.0
C2988 C 0.53984 0.93358 0.83543 0.0
C2989 C 0.55387 0.939 0.84185 0.0
H2990 H 0.52874 0.91819 0.8194 0.0
C2991 C 0.56798 0.93278 0.83632 0.0
H2992 H 0.52874 0.93811 0.83936 0.0
C2993 C 0.56798 0.92122 0.82473 0.0
C2994 C 0.55387 0.91569 0.8185 0.0
H2995 H 0.57899 0.93672 0.84104 0.0
H2996 H 0.57899 0.91651 0.82078 0.0
C2997 C 0.53983 0.92211 0.82393 0.0
C2998 C 0.08638 0.31795 0.5749 0.0
C2999 C 0.0919 0.30384 0.56865 0.0
H3000 H 0.07089 0.32895 0.59122 0.0
C3001 C 0.08549 0.28981 0.57407 0.0
H3002 H 0.0911 0.32896 0.57096 0.0
C3003 C 0.07402 0.28979 0.58557 0.0
C3004 C 0.06861 0.30382 0.59201 0.0
H3005 H 0.08941 0.27872 0.56952 0.0
H3006 H 0.06949 0.2787 0.58949 0.0
C3007 C 0.07483 0.31794 0.58649 0.0
C3008 C 0.56797 0.83651 0.93258 0.0
C3009 C 0.55385 0.84204 0.9388 0.0
H3010 H 0.57899 0.82101 0.91628 0.0
C3011 C 0.53982 0.83563 0.93335 0.0
H3012 H 0.57898 0.84122 0.93654 0.0
C3013 C 0.53983 0.82416 0.92186 0.0
C3014 C 0.55387 0.81874 0.91544 0.0
H3015 H 0.52872 0.83955 0.93788 0.0
H3016 H 0.52874 0.81963 0.91792 0.0
C3017 C 0.56798 0.82495 0.921 0.0
C3018 C 0.18265 0.3179 0.67104 0.0
C3019 C 0.18886 0.30378 0.66551 0.0
H3020 H 0.16637 0.32893 0.68656 0.0
C3021 C 0.18342 0.28975 0.67194 0.0
H3022 H 0.1866 0.3289 0.66632 0.0
C3023 C 0.17195 0.28976 0.68342 0.0
C3024 C 0.16554 0.3038 0.68885 0.0
H3025 H 0.18794 0.27865 0.66801 0.0
H3026 H 0.16801 0.27867 0.68796 0.0
C3027 C 0.17108 0.31791 0.68262 0.0
C3028 C 0.08637 0.43958 0.18282 0.0
C3029 C 0.09189 0.45371 0.18902 0.0
H3030 H 0.07084 0.42855 0.16655 0.0
C3031 C 0.08545 0.46773 0.1836 0.0
H3032 H 0.0911 0.42858 0.18676 0.0
C3033 C 0.07395 0.46771 0.17214 0.0
C3034 C 0.06854 0.45367 0.16573 0.0
H3035 H 0.08937 0.47883 0.18812 0.0
H3036 H 0.06941 0.4788 0.16821 0.0
C3037 C 0.07478 0.43956 0.17126 0.0
C3038 C 0.32479 0.68957 0.83642 0.0
C3039 C 0.31856 0.70369 0.84194 0.0
H3040 H 0.34109 0.67856 0.82092 0.0
C3041 C 0.32399 0.71772 0.83552 0.0
H3042 H 0.32084 0.67856 0.84114 0.0
C3043 C 0.33548 0.71772 0.82405 0.0
C3044 C 0.34191 0.70368 0.81863 0.0
H3045 H 0.31945 0.72881 0.83944 0.0
H3046 H 0.33941 0.72881 0.81952 0.0
C3047 C 0.33637 0.68957 0.82485 0.0
C3048 C 0.93257 0.06798 0.33641 0.0
C3049 C 0.93881 0.05387 0.34194 0.0
H3050 H 0.91627 0.07898 0.3209 0.0
C3051 C 0.93339 0.03984 0.33551 0.0
H3052 H 0.93651 0.07899 0.34113 0.0
C3053 C 0.92191 0.03983 0.32403 0.0
C3054 C 0.91547 0.05386 0.31861 0.0
H3055 H 0.93793 0.02874 0.33943 0.0
H3056 H 0.91799 0.02874 0.3195 0.0
C3057 C 0.921 0.06798 0.32484 0.0
C3058 C 0.43959 0.671 0.57492 0.0
C3059 C 0.45371 0.66547 0.56871 0.0
H3060 H 0.42857 0.68651 0.59121 0.0
C3061 C 0.46774 0.6719 0.57414 0.0
H3062 H 0.42859 0.66627 0.57097 0.0
C3063 C 0.46773 0.68339 0.58562 0.0
C3064 C 0.45369 0.68881 0.59203 0.0
H3065 H 0.47884 0.66798 0.56962 0.0
H3066 H 0.47882 0.68792 0.58955 0.0
C3067 C 0.43958 0.68258 0.5865 0.0
C3068 C 0.92125 0.18956 0.93257 0.0
C3069 C 0.91572 0.20367 0.93881 0.0
H3070 H 0.93677 0.17856 0.91627 0.0
C3071 C 0.92215 0.21771 0.93339 0.0
H3072 H 0.91653 0.17855 0.93651 0.0
C3073 C 0.93363 0.21772 0.92191 0.0
C3074 C 0.93905 0.20369 0.91548 0.0
H3075 H 0.91822 0.2288 0.93794 0.0
H3076 H 0.93816 0.22881 0.918 0.0
C3077 C 0.93283 0.18957 0.921 0.0
C3078 C 0.93958 0.5748 0.17113 0.0
C3079 C 0.95369 0.56856 0.16559 0.0
H3080 H 0.92859 0.59108 0.18666 0.0
C3081 C 0.96773 0.57397 0.17202 0.0
H3082 H 0.92857 0.57087 0.16641 0.0
C3083 C 0.96774 0.58544 0.18351 0.0
C3084 C 0.95371 0.59187 0.18895 0.0
H3085 H 0.97882 0.56943 0.16809 0.0
H3086 H 0.97884 0.58935 0.18805 0.0
C3087 C 0.93959 0.58636 0.18272 0.0
C3088 C 0.82493 0.83645 0.18957 0.0
C3089 C 0.81871 0.84199 0.20368 0.0
H3090 H 0.84123 0.82093 0.17857 0.0
C3091 C 0.82414 0.83557 0.21772 0.0
H3092 H 0.82099 0.84116 0.17856 0.0
C3093 C 0.83562 0.82409 0.21772 0.0
C3094 C 0.84204 0.81866 0.2037 0.0
H3095 H 0.8196 0.83951 0.22881 0.0
H3096 H 0.83955 0.81957 0.22882 0.0
C3097 C 0.83651 0.82487 0.18958 0.0
C3098 C 0.67206 0.57401 0.46768 0.0
C3099 C 0.66563 0.56858 0.45365 0.0
H3100 H 0.68806 0.58943 0.47877 0.0
C3101 C 0.67115 0.57481 0.43953 0.0
H3102 H 0.66813 0.56948 0.47878 0.0
C3103 C 0.68272 0.58639 0.43953 0.0
C3104 C 0.68895 0.59193 0.45364 0.0
H3105 H 0.66644 0.57086 0.42852 0.0
H3106 H 0.68666 0.59111 0.42852 0.0
C3107 C 0.68353 0.5855 0.46767 0.0
C3108 C 0.93268 0.42104 0.68962 0.0
C3109 C 0.93889 0.41552 0.70374 0.0
H3110 H 0.91639 0.43656 0.67859 0.0
C3111 C 0.93345 0.42194 0.71776 0.0
H3112 H 0.93663 0.41632 0.67861 0.0
C3113 C 0.92197 0.43342 0.71775 0.0
C3114 C 0.91556 0.43884 0.70371 0.0
H3115 H 0.93797 0.41802 0.72886 0.0
H3116 H 0.91803 0.43795 0.72884 0.0
C3117 C 0.9211 0.43262 0.6896 0.0
C3118 C 0.0856 0.57411 0.28984 0.0
C3119 C 0.09203 0.5687 0.30387 0.0
H3120 H 0.06957 0.5895 0.27874 0.0
C3121 C 0.08651 0.57493 0.31799 0.0
H3122 H 0.08953 0.56957 0.27875 0.0
C3123 C 0.07492 0.5865 0.31798 0.0
C3124 C 0.06869 0.59201 0.30386 0.0
H3125 H 0.09123 0.571 0.329 0.0
H3126 H 0.07098 0.59122 0.32899 0.0
C3127 C 0.07411 0.58558 0.28984 0.0
C3128 C 0.67205 0.68357 0.78968 0.0
C3129 C 0.66564 0.68901 0.80371 0.0
H3130 H 0.68805 0.66814 0.77859 0.0
C3131 C 0.67118 0.68281 0.81783 0.0
H3132 H 0.66811 0.68809 0.77858 0.0
C3133 C 0.68275 0.67123 0.81783 0.0
C3134 C 0.68896 0.66568 0.80372 0.0
H3135 H 0.66647 0.68676 0.82884 0.0
H3136 H 0.6867 0.66653 0.82885 0.0
C3137 C 0.68353 0.67209 0.78969 0.0
C3138 C 0.82486 0.42099 0.06795 0.0
C3139 C 0.81864 0.41546 0.05384 0.0
H3140 H 0.84115 0.43651 0.07896 0.0
C3141 C 0.82407 0.42187 0.03981 0.0
H3142 H 0.82092 0.41628 0.07896 0.0
C3143 C 0.83555 0.43336 0.0398 0.0
C3144 C 0.84197 0.43879 0.05384 0.0
H3145 H 0.81954 0.41794 0.02871 0.0
H3146 H 0.83948 0.43788 0.02871 0.0
C3147 C 0.83644 0.43257 0.06795 0.0
C3148 C 0.46775 0.57398 0.67213 0.0
C3149 C 0.45372 0.56856 0.66571 0.0
H3150 H 0.47885 0.58939 0.68814 0.0
C3151 C 0.4396 0.57478 0.67124 0.0
H3152 H 0.47884 0.56944 0.6682 0.0
C3153 C 0.43961 0.58636 0.68282 0.0
C3154 C 0.45373 0.59189 0.68903 0.0
H3155 H 0.42859 0.57084 0.66653 0.0
H3156 H 0.4286 0.59108 0.68676 0.0
C3157 C 0.46776 0.58546 0.68361 0.0
C3158 C 0.28987 0.67201 0.18351 0.0
C3159 C 0.3039 0.66559 0.18892 0.0
H3160 H 0.27877 0.68802 0.1681 0.0
C3161 C 0.31801 0.67111 0.18269 0.0
H3162 H 0.27877 0.66809 0.18805 0.0
C3163 C 0.31801 0.68268 0.1711 0.0
C3164 C 0.30389 0.68891 0.16558 0.0
H3165 H 0.32902 0.66639 0.18662 0.0
H3166 H 0.32902 0.68662 0.16638 0.0
C3167 C 0.28986 0.68349 0.17202 0.0
C3168 C 0.83545 0.03977 0.43344 0.0
C3169 C 0.84188 0.05381 0.43886 0.0
H3170 H 0.81944 0.02868 0.41803 0.0
C3171 C 0.83635 0.06792 0.43263 0.0
H3172 H 0.83938 0.02868 0.43797 0.0
C3173 C 0.82477 0.06792 0.42105 0.0
C3174 C 0.81855 0.0538 0.41553 0.0
H3175 H 0.84107 0.07893 0.43657 0.0
H3176 H 0.82083 0.07893 0.41633 0.0
C3177 C 0.82397 0.03977 0.42196 0.0
C3178 C 0.82496 0.18958 0.83637 0.0
C3179 C 0.81873 0.2037 0.84189 0.0
H3180 H 0.84127 0.17857 0.82088 0.0
C3181 C 0.82417 0.21773 0.83548 0.0
H3182 H 0.821 0.17858 0.84109 0.0
C3183 C 0.83567 0.21773 0.82401 0.0
C3184 C 0.84209 0.20369 0.8186 0.0
H3185 H 0.81963 0.22883 0.8394 0.0
H3186 H 0.8396 0.22882 0.81949 0.0
C3187 C 0.83655 0.18958 0.82482 0.0
C3188 C 0.28977 0.57406 0.08554 0.0
C3189 C 0.3038 0.56863 0.09195 0.0
H3190 H 0.27867 0.58947 0.06953 0.0
C3191 C 0.31792 0.57483 0.0864 0.0
H3192 H 0.27867 0.56954 0.08949 0.0
C3193 C 0.31791 0.5864 0.07481 0.0
C3194 C 0.3038 0.59194 0.0686 0.0
H3195 H 0.32893 0.57088 0.09111 0.0
H3196 H 0.32892 0.5911 0.07085 0.0
C3197 C 0.28976 0.58553 0.07405 0.0
C3198 C 0.1835 0.96769 0.58548 0.0
C3199 C 0.1889 0.95365 0.5919 0.0
H3200 H 0.1681 0.97881 0.56947 0.0
C3201 C 0.18266 0.93954 0.58637 0.0
H3202 H 0.18804 0.97878 0.58941 0.0
C3203 C 0.17109 0.93956 0.57479 0.0
C3204 C 0.16557 0.95368 0.56857 0.0
H3205 H 0.18659 0.92853 0.59108 0.0
H3206 H 0.16636 0.92856 0.57085 0.0
C3207 C 0.17201 0.96771 0.574 0.0
C3208 C 0.67197 0.78979 0.68334 0.0
C3209 C 0.66558 0.80384 0.68875 0.0
H3210 H 0.68796 0.77866 0.66793 0.0
C3211 C 0.67113 0.81794 0.68252 0.0
H3212 H 0.66802 0.77871 0.68788 0.0
C3213 C 0.6827 0.81791 0.67094 0.0
C3214 C 0.6889 0.80378 0.66542 0.0
H3215 H 0.66643 0.82896 0.68646 0.0
H3216 H 0.68666 0.82891 0.66622 0.0
C3217 C 0.68345 0.78977 0.67185 0.0
C3218 C 0.68956 0.42114 0.93277 0.0
C3219 C 0.70368 0.41561 0.93899 0.0
H3220 H 0.67855 0.43667 0.91649 0.0
C3221 C 0.71771 0.42205 0.93358 0.0
H3222 H 0.67856 0.41641 0.9367 0.0
C3223 C 0.71771 0.43354 0.92211 0.0
C3224 C 0.70368 0.43896 0.91569 0.0
H3225 H 0.7288 0.41812 0.93811 0.0
H3226 H 0.7288 0.43808 0.91819 0.0
C3227 C 0.68956 0.43273 0.92121 0.0
C3228 C 0.71772 0.33561 0.82414 0.0
C3229 C 0.70369 0.34203 0.81872 0.0
H3230 H 0.72884 0.31959 0.83952 0.0
C3231 C 0.68958 0.33648 0.82495 0.0
H3232 H 0.72882 0.33956 0.81961 0.0
C3233 C 0.68959 0.32489 0.83651 0.0
C3234 C 0.70371 0.31867 0.84202 0.0
H3235 H 0.67856 0.34119 0.82101 0.0
H3236 H 0.67859 0.32093 0.84122 0.0
C3237 C 0.71774 0.32412 0.8356 0.0
C3238 C 0.06794 0.9328 0.33631 0.0
C3239 C 0.05382 0.93902 0.34183 0.0
H3240 H 0.07897 0.91651 0.3208 0.0
C3241 C 0.0398 0.9336 0.3354 0.0
H3242 H 0.07895 0.93674 0.34104 0.0
C3243 C 0.03981 0.92212 0.32391 0.0
C3244 C 0.05384 0.91569 0.3185 0.0
H3245 H 0.0287 0.93813 0.33931 0.0
H3246 H 0.02872 0.91819 0.31937 0.0
C3247 C 0.06795 0.92122 0.32474 0.0
C3248 C 0.18366 0.17203 0.78976 0.0
C3249 C 0.18909 0.1656 0.80379 0.0
H3250 H 0.16827 0.18807 0.77868 0.0
C3251 C 0.18288 0.17114 0.81791 0.0
H3252 H 0.18819 0.1681 0.77867 0.0
C3253 C 0.17132 0.18273 0.81792 0.0
C3254 C 0.16579 0.18896 0.80381 0.0
H3255 H 0.18682 0.16641 0.82892 0.0
H3256 H 0.16661 0.18668 0.82893 0.0
C3257 C 0.1722 0.18353 0.78977 0.0
C3258 C 0.32402 0.42201 0.53986 0.0
C3259 C 0.3186 0.41557 0.55388 0.0
H3260 H 0.33941 0.43804 0.52877 0.0
C3261 C 0.32482 0.4211 0.568 0.0
H3262 H 0.31948 0.41809 0.52876 0.0
C3263 C 0.33639 0.43268 0.56801 0.0
C3264 C 0.34191 0.43892 0.5539 0.0
H3265 H 0.32088 0.41637 0.57901 0.0
H3266 H 0.34111 0.43661 0.57902 0.0
C3267 C 0.33549 0.4335 0.53986 0.0
C3268 C 0.32476 0.3364 0.18962 0.0
C3269 C 0.31854 0.34193 0.20374 0.0
H3270 H 0.34105 0.32087 0.17862 0.0
C3271 C 0.32396 0.33551 0.21777 0.0
H3272 H 0.32082 0.34111 0.17861 0.0
C3273 C 0.33544 0.32402 0.21777 0.0
C3274 C 0.34186 0.31859 0.20374 0.0
H3275 H 0.31943 0.33944 0.22887 0.0
H3276 H 0.33936 0.31949 0.22887 0.0
C3277 C 0.33633 0.32482 0.18963 0.0
C3278 C 0.17099 0.57487 0.93961 0.0
C3279 C 0.16545 0.56867 0.95373 0.0
H3280 H 0.18652 0.59114 0.92858 0.0
C3281 C 0.17188 0.5741 0.96776 0.0
H3282 H 0.16627 0.57092 0.9286 0.0
C3283 C 0.18337 0.58557 0.96775 0.0
C3284 C 0.1888 0.59198 0.95371 0.0
H3285 H 0.16794 0.56959 0.97885 0.0
H3286 H 0.1879 0.58951 0.97884 0.0
C3287 C 0.18258 0.58644 0.9396 0.0
C3288 C 0.5398 0.42199 0.32401 0.0
C3289 C 0.55383 0.41556 0.31859 0.0
H3290 H 0.52871 0.43802 0.33941 0.0
C3291 C 0.56795 0.42109 0.32481 0.0
H3292 H 0.5287 0.41806 0.31949 0.0
C3293 C 0.56795 0.43267 0.33638 0.0
C3294 C 0.55384 0.4389 0.3419 0.0
H3295 H 0.57895 0.41637 0.32087 0.0
H3296 H 0.57896 0.43662 0.34109 0.0
C3297 C 0.5398 0.43348 0.33549 0.0
C3298 C 0.18272 0.81794 0.17106 0.0
C3299 C 0.18893 0.80382 0.16553 0.0
H3300 H 0.16644 0.82896 0.18658 0.0
C3301 C 0.1835 0.78979 0.17196 0.0
H3302 H 0.18667 0.82894 0.16634 0.0
C3303 C 0.17202 0.7898 0.18344 0.0
C3304 C 0.16561 0.80384 0.18886 0.0
H3305 H 0.18803 0.77869 0.16803 0.0
H3306 H 0.16808 0.77871 0.18797 0.0
C3307 C 0.17115 0.81795 0.18264 0.0
C3308 C 0.324 0.21776 0.33559 0.0
C3309 C 0.31856 0.20373 0.34201 0.0
H3310 H 0.33942 0.22884 0.31958 0.0
C3311 C 0.32476 0.18961 0.33648 0.0
H3312 H 0.31948 0.22886 0.33952 0.0
C3313 C 0.33634 0.1896 0.3249 0.0
C3314 C 0.34188 0.20371 0.31868 0.0
H3315 H 0.32081 0.1786 0.3412 0.0
H3316 H 0.34104 0.17858 0.32096 0.0
C3317 C 0.33548 0.21775 0.32411 0.0
C3318 C 0.93963 0.07487 0.67105 0.0
C3319 C 0.95374 0.06865 0.66549 0.0
H3320 H 0.92865 0.09116 0.68659 0.0
C3321 C 0.96778 0.07407 0.67189 0.0
H3322 H 0.92862 0.07092 0.66636 0.0
C3323 C 0.9678 0.08556 0.68337 0.0
C3324 C 0.95378 0.09197 0.68882 0.0
H3325 H 0.97887 0.06954 0.66794 0.0
H3326 H 0.97891 0.08949 0.68788 0.0
C3327 C 0.93965 0.08644 0.68263 0.0
C3328 C 0.57414 0.17196 0.96778 0.0
C3329 C 0.5687 0.16555 0.95376 0.0
H3330 H 0.58957 0.18797 0.97887 0.0
C3331 C 0.57491 0.17107 0.93964 0.0
H3332 H 0.56962 0.16804 0.97888 0.0
C3333 C 0.58649 0.18264 0.93963 0.0
C3334 C 0.59204 0.18886 0.95374 0.0
H3335 H 0.57096 0.16636 0.92863 0.0
H3336 H 0.5912 0.18659 0.92862 0.0
C3337 C 0.58563 0.18344 0.96778 0.0
C3338 C 0.43267 0.92109 0.68953 0.0
C3339 C 0.4389 0.91556 0.70364 0.0
H3340 H 0.41636 0.93661 0.67854 0.0
C3341 C 0.43349 0.92198 0.71768 0.0
H3342 H 0.4366 0.91637 0.67852 0.0
C3343 C 0.42201 0.93346 0.71769 0.0
C3344 C 0.41557 0.93889 0.70366 0.0
H3345 H 0.43803 0.91806 0.72877 0.0
H3346 H 0.41809 0.93799 0.72879 0.0
C3347 C 0.42109 0.93266 0.68954 0.0
C3348 C 0.58539 0.07395 0.2898 0.0
C3349 C 0.59182 0.06851 0.30382 0.0
H3350 H 0.56938 0.08937 0.27871 0.0
C3351 C 0.5863 0.07474 0.31794 0.0
H3352 H 0.5893 0.06941 0.2787 0.0
C3353 C 0.57474 0.08633 0.31795 0.0
C3354 C 0.56851 0.09187 0.30384 0.0
H3355 H 0.59102 0.07079 0.32895 0.0
H3356 H 0.57081 0.09105 0.32896 0.0
C3357 C 0.57392 0.08544 0.28981 0.0
C3358 C 0.42197 0.32405 0.5398 0.0
C3359 C 0.41554 0.31862 0.55382 0.0
H3360 H 0.43798 0.33947 0.52871 0.0
C3361 C 0.42108 0.32484 0.56794 0.0
H3362 H 0.41804 0.31953 0.5287 0.0
C3363 C 0.43266 0.33641 0.56795 0.0
C3364 C 0.43888 0.34195 0.55384 0.0
H3365 H 0.41636 0.32089 0.57895 0.0
H3366 H 0.4366 0.34112 0.57896 0.0
C3367 C 0.43345 0.33553 0.5398 0.0
C3368 C 0.43272 0.68964 0.92111 0.0
C3369 C 0.43893 0.70376 0.91559 0.0
H3370 H 0.41642 0.6786 0.93659 0.0
C3371 C 0.43348 0.71779 0.92201 0.0
H3372 H 0.43668 0.67864 0.91639 0.0
C3373 C 0.42198 0.71777 0.93347 0.0
C3374 C 0.41557 0.70372 0.93888 0.0
H3375 H 0.438 0.72889 0.91809 0.0
H3376 H 0.41803 0.72885 0.938 0.0
C3377 C 0.42113 0.68962 0.93266 0.0
C3378 C 0.78976 0.1834 0.17187 0.0
C3379 C 0.8038 0.18882 0.16546 0.0
H3380 H 0.77864 0.16801 0.18789 0.0
C3381 C 0.81791 0.18261 0.17101 0.0
H3382 H 0.77867 0.18793 0.16792 0.0
C3383 C 0.81789 0.17105 0.1826 0.0
C3384 C 0.80377 0.16552 0.18882 0.0
H3385 H 0.82892 0.18655 0.1663 0.0
H3386 H 0.8289 0.16634 0.18657 0.0
C3387 C 0.78975 0.17194 0.18337 0.0
C3388 C 0.33559 0.53978 0.43349 0.0
C3389 C 0.34203 0.5538 0.43892 0.0
H3390 H 0.31957 0.52871 0.41808 0.0
C3391 C 0.33651 0.56793 0.4327 0.0
H3392 H 0.33951 0.52868 0.43802 0.0
C3393 C 0.32494 0.56794 0.42113 0.0
C3394 C 0.3187 0.55384 0.41559 0.0
H3395 H 0.34124 0.57893 0.43665 0.0
H3396 H 0.32101 0.57896 0.41642 0.0
C3397 C 0.32411 0.5398 0.42201 0.0
C3398 C 0.93953 0.17113 0.57476 0.0
C3399 C 0.95364 0.16559 0.56854 0.0
H3400 H 0.92852 0.18666 0.59104 0.0
C3401 C 0.96767 0.17202 0.57395 0.0
H3402 H 0.92852 0.1664 0.57083 0.0
C3403 C 0.96767 0.18352 0.58542 0.0
C3404 C 0.95364 0.18895 0.59184 0.0
H3405 H 0.97877 0.16809 0.56942 0.0
H3406 H 0.97877 0.18806 0.58934 0.0
C3407 C 0.93953 0.18272 0.58633 0.0
C3408 C 0.78987 0.08547 0.07388 0.0
C3409 C 0.8039 0.09189 0.06846 0.0
H3410 H 0.77876 0.06946 0.08928 0.0
C3411 C 0.81801 0.08636 0.0747 0.0
H3412 H 0.77877 0.08939 0.06933 0.0
C3413 C 0.818 0.07479 0.08628 0.0
C3414 C 0.80388 0.06857 0.0918 0.0
H3415 H 0.82902 0.09108 0.07077 0.0
H3416 H 0.82901 0.07085 0.09101 0.0
C3417 C 0.78986 0.07399 0.08536 0.0
C3418 C 0.42112 0.56789 0.32486 0.0
C3419 C 0.4156 0.55378 0.31864 0.0
H3420 H 0.43664 0.57891 0.34116 0.0
C3421 C 0.42202 0.53975 0.32407 0.0
H3422 H 0.41641 0.5789 0.32092 0.0
C3423 C 0.4335 0.53975 0.33555 0.0
C3424 C 0.43892 0.55378 0.34198 0.0
H3425 H 0.41809 0.52865 0.31954 0.0
H3426 H 0.43803 0.52865 0.33948 0.0
C3427 C 0.4327 0.5679 0.33644 0.0
C3428 C 0.68344 0.46769 0.58555 0.0
C3429 C 0.68885 0.45365 0.59197 0.0
H3430 H 0.66804 0.4788 0.56954 0.0
C3431 C 0.6826 0.43954 0.58645 0.0
H3432 H 0.68798 0.47878 0.58948 0.0
C3433 C 0.67103 0.43956 0.57487 0.0
C3434 C 0.66552 0.45368 0.56865 0.0
H3435 H 0.68653 0.42853 0.59117 0.0
H3436 H 0.6663 0.42855 0.57093 0.0
C3437 C 0.67196 0.4677 0.57407 0.0
C3438 C 0.18959 0.92112 0.93268 0.0
C3439 C 0.2037 0.91558 0.93891 0.0
H3440 H 0.1786 0.93665 0.91639 0.0
C3441 C 0.21774 0.922 0.93349 0.0
H3442 H 0.17858 0.91641 0.93662 0.0
C3443 C 0.21775 0.93348 0.92202 0.0
C3444 C 0.20373 0.93892 0.91559 0.0
H3445 H 0.22883 0.91806 0.93803 0.0
H3446 H 0.22885 0.93801 0.91809 0.0
C3447 C 0.1896 0.9327 0.92111 0.0
C3448 C 0.57405 0.96768 0.17193 0.0
C3449 C 0.56863 0.95365 0.1655 0.0
H3450 H 0.58946 0.97877 0.18795 0.0
C3451 C 0.57486 0.93953 0.17102 0.0
H3452 H 0.56951 0.97877 0.16801 0.0
C3453 C 0.58645 0.93953 0.18259 0.0
C3454 C 0.59197 0.95364 0.18882 0.0
H3455 H 0.57092 0.92852 0.1663 0.0
H3456 H 0.59117 0.92852 0.18653 0.0
C3457 C 0.58554 0.96768 0.18341 0.0
C3458 C 0.06806 0.32481 0.92121 0.0
C3459 C 0.05396 0.31856 0.91568 0.0
H3460 H 0.07904 0.34113 0.93673 0.0
C3461 C 0.03992 0.32396 0.9221 0.0
H3462 H 0.07908 0.32089 0.9165 0.0
C3463 C 0.03989 0.33544 0.93358 0.0
C3464 C 0.05391 0.3419 0.939 0.0
H3465 H 0.02883 0.3194 0.91817 0.0
H3466 H 0.02879 0.33935 0.9381 0.0
C3467 C 0.06804 0.33639 0.93278 0.0
C3468 C 0.58632 0.81788 0.57471 0.0
C3469 C 0.59185 0.80377 0.56849 0.0
H3470 H 0.57081 0.82889 0.59101 0.0
C3471 C 0.58544 0.78974 0.57393 0.0
H3472 H 0.59103 0.82889 0.57077 0.0
C3473 C 0.57396 0.78974 0.58542 0.0
C3474 C 0.56854 0.80377 0.59184 0.0
H3475 H 0.58937 0.77864 0.5694 0.0
H3476 H 0.56944 0.77864 0.58935 0.0
C3477 C 0.57475 0.81788 0.5863 0.0
C3478 C 0.2177 0.83554 0.82407 0.0
C3479 C 0.20367 0.84196 0.81864 0.0
H3480 H 0.22879 0.81953 0.83948 0.0
C3481 C 0.18955 0.83643 0.82485 0.0
H3482 H 0.2288 0.83947 0.81954 0.0
C3483 C 0.18955 0.82486 0.83643 0.0
C3484 C 0.20366 0.81864 0.84197 0.0
H3485 H 0.17854 0.84115 0.82091 0.0
H3486 H 0.17854 0.82092 0.84114 0.0
C3487 C 0.2177 0.82406 0.83555 0.0
C3488 C 0.43267 0.83641 0.06786 0.0
C3489 C 0.43888 0.84194 0.05374 0.0
H3490 H 0.41638 0.82088 0.07887 0.0
C3491 C 0.43345 0.83553 0.03971 0.0
H3492 H 0.43661 0.84112 0.07887 0.0
C3493 C 0.42196 0.82405 0.03971 0.0
C3494 C 0.41555 0.81861 0.05374 0.0
H3495 H 0.43797 0.83946 0.02861 0.0
H3496 H 0.41803 0.81952 0.02862 0.0
C3497 C 0.42109 0.82483 0.06786 0.0
C3498 C 0.57411 0.67194 0.46771 0.0
C3499 C 0.56866 0.66552 0.45369 0.0
H3500 H 0.58955 0.68794 0.47879 0.0
C3501 C 0.57487 0.67105 0.43956 0.0
H3502 H 0.56959 0.66802 0.47881 0.0
C3503 C 0.58646 0.68261 0.43955 0.0
C3504 C 0.59201 0.68883 0.45366 0.0
H3505 H 0.57091 0.66633 0.42856 0.0
H3506 H 0.59117 0.68655 0.42853 0.0
C3507 C 0.5856 0.68341 0.4677 0.0
C3508 C 0.58547 0.28975 0.07403 0.0
C3509 C 0.59189 0.30379 0.06861 0.0
H3510 H 0.56946 0.27865 0.08945 0.0
C3511 C 0.58636 0.3179 0.07484 0.0
H3512 H 0.58939 0.27866 0.0695 0.0
C3513 C 0.57479 0.3179 0.08642 0.0
C3514 C 0.56857 0.30378 0.09195 0.0
H3515 H 0.59108 0.32891 0.0709 0.0
H3516 H 0.57085 0.3289 0.09115 0.0
C3517 C 0.57399 0.28975 0.08552 0.0
C3518 C 0.06795 0.83654 0.43258 0.0
C3519 C 0.05383 0.84206 0.4388 0.0
H3520 H 0.07897 0.82103 0.41628 0.0
C3521 C 0.0398 0.83564 0.43336 0.0
H3522 H 0.07895 0.84125 0.43653 0.0
C3523 C 0.03981 0.82417 0.42187 0.0
C3524 C 0.05385 0.81875 0.41545 0.0
H3525 H 0.0287 0.83956 0.43788 0.0
H3526 H 0.02872 0.81964 0.41793 0.0
C3527 C 0.06796 0.82497 0.421 0.0
C3528 C 0.58554 0.46776 0.6835 0.0
C3529 C 0.59196 0.45374 0.68894 0.0
H3530 H 0.56952 0.47884 0.66807 0.0
C3531 C 0.58644 0.43962 0.68273 0.0
H3532 H 0.58946 0.47887 0.68802 0.0
C3533 C 0.57487 0.4396 0.67114 0.0
C3534 C 0.56864 0.45371 0.6656 0.0
H3535 H 0.59116 0.42861 0.68668 0.0
H3536 H 0.57093 0.42859 0.66644 0.0
C3537 C 0.57406 0.46775 0.67201 0.0
C3538 C 0.43273 0.06795 0.83646 0.0
C3539 C 0.43895 0.05384 0.84199 0.0
H3540 H 0.41644 0.07895 0.82092 0.0
C3541 C 0.43354 0.03981 0.83557 0.0
H3542 H 0.43666 0.07896 0.84118 0.0
C3543 C 0.42207 0.0398 0.82408 0.0
C3544 C 0.41565 0.05382 0.81864 0.0
H3545 H 0.43808 0.02871 0.8395 0.0
H3546 H 0.41815 0.0287 0.81954 0.0
C3547 C 0.42116 0.06794 0.82487 0.0
C3548 C 0.93955 0.67101 0.07492 0.0
C3549 C 0.95366 0.66548 0.06868 0.0
H3550 H 0.92856 0.68653 0.09122 0.0
C3551 C 0.9677 0.6719 0.07409 0.0
H3552 H 0.92854 0.66629 0.07098 0.0
C3553 C 0.96771 0.68338 0.08557 0.0
C3554 C 0.95368 0.68881 0.092 0.0
H3555 H 0.97879 0.66797 0.06955 0.0
H3556 H 0.97881 0.68792 0.08949 0.0
C3557 C 0.93956 0.68259 0.08649 0.0
C3558 C 0.43343 0.21771 0.42202 0.0
C3559 C 0.43886 0.20368 0.4156 0.0
H3560 H 0.41802 0.22881 0.43803 0.0
C3561 C 0.43264 0.18957 0.42113 0.0
H3562 H 0.43795 0.22881 0.41808 0.0
C3563 C 0.42107 0.18956 0.43271 0.0
C3564 C 0.41554 0.20368 0.43893 0.0
H3565 H 0.43659 0.17856 0.41642 0.0
H3566 H 0.41636 0.17855 0.43666 0.0
C3567 C 0.42195 0.21771 0.4335 0.0
C3568 C 0.43264 0.42104 0.18959 0.0
C3569 C 0.43886 0.41551 0.20371 0.0
H3570 H 0.41636 0.43657 0.17857 0.0
C3571 C 0.43343 0.42194 0.21774 0.0
H3572 H 0.43659 0.41632 0.17858 0.0
C3573 C 0.42195 0.43342 0.21773 0.0
C3574 C 0.41554 0.43885 0.2037 0.0
H3575 H 0.43795 0.41801 0.22883 0.0
H3576 H 0.41802 0.43795 0.22882 0.0
C3577 C 0.42107 0.43262 0.18958 0.0
C3578 C 0.58558 0.57415 0.78985 0.0
C3579 C 0.592 0.56872 0.80389 0.0
H3580 H 0.56958 0.58956 0.77876 0.0
C3581 C 0.58648 0.57495 0.818 0.0
H3582 H 0.58951 0.56961 0.77876 0.0
C3583 C 0.57491 0.58654 0.818 0.0
C3584 C 0.56869 0.59207 0.80388 0.0
H3585 H 0.5912 0.57101 0.82901 0.0
H3586 H 0.57098 0.59126 0.82901 0.0
C3587 C 0.57411 0.58564 0.78985 0.0
C3588 C 0.81797 0.68257 0.67096 0.0
C3589 C 0.80386 0.68879 0.66542 0.0
H3590 H 0.82898 0.66629 0.68649 0.0
C3591 C 0.78983 0.68336 0.67184 0.0
H3592 H 0.82898 0.68652 0.66625 0.0
C3593 C 0.78982 0.67188 0.68332 0.0
C3594 C 0.80386 0.66546 0.68876 0.0
H3595 H 0.77873 0.68788 0.6679 0.0
H3596 H 0.77873 0.66795 0.68785 0.0
C3597 C 0.81797 0.671 0.68254 0.0
C3598 C 0.32493 0.06794 0.92112 0.0
C3599 C 0.3187 0.05383 0.9156 0.0
H3600 H 0.34122 0.07895 0.93664 0.0
C3601 C 0.32413 0.0398 0.92203 0.0
H3602 H 0.32099 0.07895 0.9164 0.0
C3603 C 0.33561 0.0398 0.93351 0.0
C3604 C 0.34203 0.05383 0.93893 0.0
H3605 H 0.31959 0.0287 0.9181 0.0
H3606 H 0.33953 0.0287 0.93804 0.0
C3607 C 0.3365 0.06794 0.9327 0.0
C3608 C 0.78983 0.58535 0.57391 0.0
C3609 C 0.80387 0.59177 0.56849 0.0
H3610 H 0.77872 0.56936 0.58933 0.0
C3611 C 0.81798 0.58624 0.57473 0.0
H3612 H 0.77874 0.58928 0.56937 0.0
C3613 C 0.81797 0.57467 0.58632 0.0
C3614 C 0.80384 0.56846 0.59184 0.0
H3615 H 0.829 0.59095 0.5708 0.0
H3616 H 0.82897 0.57073 0.59105 0.0
C3617 C 0.78982 0.57388 0.5854 0.0
C3618 C 0.67109 0.93958 0.07484 0.0
C3619 C 0.66556 0.9537 0.06862 0.0
H3620 H 0.68662 0.92857 0.09113 0.0
C3621 C 0.67199 0.96773 0.07404 0.0
H3622 H 0.66637 0.92857 0.0709 0.0
C3623 C 0.68348 0.96772 0.08552 0.0
C3624 C 0.6889 0.95369 0.09194 0.0
H3625 H 0.66806 0.97882 0.06951 0.0
H3626 H 0.68801 0.97882 0.08945 0.0
C3627 C 0.68267 0.93958 0.08641 0.0
C3628 C 0.1896 0.43278 0.42118 0.0
C3629 C 0.20373 0.43899 0.41565 0.0
H3630 H 0.17858 0.41649 0.43669 0.0
C3631 C 0.21775 0.43356 0.42209 0.0
H3632 H 0.1786 0.43672 0.41645 0.0
C3633 C 0.21774 0.42208 0.43357 0.0
C3634 C 0.2037 0.41567 0.43899 0.0
H3635 H 0.22885 0.43808 0.41816 0.0
H3636 H 0.22883 0.41815 0.43811 0.0
C3637 C 0.18959 0.4212 0.43276 0.0
C3638 C 0.18955 0.32494 0.33651 0.0
C3639 C 0.20367 0.31871 0.34204 0.0
H3640 H 0.17855 0.34123 0.32099 0.0
C3641 C 0.2177 0.32413 0.33562 0.0
H3642 H 0.17854 0.321 0.34123 0.0
C3643 C 0.21771 0.33561 0.32414 0.0
C3644 C 0.20368 0.34203 0.31871 0.0
H3645 H 0.22879 0.31959 0.33955 0.0
H3646 H 0.2288 0.33953 0.31961 0.0
C3647 C 0.18956 0.33651 0.32493 0.0
C3648 C 0.09002 0.07867 0.47899 0.0
C3649 C 0.09698 0.0739 0.465 0.0
H3650 H 0.07266 0.09277 0.48982 0.0
C3651 C 0.09347 0.08199 0.4512 0.0
H3652 H 0.09266 0.07277 0.48982 0.0
C3653 C 0.08188 0.09357 0.4512 0.0
C3654 C 0.07379 0.09709 0.465 0.0
H3655 H 0.09864 0.07846 0.44026 0.0
H3656 H 0.07836 0.09875 0.44025 0.0
C3657 C 0.07857 0.09013 0.47899 0.0
C3658 C 0.91727 0.32866 0.72899 0.0
C3659 C 0.91036 0.32385 0.71498 0.0
H3660 H 0.9346 0.34276 0.73985 0.0
C3661 C 0.91393 0.33191 0.70118 0.0
H3662 H 0.91458 0.32277 0.73982 0.0
C3663 C 0.92552 0.34349 0.70119 0.0
C3664 C 0.93356 0.34702 0.71502 0.0
H3665 H 0.90879 0.32836 0.69022 0.0
H3666 H 0.92909 0.34863 0.69025 0.0
C3667 C 0.92872 0.3401 0.729 0.0
C3668 C 0.66407 0.17555 0.95123 0.0
C3669 C 0.66058 0.18365 0.96503 0.0
H3670 H 0.67916 0.15879 0.94026 0.0
C3671 C 0.66756 0.17887 0.97901 0.0
H3672 H 0.65888 0.17907 0.94029 0.0
C3673 C 0.67901 0.16742 0.97899 0.0
C3674 C 0.68377 0.16046 0.965 0.0
H3675 H 0.66493 0.18478 0.98985 0.0
H3676 H 0.68494 0.16478 0.98982 0.0
C3677 C 0.67565 0.16397 0.95121 0.0
C3678 C 0.83201 0.91403 0.20115 0.0
C3679 C 0.82394 0.9105 0.21496 0.0
H3680 H 0.84875 0.92916 0.1902 0.0
C3681 C 0.82874 0.91744 0.22895 0.0
H3682 H 0.82847 0.90887 0.19021 0.0
C3683 C 0.84019 0.92889 0.22895 0.0
C3684 C 0.84713 0.93369 0.21496 0.0
H3685 H 0.82285 0.91478 0.23979 0.0
H3686 H 0.84284 0.93478 0.23979 0.0
C3687 C 0.84359 0.92562 0.20115 0.0
C3688 C 0.08217 0.16407 0.8063 0.0
C3689 C 0.07412 0.16054 0.79248 0.0
H3690 H 0.09889 0.17919 0.81728 0.0
C3691 C 0.07894 0.16747 0.7785 0.0
H3692 H 0.07861 0.15891 0.81725 0.0
C3693 C 0.09039 0.17892 0.77852 0.0
C3694 C 0.09731 0.18372 0.79252 0.0
H3695 H 0.07306 0.16482 0.76765 0.0
H3696 H 0.09307 0.18482 0.76768 0.0
C3697 C 0.09376 0.17565 0.80632 0.0
C3698 C 0.83194 0.34344 0.05626 0.0
C3699 C 0.82384 0.34695 0.04246 0.0
H3700 H 0.84872 0.32834 0.06718 0.0
C3701 C 0.8286 0.34 0.02847 0.0
H3702 H 0.82843 0.34861 0.06721 0.0
C3703 C 0.84006 0.32855 0.02846 0.0
C3704 C 0.84704 0.32378 0.04243 0.0
H3705 H 0.82269 0.34264 0.01764 0.0
H3706 H 0.8427 0.32265 0.01762 0.0
C3707 C 0.84353 0.33186 0.05624 0.0
C3708 C 0.67544 0.09344 0.30633 0.0
C3709 C 0.68349 0.09699 0.29251 0.0
H3710 H 0.65872 0.07829 0.31728 0.0
C3711 C 0.67866 0.09008 0.27852 0.0
H3712 H 0.679 0.09857 0.31728 0.0
C3713 C 0.66721 0.07863 0.27852 0.0
C3714 C 0.66029 0.0738 0.29251 0.0
H3715 H 0.68453 0.09275 0.26767 0.0
H3716 H 0.66453 0.07275 0.26768 0.0
C3717 C 0.66385 0.08185 0.30633 0.0
C3718 C 0.91393 0.92561 0.55632 0.0
C3719 C 0.91038 0.93367 0.54251 0.0
H3720 H 0.92908 0.90888 0.56727 0.0
C3721 C 0.91731 0.92886 0.52852 0.0
H3722 H 0.90879 0.92916 0.56727 0.0
C3723 C 0.92876 0.91741 0.52851 0.0
C3724 C 0.93358 0.91049 0.5425 0.0
H3725 H 0.91464 0.93475 0.51767 0.0
H3726 H 0.93465 0.91475 0.51767 0.0
C3727 C 0.92552 0.91403 0.55631 0.0
C3728 C 0.47898 0.07866 0.09027 0.0
C3729 C 0.46499 0.07385 0.09718 0.0
H3730 H 0.48984 0.09278 0.07295 0.0
C3731 C 0.45118 0.08191 0.09363 0.0
H3732 H 0.48982 0.07278 0.09294 0.0
C3733 C 0.45118 0.09349 0.08205 0.0
C3734 C 0.465 0.09704 0.074 0.0
H3735 H 0.44022 0.07835 0.09877 0.0
H3736 H 0.44023 0.09864 0.07849 0.0
C3737 C 0.47899 0.09012 0.07882 0.0
C3738 C 0.92564 0.7012 0.34354 0.0
C3739 C 0.93368 0.71503 0.34708 0.0
H3740 H 0.90892 0.69023 0.3284 0.0
C3741 C 0.92885 0.72901 0.34016 0.0
H3742 H 0.9292 0.69026 0.34869 0.0
C3743 C 0.9174 0.729 0.3287 0.0
C3744 C 0.91049 0.715 0.32389 0.0
H3745 H 0.93472 0.73986 0.34282 0.0
H3746 H 0.91472 0.73984 0.32282 0.0
C3747 C 0.91405 0.70119 0.33195 0.0
C3748 C 0.30633 0.17547 0.59348 0.0
C3749 C 0.29252 0.18353 0.59703 0.0
H3750 H 0.31728 0.15874 0.57834 0.0
C3751 C 0.27852 0.17871 0.59011 0.0
H3752 H 0.31728 0.17903 0.59862 0.0
C3753 C 0.27852 0.16725 0.57867 0.0
C3754 C 0.29251 0.16033 0.57385 0.0
H3755 H 0.26768 0.1846 0.59278 0.0
H3756 H 0.26767 0.16459 0.57279 0.0
C3757 C 0.30633 0.16388 0.5819 0.0
C3758 C 0.83997 0.5285 0.82866 0.0
C3759 C 0.84695 0.54247 0.82388 0.0
H3760 H 0.8226 0.51769 0.84276 0.0
C3761 C 0.84345 0.55628 0.83196 0.0
H3762 H 0.8426 0.51765 0.82276 0.0
C3763 C 0.83187 0.5563 0.84354 0.0
C3764 C 0.82376 0.54251 0.84707 0.0
H3765 H 0.84864 0.56722 0.82842 0.0
H3766 H 0.82835 0.56726 0.84871 0.0
C3767 C 0.82852 0.52852 0.84012 0.0
C3768 C 0.45115 0.17554 0.16408 0.0
C3769 C 0.46496 0.18363 0.16058 0.0
H3770 H 0.4402 0.15877 0.17918 0.0
C3771 C 0.47894 0.17885 0.16754 0.0
H3772 H 0.44021 0.17907 0.15891 0.0
C3773 C 0.47894 0.16739 0.17898 0.0
C3774 C 0.46495 0.16043 0.18375 0.0
H3775 H 0.48978 0.18476 0.1649 0.0
H3776 H 0.48977 0.16474 0.18489 0.0
C3777 C 0.45115 0.16395 0.17566 0.0
C3778 C 0.84359 0.70115 0.42556 0.0
C3779 C 0.84712 0.71495 0.43365 0.0
H3780 H 0.82847 0.69021 0.40881 0.0
C3781 C 0.84018 0.72894 0.42887 0.0
H3782 H 0.84875 0.6902 0.4291 0.0
C3783 C 0.82873 0.72895 0.41741 0.0
C3784 C 0.82394 0.71497 0.41046 0.0
H3785 H 0.84283 0.73977 0.43477 0.0
H3786 H 0.82284 0.73979 0.41477 0.0
C3787 C 0.83201 0.70116 0.41398 0.0
C3788 C 0.3063 0.08188 0.66394 0.0
C3789 C 0.29249 0.07379 0.66044 0.0
H3790 H 0.31727 0.09863 0.67903 0.0
C3791 C 0.27851 0.07857 0.66742 0.0
H3792 H 0.31724 0.07835 0.65875 0.0
C3793 C 0.27853 0.09003 0.67888 0.0
C3794 C 0.29253 0.09698 0.68363 0.0
H3795 H 0.26767 0.07267 0.66479 0.0
H3796 H 0.26771 0.09267 0.6848 0.0
C3797 C 0.30632 0.09346 0.67552 0.0
C3798 C 0.91728 0.52851 0.92882 0.0
C3799 C 0.91036 0.5425 0.93364 0.0
H3800 H 0.93462 0.51768 0.9147 0.0
C3801 C 0.9139 0.55632 0.92559 0.0
H3802 H 0.91462 0.51767 0.9347 0.0
C3803 C 0.92548 0.55633 0.91401 0.0
C3804 C 0.93354 0.54252 0.91045 0.0
H3805 H 0.90875 0.56727 0.92915 0.0
H3806 H 0.92904 0.56728 0.90887 0.0
C3807 C 0.92873 0.52852 0.91737 0.0
C3808 C 0.09344 0.45116 0.08209 0.0
C3809 C 0.09698 0.46498 0.07405 0.0
H3810 H 0.07831 0.44018 0.09881 0.0
C3811 C 0.09006 0.47896 0.07888 0.0
H3812 H 0.09859 0.44021 0.07852 0.0
C3813 C 0.07861 0.47895 0.09034 0.0
C3814 C 0.0738 0.46494 0.09725 0.0
H3815 H 0.09272 0.48981 0.07301 0.0
H3816 H 0.07272 0.48978 0.09302 0.0
C3817 C 0.08186 0.45114 0.09368 0.0
C3818 C 0.59354 0.30627 0.17558 0.0
C3819 C 0.59708 0.29246 0.18364 0.0
H3820 H 0.5784 0.31722 0.15885 0.0
C3821 C 0.59015 0.27847 0.17883 0.0
H3822 H 0.59869 0.31722 0.17913 0.0
C3823 C 0.5787 0.27847 0.16737 0.0
C3824 C 0.57389 0.29246 0.16045 0.0
H3825 H 0.59281 0.26763 0.18471 0.0
H3826 H 0.57281 0.26763 0.16471 0.0
C3827 C 0.58195 0.30627 0.16399 0.0
C3828 C 0.70118 0.83193 0.41394 0.0
C3829 C 0.71499 0.82387 0.41041 0.0
H3830 H 0.69021 0.84866 0.42907 0.0
C3831 C 0.72898 0.82868 0.41734 0.0
H3832 H 0.69023 0.82838 0.40878 0.0
C3833 C 0.72897 0.84014 0.4288 0.0
C3834 C 0.71497 0.84706 0.4336 0.0
H3835 H 0.73982 0.8228 0.41469 0.0
H3836 H 0.7398 0.8428 0.43469 0.0
C3837 C 0.70117 0.84352 0.42553 0.0
C3838 C 0.17883 0.97894 0.66732 0.0
C3839 C 0.18363 0.96495 0.66039 0.0
H3840 H 0.16472 0.9898 0.68465 0.0
C3841 C 0.17556 0.95114 0.66394 0.0
H3842 H 0.18472 0.98978 0.66465 0.0
C3843 C 0.16397 0.95116 0.67552 0.0
C3844 C 0.16044 0.96497 0.68358 0.0
H3845 H 0.1791 0.94019 0.6588 0.0
H3846 H 0.15882 0.94021 0.67908 0.0
C3847 C 0.16737 0.97896 0.67877 0.0
C3848 C 0.52851 0.41743 0.42879 0.0
C3849 C 0.5425 0.41048 0.4336 0.0
H3850 H 0.51769 0.43478 0.41468 0.0
C3851 C 0.55631 0.41401 0.42553 0.0
H3852 H 0.51767 0.41478 0.43468 0.0
C3853 C 0.55632 0.42559 0.41394 0.0
C3854 C 0.54252 0.43367 0.4104 0.0
H3855 H 0.56726 0.40885 0.42908 0.0
H3856 H 0.56727 0.42913 0.40879 0.0
C3857 C 0.52852 0.42888 0.41734 0.0
C3858 C 0.164 0.8063 0.08193 0.0
C3859 C 0.16047 0.7925 0.07385 0.0
H3860 H 0.17913 0.81724 0.09868 0.0
C3861 C 0.16742 0.77851 0.07863 0.0
H3862 H 0.15883 0.81725 0.0784 0.0
C3863 C 0.17888 0.7785 0.09008 0.0
C3864 C 0.18367 0.79249 0.09703 0.0
H3865 H 0.16477 0.76767 0.07273 0.0
H3866 H 0.18478 0.76766 0.09272 0.0
C3867 C 0.17559 0.80629 0.09351 0.0
C3868 C 0.70121 0.91398 0.33191 0.0
C3869 C 0.71502 0.91047 0.32383 0.0
H3870 H 0.69024 0.92908 0.34866 0.0
C3871 C 0.729 0.91742 0.32863 0.0
H3872 H 0.69027 0.9088 0.32837 0.0
C3873 C 0.72899 0.92887 0.34009 0.0
C3874 C 0.715 0.93365 0.34703 0.0
H3875 H 0.73985 0.91479 0.32274 0.0
H3876 H 0.73982 0.93478 0.34274 0.0
C3877 C 0.7012 0.92556 0.3435 0.0
C3878 C 0.05651 0.33191 0.84363 0.0
C3879 C 0.0427 0.32385 0.84719 0.0
H3880 H 0.06743 0.34865 0.82847 0.0
C3881 C 0.0287 0.32865 0.84028 0.0
H3882 H 0.06746 0.32836 0.84876 0.0
C3883 C 0.02868 0.34011 0.82883 0.0
C3884 C 0.04266 0.34704 0.824 0.0
H3885 H 0.01786 0.32276 0.84296 0.0
H3886 H 0.01783 0.34276 0.82296 0.0
C3887 C 0.05648 0.3435 0.83204 0.0
C3888 C 0.07869 0.66745 0.27849 0.0
C3889 C 0.07391 0.6605 0.29248 0.0
H3890 H 0.09279 0.68479 0.26765 0.0
C3891 C 0.082 0.66403 0.30628 0.0
H3892 H 0.07278 0.6648 0.26766 0.0
C3893 C 0.09358 0.67561 0.30628 0.0
C3894 C 0.0971 0.68369 0.29247 0.0
H3895 H 0.07847 0.65886 0.31724 0.0
H3896 H 0.09876 0.67914 0.31722 0.0
C3897 C 0.09014 0.6789 0.27849 0.0
C3898 C 0.33195 0.84354 0.05625 0.0
C3899 C 0.32386 0.84706 0.04244 0.0
H3900 H 0.34869 0.82842 0.06719 0.0
C3901 C 0.32865 0.84011 0.02845 0.0
H3902 H 0.32841 0.84871 0.06719 0.0
C3903 C 0.3401 0.82865 0.02845 0.0
C3904 C 0.34705 0.82387 0.04244 0.0
H3905 H 0.32275 0.84276 0.01762 0.0
H3906 H 0.34274 0.82275 0.01762 0.0
C3907 C 0.34353 0.83195 0.05625 0.0
C3908 C 0.17904 0.0901 0.77847 0.0
C3909 C 0.18381 0.09707 0.79246 0.0
H3910 H 0.16495 0.07274 0.76764 0.0
C3911 C 0.17572 0.09355 0.80626 0.0
H3912 H 0.18495 0.09275 0.76764 0.0
C3913 C 0.16414 0.08196 0.80626 0.0
C3914 C 0.16063 0.07387 0.79246 0.0
H3915 H 0.17925 0.09873 0.81721 0.0
H3916 H 0.15897 0.07844 0.81721 0.0
C3917 C 0.16759 0.07865 0.77847 0.0
C3918 C 0.92893 0.84019 0.229 0.0
C3919 C 0.93371 0.84715 0.21501 0.0
H3920 H 0.91485 0.82283 0.23985 0.0
C3921 C 0.92562 0.84361 0.20121 0.0
H3922 H 0.93483 0.84285 0.23983 0.0
C3923 C 0.91405 0.83202 0.20122 0.0
C3924 C 0.91054 0.82393 0.21502 0.0
H3925 H 0.92915 0.84878 0.19026 0.0
H3926 H 0.90888 0.82848 0.19027 0.0
C3927 C 0.91749 0.82873 0.22901 0.0
C3928 C 0.17871 0.66739 0.97896 0.0
C3929 C 0.18353 0.66047 0.96497 0.0
H3930 H 0.16459 0.68471 0.9898 0.0
C3931 C 0.17547 0.66401 0.95115 0.0
H3932 H 0.1846 0.66472 0.9898 0.0
C3933 C 0.16388 0.67559 0.95116 0.0
C3934 C 0.16033 0.68365 0.96497 0.0
H3935 H 0.17902 0.65887 0.9402 0.0
H3936 H 0.15873 0.67914 0.9402 0.0
C3937 C 0.16725 0.67883 0.97896 0.0
C3938 C 0.32866 0.9174 0.72899 0.0
C3939 C 0.32387 0.91046 0.71501 0.0
H3940 H 0.34277 0.93475 0.73983 0.0
C3941 C 0.33195 0.91399 0.7012 0.0
H3942 H 0.32276 0.91475 0.73983 0.0
C3943 C 0.34353 0.92557 0.7012 0.0
C3944 C 0.34706 0.93365 0.71501 0.0
H3945 H 0.32841 0.90883 0.69025 0.0
H3946 H 0.3487 0.92911 0.69025 0.0
C3947 C 0.34012 0.92886 0.72899 0.0
C3948 C 0.52856 0.92891 0.9173 0.0
C3949 C 0.54255 0.9337 0.91037 0.0
H3950 H 0.51771 0.91481 0.93465 0.0
C3951 C 0.55636 0.92563 0.91391 0.0
H3952 H 0.51772 0.9348 0.91464 0.0
C3953 C 0.55635 0.91405 0.9255 0.0
C3954 C 0.54254 0.91052 0.93357 0.0
H3955 H 0.56731 0.92917 0.90876 0.0
H3956 H 0.5673 0.90889 0.92905 0.0
C3957 C 0.52855 0.91746 0.92876 0.0
C3958 C 0.07856 0.27844 0.66756 0.0
C3959 C 0.07381 0.29241 0.66055 0.0
H3960 H 0.09263 0.26763 0.68495 0.0
C3961 C 0.08194 0.30621 0.66403 0.0
H3962 H 0.07263 0.26761 0.66495 0.0
C3963 C 0.09352 0.30622 0.67561 0.0
C3964 C 0.09701 0.29243 0.68374 0.0
H3965 H 0.07844 0.31715 0.65881 0.0
H3966 H 0.09872 0.31717 0.6791 0.0
C3967 C 0.09001 0.27845 0.67901 0.0
C3968 C 0.17554 0.45121 0.16404 0.0
C3969 C 0.18359 0.46502 0.16048 0.0
H3970 H 0.15881 0.44026 0.17918 0.0
C3971 C 0.17878 0.47901 0.16739 0.0
H3972 H 0.17909 0.44025 0.1589 0.0
C3973 C 0.16732 0.47902 0.17884 0.0
C3974 C 0.1604 0.46503 0.18367 0.0
H3975 H 0.18466 0.48985 0.16472 0.0
H3976 H 0.16466 0.48987 0.18472 0.0
C3977 C 0.16395 0.45121 0.17562 0.0
C3978 C 0.55639 0.84366 0.83181 0.0
C3979 C 0.54258 0.84719 0.82373 0.0
H3980 H 0.56734 0.82854 0.84855 0.0
C3981 C 0.52859 0.84025 0.82853 0.0
H3982 H 0.56734 0.84883 0.82826 0.0
C3983 C 0.5286 0.82879 0.83998 0.0
C3984 C 0.54259 0.824 0.84692 0.0
H3985 H 0.51775 0.8429 0.82264 0.0
H3986 H 0.51776 0.8229 0.84264 0.0
C3987 C 0.55639 0.83208 0.84339 0.0
C3988 C 0.17879 0.27851 0.59006 0.0
C3989 C 0.18359 0.29249 0.59701 0.0
H3990 H 0.16467 0.2677 0.57271 0.0
C3991 C 0.17552 0.30631 0.5935 0.0
H3992 H 0.18468 0.26767 0.5927 0.0
C3993 C 0.16393 0.30632 0.58192 0.0
C3994 C 0.1604 0.29253 0.57383 0.0
H3995 H 0.17907 0.31725 0.59867 0.0
H3996 H 0.15878 0.31728 0.57839 0.0
C3997 C 0.16733 0.27853 0.57861 0.0
C3998 C 0.42557 0.70121 0.84358 0.0
C3999 C 0.43361 0.71504 0.84712 0.0
H4000 H 0.40886 0.69023 0.82844 0.0
C4001 C 0.42876 0.72902 0.84021 0.0
H4002 H 0.42916 0.69027 0.84872 0.0
C4003 C 0.4173 0.72901 0.82876 0.0
C4004 C 0.41041 0.715 0.82395 0.0
H4005 H 0.43463 0.73988 0.84287 0.0
H4006 H 0.41461 0.73984 0.82288 0.0
C4007 C 0.41398 0.70119 0.832 0.0
C4008 C 0.82856 0.02847 0.34006 0.0
C4009 C 0.82378 0.04245 0.34703 0.0
H4010 H 0.84266 0.01764 0.3227 0.0
C4011 C 0.83187 0.05626 0.34352 0.0
H4012 H 0.82266 0.01763 0.3427 0.0
C4013 C 0.84345 0.05626 0.33193 0.0
C4014 C 0.84697 0.04247 0.32383 0.0
H4015 H 0.82834 0.0672 0.3487 0.0
H4016 H 0.84863 0.06721 0.32841 0.0
C4017 C 0.84001 0.02848 0.32861 0.0
C4018 C 0.47902 0.59004 0.57881 0.0
C4019 C 0.46504 0.59698 0.574 0.0
H4020 H 0.48985 0.57271 0.59294 0.0
C4021 C 0.45122 0.59345 0.58207 0.0
H4022 H 0.48987 0.5927 0.57293 0.0
C4023 C 0.45121 0.58188 0.59366 0.0
C4024 C 0.46502 0.5738 0.5972 0.0
H4025 H 0.44028 0.59861 0.57851 0.0
H4026 H 0.44026 0.57834 0.59881 0.0
C4027 C 0.47901 0.5786 0.59027 0.0
C4028 C 0.82884 0.22894 0.91727 0.0
C4029 C 0.82402 0.21495 0.91036 0.0
H4030 H 0.84298 0.23978 0.93459 0.0
C4031 C 0.83207 0.20114 0.9139 0.0
H4032 H 0.82297 0.23979 0.91461 0.0
C4033 C 0.84366 0.20113 0.92548 0.0
C4034 C 0.84722 0.21495 0.93353 0.0
H4035 H 0.8285 0.19019 0.90876 0.0
H4036 H 0.8488 0.19018 0.92903 0.0
C4037 C 0.8403 0.22894 0.92871 0.0
C4038 C 0.97903 0.66728 0.17885 0.0
C4039 C 0.96505 0.66035 0.18366 0.0
H4040 H 0.98987 0.68462 0.16474 0.0
C4041 C 0.95123 0.66389 0.17561 0.0
H4042 H 0.98988 0.66461 0.18473 0.0
C4043 C 0.95123 0.67548 0.16403 0.0
C4044 C 0.96504 0.68355 0.16048 0.0
H4045 H 0.94028 0.65874 0.17916 0.0
H4046 H 0.94027 0.67903 0.15888 0.0
C4047 C 0.97903 0.67873 0.1674 0.0
C4048 C 0.07858 0.5903 0.97897 0.0
C4049 C 0.07376 0.5972 0.96497 0.0
H4050 H 0.0927 0.57299 0.98984 0.0
C4051 C 0.08181 0.59363 0.95116 0.0
H4052 H 0.0727 0.59299 0.98981 0.0
C4053 C 0.09339 0.58204 0.95117 0.0
C4054 C 0.09695 0.57401 0.965 0.0
H4055 H 0.07824 0.59875 0.9402 0.0
H4056 H 0.09853 0.57847 0.94022 0.0
C4057 C 0.09003 0.57885 0.97899 0.0
C4058 C 0.67564 0.66395 0.45119 0.0
C4059 C 0.68375 0.66046 0.46499 0.0
H4060 H 0.65886 0.67904 0.44024 0.0
C4061 C 0.67899 0.66745 0.47897 0.0
H4062 H 0.67915 0.65875 0.44025 0.0
C4063 C 0.66754 0.6789 0.47896 0.0
C4064 C 0.66056 0.68365 0.46498 0.0
H4065 H 0.68491 0.66483 0.4898 0.0
H4066 H 0.66491 0.68483 0.48979 0.0
C4067 C 0.66405 0.67553 0.45118 0.0
C4068 C 0.8287 0.41725 0.72897 0.0
C4069 C 0.82387 0.41034 0.71498 0.0
H4070 H 0.84284 0.43458 0.73981 0.0
C4071 C 0.8319 0.4139 0.70116 0.0
H4072 H 0.82284 0.41458 0.73982 0.0
C4073 C 0.84349 0.42548 0.70115 0.0
C4074 C 0.84706 0.43353 0.71497 0.0
H4075 H 0.82833 0.40876 0.69021 0.0
H4076 H 0.84862 0.42905 0.69019 0.0
C4077 C 0.84016 0.4287 0.72896 0.0
C4078 C 0.84356 0.83194 0.5562 0.0
C4079 C 0.84709 0.82386 0.5424 0.0
H4080 H 0.82844 0.84869 0.56715 0.0
C4081 C 0.84015 0.82865 0.52841 0.0
H4082 H 0.84872 0.82841 0.56716 0.0
C4083 C 0.8287 0.8401 0.5284 0.0
C4084 C 0.8239 0.84705 0.54239 0.0
H4085 H 0.84281 0.82275 0.51757 0.0
H4086 H 0.8228 0.84275 0.51756 0.0
C4087 C 0.83198 0.84352 0.5562 0.0
C4088 C 0.6674 0.57876 0.77858 0.0
C4089 C 0.66048 0.57396 0.79258 0.0
H4090 H 0.68472 0.59287 0.76771 0.0
C4091 C 0.66404 0.58203 0.80638 0.0
H4092 H 0.66473 0.57287 0.76774 0.0
C4093 C 0.67562 0.59362 0.80636 0.0
C4094 C 0.68367 0.59716 0.79254 0.0
H4095 H 0.6589 0.57849 0.81734 0.0
H4096 H 0.67918 0.59878 0.8173 0.0
C4097 C 0.67885 0.59022 0.77856 0.0
C4098 C 0.91746 0.42881 0.02856 0.0
C4099 C 0.91049 0.43359 0.04254 0.0
H4100 H 0.93483 0.41472 0.01774 0.0
C4101 C 0.91401 0.4255 0.05635 0.0
H4102 H 0.91482 0.43471 0.01772 0.0
C4103 C 0.92559 0.41392 0.05636 0.0
C4104 C 0.93369 0.41041 0.04256 0.0
H4105 H 0.90883 0.42903 0.06729 0.0
H4106 H 0.92912 0.40875 0.06731 0.0
C4107 C 0.92892 0.41736 0.02857 0.0
C4108 C 0.91763 0.22906 0.82854 0.0
C4109 C 0.91064 0.21508 0.82379 0.0
H4110 H 0.93501 0.2399 0.8426 0.0
C4111 C 0.91415 0.20129 0.83191 0.0
H4112 H 0.915 0.23989 0.82262 0.0
C4113 C 0.92574 0.20129 0.84349 0.0
C4114 C 0.93385 0.21509 0.84697 0.0
H4115 H 0.90895 0.19034 0.82841 0.0
H4116 H 0.92925 0.19035 0.84868 0.0
C4117 C 0.92909 0.22907 0.83999 0.0
C4118 C 0.27857 0.67879 0.09017 0.0
C4119 C 0.29256 0.6836 0.09709 0.0
H4120 H 0.26771 0.66468 0.07284 0.0
C4121 C 0.30637 0.67555 0.09352 0.0
H4122 H 0.26772 0.68467 0.09285 0.0
C4123 C 0.30637 0.66397 0.08194 0.0
C4124 C 0.29255 0.66042 0.07389 0.0
H4125 H 0.31733 0.67911 0.09866 0.0
H4126 H 0.31732 0.65883 0.07837 0.0
C4127 C 0.27856 0.66734 0.07871 0.0
C4128 C 0.45121 0.66392 0.67566 0.0
C4129 C 0.46502 0.6604 0.68373 0.0
H4130 H 0.44024 0.67904 0.65892 0.0
C4131 C 0.479 0.66734 0.67893 0.0
H4132 H 0.44026 0.65876 0.67921 0.0
C4133 C 0.479 0.67879 0.66747 0.0
C4134 C 0.465 0.68358 0.66054 0.0
H4135 H 0.48985 0.6647 0.68482 0.0
H4136 H 0.48983 0.68469 0.66481 0.0
C4137 C 0.4512 0.6755 0.66408 0.0
C4138 C 0.27857 0.59016 0.17889 0.0
C4139 C 0.29256 0.59709 0.18368 0.0
H4140 H 0.26772 0.57282 0.16478 0.0
C4141 C 0.30637 0.59356 0.1756 0.0
H4142 H 0.26773 0.59282 0.18478 0.0
C4143 C 0.30636 0.58197 0.16401 0.0
C4144 C 0.29254 0.57391 0.16048 0.0
H4145 H 0.31732 0.59871 0.17913 0.0
H4146 H 0.3173 0.57843 0.15885 0.0
C4147 C 0.27856 0.57871 0.16743 0.0
C4148 C 0.92882 0.02854 0.41739 0.0
C4149 C 0.9336 0.04254 0.41044 0.0
H4150 H 0.91472 0.01769 0.43473 0.0
C4151 C 0.9255 0.05633 0.41396 0.0
H4152 H 0.93473 0.01771 0.41474 0.0
C4153 C 0.91392 0.05632 0.42554 0.0
C4154 C 0.9104 0.04252 0.43362 0.0
H4155 H 0.92903 0.06728 0.40879 0.0
H4156 H 0.90874 0.06727 0.42907 0.0
C4157 C 0.91736 0.02853 0.42884 0.0
C4158 C 0.09016 0.97903 0.57869 0.0
C4159 C 0.09708 0.96504 0.57388 0.0
H4160 H 0.07282 0.98987 0.59281 0.0
C4161 C 0.09354 0.95123 0.58194 0.0
H4162 H 0.09282 0.98987 0.57281 0.0
C4163 C 0.08196 0.95122 0.59352 0.0
C4164 C 0.07389 0.96503 0.59707 0.0
H4165 H 0.09869 0.94028 0.57838 0.0
H4166 H 0.0784 0.94027 0.59867 0.0
C4167 C 0.0787 0.97903 0.59015 0.0
C4168 C 0.57868 0.77856 0.66731 0.0
C4169 C 0.57387 0.79254 0.66036 0.0
H4170 H 0.5928 0.76775 0.68466 0.0
C4171 C 0.58193 0.80636 0.66388 0.0
H4172 H 0.5728 0.76772 0.66466 0.0
C4173 C 0.59352 0.80638 0.67546 0.0
C4174 C 0.59706 0.79259 0.68354 0.0
H4175 H 0.57837 0.8173 0.65871 0.0
H4176 H 0.59866 0.81734 0.67899 0.0
C4177 C 0.59014 0.77859 0.67876 0.0
C4178 C 0.729 0.32871 0.91745 0.0
C4179 C 0.71502 0.3239 0.91052 0.0
H4180 H 0.73983 0.34283 0.9348 0.0
C4181 C 0.7012 0.33196 0.91405 0.0
H4182 H 0.73985 0.32283 0.9148 0.0
C4183 C 0.70119 0.34355 0.92563 0.0
C4184 C 0.715 0.34709 0.9337 0.0
H4185 H 0.69026 0.32841 0.90889 0.0
H4186 H 0.69024 0.3487 0.92917 0.0
C4187 C 0.72899 0.34017 0.9289 0.0
C4188 C 0.72899 0.42894 0.84023 0.0
C4189 C 0.71501 0.43373 0.84719 0.0
H4190 H 0.73982 0.41485 0.82287 0.0
C4191 C 0.7012 0.42565 0.84367 0.0
H4192 H 0.73983 0.43484 0.84288 0.0
C4193 C 0.7012 0.41407 0.83208 0.0
C4194 C 0.715 0.41055 0.82399 0.0
H4195 H 0.69025 0.42918 0.84884 0.0
H4196 H 0.69025 0.4089 0.82855 0.0
C4197 C 0.72899 0.41749 0.82878 0.0
C4198 C 0.02856 0.84022 0.32852 0.0
C4199 C 0.04255 0.84717 0.32374 0.0
H4200 H 0.01773 0.82286 0.34262 0.0
C4201 C 0.05635 0.84366 0.33183 0.0
H4202 H 0.01773 0.84286 0.32262 0.0
C4203 C 0.05635 0.83207 0.34341 0.0
C4204 C 0.04255 0.82398 0.34693 0.0
H4205 H 0.0673 0.84883 0.3283 0.0
H4206 H 0.0673 0.82854 0.34858 0.0
C4207 C 0.02856 0.82876 0.33997 0.0
C4208 C 0.32863 0.34012 0.52849 0.0
C4209 C 0.32385 0.34707 0.54248 0.0
H4210 H 0.34272 0.32276 0.51765 0.0
C4211 C 0.33194 0.34355 0.55628 0.0
H4212 H 0.32272 0.34276 0.51766 0.0
C4213 C 0.34352 0.33196 0.55628 0.0
C4214 C 0.34704 0.32387 0.54247 0.0
H4215 H 0.32842 0.34871 0.56723 0.0
H4216 H 0.3487 0.32843 0.56722 0.0
C4217 C 0.34008 0.32866 0.52849 0.0
C4218 C 0.1675 0.57874 0.27857 0.0
C4219 C 0.16055 0.57395 0.29256 0.0
H4220 H 0.18485 0.59284 0.26773 0.0
C4221 C 0.16408 0.58203 0.30636 0.0
H4222 H 0.16484 0.57284 0.26773 0.0
C4223 C 0.17567 0.59362 0.30636 0.0
C4224 C 0.18375 0.59714 0.29255 0.0
H4225 H 0.15892 0.5785 0.31731 0.0
H4226 H 0.1792 0.59878 0.31731 0.0
C4227 C 0.17895 0.59019 0.27857 0.0
C4228 C 0.17884 0.16751 0.47908 0.0
C4229 C 0.18361 0.16053 0.4651 0.0
H4230 H 0.16476 0.18487 0.48991 0.0
C4231 C 0.1755 0.16404 0.4513 0.0
H4232 H 0.18476 0.16487 0.48991 0.0
C4233 C 0.16392 0.17562 0.4513 0.0
C4234 C 0.16042 0.18373 0.4651 0.0
H4235 H 0.17901 0.15885 0.44035 0.0
H4236 H 0.15873 0.17914 0.44035 0.0
C4237 C 0.16739 0.17896 0.47908 0.0
C4238 C 0.3319 0.41397 0.2012 0.0
C4239 C 0.32384 0.41044 0.21502 0.0
H4240 H 0.34864 0.42908 0.19024 0.0
C4241 C 0.32864 0.41738 0.229 0.0
H4242 H 0.32835 0.40881 0.19026 0.0
C4243 C 0.3401 0.42883 0.22899 0.0
C4244 C 0.34703 0.43362 0.215 0.0
H4245 H 0.32275 0.41473 0.23984 0.0
H4246 H 0.34276 0.43472 0.23983 0.0
C4247 C 0.34349 0.42555 0.2012 0.0
C4248 C 0.09015 0.77857 0.17884 0.0
C4249 C 0.09709 0.79257 0.18363 0.0
H4250 H 0.07281 0.76772 0.16475 0.0
C4251 C 0.09354 0.80637 0.17556 0.0
H4252 H 0.09282 0.76774 0.18474 0.0
C4253 C 0.08195 0.80636 0.16399 0.0
C4254 C 0.07388 0.79255 0.16046 0.0
H4255 H 0.0987 0.81732 0.1791 0.0
H4256 H 0.0784 0.81731 0.15883 0.0
C4257 C 0.07869 0.77856 0.1674 0.0
C4258 C 0.52853 0.34014 0.32873 0.0
C4259 C 0.54252 0.34706 0.32391 0.0
H4260 H 0.51768 0.32281 0.34285 0.0
C4261 C 0.55633 0.34351 0.33197 0.0
H4262 H 0.51769 0.34281 0.32284 0.0
C4263 C 0.55633 0.33193 0.34356 0.0
C4264 C 0.54251 0.32387 0.34711 0.0
H4265 H 0.56729 0.34865 0.32842 0.0
H4266 H 0.56728 0.32837 0.34871 0.0
C4267 C 0.52852 0.32869 0.34018 0.0
C4268 C 0.42881 0.22896 0.34013 0.0
C4269 C 0.4336 0.21498 0.34708 0.0
H4270 H 0.41471 0.2398 0.32278 0.0
C4271 C 0.42552 0.20117 0.34356 0.0
H4272 H 0.43471 0.2398 0.34278 0.0
C4273 C 0.41393 0.20117 0.33198 0.0
C4274 C 0.41041 0.21498 0.3239 0.0
H4275 H 0.42905 0.19022 0.34873 0.0
H4276 H 0.40876 0.19022 0.32845 0.0
C4277 C 0.41735 0.22896 0.32868 0.0
C4278 C 0.95117 0.17561 0.66388 0.0
C4279 C 0.96498 0.18366 0.66031 0.0
H4280 H 0.94025 0.15888 0.67904 0.0
C4281 C 0.97898 0.17884 0.6672 0.0
H4282 H 0.94021 0.17917 0.65876 0.0
C4283 C 0.97901 0.16739 0.67864 0.0
C4284 C 0.96503 0.16047 0.68349 0.0
H4285 H 0.98982 0.18473 0.66451 0.0
H4286 H 0.98986 0.16472 0.6845 0.0
C4287 C 0.9512 0.16402 0.67546 0.0
C4288 C 0.58202 0.09352 0.9512 0.0
C4289 C 0.57397 0.09705 0.96502 0.0
H4290 H 0.59875 0.07839 0.94024 0.0
C4291 C 0.57879 0.09012 0.97901 0.0
H4292 H 0.57846 0.09867 0.94026 0.0
C4293 C 0.59025 0.07868 0.979 0.0
C4294 C 0.59717 0.07387 0.965 0.0
H4295 H 0.57291 0.09278 0.98985 0.0
H4296 H 0.59292 0.07279 0.98983 0.0
C4297 C 0.59361 0.08194 0.95119 0.0
C4298 C 0.41391 0.3319 0.20124 0.0
C4299 C 0.41037 0.32384 0.21505 0.0
H4300 H 0.42904 0.34863 0.19028 0.0
C4301 C 0.41731 0.32864 0.22904 0.0
H4302 H 0.40875 0.32836 0.19029 0.0
C4303 C 0.42877 0.34009 0.22903 0.0
C4304 C 0.43357 0.34702 0.21504 0.0
H4305 H 0.41465 0.32276 0.23988 0.0
H4306 H 0.43466 0.34275 0.23987 0.0
C4307 C 0.4255 0.34348 0.20123 0.0
C4308 C 0.59343 0.17551 0.30633 0.0
C4309 C 0.59694 0.1836 0.29253 0.0
H4310 H 0.57833 0.15874 0.31728 0.0
C4311 C 0.58998 0.17882 0.27854 0.0
H4312 H 0.59861 0.17904 0.31728 0.0
C4313 C 0.57854 0.16736 0.27854 0.0
C4314 C 0.57376 0.1604 0.29253 0.0
H4315 H 0.59262 0.18473 0.26771 0.0
H4316 H 0.57263 0.16472 0.2677 0.0
C4317 C 0.58185 0.16392 0.30633 0.0
C4318 C 0.4288 0.9174 0.02849 0.0
C4319 C 0.4336 0.91045 0.04248 0.0
H4320 H 0.41469 0.93475 0.01767 0.0
C4321 C 0.42554 0.91398 0.05629 0.0
H4322 H 0.43468 0.91474 0.01765 0.0
C4323 C 0.41396 0.92557 0.0563 0.0
C4324 C 0.41042 0.93365 0.0425 0.0
H4325 H 0.42909 0.90882 0.06724 0.0
H4326 H 0.40881 0.92911 0.06726 0.0
C4327 C 0.41735 0.92885 0.02851 0.0
C4328 C 0.97896 0.07864 0.59 0.0
C4329 C 0.96498 0.07387 0.59697 0.0
H4330 H 0.98979 0.09274 0.57265 0.0
C4331 C 0.95117 0.08196 0.59346 0.0
H4332 H 0.9898 0.07274 0.59264 0.0
C4333 C 0.95117 0.09354 0.58188 0.0
C4334 C 0.96497 0.09706 0.57378 0.0
H4335 H 0.94023 0.07843 0.59864 0.0
H4336 H 0.94022 0.09872 0.57835 0.0
C4337 C 0.97896 0.0901 0.57856 0.0
C4338 C 0.77857 0.17877 0.08995 0.0
C4339 C 0.79255 0.18356 0.09691 0.0
H4340 H 0.76775 0.16468 0.07258 0.0
C4341 C 0.80636 0.17549 0.09339 0.0
H4342 H 0.76773 0.18467 0.09259 0.0
C4343 C 0.80638 0.16391 0.0818 0.0
C4344 C 0.79258 0.16039 0.07371 0.0
H4345 H 0.8173 0.17903 0.09857 0.0
H4346 H 0.81733 0.15876 0.07828 0.0
C4347 C 0.77859 0.16733 0.07849 0.0
C4348 C 0.34358 0.55632 0.33196 0.0
C4349 C 0.34709 0.5425 0.32388 0.0
H4350 H 0.32848 0.56729 0.34871 0.0
C4351 C 0.34013 0.52853 0.32868 0.0
H4352 H 0.34876 0.56726 0.32842 0.0
C4353 C 0.32868 0.52854 0.34014 0.0
C4354 C 0.32391 0.54253 0.34708 0.0
H4355 H 0.34277 0.51768 0.32279 0.0
H4356 H 0.32277 0.51771 0.34279 0.0
C4357 C 0.332 0.55633 0.34355 0.0
C4358 C 0.34349 0.70118 0.92553 0.0
C4359 C 0.34703 0.71499 0.93361 0.0
H4360 H 0.32836 0.69024 0.9088 0.0
C4361 C 0.34009 0.72898 0.92882 0.0
H4362 H 0.34865 0.69023 0.92907 0.0
C4363 C 0.32863 0.72898 0.91737 0.0
C4364 C 0.32383 0.71499 0.91043 0.0
H4365 H 0.34275 0.73981 0.93471 0.0
H4366 H 0.32274 0.73982 0.91472 0.0
C4367 C 0.3319 0.70118 0.91395 0.0
C4368 C 0.77854 0.07871 0.16719 0.0
C4369 C 0.79254 0.07389 0.16029 0.0
H4370 H 0.76767 0.09282 0.18451 0.0
C4371 C 0.80635 0.08193 0.16387 0.0
H4372 H 0.76769 0.07283 0.1645 0.0
C4373 C 0.80634 0.09351 0.17546 0.0
C4374 C 0.79251 0.09706 0.1835 0.0
H4375 H 0.81731 0.07837 0.15874 0.0
H4376 H 0.81728 0.09864 0.17904 0.0
C4377 C 0.77852 0.09015 0.17865 0.0
C4378 C 0.42895 0.52843 0.41746 0.0
C4379 C 0.43371 0.54242 0.41049 0.0
H4380 H 0.41487 0.51759 0.43483 0.0
C4381 C 0.42561 0.55622 0.41401 0.0
H4382 H 0.43487 0.5176 0.41482 0.0
C4383 C 0.41403 0.55621 0.4256 0.0
C4384 C 0.41053 0.54241 0.4337 0.0
H4385 H 0.42912 0.56716 0.40883 0.0
H4386 H 0.40885 0.56715 0.42912 0.0
C4387 C 0.4175 0.52843 0.42892 0.0
C4388 C 0.58193 0.45124 0.59356 0.0
C4389 C 0.57382 0.46504 0.59707 0.0
H4390 H 0.59869 0.4403 0.57845 0.0
C4391 C 0.57858 0.47902 0.5901 0.0
H4392 H 0.57841 0.44029 0.59874 0.0
C4393 C 0.59003 0.47903 0.57865 0.0
C4394 C 0.59701 0.46505 0.57387 0.0
H4395 H 0.57267 0.48985 0.59274 0.0
H4396 H 0.59266 0.48987 0.57274 0.0
C4397 C 0.59351 0.45125 0.58197 0.0
C4398 C 0.22896 0.82865 0.91743 0.0
C4399 C 0.21497 0.82387 0.91048 0.0
H4400 H 0.2398 0.84275 0.93478 0.0
C4401 C 0.20117 0.83196 0.914 0.0
H4402 H 0.23979 0.82275 0.91478 0.0
C4403 C 0.20117 0.84355 0.92559 0.0
C4404 C 0.21498 0.84706 0.93367 0.0
H4405 H 0.19022 0.82843 0.90883 0.0
H4406 H 0.19023 0.84872 0.92912 0.0
C4407 C 0.22896 0.84011 0.92888 0.0
C4408 C 0.66401 0.95121 0.17553 0.0
C4409 C 0.66049 0.96501 0.18363 0.0
H4410 H 0.67912 0.94026 0.15877 0.0
C4411 C 0.66746 0.97899 0.17886 0.0
H4412 H 0.65883 0.94026 0.17905 0.0
C4413 C 0.67892 0.979 0.16741 0.0
C4414 C 0.68369 0.96501 0.16045 0.0
H4415 H 0.66482 0.98983 0.18477 0.0
H4416 H 0.68483 0.98983 0.16478 0.0
C4417 C 0.6756 0.95121 0.16395 0.0
C4418 C 0.05628 0.41394 0.92564 0.0
C4419 C 0.04247 0.41039 0.93371 0.0
H4420 H 0.06722 0.42907 0.90891 0.0
C4421 C 0.02848 0.41732 0.92891 0.0
H4422 H 0.06723 0.40879 0.92919 0.0
C4423 C 0.02847 0.42877 0.91746 0.0
C4424 C 0.04246 0.43358 0.91053 0.0
H4425 H 0.01764 0.41466 0.9348 0.0
H4426 H 0.01763 0.43466 0.91481 0.0
C4427 C 0.05627 0.42552 0.91406 0.0
C4428 C 0.67551 0.80627 0.5934 0.0
C4429 C 0.68356 0.79245 0.59694 0.0
H4430 H 0.65878 0.81724 0.57827 0.0
C4431 C 0.67873 0.77846 0.59003 0.0
H4432 H 0.67908 0.81722 0.59854 0.0
C4433 C 0.66726 0.77847 0.57858 0.0
C4434 C 0.66035 0.79247 0.57377 0.0
H4435 H 0.6846 0.76762 0.59269 0.0
H4436 H 0.66458 0.76763 0.57271 0.0
C4437 C 0.66392 0.80628 0.58182 0.0
C4438 C 0.20122 0.92559 0.84355 0.0
C4439 C 0.21504 0.93364 0.84709 0.0
H4440 H 0.19024 0.90886 0.82842 0.0
C4441 C 0.22902 0.92883 0.84015 0.0
H4442 H 0.19027 0.92914 0.84871 0.0
C4443 C 0.229 0.91737 0.82869 0.0
C4444 C 0.21501 0.91045 0.82389 0.0
H4445 H 0.23987 0.9347 0.8428 0.0
H4446 H 0.23984 0.91471 0.8228 0.0
C4447 C 0.2012 0.914 0.83197 0.0
C4448 C 0.58202 0.6641 0.80627 0.0
C4449 C 0.57392 0.66057 0.79247 0.0
H4450 H 0.59879 0.67922 0.81719 0.0
C4451 C 0.57869 0.66751 0.77848 0.0
H4452 H 0.5785 0.65894 0.81722 0.0
C4453 C 0.59015 0.67896 0.77846 0.0
C4454 C 0.59712 0.68375 0.79243 0.0
H4455 H 0.57278 0.66485 0.76765 0.0
H4456 H 0.59278 0.68485 0.76761 0.0
C4457 C 0.59361 0.67568 0.80625 0.0
C4458 C 0.42896 0.8401 0.729 0.0
C4459 C 0.43372 0.84705 0.715 0.0
H4460 H 0.41487 0.82274 0.73986 0.0
C4461 C 0.42561 0.84353 0.70121 0.0
H4462 H 0.43487 0.84274 0.73982 0.0
C4463 C 0.41402 0.83195 0.70123 0.0
C4464 C 0.41052 0.82386 0.71504 0.0
H4465 H 0.42912 0.8487 0.69026 0.0
H4466 H 0.40883 0.82842 0.69029 0.0
C4467 C 0.4175 0.82865 0.72901 0.0
C4468 C 0.05631 0.92567 0.41388 0.0
C4469 C 0.0425 0.93372 0.41033 0.0
H4470 H 0.06727 0.90895 0.42902 0.0
C4471 C 0.02851 0.9289 0.41725 0.0
H4472 H 0.06726 0.92923 0.40873 0.0
C4473 C 0.02851 0.91745 0.42871 0.0
C4474 C 0.04251 0.91054 0.43352 0.0
H4475 H 0.01766 0.93478 0.41458 0.0
H4476 H 0.01767 0.91479 0.43459 0.0
C4477 C 0.05632 0.91409 0.42546 0.0
C4478 C 0.67555 0.45121 0.66402 0.0
C4479 C 0.68364 0.465 0.66048 0.0
H4480 H 0.6588 0.44028 0.67915 0.0
C4481 C 0.67887 0.479 0.66742 0.0
H4482 H 0.67907 0.44025 0.65886 0.0
C4483 C 0.66742 0.47902 0.67888 0.0
C4484 C 0.66046 0.46504 0.68368 0.0
H4485 H 0.68477 0.48983 0.66476 0.0
H4486 H 0.66478 0.48986 0.68477 0.0
C4487 C 0.66397 0.45123 0.67561 0.0
C4488 C 0.67873 0.27848 0.09019 0.0
C4489 C 0.68356 0.29247 0.09711 0.0
H4490 H 0.66461 0.26765 0.07285 0.0
C4491 C 0.67552 0.30629 0.09356 0.0
H4492 H 0.68461 0.26764 0.09286 0.0
C4493 C 0.66393 0.3063 0.08197 0.0
C4494 C 0.66037 0.29249 0.07392 0.0
H4495 H 0.67909 0.31724 0.0987 0.0
H4496 H 0.6588 0.31726 0.07841 0.0
C4497 C 0.66728 0.27849 0.07874 0.0
C4498 C 0.34362 0.05633 0.83197 0.0
C4499 C 0.34716 0.04251 0.8239 0.0
H4500 H 0.32849 0.06728 0.8487 0.0
C4501 C 0.34023 0.02852 0.82871 0.0
H4502 H 0.34877 0.06728 0.82841 0.0
C4503 C 0.32879 0.02853 0.84017 0.0
C4504 C 0.32398 0.04252 0.8471 0.0
H4505 H 0.3429 0.01768 0.82283 0.0
H4506 H 0.3229 0.01768 0.84284 0.0
C4507 C 0.33204 0.05633 0.84355 0.0
C4508 C 0.979 0.58996 0.07861 0.0
C4509 C 0.96501 0.59695 0.07386 0.0
H4510 H 0.98983 0.57259 0.09268 0.0
C4511 C 0.95122 0.59346 0.08198 0.0
H4512 H 0.98982 0.59259 0.07268 0.0
C4513 C 0.95123 0.58188 0.09356 0.0
C4514 C 0.96502 0.57376 0.09705 0.0
H4515 H 0.94028 0.59866 0.07848 0.0
H4516 H 0.94028 0.57837 0.09876 0.0
C4517 C 0.979 0.57851 0.09006 0.0
C4518 C 0.34011 0.22899 0.42891 0.0
C4519 C 0.34704 0.21499 0.4337 0.0
H4520 H 0.32277 0.23985 0.41481 0.0
C4521 C 0.34349 0.20119 0.42562 0.0
H4522 H 0.34277 0.23982 0.4348 0.0
C4523 C 0.3319 0.20121 0.41404 0.0
C4524 C 0.32384 0.21502 0.41051 0.0
H4525 H 0.34864 0.19024 0.42916 0.0
H4526 H 0.32835 0.19026 0.40888 0.0
C4527 C 0.32865 0.229 0.41746 0.0
C4528 C 0.59359 0.58191 0.45113 0.0
C4529 C 0.59715 0.57386 0.46495 0.0
H4530 H 0.57843 0.59863 0.44019 0.0
C4531 C 0.59025 0.57868 0.47894 0.0
H4532 H 0.59872 0.57835 0.44018 0.0
C4533 C 0.57879 0.59013 0.47895 0.0
C4534 C 0.57396 0.59705 0.46496 0.0
H4535 H 0.59293 0.57281 0.48979 0.0
H4536 H 0.57292 0.5928 0.4898 0.0
C4537 C 0.582 0.59349 0.45114 0.0
C4538 C 0.42554 0.41399 0.55643 0.0
C4539 C 0.4336 0.41045 0.54261 0.0
H4540 H 0.40882 0.42913 0.56739 0.0
C4541 C 0.42877 0.41738 0.52862 0.0
H4542 H 0.42911 0.40885 0.56738 0.0
C4543 C 0.41732 0.42883 0.52863 0.0
C4544 C 0.4104 0.43364 0.54263 0.0
H4545 H 0.43465 0.41471 0.51778 0.0
H4546 H 0.41465 0.43471 0.51779 0.0
C4547 C 0.41396 0.42558 0.55644 0.0
C4548 C 0.77862 0.67864 0.59002 0.0
C4549 C 0.79261 0.68347 0.59693 0.0
H4550 H 0.76778 0.66451 0.5727 0.0
C4551 C 0.80643 0.67542 0.59339 0.0
H4552 H 0.76778 0.68452 0.59268 0.0
C4553 C 0.80643 0.66383 0.58181 0.0
C4554 C 0.79262 0.66027 0.57376 0.0
H4555 H 0.81738 0.67898 0.59853 0.0
H4556 H 0.81739 0.65869 0.57826 0.0
C4557 C 0.77863 0.66718 0.57858 0.0
C4558 C 0.80631 0.58184 0.66388 0.0
C4559 C 0.7925 0.57376 0.66036 0.0
H4560 H 0.81727 0.59858 0.679 0.0
C4561 C 0.77851 0.57856 0.6673 0.0
H4562 H 0.81726 0.57829 0.65872 0.0
C4563 C 0.77852 0.59002 0.67875 0.0
C4564 C 0.79251 0.59696 0.68354 0.0
H4565 H 0.76767 0.57267 0.66465 0.0
H4566 H 0.76768 0.59268 0.68465 0.0
C4567 C 0.80631 0.59342 0.67546 0.0
C4568 C 0.41751 0.02851 0.92895 0.0
C4569 C 0.41054 0.04249 0.93372 0.0
H4570 H 0.43487 0.01767 0.91486 0.0
C4571 C 0.41405 0.05629 0.92562 0.0
H4572 H 0.41488 0.01767 0.93486 0.0
C4573 C 0.42563 0.05629 0.91403 0.0
C4574 C 0.43373 0.04249 0.91052 0.0
H4575 H 0.40886 0.06723 0.92914 0.0
H4576 H 0.42915 0.06724 0.90885 0.0
C4577 C 0.42896 0.02851 0.91749 0.0
C4578 C 0.58194 0.95122 0.09349 0.0
C4579 C 0.57383 0.96501 0.09701 0.0
H4580 H 0.59871 0.94028 0.07839 0.0
C4581 C 0.57861 0.979 0.09005 0.0
H4582 H 0.57841 0.94027 0.09867 0.0
C4583 C 0.59007 0.97901 0.07861 0.0
C4584 C 0.59704 0.96503 0.07383 0.0
H4585 H 0.5727 0.98984 0.09269 0.0
H4586 H 0.59271 0.98985 0.07271 0.0
C4587 C 0.59353 0.95123 0.08192 0.0
C4588 C 0.20115 0.33204 0.41408 0.0
C4589 C 0.21496 0.32397 0.41055 0.0
H4590 H 0.1902 0.34879 0.4292 0.0
C4591 C 0.22894 0.32876 0.41749 0.0
H4592 H 0.1902 0.3285 0.40892 0.0
C4593 C 0.22894 0.34022 0.42894 0.0
C4594 C 0.21495 0.34716 0.43374 0.0
H4595 H 0.23978 0.32287 0.41484 0.0
H4596 H 0.23978 0.34287 0.43484 0.0
C4597 C 0.20115 0.34363 0.42566 0.0
C4598 C 0.22905 0.42892 0.34019 0.0
C4599 C 0.21507 0.43371 0.34714 0.0
H4600 H 0.23988 0.41482 0.32284 0.0
C4601 C 0.20126 0.42564 0.34362 0.0
H4602 H 0.23989 0.43481 0.34284 0.0
C4603 C 0.20125 0.41406 0.33204 0.0
C4604 C 0.21505 0.41053 0.32395 0.0
H4605 H 0.19031 0.42918 0.34879 0.0
H4606 H 0.1903 0.4089 0.3285 0.0
C4607 C 0.22905 0.41747 0.32874 0.0
C4608 C 0.98689 0.12285 0.49833 0.0
C4609 C 0.97971 0.13675 0.503 0.0
H4610 H 0.00399 0.11194 0.48422 0.0
C4611 C 0.98338 0.15059 0.49502 0.0
H4612 H 0.9842 0.11193 0.50399 0.0
C4613 C 0.99501 0.1506 0.48341 0.0
C4614 C 1.003 0.13676 0.47974 0.0
H4615 H 0.97802 0.16149 0.4984 0.0
H4616 H 0.99838 0.1615 0.47805 0.0
C4617 C 0.99833 0.12286 0.48691 0.0
C4618 C 0.88472 0.24836 0.73691 0.0
C4619 C 0.87081 0.25301 0.72975 0.0
H4620 H 0.89568 0.23426 0.75399 0.0
C4621 C 0.85698 0.245 0.73344 0.0
H4622 H 0.89563 0.25403 0.7342 0.0
C4623 C 0.85701 0.23338 0.74506 0.0
C4624 C 0.87087 0.22974 0.75303 0.0
H4625 H 0.84607 0.24836 0.7281 0.0
H4626 H 0.84612 0.22801 0.74845 0.0
C4627 C 0.88476 0.23693 0.74834 0.0
C4628 C 0.76255 0.10691 0.98331 0.0
C4629 C 0.75457 0.12076 0.97964 0.0
H4630 H 0.77952 0.096 0.9983 0.0
C4631 C 0.75926 0.13466 0.9868 0.0
H4632 H 0.75915 0.09601 0.97796 0.0
C4633 C 0.7707 0.13465 0.99823 0.0
C4634 C 0.77786 0.12075 1.0029 0.0
H4635 H 0.75361 0.14558 0.98411 0.0
H4636 H 0.77341 0.14557 0.00388 0.0
C4637 C 0.77417 0.10691 0.99492 0.0
C4638 C 0.87279 0.02058 0.24838 0.0
C4639 C 0.88668 0.02778 0.25305 0.0
H4640 H 0.8619 1.00347 0.23426 0.0
C4641 C 0.90052 0.02414 0.24505 0.0
H4642 H 0.86187 0.02324 0.25405 0.0
C4643 C 0.90054 0.01253 0.23343 0.0
C4644 C 0.88671 0.00451 0.22976 0.0
H4645 H 0.91141 0.02952 0.24843 0.0
H4646 H 0.91144 0.00917 0.22806 0.0
C4647 C 0.8728 0.00915 0.23694 0.0
C4648 C 0.99525 0.10712 0.77398 0.0
C4649 C 1.00335 0.12093 0.77753 0.0
H4650 H 0.97817 0.09623 0.7591 0.0
C4651 C 0.99879 0.1348 0.77023 0.0
H4652 H 0.99853 0.09624 0.77944 0.0
C4653 C 0.98736 0.13479 0.7588 0.0
C4654 C 0.98005 0.12091 0.75427 0.0
H4655 H 0.00454 0.1457 0.77281 0.0
H4656 H 0.98476 0.14568 0.75305 0.0
C4657 C 0.98362 0.10711 0.76237 0.0
C4658 C 0.87291 0.23696 0.00896 0.0
C4659 C 0.88682 0.22976 0.00434 0.0
H4660 H 0.86197 0.25406 0.02305 0.0
C4661 C 0.90064 0.23341 0.01237 0.0
H4662 H 0.86201 0.23429 1.00327 0.0
C4663 C 0.90062 0.24503 0.02399 0.0
C4664 C 0.88678 0.25303 0.02762 0.0
H4665 H 0.91154 0.22804 0.00903 0.0
H4666 H 0.91151 0.24838 0.02938 0.0
C4667 C 0.87289 0.24839 0.0204 0.0
C4668 C 0.77024 0.12273 0.25883 0.0
C4669 C 0.77753 0.13661 0.25429 0.0
H4670 H 0.75306 0.11182 0.27286 0.0
C4671 C 0.77396 0.15041 0.26239 0.0
H4672 H 0.77284 0.11184 0.25308 0.0
C4673 C 0.76235 0.1504 0.27401 0.0
C4674 C 0.75425 0.13659 0.27757 0.0
H4675 H 0.77941 0.1613 0.25911 0.0
H4676 H 0.75906 0.16128 0.27947 0.0
C4677 C 0.75881 0.12272 0.27027 0.0
C4678 C 0.8569 0.01246 0.52404 0.0
C4679 C 0.87073 0.00445 0.52769 0.0
H4680 H 0.846 0.02946 0.50907 0.0
C4681 C 0.88463 0.00909 0.52048 0.0
H4682 H 0.846 0.00911 0.52943 0.0
C4683 C 0.88463 0.02051 0.50904 0.0
C4684 C 0.87073 0.02772 0.5044 0.0
H4685 H 0.89554 1.00341 0.52315 0.0
H4686 H 0.89554 0.02318 0.50336 0.0
C4687 C 0.8569 0.02408 0.51242 0.0
C4688 C 0.48344 0.995 0.15058 0.0
C4689 C 0.47979 1.00302 0.13676 0.0
H4690 H 0.49843 0.97799 0.16145 0.0
C4691 C 0.48698 0.99839 0.12285 0.0
H4692 H 0.47807 0.99834 0.16148 0.0
C4693 C 0.49841 0.98696 0.12283 0.0
C4694 C 0.50306 0.97974 0.13672 0.0
H4695 H 0.4843 0.00408 0.11194 0.0
H4696 H 0.50408 0.9843 0.11191 0.0
C4697 C 0.49506 0.98338 0.15056 0.0
C4698 C 0.02415 0.74518 0.40045 0.0
C4699 C 0.02775 0.75322 0.38662 0.0
H4700 H 0.00921 0.72817 0.41137 0.0
C4701 C 0.0205 0.74859 0.37274 0.0
H4702 H 0.02956 0.74852 0.41134 0.0
C4703 C 0.00908 0.73716 0.37276 0.0
C4704 C 0.00448 0.72993 0.38666 0.0
H4705 H 0.02314 0.75429 0.36183 0.0
H4706 H 1.00337 0.73451 0.36186 0.0
C4707 C 0.01253 0.73356 0.40047 0.0
C4708 C 0.27039 0.25891 0.62275 0.0
C4709 C 0.27765 0.25432 0.63663 0.0
H4710 H 0.25323 0.27296 0.61185 0.0
C4711 C 0.27405 0.26238 0.65045 0.0
H4712 H 0.27301 0.25319 0.61184 0.0
C4713 C 0.26243 0.27399 0.65045 0.0
C4714 C 0.25436 0.27759 0.63664 0.0
H4715 H 0.27948 0.25907 0.66134 0.0
H4716 H 0.25912 0.27941 0.66134 0.0
C4717 C 0.25895 0.27033 0.62275 0.0
C4718 C 0.74829 0.52068 0.8729 0.0
C4719 C 0.75298 0.52785 0.88679 0.0
H4720 H 0.73416 0.50357 0.862 0.0
C4721 C 0.74502 0.52417 0.90064 0.0
H4722 H 0.75392 0.52337 0.86197 0.0
C4723 C 0.73341 0.51254 0.90066 0.0
C4724 C 0.72973 0.50455 0.88683 0.0
H4725 H 0.74842 0.52952 0.91154 0.0
H4726 H 0.72808 0.50915 0.91158 0.0
C4727 C 0.73687 0.50923 0.87291 0.0
C4728 C 0.49502 0.27403 0.10705 0.0
C4729 C 0.50306 0.27767 0.12087 0.0
H4730 H 0.478 0.25907 0.09617 0.0
C4731 C 0.49844 0.27046 0.13477 0.0
H4732 H 0.49836 0.27941 0.09615 0.0
C4733 C 0.487 0.25903 0.13479 0.0
C4734 C 0.47977 0.2544 0.1209 0.0
H4735 H 0.50413 0.27312 0.14568 0.0
H4736 H 0.48434 0.25335 0.1457 0.0
C4737 C 0.4834 0.26242 0.10707 0.0
C4738 C 0.74856 0.73707 0.38468 0.0
C4739 C 0.75317 0.72983 0.37079 0.0
H4740 H 0.73448 0.75421 0.39557 0.0
C4741 C 0.74513 0.73345 0.35696 0.0
H4742 H 0.75426 0.73443 0.39558 0.0
C4743 C 0.73351 0.74506 0.35696 0.0
C4744 C 0.72989 0.75311 0.37078 0.0
H4745 H 0.74846 0.72804 0.34607 0.0
H4746 H 0.72811 0.74839 0.34606 0.0
C4747 C 0.73712 0.7485 0.38467 0.0
C4748 C 0.25909 0.98691 0.63468 0.0
C4749 C 0.25444 0.97971 0.62078 0.0
H4750 H 0.27318 0.00402 0.64559 0.0
C4751 C 0.26246 0.98336 0.60695 0.0
H4752 H 0.25341 0.98424 0.64559 0.0
C4753 C 0.27407 0.99498 0.60695 0.0
C4754 C 0.27771 1.00299 0.62078 0.0
H4755 H 0.2591 0.97798 0.59605 0.0
H4756 H 0.27945 0.99834 0.59605 0.0
C4757 C 0.27051 0.99834 0.63468 0.0
C4758 C 0.00894 0.52042 0.88476 0.0
C4759 C 0.00434 0.52766 0.87086 0.0
H4760 H 0.023 0.50328 0.89568 0.0
C4761 C 0.01239 0.52403 0.85705 0.0
H4762 H 1.00323 0.52306 0.89566 0.0
C4763 C 0.02401 0.51242 0.85706 0.0
C4764 C 0.02761 0.50437 0.87089 0.0
H4765 H 0.00907 0.52944 0.84615 0.0
H4766 H 0.02942 0.50909 0.84617 0.0
C4767 C 0.02037 0.50899 0.88477 0.0
C4768 C 0.15033 0.48351 0.99514 0.0
C4769 C 0.13653 0.47996 1.00326 0.0
H4770 H 0.1612 0.49839 0.97805 0.0
C4771 C 0.12265 0.48726 0.99872 0.0
H4772 H 0.16121 0.47805 0.99841 0.0
C4773 C 0.12265 0.49869 0.98729 0.0
C4774 C 0.13652 0.50323 0.97997 0.0
H4775 H 0.11176 0.48468 0.00448 0.0
H4776 H 0.11175 0.50444 0.9847 0.0
C4777 C 0.15032 0.49512 0.98352 0.0
C4778 C 0.65047 0.26238 0.27411 0.0
C4779 C 0.63663 0.25437 0.27774 0.0
H4780 H 0.66139 0.27938 0.25915 0.0
C4781 C 0.62275 0.25901 0.27052 0.0
H4782 H 0.66136 0.25903 0.2795 0.0
C4783 C 0.62276 0.27044 0.25908 0.0
C4784 C 0.63666 0.27765 0.25446 0.0
H4785 H 0.61183 0.25333 0.27317 0.0
H4786 H 0.61185 0.27311 0.25339 0.0
C4787 C 0.65049 0.274 0.26249 0.0
C4788 C 0.74842 0.87277 0.52045 0.0
C4789 C 0.75306 0.88667 0.52766 0.0
H4790 H 0.73432 0.86186 0.50334 0.0
C4791 C 0.74504 0.9005 0.52403 0.0
H4792 H 0.75411 0.86186 0.52311 0.0
C4793 C 0.73342 0.9005 0.51242 0.0
C4794 C 0.72977 0.88667 0.5044 0.0
H4795 H 0.7484 0.91139 0.52942 0.0
H4796 H 0.72803 0.9114 0.50908 0.0
C4797 C 0.73698 0.87278 0.50903 0.0
C4798 C 0.13479 0.99847 0.77044 0.0
C4799 C 0.12091 1.00311 0.77767 0.0
H4800 H 0.14567 0.98438 0.75331 0.0
C4801 C 0.10707 0.9951 0.77405 0.0
H4802 H 0.14571 0.00415 0.77309 0.0
C4803 C 0.10705 0.98348 0.76243 0.0
C4804 C 0.12087 0.97984 0.75439 0.0
H4805 H 0.09618 0.99846 0.77945 0.0
H4806 H 0.09614 0.9781 0.7591 0.0
C4807 C 0.13477 0.98704 0.75901 0.0
C4808 C 0.52405 0.35705 0.51246 0.0
C4809 C 0.52764 0.37087 0.50439 0.0
H4810 H 0.50914 0.34615 0.5295 0.0
C4811 C 0.52038 0.38475 0.50899 0.0
H4812 H 0.52948 0.34617 0.50914 0.0
C4813 C 0.50895 0.38475 0.52042 0.0
C4814 C 0.50437 0.37086 0.52768 0.0
H4815 H 0.523 0.39566 0.50327 0.0
H4816 H 0.50323 0.39565 0.52305 0.0
C4817 C 0.51244 0.35705 0.52408 0.0
C4818 C 0.10693 0.7741 0.99507 0.0
C4819 C 0.12077 0.77772 1.00309 0.0
H4820 H 0.09601 0.75915 0.97806 0.0
C4821 C 0.13465 0.7705 0.99844 0.0
H4822 H 0.09604 0.77949 0.99843 0.0
C4823 C 0.13464 0.75908 0.98701 0.0
C4824 C 0.12074 0.75446 0.9798 0.0
H4825 H 0.14557 0.77315 0.00412 0.0
H4826 H 0.14555 0.75339 0.98434 0.0
C4827 C 0.10692 0.76249 0.98345 0.0
C4828 C 0.73711 0.88472 0.24843 0.0
C4829 C 0.72988 0.87083 0.25305 0.0
H4830 H 0.75423 0.89564 0.23435 0.0
C4831 C 0.73352 0.857 0.24502 0.0
H4832 H 0.73445 0.89563 0.25413 0.0
C4833 C 0.74514 0.85701 0.23341 0.0
C4834 C 0.75317 0.87084 0.22978 0.0
H4835 H 0.72812 0.84611 0.24836 0.0
H4836 H 0.74848 0.84611 0.22801 0.0
C4837 C 0.74854 0.88473 0.237 0.0
C4838 C 0.0089 0.37273 0.73727 0.0
C4839 C 0.00435 0.3866 0.72996 0.0
H4840 H 0.02294 0.36184 0.75444 0.0
C4841 C 0.01246 0.4004 0.73352 0.0
H4842 H 1.00315 0.36183 0.73468 0.0
C4843 C 0.02408 0.40041 0.74513 0.0
C4844 C 0.02764 0.38661 0.75323 0.0
H4845 H 0.00918 0.41129 0.72806 0.0
H4846 H 0.02954 0.41129 0.7484 0.0
C4847 C 0.02034 0.37273 0.74869 0.0
C4848 C 0.01244 0.8571 0.524 0.0
C4849 C 0.00437 0.87091 0.52759 0.0
H4850 H 0.02949 0.84622 0.50906 0.0
C4851 C 0.00895 0.8848 0.52033 0.0
H4852 H 0.00914 0.84621 0.52942 0.0
C4853 C 0.02038 0.8848 0.5089 0.0
C4854 C 0.02765 0.87092 0.50431 0.0
H4855 H 1.00323 0.8957 0.52296 0.0
H4856 H 0.023 0.89571 0.50318 0.0
C4857 C 0.02406 0.8571 0.51237 0.0
C4858 C 0.12287 0.75911 0.27046 0.0
C4859 C 0.13676 0.75447 0.27767 0.0
H4860 H 0.11195 0.77321 0.25336 0.0
C4861 C 0.15059 0.76249 0.27403 0.0
H4862 H 0.11196 0.75343 0.27313 0.0
C4863 C 0.15059 0.77411 0.26241 0.0
C4864 C 0.13676 0.77776 0.2544 0.0
H4865 H 0.16149 0.75914 0.27941 0.0
H4866 H 0.16149 0.7795 0.25906 0.0
C4867 C 0.12286 0.77055 0.25904 0.0
C4868 C 0.24506 0.90056 0.02406 0.0
C4869 C 0.25306 0.88673 0.02772 0.0
H4870 H 0.22807 0.91147 0.00908 0.0
C4871 C 0.24839 0.87283 0.02053 0.0
H4872 H 0.24843 0.91146 0.02943 0.0
C4873 C 0.23695 0.87283 0.00911 0.0
C4874 C 0.22977 0.88673 0.00445 0.0
H4875 H 0.25406 0.86191 0.02321 0.0
H4876 H 0.23427 0.86191 1.00344 0.0
C4877 C 0.23343 0.90056 0.01245 0.0
C4878 C 0.0092 0.87293 0.23684 0.0
C4879 C 0.00452 0.88683 0.22968 0.0
H4880 H 0.02334 0.86201 0.25392 0.0
C4881 C 0.0125 0.90067 0.23335 0.0
H4882 H 1.00355 0.862 0.23415 0.0
C4883 C 0.02412 0.90068 0.24496 0.0
C4884 C 0.0278 0.88684 0.25294 0.0
H4885 H 0.00911 0.91157 0.228 0.0
H4886 H 0.02947 0.91158 0.24834 0.0
C4887 C 0.02064 0.87293 0.24827 0.0
C4888 C 0.23703 0.8847 0.74848 0.0
C4889 C 0.22981 0.87081 0.75311 0.0
H4890 H 0.25417 0.89561 0.73441 0.0
C4891 C 0.23344 0.85698 0.74509 0.0
H4892 H 0.23438 0.89562 0.75417 0.0
C4893 C 0.24507 0.85698 0.73347 0.0
C4894 C 0.2531 0.87081 0.72984 0.0
H4895 H 0.22804 0.84609 0.74843 0.0
H4896 H 0.24841 0.84608 0.72808 0.0
C4897 C 0.24847 0.8847 0.73706 0.0
C4898 C 0.1505 0.99511 0.48342 0.0
C4899 C 0.13666 1.00312 0.47978 0.0
H4900 H 0.16141 0.97811 0.49838 0.0
C4901 C 0.12277 0.99848 0.487 0.0
H4902 H 0.16139 0.99846 0.47803 0.0
C4903 C 0.12278 0.98705 0.49843 0.0
C4904 C 0.13668 0.97985 0.50306 0.0
H4905 H 0.11186 0.00416 0.48434 0.0
H4906 H 0.11187 0.98439 0.50412 0.0
C4907 C 0.15051 0.98349 0.49503 0.0
C4908 C 0.5125 0.02415 0.85696 0.0
C4909 C 0.50452 0.0278 0.87081 0.0
H4910 H 0.52947 0.00917 0.84603 0.0
C4911 C 0.50919 0.02061 0.8847 0.0
H4912 H 0.50912 0.02952 0.84607 0.0
C4913 C 0.52063 0.00918 0.88468 0.0
C4914 C 0.5278 0.00453 0.87077 0.0
H4915 H 0.50354 0.02328 0.89562 0.0
H4916 H 0.52332 1.00351 0.89559 0.0
C4917 C 0.52412 0.01253 0.85694 0.0
C4918 C 0.98343 0.26249 0.60691 0.0
C4919 C 0.97974 0.25449 0.62074 0.0
H4920 H 0.99845 0.27947 0.59604 0.0
C4921 C 0.98691 0.25914 0.63465 0.0
H4922 H 0.97809 0.25913 0.596 0.0
C4923 C 0.99835 0.27057 0.63468 0.0
C4924 C 1.00304 0.27775 0.62079 0.0
H4925 H 0.9842 0.25347 0.64556 0.0
H4926 H 0.004 0.27324 0.64561 0.0
C4927 C 0.99506 0.2741 0.60694 0.0
C4928 C 0.259 0.48709 0.13475 0.0
C4929 C 0.25439 0.47985 0.12086 0.0
H4930 H 0.27307 0.50423 0.14565 0.0
C4931 C 0.26243 0.48346 0.10704 0.0
H4932 H 0.25329 0.48445 0.14566 0.0
C4933 C 0.27405 0.49508 0.10703 0.0
C4934 C 0.27767 0.50313 0.12086 0.0
H4935 H 0.2591 0.47806 0.09614 0.0
H4936 H 0.27946 0.49841 0.09614 0.0
C4937 C 0.27043 0.49852 0.13475 0.0
C4938 C 0.509 0.73723 0.87275 0.0
C4939 C 0.50443 0.72998 0.88665 0.0
H4940 H 0.52305 0.75436 0.86181 0.0
C4941 C 0.51252 0.73359 0.90045 0.0
H4942 H 0.50326 0.7346 0.86186 0.0
C4943 C 0.52414 0.7452 0.90042 0.0
C4944 C 0.52773 0.75325 0.88659 0.0
H4945 H 0.50922 0.72817 0.91135 0.0
H4946 H 0.52959 0.74851 0.9113 0.0
C4947 C 0.52044 0.74865 0.87272 0.0
C4948 C 0.73688 0.00911 0.3728 0.0
C4949 C 0.7297 0.00444 0.3867 0.0
H4950 H 0.75397 0.02323 0.36188 0.0
C4951 C 0.73338 0.01243 0.40054 0.0
H4952 H 0.73419 1.00346 0.36188 0.0
C4953 C 0.745 0.02405 0.40054 0.0
C4954 C 0.75298 0.02772 0.3867 0.0
H4955 H 0.72802 0.00905 0.41144 0.0
H4956 H 0.74837 0.0294 0.41144 0.0
C4957 C 0.74831 0.02055 0.3728 0.0
C4958 C 0.98337 0.49501 0.15065 0.0
C4959 C 0.97971 0.50299 0.1368 0.0
H4960 H 0.99835 0.47804 0.16158 0.0
C4961 C 0.98689 0.4983 0.1229 0.0
H4962 H 0.978 0.4984 0.16154 0.0
C4963 C 0.99832 0.48686 0.12292 0.0
C4964 C 1.00298 0.4797 0.13683 0.0
H4965 H 0.98421 0.50395 0.11198 0.0
H4966 H 0.00398 0.48416 0.11201 0.0
C4967 C 0.99498 0.48339 0.15066 0.0
C4968 C 0.85695 0.51236 0.02409 0.0
C4969 C 0.87078 0.50433 0.0277 0.0
H4970 H 0.84604 0.52938 0.00915 0.0
C4971 C 0.88467 0.50895 0.02047 0.0
H4972 H 0.84606 0.50902 0.0295 0.0
C4973 C 0.88465 0.52039 0.00904 0.0
C4974 C 0.87076 0.52762 0.00443 0.0
H4975 H 0.89558 0.50326 0.0231 0.0
H4976 H 0.89556 0.52304 1.00334 0.0
C4977 C 0.85694 0.52398 0.01248 0.0
C4978 C 0.38472 0.73703 0.74852 0.0
C4979 C 0.37082 0.7298 0.75314 0.0
H4980 H 0.39563 0.75417 0.73446 0.0
C4981 C 0.357 0.73344 0.7451 0.0
H4982 H 0.39563 0.73437 0.75422 0.0
C4983 C 0.357 0.74507 0.73349 0.0
C4984 C 0.37083 0.7531 0.72988 0.0
H4985 H 0.3461 0.72805 0.74844 0.0
H4986 H 0.34611 0.74841 0.7281 0.0
C4987 C 0.38472 0.74847 0.7371 0.0
C4988 C 0.26237 0.10695 0.48342 0.0
C4989 C 0.25438 0.12079 0.47978 0.0
H4990 H 0.27936 0.09601 0.49838 0.0
C4991 C 0.25906 0.13468 0.48698 0.0
H4992 H 0.25899 0.09605 0.47804 0.0
C4993 C 0.2705 0.13466 0.4984 0.0
C4994 C 0.27768 0.12075 0.50304 0.0
H4995 H 0.2534 0.1456 0.48431 0.0
H4996 H 0.2732 0.14557 0.50408 0.0
C4997 C 0.274 0.10692 0.49503 0.0
C4998 C 0.49862 0.62273 0.4872 0.0
C4999 C 0.50318 0.63662 0.47992 0.0
H5000 H 0.48459 0.61182 0.50436 0.0
C5001 C 0.4951 0.65043 0.48351 0.0
H5002 H 0.50435 0.61184 0.48457 0.0
C5003 C 0.48349 0.65042 0.49514 0.0
C5004 C 0.47991 0.6366 0.50322 0.0
H5005 H 0.49839 0.66132 0.47808 0.0
H5006 H 0.47805 0.6613 0.49844 0.0
C5007 C 0.48719 0.62272 0.49863 0.0
C5008 C 0.25929 0.12281 0.77055 0.0
C5009 C 0.25462 0.13671 0.77771 0.0
H5010 H 0.2734 0.11187 0.75347 0.0
C5011 C 0.2626 0.15055 0.77402 0.0
H5012 H 0.25363 0.11189 0.77326 0.0
C5013 C 0.27421 0.15054 0.7624 0.0
C5014 C 0.27788 0.13669 0.75442 0.0
H5015 H 0.25922 0.16146 0.77937 0.0
H5016 H 0.27956 0.16144 0.759 0.0
C5017 C 0.27071 0.1228 0.75911 0.0
C5018 C 0.98351 0.60694 0.26251 0.0
C5019 C 0.97984 0.62076 0.25449 0.0
H5020 H 0.99849 0.59606 0.27951 0.0
C5021 C 0.98703 0.63467 0.25912 0.0
H5022 H 0.97814 0.59603 0.25915 0.0
C5023 C 0.99846 0.63469 0.27056 0.0
C5024 C 1.00312 0.6208 0.27777 0.0
H5025 H 0.98435 0.64557 0.25344 0.0
H5026 H 0.00412 0.64561 0.27322 0.0
C5027 C 0.99512 0.60695 0.27412 0.0
C5028 C 0.98686 0.62282 0.9984 0.0
C5029 C 0.97967 0.6367 1.00308 0.0
H5030 H 0.00396 0.61193 0.98425 0.0
C5031 C 0.98331 0.65055 0.9951 0.0
H5032 H 0.9842 0.61189 0.00406 0.0
C5033 C 0.99492 0.65057 0.98346 0.0
C5034 C 1.00292 0.63675 0.97978 0.0
H5035 H 0.97794 0.66144 0.99848 0.0
H5036 H 0.99827 0.66149 0.97811 0.0
C5037 C 0.99828 0.62284 0.98695 0.0
C5038 C 0.8848 0.73708 0.24849 0.0
C5039 C 0.87091 0.72984 0.25309 0.0
H5040 H 0.89571 0.75423 0.23443 0.0
C5041 C 0.85708 0.73346 0.24505 0.0
H5042 H 0.8957 0.73443 0.25419 0.0
C5043 C 0.85709 0.74509 0.23344 0.0
C5044 C 0.87091 0.75314 0.22984 0.0
H5045 H 0.84619 0.72805 0.24838 0.0
H5046 H 0.84619 0.74842 0.22804 0.0
C5047 C 0.8848 0.74852 0.23707 0.0
C5048 C 0.75921 0.6346 0.48688 0.0
C5049 C 0.75452 0.62071 0.47968 0.0
H5050 H 0.77334 0.64549 0.50397 0.0
C5051 C 0.76251 0.60687 0.48333 0.0
H5052 H 0.75355 0.64553 0.4842 0.0
C5053 C 0.77413 0.60684 0.49494 0.0
C5054 C 0.77782 0.62067 0.50295 0.0
H5055 H 0.75912 0.59597 0.47796 0.0
H5056 H 0.77949 0.59593 0.4983 0.0
C5057 C 0.77065 0.63458 0.4983 0.0
C5058 C 0.90045 0.51238 0.73345 0.0
C5059 C 0.88663 0.50433 0.72982 0.0
H5060 H 0.91134 0.5294 0.7484 0.0
C5061 C 0.87274 0.50893 0.73706 0.0
H5062 H 0.91135 0.50906 0.72804 0.0
C5063 C 0.87274 0.52036 0.7485 0.0
C5064 C 0.88662 0.5276 0.75312 0.0
H5065 H 0.86184 0.50323 0.73442 0.0
H5066 H 0.86183 0.52299 0.75421 0.0
C5067 C 0.90045 0.52399 0.74507 0.0
C5068 C 0.87287 0.73695 0.50907 0.0
C5069 C 0.88677 0.72975 0.50443 0.0
H5070 H 0.86195 0.75407 0.52316 0.0
C5071 C 0.9006 0.73342 0.51243 0.0
H5072 H 0.86195 0.73427 0.5034 0.0
C5073 C 0.9006 0.74505 0.52404 0.0
C5074 C 0.88676 0.75306 0.52768 0.0
H5075 H 0.9115 0.72805 0.50908 0.0
H5076 H 0.9115 0.74842 0.52941 0.0
C5077 C 0.87287 0.7484 0.52049 0.0
C5078 C 0.76251 0.65054 0.77395 0.0
C5079 C 0.75446 0.63672 0.77759 0.0
H5080 H 0.77954 0.66139 0.75899 0.0
C5081 C 0.75905 0.62282 0.77037 0.0
H5082 H 0.7592 0.66144 0.77935 0.0
C5083 C 0.77048 0.6228 0.75894 0.0
C5084 C 0.77773 0.63667 0.7543 0.0
H5085 H 0.75334 0.61192 0.77303 0.0
H5086 H 0.77311 0.61188 0.75325 0.0
C5087 C 0.77413 0.65051 0.76233 0.0
C5088 C 0.48693 0.49833 0.62293 0.0
C5089 C 0.47977 0.503 0.63684 0.0
H5090 H 0.50401 0.48422 0.61199 0.0
C5091 C 0.48346 0.49501 0.65067 0.0
H5092 H 0.48423 0.50399 0.61201 0.0
C5093 C 0.49508 0.48339 0.65066 0.0
C5094 C 0.50305 0.47973 0.63681 0.0
H5095 H 0.47811 0.49838 0.66158 0.0
H5096 H 0.49847 0.47804 0.66156 0.0
C5097 C 0.49836 0.4869 0.62291 0.0
C5098 C 0.01262 0.23341 0.90056 0.0
C5099 C 0.00464 0.22976 0.88671 0.0
H5100 H 0.0296 0.24837 0.9115 0.0
C5101 C 0.00932 0.23695 0.87282 0.0
H5102 H 0.00923 0.22804 0.91145 0.0
C5103 C 0.02077 0.24837 0.87284 0.0
C5104 C 0.02794 0.25302 0.88676 0.0
H5105 H 1.00367 0.23428 0.8619 0.0
H5106 H 0.02347 0.25404 0.86193 0.0
C5107 C 0.02425 0.24502 0.90058 0.0
C5108 C 0.25909 0.77046 0.12279 0.0
C5109 C 0.25446 0.77768 0.13668 0.0
H5110 H 0.27318 0.75333 0.11189 0.0
C5111 C 0.26249 0.77406 0.15051 0.0
H5112 H 0.2534 0.77311 0.11188 0.0
C5113 C 0.27411 0.76244 0.15051 0.0
C5114 C 0.27775 0.75441 0.13669 0.0
H5115 H 0.25915 0.77946 0.1614 0.0
H5116 H 0.27951 0.75911 0.16141 0.0
C5117 C 0.27052 0.75903 0.12279 0.0
C5118 C 0.48703 0.75898 0.63473 0.0
C5119 C 0.47978 0.75435 0.62085 0.0
H5120 H 0.50417 0.77306 0.6456 0.0
C5121 C 0.48338 0.76238 0.60701 0.0
H5122 H 0.4844 0.75328 0.64564 0.0
C5123 C 0.495 0.774 0.60699 0.0
C5124 C 0.50306 0.77763 0.6208 0.0
H5125 H 0.47797 0.75904 0.59613 0.0
H5126 H 0.49832 0.77939 0.59609 0.0
C5127 C 0.49846 0.77041 0.6347 0.0
C5128 C 0.73352 0.2451 0.85701 0.0
C5129 C 0.72993 0.25316 0.87084 0.0
H5130 H 0.74843 0.22807 0.8461 0.0
C5131 C 0.73721 0.24857 0.88471 0.0
H5132 H 0.72808 0.24842 0.84613 0.0
C5133 C 0.74864 0.23714 0.88469 0.0
C5134 C 0.75322 0.22988 0.8708 0.0
H5135 H 0.7346 0.25428 0.89562 0.0
H5136 H 0.75438 0.23451 0.89559 0.0
C5137 C 0.74514 0.23349 0.85699 0.0
C5138 C 0.02402 0.01255 0.3569 0.0
C5139 C 0.02767 0.00453 0.37073 0.0
H5140 H 0.00903 0.02955 0.34602 0.0
C5141 C 0.02046 0.00915 0.38463 0.0
H5142 H 0.0294 0.00921 0.346 0.0
C5143 C 0.00902 0.02058 0.38464 0.0
C5144 C 0.00438 0.02779 0.37075 0.0
H5145 H 0.02313 1.00347 0.39554 0.0
H5146 H 1.00334 0.02323 0.39555 0.0
C5147 C 0.01239 0.02416 0.35691 0.0
C5148 C 0.65059 0.76256 0.77394 0.0
C5149 C 0.63676 0.75454 0.77759 0.0
H5150 H 0.66147 0.77957 0.75897 0.0
C5151 C 0.62286 0.75918 0.77039 0.0
H5152 H 0.66149 0.75921 0.77931 0.0
C5153 C 0.62285 0.77062 0.75896 0.0
C5154 C 0.63674 0.77783 0.75432 0.0
H5155 H 0.61195 0.75349 0.77306 0.0
H5156 H 0.61193 0.77328 0.75329 0.0
C5157 C 0.65058 0.77418 0.76232 0.0
C5158 C 0.74507 0.40052 0.02413 0.0
C5159 C 0.75306 0.38667 0.02778 0.0
H5160 H 0.72809 0.41144 0.00915 0.0
C5161 C 0.74838 0.37278 0.02059 0.0
H5162 H 0.74845 0.41141 0.0295 0.0
C5163 C 0.73694 0.37279 0.00917 0.0
C5164 C 0.72977 0.3867 0.00452 0.0
H5165 H 0.75404 0.36186 0.02327 0.0
H5166 H 0.73425 0.36188 1.0035 0.0
C5167 C 0.73345 0.40053 0.01252 0.0
C5168 C 0.10703 0.48352 0.26254 0.0
C5169 C 0.12085 0.4799 0.25449 0.0
H5170 H 0.09616 0.49847 0.27958 0.0
C5171 C 0.13475 0.48713 0.25908 0.0
H5172 H 0.09614 0.47812 0.25923 0.0
C5173 C 0.13476 0.49856 0.27052 0.0
C5174 C 0.12088 0.50318 0.27777 0.0
H5175 H 0.14565 0.48448 0.25337 0.0
H5176 H 0.14567 0.50426 0.27315 0.0
C5177 C 0.10705 0.49514 0.27416 0.0
C5178 C 0.52406 0.85703 0.01237 0.0
C5179 C 0.52767 0.87086 0.00433 0.0
H5180 H 0.50912 0.84613 0.02939 0.0
C5181 C 0.52043 0.88475 0.00894 0.0
H5182 H 0.52948 0.84615 0.00904 0.0
C5183 C 0.509 0.88474 0.02037 0.0
C5184 C 0.50439 0.87084 0.02761 0.0
H5185 H 0.52307 0.89566 1.00324 0.0
H5186 H 0.50329 0.89564 0.02302 0.0
C5187 C 0.51244 0.85703 0.02398 0.0
C5188 C 0.10686 0.27411 0.49509 0.0
C5189 C 0.1207 0.2778 0.50306 0.0
H5190 H 0.09595 0.25909 0.47814 0.0
C5191 C 0.13461 0.27064 0.49837 0.0
H5192 H 0.09595 0.27945 0.49848 0.0
C5193 C 0.13461 0.2592 0.48695 0.0
C5194 C 0.1207 0.25451 0.47979 0.0
H5195 H 0.14553 0.27335 0.50402 0.0
H5196 H 0.14553 0.25356 0.48425 0.0
C5197 C 0.10686 0.26248 0.48348 0.0
C5198 C 0.74497 0.35702 0.73354 0.0
C5199 C 0.75305 0.37083 0.72992 0.0
H5200 H 0.72793 0.34617 0.74849 0.0
C5201 C 0.74847 0.38473 0.73716 0.0
H5202 H 0.74827 0.34612 0.72813 0.0
C5203 C 0.73704 0.38475 0.7486 0.0
C5204 C 0.72977 0.37088 0.75321 0.0
H5205 H 0.7542 0.39562 0.73452 0.0
H5206 H 0.73443 0.39567 0.7543 0.0
C5207 C 0.73336 0.35705 0.74516 0.0
C5208 C 0.01248 0.3569 0.02414 0.0
C5209 C 0.00448 0.37074 0.02781 0.0
H5210 H 0.02946 0.346 0.00915 0.0
C5211 C 0.00914 0.38464 0.02062 0.0
H5212 H 0.00911 0.346 0.0295 0.0
C5213 C 0.02057 0.38464 0.00919 0.0
C5214 C 0.02776 0.37074 0.00453 0.0
H5215 H 1.00347 0.39555 0.02331 0.0
H5216 H 0.02325 0.39556 1.00353 0.0
C5217 C 0.0241 0.3569 0.01252 0.0
C5218 C 0.1507 0.27413 0.76242 0.0
C5219 C 0.13684 0.2778 0.75448 0.0
H5220 H 0.16166 0.25914 0.77936 0.0
C5221 C 0.12295 0.27064 0.7592 0.0
H5222 H 0.1616 0.27948 0.759 0.0
C5223 C 0.12298 0.25921 0.77064 0.0
C5224 C 0.13691 0.25454 0.77777 0.0
H5225 H 0.11201 0.27333 0.75358 0.0
H5226 H 0.11207 0.25356 0.77337 0.0
C5227 C 0.15074 0.26252 0.77404 0.0
C5228 C 0.24505 0.40059 0.52415 0.0
C5229 C 0.25304 0.38675 0.5278 0.0
H5230 H 0.22806 0.41152 0.50918 0.0
C5231 C 0.24837 0.37286 0.52061 0.0
H5232 H 0.24843 0.41149 0.52953 0.0
C5233 C 0.23693 0.37287 0.50919 0.0
C5234 C 0.22975 0.38678 0.50454 0.0
H5235 H 0.25403 0.36194 0.52328 0.0
H5236 H 0.23424 0.36196 0.50351 0.0
C5237 C 0.23342 0.40061 0.51254 0.0
C5238 C 0.2484 0.38474 0.23706 0.0
C5239 C 0.25303 0.37084 0.22985 0.0
H5240 H 0.23433 0.39566 0.25418 0.0
C5241 C 0.24501 0.35701 0.23351 0.0
H5242 H 0.25409 0.39565 0.23438 0.0
C5243 C 0.2334 0.35702 0.24514 0.0
C5244 C 0.22977 0.37086 0.25315 0.0
H5245 H 0.24835 0.34611 0.22813 0.0
H5246 H 0.22802 0.34613 0.2485 0.0
C5247 C 0.23698 0.38475 0.2485 0.0
C5248 C 0.51247 0.52407 0.35693 0.0
C5249 C 0.5045 0.52774 0.37078 0.0
H5250 H 0.52944 0.50908 0.34601 0.0
C5251 C 0.50919 0.52058 0.38468 0.0
H5252 H 0.50908 0.52942 0.34603 0.0
C5253 C 0.52063 0.50915 0.38466 0.0
C5254 C 0.52778 0.50447 0.37076 0.0
H5255 H 0.50354 0.52327 0.3956 0.0
H5256 H 0.52333 0.50349 0.39558 0.0
C5257 C 0.52409 0.51246 0.35692 0.0
C5258 C 0.99506 0.77402 0.10703 0.0
C5259 C 1.00311 0.77763 0.12085 0.0
H5260 H 0.97804 0.75906 0.09614 0.0
C5261 C 0.99852 0.77038 0.13474 0.0
H5262 H 0.99838 0.77943 0.09614 0.0
C5263 C 0.9871 0.75895 0.13474 0.0
C5264 C 0.97985 0.75434 0.12086 0.0
H5265 H 0.00423 0.77302 0.14564 0.0
H5266 H 0.98447 0.75324 0.14565 0.0
C5267 C 0.98345 0.76239 0.10703 0.0
C5268 C 0.52403 0.24505 0.40056 0.0
C5269 C 0.52765 0.25309 0.38674 0.0
H5270 H 0.50908 0.22803 0.41145 0.0
C5271 C 0.52042 0.24847 0.37284 0.0
H5272 H 0.52943 0.24839 0.41146 0.0
C5273 C 0.50899 0.23704 0.37284 0.0
C5274 C 0.50438 0.22981 0.38673 0.0
H5275 H 0.52307 0.25417 0.36194 0.0
H5276 H 0.5033 0.23439 0.36193 0.0
C5277 C 0.51241 0.23343 0.40056 0.0
C5278 C 0.99505 0.98346 0.65049 0.0
C5279 C 1.00307 0.97982 0.63666 0.0
H5280 H 0.97803 0.99843 0.66137 0.0
C5281 C 0.99844 0.98703 0.62276 0.0
H5282 H 0.99839 0.97808 0.66139 0.0
C5283 C 0.98701 0.99846 0.62276 0.0
C5284 C 0.97979 1.0031 0.63665 0.0
H5285 H 0.00413 0.98437 0.61186 0.0
H5286 H 0.98435 0.00414 0.61184 0.0
C5287 C 0.98342 0.99508 0.65048 0.0
C5288 C 0.38461 0.24841 0.23705 0.0
C5289 C 0.37071 0.25305 0.22985 0.0
H5290 H 0.39553 0.2343 0.25415 0.0
C5291 C 0.35688 0.24504 0.23351 0.0
H5292 H 0.39553 0.25408 0.23438 0.0
C5293 C 0.35689 0.23342 0.24512 0.0
C5294 C 0.37072 0.22977 0.25313 0.0
H5295 H 0.34598 0.2484 0.22813 0.0
H5296 H 0.34599 0.22804 0.24848 0.0
C5297 C 0.38462 0.23697 0.24848 0.0
C5298 C 0.26239 0.60704 0.98342 0.0
C5299 C 0.25432 0.62085 0.97984 0.0
H5300 H 0.27944 0.59614 0.99833 0.0
C5301 C 0.25891 0.63473 0.98711 0.0
H5302 H 0.25907 0.59615 0.97799 0.0
C5303 C 0.27035 0.63473 0.99853 0.0
C5304 C 0.27761 0.62084 1.00311 0.0
H5305 H 0.25319 0.64564 0.98449 0.0
H5306 H 0.27297 0.64563 0.00426 0.0
C5307 C 0.27401 0.60703 0.99503 0.0
C5308 C 0.48719 0.12278 0.99865 0.0
C5309 C 0.47992 0.13667 1.00323 0.0
H5310 H 0.50434 0.11188 0.9846 0.0
C5311 C 0.48351 0.15048 0.99516 0.0
H5312 H 0.48456 0.11188 0.00437 0.0
C5313 C 0.49513 0.15048 0.98355 0.0
C5314 C 0.5032 0.13667 0.97995 0.0
H5315 H 0.47808 0.16137 0.99847 0.0
H5316 H 0.49843 0.16137 0.97812 0.0
C5317 C 0.49862 0.12278 0.98722 0.0
C5318 C 0.27061 0.62286 0.25913 0.0
C5319 C 0.27782 0.63676 0.25448 0.0
H5320 H 0.2535 0.61196 0.27323 0.0
C5321 C 0.27417 0.65059 0.26248 0.0
H5322 H 0.27328 0.61195 0.25345 0.0
C5323 C 0.26255 0.6506 0.2741 0.0
C5324 C 0.25454 0.63677 0.27775 0.0
H5325 H 0.27955 0.66149 0.25912 0.0
H5326 H 0.2592 0.66151 0.27947 0.0
C5327 C 0.25918 0.62287 0.27056 0.0
C5328 C 0.4006 0.02404 0.74507 0.0
C5329 C 0.38678 0.02768 0.75311 0.0
H5330 H 0.41147 0.00908 0.72805 0.0
C5331 C 0.37288 0.02047 0.74849 0.0
H5332 H 0.4115 0.02942 0.74841 0.0
C5333 C 0.37286 0.00904 0.73705 0.0
C5334 C 0.38675 0.00441 0.72981 0.0
H5335 H 0.36197 0.02313 0.75418 0.0
H5336 H 0.36195 1.00336 0.73439 0.0
C5337 C 0.40058 0.01243 0.73344 0.0
C5338 C 0.48685 0.13463 0.2592 0.0
C5339 C 0.47968 0.12073 0.25453 0.0
H5340 H 0.50395 0.14555 0.27332 0.0
C5341 C 0.48335 0.10689 0.26251 0.0
H5342 H 0.48416 0.14555 0.25355 0.0
C5343 C 0.49497 0.10689 0.27413 0.0
C5344 C 0.50296 0.12073 0.2778 0.0
H5345 H 0.478 0.09599 0.25913 0.0
H5346 H 0.49836 0.09598 0.27948 0.0
C5347 C 0.49829 0.13463 0.27063 0.0
C5348 C 0.40053 0.23343 0.51247 0.0
C5349 C 0.38669 0.22977 0.50448 0.0
H5350 H 0.41143 0.24843 0.52945 0.0
C5351 C 0.37279 0.23697 0.50912 0.0
H5352 H 0.41143 0.22806 0.50911 0.0
C5353 C 0.3728 0.24841 0.52055 0.0
C5354 C 0.3867 0.25307 0.52773 0.0
H5355 H 0.36188 0.23429 0.50346 0.0
H5356 H 0.36188 0.25409 0.52322 0.0
C5357 C 0.40053 0.24506 0.52408 0.0
C5358 C 0.35699 0.02409 0.01248 0.0
C5359 C 0.37084 0.02775 0.00449 0.0
H5360 H 0.34607 0.00911 0.02945 0.0
C5361 C 0.38473 0.02056 0.00916 0.0
H5362 H 0.34609 0.02946 0.0091 0.0
C5363 C 0.38472 0.00912 0.02059 0.0
C5364 C 0.37081 0.00447 0.02777 0.0
H5365 H 0.39565 0.02323 1.0035 0.0
H5366 H 0.39563 1.00345 0.02328 0.0
C5367 C 0.35698 0.01247 0.0241 0.0
C5368 C 0.76246 0.27397 0.15045 0.0
C5369 C 0.75439 0.27758 0.13664 0.0
H5370 H 0.77952 0.25904 0.16131 0.0
C5371 C 0.75898 0.27035 0.12274 0.0
H5372 H 0.75915 0.27938 0.16135 0.0
C5373 C 0.77042 0.25892 0.12272 0.0
C5374 C 0.77768 0.25432 0.1366 0.0
H5375 H 0.75325 0.27299 0.11185 0.0
H5376 H 0.77304 0.25322 0.11181 0.0
C5377 C 0.77409 0.26236 0.15043 0.0
C5378 C 0.24848 0.5206 0.37288 0.0
C5379 C 0.25313 0.5278 0.38677 0.0
H5380 H 0.23437 0.50349 0.36197 0.0
C5381 C 0.24513 0.52414 0.40061 0.0
H5382 H 0.25414 0.52327 0.36196 0.0
C5383 C 0.23352 0.51252 0.40062 0.0
C5384 C 0.22986 0.50451 0.38678 0.0
H5385 H 0.2485 0.52952 0.41151 0.0
H5386 H 0.22815 0.50916 0.41152 0.0
C5387 C 0.23704 0.50917 0.37288 0.0
C5388 C 0.23339 0.74507 0.85699 0.0
C5389 C 0.22975 0.75309 0.87082 0.0
H5390 H 0.24835 0.72807 0.84608 0.0
C5391 C 0.23697 0.74846 0.88471 0.0
H5392 H 0.228 0.74842 0.84609 0.0
C5393 C 0.2484 0.73702 0.8847 0.0
C5394 C 0.25303 0.72981 0.87081 0.0
H5395 H 0.23431 0.75414 0.89562 0.0
H5396 H 0.25408 0.73436 0.89561 0.0
C5397 C 0.245 0.73345 0.85698 0.0
C5398 C 0.7741 0.99503 0.10689 0.0
C5399 C 0.77775 1.00306 0.12072 0.0
H5400 H 0.75912 0.97803 0.09602 0.0
C5401 C 0.77054 0.99844 0.13462 0.0
H5402 H 0.77948 0.99837 0.09599 0.0
C5403 C 0.75911 0.98701 0.13463 0.0
C5404 C 0.75446 0.97979 0.12074 0.0
H5405 H 0.77321 0.00413 0.14552 0.0
H5406 H 0.75343 0.98436 0.14555 0.0
C5407 C 0.76248 0.98342 0.10691 0.0
C5408 C 0.65055 0.48343 0.49508 0.0
C5409 C 0.63671 0.47981 0.50309 0.0
H5410 H 0.66147 0.49837 0.47807 0.0
C5411 C 0.62283 0.48702 0.49845 0.0
H5412 H 0.66144 0.47804 0.49844 0.0
C5413 C 0.62284 0.49845 0.487 0.0
C5414 C 0.63674 0.50306 0.47979 0.0
H5415 H 0.61191 0.48438 0.50413 0.0
H5416 H 0.61193 0.50414 0.48433 0.0
C5417 C 0.65056 0.49504 0.48345 0.0
C5418 C 0.63464 0.98693 0.25905 0.0
C5419 C 0.62076 0.97972 0.25439 0.0
H5420 H 0.64553 0.00404 0.27317 0.0
C5421 C 0.60691 0.98335 0.26239 0.0
H5422 H 0.64556 0.98427 0.25339 0.0
C5423 C 0.60689 0.99497 0.27401 0.0
C5424 C 0.62071 1.00299 0.27768 0.0
H5425 H 0.59602 0.97797 0.25902 0.0
H5426 H 0.59598 0.99831 0.27938 0.0
C5427 C 0.63462 0.99836 0.27049 0.0
C5428 C 0.63467 0.77052 0.4983 0.0
C5429 C 0.62075 0.77769 0.50295 0.0
H5430 H 0.64561 0.75344 0.48419 0.0
C5431 C 0.60693 0.774 0.49495 0.0
H5432 H 0.64558 0.77322 0.50397 0.0
C5433 C 0.60695 0.76238 0.48333 0.0
C5434 C 0.6208 0.75441 0.47968 0.0
H5435 H 0.59601 0.77935 0.49831 0.0
H5436 H 0.59605 0.759 0.47796 0.0
C5437 C 0.63469 0.75909 0.48687 0.0
C5438 C 0.52042 0.37275 0.24851 0.0
C5439 C 0.52767 0.38664 0.25311 0.0
H5440 H 0.50327 0.36184 0.23446 0.0
C5441 C 0.52405 0.40046 0.24506 0.0
H5442 H 0.52307 0.36185 0.25422 0.0
C5443 C 0.51243 0.40045 0.23345 0.0
C5444 C 0.50438 0.38663 0.22985 0.0
H5445 H 0.52947 0.41135 0.24838 0.0
H5446 H 0.5091 0.41135 0.22804 0.0
C5447 C 0.50898 0.37275 0.23709 0.0
C5448 C 0.51247 0.90064 0.73333 0.0
C5449 C 0.50449 0.88679 0.72967 0.0
H5450 H 0.52943 0.91157 0.74831 0.0
C5451 C 0.50918 0.8729 0.73685 0.0
H5452 H 0.50907 0.91153 0.72796 0.0
C5453 C 0.52061 0.87292 0.74828 0.0
C5454 C 0.52777 0.88683 0.75294 0.0
H5455 H 0.50353 0.86197 0.73417 0.0
H5456 H 0.52331 0.86201 0.75395 0.0
C5457 C 0.52409 0.90066 0.74494 0.0
C5458 C 0.65061 0.99506 0.98345 0.0
C5459 C 0.63678 1.00307 0.97979 0.0
H5460 H 0.66149 0.97806 0.99843 0.0
C5461 C 0.62288 0.99843 0.98697 0.0
H5462 H 0.66151 0.99841 0.97808 0.0
C5463 C 0.62287 0.987 0.99841 0.0
C5464 C 0.63676 0.9798 1.00306 0.0
H5465 H 0.61197 0.00411 0.9843 0.0
H5466 H 0.61195 0.98433 0.00408 0.0
C5467 C 0.6506 0.98344 0.99506 0.0
C5468 C 0.7591 0.48687 0.63467 0.0
C5469 C 0.75443 0.47967 0.62078 0.0
H5470 H 0.77323 0.50397 0.64557 0.0
C5471 C 0.76242 0.48333 0.60693 0.0
H5472 H 0.75344 0.48419 0.64559 0.0
C5473 C 0.77404 0.49494 0.60692 0.0
C5474 C 0.77771 0.50295 0.62075 0.0
H5475 H 0.75904 0.47796 0.59604 0.0
H5476 H 0.7794 0.4983 0.59601 0.0
C5477 C 0.77054 0.49829 0.63465 0.0
C5478 C 0.23713 0.00904 0.87283 0.0
C5479 C 0.2299 0.00443 0.88672 0.0
H5480 H 0.25427 0.02311 0.86192 0.0
C5481 C 0.23352 0.01246 0.90054 0.0
H5482 H 0.23448 1.00334 0.86192 0.0
C5483 C 0.24514 0.02408 0.90054 0.0
C5484 C 0.25318 0.0277 0.88672 0.0
H5485 H 0.22812 0.00913 0.91144 0.0
H5486 H 0.24848 0.02948 0.91144 0.0
C5487 C 0.24857 0.02047 0.87283 0.0
C5488 C 0.35698 0.51245 0.52413 0.0
C5489 C 0.37081 0.50444 0.52779 0.0
H5490 H 0.3461 0.52944 0.50913 0.0
C5491 C 0.38471 0.50906 0.52059 0.0
H5492 H 0.34608 0.50911 0.52951 0.0
C5493 C 0.38472 0.52048 0.50914 0.0
C5494 C 0.37083 0.52769 0.50449 0.0
H5495 H 0.39562 0.50338 0.52327 0.0
H5496 H 0.39564 0.52314 0.50346 0.0
C5497 C 0.357 0.52406 0.5125 0.0
C5498 C 0.49846 0.63475 0.77062 0.0
C5499 C 0.50313 0.62086 0.77782 0.0
H5500 H 0.48433 0.64563 0.75351 0.0
C5501 C 0.49514 0.60702 0.77418 0.0
H5502 H 0.50412 0.64567 0.77328 0.0
C5503 C 0.48351 0.60699 0.76257 0.0
C5504 C 0.47984 0.62082 0.75455 0.0
H5505 H 0.49851 0.59612 0.77956 0.0
H5506 H 0.47815 0.59608 0.75921 0.0
C5507 C 0.48702 0.63473 0.75919 0.0
C5508 C 0.37283 0.52044 0.24848 0.0
C5509 C 0.38673 0.52766 0.2531 0.0
H5510 H 0.3619 0.50333 0.23439 0.0
C5511 C 0.40055 0.52402 0.24507 0.0
H5512 H 0.36192 0.5231 0.25417 0.0
C5513 C 0.40054 0.51241 0.23344 0.0
C5514 C 0.38671 0.50439 0.22981 0.0
H5515 H 0.41145 0.52941 0.24841 0.0
H5516 H 0.41143 0.50906 0.22805 0.0
C5517 C 0.37282 0.50902 0.23704 0.0
C5518 C 0.40051 0.73342 0.01241 0.0
C5519 C 0.38667 0.72978 0.0044 0.0
H5520 H 0.41141 0.7484 0.0294 0.0
C5521 C 0.37278 0.73699 0.00904 0.0
H5522 H 0.4114 0.72804 0.00906 0.0
C5523 C 0.37278 0.74843 0.02046 0.0
C5524 C 0.38668 0.75307 0.02766 0.0
H5525 H 0.36187 0.73432 1.00336 0.0
H5526 H 0.36187 0.75411 0.02312 0.0
C5527 C 0.40051 0.74505 0.02402 0.0
C5528 C 0.7589 0.77022 0.62263 0.0
C5529 C 0.75436 0.77752 0.6365 0.0
H5530 H 0.77294 0.75304 0.61173 0.0
C5531 C 0.76246 0.77396 0.65031 0.0
H5532 H 0.75315 0.77281 0.61173 0.0
C5533 C 0.77408 0.76235 0.6503 0.0
C5534 C 0.77765 0.75425 0.6365 0.0
H5535 H 0.75918 0.77942 0.66119 0.0
H5536 H 0.77954 0.75907 0.66119 0.0
C5537 C 0.77034 0.75879 0.62262 0.0
C5538 C 0.24845 0.23714 0.38479 0.0
C5539 C 0.25306 0.22991 0.3709 0.0
H5540 H 0.23438 0.25428 0.3957 0.0
C5541 C 0.24501 0.23353 0.35708 0.0
H5542 H 0.25416 0.2345 0.39569 0.0
C5543 C 0.23339 0.24515 0.35708 0.0
C5544 C 0.22978 0.25319 0.37091 0.0
H5545 H 0.24833 0.22812 0.34618 0.0
H5546 H 0.22799 0.24848 0.34619 0.0
C5547 C 0.23702 0.24857 0.38479 0.0
C5548 C 0.60701 0.48354 0.76251 0.0
C5549 C 0.62083 0.47992 0.75446 0.0
H5550 H 0.59613 0.49848 0.77954 0.0
C5551 C 0.63472 0.48715 0.75907 0.0
H5552 H 0.59611 0.47814 0.75918 0.0
C5553 C 0.63473 0.49858 0.7705 0.0
C5554 C 0.62084 0.50319 0.77775 0.0
H5555 H 0.64563 0.48451 0.75336 0.0
H5556 H 0.64564 0.50428 0.77315 0.0
C5557 C 0.60702 0.49515 0.77413 0.0
C5558 C 0.60702 0.26241 0.98344 0.0
C5559 C 0.62086 0.25441 0.97981 0.0
H5560 H 0.59609 0.27941 0.9984 0.0
C5561 C 0.63474 0.25906 0.98703 0.0
H5562 H 0.59613 0.25905 0.97805 0.0
C5563 C 0.63472 0.27049 0.99846 0.0
C5564 C 0.62081 0.27769 1.00309 0.0
H5565 H 0.64566 0.25339 0.98438 0.0
H5566 H 0.64563 0.27317 0.00416 0.0
C5567 C 0.60699 0.27403 0.99506 0.0
C5568 C 0.98755 0.09197 0.41256 0.0
C5569 C 0.99739 0.08214 0.40399 0.0
H5570 H 0.98603 0.10874 0.43104 0.0
C5571 C 0.01359 0.08412 0.40512 0.0
H5572 H 0.97504 0.09041 0.41213 0.0
C5573 C 0.01986 0.09494 0.41558 0.0
C5574 C 0.01002 0.10354 0.42539 0.0
H5575 H 0.02138 0.07645 0.39882 0.0
H5576 H 0.03237 0.09536 0.41715 0.0
C5577 C 0.99383 0.10243 0.42339 0.0
C5578 C 0.9051 0.24388 0.67337 0.0
C5579 C 0.90398 0.26007 0.67537 0.0
H5580 H 0.91712 0.2251 0.6621 0.0
C5581 C 0.91256 0.26992 0.66555 0.0
H5582 H 0.89879 0.23608 0.68102 0.0
C5583 C 0.92339 0.26365 0.65509 0.0
C5584 C 0.92538 0.24746 0.65395 0.0
H5585 H 0.91213 0.28243 0.66713 0.0
H5586 H 0.93105 0.27145 0.64879 0.0
C5587 C 0.91555 0.23761 0.66254 0.0
C5588 C 0.76997 0.16559 0.91248 0.0
C5589 C 0.76013 0.17546 0.90394 0.0
H5590 H 0.77148 0.14877 0.93091 0.0
C5591 C 0.74393 0.17352 0.9051 0.0
H5592 H 0.78248 0.16712 0.91202 0.0
C5593 C 0.73766 0.16268 0.91555 0.0
C5594 C 0.7475 0.15404 0.92532 0.0
H5595 H 0.73615 0.18121 0.89884 0.0
H5596 H 0.72515 0.16229 0.91715 0.0
C5597 C 0.76369 0.15512 0.92329 0.0
C5598 C 0.83411 0.9939 0.15509 0.0
C5599 C 0.83211 0.01009 0.15396 0.0
H5600 H 0.84536 0.97513 0.16712 0.0
C5601 C 0.84191 0.01994 0.16256 0.0
H5602 H 0.82646 0.98611 0.14878 0.0
C5603 C 0.85236 0.01368 0.17339 0.0
C5604 C 0.8535 0.99749 0.17538 0.0
H5605 H 0.84034 0.03246 0.16213 0.0
H5606 H 0.85866 0.02148 0.18106 0.0
C5607 C 0.84493 0.98764 0.16556 0.0
C5608 C 0.02008 0.16265 0.84182 0.0
C5609 C 0.01024 0.15411 0.83195 0.0
H5610 H 0.02159 0.18109 0.85863 0.0
C5611 C 0.99405 0.15526 0.8339 0.0
H5612 H 0.03259 0.1622 0.84028 0.0
C5613 C 0.98777 0.1657 0.84474 0.0
C5614 C 0.99761 0.17548 0.85337 0.0
H5615 H 0.98626 0.14898 0.82621 0.0
H5616 H 0.97525 0.16728 0.84514 0.0
C5617 C 0.0138 0.17346 0.85228 0.0
C5618 C 0.83409 0.26354 0.10226 0.0
C5619 C 0.8321 0.24735 0.10337 0.0
H5620 H 0.84536 0.28233 0.09025 0.0
C5621 C 0.84191 0.23751 0.09477 0.0
H5622 H 0.82644 0.27134 0.10857 0.0
C5623 C 0.85236 0.24378 0.08395 0.0
C5624 C 0.8535 0.25998 0.08197 0.0
H5625 H 0.84033 0.225 0.09519 0.0
H5626 H 0.85866 0.23599 0.07628 0.0
C5627 C 0.84492 0.26982 0.0918 0.0
C5628 C 0.74382 0.08406 0.35233 0.0
C5629 C 0.76001 0.08204 0.35342 0.0
H5630 H 0.72502 0.09532 0.34033 0.0
C5631 C 0.76985 0.09182 0.34477 0.0
H5632 H 0.73603 0.07643 0.35868 0.0
C5633 C 0.76356 0.10226 0.33394 0.0
C5634 C 0.74737 0.10341 0.332 0.0
H5635 H 0.78236 0.09023 0.34518 0.0
H5636 H 0.77135 0.10854 0.32625 0.0
C5637 C 0.73754 0.09487 0.34187 0.0
C5638 C 0.90509 0.01366 0.58405 0.0
C5639 C 0.90396 0.99747 0.58207 0.0
H5640 H 0.91713 0.03245 0.59529 0.0
C5641 C 0.91254 0.98763 0.5919 0.0
H5642 H 0.89879 0.02146 0.57639 0.0
C5643 C 0.92338 0.9939 0.60234 0.0
C5644 C 0.92538 0.01009 0.60346 0.0
H5645 H 0.9121 0.97512 0.59033 0.0
H5646 H 0.93103 0.98611 0.60865 0.0
C5647 C 0.91555 0.01994 0.59487 0.0
C5648 C 0.40514 0.01361 0.08413 0.0
C5649 C 0.40403 0.99742 0.08213 0.0
H5650 H 0.41716 0.03239 0.0954 0.0
C5651 C 0.41262 0.98757 0.09194 0.0
H5652 H 0.39883 0.0214 0.07648 0.0
C5653 C 0.42345 0.99384 0.1024 0.0
C5654 C 0.42543 0.01003 0.10354 0.0
H5655 H 0.4122 0.97506 0.09036 0.0
H5656 H 0.43111 0.98604 0.1087 0.0
C5657 C 0.4156 0.01988 0.09496 0.0
C5658 C 0.99396 0.65521 0.33411 0.0
C5659 C 0.01015 0.65412 0.33209 0.0
H5660 H 0.97518 0.66722 0.34538 0.0
C5661 C 0.02 0.66274 0.34188 0.0
H5662 H 0.98617 0.64887 0.32648 0.0
C5663 C 0.01373 0.67358 0.35232 0.0
C5664 C 0.99753 0.67554 0.35348 0.0
H5665 H 0.03251 0.66233 0.34028 0.0
H5666 H 0.02152 0.68126 0.3586 0.0
C5667 C 0.98769 0.66568 0.34493 0.0
C5668 C 0.33398 0.26361 0.60229 0.0
C5669 C 0.33203 0.24741 0.60342 0.0
H5670 H 0.34521 0.28241 0.59027 0.0
C5671 C 0.34189 0.23759 0.59485 0.0
H5672 H 0.32629 0.27138 0.60858 0.0
C5673 C 0.35234 0.24388 0.58404 0.0
C5674 C 0.35343 0.26008 0.58204 0.0
H5675 H 0.34035 0.22507 0.59529 0.0
H5676 H 0.35868 0.2361 0.57639 0.0
C5677 C 0.34481 0.2699 0.59185 0.0
C5678 C 0.76993 0.59198 0.84486 0.0
C5679 C 0.76007 0.58221 0.85349 0.0
H5680 H 0.77149 0.60869 0.82634 0.0
C5681 C 0.74388 0.58425 0.85238 0.0
H5682 H 0.78244 0.59037 0.84528 0.0
C5683 C 0.73763 0.59508 0.84191 0.0
C5684 C 0.74749 0.6036 0.83205 0.0
H5685 H 0.73607 0.57664 0.85872 0.0
H5686 H 0.72512 0.59554 0.84035 0.0
C5687 C 0.76368 0.60243 0.83402 0.0
C5688 C 0.41254 0.26988 0.16568 0.0
C5689 C 0.40395 0.26004 0.1755 0.0
H5690 H 0.43104 0.27141 0.14893 0.0
C5691 C 0.40508 0.24385 0.17351 0.0
H5692 H 0.41211 0.2824 0.16725 0.0
C5693 C 0.41554 0.23758 0.16269 0.0
C5694 C 0.42537 0.24742 0.15411 0.0
H5695 H 0.39877 0.23606 0.18117 0.0
H5696 H 0.41711 0.22506 0.16227 0.0
C5697 C 0.42338 0.26361 0.15523 0.0
C5698 C 0.76368 0.65512 0.42335 0.0
C5699 C 0.74749 0.65402 0.42537 0.0
H5700 H 0.78247 0.66713 0.41209 0.0
C5701 C 0.73764 0.66264 0.41558 0.0
H5702 H 0.77147 0.64878 0.43098 0.0
C5703 C 0.74392 0.67347 0.40513 0.0
C5704 C 0.76011 0.67544 0.40399 0.0
H5705 H 0.72513 0.66223 0.41717 0.0
H5706 H 0.73613 0.68116 0.39885 0.0
C5707 C 0.76995 0.66558 0.41254 0.0
C5708 C 0.34491 0.98759 0.66562 0.0
C5709 C 0.35348 0.99744 0.67545 0.0
H5710 H 0.32645 0.98604 0.64884 0.0
C5711 C 0.35233 0.01363 0.67346 0.0
H5712 H 0.34537 0.97508 0.66718 0.0
C5713 C 0.34187 0.01989 0.66263 0.0
C5714 C 0.33207 0.01004 0.65403 0.0
H5715 H 0.35862 0.02143 0.68113 0.0
H5716 H 0.34028 0.0324 0.66221 0.0
C5717 C 0.33409 0.99385 0.65515 0.0
C5718 C 0.9875 0.59193 0.91258 0.0
C5719 C 0.99735 0.58209 0.90402 0.0
H5720 H 0.98597 0.60872 0.93104 0.0
C5721 C 0.01355 0.58408 0.90516 0.0
H5722 H 0.97499 0.59036 0.91214 0.0
C5723 C 0.01981 0.59492 0.9156 0.0
C5724 C 0.00996 0.60352 0.9254 0.0
H5725 H 0.02134 0.5764 0.89887 0.0
H5726 H 0.03232 0.59534 0.91718 0.0
C5727 C 0.99377 0.6024 0.92339 0.0
C5728 C 0.08405 0.40517 0.0137 0.0
C5729 C 0.08204 0.40408 0.9975 0.0
H5730 H 0.09529 0.41718 0.0325 0.0
C5731 C 0.09182 0.41273 0.98767 0.0
H5732 H 0.07642 0.39882 0.02148 0.0
C5733 C 0.10225 0.42357 0.99396 0.0
C5734 C 0.10339 0.42552 0.01015 0.0
H5735 H 0.09024 0.41233 0.97516 0.0
H5736 H 0.10853 0.43127 0.98618 0.0
C5737 C 0.09485 0.41564 0.01998 0.0
C5738 C 0.58404 0.3523 0.24389 0.0
C5739 C 0.58207 0.35342 0.26008 0.0
H5740 H 0.59528 0.34027 0.2251 0.0
C5741 C 0.5919 0.34484 0.26992 0.0
H5742 H 0.57638 0.3586 0.2361 0.0
C5743 C 0.60235 0.33401 0.26364 0.0
C5744 C 0.60346 0.33202 0.24745 0.0
H5745 H 0.59034 0.34527 0.28243 0.0
H5746 H 0.60866 0.32636 0.27143 0.0
C5747 C 0.59487 0.34184 0.23761 0.0
C5748 C 0.66556 0.84488 0.48754 0.0
C5749 C 0.67538 0.85345 0.49739 0.0
H5750 H 0.64879 0.8264 0.486 0.0
C5751 C 0.67339 0.85232 0.51358 0.0
H5752 H 0.66713 0.84532 0.47503 0.0
C5753 C 0.66256 0.84186 0.51985 0.0
C5754 C 0.65397 0.83205 0.50999 0.0
H5755 H 0.68105 0.85862 0.52138 0.0
H5756 H 0.66213 0.84028 0.53236 0.0
C5757 C 0.6551 0.83405 0.4938 0.0
C5758 C 0.16561 0.91264 0.7699 0.0
C5759 C 0.17543 0.90405 0.76007 0.0
H5760 H 0.14885 0.93113 0.7714 0.0
C5761 C 0.17345 0.90516 0.74387 0.0
H5762 H 0.16717 0.91222 0.78241 0.0
C5763 C 0.16263 0.91562 0.73759 0.0
C5764 C 0.15404 0.92545 0.74742 0.0
H5765 H 0.18111 0.89885 0.73609 0.0
H5766 H 0.16221 0.91718 0.72507 0.0
C5767 C 0.15516 0.92347 0.76361 0.0
C5768 C 0.584 0.40521 0.51362 0.0
C5769 C 0.58202 0.40409 0.49743 0.0
H5770 H 0.59525 0.41722 0.53242 0.0
C5771 C 0.59185 0.41269 0.48759 0.0
H5772 H 0.57634 0.3989 0.52141 0.0
C5773 C 0.60231 0.42351 0.49388 0.0
C5774 C 0.60342 0.42549 0.51007 0.0
H5775 H 0.59029 0.41226 0.47508 0.0
H5776 H 0.60862 0.43116 0.48609 0.0
C5777 C 0.59483 0.41566 0.5199 0.0
C5778 C 0.1734 0.85238 0.01364 0.0
C5779 C 0.17539 0.8535 0.99745 0.0
H5780 H 0.16214 0.84036 0.03242 0.0
C5781 C 0.16558 0.84491 0.9876 0.0
H5782 H 0.18105 0.8587 0.02143 0.0
C5783 C 0.15513 0.83408 0.99387 0.0
C5784 C 0.154 0.83209 0.01007 0.0
H5785 H 0.16715 0.84533 0.97509 0.0
H5786 H 0.14883 0.82641 0.98608 0.0
C5787 C 0.16257 0.84193 0.01991 0.0
C5788 C 0.65517 0.92339 0.26357 0.0
C5789 C 0.65406 0.92539 0.24738 0.0
H5790 H 0.66718 0.91213 0.28236 0.0
C5791 C 0.66268 0.9156 0.23754 0.0
H5792 H 0.64883 0.93103 0.27136 0.0
C5793 C 0.67352 0.90516 0.24381 0.0
C5794 C 0.67549 0.90402 0.26001 0.0
H5795 H 0.66227 0.91718 0.22502 0.0
H5796 H 0.6812 0.89887 0.23602 0.0
C5797 C 0.66563 0.91257 0.26984 0.0
C5798 C 0.08405 0.35234 0.74391 0.0
C5799 C 0.08211 0.3535 0.7601 0.0
H5800 H 0.09527 0.34031 0.72511 0.0
C5801 C 0.09199 0.34496 0.76993 0.0
H5802 H 0.07635 0.35862 0.73613 0.0
C5803 C 0.10245 0.33414 0.76365 0.0
C5804 C 0.10353 0.33212 0.74746 0.0
H5805 H 0.09046 0.34541 0.78245 0.0
H5806 H 0.1088 0.32652 0.77144 0.0
C5807 C 0.09488 0.3419 0.73762 0.0
C5808 C 0.01992 0.91566 0.59481 0.0
C5809 C 0.01008 0.92546 0.60343 0.0
H5810 H 0.02142 0.89893 0.5763 0.0
C5811 C 0.99389 0.92346 0.60233 0.0
H5812 H 0.03243 0.91724 0.59522 0.0
C5813 C 0.98761 0.91265 0.59187 0.0
C5814 C 0.99744 0.90408 0.58202 0.0
H5815 H 0.9861 0.93111 0.60866 0.0
H5816 H 0.97509 0.91221 0.59032 0.0
C5817 C 0.01364 0.90522 0.58398 0.0
C5818 C 0.09494 0.73769 0.34184 0.0
C5819 C 0.10353 0.74751 0.33201 0.0
H5820 H 0.07645 0.73619 0.3586 0.0
C5821 C 0.10241 0.76371 0.33398 0.0
H5822 H 0.09537 0.72517 0.34029 0.0
C5823 C 0.09196 0.77 0.3448 0.0
C5824 C 0.08213 0.76017 0.3534 0.0
H5825 H 0.10872 0.77149 0.32632 0.0
H5826 H 0.09039 0.78251 0.34521 0.0
C5827 C 0.08411 0.74397 0.35229 0.0
C5828 C 0.26368 0.83402 0.10229 0.0
C5829 C 0.24748 0.83204 0.10344 0.0
H5830 H 0.28246 0.84527 0.09026 0.0
C5831 C 0.23764 0.84188 0.09487 0.0
H5832 H 0.27147 0.82634 0.10859 0.0
C5833 C 0.24391 0.85234 0.08405 0.0
C5834 C 0.2601 0.85345 0.08204 0.0
H5835 H 0.22512 0.84032 0.09532 0.0
H5836 H 0.23611 0.85866 0.07641 0.0
C5837 C 0.26995 0.84485 0.09184 0.0
C5838 C 0.15526 0.9939 0.83405 0.0
C5839 C 0.15415 0.01009 0.83206 0.0
H5840 H 0.16727 0.97511 0.84532 0.0
C5841 C 0.16274 0.01994 0.84188 0.0
H5842 H 0.14895 0.98611 0.8264 0.0
C5843 C 0.17356 0.01366 0.85234 0.0
C5844 C 0.17553 0.99747 0.85347 0.0
H5845 H 0.16232 0.03245 0.8403 0.0
H5846 H 0.18122 0.02145 0.85865 0.0
C5847 C 0.16571 0.98763 0.84489 0.0
C5848 C 0.98757 0.84486 0.16561 0.0
C5849 C 0.99742 0.85351 0.17537 0.0
H5850 H 0.98604 0.82631 0.14893 0.0
C5851 C 0.01361 0.85243 0.17332 0.0
H5852 H 0.97506 0.84526 0.16723 0.0
C5853 C 0.01988 0.84195 0.16251 0.0
C5854 C 0.01003 0.83207 0.154 0.0
H5855 H 0.02141 0.85878 0.18093 0.0
H5856 H 0.03239 0.84041 0.16204 0.0
C5857 C 0.99383 0.83401 0.15518 0.0
C5858 C 0.16555 0.76993 0.91262 0.0
C5859 C 0.17537 0.76009 0.90403 0.0
H5860 H 0.14878 0.77145 0.9311 0.0
C5861 C 0.17337 0.74389 0.90515 0.0
H5862 H 0.16712 0.78244 0.91219 0.0
C5863 C 0.16254 0.73762 0.9156 0.0
C5864 C 0.15395 0.74746 0.92542 0.0
H5865 H 0.18103 0.7361 0.89884 0.0
H5866 H 0.16211 0.72511 0.91717 0.0
C5867 C 0.15508 0.76366 0.92344 0.0
C5868 C 0.26988 0.91252 0.66558 0.0
C5869 C 0.26004 0.90397 0.67544 0.0
H5870 H 0.2714 0.93097 0.64878 0.0
C5871 C 0.24385 0.90511 0.67348 0.0
H5872 H 0.28239 0.91207 0.66713 0.0
C5873 C 0.23757 0.91555 0.66264 0.0
C5874 C 0.24741 0.92534 0.65402 0.0
H5875 H 0.23606 0.89883 0.68117 0.0
H5876 H 0.22506 0.91714 0.66223 0.0
C5877 C 0.2636 0.92333 0.65512 0.0
C5878 C 0.1023 0.99394 0.4234 0.0
C5879 C 0.10342 0.01013 0.4254 0.0
H5880 H 0.09028 0.97516 0.41212 0.0
C5881 C 0.09484 0.01998 0.41558 0.0
H5882 H 0.10861 0.98614 0.43105 0.0
C5883 C 0.08402 0.01372 0.40511 0.0
C5884 C 0.08204 0.99753 0.40397 0.0
H5885 H 0.09528 0.03249 0.41715 0.0
H5886 H 0.07637 0.02152 0.3988 0.0
C5887 C 0.09185 0.98768 0.41256 0.0
C5888 C 0.59499 0.01992 0.91558 0.0
C5889 C 0.60356 0.01007 0.92542 0.0
H5890 H 0.57653 0.02146 0.8988 0.0
C5891 C 0.60241 0.99388 0.92344 0.0
H5892 H 0.59544 0.03243 0.91715 0.0
C5893 C 0.59195 0.98761 0.91261 0.0
C5894 C 0.58216 0.99747 0.904 0.0
H5895 H 0.6087 0.98608 0.93111 0.0
H5896 H 0.59037 0.9751 0.91218 0.0
C5897 C 0.58417 0.01366 0.90512 0.0
C5898 C 0.01365 0.35225 0.67362 0.0
C5899 C 0.99745 0.35341 0.67556 0.0
H5900 H 0.03244 0.34021 0.66239 0.0
C5901 C 0.98762 0.34488 0.66568 0.0
H5902 H 0.02143 0.35852 0.68132 0.0
C5903 C 0.99389 0.33406 0.65522 0.0
C5904 C 0.01009 0.33204 0.65414 0.0
H5905 H 0.9751 0.34534 0.66721 0.0
H5906 H 0.9861 0.32644 0.64886 0.0
C5907 C 0.01993 0.34181 0.66279 0.0
C5908 C 0.66562 0.76986 0.4125 0.0
C5909 C 0.67547 0.76003 0.40394 0.0
H5910 H 0.64882 0.77138 0.43095 0.0
C5911 C 0.67351 0.74383 0.40509 0.0
H5912 H 0.66716 0.78238 0.41205 0.0
C5913 C 0.66268 0.73755 0.41553 0.0
C5914 C 0.65406 0.74739 0.42533 0.0
H5915 H 0.6812 0.73604 0.3988 0.0
H5916 H 0.66228 0.72504 0.41712 0.0
C5917 C 0.65516 0.76359 0.42331 0.0
C5918 C 0.24384 0.40516 0.17347 0.0
C5919 C 0.26003 0.40405 0.17546 0.0
H5920 H 0.22505 0.41718 0.16221 0.0
C5921 C 0.26988 0.41265 0.16565 0.0
H5922 H 0.23605 0.39885 0.18112 0.0
C5923 C 0.2636 0.42348 0.1552 0.0
C5924 C 0.24741 0.42546 0.15407 0.0
H5925 H 0.28239 0.41223 0.16723 0.0
H5926 H 0.2714 0.43114 0.1489 0.0
C5927 C 0.23757 0.41562 0.16264 0.0
C5928 C 0.59196 0.77004 0.84476 0.0
C5929 C 0.58215 0.7602 0.85336 0.0
H5930 H 0.60872 0.77155 0.82627 0.0
C5931 C 0.58415 0.744 0.85224 0.0
H5932 H 0.59038 0.78255 0.84518 0.0
C5933 C 0.59497 0.73773 0.84179 0.0
C5934 C 0.60355 0.74757 0.83196 0.0
H5935 H 0.57649 0.73621 0.85856 0.0
H5936 H 0.59541 0.72522 0.84023 0.0
C5937 C 0.60242 0.76376 0.83394 0.0
C5938 C 0.2439 0.35234 0.58411 0.0
C5939 C 0.2601 0.35342 0.58209 0.0
H5940 H 0.22511 0.34034 0.59538 0.0
C5941 C 0.26993 0.34477 0.59186 0.0
H5942 H 0.23611 0.35869 0.57649 0.0
C5943 C 0.26365 0.33393 0.6023 0.0
C5944 C 0.24746 0.33199 0.60346 0.0
H5945 H 0.28245 0.34517 0.59027 0.0
H5946 H 0.27144 0.32623 0.60857 0.0
C5947 C 0.23762 0.34187 0.59492 0.0
C5948 C 0.6625 0.01984 0.34188 0.0
C5949 C 0.65393 0.00999 0.33205 0.0
H5950 H 0.68097 0.02138 0.35865 0.0
C5951 C 0.65509 0.99379 0.33403 0.0
H5952 H 0.66204 0.03235 0.34032 0.0
C5953 C 0.66555 0.98753 0.34485 0.0
C5954 C 0.67535 0.99739 0.35345 0.0
H5955 H 0.64879 0.98599 0.32636 0.0
H5956 H 0.66714 0.97502 0.34528 0.0
C5957 C 0.67333 0.01358 0.35234 0.0
C5958 C 0.99385 0.42332 0.10249 0.0
C5959 C 0.01004 0.42532 0.10363 0.0
H5960 H 0.97508 0.41206 0.09045 0.0
C5961 C 0.01989 0.41551 0.09504 0.0
H5962 H 0.98604 0.43097 0.1088 0.0
C5963 C 0.01363 0.40506 0.0842 0.0
C5964 C 0.99744 0.40393 0.0822 0.0
H5965 H 0.0324 0.41709 0.09548 0.0
H5966 H 0.02144 0.39877 0.07655 0.0
C5967 C 0.98759 0.4125 0.09203 0.0
C5968 C 0.91557 0.59477 0.01998 0.0
C5969 C 0.92535 0.60341 0.01014 0.0
H5970 H 0.89885 0.57625 0.0215 0.0
C5971 C 0.92333 0.60232 0.99395 0.0
H5972 H 0.91718 0.59517 0.03249 0.0
C5973 C 0.91251 0.59186 0.98767 0.0
C5974 C 0.90396 0.582 0.99751 0.0
H5975 H 0.93095 0.60866 0.98615 0.0
H5976 H 0.91205 0.59033 0.97516 0.0
C5977 C 0.90512 0.58394 0.01371 0.0
C5978 C 0.40518 0.67342 0.74396 0.0
C5979 C 0.40405 0.67542 0.76015 0.0
H5980 H 0.4172 0.66216 0.72518 0.0
C5981 C 0.41265 0.6656 0.77 0.0
H5982 H 0.39886 0.68107 0.73616 0.0
C5983 C 0.42348 0.65515 0.76373 0.0
C5984 C 0.42546 0.65402 0.74754 0.0
H5985 H 0.41222 0.66718 0.78251 0.0
H5986 H 0.43114 0.64885 0.77152 0.0
C5987 C 0.41564 0.66259 0.73769 0.0
C5988 C 0.35233 0.17337 0.51365 0.0
C5989 C 0.35346 0.17538 0.49746 0.0
H5990 H 0.34031 0.1621 0.53243 0.0
C5991 C 0.34488 0.16556 0.48761 0.0
H5992 H 0.35863 0.18103 0.52145 0.0
C5993 C 0.33406 0.15509 0.49387 0.0
C5994 C 0.33206 0.15396 0.51006 0.0
H5995 H 0.34532 0.16713 0.4751 0.0
H5996 H 0.3264 0.14879 0.48607 0.0
C5997 C 0.34188 0.16254 0.51991 0.0
C5998 C 0.83387 0.10229 0.26362 0.0
C5999 C 0.83194 0.10345 0.24742 0.0
H6000 H 0.84508 0.09026 0.28242 0.0
C6001 C 0.84183 0.09492 0.2376 0.0
H6002 H 0.82616 0.10856 0.27139 0.0
C6003 C 0.8523 0.08411 0.24389 0.0
C6004 C 0.85336 0.08209 0.26008 0.0
H6005 H 0.84032 0.09538 0.22508 0.0
H6006 H 0.85866 0.07649 0.2361 0.0
C6007 C 0.8447 0.09186 0.26991 0.0
C6008 C 0.40523 0.58398 0.51368 0.0
C6009 C 0.40414 0.58199 0.49748 0.0
H6010 H 0.41723 0.59524 0.53248 0.0
C6011 C 0.41276 0.59179 0.48765 0.0
H6012 H 0.3989 0.57634 0.52146 0.0
C6013 C 0.42358 0.60224 0.49394 0.0
C6014 C 0.42554 0.60337 0.51014 0.0
H6015 H 0.41234 0.59022 0.47514 0.0
H6016 H 0.43126 0.60854 0.48616 0.0
C6017 C 0.41569 0.5948 0.51996 0.0
C6018 C 0.85249 0.17339 0.01352 0.0
C6019 C 0.85363 0.17538 0.99733 0.0
H6020 H 0.84046 0.16214 0.0323 0.0
C6021 C 0.84505 0.16555 0.98748 0.0
H6022 H 0.85879 0.18106 0.02131 0.0
C6023 C 0.83422 0.15509 0.99375 0.0
C6024 C 0.83222 0.15397 0.00994 0.0
H6025 H 0.84549 0.16711 0.97497 0.0
H6026 H 0.82657 0.14878 0.98595 0.0
C6027 C 0.84204 0.16257 0.01979 0.0
C6028 C 0.33421 0.10235 0.76358 0.0
C6029 C 0.3322 0.10343 0.74739 0.0
H6030 H 0.34547 0.09036 0.78238 0.0
C6031 C 0.34199 0.0948 0.73755 0.0
H6032 H 0.32657 0.10869 0.77136 0.0
C6033 C 0.35244 0.08398 0.74384 0.0
C6034 C 0.35358 0.08204 0.76004 0.0
H6035 H 0.34041 0.0952 0.72504 0.0
H6036 H 0.35873 0.07629 0.73606 0.0
C6037 C 0.34502 0.0919 0.76987 0.0
C6038 C 0.90524 0.67344 0.24388 0.0
C6039 C 0.90411 0.67542 0.26008 0.0
H6040 H 0.91726 0.66218 0.2251 0.0
C6041 C 0.91268 0.66559 0.26992 0.0
H6042 H 0.89894 0.68111 0.23609 0.0
C6043 C 0.9235 0.65513 0.26365 0.0
C6044 C 0.92549 0.654 0.24746 0.0
H6045 H 0.91224 0.66716 0.28243 0.0
H6046 H 0.93115 0.64881 0.27145 0.0
C6047 C 0.91569 0.6626 0.23762 0.0
C6048 C 0.91568 0.73758 0.1627 0.0
C6049 C 0.92551 0.7474 0.1541 0.0
H6050 H 0.89892 0.73611 0.18119 0.0
C6051 C 0.92354 0.7636 0.1552 0.0
H6052 H 0.91723 0.72507 0.16229 0.0
C6053 C 0.91272 0.7699 0.16565 0.0
C6054 C 0.90413 0.76008 0.17549 0.0
H6055 H 0.9312 0.77137 0.14888 0.0
H6056 H 0.91231 0.78241 0.1672 0.0
C6057 C 0.90523 0.74388 0.17352 0.0
C6058 C 0.83404 0.49377 0.65512 0.0
C6059 C 0.83206 0.50996 0.65399 0.0
H6060 H 0.84529 0.47499 0.66715 0.0
C6061 C 0.84187 0.51981 0.66258 0.0
H6062 H 0.82639 0.48598 0.64881 0.0
C6063 C 0.85233 0.51353 0.67341 0.0
C6064 C 0.85345 0.49734 0.6754 0.0
H6065 H 0.84031 0.53232 0.66215 0.0
H6066 H 0.85863 0.52133 0.68107 0.0
C6067 C 0.84486 0.4875 0.66558 0.0
C6068 C 0.84486 0.76988 0.59179 0.0
C6069 C 0.8535 0.76006 0.582 0.0
H6070 H 0.82633 0.77136 0.60851 0.0
C6071 C 0.85242 0.74386 0.58399 0.0
H6072 H 0.84525 0.78239 0.59021 0.0
C6073 C 0.84196 0.73757 0.5948 0.0
C6074 C 0.83209 0.74739 0.60336 0.0
H6075 H 0.85877 0.73609 0.57635 0.0
H6076 H 0.84043 0.72505 0.59524 0.0
C6077 C 0.83403 0.76358 0.60223 0.0
C6078 C 0.91559 0.51987 0.09489 0.0
C6079 C 0.92538 0.51003 0.10351 0.0
H6080 H 0.89887 0.52139 0.07637 0.0
C6081 C 0.92336 0.49383 0.10241 0.0
H6082 H 0.91719 0.53238 0.0953 0.0
C6083 C 0.91254 0.48756 0.09195 0.0
C6084 C 0.90399 0.4974 0.08209 0.0
H6085 H 0.93099 0.48604 0.10875 0.0
H6086 H 0.91209 0.47505 0.0904 0.0
C6087 C 0.90514 0.5136 0.08406 0.0
C6088 C 0.4234 0.49386 0.60249 0.0
C6089 C 0.4254 0.51005 0.60361 0.0
H6090 H 0.41213 0.47508 0.59047 0.0
C6091 C 0.4156 0.5199 0.59501 0.0
H6092 H 0.43104 0.48606 0.60881 0.0
C6093 C 0.40514 0.51364 0.58418 0.0
C6094 C 0.404 0.49744 0.5822 0.0
H6095 H 0.41718 0.53241 0.59544 0.0
H6096 H 0.39885 0.52143 0.57652 0.0
C6097 C 0.41257 0.48759 0.59203 0.0
C6098 C 0.34192 0.73759 0.09485 0.0
C6099 C 0.3321 0.74743 0.10345 0.0
H6100 H 0.35866 0.73608 0.07635 0.0
C6101 C 0.33409 0.76362 0.10233 0.0
H6102 H 0.34035 0.72508 0.09527 0.0
C6103 C 0.3449 0.7699 0.09186 0.0
C6104 C 0.35348 0.76006 0.08203 0.0
H6105 H 0.32643 0.77141 0.10864 0.0
H6106 H 0.34533 0.78241 0.0903 0.0
C6107 C 0.35236 0.74387 0.08401 0.0
C6108 C 0.4126 0.76986 0.66566 0.0
C6109 C 0.40403 0.76003 0.67551 0.0
H6110 H 0.43106 0.77136 0.64887 0.0
C6111 C 0.40516 0.74384 0.67354 0.0
H6112 H 0.41217 0.78238 0.6672 0.0
C6113 C 0.41561 0.73755 0.66272 0.0
C6114 C 0.42541 0.74738 0.6541 0.0
H6115 H 0.39887 0.73605 0.68122 0.0
H6116 H 0.41718 0.72504 0.66231 0.0
C6117 C 0.42342 0.76357 0.6552 0.0
C6118 C 0.34191 0.51991 0.16262 0.0
C6119 C 0.33208 0.51007 0.15404 0.0
H6120 H 0.35868 0.52141 0.1811 0.0
C6121 C 0.33405 0.49388 0.15516 0.0
H6122 H 0.34035 0.53242 0.16219 0.0
C6123 C 0.34488 0.4876 0.16561 0.0
C6124 C 0.35348 0.49743 0.17543 0.0
H6125 H 0.32638 0.48609 0.14885 0.0
H6126 H 0.3453 0.47508 0.16717 0.0
C6127 C 0.35236 0.51362 0.17344 0.0
C6128 C 0.09482 0.9157 0.51987 0.0
C6129 C 0.10343 0.92552 0.51004 0.0
H6130 H 0.07632 0.89896 0.52136 0.0
C6131 C 0.10232 0.92353 0.49385 0.0
H6132 H 0.09523 0.91727 0.53238 0.0
C6133 C 0.09187 0.91272 0.48756 0.0
C6134 C 0.08203 0.90414 0.49738 0.0
H6135 H 0.10865 0.93119 0.48606 0.0
H6136 H 0.09032 0.91229 0.47504 0.0
C6137 C 0.08399 0.90526 0.51358 0.0
C6138 C 0.59198 0.84507 0.76976 0.0
C6139 C 0.58214 0.85364 0.75992 0.0
H6140 H 0.60876 0.8266 0.77129 0.0
C6141 C 0.58411 0.8525 0.74373 0.0
H6142 H 0.59043 0.84552 0.78228 0.0
C6143 C 0.59494 0.84204 0.73746 0.0
C6144 C 0.60354 0.83224 0.7473 0.0
H6145 H 0.57644 0.85879 0.73594 0.0
H6146 H 0.59535 0.84046 0.72495 0.0
C6147 C 0.60244 0.83425 0.76349 0.0
C6148 C 0.66559 0.34488 0.98764 0.0
C6149 C 0.6754 0.35348 0.99749 0.0
H6150 H 0.64884 0.32639 0.98611 0.0
C6151 C 0.67341 0.35236 0.01368 0.0
H6152 H 0.66717 0.34531 0.97513 0.0
C6153 C 0.66258 0.3419 0.01995 0.0
C6154 C 0.65401 0.33207 0.0101 0.0
H6155 H 0.68106 0.35867 0.02147 0.0
H6156 H 0.66214 0.34033 0.03246 0.0
C6157 C 0.65514 0.33405 0.99391 0.0
C6158 C 0.17345 0.40524 0.24398 0.0
C6159 C 0.17545 0.40414 0.26017 0.0
H6160 H 0.16219 0.41723 0.22518 0.0
C6161 C 0.16565 0.41275 0.27001 0.0
H6162 H 0.18109 0.3989 0.23619 0.0
C6163 C 0.1552 0.42358 0.26372 0.0
C6164 C 0.15406 0.42554 0.24753 0.0
H6165 H 0.16723 0.41234 0.28252 0.0
H6166 H 0.1489 0.43125 0.27151 0.0
C6167 C 0.16263 0.41569 0.2377 0.0
C6168 C 0.60238 0.92345 0.99387 0.0
C6169 C 0.60347 0.92546 0.01006 0.0
H6170 H 0.59038 0.91219 0.97507 0.0
C6171 C 0.59485 0.91566 0.0199 0.0
H6172 H 0.60872 0.93109 0.98608 0.0
C6173 C 0.58402 0.90522 0.01361 0.0
C6174 C 0.58206 0.90408 0.99742 0.0
H6175 H 0.59525 0.91725 0.03241 0.0
H6176 H 0.57633 0.89894 0.0214 0.0
C6177 C 0.59192 0.91264 0.98759 0.0
C6178 C 0.15508 0.33418 0.4939 0.0
C6179 C 0.15394 0.33217 0.51009 0.0
H6180 H 0.16711 0.34544 0.47513 0.0
C6181 C 0.16252 0.34199 0.51995 0.0
H6182 H 0.14877 0.32652 0.4861 0.0
C6183 C 0.17335 0.35245 0.51369 0.0
C6184 C 0.17535 0.35358 0.4975 0.0
H6185 H 0.16208 0.34041 0.53246 0.0
H6186 H 0.181 0.35875 0.52149 0.0
C6187 C 0.16553 0.34501 0.48764 0.0
C6188 C 0.6734 0.40523 0.74401 0.0
C6189 C 0.6754 0.40414 0.7602 0.0
H6190 H 0.66214 0.41722 0.7252 0.0
C6191 C 0.66561 0.41277 0.77003 0.0
H6192 H 0.68104 0.39888 0.73622 0.0
C6193 C 0.65517 0.4236 0.76374 0.0
C6194 C 0.65403 0.42555 0.74754 0.0
H6195 H 0.66719 0.41237 0.78254 0.0
H6196 H 0.64888 0.43129 0.77152 0.0
C6197 C 0.66258 0.41568 0.73772 0.0
C6198 C 0.10241 0.83415 0.2636 0.0
C6199 C 0.10356 0.83216 0.24741 0.0
H6200 H 0.09038 0.84542 0.28237 0.0
C6201 C 0.095 0.842 0.23755 0.0
H6202 H 0.1087 0.82648 0.2714 0.0
C6203 C 0.08418 0.85247 0.24381 0.0
C6204 C 0.08216 0.85359 0.26 0.0
H6205 H 0.09545 0.84043 0.22504 0.0
H6206 H 0.07654 0.85879 0.23601 0.0
C6207 C 0.09196 0.84499 0.26986 0.0
C6208 C 0.09213 0.26994 0.84498 0.0
C6209 C 0.08234 0.26009 0.85357 0.0
H6210 H 0.10887 0.27149 0.82647 0.0
C6211 C 0.08435 0.2439 0.85245 0.0
H6212 H 0.09054 0.28245 0.84541 0.0
C6213 C 0.09518 0.23764 0.84198 0.0
C6214 C 0.10374 0.2475 0.83215 0.0
H6215 H 0.07671 0.23609 0.85876 0.0
H6216 H 0.09562 0.22513 0.84041 0.0
C6217 C 0.10259 0.26369 0.83414 0.0
C6218 C 0.17354 0.51371 0.35241 0.0
C6219 C 0.17552 0.49752 0.35354 0.0
H6220 H 0.16229 0.53251 0.34039 0.0
C6221 C 0.1657 0.48768 0.34495 0.0
H6222 H 0.1812 0.5215 0.35872 0.0
C6223 C 0.15524 0.49396 0.33412 0.0
C6224 C 0.15412 0.51015 0.33214 0.0
H6225 H 0.16726 0.47517 0.34538 0.0
H6226 H 0.14893 0.48617 0.32646 0.0
C6227 C 0.16271 0.51999 0.34196 0.0
C6228 C 0.17342 0.24395 0.40523 0.0
C6229 C 0.17539 0.26014 0.40411 0.0
H6230 H 0.16217 0.22515 0.41725 0.0
C6231 C 0.16555 0.26998 0.41269 0.0
H6232 H 0.18109 0.23616 0.39893 0.0
C6233 C 0.1551 0.2637 0.4235 0.0
C6234 C 0.15399 0.2475 0.42549 0.0
H6235 H 0.16711 0.28249 0.41225 0.0
H6236 H 0.14877 0.27148 0.43115 0.0
C6237 C 0.16259 0.23767 0.41568 0.0
C6238 C 0.09177 0.48761 0.91278 0.0
C6239 C 0.08197 0.49743 0.90415 0.0
H6240 H 0.10851 0.48613 0.93129 0.0
C6241 C 0.08395 0.51362 0.90524 0.0
H6242 H 0.0902 0.47509 0.91238 0.0
C6243 C 0.09477 0.51992 0.91569 0.0
C6244 C 0.10334 0.5101 0.92555 0.0
H6245 H 0.07631 0.5214 0.8989 0.0
H6246 H 0.0952 0.53244 0.91723 0.0
C6247 C 0.10221 0.4939 0.92361 0.0
C6248 C 0.59194 0.48758 0.41259 0.0
C6249 C 0.58214 0.49743 0.40399 0.0
H6250 H 0.60869 0.48605 0.43109 0.0
C6251 C 0.58415 0.51362 0.40511 0.0
H6252 H 0.59036 0.47507 0.41217 0.0
C6253 C 0.59497 0.51989 0.41556 0.0
C6254 C 0.60354 0.51004 0.4254 0.0
H6255 H 0.5765 0.52142 0.39879 0.0
H6256 H 0.59542 0.5324 0.41712 0.0
C6257 C 0.6024 0.49385 0.42342 0.0
C6258 C 0.66276 0.23756 0.91567 0.0
C6259 C 0.65412 0.2474 0.92545 0.0
H6260 H 0.68128 0.23605 0.89894 0.0
C6261 C 0.65521 0.26359 0.92343 0.0
H6262 H 0.66236 0.22505 0.91726 0.0
C6263 C 0.66567 0.26987 0.91261 0.0
C6264 C 0.67553 0.26004 0.90406 0.0
H6265 H 0.64886 0.27139 0.93106 0.0
H6266 H 0.6672 0.28239 0.91215 0.0
C6267 C 0.67359 0.24384 0.90522 0.0
C6268 C 0.59482 0.23756 0.34194 0.0
C6269 C 0.60342 0.24739 0.33212 0.0
H6270 H 0.57633 0.23605 0.3587 0.0
C6271 C 0.60231 0.26359 0.33412 0.0
H6272 H 0.59523 0.22505 0.34036 0.0
C6273 C 0.59187 0.26987 0.34495 0.0
C6274 C 0.58203 0.26003 0.35353 0.0
H6275 H 0.60863 0.27137 0.32647 0.0
H6276 H 0.59031 0.28238 0.34538 0.0
C6277 C 0.584 0.24384 0.3524 0.0
C6278 C 0.65518 0.49393 0.83412 0.0
C6279 C 0.65404 0.51013 0.83215 0.0
H6280 H 0.6672 0.47514 0.84536 0.0
C6281 C 0.6626 0.51996 0.84201 0.0
H6282 H 0.6489 0.48615 0.82643 0.0
C6283 C 0.67341 0.51368 0.85248 0.0
C6284 C 0.67541 0.49749 0.85358 0.0
H6285 H 0.66215 0.53248 0.84046 0.0
H6286 H 0.68104 0.52148 0.85882 0.0
C6287 C 0.66562 0.48765 0.84495 0.0
C6288 C 0.90509 0.08407 0.5136 0.0
C6289 C 0.90395 0.08209 0.49741 0.0
H6290 H 0.91712 0.09532 0.53238 0.0
C6291 C 0.91253 0.09192 0.48756 0.0
H6292 H 0.89879 0.07641 0.52139 0.0
C6293 C 0.92336 0.10237 0.49383 0.0
C6294 C 0.92536 0.10349 0.51002 0.0
H6295 H 0.91209 0.09035 0.47505 0.0
H6296 H 0.931 0.10869 0.48603 0.0
C6297 C 0.91554 0.0949 0.51987 0.0
C6298 C 0.42332 0.15509 0.2637 0.0
C6299 C 0.42532 0.15397 0.2475 0.0
H6300 H 0.41206 0.16712 0.28248 0.0
C6301 C 0.41551 0.16257 0.23766 0.0
H6302 H 0.43097 0.14878 0.27149 0.0
C6303 C 0.40506 0.1734 0.24393 0.0
C6304 C 0.40393 0.17538 0.26012 0.0
H6305 H 0.41709 0.16214 0.22515 0.0
H6306 H 0.39876 0.18106 0.23613 0.0
C6307 C 0.4125 0.16555 0.26996 0.0
C6308 C 0.34191 0.66254 0.01985 0.0
C6309 C 0.33204 0.654 0.01001 0.0
H6310 H 0.35871 0.68099 0.02136 0.0
C6311 C 0.33399 0.65515 0.99382 0.0
H6312 H 0.34037 0.66209 0.03236 0.0
C6313 C 0.34482 0.6656 0.98754 0.0
C6314 C 0.35345 0.67538 0.99738 0.0
H6315 H 0.3263 0.64887 0.98603 0.0
H6316 H 0.34522 0.66719 0.97503 0.0
C6317 C 0.35237 0.67336 0.01357 0.0
C6318 C 0.83405 0.6023 0.76355 0.0
C6319 C 0.83207 0.60339 0.74735 0.0
H6320 H 0.84529 0.5903 0.78236 0.0
C6321 C 0.84188 0.59476 0.73753 0.0
H6322 H 0.8264 0.60863 0.77133 0.0
C6323 C 0.85231 0.58394 0.74383 0.0
C6324 C 0.85343 0.58198 0.76002 0.0
H6325 H 0.84031 0.59517 0.72502 0.0
H6326 H 0.85861 0.57625 0.73605 0.0
C6327 C 0.84486 0.59184 0.76984 0.0
C6328 C 0.41566 0.09491 0.01996 0.0
C6329 C 0.42552 0.10347 0.01013 0.0
H6330 H 0.39887 0.07645 0.02147 0.0
C6331 C 0.42356 0.10233 0.99394 0.0
H6332 H 0.4172 0.09536 0.03248 0.0
C6333 C 0.41273 0.09188 0.98765 0.0
C6334 C 0.40411 0.08209 0.99749 0.0
H6335 H 0.43124 0.10862 0.98615 0.0
H6336 H 0.41233 0.0903 0.97514 0.0
C6337 C 0.4052 0.08409 0.01368 0.0
C6338 C 0.84504 0.66549 0.48756 0.0
C6339 C 0.8536 0.67532 0.49742 0.0
H6340 H 0.82658 0.6487 0.486 0.0
C6341 C 0.85245 0.67332 0.51361 0.0
H6342 H 0.84548 0.66706 0.47505 0.0
C6343 C 0.84201 0.66248 0.51986 0.0
C6344 C 0.83221 0.65388 0.51 0.0
H6345 H 0.85874 0.68098 0.52141 0.0
H6346 H 0.84042 0.66204 0.53237 0.0
C6347 C 0.83422 0.65501 0.49381 0.0
C6348 C 0.34499 0.5919 0.26991 0.0
C6349 C 0.35354 0.58205 0.26006 0.0
H6350 H 0.32654 0.6087 0.27144 0.0
C6351 C 0.3524 0.58402 0.24387 0.0
H6352 H 0.34544 0.59034 0.28242 0.0
C6353 C 0.34195 0.59485 0.2376 0.0
C6354 C 0.33216 0.60347 0.24745 0.0
H6355 H 0.35868 0.57634 0.23608 0.0
H6356 H 0.34037 0.59527 0.22509 0.0
C6357 C 0.33417 0.60237 0.26364 0.0
C6358 C 0.90526 0.17339 0.74388 0.0
C6359 C 0.90421 0.17543 0.76007 0.0
H6360 H 0.91724 0.16212 0.72508 0.0
C6361 C 0.91287 0.16567 0.76991 0.0
H6362 H 0.89889 0.18101 0.7361 0.0
C6363 C 0.9237 0.15523 0.76362 0.0
C6364 C 0.92562 0.15406 0.74742 0.0
H6365 H 0.91249 0.16727 0.78242 0.0
H6366 H 0.93142 0.14897 0.7714 0.0
C6367 C 0.91573 0.16258 0.7376 0.0
C6368 C 0.48762 0.09189 0.91276 0.0
C6369 C 0.49746 0.08213 0.90411 0.0
H6370 H 0.48611 0.10859 0.9313 0.0
C6371 C 0.51365 0.08416 0.90519 0.0
H6372 H 0.47511 0.09028 0.91237 0.0
C6373 C 0.51993 0.09497 0.91566 0.0
C6374 C 0.51009 0.1035 0.92554 0.0
H6375 H 0.52145 0.07654 0.89884 0.0
H6376 H 0.53245 0.09543 0.91719 0.0
C6377 C 0.4939 0.10233 0.9236 0.0
C6378 C 0.26354 0.1552 0.42346 0.0
C6379 C 0.24735 0.15411 0.42547 0.0
H6380 H 0.28234 0.1672 0.41219 0.0
C6381 C 0.23751 0.16274 0.41569 0.0
H6382 H 0.27133 0.14886 0.43109 0.0
C6383 C 0.24379 0.17357 0.40524 0.0
C6384 C 0.25998 0.17553 0.40409 0.0
H6385 H 0.225 0.16234 0.41728 0.0
H6386 H 0.236 0.18126 0.39897 0.0
C6387 C 0.26982 0.16566 0.41264 0.0
C6388 C 0.48756 0.16557 0.34498 0.0
C6389 C 0.49741 0.17541 0.35353 0.0
H6390 H 0.48603 0.14877 0.32652 0.0
C6391 C 0.5136 0.17344 0.35238 0.0
H6392 H 0.47505 0.16712 0.34543 0.0
C6393 C 0.51987 0.1626 0.34193 0.0
C6394 C 0.51002 0.15399 0.33214 0.0
H6395 H 0.5214 0.18111 0.35866 0.0
H6396 H 0.53238 0.16218 0.34034 0.0
C6397 C 0.49383 0.1551 0.33416 0.0
C6398 C 0.23772 0.09488 0.84188 0.0
C6399 C 0.24758 0.10347 0.83207 0.0
H6400 H 0.23618 0.0764 0.85864 0.0
C6401 C 0.26377 0.10235 0.83408 0.0
H6402 H 0.22521 0.09531 0.84029 0.0
C6403 C 0.27003 0.0919 0.84491 0.0
C6404 C 0.26018 0.08207 0.85349 0.0
H6405 H 0.27157 0.10866 0.82643 0.0
H6406 H 0.28254 0.09033 0.84536 0.0
C6407 C 0.24399 0.08406 0.85234 0.0
C6408 C 0.48769 0.66572 0.84496 0.0
C6409 C 0.49752 0.6756 0.8535 0.0
H6410 H 0.48619 0.6489 0.82653 0.0
C6411 C 0.51372 0.67367 0.85234 0.0
H6412 H 0.47518 0.66724 0.84543 0.0
C6413 C 0.52001 0.66284 0.8419 0.0
C6414 C 0.51017 0.65418 0.83213 0.0
H6415 H 0.5215 0.68137 0.8586 0.0
H6416 H 0.53252 0.66245 0.8403 0.0
C6417 C 0.49398 0.65525 0.83415 0.0
C6418 C 0.27 0.59199 0.34495 0.0
C6419 C 0.26015 0.58217 0.35354 0.0
H6420 H 0.27153 0.60874 0.32646 0.0
C6421 C 0.24396 0.58418 0.35242 0.0
H6422 H 0.28251 0.59041 0.34538 0.0
C6423 C 0.23769 0.595 0.34196 0.0
C6424 C 0.24754 0.60358 0.33214 0.0
H6425 H 0.23616 0.57652 0.35873 0.0
H6426 H 0.22518 0.59544 0.3404 0.0
C6427 C 0.26373 0.60245 0.33413 0.0
C6428 C 0.26356 0.65517 0.92345 0.0
C6429 C 0.24736 0.65405 0.92543 0.0
H6430 H 0.28235 0.66718 0.91221 0.0
C6431 C 0.23753 0.66264 0.9156 0.0
H6432 H 0.27134 0.64886 0.93112 0.0
C6433 C 0.24381 0.67346 0.90515 0.0
C6434 C 0.26001 0.67544 0.90403 0.0
H6435 H 0.22502 0.66221 0.91716 0.0
H6436 H 0.23603 0.68112 0.89883 0.0
C6437 C 0.26984 0.66562 0.91263 0.0
C6438 C 0.51363 0.5841 0.40515 0.0
C6439 C 0.49744 0.58207 0.40408 0.0
H6440 H 0.53242 0.59538 0.41714 0.0
C6441 C 0.48759 0.59184 0.41273 0.0
H6442 H 0.52142 0.57649 0.3988 0.0
C6443 C 0.49387 0.60228 0.42356 0.0
C6444 C 0.51007 0.60345 0.4255 0.0
H6445 H 0.47508 0.59023 0.41234 0.0
H6446 H 0.48608 0.60854 0.43126 0.0
C6447 C 0.5199 0.59492 0.41562 0.0
C6448 C 0.5199 0.9156 0.09482 0.0
C6449 C 0.51006 0.9254 0.10343 0.0
H6450 H 0.52142 0.89886 0.07631 0.0
C6451 C 0.49387 0.92341 0.10231 0.0
H6452 H 0.53241 0.91718 0.09524 0.0
C6453 C 0.48759 0.91259 0.09185 0.0
C6454 C 0.49743 0.90402 0.08201 0.0
H6455 H 0.48607 0.93105 0.10864 0.0
H6456 H 0.47508 0.91215 0.09029 0.0
C6457 C 0.51363 0.90515 0.08399 0.0
C6458 C 0.73765 0.8418 0.59479 0.0
C6459 C 0.74748 0.83191 0.60331 0.0
H6460 H 0.73614 0.85864 0.57637 0.0
C6461 C 0.76367 0.83384 0.60215 0.0
H6462 H 0.72513 0.84028 0.59525 0.0
C6463 C 0.76996 0.84468 0.59172 0.0
C6464 C 0.76012 0.85335 0.58196 0.0
H6465 H 0.77145 0.82613 0.60841 0.0
H6466 H 0.78247 0.84507 0.59011 0.0
C6467 C 0.74393 0.85227 0.58399 0.0
C6468 C 0.49384 0.83401 0.65511 0.0
C6469 C 0.51003 0.83205 0.65395 0.0
H6470 H 0.47507 0.84526 0.66716 0.0
C6471 C 0.51988 0.84191 0.66248 0.0
H6472 H 0.48604 0.82633 0.64884 0.0
C6473 C 0.51362 0.85238 0.6733 0.0
C6474 C 0.49743 0.85348 0.67533 0.0
H6475 H 0.53239 0.84036 0.66202 0.0
H6476 H 0.52142 0.85872 0.68093 0.0
C6477 C 0.48757 0.84485 0.66555 0.0
C6478 C 0.73766 0.91561 0.16258 0.0
C6479 C 0.7475 0.92544 0.15399 0.0
H6480 H 0.73615 0.89884 0.18106 0.0
C6481 C 0.76369 0.92346 0.15512 0.0
H6482 H 0.72515 0.91717 0.16214 0.0
C6483 C 0.76998 0.91264 0.16557 0.0
C6484 C 0.76014 0.90404 0.17539 0.0
H6485 H 0.77148 0.93112 0.14881 0.0
H6486 H 0.78249 0.91222 0.16714 0.0
C6487 C 0.74394 0.90516 0.1734 0.0
C6488 C 0.48759 0.34483 0.16565 0.0
C6489 C 0.49742 0.35341 0.17549 0.0
H6490 H 0.48609 0.32636 0.14887 0.0
C6491 C 0.51361 0.35228 0.17353 0.0
H6492 H 0.47507 0.34527 0.1672 0.0
C6493 C 0.5199 0.34183 0.1627 0.0
C6494 C 0.51007 0.33202 0.15409 0.0
H6495 H 0.5214 0.35858 0.1812 0.0
H6496 H 0.53241 0.34026 0.16229 0.0
C6497 C 0.49387 0.33401 0.15519 0.0
C6498 C 0.76355 0.4233 0.65515 0.0
C6499 C 0.74736 0.42534 0.65408 0.0
H6500 H 0.78234 0.41202 0.66715 0.0
C6501 C 0.73751 0.41558 0.66273 0.0
H6502 H 0.77134 0.43092 0.6488 0.0
C6503 C 0.74378 0.40513 0.67356 0.0
C6504 C 0.75998 0.40396 0.6755 0.0
H6505 H 0.725 0.41719 0.66233 0.0
H6506 H 0.736 0.39888 0.68127 0.0
C6507 C 0.76982 0.41249 0.66562 0.0
C6508 C 0.76363 0.33393 0.10234 0.0
C6509 C 0.74743 0.33197 0.10348 0.0
H6510 H 0.78242 0.34516 0.09032 0.0
C6511 C 0.7376 0.34183 0.09492 0.0
H6512 H 0.77141 0.32625 0.10863 0.0
C6513 C 0.74388 0.35229 0.08411 0.0
C6514 C 0.76008 0.35338 0.0821 0.0
H6515 H 0.72508 0.34029 0.09537 0.0
H6516 H 0.73609 0.35863 0.07647 0.0
C6517 C 0.76991 0.34476 0.0919 0.0
C6518 C 0.51365 0.40516 0.58407 0.0
C6519 C 0.49746 0.404 0.58212 0.0
H6520 H 0.53244 0.4172 0.5953 0.0
C6521 C 0.48762 0.41255 0.59199 0.0
H6522 H 0.52144 0.39888 0.57637 0.0
C6523 C 0.4939 0.42336 0.60245 0.0
C6524 C 0.51009 0.42538 0.60353 0.0
H6525 H 0.47511 0.41209 0.59045 0.0
H6526 H 0.48611 0.43099 0.60879 0.0
C6527 C 0.51993 0.4156 0.5949 0.0
loop_
_geom_bond_atom_site_label_1
_geom_bond_atom_site_label_2
_geom_bond_distance
_geom_bond_site_symmetry_2
_ccdc_geom_bond_type
Co0 O1 2.216 . S
Co0 O2 2.091 . S
Co0 O4 2.004 . S
Co0 O10 2.021 . S
Co0 O12 2.137 . S
Co0 O13 2.244 . S
O1 Co0 2.216 . S
O1 C8 1.247 . S
O2 Co0 2.091 . S
O2 C8 1.261 . S
C3 O12 1.247 . S
C3 O13 1.272 . S
O4 Co0 2.004 . S
O4 C9 1.259 . S
Co5 O6 2.061 . S
Co5 O11 2.052 . S
Co5 O13 2.135 . S
O6 Co5 2.061 . S
O6 C9 1.235 . S
C7 O10 1.238 . S
C7 O11 1.241 . S
C8 O1 1.247 . S
C8 O2 1.261 . S
C9 O4 1.259 . S
C9 O6 1.235 . S
O10 Co0 2.021 . S
O10 C7 1.238 . S
O11 Co5 2.052 . S
O11 C7 1.241 . S
O12 Co0 2.137 . S
O12 C3 1.247 . S
O13 Co0 2.244 . S
O13 C3 1.272 . S
O13 Co5 2.135 . S
Co14 O15 2.216 . S
Co14 O16 2.091 . S
Co14 O18 2.004 . S
Co14 O24 2.021 . S
Co14 O26 2.137 . S
Co14 O27 2.244 . S
O15 Co14 2.216 . S
O15 C22 1.247 . S
O16 Co14 2.091 . S
O16 C22 1.261 . S
C17 O26 1.247 . S
C17 O27 1.272 . S
O18 Co14 2.004 . S
O18 C23 1.259 . S
Co19 O20 2.061 . S
Co19 O25 2.052 . S
Co19 O27 2.135 . S
O20 Co19 2.061 . S
O20 C23 1.235 . S
C21 O24 1.238 . S
C21 O25 1.241 . S
C22 O15 1.247 . S
C22 O16 1.261 . S
C23 O18 1.259 . S
C23 O20 1.235 . S
O24 Co14 2.021 . S
O24 C21 1.238 . S
O25 Co19 2.052 . S
O25 C21 1.241 . S
O26 Co14 2.137 . S
O26 C17 1.247 . S
O27 Co14 2.244 . S
O27 C17 1.272 . S
O27 Co19 2.135 . S
Co28 O29 2.216 . S
Co28 O30 2.091 . S
Co28 O32 2.004 . S
Co28 O38 2.021 . S
Co28 O40 2.137 . S
Co28 O41 2.244 . S
O29 Co28 2.216 . S
O29 C36 1.247 . S
O30 Co28 2.091 . S
O30 C36 1.261 . S
C31 O40 1.247 . S
C31 O41 1.272 . S
O32 Co28 2.004 . S
O32 C37 1.259 . S
Co33 O34 2.061 . S
Co33 O39 2.052 . S
Co33 O41 2.135 . S
O34 Co33 2.061 . S
O34 C37 1.235 . S
C35 O38 1.238 . S
C35 O39 1.241 . S
C36 O29 1.247 . S
C36 O30 1.261 . S
C37 O32 1.259 . S
C37 O34 1.235 . S
O38 Co28 2.021 . S
O38 C35 1.238 . S
O39 Co33 2.052 . S
O39 C35 1.241 . S
O40 Co28 2.137 . S
O40 C31 1.247 . S
O41 Co28 2.244 . S
O41 C31 1.272 . S
O41 Co33 2.135 . S
Co42 O43 2.216 . S
Co42 O44 2.091 . S
Co42 O46 2.004 . S
Co42 O52 2.021 . S
Co42 O54 2.137 . S
Co42 O55 2.244 . S
O43 Co42 2.216 . S
O43 C50 1.247 . S
O44 Co42 2.091 . S
O44 C50 1.261 . S
C45 O54 1.247 . S
C45 O55 1.272 . S
O46 Co42 2.004 . S
O46 C51 1.259 . S
Co47 O48 2.061 . S
Co47 O53 2.052 . S
Co47 O55 2.135 . S
O48 Co47 2.061 . S
O48 C51 1.235 . S
C49 O52 1.238 . S
C49 O53 1.241 . S
C50 O43 1.247 . S
C50 O44 1.261 . S
C51 O46 1.259 . S
C51 O48 1.235 . S
O52 Co42 2.021 . S
O52 C49 1.238 . S
O53 Co47 2.052 . S
O53 C49 1.241 . S
O54 Co42 2.137 . S
O54 C45 1.247 . S
O55 Co42 2.244 . S
O55 C45 1.272 . S
O55 Co47 2.135 . S
Co56 O57 2.216 . S
Co56 O58 2.091 . S
Co56 O60 2.004 . S
Co56 O66 2.021 . S
Co56 O68 2.137 . S
Co56 O69 2.244 . S
O57 Co56 2.216 . S
O57 C64 1.247 . S
O58 Co56 2.091 . S
O58 C64 1.261 . S
C59 O68 1.247 . S
C59 O69 1.272 . S
O60 Co56 2.004 . S
O60 C65 1.259 . S
Co61 O62 2.061 . S
Co61 O67 2.052 . S
Co61 O69 2.135 . S
O62 Co61 2.061 . S
O62 C65 1.235 . S
C63 O66 1.238 . S
C63 O67 1.241 . S
C64 O57 1.247 . S
C64 O58 1.261 . S
C65 O60 1.259 . S
C65 O62 1.235 . S
O66 Co56 2.021 . S
O66 C63 1.238 . S
O67 Co61 2.052 . S
O67 C63 1.241 . S
O68 Co56 2.137 . S
O68 C59 1.247 . S
O69 Co56 2.244 . S
O69 C59 1.272 . S
O69 Co61 2.135 . S
Co70 O71 2.216 . S
Co70 O72 2.091 . S
Co70 O74 2.004 . S
Co70 O80 2.021 . S
Co70 O82 2.137 . S
Co70 O83 2.244 . S
O71 Co70 2.216 . S
O71 C78 1.247 . S
O72 Co70 2.091 . S
O72 C78 1.261 . S
C73 O82 1.247 . S
C73 O83 1.272 . S
O74 Co70 2.004 . S
O74 C79 1.259 . S
Co75 O76 2.061 . S
Co75 O81 2.052 . S
Co75 O83 2.135 . S
O76 Co75 2.061 . S
O76 C79 1.235 . S
C77 O80 1.238 . S
C77 O81 1.241 . S
C78 O71 1.247 . S
C78 O72 1.261 . S
C79 O74 1.259 . S
C79 O76 1.235 . S
O80 Co70 2.021 . S
O80 C77 1.238 . S
O81 Co75 2.052 . S
O81 C77 1.241 . S
O82 Co70 2.137 . S
O82 C73 1.247 . S
O83 Co70 2.244 . S
O83 C73 1.272 . S
O83 Co75 2.135 . S
Co84 O85 2.216 . S
Co84 O86 2.091 . S
Co84 O88 2.004 . S
Co84 O94 2.021 . S
Co84 O96 2.137 . S
Co84 O97 2.244 . S
O85 Co84 2.216 . S
O85 C92 1.247 . S
O86 Co84 2.091 . S
O86 C92 1.261 . S
C87 O96 1.247 . S
C87 O97 1.272 . S
O88 Co84 2.004 . S
O88 C93 1.259 . S
Co89 O90 2.061 . S
Co89 O95 2.052 . S
Co89 O97 2.135 . S
O90 Co89 2.061 . S
O90 C93 1.235 . S
C91 O94 1.238 . S
C91 O95 1.241 . S
C92 O85 1.247 . S
C92 O86 1.261 . S
C93 O88 1.259 . S
C93 O90 1.235 . S
O94 Co84 2.021 . S
O94 C91 1.238 . S
O95 Co89 2.052 . S
O95 C91 1.241 . S
O96 Co84 2.137 . S
O96 C87 1.247 . S
O97 Co84 2.244 . S
O97 C87 1.272 . S
O97 Co89 2.135 . S
Co98 O99 2.216 . S
Co98 O100 2.091 . S
Co98 O102 2.004 . S
Co98 O108 2.021 . S
Co98 O110 2.137 . S
Co98 O111 2.244 . S
O99 Co98 2.216 . S
O99 C106 1.247 . S
O100 Co98 2.091 . S
O100 C106 1.261 . S
C101 O110 1.247 . S
C101 O111 1.272 . S
O102 Co98 2.004 . S
O102 C107 1.259 . S
Co103 O104 2.061 . S
Co103 O109 2.052 . S
Co103 O111 2.135 . S
O104 Co103 2.061 . S
O104 C107 1.235 . S
C105 O108 1.238 . S
C105 O109 1.241 . S
C106 O99 1.247 . S
C106 O100 1.261 . S
C107 O102 1.259 . S
C107 O104 1.235 . S
O108 Co98 2.021 . S
O108 C105 1.238 . S
O109 Co103 2.052 . S
O109 C105 1.241 . S
O110 Co98 2.137 . S
O110 C101 1.247 . S
O111 Co98 2.244 . S
O111 C101 1.272 . S
O111 Co103 2.135 . S
Co112 O113 2.216 . S
Co112 O114 2.091 . S
Co112 O116 2.004 . S
Co112 O122 2.021 . S
Co112 O124 2.137 . S
Co112 O125 2.244 . S
O113 Co112 2.216 . S
O113 C120 1.247 . S
O114 Co112 2.091 . S
O114 C120 1.261 . S
C115 O124 1.247 . S
C115 O125 1.272 . S
O116 Co112 2.004 . S
O116 C121 1.259 . S
Co117 O118 2.061 . S
Co117 O123 2.052 . S
Co117 O125 2.135 . S
O118 Co117 2.061 . S
O118 C121 1.235 . S
C119 O122 1.238 . S
C119 O123 1.241 . S
C120 O113 1.247 . S
C120 O114 1.261 . S
C121 O116 1.259 . S
C121 O118 1.235 . S
O122 Co112 2.021 . S
O122 C119 1.238 . S
O123 Co117 2.052 . S
O123 C119 1.241 . S
O124 Co112 2.137 . S
O124 C115 1.247 . S
O125 Co112 2.244 . S
O125 C115 1.272 . S
O125 Co117 2.135 . S
Co126 O127 2.216 . S
Co126 O128 2.091 . S
Co126 O130 2.004 . S
Co126 O136 2.021 . S
Co126 O138 2.137 . S
Co126 O139 2.244 . S
O127 Co126 2.216 . S
O127 C134 1.247 . S
O128 Co126 2.091 . S
O128 C134 1.261 . S
C129 O138 1.247 . S
C129 O139 1.272 . S
O130 Co126 2.004 . S
O130 C135 1.259 . S
Co131 O132 2.061 . S
Co131 O137 2.052 . S
Co131 O139 2.135 . S
O132 Co131 2.061 . S
O132 C135 1.235 . S
C133 O136 1.238 . S
C133 O137 1.241 . S
C134 O127 1.247 . S
C134 O128 1.261 . S
C135 O130 1.259 . S
C135 O132 1.235 . S
O136 Co126 2.021 . S
O136 C133 1.238 . S
O137 Co131 2.052 . S
O137 C133 1.241 . S
O138 Co126 2.137 . S
O138 C129 1.247 . S
O139 Co126 2.244 . S
O139 C129 1.272 . S
O139 Co131 2.135 . S
Co140 O141 2.216 . S
Co140 O142 2.091 . S
Co140 O144 2.004 . S
Co140 O150 2.021 . S
Co140 O152 2.137 . S
Co140 O153 2.244 . S
O141 Co140 2.216 . S
O141 C148 1.247 . S
O142 Co140 2.091 . S
O142 C148 1.261 . S
C143 O152 1.247 . S
C143 O153 1.272 . S
O144 Co140 2.004 . S
O144 C149 1.259 . S
Co145 O146 2.061 . S
Co145 O151 2.052 . S
Co145 O153 2.135 . S
O146 Co145 2.061 . S
O146 C149 1.235 . S
C147 O150 1.238 . S
C147 O151 1.241 . S
C148 O141 1.247 . S
C148 O142 1.261 . S
C149 O144 1.259 . S
C149 O146 1.235 . S
O150 Co140 2.021 . S
O150 C147 1.238 . S
O151 Co145 2.052 . S
O151 C147 1.241 . S
O152 Co140 2.137 . S
O152 C143 1.247 . S
O153 Co140 2.244 . S
O153 C143 1.272 . S
O153 Co145 2.135 . S
Co154 O155 2.216 . S
Co154 O156 2.091 . S
Co154 O158 2.004 . S
Co154 O164 2.021 . S
Co154 O166 2.137 . S
Co154 O167 2.244 . S
O155 Co154 2.216 . S
O155 C162 1.247 . S
O156 Co154 2.091 . S
O156 C162 1.261 . S
C157 O166 1.247 . S
C157 O167 1.272 . S
O158 Co154 2.004 . S
O158 C163 1.259 . S
Co159 O160 2.061 . S
Co159 O165 2.052 . S
Co159 O167 2.135 . S
O160 Co159 2.061 . S
O160 C163 1.235 . S
C161 O164 1.238 . S
C161 O165 1.241 . S
C162 O155 1.247 . S
C162 O156 1.261 . S
C163 O158 1.259 . S
C163 O160 1.235 . S
O164 Co154 2.021 . S
O164 C161 1.238 . S
O165 Co159 2.052 . S
O165 C161 1.241 . S
O166 Co154 2.137 . S
O166 C157 1.247 . S
O167 Co154 2.244 . S
O167 C157 1.272 . S
O167 Co159 2.135 . S
Co168 O169 2.216 . S
Co168 O170 2.091 . S
Co168 O172 2.004 . S
Co168 O178 2.021 . S
Co168 O180 2.137 . S
Co168 O181 2.244 . S
O169 Co168 2.216 . S
O169 C176 1.247 . S
O170 Co168 2.091 . S
O170 C176 1.261 . S
C171 O180 1.247 . S
C171 O181 1.272 . S
O172 Co168 2.004 . S
O172 C177 1.259 . S
Co173 O174 2.061 . S
Co173 O179 2.052 . S
Co173 O181 2.135 . S
O174 Co173 2.061 . S
O174 C177 1.235 . S
C175 O178 1.238 . S
C175 O179 1.241 . S
C176 O169 1.247 . S
C176 O170 1.261 . S
C177 O172 1.259 . S
C177 O174 1.235 . S
O178 Co168 2.021 . S
O178 C175 1.238 . S
O179 Co173 2.052 . S
O179 C175 1.241 . S
O180 Co168 2.137 . S
O180 C171 1.247 . S
O181 Co168 2.244 . S
O181 C171 1.272 . S
O181 Co173 2.135 . S
Co182 O183 2.216 . S
Co182 O184 2.091 . S
Co182 O186 2.004 . S
Co182 O192 2.021 . S
Co182 O194 2.137 . S
Co182 O195 2.244 . S
O183 Co182 2.216 . S
O183 C190 1.247 . S
O184 Co182 2.091 . S
O184 C190 1.261 . S
C185 O194 1.247 . S
C185 O195 1.272 . S
O186 Co182 2.004 . S
O186 C191 1.259 . S
Co187 O188 2.061 . S
Co187 O193 2.052 . S
Co187 O195 2.135 . S
O188 Co187 2.061 . S
O188 C191 1.235 . S
C189 O192 1.238 . S
C189 O193 1.241 . S
C190 O183 1.247 . S
C190 O184 1.261 . S
C191 O186 1.259 . S
C191 O188 1.235 . S
O192 Co182 2.021 . S
O192 C189 1.238 . S
O193 Co187 2.052 . S
O193 C189 1.241 . S
O194 Co182 2.137 . S
O194 C185 1.247 . S
O195 Co182 2.244 . S
O195 C185 1.272 . S
O195 Co187 2.135 . S
Co196 O197 2.216 . S
Co196 O198 2.091 . S
Co196 O200 2.004 . S
Co196 O206 2.021 . S
Co196 O208 2.137 . S
Co196 O209 2.244 . S
O197 Co196 2.216 . S
O197 C204 1.247 . S
O198 Co196 2.091 . S
O198 C204 1.261 . S
C199 O208 1.247 . S
C199 O209 1.272 . S
O200 Co196 2.004 . S
O200 C205 1.259 . S
Co201 O202 2.061 . S
Co201 O207 2.052 . S
Co201 O209 2.135 . S
O202 Co201 2.061 . S
O202 C205 1.235 . S
C203 O206 1.238 . S
C203 O207 1.241 . S
C204 O197 1.247 . S
C204 O198 1.261 . S
C205 O200 1.259 . S
C205 O202 1.235 . S
O206 Co196 2.021 . S
O206 C203 1.238 . S
O207 Co201 2.052 . S
O207 C203 1.241 . S
O208 Co196 2.137 . S
O208 C199 1.247 . S
O209 Co196 2.244 . S
O209 C199 1.272 . S
O209 Co201 2.135 . S
Co210 O211 2.216 . S
Co210 O212 2.091 . S
Co210 O214 2.004 . S
Co210 O220 2.021 . S
Co210 O222 2.137 . S
Co210 O223 2.244 . S
O211 Co210 2.216 . S
O211 C218 1.247 . S
O212 Co210 2.091 . S
O212 C218 1.261 . S
C213 O222 1.247 . S
C213 O223 1.272 . S
O214 Co210 2.004 . S
O214 C219 1.259 . S
Co215 O216 2.061 . S
Co215 O221 2.052 . S
Co215 O223 2.135 . S
O216 Co215 2.061 . S
O216 C219 1.235 . S
C217 O220 1.238 . S
C217 O221 1.241 . S
C218 O211 1.247 . S
C218 O212 1.261 . S
C219 O214 1.259 . S
C219 O216 1.235 . S
O220 Co210 2.021 . S
O220 C217 1.238 . S
O221 Co215 2.052 . S
O221 C217 1.241 . S
O222 Co210 2.137 . S
O222 C213 1.247 . S
O223 Co210 2.244 . S
O223 C213 1.272 . S
O223 Co215 2.135 . S
Co224 O225 2.216 . S
Co224 O226 2.091 . S
Co224 O228 2.004 . S
Co224 O234 2.021 . S
Co224 O236 2.137 . S
Co224 O237 2.244 . S
O225 Co224 2.216 . S
O225 C232 1.247 . S
O226 Co224 2.091 . S
O226 C232 1.261 . S
C227 O236 1.247 . S
C227 O237 1.272 . S
O228 Co224 2.004 . S
O228 C233 1.259 . S
Co229 O230 2.061 . S
Co229 O235 2.052 . S
Co229 O237 2.135 . S
O230 Co229 2.061 . S
O230 C233 1.235 . S
C231 O234 1.238 . S
C231 O235 1.241 . S
C232 O225 1.247 . S
C232 O226 1.261 . S
C233 O228 1.259 . S
C233 O230 1.235 . S
O234 Co224 2.021 . S
O234 C231 1.238 . S
O235 Co229 2.052 . S
O235 C231 1.241 . S
O236 Co224 2.137 . S
O236 C227 1.247 . S
O237 Co224 2.244 . S
O237 C227 1.272 . S
O237 Co229 2.135 . S
Co238 O239 2.216 . S
Co238 O240 2.091 . S
Co238 O242 2.004 . S
Co238 O248 2.021 . S
Co238 O250 2.137 . S
Co238 O251 2.244 . S
O239 Co238 2.216 . S
O239 C246 1.247 . S
O240 Co238 2.091 . S
O240 C246 1.261 . S
C241 O250 1.247 . S
C241 O251 1.272 . S
O242 Co238 2.004 . S
O242 C247 1.259 . S
Co243 O244 2.061 . S
Co243 O249 2.052 . S
Co243 O251 2.135 . S
O244 Co243 2.061 . S
O244 C247 1.235 . S
C245 O248 1.238 . S
C245 O249 1.241 . S
C246 O239 1.247 . S
C246 O240 1.261 . S
C247 O242 1.259 . S
C247 O244 1.235 . S
O248 Co238 2.021 . S
O248 C245 1.238 . S
O249 Co243 2.052 . S
O249 C245 1.241 . S
O250 Co238 2.137 . S
O250 C241 1.247 . S
O251 Co238 2.244 . S
O251 C241 1.272 . S
O251 Co243 2.135 . S
Co252 O253 2.216 . S
Co252 O254 2.091 . S
Co252 O256 2.004 . S
Co252 O262 2.021 . S
Co252 O264 2.137 . S
Co252 O265 2.244 . S
O253 Co252 2.216 . S
O253 C260 1.247 . S
O254 Co252 2.091 . S
O254 C260 1.261 . S
C255 O264 1.247 . S
C255 O265 1.272 . S
O256 Co252 2.004 . S
O256 C261 1.259 . S
Co257 O258 2.061 . S
Co257 O263 2.052 . S
Co257 O265 2.135 . S
O258 Co257 2.061 . S
O258 C261 1.235 . S
C259 O262 1.238 . S
C259 O263 1.241 . S
C260 O253 1.247 . S
C260 O254 1.261 . S
C261 O256 1.259 . S
C261 O258 1.235 . S
O262 Co252 2.021 . S
O262 C259 1.238 . S
O263 Co257 2.052 . S
O263 C259 1.241 . S
O264 Co252 2.137 . S
O264 C255 1.247 . S
O265 Co252 2.244 . S
O265 C255 1.272 . S
O265 Co257 2.135 . S
Co266 O267 2.216 . S
Co266 O268 2.091 . S
Co266 O270 2.004 . S
Co266 O276 2.021 . S
Co266 O278 2.137 . S
Co266 O279 2.244 . S
O267 Co266 2.216 . S
O267 C274 1.247 . S
O268 Co266 2.091 . S
O268 C274 1.261 . S
C269 O278 1.247 . S
C269 O279 1.272 . S
O270 Co266 2.004 . S
O270 C275 1.259 . S
Co271 O272 2.061 . S
Co271 O277 2.052 . S
Co271 O279 2.135 . S
O272 Co271 2.061 . S
O272 C275 1.235 . S
C273 O276 1.238 . S
C273 O277 1.241 . S
C274 O267 1.247 . S
C274 O268 1.261 . S
C275 O270 1.259 . S
C275 O272 1.235 . S
O276 Co266 2.021 . S
O276 C273 1.238 . S
O277 Co271 2.052 . S
O277 C273 1.241 . S
O278 Co266 2.137 . S
O278 C269 1.247 . S
O279 Co266 2.244 . S
O279 C269 1.272 . S
O279 Co271 2.135 . S
Co280 O281 2.216 . S
Co280 O282 2.091 . S
Co280 O284 2.004 . S
Co280 O290 2.021 . S
Co280 O292 2.137 . S
Co280 O293 2.244 . S
O281 Co280 2.216 . S
O281 C288 1.247 . S
O282 Co280 2.091 . S
O282 C288 1.261 . S
C283 O292 1.247 . S
C283 O293 1.272 . S
O284 Co280 2.004 . S
O284 C289 1.259 . S
Co285 O286 2.061 . S
Co285 O291 2.052 . S
Co285 O293 2.135 . S
O286 Co285 2.061 . S
O286 C289 1.235 . S
C287 O290 1.238 . S
C287 O291 1.241 . S
C288 O281 1.247 . S
C288 O282 1.261 . S
C289 O284 1.259 . S
C289 O286 1.235 . S
O290 Co280 2.021 . S
O290 C287 1.238 . S
O291 Co285 2.052 . S
O291 C287 1.241 . S
O292 Co280 2.137 . S
O292 C283 1.247 . S
O293 Co280 2.244 . S
O293 C283 1.272 . S
O293 Co285 2.135 . S
Co294 O295 2.216 . S
Co294 O296 2.091 . S
Co294 O298 2.004 . S
Co294 O304 2.021 . S
Co294 O306 2.137 . S
Co294 O307 2.244 . S
O295 Co294 2.216 . S
O295 C302 1.247 . S
O296 Co294 2.091 . S
O296 C302 1.261 . S
C297 O306 1.247 . S
C297 O307 1.272 . S
O298 Co294 2.004 . S
O298 C303 1.259 . S
Co299 O300 2.061 . S
Co299 O305 2.052 . S
Co299 O307 2.135 . S
O300 Co299 2.061 . S
O300 C303 1.235 . S
C301 O304 1.238 . S
C301 O305 1.241 . S
C302 O295 1.247 . S
C302 O296 1.261 . S
C303 O298 1.259 . S
C303 O300 1.235 . S
O304 Co294 2.021 . S
O304 C301 1.238 . S
O305 Co299 2.052 . S
O305 C301 1.241 . S
O306 Co294 2.137 . S
O306 C297 1.247 . S
O307 Co294 2.244 . S
O307 C297 1.272 . S
O307 Co299 2.135 . S
Co308 O309 2.216 . S
Co308 O310 2.091 . S
Co308 O312 2.004 . S
Co308 O318 2.021 . S
Co308 O320 2.137 . S
Co308 O321 2.244 . S
O309 Co308 2.216 . S
O309 C316 1.247 . S
O310 Co308 2.091 . S
O310 C316 1.261 . S
C311 O320 1.247 . S
C311 O321 1.272 . S
O312 Co308 2.004 . S
O312 C317 1.259 . S
Co313 O314 2.061 . S
Co313 O319 2.052 . S
Co313 O321 2.135 . S
O314 Co313 2.061 . S
O314 C317 1.235 . S
C315 O318 1.238 . S
C315 O319 1.241 . S
C316 O309 1.247 . S
C316 O310 1.261 . S
C317 O312 1.259 . S
C317 O314 1.235 . S
O318 Co308 2.021 . S
O318 C315 1.238 . S
O319 Co313 2.052 . S
O319 C315 1.241 . S
O320 Co308 2.137 . S
O320 C311 1.247 . S
O321 Co308 2.244 . S
O321 C311 1.272 . S
O321 Co313 2.135 . S
Co322 O323 2.216 . S
Co322 O324 2.091 . S
Co322 O326 2.004 . S
Co322 O332 2.021 . S
Co322 O334 2.137 . S
Co322 O335 2.244 . S
O323 Co322 2.216 . S
O323 C330 1.247 . S
O324 Co322 2.091 . S
O324 C330 1.261 . S
C325 O334 1.247 . S
C325 O335 1.272 . S
O326 Co322 2.004 . S
O326 C331 1.259 . S
Co327 O328 2.061 . S
Co327 O333 2.052 . S
Co327 O335 2.135 . S
O328 Co327 2.061 . S
O328 C331 1.235 . S
C329 O332 1.238 . S
C329 O333 1.241 . S
C330 O323 1.247 . S
C330 O324 1.261 . S
C331 O326 1.259 . S
C331 O328 1.235 . S
O332 Co322 2.021 . S
O332 C329 1.238 . S
O333 Co327 2.052 . S
O333 C329 1.241 . S
O334 Co322 2.137 . S
O334 C325 1.247 . S
O335 Co322 2.244 . S
O335 C325 1.272 . S
O335 Co327 2.135 . S
Co336 O337 2.216 . S
Co336 O338 2.091 . S
Co336 O340 2.004 . S
Co336 O346 2.021 . S
Co336 O348 2.137 . S
Co336 O349 2.244 . S
O337 Co336 2.216 . S
O337 C344 1.247 . S
O338 Co336 2.091 . S
O338 C344 1.261 . S
C339 O348 1.247 . S
C339 O349 1.272 . S
O340 Co336 2.004 . S
O340 C345 1.259 . S
Co341 O342 2.061 . S
Co341 O347 2.052 . S
Co341 O349 2.135 . S
O342 Co341 2.061 . S
O342 C345 1.235 . S
C343 O346 1.238 . S
C343 O347 1.241 . S
C344 O337 1.247 . S
C344 O338 1.261 . S
C345 O340 1.259 . S
C345 O342 1.235 . S
O346 Co336 2.021 . S
O346 C343 1.238 . S
O347 Co341 2.052 . S
O347 C343 1.241 . S
O348 Co336 2.137 . S
O348 C339 1.247 . S
O349 Co336 2.244 . S
O349 C339 1.272 . S
O349 Co341 2.135 . S
Co350 O351 2.216 . S
Co350 O352 2.091 . S
Co350 O354 2.004 . S
Co350 O360 2.021 . S
Co350 O362 2.137 . S
Co350 O363 2.244 . S
O351 Co350 2.216 . S
O351 C358 1.247 . S
O352 Co350 2.091 . S
O352 C358 1.261 . S
C353 O362 1.247 . S
C353 O363 1.272 . S
O354 Co350 2.004 . S
O354 C359 1.259 . S
Co355 O356 2.061 . S
Co355 O361 2.052 . S
Co355 O363 2.135 . S
O356 Co355 2.061 . S
O356 C359 1.235 . S
C357 O360 1.238 . S
C357 O361 1.241 . S
C358 O351 1.247 . S
C358 O352 1.261 . S
C359 O354 1.259 . S
C359 O356 1.235 . S
O360 Co350 2.021 . S
O360 C357 1.238 . S
O361 Co355 2.052 . S
O361 C357 1.241 . S
O362 Co350 2.137 . S
O362 C353 1.247 . S
O363 Co350 2.244 . S
O363 C353 1.272 . S
O363 Co355 2.135 . S
Co364 O365 2.216 . S
Co364 O366 2.091 . S
Co364 O368 2.004 . S
Co364 O374 2.021 . S
Co364 O376 2.137 . S
Co364 O377 2.244 . S
O365 Co364 2.216 . S
O365 C372 1.247 . S
O366 Co364 2.091 . S
O366 C372 1.261 . S
C367 O376 1.247 . S
C367 O377 1.272 . S
O368 Co364 2.004 . S
O368 C373 1.259 . S
Co369 O370 2.061 . S
Co369 O375 2.052 . S
Co369 O377 2.135 . S
O370 Co369 2.061 . S
O370 C373 1.235 . S
C371 O374 1.238 . S
C371 O375 1.241 . S
C372 O365 1.247 . S
C372 O366 1.261 . S
C373 O368 1.259 . S
C373 O370 1.235 . S
O374 Co364 2.021 . S
O374 C371 1.238 . S
O375 Co369 2.052 . S
O375 C371 1.241 . S
O376 Co364 2.137 . S
O376 C367 1.247 . S
O377 Co364 2.244 . S
O377 C367 1.272 . S
O377 Co369 2.135 . S
Co378 O379 2.216 . S
Co378 O380 2.091 . S
Co378 O382 2.004 . S
Co378 O388 2.021 . S
Co378 O390 2.137 . S
Co378 O391 2.244 . S
O379 Co378 2.216 . S
O379 C386 1.247 . S
O380 Co378 2.091 . S
O380 C386 1.261 . S
C381 O390 1.247 . S
C381 O391 1.272 . S
O382 Co378 2.004 . S
O382 C387 1.259 . S
Co383 O384 2.061 . S
Co383 O389 2.052 . S
Co383 O391 2.135 . S
O384 Co383 2.061 . S
O384 C387 1.235 . S
C385 O388 1.238 . S
C385 O389 1.241 . S
C386 O379 1.247 . S
C386 O380 1.261 . S
C387 O382 1.259 . S
C387 O384 1.235 . S
O388 Co378 2.021 . S
O388 C385 1.238 . S
O389 Co383 2.052 . S
O389 C385 1.241 . S
O390 Co378 2.137 . S
O390 C381 1.247 . S
O391 Co378 2.244 . S
O391 C381 1.272 . S
O391 Co383 2.135 . S
Co392 O393 2.216 . S
Co392 O394 2.091 . S
Co392 O396 2.004 . S
Co392 O402 2.021 . S
Co392 O404 2.137 . S
Co392 O405 2.244 . S
O393 Co392 2.216 . S
O393 C400 1.247 . S
O394 Co392 2.091 . S
O394 C400 1.261 . S
C395 O404 1.247 . S
C395 O405 1.272 . S
O396 Co392 2.004 . S
O396 C401 1.259 . S
Co397 O398 2.061 . S
Co397 O403 2.052 . S
Co397 O405 2.135 . S
O398 Co397 2.061 . S
O398 C401 1.235 . S
C399 O402 1.238 . S
C399 O403 1.241 . S
C400 O393 1.247 . S
C400 O394 1.261 . S
C401 O396 1.259 . S
C401 O398 1.235 . S
O402 Co392 2.021 . S
O402 C399 1.238 . S
O403 Co397 2.052 . S
O403 C399 1.241 . S
O404 Co392 2.137 . S
O404 C395 1.247 . S
O405 Co392 2.244 . S
O405 C395 1.272 . S
O405 Co397 2.135 . S
Co406 O407 2.216 . S
Co406 O408 2.091 . S
Co406 O410 2.004 . S
Co406 O416 2.021 . S
Co406 O418 2.137 . S
Co406 O419 2.244 . S
O407 Co406 2.216 . S
O407 C414 1.247 . S
O408 Co406 2.091 . S
O408 C414 1.261 . S
C409 O418 1.247 . S
C409 O419 1.272 . S
O410 Co406 2.004 . S
O410 C415 1.259 . S
Co411 O412 2.061 . S
Co411 O417 2.052 . S
Co411 O419 2.135 . S
O412 Co411 2.061 . S
O412 C415 1.235 . S
C413 O416 1.238 . S
C413 O417 1.241 . S
C414 O407 1.247 . S
C414 O408 1.261 . S
C415 O410 1.259 . S
C415 O412 1.235 . S
O416 Co406 2.021 . S
O416 C413 1.238 . S
O417 Co411 2.052 . S
O417 C413 1.241 . S
O418 Co406 2.137 . S
O418 C409 1.247 . S
O419 Co406 2.244 . S
O419 C409 1.272 . S
O419 Co411 2.135 . S
Co420 O421 2.216 . S
Co420 O422 2.091 . S
Co420 O424 2.004 . S
Co420 O430 2.021 . S
Co420 O432 2.137 . S
Co420 O433 2.244 . S
O421 Co420 2.216 . S
O421 C428 1.247 . S
O422 Co420 2.091 . S
O422 C428 1.261 . S
C423 O432 1.247 . S
C423 O433 1.272 . S
O424 Co420 2.004 . S
O424 C429 1.259 . S
Co425 O426 2.061 . S
Co425 O431 2.052 . S
Co425 O433 2.135 . S
O426 Co425 2.061 . S
O426 C429 1.235 . S
C427 O430 1.238 . S
C427 O431 1.241 . S
C428 O421 1.247 . S
C428 O422 1.261 . S
C429 O424 1.259 . S
C429 O426 1.235 . S
O430 Co420 2.021 . S
O430 C427 1.238 . S
O431 Co425 2.052 . S
O431 C427 1.241 . S
O432 Co420 2.137 . S
O432 C423 1.247 . S
O433 Co420 2.244 . S
O433 C423 1.272 . S
O433 Co425 2.135 . S
Co434 O435 2.216 . S
Co434 O436 2.091 . S
Co434 O438 2.004 . S
Co434 O444 2.021 . S
Co434 O446 2.137 . S
Co434 O447 2.244 . S
O435 Co434 2.216 . S
O435 C442 1.247 . S
O436 Co434 2.091 . S
O436 C442 1.261 . S
C437 O446 1.247 . S
C437 O447 1.272 . S
O438 Co434 2.004 . S
O438 C443 1.259 . S
Co439 O440 2.061 . S
Co439 O445 2.052 . S
Co439 O447 2.135 . S
O440 Co439 2.061 . S
O440 C443 1.235 . S
C441 O444 1.238 . S
C441 O445 1.241 . S
C442 O435 1.247 . S
C442 O436 1.261 . S
C443 O438 1.259 . S
C443 O440 1.235 . S
O444 Co434 2.021 . S
O444 C441 1.238 . S
O445 Co439 2.052 . S
O445 C441 1.241 . S
O446 Co434 2.137 . S
O446 C437 1.247 . S
O447 Co434 2.244 . S
O447 C437 1.272 . S
O447 Co439 2.135 . S
Co448 O449 2.216 . S
Co448 O450 2.091 . S
Co448 O452 2.004 . S
Co448 O458 2.021 . S
Co448 O460 2.137 . S
Co448 O461 2.244 . S
O449 Co448 2.216 . S
O449 C456 1.247 . S
O450 Co448 2.091 . S
O450 C456 1.261 . S
C451 O460 1.247 . S
C451 O461 1.272 . S
O452 Co448 2.004 . S
O452 C457 1.259 . S
Co453 O454 2.061 . S
Co453 O459 2.052 . S
Co453 O461 2.135 . S
O454 Co453 2.061 . S
O454 C457 1.235 . S
C455 O458 1.238 . S
C455 O459 1.241 . S
C456 O449 1.247 . S
C456 O450 1.261 . S
C457 O452 1.259 . S
C457 O454 1.235 . S
O458 Co448 2.021 . S
O458 C455 1.238 . S
O459 Co453 2.052 . S
O459 C455 1.241 . S
O460 Co448 2.137 . S
O460 C451 1.247 . S
O461 Co448 2.244 . S
O461 C451 1.272 . S
O461 Co453 2.135 . S
Co462 O463 2.216 . S
Co462 O464 2.091 . S
Co462 O466 2.004 . S
Co462 O472 2.021 . S
Co462 O474 2.137 . S
Co462 O475 2.244 . S
O463 Co462 2.216 . S
O463 C470 1.247 . S
O464 Co462 2.091 . S
O464 C470 1.261 . S
C465 O474 1.247 . S
C465 O475 1.272 . S
O466 Co462 2.004 . S
O466 C471 1.259 . S
Co467 O468 2.061 . S
Co467 O473 2.052 . S
Co467 O475 2.135 . S
O468 Co467 2.061 . S
O468 C471 1.235 . S
C469 O472 1.238 . S
C469 O473 1.241 . S
C470 O463 1.247 . S
C470 O464 1.261 . S
C471 O466 1.259 . S
C471 O468 1.235 . S
O472 Co462 2.021 . S
O472 C469 1.238 . S
O473 Co467 2.052 . S
O473 C469 1.241 . S
O474 Co462 2.137 . S
O474 C465 1.247 . S
O475 Co462 2.244 . S
O475 C465 1.272 . S
O475 Co467 2.135 . S
Co476 O477 2.216 . S
Co476 O478 2.091 . S
Co476 O480 2.004 . S
Co476 O486 2.021 . S
Co476 O488 2.137 . S
Co476 O489 2.244 . S
O477 Co476 2.216 . S
O477 C484 1.247 . S
O478 Co476 2.091 . S
O478 C484 1.261 . S
C479 O488 1.247 . S
C479 O489 1.272 . S
O480 Co476 2.004 . S
O480 C485 1.259 . S
Co481 O482 2.061 . S
Co481 O487 2.052 . S
Co481 O489 2.135 . S
O482 Co481 2.061 . S
O482 C485 1.235 . S
C483 O486 1.238 . S
C483 O487 1.241 . S
C484 O477 1.247 . S
C484 O478 1.261 . S
C485 O480 1.259 . S
C485 O482 1.235 . S
O486 Co476 2.021 . S
O486 C483 1.238 . S
O487 Co481 2.052 . S
O487 C483 1.241 . S
O488 Co476 2.137 . S
O488 C479 1.247 . S
O489 Co476 2.244 . S
O489 C479 1.272 . S
O489 Co481 2.135 . S
Co490 O491 2.216 . S
Co490 O492 2.091 . S
Co490 O494 2.004 . S
Co490 O500 2.021 . S
Co490 O502 2.137 . S
Co490 O503 2.244 . S
O491 Co490 2.216 . S
O491 C498 1.247 . S
O492 Co490 2.091 . S
O492 C498 1.261 . S
C493 O502 1.247 . S
C493 O503 1.272 . S
O494 Co490 2.004 . S
O494 C499 1.259 . S
Co495 O496 2.061 . S
Co495 O501 2.052 . S
Co495 O503 2.135 . S
O496 Co495 2.061 . S
O496 C499 1.235 . S
C497 O500 1.238 . S
C497 O501 1.241 . S
C498 O491 1.247 . S
C498 O492 1.261 . S
C499 O494 1.259 . S
C499 O496 1.235 . S
O500 Co490 2.021 . S
O500 C497 1.238 . S
O501 Co495 2.052 . S
O501 C497 1.241 . S
O502 Co490 2.137 . S
O502 C493 1.247 . S
O503 Co490 2.244 . S
O503 C493 1.272 . S
O503 Co495 2.135 . S
Co504 O505 2.216 . S
Co504 O506 2.091 . S
Co504 O508 2.004 . S
Co504 O514 2.021 . S
Co504 O516 2.137 . S
Co504 O517 2.244 . S
O505 Co504 2.216 . S
O505 C512 1.247 . S
O506 Co504 2.091 . S
O506 C512 1.261 . S
C507 O516 1.247 . S
C507 O517 1.272 . S
O508 Co504 2.004 . S
O508 C513 1.259 . S
Co509 O510 2.061 . S
Co509 O515 2.052 . S
Co509 O517 2.135 . S
O510 Co509 2.061 . S
O510 C513 1.235 . S
C511 O514 1.238 . S
C511 O515 1.241 . S
C512 O505 1.247 . S
C512 O506 1.261 . S
C513 O508 1.259 . S
C513 O510 1.235 . S
O514 Co504 2.021 . S
O514 C511 1.238 . S
O515 Co509 2.052 . S
O515 C511 1.241 . S
O516 Co504 2.137 . S
O516 C507 1.247 . S
O517 Co504 2.244 . S
O517 C507 1.272 . S
O517 Co509 2.135 . S
Co518 O519 2.216 . S
Co518 O520 2.091 . S
Co518 O522 2.004 . S
Co518 O528 2.021 . S
Co518 O530 2.137 . S
Co518 O531 2.244 . S
O519 Co518 2.216 . S
O519 C526 1.247 . S
O520 Co518 2.091 . S
O520 C526 1.261 . S
C521 O530 1.247 . S
C521 O531 1.272 . S
O522 Co518 2.004 . S
O522 C527 1.259 . S
Co523 O524 2.061 . S
Co523 O529 2.052 . S
Co523 O531 2.135 . S
O524 Co523 2.061 . S
O524 C527 1.235 . S
C525 O528 1.238 . S
C525 O529 1.241 . S
C526 O519 1.247 . S
C526 O520 1.261 . S
C527 O522 1.259 . S
C527 O524 1.235 . S
O528 Co518 2.021 . S
O528 C525 1.238 . S
O529 Co523 2.052 . S
O529 C525 1.241 . S
O530 Co518 2.137 . S
O530 C521 1.247 . S
O531 Co518 2.244 . S
O531 C521 1.272 . S
O531 Co523 2.135 . S
Co532 O533 2.216 . S
Co532 O534 2.091 . S
Co532 O536 2.004 . S
Co532 O542 2.021 . S
Co532 O544 2.137 . S
Co532 O545 2.244 . S
O533 Co532 2.216 . S
O533 C540 1.247 . S
O534 Co532 2.091 . S
O534 C540 1.261 . S
C535 O544 1.247 . S
C535 O545 1.272 . S
O536 Co532 2.004 . S
O536 C541 1.259 . S
Co537 O538 2.061 . S
Co537 O543 2.052 . S
Co537 O545 2.135 . S
O538 Co537 2.061 . S
O538 C541 1.235 . S
C539 O542 1.238 . S
C539 O543 1.241 . S
C540 O533 1.247 . S
C540 O534 1.261 . S
C541 O536 1.259 . S
C541 O538 1.235 . S
O542 Co532 2.021 . S
O542 C539 1.238 . S
O543 Co537 2.052 . S
O543 C539 1.241 . S
O544 Co532 2.137 . S
O544 C535 1.247 . S
O545 Co532 2.244 . S
O545 C535 1.272 . S
O545 Co537 2.135 . S
Co546 O547 2.216 . S
Co546 O548 2.091 . S
Co546 O550 2.004 . S
Co546 O556 2.021 . S
Co546 O558 2.137 . S
Co546 O559 2.244 . S
O547 Co546 2.216 . S
O547 C554 1.247 . S
O548 Co546 2.091 . S
O548 C554 1.261 . S
C549 O558 1.247 . S
C549 O559 1.272 . S
O550 Co546 2.004 . S
O550 C555 1.259 . S
Co551 O552 2.061 . S
Co551 O557 2.052 . S
Co551 O559 2.135 . S
O552 Co551 2.061 . S
O552 C555 1.235 . S
C553 O556 1.238 . S
C553 O557 1.241 . S
C554 O547 1.247 . S
C554 O548 1.261 . S
C555 O550 1.259 . S
C555 O552 1.235 . S
O556 Co546 2.021 . S
O556 C553 1.238 . S
O557 Co551 2.052 . S
O557 C553 1.241 . S
O558 Co546 2.137 . S
O558 C549 1.247 . S
O559 Co546 2.244 . S
O559 C549 1.272 . S
O559 Co551 2.135 . S
Co560 O561 2.216 . S
Co560 O562 2.091 . S
Co560 O564 2.004 . S
Co560 O570 2.021 . S
Co560 O572 2.137 . S
Co560 O573 2.244 . S
O561 Co560 2.216 . S
O561 C568 1.247 . S
O562 Co560 2.091 . S
O562 C568 1.261 . S
C563 O572 1.247 . S
C563 O573 1.272 . S
O564 Co560 2.004 . S
O564 C569 1.259 . S
Co565 O566 2.061 . S
Co565 O571 2.052 . S
Co565 O573 2.135 . S
O566 Co565 2.061 . S
O566 C569 1.235 . S
C567 O570 1.238 . S
C567 O571 1.241 . S
C568 O561 1.247 . S
C568 O562 1.261 . S
C569 O564 1.259 . S
C569 O566 1.235 . S
O570 Co560 2.021 . S
O570 C567 1.238 . S
O571 Co565 2.052 . S
O571 C567 1.241 . S
O572 Co560 2.137 . S
O572 C563 1.247 . S
O573 Co560 2.244 . S
O573 C563 1.272 . S
O573 Co565 2.135 . S
Co574 O575 2.216 . S
Co574 O576 2.091 . S
Co574 O578 2.004 . S
Co574 O584 2.021 . S
Co574 O586 2.137 . S
Co574 O587 2.244 . S
O575 Co574 2.216 . S
O575 C582 1.247 . S
O576 Co574 2.091 . S
O576 C582 1.261 . S
C577 O586 1.247 . S
C577 O587 1.272 . S
O578 Co574 2.004 . S
O578 C583 1.259 . S
Co579 O580 2.061 . S
Co579 O585 2.052 . S
Co579 O587 2.135 . S
O580 Co579 2.061 . S
O580 C583 1.235 . S
C581 O584 1.238 . S
C581 O585 1.241 . S
C582 O575 1.247 . S
C582 O576 1.261 . S
C583 O578 1.259 . S
C583 O580 1.235 . S
O584 Co574 2.021 . S
O584 C581 1.238 . S
O585 Co579 2.052 . S
O585 C581 1.241 . S
O586 Co574 2.137 . S
O586 C577 1.247 . S
O587 Co574 2.244 . S
O587 C577 1.272 . S
O587 Co579 2.135 . S
Co588 O589 2.216 . S
Co588 O590 2.091 . S
Co588 O592 2.004 . S
Co588 O598 2.021 . S
Co588 O600 2.137 . S
Co588 O601 2.244 . S
O589 Co588 2.216 . S
O589 C596 1.247 . S
O590 Co588 2.091 . S
O590 C596 1.261 . S
C591 O600 1.247 . S
C591 O601 1.272 . S
O592 Co588 2.004 . S
O592 C597 1.259 . S
Co593 O594 2.061 . S
Co593 O599 2.052 . S
Co593 O601 2.135 . S
O594 Co593 2.061 . S
O594 C597 1.235 . S
C595 O598 1.238 . S
C595 O599 1.241 . S
C596 O589 1.247 . S
C596 O590 1.261 . S
C597 O592 1.259 . S
C597 O594 1.235 . S
O598 Co588 2.021 . S
O598 C595 1.238 . S
O599 Co593 2.052 . S
O599 C595 1.241 . S
O600 Co588 2.137 . S
O600 C591 1.247 . S
O601 Co588 2.244 . S
O601 C591 1.272 . S
O601 Co593 2.135 . S
Co602 O603 2.216 . S
Co602 O604 2.091 . S
Co602 O606 2.004 . S
Co602 O612 2.021 . S
Co602 O614 2.137 . S
Co602 O615 2.244 . S
O603 Co602 2.216 . S
O603 C610 1.247 . S
O604 Co602 2.091 . S
O604 C610 1.261 . S
C605 O614 1.247 . S
C605 O615 1.272 . S
O606 Co602 2.004 . S
O606 C611 1.259 . S
Co607 O608 2.061 . S
Co607 O613 2.052 . S
Co607 O615 2.135 . S
O608 Co607 2.061 . S
O608 C611 1.235 . S
C609 O612 1.238 . S
C609 O613 1.241 . S
C610 O603 1.247 . S
C610 O604 1.261 . S
C611 O606 1.259 . S
C611 O608 1.235 . S
O612 Co602 2.021 . S
O612 C609 1.238 . S
O613 Co607 2.052 . S
O613 C609 1.241 . S
O614 Co602 2.137 . S
O614 C605 1.247 . S
O615 Co602 2.244 . S
O615 C605 1.272 . S
O615 Co607 2.135 . S
Co616 O617 2.216 . S
Co616 O618 2.091 . S
Co616 O620 2.004 . S
Co616 O626 2.021 . S
Co616 O628 2.137 . S
Co616 O629 2.244 . S
O617 Co616 2.216 . S
O617 C624 1.247 . S
O618 Co616 2.091 . S
O618 C624 1.261 . S
C619 O628 1.247 . S
C619 O629 1.272 . S
O620 Co616 2.004 . S
O620 C625 1.259 . S
Co621 O622 2.061 . S
Co621 O627 2.052 . S
Co621 O629 2.135 . S
O622 Co621 2.061 . S
O622 C625 1.235 . S
C623 O626 1.238 . S
C623 O627 1.241 . S
C624 O617 1.247 . S
C624 O618 1.261 . S
C625 O620 1.259 . S
C625 O622 1.235 . S
O626 Co616 2.021 . S
O626 C623 1.238 . S
O627 Co621 2.052 . S
O627 C623 1.241 . S
O628 Co616 2.137 . S
O628 C619 1.247 . S
O629 Co616 2.244 . S
O629 C619 1.272 . S
O629 Co621 2.135 . S
Co630 O631 2.216 . S
Co630 O632 2.091 . S
Co630 O634 2.004 . S
Co630 O640 2.021 . S
Co630 O642 2.137 . S
Co630 O643 2.244 . S
O631 Co630 2.216 . S
O631 C638 1.247 . S
O632 Co630 2.091 . S
O632 C638 1.261 . S
C633 O642 1.247 . S
C633 O643 1.272 . S
O634 Co630 2.004 . S
O634 C639 1.259 . S
Co635 O636 2.061 . S
Co635 O641 2.052 . S
Co635 O643 2.135 . S
O636 Co635 2.061 . S
O636 C639 1.235 . S
C637 O640 1.238 . S
C637 O641 1.241 . S
C638 O631 1.247 . S
C638 O632 1.261 . S
C639 O634 1.259 . S
C639 O636 1.235 . S
O640 Co630 2.021 . S
O640 C637 1.238 . S
O641 Co635 2.052 . S
O641 C637 1.241 . S
O642 Co630 2.137 . S
O642 C633 1.247 . S
O643 Co630 2.244 . S
O643 C633 1.272 . S
O643 Co635 2.135 . S
Co644 O645 2.216 . S
Co644 O646 2.091 . S
Co644 O648 2.004 . S
Co644 O654 2.021 . S
Co644 O656 2.137 . S
Co644 O657 2.244 . S
O645 Co644 2.216 . S
O645 C652 1.247 . S
O646 Co644 2.091 . S
O646 C652 1.261 . S
C647 O656 1.247 . S
C647 O657 1.272 . S
O648 Co644 2.004 . S
O648 C653 1.259 . S
Co649 O650 2.061 . S
Co649 O655 2.052 . S
Co649 O657 2.135 . S
O650 Co649 2.061 . S
O650 C653 1.235 . S
C651 O654 1.238 . S
C651 O655 1.241 . S
C652 O645 1.247 . S
C652 O646 1.261 . S
C653 O648 1.259 . S
C653 O650 1.235 . S
O654 Co644 2.021 . S
O654 C651 1.238 . S
O655 Co649 2.052 . S
O655 C651 1.241 . S
O656 Co644 2.137 . S
O656 C647 1.247 . S
O657 Co644 2.244 . S
O657 C647 1.272 . S
O657 Co649 2.135 . S
Co658 O659 2.216 . S
Co658 O660 2.091 . S
Co658 O662 2.004 . S
Co658 O668 2.021 . S
Co658 O670 2.137 . S
Co658 O671 2.244 . S
O659 Co658 2.216 . S
O659 C666 1.247 . S
O660 Co658 2.091 . S
O660 C666 1.261 . S
C661 O670 1.247 . S
C661 O671 1.272 . S
O662 Co658 2.004 . S
O662 C667 1.259 . S
Co663 O664 2.061 . S
Co663 O669 2.052 . S
Co663 O671 2.135 . S
O664 Co663 2.061 . S
O664 C667 1.235 . S
C665 O668 1.238 . S
C665 O669 1.241 . S
C666 O659 1.247 . S
C666 O660 1.261 . S
C667 O662 1.259 . S
C667 O664 1.235 . S
O668 Co658 2.021 . S
O668 C665 1.238 . S
O669 Co663 2.052 . S
O669 C665 1.241 . S
O670 Co658 2.137 . S
O670 C661 1.247 . S
O671 Co658 2.244 . S
O671 C661 1.272 . S
O671 Co663 2.135 . S
Co672 O673 2.216 . S
Co672 O674 2.091 . S
Co672 O676 2.004 . S
Co672 O682 2.021 . S
Co672 O684 2.137 . S
Co672 O685 2.244 . S
O673 Co672 2.216 . S
O673 C680 1.247 . S
O674 Co672 2.091 . S
O674 C680 1.261 . S
C675 O684 1.247 . S
C675 O685 1.272 . S
O676 Co672 2.004 . S
O676 C681 1.259 . S
Co677 O678 2.061 . S
Co677 O683 2.052 . S
Co677 O685 2.135 . S
O678 Co677 2.061 . S
O678 C681 1.235 . S
C679 O682 1.238 . S
C679 O683 1.241 . S
C680 O673 1.247 . S
C680 O674 1.261 . S
C681 O676 1.259 . S
C681 O678 1.235 . S
O682 Co672 2.021 . S
O682 C679 1.238 . S
O683 Co677 2.052 . S
O683 C679 1.241 . S
O684 Co672 2.137 . S
O684 C675 1.247 . S
O685 Co672 2.244 . S
O685 C675 1.272 . S
O685 Co677 2.135 . S
Co686 O687 2.216 . S
Co686 O688 2.091 . S
Co686 O690 2.004 . S
Co686 O696 2.021 . S
Co686 O698 2.137 . S
Co686 O699 2.244 . S
O687 Co686 2.216 . S
O687 C694 1.247 . S
O688 Co686 2.091 . S
O688 C694 1.261 . S
C689 O698 1.247 . S
C689 O699 1.272 . S
O690 Co686 2.004 . S
O690 C695 1.259 . S
Co691 O692 2.061 . S
Co691 O697 2.052 . S
Co691 O699 2.135 . S
O692 Co691 2.061 . S
O692 C695 1.235 . S
C693 O696 1.238 . S
C693 O697 1.241 . S
C694 O687 1.247 . S
C694 O688 1.261 . S
C695 O690 1.259 . S
C695 O692 1.235 . S
O696 Co686 2.021 . S
O696 C693 1.238 . S
O697 Co691 2.052 . S
O697 C693 1.241 . S
O698 Co686 2.137 . S
O698 C689 1.247 . S
O699 Co686 2.244 . S
O699 C689 1.272 . S
O699 Co691 2.135 . S
Co700 O701 2.216 . S
Co700 O702 2.091 . S
Co700 O704 2.004 . S
Co700 O710 2.021 . S
Co700 O712 2.137 . S
Co700 O713 2.244 . S
O701 Co700 2.216 . S
O701 C708 1.247 . S
O702 Co700 2.091 . S
O702 C708 1.261 . S
C703 O712 1.247 . S
C703 O713 1.272 . S
O704 Co700 2.004 . S
O704 C709 1.259 . S
Co705 O706 2.061 . S
Co705 O711 2.052 . S
Co705 O713 2.135 . S
O706 Co705 2.061 . S
O706 C709 1.235 . S
C707 O710 1.238 . S
C707 O711 1.241 . S
C708 O701 1.247 . S
C708 O702 1.261 . S
C709 O704 1.259 . S
C709 O706 1.235 . S
O710 Co700 2.021 . S
O710 C707 1.238 . S
O711 Co705 2.052 . S
O711 C707 1.241 . S
O712 Co700 2.137 . S
O712 C703 1.247 . S
O713 Co700 2.244 . S
O713 C703 1.272 . S
O713 Co705 2.135 . S
Co714 O715 2.216 . S
Co714 O716 2.091 . S
Co714 O718 2.004 . S
Co714 O724 2.021 . S
Co714 O726 2.137 . S
Co714 O727 2.244 . S
O715 Co714 2.216 . S
O715 C722 1.247 . S
O716 Co714 2.091 . S
O716 C722 1.261 . S
C717 O726 1.247 . S
C717 O727 1.272 . S
O718 Co714 2.004 . S
O718 C723 1.259 . S
Co719 O720 2.061 . S
Co719 O725 2.052 . S
Co719 O727 2.135 . S
O720 Co719 2.061 . S
O720 C723 1.235 . S
C721 O724 1.238 . S
C721 O725 1.241 . S
C722 O715 1.247 . S
C722 O716 1.261 . S
C723 O718 1.259 . S
C723 O720 1.235 . S
O724 Co714 2.021 . S
O724 C721 1.238 . S
O725 Co719 2.052 . S
O725 C721 1.241 . S
O726 Co714 2.137 . S
O726 C717 1.247 . S
O727 Co714 2.244 . S
O727 C717 1.272 . S
O727 Co719 2.135 . S
Co728 O729 2.216 . S
Co728 O730 2.091 . S
Co728 O732 2.004 . S
Co728 O738 2.021 . S
Co728 O740 2.137 . S
Co728 O741 2.244 . S
O729 Co728 2.216 . S
O729 C736 1.247 . S
O730 Co728 2.091 . S
O730 C736 1.261 . S
C731 O740 1.247 . S
C731 O741 1.272 . S
O732 Co728 2.004 . S
O732 C737 1.259 . S
Co733 O734 2.061 . S
Co733 O739 2.052 . S
Co733 O741 2.135 . S
O734 Co733 2.061 . S
O734 C737 1.235 . S
C735 O738 1.238 . S
C735 O739 1.241 . S
C736 O729 1.247 . S
C736 O730 1.261 . S
C737 O732 1.259 . S
C737 O734 1.235 . S
O738 Co728 2.021 . S
O738 C735 1.238 . S
O739 Co733 2.052 . S
O739 C735 1.241 . S
O740 Co728 2.137 . S
O740 C731 1.247 . S
O741 Co728 2.244 . S
O741 C731 1.272 . S
O741 Co733 2.135 . S
Co742 O743 2.216 . S
Co742 O744 2.091 . S
Co742 O746 2.004 . S
Co742 O752 2.021 . S
Co742 O754 2.137 . S
Co742 O755 2.244 . S
O743 Co742 2.216 . S
O743 C750 1.247 . S
O744 Co742 2.091 . S
O744 C750 1.261 . S
C745 O754 1.247 . S
C745 O755 1.272 . S
O746 Co742 2.004 . S
O746 C751 1.259 . S
Co747 O748 2.061 . S
Co747 O753 2.052 . S
Co747 O755 2.135 . S
O748 Co747 2.061 . S
O748 C751 1.235 . S
C749 O752 1.238 . S
C749 O753 1.241 . S
C750 O743 1.247 . S
C750 O744 1.261 . S
C751 O746 1.259 . S
C751 O748 1.235 . S
O752 Co742 2.021 . S
O752 C749 1.238 . S
O753 Co747 2.052 . S
O753 C749 1.241 . S
O754 Co742 2.137 . S
O754 C745 1.247 . S
O755 Co742 2.244 . S
O755 C745 1.272 . S
O755 Co747 2.135 . S
Co756 O757 2.216 . S
Co756 O758 2.091 . S
Co756 O760 2.004 . S
Co756 O766 2.021 . S
Co756 O768 2.137 . S
Co756 O769 2.244 . S
O757 Co756 2.216 . S
O757 C764 1.247 . S
O758 Co756 2.091 . S
O758 C764 1.261 . S
C759 O768 1.247 . S
C759 O769 1.272 . S
O760 Co756 2.004 . S
O760 C765 1.259 . S
Co761 O762 2.061 . S
Co761 O767 2.052 . S
Co761 O769 2.135 . S
O762 Co761 2.061 . S
O762 C765 1.235 . S
C763 O766 1.238 . S
C763 O767 1.241 . S
C764 O757 1.247 . S
C764 O758 1.261 . S
C765 O760 1.259 . S
C765 O762 1.235 . S
O766 Co756 2.021 . S
O766 C763 1.238 . S
O767 Co761 2.052 . S
O767 C763 1.241 . S
O768 Co756 2.137 . S
O768 C759 1.247 . S
O769 Co756 2.244 . S
O769 C759 1.272 . S
O769 Co761 2.135 . S
Co770 O771 2.216 . S
Co770 O772 2.091 . S
Co770 O774 2.004 . S
Co770 O780 2.021 . S
Co770 O782 2.137 . S
Co770 O783 2.244 . S
O771 Co770 2.216 . S
O771 C778 1.247 . S
O772 Co770 2.091 . S
O772 C778 1.261 . S
C773 O782 1.247 . S
C773 O783 1.272 . S
O774 Co770 2.004 . S
O774 C779 1.259 . S
Co775 O776 2.061 . S
Co775 O781 2.052 . S
Co775 O783 2.135 . S
O776 Co775 2.061 . S
O776 C779 1.235 . S
C777 O780 1.238 . S
C777 O781 1.241 . S
C778 O771 1.247 . S
C778 O772 1.261 . S
C779 O774 1.259 . S
C779 O776 1.235 . S
O780 Co770 2.021 . S
O780 C777 1.238 . S
O781 Co775 2.052 . S
O781 C777 1.241 . S
O782 Co770 2.137 . S
O782 C773 1.247 . S
O783 Co770 2.244 . S
O783 C773 1.272 . S
O783 Co775 2.135 . S
Co784 O785 2.216 . S
Co784 O786 2.091 . S
Co784 O788 2.004 . S
Co784 O794 2.021 . S
Co784 O796 2.137 . S
Co784 O797 2.244 . S
O785 Co784 2.216 . S
O785 C792 1.247 . S
O786 Co784 2.091 . S
O786 C792 1.261 . S
C787 O796 1.247 . S
C787 O797 1.272 . S
O788 Co784 2.004 . S
O788 C793 1.259 . S
Co789 O790 2.061 . S
Co789 O795 2.052 . S
Co789 O797 2.135 . S
O790 Co789 2.061 . S
O790 C793 1.235 . S
C791 O794 1.238 . S
C791 O795 1.241 . S
C792 O785 1.247 . S
C792 O786 1.261 . S
C793 O788 1.259 . S
C793 O790 1.235 . S
O794 Co784 2.021 . S
O794 C791 1.238 . S
O795 Co789 2.052 . S
O795 C791 1.241 . S
O796 Co784 2.137 . S
O796 C787 1.247 . S
O797 Co784 2.244 . S
O797 C787 1.272 . S
O797 Co789 2.135 . S
Co798 O799 2.216 . S
Co798 O800 2.091 . S
Co798 O802 2.004 . S
Co798 O808 2.021 . S
Co798 O810 2.137 . S
Co798 O811 2.244 . S
O799 Co798 2.216 . S
O799 C806 1.247 . S
O800 Co798 2.091 . S
O800 C806 1.261 . S
C801 O810 1.247 . S
C801 O811 1.272 . S
O802 Co798 2.004 . S
O802 C807 1.259 . S
Co803 O804 2.061 . S
Co803 O809 2.052 . S
Co803 O811 2.135 . S
O804 Co803 2.061 . S
O804 C807 1.235 . S
C805 O808 1.238 . S
C805 O809 1.241 . S
C806 O799 1.247 . S
C806 O800 1.261 . S
C807 O802 1.259 . S
C807 O804 1.235 . S
O808 Co798 2.021 . S
O808 C805 1.238 . S
O809 Co803 2.052 . S
O809 C805 1.241 . S
O810 Co798 2.137 . S
O810 C801 1.247 . S
O811 Co798 2.244 . S
O811 C801 1.272 . S
O811 Co803 2.135 . S
Co812 O813 2.216 . S
Co812 O814 2.091 . S
Co812 O816 2.004 . S
Co812 O822 2.021 . S
Co812 O824 2.137 . S
Co812 O825 2.244 . S
O813 Co812 2.216 . S
O813 C820 1.247 . S
O814 Co812 2.091 . S
O814 C820 1.261 . S
C815 O824 1.247 . S
C815 O825 1.272 . S
O816 Co812 2.004 . S
O816 C821 1.259 . S
Co817 O818 2.061 . S
Co817 O823 2.052 . S
Co817 O825 2.135 . S
O818 Co817 2.061 . S
O818 C821 1.235 . S
C819 O822 1.238 . S
C819 O823 1.241 . S
C820 O813 1.247 . S
C820 O814 1.261 . S
C821 O816 1.259 . S
C821 O818 1.235 . S
O822 Co812 2.021 . S
O822 C819 1.238 . S
O823 Co817 2.052 . S
O823 C819 1.241 . S
O824 Co812 2.137 . S
O824 C815 1.247 . S
O825 Co812 2.244 . S
O825 C815 1.272 . S
O825 Co817 2.135 . S
Co826 O827 2.216 . S
Co826 O828 2.091 . S
Co826 O830 2.004 . S
Co826 O836 2.021 . S
Co826 O838 2.137 . S
Co826 O839 2.244 . S
O827 Co826 2.216 . S
O827 C834 1.247 . S
O828 Co826 2.091 . S
O828 C834 1.261 . S
C829 O838 1.247 . S
C829 O839 1.272 . S
O830 Co826 2.004 . S
O830 C835 1.259 . S
Co831 O832 2.061 . S
Co831 O837 2.052 . S
Co831 O839 2.135 . S
O832 Co831 2.061 . S
O832 C835 1.235 . S
C833 O836 1.238 . S
C833 O837 1.241 . S
C834 O827 1.247 . S
C834 O828 1.261 . S
C835 O830 1.259 . S
C835 O832 1.235 . S
O836 Co826 2.021 . S
O836 C833 1.238 . S
O837 Co831 2.052 . S
O837 C833 1.241 . S
O838 Co826 2.137 . S
O838 C829 1.247 . S
O839 Co826 2.244 . S
O839 C829 1.272 . S
O839 Co831 2.135 . S
Co840 O841 2.216 . S
Co840 O842 2.091 . S
Co840 O844 2.004 . S
Co840 O850 2.021 . S
Co840 O852 2.137 . S
Co840 O853 2.244 . S
O841 Co840 2.216 . S
O841 C848 1.247 . S
O842 Co840 2.091 . S
O842 C848 1.261 . S
C843 O852 1.247 . S
C843 O853 1.272 . S
O844 Co840 2.004 . S
O844 C849 1.259 . S
Co845 O846 2.061 . S
Co845 O851 2.052 . S
Co845 O853 2.135 . S
O846 Co845 2.061 . S
O846 C849 1.235 . S
C847 O850 1.238 . S
C847 O851 1.241 . S
C848 O841 1.247 . S
C848 O842 1.261 . S
C849 O844 1.259 . S
C849 O846 1.235 . S
O850 Co840 2.021 . S
O850 C847 1.238 . S
O851 Co845 2.052 . S
O851 C847 1.241 . S
O852 Co840 2.137 . S
O852 C843 1.247 . S
O853 Co840 2.244 . S
O853 C843 1.272 . S
O853 Co845 2.135 . S
Co854 O855 2.216 . S
Co854 O856 2.091 . S
Co854 O858 2.004 . S
Co854 O864 2.021 . S
Co854 O866 2.137 . S
Co854 O867 2.244 . S
O855 Co854 2.216 . S
O855 C862 1.247 . S
O856 Co854 2.091 . S
O856 C862 1.261 . S
C857 O866 1.247 . S
C857 O867 1.272 . S
O858 Co854 2.004 . S
O858 C863 1.259 . S
Co859 O860 2.061 . S
Co859 O865 2.052 . S
Co859 O867 2.135 . S
O860 Co859 2.061 . S
O860 C863 1.235 . S
C861 O864 1.238 . S
C861 O865 1.241 . S
C862 O855 1.247 . S
C862 O856 1.261 . S
C863 O858 1.259 . S
C863 O860 1.235 . S
O864 Co854 2.021 . S
O864 C861 1.238 . S
O865 Co859 2.052 . S
O865 C861 1.241 . S
O866 Co854 2.137 . S
O866 C857 1.247 . S
O867 Co854 2.244 . S
O867 C857 1.272 . S
O867 Co859 2.135 . S
Co868 O869 2.216 . S
Co868 O870 2.091 . S
Co868 O872 2.004 . S
Co868 O878 2.021 . S
Co868 O880 2.137 . S
Co868 O881 2.244 . S
O869 Co868 2.216 . S
O869 C876 1.247 . S
O870 Co868 2.091 . S
O870 C876 1.261 . S
C871 O880 1.247 . S
C871 O881 1.272 . S
O872 Co868 2.004 . S
O872 C877 1.259 . S
Co873 O874 2.061 . S
Co873 O879 2.052 . S
Co873 O881 2.135 . S
O874 Co873 2.061 . S
O874 C877 1.235 . S
C875 O878 1.238 . S
C875 O879 1.241 . S
C876 O869 1.247 . S
C876 O870 1.261 . S
C877 O872 1.259 . S
C877 O874 1.235 . S
O878 Co868 2.021 . S
O878 C875 1.238 . S
O879 Co873 2.052 . S
O879 C875 1.241 . S
O880 Co868 2.137 . S
O880 C871 1.247 . S
O881 Co868 2.244 . S
O881 C871 1.272 . S
O881 Co873 2.135 . S
Co882 O883 2.216 . S
Co882 O884 2.091 . S
Co882 O886 2.004 . S
Co882 O892 2.021 . S
Co882 O894 2.137 . S
Co882 O895 2.244 . S
O883 Co882 2.216 . S
O883 C890 1.247 . S
O884 Co882 2.091 . S
O884 C890 1.261 . S
C885 O894 1.247 . S
C885 O895 1.272 . S
O886 Co882 2.004 . S
O886 C891 1.259 . S
Co887 O888 2.061 . S
Co887 O893 2.052 . S
Co887 O895 2.135 . S
O888 Co887 2.061 . S
O888 C891 1.235 . S
C889 O892 1.238 . S
C889 O893 1.241 . S
C890 O883 1.247 . S
C890 O884 1.261 . S
C891 O886 1.259 . S
C891 O888 1.235 . S
O892 Co882 2.021 . S
O892 C889 1.238 . S
O893 Co887 2.052 . S
O893 C889 1.241 . S
O894 Co882 2.137 . S
O894 C885 1.247 . S
O895 Co882 2.244 . S
O895 C885 1.272 . S
O895 Co887 2.135 . S
Co896 O897 2.216 . S
Co896 O898 2.091 . S
Co896 O900 2.004 . S
Co896 O906 2.021 . S
Co896 O908 2.137 . S
Co896 O909 2.244 . S
O897 Co896 2.216 . S
O897 C904 1.247 . S
O898 Co896 2.091 . S
O898 C904 1.261 . S
C899 O908 1.247 . S
C899 O909 1.272 . S
O900 Co896 2.004 . S
O900 C905 1.259 . S
Co901 O902 2.061 . S
Co901 O907 2.052 . S
Co901 O909 2.135 . S
O902 Co901 2.061 . S
O902 C905 1.235 . S
C903 O906 1.238 . S
C903 O907 1.241 . S
C904 O897 1.247 . S
C904 O898 1.261 . S
C905 O900 1.259 . S
C905 O902 1.235 . S
O906 Co896 2.021 . S
O906 C903 1.238 . S
O907 Co901 2.052 . S
O907 C903 1.241 . S
O908 Co896 2.137 . S
O908 C899 1.247 . S
O909 Co896 2.244 . S
O909 C899 1.272 . S
O909 Co901 2.135 . S
Co910 O911 2.216 . S
Co910 O912 2.091 . S
Co910 O914 2.004 . S
Co910 O920 2.021 . S
Co910 O922 2.137 . S
Co910 O923 2.244 . S
O911 Co910 2.216 . S
O911 C918 1.247 . S
O912 Co910 2.091 . S
O912 C918 1.261 . S
C913 O922 1.247 . S
C913 O923 1.272 . S
O914 Co910 2.004 . S
O914 C919 1.259 . S
Co915 O916 2.061 . S
Co915 O921 2.052 . S
Co915 O923 2.135 . S
O916 Co915 2.061 . S
O916 C919 1.235 . S
C917 O920 1.238 . S
C917 O921 1.241 . S
C918 O911 1.247 . S
C918 O912 1.261 . S
C919 O914 1.259 . S
C919 O916 1.235 . S
O920 Co910 2.021 . S
O920 C917 1.238 . S
O921 Co915 2.052 . S
O921 C917 1.241 . S
O922 Co910 2.137 . S
O922 C913 1.247 . S
O923 Co910 2.244 . S
O923 C913 1.272 . S
O923 Co915 2.135 . S
Co924 O925 2.216 . S
Co924 O926 2.091 . S
Co924 O928 2.004 . S
Co924 O934 2.021 . S
Co924 O936 2.137 . S
Co924 O937 2.244 . S
O925 Co924 2.216 . S
O925 C932 1.247 . S
O926 Co924 2.091 . S
O926 C932 1.261 . S
C927 O936 1.247 . S
C927 O937 1.272 . S
O928 Co924 2.004 . S
O928 C933 1.259 . S
Co929 O930 2.061 . S
Co929 O935 2.052 . S
Co929 O937 2.135 . S
O930 Co929 2.061 . S
O930 C933 1.235 . S
C931 O934 1.238 . S
C931 O935 1.241 . S
C932 O925 1.247 . S
C932 O926 1.261 . S
C933 O928 1.259 . S
C933 O930 1.235 . S
O934 Co924 2.021 . S
O934 C931 1.238 . S
O935 Co929 2.052 . S
O935 C931 1.241 . S
O936 Co924 2.137 . S
O936 C927 1.247 . S
O937 Co924 2.244 . S
O937 C927 1.272 . S
O937 Co929 2.135 . S
Co938 O939 2.216 . S
Co938 O940 2.091 . S
Co938 O942 2.004 . S
Co938 O948 2.021 . S
Co938 O950 2.137 . S
Co938 O951 2.244 . S
O939 Co938 2.216 . S
O939 C946 1.247 . S
O940 Co938 2.091 . S
O940 C946 1.261 . S
C941 O950 1.247 . S
C941 O951 1.272 . S
O942 Co938 2.004 . S
O942 C947 1.259 . S
Co943 O944 2.061 . S
Co943 O949 2.052 . S
Co943 O951 2.135 . S
O944 Co943 2.061 . S
O944 C947 1.235 . S
C945 O948 1.238 . S
C945 O949 1.241 . S
C946 O939 1.247 . S
C946 O940 1.261 . S
C947 O942 1.259 . S
C947 O944 1.235 . S
O948 Co938 2.021 . S
O948 C945 1.238 . S
O949 Co943 2.052 . S
O949 C945 1.241 . S
O950 Co938 2.137 . S
O950 C941 1.247 . S
O951 Co938 2.244 . S
O951 C941 1.272 . S
O951 Co943 2.135 . S
Co952 O953 2.216 . S
Co952 O954 2.091 . S
Co952 O956 2.004 . S
Co952 O962 2.021 . S
Co952 O964 2.137 . S
Co952 O965 2.244 . S
O953 Co952 2.216 . S
O953 C960 1.247 . S
O954 Co952 2.091 . S
O954 C960 1.261 . S
C955 O964 1.247 . S
C955 O965 1.272 . S
O956 Co952 2.004 . S
O956 C961 1.259 . S
Co957 O958 2.061 . S
Co957 O963 2.052 . S
Co957 O965 2.135 . S
O958 Co957 2.061 . S
O958 C961 1.235 . S
C959 O962 1.238 . S
C959 O963 1.241 . S
C960 O953 1.247 . S
C960 O954 1.261 . S
C961 O956 1.259 . S
C961 O958 1.235 . S
O962 Co952 2.021 . S
O962 C959 1.238 . S
O963 Co957 2.052 . S
O963 C959 1.241 . S
O964 Co952 2.137 . S
O964 C955 1.247 . S
O965 Co952 2.244 . S
O965 C955 1.272 . S
O965 Co957 2.135 . S
Co966 O967 2.216 . S
Co966 O968 2.091 . S
Co966 O970 2.004 . S
Co966 O976 2.021 . S
Co966 O978 2.137 . S
Co966 O979 2.244 . S
O967 Co966 2.216 . S
O967 C974 1.247 . S
O968 Co966 2.091 . S
O968 C974 1.261 . S
C969 O978 1.247 . S
C969 O979 1.272 . S
O970 Co966 2.004 . S
O970 C975 1.259 . S
Co971 O972 2.061 . S
Co971 O977 2.052 . S
Co971 O979 2.135 . S
O972 Co971 2.061 . S
O972 C975 1.235 . S
C973 O976 1.238 . S
C973 O977 1.241 . S
C974 O967 1.247 . S
C974 O968 1.261 . S
C975 O970 1.259 . S
C975 O972 1.235 . S
O976 Co966 2.021 . S
O976 C973 1.238 . S
O977 Co971 2.052 . S
O977 C973 1.241 . S
O978 Co966 2.137 . S
O978 C969 1.247 . S
O979 Co966 2.244 . S
O979 C969 1.272 . S
O979 Co971 2.135 . S
Co980 O981 2.216 . S
Co980 O982 2.091 . S
Co980 O984 2.004 . S
Co980 O990 2.021 . S
Co980 O992 2.137 . S
Co980 O993 2.244 . S
O981 Co980 2.216 . S
O981 C988 1.247 . S
O982 Co980 2.091 . S
O982 C988 1.261 . S
C983 O992 1.247 . S
C983 O993 1.272 . S
O984 Co980 2.004 . S
O984 C989 1.259 . S
Co985 O986 2.061 . S
Co985 O991 2.052 . S
Co985 O993 2.135 . S
O986 Co985 2.061 . S
O986 C989 1.235 . S
C987 O990 1.238 . S
C987 O991 1.241 . S
C988 O981 1.247 . S
C988 O982 1.261 . S
C989 O984 1.259 . S
C989 O986 1.235 . S
O990 Co980 2.021 . S
O990 C987 1.238 . S
O991 Co985 2.052 . S
O991 C987 1.241 . S
O992 Co980 2.137 . S
O992 C983 1.247 . S
O993 Co980 2.244 . S
O993 C983 1.272 . S
O993 Co985 2.135 . S
Co994 O995 2.216 . S
Co994 O996 2.091 . S
Co994 O998 2.004 . S
Co994 O1004 2.021 . S
Co994 O1006 2.137 . S
Co994 O1007 2.244 . S
O995 Co994 2.216 . S
O995 C1002 1.247 . S
O996 Co994 2.091 . S
O996 C1002 1.261 . S
C997 O1006 1.247 . S
C997 O1007 1.272 . S
O998 Co994 2.004 . S
O998 C1003 1.259 . S
Co999 O1000 2.061 . S
Co999 O1005 2.052 . S
Co999 O1007 2.135 . S
O1000 Co999 2.061 . S
O1000 C1003 1.235 . S
C1001 O1004 1.238 . S
C1001 O1005 1.241 . S
C1002 O995 1.247 . S
C1002 O996 1.261 . S
C1003 O998 1.259 . S
C1003 O1000 1.235 . S
O1004 Co994 2.021 . S
O1004 C1001 1.238 . S
O1005 Co999 2.052 . S
O1005 C1001 1.241 . S
O1006 Co994 2.137 . S
O1006 C997 1.247 . S
O1007 Co994 2.244 . S
O1007 C997 1.272 . S
O1007 Co999 2.135 . S
Co1008 O1009 2.216 . S
Co1008 O1010 2.091 . S
Co1008 O1012 2.004 . S
Co1008 O1018 2.021 . S
Co1008 O1020 2.137 . S
Co1008 O1021 2.244 . S
O1009 Co1008 2.216 . S
O1009 C1016 1.247 . S
O1010 Co1008 2.091 . S
O1010 C1016 1.261 . S
C1011 O1020 1.247 . S
C1011 O1021 1.272 . S
O1012 Co1008 2.004 . S
O1012 C1017 1.259 . S
Co1013 O1014 2.061 . S
Co1013 O1019 2.052 . S
Co1013 O1021 2.135 . S
O1014 Co1013 2.061 . S
O1014 C1017 1.235 . S
C1015 O1018 1.238 . S
C1015 O1019 1.241 . S
C1016 O1009 1.247 . S
C1016 O1010 1.261 . S
C1017 O1012 1.259 . S
C1017 O1014 1.235 . S
O1018 Co1008 2.021 . S
O1018 C1015 1.238 . S
O1019 Co1013 2.052 . S
O1019 C1015 1.241 . S
O1020 Co1008 2.137 . S
O1020 C1011 1.247 . S
O1021 Co1008 2.244 . S
O1021 C1011 1.272 . S
O1021 Co1013 2.135 . S
Co1022 O1023 2.216 . S
Co1022 O1024 2.091 . S
Co1022 O1026 2.004 . S
Co1022 O1032 2.021 . S
Co1022 O1034 2.137 . S
Co1022 O1035 2.244 . S
O1023 Co1022 2.216 . S
O1023 C1030 1.247 . S
O1024 Co1022 2.091 . S
O1024 C1030 1.261 . S
C1025 O1034 1.247 . S
C1025 O1035 1.272 . S
O1026 Co1022 2.004 . S
O1026 C1031 1.259 . S
Co1027 O1028 2.061 . S
Co1027 O1033 2.052 . S
Co1027 O1035 2.135 . S
O1028 Co1027 2.061 . S
O1028 C1031 1.235 . S
C1029 O1032 1.238 . S
C1029 O1033 1.241 . S
C1030 O1023 1.247 . S
C1030 O1024 1.261 . S
C1031 O1026 1.259 . S
C1031 O1028 1.235 . S
O1032 Co1022 2.021 . S
O1032 C1029 1.238 . S
O1033 Co1027 2.052 . S
O1033 C1029 1.241 . S
O1034 Co1022 2.137 . S
O1034 C1025 1.247 . S
O1035 Co1022 2.244 . S
O1035 C1025 1.272 . S
O1035 Co1027 2.135 . S
Co1036 O1037 2.216 . S
Co1036 O1038 2.091 . S
Co1036 O1040 2.004 . S
Co1036 O1046 2.021 . S
Co1036 O1048 2.137 . S
Co1036 O1049 2.244 . S
O1037 Co1036 2.216 . S
O1037 C1044 1.247 . S
O1038 Co1036 2.091 . S
O1038 C1044 1.261 . S
C1039 O1048 1.247 . S
C1039 O1049 1.272 . S
O1040 Co1036 2.004 . S
O1040 C1045 1.259 . S
Co1041 O1042 2.061 . S
Co1041 O1047 2.052 . S
Co1041 O1049 2.135 . S
O1042 Co1041 2.061 . S
O1042 C1045 1.235 . S
C1043 O1046 1.238 . S
C1043 O1047 1.241 . S
C1044 O1037 1.247 . S
C1044 O1038 1.261 . S
C1045 O1040 1.259 . S
C1045 O1042 1.235 . S
O1046 Co1036 2.021 . S
O1046 C1043 1.238 . S
O1047 Co1041 2.052 . S
O1047 C1043 1.241 . S
O1048 Co1036 2.137 . S
O1048 C1039 1.247 . S
O1049 Co1036 2.244 . S
O1049 C1039 1.272 . S
O1049 Co1041 2.135 . S
Co1050 O1051 2.216 . S
Co1050 O1052 2.091 . S
Co1050 O1054 2.004 . S
Co1050 O1060 2.021 . S
Co1050 O1062 2.137 . S
Co1050 O1063 2.244 . S
O1051 Co1050 2.216 . S
O1051 C1058 1.247 . S
O1052 Co1050 2.091 . S
O1052 C1058 1.261 . S
C1053 O1062 1.247 . S
C1053 O1063 1.272 . S
O1054 Co1050 2.004 . S
O1054 C1059 1.259 . S
Co1055 O1056 2.061 . S
Co1055 O1061 2.052 . S
Co1055 O1063 2.135 . S
O1056 Co1055 2.061 . S
O1056 C1059 1.235 . S
C1057 O1060 1.238 . S
C1057 O1061 1.241 . S
C1058 O1051 1.247 . S
C1058 O1052 1.261 . S
C1059 O1054 1.259 . S
C1059 O1056 1.235 . S
O1060 Co1050 2.021 . S
O1060 C1057 1.238 . S
O1061 Co1055 2.052 . S
O1061 C1057 1.241 . S
O1062 Co1050 2.137 . S
O1062 C1053 1.247 . S
O1063 Co1050 2.244 . S
O1063 C1053 1.272 . S
O1063 Co1055 2.135 . S
Co1064 O1065 2.216 . S
Co1064 O1066 2.091 . S
Co1064 O1068 2.004 . S
Co1064 O1074 2.021 . S
Co1064 O1076 2.137 . S
Co1064 O1077 2.244 . S
O1065 Co1064 2.216 . S
O1065 C1072 1.247 . S
O1066 Co1064 2.091 . S
O1066 C1072 1.261 . S
C1067 O1076 1.247 . S
C1067 O1077 1.272 . S
O1068 Co1064 2.004 . S
O1068 C1073 1.259 . S
Co1069 O1070 2.061 . S
Co1069 O1075 2.052 . S
Co1069 O1077 2.135 . S
O1070 Co1069 2.061 . S
O1070 C1073 1.235 . S
C1071 O1074 1.238 . S
C1071 O1075 1.241 . S
C1072 O1065 1.247 . S
C1072 O1066 1.261 . S
C1073 O1068 1.259 . S
C1073 O1070 1.235 . S
O1074 Co1064 2.021 . S
O1074 C1071 1.238 . S
O1075 Co1069 2.052 . S
O1075 C1071 1.241 . S
O1076 Co1064 2.137 . S
O1076 C1067 1.247 . S
O1077 Co1064 2.244 . S
O1077 C1067 1.272 . S
O1077 Co1069 2.135 . S
Co1078 O1079 2.216 . S
Co1078 O1080 2.091 . S
Co1078 O1082 2.004 . S
Co1078 O1088 2.021 . S
Co1078 O1090 2.137 . S
Co1078 O1091 2.244 . S
O1079 Co1078 2.216 . S
O1079 C1086 1.247 . S
O1080 Co1078 2.091 . S
O1080 C1086 1.261 . S
C1081 O1090 1.247 . S
C1081 O1091 1.272 . S
O1082 Co1078 2.004 . S
O1082 C1087 1.259 . S
Co1083 O1084 2.061 . S
Co1083 O1089 2.052 . S
Co1083 O1091 2.135 . S
O1084 Co1083 2.061 . S
O1084 C1087 1.235 . S
C1085 O1088 1.238 . S
C1085 O1089 1.241 . S
C1086 O1079 1.247 . S
C1086 O1080 1.261 . S
C1087 O1082 1.259 . S
C1087 O1084 1.235 . S
O1088 Co1078 2.021 . S
O1088 C1085 1.238 . S
O1089 Co1083 2.052 . S
O1089 C1085 1.241 . S
O1090 Co1078 2.137 . S
O1090 C1081 1.247 . S
O1091 Co1078 2.244 . S
O1091 C1081 1.272 . S
O1091 Co1083 2.135 . S
Co1092 O1093 2.216 . S
Co1092 O1094 2.091 . S
Co1092 O1096 2.004 . S
Co1092 O1102 2.021 . S
Co1092 O1104 2.137 . S
Co1092 O1105 2.244 . S
O1093 Co1092 2.216 . S
O1093 C1100 1.247 . S
O1094 Co1092 2.091 . S
O1094 C1100 1.261 . S
C1095 O1104 1.247 . S
C1095 O1105 1.272 . S
O1096 Co1092 2.004 . S
O1096 C1101 1.259 . S
Co1097 O1098 2.061 . S
Co1097 O1103 2.052 . S
Co1097 O1105 2.135 . S
O1098 Co1097 2.061 . S
O1098 C1101 1.235 . S
C1099 O1102 1.238 . S
C1099 O1103 1.241 . S
C1100 O1093 1.247 . S
C1100 O1094 1.261 . S
C1101 O1096 1.259 . S
C1101 O1098 1.235 . S
O1102 Co1092 2.021 . S
O1102 C1099 1.238 . S
O1103 Co1097 2.052 . S
O1103 C1099 1.241 . S
O1104 Co1092 2.137 . S
O1104 C1095 1.247 . S
O1105 Co1092 2.244 . S
O1105 C1095 1.272 . S
O1105 Co1097 2.135 . S
Co1106 O1107 2.216 . S
Co1106 O1108 2.091 . S
Co1106 O1110 2.004 . S
Co1106 O1116 2.021 . S
Co1106 O1118 2.137 . S
Co1106 O1119 2.244 . S
O1107 Co1106 2.216 . S
O1107 C1114 1.247 . S
O1108 Co1106 2.091 . S
O1108 C1114 1.261 . S
C1109 O1118 1.247 . S
C1109 O1119 1.272 . S
O1110 Co1106 2.004 . S
O1110 C1115 1.259 . S
Co1111 O1112 2.061 . S
Co1111 O1117 2.052 . S
Co1111 O1119 2.135 . S
O1112 Co1111 2.061 . S
O1112 C1115 1.235 . S
C1113 O1116 1.238 . S
C1113 O1117 1.241 . S
C1114 O1107 1.247 . S
C1114 O1108 1.261 . S
C1115 O1110 1.259 . S
C1115 O1112 1.235 . S
O1116 Co1106 2.021 . S
O1116 C1113 1.238 . S
O1117 Co1111 2.052 . S
O1117 C1113 1.241 . S
O1118 Co1106 2.137 . S
O1118 C1109 1.247 . S
O1119 Co1106 2.244 . S
O1119 C1109 1.272 . S
O1119 Co1111 2.135 . S
Co1120 O1121 2.216 . S
Co1120 O1122 2.091 . S
Co1120 O1124 2.004 . S
Co1120 O1130 2.021 . S
Co1120 O1132 2.137 . S
Co1120 O1133 2.244 . S
O1121 Co1120 2.216 . S
O1121 C1128 1.247 . S
O1122 Co1120 2.091 . S
O1122 C1128 1.261 . S
C1123 O1132 1.247 . S
C1123 O1133 1.272 . S
O1124 Co1120 2.004 . S
O1124 C1129 1.259 . S
Co1125 O1126 2.061 . S
Co1125 O1131 2.052 . S
Co1125 O1133 2.135 . S
O1126 Co1125 2.061 . S
O1126 C1129 1.235 . S
C1127 O1130 1.238 . S
C1127 O1131 1.241 . S
C1128 O1121 1.247 . S
C1128 O1122 1.261 . S
C1129 O1124 1.259 . S
C1129 O1126 1.235 . S
O1130 Co1120 2.021 . S
O1130 C1127 1.238 . S
O1131 Co1125 2.052 . S
O1131 C1127 1.241 . S
O1132 Co1120 2.137 . S
O1132 C1123 1.247 . S
O1133 Co1120 2.244 . S
O1133 C1123 1.272 . S
O1133 Co1125 2.135 . S
Co1134 O1135 2.216 . S
Co1134 O1136 2.091 . S
Co1134 O1138 2.004 . S
Co1134 O1144 2.021 . S
Co1134 O1146 2.137 . S
Co1134 O1147 2.244 . S
O1135 Co1134 2.216 . S
O1135 C1142 1.247 . S
O1136 Co1134 2.091 . S
O1136 C1142 1.261 . S
C1137 O1146 1.247 . S
C1137 O1147 1.272 . S
O1138 Co1134 2.004 . S
O1138 C1143 1.259 . S
Co1139 O1140 2.061 . S
Co1139 O1145 2.052 . S
Co1139 O1147 2.135 . S
O1140 Co1139 2.061 . S
O1140 C1143 1.235 . S
C1141 O1144 1.238 . S
C1141 O1145 1.241 . S
C1142 O1135 1.247 . S
C1142 O1136 1.261 . S
C1143 O1138 1.259 . S
C1143 O1140 1.235 . S
O1144 Co1134 2.021 . S
O1144 C1141 1.238 . S
O1145 Co1139 2.052 . S
O1145 C1141 1.241 . S
O1146 Co1134 2.137 . S
O1146 C1137 1.247 . S
O1147 Co1134 2.244 . S
O1147 C1137 1.272 . S
O1147 Co1139 2.135 . S
Co1148 O1149 2.216 . S
Co1148 O1150 2.091 . S
Co1148 O1152 2.004 . S
Co1148 O1158 2.021 . S
Co1148 O1160 2.137 . S
Co1148 O1161 2.244 . S
O1149 Co1148 2.216 . S
O1149 C1156 1.247 . S
O1150 Co1148 2.091 . S
O1150 C1156 1.261 . S
C1151 O1160 1.247 . S
C1151 O1161 1.272 . S
O1152 Co1148 2.004 . S
O1152 C1157 1.259 . S
Co1153 O1154 2.061 . S
Co1153 O1159 2.052 . S
Co1153 O1161 2.135 . S
O1154 Co1153 2.061 . S
O1154 C1157 1.235 . S
C1155 O1158 1.238 . S
C1155 O1159 1.241 . S
C1156 O1149 1.247 . S
C1156 O1150 1.261 . S
C1157 O1152 1.259 . S
C1157 O1154 1.235 . S
O1158 Co1148 2.021 . S
O1158 C1155 1.238 . S
O1159 Co1153 2.052 . S
O1159 C1155 1.241 . S
O1160 Co1148 2.137 . S
O1160 C1151 1.247 . S
O1161 Co1148 2.244 . S
O1161 C1151 1.272 . S
O1161 Co1153 2.135 . S
Co1162 O1163 2.216 . S
Co1162 O1164 2.091 . S
Co1162 O1166 2.004 . S
Co1162 O1172 2.021 . S
Co1162 O1174 2.137 . S
Co1162 O1175 2.244 . S
O1163 Co1162 2.216 . S
O1163 C1170 1.247 . S
O1164 Co1162 2.091 . S
O1164 C1170 1.261 . S
C1165 O1174 1.247 . S
C1165 O1175 1.272 . S
O1166 Co1162 2.004 . S
O1166 C1171 1.259 . S
Co1167 O1168 2.061 . S
Co1167 O1173 2.052 . S
Co1167 O1175 2.135 . S
O1168 Co1167 2.061 . S
O1168 C1171 1.235 . S
C1169 O1172 1.238 . S
C1169 O1173 1.241 . S
C1170 O1163 1.247 . S
C1170 O1164 1.261 . S
C1171 O1166 1.259 . S
C1171 O1168 1.235 . S
O1172 Co1162 2.021 . S
O1172 C1169 1.238 . S
O1173 Co1167 2.052 . S
O1173 C1169 1.241 . S
O1174 Co1162 2.137 . S
O1174 C1165 1.247 . S
O1175 Co1162 2.244 . S
O1175 C1165 1.272 . S
O1175 Co1167 2.135 . S
Co1176 O1177 2.216 . S
Co1176 O1178 2.091 . S
Co1176 O1180 2.004 . S
Co1176 O1186 2.021 . S
Co1176 O1188 2.137 . S
Co1176 O1189 2.244 . S
O1177 Co1176 2.216 . S
O1177 C1184 1.247 . S
O1178 Co1176 2.091 . S
O1178 C1184 1.261 . S
C1179 O1188 1.247 . S
C1179 O1189 1.272 . S
O1180 Co1176 2.004 . S
O1180 C1185 1.259 . S
Co1181 O1182 2.061 . S
Co1181 O1187 2.052 . S
Co1181 O1189 2.135 . S
O1182 Co1181 2.061 . S
O1182 C1185 1.235 . S
C1183 O1186 1.238 . S
C1183 O1187 1.241 . S
C1184 O1177 1.247 . S
C1184 O1178 1.261 . S
C1185 O1180 1.259 . S
C1185 O1182 1.235 . S
O1186 Co1176 2.021 . S
O1186 C1183 1.238 . S
O1187 Co1181 2.052 . S
O1187 C1183 1.241 . S
O1188 Co1176 2.137 . S
O1188 C1179 1.247 . S
O1189 Co1176 2.244 . S
O1189 C1179 1.272 . S
O1189 Co1181 2.135 . S
Co1190 O1191 2.216 . S
Co1190 O1192 2.091 . S
Co1190 O1194 2.004 . S
Co1190 O1200 2.021 . S
Co1190 O1202 2.137 . S
Co1190 O1203 2.244 . S
O1191 Co1190 2.216 . S
O1191 C1198 1.247 . S
O1192 Co1190 2.091 . S
O1192 C1198 1.261 . S
C1193 O1202 1.247 . S
C1193 O1203 1.272 . S
O1194 Co1190 2.004 . S
O1194 C1199 1.259 . S
Co1195 O1196 2.061 . S
Co1195 O1201 2.052 . S
Co1195 O1203 2.135 . S
O1196 Co1195 2.061 . S
O1196 C1199 1.235 . S
C1197 O1200 1.238 . S
C1197 O1201 1.241 . S
C1198 O1191 1.247 . S
C1198 O1192 1.261 . S
C1199 O1194 1.259 . S
C1199 O1196 1.235 . S
O1200 Co1190 2.021 . S
O1200 C1197 1.238 . S
O1201 Co1195 2.052 . S
O1201 C1197 1.241 . S
O1202 Co1190 2.137 . S
O1202 C1193 1.247 . S
O1203 Co1190 2.244 . S
O1203 C1193 1.272 . S
O1203 Co1195 2.135 . S
Co1204 O1205 2.216 . S
Co1204 O1206 2.091 . S
Co1204 O1208 2.004 . S
Co1204 O1214 2.021 . S
Co1204 O1216 2.137 . S
Co1204 O1217 2.244 . S
O1205 Co1204 2.216 . S
O1205 C1212 1.247 . S
O1206 Co1204 2.091 . S
O1206 C1212 1.261 . S
C1207 O1216 1.247 . S
C1207 O1217 1.272 . S
O1208 Co1204 2.004 . S
O1208 C1213 1.259 . S
Co1209 O1210 2.061 . S
Co1209 O1215 2.052 . S
Co1209 O1217 2.135 . S
O1210 Co1209 2.061 . S
O1210 C1213 1.235 . S
C1211 O1214 1.238 . S
C1211 O1215 1.241 . S
C1212 O1205 1.247 . S
C1212 O1206 1.261 . S
C1213 O1208 1.259 . S
C1213 O1210 1.235 . S
O1214 Co1204 2.021 . S
O1214 C1211 1.238 . S
O1215 Co1209 2.052 . S
O1215 C1211 1.241 . S
O1216 Co1204 2.137 . S
O1216 C1207 1.247 . S
O1217 Co1204 2.244 . S
O1217 C1207 1.272 . S
O1217 Co1209 2.135 . S
Co1218 O1219 2.216 . S
Co1218 O1220 2.091 . S
Co1218 O1222 2.004 . S
Co1218 O1228 2.021 . S
Co1218 O1230 2.137 . S
Co1218 O1231 2.244 . S
O1219 Co1218 2.216 . S
O1219 C1226 1.247 . S
O1220 Co1218 2.091 . S
O1220 C1226 1.261 . S
C1221 O1230 1.247 . S
C1221 O1231 1.272 . S
O1222 Co1218 2.004 . S
O1222 C1227 1.259 . S
Co1223 O1224 2.061 . S
Co1223 O1229 2.052 . S
Co1223 O1231 2.135 . S
O1224 Co1223 2.061 . S
O1224 C1227 1.235 . S
C1225 O1228 1.238 . S
C1225 O1229 1.241 . S
C1226 O1219 1.247 . S
C1226 O1220 1.261 . S
C1227 O1222 1.259 . S
C1227 O1224 1.235 . S
O1228 Co1218 2.021 . S
O1228 C1225 1.238 . S
O1229 Co1223 2.052 . S
O1229 C1225 1.241 . S
O1230 Co1218 2.137 . S
O1230 C1221 1.247 . S
O1231 Co1218 2.244 . S
O1231 C1221 1.272 . S
O1231 Co1223 2.135 . S
Co1232 O1233 2.216 . S
Co1232 O1234 2.091 . S
Co1232 O1236 2.004 . S
Co1232 O1242 2.021 . S
Co1232 O1244 2.137 . S
Co1232 O1245 2.244 . S
O1233 Co1232 2.216 . S
O1233 C1240 1.247 . S
O1234 Co1232 2.091 . S
O1234 C1240 1.261 . S
C1235 O1244 1.247 . S
C1235 O1245 1.272 . S
O1236 Co1232 2.004 . S
O1236 C1241 1.259 . S
Co1237 O1238 2.061 . S
Co1237 O1243 2.052 . S
Co1237 O1245 2.135 . S
O1238 Co1237 2.061 . S
O1238 C1241 1.235 . S
C1239 O1242 1.238 . S
C1239 O1243 1.241 . S
C1240 O1233 1.247 . S
C1240 O1234 1.261 . S
C1241 O1236 1.259 . S
C1241 O1238 1.235 . S
O1242 Co1232 2.021 . S
O1242 C1239 1.238 . S
O1243 Co1237 2.052 . S
O1243 C1239 1.241 . S
O1244 Co1232 2.137 . S
O1244 C1235 1.247 . S
O1245 Co1232 2.244 . S
O1245 C1235 1.272 . S
O1245 Co1237 2.135 . S
Co1246 O1247 2.216 . S
Co1246 O1248 2.091 . S
Co1246 O1250 2.004 . S
Co1246 O1256 2.021 . S
Co1246 O1258 2.137 . S
Co1246 O1259 2.244 . S
O1247 Co1246 2.216 . S
O1247 C1254 1.247 . S
O1248 Co1246 2.091 . S
O1248 C1254 1.261 . S
C1249 O1258 1.247 . S
C1249 O1259 1.272 . S
O1250 Co1246 2.004 . S
O1250 C1255 1.259 . S
Co1251 O1252 2.061 . S
Co1251 O1257 2.052 . S
Co1251 O1259 2.135 . S
O1252 Co1251 2.061 . S
O1252 C1255 1.235 . S
C1253 O1256 1.238 . S
C1253 O1257 1.241 . S
C1254 O1247 1.247 . S
C1254 O1248 1.261 . S
C1255 O1250 1.259 . S
C1255 O1252 1.235 . S
O1256 Co1246 2.021 . S
O1256 C1253 1.238 . S
O1257 Co1251 2.052 . S
O1257 C1253 1.241 . S
O1258 Co1246 2.137 . S
O1258 C1249 1.247 . S
O1259 Co1246 2.244 . S
O1259 C1249 1.272 . S
O1259 Co1251 2.135 . S
Co1260 O1261 2.216 . S
Co1260 O1262 2.091 . S
Co1260 O1264 2.004 . S
Co1260 O1270 2.021 . S
Co1260 O1272 2.137 . S
Co1260 O1273 2.244 . S
O1261 Co1260 2.216 . S
O1261 C1268 1.247 . S
O1262 Co1260 2.091 . S
O1262 C1268 1.261 . S
C1263 O1272 1.247 . S
C1263 O1273 1.272 . S
O1264 Co1260 2.004 . S
O1264 C1269 1.259 . S
Co1265 O1266 2.061 . S
Co1265 O1271 2.052 . S
Co1265 O1273 2.135 . S
O1266 Co1265 2.061 . S
O1266 C1269 1.235 . S
C1267 O1270 1.238 . S
C1267 O1271 1.241 . S
C1268 O1261 1.247 . S
C1268 O1262 1.261 . S
C1269 O1264 1.259 . S
C1269 O1266 1.235 . S
O1270 Co1260 2.021 . S
O1270 C1267 1.238 . S
O1271 Co1265 2.052 . S
O1271 C1267 1.241 . S
O1272 Co1260 2.137 . S
O1272 C1263 1.247 . S
O1273 Co1260 2.244 . S
O1273 C1263 1.272 . S
O1273 Co1265 2.135 . S
Co1274 O1275 2.216 . S
Co1274 O1276 2.091 . S
Co1274 O1278 2.004 . S
Co1274 O1284 2.021 . S
Co1274 O1286 2.137 . S
Co1274 O1287 2.244 . S
O1275 Co1274 2.216 . S
O1275 C1282 1.247 . S
O1276 Co1274 2.091 . S
O1276 C1282 1.261 . S
C1277 O1286 1.247 . S
C1277 O1287 1.272 . S
O1278 Co1274 2.004 . S
O1278 C1283 1.259 . S
Co1279 O1280 2.061 . S
Co1279 O1285 2.052 . S
Co1279 O1287 2.135 . S
O1280 Co1279 2.061 . S
O1280 C1283 1.235 . S
C1281 O1284 1.238 . S
C1281 O1285 1.241 . S
C1282 O1275 1.247 . S
C1282 O1276 1.261 . S
C1283 O1278 1.259 . S
C1283 O1280 1.235 . S
O1284 Co1274 2.021 . S
O1284 C1281 1.238 . S
O1285 Co1279 2.052 . S
O1285 C1281 1.241 . S
O1286 Co1274 2.137 . S
O1286 C1277 1.247 . S
O1287 Co1274 2.244 . S
O1287 C1277 1.272 . S
O1287 Co1279 2.135 . S
Co1288 O1289 2.216 . S
Co1288 O1290 2.091 . S
Co1288 O1292 2.004 . S
Co1288 O1298 2.021 . S
Co1288 O1300 2.137 . S
Co1288 O1301 2.244 . S
O1289 Co1288 2.216 . S
O1289 C1296 1.247 . S
O1290 Co1288 2.091 . S
O1290 C1296 1.261 . S
C1291 O1300 1.247 . S
C1291 O1301 1.272 . S
O1292 Co1288 2.004 . S
O1292 C1297 1.259 . S
Co1293 O1294 2.061 . S
Co1293 O1299 2.052 . S
Co1293 O1301 2.135 . S
O1294 Co1293 2.061 . S
O1294 C1297 1.235 . S
C1295 O1298 1.238 . S
C1295 O1299 1.241 . S
C1296 O1289 1.247 . S
C1296 O1290 1.261 . S
C1297 O1292 1.259 . S
C1297 O1294 1.235 . S
O1298 Co1288 2.021 . S
O1298 C1295 1.238 . S
O1299 Co1293 2.052 . S
O1299 C1295 1.241 . S
O1300 Co1288 2.137 . S
O1300 C1291 1.247 . S
O1301 Co1288 2.244 . S
O1301 C1291 1.272 . S
O1301 Co1293 2.135 . S
Co1302 O1303 2.216 . S
Co1302 O1304 2.091 . S
Co1302 O1306 2.004 . S
Co1302 O1312 2.021 . S
Co1302 O1314 2.137 . S
Co1302 O1315 2.244 . S
O1303 Co1302 2.216 . S
O1303 C1310 1.247 . S
O1304 Co1302 2.091 . S
O1304 C1310 1.261 . S
C1305 O1314 1.247 . S
C1305 O1315 1.272 . S
O1306 Co1302 2.004 . S
O1306 C1311 1.259 . S
Co1307 O1308 2.061 . S
Co1307 O1313 2.052 . S
Co1307 O1315 2.135 . S
O1308 Co1307 2.061 . S
O1308 C1311 1.235 . S
C1309 O1312 1.238 . S
C1309 O1313 1.241 . S
C1310 O1303 1.247 . S
C1310 O1304 1.261 . S
C1311 O1306 1.259 . S
C1311 O1308 1.235 . S
O1312 Co1302 2.021 . S
O1312 C1309 1.238 . S
O1313 Co1307 2.052 . S
O1313 C1309 1.241 . S
O1314 Co1302 2.137 . S
O1314 C1305 1.247 . S
O1315 Co1302 2.244 . S
O1315 C1305 1.272 . S
O1315 Co1307 2.135 . S
Co1316 O1317 2.216 . S
Co1316 O1318 2.091 . S
Co1316 O1320 2.004 . S
Co1316 O1326 2.021 . S
Co1316 O1328 2.137 . S
Co1316 O1329 2.244 . S
O1317 Co1316 2.216 . S
O1317 C1324 1.247 . S
O1318 Co1316 2.091 . S
O1318 C1324 1.261 . S
C1319 O1328 1.247 . S
C1319 O1329 1.272 . S
O1320 Co1316 2.004 . S
O1320 C1325 1.259 . S
Co1321 O1322 2.061 . S
Co1321 O1327 2.052 . S
Co1321 O1329 2.135 . S
O1322 Co1321 2.061 . S
O1322 C1325 1.235 . S
C1323 O1326 1.238 . S
C1323 O1327 1.241 . S
C1324 O1317 1.247 . S
C1324 O1318 1.261 . S
C1325 O1320 1.259 . S
C1325 O1322 1.235 . S
O1326 Co1316 2.021 . S
O1326 C1323 1.238 . S
O1327 Co1321 2.052 . S
O1327 C1323 1.241 . S
O1328 Co1316 2.137 . S
O1328 C1319 1.247 . S
O1329 Co1316 2.244 . S
O1329 C1319 1.272 . S
O1329 Co1321 2.135 . S
Co1330 O1331 2.216 . S
Co1330 O1332 2.091 . S
Co1330 O1334 2.004 . S
Co1330 O1340 2.021 . S
Co1330 O1342 2.137 . S
Co1330 O1343 2.244 . S
O1331 Co1330 2.216 . S
O1331 C1338 1.247 . S
O1332 Co1330 2.091 . S
O1332 C1338 1.261 . S
C1333 O1342 1.247 . S
C1333 O1343 1.272 . S
O1334 Co1330 2.004 . S
O1334 C1339 1.259 . S
Co1335 O1336 2.061 . S
Co1335 O1341 2.052 . S
Co1335 O1343 2.135 . S
O1336 Co1335 2.061 . S
O1336 C1339 1.235 . S
C1337 O1340 1.238 . S
C1337 O1341 1.241 . S
C1338 O1331 1.247 . S
C1338 O1332 1.261 . S
C1339 O1334 1.259 . S
C1339 O1336 1.235 . S
O1340 Co1330 2.021 . S
O1340 C1337 1.238 . S
O1341 Co1335 2.052 . S
O1341 C1337 1.241 . S
O1342 Co1330 2.137 . S
O1342 C1333 1.247 . S
O1343 Co1330 2.244 . S
O1343 C1333 1.272 . S
O1343 Co1335 2.135 . S
Co1344 O1345 2.216 . S
Co1344 O1346 2.091 . S
Co1344 O1348 2.004 . S
Co1344 O1354 2.021 . S
Co1344 O1356 2.137 . S
Co1344 O1357 2.244 . S
O1345 Co1344 2.216 . S
O1345 C1352 1.247 . S
O1346 Co1344 2.091 . S
O1346 C1352 1.261 . S
C1347 O1356 1.247 . S
C1347 O1357 1.272 . S
O1348 Co1344 2.004 . S
O1348 C1353 1.259 . S
Co1349 O1350 2.061 . S
Co1349 O1355 2.052 . S
Co1349 O1357 2.135 . S
O1350 Co1349 2.061 . S
O1350 C1353 1.235 . S
C1351 O1354 1.238 . S
C1351 O1355 1.241 . S
C1352 O1345 1.247 . S
C1352 O1346 1.261 . S
C1353 O1348 1.259 . S
C1353 O1350 1.235 . S
O1354 Co1344 2.021 . S
O1354 C1351 1.238 . S
O1355 Co1349 2.052 . S
O1355 C1351 1.241 . S
O1356 Co1344 2.137 . S
O1356 C1347 1.247 . S
O1357 Co1344 2.244 . S
O1357 C1347 1.272 . S
O1357 Co1349 2.135 . S
Co1358 O1359 2.216 . S
Co1358 O1360 2.091 . S
Co1358 O1362 2.004 . S
Co1358 O1368 2.021 . S
Co1358 O1370 2.137 . S
Co1358 O1371 2.244 . S
O1359 Co1358 2.216 . S
O1359 C1366 1.247 . S
O1360 Co1358 2.091 . S
O1360 C1366 1.261 . S
C1361 O1370 1.247 . S
C1361 O1371 1.272 . S
O1362 Co1358 2.004 . S
O1362 C1367 1.259 . S
Co1363 O1364 2.061 . S
Co1363 O1369 2.052 . S
Co1363 O1371 2.135 . S
O1364 Co1363 2.061 . S
O1364 C1367 1.235 . S
C1365 O1368 1.238 . S
C1365 O1369 1.241 . S
C1366 O1359 1.247 . S
C1366 O1360 1.261 . S
C1367 O1362 1.259 . S
C1367 O1364 1.235 . S
O1368 Co1358 2.021 . S
O1368 C1365 1.238 . S
O1369 Co1363 2.052 . S
O1369 C1365 1.241 . S
O1370 Co1358 2.137 . S
O1370 C1361 1.247 . S
O1371 Co1358 2.244 . S
O1371 C1361 1.272 . S
O1371 Co1363 2.135 . S
Co1372 O1373 2.216 . S
Co1372 O1374 2.091 . S
Co1372 O1376 2.004 . S
Co1372 O1382 2.021 . S
Co1372 O1384 2.137 . S
Co1372 O1385 2.244 . S
O1373 Co1372 2.216 . S
O1373 C1380 1.247 . S
O1374 Co1372 2.091 . S
O1374 C1380 1.261 . S
C1375 O1384 1.247 . S
C1375 O1385 1.272 . S
O1376 Co1372 2.004 . S
O1376 C1381 1.259 . S
Co1377 O1378 2.061 . S
Co1377 O1383 2.052 . S
Co1377 O1385 2.135 . S
O1378 Co1377 2.061 . S
O1378 C1381 1.235 . S
C1379 O1382 1.238 . S
C1379 O1383 1.241 . S
C1380 O1373 1.247 . S
C1380 O1374 1.261 . S
C1381 O1376 1.259 . S
C1381 O1378 1.235 . S
O1382 Co1372 2.021 . S
O1382 C1379 1.238 . S
O1383 Co1377 2.052 . S
O1383 C1379 1.241 . S
O1384 Co1372 2.137 . S
O1384 C1375 1.247 . S
O1385 Co1372 2.244 . S
O1385 C1375 1.272 . S
O1385 Co1377 2.135 . S
Co1386 O1387 2.216 . S
Co1386 O1388 2.091 . S
Co1386 O1390 2.004 . S
Co1386 O1396 2.021 . S
Co1386 O1398 2.137 . S
Co1386 O1399 2.244 . S
O1387 Co1386 2.216 . S
O1387 C1394 1.247 . S
O1388 Co1386 2.091 . S
O1388 C1394 1.261 . S
C1389 O1398 1.247 . S
C1389 O1399 1.272 . S
O1390 Co1386 2.004 . S
O1390 C1395 1.259 . S
Co1391 O1392 2.061 . S
Co1391 O1397 2.052 . S
Co1391 O1399 2.135 . S
O1392 Co1391 2.061 . S
O1392 C1395 1.235 . S
C1393 O1396 1.238 . S
C1393 O1397 1.241 . S
C1394 O1387 1.247 . S
C1394 O1388 1.261 . S
C1395 O1390 1.259 . S
C1395 O1392 1.235 . S
O1396 Co1386 2.021 . S
O1396 C1393 1.238 . S
O1397 Co1391 2.052 . S
O1397 C1393 1.241 . S
O1398 Co1386 2.137 . S
O1398 C1389 1.247 . S
O1399 Co1386 2.244 . S
O1399 C1389 1.272 . S
O1399 Co1391 2.135 . S
Co1400 O1401 2.216 . S
Co1400 O1402 2.091 . S
Co1400 O1404 2.004 . S
Co1400 O1410 2.021 . S
Co1400 O1412 2.137 . S
Co1400 O1413 2.244 . S
O1401 Co1400 2.216 . S
O1401 C1408 1.247 . S
O1402 Co1400 2.091 . S
O1402 C1408 1.261 . S
C1403 O1412 1.247 . S
C1403 O1413 1.272 . S
O1404 Co1400 2.004 . S
O1404 C1409 1.259 . S
Co1405 O1406 2.061 . S
Co1405 O1411 2.052 . S
Co1405 O1413 2.135 . S
O1406 Co1405 2.061 . S
O1406 C1409 1.235 . S
C1407 O1410 1.238 . S
C1407 O1411 1.241 . S
C1408 O1401 1.247 . S
C1408 O1402 1.261 . S
C1409 O1404 1.259 . S
C1409 O1406 1.235 . S
O1410 Co1400 2.021 . S
O1410 C1407 1.238 . S
O1411 Co1405 2.052 . S
O1411 C1407 1.241 . S
O1412 Co1400 2.137 . S
O1412 C1403 1.247 . S
O1413 Co1400 2.244 . S
O1413 C1403 1.272 . S
O1413 Co1405 2.135 . S
Co1414 O1415 2.216 . S
Co1414 O1416 2.091 . S
Co1414 O1418 2.004 . S
Co1414 O1424 2.021 . S
Co1414 O1426 2.137 . S
Co1414 O1427 2.244 . S
O1415 Co1414 2.216 . S
O1415 C1422 1.247 . S
O1416 Co1414 2.091 . S
O1416 C1422 1.261 . S
C1417 O1426 1.247 . S
C1417 O1427 1.272 . S
O1418 Co1414 2.004 . S
O1418 C1423 1.259 . S
Co1419 O1420 2.061 . S
Co1419 O1425 2.052 . S
Co1419 O1427 2.135 . S
O1420 Co1419 2.061 . S
O1420 C1423 1.235 . S
C1421 O1424 1.238 . S
C1421 O1425 1.241 . S
C1422 O1415 1.247 . S
C1422 O1416 1.261 . S
C1423 O1418 1.259 . S
C1423 O1420 1.235 . S
O1424 Co1414 2.021 . S
O1424 C1421 1.238 . S
O1425 Co1419 2.052 . S
O1425 C1421 1.241 . S
O1426 Co1414 2.137 . S
O1426 C1417 1.247 . S
O1427 Co1414 2.244 . S
O1427 C1417 1.272 . S
O1427 Co1419 2.135 . S
Co1428 O1429 2.216 . S
Co1428 O1430 2.091 . S
Co1428 O1432 2.004 . S
Co1428 O1438 2.021 . S
Co1428 O1440 2.137 . S
Co1428 O1441 2.244 . S
O1429 Co1428 2.216 . S
O1429 C1436 1.247 . S
O1430 Co1428 2.091 . S
O1430 C1436 1.261 . S
C1431 O1440 1.247 . S
C1431 O1441 1.272 . S
O1432 Co1428 2.004 . S
O1432 C1437 1.259 . S
Co1433 O1434 2.061 . S
Co1433 O1439 2.052 . S
Co1433 O1441 2.135 . S
O1434 Co1433 2.061 . S
O1434 C1437 1.235 . S
C1435 O1438 1.238 . S
C1435 O1439 1.241 . S
C1436 O1429 1.247 . S
C1436 O1430 1.261 . S
C1437 O1432 1.259 . S
C1437 O1434 1.235 . S
O1438 Co1428 2.021 . S
O1438 C1435 1.238 . S
O1439 Co1433 2.052 . S
O1439 C1435 1.241 . S
O1440 Co1428 2.137 . S
O1440 C1431 1.247 . S
O1441 Co1428 2.244 . S
O1441 C1431 1.272 . S
O1441 Co1433 2.135 . S
Co1442 O1443 2.216 . S
Co1442 O1444 2.091 . S
Co1442 O1446 2.004 . S
Co1442 O1452 2.021 . S
Co1442 O1454 2.137 . S
Co1442 O1455 2.244 . S
O1443 Co1442 2.216 . S
O1443 C1450 1.247 . S
O1444 Co1442 2.091 . S
O1444 C1450 1.261 . S
C1445 O1454 1.247 . S
C1445 O1455 1.272 . S
O1446 Co1442 2.004 . S
O1446 C1451 1.259 . S
Co1447 O1448 2.061 . S
Co1447 O1453 2.052 . S
Co1447 O1455 2.135 . S
O1448 Co1447 2.061 . S
O1448 C1451 1.235 . S
C1449 O1452 1.238 . S
C1449 O1453 1.241 . S
C1450 O1443 1.247 . S
C1450 O1444 1.261 . S
C1451 O1446 1.259 . S
C1451 O1448 1.235 . S
O1452 Co1442 2.021 . S
O1452 C1449 1.238 . S
O1453 Co1447 2.052 . S
O1453 C1449 1.241 . S
O1454 Co1442 2.137 . S
O1454 C1445 1.247 . S
O1455 Co1442 2.244 . S
O1455 C1445 1.272 . S
O1455 Co1447 2.135 . S
Co1456 O1457 2.216 . S
Co1456 O1458 2.091 . S
Co1456 O1460 2.004 . S
Co1456 O1466 2.021 . S
Co1456 O1468 2.137 . S
Co1456 O1469 2.244 . S
O1457 Co1456 2.216 . S
O1457 C1464 1.247 . S
O1458 Co1456 2.091 . S
O1458 C1464 1.261 . S
C1459 O1468 1.247 . S
C1459 O1469 1.272 . S
O1460 Co1456 2.004 . S
O1460 C1465 1.259 . S
Co1461 O1462 2.061 . S
Co1461 O1467 2.052 . S
Co1461 O1469 2.135 . S
O1462 Co1461 2.061 . S
O1462 C1465 1.235 . S
C1463 O1466 1.238 . S
C1463 O1467 1.241 . S
C1464 O1457 1.247 . S
C1464 O1458 1.261 . S
C1465 O1460 1.259 . S
C1465 O1462 1.235 . S
O1466 Co1456 2.021 . S
O1466 C1463 1.238 . S
O1467 Co1461 2.052 . S
O1467 C1463 1.241 . S
O1468 Co1456 2.137 . S
O1468 C1459 1.247 . S
O1469 Co1456 2.244 . S
O1469 C1459 1.272 . S
O1469 Co1461 2.135 . S
Co1470 O1471 2.216 . S
Co1470 O1472 2.091 . S
Co1470 O1474 2.004 . S
Co1470 O1480 2.021 . S
Co1470 O1482 2.137 . S
Co1470 O1483 2.244 . S
O1471 Co1470 2.216 . S
O1471 C1478 1.247 . S
O1472 Co1470 2.091 . S
O1472 C1478 1.261 . S
C1473 O1482 1.247 . S
C1473 O1483 1.272 . S
O1474 Co1470 2.004 . S
O1474 C1479 1.259 . S
Co1475 O1476 2.061 . S
Co1475 O1481 2.052 . S
Co1475 O1483 2.135 . S
O1476 Co1475 2.061 . S
O1476 C1479 1.235 . S
C1477 O1480 1.238 . S
C1477 O1481 1.241 . S
C1478 O1471 1.247 . S
C1478 O1472 1.261 . S
C1479 O1474 1.259 . S
C1479 O1476 1.235 . S
O1480 Co1470 2.021 . S
O1480 C1477 1.238 . S
O1481 Co1475 2.052 . S
O1481 C1477 1.241 . S
O1482 Co1470 2.137 . S
O1482 C1473 1.247 . S
O1483 Co1470 2.244 . S
O1483 C1473 1.272 . S
O1483 Co1475 2.135 . S
Co1484 O1485 2.216 . S
Co1484 O1486 2.091 . S
Co1484 O1488 2.004 . S
Co1484 O1494 2.021 . S
Co1484 O1496 2.137 . S
Co1484 O1497 2.244 . S
O1485 Co1484 2.216 . S
O1485 C1492 1.247 . S
O1486 Co1484 2.091 . S
O1486 C1492 1.261 . S
C1487 O1496 1.247 . S
C1487 O1497 1.272 . S
O1488 Co1484 2.004 . S
O1488 C1493 1.259 . S
Co1489 O1490 2.061 . S
Co1489 O1495 2.052 . S
Co1489 O1497 2.135 . S
O1490 Co1489 2.061 . S
O1490 C1493 1.235 . S
C1491 O1494 1.238 . S
C1491 O1495 1.241 . S
C1492 O1485 1.247 . S
C1492 O1486 1.261 . S
C1493 O1488 1.259 . S
C1493 O1490 1.235 . S
O1494 Co1484 2.021 . S
O1494 C1491 1.238 . S
O1495 Co1489 2.052 . S
O1495 C1491 1.241 . S
O1496 Co1484 2.137 . S
O1496 C1487 1.247 . S
O1497 Co1484 2.244 . S
O1497 C1487 1.272 . S
O1497 Co1489 2.135 . S
Co1498 O1499 2.216 . S
Co1498 O1500 2.091 . S
Co1498 O1502 2.004 . S
Co1498 O1508 2.021 . S
Co1498 O1510 2.137 . S
Co1498 O1511 2.244 . S
O1499 Co1498 2.216 . S
O1499 C1506 1.247 . S
O1500 Co1498 2.091 . S
O1500 C1506 1.261 . S
C1501 O1510 1.247 . S
C1501 O1511 1.272 . S
O1502 Co1498 2.004 . S
O1502 C1507 1.259 . S
Co1503 O1504 2.061 . S
Co1503 O1509 2.052 . S
Co1503 O1511 2.135 . S
O1504 Co1503 2.061 . S
O1504 C1507 1.235 . S
C1505 O1508 1.238 . S
C1505 O1509 1.241 . S
C1506 O1499 1.247 . S
C1506 O1500 1.261 . S
C1507 O1502 1.259 . S
C1507 O1504 1.235 . S
O1508 Co1498 2.021 . S
O1508 C1505 1.238 . S
O1509 Co1503 2.052 . S
O1509 C1505 1.241 . S
O1510 Co1498 2.137 . S
O1510 C1501 1.247 . S
O1511 Co1498 2.244 . S
O1511 C1501 1.272 . S
O1511 Co1503 2.135 . S
Co1512 O1513 2.216 . S
Co1512 O1514 2.091 . S
Co1512 O1516 2.004 . S
Co1512 O1522 2.021 . S
Co1512 O1524 2.137 . S
Co1512 O1525 2.244 . S
O1513 Co1512 2.216 . S
O1513 C1520 1.247 . S
O1514 Co1512 2.091 . S
O1514 C1520 1.261 . S
C1515 O1524 1.247 . S
C1515 O1525 1.272 . S
O1516 Co1512 2.004 . S
O1516 C1521 1.259 . S
Co1517 O1518 2.061 . S
Co1517 O1523 2.052 . S
Co1517 O1525 2.135 . S
O1518 Co1517 2.061 . S
O1518 C1521 1.235 . S
C1519 O1522 1.238 . S
C1519 O1523 1.241 . S
C1520 O1513 1.247 . S
C1520 O1514 1.261 . S
C1521 O1516 1.259 . S
C1521 O1518 1.235 . S
O1522 Co1512 2.021 . S
O1522 C1519 1.238 . S
O1523 Co1517 2.052 . S
O1523 C1519 1.241 . S
O1524 Co1512 2.137 . S
O1524 C1515 1.247 . S
O1525 Co1512 2.244 . S
O1525 C1515 1.272 . S
O1525 Co1517 2.135 . S
Co1526 O1527 2.216 . S
Co1526 O1528 2.091 . S
Co1526 O1530 2.004 . S
Co1526 O1536 2.021 . S
Co1526 O1538 2.137 . S
Co1526 O1539 2.244 . S
O1527 Co1526 2.216 . S
O1527 C1534 1.247 . S
O1528 Co1526 2.091 . S
O1528 C1534 1.261 . S
C1529 O1538 1.247 . S
C1529 O1539 1.272 . S
O1530 Co1526 2.004 . S
O1530 C1535 1.259 . S
Co1531 O1532 2.061 . S
Co1531 O1537 2.052 . S
Co1531 O1539 2.135 . S
O1532 Co1531 2.061 . S
O1532 C1535 1.235 . S
C1533 O1536 1.238 . S
C1533 O1537 1.241 . S
C1534 O1527 1.247 . S
C1534 O1528 1.261 . S
C1535 O1530 1.259 . S
C1535 O1532 1.235 . S
O1536 Co1526 2.021 . S
O1536 C1533 1.238 . S
O1537 Co1531 2.052 . S
O1537 C1533 1.241 . S
O1538 Co1526 2.137 . S
O1538 C1529 1.247 . S
O1539 Co1526 2.244 . S
O1539 C1529 1.272 . S
O1539 Co1531 2.135 . S
Co1540 O1541 2.216 . S
Co1540 O1542 2.091 . S
Co1540 O1544 2.004 . S
Co1540 O1550 2.021 . S
Co1540 O1552 2.137 . S
Co1540 O1553 2.244 . S
O1541 Co1540 2.216 . S
O1541 C1548 1.247 . S
O1542 Co1540 2.091 . S
O1542 C1548 1.261 . S
C1543 O1552 1.247 . S
C1543 O1553 1.272 . S
O1544 Co1540 2.004 . S
O1544 C1549 1.259 . S
Co1545 O1546 2.061 . S
Co1545 O1551 2.052 . S
Co1545 O1553 2.135 . S
O1546 Co1545 2.061 . S
O1546 C1549 1.235 . S
C1547 O1550 1.238 . S
C1547 O1551 1.241 . S
C1548 O1541 1.247 . S
C1548 O1542 1.261 . S
C1549 O1544 1.259 . S
C1549 O1546 1.235 . S
O1550 Co1540 2.021 . S
O1550 C1547 1.238 . S
O1551 Co1545 2.052 . S
O1551 C1547 1.241 . S
O1552 Co1540 2.137 . S
O1552 C1543 1.247 . S
O1553 Co1540 2.244 . S
O1553 C1543 1.272 . S
O1553 Co1545 2.135 . S
Co1554 O1555 2.216 . S
Co1554 O1556 2.091 . S
Co1554 O1558 2.004 . S
Co1554 O1564 2.021 . S
Co1554 O1566 2.137 . S
Co1554 O1567 2.244 . S
O1555 Co1554 2.216 . S
O1555 C1562 1.247 . S
O1556 Co1554 2.091 . S
O1556 C1562 1.261 . S
C1557 O1566 1.247 . S
C1557 O1567 1.272 . S
O1558 Co1554 2.004 . S
O1558 C1563 1.259 . S
Co1559 O1560 2.061 . S
Co1559 O1565 2.052 . S
Co1559 O1567 2.135 . S
O1560 Co1559 2.061 . S
O1560 C1563 1.235 . S
C1561 O1564 1.238 . S
C1561 O1565 1.241 . S
C1562 O1555 1.247 . S
C1562 O1556 1.261 . S
C1563 O1558 1.259 . S
C1563 O1560 1.235 . S
O1564 Co1554 2.021 . S
O1564 C1561 1.238 . S
O1565 Co1559 2.052 . S
O1565 C1561 1.241 . S
O1566 Co1554 2.137 . S
O1566 C1557 1.247 . S
O1567 Co1554 2.244 . S
O1567 C1557 1.272 . S
O1567 Co1559 2.135 . S
Co1568 O1569 2.216 . S
Co1568 O1570 2.091 . S
Co1568 O1572 2.004 . S
Co1568 O1578 2.021 . S
Co1568 O1580 2.137 . S
Co1568 O1581 2.244 . S
O1569 Co1568 2.216 . S
O1569 C1576 1.247 . S
O1570 Co1568 2.091 . S
O1570 C1576 1.261 . S
C1571 O1580 1.247 . S
C1571 O1581 1.272 . S
O1572 Co1568 2.004 . S
O1572 C1577 1.259 . S
Co1573 O1574 2.061 . S
Co1573 O1579 2.052 . S
Co1573 O1581 2.135 . S
O1574 Co1573 2.061 . S
O1574 C1577 1.235 . S
C1575 O1578 1.238 . S
C1575 O1579 1.241 . S
C1576 O1569 1.247 . S
C1576 O1570 1.261 . S
C1577 O1572 1.259 . S
C1577 O1574 1.235 . S
O1578 Co1568 2.021 . S
O1578 C1575 1.238 . S
O1579 Co1573 2.052 . S
O1579 C1575 1.241 . S
O1580 Co1568 2.137 . S
O1580 C1571 1.247 . S
O1581 Co1568 2.244 . S
O1581 C1571 1.272 . S
O1581 Co1573 2.135 . S
Co1582 O1583 2.216 . S
Co1582 O1584 2.091 . S
Co1582 O1586 2.004 . S
Co1582 O1592 2.021 . S
Co1582 O1594 2.137 . S
Co1582 O1595 2.244 . S
O1583 Co1582 2.216 . S
O1583 C1590 1.247 . S
O1584 Co1582 2.091 . S
O1584 C1590 1.261 . S
C1585 O1594 1.247 . S
C1585 O1595 1.272 . S
O1586 Co1582 2.004 . S
O1586 C1591 1.259 . S
Co1587 O1588 2.061 . S
Co1587 O1593 2.052 . S
Co1587 O1595 2.135 . S
O1588 Co1587 2.061 . S
O1588 C1591 1.235 . S
C1589 O1592 1.238 . S
C1589 O1593 1.241 . S
C1590 O1583 1.247 . S
C1590 O1584 1.261 . S
C1591 O1586 1.259 . S
C1591 O1588 1.235 . S
O1592 Co1582 2.021 . S
O1592 C1589 1.238 . S
O1593 Co1587 2.052 . S
O1593 C1589 1.241 . S
O1594 Co1582 2.137 . S
O1594 C1585 1.247 . S
O1595 Co1582 2.244 . S
O1595 C1585 1.272 . S
O1595 Co1587 2.135 . S
Co1596 O1597 2.216 . S
Co1596 O1598 2.091 . S
Co1596 O1600 2.004 . S
Co1596 O1606 2.021 . S
Co1596 O1608 2.137 . S
Co1596 O1609 2.244 . S
O1597 Co1596 2.216 . S
O1597 C1604 1.247 . S
O1598 Co1596 2.091 . S
O1598 C1604 1.261 . S
C1599 O1608 1.247 . S
C1599 O1609 1.272 . S
O1600 Co1596 2.004 . S
O1600 C1605 1.259 . S
Co1601 O1602 2.061 . S
Co1601 O1607 2.052 . S
Co1601 O1609 2.135 . S
O1602 Co1601 2.061 . S
O1602 C1605 1.235 . S
C1603 O1606 1.238 . S
C1603 O1607 1.241 . S
C1604 O1597 1.247 . S
C1604 O1598 1.261 . S
C1605 O1600 1.259 . S
C1605 O1602 1.235 . S
O1606 Co1596 2.021 . S
O1606 C1603 1.238 . S
O1607 Co1601 2.052 . S
O1607 C1603 1.241 . S
O1608 Co1596 2.137 . S
O1608 C1599 1.247 . S
O1609 Co1596 2.244 . S
O1609 C1599 1.272 . S
O1609 Co1601 2.135 . S
Co1610 O1611 2.216 . S
Co1610 O1612 2.091 . S
Co1610 O1614 2.004 . S
Co1610 O1620 2.021 . S
Co1610 O1622 2.137 . S
Co1610 O1623 2.244 . S
O1611 Co1610 2.216 . S
O1611 C1618 1.247 . S
O1612 Co1610 2.091 . S
O1612 C1618 1.261 . S
C1613 O1622 1.247 . S
C1613 O1623 1.272 . S
O1614 Co1610 2.004 . S
O1614 C1619 1.259 . S
Co1615 O1616 2.061 . S
Co1615 O1621 2.052 . S
Co1615 O1623 2.135 . S
O1616 Co1615 2.061 . S
O1616 C1619 1.235 . S
C1617 O1620 1.238 . S
C1617 O1621 1.241 . S
C1618 O1611 1.247 . S
C1618 O1612 1.261 . S
C1619 O1614 1.259 . S
C1619 O1616 1.235 . S
O1620 Co1610 2.021 . S
O1620 C1617 1.238 . S
O1621 Co1615 2.052 . S
O1621 C1617 1.241 . S
O1622 Co1610 2.137 . S
O1622 C1613 1.247 . S
O1623 Co1610 2.244 . S
O1623 C1613 1.272 . S
O1623 Co1615 2.135 . S
Co1624 O1625 2.216 . S
Co1624 O1626 2.091 . S
Co1624 O1628 2.004 . S
Co1624 O1634 2.021 . S
Co1624 O1636 2.137 . S
Co1624 O1637 2.244 . S
O1625 Co1624 2.216 . S
O1625 C1632 1.247 . S
O1626 Co1624 2.091 . S
O1626 C1632 1.261 . S
C1627 O1636 1.247 . S
C1627 O1637 1.272 . S
O1628 Co1624 2.004 . S
O1628 C1633 1.259 . S
Co1629 O1630 2.061 . S
Co1629 O1635 2.052 . S
Co1629 O1637 2.135 . S
O1630 Co1629 2.061 . S
O1630 C1633 1.235 . S
C1631 O1634 1.238 . S
C1631 O1635 1.241 . S
C1632 O1625 1.247 . S
C1632 O1626 1.261 . S
C1633 O1628 1.259 . S
C1633 O1630 1.235 . S
O1634 Co1624 2.021 . S
O1634 C1631 1.238 . S
O1635 Co1629 2.052 . S
O1635 C1631 1.241 . S
O1636 Co1624 2.137 . S
O1636 C1627 1.247 . S
O1637 Co1624 2.244 . S
O1637 C1627 1.272 . S
O1637 Co1629 2.135 . S
Co1638 O1639 2.216 . S
Co1638 O1640 2.091 . S
Co1638 O1642 2.004 . S
Co1638 O1648 2.021 . S
Co1638 O1650 2.137 . S
Co1638 O1651 2.244 . S
O1639 Co1638 2.216 . S
O1639 C1646 1.247 . S
O1640 Co1638 2.091 . S
O1640 C1646 1.261 . S
C1641 O1650 1.247 . S
C1641 O1651 1.272 . S
O1642 Co1638 2.004 . S
O1642 C1647 1.259 . S
Co1643 O1644 2.061 . S
Co1643 O1649 2.052 . S
Co1643 O1651 2.135 . S
O1644 Co1643 2.061 . S
O1644 C1647 1.235 . S
C1645 O1648 1.238 . S
C1645 O1649 1.241 . S
C1646 O1639 1.247 . S
C1646 O1640 1.261 . S
C1647 O1642 1.259 . S
C1647 O1644 1.235 . S
O1648 Co1638 2.021 . S
O1648 C1645 1.238 . S
O1649 Co1643 2.052 . S
O1649 C1645 1.241 . S
O1650 Co1638 2.137 . S
O1650 C1641 1.247 . S
O1651 Co1638 2.244 . S
O1651 C1641 1.272 . S
O1651 Co1643 2.135 . S
Co1652 O1653 2.216 . S
Co1652 O1654 2.091 . S
Co1652 O1656 2.004 . S
Co1652 O1662 2.021 . S
Co1652 O1664 2.137 . S
Co1652 O1665 2.244 . S
O1653 Co1652 2.216 . S
O1653 C1660 1.247 . S
O1654 Co1652 2.091 . S
O1654 C1660 1.261 . S
C1655 O1664 1.247 . S
C1655 O1665 1.272 . S
O1656 Co1652 2.004 . S
O1656 C1661 1.259 . S
Co1657 O1658 2.061 . S
Co1657 O1663 2.052 . S
Co1657 O1665 2.135 . S
O1658 Co1657 2.061 . S
O1658 C1661 1.235 . S
C1659 O1662 1.238 . S
C1659 O1663 1.241 . S
C1660 O1653 1.247 . S
C1660 O1654 1.261 . S
C1661 O1656 1.259 . S
C1661 O1658 1.235 . S
O1662 Co1652 2.021 . S
O1662 C1659 1.238 . S
O1663 Co1657 2.052 . S
O1663 C1659 1.241 . S
O1664 Co1652 2.137 . S
O1664 C1655 1.247 . S
O1665 Co1652 2.244 . S
O1665 C1655 1.272 . S
O1665 Co1657 2.135 . S
Co1666 O1667 2.216 . S
Co1666 O1668 2.091 . S
Co1666 O1670 2.004 . S
Co1666 O1676 2.021 . S
Co1666 O1678 2.137 . S
Co1666 O1679 2.244 . S
O1667 Co1666 2.216 . S
O1667 C1674 1.247 . S
O1668 Co1666 2.091 . S
O1668 C1674 1.261 . S
C1669 O1678 1.247 . S
C1669 O1679 1.272 . S
O1670 Co1666 2.004 . S
O1670 C1675 1.259 . S
Co1671 O1672 2.061 . S
Co1671 O1677 2.052 . S
Co1671 O1679 2.135 . S
O1672 Co1671 2.061 . S
O1672 C1675 1.235 . S
C1673 O1676 1.238 . S
C1673 O1677 1.241 . S
C1674 O1667 1.247 . S
C1674 O1668 1.261 . S
C1675 O1670 1.259 . S
C1675 O1672 1.235 . S
O1676 Co1666 2.021 . S
O1676 C1673 1.238 . S
O1677 Co1671 2.052 . S
O1677 C1673 1.241 . S
O1678 Co1666 2.137 . S
O1678 C1669 1.247 . S
O1679 Co1666 2.244 . S
O1679 C1669 1.272 . S
O1679 Co1671 2.135 . S
Co1680 O1681 2.216 . S
Co1680 O1682 2.091 . S
Co1680 O1684 2.004 . S
Co1680 O1690 2.021 . S
Co1680 O1692 2.137 . S
Co1680 O1693 2.244 . S
O1681 Co1680 2.216 . S
O1681 C1688 1.247 . S
O1682 Co1680 2.091 . S
O1682 C1688 1.261 . S
C1683 O1692 1.247 . S
C1683 O1693 1.272 . S
O1684 Co1680 2.004 . S
O1684 C1689 1.259 . S
Co1685 O1686 2.061 . S
Co1685 O1691 2.052 . S
Co1685 O1693 2.135 . S
O1686 Co1685 2.061 . S
O1686 C1689 1.235 . S
C1687 O1690 1.238 . S
C1687 O1691 1.241 . S
C1688 O1681 1.247 . S
C1688 O1682 1.261 . S
C1689 O1684 1.259 . S
C1689 O1686 1.235 . S
O1690 Co1680 2.021 . S
O1690 C1687 1.238 . S
O1691 Co1685 2.052 . S
O1691 C1687 1.241 . S
O1692 Co1680 2.137 . S
O1692 C1683 1.247 . S
O1693 Co1680 2.244 . S
O1693 C1683 1.272 . S
O1693 Co1685 2.135 . S
Co1694 O1695 2.216 . S
Co1694 O1696 2.091 . S
Co1694 O1698 2.004 . S
Co1694 O1704 2.021 . S
Co1694 O1706 2.137 . S
Co1694 O1707 2.244 . S
O1695 Co1694 2.216 . S
O1695 C1702 1.247 . S
O1696 Co1694 2.091 . S
O1696 C1702 1.261 . S
C1697 O1706 1.247 . S
C1697 O1707 1.272 . S
O1698 Co1694 2.004 . S
O1698 C1703 1.259 . S
Co1699 O1700 2.061 . S
Co1699 O1705 2.052 . S
Co1699 O1707 2.135 . S
O1700 Co1699 2.061 . S
O1700 C1703 1.235 . S
C1701 O1704 1.238 . S
C1701 O1705 1.241 . S
C1702 O1695 1.247 . S
C1702 O1696 1.261 . S
C1703 O1698 1.259 . S
C1703 O1700 1.235 . S
O1704 Co1694 2.021 . S
O1704 C1701 1.238 . S
O1705 Co1699 2.052 . S
O1705 C1701 1.241 . S
O1706 Co1694 2.137 . S
O1706 C1697 1.247 . S
O1707 Co1694 2.244 . S
O1707 C1697 1.272 . S
O1707 Co1699 2.135 . S
Co1708 O1709 2.216 . S
Co1708 O1710 2.091 . S
Co1708 O1712 2.004 . S
Co1708 O1718 2.021 . S
Co1708 O1720 2.137 . S
Co1708 O1721 2.244 . S
O1709 Co1708 2.216 . S
O1709 C1716 1.247 . S
O1710 Co1708 2.091 . S
O1710 C1716 1.261 . S
C1711 O1720 1.247 . S
C1711 O1721 1.272 . S
O1712 Co1708 2.004 . S
O1712 C1717 1.259 . S
Co1713 O1714 2.061 . S
Co1713 O1719 2.052 . S
Co1713 O1721 2.135 . S
O1714 Co1713 2.061 . S
O1714 C1717 1.235 . S
C1715 O1718 1.238 . S
C1715 O1719 1.241 . S
C1716 O1709 1.247 . S
C1716 O1710 1.261 . S
C1717 O1712 1.259 . S
C1717 O1714 1.235 . S
O1718 Co1708 2.021 . S
O1718 C1715 1.238 . S
O1719 Co1713 2.052 . S
O1719 C1715 1.241 . S
O1720 Co1708 2.137 . S
O1720 C1711 1.247 . S
O1721 Co1708 2.244 . S
O1721 C1711 1.272 . S
O1721 Co1713 2.135 . S
Co1722 O1723 2.216 . S
Co1722 O1724 2.091 . S
Co1722 O1726 2.004 . S
Co1722 O1732 2.021 . S
Co1722 O1734 2.137 . S
Co1722 O1735 2.244 . S
O1723 Co1722 2.216 . S
O1723 C1730 1.247 . S
O1724 Co1722 2.091 . S
O1724 C1730 1.261 . S
C1725 O1734 1.247 . S
C1725 O1735 1.272 . S
O1726 Co1722 2.004 . S
O1726 C1731 1.259 . S
Co1727 O1728 2.061 . S
Co1727 O1733 2.052 . S
Co1727 O1735 2.135 . S
O1728 Co1727 2.061 . S
O1728 C1731 1.235 . S
C1729 O1732 1.238 . S
C1729 O1733 1.241 . S
C1730 O1723 1.247 . S
C1730 O1724 1.261 . S
C1731 O1726 1.259 . S
C1731 O1728 1.235 . S
O1732 Co1722 2.021 . S
O1732 C1729 1.238 . S
O1733 Co1727 2.052 . S
O1733 C1729 1.241 . S
O1734 Co1722 2.137 . S
O1734 C1725 1.247 . S
O1735 Co1722 2.244 . S
O1735 C1725 1.272 . S
O1735 Co1727 2.135 . S
Co1736 O1737 2.216 . S
Co1736 O1738 2.091 . S
Co1736 O1740 2.004 . S
Co1736 O1746 2.021 . S
Co1736 O1748 2.137 . S
Co1736 O1749 2.244 . S
O1737 Co1736 2.216 . S
O1737 C1744 1.247 . S
O1738 Co1736 2.091 . S
O1738 C1744 1.261 . S
C1739 O1748 1.247 . S
C1739 O1749 1.272 . S
O1740 Co1736 2.004 . S
O1740 C1745 1.259 . S
Co1741 O1742 2.061 . S
Co1741 O1747 2.052 . S
Co1741 O1749 2.135 . S
O1742 Co1741 2.061 . S
O1742 C1745 1.235 . S
C1743 O1746 1.238 . S
C1743 O1747 1.241 . S
C1744 O1737 1.247 . S
C1744 O1738 1.261 . S
C1745 O1740 1.259 . S
C1745 O1742 1.235 . S
O1746 Co1736 2.021 . S
O1746 C1743 1.238 . S
O1747 Co1741 2.052 . S
O1747 C1743 1.241 . S
O1748 Co1736 2.137 . S
O1748 C1739 1.247 . S
O1749 Co1736 2.244 . S
O1749 C1739 1.272 . S
O1749 Co1741 2.135 . S
Co1750 O1751 2.216 . S
Co1750 O1752 2.091 . S
Co1750 O1754 2.004 . S
Co1750 O1760 2.021 . S
Co1750 O1762 2.137 . S
Co1750 O1763 2.244 . S
O1751 Co1750 2.216 . S
O1751 C1758 1.247 . S
O1752 Co1750 2.091 . S
O1752 C1758 1.261 . S
C1753 O1762 1.247 . S
C1753 O1763 1.272 . S
O1754 Co1750 2.004 . S
O1754 C1759 1.259 . S
Co1755 O1756 2.061 . S
Co1755 O1761 2.052 . S
Co1755 O1763 2.135 . S
O1756 Co1755 2.061 . S
O1756 C1759 1.235 . S
C1757 O1760 1.238 . S
C1757 O1761 1.241 . S
C1758 O1751 1.247 . S
C1758 O1752 1.261 . S
C1759 O1754 1.259 . S
C1759 O1756 1.235 . S
O1760 Co1750 2.021 . S
O1760 C1757 1.238 . S
O1761 Co1755 2.052 . S
O1761 C1757 1.241 . S
O1762 Co1750 2.137 . S
O1762 C1753 1.247 . S
O1763 Co1750 2.244 . S
O1763 C1753 1.272 . S
O1763 Co1755 2.135 . S
Co1764 O1765 2.216 . S
Co1764 O1766 2.091 . S
Co1764 O1768 2.004 . S
Co1764 O1774 2.021 . S
Co1764 O1776 2.137 . S
Co1764 O1777 2.244 . S
O1765 Co1764 2.216 . S
O1765 C1772 1.247 . S
O1766 Co1764 2.091 . S
O1766 C1772 1.261 . S
C1767 O1776 1.247 . S
C1767 O1777 1.272 . S
O1768 Co1764 2.004 . S
O1768 C1773 1.259 . S
Co1769 O1770 2.061 . S
Co1769 O1775 2.052 . S
Co1769 O1777 2.135 . S
O1770 Co1769 2.061 . S
O1770 C1773 1.235 . S
C1771 O1774 1.238 . S
C1771 O1775 1.241 . S
C1772 O1765 1.247 . S
C1772 O1766 1.261 . S
C1773 O1768 1.259 . S
C1773 O1770 1.235 . S
O1774 Co1764 2.021 . S
O1774 C1771 1.238 . S
O1775 Co1769 2.052 . S
O1775 C1771 1.241 . S
O1776 Co1764 2.137 . S
O1776 C1767 1.247 . S
O1777 Co1764 2.244 . S
O1777 C1767 1.272 . S
O1777 Co1769 2.135 . S
Co1778 O1779 2.216 . S
Co1778 O1780 2.091 . S
Co1778 O1782 2.004 . S
Co1778 O1788 2.021 . S
Co1778 O1790 2.137 . S
Co1778 O1791 2.244 . S
O1779 Co1778 2.216 . S
O1779 C1786 1.247 . S
O1780 Co1778 2.091 . S
O1780 C1786 1.261 . S
C1781 O1790 1.247 . S
C1781 O1791 1.272 . S
O1782 Co1778 2.004 . S
O1782 C1787 1.259 . S
Co1783 O1784 2.061 . S
Co1783 O1789 2.052 . S
Co1783 O1791 2.135 . S
O1784 Co1783 2.061 . S
O1784 C1787 1.235 . S
C1785 O1788 1.238 . S
C1785 O1789 1.241 . S
C1786 O1779 1.247 . S
C1786 O1780 1.261 . S
C1787 O1782 1.259 . S
C1787 O1784 1.235 . S
O1788 Co1778 2.021 . S
O1788 C1785 1.238 . S
O1789 Co1783 2.052 . S
O1789 C1785 1.241 . S
O1790 Co1778 2.137 . S
O1790 C1781 1.247 . S
O1791 Co1778 2.244 . S
O1791 C1781 1.272 . S
O1791 Co1783 2.135 . S
Co1792 O1793 2.216 . S
Co1792 O1794 2.091 . S
Co1792 O1796 2.004 . S
Co1792 O1802 2.021 . S
Co1792 O1804 2.137 . S
Co1792 O1805 2.244 . S
O1793 Co1792 2.216 . S
O1793 C1800 1.247 . S
O1794 Co1792 2.091 . S
O1794 C1800 1.261 . S
C1795 O1804 1.247 . S
C1795 O1805 1.272 . S
O1796 Co1792 2.004 . S
O1796 C1801 1.259 . S
Co1797 O1798 2.061 . S
Co1797 O1803 2.052 . S
Co1797 O1805 2.135 . S
O1798 Co1797 2.061 . S
O1798 C1801 1.235 . S
C1799 O1802 1.238 . S
C1799 O1803 1.241 . S
C1800 O1793 1.247 . S
C1800 O1794 1.261 . S
C1801 O1796 1.259 . S
C1801 O1798 1.235 . S
O1802 Co1792 2.021 . S
O1802 C1799 1.238 . S
O1803 Co1797 2.052 . S
O1803 C1799 1.241 . S
O1804 Co1792 2.137 . S
O1804 C1795 1.247 . S
O1805 Co1792 2.244 . S
O1805 C1795 1.272 . S
O1805 Co1797 2.135 . S
Co1806 O1807 2.216 . S
Co1806 O1808 2.091 . S
Co1806 O1810 2.004 . S
Co1806 O1816 2.021 . S
Co1806 O1818 2.137 . S
Co1806 O1819 2.244 . S
O1807 Co1806 2.216 . S
O1807 C1814 1.247 . S
O1808 Co1806 2.091 . S
O1808 C1814 1.261 . S
C1809 O1818 1.247 . S
C1809 O1819 1.272 . S
O1810 Co1806 2.004 . S
O1810 C1815 1.259 . S
Co1811 O1812 2.061 . S
Co1811 O1817 2.052 . S
Co1811 O1819 2.135 . S
O1812 Co1811 2.061 . S
O1812 C1815 1.235 . S
C1813 O1816 1.238 . S
C1813 O1817 1.241 . S
C1814 O1807 1.247 . S
C1814 O1808 1.261 . S
C1815 O1810 1.259 . S
C1815 O1812 1.235 . S
O1816 Co1806 2.021 . S
O1816 C1813 1.238 . S
O1817 Co1811 2.052 . S
O1817 C1813 1.241 . S
O1818 Co1806 2.137 . S
O1818 C1809 1.247 . S
O1819 Co1806 2.244 . S
O1819 C1809 1.272 . S
O1819 Co1811 2.135 . S
Co1820 O1821 2.216 . S
Co1820 O1822 2.091 . S
Co1820 O1824 2.004 . S
Co1820 O1830 2.021 . S
Co1820 O1832 2.137 . S
Co1820 O1833 2.244 . S
O1821 Co1820 2.216 . S
O1821 C1828 1.247 . S
O1822 Co1820 2.091 . S
O1822 C1828 1.261 . S
C1823 O1832 1.247 . S
C1823 O1833 1.272 . S
O1824 Co1820 2.004 . S
O1824 C1829 1.259 . S
Co1825 O1826 2.061 . S
Co1825 O1831 2.052 . S
Co1825 O1833 2.135 . S
O1826 Co1825 2.061 . S
O1826 C1829 1.235 . S
C1827 O1830 1.238 . S
C1827 O1831 1.241 . S
C1828 O1821 1.247 . S
C1828 O1822 1.261 . S
C1829 O1824 1.259 . S
C1829 O1826 1.235 . S
O1830 Co1820 2.021 . S
O1830 C1827 1.238 . S
O1831 Co1825 2.052 . S
O1831 C1827 1.241 . S
O1832 Co1820 2.137 . S
O1832 C1823 1.247 . S
O1833 Co1820 2.244 . S
O1833 C1823 1.272 . S
O1833 Co1825 2.135 . S
Co1834 O1835 2.216 . S
Co1834 O1836 2.091 . S
Co1834 O1838 2.004 . S
Co1834 O1844 2.021 . S
Co1834 O1846 2.137 . S
Co1834 O1847 2.244 . S
O1835 Co1834 2.216 . S
O1835 C1842 1.247 . S
O1836 Co1834 2.091 . S
O1836 C1842 1.261 . S
C1837 O1846 1.247 . S
C1837 O1847 1.272 . S
O1838 Co1834 2.004 . S
O1838 C1843 1.259 . S
Co1839 O1840 2.061 . S
Co1839 O1845 2.052 . S
Co1839 O1847 2.135 . S
O1840 Co1839 2.061 . S
O1840 C1843 1.235 . S
C1841 O1844 1.238 . S
C1841 O1845 1.241 . S
C1842 O1835 1.247 . S
C1842 O1836 1.261 . S
C1843 O1838 1.259 . S
C1843 O1840 1.235 . S
O1844 Co1834 2.021 . S
O1844 C1841 1.238 . S
O1845 Co1839 2.052 . S
O1845 C1841 1.241 . S
O1846 Co1834 2.137 . S
O1846 C1837 1.247 . S
O1847 Co1834 2.244 . S
O1847 C1837 1.272 . S
O1847 Co1839 2.135 . S
Co1848 O1849 2.216 . S
Co1848 O1850 2.091 . S
Co1848 O1852 2.004 . S
Co1848 O1858 2.021 . S
Co1848 O1860 2.137 . S
Co1848 O1861 2.244 . S
O1849 Co1848 2.216 . S
O1849 C1856 1.247 . S
O1850 Co1848 2.091 . S
O1850 C1856 1.261 . S
C1851 O1860 1.247 . S
C1851 O1861 1.272 . S
O1852 Co1848 2.004 . S
O1852 C1857 1.259 . S
Co1853 O1854 2.061 . S
Co1853 O1859 2.052 . S
Co1853 O1861 2.135 . S
O1854 Co1853 2.061 . S
O1854 C1857 1.235 . S
C1855 O1858 1.238 . S
C1855 O1859 1.241 . S
C1856 O1849 1.247 . S
C1856 O1850 1.261 . S
C1857 O1852 1.259 . S
C1857 O1854 1.235 . S
O1858 Co1848 2.021 . S
O1858 C1855 1.238 . S
O1859 Co1853 2.052 . S
O1859 C1855 1.241 . S
O1860 Co1848 2.137 . S
O1860 C1851 1.247 . S
O1861 Co1848 2.244 . S
O1861 C1851 1.272 . S
O1861 Co1853 2.135 . S
Co1862 O1863 2.216 . S
Co1862 O1864 2.091 . S
Co1862 O1866 2.004 . S
Co1862 O1872 2.021 . S
Co1862 O1874 2.137 . S
Co1862 O1875 2.244 . S
O1863 Co1862 2.216 . S
O1863 C1870 1.247 . S
O1864 Co1862 2.091 . S
O1864 C1870 1.261 . S
C1865 O1874 1.247 . S
C1865 O1875 1.272 . S
O1866 Co1862 2.004 . S
O1866 C1871 1.259 . S
Co1867 O1868 2.061 . S
Co1867 O1873 2.052 . S
Co1867 O1875 2.135 . S
O1868 Co1867 2.061 . S
O1868 C1871 1.235 . S
C1869 O1872 1.238 . S
C1869 O1873 1.241 . S
C1870 O1863 1.247 . S
C1870 O1864 1.261 . S
C1871 O1866 1.259 . S
C1871 O1868 1.235 . S
O1872 Co1862 2.021 . S
O1872 C1869 1.238 . S
O1873 Co1867 2.052 . S
O1873 C1869 1.241 . S
O1874 Co1862 2.137 . S
O1874 C1865 1.247 . S
O1875 Co1862 2.244 . S
O1875 C1865 1.272 . S
O1875 Co1867 2.135 . S
Co1876 O1877 2.216 . S
Co1876 O1878 2.091 . S
Co1876 O1880 2.004 . S
Co1876 O1886 2.021 . S
Co1876 O1888 2.137 . S
Co1876 O1889 2.244 . S
O1877 Co1876 2.216 . S
O1877 C1884 1.247 . S
O1878 Co1876 2.091 . S
O1878 C1884 1.261 . S
C1879 O1888 1.247 . S
C1879 O1889 1.272 . S
O1880 Co1876 2.004 . S
O1880 C1885 1.259 . S
Co1881 O1882 2.061 . S
Co1881 O1887 2.052 . S
Co1881 O1889 2.135 . S
O1882 Co1881 2.061 . S
O1882 C1885 1.235 . S
C1883 O1886 1.238 . S
C1883 O1887 1.241 . S
C1884 O1877 1.247 . S
C1884 O1878 1.261 . S
C1885 O1880 1.259 . S
C1885 O1882 1.235 . S
O1886 Co1876 2.021 . S
O1886 C1883 1.238 . S
O1887 Co1881 2.052 . S
O1887 C1883 1.241 . S
O1888 Co1876 2.137 . S
O1888 C1879 1.247 . S
O1889 Co1876 2.244 . S
O1889 C1879 1.272 . S
O1889 Co1881 2.135 . S
Co1890 O1891 2.216 . S
Co1890 O1892 2.091 . S
Co1890 O1894 2.004 . S
Co1890 O1900 2.021 . S
Co1890 O1902 2.137 . S
Co1890 O1903 2.244 . S
O1891 Co1890 2.216 . S
O1891 C1898 1.247 . S
O1892 Co1890 2.091 . S
O1892 C1898 1.261 . S
C1893 O1902 1.247 . S
C1893 O1903 1.272 . S
O1894 Co1890 2.004 . S
O1894 C1899 1.259 . S
Co1895 O1896 2.061 . S
Co1895 O1901 2.052 . S
Co1895 O1903 2.135 . S
O1896 Co1895 2.061 . S
O1896 C1899 1.235 . S
C1897 O1900 1.238 . S
C1897 O1901 1.241 . S
C1898 O1891 1.247 . S
C1898 O1892 1.261 . S
C1899 O1894 1.259 . S
C1899 O1896 1.235 . S
O1900 Co1890 2.021 . S
O1900 C1897 1.238 . S
O1901 Co1895 2.052 . S
O1901 C1897 1.241 . S
O1902 Co1890 2.137 . S
O1902 C1893 1.247 . S
O1903 Co1890 2.244 . S
O1903 C1893 1.272 . S
O1903 Co1895 2.135 . S
Co1904 O1905 2.216 . S
Co1904 O1906 2.091 . S
Co1904 O1908 2.004 . S
Co1904 O1914 2.021 . S
Co1904 O1916 2.137 . S
Co1904 O1917 2.244 . S
O1905 Co1904 2.216 . S
O1905 C1912 1.247 . S
O1906 Co1904 2.091 . S
O1906 C1912 1.261 . S
C1907 O1916 1.247 . S
C1907 O1917 1.272 . S
O1908 Co1904 2.004 . S
O1908 C1913 1.259 . S
Co1909 O1910 2.061 . S
Co1909 O1915 2.052 . S
Co1909 O1917 2.135 . S
O1910 Co1909 2.061 . S
O1910 C1913 1.235 . S
C1911 O1914 1.238 . S
C1911 O1915 1.241 . S
C1912 O1905 1.247 . S
C1912 O1906 1.261 . S
C1913 O1908 1.259 . S
C1913 O1910 1.235 . S
O1914 Co1904 2.021 . S
O1914 C1911 1.238 . S
O1915 Co1909 2.052 . S
O1915 C1911 1.241 . S
O1916 Co1904 2.137 . S
O1916 C1907 1.247 . S
O1917 Co1904 2.244 . S
O1917 C1907 1.272 . S
O1917 Co1909 2.135 . S
Co1918 O1919 2.216 . S
Co1918 O1920 2.091 . S
Co1918 O1922 2.004 . S
Co1918 O1928 2.021 . S
Co1918 O1930 2.137 . S
Co1918 O1931 2.244 . S
O1919 Co1918 2.216 . S
O1919 C1926 1.247 . S
O1920 Co1918 2.091 . S
O1920 C1926 1.261 . S
C1921 O1930 1.247 . S
C1921 O1931 1.272 . S
O1922 Co1918 2.004 . S
O1922 C1927 1.259 . S
Co1923 O1924 2.061 . S
Co1923 O1929 2.052 . S
Co1923 O1931 2.135 . S
O1924 Co1923 2.061 . S
O1924 C1927 1.235 . S
C1925 O1928 1.238 . S
C1925 O1929 1.241 . S
C1926 O1919 1.247 . S
C1926 O1920 1.261 . S
C1927 O1922 1.259 . S
C1927 O1924 1.235 . S
O1928 Co1918 2.021 . S
O1928 C1925 1.238 . S
O1929 Co1923 2.052 . S
O1929 C1925 1.241 . S
O1930 Co1918 2.137 . S
O1930 C1921 1.247 . S
O1931 Co1918 2.244 . S
O1931 C1921 1.272 . S
O1931 Co1923 2.135 . S
Co1932 O1933 2.216 . S
Co1932 O1934 2.091 . S
Co1932 O1936 2.004 . S
Co1932 O1942 2.021 . S
Co1932 O1944 2.137 . S
Co1932 O1945 2.244 . S
O1933 Co1932 2.216 . S
O1933 C1940 1.247 . S
O1934 Co1932 2.091 . S
O1934 C1940 1.261 . S
C1935 O1944 1.247 . S
C1935 O1945 1.272 . S
O1936 Co1932 2.004 . S
O1936 C1941 1.259 . S
Co1937 O1938 2.061 . S
Co1937 O1943 2.052 . S
Co1937 O1945 2.135 . S
O1938 Co1937 2.061 . S
O1938 C1941 1.235 . S
C1939 O1942 1.238 . S
C1939 O1943 1.241 . S
C1940 O1933 1.247 . S
C1940 O1934 1.261 . S
C1941 O1936 1.259 . S
C1941 O1938 1.235 . S
O1942 Co1932 2.021 . S
O1942 C1939 1.238 . S
O1943 Co1937 2.052 . S
O1943 C1939 1.241 . S
O1944 Co1932 2.137 . S
O1944 C1935 1.247 . S
O1945 Co1932 2.244 . S
O1945 C1935 1.272 . S
O1945 Co1937 2.135 . S
Co1946 O1947 2.216 . S
Co1946 O1948 2.091 . S
Co1946 O1950 2.004 . S
Co1946 O1956 2.021 . S
Co1946 O1958 2.137 . S
Co1946 O1959 2.244 . S
O1947 Co1946 2.216 . S
O1947 C1954 1.247 . S
O1948 Co1946 2.091 . S
O1948 C1954 1.261 . S
C1949 O1958 1.247 . S
C1949 O1959 1.272 . S
O1950 Co1946 2.004 . S
O1950 C1955 1.259 . S
Co1951 O1952 2.061 . S
Co1951 O1957 2.052 . S
Co1951 O1959 2.135 . S
O1952 Co1951 2.061 . S
O1952 C1955 1.235 . S
C1953 O1956 1.238 . S
C1953 O1957 1.241 . S
C1954 O1947 1.247 . S
C1954 O1948 1.261 . S
C1955 O1950 1.259 . S
C1955 O1952 1.235 . S
O1956 Co1946 2.021 . S
O1956 C1953 1.238 . S
O1957 Co1951 2.052 . S
O1957 C1953 1.241 . S
O1958 Co1946 2.137 . S
O1958 C1949 1.247 . S
O1959 Co1946 2.244 . S
O1959 C1949 1.272 . S
O1959 Co1951 2.135 . S
Co1960 O1961 2.216 . S
Co1960 O1962 2.091 . S
Co1960 O1964 2.004 . S
Co1960 O1970 2.021 . S
Co1960 O1972 2.137 . S
Co1960 O1973 2.244 . S
O1961 Co1960 2.216 . S
O1961 C1968 1.247 . S
O1962 Co1960 2.091 . S
O1962 C1968 1.261 . S
C1963 O1972 1.247 . S
C1963 O1973 1.272 . S
O1964 Co1960 2.004 . S
O1964 C1969 1.259 . S
Co1965 O1966 2.061 . S
Co1965 O1971 2.052 . S
Co1965 O1973 2.135 . S
O1966 Co1965 2.061 . S
O1966 C1969 1.235 . S
C1967 O1970 1.238 . S
C1967 O1971 1.241 . S
C1968 O1961 1.247 . S
C1968 O1962 1.261 . S
C1969 O1964 1.259 . S
C1969 O1966 1.235 . S
O1970 Co1960 2.021 . S
O1970 C1967 1.238 . S
O1971 Co1965 2.052 . S
O1971 C1967 1.241 . S
O1972 Co1960 2.137 . S
O1972 C1963 1.247 . S
O1973 Co1960 2.244 . S
O1973 C1963 1.272 . S
O1973 Co1965 2.135 . S
Co1974 O1975 2.216 . S
Co1974 O1976 2.091 . S
Co1974 O1978 2.004 . S
Co1974 O1984 2.021 . S
Co1974 O1986 2.137 . S
Co1974 O1987 2.244 . S
O1975 Co1974 2.216 . S
O1975 C1982 1.247 . S
O1976 Co1974 2.091 . S
O1976 C1982 1.261 . S
C1977 O1986 1.247 . S
C1977 O1987 1.272 . S
O1978 Co1974 2.004 . S
O1978 C1983 1.259 . S
Co1979 O1980 2.061 . S
Co1979 O1985 2.052 . S
Co1979 O1987 2.135 . S
O1980 Co1979 2.061 . S
O1980 C1983 1.235 . S
C1981 O1984 1.238 . S
C1981 O1985 1.241 . S
C1982 O1975 1.247 . S
C1982 O1976 1.261 . S
C1983 O1978 1.259 . S
C1983 O1980 1.235 . S
O1984 Co1974 2.021 . S
O1984 C1981 1.238 . S
O1985 Co1979 2.052 . S
O1985 C1981 1.241 . S
O1986 Co1974 2.137 . S
O1986 C1977 1.247 . S
O1987 Co1974 2.244 . S
O1987 C1977 1.272 . S
O1987 Co1979 2.135 . S
Co1988 O1989 2.216 . S
Co1988 O1990 2.091 . S
Co1988 O1992 2.004 . S
Co1988 O1998 2.021 . S
Co1988 O2000 2.137 . S
Co1988 O2001 2.244 . S
O1989 Co1988 2.216 . S
O1989 C1996 1.247 . S
O1990 Co1988 2.091 . S
O1990 C1996 1.261 . S
C1991 O2000 1.247 . S
C1991 O2001 1.272 . S
O1992 Co1988 2.004 . S
O1992 C1997 1.259 . S
Co1993 O1994 2.061 . S
Co1993 O1999 2.052 . S
Co1993 O2001 2.135 . S
O1994 Co1993 2.061 . S
O1994 C1997 1.235 . S
C1995 O1998 1.238 . S
C1995 O1999 1.241 . S
C1996 O1989 1.247 . S
C1996 O1990 1.261 . S
C1997 O1992 1.259 . S
C1997 O1994 1.235 . S
O1998 Co1988 2.021 . S
O1998 C1995 1.238 . S
O1999 Co1993 2.052 . S
O1999 C1995 1.241 . S
O2000 Co1988 2.137 . S
O2000 C1991 1.247 . S
O2001 Co1988 2.244 . S
O2001 C1991 1.272 . S
O2001 Co1993 2.135 . S
Co2002 O2003 2.216 . S
Co2002 O2004 2.091 . S
Co2002 O2006 2.004 . S
Co2002 O2012 2.021 . S
Co2002 O2014 2.137 . S
Co2002 O2015 2.244 . S
O2003 Co2002 2.216 . S
O2003 C2010 1.247 . S
O2004 Co2002 2.091 . S
O2004 C2010 1.261 . S
C2005 O2014 1.247 . S
C2005 O2015 1.272 . S
O2006 Co2002 2.004 . S
O2006 C2011 1.259 . S
Co2007 O2008 2.061 . S
Co2007 O2013 2.052 . S
Co2007 O2015 2.135 . S
O2008 Co2007 2.061 . S
O2008 C2011 1.235 . S
C2009 O2012 1.238 . S
C2009 O2013 1.241 . S
C2010 O2003 1.247 . S
C2010 O2004 1.261 . S
C2011 O2006 1.259 . S
C2011 O2008 1.235 . S
O2012 Co2002 2.021 . S
O2012 C2009 1.238 . S
O2013 Co2007 2.052 . S
O2013 C2009 1.241 . S
O2014 Co2002 2.137 . S
O2014 C2005 1.247 . S
O2015 Co2002 2.244 . S
O2015 C2005 1.272 . S
O2015 Co2007 2.135 . S
Co2016 O2017 2.216 . S
Co2016 O2018 2.091 . S
Co2016 O2020 2.004 . S
Co2016 O2026 2.021 . S
Co2016 O2028 2.137 . S
Co2016 O2029 2.244 . S
O2017 Co2016 2.216 . S
O2017 C2024 1.247 . S
O2018 Co2016 2.091 . S
O2018 C2024 1.261 . S
C2019 O2028 1.247 . S
C2019 O2029 1.272 . S
O2020 Co2016 2.004 . S
O2020 C2025 1.259 . S
Co2021 O2022 2.061 . S
Co2021 O2027 2.052 . S
Co2021 O2029 2.135 . S
O2022 Co2021 2.061 . S
O2022 C2025 1.235 . S
C2023 O2026 1.238 . S
C2023 O2027 1.241 . S
C2024 O2017 1.247 . S
C2024 O2018 1.261 . S
C2025 O2020 1.259 . S
C2025 O2022 1.235 . S
O2026 Co2016 2.021 . S
O2026 C2023 1.238 . S
O2027 Co2021 2.052 . S
O2027 C2023 1.241 . S
O2028 Co2016 2.137 . S
O2028 C2019 1.247 . S
O2029 Co2016 2.244 . S
O2029 C2019 1.272 . S
O2029 Co2021 2.135 . S
Co2030 O2031 2.216 . S
Co2030 O2032 2.091 . S
Co2030 O2034 2.004 . S
Co2030 O2040 2.021 . S
Co2030 O2042 2.137 . S
Co2030 O2043 2.244 . S
O2031 Co2030 2.216 . S
O2031 C2038 1.247 . S
O2032 Co2030 2.091 . S
O2032 C2038 1.261 . S
C2033 O2042 1.247 . S
C2033 O2043 1.272 . S
O2034 Co2030 2.004 . S
O2034 C2039 1.259 . S
Co2035 O2036 2.061 . S
Co2035 O2041 2.052 . S
Co2035 O2043 2.135 . S
O2036 Co2035 2.061 . S
O2036 C2039 1.235 . S
C2037 O2040 1.238 . S
C2037 O2041 1.241 . S
C2038 O2031 1.247 . S
C2038 O2032 1.261 . S
C2039 O2034 1.259 . S
C2039 O2036 1.235 . S
O2040 Co2030 2.021 . S
O2040 C2037 1.238 . S
O2041 Co2035 2.052 . S
O2041 C2037 1.241 . S
O2042 Co2030 2.137 . S
O2042 C2033 1.247 . S
O2043 Co2030 2.244 . S
O2043 C2033 1.272 . S
O2043 Co2035 2.135 . S
Co2044 O2045 2.216 . S
Co2044 O2046 2.091 . S
Co2044 O2048 2.004 . S
Co2044 O2054 2.021 . S
Co2044 O2056 2.137 . S
Co2044 O2057 2.244 . S
O2045 Co2044 2.216 . S
O2045 C2052 1.247 . S
O2046 Co2044 2.091 . S
O2046 C2052 1.261 . S
C2047 O2056 1.247 . S
C2047 O2057 1.272 . S
O2048 Co2044 2.004 . S
O2048 C2053 1.259 . S
Co2049 O2050 2.061 . S
Co2049 O2055 2.052 . S
Co2049 O2057 2.135 . S
O2050 Co2049 2.061 . S
O2050 C2053 1.235 . S
C2051 O2054 1.238 . S
C2051 O2055 1.241 . S
C2052 O2045 1.247 . S
C2052 O2046 1.261 . S
C2053 O2048 1.259 . S
C2053 O2050 1.235 . S
O2054 Co2044 2.021 . S
O2054 C2051 1.238 . S
O2055 Co2049 2.052 . S
O2055 C2051 1.241 . S
O2056 Co2044 2.137 . S
O2056 C2047 1.247 . S
O2057 Co2044 2.244 . S
O2057 C2047 1.272 . S
O2057 Co2049 2.135 . S
Co2058 O2059 2.216 . S
Co2058 O2060 2.091 . S
Co2058 O2062 2.004 . S
Co2058 O2068 2.021 . S
Co2058 O2070 2.137 . S
Co2058 O2071 2.244 . S
O2059 Co2058 2.216 . S
O2059 C2066 1.247 . S
O2060 Co2058 2.091 . S
O2060 C2066 1.261 . S
C2061 O2070 1.247 . S
C2061 O2071 1.272 . S
O2062 Co2058 2.004 . S
O2062 C2067 1.259 . S
Co2063 O2064 2.061 . S
Co2063 O2069 2.052 . S
Co2063 O2071 2.135 . S
O2064 Co2063 2.061 . S
O2064 C2067 1.235 . S
C2065 O2068 1.238 . S
C2065 O2069 1.241 . S
C2066 O2059 1.247 . S
C2066 O2060 1.261 . S
C2067 O2062 1.259 . S
C2067 O2064 1.235 . S
O2068 Co2058 2.021 . S
O2068 C2065 1.238 . S
O2069 Co2063 2.052 . S
O2069 C2065 1.241 . S
O2070 Co2058 2.137 . S
O2070 C2061 1.247 . S
O2071 Co2058 2.244 . S
O2071 C2061 1.272 . S
O2071 Co2063 2.135 . S
Co2072 O2073 2.216 . S
Co2072 O2074 2.091 . S
Co2072 O2076 2.004 . S
Co2072 O2082 2.021 . S
Co2072 O2084 2.137 . S
Co2072 O2085 2.244 . S
O2073 Co2072 2.216 . S
O2073 C2080 1.247 . S
O2074 Co2072 2.091 . S
O2074 C2080 1.261 . S
C2075 O2084 1.247 . S
C2075 O2085 1.272 . S
O2076 Co2072 2.004 . S
O2076 C2081 1.259 . S
Co2077 O2078 2.061 . S
Co2077 O2083 2.052 . S
Co2077 O2085 2.135 . S
O2078 Co2077 2.061 . S
O2078 C2081 1.235 . S
C2079 O2082 1.238 . S
C2079 O2083 1.241 . S
C2080 O2073 1.247 . S
C2080 O2074 1.261 . S
C2081 O2076 1.259 . S
C2081 O2078 1.235 . S
O2082 Co2072 2.021 . S
O2082 C2079 1.238 . S
O2083 Co2077 2.052 . S
O2083 C2079 1.241 . S
O2084 Co2072 2.137 . S
O2084 C2075 1.247 . S
O2085 Co2072 2.244 . S
O2085 C2075 1.272 . S
O2085 Co2077 2.135 . S
Co2086 O2087 2.216 . S
Co2086 O2088 2.091 . S
Co2086 O2090 2.004 . S
Co2086 O2096 2.021 . S
Co2086 O2098 2.137 . S
Co2086 O2099 2.244 . S
O2087 Co2086 2.216 . S
O2087 C2094 1.247 . S
O2088 Co2086 2.091 . S
O2088 C2094 1.261 . S
C2089 O2098 1.247 . S
C2089 O2099 1.272 . S
O2090 Co2086 2.004 . S
O2090 C2095 1.259 . S
Co2091 O2092 2.061 . S
Co2091 O2097 2.052 . S
Co2091 O2099 2.135 . S
O2092 Co2091 2.061 . S
O2092 C2095 1.235 . S
C2093 O2096 1.238 . S
C2093 O2097 1.241 . S
C2094 O2087 1.247 . S
C2094 O2088 1.261 . S
C2095 O2090 1.259 . S
C2095 O2092 1.235 . S
O2096 Co2086 2.021 . S
O2096 C2093 1.238 . S
O2097 Co2091 2.052 . S
O2097 C2093 1.241 . S
O2098 Co2086 2.137 . S
O2098 C2089 1.247 . S
O2099 Co2086 2.244 . S
O2099 C2089 1.272 . S
O2099 Co2091 2.135 . S
Co2100 O2101 2.216 . S
Co2100 O2102 2.091 . S
Co2100 O2104 2.004 . S
Co2100 O2110 2.021 . S
Co2100 O2112 2.137 . S
Co2100 O2113 2.244 . S
O2101 Co2100 2.216 . S
O2101 C2108 1.247 . S
O2102 Co2100 2.091 . S
O2102 C2108 1.261 . S
C2103 O2112 1.247 . S
C2103 O2113 1.272 . S
O2104 Co2100 2.004 . S
O2104 C2109 1.259 . S
Co2105 O2106 2.061 . S
Co2105 O2111 2.052 . S
Co2105 O2113 2.135 . S
O2106 Co2105 2.061 . S
O2106 C2109 1.235 . S
C2107 O2110 1.238 . S
C2107 O2111 1.241 . S
C2108 O2101 1.247 . S
C2108 O2102 1.261 . S
C2109 O2104 1.259 . S
C2109 O2106 1.235 . S
O2110 Co2100 2.021 . S
O2110 C2107 1.238 . S
O2111 Co2105 2.052 . S
O2111 C2107 1.241 . S
O2112 Co2100 2.137 . S
O2112 C2103 1.247 . S
O2113 Co2100 2.244 . S
O2113 C2103 1.272 . S
O2113 Co2105 2.135 . S
Co2114 O2115 2.216 . S
Co2114 O2116 2.091 . S
Co2114 O2118 2.004 . S
Co2114 O2124 2.021 . S
Co2114 O2126 2.137 . S
Co2114 O2127 2.244 . S
O2115 Co2114 2.216 . S
O2115 C2122 1.247 . S
O2116 Co2114 2.091 . S
O2116 C2122 1.261 . S
C2117 O2126 1.247 . S
C2117 O2127 1.272 . S
O2118 Co2114 2.004 . S
O2118 C2123 1.259 . S
Co2119 O2120 2.061 . S
Co2119 O2125 2.052 . S
Co2119 O2127 2.135 . S
O2120 Co2119 2.061 . S
O2120 C2123 1.235 . S
C2121 O2124 1.238 . S
C2121 O2125 1.241 . S
C2122 O2115 1.247 . S
C2122 O2116 1.261 . S
C2123 O2118 1.259 . S
C2123 O2120 1.235 . S
O2124 Co2114 2.021 . S
O2124 C2121 1.238 . S
O2125 Co2119 2.052 . S
O2125 C2121 1.241 . S
O2126 Co2114 2.137 . S
O2126 C2117 1.247 . S
O2127 Co2114 2.244 . S
O2127 C2117 1.272 . S
O2127 Co2119 2.135 . S
Co2128 O2129 2.216 . S
Co2128 O2130 2.091 . S
Co2128 O2132 2.004 . S
Co2128 O2138 2.021 . S
Co2128 O2140 2.137 . S
Co2128 O2141 2.244 . S
O2129 Co2128 2.216 . S
O2129 C2136 1.247 . S
O2130 Co2128 2.091 . S
O2130 C2136 1.261 . S
C2131 O2140 1.247 . S
C2131 O2141 1.272 . S
O2132 Co2128 2.004 . S
O2132 C2137 1.259 . S
Co2133 O2134 2.061 . S
Co2133 O2139 2.052 . S
Co2133 O2141 2.135 . S
O2134 Co2133 2.061 . S
O2134 C2137 1.235 . S
C2135 O2138 1.238 . S
C2135 O2139 1.241 . S
C2136 O2129 1.247 . S
C2136 O2130 1.261 . S
C2137 O2132 1.259 . S
C2137 O2134 1.235 . S
O2138 Co2128 2.021 . S
O2138 C2135 1.238 . S
O2139 Co2133 2.052 . S
O2139 C2135 1.241 . S
O2140 Co2128 2.137 . S
O2140 C2131 1.247 . S
O2141 Co2128 2.244 . S
O2141 C2131 1.272 . S
O2141 Co2133 2.135 . S
Co2142 O2143 2.216 . S
Co2142 O2144 2.091 . S
Co2142 O2146 2.004 . S
Co2142 O2152 2.021 . S
Co2142 O2154 2.137 . S
Co2142 O2155 2.244 . S
O2143 Co2142 2.216 . S
O2143 C2150 1.247 . S
O2144 Co2142 2.091 . S
O2144 C2150 1.261 . S
C2145 O2154 1.247 . S
C2145 O2155 1.272 . S
O2146 Co2142 2.004 . S
O2146 C2151 1.259 . S
Co2147 O2148 2.061 . S
Co2147 O2153 2.052 . S
Co2147 O2155 2.135 . S
O2148 Co2147 2.061 . S
O2148 C2151 1.235 . S
C2149 O2152 1.238 . S
C2149 O2153 1.241 . S
C2150 O2143 1.247 . S
C2150 O2144 1.261 . S
C2151 O2146 1.259 . S
C2151 O2148 1.235 . S
O2152 Co2142 2.021 . S
O2152 C2149 1.238 . S
O2153 Co2147 2.052 . S
O2153 C2149 1.241 . S
O2154 Co2142 2.137 . S
O2154 C2145 1.247 . S
O2155 Co2142 2.244 . S
O2155 C2145 1.272 . S
O2155 Co2147 2.135 . S
Co2156 O2157 2.216 . S
Co2156 O2158 2.091 . S
Co2156 O2160 2.004 . S
Co2156 O2166 2.021 . S
Co2156 O2168 2.137 . S
Co2156 O2169 2.244 . S
O2157 Co2156 2.216 . S
O2157 C2164 1.247 . S
O2158 Co2156 2.091 . S
O2158 C2164 1.261 . S
C2159 O2168 1.247 . S
C2159 O2169 1.272 . S
O2160 Co2156 2.004 . S
O2160 C2165 1.259 . S
Co2161 O2162 2.061 . S
Co2161 O2167 2.052 . S
Co2161 O2169 2.135 . S
O2162 Co2161 2.061 . S
O2162 C2165 1.235 . S
C2163 O2166 1.238 . S
C2163 O2167 1.241 . S
C2164 O2157 1.247 . S
C2164 O2158 1.261 . S
C2165 O2160 1.259 . S
C2165 O2162 1.235 . S
O2166 Co2156 2.021 . S
O2166 C2163 1.238 . S
O2167 Co2161 2.052 . S
O2167 C2163 1.241 . S
O2168 Co2156 2.137 . S
O2168 C2159 1.247 . S
O2169 Co2156 2.244 . S
O2169 C2159 1.272 . S
O2169 Co2161 2.135 . S
Co2170 O2171 2.216 . S
Co2170 O2172 2.091 . S
Co2170 O2174 2.004 . S
Co2170 O2180 2.021 . S
Co2170 O2182 2.137 . S
Co2170 O2183 2.244 . S
O2171 Co2170 2.216 . S
O2171 C2178 1.247 . S
O2172 Co2170 2.091 . S
O2172 C2178 1.261 . S
C2173 O2182 1.247 . S
C2173 O2183 1.272 . S
O2174 Co2170 2.004 . S
O2174 C2179 1.259 . S
Co2175 O2176 2.061 . S
Co2175 O2181 2.052 . S
Co2175 O2183 2.135 . S
O2176 Co2175 2.061 . S
O2176 C2179 1.235 . S
C2177 O2180 1.238 . S
C2177 O2181 1.241 . S
C2178 O2171 1.247 . S
C2178 O2172 1.261 . S
C2179 O2174 1.259 . S
C2179 O2176 1.235 . S
O2180 Co2170 2.021 . S
O2180 C2177 1.238 . S
O2181 Co2175 2.052 . S
O2181 C2177 1.241 . S
O2182 Co2170 2.137 . S
O2182 C2173 1.247 . S
O2183 Co2170 2.244 . S
O2183 C2173 1.272 . S
O2183 Co2175 2.135 . S
Co2184 O2185 2.216 . S
Co2184 O2186 2.091 . S
Co2184 O2188 2.004 . S
Co2184 O2194 2.021 . S
Co2184 O2196 2.137 . S
Co2184 O2197 2.244 . S
O2185 Co2184 2.216 . S
O2185 C2192 1.247 . S
O2186 Co2184 2.091 . S
O2186 C2192 1.261 . S
C2187 O2196 1.247 . S
C2187 O2197 1.272 . S
O2188 Co2184 2.004 . S
O2188 C2193 1.259 . S
Co2189 O2190 2.061 . S
Co2189 O2195 2.052 . S
Co2189 O2197 2.135 . S
O2190 Co2189 2.061 . S
O2190 C2193 1.235 . S
C2191 O2194 1.238 . S
C2191 O2195 1.241 . S
C2192 O2185 1.247 . S
C2192 O2186 1.261 . S
C2193 O2188 1.259 . S
C2193 O2190 1.235 . S
O2194 Co2184 2.021 . S
O2194 C2191 1.238 . S
O2195 Co2189 2.052 . S
O2195 C2191 1.241 . S
O2196 Co2184 2.137 . S
O2196 C2187 1.247 . S
O2197 Co2184 2.244 . S
O2197 C2187 1.272 . S
O2197 Co2189 2.135 . S
Co2198 O2199 2.216 . S
Co2198 O2200 2.091 . S
Co2198 O2202 2.004 . S
Co2198 O2208 2.021 . S
Co2198 O2210 2.137 . S
Co2198 O2211 2.244 . S
O2199 Co2198 2.216 . S
O2199 C2206 1.247 . S
O2200 Co2198 2.091 . S
O2200 C2206 1.261 . S
C2201 O2210 1.247 . S
C2201 O2211 1.272 . S
O2202 Co2198 2.004 . S
O2202 C2207 1.259 . S
Co2203 O2204 2.061 . S
Co2203 O2209 2.052 . S
Co2203 O2211 2.135 . S
O2204 Co2203 2.061 . S
O2204 C2207 1.235 . S
C2205 O2208 1.238 . S
C2205 O2209 1.241 . S
C2206 O2199 1.247 . S
C2206 O2200 1.261 . S
C2207 O2202 1.259 . S
C2207 O2204 1.235 . S
O2208 Co2198 2.021 . S
O2208 C2205 1.238 . S
O2209 Co2203 2.052 . S
O2209 C2205 1.241 . S
O2210 Co2198 2.137 . S
O2210 C2201 1.247 . S
O2211 Co2198 2.244 . S
O2211 C2201 1.272 . S
O2211 Co2203 2.135 . S
Co2212 O2213 2.216 . S
Co2212 O2214 2.091 . S
Co2212 O2216 2.004 . S
Co2212 O2222 2.021 . S
Co2212 O2224 2.137 . S
Co2212 O2225 2.244 . S
O2213 Co2212 2.216 . S
O2213 C2220 1.247 . S
O2214 Co2212 2.091 . S
O2214 C2220 1.261 . S
C2215 O2224 1.247 . S
C2215 O2225 1.272 . S
O2216 Co2212 2.004 . S
O2216 C2221 1.259 . S
Co2217 O2218 2.061 . S
Co2217 O2223 2.052 . S
Co2217 O2225 2.135 . S
O2218 Co2217 2.061 . S
O2218 C2221 1.235 . S
C2219 O2222 1.238 . S
C2219 O2223 1.241 . S
C2220 O2213 1.247 . S
C2220 O2214 1.261 . S
C2221 O2216 1.259 . S
C2221 O2218 1.235 . S
O2222 Co2212 2.021 . S
O2222 C2219 1.238 . S
O2223 Co2217 2.052 . S
O2223 C2219 1.241 . S
O2224 Co2212 2.137 . S
O2224 C2215 1.247 . S
O2225 Co2212 2.244 . S
O2225 C2215 1.272 . S
O2225 Co2217 2.135 . S
Co2226 O2227 2.216 . S
Co2226 O2228 2.091 . S
Co2226 O2230 2.004 . S
Co2226 O2236 2.021 . S
Co2226 O2238 2.137 . S
Co2226 O2239 2.244 . S
O2227 Co2226 2.216 . S
O2227 C2234 1.247 . S
O2228 Co2226 2.091 . S
O2228 C2234 1.261 . S
C2229 O2238 1.247 . S
C2229 O2239 1.272 . S
O2230 Co2226 2.004 . S
O2230 C2235 1.259 . S
Co2231 O2232 2.061 . S
Co2231 O2237 2.052 . S
Co2231 O2239 2.135 . S
O2232 Co2231 2.061 . S
O2232 C2235 1.235 . S
C2233 O2236 1.238 . S
C2233 O2237 1.241 . S
C2234 O2227 1.247 . S
C2234 O2228 1.261 . S
C2235 O2230 1.259 . S
C2235 O2232 1.235 . S
O2236 Co2226 2.021 . S
O2236 C2233 1.238 . S
O2237 Co2231 2.052 . S
O2237 C2233 1.241 . S
O2238 Co2226 2.137 . S
O2238 C2229 1.247 . S
O2239 Co2226 2.244 . S
O2239 C2229 1.272 . S
O2239 Co2231 2.135 . S
Co2240 O2241 2.216 . S
Co2240 O2242 2.091 . S
Co2240 O2244 2.004 . S
Co2240 O2250 2.021 . S
Co2240 O2252 2.137 . S
Co2240 O2253 2.244 . S
O2241 Co2240 2.216 . S
O2241 C2248 1.247 . S
O2242 Co2240 2.091 . S
O2242 C2248 1.261 . S
C2243 O2252 1.247 . S
C2243 O2253 1.272 . S
O2244 Co2240 2.004 . S
O2244 C2249 1.259 . S
Co2245 O2246 2.061 . S
Co2245 O2251 2.052 . S
Co2245 O2253 2.135 . S
O2246 Co2245 2.061 . S
O2246 C2249 1.235 . S
C2247 O2250 1.238 . S
C2247 O2251 1.241 . S
C2248 O2241 1.247 . S
C2248 O2242 1.261 . S
C2249 O2244 1.259 . S
C2249 O2246 1.235 . S
O2250 Co2240 2.021 . S
O2250 C2247 1.238 . S
O2251 Co2245 2.052 . S
O2251 C2247 1.241 . S
O2252 Co2240 2.137 . S
O2252 C2243 1.247 . S
O2253 Co2240 2.244 . S
O2253 C2243 1.272 . S
O2253 Co2245 2.135 . S
Co2254 O2255 2.216 . S
Co2254 O2256 2.091 . S
Co2254 O2258 2.004 . S
Co2254 O2264 2.021 . S
Co2254 O2266 2.137 . S
Co2254 O2267 2.244 . S
O2255 Co2254 2.216 . S
O2255 C2262 1.247 . S
O2256 Co2254 2.091 . S
O2256 C2262 1.261 . S
C2257 O2266 1.247 . S
C2257 O2267 1.272 . S
O2258 Co2254 2.004 . S
O2258 C2263 1.259 . S
Co2259 O2260 2.061 . S
Co2259 O2265 2.052 . S
Co2259 O2267 2.135 . S
O2260 Co2259 2.061 . S
O2260 C2263 1.235 . S
C2261 O2264 1.238 . S
C2261 O2265 1.241 . S
C2262 O2255 1.247 . S
C2262 O2256 1.261 . S
C2263 O2258 1.259 . S
C2263 O2260 1.235 . S
O2264 Co2254 2.021 . S
O2264 C2261 1.238 . S
O2265 Co2259 2.052 . S
O2265 C2261 1.241 . S
O2266 Co2254 2.137 . S
O2266 C2257 1.247 . S
O2267 Co2254 2.244 . S
O2267 C2257 1.272 . S
O2267 Co2259 2.135 . S
Co2268 O2269 2.216 . S
Co2268 O2270 2.091 . S
Co2268 O2272 2.004 . S
Co2268 O2278 2.021 . S
Co2268 O2280 2.137 . S
Co2268 O2281 2.244 . S
O2269 Co2268 2.216 . S
O2269 C2276 1.247 . S
O2270 Co2268 2.091 . S
O2270 C2276 1.261 . S
C2271 O2280 1.247 . S
C2271 O2281 1.272 . S
O2272 Co2268 2.004 . S
O2272 C2277 1.259 . S
Co2273 O2274 2.061 . S
Co2273 O2279 2.052 . S
Co2273 O2281 2.135 . S
O2274 Co2273 2.061 . S
O2274 C2277 1.235 . S
C2275 O2278 1.238 . S
C2275 O2279 1.241 . S
C2276 O2269 1.247 . S
C2276 O2270 1.261 . S
C2277 O2272 1.259 . S
C2277 O2274 1.235 . S
O2278 Co2268 2.021 . S
O2278 C2275 1.238 . S
O2279 Co2273 2.052 . S
O2279 C2275 1.241 . S
O2280 Co2268 2.137 . S
O2280 C2271 1.247 . S
O2281 Co2268 2.244 . S
O2281 C2271 1.272 . S
O2281 Co2273 2.135 . S
Co2282 O2283 2.216 . S
Co2282 O2284 2.091 . S
Co2282 O2286 2.004 . S
Co2282 O2292 2.021 . S
Co2282 O2294 2.137 . S
Co2282 O2295 2.244 . S
O2283 Co2282 2.216 . S
O2283 C2290 1.247 . S
O2284 Co2282 2.091 . S
O2284 C2290 1.261 . S
C2285 O2294 1.247 . S
C2285 O2295 1.272 . S
O2286 Co2282 2.004 . S
O2286 C2291 1.259 . S
Co2287 O2288 2.061 . S
Co2287 O2293 2.052 . S
Co2287 O2295 2.135 . S
O2288 Co2287 2.061 . S
O2288 C2291 1.235 . S
C2289 O2292 1.238 . S
C2289 O2293 1.241 . S
C2290 O2283 1.247 . S
C2290 O2284 1.261 . S
C2291 O2286 1.259 . S
C2291 O2288 1.235 . S
O2292 Co2282 2.021 . S
O2292 C2289 1.238 . S
O2293 Co2287 2.052 . S
O2293 C2289 1.241 . S
O2294 Co2282 2.137 . S
O2294 C2285 1.247 . S
O2295 Co2282 2.244 . S
O2295 C2285 1.272 . S
O2295 Co2287 2.135 . S
Co2296 O2297 2.216 . S
Co2296 O2298 2.091 . S
Co2296 O2300 2.004 . S
Co2296 O2306 2.021 . S
Co2296 O2308 2.137 . S
Co2296 O2309 2.244 . S
O2297 Co2296 2.216 . S
O2297 C2304 1.247 . S
O2298 Co2296 2.091 . S
O2298 C2304 1.261 . S
C2299 O2308 1.247 . S
C2299 O2309 1.272 . S
O2300 Co2296 2.004 . S
O2300 C2305 1.259 . S
Co2301 O2302 2.061 . S
Co2301 O2307 2.052 . S
Co2301 O2309 2.135 . S
O2302 Co2301 2.061 . S
O2302 C2305 1.235 . S
C2303 O2306 1.238 . S
C2303 O2307 1.241 . S
C2304 O2297 1.247 . S
C2304 O2298 1.261 . S
C2305 O2300 1.259 . S
C2305 O2302 1.235 . S
O2306 Co2296 2.021 . S
O2306 C2303 1.238 . S
O2307 Co2301 2.052 . S
O2307 C2303 1.241 . S
O2308 Co2296 2.137 . S
O2308 C2299 1.247 . S
O2309 Co2296 2.244 . S
O2309 C2299 1.272 . S
O2309 Co2301 2.135 . S
Co2310 O2311 2.216 . S
Co2310 O2312 2.091 . S
Co2310 O2314 2.004 . S
Co2310 O2320 2.021 . S
Co2310 O2322 2.137 . S
Co2310 O2323 2.244 . S
O2311 Co2310 2.216 . S
O2311 C2318 1.247 . S
O2312 Co2310 2.091 . S
O2312 C2318 1.261 . S
C2313 O2322 1.247 . S
C2313 O2323 1.272 . S
O2314 Co2310 2.004 . S
O2314 C2319 1.259 . S
Co2315 O2316 2.061 . S
Co2315 O2321 2.052 . S
Co2315 O2323 2.135 . S
O2316 Co2315 2.061 . S
O2316 C2319 1.235 . S
C2317 O2320 1.238 . S
C2317 O2321 1.241 . S
C2318 O2311 1.247 . S
C2318 O2312 1.261 . S
C2319 O2314 1.259 . S
C2319 O2316 1.235 . S
O2320 Co2310 2.021 . S
O2320 C2317 1.238 . S
O2321 Co2315 2.052 . S
O2321 C2317 1.241 . S
O2322 Co2310 2.137 . S
O2322 C2313 1.247 . S
O2323 Co2310 2.244 . S
O2323 C2313 1.272 . S
O2323 Co2315 2.135 . S
Co2324 O2325 2.216 . S
Co2324 O2326 2.091 . S
Co2324 O2328 2.004 . S
Co2324 O2334 2.021 . S
Co2324 O2336 2.137 . S
Co2324 O2337 2.244 . S
O2325 Co2324 2.216 . S
O2325 C2332 1.247 . S
O2326 Co2324 2.091 . S
O2326 C2332 1.261 . S
C2327 O2336 1.247 . S
C2327 O2337 1.272 . S
O2328 Co2324 2.004 . S
O2328 C2333 1.259 . S
Co2329 O2330 2.061 . S
Co2329 O2335 2.052 . S
Co2329 O2337 2.135 . S
O2330 Co2329 2.061 . S
O2330 C2333 1.235 . S
C2331 O2334 1.238 . S
C2331 O2335 1.241 . S
C2332 O2325 1.247 . S
C2332 O2326 1.261 . S
C2333 O2328 1.259 . S
C2333 O2330 1.235 . S
O2334 Co2324 2.021 . S
O2334 C2331 1.238 . S
O2335 Co2329 2.052 . S
O2335 C2331 1.241 . S
O2336 Co2324 2.137 . S
O2336 C2327 1.247 . S
O2337 Co2324 2.244 . S
O2337 C2327 1.272 . S
O2337 Co2329 2.135 . S
Co2338 O2339 2.216 . S
Co2338 O2340 2.091 . S
Co2338 O2342 2.004 . S
Co2338 O2348 2.021 . S
Co2338 O2350 2.137 . S
Co2338 O2351 2.244 . S
O2339 Co2338 2.216 . S
O2339 C2346 1.247 . S
O2340 Co2338 2.091 . S
O2340 C2346 1.261 . S
C2341 O2350 1.247 . S
C2341 O2351 1.272 . S
O2342 Co2338 2.004 . S
O2342 C2347 1.259 . S
Co2343 O2344 2.061 . S
Co2343 O2349 2.052 . S
Co2343 O2351 2.135 . S
O2344 Co2343 2.061 . S
O2344 C2347 1.235 . S
C2345 O2348 1.238 . S
C2345 O2349 1.241 . S
C2346 O2339 1.247 . S
C2346 O2340 1.261 . S
C2347 O2342 1.259 . S
C2347 O2344 1.235 . S
O2348 Co2338 2.021 . S
O2348 C2345 1.238 . S
O2349 Co2343 2.052 . S
O2349 C2345 1.241 . S
O2350 Co2338 2.137 . S
O2350 C2341 1.247 . S
O2351 Co2338 2.244 . S
O2351 C2341 1.272 . S
O2351 Co2343 2.135 . S
Co2352 O2353 2.216 . S
Co2352 O2354 2.091 . S
Co2352 O2356 2.004 . S
Co2352 O2362 2.021 . S
Co2352 O2364 2.137 . S
Co2352 O2365 2.244 . S
O2353 Co2352 2.216 . S
O2353 C2360 1.247 . S
O2354 Co2352 2.091 . S
O2354 C2360 1.261 . S
C2355 O2364 1.247 . S
C2355 O2365 1.272 . S
O2356 Co2352 2.004 . S
O2356 C2361 1.259 . S
Co2357 O2358 2.061 . S
Co2357 O2363 2.052 . S
Co2357 O2365 2.135 . S
O2358 Co2357 2.061 . S
O2358 C2361 1.235 . S
C2359 O2362 1.238 . S
C2359 O2363 1.241 . S
C2360 O2353 1.247 . S
C2360 O2354 1.261 . S
C2361 O2356 1.259 . S
C2361 O2358 1.235 . S
O2362 Co2352 2.021 . S
O2362 C2359 1.238 . S
O2363 Co2357 2.052 . S
O2363 C2359 1.241 . S
O2364 Co2352 2.137 . S
O2364 C2355 1.247 . S
O2365 Co2352 2.244 . S
O2365 C2355 1.272 . S
O2365 Co2357 2.135 . S
Co2366 O2367 2.216 . S
Co2366 O2368 2.091 . S
Co2366 O2370 2.004 . S
Co2366 O2376 2.021 . S
Co2366 O2378 2.137 . S
Co2366 O2379 2.244 . S
O2367 Co2366 2.216 . S
O2367 C2374 1.247 . S
O2368 Co2366 2.091 . S
O2368 C2374 1.261 . S
C2369 O2378 1.247 . S
C2369 O2379 1.272 . S
O2370 Co2366 2.004 . S
O2370 C2375 1.259 . S
Co2371 O2372 2.061 . S
Co2371 O2377 2.052 . S
Co2371 O2379 2.135 . S
O2372 Co2371 2.061 . S
O2372 C2375 1.235 . S
C2373 O2376 1.238 . S
C2373 O2377 1.241 . S
C2374 O2367 1.247 . S
C2374 O2368 1.261 . S
C2375 O2370 1.259 . S
C2375 O2372 1.235 . S
O2376 Co2366 2.021 . S
O2376 C2373 1.238 . S
O2377 Co2371 2.052 . S
O2377 C2373 1.241 . S
O2378 Co2366 2.137 . S
O2378 C2369 1.247 . S
O2379 Co2366 2.244 . S
O2379 C2369 1.272 . S
O2379 Co2371 2.135 . S
Co2380 O2381 2.216 . S
Co2380 O2382 2.091 . S
Co2380 O2384 2.004 . S
Co2380 O2390 2.021 . S
Co2380 O2392 2.137 . S
Co2380 O2393 2.244 . S
O2381 Co2380 2.216 . S
O2381 C2388 1.247 . S
O2382 Co2380 2.091 . S
O2382 C2388 1.261 . S
C2383 O2392 1.247 . S
C2383 O2393 1.272 . S
O2384 Co2380 2.004 . S
O2384 C2389 1.259 . S
Co2385 O2386 2.061 . S
Co2385 O2391 2.052 . S
Co2385 O2393 2.135 . S
O2386 Co2385 2.061 . S
O2386 C2389 1.235 . S
C2387 O2390 1.238 . S
C2387 O2391 1.241 . S
C2388 O2381 1.247 . S
C2388 O2382 1.261 . S
C2389 O2384 1.259 . S
C2389 O2386 1.235 . S
O2390 Co2380 2.021 . S
O2390 C2387 1.238 . S
O2391 Co2385 2.052 . S
O2391 C2387 1.241 . S
O2392 Co2380 2.137 . S
O2392 C2383 1.247 . S
O2393 Co2380 2.244 . S
O2393 C2383 1.272 . S
O2393 Co2385 2.135 . S
Co2394 O2395 2.216 . S
Co2394 O2396 2.091 . S
Co2394 O2398 2.004 . S
Co2394 O2404 2.021 . S
Co2394 O2406 2.137 . S
Co2394 O2407 2.244 . S
O2395 Co2394 2.216 . S
O2395 C2402 1.247 . S
O2396 Co2394 2.091 . S
O2396 C2402 1.261 . S
C2397 O2406 1.247 . S
C2397 O2407 1.272 . S
O2398 Co2394 2.004 . S
O2398 C2403 1.259 . S
Co2399 O2400 2.061 . S
Co2399 O2405 2.052 . S
Co2399 O2407 2.135 . S
O2400 Co2399 2.061 . S
O2400 C2403 1.235 . S
C2401 O2404 1.238 . S
C2401 O2405 1.241 . S
C2402 O2395 1.247 . S
C2402 O2396 1.261 . S
C2403 O2398 1.259 . S
C2403 O2400 1.235 . S
O2404 Co2394 2.021 . S
O2404 C2401 1.238 . S
O2405 Co2399 2.052 . S
O2405 C2401 1.241 . S
O2406 Co2394 2.137 . S
O2406 C2397 1.247 . S
O2407 Co2394 2.244 . S
O2407 C2397 1.272 . S
O2407 Co2399 2.135 . S
Co2408 O2409 2.216 . S
Co2408 O2410 2.091 . S
Co2408 O2412 2.004 . S
Co2408 O2418 2.021 . S
Co2408 O2420 2.137 . S
Co2408 O2421 2.244 . S
O2409 Co2408 2.216 . S
O2409 C2416 1.247 . S
O2410 Co2408 2.091 . S
O2410 C2416 1.261 . S
C2411 O2420 1.247 . S
C2411 O2421 1.272 . S
O2412 Co2408 2.004 . S
O2412 C2417 1.259 . S
Co2413 O2414 2.061 . S
Co2413 O2419 2.052 . S
Co2413 O2421 2.135 . S
O2414 Co2413 2.061 . S
O2414 C2417 1.235 . S
C2415 O2418 1.238 . S
C2415 O2419 1.241 . S
C2416 O2409 1.247 . S
C2416 O2410 1.261 . S
C2417 O2412 1.259 . S
C2417 O2414 1.235 . S
O2418 Co2408 2.021 . S
O2418 C2415 1.238 . S
O2419 Co2413 2.052 . S
O2419 C2415 1.241 . S
O2420 Co2408 2.137 . S
O2420 C2411 1.247 . S
O2421 Co2408 2.244 . S
O2421 C2411 1.272 . S
O2421 Co2413 2.135 . S
Co2422 O2423 2.216 . S
Co2422 O2424 2.091 . S
Co2422 O2426 2.004 . S
Co2422 O2432 2.021 . S
Co2422 O2434 2.137 . S
Co2422 O2435 2.244 . S
O2423 Co2422 2.216 . S
O2423 C2430 1.247 . S
O2424 Co2422 2.091 . S
O2424 C2430 1.261 . S
C2425 O2434 1.247 . S
C2425 O2435 1.272 . S
O2426 Co2422 2.004 . S
O2426 C2431 1.259 . S
Co2427 O2428 2.061 . S
Co2427 O2433 2.052 . S
Co2427 O2435 2.135 . S
O2428 Co2427 2.061 . S
O2428 C2431 1.235 . S
C2429 O2432 1.238 . S
C2429 O2433 1.241 . S
C2430 O2423 1.247 . S
C2430 O2424 1.261 . S
C2431 O2426 1.259 . S
C2431 O2428 1.235 . S
O2432 Co2422 2.021 . S
O2432 C2429 1.238 . S
O2433 Co2427 2.052 . S
O2433 C2429 1.241 . S
O2434 Co2422 2.137 . S
O2434 C2425 1.247 . S
O2435 Co2422 2.244 . S
O2435 C2425 1.272 . S
O2435 Co2427 2.135 . S
Co2436 O2437 2.216 . S
Co2436 O2438 2.091 . S
Co2436 O2440 2.004 . S
Co2436 O2446 2.021 . S
Co2436 O2448 2.137 . S
Co2436 O2449 2.244 . S
O2437 Co2436 2.216 . S
O2437 C2444 1.247 . S
O2438 Co2436 2.091 . S
O2438 C2444 1.261 . S
C2439 O2448 1.247 . S
C2439 O2449 1.272 . S
O2440 Co2436 2.004 . S
O2440 C2445 1.259 . S
Co2441 O2442 2.061 . S
Co2441 O2447 2.052 . S
Co2441 O2449 2.135 . S
O2442 Co2441 2.061 . S
O2442 C2445 1.235 . S
C2443 O2446 1.238 . S
C2443 O2447 1.241 . S
C2444 O2437 1.247 . S
C2444 O2438 1.261 . S
C2445 O2440 1.259 . S
C2445 O2442 1.235 . S
O2446 Co2436 2.021 . S
O2446 C2443 1.238 . S
O2447 Co2441 2.052 . S
O2447 C2443 1.241 . S
O2448 Co2436 2.137 . S
O2448 C2439 1.247 . S
O2449 Co2436 2.244 . S
O2449 C2439 1.272 . S
O2449 Co2441 2.135 . S
Co2450 O2451 2.216 . S
Co2450 O2452 2.091 . S
Co2450 O2454 2.004 . S
Co2450 O2460 2.021 . S
Co2450 O2462 2.137 . S
Co2450 O2463 2.244 . S
O2451 Co2450 2.216 . S
O2451 C2458 1.247 . S
O2452 Co2450 2.091 . S
O2452 C2458 1.261 . S
C2453 O2462 1.247 . S
C2453 O2463 1.272 . S
O2454 Co2450 2.004 . S
O2454 C2459 1.259 . S
Co2455 O2456 2.061 . S
Co2455 O2461 2.052 . S
Co2455 O2463 2.135 . S
O2456 Co2455 2.061 . S
O2456 C2459 1.235 . S
C2457 O2460 1.238 . S
C2457 O2461 1.241 . S
C2458 O2451 1.247 . S
C2458 O2452 1.261 . S
C2459 O2454 1.259 . S
C2459 O2456 1.235 . S
O2460 Co2450 2.021 . S
O2460 C2457 1.238 . S
O2461 Co2455 2.052 . S
O2461 C2457 1.241 . S
O2462 Co2450 2.137 . S
O2462 C2453 1.247 . S
O2463 Co2450 2.244 . S
O2463 C2453 1.272 . S
O2463 Co2455 2.135 . S
Co2464 O2465 2.216 . S
Co2464 O2466 2.091 . S
Co2464 O2468 2.004 . S
Co2464 O2474 2.021 . S
Co2464 O2476 2.137 . S
Co2464 O2477 2.244 . S
O2465 Co2464 2.216 . S
O2465 C2472 1.247 . S
O2466 Co2464 2.091 . S
O2466 C2472 1.261 . S
C2467 O2476 1.247 . S
C2467 O2477 1.272 . S
O2468 Co2464 2.004 . S
O2468 C2473 1.259 . S
Co2469 O2470 2.061 . S
Co2469 O2475 2.052 . S
Co2469 O2477 2.135 . S
O2470 Co2469 2.061 . S
O2470 C2473 1.235 . S
C2471 O2474 1.238 . S
C2471 O2475 1.241 . S
C2472 O2465 1.247 . S
C2472 O2466 1.261 . S
C2473 O2468 1.259 . S
C2473 O2470 1.235 . S
O2474 Co2464 2.021 . S
O2474 C2471 1.238 . S
O2475 Co2469 2.052 . S
O2475 C2471 1.241 . S
O2476 Co2464 2.137 . S
O2476 C2467 1.247 . S
O2477 Co2464 2.244 . S
O2477 C2467 1.272 . S
O2477 Co2469 2.135 . S
Co2478 O2479 2.216 . S
Co2478 O2480 2.091 . S
Co2478 O2482 2.004 . S
Co2478 O2488 2.021 . S
Co2478 O2490 2.137 . S
Co2478 O2491 2.244 . S
O2479 Co2478 2.216 . S
O2479 C2486 1.247 . S
O2480 Co2478 2.091 . S
O2480 C2486 1.261 . S
C2481 O2490 1.247 . S
C2481 O2491 1.272 . S
O2482 Co2478 2.004 . S
O2482 C2487 1.259 . S
Co2483 O2484 2.061 . S
Co2483 O2489 2.052 . S
Co2483 O2491 2.135 . S
O2484 Co2483 2.061 . S
O2484 C2487 1.235 . S
C2485 O2488 1.238 . S
C2485 O2489 1.241 . S
C2486 O2479 1.247 . S
C2486 O2480 1.261 . S
C2487 O2482 1.259 . S
C2487 O2484 1.235 . S
O2488 Co2478 2.021 . S
O2488 C2485 1.238 . S
O2489 Co2483 2.052 . S
O2489 C2485 1.241 . S
O2490 Co2478 2.137 . S
O2490 C2481 1.247 . S
O2491 Co2478 2.244 . S
O2491 C2481 1.272 . S
O2491 Co2483 2.135 . S
Co2492 O2493 2.216 . S
Co2492 O2494 2.091 . S
Co2492 O2496 2.004 . S
Co2492 O2502 2.021 . S
Co2492 O2504 2.137 . S
Co2492 O2505 2.244 . S
O2493 Co2492 2.216 . S
O2493 C2500 1.247 . S
O2494 Co2492 2.091 . S
O2494 C2500 1.261 . S
C2495 O2504 1.247 . S
C2495 O2505 1.272 . S
O2496 Co2492 2.004 . S
O2496 C2501 1.259 . S
Co2497 O2498 2.061 . S
Co2497 O2503 2.052 . S
Co2497 O2505 2.135 . S
O2498 Co2497 2.061 . S
O2498 C2501 1.235 . S
C2499 O2502 1.238 . S
C2499 O2503 1.241 . S
C2500 O2493 1.247 . S
C2500 O2494 1.261 . S
C2501 O2496 1.259 . S
C2501 O2498 1.235 . S
O2502 Co2492 2.021 . S
O2502 C2499 1.238 . S
O2503 Co2497 2.052 . S
O2503 C2499 1.241 . S
O2504 Co2492 2.137 . S
O2504 C2495 1.247 . S
O2505 Co2492 2.244 . S
O2505 C2495 1.272 . S
O2505 Co2497 2.135 . S
Co2506 O2507 2.216 . S
Co2506 O2508 2.091 . S
Co2506 O2510 2.004 . S
Co2506 O2516 2.021 . S
Co2506 O2518 2.137 . S
Co2506 O2519 2.244 . S
O2507 Co2506 2.216 . S
O2507 C2514 1.247 . S
O2508 Co2506 2.091 . S
O2508 C2514 1.261 . S
C2509 O2518 1.247 . S
C2509 O2519 1.272 . S
O2510 Co2506 2.004 . S
O2510 C2515 1.259 . S
Co2511 O2512 2.061 . S
Co2511 O2517 2.052 . S
Co2511 O2519 2.135 . S
O2512 Co2511 2.061 . S
O2512 C2515 1.235 . S
C2513 O2516 1.238 . S
C2513 O2517 1.241 . S
C2514 O2507 1.247 . S
C2514 O2508 1.261 . S
C2515 O2510 1.259 . S
C2515 O2512 1.235 . S
O2516 Co2506 2.021 . S
O2516 C2513 1.238 . S
O2517 Co2511 2.052 . S
O2517 C2513 1.241 . S
O2518 Co2506 2.137 . S
O2518 C2509 1.247 . S
O2519 Co2506 2.244 . S
O2519 C2509 1.272 . S
O2519 Co2511 2.135 . S
Co2520 O2521 2.216 . S
Co2520 O2522 2.091 . S
Co2520 O2524 2.004 . S
Co2520 O2530 2.021 . S
Co2520 O2532 2.137 . S
Co2520 O2533 2.244 . S
O2521 Co2520 2.216 . S
O2521 C2528 1.247 . S
O2522 Co2520 2.091 . S
O2522 C2528 1.261 . S
C2523 O2532 1.247 . S
C2523 O2533 1.272 . S
O2524 Co2520 2.004 . S
O2524 C2529 1.259 . S
Co2525 O2526 2.061 . S
Co2525 O2531 2.052 . S
Co2525 O2533 2.135 . S
O2526 Co2525 2.061 . S
O2526 C2529 1.235 . S
C2527 O2530 1.238 . S
C2527 O2531 1.241 . S
C2528 O2521 1.247 . S
C2528 O2522 1.261 . S
C2529 O2524 1.259 . S
C2529 O2526 1.235 . S
O2530 Co2520 2.021 . S
O2530 C2527 1.238 . S
O2531 Co2525 2.052 . S
O2531 C2527 1.241 . S
O2532 Co2520 2.137 . S
O2532 C2523 1.247 . S
O2533 Co2520 2.244 . S
O2533 C2523 1.272 . S
O2533 Co2525 2.135 . S
Co2534 O2535 2.216 . S
Co2534 O2536 2.091 . S
Co2534 O2538 2.004 . S
Co2534 O2544 2.021 . S
Co2534 O2546 2.137 . S
Co2534 O2547 2.244 . S
O2535 Co2534 2.216 . S
O2535 C2542 1.247 . S
O2536 Co2534 2.091 . S
O2536 C2542 1.261 . S
C2537 O2546 1.247 . S
C2537 O2547 1.272 . S
O2538 Co2534 2.004 . S
O2538 C2543 1.259 . S
Co2539 O2540 2.061 . S
Co2539 O2545 2.052 . S
Co2539 O2547 2.135 . S
O2540 Co2539 2.061 . S
O2540 C2543 1.235 . S
C2541 O2544 1.238 . S
C2541 O2545 1.241 . S
C2542 O2535 1.247 . S
C2542 O2536 1.261 . S
C2543 O2538 1.259 . S
C2543 O2540 1.235 . S
O2544 Co2534 2.021 . S
O2544 C2541 1.238 . S
O2545 Co2539 2.052 . S
O2545 C2541 1.241 . S
O2546 Co2534 2.137 . S
O2546 C2537 1.247 . S
O2547 Co2534 2.244 . S
O2547 C2537 1.272 . S
O2547 Co2539 2.135 . S
Co2548 O2549 2.216 . S
Co2548 O2550 2.091 . S
Co2548 O2552 2.004 . S
Co2548 O2558 2.021 . S
Co2548 O2560 2.137 . S
Co2548 O2561 2.244 . S
O2549 Co2548 2.216 . S
O2549 C2556 1.247 . S
O2550 Co2548 2.091 . S
O2550 C2556 1.261 . S
C2551 O2560 1.247 . S
C2551 O2561 1.272 . S
O2552 Co2548 2.004 . S
O2552 C2557 1.259 . S
Co2553 O2554 2.061 . S
Co2553 O2559 2.052 . S
Co2553 O2561 2.135 . S
O2554 Co2553 2.061 . S
O2554 C2557 1.235 . S
C2555 O2558 1.238 . S
C2555 O2559 1.241 . S
C2556 O2549 1.247 . S
C2556 O2550 1.261 . S
C2557 O2552 1.259 . S
C2557 O2554 1.235 . S
O2558 Co2548 2.021 . S
O2558 C2555 1.238 . S
O2559 Co2553 2.052 . S
O2559 C2555 1.241 . S
O2560 Co2548 2.137 . S
O2560 C2551 1.247 . S
O2561 Co2548 2.244 . S
O2561 C2551 1.272 . S
O2561 Co2553 2.135 . S
Co2562 O2563 2.216 . S
Co2562 O2564 2.091 . S
Co2562 O2566 2.004 . S
Co2562 O2572 2.021 . S
Co2562 O2574 2.137 . S
Co2562 O2575 2.244 . S
O2563 Co2562 2.216 . S
O2563 C2570 1.247 . S
O2564 Co2562 2.091 . S
O2564 C2570 1.261 . S
C2565 O2574 1.247 . S
C2565 O2575 1.272 . S
O2566 Co2562 2.004 . S
O2566 C2571 1.259 . S
Co2567 O2568 2.061 . S
Co2567 O2573 2.052 . S
Co2567 O2575 2.135 . S
O2568 Co2567 2.061 . S
O2568 C2571 1.235 . S
C2569 O2572 1.238 . S
C2569 O2573 1.241 . S
C2570 O2563 1.247 . S
C2570 O2564 1.261 . S
C2571 O2566 1.259 . S
C2571 O2568 1.235 . S
O2572 Co2562 2.021 . S
O2572 C2569 1.238 . S
O2573 Co2567 2.052 . S
O2573 C2569 1.241 . S
O2574 Co2562 2.137 . S
O2574 C2565 1.247 . S
O2575 Co2562 2.244 . S
O2575 C2565 1.272 . S
O2575 Co2567 2.135 . S
Co2576 O2577 2.216 . S
Co2576 O2578 2.091 . S
Co2576 O2580 2.004 . S
Co2576 O2586 2.021 . S
Co2576 O2588 2.137 . S
Co2576 O2589 2.244 . S
O2577 Co2576 2.216 . S
O2577 C2584 1.247 . S
O2578 Co2576 2.091 . S
O2578 C2584 1.261 . S
C2579 O2588 1.247 . S
C2579 O2589 1.272 . S
O2580 Co2576 2.004 . S
O2580 C2585 1.259 . S
Co2581 O2582 2.061 . S
Co2581 O2587 2.052 . S
Co2581 O2589 2.135 . S
O2582 Co2581 2.061 . S
O2582 C2585 1.235 . S
C2583 O2586 1.238 . S
C2583 O2587 1.241 . S
C2584 O2577 1.247 . S
C2584 O2578 1.261 . S
C2585 O2580 1.259 . S
C2585 O2582 1.235 . S
O2586 Co2576 2.021 . S
O2586 C2583 1.238 . S
O2587 Co2581 2.052 . S
O2587 C2583 1.241 . S
O2588 Co2576 2.137 . S
O2588 C2579 1.247 . S
O2589 Co2576 2.244 . S
O2589 C2579 1.272 . S
O2589 Co2581 2.135 . S
Co2590 O2591 2.216 . S
Co2590 O2592 2.091 . S
Co2590 O2594 2.004 . S
Co2590 O2600 2.021 . S
Co2590 O2602 2.137 . S
Co2590 O2603 2.244 . S
O2591 Co2590 2.216 . S
O2591 C2598 1.247 . S
O2592 Co2590 2.091 . S
O2592 C2598 1.261 . S
C2593 O2602 1.247 . S
C2593 O2603 1.272 . S
O2594 Co2590 2.004 . S
O2594 C2599 1.259 . S
Co2595 O2596 2.061 . S
Co2595 O2601 2.052 . S
Co2595 O2603 2.135 . S
O2596 Co2595 2.061 . S
O2596 C2599 1.235 . S
C2597 O2600 1.238 . S
C2597 O2601 1.241 . S
C2598 O2591 1.247 . S
C2598 O2592 1.261 . S
C2599 O2594 1.259 . S
C2599 O2596 1.235 . S
O2600 Co2590 2.021 . S
O2600 C2597 1.238 . S
O2601 Co2595 2.052 . S
O2601 C2597 1.241 . S
O2602 Co2590 2.137 . S
O2602 C2593 1.247 . S
O2603 Co2590 2.244 . S
O2603 C2593 1.272 . S
O2603 Co2595 2.135 . S
Co2604 O2605 2.216 . S
Co2604 O2606 2.091 . S
Co2604 O2608 2.004 . S
Co2604 O2614 2.021 . S
Co2604 O2616 2.137 . S
Co2604 O2617 2.244 . S
O2605 Co2604 2.216 . S
O2605 C2612 1.247 . S
O2606 Co2604 2.091 . S
O2606 C2612 1.261 . S
C2607 O2616 1.247 . S
C2607 O2617 1.272 . S
O2608 Co2604 2.004 . S
O2608 C2613 1.259 . S
Co2609 O2610 2.061 . S
Co2609 O2615 2.052 . S
Co2609 O2617 2.135 . S
O2610 Co2609 2.061 . S
O2610 C2613 1.235 . S
C2611 O2614 1.238 . S
C2611 O2615 1.241 . S
C2612 O2605 1.247 . S
C2612 O2606 1.261 . S
C2613 O2608 1.259 . S
C2613 O2610 1.235 . S
O2614 Co2604 2.021 . S
O2614 C2611 1.238 . S
O2615 Co2609 2.052 . S
O2615 C2611 1.241 . S
O2616 Co2604 2.137 . S
O2616 C2607 1.247 . S
O2617 Co2604 2.244 . S
O2617 C2607 1.272 . S
O2617 Co2609 2.135 . S
Co2618 O2619 2.216 . S
Co2618 O2620 2.091 . S
Co2618 O2622 2.004 . S
Co2618 O2628 2.021 . S
Co2618 O2630 2.137 . S
Co2618 O2631 2.244 . S
O2619 Co2618 2.216 . S
O2619 C2626 1.247 . S
O2620 Co2618 2.091 . S
O2620 C2626 1.261 . S
C2621 O2630 1.247 . S
C2621 O2631 1.272 . S
O2622 Co2618 2.004 . S
O2622 C2627 1.259 . S
Co2623 O2624 2.061 . S
Co2623 O2629 2.052 . S
Co2623 O2631 2.135 . S
O2624 Co2623 2.061 . S
O2624 C2627 1.235 . S
C2625 O2628 1.238 . S
C2625 O2629 1.241 . S
C2626 O2619 1.247 . S
C2626 O2620 1.261 . S
C2627 O2622 1.259 . S
C2627 O2624 1.235 . S
O2628 Co2618 2.021 . S
O2628 C2625 1.238 . S
O2629 Co2623 2.052 . S
O2629 C2625 1.241 . S
O2630 Co2618 2.137 . S
O2630 C2621 1.247 . S
O2631 Co2618 2.244 . S
O2631 C2621 1.272 . S
O2631 Co2623 2.135 . S
Co2632 O2633 2.216 . S
Co2632 O2634 2.091 . S
Co2632 O2636 2.004 . S
Co2632 O2642 2.021 . S
Co2632 O2644 2.137 . S
Co2632 O2645 2.244 . S
O2633 Co2632 2.216 . S
O2633 C2640 1.247 . S
O2634 Co2632 2.091 . S
O2634 C2640 1.261 . S
C2635 O2644 1.247 . S
C2635 O2645 1.272 . S
O2636 Co2632 2.004 . S
O2636 C2641 1.259 . S
Co2637 O2638 2.061 . S
Co2637 O2643 2.052 . S
Co2637 O2645 2.135 . S
O2638 Co2637 2.061 . S
O2638 C2641 1.235 . S
C2639 O2642 1.238 . S
C2639 O2643 1.241 . S
C2640 O2633 1.247 . S
C2640 O2634 1.261 . S
C2641 O2636 1.259 . S
C2641 O2638 1.235 . S
O2642 Co2632 2.021 . S
O2642 C2639 1.238 . S
O2643 Co2637 2.052 . S
O2643 C2639 1.241 . S
O2644 Co2632 2.137 . S
O2644 C2635 1.247 . S
O2645 Co2632 2.244 . S
O2645 C2635 1.272 . S
O2645 Co2637 2.135 . S
Co2646 O2647 2.216 . S
Co2646 O2648 2.091 . S
Co2646 O2650 2.004 . S
Co2646 O2656 2.021 . S
Co2646 O2658 2.137 . S
Co2646 O2659 2.244 . S
O2647 Co2646 2.216 . S
O2647 C2654 1.247 . S
O2648 Co2646 2.091 . S
O2648 C2654 1.261 . S
C2649 O2658 1.247 . S
C2649 O2659 1.272 . S
O2650 Co2646 2.004 . S
O2650 C2655 1.259 . S
Co2651 O2652 2.061 . S
Co2651 O2657 2.052 . S
Co2651 O2659 2.135 . S
O2652 Co2651 2.061 . S
O2652 C2655 1.235 . S
C2653 O2656 1.238 . S
C2653 O2657 1.241 . S
C2654 O2647 1.247 . S
C2654 O2648 1.261 . S
C2655 O2650 1.259 . S
C2655 O2652 1.235 . S
O2656 Co2646 2.021 . S
O2656 C2653 1.238 . S
O2657 Co2651 2.052 . S
O2657 C2653 1.241 . S
O2658 Co2646 2.137 . S
O2658 C2649 1.247 . S
O2659 Co2646 2.244 . S
O2659 C2649 1.272 . S
O2659 Co2651 2.135 . S
Co2660 O2661 2.216 . S
Co2660 O2662 2.091 . S
Co2660 O2664 2.004 . S
Co2660 O2670 2.021 . S
Co2660 O2672 2.137 . S
Co2660 O2673 2.244 . S
O2661 Co2660 2.216 . S
O2661 C2668 1.247 . S
O2662 Co2660 2.091 . S
O2662 C2668 1.261 . S
C2663 O2672 1.247 . S
C2663 O2673 1.272 . S
O2664 Co2660 2.004 . S
O2664 C2669 1.259 . S
Co2665 O2666 2.061 . S
Co2665 O2671 2.052 . S
Co2665 O2673 2.135 . S
O2666 Co2665 2.061 . S
O2666 C2669 1.235 . S
C2667 O2670 1.238 . S
C2667 O2671 1.241 . S
C2668 O2661 1.247 . S
C2668 O2662 1.261 . S
C2669 O2664 1.259 . S
C2669 O2666 1.235 . S
O2670 Co2660 2.021 . S
O2670 C2667 1.238 . S
O2671 Co2665 2.052 . S
O2671 C2667 1.241 . S
O2672 Co2660 2.137 . S
O2672 C2663 1.247 . S
O2673 Co2660 2.244 . S
O2673 C2663 1.272 . S
O2673 Co2665 2.135 . S
Co2674 O2675 2.216 . S
Co2674 O2676 2.091 . S
Co2674 O2678 2.004 . S
Co2674 O2684 2.021 . S
Co2674 O2686 2.137 . S
Co2674 O2687 2.244 . S
O2675 Co2674 2.216 . S
O2675 C2682 1.247 . S
O2676 Co2674 2.091 . S
O2676 C2682 1.261 . S
C2677 O2686 1.247 . S
C2677 O2687 1.272 . S
O2678 Co2674 2.004 . S
O2678 C2683 1.259 . S
Co2679 O2680 2.061 . S
Co2679 O2685 2.052 . S
Co2679 O2687 2.135 . S
O2680 Co2679 2.061 . S
O2680 C2683 1.235 . S
C2681 O2684 1.238 . S
C2681 O2685 1.241 . S
C2682 O2675 1.247 . S
C2682 O2676 1.261 . S
C2683 O2678 1.259 . S
C2683 O2680 1.235 . S
O2684 Co2674 2.021 . S
O2684 C2681 1.238 . S
O2685 Co2679 2.052 . S
O2685 C2681 1.241 . S
O2686 Co2674 2.137 . S
O2686 C2677 1.247 . S
O2687 Co2674 2.244 . S
O2687 C2677 1.272 . S
O2687 Co2679 2.135 . S
C2688 C2689 1.387 . S
C2688 H2692 0.950 . S
C2688 C2697 1.390 . S
C2689 C2688 1.387 . S
C2689 C2691 1.387 . S
H2690 C2697 0.950 . S
C2691 C2689 1.387 . S
C2691 C2693 1.390 . S
C2691 H2695 0.950 . S
H2692 C2688 0.950 . S
C2693 C2691 1.390 . S
C2693 C2694 1.387 . S
C2693 H2696 0.950 . S
C2694 C2693 1.387 . S
C2694 C2697 1.387 . S
H2695 C2691 0.950 . S
H2696 C2693 0.950 . S
C2697 C2688 1.390 . S
C2697 H2690 0.950 . S
C2697 C2694 1.387 . S
C2698 C2699 1.387 . S
C2698 H2702 0.950 . S
C2698 C2707 1.390 . S
C2699 C2698 1.387 . S
C2699 C2701 1.387 . S
H2700 C2707 0.950 . S
C2701 C2699 1.387 . S
C2701 C2703 1.390 . S
C2701 H2705 0.950 . S
H2702 C2698 0.950 . S
C2703 C2701 1.390 . S
C2703 C2704 1.387 . S
C2703 H2706 0.950 . S
C2704 C2703 1.387 . S
C2704 C2707 1.387 . S
H2705 C2701 0.950 . S
H2706 C2703 0.950 . S
C2707 C2698 1.390 . S
C2707 H2700 0.950 . S
C2707 C2704 1.387 . S
C2708 C2709 1.387 . S
C2708 H2712 0.950 . S
C2708 C2717 1.390 . S
C2709 C2708 1.387 . S
C2709 C2711 1.387 . S
H2710 C2717 0.950 . S
C2711 C2709 1.387 . S
C2711 C2713 1.390 . S
C2711 H2715 0.950 . S
H2712 C2708 0.950 . S
C2713 C2711 1.390 . S
C2713 C2714 1.387 . S
C2713 H2716 0.950 . S
C2714 C2713 1.387 . S
C2714 C2717 1.387 . S
H2715 C2711 0.950 . S
H2716 C2713 0.950 . S
C2717 C2708 1.390 . S
C2717 H2710 0.950 . S
C2717 C2714 1.387 . S
C2718 C2719 1.387 . S
C2718 H2722 0.950 . S
C2718 C2727 1.390 . S
C2719 C2718 1.387 . S
C2719 C2721 1.387 . S
H2720 C2727 0.950 . S
C2721 C2719 1.387 . S
C2721 C2723 1.390 . S
C2721 H2725 0.950 . S
H2722 C2718 0.950 . S
C2723 C2721 1.390 . S
C2723 C2724 1.387 . S
C2723 H2726 0.950 . S
C2724 C2723 1.387 . S
C2724 C2727 1.387 . S
H2725 C2721 0.950 . S
H2726 C2723 0.950 . S
C2727 C2718 1.390 . S
C2727 H2720 0.950 . S
C2727 C2724 1.387 . S
C2728 C2729 1.387 . S
C2728 H2732 0.950 . S
C2728 C2737 1.390 . S
C2729 C2728 1.387 . S
C2729 C2731 1.387 . S
H2730 C2737 0.950 . S
C2731 C2729 1.387 . S
C2731 C2733 1.390 . S
C2731 H2735 0.950 . S
H2732 C2728 0.950 . S
C2733 C2731 1.390 . S
C2733 C2734 1.387 . S
C2733 H2736 0.950 . S
C2734 C2733 1.387 . S
C2734 C2737 1.387 . S
H2735 C2731 0.950 . S
H2736 C2733 0.950 . S
C2737 C2728 1.390 . S
C2737 H2730 0.950 . S
C2737 C2734 1.387 . S
C2738 C2739 1.387 . S
C2738 H2742 0.950 . S
C2738 C2747 1.390 . S
C2739 C2738 1.387 . S
C2739 C2741 1.387 . S
H2740 C2747 0.950 . S
C2741 C2739 1.387 . S
C2741 C2743 1.390 . S
C2741 H2745 0.950 . S
H2742 C2738 0.950 . S
C2743 C2741 1.390 . S
C2743 C2744 1.387 . S
C2743 H2746 0.950 . S
C2744 C2743 1.387 . S
C2744 C2747 1.387 . S
H2745 C2741 0.950 . S
H2746 C2743 0.950 . S
C2747 C2738 1.390 . S
C2747 H2740 0.950 . S
C2747 C2744 1.387 . S
C2748 C2749 1.387 . S
C2748 H2752 0.950 . S
C2748 C2757 1.390 . S
C2749 C2748 1.387 . S
C2749 C2751 1.387 . S
H2750 C2757 0.950 . S
C2751 C2749 1.387 . S
C2751 C2753 1.390 . S
C2751 H2755 0.950 . S
H2752 C2748 0.950 . S
C2753 C2751 1.390 . S
C2753 C2754 1.387 . S
C2753 H2756 0.950 . S
C2754 C2753 1.387 . S
C2754 C2757 1.387 . S
H2755 C2751 0.950 . S
H2756 C2753 0.950 . S
C2757 C2748 1.390 . S
C2757 H2750 0.950 . S
C2757 C2754 1.387 . S
C2758 C2759 1.387 . S
C2758 H2762 0.950 . S
C2758 C2767 1.390 . S
C2759 C2758 1.387 . S
C2759 C2761 1.387 . S
H2760 C2767 0.950 . S
C2761 C2759 1.387 . S
C2761 C2763 1.390 . S
C2761 H2765 0.950 . S
H2762 C2758 0.950 . S
C2763 C2761 1.390 . S
C2763 C2764 1.387 . S
C2763 H2766 0.950 . S
C2764 C2763 1.387 . S
C2764 C2767 1.387 . S
H2765 C2761 0.950 . S
H2766 C2763 0.950 . S
C2767 C2758 1.390 . S
C2767 H2760 0.950 . S
C2767 C2764 1.387 . S
C2768 C2769 1.387 . S
C2768 H2772 0.950 . S
C2768 C2777 1.390 . S
C2769 C2768 1.387 . S
C2769 C2771 1.387 . S
H2770 C2777 0.950 . S
C2771 C2769 1.387 . S
C2771 C2773 1.390 . S
C2771 H2775 0.950 . S
H2772 C2768 0.950 . S
C2773 C2771 1.390 . S
C2773 C2774 1.387 . S
C2773 H2776 0.950 . S
C2774 C2773 1.387 . S
C2774 C2777 1.387 . S
H2775 C2771 0.950 . S
H2776 C2773 0.950 . S
C2777 C2768 1.390 . S
C2777 H2770 0.950 . S
C2777 C2774 1.387 . S
C2778 C2779 1.387 . S
C2778 H2782 0.950 . S
C2778 C2787 1.390 . S
C2779 C2778 1.387 . S
C2779 C2781 1.387 . S
H2780 C2787 0.950 . S
C2781 C2779 1.387 . S
C2781 C2783 1.390 . S
C2781 H2785 0.950 . S
H2782 C2778 0.950 . S
C2783 C2781 1.390 . S
C2783 C2784 1.387 . S
C2783 H2786 0.950 . S
C2784 C2783 1.387 . S
C2784 C2787 1.387 . S
H2785 C2781 0.950 . S
H2786 C2783 0.950 . S
C2787 C2778 1.390 . S
C2787 H2780 0.950 . S
C2787 C2784 1.387 . S
C2788 C2789 1.387 . S
C2788 H2792 0.950 . S
C2788 C2797 1.390 . S
C2789 C2788 1.387 . S
C2789 C2791 1.387 . S
H2790 C2797 0.950 . S
C2791 C2789 1.387 . S
C2791 C2793 1.390 . S
C2791 H2795 0.950 . S
H2792 C2788 0.950 . S
C2793 C2791 1.390 . S
C2793 C2794 1.387 . S
C2793 H2796 0.950 . S
C2794 C2793 1.387 . S
C2794 C2797 1.387 . S
H2795 C2791 0.950 . S
H2796 C2793 0.950 . S
C2797 C2788 1.390 . S
C2797 H2790 0.950 . S
C2797 C2794 1.387 . S
C2798 C2799 1.387 . S
C2798 H2802 0.950 . S
C2798 C2807 1.390 . S
C2799 C2798 1.387 . S
C2799 C2801 1.387 . S
H2800 C2807 0.950 . S
C2801 C2799 1.387 . S
C2801 C2803 1.390 . S
C2801 H2805 0.950 . S
H2802 C2798 0.950 . S
C2803 C2801 1.390 . S
C2803 C2804 1.387 . S
C2803 H2806 0.950 . S
C2804 C2803 1.387 . S
C2804 C2807 1.387 . S
H2805 C2801 0.950 . S
H2806 C2803 0.950 . S
C2807 C2798 1.390 . S
C2807 H2800 0.950 . S
C2807 C2804 1.387 . S
C2808 C2809 1.387 . S
C2808 H2812 0.950 . S
C2808 C2817 1.390 . S
C2809 C2808 1.387 . S
C2809 C2811 1.387 . S
H2810 C2817 0.950 . S
C2811 C2809 1.387 . S
C2811 C2813 1.390 . S
C2811 H2815 0.950 . S
H2812 C2808 0.950 . S
C2813 C2811 1.390 . S
C2813 C2814 1.387 . S
C2813 H2816 0.950 . S
C2814 C2813 1.387 . S
C2814 C2817 1.387 . S
H2815 C2811 0.950 . S
H2816 C2813 0.950 . S
C2817 C2808 1.390 . S
C2817 H2810 0.950 . S
C2817 C2814 1.387 . S
C2818 C2819 1.387 . S
C2818 H2822 0.950 . S
C2818 C2827 1.390 . S
C2819 C2818 1.387 . S
C2819 C2821 1.387 . S
H2820 C2827 0.950 . S
C2821 C2819 1.387 . S
C2821 C2823 1.390 . S
C2821 H2825 0.950 . S
H2822 C2818 0.950 . S
C2823 C2821 1.390 . S
C2823 C2824 1.387 . S
C2823 H2826 0.950 . S
C2824 C2823 1.387 . S
C2824 C2827 1.387 . S
H2825 C2821 0.950 . S
H2826 C2823 0.950 . S
C2827 C2818 1.390 . S
C2827 H2820 0.950 . S
C2827 C2824 1.387 . S
C2828 C2829 1.387 . S
C2828 H2832 0.950 . S
C2828 C2837 1.390 . S
C2829 C2828 1.387 . S
C2829 C2831 1.387 . S
H2830 C2837 0.950 . S
C2831 C2829 1.387 . S
C2831 C2833 1.390 . S
C2831 H2835 0.950 . S
H2832 C2828 0.950 . S
C2833 C2831 1.390 . S
C2833 C2834 1.387 . S
C2833 H2836 0.950 . S
C2834 C2833 1.387 . S
C2834 C2837 1.387 . S
H2835 C2831 0.950 . S
H2836 C2833 0.950 . S
C2837 C2828 1.390 . S
C2837 H2830 0.950 . S
C2837 C2834 1.387 . S
C2838 C2839 1.387 . S
C2838 H2842 0.950 . S
C2838 C2847 1.390 . S
C2839 C2838 1.387 . S
C2839 C2841 1.387 . S
H2840 C2847 0.950 . S
C2841 C2839 1.387 . S
C2841 C2843 1.390 . S
C2841 H2845 0.950 . S
H2842 C2838 0.950 . S
C2843 C2841 1.390 . S
C2843 C2844 1.387 . S
C2843 H2846 0.950 . S
C2844 C2843 1.387 . S
C2844 C2847 1.387 . S
H2845 C2841 0.950 . S
H2846 C2843 0.950 . S
C2847 C2838 1.390 . S
C2847 H2840 0.950 . S
C2847 C2844 1.387 . S
C2848 C2849 1.387 . S
C2848 H2852 0.950 . S
C2848 C2857 1.390 . S
C2849 C2848 1.387 . S
C2849 C2851 1.387 . S
H2850 C2857 0.950 . S
C2851 C2849 1.387 . S
C2851 C2853 1.390 . S
C2851 H2855 0.950 . S
H2852 C2848 0.950 . S
C2853 C2851 1.390 . S
C2853 C2854 1.387 . S
C2853 H2856 0.950 . S
C2854 C2853 1.387 . S
C2854 C2857 1.387 . S
H2855 C2851 0.950 . S
H2856 C2853 0.950 . S
C2857 C2848 1.390 . S
C2857 H2850 0.950 . S
C2857 C2854 1.387 . S
C2858 C2859 1.387 . S
C2858 H2862 0.950 . S
C2858 C2867 1.390 . S
C2859 C2858 1.387 . S
C2859 C2861 1.387 . S
H2860 C2867 0.950 . S
C2861 C2859 1.387 . S
C2861 C2863 1.390 . S
C2861 H2865 0.950 . S
H2862 C2858 0.950 . S
C2863 C2861 1.390 . S
C2863 C2864 1.387 . S
C2863 H2866 0.950 . S
C2864 C2863 1.387 . S
C2864 C2867 1.387 . S
H2865 C2861 0.950 . S
H2866 C2863 0.950 . S
C2867 C2858 1.390 . S
C2867 H2860 0.950 . S
C2867 C2864 1.387 . S
C2868 C2869 1.387 . S
C2868 H2872 0.950 . S
C2868 C2877 1.390 . S
C2869 C2868 1.387 . S
C2869 C2871 1.387 . S
H2870 C2877 0.950 . S
C2871 C2869 1.387 . S
C2871 C2873 1.390 . S
C2871 H2875 0.950 . S
H2872 C2868 0.950 . S
C2873 C2871 1.390 . S
C2873 C2874 1.387 . S
C2873 H2876 0.950 . S
C2874 C2873 1.387 . S
C2874 C2877 1.387 . S
H2875 C2871 0.950 . S
H2876 C2873 0.950 . S
C2877 C2868 1.390 . S
C2877 H2870 0.950 . S
C2877 C2874 1.387 . S
C2878 C2879 1.387 . S
C2878 H2882 0.950 . S
C2878 C2887 1.390 . S
C2879 C2878 1.387 . S
C2879 C2881 1.387 . S
H2880 C2887 0.950 . S
C2881 C2879 1.387 . S
C2881 C2883 1.390 . S
C2881 H2885 0.950 . S
H2882 C2878 0.950 . S
C2883 C2881 1.390 . S
C2883 C2884 1.387 . S
C2883 H2886 0.950 . S
C2884 C2883 1.387 . S
C2884 C2887 1.387 . S
H2885 C2881 0.950 . S
H2886 C2883 0.950 . S
C2887 C2878 1.390 . S
C2887 H2880 0.950 . S
C2887 C2884 1.387 . S
C2888 C2889 1.387 . S
C2888 H2892 0.950 . S
C2888 C2897 1.390 . S
C2889 C2888 1.387 . S
C2889 C2891 1.387 . S
H2890 C2897 0.950 . S
C2891 C2889 1.387 . S
C2891 C2893 1.390 . S
C2891 H2895 0.950 . S
H2892 C2888 0.950 . S
C2893 C2891 1.390 . S
C2893 C2894 1.387 . S
C2893 H2896 0.950 . S
C2894 C2893 1.387 . S
C2894 C2897 1.387 . S
H2895 C2891 0.950 . S
H2896 C2893 0.950 . S
C2897 C2888 1.390 . S
C2897 H2890 0.950 . S
C2897 C2894 1.387 . S
C2898 C2899 1.387 . S
C2898 H2902 0.950 . S
C2898 C2907 1.390 . S
C2899 C2898 1.387 . S
C2899 C2901 1.387 . S
H2900 C2907 0.950 . S
C2901 C2899 1.387 . S
C2901 C2903 1.390 . S
C2901 H2905 0.950 . S
H2902 C2898 0.950 . S
C2903 C2901 1.390 . S
C2903 C2904 1.387 . S
C2903 H2906 0.950 . S
C2904 C2903 1.387 . S
C2904 C2907 1.387 . S
H2905 C2901 0.950 . S
H2906 C2903 0.950 . S
C2907 C2898 1.390 . S
C2907 H2900 0.950 . S
C2907 C2904 1.387 . S
C2908 C2909 1.387 . S
C2908 H2912 0.950 . S
C2908 C2917 1.390 . S
C2909 C2908 1.387 . S
C2909 C2911 1.387 . S
H2910 C2917 0.950 . S
C2911 C2909 1.387 . S
C2911 C2913 1.390 . S
C2911 H2915 0.950 . S
H2912 C2908 0.950 . S
C2913 C2911 1.390 . S
C2913 C2914 1.387 . S
C2913 H2916 0.950 . S
C2914 C2913 1.387 . S
C2914 C2917 1.387 . S
H2915 C2911 0.950 . S
H2916 C2913 0.950 . S
C2917 C2908 1.390 . S
C2917 H2910 0.950 . S
C2917 C2914 1.387 . S
C2918 C2919 1.387 . S
C2918 H2922 0.950 . S
C2918 C2927 1.390 . S
C2919 C2918 1.387 . S
C2919 C2921 1.387 . S
H2920 C2927 0.950 . S
C2921 C2919 1.387 . S
C2921 C2923 1.390 . S
C2921 H2925 0.950 . S
H2922 C2918 0.950 . S
C2923 C2921 1.390 . S
C2923 C2924 1.387 . S
C2923 H2926 0.950 . S
C2924 C2923 1.387 . S
C2924 C2927 1.387 . S
H2925 C2921 0.950 . S
H2926 C2923 0.950 . S
C2927 C2918 1.390 . S
C2927 H2920 0.950 . S
C2927 C2924 1.387 . S
C2928 C2929 1.387 . S
C2928 H2932 0.950 . S
C2928 C2937 1.390 . S
C2929 C2928 1.387 . S
C2929 C2931 1.387 . S
H2930 C2937 0.950 . S
C2931 C2929 1.387 . S
C2931 C2933 1.390 . S
C2931 H2935 0.950 . S
H2932 C2928 0.950 . S
C2933 C2931 1.390 . S
C2933 C2934 1.387 . S
C2933 H2936 0.950 . S
C2934 C2933 1.387 . S
C2934 C2937 1.387 . S
H2935 C2931 0.950 . S
H2936 C2933 0.950 . S
C2937 C2928 1.390 . S
C2937 H2930 0.950 . S
C2937 C2934 1.387 . S
C2938 C2939 1.387 . S
C2938 H2942 0.950 . S
C2938 C2947 1.390 . S
C2939 C2938 1.387 . S
C2939 C2941 1.387 . S
H2940 C2947 0.950 . S
C2941 C2939 1.387 . S
C2941 C2943 1.390 . S
C2941 H2945 0.950 . S
H2942 C2938 0.950 . S
C2943 C2941 1.390 . S
C2943 C2944 1.387 . S
C2943 H2946 0.950 . S
C2944 C2943 1.387 . S
C2944 C2947 1.387 . S
H2945 C2941 0.950 . S
H2946 C2943 0.950 . S
C2947 C2938 1.390 . S
C2947 H2940 0.950 . S
C2947 C2944 1.387 . S
C2948 C2949 1.387 . S
C2948 H2952 0.950 . S
C2948 C2957 1.390 . S
C2949 C2948 1.387 . S
C2949 C2951 1.387 . S
H2950 C2957 0.950 . S
C2951 C2949 1.387 . S
C2951 C2953 1.390 . S
C2951 H2955 0.950 . S
H2952 C2948 0.950 . S
C2953 C2951 1.390 . S
C2953 C2954 1.387 . S
C2953 H2956 0.950 . S
C2954 C2953 1.387 . S
C2954 C2957 1.387 . S
H2955 C2951 0.950 . S
H2956 C2953 0.950 . S
C2957 C2948 1.390 . S
C2957 H2950 0.950 . S
C2957 C2954 1.387 . S
C2958 C2959 1.387 . S
C2958 H2962 0.950 . S
C2958 C2967 1.390 . S
C2959 C2958 1.387 . S
C2959 C2961 1.387 . S
H2960 C2967 0.950 . S
C2961 C2959 1.387 . S
C2961 C2963 1.390 . S
C2961 H2965 0.950 . S
H2962 C2958 0.950 . S
C2963 C2961 1.390 . S
C2963 C2964 1.387 . S
C2963 H2966 0.950 . S
C2964 C2963 1.387 . S
C2964 C2967 1.387 . S
H2965 C2961 0.950 . S
H2966 C2963 0.950 . S
C2967 C2958 1.390 . S
C2967 H2960 0.950 . S
C2967 C2964 1.387 . S
C2968 C2969 1.387 . S
C2968 H2972 0.950 . S
C2968 C2977 1.390 . S
C2969 C2968 1.387 . S
C2969 C2971 1.387 . S
H2970 C2977 0.950 . S
C2971 C2969 1.387 . S
C2971 C2973 1.390 . S
C2971 H2975 0.950 . S
H2972 C2968 0.950 . S
C2973 C2971 1.390 . S
C2973 C2974 1.387 . S
C2973 H2976 0.950 . S
C2974 C2973 1.387 . S
C2974 C2977 1.387 . S
H2975 C2971 0.950 . S
H2976 C2973 0.950 . S
C2977 C2968 1.390 . S
C2977 H2970 0.950 . S
C2977 C2974 1.387 . S
C2978 C2979 1.387 . S
C2978 H2982 0.950 . S
C2978 C2987 1.390 . S
C2979 C2978 1.387 . S
C2979 C2981 1.387 . S
H2980 C2987 0.950 . S
C2981 C2979 1.387 . S
C2981 C2983 1.390 . S
C2981 H2985 0.950 . S
H2982 C2978 0.950 . S
C2983 C2981 1.390 . S
C2983 C2984 1.387 . S
C2983 H2986 0.950 . S
C2984 C2983 1.387 . S
C2984 C2987 1.387 . S
H2985 C2981 0.950 . S
H2986 C2983 0.950 . S
C2987 C2978 1.390 . S
C2987 H2980 0.950 . S
C2987 C2984 1.387 . S
C2988 C2989 1.387 . S
C2988 H2992 0.950 . S
C2988 C2997 1.390 . S
C2989 C2988 1.387 . S
C2989 C2991 1.387 . S
H2990 C2997 0.950 . S
C2991 C2989 1.387 . S
C2991 C2993 1.390 . S
C2991 H2995 0.950 . S
H2992 C2988 0.950 . S
C2993 C2991 1.390 . S
C2993 C2994 1.387 . S
C2993 H2996 0.950 . S
C2994 C2993 1.387 . S
C2994 C2997 1.387 . S
H2995 C2991 0.950 . S
H2996 C2993 0.950 . S
C2997 C2988 1.390 . S
C2997 H2990 0.950 . S
C2997 C2994 1.387 . S
C2998 C2999 1.387 . S
C2998 H3002 0.950 . S
C2998 C3007 1.390 . S
C2999 C2998 1.387 . S
C2999 C3001 1.387 . S
H3000 C3007 0.950 . S
C3001 C2999 1.387 . S
C3001 C3003 1.390 . S
C3001 H3005 0.950 . S
H3002 C2998 0.950 . S
C3003 C3001 1.390 . S
C3003 C3004 1.387 . S
C3003 H3006 0.950 . S
C3004 C3003 1.387 . S
C3004 C3007 1.387 . S
H3005 C3001 0.950 . S
H3006 C3003 0.950 . S
C3007 C2998 1.390 . S
C3007 H3000 0.950 . S
C3007 C3004 1.387 . S
C3008 C3009 1.387 . S
C3008 H3012 0.950 . S
C3008 C3017 1.390 . S
C3009 C3008 1.387 . S
C3009 C3011 1.387 . S
H3010 C3017 0.950 . S
C3011 C3009 1.387 . S
C3011 C3013 1.390 . S
C3011 H3015 0.950 . S
H3012 C3008 0.950 . S
C3013 C3011 1.390 . S
C3013 C3014 1.387 . S
C3013 H3016 0.950 . S
C3014 C3013 1.387 . S
C3014 C3017 1.387 . S
H3015 C3011 0.950 . S
H3016 C3013 0.950 . S
C3017 C3008 1.390 . S
C3017 H3010 0.950 . S
C3017 C3014 1.387 . S
C3018 C3019 1.387 . S
C3018 H3022 0.950 . S
C3018 C3027 1.390 . S
C3019 C3018 1.387 . S
C3019 C3021 1.387 . S
H3020 C3027 0.950 . S
C3021 C3019 1.387 . S
C3021 C3023 1.390 . S
C3021 H3025 0.950 . S
H3022 C3018 0.950 . S
C3023 C3021 1.390 . S
C3023 C3024 1.387 . S
C3023 H3026 0.950 . S
C3024 C3023 1.387 . S
C3024 C3027 1.387 . S
H3025 C3021 0.950 . S
H3026 C3023 0.950 . S
C3027 C3018 1.390 . S
C3027 H3020 0.950 . S
C3027 C3024 1.387 . S
C3028 C3029 1.387 . S
C3028 H3032 0.950 . S
C3028 C3037 1.390 . S
C3029 C3028 1.387 . S
C3029 C3031 1.387 . S
H3030 C3037 0.950 . S
C3031 C3029 1.387 . S
C3031 C3033 1.390 . S
C3031 H3035 0.950 . S
H3032 C3028 0.950 . S
C3033 C3031 1.390 . S
C3033 C3034 1.387 . S
C3033 H3036 0.950 . S
C3034 C3033 1.387 . S
C3034 C3037 1.387 . S
H3035 C3031 0.950 . S
H3036 C3033 0.950 . S
C3037 C3028 1.390 . S
C3037 H3030 0.950 . S
C3037 C3034 1.387 . S
C3038 C3039 1.387 . S
C3038 H3042 0.950 . S
C3038 C3047 1.390 . S
C3039 C3038 1.387 . S
C3039 C3041 1.387 . S
H3040 C3047 0.950 . S
C3041 C3039 1.387 . S
C3041 C3043 1.390 . S
C3041 H3045 0.950 . S
H3042 C3038 0.950 . S
C3043 C3041 1.390 . S
C3043 C3044 1.387 . S
C3043 H3046 0.950 . S
C3044 C3043 1.387 . S
C3044 C3047 1.387 . S
H3045 C3041 0.950 . S
H3046 C3043 0.950 . S
C3047 C3038 1.390 . S
C3047 H3040 0.950 . S
C3047 C3044 1.387 . S
C3048 C3049 1.387 . S
C3048 H3052 0.950 . S
C3048 C3057 1.390 . S
C3049 C3048 1.387 . S
C3049 C3051 1.387 . S
H3050 C3057 0.950 . S
C3051 C3049 1.387 . S
C3051 C3053 1.390 . S
C3051 H3055 0.950 . S
H3052 C3048 0.950 . S
C3053 C3051 1.390 . S
C3053 C3054 1.387 . S
C3053 H3056 0.950 . S
C3054 C3053 1.387 . S
C3054 C3057 1.387 . S
H3055 C3051 0.950 . S
H3056 C3053 0.950 . S
C3057 C3048 1.390 . S
C3057 H3050 0.950 . S
C3057 C3054 1.387 . S
C3058 C3059 1.387 . S
C3058 H3062 0.950 . S
C3058 C3067 1.390 . S
C3059 C3058 1.387 . S
C3059 C3061 1.387 . S
H3060 C3067 0.950 . S
C3061 C3059 1.387 . S
C3061 C3063 1.390 . S
C3061 H3065 0.950 . S
H3062 C3058 0.950 . S
C3063 C3061 1.390 . S
C3063 C3064 1.387 . S
C3063 H3066 0.950 . S
C3064 C3063 1.387 . S
C3064 C3067 1.387 . S
H3065 C3061 0.950 . S
H3066 C3063 0.950 . S
C3067 C3058 1.390 . S
C3067 H3060 0.950 . S
C3067 C3064 1.387 . S
C3068 C3069 1.387 . S
C3068 H3072 0.950 . S
C3068 C3077 1.390 . S
C3069 C3068 1.387 . S
C3069 C3071 1.387 . S
H3070 C3077 0.950 . S
C3071 C3069 1.387 . S
C3071 C3073 1.390 . S
C3071 H3075 0.950 . S
H3072 C3068 0.950 . S
C3073 C3071 1.390 . S
C3073 C3074 1.387 . S
C3073 H3076 0.950 . S
C3074 C3073 1.387 . S
C3074 C3077 1.387 . S
H3075 C3071 0.950 . S
H3076 C3073 0.950 . S
C3077 C3068 1.390 . S
C3077 H3070 0.950 . S
C3077 C3074 1.387 . S
C3078 C3079 1.387 . S
C3078 H3082 0.950 . S
C3078 C3087 1.390 . S
C3079 C3078 1.387 . S
C3079 C3081 1.387 . S
H3080 C3087 0.950 . S
C3081 C3079 1.387 . S
C3081 C3083 1.390 . S
C3081 H3085 0.950 . S
H3082 C3078 0.950 . S
C3083 C3081 1.390 . S
C3083 C3084 1.387 . S
C3083 H3086 0.950 . S
C3084 C3083 1.387 . S
C3084 C3087 1.387 . S
H3085 C3081 0.950 . S
H3086 C3083 0.950 . S
C3087 C3078 1.390 . S
C3087 H3080 0.950 . S
C3087 C3084 1.387 . S
C3088 C3089 1.387 . S
C3088 H3092 0.950 . S
C3088 C3097 1.390 . S
C3089 C3088 1.387 . S
C3089 C3091 1.387 . S
H3090 C3097 0.950 . S
C3091 C3089 1.387 . S
C3091 C3093 1.390 . S
C3091 H3095 0.950 . S
H3092 C3088 0.950 . S
C3093 C3091 1.390 . S
C3093 C3094 1.387 . S
C3093 H3096 0.950 . S
C3094 C3093 1.387 . S
C3094 C3097 1.387 . S
H3095 C3091 0.950 . S
H3096 C3093 0.950 . S
C3097 C3088 1.390 . S
C3097 H3090 0.950 . S
C3097 C3094 1.387 . S
C3098 C3099 1.387 . S
C3098 H3102 0.950 . S
C3098 C3107 1.390 . S
C3099 C3098 1.387 . S
C3099 C3101 1.387 . S
H3100 C3107 0.950 . S
C3101 C3099 1.387 . S
C3101 C3103 1.390 . S
C3101 H3105 0.950 . S
H3102 C3098 0.950 . S
C3103 C3101 1.390 . S
C3103 C3104 1.387 . S
C3103 H3106 0.950 . S
C3104 C3103 1.387 . S
C3104 C3107 1.387 . S
H3105 C3101 0.950 . S
H3106 C3103 0.950 . S
C3107 C3098 1.390 . S
C3107 H3100 0.950 . S
C3107 C3104 1.387 . S
C3108 C3109 1.387 . S
C3108 H3112 0.950 . S
C3108 C3117 1.390 . S
C3109 C3108 1.387 . S
C3109 C3111 1.387 . S
H3110 C3117 0.950 . S
C3111 C3109 1.387 . S
C3111 C3113 1.390 . S
C3111 H3115 0.950 . S
H3112 C3108 0.950 . S
C3113 C3111 1.390 . S
C3113 C3114 1.387 . S
C3113 H3116 0.950 . S
C3114 C3113 1.387 . S
C3114 C3117 1.387 . S
H3115 C3111 0.950 . S
H3116 C3113 0.950 . S
C3117 C3108 1.390 . S
C3117 H3110 0.950 . S
C3117 C3114 1.387 . S
C3118 C3119 1.387 . S
C3118 H3122 0.950 . S
C3118 C3127 1.390 . S
C3119 C3118 1.387 . S
C3119 C3121 1.387 . S
H3120 C3127 0.950 . S
C3121 C3119 1.387 . S
C3121 C3123 1.390 . S
C3121 H3125 0.950 . S
H3122 C3118 0.950 . S
C3123 C3121 1.390 . S
C3123 C3124 1.387 . S
C3123 H3126 0.950 . S
C3124 C3123 1.387 . S
C3124 C3127 1.387 . S
H3125 C3121 0.950 . S
H3126 C3123 0.950 . S
C3127 C3118 1.390 . S
C3127 H3120 0.950 . S
C3127 C3124 1.387 . S
C3128 C3129 1.387 . S
C3128 H3132 0.950 . S
C3128 C3137 1.390 . S
C3129 C3128 1.387 . S
C3129 C3131 1.387 . S
H3130 C3137 0.950 . S
C3131 C3129 1.387 . S
C3131 C3133 1.390 . S
C3131 H3135 0.950 . S
H3132 C3128 0.950 . S
C3133 C3131 1.390 . S
C3133 C3134 1.387 . S
C3133 H3136 0.950 . S
C3134 C3133 1.387 . S
C3134 C3137 1.387 . S
H3135 C3131 0.950 . S
H3136 C3133 0.950 . S
C3137 C3128 1.390 . S
C3137 H3130 0.950 . S
C3137 C3134 1.387 . S
C3138 C3139 1.387 . S
C3138 H3142 0.950 . S
C3138 C3147 1.390 . S
C3139 C3138 1.387 . S
C3139 C3141 1.387 . S
H3140 C3147 0.950 . S
C3141 C3139 1.387 . S
C3141 C3143 1.390 . S
C3141 H3145 0.950 . S
H3142 C3138 0.950 . S
C3143 C3141 1.390 . S
C3143 C3144 1.387 . S
C3143 H3146 0.950 . S
C3144 C3143 1.387 . S
C3144 C3147 1.387 . S
H3145 C3141 0.950 . S
H3146 C3143 0.950 . S
C3147 C3138 1.390 . S
C3147 H3140 0.950 . S
C3147 C3144 1.387 . S
C3148 C3149 1.387 . S
C3148 H3152 0.950 . S
C3148 C3157 1.390 . S
C3149 C3148 1.387 . S
C3149 C3151 1.387 . S
H3150 C3157 0.950 . S
C3151 C3149 1.387 . S
C3151 C3153 1.390 . S
C3151 H3155 0.950 . S
H3152 C3148 0.950 . S
C3153 C3151 1.390 . S
C3153 C3154 1.387 . S
C3153 H3156 0.950 . S
C3154 C3153 1.387 . S
C3154 C3157 1.387 . S
H3155 C3151 0.950 . S
H3156 C3153 0.950 . S
C3157 C3148 1.390 . S
C3157 H3150 0.950 . S
C3157 C3154 1.387 . S
C3158 C3159 1.387 . S
C3158 H3162 0.950 . S
C3158 C3167 1.390 . S
C3159 C3158 1.387 . S
C3159 C3161 1.387 . S
H3160 C3167 0.950 . S
C3161 C3159 1.387 . S
C3161 C3163 1.390 . S
C3161 H3165 0.950 . S
H3162 C3158 0.950 . S
C3163 C3161 1.390 . S
C3163 C3164 1.387 . S
C3163 H3166 0.950 . S
C3164 C3163 1.387 . S
C3164 C3167 1.387 . S
H3165 C3161 0.950 . S
H3166 C3163 0.950 . S
C3167 C3158 1.390 . S
C3167 H3160 0.950 . S
C3167 C3164 1.387 . S
C3168 C3169 1.387 . S
C3168 H3172 0.950 . S
C3168 C3177 1.390 . S
C3169 C3168 1.387 . S
C3169 C3171 1.387 . S
H3170 C3177 0.950 . S
C3171 C3169 1.387 . S
C3171 C3173 1.390 . S
C3171 H3175 0.950 . S
H3172 C3168 0.950 . S
C3173 C3171 1.390 . S
C3173 C3174 1.387 . S
C3173 H3176 0.950 . S
C3174 C3173 1.387 . S
C3174 C3177 1.387 . S
H3175 C3171 0.950 . S
H3176 C3173 0.950 . S
C3177 C3168 1.390 . S
C3177 H3170 0.950 . S
C3177 C3174 1.387 . S
C3178 C3179 1.387 . S
C3178 H3182 0.950 . S
C3178 C3187 1.390 . S
C3179 C3178 1.387 . S
C3179 C3181 1.387 . S
H3180 C3187 0.950 . S
C3181 C3179 1.387 . S
C3181 C3183 1.390 . S
C3181 H3185 0.950 . S
H3182 C3178 0.950 . S
C3183 C3181 1.390 . S
C3183 C3184 1.387 . S
C3183 H3186 0.950 . S
C3184 C3183 1.387 . S
C3184 C3187 1.387 . S
H3185 C3181 0.950 . S
H3186 C3183 0.950 . S
C3187 C3178 1.390 . S
C3187 H3180 0.950 . S
C3187 C3184 1.387 . S
C3188 C3189 1.387 . S
C3188 H3192 0.950 . S
C3188 C3197 1.390 . S
C3189 C3188 1.387 . S
C3189 C3191 1.387 . S
H3190 C3197 0.950 . S
C3191 C3189 1.387 . S
C3191 C3193 1.390 . S
C3191 H3195 0.950 . S
H3192 C3188 0.950 . S
C3193 C3191 1.390 . S
C3193 C3194 1.387 . S
C3193 H3196 0.950 . S
C3194 C3193 1.387 . S
C3194 C3197 1.387 . S
H3195 C3191 0.950 . S
H3196 C3193 0.950 . S
C3197 C3188 1.390 . S
C3197 H3190 0.950 . S
C3197 C3194 1.387 . S
C3198 C3199 1.387 . S
C3198 H3202 0.950 . S
C3198 C3207 1.390 . S
C3199 C3198 1.387 . S
C3199 C3201 1.387 . S
H3200 C3207 0.950 . S
C3201 C3199 1.387 . S
C3201 C3203 1.390 . S
C3201 H3205 0.950 . S
H3202 C3198 0.950 . S
C3203 C3201 1.390 . S
C3203 C3204 1.387 . S
C3203 H3206 0.950 . S
C3204 C3203 1.387 . S
C3204 C3207 1.387 . S
H3205 C3201 0.950 . S
H3206 C3203 0.950 . S
C3207 C3198 1.390 . S
C3207 H3200 0.950 . S
C3207 C3204 1.387 . S
C3208 C3209 1.387 . S
C3208 H3212 0.950 . S
C3208 C3217 1.390 . S
C3209 C3208 1.387 . S
C3209 C3211 1.387 . S
H3210 C3217 0.950 . S
C3211 C3209 1.387 . S
C3211 C3213 1.390 . S
C3211 H3215 0.950 . S
H3212 C3208 0.950 . S
C3213 C3211 1.390 . S
C3213 C3214 1.387 . S
C3213 H3216 0.950 . S
C3214 C3213 1.387 . S
C3214 C3217 1.387 . S
H3215 C3211 0.950 . S
H3216 C3213 0.950 . S
C3217 C3208 1.390 . S
C3217 H3210 0.950 . S
C3217 C3214 1.387 . S
C3218 C3219 1.387 . S
C3218 H3222 0.950 . S
C3218 C3227 1.390 . S
C3219 C3218 1.387 . S
C3219 C3221 1.387 . S
H3220 C3227 0.950 . S
C3221 C3219 1.387 . S
C3221 C3223 1.390 . S
C3221 H3225 0.950 . S
H3222 C3218 0.950 . S
C3223 C3221 1.390 . S
C3223 C3224 1.387 . S
C3223 H3226 0.950 . S
C3224 C3223 1.387 . S
C3224 C3227 1.387 . S
H3225 C3221 0.950 . S
H3226 C3223 0.950 . S
C3227 C3218 1.390 . S
C3227 H3220 0.950 . S
C3227 C3224 1.387 . S
C3228 C3229 1.387 . S
C3228 H3232 0.950 . S
C3228 C3237 1.390 . S
C3229 C3228 1.387 . S
C3229 C3231 1.387 . S
H3230 C3237 0.950 . S
C3231 C3229 1.387 . S
C3231 C3233 1.390 . S
C3231 H3235 0.950 . S
H3232 C3228 0.950 . S
C3233 C3231 1.390 . S
C3233 C3234 1.387 . S
C3233 H3236 0.950 . S
C3234 C3233 1.387 . S
C3234 C3237 1.387 . S
H3235 C3231 0.950 . S
H3236 C3233 0.950 . S
C3237 C3228 1.390 . S
C3237 H3230 0.950 . S
C3237 C3234 1.387 . S
C3238 C3239 1.387 . S
C3238 H3242 0.950 . S
C3238 C3247 1.390 . S
C3239 C3238 1.387 . S
C3239 C3241 1.387 . S
H3240 C3247 0.950 . S
C3241 C3239 1.387 . S
C3241 C3243 1.390 . S
C3241 H3245 0.950 . S
H3242 C3238 0.950 . S
C3243 C3241 1.390 . S
C3243 C3244 1.387 . S
C3243 H3246 0.950 . S
C3244 C3243 1.387 . S
C3244 C3247 1.387 . S
H3245 C3241 0.950 . S
H3246 C3243 0.950 . S
C3247 C3238 1.390 . S
C3247 H3240 0.950 . S
C3247 C3244 1.387 . S
C3248 C3249 1.387 . S
C3248 H3252 0.950 . S
C3248 C3257 1.390 . S
C3249 C3248 1.387 . S
C3249 C3251 1.387 . S
H3250 C3257 0.950 . S
C3251 C3249 1.387 . S
C3251 C3253 1.390 . S
C3251 H3255 0.950 . S
H3252 C3248 0.950 . S
C3253 C3251 1.390 . S
C3253 C3254 1.387 . S
C3253 H3256 0.950 . S
C3254 C3253 1.387 . S
C3254 C3257 1.387 . S
H3255 C3251 0.950 . S
H3256 C3253 0.950 . S
C3257 C3248 1.390 . S
C3257 H3250 0.950 . S
C3257 C3254 1.387 . S
C3258 C3259 1.387 . S
C3258 H3262 0.950 . S
C3258 C3267 1.390 . S
C3259 C3258 1.387 . S
C3259 C3261 1.387 . S
H3260 C3267 0.950 . S
C3261 C3259 1.387 . S
C3261 C3263 1.390 . S
C3261 H3265 0.950 . S
H3262 C3258 0.950 . S
C3263 C3261 1.390 . S
C3263 C3264 1.387 . S
C3263 H3266 0.950 . S
C3264 C3263 1.387 . S
C3264 C3267 1.387 . S
H3265 C3261 0.950 . S
H3266 C3263 0.950 . S
C3267 C3258 1.390 . S
C3267 H3260 0.950 . S
C3267 C3264 1.387 . S
C3268 C3269 1.387 . S
C3268 H3272 0.950 . S
C3268 C3277 1.390 . S
C3269 C3268 1.387 . S
C3269 C3271 1.387 . S
H3270 C3277 0.950 . S
C3271 C3269 1.387 . S
C3271 C3273 1.390 . S
C3271 H3275 0.950 . S
H3272 C3268 0.950 . S
C3273 C3271 1.390 . S
C3273 C3274 1.387 . S
C3273 H3276 0.950 . S
C3274 C3273 1.387 . S
C3274 C3277 1.387 . S
H3275 C3271 0.950 . S
H3276 C3273 0.950 . S
C3277 C3268 1.390 . S
C3277 H3270 0.950 . S
C3277 C3274 1.387 . S
C3278 C3279 1.387 . S
C3278 H3282 0.950 . S
C3278 C3287 1.390 . S
C3279 C3278 1.387 . S
C3279 C3281 1.387 . S
H3280 C3287 0.950 . S
C3281 C3279 1.387 . S
C3281 C3283 1.390 . S
C3281 H3285 0.950 . S
H3282 C3278 0.950 . S
C3283 C3281 1.390 . S
C3283 C3284 1.387 . S
C3283 H3286 0.950 . S
C3284 C3283 1.387 . S
C3284 C3287 1.387 . S
H3285 C3281 0.950 . S
H3286 C3283 0.950 . S
C3287 C3278 1.390 . S
C3287 H3280 0.950 . S
C3287 C3284 1.387 . S
C3288 C3289 1.387 . S
C3288 H3292 0.950 . S
C3288 C3297 1.390 . S
C3289 C3288 1.387 . S
C3289 C3291 1.387 . S
H3290 C3297 0.950 . S
C3291 C3289 1.387 . S
C3291 C3293 1.390 . S
C3291 H3295 0.950 . S
H3292 C3288 0.950 . S
C3293 C3291 1.390 . S
C3293 C3294 1.387 . S
C3293 H3296 0.950 . S
C3294 C3293 1.387 . S
C3294 C3297 1.387 . S
H3295 C3291 0.950 . S
H3296 C3293 0.950 . S
C3297 C3288 1.390 . S
C3297 H3290 0.950 . S
C3297 C3294 1.387 . S
C3298 C3299 1.387 . S
C3298 H3302 0.950 . S
C3298 C3307 1.390 . S
C3299 C3298 1.387 . S
C3299 C3301 1.387 . S
H3300 C3307 0.950 . S
C3301 C3299 1.387 . S
C3301 C3303 1.390 . S
C3301 H3305 0.950 . S
H3302 C3298 0.950 . S
C3303 C3301 1.390 . S
C3303 C3304 1.387 . S
C3303 H3306 0.950 . S
C3304 C3303 1.387 . S
C3304 C3307 1.387 . S
H3305 C3301 0.950 . S
H3306 C3303 0.950 . S
C3307 C3298 1.390 . S
C3307 H3300 0.950 . S
C3307 C3304 1.387 . S
C3308 C3309 1.387 . S
C3308 H3312 0.950 . S
C3308 C3317 1.390 . S
C3309 C3308 1.387 . S
C3309 C3311 1.387 . S
H3310 C3317 0.950 . S
C3311 C3309 1.387 . S
C3311 C3313 1.390 . S
C3311 H3315 0.950 . S
H3312 C3308 0.950 . S
C3313 C3311 1.390 . S
C3313 C3314 1.387 . S
C3313 H3316 0.950 . S
C3314 C3313 1.387 . S
C3314 C3317 1.387 . S
H3315 C3311 0.950 . S
H3316 C3313 0.950 . S
C3317 C3308 1.390 . S
C3317 H3310 0.950 . S
C3317 C3314 1.387 . S
C3318 C3319 1.387 . S
C3318 H3322 0.950 . S
C3318 C3327 1.390 . S
C3319 C3318 1.387 . S
C3319 C3321 1.387 . S
H3320 C3327 0.950 . S
C3321 C3319 1.387 . S
C3321 C3323 1.390 . S
C3321 H3325 0.950 . S
H3322 C3318 0.950 . S
C3323 C3321 1.390 . S
C3323 C3324 1.387 . S
C3323 H3326 0.950 . S
C3324 C3323 1.387 . S
C3324 C3327 1.387 . S
H3325 C3321 0.950 . S
H3326 C3323 0.950 . S
C3327 C3318 1.390 . S
C3327 H3320 0.950 . S
C3327 C3324 1.387 . S
C3328 C3329 1.387 . S
C3328 H3332 0.950 . S
C3328 C3337 1.390 . S
C3329 C3328 1.387 . S
C3329 C3331 1.387 . S
H3330 C3337 0.950 . S
C3331 C3329 1.387 . S
C3331 C3333 1.390 . S
C3331 H3335 0.950 . S
H3332 C3328 0.950 . S
C3333 C3331 1.390 . S
C3333 C3334 1.387 . S
C3333 H3336 0.950 . S
C3334 C3333 1.387 . S
C3334 C3337 1.387 . S
H3335 C3331 0.950 . S
H3336 C3333 0.950 . S
C3337 C3328 1.390 . S
C3337 H3330 0.950 . S
C3337 C3334 1.387 . S
C3338 C3339 1.387 . S
C3338 H3342 0.950 . S
C3338 C3347 1.390 . S
C3339 C3338 1.387 . S
C3339 C3341 1.387 . S
H3340 C3347 0.950 . S
C3341 C3339 1.387 . S
C3341 C3343 1.390 . S
C3341 H3345 0.950 . S
H3342 C3338 0.950 . S
C3343 C3341 1.390 . S
C3343 C3344 1.387 . S
C3343 H3346 0.950 . S
C3344 C3343 1.387 . S
C3344 C3347 1.387 . S
H3345 C3341 0.950 . S
H3346 C3343 0.950 . S
C3347 C3338 1.390 . S
C3347 H3340 0.950 . S
C3347 C3344 1.387 . S
C3348 C3349 1.387 . S
C3348 H3352 0.950 . S
C3348 C3357 1.390 . S
C3349 C3348 1.387 . S
C3349 C3351 1.387 . S
H3350 C3357 0.950 . S
C3351 C3349 1.387 . S
C3351 C3353 1.390 . S
C3351 H3355 0.950 . S
H3352 C3348 0.950 . S
C3353 C3351 1.390 . S
C3353 C3354 1.387 . S
C3353 H3356 0.950 . S
C3354 C3353 1.387 . S
C3354 C3357 1.387 . S
H3355 C3351 0.950 . S
H3356 C3353 0.950 . S
C3357 C3348 1.390 . S
C3357 H3350 0.950 . S
C3357 C3354 1.387 . S
C3358 C3359 1.387 . S
C3358 H3362 0.950 . S
C3358 C3367 1.390 . S
C3359 C3358 1.387 . S
C3359 C3361 1.387 . S
H3360 C3367 0.950 . S
C3361 C3359 1.387 . S
C3361 C3363 1.390 . S
C3361 H3365 0.950 . S
H3362 C3358 0.950 . S
C3363 C3361 1.390 . S
C3363 C3364 1.387 . S
C3363 H3366 0.950 . S
C3364 C3363 1.387 . S
C3364 C3367 1.387 . S
H3365 C3361 0.950 . S
H3366 C3363 0.950 . S
C3367 C3358 1.390 . S
C3367 H3360 0.950 . S
C3367 C3364 1.387 . S
C3368 C3369 1.387 . S
C3368 H3372 0.950 . S
C3368 C3377 1.390 . S
C3369 C3368 1.387 . S
C3369 C3371 1.387 . S
H3370 C3377 0.950 . S
C3371 C3369 1.387 . S
C3371 C3373 1.390 . S
C3371 H3375 0.950 . S
H3372 C3368 0.950 . S
C3373 C3371 1.390 . S
C3373 C3374 1.387 . S
C3373 H3376 0.950 . S
C3374 C3373 1.387 . S
C3374 C3377 1.387 . S
H3375 C3371 0.950 . S
H3376 C3373 0.950 . S
C3377 C3368 1.390 . S
C3377 H3370 0.950 . S
C3377 C3374 1.387 . S
C3378 C3379 1.387 . S
C3378 H3382 0.950 . S
C3378 C3387 1.390 . S
C3379 C3378 1.387 . S
C3379 C3381 1.387 . S
H3380 C3387 0.950 . S
C3381 C3379 1.387 . S
C3381 C3383 1.390 . S
C3381 H3385 0.950 . S
H3382 C3378 0.950 . S
C3383 C3381 1.390 . S
C3383 C3384 1.387 . S
C3383 H3386 0.950 . S
C3384 C3383 1.387 . S
C3384 C3387 1.387 . S
H3385 C3381 0.950 . S
H3386 C3383 0.950 . S
C3387 C3378 1.390 . S
C3387 H3380 0.950 . S
C3387 C3384 1.387 . S
C3388 C3389 1.387 . S
C3388 H3392 0.950 . S
C3388 C3397 1.390 . S
C3389 C3388 1.387 . S
C3389 C3391 1.387 . S
H3390 C3397 0.950 . S
C3391 C3389 1.387 . S
C3391 C3393 1.390 . S
C3391 H3395 0.950 . S
H3392 C3388 0.950 . S
C3393 C3391 1.390 . S
C3393 C3394 1.387 . S
C3393 H3396 0.950 . S
C3394 C3393 1.387 . S
C3394 C3397 1.387 . S
H3395 C3391 0.950 . S
H3396 C3393 0.950 . S
C3397 C3388 1.390 . S
C3397 H3390 0.950 . S
C3397 C3394 1.387 . S
C3398 C3399 1.387 . S
C3398 H3402 0.950 . S
C3398 C3407 1.390 . S
C3399 C3398 1.387 . S
C3399 C3401 1.387 . S
H3400 C3407 0.950 . S
C3401 C3399 1.387 . S
C3401 C3403 1.390 . S
C3401 H3405 0.950 . S
H3402 C3398 0.950 . S
C3403 C3401 1.390 . S
C3403 C3404 1.387 . S
C3403 H3406 0.950 . S
C3404 C3403 1.387 . S
C3404 C3407 1.387 . S
H3405 C3401 0.950 . S
H3406 C3403 0.950 . S
C3407 C3398 1.390 . S
C3407 H3400 0.950 . S
C3407 C3404 1.387 . S
C3408 C3409 1.387 . S
C3408 H3412 0.950 . S
C3408 C3417 1.390 . S
C3409 C3408 1.387 . S
C3409 C3411 1.387 . S
H3410 C3417 0.950 . S
C3411 C3409 1.387 . S
C3411 C3413 1.390 . S
C3411 H3415 0.950 . S
H3412 C3408 0.950 . S
C3413 C3411 1.390 . S
C3413 C3414 1.387 . S
C3413 H3416 0.950 . S
C3414 C3413 1.387 . S
C3414 C3417 1.387 . S
H3415 C3411 0.950 . S
H3416 C3413 0.950 . S
C3417 C3408 1.390 . S
C3417 H3410 0.950 . S
C3417 C3414 1.387 . S
C3418 C3419 1.387 . S
C3418 H3422 0.950 . S
C3418 C3427 1.390 . S
C3419 C3418 1.387 . S
C3419 C3421 1.387 . S
H3420 C3427 0.950 . S
C3421 C3419 1.387 . S
C3421 C3423 1.390 . S
C3421 H3425 0.950 . S
H3422 C3418 0.950 . S
C3423 C3421 1.390 . S
C3423 C3424 1.387 . S
C3423 H3426 0.950 . S
C3424 C3423 1.387 . S
C3424 C3427 1.387 . S
H3425 C3421 0.950 . S
H3426 C3423 0.950 . S
C3427 C3418 1.390 . S
C3427 H3420 0.950 . S
C3427 C3424 1.387 . S
C3428 C3429 1.387 . S
C3428 H3432 0.950 . S
C3428 C3437 1.390 . S
C3429 C3428 1.387 . S
C3429 C3431 1.387 . S
H3430 C3437 0.950 . S
C3431 C3429 1.387 . S
C3431 C3433 1.390 . S
C3431 H3435 0.950 . S
H3432 C3428 0.950 . S
C3433 C3431 1.390 . S
C3433 C3434 1.387 . S
C3433 H3436 0.950 . S
C3434 C3433 1.387 . S
C3434 C3437 1.387 . S
H3435 C3431 0.950 . S
H3436 C3433 0.950 . S
C3437 C3428 1.390 . S
C3437 H3430 0.950 . S
C3437 C3434 1.387 . S
C3438 C3439 1.387 . S
C3438 H3442 0.950 . S
C3438 C3447 1.390 . S
C3439 C3438 1.387 . S
C3439 C3441 1.387 . S
H3440 C3447 0.950 . S
C3441 C3439 1.387 . S
C3441 C3443 1.390 . S
C3441 H3445 0.950 . S
H3442 C3438 0.950 . S
C3443 C3441 1.390 . S
C3443 C3444 1.387 . S
C3443 H3446 0.950 . S
C3444 C3443 1.387 . S
C3444 C3447 1.387 . S
H3445 C3441 0.950 . S
H3446 C3443 0.950 . S
C3447 C3438 1.390 . S
C3447 H3440 0.950 . S
C3447 C3444 1.387 . S
C3448 C3449 1.387 . S
C3448 H3452 0.950 . S
C3448 C3457 1.390 . S
C3449 C3448 1.387 . S
C3449 C3451 1.387 . S
H3450 C3457 0.950 . S
C3451 C3449 1.387 . S
C3451 C3453 1.390 . S
C3451 H3455 0.950 . S
H3452 C3448 0.950 . S
C3453 C3451 1.390 . S
C3453 C3454 1.387 . S
C3453 H3456 0.950 . S
C3454 C3453 1.387 . S
C3454 C3457 1.387 . S
H3455 C3451 0.950 . S
H3456 C3453 0.950 . S
C3457 C3448 1.390 . S
C3457 H3450 0.950 . S
C3457 C3454 1.387 . S
C3458 C3459 1.387 . S
C3458 H3462 0.950 . S
C3458 C3467 1.390 . S
C3459 C3458 1.387 . S
C3459 C3461 1.387 . S
H3460 C3467 0.950 . S
C3461 C3459 1.387 . S
C3461 C3463 1.390 . S
C3461 H3465 0.950 . S
H3462 C3458 0.950 . S
C3463 C3461 1.390 . S
C3463 C3464 1.387 . S
C3463 H3466 0.950 . S
C3464 C3463 1.387 . S
C3464 C3467 1.387 . S
H3465 C3461 0.950 . S
H3466 C3463 0.950 . S
C3467 C3458 1.390 . S
C3467 H3460 0.950 . S
C3467 C3464 1.387 . S
C3468 C3469 1.387 . S
C3468 H3472 0.950 . S
C3468 C3477 1.390 . S
C3469 C3468 1.387 . S
C3469 C3471 1.387 . S
H3470 C3477 0.950 . S
C3471 C3469 1.387 . S
C3471 C3473 1.390 . S
C3471 H3475 0.950 . S
H3472 C3468 0.950 . S
C3473 C3471 1.390 . S
C3473 C3474 1.387 . S
C3473 H3476 0.950 . S
C3474 C3473 1.387 . S
C3474 C3477 1.387 . S
H3475 C3471 0.950 . S
H3476 C3473 0.950 . S
C3477 C3468 1.390 . S
C3477 H3470 0.950 . S
C3477 C3474 1.387 . S
C3478 C3479 1.387 . S
C3478 H3482 0.950 . S
C3478 C3487 1.390 . S
C3479 C3478 1.387 . S
C3479 C3481 1.387 . S
H3480 C3487 0.950 . S
C3481 C3479 1.387 . S
C3481 C3483 1.390 . S
C3481 H3485 0.950 . S
H3482 C3478 0.950 . S
C3483 C3481 1.390 . S
C3483 C3484 1.387 . S
C3483 H3486 0.950 . S
C3484 C3483 1.387 . S
C3484 C3487 1.387 . S
H3485 C3481 0.950 . S
H3486 C3483 0.950 . S
C3487 C3478 1.390 . S
C3487 H3480 0.950 . S
C3487 C3484 1.387 . S
C3488 C3489 1.387 . S
C3488 H3492 0.950 . S
C3488 C3497 1.390 . S
C3489 C3488 1.387 . S
C3489 C3491 1.387 . S
H3490 C3497 0.950 . S
C3491 C3489 1.387 . S
C3491 C3493 1.390 . S
C3491 H3495 0.950 . S
H3492 C3488 0.950 . S
C3493 C3491 1.390 . S
C3493 C3494 1.387 . S
C3493 H3496 0.950 . S
C3494 C3493 1.387 . S
C3494 C3497 1.387 . S
H3495 C3491 0.950 . S
H3496 C3493 0.950 . S
C3497 C3488 1.390 . S
C3497 H3490 0.950 . S
C3497 C3494 1.387 . S
C3498 C3499 1.387 . S
C3498 H3502 0.950 . S
C3498 C3507 1.390 . S
C3499 C3498 1.387 . S
C3499 C3501 1.387 . S
H3500 C3507 0.950 . S
C3501 C3499 1.387 . S
C3501 C3503 1.390 . S
C3501 H3505 0.950 . S
H3502 C3498 0.950 . S
C3503 C3501 1.390 . S
C3503 C3504 1.387 . S
C3503 H3506 0.950 . S
C3504 C3503 1.387 . S
C3504 C3507 1.387 . S
H3505 C3501 0.950 . S
H3506 C3503 0.950 . S
C3507 C3498 1.390 . S
C3507 H3500 0.950 . S
C3507 C3504 1.387 . S
C3508 C3509 1.387 . S
C3508 H3512 0.950 . S
C3508 C3517 1.390 . S
C3509 C3508 1.387 . S
C3509 C3511 1.387 . S
H3510 C3517 0.950 . S
C3511 C3509 1.387 . S
C3511 C3513 1.390 . S
C3511 H3515 0.950 . S
H3512 C3508 0.950 . S
C3513 C3511 1.390 . S
C3513 C3514 1.387 . S
C3513 H3516 0.950 . S
C3514 C3513 1.387 . S
C3514 C3517 1.387 . S
H3515 C3511 0.950 . S
H3516 C3513 0.950 . S
C3517 C3508 1.390 . S
C3517 H3510 0.950 . S
C3517 C3514 1.387 . S
C3518 C3519 1.387 . S
C3518 H3522 0.950 . S
C3518 C3527 1.390 . S
C3519 C3518 1.387 . S
C3519 C3521 1.387 . S
H3520 C3527 0.950 . S
C3521 C3519 1.387 . S
C3521 C3523 1.390 . S
C3521 H3525 0.950 . S
H3522 C3518 0.950 . S
C3523 C3521 1.390 . S
C3523 C3524 1.387 . S
C3523 H3526 0.950 . S
C3524 C3523 1.387 . S
C3524 C3527 1.387 . S
H3525 C3521 0.950 . S
H3526 C3523 0.950 . S
C3527 C3518 1.390 . S
C3527 H3520 0.950 . S
C3527 C3524 1.387 . S
C3528 C3529 1.387 . S
C3528 H3532 0.950 . S
C3528 C3537 1.390 . S
C3529 C3528 1.387 . S
C3529 C3531 1.387 . S
H3530 C3537 0.950 . S
C3531 C3529 1.387 . S
C3531 C3533 1.390 . S
C3531 H3535 0.950 . S
H3532 C3528 0.950 . S
C3533 C3531 1.390 . S
C3533 C3534 1.387 . S
C3533 H3536 0.950 . S
C3534 C3533 1.387 . S
C3534 C3537 1.387 . S
H3535 C3531 0.950 . S
H3536 C3533 0.950 . S
C3537 C3528 1.390 . S
C3537 H3530 0.950 . S
C3537 C3534 1.387 . S
C3538 C3539 1.387 . S
C3538 H3542 0.950 . S
C3538 C3547 1.390 . S
C3539 C3538 1.387 . S
C3539 C3541 1.387 . S
H3540 C3547 0.950 . S
C3541 C3539 1.387 . S
C3541 C3543 1.390 . S
C3541 H3545 0.950 . S
H3542 C3538 0.950 . S
C3543 C3541 1.390 . S
C3543 C3544 1.387 . S
C3543 H3546 0.950 . S
C3544 C3543 1.387 . S
C3544 C3547 1.387 . S
H3545 C3541 0.950 . S
H3546 C3543 0.950 . S
C3547 C3538 1.390 . S
C3547 H3540 0.950 . S
C3547 C3544 1.387 . S
C3548 C3549 1.387 . S
C3548 H3552 0.950 . S
C3548 C3557 1.390 . S
C3549 C3548 1.387 . S
C3549 C3551 1.387 . S
H3550 C3557 0.950 . S
C3551 C3549 1.387 . S
C3551 C3553 1.390 . S
C3551 H3555 0.950 . S
H3552 C3548 0.950 . S
C3553 C3551 1.390 . S
C3553 C3554 1.387 . S
C3553 H3556 0.950 . S
C3554 C3553 1.387 . S
C3554 C3557 1.387 . S
H3555 C3551 0.950 . S
H3556 C3553 0.950 . S
C3557 C3548 1.390 . S
C3557 H3550 0.950 . S
C3557 C3554 1.387 . S
C3558 C3559 1.387 . S
C3558 H3562 0.950 . S
C3558 C3567 1.390 . S
C3559 C3558 1.387 . S
C3559 C3561 1.387 . S
H3560 C3567 0.950 . S
C3561 C3559 1.387 . S
C3561 C3563 1.390 . S
C3561 H3565 0.950 . S
H3562 C3558 0.950 . S
C3563 C3561 1.390 . S
C3563 C3564 1.387 . S
C3563 H3566 0.950 . S
C3564 C3563 1.387 . S
C3564 C3567 1.387 . S
H3565 C3561 0.950 . S
H3566 C3563 0.950 . S
C3567 C3558 1.390 . S
C3567 H3560 0.950 . S
C3567 C3564 1.387 . S
C3568 C3569 1.387 . S
C3568 H3572 0.950 . S
C3568 C3577 1.390 . S
C3569 C3568 1.387 . S
C3569 C3571 1.387 . S
H3570 C3577 0.950 . S
C3571 C3569 1.387 . S
C3571 C3573 1.390 . S
C3571 H3575 0.950 . S
H3572 C3568 0.950 . S
C3573 C3571 1.390 . S
C3573 C3574 1.387 . S
C3573 H3576 0.950 . S
C3574 C3573 1.387 . S
C3574 C3577 1.387 . S
H3575 C3571 0.950 . S
H3576 C3573 0.950 . S
C3577 C3568 1.390 . S
C3577 H3570 0.950 . S
C3577 C3574 1.387 . S
C3578 C3579 1.387 . S
C3578 H3582 0.950 . S
C3578 C3587 1.390 . S
C3579 C3578 1.387 . S
C3579 C3581 1.387 . S
H3580 C3587 0.950 . S
C3581 C3579 1.387 . S
C3581 C3583 1.390 . S
C3581 H3585 0.950 . S
H3582 C3578 0.950 . S
C3583 C3581 1.390 . S
C3583 C3584 1.387 . S
C3583 H3586 0.950 . S
C3584 C3583 1.387 . S
C3584 C3587 1.387 . S
H3585 C3581 0.950 . S
H3586 C3583 0.950 . S
C3587 C3578 1.390 . S
C3587 H3580 0.950 . S
C3587 C3584 1.387 . S
C3588 C3589 1.387 . S
C3588 H3592 0.950 . S
C3588 C3597 1.390 . S
C3589 C3588 1.387 . S
C3589 C3591 1.387 . S
H3590 C3597 0.950 . S
C3591 C3589 1.387 . S
C3591 C3593 1.390 . S
C3591 H3595 0.950 . S
H3592 C3588 0.950 . S
C3593 C3591 1.390 . S
C3593 C3594 1.387 . S
C3593 H3596 0.950 . S
C3594 C3593 1.387 . S
C3594 C3597 1.387 . S
H3595 C3591 0.950 . S
H3596 C3593 0.950 . S
C3597 C3588 1.390 . S
C3597 H3590 0.950 . S
C3597 C3594 1.387 . S
C3598 C3599 1.387 . S
C3598 H3602 0.950 . S
C3598 C3607 1.390 . S
C3599 C3598 1.387 . S
C3599 C3601 1.387 . S
H3600 C3607 0.950 . S
C3601 C3599 1.387 . S
C3601 C3603 1.390 . S
C3601 H3605 0.950 . S
H3602 C3598 0.950 . S
C3603 C3601 1.390 . S
C3603 C3604 1.387 . S
C3603 H3606 0.950 . S
C3604 C3603 1.387 . S
C3604 C3607 1.387 . S
H3605 C3601 0.950 . S
H3606 C3603 0.950 . S
C3607 C3598 1.390 . S
C3607 H3600 0.950 . S
C3607 C3604 1.387 . S
C3608 C3609 1.387 . S
C3608 H3612 0.950 . S
C3608 C3617 1.390 . S
C3609 C3608 1.387 . S
C3609 C3611 1.387 . S
H3610 C3617 0.950 . S
C3611 C3609 1.387 . S
C3611 C3613 1.390 . S
C3611 H3615 0.950 . S
H3612 C3608 0.950 . S
C3613 C3611 1.390 . S
C3613 C3614 1.387 . S
C3613 H3616 0.950 . S
C3614 C3613 1.387 . S
C3614 C3617 1.387 . S
H3615 C3611 0.950 . S
H3616 C3613 0.950 . S
C3617 C3608 1.390 . S
C3617 H3610 0.950 . S
C3617 C3614 1.387 . S
C3618 C3619 1.387 . S
C3618 H3622 0.950 . S
C3618 C3627 1.390 . S
C3619 C3618 1.387 . S
C3619 C3621 1.387 . S
H3620 C3627 0.950 . S
C3621 C3619 1.387 . S
C3621 C3623 1.390 . S
C3621 H3625 0.950 . S
H3622 C3618 0.950 . S
C3623 C3621 1.390 . S
C3623 C3624 1.387 . S
C3623 H3626 0.950 . S
C3624 C3623 1.387 . S
C3624 C3627 1.387 . S
H3625 C3621 0.950 . S
H3626 C3623 0.950 . S
C3627 C3618 1.390 . S
C3627 H3620 0.950 . S
C3627 C3624 1.387 . S
C3628 C3629 1.387 . S
C3628 H3632 0.950 . S
C3628 C3637 1.390 . S
C3629 C3628 1.387 . S
C3629 C3631 1.387 . S
H3630 C3637 0.950 . S
C3631 C3629 1.387 . S
C3631 C3633 1.390 . S
C3631 H3635 0.950 . S
H3632 C3628 0.950 . S
C3633 C3631 1.390 . S
C3633 C3634 1.387 . S
C3633 H3636 0.950 . S
C3634 C3633 1.387 . S
C3634 C3637 1.387 . S
H3635 C3631 0.950 . S
H3636 C3633 0.950 . S
C3637 C3628 1.390 . S
C3637 H3630 0.950 . S
C3637 C3634 1.387 . S
C3638 C3639 1.387 . S
C3638 H3642 0.950 . S
C3638 C3647 1.390 . S
C3639 C3638 1.387 . S
C3639 C3641 1.387 . S
H3640 C3647 0.950 . S
C3641 C3639 1.387 . S
C3641 C3643 1.390 . S
C3641 H3645 0.950 . S
H3642 C3638 0.950 . S
C3643 C3641 1.390 . S
C3643 C3644 1.387 . S
C3643 H3646 0.950 . S
C3644 C3643 1.387 . S
C3644 C3647 1.387 . S
H3645 C3641 0.950 . S
H3646 C3643 0.950 . S
C3647 C3638 1.390 . S
C3647 H3640 0.950 . S
C3647 C3644 1.387 . S
C3648 C3649 1.387 . S
C3648 H3652 0.950 . S
C3648 C3657 1.390 . S
C3649 C3648 1.387 . S
C3649 C3651 1.387 . S
H3650 C3657 0.950 . S
C3651 C3649 1.387 . S
C3651 C3653 1.390 . S
C3651 H3655 0.950 . S
H3652 C3648 0.950 . S
C3653 C3651 1.390 . S
C3653 C3654 1.387 . S
C3653 H3656 0.950 . S
C3654 C3653 1.387 . S
C3654 C3657 1.387 . S
H3655 C3651 0.950 . S
H3656 C3653 0.950 . S
C3657 C3648 1.390 . S
C3657 H3650 0.950 . S
C3657 C3654 1.387 . S
C3658 C3659 1.387 . S
C3658 H3662 0.950 . S
C3658 C3667 1.390 . S
C3659 C3658 1.387 . S
C3659 C3661 1.387 . S
H3660 C3667 0.950 . S
C3661 C3659 1.387 . S
C3661 C3663 1.390 . S
C3661 H3665 0.950 . S
H3662 C3658 0.950 . S
C3663 C3661 1.390 . S
C3663 C3664 1.387 . S
C3663 H3666 0.950 . S
C3664 C3663 1.387 . S
C3664 C3667 1.387 . S
H3665 C3661 0.950 . S
H3666 C3663 0.950 . S
C3667 C3658 1.390 . S
C3667 H3660 0.950 . S
C3667 C3664 1.387 . S
C3668 C3669 1.387 . S
C3668 H3672 0.950 . S
C3668 C3677 1.390 . S
C3669 C3668 1.387 . S
C3669 C3671 1.387 . S
H3670 C3677 0.950 . S
C3671 C3669 1.387 . S
C3671 C3673 1.390 . S
C3671 H3675 0.950 . S
H3672 C3668 0.950 . S
C3673 C3671 1.390 . S
C3673 C3674 1.387 . S
C3673 H3676 0.950 . S
C3674 C3673 1.387 . S
C3674 C3677 1.387 . S
H3675 C3671 0.950 . S
H3676 C3673 0.950 . S
C3677 C3668 1.390 . S
C3677 H3670 0.950 . S
C3677 C3674 1.387 . S
C3678 C3679 1.387 . S
C3678 H3682 0.950 . S
C3678 C3687 1.390 . S
C3679 C3678 1.387 . S
C3679 C3681 1.387 . S
H3680 C3687 0.950 . S
C3681 C3679 1.387 . S
C3681 C3683 1.390 . S
C3681 H3685 0.950 . S
H3682 C3678 0.950 . S
C3683 C3681 1.390 . S
C3683 C3684 1.387 . S
C3683 H3686 0.950 . S
C3684 C3683 1.387 . S
C3684 C3687 1.387 . S
H3685 C3681 0.950 . S
H3686 C3683 0.950 . S
C3687 C3678 1.390 . S
C3687 H3680 0.950 . S
C3687 C3684 1.387 . S
C3688 C3689 1.387 . S
C3688 H3692 0.950 . S
C3688 C3697 1.390 . S
C3689 C3688 1.387 . S
C3689 C3691 1.387 . S
H3690 C3697 0.950 . S
C3691 C3689 1.387 . S
C3691 C3693 1.390 . S
C3691 H3695 0.950 . S
H3692 C3688 0.950 . S
C3693 C3691 1.390 . S
C3693 C3694 1.387 . S
C3693 H3696 0.950 . S
C3694 C3693 1.387 . S
C3694 C3697 1.387 . S
H3695 C3691 0.950 . S
H3696 C3693 0.950 . S
C3697 C3688 1.390 . S
C3697 H3690 0.950 . S
C3697 C3694 1.387 . S
C3698 C3699 1.387 . S
C3698 H3702 0.950 . S
C3698 C3707 1.390 . S
C3699 C3698 1.387 . S
C3699 C3701 1.387 . S
H3700 C3707 0.950 . S
C3701 C3699 1.387 . S
C3701 C3703 1.390 . S
C3701 H3705 0.950 . S
H3702 C3698 0.950 . S
C3703 C3701 1.390 . S
C3703 C3704 1.387 . S
C3703 H3706 0.950 . S
C3704 C3703 1.387 . S
C3704 C3707 1.387 . S
H3705 C3701 0.950 . S
H3706 C3703 0.950 . S
C3707 C3698 1.390 . S
C3707 H3700 0.950 . S
C3707 C3704 1.387 . S
C3708 C3709 1.387 . S
C3708 H3712 0.950 . S
C3708 C3717 1.390 . S
C3709 C3708 1.387 . S
C3709 C3711 1.387 . S
H3710 C3717 0.950 . S
C3711 C3709 1.387 . S
C3711 C3713 1.390 . S
C3711 H3715 0.950 . S
H3712 C3708 0.950 . S
C3713 C3711 1.390 . S
C3713 C3714 1.387 . S
C3713 H3716 0.950 . S
C3714 C3713 1.387 . S
C3714 C3717 1.387 . S
H3715 C3711 0.950 . S
H3716 C3713 0.950 . S
C3717 C3708 1.390 . S
C3717 H3710 0.950 . S
C3717 C3714 1.387 . S
C3718 C3719 1.387 . S
C3718 H3722 0.950 . S
C3718 C3727 1.390 . S
C3719 C3718 1.387 . S
C3719 C3721 1.387 . S
H3720 C3727 0.950 . S
C3721 C3719 1.387 . S
C3721 C3723 1.390 . S
C3721 H3725 0.950 . S
H3722 C3718 0.950 . S
C3723 C3721 1.390 . S
C3723 C3724 1.387 . S
C3723 H3726 0.950 . S
C3724 C3723 1.387 . S
C3724 C3727 1.387 . S
H3725 C3721 0.950 . S
H3726 C3723 0.950 . S
C3727 C3718 1.390 . S
C3727 H3720 0.950 . S
C3727 C3724 1.387 . S
C3728 C3729 1.387 . S
C3728 H3732 0.950 . S
C3728 C3737 1.390 . S
C3729 C3728 1.387 . S
C3729 C3731 1.387 . S
H3730 C3737 0.950 . S
C3731 C3729 1.387 . S
C3731 C3733 1.390 . S
C3731 H3735 0.950 . S
H3732 C3728 0.950 . S
C3733 C3731 1.390 . S
C3733 C3734 1.387 . S
C3733 H3736 0.950 . S
C3734 C3733 1.387 . S
C3734 C3737 1.387 . S
H3735 C3731 0.950 . S
H3736 C3733 0.950 . S
C3737 C3728 1.390 . S
C3737 H3730 0.950 . S
C3737 C3734 1.387 . S
C3738 C3739 1.387 . S
C3738 H3742 0.950 . S
C3738 C3747 1.390 . S
C3739 C3738 1.387 . S
C3739 C3741 1.387 . S
H3740 C3747 0.950 . S
C3741 C3739 1.387 . S
C3741 C3743 1.390 . S
C3741 H3745 0.950 . S
H3742 C3738 0.950 . S
C3743 C3741 1.390 . S
C3743 C3744 1.387 . S
C3743 H3746 0.950 . S
C3744 C3743 1.387 . S
C3744 C3747 1.387 . S
H3745 C3741 0.950 . S
H3746 C3743 0.950 . S
C3747 C3738 1.390 . S
C3747 H3740 0.950 . S
C3747 C3744 1.387 . S
C3748 C3749 1.387 . S
C3748 H3752 0.950 . S
C3748 C3757 1.390 . S
C3749 C3748 1.387 . S
C3749 C3751 1.387 . S
H3750 C3757 0.950 . S
C3751 C3749 1.387 . S
C3751 C3753 1.390 . S
C3751 H3755 0.950 . S
H3752 C3748 0.950 . S
C3753 C3751 1.390 . S
C3753 C3754 1.387 . S
C3753 H3756 0.950 . S
C3754 C3753 1.387 . S
C3754 C3757 1.387 . S
H3755 C3751 0.950 . S
H3756 C3753 0.950 . S
C3757 C3748 1.390 . S
C3757 H3750 0.950 . S
C3757 C3754 1.387 . S
C3758 C3759 1.387 . S
C3758 H3762 0.950 . S
C3758 C3767 1.390 . S
C3759 C3758 1.387 . S
C3759 C3761 1.387 . S
H3760 C3767 0.950 . S
C3761 C3759 1.387 . S
C3761 C3763 1.390 . S
C3761 H3765 0.950 . S
H3762 C3758 0.950 . S
C3763 C3761 1.390 . S
C3763 C3764 1.387 . S
C3763 H3766 0.950 . S
C3764 C3763 1.387 . S
C3764 C3767 1.387 . S
H3765 C3761 0.950 . S
H3766 C3763 0.950 . S
C3767 C3758 1.390 . S
C3767 H3760 0.950 . S
C3767 C3764 1.387 . S
C3768 C3769 1.387 . S
C3768 H3772 0.950 . S
C3768 C3777 1.390 . S
C3769 C3768 1.387 . S
C3769 C3771 1.387 . S
H3770 C3777 0.950 . S
C3771 C3769 1.387 . S
C3771 C3773 1.390 . S
C3771 H3775 0.950 . S
H3772 C3768 0.950 . S
C3773 C3771 1.390 . S
C3773 C3774 1.387 . S
C3773 H3776 0.950 . S
C3774 C3773 1.387 . S
C3774 C3777 1.387 . S
H3775 C3771 0.950 . S
H3776 C3773 0.950 . S
C3777 C3768 1.390 . S
C3777 H3770 0.950 . S
C3777 C3774 1.387 . S
C3778 C3779 1.387 . S
C3778 H3782 0.950 . S
C3778 C3787 1.390 . S
C3779 C3778 1.387 . S
C3779 C3781 1.387 . S
H3780 C3787 0.950 . S
C3781 C3779 1.387 . S
C3781 C3783 1.390 . S
C3781 H3785 0.950 . S
H3782 C3778 0.950 . S
C3783 C3781 1.390 . S
C3783 C3784 1.387 . S
C3783 H3786 0.950 . S
C3784 C3783 1.387 . S
C3784 C3787 1.387 . S
H3785 C3781 0.950 . S
H3786 C3783 0.950 . S
C3787 C3778 1.390 . S
C3787 H3780 0.950 . S
C3787 C3784 1.387 . S
C3788 C3789 1.387 . S
C3788 H3792 0.950 . S
C3788 C3797 1.390 . S
C3789 C3788 1.387 . S
C3789 C3791 1.387 . S
H3790 C3797 0.950 . S
C3791 C3789 1.387 . S
C3791 C3793 1.390 . S
C3791 H3795 0.950 . S
H3792 C3788 0.950 . S
C3793 C3791 1.390 . S
C3793 C3794 1.387 . S
C3793 H3796 0.950 . S
C3794 C3793 1.387 . S
C3794 C3797 1.387 . S
H3795 C3791 0.950 . S
H3796 C3793 0.950 . S
C3797 C3788 1.390 . S
C3797 H3790 0.950 . S
C3797 C3794 1.387 . S
C3798 C3799 1.387 . S
C3798 H3802 0.950 . S
C3798 C3807 1.390 . S
C3799 C3798 1.387 . S
C3799 C3801 1.387 . S
H3800 C3807 0.950 . S
C3801 C3799 1.387 . S
C3801 C3803 1.390 . S
C3801 H3805 0.950 . S
H3802 C3798 0.950 . S
C3803 C3801 1.390 . S
C3803 C3804 1.387 . S
C3803 H3806 0.950 . S
C3804 C3803 1.387 . S
C3804 C3807 1.387 . S
H3805 C3801 0.950 . S
H3806 C3803 0.950 . S
C3807 C3798 1.390 . S
C3807 H3800 0.950 . S
C3807 C3804 1.387 . S
C3808 C3809 1.387 . S
C3808 H3812 0.950 . S
C3808 C3817 1.390 . S
C3809 C3808 1.387 . S
C3809 C3811 1.387 . S
H3810 C3817 0.950 . S
C3811 C3809 1.387 . S
C3811 C3813 1.390 . S
C3811 H3815 0.950 . S
H3812 C3808 0.950 . S
C3813 C3811 1.390 . S
C3813 C3814 1.387 . S
C3813 H3816 0.950 . S
C3814 C3813 1.387 . S
C3814 C3817 1.387 . S
H3815 C3811 0.950 . S
H3816 C3813 0.950 . S
C3817 C3808 1.390 . S
C3817 H3810 0.950 . S
C3817 C3814 1.387 . S
C3818 C3819 1.387 . S
C3818 H3822 0.950 . S
C3818 C3827 1.390 . S
C3819 C3818 1.387 . S
C3819 C3821 1.387 . S
H3820 C3827 0.950 . S
C3821 C3819 1.387 . S
C3821 C3823 1.390 . S
C3821 H3825 0.950 . S
H3822 C3818 0.950 . S
C3823 C3821 1.390 . S
C3823 C3824 1.387 . S
C3823 H3826 0.950 . S
C3824 C3823 1.387 . S
C3824 C3827 1.387 . S
H3825 C3821 0.950 . S
H3826 C3823 0.950 . S
C3827 C3818 1.390 . S
C3827 H3820 0.950 . S
C3827 C3824 1.387 . S
C3828 C3829 1.387 . S
C3828 H3832 0.950 . S
C3828 C3837 1.390 . S
C3829 C3828 1.387 . S
C3829 C3831 1.387 . S
H3830 C3837 0.950 . S
C3831 C3829 1.387 . S
C3831 C3833 1.390 . S
C3831 H3835 0.950 . S
H3832 C3828 0.950 . S
C3833 C3831 1.390 . S
C3833 C3834 1.387 . S
C3833 H3836 0.950 . S
C3834 C3833 1.387 . S
C3834 C3837 1.387 . S
H3835 C3831 0.950 . S
H3836 C3833 0.950 . S
C3837 C3828 1.390 . S
C3837 H3830 0.950 . S
C3837 C3834 1.387 . S
C3838 C3839 1.387 . S
C3838 H3842 0.950 . S
C3838 C3847 1.390 . S
C3839 C3838 1.387 . S
C3839 C3841 1.387 . S
H3840 C3847 0.950 . S
C3841 C3839 1.387 . S
C3841 C3843 1.390 . S
C3841 H3845 0.950 . S
H3842 C3838 0.950 . S
C3843 C3841 1.390 . S
C3843 C3844 1.387 . S
C3843 H3846 0.950 . S
C3844 C3843 1.387 . S
C3844 C3847 1.387 . S
H3845 C3841 0.950 . S
H3846 C3843 0.950 . S
C3847 C3838 1.390 . S
C3847 H3840 0.950 . S
C3847 C3844 1.387 . S
C3848 C3849 1.387 . S
C3848 H3852 0.950 . S
C3848 C3857 1.390 . S
C3849 C3848 1.387 . S
C3849 C3851 1.387 . S
H3850 C3857 0.950 . S
C3851 C3849 1.387 . S
C3851 C3853 1.390 . S
C3851 H3855 0.950 . S
H3852 C3848 0.950 . S
C3853 C3851 1.390 . S
C3853 C3854 1.387 . S
C3853 H3856 0.950 . S
C3854 C3853 1.387 . S
C3854 C3857 1.387 . S
H3855 C3851 0.950 . S
H3856 C3853 0.950 . S
C3857 C3848 1.390 . S
C3857 H3850 0.950 . S
C3857 C3854 1.387 . S
C3858 C3859 1.387 . S
C3858 H3862 0.950 . S
C3858 C3867 1.390 . S
C3859 C3858 1.387 . S
C3859 C3861 1.387 . S
H3860 C3867 0.950 . S
C3861 C3859 1.387 . S
C3861 C3863 1.390 . S
C3861 H3865 0.950 . S
H3862 C3858 0.950 . S
C3863 C3861 1.390 . S
C3863 C3864 1.387 . S
C3863 H3866 0.950 . S
C3864 C3863 1.387 . S
C3864 C3867 1.387 . S
H3865 C3861 0.950 . S
H3866 C3863 0.950 . S
C3867 C3858 1.390 . S
C3867 H3860 0.950 . S
C3867 C3864 1.387 . S
C3868 C3869 1.387 . S
C3868 H3872 0.950 . S
C3868 C3877 1.390 . S
C3869 C3868 1.387 . S
C3869 C3871 1.387 . S
H3870 C3877 0.950 . S
C3871 C3869 1.387 . S
C3871 C3873 1.390 . S
C3871 H3875 0.950 . S
H3872 C3868 0.950 . S
C3873 C3871 1.390 . S
C3873 C3874 1.387 . S
C3873 H3876 0.950 . S
C3874 C3873 1.387 . S
C3874 C3877 1.387 . S
H3875 C3871 0.950 . S
H3876 C3873 0.950 . S
C3877 C3868 1.390 . S
C3877 H3870 0.950 . S
C3877 C3874 1.387 . S
C3878 C3879 1.387 . S
C3878 H3882 0.950 . S
C3878 C3887 1.390 . S
C3879 C3878 1.387 . S
C3879 C3881 1.387 . S
H3880 C3887 0.950 . S
C3881 C3879 1.387 . S
C3881 C3883 1.390 . S
C3881 H3885 0.950 . S
H3882 C3878 0.950 . S
C3883 C3881 1.390 . S
C3883 C3884 1.387 . S
C3883 H3886 0.950 . S
C3884 C3883 1.387 . S
C3884 C3887 1.387 . S
H3885 C3881 0.950 . S
H3886 C3883 0.950 . S
C3887 C3878 1.390 . S
C3887 H3880 0.950 . S
C3887 C3884 1.387 . S
C3888 C3889 1.387 . S
C3888 H3892 0.950 . S
C3888 C3897 1.390 . S
C3889 C3888 1.387 . S
C3889 C3891 1.387 . S
H3890 C3897 0.950 . S
C3891 C3889 1.387 . S
C3891 C3893 1.390 . S
C3891 H3895 0.950 . S
H3892 C3888 0.950 . S
C3893 C3891 1.390 . S
C3893 C3894 1.387 . S
C3893 H3896 0.950 . S
C3894 C3893 1.387 . S
C3894 C3897 1.387 . S
H3895 C3891 0.950 . S
H3896 C3893 0.950 . S
C3897 C3888 1.390 . S
C3897 H3890 0.950 . S
C3897 C3894 1.387 . S
C3898 C3899 1.387 . S
C3898 H3902 0.950 . S
C3898 C3907 1.390 . S
C3899 C3898 1.387 . S
C3899 C3901 1.387 . S
H3900 C3907 0.950 . S
C3901 C3899 1.387 . S
C3901 C3903 1.390 . S
C3901 H3905 0.950 . S
H3902 C3898 0.950 . S
C3903 C3901 1.390 . S
C3903 C3904 1.387 . S
C3903 H3906 0.950 . S
C3904 C3903 1.387 . S
C3904 C3907 1.387 . S
H3905 C3901 0.950 . S
H3906 C3903 0.950 . S
C3907 C3898 1.390 . S
C3907 H3900 0.950 . S
C3907 C3904 1.387 . S
C3908 C3909 1.387 . S
C3908 H3912 0.950 . S
C3908 C3917 1.390 . S
C3909 C3908 1.387 . S
C3909 C3911 1.387 . S
H3910 C3917 0.950 . S
C3911 C3909 1.387 . S
C3911 C3913 1.390 . S
C3911 H3915 0.950 . S
H3912 C3908 0.950 . S
C3913 C3911 1.390 . S
C3913 C3914 1.387 . S
C3913 H3916 0.950 . S
C3914 C3913 1.387 . S
C3914 C3917 1.387 . S
H3915 C3911 0.950 . S
H3916 C3913 0.950 . S
C3917 C3908 1.390 . S
C3917 H3910 0.950 . S
C3917 C3914 1.387 . S
C3918 C3919 1.387 . S
C3918 H3922 0.950 . S
C3918 C3927 1.390 . S
C3919 C3918 1.387 . S
C3919 C3921 1.387 . S
H3920 C3927 0.950 . S
C3921 C3919 1.387 . S
C3921 C3923 1.390 . S
C3921 H3925 0.950 . S
H3922 C3918 0.950 . S
C3923 C3921 1.390 . S
C3923 C3924 1.387 . S
C3923 H3926 0.950 . S
C3924 C3923 1.387 . S
C3924 C3927 1.387 . S
H3925 C3921 0.950 . S
H3926 C3923 0.950 . S
C3927 C3918 1.390 . S
C3927 H3920 0.950 . S
C3927 C3924 1.387 . S
C3928 C3929 1.387 . S
C3928 H3932 0.950 . S
C3928 C3937 1.390 . S
C3929 C3928 1.387 . S
C3929 C3931 1.387 . S
H3930 C3937 0.950 . S
C3931 C3929 1.387 . S
C3931 C3933 1.390 . S
C3931 H3935 0.950 . S
H3932 C3928 0.950 . S
C3933 C3931 1.390 . S
C3933 C3934 1.387 . S
C3933 H3936 0.950 . S
C3934 C3933 1.387 . S
C3934 C3937 1.387 . S
H3935 C3931 0.950 . S
H3936 C3933 0.950 . S
C3937 C3928 1.390 . S
C3937 H3930 0.950 . S
C3937 C3934 1.387 . S
C3938 C3939 1.387 . S
C3938 H3942 0.950 . S
C3938 C3947 1.390 . S
C3939 C3938 1.387 . S
C3939 C3941 1.387 . S
H3940 C3947 0.950 . S
C3941 C3939 1.387 . S
C3941 C3943 1.390 . S
C3941 H3945 0.950 . S
H3942 C3938 0.950 . S
C3943 C3941 1.390 . S
C3943 C3944 1.387 . S
C3943 H3946 0.950 . S
C3944 C3943 1.387 . S
C3944 C3947 1.387 . S
H3945 C3941 0.950 . S
H3946 C3943 0.950 . S
C3947 C3938 1.390 . S
C3947 H3940 0.950 . S
C3947 C3944 1.387 . S
C3948 C3949 1.387 . S
C3948 H3952 0.950 . S
C3948 C3957 1.390 . S
C3949 C3948 1.387 . S
C3949 C3951 1.387 . S
H3950 C3957 0.950 . S
C3951 C3949 1.387 . S
C3951 C3953 1.390 . S
C3951 H3955 0.950 . S
H3952 C3948 0.950 . S
C3953 C3951 1.390 . S
C3953 C3954 1.387 . S
C3953 H3956 0.950 . S
C3954 C3953 1.387 . S
C3954 C3957 1.387 . S
H3955 C3951 0.950 . S
H3956 C3953 0.950 . S
C3957 C3948 1.390 . S
C3957 H3950 0.950 . S
C3957 C3954 1.387 . S
C3958 C3959 1.387 . S
C3958 H3962 0.950 . S
C3958 C3967 1.390 . S
C3959 C3958 1.387 . S
C3959 C3961 1.387 . S
H3960 C3967 0.950 . S
C3961 C3959 1.387 . S
C3961 C3963 1.390 . S
C3961 H3965 0.950 . S
H3962 C3958 0.950 . S
C3963 C3961 1.390 . S
C3963 C3964 1.387 . S
C3963 H3966 0.950 . S
C3964 C3963 1.387 . S
C3964 C3967 1.387 . S
H3965 C3961 0.950 . S
H3966 C3963 0.950 . S
C3967 C3958 1.390 . S
C3967 H3960 0.950 . S
C3967 C3964 1.387 . S
C3968 C3969 1.387 . S
C3968 H3972 0.950 . S
C3968 C3977 1.390 . S
C3969 C3968 1.387 . S
C3969 C3971 1.387 . S
H3970 C3977 0.950 . S
C3971 C3969 1.387 . S
C3971 C3973 1.390 . S
C3971 H3975 0.950 . S
H3972 C3968 0.950 . S
C3973 C3971 1.390 . S
C3973 C3974 1.387 . S
C3973 H3976 0.950 . S
C3974 C3973 1.387 . S
C3974 C3977 1.387 . S
H3975 C3971 0.950 . S
H3976 C3973 0.950 . S
C3977 C3968 1.390 . S
C3977 H3970 0.950 . S
C3977 C3974 1.387 . S
C3978 C3979 1.387 . S
C3978 H3982 0.950 . S
C3978 C3987 1.390 . S
C3979 C3978 1.387 . S
C3979 C3981 1.387 . S
H3980 C3987 0.950 . S
C3981 C3979 1.387 . S
C3981 C3983 1.390 . S
C3981 H3985 0.950 . S
H3982 C3978 0.950 . S
C3983 C3981 1.390 . S
C3983 C3984 1.387 . S
C3983 H3986 0.950 . S
C3984 C3983 1.387 . S
C3984 C3987 1.387 . S
H3985 C3981 0.950 . S
H3986 C3983 0.950 . S
C3987 C3978 1.390 . S
C3987 H3980 0.950 . S
C3987 C3984 1.387 . S
C3988 C3989 1.387 . S
C3988 H3992 0.950 . S
C3988 C3997 1.390 . S
C3989 C3988 1.387 . S
C3989 C3991 1.387 . S
H3990 C3997 0.950 . S
C3991 C3989 1.387 . S
C3991 C3993 1.390 . S
C3991 H3995 0.950 . S
H3992 C3988 0.950 . S
C3993 C3991 1.390 . S
C3993 C3994 1.387 . S
C3993 H3996 0.950 . S
C3994 C3993 1.387 . S
C3994 C3997 1.387 . S
H3995 C3991 0.950 . S
H3996 C3993 0.950 . S
C3997 C3988 1.390 . S
C3997 H3990 0.950 . S
C3997 C3994 1.387 . S
C3998 C3999 1.387 . S
C3998 H4002 0.950 . S
C3998 C4007 1.390 . S
C3999 C3998 1.387 . S
C3999 C4001 1.387 . S
H4000 C4007 0.950 . S
C4001 C3999 1.387 . S
C4001 C4003 1.390 . S
C4001 H4005 0.950 . S
H4002 C3998 0.950 . S
C4003 C4001 1.390 . S
C4003 C4004 1.387 . S
C4003 H4006 0.950 . S
C4004 C4003 1.387 . S
C4004 C4007 1.387 . S
H4005 C4001 0.950 . S
H4006 C4003 0.950 . S
C4007 C3998 1.390 . S
C4007 H4000 0.950 . S
C4007 C4004 1.387 . S
C4008 C4009 1.387 . S
C4008 H4012 0.950 . S
C4008 C4017 1.390 . S
C4009 C4008 1.387 . S
C4009 C4011 1.387 . S
H4010 C4017 0.950 . S
C4011 C4009 1.387 . S
C4011 C4013 1.390 . S
C4011 H4015 0.950 . S
H4012 C4008 0.950 . S
C4013 C4011 1.390 . S
C4013 C4014 1.387 . S
C4013 H4016 0.950 . S
C4014 C4013 1.387 . S
C4014 C4017 1.387 . S
H4015 C4011 0.950 . S
H4016 C4013 0.950 . S
C4017 C4008 1.390 . S
C4017 H4010 0.950 . S
C4017 C4014 1.387 . S
C4018 C4019 1.387 . S
C4018 H4022 0.950 . S
C4018 C4027 1.390 . S
C4019 C4018 1.387 . S
C4019 C4021 1.387 . S
H4020 C4027 0.950 . S
C4021 C4019 1.387 . S
C4021 C4023 1.390 . S
C4021 H4025 0.950 . S
H4022 C4018 0.950 . S
C4023 C4021 1.390 . S
C4023 C4024 1.387 . S
C4023 H4026 0.950 . S
C4024 C4023 1.387 . S
C4024 C4027 1.387 . S
H4025 C4021 0.950 . S
H4026 C4023 0.950 . S
C4027 C4018 1.390 . S
C4027 H4020 0.950 . S
C4027 C4024 1.387 . S
C4028 C4029 1.387 . S
C4028 H4032 0.950 . S
C4028 C4037 1.390 . S
C4029 C4028 1.387 . S
C4029 C4031 1.387 . S
H4030 C4037 0.950 . S
C4031 C4029 1.387 . S
C4031 C4033 1.390 . S
C4031 H4035 0.950 . S
H4032 C4028 0.950 . S
C4033 C4031 1.390 . S
C4033 C4034 1.387 . S
C4033 H4036 0.950 . S
C4034 C4033 1.387 . S
C4034 C4037 1.387 . S
H4035 C4031 0.950 . S
H4036 C4033 0.950 . S
C4037 C4028 1.390 . S
C4037 H4030 0.950 . S
C4037 C4034 1.387 . S
C4038 C4039 1.387 . S
C4038 H4042 0.950 . S
C4038 C4047 1.390 . S
C4039 C4038 1.387 . S
C4039 C4041 1.387 . S
H4040 C4047 0.950 . S
C4041 C4039 1.387 . S
C4041 C4043 1.390 . S
C4041 H4045 0.950 . S
H4042 C4038 0.950 . S
C4043 C4041 1.390 . S
C4043 C4044 1.387 . S
C4043 H4046 0.950 . S
C4044 C4043 1.387 . S
C4044 C4047 1.387 . S
H4045 C4041 0.950 . S
H4046 C4043 0.950 . S
C4047 C4038 1.390 . S
C4047 H4040 0.950 . S
C4047 C4044 1.387 . S
C4048 C4049 1.387 . S
C4048 H4052 0.950 . S
C4048 C4057 1.390 . S
C4049 C4048 1.387 . S
C4049 C4051 1.387 . S
H4050 C4057 0.950 . S
C4051 C4049 1.387 . S
C4051 C4053 1.390 . S
C4051 H4055 0.950 . S
H4052 C4048 0.950 . S
C4053 C4051 1.390 . S
C4053 C4054 1.387 . S
C4053 H4056 0.950 . S
C4054 C4053 1.387 . S
C4054 C4057 1.387 . S
H4055 C4051 0.950 . S
H4056 C4053 0.950 . S
C4057 C4048 1.390 . S
C4057 H4050 0.950 . S
C4057 C4054 1.387 . S
C4058 C4059 1.387 . S
C4058 H4062 0.950 . S
C4058 C4067 1.390 . S
C4059 C4058 1.387 . S
C4059 C4061 1.387 . S
H4060 C4067 0.950 . S
C4061 C4059 1.387 . S
C4061 C4063 1.390 . S
C4061 H4065 0.950 . S
H4062 C4058 0.950 . S
C4063 C4061 1.390 . S
C4063 C4064 1.387 . S
C4063 H4066 0.950 . S
C4064 C4063 1.387 . S
C4064 C4067 1.387 . S
H4065 C4061 0.950 . S
H4066 C4063 0.950 . S
C4067 C4058 1.390 . S
C4067 H4060 0.950 . S
C4067 C4064 1.387 . S
C4068 C4069 1.387 . S
C4068 H4072 0.950 . S
C4068 C4077 1.390 . S
C4069 C4068 1.387 . S
C4069 C4071 1.387 . S
H4070 C4077 0.950 . S
C4071 C4069 1.387 . S
C4071 C4073 1.390 . S
C4071 H4075 0.950 . S
H4072 C4068 0.950 . S
C4073 C4071 1.390 . S
C4073 C4074 1.387 . S
C4073 H4076 0.950 . S
C4074 C4073 1.387 . S
C4074 C4077 1.387 . S
H4075 C4071 0.950 . S
H4076 C4073 0.950 . S
C4077 C4068 1.390 . S
C4077 H4070 0.950 . S
C4077 C4074 1.387 . S
C4078 C4079 1.387 . S
C4078 H4082 0.950 . S
C4078 C4087 1.390 . S
C4079 C4078 1.387 . S
C4079 C4081 1.387 . S
H4080 C4087 0.950 . S
C4081 C4079 1.387 . S
C4081 C4083 1.390 . S
C4081 H4085 0.950 . S
H4082 C4078 0.950 . S
C4083 C4081 1.390 . S
C4083 C4084 1.387 . S
C4083 H4086 0.950 . S
C4084 C4083 1.387 . S
C4084 C4087 1.387 . S
H4085 C4081 0.950 . S
H4086 C4083 0.950 . S
C4087 C4078 1.390 . S
C4087 H4080 0.950 . S
C4087 C4084 1.387 . S
C4088 C4089 1.387 . S
C4088 H4092 0.950 . S
C4088 C4097 1.390 . S
C4089 C4088 1.387 . S
C4089 C4091 1.387 . S
H4090 C4097 0.950 . S
C4091 C4089 1.387 . S
C4091 C4093 1.390 . S
C4091 H4095 0.950 . S
H4092 C4088 0.950 . S
C4093 C4091 1.390 . S
C4093 C4094 1.387 . S
C4093 H4096 0.950 . S
C4094 C4093 1.387 . S
C4094 C4097 1.387 . S
H4095 C4091 0.950 . S
H4096 C4093 0.950 . S
C4097 C4088 1.390 . S
C4097 H4090 0.950 . S
C4097 C4094 1.387 . S
C4098 C4099 1.387 . S
C4098 H4102 0.950 . S
C4098 C4107 1.390 . S
C4099 C4098 1.387 . S
C4099 C4101 1.387 . S
H4100 C4107 0.950 . S
C4101 C4099 1.387 . S
C4101 C4103 1.390 . S
C4101 H4105 0.950 . S
H4102 C4098 0.950 . S
C4103 C4101 1.390 . S
C4103 C4104 1.387 . S
C4103 H4106 0.950 . S
C4104 C4103 1.387 . S
C4104 C4107 1.387 . S
H4105 C4101 0.950 . S
H4106 C4103 0.950 . S
C4107 C4098 1.390 . S
C4107 H4100 0.950 . S
C4107 C4104 1.387 . S
C4108 C4109 1.387 . S
C4108 H4112 0.950 . S
C4108 C4117 1.390 . S
C4109 C4108 1.387 . S
C4109 C4111 1.387 . S
H4110 C4117 0.950 . S
C4111 C4109 1.387 . S
C4111 C4113 1.390 . S
C4111 H4115 0.950 . S
H4112 C4108 0.950 . S
C4113 C4111 1.390 . S
C4113 C4114 1.387 . S
C4113 H4116 0.950 . S
C4114 C4113 1.387 . S
C4114 C4117 1.387 . S
H4115 C4111 0.950 . S
H4116 C4113 0.950 . S
C4117 C4108 1.390 . S
C4117 H4110 0.950 . S
C4117 C4114 1.387 . S
C4118 C4119 1.387 . S
C4118 H4122 0.950 . S
C4118 C4127 1.390 . S
C4119 C4118 1.387 . S
C4119 C4121 1.387 . S
H4120 C4127 0.950 . S
C4121 C4119 1.387 . S
C4121 C4123 1.390 . S
C4121 H4125 0.950 . S
H4122 C4118 0.950 . S
C4123 C4121 1.390 . S
C4123 C4124 1.387 . S
C4123 H4126 0.950 . S
C4124 C4123 1.387 . S
C4124 C4127 1.387 . S
H4125 C4121 0.950 . S
H4126 C4123 0.950 . S
C4127 C4118 1.390 . S
C4127 H4120 0.950 . S
C4127 C4124 1.387 . S
C4128 C4129 1.387 . S
C4128 H4132 0.950 . S
C4128 C4137 1.390 . S
C4129 C4128 1.387 . S
C4129 C4131 1.387 . S
H4130 C4137 0.950 . S
C4131 C4129 1.387 . S
C4131 C4133 1.390 . S
C4131 H4135 0.950 . S
H4132 C4128 0.950 . S
C4133 C4131 1.390 . S
C4133 C4134 1.387 . S
C4133 H4136 0.950 . S
C4134 C4133 1.387 . S
C4134 C4137 1.387 . S
H4135 C4131 0.950 . S
H4136 C4133 0.950 . S
C4137 C4128 1.390 . S
C4137 H4130 0.950 . S
C4137 C4134 1.387 . S
C4138 C4139 1.387 . S
C4138 H4142 0.950 . S
C4138 C4147 1.390 . S
C4139 C4138 1.387 . S
C4139 C4141 1.387 . S
H4140 C4147 0.950 . S
C4141 C4139 1.387 . S
C4141 C4143 1.390 . S
C4141 H4145 0.950 . S
H4142 C4138 0.950 . S
C4143 C4141 1.390 . S
C4143 C4144 1.387 . S
C4143 H4146 0.950 . S
C4144 C4143 1.387 . S
C4144 C4147 1.387 . S
H4145 C4141 0.950 . S
H4146 C4143 0.950 . S
C4147 C4138 1.390 . S
C4147 H4140 0.950 . S
C4147 C4144 1.387 . S
C4148 C4149 1.387 . S
C4148 H4152 0.950 . S
C4148 C4157 1.390 . S
C4149 C4148 1.387 . S
C4149 C4151 1.387 . S
H4150 C4157 0.950 . S
C4151 C4149 1.387 . S
C4151 C4153 1.390 . S
C4151 H4155 0.950 . S
H4152 C4148 0.950 . S
C4153 C4151 1.390 . S
C4153 C4154 1.387 . S
C4153 H4156 0.950 . S
C4154 C4153 1.387 . S
C4154 C4157 1.387 . S
H4155 C4151 0.950 . S
H4156 C4153 0.950 . S
C4157 C4148 1.390 . S
C4157 H4150 0.950 . S
C4157 C4154 1.387 . S
C4158 C4159 1.387 . S
C4158 H4162 0.950 . S
C4158 C4167 1.390 . S
C4159 C4158 1.387 . S
C4159 C4161 1.387 . S
H4160 C4167 0.950 . S
C4161 C4159 1.387 . S
C4161 C4163 1.390 . S
C4161 H4165 0.950 . S
H4162 C4158 0.950 . S
C4163 C4161 1.390 . S
C4163 C4164 1.387 . S
C4163 H4166 0.950 . S
C4164 C4163 1.387 . S
C4164 C4167 1.387 . S
H4165 C4161 0.950 . S
H4166 C4163 0.950 . S
C4167 C4158 1.390 . S
C4167 H4160 0.950 . S
C4167 C4164 1.387 . S
C4168 C4169 1.387 . S
C4168 H4172 0.950 . S
C4168 C4177 1.390 . S
C4169 C4168 1.387 . S
C4169 C4171 1.387 . S
H4170 C4177 0.950 . S
C4171 C4169 1.387 . S
C4171 C4173 1.390 . S
C4171 H4175 0.950 . S
H4172 C4168 0.950 . S
C4173 C4171 1.390 . S
C4173 C4174 1.387 . S
C4173 H4176 0.950 . S
C4174 C4173 1.387 . S
C4174 C4177 1.387 . S
H4175 C4171 0.950 . S
H4176 C4173 0.950 . S
C4177 C4168 1.390 . S
C4177 H4170 0.950 . S
C4177 C4174 1.387 . S
C4178 C4179 1.387 . S
C4178 H4182 0.950 . S
C4178 C4187 1.390 . S
C4179 C4178 1.387 . S
C4179 C4181 1.387 . S
H4180 C4187 0.950 . S
C4181 C4179 1.387 . S
C4181 C4183 1.390 . S
C4181 H4185 0.950 . S
H4182 C4178 0.950 . S
C4183 C4181 1.390 . S
C4183 C4184 1.387 . S
C4183 H4186 0.950 . S
C4184 C4183 1.387 . S
C4184 C4187 1.387 . S
H4185 C4181 0.950 . S
H4186 C4183 0.950 . S
C4187 C4178 1.390 . S
C4187 H4180 0.950 . S
C4187 C4184 1.387 . S
C4188 C4189 1.387 . S
C4188 H4192 0.950 . S
C4188 C4197 1.390 . S
C4189 C4188 1.387 . S
C4189 C4191 1.387 . S
H4190 C4197 0.950 . S
C4191 C4189 1.387 . S
C4191 C4193 1.390 . S
C4191 H4195 0.950 . S
H4192 C4188 0.950 . S
C4193 C4191 1.390 . S
C4193 C4194 1.387 . S
C4193 H4196 0.950 . S
C4194 C4193 1.387 . S
C4194 C4197 1.387 . S
H4195 C4191 0.950 . S
H4196 C4193 0.950 . S
C4197 C4188 1.390 . S
C4197 H4190 0.950 . S
C4197 C4194 1.387 . S
C4198 C4199 1.387 . S
C4198 H4202 0.950 . S
C4198 C4207 1.390 . S
C4199 C4198 1.387 . S
C4199 C4201 1.387 . S
H4200 C4207 0.950 . S
C4201 C4199 1.387 . S
C4201 C4203 1.390 . S
C4201 H4205 0.950 . S
H4202 C4198 0.950 . S
C4203 C4201 1.390 . S
C4203 C4204 1.387 . S
C4203 H4206 0.950 . S
C4204 C4203 1.387 . S
C4204 C4207 1.387 . S
H4205 C4201 0.950 . S
H4206 C4203 0.950 . S
C4207 C4198 1.390 . S
C4207 H4200 0.950 . S
C4207 C4204 1.387 . S
C4208 C4209 1.387 . S
C4208 H4212 0.950 . S
C4208 C4217 1.390 . S
C4209 C4208 1.387 . S
C4209 C4211 1.387 . S
H4210 C4217 0.950 . S
C4211 C4209 1.387 . S
C4211 C4213 1.390 . S
C4211 H4215 0.950 . S
H4212 C4208 0.950 . S
C4213 C4211 1.390 . S
C4213 C4214 1.387 . S
C4213 H4216 0.950 . S
C4214 C4213 1.387 . S
C4214 C4217 1.387 . S
H4215 C4211 0.950 . S
H4216 C4213 0.950 . S
C4217 C4208 1.390 . S
C4217 H4210 0.950 . S
C4217 C4214 1.387 . S
C4218 C4219 1.387 . S
C4218 H4222 0.950 . S
C4218 C4227 1.390 . S
C4219 C4218 1.387 . S
C4219 C4221 1.387 . S
H4220 C4227 0.950 . S
C4221 C4219 1.387 . S
C4221 C4223 1.390 . S
C4221 H4225 0.950 . S
H4222 C4218 0.950 . S
C4223 C4221 1.390 . S
C4223 C4224 1.387 . S
C4223 H4226 0.950 . S
C4224 C4223 1.387 . S
C4224 C4227 1.387 . S
H4225 C4221 0.950 . S
H4226 C4223 0.950 . S
C4227 C4218 1.390 . S
C4227 H4220 0.950 . S
C4227 C4224 1.387 . S
C4228 C4229 1.387 . S
C4228 H4232 0.950 . S
C4228 C4237 1.390 . S
C4229 C4228 1.387 . S
C4229 C4231 1.387 . S
H4230 C4237 0.950 . S
C4231 C4229 1.387 . S
C4231 C4233 1.390 . S
C4231 H4235 0.950 . S
H4232 C4228 0.950 . S
C4233 C4231 1.390 . S
C4233 C4234 1.387 . S
C4233 H4236 0.950 . S
C4234 C4233 1.387 . S
C4234 C4237 1.387 . S
H4235 C4231 0.950 . S
H4236 C4233 0.950 . S
C4237 C4228 1.390 . S
C4237 H4230 0.950 . S
C4237 C4234 1.387 . S
C4238 C4239 1.387 . S
C4238 H4242 0.950 . S
C4238 C4247 1.390 . S
C4239 C4238 1.387 . S
C4239 C4241 1.387 . S
H4240 C4247 0.950 . S
C4241 C4239 1.387 . S
C4241 C4243 1.390 . S
C4241 H4245 0.950 . S
H4242 C4238 0.950 . S
C4243 C4241 1.390 . S
C4243 C4244 1.387 . S
C4243 H4246 0.950 . S
C4244 C4243 1.387 . S
C4244 C4247 1.387 . S
H4245 C4241 0.950 . S
H4246 C4243 0.950 . S
C4247 C4238 1.390 . S
C4247 H4240 0.950 . S
C4247 C4244 1.387 . S
C4248 C4249 1.387 . S
C4248 H4252 0.950 . S
C4248 C4257 1.390 . S
C4249 C4248 1.387 . S
C4249 C4251 1.387 . S
H4250 C4257 0.950 . S
C4251 C4249 1.387 . S
C4251 C4253 1.390 . S
C4251 H4255 0.950 . S
H4252 C4248 0.950 . S
C4253 C4251 1.390 . S
C4253 C4254 1.387 . S
C4253 H4256 0.950 . S
C4254 C4253 1.387 . S
C4254 C4257 1.387 . S
H4255 C4251 0.950 . S
H4256 C4253 0.950 . S
C4257 C4248 1.390 . S
C4257 H4250 0.950 . S
C4257 C4254 1.387 . S
C4258 C4259 1.387 . S
C4258 H4262 0.950 . S
C4258 C4267 1.390 . S
C4259 C4258 1.387 . S
C4259 C4261 1.387 . S
H4260 C4267 0.950 . S
C4261 C4259 1.387 . S
C4261 C4263 1.390 . S
C4261 H4265 0.950 . S
H4262 C4258 0.950 . S
C4263 C4261 1.390 . S
C4263 C4264 1.387 . S
C4263 H4266 0.950 . S
C4264 C4263 1.387 . S
C4264 C4267 1.387 . S
H4265 C4261 0.950 . S
H4266 C4263 0.950 . S
C4267 C4258 1.390 . S
C4267 H4260 0.950 . S
C4267 C4264 1.387 . S
C4268 C4269 1.387 . S
C4268 H4272 0.950 . S
C4268 C4277 1.390 . S
C4269 C4268 1.387 . S
C4269 C4271 1.387 . S
H4270 C4277 0.950 . S
C4271 C4269 1.387 . S
C4271 C4273 1.390 . S
C4271 H4275 0.950 . S
H4272 C4268 0.950 . S
C4273 C4271 1.390 . S
C4273 C4274 1.387 . S
C4273 H4276 0.950 . S
C4274 C4273 1.387 . S
C4274 C4277 1.387 . S
H4275 C4271 0.950 . S
H4276 C4273 0.950 . S
C4277 C4268 1.390 . S
C4277 H4270 0.950 . S
C4277 C4274 1.387 . S
C4278 C4279 1.387 . S
C4278 H4282 0.950 . S
C4278 C4287 1.390 . S
C4279 C4278 1.387 . S
C4279 C4281 1.387 . S
H4280 C4287 0.950 . S
C4281 C4279 1.387 . S
C4281 C4283 1.390 . S
C4281 H4285 0.950 . S
H4282 C4278 0.950 . S
C4283 C4281 1.390 . S
C4283 C4284 1.387 . S
C4283 H4286 0.950 . S
C4284 C4283 1.387 . S
C4284 C4287 1.387 . S
H4285 C4281 0.950 . S
H4286 C4283 0.950 . S
C4287 C4278 1.390 . S
C4287 H4280 0.950 . S
C4287 C4284 1.387 . S
C4288 C4289 1.387 . S
C4288 H4292 0.950 . S
C4288 C4297 1.390 . S
C4289 C4288 1.387 . S
C4289 C4291 1.387 . S
H4290 C4297 0.950 . S
C4291 C4289 1.387 . S
C4291 C4293 1.390 . S
C4291 H4295 0.950 . S
H4292 C4288 0.950 . S
C4293 C4291 1.390 . S
C4293 C4294 1.387 . S
C4293 H4296 0.950 . S
C4294 C4293 1.387 . S
C4294 C4297 1.387 . S
H4295 C4291 0.950 . S
H4296 C4293 0.950 . S
C4297 C4288 1.390 . S
C4297 H4290 0.950 . S
C4297 C4294 1.387 . S
C4298 C4299 1.387 . S
C4298 H4302 0.950 . S
C4298 C4307 1.390 . S
C4299 C4298 1.387 . S
C4299 C4301 1.387 . S
H4300 C4307 0.950 . S
C4301 C4299 1.387 . S
C4301 C4303 1.390 . S
C4301 H4305 0.950 . S
H4302 C4298 0.950 . S
C4303 C4301 1.390 . S
C4303 C4304 1.387 . S
C4303 H4306 0.950 . S
C4304 C4303 1.387 . S
C4304 C4307 1.387 . S
H4305 C4301 0.950 . S
H4306 C4303 0.950 . S
C4307 C4298 1.390 . S
C4307 H4300 0.950 . S
C4307 C4304 1.387 . S
C4308 C4309 1.387 . S
C4308 H4312 0.950 . S
C4308 C4317 1.390 . S
C4309 C4308 1.387 . S
C4309 C4311 1.387 . S
H4310 C4317 0.950 . S
C4311 C4309 1.387 . S
C4311 C4313 1.390 . S
C4311 H4315 0.950 . S
H4312 C4308 0.950 . S
C4313 C4311 1.390 . S
C4313 C4314 1.387 . S
C4313 H4316 0.950 . S
C4314 C4313 1.387 . S
C4314 C4317 1.387 . S
H4315 C4311 0.950 . S
H4316 C4313 0.950 . S
C4317 C4308 1.390 . S
C4317 H4310 0.950 . S
C4317 C4314 1.387 . S
C4318 C4319 1.387 . S
C4318 H4322 0.950 . S
C4318 C4327 1.390 . S
C4319 C4318 1.387 . S
C4319 C4321 1.387 . S
H4320 C4327 0.950 . S
C4321 C4319 1.387 . S
C4321 C4323 1.390 . S
C4321 H4325 0.950 . S
H4322 C4318 0.950 . S
C4323 C4321 1.390 . S
C4323 C4324 1.387 . S
C4323 H4326 0.950 . S
C4324 C4323 1.387 . S
C4324 C4327 1.387 . S
H4325 C4321 0.950 . S
H4326 C4323 0.950 . S
C4327 C4318 1.390 . S
C4327 H4320 0.950 . S
C4327 C4324 1.387 . S
C4328 C4329 1.387 . S
C4328 H4332 0.950 . S
C4328 C4337 1.390 . S
C4329 C4328 1.387 . S
C4329 C4331 1.387 . S
H4330 C4337 0.950 . S
C4331 C4329 1.387 . S
C4331 C4333 1.390 . S
C4331 H4335 0.950 . S
H4332 C4328 0.950 . S
C4333 C4331 1.390 . S
C4333 C4334 1.387 . S
C4333 H4336 0.950 . S
C4334 C4333 1.387 . S
C4334 C4337 1.387 . S
H4335 C4331 0.950 . S
H4336 C4333 0.950 . S
C4337 C4328 1.390 . S
C4337 H4330 0.950 . S
C4337 C4334 1.387 . S
C4338 C4339 1.387 . S
C4338 H4342 0.950 . S
C4338 C4347 1.390 . S
C4339 C4338 1.387 . S
C4339 C4341 1.387 . S
H4340 C4347 0.950 . S
C4341 C4339 1.387 . S
C4341 C4343 1.390 . S
C4341 H4345 0.950 . S
H4342 C4338 0.950 . S
C4343 C4341 1.390 . S
C4343 C4344 1.387 . S
C4343 H4346 0.950 . S
C4344 C4343 1.387 . S
C4344 C4347 1.387 . S
H4345 C4341 0.950 . S
H4346 C4343 0.950 . S
C4347 C4338 1.390 . S
C4347 H4340 0.950 . S
C4347 C4344 1.387 . S
C4348 C4349 1.387 . S
C4348 H4352 0.950 . S
C4348 C4357 1.390 . S
C4349 C4348 1.387 . S
C4349 C4351 1.387 . S
H4350 C4357 0.950 . S
C4351 C4349 1.387 . S
C4351 C4353 1.390 . S
C4351 H4355 0.950 . S
H4352 C4348 0.950 . S
C4353 C4351 1.390 . S
C4353 C4354 1.387 . S
C4353 H4356 0.950 . S
C4354 C4353 1.387 . S
C4354 C4357 1.387 . S
H4355 C4351 0.950 . S
H4356 C4353 0.950 . S
C4357 C4348 1.390 . S
C4357 H4350 0.950 . S
C4357 C4354 1.387 . S
C4358 C4359 1.387 . S
C4358 H4362 0.950 . S
C4358 C4367 1.390 . S
C4359 C4358 1.387 . S
C4359 C4361 1.387 . S
H4360 C4367 0.950 . S
C4361 C4359 1.387 . S
C4361 C4363 1.390 . S
C4361 H4365 0.950 . S
H4362 C4358 0.950 . S
C4363 C4361 1.390 . S
C4363 C4364 1.387 . S
C4363 H4366 0.950 . S
C4364 C4363 1.387 . S
C4364 C4367 1.387 . S
H4365 C4361 0.950 . S
H4366 C4363 0.950 . S
C4367 C4358 1.390 . S
C4367 H4360 0.950 . S
C4367 C4364 1.387 . S
C4368 C4369 1.387 . S
C4368 H4372 0.950 . S
C4368 C4377 1.390 . S
C4369 C4368 1.387 . S
C4369 C4371 1.387 . S
H4370 C4377 0.950 . S
C4371 C4369 1.387 . S
C4371 C4373 1.390 . S
C4371 H4375 0.950 . S
H4372 C4368 0.950 . S
C4373 C4371 1.390 . S
C4373 C4374 1.387 . S
C4373 H4376 0.950 . S
C4374 C4373 1.387 . S
C4374 C4377 1.387 . S
H4375 C4371 0.950 . S
H4376 C4373 0.950 . S
C4377 C4368 1.390 . S
C4377 H4370 0.950 . S
C4377 C4374 1.387 . S
C4378 C4379 1.387 . S
C4378 H4382 0.950 . S
C4378 C4387 1.390 . S
C4379 C4378 1.387 . S
C4379 C4381 1.387 . S
H4380 C4387 0.950 . S
C4381 C4379 1.387 . S
C4381 C4383 1.390 . S
C4381 H4385 0.950 . S
H4382 C4378 0.950 . S
C4383 C4381 1.390 . S
C4383 C4384 1.387 . S
C4383 H4386 0.950 . S
C4384 C4383 1.387 . S
C4384 C4387 1.387 . S
H4385 C4381 0.950 . S
H4386 C4383 0.950 . S
C4387 C4378 1.390 . S
C4387 H4380 0.950 . S
C4387 C4384 1.387 . S
C4388 C4389 1.387 . S
C4388 H4392 0.950 . S
C4388 C4397 1.390 . S
C4389 C4388 1.387 . S
C4389 C4391 1.387 . S
H4390 C4397 0.950 . S
C4391 C4389 1.387 . S
C4391 C4393 1.390 . S
C4391 H4395 0.950 . S
H4392 C4388 0.950 . S
C4393 C4391 1.390 . S
C4393 C4394 1.387 . S
C4393 H4396 0.950 . S
C4394 C4393 1.387 . S
C4394 C4397 1.387 . S
H4395 C4391 0.950 . S
H4396 C4393 0.950 . S
C4397 C4388 1.390 . S
C4397 H4390 0.950 . S
C4397 C4394 1.387 . S
C4398 C4399 1.387 . S
C4398 H4402 0.950 . S
C4398 C4407 1.390 . S
C4399 C4398 1.387 . S
C4399 C4401 1.387 . S
H4400 C4407 0.950 . S
C4401 C4399 1.387 . S
C4401 C4403 1.390 . S
C4401 H4405 0.950 . S
H4402 C4398 0.950 . S
C4403 C4401 1.390 . S
C4403 C4404 1.387 . S
C4403 H4406 0.950 . S
C4404 C4403 1.387 . S
C4404 C4407 1.387 . S
H4405 C4401 0.950 . S
H4406 C4403 0.950 . S
C4407 C4398 1.390 . S
C4407 H4400 0.950 . S
C4407 C4404 1.387 . S
C4408 C4409 1.387 . S
C4408 H4412 0.950 . S
C4408 C4417 1.390 . S
C4409 C4408 1.387 . S
C4409 C4411 1.387 . S
H4410 C4417 0.950 . S
C4411 C4409 1.387 . S
C4411 C4413 1.390 . S
C4411 H4415 0.950 . S
H4412 C4408 0.950 . S
C4413 C4411 1.390 . S
C4413 C4414 1.387 . S
C4413 H4416 0.950 . S
C4414 C4413 1.387 . S
C4414 C4417 1.387 . S
H4415 C4411 0.950 . S
H4416 C4413 0.950 . S
C4417 C4408 1.390 . S
C4417 H4410 0.950 . S
C4417 C4414 1.387 . S
C4418 C4419 1.387 . S
C4418 H4422 0.950 . S
C4418 C4427 1.390 . S
C4419 C4418 1.387 . S
C4419 C4421 1.387 . S
H4420 C4427 0.950 . S
C4421 C4419 1.387 . S
C4421 C4423 1.390 . S
C4421 H4425 0.950 . S
H4422 C4418 0.950 . S
C4423 C4421 1.390 . S
C4423 C4424 1.387 . S
C4423 H4426 0.950 . S
C4424 C4423 1.387 . S
C4424 C4427 1.387 . S
H4425 C4421 0.950 . S
H4426 C4423 0.950 . S
C4427 C4418 1.390 . S
C4427 H4420 0.950 . S
C4427 C4424 1.387 . S
C4428 C4429 1.387 . S
C4428 H4432 0.950 . S
C4428 C4437 1.390 . S
C4429 C4428 1.387 . S
C4429 C4431 1.387 . S
H4430 C4437 0.950 . S
C4431 C4429 1.387 . S
C4431 C4433 1.390 . S
C4431 H4435 0.950 . S
H4432 C4428 0.950 . S
C4433 C4431 1.390 . S
C4433 C4434 1.387 . S
C4433 H4436 0.950 . S
C4434 C4433 1.387 . S
C4434 C4437 1.387 . S
H4435 C4431 0.950 . S
H4436 C4433 0.950 . S
C4437 C4428 1.390 . S
C4437 H4430 0.950 . S
C4437 C4434 1.387 . S
C4438 C4439 1.387 . S
C4438 H4442 0.950 . S
C4438 C4447 1.390 . S
C4439 C4438 1.387 . S
C4439 C4441 1.387 . S
H4440 C4447 0.950 . S
C4441 C4439 1.387 . S
C4441 C4443 1.390 . S
C4441 H4445 0.950 . S
H4442 C4438 0.950 . S
C4443 C4441 1.390 . S
C4443 C4444 1.387 . S
C4443 H4446 0.950 . S
C4444 C4443 1.387 . S
C4444 C4447 1.387 . S
H4445 C4441 0.950 . S
H4446 C4443 0.950 . S
C4447 C4438 1.390 . S
C4447 H4440 0.950 . S
C4447 C4444 1.387 . S
C4448 C4449 1.387 . S
C4448 H4452 0.950 . S
C4448 C4457 1.390 . S
C4449 C4448 1.387 . S
C4449 C4451 1.387 . S
H4450 C4457 0.950 . S
C4451 C4449 1.387 . S
C4451 C4453 1.390 . S
C4451 H4455 0.950 . S
H4452 C4448 0.950 . S
C4453 C4451 1.390 . S
C4453 C4454 1.387 . S
C4453 H4456 0.950 . S
C4454 C4453 1.387 . S
C4454 C4457 1.387 . S
H4455 C4451 0.950 . S
H4456 C4453 0.950 . S
C4457 C4448 1.390 . S
C4457 H4450 0.950 . S
C4457 C4454 1.387 . S
C4458 C4459 1.387 . S
C4458 H4462 0.950 . S
C4458 C4467 1.390 . S
C4459 C4458 1.387 . S
C4459 C4461 1.387 . S
H4460 C4467 0.950 . S
C4461 C4459 1.387 . S
C4461 C4463 1.390 . S
C4461 H4465 0.950 . S
H4462 C4458 0.950 . S
C4463 C4461 1.390 . S
C4463 C4464 1.387 . S
C4463 H4466 0.950 . S
C4464 C4463 1.387 . S
C4464 C4467 1.387 . S
H4465 C4461 0.950 . S
H4466 C4463 0.950 . S
C4467 C4458 1.390 . S
C4467 H4460 0.950 . S
C4467 C4464 1.387 . S
C4468 C4469 1.387 . S
C4468 H4472 0.950 . S
C4468 C4477 1.390 . S
C4469 C4468 1.387 . S
C4469 C4471 1.387 . S
H4470 C4477 0.950 . S
C4471 C4469 1.387 . S
C4471 C4473 1.390 . S
C4471 H4475 0.950 . S
H4472 C4468 0.950 . S
C4473 C4471 1.390 . S
C4473 C4474 1.387 . S
C4473 H4476 0.950 . S
C4474 C4473 1.387 . S
C4474 C4477 1.387 . S
H4475 C4471 0.950 . S
H4476 C4473 0.950 . S
C4477 C4468 1.390 . S
C4477 H4470 0.950 . S
C4477 C4474 1.387 . S
C4478 C4479 1.387 . S
C4478 H4482 0.950 . S
C4478 C4487 1.390 . S
C4479 C4478 1.387 . S
C4479 C4481 1.387 . S
H4480 C4487 0.950 . S
C4481 C4479 1.387 . S
C4481 C4483 1.390 . S
C4481 H4485 0.950 . S
H4482 C4478 0.950 . S
C4483 C4481 1.390 . S
C4483 C4484 1.387 . S
C4483 H4486 0.950 . S
C4484 C4483 1.387 . S
C4484 C4487 1.387 . S
H4485 C4481 0.950 . S
H4486 C4483 0.950 . S
C4487 C4478 1.390 . S
C4487 H4480 0.950 . S
C4487 C4484 1.387 . S
C4488 C4489 1.387 . S
C4488 H4492 0.950 . S
C4488 C4497 1.390 . S
C4489 C4488 1.387 . S
C4489 C4491 1.387 . S
H4490 C4497 0.950 . S
C4491 C4489 1.387 . S
C4491 C4493 1.390 . S
C4491 H4495 0.950 . S
H4492 C4488 0.950 . S
C4493 C4491 1.390 . S
C4493 C4494 1.387 . S
C4493 H4496 0.950 . S
C4494 C4493 1.387 . S
C4494 C4497 1.387 . S
H4495 C4491 0.950 . S
H4496 C4493 0.950 . S
C4497 C4488 1.390 . S
C4497 H4490 0.950 . S
C4497 C4494 1.387 . S
C4498 C4499 1.387 . S
C4498 H4502 0.950 . S
C4498 C4507 1.390 . S
C4499 C4498 1.387 . S
C4499 C4501 1.387 . S
H4500 C4507 0.950 . S
C4501 C4499 1.387 . S
C4501 C4503 1.390 . S
C4501 H4505 0.950 . S
H4502 C4498 0.950 . S
C4503 C4501 1.390 . S
C4503 C4504 1.387 . S
C4503 H4506 0.950 . S
C4504 C4503 1.387 . S
C4504 C4507 1.387 . S
H4505 C4501 0.950 . S
H4506 C4503 0.950 . S
C4507 C4498 1.390 . S
C4507 H4500 0.950 . S
C4507 C4504 1.387 . S
C4508 C4509 1.387 . S
C4508 H4512 0.950 . S
C4508 C4517 1.390 . S
C4509 C4508 1.387 . S
C4509 C4511 1.387 . S
H4510 C4517 0.950 . S
C4511 C4509 1.387 . S
C4511 C4513 1.390 . S
C4511 H4515 0.950 . S
H4512 C4508 0.950 . S
C4513 C4511 1.390 . S
C4513 C4514 1.387 . S
C4513 H4516 0.950 . S
C4514 C4513 1.387 . S
C4514 C4517 1.387 . S
H4515 C4511 0.950 . S
H4516 C4513 0.950 . S
C4517 C4508 1.390 . S
C4517 H4510 0.950 . S
C4517 C4514 1.387 . S
C4518 C4519 1.387 . S
C4518 H4522 0.950 . S
C4518 C4527 1.390 . S
C4519 C4518 1.387 . S
C4519 C4521 1.387 . S
H4520 C4527 0.950 . S
C4521 C4519 1.387 . S
C4521 C4523 1.390 . S
C4521 H4525 0.950 . S
H4522 C4518 0.950 . S
C4523 C4521 1.390 . S
C4523 C4524 1.387 . S
C4523 H4526 0.950 . S
C4524 C4523 1.387 . S
C4524 C4527 1.387 . S
H4525 C4521 0.950 . S
H4526 C4523 0.950 . S
C4527 C4518 1.390 . S
C4527 H4520 0.950 . S
C4527 C4524 1.387 . S
C4528 C4529 1.387 . S
C4528 H4532 0.950 . S
C4528 C4537 1.390 . S
C4529 C4528 1.387 . S
C4529 C4531 1.387 . S
H4530 C4537 0.950 . S
C4531 C4529 1.387 . S
C4531 C4533 1.390 . S
C4531 H4535 0.950 . S
H4532 C4528 0.950 . S
C4533 C4531 1.390 . S
C4533 C4534 1.387 . S
C4533 H4536 0.950 . S
C4534 C4533 1.387 . S
C4534 C4537 1.387 . S
H4535 C4531 0.950 . S
H4536 C4533 0.950 . S
C4537 C4528 1.390 . S
C4537 H4530 0.950 . S
C4537 C4534 1.387 . S
C4538 C4539 1.387 . S
C4538 H4542 0.950 . S
C4538 C4547 1.390 . S
C4539 C4538 1.387 . S
C4539 C4541 1.387 . S
H4540 C4547 0.950 . S
C4541 C4539 1.387 . S
C4541 C4543 1.390 . S
C4541 H4545 0.950 . S
H4542 C4538 0.950 . S
C4543 C4541 1.390 . S
C4543 C4544 1.387 . S
C4543 H4546 0.950 . S
C4544 C4543 1.387 . S
C4544 C4547 1.387 . S
H4545 C4541 0.950 . S
H4546 C4543 0.950 . S
C4547 C4538 1.390 . S
C4547 H4540 0.950 . S
C4547 C4544 1.387 . S
C4548 C4549 1.387 . S
C4548 H4552 0.950 . S
C4548 C4557 1.390 . S
C4549 C4548 1.387 . S
C4549 C4551 1.387 . S
H4550 C4557 0.950 . S
C4551 C4549 1.387 . S
C4551 C4553 1.390 . S
C4551 H4555 0.950 . S
H4552 C4548 0.950 . S
C4553 C4551 1.390 . S
C4553 C4554 1.387 . S
C4553 H4556 0.950 . S
C4554 C4553 1.387 . S
C4554 C4557 1.387 . S
H4555 C4551 0.950 . S
H4556 C4553 0.950 . S
C4557 C4548 1.390 . S
C4557 H4550 0.950 . S
C4557 C4554 1.387 . S
C4558 C4559 1.387 . S
C4558 H4562 0.950 . S
C4558 C4567 1.390 . S
C4559 C4558 1.387 . S
C4559 C4561 1.387 . S
H4560 C4567 0.950 . S
C4561 C4559 1.387 . S
C4561 C4563 1.390 . S
C4561 H4565 0.950 . S
H4562 C4558 0.950 . S
C4563 C4561 1.390 . S
C4563 C4564 1.387 . S
C4563 H4566 0.950 . S
C4564 C4563 1.387 . S
C4564 C4567 1.387 . S
H4565 C4561 0.950 . S
H4566 C4563 0.950 . S
C4567 C4558 1.390 . S
C4567 H4560 0.950 . S
C4567 C4564 1.387 . S
C4568 C4569 1.387 . S
C4568 H4572 0.950 . S
C4568 C4577 1.390 . S
C4569 C4568 1.387 . S
C4569 C4571 1.387 . S
H4570 C4577 0.950 . S
C4571 C4569 1.387 . S
C4571 C4573 1.390 . S
C4571 H4575 0.950 . S
H4572 C4568 0.950 . S
C4573 C4571 1.390 . S
C4573 C4574 1.387 . S
C4573 H4576 0.950 . S
C4574 C4573 1.387 . S
C4574 C4577 1.387 . S
H4575 C4571 0.950 . S
H4576 C4573 0.950 . S
C4577 C4568 1.390 . S
C4577 H4570 0.950 . S
C4577 C4574 1.387 . S
C4578 C4579 1.387 . S
C4578 H4582 0.950 . S
C4578 C4587 1.390 . S
C4579 C4578 1.387 . S
C4579 C4581 1.387 . S
H4580 C4587 0.950 . S
C4581 C4579 1.387 . S
C4581 C4583 1.390 . S
C4581 H4585 0.950 . S
H4582 C4578 0.950 . S
C4583 C4581 1.390 . S
C4583 C4584 1.387 . S
C4583 H4586 0.950 . S
C4584 C4583 1.387 . S
C4584 C4587 1.387 . S
H4585 C4581 0.950 . S
H4586 C4583 0.950 . S
C4587 C4578 1.390 . S
C4587 H4580 0.950 . S
C4587 C4584 1.387 . S
C4588 C4589 1.387 . S
C4588 H4592 0.950 . S
C4588 C4597 1.390 . S
C4589 C4588 1.387 . S
C4589 C4591 1.387 . S
H4590 C4597 0.950 . S
C4591 C4589 1.387 . S
C4591 C4593 1.390 . S
C4591 H4595 0.950 . S
H4592 C4588 0.950 . S
C4593 C4591 1.390 . S
C4593 C4594 1.387 . S
C4593 H4596 0.950 . S
C4594 C4593 1.387 . S
C4594 C4597 1.387 . S
H4595 C4591 0.950 . S
H4596 C4593 0.950 . S
C4597 C4588 1.390 . S
C4597 H4590 0.950 . S
C4597 C4594 1.387 . S
C4598 C4599 1.387 . S
C4598 H4602 0.950 . S
C4598 C4607 1.390 . S
C4599 C4598 1.387 . S
C4599 C4601 1.387 . S
H4600 C4607 0.950 . S
C4601 C4599 1.387 . S
C4601 C4603 1.390 . S
C4601 H4605 0.950 . S
H4602 C4598 0.950 . S
C4603 C4601 1.390 . S
C4603 C4604 1.387 . S
C4603 H4606 0.950 . S
C4604 C4603 1.387 . S
C4604 C4607 1.387 . S
H4605 C4601 0.950 . S
H4606 C4603 0.950 . S
C4607 C4598 1.390 . S
C4607 H4600 0.950 . S
C4607 C4604 1.387 . S
C4608 C4609 1.387 . S
C4608 H4612 0.950 . S
C4608 C4617 1.444 . S
C4609 C4608 1.387 . S
C4609 C4611 1.387 . S
H4610 C4617 0.926 1_455 S
C4611 C4609 1.387 . S
C4611 C4613 1.444 . S
C4611 H4615 0.950 . S
H4612 C4608 0.950 . S
C4613 C4611 1.444 . S
C4613 C4614 1.363 1_655 S
C4613 H4616 0.926 1_655 S
C4614 C4613 1.363 1_455 S
C4614 C4617 1.363 1_455 S
H4615 C4611 0.950 . S
H4616 C4613 0.926 1_455 S
C4617 C4608 1.444 . S
C4617 H4610 0.926 1_655 S
C4617 C4614 1.363 1_655 S
C4618 C4619 1.387 . S
C4618 H4622 0.950 . S
C4618 C4627 1.390 . S
C4619 C4618 1.387 . S
C4619 C4621 1.387 . S
H4620 C4627 0.950 . S
C4621 C4619 1.387 . S
C4621 C4623 1.390 . S
C4621 H4625 0.950 . S
H4622 C4618 0.950 . S
C4623 C4621 1.390 . S
C4623 C4624 1.387 . S
C4623 H4626 0.950 . S
C4624 C4623 1.387 . S
C4624 C4627 1.387 . S
H4625 C4621 0.950 . S
H4626 C4623 0.950 . S
C4627 C4618 1.390 . S
C4627 H4620 0.950 . S
C4627 C4624 1.387 . S
C4628 C4629 1.387 . S
C4628 H4632 0.950 . S
C4628 C4637 1.444 . S
C4629 C4628 1.387 . S
C4629 C4631 1.387 . S
H4630 C4637 0.926 1_554 S
C4631 C4629 1.387 . S
C4631 C4633 1.444 . S
C4631 H4635 0.950 . S
H4632 C4628 0.950 . S
C4633 C4631 1.444 . S
C4633 C4634 1.363 1_556 S
C4633 H4636 0.926 1_556 S
C4634 C4633 1.363 1_554 S
C4634 C4637 1.363 1_554 S
H4635 C4631 0.950 . S
H4636 C4633 0.926 1_554 S
C4637 C4628 1.444 . S
C4637 H4630 0.926 1_556 S
C4637 C4634 1.363 1_556 S
C4638 C4639 1.387 . S
C4638 H4642 0.950 . S
C4638 C4647 1.444 . S
C4639 C4638 1.387 . S
C4639 C4641 1.387 . S
H4640 C4647 0.926 1_565 S
C4641 C4639 1.387 . S
C4641 C4643 1.444 . S
C4641 H4645 0.950 . S
H4642 C4638 0.950 . S
C4643 C4641 1.444 . S
C4643 C4644 1.363 1_545 S
C4643 H4646 0.926 1_545 S
C4644 C4643 1.363 1_565 S
C4644 C4647 1.363 1_565 S
H4645 C4641 0.950 . S
H4646 C4643 0.926 1_565 S
C4647 C4638 1.444 . S
C4647 H4640 0.926 1_545 S
C4647 C4644 1.363 1_545 S
C4648 C4649 1.365 1_655 S
C4648 H4652 0.927 1_655 S
C4648 C4657 1.440 . S
C4649 C4648 1.365 1_455 S
C4649 C4651 1.365 1_455 S
H4650 C4657 0.950 . S
C4651 C4649 1.365 1_655 S
C4651 C4653 1.440 . S
C4651 H4655 0.927 1_655 S
H4652 C4648 0.927 1_455 S
C4653 C4651 1.440 . S
C4653 C4654 1.387 . S
C4653 H4656 0.950 . S
C4654 C4653 1.387 . S
C4654 C4657 1.387 . S
H4655 C4651 0.927 1_455 S
H4656 C4653 0.950 . S
C4657 C4648 1.440 . S
C4657 H4650 0.950 . S
C4657 C4654 1.387 . S
C4658 C4659 1.365 1_554 S
C4658 H4662 0.927 1_554 S
C4658 C4667 1.440 . S
C4659 C4658 1.365 1_556 S
C4659 C4661 1.365 1_556 S
H4660 C4667 0.950 . S
C4661 C4659 1.365 1_554 S
C4661 C4663 1.440 . S
C4661 H4665 0.927 1_554 S
H4662 C4658 0.927 1_556 S
C4663 C4661 1.440 . S
C4663 C4664 1.387 . S
C4663 H4666 0.950 . S
C4664 C4663 1.387 . S
C4664 C4667 1.387 . S
H4665 C4661 0.927 1_556 S
H4666 C4663 0.950 . S
C4667 C4658 1.440 . S
C4667 H4660 0.950 . S
C4667 C4664 1.387 . S
C4668 C4669 1.387 . S
C4668 H4672 0.950 . S
C4668 C4677 1.390 . S
C4669 C4668 1.387 . S
C4669 C4671 1.387 . S
H4670 C4677 0.950 . S
C4671 C4669 1.387 . S
C4671 C4673 1.390 . S
C4671 H4675 0.950 . S
H4672 C4668 0.950 . S
C4673 C4671 1.390 . S
C4673 C4674 1.387 . S
C4673 H4676 0.950 . S
C4674 C4673 1.387 . S
C4674 C4677 1.387 . S
H4675 C4671 0.950 . S
H4676 C4673 0.950 . S
C4677 C4668 1.390 . S
C4677 H4670 0.950 . S
C4677 C4674 1.387 . S
C4678 C4679 1.365 1_545 S
C4678 H4682 0.927 1_545 S
C4678 C4687 1.440 . S
C4679 C4678 1.365 1_565 S
C4679 C4681 1.365 1_565 S
H4680 C4687 0.950 . S
C4681 C4679 1.365 1_545 S
C4681 C4683 1.440 . S
C4681 H4685 0.927 1_545 S
H4682 C4678 0.927 1_565 S
C4683 C4681 1.440 . S
C4683 C4684 1.387 . S
C4683 H4686 0.950 . S
C4684 C4683 1.387 . S
C4684 C4687 1.387 . S
H4685 C4681 0.927 1_565 S
H4686 C4683 0.950 . S
C4687 C4678 1.440 . S
C4687 H4680 0.950 . S
C4687 C4684 1.387 . S
C4688 C4689 1.365 1_565 S
C4688 H4692 0.927 1_565 S
C4688 C4697 1.440 . S
C4689 C4688 1.365 1_545 S
C4689 C4691 1.365 1_545 S
H4690 C4697 0.950 . S
C4691 C4689 1.365 1_565 S
C4691 C4693 1.440 . S
C4691 H4695 0.927 1_565 S
H4692 C4688 0.927 1_545 S
C4693 C4691 1.440 . S
C4693 C4694 1.387 . S
C4693 H4696 0.950 . S
C4694 C4693 1.387 . S
C4694 C4697 1.387 . S
H4695 C4691 0.927 1_545 S
H4696 C4693 0.950 . S
C4697 C4688 1.440 . S
C4697 H4690 0.950 . S
C4697 C4694 1.387 . S
C4698 C4699 1.387 . S
C4698 H4702 0.950 . S
C4698 C4707 1.440 . S
C4699 C4698 1.387 . S
C4699 C4701 1.387 . S
H4700 C4707 0.927 1_655 S
C4701 C4699 1.387 . S
C4701 C4703 1.440 . S
C4701 H4705 0.950 . S
H4702 C4698 0.950 . S
C4703 C4701 1.440 . S
C4703 C4704 1.365 1_455 S
C4703 H4706 0.927 1_455 S
C4704 C4703 1.365 1_655 S
C4704 C4707 1.365 1_655 S
H4705 C4701 0.950 . S
H4706 C4703 0.927 1_655 S
C4707 C4698 1.440 . S
C4707 H4700 0.927 1_455 S
C4707 C4704 1.365 1_455 S
C4708 C4709 1.387 . S
C4708 H4712 0.950 . S
C4708 C4717 1.390 . S
C4709 C4708 1.387 . S
C4709 C4711 1.387 . S
H4710 C4717 0.950 . S
C4711 C4709 1.387 . S
C4711 C4713 1.390 . S
C4711 H4715 0.950 . S
H4712 C4708 0.950 . S
C4713 C4711 1.390 . S
C4713 C4714 1.387 . S
C4713 H4716 0.950 . S
C4714 C4713 1.387 . S
C4714 C4717 1.387 . S
H4715 C4711 0.950 . S
H4716 C4713 0.950 . S
C4717 C4708 1.390 . S
C4717 H4710 0.950 . S
C4717 C4714 1.387 . S
C4718 C4719 1.387 . S
C4718 H4722 0.950 . S
C4718 C4727 1.390 . S
C4719 C4718 1.387 . S
C4719 C4721 1.387 . S
H4720 C4727 0.950 . S
C4721 C4719 1.387 . S
C4721 C4723 1.390 . S
C4721 H4725 0.950 . S
H4722 C4718 0.950 . S
C4723 C4721 1.390 . S
C4723 C4724 1.387 . S
C4723 H4726 0.950 . S
C4724 C4723 1.387 . S
C4724 C4727 1.387 . S
H4725 C4721 0.950 . S
H4726 C4723 0.950 . S
C4727 C4718 1.390 . S
C4727 H4720 0.950 . S
C4727 C4724 1.387 . S
C4728 C4729 1.387 . S
C4728 H4732 0.950 . S
C4728 C4737 1.390 . S
C4729 C4728 1.387 . S
C4729 C4731 1.387 . S
H4730 C4737 0.950 . S
C4731 C4729 1.387 . S
C4731 C4733 1.390 . S
C4731 H4735 0.950 . S
H4732 C4728 0.950 . S
C4733 C4731 1.390 . S
C4733 C4734 1.387 . S
C4733 H4736 0.950 . S
C4734 C4733 1.387 . S
C4734 C4737 1.387 . S
H4735 C4731 0.950 . S
H4736 C4733 0.950 . S
C4737 C4728 1.390 . S
C4737 H4730 0.950 . S
C4737 C4734 1.387 . S
C4738 C4739 1.387 . S
C4738 H4742 0.950 . S
C4738 C4747 1.390 . S
C4739 C4738 1.387 . S
C4739 C4741 1.387 . S
H4740 C4747 0.950 . S
C4741 C4739 1.387 . S
C4741 C4743 1.390 . S
C4741 H4745 0.950 . S
H4742 C4738 0.950 . S
C4743 C4741 1.390 . S
C4743 C4744 1.387 . S
C4743 H4746 0.950 . S
C4744 C4743 1.387 . S
C4744 C4747 1.387 . S
H4745 C4741 0.950 . S
H4746 C4743 0.950 . S
C4747 C4738 1.390 . S
C4747 H4740 0.950 . S
C4747 C4744 1.387 . S
C4748 C4749 1.387 . S
C4748 H4752 0.950 . S
C4748 C4757 1.444 . S
C4749 C4748 1.387 . S
C4749 C4751 1.387 . S
H4750 C4757 0.926 1_545 S
C4751 C4749 1.387 . S
C4751 C4753 1.444 . S
C4751 H4755 0.950 . S
H4752 C4748 0.950 . S
C4753 C4751 1.444 . S
C4753 C4754 1.363 1_565 S
C4753 H4756 0.926 1_565 S
C4754 C4753 1.363 1_545 S
C4754 C4757 1.363 1_545 S
H4755 C4751 0.950 . S
H4756 C4753 0.926 1_545 S
C4757 C4748 1.444 . S
C4757 H4750 0.926 1_565 S
C4757 C4754 1.363 1_565 S
C4758 C4759 1.363 1_455 S
C4758 H4762 0.926 1_455 S
C4758 C4767 1.444 . S
C4759 C4758 1.363 1_655 S
C4759 C4761 1.363 1_655 S
H4760 C4767 0.950 . S
C4761 C4759 1.363 1_455 S
C4761 C4763 1.444 . S
C4761 H4765 0.926 1_455 S
H4762 C4758 0.926 1_655 S
C4763 C4761 1.444 . S
C4763 C4764 1.387 . S
C4763 H4766 0.950 . S
C4764 C4763 1.387 . S
C4764 C4767 1.387 . S
H4765 C4761 0.926 1_655 S
H4766 C4763 0.950 . S
C4767 C4758 1.444 . S
C4767 H4760 0.950 . S
C4767 C4764 1.387 . S
C4768 C4769 1.365 1_556 S
C4768 H4772 0.927 1_556 S
C4768 C4777 1.440 . S
C4769 C4768 1.365 1_554 S
C4769 C4771 1.365 1_554 S
H4770 C4777 0.950 . S
C4771 C4769 1.365 1_556 S
C4771 C4773 1.440 . S
C4771 H4775 0.927 1_556 S
H4772 C4768 0.927 1_554 S
C4773 C4771 1.440 . S
C4773 C4774 1.387 . S
C4773 H4776 0.950 . S
C4774 C4773 1.387 . S
C4774 C4777 1.387 . S
H4775 C4771 0.927 1_554 S
H4776 C4773 0.950 . S
C4777 C4768 1.440 . S
C4777 H4770 0.950 . S
C4777 C4774 1.387 . S
C4778 C4779 1.387 . S
C4778 H4782 0.950 . S
C4778 C4787 1.390 . S
C4779 C4778 1.387 . S
C4779 C4781 1.387 . S
H4780 C4787 0.950 . S
C4781 C4779 1.387 . S
C4781 C4783 1.390 . S
C4781 H4785 0.950 . S
H4782 C4778 0.950 . S
C4783 C4781 1.390 . S
C4783 C4784 1.387 . S
C4783 H4786 0.950 . S
C4784 C4783 1.387 . S
C4784 C4787 1.387 . S
H4785 C4781 0.950 . S
H4786 C4783 0.950 . S
C4787 C4778 1.390 . S
C4787 H4780 0.950 . S
C4787 C4784 1.387 . S
C4788 C4789 1.387 . S
C4788 H4792 0.950 . S
C4788 C4797 1.390 . S
C4789 C4788 1.387 . S
C4789 C4791 1.387 . S
H4790 C4797 0.950 . S
C4791 C4789 1.387 . S
C4791 C4793 1.390 . S
C4791 H4795 0.950 . S
H4792 C4788 0.950 . S
C4793 C4791 1.390 . S
C4793 C4794 1.387 . S
C4793 H4796 0.950 . S
C4794 C4793 1.387 . S
C4794 C4797 1.387 . S
H4795 C4791 0.950 . S
H4796 C4793 0.950 . S
C4797 C4788 1.390 . S
C4797 H4790 0.950 . S
C4797 C4794 1.387 . S
C4798 C4799 1.365 1_565 S
C4798 H4802 0.927 1_565 S
C4798 C4807 1.440 . S
C4799 C4798 1.365 1_545 S
C4799 C4801 1.365 1_545 S
H4800 C4807 0.950 . S
C4801 C4799 1.365 1_565 S
C4801 C4803 1.440 . S
C4801 H4805 0.927 1_565 S
H4802 C4798 0.927 1_545 S
C4803 C4801 1.440 . S
C4803 C4804 1.387 . S
C4803 H4806 0.950 . S
C4804 C4803 1.387 . S
C4804 C4807 1.387 . S
H4805 C4801 0.927 1_545 S
H4806 C4803 0.950 . S
C4807 C4798 1.440 . S
C4807 H4800 0.950 . S
C4807 C4804 1.387 . S
C4808 C4809 1.387 . S
C4808 H4812 0.950 . S
C4808 C4817 1.390 . S
C4809 C4808 1.387 . S
C4809 C4811 1.387 . S
H4810 C4817 0.950 . S
C4811 C4809 1.387 . S
C4811 C4813 1.390 . S
C4811 H4815 0.950 . S
H4812 C4808 0.950 . S
C4813 C4811 1.390 . S
C4813 C4814 1.387 . S
C4813 H4816 0.950 . S
C4814 C4813 1.387 . S
C4814 C4817 1.387 . S
H4815 C4811 0.950 . S
H4816 C4813 0.950 . S
C4817 C4808 1.390 . S
C4817 H4810 0.950 . S
C4817 C4814 1.387 . S
C4818 C4819 1.365 1_556 S
C4818 H4822 0.927 1_556 S
C4818 C4827 1.440 . S
C4819 C4818 1.365 1_554 S
C4819 C4821 1.365 1_554 S
H4820 C4827 0.950 . S
C4821 C4819 1.365 1_556 S
C4821 C4823 1.440 . S
C4821 H4825 0.927 1_556 S
H4822 C4818 0.927 1_554 S
C4823 C4821 1.440 . S
C4823 C4824 1.387 . S
C4823 H4826 0.950 . S
C4824 C4823 1.387 . S
C4824 C4827 1.387 . S
H4825 C4821 0.927 1_554 S
H4826 C4823 0.950 . S
C4827 C4818 1.440 . S
C4827 H4820 0.950 . S
C4827 C4824 1.387 . S
C4828 C4829 1.387 . S
C4828 H4832 0.950 . S
C4828 C4837 1.390 . S
C4829 C4828 1.387 . S
C4829 C4831 1.387 . S
H4830 C4837 0.950 . S
C4831 C4829 1.387 . S
C4831 C4833 1.390 . S
C4831 H4835 0.950 . S
H4832 C4828 0.950 . S
C4833 C4831 1.390 . S
C4833 C4834 1.387 . S
C4833 H4836 0.950 . S
C4834 C4833 1.387 . S
C4834 C4837 1.387 . S
H4835 C4831 0.950 . S
H4836 C4833 0.950 . S
C4837 C4828 1.390 . S
C4837 H4830 0.950 . S
C4837 C4834 1.387 . S
C4838 C4839 1.365 1_455 S
C4838 H4842 0.927 1_455 S
C4838 C4847 1.440 . S
C4839 C4838 1.365 1_655 S
C4839 C4841 1.365 1_655 S
H4840 C4847 0.950 . S
C4841 C4839 1.365 1_455 S
C4841 C4843 1.440 . S
C4841 H4845 0.927 1_455 S
H4842 C4838 0.927 1_655 S
C4843 C4841 1.440 . S
C4843 C4844 1.387 . S
C4843 H4846 0.950 . S
C4844 C4843 1.387 . S
C4844 C4847 1.387 . S
H4845 C4841 0.927 1_655 S
H4846 C4843 0.950 . S
C4847 C4838 1.440 . S
C4847 H4840 0.950 . S
C4847 C4844 1.387 . S
C4848 C4849 1.363 1_455 S
C4848 H4852 0.926 1_455 S
C4848 C4857 1.444 . S
C4849 C4848 1.363 1_655 S
C4849 C4851 1.363 1_655 S
H4850 C4857 0.950 . S
C4851 C4849 1.363 1_455 S
C4851 C4853 1.444 . S
C4851 H4855 0.926 1_455 S
H4852 C4848 0.926 1_655 S
C4853 C4851 1.444 . S
C4853 C4854 1.387 . S
C4853 H4856 0.950 . S
C4854 C4853 1.387 . S
C4854 C4857 1.387 . S
H4855 C4851 0.926 1_655 S
H4856 C4853 0.950 . S
C4857 C4848 1.444 . S
C4857 H4850 0.950 . S
C4857 C4854 1.387 . S
C4858 C4859 1.387 . S
C4858 H4862 0.950 . S
C4858 C4867 1.390 . S
C4859 C4858 1.387 . S
C4859 C4861 1.387 . S
H4860 C4867 0.950 . S
C4861 C4859 1.387 . S
C4861 C4863 1.390 . S
C4861 H4865 0.950 . S
H4862 C4858 0.950 . S
C4863 C4861 1.390 . S
C4863 C4864 1.387 . S
C4863 H4866 0.950 . S
C4864 C4863 1.387 . S
C4864 C4867 1.387 . S
H4865 C4861 0.950 . S
H4866 C4863 0.950 . S
C4867 C4858 1.390 . S
C4867 H4860 0.950 . S
C4867 C4864 1.387 . S
C4868 C4869 1.387 . S
C4868 H4872 0.950 . S
C4868 C4877 1.440 . S
C4869 C4868 1.387 . S
C4869 C4871 1.387 . S
H4870 C4877 0.927 1_556 S
C4871 C4869 1.387 . S
C4871 C4873 1.440 . S
C4871 H4875 0.950 . S
H4872 C4868 0.950 . S
C4873 C4871 1.440 . S
C4873 C4874 1.365 1_554 S
C4873 H4876 0.927 1_554 S
C4874 C4873 1.365 1_556 S
C4874 C4877 1.365 1_556 S
H4875 C4871 0.950 . S
H4876 C4873 0.927 1_556 S
C4877 C4868 1.440 . S
C4877 H4870 0.927 1_554 S
C4877 C4874 1.365 1_554 S
C4878 C4879 1.365 1_455 S
C4878 H4882 0.927 1_455 S
C4878 C4887 1.440 . S
C4879 C4878 1.365 1_655 S
C4879 C4881 1.365 1_655 S
H4880 C4887 0.950 . S
C4881 C4879 1.365 1_455 S
C4881 C4883 1.440 . S
C4881 H4885 0.927 1_455 S
H4882 C4878 0.927 1_655 S
C4883 C4881 1.440 . S
C4883 C4884 1.387 . S
C4883 H4886 0.950 . S
C4884 C4883 1.387 . S
C4884 C4887 1.387 . S
H4885 C4881 0.927 1_655 S
H4886 C4883 0.950 . S
C4887 C4878 1.440 . S
C4887 H4880 0.950 . S
C4887 C4884 1.387 . S
C4888 C4889 1.387 . S
C4888 H4892 0.950 . S
C4888 C4897 1.390 . S
C4889 C4888 1.387 . S
C4889 C4891 1.387 . S
H4890 C4897 0.950 . S
C4891 C4889 1.387 . S
C4891 C4893 1.390 . S
C4891 H4895 0.950 . S
H4892 C4888 0.950 . S
C4893 C4891 1.390 . S
C4893 C4894 1.387 . S
C4893 H4896 0.950 . S
C4894 C4893 1.387 . S
C4894 C4897 1.387 . S
H4895 C4891 0.950 . S
H4896 C4893 0.950 . S
C4897 C4888 1.390 . S
C4897 H4890 0.950 . S
C4897 C4894 1.387 . S
C4898 C4899 1.363 1_565 S
C4898 H4902 0.926 1_565 S
C4898 C4907 1.444 . S
C4899 C4898 1.363 1_545 S
C4899 C4901 1.363 1_545 S
H4900 C4907 0.950 . S
C4901 C4899 1.363 1_565 S
C4901 C4903 1.444 . S
C4901 H4905 0.926 1_565 S
H4902 C4898 0.926 1_545 S
C4903 C4901 1.444 . S
C4903 C4904 1.387 . S
C4903 H4906 0.950 . S
C4904 C4903 1.387 . S
C4904 C4907 1.387 . S
H4905 C4901 0.926 1_545 S
H4906 C4903 0.950 . S
C4907 C4898 1.444 . S
C4907 H4900 0.950 . S
C4907 C4904 1.387 . S
C4908 C4909 1.387 . S
C4908 H4912 0.950 . S
C4908 C4917 1.444 . S
C4909 C4908 1.387 . S
C4909 C4911 1.387 . S
H4910 C4917 0.926 1_565 S
C4911 C4909 1.387 . S
C4911 C4913 1.444 . S
C4911 H4915 0.950 . S
H4912 C4908 0.950 . S
C4913 C4911 1.444 . S
C4913 C4914 1.363 1_545 S
C4913 H4916 0.926 1_545 S
C4914 C4913 1.363 1_565 S
C4914 C4917 1.363 1_565 S
H4915 C4911 0.950 . S
H4916 C4913 0.926 1_565 S
C4917 C4908 1.444 . S
C4917 H4910 0.926 1_545 S
C4917 C4914 1.363 1_545 S
C4918 C4919 1.387 . S
C4918 H4922 0.950 . S
C4918 C4927 1.444 . S
C4919 C4918 1.387 . S
C4919 C4921 1.387 . S
H4920 C4927 0.926 1_455 S
C4921 C4919 1.387 . S
C4921 C4923 1.444 . S
C4921 H4925 0.950 . S
H4922 C4918 0.950 . S
C4923 C4921 1.444 . S
C4923 C4924 1.363 1_655 S
C4923 H4926 0.926 1_655 S
C4924 C4923 1.363 1_455 S
C4924 C4927 1.363 1_455 S
H4925 C4921 0.950 . S
H4926 C4923 0.926 1_455 S
C4927 C4918 1.444 . S
C4927 H4920 0.926 1_655 S
C4927 C4924 1.363 1_655 S
C4928 C4929 1.387 . S
C4928 H4932 0.950 . S
C4928 C4937 1.390 . S
C4929 C4928 1.387 . S
C4929 C4931 1.387 . S
H4930 C4937 0.950 . S
C4931 C4929 1.387 . S
C4931 C4933 1.390 . S
C4931 H4935 0.950 . S
H4932 C4928 0.950 . S
C4933 C4931 1.390 . S
C4933 C4934 1.387 . S
C4933 H4936 0.950 . S
C4934 C4933 1.387 . S
C4934 C4937 1.387 . S
H4935 C4931 0.950 . S
H4936 C4933 0.950 . S
C4937 C4928 1.390 . S
C4937 H4930 0.950 . S
C4937 C4934 1.387 . S
C4938 C4939 1.387 . S
C4938 H4942 0.950 . S
C4938 C4947 1.390 . S
C4939 C4938 1.387 . S
C4939 C4941 1.387 . S
H4940 C4947 0.950 . S
C4941 C4939 1.387 . S
C4941 C4943 1.390 . S
C4941 H4945 0.950 . S
H4942 C4938 0.950 . S
C4943 C4941 1.390 . S
C4943 C4944 1.387 . S
C4943 H4946 0.950 . S
C4944 C4943 1.387 . S
C4944 C4947 1.387 . S
H4945 C4941 0.950 . S
H4946 C4943 0.950 . S
C4947 C4938 1.390 . S
C4947 H4940 0.950 . S
C4947 C4944 1.387 . S
C4948 C4949 1.365 1_545 S
C4948 H4952 0.927 1_545 S
C4948 C4957 1.440 . S
C4949 C4948 1.365 1_565 S
C4949 C4951 1.365 1_565 S
H4950 C4957 0.950 . S
C4951 C4949 1.365 1_545 S
C4951 C4953 1.440 . S
C4951 H4955 0.927 1_545 S
H4952 C4948 0.927 1_565 S
C4953 C4951 1.440 . S
C4953 C4954 1.387 . S
C4953 H4956 0.950 . S
C4954 C4953 1.387 . S
C4954 C4957 1.387 . S
H4955 C4951 0.927 1_565 S
H4956 C4953 0.950 . S
C4957 C4948 1.440 . S
C4957 H4950 0.950 . S
C4957 C4954 1.387 . S
C4958 C4959 1.387 . S
C4958 H4962 0.950 . S
C4958 C4967 1.444 . S
C4959 C4958 1.387 . S
C4959 C4961 1.387 . S
H4960 C4967 0.926 1_455 S
C4961 C4959 1.387 . S
C4961 C4963 1.444 . S
C4961 H4965 0.950 . S
H4962 C4958 0.950 . S
C4963 C4961 1.444 . S
C4963 C4964 1.363 1_655 S
C4963 H4966 0.926 1_655 S
C4964 C4963 1.363 1_455 S
C4964 C4967 1.363 1_455 S
H4965 C4961 0.950 . S
H4966 C4963 0.926 1_455 S
C4967 C4958 1.444 . S
C4967 H4960 0.926 1_655 S
C4967 C4964 1.363 1_655 S
C4968 C4969 1.387 . S
C4968 H4972 0.950 . S
C4968 C4977 1.444 . S
C4969 C4968 1.387 . S
C4969 C4971 1.387 . S
H4970 C4977 0.926 1_556 S
C4971 C4969 1.387 . S
C4971 C4973 1.444 . S
C4971 H4975 0.950 . S
H4972 C4968 0.950 . S
C4973 C4971 1.444 . S
C4973 C4974 1.363 1_554 S
C4973 H4976 0.926 1_554 S
C4974 C4973 1.363 1_556 S
C4974 C4977 1.363 1_556 S
H4975 C4971 0.950 . S
H4976 C4973 0.926 1_556 S
C4977 C4968 1.444 . S
C4977 H4970 0.926 1_554 S
C4977 C4974 1.363 1_554 S
C4978 C4979 1.387 . S
C4978 H4982 0.950 . S
C4978 C4987 1.390 . S
C4979 C4978 1.387 . S
C4979 C4981 1.387 . S
H4980 C4987 0.950 . S
C4981 C4979 1.387 . S
C4981 C4983 1.390 . S
C4981 H4985 0.950 . S
H4982 C4978 0.950 . S
C4983 C4981 1.390 . S
C4983 C4984 1.387 . S
C4983 H4986 0.950 . S
C4984 C4983 1.387 . S
C4984 C4987 1.387 . S
H4985 C4981 0.950 . S
H4986 C4983 0.950 . S
C4987 C4978 1.390 . S
C4987 H4980 0.950 . S
C4987 C4984 1.387 . S
C4988 C4989 1.387 . S
C4988 H4992 0.950 . S
C4988 C4997 1.390 . S
C4989 C4988 1.387 . S
C4989 C4991 1.387 . S
H4990 C4997 0.950 . S
C4991 C4989 1.387 . S
C4991 C4993 1.390 . S
C4991 H4995 0.950 . S
H4992 C4988 0.950 . S
C4993 C4991 1.390 . S
C4993 C4994 1.387 . S
C4993 H4996 0.950 . S
C4994 C4993 1.387 . S
C4994 C4997 1.387 . S
H4995 C4991 0.950 . S
H4996 C4993 0.950 . S
C4997 C4988 1.390 . S
C4997 H4990 0.950 . S
C4997 C4994 1.387 . S
C4998 C4999 1.387 . S
C4998 H5002 0.950 . S
C4998 C5007 1.390 . S
C4999 C4998 1.387 . S
C4999 C5001 1.387 . S
H5000 C5007 0.950 . S
C5001 C4999 1.387 . S
C5001 C5003 1.390 . S
C5001 H5005 0.950 . S
H5002 C4998 0.950 . S
C5003 C5001 1.390 . S
C5003 C5004 1.387 . S
C5003 H5006 0.950 . S
C5004 C5003 1.387 . S
C5004 C5007 1.387 . S
H5005 C5001 0.950 . S
H5006 C5003 0.950 . S
C5007 C4998 1.390 . S
C5007 H5000 0.950 . S
C5007 C5004 1.387 . S
C5008 C5009 1.387 . S
C5008 H5012 0.950 . S
C5008 C5017 1.390 . S
C5009 C5008 1.387 . S
C5009 C5011 1.387 . S
H5010 C5017 0.950 . S
C5011 C5009 1.387 . S
C5011 C5013 1.390 . S
C5011 H5015 0.950 . S
H5012 C5008 0.950 . S
C5013 C5011 1.390 . S
C5013 C5014 1.387 . S
C5013 H5016 0.950 . S
C5014 C5013 1.387 . S
C5014 C5017 1.387 . S
H5015 C5011 0.950 . S
H5016 C5013 0.950 . S
C5017 C5008 1.390 . S
C5017 H5010 0.950 . S
C5017 C5014 1.387 . S
C5018 C5019 1.387 . S
C5018 H5022 0.950 . S
C5018 C5027 1.440 . S
C5019 C5018 1.387 . S
C5019 C5021 1.387 . S
H5020 C5027 0.927 1_455 S
C5021 C5019 1.387 . S
C5021 C5023 1.440 . S
C5021 H5025 0.950 . S
H5022 C5018 0.950 . S
C5023 C5021 1.440 . S
C5023 C5024 1.365 1_655 S
C5023 H5026 0.927 1_655 S
C5024 C5023 1.365 1_455 S
C5024 C5027 1.365 1_455 S
H5025 C5021 0.950 . S
H5026 C5023 0.927 1_455 S
C5027 C5018 1.440 . S
C5027 H5020 0.927 1_655 S
C5027 C5024 1.365 1_655 S
C5028 C5029 1.365 1_556 S
C5028 H5032 0.927 1_556 S
C5028 C5037 1.492 . S
C5029 C5028 1.365 1_554 S
C5029 C5031 1.365 1_554 S
H5030 C5037 0.926 1_455 S
C5031 C5029 1.365 1_556 S
C5031 C5033 1.492 . S
C5031 H5035 0.927 1_556 S
H5032 C5028 0.927 1_554 S
C5033 C5031 1.492 . S
C5033 C5034 1.363 1_655 S
C5033 H5036 0.926 1_655 S
C5034 C5033 1.363 1_455 S
C5034 C5037 1.363 1_455 S
H5035 C5031 0.927 1_554 S
H5036 C5033 0.926 1_455 S
C5037 C5028 1.492 . S
C5037 H5030 0.926 1_655 S
C5037 C5034 1.363 1_655 S
C5038 C5039 1.387 . S
C5038 H5042 0.950 . S
C5038 C5047 1.390 . S
C5039 C5038 1.387 . S
C5039 C5041 1.387 . S
H5040 C5047 0.950 . S
C5041 C5039 1.387 . S
C5041 C5043 1.390 . S
C5041 H5045 0.950 . S
H5042 C5038 0.950 . S
C5043 C5041 1.390 . S
C5043 C5044 1.387 . S
C5043 H5046 0.950 . S
C5044 C5043 1.387 . S
C5044 C5047 1.387 . S
H5045 C5041 0.950 . S
H5046 C5043 0.950 . S
C5047 C5038 1.390 . S
C5047 H5040 0.950 . S
C5047 C5044 1.387 . S
C5048 C5049 1.387 . S
C5048 H5052 0.950 . S
C5048 C5057 1.390 . S
C5049 C5048 1.387 . S
C5049 C5051 1.387 . S
H5050 C5057 0.950 . S
C5051 C5049 1.387 . S
C5051 C5053 1.390 . S
C5051 H5055 0.950 . S
H5052 C5048 0.950 . S
C5053 C5051 1.390 . S
C5053 C5054 1.387 . S
C5053 H5056 0.950 . S
C5054 C5053 1.387 . S
C5054 C5057 1.387 . S
H5055 C5051 0.950 . S
H5056 C5053 0.950 . S
C5057 C5048 1.390 . S
C5057 H5050 0.950 . S
C5057 C5054 1.387 . S
C5058 C5059 1.387 . S
C5058 H5062 0.950 . S
C5058 C5067 1.390 . S
C5059 C5058 1.387 . S
C5059 C5061 1.387 . S
H5060 C5067 0.950 . S
C5061 C5059 1.387 . S
C5061 C5063 1.390 . S
C5061 H5065 0.950 . S
H5062 C5058 0.950 . S
C5063 C5061 1.390 . S
C5063 C5064 1.387 . S
C5063 H5066 0.950 . S
C5064 C5063 1.387 . S
C5064 C5067 1.387 . S
H5065 C5061 0.950 . S
H5066 C5063 0.950 . S
C5067 C5058 1.390 . S
C5067 H5060 0.950 . S
C5067 C5064 1.387 . S
C5068 C5069 1.387 . S
C5068 H5072 0.950 . S
C5068 C5077 1.390 . S
C5069 C5068 1.387 . S
C5069 C5071 1.387 . S
H5070 C5077 0.950 . S
C5071 C5069 1.387 . S
C5071 C5073 1.390 . S
C5071 H5075 0.950 . S
H5072 C5068 0.950 . S
C5073 C5071 1.390 . S
C5073 C5074 1.387 . S
C5073 H5076 0.950 . S
C5074 C5073 1.387 . S
C5074 C5077 1.387 . S
H5075 C5071 0.950 . S
H5076 C5073 0.950 . S
C5077 C5068 1.390 . S
C5077 H5070 0.950 . S
C5077 C5074 1.387 . S
C5078 C5079 1.387 . S
C5078 H5082 0.950 . S
C5078 C5087 1.390 . S
C5079 C5078 1.387 . S
C5079 C5081 1.387 . S
H5080 C5087 0.950 . S
C5081 C5079 1.387 . S
C5081 C5083 1.390 . S
C5081 H5085 0.950 . S
H5082 C5078 0.950 . S
C5083 C5081 1.390 . S
C5083 C5084 1.387 . S
C5083 H5086 0.950 . S
C5084 C5083 1.387 . S
C5084 C5087 1.387 . S
H5085 C5081 0.950 . S
H5086 C5083 0.950 . S
C5087 C5078 1.390 . S
C5087 H5080 0.950 . S
C5087 C5084 1.387 . S
C5088 C5089 1.387 . S
C5088 H5092 0.950 . S
C5088 C5097 1.390 . S
C5089 C5088 1.387 . S
C5089 C5091 1.387 . S
H5090 C5097 0.950 . S
C5091 C5089 1.387 . S
C5091 C5093 1.390 . S
C5091 H5095 0.950 . S
H5092 C5088 0.950 . S
C5093 C5091 1.390 . S
C5093 C5094 1.387 . S
C5093 H5096 0.950 . S
C5094 C5093 1.387 . S
C5094 C5097 1.387 . S
H5095 C5091 0.950 . S
H5096 C5093 0.950 . S
C5097 C5088 1.390 . S
C5097 H5090 0.950 . S
C5097 C5094 1.387 . S
C5098 C5099 1.365 1_455 S
C5098 H5102 0.927 1_455 S
C5098 C5107 1.440 . S
C5099 C5098 1.365 1_655 S
C5099 C5101 1.365 1_655 S
H5100 C5107 0.950 . S
C5101 C5099 1.365 1_455 S
C5101 C5103 1.440 . S
C5101 H5105 0.927 1_455 S
H5102 C5098 0.927 1_655 S
C5103 C5101 1.440 . S
C5103 C5104 1.387 . S
C5103 H5106 0.950 . S
C5104 C5103 1.387 . S
C5104 C5107 1.387 . S
H5105 C5101 0.927 1_655 S
H5106 C5103 0.950 . S
C5107 C5098 1.440 . S
C5107 H5100 0.950 . S
C5107 C5104 1.387 . S
C5108 C5109 1.387 . S
C5108 H5112 0.950 . S
C5108 C5117 1.390 . S
C5109 C5108 1.387 . S
C5109 C5111 1.387 . S
H5110 C5117 0.950 . S
C5111 C5109 1.387 . S
C5111 C5113 1.390 . S
C5111 H5115 0.950 . S
H5112 C5108 0.950 . S
C5113 C5111 1.390 . S
C5113 C5114 1.387 . S
C5113 H5116 0.950 . S
C5114 C5113 1.387 . S
C5114 C5117 1.387 . S
H5115 C5111 0.950 . S
H5116 C5113 0.950 . S
C5117 C5108 1.390 . S
C5117 H5110 0.950 . S
C5117 C5114 1.387 . S
C5118 C5119 1.387 . S
C5118 H5122 0.950 . S
C5118 C5127 1.390 . S
C5119 C5118 1.387 . S
C5119 C5121 1.387 . S
H5120 C5127 0.950 . S
C5121 C5119 1.387 . S
C5121 C5123 1.390 . S
C5121 H5125 0.950 . S
H5122 C5118 0.950 . S
C5123 C5121 1.390 . S
C5123 C5124 1.387 . S
C5123 H5126 0.950 . S
C5124 C5123 1.387 . S
C5124 C5127 1.387 . S
H5125 C5121 0.950 . S
H5126 C5123 0.950 . S
C5127 C5118 1.390 . S
C5127 H5120 0.950 . S
C5127 C5124 1.387 . S
C5128 C5129 1.387 . S
C5128 H5132 0.950 . S
C5128 C5137 1.390 . S
C5129 C5128 1.387 . S
C5129 C5131 1.387 . S
H5130 C5137 0.950 . S
C5131 C5129 1.387 . S
C5131 C5133 1.390 . S
C5131 H5135 0.950 . S
H5132 C5128 0.950 . S
C5133 C5131 1.390 . S
C5133 C5134 1.387 . S
C5133 H5136 0.950 . S
C5134 C5133 1.387 . S
C5134 C5137 1.387 . S
H5135 C5131 0.950 . S
H5136 C5133 0.950 . S
C5137 C5128 1.390 . S
C5137 H5130 0.950 . S
C5137 C5134 1.387 . S
C5138 C5139 1.363 1_545 S
C5138 H5142 0.926 1_545 S
C5138 C5147 1.492 . S
C5139 C5138 1.363 1_565 S
C5139 C5141 1.363 1_565 S
H5140 C5147 0.927 1_655 S
C5141 C5139 1.363 1_545 S
C5141 C5143 1.492 . S
C5141 H5145 0.926 1_545 S
H5142 C5138 0.926 1_565 S
C5143 C5141 1.492 . S
C5143 C5144 1.365 1_455 S
C5143 H5146 0.927 1_455 S
C5144 C5143 1.365 1_655 S
C5144 C5147 1.365 1_655 S
H5145 C5141 0.926 1_565 S
H5146 C5143 0.927 1_655 S
C5147 C5138 1.492 . S
C5147 H5140 0.927 1_455 S
C5147 C5144 1.365 1_455 S
C5148 C5149 1.387 . S
C5148 H5152 0.950 . S
C5148 C5157 1.390 . S
C5149 C5148 1.387 . S
C5149 C5151 1.387 . S
H5150 C5157 0.950 . S
C5151 C5149 1.387 . S
C5151 C5153 1.390 . S
C5151 H5155 0.950 . S
H5152 C5148 0.950 . S
C5153 C5151 1.390 . S
C5153 C5154 1.387 . S
C5153 H5156 0.950 . S
C5154 C5153 1.387 . S
C5154 C5157 1.387 . S
H5155 C5151 0.950 . S
H5156 C5153 0.950 . S
C5157 C5148 1.390 . S
C5157 H5150 0.950 . S
C5157 C5154 1.387 . S
C5158 C5159 1.387 . S
C5158 H5162 0.950 . S
C5158 C5167 1.440 . S
C5159 C5158 1.387 . S
C5159 C5161 1.387 . S
H5160 C5167 0.927 1_556 S
C5161 C5159 1.387 . S
C5161 C5163 1.440 . S
C5161 H5165 0.950 . S
H5162 C5158 0.950 . S
C5163 C5161 1.440 . S
C5163 C5164 1.365 1_554 S
C5163 H5166 0.927 1_554 S
C5164 C5163 1.365 1_556 S
C5164 C5167 1.365 1_556 S
H5165 C5161 0.950 . S
H5166 C5163 0.927 1_556 S
C5167 C5158 1.440 . S
C5167 H5160 0.927 1_554 S
C5167 C5164 1.365 1_554 S
C5168 C5169 1.387 . S
C5168 H5172 0.950 . S
C5168 C5177 1.390 . S
C5169 C5168 1.387 . S
C5169 C5171 1.387 . S
H5170 C5177 0.950 . S
C5171 C5169 1.387 . S
C5171 C5173 1.390 . S
C5171 H5175 0.950 . S
H5172 C5168 0.950 . S
C5173 C5171 1.390 . S
C5173 C5174 1.387 . S
C5173 H5176 0.950 . S
C5174 C5173 1.387 . S
C5174 C5177 1.387 . S
H5175 C5171 0.950 . S
H5176 C5173 0.950 . S
C5177 C5168 1.390 . S
C5177 H5170 0.950 . S
C5177 C5174 1.387 . S
C5178 C5179 1.365 1_554 S
C5178 H5182 0.927 1_554 S
C5178 C5187 1.440 . S
C5179 C5178 1.365 1_556 S
C5179 C5181 1.365 1_556 S
H5180 C5187 0.950 . S
C5181 C5179 1.365 1_554 S
C5181 C5183 1.440 . S
C5181 H5185 0.927 1_554 S
H5182 C5178 0.927 1_556 S
C5183 C5181 1.440 . S
C5183 C5184 1.387 . S
C5183 H5186 0.950 . S
C5184 C5183 1.387 . S
C5184 C5187 1.387 . S
H5185 C5181 0.927 1_556 S
H5186 C5183 0.950 . S
C5187 C5178 1.440 . S
C5187 H5180 0.950 . S
C5187 C5184 1.387 . S
C5188 C5189 1.387 . S
C5188 H5192 0.950 . S
C5188 C5197 1.390 . S
C5189 C5188 1.387 . S
C5189 C5191 1.387 . S
H5190 C5197 0.950 . S
C5191 C5189 1.387 . S
C5191 C5193 1.390 . S
C5191 H5195 0.950 . S
H5192 C5188 0.950 . S
C5193 C5191 1.390 . S
C5193 C5194 1.387 . S
C5193 H5196 0.950 . S
C5194 C5193 1.387 . S
C5194 C5197 1.387 . S
H5195 C5191 0.950 . S
H5196 C5193 0.950 . S
C5197 C5188 1.390 . S
C5197 H5190 0.950 . S
C5197 C5194 1.387 . S
C5198 C5199 1.387 . S
C5198 H5202 0.950 . S
C5198 C5207 1.390 . S
C5199 C5198 1.387 . S
C5199 C5201 1.387 . S
H5200 C5207 0.950 . S
C5201 C5199 1.387 . S
C5201 C5203 1.390 . S
C5201 H5205 0.950 . S
H5202 C5198 0.950 . S
C5203 C5201 1.390 . S
C5203 C5204 1.387 . S
C5203 H5206 0.950 . S
C5204 C5203 1.387 . S
C5204 C5207 1.387 . S
H5205 C5201 0.950 . S
H5206 C5203 0.950 . S
C5207 C5198 1.390 . S
C5207 H5200 0.950 . S
C5207 C5204 1.387 . S
C5208 C5209 1.363 1_455 S
C5208 H5212 0.926 1_455 S
C5208 C5217 1.492 . S
C5209 C5208 1.363 1_655 S
C5209 C5211 1.363 1_655 S
H5210 C5217 0.927 1_556 S
C5211 C5209 1.363 1_455 S
C5211 C5213 1.492 . S
C5211 H5215 0.926 1_455 S
H5212 C5208 0.926 1_655 S
C5213 C5211 1.492 . S
C5213 C5214 1.365 1_554 S
C5213 H5216 0.927 1_554 S
C5214 C5213 1.365 1_556 S
C5214 C5217 1.365 1_556 S
H5215 C5211 0.926 1_655 S
H5216 C5213 0.927 1_556 S
C5217 C5208 1.492 . S
C5217 H5210 0.927 1_554 S
C5217 C5214 1.365 1_554 S
C5218 C5219 1.387 . S
C5218 H5222 0.950 . S
C5218 C5227 1.390 . S
C5219 C5218 1.387 . S
C5219 C5221 1.387 . S
H5220 C5227 0.950 . S
C5221 C5219 1.387 . S
C5221 C5223 1.390 . S
C5221 H5225 0.950 . S
H5222 C5218 0.950 . S
C5223 C5221 1.390 . S
C5223 C5224 1.387 . S
C5223 H5226 0.950 . S
C5224 C5223 1.387 . S
C5224 C5227 1.387 . S
H5225 C5221 0.950 . S
H5226 C5223 0.950 . S
C5227 C5218 1.390 . S
C5227 H5220 0.950 . S
C5227 C5224 1.387 . S
C5228 C5229 1.387 . S
C5228 H5232 0.950 . S
C5228 C5237 1.390 . S
C5229 C5228 1.387 . S
C5229 C5231 1.387 . S
H5230 C5237 0.950 . S
C5231 C5229 1.387 . S
C5231 C5233 1.390 . S
C5231 H5235 0.950 . S
H5232 C5228 0.950 . S
C5233 C5231 1.390 . S
C5233 C5234 1.387 . S
C5233 H5236 0.950 . S
C5234 C5233 1.387 . S
C5234 C5237 1.387 . S
H5235 C5231 0.950 . S
H5236 C5233 0.950 . S
C5237 C5228 1.390 . S
C5237 H5230 0.950 . S
C5237 C5234 1.387 . S
C5238 C5239 1.387 . S
C5238 H5242 0.950 . S
C5238 C5247 1.390 . S
C5239 C5238 1.387 . S
C5239 C5241 1.387 . S
H5240 C5247 0.950 . S
C5241 C5239 1.387 . S
C5241 C5243 1.390 . S
C5241 H5245 0.950 . S
H5242 C5238 0.950 . S
C5243 C5241 1.390 . S
C5243 C5244 1.387 . S
C5243 H5246 0.950 . S
C5244 C5243 1.387 . S
C5244 C5247 1.387 . S
H5245 C5241 0.950 . S
H5246 C5243 0.950 . S
C5247 C5238 1.390 . S
C5247 H5240 0.950 . S
C5247 C5244 1.387 . S
C5248 C5249 1.387 . S
C5248 H5252 0.950 . S
C5248 C5257 1.390 . S
C5249 C5248 1.387 . S
C5249 C5251 1.387 . S
H5250 C5257 0.950 . S
C5251 C5249 1.387 . S
C5251 C5253 1.390 . S
C5251 H5255 0.950 . S
H5252 C5248 0.950 . S
C5253 C5251 1.390 . S
C5253 C5254 1.387 . S
C5253 H5256 0.950 . S
C5254 C5253 1.387 . S
C5254 C5257 1.387 . S
H5255 C5251 0.950 . S
H5256 C5253 0.950 . S
C5257 C5248 1.390 . S
C5257 H5250 0.950 . S
C5257 C5254 1.387 . S
C5258 C5259 1.363 1_655 S
C5258 H5262 0.926 1_655 S
C5258 C5267 1.444 . S
C5259 C5258 1.363 1_455 S
C5259 C5261 1.363 1_455 S
H5260 C5267 0.950 . S
C5261 C5259 1.363 1_655 S
C5261 C5263 1.444 . S
C5261 H5265 0.926 1_655 S
H5262 C5258 0.926 1_455 S
C5263 C5261 1.444 . S
C5263 C5264 1.387 . S
C5263 H5266 0.950 . S
C5264 C5263 1.387 . S
C5264 C5267 1.387 . S
H5265 C5261 0.926 1_455 S
H5266 C5263 0.950 . S
C5267 C5258 1.444 . S
C5267 H5260 0.950 . S
C5267 C5264 1.387 . S
C5268 C5269 1.387 . S
C5268 H5272 0.950 . S
C5268 C5277 1.390 . S
C5269 C5268 1.387 . S
C5269 C5271 1.387 . S
H5270 C5277 0.950 . S
C5271 C5269 1.387 . S
C5271 C5273 1.390 . S
C5271 H5275 0.950 . S
H5272 C5268 0.950 . S
C5273 C5271 1.390 . S
C5273 C5274 1.387 . S
C5273 H5276 0.950 . S
C5274 C5273 1.387 . S
C5274 C5277 1.387 . S
H5275 C5271 0.950 . S
H5276 C5273 0.950 . S
C5277 C5268 1.390 . S
C5277 H5270 0.950 . S
C5277 C5274 1.387 . S
C5278 C5279 1.363 1_655 S
C5278 H5282 0.926 1_655 S
C5278 C5287 1.492 . S
C5279 C5278 1.363 1_455 S
C5279 C5281 1.363 1_455 S
H5280 C5287 0.927 1_545 S
C5281 C5279 1.363 1_655 S
C5281 C5283 1.492 . S
C5281 H5285 0.926 1_655 S
H5282 C5278 0.926 1_455 S
C5283 C5281 1.492 . S
C5283 C5284 1.365 1_565 S
C5283 H5286 0.927 1_565 S
C5284 C5283 1.365 1_545 S
C5284 C5287 1.365 1_545 S
H5285 C5281 0.926 1_455 S
H5286 C5283 0.927 1_545 S
C5287 C5278 1.492 . S
C5287 H5280 0.927 1_565 S
C5287 C5284 1.365 1_565 S
C5288 C5289 1.387 . S
C5288 H5292 0.950 . S
C5288 C5297 1.390 . S
C5289 C5288 1.387 . S
C5289 C5291 1.387 . S
H5290 C5297 0.950 . S
C5291 C5289 1.387 . S
C5291 C5293 1.390 . S
C5291 H5295 0.950 . S
H5292 C5288 0.950 . S
C5293 C5291 1.390 . S
C5293 C5294 1.387 . S
C5293 H5296 0.950 . S
C5294 C5293 1.387 . S
C5294 C5297 1.387 . S
H5295 C5291 0.950 . S
H5296 C5293 0.950 . S
C5297 C5288 1.390 . S
C5297 H5290 0.950 . S
C5297 C5294 1.387 . S
C5298 C5299 1.387 . S
C5298 H5302 0.950 . S
C5298 C5307 1.444 . S
C5299 C5298 1.387 . S
C5299 C5301 1.387 . S
H5300 C5307 0.926 1_554 S
C5301 C5299 1.387 . S
C5301 C5303 1.444 . S
C5301 H5305 0.950 . S
H5302 C5298 0.950 . S
C5303 C5301 1.444 . S
C5303 C5304 1.363 1_556 S
C5303 H5306 0.926 1_556 S
C5304 C5303 1.363 1_554 S
C5304 C5307 1.363 1_554 S
H5305 C5301 0.950 . S
H5306 C5303 0.926 1_554 S
C5307 C5298 1.444 . S
C5307 H5300 0.926 1_556 S
C5307 C5304 1.363 1_556 S
C5308 C5309 1.365 1_556 S
C5308 H5312 0.927 1_556 S
C5308 C5317 1.440 . S
C5309 C5308 1.365 1_554 S
C5309 C5311 1.365 1_554 S
H5310 C5317 0.950 . S
C5311 C5309 1.365 1_556 S
C5311 C5313 1.440 . S
C5311 H5315 0.927 1_556 S
H5312 C5308 0.927 1_554 S
C5313 C5311 1.440 . S
C5313 C5314 1.387 . S
C5313 H5316 0.950 . S
C5314 C5313 1.387 . S
C5314 C5317 1.387 . S
H5315 C5311 0.927 1_554 S
H5316 C5313 0.950 . S
C5317 C5308 1.440 . S
C5317 H5310 0.950 . S
C5317 C5314 1.387 . S
C5318 C5319 1.387 . S
C5318 H5322 0.950 . S
C5318 C5327 1.390 . S
C5319 C5318 1.387 . S
C5319 C5321 1.387 . S
H5320 C5327 0.950 . S
C5321 C5319 1.387 . S
C5321 C5323 1.390 . S
C5321 H5325 0.950 . S
H5322 C5318 0.950 . S
C5323 C5321 1.390 . S
C5323 C5324 1.387 . S
C5323 H5326 0.950 . S
C5324 C5323 1.387 . S
C5324 C5327 1.387 . S
H5325 C5321 0.950 . S
H5326 C5323 0.950 . S
C5327 C5318 1.390 . S
C5327 H5320 0.950 . S
C5327 C5324 1.387 . S
C5328 C5329 1.387 . S
C5328 H5332 0.950 . S
C5328 C5337 1.440 . S
C5329 C5328 1.387 . S
C5329 C5331 1.387 . S
H5330 C5337 0.927 1_565 S
C5331 C5329 1.387 . S
C5331 C5333 1.440 . S
C5331 H5335 0.950 . S
H5332 C5328 0.950 . S
C5333 C5331 1.440 . S
C5333 C5334 1.365 1_545 S
C5333 H5336 0.927 1_545 S
C5334 C5333 1.365 1_565 S
C5334 C5337 1.365 1_565 S
H5335 C5331 0.950 . S
H5336 C5333 0.927 1_565 S
C5337 C5328 1.440 . S
C5337 H5330 0.927 1_545 S
C5337 C5334 1.365 1_545 S
C5338 C5339 1.387 . S
C5338 H5342 0.950 . S
C5338 C5347 1.390 . S
C5339 C5338 1.387 . S
C5339 C5341 1.387 . S
H5340 C5347 0.950 . S
C5341 C5339 1.387 . S
C5341 C5343 1.390 . S
C5341 H5345 0.950 . S
H5342 C5338 0.950 . S
C5343 C5341 1.390 . S
C5343 C5344 1.387 . S
C5343 H5346 0.950 . S
C5344 C5343 1.387 . S
C5344 C5347 1.387 . S
H5345 C5341 0.950 . S
H5346 C5343 0.950 . S
C5347 C5338 1.390 . S
C5347 H5340 0.950 . S
C5347 C5344 1.387 . S
C5348 C5349 1.387 . S
C5348 H5352 0.950 . S
C5348 C5357 1.390 . S
C5349 C5348 1.387 . S
C5349 C5351 1.387 . S
H5350 C5357 0.950 . S
C5351 C5349 1.387 . S
C5351 C5353 1.390 . S
C5351 H5355 0.950 . S
H5352 C5348 0.950 . S
C5353 C5351 1.390 . S
C5353 C5354 1.387 . S
C5353 H5356 0.950 . S
C5354 C5353 1.387 . S
C5354 C5357 1.387 . S
H5355 C5351 0.950 . S
H5356 C5353 0.950 . S
C5357 C5348 1.390 . S
C5357 H5350 0.950 . S
C5357 C5354 1.387 . S
C5358 C5359 1.363 1_554 S
C5358 H5362 0.926 1_554 S
C5358 C5367 1.492 . S
C5359 C5358 1.363 1_556 S
C5359 C5361 1.363 1_556 S
H5360 C5367 0.927 1_565 S
C5361 C5359 1.363 1_554 S
C5361 C5363 1.492 . S
C5361 H5365 0.926 1_554 S
H5362 C5358 0.926 1_556 S
C5363 C5361 1.492 . S
C5363 C5364 1.365 1_545 S
C5363 H5366 0.927 1_545 S
C5364 C5363 1.365 1_565 S
C5364 C5367 1.365 1_565 S
H5365 C5361 0.926 1_556 S
H5366 C5363 0.927 1_565 S
C5367 C5358 1.492 . S
C5367 H5360 0.927 1_545 S
C5367 C5364 1.365 1_545 S
C5368 C5369 1.387 . S
C5368 H5372 0.950 . S
C5368 C5377 1.390 . S
C5369 C5368 1.387 . S
C5369 C5371 1.387 . S
H5370 C5377 0.950 . S
C5371 C5369 1.387 . S
C5371 C5373 1.390 . S
C5371 H5375 0.950 . S
H5372 C5368 0.950 . S
C5373 C5371 1.390 . S
C5373 C5374 1.387 . S
C5373 H5376 0.950 . S
C5374 C5373 1.387 . S
C5374 C5377 1.387 . S
H5375 C5371 0.950 . S
H5376 C5373 0.950 . S
C5377 C5368 1.390 . S
C5377 H5370 0.950 . S
C5377 C5374 1.387 . S
C5378 C5379 1.387 . S
C5378 H5382 0.950 . S
C5378 C5387 1.390 . S
C5379 C5378 1.387 . S
C5379 C5381 1.387 . S
H5380 C5387 0.950 . S
C5381 C5379 1.387 . S
C5381 C5383 1.390 . S
C5381 H5385 0.950 . S
H5382 C5378 0.950 . S
C5383 C5381 1.390 . S
C5383 C5384 1.387 . S
C5383 H5386 0.950 . S
C5384 C5383 1.387 . S
C5384 C5387 1.387 . S
H5385 C5381 0.950 . S
H5386 C5383 0.950 . S
C5387 C5378 1.390 . S
C5387 H5380 0.950 . S
C5387 C5384 1.387 . S
C5388 C5389 1.387 . S
C5388 H5392 0.950 . S
C5388 C5397 1.390 . S
C5389 C5388 1.387 . S
C5389 C5391 1.387 . S
H5390 C5397 0.950 . S
C5391 C5389 1.387 . S
C5391 C5393 1.390 . S
C5391 H5395 0.950 . S
H5392 C5388 0.950 . S
C5393 C5391 1.390 . S
C5393 C5394 1.387 . S
C5393 H5396 0.950 . S
C5394 C5393 1.387 . S
C5394 C5397 1.387 . S
H5395 C5391 0.950 . S
H5396 C5393 0.950 . S
C5397 C5388 1.390 . S
C5397 H5390 0.950 . S
C5397 C5394 1.387 . S
C5398 C5399 1.365 1_565 S
C5398 H5402 0.927 1_565 S
C5398 C5407 1.440 . S
C5399 C5398 1.365 1_545 S
C5399 C5401 1.365 1_545 S
H5400 C5407 0.950 . S
C5401 C5399 1.365 1_565 S
C5401 C5403 1.440 . S
C5401 H5405 0.927 1_565 S
H5402 C5398 0.927 1_545 S
C5403 C5401 1.440 . S
C5403 C5404 1.387 . S
C5403 H5406 0.950 . S
C5404 C5403 1.387 . S
C5404 C5407 1.387 . S
H5405 C5401 0.927 1_545 S
H5406 C5403 0.950 . S
C5407 C5398 1.440 . S
C5407 H5400 0.950 . S
C5407 C5404 1.387 . S
C5408 C5409 1.387 . S
C5408 H5412 0.950 . S
C5408 C5417 1.390 . S
C5409 C5408 1.387 . S
C5409 C5411 1.387 . S
H5410 C5417 0.950 . S
C5411 C5409 1.387 . S
C5411 C5413 1.390 . S
C5411 H5415 0.950 . S
H5412 C5408 0.950 . S
C5413 C5411 1.390 . S
C5413 C5414 1.387 . S
C5413 H5416 0.950 . S
C5414 C5413 1.387 . S
C5414 C5417 1.387 . S
H5415 C5411 0.950 . S
H5416 C5413 0.950 . S
C5417 C5408 1.390 . S
C5417 H5410 0.950 . S
C5417 C5414 1.387 . S
C5418 C5419 1.387 . S
C5418 H5422 0.950 . S
C5418 C5427 1.440 . S
C5419 C5418 1.387 . S
C5419 C5421 1.387 . S
H5420 C5427 0.927 1_545 S
C5421 C5419 1.387 . S
C5421 C5423 1.440 . S
C5421 H5425 0.950 . S
H5422 C5418 0.950 . S
C5423 C5421 1.440 . S
C5423 C5424 1.365 1_565 S
C5423 H5426 0.927 1_565 S
C5424 C5423 1.365 1_545 S
C5424 C5427 1.365 1_545 S
H5425 C5421 0.950 . S
H5426 C5423 0.927 1_545 S
C5427 C5418 1.440 . S
C5427 H5420 0.927 1_565 S
C5427 C5424 1.365 1_565 S
C5428 C5429 1.387 . S
C5428 H5432 0.950 . S
C5428 C5437 1.390 . S
C5429 C5428 1.387 . S
C5429 C5431 1.387 . S
H5430 C5437 0.950 . S
C5431 C5429 1.387 . S
C5431 C5433 1.390 . S
C5431 H5435 0.950 . S
H5432 C5428 0.950 . S
C5433 C5431 1.390 . S
C5433 C5434 1.387 . S
C5433 H5436 0.950 . S
C5434 C5433 1.387 . S
C5434 C5437 1.387 . S
H5435 C5431 0.950 . S
H5436 C5433 0.950 . S
C5437 C5428 1.390 . S
C5437 H5430 0.950 . S
C5437 C5434 1.387 . S
C5438 C5439 1.387 . S
C5438 H5442 0.950 . S
C5438 C5447 1.390 . S
C5439 C5438 1.387 . S
C5439 C5441 1.387 . S
H5440 C5447 0.950 . S
C5441 C5439 1.387 . S
C5441 C5443 1.390 . S
C5441 H5445 0.950 . S
H5442 C5438 0.950 . S
C5443 C5441 1.390 . S
C5443 C5444 1.387 . S
C5443 H5446 0.950 . S
C5444 C5443 1.387 . S
C5444 C5447 1.387 . S
H5445 C5441 0.950 . S
H5446 C5443 0.950 . S
C5447 C5438 1.390 . S
C5447 H5440 0.950 . S
C5447 C5444 1.387 . S
C5448 C5449 1.387 . S
C5448 H5452 0.950 . S
C5448 C5457 1.390 . S
C5449 C5448 1.387 . S
C5449 C5451 1.387 . S
H5450 C5457 0.950 . S
C5451 C5449 1.387 . S
C5451 C5453 1.390 . S
C5451 H5455 0.950 . S
H5452 C5448 0.950 . S
C5453 C5451 1.390 . S
C5453 C5454 1.387 . S
C5453 H5456 0.950 . S
C5454 C5453 1.387 . S
C5454 C5457 1.387 . S
H5455 C5451 0.950 . S
H5456 C5453 0.950 . S
C5457 C5448 1.390 . S
C5457 H5450 0.950 . S
C5457 C5454 1.387 . S
C5458 C5459 1.363 1_565 S
C5458 H5462 0.926 1_565 S
C5458 C5467 1.493 . S
C5459 C5458 1.363 1_545 S
C5459 C5461 1.363 1_545 S
H5460 C5467 0.927 1_554 S
C5461 C5459 1.363 1_565 S
C5461 C5463 1.492 . S
C5461 H5465 0.926 1_565 S
H5462 C5458 0.926 1_545 S
C5463 C5461 1.492 . S
C5463 C5464 1.365 1_556 S
C5463 H5466 0.927 1_556 S
C5464 C5463 1.365 1_554 S
C5464 C5467 1.365 1_554 S
H5465 C5461 0.926 1_545 S
H5466 C5463 0.927 1_554 S
C5467 C5458 1.493 . S
C5467 H5460 0.927 1_556 S
C5467 C5464 1.365 1_556 S
C5468 C5469 1.387 . S
C5468 H5472 0.950 . S
C5468 C5477 1.390 . S
C5469 C5468 1.387 . S
C5469 C5471 1.387 . S
H5470 C5477 0.950 . S
C5471 C5469 1.387 . S
C5471 C5473 1.390 . S
C5471 H5475 0.950 . S
H5472 C5468 0.950 . S
C5473 C5471 1.390 . S
C5473 C5474 1.387 . S
C5473 H5476 0.950 . S
C5474 C5473 1.387 . S
C5474 C5477 1.387 . S
H5475 C5471 0.950 . S
H5476 C5473 0.950 . S
C5477 C5468 1.390 . S
C5477 H5470 0.950 . S
C5477 C5474 1.387 . S
C5478 C5479 1.365 1_545 S
C5478 H5482 0.927 1_545 S
C5478 C5487 1.440 . S
C5479 C5478 1.365 1_565 S
C5479 C5481 1.365 1_565 S
H5480 C5487 0.950 . S
C5481 C5479 1.365 1_545 S
C5481 C5483 1.440 . S
C5481 H5485 0.927 1_545 S
H5482 C5478 0.927 1_565 S
C5483 C5481 1.440 . S
C5483 C5484 1.387 . S
C5483 H5486 0.950 . S
C5484 C5483 1.387 . S
C5484 C5487 1.387 . S
H5485 C5481 0.927 1_565 S
H5486 C5483 0.950 . S
C5487 C5478 1.440 . S
C5487 H5480 0.950 . S
C5487 C5484 1.387 . S
C5488 C5489 1.387 . S
C5488 H5492 0.950 . S
C5488 C5497 1.390 . S
C5489 C5488 1.387 . S
C5489 C5491 1.387 . S
H5490 C5497 0.950 . S
C5491 C5489 1.387 . S
C5491 C5493 1.390 . S
C5491 H5495 0.950 . S
H5492 C5488 0.950 . S
C5493 C5491 1.390 . S
C5493 C5494 1.387 . S
C5493 H5496 0.950 . S
C5494 C5493 1.387 . S
C5494 C5497 1.387 . S
H5495 C5491 0.950 . S
H5496 C5493 0.950 . S
C5497 C5488 1.390 . S
C5497 H5490 0.950 . S
C5497 C5494 1.387 . S
C5498 C5499 1.387 . S
C5498 H5502 0.950 . S
C5498 C5507 1.390 . S
C5499 C5498 1.387 . S
C5499 C5501 1.387 . S
H5500 C5507 0.950 . S
C5501 C5499 1.387 . S
C5501 C5503 1.390 . S
C5501 H5505 0.950 . S
H5502 C5498 0.950 . S
C5503 C5501 1.390 . S
C5503 C5504 1.387 . S
C5503 H5506 0.950 . S
C5504 C5503 1.387 . S
C5504 C5507 1.387 . S
H5505 C5501 0.950 . S
H5506 C5503 0.950 . S
C5507 C5498 1.390 . S
C5507 H5500 0.950 . S
C5507 C5504 1.387 . S
C5508 C5509 1.387 . S
C5508 H5512 0.950 . S
C5508 C5517 1.390 . S
C5509 C5508 1.387 . S
C5509 C5511 1.387 . S
H5510 C5517 0.950 . S
C5511 C5509 1.387 . S
C5511 C5513 1.390 . S
C5511 H5515 0.950 . S
H5512 C5508 0.950 . S
C5513 C5511 1.390 . S
C5513 C5514 1.387 . S
C5513 H5516 0.950 . S
C5514 C5513 1.387 . S
C5514 C5517 1.387 . S
H5515 C5511 0.950 . S
H5516 C5513 0.950 . S
C5517 C5508 1.390 . S
C5517 H5510 0.950 . S
C5517 C5514 1.387 . S
C5518 C5519 1.363 1_554 S
C5518 H5522 0.926 1_554 S
C5518 C5527 1.444 . S
C5519 C5518 1.363 1_556 S
C5519 C5521 1.363 1_556 S
H5520 C5527 0.950 . S
C5521 C5519 1.363 1_554 S
C5521 C5523 1.444 . S
C5521 H5525 0.926 1_554 S
H5522 C5518 0.926 1_556 S
C5523 C5521 1.444 . S
C5523 C5524 1.387 . S
C5523 H5526 0.950 . S
C5524 C5523 1.387 . S
C5524 C5527 1.387 . S
H5525 C5521 0.926 1_556 S
H5526 C5523 0.950 . S
C5527 C5518 1.444 . S
C5527 H5520 0.950 . S
C5527 C5524 1.387 . S
C5528 C5529 1.387 . S
C5528 H5532 0.950 . S
C5528 C5537 1.390 . S
C5529 C5528 1.387 . S
C5529 C5531 1.387 . S
H5530 C5537 0.950 . S
C5531 C5529 1.387 . S
C5531 C5533 1.390 . S
C5531 H5535 0.950 . S
H5532 C5528 0.950 . S
C5533 C5531 1.390 . S
C5533 C5534 1.387 . S
C5533 H5536 0.950 . S
C5534 C5533 1.387 . S
C5534 C5537 1.387 . S
H5535 C5531 0.950 . S
H5536 C5533 0.950 . S
C5537 C5528 1.390 . S
C5537 H5530 0.950 . S
C5537 C5534 1.387 . S
C5538 C5539 1.387 . S
C5538 H5542 0.950 . S
C5538 C5547 1.390 . S
C5539 C5538 1.387 . S
C5539 C5541 1.387 . S
H5540 C5547 0.950 . S
C5541 C5539 1.387 . S
C5541 C5543 1.390 . S
C5541 H5545 0.950 . S
H5542 C5538 0.950 . S
C5543 C5541 1.390 . S
C5543 C5544 1.387 . S
C5543 H5546 0.950 . S
C5544 C5543 1.387 . S
C5544 C5547 1.387 . S
H5545 C5541 0.950 . S
H5546 C5543 0.950 . S
C5547 C5538 1.390 . S
C5547 H5540 0.950 . S
C5547 C5544 1.387 . S
C5548 C5549 1.387 . S
C5548 H5552 0.950 . S
C5548 C5557 1.390 . S
C5549 C5548 1.387 . S
C5549 C5551 1.387 . S
H5550 C5557 0.950 . S
C5551 C5549 1.387 . S
C5551 C5553 1.390 . S
C5551 H5555 0.950 . S
H5552 C5548 0.950 . S
C5553 C5551 1.390 . S
C5553 C5554 1.387 . S
C5553 H5556 0.950 . S
C5554 C5553 1.387 . S
C5554 C5557 1.387 . S
H5555 C5551 0.950 . S
H5556 C5553 0.950 . S
C5557 C5548 1.390 . S
C5557 H5550 0.950 . S
C5557 C5554 1.387 . S
C5558 C5559 1.387 . S
C5558 H5562 0.950 . S
C5558 C5567 1.440 . S
C5559 C5558 1.387 . S
C5559 C5561 1.387 . S
H5560 C5567 0.927 1_554 S
C5561 C5559 1.387 . S
C5561 C5563 1.440 . S
C5561 H5565 0.950 . S
H5562 C5558 0.950 . S
C5563 C5561 1.440 . S
C5563 C5564 1.365 1_556 S
C5563 H5566 0.927 1_556 S
C5564 C5563 1.365 1_554 S
C5564 C5567 1.365 1_554 S
H5565 C5561 0.950 . S
H5566 C5563 0.927 1_554 S
C5567 C5558 1.440 . S
C5567 H5560 0.927 1_556 S
C5567 C5564 1.365 1_556 S
C5568 C5569 1.387 . S
C5568 H5572 0.950 . S
C5568 C5577 1.390 . S
C5569 C5568 1.387 . S
C5569 C5571 1.387 1_655 S
H5570 C5577 0.950 . S
C5571 C5569 1.387 1_455 S
C5571 C5573 1.390 . S
C5571 H5575 0.950 . S
H5572 C5568 0.950 . S
C5573 C5571 1.390 . S
C5573 C5574 1.387 . S
C5573 H5576 0.950 . S
C5574 C5573 1.387 . S
C5574 C5577 1.387 1_455 S
H5575 C5571 0.950 . S
H5576 C5573 0.950 . S
C5577 C5568 1.390 . S
C5577 H5570 0.950 . S
C5577 C5574 1.387 1_655 S
C5578 C5579 1.387 . S
C5578 H5582 0.950 . S
C5578 C5587 1.390 . S
C5579 C5578 1.387 . S
C5579 C5581 1.387 . S
H5580 C5587 0.950 . S
C5581 C5579 1.387 . S
C5581 C5583 1.390 . S
C5581 H5585 0.950 . S
H5582 C5578 0.950 . S
C5583 C5581 1.390 . S
C5583 C5584 1.387 . S
C5583 H5586 0.950 . S
C5584 C5583 1.387 . S
C5584 C5587 1.387 . S
H5585 C5581 0.950 . S
H5586 C5583 0.950 . S
C5587 C5578 1.390 . S
C5587 H5580 0.950 . S
C5587 C5584 1.387 . S
C5588 C5589 1.387 . S
C5588 H5592 0.950 . S
C5588 C5597 1.390 . S
C5589 C5588 1.387 . S
C5589 C5591 1.387 . S
H5590 C5597 0.950 . S
C5591 C5589 1.387 . S
C5591 C5593 1.390 . S
C5591 H5595 0.950 . S
H5592 C5588 0.950 . S
C5593 C5591 1.390 . S
C5593 C5594 1.387 . S
C5593 H5596 0.950 . S
C5594 C5593 1.387 . S
C5594 C5597 1.387 . S
H5595 C5591 0.950 . S
H5596 C5593 0.950 . S
C5597 C5588 1.390 . S
C5597 H5590 0.950 . S
C5597 C5594 1.387 . S
C5598 C5599 1.387 1_565 S
C5598 H5602 0.950 . S
C5598 C5607 1.390 . S
C5599 C5598 1.387 1_545 S
C5599 C5601 1.387 . S
H5600 C5607 0.950 . S
C5601 C5599 1.387 . S
C5601 C5603 1.390 . S
C5601 H5605 0.950 . S
H5602 C5598 0.950 . S
C5603 C5601 1.390 . S
C5603 C5604 1.387 1_545 S
C5603 H5606 0.950 . S
C5604 C5603 1.387 1_565 S
C5604 C5607 1.387 . S
H5605 C5601 0.950 . S
H5606 C5603 0.950 . S
C5607 C5598 1.390 . S
C5607 H5600 0.950 . S
C5607 C5604 1.387 . S
C5608 C5609 1.387 . S
C5608 H5612 0.950 . S
C5608 C5617 1.390 . S
C5609 C5608 1.387 . S
C5609 C5611 1.387 1_455 S
H5610 C5617 0.950 . S
C5611 C5609 1.387 1_655 S
C5611 C5613 1.390 . S
C5611 H5615 0.950 . S
H5612 C5608 0.950 . S
C5613 C5611 1.390 . S
C5613 C5614 1.387 . S
C5613 H5616 0.950 . S
C5614 C5613 1.387 . S
C5614 C5617 1.387 1_655 S
H5615 C5611 0.950 . S
H5616 C5613 0.950 . S
C5617 C5608 1.390 . S
C5617 H5610 0.950 . S
C5617 C5614 1.387 1_455 S
C5618 C5619 1.387 . S
C5618 H5622 0.950 . S
C5618 C5627 1.390 . S
C5619 C5618 1.387 . S
C5619 C5621 1.387 . S
H5620 C5627 0.950 . S
C5621 C5619 1.387 . S
C5621 C5623 1.390 . S
C5621 H5625 0.950 . S
H5622 C5618 0.950 . S
C5623 C5621 1.390 . S
C5623 C5624 1.387 . S
C5623 H5626 0.950 . S
C5624 C5623 1.387 . S
C5624 C5627 1.387 . S
H5625 C5621 0.950 . S
H5626 C5623 0.950 . S
C5627 C5618 1.390 . S
C5627 H5620 0.950 . S
C5627 C5624 1.387 . S
C5628 C5629 1.387 . S
C5628 H5632 0.950 . S
C5628 C5637 1.390 . S
C5629 C5628 1.387 . S
C5629 C5631 1.387 . S
H5630 C5637 0.950 . S
C5631 C5629 1.387 . S
C5631 C5633 1.390 . S
C5631 H5635 0.950 . S
H5632 C5628 0.950 . S
C5633 C5631 1.390 . S
C5633 C5634 1.387 . S
C5633 H5636 0.950 . S
C5634 C5633 1.387 . S
C5634 C5637 1.387 . S
H5635 C5631 0.950 . S
H5636 C5633 0.950 . S
C5637 C5628 1.390 . S
C5637 H5630 0.950 . S
C5637 C5634 1.387 . S
C5638 C5639 1.387 1_545 S
C5638 H5642 0.950 . S
C5638 C5647 1.390 . S
C5639 C5638 1.387 1_565 S
C5639 C5641 1.387 . S
H5640 C5647 0.950 . S
C5641 C5639 1.387 . S
C5641 C5643 1.390 . S
C5641 H5645 0.950 . S
H5642 C5638 0.950 . S
C5643 C5641 1.390 . S
C5643 C5644 1.387 1_565 S
C5643 H5646 0.950 . S
C5644 C5643 1.387 1_545 S
C5644 C5647 1.387 . S
H5645 C5641 0.950 . S
H5646 C5643 0.950 . S
C5647 C5638 1.390 . S
C5647 H5640 0.950 . S
C5647 C5644 1.387 . S
C5648 C5649 1.387 1_545 S
C5648 H5652 0.950 . S
C5648 C5657 1.390 . S
C5649 C5648 1.387 1_565 S
C5649 C5651 1.387 . S
H5650 C5657 0.950 . S
C5651 C5649 1.387 . S
C5651 C5653 1.390 . S
C5651 H5655 0.950 . S
H5652 C5648 0.950 . S
C5653 C5651 1.390 . S
C5653 C5654 1.387 1_565 S
C5653 H5656 0.950 . S
C5654 C5653 1.387 1_545 S
C5654 C5657 1.387 . S
H5655 C5651 0.950 . S
H5656 C5653 0.950 . S
C5657 C5648 1.390 . S
C5657 H5650 0.950 . S
C5657 C5654 1.387 . S
C5658 C5659 1.387 . S
C5658 H5662 0.950 . S
C5658 C5667 1.390 1_455 S
C5659 C5658 1.387 . S
C5659 C5661 1.387 . S
H5660 C5667 0.950 . S
C5661 C5659 1.387 . S
C5661 C5663 1.390 1_455 S
C5661 H5665 0.950 . S
H5662 C5658 0.950 . S
C5663 C5661 1.390 1_655 S
C5663 C5664 1.387 . S
C5663 H5666 0.950 . S
C5664 C5663 1.387 . S
C5664 C5667 1.387 . S
H5665 C5661 0.950 . S
H5666 C5663 0.950 . S
C5667 C5658 1.390 1_655 S
C5667 H5660 0.950 . S
C5667 C5664 1.387 . S
C5668 C5669 1.387 . S
C5668 H5672 0.950 . S
C5668 C5677 1.390 . S
C5669 C5668 1.387 . S
C5669 C5671 1.387 . S
H5670 C5677 0.950 . S
C5671 C5669 1.387 . S
C5671 C5673 1.390 . S
C5671 H5675 0.950 . S
H5672 C5668 0.950 . S
C5673 C5671 1.390 . S
C5673 C5674 1.387 . S
C5673 H5676 0.950 . S
C5674 C5673 1.387 . S
C5674 C5677 1.387 . S
H5675 C5671 0.950 . S
H5676 C5673 0.950 . S
C5677 C5668 1.390 . S
C5677 H5670 0.950 . S
C5677 C5674 1.387 . S
C5678 C5679 1.387 . S
C5678 H5682 0.950 . S
C5678 C5687 1.390 . S
C5679 C5678 1.387 . S
C5679 C5681 1.387 . S
H5680 C5687 0.950 . S
C5681 C5679 1.387 . S
C5681 C5683 1.390 . S
C5681 H5685 0.950 . S
H5682 C5678 0.950 . S
C5683 C5681 1.390 . S
C5683 C5684 1.387 . S
C5683 H5686 0.950 . S
C5684 C5683 1.387 . S
C5684 C5687 1.387 . S
H5685 C5681 0.950 . S
H5686 C5683 0.950 . S
C5687 C5678 1.390 . S
C5687 H5680 0.950 . S
C5687 C5684 1.387 . S
C5688 C5689 1.387 . S
C5688 H5692 0.950 . S
C5688 C5697 1.390 . S
C5689 C5688 1.387 . S
C5689 C5691 1.387 . S
H5690 C5697 0.950 . S
C5691 C5689 1.387 . S
C5691 C5693 1.390 . S
C5691 H5695 0.950 . S
H5692 C5688 0.950 . S
C5693 C5691 1.390 . S
C5693 C5694 1.387 . S
C5693 H5696 0.950 . S
C5694 C5693 1.387 . S
C5694 C5697 1.387 . S
H5695 C5691 0.950 . S
H5696 C5693 0.950 . S
C5697 C5688 1.390 . S
C5697 H5690 0.950 . S
C5697 C5694 1.387 . S
C5698 C5699 1.387 . S
C5698 H5702 0.950 . S
C5698 C5707 1.390 . S
C5699 C5698 1.387 . S
C5699 C5701 1.387 . S
H5700 C5707 0.950 . S
C5701 C5699 1.387 . S
C5701 C5703 1.390 . S
C5701 H5705 0.950 . S
H5702 C5698 0.950 . S
C5703 C5701 1.390 . S
C5703 C5704 1.387 . S
C5703 H5706 0.950 . S
C5704 C5703 1.387 . S
C5704 C5707 1.387 . S
H5705 C5701 0.950 . S
H5706 C5703 0.950 . S
C5707 C5698 1.390 . S
C5707 H5700 0.950 . S
C5707 C5704 1.387 . S
C5708 C5709 1.387 . S
C5708 H5712 0.950 . S
C5708 C5717 1.390 . S
C5709 C5708 1.387 . S
C5709 C5711 1.387 1_565 S
H5710 C5717 0.950 . S
C5711 C5709 1.387 1_545 S
C5711 C5713 1.390 . S
C5711 H5715 0.950 . S
H5712 C5708 0.950 . S
C5713 C5711 1.390 . S
C5713 C5714 1.387 . S
C5713 H5716 0.950 . S
C5714 C5713 1.387 . S
C5714 C5717 1.387 1_545 S
H5715 C5711 0.950 . S
H5716 C5713 0.950 . S
C5717 C5708 1.390 . S
C5717 H5710 0.950 . S
C5717 C5714 1.387 1_565 S
C5718 C5719 1.387 . S
C5718 H5722 0.950 . S
C5718 C5727 1.390 . S
C5719 C5718 1.387 . S
C5719 C5721 1.387 1_655 S
H5720 C5727 0.950 . S
C5721 C5719 1.387 1_455 S
C5721 C5723 1.390 . S
C5721 H5725 0.950 . S
H5722 C5718 0.950 . S
C5723 C5721 1.390 . S
C5723 C5724 1.387 . S
C5723 H5726 0.950 . S
C5724 C5723 1.387 . S
C5724 C5727 1.387 1_455 S
H5725 C5721 0.950 . S
H5726 C5723 0.950 . S
C5727 C5718 1.390 . S
C5727 H5720 0.950 . S
C5727 C5724 1.387 1_655 S
C5728 C5729 1.412 . S
C5728 H5732 0.954 . S
C5728 C5737 1.365 1_556 S
C5729 C5728 1.412 . S
C5729 C5731 1.387 . S
H5730 C5737 0.950 . S
C5731 C5729 1.387 . S
C5731 C5733 1.365 1_556 S
C5731 H5735 0.950 . S
H5732 C5728 0.954 . S
C5733 C5731 1.365 1_554 S
C5733 C5734 1.412 . S
C5733 H5736 0.954 . S
C5734 C5733 1.412 . S
C5734 C5737 1.387 . S
H5735 C5731 0.950 . S
H5736 C5733 0.954 . S
C5737 C5728 1.365 1_554 S
C5737 H5730 0.950 . S
C5737 C5734 1.387 . S
C5738 C5739 1.387 . S
C5738 H5742 0.950 . S
C5738 C5747 1.390 . S
C5739 C5738 1.387 . S
C5739 C5741 1.387 . S
H5740 C5747 0.950 . S
C5741 C5739 1.387 . S
C5741 C5743 1.390 . S
C5741 H5745 0.950 . S
H5742 C5738 0.950 . S
C5743 C5741 1.390 . S
C5743 C5744 1.387 . S
C5743 H5746 0.950 . S
C5744 C5743 1.387 . S
C5744 C5747 1.387 . S
H5745 C5741 0.950 . S
H5746 C5743 0.950 . S
C5747 C5738 1.390 . S
C5747 H5740 0.950 . S
C5747 C5744 1.387 . S
C5748 C5749 1.387 . S
C5748 H5752 0.950 . S
C5748 C5757 1.390 . S
C5749 C5748 1.387 . S
C5749 C5751 1.387 . S
H5750 C5757 0.950 . S
C5751 C5749 1.387 . S
C5751 C5753 1.390 . S
C5751 H5755 0.950 . S
H5752 C5748 0.950 . S
C5753 C5751 1.390 . S
C5753 C5754 1.387 . S
C5753 H5756 0.950 . S
C5754 C5753 1.387 . S
C5754 C5757 1.387 . S
H5755 C5751 0.950 . S
H5756 C5753 0.950 . S
C5757 C5748 1.390 . S
C5757 H5750 0.950 . S
C5757 C5754 1.387 . S
C5758 C5759 1.387 . S
C5758 H5762 0.950 . S
C5758 C5767 1.390 . S
C5759 C5758 1.387 . S
C5759 C5761 1.387 . S
H5760 C5767 0.950 . S
C5761 C5759 1.387 . S
C5761 C5763 1.390 . S
C5761 H5765 0.950 . S
H5762 C5758 0.950 . S
C5763 C5761 1.390 . S
C5763 C5764 1.387 . S
C5763 H5766 0.950 . S
C5764 C5763 1.387 . S
C5764 C5767 1.387 . S
H5765 C5761 0.950 . S
H5766 C5763 0.950 . S
C5767 C5758 1.390 . S
C5767 H5760 0.950 . S
C5767 C5764 1.387 . S
C5768 C5769 1.387 . S
C5768 H5772 0.950 . S
C5768 C5777 1.390 . S
C5769 C5768 1.387 . S
C5769 C5771 1.387 . S
H5770 C5777 0.950 . S
C5771 C5769 1.387 . S
C5771 C5773 1.390 . S
C5771 H5775 0.950 . S
H5772 C5768 0.950 . S
C5773 C5771 1.390 . S
C5773 C5774 1.387 . S
C5773 H5776 0.950 . S
C5774 C5773 1.387 . S
C5774 C5777 1.387 . S
H5775 C5771 0.950 . S
H5776 C5773 0.950 . S
C5777 C5768 1.390 . S
C5777 H5770 0.950 . S
C5777 C5774 1.387 . S
C5778 C5779 1.387 1_554 S
C5778 H5782 0.950 . S
C5778 C5787 1.390 . S
C5779 C5778 1.387 1_556 S
C5779 C5781 1.387 . S
H5780 C5787 0.950 . S
C5781 C5779 1.387 . S
C5781 C5783 1.390 . S
C5781 H5785 0.950 . S
H5782 C5778 0.950 . S
C5783 C5781 1.390 . S
C5783 C5784 1.387 1_556 S
C5783 H5786 0.950 . S
C5784 C5783 1.387 1_554 S
C5784 C5787 1.387 . S
H5785 C5781 0.950 . S
H5786 C5783 0.950 . S
C5787 C5778 1.390 . S
C5787 H5780 0.950 . S
C5787 C5784 1.387 . S
C5788 C5789 1.387 . S
C5788 H5792 0.950 . S
C5788 C5797 1.390 . S
C5789 C5788 1.387 . S
C5789 C5791 1.387 . S
H5790 C5797 0.950 . S
C5791 C5789 1.387 . S
C5791 C5793 1.390 . S
C5791 H5795 0.950 . S
H5792 C5788 0.950 . S
C5793 C5791 1.390 . S
C5793 C5794 1.387 . S
C5793 H5796 0.950 . S
C5794 C5793 1.387 . S
C5794 C5797 1.387 . S
H5795 C5791 0.950 . S
H5796 C5793 0.950 . S
C5797 C5788 1.390 . S
C5797 H5790 0.950 . S
C5797 C5794 1.387 . S
C5798 C5799 1.387 . S
C5798 H5802 0.950 . S
C5798 C5807 1.390 . S
C5799 C5798 1.387 . S
C5799 C5801 1.387 . S
H5800 C5807 0.950 . S
C5801 C5799 1.387 . S
C5801 C5803 1.390 . S
C5801 H5805 0.950 . S
H5802 C5798 0.950 . S
C5803 C5801 1.390 . S
C5803 C5804 1.387 . S
C5803 H5806 0.950 . S
C5804 C5803 1.387 . S
C5804 C5807 1.387 . S
H5805 C5801 0.950 . S
H5806 C5803 0.950 . S
C5807 C5798 1.390 . S
C5807 H5800 0.950 . S
C5807 C5804 1.387 . S
C5808 C5809 1.387 . S
C5808 H5812 0.950 . S
C5808 C5817 1.364 1_455 S
C5809 C5808 1.387 . S
C5809 C5811 1.413 . S
H5810 C5817 0.954 . S
C5811 C5809 1.413 . S
C5811 C5813 1.364 1_455 S
C5811 H5815 0.954 . S
H5812 C5808 0.950 . S
C5813 C5811 1.364 1_655 S
C5813 C5814 1.387 . S
C5813 H5816 0.950 . S
C5814 C5813 1.387 . S
C5814 C5817 1.413 . S
H5815 C5811 0.954 . S
H5816 C5813 0.950 . S
C5817 C5808 1.364 1_655 S
C5817 H5810 0.954 . S
C5817 C5814 1.413 . S
C5818 C5819 1.387 . S
C5818 H5822 0.950 . S
C5818 C5827 1.390 . S
C5819 C5818 1.387 . S
C5819 C5821 1.387 . S
H5820 C5827 0.950 . S
C5821 C5819 1.387 . S
C5821 C5823 1.390 . S
C5821 H5825 0.950 . S
H5822 C5818 0.950 . S
C5823 C5821 1.390 . S
C5823 C5824 1.387 . S
C5823 H5826 0.950 . S
C5824 C5823 1.387 . S
C5824 C5827 1.387 . S
H5825 C5821 0.950 . S
H5826 C5823 0.950 . S
C5827 C5818 1.390 . S
C5827 H5820 0.950 . S
C5827 C5824 1.387 . S
C5828 C5829 1.387 . S
C5828 H5832 0.950 . S
C5828 C5837 1.390 . S
C5829 C5828 1.387 . S
C5829 C5831 1.387 . S
H5830 C5837 0.950 . S
C5831 C5829 1.387 . S
C5831 C5833 1.390 . S
C5831 H5835 0.950 . S
H5832 C5828 0.950 . S
C5833 C5831 1.390 . S
C5833 C5834 1.387 . S
C5833 H5836 0.950 . S
C5834 C5833 1.387 . S
C5834 C5837 1.387 . S
H5835 C5831 0.950 . S
H5836 C5833 0.950 . S
C5837 C5828 1.390 . S
C5837 H5830 0.950 . S
C5837 C5834 1.387 . S
C5838 C5839 1.387 1_565 S
C5838 H5842 0.950 . S
C5838 C5847 1.390 . S
C5839 C5838 1.387 1_545 S
C5839 C5841 1.387 . S
H5840 C5847 0.950 . S
C5841 C5839 1.387 . S
C5841 C5843 1.390 . S
C5841 H5845 0.950 . S
H5842 C5838 0.950 . S
C5843 C5841 1.390 . S
C5843 C5844 1.387 1_545 S
C5843 H5846 0.950 . S
C5844 C5843 1.387 1_565 S
C5844 C5847 1.387 . S
H5845 C5841 0.950 . S
H5846 C5843 0.950 . S
C5847 C5838 1.390 . S
C5847 H5840 0.950 . S
C5847 C5844 1.387 . S
C5848 C5849 1.387 . S
C5848 H5852 0.950 . S
C5848 C5857 1.390 1_655 S
C5849 C5848 1.387 . S
C5849 C5851 1.387 . S
H5850 C5857 0.950 . S
C5851 C5849 1.387 . S
C5851 C5853 1.390 1_655 S
C5851 H5855 0.950 . S
H5852 C5848 0.950 . S
C5853 C5851 1.390 1_455 S
C5853 C5854 1.387 . S
C5853 H5856 0.950 . S
C5854 C5853 1.387 . S
C5854 C5857 1.387 . S
H5855 C5851 0.950 . S
H5856 C5853 0.950 . S
C5857 C5848 1.390 1_455 S
C5857 H5850 0.950 . S
C5857 C5854 1.387 . S
C5858 C5859 1.387 . S
C5858 H5862 0.950 . S
C5858 C5867 1.390 . S
C5859 C5858 1.387 . S
C5859 C5861 1.387 . S
H5860 C5867 0.950 . S
C5861 C5859 1.387 . S
C5861 C5863 1.390 . S
C5861 H5865 0.950 . S
H5862 C5858 0.950 . S
C5863 C5861 1.390 . S
C5863 C5864 1.387 . S
C5863 H5866 0.950 . S
C5864 C5863 1.387 . S
C5864 C5867 1.387 . S
H5865 C5861 0.950 . S
H5866 C5863 0.950 . S
C5867 C5858 1.390 . S
C5867 H5860 0.950 . S
C5867 C5864 1.387 . S
C5868 C5869 1.387 . S
C5868 H5872 0.950 . S
C5868 C5877 1.390 . S
C5869 C5868 1.387 . S
C5869 C5871 1.387 . S
H5870 C5877 0.950 . S
C5871 C5869 1.387 . S
C5871 C5873 1.390 . S
C5871 H5875 0.950 . S
H5872 C5868 0.950 . S
C5873 C5871 1.390 . S
C5873 C5874 1.387 . S
C5873 H5876 0.950 . S
C5874 C5873 1.387 . S
C5874 C5877 1.387 . S
H5875 C5871 0.950 . S
H5876 C5873 0.950 . S
C5877 C5868 1.390 . S
C5877 H5870 0.950 . S
C5877 C5874 1.387 . S
C5878 C5879 1.387 1_565 S
C5878 H5882 0.950 . S
C5878 C5887 1.390 . S
C5879 C5878 1.387 1_545 S
C5879 C5881 1.387 . S
H5880 C5887 0.950 . S
C5881 C5879 1.387 . S
C5881 C5883 1.390 . S
C5881 H5885 0.950 . S
H5882 C5878 0.950 . S
C5883 C5881 1.390 . S
C5883 C5884 1.387 1_545 S
C5883 H5886 0.950 . S
C5884 C5883 1.387 1_565 S
C5884 C5887 1.387 . S
H5885 C5881 0.950 . S
H5886 C5883 0.950 . S
C5887 C5878 1.390 . S
C5887 H5880 0.950 . S
C5887 C5884 1.387 . S
C5888 C5889 1.387 . S
C5888 H5892 0.950 . S
C5888 C5897 1.390 . S
C5889 C5888 1.387 . S
C5889 C5891 1.387 1_545 S
H5890 C5897 0.950 . S
C5891 C5889 1.387 1_565 S
C5891 C5893 1.390 . S
C5891 H5895 0.950 . S
H5892 C5888 0.950 . S
C5893 C5891 1.390 . S
C5893 C5894 1.387 . S
C5893 H5896 0.950 . S
C5894 C5893 1.387 . S
C5894 C5897 1.387 1_565 S
H5895 C5891 0.950 . S
H5896 C5893 0.950 . S
C5897 C5888 1.390 . S
C5897 H5890 0.950 . S
C5897 C5894 1.387 1_545 S
C5898 C5899 1.387 . S
C5898 H5902 0.950 . S
C5898 C5907 1.390 1_655 S
C5899 C5898 1.387 . S
C5899 C5901 1.387 . S
H5900 C5907 0.950 . S
C5901 C5899 1.387 . S
C5901 C5903 1.390 1_655 S
C5901 H5905 0.950 . S
H5902 C5898 0.950 . S
C5903 C5901 1.390 1_455 S
C5903 C5904 1.387 . S
C5903 H5906 0.950 . S
C5904 C5903 1.387 . S
C5904 C5907 1.387 . S
H5905 C5901 0.950 . S
H5906 C5903 0.950 . S
C5907 C5898 1.390 1_455 S
C5907 H5900 0.950 . S
C5907 C5904 1.387 . S
C5908 C5909 1.387 . S
C5908 H5912 0.950 . S
C5908 C5917 1.390 . S
C5909 C5908 1.387 . S
C5909 C5911 1.387 . S
H5910 C5917 0.950 . S
C5911 C5909 1.387 . S
C5911 C5913 1.390 . S
C5911 H5915 0.950 . S
H5912 C5908 0.950 . S
C5913 C5911 1.390 . S
C5913 C5914 1.387 . S
C5913 H5916 0.950 . S
C5914 C5913 1.387 . S
C5914 C5917 1.387 . S
H5915 C5911 0.950 . S
H5916 C5913 0.950 . S
C5917 C5908 1.390 . S
C5917 H5910 0.950 . S
C5917 C5914 1.387 . S
C5918 C5919 1.387 . S
C5918 H5922 0.950 . S
C5918 C5927 1.390 . S
C5919 C5918 1.387 . S
C5919 C5921 1.387 . S
H5920 C5927 0.950 . S
C5921 C5919 1.387 . S
C5921 C5923 1.390 . S
C5921 H5925 0.950 . S
H5922 C5918 0.950 . S
C5923 C5921 1.390 . S
C5923 C5924 1.387 . S
C5923 H5926 0.950 . S
C5924 C5923 1.387 . S
C5924 C5927 1.387 . S
H5925 C5921 0.950 . S
H5926 C5923 0.950 . S
C5927 C5918 1.390 . S
C5927 H5920 0.950 . S
C5927 C5924 1.387 . S
C5928 C5929 1.387 . S
C5928 H5932 0.950 . S
C5928 C5937 1.390 . S
C5929 C5928 1.387 . S
C5929 C5931 1.387 . S
H5930 C5937 0.950 . S
C5931 C5929 1.387 . S
C5931 C5933 1.390 . S
C5931 H5935 0.950 . S
H5932 C5928 0.950 . S
C5933 C5931 1.390 . S
C5933 C5934 1.387 . S
C5933 H5936 0.950 . S
C5934 C5933 1.387 . S
C5934 C5937 1.387 . S
H5935 C5931 0.950 . S
H5936 C5933 0.950 . S
C5937 C5928 1.390 . S
C5937 H5930 0.950 . S
C5937 C5934 1.387 . S
C5938 C5939 1.387 . S
C5938 H5942 0.950 . S
C5938 C5947 1.390 . S
C5939 C5938 1.387 . S
C5939 C5941 1.387 . S
H5940 C5947 0.950 . S
C5941 C5939 1.387 . S
C5941 C5943 1.390 . S
C5941 H5945 0.950 . S
H5942 C5938 0.950 . S
C5943 C5941 1.390 . S
C5943 C5944 1.387 . S
C5943 H5946 0.950 . S
C5944 C5943 1.387 . S
C5944 C5947 1.387 . S
H5945 C5941 0.950 . S
H5946 C5943 0.950 . S
C5947 C5938 1.390 . S
C5947 H5940 0.950 . S
C5947 C5944 1.387 . S
C5948 C5949 1.387 . S
C5948 H5952 0.950 . S
C5948 C5957 1.390 . S
C5949 C5948 1.387 . S
C5949 C5951 1.387 1_545 S
H5950 C5957 0.950 . S
C5951 C5949 1.387 1_565 S
C5951 C5953 1.390 . S
C5951 H5955 0.950 . S
H5952 C5948 0.950 . S
C5953 C5951 1.390 . S
C5953 C5954 1.387 . S
C5953 H5956 0.950 . S
C5954 C5953 1.387 . S
C5954 C5957 1.387 1_565 S
H5955 C5951 0.950 . S
H5956 C5953 0.950 . S
C5957 C5948 1.390 . S
C5957 H5950 0.950 . S
C5957 C5954 1.387 1_545 S
C5958 C5959 1.387 1_655 S
C5958 H5962 0.950 . S
C5958 C5967 1.390 . S
C5959 C5958 1.387 1_455 S
C5959 C5961 1.387 . S
H5960 C5967 0.950 . S
C5961 C5959 1.387 . S
C5961 C5963 1.390 . S
C5961 H5965 0.950 . S
H5962 C5958 0.950 . S
C5963 C5961 1.390 . S
C5963 C5964 1.387 1_455 S
C5963 H5966 0.950 . S
C5964 C5963 1.387 1_655 S
C5964 C5967 1.387 . S
H5965 C5961 0.950 . S
H5966 C5963 0.950 . S
C5967 C5958 1.390 . S
C5967 H5960 0.950 . S
C5967 C5964 1.387 . S
C5968 C5969 1.387 . S
C5968 H5972 0.950 . S
C5968 C5977 1.390 . S
C5969 C5968 1.387 . S
C5969 C5971 1.387 1_554 S
H5970 C5977 0.950 . S
C5971 C5969 1.387 1_556 S
C5971 C5973 1.390 . S
C5971 H5975 0.950 . S
H5972 C5968 0.950 . S
C5973 C5971 1.390 . S
C5973 C5974 1.387 . S
C5973 H5976 0.950 . S
C5974 C5973 1.387 . S
C5974 C5977 1.387 1_556 S
H5975 C5971 0.950 . S
H5976 C5973 0.950 . S
C5977 C5968 1.390 . S
C5977 H5970 0.950 . S
C5977 C5974 1.387 1_554 S
C5978 C5979 1.387 . S
C5978 H5982 0.950 . S
C5978 C5987 1.390 . S
C5979 C5978 1.387 . S
C5979 C5981 1.387 . S
H5980 C5987 0.950 . S
C5981 C5979 1.387 . S
C5981 C5983 1.390 . S
C5981 H5985 0.950 . S
H5982 C5978 0.950 . S
C5983 C5981 1.390 . S
C5983 C5984 1.387 . S
C5983 H5986 0.950 . S
C5984 C5983 1.387 . S
C5984 C5987 1.387 . S
H5985 C5981 0.950 . S
H5986 C5983 0.950 . S
C5987 C5978 1.390 . S
C5987 H5980 0.950 . S
C5987 C5984 1.387 . S
C5988 C5989 1.387 . S
C5988 H5992 0.950 . S
C5988 C5997 1.390 . S
C5989 C5988 1.387 . S
C5989 C5991 1.387 . S
H5990 C5997 0.950 . S
C5991 C5989 1.387 . S
C5991 C5993 1.390 . S
C5991 H5995 0.950 . S
H5992 C5988 0.950 . S
C5993 C5991 1.390 . S
C5993 C5994 1.387 . S
C5993 H5996 0.950 . S
C5994 C5993 1.387 . S
C5994 C5997 1.387 . S
H5995 C5991 0.950 . S
H5996 C5993 0.950 . S
C5997 C5988 1.390 . S
C5997 H5990 0.950 . S
C5997 C5994 1.387 . S
C5998 C5999 1.387 . S
C5998 H6002 0.950 . S
C5998 C6007 1.390 . S
C5999 C5998 1.387 . S
C5999 C6001 1.387 . S
H6000 C6007 0.950 . S
C6001 C5999 1.387 . S
C6001 C6003 1.390 . S
C6001 H6005 0.950 . S
H6002 C5998 0.950 . S
C6003 C6001 1.390 . S
C6003 C6004 1.387 . S
C6003 H6006 0.950 . S
C6004 C6003 1.387 . S
C6004 C6007 1.387 . S
H6005 C6001 0.950 . S
H6006 C6003 0.950 . S
C6007 C5998 1.390 . S
C6007 H6000 0.950 . S
C6007 C6004 1.387 . S
C6008 C6009 1.387 . S
C6008 H6012 0.950 . S
C6008 C6017 1.390 . S
C6009 C6008 1.387 . S
C6009 C6011 1.387 . S
H6010 C6017 0.950 . S
C6011 C6009 1.387 . S
C6011 C6013 1.390 . S
C6011 H6015 0.950 . S
H6012 C6008 0.950 . S
C6013 C6011 1.390 . S
C6013 C6014 1.387 . S
C6013 H6016 0.950 . S
C6014 C6013 1.387 . S
C6014 C6017 1.387 . S
H6015 C6011 0.950 . S
H6016 C6013 0.950 . S
C6017 C6008 1.390 . S
C6017 H6010 0.950 . S
C6017 C6014 1.387 . S
C6018 C6019 1.387 1_554 S
C6018 H6022 0.950 . S
C6018 C6027 1.390 . S
C6019 C6018 1.387 1_556 S
C6019 C6021 1.387 . S
H6020 C6027 0.950 . S
C6021 C6019 1.387 . S
C6021 C6023 1.390 . S
C6021 H6025 0.950 . S
H6022 C6018 0.950 . S
C6023 C6021 1.390 . S
C6023 C6024 1.387 1_556 S
C6023 H6026 0.950 . S
C6024 C6023 1.387 1_554 S
C6024 C6027 1.387 . S
H6025 C6021 0.950 . S
H6026 C6023 0.950 . S
C6027 C6018 1.390 . S
C6027 H6020 0.950 . S
C6027 C6024 1.387 . S
C6028 C6029 1.387 . S
C6028 H6032 0.950 . S
C6028 C6037 1.390 . S
C6029 C6028 1.387 . S
C6029 C6031 1.387 . S
H6030 C6037 0.950 . S
C6031 C6029 1.387 . S
C6031 C6033 1.390 . S
C6031 H6035 0.950 . S
H6032 C6028 0.950 . S
C6033 C6031 1.390 . S
C6033 C6034 1.387 . S
C6033 H6036 0.950 . S
C6034 C6033 1.387 . S
C6034 C6037 1.387 . S
H6035 C6031 0.950 . S
H6036 C6033 0.950 . S
C6037 C6028 1.390 . S
C6037 H6030 0.950 . S
C6037 C6034 1.387 . S
C6038 C6039 1.387 . S
C6038 H6042 0.950 . S
C6038 C6047 1.390 . S
C6039 C6038 1.387 . S
C6039 C6041 1.387 . S
H6040 C6047 0.950 . S
C6041 C6039 1.387 . S
C6041 C6043 1.390 . S
C6041 H6045 0.950 . S
H6042 C6038 0.950 . S
C6043 C6041 1.390 . S
C6043 C6044 1.387 . S
C6043 H6046 0.950 . S
C6044 C6043 1.387 . S
C6044 C6047 1.387 . S
H6045 C6041 0.950 . S
H6046 C6043 0.950 . S
C6047 C6038 1.390 . S
C6047 H6040 0.950 . S
C6047 C6044 1.387 . S
C6048 C6049 1.387 . S
C6048 H6052 0.950 . S
C6048 C6057 1.390 . S
C6049 C6048 1.387 . S
C6049 C6051 1.387 . S
H6050 C6057 0.950 . S
C6051 C6049 1.387 . S
C6051 C6053 1.390 . S
C6051 H6055 0.950 . S
H6052 C6048 0.950 . S
C6053 C6051 1.390 . S
C6053 C6054 1.387 . S
C6053 H6056 0.950 . S
C6054 C6053 1.387 . S
C6054 C6057 1.387 . S
H6055 C6051 0.950 . S
H6056 C6053 0.950 . S
C6057 C6048 1.390 . S
C6057 H6050 0.950 . S
C6057 C6054 1.387 . S
C6058 C6059 1.387 . S
C6058 H6062 0.950 . S
C6058 C6067 1.390 . S
C6059 C6058 1.387 . S
C6059 C6061 1.387 . S
H6060 C6067 0.950 . S
C6061 C6059 1.387 . S
C6061 C6063 1.390 . S
C6061 H6065 0.950 . S
H6062 C6058 0.950 . S
C6063 C6061 1.390 . S
C6063 C6064 1.387 . S
C6063 H6066 0.950 . S
C6064 C6063 1.387 . S
C6064 C6067 1.387 . S
H6065 C6061 0.950 . S
H6066 C6063 0.950 . S
C6067 C6058 1.390 . S
C6067 H6060 0.950 . S
C6067 C6064 1.387 . S
C6068 C6069 1.387 . S
C6068 H6072 0.950 . S
C6068 C6077 1.390 . S
C6069 C6068 1.387 . S
C6069 C6071 1.387 . S
H6070 C6077 0.950 . S
C6071 C6069 1.387 . S
C6071 C6073 1.390 . S
C6071 H6075 0.950 . S
H6072 C6068 0.950 . S
C6073 C6071 1.390 . S
C6073 C6074 1.387 . S
C6073 H6076 0.950 . S
C6074 C6073 1.387 . S
C6074 C6077 1.387 . S
H6075 C6071 0.950 . S
H6076 C6073 0.950 . S
C6077 C6068 1.390 . S
C6077 H6070 0.950 . S
C6077 C6074 1.387 . S
C6078 C6079 1.387 . S
C6078 H6082 0.950 . S
C6078 C6087 1.390 . S
C6079 C6078 1.387 . S
C6079 C6081 1.387 . S
H6080 C6087 0.950 . S
C6081 C6079 1.387 . S
C6081 C6083 1.390 . S
C6081 H6085 0.950 . S
H6082 C6078 0.950 . S
C6083 C6081 1.390 . S
C6083 C6084 1.387 . S
C6083 H6086 0.950 . S
C6084 C6083 1.387 . S
C6084 C6087 1.387 . S
H6085 C6081 0.950 . S
H6086 C6083 0.950 . S
C6087 C6078 1.390 . S
C6087 H6080 0.950 . S
C6087 C6084 1.387 . S
C6088 C6089 1.387 . S
C6088 H6092 0.950 . S
C6088 C6097 1.390 . S
C6089 C6088 1.387 . S
C6089 C6091 1.387 . S
H6090 C6097 0.950 . S
C6091 C6089 1.387 . S
C6091 C6093 1.390 . S
C6091 H6095 0.950 . S
H6092 C6088 0.950 . S
C6093 C6091 1.390 . S
C6093 C6094 1.387 . S
C6093 H6096 0.950 . S
C6094 C6093 1.387 . S
C6094 C6097 1.387 . S
H6095 C6091 0.950 . S
H6096 C6093 0.950 . S
C6097 C6088 1.390 . S
C6097 H6090 0.950 . S
C6097 C6094 1.387 . S
C6098 C6099 1.387 . S
C6098 H6102 0.950 . S
C6098 C6107 1.390 . S
C6099 C6098 1.387 . S
C6099 C6101 1.387 . S
H6100 C6107 0.950 . S
C6101 C6099 1.387 . S
C6101 C6103 1.390 . S
C6101 H6105 0.950 . S
H6102 C6098 0.950 . S
C6103 C6101 1.390 . S
C6103 C6104 1.387 . S
C6103 H6106 0.950 . S
C6104 C6103 1.387 . S
C6104 C6107 1.387 . S
H6105 C6101 0.950 . S
H6106 C6103 0.950 . S
C6107 C6098 1.390 . S
C6107 H6100 0.950 . S
C6107 C6104 1.387 . S
C6108 C6109 1.387 . S
C6108 H6112 0.950 . S
C6108 C6117 1.390 . S
C6109 C6108 1.387 . S
C6109 C6111 1.387 . S
H6110 C6117 0.950 . S
C6111 C6109 1.387 . S
C6111 C6113 1.390 . S
C6111 H6115 0.950 . S
H6112 C6108 0.950 . S
C6113 C6111 1.390 . S
C6113 C6114 1.387 . S
C6113 H6116 0.950 . S
C6114 C6113 1.387 . S
C6114 C6117 1.387 . S
H6115 C6111 0.950 . S
H6116 C6113 0.950 . S
C6117 C6108 1.390 . S
C6117 H6110 0.950 . S
C6117 C6114 1.387 . S
C6118 C6119 1.387 . S
C6118 H6122 0.950 . S
C6118 C6127 1.390 . S
C6119 C6118 1.387 . S
C6119 C6121 1.387 . S
H6120 C6127 0.950 . S
C6121 C6119 1.387 . S
C6121 C6123 1.390 . S
C6121 H6125 0.950 . S
H6122 C6118 0.950 . S
C6123 C6121 1.390 . S
C6123 C6124 1.387 . S
C6123 H6126 0.950 . S
C6124 C6123 1.387 . S
C6124 C6127 1.387 . S
H6125 C6121 0.950 . S
H6126 C6123 0.950 . S
C6127 C6118 1.390 . S
C6127 H6120 0.950 . S
C6127 C6124 1.387 . S
C6128 C6129 1.387 . S
C6128 H6132 0.950 . S
C6128 C6137 1.390 . S
C6129 C6128 1.387 . S
C6129 C6131 1.387 . S
H6130 C6137 0.950 . S
C6131 C6129 1.387 . S
C6131 C6133 1.390 . S
C6131 H6135 0.950 . S
H6132 C6128 0.950 . S
C6133 C6131 1.390 . S
C6133 C6134 1.387 . S
C6133 H6136 0.950 . S
C6134 C6133 1.387 . S
C6134 C6137 1.387 . S
H6135 C6131 0.950 . S
H6136 C6133 0.950 . S
C6137 C6128 1.390 . S
C6137 H6130 0.950 . S
C6137 C6134 1.387 . S
C6138 C6139 1.387 . S
C6138 H6142 0.950 . S
C6138 C6147 1.390 . S
C6139 C6138 1.387 . S
C6139 C6141 1.387 . S
H6140 C6147 0.950 . S
C6141 C6139 1.387 . S
C6141 C6143 1.390 . S
C6141 H6145 0.950 . S
H6142 C6138 0.950 . S
C6143 C6141 1.390 . S
C6143 C6144 1.387 . S
C6143 H6146 0.950 . S
C6144 C6143 1.387 . S
C6144 C6147 1.387 . S
H6145 C6141 0.950 . S
H6146 C6143 0.950 . S
C6147 C6138 1.390 . S
C6147 H6140 0.950 . S
C6147 C6144 1.387 . S
C6148 C6149 1.387 . S
C6148 H6152 0.950 . S
C6148 C6157 1.390 . S
C6149 C6148 1.387 . S
C6149 C6151 1.387 1_556 S
H6150 C6157 0.950 . S
C6151 C6149 1.387 1_554 S
C6151 C6153 1.390 . S
C6151 H6155 0.950 . S
H6152 C6148 0.950 . S
C6153 C6151 1.390 . S
C6153 C6154 1.387 . S
C6153 H6156 0.950 . S
C6154 C6153 1.387 . S
C6154 C6157 1.387 1_554 S
H6155 C6151 0.950 . S
H6156 C6153 0.950 . S
C6157 C6148 1.390 . S
C6157 H6150 0.950 . S
C6157 C6154 1.387 1_556 S
C6158 C6159 1.387 . S
C6158 H6162 0.950 . S
C6158 C6167 1.390 . S
C6159 C6158 1.387 . S
C6159 C6161 1.387 . S
H6160 C6167 0.950 . S
C6161 C6159 1.387 . S
C6161 C6163 1.390 . S
C6161 H6165 0.950 . S
H6162 C6158 0.950 . S
C6163 C6161 1.390 . S
C6163 C6164 1.387 . S
C6163 H6166 0.950 . S
C6164 C6163 1.387 . S
C6164 C6167 1.387 . S
H6165 C6161 0.950 . S
H6166 C6163 0.950 . S
C6167 C6158 1.390 . S
C6167 H6160 0.950 . S
C6167 C6164 1.387 . S
C6168 C6169 1.387 1_556 S
C6168 H6172 0.950 . S
C6168 C6177 1.390 . S
C6169 C6168 1.387 1_554 S
C6169 C6171 1.387 . S
H6170 C6177 0.950 . S
C6171 C6169 1.387 . S
C6171 C6173 1.390 . S
C6171 H6175 0.950 . S
H6172 C6168 0.950 . S
C6173 C6171 1.390 . S
C6173 C6174 1.387 1_554 S
C6173 H6176 0.950 . S
C6174 C6173 1.387 1_556 S
C6174 C6177 1.387 . S
H6175 C6171 0.950 . S
H6176 C6173 0.950 . S
C6177 C6168 1.390 . S
C6177 H6170 0.950 . S
C6177 C6174 1.387 . S
C6178 C6179 1.387 . S
C6178 H6182 0.950 . S
C6178 C6187 1.390 . S
C6179 C6178 1.387 . S
C6179 C6181 1.387 . S
H6180 C6187 0.950 . S
C6181 C6179 1.387 . S
C6181 C6183 1.390 . S
C6181 H6185 0.950 . S
H6182 C6178 0.950 . S
C6183 C6181 1.390 . S
C6183 C6184 1.387 . S
C6183 H6186 0.950 . S
C6184 C6183 1.387 . S
C6184 C6187 1.387 . S
H6185 C6181 0.950 . S
H6186 C6183 0.950 . S
C6187 C6178 1.390 . S
C6187 H6180 0.950 . S
C6187 C6184 1.387 . S
C6188 C6189 1.387 . S
C6188 H6192 0.950 . S
C6188 C6197 1.390 . S
C6189 C6188 1.387 . S
C6189 C6191 1.387 . S
H6190 C6197 0.950 . S
C6191 C6189 1.387 . S
C6191 C6193 1.390 . S
C6191 H6195 0.950 . S
H6192 C6188 0.950 . S
C6193 C6191 1.390 . S
C6193 C6194 1.387 . S
C6193 H6196 0.950 . S
C6194 C6193 1.387 . S
C6194 C6197 1.387 . S
H6195 C6191 0.950 . S
H6196 C6193 0.950 . S
C6197 C6188 1.390 . S
C6197 H6190 0.950 . S
C6197 C6194 1.387 . S
C6198 C6199 1.387 . S
C6198 H6202 0.950 . S
C6198 C6207 1.390 . S
C6199 C6198 1.387 . S
C6199 C6201 1.387 . S
H6200 C6207 0.950 . S
C6201 C6199 1.387 . S
C6201 C6203 1.390 . S
C6201 H6205 0.950 . S
H6202 C6198 0.950 . S
C6203 C6201 1.390 . S
C6203 C6204 1.387 . S
C6203 H6206 0.950 . S
C6204 C6203 1.387 . S
C6204 C6207 1.387 . S
H6205 C6201 0.950 . S
H6206 C6203 0.950 . S
C6207 C6198 1.390 . S
C6207 H6200 0.950 . S
C6207 C6204 1.387 . S
C6208 C6209 1.387 . S
C6208 H6212 0.950 . S
C6208 C6217 1.390 . S
C6209 C6208 1.387 . S
C6209 C6211 1.387 . S
H6210 C6217 0.950 . S
C6211 C6209 1.387 . S
C6211 C6213 1.390 . S
C6211 H6215 0.950 . S
H6212 C6208 0.950 . S
C6213 C6211 1.390 . S
C6213 C6214 1.387 . S
C6213 H6216 0.950 . S
C6214 C6213 1.387 . S
C6214 C6217 1.387 . S
H6215 C6211 0.950 . S
H6216 C6213 0.950 . S
C6217 C6208 1.390 . S
C6217 H6210 0.950 . S
C6217 C6214 1.387 . S
C6218 C6219 1.387 . S
C6218 H6222 0.950 . S
C6218 C6227 1.390 . S
C6219 C6218 1.387 . S
C6219 C6221 1.387 . S
H6220 C6227 0.950 . S
C6221 C6219 1.387 . S
C6221 C6223 1.390 . S
C6221 H6225 0.950 . S
H6222 C6218 0.950 . S
C6223 C6221 1.390 . S
C6223 C6224 1.387 . S
C6223 H6226 0.950 . S
C6224 C6223 1.387 . S
C6224 C6227 1.387 . S
H6225 C6221 0.950 . S
H6226 C6223 0.950 . S
C6227 C6218 1.390 . S
C6227 H6220 0.950 . S
C6227 C6224 1.387 . S
C6228 C6229 1.387 . S
C6228 H6232 0.950 . S
C6228 C6237 1.390 . S
C6229 C6228 1.387 . S
C6229 C6231 1.387 . S
H6230 C6237 0.950 . S
C6231 C6229 1.387 . S
C6231 C6233 1.390 . S
C6231 H6235 0.950 . S
H6232 C6228 0.950 . S
C6233 C6231 1.390 . S
C6233 C6234 1.387 . S
C6233 H6236 0.950 . S
C6234 C6233 1.387 . S
C6234 C6237 1.387 . S
H6235 C6231 0.950 . S
H6236 C6233 0.950 . S
C6237 C6228 1.390 . S
C6237 H6230 0.950 . S
C6237 C6234 1.387 . S
C6238 C6239 1.387 . S
C6238 H6242 0.950 . S
C6238 C6247 1.390 . S
C6239 C6238 1.387 . S
C6239 C6241 1.387 . S
H6240 C6247 0.950 . S
C6241 C6239 1.387 . S
C6241 C6243 1.390 . S
C6241 H6245 0.950 . S
H6242 C6238 0.950 . S
C6243 C6241 1.390 . S
C6243 C6244 1.387 . S
C6243 H6246 0.950 . S
C6244 C6243 1.387 . S
C6244 C6247 1.387 . S
H6245 C6241 0.950 . S
H6246 C6243 0.950 . S
C6247 C6238 1.390 . S
C6247 H6240 0.950 . S
C6247 C6244 1.387 . S
C6248 C6249 1.387 . S
C6248 H6252 0.950 . S
C6248 C6257 1.390 . S
C6249 C6248 1.387 . S
C6249 C6251 1.387 . S
H6250 C6257 0.950 . S
C6251 C6249 1.387 . S
C6251 C6253 1.390 . S
C6251 H6255 0.950 . S
H6252 C6248 0.950 . S
C6253 C6251 1.390 . S
C6253 C6254 1.387 . S
C6253 H6256 0.950 . S
C6254 C6253 1.387 . S
C6254 C6257 1.387 . S
H6255 C6251 0.950 . S
H6256 C6253 0.950 . S
C6257 C6248 1.390 . S
C6257 H6250 0.950 . S
C6257 C6254 1.387 . S
C6258 C6259 1.387 . S
C6258 H6262 0.950 . S
C6258 C6267 1.390 . S
C6259 C6258 1.387 . S
C6259 C6261 1.387 . S
H6260 C6267 0.950 . S
C6261 C6259 1.387 . S
C6261 C6263 1.390 . S
C6261 H6265 0.950 . S
H6262 C6258 0.950 . S
C6263 C6261 1.390 . S
C6263 C6264 1.387 . S
C6263 H6266 0.950 . S
C6264 C6263 1.387 . S
C6264 C6267 1.387 . S
H6265 C6261 0.950 . S
H6266 C6263 0.950 . S
C6267 C6258 1.390 . S
C6267 H6260 0.950 . S
C6267 C6264 1.387 . S
C6268 C6269 1.387 . S
C6268 H6272 0.950 . S
C6268 C6277 1.390 . S
C6269 C6268 1.387 . S
C6269 C6271 1.387 . S
H6270 C6277 0.950 . S
C6271 C6269 1.387 . S
C6271 C6273 1.390 . S
C6271 H6275 0.950 . S
H6272 C6268 0.950 . S
C6273 C6271 1.390 . S
C6273 C6274 1.387 . S
C6273 H6276 0.950 . S
C6274 C6273 1.387 . S
C6274 C6277 1.387 . S
H6275 C6271 0.950 . S
H6276 C6273 0.950 . S
C6277 C6268 1.390 . S
C6277 H6270 0.950 . S
C6277 C6274 1.387 . S
C6278 C6279 1.387 . S
C6278 H6282 0.950 . S
C6278 C6287 1.390 . S
C6279 C6278 1.387 . S
C6279 C6281 1.387 . S
H6280 C6287 0.950 . S
C6281 C6279 1.387 . S
C6281 C6283 1.390 . S
C6281 H6285 0.950 . S
H6282 C6278 0.950 . S
C6283 C6281 1.390 . S
C6283 C6284 1.387 . S
C6283 H6286 0.950 . S
C6284 C6283 1.387 . S
C6284 C6287 1.387 . S
H6285 C6281 0.950 . S
H6286 C6283 0.950 . S
C6287 C6278 1.390 . S
C6287 H6280 0.950 . S
C6287 C6284 1.387 . S
C6288 C6289 1.387 . S
C6288 H6292 0.950 . S
C6288 C6297 1.390 . S
C6289 C6288 1.387 . S
C6289 C6291 1.387 . S
H6290 C6297 0.950 . S
C6291 C6289 1.387 . S
C6291 C6293 1.390 . S
C6291 H6295 0.950 . S
H6292 C6288 0.950 . S
C6293 C6291 1.390 . S
C6293 C6294 1.387 . S
C6293 H6296 0.950 . S
C6294 C6293 1.387 . S
C6294 C6297 1.387 . S
H6295 C6291 0.950 . S
H6296 C6293 0.950 . S
C6297 C6288 1.390 . S
C6297 H6290 0.950 . S
C6297 C6294 1.387 . S
C6298 C6299 1.387 . S
C6298 H6302 0.950 . S
C6298 C6307 1.390 . S
C6299 C6298 1.387 . S
C6299 C6301 1.387 . S
H6300 C6307 0.950 . S
C6301 C6299 1.387 . S
C6301 C6303 1.390 . S
C6301 H6305 0.950 . S
H6302 C6298 0.950 . S
C6303 C6301 1.390 . S
C6303 C6304 1.387 . S
C6303 H6306 0.950 . S
C6304 C6303 1.387 . S
C6304 C6307 1.387 . S
H6305 C6301 0.950 . S
H6306 C6303 0.950 . S
C6307 C6298 1.390 . S
C6307 H6300 0.950 . S
C6307 C6304 1.387 . S
C6308 C6309 1.387 . S
C6308 H6312 0.950 . S
C6308 C6317 1.390 . S
C6309 C6308 1.387 . S
C6309 C6311 1.387 1_554 S
H6310 C6317 0.950 . S
C6311 C6309 1.387 1_556 S
C6311 C6313 1.390 . S
C6311 H6315 0.950 . S
H6312 C6308 0.950 . S
C6313 C6311 1.390 . S
C6313 C6314 1.387 . S
C6313 H6316 0.950 . S
C6314 C6313 1.387 . S
C6314 C6317 1.387 1_556 S
H6315 C6311 0.950 . S
H6316 C6313 0.950 . S
C6317 C6308 1.390 . S
C6317 H6310 0.950 . S
C6317 C6314 1.387 1_554 S
C6318 C6319 1.387 . S
C6318 H6322 0.950 . S
C6318 C6327 1.390 . S
C6319 C6318 1.387 . S
C6319 C6321 1.387 . S
H6320 C6327 0.950 . S
C6321 C6319 1.387 . S
C6321 C6323 1.390 . S
C6321 H6325 0.950 . S
H6322 C6318 0.950 . S
C6323 C6321 1.390 . S
C6323 C6324 1.387 . S
C6323 H6326 0.950 . S
C6324 C6323 1.387 . S
C6324 C6327 1.387 . S
H6325 C6321 0.950 . S
H6326 C6323 0.950 . S
C6327 C6318 1.390 . S
C6327 H6320 0.950 . S
C6327 C6324 1.387 . S
C6328 C6329 1.387 . S
C6328 H6332 0.950 . S
C6328 C6337 1.390 . S
C6329 C6328 1.387 . S
C6329 C6331 1.387 1_554 S
H6330 C6337 0.950 . S
C6331 C6329 1.387 1_556 S
C6331 C6333 1.390 . S
C6331 H6335 0.950 . S
H6332 C6328 0.950 . S
C6333 C6331 1.390 . S
C6333 C6334 1.387 . S
C6333 H6336 0.950 . S
C6334 C6333 1.387 . S
C6334 C6337 1.387 1_556 S
H6335 C6331 0.950 . S
H6336 C6333 0.950 . S
C6337 C6328 1.390 . S
C6337 H6330 0.950 . S
C6337 C6334 1.387 1_554 S
C6338 C6339 1.387 . S
C6338 H6342 0.950 . S
C6338 C6347 1.390 . S
C6339 C6338 1.387 . S
C6339 C6341 1.387 . S
H6340 C6347 0.950 . S
C6341 C6339 1.387 . S
C6341 C6343 1.390 . S
C6341 H6345 0.950 . S
H6342 C6338 0.950 . S
C6343 C6341 1.390 . S
C6343 C6344 1.387 . S
C6343 H6346 0.950 . S
C6344 C6343 1.387 . S
C6344 C6347 1.387 . S
H6345 C6341 0.950 . S
H6346 C6343 0.950 . S
C6347 C6338 1.390 . S
C6347 H6340 0.950 . S
C6347 C6344 1.387 . S
C6348 C6349 1.387 . S
C6348 H6352 0.950 . S
C6348 C6357 1.390 . S
C6349 C6348 1.387 . S
C6349 C6351 1.387 . S
H6350 C6357 0.950 . S
C6351 C6349 1.387 . S
C6351 C6353 1.390 . S
C6351 H6355 0.950 . S
H6352 C6348 0.950 . S
C6353 C6351 1.390 . S
C6353 C6354 1.387 . S
C6353 H6356 0.950 . S
C6354 C6353 1.387 . S
C6354 C6357 1.387 . S
H6355 C6351 0.950 . S
H6356 C6353 0.950 . S
C6357 C6348 1.390 . S
C6357 H6350 0.950 . S
C6357 C6354 1.387 . S
C6358 C6359 1.387 . S
C6358 H6362 0.950 . S
C6358 C6367 1.390 . S
C6359 C6358 1.387 . S
C6359 C6361 1.387 . S
H6360 C6367 0.950 . S
C6361 C6359 1.387 . S
C6361 C6363 1.390 . S
C6361 H6365 0.950 . S
H6362 C6358 0.950 . S
C6363 C6361 1.390 . S
C6363 C6364 1.387 . S
C6363 H6366 0.950 . S
C6364 C6363 1.387 . S
C6364 C6367 1.387 . S
H6365 C6361 0.950 . S
H6366 C6363 0.950 . S
C6367 C6358 1.390 . S
C6367 H6360 0.950 . S
C6367 C6364 1.387 . S
C6368 C6369 1.387 . S
C6368 H6372 0.950 . S
C6368 C6377 1.390 . S
C6369 C6368 1.387 . S
C6369 C6371 1.387 . S
H6370 C6377 0.950 . S
C6371 C6369 1.387 . S
C6371 C6373 1.390 . S
C6371 H6375 0.950 . S
H6372 C6368 0.950 . S
C6373 C6371 1.390 . S
C6373 C6374 1.387 . S
C6373 H6376 0.950 . S
C6374 C6373 1.387 . S
C6374 C6377 1.387 . S
H6375 C6371 0.950 . S
H6376 C6373 0.950 . S
C6377 C6368 1.390 . S
C6377 H6370 0.950 . S
C6377 C6374 1.387 . S
C6378 C6379 1.387 . S
C6378 H6382 0.950 . S
C6378 C6387 1.390 . S
C6379 C6378 1.387 . S
C6379 C6381 1.387 . S
H6380 C6387 0.950 . S
C6381 C6379 1.387 . S
C6381 C6383 1.390 . S
C6381 H6385 0.950 . S
H6382 C6378 0.950 . S
C6383 C6381 1.390 . S
C6383 C6384 1.387 . S
C6383 H6386 0.950 . S
C6384 C6383 1.387 . S
C6384 C6387 1.387 . S
H6385 C6381 0.950 . S
H6386 C6383 0.950 . S
C6387 C6378 1.390 . S
C6387 H6380 0.950 . S
C6387 C6384 1.387 . S
C6388 C6389 1.387 . S
C6388 H6392 0.950 . S
C6388 C6397 1.390 . S
C6389 C6388 1.387 . S
C6389 C6391 1.387 . S
H6390 C6397 0.950 . S
C6391 C6389 1.387 . S
C6391 C6393 1.390 . S
C6391 H6395 0.950 . S
H6392 C6388 0.950 . S
C6393 C6391 1.390 . S
C6393 C6394 1.387 . S
C6393 H6396 0.950 . S
C6394 C6393 1.387 . S
C6394 C6397 1.387 . S
H6395 C6391 0.950 . S
H6396 C6393 0.950 . S
C6397 C6388 1.390 . S
C6397 H6390 0.950 . S
C6397 C6394 1.387 . S
C6398 C6399 1.387 . S
C6398 H6402 0.950 . S
C6398 C6407 1.390 . S
C6399 C6398 1.387 . S
C6399 C6401 1.387 . S
H6400 C6407 0.950 . S
C6401 C6399 1.387 . S
C6401 C6403 1.390 . S
C6401 H6405 0.950 . S
H6402 C6398 0.950 . S
C6403 C6401 1.390 . S
C6403 C6404 1.387 . S
C6403 H6406 0.950 . S
C6404 C6403 1.387 . S
C6404 C6407 1.387 . S
H6405 C6401 0.950 . S
H6406 C6403 0.950 . S
C6407 C6398 1.390 . S
C6407 H6400 0.950 . S
C6407 C6404 1.387 . S
C6408 C6409 1.387 . S
C6408 H6412 0.950 . S
C6408 C6417 1.390 . S
C6409 C6408 1.387 . S
C6409 C6411 1.387 . S
H6410 C6417 0.950 . S
C6411 C6409 1.387 . S
C6411 C6413 1.390 . S
C6411 H6415 0.950 . S
H6412 C6408 0.950 . S
C6413 C6411 1.390 . S
C6413 C6414 1.387 . S
C6413 H6416 0.950 . S
C6414 C6413 1.387 . S
C6414 C6417 1.387 . S
H6415 C6411 0.950 . S
H6416 C6413 0.950 . S
C6417 C6408 1.390 . S
C6417 H6410 0.950 . S
C6417 C6414 1.387 . S
C6418 C6419 1.387 . S
C6418 H6422 0.950 . S
C6418 C6427 1.390 . S
C6419 C6418 1.387 . S
C6419 C6421 1.387 . S
H6420 C6427 0.950 . S
C6421 C6419 1.387 . S
C6421 C6423 1.390 . S
C6421 H6425 0.950 . S
H6422 C6418 0.950 . S
C6423 C6421 1.390 . S
C6423 C6424 1.387 . S
C6423 H6426 0.950 . S
C6424 C6423 1.387 . S
C6424 C6427 1.387 . S
H6425 C6421 0.950 . S
H6426 C6423 0.950 . S
C6427 C6418 1.390 . S
C6427 H6420 0.950 . S
C6427 C6424 1.387 . S
C6428 C6429 1.387 . S
C6428 H6432 0.950 . S
C6428 C6437 1.390 . S
C6429 C6428 1.387 . S
C6429 C6431 1.387 . S
H6430 C6437 0.950 . S
C6431 C6429 1.387 . S
C6431 C6433 1.390 . S
C6431 H6435 0.950 . S
H6432 C6428 0.950 . S
C6433 C6431 1.390 . S
C6433 C6434 1.387 . S
C6433 H6436 0.950 . S
C6434 C6433 1.387 . S
C6434 C6437 1.387 . S
H6435 C6431 0.950 . S
H6436 C6433 0.950 . S
C6437 C6428 1.390 . S
C6437 H6430 0.950 . S
C6437 C6434 1.387 . S
C6438 C6439 1.387 . S
C6438 H6442 0.950 . S
C6438 C6447 1.390 . S
C6439 C6438 1.387 . S
C6439 C6441 1.387 . S
H6440 C6447 0.950 . S
C6441 C6439 1.387 . S
C6441 C6443 1.390 . S
C6441 H6445 0.950 . S
H6442 C6438 0.950 . S
C6443 C6441 1.390 . S
C6443 C6444 1.387 . S
C6443 H6446 0.950 . S
C6444 C6443 1.387 . S
C6444 C6447 1.387 . S
H6445 C6441 0.950 . S
H6446 C6443 0.950 . S
C6447 C6438 1.390 . S
C6447 H6440 0.950 . S
C6447 C6444 1.387 . S
C6448 C6449 1.387 . S
C6448 H6452 0.950 . S
C6448 C6457 1.390 . S
C6449 C6448 1.387 . S
C6449 C6451 1.387 . S
H6450 C6457 0.950 . S
C6451 C6449 1.387 . S
C6451 C6453 1.390 . S
C6451 H6455 0.950 . S
H6452 C6448 0.950 . S
C6453 C6451 1.390 . S
C6453 C6454 1.387 . S
C6453 H6456 0.950 . S
C6454 C6453 1.387 . S
C6454 C6457 1.387 . S
H6455 C6451 0.950 . S
H6456 C6453 0.950 . S
C6457 C6448 1.390 . S
C6457 H6450 0.950 . S
C6457 C6454 1.387 . S
C6458 C6459 1.387 . S
C6458 H6462 0.950 . S
C6458 C6467 1.390 . S
C6459 C6458 1.387 . S
C6459 C6461 1.387 . S
H6460 C6467 0.950 . S
C6461 C6459 1.387 . S
C6461 C6463 1.390 . S
C6461 H6465 0.950 . S
H6462 C6458 0.950 . S
C6463 C6461 1.390 . S
C6463 C6464 1.387 . S
C6463 H6466 0.950 . S
C6464 C6463 1.387 . S
C6464 C6467 1.387 . S
H6465 C6461 0.950 . S
H6466 C6463 0.950 . S
C6467 C6458 1.390 . S
C6467 H6460 0.950 . S
C6467 C6464 1.387 . S
C6468 C6469 1.387 . S
C6468 H6472 0.950 . S
C6468 C6477 1.390 . S
C6469 C6468 1.387 . S
C6469 C6471 1.387 . S
H6470 C6477 0.950 . S
C6471 C6469 1.387 . S
C6471 C6473 1.390 . S
C6471 H6475 0.950 . S
H6472 C6468 0.950 . S
C6473 C6471 1.390 . S
C6473 C6474 1.387 . S
C6473 H6476 0.950 . S
C6474 C6473 1.387 . S
C6474 C6477 1.387 . S
H6475 C6471 0.950 . S
H6476 C6473 0.950 . S
C6477 C6468 1.390 . S
C6477 H6470 0.950 . S
C6477 C6474 1.387 . S
C6478 C6479 1.387 . S
C6478 H6482 0.950 . S
C6478 C6487 1.390 . S
C6479 C6478 1.387 . S
C6479 C6481 1.387 . S
H6480 C6487 0.950 . S
C6481 C6479 1.387 . S
C6481 C6483 1.390 . S
C6481 H6485 0.950 . S
H6482 C6478 0.950 . S
C6483 C6481 1.390 . S
C6483 C6484 1.387 . S
C6483 H6486 0.950 . S
C6484 C6483 1.387 . S
C6484 C6487 1.387 . S
H6485 C6481 0.950 . S
H6486 C6483 0.950 . S
C6487 C6478 1.390 . S
C6487 H6480 0.950 . S
C6487 C6484 1.387 . S
C6488 C6489 1.387 . S
C6488 H6492 0.950 . S
C6488 C6497 1.390 . S
C6489 C6488 1.387 . S
C6489 C6491 1.387 . S
H6490 C6497 0.950 . S
C6491 C6489 1.387 . S
C6491 C6493 1.390 . S
C6491 H6495 0.950 . S
H6492 C6488 0.950 . S
C6493 C6491 1.390 . S
C6493 C6494 1.387 . S
C6493 H6496 0.950 . S
C6494 C6493 1.387 . S
C6494 C6497 1.387 . S
H6495 C6491 0.950 . S
H6496 C6493 0.950 . S
C6497 C6488 1.390 . S
C6497 H6490 0.950 . S
C6497 C6494 1.387 . S
C6498 C6499 1.387 . S
C6498 H6502 0.950 . S
C6498 C6507 1.390 . S
C6499 C6498 1.387 . S
C6499 C6501 1.387 . S
H6500 C6507 0.950 . S
C6501 C6499 1.387 . S
C6501 C6503 1.390 . S
C6501 H6505 0.950 . S
H6502 C6498 0.950 . S
C6503 C6501 1.390 . S
C6503 C6504 1.387 . S
C6503 H6506 0.950 . S
C6504 C6503 1.387 . S
C6504 C6507 1.387 . S
H6505 C6501 0.950 . S
H6506 C6503 0.950 . S
C6507 C6498 1.390 . S
C6507 H6500 0.950 . S
C6507 C6504 1.387 . S
C6508 C6509 1.387 . S
C6508 H6512 0.950 . S
C6508 C6517 1.390 . S
C6509 C6508 1.387 . S
C6509 C6511 1.387 . S
H6510 C6517 0.950 . S
C6511 C6509 1.387 . S
C6511 C6513 1.390 . S
C6511 H6515 0.950 . S
H6512 C6508 0.950 . S
C6513 C6511 1.390 . S
C6513 C6514 1.387 . S
C6513 H6516 0.950 . S
C6514 C6513 1.387 . S
C6514 C6517 1.387 . S
H6515 C6511 0.950 . S
H6516 C6513 0.950 . S
C6517 C6508 1.390 . S
C6517 H6510 0.950 . S
C6517 C6514 1.387 . S
C6518 C6519 1.387 . S
C6518 H6522 0.950 . S
C6518 C6527 1.390 . S
C6519 C6518 1.387 . S
C6519 C6521 1.387 . S
H6520 C6527 0.950 . S
C6521 C6519 1.387 . S
C6521 C6523 1.390 . S
C6521 H6525 0.950 . S
H6522 C6518 0.950 . S
C6523 C6521 1.390 . S
C6523 C6524 1.387 . S
C6523 H6526 0.950 . S
C6524 C6523 1.387 . S
C6524 C6527 1.387 . S
H6525 C6521 0.950 . S
H6526 C6523 0.950 . S
C6527 C6518 1.390 . S
C6527 H6520 0.950 . S
C6527 C6524 1.387 . S
C2689 C1086 1.311 . S
C2694 C8 1.312 . S
C2699 C2444 1.312 . S
C2704 C22 1.311 . S
C2709 C1786 1.311 . S
C2714 C36 1.312 . S
C2719 C400 1.312 . S
C2724 C50 1.311 . S
C2729 C64 1.311 . S
C2734 C386 1.312 . S
C2739 C1016 1.312 . S
C2744 C78 1.311 . S
C2749 C2374 1.312 . S
C2754 C92 1.311 . S
C2759 C1716 1.311 . S
C2764 C106 1.312 . S
C2769 C2682 1.312 . S
C2774 C120 1.311 . S
C2779 C1310 1.311 . S
C2784 C134 1.312 . S
C2789 C148 1.312 . S
C2794 C652 1.311 . S
C2799 C568 1.312 . S
C2804 C162 1.311 . S
C2809 C1296 1.312 . S
C2814 C176 1.311 . S
C2819 C190 1.311 . S
C2824 C1926 1.312 . S
C2829 C596 1.312 . S
C2834 C204 1.311 . S
C2839 C218 1.311 . S
C2844 C1282 1.312 . S
C2849 C498 1.311 . S
C2854 C232 1.312 . S
C2859 C246 1.311 . S
C2864 C1870 1.312 . S
C2869 C260 1.312 . S
C2874 C540 1.311 . S
C2879 C1226 1.312 . S
C2884 C274 1.311 . S
C2889 C288 1.312 . S
C2894 C1184 1.311 . S
C2899 C1142 1.311 . S
C2904 C302 1.312 . S
C2909 C316 1.311 . S
C2914 C484 1.312 . S
C2919 C2472 1.311 . S
C2924 C330 1.312 . S
C2929 C344 1.312 . S
C2934 C750 1.311 . S
C2939 C358 1.311 . S
C2944 C2108 1.312 . S
C2949 C1450 1.311 . S
C2954 C372 1.312 . S
C2959 C414 1.312 . S
C2964 C680 1.311 . S
C2969 C428 1.312 . S
C2974 C2038 1.311 . S
C2979 C1380 1.311 . S
C2984 C442 1.312 . S
C2989 C456 1.311 . S
C2994 C2346 1.312 . S
C2999 C974 1.311 . S
C3004 C470 1.312 . S
C3009 C960 1.311 . S
C3014 C512 1.312 . S
C3019 C526 1.312 . S
C3024 C1590 1.311 . S
C3029 C946 1.311 . S
C3034 C554 1.312 . S
C3039 C1534 1.311 . S
C3044 C582 1.312 . S
C3049 C890 1.311 . S
C3054 C610 1.312 . S
C3059 C624 1.312 . S
C3064 C848 1.311 . S
C3069 C638 1.312 . S
C3074 C806 1.311 . S
C3079 C2136 1.311 . S
C3084 C666 1.312 . S
C3089 C1772 1.312 . S
C3094 C694 1.311 . S
C3099 C2458 1.311 . S
C3104 C708 1.312 . S
C3109 C1072 1.312 . S
C3114 C722 1.311 . S
C3119 C1058 1.311 . S
C3124 C736 1.312 . S
C3129 C1702 1.311 . S
C3134 C764 1.312 . S
C3139 C2388 1.312 . S
C3144 C778 1.311 . S
C3149 C792 1.312 . S
C3154 C2010 1.311 . S
C3159 C1324 1.311 . S
C3164 C820 1.312 . S
C3169 C1240 1.311 . S
C3174 C834 1.312 . S
C3179 C862 1.311 . S
C3184 C2598 1.312 . S
C3189 C876 1.312 . S
C3194 C1268 1.311 . S
C3199 C1170 1.311 . S
C3204 C904 1.312 . S
C3209 C918 1.312 . S
C3214 C2542 1.311 . S
C3219 C932 1.311 . S
C3224 C1212 1.312 . S
C3229 C988 1.312 . S
C3234 C1156 1.311 . S
C3239 C1800 1.312 . S
C3244 C1002 1.311 . S
C3249 C1436 1.312 . S
C3254 C1030 1.311 . S
C3259 C1044 1.311 . S
C3264 C2122 1.312 . S
C3269 C1100 1.312 . S
C3274 C1366 1.311 . S
C3279 C1114 1.312 . S
C3284 C2052 1.311 . S
C3289 C1674 1.312 . S
C3294 C1128 1.311 . S
C3299 C1198 1.312 . S
C3304 C2262 1.311 . S
C3309 C2206 1.312 . S
C3314 C1254 1.311 . S
C3319 C1464 1.311 . S
C3324 C1338 1.312 . S
C3329 C1352 1.312 . S
C3334 C2430 1.311 . S
C3339 C1744 1.312 . S
C3344 C1394 1.311 . S
C3349 C1730 1.311 . S
C3354 C1408 1.312 . S
C3359 C1422 1.312 . S
C3364 C2360 1.311 . S
C3369 C1478 1.311 . S
C3374 C2654 1.312 . S
C3379 C1492 1.312 . S
C3384 C1996 1.311 . S
C3389 C1912 1.311 . S
C3394 C1506 1.312 . S
C3399 C2640 1.312 . S
C3404 C1520 1.311 . S
C3409 C1940 1.311 . S
C3414 C1548 1.312 . S
C3419 C2626 1.312 . S
C3424 C1562 1.311 . S
C3429 C1842 1.311 . S
C3434 C1576 1.312 . S
C3439 C1604 1.311 . S
C3444 C1884 1.312 . S
C3449 C2570 1.311 . S
C3454 C1618 1.312 . S
C3459 C2528 1.312 . S
C3464 C1632 1.311 . S
C3469 C1646 1.311 . S
C3474 C2486 1.312 . S
C3479 C1660 1.312 . S
C3484 C1828 1.311 . S
C3489 C1688 1.312 . S
C3494 C2094 1.311 . S
C3499 C2024 1.312 . S
C3504 C1758 1.311 . S
C3509 C2318 1.312 . S
C3514 C1814 1.311 . S
C3519 C2304 1.311 . S
C3524 C1856 1.312 . S
C3529 C2290 1.312 . S
C3534 C1898 1.311 . S
C3539 C2234 1.311 . S
C3544 C1954 1.312 . S
C3549 C1968 1.312 . S
C3554 C2192 1.311 . S
C3559 C2150 1.312 . S
C3564 C1982 1.311 . S
C3569 C2416 1.312 . S
C3574 C2066 1.311 . S
C3579 C2402 1.311 . S
C3584 C2080 1.312 . S
C3589 C2164 1.311 . S
C3594 C2668 1.312 . S
C3599 C2178 1.311 . S
C3604 C2584 1.312 . S
C3609 C2612 1.311 . S
C3614 C2220 1.312 . S
C3619 C2248 1.311 . S
C3624 C2514 1.312 . S
C3629 C2556 1.312 . S
C3634 C2276 1.311 . S
C3639 C2500 1.312 . S
C3644 C2332 1.311 . S
C3649 C441 1.524 . S
C3654 C7 1.527 . S
C3659 C21 1.527 . S
C3664 C1071 1.524 . S
C3669 C2429 1.527 . S
C3674 C35 1.524 . S
C3679 C1771 1.527 . S
C3684 C49 1.524 . S
C3689 C63 1.524 . S
C3694 C1029 1.527 . S
C3699 C2387 1.527 . S
C3704 C77 1.524 . S
C3709 C91 1.524 . S
C3714 C1729 1.527 . S
C3719 C105 1.524 . S
C3724 C343 1.527 . S
C3729 C119 1.527 . S
C3734 C1295 1.524 . S
C3739 C133 1.524 . S
C3744 C1925 1.527 . S
C3749 C147 1.524 . S
C3754 C595 1.527 . S
C3759 C1281 1.524 . S
C3764 C161 1.527 . S
C3769 C175 1.524 . S
C3774 C2681 1.527 . S
C3779 C1309 1.527 . S
C3784 C189 1.524 . S
C3789 C203 1.524 . S
C3794 C651 1.527 . S
C3799 C567 1.524 . S
C3804 C217 1.527 . S
C3809 C231 1.524 . S
C3814 C553 1.527 . S
C3819 C245 1.524 . S
C3824 C1813 1.527 . S
C3829 C483 1.527 . S
C3834 C259 1.524 . S
C3839 C1169 1.524 . S
C3844 C273 1.527 . S
C3849 C287 1.527 . S
C3854 C1127 1.524 . S
C3859 C301 1.524 . S
C3864 C1197 1.527 . S
C3869 C315 1.524 . S
C3874 C539 1.527 . S
C3879 C2527 1.527 . S
C3884 C329 1.524 . S
C3889 C735 1.527 . S
C3894 C357 1.524 . S
C3899 C371 1.527 . S
C3904 C2093 1.524 . S
C3909 C1435 1.527 . S
C3914 C385 1.524 . S
C3919 C399 1.524 . S
C3924 C693 1.527 . S
C3929 C2051 1.527 . S
C3934 C413 1.524 . S
C3939 C427 1.524 . S
C3944 C1393 1.527 . S
C3949 C455 1.524 . S
C3954 C959 1.527 . S
C3959 C469 1.524 . S
C3964 C1589 1.527 . S
C3969 C497 1.527 . S
C3974 C945 1.524 . S
C3979 C2345 1.524 . S
C3984 C511 1.527 . S
C3989 C525 1.524 . S
C3994 C973 1.527 . S
C3999 C1477 1.524 . S
C4004 C581 1.527 . S
C4009 C833 1.527 . S
C4014 C609 1.524 . S
C4019 C623 1.524 . S
C4024 C791 1.527 . S
C4029 C861 1.527 . S
C4034 C637 1.524 . S
C4039 C665 1.524 . S
C4044 C2191 1.527 . S
C4049 C679 1.527 . S
C4054 C1113 1.524 . S
C4059 C707 1.524 . S
C4064 C1757 1.527 . S
C4069 C2443 1.524 . S
C4074 C721 1.527 . S
C4079 C749 1.524 . S
C4084 C1715 1.527 . S
C4089 C2401 1.524 . S
C4094 C763 1.527 . S
C4099 C777 1.527 . S
C4104 C1015 1.524 . S
C4109 C2597 1.524 . S
C4114 C805 1.527 . S
C4119 C819 1.527 . S
C4124 C1267 1.524 . S
C4129 C2009 1.527 . S
C4134 C847 1.524 . S
C4139 C1323 1.524 . S
C4144 C875 1.527 . S
C4149 C889 1.527 . S
C4154 C1239 1.524 . S
C4159 C903 1.527 . S
C4164 C1225 1.524 . S
C4169 C2485 1.524 . S
C4174 C917 1.527 . S
C4179 C1155 1.524 . S
C4184 C931 1.527 . S
C4189 C1211 1.524 . S
C4194 C987 1.527 . S
C4199 C1001 1.527 . S
C4204 C1855 1.524 . S
C4209 C1043 1.524 . S
C4214 C1421 1.527 . S
C4219 C1057 1.524 . S
C4224 C2107 1.527 . S
C4229 C1379 1.527 . S
C4234 C1085 1.524 . S
C4239 C1099 1.527 . S
C4244 C2065 1.524 . S
C4249 C2261 1.527 . S
C4254 C1141 1.524 . S
C4259 C1673 1.527 . S
C4264 C1183 1.524 . S
C4269 C2149 1.527 . S
C4274 C1253 1.524 . S
C4279 C1519 1.524 . S
C4284 C1337 1.527 . S
C4289 C1351 1.524 . S
C4294 C1785 1.527 . S
C4299 C1365 1.524 . S
C4304 C2415 1.527 . S
C4309 C2373 1.527 . S
C4314 C1407 1.524 . S
C4319 C1687 1.524 . S
C4324 C1449 1.527 . S
C4329 C1463 1.527 . S
C4334 C2639 1.524 . S
C4339 C1491 1.527 . S
C4344 C1939 1.524 . S
C4349 C2625 1.527 . S
C4354 C1505 1.524 . S
C4359 C2653 1.527 . S
C4364 C1533 1.524 . S
C4369 C1547 1.527 . S
C4374 C1995 1.524 . S
C4379 C1561 1.527 . S
C4384 C1911 1.524 . S
C4389 C1897 1.527 . S
C4394 C1575 1.524 . S
C4399 C1827 1.524 . S
C4404 C1603 1.527 . S
C4409 C1617 1.524 . S
C4414 C2513 1.527 . S
C4419 C1631 1.524 . S
C4424 C2471 1.527 . S
C4429 C2541 1.527 . S
C4434 C1645 1.524 . S
C4439 C1883 1.527 . S
C4444 C1659 1.524 . S
C4449 C2079 1.524 . S
C4454 C1701 1.527 . S
C4459 C1743 1.524 . S
C4464 C2037 1.527 . S
C4469 C1799 1.527 . S
C4474 C2303 1.524 . S
C4479 C1841 1.527 . S
C4484 C2289 1.524 . S
C4489 C1869 1.524 . S
C4494 C2317 1.527 . S
C4499 C1953 1.527 . S
C4504 C2177 1.524 . S
C4509 C1967 1.524 . S
C4514 C2135 1.527 . S
C4519 C1981 1.524 . S
C4524 C2205 1.527 . S
C4529 C2457 1.527 . S
C4534 C2023 1.524 . S
C4539 C2359 1.527 . S
C4544 C2121 1.524 . S
C4549 C2163 1.527 . S
C4554 C2611 1.524 . S
C4559 C2219 1.524 . S
C4564 C2667 1.527 . S
C4569 C2583 1.524 . S
C4574 C2233 1.527 . S
C4579 C2569 1.527 . S
C4584 C2247 1.524 . S
C4589 C2499 1.527 . S
C4594 C2275 1.524 . S
C4599 C2555 1.524 . S
C4604 C2331 1.527 . S
C4609 C2635 1.484 . S
C4614 C3 1.484 . S
C4619 C17 1.484 . S
C4624 C2593 1.484 . S
C4629 C31 1.484 . S
C4634 C1935 1.484 . S
C4639 C605 1.484 . S
C4644 C45 1.484 . S
C4649 C59 1.484 . S
C4654 C1333 1.484 . S
C4659 C633 1.484 . S
C4664 C73 1.484 . S
C4669 C1991 1.484 . S
C4674 C87 1.484 . S
C4679 C101 1.484 . S
C4684 C1235 1.484 . S
C4689 C115 1.484 . S
C4694 C2565 1.484 . S
C4699 C1851 1.484 . S
C4704 C129 1.484 . S
C4709 C143 1.484 . S
C4714 C521 1.484 . S
C4719 C157 1.484 . S
C4724 C1207 1.484 . S
C4729 C1809 1.484 . S
C4734 C171 1.484 . S
C4739 C185 1.484 . S
C4744 C479 1.484 . S
C4749 C1165 1.484 . S
C4754 C199 1.484 . S
C4759 C213 1.484 . S
C4764 C2467 1.484 . S
C4769 C227 1.484 . S
C4774 C1109 1.484 . S
C4779 C2369 1.484 . S
C4784 C241 1.484 . S
C4789 C1711 1.484 . S
C4794 C255 1.484 . S
C4799 C381 1.484 . S
C4804 C269 1.484 . S
C4809 C283 1.484 . S
C4814 C2355 1.484 . S
C4819 C297 1.484 . S
C4824 C409 1.484 . S
C4829 C311 1.484 . S
C4834 C1767 1.484 . S
C4839 C1067 1.484 . S
C4844 C325 1.484 . S
C4849 C339 1.484 . S
C4854 C2299 1.484 . S
C4859 C353 1.484 . S
C4864 C2257 1.484 . S
C4869 C367 1.484 . S
C4874 C1599 1.484 . S
C4879 C395 1.484 . S
C4884 C997 1.484 . S
C4889 C1655 1.484 . S
C4894 C423 1.484 . S
C4899 C437 1.484 . S
C4904 C899 1.484 . S
C4909 C2229 1.484 . S
C4914 C451 1.484 . S
C4919 C1515 1.484 . S
C4924 C465 1.484 . S
C4929 C493 1.484 . S
C4934 C871 1.484 . S
C4939 C1473 1.484 . S
C4944 C507 1.484 . S
C4949 C535 1.484 . S
C4954 C829 1.484 . S
C4959 C2131 1.484 . S
C4964 C549 1.484 . S
C4969 C773 1.484 . S
C4974 C563 1.484 . S
C4979 C577 1.484 . S
C4984 C2033 1.484 . S
C4989 C1375 1.484 . S
C4994 C591 1.484 . S
C4999 C2019 1.484 . S
C5004 C619 1.484 . S
C5009 C1431 1.484 . S
C5014 C647 1.484 . S
C5019 C661 1.484 . S
C5024 C731 1.484 . S
C5029 C1963 1.484 . S
C5034 C675 1.484 . S
C5039 C1921 1.484 . S
C5044 C689 1.484 . S
C5049 C703 1.484 . S
C5054 C2607 1.484 . S
C5059 C717 1.484 . S
C5064 C1277 1.484 . S
C5069 C1305 1.484 . S
C5074 C745 1.484 . S
C5079 C759 1.484 . S
C5084 C2663 1.484 . S
C5089 C787 1.484 . S
C5094 C1893 1.484 . S
C5099 C801 1.484 . S
C5104 C2523 1.484 . S
C5109 C1193 1.484 . S
C5114 C815 1.484 . S
C5119 C843 1.484 . S
C5124 C2481 1.484 . S
C5129 C1151 1.484 . S
C5134 C857 1.484 . S
C5139 C1795 1.484 . S
C5144 C885 1.484 . S
C5149 C1697 1.484 . S
C5154 C913 1.484 . S
C5159 C2383 1.484 . S
C5164 C927 1.484 . S
C5169 C941 1.484 . S
C5174 C1053 1.484 . S
C5179 C955 1.484 . S
C5184 C1683 1.484 . S
C5189 C969 1.484 . S
C5194 C1081 1.484 . S
C5199 C2439 1.484 . S
C5204 C983 1.484 . S
C5209 C1011 1.484 . S
C5214 C1627 1.484 . S
C5219 C1585 1.484 . S
C5224 C1025 1.484 . S
C5229 C1039 1.484 . S
C5234 C2271 1.484 . S
C5239 C1095 1.484 . S
C5244 C2327 1.484 . S
C5249 C1557 1.484 . S
C5254 C1123 1.484 . S
C5259 C1137 1.484 . S
C5264 C2187 1.484 . S
C5269 C1179 1.484 . S
C5274 C2145 1.484 . S
C5279 C1221 1.484 . S
C5284 C1459 1.484 . S
C5289 C1361 1.484 . S
C5294 C1249 1.484 . S
C5299 C2047 1.484 . S
C5304 C1263 1.484 . S
C5309 C1291 1.484 . S
C5314 C1347 1.484 . S
C5319 C1319 1.484 . S
C5324 C2103 1.484 . S
C5329 C1949 1.484 . S
C5334 C1389 1.484 . S
C5339 C2677 1.484 . S
C5344 C1403 1.484 . S
C5349 C1977 1.484 . S
C5354 C1417 1.484 . S
C5359 C2579 1.484 . S
C5364 C1445 1.484 . S
C5369 C1865 1.484 . S
C5374 C1487 1.484 . S
C5379 C1501 1.484 . S
C5384 C2551 1.484 . S
C5389 C1823 1.484 . S
C5394 C1529 1.484 . S
C5399 C1543 1.484 . S
C5404 C2509 1.484 . S
C5409 C1571 1.484 . S
C5414 C2453 1.484 . S
C5419 C1613 1.484 . S
C5424 C1725 1.484 . S
C5429 C1641 1.484 . S
C5434 C1753 1.484 . S
C5439 C1669 1.484 . S
C5444 C2411 1.484 . S
C5449 C1739 1.484 . S
C5454 C2341 1.484 . S
C5459 C1781 1.484 . S
C5464 C2243 1.484 . S
C5469 C1837 1.484 . S
C5474 C2215 1.484 . S
C5479 C1879 1.484 . S
C5484 C2173 1.484 . S
C5489 C2117 1.484 . S
C5494 C1907 1.484 . S
C5499 C2075 1.484 . S
C5504 C2005 1.484 . S
C5509 C2621 1.484 . S
C5514 C2061 1.484 . S
C5519 C2649 1.484 . S
C5524 C2089 1.484 . S
C5529 C2537 1.484 . S
C5534 C2159 1.484 . S
C5539 C2201 1.484 . S
C5544 C2495 1.484 . S
C5549 C2285 1.484 . S
C5554 C2397 1.484 . S
C5559 C2425 1.484 . S
C5564 C2313 1.484 . S
C5569 C891 1.445 . S
C5574 C9 1.443 . S
C5579 C23 1.443 . S
C5584 C1521 1.444 . S
C5589 C863 1.445 . S
C5594 C37 1.442 . S
C5599 C1549 1.443 . S
C5604 C51 1.445 . S
C5609 C65 1.445 . S
C5614 C807 1.442 . S
C5619 C1493 1.442 . S
C5624 C79 1.445 . S
C5629 C835 1.443 . S
C5634 C93 1.445 . S
C5639 C107 1.442 . S
C5644 C1465 1.445 . S
C5649 C1451 1.442 . S
C5654 C121 1.445 . S
C5659 C737 1.444 . S
C5664 C135 1.444 . S
C5669 C149 1.443 . S
C5674 C1423 1.445 . S
C5679 C163 1.445 . S
C5684 C765 1.442 . S
C5689 C1367 1.445 . S
C5694 C177 1.443 . S
C5699 C709 1.443 . S
C5704 C191 1.445 . S
C5709 C1395 1.445 . S
C5714 C205 1.443 . S
C5719 C219 1.445 . S
C5724 C681 1.443 . S
C5729 C1633 1.444 . S
C5734 C233 1.444 . S
C5739 C1675 1.442 . S
C5744 C247 1.445 . S
C5749 C261 1.445 . S
C5754 C1647 1.442 . S
C5759 C1661 1.445 . S
C5764 C275 1.442 . S
C5769 C289 1.443 . S
C5774 C1577 1.445 . S
C5779 C1605 1.443 . S
C5784 C303 1.445 . S
C5789 C1619 1.442 . S
C5794 C317 1.445 . S
C5799 C331 1.442 . S
C5804 C1591 1.445 . S
C5809 C1227 1.444 . S
C5814 C345 1.444 . S
C5819 C359 1.442 . S
C5824 C1857 1.445 . S
C5829 C1199 1.445 . S
C5834 C373 1.443 . S
C5839 C387 1.445 . S
C5844 C1885 1.443 . S
C5849 C401 1.444 . S
C5854 C1143 1.444 . S
C5859 C1829 1.443 . S
C5864 C415 1.445 . S
C5869 C429 1.443 . S
C5874 C1171 1.444 . S
C5879 C443 1.445 . S
C5884 C1801 1.442 . S
C5889 C1787 1.442 . S
C5894 C457 1.445 . S
C5899 C1073 1.444 . S
C5904 C471 1.444 . S
C5909 C485 1.442 . S
C5914 C1759 1.445 . S
C5919 C1101 1.444 . S
C5924 C499 1.443 . S
C5929 C513 1.443 . S
C5934 C1703 1.445 . S
C5939 C1045 1.444 . S
C5944 C527 1.443 . S
C5949 C1731 1.442 . S
C5954 C541 1.445 . S
C5959 C555 1.445 . S
C5964 C1017 1.443 . S
C5969 C1969 1.443 . S
C5974 C569 1.445 . S
C5979 C583 1.445 . S
C5984 C2011 1.442 . S
C5989 C1983 1.445 . S
C5994 C597 1.442 . S
C5999 C1997 1.444 . S
C6004 C611 1.444 . S
C6009 C1913 1.445 . S
C6014 C625 1.442 . S
C6019 C639 1.445 . S
C6024 C1941 1.443 . S
C6029 C653 1.445 . S
C6034 C1955 1.442 . S
C6039 C1927 1.445 . S
C6044 C667 1.443 . S
C6049 C2193 1.445 . S
C6054 C695 1.442 . S
C6059 C2221 1.443 . S
C6064 C723 1.445 . S
C6069 C751 1.445 . S
C6074 C2165 1.442 . S
C6079 C2137 1.445 . S
C6084 C779 1.442 . S
C6089 C793 1.443 . S
C6094 C2123 1.445 . S
C6099 C821 1.445 . S
C6104 C2095 1.442 . S
C6109 C2039 1.444 . S
C6114 C849 1.444 . S
C6119 C877 1.445 . S
C6124 C2067 1.442 . S
C6129 C905 1.445 . S
C6134 C2305 1.443 . S
C6139 C2347 1.445 . S
C6144 C919 1.442 . S
C6149 C933 1.445 . S
C6154 C2319 1.442 . S
C6159 C2333 1.443 . S
C6164 C947 1.445 . S
C6169 C2249 1.443 . S
C6174 C961 1.445 . S
C6179 C975 1.442 . S
C6184 C2277 1.445 . S
C6189 C989 1.443 . S
C6194 C2291 1.445 . S
C6199 C2263 1.442 . S
C6204 C1003 1.445 . S
C6209 C2529 1.442 . S
C6214 C1031 1.445 . S
C6219 C2557 1.445 . S
C6224 C1059 1.442 . S
C6229 C2501 1.445 . S
C6234 C1087 1.442 . S
C6239 C2473 1.444 . S
C6244 C1115 1.444 . S
C6249 C1129 1.442 . S
C6254 C2459 1.445 . S
C6259 C2431 1.443 . S
C6264 C1157 1.445 . S
C6269 C2375 1.443 . S
C6274 C1185 1.445 . S
C6279 C2403 1.445 . S
C6284 C1213 1.443 . S
C6289 C1241 1.445 . S
C6294 C2641 1.443 . S
C6299 C2683 1.445 . S
C6304 C1255 1.442 . S
C6309 C1269 1.442 . S
C6314 C2655 1.445 . S
C6319 C2669 1.445 . S
C6324 C1283 1.443 . S
C6329 C1297 1.443 . S
C6334 C2585 1.445 . S
C6339 C1311 1.443 . S
C6344 C2613 1.445 . S
C6349 C2627 1.443 . S
C6354 C1325 1.445 . S
C6359 C2599 1.444 . S
C6364 C1339 1.443 . S
C6369 C2235 1.444 . S
C6374 C1353 1.443 . S
C6379 C1381 1.444 . S
C6384 C2207 1.444 . S
C6389 C2151 1.445 . S
C6394 C1409 1.442 . S
C6399 C1437 1.445 . S
C6404 C2179 1.443 . S
C6409 C1479 1.445 . S
C6414 C2081 1.443 . S
C6419 C1507 1.445 . S
C6424 C2109 1.443 . S
C6429 C2053 1.443 . S
C6434 C1535 1.445 . S
C6439 C1563 1.444 . S
C6444 C2025 1.445 . S
C6449 C2571 1.442 . S
C6454 C1689 1.445 . S
C6459 C2543 1.443 . S
C6464 C1717 1.444 . S
C6469 C2487 1.445 . S
C6474 C1745 1.443 . S
C6479 C2515 1.443 . S
C6484 C1773 1.444 . S
C6489 C2417 1.443 . S
C6494 C1815 1.444 . S
C6499 C1843 1.444 . S
C6504 C2445 1.443 . S
C6509 C1871 1.445 . S
C6514 C2389 1.443 . S
C6519 C2361 1.445 . S
C6524 C1899 1.444 . S
