# Generated by pormake.
# Topology mer, (4)-cn, num edge types: 1
# Building blocks:
#     Node 0, Type 0, BuildingBlock: GALJAG_clean_sbu_0, # of connection points: 4
#     Node 1, Type 0, BuildingBlock: GALJAG_clean_sbu_0, # of connection points: 4
#     Node 2, Type 0, BuildingBlock: GALJAG_clean_sbu_0, # of connection points: 4
#     Node 3, Type 0, BuildingBlock: GALJAG_clean_sbu_0, # of connection points: 4
#     Node 4, Type 0, BuildingBlock: GALJAG_clean_sbu_0, # of connection points: 4
#     Node 5, Type 0, BuildingBlock: GALJAG_clean_sbu_0, # of connection points: 4
#     Node 6, Type 0, BuildingBlock: GALJAG_clean_sbu_0, # of connection points: 4
#     Node 7, Type 0, BuildingBlock: GALJAG_clean_sbu_0, # of connection points: 4
#     Node 8, Type 0, BuildingBlock: GALJAG_clean_sbu_0, # of connection points: 4
#     Node 9, Type 0, BuildingBlock: GALJAG_clean_sbu_0, # of connection points: 4
#     Node 10, Type 0, BuildingBlock: GALJAG_clean_sbu_0, # of connection points: 4
#     Node 11, Type 0, BuildingBlock: GALJAG_clean_sbu_0, # of connection points: 4
#     Node 12, Type 0, BuildingBlock: GALJAG_clean_sbu_0, # of connection points: 4
#     Node 13, Type 0, BuildingBlock: GALJAG_clean_sbu_0, # of connection points: 4
#     Node 14, Type 0, BuildingBlock: GALJAG_clean_sbu_0, # of connection points: 4
#     Node 15, Type 0, BuildingBlock: GALJAG_clean_sbu_0, # of connection points: 4
#     Node 16, Type 0, BuildingBlock: GALJAG_clean_sbu_0, # of connection points: 4
#     Node 17, Type 0, BuildingBlock: GALJAG_clean_sbu_0, # of connection points: 4
#     Node 18, Type 0, BuildingBlock: GALJAG_clean_sbu_0, # of connection points: 4
#     Node 19, Type 0, BuildingBlock: GALJAG_clean_sbu_0, # of connection points: 4
#     Node 20, Type 0, BuildingBlock: GALJAG_clean_sbu_0, # of connection points: 4
#     Node 21, Type 0, BuildingBlock: GALJAG_clean_sbu_0, # of connection points: 4
#     Node 22, Type 0, BuildingBlock: GALJAG_clean_sbu_0, # of connection points: 4
#     Node 23, Type 0, BuildingBlock: GALJAG_clean_sbu_0, # of connection points: 4
#     Node 24, Type 0, BuildingBlock: GALJAG_clean_sbu_0, # of connection points: 4
#     Node 25, Type 0, BuildingBlock: GALJAG_clean_sbu_0, # of connection points: 4
#     Node 26, Type 0, BuildingBlock: GALJAG_clean_sbu_0, # of connection points: 4
#     Node 27, Type 0, BuildingBlock: GALJAG_clean_sbu_0, # of connection points: 4
#     Node 28, Type 0, BuildingBlock: GALJAG_clean_sbu_0, # of connection points: 4
#     Node 29, Type 0, BuildingBlock: GALJAG_clean_sbu_0, # of connection points: 4
#     Node 30, Type 0, BuildingBlock: GALJAG_clean_sbu_0, # of connection points: 4
#     Node 31, Type 0, BuildingBlock: GALJAG_clean_sbu_0, # of connection points: 4
#     Edge 32, Type (0, 0), BuildingBlock: CIFDUS_clean_linker_0, # of connection points: 2
#     Edge 33, Type (0, 0), BuildingBlock: CIFDUS_clean_linker_0, # of connection points: 2
#     Edge 34, Type (0, 0), BuildingBlock: CIFDUS_clean_linker_0, # of connection points: 2
#     Edge 35, Type (0, 0), BuildingBlock: CIFDUS_clean_linker_0, # of connection points: 2
#     Edge 36, Type (0, 0), BuildingBlock: CIFDUS_clean_linker_0, # of connection points: 2
#     Edge 37, Type (0, 0), BuildingBlock: CIFDUS_clean_linker_0, # of connection points: 2
#     Edge 38, Type (0, 0), BuildingBlock: CIFDUS_clean_linker_0, # of connection points: 2
#     Edge 39, Type (0, 0), BuildingBlock: CIFDUS_clean_linker_0, # of connection points: 2
#     Edge 40, Type (0, 0), BuildingBlock: CIFDUS_clean_linker_0, # of connection points: 2
#     Edge 41, Type (0, 0), BuildingBlock: CIFDUS_clean_linker_0, # of connection points: 2
#     Edge 42, Type (0, 0), BuildingBlock: CIFDUS_clean_linker_0, # of connection points: 2
#     Edge 43, Type (0, 0), BuildingBlock: CIFDUS_clean_linker_0, # of connection points: 2
#     Edge 44, Type (0, 0), BuildingBlock: CIFDUS_clean_linker_0, # of connection points: 2
#     Edge 45, Type (0, 0), BuildingBlock: CIFDUS_clean_linker_0, # of connection points: 2
#     Edge 46, Type (0, 0), BuildingBlock: CIFDUS_clean_linker_0, # of connection points: 2
#     Edge 47, Type (0, 0), BuildingBlock: CIFDUS_clean_linker_0, # of connection points: 2
#     Edge 48, Type (0, 0), BuildingBlock: CIFDUS_clean_linker_0, # of connection points: 2
#     Edge 49, Type (0, 0), BuildingBlock: CIFDUS_clean_linker_0, # of connection points: 2
#     Edge 50, Type (0, 0), BuildingBlock: CIFDUS_clean_linker_0, # of connection points: 2
#     Edge 51, Type (0, 0), BuildingBlock: CIFDUS_clean_linker_0, # of connection points: 2
#     Edge 52, Type (0, 0), BuildingBlock: CIFDUS_clean_linker_0, # of connection points: 2
#     Edge 53, Type (0, 0), BuildingBlock: CIFDUS_clean_linker_0, # of connection points: 2
#     Edge 54, Type (0, 0), BuildingBlock: CIFDUS_clean_linker_0, # of connection points: 2
#     Edge 55, Type (0, 0), BuildingBlock: CIFDUS_clean_linker_0, # of connection points: 2
#     Edge 56, Type (0, 0), BuildingBlock: CIFDUS_clean_linker_0, # of connection points: 2
#     Edge 57, Type (0, 0), BuildingBlock: CIFDUS_clean_linker_0, # of connection points: 2
#     Edge 58, Type (0, 0), BuildingBlock: CIFDUS_clean_linker_0, # of connection points: 2
#     Edge 59, Type (0, 0), BuildingBlock: CIFDUS_clean_linker_0, # of connection points: 2
#     Edge 60, Type (0, 0), BuildingBlock: CIFDUS_clean_linker_0, # of connection points: 2
#     Edge 61, Type (0, 0), BuildingBlock: CIFDUS_clean_linker_0, # of connection points: 2
#     Edge 62, Type (0, 0), BuildingBlock: CIFDUS_clean_linker_0, # of connection points: 2
#     Edge 63, Type (0, 0), BuildingBlock: CIFDUS_clean_linker_0, # of connection points: 2
#     Edge 64, Type (0, 0), BuildingBlock: CIFDUS_clean_linker_0, # of connection points: 2
#     Edge 65, Type (0, 0), BuildingBlock: CIFDUS_clean_linker_0, # of connection points: 2
#     Edge 66, Type (0, 0), BuildingBlock: CIFDUS_clean_linker_0, # of connection points: 2
#     Edge 67, Type (0, 0), BuildingBlock: CIFDUS_clean_linker_0, # of connection points: 2
#     Edge 68, Type (0, 0), BuildingBlock: CIFDUS_clean_linker_0, # of connection points: 2
#     Edge 69, Type (0, 0), BuildingBlock: CIFDUS_clean_linker_0, # of connection points: 2
#     Edge 70, Type (0, 0), BuildingBlock: CIFDUS_clean_linker_0, # of connection points: 2
#     Edge 71, Type (0, 0), BuildingBlock: CIFDUS_clean_linker_0, # of connection points: 2
#     Edge 72, Type (0, 0), BuildingBlock: CIFDUS_clean_linker_0, # of connection points: 2
#     Edge 73, Type (0, 0), BuildingBlock: CIFDUS_clean_linker_0, # of connection points: 2
#     Edge 74, Type (0, 0), BuildingBlock: CIFDUS_clean_linker_0, # of connection points: 2
#     Edge 75, Type (0, 0), BuildingBlock: CIFDUS_clean_linker_0, # of connection points: 2
#     Edge 76, Type (0, 0), BuildingBlock: CIFDUS_clean_linker_0, # of connection points: 2
#     Edge 77, Type (0, 0), BuildingBlock: CIFDUS_clean_linker_0, # of connection points: 2
#     Edge 78, Type (0, 0), BuildingBlock: CIFDUS_clean_linker_0, # of connection points: 2
#     Edge 79, Type (0, 0), BuildingBlock: CIFDUS_clean_linker_0, # of connection points: 2
#     Edge 80, Type (0, 0), BuildingBlock: CIFDUS_clean_linker_0, # of connection points: 2
#     Edge 81, Type (0, 0), BuildingBlock: CIFDUS_clean_linker_0, # of connection points: 2
#     Edge 82, Type (0, 0), BuildingBlock: CIFDUS_clean_linker_0, # of connection points: 2
#     Edge 83, Type (0, 0), BuildingBlock: CIFDUS_clean_linker_0, # of connection points: 2
#     Edge 84, Type (0, 0), BuildingBlock: CIFDUS_clean_linker_0, # of connection points: 2
#     Edge 85, Type (0, 0), BuildingBlock: CIFDUS_clean_linker_0, # of connection points: 2
#     Edge 86, Type (0, 0), BuildingBlock: CIFDUS_clean_linker_0, # of connection points: 2
#     Edge 87, Type (0, 0), BuildingBlock: CIFDUS_clean_linker_0, # of connection points: 2
#     Edge 88, Type (0, 0), BuildingBlock: CIFDUS_clean_linker_0, # of connection points: 2
#     Edge 89, Type (0, 0), BuildingBlock: CIFDUS_clean_linker_0, # of connection points: 2
#     Edge 90, Type (0, 0), BuildingBlock: CIFDUS_clean_linker_0, # of connection points: 2
#     Edge 91, Type (0, 0), BuildingBlock: CIFDUS_clean_linker_0, # of connection points: 2
#     Edge 92, Type (0, 0), BuildingBlock: CIFDUS_clean_linker_0, # of connection points: 2
#     Edge 93, Type (0, 0), BuildingBlock: CIFDUS_clean_linker_0, # of connection points: 2
#     Edge 94, Type (0, 0), BuildingBlock: CIFDUS_clean_linker_0, # of connection points: 2
#     Edge 95, Type (0, 0), BuildingBlock: CIFDUS_clean_linker_0, # of connection points: 2
# Relax obj value: 0.054
# Max RMSD: 0.080
# Mean RMSD: 0.080
data_MOF--net-mer--node1-GALJAG_clean_sbu_0--edge1-CIFDUS_clean_linker_0
_symmetry_space_group_name_H-M    P1
_symmetry_Int_Tables_number       1
_symmetry_cell_setting            triclinic
loop_
_symmetry_equiv_pos_as_xyz
'x, y, z'
_cell_length_a     56.108597
_cell_length_b     56.098449
_cell_length_c     47.773064
_cell_angle_alpha  90.021666
_cell_angle_beta   90.012687
_cell_angle_gamma 89.96166
loop_
_atom_site_label
_atom_site_type_symbol
_atom_site_fract_x
_atom_site_fract_y
_atom_site_fract_z
_atom_type_partial_charge
In0 In 0.11692 0.28627 0.35893 0.0
O1 O 0.13219 0.31859 0.33612 0.0
O2 O 0.11528 0.2913 0.31211 0.0
C3 C 0.12204 0.29269 0.41437 0.0
C4 C 0.15073 0.25283 0.35217 0.0
C5 C 0.06922 0.2881 0.35719 0.0
O6 O 0.12657 0.30929 0.39719 0.0
O7 O 0.11515 0.27343 0.40338 0.0
O8 O 0.08048 0.26898 0.35216 0.0
O9 O 0.08211 0.30589 0.36293 0.0
C10 C 0.12612 0.31101 0.31215 0.0
O11 O 0.12877 0.24762 0.35128 0.0
O12 O 0.15522 0.2746 0.35625 0.0
In13 In 0.70906 0.11783 0.36478 0.0
O14 O 0.74619 0.13212 0.35429 0.0
O15 O 0.71919 0.15688 0.36591 0.0
C16 C 0.71441 0.0704 0.35942 0.0
C17 C 0.68043 0.12827 0.32127 0.0
C18 C 0.70275 0.11985 0.42065 0.0
O19 O 0.73143 0.08475 0.35538 0.0
O20 O 0.69482 0.08007 0.36577 0.0
O21 O 0.68573 0.12361 0.40384 0.0
O22 O 0.72242 0.11513 0.40915 0.0
C23 C 0.74056 0.15363 0.35866 0.0
O24 O 0.67413 0.13183 0.34634 0.0
O25 O 0.7008 0.11905 0.31841 0.0
In26 In 0.87026 0.70472 0.36714 0.0
O27 O 0.85327 0.67141 0.34813 0.0
O28 O 0.86806 0.69735 0.32058 0.0
C29 C 0.86842 0.69836 0.42304 0.0
C30 C 0.83669 0.73877 0.36197 0.0
C31 C 0.91793 0.70466 0.36107 0.0
O32 O 0.86303 0.68176 0.40624 0.0
O33 O 0.87455 0.71761 0.4115 0.0
O34 O 0.9057 0.72342 0.35782 0.0
O35 O 0.90603 0.68626 0.36703 0.0
C36 C 0.85729 0.67772 0.32314 0.0
O37 O 0.85857 0.74323 0.35823 0.0
O38 O 0.83209 0.71738 0.36805 0.0
In39 In 0.28044 0.87755 0.35605 0.0
O40 O 0.31236 0.85583 0.34084 0.0
O41 O 0.2938 0.87658 0.31082 0.0
C42 C 0.28778 0.87412 0.41192 0.0
C43 C 0.24272 0.8484 0.34848 0.0
C44 C 0.27711 0.92526 0.35049 0.0
O45 O 0.30481 0.87414 0.39466 0.0
O46 O 0.26743 0.87582 0.40096 0.0
O47 O 0.26048 0.91132 0.34362 0.0
O48 O 0.29558 0.9151 0.35971 0.0
C49 C 0.31061 0.86224 0.31562 0.0
O50 O 0.24126 0.87072 0.34578 0.0
O51 O 0.26327 0.84079 0.35449 0.0
In52 In 0.11869 0.70729 0.63782 0.0
O53 O 0.13354 0.74286 0.65267 0.0
O54 O 0.15794 0.71629 0.63852 0.0
C55 C 0.07173 0.71193 0.64542 0.0
C56 C 0.12827 0.67511 0.67782 0.0
C57 C 0.11859 0.70918 0.58152 0.0
O58 O 0.0862 0.72828 0.652 0.0
O59 O 0.08107 0.69338 0.63517 0.0
O60 O 0.12196 0.68965 0.59427 0.0
O61 O 0.11555 0.72699 0.5972 0.0
C62 C 0.15497 0.7371 0.64797 0.0
O63 O 0.13342 0.6712 0.65238 0.0
O64 O 0.11816 0.69478 0.6825 0.0
In65 In 0.28371 0.11325 0.6346 0.0
O66 O 0.31562 0.13182 0.65537 0.0
O67 O 0.29355 0.10905 0.67998 0.0
C68 C 0.28328 0.12128 0.579 0.0
C69 C 0.2479 0.14265 0.64818 0.0
C70 C 0.28704 0.06571 0.63353 0.0
O71 O 0.30216 0.1243 0.5932 0.0
O72 O 0.2655 0.11438 0.59292 0.0
O73 O 0.26844 0.07636 0.6418 0.0
O74 O 0.30388 0.07912 0.62579 0.0
C75 C 0.31116 0.12298 0.67925 0.0
O76 O 0.24531 0.12023 0.64806 0.0
O77 O 0.2685 0.14991 0.64179 0.0
In78 In 0.88381 0.27953 0.63842 0.0
O79 O 0.86981 0.24268 0.65066 0.0
O80 O 0.845 0.27026 0.64022 0.0
C81 C 0.9312 0.28225 0.64047 0.0
C82 C 0.87575 0.30657 0.6835 0.0
C83 C 0.88095 0.27919 0.58245 0.0
O84 O 0.9203 0.26324 0.64709 0.0
O85 O 0.91807 0.29943 0.633 0.0
O86 O 0.87539 0.29767 0.59638 0.0
O87 O 0.88763 0.26156 0.5969 0.0
C88 C 0.8482 0.24887 0.64761 0.0
O89 O 0.86952 0.31337 0.65921 0.0
O90 O 0.88596 0.28651 0.68454 0.0
In91 In 0.71937 0.87987 0.6461 0.0
O92 O 0.68464 0.86743 0.66704 0.0
O93 O 0.71319 0.88011 0.69256 0.0
C94 C 0.71709 0.87844 0.58975 0.0
C95 C 0.74954 0.84335 0.65323 0.0
C96 C 0.7229 0.92718 0.65167 0.0
O97 O 0.69893 0.87361 0.60454 0.0
O98 O 0.73551 0.88375 0.60351 0.0
O99 O 0.74039 0.91344 0.65629 0.0
O100 O 0.70386 0.91692 0.64425 0.0
C101 C 0.69236 0.87171 0.69152 0.0
O102 O 0.75605 0.86477 0.6565 0.0
O103 O 0.72794 0.84058 0.64653 0.0
In104 In 0.88284 0.71046 0.64531 0.0
O105 O 0.87626 0.74918 0.6579 0.0
O106 O 0.84636 0.72706 0.64871 0.0
C107 C 0.93019 0.70538 0.64709 0.0
C108 C 0.87046 0.68319 0.68912 0.0
C109 C 0.87786 0.70969 0.58928 0.0
O110 O 0.92 0.72458 0.65419 0.0
O111 O 0.9164 0.68884 0.63935 0.0
O112 O 0.87183 0.69192 0.60408 0.0
O113 O 0.88612 0.7271 0.60285 0.0
C114 C 0.85386 0.74742 0.65572 0.0
O115 O 0.86345 0.67847 0.6645 0.0
O116 O 0.88378 0.7012 0.69116 0.0
In117 In 0.28008 0.87663 0.63493 0.0
O118 O 0.24298 0.8673 0.65086 0.0
O119 O 0.26619 0.83896 0.63902 0.0
C120 C 0.27759 0.92423 0.63932 0.0
C121 C 0.31163 0.86392 0.67472 0.0
C122 C 0.27962 0.87249 0.57865 0.0
O123 O 0.26084 0.91072 0.647 0.0
O124 O 0.29571 0.91367 0.6297 0.0
O125 O 0.29891 0.87144 0.59236 0.0
O126 O 0.26124 0.87549 0.59335 0.0
C127 C 0.24599 0.84509 0.64816 0.0
O128 O 0.31415 0.85765 0.64945 0.0
O129 O 0.29388 0.87711 0.67935 0.0
In130 In 0.12012 0.28034 0.63724 0.0
O131 O 0.13393 0.24392 0.65114 0.0
O132 O 0.15915 0.27073 0.64029 0.0
C133 C 0.07291 0.27534 0.64345 0.0
C134 C 0.12984 0.3127 0.67714 0.0
C135 C 0.12216 0.28084 0.58084 0.0
O136 O 0.08735 0.25901 0.65014 0.0
O137 O 0.08238 0.29407 0.63391 0.0
O138 O 0.1249 0.29972 0.59499 0.0
O139 O 0.11858 0.26235 0.59519 0.0
C140 C 0.15559 0.24963 0.64839 0.0
O141 O 0.13527 0.31616 0.65175 0.0
O142 O 0.11917 0.29335 0.68196 0.0
In143 In 0.71486 0.11582 0.64354 0.0
O144 O 0.68188 0.137 0.6567 0.0
O145 O 0.70216 0.11957 0.68834 0.0
C146 C 0.71466 0.11724 0.58711 0.0
C147 C 0.75196 0.14495 0.65342 0.0
C148 C 0.71088 0.06848 0.65014 0.0
O149 O 0.69661 0.12346 0.60122 0.0
O150 O 0.73225 0.11056 0.60149 0.0
O151 O 0.72966 0.07965 0.65654 0.0
O152 O 0.69412 0.08128 0.64093 0.0
C153 C 0.68453 0.13262 0.68248 0.0
O154 O 0.75321 0.12276 0.65777 0.0
O155 O 0.73205 0.15221 0.64457 0.0
In156 In 0.87995 0.28154 0.35975 0.0
O157 O 0.87023 0.24324 0.34815 0.0
O158 O 0.84222 0.26675 0.35972 0.0
C159 C 0.92756 0.27806 0.35408 0.0
C160 C 0.86723 0.31169 0.3183 0.0
C161 C 0.87735 0.2882 0.4157 0.0
O162 O 0.91374 0.26086 0.34898 0.0
O163 O 0.91732 0.29701 0.36173 0.0
O164 O 0.8736 0.30498 0.39863 0.0
O165 O 0.88231 0.26848 0.40448 0.0
C166 C 0.84819 0.24602 0.35224 0.0
O167 O 0.86179 0.31531 0.34359 0.0
O168 O 0.87922 0.29303 0.31403 0.0
In169 In 0.71167 0.88083 0.36723 0.0
O170 O 0.68079 0.86293 0.34362 0.0
O171 O 0.70686 0.88218 0.32035 0.0
C172 C 0.70489 0.87612 0.42289 0.0
C173 C 0.74801 0.84995 0.36124 0.0
C174 C 0.70805 0.92848 0.36463 0.0
O175 O 0.68877 0.87033 0.40557 0.0
O176 O 0.72377 0.88397 0.41193 0.0
O177 O 0.72764 0.91782 0.3605 0.0
O178 O 0.69058 0.91505 0.36997 0.0
C179 C 0.6881 0.8698 0.31984 0.0
O180 O 0.75108 0.87226 0.35948 0.0
O181 O 0.7268 0.84356 0.36583 0.0
In182 In 0.10683 0.71624 0.35973 0.0
O183 O 0.12218 0.75365 0.35234 0.0
O184 O 0.14607 0.72479 0.35976 0.0
C185 C 0.05915 0.72043 0.35667 0.0
C186 C 0.11562 0.69162 0.31265 0.0
C187 C 0.11089 0.70639 0.41467 0.0
O188 O 0.07273 0.73833 0.3543 0.0
O189 O 0.06972 0.70082 0.36046 0.0
O190 O 0.11354 0.69038 0.39625 0.0
O191 O 0.10609 0.72683 0.40519 0.0
C192 C 0.14357 0.74674 0.35485 0.0
O193 O 0.11995 0.68311 0.33667 0.0
O194 O 0.10645 0.71216 0.31264 0.0
In195 In 0.28018 0.1149 0.35765 0.0
O196 O 0.31094 0.13229 0.33372 0.0
O197 O 0.2845 0.11354 0.31053 0.0
C198 C 0.28891 0.12271 0.41245 0.0
C199 C 0.2427 0.14441 0.35155 0.0
C200 C 0.28369 0.0671 0.35698 0.0
O201 O 0.30477 0.1262 0.39406 0.0
O202 O 0.26919 0.11552 0.40301 0.0
O203 O 0.26433 0.07772 0.35163 0.0
O204 O 0.301 0.08061 0.36262 0.0
C205 C 0.30344 0.12562 0.30997 0.0
O206 O 0.24025 0.12199 0.35192 0.0
O207 O 0.26391 0.15164 0.35403 0.0
In208 In 0.60815 0.78631 0.86107 0.0
O209 O 0.62818 0.81788 0.84141 0.0
O210 O 0.60539 0.7969 0.81562 0.0
C211 C 0.61566 0.78655 0.91695 0.0
C212 C 0.63589 0.74899 0.8479 0.0
C213 C 0.56054 0.78966 0.86037 0.0
O214 O 0.61893 0.80518 0.90245 0.0
O215 O 0.60878 0.76867 0.90321 0.0
O216 O 0.57148 0.77113 0.85253 0.0
O217 O 0.57369 0.80654 0.86861 0.0
C218 C 0.61982 0.81406 0.81716 0.0
O219 O 0.61341 0.74752 0.84814 0.0
O220 O 0.64415 0.76928 0.85399 0.0
In221 In 0.20391 0.61303 0.86396 0.0
O222 O 0.16902 0.62827 0.84707 0.0
O223 O 0.19423 0.61359 0.81826 0.0
C224 C 0.20552 0.61552 0.92002 0.0
C225 C 0.23513 0.64823 0.85438 0.0
C226 C 0.20176 0.56552 0.85973 0.0
O227 O 0.1868 0.62122 0.9067 0.0
O228 O 0.22269 0.60864 0.90499 0.0
O229 O 0.22036 0.57695 0.85288 0.0
O230 O 0.18466 0.57816 0.86845 0.0
C231 C 0.17434 0.62371 0.82181 0.0
O232 O 0.24073 0.62655 0.85063 0.0
O233 O 0.21402 0.65174 0.86253 0.0
In234 In 0.37804 0.2124 0.85823 0.0
O235 O 0.36213 0.1809 0.8339 0.0
O236 O 0.37849 0.20918 0.81119 0.0
C237 C 0.37339 0.20422 0.9136 0.0
C238 C 0.34742 0.24905 0.85346 0.0
C239 C 0.42573 0.21018 0.85551 0.0
O240 O 0.36664 0.18893 0.89574 0.0
O241 O 0.38204 0.22301 0.90329 0.0
O242 O 0.41441 0.22939 0.85149 0.0
O243 O 0.41292 0.19223 0.86078 0.0
C244 C 0.3678 0.18944 0.81026 0.0
O245 O 0.36973 0.25186 0.85177 0.0
O246 O 0.34074 0.22783 0.85745 0.0
In247 In 0.78985 0.38006 0.85861 0.0
O248 O 0.82257 0.36542 0.83582 0.0
O249 O 0.79573 0.3831 0.81201 0.0
C250 C 0.79707 0.37471 0.91395 0.0
C251 C 0.75701 0.34595 0.85086 0.0
C252 C 0.7877 0.42773 0.85799 0.0
O253 O 0.81391 0.37199 0.89657 0.0
O254 O 0.77718 0.37983 0.90321 0.0
O255 O 0.76963 0.41499 0.8528 0.0
O256 O 0.80659 0.41634 0.86325 0.0
C257 C 0.81536 0.37215 0.81197 0.0
O258 O 0.7518 0.36788 0.84945 0.0
O259 O 0.77862 0.34151 0.85602 0.0
In260 In 0.62052 0.21124 0.13658 0.0
O261 O 0.64089 0.17854 0.15249 0.0
O262 O 0.61969 0.198 0.18142 0.0
C263 C 0.6232 0.20645 0.08036 0.0
C264 C 0.65098 0.24734 0.14664 0.0
C265 C 0.573 0.21397 0.14253 0.0
O266 O 0.62559 0.18881 0.09657 0.0
O267 O 0.61972 0.22604 0.09258 0.0
O268 O 0.58672 0.23102 0.14861 0.0
O269 O 0.5833 0.19545 0.1336 0.0
C270 C 0.63368 0.18076 0.17741 0.0
O271 O 0.6287 0.24964 0.14899 0.0
O272 O 0.65784 0.22681 0.13943 0.0
In273 In 0.78231 0.61547 0.13353 0.0
O274 O 0.74279 0.62222 0.14333 0.0
O275 O 0.76556 0.652 0.13649 0.0
C276 C 0.78674 0.56778 0.13716 0.0
C277 C 0.80954 0.62991 0.17676 0.0
C278 C 0.78688 0.62058 0.07763 0.0
O279 O 0.76757 0.57837 0.14346 0.0
O280 O 0.80342 0.58127 0.12928 0.0
O281 O 0.8039 0.62524 0.09413 0.0
O282 O 0.76809 0.61347 0.08943 0.0
C283 C 0.7448 0.64465 0.14183 0.0
O284 O 0.81397 0.63591 0.15177 0.0
O285 O 0.79171 0.61645 0.17968 0.0
In286 In 0.38091 0.77753 0.13754 0.0
O287 O 0.36638 0.81368 0.15191 0.0
O288 O 0.37828 0.78896 0.1828 0.0
C289 C 0.37965 0.77721 0.08118 0.0
C290 C 0.34438 0.74752 0.14626 0.0
C291 C 0.42833 0.77421 0.14469 0.0
O292 O 0.37543 0.79604 0.09496 0.0
O293 O 0.38456 0.75921 0.09587 0.0
O294 O 0.41445 0.75718 0.15066 0.0
O295 O 0.41817 0.79277 0.13563 0.0
C296 C 0.36901 0.809 0.17767 0.0
O297 O 0.36572 0.74134 0.15092 0.0
O298 O 0.34179 0.76856 0.13749 0.0
In299 In 0.2205 0.37999 0.14047 0.0
O300 O 0.186 0.36644 0.16055 0.0
O301 O 0.21262 0.3823 0.18652 0.0
C302 C 0.21791 0.3772 0.08439 0.0
C303 C 0.25083 0.34377 0.14886 0.0
C304 C 0.22362 0.4274 0.14418 0.0
O305 O 0.19965 0.37372 0.09948 0.0
O306 O 0.23673 0.3819 0.09772 0.0
O307 O 0.24111 0.414 0.14996 0.0
O308 O 0.20485 0.41676 0.13661 0.0
C309 C 0.19244 0.37246 0.185 0.0
O310 O 0.25731 0.36529 0.15139 0.0
O311 O 0.22919 0.34082 0.14249 0.0
In312 In 0.38416 0.21094 0.13684 0.0
O313 O 0.36429 0.17952 0.15712 0.0
O314 O 0.38536 0.20247 0.18275 0.0
C315 C 0.38057 0.21063 0.0806 0.0
C316 C 0.35532 0.24808 0.14696 0.0
C317 C 0.43146 0.20562 0.13968 0.0
O318 O 0.37352 0.19293 0.09493 0.0
O319 O 0.38894 0.22764 0.09477 0.0
O320 O 0.42117 0.22491 0.14625 0.0
O321 O 0.41778 0.18899 0.13188 0.0
C322 C 0.37165 0.18469 0.1815 0.0
O323 O 0.37773 0.24973 0.14912 0.0
O324 O 0.34771 0.22776 0.1399 0.0
In325 In 0.78649 0.37842 0.13686 0.0
O326 O 0.82233 0.36361 0.15184 0.0
O327 O 0.79808 0.37743 0.1821 0.0
C328 C 0.78689 0.3764 0.08053 0.0
C329 C 0.75635 0.34205 0.14597 0.0
C330 C 0.78163 0.42579 0.14323 0.0
O331 O 0.80588 0.37392 0.09458 0.0
O332 O 0.76842 0.37997 0.09495 0.0
O333 O 0.76523 0.41137 0.14972 0.0
O334 O 0.80042 0.41622 0.13393 0.0
C335 C 0.81784 0.36745 0.17742 0.0
O336 O 0.75024 0.36349 0.15003 0.0
O337 O 0.77751 0.3392 0.13771 0.0
In338 In 0.61783 0.78578 0.13901 0.0
O339 O 0.63347 0.81724 0.16354 0.0
O340 O 0.61646 0.7892 0.18611 0.0
C341 C 0.62232 0.79413 0.08367 0.0
C342 C 0.65208 0.75249 0.14372 0.0
C343 C 0.57 0.7865 0.14122 0.0
O344 O 0.62602 0.81044 0.10153 0.0
O345 O 0.61658 0.77422 0.09393 0.0
O346 O 0.58169 0.76747 0.14526 0.0
O347 O 0.5825 0.80472 0.13626 0.0
C348 C 0.62748 0.8088 0.18713 0.0
O349 O 0.63018 0.74707 0.14513 0.0
O350 O 0.65628 0.77438 0.14009 0.0
In351 In 0.20889 0.61612 0.14216 0.0
O352 O 0.17765 0.63538 0.16309 0.0
O353 O 0.20015 0.61368 0.18832 0.0
C354 C 0.20123 0.62177 0.08682 0.0
C355 C 0.24665 0.64487 0.15039 0.0
C356 C 0.20753 0.56835 0.14353 0.0
O357 O 0.18516 0.6263 0.10461 0.0
O358 O 0.22073 0.61488 0.09711 0.0
O359 O 0.22628 0.57993 0.14892 0.0
O360 O 0.18954 0.58092 0.1377 0.0
C361 C 0.18232 0.62732 0.18719 0.0
O362 O 0.24824 0.62246 0.15194 0.0
O363 O 0.22605 0.65263 0.14496 0.0
In364 In 0.37182 0.77875 0.85869 0.0
O365 O 0.36358 0.73986 0.84835 0.0
O366 O 0.33451 0.76298 0.85719 0.0
C367 C 0.41942 0.77733 0.85319 0.0
C368 C 0.35913 0.8083 0.8167 0.0
C369 C 0.36939 0.78509 0.91469 0.0
O370 O 0.40627 0.75988 0.8469 0.0
O371 O 0.40849 0.79554 0.86191 0.0
O372 O 0.36449 0.80168 0.89775 0.0
O373 O 0.37505 0.76563 0.9033 0.0
C374 C 0.34132 0.74221 0.85091 0.0
O375 O 0.35335 0.81215 0.84186 0.0
O376 O 0.37131 0.78969 0.81289 0.0
In377 In 0.20718 0.37646 0.86236 0.0
O378 O 0.17232 0.36142 0.84507 0.0
O379 O 0.19764 0.37547 0.81629 0.0
C380 C 0.20178 0.37463 0.9184 0.0
C381 C 0.23916 0.3411 0.85581 0.0
C382 C 0.21165 0.42386 0.85598 0.0
O383 O 0.18436 0.37137 0.90202 0.0
O384 O 0.22134 0.37879 0.9064 0.0
O385 O 0.22868 0.40971 0.85104 0.0
O386 O 0.19258 0.41401 0.86386 0.0
C387 C 0.17769 0.36556 0.81983 0.0
O388 O 0.24473 0.36277 0.85264 0.0
O389 O 0.2176 0.33748 0.86193 0.0
In390 In 0.61443 0.22288 0.85796 0.0
O391 O 0.63256 0.18822 0.84442 0.0
O392 O 0.6169 0.21008 0.81301 0.0
C393 C 0.61722 0.22163 0.91437 0.0
C394 C 0.64633 0.25756 0.84779 0.0
C395 C 0.56688 0.22419 0.85134 0.0
O396 O 0.62072 0.2032 0.89969 0.0
O397 O 0.61231 0.24012 0.90058 0.0
O398 O 0.58013 0.2415 0.84484 0.0
O399 O 0.57769 0.20619 0.86084 0.0
C400 C 0.62843 0.19138 0.81867 0.0
O401 O 0.62421 0.26073 0.84456 0.0
O402 O 0.65218 0.23692 0.85574 0.0
In403 In 0.76842 0.61554 0.85571 0.0
O404 O 0.80333 0.62813 0.83593 0.0
O405 O 0.77639 0.61329 0.8096 0.0
C406 C 0.7704 0.61994 0.91173 0.0
C407 C 0.73845 0.65166 0.84558 0.0
C408 C 0.76617 0.56797 0.85362 0.0
O409 O 0.78875 0.62318 0.89671 0.0
O410 O 0.75173 0.61474 0.89835 0.0
O411 O 0.74845 0.58083 0.84709 0.0
O412 O 0.78462 0.57924 0.86101 0.0
C413 C 0.79682 0.62257 0.81135 0.0
O414 O 0.73173 0.63014 0.84403 0.0
O415 O 0.76007 0.65462 0.85201 0.0
H416 H 0.24506 0.19233 0.34837 0.0
H417 H 0.19492 0.13411 0.35015 0.0
H418 H 0.16168 0.16249 0.34927 0.0
H419 H 0.14702 0.20418 0.34995 0.0
H420 H 0.19804 0.26176 0.34879 0.0
H421 H 0.23072 0.23329 0.34736 0.0
C422 C 0.22686 0.1858 0.34844 0.0
C423 C 0.22245 0.16118 0.34945 0.0
C424 C 0.20797 0.20214 0.3481 0.0
C425 C 0.19877 0.15301 0.34941 0.0
C426 C 0.17978 0.16923 0.34895 0.0
C427 C 0.16529 0.21043 0.34918 0.0
C428 C 0.17007 0.23505 0.34961 0.0
C429 C 0.18417 0.19388 0.34858 0.0
C430 C 0.19384 0.24292 0.34863 0.0
C431 C 0.21259 0.22665 0.34781 0.0
H432 H 0.78773 0.15134 0.34542 0.0
H433 H 0.7316 0.20068 0.36706 0.0
H434 H 0.75978 0.2337 0.36578 0.0
H435 H 0.80053 0.24843 0.36034 0.0
H436 H 0.85702 0.19943 0.33916 0.0
H437 H 0.82853 0.16645 0.33826 0.0
C438 C 0.78168 0.16935 0.3497 0.0
C439 C 0.75765 0.17354 0.35644 0.0
C440 C 0.79803 0.18831 0.34906 0.0
C441 C 0.75002 0.19696 0.3619 0.0
C442 C 0.76612 0.21587 0.36119 0.0
C443 C 0.80659 0.23056 0.35536 0.0
C444 C 0.83083 0.22635 0.34993 0.0
C445 C 0.79018 0.21172 0.35507 0.0
C446 C 0.83843 0.20311 0.34345 0.0
C447 C 0.82216 0.18425 0.34299 0.0
H448 H 0.84151 0.78697 0.3552 0.0
H449 H 0.7891 0.73128 0.36517 0.0
H450 H 0.75724 0.76072 0.36486 0.0
H451 H 0.74417 0.80209 0.36339 0.0
H452 H 0.79578 0.85848 0.35409 0.0
H453 H 0.82802 0.82898 0.3524 0.0
C454 C 0.8231 0.78133 0.35713 0.0
C455 C 0.8177 0.75698 0.36029 0.0
C456 C 0.80473 0.79845 0.35715 0.0
C457 C 0.79377 0.74991 0.36281 0.0
C458 C 0.7755 0.76673 0.36265 0.0
C459 C 0.76247 0.80798 0.36089 0.0
C460 C 0.7676 0.83242 0.35897 0.0
C461 C 0.78078 0.79102 0.3601 0.0
C462 C 0.79138 0.83973 0.35565 0.0
C463 C 0.80981 0.82288 0.35471 0.0
H464 H 0.14379 0.79469 0.34472 0.0
H465 H 0.19014 0.73468 0.36032 0.0
H466 H 0.22484 0.76064 0.35853 0.0
H467 H 0.2421 0.80043 0.3541 0.0
H468 H 0.19633 0.86084 0.33877 0.0
H469 H 0.16142 0.83471 0.33868 0.0
C470 C 0.1615 0.78733 0.34762 0.0
C471 C 0.16435 0.76282 0.35277 0.0
C472 C 0.18151 0.80242 0.34661 0.0
C473 C 0.18742 0.7535 0.35642 0.0
C474 C 0.20732 0.76833 0.35539 0.0
C475 C 0.2245 0.80787 0.35056 0.0
C476 C 0.22179 0.83251 0.34652 0.0
C477 C 0.20457 0.79281 0.35072 0.0
C478 C 0.19888 0.8419 0.34193 0.0
C479 C 0.17891 0.82698 0.34195 0.0
H480 H 0.15268 0.78402 0.66183 0.0
H481 H 0.20211 0.72772 0.64109 0.0
H482 H 0.23502 0.75609 0.64149 0.0
H483 H 0.24923 0.79719 0.64413 0.0
H484 H 0.19995 0.8539 0.66363 0.0
H485 H 0.16749 0.82501 0.66758 0.0
C486 C 0.1707 0.77794 0.65773 0.0
C487 C 0.17496 0.75389 0.65122 0.0
C488 C 0.18951 0.79441 0.65761 0.0
C489 C 0.19837 0.74621 0.64598 0.0
C490 C 0.2172 0.76241 0.64617 0.0
C491 C 0.23142 0.80321 0.64949 0.0
C492 C 0.22691 0.82761 0.65334 0.0
C493 C 0.21288 0.7866 0.65138 0.0
C494 C 0.20382 0.83517 0.66046 0.0
C495 C 0.18526 0.81869 0.66265 0.0
H496 H 0.25053 0.19058 0.65038 0.0
H497 H 0.20083 0.1322 0.65693 0.0
H498 H 0.16765 0.16045 0.65998 0.0
H499 H 0.15269 0.20174 0.65685 0.0
H500 H 0.20287 0.25963 0.6487 0.0
H501 H 0.23598 0.23154 0.6504 0.0
C502 C 0.23245 0.18401 0.65275 0.0
C503 C 0.22808 0.15938 0.65318 0.0
C504 C 0.21356 0.20027 0.65405 0.0
C505 C 0.20461 0.15112 0.65645 0.0
C506 C 0.18565 0.16725 0.65811 0.0
C507 C 0.1709 0.20818 0.65579 0.0
C508 C 0.17536 0.23267 0.65243 0.0
C509 C 0.18989 0.19187 0.65634 0.0
C510 C 0.19899 0.24083 0.65109 0.0
C511 C 0.21794 0.22479 0.65204 0.0
H512 H 0.75136 0.19282 0.64924 0.0
H513 H 0.7985 0.13349 0.66464 0.0
H514 H 0.83272 0.16062 0.66569 0.0
H515 H 0.84934 0.20115 0.65936 0.0
H516 H 0.80134 0.25983 0.64352 0.0
H517 H 0.76739 0.23299 0.64561 0.0
C518 C 0.7691 0.18581 0.65303 0.0
C519 C 0.77245 0.16121 0.65666 0.0
C520 C 0.78856 0.2014 0.65339 0.0
C521 C 0.7955 0.1524 0.66175 0.0
C522 C 0.81506 0.16789 0.66226 0.0
C523 C 0.83143 0.20803 0.6566 0.0
C524 C 0.8279 0.23241 0.65109 0.0
C525 C 0.81184 0.19241 0.65767 0.0
C526 C 0.80459 0.24112 0.64763 0.0
C527 C 0.78512 0.22579 0.64881 0.0
H528 H 0.80588 0.74653 0.65293 0.0
H529 H 0.86527 0.79402 0.66621 0.0
H530 H 0.83798 0.82808 0.66808 0.0
H531 H 0.79734 0.84445 0.66323 0.0
H532 H 0.73846 0.79641 0.64906 0.0
H533 H 0.7655 0.76245 0.65033 0.0
C534 C 0.81287 0.76431 0.65644 0.0
C535 C 0.83753 0.76781 0.65927 0.0
C536 C 0.79718 0.78371 0.65719 0.0
C537 C 0.84632 0.79091 0.66393 0.0
C538 C 0.83074 0.81038 0.66492 0.0
C539 C 0.79045 0.82652 0.66064 0.0
C540 C 0.76598 0.82295 0.65589 0.0
C541 C 0.80616 0.80701 0.66116 0.0
C542 C 0.75725 0.79965 0.6526 0.0
C543 C 0.77269 0.7802 0.65332 0.0
H544 H 0.68382 0.74926 0.84383 0.0
H545 H 0.623 0.70232 0.84111 0.0
H546 H 0.64951 0.66774 0.83793 0.0
H547 H 0.69013 0.65084 0.83966 0.0
H548 H 0.75052 0.69839 0.84349 0.0
H549 H 0.72399 0.73274 0.8423 0.0
C550 C 0.67634 0.73148 0.84229 0.0
C551 C 0.65154 0.72829 0.84296 0.0
C552 C 0.69162 0.71178 0.8408 0.0
C553 C 0.64208 0.70518 0.84072 0.0
C554 C 0.65722 0.68542 0.83899 0.0
C555 C 0.69744 0.66873 0.8399 0.0
C556 C 0.7222 0.67208 0.84192 0.0
C557 C 0.68204 0.68849 0.83957 0.0
C558 C 0.73149 0.69534 0.84217 0.0
C559 C 0.71635 0.71501 0.84151 0.0
H560 H 0.28305 0.64606 0.84452 0.0
H561 H 0.22494 0.69538 0.85719 0.0
H562 H 0.25255 0.7288 0.85589 0.0
H563 H 0.29326 0.744 0.85375 0.0
H564 H 0.35186 0.69526 0.84171 0.0
H565 H 0.32404 0.66169 0.84002 0.0
C566 C 0.27646 0.66414 0.84671 0.0
C567 C 0.25202 0.66821 0.8511 0.0
C568 C 0.29252 0.68339 0.84621 0.0
C569 C 0.2437 0.69174 0.85394 0.0
C570 C 0.25947 0.71089 0.85322 0.0
C571 C 0.29995 0.72605 0.85059 0.0
C572 C 0.32455 0.72208 0.84803 0.0
C573 C 0.28392 0.70691 0.84981 0.0
C574 C 0.33296 0.69875 0.84381 0.0
C575 C 0.31707 0.67955 0.84288 0.0
H576 H 0.29938 0.24642 0.8562 0.0
H577 H 0.35714 0.29648 0.84667 0.0
H578 H 0.32865 0.32952 0.84539 0.0
H579 H 0.28725 0.3442 0.84855 0.0
H580 H 0.22991 0.29369 0.85874 0.0
H581 H 0.25831 0.26081 0.85805 0.0
C582 C 0.30575 0.26455 0.85374 0.0
C583 C 0.33032 0.26902 0.85162 0.0
C584 C 0.28933 0.28338 0.85316 0.0
C585 C 0.3383 0.29259 0.84838 0.0
C586 C 0.32202 0.31148 0.84767 0.0
C587 C 0.281 0.32598 0.85043 0.0
C588 C 0.25653 0.32139 0.85376 0.0
C589 C 0.29749 0.3071 0.85025 0.0
C590 C 0.24866 0.29771 0.85623 0.0
C591 C 0.26489 0.27888 0.85586 0.0
H592 H 0.69418 0.25325 0.85012 0.0
H593 H 0.63813 0.30489 0.83798 0.0
H594 H 0.66764 0.337 0.8365 0.0
H595 H 0.7093 0.35049 0.84142 0.0
H596 H 0.7649 0.29831 0.85389 0.0
H597 H 0.73561 0.26631 0.85238 0.0
C598 C 0.68842 0.27151 0.84695 0.0
C599 C 0.66405 0.27674 0.84435 0.0
C600 C 0.70539 0.28979 0.84631 0.0
C601 C 0.65683 0.30045 0.84007 0.0
C602 C 0.67368 0.31881 0.83931 0.0
C603 C 0.71498 0.33209 0.8436 0.0
C604 C 0.73919 0.32678 0.84797 0.0
C605 C 0.69799 0.31371 0.84284 0.0
C606 C 0.74634 0.30288 0.85065 0.0
C607 C 0.72961 0.28455 0.84981 0.0
H608 H 0.69909 0.24577 0.14388 0.0
H609 H 0.64026 0.29385 0.15801 0.0
H610 H 0.66789 0.32747 0.16091 0.0
H611 H 0.70866 0.34345 0.15656 0.0
H612 H 0.7671 0.29502 0.14161 0.0
H613 H 0.73975 0.26131 0.14211 0.0
C614 C 0.69232 0.26359 0.14779 0.0
C615 C 0.6677 0.26737 0.15053 0.0
C616 C 0.70824 0.28279 0.14921 0.0
C617 C 0.65918 0.29051 0.15574 0.0
C618 C 0.67495 0.30974 0.15735 0.0
C619 C 0.71539 0.32549 0.1537 0.0
C620 C 0.73982 0.32175 0.14888 0.0
C621 C 0.6995 0.30614 0.15371 0.0
C622 C 0.74834 0.29839 0.14521 0.0
C623 C 0.73272 0.27908 0.14546 0.0
H624 H 0.74686 0.69261 0.14294 0.0
H625 H 0.69726 0.63405 0.14731 0.0
H626 H 0.66386 0.66224 0.14928 0.0
H627 H 0.64883 0.70384 0.1478 0.0
H628 H 0.69941 0.7617 0.14309 0.0
H629 H 0.7323 0.73346 0.14327 0.0
C630 C 0.72875 0.68596 0.14445 0.0
C631 C 0.72452 0.6613 0.14484 0.0
C632 C 0.70979 0.70219 0.14542 0.0
C633 C 0.70096 0.65299 0.14696 0.0
C634 C 0.68188 0.6691 0.14802 0.0
C635 C 0.66707 0.71021 0.14698 0.0
C636 C 0.67163 0.73484 0.14529 0.0
C637 C 0.68607 0.69378 0.14697 0.0
C638 C 0.69535 0.74285 0.14427 0.0
C639 C 0.71422 0.72672 0.14437 0.0
H640 H 0.24662 0.69293 0.14757 0.0
H641 H 0.29322 0.63259 0.15946 0.0
H642 H 0.32778 0.6592 0.16095 0.0
H643 H 0.34485 0.69961 0.15628 0.0
H644 H 0.29765 0.7594 0.1433 0.0
H645 H 0.26325 0.73302 0.14499 0.0
C646 C 0.26432 0.68559 0.15068 0.0
C647 C 0.2674 0.66086 0.15326 0.0
C648 C 0.28402 0.70091 0.15123 0.0
C649 C 0.29042 0.65161 0.15736 0.0
C650 C 0.31017 0.6668 0.15816 0.0
C651 C 0.32701 0.70683 0.15409 0.0
C652 C 0.32381 0.73138 0.14952 0.0
C653 C 0.30722 0.69147 0.15475 0.0
C654 C 0.30061 0.74054 0.14667 0.0
C655 C 0.2809 0.72547 0.14762 0.0
H656 H 0.29895 0.34508 0.1566 0.0
H657 H 0.23966 0.2968 0.14658 0.0
H658 H 0.2668 0.2629 0.14665 0.0
H659 H 0.30728 0.24709 0.14678 0.0
H660 H 0.36704 0.29479 0.15614 0.0
H661 H 0.33979 0.32881 0.1593 0.0
C662 C 0.292 0.32712 0.15471 0.0
C663 C 0.26737 0.32345 0.15142 0.0
C664 C 0.30776 0.30764 0.15451 0.0
C665 C 0.25857 0.3001 0.149 0.0
C666 C 0.27406 0.28069 0.14901 0.0
C667 C 0.31436 0.26492 0.14969 0.0
C668 C 0.3391 0.26848 0.15102 0.0
C669 C 0.29868 0.28428 0.15129 0.0
C670 C 0.34802 0.29163 0.15498 0.0
C671 C 0.33246 0.31107 0.15673 0.0
H672 H 0.95992 0.31278 0.36356 0.0
H673 H 0.95382 0.23872 0.34032 0.0
H674 H -0.00273 0.23519 0.33882 0.0
H675 H 0.03708 0.25311 0.3451 0.0
H676 H 0.04253 0.32727 0.36843 0.0
H677 H -0.00072 0.33077 0.36888 0.0
C678 C 0.96809 0.29588 0.35807 0.0
C679 C 0.95373 0.27605 0.35212 0.0
C680 C 0.99298 0.29398 0.35733 0.0
C681 C 0.96454 0.25427 0.345 0.0
C682 C 0.98937 0.25223 0.34417 0.0
C683 C 0.02876 0.27002 0.35022 0.0
C684 C 0.04298 0.28987 0.35679 0.0
C685 C 0.00378 0.27194 0.35046 0.0
C686 C 0.03199 0.3117 0.36333 0.0
C687 C 0.00724 0.31374 0.36361 0.0
H688 H 0.68026 0.03719 0.36755 0.0
H689 H 0.75491 0.04501 0.34798 0.0
H690 H 0.75959 0.00162 0.3474 0.0
H691 H 0.74249 0.96143 0.35357 0.0
H692 H 0.66777 0.95426 0.37339 0.0
H693 H 0.66313 -0.00256 0.37275 0.0
C694 C 0.69755 0.02942 0.36305 0.0
C695 C 0.71721 0.04426 0.35787 0.0
C696 C 0.70011 0.00457 0.36288 0.0
C697 C 0.73949 0.03393 0.35204 0.0
C698 C 0.74218 0.00914 0.35175 0.0
C699 C 0.72521 0.96935 0.35769 0.0
C700 C 0.70553 0.95467 0.36359 0.0
C701 C 0.72263 0.99428 0.35733 0.0
C702 C 0.68322 0.96516 0.36884 0.0
C703 C 0.68053 0.98986 0.36848 0.0
H704 H 0.02809 0.68392 0.36007 0.0
H705 H 0.03127 0.76033 0.35079 0.0
H706 H 0.98761 0.7623 0.35038 0.0
H707 H 0.94848 0.74212 0.35394 0.0
H708 H 0.94632 0.66564 0.36375 0.0
H709 H 0.98965 0.66391 0.36256 0.0
C710 C 0.01927 0.70104 0.35789 0.0
C711 C 0.03287 0.72195 0.35555 0.0
C712 C 0.99433 0.70201 0.35777 0.0
C713 C 0.02116 0.74397 0.35266 0.0
C714 C 0.99622 0.7451 0.35244 0.0
C715 C 0.95754 0.7251 0.35566 0.0
C716 C 0.94419 0.70405 0.35899 0.0
C717 C 0.98261 0.72422 0.35515 0.0
C718 C 0.95615 0.68211 0.36124 0.0
C719 C 0.98095 0.68109 0.36058 0.0
H720 H 0.31052 0.95819 0.36381 0.0
H721 H 0.23834 0.95097 0.33382 0.0
H722 H 0.23391 0.99432 0.3331 0.0
H723 H 0.2504 0.03431 0.3418 0.0
H724 H 0.32271 0.04121 0.37155 0.0
H725 H 0.3272 -0.00203 0.3716 0.0
C726 C 0.29385 0.96611 0.35701 0.0
C727 C 0.27479 0.95143 0.34891 0.0
C728 C 0.29142 0.99099 0.35671 0.0
C729 C 0.2533 0.96192 0.34014 0.0
C730 C 0.25073 0.9867 0.33978 0.0
C731 C 0.26712 0.02632 0.34828 0.0
C732 C 0.28615 0.04091 0.35673 0.0
C733 C 0.26963 0.0014 0.34816 0.0
C734 C 0.30776 0.03035 0.36497 0.0
C735 C 0.31037 0.00562 0.365 0.0
H736 H 0.03843 0.67847 0.63474 0.0
H737 H 0.0469 0.75082 0.66377 0.0
H738 H 0.00363 0.75502 0.6677 0.0
H739 H 0.9634 0.73837 0.6615 0.0
H740 H 0.95539 0.666 0.63221 0.0
H741 H -0.00143 0.66154 0.62986 0.0
C742 C 0.03082 0.69515 0.64201 0.0
C743 C 0.04576 0.71434 0.64885 0.0
C744 C 0.00605 0.69742 0.64414 0.0
C745 C 0.0357 0.7358 0.65835 0.0
C746 C 0.01099 0.73821 0.66057 0.0
C747 C 0.97114 0.7216 0.65473 0.0
C748 C 0.95628 0.70257 0.64695 0.0
C749 C 0.99599 0.71918 0.65332 0.0
C750 C 0.96648 0.68093 0.63825 0.0
C751 C 0.99116 0.67836 0.63688 0.0
H752 H 0.31085 0.95635 0.62318 0.0
H753 H 0.2404 0.95072 0.65879 0.0
H754 H 0.23711 0.99413 0.66021 0.0
H755 H 0.25411 0.03361 0.65084 0.0
H756 H 0.32457 0.03918 0.6152 0.0
H757 H 0.328 0.99579 0.61426 0.0
C758 C 0.29481 0.96463 0.63132 0.0
C759 C 0.2759 0.9504 0.64086 0.0
C760 C 0.29303 0.98954 0.632 0.0
C761 C 0.25521 0.96133 0.65133 0.0
C762 C 0.2533 0.98613 0.65213 0.0
C763 C 0.27021 0.02531 0.64287 0.0
C764 C 0.28903 0.03953 0.63307 0.0
C765 C 0.27207 0.0004 0.64242 0.0
C766 C 0.30982 0.02858 0.62286 0.0
C767 C 0.3118 0.00379 0.62231 0.0
H768 H 0.03976 0.30885 0.63254 0.0
H769 H 0.0477 0.23594 0.6597 0.0
H770 H 0.0043 0.23158 0.66178 0.0
H771 H 0.96405 0.24842 0.65464 0.0
H772 H 0.957 0.32147 0.62733 0.0
H773 H 0.00013 0.32581 0.6266 0.0
C774 C 0.03202 0.292 0.639 0.0
C775 C 0.04685 0.27273 0.64587 0.0
C776 C 0.00721 0.28964 0.64006 0.0
C777 C 0.03659 0.25105 0.6543 0.0
C778 C 0.01181 0.24854 0.65544 0.0
C779 C 0.972 0.26527 0.64862 0.0
C780 C 0.95737 0.28454 0.64095 0.0
C781 C 0.99693 0.26769 0.64818 0.0
C782 C 0.96787 0.30632 0.63325 0.0
C783 C 0.99254 0.30885 0.63282 0.0
H784 H 0.74589 0.03681 0.66296 0.0
H785 H 0.67151 0.04153 0.64053 0.0
H786 H 0.6686 -0.00184 0.63988 0.0
H787 H 0.68744 0.95904 0.64383 0.0
H788 H 0.76193 0.95385 0.66549 0.0
H789 H 0.76456 -0.00267 0.66833 0.0
C790 C 0.72902 0.02831 0.65816 0.0
C791 C 0.70896 0.04231 0.65174 0.0
C792 C 0.72753 0.00334 0.65753 0.0
C793 C 0.68722 0.03112 0.64548 0.0
C794 C 0.68554 0.00633 0.64506 0.0
C795 C 0.70425 0.96741 0.64926 0.0
C796 C 0.72449 0.95331 0.65432 0.0
C797 C 0.70563 0.9923 0.65073 0.0
C798 C 0.74611 0.96437 0.66143 0.0
C799 C 0.74762 0.9892 0.66305 0.0
H800 H 0.52926 0.75598 0.84316 0.0
H801 H 0.53317 0.82732 0.8767 0.0
H802 H 0.48971 0.83002 0.87668 0.0
H803 H 0.4507 0.81182 0.86795 0.0
H804 H 0.44677 0.74035 0.83479 0.0
H805 H 0.49025 0.73801 0.83372 0.0
C806 C 0.52059 0.77212 0.85042 0.0
C807 C 0.53435 0.7914 0.85997 0.0
C808 C 0.49566 0.77353 0.85039 0.0
C809 C 0.52293 0.81223 0.86928 0.0
C810 C 0.4981 0.81379 0.86927 0.0
C811 C 0.45937 0.79577 0.86037 0.0
C812 C 0.44561 0.77628 0.85148 0.0
C813 C 0.48431 0.79451 0.85998 0.0
C814 C 0.45703 0.75559 0.84175 0.0
C815 C 0.48186 0.75423 0.84117 0.0
H816 H 0.17704 0.45633 0.86492 0.0
H817 H 0.25108 0.44999 0.84178 0.0
H818 H 0.25456 0.4935 0.83992 0.0
H819 H 0.23662 0.53342 0.84642 0.0
H820 H 0.16256 0.53882 0.87016 0.0
H821 H 0.15904 0.4956 0.87014 0.0
C822 C 0.19394 0.46444 0.85936 0.0
C823 C 0.21379 0.45001 0.85359 0.0
C824 C 0.19581 0.48931 0.85849 0.0
C825 C 0.23554 0.46076 0.84635 0.0
C826 C 0.23754 0.48562 0.84531 0.0
C827 C 0.21972 0.52509 0.85144 0.0
C828 C 0.19992 0.5393 0.85837 0.0
C829 C 0.21782 0.50009 0.85157 0.0
C830 C 0.17811 0.5283 0.86485 0.0
C831 C 0.17605 0.50356 0.86485 0.0
H832 H 0.45681 0.24539 0.84177 0.0
H833 H 0.45341 0.1717 0.86743 0.0
H834 H 0.49683 0.16939 0.86763 0.0
H835 H 0.5357 0.18852 0.86176 0.0
H836 H 0.5394 0.26211 0.83588 0.0
H837 H 0.49589 0.26421 0.83438 0.0
C838 C 0.4656 0.22882 0.84733 0.0
C839 C 0.45196 0.20879 0.85469 0.0
C840 C 0.49058 0.2276 0.84737 0.0
C841 C 0.46353 0.18739 0.86172 0.0
C842 C 0.48835 0.18605 0.86186 0.0
C843 C 0.52698 0.205 0.85568 0.0
C844 C 0.54069 0.22515 0.84904 0.0
C845 C 0.50204 0.20607 0.8549 0.0
C846 C 0.52919 0.24635 0.8411 0.0
C847 C 0.50433 0.24758 0.84029 0.0
H848 H 0.75009 0.45672 0.84574 0.0
H849 H 0.82404 0.45759 0.87083 0.0
H850 H 0.82367 0.50096 0.87166 0.0
H851 H 0.80264 0.53849 0.86539 0.0
H852 H 0.72882 0.53863 0.84008 0.0
H853 H 0.72883 0.49493 0.83918 0.0
C854 C 0.76609 0.46645 0.85136 0.0
C855 C 0.78705 0.45399 0.8582 0.0
C856 C 0.76579 0.4915 0.85176 0.0
C857 C 0.80768 0.46677 0.86545 0.0
C858 C 0.8075 0.49157 0.86595 0.0
C859 C 0.78651 0.529 0.85966 0.0
C860 C 0.76576 0.54171 0.85282 0.0
C861 C 0.78669 0.50408 0.85916 0.0
C862 C 0.74503 0.52918 0.84542 0.0
C863 C 0.74503 0.50423 0.84491 0.0
H864 H 0.46404 0.23886 0.15473 0.0
H865 H 0.45737 0.16625 0.12588 0.0
H866 H 0.50071 0.16221 0.12498 0.0
H867 H 0.54043 0.1797 0.13102 0.0
H868 H 0.54709 0.2524 0.15957 0.0
H869 H 0.50376 0.25599 0.16201 0.0
C870 C 0.47209 0.22213 0.14835 0.0
C871 C 0.45758 0.20292 0.1403 0.0
C872 C 0.49697 0.21996 0.14777 0.0
C873 C 0.4682 0.18132 0.13213 0.0
C874 C 0.49296 0.179 0.13159 0.0
C875 C 0.53239 0.1963 0.13788 0.0
C876 C 0.54689 0.21577 0.14501 0.0
C877 C 0.50751 0.19826 0.13914 0.0
C878 C 0.53627 0.23715 0.15392 0.0
C879 C 0.51151 0.23924 0.1553 0.0
H880 H 0.75379 0.53466 0.15292 0.0
H881 H 0.82619 0.5422 0.12369 0.0
H882 H 0.83111 0.49905 0.1238 0.0
H883 H 0.81472 0.45919 0.13098 0.0
H884 H 0.74239 0.451 0.16 0.0
H885 H 0.7376 0.49437 0.16132 0.0
C886 C 0.77064 0.52683 0.14668 0.0
C887 C 0.78956 0.54161 0.13824 0.0
C888 C 0.77337 0.50191 0.14673 0.0
C889 C 0.81132 0.53123 0.13024 0.0
C890 C 0.81417 0.50654 0.13028 0.0
C891 C 0.79793 0.46688 0.13771 0.0
C892 C 0.77893 0.45193 0.14532 0.0
C893 C 0.7953 0.49172 0.13831 0.0
C894 C 0.75729 0.46216 0.15403 0.0
C895 C 0.75454 0.48694 0.15475 0.0
H896 H 0.46026 0.80925 0.13524 0.0
H897 H 0.45521 0.73528 0.15908 0.0
H898 H 0.49878 0.7324 0.16046 0.0
H899 H 0.53842 0.7509 0.15369 0.0
H900 H 0.54251 0.82506 0.12999 0.0
H901 H 0.49924 0.82781 0.12974 0.0
C902 C 0.46866 0.7925 0.14085 0.0
C903 C 0.45455 0.7725 0.14698 0.0
C904 C 0.49358 0.79099 0.14153 0.0
C905 C 0.46571 0.75095 0.15429 0.0
C906 C 0.49061 0.74928 0.15502 0.0
C907 C 0.52979 0.76764 0.14853 0.0
C908 C 0.54368 0.78771 0.14179 0.0
C909 C 0.50475 0.76916 0.14848 0.0
C910 C 0.53227 0.80932 0.13523 0.0
C911 C 0.5075 0.81094 0.13507 0.0
H912 H 0.18767 0.45833 0.1349 0.0
H913 H 0.26205 0.45513 0.15758 0.0
H914 H 0.2636 0.49871 0.15985 0.0
H915 H 0.24378 0.53765 0.15471 0.0
H916 H 0.16934 0.54028 0.13199 0.0
H917 H 0.16784 0.49686 0.13049 0.0
C918 C 0.20424 0.46715 0.14037 0.0
C919 C 0.22474 0.4536 0.146 0.0
C920 C 0.20497 0.49206 0.14163 0.0
C921 C 0.24604 0.46524 0.15313 0.0
C922 C 0.24693 0.49011 0.15442 0.0
C923 C 0.22723 0.52869 0.1495 0.0
C924 C 0.20671 0.54211 0.14343 0.0
C925 C 0.2265 0.5037 0.14862 0.0
C926 C 0.18538 0.53032 0.13674 0.0
C927 C 0.18451 0.50551 0.13585 0.0
H928 H 0.11735 0.25773 0.45232 0.0
H929 H 0.13139 0.33305 0.44534 0.0
H930 H 0.13309 0.3363 0.49659 0.0
H931 H 0.12954 0.31744 0.54357 0.0
H932 H 0.11559 0.24183 0.54863 0.0
H933 H 0.1149 0.23906 0.49794 0.0
C934 C 0.12083 0.2749 0.46193 0.0
C935 C 0.12414 0.29513 0.44509 0.0
C936 C 0.12174 0.27658 0.49112 0.0
C937 C 0.12878 0.3172 0.4579 0.0
C938 C 0.1297 0.31906 0.48718 0.0
C939 C 0.12642 0.30039 0.5335 0.0
C940 C 0.12254 0.2799 0.54991 0.0
C941 C 0.12605 0.29885 0.50404 0.0
C942 C 0.11858 0.25791 0.53658 0.0
C943 C 0.11817 0.25626 0.50754 0.0
H944 H 0.67864 0.12708 0.54997 0.0
H945 H 0.75304 0.10768 0.55484 0.0
H946 H 0.75568 0.10695 0.5041 0.0
H947 H 0.73722 0.11139 0.45847 0.0
H948 H 0.66294 0.13039 0.45191 0.0
H949 H 0.65987 0.13169 0.50315 0.0
C950 C 0.6954 0.12276 0.53985 0.0
C951 C 0.7156 0.11743 0.55619 0.0
C952 C 0.69682 0.12225 0.51041 0.0
C953 C 0.7372 0.11181 0.54282 0.0
C954 C 0.73876 0.11138 0.51376 0.0
C955 C 0.72032 0.11584 0.46818 0.0
C956 C 0.70034 0.12077 0.45144 0.0
C957 C 0.71872 0.11649 0.49739 0.0
C958 C 0.67858 0.12649 0.46438 0.0
C959 C 0.67684 0.12725 0.49365 0.0
H960 H 0.87825 0.73258 0.46062 0.0
H961 H 0.85763 0.65872 0.45464 0.0
H962 H 0.85806 0.65549 0.50593 0.0
H963 H 0.86523 0.67393 0.55266 0.0
H964 H 0.88616 0.74796 0.55657 0.0
H965 H 0.88461 0.75078 0.50595 0.0
C966 C 0.8738 0.71572 0.47045 0.0
C967 C 0.86798 0.69591 0.45387 0.0
C968 C 0.87416 0.71404 0.49966 0.0
C969 C 0.8622 0.67425 0.46699 0.0
C970 C 0.86246 0.67241 0.49629 0.0
C971 C 0.86933 0.69065 0.54235 0.0
C972 C 0.87586 0.71066 0.55843 0.0
C973 C 0.86853 0.6922 0.51289 0.0
C974 C 0.88117 0.73222 0.54479 0.0
C975 C 0.8803 0.73391 0.51578 0.0
H976 H 0.31607 0.87232 0.54031 0.0
H977 H 0.23943 0.86925 0.54775 0.0
H978 H 0.23544 0.86882 0.49712 0.0
H979 H 0.25323 0.87068 0.4508 0.0
H980 H 0.32962 0.87409 0.4418 0.0
H981 H 0.33421 0.87297 0.49286 0.0
C982 C 0.29856 0.87141 0.53077 0.0
C983 C 0.27809 0.87093 0.54781 0.0
C984 C 0.29631 0.87133 0.50138 0.0
C985 C 0.25548 0.86976 0.53518 0.0
C986 C 0.25315 0.86952 0.50618 0.0
C987 C 0.27092 0.87113 0.45996 0.0
C988 C 0.29104 0.87258 0.44258 0.0
C989 C 0.27338 0.87054 0.48912 0.0
C990 C 0.31383 0.873 0.45478 0.0
C991 C 0.31646 0.87239 0.48396 0.0
H992 H 0.10922 0.73937 0.4554 0.0
H993 H 0.11829 0.66388 0.44213 0.0
H994 H 0.12196 0.65773 0.49285 0.0
H995 H 0.12199 0.67421 0.54127 0.0
H996 H 0.113 0.7501 0.55259 0.0
H997 H 0.10998 0.75562 0.50238 0.0
C998 C 0.11199 0.72152 0.46353 0.0
C999 C 0.11338 0.70211 0.44507 0.0
C1000 C 0.11413 0.7182 0.49244 0.0
C1001 C 0.11711 0.67913 0.45596 0.0
C1002 C 0.11921 0.67562 0.48494 0.0
C1003 C 0.11946 0.69191 0.53266 0.0
C1004 C 0.11767 0.71168 0.55072 0.0
C1005 C 0.11768 0.69506 0.50344 0.0
C1006 C 0.11439 0.73454 0.53926 0.0
C1007 C 0.11264 0.73776 0.51049 0.0
H1008 H 0.25508 0.12508 0.45201 0.0
H1009 H 0.33129 0.12737 0.44111 0.0
H1010 H 0.33669 0.12873 0.49215 0.0
H1011 H 0.3193 0.12645 0.54018 0.0
H1012 H 0.24273 0.12385 0.549 0.0
H1013 H 0.23798 0.12558 0.49859 0.0
C1014 C 0.27291 0.12601 0.46074 0.0
C1015 C 0.29275 0.12588 0.44287 0.0
C1016 C 0.27581 0.12665 0.48983 0.0
C1017 C 0.31571 0.12741 0.45449 0.0
C1018 C 0.31879 0.1281 0.48366 0.0
C1019 C 0.30164 0.12653 0.53099 0.0
C1020 C 0.28143 0.12476 0.54837 0.0
C1021 C 0.29893 0.12733 0.50161 0.0
C1022 C 0.25862 0.12492 0.53617 0.0
C1023 C 0.25582 0.12593 0.50728 0.0
H1024 H 0.88554 0.25426 0.45429 0.0
H1025 H 0.86678 0.32848 0.44609 0.0
H1026 H 0.86566 0.33248 0.49724 0.0
H1027 H 0.87068 0.3146 0.54452 0.0
H1028 H 0.88979 0.24019 0.55095 0.0
H1029 H 0.89007 0.23662 0.50034 0.0
C1030 C 0.88117 0.27135 0.46363 0.0
C1031 C 0.87628 0.29104 0.44645 0.0
C1032 C 0.88064 0.27348 0.49281 0.0
C1033 C 0.87064 0.31304 0.45891 0.0
C1034 C 0.87 0.31532 0.48814 0.0
C1035 C 0.87481 0.29764 0.53477 0.0
C1036 C 0.88023 0.27772 0.55155 0.0
C1037 C 0.87505 0.29564 0.50534 0.0
C1038 C 0.88559 0.25584 0.53862 0.0
C1039 C 0.88577 0.25373 0.50961 0.0
H1040 H 0.68087 0.86755 0.55257 0.0
H1041 H 0.75473 0.88902 0.55702 0.0
H1042 H 0.7572 0.88972 0.50643 0.0
H1043 H 0.73894 0.8849 0.46096 0.0
H1044 H 0.66541 0.86343 0.45409 0.0
H1045 H 0.66229 0.86197 0.50542 0.0
C1046 C 0.69745 0.87234 0.54239 0.0
C1047 C 0.71755 0.87827 0.5587 0.0
C1048 C 0.69887 0.87272 0.51284 0.0
C1049 C 0.73894 0.8844 0.54515 0.0
C1050 C 0.74043 0.88482 0.51612 0.0
C1051 C 0.72217 0.87986 0.47058 0.0
C1052 C 0.70242 0.87435 0.45372 0.0
C1053 C 0.72056 0.8791 0.4998 0.0
C1054 C 0.6809 0.86776 0.46663 0.0
C1055 C 0.67912 0.86697 0.49596 0.0
H1056 H 0.62107 0.75987 0.04445 0.0
H1057 H 0.62696 0.83605 0.05395 0.0
H1058 H 0.62663 0.84079 0.00279 0.0
H1059 H 0.62258 0.8229 0.95512 0.0
H1060 H 0.61637 0.74639 0.94783 0.0
H1061 H 0.61901 0.74224 0.99824 0.0
C1062 C 0.62238 0.77756 0.03541 0.0
C1063 C 0.62385 0.79758 0.05297 0.0
C1064 C 0.62205 0.78009 0.00626 0.0
C1065 C 0.62577 0.82034 0.04086 0.0
C1066 C 0.62552 0.82304 0.01162 0.0
C1067 C 0.62201 0.80537 0.96464 0.0
C1068 C 0.61908 0.78501 0.94766 0.0
C1069 C 0.62337 0.80301 0.99405 0.0
C1070 C 0.61839 0.76239 0.96031 0.0
C1071 C 0.61992 0.75995 0.98921 0.0
H1072 H 0.17157 0.62782 0.95896 0.0
H1073 H 0.24497 0.60572 0.95025 0.0
H1074 H 0.25003 0.60656 0.00067 0.0
H1075 H 0.23389 0.61262 0.04715 0.0
H1076 H 0.16066 0.63418 0.0578 0.0
H1077 H 0.15529 0.63466 0.00677 0.0
C1078 C 0.18863 0.62325 0.96818 0.0
C1079 C 0.20782 0.61664 0.95083 0.0
C1080 C 0.19149 0.62368 0.9975 0.0
C1081 C 0.22986 0.61079 0.96305 0.0
C1082 C 0.23282 0.61128 0.99193 0.0
C1083 C 0.21673 0.61753 0.03839 0.0
C1084 C 0.1977 0.62332 0.0562 0.0
C1085 C 0.21378 0.61757 0.00932 0.0
C1086 C 0.17561 0.62966 0.04447 0.0
C1087 C 0.17253 0.62988 0.01533 0.0
H1088 H 0.3642 0.17731 0.04244 0.0
H1089 H 0.39536 0.24753 0.04907 0.0
H1090 H 0.39545 0.25145 0.99864 0.0
H1091 H 0.38735 0.23547 0.95274 0.0
H1092 H 0.35643 0.16558 0.9435 0.0
H1093 H 0.35548 0.16105 0.99472 0.0
C1094 C 0.37093 0.19343 0.03275 0.0
C1095 C 0.37976 0.21207 0.04964 0.0
C1096 C 0.37099 0.19568 0.00328 0.0
C1097 C 0.38845 0.23286 0.03675 0.0
C1098 C 0.38854 0.23518 0.00781 0.0
C1099 C 0.38034 0.21919 0.9618 0.0
C1100 C 0.372 0.20089 0.94433 0.0
C1101 C 0.37994 0.21676 0.99093 0.0
C1102 C 0.36297 0.17996 0.95653 0.0
C1103 C 0.36245 0.17738 0.9858 0.0
H1104 H 0.82359 0.3709 0.04289 0.0
H1105 H 0.74721 0.3794 0.04877 0.0
H1106 H 0.74387 0.37871 0.99815 0.0
H1107 H 0.7622 0.37682 0.95232 0.0
H1108 H 0.83833 0.36865 0.94446 0.0
H1109 H 0.8422 0.36791 0.99568 0.0
C1110 C 0.80626 0.37254 0.03301 0.0
C1111 C 0.78571 0.37532 0.04963 0.0
C1112 C 0.80439 0.37219 0.00357 0.0
C1113 C 0.76335 0.37736 0.03656 0.0
C1114 C 0.76137 0.37694 0.00755 0.0
C1115 C 0.77969 0.3748 0.96173 0.0
C1116 C 0.79996 0.3729 0.94465 0.0
C1117 C 0.78173 0.37454 0.9909 0.0
C1118 C 0.82244 0.37016 0.95721 0.0
C1119 C 0.82465 0.3698 0.98647 0.0
H1120 H 0.61861 0.24254 0.04366 0.0
H1121 H 0.62888 0.16643 0.04779 0.0
H1122 H 0.62839 0.16418 0.99648 0.0
H1123 H 0.62421 0.18415 0.95033 0.0
H1124 H 0.61347 0.26036 0.94779 0.0
H1125 H 0.61501 0.26222 0.99858 0.0
C1126 C 0.62081 0.22542 0.0334 0.0
C1127 C 0.62375 0.20468 0.04948 0.0
C1128 C 0.62038 0.22429 0.00413 0.0
C1129 C 0.62659 0.18266 0.03583 0.0
C1130 C 0.62629 0.18138 0.00652 0.0
C1131 C 0.62226 0.20112 0.96096 0.0
C1132 C 0.61866 0.22206 0.94527 0.0
C1133 C 0.62306 0.20211 0.99042 0.0
C1134 C 0.61617 0.24395 0.95931 0.0
C1135 C 0.61707 0.24507 0.9884 0.0
H1136 H 0.75061 0.61751 0.04112 0.0
H1137 H 0.82654 0.62874 0.04511 0.0
H1138 H 0.82838 0.63037 0.99377 0.0
H1139 H 0.80814 0.62708 0.94753 0.0
H1140 H 0.73199 0.6159 0.94542 0.0
H1141 H 0.73055 0.61587 0.99619 0.0
C1142 C 0.7676 0.62037 0.03082 0.0
C1143 C 0.78842 0.62284 0.04684 0.0
C1144 C 0.76847 0.62127 0.00156 0.0
C1145 C 0.81025 0.62675 0.03317 0.0
C1146 C 0.81129 0.62764 0.00385 0.0
C1147 C 0.79127 0.62478 0.95826 0.0
C1148 C 0.77024 0.62135 0.94265 0.0
C1149 C 0.79051 0.6247 0.98777 0.0
C1150 C 0.74848 0.61844 0.95684 0.0
C1151 C 0.7476 0.61841 0.98593 0.0
H1152 H 0.38036 0.75166 0.953 0.0
H1153 H 0.35863 0.82513 0.94541 0.0
H1154 H 0.35994 0.82951 0.9965 0.0
H1155 H 0.36765 0.81218 0.0435 0.0
H1156 H 0.38953 0.73852 0.04948 0.0
H1157 H 0.38783 0.73459 0.99889 0.0
C1158 C 0.37583 0.76866 0.96247 0.0
C1159 C 0.36939 0.78802 0.94546 0.0
C1160 C 0.37674 0.77103 0.99162 0.0
C1161 C 0.36362 0.80992 0.95809 0.0
C1162 C 0.36441 0.81244 0.98727 0.0
C1163 C 0.37207 0.79532 0.03366 0.0
C1164 C 0.37873 0.77569 0.05028 0.0
C1165 C 0.37102 0.7931 0.00429 0.0
C1166 C 0.38436 0.75393 0.03725 0.0
C1167 C 0.38338 0.75162 0.00827 0.0
H1168 H 0.23778 0.37896 0.95506 0.0
H1169 H 0.16176 0.36833 0.95096 0.0
H1170 H 0.15973 0.36769 0.00232 0.0
H1171 H 0.17998 0.37084 0.0486 0.0
H1172 H 0.25621 0.38157 0.05066 0.0
H1173 H 0.25767 0.38142 -6e-05 0.0
C1174 C 0.22071 0.37648 0.96532 0.0
C1175 C 0.19995 0.37377 0.94926 0.0
C1176 C 0.21973 0.37615 0.99457 0.0
C1177 C 0.17801 0.37049 0.96292 0.0
C1178 C 0.17686 0.37013 0.99226 0.0
C1179 C 0.19686 0.37306 0.03786 0.0
C1180 C 0.21793 0.37627 0.05345 0.0
C1181 C 0.19765 0.37303 0.00835 0.0
C1182 C 0.23969 0.37914 0.03927 0.0
C1183 C 0.2406 0.37906 0.0102 0.0
H1184 H 0.1552 0.34173 0.1902 0.0
H1185 H 0.19935 0.3904 0.2371 0.0
H1186 H 0.18087 0.37738 0.28068 0.0
H1187 H 0.15514 0.34935 0.30588 0.0
H1188 H 0.11223 0.29936 0.25929 0.0
H1189 H 0.12702 0.31582 0.21531 0.0
C1190 C 0.16045 0.34974 0.20993 0.0
C1191 C 0.17871 0.36683 0.21048 0.0
C1192 C 0.15012 0.34178 0.23503 0.0
C1193 C 0.18543 0.37704 0.23618 0.0
C1194 C 0.17491 0.3696 0.26113 0.0
C1195 C 0.14878 0.3423 0.2861 0.0
C1196 C 0.13281 0.32306 0.28583 0.0
C1197 C 0.1577 0.35153 0.26088 0.0
C1198 C 0.12469 0.3141 0.26005 0.0
C1199 C 0.13315 0.32346 0.23487 0.0
H1200 H 0.61808 0.18083 0.23105 0.0
H1201 H 0.66896 0.14726 0.17594 0.0
H1202 H 0.68665 0.12625 0.21567 0.0
H1203 H 0.68991 0.12038 0.26645 0.0
H1204 H 0.63936 0.15437 0.32163 0.0
H1205 H 0.61907 0.17208 0.28139 0.0
C1206 C 0.63287 0.1687 0.22769 0.0
C1207 C 0.64239 0.16578 0.20067 0.0
C1208 C 0.64306 0.15687 0.25064 0.0
C1209 C 0.6614 0.14987 0.19657 0.0
C1210 C 0.67156 0.13792 0.21928 0.0
C1211 C 0.67427 0.13144 0.26965 0.0
C1212 C 0.66628 0.13628 0.29697 0.0
C1213 C 0.66289 0.14173 0.24647 0.0
C1214 C 0.6459 0.15046 0.3008 0.0
C1215 C 0.63435 0.16065 0.27781 0.0
H1216 H 0.805 0.61667 0.23107 0.0
H1217 H 0.84415 0.66409 0.17686 0.0
H1218 H 0.86351 0.68214 0.21752 0.0
H1219 H 0.86721 0.68623 0.26853 0.0
H1220 H 0.82806 0.63883 0.32275 0.0
H1221 H 0.81091 0.61884 0.28196 0.0
C1222 C 0.81793 0.63082 0.22814 0.0
C1223 C 0.823 0.63918 0.20102 0.0
C1224 C 0.82889 0.64117 0.25159 0.0
C1225 C 0.83991 0.65739 0.19752 0.0
C1226 C 0.85092 0.66776 0.22077 0.0
C1227 C 0.85507 0.67139 0.27142 0.0
C1228 C 0.84875 0.66414 0.2986 0.0
C1229 C 0.84523 0.66007 0.2479 0.0
C1230 C 0.83316 0.64478 0.30203 0.0
C1231 C 0.8233 0.63339 0.27873 0.0
H1232 H 0.37542 0.8033 0.23338 0.0
H1233 H 0.34121 0.84887 0.17272 0.0
H1234 H 0.32119 0.8706 0.21044 0.0
H1235 H 0.31079 0.87425 0.26042 0.0
H1236 H 0.3449 0.82818 0.32069 0.0
H1237 H 0.36765 0.8091 0.28334 0.0
C1238 C 0.36381 0.81819 0.22841 0.0
C1239 C 0.35964 0.82435 0.2003 0.0
C1240 C 0.35218 0.83036 0.25013 0.0
C1241 C 0.34469 0.84377 0.1942 0.0
C1242 C 0.33315 0.85611 0.21575 0.0
C1243 C 0.32338 0.86019 0.26538 0.0
C1244 C 0.32598 0.85247 0.29325 0.0
C1245 C 0.33633 0.84919 0.24375 0.0
C1246 C 0.34248 0.83437 0.29941 0.0
C1247 C 0.35547 0.82342 0.27805 0.0
H1248 H 0.18072 0.61224 0.76727 0.0
H1249 H 0.13541 0.65293 0.82251 0.0
H1250 H 0.11521 0.67053 0.78214 0.0
H1251 H 0.1136 0.67759 0.73155 0.0
H1252 H 0.15938 0.63757 0.67622 0.0
H1253 H 0.17607 0.61614 0.71632 0.0
C1254 C 0.1662 0.62473 0.77048 0.0
C1255 C 0.15975 0.63154 0.7978 0.0
C1256 C 0.1549 0.63495 0.7472 0.0
C1257 C 0.14076 0.6475 0.80168 0.0
C1258 C 0.12928 0.65763 0.77861 0.0
C1259 C 0.127 0.66393 0.72822 0.0
C1260 C 0.1355 0.65935 0.70104 0.0
C1261 C 0.13668 0.65199 0.75134 0.0
C1262 C 0.15263 0.64144 0.69697 0.0
C1263 C 0.16225 0.62929 0.71989 0.0
H1264 H 0.34228 0.1597 0.68656 0.0
H1265 H 0.30747 0.10223 0.7304 0.0
H1266 H 0.32311 0.1168 0.77484 0.0
H1267 H 0.34391 0.14778 0.80181 0.0
H1268 H 0.378 0.20575 0.75805 0.0
H1269 H 0.36552 0.1891 0.71325 0.0
C1270 C 0.33847 0.15017 0.70579 0.0
C1271 C 0.32365 0.13003 0.70519 0.0
C1272 C 0.34717 0.1589 0.73142 0.0
C1273 C 0.31876 0.11788 0.7303 0.0
C1274 C 0.32763 0.12623 0.75578 0.0
C1275 C 0.34877 0.15663 0.78245 0.0
C1276 C 0.36166 0.17806 0.78329 0.0
C1277 C 0.34138 0.14705 0.75668 0.0
C1278 C 0.36793 0.18928 0.75802 0.0
C1279 C 0.36081 0.17978 0.73234 0.0
H1280 H 0.84585 0.34449 0.68952 0.0
H1281 H 0.89309 0.29814 0.73557 0.0
H1282 H 0.88041 0.31622 0.77951 0.0
H1283 H 0.85304 0.34233 0.80521 0.0
H1284 H 0.80455 0.38758 0.75948 0.0
H1285 H 0.82073 0.37307 0.71521 0.0
C1286 C 0.85361 0.33865 0.70915 0.0
C1287 C 0.87018 0.31989 0.70933 0.0
C1288 C 0.8459 0.34881 0.73447 0.0
C1289 C 0.88011 0.31244 0.73491 0.0
C1290 C 0.87287 0.32274 0.76007 0.0
C1291 C 0.8463 0.34928 0.78556 0.0
C1292 C 0.82752 0.36582 0.7856 0.0
C1293 C 0.85533 0.3405 0.76017 0.0
C1294 C 0.81893 0.37469 0.75998 0.0
C1295 C 0.82812 0.36637 0.73464 0.0
H1296 H 0.65017 0.84788 0.69664 0.0
H1297 H 0.70509 0.88279 0.74478 0.0
H1298 H 0.68623 0.87004 0.78818 0.0
H1299 H 0.65615 0.84598 0.81254 0.0
H1300 H 0.60175 0.81017 0.76453 0.0
H1301 H 0.61814 0.82644 0.72128 0.0
C1302 C 0.65779 0.85293 0.71664 0.0
C1303 C 0.67909 0.86605 0.71744 0.0
C1304 C 0.64701 0.84528 0.74165 0.0
C1305 C 0.68878 0.87252 0.74353 0.0
C1306 C 0.67802 0.86523 0.76842 0.0
C1307 C 0.64768 0.84206 0.79266 0.0
C1308 C 0.6279 0.82677 0.79176 0.0
C1309 C 0.65743 0.85115 0.76775 0.0
C1310 C 0.61712 0.82181 0.7658 0.0
C1311 C 0.6265 0.83105 0.74101 0.0
H1312 H 0.83623 0.64894 0.6921 0.0
H1313 H 0.88612 0.68869 0.74255 0.0
H1314 H 0.86923 0.67157 0.78505 0.0
H1315 H 0.83776 0.64836 0.80812 0.0
H1316 H 0.78706 0.60961 0.75772 0.0
H1317 H 0.80689 0.62302 0.71514 0.0
C1318 C 0.84362 0.65355 0.71238 0.0
C1319 C 0.86222 0.67021 0.71419 0.0
C1320 C 0.83355 0.64394 0.73682 0.0
C1321 C 0.87165 0.67602 0.7406 0.0
C1322 C 0.86199 0.66628 0.76495 0.0
C1323 C 0.83129 0.64259 0.78783 0.0
C1324 C 0.81086 0.62823 0.78608 0.0
C1325 C 0.84254 0.65069 0.76335 0.0
C1326 C 0.80268 0.62084 0.75964 0.0
C1327 C 0.81397 0.62852 0.73524 0.0
H1328 H 0.37003 0.80331 0.76166 0.0
H1329 H 0.33028 0.84737 0.8192 0.0
H1330 H 0.31402 0.87019 0.78005 0.0
H1331 H 0.30845 0.87531 0.72958 0.0
H1332 H 0.34725 0.83067 0.67179 0.0
H1333 H 0.36688 0.8106 0.71101 0.0
C1334 C 0.35798 0.81805 0.76564 0.0
C1335 C 0.35115 0.8235 0.79326 0.0
C1336 C 0.34853 0.83094 0.74302 0.0
C1337 C 0.33569 0.84274 0.79812 0.0
C1338 C 0.32637 0.85578 0.77575 0.0
C1339 C 0.32146 0.8614 0.72553 0.0
C1340 C 0.32626 0.85434 0.69784 0.0
C1341 C 0.33228 0.8497 0.74812 0.0
C1342 C 0.34323 0.8364 0.69292 0.0
C1343 C 0.35434 0.82484 0.71534 0.0
H1344 H 0.11566 0.31107 0.73119 0.0
H1345 H 0.16156 0.34956 0.67462 0.0
H1346 H 0.17899 0.3712 0.71408 0.0
H1347 H 0.18413 0.37583 0.76491 0.0
H1348 H 0.13847 0.33692 0.82139 0.0
H1349 H 0.11779 0.31892 0.78163 0.0
C1350 C 0.12925 0.32444 0.72746 0.0
C1351 C 0.13754 0.32853 0.70011 0.0
C1352 C 0.13933 0.33657 0.75023 0.0
C1353 C 0.15494 0.34607 0.69551 0.0
C1354 C 0.16499 0.35834 0.71808 0.0
C1355 C 0.16944 0.36364 0.7685 0.0
C1356 C 0.16302 0.35745 0.79602 0.0
C1357 C 0.15779 0.35323 0.74556 0.0
C1358 C 0.14381 0.34186 0.80039 0.0
C1359 C 0.13204 0.33151 0.77768 0.0
H1360 H 0.68611 0.1238 0.73822 0.0
H1361 H 0.64907 0.16552 0.67601 0.0
H1362 H 0.627 0.1862 0.71288 0.0
H1363 H 0.6206 0.19452 0.76279 0.0
H1364 H 0.65801 0.15311 0.82498 0.0
H1365 H 0.67744 0.13002 0.78805 0.0
C1366 C 0.67303 0.13726 0.73271 0.0
C1367 C 0.66937 0.14329 0.70445 0.0
C1368 C 0.66058 0.14918 0.754 0.0
C1369 C 0.65226 0.16063 0.69762 0.0
C1370 C 0.6397 0.17249 0.71869 0.0
C1371 C 0.63281 0.18027 0.76827 0.0
C1372 C 0.63802 0.17565 0.79656 0.0
C1373 C 0.64406 0.16724 0.74695 0.0
C1374 C 0.65376 0.15705 0.80335 0.0
C1375 C 0.66493 0.1439 0.78225 0.0
H1376 H 0.81321 0.37728 0.23256 0.0
H1377 H 0.85595 0.3372 0.17404 0.0
H1378 H 0.87646 0.31753 0.21291 0.0
H1379 H 0.87933 0.30896 0.26335 0.0
H1380 H 0.83617 0.34892 0.32161 0.0
H1381 H 0.81879 0.37152 0.28297 0.0
C1382 C 0.82725 0.36448 0.2283 0.0
C1383 C 0.83291 0.35851 0.2005 0.0
C1384 C 0.83871 0.35307 0.25069 0.0
C1385 C 0.85127 0.34206 0.19528 0.0
C1386 C 0.86289 0.33072 0.21749 0.0
C1387 C 0.8663 0.32279 0.26759 0.0
C1388 C 0.85882 0.32708 0.29524 0.0
C1389 C 0.8563 0.33563 0.24525 0.0
C1390 C 0.84211 0.34519 0.30048 0.0
C1391 C 0.83214 0.35809 0.2784 0.0
H1392 H 0.65728 0.84635 0.1959 0.0
H1393 H 0.61263 0.79576 0.23912 0.0
H1394 H 0.62608 0.81124 0.28418 0.0
H1395 H 0.65261 0.83737 0.31144 0.0
H1396 H 0.69823 0.88701 0.26805 0.0
H1397 H 0.68226 0.87384 0.22316 0.0
C1398 C 0.6503 0.83892 0.21518 0.0
C1399 C 0.63407 0.81989 0.21414 0.0
C1400 C 0.6584 0.84765 0.24109 0.0
C1401 C 0.62524 0.81038 0.23933 0.0
C1402 C 0.63294 0.81919 0.26514 0.0
C1403 C 0.65884 0.84546 0.29217 0.0
C1404 C 0.67665 0.86304 0.2931 0.0
C1405 C 0.64983 0.83755 0.2663 0.0
C1406 C 0.68461 0.87333 0.26793 0.0
C1407 C 0.6755 0.86581 0.24221 0.0
H1408 H 0.14299 0.652 0.30708 0.0
H1409 H 0.10454 0.70482 0.25941 0.0
H1410 H 0.12029 0.68829 0.21591 0.0
H1411 H 0.14769 0.66099 0.19172 0.0
H1412 H 0.18736 0.60924 0.23966 0.0
H1413 H 0.16835 0.62306 0.28264 0.0
C1414 C 0.1378 0.65965 0.28714 0.0
C1415 C 0.12276 0.67965 0.28645 0.0
C1416 C 0.1473 0.65037 0.26224 0.0
C1417 C 0.11621 0.68946 0.26048 0.0
C1418 C 0.12525 0.68006 0.23559 0.0
C1419 C 0.15194 0.65258 0.21154 0.0
C1420 C 0.16901 0.63427 0.21255 0.0
C1421 C 0.14124 0.66086 0.23626 0.0
C1422 C 0.17437 0.6235 0.23836 0.0
C1423 C 0.16353 0.63139 0.26297 0.0
H1424 H 0.34379 0.15171 0.30304 0.0
H1425 H 0.28907 0.11448 0.25708 0.0
H1426 H 0.30639 0.12781 0.21289 0.0
H1427 H 0.33562 0.15236 0.18731 0.0
H1428 H 0.3898 0.19003 0.23372 0.0
H1429 H 0.37435 0.17406 0.27749 0.0
C1430 C 0.33578 0.14637 0.28335 0.0
C1431 C 0.3151 0.1323 0.28336 0.0
C1432 C 0.34572 0.15422 0.258 0.0
C1433 C 0.30496 0.12542 0.25766 0.0
C1434 C 0.31484 0.13304 0.23235 0.0
C1435 C 0.34421 0.15677 0.20698 0.0
C1436 C 0.36372 0.17245 0.20725 0.0
C1437 C 0.33502 0.14777 0.23226 0.0
C1438 C 0.37465 0.17809 0.23292 0.0
C1439 C 0.36581 0.16901 0.25802 0.0
loop_
_geom_bond_atom_site_label_1
_geom_bond_atom_site_label_2
_geom_bond_distance
_geom_bond_site_symmetry_2
_ccdc_geom_bond_type
In0 O1 2.294 . S
In0 O2 2.326 . S
In0 O6 2.266 . S
In0 O7 2.326 . S
In0 O8 2.266 . S
In0 O9 2.326 . S
In0 O11 2.294 . S
In0 O12 2.326 . S
O1 In0 2.294 . S
O1 C10 1.240 . S
O2 In0 2.326 . S
O2 C10 1.252 . S
C3 O6 1.252 . S
C3 O7 1.260 . S
C4 O11 1.240 . S
C4 O12 1.252 . S
C5 O8 1.252 . S
C5 O9 1.260 . S
O6 In0 2.266 . S
O6 C3 1.252 . S
O7 In0 2.326 . S
O7 C3 1.260 . S
O8 In0 2.266 . S
O8 C5 1.252 . S
O9 In0 2.326 . S
O9 C5 1.260 . S
C10 O1 1.240 . S
C10 O2 1.252 . S
O11 In0 2.294 . S
O11 C4 1.240 . S
O12 In0 2.326 . S
O12 C4 1.252 . S
In13 O14 2.294 . S
In13 O15 2.326 . S
In13 O19 2.266 . S
In13 O20 2.326 . S
In13 O21 2.266 . S
In13 O22 2.326 . S
In13 O24 2.294 . S
In13 O25 2.326 . S
O14 In13 2.294 . S
O14 C23 1.240 . S
O15 In13 2.326 . S
O15 C23 1.252 . S
C16 O19 1.252 . S
C16 O20 1.260 . S
C17 O24 1.240 . S
C17 O25 1.252 . S
C18 O21 1.252 . S
C18 O22 1.260 . S
O19 In13 2.266 . S
O19 C16 1.252 . S
O20 In13 2.326 . S
O20 C16 1.260 . S
O21 In13 2.266 . S
O21 C18 1.252 . S
O22 In13 2.326 . S
O22 C18 1.260 . S
C23 O14 1.240 . S
C23 O15 1.252 . S
O24 In13 2.294 . S
O24 C17 1.240 . S
O25 In13 2.326 . S
O25 C17 1.252 . S
In26 O27 2.294 . S
In26 O28 2.326 . S
In26 O32 2.266 . S
In26 O33 2.326 . S
In26 O34 2.266 . S
In26 O35 2.326 . S
In26 O37 2.294 . S
In26 O38 2.326 . S
O27 In26 2.294 . S
O27 C36 1.240 . S
O28 In26 2.326 . S
O28 C36 1.252 . S
C29 O32 1.252 . S
C29 O33 1.260 . S
C30 O37 1.240 . S
C30 O38 1.252 . S
C31 O34 1.252 . S
C31 O35 1.260 . S
O32 In26 2.266 . S
O32 C29 1.252 . S
O33 In26 2.326 . S
O33 C29 1.260 . S
O34 In26 2.266 . S
O34 C31 1.252 . S
O35 In26 2.326 . S
O35 C31 1.260 . S
C36 O27 1.240 . S
C36 O28 1.252 . S
O37 In26 2.294 . S
O37 C30 1.240 . S
O38 In26 2.326 . S
O38 C30 1.252 . S
In39 O40 2.294 . S
In39 O41 2.326 . S
In39 O45 2.266 . S
In39 O46 2.326 . S
In39 O47 2.266 . S
In39 O48 2.326 . S
In39 O50 2.294 . S
In39 O51 2.326 . S
O40 In39 2.294 . S
O40 C49 1.240 . S
O41 In39 2.326 . S
O41 C49 1.252 . S
C42 O45 1.252 . S
C42 O46 1.260 . S
C43 O50 1.240 . S
C43 O51 1.252 . S
C44 O47 1.252 . S
C44 O48 1.260 . S
O45 In39 2.266 . S
O45 C42 1.252 . S
O46 In39 2.326 . S
O46 C42 1.260 . S
O47 In39 2.266 . S
O47 C44 1.252 . S
O48 In39 2.326 . S
O48 C44 1.260 . S
C49 O40 1.240 . S
C49 O41 1.252 . S
O50 In39 2.294 . S
O50 C43 1.240 . S
O51 In39 2.326 . S
O51 C43 1.252 . S
In52 O53 2.294 . S
In52 O54 2.326 . S
In52 O58 2.266 . S
In52 O59 2.326 . S
In52 O60 2.266 . S
In52 O61 2.326 . S
In52 O63 2.294 . S
In52 O64 2.326 . S
O53 In52 2.294 . S
O53 C62 1.240 . S
O54 In52 2.326 . S
O54 C62 1.252 . S
C55 O58 1.252 . S
C55 O59 1.260 . S
C56 O63 1.240 . S
C56 O64 1.252 . S
C57 O60 1.252 . S
C57 O61 1.260 . S
O58 In52 2.266 . S
O58 C55 1.252 . S
O59 In52 2.326 . S
O59 C55 1.260 . S
O60 In52 2.266 . S
O60 C57 1.252 . S
O61 In52 2.326 . S
O61 C57 1.260 . S
C62 O53 1.240 . S
C62 O54 1.252 . S
O63 In52 2.294 . S
O63 C56 1.240 . S
O64 In52 2.326 . S
O64 C56 1.252 . S
In65 O66 2.294 . S
In65 O67 2.326 . S
In65 O71 2.266 . S
In65 O72 2.326 . S
In65 O73 2.266 . S
In65 O74 2.326 . S
In65 O76 2.294 . S
In65 O77 2.326 . S
O66 In65 2.294 . S
O66 C75 1.240 . S
O67 In65 2.326 . S
O67 C75 1.252 . S
C68 O71 1.252 . S
C68 O72 1.260 . S
C69 O76 1.240 . S
C69 O77 1.252 . S
C70 O73 1.252 . S
C70 O74 1.260 . S
O71 In65 2.266 . S
O71 C68 1.252 . S
O72 In65 2.326 . S
O72 C68 1.260 . S
O73 In65 2.266 . S
O73 C70 1.252 . S
O74 In65 2.326 . S
O74 C70 1.260 . S
C75 O66 1.240 . S
C75 O67 1.252 . S
O76 In65 2.294 . S
O76 C69 1.240 . S
O77 In65 2.326 . S
O77 C69 1.252 . S
In78 O79 2.294 . S
In78 O80 2.326 . S
In78 O84 2.266 . S
In78 O85 2.326 . S
In78 O86 2.266 . S
In78 O87 2.326 . S
In78 O89 2.294 . S
In78 O90 2.326 . S
O79 In78 2.294 . S
O79 C88 1.240 . S
O80 In78 2.326 . S
O80 C88 1.252 . S
C81 O84 1.252 . S
C81 O85 1.260 . S
C82 O89 1.240 . S
C82 O90 1.252 . S
C83 O86 1.252 . S
C83 O87 1.260 . S
O84 In78 2.266 . S
O84 C81 1.252 . S
O85 In78 2.326 . S
O85 C81 1.260 . S
O86 In78 2.266 . S
O86 C83 1.252 . S
O87 In78 2.326 . S
O87 C83 1.260 . S
C88 O79 1.240 . S
C88 O80 1.252 . S
O89 In78 2.294 . S
O89 C82 1.240 . S
O90 In78 2.326 . S
O90 C82 1.252 . S
In91 O92 2.294 . S
In91 O93 2.326 . S
In91 O97 2.266 . S
In91 O98 2.326 . S
In91 O99 2.266 . S
In91 O100 2.326 . S
In91 O102 2.294 . S
In91 O103 2.326 . S
O92 In91 2.294 . S
O92 C101 1.240 . S
O93 In91 2.326 . S
O93 C101 1.252 . S
C94 O97 1.252 . S
C94 O98 1.260 . S
C95 O102 1.240 . S
C95 O103 1.252 . S
C96 O99 1.252 . S
C96 O100 1.260 . S
O97 In91 2.266 . S
O97 C94 1.252 . S
O98 In91 2.326 . S
O98 C94 1.260 . S
O99 In91 2.266 . S
O99 C96 1.252 . S
O100 In91 2.326 . S
O100 C96 1.260 . S
C101 O92 1.240 . S
C101 O93 1.252 . S
O102 In91 2.294 . S
O102 C95 1.240 . S
O103 In91 2.326 . S
O103 C95 1.252 . S
In104 O105 2.294 . S
In104 O106 2.326 . S
In104 O110 2.266 . S
In104 O111 2.326 . S
In104 O112 2.266 . S
In104 O113 2.326 . S
In104 O115 2.294 . S
In104 O116 2.326 . S
O105 In104 2.294 . S
O105 C114 1.240 . S
O106 In104 2.326 . S
O106 C114 1.252 . S
C107 O110 1.252 . S
C107 O111 1.260 . S
C108 O115 1.240 . S
C108 O116 1.252 . S
C109 O112 1.252 . S
C109 O113 1.260 . S
O110 In104 2.266 . S
O110 C107 1.252 . S
O111 In104 2.326 . S
O111 C107 1.260 . S
O112 In104 2.266 . S
O112 C109 1.252 . S
O113 In104 2.326 . S
O113 C109 1.260 . S
C114 O105 1.240 . S
C114 O106 1.252 . S
O115 In104 2.294 . S
O115 C108 1.240 . S
O116 In104 2.326 . S
O116 C108 1.252 . S
In117 O118 2.294 . S
In117 O119 2.326 . S
In117 O123 2.266 . S
In117 O124 2.326 . S
In117 O125 2.266 . S
In117 O126 2.326 . S
In117 O128 2.294 . S
In117 O129 2.326 . S
O118 In117 2.294 . S
O118 C127 1.240 . S
O119 In117 2.326 . S
O119 C127 1.252 . S
C120 O123 1.252 . S
C120 O124 1.260 . S
C121 O128 1.240 . S
C121 O129 1.252 . S
C122 O125 1.252 . S
C122 O126 1.260 . S
O123 In117 2.266 . S
O123 C120 1.252 . S
O124 In117 2.326 . S
O124 C120 1.260 . S
O125 In117 2.266 . S
O125 C122 1.252 . S
O126 In117 2.326 . S
O126 C122 1.260 . S
C127 O118 1.240 . S
C127 O119 1.252 . S
O128 In117 2.294 . S
O128 C121 1.240 . S
O129 In117 2.326 . S
O129 C121 1.252 . S
In130 O131 2.294 . S
In130 O132 2.326 . S
In130 O136 2.266 . S
In130 O137 2.326 . S
In130 O138 2.266 . S
In130 O139 2.326 . S
In130 O141 2.294 . S
In130 O142 2.326 . S
O131 In130 2.294 . S
O131 C140 1.240 . S
O132 In130 2.326 . S
O132 C140 1.252 . S
C133 O136 1.252 . S
C133 O137 1.260 . S
C134 O141 1.240 . S
C134 O142 1.252 . S
C135 O138 1.252 . S
C135 O139 1.260 . S
O136 In130 2.266 . S
O136 C133 1.252 . S
O137 In130 2.326 . S
O137 C133 1.260 . S
O138 In130 2.266 . S
O138 C135 1.252 . S
O139 In130 2.326 . S
O139 C135 1.260 . S
C140 O131 1.240 . S
C140 O132 1.252 . S
O141 In130 2.294 . S
O141 C134 1.240 . S
O142 In130 2.326 . S
O142 C134 1.252 . S
In143 O144 2.294 . S
In143 O145 2.326 . S
In143 O149 2.266 . S
In143 O150 2.326 . S
In143 O151 2.266 . S
In143 O152 2.326 . S
In143 O154 2.294 . S
In143 O155 2.326 . S
O144 In143 2.294 . S
O144 C153 1.240 . S
O145 In143 2.326 . S
O145 C153 1.252 . S
C146 O149 1.252 . S
C146 O150 1.260 . S
C147 O154 1.240 . S
C147 O155 1.252 . S
C148 O151 1.252 . S
C148 O152 1.260 . S
O149 In143 2.266 . S
O149 C146 1.252 . S
O150 In143 2.326 . S
O150 C146 1.260 . S
O151 In143 2.266 . S
O151 C148 1.252 . S
O152 In143 2.326 . S
O152 C148 1.260 . S
C153 O144 1.240 . S
C153 O145 1.252 . S
O154 In143 2.294 . S
O154 C147 1.240 . S
O155 In143 2.326 . S
O155 C147 1.252 . S
In156 O157 2.294 . S
In156 O158 2.326 . S
In156 O162 2.266 . S
In156 O163 2.326 . S
In156 O164 2.266 . S
In156 O165 2.326 . S
In156 O167 2.294 . S
In156 O168 2.326 . S
O157 In156 2.294 . S
O157 C166 1.240 . S
O158 In156 2.326 . S
O158 C166 1.252 . S
C159 O162 1.252 . S
C159 O163 1.260 . S
C160 O167 1.240 . S
C160 O168 1.252 . S
C161 O164 1.252 . S
C161 O165 1.260 . S
O162 In156 2.266 . S
O162 C159 1.252 . S
O163 In156 2.326 . S
O163 C159 1.260 . S
O164 In156 2.266 . S
O164 C161 1.252 . S
O165 In156 2.326 . S
O165 C161 1.260 . S
C166 O157 1.240 . S
C166 O158 1.252 . S
O167 In156 2.294 . S
O167 C160 1.240 . S
O168 In156 2.326 . S
O168 C160 1.252 . S
In169 O170 2.294 . S
In169 O171 2.326 . S
In169 O175 2.266 . S
In169 O176 2.326 . S
In169 O177 2.266 . S
In169 O178 2.326 . S
In169 O180 2.294 . S
In169 O181 2.326 . S
O170 In169 2.294 . S
O170 C179 1.240 . S
O171 In169 2.326 . S
O171 C179 1.252 . S
C172 O175 1.252 . S
C172 O176 1.260 . S
C173 O180 1.240 . S
C173 O181 1.252 . S
C174 O177 1.252 . S
C174 O178 1.260 . S
O175 In169 2.266 . S
O175 C172 1.252 . S
O176 In169 2.326 . S
O176 C172 1.260 . S
O177 In169 2.266 . S
O177 C174 1.252 . S
O178 In169 2.326 . S
O178 C174 1.260 . S
C179 O170 1.240 . S
C179 O171 1.252 . S
O180 In169 2.294 . S
O180 C173 1.240 . S
O181 In169 2.326 . S
O181 C173 1.252 . S
In182 O183 2.294 . S
In182 O184 2.326 . S
In182 O188 2.266 . S
In182 O189 2.326 . S
In182 O190 2.266 . S
In182 O191 2.326 . S
In182 O193 2.294 . S
In182 O194 2.326 . S
O183 In182 2.294 . S
O183 C192 1.240 . S
O184 In182 2.326 . S
O184 C192 1.252 . S
C185 O188 1.252 . S
C185 O189 1.260 . S
C186 O193 1.240 . S
C186 O194 1.252 . S
C187 O190 1.252 . S
C187 O191 1.260 . S
O188 In182 2.266 . S
O188 C185 1.252 . S
O189 In182 2.326 . S
O189 C185 1.260 . S
O190 In182 2.266 . S
O190 C187 1.252 . S
O191 In182 2.326 . S
O191 C187 1.260 . S
C192 O183 1.240 . S
C192 O184 1.252 . S
O193 In182 2.294 . S
O193 C186 1.240 . S
O194 In182 2.326 . S
O194 C186 1.252 . S
In195 O196 2.294 . S
In195 O197 2.326 . S
In195 O201 2.266 . S
In195 O202 2.326 . S
In195 O203 2.266 . S
In195 O204 2.326 . S
In195 O206 2.294 . S
In195 O207 2.326 . S
O196 In195 2.294 . S
O196 C205 1.240 . S
O197 In195 2.326 . S
O197 C205 1.252 . S
C198 O201 1.252 . S
C198 O202 1.260 . S
C199 O206 1.240 . S
C199 O207 1.252 . S
C200 O203 1.252 . S
C200 O204 1.260 . S
O201 In195 2.266 . S
O201 C198 1.252 . S
O202 In195 2.326 . S
O202 C198 1.260 . S
O203 In195 2.266 . S
O203 C200 1.252 . S
O204 In195 2.326 . S
O204 C200 1.260 . S
C205 O196 1.240 . S
C205 O197 1.252 . S
O206 In195 2.294 . S
O206 C199 1.240 . S
O207 In195 2.326 . S
O207 C199 1.252 . S
In208 O209 2.294 . S
In208 O210 2.326 . S
In208 O214 2.266 . S
In208 O215 2.326 . S
In208 O216 2.266 . S
In208 O217 2.326 . S
In208 O219 2.294 . S
In208 O220 2.326 . S
O209 In208 2.294 . S
O209 C218 1.240 . S
O210 In208 2.326 . S
O210 C218 1.252 . S
C211 O214 1.252 . S
C211 O215 1.260 . S
C212 O219 1.240 . S
C212 O220 1.252 . S
C213 O216 1.252 . S
C213 O217 1.260 . S
O214 In208 2.266 . S
O214 C211 1.252 . S
O215 In208 2.326 . S
O215 C211 1.260 . S
O216 In208 2.266 . S
O216 C213 1.252 . S
O217 In208 2.326 . S
O217 C213 1.260 . S
C218 O209 1.240 . S
C218 O210 1.252 . S
O219 In208 2.294 . S
O219 C212 1.240 . S
O220 In208 2.326 . S
O220 C212 1.252 . S
In221 O222 2.294 . S
In221 O223 2.326 . S
In221 O227 2.266 . S
In221 O228 2.326 . S
In221 O229 2.266 . S
In221 O230 2.326 . S
In221 O232 2.294 . S
In221 O233 2.326 . S
O222 In221 2.294 . S
O222 C231 1.240 . S
O223 In221 2.326 . S
O223 C231 1.252 . S
C224 O227 1.252 . S
C224 O228 1.260 . S
C225 O232 1.240 . S
C225 O233 1.252 . S
C226 O229 1.252 . S
C226 O230 1.260 . S
O227 In221 2.266 . S
O227 C224 1.252 . S
O228 In221 2.326 . S
O228 C224 1.260 . S
O229 In221 2.266 . S
O229 C226 1.252 . S
O230 In221 2.326 . S
O230 C226 1.260 . S
C231 O222 1.240 . S
C231 O223 1.252 . S
O232 In221 2.294 . S
O232 C225 1.240 . S
O233 In221 2.326 . S
O233 C225 1.252 . S
In234 O235 2.294 . S
In234 O236 2.326 . S
In234 O240 2.266 . S
In234 O241 2.326 . S
In234 O242 2.266 . S
In234 O243 2.326 . S
In234 O245 2.294 . S
In234 O246 2.326 . S
O235 In234 2.294 . S
O235 C244 1.240 . S
O236 In234 2.326 . S
O236 C244 1.252 . S
C237 O240 1.252 . S
C237 O241 1.260 . S
C238 O245 1.240 . S
C238 O246 1.252 . S
C239 O242 1.252 . S
C239 O243 1.260 . S
O240 In234 2.266 . S
O240 C237 1.252 . S
O241 In234 2.326 . S
O241 C237 1.260 . S
O242 In234 2.266 . S
O242 C239 1.252 . S
O243 In234 2.326 . S
O243 C239 1.260 . S
C244 O235 1.240 . S
C244 O236 1.252 . S
O245 In234 2.294 . S
O245 C238 1.240 . S
O246 In234 2.326 . S
O246 C238 1.252 . S
In247 O248 2.294 . S
In247 O249 2.326 . S
In247 O253 2.266 . S
In247 O254 2.326 . S
In247 O255 2.266 . S
In247 O256 2.326 . S
In247 O258 2.294 . S
In247 O259 2.326 . S
O248 In247 2.294 . S
O248 C257 1.240 . S
O249 In247 2.326 . S
O249 C257 1.252 . S
C250 O253 1.252 . S
C250 O254 1.260 . S
C251 O258 1.240 . S
C251 O259 1.252 . S
C252 O255 1.252 . S
C252 O256 1.260 . S
O253 In247 2.266 . S
O253 C250 1.252 . S
O254 In247 2.326 . S
O254 C250 1.260 . S
O255 In247 2.266 . S
O255 C252 1.252 . S
O256 In247 2.326 . S
O256 C252 1.260 . S
C257 O248 1.240 . S
C257 O249 1.252 . S
O258 In247 2.294 . S
O258 C251 1.240 . S
O259 In247 2.326 . S
O259 C251 1.252 . S
In260 O261 2.294 . S
In260 O262 2.326 . S
In260 O266 2.266 . S
In260 O267 2.326 . S
In260 O268 2.266 . S
In260 O269 2.326 . S
In260 O271 2.294 . S
In260 O272 2.326 . S
O261 In260 2.294 . S
O261 C270 1.240 . S
O262 In260 2.326 . S
O262 C270 1.252 . S
C263 O266 1.252 . S
C263 O267 1.260 . S
C264 O271 1.240 . S
C264 O272 1.252 . S
C265 O268 1.252 . S
C265 O269 1.260 . S
O266 In260 2.266 . S
O266 C263 1.252 . S
O267 In260 2.326 . S
O267 C263 1.260 . S
O268 In260 2.266 . S
O268 C265 1.252 . S
O269 In260 2.326 . S
O269 C265 1.260 . S
C270 O261 1.240 . S
C270 O262 1.252 . S
O271 In260 2.294 . S
O271 C264 1.240 . S
O272 In260 2.326 . S
O272 C264 1.252 . S
In273 O274 2.294 . S
In273 O275 2.326 . S
In273 O279 2.266 . S
In273 O280 2.326 . S
In273 O281 2.266 . S
In273 O282 2.326 . S
In273 O284 2.294 . S
In273 O285 2.326 . S
O274 In273 2.294 . S
O274 C283 1.240 . S
O275 In273 2.326 . S
O275 C283 1.252 . S
C276 O279 1.252 . S
C276 O280 1.260 . S
C277 O284 1.240 . S
C277 O285 1.252 . S
C278 O281 1.252 . S
C278 O282 1.260 . S
O279 In273 2.266 . S
O279 C276 1.252 . S
O280 In273 2.326 . S
O280 C276 1.260 . S
O281 In273 2.266 . S
O281 C278 1.252 . S
O282 In273 2.326 . S
O282 C278 1.260 . S
C283 O274 1.240 . S
C283 O275 1.252 . S
O284 In273 2.294 . S
O284 C277 1.240 . S
O285 In273 2.326 . S
O285 C277 1.252 . S
In286 O287 2.294 . S
In286 O288 2.326 . S
In286 O292 2.266 . S
In286 O293 2.326 . S
In286 O294 2.266 . S
In286 O295 2.326 . S
In286 O297 2.294 . S
In286 O298 2.326 . S
O287 In286 2.294 . S
O287 C296 1.240 . S
O288 In286 2.326 . S
O288 C296 1.252 . S
C289 O292 1.252 . S
C289 O293 1.260 . S
C290 O297 1.240 . S
C290 O298 1.252 . S
C291 O294 1.252 . S
C291 O295 1.260 . S
O292 In286 2.266 . S
O292 C289 1.252 . S
O293 In286 2.326 . S
O293 C289 1.260 . S
O294 In286 2.266 . S
O294 C291 1.252 . S
O295 In286 2.326 . S
O295 C291 1.260 . S
C296 O287 1.240 . S
C296 O288 1.252 . S
O297 In286 2.294 . S
O297 C290 1.240 . S
O298 In286 2.326 . S
O298 C290 1.252 . S
In299 O300 2.294 . S
In299 O301 2.326 . S
In299 O305 2.266 . S
In299 O306 2.326 . S
In299 O307 2.266 . S
In299 O308 2.326 . S
In299 O310 2.294 . S
In299 O311 2.326 . S
O300 In299 2.294 . S
O300 C309 1.240 . S
O301 In299 2.326 . S
O301 C309 1.252 . S
C302 O305 1.252 . S
C302 O306 1.260 . S
C303 O310 1.240 . S
C303 O311 1.252 . S
C304 O307 1.252 . S
C304 O308 1.260 . S
O305 In299 2.266 . S
O305 C302 1.252 . S
O306 In299 2.326 . S
O306 C302 1.260 . S
O307 In299 2.266 . S
O307 C304 1.252 . S
O308 In299 2.326 . S
O308 C304 1.260 . S
C309 O300 1.240 . S
C309 O301 1.252 . S
O310 In299 2.294 . S
O310 C303 1.240 . S
O311 In299 2.326 . S
O311 C303 1.252 . S
In312 O313 2.294 . S
In312 O314 2.326 . S
In312 O318 2.266 . S
In312 O319 2.326 . S
In312 O320 2.266 . S
In312 O321 2.326 . S
In312 O323 2.294 . S
In312 O324 2.326 . S
O313 In312 2.294 . S
O313 C322 1.240 . S
O314 In312 2.326 . S
O314 C322 1.252 . S
C315 O318 1.252 . S
C315 O319 1.260 . S
C316 O323 1.240 . S
C316 O324 1.252 . S
C317 O320 1.252 . S
C317 O321 1.260 . S
O318 In312 2.266 . S
O318 C315 1.252 . S
O319 In312 2.326 . S
O319 C315 1.260 . S
O320 In312 2.266 . S
O320 C317 1.252 . S
O321 In312 2.326 . S
O321 C317 1.260 . S
C322 O313 1.240 . S
C322 O314 1.252 . S
O323 In312 2.294 . S
O323 C316 1.240 . S
O324 In312 2.326 . S
O324 C316 1.252 . S
In325 O326 2.294 . S
In325 O327 2.326 . S
In325 O331 2.266 . S
In325 O332 2.326 . S
In325 O333 2.266 . S
In325 O334 2.326 . S
In325 O336 2.294 . S
In325 O337 2.326 . S
O326 In325 2.294 . S
O326 C335 1.240 . S
O327 In325 2.326 . S
O327 C335 1.252 . S
C328 O331 1.252 . S
C328 O332 1.260 . S
C329 O336 1.240 . S
C329 O337 1.252 . S
C330 O333 1.252 . S
C330 O334 1.260 . S
O331 In325 2.266 . S
O331 C328 1.252 . S
O332 In325 2.326 . S
O332 C328 1.260 . S
O333 In325 2.266 . S
O333 C330 1.252 . S
O334 In325 2.326 . S
O334 C330 1.260 . S
C335 O326 1.240 . S
C335 O327 1.252 . S
O336 In325 2.294 . S
O336 C329 1.240 . S
O337 In325 2.326 . S
O337 C329 1.252 . S
In338 O339 2.294 . S
In338 O340 2.326 . S
In338 O344 2.266 . S
In338 O345 2.326 . S
In338 O346 2.266 . S
In338 O347 2.326 . S
In338 O349 2.294 . S
In338 O350 2.326 . S
O339 In338 2.294 . S
O339 C348 1.240 . S
O340 In338 2.326 . S
O340 C348 1.252 . S
C341 O344 1.252 . S
C341 O345 1.260 . S
C342 O349 1.240 . S
C342 O350 1.252 . S
C343 O346 1.252 . S
C343 O347 1.260 . S
O344 In338 2.266 . S
O344 C341 1.252 . S
O345 In338 2.326 . S
O345 C341 1.260 . S
O346 In338 2.266 . S
O346 C343 1.252 . S
O347 In338 2.326 . S
O347 C343 1.260 . S
C348 O339 1.240 . S
C348 O340 1.252 . S
O349 In338 2.294 . S
O349 C342 1.240 . S
O350 In338 2.326 . S
O350 C342 1.252 . S
In351 O352 2.294 . S
In351 O353 2.326 . S
In351 O357 2.266 . S
In351 O358 2.326 . S
In351 O359 2.266 . S
In351 O360 2.326 . S
In351 O362 2.294 . S
In351 O363 2.326 . S
O352 In351 2.294 . S
O352 C361 1.240 . S
O353 In351 2.326 . S
O353 C361 1.252 . S
C354 O357 1.252 . S
C354 O358 1.260 . S
C355 O362 1.240 . S
C355 O363 1.252 . S
C356 O359 1.252 . S
C356 O360 1.260 . S
O357 In351 2.266 . S
O357 C354 1.252 . S
O358 In351 2.326 . S
O358 C354 1.260 . S
O359 In351 2.266 . S
O359 C356 1.252 . S
O360 In351 2.326 . S
O360 C356 1.260 . S
C361 O352 1.240 . S
C361 O353 1.252 . S
O362 In351 2.294 . S
O362 C355 1.240 . S
O363 In351 2.326 . S
O363 C355 1.252 . S
In364 O365 2.294 . S
In364 O366 2.326 . S
In364 O370 2.266 . S
In364 O371 2.326 . S
In364 O372 2.266 . S
In364 O373 2.326 . S
In364 O375 2.294 . S
In364 O376 2.326 . S
O365 In364 2.294 . S
O365 C374 1.240 . S
O366 In364 2.326 . S
O366 C374 1.252 . S
C367 O370 1.252 . S
C367 O371 1.260 . S
C368 O375 1.240 . S
C368 O376 1.252 . S
C369 O372 1.252 . S
C369 O373 1.260 . S
O370 In364 2.266 . S
O370 C367 1.252 . S
O371 In364 2.326 . S
O371 C367 1.260 . S
O372 In364 2.266 . S
O372 C369 1.252 . S
O373 In364 2.326 . S
O373 C369 1.260 . S
C374 O365 1.240 . S
C374 O366 1.252 . S
O375 In364 2.294 . S
O375 C368 1.240 . S
O376 In364 2.326 . S
O376 C368 1.252 . S
In377 O378 2.294 . S
In377 O379 2.326 . S
In377 O383 2.266 . S
In377 O384 2.326 . S
In377 O385 2.266 . S
In377 O386 2.326 . S
In377 O388 2.294 . S
In377 O389 2.326 . S
O378 In377 2.294 . S
O378 C387 1.240 . S
O379 In377 2.326 . S
O379 C387 1.252 . S
C380 O383 1.252 . S
C380 O384 1.260 . S
C381 O388 1.240 . S
C381 O389 1.252 . S
C382 O385 1.252 . S
C382 O386 1.260 . S
O383 In377 2.266 . S
O383 C380 1.252 . S
O384 In377 2.326 . S
O384 C380 1.260 . S
O385 In377 2.266 . S
O385 C382 1.252 . S
O386 In377 2.326 . S
O386 C382 1.260 . S
C387 O378 1.240 . S
C387 O379 1.252 . S
O388 In377 2.294 . S
O388 C381 1.240 . S
O389 In377 2.326 . S
O389 C381 1.252 . S
In390 O391 2.294 . S
In390 O392 2.326 . S
In390 O396 2.266 . S
In390 O397 2.326 . S
In390 O398 2.266 . S
In390 O399 2.326 . S
In390 O401 2.294 . S
In390 O402 2.326 . S
O391 In390 2.294 . S
O391 C400 1.240 . S
O392 In390 2.326 . S
O392 C400 1.252 . S
C393 O396 1.252 . S
C393 O397 1.260 . S
C394 O401 1.240 . S
C394 O402 1.252 . S
C395 O398 1.252 . S
C395 O399 1.260 . S
O396 In390 2.266 . S
O396 C393 1.252 . S
O397 In390 2.326 . S
O397 C393 1.260 . S
O398 In390 2.266 . S
O398 C395 1.252 . S
O399 In390 2.326 . S
O399 C395 1.260 . S
C400 O391 1.240 . S
C400 O392 1.252 . S
O401 In390 2.294 . S
O401 C394 1.240 . S
O402 In390 2.326 . S
O402 C394 1.252 . S
In403 O404 2.294 . S
In403 O405 2.326 . S
In403 O409 2.266 . S
In403 O410 2.326 . S
In403 O411 2.266 . S
In403 O412 2.326 . S
In403 O414 2.294 . S
In403 O415 2.326 . S
O404 In403 2.294 . S
O404 C413 1.240 . S
O405 In403 2.326 . S
O405 C413 1.252 . S
C406 O409 1.252 . S
C406 O410 1.260 . S
C407 O414 1.240 . S
C407 O415 1.252 . S
C408 O411 1.252 . S
C408 O412 1.260 . S
O409 In403 2.266 . S
O409 C406 1.252 . S
O410 In403 2.326 . S
O410 C406 1.260 . S
O411 In403 2.266 . S
O411 C408 1.252 . S
O412 In403 2.326 . S
O412 C408 1.260 . S
C413 O404 1.240 . S
C413 O405 1.252 . S
O414 In403 2.294 . S
O414 C407 1.240 . S
O415 In403 2.326 . S
O415 C407 1.252 . S
H416 C422 0.930 . S
H417 C425 0.930 . S
H418 C426 0.930 . S
H419 C427 0.930 . S
H420 C430 0.930 . S
H421 C431 0.930 . S
C422 H416 0.930 . S
C422 C423 1.355 . S
C422 C424 1.415 . S
C423 C422 1.355 . S
C423 C425 1.419 . S
C424 C422 1.415 . S
C424 C429 1.425 . S
C424 C431 1.409 . S
C425 H417 0.930 . S
C425 C423 1.419 . S
C425 C426 1.362 . S
C426 H418 0.930 . S
C426 C425 1.362 . S
C426 C429 1.409 . S
C427 H419 0.930 . S
C427 C428 1.355 . S
C427 C429 1.415 . S
C428 C427 1.355 . S
C428 C430 1.419 . S
C429 C424 1.425 . S
C429 C426 1.409 . S
C429 C427 1.415 . S
C430 H420 0.930 . S
C430 C428 1.419 . S
C430 C431 1.362 . S
C431 H421 0.930 . S
C431 C424 1.409 . S
C431 C430 1.362 . S
H432 C438 0.930 . S
H433 C441 0.930 . S
H434 C442 0.930 . S
H435 C443 0.930 . S
H436 C446 0.930 . S
H437 C447 0.930 . S
C438 H432 0.930 . S
C438 C439 1.355 . S
C438 C440 1.415 . S
C439 C438 1.355 . S
C439 C441 1.419 . S
C440 C438 1.415 . S
C440 C445 1.425 . S
C440 C447 1.409 . S
C441 H433 0.930 . S
C441 C439 1.419 . S
C441 C442 1.362 . S
C442 H434 0.930 . S
C442 C441 1.362 . S
C442 C445 1.409 . S
C443 H435 0.930 . S
C443 C444 1.355 . S
C443 C445 1.415 . S
C444 C443 1.355 . S
C444 C446 1.419 . S
C445 C440 1.425 . S
C445 C442 1.409 . S
C445 C443 1.415 . S
C446 H436 0.930 . S
C446 C444 1.419 . S
C446 C447 1.362 . S
C447 H437 0.930 . S
C447 C440 1.409 . S
C447 C446 1.362 . S
H448 C454 0.930 . S
H449 C457 0.930 . S
H450 C458 0.930 . S
H451 C459 0.930 . S
H452 C462 0.930 . S
H453 C463 0.930 . S
C454 H448 0.930 . S
C454 C455 1.355 . S
C454 C456 1.415 . S
C455 C454 1.355 . S
C455 C457 1.419 . S
C456 C454 1.415 . S
C456 C461 1.425 . S
C456 C463 1.409 . S
C457 H449 0.930 . S
C457 C455 1.419 . S
C457 C458 1.362 . S
C458 H450 0.930 . S
C458 C457 1.362 . S
C458 C461 1.409 . S
C459 H451 0.930 . S
C459 C460 1.355 . S
C459 C461 1.415 . S
C460 C459 1.355 . S
C460 C462 1.419 . S
C461 C456 1.425 . S
C461 C458 1.409 . S
C461 C459 1.415 . S
C462 H452 0.930 . S
C462 C460 1.419 . S
C462 C463 1.362 . S
C463 H453 0.930 . S
C463 C456 1.409 . S
C463 C462 1.362 . S
H464 C470 0.930 . S
H465 C473 0.930 . S
H466 C474 0.930 . S
H467 C475 0.930 . S
H468 C478 0.930 . S
H469 C479 0.930 . S
C470 H464 0.930 . S
C470 C471 1.355 . S
C470 C472 1.415 . S
C471 C470 1.355 . S
C471 C473 1.419 . S
C472 C470 1.415 . S
C472 C477 1.425 . S
C472 C479 1.409 . S
C473 H465 0.930 . S
C473 C471 1.419 . S
C473 C474 1.362 . S
C474 H466 0.930 . S
C474 C473 1.362 . S
C474 C477 1.409 . S
C475 H467 0.930 . S
C475 C476 1.355 . S
C475 C477 1.415 . S
C476 C475 1.355 . S
C476 C478 1.419 . S
C477 C472 1.425 . S
C477 C474 1.409 . S
C477 C475 1.415 . S
C478 H468 0.930 . S
C478 C476 1.419 . S
C478 C479 1.362 . S
C479 H469 0.930 . S
C479 C472 1.409 . S
C479 C478 1.362 . S
H480 C486 0.930 . S
H481 C489 0.930 . S
H482 C490 0.930 . S
H483 C491 0.930 . S
H484 C494 0.930 . S
H485 C495 0.930 . S
C486 H480 0.930 . S
C486 C487 1.355 . S
C486 C488 1.415 . S
C487 C486 1.355 . S
C487 C489 1.419 . S
C488 C486 1.415 . S
C488 C493 1.425 . S
C488 C495 1.409 . S
C489 H481 0.930 . S
C489 C487 1.419 . S
C489 C490 1.362 . S
C490 H482 0.930 . S
C490 C489 1.362 . S
C490 C493 1.409 . S
C491 H483 0.930 . S
C491 C492 1.355 . S
C491 C493 1.415 . S
C492 C491 1.355 . S
C492 C494 1.419 . S
C493 C488 1.425 . S
C493 C490 1.409 . S
C493 C491 1.415 . S
C494 H484 0.930 . S
C494 C492 1.419 . S
C494 C495 1.362 . S
C495 H485 0.930 . S
C495 C488 1.409 . S
C495 C494 1.362 . S
H496 C502 0.930 . S
H497 C505 0.930 . S
H498 C506 0.930 . S
H499 C507 0.930 . S
H500 C510 0.930 . S
H501 C511 0.930 . S
C502 H496 0.930 . S
C502 C503 1.355 . S
C502 C504 1.415 . S
C503 C502 1.355 . S
C503 C505 1.419 . S
C504 C502 1.415 . S
C504 C509 1.425 . S
C504 C511 1.409 . S
C505 H497 0.930 . S
C505 C503 1.419 . S
C505 C506 1.362 . S
C506 H498 0.930 . S
C506 C505 1.362 . S
C506 C509 1.409 . S
C507 H499 0.930 . S
C507 C508 1.355 . S
C507 C509 1.415 . S
C508 C507 1.355 . S
C508 C510 1.419 . S
C509 C504 1.425 . S
C509 C506 1.409 . S
C509 C507 1.415 . S
C510 H500 0.930 . S
C510 C508 1.419 . S
C510 C511 1.362 . S
C511 H501 0.930 . S
C511 C504 1.409 . S
C511 C510 1.362 . S
H512 C518 0.930 . S
H513 C521 0.930 . S
H514 C522 0.930 . S
H515 C523 0.930 . S
H516 C526 0.930 . S
H517 C527 0.930 . S
C518 H512 0.930 . S
C518 C519 1.355 . S
C518 C520 1.415 . S
C519 C518 1.355 . S
C519 C521 1.419 . S
C520 C518 1.415 . S
C520 C525 1.425 . S
C520 C527 1.409 . S
C521 H513 0.930 . S
C521 C519 1.419 . S
C521 C522 1.362 . S
C522 H514 0.930 . S
C522 C521 1.362 . S
C522 C525 1.409 . S
C523 H515 0.930 . S
C523 C524 1.355 . S
C523 C525 1.415 . S
C524 C523 1.355 . S
C524 C526 1.419 . S
C525 C520 1.425 . S
C525 C522 1.409 . S
C525 C523 1.415 . S
C526 H516 0.930 . S
C526 C524 1.419 . S
C526 C527 1.362 . S
C527 H517 0.930 . S
C527 C520 1.409 . S
C527 C526 1.362 . S
H528 C534 0.930 . S
H529 C537 0.930 . S
H530 C538 0.930 . S
H531 C539 0.930 . S
H532 C542 0.930 . S
H533 C543 0.930 . S
C534 H528 0.930 . S
C534 C535 1.355 . S
C534 C536 1.415 . S
C535 C534 1.355 . S
C535 C537 1.419 . S
C536 C534 1.415 . S
C536 C541 1.425 . S
C536 C543 1.409 . S
C537 H529 0.930 . S
C537 C535 1.419 . S
C537 C538 1.362 . S
C538 H530 0.930 . S
C538 C537 1.362 . S
C538 C541 1.409 . S
C539 H531 0.930 . S
C539 C540 1.355 . S
C539 C541 1.415 . S
C540 C539 1.355 . S
C540 C542 1.419 . S
C541 C536 1.425 . S
C541 C538 1.409 . S
C541 C539 1.415 . S
C542 H532 0.930 . S
C542 C540 1.419 . S
C542 C543 1.362 . S
C543 H533 0.930 . S
C543 C536 1.409 . S
C543 C542 1.362 . S
H544 C550 0.930 . S
H545 C553 0.930 . S
H546 C554 0.930 . S
H547 C555 0.930 . S
H548 C558 0.930 . S
H549 C559 0.930 . S
C550 H544 0.930 . S
C550 C551 1.355 . S
C550 C552 1.415 . S
C551 C550 1.355 . S
C551 C553 1.419 . S
C552 C550 1.415 . S
C552 C557 1.425 . S
C552 C559 1.409 . S
C553 H545 0.930 . S
C553 C551 1.419 . S
C553 C554 1.362 . S
C554 H546 0.930 . S
C554 C553 1.362 . S
C554 C557 1.409 . S
C555 H547 0.930 . S
C555 C556 1.355 . S
C555 C557 1.415 . S
C556 C555 1.355 . S
C556 C558 1.419 . S
C557 C552 1.425 . S
C557 C554 1.409 . S
C557 C555 1.415 . S
C558 H548 0.930 . S
C558 C556 1.419 . S
C558 C559 1.362 . S
C559 H549 0.930 . S
C559 C552 1.409 . S
C559 C558 1.362 . S
H560 C566 0.930 . S
H561 C569 0.930 . S
H562 C570 0.930 . S
H563 C571 0.930 . S
H564 C574 0.930 . S
H565 C575 0.930 . S
C566 H560 0.930 . S
C566 C567 1.355 . S
C566 C568 1.415 . S
C567 C566 1.355 . S
C567 C569 1.419 . S
C568 C566 1.415 . S
C568 C573 1.425 . S
C568 C575 1.409 . S
C569 H561 0.930 . S
C569 C567 1.419 . S
C569 C570 1.362 . S
C570 H562 0.930 . S
C570 C569 1.362 . S
C570 C573 1.409 . S
C571 H563 0.930 . S
C571 C572 1.355 . S
C571 C573 1.415 . S
C572 C571 1.355 . S
C572 C574 1.419 . S
C573 C568 1.425 . S
C573 C570 1.409 . S
C573 C571 1.415 . S
C574 H564 0.930 . S
C574 C572 1.419 . S
C574 C575 1.362 . S
C575 H565 0.930 . S
C575 C568 1.409 . S
C575 C574 1.362 . S
H576 C582 0.930 . S
H577 C585 0.930 . S
H578 C586 0.930 . S
H579 C587 0.930 . S
H580 C590 0.930 . S
H581 C591 0.930 . S
C582 H576 0.930 . S
C582 C583 1.355 . S
C582 C584 1.415 . S
C583 C582 1.355 . S
C583 C585 1.419 . S
C584 C582 1.415 . S
C584 C589 1.425 . S
C584 C591 1.409 . S
C585 H577 0.930 . S
C585 C583 1.419 . S
C585 C586 1.362 . S
C586 H578 0.930 . S
C586 C585 1.362 . S
C586 C589 1.409 . S
C587 H579 0.930 . S
C587 C588 1.355 . S
C587 C589 1.415 . S
C588 C587 1.355 . S
C588 C590 1.419 . S
C589 C584 1.425 . S
C589 C586 1.409 . S
C589 C587 1.415 . S
C590 H580 0.930 . S
C590 C588 1.419 . S
C590 C591 1.362 . S
C591 H581 0.930 . S
C591 C584 1.409 . S
C591 C590 1.362 . S
H592 C598 0.930 . S
H593 C601 0.930 . S
H594 C602 0.930 . S
H595 C603 0.930 . S
H596 C606 0.930 . S
H597 C607 0.930 . S
C598 H592 0.930 . S
C598 C599 1.355 . S
C598 C600 1.415 . S
C599 C598 1.355 . S
C599 C601 1.419 . S
C600 C598 1.415 . S
C600 C605 1.425 . S
C600 C607 1.409 . S
C601 H593 0.930 . S
C601 C599 1.419 . S
C601 C602 1.362 . S
C602 H594 0.930 . S
C602 C601 1.362 . S
C602 C605 1.409 . S
C603 H595 0.930 . S
C603 C604 1.355 . S
C603 C605 1.415 . S
C604 C603 1.355 . S
C604 C606 1.419 . S
C605 C600 1.425 . S
C605 C602 1.409 . S
C605 C603 1.415 . S
C606 H596 0.930 . S
C606 C604 1.419 . S
C606 C607 1.362 . S
C607 H597 0.930 . S
C607 C600 1.409 . S
C607 C606 1.362 . S
H608 C614 0.930 . S
H609 C617 0.930 . S
H610 C618 0.930 . S
H611 C619 0.930 . S
H612 C622 0.930 . S
H613 C623 0.930 . S
C614 H608 0.930 . S
C614 C615 1.355 . S
C614 C616 1.415 . S
C615 C614 1.355 . S
C615 C617 1.419 . S
C616 C614 1.415 . S
C616 C621 1.425 . S
C616 C623 1.409 . S
C617 H609 0.930 . S
C617 C615 1.419 . S
C617 C618 1.362 . S
C618 H610 0.930 . S
C618 C617 1.362 . S
C618 C621 1.409 . S
C619 H611 0.930 . S
C619 C620 1.355 . S
C619 C621 1.415 . S
C620 C619 1.355 . S
C620 C622 1.419 . S
C621 C616 1.425 . S
C621 C618 1.409 . S
C621 C619 1.415 . S
C622 H612 0.930 . S
C622 C620 1.419 . S
C622 C623 1.362 . S
C623 H613 0.930 . S
C623 C616 1.409 . S
C623 C622 1.362 . S
H624 C630 0.930 . S
H625 C633 0.930 . S
H626 C634 0.930 . S
H627 C635 0.930 . S
H628 C638 0.930 . S
H629 C639 0.930 . S
C630 H624 0.930 . S
C630 C631 1.355 . S
C630 C632 1.415 . S
C631 C630 1.355 . S
C631 C633 1.419 . S
C632 C630 1.415 . S
C632 C637 1.425 . S
C632 C639 1.409 . S
C633 H625 0.930 . S
C633 C631 1.419 . S
C633 C634 1.362 . S
C634 H626 0.930 . S
C634 C633 1.362 . S
C634 C637 1.409 . S
C635 H627 0.930 . S
C635 C636 1.355 . S
C635 C637 1.415 . S
C636 C635 1.355 . S
C636 C638 1.419 . S
C637 C632 1.425 . S
C637 C634 1.409 . S
C637 C635 1.415 . S
C638 H628 0.930 . S
C638 C636 1.419 . S
C638 C639 1.362 . S
C639 H629 0.930 . S
C639 C632 1.409 . S
C639 C638 1.362 . S
H640 C646 0.930 . S
H641 C649 0.930 . S
H642 C650 0.930 . S
H643 C651 0.930 . S
H644 C654 0.930 . S
H645 C655 0.930 . S
C646 H640 0.930 . S
C646 C647 1.355 . S
C646 C648 1.415 . S
C647 C646 1.355 . S
C647 C649 1.419 . S
C648 C646 1.415 . S
C648 C653 1.425 . S
C648 C655 1.409 . S
C649 H641 0.930 . S
C649 C647 1.419 . S
C649 C650 1.362 . S
C650 H642 0.930 . S
C650 C649 1.362 . S
C650 C653 1.409 . S
C651 H643 0.930 . S
C651 C652 1.355 . S
C651 C653 1.415 . S
C652 C651 1.355 . S
C652 C654 1.419 . S
C653 C648 1.425 . S
C653 C650 1.409 . S
C653 C651 1.415 . S
C654 H644 0.930 . S
C654 C652 1.419 . S
C654 C655 1.362 . S
C655 H645 0.930 . S
C655 C648 1.409 . S
C655 C654 1.362 . S
H656 C662 0.930 . S
H657 C665 0.930 . S
H658 C666 0.930 . S
H659 C667 0.930 . S
H660 C670 0.930 . S
H661 C671 0.930 . S
C662 H656 0.930 . S
C662 C663 1.355 . S
C662 C664 1.415 . S
C663 C662 1.355 . S
C663 C665 1.419 . S
C664 C662 1.415 . S
C664 C669 1.425 . S
C664 C671 1.409 . S
C665 H657 0.930 . S
C665 C663 1.419 . S
C665 C666 1.362 . S
C666 H658 0.930 . S
C666 C665 1.362 . S
C666 C669 1.409 . S
C667 H659 0.930 . S
C667 C668 1.355 . S
C667 C669 1.415 . S
C668 C667 1.355 . S
C668 C670 1.419 . S
C669 C664 1.425 . S
C669 C666 1.409 . S
C669 C667 1.415 . S
C670 H660 0.930 . S
C670 C668 1.419 . S
C670 C671 1.362 . S
C671 H661 0.930 . S
C671 C664 1.409 . S
C671 C670 1.362 . S
H672 C678 0.930 . S
H673 C681 0.930 . S
H674 C682 0.930 . S
H675 C683 0.930 . S
H676 C686 0.930 . S
H677 C687 0.930 . S
C678 H672 0.930 . S
C678 C679 1.355 . S
C678 C680 1.415 . S
C679 C678 1.355 . S
C679 C681 1.419 . S
C680 C678 1.415 . S
C680 C685 1.425 1_655 S
C680 C687 1.409 1_655 S
C681 H673 0.930 . S
C681 C679 1.419 . S
C681 C682 1.362 . S
C682 H674 0.930 . S
C682 C681 1.362 . S
C682 C685 1.409 1_655 S
C683 H675 0.930 . S
C683 C684 1.355 . S
C683 C685 1.415 . S
C684 C683 1.355 . S
C684 C686 1.419 . S
C685 C680 1.425 1_455 S
C685 C682 1.409 1_455 S
C685 C683 1.415 . S
C686 H676 0.930 . S
C686 C684 1.419 . S
C686 C687 1.362 . S
C687 H677 0.930 . S
C687 C680 1.409 1_455 S
C687 C686 1.362 . S
H688 C694 0.930 . S
H689 C697 0.930 . S
H690 C698 0.930 . S
H691 C699 0.930 . S
H692 C702 0.930 . S
H693 C703 0.930 . S
C694 H688 0.930 . S
C694 C695 1.355 . S
C694 C696 1.415 . S
C695 C694 1.355 . S
C695 C697 1.419 . S
C696 C694 1.415 . S
C696 C701 1.425 1_545 S
C696 C703 1.409 1_545 S
C697 H689 0.930 . S
C697 C695 1.419 . S
C697 C698 1.362 . S
C698 H690 0.930 . S
C698 C697 1.362 . S
C698 C701 1.409 1_545 S
C699 H691 0.930 . S
C699 C700 1.355 . S
C699 C701 1.415 . S
C700 C699 1.355 . S
C700 C702 1.419 . S
C701 C696 1.425 1_565 S
C701 C698 1.409 1_565 S
C701 C699 1.415 . S
C702 H692 0.930 . S
C702 C700 1.419 . S
C702 C703 1.362 . S
C703 H693 0.930 . S
C703 C696 1.409 1_565 S
C703 C702 1.362 . S
H704 C710 0.930 . S
H705 C713 0.930 . S
H706 C714 0.930 . S
H707 C715 0.930 . S
H708 C718 0.930 . S
H709 C719 0.930 . S
C710 H704 0.930 . S
C710 C711 1.355 . S
C710 C712 1.415 . S
C711 C710 1.355 . S
C711 C713 1.419 . S
C712 C710 1.415 . S
C712 C717 1.425 1_455 S
C712 C719 1.409 1_455 S
C713 H705 0.930 . S
C713 C711 1.419 . S
C713 C714 1.362 . S
C714 H706 0.930 . S
C714 C713 1.362 . S
C714 C717 1.409 1_455 S
C715 H707 0.930 . S
C715 C716 1.355 . S
C715 C717 1.415 . S
C716 C715 1.355 . S
C716 C718 1.419 . S
C717 C712 1.425 1_655 S
C717 C714 1.409 1_655 S
C717 C715 1.415 . S
C718 H708 0.930 . S
C718 C716 1.419 . S
C718 C719 1.362 . S
C719 H709 0.930 . S
C719 C712 1.409 1_655 S
C719 C718 1.362 . S
H720 C726 0.930 . S
H721 C729 0.930 . S
H722 C730 0.930 . S
H723 C731 0.930 . S
H724 C734 0.930 . S
H725 C735 0.930 . S
C726 H720 0.930 . S
C726 C727 1.355 . S
C726 C728 1.415 . S
C727 C726 1.355 . S
C727 C729 1.419 . S
C728 C726 1.415 . S
C728 C733 1.425 1_565 S
C728 C735 1.409 1_565 S
C729 H721 0.930 . S
C729 C727 1.419 . S
C729 C730 1.362 . S
C730 H722 0.930 . S
C730 C729 1.362 . S
C730 C733 1.409 1_565 S
C731 H723 0.930 . S
C731 C732 1.355 . S
C731 C733 1.415 . S
C732 C731 1.355 . S
C732 C734 1.419 . S
C733 C728 1.425 1_545 S
C733 C730 1.409 1_545 S
C733 C731 1.415 . S
C734 H724 0.930 . S
C734 C732 1.419 . S
C734 C735 1.362 . S
C735 H725 0.930 . S
C735 C728 1.409 1_545 S
C735 C734 1.362 . S
H736 C742 0.930 . S
H737 C745 0.930 . S
H738 C746 0.930 . S
H739 C747 0.930 . S
H740 C750 0.930 . S
H741 C751 0.930 . S
C742 H736 0.930 . S
C742 C743 1.355 . S
C742 C744 1.415 . S
C743 C742 1.355 . S
C743 C745 1.419 . S
C744 C742 1.415 . S
C744 C749 1.425 1_455 S
C744 C751 1.409 1_455 S
C745 H737 0.930 . S
C745 C743 1.419 . S
C745 C746 1.362 . S
C746 H738 0.930 . S
C746 C745 1.362 . S
C746 C749 1.409 1_455 S
C747 H739 0.930 . S
C747 C748 1.355 . S
C747 C749 1.415 . S
C748 C747 1.355 . S
C748 C750 1.419 . S
C749 C744 1.425 1_655 S
C749 C746 1.409 1_655 S
C749 C747 1.415 . S
C750 H740 0.930 . S
C750 C748 1.419 . S
C750 C751 1.362 . S
C751 H741 0.930 . S
C751 C744 1.409 1_655 S
C751 C750 1.362 . S
H752 C758 0.930 . S
H753 C761 0.930 . S
H754 C762 0.930 . S
H755 C763 0.930 . S
H756 C766 0.930 . S
H757 C767 0.930 . S
C758 H752 0.930 . S
C758 C759 1.355 . S
C758 C760 1.415 . S
C759 C758 1.355 . S
C759 C761 1.419 . S
C760 C758 1.415 . S
C760 C765 1.425 1_565 S
C760 C767 1.409 1_565 S
C761 H753 0.930 . S
C761 C759 1.419 . S
C761 C762 1.362 . S
C762 H754 0.930 . S
C762 C761 1.362 . S
C762 C765 1.409 1_565 S
C763 H755 0.930 . S
C763 C764 1.355 . S
C763 C765 1.415 . S
C764 C763 1.355 . S
C764 C766 1.419 . S
C765 C760 1.425 1_545 S
C765 C762 1.409 1_545 S
C765 C763 1.415 . S
C766 H756 0.930 . S
C766 C764 1.419 . S
C766 C767 1.362 . S
C767 H757 0.930 . S
C767 C760 1.409 1_545 S
C767 C766 1.362 . S
H768 C774 0.930 . S
H769 C777 0.930 . S
H770 C778 0.930 . S
H771 C779 0.930 . S
H772 C782 0.930 . S
H773 C783 0.930 . S
C774 H768 0.930 . S
C774 C775 1.355 . S
C774 C776 1.415 . S
C775 C774 1.355 . S
C775 C777 1.419 . S
C776 C774 1.415 . S
C776 C781 1.425 1_455 S
C776 C783 1.409 1_455 S
C777 H769 0.930 . S
C777 C775 1.419 . S
C777 C778 1.362 . S
C778 H770 0.930 . S
C778 C777 1.362 . S
C778 C781 1.409 1_455 S
C779 H771 0.930 . S
C779 C780 1.355 . S
C779 C781 1.415 . S
C780 C779 1.355 . S
C780 C782 1.419 . S
C781 C776 1.425 1_655 S
C781 C778 1.409 1_655 S
C781 C779 1.415 . S
C782 H772 0.930 . S
C782 C780 1.419 . S
C782 C783 1.362 . S
C783 H773 0.930 . S
C783 C776 1.409 1_655 S
C783 C782 1.362 . S
H784 C790 0.930 . S
H785 C793 0.930 . S
H786 C794 0.930 . S
H787 C795 0.930 . S
H788 C798 0.930 . S
H789 C799 0.930 . S
C790 H784 0.930 . S
C790 C791 1.355 . S
C790 C792 1.415 . S
C791 C790 1.355 . S
C791 C793 1.419 . S
C792 C790 1.415 . S
C792 C797 1.425 1_545 S
C792 C799 1.409 1_545 S
C793 H785 0.930 . S
C793 C791 1.419 . S
C793 C794 1.362 . S
C794 H786 0.930 . S
C794 C793 1.362 . S
C794 C797 1.409 1_545 S
C795 H787 0.930 . S
C795 C796 1.355 . S
C795 C797 1.415 . S
C796 C795 1.355 . S
C796 C798 1.419 . S
C797 C792 1.425 1_565 S
C797 C794 1.409 1_565 S
C797 C795 1.415 . S
C798 H788 0.930 . S
C798 C796 1.419 . S
C798 C799 1.362 . S
C799 H789 0.930 . S
C799 C792 1.409 1_565 S
C799 C798 1.362 . S
H800 C806 0.930 . S
H801 C809 0.930 . S
H802 C810 0.930 . S
H803 C811 0.930 . S
H804 C814 0.930 . S
H805 C815 0.930 . S
C806 H800 0.930 . S
C806 C807 1.355 . S
C806 C808 1.415 . S
C807 C806 1.355 . S
C807 C809 1.419 . S
C808 C806 1.415 . S
C808 C813 1.425 . S
C808 C815 1.409 . S
C809 H801 0.930 . S
C809 C807 1.419 . S
C809 C810 1.362 . S
C810 H802 0.930 . S
C810 C809 1.362 . S
C810 C813 1.409 . S
C811 H803 0.930 . S
C811 C812 1.355 . S
C811 C813 1.415 . S
C812 C811 1.355 . S
C812 C814 1.419 . S
C813 C808 1.425 . S
C813 C810 1.409 . S
C813 C811 1.415 . S
C814 H804 0.930 . S
C814 C812 1.419 . S
C814 C815 1.362 . S
C815 H805 0.930 . S
C815 C808 1.409 . S
C815 C814 1.362 . S
H816 C822 0.930 . S
H817 C825 0.930 . S
H818 C826 0.930 . S
H819 C827 0.930 . S
H820 C830 0.930 . S
H821 C831 0.930 . S
C822 H816 0.930 . S
C822 C823 1.355 . S
C822 C824 1.415 . S
C823 C822 1.355 . S
C823 C825 1.419 . S
C824 C822 1.415 . S
C824 C829 1.425 . S
C824 C831 1.409 . S
C825 H817 0.930 . S
C825 C823 1.419 . S
C825 C826 1.362 . S
C826 H818 0.930 . S
C826 C825 1.362 . S
C826 C829 1.409 . S
C827 H819 0.930 . S
C827 C828 1.355 . S
C827 C829 1.415 . S
C828 C827 1.355 . S
C828 C830 1.419 . S
C829 C824 1.425 . S
C829 C826 1.409 . S
C829 C827 1.415 . S
C830 H820 0.930 . S
C830 C828 1.419 . S
C830 C831 1.362 . S
C831 H821 0.930 . S
C831 C824 1.409 . S
C831 C830 1.362 . S
H832 C838 0.930 . S
H833 C841 0.930 . S
H834 C842 0.930 . S
H835 C843 0.930 . S
H836 C846 0.930 . S
H837 C847 0.930 . S
C838 H832 0.930 . S
C838 C839 1.355 . S
C838 C840 1.415 . S
C839 C838 1.355 . S
C839 C841 1.419 . S
C840 C838 1.415 . S
C840 C845 1.425 . S
C840 C847 1.409 . S
C841 H833 0.930 . S
C841 C839 1.419 . S
C841 C842 1.362 . S
C842 H834 0.930 . S
C842 C841 1.362 . S
C842 C845 1.409 . S
C843 H835 0.930 . S
C843 C844 1.355 . S
C843 C845 1.415 . S
C844 C843 1.355 . S
C844 C846 1.419 . S
C845 C840 1.425 . S
C845 C842 1.409 . S
C845 C843 1.415 . S
C846 H836 0.930 . S
C846 C844 1.419 . S
C846 C847 1.362 . S
C847 H837 0.930 . S
C847 C840 1.409 . S
C847 C846 1.362 . S
H848 C854 0.930 . S
H849 C857 0.930 . S
H850 C858 0.930 . S
H851 C859 0.930 . S
H852 C862 0.930 . S
H853 C863 0.930 . S
C854 H848 0.930 . S
C854 C855 1.355 . S
C854 C856 1.415 . S
C855 C854 1.355 . S
C855 C857 1.419 . S
C856 C854 1.415 . S
C856 C861 1.425 . S
C856 C863 1.409 . S
C857 H849 0.930 . S
C857 C855 1.419 . S
C857 C858 1.362 . S
C858 H850 0.930 . S
C858 C857 1.362 . S
C858 C861 1.409 . S
C859 H851 0.930 . S
C859 C860 1.355 . S
C859 C861 1.415 . S
C860 C859 1.355 . S
C860 C862 1.419 . S
C861 C856 1.425 . S
C861 C858 1.409 . S
C861 C859 1.415 . S
C862 H852 0.930 . S
C862 C860 1.419 . S
C862 C863 1.362 . S
C863 H853 0.930 . S
C863 C856 1.409 . S
C863 C862 1.362 . S
H864 C870 0.930 . S
H865 C873 0.930 . S
H866 C874 0.930 . S
H867 C875 0.930 . S
H868 C878 0.930 . S
H869 C879 0.930 . S
C870 H864 0.930 . S
C870 C871 1.355 . S
C870 C872 1.415 . S
C871 C870 1.355 . S
C871 C873 1.419 . S
C872 C870 1.415 . S
C872 C877 1.425 . S
C872 C879 1.409 . S
C873 H865 0.930 . S
C873 C871 1.419 . S
C873 C874 1.362 . S
C874 H866 0.930 . S
C874 C873 1.362 . S
C874 C877 1.409 . S
C875 H867 0.930 . S
C875 C876 1.355 . S
C875 C877 1.415 . S
C876 C875 1.355 . S
C876 C878 1.419 . S
C877 C872 1.425 . S
C877 C874 1.409 . S
C877 C875 1.415 . S
C878 H868 0.930 . S
C878 C876 1.419 . S
C878 C879 1.362 . S
C879 H869 0.930 . S
C879 C872 1.409 . S
C879 C878 1.362 . S
H880 C886 0.930 . S
H881 C889 0.930 . S
H882 C890 0.930 . S
H883 C891 0.930 . S
H884 C894 0.930 . S
H885 C895 0.930 . S
C886 H880 0.930 . S
C886 C887 1.355 . S
C886 C888 1.415 . S
C887 C886 1.355 . S
C887 C889 1.419 . S
C888 C886 1.415 . S
C888 C893 1.425 . S
C888 C895 1.409 . S
C889 H881 0.930 . S
C889 C887 1.419 . S
C889 C890 1.362 . S
C890 H882 0.930 . S
C890 C889 1.362 . S
C890 C893 1.409 . S
C891 H883 0.930 . S
C891 C892 1.355 . S
C891 C893 1.415 . S
C892 C891 1.355 . S
C892 C894 1.419 . S
C893 C888 1.425 . S
C893 C890 1.409 . S
C893 C891 1.415 . S
C894 H884 0.930 . S
C894 C892 1.419 . S
C894 C895 1.362 . S
C895 H885 0.930 . S
C895 C888 1.409 . S
C895 C894 1.362 . S
H896 C902 0.930 . S
H897 C905 0.930 . S
H898 C906 0.930 . S
H899 C907 0.930 . S
H900 C910 0.930 . S
H901 C911 0.930 . S
C902 H896 0.930 . S
C902 C903 1.355 . S
C902 C904 1.415 . S
C903 C902 1.355 . S
C903 C905 1.419 . S
C904 C902 1.415 . S
C904 C909 1.425 . S
C904 C911 1.409 . S
C905 H897 0.930 . S
C905 C903 1.419 . S
C905 C906 1.362 . S
C906 H898 0.930 . S
C906 C905 1.362 . S
C906 C909 1.409 . S
C907 H899 0.930 . S
C907 C908 1.355 . S
C907 C909 1.415 . S
C908 C907 1.355 . S
C908 C910 1.419 . S
C909 C904 1.425 . S
C909 C906 1.409 . S
C909 C907 1.415 . S
C910 H900 0.930 . S
C910 C908 1.419 . S
C910 C911 1.362 . S
C911 H901 0.930 . S
C911 C904 1.409 . S
C911 C910 1.362 . S
H912 C918 0.930 . S
H913 C921 0.930 . S
H914 C922 0.930 . S
H915 C923 0.930 . S
H916 C926 0.930 . S
H917 C927 0.930 . S
C918 H912 0.930 . S
C918 C919 1.355 . S
C918 C920 1.415 . S
C919 C918 1.355 . S
C919 C921 1.419 . S
C920 C918 1.415 . S
C920 C925 1.425 . S
C920 C927 1.409 . S
C921 H913 0.930 . S
C921 C919 1.419 . S
C921 C922 1.362 . S
C922 H914 0.930 . S
C922 C921 1.362 . S
C922 C925 1.409 . S
C923 H915 0.930 . S
C923 C924 1.355 . S
C923 C925 1.415 . S
C924 C923 1.355 . S
C924 C926 1.419 . S
C925 C920 1.425 . S
C925 C922 1.409 . S
C925 C923 1.415 . S
C926 H916 0.930 . S
C926 C924 1.419 . S
C926 C927 1.362 . S
C927 H917 0.930 . S
C927 C920 1.409 . S
C927 C926 1.362 . S
H928 C934 0.930 . S
H929 C937 0.930 . S
H930 C938 0.930 . S
H931 C939 0.930 . S
H932 C942 0.930 . S
H933 C943 0.930 . S
C934 H928 0.930 . S
C934 C935 1.355 . S
C934 C936 1.415 . S
C935 C934 1.355 . S
C935 C937 1.419 . S
C936 C934 1.415 . S
C936 C941 1.425 . S
C936 C943 1.409 . S
C937 H929 0.930 . S
C937 C935 1.419 . S
C937 C938 1.362 . S
C938 H930 0.930 . S
C938 C937 1.362 . S
C938 C941 1.409 . S
C939 H931 0.930 . S
C939 C940 1.355 . S
C939 C941 1.415 . S
C940 C939 1.355 . S
C940 C942 1.419 . S
C941 C936 1.425 . S
C941 C938 1.409 . S
C941 C939 1.415 . S
C942 H932 0.930 . S
C942 C940 1.419 . S
C942 C943 1.362 . S
C943 H933 0.930 . S
C943 C936 1.409 . S
C943 C942 1.362 . S
H944 C950 0.930 . S
H945 C953 0.930 . S
H946 C954 0.930 . S
H947 C955 0.930 . S
H948 C958 0.930 . S
H949 C959 0.930 . S
C950 H944 0.930 . S
C950 C951 1.355 . S
C950 C952 1.415 . S
C951 C950 1.355 . S
C951 C953 1.419 . S
C952 C950 1.415 . S
C952 C957 1.425 . S
C952 C959 1.409 . S
C953 H945 0.930 . S
C953 C951 1.419 . S
C953 C954 1.362 . S
C954 H946 0.930 . S
C954 C953 1.362 . S
C954 C957 1.409 . S
C955 H947 0.930 . S
C955 C956 1.355 . S
C955 C957 1.415 . S
C956 C955 1.355 . S
C956 C958 1.419 . S
C957 C952 1.425 . S
C957 C954 1.409 . S
C957 C955 1.415 . S
C958 H948 0.930 . S
C958 C956 1.419 . S
C958 C959 1.362 . S
C959 H949 0.930 . S
C959 C952 1.409 . S
C959 C958 1.362 . S
H960 C966 0.930 . S
H961 C969 0.930 . S
H962 C970 0.930 . S
H963 C971 0.930 . S
H964 C974 0.930 . S
H965 C975 0.930 . S
C966 H960 0.930 . S
C966 C967 1.355 . S
C966 C968 1.415 . S
C967 C966 1.355 . S
C967 C969 1.419 . S
C968 C966 1.415 . S
C968 C973 1.425 . S
C968 C975 1.409 . S
C969 H961 0.930 . S
C969 C967 1.419 . S
C969 C970 1.362 . S
C970 H962 0.930 . S
C970 C969 1.362 . S
C970 C973 1.409 . S
C971 H963 0.930 . S
C971 C972 1.355 . S
C971 C973 1.415 . S
C972 C971 1.355 . S
C972 C974 1.419 . S
C973 C968 1.425 . S
C973 C970 1.409 . S
C973 C971 1.415 . S
C974 H964 0.930 . S
C974 C972 1.419 . S
C974 C975 1.362 . S
C975 H965 0.930 . S
C975 C968 1.409 . S
C975 C974 1.362 . S
H976 C982 0.930 . S
H977 C985 0.930 . S
H978 C986 0.930 . S
H979 C987 0.930 . S
H980 C990 0.930 . S
H981 C991 0.930 . S
C982 H976 0.930 . S
C982 C983 1.355 . S
C982 C984 1.415 . S
C983 C982 1.355 . S
C983 C985 1.419 . S
C984 C982 1.415 . S
C984 C989 1.425 . S
C984 C991 1.409 . S
C985 H977 0.930 . S
C985 C983 1.419 . S
C985 C986 1.362 . S
C986 H978 0.930 . S
C986 C985 1.362 . S
C986 C989 1.409 . S
C987 H979 0.930 . S
C987 C988 1.355 . S
C987 C989 1.415 . S
C988 C987 1.355 . S
C988 C990 1.419 . S
C989 C984 1.425 . S
C989 C986 1.409 . S
C989 C987 1.415 . S
C990 H980 0.930 . S
C990 C988 1.419 . S
C990 C991 1.362 . S
C991 H981 0.930 . S
C991 C984 1.409 . S
C991 C990 1.362 . S
H992 C998 0.930 . S
H993 C1001 0.930 . S
H994 C1002 0.930 . S
H995 C1003 0.930 . S
H996 C1006 0.930 . S
H997 C1007 0.930 . S
C998 H992 0.930 . S
C998 C999 1.355 . S
C998 C1000 1.415 . S
C999 C998 1.355 . S
C999 C1001 1.419 . S
C1000 C998 1.415 . S
C1000 C1005 1.425 . S
C1000 C1007 1.409 . S
C1001 H993 0.930 . S
C1001 C999 1.419 . S
C1001 C1002 1.362 . S
C1002 H994 0.930 . S
C1002 C1001 1.362 . S
C1002 C1005 1.409 . S
C1003 H995 0.930 . S
C1003 C1004 1.355 . S
C1003 C1005 1.415 . S
C1004 C1003 1.355 . S
C1004 C1006 1.419 . S
C1005 C1000 1.425 . S
C1005 C1002 1.409 . S
C1005 C1003 1.415 . S
C1006 H996 0.930 . S
C1006 C1004 1.419 . S
C1006 C1007 1.362 . S
C1007 H997 0.930 . S
C1007 C1000 1.409 . S
C1007 C1006 1.362 . S
H1008 C1014 0.930 . S
H1009 C1017 0.930 . S
H1010 C1018 0.930 . S
H1011 C1019 0.930 . S
H1012 C1022 0.930 . S
H1013 C1023 0.930 . S
C1014 H1008 0.930 . S
C1014 C1015 1.355 . S
C1014 C1016 1.415 . S
C1015 C1014 1.355 . S
C1015 C1017 1.419 . S
C1016 C1014 1.415 . S
C1016 C1021 1.425 . S
C1016 C1023 1.409 . S
C1017 H1009 0.930 . S
C1017 C1015 1.419 . S
C1017 C1018 1.362 . S
C1018 H1010 0.930 . S
C1018 C1017 1.362 . S
C1018 C1021 1.409 . S
C1019 H1011 0.930 . S
C1019 C1020 1.355 . S
C1019 C1021 1.415 . S
C1020 C1019 1.355 . S
C1020 C1022 1.419 . S
C1021 C1016 1.425 . S
C1021 C1018 1.409 . S
C1021 C1019 1.415 . S
C1022 H1012 0.930 . S
C1022 C1020 1.419 . S
C1022 C1023 1.362 . S
C1023 H1013 0.930 . S
C1023 C1016 1.409 . S
C1023 C1022 1.362 . S
H1024 C1030 0.930 . S
H1025 C1033 0.930 . S
H1026 C1034 0.930 . S
H1027 C1035 0.930 . S
H1028 C1038 0.930 . S
H1029 C1039 0.930 . S
C1030 H1024 0.930 . S
C1030 C1031 1.355 . S
C1030 C1032 1.415 . S
C1031 C1030 1.355 . S
C1031 C1033 1.419 . S
C1032 C1030 1.415 . S
C1032 C1037 1.425 . S
C1032 C1039 1.409 . S
C1033 H1025 0.930 . S
C1033 C1031 1.419 . S
C1033 C1034 1.362 . S
C1034 H1026 0.930 . S
C1034 C1033 1.362 . S
C1034 C1037 1.409 . S
C1035 H1027 0.930 . S
C1035 C1036 1.355 . S
C1035 C1037 1.415 . S
C1036 C1035 1.355 . S
C1036 C1038 1.419 . S
C1037 C1032 1.425 . S
C1037 C1034 1.409 . S
C1037 C1035 1.415 . S
C1038 H1028 0.930 . S
C1038 C1036 1.419 . S
C1038 C1039 1.362 . S
C1039 H1029 0.930 . S
C1039 C1032 1.409 . S
C1039 C1038 1.362 . S
H1040 C1046 0.930 . S
H1041 C1049 0.930 . S
H1042 C1050 0.930 . S
H1043 C1051 0.930 . S
H1044 C1054 0.930 . S
H1045 C1055 0.930 . S
C1046 H1040 0.930 . S
C1046 C1047 1.355 . S
C1046 C1048 1.415 . S
C1047 C1046 1.355 . S
C1047 C1049 1.419 . S
C1048 C1046 1.415 . S
C1048 C1053 1.425 . S
C1048 C1055 1.409 . S
C1049 H1041 0.930 . S
C1049 C1047 1.419 . S
C1049 C1050 1.362 . S
C1050 H1042 0.930 . S
C1050 C1049 1.362 . S
C1050 C1053 1.409 . S
C1051 H1043 0.930 . S
C1051 C1052 1.355 . S
C1051 C1053 1.415 . S
C1052 C1051 1.355 . S
C1052 C1054 1.419 . S
C1053 C1048 1.425 . S
C1053 C1050 1.409 . S
C1053 C1051 1.415 . S
C1054 H1044 0.930 . S
C1054 C1052 1.419 . S
C1054 C1055 1.362 . S
C1055 H1045 0.930 . S
C1055 C1048 1.409 . S
C1055 C1054 1.362 . S
H1056 C1062 0.930 . S
H1057 C1065 0.930 . S
H1058 C1066 0.930 . S
H1059 C1067 0.930 . S
H1060 C1070 0.930 . S
H1061 C1071 0.930 . S
C1062 H1056 0.930 . S
C1062 C1063 1.355 . S
C1062 C1064 1.415 . S
C1063 C1062 1.355 . S
C1063 C1065 1.419 . S
C1064 C1062 1.415 . S
C1064 C1069 1.425 1_554 S
C1064 C1071 1.409 1_554 S
C1065 H1057 0.930 . S
C1065 C1063 1.419 . S
C1065 C1066 1.362 . S
C1066 H1058 0.930 . S
C1066 C1065 1.362 . S
C1066 C1069 1.409 1_554 S
C1067 H1059 0.930 . S
C1067 C1068 1.355 . S
C1067 C1069 1.415 . S
C1068 C1067 1.355 . S
C1068 C1070 1.419 . S
C1069 C1064 1.425 1_556 S
C1069 C1066 1.409 1_556 S
C1069 C1067 1.415 . S
C1070 H1060 0.930 . S
C1070 C1068 1.419 . S
C1070 C1071 1.362 . S
C1071 H1061 0.930 . S
C1071 C1064 1.409 1_556 S
C1071 C1070 1.362 . S
H1072 C1078 0.930 . S
H1073 C1081 0.930 . S
H1074 C1082 0.930 . S
H1075 C1083 0.930 . S
H1076 C1086 0.930 . S
H1077 C1087 0.930 . S
C1078 H1072 0.930 . S
C1078 C1079 1.355 . S
C1078 C1080 1.415 . S
C1079 C1078 1.355 . S
C1079 C1081 1.419 . S
C1080 C1078 1.415 . S
C1080 C1085 1.425 1_556 S
C1080 C1087 1.409 1_556 S
C1081 H1073 0.930 . S
C1081 C1079 1.419 . S
C1081 C1082 1.362 . S
C1082 H1074 0.930 . S
C1082 C1081 1.362 . S
C1082 C1085 1.409 1_556 S
C1083 H1075 0.930 . S
C1083 C1084 1.355 . S
C1083 C1085 1.415 . S
C1084 C1083 1.355 . S
C1084 C1086 1.419 . S
C1085 C1080 1.425 1_554 S
C1085 C1082 1.409 1_554 S
C1085 C1083 1.415 . S
C1086 H1076 0.930 . S
C1086 C1084 1.419 . S
C1086 C1087 1.362 . S
C1087 H1077 0.930 . S
C1087 C1080 1.409 1_554 S
C1087 C1086 1.362 . S
H1088 C1094 0.930 . S
H1089 C1097 0.930 . S
H1090 C1098 0.930 . S
H1091 C1099 0.930 . S
H1092 C1102 0.930 . S
H1093 C1103 0.930 . S
C1094 H1088 0.930 . S
C1094 C1095 1.355 . S
C1094 C1096 1.415 . S
C1095 C1094 1.355 . S
C1095 C1097 1.419 . S
C1096 C1094 1.415 . S
C1096 C1101 1.425 1_554 S
C1096 C1103 1.409 1_554 S
C1097 H1089 0.930 . S
C1097 C1095 1.419 . S
C1097 C1098 1.362 . S
C1098 H1090 0.930 . S
C1098 C1097 1.362 . S
C1098 C1101 1.409 1_554 S
C1099 H1091 0.930 . S
C1099 C1100 1.355 . S
C1099 C1101 1.415 . S
C1100 C1099 1.355 . S
C1100 C1102 1.419 . S
C1101 C1096 1.425 1_556 S
C1101 C1098 1.409 1_556 S
C1101 C1099 1.415 . S
C1102 H1092 0.930 . S
C1102 C1100 1.419 . S
C1102 C1103 1.362 . S
C1103 H1093 0.930 . S
C1103 C1096 1.409 1_556 S
C1103 C1102 1.362 . S
H1104 C1110 0.930 . S
H1105 C1113 0.930 . S
H1106 C1114 0.930 . S
H1107 C1115 0.930 . S
H1108 C1118 0.930 . S
H1109 C1119 0.930 . S
C1110 H1104 0.930 . S
C1110 C1111 1.355 . S
C1110 C1112 1.415 . S
C1111 C1110 1.355 . S
C1111 C1113 1.419 . S
C1112 C1110 1.415 . S
C1112 C1117 1.425 1_554 S
C1112 C1119 1.409 1_554 S
C1113 H1105 0.930 . S
C1113 C1111 1.419 . S
C1113 C1114 1.362 . S
C1114 H1106 0.930 . S
C1114 C1113 1.362 . S
C1114 C1117 1.409 1_554 S
C1115 H1107 0.930 . S
C1115 C1116 1.355 . S
C1115 C1117 1.415 . S
C1116 C1115 1.355 . S
C1116 C1118 1.419 . S
C1117 C1112 1.425 1_556 S
C1117 C1114 1.409 1_556 S
C1117 C1115 1.415 . S
C1118 H1108 0.930 . S
C1118 C1116 1.419 . S
C1118 C1119 1.362 . S
C1119 H1109 0.930 . S
C1119 C1112 1.409 1_556 S
C1119 C1118 1.362 . S
H1120 C1126 0.930 . S
H1121 C1129 0.930 . S
H1122 C1130 0.930 . S
H1123 C1131 0.930 . S
H1124 C1134 0.930 . S
H1125 C1135 0.930 . S
C1126 H1120 0.930 . S
C1126 C1127 1.355 . S
C1126 C1128 1.415 . S
C1127 C1126 1.355 . S
C1127 C1129 1.419 . S
C1128 C1126 1.415 . S
C1128 C1133 1.425 1_554 S
C1128 C1135 1.409 1_554 S
C1129 H1121 0.930 . S
C1129 C1127 1.419 . S
C1129 C1130 1.362 . S
C1130 H1122 0.930 . S
C1130 C1129 1.362 . S
C1130 C1133 1.409 1_554 S
C1131 H1123 0.930 . S
C1131 C1132 1.355 . S
C1131 C1133 1.415 . S
C1132 C1131 1.355 . S
C1132 C1134 1.419 . S
C1133 C1128 1.425 1_556 S
C1133 C1130 1.409 1_556 S
C1133 C1131 1.415 . S
C1134 H1124 0.930 . S
C1134 C1132 1.419 . S
C1134 C1135 1.362 . S
C1135 H1125 0.930 . S
C1135 C1128 1.409 1_556 S
C1135 C1134 1.362 . S
H1136 C1142 0.930 . S
H1137 C1145 0.930 . S
H1138 C1146 0.930 . S
H1139 C1147 0.930 . S
H1140 C1150 0.930 . S
H1141 C1151 0.930 . S
C1142 H1136 0.930 . S
C1142 C1143 1.355 . S
C1142 C1144 1.415 . S
C1143 C1142 1.355 . S
C1143 C1145 1.419 . S
C1144 C1142 1.415 . S
C1144 C1149 1.425 1_554 S
C1144 C1151 1.409 1_554 S
C1145 H1137 0.930 . S
C1145 C1143 1.419 . S
C1145 C1146 1.362 . S
C1146 H1138 0.930 . S
C1146 C1145 1.362 . S
C1146 C1149 1.409 1_554 S
C1147 H1139 0.930 . S
C1147 C1148 1.355 . S
C1147 C1149 1.415 . S
C1148 C1147 1.355 . S
C1148 C1150 1.419 . S
C1149 C1144 1.425 1_556 S
C1149 C1146 1.409 1_556 S
C1149 C1147 1.415 . S
C1150 H1140 0.930 . S
C1150 C1148 1.419 . S
C1150 C1151 1.362 . S
C1151 H1141 0.930 . S
C1151 C1144 1.409 1_556 S
C1151 C1150 1.362 . S
H1152 C1158 0.930 . S
H1153 C1161 0.930 . S
H1154 C1162 0.930 . S
H1155 C1163 0.930 . S
H1156 C1166 0.930 . S
H1157 C1167 0.930 . S
C1158 H1152 0.930 . S
C1158 C1159 1.355 . S
C1158 C1160 1.415 . S
C1159 C1158 1.355 . S
C1159 C1161 1.419 . S
C1160 C1158 1.415 . S
C1160 C1165 1.425 1_556 S
C1160 C1167 1.409 1_556 S
C1161 H1153 0.930 . S
C1161 C1159 1.419 . S
C1161 C1162 1.362 . S
C1162 H1154 0.930 . S
C1162 C1161 1.362 . S
C1162 C1165 1.409 1_556 S
C1163 H1155 0.930 . S
C1163 C1164 1.355 . S
C1163 C1165 1.415 . S
C1164 C1163 1.355 . S
C1164 C1166 1.419 . S
C1165 C1160 1.425 1_554 S
C1165 C1162 1.409 1_554 S
C1165 C1163 1.415 . S
C1166 H1156 0.930 . S
C1166 C1164 1.419 . S
C1166 C1167 1.362 . S
C1167 H1157 0.930 . S
C1167 C1160 1.409 1_554 S
C1167 C1166 1.362 . S
H1168 C1174 0.930 . S
H1169 C1177 0.930 . S
H1170 C1178 0.930 . S
H1171 C1179 0.930 . S
H1172 C1182 0.930 . S
H1173 C1183 0.930 . S
C1174 H1168 0.930 . S
C1174 C1175 1.355 . S
C1174 C1176 1.415 . S
C1175 C1174 1.355 . S
C1175 C1177 1.419 . S
C1176 C1174 1.415 . S
C1176 C1181 1.425 1_556 S
C1176 C1183 1.409 1_556 S
C1177 H1169 0.930 . S
C1177 C1175 1.419 . S
C1177 C1178 1.362 . S
C1178 H1170 0.930 . S
C1178 C1177 1.362 . S
C1178 C1181 1.409 1_556 S
C1179 H1171 0.930 . S
C1179 C1180 1.355 . S
C1179 C1181 1.415 . S
C1180 C1179 1.355 . S
C1180 C1182 1.419 . S
C1181 C1176 1.425 1_554 S
C1181 C1178 1.409 1_554 S
C1181 C1179 1.415 . S
C1182 H1172 0.930 . S
C1182 C1180 1.419 . S
C1182 C1183 1.362 . S
C1183 H1173 0.930 . S
C1183 C1176 1.409 1_554 S
C1183 C1182 1.362 . S
H1184 C1190 0.930 . S
H1185 C1193 0.930 . S
H1186 C1194 0.930 . S
H1187 C1195 0.930 . S
H1188 C1198 0.930 . S
H1189 C1199 0.930 . S
C1190 H1184 0.930 . S
C1190 C1191 1.355 . S
C1190 C1192 1.415 . S
C1191 C1190 1.355 . S
C1191 C1193 1.419 . S
C1192 C1190 1.415 . S
C1192 C1197 1.425 . S
C1192 C1199 1.409 . S
C1193 H1185 0.930 . S
C1193 C1191 1.419 . S
C1193 C1194 1.362 . S
C1194 H1186 0.930 . S
C1194 C1193 1.362 . S
C1194 C1197 1.409 . S
C1195 H1187 0.930 . S
C1195 C1196 1.355 . S
C1195 C1197 1.415 . S
C1196 C1195 1.355 . S
C1196 C1198 1.419 . S
C1197 C1192 1.425 . S
C1197 C1194 1.409 . S
C1197 C1195 1.415 . S
C1198 H1188 0.930 . S
C1198 C1196 1.419 . S
C1198 C1199 1.362 . S
C1199 H1189 0.930 . S
C1199 C1192 1.409 . S
C1199 C1198 1.362 . S
H1200 C1206 0.930 . S
H1201 C1209 0.930 . S
H1202 C1210 0.930 . S
H1203 C1211 0.930 . S
H1204 C1214 0.930 . S
H1205 C1215 0.930 . S
C1206 H1200 0.930 . S
C1206 C1207 1.355 . S
C1206 C1208 1.415 . S
C1207 C1206 1.355 . S
C1207 C1209 1.419 . S
C1208 C1206 1.415 . S
C1208 C1213 1.425 . S
C1208 C1215 1.409 . S
C1209 H1201 0.930 . S
C1209 C1207 1.419 . S
C1209 C1210 1.362 . S
C1210 H1202 0.930 . S
C1210 C1209 1.362 . S
C1210 C1213 1.409 . S
C1211 H1203 0.930 . S
C1211 C1212 1.355 . S
C1211 C1213 1.415 . S
C1212 C1211 1.355 . S
C1212 C1214 1.419 . S
C1213 C1208 1.425 . S
C1213 C1210 1.409 . S
C1213 C1211 1.415 . S
C1214 H1204 0.930 . S
C1214 C1212 1.419 . S
C1214 C1215 1.362 . S
C1215 H1205 0.930 . S
C1215 C1208 1.409 . S
C1215 C1214 1.362 . S
H1216 C1222 0.930 . S
H1217 C1225 0.930 . S
H1218 C1226 0.930 . S
H1219 C1227 0.930 . S
H1220 C1230 0.930 . S
H1221 C1231 0.930 . S
C1222 H1216 0.930 . S
C1222 C1223 1.355 . S
C1222 C1224 1.415 . S
C1223 C1222 1.355 . S
C1223 C1225 1.419 . S
C1224 C1222 1.415 . S
C1224 C1229 1.425 . S
C1224 C1231 1.409 . S
C1225 H1217 0.930 . S
C1225 C1223 1.419 . S
C1225 C1226 1.362 . S
C1226 H1218 0.930 . S
C1226 C1225 1.362 . S
C1226 C1229 1.409 . S
C1227 H1219 0.930 . S
C1227 C1228 1.355 . S
C1227 C1229 1.415 . S
C1228 C1227 1.355 . S
C1228 C1230 1.419 . S
C1229 C1224 1.425 . S
C1229 C1226 1.409 . S
C1229 C1227 1.415 . S
C1230 H1220 0.930 . S
C1230 C1228 1.419 . S
C1230 C1231 1.362 . S
C1231 H1221 0.930 . S
C1231 C1224 1.409 . S
C1231 C1230 1.362 . S
H1232 C1238 0.930 . S
H1233 C1241 0.930 . S
H1234 C1242 0.930 . S
H1235 C1243 0.930 . S
H1236 C1246 0.930 . S
H1237 C1247 0.930 . S
C1238 H1232 0.930 . S
C1238 C1239 1.355 . S
C1238 C1240 1.415 . S
C1239 C1238 1.355 . S
C1239 C1241 1.419 . S
C1240 C1238 1.415 . S
C1240 C1245 1.425 . S
C1240 C1247 1.409 . S
C1241 H1233 0.930 . S
C1241 C1239 1.419 . S
C1241 C1242 1.362 . S
C1242 H1234 0.930 . S
C1242 C1241 1.362 . S
C1242 C1245 1.409 . S
C1243 H1235 0.930 . S
C1243 C1244 1.355 . S
C1243 C1245 1.415 . S
C1244 C1243 1.355 . S
C1244 C1246 1.419 . S
C1245 C1240 1.425 . S
C1245 C1242 1.409 . S
C1245 C1243 1.415 . S
C1246 H1236 0.930 . S
C1246 C1244 1.419 . S
C1246 C1247 1.362 . S
C1247 H1237 0.930 . S
C1247 C1240 1.409 . S
C1247 C1246 1.362 . S
H1248 C1254 0.930 . S
H1249 C1257 0.930 . S
H1250 C1258 0.930 . S
H1251 C1259 0.930 . S
H1252 C1262 0.930 . S
H1253 C1263 0.930 . S
C1254 H1248 0.930 . S
C1254 C1255 1.355 . S
C1254 C1256 1.415 . S
C1255 C1254 1.355 . S
C1255 C1257 1.419 . S
C1256 C1254 1.415 . S
C1256 C1261 1.425 . S
C1256 C1263 1.409 . S
C1257 H1249 0.930 . S
C1257 C1255 1.419 . S
C1257 C1258 1.362 . S
C1258 H1250 0.930 . S
C1258 C1257 1.362 . S
C1258 C1261 1.409 . S
C1259 H1251 0.930 . S
C1259 C1260 1.355 . S
C1259 C1261 1.415 . S
C1260 C1259 1.355 . S
C1260 C1262 1.419 . S
C1261 C1256 1.425 . S
C1261 C1258 1.409 . S
C1261 C1259 1.415 . S
C1262 H1252 0.930 . S
C1262 C1260 1.419 . S
C1262 C1263 1.362 . S
C1263 H1253 0.930 . S
C1263 C1256 1.409 . S
C1263 C1262 1.362 . S
H1264 C1270 0.930 . S
H1265 C1273 0.930 . S
H1266 C1274 0.930 . S
H1267 C1275 0.930 . S
H1268 C1278 0.930 . S
H1269 C1279 0.930 . S
C1270 H1264 0.930 . S
C1270 C1271 1.355 . S
C1270 C1272 1.415 . S
C1271 C1270 1.355 . S
C1271 C1273 1.419 . S
C1272 C1270 1.415 . S
C1272 C1277 1.425 . S
C1272 C1279 1.409 . S
C1273 H1265 0.930 . S
C1273 C1271 1.419 . S
C1273 C1274 1.362 . S
C1274 H1266 0.930 . S
C1274 C1273 1.362 . S
C1274 C1277 1.409 . S
C1275 H1267 0.930 . S
C1275 C1276 1.355 . S
C1275 C1277 1.415 . S
C1276 C1275 1.355 . S
C1276 C1278 1.419 . S
C1277 C1272 1.425 . S
C1277 C1274 1.409 . S
C1277 C1275 1.415 . S
C1278 H1268 0.930 . S
C1278 C1276 1.419 . S
C1278 C1279 1.362 . S
C1279 H1269 0.930 . S
C1279 C1272 1.409 . S
C1279 C1278 1.362 . S
H1280 C1286 0.930 . S
H1281 C1289 0.930 . S
H1282 C1290 0.930 . S
H1283 C1291 0.930 . S
H1284 C1294 0.930 . S
H1285 C1295 0.930 . S
C1286 H1280 0.930 . S
C1286 C1287 1.355 . S
C1286 C1288 1.415 . S
C1287 C1286 1.355 . S
C1287 C1289 1.419 . S
C1288 C1286 1.415 . S
C1288 C1293 1.425 . S
C1288 C1295 1.409 . S
C1289 H1281 0.930 . S
C1289 C1287 1.419 . S
C1289 C1290 1.362 . S
C1290 H1282 0.930 . S
C1290 C1289 1.362 . S
C1290 C1293 1.409 . S
C1291 H1283 0.930 . S
C1291 C1292 1.355 . S
C1291 C1293 1.415 . S
C1292 C1291 1.355 . S
C1292 C1294 1.419 . S
C1293 C1288 1.425 . S
C1293 C1290 1.409 . S
C1293 C1291 1.415 . S
C1294 H1284 0.930 . S
C1294 C1292 1.419 . S
C1294 C1295 1.362 . S
C1295 H1285 0.930 . S
C1295 C1288 1.409 . S
C1295 C1294 1.362 . S
H1296 C1302 0.930 . S
H1297 C1305 0.930 . S
H1298 C1306 0.930 . S
H1299 C1307 0.930 . S
H1300 C1310 0.930 . S
H1301 C1311 0.930 . S
C1302 H1296 0.930 . S
C1302 C1303 1.355 . S
C1302 C1304 1.415 . S
C1303 C1302 1.355 . S
C1303 C1305 1.419 . S
C1304 C1302 1.415 . S
C1304 C1309 1.425 . S
C1304 C1311 1.409 . S
C1305 H1297 0.930 . S
C1305 C1303 1.419 . S
C1305 C1306 1.362 . S
C1306 H1298 0.930 . S
C1306 C1305 1.362 . S
C1306 C1309 1.409 . S
C1307 H1299 0.930 . S
C1307 C1308 1.355 . S
C1307 C1309 1.415 . S
C1308 C1307 1.355 . S
C1308 C1310 1.419 . S
C1309 C1304 1.425 . S
C1309 C1306 1.409 . S
C1309 C1307 1.415 . S
C1310 H1300 0.930 . S
C1310 C1308 1.419 . S
C1310 C1311 1.362 . S
C1311 H1301 0.930 . S
C1311 C1304 1.409 . S
C1311 C1310 1.362 . S
H1312 C1318 0.930 . S
H1313 C1321 0.930 . S
H1314 C1322 0.930 . S
H1315 C1323 0.930 . S
H1316 C1326 0.930 . S
H1317 C1327 0.930 . S
C1318 H1312 0.930 . S
C1318 C1319 1.355 . S
C1318 C1320 1.415 . S
C1319 C1318 1.355 . S
C1319 C1321 1.419 . S
C1320 C1318 1.415 . S
C1320 C1325 1.425 . S
C1320 C1327 1.409 . S
C1321 H1313 0.930 . S
C1321 C1319 1.419 . S
C1321 C1322 1.362 . S
C1322 H1314 0.930 . S
C1322 C1321 1.362 . S
C1322 C1325 1.409 . S
C1323 H1315 0.930 . S
C1323 C1324 1.355 . S
C1323 C1325 1.415 . S
C1324 C1323 1.355 . S
C1324 C1326 1.419 . S
C1325 C1320 1.425 . S
C1325 C1322 1.409 . S
C1325 C1323 1.415 . S
C1326 H1316 0.930 . S
C1326 C1324 1.419 . S
C1326 C1327 1.362 . S
C1327 H1317 0.930 . S
C1327 C1320 1.409 . S
C1327 C1326 1.362 . S
H1328 C1334 0.930 . S
H1329 C1337 0.930 . S
H1330 C1338 0.930 . S
H1331 C1339 0.930 . S
H1332 C1342 0.930 . S
H1333 C1343 0.930 . S
C1334 H1328 0.930 . S
C1334 C1335 1.355 . S
C1334 C1336 1.415 . S
C1335 C1334 1.355 . S
C1335 C1337 1.419 . S
C1336 C1334 1.415 . S
C1336 C1341 1.425 . S
C1336 C1343 1.409 . S
C1337 H1329 0.930 . S
C1337 C1335 1.419 . S
C1337 C1338 1.362 . S
C1338 H1330 0.930 . S
C1338 C1337 1.362 . S
C1338 C1341 1.409 . S
C1339 H1331 0.930 . S
C1339 C1340 1.355 . S
C1339 C1341 1.415 . S
C1340 C1339 1.355 . S
C1340 C1342 1.419 . S
C1341 C1336 1.425 . S
C1341 C1338 1.409 . S
C1341 C1339 1.415 . S
C1342 H1332 0.930 . S
C1342 C1340 1.419 . S
C1342 C1343 1.362 . S
C1343 H1333 0.930 . S
C1343 C1336 1.409 . S
C1343 C1342 1.362 . S
H1344 C1350 0.930 . S
H1345 C1353 0.930 . S
H1346 C1354 0.930 . S
H1347 C1355 0.930 . S
H1348 C1358 0.930 . S
H1349 C1359 0.930 . S
C1350 H1344 0.930 . S
C1350 C1351 1.355 . S
C1350 C1352 1.415 . S
C1351 C1350 1.355 . S
C1351 C1353 1.419 . S
C1352 C1350 1.415 . S
C1352 C1357 1.425 . S
C1352 C1359 1.409 . S
C1353 H1345 0.930 . S
C1353 C1351 1.419 . S
C1353 C1354 1.362 . S
C1354 H1346 0.930 . S
C1354 C1353 1.362 . S
C1354 C1357 1.409 . S
C1355 H1347 0.930 . S
C1355 C1356 1.355 . S
C1355 C1357 1.415 . S
C1356 C1355 1.355 . S
C1356 C1358 1.419 . S
C1357 C1352 1.425 . S
C1357 C1354 1.409 . S
C1357 C1355 1.415 . S
C1358 H1348 0.930 . S
C1358 C1356 1.419 . S
C1358 C1359 1.362 . S
C1359 H1349 0.930 . S
C1359 C1352 1.409 . S
C1359 C1358 1.362 . S
H1360 C1366 0.930 . S
H1361 C1369 0.930 . S
H1362 C1370 0.930 . S
H1363 C1371 0.930 . S
H1364 C1374 0.930 . S
H1365 C1375 0.930 . S
C1366 H1360 0.930 . S
C1366 C1367 1.355 . S
C1366 C1368 1.415 . S
C1367 C1366 1.355 . S
C1367 C1369 1.419 . S
C1368 C1366 1.415 . S
C1368 C1373 1.425 . S
C1368 C1375 1.409 . S
C1369 H1361 0.930 . S
C1369 C1367 1.419 . S
C1369 C1370 1.362 . S
C1370 H1362 0.930 . S
C1370 C1369 1.362 . S
C1370 C1373 1.409 . S
C1371 H1363 0.930 . S
C1371 C1372 1.355 . S
C1371 C1373 1.415 . S
C1372 C1371 1.355 . S
C1372 C1374 1.419 . S
C1373 C1368 1.425 . S
C1373 C1370 1.409 . S
C1373 C1371 1.415 . S
C1374 H1364 0.930 . S
C1374 C1372 1.419 . S
C1374 C1375 1.362 . S
C1375 H1365 0.930 . S
C1375 C1368 1.409 . S
C1375 C1374 1.362 . S
H1376 C1382 0.930 . S
H1377 C1385 0.930 . S
H1378 C1386 0.930 . S
H1379 C1387 0.930 . S
H1380 C1390 0.930 . S
H1381 C1391 0.930 . S
C1382 H1376 0.930 . S
C1382 C1383 1.355 . S
C1382 C1384 1.415 . S
C1383 C1382 1.355 . S
C1383 C1385 1.419 . S
C1384 C1382 1.415 . S
C1384 C1389 1.425 . S
C1384 C1391 1.409 . S
C1385 H1377 0.930 . S
C1385 C1383 1.419 . S
C1385 C1386 1.362 . S
C1386 H1378 0.930 . S
C1386 C1385 1.362 . S
C1386 C1389 1.409 . S
C1387 H1379 0.930 . S
C1387 C1388 1.355 . S
C1387 C1389 1.415 . S
C1388 C1387 1.355 . S
C1388 C1390 1.419 . S
C1389 C1384 1.425 . S
C1389 C1386 1.409 . S
C1389 C1387 1.415 . S
C1390 H1380 0.930 . S
C1390 C1388 1.419 . S
C1390 C1391 1.362 . S
C1391 H1381 0.930 . S
C1391 C1384 1.409 . S
C1391 C1390 1.362 . S
H1392 C1398 0.930 . S
H1393 C1401 0.930 . S
H1394 C1402 0.930 . S
H1395 C1403 0.930 . S
H1396 C1406 0.930 . S
H1397 C1407 0.930 . S
C1398 H1392 0.930 . S
C1398 C1399 1.355 . S
C1398 C1400 1.415 . S
C1399 C1398 1.355 . S
C1399 C1401 1.419 . S
C1400 C1398 1.415 . S
C1400 C1405 1.425 . S
C1400 C1407 1.409 . S
C1401 H1393 0.930 . S
C1401 C1399 1.419 . S
C1401 C1402 1.362 . S
C1402 H1394 0.930 . S
C1402 C1401 1.362 . S
C1402 C1405 1.409 . S
C1403 H1395 0.930 . S
C1403 C1404 1.355 . S
C1403 C1405 1.415 . S
C1404 C1403 1.355 . S
C1404 C1406 1.419 . S
C1405 C1400 1.425 . S
C1405 C1402 1.409 . S
C1405 C1403 1.415 . S
C1406 H1396 0.930 . S
C1406 C1404 1.419 . S
C1406 C1407 1.362 . S
C1407 H1397 0.930 . S
C1407 C1400 1.409 . S
C1407 C1406 1.362 . S
H1408 C1414 0.930 . S
H1409 C1417 0.930 . S
H1410 C1418 0.930 . S
H1411 C1419 0.930 . S
H1412 C1422 0.930 . S
H1413 C1423 0.930 . S
C1414 H1408 0.930 . S
C1414 C1415 1.355 . S
C1414 C1416 1.415 . S
C1415 C1414 1.355 . S
C1415 C1417 1.419 . S
C1416 C1414 1.415 . S
C1416 C1421 1.425 . S
C1416 C1423 1.409 . S
C1417 H1409 0.930 . S
C1417 C1415 1.419 . S
C1417 C1418 1.362 . S
C1418 H1410 0.930 . S
C1418 C1417 1.362 . S
C1418 C1421 1.409 . S
C1419 H1411 0.930 . S
C1419 C1420 1.355 . S
C1419 C1421 1.415 . S
C1420 C1419 1.355 . S
C1420 C1422 1.419 . S
C1421 C1416 1.425 . S
C1421 C1418 1.409 . S
C1421 C1419 1.415 . S
C1422 H1412 0.930 . S
C1422 C1420 1.419 . S
C1422 C1423 1.362 . S
C1423 H1413 0.930 . S
C1423 C1416 1.409 . S
C1423 C1422 1.362 . S
H1424 C1430 0.930 . S
H1425 C1433 0.930 . S
H1426 C1434 0.930 . S
H1427 C1435 0.930 . S
H1428 C1438 0.930 . S
H1429 C1439 0.930 . S
C1430 H1424 0.930 . S
C1430 C1431 1.355 . S
C1430 C1432 1.415 . S
C1431 C1430 1.355 . S
C1431 C1433 1.419 . S
C1432 C1430 1.415 . S
C1432 C1437 1.425 . S
C1432 C1439 1.409 . S
C1433 H1425 0.930 . S
C1433 C1431 1.419 . S
C1433 C1434 1.362 . S
C1434 H1426 0.930 . S
C1434 C1433 1.362 . S
C1434 C1437 1.409 . S
C1435 H1427 0.930 . S
C1435 C1436 1.355 . S
C1435 C1437 1.415 . S
C1436 C1435 1.355 . S
C1436 C1438 1.419 . S
C1437 C1432 1.425 . S
C1437 C1434 1.409 . S
C1437 C1435 1.415 . S
C1438 H1428 0.930 . S
C1438 C1436 1.419 . S
C1438 C1439 1.362 . S
C1439 H1429 0.930 . S
C1439 C1432 1.409 . S
C1439 C1438 1.362 . S
C423 C199 1.548 . S
C428 C4 1.537 . S
C439 C23 1.545 . S
C444 C166 1.540 . S
C455 C30 1.536 . S
C460 C173 1.549 . S
C471 C192 1.543 . S
C476 C43 1.542 . S
C487 C62 1.536 . S
C492 C127 1.549 . S
C503 C69 1.545 . S
C508 C140 1.540 . S
C519 C147 1.542 . S
C524 C88 1.543 . S
C535 C114 1.545 . S
C540 C95 1.540 . S
C551 C212 1.549 . S
C556 C407 1.536 . S
C567 C225 1.543 . S
C572 C374 1.542 . S
C583 C238 1.548 . S
C588 C381 1.537 . S
C599 C394 1.548 . S
C604 C251 1.537 . S
C615 C264 1.542 . S
C620 C329 1.543 . S
C631 C283 1.542 . S
C636 C342 1.543 . S
C647 C355 1.549 . S
C652 C290 1.536 . S
C663 C303 1.541 . S
C668 C316 1.544 . S
C679 C159 1.466 . S
C684 C5 1.474 . S
C695 C16 1.469 . S
C700 C174 1.471 . S
C711 C185 1.473 . S
C716 C31 1.466 . S
C727 C44 1.465 . S
C732 C200 1.474 . S
C743 C55 1.465 . S
C748 C107 1.474 . S
C759 C120 1.472 . S
C764 C70 1.468 . S
C775 C133 1.474 . S
C780 C81 1.465 . S
C791 C148 1.467 . S
C796 C96 1.473 . S
C807 C213 1.473 . S
C812 C367 1.467 . S
C823 C382 1.472 . S
C828 C226 1.467 . S
C839 C239 1.466 . S
C844 C395 1.473 . S
C855 C252 1.466 . S
C860 C408 1.474 . S
C871 C317 1.474 . S
C876 C265 1.466 . S
C887 C276 1.469 . S
C892 C330 1.471 . S
C903 C291 1.465 . S
C908 C343 1.474 . S
C919 C304 1.468 . S
C924 C356 1.472 . S
C935 C3 1.461 . S
C940 C135 1.434 . S
C951 C146 1.446 . S
C956 C18 1.449 . S
C967 C29 1.461 . S
C972 C109 1.434 . S
C983 C122 1.434 . S
C988 C42 1.461 . S
C999 C187 1.455 . S
C1004 C57 1.440 . S
C1015 C198 1.463 . S
C1020 C68 1.433 . S
C1031 C161 1.446 . S
C1036 C83 1.450 . S
C1047 C94 1.434 . S
C1052 C172 1.461 . S
C1063 C341 1.461 . S
C1068 C211 1.434 . S
C1079 C224 1.449 . S
C1084 C354 1.446 . S
C1095 C315 1.453 . S
C1100 C237 1.443 . S
C1111 C328 1.433 . S
C1116 C250 1.462 . S
C1127 C263 1.452 . S
C1132 C393 1.443 . S
C1143 C278 1.458 . S
C1148 C406 1.437 . S
C1159 C369 1.462 . S
C1164 C289 1.433 . S
C1175 C380 1.463 . S
C1180 C302 1.433 . S
C1191 C309 1.347 . S
C1196 C10 1.350 . S
C1207 C270 1.367 . S
C1212 C17 1.362 . S
C1223 C277 1.353 . S
C1228 C36 1.369 . S
C1239 C296 1.354 . S
C1244 C49 1.369 . S
C1255 C231 1.368 . S
C1260 C56 1.358 . S
C1271 C75 1.357 . S
C1276 C244 1.344 . S
C1287 C82 1.357 . S
C1292 C257 1.344 . S
C1303 C101 1.353 . S
C1308 C218 1.346 . S
C1319 C108 1.357 . S
C1324 C413 1.344 . S
C1335 C368 1.369 . S
C1340 C121 1.354 . S
C1351 C134 1.362 . S
C1356 C387 1.366 . S
C1367 C153 1.366 . S
C1372 C400 1.345 . S
C1383 C335 1.368 . S
C1388 C160 1.359 . S
C1399 C348 1.344 . S
C1404 C179 1.356 . S
C1415 C186 1.345 . S
C1420 C361 1.354 . S
C1431 C205 1.351 . S
C1436 C322 1.347 . S
