# Generated by pormake.
# Topology xfw, (5)-cn, num edge types: 1
# Building blocks:
#     Node 0, Type 0, BuildingBlock: BEQFEK_clean_sbu_0, # of connection points: 5
#     Node 1, Type 0, BuildingBlock: BEQFEK_clean_sbu_0, # of connection points: 5
#     Node 2, Type 0, BuildingBlock: BEQFEK_clean_sbu_0, # of connection points: 5
#     Node 3, Type 0, BuildingBlock: BEQFEK_clean_sbu_0, # of connection points: 5
#     Node 4, Type 0, BuildingBlock: BEQFEK_clean_sbu_0, # of connection points: 5
#     Node 5, Type 0, BuildingBlock: BEQFEK_clean_sbu_0, # of connection points: 5
#     Node 6, Type 0, BuildingBlock: BEQFEK_clean_sbu_0, # of connection points: 5
#     Node 7, Type 0, BuildingBlock: BEQFEK_clean_sbu_0, # of connection points: 5
#     Edge 8, Type (0, 0), None
#     Edge 9, Type (0, 0), None
#     Edge 10, Type (0, 0), None
#     Edge 11, Type (0, 0), None
#     Edge 12, Type (0, 0), None
#     Edge 13, Type (0, 0), None
#     Edge 14, Type (0, 0), None
#     Edge 15, Type (0, 0), None
#     Edge 16, Type (0, 0), None
#     Edge 17, Type (0, 0), None
#     Edge 18, Type (0, 0), None
#     Edge 19, Type (0, 0), None
#     Edge 20, Type (0, 0), None
#     Edge 21, Type (0, 0), None
#     Edge 22, Type (0, 0), None
#     Edge 23, Type (0, 0), None
#     Edge 24, Type (0, 0), None
#     Edge 25, Type (0, 0), None
#     Edge 26, Type (0, 0), None
#     Edge 27, Type (0, 0), None
# Relax obj value: 0.340
# Max RMSD: 0.220
# Mean RMSD: 0.220
data_MOF--net-xfw--node1-BEQFEK_clean_sbu_0--edge1-none
_symmetry_space_group_name_H-M    P1
_symmetry_Int_Tables_number       1
_symmetry_cell_setting            triclinic
loop_
_symmetry_equiv_pos_as_xyz
'x, y, z'
_cell_length_a     14.605549
_cell_length_b     14.605455
_cell_length_c     34.333752
_cell_angle_alpha  89.999792
_cell_angle_beta   90.000091
_cell_angle_gamma 89.999941
loop_
_atom_site_label
_atom_site_type_symbol
_atom_site_fract_x
_atom_site_fract_y
_atom_site_fract_z
_atom_type_partial_charge
Co0 Co 0.19859 0.96701 0.57613 0.0
Co1 Co 0.19258 0.12346 0.63966 0.0
C2 C 0.03568 -0.00781 0.62556 0.0
O3 O 0.08071 0.94259 0.60184 0.0
O4 O 0.07 0.06357 0.64091 0.0
C5 C 0.23889 0.80453 0.51261 0.0
O6 O 0.31773 0.7618 0.50989 0.0
C7 C 0.19147 0.16313 0.72183 0.0
C8 C 0.24813 0.30298 0.72579 0.0
C9 C 0.22011 0.22904 0.74811 0.0
N10 N 0.20239 0.19619 0.68562 0.0
N11 N 0.23489 0.28047 0.6881 0.0
C12 C 0.16587 0.06594 0.73036 0.0
H13 H 0.18853 0.02055 0.70631 0.0
H14 H 0.19627 0.04255 0.75826 0.0
H15 H 0.09024 0.06085 0.73242 0.0
C16 C 0.38061 0.93983 0.61164 0.0
N17 N 0.29631 0.97731 0.61218 0.0
N18 N 0.29479 0.04358 0.63808 0.0
C19 C 0.37898 0.05168 0.65402 0.0
C20 C 0.43565 0.98579 0.63803 0.0
C21 C 0.41188 0.87102 0.58229 0.0
H22 H 0.36599 0.81062 0.58343 0.0
H23 H 0.48326 0.84844 0.58781 0.0
H24 H 0.40778 0.90161 0.55277 0.0
O25 O 0.18149 0.08527 0.54705 0.0
O26 O 0.19238 0.1969 0.59154 0.0
H27 H 0.38934 0.19552 0.66488 0.0
H28 H 0.48443 0.12972 0.68359 0.0
C29 C 0.40924 0.13014 0.67891 0.0
H30 H 0.37525 0.12551 0.70767 0.0
H31 H 0.25254 0.32066 0.66412 0.0
O32 O 0.22875 0.86656 0.53833 0.0
C33 C 0.18197 0.16997 0.55644 0.0
Co34 Co 0.96679 0.77373 0.46271 0.0
Co35 Co 0.12328 0.77972 0.39919 0.0
C36 C -0.008 0.93664 0.4133 0.0
O37 O 0.94235 0.89159 0.43699 0.0
O38 O 0.0634 0.90232 0.39797 0.0
C39 C 0.80435 0.73361 0.52624 0.0
O40 O 0.7614 0.6549 0.529 0.0
C41 C 0.1629 0.78088 0.31703 0.0
C42 C 0.30271 0.72414 0.31303 0.0
C43 C 0.22876 0.75222 0.29073 0.0
N44 N 0.19598 0.76992 0.35323 0.0
N45 N 0.28024 0.73738 0.35074 0.0
C46 C 0.06572 0.80654 0.30851 0.0
H47 H 0.02033 0.78387 0.33256 0.0
H48 H 0.04229 0.77619 0.2806 0.0
H49 H 0.06067 0.88218 0.30647 0.0
C50 C 0.93962 0.59171 0.42721 0.0
N51 N 0.97711 0.67601 0.42666 0.0
N52 N 0.04339 0.67751 0.40077 0.0
C53 C 0.0515 0.59332 0.38484 0.0
C54 C 0.9856 0.53666 0.40083 0.0
C55 C 0.8708 0.56045 0.45655 0.0
H56 H 0.8104 0.60635 0.45542 0.0
H57 H 0.84822 0.48907 0.45104 0.0
H58 H 0.90139 0.56454 0.48608 0.0
O59 O 0.08505 0.79085 0.49178 0.0
O60 O 0.19674 0.7799 0.44731 0.0
H61 H 0.19534 0.58293 0.374 0.0
H62 H 0.12955 0.48786 0.35528 0.0
C63 C 0.12997 0.56304 0.35996 0.0
H64 H 0.12538 0.59704 0.3312 0.0
H65 H 0.32044 0.7197 0.37471 0.0
O66 O 0.86632 0.74351 0.50048 0.0
C67 C 0.16976 0.79033 0.48241 0.0
Co68 Co 0.77356 0.00574 0.57613 0.0
Co69 Co 0.77984 0.8493 0.63968 0.0
C70 C 0.9365 0.98083 0.62559 0.0
O71 O 0.89143 0.03033 0.60185 0.0
O72 O 0.9023 0.90938 0.64093 0.0
C73 C 0.73335 0.16823 0.51264 0.0
O74 O 0.65482 0.21149 0.50987 0.0
C75 C 0.7811 0.80955 0.72183 0.0
C76 C 0.72454 0.66966 0.72579 0.0
C77 C 0.75252 0.74361 0.74811 0.0
N78 N 0.77017 0.77651 0.68563 0.0
N79 N 0.73775 0.6922 0.6881 0.0
C80 C 0.80663 0.90675 0.73037 0.0
H81 H 0.78391 0.95215 0.70634 0.0
H82 H 0.77626 0.9301 0.75829 0.0
H83 H 0.88226 0.9119 0.73242 0.0
C84 C 0.59141 0.03245 0.61159 0.0
N85 N 0.67584 -0.00479 0.61218 0.0
N86 N 0.6775 0.92901 0.63811 0.0
C87 C 0.59332 0.92069 0.65404 0.0
C88 C 0.53648 -0.01372 0.63794 0.0
C89 C 0.55998 0.10112 0.58221 0.0
H90 H 0.60558 0.16174 0.58339 0.0
H91 H 0.48847 0.12336 0.58766 0.0
H92 H 0.56439 0.07057 0.55269 0.0
O93 O 0.79077 0.88751 0.54702 0.0
O94 O 0.7801 0.7759 0.59155 0.0
H95 H 0.58319 0.77688 0.66498 0.0
H96 H 0.48809 0.84259 0.68372 0.0
C97 C 0.56326 0.84227 0.67899 0.0
H98 H 0.59735 0.84702 0.70773 0.0
H99 H 0.72011 0.65202 0.66411 0.0
O100 O 0.743 0.10632 0.53845 0.0
C101 C 0.79039 0.80282 0.55643 0.0
Co102 Co 0.00553 0.19877 0.46276 0.0
Co103 Co 0.84912 0.19246 0.39919 0.0
C104 C 0.98064 0.03582 0.41328 0.0
O105 O 0.0301 0.08088 0.43704 0.0
O106 O 0.90921 0.07002 0.39793 0.0
C107 C 0.16805 0.23915 0.52623 0.0
O108 O 0.21112 0.31781 0.52896 0.0
C109 C 0.80931 0.19124 0.31704 0.0
C110 C 0.66939 0.24773 0.31311 0.0
C111 C 0.74334 0.2198 0.29077 0.0
N112 N 0.7763 0.20213 0.35325 0.0
N113 N 0.69197 0.23451 0.3508 0.0
C114 C 0.90652 0.16578 0.30848 0.0
H115 H 0.95192 0.18849 0.33252 0.0
H116 H 0.92984 0.19621 0.28057 0.0
H117 H 0.91171 0.09015 0.30641 0.0
C118 C 0.03224 0.38091 0.42729 0.0
N119 N -0.00499 0.29648 0.4267 0.0
N120 N 0.92882 0.2948 0.40076 0.0
C121 C 0.92051 0.37898 0.38483 0.0
C122 C 0.98609 0.43583 0.40092 0.0
C123 C 0.10091 0.41235 0.45666 0.0
H124 H 0.16153 0.36676 0.45548 0.0
H125 H 0.12314 0.48387 0.45122 0.0
H126 H 0.07036 0.40795 0.48619 0.0
O127 O 0.8873 0.18158 0.49188 0.0
O128 O 0.77574 0.19218 0.44733 0.0
H129 H 0.77671 0.38908 0.37387 0.0
H130 H 0.84242 0.4842 0.35514 0.0
C131 C 0.84211 0.40903 0.35987 0.0
H132 H 0.84688 0.37495 0.33113 0.0
H133 H 0.6518 0.25212 0.37479 0.0
O134 O 0.10608 0.22927 0.50046 0.0
C135 C 0.80262 0.18192 0.48245 0.0
Co136 Co 0.77377 0.96693 0.07618 0.0
Co137 Co 0.77971 0.12334 0.13973 0.0
C138 C 0.93663 -0.00799 0.12562 0.0
O139 O 0.89159 0.94238 0.10191 0.0
O140 O 0.90232 0.06342 0.14094 0.0
C141 C 0.73346 0.80477 1.01252 0.0
O142 O 0.65454 0.76221 1.00975 0.0
C143 C 0.78069 0.16274 0.22191 0.0
C144 C 0.72407 0.30261 0.22594 0.0
C145 C 0.75196 0.22855 0.24822 0.0
N146 N 0.76986 0.19593 0.18572 0.0
N147 N 0.73739 0.28021 0.18824 0.0
C148 C 0.80629 0.06554 0.23039 0.0
H149 H 0.7836 0.0202 0.20633 0.0
H150 H 0.77595 0.04208 0.2583 0.0
H151 H 0.88193 0.06044 0.23243 0.0
C152 C 0.59173 0.93966 0.11165 0.0
N153 N 0.67602 0.97718 0.11221 0.0
N154 N 0.67749 0.04346 0.1381 0.0
C155 C 0.59328 0.05156 0.15402 0.0
C156 C 0.53665 0.98563 0.13802 0.0
C157 C 0.56052 0.87083 0.08231 0.0
H158 H 0.60655 0.81052 0.0834 0.0
H159 H 0.48921 0.84809 0.08786 0.0
H160 H 0.56446 0.90147 0.05279 0.0
O161 O 0.791 0.08525 0.04718 0.0
O162 O 0.77996 0.19693 0.09165 0.0
H163 H 0.58297 0.1954 0.16488 0.0
H164 H 0.48777 0.12965 0.18352 0.0
C165 C 0.56297 0.13002 0.17889 0.0
H166 H 0.59685 0.12536 0.20768 0.0
H167 H 0.71983 0.3205 0.16427 0.0
O168 O 0.74367 0.8667 0.03828 0.0
C169 C 0.79047 0.16995 0.05655 0.0
Co170 Co 0.96714 0.19855 0.96271 0.0
Co171 Co 0.12351 0.19259 0.89915 0.0
C172 C -0.00781 0.03568 0.91325 0.0
O173 O 0.94261 0.08072 0.93698 0.0
O174 O 0.06358 0.07 0.89791 0.0
C175 C 0.80494 0.23905 0.02636 0.0
O176 O 0.76259 0.31808 0.02909 0.0
C177 C 0.16298 0.19165 0.81696 0.0
C178 C 0.30287 0.2482 0.81296 0.0
C179 C 0.22882 0.22036 0.79067 0.0
N180 N 0.19613 0.20244 0.85316 0.0
N181 N 0.28044 0.23487 0.85066 0.0
C182 C 0.06576 0.16611 0.80846 0.0
H183 H 0.02042 0.1888 0.83253 0.0
H184 H 0.04233 0.19652 0.78056 0.0
H185 H 0.06062 0.09048 0.8064 0.0
C186 C 0.93986 0.38059 0.92722 0.0
N187 N 0.97738 0.2963 0.92667 0.0
N188 N 0.04365 0.29482 0.90078 0.0
C189 C 0.05173 0.37902 0.88485 0.0
C190 C 0.98581 0.43565 0.90084 0.0
C191 C 0.87103 0.41181 0.95656 0.0
H192 H 0.81073 0.36578 0.95548 0.0
H193 H 0.8483 0.48313 0.95101 0.0
H194 H 0.90168 0.40788 0.98608 0.0
O195 O 0.08546 0.18135 0.99172 0.0
O196 O 0.19709 0.19232 0.94723 0.0
H197 H 0.19556 0.3893 0.87396 0.0
H198 H 0.12982 0.48452 0.85534 0.0
C199 C 0.13018 0.40932 0.85996 0.0
H200 H 0.12549 0.37544 0.83118 0.0
H201 H 0.32071 0.2524 0.87463 0.0
O202 O 0.86693 0.22859 1.00063 0.0
C203 C 0.17015 0.18184 0.98233 0.0
Co204 Co 0.19872 0.0054 0.07613 0.0
Co205 Co 0.19246 0.84907 0.13973 0.0
C206 C 0.03582 0.98064 0.12564 0.0
O207 O 0.08088 0.03008 0.10186 0.0
O208 O 0.07001 0.9092 0.14098 0.0
C209 C 0.2393 0.16765 1.01253 0.0
O210 O 0.31816 0.21032 1.00979 0.0
C211 C 0.19143 0.80947 0.2219 0.0
C212 C 0.2478 0.6695 0.22587 0.0
C213 C 0.22005 0.74356 0.24818 0.0
N214 N 0.20218 0.77635 0.1857 0.0
N215 N 0.23449 0.692 0.18817 0.0
C216 C 0.16601 0.90671 0.23042 0.0
H217 H 0.18875 0.95205 0.20637 0.0
H218 H 0.19645 0.93006 0.25833 0.0
H219 H 0.09039 0.91195 0.23249 0.0
C220 C 0.38088 0.0322 0.11157 0.0
N221 N 0.29647 -0.00506 0.11217 0.0
N222 N 0.29482 0.92875 0.1381 0.0
C223 C 0.37901 0.92046 0.15403 0.0
C224 C 0.43583 0.98606 0.13793 0.0
C225 C 0.41227 0.10089 0.0822 0.0
H226 H 0.36655 0.16142 0.08334 0.0
H227 H 0.48373 0.12327 0.08768 0.0
H228 H 0.40803 0.07028 0.05268 0.0
O229 O 0.18143 0.88711 0.04708 0.0
O230 O 0.19211 0.77555 0.09162 0.0
H231 H 0.38904 0.77666 0.16502 0.0
H232 H 0.48429 0.84232 0.18366 0.0
C233 C 0.4091 0.84207 0.17899 0.0
H234 H 0.37514 0.84692 0.20775 0.0
H235 H 0.25198 0.65174 0.16419 0.0
O236 O 0.22911 0.10572 0.0383 0.0
C237 C 0.18178 0.80243 0.0565 0.0
Co238 Co 0.00561 0.7736 0.96271 0.0
Co239 Co 0.84924 0.77983 0.89913 0.0
C240 C 0.98082 0.9365 0.91322 0.0
O241 O 0.03031 0.89142 0.93697 0.0
O242 O 0.90936 0.9023 0.89789 0.0
C243 C 0.16782 0.7332 0.02632 0.0
O244 O 0.21071 0.65446 0.02911 0.0
C245 C 0.8097 0.78092 0.81696 0.0
C246 C 0.66976 0.72448 0.81296 0.0
C247 C 0.74382 0.75227 0.79067 0.0
N248 N 0.77656 0.77013 0.85315 0.0
N249 N 0.69223 0.73777 0.85066 0.0
C250 C 0.90693 0.8064 0.80845 0.0
H251 H 0.95227 0.78365 0.8325 0.0
H252 H 0.9303 0.77602 0.78053 0.0
H253 H 0.91212 0.88203 0.8064 0.0
C254 C 0.0324 0.59144 0.92727 0.0
N255 N -0.00486 0.67585 0.92667 0.0
N256 N 0.92893 0.67748 0.90075 0.0
C257 C 0.92064 0.59329 0.88483 0.0
C258 C -0.01375 0.53648 0.90093 0.0
C259 C 0.1011 0.56006 0.95664 0.0
H260 H 0.16163 0.60579 0.95551 0.0
H261 H 0.12349 0.48861 0.95116 0.0
H262 H 0.0705 0.5643 0.98616 0.0
O263 O 0.88732 0.79091 0.99174 0.0
O264 O 0.77571 0.78016 0.94723 0.0
H265 H 0.77683 0.58323 0.87387 0.0
H266 H 0.84249 0.488 0.85521 0.0
C267 C 0.84222 0.56319 0.85988 0.0
H268 H 0.84704 0.59716 0.83112 0.0
H269 H 0.65196 0.72025 0.87464 0.0
O270 O 0.10595 0.74315 1.00051 0.0
C271 C 0.80263 0.79053 0.98234 0.0
loop_
_geom_bond_atom_site_label_1
_geom_bond_atom_site_label_2
_geom_bond_distance
_geom_bond_site_symmetry_2
_ccdc_geom_bond_type
Co0 O3 1.970 1_545 S
Co0 N17 1.989 . S
Co0 O25 1.967 . S
Co0 O32 1.920 1_545 S
Co1 O4 1.966 . S
Co1 N10 2.022 . S
Co1 N18 1.993 . S
Co1 O26 1.941 . S
C2 O3 1.258 1_545 S
C2 O4 1.263 . S
O3 Co0 1.970 1_565 S
O3 C2 1.258 1_565 S
O4 Co1 1.966 . S
O4 C2 1.263 . S
C5 O6 1.235 . S
C5 O32 1.289 . S
O6 C5 1.235 . S
C7 C9 1.400 . S
C7 N10 1.351 . S
C7 C12 1.501 . S
C8 C9 1.387 . S
C8 N11 1.341 . S
C9 C7 1.400 . S
C9 C8 1.387 . S
N10 Co1 2.022 . S
N10 C7 1.351 . S
N10 N11 1.365 . S
N11 C8 1.341 . S
N11 N10 1.365 . S
N11 H31 0.862 . S
C12 C7 1.501 . S
C12 H13 0.961 . S
C12 H14 0.961 . S
C12 H15 0.960 . S
H13 C12 0.961 . S
H14 C12 0.961 . S
H15 C12 0.960 . S
C16 N17 1.342 . S
C16 C20 1.401 . S
C16 C21 1.499 1_545 S
N17 Co0 1.989 . S
N17 C16 1.342 . S
N17 N18 1.388 . S
N18 Co1 1.993 . S
N18 N17 1.388 . S
N18 C19 1.346 . S
C19 N18 1.346 . S
C19 C20 1.396 . S
C19 C29 1.510 . S
C20 C16 1.401 . S
C20 C19 1.396 . S
C21 C16 1.499 1_565 S
C21 H22 0.959 . S
C21 H23 0.960 . S
C21 H24 0.961 1_565 S
H22 C21 0.959 . S
H23 C21 0.960 . S
H24 C21 0.961 1_545 S
O25 Co0 1.967 . S
O25 C33 1.258 . S
O26 Co1 1.941 . S
O26 C33 1.266 . S
H27 C29 0.959 . S
H28 C29 0.961 . S
C29 C19 1.510 . S
C29 H27 0.959 . S
C29 H28 0.961 . S
C29 H30 0.960 . S
H30 C29 0.960 . S
H31 N11 0.862 . S
O32 Co0 1.920 1_565 S
O32 C5 1.289 . S
C33 O25 1.258 . S
C33 O26 1.266 . S
Co34 O37 1.970 1_455 S
Co34 N51 1.989 . S
Co34 O59 1.967 . S
Co34 O66 1.920 1_455 S
Co35 O38 1.966 . S
Co35 N44 2.022 . S
Co35 N52 1.993 . S
Co35 O60 1.941 . S
C36 O37 1.258 1_455 S
C36 O38 1.263 . S
O37 Co34 1.970 1_655 S
O37 C36 1.258 1_655 S
O38 Co35 1.966 . S
O38 C36 1.263 . S
C39 O40 1.235 . S
C39 O66 1.289 . S
O40 C39 1.235 . S
C41 C43 1.400 . S
C41 N44 1.351 . S
C41 C46 1.501 . S
C42 C43 1.387 . S
C42 N45 1.341 . S
C43 C41 1.400 . S
C43 C42 1.387 . S
N44 Co35 2.022 . S
N44 C41 1.351 . S
N44 N45 1.365 . S
N45 C42 1.341 . S
N45 N44 1.365 . S
N45 H65 0.862 . S
C46 C41 1.501 . S
C46 H47 0.961 . S
C46 H48 0.961 . S
C46 H49 0.960 . S
H47 C46 0.961 . S
H48 C46 0.961 . S
H49 C46 0.960 . S
C50 N51 1.342 . S
C50 C54 1.401 . S
C50 C55 1.499 1_455 S
N51 Co34 1.989 . S
N51 C50 1.342 . S
N51 N52 1.388 . S
N52 Co35 1.993 . S
N52 N51 1.388 . S
N52 C53 1.346 . S
C53 N52 1.346 . S
C53 C54 1.396 . S
C53 C63 1.510 . S
C54 C50 1.401 . S
C54 C53 1.396 . S
C55 C50 1.499 1_655 S
C55 H56 0.959 . S
C55 H57 0.960 . S
C55 H58 0.961 1_655 S
H56 C55 0.959 . S
H57 C55 0.960 . S
H58 C55 0.961 1_455 S
O59 Co34 1.967 . S
O59 C67 1.258 . S
O60 Co35 1.941 . S
O60 C67 1.266 . S
H61 C63 0.959 . S
H62 C63 0.961 . S
C63 C53 1.510 . S
C63 H61 0.959 . S
C63 H62 0.961 . S
C63 H64 0.960 . S
H64 C63 0.960 . S
H65 N45 0.862 . S
O66 Co34 1.920 1_655 S
O66 C39 1.289 . S
C67 O59 1.258 . S
C67 O60 1.266 . S
Co68 O71 1.970 1_565 S
Co68 N85 1.989 . S
Co68 O93 1.967 . S
Co68 O100 1.920 1_565 S
Co69 O72 1.966 . S
Co69 N78 2.022 . S
Co69 N86 1.993 . S
Co69 O94 1.941 . S
C70 O71 1.258 1_565 S
C70 O72 1.263 . S
O71 Co68 1.970 1_545 S
O71 C70 1.258 1_545 S
O72 Co69 1.966 . S
O72 C70 1.263 . S
C73 O74 1.235 . S
C73 O100 1.289 . S
O74 C73 1.235 . S
C75 C77 1.400 . S
C75 N78 1.351 . S
C75 C80 1.501 . S
C76 C77 1.387 . S
C76 N79 1.341 . S
C77 C75 1.400 . S
C77 C76 1.387 . S
N78 Co69 2.022 . S
N78 C75 1.351 . S
N78 N79 1.365 . S
N79 C76 1.341 . S
N79 N78 1.365 . S
N79 H99 0.862 . S
C80 C75 1.501 . S
C80 H81 0.961 . S
C80 H82 0.961 . S
C80 H83 0.960 . S
H81 C80 0.961 . S
H82 C80 0.961 . S
H83 C80 0.960 . S
C84 N85 1.342 . S
C84 C88 1.401 . S
C84 C89 1.499 1_565 S
N85 Co68 1.989 . S
N85 C84 1.342 . S
N85 N86 1.388 . S
N86 Co69 1.993 . S
N86 N85 1.388 . S
N86 C87 1.346 . S
C87 N86 1.346 . S
C87 C88 1.396 . S
C87 C97 1.510 . S
C88 C84 1.401 . S
C88 C87 1.396 . S
C89 C84 1.499 1_545 S
C89 H90 0.959 . S
C89 H91 0.960 . S
C89 H92 0.961 1_545 S
H90 C89 0.959 . S
H91 C89 0.960 . S
H92 C89 0.961 1_565 S
O93 Co68 1.967 . S
O93 C101 1.258 . S
O94 Co69 1.941 . S
O94 C101 1.266 . S
H95 C97 0.959 . S
H96 C97 0.961 . S
C97 C87 1.510 . S
C97 H95 0.959 . S
C97 H96 0.961 . S
C97 H98 0.960 . S
H98 C97 0.960 . S
H99 N79 0.862 . S
O100 Co68 1.920 1_545 S
O100 C73 1.289 . S
C101 O93 1.258 . S
C101 O94 1.266 . S
Co102 O105 1.970 1_655 S
Co102 N119 1.989 . S
Co102 O127 1.967 . S
Co102 O134 1.920 1_655 S
Co103 O106 1.966 . S
Co103 N112 2.022 . S
Co103 N120 1.993 . S
Co103 O128 1.941 . S
C104 O105 1.258 1_655 S
C104 O106 1.263 . S
O105 Co102 1.970 1_455 S
O105 C104 1.258 1_455 S
O106 Co103 1.966 . S
O106 C104 1.263 . S
C107 O108 1.235 . S
C107 O134 1.289 . S
O108 C107 1.235 . S
C109 C111 1.400 . S
C109 N112 1.351 . S
C109 C114 1.501 . S
C110 C111 1.387 . S
C110 N113 1.341 . S
C111 C109 1.400 . S
C111 C110 1.387 . S
N112 Co103 2.022 . S
N112 C109 1.351 . S
N112 N113 1.365 . S
N113 C110 1.341 . S
N113 N112 1.365 . S
N113 H133 0.862 . S
C114 C109 1.501 . S
C114 H115 0.961 . S
C114 H116 0.961 . S
C114 H117 0.960 . S
H115 C114 0.961 . S
H116 C114 0.961 . S
H117 C114 0.960 . S
C118 N119 1.342 . S
C118 C122 1.401 . S
C118 C123 1.499 1_655 S
N119 Co102 1.989 . S
N119 C118 1.342 . S
N119 N120 1.388 . S
N120 Co103 1.993 . S
N120 N119 1.388 . S
N120 C121 1.346 . S
C121 N120 1.346 . S
C121 C122 1.396 . S
C121 C131 1.510 . S
C122 C118 1.401 . S
C122 C121 1.396 . S
C123 C118 1.499 1_455 S
C123 H124 0.959 . S
C123 H125 0.960 . S
C123 H126 0.961 1_455 S
H124 C123 0.959 . S
H125 C123 0.960 . S
H126 C123 0.961 1_655 S
O127 Co102 1.967 . S
O127 C135 1.258 . S
O128 Co103 1.941 . S
O128 C135 1.266 . S
H129 C131 0.959 . S
H130 C131 0.961 . S
C131 C121 1.510 . S
C131 H129 0.959 . S
C131 H130 0.961 . S
C131 H132 0.960 . S
H132 C131 0.960 . S
H133 N113 0.862 . S
O134 Co102 1.920 1_455 S
O134 C107 1.289 . S
C135 O127 1.258 . S
C135 O128 1.266 . S
Co136 O139 1.970 1_545 S
Co136 N153 1.989 . S
Co136 O161 1.967 . S
Co136 O168 1.920 1_544 S
Co137 O140 1.966 . S
Co137 N146 2.022 . S
Co137 N154 1.993 . S
Co137 O162 1.941 . S
C138 O139 1.258 1_545 S
C138 O140 1.263 . S
O139 Co136 1.970 1_565 S
O139 C138 1.258 1_565 S
O140 Co137 1.966 . S
O140 C138 1.263 . S
C141 O142 1.235 1_556 S
C141 O168 1.289 . S
O142 C141 1.235 1_554 S
C143 C145 1.400 . S
C143 N146 1.351 . S
C143 C148 1.501 . S
C144 C145 1.387 . S
C144 N147 1.341 . S
C145 C143 1.400 . S
C145 C144 1.387 . S
N146 Co137 2.022 . S
N146 C143 1.351 . S
N146 N147 1.365 . S
N147 C144 1.341 . S
N147 N146 1.365 . S
N147 H167 0.862 . S
C148 C143 1.501 . S
C148 H149 0.961 . S
C148 H150 0.961 . S
C148 H151 0.960 . S
H149 C148 0.961 . S
H150 C148 0.961 . S
H151 C148 0.960 . S
C152 N153 1.342 . S
C152 C156 1.401 . S
C152 C157 1.499 1_545 S
N153 Co136 1.989 . S
N153 C152 1.342 . S
N153 N154 1.388 . S
N154 Co137 1.993 . S
N154 N153 1.388 . S
N154 C155 1.346 . S
C155 N154 1.346 . S
C155 C156 1.396 . S
C155 C165 1.510 . S
C156 C152 1.401 . S
C156 C155 1.396 . S
C157 C152 1.499 1_565 S
C157 H158 0.959 . S
C157 H159 0.960 . S
C157 H160 0.961 1_565 S
H158 C157 0.959 . S
H159 C157 0.960 . S
H160 C157 0.961 1_545 S
O161 Co136 1.967 . S
O161 C169 1.258 . S
O162 Co137 1.941 . S
O162 C169 1.266 . S
H163 C165 0.959 . S
H164 C165 0.961 . S
C165 C155 1.510 . S
C165 H163 0.959 . S
C165 H164 0.961 . S
C165 H166 0.960 . S
H166 C165 0.960 . S
H167 N147 0.862 . S
O168 Co136 1.920 1_566 S
O168 C141 1.289 . S
C169 O161 1.258 . S
C169 O162 1.266 . S
Co170 O173 1.970 1_455 S
Co170 N187 1.989 . S
Co170 O195 1.967 . S
Co170 O202 1.920 1_456 S
Co171 O174 1.966 . S
Co171 N180 2.022 . S
Co171 N188 1.993 . S
Co171 O196 1.941 . S
C172 O173 1.258 1_455 S
C172 O174 1.263 . S
O173 Co170 1.970 1_655 S
O173 C172 1.258 1_655 S
O174 Co171 1.966 . S
O174 C172 1.263 . S
C175 O176 1.235 1_554 S
C175 O202 1.289 . S
O176 C175 1.235 1_556 S
C177 C179 1.400 . S
C177 N180 1.351 . S
C177 C182 1.501 . S
C178 C179 1.387 . S
C178 N181 1.341 . S
C179 C177 1.400 . S
C179 C178 1.387 . S
N180 Co171 2.022 . S
N180 C177 1.351 . S
N180 N181 1.365 . S
N181 C178 1.341 . S
N181 N180 1.365 . S
N181 H201 0.862 . S
C182 C177 1.501 . S
C182 H183 0.961 . S
C182 H184 0.961 . S
C182 H185 0.960 . S
H183 C182 0.961 . S
H184 C182 0.961 . S
H185 C182 0.960 . S
C186 N187 1.342 . S
C186 C190 1.401 . S
C186 C191 1.499 1_455 S
N187 Co170 1.989 . S
N187 C186 1.342 . S
N187 N188 1.388 . S
N188 Co171 1.993 . S
N188 N187 1.388 . S
N188 C189 1.346 . S
C189 N188 1.346 . S
C189 C190 1.396 . S
C189 C199 1.510 . S
C190 C186 1.401 . S
C190 C189 1.396 . S
C191 C186 1.499 1_655 S
C191 H192 0.959 . S
C191 H193 0.960 . S
C191 H194 0.961 1_655 S
H192 C191 0.959 . S
H193 C191 0.960 . S
H194 C191 0.961 1_455 S
O195 Co170 1.967 . S
O195 C203 1.258 . S
O196 Co171 1.941 . S
O196 C203 1.266 . S
H197 C199 0.959 . S
H198 C199 0.961 . S
C199 C189 1.510 . S
C199 H197 0.959 . S
C199 H198 0.961 . S
C199 H200 0.960 . S
H200 C199 0.960 . S
H201 N181 0.862 . S
O202 Co170 1.920 1_654 S
O202 C175 1.289 . S
C203 O195 1.258 . S
C203 O196 1.266 . S
Co204 O207 1.970 1_565 S
Co204 N221 1.989 . S
Co204 O229 1.967 . S
Co204 O236 1.920 1_564 S
Co205 O208 1.966 . S
Co205 N214 2.022 . S
Co205 N222 1.993 . S
Co205 O230 1.941 . S
C206 O207 1.258 1_565 S
C206 O208 1.263 . S
O207 Co204 1.970 1_545 S
O207 C206 1.258 1_545 S
O208 Co205 1.966 . S
O208 C206 1.263 . S
C209 O210 1.235 1_556 S
C209 O236 1.289 . S
O210 C209 1.235 1_554 S
C211 C213 1.400 . S
C211 N214 1.351 . S
C211 C216 1.501 . S
C212 C213 1.387 . S
C212 N215 1.341 . S
C213 C211 1.400 . S
C213 C212 1.387 . S
N214 Co205 2.022 . S
N214 C211 1.351 . S
N214 N215 1.365 . S
N215 C212 1.341 . S
N215 N214 1.365 . S
N215 H235 0.862 . S
C216 C211 1.501 . S
C216 H217 0.961 . S
C216 H218 0.961 . S
C216 H219 0.960 . S
H217 C216 0.961 . S
H218 C216 0.961 . S
H219 C216 0.960 . S
C220 N221 1.342 . S
C220 C224 1.401 . S
C220 C225 1.499 1_565 S
N221 Co204 1.989 . S
N221 C220 1.342 . S
N221 N222 1.388 . S
N222 Co205 1.993 . S
N222 N221 1.388 . S
N222 C223 1.346 . S
C223 N222 1.346 . S
C223 C224 1.396 . S
C223 C233 1.510 . S
C224 C220 1.401 . S
C224 C223 1.396 . S
C225 C220 1.499 1_545 S
C225 H226 0.959 . S
C225 H227 0.960 . S
C225 H228 0.961 1_545 S
H226 C225 0.959 . S
H227 C225 0.960 . S
H228 C225 0.961 1_565 S
O229 Co204 1.967 . S
O229 C237 1.258 . S
O230 Co205 1.941 . S
O230 C237 1.266 . S
H231 C233 0.959 . S
H232 C233 0.961 . S
C233 C223 1.510 . S
C233 H231 0.959 . S
C233 H232 0.961 . S
C233 H234 0.960 . S
H234 C233 0.960 . S
H235 N215 0.862 . S
O236 Co204 1.920 1_546 S
O236 C209 1.289 . S
C237 O229 1.258 . S
C237 O230 1.266 . S
Co238 O241 1.970 1_655 S
Co238 N255 1.989 . S
Co238 O263 1.967 . S
Co238 O270 1.920 1_656 S
Co239 O242 1.966 . S
Co239 N248 2.022 . S
Co239 N256 1.993 . S
Co239 O264 1.941 . S
C240 O241 1.258 1_655 S
C240 O242 1.263 . S
O241 Co238 1.970 1_455 S
O241 C240 1.258 1_455 S
O242 Co239 1.966 . S
O242 C240 1.263 . S
C243 O244 1.235 1_554 S
C243 O270 1.289 . S
O244 C243 1.235 1_556 S
C245 C247 1.400 . S
C245 N248 1.351 . S
C245 C250 1.501 . S
C246 C247 1.387 . S
C246 N249 1.341 . S
C247 C245 1.400 . S
C247 C246 1.387 . S
N248 Co239 2.022 . S
N248 C245 1.351 . S
N248 N249 1.365 . S
N249 C246 1.341 . S
N249 N248 1.365 . S
N249 H269 0.862 . S
C250 C245 1.501 . S
C250 H251 0.961 . S
C250 H252 0.961 . S
C250 H253 0.960 . S
H251 C250 0.961 . S
H252 C250 0.961 . S
H253 C250 0.960 . S
C254 N255 1.342 . S
C254 C258 1.401 . S
C254 C259 1.499 1_655 S
N255 Co238 1.989 . S
N255 C254 1.342 . S
N255 N256 1.388 . S
N256 Co239 1.993 . S
N256 N255 1.388 . S
N256 C257 1.346 . S
C257 N256 1.346 . S
C257 C258 1.396 . S
C257 C267 1.510 . S
C258 C254 1.401 . S
C258 C257 1.396 . S
C259 C254 1.499 1_455 S
C259 H260 0.959 . S
C259 H261 0.960 . S
C259 H262 0.961 1_455 S
H260 C259 0.959 . S
H261 C259 0.960 . S
H262 C259 0.961 1_655 S
O263 Co238 1.967 . S
O263 C271 1.258 . S
O264 Co239 1.941 . S
O264 C271 1.266 . S
H265 C267 0.959 . S
H266 C267 0.961 . S
C267 C257 1.510 . S
C267 H265 0.959 . S
C267 H266 0.961 . S
C267 H268 0.960 . S
H268 C267 0.960 . S
H269 N249 0.862 . S
O270 Co238 1.920 1_454 S
O270 C243 1.289 . S
C271 O263 1.258 . S
C271 O264 1.266 . S
C5 C67 1.063 . S
C101 C39 1.063 . S
C73 C135 1.063 . S
C33 C107 1.063 . S
C271 C141 1.063 . S
C169 C175 1.063 . S
C203 C209 1.063 . S
C243 C237 1.063 . S
C88 C20 1.956 1_565 S
C54 C122 1.956 1_455 S
C156 C224 1.957 1_545 S
C190 C258 1.957 1_455 S
C2 C70 1.705 1_445 S
C36 C104 1.705 1_465 S
C206 C138 1.705 1_465 S
C240 C172 1.705 1_665 S
C9 C179 2.275 . S
C213 C43 2.275 . S
C247 C77 2.275 . S
C111 C145 2.275 . S
