# Generated by pormake.
# Topology unw, (4)-cn, num edge types: 1
# Building blocks:
#     Node 0, Type 0, BuildingBlock: NAWXER_clean_sbu_0, # of connection points: 4
#     Node 1, Type 0, BuildingBlock: NAWXER_clean_sbu_0, # of connection points: 4
#     Node 2, Type 0, BuildingBlock: NAWXER_clean_sbu_0, # of connection points: 4
#     Node 3, Type 0, BuildingBlock: NAWXER_clean_sbu_0, # of connection points: 4
#     Node 4, Type 0, BuildingBlock: NAWXER_clean_sbu_0, # of connection points: 4
#     Node 5, Type 0, BuildingBlock: NAWXER_clean_sbu_0, # of connection points: 4
#     Node 6, Type 0, BuildingBlock: NAWXER_clean_sbu_0, # of connection points: 4
#     Node 7, Type 0, BuildingBlock: NAWXER_clean_sbu_0, # of connection points: 4
#     Node 8, Type 0, BuildingBlock: NAWXER_clean_sbu_0, # of connection points: 4
#     Node 9, Type 0, BuildingBlock: NAWXER_clean_sbu_0, # of connection points: 4
#     Node 10, Type 0, BuildingBlock: NAWXER_clean_sbu_0, # of connection points: 4
#     Node 11, Type 0, BuildingBlock: NAWXER_clean_sbu_0, # of connection points: 4
#     Node 12, Type 0, BuildingBlock: NAWXER_clean_sbu_0, # of connection points: 4
#     Node 13, Type 0, BuildingBlock: NAWXER_clean_sbu_0, # of connection points: 4
#     Node 14, Type 0, BuildingBlock: NAWXER_clean_sbu_0, # of connection points: 4
#     Node 15, Type 0, BuildingBlock: NAWXER_clean_sbu_0, # of connection points: 4
#     Node 16, Type 0, BuildingBlock: NAWXER_clean_sbu_0, # of connection points: 4
#     Node 17, Type 0, BuildingBlock: NAWXER_clean_sbu_0, # of connection points: 4
#     Node 18, Type 0, BuildingBlock: NAWXER_clean_sbu_0, # of connection points: 4
#     Node 19, Type 0, BuildingBlock: NAWXER_clean_sbu_0, # of connection points: 4
#     Node 20, Type 0, BuildingBlock: NAWXER_clean_sbu_0, # of connection points: 4
#     Node 21, Type 0, BuildingBlock: NAWXER_clean_sbu_0, # of connection points: 4
#     Node 22, Type 0, BuildingBlock: NAWXER_clean_sbu_0, # of connection points: 4
#     Node 23, Type 0, BuildingBlock: NAWXER_clean_sbu_0, # of connection points: 4
#     Edge 24, Type (0, 0), BuildingBlock: MIFKUJ_clean_linker_0, # of connection points: 2
#     Edge 25, Type (0, 0), BuildingBlock: MIFKUJ_clean_linker_0, # of connection points: 2
#     Edge 26, Type (0, 0), BuildingBlock: MIFKUJ_clean_linker_0, # of connection points: 2
#     Edge 27, Type (0, 0), BuildingBlock: MIFKUJ_clean_linker_0, # of connection points: 2
#     Edge 28, Type (0, 0), BuildingBlock: MIFKUJ_clean_linker_0, # of connection points: 2
#     Edge 29, Type (0, 0), BuildingBlock: MIFKUJ_clean_linker_0, # of connection points: 2
#     Edge 30, Type (0, 0), BuildingBlock: MIFKUJ_clean_linker_0, # of connection points: 2
#     Edge 31, Type (0, 0), BuildingBlock: MIFKUJ_clean_linker_0, # of connection points: 2
#     Edge 32, Type (0, 0), BuildingBlock: MIFKUJ_clean_linker_0, # of connection points: 2
#     Edge 33, Type (0, 0), BuildingBlock: MIFKUJ_clean_linker_0, # of connection points: 2
#     Edge 34, Type (0, 0), BuildingBlock: MIFKUJ_clean_linker_0, # of connection points: 2
#     Edge 35, Type (0, 0), BuildingBlock: MIFKUJ_clean_linker_0, # of connection points: 2
#     Edge 36, Type (0, 0), BuildingBlock: MIFKUJ_clean_linker_0, # of connection points: 2
#     Edge 37, Type (0, 0), BuildingBlock: MIFKUJ_clean_linker_0, # of connection points: 2
#     Edge 38, Type (0, 0), BuildingBlock: MIFKUJ_clean_linker_0, # of connection points: 2
#     Edge 39, Type (0, 0), BuildingBlock: MIFKUJ_clean_linker_0, # of connection points: 2
#     Edge 40, Type (0, 0), BuildingBlock: MIFKUJ_clean_linker_0, # of connection points: 2
#     Edge 41, Type (0, 0), BuildingBlock: MIFKUJ_clean_linker_0, # of connection points: 2
#     Edge 42, Type (0, 0), BuildingBlock: MIFKUJ_clean_linker_0, # of connection points: 2
#     Edge 43, Type (0, 0), BuildingBlock: MIFKUJ_clean_linker_0, # of connection points: 2
#     Edge 44, Type (0, 0), BuildingBlock: MIFKUJ_clean_linker_0, # of connection points: 2
#     Edge 45, Type (0, 0), BuildingBlock: MIFKUJ_clean_linker_0, # of connection points: 2
#     Edge 46, Type (0, 0), BuildingBlock: MIFKUJ_clean_linker_0, # of connection points: 2
#     Edge 47, Type (0, 0), BuildingBlock: MIFKUJ_clean_linker_0, # of connection points: 2
#     Edge 48, Type (0, 0), BuildingBlock: MIFKUJ_clean_linker_0, # of connection points: 2
#     Edge 49, Type (0, 0), BuildingBlock: MIFKUJ_clean_linker_0, # of connection points: 2
#     Edge 50, Type (0, 0), BuildingBlock: MIFKUJ_clean_linker_0, # of connection points: 2
#     Edge 51, Type (0, 0), BuildingBlock: MIFKUJ_clean_linker_0, # of connection points: 2
#     Edge 52, Type (0, 0), BuildingBlock: MIFKUJ_clean_linker_0, # of connection points: 2
#     Edge 53, Type (0, 0), BuildingBlock: MIFKUJ_clean_linker_0, # of connection points: 2
#     Edge 54, Type (0, 0), BuildingBlock: MIFKUJ_clean_linker_0, # of connection points: 2
#     Edge 55, Type (0, 0), BuildingBlock: MIFKUJ_clean_linker_0, # of connection points: 2
#     Edge 56, Type (0, 0), BuildingBlock: MIFKUJ_clean_linker_0, # of connection points: 2
#     Edge 57, Type (0, 0), BuildingBlock: MIFKUJ_clean_linker_0, # of connection points: 2
#     Edge 58, Type (0, 0), BuildingBlock: MIFKUJ_clean_linker_0, # of connection points: 2
#     Edge 59, Type (0, 0), BuildingBlock: MIFKUJ_clean_linker_0, # of connection points: 2
#     Edge 60, Type (0, 0), BuildingBlock: MIFKUJ_clean_linker_0, # of connection points: 2
#     Edge 61, Type (0, 0), BuildingBlock: MIFKUJ_clean_linker_0, # of connection points: 2
#     Edge 62, Type (0, 0), BuildingBlock: MIFKUJ_clean_linker_0, # of connection points: 2
#     Edge 63, Type (0, 0), BuildingBlock: MIFKUJ_clean_linker_0, # of connection points: 2
#     Edge 64, Type (0, 0), BuildingBlock: MIFKUJ_clean_linker_0, # of connection points: 2
#     Edge 65, Type (0, 0), BuildingBlock: MIFKUJ_clean_linker_0, # of connection points: 2
#     Edge 66, Type (0, 0), BuildingBlock: MIFKUJ_clean_linker_0, # of connection points: 2
#     Edge 67, Type (0, 0), BuildingBlock: MIFKUJ_clean_linker_0, # of connection points: 2
#     Edge 68, Type (0, 0), BuildingBlock: MIFKUJ_clean_linker_0, # of connection points: 2
#     Edge 69, Type (0, 0), BuildingBlock: MIFKUJ_clean_linker_0, # of connection points: 2
#     Edge 70, Type (0, 0), BuildingBlock: MIFKUJ_clean_linker_0, # of connection points: 2
#     Edge 71, Type (0, 0), BuildingBlock: MIFKUJ_clean_linker_0, # of connection points: 2
# Relax obj value: 0.404
# Max RMSD: 0.268
# Mean RMSD: 0.268
data_MOF--net-unw--node1-NAWXER_clean_sbu_0--edge1-MIFKUJ_clean_linker_0
_symmetry_space_group_name_H-M    P1
_symmetry_Int_Tables_number       1
_symmetry_cell_setting            triclinic
loop_
_symmetry_equiv_pos_as_xyz
'x, y, z'
_cell_length_a     60.677188
_cell_length_b     60.516434
_cell_length_c     60.735244
_cell_angle_alpha  89.994557
_cell_angle_beta   90.016169
_cell_angle_gamma 89.913331
loop_
_atom_site_label
_atom_site_type_symbol
_atom_site_fract_x
_atom_site_fract_y
_atom_site_fract_z
_atom_type_partial_charge
C0 C 0.18274 0.39835 0.26725 0.0
C1 C 0.10492 0.39945 0.28978 0.0
O2 O 0.16915 0.39326 0.252 0.0
Zn3 Zn 0.13459 0.39005 0.24678 0.0
O4 O 0.1756 0.40516 0.28579 0.0
Zn5 Zn 0.14419 0.40307 0.27816 0.0
O6 O 0.1441 0.36792 0.27543 0.0
O7 O 0.13574 0.35803 0.24141 0.0
O8 O 0.1212 0.40759 0.30016 0.0
O9 O 0.1077 0.39288 0.26986 0.0
O10 O 0.12987 0.41108 0.22286 0.0
O11 O 0.14061 0.428 0.25312 0.0
C12 C 0.14146 0.35283 0.26096 0.0
C13 C 0.13544 0.4288 0.23263 0.0
C14 C 0.63372 0.18262 0.26349 0.0
C15 C 0.62934 0.10505 0.28913 0.0
O16 O 0.63954 0.16774 0.24986 0.0
Zn17 Zn 0.64269 0.13351 0.24636 0.0
O18 O 0.62519 0.17715 0.28195 0.0
Zn19 Zn 0.62637 0.14474 0.27693 0.0
O20 O 0.66075 0.14377 0.27776 0.0
O21 O 0.67577 0.13471 0.24593 0.0
O22 O 0.62012 0.12135 0.29876 0.0
O23 O 0.6374 0.10785 0.26981 0.0
O24 O 0.62237 0.12876 0.22113 0.0
O25 O 0.60437 0.14083 0.25023 0.0
C26 C 0.67788 0.1407 0.26604 0.0
C27 C 0.60437 0.13522 0.2299 0.0
C28 C 0.9239 0.63518 0.30124 0.0
C29 C 0.84771 0.63632 0.27086 0.0
O30 O 0.92199 0.64174 0.28128 0.0
Zn31 Zn 0.8978 0.64534 0.25642 0.0
O32 O 0.9071 0.62717 0.31099 0.0
Zn33 Zn 0.88469 0.63209 0.2876 0.0
O34 O 0.89028 0.60753 0.2629 0.0
O35 O 0.90384 0.6234 0.2332 0.0
O36 O 0.85166 0.62984 0.29053 0.0
O37 O 0.86371 0.6417 0.2584 0.0
O38 O 0.89725 0.67773 0.25212 0.0
O39 O 0.88578 0.66702 0.285 0.0
C40 C 0.89689 0.60607 0.2429 0.0
C41 C 0.89012 0.68247 0.27133 0.0
C42 C 0.34786 0.88888 0.26455 0.0
C43 C 0.4229 0.89681 0.23453 0.0
O44 O 0.3634 0.88659 0.27858 0.0
Zn45 Zn 0.39837 0.8876 0.28067 0.0
O46 O 0.35227 0.89478 0.24486 0.0
Zn47 Zn 0.38433 0.89724 0.24918 0.0
O48 O 0.38954 0.86312 0.25401 0.0
O49 O 0.40203 0.85569 0.2874 0.0
O50 O 0.40512 0.90268 0.22501 0.0
O51 O 0.42229 0.89158 0.255 0.0
O52 O 0.40287 0.91148 0.30223 0.0
O53 O 0.38671 0.92377 0.27213 0.0
C54 C 0.39563 0.84908 0.26848 0.0
C55 C 0.3937 0.92724 0.29176 0.0
C56 C 0.13363 0.69595 0.77846 0.0
C57 C 0.13667 0.61667 0.79638 0.0
O58 O 0.1423 0.68365 0.7637 0.0
Zn59 Zn 0.1495 0.64996 0.75703 0.0
O60 O 0.1255 0.68739 0.79583 0.0
Zn61 Zn 0.13191 0.65657 0.78729 0.0
O62 O 0.16699 0.65872 0.78893 0.0
O63 O 0.18195 0.65275 0.75635 0.0
O64 O 0.12612 0.63152 0.80683 0.0
O65 O 0.14548 0.62155 0.77779 0.0
O66 O 0.13163 0.64559 0.73041 0.0
O67 O 0.11082 0.65268 0.75929 0.0
C68 C 0.18414 0.65745 0.77671 0.0
C69 C 0.1126 0.64906 0.73856 0.0
C70 C 0.34216 0.13652 0.77832 0.0
C71 C 0.42092 0.13809 0.79716 0.0
O72 O 0.35491 0.14191 0.76249 0.0
Zn73 Zn 0.38897 0.14633 0.75559 0.0
O74 O 0.35027 0.13014 0.79662 0.0
Zn75 Zn 0.38119 0.1332 0.78744 0.0
O76 O 0.37976 0.16832 0.78457 0.0
O77 O 0.3861 0.1783 0.75017 0.0
O78 O 0.40535 0.12955 0.80828 0.0
O79 O 0.41706 0.14448 0.77735 0.0
O80 O 0.39287 0.12525 0.73151 0.0
O81 O 0.38394 0.10827 0.76231 0.0
C82 C 0.38097 0.18341 0.7699 0.0
C83 C 0.38799 0.10748 0.74158 0.0
C84 C 0.8931 0.34486 0.7582 0.0
C85 C 0.8924 0.42207 0.78441 0.0
O86 O 0.88781 0.35939 0.74393 0.0
Zn87 Zn 0.88364 0.39383 0.74044 0.0
O88 O 0.89943 0.35082 0.77735 0.0
Zn89 Zn 0.89693 0.38288 0.77184 0.0
O90 O 0.86222 0.38241 0.7693 0.0
O91 O 0.85136 0.39211 0.73593 0.0
O92 O 0.90075 0.40565 0.79455 0.0
O93 O 0.88611 0.41959 0.76439 0.0
O94 O 0.90514 0.39976 0.71695 0.0
O95 O 0.92147 0.38782 0.74709 0.0
C96 C 0.84681 0.38546 0.75535 0.0
C97 C 0.92267 0.39378 0.72686 0.0
C98 C 0.64319 0.91811 0.7291 0.0
C99 C 0.64685 0.83947 0.75092 0.0
O100 O 0.65027 0.91453 0.74867 0.0
Zn101 Zn 0.65412 0.88781 0.77119 0.0
O102 O 0.63459 0.90221 0.71837 0.0
Zn103 Zn 0.64027 0.878 0.7395 0.0
O104 O 0.61643 0.87989 0.76524 0.0
O105 O 0.63272 0.89175 0.7954 0.0
O106 O 0.63956 0.84608 0.73231 0.0
O107 O 0.65174 0.85348 0.76581 0.0
O108 O 0.68665 0.88722 0.77461 0.0
O109 O 0.67498 0.87926 0.74104 0.0
C110 C 0.61539 0.8849 0.78573 0.0
C111 C 0.69077 0.88218 0.75459 0.0
C112 C 0.27285 0.20287 0.3754 0.0
C113 C 0.29998 0.12609 0.37952 0.0
O114 O 0.25869 0.18792 0.37096 0.0
Zn115 Zn 0.25552 0.15312 0.36902 0.0
O116 O 0.29209 0.19749 0.38204 0.0
Zn117 Zn 0.28681 0.16527 0.38152 0.0
O118 O 0.28402 0.16301 0.34683 0.0
O119 O 0.2506 0.15236 0.33687 0.0
O120 O 0.30977 0.143 0.38726 0.0
O121 O 0.28001 0.12802 0.37286 0.0
O122 O 0.23229 0.14777 0.39095 0.0
O123 O 0.26206 0.1618 0.40623 0.0
C124 C 0.27002 0.15861 0.33176 0.0
C125 C 0.24201 0.15537 0.40791 0.0
C126 C 0.91688 0.29688 0.38976 0.0
C127 C 0.84637 0.25584 0.38527 0.0
O128 O 0.91879 0.27631 0.38508 0.0
Zn129 Zn 0.89857 0.24786 0.38151 0.0
O130 O 0.89807 0.30447 0.3953 0.0
Zn131 Zn 0.88029 0.27749 0.39159 0.0
O132 O 0.88779 0.25553 0.4182 0.0
O133 O 0.90602 0.22687 0.40503 0.0
O134 O 0.84735 0.27611 0.39114 0.0
O135 O 0.86419 0.24508 0.38223 0.0
O136 O 0.90125 0.24161 0.34958 0.0
O137 O 0.88411 0.27294 0.35736 0.0
C138 C 0.89697 0.23666 0.42126 0.0
C139 C 0.89149 0.25921 0.34323 0.0
C140 C 0.789 0.88296 0.40756 0.0
C141 C 0.75465 0.87051 0.33451 0.0
O142 O 0.76876 0.87697 0.40801 0.0
Zn143 Zn 0.74229 0.87078 0.38586 0.0
O144 O 0.79762 0.88823 0.38915 0.0
Zn145 Zn 0.77259 0.88134 0.36946 0.0
O146 O 0.74854 0.907 0.37242 0.0
O147 O 0.71992 0.89407 0.39059 0.0
O148 O 0.77437 0.87745 0.33705 0.0
O149 O 0.74202 0.86848 0.35117 0.0
O150 O 0.73793 0.83857 0.39046 0.0
O151 O 0.77 0.84735 0.37563 0.0
C152 C 0.72918 0.90994 0.38038 0.0
C153 C 0.75673 0.83279 0.3829 0.0
C154 C 0.2007 0.75325 0.38012 0.0
C155 C 0.1249 0.72361 0.3865 0.0
O156 O 0.18509 0.76651 0.37522 0.0
Zn157 Zn 0.15035 0.76824 0.37347 0.0
O158 O 0.19635 0.73399 0.38754 0.0
Zn159 Zn 0.16387 0.73766 0.38701 0.0
O160 O 0.16164 0.73883 0.35239 0.0
O161 O 0.14934 0.77128 0.34104 0.0
O162 O 0.14226 0.71428 0.39382 0.0
O163 O 0.12622 0.7434 0.37909 0.0
O164 O 0.14466 0.79234 0.39468 0.0
O165 O 0.15973 0.76334 0.41068 0.0
C166 C 0.15663 0.75194 0.33673 0.0
C167 C 0.15279 0.78333 0.41183 0.0
C168 C 0.25243 0.84396 0.65359 0.0
C169 C 0.28868 0.91607 0.64416 0.0
O170 O 0.23931 0.86049 0.65266 0.0
Zn171 Zn 0.24004 0.89551 0.64863 0.0
O172 O 0.27293 0.84663 0.64971 0.0
Zn173 Zn 0.27108 0.87862 0.64421 0.0
O174 O 0.26227 0.88647 0.67706 0.0
O175 O 0.22924 0.90199 0.67862 0.0
O176 O 0.29734 0.89724 0.64056 0.0
O177 O 0.26774 0.91735 0.64676 0.0
O178 O 0.22184 0.89963 0.62225 0.0
O179 O 0.25145 0.87992 0.61486 0.0
C180 C 0.24641 0.89455 0.68827 0.0
C181 C 0.23294 0.88813 0.60866 0.0
C182 C 0.14546 0.24004 0.60709 0.0
C183 C 0.13412 0.25719 0.68559 0.0
O184 O 0.15403 0.25841 0.61323 0.0
Zn185 Zn 0.15516 0.27874 0.6421 0.0
O186 O 0.13334 0.22943 0.62052 0.0
Zn187 Zn 0.13652 0.24843 0.64643 0.0
O188 O 0.1164 0.27682 0.64097 0.0
O189 O 0.13784 0.30579 0.63645 0.0
O190 O 0.12665 0.23986 0.67622 0.0
O191 O 0.14419 0.27185 0.67435 0.0
O192 O 0.18699 0.2785 0.64956 0.0
O193 O 0.17087 0.24609 0.65336 0.0
C194 C 0.11854 0.29766 0.63798 0.0
C195 C 0.18813 0.25812 0.65487 0.0
C196 C 0.76537 0.1541 0.69029 0.0
C197 C 0.79771 0.1466 0.61605 0.0
O198 O 0.75194 0.15697 0.67434 0.0
Zn199 Zn 0.75115 0.15659 0.6393 0.0
O200 O 0.78509 0.14777 0.68647 0.0
Zn201 Zn 0.78184 0.14604 0.65422 0.0
O202 O 0.77798 0.18046 0.65014 0.0
O203 O 0.74519 0.18865 0.63648 0.0
O204 O 0.8066 0.14055 0.63406 0.0
O205 O 0.77733 0.15229 0.61605 0.0
O206 O 0.72907 0.13347 0.63375 0.0
O207 O 0.75818 0.12004 0.65083 0.0
C208 C 0.76384 0.19481 0.64402 0.0
C209 C 0.73868 0.11729 0.64314 0.0
C210 C 0.88214 0.76698 0.67856 0.0
C211 C 0.88941 0.79306 0.6018 0.0
O212 O 0.8793 0.7523 0.66371 0.0
Zn213 Zn 0.87991 0.74842 0.629 0.0
O214 O 0.88845 0.78633 0.67312 0.0
Zn215 Zn 0.89013 0.78047 0.64112 0.0
O216 O 0.85575 0.77603 0.63666 0.0
O217 O 0.84817 0.74192 0.62598 0.0
O218 O 0.89554 0.80354 0.61893 0.0
O219 O 0.88398 0.77267 0.60365 0.0
O220 O 0.90305 0.72602 0.62556 0.0
O221 O 0.91643 0.75689 0.63929 0.0
C222 C 0.8417 0.76126 0.63138 0.0
C223 C 0.91927 0.73669 0.63349 0.0
C224 C 0.39475 0.27572 0.1834 0.0
C225 C 0.38524 0.29457 0.10511 0.0
O226 O 0.38603 0.26082 0.1714 0.0
Zn227 Zn 0.37618 0.2545 0.13872 0.0
O228 O 0.40164 0.29366 0.17475 0.0
Zn229 Zn 0.39361 0.28522 0.14444 0.0
O230 O 0.35914 0.28635 0.15045 0.0
O231 O 0.34428 0.25336 0.1462 0.0
O232 O 0.39664 0.30507 0.11923 0.0
O233 O 0.37715 0.2757 0.11039 0.0
O234 O 0.39455 0.22826 0.13273 0.0
O235 O 0.41497 0.25755 0.13938 0.0
C236 C 0.34238 0.27365 0.15169 0.0
C237 C 0.41354 0.23675 0.13563 0.0
C238 C 0.33885 0.78112 0.89143 0.0
C239 C 0.41803 0.79844 0.88529 0.0
O240 O 0.35106 0.76615 0.88312 0.0
Zn241 Zn 0.38394 0.75919 0.87479 0.0
O242 O 0.34744 0.7988 0.89905 0.0
Zn243 Zn 0.37816 0.7899 0.89244 0.0
O244 O 0.37373 0.79165 0.85775 0.0
O245 O 0.3776 0.75862 0.84277 0.0
O246 O 0.40398 0.80895 0.89683 0.0
O247 O 0.41248 0.77988 0.87672 0.0
O248 O 0.38837 0.7326 0.89311 0.0
O249 O 0.38132 0.76184 0.9135 0.0
C250 C 0.37287 0.77912 0.84085 0.0
C251 C 0.38451 0.74095 0.91198 0.0
C252 C 0.22692 0.41502 0.88318 0.0
C253 C 0.25035 0.33683 0.88131 0.0
O254 O 0.2464 0.41172 0.87567 0.0
Zn255 Zn 0.26928 0.38526 0.87161 0.0
O256 O 0.21661 0.39899 0.89203 0.0
Zn257 Zn 0.23817 0.37529 0.88641 0.0
O258 O 0.26436 0.379 0.90962 0.0
O259 O 0.29404 0.39003 0.89187 0.0
O260 O 0.23177 0.34326 0.88886 0.0
O261 O 0.26473 0.35097 0.87536 0.0
O262 O 0.2722 0.38409 0.83928 0.0
O263 O 0.23899 0.37549 0.85157 0.0
C264 C 0.28484 0.38421 0.9098 0.0
C265 C 0.2523 0.37839 0.83557 0.0
C266 C 0.68989 0.27064 0.88415 0.0
C267 C 0.61609 0.23682 0.88959 0.0
O268 O 0.67369 0.28405 0.88249 0.0
Zn269 Zn 0.6386 0.28434 0.883 0.0
O270 O 0.68638 0.25042 0.88904 0.0
Zn271 Zn 0.65406 0.25317 0.89123 0.0
O272 O 0.64998 0.25947 0.85728 0.0
O273 O 0.63565 0.29257 0.8516 0.0
O274 O 0.63427 0.22776 0.89493 0.0
O275 O 0.61576 0.25759 0.88542 0.0
O276 O 0.63299 0.30483 0.90751 0.0
O277 O 0.65071 0.27512 0.91877 0.0
C278 C 0.64366 0.27458 0.84406 0.0
C279 C 0.6428 0.29438 0.92285 0.0
C280 C 0.76683 0.69356 0.87688 0.0
C281 C 0.79182 0.6162 0.87811 0.0
O282 O 0.75178 0.67926 0.87319 0.0
Zn283 Zn 0.74745 0.64437 0.87083 0.0
O284 O 0.78618 0.68727 0.88224 0.0
Zn285 Zn 0.7793 0.65553 0.88146 0.0
O286 O 0.77429 0.65446 0.84673 0.0
O287 O 0.73996 0.64477 0.83927 0.0
O288 O 0.80205 0.63296 0.8855 0.0
O289 O 0.77152 0.61832 0.87252 0.0
O290 O 0.7252 0.63921 0.89368 0.0
O291 O 0.75571 0.65286 0.90776 0.0
C292 C 0.75895 0.651 0.83273 0.0
C293 C 0.73561 0.64677 0.91023 0.0
C294 C 0.67936 0.74961 0.15152 0.0
C295 C 0.61147 0.79333 0.13844 0.0
O296 O 0.66116 0.73907 0.15089 0.0
Zn297 Zn 0.62698 0.74322 0.14604 0.0
O298 O 0.67963 0.77015 0.14668 0.0
Zn299 Zn 0.6474 0.77263 0.14095 0.0
O300 O 0.63793 0.76622 0.17364 0.0
O301 O 0.61894 0.7352 0.1767 0.0
O302 O 0.63109 0.80047 0.13621 0.0
O303 O 0.60831 0.77262 0.14145 0.0
O304 O 0.62235 0.72431 0.12004 0.0
O305 O 0.64422 0.75231 0.11239 0.0
C306 C 0.62795 0.75207 0.18555 0.0
C307 C 0.63485 0.73429 0.10644 0.0
C308 C 0.27088 0.62924 0.18344 0.0
C309 C 0.29129 0.64014 0.10524 0.0
O310 O 0.2581 0.6413 0.1719 0.0
Zn311 Zn 0.25357 0.65368 0.13986 0.0
O312 O 0.28721 0.61938 0.17443 0.0
Zn313 Zn 0.28099 0.63038 0.14416 0.0
O314 O 0.28764 0.66363 0.1522 0.0
O315 O 0.2585 0.68506 0.14815 0.0
O316 O 0.29984 0.6258 0.11801 0.0
O317 O 0.27417 0.6508 0.11163 0.0
O318 O 0.2247 0.64 0.13369 0.0
O319 O 0.25043 0.61462 0.138 0.0
C320 C 0.2785 0.68254 0.15425 0.0
C321 C 0.23017 0.61969 0.13495 0.0
C322 C 0.73767 0.38427 0.12035 0.0
C323 C 0.7648 0.38002 0.19708 0.0
O324 O 0.75761 0.37756 0.1225 0.0
Zn325 Zn 0.78189 0.37339 0.14756 0.0
O326 O 0.72776 0.39225 0.13706 0.0
Zn327 Zn 0.75063 0.38651 0.1596 0.0
O328 O 0.77573 0.4111 0.15609 0.0
O329 O 0.80545 0.3952 0.14259 0.0
O330 O 0.7456 0.38695 0.19189 0.0
O331 O 0.77873 0.37536 0.18205 0.0
O332 O 0.78601 0.3409 0.14664 0.0
O333 O 0.75278 0.35168 0.15717 0.0
C334 C 0.7959 0.41245 0.14992 0.0
C335 C 0.7664 0.33622 0.15268 0.0
H336 H 0.2347 0.57632 0.12383 0.0
H337 H 0.21233 0.54537 0.13699 0.0
H338 H 0.16704 0.5911 0.16717 0.0
H339 H 0.18894 0.62223 0.15331 0.0
H340 H 0.20023 0.54894 0.19144 0.0
H341 H 0.13757 0.57246 0.14447 0.0
H342 H 0.12217 0.58252 0.10822 0.0
H343 H 0.14442 0.52071 0.08146 0.0
H344 H 0.16025 0.51047 0.11751 0.0
H345 H 0.13708 0.47093 0.24891 0.0
H346 H 0.14726 0.5047 0.22936 0.0
H347 H 0.1527 0.46785 0.16879 0.0
H348 H 0.14153 0.43418 0.18815 0.0
H349 H 0.13819 0.50676 0.15893 0.0
H350 H 0.19849 0.48095 0.20225 0.0
H351 H 0.21781 0.4684 0.23573 0.0
H352 H 0.20568 0.53116 0.26644 0.0
H353 H 0.18597 0.54397 0.23325 0.0
C354 C 0.2195 0.57984 0.13252 0.0
C355 C 0.21356 0.6018 0.13742 0.0
C356 C 0.20679 0.5621 0.14012 0.0
C357 C 0.18797 0.56589 0.15299 0.0
C358 C 0.18132 0.58778 0.15699 0.0
C359 C 0.19381 0.60559 0.14897 0.0
C360 C 0.17727 0.54703 0.16456 0.0
C361 C 0.18634 0.53997 0.18461 0.0
C362 C 0.15987 0.53474 0.15514 0.0
C363 C 0.15035 0.54087 0.13356 0.0
C364 C 0.13942 0.56116 0.13078 0.0
C365 C 0.13055 0.56685 0.1103 0.0
C366 C 0.13239 0.5523 0.09253 0.0
C367 C 0.14305 0.53199 0.09522 0.0
C368 C 0.15196 0.52623 0.11567 0.0
C369 C 0.14007 0.47007 0.23135 0.0
C370 C 0.13858 0.44978 0.22015 0.0
C371 C 0.14608 0.48941 0.22017 0.0
C372 C 0.15139 0.48888 0.19762 0.0
C373 C 0.14883 0.46883 0.18618 0.0
C374 C 0.14241 0.44952 0.19729 0.0
C375 C 0.16072 0.50886 0.18634 0.0
C376 C 0.15174 0.51591 0.16614 0.0
C377 C 0.17862 0.52093 0.19541 0.0
C378 C 0.19054 0.51333 0.21536 0.0
C379 C 0.1998 0.49202 0.21621 0.0
C380 C 0.21084 0.48486 0.23512 0.0
C381 C 0.21291 0.49895 0.25323 0.0
C382 C 0.20401 0.52025 0.25242 0.0
C383 C 0.19292 0.52747 0.23356 0.0
H384 H 0.22147 0.49339 0.26786 0.0
H385 H 0.1255 0.55673 0.07669 0.0
H386 H 0.59734 0.1302 0.18495 0.0
H387 H 0.56465 0.14171 0.16391 0.0
H388 H 0.53307 0.16224 0.22418 0.0
H389 H 0.56479 0.14997 0.24507 0.0
H390 H 0.50321 0.14699 0.20058 0.0
H391 H 0.56163 0.19882 0.18685 0.0
H392 H 0.59849 0.21073 0.17456 0.0
H393 H 0.5847 0.18707 0.10934 0.0
H394 H 0.54783 0.17476 0.12135 0.0
H395 H 0.45563 0.25065 0.14334 0.0
H396 H 0.48732 0.22861 0.15422 0.0
H397 H 0.44968 0.16898 0.14457 0.0
H398 H 0.41737 0.19118 0.13437 0.0
H399 H 0.51379 0.19985 0.13913 0.0
H400 H 0.46488 0.13027 0.18237 0.0
H401 H 0.42868 0.12453 0.20003 0.0
H402 H 0.42452 0.19379 0.21489 0.0
H403 H 0.46079 0.19986 0.19759 0.0
C404 C 0.58324 0.13676 0.19371 0.0
C405 C 0.58389 0.1392 0.21676 0.0
C406 C 0.56458 0.14356 0.18163 0.0
C407 C 0.54632 0.15332 0.1923 0.0
C408 C 0.54672 0.15482 0.21537 0.0
C409 C 0.56509 0.1478 0.22737 0.0
C410 C 0.52719 0.16301 0.17984 0.0
C411 C 0.50561 0.15835 0.18698 0.0
C412 C 0.53 0.17826 0.16232 0.0
C413 C 0.55212 0.18562 0.15506 0.0
C414 C 0.56653 0.19602 0.16993 0.0
C415 C 0.58741 0.20286 0.16301 0.0
C416 C 0.59396 0.19959 0.1412 0.0
C417 C 0.57962 0.18953 0.12624 0.0
C418 C 0.55874 0.18262 0.13309 0.0
C419 C 0.45404 0.23282 0.1432 0.0
C420 C 0.43373 0.22277 0.13813 0.0
C421 C 0.47234 0.22016 0.14941 0.0
C422 C 0.47099 0.19703 0.15067 0.0
C423 C 0.45114 0.1868 0.14423 0.0
C424 C 0.43267 0.19953 0.13818 0.0
C425 C 0.4899 0.18407 0.16012 0.0
C426 C 0.5114 0.18811 0.15242 0.0
C427 C 0.48711 0.16906 0.17783 0.0
C428 C 0.46538 0.16553 0.18841 0.0
C429 C 0.45624 0.14424 0.18944 0.0
C430 C 0.43572 0.14094 0.19939 0.0
C431 C 0.42427 0.1588 0.20849 0.0
C432 C 0.43336 0.17999 0.20776 0.0
C433 C 0.45388 0.18337 0.19787 0.0
H434 H 0.40839 0.1562 0.21617 0.0
H435 H 0.61013 0.20491 0.13587 0.0
H436 H 0.84028 0.42096 0.14402 0.0
H437 H 0.86075 0.4539 0.15564 0.0
H438 H 0.80023 0.48389 0.17793 0.0
H439 H 0.77975 0.45149 0.16592 0.0
H440 H 0.82421 0.51474 0.1614 0.0
H441 H 0.8367 0.45704 0.21363 0.0
H442 H 0.84784 0.41999 0.22641 0.0
H443 H 0.91371 0.43138 0.20325 0.0
H444 H 0.90286 0.46842 0.19004 0.0
H445 H 0.8862 0.56583 0.26018 0.0
H446 H 0.87271 0.53332 0.24079 0.0
H447 H 0.88447 0.56553 0.17857 0.0
H448 H 0.89766 0.59852 0.19802 0.0
H449 H 0.88651 0.50371 0.21317 0.0
H450 H 0.84297 0.55131 0.14257 0.0
H451 H 0.82712 0.58826 0.13561 0.0
H452 H 0.81587 0.59697 0.20487 0.0
H453 H 0.83129 0.55996 0.21218 0.0
C454 C 0.83128 0.43473 0.15104 0.0
C455 C 0.80831 0.4334 0.15407 0.0
C456 C 0.84305 0.45354 0.15786 0.0
C457 C 0.83218 0.47141 0.16807 0.0
C458 C 0.80914 0.47047 0.17016 0.0
C459 C 0.79739 0.45178 0.16328 0.0
C460 C 0.84467 0.49057 0.17763 0.0
C461 C 0.83799 0.51226 0.17252 0.0
C462 C 0.86231 0.48761 0.19269 0.0
C463 C 0.86891 0.46538 0.20061 0.0
C464 C 0.85352 0.45157 0.21111 0.0
C465 C 0.85978 0.43059 0.21845 0.0
C466 C 0.88146 0.42331 0.21558 0.0
C467 C 0.89692 0.43703 0.20541 0.0
C468 C 0.89072 0.45802 0.198 0.0
C469 C 0.8863 0.56596 0.24234 0.0
C470 C 0.89295 0.58497 0.23072 0.0
C471 C 0.87857 0.54723 0.23123 0.0
C472 C 0.87716 0.54692 0.20815 0.0
C473 C 0.88501 0.56539 0.19639 0.0
C474 C 0.89277 0.58422 0.20755 0.0
C475 C 0.86621 0.52785 0.19676 0.0
C476 C 0.87307 0.50618 0.20164 0.0
C477 C 0.84816 0.53083 0.18219 0.0
C478 C 0.83857 0.55298 0.17792 0.0
C479 C 0.83705 0.56109 0.15629 0.0
C480 C 0.82814 0.58204 0.15229 0.0
C481 C 0.82058 0.59499 0.1698 0.0
C482 C 0.82181 0.58697 0.19133 0.0
C483 C 0.83064 0.56601 0.19541 0.0
H484 H 0.81371 0.61121 0.16667 0.0
H485 H 0.88628 0.40707 0.22129 0.0
H486 H 0.56822 0.78419 0.1308 0.0
H487 H 0.53613 0.80575 0.14203 0.0
H488 H 0.57892 0.85765 0.16526 0.0
H489 H 0.61111 0.83634 0.15322 0.0
H490 H 0.5241 0.81527 0.18067 0.0
H491 H 0.55117 0.90662 0.16953 0.0
H492 H 0.57342 0.92914 0.14402 0.0
H493 H 0.56217 0.88209 0.09232 0.0
H494 H 0.53963 0.85944 0.11742 0.0
H495 H 0.46267 0.88293 0.25048 0.0
H496 H 0.49427 0.86939 0.22972 0.0
H497 H 0.46196 0.88659 0.1689 0.0
H498 H 0.42988 0.90015 0.18965 0.0
H499 H 0.50905 0.89502 0.16895 0.0
H500 H 0.45862 0.83557 0.18159 0.0
H501 H 0.43362 0.81261 0.20397 0.0
H502 H 0.48743 0.79462 0.24628 0.0
H503 H 0.51277 0.81748 0.22411 0.0
C504 C 0.57081 0.80046 0.13775 0.0
C505 C 0.59229 0.80854 0.14102 0.0
C506 C 0.55239 0.81275 0.14436 0.0
C507 C 0.55488 0.83341 0.15465 0.0
C508 C 0.57634 0.84196 0.15709 0.0
C509 C 0.59483 0.82975 0.15015 0.0
C510 C 0.53518 0.84491 0.16432 0.0
C511 C 0.52091 0.8327 0.17794 0.0
C512 C 0.53052 0.86764 0.16072 0.0
C513 C 0.54389 0.88123 0.14544 0.0
C514 C 0.55338 0.90112 0.1527 0.0
C515 C 0.56606 0.9139 0.13831 0.0
C516 C 0.56927 0.90702 0.11659 0.0
C517 C 0.55975 0.88737 0.10918 0.0
C518 C 0.54704 0.87453 0.12349 0.0
C519 C 0.46231 0.88428 0.2327 0.0
C520 C 0.44354 0.89257 0.22179 0.0
C521 C 0.48046 0.87644 0.22083 0.0
C522 C 0.48044 0.87671 0.19772 0.0
C523 C 0.46236 0.8862 0.18672 0.0
C524 C 0.44403 0.89397 0.19863 0.0
C525 C 0.49851 0.86538 0.18537 0.0
C526 C 0.51238 0.87759 0.17144 0.0
C527 C 0.50256 0.84251 0.18816 0.0
C528 C 0.48753 0.8284 0.20132 0.0
C529 C 0.46509 0.8268 0.19574 0.0
C530 C 0.45087 0.8138 0.20837 0.0
C531 C 0.4589 0.80232 0.22665 0.0
C532 C 0.48123 0.80359 0.23216 0.0
C533 C 0.49554 0.81651 0.21952 0.0
H534 H 0.44783 0.79242 0.23652 0.0
H535 H 0.57909 0.91693 0.10548 0.0
H536 H 0.18633 0.43023 0.89764 0.0
H537 H 0.16787 0.46485 0.88726 0.0
H538 H 0.22394 0.48269 0.84738 0.0
H539 H 0.24265 0.44902 0.8584 0.0
H540 H 0.21075 0.51759 0.86515 0.0
H541 H 0.17315 0.45929 0.82654 0.0
H542 H 0.15206 0.42466 0.82295 0.0
H543 H 0.09964 0.45235 0.86165 0.0
H544 H 0.12056 0.48707 0.8657 0.0
H545 H 0.16567 0.58533 0.78202 0.0
H546 H 0.1772 0.55157 0.80071 0.0
H547 H 0.13026 0.56396 0.85247 0.0
H548 H 0.1188 0.59833 0.83402 0.0
H549 H 0.13549 0.51561 0.83327 0.0
H550 H 0.17485 0.57654 0.8672 0.0
H551 H 0.19679 0.61078 0.86543 0.0
H552 H 0.24754 0.5766 0.82976 0.0
H553 H 0.22571 0.54225 0.83099 0.0
C554 C 0.19481 0.44171 0.88691 0.0
C555 C 0.21602 0.43673 0.8789 0.0
C556 C 0.18415 0.46145 0.88079 0.0
C557 C 0.19426 0.47642 0.86615 0.0
C558 C 0.21566 0.47163 0.85869 0.0
C559 C 0.22639 0.4522 0.86504 0.0
C560 C 0.18276 0.49683 0.85803 0.0
C561 C 0.19431 0.51699 0.85818 0.0
C562 C 0.16113 0.49647 0.84908 0.0
C563 C 0.14853 0.47565 0.84666 0.0
C564 C 0.15719 0.45792 0.83442 0.0
C565 C 0.14526 0.4383 0.83228 0.0
C566 C 0.12455 0.43628 0.84213 0.0
C567 C 0.1157 0.45392 0.85408 0.0
C568 C 0.12759 0.47357 0.8563 0.0
C569 C 0.15747 0.58082 0.7972 0.0
C570 C 0.14129 0.59468 0.80651 0.0
C571 C 0.16415 0.56147 0.80789 0.0
C572 C 0.15466 0.55528 0.82801 0.0
C573 C 0.13776 0.56842 0.83692 0.0
C574 C 0.13126 0.58807 0.82636 0.0
C575 C 0.16369 0.53591 0.84021 0.0
C576 C 0.15175 0.51608 0.84069 0.0
C577 C 0.18515 0.53639 0.84927 0.0
C578 C 0.19857 0.55687 0.84905 0.0
C579 C 0.19062 0.57637 0.85885 0.0
C580 C 0.20304 0.59579 0.85796 0.0
C581 C 0.22352 0.59588 0.84745 0.0
C582 C 0.23166 0.57652 0.83789 0.0
C583 C 0.21928 0.55706 0.8387 0.0
H584 H 0.23309 0.61094 0.84674 0.0
H585 H 0.11534 0.42107 0.84045 0.0
H586 H 0.61276 0.19193 0.88264 0.0
H587 H 0.58068 0.17173 0.86848 0.0
H588 H 0.54179 0.23132 0.87189 0.0
H589 H 0.57374 0.25159 0.8855 0.0
H590 H 0.53961 0.16155 0.88025 0.0
H591 H 0.50906 0.23608 0.82815 0.0
H592 H 0.52463 0.26878 0.80954 0.0
H593 H 0.58717 0.23596 0.80388 0.0
H594 H 0.57193 0.20303 0.82225 0.0
H595 H 0.43073 0.14052 0.84119 0.0
H596 H 0.46471 0.15383 0.85818 0.0
H597 H 0.49439 0.16023 0.79394 0.0
H598 H 0.46004 0.14795 0.77687 0.0
H599 H 0.50386 0.1945 0.8145 0.0
H600 H 0.50943 0.11865 0.8345 0.0
H601 H 0.49745 0.08295 0.84995 0.0
H602 H 0.49065 0.11264 0.9138 0.0
H603 H 0.50232 0.1486 0.89867 0.0
C604 C 0.59725 0.20062 0.88079 0.0
C605 C 0.59593 0.22346 0.88508 0.0
C606 C 0.5789 0.18904 0.87262 0.0
C607 C 0.55884 0.20004 0.8686 0.0
C608 C 0.55715 0.22249 0.87431 0.0
C609 C 0.57546 0.23407 0.88225 0.0
C610 C 0.54009 0.18861 0.85727 0.0
C611 C 0.53177 0.16875 0.86589 0.0
C612 C 0.53018 0.19751 0.83807 0.0
C613 C 0.53939 0.21718 0.82676 0.0
C614 C 0.52611 0.23583 0.82286 0.0
C615 C 0.53489 0.25441 0.81238 0.0
C616 C 0.5569 0.25449 0.80562 0.0
C617 C 0.57016 0.23594 0.80924 0.0
C618 C 0.56146 0.21732 0.8197 0.0
C619 C 0.44462 0.1444 0.83068 0.0
C620 C 0.44261 0.14308 0.80763 0.0
C621 C 0.46417 0.15199 0.84046 0.0
C622 C 0.48245 0.15794 0.82748 0.0
C623 C 0.48064 0.15591 0.80446 0.0
C624 C 0.46097 0.14872 0.79466 0.0
C625 C 0.50289 0.16754 0.83769 0.0
C626 C 0.5116 0.18716 0.82885 0.0
C627 C 0.51355 0.15796 0.85622 0.0
C628 C 0.50657 0.13637 0.8654 0.0
C629 C 0.50523 0.1176 0.8518 0.0
C630 C 0.49852 0.09731 0.86051 0.0
C631 C 0.49324 0.09554 0.88283 0.0
C632 C 0.49472 0.11404 0.89651 0.0
C633 C 0.50141 0.13438 0.88788 0.0
H634 H 0.48805 0.07982 0.88954 0.0
H635 H 0.56367 0.26889 0.79753 0.0
H636 H 0.83612 0.60707 0.88231 0.0
H637 H 0.8558 0.57397 0.86987 0.0
H638 H 0.7942 0.5446 0.85007 0.0
H639 H 0.77444 0.5774 0.8627 0.0
H640 H 0.81995 0.51362 0.86703 0.0
H641 H 0.82752 0.57038 0.81278 0.0
H642 H 0.83705 0.60736 0.79867 0.0
H643 H 0.90459 0.59731 0.81734 0.0
H644 H 0.89538 0.56037 0.83188 0.0
H645 H 0.87725 0.46053 0.76631 0.0
H646 H 0.86314 0.49309 0.78526 0.0
H647 H 0.88109 0.46445 0.84777 0.0
H648 H 0.89498 0.43143 0.82882 0.0
H649 H 0.87826 0.52439 0.81081 0.0
H650 H 0.84154 0.47867 0.88599 0.0
H651 H 0.8279 0.44152 0.89571 0.0
H652 H 0.81202 0.42913 0.82793 0.0
H653 H 0.82524 0.4663 0.81787 0.0
C654 C 0.8267 0.59343 0.87566 0.0
C655 C 0.80365 0.59504 0.87345 0.0
C656 C 0.83801 0.57452 0.86841 0.0
C657 C 0.82658 0.5568 0.85869 0.0
C658 C 0.80348 0.55796 0.85746 0.0
C659 C 0.79217 0.57684 0.86468 0.0
C660 C 0.83861 0.53764 0.84869 0.0
C661 C 0.83286 0.51602 0.85491 0.0
C662 C 0.8551 0.54056 0.83241 0.0
C663 C 0.86072 0.56273 0.82365 0.0
C664 C 0.84437 0.57613 0.81404 0.0
C665 C 0.84972 0.59707 0.80594 0.0
C666 C 0.8714 0.60471 0.80717 0.0
C667 C 0.8878 0.59139 0.81645 0.0
C668 C 0.88252 0.57045 0.82462 0.0
C669 C 0.87851 0.46119 0.78409 0.0
C670 C 0.88719 0.4432 0.796 0.0
C671 C 0.87043 0.47994 0.79493 0.0
C672 C 0.87069 0.48123 0.81802 0.0
C673 C 0.88035 0.46377 0.82997 0.0
C674 C 0.88847 0.44494 0.81909 0.0
C675 C 0.85984 0.50036 0.82936 0.0
C676 C 0.8657 0.52198 0.82328 0.0
C677 C 0.84296 0.49741 0.84524 0.0
C678 C 0.83465 0.47516 0.85117 0.0
C679 C 0.83507 0.46803 0.87319 0.0
C680 C 0.82741 0.44698 0.87875 0.0
C681 C 0.81917 0.43294 0.86244 0.0
C682 C 0.81847 0.43998 0.84054 0.0
C683 C 0.82606 0.46103 0.8349 0.0
H684 H 0.81329 0.41664 0.86678 0.0
H685 H 0.87552 0.62092 0.80088 0.0
H686 H 0.6035 0.89728 0.82808 0.0
H687 H 0.57011 0.88661 0.84831 0.0
H688 H 0.54792 0.84939 0.79191 0.0
H689 H 0.5803 0.86085 0.77151 0.0
H690 H 0.51449 0.86707 0.80751 0.0
H691 H 0.5737 0.82618 0.84137 0.0
H692 H 0.60909 0.8213 0.86078 0.0
H693 H 0.58474 0.85942 0.91525 0.0
H694 H 0.54928 0.86475 0.89602 0.0
H695 H 0.44716 0.78423 0.8541 0.0
H696 H 0.48056 0.80247 0.84116 0.0
H697 H 0.4721 0.85353 0.88985 0.0
H698 H 0.43808 0.83555 0.90274 0.0
H699 H 0.51951 0.83324 0.88174 0.0
H700 H 0.45769 0.8697 0.84623 0.0
H701 H 0.42246 0.86935 0.82596 0.0
H702 H 0.45306 0.83392 0.77286 0.0
H703 H 0.48839 0.83373 0.793 0.0
C704 C 0.59135 0.88704 0.81995 0.0
C705 C 0.59467 0.88004 0.7981 0.0
C706 C 0.5723 0.88073 0.83162 0.0
C707 C 0.55641 0.8668 0.82189 0.0
C708 C 0.55967 0.86018 0.79995 0.0
C709 C 0.57836 0.86678 0.78823 0.0
C710 C 0.53647 0.85875 0.83421 0.0
C711 C 0.51579 0.85964 0.82371 0.0
C712 C 0.53768 0.84925 0.85559 0.0
C713 C 0.55896 0.84609 0.86715 0.0
C714 C 0.57596 0.83366 0.85741 0.0
C715 C 0.59602 0.83079 0.86839 0.0
C716 C 0.59919 0.84011 0.8892 0.0
C717 C 0.58228 0.85226 0.8991 0.0
C718 C 0.5622 0.8552 0.88818 0.0
C719 C 0.45245 0.79917 0.86235 0.0
C720 C 0.43979 0.8084 0.8795 0.0
C721 C 0.47161 0.8096 0.85487 0.0
C722 C 0.47884 0.82938 0.86448 0.0
C723 C 0.46686 0.83823 0.88223 0.0
C724 C 0.4474 0.82795 0.88955 0.0
C725 C 0.49802 0.84132 0.85477 0.0
C726 C 0.5184 0.84106 0.86571 0.0
C727 C 0.49671 0.85094 0.83358 0.0
C728 C 0.47563 0.85156 0.8212 0.0
C729 C 0.45687 0.86171 0.8303 0.0
C730 C 0.43689 0.86162 0.81883 0.0
C731 C 0.43551 0.85158 0.79816 0.0
C732 C 0.45414 0.84168 0.78888 0.0
C733 C 0.47415 0.84168 0.8003 0.0
H734 H 0.42001 0.8515 0.78932 0.0
H735 H 0.61473 0.83786 0.89768 0.0
H736 H 0.12722 0.20429 0.58551 0.0
H737 H 0.13914 0.18787 0.55056 0.0
H738 H 0.19002 0.23728 0.54489 0.0
H739 H 0.17762 0.2542 0.57905 0.0
H740 H 0.175 0.23118 0.50669 0.0
H741 H 0.19884 0.18124 0.56355 0.0
H742 H 0.19447 0.1564 0.59545 0.0
H743 H 0.15104 0.11501 0.5579 0.0
H744 H 0.15494 0.13978 0.52584 0.0
H745 H 0.25679 0.17788 0.44385 0.0
H746 H 0.23606 0.18937 0.47622 0.0
H747 H 0.17897 0.15447 0.4525 0.0
H748 H 0.19959 0.14313 0.41944 0.0
H749 H 0.19257 0.15116 0.50291 0.0
H750 H 0.17362 0.20197 0.44417 0.0
H751 H 0.18348 0.22621 0.41306 0.0
H752 H 0.22309 0.2661 0.45605 0.0
H753 H 0.21379 0.24183 0.48735 0.0
C754 C 0.14081 0.21176 0.57668 0.0
C755 C 0.15143 0.23059 0.58518 0.0
C756 C 0.14775 0.20224 0.55673 0.0
C757 C 0.16582 0.21101 0.54507 0.0
C758 C 0.17606 0.2301 0.55337 0.0
C759 C 0.16893 0.23979 0.57305 0.0
C760 C 0.17449 0.20033 0.5245 0.0
C761 C 0.17882 0.21368 0.50602 0.0
C762 C 0.17934 0.17739 0.52318 0.0
C763 C 0.17696 0.1625 0.54241 0.0
C764 C 0.18822 0.16693 0.56216 0.0
C765 C 0.18586 0.15285 0.58025 0.0
C766 C 0.17243 0.13418 0.57872 0.0
C767 C 0.16139 0.12951 0.55907 0.0
C768 C 0.16368 0.14355 0.54094 0.0
C769 C 0.23992 0.17229 0.44552 0.0
C770 C 0.22989 0.15957 0.42888 0.0
C771 C 0.22808 0.17895 0.4641 0.0
C772 C 0.20596 0.17287 0.46675 0.0
C773 C 0.19606 0.15931 0.45079 0.0
C774 C 0.20786 0.15286 0.4319 0.0
C775 C 0.19314 0.1821 0.48554 0.0
C776 C 0.18822 0.16855 0.50361 0.0
C777 C 0.18815 0.20491 0.4867 0.0
C778 C 0.19314 0.21998 0.46807 0.0
C779 C 0.18454 0.21583 0.44697 0.0
C780 C 0.19002 0.22958 0.4293 0.0
C781 C 0.20394 0.24765 0.43256 0.0
C782 C 0.21232 0.25208 0.45354 0.0
C783 C 0.20693 0.23835 0.47126 0.0
H784 H 0.20822 0.25824 0.41885 0.0
H785 H 0.17062 0.12329 0.59275 0.0
H786 H 0.84282 0.15023 0.61201 0.0
H787 H 0.86348 0.16307 0.57972 0.0
H788 H 0.80343 0.16406 0.54175 0.0
H789 H 0.78272 0.15186 0.57395 0.0
H790 H 0.87234 0.15095 0.53843 0.0
H791 H 0.8012 0.20786 0.5092 0.0
H792 H 0.76996 0.22864 0.52504 0.0
H793 H 0.80367 0.23261 0.58707 0.0
H794 H 0.83511 0.21194 0.5716 0.0
H795 H 0.89442 0.19213 0.42967 0.0
H796 H 0.88149 0.17445 0.46354 0.0
H797 H 0.87917 0.23806 0.49559 0.0
H798 H 0.89104 0.25578 0.46149 0.0
H799 H 0.84363 0.21949 0.50396 0.0
H800 H 0.91796 0.1942 0.50876 0.0
H801 H 0.95234 0.17644 0.49619 0.0
H802 H 0.91826 0.11481 0.48824 0.0
H803 H 0.88361 0.13228 0.5005 0.0
C804 C 0.83409 0.15277 0.59667 0.0
C805 C 0.81104 0.15017 0.5957 0.0
C806 C 0.84593 0.16017 0.57818 0.0
C807 C 0.83501 0.16507 0.55832 0.0
C808 C 0.81225 0.16096 0.55695 0.0
C809 C 0.80041 0.15382 0.57541 0.0
C810 C 0.84692 0.17577 0.53949 0.0
C811 C 0.86607 0.16592 0.53086 0.0
C812 C 0.83922 0.19568 0.52988 0.0
C813 C 0.8204 0.20817 0.53929 0.0
C814 C 0.80194 0.2132 0.52621 0.0
C815 C 0.78419 0.22492 0.53514 0.0
C816 C 0.78478 0.23183 0.55709 0.0
C817 C 0.80316 0.2271 0.57014 0.0
C818 C 0.82093 0.21535 0.56131 0.0
C819 C 0.89169 0.20227 0.44411 0.0
C820 C 0.89383 0.22539 0.44285 0.0
C821 C 0.88426 0.19212 0.46357 0.0
C822 C 0.8793 0.2048 0.4824 0.0
C823 C 0.88262 0.22779 0.48139 0.0
C824 C 0.8896 0.23794 0.46188 0.0
C825 C 0.86904 0.19458 0.5025 0.0
C826 C 0.85006 0.20452 0.51141 0.0
C827 C 0.87735 0.17517 0.51272 0.0
C828 C 0.89815 0.1646 0.50536 0.0
C829 C 0.91777 0.1769 0.50418 0.0
C830 C 0.9373 0.16688 0.49714 0.0
C831 C 0.93747 0.14453 0.49137 0.0
C832 C 0.9181 0.13213 0.49269 0.0
C833 C 0.89851 0.14208 0.49971 0.0
H834 H 0.95261 0.1368 0.48592 0.0
H835 H 0.77103 0.24092 0.56396 0.0
H836 H 0.83434 0.88389 0.41237 0.0
H837 H 0.85565 0.87317 0.44506 0.0
H838 H 0.79528 0.86418 0.4814 0.0
H839 H 0.7741 0.87537 0.44925 0.0
H840 H 0.82402 0.87951 0.50833 0.0
H841 H 0.82295 0.82039 0.45632 0.0
H842 H 0.82862 0.80222 0.42041 0.0
H843 H 0.89811 0.81492 0.42458 0.0
H844 H 0.89279 0.83344 0.46041 0.0
H845 H 0.87373 0.77517 0.56363 0.0
H846 H 0.86099 0.79428 0.5308 0.0
H847 H 0.88287 0.85635 0.55797 0.0
H848 H 0.89498 0.83725 0.59151 0.0
H849 H 0.87584 0.81676 0.49898 0.0
H850 H 0.8483 0.89798 0.54157 0.0
H851 H 0.83649 0.91089 0.57827 0.0
H852 H 0.8144 0.84549 0.59444 0.0
H853 H 0.82571 0.83229 0.5577 0.0
C854 C 0.82564 0.88015 0.42747 0.0
C855 C 0.80245 0.88041 0.42803 0.0
C856 C 0.83785 0.87379 0.44615 0.0
C857 C 0.82714 0.86741 0.46574 0.0
C858 C 0.80406 0.86894 0.46662 0.0
C859 C 0.79191 0.87532 0.44808 0.0
C860 C 0.83956 0.8578 0.48488 0.0
C861 C 0.83554 0.86596 0.50621 0.0
C862 C 0.85416 0.83963 0.48243 0.0
C863 C 0.85744 0.82854 0.4609 0.0
C864 C 0.83942 0.81946 0.44949 0.0
C865 C 0.84256 0.80908 0.42917 0.0
C866 C 0.8637 0.80749 0.42018 0.0
C867 C 0.88174 0.81622 0.43153 0.0
C868 C 0.87867 0.82666 0.45185 0.0
C869 C 0.87614 0.79287 0.56263 0.0
C870 C 0.8853 0.80463 0.58043 0.0
C871 C 0.86884 0.80383 0.54368 0.0
C872 C 0.87054 0.82691 0.54183 0.0
C873 C 0.88088 0.8386 0.55905 0.0
C874 C 0.88801 0.82762 0.5782 0.0
C875 C 0.86037 0.83851 0.52246 0.0
C876 C 0.86471 0.83065 0.50108 0.0
C877 C 0.84528 0.85628 0.52497 0.0
C878 C 0.83812 0.86412 0.54699 0.0
C879 C 0.84086 0.88639 0.55293 0.0
C880 C 0.83424 0.89375 0.57373 0.0
C881 C 0.82477 0.87901 0.58869 0.0
C882 C 0.8218 0.85688 0.58285 0.0
C883 C 0.82831 0.84945 0.56204 0.0
H884 H 0.81965 0.88475 0.60477 0.0
H885 H 0.86611 0.79944 0.40445 0.0
H886 H 0.1793 0.77151 0.44591 0.0
H887 H 0.18895 0.79249 0.47843 0.0
H888 H 0.14557 0.84518 0.45799 0.0
H889 H 0.13655 0.82439 0.42432 0.0
H890 H 0.18078 0.86292 0.47393 0.0
H891 H 0.13296 0.80836 0.50247 0.0
H892 H 0.1173 0.77128 0.50848 0.0
H893 H 0.17812 0.74972 0.53764 0.0
H894 H 0.19426 0.78658 0.53152 0.0
H895 H 0.19622 0.90476 0.58731 0.0
H896 H 0.1791 0.89064 0.55336 0.0
H897 H 0.23068 0.842 0.54748 0.0
H898 H 0.24808 0.85618 0.5808 0.0
H899 H 0.18498 0.82541 0.54644 0.0
H900 H 0.23247 0.8814 0.51374 0.0
H901 H 0.24555 0.91964 0.50876 0.0
H902 H 0.18052 0.93994 0.48942 0.0
H903 H 0.16699 0.90185 0.4946 0.0
C904 C 0.1715 0.78745 0.4483 0.0
C905 C 0.15686 0.79607 0.43249 0.0
C906 C 0.17702 0.79947 0.46713 0.0
C907 C 0.16762 0.8203 0.4712 0.0
C908 C 0.15297 0.82909 0.45543 0.0
C909 C 0.14771 0.81714 0.43622 0.0
C910 C 0.17384 0.83282 0.49162 0.0
C911 C 0.18123 0.85479 0.48983 0.0
C912 C 0.17452 0.82245 0.5126 0.0
C913 C 0.16487 0.80023 0.51641 0.0
C914 C 0.14305 0.79568 0.51004 0.0
C915 C 0.13408 0.77469 0.51348 0.0
C916 C 0.14672 0.75814 0.52341 0.0
C917 C 0.16834 0.76255 0.52995 0.0
C918 C 0.1774 0.7835 0.52653 0.0
C919 C 0.20411 0.89131 0.57857 0.0
C920 C 0.22358 0.88167 0.58685 0.0
C921 C 0.19428 0.88324 0.55919 0.0
C922 C 0.20356 0.86519 0.54792 0.0
C923 C 0.22319 0.8559 0.5559 0.0
C924 C 0.23319 0.86415 0.57496 0.0
C925 C 0.19249 0.85504 0.52846 0.0
C926 C 0.18415 0.83354 0.53053 0.0
C927 C 0.19049 0.86601 0.50798 0.0
C928 C 0.19866 0.88885 0.50483 0.0
C929 C 0.22091 0.89406 0.50865 0.0
C930 C 0.22842 0.9157 0.50573 0.0
C931 C 0.21386 0.93222 0.49885 0.0
C932 C 0.19177 0.92713 0.4948 0.0
C933 C 0.18418 0.90552 0.49771 0.0
H934 H 0.21971 0.94896 0.49659 0.0
H935 H 0.13974 0.74191 0.52605 0.0
H936 H 0.66924 0.95086 0.74522 0.0
H937 H 0.68081 0.98471 0.72747 0.0
H938 H 0.63992 0.96961 0.67134 0.0
H939 H 0.629 0.9346 0.68883 0.0
H940 H 0.67639 0.98519 0.65669 0.0
H941 H 0.6271 1.01247 0.71054 0.0
H942 H 0.60982 0.01681 0.74703 0.0
H943 H 0.67066 0.04161 0.77329 0.0
H944 H 0.6884 0.03714 0.73704 0.0
H945 H 0.69965 0.10172 0.62528 0.0
H946 H 0.67918 0.06831 0.6362 0.0
H947 H 0.7298 0.05258 0.68343 0.0
H948 H 0.75051 0.08522 0.67234 0.0
H949 H 0.68193 0.05502 0.69908 0.0
H950 H 0.73088 0.02269 0.64378 0.0
H951 H 0.74577 0.01954 0.60613 0.0
H952 H 0.68084 1.00655 0.58119 0.0
H953 H 0.66553 1.00995 0.61869 0.0
C954 C 0.66236 0.95473 0.72922 0.0
C955 C 0.64792 0.93994 0.71862 0.0
C956 C 0.66897 0.97433 0.71905 0.0
C957 C 0.66091 0.98025 0.69817 0.0
C958 C 0.64633 0.96563 0.68751 0.0
C959 C 0.63995 0.94565 0.69759 0.0
C960 C 0.66865 1.00124 0.68746 0.0
C961 C 0.67711 1.00053 0.66588 0.0
C962 C 0.66972 0.02152 0.6992 0.0
C963 C 0.65911 0.02434 0.72106 0.0
C964 C 0.63683 0.01873 0.72412 0.0
C965 C 0.62695 0.02122 0.74476 0.0
C966 C 0.63914 0.02945 0.76247 0.0
C967 C 0.66123 0.03524 0.75956 0.0
C968 C 0.6712 0.03276 0.73895 0.0
C969 C 0.70656 0.09096 0.63775 0.0
C970 C 0.72681 0.0962 0.64783 0.0
C971 C 0.69483 0.07189 0.64399 0.0
C972 C 0.70294 0.05798 0.66069 0.0
C973 C 0.72321 0.06306 0.67053 0.0
C974 C 0.7351 0.08174 0.66404 0.0
C975 C 0.69013 0.0386 0.66881 0.0
C976 C 0.68075 0.0397 0.68988 0.0
C977 C 0.6878 0.01894 0.65644 0.0
C978 C 0.69703 0.01689 0.63397 0.0
C979 C 0.71975 0.01942 0.63023 0.0
C980 C 0.72827 0.01752 0.60893 0.0
C981 C 0.71425 1.01293 0.59126 0.0
C982 C 0.69168 1.01016 0.59487 0.0
C983 C 0.68307 1.01206 0.61614 0.0
H984 H 0.72088 1.01146 0.57479 0.0
H985 H 0.63146 0.03136 0.77844 0.0
H986 H 0.92945 0.69226 0.63152 0.0
H987 H 0.96255 0.67396 0.64605 0.0
H988 H 0.99034 0.73745 0.66216 0.0
H989 H 0.95744 0.75575 0.64797 0.0
H990 H 1.00737 0.67436 0.63887 0.0
H991 H 1.0135 0.73482 0.7127 0.0
H992 H 0.98895 0.75866 0.73476 0.0
H993 H 0.93394 0.71695 0.71911 0.0
H994 H 0.95822 0.69266 0.6973 0.0
H995 H 0.11081 0.66127 0.69499 0.0
H996 H 0.07816 0.67267 0.67414 0.0
H997 H 0.03684 0.65492 0.72917 0.0
H998 H 0.06946 0.64448 0.75029 0.0
H999 H 0.0246 0.69237 0.71666 0.0
H1000 H 0.03869 0.62549 0.67729 0.0
H1001 H 0.06055 0.59847 0.6561 0.0
H1002 H 0.07083 0.64655 0.60515 0.0
H1003 H 0.04926 0.67396 0.62616 0.0
C1004 C 0.94278 0.70235 0.63778 0.0
C1005 C 0.94061 0.72552 0.63872 0.0
C1006 C 0.96173 0.69185 0.64609 0.0
C1007 C 0.97885 0.70427 0.65558 0.0
C1008 C 0.97725 0.72743 0.65529 0.0
C1009 C 0.95838 0.7379 0.64707 0.0
C1010 C 0.99759 0.69322 0.66727 0.0
C1011 C 1.01118 0.67828 0.65587 0.0
C1012 C 1.0023 0.69783 0.68965 0.0
C1013 C 0.98766 0.71206 0.70318 0.0
C1014 C 0.99619 0.73068 0.71407 0.0
C1015 C 0.98232 0.74427 0.72652 0.0
C1016 C 0.95989 0.73936 0.72828 0.0
C1017 C 0.9513 0.72078 0.71768 0.0
C1018 C 0.96511 0.7071 0.70527 0.0
C1019 C 0.09472 0.65933 0.70245 0.0
C1020 C 0.09279 0.65191 0.72432 0.0
C1021 C 0.07597 0.66587 0.69047 0.0
C1022 C 0.05479 0.66468 0.69992 0.0
C1023 C 0.05287 0.65625 0.72143 0.0
C1024 C 0.07158 0.6501 0.73349 0.0
C1025 C 0.03485 0.67362 0.68824 0.0
C1026 C 0.02094 0.6883 0.69966 0.0
C1027 C 0.02958 0.66827 0.66609 0.0
C1028 C 0.04252 0.65183 0.6534 0.0
C1029 C 0.04575 0.63035 0.66164 0.0
C1030 C 0.05806 0.61495 0.64965 0.0
C1031 C 0.06712 0.6208 0.62932 0.0
C1032 C 0.06383 0.64205 0.62091 0.0
C1033 C 0.05154 0.65751 0.63284 0.0
H1034 H 0.07665 0.60886 0.62006 0.0
H1035 H 0.94917 0.74993 0.73788 0.0
H1036 H 0.38681 0.06543 0.75805 0.0
H1037 H 0.37542 0.03168 0.73919 0.0
H1038 H 0.36703 0.06844 0.67887 0.0
H1039 H 0.3793 0.10207 0.69752 0.0
H1040 H 0.33883 0.02086 0.7239 0.0
H1041 H 0.36898 0.03535 0.63384 0.0
H1042 H 0.40076 0.05178 0.61455 0.0
H1043 H 0.44113 0.04189 0.6718 0.0
H1044 H 0.4097 0.02513 0.69132 0.0
H1045 H 0.27455 0.95798 0.65308 0.0
H1046 H 0.29604 0.98891 0.66705 0.0
H1047 H 0.35562 0.95061 0.66065 0.0
H1048 H 0.3341 0.9193 0.64647 0.0
H1049 H 0.36203 0.99551 0.64974 0.0
H1050 H 0.33524 0.95339 0.7097 0.0
H1051 H 0.30807 0.93273 0.73165 0.0
H1052 H 0.26886 0.99145 0.73876 0.0
H1053 H 0.29585 1.01247 0.71675 0.0
C1054 C 0.38301 0.06625 0.74064 0.0
C1055 C 0.38413 0.08649 0.7293 0.0
C1056 C 0.37634 0.0469 0.72985 0.0
C1057 C 0.37033 0.04725 0.70747 0.0
C1058 C 0.37196 0.06741 0.69598 0.0
C1059 C 0.37898 0.08673 0.7067 0.0
C1060 C 0.36092 0.02698 0.69674 0.0
C1061 C 0.34406 0.01543 0.7077 0.0
C1062 C 0.36787 0.01923 0.67578 0.0
C1063 C 0.3869 0.02919 0.66411 0.0
C1064 C 0.38466 0.03661 0.64229 0.0
C1065 C 0.40261 0.04599 0.63132 0.0
C1066 C 0.42293 0.04794 0.64197 0.0
C1067 C 0.42536 0.04045 0.66359 0.0
C1068 C 0.40747 0.03104 0.67463 0.0
C1069 C 0.29227 0.95613 0.65422 0.0
C1070 C 0.3025 0.93595 0.64878 0.0
C1071 C 0.30456 0.9739 0.66232 0.0
C1072 C 0.32744 0.97206 0.66524 0.0
C1073 C 0.33798 0.95244 0.6586 0.0
C1074 C 0.32563 0.93453 0.6505 0.0
C1075 C 0.33977 0.99007 0.67674 0.0
C1076 C 0.35701 1.0011 0.66594 0.0
C1077 C 0.3338 0.99692 0.69821 0.0
C1078 C 0.31747 0.98445 0.71144 0.0
C1079 C 0.32075 0.96186 0.71583 0.0
C1080 C 0.30541 0.9501 0.72832 0.0
C1081 C 0.28669 0.96075 0.73655 0.0
C1082 C 0.28335 0.98322 0.73236 0.0
C1083 C 0.2987 0.99509 0.71993 0.0
H1084 H 0.2748 0.9516 0.7462 0.0
H1085 H 0.4368 0.05522 0.63345 0.0
H1086 H 0.0758 0.28528 0.63226 0.0
H1087 H 0.04269 0.30565 0.64252 0.0
H1088 H 0.08238 0.36214 0.65972 0.0
H1089 H 0.11572 0.34188 0.64885 0.0
H1090 H 0.03203 0.31797 0.68145 0.0
H1091 H 0.05 0.4094 0.6591 0.0
H1092 H 0.06929 0.43077 0.63039 0.0
H1093 H 0.06099 0.37728 0.58471 0.0
H1094 H 0.0414 0.35572 0.61303 0.0
H1095 H 0.96314 0.38492 0.74445 0.0
H1096 H 0.99635 0.37297 0.72527 0.0
H1097 H 0.96393 0.38245 0.66283 0.0
H1098 H 0.93038 0.39462 0.68202 0.0
H1099 H 1.00896 0.39399 0.66122 0.0
H1100 H 0.9649 0.33208 0.68289 0.0
H1101 H 0.94318 0.30928 0.70857 0.0
H1102 H 1.0 0.30106 0.74994 0.0
H1103 H 0.02205 0.32394 0.72454 0.0
C1104 C 0.07751 0.30224 0.63772 0.0
C1105 C 0.09851 0.31187 0.63979 0.0
C1106 C 0.0585 0.31386 0.64374 0.0
C1107 C 0.05985 0.33546 0.65211 0.0
C1108 C 0.08072 0.3456 0.65313 0.0
C1109 C 0.09984 0.33398 0.64688 0.0
C1110 C 0.03967 0.34636 0.66141 0.0
C1111 C 0.0271 0.3346 0.67692 0.0
C1112 C 0.03281 0.36799 0.65547 0.0
C1113 C 0.04445 0.38086 0.63828 0.0
C1114 C 0.05224 0.40223 0.64291 0.0
C1115 C 0.06323 0.41437 0.62671 0.0
C1116 C 0.06643 0.40536 0.60577 0.0
C1117 C 0.05858 0.38421 0.60096 0.0
C1118 C 0.04757 0.372 0.6171 0.0
C1119 C 0.96309 0.3849 0.72661 0.0
C1120 C 0.9439 0.3906 0.71483 0.0
C1121 C 0.98216 0.37798 0.71565 0.0
C1122 C 0.98261 0.37643 0.69258 0.0
C1123 C 0.96401 0.38346 0.68063 0.0
C1124 C 0.94481 0.39044 0.69165 0.0
C1125 C 1.00175 0.36565 0.68135 0.0
C1126 C 0.01405 0.37739 0.66563 0.0
C1127 C 1.00818 0.34378 0.68667 0.0
C1128 C 0.99506 0.32988 0.70192 0.0
C1129 C 0.97272 0.32553 0.69754 0.0
C1130 C 0.96036 0.31258 0.71203 0.0
C1131 C 0.97017 0.30381 0.73093 0.0
C1132 C 0.99241 0.30789 0.73532 0.0
C1133 C 1.00486 0.32081 0.72085 0.0
H1134 H 0.96056 0.2938 0.74214 0.0
H1135 H 0.07495 0.41478 0.59325 0.0
H1136 H 0.68967 0.92545 0.3974 0.0
H1137 H 0.66971 0.95917 0.38685 0.0
H1138 H 0.7212 0.97505 0.34051 0.0
H1139 H 0.74148 0.94228 0.35167 0.0
H1140 H 0.70947 1.01095 0.35697 0.0
H1141 H 0.66831 0.95036 0.32648 0.0
H1142 H 0.64729 0.91551 0.32718 0.0
H1143 H 0.59933 0.9451 0.37005 0.0
H1144 H 0.62023 0.98006 0.3698 0.0
H1145 H 0.65273 0.06979 0.2737 0.0
H1146 H 0.66578 0.03764 0.29398 0.0
H1147 H 0.63024 0.05923 0.35146 0.0
H1148 H 0.61735 0.09217 0.33132 0.0
H1149 H 0.63103 1.00673 0.33428 0.0
H1150 H 0.67411 0.06978 0.36026 0.0
H1151 H 0.69506 0.10393 0.35307 0.0
H1152 H 0.74023 0.06777 0.31225 0.0
H1153 H 0.71927 0.03347 0.31886 0.0
C1154 C 0.69682 0.93628 0.38514 0.0
C1155 C 0.71725 0.93104 0.37545 0.0
C1156 C 0.68529 0.95553 0.37895 0.0
C1157 C 0.69364 0.96972 0.36252 0.0
C1158 C 0.71425 0.96463 0.35324 0.0
C1159 C 0.72589 0.94571 0.35966 0.0
C1160 C 0.68107 0.98963 0.3545 0.0
C1161 C 0.69231 1.00985 0.3521 0.0
C1162 C 0.65853 0.98869 0.34815 0.0
C1163 C 0.64597 0.96771 0.34835 0.0
C1164 C 0.65337 0.94937 0.33619 0.0
C1165 C 0.64147 0.92961 0.33648 0.0
C1166 C 0.62203 0.92806 0.34872 0.0
C1167 C 0.61442 0.9463 0.36063 0.0
C1168 C 0.62628 0.96609 0.36041 0.0
C1169 C 0.64729 0.0677 0.29055 0.0
C1170 C 0.63396 0.08378 0.30083 0.0
C1171 C 0.65484 0.0492 0.30213 0.0
C1172 C 0.64908 0.04603 0.32424 0.0
C1173 C 0.63484 0.06133 0.33437 0.0
C1174 C 0.62748 0.08015 0.32282 0.0
C1175 C 0.65953 0.02761 0.33684 0.0
C1176 C 0.64801 1.00775 0.33979 0.0
C1177 C 0.68192 0.02868 0.34323 0.0
C1178 C 0.69501 0.0491 0.33991 0.0
C1179 C 0.68842 0.06914 0.34963 0.0
C1180 C 0.7003 0.08852 0.34567 0.0
C1181 C 0.71893 0.08803 0.33217 0.0
C1182 C 0.72578 0.06813 0.32269 0.0
C1183 C 0.71392 0.04871 0.32656 0.0
H1184 H 0.72808 0.10307 0.32908 0.0
H1185 H 0.61284 0.91275 0.34892 0.0
H1186 H 0.93927 0.61833 0.34105 0.0
H1187 H 0.9741 0.62749 0.35971 0.0
H1188 H 0.99036 0.67241 0.30696 0.0
H1189 H 0.95671 0.66253 0.28802 0.0
H1190 H 0.02532 0.65395 0.31672 0.0
H1191 H 0.96865 0.68796 0.36127 0.0
H1192 H 0.93538 0.68874 0.3846 0.0
H1193 H 0.96645 0.64491 0.43079 0.0
H1194 H 0.99983 0.64369 0.40759 0.0
H1195 H 0.08648 0.73914 0.36902 0.0
H1196 H 0.05333 0.71849 0.35974 0.0
H1197 H 0.08127 0.65974 0.38848 0.0
H1198 H 0.1151 0.68028 0.39756 0.0
H1199 H 0.02674 0.67896 0.39448 0.0
H1200 H 0.08548 0.64829 0.34634 0.0
H1201 H 0.11811 0.65472 0.32296 0.0
H1202 H 0.08081 0.69963 0.28279 0.0
H1203 H 0.04806 0.69369 0.30616 0.0
C1204 C 0.95043 0.62998 0.3334 0.0
C1205 C 0.94514 0.63954 0.31293 0.0
C1206 C 0.97031 0.63538 0.34416 0.0
C1207 C 0.98503 0.65091 0.33497 0.0
C1208 C 0.97964 0.66026 0.31449 0.0
C1209 C 0.96018 0.65458 0.30362 0.0
C1210 C 1.00594 0.65791 0.3463 0.0
C1211 C 0.02545 0.65923 0.33378 0.0
C1212 C 1.00663 0.66481 0.36866 0.0
C1213 C 0.9866 0.66551 0.38257 0.0
C1214 C 0.96831 0.67836 0.37633 0.0
C1215 C 0.94945 0.6789 0.38953 0.0
C1216 C 0.94877 0.66681 0.40912 0.0
C1217 C 0.96698 0.65421 0.41559 0.0
C1218 C 0.98587 0.6536 0.40242 0.0
C1219 C 0.08561 0.72191 0.37375 0.0
C1220 C 0.10366 0.7114 0.38399 0.0
C1221 C 0.06653 0.71014 0.36843 0.0
C1222 C 0.0648 0.6876 0.37339 0.0
C1223 C 0.08224 0.67717 0.38458 0.0
C1224 C 0.10157 0.68894 0.38974 0.0
C1225 C 0.04559 0.67493 0.36479 0.0
C1226 C 0.0265 0.67291 0.37767 0.0
C1227 C 0.04505 0.66783 0.34264 0.0
C1228 C 0.06441 0.67066 0.32806 0.0
C1229 C 0.08429 0.65961 0.33258 0.0
C1230 C 0.10279 0.66316 0.31933 0.0
C1231 C 0.10156 0.67762 0.30143 0.0
C1232 C 0.08176 0.68845 0.29666 0.0
C1233 C 0.06322 0.68497 0.30988 0.0
H1234 H 0.11592 0.68041 0.29124 0.0
H1235 H 0.93415 0.66726 0.41933 0.0
H1236 H 0.3656 0.95908 0.27719 0.0
H1237 H 0.35452 0.99298 0.29535 0.0
H1238 H 0.39916 0.97907 0.34891 0.0
H1239 H 0.40963 0.9441 0.33107 0.0
H1240 H 0.3634 0.99434 0.36563 0.0
H1241 H 0.40904 0.0213 0.30849 0.0
H1242 H 0.42392 0.02532 0.27093 0.0
H1243 H 0.36134 0.04953 0.24831 0.0
H1244 H 0.34597 0.04537 0.28566 0.0
H1245 H 0.34146 0.11322 0.39373 0.0
H1246 H 0.36197 0.07979 0.38274 0.0
H1247 H 0.30663 0.0586 0.34371 0.0
H1248 H 0.28594 0.09123 0.35492 0.0
H1249 H 0.35468 0.06371 0.32296 0.0
H1250 H 0.30939 0.03049 0.38142 0.0
H1251 H 0.29698 0.02777 0.41998 0.0
H1252 H 0.3638 0.01782 0.44113 0.0
H1253 H 0.37662 0.02082 0.40266 0.0
C1254 C 0.37335 0.96324 0.29271 0.0
C1255 C 0.38874 0.94885 0.30251 0.0
C1256 C 0.36703 0.98284 0.30309 0.0
C1257 C 0.37633 0.9891 0.32335 0.0
C1258 C 0.3918 0.97481 0.33323 0.0
C1259 C 0.39788 0.95485 0.32296 0.0
C1260 C 0.36907 1.01012 0.33427 0.0
C1261 C 0.36197 1.00958 0.35634 0.0
C1262 C 0.36714 0.03027 0.32241 0.0
C1263 C 0.37632 0.0329 0.29989 0.0
C1264 C 0.39841 0.02736 0.29548 0.0
C1265 C 0.40693 0.02968 0.27423 0.0
C1266 C 0.39358 0.03765 0.25724 0.0
C1267 C 0.37167 0.04336 0.26149 0.0
C1268 C 0.36305 0.04105 0.28271 0.0
C1269 C 0.33354 0.10124 0.38313 0.0
C1270 C 0.31199 0.10497 0.3753 0.0
C1271 C 0.34529 0.08218 0.37684 0.0
C1272 C 0.33581 0.06674 0.36238 0.0
C1273 C 0.31424 0.07026 0.3549 0.0
C1274 C 0.3024 0.08896 0.36144 0.0
C1275 C 0.34849 0.04751 0.35381 0.0
C1276 C 0.35659 0.0485 0.33222 0.0
C1277 C 0.35172 0.02801 0.3662 0.0
C1278 C 0.34398 0.02621 0.38924 0.0
C1279 C 0.32145 0.028 0.39432 0.0
C1280 C 0.31434 0.02633 0.41615 0.0
C1281 C 0.3296 0.02271 0.43301 0.0
C1282 C 0.352 0.02068 0.42806 0.0
C1283 C 0.3592 0.02235 0.40626 0.0
H1284 H 0.32406 0.02141 0.4499 0.0
H1285 H 0.40021 0.03943 0.2408 0.0
H1286 H 0.06536 0.38811 0.27129 0.0
H1287 H 0.03194 0.37579 0.28998 0.0
H1288 H 0.06313 0.38657 0.3529 0.0
H1289 H 0.09636 0.39966 0.33424 0.0
H1290 H 0.02574 0.34159 0.31298 0.0
H1291 H 0.02519 0.39301 0.39374 0.0
H1292 H 0.03509 0.43044 0.40641 0.0
H1293 H 0.02625 0.45554 0.34086 0.0
H1294 H 0.01603 0.41834 0.32786 0.0
H1295 H 0.96029 0.28545 0.38833 0.0
H1296 H 0.99089 0.30709 0.3738 0.0
H1297 H 0.94765 0.36303 0.36521 0.0
H1298 H 0.91688 0.34146 0.38031 0.0
H1299 H 0.98842 0.37695 0.37657 0.0
H1300 H 0.95873 0.32884 0.32164 0.0
H1301 H 0.94609 0.2935 0.30587 0.0
H1302 H 1.01067 0.2658 0.31462 0.0
H1303 H 0.0237 0.30096 0.33053 0.0
C1304 C 0.06498 0.3883 0.28911 0.0
C1305 C 0.08361 0.39495 0.30121 0.0
C1306 C 0.04583 0.38111 0.29983 0.0
C1307 C 0.04478 0.3802 0.32296 0.0
C1308 C 0.06318 0.38743 0.33509 0.0
C1309 C 0.08228 0.3949 0.32436 0.0
C1310 C 0.02513 0.37016 0.33415 0.0
C1311 C 0.01764 0.34945 0.32685 0.0
C1312 C 0.01412 0.38035 0.35212 0.0
C1313 C 0.02006 0.40283 0.3598 0.0
C1314 C 0.02528 0.40654 0.38205 0.0
C1315 C 0.03096 0.42771 0.38929 0.0
C1316 C 0.03137 0.44534 0.37444 0.0
C1317 C 0.02602 0.44185 0.35233 0.0
C1318 C 0.02031 0.42072 0.34502 0.0
C1319 C 0.95733 0.30251 0.38381 0.0
C1320 C 0.93604 0.31164 0.38539 0.0
C1321 C 0.97487 0.31486 0.37534 0.0
C1322 C 0.97155 0.33657 0.36782 0.0
C1323 C 0.95066 0.34629 0.37074 0.0
C1324 C 0.93306 0.33395 0.37947 0.0
C1325 C 0.98948 0.34832 0.35557 0.0
C1326 C 0.99661 0.36923 0.36268 0.0
C1327 C 0.99988 0.33862 0.33703 0.0
C1328 C 0.99213 0.31746 0.32745 0.0
C1329 C 0.97019 0.31516 0.32033 0.0
C1330 C 0.96296 0.29518 0.31135 0.0
C1331 C 0.97753 0.27739 0.30934 0.0
C1332 C 0.9994 0.27958 0.31622 0.0
C1333 C 1.00673 0.29955 0.32517 0.0
H1334 H 0.97189 0.26193 0.3024 0.0
H1335 H 0.03578 0.46172 0.38007 0.0
H1336 H 0.75038 0.67175 0.94455 0.0
H1337 H 0.73068 0.68277 0.97759 0.0
H1338 H 0.675 0.64317 0.95785 0.0
H1339 H 0.69446 0.63285 0.92392 0.0
H1340 H 0.6598 0.67944 0.97288 0.0
H1341 H 0.71153 0.62882 1.00246 0.0
H1342 H 0.74758 0.61126 1.00925 0.0
H1343 H 0.7716 0.67131 0.0382 0.0
H1344 H 0.7358 0.68936 0.03128 0.0
H1345 H 0.61704 0.69775 0.08542 0.0
H1346 H 0.63102 0.67937 0.052 0.0
H1347 H 0.6819 0.72862 0.04633 0.0
H1348 H 0.6679 0.74726 0.07899 0.0
H1349 H 0.69646 0.68199 0.04582 0.0
H1350 H 0.64369 0.73239 1.01208 0.0
H1351 H 0.60643 0.74768 1.0064 0.0
H1352 H 0.58291 0.68363 0.98719 0.0
H1353 H 0.62 0.66789 0.99307 0.0
C1354 C 0.73407 0.66506 0.94729 0.0
C1355 C 0.72414 0.6512 0.93154 0.0
C1356 C 0.72277 0.67134 0.96638 0.0
C1357 C 0.70138 0.66353 0.97069 0.0
C1358 C 0.69148 0.64944 0.95511 0.0
C1359 C 0.70269 0.6434 0.93573 0.0
C1360 C 0.68924 0.67095 0.99095 0.0
C1361 C 0.66775 0.67953 0.98887 0.0
C1362 C 0.69937 0.67126 1.01204 0.0
C1363 C 0.721 0.6605 0.01619 0.0
C1364 C 0.72454 0.63834 1.01012 0.0
C1365 C 0.74494 0.62829 0.01402 0.0
C1366 C 0.76188 0.64017 0.02411 0.0
C1367 C 0.75846 0.66213 0.03036 0.0
C1368 C 0.73811 0.67227 0.02648 0.0
C1369 C 0.63097 0.70485 0.07684 0.0
C1370 C 0.64125 0.72406 0.08497 0.0
C1371 C 0.63898 0.6943 0.05777 0.0
C1372 C 0.6576 0.70256 0.04672 0.0
C1373 C 0.66757 0.72189 0.05459 0.0
C1374 C 0.6594 0.73261 0.07328 0.0
C1375 C 0.66749 0.69086 0.02746 0.0
C1376 C 0.68853 0.68151 0.02982 0.0
C1377 C 0.65678 0.68944 1.00682 0.0
C1378 C 0.63453 0.69891 1.0033 0.0
C1379 C 0.63052 0.72152 1.00688 0.0
C1380 C 0.60945 0.73028 1.00356 0.0
C1381 C 0.59229 0.71662 0.99651 0.0
C1382 C 0.5962 0.69418 0.9927 0.0
C1383 C 0.61724 0.68533 0.99601 0.0
H1384 H 0.57599 0.72343 0.99395 0.0
H1385 H 0.77765 0.63235 0.02712 0.0
H1386 H 0.31827 0.61557 0.07761 0.0
H1387 H 0.33556 0.62786 0.0431 0.0
H1388 H 0.30726 0.69273 0.05219 0.0
H1389 H 0.289 0.68013 0.0854 0.0
H1390 H 0.30372 0.68539 1.01305 0.0
H1391 H 0.36552 0.67657 0.06178 0.0
H1392 H 0.39064 0.65683 0.08697 0.0
H1393 H 0.40675 0.61071 0.03569 0.0
H1394 H 0.38152 0.63005 1.01026 0.0
H1395 H 0.37547 0.75478 0.95376 0.0
H1396 H 0.36149 0.73304 0.98446 0.0
H1397 H 0.36854 0.67349 0.94625 0.0
H1398 H 0.38226 0.69532 0.91492 0.0
H1399 H 0.38274 0.6733 0.99607 0.0
H1400 H 0.32163 0.69064 0.94661 0.0
H1401 H 0.29841 0.71616 0.92484 0.0
H1402 H 0.28349 0.75333 0.98307 0.0
H1403 H 0.30699 0.72848 1.00511 0.0
C1404 C 0.31568 0.63239 0.07208 0.0
C1405 C 0.30207 0.64678 0.08419 0.0
C1406 C 0.32575 0.63952 0.05241 0.0
C1407 C 0.32305 0.66143 0.04485 0.0
C1408 C 0.30958 0.67571 0.05722 0.0
C1409 C 0.2991 0.66846 0.07638 0.0
C1410 C 0.33376 0.66982 0.02411 0.0
C1411 C 0.32106 0.68276 1.00959 0.0
C1412 C 0.35634 0.66628 0.01897 0.0
C1413 C 0.37142 0.65457 0.03422 0.0
C1414 C 0.37429 0.66211 0.05593 0.0
C1415 C 0.38857 0.65101 0.07024 0.0
C1416 C 0.40022 0.63247 0.06296 0.0
C1417 C 0.39767 0.62503 0.04132 0.0
C1418 C 0.38339 0.63606 0.02695 0.0
C1419 C 0.37447 0.73702 0.95185 0.0
C1420 C 0.38003 0.72687 0.9317 0.0
C1421 C 0.36639 0.7246 0.9695 0.0
C1422 C 0.3638 0.70166 0.96765 0.0
C1423 C 0.37044 0.69119 0.94807 0.0
C1424 C 0.37836 0.70369 0.93018 0.0
C1425 C 0.35276 0.68921 0.98576 0.0
C1426 C 0.36536 0.67556 0.99962 0.0
C1427 C 0.33029 0.69281 0.99087 0.0
C1428 C 0.31622 0.70776 0.97748 0.0
C1429 C 0.31359 0.70438 0.95472 0.0
C1430 C 0.30034 0.71868 0.94235 0.0
C1431 C 0.28947 0.73627 0.95257 0.0
C1432 C 0.2919 0.73968 0.97517 0.0
C1433 C 0.30518 0.72551 0.98761 0.0
H1434 H 0.27915 0.74723 0.94297 0.0
H1435 H 0.41128 0.62391 0.07405 0.0
H1436 H 0.33 0.38239 0.91485 0.0
H1437 H 0.3505 0.37021 0.94753 0.0
H1438 H 0.28956 0.36441 0.98356 0.0
H1439 H 0.26911 0.37674 0.95125 0.0
H1440 H 0.32064 0.38 1.00999 0.0
H1441 H 0.31347 0.31952 0.95932 0.0
H1442 H 0.31744 0.30079 0.92347 0.0
H1443 H 0.38776 0.30774 0.92723 0.0
H1444 H 0.38417 0.32682 0.96298 0.0
H1445 H 0.36222 0.27584 0.07112 0.0
H1446 H 0.3488 0.29358 0.03758 0.0
H1447 H 0.38127 0.35409 0.05621 0.0
H1448 H 0.39458 0.33648 0.09005 0.0
H1449 H 0.36618 0.31231 1.00205 0.0
H1450 H 0.34846 0.39778 0.04078 0.0
H1451 H 0.34006 0.41393 0.07716 0.0
H1452 H 0.31251 0.35218 0.0984 0.0
H1453 H 0.32046 0.33579 0.06208 0.0
C1454 C 0.32101 0.37898 0.92987 0.0
C1455 C 0.29785 0.38048 0.93032 0.0
C1456 C 0.33275 0.37183 0.94852 0.0
C1457 C 0.32159 0.36603 0.96801 0.0
C1458 C 0.29861 0.36871 0.9688 0.0
C1459 C 0.2869 0.37575 0.95021 0.0
C1460 C 0.33344 0.35597 0.98717 0.0
C1461 C 0.3308 0.36535 1.00817 0.0
C1462 C 0.34631 0.3365 0.98505 0.0
C1463 C 0.34853 0.32481 0.9637 0.0
C1464 C 0.32977 0.31719 0.95243 0.0
C1465 C 0.33195 0.3065 0.93213 0.0
C1466 C 0.35284 0.30314 0.92304 0.0
C1467 C 0.37159 0.3104 0.93427 0.0
C1468 C 0.36949 0.32114 0.95455 0.0
C1469 C 0.36675 0.29286 0.06803 0.0
C1470 C 0.37942 0.30472 0.08346 0.0
C1471 C 0.35909 0.30299 0.04874 0.0
C1472 C 0.36374 0.3253 0.04437 0.0
C1473 C 0.37716 0.33695 0.05928 0.0
C1474 C 0.38487 0.32681 0.07861 0.0
C1475 C 0.35359 0.3365 0.02485 0.0
C1476 C 0.35642 0.32724 1.0038 0.0
C1477 C 0.3404 0.35575 0.027 0.0
C1478 C 0.33532 0.36551 0.04881 0.0
C1479 C 0.34056 0.38769 0.05321 0.0
C1480 C 0.33588 0.39687 0.07381 0.0
C1481 C 0.32584 0.38406 0.09011 0.0
C1482 C 0.32037 0.36206 0.0858 0.0
C1483 C 0.32498 0.35281 0.06522 0.0
H1484 H 0.32225 0.3912 0.10605 0.0
H1485 H 0.35449 0.29487 0.90732 0.0
H1486 H 0.75186 0.35835 0.08666 0.0
H1487 H 0.73236 0.34734 0.05369 0.0
H1488 H 0.67723 0.38845 0.07213 0.0
H1489 H 0.69652 0.39877 0.10629 0.0
H1490 H 0.66153 0.35245 0.05631 0.0
H1491 H 0.71467 0.4019 0.02798 0.0
H1492 H 0.75111 0.41899 0.02247 0.0
H1493 H 0.77583 0.35831 0.99536 0.0
H1494 H 0.73963 0.34073 1.00098 0.0
H1495 H 0.62589 0.33314 0.94033 0.0
H1496 H 0.63803 0.35228 0.97403 0.0
H1497 H 0.68439 0.29989 0.98695 0.0
H1498 H 0.67209 0.28048 0.95399 0.0
H1499 H 0.70095 0.34798 0.9849 0.0
H1500 H 0.64618 0.29893 0.01807 0.0
H1501 H 0.60841 0.28458 0.02235 0.0
H1502 H 0.58511 0.34975 0.03803 0.0
H1503 H 0.62274 0.36453 0.03352 0.0
C1504 C 0.7357 0.36539 0.08372 0.0
C1505 C 0.72595 0.37975 0.09917 0.0
C1506 C 0.72453 0.35911 0.06462 0.0
C1507 C 0.70342 0.36742 0.05985 0.0
C1508 C 0.69355 0.38186 0.0752 0.0
C1509 C 0.70465 0.38789 0.09469 0.0
C1510 C 0.69173 0.3602 0.03924 0.0
C1511 C 0.67008 0.35195 0.04064 0.0
C1512 C 0.70261 0.35945 0.01854 0.0
C1513 C 0.72444 0.36996 0.01502 0.0
C1514 C 0.72791 0.39215 0.02096 0.0
C1515 C 0.74853 0.40193 0.01781 0.0
C1516 C 0.76579 0.38974 1.0086 0.0
C1517 C 0.76245 0.36774 1.00249 0.0
C1518 C 0.74187 0.35787 1.00562 0.0
C1519 C 0.63839 0.32552 0.95057 0.0
C1520 C 0.64793 0.30519 0.94438 0.0
C1521 C 0.64534 0.3365 0.9698 0.0
C1522 C 0.66218 0.32754 0.98298 0.0
C1523 C 0.67138 0.30712 0.97705 0.0
C1524 C 0.66421 0.29599 0.95818 0.0
C1525 C 0.67128 0.33973 1.00231 0.0
C1526 C 0.69241 0.34891 1.00057 0.0
C1527 C 0.65975 0.34179 0.02245 0.0
C1528 C 0.6372 0.33287 0.02516 0.0
C1529 C 0.63296 0.31023 0.02218 0.0
C1530 C 0.61159 0.30201 0.02471 0.0
C1531 C 0.59435 0.31626 0.03038 0.0
C1532 C 0.59847 0.33874 0.03359 0.0
C1533 C 0.61981 0.34704 0.03106 0.0
H1534 H 0.57782 0.30986 0.03234 0.0
H1535 H 0.78174 0.39734 1.00618 0.0
H1536 H 0.17323 0.3297 0.23962 0.0
H1537 H 0.19785 0.30265 0.2571 0.0
H1538 H 0.15541 0.30121 0.31405 0.0
H1539 H 0.13122 0.32846 0.29679 0.0
H1540 H 0.21972 0.31259 0.29551 0.0
H1541 H 0.16098 0.25219 0.3407 0.0
H1542 H 0.12577 0.233 0.33404 0.0
H1543 H 0.13664 0.23645 0.26427 0.0
H1544 H 0.17205 0.25538 0.2705 0.0
H1545 H 0.24021 0.22802 0.3921 0.0
H1546 H 0.21908 0.25487 0.37068 0.0
H1547 H 0.26839 0.25277 0.31956 0.0
H1548 H 0.28972 0.2261 0.34125 0.0
H1549 H 0.20194 0.24173 0.33214 0.0
H1550 H 0.26011 0.30316 0.28649 0.0
H1551 H 0.2945 0.32384 0.2928 0.0
H1552 H 0.2852 0.31881 0.36265 0.0
H1553 H 0.25031 0.29892 0.35682 0.0
C1554 C 0.16861 0.32269 0.25535 0.0
C1555 C 0.15014 0.33083 0.2667 0.0
C1556 C 0.18286 0.30752 0.26549 0.0
C1557 C 0.17852 0.2999 0.28694 0.0
C1558 C 0.15901 0.30661 0.29744 0.0
C1559 C 0.14504 0.32202 0.28747 0.0
C1560 C 0.19537 0.28714 0.29947 0.0
C1561 C 0.21611 0.2968 0.30304 0.0
C1562 C 0.1903 0.26695 0.31 0.0
C1563 C 0.1691 0.25539 0.30608 0.0
C1564 C 0.15591 0.24877 0.32394 0.0
C1565 C 0.1359 0.23795 0.32024 0.0
C1566 C 0.12895 0.23357 0.29875 0.0
C1567 C 0.14201 0.23994 0.28091 0.0
C1568 C 0.16203 0.25075 0.28452 0.0
C1569 C 0.2472 0.23434 0.37693 0.0
C1570 C 0.26684 0.22539 0.36857 0.0
C1571 C 0.23491 0.24937 0.36448 0.0
C1572 C 0.24197 0.25565 0.34336 0.0
C1573 C 0.26266 0.24835 0.33586 0.0
C1574 C 0.27505 0.23336 0.34844 0.0
C1575 C 0.22638 0.26726 0.3283 0.0
C1576 C 0.2058 0.25737 0.32431 0.0
C1577 C 0.2317 0.2872 0.31733 0.0
C1578 C 0.2528 0.29902 0.32117 0.0
C1579 C 0.26542 0.3064 0.3032 0.0
C1580 C 0.28498 0.31805 0.30669 0.0
C1581 C 0.29219 0.32236 0.32809 0.0
C1582 C 0.27971 0.31526 0.34607 0.0
C1583 C 0.26001 0.3038 0.34267 0.0
H1584 H 0.30737 0.33135 0.33075 0.0
H1585 H 0.11345 0.22519 0.29592 0.0
H1586 H 0.80491 0.27335 0.37577 0.0
H1587 H 0.77443 0.25362 0.35752 0.0
H1588 H 0.81318 0.19371 0.35822 0.0
H1589 H 0.84175 0.21219 0.37819 0.0
H1590 H 0.77029 0.23685 0.32047 0.0
H1591 H 0.78776 0.1477 0.35418 0.0
H1592 H 0.7974 0.12989 0.38942 0.0
H1593 H 0.77134 0.18548 0.42484 0.0
H1594 H 0.76125 0.2035 0.38984 0.0
H1595 H 0.7128 0.16329 0.24784 0.0
H1596 H 0.74158 0.18323 0.26818 0.0
H1597 H 0.71465 0.15777 0.32903 0.0
H1598 H 0.68869 0.13593 0.30853 0.0
H1599 H 0.75137 0.15899 0.33669 0.0
H1600 H 0.71223 0.23008 0.31119 0.0
H1601 H 0.69897 0.25822 0.28483 0.0
H1602 H 0.75517 0.24632 0.24356 0.0
H1603 H 0.76916 0.21873 0.2702 0.0
C1604 C 0.80636 0.25576 0.37286 0.0
C1605 C 0.82578 0.24443 0.37856 0.0
C1606 C 0.78911 0.24452 0.3621 0.0
C1607 C 0.79119 0.22192 0.35665 0.0
C1608 C 0.81047 0.21077 0.36282 0.0
C1609 C 0.82711 0.22162 0.37412 0.0
C1610 C 0.77423 0.20995 0.34335 0.0
C1611 C 0.76575 0.21994 0.32429 0.0
C1612 C 0.76804 0.18791 0.34817 0.0
C1613 C 0.77389 0.17703 0.36934 0.0
C1614 C 0.78396 0.15607 0.36948 0.0
C1615 C 0.78954 0.14595 0.38942 0.0
C1616 C 0.78504 0.15657 0.40935 0.0
C1617 C 0.77489 0.17731 0.40939 0.0
C1618 C 0.76926 0.1875 0.3895 0.0
C1619 C 0.71409 0.16112 0.26537 0.0
C1620 C 0.69886 0.14766 0.2764 0.0
C1621 C 0.72993 0.17328 0.27724 0.0
C1622 C 0.73025 0.1728 0.30049 0.0
C1623 C 0.71535 0.15862 0.31124 0.0
C1624 C 0.70036 0.14593 0.29941 0.0
C1625 C 0.74612 0.18611 0.31412 0.0
C1626 C 0.75509 0.17612 0.33309 0.0
C1627 C 0.7514 0.20862 0.31 0.0
C1628 C 0.74132 0.22188 0.29225 0.0
C1629 C 0.72149 0.23317 0.29626 0.0
C1630 C 0.71411 0.24934 0.28153 0.0
C1631 C 0.72623 0.25404 0.26254 0.0
C1632 C 0.74578 0.2426 0.25825 0.0
C1633 C 0.7535 0.22679 0.27319 0.0
H1634 H 0.7205 0.26655 0.25115 0.0
H1635 H 0.78939 0.14872 0.42476 0.0
H1636 H 0.86075 0.70902 0.2501 0.0
H1637 H 0.83722 0.73618 0.26842 0.0
H1638 H 0.87782 0.73184 0.32666 0.0
H1639 H 0.90101 0.70443 0.30838 0.0
H1640 H 0.83827 0.72223 0.33741 0.0
H1641 H 0.86898 0.78168 0.29384 0.0
H1642 H 0.87966 0.80051 0.25944 0.0
H1643 H 0.8126 0.79834 0.23696 0.0
H1644 H 0.80156 0.77925 0.2711 0.0
H1645 H 0.78691 0.80604 0.40224 0.0
H1646 H 0.80918 0.7793 0.38181 0.0
H1647 H 0.76443 0.78436 0.32682 0.0
H1648 H 0.74275 0.81156 0.34713 0.0
H1649 H 0.80386 0.79246 0.31333 0.0
H1650 H 0.7723 0.73518 0.35627 0.0
H1651 H 0.76027 0.71569 0.38977 0.0
H1652 H 0.8272 0.71261 0.41256 0.0
H1653 H 0.83965 0.73233 0.37928 0.0
C1654 C 0.86534 0.71483 0.26634 0.0
C1655 C 0.88283 0.70481 0.27775 0.0
C1656 C 0.85169 0.73021 0.277 0.0
C1657 C 0.85538 0.73586 0.29923 0.0
C1658 C 0.87433 0.72759 0.30968 0.0
C1659 C 0.88783 0.71217 0.29911 0.0
C1660 C 0.83824 0.74767 0.31253 0.0
C1661 C 0.83113 0.73786 0.33233 0.0
C1662 C 0.82785 0.7674 0.30544 0.0
C1663 C 0.83449 0.77889 0.28495 0.0
C1664 C 0.85654 0.78508 0.28149 0.0
C1665 C 0.86265 0.79583 0.26205 0.0
C1666 C 0.84683 0.80058 0.24601 0.0
C1667 C 0.82484 0.79464 0.24939 0.0
C1668 C 0.81865 0.78389 0.26879 0.0
C1669 C 0.78103 0.80026 0.38641 0.0
C1670 C 0.7624 0.81002 0.37672 0.0
C1671 C 0.79397 0.78519 0.37453 0.0
C1672 C 0.78851 0.77965 0.35268 0.0
C1673 C 0.76896 0.78816 0.34366 0.0
C1674 C 0.75611 0.80322 0.35554 0.0
C1675 C 0.80447 0.76734 0.3385 0.0
C1676 C 0.81115 0.77691 0.31847 0.0
C1677 C 0.81433 0.74727 0.34526 0.0
C1678 C 0.80691 0.73537 0.3653 0.0
C1679 C 0.78446 0.73047 0.36846 0.0
C1680 C 0.77756 0.71936 0.38741 0.0
C1681 C 0.79295 0.71294 0.4033 0.0
C1682 C 0.81529 0.71759 0.40024 0.0
C1683 C 0.82229 0.72871 0.38131 0.0
H1684 H 0.78758 0.70435 0.41797 0.0
H1685 H 0.8516 0.8089 0.23097 0.0
H1686 H 0.32395 0.90028 0.30031 0.0
H1687 H 0.29811 0.87594 0.3194 0.0
H1688 H 0.29975 0.83084 0.26443 0.0
H1689 H 0.32513 0.85562 0.24501 0.0
H1690 H 0.25896 0.83182 0.28514 0.0
H1691 H 0.33584 0.82668 0.3071 0.0
H1692 H 0.37048 0.84273 0.32125 0.0
H1693 H 0.33813 0.86074 0.38141 0.0
H1694 H 0.30314 0.84555 0.36745 0.0
H1695 H 0.22246 0.739 0.3442 0.0
H1696 H 0.24811 0.76159 0.32279 0.0
H1697 H 0.25162 0.80827 0.37632 0.0
H1698 H 0.22586 0.78563 0.39759 0.0
H1699 H 0.29088 0.80521 0.35559 0.0
H1700 H 0.21621 0.81921 0.33581 0.0
H1701 H 0.17813 0.81414 0.32249 0.0
H1702 H 0.20262 0.78651 0.26211 0.0
H1703 H 0.24084 0.79143 0.27522 0.0
C1704 C 0.31785 0.88576 0.29183 0.0
C1705 C 0.32627 0.87997 0.27108 0.0
C1706 C 0.3034 0.87166 0.30291 0.0
C1707 C 0.29757 0.85122 0.29365 0.0
C1708 C 0.30417 0.84644 0.27197 0.0
C1709 C 0.31843 0.86076 0.26073 0.0
C1710 C 0.28647 0.83408 0.30731 0.0
C1711 C 0.26614 0.82567 0.30032 0.0
C1712 C 0.29549 0.82664 0.32757 0.0
C1713 C 0.3168 0.83508 0.33616 0.0
C1714 C 0.33607 0.83415 0.32331 0.0
C1715 C 0.35576 0.84311 0.33127 0.0
C1716 C 0.3565 0.85267 0.35219 0.0
C1717 C 0.33755 0.85332 0.36521 0.0
C1718 C 0.31777 0.84458 0.35727 0.0
C1719 C 0.22987 0.75327 0.35194 0.0
C1720 C 0.22276 0.76014 0.37285 0.0
C1721 C 0.24405 0.76654 0.33945 0.0
C1722 C 0.25147 0.78688 0.34777 0.0
C1723 C 0.24609 0.79269 0.36951 0.0
C1724 C 0.23168 0.77955 0.38185 0.0
C1725 C 0.26334 0.80288 0.33339 0.0
C1726 C 0.28386 0.81106 0.34022 0.0
C1727 C 0.25419 0.81067 0.31335 0.0
C1728 C 0.23134 0.80545 0.30653 0.0
C1729 C 0.21345 0.81175 0.31984 0.0
C1730 C 0.19185 0.80915 0.31224 0.0
C1731 C 0.18795 0.80023 0.29137 0.0
C1732 C 0.20565 0.7936 0.27819 0.0
C1733 C 0.22726 0.79626 0.2857 0.0
H1734 H 0.17122 0.7982 0.28553 0.0
H1735 H 0.37176 0.85958 0.3583 0.0
H1736 H 0.1618 0.72311 0.79992 0.0
H1737 H 0.18034 0.75372 0.78172 0.0
H1738 H 0.13192 0.75203 0.72967 0.0
H1739 H 0.11357 0.72126 0.74791 0.0
H1740 H 0.16833 0.74215 0.71297 0.0
H1741 H 0.14842 0.80047 0.76365 0.0
H1742 H 0.14463 0.81856 0.79984 0.0
H1743 H 0.21442 0.81329 0.81015 0.0
H1744 H 0.21862 0.79469 0.77428 0.0
H1745 H 0.21397 0.82404 0.64365 0.0
H1746 H 0.19276 0.80023 0.66811 0.0
H1747 H 0.24811 0.79635 0.71255 0.0
H1748 H 0.2695 0.82026 0.6878 0.0
H1749 H 0.2107 0.80882 0.73395 0.0
H1750 H 0.23124 0.75057 0.68572 0.0
H1751 H 0.23697 0.73162 0.65024 0.0
H1752 H 0.16765 0.73561 0.63654 0.0
H1753 H 0.16153 0.75486 0.67182 0.0
C1754 C 0.1543 0.73027 0.78537 0.0
C1755 C 0.13625 0.71987 0.77531 0.0
C1756 C 0.16514 0.74767 0.77468 0.0
C1757 C 0.15815 0.75474 0.75371 0.0
C1758 C 0.13805 0.74658 0.74552 0.0
C1759 C 0.1273 0.72919 0.75615 0.0
C1760 C 0.17358 0.7665 0.73844 0.0
C1761 C 0.17706 0.75711 0.7175 0.0
C1762 C 0.18632 0.78514 0.74461 0.0
C1763 C 0.18378 0.79604 0.76632 0.0
C1764 C 0.16293 0.80296 0.77373 0.0
C1765 C 0.16072 0.81331 0.79419 0.0
C1766 C 0.17927 0.81699 0.80732 0.0
C1767 C 0.20008 0.81033 0.80001 0.0
C1768 C 0.20238 0.7999 0.77961 0.0
C1769 C 0.22196 0.81728 0.65813 0.0
C1770 C 0.2435 0.82369 0.66365 0.0
C1771 C 0.20975 0.80383 0.67224 0.0
C1772 C 0.21877 0.79656 0.69227 0.0
C1773 C 0.24079 0.80181 0.69721 0.0
C1774 C 0.25315 0.81513 0.68289 0.0
C1775 C 0.2045 0.7849 0.70847 0.0
C1776 C 0.20156 0.79408 0.72952 0.0
C1777 C 0.19236 0.7659 0.70259 0.0
C1778 C 0.19596 0.75435 0.68133 0.0
C1779 C 0.21724 0.74758 0.67506 0.0
C1780 C 0.22055 0.73675 0.655 0.0
C1781 C 0.2027 0.73246 0.64112 0.0
C1782 C 0.18147 0.73896 0.6473 0.0
C1783 C 0.17807 0.74981 0.66734 0.0
H1784 H 0.2053 0.72407 0.6256 0.0
H1785 H 0.17754 0.82505 0.82313 0.0
H1786 H 0.30856 0.11866 0.75454 0.0
H1787 H 0.28078 0.1413 0.73588 0.0
H1788 H 0.30065 0.19754 0.77472 0.0
H1789 H 0.32668 0.17445 0.79467 0.0
H1790 H 0.2637 0.20631 0.76348 0.0
H1791 H 0.32473 0.18246 0.72246 0.0
H1792 H 0.3513 0.15601 0.70666 0.0
H1793 H 0.29998 0.12746 0.66718 0.0
H1794 H 0.27298 0.15349 0.6831 0.0
H1795 H 0.22321 0.27875 0.6758 0.0
H1796 H 0.25119 0.26098 0.6991 0.0
H1797 H 0.22431 0.1971 0.68287 0.0
H1798 H 0.19716 0.21452 0.65921 0.0
H1799 H 0.26952 0.19706 0.68259 0.0
H1800 H 0.2148 0.22008 0.75309 0.0
H1801 H 0.20047 0.25049 0.77624 0.0
H1802 H 0.25589 0.29075 0.75856 0.0
H1803 H 0.27083 0.26035 0.73593 0.0
C1804 C 0.3058 0.13544 0.76012 0.0
C1805 C 0.3195 0.14472 0.77626 0.0
C1806 C 0.2904 0.14862 0.749 0.0
C1807 C 0.28935 0.17152 0.75305 0.0
C1808 C 0.30118 0.18007 0.77101 0.0
C1809 C 0.31591 0.16671 0.7827 0.0
C1810 C 0.27794 0.18684 0.7374 0.0
C1811 C 0.26513 0.20423 0.7458 0.0
C1812 C 0.28056 0.18515 0.71422 0.0
C1813 C 0.29679 0.1698 0.70412 0.0
C1814 C 0.31909 0.17049 0.71046 0.0
C1815 C 0.33423 0.15556 0.70151 0.0
C1816 C 0.32733 0.14003 0.68596 0.0
C1817 C 0.30529 0.13948 0.67926 0.0
C1818 C 0.29005 0.15432 0.68825 0.0
C1819 C 0.22355 0.26093 0.67693 0.0
C1820 C 0.20779 0.24814 0.66571 0.0
C1821 C 0.23931 0.25076 0.69064 0.0
C1822 C 0.23947 0.22765 0.69343 0.0
C1823 C 0.22446 0.21494 0.68128 0.0
C1824 C 0.20891 0.22499 0.66764 0.0
C1825 C 0.25483 0.21601 0.70877 0.0
C1826 C 0.2683 0.19911 0.70029 0.0
C1827 C 0.25426 0.21919 0.73183 0.0
C1828 C 0.24346 0.23832 0.74226 0.0
C1829 C 0.22361 0.23562 0.75377 0.0
C1830 C 0.21559 0.25271 0.76704 0.0
C1831 C 0.22722 0.27253 0.7687 0.0
C1832 C 0.24681 0.27544 0.75706 0.0
C1833 C 0.25507 0.2583 0.74406 0.0
H1834 H 0.2213 0.2855 0.77928 0.0
H1835 H 0.33906 0.12845 0.67907 0.0
H1836 H 0.74915 0.21439 0.68062 0.0
H1837 H 0.76999 0.24151 0.70169 0.0
H1838 H 0.8137 0.25057 0.64644 0.0
H1839 H 0.79256 0.22336 0.6254 0.0
H1840 H 0.83535 0.23645 0.68227 0.0
H1841 H 0.78085 0.29314 0.66791 0.0
H1842 H 0.74356 0.30937 0.66759 0.0
H1843 H 0.73924 0.30176 0.73774 0.0
H1844 H 0.77638 0.2852 0.73847 0.0
H1845 H 0.90585 0.31964 0.72381 0.0
H1846 H 0.88215 0.29281 0.70558 0.0
H1847 H 0.83768 0.29454 0.76099 0.0
H1848 H 0.86094 0.32247 0.77839 0.0
H1849 H 0.81535 0.30188 0.7271 0.0
H1850 H 0.86729 0.24577 0.74362 0.0
H1851 H 0.90369 0.22788 0.74666 0.0
H1852 H 0.91157 0.23113 0.67648 0.0
H1853 H 0.87533 0.24933 0.67303 0.0
C1854 C 0.76204 0.22353 0.67236 0.0
C1855 C 0.76856 0.21753 0.65099 0.0
C1856 C 0.77434 0.23872 0.68462 0.0
C1857 C 0.79354 0.24809 0.67573 0.0
C1858 C 0.79894 0.24359 0.65367 0.0
C1859 C 0.7866 0.22839 0.64144 0.0
C1860 C 0.80962 0.25969 0.69025 0.0
C1861 C 0.83108 0.25101 0.69179 0.0
C1862 C 0.80374 0.27786 0.70369 0.0
C1863 C 0.78134 0.28772 0.7032 0.0
C1864 C 0.77188 0.29474 0.68325 0.0
C1865 C 0.75079 0.30407 0.683 0.0
C1866 C 0.73903 0.30658 0.70262 0.0
C1867 C 0.74836 0.29982 0.72255 0.0
C1868 C 0.76944 0.29046 0.72289 0.0
C1869 C 0.89177 0.31319 0.73268 0.0
C1870 C 0.8858 0.32229 0.75309 0.0
C1871 C 0.87802 0.29797 0.72215 0.0
C1872 C 0.85806 0.29136 0.73192 0.0
C1873 C 0.85304 0.29912 0.75315 0.0
C1874 C 0.86672 0.31453 0.76354 0.0
C1875 C 0.8413 0.2789 0.71885 0.0
C1876 C 0.81968 0.28729 0.71765 0.0
C1877 C 0.84685 0.2601 0.70612 0.0
C1878 C 0.86864 0.24909 0.70809 0.0
C1879 C 0.87684 0.24282 0.72884 0.0
C1880 C 0.89744 0.2326 0.73064 0.0
C1881 C 0.90995 0.22842 0.71178 0.0
C1882 C 0.90186 0.2344 0.69108 0.0
C1883 C 0.88128 0.24464 0.68919 0.0
H1884 H 0.9259 0.2205 0.71321 0.0
H1885 H 0.72268 0.31376 0.70239 0.0
H1886 H 0.81804 0.7938 0.6123 0.0
H1887 H 0.78915 0.81463 0.63124 0.0
H1888 H 0.78652 0.76452 0.68166 0.0
H1889 H 0.81511 0.74343 0.6624 0.0
H1890 H 0.74531 0.7862 0.67367 0.0
H1891 H 0.82277 0.80583 0.68383 0.0
H1892 H 0.8589 0.81814 0.66969 0.0
H1893 H 0.82937 0.87775 0.64525 0.0
H1894 H 0.79306 0.8656 0.65894 0.0
H1895 H 0.71334 0.84608 0.76812 0.0
H1896 H 0.73721 0.82416 0.74382 0.0
H1897 H 0.73885 0.87791 0.69732 0.0
H1898 H 0.71458 0.89956 0.72128 0.0
H1899 H 0.77907 0.85574 0.70076 0.0
H1900 H 0.70583 0.84226 0.68444 0.0
H1901 H 0.66641 0.83264 0.68491 0.0
H1902 H 0.68218 0.76754 0.70814 0.0
H1903 H 0.72177 0.77693 0.70825 0.0
C1904 C 0.81027 0.78656 0.62665 0.0
C1905 C 0.81855 0.76686 0.63573 0.0
C1906 C 0.79403 0.79866 0.63768 0.0
C1907 C 0.78615 0.79143 0.65818 0.0
C1908 C 0.79246 0.77046 0.66591 0.0
C1909 C 0.80858 0.75822 0.65473 0.0
C1910 C 0.77401 0.80685 0.67293 0.0
C1911 C 0.75279 0.80119 0.67997 0.0
C1912 C 0.78333 0.82714 0.68001 0.0
C1913 C 0.80526 0.83472 0.67233 0.0
C1914 C 0.82406 0.82153 0.67543 0.0
C1915 C 0.84452 0.82844 0.66743 0.0
C1916 C 0.84642 0.84866 0.6565 0.0
C1917 C 0.82786 0.86205 0.65364 0.0
C1918 C 0.80735 0.85516 0.66153 0.0
C1919 C 0.7198 0.85365 0.7533 0.0
C1920 C 0.71249 0.87471 0.74679 0.0
C1921 C 0.73293 0.8409 0.73915 0.0
C1922 C 0.73926 0.84918 0.71849 0.0
C1923 C 0.73398 0.8711 0.71308 0.0
C1924 C 0.72049 0.88365 0.72699 0.0
C1925 C 0.75054 0.83472 0.70219 0.0
C1926 C 0.7716 0.84061 0.69478 0.0
C1927 C 0.74058 0.81525 0.69382 0.0
C1928 C 0.71679 0.81045 0.69679 0.0
C1929 C 0.7009 0.82607 0.6902 0.0
C1930 C 0.67853 0.82057 0.6901 0.0
C1931 C 0.67181 0.79945 0.69648 0.0
C1932 C 0.68744 0.78386 0.70319 0.0
C1933 C 0.70983 0.7893 0.70337 0.0
H1934 H 0.65449 0.79521 0.69637 0.0
H1935 H 0.86227 0.85397 0.6503 0.0
H1936 H 0.25242 0.1912 0.3066 0.0
H1937 H 0.27384 0.21296 0.28011 0.0
H1938 H 0.32562 0.16411 0.2822 0.0
H1939 H 0.30431 0.14252 0.30869 0.0
H1940 H 0.33961 0.20512 0.29511 0.0
H1941 H 0.29939 0.1732 0.23543 0.0
H1942 H 0.26641 0.16252 0.21426 0.0
H1943 H 0.24783 0.23074 0.20813 0.0
H1944 H 0.28052 0.24171 0.22957 0.0
H1945 H 0.41291 0.24733 0.21276 0.0
H1946 H 0.38998 0.22796 0.23955 0.0
H1947 H 0.33844 0.27597 0.2294 0.0
H1948 H 0.36193 0.29617 0.20414 0.0
H1949 H 0.32339 0.23686 0.22166 0.0
H1950 H 0.36667 0.26831 0.27972 0.0
H1951 H 0.40014 0.27758 0.30059 0.0
H1952 H 0.41448 0.20861 0.30905 0.0
H1953 H 0.38115 0.19885 0.28802 0.0
C1954 C 0.26771 0.18443 0.30029 0.0
C1955 C 0.27654 0.16496 0.30933 0.0
C1956 C 0.28013 0.19706 0.28542 0.0
C1957 C 0.30147 0.19029 0.27939 0.0
C1958 C 0.30927 0.16972 0.28672 0.0
C1959 C 0.29691 0.15718 0.30154 0.0
C1960 C 0.31676 0.2057 0.26799 0.0
C1961 C 0.33625 0.21185 0.27889 0.0
C1962 C 0.31201 0.21496 0.24717 0.0
C1963 C 0.29226 0.20831 0.23437 0.0
C1964 C 0.28814 0.18591 0.22979 0.0
C1965 C 0.26952 0.17978 0.21769 0.0
C1966 C 0.25498 0.19593 0.20992 0.0
C1967 C 0.25906 0.21823 0.2142 0.0
C1968 C 0.27764 0.22441 0.22632 0.0
C1969 C 0.39749 0.25483 0.21783 0.0
C1970 C 0.38947 0.2736 0.2068 0.0
C1971 C 0.38411 0.24345 0.23279 0.0
C1972 C 0.36242 0.25062 0.23682 0.0
C1973 C 0.35526 0.2705 0.2273 0.0
C1974 C 0.36892 0.28228 0.21302 0.0
C1975 C 0.3465 0.23614 0.24866 0.0
C1976 C 0.32682 0.23021 0.23789 0.0
C1977 C 0.35119 0.2269 0.26956 0.0
C1978 C 0.37133 0.23283 0.28219 0.0
C1979 C 0.37693 0.25507 0.28594 0.0
C1980 C 0.39592 0.26043 0.29782 0.0
C1981 C 0.40944 0.2437 0.30614 0.0
C1982 C 0.40399 0.22156 0.30261 0.0
C1983 C 0.38502 0.21611 0.29074 0.0
H1984 H 0.42414 0.24788 0.31532 0.0
H1985 H 0.24059 0.19116 0.20054 0.0
H1986 H 0.85722 0.23967 0.32298 0.0
H1987 H 0.83312 0.25926 0.29734 0.0
H1988 H 0.8831 0.30912 0.28846 0.0
H1989 H 0.90668 0.28996 0.31491 0.0
H1990 H 0.84716 0.32728 0.30298 0.0
H1991 H 0.86248 0.27429 0.24572 0.0
H1992 H 0.86496 0.23741 0.22866 0.0
H1993 H 0.79566 0.22759 0.23889 0.0
H1994 H 0.79284 0.26423 0.25652 0.0
H1995 H 0.80065 0.39344 0.21937 0.0
H1996 H 0.82051 0.37088 0.24599 0.0
H1997 H 0.76487 0.32675 0.25033 0.0
H1998 H 0.74516 0.34932 0.22324 0.0
H1999 H 0.80033 0.30426 0.24022 0.0
H2000 H 0.78417 0.35683 0.29607 0.0
H2001 H 0.78069 0.3937 0.31299 0.0
H2002 H 0.85032 0.40397 0.30583 0.0
H2003 H 0.8542 0.36727 0.2886 0.0
C2004 C 0.86363 0.254 0.3144 0.0
C2005 C 0.88408 0.263 0.32051 0.0
C2006 C 0.84966 0.26543 0.29993 0.0
C2007 C 0.85612 0.28587 0.29103 0.0
C2008 C 0.87762 0.29348 0.29518 0.0
C2009 C 0.89139 0.28224 0.3099 0.0
C2010 C 0.83969 0.30087 0.28036 0.0
C2011 C 0.8372 0.3223 0.289 0.0
C2012 C 0.82574 0.29412 0.26291 0.0
C2013 C 0.82751 0.27192 0.25268 0.0
C2014 C 0.84782 0.26417 0.2446 0.0
C2015 C 0.84928 0.24331 0.2348 0.0
C2016 C 0.83049 0.23013 0.2328 0.0
C2017 C 0.8102 0.23778 0.24057 0.0
C2018 C 0.80867 0.25858 0.25047 0.0
C2019 C 0.79216 0.37967 0.22698 0.0
C2020 C 0.77116 0.3734 0.21954 0.0
C2021 C 0.80363 0.36658 0.2421 0.0
C2022 C 0.79429 0.34698 0.25023 0.0
C2023 C 0.77248 0.34177 0.24431 0.0
C2024 C 0.76098 0.35495 0.22915 0.0
C2025 C 0.80832 0.33082 0.26247 0.0
C2026 C 0.81025 0.30916 0.25426 0.0
C2027 C 0.82167 0.33726 0.28044 0.0
C2028 C 0.81945 0.35933 0.29091 0.0
C2029 C 0.79873 0.36701 0.29797 0.0
C2030 C 0.79668 0.38787 0.30764 0.0
C2031 C 0.81526 0.40118 0.31045 0.0
C2032 C 0.83594 0.39364 0.30364 0.0
C2033 C 0.83808 0.37279 0.29395 0.0
H2034 H 0.81364 0.41733 0.31794 0.0
H2035 H 0.83165 0.21401 0.22515 0.0
H2036 H 0.61017 0.78236 0.21296 0.0
H2037 H 0.63223 0.80039 0.24141 0.0
H2038 H 0.67993 0.74765 0.23768 0.0
H2039 H 0.6575 0.72933 0.20968 0.0
H2040 H 0.67893 0.76695 0.27914 0.0
H2041 H 0.68417 0.79143 0.2032 0.0
H2042 H 0.66934 0.80577 0.16814 0.0
H2043 H 0.64431 0.86311 0.20131 0.0
H2044 H 0.65882 0.84912 0.23663 0.0
H2045 H 0.76964 0.83339 0.31431 0.0
H2046 H 0.74716 0.80914 0.29091 0.0
H2047 H 0.69694 0.85955 0.28747 0.0
H2048 H 0.71919 0.88348 0.31105 0.0
H2049 H 0.70095 0.83979 0.24881 0.0
H2050 H 0.68852 0.81551 0.32333 0.0
H2051 H 0.69553 0.80073 0.36057 0.0
H2052 H 0.72957 0.74514 0.33273 0.0
H2053 H 0.72242 0.75942 0.29526 0.0
C2054 C 0.6245 0.77381 0.21939 0.0
C2055 C 0.63197 0.75431 0.20928 0.0
C2056 C 0.63742 0.7844 0.23528 0.0
C2057 C 0.65815 0.77579 0.24107 0.0
C2058 C 0.66411 0.75474 0.23333 0.0
C2059 C 0.65102 0.74402 0.2176 0.0
C2060 C 0.67469 0.78994 0.2525 0.0
C2061 C 0.68403 0.78272 0.27235 0.0
C2062 C 0.68106 0.81075 0.24387 0.0
C2063 C 0.67246 0.81916 0.22259 0.0
C2064 C 0.6754 0.80704 0.20305 0.0
C2065 C 0.66707 0.81509 0.18314 0.0
C2066 C 0.65587 0.83527 0.18252 0.0
C2067 C 0.65299 0.84747 0.20182 0.0
C2068 C 0.66129 0.83952 0.22178 0.0
C2069 C 0.7543 0.83966 0.30762 0.0
C2070 C 0.74644 0.86059 0.31394 0.0
C2071 C 0.7412 0.82558 0.29471 0.0
C2072 C 0.72012 0.83232 0.28774 0.0
C2073 C 0.71307 0.85389 0.29267 0.0
C2074 C 0.72597 0.86776 0.30581 0.0
C2075 C 0.70505 0.817 0.27572 0.0
C2076 C 0.69609 0.82393 0.25556 0.0
C2077 C 0.69877 0.79612 0.28427 0.0
C2078 C 0.7052 0.78868 0.30657 0.0
C2079 C 0.69774 0.80027 0.32518 0.0
C2080 C 0.70145 0.79182 0.34629 0.0
C2081 C 0.71284 0.77191 0.34898 0.0
C2082 C 0.72062 0.76046 0.33057 0.0
C2083 C 0.71671 0.7687 0.30941 0.0
H2084 H 0.71583 0.76547 0.36534 0.0
H2085 H 0.64954 0.84149 0.16705 0.0
H2086 H 0.23899 0.61069 0.20828 0.0
H2087 H 0.22058 0.6315 0.23752 0.0
H2088 H 0.27478 0.67734 0.23924 0.0
H2089 H 0.29356 0.65609 0.21052 0.0
H2090 H 0.24639 0.66521 0.2836 0.0
H2091 H 0.23449 0.71317 0.21066 0.0
H2092 H 0.22967 0.71231 0.17033 0.0
H2093 H 0.18869 0.65481 0.17614 0.0
H2094 H 0.19285 0.65574 0.21656 0.0
H2095 H 0.19582 0.76323 0.32065 0.0
H2096 H 0.21768 0.74103 0.29509 0.0
H2097 H 0.16058 0.70114 0.28104 0.0
H2098 H 0.13876 0.72338 0.30697 0.0
H2099 H 0.19116 0.71039 0.2432 0.0
H2100 H 0.18962 0.68384 0.31825 0.0
H2101 H 0.19444 0.68645 0.35844 0.0
H2102 H 0.26304 0.70133 0.34966 0.0
H2103 H 0.25847 0.6995 0.30933 0.0
C2104 C 0.24776 0.62417 0.21609 0.0
C2105 C 0.26788 0.63154 0.20732 0.0
C2106 C 0.23698 0.63638 0.23245 0.0
C2107 C 0.2461 0.65623 0.24015 0.0
C2108 C 0.26745 0.66208 0.23351 0.0
C2109 C 0.27838 0.64964 0.21736 0.0
C2110 C 0.23204 0.67241 0.25204 0.0
C2111 C 0.23437 0.67515 0.27483 0.0
C2112 C 0.21639 0.6854 0.24061 0.0
C2113 C 0.21424 0.68433 0.21645 0.0
C2114 C 0.22455 0.7003 0.20327 0.0
C2115 C 0.22188 0.69984 0.18042 0.0
C2116 C 0.20911 0.68333 0.17062 0.0
C2117 C 0.19878 0.66742 0.1837 0.0
C2118 C 0.20121 0.66796 0.20657 0.0
C2119 C 0.1876 0.75067 0.31101 0.0
C2120 C 0.16538 0.74567 0.31507 0.0
C2121 C 0.20022 0.73766 0.29678 0.0
C2122 C 0.19082 0.71929 0.28637 0.0
C2123 C 0.16813 0.71532 0.28887 0.0
C2124 C 0.15556 0.72823 0.3034 0.0
C2125 C 0.2051 0.70296 0.27494 0.0
C2126 C 0.20305 0.70041 0.25213 0.0
C2127 C 0.22099 0.69018 0.28648 0.0
C2128 C 0.22364 0.69177 0.31073 0.0
C2129 C 0.20566 0.68799 0.32485 0.0
C2130 C 0.20836 0.68925 0.34767 0.0
C2131 C 0.22905 0.69396 0.35661 0.0
C2132 C 0.24705 0.69758 0.34272 0.0
C2133 C 0.24439 0.69652 0.31987 0.0
H2134 H 0.23111 0.69493 0.37428 0.0
H2135 H 0.20712 0.68296 0.15292 0.0
H2136 H 0.38022 0.81917 0.82258 0.0
H2137 H 0.35476 0.8399 0.79915 0.0
H2138 H 0.31332 0.78239 0.79342 0.0
H2139 H 0.33912 0.76139 0.81674 0.0
H2140 H 0.33932 0.8347 0.75738 0.0
H2141 H 0.25902 0.80228 0.79895 0.0
H2142 H 0.24269 0.79537 0.83556 0.0
H2143 H 0.29266 0.83536 0.86573 0.0
H2144 H 0.30944 0.84224 0.82939 0.0
H2145 H 0.22747 0.86088 0.71 0.0
H2146 H 0.24682 0.84122 0.73936 0.0
H2147 H 0.28987 0.89718 0.74812 0.0
H2148 H 0.27093 0.91645 0.71814 0.0
H2149 H 0.26218 0.84506 0.78256 0.0
H2150 H 0.34187 0.87962 0.74717 0.0
H2151 H 0.35475 0.89864 0.7136 0.0
H2152 H 0.30623 0.86432 0.67523 0.0
H2153 H 0.2931 0.8451 0.70858 0.0
C2154 C 0.36612 0.81068 0.81563 0.0
C2155 C 0.36189 0.78853 0.82118 0.0
C2156 C 0.35139 0.82265 0.8025 0.0
C2157 C 0.33182 0.8129 0.79495 0.0
C2158 C 0.32813 0.79038 0.79937 0.0
C2159 C 0.34314 0.77823 0.81225 0.0
C2160 C 0.31553 0.82642 0.78239 0.0
C2161 C 0.3225 0.83697 0.76301 0.0
C2162 C 0.2935 0.82956 0.78958 0.0
C2163 C 0.28573 0.82239 0.81152 0.0
C2164 C 0.26674 0.80925 0.81346 0.0
C2165 C 0.2573 0.80551 0.83413 0.0
C2166 C 0.26658 0.81499 0.85293 0.0
C2167 C 0.28548 0.82803 0.85115 0.0
C2168 C 0.29514 0.83161 0.83056 0.0
C2169 C 0.24005 0.86958 0.71922 0.0
C2170 C 0.24758 0.89031 0.712 0.0
C2171 C 0.2514 0.85814 0.73577 0.0
C2172 C 0.27027 0.86744 0.7454 0.0
C2173 C 0.27565 0.8895 0.74054 0.0
C2174 C 0.2645 0.90076 0.72379 0.0
C2175 C 0.28601 0.85318 0.75775 0.0
C2176 C 0.27893 0.84242 0.77687 0.0
C2177 C 0.30809 0.85031 0.75066 0.0
C2178 C 0.31649 0.86097 0.73035 0.0
C2179 C 0.33408 0.87601 0.73153 0.0
C2180 C 0.34136 0.88689 0.71257 0.0
C2181 C 0.33128 0.88271 0.6923 0.0
C2182 C 0.31397 0.86758 0.69094 0.0
C2183 C 0.3066 0.8567 0.70986 0.0
H2184 H 0.33692 0.89115 0.67766 0.0
H2185 H 0.25921 0.81212 0.8689 0.0
H2186 H 0.22065 0.39559 0.80916 0.0
H2187 H 0.19704 0.37345 0.78489 0.0
H2188 H 0.24059 0.31775 0.79332 0.0
H2189 H 0.26466 0.34014 0.8167 0.0
H2190 H 0.207 0.34332 0.74495 0.0
H2191 H 0.19753 0.2763 0.81226 0.0
H2192 H 0.19893 0.27226 0.85259 0.0
H2193 H 0.18339 0.34107 0.86034 0.0
H2194 H 0.18133 0.34541 0.82006 0.0
H2195 H 0.16762 0.24064 0.70841 0.0
H2196 H 0.18584 0.26263 0.73635 0.0
H2197 H 0.1273 0.30202 0.74446 0.0
H2198 H 0.10965 0.28139 0.71447 0.0
H2199 H 0.16449 0.28674 0.78618 0.0
H2200 H 0.14667 0.3294 0.7195 0.0
H2201 H 0.14334 0.33388 0.67933 0.0
H2202 H 0.21171 0.31738 0.67155 0.0
H2203 H 0.21513 0.31158 0.71169 0.0
C2204 C 0.22587 0.37907 0.80466 0.0
C2205 C 0.2448 0.36976 0.81426 0.0
C2206 C 0.21217 0.3663 0.79117 0.0
C2207 C 0.21682 0.34384 0.78774 0.0
C2208 C 0.23659 0.33498 0.79591 0.0
C2209 C 0.2506 0.34793 0.80889 0.0
C2210 C 0.20037 0.32939 0.77685 0.0
C2211 C 0.19763 0.33108 0.75402 0.0
C2212 C 0.1879 0.31355 0.78875 0.0
C2213 C 0.18965 0.31127 0.81304 0.0
C2214 C 0.19441 0.29059 0.82253 0.0
C2215 C 0.19516 0.2882 0.84541 0.0
C2216 C 0.19117 0.30638 0.85903 0.0
C2217 C 0.18648 0.327 0.84977 0.0
C2218 C 0.18559 0.32945 0.8269 0.0
C2219 C 0.15802 0.25295 0.71718 0.0
C2220 C 0.13709 0.25912 0.70943 0.0
C2221 C 0.16862 0.26569 0.73311 0.0
C2222 C 0.158 0.28395 0.74252 0.0
C2223 C 0.1358 0.28798 0.73735 0.0
C2224 C 0.12551 0.27586 0.72056 0.0
C2225 C 0.17128 0.3007 0.75438 0.0
C2226 C 0.17365 0.29925 0.77727 0.0
C2227 C 0.18317 0.31702 0.74267 0.0
C2228 C 0.18101 0.31961 0.71852 0.0
C2229 C 0.16084 0.32616 0.70918 0.0
C2230 C 0.15895 0.32897 0.68642 0.0
C2231 C 0.17728 0.32575 0.67288 0.0
C2232 C 0.1975 0.31964 0.68207 0.0
C2233 C 0.19938 0.31645 0.7048 0.0
H2234 H 0.17585 0.32812 0.65527 0.0
H2235 H 0.19186 0.30453 0.87674 0.0
H2236 H 0.73264 0.13905 0.71661 0.0
H2237 H 0.71148 0.16191 0.74248 0.0
H2238 H 0.75848 0.21463 0.73459 0.0
H2239 H 0.78019 0.1914 0.70951 0.0
H2240 H 0.72406 0.1885 0.78309 0.0
H2241 H 0.71931 0.2598 0.71994 0.0
H2242 H 0.7188 0.26625 0.6798 0.0
H2243 H 0.69597 0.20001 0.66915 0.0
H2244 H 0.69591 0.19332 0.70919 0.0
H2245 H 0.68387 0.28583 0.83141 0.0
H2246 H 0.70507 0.26636 0.8033 0.0
H2247 H 0.64553 0.23581 0.77957 0.0
H2248 H 0.62434 0.25485 0.80845 0.0
H2249 H 0.68439 0.25 0.74607 0.0
H2250 H 0.66369 0.20796 0.81057 0.0
H2251 H 0.66007 0.20136 0.8504 0.0
H2252 H 0.73034 0.20498 0.85776 0.0
H2253 H 0.7343 0.21292 0.81812 0.0
C2254 C 0.7391 0.15502 0.72144 0.0
C2255 C 0.75838 0.16322 0.71162 0.0
C2256 C 0.72683 0.1682 0.73591 0.0
C2257 C 0.73324 0.19006 0.74013 0.0
C2258 C 0.75322 0.19783 0.73145 0.0
C2259 C 0.76583 0.1844 0.71747 0.0
C2260 C 0.71829 0.20515 0.75235 0.0
C2261 C 0.71546 0.20199 0.77503 0.0
C2262 C 0.70678 0.22253 0.74171 0.0
C2263 C 0.70796 0.22597 0.71756 0.0
C2264 C 0.71427 0.2466 0.70901 0.0
C2265 C 0.71393 0.25035 0.6863 0.0
C2266 C 0.70728 0.23359 0.67195 0.0
C2267 C 0.70109 0.21299 0.68028 0.0
C2268 C 0.70134 0.20918 0.70299 0.0
C2269 C 0.67508 0.27616 0.81924 0.0
C2270 C 0.65235 0.27246 0.82161 0.0
C2271 C 0.68729 0.26469 0.80346 0.0
C2272 C 0.6769 0.24949 0.78953 0.0
C2273 C 0.65381 0.24756 0.79015 0.0
C2274 C 0.64164 0.25869 0.8064 0.0
C2275 C 0.69048 0.23355 0.77685 0.0
C2276 C 0.69313 0.2366 0.75414 0.0
C2277 C 0.70165 0.2159 0.78743 0.0
C2278 C 0.69924 0.21157 0.81139 0.0
C2279 C 0.67834 0.20795 0.82073 0.0
C2280 C 0.67622 0.2039 0.84329 0.0
C2281 C 0.69495 0.20285 0.85663 0.0
C2282 C 0.71583 0.20584 0.84741 0.0
C2283 C 0.718 0.21031 0.82493 0.0
H2284 H 0.6933 0.19964 0.87408 0.0
H2285 H 0.70708 0.23651 0.65437 0.0
H2286 H 0.85157 0.78959 0.70243 0.0
H2287 H 0.82542 0.77196 0.7277 0.0
H2288 H 0.86653 0.71371 0.72922 0.0
H2289 H 0.89161 0.73083 0.70288 0.0
H2290 H 0.82706 0.70281 0.71695 0.0
H2291 H 0.85592 0.7499 0.77504 0.0
H2292 H 0.86473 0.78541 0.79289 0.0
H2293 H 0.79657 0.80441 0.78999 0.0
H2294 H 0.78741 0.76915 0.77184 0.0
H2295 H 0.79213 0.63826 0.8061 0.0
H2296 H 0.80831 0.66078 0.777 0.0
H2297 H 0.75347 0.70601 0.78105 0.0
H2298 H 0.73722 0.68334 0.81045 0.0
H2299 H 0.79257 0.7271 0.78685 0.0
H2300 H 0.76276 0.67951 0.73306 0.0
H2301 H 0.75263 0.6442 0.71555 0.0
H2302 H 0.82101 0.6267 0.71002 0.0
H2303 H 0.83156 0.66177 0.72777 0.0
C2304 C 0.85535 0.77339 0.70887 0.0
C2305 C 0.87346 0.76154 0.7006 0.0
C2306 C 0.84036 0.76323 0.72328 0.0
C2307 C 0.84374 0.74127 0.73018 0.0
C2308 C 0.8633 0.7305 0.72391 0.0
C2309 C 0.87789 0.74044 0.70916 0.0
C2310 C 0.82611 0.72842 0.74163 0.0
C2311 C 0.81977 0.70806 0.73241 0.0
C2312 C 0.81544 0.73575 0.76106 0.0
C2313 C 0.82104 0.75701 0.77179 0.0
C2314 C 0.84285 0.76175 0.77799 0.0
C2315 C 0.8479 0.78182 0.78821 0.0
C2316 C 0.83124 0.7972 0.79249 0.0
C2317 C 0.80948 0.79252 0.78661 0.0
C2318 C 0.80435 0.7725 0.77635 0.0
C2319 C 0.78295 0.65235 0.79996 0.0
C2320 C 0.76319 0.65877 0.81015 0.0
C2321 C 0.7923 0.66537 0.78344 0.0
C2322 C 0.78218 0.68521 0.77688 0.0
C2323 C 0.76159 0.69083 0.7859 0.0
C2324 C 0.75209 0.67762 0.80236 0.0
C2325 C 0.79462 0.70103 0.76278 0.0
C2326 C 0.79977 0.72199 0.77131 0.0
C2327 C 0.80415 0.69437 0.74262 0.0
C2328 C 0.79794 0.67324 0.73187 0.0
C2329 C 0.77564 0.66807 0.72826 0.0
C2330 C 0.76982 0.6481 0.71826 0.0
C2331 C 0.78616 0.63321 0.7117 0.0
C2332 C 0.80837 0.63826 0.7151 0.0
C2333 C 0.81428 0.6582 0.72509 0.0
H2334 H 0.78162 0.61776 0.70397 0.0
H2335 H 0.83519 0.81271 0.80042 0.0
H2336 H 0.21378 0.41406 0.23911 0.0
H2337 H 0.24283 0.39136 0.22254 0.0
H2338 H 0.22858 0.33921 0.26876 0.0
H2339 H 0.20065 0.36245 0.28618 0.0
H2340 H 0.26833 0.33486 0.25831 0.0
H2341 H 0.20303 0.34324 0.21686 0.0
H2342 H 0.17294 0.36343 0.19834 0.0
H2343 H 0.21939 0.3917 0.15307 0.0
H2344 H 0.24979 0.37196 0.17164 0.0
H2345 H 0.314 0.25353 0.18116 0.0
H2346 H 0.28691 0.27237 0.20491 0.0
H2347 H 0.30106 0.33403 0.1723 0.0
H2348 H 0.32723 0.31537 0.14837 0.0
H2349 H 0.25807 0.32906 0.17755 0.0
H2350 H 0.32012 0.3283 0.24312 0.0
H2351 H 0.34179 0.30727 0.27057 0.0
H2352 H 0.292 0.25693 0.27194 0.0
H2353 H 0.26992 0.27799 0.24497 0.0
C2354 C 0.21786 0.3983 0.24655 0.0
C2355 C 0.20535 0.3902 0.26421 0.0
C2356 C 0.23408 0.38508 0.23676 0.0
C2357 C 0.23736 0.36317 0.24386 0.0
C2358 C 0.22634 0.35594 0.26288 0.0
C2359 C 0.21056 0.36938 0.27305 0.0
C2360 C 0.25038 0.34718 0.23032 0.0
C2361 C 0.26601 0.33358 0.24065 0.0
C2362 C 0.2469 0.34474 0.20736 0.0
C2363 C 0.22868 0.35628 0.19578 0.0
C2364 C 0.20681 0.35384 0.20302 0.0
C2365 C 0.18971 0.36521 0.19253 0.0
C2366 C 0.19426 0.37888 0.17456 0.0
C2367 C 0.2159 0.38113 0.16701 0.0
C2368 C 0.23307 0.36985 0.17752 0.0
C2369 C 0.31077 0.27096 0.1787 0.0
C2370 C 0.32252 0.2829 0.16264 0.0
C2371 C 0.29573 0.28185 0.1927 0.0
C2372 C 0.2923 0.30482 0.19092 0.0
C2373 C 0.30343 0.31638 0.17425 0.0
C2374 C 0.31829 0.30563 0.16038 0.0
C2375 C 0.27671 0.3173 0.20541 0.0
C2376 C 0.26043 0.33034 0.19522 0.0
C2377 C 0.27885 0.31844 0.22863 0.0
C2378 C 0.29387 0.30419 0.2414 0.0
C2379 C 0.31414 0.31246 0.24888 0.0
C2380 C 0.32629 0.30074 0.26463 0.0
C2381 C 0.31831 0.28072 0.27289 0.0
C2382 C 0.29827 0.27232 0.26536 0.0
C2383 C 0.28597 0.2841 0.24983 0.0
H2384 H 0.32754 0.27177 0.28526 0.0
H2385 H 0.18101 0.3877 0.16646 0.0
H2386 H 0.30528 0.7594 0.91206 0.0
H2387 H 0.27824 0.73816 0.89082 0.0
H2388 H 0.29791 0.77318 0.83214 0.0
H2389 H 0.32256 0.79582 0.85381 0.0
H2390 H 0.26325 0.76017 0.82239 0.0
H2391 H 0.32244 0.72277 0.85298 0.0
H2392 H 0.34887 0.7077 0.87989 0.0
H2393 H 0.29799 0.66733 0.90795 0.0
H2394 H 0.271 0.68272 0.88168 0.0
H2395 H 0.22245 0.67144 0.75598 0.0
H2396 H 0.25305 0.69147 0.77364 0.0
H2397 H 0.22338 0.68031 0.83721 0.0
H2398 H 0.194 0.65945 0.82009 0.0
H2399 H 0.26801 0.68034 0.83967 0.0
H2400 H 0.2131 0.72316 0.79336 0.0
H2401 H 0.20312 0.73176 0.75491 0.0
H2402 H 0.26618 0.76181 0.74459 0.0
H2403 H 0.27765 0.75102 0.78196 0.0
C2404 C 0.30239 0.76369 0.895 0.0
C2405 C 0.31576 0.77947 0.88465 0.0
C2406 C 0.28753 0.751 0.88261 0.0
C2407 C 0.28675 0.75315 0.85949 0.0
C2408 C 0.2982 0.77077 0.84977 0.0
C2409 C 0.31209 0.78411 0.86233 0.0
C2410 C 0.27606 0.73603 0.84521 0.0
C2411 C 0.26444 0.74277 0.82631 0.0
C2412 C 0.27861 0.71302 0.84913 0.0
C2413 C 0.29458 0.70414 0.8655 0.0
C2414 C 0.31678 0.7109 0.86506 0.0
C2415 C 0.33188 0.70229 0.8802 0.0
C2416 C 0.32512 0.68655 0.8956 0.0
C2417 C 0.3032 0.67949 0.89597 0.0
C2418 C 0.28796 0.68825 0.88104 0.0
C2419 C 0.22295 0.6726 0.77377 0.0
C2420 C 0.20547 0.66434 0.78657 0.0
C2421 C 0.24033 0.68422 0.78385 0.0
C2422 C 0.24002 0.68823 0.80671 0.0
C2423 C 0.22382 0.67792 0.81953 0.0
C2424 C 0.20688 0.66603 0.80963 0.0
C2425 C 0.25463 0.70472 0.81765 0.0
C2426 C 0.26696 0.69786 0.836 0.0
C2427 C 0.25456 0.72748 0.81197 0.0
C2428 C 0.24642 0.73574 0.79038 0.0
C2429 C 0.22494 0.73141 0.78287 0.0
C2430 C 0.21905 0.73657 0.7612 0.0
C2431 C 0.23389 0.74749 0.74743 0.0
C2432 C 0.25472 0.75324 0.75524 0.0
C2433 C 0.26107 0.74724 0.77652 0.0
H2434 H 0.22934 0.75133 0.73066 0.0
H2435 H 0.33685 0.67984 0.90724 0.0
H2436 H 0.23485 0.31602 0.84554 0.0
H2437 H 0.2552 0.28797 0.82498 0.0
H2438 H 0.30058 0.2813 0.87925 0.0
H2439 H 0.27973 0.309 0.89998 0.0
H2440 H 0.32062 0.29461 0.84113 0.0
H2441 H 0.26937 0.23963 0.86356 0.0
H2442 H 0.23324 0.22189 0.86856 0.0
H2443 H 0.22494 0.21798 0.79855 0.0
H2444 H 0.26058 0.23682 0.79301 0.0
H2445 H 0.38978 0.20709 0.80649 0.0
H2446 H 0.3653 0.23416 0.82348 0.0
H2447 H 0.32438 0.23392 0.76539 0.0
H2448 H 0.34906 0.20663 0.74831 0.0
H2449 H 0.30065 0.22528 0.80267 0.0
H2450 H 0.35172 0.28052 0.78019 0.0
H2451 H 0.38802 0.29808 0.77532 0.0
H2452 H 0.39685 0.30023 0.84543 0.0
H2453 H 0.36073 0.28238 0.85074 0.0
C2454 C 0.248 0.3072 0.85379 0.0
C2455 C 0.25505 0.31395 0.87478 0.0
C2456 C 0.26003 0.29154 0.84178 0.0
C2457 C 0.27955 0.28261 0.85049 0.0
C2458 C 0.28558 0.28796 0.87219 0.0
C2459 C 0.27342 0.30347 0.88423 0.0
C2460 C 0.29521 0.27032 0.83609 0.0
C2461 C 0.31632 0.27928 0.83294 0.0
C2462 C 0.2893 0.25083 0.82465 0.0
C2463 C 0.26755 0.24003 0.82787 0.0
C2464 C 0.25967 0.23548 0.84919 0.0
C2465 C 0.23925 0.22523 0.85212 0.0
C2466 C 0.2267 0.21907 0.83385 0.0
C2467 C 0.23456 0.2231 0.81263 0.0
C2468 C 0.25484 0.23362 0.80959 0.0
C2469 C 0.37617 0.21363 0.79692 0.0
C2470 C 0.37159 0.2051 0.77591 0.0
C2471 C 0.36204 0.22898 0.80673 0.0
C2472 C 0.34291 0.23609 0.79578 0.0
C2473 C 0.33905 0.22871 0.77416 0.0
C2474 C 0.35338 0.21343 0.76423 0.0
C2475 C 0.32615 0.24942 0.80791 0.0
C2476 C 0.30483 0.24073 0.81063 0.0
C2477 C 0.33179 0.26921 0.81895 0.0
C2478 C 0.35356 0.27994 0.81584 0.0
C2479 C 0.36147 0.28456 0.79457 0.0
C2480 C 0.38201 0.2946 0.79173 0.0
C2481 C 0.39476 0.30022 0.81005 0.0
C2482 C 0.38697 0.29585 0.83125 0.0
C2483 C 0.36645 0.28579 0.83419 0.0
H2484 H 0.41065 0.308 0.80781 0.0
H2485 H 0.21096 0.211 0.83615 0.0
H2486 H 0.70907 0.31 0.89272 0.0
H2487 H 0.73575 0.32886 0.86919 0.0
H2488 H 0.74351 0.26951 0.83063 0.0
H2489 H 0.71687 0.2506 0.85443 0.0
H2490 H 0.78275 0.29247 0.83594 0.0
H2491 H 0.70847 0.31135 0.80947 0.0
H2492 H 0.67021 0.32442 0.81509 0.0
H2493 H 0.69448 0.3841 0.84453 0.0
H2494 H 0.73278 0.37136 0.83903 0.0
H2495 H 0.82919 0.34651 0.74299 0.0
H2496 H 0.80288 0.32505 0.76496 0.0
H2497 H 0.79157 0.38184 0.80638 0.0
H2498 H 0.81827 0.40305 0.78475 0.0
H2499 H 0.75344 0.35916 0.79837 0.0
H2500 H 0.82516 0.34452 0.82556 0.0
H2501 H 0.8639 0.33269 0.82916 0.0
H2502 H 0.84698 0.26811 0.8053 0.0
H2503 H 0.8081 0.27957 0.80158 0.0
C2504 C 0.71718 0.30071 0.87979 0.0
C2505 C 0.71121 0.27867 0.87563 0.0
C2506 C 0.7321 0.31162 0.86608 0.0
C2507 C 0.74113 0.30082 0.84773 0.0
C2508 C 0.73663 0.27824 0.84461 0.0
C2509 C 0.72174 0.26726 0.85847 0.0
C2510 C 0.75448 0.31338 0.83141 0.0
C2511 C 0.77621 0.30674 0.8273 0.0
C2512 C 0.74626 0.33258 0.82085 0.0
C2513 C 0.72335 0.34029 0.8241 0.0
C2514 C 0.70555 0.32715 0.81731 0.0
C2515 C 0.68391 0.33453 0.8204 0.0
C2516 C 0.67993 0.35499 0.83029 0.0
C2517 C 0.69758 0.36822 0.83693 0.0
C2518 C 0.71924 0.36097 0.83376 0.0
C2519 C 0.82022 0.3547 0.75609 0.0
C2520 C 0.82515 0.37668 0.76172 0.0
C2521 C 0.80559 0.34228 0.76896 0.0
C2522 C 0.79552 0.35173 0.78754 0.0
C2523 C 0.79916 0.37419 0.79214 0.0
C2524 C 0.81409 0.38645 0.77953 0.0
C2525 C 0.78178 0.33814 0.80266 0.0
C2526 C 0.75994 0.34463 0.8066 0.0
C2527 C 0.79014 0.31912 0.81349 0.0
C2528 C 0.81379 0.31301 0.81296 0.0
C2529 C 0.82977 0.32793 0.82067 0.0
C2530 C 0.8517 0.3212 0.82304 0.0
C2531 C 0.85787 0.29961 0.81762 0.0
C2532 C 0.84216 0.28478 0.80962 0.0
C2533 C 0.82018 0.29139 0.80737 0.0
H2534 H 0.87486 0.29443 0.81943 0.0
H2535 H 0.66318 0.36064 0.83272 0.0
H2536 H 0.78941 0.71918 0.8478 0.0
H2537 H 0.7722 0.74752 0.82459 0.0
H2538 H 0.7138 0.74496 0.86511 0.0
H2539 H 0.73118 0.71735 0.8884 0.0
H2540 H 0.7392 0.73869 0.8001 0.0
H2541 H 0.68022 0.78733 0.85914 0.0
H2542 H 0.68185 0.80558 0.89539 0.0
H2543 H 0.752 0.8124 0.88925 0.0
H2544 H 0.75079 0.7945 0.85282 0.0
H2545 H 0.63064 0.80789 0.77812 0.0
H2546 H 0.65414 0.78183 0.79822 0.0
H2547 H 0.70837 0.79753 0.75521 0.0
H2548 H 0.68506 0.82394 0.73577 0.0
H2549 H 0.68885 0.80006 0.8198 0.0
H2550 H 0.74944 0.75479 0.76154 0.0
H2551 H 0.75049 0.73618 0.72548 0.0
H2552 H 0.68079 0.72457 0.72905 0.0
H2553 H 0.67936 0.74275 0.76533 0.0
C2554 C 0.7735 0.72579 0.85254 0.0
C2555 C 0.76171 0.71633 0.87007 0.0
C2556 C 0.76346 0.74168 0.83901 0.0
C2557 C 0.74159 0.74841 0.84295 0.0
C2558 C 0.73077 0.7405 0.86181 0.0
C2559 C 0.74078 0.72473 0.87528 0.0
C2560 C 0.72878 0.76072 0.82592 0.0
C2561 C 0.72856 0.75247 0.80428 0.0
C2562 C 0.71457 0.77845 0.8314 0.0
C2563 C 0.71542 0.78939 0.85328 0.0
C2564 C 0.69599 0.79282 0.86545 0.0
C2565 C 0.69684 0.80309 0.88606 0.0
C2566 C 0.71702 0.81009 0.89464 0.0
C2567 C 0.73639 0.80689 0.88262 0.0
C2568 C 0.73563 0.79665 0.862 0.0
C2569 C 0.64711 0.80462 0.77205 0.0
C2570 C 0.65572 0.81718 0.75464 0.0
C2571 C 0.66069 0.79001 0.78377 0.0
C2572 C 0.6831 0.78774 0.77828 0.0
C2573 C 0.69111 0.79867 0.75958 0.0
C2574 C 0.67758 0.81341 0.74805 0.0
C2575 C 0.69875 0.77749 0.7942 0.0
C2576 C 0.6996 0.78635 0.81558 0.0
C2577 C 0.71388 0.76066 0.7883 0.0
C2578 C 0.71424 0.7505 0.76605 0.0
C2579 C 0.73431 0.74834 0.75461 0.0
C2580 C 0.73499 0.73778 0.73416 0.0
C2581 C 0.71569 0.72928 0.72493 0.0
C2582 C 0.6957 0.73126 0.73618 0.0
C2583 C 0.69493 0.74178 0.75666 0.0
H2584 H 0.71624 0.72113 0.70908 0.0
H2585 H 0.71765 0.81803 0.9106 0.0
H2586 H 0.71779 0.76616 0.17017 0.0
H2587 H 0.74531 0.7448 0.19122 0.0
H2588 H 0.70932 0.68492 0.17737 0.0
H2589 H 0.68345 0.70543 0.15531 0.0
H2590 H 0.74288 0.72186 0.22712 0.0
H2591 H 0.7382 0.64002 0.17654 0.0
H2592 H 0.73477 0.62819 0.13783 0.0
H2593 H 0.76111 0.69034 0.11623 0.0
H2594 H 0.76499 0.70242 0.15481 0.0
H2595 H 0.80758 0.64637 0.29153 0.0
H2596 H 0.77484 0.66165 0.27283 0.0
H2597 H 0.80779 0.65318 0.21019 0.0
H2598 H 0.83762 0.63492 0.2281 0.0
H2599 H 0.77199 0.65029 0.20029 0.0
H2600 H 0.80298 0.7047 0.25364 0.0
H2601 H 0.80933 0.71844 0.29137 0.0
H2602 H 0.73986 0.71787 0.30397 0.0
H2603 H 0.73304 0.7031 0.26679 0.0
C2604 C 0.71635 0.74834 0.17098 0.0
C2605 C 0.69854 0.73754 0.16083 0.0
C2606 C 0.73184 0.73617 0.18331 0.0
C2607 C 0.72965 0.71309 0.18573 0.0
C2608 C 0.71196 0.7025 0.17535 0.0
C2609 C 0.69698 0.71441 0.16275 0.0
C2610 C 0.74519 0.69977 0.19946 0.0
C2611 C 0.74979 0.70645 0.22112 0.0
C2612 C 0.75387 0.67942 0.19189 0.0
C2613 C 0.75168 0.6722 0.1686 0.0
C2614 C 0.74334 0.65113 0.16354 0.0
C2615 C 0.7413 0.64439 0.14162 0.0
C2616 C 0.74765 0.65853 0.12458 0.0
C2617 C 0.75612 0.67943 0.12944 0.0
C2618 C 0.75821 0.68624 0.15133 0.0
C2619 C 0.80713 0.6469 0.27372 0.0
C2620 C 0.82543 0.63984 0.26136 0.0
C2621 C 0.78868 0.65627 0.26298 0.0
C2622 C 0.78888 0.65979 0.23992 0.0
C2623 C 0.80661 0.65103 0.22785 0.0
C2624 C 0.82408 0.64064 0.23828 0.0
C2625 C 0.77181 0.6731 0.22769 0.0
C2626 C 0.76604 0.66607 0.20632 0.0
C2627 C 0.7632 0.69367 0.23522 0.0
C2628 C 0.76754 0.70254 0.25752 0.0
C2629 C 0.78908 0.70741 0.26449 0.0
C2630 C 0.79276 0.71543 0.28577 0.0
C2631 C 0.77506 0.71933 0.29995 0.0
C2632 C 0.75358 0.71496 0.29298 0.0
C2633 C 0.7498 0.7066 0.27188 0.0
H2634 H 0.77801 0.72565 0.31634 0.0
H2635 H 0.74604 0.65329 0.10762 0.0
H2636 H 0.37613 0.81625 0.29307 0.0
H2637 H 0.35783 0.78364 0.27741 0.0
H2638 H 0.38597 0.79903 0.21393 0.0
H2639 H 0.40491 0.83035 0.22975 0.0
H2640 H 0.32662 0.78216 0.24948 0.0
H2641 H 0.38908 0.75976 0.17954 0.0
H2642 H 0.42932 0.75628 0.17484 0.0
H2643 H 0.43686 0.74476 0.24419 0.0
H2644 H 0.39667 0.74801 0.2493 0.0
H2645 H 0.26907 0.72715 0.16152 0.0
H2646 H 0.29041 0.75295 0.18464 0.0
H2647 H 0.33587 0.70043 0.20068 0.0
H2648 H 0.31589 0.67554 0.17729 0.0
H2649 H 0.35861 0.7329 0.1926 0.0
H2650 H 0.2967 0.72097 0.23925 0.0
H2651 H 0.25731 0.71914 0.24914 0.0
H2652 H 0.25011 0.78828 0.23484 0.0
H2653 H 0.28955 0.79058 0.22519 0.0
C2654 C 0.3793 0.81187 0.27612 0.0
C2655 C 0.39209 0.82571 0.26267 0.0
C2656 C 0.36849 0.79348 0.26702 0.0
C2657 C 0.37042 0.7887 0.2444 0.0
C2658 C 0.38449 0.80177 0.23148 0.0
C2659 C 0.39545 0.81975 0.24059 0.0
C2660 C 0.35661 0.77142 0.23356 0.0
C2661 C 0.33368 0.77119 0.23724 0.0
C2662 C 0.36566 0.75669 0.21784 0.0
C2663 C 0.38984 0.75422 0.2148 0.0
C2664 C 0.3993 0.75632 0.19376 0.0
C2665 C 0.42211 0.75444 0.19104 0.0
C2666 C 0.43563 0.7503 0.2092 0.0
C2667 C 0.42637 0.74798 0.23013 0.0
C2668 C 0.40358 0.7499 0.23296 0.0
C2669 C 0.28375 0.7213 0.16982 0.0
C2670 C 0.29086 0.69934 0.16715 0.0
C2671 C 0.29582 0.73595 0.18323 0.0
C2672 C 0.31485 0.72867 0.19451 0.0
C2673 C 0.32154 0.70668 0.19202 0.0
C2674 C 0.30994 0.69238 0.17846 0.0
C2675 C 0.3286 0.74368 0.20835 0.0
C2676 C 0.35154 0.74361 0.20507 0.0
C2677 C 0.31966 0.75708 0.22524 0.0
C2678 C 0.29602 0.75591 0.23133 0.0
C2679 C 0.2867 0.73578 0.23819 0.0
C2680 C 0.26439 0.73467 0.24385 0.0
C2681 C 0.2512 0.75357 0.24261 0.0
C2682 C 0.26035 0.77365 0.23584 0.0
C2683 C 0.28271 0.7749 0.23041 0.0
H2684 H 0.23392 0.75267 0.24693 0.0
H2685 H 0.45329 0.74892 0.20707 0.0
H2686 H 0.73124 0.31564 0.13525 0.0
H2687 H 0.70931 0.28756 0.15411 0.0
H2688 H 0.76073 0.27982 0.20252 0.0
H2689 H 0.78282 0.30797 0.1835 0.0
H2690 H 0.73624 0.23929 0.1903 0.0
H2691 H 0.72242 0.31616 0.21179 0.0
H2692 H 0.71243 0.35473 0.20265 0.0
H2693 H 0.65097 0.33282 0.17556 0.0
H2694 H 0.66069 0.29416 0.18406 0.0
H2695 H 0.67377 0.19436 0.27668 0.0
H2696 H 0.69839 0.21702 0.25473 0.0
H2697 H 0.64308 0.24111 0.2171 0.0
H2698 H 0.61861 0.21635 0.23773 0.0
H2699 H 0.66961 0.27373 0.22299 0.0
H2700 H 0.6776 0.20131 0.19873 0.0
H2701 H 0.68493 0.16152 0.19461 0.0
H2702 H 0.75212 0.17135 0.21446 0.0
H2703 H 0.74503 0.2111 0.21951 0.0
C2704 C 0.73837 0.30706 0.14921 0.0
C2705 C 0.75889 0.31366 0.15768 0.0
C2706 C 0.72568 0.29128 0.16018 0.0
C2707 C 0.73318 0.28198 0.17998 0.0
C2708 C 0.75462 0.28686 0.18729 0.0
C2709 C 0.7674 0.30268 0.17623 0.0
C2710 C 0.71776 0.26922 0.19413 0.0
C2711 C 0.7219 0.24679 0.19792 0.0
C2712 C 0.69837 0.27889 0.20288 0.0
C2713 C 0.69236 0.30226 0.19844 0.0
C2714 C 0.70683 0.31957 0.20379 0.0
C2715 C 0.70124 0.34143 0.19872 0.0
C2716 C 0.68114 0.34618 0.18854 0.0
C2717 C 0.66654 0.32911 0.18344 0.0
C2718 C 0.67208 0.30724 0.18838 0.0
C2719 C 0.66665 0.20541 0.26455 0.0
C2720 C 0.64409 0.20414 0.25946 0.0
C2721 C 0.68087 0.2182 0.25174 0.0
C2722 C 0.67274 0.23106 0.2343 0.0
C2723 C 0.64983 0.23147 0.23054 0.0
C2724 C 0.6357 0.21776 0.2427 0.0
C2725 C 0.68816 0.24353 0.21969 0.0
C2726 C 0.68404 0.26603 0.21576 0.0
C2727 C 0.70705 0.23359 0.20995 0.0
C2728 C 0.71067 0.20928 0.20978 0.0
C2729 C 0.6938 0.19497 0.20279 0.0
C2730 C 0.69796 0.1724 0.20009 0.0
C2731 C 0.71903 0.16395 0.20403 0.0
C2732 C 0.73585 0.17795 0.21121 0.0
C2733 C 0.73171 0.20048 0.21418 0.0
H2734 H 0.72226 0.1465 0.20177 0.0
H2735 H 0.67687 0.3631 0.18462 0.0
loop_
_geom_bond_atom_site_label_1
_geom_bond_atom_site_label_2
_geom_bond_distance
_geom_bond_site_symmetry_2
_ccdc_geom_bond_type
C0 O2 1.247 . S
C0 O4 1.258 . S
C1 O8 1.247 . S
C1 O9 1.258 . S
O2 C0 1.247 . S
O2 Zn3 2.028 . S
Zn3 O2 2.028 . S
Zn3 O7 2.035 . S
Zn3 O9 2.035 . S
Zn3 O10 2.028 . S
O4 C0 1.258 . S
O4 Zn5 2.035 . S
Zn5 O4 2.035 . S
Zn5 O6 2.028 . S
Zn5 O8 2.028 . S
Zn5 O11 2.035 . S
O6 Zn5 2.028 . S
O6 C12 1.247 . S
O7 Zn3 2.035 . S
O7 C12 1.258 . S
O8 C1 1.247 . S
O8 Zn5 2.028 . S
O9 C1 1.258 . S
O9 Zn3 2.035 . S
O10 Zn3 2.028 . S
O10 C13 1.247 . S
O11 Zn5 2.035 . S
O11 C13 1.258 . S
C12 O6 1.247 . S
C12 O7 1.258 . S
C13 O10 1.247 . S
C13 O11 1.258 . S
C14 O16 1.247 . S
C14 O18 1.258 . S
C15 O22 1.247 . S
C15 O23 1.258 . S
O16 C14 1.247 . S
O16 Zn17 2.028 . S
Zn17 O16 2.028 . S
Zn17 O21 2.035 . S
Zn17 O23 2.035 . S
Zn17 O24 2.028 . S
O18 C14 1.258 . S
O18 Zn19 2.035 . S
Zn19 O18 2.035 . S
Zn19 O20 2.028 . S
Zn19 O22 2.028 . S
Zn19 O25 2.035 . S
O20 Zn19 2.028 . S
O20 C26 1.247 . S
O21 Zn17 2.035 . S
O21 C26 1.258 . S
O22 C15 1.247 . S
O22 Zn19 2.028 . S
O23 C15 1.258 . S
O23 Zn17 2.035 . S
O24 Zn17 2.028 . S
O24 C27 1.247 . S
O25 Zn19 2.035 . S
O25 C27 1.258 . S
C26 O20 1.247 . S
C26 O21 1.258 . S
C27 O24 1.247 . S
C27 O25 1.258 . S
C28 O30 1.247 . S
C28 O32 1.258 . S
C29 O36 1.247 . S
C29 O37 1.258 . S
O30 C28 1.247 . S
O30 Zn31 2.028 . S
Zn31 O30 2.028 . S
Zn31 O35 2.035 . S
Zn31 O37 2.035 . S
Zn31 O38 2.028 . S
O32 C28 1.258 . S
O32 Zn33 2.035 . S
Zn33 O32 2.035 . S
Zn33 O34 2.028 . S
Zn33 O36 2.028 . S
Zn33 O39 2.035 . S
O34 Zn33 2.028 . S
O34 C40 1.247 . S
O35 Zn31 2.035 . S
O35 C40 1.258 . S
O36 C29 1.247 . S
O36 Zn33 2.028 . S
O37 C29 1.258 . S
O37 Zn31 2.035 . S
O38 Zn31 2.028 . S
O38 C41 1.247 . S
O39 Zn33 2.035 . S
O39 C41 1.258 . S
C40 O34 1.247 . S
C40 O35 1.258 . S
C41 O38 1.247 . S
C41 O39 1.258 . S
C42 O44 1.247 . S
C42 O46 1.258 . S
C43 O50 1.247 . S
C43 O51 1.258 . S
O44 C42 1.247 . S
O44 Zn45 2.028 . S
Zn45 O44 2.028 . S
Zn45 O49 2.035 . S
Zn45 O51 2.035 . S
Zn45 O52 2.028 . S
O46 C42 1.258 . S
O46 Zn47 2.035 . S
Zn47 O46 2.035 . S
Zn47 O48 2.028 . S
Zn47 O50 2.028 . S
Zn47 O53 2.035 . S
O48 Zn47 2.028 . S
O48 C54 1.247 . S
O49 Zn45 2.035 . S
O49 C54 1.258 . S
O50 C43 1.247 . S
O50 Zn47 2.028 . S
O51 C43 1.258 . S
O51 Zn45 2.035 . S
O52 Zn45 2.028 . S
O52 C55 1.247 . S
O53 Zn47 2.035 . S
O53 C55 1.258 . S
C54 O48 1.247 . S
C54 O49 1.258 . S
C55 O52 1.247 . S
C55 O53 1.258 . S
C56 O58 1.247 . S
C56 O60 1.258 . S
C57 O64 1.247 . S
C57 O65 1.258 . S
O58 C56 1.247 . S
O58 Zn59 2.028 . S
Zn59 O58 2.028 . S
Zn59 O63 2.035 . S
Zn59 O65 2.035 . S
Zn59 O66 2.028 . S
O60 C56 1.258 . S
O60 Zn61 2.035 . S
Zn61 O60 2.035 . S
Zn61 O62 2.028 . S
Zn61 O64 2.028 . S
Zn61 O67 2.035 . S
O62 Zn61 2.028 . S
O62 C68 1.247 . S
O63 Zn59 2.035 . S
O63 C68 1.258 . S
O64 C57 1.247 . S
O64 Zn61 2.028 . S
O65 C57 1.258 . S
O65 Zn59 2.035 . S
O66 Zn59 2.028 . S
O66 C69 1.247 . S
O67 Zn61 2.035 . S
O67 C69 1.258 . S
C68 O62 1.247 . S
C68 O63 1.258 . S
C69 O66 1.247 . S
C69 O67 1.258 . S
C70 O72 1.247 . S
C70 O74 1.258 . S
C71 O78 1.247 . S
C71 O79 1.258 . S
O72 C70 1.247 . S
O72 Zn73 2.028 . S
Zn73 O72 2.028 . S
Zn73 O77 2.035 . S
Zn73 O79 2.035 . S
Zn73 O80 2.028 . S
O74 C70 1.258 . S
O74 Zn75 2.035 . S
Zn75 O74 2.035 . S
Zn75 O76 2.028 . S
Zn75 O78 2.028 . S
Zn75 O81 2.035 . S
O76 Zn75 2.028 . S
O76 C82 1.247 . S
O77 Zn73 2.035 . S
O77 C82 1.258 . S
O78 C71 1.247 . S
O78 Zn75 2.028 . S
O79 C71 1.258 . S
O79 Zn73 2.035 . S
O80 Zn73 2.028 . S
O80 C83 1.247 . S
O81 Zn75 2.035 . S
O81 C83 1.258 . S
C82 O76 1.247 . S
C82 O77 1.258 . S
C83 O80 1.247 . S
C83 O81 1.258 . S
C84 O86 1.247 . S
C84 O88 1.258 . S
C85 O92 1.247 . S
C85 O93 1.258 . S
O86 C84 1.247 . S
O86 Zn87 2.028 . S
Zn87 O86 2.028 . S
Zn87 O91 2.035 . S
Zn87 O93 2.035 . S
Zn87 O94 2.028 . S
O88 C84 1.258 . S
O88 Zn89 2.035 . S
Zn89 O88 2.035 . S
Zn89 O90 2.028 . S
Zn89 O92 2.028 . S
Zn89 O95 2.035 . S
O90 Zn89 2.028 . S
O90 C96 1.247 . S
O91 Zn87 2.035 . S
O91 C96 1.258 . S
O92 C85 1.247 . S
O92 Zn89 2.028 . S
O93 C85 1.258 . S
O93 Zn87 2.035 . S
O94 Zn87 2.028 . S
O94 C97 1.247 . S
O95 Zn89 2.035 . S
O95 C97 1.258 . S
C96 O90 1.247 . S
C96 O91 1.258 . S
C97 O94 1.247 . S
C97 O95 1.258 . S
C98 O100 1.247 . S
C98 O102 1.258 . S
C99 O106 1.247 . S
C99 O107 1.258 . S
O100 C98 1.247 . S
O100 Zn101 2.028 . S
Zn101 O100 2.028 . S
Zn101 O105 2.035 . S
Zn101 O107 2.035 . S
Zn101 O108 2.028 . S
O102 C98 1.258 . S
O102 Zn103 2.035 . S
Zn103 O102 2.035 . S
Zn103 O104 2.028 . S
Zn103 O106 2.028 . S
Zn103 O109 2.035 . S
O104 Zn103 2.028 . S
O104 C110 1.247 . S
O105 Zn101 2.035 . S
O105 C110 1.258 . S
O106 C99 1.247 . S
O106 Zn103 2.028 . S
O107 C99 1.258 . S
O107 Zn101 2.035 . S
O108 Zn101 2.028 . S
O108 C111 1.247 . S
O109 Zn103 2.035 . S
O109 C111 1.258 . S
C110 O104 1.247 . S
C110 O105 1.258 . S
C111 O108 1.247 . S
C111 O109 1.258 . S
C112 O114 1.247 . S
C112 O116 1.258 . S
C113 O120 1.247 . S
C113 O121 1.258 . S
O114 C112 1.247 . S
O114 Zn115 2.028 . S
Zn115 O114 2.028 . S
Zn115 O119 2.035 . S
Zn115 O121 2.035 . S
Zn115 O122 2.028 . S
O116 C112 1.258 . S
O116 Zn117 2.035 . S
Zn117 O116 2.035 . S
Zn117 O118 2.028 . S
Zn117 O120 2.028 . S
Zn117 O123 2.035 . S
O118 Zn117 2.028 . S
O118 C124 1.247 . S
O119 Zn115 2.035 . S
O119 C124 1.258 . S
O120 C113 1.247 . S
O120 Zn117 2.028 . S
O121 C113 1.258 . S
O121 Zn115 2.035 . S
O122 Zn115 2.028 . S
O122 C125 1.247 . S
O123 Zn117 2.035 . S
O123 C125 1.258 . S
C124 O118 1.247 . S
C124 O119 1.258 . S
C125 O122 1.247 . S
C125 O123 1.258 . S
C126 O128 1.247 . S
C126 O130 1.258 . S
C127 O134 1.247 . S
C127 O135 1.258 . S
O128 C126 1.247 . S
O128 Zn129 2.028 . S
Zn129 O128 2.028 . S
Zn129 O133 2.035 . S
Zn129 O135 2.035 . S
Zn129 O136 2.028 . S
O130 C126 1.258 . S
O130 Zn131 2.035 . S
Zn131 O130 2.035 . S
Zn131 O132 2.028 . S
Zn131 O134 2.028 . S
Zn131 O137 2.035 . S
O132 Zn131 2.028 . S
O132 C138 1.247 . S
O133 Zn129 2.035 . S
O133 C138 1.258 . S
O134 C127 1.247 . S
O134 Zn131 2.028 . S
O135 C127 1.258 . S
O135 Zn129 2.035 . S
O136 Zn129 2.028 . S
O136 C139 1.247 . S
O137 Zn131 2.035 . S
O137 C139 1.258 . S
C138 O132 1.247 . S
C138 O133 1.258 . S
C139 O136 1.247 . S
C139 O137 1.258 . S
C140 O142 1.247 . S
C140 O144 1.258 . S
C141 O148 1.247 . S
C141 O149 1.258 . S
O142 C140 1.247 . S
O142 Zn143 2.028 . S
Zn143 O142 2.028 . S
Zn143 O147 2.035 . S
Zn143 O149 2.035 . S
Zn143 O150 2.028 . S
O144 C140 1.258 . S
O144 Zn145 2.035 . S
Zn145 O144 2.035 . S
Zn145 O146 2.028 . S
Zn145 O148 2.028 . S
Zn145 O151 2.035 . S
O146 Zn145 2.028 . S
O146 C152 1.247 . S
O147 Zn143 2.035 . S
O147 C152 1.258 . S
O148 C141 1.247 . S
O148 Zn145 2.028 . S
O149 C141 1.258 . S
O149 Zn143 2.035 . S
O150 Zn143 2.028 . S
O150 C153 1.247 . S
O151 Zn145 2.035 . S
O151 C153 1.258 . S
C152 O146 1.247 . S
C152 O147 1.258 . S
C153 O150 1.247 . S
C153 O151 1.258 . S
C154 O156 1.247 . S
C154 O158 1.258 . S
C155 O162 1.247 . S
C155 O163 1.258 . S
O156 C154 1.247 . S
O156 Zn157 2.028 . S
Zn157 O156 2.028 . S
Zn157 O161 2.035 . S
Zn157 O163 2.035 . S
Zn157 O164 2.028 . S
O158 C154 1.258 . S
O158 Zn159 2.035 . S
Zn159 O158 2.035 . S
Zn159 O160 2.028 . S
Zn159 O162 2.028 . S
Zn159 O165 2.035 . S
O160 Zn159 2.028 . S
O160 C166 1.247 . S
O161 Zn157 2.035 . S
O161 C166 1.258 . S
O162 C155 1.247 . S
O162 Zn159 2.028 . S
O163 C155 1.258 . S
O163 Zn157 2.035 . S
O164 Zn157 2.028 . S
O164 C167 1.247 . S
O165 Zn159 2.035 . S
O165 C167 1.258 . S
C166 O160 1.247 . S
C166 O161 1.258 . S
C167 O164 1.247 . S
C167 O165 1.258 . S
C168 O170 1.247 . S
C168 O172 1.258 . S
C169 O176 1.247 . S
C169 O177 1.258 . S
O170 C168 1.247 . S
O170 Zn171 2.028 . S
Zn171 O170 2.028 . S
Zn171 O175 2.035 . S
Zn171 O177 2.035 . S
Zn171 O178 2.028 . S
O172 C168 1.258 . S
O172 Zn173 2.035 . S
Zn173 O172 2.035 . S
Zn173 O174 2.028 . S
Zn173 O176 2.028 . S
Zn173 O179 2.035 . S
O174 Zn173 2.028 . S
O174 C180 1.247 . S
O175 Zn171 2.035 . S
O175 C180 1.258 . S
O176 C169 1.247 . S
O176 Zn173 2.028 . S
O177 C169 1.258 . S
O177 Zn171 2.035 . S
O178 Zn171 2.028 . S
O178 C181 1.247 . S
O179 Zn173 2.035 . S
O179 C181 1.258 . S
C180 O174 1.247 . S
C180 O175 1.258 . S
C181 O178 1.247 . S
C181 O179 1.258 . S
C182 O184 1.247 . S
C182 O186 1.258 . S
C183 O190 1.247 . S
C183 O191 1.258 . S
O184 C182 1.247 . S
O184 Zn185 2.028 . S
Zn185 O184 2.028 . S
Zn185 O189 2.035 . S
Zn185 O191 2.035 . S
Zn185 O192 2.028 . S
O186 C182 1.258 . S
O186 Zn187 2.035 . S
Zn187 O186 2.035 . S
Zn187 O188 2.028 . S
Zn187 O190 2.028 . S
Zn187 O193 2.035 . S
O188 Zn187 2.028 . S
O188 C194 1.247 . S
O189 Zn185 2.035 . S
O189 C194 1.258 . S
O190 C183 1.247 . S
O190 Zn187 2.028 . S
O191 C183 1.258 . S
O191 Zn185 2.035 . S
O192 Zn185 2.028 . S
O192 C195 1.247 . S
O193 Zn187 2.035 . S
O193 C195 1.258 . S
C194 O188 1.247 . S
C194 O189 1.258 . S
C195 O192 1.247 . S
C195 O193 1.258 . S
C196 O198 1.247 . S
C196 O200 1.258 . S
C197 O204 1.247 . S
C197 O205 1.258 . S
O198 C196 1.247 . S
O198 Zn199 2.028 . S
Zn199 O198 2.028 . S
Zn199 O203 2.035 . S
Zn199 O205 2.035 . S
Zn199 O206 2.028 . S
O200 C196 1.258 . S
O200 Zn201 2.035 . S
Zn201 O200 2.035 . S
Zn201 O202 2.028 . S
Zn201 O204 2.028 . S
Zn201 O207 2.035 . S
O202 Zn201 2.028 . S
O202 C208 1.247 . S
O203 Zn199 2.035 . S
O203 C208 1.258 . S
O204 C197 1.247 . S
O204 Zn201 2.028 . S
O205 C197 1.258 . S
O205 Zn199 2.035 . S
O206 Zn199 2.028 . S
O206 C209 1.247 . S
O207 Zn201 2.035 . S
O207 C209 1.258 . S
C208 O202 1.247 . S
C208 O203 1.258 . S
C209 O206 1.247 . S
C209 O207 1.258 . S
C210 O212 1.247 . S
C210 O214 1.258 . S
C211 O218 1.247 . S
C211 O219 1.258 . S
O212 C210 1.247 . S
O212 Zn213 2.028 . S
Zn213 O212 2.028 . S
Zn213 O217 2.035 . S
Zn213 O219 2.035 . S
Zn213 O220 2.028 . S
O214 C210 1.258 . S
O214 Zn215 2.035 . S
Zn215 O214 2.035 . S
Zn215 O216 2.028 . S
Zn215 O218 2.028 . S
Zn215 O221 2.035 . S
O216 Zn215 2.028 . S
O216 C222 1.247 . S
O217 Zn213 2.035 . S
O217 C222 1.258 . S
O218 C211 1.247 . S
O218 Zn215 2.028 . S
O219 C211 1.258 . S
O219 Zn213 2.035 . S
O220 Zn213 2.028 . S
O220 C223 1.247 . S
O221 Zn215 2.035 . S
O221 C223 1.258 . S
C222 O216 1.247 . S
C222 O217 1.258 . S
C223 O220 1.247 . S
C223 O221 1.258 . S
C224 O226 1.247 . S
C224 O228 1.258 . S
C225 O232 1.247 . S
C225 O233 1.258 . S
O226 C224 1.247 . S
O226 Zn227 2.028 . S
Zn227 O226 2.028 . S
Zn227 O231 2.035 . S
Zn227 O233 2.035 . S
Zn227 O234 2.028 . S
O228 C224 1.258 . S
O228 Zn229 2.035 . S
Zn229 O228 2.035 . S
Zn229 O230 2.028 . S
Zn229 O232 2.028 . S
Zn229 O235 2.035 . S
O230 Zn229 2.028 . S
O230 C236 1.247 . S
O231 Zn227 2.035 . S
O231 C236 1.258 . S
O232 C225 1.247 . S
O232 Zn229 2.028 . S
O233 C225 1.258 . S
O233 Zn227 2.035 . S
O234 Zn227 2.028 . S
O234 C237 1.247 . S
O235 Zn229 2.035 . S
O235 C237 1.258 . S
C236 O230 1.247 . S
C236 O231 1.258 . S
C237 O234 1.247 . S
C237 O235 1.258 . S
C238 O240 1.247 . S
C238 O242 1.258 . S
C239 O246 1.247 . S
C239 O247 1.258 . S
O240 C238 1.247 . S
O240 Zn241 2.028 . S
Zn241 O240 2.028 . S
Zn241 O245 2.035 . S
Zn241 O247 2.035 . S
Zn241 O248 2.028 . S
O242 C238 1.258 . S
O242 Zn243 2.035 . S
Zn243 O242 2.035 . S
Zn243 O244 2.028 . S
Zn243 O246 2.028 . S
Zn243 O249 2.035 . S
O244 Zn243 2.028 . S
O244 C250 1.247 . S
O245 Zn241 2.035 . S
O245 C250 1.258 . S
O246 C239 1.247 . S
O246 Zn243 2.028 . S
O247 C239 1.258 . S
O247 Zn241 2.035 . S
O248 Zn241 2.028 . S
O248 C251 1.247 . S
O249 Zn243 2.035 . S
O249 C251 1.258 . S
C250 O244 1.247 . S
C250 O245 1.258 . S
C251 O248 1.247 . S
C251 O249 1.258 . S
C252 O254 1.247 . S
C252 O256 1.258 . S
C253 O260 1.247 . S
C253 O261 1.258 . S
O254 C252 1.247 . S
O254 Zn255 2.028 . S
Zn255 O254 2.028 . S
Zn255 O259 2.035 . S
Zn255 O261 2.035 . S
Zn255 O262 2.028 . S
O256 C252 1.258 . S
O256 Zn257 2.035 . S
Zn257 O256 2.035 . S
Zn257 O258 2.028 . S
Zn257 O260 2.028 . S
Zn257 O263 2.035 . S
O258 Zn257 2.028 . S
O258 C264 1.247 . S
O259 Zn255 2.035 . S
O259 C264 1.258 . S
O260 C253 1.247 . S
O260 Zn257 2.028 . S
O261 C253 1.258 . S
O261 Zn255 2.035 . S
O262 Zn255 2.028 . S
O262 C265 1.247 . S
O263 Zn257 2.035 . S
O263 C265 1.258 . S
C264 O258 1.247 . S
C264 O259 1.258 . S
C265 O262 1.247 . S
C265 O263 1.258 . S
C266 O268 1.247 . S
C266 O270 1.258 . S
C267 O274 1.247 . S
C267 O275 1.258 . S
O268 C266 1.247 . S
O268 Zn269 2.028 . S
Zn269 O268 2.028 . S
Zn269 O273 2.035 . S
Zn269 O275 2.035 . S
Zn269 O276 2.028 . S
O270 C266 1.258 . S
O270 Zn271 2.035 . S
Zn271 O270 2.035 . S
Zn271 O272 2.028 . S
Zn271 O274 2.028 . S
Zn271 O277 2.035 . S
O272 Zn271 2.028 . S
O272 C278 1.247 . S
O273 Zn269 2.035 . S
O273 C278 1.258 . S
O274 C267 1.247 . S
O274 Zn271 2.028 . S
O275 C267 1.258 . S
O275 Zn269 2.035 . S
O276 Zn269 2.028 . S
O276 C279 1.247 . S
O277 Zn271 2.035 . S
O277 C279 1.258 . S
C278 O272 1.247 . S
C278 O273 1.258 . S
C279 O276 1.247 . S
C279 O277 1.258 . S
C280 O282 1.247 . S
C280 O284 1.258 . S
C281 O288 1.247 . S
C281 O289 1.258 . S
O282 C280 1.247 . S
O282 Zn283 2.028 . S
Zn283 O282 2.028 . S
Zn283 O287 2.035 . S
Zn283 O289 2.035 . S
Zn283 O290 2.028 . S
O284 C280 1.258 . S
O284 Zn285 2.035 . S
Zn285 O284 2.035 . S
Zn285 O286 2.028 . S
Zn285 O288 2.028 . S
Zn285 O291 2.035 . S
O286 Zn285 2.028 . S
O286 C292 1.247 . S
O287 Zn283 2.035 . S
O287 C292 1.258 . S
O288 C281 1.247 . S
O288 Zn285 2.028 . S
O289 C281 1.258 . S
O289 Zn283 2.035 . S
O290 Zn283 2.028 . S
O290 C293 1.247 . S
O291 Zn285 2.035 . S
O291 C293 1.258 . S
C292 O286 1.247 . S
C292 O287 1.258 . S
C293 O290 1.247 . S
C293 O291 1.258 . S
C294 O296 1.247 . S
C294 O298 1.258 . S
C295 O302 1.247 . S
C295 O303 1.258 . S
O296 C294 1.247 . S
O296 Zn297 2.028 . S
Zn297 O296 2.028 . S
Zn297 O301 2.035 . S
Zn297 O303 2.035 . S
Zn297 O304 2.028 . S
O298 C294 1.258 . S
O298 Zn299 2.035 . S
Zn299 O298 2.035 . S
Zn299 O300 2.028 . S
Zn299 O302 2.028 . S
Zn299 O305 2.035 . S
O300 Zn299 2.028 . S
O300 C306 1.247 . S
O301 Zn297 2.035 . S
O301 C306 1.258 . S
O302 C295 1.247 . S
O302 Zn299 2.028 . S
O303 C295 1.258 . S
O303 Zn297 2.035 . S
O304 Zn297 2.028 . S
O304 C307 1.247 . S
O305 Zn299 2.035 . S
O305 C307 1.258 . S
C306 O300 1.247 . S
C306 O301 1.258 . S
C307 O304 1.247 . S
C307 O305 1.258 . S
C308 O310 1.247 . S
C308 O312 1.258 . S
C309 O316 1.247 . S
C309 O317 1.258 . S
O310 C308 1.247 . S
O310 Zn311 2.028 . S
Zn311 O310 2.028 . S
Zn311 O315 2.035 . S
Zn311 O317 2.035 . S
Zn311 O318 2.028 . S
O312 C308 1.258 . S
O312 Zn313 2.035 . S
Zn313 O312 2.035 . S
Zn313 O314 2.028 . S
Zn313 O316 2.028 . S
Zn313 O319 2.035 . S
O314 Zn313 2.028 . S
O314 C320 1.247 . S
O315 Zn311 2.035 . S
O315 C320 1.258 . S
O316 C309 1.247 . S
O316 Zn313 2.028 . S
O317 C309 1.258 . S
O317 Zn311 2.035 . S
O318 Zn311 2.028 . S
O318 C321 1.247 . S
O319 Zn313 2.035 . S
O319 C321 1.258 . S
C320 O314 1.247 . S
C320 O315 1.258 . S
C321 O318 1.247 . S
C321 O319 1.258 . S
C322 O324 1.247 . S
C322 O326 1.258 . S
C323 O330 1.247 . S
C323 O331 1.258 . S
O324 C322 1.247 . S
O324 Zn325 2.028 . S
Zn325 O324 2.028 . S
Zn325 O329 2.035 . S
Zn325 O331 2.035 . S
Zn325 O332 2.028 . S
O326 C322 1.258 . S
O326 Zn327 2.035 . S
Zn327 O326 2.035 . S
Zn327 O328 2.028 . S
Zn327 O330 2.028 . S
Zn327 O333 2.035 . S
O328 Zn327 2.028 . S
O328 C334 1.247 . S
O329 Zn325 2.035 . S
O329 C334 1.258 . S
O330 C323 1.247 . S
O330 Zn327 2.028 . S
O331 C323 1.258 . S
O331 Zn325 2.035 . S
O332 Zn325 2.028 . S
O332 C335 1.247 . S
O333 Zn327 2.035 . S
O333 C335 1.258 . S
C334 O328 1.247 . S
C334 O329 1.258 . S
C335 O332 1.247 . S
C335 O333 1.258 . S
H336 C354 0.951 . S
H337 C356 0.951 . S
H338 C358 0.950 . S
H339 C359 0.950 . S
H340 C361 0.950 . S
H341 C364 0.950 . S
H342 C365 0.950 . S
H343 C367 0.950 . S
H344 C368 0.950 . S
H345 C369 0.951 . S
H346 C371 0.951 . S
H347 C373 0.950 . S
H348 C374 0.950 . S
H349 C376 0.950 . S
H350 C379 0.950 . S
H351 C380 0.950 . S
H352 C382 0.950 . S
H353 C383 0.950 . S
C354 H336 0.951 . S
C354 C355 1.366 . S
C354 C356 1.388 . S
C355 C354 1.366 . S
C355 C359 1.385 . S
C356 H337 0.951 . S
C356 C354 1.388 . S
C356 C357 1.366 . S
C357 C356 1.366 . S
C357 C358 1.414 . S
C357 C360 1.499 . S
C358 H338 0.950 . S
C358 C357 1.414 . S
C358 C359 1.374 . S
C359 H339 0.950 . S
C359 C355 1.385 . S
C359 C358 1.374 . S
C360 C357 1.499 . S
C360 C361 1.373 . S
C360 C362 1.389 . S
C361 H340 0.950 . S
C361 C360 1.373 . S
C361 C377 1.377 . S
C362 C360 1.389 . S
C362 C363 1.524 . S
C362 C376 1.377 . S
C363 C362 1.524 . S
C363 C364 1.397 . S
C363 C368 1.363 . S
C364 H341 0.950 . S
C364 C363 1.397 . S
C364 C365 1.334 . S
C365 H342 0.950 . S
C365 C364 1.334 . S
C365 C366 1.287 . S
C366 C365 1.287 . S
C366 C367 1.524 . S
C366 H385 0.913 . S
C367 H343 0.950 . S
C367 C366 1.524 . S
C367 C368 1.415 . S
C368 H344 0.950 . S
C368 C363 1.363 . S
C368 C367 1.415 . S
C369 H345 0.951 . S
C369 C370 1.366 . S
C369 C371 1.388 . S
C370 C369 1.366 . S
C370 C374 1.385 . S
C371 H346 0.951 . S
C371 C369 1.388 . S
C371 C372 1.366 . S
C372 C371 1.366 . S
C372 C373 1.414 . S
C372 C375 1.499 . S
C373 H347 0.950 . S
C373 C372 1.414 . S
C373 C374 1.374 . S
C374 H348 0.950 . S
C374 C370 1.385 . S
C374 C373 1.374 . S
C375 C372 1.499 . S
C375 C376 1.373 . S
C375 C377 1.389 . S
C376 H349 0.950 . S
C376 C362 1.377 . S
C376 C375 1.373 . S
C377 C361 1.377 . S
C377 C375 1.389 . S
C377 C378 1.524 . S
C378 C377 1.524 . S
C378 C379 1.397 . S
C378 C383 1.363 . S
C379 H350 0.950 . S
C379 C378 1.397 . S
C379 C380 1.334 . S
C380 H351 0.950 . S
C380 C379 1.334 . S
C380 C381 1.287 . S
C381 C380 1.287 . S
C381 C382 1.524 . S
C381 H384 0.999 . S
C382 H352 0.950 . S
C382 C381 1.524 . S
C382 C383 1.415 . S
C383 H353 0.950 . S
C383 C378 1.363 . S
C383 C382 1.415 . S
H384 C381 0.999 . S
H385 C366 0.913 . S
H386 C404 0.951 . S
H387 C406 0.951 . S
H388 C408 0.950 . S
H389 C409 0.950 . S
H390 C411 0.950 . S
H391 C414 0.950 . S
H392 C415 0.950 . S
H393 C417 0.950 . S
H394 C418 0.950 . S
H395 C419 0.951 . S
H396 C421 0.951 . S
H397 C423 0.950 . S
H398 C424 0.950 . S
H399 C426 0.950 . S
H400 C429 0.950 . S
H401 C430 0.950 . S
H402 C432 0.950 . S
H403 C433 0.950 . S
C404 H386 0.951 . S
C404 C405 1.366 . S
C404 C406 1.388 . S
C405 C404 1.366 . S
C405 C409 1.385 . S
C406 H387 0.951 . S
C406 C404 1.388 . S
C406 C407 1.366 . S
C407 C406 1.366 . S
C407 C408 1.414 . S
C407 C410 1.499 . S
C408 H388 0.950 . S
C408 C407 1.414 . S
C408 C409 1.374 . S
C409 H389 0.950 . S
C409 C405 1.385 . S
C409 C408 1.374 . S
C410 C407 1.499 . S
C410 C411 1.373 . S
C410 C412 1.389 . S
C411 H390 0.950 . S
C411 C410 1.373 . S
C411 C427 1.377 . S
C412 C410 1.389 . S
C412 C413 1.524 . S
C412 C426 1.377 . S
C413 C412 1.524 . S
C413 C414 1.397 . S
C413 C418 1.363 . S
C414 H391 0.950 . S
C414 C413 1.397 . S
C414 C415 1.334 . S
C415 H392 0.950 . S
C415 C414 1.334 . S
C415 C416 1.287 . S
C416 C415 1.287 . S
C416 C417 1.524 . S
C416 H435 0.913 . S
C417 H393 0.950 . S
C417 C416 1.524 . S
C417 C418 1.415 . S
C418 H394 0.950 . S
C418 C413 1.363 . S
C418 C417 1.415 . S
C419 H395 0.951 . S
C419 C420 1.366 . S
C419 C421 1.388 . S
C420 C419 1.366 . S
C420 C424 1.385 . S
C421 H396 0.951 . S
C421 C419 1.388 . S
C421 C422 1.366 . S
C422 C421 1.366 . S
C422 C423 1.414 . S
C422 C425 1.499 . S
C423 H397 0.950 . S
C423 C422 1.414 . S
C423 C424 1.374 . S
C424 H398 0.950 . S
C424 C420 1.385 . S
C424 C423 1.374 . S
C425 C422 1.499 . S
C425 C426 1.373 . S
C425 C427 1.389 . S
C426 H399 0.950 . S
C426 C412 1.377 . S
C426 C425 1.373 . S
C427 C411 1.377 . S
C427 C425 1.389 . S
C427 C428 1.524 . S
C428 C427 1.524 . S
C428 C429 1.397 . S
C428 C433 1.363 . S
C429 H400 0.950 . S
C429 C428 1.397 . S
C429 C430 1.334 . S
C430 H401 0.950 . S
C430 C429 1.334 . S
C430 C431 1.287 . S
C431 C430 1.287 . S
C431 C432 1.524 . S
C431 H434 0.999 . S
C432 H402 0.950 . S
C432 C431 1.524 . S
C432 C433 1.415 . S
C433 H403 0.950 . S
C433 C428 1.363 . S
C433 C432 1.415 . S
H434 C431 0.999 . S
H435 C416 0.913 . S
H436 C454 0.951 . S
H437 C456 0.951 . S
H438 C458 0.950 . S
H439 C459 0.950 . S
H440 C461 0.950 . S
H441 C464 0.950 . S
H442 C465 0.950 . S
H443 C467 0.950 . S
H444 C468 0.950 . S
H445 C469 0.951 . S
H446 C471 0.951 . S
H447 C473 0.950 . S
H448 C474 0.950 . S
H449 C476 0.950 . S
H450 C479 0.950 . S
H451 C480 0.950 . S
H452 C482 0.950 . S
H453 C483 0.950 . S
C454 H436 0.951 . S
C454 C455 1.366 . S
C454 C456 1.388 . S
C455 C454 1.366 . S
C455 C459 1.385 . S
C456 H437 0.951 . S
C456 C454 1.388 . S
C456 C457 1.366 . S
C457 C456 1.366 . S
C457 C458 1.414 . S
C457 C460 1.499 . S
C458 H438 0.950 . S
C458 C457 1.414 . S
C458 C459 1.374 . S
C459 H439 0.950 . S
C459 C455 1.385 . S
C459 C458 1.374 . S
C460 C457 1.499 . S
C460 C461 1.373 . S
C460 C462 1.389 . S
C461 H440 0.950 . S
C461 C460 1.373 . S
C461 C477 1.377 . S
C462 C460 1.389 . S
C462 C463 1.524 . S
C462 C476 1.377 . S
C463 C462 1.524 . S
C463 C464 1.397 . S
C463 C468 1.363 . S
C464 H441 0.950 . S
C464 C463 1.397 . S
C464 C465 1.334 . S
C465 H442 0.950 . S
C465 C464 1.334 . S
C465 C466 1.287 . S
C466 C465 1.287 . S
C466 C467 1.524 . S
C466 H485 0.913 . S
C467 H443 0.950 . S
C467 C466 1.524 . S
C467 C468 1.415 . S
C468 H444 0.950 . S
C468 C463 1.363 . S
C468 C467 1.415 . S
C469 H445 0.951 . S
C469 C470 1.366 . S
C469 C471 1.388 . S
C470 C469 1.366 . S
C470 C474 1.385 . S
C471 H446 0.951 . S
C471 C469 1.388 . S
C471 C472 1.366 . S
C472 C471 1.366 . S
C472 C473 1.414 . S
C472 C475 1.499 . S
C473 H447 0.950 . S
C473 C472 1.414 . S
C473 C474 1.374 . S
C474 H448 0.950 . S
C474 C470 1.385 . S
C474 C473 1.374 . S
C475 C472 1.499 . S
C475 C476 1.373 . S
C475 C477 1.389 . S
C476 H449 0.950 . S
C476 C462 1.377 . S
C476 C475 1.373 . S
C477 C461 1.377 . S
C477 C475 1.389 . S
C477 C478 1.524 . S
C478 C477 1.524 . S
C478 C479 1.397 . S
C478 C483 1.363 . S
C479 H450 0.950 . S
C479 C478 1.397 . S
C479 C480 1.334 . S
C480 H451 0.950 . S
C480 C479 1.334 . S
C480 C481 1.287 . S
C481 C480 1.287 . S
C481 C482 1.524 . S
C481 H484 0.999 . S
C482 H452 0.950 . S
C482 C481 1.524 . S
C482 C483 1.415 . S
C483 H453 0.950 . S
C483 C478 1.363 . S
C483 C482 1.415 . S
H484 C481 0.999 . S
H485 C466 0.913 . S
H486 C504 0.951 . S
H487 C506 0.951 . S
H488 C508 0.950 . S
H489 C509 0.950 . S
H490 C511 0.950 . S
H491 C514 0.950 . S
H492 C515 0.950 . S
H493 C517 0.950 . S
H494 C518 0.950 . S
H495 C519 0.951 . S
H496 C521 0.951 . S
H497 C523 0.950 . S
H498 C524 0.950 . S
H499 C526 0.950 . S
H500 C529 0.950 . S
H501 C530 0.950 . S
H502 C532 0.950 . S
H503 C533 0.950 . S
C504 H486 0.951 . S
C504 C505 1.366 . S
C504 C506 1.388 . S
C505 C504 1.366 . S
C505 C509 1.385 . S
C506 H487 0.951 . S
C506 C504 1.388 . S
C506 C507 1.366 . S
C507 C506 1.366 . S
C507 C508 1.414 . S
C507 C510 1.499 . S
C508 H488 0.950 . S
C508 C507 1.414 . S
C508 C509 1.374 . S
C509 H489 0.950 . S
C509 C505 1.385 . S
C509 C508 1.374 . S
C510 C507 1.499 . S
C510 C511 1.373 . S
C510 C512 1.389 . S
C511 H490 0.950 . S
C511 C510 1.373 . S
C511 C527 1.377 . S
C512 C510 1.389 . S
C512 C513 1.524 . S
C512 C526 1.377 . S
C513 C512 1.524 . S
C513 C514 1.397 . S
C513 C518 1.363 . S
C514 H491 0.950 . S
C514 C513 1.397 . S
C514 C515 1.334 . S
C515 H492 0.950 . S
C515 C514 1.334 . S
C515 C516 1.287 . S
C516 C515 1.287 . S
C516 C517 1.524 . S
C516 H535 0.913 . S
C517 H493 0.950 . S
C517 C516 1.524 . S
C517 C518 1.415 . S
C518 H494 0.950 . S
C518 C513 1.363 . S
C518 C517 1.415 . S
C519 H495 0.951 . S
C519 C520 1.366 . S
C519 C521 1.388 . S
C520 C519 1.366 . S
C520 C524 1.385 . S
C521 H496 0.951 . S
C521 C519 1.388 . S
C521 C522 1.366 . S
C522 C521 1.366 . S
C522 C523 1.414 . S
C522 C525 1.499 . S
C523 H497 0.950 . S
C523 C522 1.414 . S
C523 C524 1.374 . S
C524 H498 0.950 . S
C524 C520 1.385 . S
C524 C523 1.374 . S
C525 C522 1.499 . S
C525 C526 1.373 . S
C525 C527 1.389 . S
C526 H499 0.950 . S
C526 C512 1.377 . S
C526 C525 1.373 . S
C527 C511 1.377 . S
C527 C525 1.389 . S
C527 C528 1.524 . S
C528 C527 1.524 . S
C528 C529 1.397 . S
C528 C533 1.363 . S
C529 H500 0.950 . S
C529 C528 1.397 . S
C529 C530 1.334 . S
C530 H501 0.950 . S
C530 C529 1.334 . S
C530 C531 1.287 . S
C531 C530 1.287 . S
C531 C532 1.524 . S
C531 H534 0.999 . S
C532 H502 0.950 . S
C532 C531 1.524 . S
C532 C533 1.415 . S
C533 H503 0.950 . S
C533 C528 1.363 . S
C533 C532 1.415 . S
H534 C531 0.999 . S
H535 C516 0.913 . S
H536 C554 0.951 . S
H537 C556 0.951 . S
H538 C558 0.950 . S
H539 C559 0.950 . S
H540 C561 0.950 . S
H541 C564 0.950 . S
H542 C565 0.950 . S
H543 C567 0.950 . S
H544 C568 0.950 . S
H545 C569 0.951 . S
H546 C571 0.951 . S
H547 C573 0.950 . S
H548 C574 0.950 . S
H549 C576 0.950 . S
H550 C579 0.950 . S
H551 C580 0.950 . S
H552 C582 0.950 . S
H553 C583 0.950 . S
C554 H536 0.951 . S
C554 C555 1.366 . S
C554 C556 1.388 . S
C555 C554 1.366 . S
C555 C559 1.385 . S
C556 H537 0.951 . S
C556 C554 1.388 . S
C556 C557 1.366 . S
C557 C556 1.366 . S
C557 C558 1.414 . S
C557 C560 1.499 . S
C558 H538 0.950 . S
C558 C557 1.414 . S
C558 C559 1.374 . S
C559 H539 0.950 . S
C559 C555 1.385 . S
C559 C558 1.374 . S
C560 C557 1.499 . S
C560 C561 1.373 . S
C560 C562 1.389 . S
C561 H540 0.950 . S
C561 C560 1.373 . S
C561 C577 1.377 . S
C562 C560 1.389 . S
C562 C563 1.524 . S
C562 C576 1.377 . S
C563 C562 1.524 . S
C563 C564 1.397 . S
C563 C568 1.363 . S
C564 H541 0.950 . S
C564 C563 1.397 . S
C564 C565 1.334 . S
C565 H542 0.950 . S
C565 C564 1.334 . S
C565 C566 1.287 . S
C566 C565 1.287 . S
C566 C567 1.524 . S
C566 H585 0.913 . S
C567 H543 0.950 . S
C567 C566 1.524 . S
C567 C568 1.415 . S
C568 H544 0.950 . S
C568 C563 1.363 . S
C568 C567 1.415 . S
C569 H545 0.951 . S
C569 C570 1.366 . S
C569 C571 1.388 . S
C570 C569 1.366 . S
C570 C574 1.385 . S
C571 H546 0.951 . S
C571 C569 1.388 . S
C571 C572 1.366 . S
C572 C571 1.366 . S
C572 C573 1.414 . S
C572 C575 1.499 . S
C573 H547 0.950 . S
C573 C572 1.414 . S
C573 C574 1.374 . S
C574 H548 0.950 . S
C574 C570 1.385 . S
C574 C573 1.374 . S
C575 C572 1.499 . S
C575 C576 1.373 . S
C575 C577 1.389 . S
C576 H549 0.950 . S
C576 C562 1.377 . S
C576 C575 1.373 . S
C577 C561 1.377 . S
C577 C575 1.389 . S
C577 C578 1.524 . S
C578 C577 1.524 . S
C578 C579 1.397 . S
C578 C583 1.363 . S
C579 H550 0.950 . S
C579 C578 1.397 . S
C579 C580 1.334 . S
C580 H551 0.950 . S
C580 C579 1.334 . S
C580 C581 1.287 . S
C581 C580 1.287 . S
C581 C582 1.524 . S
C581 H584 0.999 . S
C582 H552 0.950 . S
C582 C581 1.524 . S
C582 C583 1.415 . S
C583 H553 0.950 . S
C583 C578 1.363 . S
C583 C582 1.415 . S
H584 C581 0.999 . S
H585 C566 0.913 . S
H586 C604 0.951 . S
H587 C606 0.951 . S
H588 C608 0.950 . S
H589 C609 0.950 . S
H590 C611 0.950 . S
H591 C614 0.950 . S
H592 C615 0.950 . S
H593 C617 0.950 . S
H594 C618 0.950 . S
H595 C619 0.951 . S
H596 C621 0.951 . S
H597 C623 0.950 . S
H598 C624 0.950 . S
H599 C626 0.950 . S
H600 C629 0.950 . S
H601 C630 0.950 . S
H602 C632 0.950 . S
H603 C633 0.950 . S
C604 H586 0.951 . S
C604 C605 1.366 . S
C604 C606 1.388 . S
C605 C604 1.366 . S
C605 C609 1.385 . S
C606 H587 0.951 . S
C606 C604 1.388 . S
C606 C607 1.366 . S
C607 C606 1.366 . S
C607 C608 1.414 . S
C607 C610 1.499 . S
C608 H588 0.950 . S
C608 C607 1.414 . S
C608 C609 1.374 . S
C609 H589 0.950 . S
C609 C605 1.385 . S
C609 C608 1.374 . S
C610 C607 1.499 . S
C610 C611 1.373 . S
C610 C612 1.389 . S
C611 H590 0.950 . S
C611 C610 1.373 . S
C611 C627 1.377 . S
C612 C610 1.389 . S
C612 C613 1.524 . S
C612 C626 1.377 . S
C613 C612 1.524 . S
C613 C614 1.397 . S
C613 C618 1.363 . S
C614 H591 0.950 . S
C614 C613 1.397 . S
C614 C615 1.334 . S
C615 H592 0.950 . S
C615 C614 1.334 . S
C615 C616 1.287 . S
C616 C615 1.287 . S
C616 C617 1.524 . S
C616 H635 0.913 . S
C617 H593 0.950 . S
C617 C616 1.524 . S
C617 C618 1.415 . S
C618 H594 0.950 . S
C618 C613 1.363 . S
C618 C617 1.415 . S
C619 H595 0.951 . S
C619 C620 1.366 . S
C619 C621 1.388 . S
C620 C619 1.366 . S
C620 C624 1.385 . S
C621 H596 0.951 . S
C621 C619 1.388 . S
C621 C622 1.366 . S
C622 C621 1.366 . S
C622 C623 1.414 . S
C622 C625 1.499 . S
C623 H597 0.950 . S
C623 C622 1.414 . S
C623 C624 1.374 . S
C624 H598 0.950 . S
C624 C620 1.385 . S
C624 C623 1.374 . S
C625 C622 1.499 . S
C625 C626 1.373 . S
C625 C627 1.389 . S
C626 H599 0.950 . S
C626 C612 1.377 . S
C626 C625 1.373 . S
C627 C611 1.377 . S
C627 C625 1.389 . S
C627 C628 1.524 . S
C628 C627 1.524 . S
C628 C629 1.397 . S
C628 C633 1.363 . S
C629 H600 0.950 . S
C629 C628 1.397 . S
C629 C630 1.334 . S
C630 H601 0.950 . S
C630 C629 1.334 . S
C630 C631 1.287 . S
C631 C630 1.287 . S
C631 C632 1.524 . S
C631 H634 0.999 . S
C632 H602 0.950 . S
C632 C631 1.524 . S
C632 C633 1.415 . S
C633 H603 0.950 . S
C633 C628 1.363 . S
C633 C632 1.415 . S
H634 C631 0.999 . S
H635 C616 0.913 . S
H636 C654 0.951 . S
H637 C656 0.951 . S
H638 C658 0.950 . S
H639 C659 0.950 . S
H640 C661 0.950 . S
H641 C664 0.950 . S
H642 C665 0.950 . S
H643 C667 0.950 . S
H644 C668 0.950 . S
H645 C669 0.951 . S
H646 C671 0.951 . S
H647 C673 0.950 . S
H648 C674 0.950 . S
H649 C676 0.950 . S
H650 C679 0.950 . S
H651 C680 0.950 . S
H652 C682 0.950 . S
H653 C683 0.950 . S
C654 H636 0.951 . S
C654 C655 1.366 . S
C654 C656 1.388 . S
C655 C654 1.366 . S
C655 C659 1.385 . S
C656 H637 0.951 . S
C656 C654 1.388 . S
C656 C657 1.366 . S
C657 C656 1.366 . S
C657 C658 1.414 . S
C657 C660 1.499 . S
C658 H638 0.950 . S
C658 C657 1.414 . S
C658 C659 1.374 . S
C659 H639 0.950 . S
C659 C655 1.385 . S
C659 C658 1.374 . S
C660 C657 1.499 . S
C660 C661 1.373 . S
C660 C662 1.389 . S
C661 H640 0.950 . S
C661 C660 1.373 . S
C661 C677 1.377 . S
C662 C660 1.389 . S
C662 C663 1.524 . S
C662 C676 1.377 . S
C663 C662 1.524 . S
C663 C664 1.397 . S
C663 C668 1.363 . S
C664 H641 0.950 . S
C664 C663 1.397 . S
C664 C665 1.334 . S
C665 H642 0.950 . S
C665 C664 1.334 . S
C665 C666 1.287 . S
C666 C665 1.287 . S
C666 C667 1.524 . S
C666 H685 0.913 . S
C667 H643 0.950 . S
C667 C666 1.524 . S
C667 C668 1.415 . S
C668 H644 0.950 . S
C668 C663 1.363 . S
C668 C667 1.415 . S
C669 H645 0.951 . S
C669 C670 1.366 . S
C669 C671 1.388 . S
C670 C669 1.366 . S
C670 C674 1.385 . S
C671 H646 0.951 . S
C671 C669 1.388 . S
C671 C672 1.366 . S
C672 C671 1.366 . S
C672 C673 1.414 . S
C672 C675 1.499 . S
C673 H647 0.950 . S
C673 C672 1.414 . S
C673 C674 1.374 . S
C674 H648 0.950 . S
C674 C670 1.385 . S
C674 C673 1.374 . S
C675 C672 1.499 . S
C675 C676 1.373 . S
C675 C677 1.389 . S
C676 H649 0.950 . S
C676 C662 1.377 . S
C676 C675 1.373 . S
C677 C661 1.377 . S
C677 C675 1.389 . S
C677 C678 1.524 . S
C678 C677 1.524 . S
C678 C679 1.397 . S
C678 C683 1.363 . S
C679 H650 0.950 . S
C679 C678 1.397 . S
C679 C680 1.334 . S
C680 H651 0.950 . S
C680 C679 1.334 . S
C680 C681 1.287 . S
C681 C680 1.287 . S
C681 C682 1.524 . S
C681 H684 0.999 . S
C682 H652 0.950 . S
C682 C681 1.524 . S
C682 C683 1.415 . S
C683 H653 0.950 . S
C683 C678 1.363 . S
C683 C682 1.415 . S
H684 C681 0.999 . S
H685 C666 0.913 . S
H686 C704 0.951 . S
H687 C706 0.951 . S
H688 C708 0.950 . S
H689 C709 0.950 . S
H690 C711 0.950 . S
H691 C714 0.950 . S
H692 C715 0.950 . S
H693 C717 0.950 . S
H694 C718 0.950 . S
H695 C719 0.951 . S
H696 C721 0.951 . S
H697 C723 0.950 . S
H698 C724 0.950 . S
H699 C726 0.950 . S
H700 C729 0.950 . S
H701 C730 0.950 . S
H702 C732 0.950 . S
H703 C733 0.950 . S
C704 H686 0.951 . S
C704 C705 1.366 . S
C704 C706 1.388 . S
C705 C704 1.366 . S
C705 C709 1.385 . S
C706 H687 0.951 . S
C706 C704 1.388 . S
C706 C707 1.366 . S
C707 C706 1.366 . S
C707 C708 1.414 . S
C707 C710 1.499 . S
C708 H688 0.950 . S
C708 C707 1.414 . S
C708 C709 1.374 . S
C709 H689 0.950 . S
C709 C705 1.385 . S
C709 C708 1.374 . S
C710 C707 1.499 . S
C710 C711 1.373 . S
C710 C712 1.389 . S
C711 H690 0.950 . S
C711 C710 1.373 . S
C711 C727 1.377 . S
C712 C710 1.389 . S
C712 C713 1.524 . S
C712 C726 1.377 . S
C713 C712 1.524 . S
C713 C714 1.397 . S
C713 C718 1.363 . S
C714 H691 0.950 . S
C714 C713 1.397 . S
C714 C715 1.334 . S
C715 H692 0.950 . S
C715 C714 1.334 . S
C715 C716 1.287 . S
C716 C715 1.287 . S
C716 C717 1.524 . S
C716 H735 0.913 . S
C717 H693 0.950 . S
C717 C716 1.524 . S
C717 C718 1.415 . S
C718 H694 0.950 . S
C718 C713 1.363 . S
C718 C717 1.415 . S
C719 H695 0.951 . S
C719 C720 1.366 . S
C719 C721 1.388 . S
C720 C719 1.366 . S
C720 C724 1.385 . S
C721 H696 0.951 . S
C721 C719 1.388 . S
C721 C722 1.366 . S
C722 C721 1.366 . S
C722 C723 1.414 . S
C722 C725 1.499 . S
C723 H697 0.950 . S
C723 C722 1.414 . S
C723 C724 1.374 . S
C724 H698 0.950 . S
C724 C720 1.385 . S
C724 C723 1.374 . S
C725 C722 1.499 . S
C725 C726 1.373 . S
C725 C727 1.389 . S
C726 H699 0.950 . S
C726 C712 1.377 . S
C726 C725 1.373 . S
C727 C711 1.377 . S
C727 C725 1.389 . S
C727 C728 1.524 . S
C728 C727 1.524 . S
C728 C729 1.397 . S
C728 C733 1.363 . S
C729 H700 0.950 . S
C729 C728 1.397 . S
C729 C730 1.334 . S
C730 H701 0.950 . S
C730 C729 1.334 . S
C730 C731 1.287 . S
C731 C730 1.287 . S
C731 C732 1.524 . S
C731 H734 0.999 . S
C732 H702 0.950 . S
C732 C731 1.524 . S
C732 C733 1.415 . S
C733 H703 0.950 . S
C733 C728 1.363 . S
C733 C732 1.415 . S
H734 C731 0.999 . S
H735 C716 0.913 . S
H736 C754 0.951 . S
H737 C756 0.951 . S
H738 C758 0.950 . S
H739 C759 0.950 . S
H740 C761 0.950 . S
H741 C764 0.950 . S
H742 C765 0.950 . S
H743 C767 0.950 . S
H744 C768 0.950 . S
H745 C769 0.951 . S
H746 C771 0.951 . S
H747 C773 0.950 . S
H748 C774 0.950 . S
H749 C776 0.950 . S
H750 C779 0.950 . S
H751 C780 0.950 . S
H752 C782 0.950 . S
H753 C783 0.950 . S
C754 H736 0.951 . S
C754 C755 1.366 . S
C754 C756 1.388 . S
C755 C754 1.366 . S
C755 C759 1.385 . S
C756 H737 0.951 . S
C756 C754 1.388 . S
C756 C757 1.366 . S
C757 C756 1.366 . S
C757 C758 1.414 . S
C757 C760 1.499 . S
C758 H738 0.950 . S
C758 C757 1.414 . S
C758 C759 1.374 . S
C759 H739 0.950 . S
C759 C755 1.385 . S
C759 C758 1.374 . S
C760 C757 1.499 . S
C760 C761 1.373 . S
C760 C762 1.389 . S
C761 H740 0.950 . S
C761 C760 1.373 . S
C761 C777 1.377 . S
C762 C760 1.389 . S
C762 C763 1.524 . S
C762 C776 1.377 . S
C763 C762 1.524 . S
C763 C764 1.397 . S
C763 C768 1.363 . S
C764 H741 0.950 . S
C764 C763 1.397 . S
C764 C765 1.334 . S
C765 H742 0.950 . S
C765 C764 1.334 . S
C765 C766 1.287 . S
C766 C765 1.287 . S
C766 C767 1.524 . S
C766 H785 0.913 . S
C767 H743 0.950 . S
C767 C766 1.524 . S
C767 C768 1.415 . S
C768 H744 0.950 . S
C768 C763 1.363 . S
C768 C767 1.415 . S
C769 H745 0.951 . S
C769 C770 1.366 . S
C769 C771 1.388 . S
C770 C769 1.366 . S
C770 C774 1.385 . S
C771 H746 0.951 . S
C771 C769 1.388 . S
C771 C772 1.366 . S
C772 C771 1.366 . S
C772 C773 1.414 . S
C772 C775 1.499 . S
C773 H747 0.950 . S
C773 C772 1.414 . S
C773 C774 1.374 . S
C774 H748 0.950 . S
C774 C770 1.385 . S
C774 C773 1.374 . S
C775 C772 1.499 . S
C775 C776 1.373 . S
C775 C777 1.389 . S
C776 H749 0.950 . S
C776 C762 1.377 . S
C776 C775 1.373 . S
C777 C761 1.377 . S
C777 C775 1.389 . S
C777 C778 1.524 . S
C778 C777 1.524 . S
C778 C779 1.397 . S
C778 C783 1.363 . S
C779 H750 0.950 . S
C779 C778 1.397 . S
C779 C780 1.334 . S
C780 H751 0.950 . S
C780 C779 1.334 . S
C780 C781 1.287 . S
C781 C780 1.287 . S
C781 C782 1.524 . S
C781 H784 0.999 . S
C782 H752 0.950 . S
C782 C781 1.524 . S
C782 C783 1.415 . S
C783 H753 0.950 . S
C783 C778 1.363 . S
C783 C782 1.415 . S
H784 C781 0.999 . S
H785 C766 0.913 . S
H786 C804 0.951 . S
H787 C806 0.951 . S
H788 C808 0.950 . S
H789 C809 0.950 . S
H790 C811 0.950 . S
H791 C814 0.950 . S
H792 C815 0.950 . S
H793 C817 0.950 . S
H794 C818 0.950 . S
H795 C819 0.951 . S
H796 C821 0.951 . S
H797 C823 0.950 . S
H798 C824 0.950 . S
H799 C826 0.950 . S
H800 C829 0.950 . S
H801 C830 0.950 . S
H802 C832 0.950 . S
H803 C833 0.950 . S
C804 H786 0.951 . S
C804 C805 1.366 . S
C804 C806 1.388 . S
C805 C804 1.366 . S
C805 C809 1.385 . S
C806 H787 0.951 . S
C806 C804 1.388 . S
C806 C807 1.366 . S
C807 C806 1.366 . S
C807 C808 1.414 . S
C807 C810 1.499 . S
C808 H788 0.950 . S
C808 C807 1.414 . S
C808 C809 1.374 . S
C809 H789 0.950 . S
C809 C805 1.385 . S
C809 C808 1.374 . S
C810 C807 1.499 . S
C810 C811 1.373 . S
C810 C812 1.389 . S
C811 H790 0.950 . S
C811 C810 1.373 . S
C811 C827 1.377 . S
C812 C810 1.389 . S
C812 C813 1.524 . S
C812 C826 1.377 . S
C813 C812 1.524 . S
C813 C814 1.397 . S
C813 C818 1.363 . S
C814 H791 0.950 . S
C814 C813 1.397 . S
C814 C815 1.334 . S
C815 H792 0.950 . S
C815 C814 1.334 . S
C815 C816 1.287 . S
C816 C815 1.287 . S
C816 C817 1.524 . S
C816 H835 0.913 . S
C817 H793 0.950 . S
C817 C816 1.524 . S
C817 C818 1.415 . S
C818 H794 0.950 . S
C818 C813 1.363 . S
C818 C817 1.415 . S
C819 H795 0.951 . S
C819 C820 1.366 . S
C819 C821 1.388 . S
C820 C819 1.366 . S
C820 C824 1.385 . S
C821 H796 0.951 . S
C821 C819 1.388 . S
C821 C822 1.366 . S
C822 C821 1.366 . S
C822 C823 1.414 . S
C822 C825 1.499 . S
C823 H797 0.950 . S
C823 C822 1.414 . S
C823 C824 1.374 . S
C824 H798 0.950 . S
C824 C820 1.385 . S
C824 C823 1.374 . S
C825 C822 1.499 . S
C825 C826 1.373 . S
C825 C827 1.389 . S
C826 H799 0.950 . S
C826 C812 1.377 . S
C826 C825 1.373 . S
C827 C811 1.377 . S
C827 C825 1.389 . S
C827 C828 1.524 . S
C828 C827 1.524 . S
C828 C829 1.397 . S
C828 C833 1.363 . S
C829 H800 0.950 . S
C829 C828 1.397 . S
C829 C830 1.334 . S
C830 H801 0.950 . S
C830 C829 1.334 . S
C830 C831 1.287 . S
C831 C830 1.287 . S
C831 C832 1.524 . S
C831 H834 0.999 . S
C832 H802 0.950 . S
C832 C831 1.524 . S
C832 C833 1.415 . S
C833 H803 0.950 . S
C833 C828 1.363 . S
C833 C832 1.415 . S
H834 C831 0.999 . S
H835 C816 0.913 . S
H836 C854 0.951 . S
H837 C856 0.951 . S
H838 C858 0.950 . S
H839 C859 0.950 . S
H840 C861 0.950 . S
H841 C864 0.950 . S
H842 C865 0.950 . S
H843 C867 0.950 . S
H844 C868 0.950 . S
H845 C869 0.951 . S
H846 C871 0.951 . S
H847 C873 0.950 . S
H848 C874 0.950 . S
H849 C876 0.950 . S
H850 C879 0.950 . S
H851 C880 0.950 . S
H852 C882 0.950 . S
H853 C883 0.950 . S
C854 H836 0.951 . S
C854 C855 1.366 . S
C854 C856 1.388 . S
C855 C854 1.366 . S
C855 C859 1.385 . S
C856 H837 0.951 . S
C856 C854 1.388 . S
C856 C857 1.366 . S
C857 C856 1.366 . S
C857 C858 1.414 . S
C857 C860 1.499 . S
C858 H838 0.950 . S
C858 C857 1.414 . S
C858 C859 1.374 . S
C859 H839 0.950 . S
C859 C855 1.385 . S
C859 C858 1.374 . S
C860 C857 1.499 . S
C860 C861 1.373 . S
C860 C862 1.389 . S
C861 H840 0.950 . S
C861 C860 1.373 . S
C861 C877 1.377 . S
C862 C860 1.389 . S
C862 C863 1.524 . S
C862 C876 1.377 . S
C863 C862 1.524 . S
C863 C864 1.397 . S
C863 C868 1.363 . S
C864 H841 0.950 . S
C864 C863 1.397 . S
C864 C865 1.334 . S
C865 H842 0.950 . S
C865 C864 1.334 . S
C865 C866 1.287 . S
C866 C865 1.287 . S
C866 C867 1.524 . S
C866 H885 0.913 . S
C867 H843 0.950 . S
C867 C866 1.524 . S
C867 C868 1.415 . S
C868 H844 0.950 . S
C868 C863 1.363 . S
C868 C867 1.415 . S
C869 H845 0.951 . S
C869 C870 1.366 . S
C869 C871 1.388 . S
C870 C869 1.366 . S
C870 C874 1.385 . S
C871 H846 0.951 . S
C871 C869 1.388 . S
C871 C872 1.366 . S
C872 C871 1.366 . S
C872 C873 1.414 . S
C872 C875 1.499 . S
C873 H847 0.950 . S
C873 C872 1.414 . S
C873 C874 1.374 . S
C874 H848 0.950 . S
C874 C870 1.385 . S
C874 C873 1.374 . S
C875 C872 1.499 . S
C875 C876 1.373 . S
C875 C877 1.389 . S
C876 H849 0.950 . S
C876 C862 1.377 . S
C876 C875 1.373 . S
C877 C861 1.377 . S
C877 C875 1.389 . S
C877 C878 1.524 . S
C878 C877 1.524 . S
C878 C879 1.397 . S
C878 C883 1.363 . S
C879 H850 0.950 . S
C879 C878 1.397 . S
C879 C880 1.334 . S
C880 H851 0.950 . S
C880 C879 1.334 . S
C880 C881 1.287 . S
C881 C880 1.287 . S
C881 C882 1.524 . S
C881 H884 0.999 . S
C882 H852 0.950 . S
C882 C881 1.524 . S
C882 C883 1.415 . S
C883 H853 0.950 . S
C883 C878 1.363 . S
C883 C882 1.415 . S
H884 C881 0.999 . S
H885 C866 0.913 . S
H886 C904 0.951 . S
H887 C906 0.951 . S
H888 C908 0.950 . S
H889 C909 0.950 . S
H890 C911 0.950 . S
H891 C914 0.950 . S
H892 C915 0.950 . S
H893 C917 0.950 . S
H894 C918 0.950 . S
H895 C919 0.951 . S
H896 C921 0.951 . S
H897 C923 0.950 . S
H898 C924 0.950 . S
H899 C926 0.950 . S
H900 C929 0.950 . S
H901 C930 0.950 . S
H902 C932 0.950 . S
H903 C933 0.950 . S
C904 H886 0.951 . S
C904 C905 1.366 . S
C904 C906 1.388 . S
C905 C904 1.366 . S
C905 C909 1.385 . S
C906 H887 0.951 . S
C906 C904 1.388 . S
C906 C907 1.366 . S
C907 C906 1.366 . S
C907 C908 1.414 . S
C907 C910 1.499 . S
C908 H888 0.950 . S
C908 C907 1.414 . S
C908 C909 1.374 . S
C909 H889 0.950 . S
C909 C905 1.385 . S
C909 C908 1.374 . S
C910 C907 1.499 . S
C910 C911 1.373 . S
C910 C912 1.389 . S
C911 H890 0.950 . S
C911 C910 1.373 . S
C911 C927 1.377 . S
C912 C910 1.389 . S
C912 C913 1.524 . S
C912 C926 1.377 . S
C913 C912 1.524 . S
C913 C914 1.397 . S
C913 C918 1.363 . S
C914 H891 0.950 . S
C914 C913 1.397 . S
C914 C915 1.334 . S
C915 H892 0.950 . S
C915 C914 1.334 . S
C915 C916 1.287 . S
C916 C915 1.287 . S
C916 C917 1.524 . S
C916 H935 0.913 . S
C917 H893 0.950 . S
C917 C916 1.524 . S
C917 C918 1.415 . S
C918 H894 0.950 . S
C918 C913 1.363 . S
C918 C917 1.415 . S
C919 H895 0.951 . S
C919 C920 1.366 . S
C919 C921 1.388 . S
C920 C919 1.366 . S
C920 C924 1.385 . S
C921 H896 0.951 . S
C921 C919 1.388 . S
C921 C922 1.366 . S
C922 C921 1.366 . S
C922 C923 1.414 . S
C922 C925 1.499 . S
C923 H897 0.950 . S
C923 C922 1.414 . S
C923 C924 1.374 . S
C924 H898 0.950 . S
C924 C920 1.385 . S
C924 C923 1.374 . S
C925 C922 1.499 . S
C925 C926 1.373 . S
C925 C927 1.389 . S
C926 H899 0.950 . S
C926 C912 1.377 . S
C926 C925 1.373 . S
C927 C911 1.377 . S
C927 C925 1.389 . S
C927 C928 1.524 . S
C928 C927 1.524 . S
C928 C929 1.397 . S
C928 C933 1.363 . S
C929 H900 0.950 . S
C929 C928 1.397 . S
C929 C930 1.334 . S
C930 H901 0.950 . S
C930 C929 1.334 . S
C930 C931 1.287 . S
C931 C930 1.287 . S
C931 C932 1.524 . S
C931 H934 0.999 . S
C932 H902 0.950 . S
C932 C931 1.524 . S
C932 C933 1.415 . S
C933 H903 0.950 . S
C933 C928 1.363 . S
C933 C932 1.415 . S
H934 C931 0.999 . S
H935 C916 0.913 . S
H936 C954 0.951 . S
H937 C956 0.951 . S
H938 C958 0.950 . S
H939 C959 0.950 . S
H940 C961 0.950 . S
H941 C964 0.939 1_565 S
H942 C965 0.950 . S
H943 C967 0.950 . S
H944 C968 0.950 . S
H945 C969 0.951 . S
H946 C971 0.951 . S
H947 C973 0.950 . S
H948 C974 0.950 . S
H949 C976 0.950 . S
H950 C979 0.939 1_545 S
H951 C980 0.950 . S
H952 C982 0.950 . S
H953 C983 0.950 . S
C954 H936 0.951 . S
C954 C955 1.366 . S
C954 C956 1.388 . S
C955 C954 1.366 . S
C955 C959 1.385 . S
C956 H937 0.951 . S
C956 C954 1.388 . S
C956 C957 1.366 . S
C957 C956 1.366 . S
C957 C958 1.414 . S
C957 C960 1.499 . S
C958 H938 0.950 . S
C958 C957 1.414 . S
C958 C959 1.374 . S
C959 H939 0.950 . S
C959 C955 1.385 . S
C959 C958 1.374 . S
C960 C957 1.499 . S
C960 C961 1.373 . S
C960 C962 1.389 1_565 S
C961 H940 0.950 . S
C961 C960 1.373 . S
C961 C977 1.377 . S
C962 C960 1.389 1_545 S
C962 C963 1.524 . S
C962 C976 1.377 . S
C963 C962 1.524 . S
C963 C964 1.397 . S
C963 C968 1.363 . S
C964 H941 0.939 1_545 S
C964 C963 1.397 . S
C964 C965 1.334 . S
C965 H942 0.950 . S
C965 C964 1.334 . S
C965 C966 1.287 . S
C966 C965 1.287 . S
C966 C967 1.524 . S
C966 H985 0.913 . S
C967 H943 0.950 . S
C967 C966 1.524 . S
C967 C968 1.415 . S
C968 H944 0.950 . S
C968 C963 1.363 . S
C968 C967 1.415 . S
C969 H945 0.951 . S
C969 C970 1.366 . S
C969 C971 1.388 . S
C970 C969 1.366 . S
C970 C974 1.385 . S
C971 H946 0.951 . S
C971 C969 1.388 . S
C971 C972 1.366 . S
C972 C971 1.366 . S
C972 C973 1.414 . S
C972 C975 1.499 . S
C973 H947 0.950 . S
C973 C972 1.414 . S
C973 C974 1.374 . S
C974 H948 0.950 . S
C974 C970 1.385 . S
C974 C973 1.374 . S
C975 C972 1.499 . S
C975 C976 1.373 . S
C975 C977 1.389 1_545 S
C976 H949 0.950 . S
C976 C962 1.377 . S
C976 C975 1.373 . S
C977 C961 1.377 . S
C977 C975 1.389 1_565 S
C977 C978 1.524 . S
C978 C977 1.524 . S
C978 C979 1.397 . S
C978 C983 1.363 . S
C979 H950 0.939 1_565 S
C979 C978 1.397 . S
C979 C980 1.334 . S
C980 H951 0.950 . S
C980 C979 1.334 . S
C980 C981 1.287 . S
C981 C980 1.287 . S
C981 C982 1.524 . S
C981 H984 0.999 . S
C982 H952 0.950 . S
C982 C981 1.524 . S
C982 C983 1.415 . S
C983 H953 0.950 . S
C983 C978 1.363 . S
C983 C982 1.415 . S
H984 C981 0.999 . S
H985 C966 0.913 . S
H986 C1004 0.951 . S
H987 C1006 0.951 . S
H988 C1008 0.950 . S
H989 C1009 0.950 . S
H990 C1011 0.950 . S
H991 C1014 0.950 . S
H992 C1015 0.950 . S
H993 C1017 0.950 . S
H994 C1018 0.950 . S
H995 C1019 0.951 . S
H996 C1021 0.951 . S
H997 C1023 0.950 . S
H998 C1024 0.950 . S
H999 C1026 0.950 . S
H1000 C1029 0.950 . S
H1001 C1030 0.950 . S
H1002 C1032 0.950 . S
H1003 C1033 0.950 . S
C1004 H986 0.951 . S
C1004 C1005 1.366 . S
C1004 C1006 1.388 . S
C1005 C1004 1.366 . S
C1005 C1009 1.385 . S
C1006 H987 0.951 . S
C1006 C1004 1.388 . S
C1006 C1007 1.366 . S
C1007 C1006 1.366 . S
C1007 C1008 1.414 . S
C1007 C1010 1.499 . S
C1008 H988 0.950 . S
C1008 C1007 1.414 . S
C1008 C1009 1.374 . S
C1009 H989 0.950 . S
C1009 C1005 1.385 . S
C1009 C1008 1.374 . S
C1010 C1007 1.499 . S
C1010 C1011 1.373 1_655 S
C1010 C1012 1.389 . S
C1011 H990 0.950 . S
C1011 C1010 1.373 1_455 S
C1011 C1027 1.377 . S
C1012 C1010 1.389 . S
C1012 C1013 1.524 . S
C1012 C1026 1.377 . S
C1013 C1012 1.524 . S
C1013 C1014 1.397 . S
C1013 C1018 1.363 . S
C1014 H991 0.950 . S
C1014 C1013 1.397 . S
C1014 C1015 1.334 . S
C1015 H992 0.950 . S
C1015 C1014 1.334 . S
C1015 C1016 1.287 . S
C1016 C1015 1.287 . S
C1016 C1017 1.524 . S
C1016 H1035 0.913 . S
C1017 H993 0.950 . S
C1017 C1016 1.524 . S
C1017 C1018 1.415 . S
C1018 H994 0.950 . S
C1018 C1013 1.363 . S
C1018 C1017 1.415 . S
C1019 H995 0.951 . S
C1019 C1020 1.366 . S
C1019 C1021 1.388 . S
C1020 C1019 1.366 . S
C1020 C1024 1.385 . S
C1021 H996 0.951 . S
C1021 C1019 1.388 . S
C1021 C1022 1.366 . S
C1022 C1021 1.366 . S
C1022 C1023 1.414 . S
C1022 C1025 1.499 . S
C1023 H997 0.950 . S
C1023 C1022 1.414 . S
C1023 C1024 1.374 . S
C1024 H998 0.950 . S
C1024 C1020 1.385 . S
C1024 C1023 1.374 . S
C1025 C1022 1.499 . S
C1025 C1026 1.373 1_455 S
C1025 C1027 1.389 . S
C1026 H999 0.950 . S
C1026 C1012 1.377 . S
C1026 C1025 1.373 1_655 S
C1027 C1011 1.377 . S
C1027 C1025 1.389 . S
C1027 C1028 1.524 . S
C1028 C1027 1.524 . S
C1028 C1029 1.397 . S
C1028 C1033 1.363 . S
C1029 H1000 0.950 . S
C1029 C1028 1.397 . S
C1029 C1030 1.334 . S
C1030 H1001 0.950 . S
C1030 C1029 1.334 . S
C1030 C1031 1.287 . S
C1031 C1030 1.287 . S
C1031 C1032 1.524 . S
C1031 H1034 0.999 . S
C1032 H1002 0.950 . S
C1032 C1031 1.524 . S
C1032 C1033 1.415 . S
C1033 H1003 0.950 . S
C1033 C1028 1.363 . S
C1033 C1032 1.415 . S
H1034 C1031 0.999 . S
H1035 C1016 0.913 . S
H1036 C1054 0.951 . S
H1037 C1056 0.951 . S
H1038 C1058 0.950 . S
H1039 C1059 0.950 . S
H1040 C1061 0.950 . S
H1041 C1064 0.950 . S
H1042 C1065 0.950 . S
H1043 C1067 0.950 . S
H1044 C1068 0.950 . S
H1045 C1069 0.951 . S
H1046 C1071 0.951 . S
H1047 C1073 0.950 . S
H1048 C1074 0.950 . S
H1049 C1076 0.950 . S
H1050 C1079 0.950 . S
H1051 C1080 0.950 . S
H1052 C1082 0.950 . S
H1053 C1083 0.950 . S
C1054 H1036 0.951 . S
C1054 C1055 1.366 . S
C1054 C1056 1.388 . S
C1055 C1054 1.366 . S
C1055 C1059 1.385 . S
C1056 H1037 0.951 . S
C1056 C1054 1.388 . S
C1056 C1057 1.366 . S
C1057 C1056 1.366 . S
C1057 C1058 1.414 . S
C1057 C1060 1.499 . S
C1058 H1038 0.950 . S
C1058 C1057 1.414 . S
C1058 C1059 1.374 . S
C1059 H1039 0.950 . S
C1059 C1055 1.385 . S
C1059 C1058 1.374 . S
C1060 C1057 1.499 . S
C1060 C1061 1.373 . S
C1060 C1062 1.378 1_545 S
C1061 H1040 0.950 . S
C1061 C1060 1.373 . S
C1061 C1077 1.387 . S
C1062 C1060 1.378 1_565 S
C1062 C1063 1.525 . S
C1062 C1076 1.387 . S
C1063 C1062 1.525 . S
C1063 C1064 1.397 1_565 S
C1063 C1068 1.363 . S
C1064 H1041 0.950 . S
C1064 C1063 1.397 1_545 S
C1064 C1065 1.334 . S
C1065 H1042 0.950 . S
C1065 C1064 1.334 . S
C1065 C1066 1.287 1_545 S
C1066 C1065 1.287 1_565 S
C1066 C1067 1.524 . S
C1066 H1085 0.913 . S
C1067 H1043 0.950 . S
C1067 C1066 1.524 . S
C1067 C1068 1.415 . S
C1068 H1044 0.950 . S
C1068 C1063 1.363 . S
C1068 C1067 1.415 . S
C1069 H1045 0.951 . S
C1069 C1070 1.366 . S
C1069 C1071 1.388 . S
C1070 C1069 1.366 . S
C1070 C1074 1.385 . S
C1071 H1046 0.951 . S
C1071 C1069 1.388 . S
C1071 C1072 1.366 . S
C1072 C1071 1.366 . S
C1072 C1073 1.414 . S
C1072 C1075 1.499 . S
C1073 H1047 0.950 . S
C1073 C1072 1.414 . S
C1073 C1074 1.374 . S
C1074 H1048 0.950 . S
C1074 C1070 1.385 . S
C1074 C1073 1.374 . S
C1075 C1072 1.499 . S
C1075 C1076 1.373 . S
C1075 C1077 1.378 1_565 S
C1076 H1049 0.950 . S
C1076 C1062 1.387 . S
C1076 C1075 1.373 . S
C1077 C1061 1.387 . S
C1077 C1075 1.378 1_545 S
C1077 C1078 1.525 . S
C1078 C1077 1.525 . S
C1078 C1079 1.397 1_545 S
C1078 C1083 1.363 . S
C1079 H1050 0.950 . S
C1079 C1078 1.397 1_565 S
C1079 C1080 1.334 . S
C1080 H1051 0.950 . S
C1080 C1079 1.334 . S
C1080 C1081 1.287 1_565 S
C1081 C1080 1.287 1_545 S
C1081 C1082 1.524 . S
C1081 H1084 0.999 . S
C1082 H1052 0.950 . S
C1082 C1081 1.524 . S
C1082 C1083 1.415 . S
C1083 H1053 0.950 . S
C1083 C1078 1.363 . S
C1083 C1082 1.415 . S
H1084 C1081 0.999 . S
H1085 C1066 0.913 . S
H1086 C1104 0.951 . S
H1087 C1106 0.951 . S
H1088 C1108 0.950 . S
H1089 C1109 0.950 . S
H1090 C1111 0.950 . S
H1091 C1114 0.950 . S
H1092 C1115 0.950 . S
H1093 C1117 0.950 . S
H1094 C1118 0.950 . S
H1095 C1119 0.951 . S
H1096 C1121 0.951 . S
H1097 C1123 0.950 . S
H1098 C1124 0.950 . S
H1099 C1126 0.950 . S
H1100 C1129 0.950 . S
H1101 C1130 0.950 . S
H1102 C1132 0.950 . S
H1103 C1133 0.950 . S
C1104 H1086 0.951 . S
C1104 C1105 1.366 . S
C1104 C1106 1.388 . S
C1105 C1104 1.366 . S
C1105 C1109 1.385 . S
C1106 H1087 0.951 . S
C1106 C1104 1.388 . S
C1106 C1107 1.366 . S
C1107 C1106 1.366 . S
C1107 C1108 1.414 . S
C1107 C1110 1.499 . S
C1108 H1088 0.950 . S
C1108 C1107 1.414 . S
C1108 C1109 1.374 . S
C1109 H1089 0.950 . S
C1109 C1105 1.385 . S
C1109 C1108 1.374 . S
C1110 C1107 1.499 . S
C1110 C1111 1.373 . S
C1110 C1112 1.389 . S
C1111 H1090 0.950 . S
C1111 C1110 1.373 . S
C1111 C1127 1.377 1_455 S
C1112 C1110 1.389 . S
C1112 C1113 1.524 . S
C1112 C1126 1.377 1_455 S
C1113 C1112 1.524 . S
C1113 C1114 1.397 . S
C1113 C1118 1.363 1_455 S
C1114 H1091 0.950 . S
C1114 C1113 1.397 . S
C1114 C1115 1.334 . S
C1115 H1092 0.950 . S
C1115 C1114 1.334 . S
C1115 C1116 1.287 . S
C1116 C1115 1.287 . S
C1116 C1117 1.524 1_455 S
C1116 H1135 0.913 . S
C1117 H1093 0.950 . S
C1117 C1116 1.524 1_655 S
C1117 C1118 1.415 . S
C1118 H1094 0.950 . S
C1118 C1113 1.363 1_655 S
C1118 C1117 1.415 . S
C1119 H1095 0.951 . S
C1119 C1120 1.366 . S
C1119 C1121 1.388 . S
C1120 C1119 1.366 . S
C1120 C1124 1.385 . S
C1121 H1096 0.951 . S
C1121 C1119 1.388 . S
C1121 C1122 1.366 . S
C1122 C1121 1.366 . S
C1122 C1123 1.414 . S
C1122 C1125 1.499 . S
C1123 H1097 0.950 . S
C1123 C1122 1.414 . S
C1123 C1124 1.374 . S
C1124 H1098 0.950 . S
C1124 C1120 1.385 . S
C1124 C1123 1.374 . S
C1125 C1122 1.499 . S
C1125 C1126 1.373 . S
C1125 C1127 1.389 . S
C1126 H1099 0.950 . S
C1126 C1112 1.377 1_655 S
C1126 C1125 1.373 . S
C1127 C1111 1.377 1_655 S
C1127 C1125 1.389 . S
C1127 C1128 1.524 . S
C1128 C1127 1.524 . S
C1128 C1129 1.397 . S
C1128 C1133 1.363 1_655 S
C1129 H1100 0.950 . S
C1129 C1128 1.397 . S
C1129 C1130 1.334 . S
C1130 H1101 0.950 . S
C1130 C1129 1.334 . S
C1130 C1131 1.287 . S
C1131 C1130 1.287 . S
C1131 C1132 1.524 1_655 S
C1131 H1134 0.999 . S
C1132 H1102 0.950 . S
C1132 C1131 1.524 1_455 S
C1132 C1133 1.415 . S
C1133 H1103 0.950 . S
C1133 C1128 1.363 1_455 S
C1133 C1132 1.415 . S
H1134 C1131 0.999 . S
H1135 C1116 0.913 . S
H1136 C1154 0.951 . S
H1137 C1156 0.951 . S
H1138 C1158 0.950 . S
H1139 C1159 0.950 . S
H1140 C1161 0.950 . S
H1141 C1164 0.950 . S
H1142 C1165 0.950 . S
H1143 C1167 0.950 . S
H1144 C1168 0.950 . S
H1145 C1169 0.951 . S
H1146 C1171 0.951 . S
H1147 C1173 0.950 . S
H1148 C1174 0.950 . S
H1149 C1176 0.950 . S
H1150 C1179 0.950 . S
H1151 C1180 0.950 . S
H1152 C1182 0.950 . S
H1153 C1183 0.950 . S
C1154 H1136 0.951 . S
C1154 C1155 1.366 . S
C1154 C1156 1.388 . S
C1155 C1154 1.366 . S
C1155 C1159 1.385 . S
C1156 H1137 0.951 . S
C1156 C1154 1.388 . S
C1156 C1157 1.366 . S
C1157 C1156 1.366 . S
C1157 C1158 1.414 . S
C1157 C1160 1.499 . S
C1158 H1138 0.950 . S
C1158 C1157 1.414 . S
C1158 C1159 1.374 . S
C1159 H1139 0.950 . S
C1159 C1155 1.385 . S
C1159 C1158 1.374 . S
C1160 C1157 1.499 . S
C1160 C1161 1.373 1_565 S
C1160 C1162 1.389 . S
C1161 H1140 0.950 . S
C1161 C1160 1.373 1_545 S
C1161 C1177 1.377 . S
C1162 C1160 1.389 . S
C1162 C1163 1.524 . S
C1162 C1176 1.377 . S
C1163 C1162 1.524 . S
C1163 C1164 1.397 . S
C1163 C1168 1.363 . S
C1164 H1141 0.950 . S
C1164 C1163 1.397 . S
C1164 C1165 1.334 . S
C1165 H1142 0.950 . S
C1165 C1164 1.334 . S
C1165 C1166 1.287 . S
C1166 C1165 1.287 . S
C1166 C1167 1.524 . S
C1166 H1185 0.913 . S
C1167 H1143 0.950 . S
C1167 C1166 1.524 . S
C1167 C1168 1.415 . S
C1168 H1144 0.950 . S
C1168 C1163 1.363 . S
C1168 C1167 1.415 . S
C1169 H1145 0.951 . S
C1169 C1170 1.366 . S
C1169 C1171 1.388 . S
C1170 C1169 1.366 . S
C1170 C1174 1.385 . S
C1171 H1146 0.951 . S
C1171 C1169 1.388 . S
C1171 C1172 1.366 . S
C1172 C1171 1.366 . S
C1172 C1173 1.414 . S
C1172 C1175 1.499 . S
C1173 H1147 0.950 . S
C1173 C1172 1.414 . S
C1173 C1174 1.374 . S
C1174 H1148 0.950 . S
C1174 C1170 1.385 . S
C1174 C1173 1.374 . S
C1175 C1172 1.499 . S
C1175 C1176 1.373 1_545 S
C1175 C1177 1.389 . S
C1176 H1149 0.950 . S
C1176 C1162 1.377 . S
C1176 C1175 1.373 1_565 S
C1177 C1161 1.377 . S
C1177 C1175 1.389 . S
C1177 C1178 1.524 . S
C1178 C1177 1.524 . S
C1178 C1179 1.397 . S
C1178 C1183 1.363 . S
C1179 H1150 0.950 . S
C1179 C1178 1.397 . S
C1179 C1180 1.334 . S
C1180 H1151 0.950 . S
C1180 C1179 1.334 . S
C1180 C1181 1.287 . S
C1181 C1180 1.287 . S
C1181 C1182 1.524 . S
C1181 H1184 0.999 . S
C1182 H1152 0.950 . S
C1182 C1181 1.524 . S
C1182 C1183 1.415 . S
C1183 H1153 0.950 . S
C1183 C1178 1.363 . S
C1183 C1182 1.415 . S
H1184 C1181 0.999 . S
H1185 C1166 0.913 . S
H1186 C1204 0.951 . S
H1187 C1206 0.951 . S
H1188 C1208 0.950 . S
H1189 C1209 0.950 . S
H1190 C1211 0.950 . S
H1191 C1214 0.950 . S
H1192 C1215 0.950 . S
H1193 C1217 0.950 . S
H1194 C1218 0.950 1_455 S
H1195 C1219 0.951 . S
H1196 C1221 0.951 . S
H1197 C1223 0.950 . S
H1198 C1224 0.950 . S
H1199 C1226 0.950 . S
H1200 C1229 0.950 . S
H1201 C1230 0.950 . S
H1202 C1232 0.950 . S
H1203 C1233 0.950 1_655 S
C1204 H1186 0.951 . S
C1204 C1205 1.366 . S
C1204 C1206 1.388 . S
C1205 C1204 1.366 . S
C1205 C1209 1.385 . S
C1206 H1187 0.951 . S
C1206 C1204 1.388 . S
C1206 C1207 1.366 . S
C1207 C1206 1.366 . S
C1207 C1208 1.414 . S
C1207 C1210 1.499 . S
C1208 H1188 0.950 . S
C1208 C1207 1.414 . S
C1208 C1209 1.374 . S
C1209 H1189 0.950 . S
C1209 C1205 1.385 . S
C1209 C1208 1.374 . S
C1210 C1207 1.499 . S
C1210 C1211 1.373 . S
C1210 C1212 1.389 . S
C1211 H1190 0.950 . S
C1211 C1210 1.373 . S
C1211 C1227 1.377 1_655 S
C1212 C1210 1.389 . S
C1212 C1213 1.524 . S
C1212 C1226 1.377 1_655 S
C1213 C1212 1.524 . S
C1213 C1214 1.397 . S
C1213 C1218 1.363 . S
C1214 H1191 0.950 . S
C1214 C1213 1.397 . S
C1214 C1215 1.334 . S
C1215 H1192 0.950 . S
C1215 C1214 1.334 . S
C1215 C1216 1.287 . S
C1216 C1215 1.287 . S
C1216 C1217 1.524 . S
C1216 H1235 0.913 . S
C1217 H1193 0.950 . S
C1217 C1216 1.524 . S
C1217 C1218 1.415 . S
C1218 H1194 0.950 1_655 S
C1218 C1213 1.363 . S
C1218 C1217 1.415 . S
C1219 H1195 0.951 . S
C1219 C1220 1.366 . S
C1219 C1221 1.388 . S
C1220 C1219 1.366 . S
C1220 C1224 1.385 . S
C1221 H1196 0.951 . S
C1221 C1219 1.388 . S
C1221 C1222 1.366 . S
C1222 C1221 1.366 . S
C1222 C1223 1.414 . S
C1222 C1225 1.499 . S
C1223 H1197 0.950 . S
C1223 C1222 1.414 . S
C1223 C1224 1.374 . S
C1224 H1198 0.950 . S
C1224 C1220 1.385 . S
C1224 C1223 1.374 . S
C1225 C1222 1.499 . S
C1225 C1226 1.373 . S
C1225 C1227 1.389 . S
C1226 H1199 0.950 . S
C1226 C1212 1.377 1_455 S
C1226 C1225 1.373 . S
C1227 C1211 1.377 1_455 S
C1227 C1225 1.389 . S
C1227 C1228 1.524 . S
C1228 C1227 1.524 . S
C1228 C1229 1.397 . S
C1228 C1233 1.363 . S
C1229 H1200 0.950 . S
C1229 C1228 1.397 . S
C1229 C1230 1.334 . S
C1230 H1201 0.950 . S
C1230 C1229 1.334 . S
C1230 C1231 1.287 . S
C1231 C1230 1.287 . S
C1231 C1232 1.524 . S
C1231 H1234 0.999 . S
C1232 H1202 0.950 . S
C1232 C1231 1.524 . S
C1232 C1233 1.415 . S
C1233 H1203 0.950 1_455 S
C1233 C1228 1.363 . S
C1233 C1232 1.415 . S
H1234 C1231 0.999 . S
H1235 C1216 0.913 . S
H1236 C1254 0.951 . S
H1237 C1256 0.951 . S
H1238 C1258 0.950 . S
H1239 C1259 0.950 . S
H1240 C1261 0.950 . S
H1241 C1264 0.938 1_565 S
H1242 C1265 0.950 . S
H1243 C1267 0.950 . S
H1244 C1268 0.950 . S
H1245 C1269 0.951 . S
H1246 C1271 0.951 . S
H1247 C1273 0.950 . S
H1248 C1274 0.950 . S
H1249 C1276 0.950 . S
H1250 C1279 0.938 1_545 S
H1251 C1280 0.950 . S
H1252 C1282 0.950 . S
H1253 C1283 0.950 . S
C1254 H1236 0.951 . S
C1254 C1255 1.366 . S
C1254 C1256 1.388 . S
C1255 C1254 1.366 . S
C1255 C1259 1.385 . S
C1256 H1237 0.951 . S
C1256 C1254 1.388 . S
C1256 C1257 1.366 . S
C1257 C1256 1.366 . S
C1257 C1258 1.414 . S
C1257 C1260 1.499 . S
C1258 H1238 0.950 . S
C1258 C1257 1.414 . S
C1258 C1259 1.374 . S
C1259 H1239 0.950 . S
C1259 C1255 1.385 . S
C1259 C1258 1.374 . S
C1260 C1257 1.499 . S
C1260 C1261 1.373 . S
C1260 C1262 1.389 1_565 S
C1261 H1240 0.950 . S
C1261 C1260 1.373 . S
C1261 C1277 1.377 . S
C1262 C1260 1.389 1_545 S
C1262 C1263 1.524 . S
C1262 C1276 1.377 . S
C1263 C1262 1.524 . S
C1263 C1264 1.397 . S
C1263 C1268 1.363 . S
C1264 H1241 0.938 1_545 S
C1264 C1263 1.397 . S
C1264 C1265 1.334 . S
C1265 H1242 0.950 . S
C1265 C1264 1.334 . S
C1265 C1266 1.287 . S
C1266 C1265 1.287 . S
C1266 C1267 1.524 . S
C1266 H1285 0.913 . S
C1267 H1243 0.950 . S
C1267 C1266 1.524 . S
C1267 C1268 1.415 . S
C1268 H1244 0.950 . S
C1268 C1263 1.363 . S
C1268 C1267 1.415 . S
C1269 H1245 0.951 . S
C1269 C1270 1.366 . S
C1269 C1271 1.388 . S
C1270 C1269 1.366 . S
C1270 C1274 1.385 . S
C1271 H1246 0.951 . S
C1271 C1269 1.388 . S
C1271 C1272 1.366 . S
C1272 C1271 1.366 . S
C1272 C1273 1.414 . S
C1272 C1275 1.499 . S
C1273 H1247 0.950 . S
C1273 C1272 1.414 . S
C1273 C1274 1.374 . S
C1274 H1248 0.950 . S
C1274 C1270 1.385 . S
C1274 C1273 1.374 . S
C1275 C1272 1.499 . S
C1275 C1276 1.373 . S
C1275 C1277 1.389 1_545 S
C1276 H1249 0.950 . S
C1276 C1262 1.377 . S
C1276 C1275 1.373 . S
C1277 C1261 1.377 . S
C1277 C1275 1.389 1_565 S
C1277 C1278 1.524 . S
C1278 C1277 1.524 . S
C1278 C1279 1.397 . S
C1278 C1283 1.363 . S
C1279 H1250 0.938 1_565 S
C1279 C1278 1.397 . S
C1279 C1280 1.334 . S
C1280 H1251 0.950 . S
C1280 C1279 1.334 . S
C1280 C1281 1.287 . S
C1281 C1280 1.287 . S
C1281 C1282 1.524 . S
C1281 H1284 0.999 . S
C1282 H1252 0.950 . S
C1282 C1281 1.524 . S
C1282 C1283 1.415 . S
C1283 H1253 0.950 . S
C1283 C1278 1.363 . S
C1283 C1282 1.415 . S
H1284 C1281 0.999 . S
H1285 C1266 0.913 . S
H1286 C1304 0.951 . S
H1287 C1306 0.951 . S
H1288 C1308 0.950 . S
H1289 C1309 0.950 . S
H1290 C1311 0.950 . S
H1291 C1314 0.950 . S
H1292 C1315 0.950 . S
H1293 C1317 0.950 . S
H1294 C1318 0.950 . S
H1295 C1319 0.951 . S
H1296 C1321 0.951 . S
H1297 C1323 0.950 . S
H1298 C1324 0.950 . S
H1299 C1326 0.950 . S
H1300 C1329 0.950 . S
H1301 C1330 0.950 . S
H1302 C1332 0.950 . S
H1303 C1333 0.950 . S
C1304 H1286 0.951 . S
C1304 C1305 1.366 . S
C1304 C1306 1.388 . S
C1305 C1304 1.366 . S
C1305 C1309 1.385 . S
C1306 H1287 0.951 . S
C1306 C1304 1.388 . S
C1306 C1307 1.366 . S
C1307 C1306 1.366 . S
C1307 C1308 1.414 . S
C1307 C1310 1.499 . S
C1308 H1288 0.950 . S
C1308 C1307 1.414 . S
C1308 C1309 1.374 . S
C1309 H1289 0.950 . S
C1309 C1305 1.385 . S
C1309 C1308 1.374 . S
C1310 C1307 1.499 . S
C1310 C1311 1.373 . S
C1310 C1312 1.389 . S
C1311 H1290 0.950 . S
C1311 C1310 1.373 . S
C1311 C1327 1.377 1_455 S
C1312 C1310 1.389 . S
C1312 C1313 1.524 . S
C1312 C1326 1.377 1_455 S
C1313 C1312 1.524 . S
C1313 C1314 1.397 . S
C1313 C1318 1.363 1_455 S
C1314 H1291 0.950 . S
C1314 C1313 1.397 . S
C1314 C1315 1.334 . S
C1315 H1292 0.950 . S
C1315 C1314 1.334 . S
C1315 C1316 1.287 . S
C1316 C1315 1.287 . S
C1316 C1317 1.524 1_455 S
C1316 H1335 0.913 . S
C1317 H1293 0.950 . S
C1317 C1316 1.524 1_655 S
C1317 C1318 1.415 . S
C1318 H1294 0.950 . S
C1318 C1313 1.363 1_655 S
C1318 C1317 1.415 . S
C1319 H1295 0.951 . S
C1319 C1320 1.366 . S
C1319 C1321 1.388 . S
C1320 C1319 1.366 . S
C1320 C1324 1.385 . S
C1321 H1296 0.951 . S
C1321 C1319 1.388 . S
C1321 C1322 1.366 . S
C1322 C1321 1.366 . S
C1322 C1323 1.414 . S
C1322 C1325 1.499 . S
C1323 H1297 0.950 . S
C1323 C1322 1.414 . S
C1323 C1324 1.374 . S
C1324 H1298 0.950 . S
C1324 C1320 1.385 . S
C1324 C1323 1.374 . S
C1325 C1322 1.499 . S
C1325 C1326 1.373 . S
C1325 C1327 1.389 . S
C1326 H1299 0.950 . S
C1326 C1312 1.377 1_655 S
C1326 C1325 1.373 . S
C1327 C1311 1.377 1_655 S
C1327 C1325 1.389 . S
C1327 C1328 1.524 . S
C1328 C1327 1.524 . S
C1328 C1329 1.397 . S
C1328 C1333 1.363 1_655 S
C1329 H1300 0.950 . S
C1329 C1328 1.397 . S
C1329 C1330 1.334 . S
C1330 H1301 0.950 . S
C1330 C1329 1.334 . S
C1330 C1331 1.287 . S
C1331 C1330 1.287 . S
C1331 C1332 1.524 1_655 S
C1331 H1334 0.999 . S
C1332 H1302 0.950 . S
C1332 C1331 1.524 1_455 S
C1332 C1333 1.415 . S
C1333 H1303 0.950 . S
C1333 C1328 1.363 1_455 S
C1333 C1332 1.415 . S
H1334 C1331 0.999 . S
H1335 C1316 0.913 . S
H1336 C1354 0.951 . S
H1337 C1356 0.951 . S
H1338 C1358 0.950 . S
H1339 C1359 0.950 . S
H1340 C1361 0.950 . S
H1341 C1364 0.937 1_556 S
H1342 C1365 0.950 . S
H1343 C1367 0.950 . S
H1344 C1368 0.950 . S
H1345 C1369 0.951 . S
H1346 C1371 0.951 . S
H1347 C1373 0.950 . S
H1348 C1374 0.950 . S
H1349 C1376 0.950 . S
H1350 C1379 0.937 1_554 S
H1351 C1380 0.950 . S
H1352 C1382 0.950 . S
H1353 C1383 0.950 . S
C1354 H1336 0.951 . S
C1354 C1355 1.366 . S
C1354 C1356 1.388 . S
C1355 C1354 1.366 . S
C1355 C1359 1.385 . S
C1356 H1337 0.951 . S
C1356 C1354 1.388 . S
C1356 C1357 1.366 . S
C1357 C1356 1.366 . S
C1357 C1358 1.414 . S
C1357 C1360 1.499 . S
C1358 H1338 0.950 . S
C1358 C1357 1.414 . S
C1358 C1359 1.374 . S
C1359 H1339 0.950 . S
C1359 C1355 1.385 . S
C1359 C1358 1.374 . S
C1360 C1357 1.499 . S
C1360 C1361 1.373 . S
C1360 C1362 1.389 1_556 S
C1361 H1340 0.950 . S
C1361 C1360 1.373 . S
C1361 C1377 1.377 . S
C1362 C1360 1.389 1_554 S
C1362 C1363 1.524 . S
C1362 C1376 1.377 . S
C1363 C1362 1.524 . S
C1363 C1364 1.397 . S
C1363 C1368 1.363 . S
C1364 H1341 0.937 1_554 S
C1364 C1363 1.397 . S
C1364 C1365 1.334 . S
C1365 H1342 0.950 . S
C1365 C1364 1.334 . S
C1365 C1366 1.287 . S
C1366 C1365 1.287 . S
C1366 C1367 1.524 . S
C1366 H1385 0.913 . S
C1367 H1343 0.950 . S
C1367 C1366 1.524 . S
C1367 C1368 1.415 . S
C1368 H1344 0.950 . S
C1368 C1363 1.363 . S
C1368 C1367 1.415 . S
C1369 H1345 0.951 . S
C1369 C1370 1.366 . S
C1369 C1371 1.388 . S
C1370 C1369 1.366 . S
C1370 C1374 1.385 . S
C1371 H1346 0.951 . S
C1371 C1369 1.388 . S
C1371 C1372 1.366 . S
C1372 C1371 1.366 . S
C1372 C1373 1.414 . S
C1372 C1375 1.499 . S
C1373 H1347 0.950 . S
C1373 C1372 1.414 . S
C1373 C1374 1.374 . S
C1374 H1348 0.950 . S
C1374 C1370 1.385 . S
C1374 C1373 1.374 . S
C1375 C1372 1.499 . S
C1375 C1376 1.373 . S
C1375 C1377 1.389 1_554 S
C1376 H1349 0.950 . S
C1376 C1362 1.377 . S
C1376 C1375 1.373 . S
C1377 C1361 1.377 . S
C1377 C1375 1.389 1_556 S
C1377 C1378 1.524 . S
C1378 C1377 1.524 . S
C1378 C1379 1.397 . S
C1378 C1383 1.363 . S
C1379 H1350 0.937 1_556 S
C1379 C1378 1.397 . S
C1379 C1380 1.334 . S
C1380 H1351 0.950 . S
C1380 C1379 1.334 . S
C1380 C1381 1.287 . S
C1381 C1380 1.287 . S
C1381 C1382 1.524 . S
C1381 H1384 0.999 . S
C1382 H1352 0.950 . S
C1382 C1381 1.524 . S
C1382 C1383 1.415 . S
C1383 H1353 0.950 . S
C1383 C1378 1.363 . S
C1383 C1382 1.415 . S
H1384 C1381 0.999 . S
H1385 C1366 0.913 . S
H1386 C1404 0.951 . S
H1387 C1406 0.951 . S
H1388 C1408 0.950 . S
H1389 C1409 0.950 . S
H1390 C1411 0.950 . S
H1391 C1414 0.950 . S
H1392 C1415 0.950 . S
H1393 C1417 0.950 . S
H1394 C1418 0.950 1_556 S
H1395 C1419 0.951 . S
H1396 C1421 0.951 . S
H1397 C1423 0.950 . S
H1398 C1424 0.950 . S
H1399 C1426 0.950 . S
H1400 C1429 0.950 . S
H1401 C1430 0.950 . S
H1402 C1432 0.950 . S
H1403 C1433 0.950 1_554 S
C1404 H1386 0.951 . S
C1404 C1405 1.366 . S
C1404 C1406 1.388 . S
C1405 C1404 1.366 . S
C1405 C1409 1.385 . S
C1406 H1387 0.951 . S
C1406 C1404 1.388 . S
C1406 C1407 1.366 . S
C1407 C1406 1.366 . S
C1407 C1408 1.414 . S
C1407 C1410 1.499 . S
C1408 H1388 0.950 . S
C1408 C1407 1.414 . S
C1408 C1409 1.374 . S
C1409 H1389 0.950 . S
C1409 C1405 1.385 . S
C1409 C1408 1.374 . S
C1410 C1407 1.499 . S
C1410 C1411 1.373 . S
C1410 C1412 1.389 . S
C1411 H1390 0.950 . S
C1411 C1410 1.373 . S
C1411 C1427 1.377 1_554 S
C1412 C1410 1.389 . S
C1412 C1413 1.524 . S
C1412 C1426 1.377 1_554 S
C1413 C1412 1.524 . S
C1413 C1414 1.397 . S
C1413 C1418 1.363 . S
C1414 H1391 0.950 . S
C1414 C1413 1.397 . S
C1414 C1415 1.334 . S
C1415 H1392 0.950 . S
C1415 C1414 1.334 . S
C1415 C1416 1.287 . S
C1416 C1415 1.287 . S
C1416 C1417 1.524 . S
C1416 H1435 0.913 . S
C1417 H1393 0.950 . S
C1417 C1416 1.524 . S
C1417 C1418 1.415 . S
C1418 H1394 0.950 1_554 S
C1418 C1413 1.363 . S
C1418 C1417 1.415 . S
C1419 H1395 0.951 . S
C1419 C1420 1.366 . S
C1419 C1421 1.388 . S
C1420 C1419 1.366 . S
C1420 C1424 1.385 . S
C1421 H1396 0.951 . S
C1421 C1419 1.388 . S
C1421 C1422 1.366 . S
C1422 C1421 1.366 . S
C1422 C1423 1.414 . S
C1422 C1425 1.499 . S
C1423 H1397 0.950 . S
C1423 C1422 1.414 . S
C1423 C1424 1.374 . S
C1424 H1398 0.950 . S
C1424 C1420 1.385 . S
C1424 C1423 1.374 . S
C1425 C1422 1.499 . S
C1425 C1426 1.373 . S
C1425 C1427 1.389 . S
C1426 H1399 0.950 . S
C1426 C1412 1.377 1_556 S
C1426 C1425 1.373 . S
C1427 C1411 1.377 1_556 S
C1427 C1425 1.389 . S
C1427 C1428 1.524 . S
C1428 C1427 1.524 . S
C1428 C1429 1.397 . S
C1428 C1433 1.363 . S
C1429 H1400 0.950 . S
C1429 C1428 1.397 . S
C1429 C1430 1.334 . S
C1430 H1401 0.950 . S
C1430 C1429 1.334 . S
C1430 C1431 1.287 . S
C1431 C1430 1.287 . S
C1431 C1432 1.524 . S
C1431 H1434 0.999 . S
C1432 H1402 0.950 . S
C1432 C1431 1.524 . S
C1432 C1433 1.415 . S
C1433 H1403 0.950 1_556 S
C1433 C1428 1.363 . S
C1433 C1432 1.415 . S
H1434 C1431 0.999 . S
H1435 C1416 0.913 . S
H1436 C1454 0.951 . S
H1437 C1456 0.951 . S
H1438 C1458 0.950 . S
H1439 C1459 0.950 . S
H1440 C1461 0.950 . S
H1441 C1464 0.950 . S
H1442 C1465 0.950 . S
H1443 C1467 0.950 . S
H1444 C1468 0.950 . S
H1445 C1469 0.951 . S
H1446 C1471 0.951 . S
H1447 C1473 0.950 . S
H1448 C1474 0.950 . S
H1449 C1476 0.950 . S
H1450 C1479 0.950 . S
H1451 C1480 0.950 . S
H1452 C1482 0.950 . S
H1453 C1483 0.950 . S
C1454 H1436 0.951 . S
C1454 C1455 1.366 . S
C1454 C1456 1.388 . S
C1455 C1454 1.366 . S
C1455 C1459 1.385 . S
C1456 H1437 0.951 . S
C1456 C1454 1.388 . S
C1456 C1457 1.366 . S
C1457 C1456 1.366 . S
C1457 C1458 1.414 . S
C1457 C1460 1.499 . S
C1458 H1438 0.950 . S
C1458 C1457 1.414 . S
C1458 C1459 1.374 . S
C1459 H1439 0.950 . S
C1459 C1455 1.385 . S
C1459 C1458 1.374 . S
C1460 C1457 1.499 . S
C1460 C1461 1.373 1_556 S
C1460 C1462 1.389 . S
C1461 H1440 0.950 . S
C1461 C1460 1.373 1_554 S
C1461 C1477 1.377 . S
C1462 C1460 1.389 . S
C1462 C1463 1.524 . S
C1462 C1476 1.377 . S
C1463 C1462 1.524 . S
C1463 C1464 1.397 . S
C1463 C1468 1.363 . S
C1464 H1441 0.950 . S
C1464 C1463 1.397 . S
C1464 C1465 1.334 . S
C1465 H1442 0.950 . S
C1465 C1464 1.334 . S
C1465 C1466 1.287 . S
C1466 C1465 1.287 . S
C1466 C1467 1.524 . S
C1466 H1485 0.913 . S
C1467 H1443 0.950 . S
C1467 C1466 1.524 . S
C1467 C1468 1.415 . S
C1468 H1444 0.950 . S
C1468 C1463 1.363 . S
C1468 C1467 1.415 . S
C1469 H1445 0.951 . S
C1469 C1470 1.366 . S
C1469 C1471 1.388 . S
C1470 C1469 1.366 . S
C1470 C1474 1.385 . S
C1471 H1446 0.951 . S
C1471 C1469 1.388 . S
C1471 C1472 1.366 . S
C1472 C1471 1.366 . S
C1472 C1473 1.414 . S
C1472 C1475 1.499 . S
C1473 H1447 0.950 . S
C1473 C1472 1.414 . S
C1473 C1474 1.374 . S
C1474 H1448 0.950 . S
C1474 C1470 1.385 . S
C1474 C1473 1.374 . S
C1475 C1472 1.499 . S
C1475 C1476 1.373 1_554 S
C1475 C1477 1.389 . S
C1476 H1449 0.950 . S
C1476 C1462 1.377 . S
C1476 C1475 1.373 1_556 S
C1477 C1461 1.377 . S
C1477 C1475 1.389 . S
C1477 C1478 1.524 . S
C1478 C1477 1.524 . S
C1478 C1479 1.397 . S
C1478 C1483 1.363 . S
C1479 H1450 0.950 . S
C1479 C1478 1.397 . S
C1479 C1480 1.334 . S
C1480 H1451 0.950 . S
C1480 C1479 1.334 . S
C1480 C1481 1.287 . S
C1481 C1480 1.287 . S
C1481 C1482 1.524 . S
C1481 H1484 0.999 . S
C1482 H1452 0.950 . S
C1482 C1481 1.524 . S
C1482 C1483 1.415 . S
C1483 H1453 0.950 . S
C1483 C1478 1.363 . S
C1483 C1482 1.415 . S
H1484 C1481 0.999 . S
H1485 C1466 0.913 . S
H1486 C1504 0.951 . S
H1487 C1506 0.951 . S
H1488 C1508 0.950 . S
H1489 C1509 0.950 . S
H1490 C1511 0.950 . S
H1491 C1514 0.943 1_554 S
H1492 C1515 0.950 . S
H1493 C1517 0.950 . S
H1494 C1518 0.950 . S
H1495 C1519 0.951 . S
H1496 C1521 0.951 . S
H1497 C1523 0.950 . S
H1498 C1524 0.950 . S
H1499 C1526 0.950 . S
H1500 C1529 0.943 1_556 S
H1501 C1530 0.950 . S
H1502 C1532 0.950 . S
H1503 C1533 0.950 . S
C1504 H1486 0.951 . S
C1504 C1505 1.366 . S
C1504 C1506 1.388 . S
C1505 C1504 1.366 . S
C1505 C1509 1.385 . S
C1506 H1487 0.951 . S
C1506 C1504 1.388 . S
C1506 C1507 1.366 . S
C1507 C1506 1.366 . S
C1507 C1508 1.414 . S
C1507 C1510 1.499 . S
C1508 H1488 0.950 . S
C1508 C1507 1.414 . S
C1508 C1509 1.374 . S
C1509 H1489 0.950 . S
C1509 C1505 1.385 . S
C1509 C1508 1.374 . S
C1510 C1507 1.499 . S
C1510 C1511 1.373 . S
C1510 C1512 1.358 1_554 S
C1511 H1490 0.950 . S
C1511 C1510 1.373 . S
C1511 C1527 1.407 . S
C1512 C1510 1.358 1_556 S
C1512 C1513 1.530 . S
C1512 C1526 1.407 . S
C1513 C1512 1.530 . S
C1513 C1514 1.397 . S
C1513 C1518 1.363 . S
C1514 H1491 0.943 1_556 S
C1514 C1513 1.397 . S
C1514 C1515 1.334 . S
C1515 H1492 0.950 . S
C1515 C1514 1.334 . S
C1515 C1516 1.287 . S
C1516 C1515 1.287 . S
C1516 C1517 1.524 . S
C1516 H1535 0.913 . S
C1517 H1493 0.950 . S
C1517 C1516 1.524 . S
C1517 C1518 1.415 . S
C1518 H1494 0.950 . S
C1518 C1513 1.363 . S
C1518 C1517 1.415 . S
C1519 H1495 0.951 . S
C1519 C1520 1.366 . S
C1519 C1521 1.388 . S
C1520 C1519 1.366 . S
C1520 C1524 1.385 . S
C1521 H1496 0.951 . S
C1521 C1519 1.388 . S
C1521 C1522 1.366 . S
C1522 C1521 1.366 . S
C1522 C1523 1.414 . S
C1522 C1525 1.499 . S
C1523 H1497 0.950 . S
C1523 C1522 1.414 . S
C1523 C1524 1.374 . S
C1524 H1498 0.950 . S
C1524 C1520 1.385 . S
C1524 C1523 1.374 . S
C1525 C1522 1.499 . S
C1525 C1526 1.373 . S
C1525 C1527 1.358 1_556 S
C1526 H1499 0.950 . S
C1526 C1512 1.407 . S
C1526 C1525 1.373 . S
C1527 C1511 1.407 . S
C1527 C1525 1.358 1_554 S
C1527 C1528 1.530 . S
C1528 C1527 1.530 . S
C1528 C1529 1.397 . S
C1528 C1533 1.363 . S
C1529 H1500 0.943 1_554 S
C1529 C1528 1.397 . S
C1529 C1530 1.334 . S
C1530 H1501 0.950 . S
C1530 C1529 1.334 . S
C1530 C1531 1.287 . S
C1531 C1530 1.287 . S
C1531 C1532 1.524 . S
C1531 H1534 0.999 . S
C1532 H1502 0.950 . S
C1532 C1531 1.524 . S
C1532 C1533 1.415 . S
C1533 H1503 0.950 . S
C1533 C1528 1.363 . S
C1533 C1532 1.415 . S
H1534 C1531 0.999 . S
H1535 C1516 0.913 . S
H1536 C1554 0.951 . S
H1537 C1556 0.951 . S
H1538 C1558 0.950 . S
H1539 C1559 0.950 . S
H1540 C1561 0.950 . S
H1541 C1564 0.950 . S
H1542 C1565 0.950 . S
H1543 C1567 0.950 . S
H1544 C1568 0.950 . S
H1545 C1569 0.951 . S
H1546 C1571 0.951 . S
H1547 C1573 0.950 . S
H1548 C1574 0.950 . S
H1549 C1576 0.950 . S
H1550 C1579 0.950 . S
H1551 C1580 0.950 . S
H1552 C1582 0.950 . S
H1553 C1583 0.950 . S
C1554 H1536 0.951 . S
C1554 C1555 1.366 . S
C1554 C1556 1.388 . S
C1555 C1554 1.366 . S
C1555 C1559 1.385 . S
C1556 H1537 0.951 . S
C1556 C1554 1.388 . S
C1556 C1557 1.366 . S
C1557 C1556 1.366 . S
C1557 C1558 1.414 . S
C1557 C1560 1.499 . S
C1558 H1538 0.950 . S
C1558 C1557 1.414 . S
C1558 C1559 1.374 . S
C1559 H1539 0.950 . S
C1559 C1555 1.385 . S
C1559 C1558 1.374 . S
C1560 C1557 1.499 . S
C1560 C1561 1.373 . S
C1560 C1562 1.389 . S
C1561 H1540 0.950 . S
C1561 C1560 1.373 . S
C1561 C1577 1.377 . S
C1562 C1560 1.389 . S
C1562 C1563 1.524 . S
C1562 C1576 1.377 . S
C1563 C1562 1.524 . S
C1563 C1564 1.397 . S
C1563 C1568 1.363 . S
C1564 H1541 0.950 . S
C1564 C1563 1.397 . S
C1564 C1565 1.334 . S
C1565 H1542 0.950 . S
C1565 C1564 1.334 . S
C1565 C1566 1.287 . S
C1566 C1565 1.287 . S
C1566 C1567 1.524 . S
C1566 H1585 0.913 . S
C1567 H1543 0.950 . S
C1567 C1566 1.524 . S
C1567 C1568 1.415 . S
C1568 H1544 0.950 . S
C1568 C1563 1.363 . S
C1568 C1567 1.415 . S
C1569 H1545 0.951 . S
C1569 C1570 1.366 . S
C1569 C1571 1.388 . S
C1570 C1569 1.366 . S
C1570 C1574 1.385 . S
C1571 H1546 0.951 . S
C1571 C1569 1.388 . S
C1571 C1572 1.366 . S
C1572 C1571 1.366 . S
C1572 C1573 1.414 . S
C1572 C1575 1.499 . S
C1573 H1547 0.950 . S
C1573 C1572 1.414 . S
C1573 C1574 1.374 . S
C1574 H1548 0.950 . S
C1574 C1570 1.385 . S
C1574 C1573 1.374 . S
C1575 C1572 1.499 . S
C1575 C1576 1.373 . S
C1575 C1577 1.389 . S
C1576 H1549 0.950 . S
C1576 C1562 1.377 . S
C1576 C1575 1.373 . S
C1577 C1561 1.377 . S
C1577 C1575 1.389 . S
C1577 C1578 1.524 . S
C1578 C1577 1.524 . S
C1578 C1579 1.397 . S
C1578 C1583 1.363 . S
C1579 H1550 0.950 . S
C1579 C1578 1.397 . S
C1579 C1580 1.334 . S
C1580 H1551 0.950 . S
C1580 C1579 1.334 . S
C1580 C1581 1.287 . S
C1581 C1580 1.287 . S
C1581 C1582 1.524 . S
C1581 H1584 0.999 . S
C1582 H1552 0.950 . S
C1582 C1581 1.524 . S
C1582 C1583 1.415 . S
C1583 H1553 0.950 . S
C1583 C1578 1.363 . S
C1583 C1582 1.415 . S
H1584 C1581 0.999 . S
H1585 C1566 0.913 . S
H1586 C1604 0.951 . S
H1587 C1606 0.951 . S
H1588 C1608 0.950 . S
H1589 C1609 0.950 . S
H1590 C1611 0.950 . S
H1591 C1614 0.950 . S
H1592 C1615 0.950 . S
H1593 C1617 0.950 . S
H1594 C1618 0.950 . S
H1595 C1619 0.951 . S
H1596 C1621 0.951 . S
H1597 C1623 0.950 . S
H1598 C1624 0.950 . S
H1599 C1626 0.950 . S
H1600 C1629 0.950 . S
H1601 C1630 0.950 . S
H1602 C1632 0.950 . S
H1603 C1633 0.950 . S
C1604 H1586 0.951 . S
C1604 C1605 1.366 . S
C1604 C1606 1.388 . S
C1605 C1604 1.366 . S
C1605 C1609 1.385 . S
C1606 H1587 0.951 . S
C1606 C1604 1.388 . S
C1606 C1607 1.366 . S
C1607 C1606 1.366 . S
C1607 C1608 1.414 . S
C1607 C1610 1.499 . S
C1608 H1588 0.950 . S
C1608 C1607 1.414 . S
C1608 C1609 1.374 . S
C1609 H1589 0.950 . S
C1609 C1605 1.385 . S
C1609 C1608 1.374 . S
C1610 C1607 1.499 . S
C1610 C1611 1.373 . S
C1610 C1612 1.389 . S
C1611 H1590 0.950 . S
C1611 C1610 1.373 . S
C1611 C1627 1.377 . S
C1612 C1610 1.389 . S
C1612 C1613 1.524 . S
C1612 C1626 1.377 . S
C1613 C1612 1.524 . S
C1613 C1614 1.397 . S
C1613 C1618 1.363 . S
C1614 H1591 0.950 . S
C1614 C1613 1.397 . S
C1614 C1615 1.334 . S
C1615 H1592 0.950 . S
C1615 C1614 1.334 . S
C1615 C1616 1.287 . S
C1616 C1615 1.287 . S
C1616 C1617 1.524 . S
C1616 H1635 0.913 . S
C1617 H1593 0.950 . S
C1617 C1616 1.524 . S
C1617 C1618 1.415 . S
C1618 H1594 0.950 . S
C1618 C1613 1.363 . S
C1618 C1617 1.415 . S
C1619 H1595 0.951 . S
C1619 C1620 1.366 . S
C1619 C1621 1.388 . S
C1620 C1619 1.366 . S
C1620 C1624 1.385 . S
C1621 H1596 0.951 . S
C1621 C1619 1.388 . S
C1621 C1622 1.366 . S
C1622 C1621 1.366 . S
C1622 C1623 1.414 . S
C1622 C1625 1.499 . S
C1623 H1597 0.950 . S
C1623 C1622 1.414 . S
C1623 C1624 1.374 . S
C1624 H1598 0.950 . S
C1624 C1620 1.385 . S
C1624 C1623 1.374 . S
C1625 C1622 1.499 . S
C1625 C1626 1.373 . S
C1625 C1627 1.389 . S
C1626 H1599 0.950 . S
C1626 C1612 1.377 . S
C1626 C1625 1.373 . S
C1627 C1611 1.377 . S
C1627 C1625 1.389 . S
C1627 C1628 1.524 . S
C1628 C1627 1.524 . S
C1628 C1629 1.397 . S
C1628 C1633 1.363 . S
C1629 H1600 0.950 . S
C1629 C1628 1.397 . S
C1629 C1630 1.334 . S
C1630 H1601 0.950 . S
C1630 C1629 1.334 . S
C1630 C1631 1.287 . S
C1631 C1630 1.287 . S
C1631 C1632 1.524 . S
C1631 H1634 0.999 . S
C1632 H1602 0.950 . S
C1632 C1631 1.524 . S
C1632 C1633 1.415 . S
C1633 H1603 0.950 . S
C1633 C1628 1.363 . S
C1633 C1632 1.415 . S
H1634 C1631 0.999 . S
H1635 C1616 0.913 . S
H1636 C1654 0.951 . S
H1637 C1656 0.951 . S
H1638 C1658 0.950 . S
H1639 C1659 0.950 . S
H1640 C1661 0.950 . S
H1641 C1664 0.950 . S
H1642 C1665 0.950 . S
H1643 C1667 0.950 . S
H1644 C1668 0.950 . S
H1645 C1669 0.951 . S
H1646 C1671 0.951 . S
H1647 C1673 0.950 . S
H1648 C1674 0.950 . S
H1649 C1676 0.950 . S
H1650 C1679 0.950 . S
H1651 C1680 0.950 . S
H1652 C1682 0.950 . S
H1653 C1683 0.950 . S
C1654 H1636 0.951 . S
C1654 C1655 1.366 . S
C1654 C1656 1.388 . S
C1655 C1654 1.366 . S
C1655 C1659 1.385 . S
C1656 H1637 0.951 . S
C1656 C1654 1.388 . S
C1656 C1657 1.366 . S
C1657 C1656 1.366 . S
C1657 C1658 1.414 . S
C1657 C1660 1.499 . S
C1658 H1638 0.950 . S
C1658 C1657 1.414 . S
C1658 C1659 1.374 . S
C1659 H1639 0.950 . S
C1659 C1655 1.385 . S
C1659 C1658 1.374 . S
C1660 C1657 1.499 . S
C1660 C1661 1.373 . S
C1660 C1662 1.389 . S
C1661 H1640 0.950 . S
C1661 C1660 1.373 . S
C1661 C1677 1.377 . S
C1662 C1660 1.389 . S
C1662 C1663 1.524 . S
C1662 C1676 1.377 . S
C1663 C1662 1.524 . S
C1663 C1664 1.397 . S
C1663 C1668 1.363 . S
C1664 H1641 0.950 . S
C1664 C1663 1.397 . S
C1664 C1665 1.334 . S
C1665 H1642 0.950 . S
C1665 C1664 1.334 . S
C1665 C1666 1.287 . S
C1666 C1665 1.287 . S
C1666 C1667 1.524 . S
C1666 H1685 0.913 . S
C1667 H1643 0.950 . S
C1667 C1666 1.524 . S
C1667 C1668 1.415 . S
C1668 H1644 0.950 . S
C1668 C1663 1.363 . S
C1668 C1667 1.415 . S
C1669 H1645 0.951 . S
C1669 C1670 1.366 . S
C1669 C1671 1.388 . S
C1670 C1669 1.366 . S
C1670 C1674 1.385 . S
C1671 H1646 0.951 . S
C1671 C1669 1.388 . S
C1671 C1672 1.366 . S
C1672 C1671 1.366 . S
C1672 C1673 1.414 . S
C1672 C1675 1.499 . S
C1673 H1647 0.950 . S
C1673 C1672 1.414 . S
C1673 C1674 1.374 . S
C1674 H1648 0.950 . S
C1674 C1670 1.385 . S
C1674 C1673 1.374 . S
C1675 C1672 1.499 . S
C1675 C1676 1.373 . S
C1675 C1677 1.389 . S
C1676 H1649 0.950 . S
C1676 C1662 1.377 . S
C1676 C1675 1.373 . S
C1677 C1661 1.377 . S
C1677 C1675 1.389 . S
C1677 C1678 1.524 . S
C1678 C1677 1.524 . S
C1678 C1679 1.397 . S
C1678 C1683 1.363 . S
C1679 H1650 0.950 . S
C1679 C1678 1.397 . S
C1679 C1680 1.334 . S
C1680 H1651 0.950 . S
C1680 C1679 1.334 . S
C1680 C1681 1.287 . S
C1681 C1680 1.287 . S
C1681 C1682 1.524 . S
C1681 H1684 0.999 . S
C1682 H1652 0.950 . S
C1682 C1681 1.524 . S
C1682 C1683 1.415 . S
C1683 H1653 0.950 . S
C1683 C1678 1.363 . S
C1683 C1682 1.415 . S
H1684 C1681 0.999 . S
H1685 C1666 0.913 . S
H1686 C1704 0.951 . S
H1687 C1706 0.951 . S
H1688 C1708 0.950 . S
H1689 C1709 0.950 . S
H1690 C1711 0.950 . S
H1691 C1714 0.950 . S
H1692 C1715 0.950 . S
H1693 C1717 0.950 . S
H1694 C1718 0.950 . S
H1695 C1719 0.951 . S
H1696 C1721 0.951 . S
H1697 C1723 0.950 . S
H1698 C1724 0.950 . S
H1699 C1726 0.950 . S
H1700 C1729 0.950 . S
H1701 C1730 0.950 . S
H1702 C1732 0.950 . S
H1703 C1733 0.950 . S
C1704 H1686 0.951 . S
C1704 C1705 1.366 . S
C1704 C1706 1.388 . S
C1705 C1704 1.366 . S
C1705 C1709 1.385 . S
C1706 H1687 0.951 . S
C1706 C1704 1.388 . S
C1706 C1707 1.366 . S
C1707 C1706 1.366 . S
C1707 C1708 1.414 . S
C1707 C1710 1.499 . S
C1708 H1688 0.950 . S
C1708 C1707 1.414 . S
C1708 C1709 1.374 . S
C1709 H1689 0.950 . S
C1709 C1705 1.385 . S
C1709 C1708 1.374 . S
C1710 C1707 1.499 . S
C1710 C1711 1.373 . S
C1710 C1712 1.389 . S
C1711 H1690 0.950 . S
C1711 C1710 1.373 . S
C1711 C1727 1.377 . S
C1712 C1710 1.389 . S
C1712 C1713 1.524 . S
C1712 C1726 1.377 . S
C1713 C1712 1.524 . S
C1713 C1714 1.397 . S
C1713 C1718 1.363 . S
C1714 H1691 0.950 . S
C1714 C1713 1.397 . S
C1714 C1715 1.334 . S
C1715 H1692 0.950 . S
C1715 C1714 1.334 . S
C1715 C1716 1.287 . S
C1716 C1715 1.287 . S
C1716 C1717 1.524 . S
C1716 H1735 0.913 . S
C1717 H1693 0.950 . S
C1717 C1716 1.524 . S
C1717 C1718 1.415 . S
C1718 H1694 0.950 . S
C1718 C1713 1.363 . S
C1718 C1717 1.415 . S
C1719 H1695 0.951 . S
C1719 C1720 1.366 . S
C1719 C1721 1.388 . S
C1720 C1719 1.366 . S
C1720 C1724 1.385 . S
C1721 H1696 0.951 . S
C1721 C1719 1.388 . S
C1721 C1722 1.366 . S
C1722 C1721 1.366 . S
C1722 C1723 1.414 . S
C1722 C1725 1.499 . S
C1723 H1697 0.950 . S
C1723 C1722 1.414 . S
C1723 C1724 1.374 . S
C1724 H1698 0.950 . S
C1724 C1720 1.385 . S
C1724 C1723 1.374 . S
C1725 C1722 1.499 . S
C1725 C1726 1.373 . S
C1725 C1727 1.389 . S
C1726 H1699 0.950 . S
C1726 C1712 1.377 . S
C1726 C1725 1.373 . S
C1727 C1711 1.377 . S
C1727 C1725 1.389 . S
C1727 C1728 1.524 . S
C1728 C1727 1.524 . S
C1728 C1729 1.397 . S
C1728 C1733 1.363 . S
C1729 H1700 0.950 . S
C1729 C1728 1.397 . S
C1729 C1730 1.334 . S
C1730 H1701 0.950 . S
C1730 C1729 1.334 . S
C1730 C1731 1.287 . S
C1731 C1730 1.287 . S
C1731 C1732 1.524 . S
C1731 H1734 0.999 . S
C1732 H1702 0.950 . S
C1732 C1731 1.524 . S
C1732 C1733 1.415 . S
C1733 H1703 0.950 . S
C1733 C1728 1.363 . S
C1733 C1732 1.415 . S
H1734 C1731 0.999 . S
H1735 C1716 0.913 . S
H1736 C1754 0.951 . S
H1737 C1756 0.951 . S
H1738 C1758 0.950 . S
H1739 C1759 0.950 . S
H1740 C1761 0.950 . S
H1741 C1764 0.950 . S
H1742 C1765 0.950 . S
H1743 C1767 0.950 . S
H1744 C1768 0.950 . S
H1745 C1769 0.951 . S
H1746 C1771 0.951 . S
H1747 C1773 0.950 . S
H1748 C1774 0.950 . S
H1749 C1776 0.950 . S
H1750 C1779 0.950 . S
H1751 C1780 0.950 . S
H1752 C1782 0.950 . S
H1753 C1783 0.950 . S
C1754 H1736 0.951 . S
C1754 C1755 1.366 . S
C1754 C1756 1.388 . S
C1755 C1754 1.366 . S
C1755 C1759 1.385 . S
C1756 H1737 0.951 . S
C1756 C1754 1.388 . S
C1756 C1757 1.366 . S
C1757 C1756 1.366 . S
C1757 C1758 1.414 . S
C1757 C1760 1.499 . S
C1758 H1738 0.950 . S
C1758 C1757 1.414 . S
C1758 C1759 1.374 . S
C1759 H1739 0.950 . S
C1759 C1755 1.385 . S
C1759 C1758 1.374 . S
C1760 C1757 1.499 . S
C1760 C1761 1.373 . S
C1760 C1762 1.389 . S
C1761 H1740 0.950 . S
C1761 C1760 1.373 . S
C1761 C1777 1.377 . S
C1762 C1760 1.389 . S
C1762 C1763 1.524 . S
C1762 C1776 1.377 . S
C1763 C1762 1.524 . S
C1763 C1764 1.397 . S
C1763 C1768 1.363 . S
C1764 H1741 0.950 . S
C1764 C1763 1.397 . S
C1764 C1765 1.334 . S
C1765 H1742 0.950 . S
C1765 C1764 1.334 . S
C1765 C1766 1.287 . S
C1766 C1765 1.287 . S
C1766 C1767 1.524 . S
C1766 H1785 0.913 . S
C1767 H1743 0.950 . S
C1767 C1766 1.524 . S
C1767 C1768 1.415 . S
C1768 H1744 0.950 . S
C1768 C1763 1.363 . S
C1768 C1767 1.415 . S
C1769 H1745 0.951 . S
C1769 C1770 1.366 . S
C1769 C1771 1.388 . S
C1770 C1769 1.366 . S
C1770 C1774 1.385 . S
C1771 H1746 0.951 . S
C1771 C1769 1.388 . S
C1771 C1772 1.366 . S
C1772 C1771 1.366 . S
C1772 C1773 1.414 . S
C1772 C1775 1.499 . S
C1773 H1747 0.950 . S
C1773 C1772 1.414 . S
C1773 C1774 1.374 . S
C1774 H1748 0.950 . S
C1774 C1770 1.385 . S
C1774 C1773 1.374 . S
C1775 C1772 1.499 . S
C1775 C1776 1.373 . S
C1775 C1777 1.389 . S
C1776 H1749 0.950 . S
C1776 C1762 1.377 . S
C1776 C1775 1.373 . S
C1777 C1761 1.377 . S
C1777 C1775 1.389 . S
C1777 C1778 1.524 . S
C1778 C1777 1.524 . S
C1778 C1779 1.397 . S
C1778 C1783 1.363 . S
C1779 H1750 0.950 . S
C1779 C1778 1.397 . S
C1779 C1780 1.334 . S
C1780 H1751 0.950 . S
C1780 C1779 1.334 . S
C1780 C1781 1.287 . S
C1781 C1780 1.287 . S
C1781 C1782 1.524 . S
C1781 H1784 0.999 . S
C1782 H1752 0.950 . S
C1782 C1781 1.524 . S
C1782 C1783 1.415 . S
C1783 H1753 0.950 . S
C1783 C1778 1.363 . S
C1783 C1782 1.415 . S
H1784 C1781 0.999 . S
H1785 C1766 0.913 . S
H1786 C1804 0.951 . S
H1787 C1806 0.951 . S
H1788 C1808 0.950 . S
H1789 C1809 0.950 . S
H1790 C1811 0.950 . S
H1791 C1814 0.950 . S
H1792 C1815 0.950 . S
H1793 C1817 0.950 . S
H1794 C1818 0.950 . S
H1795 C1819 0.951 . S
H1796 C1821 0.951 . S
H1797 C1823 0.950 . S
H1798 C1824 0.950 . S
H1799 C1826 0.950 . S
H1800 C1829 0.950 . S
H1801 C1830 0.950 . S
H1802 C1832 0.950 . S
H1803 C1833 0.950 . S
C1804 H1786 0.951 . S
C1804 C1805 1.366 . S
C1804 C1806 1.388 . S
C1805 C1804 1.366 . S
C1805 C1809 1.385 . S
C1806 H1787 0.951 . S
C1806 C1804 1.388 . S
C1806 C1807 1.366 . S
C1807 C1806 1.366 . S
C1807 C1808 1.414 . S
C1807 C1810 1.499 . S
C1808 H1788 0.950 . S
C1808 C1807 1.414 . S
C1808 C1809 1.374 . S
C1809 H1789 0.950 . S
C1809 C1805 1.385 . S
C1809 C1808 1.374 . S
C1810 C1807 1.499 . S
C1810 C1811 1.373 . S
C1810 C1812 1.389 . S
C1811 H1790 0.950 . S
C1811 C1810 1.373 . S
C1811 C1827 1.377 . S
C1812 C1810 1.389 . S
C1812 C1813 1.524 . S
C1812 C1826 1.377 . S
C1813 C1812 1.524 . S
C1813 C1814 1.397 . S
C1813 C1818 1.363 . S
C1814 H1791 0.950 . S
C1814 C1813 1.397 . S
C1814 C1815 1.334 . S
C1815 H1792 0.950 . S
C1815 C1814 1.334 . S
C1815 C1816 1.287 . S
C1816 C1815 1.287 . S
C1816 C1817 1.524 . S
C1816 H1835 0.913 . S
C1817 H1793 0.950 . S
C1817 C1816 1.524 . S
C1817 C1818 1.415 . S
C1818 H1794 0.950 . S
C1818 C1813 1.363 . S
C1818 C1817 1.415 . S
C1819 H1795 0.951 . S
C1819 C1820 1.366 . S
C1819 C1821 1.388 . S
C1820 C1819 1.366 . S
C1820 C1824 1.385 . S
C1821 H1796 0.951 . S
C1821 C1819 1.388 . S
C1821 C1822 1.366 . S
C1822 C1821 1.366 . S
C1822 C1823 1.414 . S
C1822 C1825 1.499 . S
C1823 H1797 0.950 . S
C1823 C1822 1.414 . S
C1823 C1824 1.374 . S
C1824 H1798 0.950 . S
C1824 C1820 1.385 . S
C1824 C1823 1.374 . S
C1825 C1822 1.499 . S
C1825 C1826 1.373 . S
C1825 C1827 1.389 . S
C1826 H1799 0.950 . S
C1826 C1812 1.377 . S
C1826 C1825 1.373 . S
C1827 C1811 1.377 . S
C1827 C1825 1.389 . S
C1827 C1828 1.524 . S
C1828 C1827 1.524 . S
C1828 C1829 1.397 . S
C1828 C1833 1.363 . S
C1829 H1800 0.950 . S
C1829 C1828 1.397 . S
C1829 C1830 1.334 . S
C1830 H1801 0.950 . S
C1830 C1829 1.334 . S
C1830 C1831 1.287 . S
C1831 C1830 1.287 . S
C1831 C1832 1.524 . S
C1831 H1834 0.999 . S
C1832 H1802 0.950 . S
C1832 C1831 1.524 . S
C1832 C1833 1.415 . S
C1833 H1803 0.950 . S
C1833 C1828 1.363 . S
C1833 C1832 1.415 . S
H1834 C1831 0.999 . S
H1835 C1816 0.913 . S
H1836 C1854 0.951 . S
H1837 C1856 0.951 . S
H1838 C1858 0.950 . S
H1839 C1859 0.950 . S
H1840 C1861 0.950 . S
H1841 C1864 0.950 . S
H1842 C1865 0.950 . S
H1843 C1867 0.950 . S
H1844 C1868 0.950 . S
H1845 C1869 0.951 . S
H1846 C1871 0.951 . S
H1847 C1873 0.950 . S
H1848 C1874 0.950 . S
H1849 C1876 0.950 . S
H1850 C1879 0.950 . S
H1851 C1880 0.950 . S
H1852 C1882 0.950 . S
H1853 C1883 0.950 . S
C1854 H1836 0.951 . S
C1854 C1855 1.366 . S
C1854 C1856 1.388 . S
C1855 C1854 1.366 . S
C1855 C1859 1.385 . S
C1856 H1837 0.951 . S
C1856 C1854 1.388 . S
C1856 C1857 1.366 . S
C1857 C1856 1.366 . S
C1857 C1858 1.414 . S
C1857 C1860 1.499 . S
C1858 H1838 0.950 . S
C1858 C1857 1.414 . S
C1858 C1859 1.374 . S
C1859 H1839 0.950 . S
C1859 C1855 1.385 . S
C1859 C1858 1.374 . S
C1860 C1857 1.499 . S
C1860 C1861 1.373 . S
C1860 C1862 1.389 . S
C1861 H1840 0.950 . S
C1861 C1860 1.373 . S
C1861 C1877 1.377 . S
C1862 C1860 1.389 . S
C1862 C1863 1.524 . S
C1862 C1876 1.377 . S
C1863 C1862 1.524 . S
C1863 C1864 1.397 . S
C1863 C1868 1.363 . S
C1864 H1841 0.950 . S
C1864 C1863 1.397 . S
C1864 C1865 1.334 . S
C1865 H1842 0.950 . S
C1865 C1864 1.334 . S
C1865 C1866 1.287 . S
C1866 C1865 1.287 . S
C1866 C1867 1.524 . S
C1866 H1885 0.913 . S
C1867 H1843 0.950 . S
C1867 C1866 1.524 . S
C1867 C1868 1.415 . S
C1868 H1844 0.950 . S
C1868 C1863 1.363 . S
C1868 C1867 1.415 . S
C1869 H1845 0.951 . S
C1869 C1870 1.366 . S
C1869 C1871 1.388 . S
C1870 C1869 1.366 . S
C1870 C1874 1.385 . S
C1871 H1846 0.951 . S
C1871 C1869 1.388 . S
C1871 C1872 1.366 . S
C1872 C1871 1.366 . S
C1872 C1873 1.414 . S
C1872 C1875 1.499 . S
C1873 H1847 0.950 . S
C1873 C1872 1.414 . S
C1873 C1874 1.374 . S
C1874 H1848 0.950 . S
C1874 C1870 1.385 . S
C1874 C1873 1.374 . S
C1875 C1872 1.499 . S
C1875 C1876 1.373 . S
C1875 C1877 1.389 . S
C1876 H1849 0.950 . S
C1876 C1862 1.377 . S
C1876 C1875 1.373 . S
C1877 C1861 1.377 . S
C1877 C1875 1.389 . S
C1877 C1878 1.524 . S
C1878 C1877 1.524 . S
C1878 C1879 1.397 . S
C1878 C1883 1.363 . S
C1879 H1850 0.950 . S
C1879 C1878 1.397 . S
C1879 C1880 1.334 . S
C1880 H1851 0.950 . S
C1880 C1879 1.334 . S
C1880 C1881 1.287 . S
C1881 C1880 1.287 . S
C1881 C1882 1.524 . S
C1881 H1884 0.999 . S
C1882 H1852 0.950 . S
C1882 C1881 1.524 . S
C1882 C1883 1.415 . S
C1883 H1853 0.950 . S
C1883 C1878 1.363 . S
C1883 C1882 1.415 . S
H1884 C1881 0.999 . S
H1885 C1866 0.913 . S
H1886 C1904 0.951 . S
H1887 C1906 0.951 . S
H1888 C1908 0.950 . S
H1889 C1909 0.950 . S
H1890 C1911 0.950 . S
H1891 C1914 0.950 . S
H1892 C1915 0.950 . S
H1893 C1917 0.950 . S
H1894 C1918 0.950 . S
H1895 C1919 0.951 . S
H1896 C1921 0.951 . S
H1897 C1923 0.950 . S
H1898 C1924 0.950 . S
H1899 C1926 0.950 . S
H1900 C1929 0.950 . S
H1901 C1930 0.950 . S
H1902 C1932 0.950 . S
H1903 C1933 0.950 . S
C1904 H1886 0.951 . S
C1904 C1905 1.366 . S
C1904 C1906 1.388 . S
C1905 C1904 1.366 . S
C1905 C1909 1.385 . S
C1906 H1887 0.951 . S
C1906 C1904 1.388 . S
C1906 C1907 1.366 . S
C1907 C1906 1.366 . S
C1907 C1908 1.414 . S
C1907 C1910 1.499 . S
C1908 H1888 0.950 . S
C1908 C1907 1.414 . S
C1908 C1909 1.374 . S
C1909 H1889 0.950 . S
C1909 C1905 1.385 . S
C1909 C1908 1.374 . S
C1910 C1907 1.499 . S
C1910 C1911 1.373 . S
C1910 C1912 1.389 . S
C1911 H1890 0.950 . S
C1911 C1910 1.373 . S
C1911 C1927 1.377 . S
C1912 C1910 1.389 . S
C1912 C1913 1.524 . S
C1912 C1926 1.377 . S
C1913 C1912 1.524 . S
C1913 C1914 1.397 . S
C1913 C1918 1.363 . S
C1914 H1891 0.950 . S
C1914 C1913 1.397 . S
C1914 C1915 1.334 . S
C1915 H1892 0.950 . S
C1915 C1914 1.334 . S
C1915 C1916 1.287 . S
C1916 C1915 1.287 . S
C1916 C1917 1.524 . S
C1916 H1935 0.913 . S
C1917 H1893 0.950 . S
C1917 C1916 1.524 . S
C1917 C1918 1.415 . S
C1918 H1894 0.950 . S
C1918 C1913 1.363 . S
C1918 C1917 1.415 . S
C1919 H1895 0.951 . S
C1919 C1920 1.366 . S
C1919 C1921 1.388 . S
C1920 C1919 1.366 . S
C1920 C1924 1.385 . S
C1921 H1896 0.951 . S
C1921 C1919 1.388 . S
C1921 C1922 1.366 . S
C1922 C1921 1.366 . S
C1922 C1923 1.414 . S
C1922 C1925 1.499 . S
C1923 H1897 0.950 . S
C1923 C1922 1.414 . S
C1923 C1924 1.374 . S
C1924 H1898 0.950 . S
C1924 C1920 1.385 . S
C1924 C1923 1.374 . S
C1925 C1922 1.499 . S
C1925 C1926 1.373 . S
C1925 C1927 1.389 . S
C1926 H1899 0.950 . S
C1926 C1912 1.377 . S
C1926 C1925 1.373 . S
C1927 C1911 1.377 . S
C1927 C1925 1.389 . S
C1927 C1928 1.524 . S
C1928 C1927 1.524 . S
C1928 C1929 1.397 . S
C1928 C1933 1.363 . S
C1929 H1900 0.950 . S
C1929 C1928 1.397 . S
C1929 C1930 1.334 . S
C1930 H1901 0.950 . S
C1930 C1929 1.334 . S
C1930 C1931 1.287 . S
C1931 C1930 1.287 . S
C1931 C1932 1.524 . S
C1931 H1934 0.999 . S
C1932 H1902 0.950 . S
C1932 C1931 1.524 . S
C1932 C1933 1.415 . S
C1933 H1903 0.950 . S
C1933 C1928 1.363 . S
C1933 C1932 1.415 . S
H1934 C1931 0.999 . S
H1935 C1916 0.913 . S
H1936 C1954 0.951 . S
H1937 C1956 0.951 . S
H1938 C1958 0.950 . S
H1939 C1959 0.950 . S
H1940 C1961 0.950 . S
H1941 C1964 0.950 . S
H1942 C1965 0.950 . S
H1943 C1967 0.950 . S
H1944 C1968 0.950 . S
H1945 C1969 0.951 . S
H1946 C1971 0.951 . S
H1947 C1973 0.950 . S
H1948 C1974 0.950 . S
H1949 C1976 0.950 . S
H1950 C1979 0.950 . S
H1951 C1980 0.950 . S
H1952 C1982 0.950 . S
H1953 C1983 0.950 . S
C1954 H1936 0.951 . S
C1954 C1955 1.366 . S
C1954 C1956 1.388 . S
C1955 C1954 1.366 . S
C1955 C1959 1.385 . S
C1956 H1937 0.951 . S
C1956 C1954 1.388 . S
C1956 C1957 1.366 . S
C1957 C1956 1.366 . S
C1957 C1958 1.414 . S
C1957 C1960 1.499 . S
C1958 H1938 0.950 . S
C1958 C1957 1.414 . S
C1958 C1959 1.374 . S
C1959 H1939 0.950 . S
C1959 C1955 1.385 . S
C1959 C1958 1.374 . S
C1960 C1957 1.499 . S
C1960 C1961 1.373 . S
C1960 C1962 1.389 . S
C1961 H1940 0.950 . S
C1961 C1960 1.373 . S
C1961 C1977 1.377 . S
C1962 C1960 1.389 . S
C1962 C1963 1.524 . S
C1962 C1976 1.377 . S
C1963 C1962 1.524 . S
C1963 C1964 1.397 . S
C1963 C1968 1.363 . S
C1964 H1941 0.950 . S
C1964 C1963 1.397 . S
C1964 C1965 1.334 . S
C1965 H1942 0.950 . S
C1965 C1964 1.334 . S
C1965 C1966 1.287 . S
C1966 C1965 1.287 . S
C1966 C1967 1.524 . S
C1966 H1985 0.913 . S
C1967 H1943 0.950 . S
C1967 C1966 1.524 . S
C1967 C1968 1.415 . S
C1968 H1944 0.950 . S
C1968 C1963 1.363 . S
C1968 C1967 1.415 . S
C1969 H1945 0.951 . S
C1969 C1970 1.366 . S
C1969 C1971 1.388 . S
C1970 C1969 1.366 . S
C1970 C1974 1.385 . S
C1971 H1946 0.951 . S
C1971 C1969 1.388 . S
C1971 C1972 1.366 . S
C1972 C1971 1.366 . S
C1972 C1973 1.414 . S
C1972 C1975 1.499 . S
C1973 H1947 0.950 . S
C1973 C1972 1.414 . S
C1973 C1974 1.374 . S
C1974 H1948 0.950 . S
C1974 C1970 1.385 . S
C1974 C1973 1.374 . S
C1975 C1972 1.499 . S
C1975 C1976 1.373 . S
C1975 C1977 1.389 . S
C1976 H1949 0.950 . S
C1976 C1962 1.377 . S
C1976 C1975 1.373 . S
C1977 C1961 1.377 . S
C1977 C1975 1.389 . S
C1977 C1978 1.524 . S
C1978 C1977 1.524 . S
C1978 C1979 1.397 . S
C1978 C1983 1.363 . S
C1979 H1950 0.950 . S
C1979 C1978 1.397 . S
C1979 C1980 1.334 . S
C1980 H1951 0.950 . S
C1980 C1979 1.334 . S
C1980 C1981 1.287 . S
C1981 C1980 1.287 . S
C1981 C1982 1.524 . S
C1981 H1984 0.999 . S
C1982 H1952 0.950 . S
C1982 C1981 1.524 . S
C1982 C1983 1.415 . S
C1983 H1953 0.950 . S
C1983 C1978 1.363 . S
C1983 C1982 1.415 . S
H1984 C1981 0.999 . S
H1985 C1966 0.913 . S
H1986 C2004 0.951 . S
H1987 C2006 0.951 . S
H1988 C2008 0.950 . S
H1989 C2009 0.950 . S
H1990 C2011 0.950 . S
H1991 C2014 0.950 . S
H1992 C2015 0.950 . S
H1993 C2017 0.950 . S
H1994 C2018 0.950 . S
H1995 C2019 0.951 . S
H1996 C2021 0.951 . S
H1997 C2023 0.950 . S
H1998 C2024 0.950 . S
H1999 C2026 0.950 . S
H2000 C2029 0.950 . S
H2001 C2030 0.950 . S
H2002 C2032 0.950 . S
H2003 C2033 0.950 . S
C2004 H1986 0.951 . S
C2004 C2005 1.366 . S
C2004 C2006 1.388 . S
C2005 C2004 1.366 . S
C2005 C2009 1.385 . S
C2006 H1987 0.951 . S
C2006 C2004 1.388 . S
C2006 C2007 1.366 . S
C2007 C2006 1.366 . S
C2007 C2008 1.414 . S
C2007 C2010 1.499 . S
C2008 H1988 0.950 . S
C2008 C2007 1.414 . S
C2008 C2009 1.374 . S
C2009 H1989 0.950 . S
C2009 C2005 1.385 . S
C2009 C2008 1.374 . S
C2010 C2007 1.499 . S
C2010 C2011 1.373 . S
C2010 C2012 1.389 . S
C2011 H1990 0.950 . S
C2011 C2010 1.373 . S
C2011 C2027 1.377 . S
C2012 C2010 1.389 . S
C2012 C2013 1.524 . S
C2012 C2026 1.377 . S
C2013 C2012 1.524 . S
C2013 C2014 1.397 . S
C2013 C2018 1.363 . S
C2014 H1991 0.950 . S
C2014 C2013 1.397 . S
C2014 C2015 1.334 . S
C2015 H1992 0.950 . S
C2015 C2014 1.334 . S
C2015 C2016 1.287 . S
C2016 C2015 1.287 . S
C2016 C2017 1.524 . S
C2016 H2035 0.913 . S
C2017 H1993 0.950 . S
C2017 C2016 1.524 . S
C2017 C2018 1.415 . S
C2018 H1994 0.950 . S
C2018 C2013 1.363 . S
C2018 C2017 1.415 . S
C2019 H1995 0.951 . S
C2019 C2020 1.366 . S
C2019 C2021 1.388 . S
C2020 C2019 1.366 . S
C2020 C2024 1.385 . S
C2021 H1996 0.951 . S
C2021 C2019 1.388 . S
C2021 C2022 1.366 . S
C2022 C2021 1.366 . S
C2022 C2023 1.414 . S
C2022 C2025 1.499 . S
C2023 H1997 0.950 . S
C2023 C2022 1.414 . S
C2023 C2024 1.374 . S
C2024 H1998 0.950 . S
C2024 C2020 1.385 . S
C2024 C2023 1.374 . S
C2025 C2022 1.499 . S
C2025 C2026 1.373 . S
C2025 C2027 1.389 . S
C2026 H1999 0.950 . S
C2026 C2012 1.377 . S
C2026 C2025 1.373 . S
C2027 C2011 1.377 . S
C2027 C2025 1.389 . S
C2027 C2028 1.524 . S
C2028 C2027 1.524 . S
C2028 C2029 1.397 . S
C2028 C2033 1.363 . S
C2029 H2000 0.950 . S
C2029 C2028 1.397 . S
C2029 C2030 1.334 . S
C2030 H2001 0.950 . S
C2030 C2029 1.334 . S
C2030 C2031 1.287 . S
C2031 C2030 1.287 . S
C2031 C2032 1.524 . S
C2031 H2034 0.999 . S
C2032 H2002 0.950 . S
C2032 C2031 1.524 . S
C2032 C2033 1.415 . S
C2033 H2003 0.950 . S
C2033 C2028 1.363 . S
C2033 C2032 1.415 . S
H2034 C2031 0.999 . S
H2035 C2016 0.913 . S
H2036 C2054 0.951 . S
H2037 C2056 0.951 . S
H2038 C2058 0.950 . S
H2039 C2059 0.950 . S
H2040 C2061 0.950 . S
H2041 C2064 0.950 . S
H2042 C2065 0.950 . S
H2043 C2067 0.950 . S
H2044 C2068 0.950 . S
H2045 C2069 0.951 . S
H2046 C2071 0.951 . S
H2047 C2073 0.950 . S
H2048 C2074 0.950 . S
H2049 C2076 0.950 . S
H2050 C2079 0.950 . S
H2051 C2080 0.950 . S
H2052 C2082 0.950 . S
H2053 C2083 0.950 . S
C2054 H2036 0.951 . S
C2054 C2055 1.366 . S
C2054 C2056 1.388 . S
C2055 C2054 1.366 . S
C2055 C2059 1.385 . S
C2056 H2037 0.951 . S
C2056 C2054 1.388 . S
C2056 C2057 1.366 . S
C2057 C2056 1.366 . S
C2057 C2058 1.414 . S
C2057 C2060 1.499 . S
C2058 H2038 0.950 . S
C2058 C2057 1.414 . S
C2058 C2059 1.374 . S
C2059 H2039 0.950 . S
C2059 C2055 1.385 . S
C2059 C2058 1.374 . S
C2060 C2057 1.499 . S
C2060 C2061 1.373 . S
C2060 C2062 1.389 . S
C2061 H2040 0.950 . S
C2061 C2060 1.373 . S
C2061 C2077 1.377 . S
C2062 C2060 1.389 . S
C2062 C2063 1.524 . S
C2062 C2076 1.377 . S
C2063 C2062 1.524 . S
C2063 C2064 1.397 . S
C2063 C2068 1.363 . S
C2064 H2041 0.950 . S
C2064 C2063 1.397 . S
C2064 C2065 1.334 . S
C2065 H2042 0.950 . S
C2065 C2064 1.334 . S
C2065 C2066 1.287 . S
C2066 C2065 1.287 . S
C2066 C2067 1.524 . S
C2066 H2085 0.913 . S
C2067 H2043 0.950 . S
C2067 C2066 1.524 . S
C2067 C2068 1.415 . S
C2068 H2044 0.950 . S
C2068 C2063 1.363 . S
C2068 C2067 1.415 . S
C2069 H2045 0.951 . S
C2069 C2070 1.366 . S
C2069 C2071 1.388 . S
C2070 C2069 1.366 . S
C2070 C2074 1.385 . S
C2071 H2046 0.951 . S
C2071 C2069 1.388 . S
C2071 C2072 1.366 . S
C2072 C2071 1.366 . S
C2072 C2073 1.414 . S
C2072 C2075 1.499 . S
C2073 H2047 0.950 . S
C2073 C2072 1.414 . S
C2073 C2074 1.374 . S
C2074 H2048 0.950 . S
C2074 C2070 1.385 . S
C2074 C2073 1.374 . S
C2075 C2072 1.499 . S
C2075 C2076 1.373 . S
C2075 C2077 1.389 . S
C2076 H2049 0.950 . S
C2076 C2062 1.377 . S
C2076 C2075 1.373 . S
C2077 C2061 1.377 . S
C2077 C2075 1.389 . S
C2077 C2078 1.524 . S
C2078 C2077 1.524 . S
C2078 C2079 1.397 . S
C2078 C2083 1.363 . S
C2079 H2050 0.950 . S
C2079 C2078 1.397 . S
C2079 C2080 1.334 . S
C2080 H2051 0.950 . S
C2080 C2079 1.334 . S
C2080 C2081 1.287 . S
C2081 C2080 1.287 . S
C2081 C2082 1.524 . S
C2081 H2084 0.999 . S
C2082 H2052 0.950 . S
C2082 C2081 1.524 . S
C2082 C2083 1.415 . S
C2083 H2053 0.950 . S
C2083 C2078 1.363 . S
C2083 C2082 1.415 . S
H2084 C2081 0.999 . S
H2085 C2066 0.913 . S
H2086 C2104 0.951 . S
H2087 C2106 0.951 . S
H2088 C2108 0.950 . S
H2089 C2109 0.950 . S
H2090 C2111 0.950 . S
H2091 C2114 0.950 . S
H2092 C2115 0.950 . S
H2093 C2117 0.950 . S
H2094 C2118 0.950 . S
H2095 C2119 0.951 . S
H2096 C2121 0.951 . S
H2097 C2123 0.950 . S
H2098 C2124 0.950 . S
H2099 C2126 0.950 . S
H2100 C2129 0.950 . S
H2101 C2130 0.950 . S
H2102 C2132 0.950 . S
H2103 C2133 0.950 . S
C2104 H2086 0.951 . S
C2104 C2105 1.366 . S
C2104 C2106 1.388 . S
C2105 C2104 1.366 . S
C2105 C2109 1.385 . S
C2106 H2087 0.951 . S
C2106 C2104 1.388 . S
C2106 C2107 1.366 . S
C2107 C2106 1.366 . S
C2107 C2108 1.414 . S
C2107 C2110 1.499 . S
C2108 H2088 0.950 . S
C2108 C2107 1.414 . S
C2108 C2109 1.374 . S
C2109 H2089 0.950 . S
C2109 C2105 1.385 . S
C2109 C2108 1.374 . S
C2110 C2107 1.499 . S
C2110 C2111 1.373 . S
C2110 C2112 1.389 . S
C2111 H2090 0.950 . S
C2111 C2110 1.373 . S
C2111 C2127 1.377 . S
C2112 C2110 1.389 . S
C2112 C2113 1.524 . S
C2112 C2126 1.377 . S
C2113 C2112 1.524 . S
C2113 C2114 1.397 . S
C2113 C2118 1.363 . S
C2114 H2091 0.950 . S
C2114 C2113 1.397 . S
C2114 C2115 1.334 . S
C2115 H2092 0.950 . S
C2115 C2114 1.334 . S
C2115 C2116 1.287 . S
C2116 C2115 1.287 . S
C2116 C2117 1.524 . S
C2116 H2135 0.913 . S
C2117 H2093 0.950 . S
C2117 C2116 1.524 . S
C2117 C2118 1.415 . S
C2118 H2094 0.950 . S
C2118 C2113 1.363 . S
C2118 C2117 1.415 . S
C2119 H2095 0.951 . S
C2119 C2120 1.366 . S
C2119 C2121 1.388 . S
C2120 C2119 1.366 . S
C2120 C2124 1.385 . S
C2121 H2096 0.951 . S
C2121 C2119 1.388 . S
C2121 C2122 1.366 . S
C2122 C2121 1.366 . S
C2122 C2123 1.414 . S
C2122 C2125 1.499 . S
C2123 H2097 0.950 . S
C2123 C2122 1.414 . S
C2123 C2124 1.374 . S
C2124 H2098 0.950 . S
C2124 C2120 1.385 . S
C2124 C2123 1.374 . S
C2125 C2122 1.499 . S
C2125 C2126 1.373 . S
C2125 C2127 1.389 . S
C2126 H2099 0.950 . S
C2126 C2112 1.377 . S
C2126 C2125 1.373 . S
C2127 C2111 1.377 . S
C2127 C2125 1.389 . S
C2127 C2128 1.524 . S
C2128 C2127 1.524 . S
C2128 C2129 1.397 . S
C2128 C2133 1.363 . S
C2129 H2100 0.950 . S
C2129 C2128 1.397 . S
C2129 C2130 1.334 . S
C2130 H2101 0.950 . S
C2130 C2129 1.334 . S
C2130 C2131 1.287 . S
C2131 C2130 1.287 . S
C2131 C2132 1.524 . S
C2131 H2134 0.999 . S
C2132 H2102 0.950 . S
C2132 C2131 1.524 . S
C2132 C2133 1.415 . S
C2133 H2103 0.950 . S
C2133 C2128 1.363 . S
C2133 C2132 1.415 . S
H2134 C2131 0.999 . S
H2135 C2116 0.913 . S
H2136 C2154 0.951 . S
H2137 C2156 0.951 . S
H2138 C2158 0.950 . S
H2139 C2159 0.950 . S
H2140 C2161 0.950 . S
H2141 C2164 0.950 . S
H2142 C2165 0.950 . S
H2143 C2167 0.950 . S
H2144 C2168 0.950 . S
H2145 C2169 0.951 . S
H2146 C2171 0.951 . S
H2147 C2173 0.950 . S
H2148 C2174 0.950 . S
H2149 C2176 0.950 . S
H2150 C2179 0.950 . S
H2151 C2180 0.950 . S
H2152 C2182 0.950 . S
H2153 C2183 0.950 . S
C2154 H2136 0.951 . S
C2154 C2155 1.366 . S
C2154 C2156 1.388 . S
C2155 C2154 1.366 . S
C2155 C2159 1.385 . S
C2156 H2137 0.951 . S
C2156 C2154 1.388 . S
C2156 C2157 1.366 . S
C2157 C2156 1.366 . S
C2157 C2158 1.414 . S
C2157 C2160 1.499 . S
C2158 H2138 0.950 . S
C2158 C2157 1.414 . S
C2158 C2159 1.374 . S
C2159 H2139 0.950 . S
C2159 C2155 1.385 . S
C2159 C2158 1.374 . S
C2160 C2157 1.499 . S
C2160 C2161 1.373 . S
C2160 C2162 1.389 . S
C2161 H2140 0.950 . S
C2161 C2160 1.373 . S
C2161 C2177 1.377 . S
C2162 C2160 1.389 . S
C2162 C2163 1.524 . S
C2162 C2176 1.377 . S
C2163 C2162 1.524 . S
C2163 C2164 1.397 . S
C2163 C2168 1.363 . S
C2164 H2141 0.950 . S
C2164 C2163 1.397 . S
C2164 C2165 1.334 . S
C2165 H2142 0.950 . S
C2165 C2164 1.334 . S
C2165 C2166 1.287 . S
C2166 C2165 1.287 . S
C2166 C2167 1.524 . S
C2166 H2185 0.913 . S
C2167 H2143 0.950 . S
C2167 C2166 1.524 . S
C2167 C2168 1.415 . S
C2168 H2144 0.950 . S
C2168 C2163 1.363 . S
C2168 C2167 1.415 . S
C2169 H2145 0.951 . S
C2169 C2170 1.366 . S
C2169 C2171 1.388 . S
C2170 C2169 1.366 . S
C2170 C2174 1.385 . S
C2171 H2146 0.951 . S
C2171 C2169 1.388 . S
C2171 C2172 1.366 . S
C2172 C2171 1.366 . S
C2172 C2173 1.414 . S
C2172 C2175 1.499 . S
C2173 H2147 0.950 . S
C2173 C2172 1.414 . S
C2173 C2174 1.374 . S
C2174 H2148 0.950 . S
C2174 C2170 1.385 . S
C2174 C2173 1.374 . S
C2175 C2172 1.499 . S
C2175 C2176 1.373 . S
C2175 C2177 1.389 . S
C2176 H2149 0.950 . S
C2176 C2162 1.377 . S
C2176 C2175 1.373 . S
C2177 C2161 1.377 . S
C2177 C2175 1.389 . S
C2177 C2178 1.524 . S
C2178 C2177 1.524 . S
C2178 C2179 1.397 . S
C2178 C2183 1.363 . S
C2179 H2150 0.950 . S
C2179 C2178 1.397 . S
C2179 C2180 1.334 . S
C2180 H2151 0.950 . S
C2180 C2179 1.334 . S
C2180 C2181 1.287 . S
C2181 C2180 1.287 . S
C2181 C2182 1.524 . S
C2181 H2184 0.999 . S
C2182 H2152 0.950 . S
C2182 C2181 1.524 . S
C2182 C2183 1.415 . S
C2183 H2153 0.950 . S
C2183 C2178 1.363 . S
C2183 C2182 1.415 . S
H2184 C2181 0.999 . S
H2185 C2166 0.913 . S
H2186 C2204 0.951 . S
H2187 C2206 0.951 . S
H2188 C2208 0.950 . S
H2189 C2209 0.950 . S
H2190 C2211 0.950 . S
H2191 C2214 0.950 . S
H2192 C2215 0.950 . S
H2193 C2217 0.950 . S
H2194 C2218 0.950 . S
H2195 C2219 0.951 . S
H2196 C2221 0.951 . S
H2197 C2223 0.950 . S
H2198 C2224 0.950 . S
H2199 C2226 0.950 . S
H2200 C2229 0.950 . S
H2201 C2230 0.950 . S
H2202 C2232 0.950 . S
H2203 C2233 0.950 . S
C2204 H2186 0.951 . S
C2204 C2205 1.366 . S
C2204 C2206 1.388 . S
C2205 C2204 1.366 . S
C2205 C2209 1.385 . S
C2206 H2187 0.951 . S
C2206 C2204 1.388 . S
C2206 C2207 1.366 . S
C2207 C2206 1.366 . S
C2207 C2208 1.414 . S
C2207 C2210 1.499 . S
C2208 H2188 0.950 . S
C2208 C2207 1.414 . S
C2208 C2209 1.374 . S
C2209 H2189 0.950 . S
C2209 C2205 1.385 . S
C2209 C2208 1.374 . S
C2210 C2207 1.499 . S
C2210 C2211 1.373 . S
C2210 C2212 1.389 . S
C2211 H2190 0.950 . S
C2211 C2210 1.373 . S
C2211 C2227 1.377 . S
C2212 C2210 1.389 . S
C2212 C2213 1.524 . S
C2212 C2226 1.377 . S
C2213 C2212 1.524 . S
C2213 C2214 1.397 . S
C2213 C2218 1.363 . S
C2214 H2191 0.950 . S
C2214 C2213 1.397 . S
C2214 C2215 1.334 . S
C2215 H2192 0.950 . S
C2215 C2214 1.334 . S
C2215 C2216 1.287 . S
C2216 C2215 1.287 . S
C2216 C2217 1.524 . S
C2216 H2235 0.913 . S
C2217 H2193 0.950 . S
C2217 C2216 1.524 . S
C2217 C2218 1.415 . S
C2218 H2194 0.950 . S
C2218 C2213 1.363 . S
C2218 C2217 1.415 . S
C2219 H2195 0.951 . S
C2219 C2220 1.366 . S
C2219 C2221 1.388 . S
C2220 C2219 1.366 . S
C2220 C2224 1.385 . S
C2221 H2196 0.951 . S
C2221 C2219 1.388 . S
C2221 C2222 1.366 . S
C2222 C2221 1.366 . S
C2222 C2223 1.414 . S
C2222 C2225 1.499 . S
C2223 H2197 0.950 . S
C2223 C2222 1.414 . S
C2223 C2224 1.374 . S
C2224 H2198 0.950 . S
C2224 C2220 1.385 . S
C2224 C2223 1.374 . S
C2225 C2222 1.499 . S
C2225 C2226 1.373 . S
C2225 C2227 1.389 . S
C2226 H2199 0.950 . S
C2226 C2212 1.377 . S
C2226 C2225 1.373 . S
C2227 C2211 1.377 . S
C2227 C2225 1.389 . S
C2227 C2228 1.524 . S
C2228 C2227 1.524 . S
C2228 C2229 1.397 . S
C2228 C2233 1.363 . S
C2229 H2200 0.950 . S
C2229 C2228 1.397 . S
C2229 C2230 1.334 . S
C2230 H2201 0.950 . S
C2230 C2229 1.334 . S
C2230 C2231 1.287 . S
C2231 C2230 1.287 . S
C2231 C2232 1.524 . S
C2231 H2234 0.999 . S
C2232 H2202 0.950 . S
C2232 C2231 1.524 . S
C2232 C2233 1.415 . S
C2233 H2203 0.950 . S
C2233 C2228 1.363 . S
C2233 C2232 1.415 . S
H2234 C2231 0.999 . S
H2235 C2216 0.913 . S
H2236 C2254 0.951 . S
H2237 C2256 0.951 . S
H2238 C2258 0.950 . S
H2239 C2259 0.950 . S
H2240 C2261 0.950 . S
H2241 C2264 0.950 . S
H2242 C2265 0.950 . S
H2243 C2267 0.950 . S
H2244 C2268 0.950 . S
H2245 C2269 0.951 . S
H2246 C2271 0.951 . S
H2247 C2273 0.950 . S
H2248 C2274 0.950 . S
H2249 C2276 0.950 . S
H2250 C2279 0.950 . S
H2251 C2280 0.950 . S
H2252 C2282 0.950 . S
H2253 C2283 0.950 . S
C2254 H2236 0.951 . S
C2254 C2255 1.366 . S
C2254 C2256 1.388 . S
C2255 C2254 1.366 . S
C2255 C2259 1.385 . S
C2256 H2237 0.951 . S
C2256 C2254 1.388 . S
C2256 C2257 1.366 . S
C2257 C2256 1.366 . S
C2257 C2258 1.414 . S
C2257 C2260 1.499 . S
C2258 H2238 0.950 . S
C2258 C2257 1.414 . S
C2258 C2259 1.374 . S
C2259 H2239 0.950 . S
C2259 C2255 1.385 . S
C2259 C2258 1.374 . S
C2260 C2257 1.499 . S
C2260 C2261 1.373 . S
C2260 C2262 1.389 . S
C2261 H2240 0.950 . S
C2261 C2260 1.373 . S
C2261 C2277 1.377 . S
C2262 C2260 1.389 . S
C2262 C2263 1.524 . S
C2262 C2276 1.377 . S
C2263 C2262 1.524 . S
C2263 C2264 1.397 . S
C2263 C2268 1.363 . S
C2264 H2241 0.950 . S
C2264 C2263 1.397 . S
C2264 C2265 1.334 . S
C2265 H2242 0.950 . S
C2265 C2264 1.334 . S
C2265 C2266 1.287 . S
C2266 C2265 1.287 . S
C2266 C2267 1.524 . S
C2266 H2285 0.913 . S
C2267 H2243 0.950 . S
C2267 C2266 1.524 . S
C2267 C2268 1.415 . S
C2268 H2244 0.950 . S
C2268 C2263 1.363 . S
C2268 C2267 1.415 . S
C2269 H2245 0.951 . S
C2269 C2270 1.366 . S
C2269 C2271 1.388 . S
C2270 C2269 1.366 . S
C2270 C2274 1.385 . S
C2271 H2246 0.951 . S
C2271 C2269 1.388 . S
C2271 C2272 1.366 . S
C2272 C2271 1.366 . S
C2272 C2273 1.414 . S
C2272 C2275 1.499 . S
C2273 H2247 0.950 . S
C2273 C2272 1.414 . S
C2273 C2274 1.374 . S
C2274 H2248 0.950 . S
C2274 C2270 1.385 . S
C2274 C2273 1.374 . S
C2275 C2272 1.499 . S
C2275 C2276 1.373 . S
C2275 C2277 1.389 . S
C2276 H2249 0.950 . S
C2276 C2262 1.377 . S
C2276 C2275 1.373 . S
C2277 C2261 1.377 . S
C2277 C2275 1.389 . S
C2277 C2278 1.524 . S
C2278 C2277 1.524 . S
C2278 C2279 1.397 . S
C2278 C2283 1.363 . S
C2279 H2250 0.950 . S
C2279 C2278 1.397 . S
C2279 C2280 1.334 . S
C2280 H2251 0.950 . S
C2280 C2279 1.334 . S
C2280 C2281 1.287 . S
C2281 C2280 1.287 . S
C2281 C2282 1.524 . S
C2281 H2284 0.999 . S
C2282 H2252 0.950 . S
C2282 C2281 1.524 . S
C2282 C2283 1.415 . S
C2283 H2253 0.950 . S
C2283 C2278 1.363 . S
C2283 C2282 1.415 . S
H2284 C2281 0.999 . S
H2285 C2266 0.913 . S
H2286 C2304 0.951 . S
H2287 C2306 0.951 . S
H2288 C2308 0.950 . S
H2289 C2309 0.950 . S
H2290 C2311 0.950 . S
H2291 C2314 0.950 . S
H2292 C2315 0.950 . S
H2293 C2317 0.950 . S
H2294 C2318 0.950 . S
H2295 C2319 0.951 . S
H2296 C2321 0.951 . S
H2297 C2323 0.950 . S
H2298 C2324 0.950 . S
H2299 C2326 0.950 . S
H2300 C2329 0.950 . S
H2301 C2330 0.950 . S
H2302 C2332 0.950 . S
H2303 C2333 0.950 . S
C2304 H2286 0.951 . S
C2304 C2305 1.366 . S
C2304 C2306 1.388 . S
C2305 C2304 1.366 . S
C2305 C2309 1.385 . S
C2306 H2287 0.951 . S
C2306 C2304 1.388 . S
C2306 C2307 1.366 . S
C2307 C2306 1.366 . S
C2307 C2308 1.414 . S
C2307 C2310 1.499 . S
C2308 H2288 0.950 . S
C2308 C2307 1.414 . S
C2308 C2309 1.374 . S
C2309 H2289 0.950 . S
C2309 C2305 1.385 . S
C2309 C2308 1.374 . S
C2310 C2307 1.499 . S
C2310 C2311 1.373 . S
C2310 C2312 1.389 . S
C2311 H2290 0.950 . S
C2311 C2310 1.373 . S
C2311 C2327 1.377 . S
C2312 C2310 1.389 . S
C2312 C2313 1.524 . S
C2312 C2326 1.377 . S
C2313 C2312 1.524 . S
C2313 C2314 1.397 . S
C2313 C2318 1.363 . S
C2314 H2291 0.950 . S
C2314 C2313 1.397 . S
C2314 C2315 1.334 . S
C2315 H2292 0.950 . S
C2315 C2314 1.334 . S
C2315 C2316 1.287 . S
C2316 C2315 1.287 . S
C2316 C2317 1.524 . S
C2316 H2335 0.913 . S
C2317 H2293 0.950 . S
C2317 C2316 1.524 . S
C2317 C2318 1.415 . S
C2318 H2294 0.950 . S
C2318 C2313 1.363 . S
C2318 C2317 1.415 . S
C2319 H2295 0.951 . S
C2319 C2320 1.366 . S
C2319 C2321 1.388 . S
C2320 C2319 1.366 . S
C2320 C2324 1.385 . S
C2321 H2296 0.951 . S
C2321 C2319 1.388 . S
C2321 C2322 1.366 . S
C2322 C2321 1.366 . S
C2322 C2323 1.414 . S
C2322 C2325 1.499 . S
C2323 H2297 0.950 . S
C2323 C2322 1.414 . S
C2323 C2324 1.374 . S
C2324 H2298 0.950 . S
C2324 C2320 1.385 . S
C2324 C2323 1.374 . S
C2325 C2322 1.499 . S
C2325 C2326 1.373 . S
C2325 C2327 1.389 . S
C2326 H2299 0.950 . S
C2326 C2312 1.377 . S
C2326 C2325 1.373 . S
C2327 C2311 1.377 . S
C2327 C2325 1.389 . S
C2327 C2328 1.524 . S
C2328 C2327 1.524 . S
C2328 C2329 1.397 . S
C2328 C2333 1.363 . S
C2329 H2300 0.950 . S
C2329 C2328 1.397 . S
C2329 C2330 1.334 . S
C2330 H2301 0.950 . S
C2330 C2329 1.334 . S
C2330 C2331 1.287 . S
C2331 C2330 1.287 . S
C2331 C2332 1.524 . S
C2331 H2334 0.999 . S
C2332 H2302 0.950 . S
C2332 C2331 1.524 . S
C2332 C2333 1.415 . S
C2333 H2303 0.950 . S
C2333 C2328 1.363 . S
C2333 C2332 1.415 . S
H2334 C2331 0.999 . S
H2335 C2316 0.913 . S
H2336 C2354 0.951 . S
H2337 C2356 0.951 . S
H2338 C2358 0.950 . S
H2339 C2359 0.950 . S
H2340 C2361 0.950 . S
H2341 C2364 0.950 . S
H2342 C2365 0.950 . S
H2343 C2367 0.950 . S
H2344 C2368 0.950 . S
H2345 C2369 0.951 . S
H2346 C2371 0.951 . S
H2347 C2373 0.950 . S
H2348 C2374 0.950 . S
H2349 C2376 0.950 . S
H2350 C2379 0.950 . S
H2351 C2380 0.950 . S
H2352 C2382 0.950 . S
H2353 C2383 0.950 . S
C2354 H2336 0.951 . S
C2354 C2355 1.366 . S
C2354 C2356 1.388 . S
C2355 C2354 1.366 . S
C2355 C2359 1.385 . S
C2356 H2337 0.951 . S
C2356 C2354 1.388 . S
C2356 C2357 1.366 . S
C2357 C2356 1.366 . S
C2357 C2358 1.414 . S
C2357 C2360 1.499 . S
C2358 H2338 0.950 . S
C2358 C2357 1.414 . S
C2358 C2359 1.374 . S
C2359 H2339 0.950 . S
C2359 C2355 1.385 . S
C2359 C2358 1.374 . S
C2360 C2357 1.499 . S
C2360 C2361 1.373 . S
C2360 C2362 1.389 . S
C2361 H2340 0.950 . S
C2361 C2360 1.373 . S
C2361 C2377 1.377 . S
C2362 C2360 1.389 . S
C2362 C2363 1.524 . S
C2362 C2376 1.377 . S
C2363 C2362 1.524 . S
C2363 C2364 1.397 . S
C2363 C2368 1.363 . S
C2364 H2341 0.950 . S
C2364 C2363 1.397 . S
C2364 C2365 1.334 . S
C2365 H2342 0.950 . S
C2365 C2364 1.334 . S
C2365 C2366 1.287 . S
C2366 C2365 1.287 . S
C2366 C2367 1.524 . S
C2366 H2385 0.913 . S
C2367 H2343 0.950 . S
C2367 C2366 1.524 . S
C2367 C2368 1.415 . S
C2368 H2344 0.950 . S
C2368 C2363 1.363 . S
C2368 C2367 1.415 . S
C2369 H2345 0.951 . S
C2369 C2370 1.366 . S
C2369 C2371 1.388 . S
C2370 C2369 1.366 . S
C2370 C2374 1.385 . S
C2371 H2346 0.951 . S
C2371 C2369 1.388 . S
C2371 C2372 1.366 . S
C2372 C2371 1.366 . S
C2372 C2373 1.414 . S
C2372 C2375 1.499 . S
C2373 H2347 0.950 . S
C2373 C2372 1.414 . S
C2373 C2374 1.374 . S
C2374 H2348 0.950 . S
C2374 C2370 1.385 . S
C2374 C2373 1.374 . S
C2375 C2372 1.499 . S
C2375 C2376 1.373 . S
C2375 C2377 1.389 . S
C2376 H2349 0.950 . S
C2376 C2362 1.377 . S
C2376 C2375 1.373 . S
C2377 C2361 1.377 . S
C2377 C2375 1.389 . S
C2377 C2378 1.524 . S
C2378 C2377 1.524 . S
C2378 C2379 1.397 . S
C2378 C2383 1.363 . S
C2379 H2350 0.950 . S
C2379 C2378 1.397 . S
C2379 C2380 1.334 . S
C2380 H2351 0.950 . S
C2380 C2379 1.334 . S
C2380 C2381 1.287 . S
C2381 C2380 1.287 . S
C2381 C2382 1.524 . S
C2381 H2384 0.999 . S
C2382 H2352 0.950 . S
C2382 C2381 1.524 . S
C2382 C2383 1.415 . S
C2383 H2353 0.950 . S
C2383 C2378 1.363 . S
C2383 C2382 1.415 . S
H2384 C2381 0.999 . S
H2385 C2366 0.913 . S
H2386 C2404 0.951 . S
H2387 C2406 0.951 . S
H2388 C2408 0.950 . S
H2389 C2409 0.950 . S
H2390 C2411 0.950 . S
H2391 C2414 0.950 . S
H2392 C2415 0.950 . S
H2393 C2417 0.950 . S
H2394 C2418 0.950 . S
H2395 C2419 0.951 . S
H2396 C2421 0.951 . S
H2397 C2423 0.950 . S
H2398 C2424 0.950 . S
H2399 C2426 0.950 . S
H2400 C2429 0.950 . S
H2401 C2430 0.950 . S
H2402 C2432 0.950 . S
H2403 C2433 0.950 . S
C2404 H2386 0.951 . S
C2404 C2405 1.366 . S
C2404 C2406 1.388 . S
C2405 C2404 1.366 . S
C2405 C2409 1.385 . S
C2406 H2387 0.951 . S
C2406 C2404 1.388 . S
C2406 C2407 1.366 . S
C2407 C2406 1.366 . S
C2407 C2408 1.414 . S
C2407 C2410 1.499 . S
C2408 H2388 0.950 . S
C2408 C2407 1.414 . S
C2408 C2409 1.374 . S
C2409 H2389 0.950 . S
C2409 C2405 1.385 . S
C2409 C2408 1.374 . S
C2410 C2407 1.499 . S
C2410 C2411 1.373 . S
C2410 C2412 1.389 . S
C2411 H2390 0.950 . S
C2411 C2410 1.373 . S
C2411 C2427 1.377 . S
C2412 C2410 1.389 . S
C2412 C2413 1.524 . S
C2412 C2426 1.377 . S
C2413 C2412 1.524 . S
C2413 C2414 1.397 . S
C2413 C2418 1.363 . S
C2414 H2391 0.950 . S
C2414 C2413 1.397 . S
C2414 C2415 1.334 . S
C2415 H2392 0.950 . S
C2415 C2414 1.334 . S
C2415 C2416 1.287 . S
C2416 C2415 1.287 . S
C2416 C2417 1.524 . S
C2416 H2435 0.913 . S
C2417 H2393 0.950 . S
C2417 C2416 1.524 . S
C2417 C2418 1.415 . S
C2418 H2394 0.950 . S
C2418 C2413 1.363 . S
C2418 C2417 1.415 . S
C2419 H2395 0.951 . S
C2419 C2420 1.366 . S
C2419 C2421 1.388 . S
C2420 C2419 1.366 . S
C2420 C2424 1.385 . S
C2421 H2396 0.951 . S
C2421 C2419 1.388 . S
C2421 C2422 1.366 . S
C2422 C2421 1.366 . S
C2422 C2423 1.414 . S
C2422 C2425 1.499 . S
C2423 H2397 0.950 . S
C2423 C2422 1.414 . S
C2423 C2424 1.374 . S
C2424 H2398 0.950 . S
C2424 C2420 1.385 . S
C2424 C2423 1.374 . S
C2425 C2422 1.499 . S
C2425 C2426 1.373 . S
C2425 C2427 1.389 . S
C2426 H2399 0.950 . S
C2426 C2412 1.377 . S
C2426 C2425 1.373 . S
C2427 C2411 1.377 . S
C2427 C2425 1.389 . S
C2427 C2428 1.524 . S
C2428 C2427 1.524 . S
C2428 C2429 1.397 . S
C2428 C2433 1.363 . S
C2429 H2400 0.950 . S
C2429 C2428 1.397 . S
C2429 C2430 1.334 . S
C2430 H2401 0.950 . S
C2430 C2429 1.334 . S
C2430 C2431 1.287 . S
C2431 C2430 1.287 . S
C2431 C2432 1.524 . S
C2431 H2434 0.999 . S
C2432 H2402 0.950 . S
C2432 C2431 1.524 . S
C2432 C2433 1.415 . S
C2433 H2403 0.950 . S
C2433 C2428 1.363 . S
C2433 C2432 1.415 . S
H2434 C2431 0.999 . S
H2435 C2416 0.913 . S
H2436 C2454 0.951 . S
H2437 C2456 0.951 . S
H2438 C2458 0.950 . S
H2439 C2459 0.950 . S
H2440 C2461 0.950 . S
H2441 C2464 0.950 . S
H2442 C2465 0.950 . S
H2443 C2467 0.950 . S
H2444 C2468 0.950 . S
H2445 C2469 0.951 . S
H2446 C2471 0.951 . S
H2447 C2473 0.950 . S
H2448 C2474 0.950 . S
H2449 C2476 0.950 . S
H2450 C2479 0.950 . S
H2451 C2480 0.950 . S
H2452 C2482 0.950 . S
H2453 C2483 0.950 . S
C2454 H2436 0.951 . S
C2454 C2455 1.366 . S
C2454 C2456 1.388 . S
C2455 C2454 1.366 . S
C2455 C2459 1.385 . S
C2456 H2437 0.951 . S
C2456 C2454 1.388 . S
C2456 C2457 1.366 . S
C2457 C2456 1.366 . S
C2457 C2458 1.414 . S
C2457 C2460 1.499 . S
C2458 H2438 0.950 . S
C2458 C2457 1.414 . S
C2458 C2459 1.374 . S
C2459 H2439 0.950 . S
C2459 C2455 1.385 . S
C2459 C2458 1.374 . S
C2460 C2457 1.499 . S
C2460 C2461 1.373 . S
C2460 C2462 1.389 . S
C2461 H2440 0.950 . S
C2461 C2460 1.373 . S
C2461 C2477 1.377 . S
C2462 C2460 1.389 . S
C2462 C2463 1.524 . S
C2462 C2476 1.377 . S
C2463 C2462 1.524 . S
C2463 C2464 1.397 . S
C2463 C2468 1.363 . S
C2464 H2441 0.950 . S
C2464 C2463 1.397 . S
C2464 C2465 1.334 . S
C2465 H2442 0.950 . S
C2465 C2464 1.334 . S
C2465 C2466 1.287 . S
C2466 C2465 1.287 . S
C2466 C2467 1.524 . S
C2466 H2485 0.913 . S
C2467 H2443 0.950 . S
C2467 C2466 1.524 . S
C2467 C2468 1.415 . S
C2468 H2444 0.950 . S
C2468 C2463 1.363 . S
C2468 C2467 1.415 . S
C2469 H2445 0.951 . S
C2469 C2470 1.366 . S
C2469 C2471 1.388 . S
C2470 C2469 1.366 . S
C2470 C2474 1.385 . S
C2471 H2446 0.951 . S
C2471 C2469 1.388 . S
C2471 C2472 1.366 . S
C2472 C2471 1.366 . S
C2472 C2473 1.414 . S
C2472 C2475 1.499 . S
C2473 H2447 0.950 . S
C2473 C2472 1.414 . S
C2473 C2474 1.374 . S
C2474 H2448 0.950 . S
C2474 C2470 1.385 . S
C2474 C2473 1.374 . S
C2475 C2472 1.499 . S
C2475 C2476 1.373 . S
C2475 C2477 1.389 . S
C2476 H2449 0.950 . S
C2476 C2462 1.377 . S
C2476 C2475 1.373 . S
C2477 C2461 1.377 . S
C2477 C2475 1.389 . S
C2477 C2478 1.524 . S
C2478 C2477 1.524 . S
C2478 C2479 1.397 . S
C2478 C2483 1.363 . S
C2479 H2450 0.950 . S
C2479 C2478 1.397 . S
C2479 C2480 1.334 . S
C2480 H2451 0.950 . S
C2480 C2479 1.334 . S
C2480 C2481 1.287 . S
C2481 C2480 1.287 . S
C2481 C2482 1.524 . S
C2481 H2484 0.999 . S
C2482 H2452 0.950 . S
C2482 C2481 1.524 . S
C2482 C2483 1.415 . S
C2483 H2453 0.950 . S
C2483 C2478 1.363 . S
C2483 C2482 1.415 . S
H2484 C2481 0.999 . S
H2485 C2466 0.913 . S
H2486 C2504 0.951 . S
H2487 C2506 0.951 . S
H2488 C2508 0.950 . S
H2489 C2509 0.950 . S
H2490 C2511 0.950 . S
H2491 C2514 0.950 . S
H2492 C2515 0.950 . S
H2493 C2517 0.950 . S
H2494 C2518 0.950 . S
H2495 C2519 0.951 . S
H2496 C2521 0.951 . S
H2497 C2523 0.950 . S
H2498 C2524 0.950 . S
H2499 C2526 0.950 . S
H2500 C2529 0.950 . S
H2501 C2530 0.950 . S
H2502 C2532 0.950 . S
H2503 C2533 0.950 . S
C2504 H2486 0.951 . S
C2504 C2505 1.366 . S
C2504 C2506 1.388 . S
C2505 C2504 1.366 . S
C2505 C2509 1.385 . S
C2506 H2487 0.951 . S
C2506 C2504 1.388 . S
C2506 C2507 1.366 . S
C2507 C2506 1.366 . S
C2507 C2508 1.414 . S
C2507 C2510 1.499 . S
C2508 H2488 0.950 . S
C2508 C2507 1.414 . S
C2508 C2509 1.374 . S
C2509 H2489 0.950 . S
C2509 C2505 1.385 . S
C2509 C2508 1.374 . S
C2510 C2507 1.499 . S
C2510 C2511 1.373 . S
C2510 C2512 1.389 . S
C2511 H2490 0.950 . S
C2511 C2510 1.373 . S
C2511 C2527 1.377 . S
C2512 C2510 1.389 . S
C2512 C2513 1.524 . S
C2512 C2526 1.377 . S
C2513 C2512 1.524 . S
C2513 C2514 1.397 . S
C2513 C2518 1.363 . S
C2514 H2491 0.950 . S
C2514 C2513 1.397 . S
C2514 C2515 1.334 . S
C2515 H2492 0.950 . S
C2515 C2514 1.334 . S
C2515 C2516 1.287 . S
C2516 C2515 1.287 . S
C2516 C2517 1.524 . S
C2516 H2535 0.913 . S
C2517 H2493 0.950 . S
C2517 C2516 1.524 . S
C2517 C2518 1.415 . S
C2518 H2494 0.950 . S
C2518 C2513 1.363 . S
C2518 C2517 1.415 . S
C2519 H2495 0.951 . S
C2519 C2520 1.366 . S
C2519 C2521 1.388 . S
C2520 C2519 1.366 . S
C2520 C2524 1.385 . S
C2521 H2496 0.951 . S
C2521 C2519 1.388 . S
C2521 C2522 1.366 . S
C2522 C2521 1.366 . S
C2522 C2523 1.414 . S
C2522 C2525 1.499 . S
C2523 H2497 0.950 . S
C2523 C2522 1.414 . S
C2523 C2524 1.374 . S
C2524 H2498 0.950 . S
C2524 C2520 1.385 . S
C2524 C2523 1.374 . S
C2525 C2522 1.499 . S
C2525 C2526 1.373 . S
C2525 C2527 1.389 . S
C2526 H2499 0.950 . S
C2526 C2512 1.377 . S
C2526 C2525 1.373 . S
C2527 C2511 1.377 . S
C2527 C2525 1.389 . S
C2527 C2528 1.524 . S
C2528 C2527 1.524 . S
C2528 C2529 1.397 . S
C2528 C2533 1.363 . S
C2529 H2500 0.950 . S
C2529 C2528 1.397 . S
C2529 C2530 1.334 . S
C2530 H2501 0.950 . S
C2530 C2529 1.334 . S
C2530 C2531 1.287 . S
C2531 C2530 1.287 . S
C2531 C2532 1.524 . S
C2531 H2534 0.999 . S
C2532 H2502 0.950 . S
C2532 C2531 1.524 . S
C2532 C2533 1.415 . S
C2533 H2503 0.950 . S
C2533 C2528 1.363 . S
C2533 C2532 1.415 . S
H2534 C2531 0.999 . S
H2535 C2516 0.913 . S
H2536 C2554 0.951 . S
H2537 C2556 0.951 . S
H2538 C2558 0.950 . S
H2539 C2559 0.950 . S
H2540 C2561 0.950 . S
H2541 C2564 0.950 . S
H2542 C2565 0.950 . S
H2543 C2567 0.950 . S
H2544 C2568 0.950 . S
H2545 C2569 0.951 . S
H2546 C2571 0.951 . S
H2547 C2573 0.950 . S
H2548 C2574 0.950 . S
H2549 C2576 0.950 . S
H2550 C2579 0.950 . S
H2551 C2580 0.950 . S
H2552 C2582 0.950 . S
H2553 C2583 0.950 . S
C2554 H2536 0.951 . S
C2554 C2555 1.366 . S
C2554 C2556 1.388 . S
C2555 C2554 1.366 . S
C2555 C2559 1.385 . S
C2556 H2537 0.951 . S
C2556 C2554 1.388 . S
C2556 C2557 1.366 . S
C2557 C2556 1.366 . S
C2557 C2558 1.414 . S
C2557 C2560 1.499 . S
C2558 H2538 0.950 . S
C2558 C2557 1.414 . S
C2558 C2559 1.374 . S
C2559 H2539 0.950 . S
C2559 C2555 1.385 . S
C2559 C2558 1.374 . S
C2560 C2557 1.499 . S
C2560 C2561 1.373 . S
C2560 C2562 1.389 . S
C2561 H2540 0.950 . S
C2561 C2560 1.373 . S
C2561 C2577 1.377 . S
C2562 C2560 1.389 . S
C2562 C2563 1.524 . S
C2562 C2576 1.377 . S
C2563 C2562 1.524 . S
C2563 C2564 1.397 . S
C2563 C2568 1.363 . S
C2564 H2541 0.950 . S
C2564 C2563 1.397 . S
C2564 C2565 1.334 . S
C2565 H2542 0.950 . S
C2565 C2564 1.334 . S
C2565 C2566 1.287 . S
C2566 C2565 1.287 . S
C2566 C2567 1.524 . S
C2566 H2585 0.913 . S
C2567 H2543 0.950 . S
C2567 C2566 1.524 . S
C2567 C2568 1.415 . S
C2568 H2544 0.950 . S
C2568 C2563 1.363 . S
C2568 C2567 1.415 . S
C2569 H2545 0.951 . S
C2569 C2570 1.366 . S
C2569 C2571 1.388 . S
C2570 C2569 1.366 . S
C2570 C2574 1.385 . S
C2571 H2546 0.951 . S
C2571 C2569 1.388 . S
C2571 C2572 1.366 . S
C2572 C2571 1.366 . S
C2572 C2573 1.414 . S
C2572 C2575 1.499 . S
C2573 H2547 0.950 . S
C2573 C2572 1.414 . S
C2573 C2574 1.374 . S
C2574 H2548 0.950 . S
C2574 C2570 1.385 . S
C2574 C2573 1.374 . S
C2575 C2572 1.499 . S
C2575 C2576 1.373 . S
C2575 C2577 1.389 . S
C2576 H2549 0.950 . S
C2576 C2562 1.377 . S
C2576 C2575 1.373 . S
C2577 C2561 1.377 . S
C2577 C2575 1.389 . S
C2577 C2578 1.524 . S
C2578 C2577 1.524 . S
C2578 C2579 1.397 . S
C2578 C2583 1.363 . S
C2579 H2550 0.950 . S
C2579 C2578 1.397 . S
C2579 C2580 1.334 . S
C2580 H2551 0.950 . S
C2580 C2579 1.334 . S
C2580 C2581 1.287 . S
C2581 C2580 1.287 . S
C2581 C2582 1.524 . S
C2581 H2584 0.999 . S
C2582 H2552 0.950 . S
C2582 C2581 1.524 . S
C2582 C2583 1.415 . S
C2583 H2553 0.950 . S
C2583 C2578 1.363 . S
C2583 C2582 1.415 . S
H2584 C2581 0.999 . S
H2585 C2566 0.913 . S
H2586 C2604 0.951 . S
H2587 C2606 0.951 . S
H2588 C2608 0.950 . S
H2589 C2609 0.950 . S
H2590 C2611 0.950 . S
H2591 C2614 0.950 . S
H2592 C2615 0.950 . S
H2593 C2617 0.950 . S
H2594 C2618 0.950 . S
H2595 C2619 0.951 . S
H2596 C2621 0.951 . S
H2597 C2623 0.950 . S
H2598 C2624 0.950 . S
H2599 C2626 0.950 . S
H2600 C2629 0.950 . S
H2601 C2630 0.950 . S
H2602 C2632 0.950 . S
H2603 C2633 0.950 . S
C2604 H2586 0.951 . S
C2604 C2605 1.366 . S
C2604 C2606 1.388 . S
C2605 C2604 1.366 . S
C2605 C2609 1.385 . S
C2606 H2587 0.951 . S
C2606 C2604 1.388 . S
C2606 C2607 1.366 . S
C2607 C2606 1.366 . S
C2607 C2608 1.414 . S
C2607 C2610 1.499 . S
C2608 H2588 0.950 . S
C2608 C2607 1.414 . S
C2608 C2609 1.374 . S
C2609 H2589 0.950 . S
C2609 C2605 1.385 . S
C2609 C2608 1.374 . S
C2610 C2607 1.499 . S
C2610 C2611 1.373 . S
C2610 C2612 1.389 . S
C2611 H2590 0.950 . S
C2611 C2610 1.373 . S
C2611 C2627 1.377 . S
C2612 C2610 1.389 . S
C2612 C2613 1.524 . S
C2612 C2626 1.377 . S
C2613 C2612 1.524 . S
C2613 C2614 1.397 . S
C2613 C2618 1.363 . S
C2614 H2591 0.950 . S
C2614 C2613 1.397 . S
C2614 C2615 1.334 . S
C2615 H2592 0.950 . S
C2615 C2614 1.334 . S
C2615 C2616 1.287 . S
C2616 C2615 1.287 . S
C2616 C2617 1.524 . S
C2616 H2635 0.913 . S
C2617 H2593 0.950 . S
C2617 C2616 1.524 . S
C2617 C2618 1.415 . S
C2618 H2594 0.950 . S
C2618 C2613 1.363 . S
C2618 C2617 1.415 . S
C2619 H2595 0.951 . S
C2619 C2620 1.366 . S
C2619 C2621 1.388 . S
C2620 C2619 1.366 . S
C2620 C2624 1.385 . S
C2621 H2596 0.951 . S
C2621 C2619 1.388 . S
C2621 C2622 1.366 . S
C2622 C2621 1.366 . S
C2622 C2623 1.414 . S
C2622 C2625 1.499 . S
C2623 H2597 0.950 . S
C2623 C2622 1.414 . S
C2623 C2624 1.374 . S
C2624 H2598 0.950 . S
C2624 C2620 1.385 . S
C2624 C2623 1.374 . S
C2625 C2622 1.499 . S
C2625 C2626 1.373 . S
C2625 C2627 1.389 . S
C2626 H2599 0.950 . S
C2626 C2612 1.377 . S
C2626 C2625 1.373 . S
C2627 C2611 1.377 . S
C2627 C2625 1.389 . S
C2627 C2628 1.524 . S
C2628 C2627 1.524 . S
C2628 C2629 1.397 . S
C2628 C2633 1.363 . S
C2629 H2600 0.950 . S
C2629 C2628 1.397 . S
C2629 C2630 1.334 . S
C2630 H2601 0.950 . S
C2630 C2629 1.334 . S
C2630 C2631 1.287 . S
C2631 C2630 1.287 . S
C2631 C2632 1.524 . S
C2631 H2634 0.999 . S
C2632 H2602 0.950 . S
C2632 C2631 1.524 . S
C2632 C2633 1.415 . S
C2633 H2603 0.950 . S
C2633 C2628 1.363 . S
C2633 C2632 1.415 . S
H2634 C2631 0.999 . S
H2635 C2616 0.913 . S
H2636 C2654 0.951 . S
H2637 C2656 0.951 . S
H2638 C2658 0.950 . S
H2639 C2659 0.950 . S
H2640 C2661 0.950 . S
H2641 C2664 0.950 . S
H2642 C2665 0.950 . S
H2643 C2667 0.950 . S
H2644 C2668 0.950 . S
H2645 C2669 0.951 . S
H2646 C2671 0.951 . S
H2647 C2673 0.950 . S
H2648 C2674 0.950 . S
H2649 C2676 0.950 . S
H2650 C2679 0.950 . S
H2651 C2680 0.950 . S
H2652 C2682 0.950 . S
H2653 C2683 0.950 . S
C2654 H2636 0.951 . S
C2654 C2655 1.366 . S
C2654 C2656 1.388 . S
C2655 C2654 1.366 . S
C2655 C2659 1.385 . S
C2656 H2637 0.951 . S
C2656 C2654 1.388 . S
C2656 C2657 1.366 . S
C2657 C2656 1.366 . S
C2657 C2658 1.414 . S
C2657 C2660 1.499 . S
C2658 H2638 0.950 . S
C2658 C2657 1.414 . S
C2658 C2659 1.374 . S
C2659 H2639 0.950 . S
C2659 C2655 1.385 . S
C2659 C2658 1.374 . S
C2660 C2657 1.499 . S
C2660 C2661 1.373 . S
C2660 C2662 1.389 . S
C2661 H2640 0.950 . S
C2661 C2660 1.373 . S
C2661 C2677 1.377 . S
C2662 C2660 1.389 . S
C2662 C2663 1.524 . S
C2662 C2676 1.377 . S
C2663 C2662 1.524 . S
C2663 C2664 1.397 . S
C2663 C2668 1.363 . S
C2664 H2641 0.950 . S
C2664 C2663 1.397 . S
C2664 C2665 1.334 . S
C2665 H2642 0.950 . S
C2665 C2664 1.334 . S
C2665 C2666 1.287 . S
C2666 C2665 1.287 . S
C2666 C2667 1.524 . S
C2666 H2685 0.913 . S
C2667 H2643 0.950 . S
C2667 C2666 1.524 . S
C2667 C2668 1.415 . S
C2668 H2644 0.950 . S
C2668 C2663 1.363 . S
C2668 C2667 1.415 . S
C2669 H2645 0.951 . S
C2669 C2670 1.366 . S
C2669 C2671 1.388 . S
C2670 C2669 1.366 . S
C2670 C2674 1.385 . S
C2671 H2646 0.951 . S
C2671 C2669 1.388 . S
C2671 C2672 1.366 . S
C2672 C2671 1.366 . S
C2672 C2673 1.414 . S
C2672 C2675 1.499 . S
C2673 H2647 0.950 . S
C2673 C2672 1.414 . S
C2673 C2674 1.374 . S
C2674 H2648 0.950 . S
C2674 C2670 1.385 . S
C2674 C2673 1.374 . S
C2675 C2672 1.499 . S
C2675 C2676 1.373 . S
C2675 C2677 1.389 . S
C2676 H2649 0.950 . S
C2676 C2662 1.377 . S
C2676 C2675 1.373 . S
C2677 C2661 1.377 . S
C2677 C2675 1.389 . S
C2677 C2678 1.524 . S
C2678 C2677 1.524 . S
C2678 C2679 1.397 . S
C2678 C2683 1.363 . S
C2679 H2650 0.950 . S
C2679 C2678 1.397 . S
C2679 C2680 1.334 . S
C2680 H2651 0.950 . S
C2680 C2679 1.334 . S
C2680 C2681 1.287 . S
C2681 C2680 1.287 . S
C2681 C2682 1.524 . S
C2681 H2684 0.999 . S
C2682 H2652 0.950 . S
C2682 C2681 1.524 . S
C2682 C2683 1.415 . S
C2683 H2653 0.950 . S
C2683 C2678 1.363 . S
C2683 C2682 1.415 . S
H2684 C2681 0.999 . S
H2685 C2666 0.913 . S
H2686 C2704 0.951 . S
H2687 C2706 0.951 . S
H2688 C2708 0.950 . S
H2689 C2709 0.950 . S
H2690 C2711 0.950 . S
H2691 C2714 0.950 . S
H2692 C2715 0.950 . S
H2693 C2717 0.950 . S
H2694 C2718 0.950 . S
H2695 C2719 0.951 . S
H2696 C2721 0.951 . S
H2697 C2723 0.950 . S
H2698 C2724 0.950 . S
H2699 C2726 0.950 . S
H2700 C2729 0.950 . S
H2701 C2730 0.950 . S
H2702 C2732 0.950 . S
H2703 C2733 0.950 . S
C2704 H2686 0.951 . S
C2704 C2705 1.366 . S
C2704 C2706 1.388 . S
C2705 C2704 1.366 . S
C2705 C2709 1.385 . S
C2706 H2687 0.951 . S
C2706 C2704 1.388 . S
C2706 C2707 1.366 . S
C2707 C2706 1.366 . S
C2707 C2708 1.414 . S
C2707 C2710 1.499 . S
C2708 H2688 0.950 . S
C2708 C2707 1.414 . S
C2708 C2709 1.374 . S
C2709 H2689 0.950 . S
C2709 C2705 1.385 . S
C2709 C2708 1.374 . S
C2710 C2707 1.499 . S
C2710 C2711 1.373 . S
C2710 C2712 1.389 . S
C2711 H2690 0.950 . S
C2711 C2710 1.373 . S
C2711 C2727 1.377 . S
C2712 C2710 1.389 . S
C2712 C2713 1.524 . S
C2712 C2726 1.377 . S
C2713 C2712 1.524 . S
C2713 C2714 1.397 . S
C2713 C2718 1.363 . S
C2714 H2691 0.950 . S
C2714 C2713 1.397 . S
C2714 C2715 1.334 . S
C2715 H2692 0.950 . S
C2715 C2714 1.334 . S
C2715 C2716 1.287 . S
C2716 C2715 1.287 . S
C2716 C2717 1.524 . S
C2716 H2735 0.913 . S
C2717 H2693 0.950 . S
C2717 C2716 1.524 . S
C2717 C2718 1.415 . S
C2718 H2694 0.950 . S
C2718 C2713 1.363 . S
C2718 C2717 1.415 . S
C2719 H2695 0.951 . S
C2719 C2720 1.366 . S
C2719 C2721 1.388 . S
C2720 C2719 1.366 . S
C2720 C2724 1.385 . S
C2721 H2696 0.951 . S
C2721 C2719 1.388 . S
C2721 C2722 1.366 . S
C2722 C2721 1.366 . S
C2722 C2723 1.414 . S
C2722 C2725 1.499 . S
C2723 H2697 0.950 . S
C2723 C2722 1.414 . S
C2723 C2724 1.374 . S
C2724 H2698 0.950 . S
C2724 C2720 1.385 . S
C2724 C2723 1.374 . S
C2725 C2722 1.499 . S
C2725 C2726 1.373 . S
C2725 C2727 1.389 . S
C2726 H2699 0.950 . S
C2726 C2712 1.377 . S
C2726 C2725 1.373 . S
C2727 C2711 1.377 . S
C2727 C2725 1.389 . S
C2727 C2728 1.524 . S
C2728 C2727 1.524 . S
C2728 C2729 1.397 . S
C2728 C2733 1.363 . S
C2729 H2700 0.950 . S
C2729 C2728 1.397 . S
C2729 C2730 1.334 . S
C2730 H2701 0.950 . S
C2730 C2729 1.334 . S
C2730 C2731 1.287 . S
C2731 C2730 1.287 . S
C2731 C2732 1.524 . S
C2731 H2734 0.999 . S
C2732 H2702 0.950 . S
C2732 C2731 1.524 . S
C2732 C2733 1.415 . S
C2733 H2703 0.950 . S
C2733 C2728 1.363 . S
C2733 C2732 1.415 . S
H2734 C2731 0.999 . S
H2735 C2716 0.913 . S
C355 C321 1.840 . S
C370 C13 1.841 . S
C405 C27 1.841 . S
C420 C237 1.841 . S
C455 C334 1.840 . S
C470 C40 1.840 . S
C505 C295 1.840 . S
C520 C43 1.841 . S
C555 C252 1.840 . S
C570 C57 1.841 . S
C605 C267 1.841 . S
C620 C71 1.840 . S
C655 C281 1.841 . S
C670 C85 1.841 . S
C705 C110 1.840 . S
C720 C239 1.841 . S
C755 C182 1.840 . S
C770 C125 1.841 . S
C805 C197 1.841 . S
C820 C138 1.839 . S
C855 C140 1.840 . S
C870 C211 1.841 . S
C905 C167 1.841 . S
C920 C181 1.840 . S
C955 C98 1.840 . S
C970 C209 1.840 . S
C1005 C223 1.841 . S
C1020 C69 1.841 . S
C1055 C83 1.840 . S
C1070 C169 1.841 . S
C1105 C194 1.839 . S
C1120 C97 1.841 . S
C1155 C152 1.840 . S
C1170 C15 1.841 . S
C1205 C28 1.840 . S
C1220 C155 1.841 . S
C1255 C55 1.840 . S
C1270 C113 1.840 . S
C1305 C1 1.840 . S
C1320 C126 1.840 . S
C1355 C293 1.840 . S
C1370 C307 1.840 . S
C1405 C309 1.840 . S
C1420 C251 1.841 . S
C1455 C264 1.840 . S
C1470 C225 1.841 . S
C1505 C322 1.840 . S
C1520 C279 1.840 . S
C1555 C12 0.915 . S
C1570 C112 0.916 . S
C1605 C127 0.916 . S
C1620 C26 0.917 . S
C1655 C41 0.916 . S
C1670 C153 0.915 . S
C1705 C42 0.916 . S
C1720 C154 0.917 . S
C1755 C56 0.915 . S
C1770 C168 0.915 . S
C1805 C70 0.915 . S
C1820 C195 0.917 . S
C1855 C208 0.915 . S
C1870 C84 0.915 . S
C1905 C222 0.916 . S
C1920 C111 0.917 . S
C1955 C124 0.915 . S
C1970 C224 0.915 . S
C2005 C139 0.916 . S
C2020 C323 0.915 . S
C2055 C306 0.915 . S
C2070 C141 0.917 . S
C2105 C308 0.916 . S
C2120 C166 0.917 . S
C2155 C250 0.917 . S
C2170 C180 0.915 . S
C2205 C265 0.917 . S
C2220 C183 0.916 . S
C2255 C196 0.915 . S
C2270 C278 0.917 . S
C2305 C210 0.915 . S
C2320 C292 0.915 . S
C2355 C0 0.915 . S
C2370 C236 0.916 . S
C2405 C238 0.915 . S
C2420 C68 0.916 . S
C2455 C253 0.915 . S
C2470 C82 0.915 . S
C2505 C266 0.915 . S
C2520 C96 0.917 . S
C2555 C280 0.915 . S
C2570 C99 0.916 . S
C2605 C294 0.915 . S
C2620 C29 0.917 . S
C2655 C54 0.915 . S
C2670 C320 0.916 . S
C2705 C335 0.917 . S
C2720 C14 0.917 . S
