# Generated by pormake.
# Topology wmc, (6)-cn, num edge types: 1
# Building blocks:
#     Node 0, Type 0, BuildingBlock: UKALOJ_clean_sbu_0, # of connection points: 6
#     Node 1, Type 0, BuildingBlock: UKALOJ_clean_sbu_0, # of connection points: 6
#     Node 2, Type 0, BuildingBlock: UKALOJ_clean_sbu_0, # of connection points: 6
#     Node 3, Type 0, BuildingBlock: UKALOJ_clean_sbu_0, # of connection points: 6
#     Node 4, Type 0, BuildingBlock: UKALOJ_clean_sbu_0, # of connection points: 6
#     Node 5, Type 0, BuildingBlock: UKALOJ_clean_sbu_0, # of connection points: 6
#     Node 6, Type 0, BuildingBlock: UKALOJ_clean_sbu_0, # of connection points: 6
#     Node 7, Type 0, BuildingBlock: UKALOJ_clean_sbu_0, # of connection points: 6
#     Node 8, Type 0, BuildingBlock: UKALOJ_clean_sbu_0, # of connection points: 6
#     Node 9, Type 0, BuildingBlock: UKALOJ_clean_sbu_0, # of connection points: 6
#     Node 10, Type 0, BuildingBlock: UKALOJ_clean_sbu_0, # of connection points: 6
#     Node 11, Type 0, BuildingBlock: UKALOJ_clean_sbu_0, # of connection points: 6
#     Node 12, Type 0, BuildingBlock: UKALOJ_clean_sbu_0, # of connection points: 6
#     Node 13, Type 0, BuildingBlock: UKALOJ_clean_sbu_0, # of connection points: 6
#     Node 14, Type 0, BuildingBlock: UKALOJ_clean_sbu_0, # of connection points: 6
#     Node 15, Type 0, BuildingBlock: UKALOJ_clean_sbu_0, # of connection points: 6
#     Node 16, Type 0, BuildingBlock: UKALOJ_clean_sbu_0, # of connection points: 6
#     Node 17, Type 0, BuildingBlock: UKALOJ_clean_sbu_0, # of connection points: 6
#     Edge 18, Type (0, 0), BuildingBlock: UVAHIK_clean_linker_0, # of connection points: 2
#     Edge 19, Type (0, 0), BuildingBlock: UVAHIK_clean_linker_0, # of connection points: 2
#     Edge 20, Type (0, 0), BuildingBlock: UVAHIK_clean_linker_0, # of connection points: 2
#     Edge 21, Type (0, 0), BuildingBlock: UVAHIK_clean_linker_0, # of connection points: 2
#     Edge 22, Type (0, 0), BuildingBlock: UVAHIK_clean_linker_0, # of connection points: 2
#     Edge 23, Type (0, 0), BuildingBlock: UVAHIK_clean_linker_0, # of connection points: 2
#     Edge 24, Type (0, 0), BuildingBlock: UVAHIK_clean_linker_0, # of connection points: 2
#     Edge 25, Type (0, 0), BuildingBlock: UVAHIK_clean_linker_0, # of connection points: 2
#     Edge 26, Type (0, 0), BuildingBlock: UVAHIK_clean_linker_0, # of connection points: 2
#     Edge 27, Type (0, 0), BuildingBlock: UVAHIK_clean_linker_0, # of connection points: 2
#     Edge 28, Type (0, 0), BuildingBlock: UVAHIK_clean_linker_0, # of connection points: 2
#     Edge 29, Type (0, 0), BuildingBlock: UVAHIK_clean_linker_0, # of connection points: 2
#     Edge 30, Type (0, 0), BuildingBlock: UVAHIK_clean_linker_0, # of connection points: 2
#     Edge 31, Type (0, 0), BuildingBlock: UVAHIK_clean_linker_0, # of connection points: 2
#     Edge 32, Type (0, 0), BuildingBlock: UVAHIK_clean_linker_0, # of connection points: 2
#     Edge 33, Type (0, 0), BuildingBlock: UVAHIK_clean_linker_0, # of connection points: 2
#     Edge 34, Type (0, 0), BuildingBlock: UVAHIK_clean_linker_0, # of connection points: 2
#     Edge 35, Type (0, 0), BuildingBlock: UVAHIK_clean_linker_0, # of connection points: 2
#     Edge 36, Type (0, 0), BuildingBlock: UVAHIK_clean_linker_0, # of connection points: 2
#     Edge 37, Type (0, 0), BuildingBlock: UVAHIK_clean_linker_0, # of connection points: 2
#     Edge 38, Type (0, 0), BuildingBlock: UVAHIK_clean_linker_0, # of connection points: 2
#     Edge 39, Type (0, 0), BuildingBlock: UVAHIK_clean_linker_0, # of connection points: 2
#     Edge 40, Type (0, 0), BuildingBlock: UVAHIK_clean_linker_0, # of connection points: 2
#     Edge 41, Type (0, 0), BuildingBlock: UVAHIK_clean_linker_0, # of connection points: 2
#     Edge 42, Type (0, 0), BuildingBlock: UVAHIK_clean_linker_0, # of connection points: 2
#     Edge 43, Type (0, 0), BuildingBlock: UVAHIK_clean_linker_0, # of connection points: 2
#     Edge 44, Type (0, 0), BuildingBlock: UVAHIK_clean_linker_0, # of connection points: 2
#     Edge 45, Type (0, 0), BuildingBlock: UVAHIK_clean_linker_0, # of connection points: 2
#     Edge 46, Type (0, 0), BuildingBlock: UVAHIK_clean_linker_0, # of connection points: 2
#     Edge 47, Type (0, 0), BuildingBlock: UVAHIK_clean_linker_0, # of connection points: 2
#     Edge 48, Type (0, 0), BuildingBlock: UVAHIK_clean_linker_0, # of connection points: 2
#     Edge 49, Type (0, 0), BuildingBlock: UVAHIK_clean_linker_0, # of connection points: 2
#     Edge 50, Type (0, 0), BuildingBlock: UVAHIK_clean_linker_0, # of connection points: 2
#     Edge 51, Type (0, 0), BuildingBlock: UVAHIK_clean_linker_0, # of connection points: 2
#     Edge 52, Type (0, 0), BuildingBlock: UVAHIK_clean_linker_0, # of connection points: 2
#     Edge 53, Type (0, 0), BuildingBlock: UVAHIK_clean_linker_0, # of connection points: 2
#     Edge 54, Type (0, 0), BuildingBlock: UVAHIK_clean_linker_0, # of connection points: 2
#     Edge 55, Type (0, 0), BuildingBlock: UVAHIK_clean_linker_0, # of connection points: 2
#     Edge 56, Type (0, 0), BuildingBlock: UVAHIK_clean_linker_0, # of connection points: 2
#     Edge 57, Type (0, 0), BuildingBlock: UVAHIK_clean_linker_0, # of connection points: 2
#     Edge 58, Type (0, 0), BuildingBlock: UVAHIK_clean_linker_0, # of connection points: 2
#     Edge 59, Type (0, 0), BuildingBlock: UVAHIK_clean_linker_0, # of connection points: 2
#     Edge 60, Type (0, 0), BuildingBlock: UVAHIK_clean_linker_0, # of connection points: 2
#     Edge 61, Type (0, 0), BuildingBlock: UVAHIK_clean_linker_0, # of connection points: 2
#     Edge 62, Type (0, 0), BuildingBlock: UVAHIK_clean_linker_0, # of connection points: 2
#     Edge 63, Type (0, 0), BuildingBlock: UVAHIK_clean_linker_0, # of connection points: 2
#     Edge 64, Type (0, 0), BuildingBlock: UVAHIK_clean_linker_0, # of connection points: 2
#     Edge 65, Type (0, 0), BuildingBlock: UVAHIK_clean_linker_0, # of connection points: 2
#     Edge 66, Type (0, 0), BuildingBlock: UVAHIK_clean_linker_0, # of connection points: 2
#     Edge 67, Type (0, 0), BuildingBlock: UVAHIK_clean_linker_0, # of connection points: 2
#     Edge 68, Type (0, 0), BuildingBlock: UVAHIK_clean_linker_0, # of connection points: 2
#     Edge 69, Type (0, 0), BuildingBlock: UVAHIK_clean_linker_0, # of connection points: 2
#     Edge 70, Type (0, 0), BuildingBlock: UVAHIK_clean_linker_0, # of connection points: 2
#     Edge 71, Type (0, 0), BuildingBlock: UVAHIK_clean_linker_0, # of connection points: 2
# Relax obj value: 0.381
# Max RMSD: 0.229
# Mean RMSD: 0.229
data_MOF--net-wmc--node1-UKALOJ_clean_sbu_0--edge1-UVAHIK_clean_linker_0
_symmetry_space_group_name_H-M    P1
_symmetry_Int_Tables_number       1
_symmetry_cell_setting            triclinic
loop_
_symmetry_equiv_pos_as_xyz
'x, y, z'
_cell_length_a     64.960385
_cell_length_b     64.967363
_cell_length_c     37.242818
_cell_angle_alpha  90.046293
_cell_angle_beta   90.051402
_cell_angle_gamma 120.07551
loop_
_atom_site_label
_atom_site_type_symbol
_atom_site_fract_x
_atom_site_fract_y
_atom_site_fract_z
_atom_type_partial_charge
Zn0 Zn 0.59206 0.10296 0.00945 0.0
O1 O 0.56466 0.11228 0.00212 0.0
C2 C 0.60917 0.12178 0.93643 0.0
Zn3 Zn 0.6178 0.14209 0.01015 0.0
C4 C 0.56969 0.13386 0.00175 0.0
O5 O 0.59108 0.15033 0.00474 0.0
C6 C 0.64169 0.1131 0.01954 0.0
O7 O 0.61416 0.1427 0.0666 0.0
O8 O 0.58792 0.10441 0.0652 0.0
N9 N 0.64228 0.17753 0.00814 0.0
C10 C 0.66417 0.19105 0.02236 0.0
C11 C 0.65786 0.21305 0.98695 0.0
N12 N 0.63841 0.19128 0.98627 0.0
N13 N 0.67445 0.21346 0.00918 0.0
C14 C 0.54733 0.05586 0.98454 0.0
C15 C 0.54038 0.03262 0.02889 0.0
N16 N 0.56543 0.06746 0.00818 0.0
N17 N 0.56104 0.05289 0.03566 0.0
N18 N 0.53151 0.03398 -0.00317 0.0
H19 H 0.52475 0.06023 0.94644 0.0
H20 H 0.55012 0.06021 0.92759 0.0
H21 H 0.55377 0.08598 0.95097 0.0
C22 C 0.54388 0.06638 0.95072 0.0
C23 C 0.67468 0.18249 0.05038 0.0
H24 H 0.66048 0.16783 0.06623 0.0
H25 H 0.68648 0.19723 0.06868 0.0
H26 H 0.68532 0.17564 0.0371 0.0
O27 O 0.64456 0.13378 0.01566 0.0
O28 O 0.62066 0.09505 0.01874 0.0
C29 C 0.59929 0.12374 0.08278 0.0
O30 O 0.5967 0.10246 0.95336 0.0
O31 O 0.62021 0.14111 0.95388 0.0
Zn32 Zn 0.90441 0.49218 0.01662 0.0
O33 O 0.89015 0.45421 0.01273 0.0
C34 C 0.88452 0.48846 0.94417 0.0
Zn35 Zn 0.86699 0.48464 0.01893 0.0
C36 C 0.86808 0.44006 0.01765 0.0
O37 O 0.85426 0.44829 0.02193 0.0
C38 C 0.90216 0.5366 0.02028 0.0
O39 O 0.86847 0.4858 0.07567 0.0
O40 O 0.9039 0.48922 0.07264 0.0
N41 N 0.83237 0.47758 0.01901 0.0
C42 C 0.8217 0.49067 0.02399 0.0
C43 C 0.79491 0.45609 0.00715 0.0
N44 N 0.81558 0.4561 0.00885 0.0
N45 N 0.7982 0.47753 0.01662 0.0
C46 C 0.94802 0.4881 0.99116 0.0
C47 C 0.97297 0.50462 0.03369 0.0
N48 N 0.93831 0.49674 0.01464 0.0
N49 N 0.95392 0.50703 0.041 0.0
N50 N 0.96976 0.49294 0.00242 0.0
H51 H 0.94094 0.45986 0.95377 0.0
H52 H 0.94112 0.48533 0.93475 0.0
H53 H 0.91616 0.46441 0.96085 0.0
C54 C 0.9357 0.47347 0.95851 0.0
C55 C 0.83464 0.51668 0.0329 0.0
H56 H 0.84775 0.52036 0.05463 0.0
H57 H 0.82243 0.52298 0.04144 0.0
H58 H 0.84424 0.52689 0.00869 0.0
O59 O 0.88037 0.52114 0.01648 0.0
O60 O 0.9176 0.52998 0.02232 0.0
C61 C 0.88642 0.48683 0.09125 0.0
O62 O 0.90398 0.49499 0.96055 0.0
O63 O 0.86578 0.48262 0.96217 0.0
Zn64 Zn 0.52095 0.41443 0.99094 0.0
O65 O 0.558 0.4403 0.9846 0.0
C66 C 0.52234 0.39453 0.91975 0.0
Zn67 Zn 0.5319 0.38693 0.99501 0.0
C68 C 0.5737 0.43414 0.98438 0.0
O69 O 0.56754 0.41245 0.98817 0.0
C70 C 0.47939 0.36593 0.00323 0.0
O71 O 0.53606 0.39286 0.05192 0.0
O72 O 0.52571 0.42017 0.04571 0.0
N73 N 0.54159 0.36154 -0.00286 0.0
C74 C 0.53164 0.33955 0.01148 0.0
C75 C 0.56198 0.34513 0.98161 0.0
N76 N 0.56046 0.36495 0.97873 0.0
N77 N 0.54405 0.32881 0.00185 0.0
C78 C 0.52419 0.46198 0.96749 0.0
C79 C 0.49628 0.46246 -0.00327 0.0
N80 N 0.51289 0.44139 0.98615 0.0
N81 N 0.4955 0.44173 0.00421 0.0
N82 N 0.51429 0.47556 0.97397 0.0
H83 H 0.54327 0.45245 0.92955 0.0
H84 H 0.56138 0.47885 0.9557 0.0
H85 H 0.54356 0.47972 0.91954 0.0
C86 C 0.54414 0.46846 0.94147 0.0
C87 C 0.51074 0.32935 0.03638 0.0
H88 H 0.51052 0.34371 0.0522 0.0
H89 H 0.51132 0.3163 0.05495 0.0
H90 H 0.49409 0.32016 0.02042 0.0
O91 O 0.49617 0.36136 0.00119 0.0
O92 O 0.48394 0.38738 -4e-05 0.0
C93 C 0.53284 0.40906 0.06549 0.0
O94 O 0.51691 0.40864 0.93505 0.0
O95 O 0.52868 0.38244 0.93877 0.0
Zn96 Zn 0.90353 0.41603 0.51632 0.0
O97 O 0.89194 0.44189 0.51257 0.0
C98 C 0.88314 0.40067 0.44388 0.0
Zn99 Zn 0.86535 0.388 0.51865 0.0
C100 C 0.87016 0.43539 0.51734 0.0
O101 O 0.85519 0.41356 0.52139 0.0
C102 C 0.8972 0.36737 0.52011 0.0
O103 O 0.86681 0.38851 0.57538 0.0
O104 O 0.90338 0.41879 0.57238 0.0
N105 N 0.83019 0.36253 0.51882 0.0
C106 C 0.81782 0.33958 0.52929 0.0
C107 C 0.79298 0.34848 0.50727 0.0
N108 N 0.81467 0.36796 0.50521 0.0
N109 N 0.79442 0.33038 0.5222 0.0
C110 C 0.94873 0.46241 0.49074 0.0
C111 C 0.97349 0.46966 0.53313 0.0
N112 N 0.93837 0.44396 0.51401 0.0
N113 N 0.95387 0.44855 0.54026 0.0
N114 N 0.97077 0.47866 0.50206 0.0
H115 H 0.94259 0.48466 0.45435 0.0
H116 H 0.9421 0.45931 0.43424 0.0
H117 H 0.91726 0.45553 0.46031 0.0
C118 C 0.93682 0.4656 0.45833 0.0
C119 C 0.8285 0.32679 0.54815 0.0
H120 H 0.8436 0.33932 0.56528 0.0
H121 H 0.81503 0.31213 0.56496 0.0
H122 H 0.83526 0.31912 0.52786 0.0
O123 O 0.87579 0.3625 0.51649 0.0
O124 O 0.91382 0.3891 0.52187 0.0
C125 C 0.88536 0.40468 0.59098 0.0
O126 O 0.90278 0.4126 0.46029 0.0
O127 O 0.86417 0.38869 0.46187 0.0
Zn128 Zn 0.59512 0.49001 0.49883 0.0
O129 O 0.5722 0.45205 0.4912 0.0
C130 C 0.61165 0.49343 0.42322 0.0
Zn131 Zn 0.62567 0.4835 0.49352 0.0
C132 C 0.58088 0.43868 0.48492 0.0
O133 O 0.60324 0.44762 0.48419 0.0
C134 C 0.64176 0.53457 0.50846 0.0
O135 O 0.62271 0.47651 0.55038 0.0
O136 O 0.59338 0.48423 0.55357 0.0
N137 N 0.65413 0.47849 0.48847 0.0
C138 C 0.67564 0.48854 0.50453 0.0
C139 C 0.67591 0.46673 0.46188 0.0
N140 N 0.65433 0.46487 0.46214 0.0
N141 N 0.68959 0.48148 0.48817 0.0
C142 C 0.5445 0.48211 0.48267 0.0
C143 C 0.54342 0.50952 0.51253 0.0
N144 N 0.56553 0.49429 0.50017 0.0
N145 N 0.56478 0.51134 0.51868 0.0
N146 N 0.53031 0.49116 0.49027 0.0
H147 H 0.52962 0.44511 0.47098 0.0
H148 H 0.52545 0.46164 0.43592 0.0
H149 H 0.55415 0.46438 0.44242 0.0
C150 C 0.53821 0.4623 0.45636 0.0
C151 C 0.68367 0.50693 0.53361 0.0
H152 H 0.66834 0.5049 0.54943 0.0
H153 H 0.69656 0.50573 0.55176 0.0
H154 H 0.69273 0.52485 0.52117 0.0
O155 O 0.64838 0.51959 0.50223 0.0
O156 O 0.61959 0.52778 0.50862 0.0
C157 C 0.60703 0.47815 0.5688 0.0
O158 O 0.59698 0.49547 0.44322 0.0
O159 O 0.62702 0.48934 0.4374 0.0
Zn160 Zn 0.52498 0.14034 0.509 0.0
O161 O 0.53069 0.13935 0.56517 0.0
C162 C 0.47301 0.10725 0.52036 0.0
Zn163 Zn 0.51538 0.10211 0.5071 0.0
C164 C 0.52787 0.1206 0.58052 0.0
O165 O 0.52077 0.1017 0.56227 0.0
C166 C 0.51434 0.12224 0.43505 0.0
O167 O 0.5528 0.11462 0.49943 0.0
O168 O 0.56056 0.15161 0.49981 0.0
N169 N 0.50883 0.06757 0.50272 0.0
C170 C 0.51605 0.05741 0.47775 0.0
C171 C 0.50011 0.0324 0.52024 0.0
N172 N 0.49888 0.05192 0.52903 0.0
N173 N 0.51069 0.03535 0.48806 0.0
C174 C 0.52205 0.18674 0.5036 0.0
C175 C 0.55579 0.21253 0.52473 0.0
N176 N 0.53352 0.17511 0.51334 0.0
N177 N 0.55443 0.19118 0.52657 0.0
N178 N 0.53562 0.21018 0.51066 0.0
H179 H 0.48418 0.1694 0.50628 0.0
H180 H 0.49673 0.18835 0.4678 0.0
H181 H 0.49519 0.15981 0.46938 0.0
C182 C 0.49824 0.17543 0.48547 0.0
C183 C 0.52989 0.06953 0.4445 0.0
H184 H 0.54331 0.06415 0.43884 0.0
H185 H 0.51747 0.06396 0.42137 0.0
H186 H 0.53904 0.08908 0.44666 0.0
O187 O 0.51032 0.10336 0.45121 0.0
O188 O 0.52032 0.14099 0.45315 0.0
C189 C 0.56763 0.13674 0.49704 0.0
O190 O 0.48924 0.12886 0.51801 0.0
O191 O 0.4782 0.09081 0.5169 0.0
Zn192 Zn 0.26083 0.44183 0.34911 0.0
O193 O 0.2355 0.45424 0.34857 0.0
C194 C 0.27575 0.46428 0.27758 0.0
Zn195 Zn 0.28902 0.48005 0.35302 0.0
C196 C 0.24219 0.47598 0.35449 0.0
O197 O 0.26412 0.49083 0.35812 0.0
C198 C 0.30922 0.44759 0.35003 0.0
O199 O 0.28861 0.47679 0.40957 0.0
O200 O 0.25847 0.44012 0.40528 0.0
N201 N 0.31536 0.51506 0.35495 0.0
C202 C 0.33842 0.52638 0.3652 0.0
C203 C 0.33197 0.55197 0.33969 0.0
N204 N 0.3114 0.5311 0.33951 0.0
N205 N 0.34923 0.54956 0.3557 0.0
C206 C 0.21198 0.39851 0.32597 0.0
C207 C 0.21253 0.36869 0.34854 0.0
N208 N 0.2329 0.40701 0.3437 0.0
N209 N 0.23317 0.38838 0.35764 0.0
N210 N 0.19883 0.37463 0.32892 0.0
H211 H 0.19475 0.41908 0.32103 0.0
H212 H 0.19311 0.40265 0.28131 0.0
H213 H 0.22047 0.42912 0.29273 0.0
C214 C 0.20483 0.41323 0.30387 0.0
C215 C 0.35066 0.51428 0.38145 0.0
H216 H 0.33787 0.49846 0.39704 0.0
H217 H 0.36537 0.52642 0.39937 0.0
H218 H 0.35835 0.50862 0.35965 0.0
O219 O 0.31391 0.46901 0.34832 0.0
O220 O 0.28753 0.4309 0.3515 0.0
C221 C 0.27269 0.45781 0.42454 0.0
O222 O 0.26372 0.44435 0.29309 0.0
O223 O 0.2881 0.48283 0.29637 0.0
Zn224 Zn 0.57047 0.82469 0.32623 0.0
O225 O 0.56014 0.78757 0.32246 0.0
C226 C 0.5478 0.82015 0.25523 0.0
Zn227 Zn 0.53191 0.81316 0.33093 0.0
C228 C 0.53834 0.77164 0.32427 0.0
O229 O 0.52268 0.77758 0.32798 0.0
C230 C 0.56258 0.86585 0.33462 0.0
O231 O 0.53481 0.81182 0.38796 0.0
O232 O 0.57232 0.82188 0.38121 0.0
N233 N 0.4966 0.80243 0.33456 0.0
C234 C 0.48427 0.81236 0.34788 0.0
C235 C 0.45914 0.7788 0.32542 0.0
N236 N 0.4809 0.78158 0.32071 0.0
N237 N 0.46074 0.79786 0.34235 0.0
C238 C 0.61604 0.82496 0.299 0.0
C239 C 0.64127 0.84446 0.34003 0.0
N240 N 0.60557 0.83318 0.32176 0.0
N241 N 0.62138 0.8454 0.3471 0.0
N242 N 0.63842 0.83184 0.30985 0.0
H243 H 0.58446 0.80047 0.26855 0.0
H244 H 0.60856 0.79431 0.2671 0.0
H245 H 0.61052 0.81892 0.24252 0.0
C246 C 0.60397 0.80862 0.26778 0.0
C247 C 0.49513 0.83542 0.36802 0.0
H248 H 0.51051 0.83773 0.38414 0.0
H249 H 0.48191 0.83612 0.38605 0.0
H250 H 0.5015 0.85031 0.34857 0.0
O251 O 0.54131 0.84876 0.33331 0.0
O252 O 0.57976 0.86165 0.33259 0.0
C253 C 0.55447 0.81569 0.40143 0.0
O254 O 0.56774 0.82693 0.2703 0.0
O255 O 0.52944 0.81369 0.2745 0.0
Zn256 Zn 0.18135 0.74792 0.3394 0.0
O257 O 0.21893 0.7719 0.33122 0.0
C258 C 0.1784 0.72965 0.26501 0.0
Zn259 Zn 0.18959 0.7184 0.33699 0.0
C260 C 0.23309 0.76398 0.32664 0.0
O261 O 0.22528 0.7418 0.32756 0.0
C262 C 0.13805 0.70081 0.35099 0.0
O263 O 0.19655 0.7224 0.39356 0.0
O264 O 0.18781 0.75103 0.39456 0.0
N265 N 0.19589 0.6907 0.33339 0.0
C266 C 0.18626 0.66932 0.34967 0.0
C267 C 0.20882 0.66953 0.3079 0.0
N268 N 0.20999 0.69081 0.30762 0.0
N269 N 0.19405 0.65576 0.33401 0.0
C270 C 0.18396 0.79546 0.31695 0.0
C271 C 0.16928 0.8037 0.3621 0.0
N272 N 0.17647 0.7771 0.34023 0.0
N273 N 0.16734 0.78231 0.36823 0.0
N274 N 0.17954 0.81227 0.32997 0.0
H275 H 0.21106 0.81678 0.27827 0.0
H276 H 0.18448 0.79236 0.25989 0.0
H277 H 0.20568 0.78693 0.28241 0.0
C278 C 0.19717 0.79795 0.28266 0.0
C279 C 0.16769 0.661 0.37842 0.0
H280 H 0.16925 0.67624 0.39402 0.0
H281 H 0.16921 0.6484 0.39678 0.0
H282 H 0.14983 0.65151 0.3657 0.0
O283 O 0.15368 0.6949 0.34579 0.0
O284 O 0.14396 0.72276 0.34995 0.0
C285 C 0.19454 0.73824 0.41088 0.0
O286 O 0.1752 0.74436 0.2832 0.0
O287 O 0.18376 0.71579 0.28118 0.0
Zn288 Zn 0.53163 0.72009 0.82751 0.0
O289 O 0.52716 0.72083 0.88444 0.0
C290 C 0.56449 0.70065 0.8387 0.0
Zn291 Zn 0.56945 0.74846 0.83611 0.0
C292 C 0.54468 0.73415 0.90475 0.0
O293 O 0.56513 0.7473 0.8912 0.0
C294 C 0.5566 0.73603 0.75885 0.0
O295 O 0.556 0.7729 0.83378 0.0
O296 O 0.5199 0.74419 0.82128 0.0
N297 N 0.60387 0.77718 0.83989 0.0
C298 C 0.61347 0.79904 0.82486 0.0
C299 C 0.6411 0.79799 0.85411 0.0
N300 N 0.62114 0.77662 0.85804 0.0
N301 N 0.63668 0.81246 0.83367 0.0
C302 C 0.48507 0.67106 0.83566 0.0
C303 C 0.46412 0.67264 0.79277 0.0
N304 N 0.49762 0.69277 0.82054 0.0
N305 N 0.48449 0.69372 0.79404 0.0
N306 N 0.46408 0.65815 0.81858 0.0
H307 H 0.50932 0.67627 0.87919 0.0
H308 H 0.47994 0.65065 0.88379 0.0
H309 H 0.50034 0.65013 0.85202 0.0
C310 C 0.49426 0.66167 0.8645 0.0
C311 C 0.60071 0.80693 0.79967 0.0
H312 H 0.593 0.81599 0.81532 0.0
H313 H 0.61319 0.81973 0.77966 0.0
H314 H 0.5862 0.79178 0.78516 0.0
O315 O 0.57328 0.74937 0.78011 0.0
O316 O 0.53661 0.72067 0.77158 0.0
C317 C 0.5344 0.76607 0.82638 0.0
O318 O 0.54332 0.69596 0.83315 0.0
O319 O 0.58111 0.72234 0.84081 0.0
Zn320 Zn 0.25986 0.82222 0.83877 0.0
O321 O 0.23395 0.78487 0.83442 0.0
C322 C 0.27822 0.81938 0.76606 0.0
Zn323 Zn 0.28723 0.81093 0.84058 0.0
C324 C 0.24004 0.7691 0.83336 0.0
O325 O 0.26181 0.77519 0.83525 0.0
C326 C 0.3082 0.86384 0.84759 0.0
O327 O 0.28239 0.80772 0.8975 0.0
O328 O 0.2556 0.8189 0.89434 0.0
N329 N 0.31313 0.80181 0.84348 0.0
C330 C 0.33517 0.81271 0.85787 0.0
C331 C 0.32997 0.7811 0.83224 0.0
N332 N 0.30993 0.78213 0.82772 0.0
N333 N 0.3461 0.80012 0.851 0.0
C334 C 0.21406 0.82132 0.81095 0.0
C335 C 0.20659 0.83908 0.85263 0.0
N336 N 0.23226 0.8294 0.83472 0.0
N337 N 0.22756 0.84049 0.86051 0.0
N338 N 0.19782 0.82725 0.82152 0.0
H339 H 0.19206 0.79237 0.77516 0.0
H340 H 0.21686 0.81744 0.7545 0.0
H341 H 0.22159 0.7971 0.78088 0.0
C342 C 0.21105 0.80607 0.77881 0.0
C343 C 0.34547 0.83483 0.88031 0.0
H344 H 0.3313 0.83543 0.89607 0.0
H345 H 0.35921 0.83565 0.89894 0.0
H346 H 0.35397 0.85061 0.86249 0.0
O347 O 0.31254 0.84692 0.84513 0.0
O348 O 0.28673 0.85941 0.84577 0.0
C349 C 0.2673 0.81185 0.91288 0.0
O350 O 0.26462 0.82513 0.78229 0.0
O351 O 0.29071 0.81313 0.78427 0.0
Zn352 Zn 0.19087 0.47576 0.85015 0.0
O353 O 0.1906 0.47533 0.90701 0.0
C354 C 0.13886 0.44096 0.8538 0.0
Zn355 Zn 0.18307 0.43834 0.84925 0.0
C356 C 0.18999 0.45775 0.92315 0.0
O357 O 0.18726 0.4399 0.90512 0.0
C358 C 0.18579 0.45675 0.77608 0.0
O359 O 0.22094 0.45252 0.84371 0.0
O360 O 0.2272 0.48859 0.85224 0.0
N361 N 0.17823 0.40426 0.84788 0.0
C362 C 0.19018 0.39565 0.82926 0.0
C363 C 0.16446 0.3673 0.86131 0.0
N364 N 0.16224 0.38656 0.86775 0.0
N365 N 0.18205 0.37257 0.83751 0.0
C366 C 0.18542 0.52087 0.85887 0.0
C367 C 0.2169 0.54683 0.83239 0.0
N368 N 0.19776 0.51014 0.84902 0.0
N369 N 0.21736 0.52638 0.83286 0.0
N370 N 0.19708 0.54392 0.84856 0.0
H371 H 0.15975 0.49439 0.89438 0.0
H372 H 0.15685 0.52046 0.8897 0.0
H373 H 0.14772 0.49936 0.8538 0.0
C374 C 0.16113 0.50816 0.87538 0.0
C375 C 0.20899 0.40942 0.80166 0.0
H376 H 0.22677 0.41738 0.81454 0.0
H377 H 0.20823 0.39756 0.77962 0.0
H378 H 0.20713 0.42397 0.78993 0.0
O379 O 0.17904 0.43758 0.79333 0.0
O380 O 0.19215 0.47591 0.79329 0.0
C381 C 0.23529 0.47463 0.84793 0.0
O382 O 0.15432 0.46259 0.84852 0.0
O383 O 0.14543 0.42551 0.85652 0.0
Zn384 Zn 0.92755 0.77053 0.67517 0.0
O385 O 0.90336 0.78422 0.67326 0.0
C386 C 0.94375 0.79207 0.60344 0.0
Zn387 Zn 0.95726 0.80813 0.67891 0.0
C388 C 0.91109 0.80616 0.67914 0.0
O389 O 0.9332 0.82014 0.68307 0.0
C390 C 0.97485 0.77373 0.6778 0.0
O391 O 0.9567 0.80557 0.73553 0.0
O392 O 0.92512 0.76984 0.73133 0.0
N393 N 0.98444 0.84294 0.68052 0.0
C394 C 0.00813 0.85394 0.68666 0.0
C395 C 1.00003 0.88051 0.67017 0.0
N396 N 0.97954 0.85959 0.67057 0.0
N397 N 0.01826 0.87753 0.68024 0.0
C398 C 0.87982 0.72694 0.64865 0.0
C399 C 0.87199 0.70122 0.68963 0.0
N400 N 0.8984 0.73637 0.67184 0.0
N401 N 0.89344 0.72028 0.69722 0.0
N402 N 0.8631 0.70489 0.65915 0.0
H403 H 0.85816 0.73468 0.61341 0.0
H404 H 0.88307 0.73471 0.59253 0.0
H405 H 0.88773 0.75929 0.62018 0.0
C406 C 0.87709 0.7398 0.61715 0.0
C407 C 0.0214 0.84127 0.69577 0.0
H408 H 0.01155 0.82755 0.71652 0.0
H409 H 0.0396 0.85357 0.70563 0.0
H410 H 0.02292 0.83239 0.67129 0.0
O411 O 0.98089 0.7955 0.67533 0.0
O412 O 0.95282 0.75796 0.67919 0.0
C413 C 0.93994 0.78719 0.75052 0.0
O414 O 0.93074 0.77227 0.6189 0.0
O415 O 0.95667 0.81041 0.62232 0.0
Zn416 Zn 0.23665 0.15775 0.6765 0.0
O417 O 0.22351 0.12017 0.66971 0.0
C418 C 0.21874 0.15903 0.6029 0.0
Zn419 Zn 0.19851 0.14842 0.67565 0.0
C420 C 0.20147 0.1054 0.66567 0.0
O421 O 0.18666 0.11265 0.6664 0.0
C422 C 0.2322 0.20041 0.68825 0.0
O423 O 0.19782 0.14243 0.73225 0.0
O424 O 0.2356 0.15265 0.73158 0.0
N425 N 0.16395 0.14085 0.67718 0.0
C426 C 0.15334 0.15309 0.66629 0.0
C427 C 0.12609 0.11952 0.68565 0.0
N428 N 0.14697 0.12004 0.68929 0.0
N429 N 0.12965 0.14012 0.67151 0.0
C430 C 0.28129 0.15545 0.65131 0.0
C431 C 0.3053 0.17119 0.69514 0.0
N432 N 0.27096 0.16341 0.6748 0.0
N433 N 0.286 0.17326 0.70193 0.0
N434 N 0.30284 0.16019 0.66342 0.0
H435 H 0.25018 0.13308 0.61852 0.0
H436 H 0.27446 0.12744 0.61367 0.0
H437 H 0.27636 0.15366 0.59444 0.0
C438 C 0.26972 0.14148 0.61782 0.0
C439 C 0.16593 0.17707 0.64876 0.0
H440 H 0.17195 0.191 0.66984 0.0
H441 H 0.15385 0.17937 0.63022 0.0
H442 H 0.1817 0.1796 0.63367 0.0
O443 O 0.21057 0.18436 0.68486 0.0
O444 O 0.24853 0.19502 0.68572 0.0
C445 C 0.21635 0.14556 0.74878 0.0
O446 O 0.23704 0.16271 0.62052 0.0
O447 O 0.19957 0.15335 0.61955 0.0
Zn448 Zn 0.85358 0.08068 0.66684 0.0
O449 O 0.89047 0.10508 0.6531 0.0
C450 C 0.8481 0.05995 0.59466 0.0
Zn451 Zn 0.86317 0.05214 0.66686 0.0
C452 C 0.90514 0.09767 0.64954 0.0
O453 O 0.89819 0.07587 0.65438 0.0
C454 C 0.81189 0.03327 0.68455 0.0
O455 O 0.87194 0.05789 0.72288 0.0
O456 O 0.86356 0.08676 0.72063 0.0
N457 N 0.87036 0.02505 0.66367 0.0
C458 C 0.86164 0.00404 0.68084 0.0
C459 C 0.88275 0.00372 0.63724 0.0
N460 N 0.88361 0.02484 0.6368 0.0
N461 N 0.8691 0.99039 0.66462 0.0
C462 C 0.85389 0.12706 0.64358 0.0
C463 C 0.84122 0.13596 0.69044 0.0
N464 N 0.84763 0.10915 0.66736 0.0
N465 N 0.83968 0.11474 0.69638 0.0
N466 N 0.84996 0.14402 0.65739 0.0
H467 H 0.87985 0.14764 0.60317 0.0
H468 H 0.85206 0.12416 0.58639 0.0
H469 H 0.8731 0.11723 0.60583 0.0
C470 C 0.86553 0.12904 0.60793 0.0
C471 C 0.84422 0.99608 0.7112 0.0
H472 H 0.84534 0.01152 0.72566 0.0
H473 H 0.84752 0.98495 0.73028 0.0
H474 H 0.82597 0.98504 0.70031 0.0
O475 O 0.82807 0.02826 0.6785 0.0
O476 O 0.81682 0.05492 0.68245 0.0
C477 C 0.87105 0.07502 0.73806 0.0
O478 O 0.84427 0.0745 0.61208 0.0
O479 O 0.85542 0.04779 0.61134 0.0
Zn480 Zn 0.20131 0.05553 0.17678 0.0
O481 O 0.20193 0.0601 0.23358 0.0
C482 C 0.23462 0.03659 0.1852 0.0
Zn483 Zn 0.23963 0.08423 0.17631 0.0
C484 C 0.22058 0.07577 0.24963 0.0
O485 O 0.2395 0.08833 0.2318 0.0
C486 C 0.21989 0.0652 0.10319 0.0
O487 O 0.22695 0.10912 0.17085 0.0
O488 O 0.1899 0.07995 0.1707 0.0
N489 N 0.27417 0.11268 0.17324 0.0
C490 C 0.28437 0.13054 0.14899 0.0
C491 C 0.30923 0.13904 0.19164 0.0
N492 N 0.28973 0.11805 0.19967 0.0
N493 N 0.30637 0.14718 0.15985 0.0
C494 C 0.15551 0.00659 0.1922 0.0
C495 C 0.12884 0.0118 0.16751 0.0
N496 N 0.16648 0.02884 0.17859 0.0
N497 N 0.14983 0.03199 0.16337 0.0
N498 N 0.13195 0.99558 0.18545 0.0
H499 H 0.1818 0.01015 0.2307 0.0
H500 H 0.15462 0.98165 0.23136 0.0
H501 H 0.1756 0.98879 0.19538 0.0
C502 C 0.16754 0.9962 0.21383 0.0
C503 C 0.27235 0.13276 0.11598 0.0
H504 H 0.27799 0.15167 0.11076 0.0
H505 H 0.27771 0.12596 0.09258 0.0
H506 H 0.25279 0.12255 0.11817 0.0
O507 O 0.23877 0.07945 0.12004 0.0
O508 O 0.20097 0.05214 0.12068 0.0
C509 C 0.20484 0.10197 0.16896 0.0
O510 O 0.2131 0.03133 0.18197 0.0
O511 O 0.25113 0.05834 0.18411 0.0
Zn512 Zn 0.92906 0.15688 0.17349 0.0
O513 O 0.90305 0.11937 0.17058 0.0
C514 C 0.94583 0.15397 0.09929 0.0
Zn515 Zn 0.95642 0.1456 0.17245 0.0
C516 C 0.9092 0.10375 0.16699 0.0
O517 O 0.93105 0.11005 0.16631 0.0
C518 C 0.97791 0.19853 0.18026 0.0
O519 O 0.95181 0.14162 0.22947 0.0
O520 O 0.92609 0.15426 0.22902 0.0
N521 N 0.98223 0.13635 0.17391 0.0
C522 C 1.00401 0.14663 0.18912 0.0
C523 C 0.99933 0.11622 0.1603 0.0
N524 N 0.97935 0.1174 0.15615 0.0
N525 N 0.01509 0.1344 0.1808 0.0
C526 C 0.88062 0.15286 0.15281 0.0
C527 C 0.88154 0.1823 0.17949 0.0
N528 N 0.90174 0.16461 0.17018 0.0
N529 N 0.90225 0.18294 0.18668 0.0
N530 N 0.86757 0.16344 0.15854 0.0
H531 H 0.86293 0.11524 0.1443 0.0
H532 H 0.86146 0.13174 0.10669 0.0
H533 H 0.88865 0.13184 0.11633 0.0
C534 C 0.87314 0.13182 0.12852 0.0
C535 C 0.01393 0.16777 0.21363 0.0
H536 H 0.99947 0.16829 0.22864 0.0
H537 H 0.02671 0.16729 0.23294 0.0
H538 H 0.02357 0.18422 0.19744 0.0
O539 O 0.98186 0.18135 0.17778 0.0
O540 O 0.95649 0.19435 0.17885 0.0
C541 C 0.93754 0.14632 0.24622 0.0
O542 O 0.93214 0.15889 0.11704 0.0
O543 O 0.95953 0.14859 0.11599 0.0
Zn544 Zn 0.8635 0.8125 0.17361 0.0
O545 O 0.8667 0.81308 0.23084 0.0
C546 C 0.81116 0.77841 0.18091 0.0
Zn547 Zn 0.85449 0.77447 0.17554 0.0
C548 C 0.86375 0.79483 0.24798 0.0
O549 O 0.85798 0.77571 0.23104 0.0
C550 C 0.8558 0.79232 0.10102 0.0
O551 O 0.89232 0.78785 0.17168 0.0
O552 O 0.89963 0.82464 0.16927 0.0
N553 N 0.8491 0.74026 0.1746 0.0
C554 C 0.85733 0.72997 0.1515 0.0
C555 C 0.84071 0.7057 0.19467 0.0
N556 N 0.83874 0.72508 0.20136 0.0
N557 N 0.85217 0.70827 0.1634 0.0
C558 C 0.85932 0.85772 0.18714 0.0
C559 C 0.89036 0.88441 0.1607 0.0
N560 N 0.87078 0.84699 0.17343 0.0
N561 N 0.89007 0.86364 0.15708 0.0
N562 N 0.87122 0.88114 0.17937 0.0
H563 H 0.83744 0.83146 0.22632 0.0
H564 H 0.83603 0.85856 0.22774 0.0
H565 H 0.82148 0.8374 0.19209 0.0
C566 C 0.83736 0.84562 0.20982 0.0
C567 C 0.87191 0.74167 0.11862 0.0
H568 H 0.88536 0.73614 0.11434 0.0
H569 H 0.85999 0.73597 0.09488 0.0
H570 H 0.88117 0.76124 0.12032 0.0
O571 O 0.85114 0.77398 0.11923 0.0
O572 O 0.86129 0.81164 0.11716 0.0
C573 C 0.90708 0.81 0.16915 0.0
O574 O 0.82714 0.80001 0.17705 0.0
O575 O 0.81694 0.76231 0.18161 0.0
C576 C 0.54493 0.14563 0.96664 0.0
C577 C 0.55128 0.14049 -4e-05 0.0
C578 C 0.53446 0.15989 0.96484 0.0
C579 C 0.51215 0.19312 0.01925 0.0
H580 H 0.55352 0.24515 0.95641 0.0
C581 C 0.51589 0.28532 0.0041 0.0
C582 C 0.53914 0.30483 0.00718 0.0
C583 C 0.51196 0.26205 0.00342 0.0
C584 C 0.54169 0.23068 0.97386 0.0
H585 H 0.55036 0.14439 0.05749 0.0
H586 H 0.5321 0.16925 0.05458 0.0
H587 H 0.55298 0.20757 0.95228 0.0
H588 H 0.57626 0.3153 0.01295 0.0
H589 H 0.56948 0.27479 0.01131 0.0
H590 H 0.50175 0.21706 0.04172 0.0
C591 C 0.53468 0.16209 0.02981 0.0
C592 C 0.54111 0.20901 0.9712 0.0
C593 C 0.54514 0.14786 0.03155 0.0
C594 C 0.5582 0.30058 0.01065 0.0
C595 C 0.55433 0.27747 0.00957 0.0
C596 C 0.51255 0.21486 0.02163 0.0
C597 C 0.53052 0.16939 0.99638 0.0
C598 C 0.5269 0.1902 0.99457 0.0
C599 C 0.53126 0.25805 0.00508 0.0
C600 C 0.52797 0.23403 -0.00025 0.0
H601 H 0.54991 0.14039 0.94199 0.0
H602 H 0.53118 0.16499 0.93871 0.0
H603 H 0.50098 0.17891 0.03754 0.0
H604 H 0.50092 0.28802 0.00017 0.0
H605 H 0.49404 0.24731 -0.0003 0.0
C606 C 0.70141 0.25669 0.01138 0.0
C607 C 0.69801 0.23361 0.01389 0.0
C608 C 0.72424 0.27649 0.01125 0.0
C609 C 0.78414 0.30089 0.04112 0.0
H610 H 0.79918 0.34464 0.96147 0.0
C611 C 0.84354 0.40184 0.04872 0.0
C612 C 0.85804 0.41422 0.01947 0.0
C613 C 0.82968 0.37712 0.04792 0.0
C614 C 0.79553 0.3324 0.9835 0.0
H615 H 0.71629 0.2134 0.01744 0.0
H616 H 0.75629 0.24829 0.01943 0.0
H617 H 0.76241 0.30618 0.96041 0.0
H618 H 0.8705 0.41085 0.96716 0.0
H619 H 0.84544 0.36724 0.96511 0.0
H620 H 0.8165 0.32788 0.06536 0.0
C621 C 0.74104 0.25079 0.01758 0.0
C622 C 0.77442 0.31053 0.98302 0.0
C623 C 0.71811 0.23086 0.01701 0.0
C624 C 0.85957 0.40152 0.99014 0.0
C625 C 0.84522 0.37669 0.98894 0.0
C626 C 0.80512 0.323 0.0419 0.0
C627 C 0.74424 0.27371 0.01398 0.0
C628 C 0.76824 0.29492 0.01225 0.0
C629 C 0.82964 0.36438 0.01743 0.0
C630 C 0.81066 0.33921 0.0135 0.0
H631 H 0.68631 0.25937 0.00876 0.0
H632 H 0.7263 0.29405 0.00878 0.0
H633 H 0.77967 0.28909 0.06395 0.0
H634 H 0.84206 0.41141 0.07151 0.0
H635 H 0.81764 0.36816 0.07003 0.0
C636 C 0.61332 0.44734 0.95816 0.0
C637 C 0.59911 0.4517 0.98167 0.0
C638 C 0.63804 0.46085 0.96037 0.0
C639 C 0.68204 0.48528 0.02788 0.0
H640 H 0.72607 0.50727 0.94789 0.0
C641 C 0.77467 0.49454 0.04156 0.0
C642 C 0.78074 0.48474 0.01269 0.0
C643 C 0.75597 0.49929 0.03821 0.0
C644 C 0.71405 0.50122 0.97058 0.0
H645 H 0.59913 0.47395 0.02498 0.0
H646 H 0.64278 0.49718 0.02993 0.0
H647 H 0.68575 0.50021 0.93949 0.0
H648 H 0.77241 0.47229 0.95793 0.0
H649 H 0.73944 0.47974 0.95213 0.0
H650 H 0.70933 0.48408 0.0582 0.0
C651 C 0.63472 0.48371 0.00922 0.0
C652 C 0.69107 0.49742 0.96579 0.0
C653 C 0.60988 0.47056 0.0063 0.0
C654 C 0.76811 0.48007 0.98037 0.0
C655 C 0.74941 0.48463 0.97703 0.0
C656 C 0.70489 0.48869 0.03255 0.0
C657 C 0.64895 0.47853 0.98682 0.0
C658 C 0.6746 0.48854 0.99402 0.0
C659 C 0.74282 0.494 0.00603 0.0
C660 C 0.72083 0.49568 0.00348 0.0
H661 H 0.60529 0.43273 0.93917 0.0
H662 H 0.64858 0.45629 0.94312 0.0
H663 H 0.66956 0.47819 0.04999 0.0
H664 H 0.78387 0.49775 0.067 0.0
H665 H 0.75146 0.50657 0.06106 0.0
C666 C 0.73064 0.49928 0.46656 0.0
C667 C 0.71407 0.48873 0.49435 0.0
C668 C 0.7538 0.50343 0.47052 0.0
C669 C 0.79607 0.50141 0.53705 0.0
H670 H 0.81697 0.48046 0.45432 0.0
C671 C 0.8444 0.449 0.54461 0.0
C672 C 0.86174 0.45256 0.5191 0.0
C673 C 0.83307 0.46235 0.5434 0.0
C674 C 0.8118 0.48698 0.47741 0.0
H675 H 0.70833 0.47443 0.54802 0.0
H676 H 0.74858 0.48098 0.555 0.0
H677 H 0.78347 0.48702 0.44848 0.0
H678 H 0.8818 0.47348 0.47333 0.0
H679 H 0.86121 0.49658 0.47035 0.0
H680 H 0.82344 0.4995 0.56647 0.0
C681 C 0.74416 0.48688 0.53051 0.0
C682 C 0.79253 0.49076 0.47412 0.0
C683 C 0.72109 0.48302 0.52661 0.0
C684 C 0.86853 0.47058 0.49337 0.0
C685 C 0.85674 0.48367 0.49163 0.0
C686 C 0.8152 0.49739 0.54039 0.0
C687 C 0.76067 0.49663 0.50216 0.0
C688 C 0.78383 0.49714 0.50423 0.0
C689 C 0.8385 0.47924 0.51618 0.0
C690 C 0.82267 0.48928 0.5109 0.0
H691 H 0.7254 0.50374 0.44145 0.0
H692 H 0.76609 0.51131 0.44837 0.0
H693 H 0.79024 0.50688 0.56057 0.0
H694 H 0.83895 0.4352 0.56475 0.0
H695 H 0.81891 0.45831 0.56237 0.0
C696 C 0.51111 0.22932 0.51558 0.0
C697 C 0.53135 0.22928 0.50243 0.0
C698 C 0.50803 0.24889 0.50939 0.0
C699 C 0.5271 0.30076 0.45057 0.0
H700 H 0.5245 0.3344 0.53495 0.0
C701 C 0.57464 0.40098 0.45851 0.0
C702 C 0.56571 0.41286 0.47909 0.0
C703 C 0.56245 0.37628 0.45655 0.0
C704 C 0.52452 0.32497 0.51096 0.0
H705 H 0.56385 0.24893 0.4722 0.0
H706 H 0.55835 0.28291 0.46057 0.0
H707 H 0.51768 0.29397 0.54088 0.0
H708 H 0.53643 0.40836 0.51242 0.0
H709 H 0.51502 0.36462 0.5095 0.0
H710 H 0.535 0.33202 0.42083 0.0
C711 C 0.54485 0.26795 0.47561 0.0
C712 C 0.52069 0.30184 0.5144 0.0
C713 C 0.54813 0.24869 0.48241 0.0
C714 C 0.54364 0.39957 0.49632 0.0
C715 C 0.5315 0.37461 0.49479 0.0
C716 C 0.53073 0.32373 0.44708 0.0
C717 C 0.52492 0.26838 0.48933 0.0
C718 C 0.52309 0.29003 0.48449 0.0
C719 C 0.54106 0.36273 0.47538 0.0
C720 C 0.53071 0.33654 0.47751 0.0
H721 H 0.49813 0.21454 0.53144 0.0
H722 H 0.49261 0.24888 0.5204 0.0
H723 H 0.52869 0.29186 0.42701 0.0
H724 H 0.59155 0.4108 0.44478 0.0
H725 H 0.57054 0.36778 0.44181 0.0
C726 C 0.60674 0.14603 0.52211 0.0
C727 C 0.59317 0.14589 0.49272 0.0
C728 C 0.63139 0.16157 0.52255 0.0
C729 C 0.6711 0.22046 0.48667 0.0
H730 H 0.72097 0.2154 0.53608 0.0
C731 C 0.75265 0.30338 0.53722 0.0
C732 C 0.7747 0.30663 0.52616 0.0
C733 C 0.73218 0.28113 0.53459 0.0
C734 C 0.70721 0.21696 0.52204 0.0
H735 H 0.59435 0.15982 0.43961 0.0
H736 H 0.63743 0.18613 0.43951 0.0
H737 H 0.68254 0.17933 0.52408 0.0
H738 H 0.79289 0.28903 0.50479 0.0
H739 H 0.75686 0.24973 0.50044 0.0
H740 H 0.69527 0.25786 0.485 0.0
C741 C 0.6292 0.17482 0.4626 0.0
C742 C 0.68526 0.19639 0.51527 0.0
C743 C 0.60462 0.15961 0.46243 0.0
C744 C 0.77616 0.28686 0.51422 0.0
C745 C 0.75557 0.26445 0.51155 0.0
C746 C 0.69278 0.24084 0.49363 0.0
C747 C 0.64264 0.17705 0.49352 0.0
C748 C 0.6669 0.198 0.49773 0.0
C749 C 0.73329 0.26164 0.52051 0.0
C750 C 0.71092 0.23941 0.5119 0.0
H751 H 0.59809 0.13583 0.54598 0.0
H752 H 0.64118 0.16293 0.54682 0.0
H753 H 0.65728 0.22249 0.47375 0.0
H754 H 0.75115 0.31837 0.54653 0.0
H755 H 0.71529 0.27938 0.54222 0.0
C756 C 0.19353 0.62461 0.37197 0.0
C757 C 0.18705 0.63136 0.34016 0.0
C758 C 0.19003 0.60165 0.37557 0.0
C759 C 0.18536 0.55326 0.31807 0.0
H760 H 0.17954 0.52293 0.41005 0.0
C761 C 0.20641 0.4776 0.33323 0.0
C762 C 0.22515 0.48448 0.35778 0.0
C763 C 0.19328 0.48938 0.33292 0.0
C764 C 0.18084 0.53101 0.38409 0.0
H765 H 0.17089 0.61966 0.28793 0.0
H766 H 0.16384 0.57914 0.29441 0.0
H767 H 0.17162 0.55585 0.40573 0.0
H768 H 0.24374 0.50743 0.40289 0.0
H769 H 0.22059 0.52746 0.40296 0.0
H770 H 0.19533 0.52891 0.29676 0.0
C771 C 0.17214 0.59156 0.31636 0.0
C772 C 0.17651 0.54999 0.38164 0.0
C773 C 0.17598 0.61462 0.31266 0.0
C774 C 0.2294 0.50191 0.38361 0.0
C775 C 0.21602 0.51324 0.38381 0.0
C776 C 0.18942 0.53413 0.32048 0.0
C777 C 0.17982 0.58499 0.3474 0.0
C778 C 0.1797 0.56201 0.34888 0.0
C779 C 0.19839 0.5077 0.35773 0.0
C780 C 0.18816 0.52347 0.35378 0.0
H781 H 0.20244 0.63751 0.39318 0.0
H782 H 0.19656 0.59747 0.39962 0.0
H783 H 0.18828 0.56214 0.29244 0.0
H784 H 0.20295 0.46427 0.31297 0.0
H785 H 0.17977 0.48481 0.31251 0.0
C786 C 0.51492 0.73167 0.29736 0.0
C787 C 0.53067 0.74625 0.32411 0.0
C788 C 0.5022 0.70702 0.30171 0.0
C789 C 0.47354 0.66591 0.37325 0.0
H790 H 0.45561 0.61828 0.29865 0.0
C791 C 0.38796 0.57459 0.38584 0.0
C792 C 0.37412 0.56698 0.35449 0.0
C793 C 0.41165 0.59315 0.38444 0.0
C794 C 0.46036 0.63135 0.31981 0.0
H795 H 0.54634 0.74693 0.37568 0.0
H796 H 0.52356 0.70357 0.38383 0.0
H797 H 0.49061 0.65758 0.29057 0.0
H798 H 0.37391 0.57242 0.29732 0.0
H799 H 0.41473 0.60513 0.29473 0.0
H800 H 0.4424 0.6406 0.40131 0.0
C801 C 0.52146 0.71117 0.35918 0.0
C802 C 0.48052 0.65376 0.31524 0.0
C803 C 0.53459 0.73586 0.35442 0.0
C804 C 0.38437 0.57793 0.32175 0.0
C805 C 0.40787 0.59649 0.32032 0.0
C806 C 0.45318 0.64362 0.37761 0.0
C807 C 0.50457 0.69662 0.33337 0.0
C808 C 0.48683 0.67151 0.3414 0.0
C809 C 0.42179 0.60461 0.35169 0.0
C810 C 0.44581 0.62635 0.35032 0.0
H811 H 0.51138 0.73945 0.27411 0.0
H812 H 0.4891 0.6963 0.2816 0.0
H813 H 0.47783 0.67935 0.39369 0.0
H814 H 0.38021 0.56681 0.41154 0.0
H815 H 0.42183 0.59884 0.40913 0.0
C816 C 0.44178 0.82254 0.33749 0.0
C817 C 0.44106 0.80156 0.34883 0.0
C818 C 0.42095 0.82395 0.33696 0.0
C819 C 0.35769 0.78337 0.32435 0.0
H820 H 0.34853 0.83598 0.35088 0.0
C821 C 0.26988 0.77647 0.29233 0.0
C822 C 0.25871 0.77984 0.32204 0.0
C823 C 0.29439 0.78557 0.29248 0.0
C824 C 0.35092 0.82122 0.34325 0.0
H825 H 0.41877 0.76637 0.37057 0.0
H826 H 0.3825 0.76886 0.37031 0.0
H827 H 0.38712 0.83862 0.36204 0.0
H828 H 0.26411 0.79661 0.37406 0.0
H829 H 0.30713 0.81208 0.37495 0.0
H830 H 0.32176 0.76562 0.30635 0.0
C831 C 0.39895 0.78409 0.36133 0.0
C832 C 0.37296 0.82276 0.34955 0.0
C833 C 0.41964 0.78266 0.36169 0.0
C834 C 0.27254 0.79414 0.35066 0.0
C835 C 0.29713 0.80294 0.35114 0.0
C836 C 0.33591 0.7819 0.31791 0.0
C837 C 0.39918 0.80434 0.34759 0.0
C838 C 0.37637 0.80364 0.34062 0.0
C839 C 0.30804 0.79758 0.32286 0.0
C840 C 0.33216 0.8007 0.32739 0.0
H841 H 0.45803 0.83715 0.3268 0.0
H842 H 0.4216 0.83972 0.32606 0.0
H843 H 0.35989 0.76851 0.31657 0.0
H844 H 0.25943 0.7654 0.27005 0.0
H845 H 0.30239 0.78165 0.26991 0.0
C846 C 0.53153 0.7996 0.85395 0.0
C847 C 0.52525 0.78269 0.82645 0.0
C848 C 0.51846 0.81119 0.85893 0.0
C849 C 0.47359 0.82316 0.81782 0.0
H850 H 0.44238 0.80576 0.91059 0.0
C851 C 0.37513 0.78885 0.87076 0.0
C852 C 0.37026 0.80613 0.8575 0.0
C853 C 0.39852 0.79341 0.87262 0.0
C854 C 0.4512 0.8111 0.8848 0.0
H855 H 0.50203 0.76602 0.78087 0.0
H856 H 0.4798 0.78674 0.78873 0.0
H857 H 0.47766 0.80231 0.89998 0.0
H858 H 0.38574 0.84175 0.83595 0.0
H859 H 0.42685 0.84974 0.83867 0.0
H860 H 0.44633 0.83064 0.80197 0.0
C861 C 0.49455 0.79097 0.80666 0.0
C862 C 0.47149 0.80933 0.87881 0.0
C863 C 0.50718 0.77903 0.80223 0.0
C864 C 0.38918 0.82835 0.84695 0.0
C865 C 0.4126 0.83282 0.84826 0.0
C866 C 0.45348 0.82522 0.82395 0.0
C867 C 0.4994 0.80643 0.83589 0.0
C868 C 0.48225 0.81437 0.84478 0.0
C869 C 0.41744 0.81523 0.86055 0.0
C870 C 0.44151 0.81823 0.857 0.0
H871 H 0.54529 0.80252 0.87313 0.0
H872 H 0.5225 0.82303 0.88167 0.0
H873 H 0.4816 0.82718 0.79138 0.0
H874 H 0.36072 0.77155 0.87871 0.0
H875 H 0.40166 0.77938 0.88168 0.0
C876 C 0.18347 0.56824 0.88074 0.0
C877 C 0.18954 0.56125 0.84868 0.0
C878 C 0.17876 0.58706 0.88084 0.0
C879 C 0.17092 0.62854 0.81926 0.0
H880 H 0.2021 0.67364 0.89666 0.0
C881 C 0.22468 0.72948 0.80563 0.0
C882 C 0.22231 0.74371 0.83169 0.0
C883 C 0.21134 0.70476 0.80806 0.0
C884 C 0.19278 0.66101 0.87528 0.0
H885 H 0.19542 0.5681 0.7918 0.0
H886 H 0.18826 0.60136 0.79186 0.0
H887 H 0.1963 0.63377 0.90154 0.0
H888 H 0.20385 0.74376 0.88 0.0
H889 H 0.18102 0.70014 0.88517 0.0
H890 H 0.16962 0.65686 0.79171 0.0
C891 C 0.1861 0.59197 0.81682 0.0
C892 C 0.18939 0.63807 0.87804 0.0
C893 C 0.19051 0.57308 0.81674 0.0
C894 C 0.20561 0.73299 0.85935 0.0
C895 C 0.1927 0.70816 0.86237 0.0
C896 C 0.17475 0.65164 0.81624 0.0
C897 C 0.18053 0.59952 0.84896 0.0
C898 C 0.17931 0.62184 0.84941 0.0
C899 C 0.19593 0.69391 0.83719 0.0
C900 C 0.18647 0.66829 0.8437 0.0
H901 H 0.18333 0.55983 0.90589 0.0
H902 H 0.1744 0.59224 0.90607 0.0
H903 H 0.16246 0.61633 0.79712 0.0
H904 H 0.23767 0.7375 0.78432 0.0
H905 H 0.21439 0.69417 0.7886 0.0
C906 C 0.27278 0.4779 0.82356 0.0
C907 C 0.26118 0.48453 0.84889 0.0
C908 C 0.29769 0.4905 0.82145 0.0
C909 C 0.35261 0.5332 0.86953 0.0
H910 H 0.37376 0.56474 0.77757 0.0
C911 C 0.43308 0.627 0.85614 0.0
C912 C 0.44591 0.63391 0.82399 0.0
C913 C 0.41346 0.60412 0.85972 0.0
C914 C 0.36849 0.55575 0.80322 0.0
H915 H 0.2661 0.50804 0.89342 0.0
H916 H 0.30934 0.52947 0.89046 0.0
H917 H 0.33371 0.53101 0.78347 0.0
H918 H 0.44925 0.62262 0.77084 0.0
H919 H 0.41539 0.58224 0.77719 0.0
H920 H 0.38711 0.55829 0.88964 0.0
C921 C 0.29944 0.51483 0.87204 0.0
C922 C 0.34546 0.53637 0.80654 0.0
C923 C 0.27471 0.50271 0.87356 0.0
C924 C 0.43946 0.61747 0.79586 0.0
C925 C 0.42003 0.59448 0.7995 0.0
C926 C 0.37575 0.5524 0.86614 0.0
C927 C 0.31118 0.50938 0.84531 0.0
C928 C 0.33701 0.52555 0.84004 0.0
C929 C 0.40639 0.58768 0.83117 0.0
C930 C 0.38365 0.56457 0.83329 0.0
H931 H 0.26261 0.46399 0.80418 0.0
H932 H 0.30638 0.48603 0.80055 0.0
H933 H 0.34653 0.525 0.89561 0.0
H934 H 0.43757 0.63968 0.87781 0.0
H935 H 0.40317 0.5998 0.88422 0.0
C936 C 0.869 0.95906 0.7016 0.0
C937 C 0.86184 0.96592 0.67058 0.0
C938 C 0.86485 0.93585 0.7049 0.0
C939 C 0.85686 0.88649 0.64675 0.0
H940 H 0.85249 0.85631 0.73838 0.0
C941 C 0.87576 0.80916 0.65934 0.0
C942 C 0.895 0.8158 0.68281 0.0
C943 C 0.8632 0.82153 0.65987 0.0
C944 C 0.85335 0.86435 0.71253 0.0
H945 H 0.84384 0.95422 0.61955 0.0
H946 H 0.83576 0.91332 0.62554 0.0
H947 H 0.84569 0.89 0.73537 0.0
H948 H 0.91511 0.83898 0.72692 0.0
H949 H 0.89302 0.86006 0.72842 0.0
H950 H 0.86536 0.86136 0.62421 0.0
C951 C 0.84505 0.92582 0.64706 0.0
C952 C 0.84967 0.88375 0.71082 0.0
C953 C 0.8495 0.94909 0.64364 0.0
C954 C 0.90042 0.83368 0.70839 0.0
C955 C 0.88762 0.84559 0.70946 0.0
C956 C 0.86029 0.86695 0.64844 0.0
C957 C 0.85332 0.91907 0.67724 0.0
C958 C 0.85239 0.89571 0.67815 0.0
C959 C 0.8694 0.84019 0.68452 0.0
C960 C 0.85958 0.85635 0.68156 0.0
H961 H 0.87884 0.972 0.72236 0.0
H962 H 0.87186 0.9315 0.72825 0.0
H963 H 0.85936 0.89532 0.62115 0.0
H964 H 0.87135 0.79544 0.63935 0.0
H965 H 0.84923 0.81708 0.64033 0.0
C966 C 0.17413 0.06647 0.63764 0.0
C967 C 0.1925 0.07976 0.66213 0.0
C968 C 0.16226 0.04169 0.63836 0.0
C969 C 0.14057 0.99528 0.70218 0.0
H970 H 0.12109 0.9539 0.61886 0.0
C971 C 0.05809 0.90126 0.70781 0.0
C972 C 0.0429 0.89555 0.67807 0.0
C973 C 0.08138 0.92056 0.70629 0.0
C974 C 0.1263 0.96518 0.64244 0.0
H975 H 0.21357 0.07792 0.70575 0.0
H976 H 0.19197 0.03417 0.70801 0.0
H977 H 0.1542 0.99464 0.61401 0.0
H978 H 0.03984 0.90518 0.62365 0.0
H979 H 0.07994 0.93916 0.62107 0.0
H980 H 0.11151 0.96678 0.72989 0.0
C981 C 0.18723 0.04303 0.68775 0.0
C982 C 0.14541 0.98841 0.63968 0.0
C983 C 0.1996 0.06794 0.68636 0.0
C984 C 0.0514 0.90917 0.64674 0.0
C985 C 0.0745 0.92847 0.64523 0.0
C986 C 0.12119 0.97217 0.70481 0.0
C987 C 0.16814 0.02975 0.6642 0.0
C988 C 0.15215 0.0039 0.66918 0.0
C989 C 0.08975 0.93469 0.67513 0.0
C990 C 0.11319 0.95715 0.67454 0.0
H991 H 0.16833 0.07527 0.61886 0.0
H992 H 0.14743 0.03187 0.62021 0.0
H993 H 0.1453 0.007 0.72522 0.0
H994 H 0.05166 0.89132 0.73255 0.0
H995 H 0.09262 0.92474 0.72978 0.0
C996 C 0.94358 0.1362 0.6564 0.0
C997 C 0.93028 0.11371 0.64037 0.0
C998 C 0.96846 0.14887 0.65311 0.0
C999 C 0.01892 0.1492 0.60446 0.0
H1000 H 0.04911 0.16273 0.69809 0.0
C1001 C 0.09203 0.12926 0.64131 0.0
C1002 C 0.11142 0.14546 0.66207 0.0
C1003 C 0.07348 0.13351 0.63357 0.0
C1004 C 0.04116 0.15962 0.67163 0.0
H1005 H 0.93194 0.08765 0.6061 0.0
H1006 H 0.97484 0.10959 0.59994 0.0
H1007 H 0.00902 0.15668 0.69216 0.0
H1008 H 0.12689 0.17869 0.69129 0.0
H1009 H 0.09384 0.18596 0.67856 0.0
H1010 H 0.05036 0.15027 0.5845 0.0
C1011 C 0.96647 0.11765 0.61508 0.0
C1012 C 0.01821 0.15624 0.66818 0.0
C1013 C 0.94186 0.10494 0.61882 0.0
C1014 C 0.11214 0.16615 0.67486 0.0
C1015 C 0.0933 0.17022 0.66769 0.0
C1016 C 0.04173 0.15238 0.60797 0.0
C1017 C 0.98018 0.13936 0.63318 0.0
C1018 C 0.0064 0.14978 0.63486 0.0
C1019 C 0.07376 0.15386 0.64705 0.0
C1020 C 0.05259 0.1565 0.64186 0.0
H1021 H 0.93497 0.14323 0.6733 0.0
H1022 H 0.97857 0.1656 0.66726 0.0
H1023 H 0.01046 0.14471 0.5783 0.0
H1024 H 0.0912 0.11319 0.63135 0.0
H1025 H 0.05846 0.12038 0.61813 0.0
C1026 C 0.17799 0.11423 0.14169 0.0
C1027 C 0.19587 0.11863 0.1667 0.0
C1028 C 0.16506 0.12599 0.14443 0.0
C1029 C 0.14039 0.14433 0.21385 0.0
H1030 H 0.11606 0.16487 0.13486 0.0
C1031 C 0.04379 0.12265 0.20038 0.0
C1032 C 0.03913 0.14021 0.18772 0.0
C1033 C 0.06716 0.12725 0.20305 0.0
C1034 C 0.12297 0.15964 0.15739 0.0
H1035 H 0.21518 0.13933 0.21318 0.0
H1036 H 0.19188 0.15953 0.2188 0.0
H1037 H 0.15185 0.16193 0.12639 0.0
H1038 H 0.0549 0.17627 0.16792 0.0
H1039 H 0.09601 0.18427 0.17185 0.0
H1040 H 0.11049 0.1403 0.24399 0.0
C1041 C 0.18827 0.14737 0.19664 0.0
C1042 C 0.14338 0.15791 0.1525 0.0
C1043 C 0.20165 0.13598 0.19332 0.0
C1044 C 0.0582 0.16266 0.17842 0.0
C1045 C 0.0816 0.16715 0.18044 0.0
C1046 C 0.11978 0.14572 0.21856 0.0
C1047 C 0.1694 0.14191 0.17282 0.0
C1048 C 0.15179 0.14946 0.18031 0.0
C1049 C 0.08625 0.14936 0.19233 0.0
C1050 C 0.11045 0.1526 0.18999 0.0
H1051 H 0.17315 0.10072 0.12116 0.0
H1052 H 0.15044 0.12121 0.12598 0.0
H1053 H 0.14636 0.13754 0.23562 0.0
H1054 H 0.02926 0.1052 0.20735 0.0
H1055 H 0.07022 0.1131 0.21178 0.0
C1056 C 0.88219 0.92107 0.20066 0.0
C1057 C 0.86504 0.89907 0.18654 0.0
C1058 C 0.87744 0.9397 0.20358 0.0
C1059 C 0.846 0.96368 0.15657 0.0
H1060 H 0.86843 0.00904 0.23514 0.0
C1061 C 0.89499 0.06399 0.14047 0.0
C1062 C 0.89164 0.07826 0.16531 0.0
C1063 C 0.88208 0.0393 0.1434 0.0
C1064 C 0.8615 0.99633 0.21327 0.0
H1065 H 0.82949 0.87897 0.16461 0.0
H1066 H 0.82122 0.9119 0.16896 0.0
H1067 H 0.86429 0.96986 0.24375 0.0
H1068 H 0.87152 0.07827 0.21158 0.0
H1069 H 0.84928 0.03469 0.21757 0.0
H1070 H 0.84496 0.99084 0.12529 0.0
C1071 C 0.83815 0.91454 0.17844 0.0
C1072 C 0.85933 0.974 0.21812 0.0
C1073 C 0.84279 0.89573 0.17614 0.0
C1074 C 0.87414 0.0675 0.19191 0.0
C1075 C 0.86157 0.04268 0.19542 0.0
C1076 C 0.84846 0.98613 0.15158 0.0
C1077 C 0.85559 0.93681 0.1917 0.0
C1078 C 0.85248 0.95785 0.18939 0.0
C1079 C 0.86598 0.02843 0.17178 0.0
C1080 C 0.85715 1.00299 0.17947 0.0
H1081 H 0.89949 0.92396 0.20854 0.0
H1082 H 0.89136 0.95677 0.21335 0.0
H1083 H 0.84079 0.95162 0.13391 0.0
H1084 H 0.90851 0.072 0.11986 0.0
H1085 H 0.88608 0.02882 0.12508 0.0
C1086 C 0.09209 0.96674 0.20714 0.0
C1087 C 0.11378 0.97146 0.19209 0.0
C1088 C 0.07308 0.94345 0.20916 0.0
C1089 C 0.04745 0.88935 0.1584 0.0
H1090 H 1.00291 0.86449 0.23773 0.0
C1091 C 0.9467 0.83825 0.14436 0.0
C1092 C 0.93285 0.81928 0.16753 0.0
C1093 C 0.97142 0.85051 0.14711 0.0
C1094 C 0.01538 0.87084 0.21558 0.0
H1095 H 0.13296 0.95584 0.16766 0.0
H1096 H 0.09937 0.91484 0.17041 0.0
H1097 H 0.04248 0.89904 0.24714 0.0
H1098 H 0.93368 0.79745 0.21074 0.0
H1099 H 0.9773 0.81963 0.21655 0.0
H1100 H 0.01969 0.86228 0.12619 0.0
C1101 C 0.09727 0.92914 0.18132 0.0
C1102 C 0.03792 0.8907 0.22091 0.0
C1103 C 0.11645 0.95247 0.17993 0.0
C1104 C 0.9441 0.81191 0.19237 0.0
C1105 C 0.96894 0.82461 0.19578 0.0
C1106 C 0.02478 0.86971 0.15295 0.0
C1107 C 0.07529 0.92449 0.19542 0.0
C1108 C 0.05382 0.90064 0.19205 0.0
C1109 C 0.98274 0.84438 0.1737 0.0
C1110 C 0.00826 0.86083 0.18118 0.0
H1111 H 0.0897 0.98123 0.21635 0.0
H1112 H 0.05625 0.94044 0.21965 0.0
H1113 H 0.0593 0.89674 0.13563 0.0
H1114 H 0.93833 0.84426 0.12509 0.0
H1115 H 0.98158 0.86584 0.13006 0.0
C1116 C 0.52864 0.14542 0.37808 0.0
C1117 C 0.51623 0.12332 0.39551 0.0
C1118 C 0.53557 0.14668 0.34228 0.0
C1119 C 0.52736 0.11129 0.26004 0.0
H1120 H 0.59471 0.15535 0.24613 0.0
C1121 C 0.57703 0.10347 0.13849 0.0
C1122 C 0.59284 0.12459 0.12056 0.0
C1123 C 0.56778 0.10425 0.17192 0.0
C1124 C 0.57583 0.14318 0.24939 0.0
H1125 H 0.49939 0.08513 0.38819 0.0
H1126 H 0.51144 0.08733 0.32581 0.0
H1127 H 0.57594 0.15553 0.30268 0.0
H1128 H 0.6122 0.1631 0.12439 0.0
H1129 H 0.59591 0.16446 0.18274 0.0
H1130 H 0.52727 0.09878 0.2069 0.0
C1131 C 0.51595 0.10369 0.33977 0.0
C1132 C 0.56505 0.14334 0.28173 0.0
C1133 C 0.50912 0.10244 0.37559 0.0
C1134 C 0.60012 0.1465 0.13758 0.0
C1135 C 0.59077 0.14728 0.17102 0.0
C1136 C 0.53812 0.11118 0.22767 0.0
C1137 C 0.53004 0.12586 0.3232 0.0
C1138 C 0.54076 0.12721 0.28755 0.0
C1139 C 0.57404 0.12616 0.18813 0.0
C1140 C 0.56255 0.1269 0.22216 0.0
H1141 H 0.53433 0.16185 0.39265 0.0
H1142 H 0.54607 0.16399 0.32995 0.0
H1143 H 0.50857 0.09883 0.26364 0.0
H1144 H 0.57119 0.08628 0.12622 0.0
H1145 H 0.55539 0.08764 0.18482 0.0
C1146 C 0.90322 0.41615 0.38504 0.0
C1147 C 0.88209 0.40403 0.40491 0.0
C1148 C 0.90292 0.42411 0.3504 0.0
C1149 C 0.86402 0.4196 0.27453 0.0
H1150 H 0.91371 0.48481 0.2577 0.0
C1151 C 0.86429 0.47137 0.14893 0.0
C1152 C 0.88592 0.4822 0.13007 0.0
C1153 C 0.8632 0.46299 0.18382 0.0
C1154 C 0.89979 0.46657 0.26198 0.0
H1155 H 0.84382 0.38915 0.40315 0.0
H1156 H 0.84332 0.40318 0.34267 0.0
H1157 H 0.91298 0.46546 0.31405 0.0
H1158 H 0.92361 0.49415 0.13368 0.0
H1159 H 0.92171 0.47972 0.1945 0.0
H1160 H 0.85086 0.42081 0.22231 0.0
C1161 C 0.86012 0.40649 0.35382 0.0
C1162 C 0.89945 0.45542 0.29411 0.0
C1163 C 0.86041 0.39843 0.38847 0.0
C1164 C 0.90667 0.48582 0.1475 0.0
C1165 C 0.9056 0.47762 0.1824 0.0
C1166 C 0.86433 0.4308 0.24237 0.0
C1167 C 0.88149 0.42016 0.33498 0.0
C1168 C 0.88171 0.43174 0.3006 0.0
C1169 C 0.88375 0.46553 0.20051 0.0
C1170 C 0.88234 0.45433 0.23569 0.0
H1171 H 0.92017 0.42046 0.39683 0.0
H1172 H 0.9196 0.43405 0.33614 0.0
H1173 H 0.85021 0.40131 0.27868 0.0
H1174 H 0.84799 0.4683 0.13616 0.0
H1175 H 0.84618 0.45402 0.19742 0.0
C1176 C 0.62294 0.48791 0.36106 0.0
C1177 C 0.60781 0.49143 0.38398 0.0
C1178 C 0.61651 0.48125 0.32524 0.0
C1179 C 0.59109 0.4507 0.26054 0.0
H1180 H 0.55099 0.46889 0.20864 0.0
C1181 C 0.54294 0.40347 0.12868 0.0
C1182 C 0.54029 0.41753 0.10257 0.0
C1183 C 0.55144 0.41274 0.163 0.0
C1184 C 0.56247 0.4638 0.22234 0.0
H1185 H 0.57468 0.49196 0.38678 0.0
H1186 H 0.56313 0.47957 0.32549 0.0
H1187 H 0.56813 0.48772 0.26534 0.0
H1188 H 0.5451 0.45249 0.09146 0.0
H1189 H 0.5608 0.46881 0.14984 0.0
H1190 H 0.58648 0.42775 0.2163 0.0
C1191 C 0.58022 0.48242 0.33444 0.0
C1192 C 0.57202 0.47439 0.25537 0.0
C1193 C 0.58683 0.48946 0.36988 0.0
C1194 C 0.54644 0.44097 0.11122 0.0
C1195 C 0.55538 0.45035 0.14496 0.0
C1196 C 0.58196 0.44048 0.22699 0.0
C1197 C 0.59468 0.47767 0.31181 0.0
C1198 C 0.58622 0.46779 0.27519 0.0
C1199 C 0.5579 0.4364 0.17148 0.0
C1200 C 0.56741 0.44682 0.20751 0.0
H1201 H 0.63927 0.48938 0.37112 0.0
H1202 H 0.6284 0.47836 0.30839 0.0
H1203 H 0.6016 0.44482 0.2752 0.0
H1204 H 0.53841 0.38537 0.12262 0.0
H1205 H 0.55283 0.40134 0.18285 0.0
C1206 C 0.86116 0.46965 0.88841 0.0
C1207 C 0.88321 0.48435 0.90508 0.0
C1208 C 0.86022 0.46182 0.8532 0.0
C1209 C 0.89538 0.47207 0.7706 0.0
H1210 H 0.85624 0.40375 0.75815 0.0
C1211 C 0.90598 0.42608 0.64703 0.0
C1212 C 0.88495 0.40942 0.62962 0.0
C1213 C 0.90514 0.43421 0.68134 0.0
C1214 C 0.86706 0.42287 0.76107 0.0
H1215 H 0.92142 0.50386 0.89713 0.0
H1216 H 0.91976 0.49026 0.83572 0.0
H1217 H 0.85502 0.422 0.81482 0.0
H1218 H 0.84672 0.38712 0.63534 0.0
H1219 H 0.84525 0.4015 0.69522 0.0
H1220 H 0.90748 0.47301 0.71699 0.0
C1221 C 0.90322 0.4847 0.84984 0.0
C1222 C 0.86629 0.43333 0.79344 0.0
C1223 C 0.90418 0.49241 0.88507 0.0
C1224 C 0.86324 0.39992 0.64811 0.0
C1225 C 0.86239 0.40817 0.68242 0.0
C1226 C 0.89609 0.46164 0.73823 0.0
C1227 C 0.88128 0.46873 0.83397 0.0
C1228 C 0.88062 0.458 0.79862 0.0
C1229 C 0.88326 0.42597 0.69889 0.0
C1230 C 0.88216 0.43689 0.73326 0.0
H1231 H 0.84468 0.46315 0.90314 0.0
H1232 H 0.84305 0.44979 0.84137 0.0
H1233 H 0.90641 0.49115 0.77373 0.0
H1234 H 0.92302 0.43357 0.63359 0.0
H1235 H 0.9216 0.44746 0.69373 0.0
C1236 C 0.60882 0.45444 0.62067 0.0
C1237 C 0.60238 0.47051 0.60666 0.0
C1238 C 0.6 0.44363 0.65402 0.0
C1239 C 0.54855 0.42752 0.7124 0.0
H1240 H 0.58526 0.41897 0.78691 0.0
C1241 C 0.51925 0.40964 0.85955 0.0
C1242 C 0.52519 0.39533 0.88033 0.0
C1243 C 0.52651 0.41462 0.82384 0.0
C1244 C 0.57466 0.4208 0.76606 0.0
H1245 H 0.58339 0.48938 0.61773 0.0
H1246 H 0.56847 0.47094 0.6758 0.0
H1247 H 0.60438 0.4376 0.73015 0.0
H1248 H 0.54197 0.37364 0.87919 0.0
H1249 H 0.55449 0.38224 0.81659 0.0
H1250 H 0.51897 0.41118 0.74834 0.0
C1251 C 0.57968 0.4661 0.66073 0.0
C1252 C 0.58565 0.43155 0.73366 0.0
C1253 C 0.58841 0.47681 0.62759 0.0
C1254 C 0.53713 0.38477 0.86392 0.0
C1255 C 0.54451 0.38987 0.82818 0.0
C1256 C 0.53759 0.41677 0.74466 0.0
C1257 C 0.58465 0.44878 0.67372 0.0
C1258 C 0.57283 0.43555 0.70689 0.0
C1259 C 0.5399 0.40543 0.80814 0.0
C1260 C 0.55064 0.41378 0.77216 0.0
H1261 H 0.61951 0.44921 0.60503 0.0
H1262 H 0.60419 0.4304 0.66351 0.0
H1263 H 0.53806 0.42983 0.69186 0.0
H1264 H 0.51009 0.41806 0.87138 0.0
H1265 H 0.52281 0.42681 0.8092 0.0
C1266 C 0.59434 0.10105 0.87748 0.0
C1267 C 0.60769 0.12227 0.8969 0.0
C1268 C 0.58864 0.1017 0.8415 0.0
C1269 C 0.57807 0.13976 0.78166 0.0
H1270 H 0.57464 0.09632 0.70737 0.0
C1271 C 0.54892 0.14309 0.636 0.0
C1272 C 0.53517 0.12127 0.61824 0.0
C1273 C 0.55858 0.14383 0.66984 0.0
C1274 C 0.57523 0.10838 0.72798 0.0
H1275 H 0.6272 0.1608 0.89302 0.0
H1276 H 0.61737 0.16187 0.83017 0.0
H1277 H 0.59236 0.09675 0.76537 0.0
H1278 H 0.51973 0.08303 0.62274 0.0
H1279 H 0.53603 0.08428 0.68208 0.0
H1280 H 0.56049 0.15104 0.74472 0.0
C1281 C 0.61097 0.14477 0.84298 0.0
C1282 C 0.5855 0.1087 0.76107 0.0
C1283 C 0.61675 0.14412 0.8789 0.0
C1284 C 0.5304 0.10015 0.63563 0.0
C1285 C 0.53993 0.10088 0.66949 0.0
C1286 C 0.5677 0.13936 0.74865 0.0
C1287 C 0.59618 0.12359 0.82433 0.0
C1288 C 0.5869 0.1243 0.7883 0.0
C1289 C 0.55456 0.12275 0.68664 0.0
C1290 C 0.56599 0.12354 0.72153 0.0
H1291 H 0.58726 0.08393 0.89051 0.0
H1292 H 0.57719 0.08509 0.82778 0.0
H1293 H 0.57851 0.15167 0.80239 0.0
H1294 H 0.55303 0.15968 0.6232 0.0
H1295 H 0.56989 0.16098 0.68223 0.0
C1296 C 0.27802 0.47879 0.48303 0.0
C1297 C 0.2683 0.45742 0.46346 0.0
C1298 C 0.27007 0.47903 0.51777 0.0
C1299 C 0.23732 0.44132 0.59486 0.0
H1300 H 0.21778 0.48814 0.61032 0.0
C1301 C 0.18258 0.43589 0.71831 0.0
C1302 C 0.19011 0.45725 0.73711 0.0
C1303 C 0.19096 0.43616 0.68375 0.0
C1304 C 0.22334 0.47511 0.60658 0.0
H1305 H 0.24396 0.41934 0.46586 0.0
H1306 H 0.23032 0.41976 0.5266 0.0
H1307 H 0.23759 0.48855 0.55447 0.0
H1308 H 0.21106 0.49572 0.73355 0.0
H1309 H 0.22591 0.49618 0.6734 0.0
H1310 H 0.22332 0.42797 0.64697 0.0
C1311 C 0.24395 0.43632 0.51503 0.0
C1312 C 0.23476 0.4754 0.57467 0.0
C1313 C 0.25174 0.4361 0.48021 0.0
C1314 C 0.20486 0.47895 0.71971 0.0
C1315 C 0.2134 0.47921 0.6852 0.0
C1316 C 0.22604 0.44111 0.62684 0.0
C1317 C 0.25247 0.45789 0.53367 0.0
C1318 C 0.24175 0.45844 0.56845 0.0
C1319 C 0.20718 0.45779 0.66736 0.0
C1320 C 0.21877 0.4579 0.63298 0.0
H1321 H 0.29081 0.49552 0.47086 0.0
H1322 H 0.27718 0.49585 0.53181 0.0
H1323 H 0.24271 0.42818 0.59088 0.0
H1324 H 0.17107 0.41887 0.7309 0.0
H1325 H 0.18533 0.41936 0.67032 0.0
C1326 C 0.57433 0.80544 0.44921 0.0
C1327 C 0.55609 0.80992 0.43918 0.0
C1328 C 0.57491 0.79729 0.48344 0.0
C1329 C 0.53692 0.76878 0.56301 0.0
H1330 H 0.59775 0.78484 0.60515 0.0
C1331 C 0.57818 0.7629 0.70789 0.0
C1332 C 0.55931 0.74114 0.72007 0.0
C1333 C 0.57848 0.77028 0.67275 0.0
C1334 C 0.58058 0.78033 0.59411 0.0
H1335 H 0.52456 0.81012 0.45746 0.0
H1336 H 0.5263 0.7971 0.51847 0.0
H1337 H 0.5967 0.80254 0.5487 0.0
H1338 H 0.52696 0.70916 0.70428 0.0
H1339 H 0.5282 0.72142 0.64205 0.0
H1340 H 0.52088 0.7479 0.60983 0.0
C1341 C 0.5397 0.7991 0.49932 0.0
C1342 C 0.57995 0.79023 0.56127 0.0
C1343 C 0.53881 0.80681 0.46455 0.0
C1344 C 0.54164 0.72611 0.69566 0.0
C1345 C 0.54221 0.7333 0.66015 0.0
C1346 C 0.53756 0.75932 0.59637 0.0
C1347 C 0.55761 0.79392 0.50899 0.0
C1348 C 0.55812 0.78442 0.54507 0.0
C1349 C 0.56022 0.75584 0.64859 0.0
C1350 C 0.55942 0.76493 0.61231 0.0
H1351 H 0.58772 0.80728 0.43012 0.0
H1352 H 0.58861 0.79293 0.48934 0.0
H1353 H 0.51976 0.76357 0.55119 0.0
H1354 H 0.59206 0.77495 0.72604 0.0
H1355 H 0.59247 0.78787 0.66522 0.0
C1356 C 0.2857 0.80333 0.70952 0.0
C1357 C 0.27653 0.81634 0.72662 0.0
C1358 C 0.27999 0.79626 0.67372 0.0
C1359 C 0.2547 0.80622 0.59081 0.0
H1360 H 0.231 0.7391 0.57362 0.0
C1361 C 0.19728 0.75933 0.46814 0.0
C1362 C 0.20231 0.74383 0.44871 0.0
C1363 C 0.20748 0.76778 0.50176 0.0
C1364 C 0.23785 0.75793 0.57782 0.0
H1365 H 0.25565 0.8336 0.71882 0.0
H1366 H 0.24576 0.82132 0.65647 0.0
H1367 H 0.24908 0.75663 0.63142 0.0
H1368 H 0.22114 0.72415 0.45006 0.0
H1369 H 0.23912 0.73905 0.50907 0.0
H1370 H 0.24323 0.80751 0.53748 0.0
C1371 C 0.25731 0.81653 0.67068 0.0
C1372 C 0.24826 0.768 0.61089 0.0
C1373 C 0.26291 0.8235 0.70648 0.0
C1374 C 0.21686 0.73601 0.46445 0.0
C1375 C 0.22718 0.74458 0.4982 0.0
C1376 C 0.24434 0.79618 0.5578 0.0
C1377 C 0.26517 0.80222 0.65424 0.0
C1378 C 0.25645 0.79217 0.61793 0.0
C1379 C 0.22306 0.76105 0.51677 0.0
C1380 C 0.23538 0.77182 0.55115 0.0
H1381 H 0.29626 0.79754 0.72427 0.0
H1382 H 0.28661 0.78556 0.66157 0.0
H1383 H 0.26116 0.82496 0.59524 0.0
H1384 H 0.18594 0.76551 0.45694 0.0
H1385 H 0.20342 0.77994 0.51579 0.0
C1386 C 0.56119 0.74803 0.96585 0.0
C1387 C 0.54123 0.73655 0.9433 0.0
C1388 C 0.5589 0.75428 0.00073 0.0
C1389 C 0.52155 0.77003 0.05368 0.0
H1390 H 0.56152 0.77054 0.13147 0.0
C1391 C 0.5227 0.80247 0.2004 0.0
C1392 C 0.54537 0.81556 0.2162 0.0
C1393 C 0.52019 0.7929 0.16597 0.0
C1394 C 0.55038 0.77065 0.10988 0.0
H1395 H 0.50299 0.72137 0.94015 0.0
H1396 H 0.49893 0.73221 0.00169 0.0
H1397 H 0.55928 0.74978 0.07587 0.0
H1398 H 0.58326 0.83095 0.20693 0.0
H1399 H 0.5788 0.81431 0.14698 0.0
H1400 H 0.51274 0.79102 0.08808 0.0
C1401 C 0.51638 0.73659 0.99204 0.0
C1402 C 0.54902 0.75869 0.07814 0.0
C1403 C 0.51867 0.73019 0.95701 0.0
C1404 C 0.56553 0.82068 0.19574 0.0
C1405 C 0.563 0.81104 0.16151 0.0
C1406 C 0.52277 0.78187 0.08568 0.0
C1407 C 0.53659 0.7492 0.01393 0.0
C1408 C 0.53508 0.75875 0.04935 0.0
C1409 C 0.54028 0.79624 0.14697 0.0
C1410 C 0.53769 0.78278 0.11367 0.0
H1411 H 0.57881 0.7531 0.95609 0.0
H1412 H 0.57486 0.7642 0.01671 0.0
H1413 H 0.51083 0.77058 0.03183 0.0
H1414 H 0.50681 0.79827 0.21545 0.0
H1415 H 0.50248 0.78164 0.15522 0.0
C1416 C 0.24658 0.81294 0.96859 0.0
C1417 C 0.26099 0.80565 0.95098 0.0
C1418 C 0.23713 0.80394 0.00239 0.0
C1419 C 0.24187 0.77129 0.0806 0.0
H1420 H 0.17612 0.75447 0.09542 0.0
C1421 C 0.19112 0.7209 0.20647 0.0
C1422 C 0.18049 0.73185 0.2255 0.0
C1423 C 0.1986 0.72743 0.17109 0.0
C1424 C 0.19449 0.75913 0.09167 0.0
H1425 H 0.27765 0.78402 0.95567 0.0
H1426 H 0.26089 0.76804 0.01454 0.0
H1427 H 0.19571 0.77245 0.03879 0.0
H1428 H 0.16727 0.75648 0.2212 0.0
H1429 H 0.18025 0.76782 0.15933 0.0
H1430 H 0.24056 0.75785 0.13348 0.0
C1431 C 0.25709 0.78092 0.00241 0.0
C1432 C 0.20579 0.76957 0.05936 0.0
C1433 C 0.26672 0.79009 0.96866 0.0
C1434 C 0.17562 0.74791 0.20739 0.0
C1435 C 0.18299 0.75435 0.1719 0.0
C1436 C 0.23051 0.7607 0.11281 0.0
C1437 C 0.24169 0.78729 0.01925 0.0
C1438 C 0.22969 0.77597 0.05355 0.0
C1439 C 0.1954 0.74487 0.15392 0.0
C1440 C 0.20676 0.75464 0.11875 0.0
H1441 H 0.24199 0.82508 0.95578 0.0
H1442 H 0.22587 0.80972 0.01501 0.0
H1443 H 0.26034 0.77624 0.07723 0.0
H1444 H 0.19505 0.70837 0.21955 0.0
H1445 H 0.20771 0.7195 0.1576 0.0
C1446 C 0.19278 0.43894 0.9798 0.0
C1447 C 0.19568 0.45919 0.96174 0.0
C1448 C 0.20221 0.44093 0.01409 0.0
C1449 C 0.22721 0.48025 0.09306 0.0
H1450 H 0.25969 0.44442 0.10691 0.0
C1451 C 0.27926 0.48804 0.22273 0.0
C1452 C 0.27278 0.46601 0.23864 0.0
C1453 C 0.27256 0.48905 0.18739 0.0
C1454 C 0.25066 0.45449 0.10344 0.0
H1455 H 0.20948 0.49719 0.96625 0.0
H1456 H 0.22613 0.50068 0.02622 0.0
H1457 H 0.24051 0.44211 0.04964 0.0
H1458 H 0.25551 0.42794 0.22942 0.0
H1459 H 0.24407 0.42975 0.16785 0.0
H1460 H 0.23731 0.49249 0.14711 0.0
C1461 C 0.21647 0.48326 0.01388 0.0
C1462 C 0.23955 0.45307 0.07076 0.0
C1463 C 0.2069 0.48125 0.97955 0.0
C1464 C 0.26076 0.44519 0.21792 0.0
C1465 C 0.25426 0.44623 0.18259 0.0
C1466 C 0.23841 0.48173 0.12579 0.0
C1467 C 0.21487 0.46323 0.03099 0.0
C1468 C 0.22734 0.4656 0.06541 0.0
C1469 C 0.25953 0.46808 0.16729 0.0
C1470 C 0.24993 0.46857 0.13145 0.0
H1471 H 0.18401 0.42165 0.96692 0.0
H1472 H 0.20012 0.42506 0.02701 0.0
H1473 H 0.21787 0.49003 0.08979 0.0
H1474 H 0.28848 0.50438 0.23807 0.0
H1475 H 0.27707 0.50616 0.17605 0.0
C1476 C 0.94535 0.80879 0.8084 0.0
C1477 C 0.9354 0.78724 0.78929 0.0
C1478 C 0.93725 0.80949 0.84285 0.0
C1479 C 0.90376 0.77281 0.92023 0.0
H1480 H 0.88511 0.82047 0.93347 0.0
C1481 C 0.85061 0.77028 0.04384 0.0
C1482 C 0.8589 0.79202 0.06186 0.0
C1483 C 0.85825 0.76977 0.00904 0.0
C1484 C 0.89041 0.8072 0.93033 0.0
H1485 H 0.91048 0.74931 0.79218 0.0
H1486 H 0.89661 0.75053 0.85245 0.0
H1487 H 0.90482 0.8199 0.87803 0.0
H1488 H 0.88023 0.83037 0.05668 0.0
H1489 H 0.89379 0.82949 0.99612 0.0
H1490 H 0.88969 0.76023 0.97255 0.0
C1491 C 0.91051 0.76687 0.84075 0.0
C1492 C 0.90177 0.80693 0.89867 0.0
C1493 C 0.91844 0.76619 0.80622 0.0
C1494 C 0.87347 0.81333 0.04343 0.0
C1495 C 0.88127 0.81282 0.00869 0.0
C1496 C 0.89256 0.77316 0.95196 0.0
C1497 C 0.91928 0.78863 0.8589 0.0
C1498 C 0.90848 0.78969 0.8933 0.0
C1499 C 0.87445 0.79099 0.99167 0.0
C1500 C 0.88564 0.79029 0.95732 0.0
H1501 H 0.95842 0.82532 0.79604 0.0
H1502 H 0.94453 0.82645 0.85654 0.0
H1503 H 0.90893 0.75945 0.91687 0.0
H1504 H 0.83911 0.75358 0.05725 0.0
H1505 H 0.85214 0.75269 0.99625 0.0
C1506 C 0.2366 0.14558 0.80553 0.0
C1507 C 0.21537 0.13901 0.7869 0.0
C1508 C 0.23605 0.13692 0.8399 0.0
C1509 C 0.1988 0.0865 0.89812 0.0
H1510 H 0.24334 0.12631 0.97166 0.0
C1511 C 0.19707 0.05789 0.04605 0.0
C1512 C 0.21906 0.06696 0.06378 0.0
C1513 C 0.19612 0.06443 0.01064 0.0
C1514 C 0.23104 0.11487 0.95121 0.0
H1515 H 0.17686 0.1189 0.79017 0.0
H1516 H 0.17591 0.10382 0.85074 0.0
H1517 H 0.2417 0.14391 0.91488 0.0
H1518 H 0.25733 0.08786 0.05719 0.0
H1519 H 0.25568 0.09898 0.99525 0.0
H1520 H 0.18816 0.05743 0.93467 0.0
C1521 C 0.19296 0.11551 0.8384 0.0
C1522 C 0.23 0.12499 0.91879 0.0
C1523 C 0.19351 0.12431 0.80394 0.0
C1524 C 0.24011 0.08093 0.04444 0.0
C1525 C 0.23916 0.08741 0.00906 0.0
C1526 C 0.19983 0.07634 0.93066 0.0
C1527 C 0.21425 0.12145 0.85645 0.0
C1528 C 0.21403 0.11091 0.89179 0.0
C1529 C 0.21714 0.08007 0.99234 0.0
C1530 C 0.21613 0.09041 0.9574 0.0
H1531 H 0.25374 0.1569 0.79314 0.0
H1532 H 0.25275 0.14166 0.85297 0.0
H1533 H 0.18652 0.07515 0.87759 0.0
H1534 H 0.18051 0.04706 0.06023 0.0
H1535 H 0.17889 0.05847 -0.00153 0.0
C1536 C 0.88057 0.06786 0.80078 0.0
C1537 C 0.88098 0.08337 0.77423 0.0
C1538 C 0.88971 0.07657 0.83512 0.0
C1539 C 0.90625 0.12943 0.8933 0.0
H1540 H 0.93534 0.10197 0.95254 0.0
C1541 C 0.95741 0.14502 0.03947 0.0
C1542 C 0.943 0.15104 0.0599 0.0
C1543 C 0.95213 0.13859 0.00332 0.0
C1544 C 0.92764 0.11014 0.93613 0.0
H1545 H 0.89254 0.12019 0.76178 0.0
H1546 H 0.9094 0.13542 0.82031 0.0
H1547 H 0.92211 0.08673 0.89205 0.0
H1548 H 0.91222 0.15578 0.05804 0.0
H1549 H 0.90265 0.14396 0.99599 0.0
H1550 H 0.91268 0.15353 0.9364 0.0
C1551 C 0.90102 0.11644 0.81579 0.0
C1552 C 0.91963 0.10108 0.90161 0.0
C1553 C 0.89144 0.10771 0.78204 0.0
C1554 C 0.92382 0.1514 0.04309 0.0
C1555 C 0.91837 0.14469 0.00726 0.0
C1556 C 0.91461 0.13874 0.92739 0.0
C1557 C 0.89986 0.10099 0.84312 0.0
C1558 C 0.90869 0.11053 0.87982 0.0
C1559 C 0.9322 0.13782 0.98698 0.0
C1560 C 0.92513 0.12904 0.94951 0.0
H1561 H 0.87267 0.04902 0.79529 0.0
H1562 H 0.88832 0.06408 0.85553 0.0
H1563 H 0.89753 0.13696 0.87777 0.0
H1564 H 0.97234 0.1446 0.05166 0.0
H1565 H 0.96347 0.13388 0.98837 0.0
C1566 C 0.19792 0.07358 0.30523 0.0
C1567 C 0.21979 0.08143 0.28781 0.0
C1568 C 0.19723 0.08211 0.33943 0.0
C1569 C 0.23393 0.1118 0.41914 0.0
H1570 H 0.19005 0.13519 0.43338 0.0
C1571 C 0.2403 0.16448 0.54519 0.0
C1572 C 0.21878 0.15702 0.56343 0.0
C1573 C 0.24023 0.15739 0.50982 0.0
C1574 C 0.20229 0.12859 0.42989 0.0
H1575 H 0.2581 0.10336 0.29327 0.0
H1576 H 0.25688 0.11802 0.35287 0.0
H1577 H 0.18955 0.11587 0.37677 0.0
H1578 H 0.18035 0.13798 0.55796 0.0
H1579 H 0.18023 0.12542 0.4963 0.0
H1580 H 0.24657 0.12423 0.47217 0.0
C1581 C 0.24027 0.10535 0.34016 0.0
C1582 C 0.20192 0.11745 0.39757 0.0
C1583 C 0.24096 0.09699 0.30596 0.0
C1584 C 0.19724 0.14404 0.54461 0.0
C1585 C 0.19716 0.13681 0.50924 0.0
C1586 C 0.23425 0.12285 0.45141 0.0
C1587 C 0.2184 0.09842 0.35692 0.0
C1588 C 0.21784 0.10905 0.39185 0.0
C1589 C 0.21864 0.14259 0.49202 0.0
C1590 C 0.21855 0.13152 0.4571 0.0
H1591 H 0.1813 0.06164 0.29188 0.0
H1592 H 0.18013 0.07623 0.35197 0.0
H1593 H 0.24618 0.10523 0.41566 0.0
H1594 H 0.2572 0.17475 0.55885 0.0
H1595 H 0.25709 0.16269 0.4969 0.0
C1596 C 0.91726 0.14645 0.30296 0.0
C1597 C 0.93141 0.13935 0.28415 0.0
C1598 C 0.90744 0.13634 0.3361 0.0
C1599 C 0.91058 0.1007 0.41104 0.0
H1600 H 0.84468 0.0837 0.42463 0.0
C1601 C 0.85952 0.0498 0.53609 0.0
C1602 C 0.84906 0.06097 0.55502 0.0
C1603 C 0.86667 0.05596 0.5005 0.0
C1604 C 0.86308 0.08837 0.42121 0.0
H1605 H 0.94745 0.11704 0.28623 0.0
H1606 H 0.93016 0.09925 0.3441 0.0
H1607 H 0.86514 0.10322 0.36924 0.0
H1608 H 0.83557 0.08537 0.55027 0.0
H1609 H 0.84799 0.09605 0.48818 0.0
H1610 H 0.90854 0.08598 0.46313 0.0
C1611 C 0.92675 0.11274 0.3333 0.0
C1612 C 0.87487 0.09968 0.38963 0.0
C1613 C 0.93671 0.12297 0.30016 0.0
C1614 C 0.84376 0.0766 0.53654 0.0
C1615 C 0.85084 0.08269 0.5009 0.0
C1616 C 0.89876 0.0893 0.44257 0.0
C1617 C 0.91144 0.1188 0.3511 0.0
C1618 C 0.89885 0.10626 0.38438 0.0
C1619 C 0.86333 0.07324 0.48308 0.0
C1620 C 0.87496 0.08323 0.44814 0.0
H1621 H 0.91301 0.15919 0.29147 0.0
H1622 H 0.89625 0.14188 0.3496 0.0
H1623 H 0.9291 0.10572 0.40799 0.0
H1624 H 0.86372 0.03755 0.54944 0.0
H1625 H 0.8758 0.04802 0.48713 0.0
C1626 C 0.88372 0.81845 0.30333 0.0
C1627 C 0.86979 0.79631 0.28646 0.0
C1628 C 0.89305 0.81968 0.33766 0.0
C1629 C 0.90982 0.78479 0.39592 0.0
H1630 H 0.91282 0.82718 0.47164 0.0
C1631 C 0.92794 0.77374 0.54348 0.0
C1632 C 0.94137 0.79421 0.56441 0.0
C1633 C 0.92219 0.77566 0.50803 0.0
C1634 C 0.91247 0.81554 0.45052 0.0
H1635 H 0.85318 0.75809 0.29329 0.0
H1636 H 0.86901 0.76025 0.35319 0.0
H1637 H 0.89505 0.82728 0.41383 0.0
H1638 H 0.96045 0.83282 0.56399 0.0
H1639 H 0.95052 0.83614 0.50182 0.0
H1640 H 0.9269 0.77279 0.43263 0.0
C1641 C 0.87333 0.77667 0.3396 0.0
C1642 C 0.90222 0.81555 0.4175 0.0
C1643 C 0.8641 0.77544 0.3054 0.0
C1644 C 0.95005 0.8167 0.54855 0.0
C1645 C 0.94419 0.81862 0.51308 0.0
C1646 C 0.92003 0.78478 0.42885 0.0
C1647 C 0.88853 0.79879 0.35561 0.0
C1648 C 0.90041 0.79985 0.39011 0.0
C1649 C 0.92973 0.79811 0.49277 0.0
C1650 C 0.92113 0.79988 0.45668 0.0
H1651 H 0.88845 0.83484 0.28934 0.0
H1652 H 0.9047 0.83698 0.34939 0.0
H1653 H 0.90921 0.77291 0.37499 0.0
H1654 H 0.92108 0.75617 0.55487 0.0
H1655 H 0.91089 0.75952 0.49314 0.0
C1656 C 0.32759 0.90025 0.88638 0.0
C1657 C 0.32841 0.88766 0.85626 0.0
C1658 C 0.34868 0.91901 0.90078 0.0
C1659 C 0.41258 0.96068 0.88246 0.0
H1660 H 0.42187 0.95264 0.98319 0.0
C1661 C 0.50622 0.00967 0.94642 0.0
C1662 C 0.50849 0.01735 0.98216 0.0
C1663 C 0.48371 0.99502 0.93133 0.0
C1664 C 0.41957 0.95553 0.95521 0.0
H1665 H 0.35153 0.88556 0.81643 0.0
H1666 H 0.38805 0.91875 0.84051 0.0
H1667 H 0.38317 0.92736 0.95544 0.0
H1668 H 0.48922 0.01557 0.03038 0.0
H1669 H 0.44982 0.99045 0.00409 0.0
H1670 H 0.4488 0.98889 0.88203 0.0
C1671 C 0.3713 0.91418 0.85325 0.0
C1672 C 0.39729 0.94097 0.9393 0.0
C1673 C 0.35037 0.89522 0.83935 0.0
C1674 C 0.48787 0.00969 0.00282 0.0
C1675 C 0.46531 0.99526 0.98766 0.0
C1676 C 0.43476 0.97544 0.89844 0.0
C1677 C 0.37085 0.92575 0.88488 0.0
C1678 C 0.39363 0.94313 0.90261 0.0
C1679 C 0.46285 0.98785 0.95153 0.0
C1680 C 0.43876 0.97283 0.93494 0.0
H1681 H 0.31096 0.89445 0.90036 0.0
H1682 H 0.34777 0.92769 0.92508 0.0
H1683 H 0.41028 0.9629 0.85419 0.0
H1684 H 0.52191 0.01512 0.93015 0.0
H1685 H 0.48274 0.98925 0.90379 0.0
C1686 C 0.99336 0.47294 0.00838 0.0
C1687 C 0.98511 0.48517 0.9872 0.0
C1688 C 0.00716 0.46414 0.99322 0.0
C1689 C 0.02452 0.4503 0.90441 0.0
H1690 H 0.07536 0.451 0.95995 0.0
C1691 C 0.10507 0.44795 0.84377 0.0
C1692 C 0.11441 0.43553 0.86205 0.0
C1693 C 0.08559 0.44895 0.85755 0.0
C1694 C 0.06095 0.45027 0.94428 0.0
H1695 H 0.98563 0.49882 0.93413 0.0
H1696 H 0.01032 0.48423 0.90765 0.0
H1697 H 0.0501 0.46435 0.98748 0.0
H1698 H 0.11002 0.41343 0.90813 0.0
H1699 H 0.07587 0.41526 0.93252 0.0
H1700 H 0.03628 0.43723 0.8607 0.0
C1701 C 0.00547 0.48052 0.93568 0.0
C1702 C 0.04642 0.45797 0.96006 0.0
C1703 C 0.99146 0.48906 0.95081 0.0
C1704 C 0.1029 0.42277 0.89317 0.0
C1705 C 0.0836 0.42412 0.90737 0.0
C1706 C 0.03925 0.44288 0.88852 0.0
C1707 C 0.01336 0.46771 0.95656 0.0
C1708 C 0.02815 0.45839 0.94025 0.0
C1709 C 0.07526 0.43789 0.8903 0.0
C1710 C 0.0578 0.44301 0.90816 0.0
H1711 H 0.98856 0.46964 0.03648 0.0
H1712 H 0.01256 0.45415 0.01017 0.0
H1713 H 0.01033 0.44979 0.88845 0.0
H1714 H 0.11381 0.45818 0.81995 0.0
H1715 H 0.07975 0.45984 0.84386 0.0
C1716 C 0.58402 0.68121 0.87229 0.0
C1717 C 0.56802 0.6802 0.84593 0.0
C1718 C 0.58204 0.66007 0.88588 0.0
C1719 C 0.53563 0.60136 0.90689 0.0
H1720 H 0.58011 0.57812 0.90576 0.0
C1721 C 0.50547 0.5044 0.94505 0.0
C1722 C 0.52178 0.49924 0.96143 0.0
C1723 C 0.5129 0.52726 0.93191 0.0
C1724 C 0.56758 0.58448 0.90696 0.0
H1725 H 0.53897 0.65656 0.81091 0.0
H1726 H 0.53553 0.62013 0.83468 0.0
H1727 H 0.59189 0.61736 0.88068 0.0
H1728 H 0.55829 0.51396 0.97858 0.0
H1729 H 0.57128 0.55411 0.9568 0.0
H1730 H 0.51144 0.56915 0.93365 0.0
C1731 C 0.54939 0.63704 0.84505 0.0
C1732 C 0.57439 0.60694 0.89245 0.0
C1733 C 0.55147 0.65795 0.83138 0.0
C1734 C 0.54552 0.51747 0.96533 0.0
C1735 C 0.55293 0.54043 0.95269 0.0
C1736 C 0.52897 0.57919 0.92187 0.0
C1737 C 0.56399 0.63782 0.87333 0.0
C1738 C 0.55827 0.61533 0.89172 0.0
C1739 C 0.53676 0.54568 0.93557 0.0
C1740 C 0.54463 0.57013 0.92151 0.0
H1741 H 0.59675 0.69807 0.88426 0.0
H1742 H 0.59351 0.66104 0.90774 0.0
H1743 H 0.52296 0.60759 0.90692 0.0
H1744 H 0.4871 0.49056 0.94171 0.0
H1745 H 0.49993 0.53031 0.91833 0.0
C1746 C 0.99273 0.50463 0.45088 0.0
C1747 C 0.98662 0.50188 0.48739 0.0
C1748 C 0.00682 0.52732 0.43616 0.0
C1749 C 0.04832 0.59074 0.46101 0.0
H1750 H 0.03622 0.60194 0.36302 0.0
C1751 C 0.10377 0.68294 0.39379 0.0
C1752 C 0.11406 0.68172 0.3613 0.0
C1753 C 0.08499 0.66223 0.40895 0.0
C1754 C 0.03977 0.59911 0.39046 0.0
H1755 H 0.99075 0.5205 0.53734 0.0
H1756 H 0.01502 0.56025 0.51177 0.0
H1757 H 0.01079 0.56326 0.3906 0.0
H1758 H 0.11204 0.65841 0.31821 0.0
H1759 H 0.07886 0.62264 0.34374 0.0
H1760 H 0.07737 0.62668 0.46065 0.0
C1761 C 0.00928 0.54496 0.4944 0.0
C1762 C 0.02532 0.57684 0.40624 0.0
C1763 C 0.99535 0.52222 0.50913 0.0
C1764 C 0.10415 0.65989 0.343 0.0
C1765 C 0.08519 0.63938 0.35773 0.0
C1766 C 0.06262 0.61309 0.44532 0.0
C1767 C 0.01506 0.54788 0.45758 0.0
C1768 C 0.02964 0.57214 0.44153 0.0
C1769 C 0.07597 0.64009 0.39152 0.0
C1770 C 0.05879 0.61743 0.40964 0.0
H1771 H 0.98654 0.48917 0.43375 0.0
H1772 H 0.01136 0.52868 0.40797 0.0
H1773 H 0.05247 0.58784 0.48803 0.0
H1774 H 0.11144 0.69944 0.4088 0.0
H1775 H 0.07815 0.66336 0.43494 0.0
C1776 C 0.48828 0.46039 0.48105 0.0
C1777 C 0.50695 0.48386 0.47642 0.0
C1778 C 0.46588 0.4529 0.46583 0.0
C1779 C 0.43737 0.46457 0.39069 0.0
H1780 H 0.37977 0.43604 0.44777 0.0
C1781 C 0.35186 0.46048 0.34109 0.0
C1782 C 0.32955 0.44348 0.35465 0.0
C1783 C 0.37262 0.46123 0.35277 0.0
C1784 C 0.39552 0.44342 0.43111 0.0
H1785 H 0.51703 0.51795 0.45272 0.0
H1786 H 0.47796 0.50477 0.42517 0.0
H1787 H 0.41771 0.44613 0.47579 0.0
H1788 H 0.31135 0.41265 0.38902 0.0
H1789 H 0.34771 0.41321 0.40851 0.0
H1790 H 0.4155 0.46156 0.34586 0.0
C1791 C 0.48059 0.49221 0.44078 0.0
C1792 C 0.41731 0.44939 0.44734 0.0
C1793 C 0.50282 0.49981 0.45666 0.0
C1794 C 0.32828 0.42588 0.37794 0.0
C1795 C 0.3492 0.42652 0.38957 0.0
C1796 C 0.41558 0.4582 0.3743 0.0
C1797 C 0.46192 0.46865 0.44507 0.0
C1798 C 0.43852 0.46057 0.42747 0.0
C1799 C 0.37176 0.44476 0.37813 0.0
C1800 C 0.39437 0.44814 0.39444 0.0
H1801 H 0.49116 0.44786 0.4963 0.0
H1802 H 0.45182 0.43465 0.46952 0.0
H1803 H 0.4534 0.47276 0.37458 0.0
H1804 H 0.35342 0.47422 0.32294 0.0
H1805 H 0.38943 0.47573 0.34344 0.0
C1806 C 0.55271 0.89744 0.32305 0.0
C1807 C 0.56617 0.8897 0.34222 0.0
C1808 C 0.54997 0.91612 0.33597 0.0
C1809 C 0.56946 0.963 0.40757 0.0
H1810 H 0.50531 0.95157 0.39443 0.0
C1811 C 0.52953 0.01051 0.49073 0.0
C1812 C 0.51724 0.01948 0.47121 0.0
C1813 C 0.53698 0.99603 0.47398 0.0
C1814 C 0.52336 0.95517 0.39807 0.0
H1815 H 0.58806 0.89588 0.38925 0.0
H1816 H 0.58289 0.92821 0.41258 0.0
H1817 H 0.51691 0.92522 0.36622 0.0
H1818 H 0.50229 0.01975 0.41946 0.0
H1819 H 0.51498 0.99416 0.39012 0.0
H1820 H 0.57538 0.99256 0.44071 0.0
C1821 C 0.57491 0.92037 0.38697 0.0
C1822 C 0.53015 0.94013 0.38166 0.0
C1823 C 0.57804 0.90191 0.37354 0.0
C1824 C 0.51199 0.01326 0.43489 0.0
C1825 C 0.51914 0.99853 0.41825 0.0
C1826 C 0.56253 0.9779 0.4244 0.0
C1827 C 0.56004 0.92709 0.36905 0.0
C1828 C 0.55333 0.94383 0.38596 0.0
C1829 C 0.53187 0.98988 0.43752 0.0
C1830 C 0.53941 0.97417 0.41975 0.0
H1831 H 0.54321 0.88815 0.29896 0.0
H1832 H 0.53904 0.92122 0.32071 0.0
H1833 H 0.5875 0.96664 0.41132 0.0
H1834 H 0.53376 0.01512 0.51877 0.0
H1835 H 0.54649 0.98942 0.48966 0.0
C1836 C 0.1722 0.33958 0.29216 0.0
C1837 C 0.1757 0.35871 0.31392 0.0
C1838 C 0.15009 0.32492 0.27586 0.0
C1839 C 0.08616 0.30314 0.28333 0.0
H1840 H 0.08484 0.28968 0.1817 0.0
C1841 C 0.99735 0.23867 0.21094 0.0
C1842 C 0.99867 0.22246 0.18739 0.0
C1843 C 0.01829 0.25854 0.2238 0.0
C1844 C 0.08479 0.29299 0.21018 0.0
H1845 H 0.15876 0.37698 0.33709 0.0
H1846 H 0.1198 0.35099 0.30926 0.0
H1847 H 0.12259 0.31641 0.21086 0.0
H1848 H 0.02279 0.21529 0.15692 0.0
H1849 H 0.05875 0.24911 0.17935 0.0
H1850 H 0.04856 0.2789 0.28317 0.0
C1851 C 0.13424 0.34755 0.30432 0.0
C1852 C 0.1065 0.30841 0.22686 0.0
C1853 C 0.15649 0.36247 0.32007 0.0
C1854 C 0.02115 0.22739 0.17517 0.0
C1855 C 0.0419 0.24702 0.18795 0.0
C1856 C 0.06443 0.28737 0.26677 0.0
C1857 C 0.13087 0.3288 0.28162 0.0
C1858 C 0.10751 0.31339 0.26372 0.0
C1859 C 0.04091 0.2626 0.21323 0.0
C1860 C 0.06346 0.2817 0.23003 0.0
H1861 H 0.18677 0.33637 0.28711 0.0
H1862 H 0.14797 0.31046 0.25883 0.0
H1863 H 0.08638 0.30661 0.31182 0.0
H1864 H 0.98029 0.23525 0.22106 0.0
H1865 H 0.01675 0.27032 0.24277 0.0
C1866 C 0.66259 0.81284 0.31977 0.0
C1867 C 0.65418 0.82402 0.29662 0.0
C1868 C 0.67676 0.80389 0.3067 0.0
C1869 C 0.69548 0.78775 0.22098 0.0
H1870 H 0.74591 0.79092 0.28068 0.0
C1871 C 0.77794 0.78574 0.16816 0.0
C1872 C 0.78675 0.77341 0.18796 0.0
C1873 C 0.75814 0.78685 0.18013 0.0
C1874 C 0.73163 0.78951 0.2639 0.0
H1875 H 0.65463 0.83551 0.24209 0.0
H1876 H 0.6801 0.82076 0.21917 0.0
H1877 H 0.71991 0.80456 0.30449 0.0
H1878 H 0.78134 0.75183 0.23508 0.0
H1879 H 0.74668 0.75399 0.25648 0.0
H1880 H 0.7082 0.77382 0.17979 0.0
C1881 C 0.6751 0.81799 0.24722 0.0
C1882 C 0.71666 0.79736 0.27753 0.0
C1883 C 0.66065 0.82663 0.26029 0.0
C1884 C 0.77459 0.76105 0.21897 0.0
C1885 C 0.75499 0.76255 0.23141 0.0
C1886 C 0.71067 0.78023 0.2072 0.0
C1887 C 0.68322 0.80628 0.27017 0.0
C1888 C 0.69851 0.79687 0.25615 0.0
C1889 C 0.74703 0.77607 0.21262 0.0
C1890 C 0.72906 0.78124 0.2284 0.0
H1891 H 0.65761 0.81047 0.34785 0.0
H1892 H 0.68227 0.79471 0.32519 0.0
H1893 H 0.68141 0.78651 0.20388 0.0
H1894 H 0.78725 0.79573 0.14446 0.0
H1895 H 0.7526 0.79756 0.16522 0.0
C1896 C 0.19879 0.85593 0.33598 0.0
C1897 C 0.18626 0.83527 0.31508 0.0
C1898 C 0.20656 0.87842 0.32093 0.0
C1899 C 0.19448 0.90809 0.24603 0.0
H1900 H 0.2582 0.96039 0.26455 0.0
C1901 C 0.22727 0.99609 0.17265 0.0
C1902 C 0.23901 0.01692 0.19333 0.0
C1903 C 0.22427 0.97461 0.18564 0.0
C1904 C 0.2403 0.94604 0.25931 0.0
H1905 H 0.17105 0.82174 0.26274 0.0
H1906 H 0.18458 0.86089 0.23627 0.0
H1907 H 0.24503 0.92157 0.29214 0.0
H1908 H 0.25778 0.03195 0.24308 0.0
H1909 H 0.25237 0.99426 0.26627 0.0
H1910 H 0.18937 0.93237 0.21397 0.0
C1911 C 0.18862 0.85985 0.2642 0.0
C1912 C 0.23274 0.92378 0.27516 0.0
C1913 C 0.18103 0.83744 0.27919 0.0
C1914 C 0.24916 0.01623 0.22626 0.0
C1915 C 0.24586 0.99456 0.23961 0.0
C1916 C 0.20195 0.93027 0.2304 0.0
C1917 C 0.20164 0.88066 0.28478 0.0
C1918 C 0.20975 0.90451 0.26856 0.0
C1919 C 0.23245 0.97327 0.22009 0.0
C1920 C 0.22502 0.94956 0.23656 0.0
H1921 H 0.20299 0.85466 0.36374 0.0
H1922 H 0.21626 0.89405 0.33766 0.0
H1923 H 0.17652 0.8938 0.2409 0.0
H1924 H 0.21906 0.99614 0.14732 0.0
H1925 H 0.21448 0.95879 0.16933 0.0
C1926 C 0.78198 0.99029 0.68421 0.0
C1927 C 0.7884 0.01337 0.69583 0.0
C1928 C 0.76354 0.97032 0.70069 0.0
C1929 C 0.70956 0.94309 0.75036 0.0
H1930 H 0.7345 0.90623 0.79539 0.0
C1931 C 0.64824 0.85475 0.82602 0.0
C1932 C 0.65351 0.83636 0.82246 0.0
C1933 C 0.66411 0.8777 0.81345 0.0
C1934 C 0.72708 0.91605 0.78266 0.0
H1935 H 0.77919 0.03354 0.73215 0.0
H1936 H 0.74603 0.99809 0.76067 0.0
H1937 H 0.76154 0.94383 0.76637 0.0
H1938 H 0.67952 0.82747 0.80363 0.0
H1939 H 0.707 0.86716 0.78068 0.0
H1940 H 0.67494 0.91477 0.76488 0.0
C1941 C 0.75572 0.99578 0.73887 0.0
C1942 C 0.74266 0.93776 0.76638 0.0
C1943 C 0.77453 0.01601 0.72243 0.0
C1944 C 0.67516 0.84142 0.80681 0.0
C1945 C 0.69092 0.86425 0.79384 0.0
C1946 C 0.69383 0.92109 0.76625 0.0
C1947 C 0.75076 0.97281 0.72897 0.0
C1948 C 0.73407 0.95133 0.74965 0.0
C1949 C 0.68563 0.88278 0.79683 0.0
C1950 C 0.70234 0.90704 0.78212 0.0
H1951 H 0.79216 0.98761 0.66357 0.0
H1952 H 0.75989 0.95283 0.69229 0.0
H1953 H 0.70251 0.95316 0.73736 0.0
H1954 H 0.63181 0.85134 0.83861 0.0
H1955 H 0.65953 0.89146 0.81698 0.0
C1956 C 0.99328 0.75549 0.71547 0.0
C1957 C 0.994 0.76828 0.68466 0.0
C1958 C 0.01424 0.75716 0.72898 0.0
C1959 C 0.07742 0.77692 0.70888 0.0
H1960 H 0.08871 0.79863 0.80771 0.0
C1961 C 0.17201 0.82324 0.77005 0.0
C1962 C 0.17464 0.81964 0.80651 0.0
C1963 C 0.14935 0.8147 0.75513 0.0
C1964 C 0.08584 0.79218 0.78033 0.0
H1965 H 0.01664 0.79134 0.64241 0.0
H1966 H 0.05292 0.79349 0.66505 0.0
H1967 H 0.04978 0.7848 0.78087 0.0
H1968 H 0.15589 0.8045 0.85606 0.0
H1969 H 0.11624 0.78895 0.83014 0.0
H1970 H 0.11337 0.78415 0.70819 0.0
C1971 C 0.03636 0.78234 0.67901 0.0
C1972 C 0.06342 0.78422 0.76493 0.0
C1973 C 0.01555 0.78103 0.66593 0.0
C1974 C 0.15425 0.80763 0.82793 0.0
C1975 C 0.13155 0.7988 0.81298 0.0
C1976 C 0.09976 0.78457 0.72441 0.0
C1977 C 0.03615 0.77129 0.71153 0.0
C1978 C 0.05904 0.77683 0.72888 0.0
C1979 C 0.12872 0.80212 0.77628 0.0
C1980 C 0.10446 0.79272 0.76022 0.0
H1981 H 0.977 0.74595 0.73082 0.0
H1982 H 0.01352 0.74831 0.75397 0.0
H1983 H 0.07455 0.77122 0.68108 0.0
H1984 H 0.18754 0.83276 0.75317 0.0
H1985 H 0.14809 0.81821 0.72705 0.0
C1986 C 0.24616 0.23375 0.73212 0.0
C1987 C 0.23708 0.22441 0.69803 0.0
C1988 C 0.24353 0.25234 0.74625 0.0
C1989 C 0.20378 0.2778 0.73434 0.0
H1990 H 0.24469 0.32287 0.80632 0.0
C1991 C 0.17272 0.33286 0.81573 0.0
C1992 C 0.18958 0.35653 0.824 0.0
C1993 C 0.17981 0.3175 0.80119 0.0
C1994 C 0.23314 0.31061 0.78596 0.0
H1995 H 0.21963 0.22799 0.65097 0.0
H1996 H 0.21653 0.26138 0.67423 0.0
H1997 H 0.25691 0.29729 0.77669 0.0
H1998 H 0.22735 0.38194 0.82655 0.0
H1999 H 0.2397 0.35582 0.79933 0.0
H2000 H 0.18043 0.2916 0.74247 0.0
C2001 C 0.22482 0.25394 0.69093 0.0
C2002 C 0.24005 0.29567 0.76922 0.0
C2003 C 0.22702 0.2351 0.67721 0.0
C2004 C 0.21381 0.36416 0.81896 0.0
C2005 C 0.22093 0.34893 0.80401 0.0
C2006 C 0.19702 0.29288 0.75071 0.0
C2007 C 0.23195 0.26207 0.72633 0.0
C2008 C 0.22543 0.27897 0.7432 0.0
C2009 C 0.20401 0.32542 0.79446 0.0
C2010 C 0.21148 0.30942 0.77697 0.0
H2011 H 0.25344 0.22537 0.74902 0.0
H2012 H 0.24914 0.2579 0.77364 0.0
H2013 H 0.19166 0.2649 0.71511 0.0
H2014 H 0.15396 0.32638 0.81992 0.0
H2015 H 0.16624 0.29937 0.79523 0.0
C2016 C 0.65904 0.5688 0.55157 0.0
C2017 C 0.6604 0.55883 0.51882 0.0
C2018 C 0.67955 0.58798 0.56663 0.0
C2019 C 0.74198 0.63482 0.54773 0.0
H2020 H 0.75469 0.62237 0.6446 0.0
C2021 C 0.83696 0.68417 0.6073 0.0
C2022 C 0.83982 0.68955 0.6441 0.0
C2023 C 0.81425 0.66991 0.59258 0.0
C2024 C 0.75139 0.62648 0.6178 0.0
H2025 H 0.68373 0.56182 0.47519 0.0
H2026 H 0.7191 0.59567 0.50057 0.0
H2027 H 0.7159 0.59659 0.61754 0.0
H2028 H 0.82133 0.68409 0.69448 0.0
H2029 H 0.78157 0.65966 0.66893 0.0
H2030 H 0.77737 0.66467 0.54779 0.0
C2031 C 0.70241 0.58879 0.51484 0.0
C2032 C 0.72905 0.61164 0.60228 0.0
C2033 C 0.68212 0.56944 0.5002 0.0
C2034 C 0.81955 0.68009 0.66603 0.0
C2035 C 0.79679 0.66604 0.6513 0.0
C2036 C 0.76423 0.64982 0.56336 0.0
C2037 C 0.70162 0.59772 0.54886 0.0
C2038 C 0.7242 0.61538 0.56684 0.0
C2039 C 0.79376 0.66078 0.61428 0.0
C2040 C 0.76946 0.64563 0.59842 0.0
H2041 H 0.64265 0.56063 0.56683 0.0
H2042 H 0.67835 0.59458 0.59281 0.0
H2043 H 0.73875 0.6383 0.52047 0.0
H2044 H 0.85237 0.69085 0.58998 0.0
H2045 H 0.81284 0.66583 0.56419 0.0
C2046 C 0.32535 0.15638 0.61286 0.0
C2047 C 0.31836 0.15237 0.64898 0.0
C2048 C 0.33953 0.14778 0.59853 0.0
C2049 C 0.3799 0.12499 0.6251 0.0
H2050 H 0.37104 0.10423 0.5258 0.0
C2051 C 0.43733 0.08989 0.56043 0.0
C2052 C 0.44885 0.1024 0.52915 0.0
C2053 C 0.41802 0.09138 0.57432 0.0
C2054 C 0.37367 0.10989 0.55361 0.0
H2055 H 0.32084 0.13656 0.69863 0.0
H2056 H 0.34517 0.12103 0.67371 0.0
H2057 H 0.34478 0.11683 0.55222 0.0
H2058 H 0.44853 0.12497 0.48672 0.0
H2059 H 0.4145 0.1269 0.51009 0.0
H2060 H 0.40885 0.11804 0.62629 0.0
C2061 C 0.34012 0.13113 0.65637 0.0
C2062 C 0.35874 0.11733 0.56874 0.0
C2063 C 0.32614 0.13996 0.67072 0.0
C2064 C 0.43973 0.11492 0.51065 0.0
C2065 C 0.42026 0.11605 0.5241 0.0
C2066 C 0.39465 0.1173 0.61006 0.0
C2067 C 0.34695 0.13481 0.61998 0.0
C2068 C 0.36192 0.12543 0.60452 0.0
C2069 C 0.40974 0.10506 0.5568 0.0
C2070 C 0.39199 0.11006 0.57396 0.0
H2071 H 0.31993 0.1663 0.59577 0.0
H2072 H 0.34487 0.15156 0.57068 0.0
H2073 H 0.38319 0.13137 0.65253 0.0
H2074 H 0.44435 0.08052 0.57553 0.0
H2075 H 0.41017 0.08261 0.59948 0.0
C2076 C 0.91611 0.34819 0.55494 0.0
C2077 C 0.90138 0.34732 0.52666 0.0
C2078 C 0.91482 0.3272 0.56752 0.0
C2079 C 0.89276 0.26369 0.5463 0.0
H2080 H 0.87931 0.25346 0.64816 0.0
C2081 C 0.8502 0.16964 0.60816 0.0
C2082 C 0.85687 0.16718 0.64302 0.0
C2083 C 0.85785 0.19224 0.59373 0.0
C2084 C 0.88345 0.25604 0.6198 0.0
H2085 H 0.87499 0.32425 0.48785 0.0
H2086 H 0.87335 0.28794 0.50884 0.0
H2087 H 0.89132 0.29225 0.62217 0.0
H2088 H 0.8765 0.18619 0.6903 0.0
H2089 H 0.89044 0.22573 0.66508 0.0
H2090 H 0.88499 0.22759 0.54374 0.0
C2091 C 0.88575 0.30464 0.52156 0.0
C2092 C 0.89037 0.27837 0.60491 0.0
C2093 C 0.88672 0.32546 0.50948 0.0
C2094 C 0.87103 0.1877 0.66342 0.0
C2095 C 0.87894 0.21032 0.6489 0.0
C2096 C 0.88613 0.24144 0.56124 0.0
C2097 C 0.8991 0.30511 0.55156 0.0
C2098 C 0.89474 0.28234 0.5679 0.0
C2099 C 0.87255 0.21296 0.61375 0.0
C2100 C 0.88095 0.23713 0.59813 0.0
H2101 H 0.92727 0.36474 0.56902 0.0
H2102 H 0.92544 0.32811 0.59055 0.0
H2103 H 0.89617 0.26625 0.51772 0.0
H2104 H 0.83892 0.15404 0.5922 0.0
H2105 H 0.852 0.1934 0.56697 0.0
C2106 C 0.32902 0.17136 0.10764 0.0
C2107 C 0.32229 0.16988 0.14373 0.0
C2108 C 0.34378 0.1935 0.09166 0.0
C2109 C 0.38541 0.25766 0.11381 0.0
H2110 H 0.37839 0.26586 0.01227 0.0
C2111 C 0.44286 0.34801 0.04174 0.0
C2112 C 0.45552 0.34611 0.01261 0.0
C2113 C 0.42366 0.3275 0.05663 0.0
C2114 C 0.38048 0.26386 0.04069 0.0
H2115 H 0.32564 0.19016 0.19155 0.0
H2116 H 0.35075 0.22894 0.16367 0.0
H2117 H 0.35124 0.22816 0.04119 0.0
H2118 H 0.45737 0.32166 0.97501 0.0
H2119 H 0.42338 0.28615 -0.00014 0.0
H2120 H 0.41456 0.29358 0.11308 0.0
C2121 C 0.34523 0.21311 0.14765 0.0
C2122 C 0.36507 0.24213 0.0573 0.0
C2123 C 0.33077 0.19091 0.16371 0.0
C2124 C 0.44769 0.32364 -0.00283 0.0
C2125 C 0.42827 0.3033 0.01147 0.0
C2126 C 0.40057 0.2795 0.09728 0.0
C2127 C 0.35196 0.21479 0.11129 0.0
C2128 C 0.36755 0.23851 0.09401 0.0
C2129 C 0.41654 0.30487 0.04212 0.0
C2130 C 0.39853 0.28272 0.06042 0.0
H2131 H 0.32297 0.15533 0.09189 0.0
H2132 H 0.34897 0.19383 0.06396 0.0
H2133 H 0.38827 0.25564 0.1419 0.0
H2134 H 0.44883 0.36505 0.05458 0.0
H2135 H 0.41488 0.32924 0.0802 0.0
C2136 C 0.82524 0.13301 0.15002 0.0
C2137 C 0.84402 0.15646 0.14568 0.0
C2138 C 0.80248 0.12609 0.13678 0.0
C2139 C 0.76535 0.15133 0.1035 0.0
H2140 H 0.72581 0.08816 0.06362 0.0
C2141 C 0.68538 0.13009 0.01576 0.0
C2142 C 0.66323 0.11149 0.02747 0.0
C2143 C 0.70654 0.1328 0.02952 0.0
C2144 C 0.73661 0.10577 0.07497 0.0
H2145 H 0.85382 0.1911 0.12455 0.0
H2146 H 0.81443 0.1791 0.10031 0.0
H2147 H 0.76472 0.09916 0.08937 0.0
H2148 H 0.64604 0.08002 0.06082 0.0
H2149 H 0.68355 0.08447 0.0845 0.0
H2150 H 0.73761 0.15817 0.08787 0.0
C2151 C 0.81691 0.16601 0.11462 0.0
C2152 C 0.75889 0.11211 0.08987 0.0
C2153 C 0.83957 0.17296 0.12829 0.0
C2154 C 0.66282 0.09442 0.05113 0.0
C2155 C 0.68424 0.09707 0.06482 0.0
C2156 C 0.74333 0.14511 0.08819 0.0
C2157 C 0.79797 0.14245 0.11866 0.0
C2158 C 0.77373 0.13512 0.10402 0.0
C2159 C 0.70624 0.11686 0.05515 0.0
C2160 C 0.72883 0.12238 0.07339 0.0
H2161 H 0.82817 0.1201 0.16401 0.0
H2162 H 0.78838 0.10797 0.14119 0.0
H2163 H 0.77577 0.16894 0.11496 0.0
H2164 H 0.68635 0.14339 -0.00281 0.0
H2165 H 0.72322 0.14795 0.02105 0.0
C2166 C 0.92088 0.57309 0.05855 0.0
C2167 C 0.90797 0.56126 0.02762 0.0
C2168 C 0.91977 0.59266 0.07215 0.0
C2169 C 0.90122 0.637 0.05196 0.0
H2170 H 0.88008 0.62729 0.15099 0.0
C2171 C 0.85547 0.68566 0.11256 0.0
C2172 C 0.8596 0.6925 0.14878 0.0
C2173 C 0.86384 0.67138 0.09791 0.0
C2174 C 0.88637 0.63064 0.12353 0.0
H2175 H 0.88533 0.56157 0.9852 0.0
H2176 H 0.88405 0.59608 0.0081 0.0
H2177 H 0.89323 0.60164 0.12421 0.0
H2178 H 0.87536 0.68966 0.19826 0.0
H2179 H 0.89055 0.66516 0.17277 0.0
H2180 H 0.8944 0.66597 0.05111 0.0
C2181 C 0.89488 0.59028 0.02208 0.0
C2182 C 0.89395 0.61589 0.10819 0.0
C2183 C 0.89566 0.57055 0.00888 0.0
C2184 C 0.87187 0.68446 0.17029 0.0
C2185 C 0.8805 0.67039 0.1556 0.0
C2186 C 0.8939 0.65194 0.06741 0.0
C2187 C 0.90606 0.60093 0.05469 0.0
C2188 C 0.90109 0.61864 0.07206 0.0
C2189 C 0.87673 0.66373 0.1191 0.0
C2190 C 0.88594 0.64871 0.10325 0.0
H2191 H 0.93013 0.56602 0.07385 0.0
H2192 H 0.92873 0.60064 0.0972 0.0
H2193 H 0.90677 0.63966 0.02412 0.0
H2194 H 0.84569 0.69134 0.09565 0.0
H2195 H 0.85998 0.66617 0.07 0.0
loop_
_geom_bond_atom_site_label_1
_geom_bond_atom_site_label_2
_geom_bond_distance
_geom_bond_site_symmetry_2
_ccdc_geom_bond_type
Zn0 O1 2.055 . S
Zn0 O8 2.046 . S
Zn0 N16 2.036 . S
Zn0 O28 2.053 . S
Zn0 O30 2.066 1_554 S
O1 Zn0 2.055 . S
O1 C4 1.259 . S
C2 O30 1.256 . S
C2 O31 1.244 . S
Zn3 O5 2.046 . S
Zn3 O7 2.055 . S
Zn3 N9 2.036 . S
Zn3 O27 2.066 . S
Zn3 O31 2.053 1_554 S
C4 O1 1.259 . S
C4 O5 1.254 . S
O5 Zn3 2.046 . S
O5 C4 1.254 . S
C6 O27 1.256 . S
C6 O28 1.244 . S
O7 Zn3 2.055 . S
O7 C29 1.259 . S
O8 Zn0 2.046 . S
O8 C29 1.254 . S
N9 Zn3 2.036 . S
N9 C10 1.298 . S
N9 N12 1.398 1_554 S
C10 N9 1.298 . S
C10 N13 1.367 . S
C10 C23 1.481 . S
C11 N12 1.299 . S
C11 N13 1.379 1_556 S
N12 N9 1.398 1_556 S
N12 C11 1.299 . S
N13 C10 1.367 . S
N13 C11 1.379 1_554 S
C14 N16 1.298 1_556 S
C14 N18 1.367 . S
C14 C22 1.481 . S
C15 N17 1.299 . S
C15 N18 1.379 1_554 S
N16 Zn0 2.036 . S
N16 C14 1.298 1_554 S
N16 N17 1.398 . S
N17 C15 1.299 . S
N17 N16 1.398 . S
N18 C14 1.367 . S
N18 C15 1.379 1_556 S
H19 C22 0.980 . S
H20 C22 0.981 . S
H21 C22 0.981 . S
C22 C14 1.481 . S
C22 H19 0.980 . S
C22 H20 0.981 . S
C22 H21 0.981 . S
C23 C10 1.481 . S
C23 H24 0.980 . S
C23 H25 0.981 . S
C23 H26 0.981 . S
H24 C23 0.980 . S
H25 C23 0.981 . S
H26 C23 0.981 . S
O27 Zn3 2.066 . S
O27 C6 1.256 . S
O28 Zn0 2.053 . S
O28 C6 1.244 . S
C29 O7 1.259 . S
C29 O8 1.254 . S
O30 Zn0 2.066 1_556 S
O30 C2 1.256 . S
O31 C2 1.244 . S
O31 Zn3 2.053 1_556 S
Zn32 O33 2.055 . S
Zn32 O40 2.046 . S
Zn32 N48 2.036 . S
Zn32 O60 2.053 . S
Zn32 O62 2.066 1_554 S
O33 Zn32 2.055 . S
O33 C36 1.259 . S
C34 O62 1.256 . S
C34 O63 1.244 . S
Zn35 O37 2.046 . S
Zn35 O39 2.055 . S
Zn35 N41 2.036 . S
Zn35 O59 2.066 . S
Zn35 O63 2.053 1_554 S
C36 O33 1.259 . S
C36 O37 1.254 . S
O37 Zn35 2.046 . S
O37 C36 1.254 . S
C38 O59 1.256 . S
C38 O60 1.244 . S
O39 Zn35 2.055 . S
O39 C61 1.259 . S
O40 Zn32 2.046 . S
O40 C61 1.254 . S
N41 Zn35 2.036 . S
N41 C42 1.298 . S
N41 N44 1.398 1_554 S
C42 N41 1.298 . S
C42 N45 1.367 . S
C42 C55 1.481 . S
C43 N44 1.299 . S
C43 N45 1.379 1_556 S
N44 N41 1.398 1_556 S
N44 C43 1.299 . S
N45 C42 1.367 . S
N45 C43 1.379 1_554 S
C46 N48 1.298 1_556 S
C46 N50 1.367 . S
C46 C54 1.481 . S
C47 N49 1.299 . S
C47 N50 1.379 1_554 S
N48 Zn32 2.036 . S
N48 C46 1.298 1_554 S
N48 N49 1.398 . S
N49 C47 1.299 . S
N49 N48 1.398 . S
N50 C46 1.367 . S
N50 C47 1.379 1_556 S
H51 C54 0.980 . S
H52 C54 0.981 . S
H53 C54 0.981 . S
C54 C46 1.481 . S
C54 H51 0.980 . S
C54 H52 0.981 . S
C54 H53 0.981 . S
C55 C42 1.481 . S
C55 H56 0.980 . S
C55 H57 0.981 . S
C55 H58 0.981 . S
H56 C55 0.980 . S
H57 C55 0.981 . S
H58 C55 0.981 . S
O59 Zn35 2.066 . S
O59 C38 1.256 . S
O60 Zn32 2.053 . S
O60 C38 1.244 . S
C61 O39 1.259 . S
C61 O40 1.254 . S
O62 Zn32 2.066 1_556 S
O62 C34 1.256 . S
O63 C34 1.244 . S
O63 Zn35 2.053 1_556 S
Zn64 O65 2.055 . S
Zn64 O72 2.046 . S
Zn64 N80 2.036 . S
Zn64 O92 2.053 . S
Zn64 O94 2.066 1_554 S
O65 Zn64 2.055 . S
O65 C68 1.259 . S
C66 O94 1.256 . S
C66 O95 1.244 . S
Zn67 O69 2.046 . S
Zn67 O71 2.055 . S
Zn67 N73 2.036 . S
Zn67 O91 2.066 . S
Zn67 O95 2.053 1_554 S
C68 O65 1.259 . S
C68 O69 1.254 . S
O69 Zn67 2.046 . S
O69 C68 1.254 . S
C70 O91 1.256 . S
C70 O92 1.244 . S
O71 Zn67 2.055 . S
O71 C93 1.259 . S
O72 Zn64 2.046 . S
O72 C93 1.254 . S
N73 Zn67 2.036 . S
N73 C74 1.298 . S
N73 N76 1.398 1_554 S
C74 N73 1.298 . S
C74 N77 1.367 . S
C74 C87 1.481 . S
C75 N76 1.299 . S
C75 N77 1.379 1_556 S
N76 N73 1.398 1_556 S
N76 C75 1.299 . S
N77 C74 1.367 . S
N77 C75 1.379 1_554 S
C78 N80 1.298 1_556 S
C78 N82 1.367 . S
C78 C86 1.481 . S
C79 N81 1.299 . S
C79 N82 1.379 1_554 S
N80 Zn64 2.036 . S
N80 C78 1.298 1_554 S
N80 N81 1.398 . S
N81 C79 1.299 . S
N81 N80 1.398 . S
N82 C78 1.367 . S
N82 C79 1.379 1_556 S
H83 C86 0.980 . S
H84 C86 0.981 . S
H85 C86 0.981 . S
C86 C78 1.481 . S
C86 H83 0.980 . S
C86 H84 0.981 . S
C86 H85 0.981 . S
C87 C74 1.481 . S
C87 H88 0.980 . S
C87 H89 0.981 . S
C87 H90 0.981 . S
H88 C87 0.980 . S
H89 C87 0.981 . S
H90 C87 0.981 . S
O91 Zn67 2.066 . S
O91 C70 1.256 . S
O92 Zn64 2.053 . S
O92 C70 1.244 . S
C93 O71 1.259 . S
C93 O72 1.254 . S
O94 Zn64 2.066 1_556 S
O94 C66 1.256 . S
O95 C66 1.244 . S
O95 Zn67 2.053 1_556 S
Zn96 O97 2.055 . S
Zn96 O104 2.046 . S
Zn96 N112 2.036 . S
Zn96 O124 2.053 . S
Zn96 O126 2.066 . S
O97 Zn96 2.055 . S
O97 C100 1.259 . S
C98 O126 1.256 . S
C98 O127 1.244 . S
Zn99 O101 2.046 . S
Zn99 O103 2.055 . S
Zn99 N105 2.036 . S
Zn99 O123 2.066 . S
Zn99 O127 2.053 . S
C100 O97 1.259 . S
C100 O101 1.254 . S
O101 Zn99 2.046 . S
O101 C100 1.254 . S
C102 O123 1.256 . S
C102 O124 1.244 . S
O103 Zn99 2.055 . S
O103 C125 1.259 . S
O104 Zn96 2.046 . S
O104 C125 1.254 . S
N105 Zn99 2.036 . S
N105 C106 1.298 . S
N105 N108 1.398 . S
C106 N105 1.298 . S
C106 N109 1.367 . S
C106 C119 1.481 . S
C107 N108 1.299 . S
C107 N109 1.379 . S
N108 N105 1.398 . S
N108 C107 1.299 . S
N109 C106 1.367 . S
N109 C107 1.379 . S
C110 N112 1.298 . S
C110 N114 1.367 . S
C110 C118 1.481 . S
C111 N113 1.299 . S
C111 N114 1.379 . S
N112 Zn96 2.036 . S
N112 C110 1.298 . S
N112 N113 1.398 . S
N113 C111 1.299 . S
N113 N112 1.398 . S
N114 C110 1.367 . S
N114 C111 1.379 . S
H115 C118 0.980 . S
H116 C118 0.981 . S
H117 C118 0.981 . S
C118 C110 1.481 . S
C118 H115 0.980 . S
C118 H116 0.981 . S
C118 H117 0.981 . S
C119 C106 1.481 . S
C119 H120 0.980 . S
C119 H121 0.981 . S
C119 H122 0.981 . S
H120 C119 0.980 . S
H121 C119 0.981 . S
H122 C119 0.981 . S
O123 Zn99 2.066 . S
O123 C102 1.256 . S
O124 Zn96 2.053 . S
O124 C102 1.244 . S
C125 O103 1.259 . S
C125 O104 1.254 . S
O126 Zn96 2.066 . S
O126 C98 1.256 . S
O127 C98 1.244 . S
O127 Zn99 2.053 . S
Zn128 O129 2.055 . S
Zn128 O136 2.046 . S
Zn128 N144 2.036 . S
Zn128 O156 2.053 . S
Zn128 O158 2.066 . S
O129 Zn128 2.055 . S
O129 C132 1.259 . S
C130 O158 1.256 . S
C130 O159 1.244 . S
Zn131 O133 2.046 . S
Zn131 O135 2.055 . S
Zn131 N137 2.036 . S
Zn131 O155 2.066 . S
Zn131 O159 2.053 . S
C132 O129 1.259 . S
C132 O133 1.254 . S
O133 Zn131 2.046 . S
O133 C132 1.254 . S
C134 O155 1.256 . S
C134 O156 1.244 . S
O135 Zn131 2.055 . S
O135 C157 1.259 . S
O136 Zn128 2.046 . S
O136 C157 1.254 . S
N137 Zn131 2.036 . S
N137 C138 1.298 . S
N137 N140 1.398 . S
C138 N137 1.298 . S
C138 N141 1.367 . S
C138 C151 1.481 . S
C139 N140 1.299 . S
C139 N141 1.379 . S
N140 N137 1.398 . S
N140 C139 1.299 . S
N141 C138 1.367 . S
N141 C139 1.379 . S
C142 N144 1.298 . S
C142 N146 1.367 . S
C142 C150 1.481 . S
C143 N145 1.299 . S
C143 N146 1.379 . S
N144 Zn128 2.036 . S
N144 C142 1.298 . S
N144 N145 1.398 . S
N145 C143 1.299 . S
N145 N144 1.398 . S
N146 C142 1.367 . S
N146 C143 1.379 . S
H147 C150 0.980 . S
H148 C150 0.981 . S
H149 C150 0.981 . S
C150 C142 1.481 . S
C150 H147 0.980 . S
C150 H148 0.981 . S
C150 H149 0.981 . S
C151 C138 1.481 . S
C151 H152 0.980 . S
C151 H153 0.981 . S
C151 H154 0.981 . S
H152 C151 0.980 . S
H153 C151 0.981 . S
H154 C151 0.981 . S
O155 Zn131 2.066 . S
O155 C134 1.256 . S
O156 Zn128 2.053 . S
O156 C134 1.244 . S
C157 O135 1.259 . S
C157 O136 1.254 . S
O158 Zn128 2.066 . S
O158 C130 1.256 . S
O159 C130 1.244 . S
O159 Zn131 2.053 . S
Zn160 O161 2.055 . S
Zn160 O168 2.046 . S
Zn160 N176 2.036 . S
Zn160 O188 2.053 . S
Zn160 O190 2.066 . S
O161 Zn160 2.055 . S
O161 C164 1.259 . S
C162 O190 1.256 . S
C162 O191 1.244 . S
Zn163 O165 2.046 . S
Zn163 O167 2.055 . S
Zn163 N169 2.036 . S
Zn163 O187 2.066 . S
Zn163 O191 2.053 . S
C164 O161 1.259 . S
C164 O165 1.254 . S
O165 Zn163 2.046 . S
O165 C164 1.254 . S
C166 O187 1.256 . S
C166 O188 1.244 . S
O167 Zn163 2.055 . S
O167 C189 1.259 . S
O168 Zn160 2.046 . S
O168 C189 1.254 . S
N169 Zn163 2.036 . S
N169 C170 1.298 . S
N169 N172 1.398 . S
C170 N169 1.298 . S
C170 N173 1.367 . S
C170 C183 1.481 . S
C171 N172 1.299 . S
C171 N173 1.379 . S
N172 N169 1.398 . S
N172 C171 1.299 . S
N173 C170 1.367 . S
N173 C171 1.379 . S
C174 N176 1.298 . S
C174 N178 1.367 . S
C174 C182 1.481 . S
C175 N177 1.299 . S
C175 N178 1.379 . S
N176 Zn160 2.036 . S
N176 C174 1.298 . S
N176 N177 1.398 . S
N177 C175 1.299 . S
N177 N176 1.398 . S
N178 C174 1.367 . S
N178 C175 1.379 . S
H179 C182 0.980 . S
H180 C182 0.981 . S
H181 C182 0.981 . S
C182 C174 1.481 . S
C182 H179 0.980 . S
C182 H180 0.981 . S
C182 H181 0.981 . S
C183 C170 1.481 . S
C183 H184 0.980 . S
C183 H185 0.981 . S
C183 H186 0.981 . S
H184 C183 0.980 . S
H185 C183 0.981 . S
H186 C183 0.981 . S
O187 Zn163 2.066 . S
O187 C166 1.256 . S
O188 Zn160 2.053 . S
O188 C166 1.244 . S
C189 O167 1.259 . S
C189 O168 1.254 . S
O190 Zn160 2.066 . S
O190 C162 1.256 . S
O191 C162 1.244 . S
O191 Zn163 2.053 . S
Zn192 O193 2.055 . S
Zn192 O200 2.046 . S
Zn192 N208 2.036 . S
Zn192 O220 2.053 . S
Zn192 O222 2.066 . S
O193 Zn192 2.055 . S
O193 C196 1.259 . S
C194 O222 1.256 . S
C194 O223 1.244 . S
Zn195 O197 2.046 . S
Zn195 O199 2.055 . S
Zn195 N201 2.036 . S
Zn195 O219 2.066 . S
Zn195 O223 2.053 . S
C196 O193 1.259 . S
C196 O197 1.254 . S
O197 Zn195 2.046 . S
O197 C196 1.254 . S
C198 O219 1.256 . S
C198 O220 1.244 . S
O199 Zn195 2.055 . S
O199 C221 1.259 . S
O200 Zn192 2.046 . S
O200 C221 1.254 . S
N201 Zn195 2.036 . S
N201 C202 1.298 . S
N201 N204 1.398 . S
C202 N201 1.298 . S
C202 N205 1.367 . S
C202 C215 1.481 . S
C203 N204 1.299 . S
C203 N205 1.379 . S
N204 N201 1.398 . S
N204 C203 1.299 . S
N205 C202 1.367 . S
N205 C203 1.379 . S
C206 N208 1.298 . S
C206 N210 1.367 . S
C206 C214 1.481 . S
C207 N209 1.299 . S
C207 N210 1.379 . S
N208 Zn192 2.036 . S
N208 C206 1.298 . S
N208 N209 1.398 . S
N209 C207 1.299 . S
N209 N208 1.398 . S
N210 C206 1.367 . S
N210 C207 1.379 . S
H211 C214 0.980 . S
H212 C214 0.981 . S
H213 C214 0.981 . S
C214 C206 1.481 . S
C214 H211 0.980 . S
C214 H212 0.981 . S
C214 H213 0.981 . S
C215 C202 1.481 . S
C215 H216 0.980 . S
C215 H217 0.981 . S
C215 H218 0.981 . S
H216 C215 0.980 . S
H217 C215 0.981 . S
H218 C215 0.981 . S
O219 Zn195 2.066 . S
O219 C198 1.256 . S
O220 Zn192 2.053 . S
O220 C198 1.244 . S
C221 O199 1.259 . S
C221 O200 1.254 . S
O222 Zn192 2.066 . S
O222 C194 1.256 . S
O223 C194 1.244 . S
O223 Zn195 2.053 . S
Zn224 O225 2.055 . S
Zn224 O232 2.046 . S
Zn224 N240 2.036 . S
Zn224 O252 2.053 . S
Zn224 O254 2.066 . S
O225 Zn224 2.055 . S
O225 C228 1.259 . S
C226 O254 1.256 . S
C226 O255 1.244 . S
Zn227 O229 2.046 . S
Zn227 O231 2.055 . S
Zn227 N233 2.036 . S
Zn227 O251 2.066 . S
Zn227 O255 2.053 . S
C228 O225 1.259 . S
C228 O229 1.254 . S
O229 Zn227 2.046 . S
O229 C228 1.254 . S
C230 O251 1.256 . S
C230 O252 1.244 . S
O231 Zn227 2.055 . S
O231 C253 1.259 . S
O232 Zn224 2.046 . S
O232 C253 1.254 . S
N233 Zn227 2.036 . S
N233 C234 1.298 . S
N233 N236 1.398 . S
C234 N233 1.298 . S
C234 N237 1.367 . S
C234 C247 1.481 . S
C235 N236 1.299 . S
C235 N237 1.379 . S
N236 N233 1.398 . S
N236 C235 1.299 . S
N237 C234 1.367 . S
N237 C235 1.379 . S
C238 N240 1.298 . S
C238 N242 1.367 . S
C238 C246 1.481 . S
C239 N241 1.299 . S
C239 N242 1.379 . S
N240 Zn224 2.036 . S
N240 C238 1.298 . S
N240 N241 1.398 . S
N241 C239 1.299 . S
N241 N240 1.398 . S
N242 C238 1.367 . S
N242 C239 1.379 . S
H243 C246 0.980 . S
H244 C246 0.981 . S
H245 C246 0.981 . S
C246 C238 1.481 . S
C246 H243 0.980 . S
C246 H244 0.981 . S
C246 H245 0.981 . S
C247 C234 1.481 . S
C247 H248 0.980 . S
C247 H249 0.981 . S
C247 H250 0.981 . S
H248 C247 0.980 . S
H249 C247 0.981 . S
H250 C247 0.981 . S
O251 Zn227 2.066 . S
O251 C230 1.256 . S
O252 Zn224 2.053 . S
O252 C230 1.244 . S
C253 O231 1.259 . S
C253 O232 1.254 . S
O254 Zn224 2.066 . S
O254 C226 1.256 . S
O255 C226 1.244 . S
O255 Zn227 2.053 . S
Zn256 O257 2.055 . S
Zn256 O264 2.046 . S
Zn256 N272 2.036 . S
Zn256 O284 2.053 . S
Zn256 O286 2.066 . S
O257 Zn256 2.055 . S
O257 C260 1.259 . S
C258 O286 1.256 . S
C258 O287 1.244 . S
Zn259 O261 2.046 . S
Zn259 O263 2.055 . S
Zn259 N265 2.036 . S
Zn259 O283 2.066 . S
Zn259 O287 2.053 . S
C260 O257 1.259 . S
C260 O261 1.254 . S
O261 Zn259 2.046 . S
O261 C260 1.254 . S
C262 O283 1.256 . S
C262 O284 1.244 . S
O263 Zn259 2.055 . S
O263 C285 1.259 . S
O264 Zn256 2.046 . S
O264 C285 1.254 . S
N265 Zn259 2.036 . S
N265 C266 1.298 . S
N265 N268 1.398 . S
C266 N265 1.298 . S
C266 N269 1.367 . S
C266 C279 1.481 . S
C267 N268 1.299 . S
C267 N269 1.379 . S
N268 N265 1.398 . S
N268 C267 1.299 . S
N269 C266 1.367 . S
N269 C267 1.379 . S
C270 N272 1.298 . S
C270 N274 1.367 . S
C270 C278 1.481 . S
C271 N273 1.299 . S
C271 N274 1.379 . S
N272 Zn256 2.036 . S
N272 C270 1.298 . S
N272 N273 1.398 . S
N273 C271 1.299 . S
N273 N272 1.398 . S
N274 C270 1.367 . S
N274 C271 1.379 . S
H275 C278 0.980 . S
H276 C278 0.981 . S
H277 C278 0.981 . S
C278 C270 1.481 . S
C278 H275 0.980 . S
C278 H276 0.981 . S
C278 H277 0.981 . S
C279 C266 1.481 . S
C279 H280 0.980 . S
C279 H281 0.981 . S
C279 H282 0.981 . S
H280 C279 0.980 . S
H281 C279 0.981 . S
H282 C279 0.981 . S
O283 Zn259 2.066 . S
O283 C262 1.256 . S
O284 Zn256 2.053 . S
O284 C262 1.244 . S
C285 O263 1.259 . S
C285 O264 1.254 . S
O286 Zn256 2.066 . S
O286 C258 1.256 . S
O287 C258 1.244 . S
O287 Zn259 2.053 . S
Zn288 O289 2.055 . S
Zn288 O296 2.046 . S
Zn288 N304 2.036 . S
Zn288 O316 2.053 . S
Zn288 O318 2.066 . S
O289 Zn288 2.055 . S
O289 C292 1.259 . S
C290 O318 1.256 . S
C290 O319 1.244 . S
Zn291 O293 2.046 . S
Zn291 O295 2.055 . S
Zn291 N297 2.036 . S
Zn291 O315 2.066 . S
Zn291 O319 2.053 . S
C292 O289 1.259 . S
C292 O293 1.254 . S
O293 Zn291 2.046 . S
O293 C292 1.254 . S
C294 O315 1.256 . S
C294 O316 1.244 . S
O295 Zn291 2.055 . S
O295 C317 1.259 . S
O296 Zn288 2.046 . S
O296 C317 1.254 . S
N297 Zn291 2.036 . S
N297 C298 1.298 . S
N297 N300 1.398 . S
C298 N297 1.298 . S
C298 N301 1.367 . S
C298 C311 1.481 . S
C299 N300 1.299 . S
C299 N301 1.379 . S
N300 N297 1.398 . S
N300 C299 1.299 . S
N301 C298 1.367 . S
N301 C299 1.379 . S
C302 N304 1.298 . S
C302 N306 1.367 . S
C302 C310 1.481 . S
C303 N305 1.299 . S
C303 N306 1.379 . S
N304 Zn288 2.036 . S
N304 C302 1.298 . S
N304 N305 1.398 . S
N305 C303 1.299 . S
N305 N304 1.398 . S
N306 C302 1.367 . S
N306 C303 1.379 . S
H307 C310 0.980 . S
H308 C310 0.981 . S
H309 C310 0.981 . S
C310 C302 1.481 . S
C310 H307 0.980 . S
C310 H308 0.981 . S
C310 H309 0.981 . S
C311 C298 1.481 . S
C311 H312 0.980 . S
C311 H313 0.981 . S
C311 H314 0.981 . S
H312 C311 0.980 . S
H313 C311 0.981 . S
H314 C311 0.981 . S
O315 Zn291 2.066 . S
O315 C294 1.256 . S
O316 Zn288 2.053 . S
O316 C294 1.244 . S
C317 O295 1.259 . S
C317 O296 1.254 . S
O318 Zn288 2.066 . S
O318 C290 1.256 . S
O319 C290 1.244 . S
O319 Zn291 2.053 . S
Zn320 O321 2.055 . S
Zn320 O328 2.046 . S
Zn320 N336 2.036 . S
Zn320 O348 2.053 . S
Zn320 O350 2.066 . S
O321 Zn320 2.055 . S
O321 C324 1.259 . S
C322 O350 1.256 . S
C322 O351 1.244 . S
Zn323 O325 2.046 . S
Zn323 O327 2.055 . S
Zn323 N329 2.036 . S
Zn323 O347 2.066 . S
Zn323 O351 2.053 . S
C324 O321 1.259 . S
C324 O325 1.254 . S
O325 Zn323 2.046 . S
O325 C324 1.254 . S
C326 O347 1.256 . S
C326 O348 1.244 . S
O327 Zn323 2.055 . S
O327 C349 1.259 . S
O328 Zn320 2.046 . S
O328 C349 1.254 . S
N329 Zn323 2.036 . S
N329 C330 1.298 . S
N329 N332 1.398 . S
C330 N329 1.298 . S
C330 N333 1.367 . S
C330 C343 1.481 . S
C331 N332 1.299 . S
C331 N333 1.379 . S
N332 N329 1.398 . S
N332 C331 1.299 . S
N333 C330 1.367 . S
N333 C331 1.379 . S
C334 N336 1.298 . S
C334 N338 1.367 . S
C334 C342 1.481 . S
C335 N337 1.299 . S
C335 N338 1.379 . S
N336 Zn320 2.036 . S
N336 C334 1.298 . S
N336 N337 1.398 . S
N337 C335 1.299 . S
N337 N336 1.398 . S
N338 C334 1.367 . S
N338 C335 1.379 . S
H339 C342 0.980 . S
H340 C342 0.981 . S
H341 C342 0.981 . S
C342 C334 1.481 . S
C342 H339 0.980 . S
C342 H340 0.981 . S
C342 H341 0.981 . S
C343 C330 1.481 . S
C343 H344 0.980 . S
C343 H345 0.981 . S
C343 H346 0.981 . S
H344 C343 0.980 . S
H345 C343 0.981 . S
H346 C343 0.981 . S
O347 Zn323 2.066 . S
O347 C326 1.256 . S
O348 Zn320 2.053 . S
O348 C326 1.244 . S
C349 O327 1.259 . S
C349 O328 1.254 . S
O350 Zn320 2.066 . S
O350 C322 1.256 . S
O351 C322 1.244 . S
O351 Zn323 2.053 . S
Zn352 O353 2.055 . S
Zn352 O360 2.046 . S
Zn352 N368 2.036 . S
Zn352 O380 2.053 . S
Zn352 O382 2.066 . S
O353 Zn352 2.055 . S
O353 C356 1.259 . S
C354 O382 1.256 . S
C354 O383 1.244 . S
Zn355 O357 2.046 . S
Zn355 O359 2.055 . S
Zn355 N361 2.036 . S
Zn355 O379 2.066 . S
Zn355 O383 2.053 . S
C356 O353 1.259 . S
C356 O357 1.254 . S
O357 Zn355 2.046 . S
O357 C356 1.254 . S
C358 O379 1.256 . S
C358 O380 1.244 . S
O359 Zn355 2.055 . S
O359 C381 1.259 . S
O360 Zn352 2.046 . S
O360 C381 1.254 . S
N361 Zn355 2.036 . S
N361 C362 1.298 . S
N361 N364 1.398 . S
C362 N361 1.298 . S
C362 N365 1.367 . S
C362 C375 1.481 . S
C363 N364 1.299 . S
C363 N365 1.379 . S
N364 N361 1.398 . S
N364 C363 1.299 . S
N365 C362 1.367 . S
N365 C363 1.379 . S
C366 N368 1.298 . S
C366 N370 1.367 . S
C366 C374 1.481 . S
C367 N369 1.299 . S
C367 N370 1.379 . S
N368 Zn352 2.036 . S
N368 C366 1.298 . S
N368 N369 1.398 . S
N369 C367 1.299 . S
N369 N368 1.398 . S
N370 C366 1.367 . S
N370 C367 1.379 . S
H371 C374 0.980 . S
H372 C374 0.981 . S
H373 C374 0.981 . S
C374 C366 1.481 . S
C374 H371 0.980 . S
C374 H372 0.981 . S
C374 H373 0.981 . S
C375 C362 1.481 . S
C375 H376 0.980 . S
C375 H377 0.981 . S
C375 H378 0.981 . S
H376 C375 0.980 . S
H377 C375 0.981 . S
H378 C375 0.981 . S
O379 Zn355 2.066 . S
O379 C358 1.256 . S
O380 Zn352 2.053 . S
O380 C358 1.244 . S
C381 O359 1.259 . S
C381 O360 1.254 . S
O382 Zn352 2.066 . S
O382 C354 1.256 . S
O383 C354 1.244 . S
O383 Zn355 2.053 . S
Zn384 O385 2.055 . S
Zn384 O392 2.046 . S
Zn384 N400 2.036 . S
Zn384 O412 2.053 . S
Zn384 O414 2.066 . S
O385 Zn384 2.055 . S
O385 C388 1.259 . S
C386 O414 1.256 . S
C386 O415 1.244 . S
Zn387 O389 2.046 . S
Zn387 O391 2.055 . S
Zn387 N393 2.036 . S
Zn387 O411 2.066 . S
Zn387 O415 2.053 . S
C388 O385 1.259 . S
C388 O389 1.254 . S
O389 Zn387 2.046 . S
O389 C388 1.254 . S
C390 O411 1.256 . S
C390 O412 1.244 . S
O391 Zn387 2.055 . S
O391 C413 1.259 . S
O392 Zn384 2.046 . S
O392 C413 1.254 . S
N393 Zn387 2.036 . S
N393 C394 1.298 . S
N393 N396 1.398 . S
C394 N393 1.298 . S
C394 N397 1.367 1_655 S
C394 C407 1.489 . S
C395 N396 1.299 1_455 S
C395 N397 1.379 . S
N396 N393 1.398 . S
N396 C395 1.299 1_655 S
N397 C394 1.367 1_455 S
N397 C395 1.379 . S
C398 N400 1.298 . S
C398 N402 1.367 . S
C398 C406 1.481 . S
C399 N401 1.299 . S
C399 N402 1.379 . S
N400 Zn384 2.036 . S
N400 C398 1.298 . S
N400 N401 1.398 . S
N401 C399 1.299 . S
N401 N400 1.398 . S
N402 C398 1.367 . S
N402 C399 1.379 . S
H403 C406 0.980 . S
H404 C406 0.981 . S
H405 C406 0.981 . S
C406 C398 1.481 . S
C406 H403 0.980 . S
C406 H404 0.981 . S
C406 H405 0.981 . S
C407 C394 1.489 . S
C407 H408 1.007 . S
C407 H409 0.979 1_655 S
C407 H410 0.949 1_655 S
H408 C407 1.007 . S
H409 C407 0.979 1_455 S
H410 C407 0.949 1_455 S
O411 Zn387 2.066 . S
O411 C390 1.256 . S
O412 Zn384 2.053 . S
O412 C390 1.244 . S
C413 O391 1.259 . S
C413 O392 1.254 . S
O414 Zn384 2.066 . S
O414 C386 1.256 . S
O415 C386 1.244 . S
O415 Zn387 2.053 . S
Zn416 O417 2.055 . S
Zn416 O424 2.046 . S
Zn416 N432 2.036 . S
Zn416 O444 2.053 . S
Zn416 O446 2.066 . S
O417 Zn416 2.055 . S
O417 C420 1.259 . S
C418 O446 1.256 . S
C418 O447 1.244 . S
Zn419 O421 2.046 . S
Zn419 O423 2.055 . S
Zn419 N425 2.036 . S
Zn419 O443 2.066 . S
Zn419 O447 2.053 . S
C420 O417 1.259 . S
C420 O421 1.254 . S
O421 Zn419 2.046 . S
O421 C420 1.254 . S
C422 O443 1.256 . S
C422 O444 1.244 . S
O423 Zn419 2.055 . S
O423 C445 1.259 . S
O424 Zn416 2.046 . S
O424 C445 1.254 . S
N425 Zn419 2.036 . S
N425 C426 1.298 . S
N425 N428 1.398 . S
C426 N425 1.298 . S
C426 N429 1.367 . S
C426 C439 1.481 . S
C427 N428 1.299 . S
C427 N429 1.379 . S
N428 N425 1.398 . S
N428 C427 1.299 . S
N429 C426 1.367 . S
N429 C427 1.379 . S
C430 N432 1.298 . S
C430 N434 1.367 . S
C430 C438 1.481 . S
C431 N433 1.299 . S
C431 N434 1.379 . S
N432 Zn416 2.036 . S
N432 C430 1.298 . S
N432 N433 1.398 . S
N433 C431 1.299 . S
N433 N432 1.398 . S
N434 C430 1.367 . S
N434 C431 1.379 . S
H435 C438 0.980 . S
H436 C438 0.981 . S
H437 C438 0.981 . S
C438 C430 1.481 . S
C438 H435 0.980 . S
C438 H436 0.981 . S
C438 H437 0.981 . S
C439 C426 1.481 . S
C439 H440 0.980 . S
C439 H441 0.981 . S
C439 H442 0.981 . S
H440 C439 0.980 . S
H441 C439 0.981 . S
H442 C439 0.981 . S
O443 Zn419 2.066 . S
O443 C422 1.256 . S
O444 Zn416 2.053 . S
O444 C422 1.244 . S
C445 O423 1.259 . S
C445 O424 1.254 . S
O446 Zn416 2.066 . S
O446 C418 1.256 . S
O447 C418 1.244 . S
O447 Zn419 2.053 . S
Zn448 O449 2.055 . S
Zn448 O456 2.046 . S
Zn448 N464 2.036 . S
Zn448 O476 2.053 . S
Zn448 O478 2.066 . S
O449 Zn448 2.055 . S
O449 C452 1.259 . S
C450 O478 1.256 . S
C450 O479 1.244 . S
Zn451 O453 2.046 . S
Zn451 O455 2.055 . S
Zn451 N457 2.036 . S
Zn451 O475 2.066 . S
Zn451 O479 2.053 . S
C452 O449 1.259 . S
C452 O453 1.254 . S
O453 Zn451 2.046 . S
O453 C452 1.254 . S
C454 O475 1.256 . S
C454 O476 1.244 . S
O455 Zn451 2.055 . S
O455 C477 1.259 . S
O456 Zn448 2.046 . S
O456 C477 1.254 . S
N457 Zn451 2.036 . S
N457 C458 1.298 . S
N457 N460 1.398 . S
C458 N457 1.298 . S
C458 N461 1.367 1_545 S
C458 C471 1.475 . S
C459 N460 1.299 1_565 S
C459 N461 1.379 . S
N460 N457 1.398 . S
N460 C459 1.299 1_545 S
N461 C458 1.367 1_565 S
N461 C459 1.379 . S
C462 N464 1.298 . S
C462 N466 1.367 . S
C462 C470 1.481 . S
C463 N465 1.299 . S
C463 N466 1.379 . S
N464 Zn448 2.036 . S
N464 C462 1.298 . S
N464 N465 1.398 . S
N465 C463 1.299 . S
N465 N464 1.398 . S
N466 C462 1.367 . S
N466 C463 1.379 . S
H467 C470 0.980 . S
H468 C470 0.981 . S
H469 C470 0.981 . S
C470 C462 1.481 . S
C470 H467 0.980 . S
C470 H468 0.981 . S
C470 H469 0.981 . S
C471 C458 1.475 . S
C471 H472 1.013 . S
C471 H473 0.954 1_545 S
C471 H474 0.982 1_545 S
H472 C471 1.013 . S
H473 C471 0.954 1_565 S
H474 C471 0.982 1_565 S
O475 Zn451 2.066 . S
O475 C454 1.256 . S
O476 Zn448 2.053 . S
O476 C454 1.244 . S
C477 O455 1.259 . S
C477 O456 1.254 . S
O478 Zn448 2.066 . S
O478 C450 1.256 . S
O479 C450 1.244 . S
O479 Zn451 2.053 . S
Zn480 O481 2.055 . S
Zn480 O488 2.046 . S
Zn480 N496 2.036 . S
Zn480 O508 2.053 . S
Zn480 O510 2.066 . S
O481 Zn480 2.055 . S
O481 C484 1.259 . S
C482 O510 1.256 . S
C482 O511 1.244 . S
Zn483 O485 2.046 . S
Zn483 O487 2.055 . S
Zn483 N489 2.036 . S
Zn483 O507 2.066 . S
Zn483 O511 2.053 . S
C484 O481 1.259 . S
C484 O485 1.254 . S
O485 Zn483 2.046 . S
O485 C484 1.254 . S
C486 O507 1.256 . S
C486 O508 1.244 . S
O487 Zn483 2.055 . S
O487 C509 1.259 . S
O488 Zn480 2.046 . S
O488 C509 1.254 . S
N489 Zn483 2.036 . S
N489 C490 1.298 . S
N489 N492 1.398 . S
C490 N489 1.298 . S
C490 N493 1.367 . S
C490 C503 1.481 . S
C491 N492 1.299 . S
C491 N493 1.379 . S
N492 N489 1.398 . S
N492 C491 1.299 . S
N493 C490 1.367 . S
N493 C491 1.379 . S
C494 N496 1.298 . S
C494 N498 1.367 1_545 S
C494 C502 1.489 . S
C495 N497 1.299 1_565 S
C495 N498 1.379 . S
N496 Zn480 2.036 . S
N496 C494 1.298 . S
N496 N497 1.398 . S
N497 C495 1.299 1_545 S
N497 N496 1.398 . S
N498 C494 1.367 1_565 S
N498 C495 1.379 . S
H499 C502 1.007 . S
H500 C502 0.979 1_565 S
H501 C502 0.949 1_565 S
C502 C494 1.489 . S
C502 H499 1.007 . S
C502 H500 0.979 1_545 S
C502 H501 0.949 1_545 S
C503 C490 1.481 . S
C503 H504 0.980 . S
C503 H505 0.981 . S
C503 H506 0.981 . S
H504 C503 0.980 . S
H505 C503 0.981 . S
H506 C503 0.981 . S
O507 Zn483 2.066 . S
O507 C486 1.256 . S
O508 Zn480 2.053 . S
O508 C486 1.244 . S
C509 O487 1.259 . S
C509 O488 1.254 . S
O510 Zn480 2.066 . S
O510 C482 1.256 . S
O511 C482 1.244 . S
O511 Zn483 2.053 . S
Zn512 O513 2.055 . S
Zn512 O520 2.046 . S
Zn512 N528 2.036 . S
Zn512 O540 2.053 . S
Zn512 O542 2.066 . S
O513 Zn512 2.055 . S
O513 C516 1.259 . S
C514 O542 1.256 . S
C514 O543 1.244 . S
Zn515 O517 2.046 . S
Zn515 O519 2.055 . S
Zn515 N521 2.036 . S
Zn515 O539 2.066 . S
Zn515 O543 2.053 . S
C516 O513 1.259 . S
C516 O517 1.254 . S
O517 Zn515 2.046 . S
O517 C516 1.254 . S
C518 O539 1.256 . S
C518 O540 1.244 . S
O519 Zn515 2.055 . S
O519 C541 1.259 . S
O520 Zn512 2.046 . S
O520 C541 1.254 . S
N521 Zn515 2.036 . S
N521 C522 1.298 . S
N521 N524 1.398 . S
C522 N521 1.298 . S
C522 N525 1.367 1_655 S
C522 C535 1.475 . S
C523 N524 1.299 1_455 S
C523 N525 1.379 . S
N524 N521 1.398 . S
N524 C523 1.299 1_655 S
N525 C522 1.367 1_455 S
N525 C523 1.379 . S
C526 N528 1.298 . S
C526 N530 1.367 . S
C526 C534 1.481 . S
C527 N529 1.299 . S
C527 N530 1.379 . S
N528 Zn512 2.036 . S
N528 C526 1.298 . S
N528 N529 1.398 . S
N529 C527 1.299 . S
N529 N528 1.398 . S
N530 C526 1.367 . S
N530 C527 1.379 . S
H531 C534 0.980 . S
H532 C534 0.981 . S
H533 C534 0.981 . S
C534 C526 1.481 . S
C534 H531 0.980 . S
C534 H532 0.981 . S
C534 H533 0.981 . S
C535 C522 1.475 . S
C535 H536 1.013 . S
C535 H537 0.954 1_655 S
C535 H538 0.982 1_655 S
H536 C535 1.013 . S
H537 C535 0.954 1_455 S
H538 C535 0.982 1_455 S
O539 Zn515 2.066 . S
O539 C518 1.256 . S
O540 Zn512 2.053 . S
O540 C518 1.244 . S
C541 O519 1.259 . S
C541 O520 1.254 . S
O542 Zn512 2.066 . S
O542 C514 1.256 . S
O543 C514 1.244 . S
O543 Zn515 2.053 . S
Zn544 O545 2.055 . S
Zn544 O552 2.046 . S
Zn544 N560 2.036 . S
Zn544 O572 2.053 . S
Zn544 O574 2.066 . S
O545 Zn544 2.055 . S
O545 C548 1.259 . S
C546 O574 1.256 . S
C546 O575 1.244 . S
Zn547 O549 2.046 . S
Zn547 O551 2.055 . S
Zn547 N553 2.036 . S
Zn547 O571 2.066 . S
Zn547 O575 2.053 . S
C548 O545 1.259 . S
C548 O549 1.254 . S
O549 Zn547 2.046 . S
O549 C548 1.254 . S
C550 O571 1.256 . S
C550 O572 1.244 . S
O551 Zn547 2.055 . S
O551 C573 1.259 . S
O552 Zn544 2.046 . S
O552 C573 1.254 . S
N553 Zn547 2.036 . S
N553 C554 1.298 . S
N553 N556 1.398 . S
C554 N553 1.298 . S
C554 N557 1.367 . S
C554 C567 1.481 . S
C555 N556 1.299 . S
C555 N557 1.379 . S
N556 N553 1.398 . S
N556 C555 1.299 . S
N557 C554 1.367 . S
N557 C555 1.379 . S
C558 N560 1.298 . S
C558 N562 1.367 . S
C558 C566 1.481 . S
C559 N561 1.299 . S
C559 N562 1.379 . S
N560 Zn544 2.036 . S
N560 C558 1.298 . S
N560 N561 1.398 . S
N561 C559 1.299 . S
N561 N560 1.398 . S
N562 C558 1.367 . S
N562 C559 1.379 . S
H563 C566 0.980 . S
H564 C566 0.981 . S
H565 C566 0.981 . S
C566 C558 1.481 . S
C566 H563 0.980 . S
C566 H564 0.981 . S
C566 H565 0.981 . S
C567 C554 1.481 . S
C567 H568 0.980 . S
C567 H569 0.981 . S
C567 H570 0.981 . S
H568 C567 0.980 . S
H569 C567 0.981 . S
H570 C567 0.981 . S
O571 Zn547 2.066 . S
O571 C550 1.256 . S
O572 Zn544 2.053 . S
O572 C550 1.244 . S
C573 O551 1.259 . S
C573 O552 1.254 . S
O574 Zn544 2.066 . S
O574 C546 1.256 . S
O575 C546 1.244 . S
O575 Zn547 2.053 . S
C576 C577 1.349 . S
C576 C578 1.327 . S
C576 H601 0.950 . S
C577 C576 1.349 . S
C577 C593 1.349 1_556 S
C578 C576 1.327 . S
C578 C597 1.429 1_556 S
C578 H602 0.950 . S
C579 C596 1.574 . S
C579 C598 1.368 . S
C579 H603 0.949 . S
H580 C584 0.949 . S
C581 C582 1.349 . S
C581 C583 1.327 . S
C581 H604 0.950 . S
C582 C581 1.349 . S
C582 C594 1.353 . S
C583 C581 1.327 . S
C583 C599 1.429 . S
C583 H605 0.950 . S
C584 H580 0.949 . S
C584 C592 1.574 . S
C584 C600 1.368 1_556 S
H585 C593 0.950 . S
H586 C591 0.950 . S
H587 C592 0.949 . S
H588 C594 0.946 1_556 S
H589 C595 0.950 . S
H590 C596 0.949 . S
C591 H586 0.950 . S
C591 C593 1.327 . S
C591 C597 1.429 . S
C592 C584 1.574 . S
C592 H587 0.949 . S
C592 C598 1.368 1_556 S
C593 C577 1.349 1_554 S
C593 H585 0.950 . S
C593 C591 1.327 . S
C594 C582 1.353 . S
C594 H588 0.946 1_554 S
C594 C595 1.326 1_554 S
C595 H589 0.950 . S
C595 C594 1.326 1_556 S
C595 C599 1.429 1_556 S
C596 C579 1.574 . S
C596 H590 0.949 . S
C596 C600 1.368 . S
C597 C578 1.429 1_554 S
C597 C591 1.429 . S
C597 C598 1.523 . S
C598 C579 1.368 . S
C598 C592 1.368 1_554 S
C598 C597 1.523 . S
C599 C583 1.429 . S
C599 C595 1.429 1_554 S
C599 C600 1.523 . S
C600 C584 1.368 1_554 S
C600 C596 1.368 . S
C600 C599 1.523 . S
H601 C576 0.950 . S
H602 C578 0.950 . S
H603 C579 0.949 . S
H604 C581 0.950 . S
H605 C583 0.950 . S
C606 C607 1.349 1_556 S
C606 C608 1.327 . S
C606 H631 0.950 . S
C607 C606 1.349 1_554 S
C607 C623 1.349 . S
C608 C606 1.327 . S
C608 C627 1.429 1_556 S
C608 H632 0.950 . S
C609 C626 1.574 . S
C609 C628 1.368 . S
C609 H633 0.949 . S
H610 C614 0.949 . S
C611 C612 1.349 1_554 S
C611 C613 1.327 . S
C611 H634 0.950 . S
C612 C611 1.349 1_556 S
C612 C624 1.349 . S
C613 C611 1.327 . S
C613 C629 1.429 . S
C613 H635 0.950 . S
C614 H610 0.949 . S
C614 C622 1.574 . S
C614 C630 1.368 1_556 S
H615 C623 0.950 . S
H616 C621 0.950 . S
H617 C622 0.949 . S
H618 C624 0.950 . S
H619 C625 0.950 . S
H620 C626 0.949 . S
C621 H616 0.950 . S
C621 C623 1.327 . S
C621 C627 1.429 . S
C622 C614 1.574 . S
C622 H617 0.949 . S
C622 C628 1.368 1_556 S
C623 C607 1.349 . S
C623 H615 0.950 . S
C623 C621 1.327 . S
C624 C612 1.349 . S
C624 H618 0.950 . S
C624 C625 1.327 . S
C625 H619 0.950 . S
C625 C624 1.327 . S
C625 C629 1.429 1_556 S
C626 C609 1.574 . S
C626 H620 0.949 . S
C626 C630 1.368 . S
C627 C608 1.429 1_554 S
C627 C621 1.429 . S
C627 C628 1.523 . S
C628 C609 1.368 . S
C628 C622 1.368 1_554 S
C628 C627 1.523 . S
C629 C613 1.429 . S
C629 C625 1.429 1_554 S
C629 C630 1.523 . S
C630 C614 1.368 1_554 S
C630 C626 1.368 . S
C630 C629 1.523 . S
H631 C606 0.950 . S
H632 C608 0.950 . S
H633 C609 0.949 . S
H634 C611 0.950 . S
H635 C613 0.950 . S
C636 C637 1.349 . S
C636 C638 1.327 . S
C636 H661 0.950 . S
C637 C636 1.349 . S
C637 C653 1.349 1_556 S
C638 C636 1.327 . S
C638 C657 1.429 1_556 S
C638 H662 0.950 . S
C639 C656 1.574 . S
C639 C658 1.368 . S
C639 H663 0.949 . S
H640 C644 0.949 . S
C641 C642 1.349 . S
C641 C643 1.327 . S
C641 H664 0.950 . S
C642 C641 1.349 . S
C642 C654 1.349 1_554 S
C643 C641 1.327 . S
C643 C659 1.429 . S
C643 H665 0.950 . S
C644 H640 0.949 . S
C644 C652 1.574 . S
C644 C660 1.368 1_556 S
H645 C653 0.950 . S
H646 C651 0.950 . S
H647 C652 0.949 . S
H648 C654 0.950 . S
H649 C655 0.950 . S
H650 C656 0.949 . S
C651 H646 0.950 . S
C651 C653 1.327 . S
C651 C657 1.429 . S
C652 C644 1.574 . S
C652 H647 0.949 . S
C652 C658 1.368 1_556 S
C653 C637 1.349 1_554 S
C653 H645 0.950 . S
C653 C651 1.327 . S
C654 C642 1.349 1_556 S
C654 H648 0.950 . S
C654 C655 1.327 . S
C655 H649 0.950 . S
C655 C654 1.327 . S
C655 C659 1.429 1_556 S
C656 C639 1.574 . S
C656 H650 0.949 . S
C656 C660 1.368 . S
C657 C638 1.429 1_554 S
C657 C651 1.429 . S
C657 C658 1.523 . S
C658 C639 1.368 . S
C658 C652 1.368 1_554 S
C658 C657 1.523 . S
C659 C643 1.429 . S
C659 C655 1.429 1_554 S
C659 C660 1.523 . S
C660 C644 1.368 1_554 S
C660 C656 1.368 . S
C660 C659 1.523 . S
H661 C636 0.950 . S
H662 C638 0.950 . S
H663 C639 0.949 . S
H664 C641 0.950 . S
H665 C643 0.950 . S
C666 C667 1.349 . S
C666 C668 1.327 . S
C666 H691 0.950 . S
C667 C666 1.349 . S
C667 C683 1.349 . S
C668 C666 1.327 . S
C668 C687 1.429 . S
C668 H692 0.950 . S
C669 C686 1.574 . S
C669 C688 1.368 . S
C669 H693 0.949 . S
H670 C674 0.949 . S
C671 C672 1.349 . S
C671 C673 1.327 . S
C671 H694 0.950 . S
C672 C671 1.349 . S
C672 C684 1.349 . S
C673 C671 1.327 . S
C673 C689 1.429 . S
C673 H695 0.950 . S
C674 H670 0.949 . S
C674 C682 1.574 . S
C674 C690 1.368 . S
H675 C683 0.950 . S
H676 C681 0.950 . S
H677 C682 0.949 . S
H678 C684 0.950 . S
H679 C685 0.950 . S
H680 C686 0.949 . S
C681 H676 0.950 . S
C681 C683 1.327 . S
C681 C687 1.429 . S
C682 C674 1.574 . S
C682 H677 0.949 . S
C682 C688 1.368 . S
C683 C667 1.349 . S
C683 H675 0.950 . S
C683 C681 1.327 . S
C684 C672 1.349 . S
C684 H678 0.950 . S
C684 C685 1.327 . S
C685 H679 0.950 . S
C685 C684 1.327 . S
C685 C689 1.429 . S
C686 C669 1.574 . S
C686 H680 0.949 . S
C686 C690 1.368 . S
C687 C668 1.429 . S
C687 C681 1.429 . S
C687 C688 1.523 . S
C688 C669 1.368 . S
C688 C682 1.368 . S
C688 C687 1.523 . S
C689 C673 1.429 . S
C689 C685 1.429 . S
C689 C690 1.523 . S
C690 C674 1.368 . S
C690 C686 1.368 . S
C690 C689 1.523 . S
H691 C666 0.950 . S
H692 C668 0.950 . S
H693 C669 0.949 . S
H694 C671 0.950 . S
H695 C673 0.950 . S
C696 C697 1.349 . S
C696 C698 1.327 . S
C696 H721 0.950 . S
C697 C696 1.349 . S
C697 C713 1.349 . S
C698 C696 1.327 . S
C698 C717 1.429 . S
C698 H722 0.950 . S
C699 C716 1.574 . S
C699 C718 1.368 . S
C699 H723 0.949 . S
H700 C704 0.949 . S
C701 C702 1.349 . S
C701 C703 1.327 . S
C701 H724 0.950 . S
C702 C701 1.349 . S
C702 C714 1.349 . S
C703 C701 1.327 . S
C703 C719 1.429 . S
C703 H725 0.950 . S
C704 H700 0.949 . S
C704 C712 1.574 . S
C704 C720 1.368 . S
H705 C713 0.950 . S
H706 C711 0.950 . S
H707 C712 0.949 . S
H708 C714 0.950 . S
H709 C715 0.950 . S
H710 C716 0.949 . S
C711 H706 0.950 . S
C711 C713 1.327 . S
C711 C717 1.429 . S
C712 C704 1.574 . S
C712 H707 0.949 . S
C712 C718 1.368 . S
C713 C697 1.349 . S
C713 H705 0.950 . S
C713 C711 1.327 . S
C714 C702 1.349 . S
C714 H708 0.950 . S
C714 C715 1.327 . S
C715 H709 0.950 . S
C715 C714 1.327 . S
C715 C719 1.429 . S
C716 C699 1.574 . S
C716 H710 0.949 . S
C716 C720 1.368 . S
C717 C698 1.429 . S
C717 C711 1.429 . S
C717 C718 1.523 . S
C718 C699 1.368 . S
C718 C712 1.368 . S
C718 C717 1.523 . S
C719 C703 1.429 . S
C719 C715 1.429 . S
C719 C720 1.523 . S
C720 C704 1.368 . S
C720 C716 1.368 . S
C720 C719 1.523 . S
H721 C696 0.950 . S
H722 C698 0.950 . S
H723 C699 0.949 . S
H724 C701 0.950 . S
H725 C703 0.950 . S
C726 C727 1.349 . S
C726 C728 1.327 . S
C726 H751 0.950 . S
C727 C726 1.349 . S
C727 C743 1.349 . S
C728 C726 1.327 . S
C728 C747 1.429 . S
C728 H752 0.950 . S
C729 C746 1.574 . S
C729 C748 1.368 . S
C729 H753 0.949 . S
H730 C734 0.949 . S
C731 C732 1.349 . S
C731 C733 1.327 . S
C731 H754 0.950 . S
C732 C731 1.349 . S
C732 C744 1.349 . S
C733 C731 1.327 . S
C733 C749 1.429 . S
C733 H755 0.950 . S
C734 H730 0.949 . S
C734 C742 1.574 . S
C734 C750 1.368 . S
H735 C743 0.950 . S
H736 C741 0.950 . S
H737 C742 0.949 . S
H738 C744 0.950 . S
H739 C745 0.950 . S
H740 C746 0.949 . S
C741 H736 0.950 . S
C741 C743 1.327 . S
C741 C747 1.429 . S
C742 C734 1.574 . S
C742 H737 0.949 . S
C742 C748 1.368 . S
C743 C727 1.349 . S
C743 H735 0.950 . S
C743 C741 1.327 . S
C744 C732 1.349 . S
C744 H738 0.950 . S
C744 C745 1.327 . S
C745 H739 0.950 . S
C745 C744 1.327 . S
C745 C749 1.429 . S
C746 C729 1.574 . S
C746 H740 0.949 . S
C746 C750 1.368 . S
C747 C728 1.429 . S
C747 C741 1.429 . S
C747 C748 1.523 . S
C748 C729 1.368 . S
C748 C742 1.368 . S
C748 C747 1.523 . S
C749 C733 1.429 . S
C749 C745 1.429 . S
C749 C750 1.523 . S
C750 C734 1.368 . S
C750 C746 1.368 . S
C750 C749 1.523 . S
H751 C726 0.950 . S
H752 C728 0.950 . S
H753 C729 0.949 . S
H754 C731 0.950 . S
H755 C733 0.950 . S
C756 C757 1.349 . S
C756 C758 1.327 . S
C756 H781 0.950 . S
C757 C756 1.349 . S
C757 C773 1.349 . S
C758 C756 1.327 . S
C758 C777 1.429 . S
C758 H782 0.950 . S
C759 C776 1.574 . S
C759 C778 1.368 . S
C759 H783 0.949 . S
H760 C764 0.949 . S
C761 C762 1.349 . S
C761 C763 1.327 . S
C761 H784 0.950 . S
C762 C761 1.349 . S
C762 C774 1.349 . S
C763 C761 1.327 . S
C763 C779 1.429 . S
C763 H785 0.950 . S
C764 H760 0.949 . S
C764 C772 1.574 . S
C764 C780 1.368 . S
H765 C773 0.950 . S
H766 C771 0.950 . S
H767 C772 0.949 . S
H768 C774 0.950 . S
H769 C775 0.950 . S
H770 C776 0.949 . S
C771 H766 0.950 . S
C771 C773 1.327 . S
C771 C777 1.429 . S
C772 C764 1.574 . S
C772 H767 0.949 . S
C772 C778 1.368 . S
C773 C757 1.349 . S
C773 H765 0.950 . S
C773 C771 1.327 . S
C774 C762 1.349 . S
C774 H768 0.950 . S
C774 C775 1.327 . S
C775 H769 0.950 . S
C775 C774 1.327 . S
C775 C779 1.429 . S
C776 C759 1.574 . S
C776 H770 0.949 . S
C776 C780 1.368 . S
C777 C758 1.429 . S
C777 C771 1.429 . S
C777 C778 1.523 . S
C778 C759 1.368 . S
C778 C772 1.368 . S
C778 C777 1.523 . S
C779 C763 1.429 . S
C779 C775 1.429 . S
C779 C780 1.523 . S
C780 C764 1.368 . S
C780 C776 1.368 . S
C780 C779 1.523 . S
H781 C756 0.950 . S
H782 C758 0.950 . S
H783 C759 0.949 . S
H784 C761 0.950 . S
H785 C763 0.950 . S
C786 C787 1.349 . S
C786 C788 1.327 . S
C786 H811 0.950 . S
C787 C786 1.349 . S
C787 C803 1.349 . S
C788 C786 1.327 . S
C788 C807 1.429 . S
C788 H812 0.950 . S
C789 C806 1.574 . S
C789 C808 1.368 . S
C789 H813 0.949 . S
H790 C794 0.949 . S
C791 C792 1.349 . S
C791 C793 1.327 . S
C791 H814 0.950 . S
C792 C791 1.349 . S
C792 C804 1.349 . S
C793 C791 1.327 . S
C793 C809 1.429 . S
C793 H815 0.950 . S
C794 H790 0.949 . S
C794 C802 1.574 . S
C794 C810 1.368 . S
H795 C803 0.950 . S
H796 C801 0.950 . S
H797 C802 0.949 . S
H798 C804 0.950 . S
H799 C805 0.950 . S
H800 C806 0.949 . S
C801 H796 0.950 . S
C801 C803 1.327 . S
C801 C807 1.429 . S
C802 C794 1.574 . S
C802 H797 0.949 . S
C802 C808 1.368 . S
C803 C787 1.349 . S
C803 H795 0.950 . S
C803 C801 1.327 . S
C804 C792 1.349 . S
C804 H798 0.950 . S
C804 C805 1.327 . S
C805 H799 0.950 . S
C805 C804 1.327 . S
C805 C809 1.429 . S
C806 C789 1.574 . S
C806 H800 0.949 . S
C806 C810 1.368 . S
C807 C788 1.429 . S
C807 C801 1.429 . S
C807 C808 1.523 . S
C808 C789 1.368 . S
C808 C802 1.368 . S
C808 C807 1.523 . S
C809 C793 1.429 . S
C809 C805 1.429 . S
C809 C810 1.523 . S
C810 C794 1.368 . S
C810 C806 1.368 . S
C810 C809 1.523 . S
H811 C786 0.950 . S
H812 C788 0.950 . S
H813 C789 0.949 . S
H814 C791 0.950 . S
H815 C793 0.950 . S
C816 C817 1.349 . S
C816 C818 1.327 . S
C816 H841 0.950 . S
C817 C816 1.349 . S
C817 C833 1.349 . S
C818 C816 1.327 . S
C818 C837 1.429 . S
C818 H842 0.950 . S
C819 C836 1.574 . S
C819 C838 1.368 . S
C819 H843 0.949 . S
H820 C824 0.949 . S
C821 C822 1.349 . S
C821 C823 1.327 . S
C821 H844 0.950 . S
C822 C821 1.349 . S
C822 C834 1.349 . S
C823 C821 1.327 . S
C823 C839 1.429 . S
C823 H845 0.950 . S
C824 H820 0.949 . S
C824 C832 1.574 . S
C824 C840 1.368 . S
H825 C833 0.950 . S
H826 C831 0.950 . S
H827 C832 0.949 . S
H828 C834 0.950 . S
H829 C835 0.950 . S
H830 C836 0.949 . S
C831 H826 0.950 . S
C831 C833 1.327 . S
C831 C837 1.429 . S
C832 C824 1.574 . S
C832 H827 0.949 . S
C832 C838 1.368 . S
C833 C817 1.349 . S
C833 H825 0.950 . S
C833 C831 1.327 . S
C834 C822 1.349 . S
C834 H828 0.950 . S
C834 C835 1.327 . S
C835 H829 0.950 . S
C835 C834 1.327 . S
C835 C839 1.429 . S
C836 C819 1.574 . S
C836 H830 0.949 . S
C836 C840 1.368 . S
C837 C818 1.429 . S
C837 C831 1.429 . S
C837 C838 1.523 . S
C838 C819 1.368 . S
C838 C832 1.368 . S
C838 C837 1.523 . S
C839 C823 1.429 . S
C839 C835 1.429 . S
C839 C840 1.523 . S
C840 C824 1.368 . S
C840 C836 1.368 . S
C840 C839 1.523 . S
H841 C816 0.950 . S
H842 C818 0.950 . S
H843 C819 0.949 . S
H844 C821 0.950 . S
H845 C823 0.950 . S
C846 C847 1.349 . S
C846 C848 1.327 . S
C846 H871 0.950 . S
C847 C846 1.349 . S
C847 C863 1.349 . S
C848 C846 1.327 . S
C848 C867 1.429 . S
C848 H872 0.950 . S
C849 C866 1.574 . S
C849 C868 1.368 . S
C849 H873 0.949 . S
H850 C854 0.949 . S
C851 C852 1.349 . S
C851 C853 1.327 . S
C851 H874 0.950 . S
C852 C851 1.349 . S
C852 C864 1.349 . S
C853 C851 1.327 . S
C853 C869 1.429 . S
C853 H875 0.950 . S
C854 H850 0.949 . S
C854 C862 1.574 . S
C854 C870 1.368 . S
H855 C863 0.950 . S
H856 C861 0.950 . S
H857 C862 0.949 . S
H858 C864 0.950 . S
H859 C865 0.950 . S
H860 C866 0.949 . S
C861 H856 0.950 . S
C861 C863 1.327 . S
C861 C867 1.429 . S
C862 C854 1.574 . S
C862 H857 0.949 . S
C862 C868 1.368 . S
C863 C847 1.349 . S
C863 H855 0.950 . S
C863 C861 1.327 . S
C864 C852 1.349 . S
C864 H858 0.950 . S
C864 C865 1.327 . S
C865 H859 0.950 . S
C865 C864 1.327 . S
C865 C869 1.429 . S
C866 C849 1.574 . S
C866 H860 0.949 . S
C866 C870 1.368 . S
C867 C848 1.429 . S
C867 C861 1.429 . S
C867 C868 1.523 . S
C868 C849 1.368 . S
C868 C862 1.368 . S
C868 C867 1.523 . S
C869 C853 1.429 . S
C869 C865 1.429 . S
C869 C870 1.523 . S
C870 C854 1.368 . S
C870 C866 1.368 . S
C870 C869 1.523 . S
H871 C846 0.950 . S
H872 C848 0.950 . S
H873 C849 0.949 . S
H874 C851 0.950 . S
H875 C853 0.950 . S
C876 C877 1.349 . S
C876 C878 1.327 . S
C876 H901 0.950 . S
C877 C876 1.349 . S
C877 C893 1.349 . S
C878 C876 1.327 . S
C878 C897 1.429 . S
C878 H902 0.950 . S
C879 C896 1.574 . S
C879 C898 1.368 . S
C879 H903 0.949 . S
H880 C884 0.949 . S
C881 C882 1.349 . S
C881 C883 1.327 . S
C881 H904 0.950 . S
C882 C881 1.349 . S
C882 C894 1.349 . S
C883 C881 1.327 . S
C883 C899 1.429 . S
C883 H905 0.950 . S
C884 H880 0.949 . S
C884 C892 1.574 . S
C884 C900 1.368 . S
H885 C893 0.950 . S
H886 C891 0.950 . S
H887 C892 0.949 . S
H888 C894 0.950 . S
H889 C895 0.950 . S
H890 C896 0.949 . S
C891 H886 0.950 . S
C891 C893 1.327 . S
C891 C897 1.429 . S
C892 C884 1.574 . S
C892 H887 0.949 . S
C892 C898 1.368 . S
C893 C877 1.349 . S
C893 H885 0.950 . S
C893 C891 1.327 . S
C894 C882 1.349 . S
C894 H888 0.950 . S
C894 C895 1.327 . S
C895 H889 0.950 . S
C895 C894 1.327 . S
C895 C899 1.429 . S
C896 C879 1.574 . S
C896 H890 0.949 . S
C896 C900 1.368 . S
C897 C878 1.429 . S
C897 C891 1.429 . S
C897 C898 1.523 . S
C898 C879 1.368 . S
C898 C892 1.368 . S
C898 C897 1.523 . S
C899 C883 1.429 . S
C899 C895 1.429 . S
C899 C900 1.523 . S
C900 C884 1.368 . S
C900 C896 1.368 . S
C900 C899 1.523 . S
H901 C876 0.950 . S
H902 C878 0.950 . S
H903 C879 0.949 . S
H904 C881 0.950 . S
H905 C883 0.950 . S
C906 C907 1.349 . S
C906 C908 1.327 . S
C906 H931 0.950 . S
C907 C906 1.349 . S
C907 C923 1.349 . S
C908 C906 1.327 . S
C908 C927 1.429 . S
C908 H932 0.950 . S
C909 C926 1.574 . S
C909 C928 1.368 . S
C909 H933 0.949 . S
H910 C914 0.949 . S
C911 C912 1.349 . S
C911 C913 1.327 . S
C911 H934 0.950 . S
C912 C911 1.349 . S
C912 C924 1.349 . S
C913 C911 1.327 . S
C913 C929 1.429 . S
C913 H935 0.950 . S
C914 H910 0.949 . S
C914 C922 1.574 . S
C914 C930 1.368 . S
H915 C923 0.950 . S
H916 C921 0.950 . S
H917 C922 0.949 . S
H918 C924 0.950 . S
H919 C925 0.950 . S
H920 C926 0.949 . S
C921 H916 0.950 . S
C921 C923 1.327 . S
C921 C927 1.429 . S
C922 C914 1.574 . S
C922 H917 0.949 . S
C922 C928 1.368 . S
C923 C907 1.349 . S
C923 H915 0.950 . S
C923 C921 1.327 . S
C924 C912 1.349 . S
C924 H918 0.950 . S
C924 C925 1.327 . S
C925 H919 0.950 . S
C925 C924 1.327 . S
C925 C929 1.429 . S
C926 C909 1.574 . S
C926 H920 0.949 . S
C926 C930 1.368 . S
C927 C908 1.429 . S
C927 C921 1.429 . S
C927 C928 1.523 . S
C928 C909 1.368 . S
C928 C922 1.368 . S
C928 C927 1.523 . S
C929 C913 1.429 . S
C929 C925 1.429 . S
C929 C930 1.523 . S
C930 C914 1.368 . S
C930 C926 1.368 . S
C930 C929 1.523 . S
H931 C906 0.950 . S
H932 C908 0.950 . S
H933 C909 0.949 . S
H934 C911 0.950 . S
H935 C913 0.950 . S
C936 C937 1.349 . S
C936 C938 1.327 . S
C936 H961 0.950 . S
C937 C936 1.349 . S
C937 C953 1.349 . S
C938 C936 1.327 . S
C938 C957 1.429 . S
C938 H962 0.950 . S
C939 C956 1.574 . S
C939 C958 1.368 . S
C939 H963 0.949 . S
H940 C944 0.949 . S
C941 C942 1.349 . S
C941 C943 1.327 . S
C941 H964 0.950 . S
C942 C941 1.349 . S
C942 C954 1.349 . S
C943 C941 1.327 . S
C943 C959 1.429 . S
C943 H965 0.950 . S
C944 H940 0.949 . S
C944 C952 1.574 . S
C944 C960 1.368 . S
H945 C953 0.950 . S
H946 C951 0.950 . S
H947 C952 0.949 . S
H948 C954 0.950 . S
H949 C955 0.950 . S
H950 C956 0.949 . S
C951 H946 0.950 . S
C951 C953 1.327 . S
C951 C957 1.429 . S
C952 C944 1.574 . S
C952 H947 0.949 . S
C952 C958 1.368 . S
C953 C937 1.349 . S
C953 H945 0.950 . S
C953 C951 1.327 . S
C954 C942 1.349 . S
C954 H948 0.950 . S
C954 C955 1.327 . S
C955 H949 0.950 . S
C955 C954 1.327 . S
C955 C959 1.429 . S
C956 C939 1.574 . S
C956 H950 0.949 . S
C956 C960 1.368 . S
C957 C938 1.429 . S
C957 C951 1.429 . S
C957 C958 1.523 . S
C958 C939 1.368 . S
C958 C952 1.368 . S
C958 C957 1.523 . S
C959 C943 1.429 . S
C959 C955 1.429 . S
C959 C960 1.523 . S
C960 C944 1.368 . S
C960 C956 1.368 . S
C960 C959 1.523 . S
H961 C936 0.950 . S
H962 C938 0.950 . S
H963 C939 0.949 . S
H964 C941 0.950 . S
H965 C943 0.950 . S
C966 C967 1.349 . S
C966 C968 1.327 . S
C966 H991 0.950 . S
C967 C966 1.349 . S
C967 C983 1.349 . S
C968 C966 1.327 . S
C968 C987 1.429 . S
C968 H992 0.950 . S
C969 C986 1.574 1_545 S
C969 C988 1.368 . S
C969 H993 0.949 . S
H970 C974 0.949 . S
C971 C972 1.349 . S
C971 C973 1.327 . S
C971 H994 0.950 . S
C972 C971 1.349 . S
C972 C984 1.349 . S
C973 C971 1.327 . S
C973 C989 1.429 . S
C973 H995 0.950 . S
C974 H970 0.949 . S
C974 C982 1.574 . S
C974 C990 1.368 . S
H975 C983 0.950 . S
H976 C981 0.950 . S
H977 C982 0.949 . S
H978 C984 0.950 . S
H979 C985 0.950 . S
H980 C986 0.949 . S
C981 H976 0.950 . S
C981 C983 1.327 . S
C981 C987 1.429 . S
C982 C974 1.574 . S
C982 H977 0.949 . S
C982 C988 1.368 1_565 S
C983 C967 1.349 . S
C983 H975 0.950 . S
C983 C981 1.327 . S
C984 C972 1.349 . S
C984 H978 0.950 . S
C984 C985 1.327 . S
C985 H979 0.950 . S
C985 C984 1.327 . S
C985 C989 1.429 . S
C986 C969 1.574 1_565 S
C986 H980 0.949 . S
C986 C990 1.368 . S
C987 C968 1.429 . S
C987 C981 1.429 . S
C987 C988 1.523 . S
C988 C969 1.368 . S
C988 C982 1.368 1_545 S
C988 C987 1.523 . S
C989 C973 1.429 . S
C989 C985 1.429 . S
C989 C990 1.523 . S
C990 C974 1.368 . S
C990 C986 1.368 . S
C990 C989 1.523 . S
H991 C966 0.950 . S
H992 C968 0.950 . S
H993 C969 0.949 . S
H994 C971 0.950 . S
H995 C973 0.950 . S
C996 C997 1.349 . S
C996 C998 1.327 . S
C996 H1021 0.950 . S
C997 C996 1.349 . S
C997 C1013 1.349 . S
C998 C996 1.327 . S
C998 C1017 1.429 . S
C998 H1022 0.950 . S
C999 C1016 1.574 . S
C999 C1018 1.368 1_455 S
C999 H1023 0.949 . S
H1000 C1004 0.949 . S
C1001 C1002 1.349 . S
C1001 C1003 1.327 . S
C1001 H1024 0.950 . S
C1002 C1001 1.349 . S
C1002 C1014 1.349 . S
C1003 C1001 1.327 . S
C1003 C1019 1.429 . S
C1003 H1025 0.950 . S
C1004 H1000 0.949 . S
C1004 C1012 1.574 1_455 S
C1004 C1020 1.368 . S
H1005 C1013 0.950 . S
H1006 C1011 0.950 . S
H1007 C1012 0.949 . S
H1008 C1014 0.950 . S
H1009 C1015 0.950 . S
H1010 C1016 0.949 . S
C1011 H1006 0.950 . S
C1011 C1013 1.327 . S
C1011 C1017 1.429 . S
C1012 C1004 1.574 1_655 S
C1012 H1007 0.949 . S
C1012 C1018 1.368 . S
C1013 C997 1.349 . S
C1013 H1005 0.950 . S
C1013 C1011 1.327 . S
C1014 C1002 1.349 . S
C1014 H1008 0.950 . S
C1014 C1015 1.327 . S
C1015 H1009 0.950 . S
C1015 C1014 1.327 . S
C1015 C1019 1.429 . S
C1016 C999 1.574 . S
C1016 H1010 0.949 . S
C1016 C1020 1.368 . S
C1017 C998 1.429 . S
C1017 C1011 1.429 . S
C1017 C1018 1.523 . S
C1018 C999 1.368 1_655 S
C1018 C1012 1.368 . S
C1018 C1017 1.523 . S
C1019 C1003 1.429 . S
C1019 C1015 1.429 . S
C1019 C1020 1.523 . S
C1020 C1004 1.368 . S
C1020 C1016 1.368 . S
C1020 C1019 1.523 . S
H1021 C996 0.950 . S
H1022 C998 0.950 . S
H1023 C999 0.949 . S
H1024 C1001 0.950 . S
H1025 C1003 0.950 . S
C1026 C1027 1.349 . S
C1026 C1028 1.327 . S
C1026 H1051 0.950 . S
C1027 C1026 1.349 . S
C1027 C1043 1.349 . S
C1028 C1026 1.327 . S
C1028 C1047 1.429 . S
C1028 H1052 0.950 . S
C1029 C1046 1.574 . S
C1029 C1048 1.368 . S
C1029 H1053 0.949 . S
H1030 C1034 0.949 . S
C1031 C1032 1.349 . S
C1031 C1033 1.327 . S
C1031 H1054 0.950 . S
C1032 C1031 1.349 . S
C1032 C1044 1.349 . S
C1033 C1031 1.327 . S
C1033 C1049 1.429 . S
C1033 H1055 0.950 . S
C1034 H1030 0.949 . S
C1034 C1042 1.574 . S
C1034 C1050 1.368 . S
H1035 C1043 0.950 . S
H1036 C1041 0.950 . S
H1037 C1042 0.949 . S
H1038 C1044 0.950 . S
H1039 C1045 0.950 . S
H1040 C1046 0.949 . S
C1041 H1036 0.950 . S
C1041 C1043 1.327 . S
C1041 C1047 1.429 . S
C1042 C1034 1.574 . S
C1042 H1037 0.949 . S
C1042 C1048 1.368 . S
C1043 C1027 1.349 . S
C1043 H1035 0.950 . S
C1043 C1041 1.327 . S
C1044 C1032 1.349 . S
C1044 H1038 0.950 . S
C1044 C1045 1.327 . S
C1045 H1039 0.950 . S
C1045 C1044 1.327 . S
C1045 C1049 1.429 . S
C1046 C1029 1.574 . S
C1046 H1040 0.949 . S
C1046 C1050 1.368 . S
C1047 C1028 1.429 . S
C1047 C1041 1.429 . S
C1047 C1048 1.523 . S
C1048 C1029 1.368 . S
C1048 C1042 1.368 . S
C1048 C1047 1.523 . S
C1049 C1033 1.429 . S
C1049 C1045 1.429 . S
C1049 C1050 1.523 . S
C1050 C1034 1.368 . S
C1050 C1046 1.368 . S
C1050 C1049 1.523 . S
H1051 C1026 0.950 . S
H1052 C1028 0.950 . S
H1053 C1029 0.949 . S
H1054 C1031 0.950 . S
H1055 C1033 0.950 . S
C1056 C1057 1.349 . S
C1056 C1058 1.327 . S
C1056 H1081 0.950 . S
C1057 C1056 1.349 . S
C1057 C1073 1.349 . S
C1058 C1056 1.327 . S
C1058 C1077 1.429 . S
C1058 H1082 0.950 . S
C1059 C1076 1.574 . S
C1059 C1078 1.368 . S
C1059 H1083 0.949 . S
H1060 C1064 0.949 . S
C1061 C1062 1.349 . S
C1061 C1063 1.327 . S
C1061 H1084 0.950 . S
C1062 C1061 1.349 . S
C1062 C1074 1.349 . S
C1063 C1061 1.327 . S
C1063 C1079 1.429 . S
C1063 H1085 0.950 . S
C1064 H1060 0.949 . S
C1064 C1072 1.574 1_545 S
C1064 C1080 1.368 . S
H1065 C1073 0.950 . S
H1066 C1071 0.950 . S
H1067 C1072 0.949 . S
H1068 C1074 0.950 . S
H1069 C1075 0.950 . S
H1070 C1076 0.949 . S
C1071 H1066 0.950 . S
C1071 C1073 1.327 . S
C1071 C1077 1.429 . S
C1072 C1064 1.574 1_565 S
C1072 H1067 0.949 . S
C1072 C1078 1.368 . S
C1073 C1057 1.349 . S
C1073 H1065 0.950 . S
C1073 C1071 1.327 . S
C1074 C1062 1.349 . S
C1074 H1068 0.950 . S
C1074 C1075 1.327 . S
C1075 H1069 0.950 . S
C1075 C1074 1.327 . S
C1075 C1079 1.429 . S
C1076 C1059 1.574 . S
C1076 H1070 0.949 . S
C1076 C1080 1.368 1_565 S
C1077 C1058 1.429 . S
C1077 C1071 1.429 . S
C1077 C1078 1.523 . S
C1078 C1059 1.368 . S
C1078 C1072 1.368 . S
C1078 C1077 1.523 . S
C1079 C1063 1.429 . S
C1079 C1075 1.429 . S
C1079 C1080 1.523 . S
C1080 C1064 1.368 . S
C1080 C1076 1.368 1_545 S
C1080 C1079 1.523 . S
H1081 C1056 0.950 . S
H1082 C1058 0.950 . S
H1083 C1059 0.949 . S
H1084 C1061 0.950 . S
H1085 C1063 0.950 . S
C1086 C1087 1.349 . S
C1086 C1088 1.327 . S
C1086 H1111 0.950 . S
C1087 C1086 1.349 . S
C1087 C1103 1.349 . S
C1088 C1086 1.327 . S
C1088 C1107 1.429 . S
C1088 H1112 0.950 . S
C1089 C1106 1.574 . S
C1089 C1108 1.368 . S
C1089 H1113 0.949 . S
H1090 C1094 0.949 . S
C1091 C1092 1.349 . S
C1091 C1093 1.327 . S
C1091 H1114 0.950 . S
C1092 C1091 1.349 . S
C1092 C1104 1.349 . S
C1093 C1091 1.327 . S
C1093 C1109 1.429 . S
C1093 H1115 0.950 . S
C1094 H1090 0.949 . S
C1094 C1102 1.574 1_655 S
C1094 C1110 1.368 . S
H1095 C1103 0.950 . S
H1096 C1101 0.950 . S
H1097 C1102 0.949 . S
H1098 C1104 0.950 . S
H1099 C1105 0.950 . S
H1100 C1106 0.949 . S
C1101 H1096 0.950 . S
C1101 C1103 1.327 . S
C1101 C1107 1.429 . S
C1102 C1094 1.574 1_455 S
C1102 H1097 0.949 . S
C1102 C1108 1.368 . S
C1103 C1087 1.349 . S
C1103 H1095 0.950 . S
C1103 C1101 1.327 . S
C1104 C1092 1.349 . S
C1104 H1098 0.950 . S
C1104 C1105 1.327 . S
C1105 H1099 0.950 . S
C1105 C1104 1.327 . S
C1105 C1109 1.429 . S
C1106 C1089 1.574 . S
C1106 H1100 0.949 . S
C1106 C1110 1.368 1_455 S
C1107 C1088 1.429 . S
C1107 C1101 1.429 . S
C1107 C1108 1.523 . S
C1108 C1089 1.368 . S
C1108 C1102 1.368 . S
C1108 C1107 1.523 . S
C1109 C1093 1.429 . S
C1109 C1105 1.429 . S
C1109 C1110 1.523 . S
C1110 C1094 1.368 . S
C1110 C1106 1.368 1_655 S
C1110 C1109 1.523 . S
H1111 C1086 0.950 . S
H1112 C1088 0.950 . S
H1113 C1089 0.949 . S
H1114 C1091 0.950 . S
H1115 C1093 0.950 . S
C1116 C1117 1.349 . S
C1116 C1118 1.327 . S
C1116 H1141 0.950 . S
C1117 C1116 1.349 . S
C1117 C1133 1.349 . S
C1118 C1116 1.327 . S
C1118 C1137 1.429 . S
C1118 H1142 0.950 . S
C1119 C1136 1.574 . S
C1119 C1138 1.368 . S
C1119 H1143 0.949 . S
H1120 C1124 0.949 . S
C1121 C1122 1.349 . S
C1121 C1123 1.327 . S
C1121 H1144 0.950 . S
C1122 C1121 1.349 . S
C1122 C1134 1.349 . S
C1123 C1121 1.327 . S
C1123 C1139 1.429 . S
C1123 H1145 0.950 . S
C1124 H1120 0.949 . S
C1124 C1132 1.574 . S
C1124 C1140 1.368 . S
H1125 C1133 0.950 . S
H1126 C1131 0.950 . S
H1127 C1132 0.949 . S
H1128 C1134 0.950 . S
H1129 C1135 0.950 . S
H1130 C1136 0.949 . S
C1131 H1126 0.950 . S
C1131 C1133 1.327 . S
C1131 C1137 1.429 . S
C1132 C1124 1.574 . S
C1132 H1127 0.949 . S
C1132 C1138 1.368 . S
C1133 C1117 1.349 . S
C1133 H1125 0.950 . S
C1133 C1131 1.327 . S
C1134 C1122 1.349 . S
C1134 H1128 0.950 . S
C1134 C1135 1.327 . S
C1135 H1129 0.950 . S
C1135 C1134 1.327 . S
C1135 C1139 1.429 . S
C1136 C1119 1.574 . S
C1136 H1130 0.949 . S
C1136 C1140 1.368 . S
C1137 C1118 1.429 . S
C1137 C1131 1.429 . S
C1137 C1138 1.523 . S
C1138 C1119 1.368 . S
C1138 C1132 1.368 . S
C1138 C1137 1.523 . S
C1139 C1123 1.429 . S
C1139 C1135 1.429 . S
C1139 C1140 1.523 . S
C1140 C1124 1.368 . S
C1140 C1136 1.368 . S
C1140 C1139 1.523 . S
H1141 C1116 0.950 . S
H1142 C1118 0.950 . S
H1143 C1119 0.949 . S
H1144 C1121 0.950 . S
H1145 C1123 0.950 . S
C1146 C1147 1.349 . S
C1146 C1148 1.327 . S
C1146 H1171 0.950 . S
C1147 C1146 1.349 . S
C1147 C1163 1.349 . S
C1148 C1146 1.327 . S
C1148 C1167 1.429 . S
C1148 H1172 0.950 . S
C1149 C1166 1.574 . S
C1149 C1168 1.368 . S
C1149 H1173 0.949 . S
H1150 C1154 0.949 . S
C1151 C1152 1.349 . S
C1151 C1153 1.327 . S
C1151 H1174 0.950 . S
C1152 C1151 1.349 . S
C1152 C1164 1.349 . S
C1153 C1151 1.327 . S
C1153 C1169 1.429 . S
C1153 H1175 0.950 . S
C1154 H1150 0.949 . S
C1154 C1162 1.574 . S
C1154 C1170 1.368 . S
H1155 C1163 0.950 . S
H1156 C1161 0.950 . S
H1157 C1162 0.949 . S
H1158 C1164 0.950 . S
H1159 C1165 0.950 . S
H1160 C1166 0.949 . S
C1161 H1156 0.950 . S
C1161 C1163 1.327 . S
C1161 C1167 1.429 . S
C1162 C1154 1.574 . S
C1162 H1157 0.949 . S
C1162 C1168 1.368 . S
C1163 C1147 1.349 . S
C1163 H1155 0.950 . S
C1163 C1161 1.327 . S
C1164 C1152 1.349 . S
C1164 H1158 0.950 . S
C1164 C1165 1.327 . S
C1165 H1159 0.950 . S
C1165 C1164 1.327 . S
C1165 C1169 1.429 . S
C1166 C1149 1.574 . S
C1166 H1160 0.949 . S
C1166 C1170 1.368 . S
C1167 C1148 1.429 . S
C1167 C1161 1.429 . S
C1167 C1168 1.523 . S
C1168 C1149 1.368 . S
C1168 C1162 1.368 . S
C1168 C1167 1.523 . S
C1169 C1153 1.429 . S
C1169 C1165 1.429 . S
C1169 C1170 1.523 . S
C1170 C1154 1.368 . S
C1170 C1166 1.368 . S
C1170 C1169 1.523 . S
H1171 C1146 0.950 . S
H1172 C1148 0.950 . S
H1173 C1149 0.949 . S
H1174 C1151 0.950 . S
H1175 C1153 0.950 . S
C1176 C1177 1.349 . S
C1176 C1178 1.327 . S
C1176 H1201 0.950 . S
C1177 C1176 1.349 . S
C1177 C1193 1.349 . S
C1178 C1176 1.327 . S
C1178 C1197 1.429 . S
C1178 H1202 0.950 . S
C1179 C1196 1.574 . S
C1179 C1198 1.368 . S
C1179 H1203 0.949 . S
H1180 C1184 0.949 . S
C1181 C1182 1.349 . S
C1181 C1183 1.327 . S
C1181 H1204 0.950 . S
C1182 C1181 1.349 . S
C1182 C1194 1.349 . S
C1183 C1181 1.327 . S
C1183 C1199 1.429 . S
C1183 H1205 0.950 . S
C1184 H1180 0.949 . S
C1184 C1192 1.574 . S
C1184 C1200 1.368 . S
H1185 C1193 0.950 . S
H1186 C1191 0.950 . S
H1187 C1192 0.949 . S
H1188 C1194 0.950 . S
H1189 C1195 0.950 . S
H1190 C1196 0.949 . S
C1191 H1186 0.950 . S
C1191 C1193 1.327 . S
C1191 C1197 1.429 . S
C1192 C1184 1.574 . S
C1192 H1187 0.949 . S
C1192 C1198 1.368 . S
C1193 C1177 1.349 . S
C1193 H1185 0.950 . S
C1193 C1191 1.327 . S
C1194 C1182 1.349 . S
C1194 H1188 0.950 . S
C1194 C1195 1.327 . S
C1195 H1189 0.950 . S
C1195 C1194 1.327 . S
C1195 C1199 1.429 . S
C1196 C1179 1.574 . S
C1196 H1190 0.949 . S
C1196 C1200 1.368 . S
C1197 C1178 1.429 . S
C1197 C1191 1.429 . S
C1197 C1198 1.523 . S
C1198 C1179 1.368 . S
C1198 C1192 1.368 . S
C1198 C1197 1.523 . S
C1199 C1183 1.429 . S
C1199 C1195 1.429 . S
C1199 C1200 1.523 . S
C1200 C1184 1.368 . S
C1200 C1196 1.368 . S
C1200 C1199 1.523 . S
H1201 C1176 0.950 . S
H1202 C1178 0.950 . S
H1203 C1179 0.949 . S
H1204 C1181 0.950 . S
H1205 C1183 0.950 . S
C1206 C1207 1.349 . S
C1206 C1208 1.327 . S
C1206 H1231 0.950 . S
C1207 C1206 1.349 . S
C1207 C1223 1.349 . S
C1208 C1206 1.327 . S
C1208 C1227 1.429 . S
C1208 H1232 0.950 . S
C1209 C1226 1.574 . S
C1209 C1228 1.368 . S
C1209 H1233 0.949 . S
H1210 C1214 0.949 . S
C1211 C1212 1.349 . S
C1211 C1213 1.327 . S
C1211 H1234 0.950 . S
C1212 C1211 1.349 . S
C1212 C1224 1.349 . S
C1213 C1211 1.327 . S
C1213 C1229 1.429 . S
C1213 H1235 0.950 . S
C1214 H1210 0.949 . S
C1214 C1222 1.574 . S
C1214 C1230 1.368 . S
H1215 C1223 0.950 . S
H1216 C1221 0.950 . S
H1217 C1222 0.949 . S
H1218 C1224 0.950 . S
H1219 C1225 0.950 . S
H1220 C1226 0.949 . S
C1221 H1216 0.950 . S
C1221 C1223 1.327 . S
C1221 C1227 1.429 . S
C1222 C1214 1.574 . S
C1222 H1217 0.949 . S
C1222 C1228 1.368 . S
C1223 C1207 1.349 . S
C1223 H1215 0.950 . S
C1223 C1221 1.327 . S
C1224 C1212 1.349 . S
C1224 H1218 0.950 . S
C1224 C1225 1.327 . S
C1225 H1219 0.950 . S
C1225 C1224 1.327 . S
C1225 C1229 1.429 . S
C1226 C1209 1.574 . S
C1226 H1220 0.949 . S
C1226 C1230 1.368 . S
C1227 C1208 1.429 . S
C1227 C1221 1.429 . S
C1227 C1228 1.523 . S
C1228 C1209 1.368 . S
C1228 C1222 1.368 . S
C1228 C1227 1.523 . S
C1229 C1213 1.429 . S
C1229 C1225 1.429 . S
C1229 C1230 1.523 . S
C1230 C1214 1.368 . S
C1230 C1226 1.368 . S
C1230 C1229 1.523 . S
H1231 C1206 0.950 . S
H1232 C1208 0.950 . S
H1233 C1209 0.949 . S
H1234 C1211 0.950 . S
H1235 C1213 0.950 . S
C1236 C1237 1.349 . S
C1236 C1238 1.327 . S
C1236 H1261 0.950 . S
C1237 C1236 1.349 . S
C1237 C1253 1.349 . S
C1238 C1236 1.327 . S
C1238 C1257 1.429 . S
C1238 H1262 0.950 . S
C1239 C1256 1.574 . S
C1239 C1258 1.368 . S
C1239 H1263 0.949 . S
H1240 C1244 0.949 . S
C1241 C1242 1.349 . S
C1241 C1243 1.327 . S
C1241 H1264 0.950 . S
C1242 C1241 1.349 . S
C1242 C1254 1.349 . S
C1243 C1241 1.327 . S
C1243 C1259 1.429 . S
C1243 H1265 0.950 . S
C1244 H1240 0.949 . S
C1244 C1252 1.574 . S
C1244 C1260 1.368 . S
H1245 C1253 0.950 . S
H1246 C1251 0.950 . S
H1247 C1252 0.949 . S
H1248 C1254 0.950 . S
H1249 C1255 0.950 . S
H1250 C1256 0.949 . S
C1251 H1246 0.950 . S
C1251 C1253 1.327 . S
C1251 C1257 1.429 . S
C1252 C1244 1.574 . S
C1252 H1247 0.949 . S
C1252 C1258 1.368 . S
C1253 C1237 1.349 . S
C1253 H1245 0.950 . S
C1253 C1251 1.327 . S
C1254 C1242 1.349 . S
C1254 H1248 0.950 . S
C1254 C1255 1.327 . S
C1255 H1249 0.950 . S
C1255 C1254 1.327 . S
C1255 C1259 1.429 . S
C1256 C1239 1.574 . S
C1256 H1250 0.949 . S
C1256 C1260 1.368 . S
C1257 C1238 1.429 . S
C1257 C1251 1.429 . S
C1257 C1258 1.523 . S
C1258 C1239 1.368 . S
C1258 C1252 1.368 . S
C1258 C1257 1.523 . S
C1259 C1243 1.429 . S
C1259 C1255 1.429 . S
C1259 C1260 1.523 . S
C1260 C1244 1.368 . S
C1260 C1256 1.368 . S
C1260 C1259 1.523 . S
H1261 C1236 0.950 . S
H1262 C1238 0.950 . S
H1263 C1239 0.949 . S
H1264 C1241 0.950 . S
H1265 C1243 0.950 . S
C1266 C1267 1.349 . S
C1266 C1268 1.327 . S
C1266 H1291 0.950 . S
C1267 C1266 1.349 . S
C1267 C1283 1.349 . S
C1268 C1266 1.327 . S
C1268 C1287 1.429 . S
C1268 H1292 0.950 . S
C1269 C1286 1.574 . S
C1269 C1288 1.368 . S
C1269 H1293 0.949 . S
H1270 C1274 0.949 . S
C1271 C1272 1.349 . S
C1271 C1273 1.327 . S
C1271 H1294 0.950 . S
C1272 C1271 1.349 . S
C1272 C1284 1.349 . S
C1273 C1271 1.327 . S
C1273 C1289 1.429 . S
C1273 H1295 0.950 . S
C1274 H1270 0.949 . S
C1274 C1282 1.574 . S
C1274 C1290 1.368 . S
H1275 C1283 0.950 . S
H1276 C1281 0.950 . S
H1277 C1282 0.949 . S
H1278 C1284 0.950 . S
H1279 C1285 0.950 . S
H1280 C1286 0.949 . S
C1281 H1276 0.950 . S
C1281 C1283 1.327 . S
C1281 C1287 1.429 . S
C1282 C1274 1.574 . S
C1282 H1277 0.949 . S
C1282 C1288 1.368 . S
C1283 C1267 1.349 . S
C1283 H1275 0.950 . S
C1283 C1281 1.327 . S
C1284 C1272 1.349 . S
C1284 H1278 0.950 . S
C1284 C1285 1.327 . S
C1285 H1279 0.950 . S
C1285 C1284 1.327 . S
C1285 C1289 1.429 . S
C1286 C1269 1.574 . S
C1286 H1280 0.949 . S
C1286 C1290 1.368 . S
C1287 C1268 1.429 . S
C1287 C1281 1.429 . S
C1287 C1288 1.523 . S
C1288 C1269 1.368 . S
C1288 C1282 1.368 . S
C1288 C1287 1.523 . S
C1289 C1273 1.429 . S
C1289 C1285 1.429 . S
C1289 C1290 1.523 . S
C1290 C1274 1.368 . S
C1290 C1286 1.368 . S
C1290 C1289 1.523 . S
H1291 C1266 0.950 . S
H1292 C1268 0.950 . S
H1293 C1269 0.949 . S
H1294 C1271 0.950 . S
H1295 C1273 0.950 . S
C1296 C1297 1.349 . S
C1296 C1298 1.327 . S
C1296 H1321 0.950 . S
C1297 C1296 1.349 . S
C1297 C1313 1.349 . S
C1298 C1296 1.327 . S
C1298 C1317 1.429 . S
C1298 H1322 0.950 . S
C1299 C1316 1.574 . S
C1299 C1318 1.368 . S
C1299 H1323 0.949 . S
H1300 C1304 0.949 . S
C1301 C1302 1.349 . S
C1301 C1303 1.327 . S
C1301 H1324 0.950 . S
C1302 C1301 1.349 . S
C1302 C1314 1.349 . S
C1303 C1301 1.327 . S
C1303 C1319 1.429 . S
C1303 H1325 0.950 . S
C1304 H1300 0.949 . S
C1304 C1312 1.574 . S
C1304 C1320 1.368 . S
H1305 C1313 0.950 . S
H1306 C1311 0.950 . S
H1307 C1312 0.949 . S
H1308 C1314 0.950 . S
H1309 C1315 0.950 . S
H1310 C1316 0.949 . S
C1311 H1306 0.950 . S
C1311 C1313 1.327 . S
C1311 C1317 1.429 . S
C1312 C1304 1.574 . S
C1312 H1307 0.949 . S
C1312 C1318 1.368 . S
C1313 C1297 1.349 . S
C1313 H1305 0.950 . S
C1313 C1311 1.327 . S
C1314 C1302 1.349 . S
C1314 H1308 0.950 . S
C1314 C1315 1.327 . S
C1315 H1309 0.950 . S
C1315 C1314 1.327 . S
C1315 C1319 1.429 . S
C1316 C1299 1.574 . S
C1316 H1310 0.949 . S
C1316 C1320 1.368 . S
C1317 C1298 1.429 . S
C1317 C1311 1.429 . S
C1317 C1318 1.523 . S
C1318 C1299 1.368 . S
C1318 C1312 1.368 . S
C1318 C1317 1.523 . S
C1319 C1303 1.429 . S
C1319 C1315 1.429 . S
C1319 C1320 1.523 . S
C1320 C1304 1.368 . S
C1320 C1316 1.368 . S
C1320 C1319 1.523 . S
H1321 C1296 0.950 . S
H1322 C1298 0.950 . S
H1323 C1299 0.949 . S
H1324 C1301 0.950 . S
H1325 C1303 0.950 . S
C1326 C1327 1.349 . S
C1326 C1328 1.327 . S
C1326 H1351 0.950 . S
C1327 C1326 1.349 . S
C1327 C1343 1.349 . S
C1328 C1326 1.327 . S
C1328 C1347 1.429 . S
C1328 H1352 0.950 . S
C1329 C1346 1.574 . S
C1329 C1348 1.368 . S
C1329 H1353 0.949 . S
H1330 C1334 0.949 . S
C1331 C1332 1.349 . S
C1331 C1333 1.327 . S
C1331 H1354 0.950 . S
C1332 C1331 1.349 . S
C1332 C1344 1.349 . S
C1333 C1331 1.327 . S
C1333 C1349 1.429 . S
C1333 H1355 0.950 . S
C1334 H1330 0.949 . S
C1334 C1342 1.574 . S
C1334 C1350 1.368 . S
H1335 C1343 0.950 . S
H1336 C1341 0.950 . S
H1337 C1342 0.949 . S
H1338 C1344 0.950 . S
H1339 C1345 0.950 . S
H1340 C1346 0.949 . S
C1341 H1336 0.950 . S
C1341 C1343 1.327 . S
C1341 C1347 1.429 . S
C1342 C1334 1.574 . S
C1342 H1337 0.949 . S
C1342 C1348 1.368 . S
C1343 C1327 1.349 . S
C1343 H1335 0.950 . S
C1343 C1341 1.327 . S
C1344 C1332 1.349 . S
C1344 H1338 0.950 . S
C1344 C1345 1.327 . S
C1345 H1339 0.950 . S
C1345 C1344 1.327 . S
C1345 C1349 1.429 . S
C1346 C1329 1.574 . S
C1346 H1340 0.949 . S
C1346 C1350 1.368 . S
C1347 C1328 1.429 . S
C1347 C1341 1.429 . S
C1347 C1348 1.523 . S
C1348 C1329 1.368 . S
C1348 C1342 1.368 . S
C1348 C1347 1.523 . S
C1349 C1333 1.429 . S
C1349 C1345 1.429 . S
C1349 C1350 1.523 . S
C1350 C1334 1.368 . S
C1350 C1346 1.368 . S
C1350 C1349 1.523 . S
H1351 C1326 0.950 . S
H1352 C1328 0.950 . S
H1353 C1329 0.949 . S
H1354 C1331 0.950 . S
H1355 C1333 0.950 . S
C1356 C1357 1.349 . S
C1356 C1358 1.327 . S
C1356 H1381 0.950 . S
C1357 C1356 1.349 . S
C1357 C1373 1.349 . S
C1358 C1356 1.327 . S
C1358 C1377 1.429 . S
C1358 H1382 0.950 . S
C1359 C1376 1.574 . S
C1359 C1378 1.368 . S
C1359 H1383 0.949 . S
H1360 C1364 0.949 . S
C1361 C1362 1.349 . S
C1361 C1363 1.327 . S
C1361 H1384 0.950 . S
C1362 C1361 1.349 . S
C1362 C1374 1.349 . S
C1363 C1361 1.327 . S
C1363 C1379 1.429 . S
C1363 H1385 0.950 . S
C1364 H1360 0.949 . S
C1364 C1372 1.574 . S
C1364 C1380 1.368 . S
H1365 C1373 0.950 . S
H1366 C1371 0.950 . S
H1367 C1372 0.949 . S
H1368 C1374 0.950 . S
H1369 C1375 0.950 . S
H1370 C1376 0.949 . S
C1371 H1366 0.950 . S
C1371 C1373 1.327 . S
C1371 C1377 1.429 . S
C1372 C1364 1.574 . S
C1372 H1367 0.949 . S
C1372 C1378 1.368 . S
C1373 C1357 1.349 . S
C1373 H1365 0.950 . S
C1373 C1371 1.327 . S
C1374 C1362 1.349 . S
C1374 H1368 0.950 . S
C1374 C1375 1.327 . S
C1375 H1369 0.950 . S
C1375 C1374 1.327 . S
C1375 C1379 1.429 . S
C1376 C1359 1.574 . S
C1376 H1370 0.949 . S
C1376 C1380 1.368 . S
C1377 C1358 1.429 . S
C1377 C1371 1.429 . S
C1377 C1378 1.523 . S
C1378 C1359 1.368 . S
C1378 C1372 1.368 . S
C1378 C1377 1.523 . S
C1379 C1363 1.429 . S
C1379 C1375 1.429 . S
C1379 C1380 1.523 . S
C1380 C1364 1.368 . S
C1380 C1376 1.368 . S
C1380 C1379 1.523 . S
H1381 C1356 0.950 . S
H1382 C1358 0.950 . S
H1383 C1359 0.949 . S
H1384 C1361 0.950 . S
H1385 C1363 0.950 . S
C1386 C1387 1.349 . S
C1386 C1388 1.327 1_556 S
C1386 H1411 0.950 . S
C1387 C1386 1.349 . S
C1387 C1403 1.349 . S
C1388 C1386 1.327 1_554 S
C1388 C1407 1.429 . S
C1388 H1412 0.950 . S
C1389 C1406 1.574 . S
C1389 C1408 1.368 . S
C1389 H1413 0.949 . S
H1390 C1394 0.949 . S
C1391 C1392 1.349 . S
C1391 C1393 1.327 . S
C1391 H1414 0.950 . S
C1392 C1391 1.349 . S
C1392 C1404 1.349 . S
C1393 C1391 1.327 . S
C1393 C1409 1.429 . S
C1393 H1415 0.950 . S
C1394 H1390 0.949 . S
C1394 C1402 1.574 . S
C1394 C1410 1.368 . S
H1395 C1403 0.950 . S
H1396 C1401 0.950 . S
H1397 C1402 0.949 . S
H1398 C1404 0.950 . S
H1399 C1405 0.950 . S
H1400 C1406 0.949 . S
C1401 H1396 0.950 . S
C1401 C1403 1.327 . S
C1401 C1407 1.429 1_556 S
C1402 C1394 1.574 . S
C1402 H1397 0.949 . S
C1402 C1408 1.368 . S
C1403 C1387 1.349 . S
C1403 H1395 0.950 . S
C1403 C1401 1.327 . S
C1404 C1392 1.349 . S
C1404 H1398 0.950 . S
C1404 C1405 1.327 . S
C1405 H1399 0.950 . S
C1405 C1404 1.327 . S
C1405 C1409 1.429 . S
C1406 C1389 1.574 . S
C1406 H1400 0.949 . S
C1406 C1410 1.368 . S
C1407 C1388 1.429 . S
C1407 C1401 1.429 1_554 S
C1407 C1408 1.523 . S
C1408 C1389 1.368 . S
C1408 C1402 1.368 . S
C1408 C1407 1.523 . S
C1409 C1393 1.429 . S
C1409 C1405 1.429 . S
C1409 C1410 1.523 . S
C1410 C1394 1.368 . S
C1410 C1406 1.368 . S
C1410 C1409 1.523 . S
H1411 C1386 0.950 . S
H1412 C1388 0.950 . S
H1413 C1389 0.949 . S
H1414 C1391 0.950 . S
H1415 C1393 0.950 . S
C1416 C1417 1.349 . S
C1416 C1418 1.299 1_556 S
C1416 H1441 0.950 . S
C1417 C1416 1.349 . S
C1417 C1433 1.349 . S
C1418 C1416 1.299 1_554 S
C1418 C1437 1.444 . S
C1418 H1442 0.963 . S
C1419 C1436 1.574 . S
C1419 C1438 1.368 . S
C1419 H1443 0.949 . S
H1420 C1424 0.949 . S
C1421 C1422 1.349 . S
C1421 C1423 1.327 . S
C1421 H1444 0.950 . S
C1422 C1421 1.349 . S
C1422 C1434 1.349 . S
C1423 C1421 1.327 . S
C1423 C1439 1.429 . S
C1423 H1445 0.950 . S
C1424 H1420 0.949 . S
C1424 C1432 1.574 . S
C1424 C1440 1.368 . S
H1425 C1433 0.950 . S
H1426 C1431 0.959 . S
H1427 C1432 0.949 . S
H1428 C1434 0.950 . S
H1429 C1435 0.950 . S
H1430 C1436 0.949 . S
C1431 H1426 0.959 . S
C1431 C1433 1.306 1_554 S
C1431 C1437 1.440 . S
C1432 C1424 1.574 . S
C1432 H1427 0.949 . S
C1432 C1438 1.368 . S
C1433 C1417 1.349 . S
C1433 H1425 0.950 . S
C1433 C1431 1.306 1_556 S
C1434 C1422 1.349 . S
C1434 H1428 0.950 . S
C1434 C1435 1.327 . S
C1435 H1429 0.950 . S
C1435 C1434 1.327 . S
C1435 C1439 1.429 . S
C1436 C1419 1.574 . S
C1436 H1430 0.949 . S
C1436 C1440 1.368 . S
C1437 C1418 1.444 . S
C1437 C1431 1.440 . S
C1437 C1438 1.523 . S
C1438 C1419 1.368 . S
C1438 C1432 1.368 . S
C1438 C1437 1.523 . S
C1439 C1423 1.429 . S
C1439 C1435 1.429 . S
C1439 C1440 1.523 . S
C1440 C1424 1.368 . S
C1440 C1436 1.368 . S
C1440 C1439 1.523 . S
H1441 C1416 0.950 . S
H1442 C1418 0.963 . S
H1443 C1419 0.949 . S
H1444 C1421 0.950 . S
H1445 C1423 0.950 . S
C1446 C1447 1.349 . S
C1446 C1448 1.327 . S
C1446 H1471 0.950 . S
C1447 C1446 1.349 . S
C1447 C1463 1.349 . S
C1448 C1446 1.327 . S
C1448 C1467 1.429 1_556 S
C1448 H1472 0.950 1_556 S
C1449 C1466 1.574 . S
C1449 C1468 1.368 . S
C1449 H1473 0.949 . S
H1450 C1454 0.949 . S
C1451 C1452 1.349 . S
C1451 C1453 1.327 . S
C1451 H1474 0.950 . S
C1452 C1451 1.349 . S
C1452 C1464 1.349 . S
C1453 C1451 1.327 . S
C1453 C1469 1.429 . S
C1453 H1475 0.950 . S
C1454 H1450 0.949 . S
C1454 C1462 1.574 . S
C1454 C1470 1.368 . S
H1455 C1463 0.950 . S
H1456 C1461 0.950 . S
H1457 C1462 0.949 . S
H1458 C1464 0.950 . S
H1459 C1465 0.950 . S
H1460 C1466 0.949 . S
C1461 H1456 0.950 . S
C1461 C1463 1.327 1_554 S
C1461 C1467 1.429 . S
C1462 C1454 1.574 . S
C1462 H1457 0.949 . S
C1462 C1468 1.368 . S
C1463 C1447 1.349 . S
C1463 H1455 0.950 . S
C1463 C1461 1.327 1_556 S
C1464 C1452 1.349 . S
C1464 H1458 0.950 . S
C1464 C1465 1.327 . S
C1465 H1459 0.950 . S
C1465 C1464 1.327 . S
C1465 C1469 1.429 . S
C1466 C1449 1.574 . S
C1466 H1460 0.949 . S
C1466 C1470 1.368 . S
C1467 C1448 1.429 1_554 S
C1467 C1461 1.429 . S
C1467 C1468 1.523 . S
C1468 C1449 1.368 . S
C1468 C1462 1.368 . S
C1468 C1467 1.523 . S
C1469 C1453 1.429 . S
C1469 C1465 1.429 . S
C1469 C1470 1.523 . S
C1470 C1454 1.368 . S
C1470 C1466 1.368 . S
C1470 C1469 1.523 . S
H1471 C1446 0.950 . S
H1472 C1448 0.950 1_554 S
H1473 C1449 0.949 . S
H1474 C1451 0.950 . S
H1475 C1453 0.950 . S
C1476 C1477 1.349 . S
C1476 C1478 1.327 . S
C1476 H1501 0.950 . S
C1477 C1476 1.349 . S
C1477 C1493 1.349 . S
C1478 C1476 1.327 . S
C1478 C1497 1.429 . S
C1478 H1502 0.950 . S
C1479 C1496 1.574 . S
C1479 C1498 1.368 . S
C1479 H1503 0.949 . S
H1480 C1484 0.949 . S
C1481 C1482 1.349 . S
C1481 C1483 1.327 . S
C1481 H1504 0.950 . S
C1482 C1481 1.349 . S
C1482 C1494 1.349 . S
C1483 C1481 1.327 . S
C1483 C1499 1.444 . S
C1483 H1505 0.950 . S
C1484 H1480 0.949 . S
C1484 C1492 1.574 . S
C1484 C1500 1.368 . S
H1485 C1493 0.950 . S
H1486 C1491 0.950 . S
H1487 C1492 0.949 . S
H1488 C1494 0.950 . S
H1489 C1495 0.944 1_556 S
H1490 C1496 0.949 . S
C1491 H1486 0.950 . S
C1491 C1493 1.327 . S
C1491 C1497 1.429 . S
C1492 C1484 1.574 . S
C1492 H1487 0.949 . S
C1492 C1498 1.368 . S
C1493 C1477 1.349 . S
C1493 H1485 0.950 . S
C1493 C1491 1.327 . S
C1494 C1482 1.349 . S
C1494 H1488 0.950 . S
C1494 C1495 1.327 . S
C1495 H1489 0.944 1_554 S
C1495 C1494 1.327 . S
C1495 C1499 1.437 . S
C1496 C1479 1.574 . S
C1496 H1490 0.949 . S
C1496 C1500 1.368 . S
C1497 C1478 1.429 . S
C1497 C1491 1.429 . S
C1497 C1498 1.523 . S
C1498 C1479 1.368 . S
C1498 C1492 1.368 . S
C1498 C1497 1.523 . S
C1499 C1483 1.444 . S
C1499 C1495 1.437 . S
C1499 C1500 1.500 1_554 S
C1500 C1484 1.368 . S
C1500 C1496 1.368 . S
C1500 C1499 1.500 1_556 S
H1501 C1476 0.950 . S
H1502 C1478 0.950 . S
H1503 C1479 0.949 . S
H1504 C1481 0.950 . S
H1505 C1483 0.950 . S
C1506 C1507 1.349 . S
C1506 C1508 1.327 . S
C1506 H1531 0.950 . S
C1507 C1506 1.349 . S
C1507 C1523 1.349 . S
C1508 C1506 1.327 . S
C1508 C1527 1.429 . S
C1508 H1532 0.950 . S
C1509 C1526 1.574 . S
C1509 C1528 1.368 . S
C1509 H1533 0.949 . S
H1510 C1514 0.949 . S
C1511 C1512 1.349 . S
C1511 C1513 1.327 . S
C1511 H1534 0.950 . S
C1512 C1511 1.349 . S
C1512 C1524 1.349 . S
C1513 C1511 1.327 . S
C1513 C1529 1.435 . S
C1513 H1535 0.950 1_554 S
C1514 H1510 0.949 . S
C1514 C1522 1.574 . S
C1514 C1530 1.368 . S
H1515 C1523 0.950 . S
H1516 C1521 0.950 . S
H1517 C1522 0.949 . S
H1518 C1524 0.950 . S
H1519 C1525 0.950 . S
H1520 C1526 0.949 . S
C1521 H1516 0.950 . S
C1521 C1523 1.327 . S
C1521 C1527 1.429 . S
C1522 C1514 1.574 . S
C1522 H1517 0.949 . S
C1522 C1528 1.368 . S
C1523 C1507 1.349 . S
C1523 H1515 0.950 . S
C1523 C1521 1.327 . S
C1524 C1512 1.349 . S
C1524 H1518 0.950 . S
C1524 C1525 1.327 . S
C1525 H1519 0.950 . S
C1525 C1524 1.327 . S
C1525 C1529 1.446 . S
C1526 C1509 1.574 . S
C1526 H1520 0.949 . S
C1526 C1530 1.368 . S
C1527 C1508 1.429 . S
C1527 C1521 1.429 . S
C1527 C1528 1.523 . S
C1528 C1509 1.368 . S
C1528 C1522 1.368 . S
C1528 C1527 1.523 . S
C1529 C1513 1.435 . S
C1529 C1525 1.446 . S
C1529 C1530 1.501 1_554 S
C1530 C1514 1.368 . S
C1530 C1526 1.368 . S
C1530 C1529 1.501 1_556 S
H1531 C1506 0.950 . S
H1532 C1508 0.950 . S
H1533 C1509 0.949 . S
H1534 C1511 0.950 . S
H1535 C1513 0.950 1_556 S
C1536 C1537 1.349 . S
C1536 C1538 1.327 . S
C1536 H1561 0.950 . S
C1537 C1536 1.349 . S
C1537 C1553 1.349 . S
C1538 C1536 1.327 . S
C1538 C1557 1.429 . S
C1538 H1562 0.950 . S
C1539 C1556 1.574 . S
C1539 C1558 1.368 . S
C1539 H1563 0.949 . S
H1540 C1544 0.949 . S
C1541 C1542 1.349 . S
C1541 C1543 1.327 . S
C1541 H1564 0.950 . S
C1542 C1541 1.349 . S
C1542 C1554 1.349 . S
C1543 C1541 1.327 . S
C1543 C1559 1.435 . S
C1543 H1565 0.950 1_554 S
C1544 H1540 0.949 . S
C1544 C1552 1.574 . S
C1544 C1560 1.368 . S
H1545 C1553 0.950 . S
H1546 C1551 0.950 . S
H1547 C1552 0.949 . S
H1548 C1554 0.950 . S
H1549 C1555 0.950 . S
H1550 C1556 0.949 . S
C1551 H1546 0.950 . S
C1551 C1553 1.327 . S
C1551 C1557 1.429 . S
C1552 C1544 1.574 . S
C1552 H1547 0.949 . S
C1552 C1558 1.368 . S
C1553 C1537 1.349 . S
C1553 H1545 0.950 . S
C1553 C1551 1.327 . S
C1554 C1542 1.349 . S
C1554 H1548 0.950 . S
C1554 C1555 1.327 . S
C1555 H1549 0.950 . S
C1555 C1554 1.327 . S
C1555 C1559 1.446 . S
C1556 C1539 1.574 . S
C1556 H1550 0.949 . S
C1556 C1560 1.368 . S
C1557 C1538 1.429 . S
C1557 C1551 1.429 . S
C1557 C1558 1.523 . S
C1558 C1539 1.368 . S
C1558 C1552 1.368 . S
C1558 C1557 1.523 . S
C1559 C1543 1.435 . S
C1559 C1555 1.446 . S
C1559 C1560 1.501 1_554 S
C1560 C1544 1.368 . S
C1560 C1556 1.368 . S
C1560 C1559 1.501 1_556 S
H1561 C1536 0.950 . S
H1562 C1538 0.950 . S
H1563 C1539 0.949 . S
H1564 C1541 0.950 . S
H1565 C1543 0.950 1_556 S
C1566 C1567 1.349 . S
C1566 C1568 1.327 . S
C1566 H1591 0.950 . S
C1567 C1566 1.349 . S
C1567 C1583 1.349 . S
C1568 C1566 1.327 . S
C1568 C1587 1.429 . S
C1568 H1592 0.950 . S
C1569 C1586 1.574 . S
C1569 C1588 1.368 . S
C1569 H1593 0.949 . S
H1570 C1574 0.949 . S
C1571 C1572 1.349 . S
C1571 C1573 1.327 . S
C1571 H1594 0.950 . S
C1572 C1571 1.349 . S
C1572 C1584 1.349 . S
C1573 C1571 1.327 . S
C1573 C1589 1.429 . S
C1573 H1595 0.950 . S
C1574 H1570 0.949 . S
C1574 C1582 1.574 . S
C1574 C1590 1.368 . S
H1575 C1583 0.950 . S
H1576 C1581 0.950 . S
H1577 C1582 0.949 . S
H1578 C1584 0.950 . S
H1579 C1585 0.950 . S
H1580 C1586 0.949 . S
C1581 H1576 0.950 . S
C1581 C1583 1.327 . S
C1581 C1587 1.429 . S
C1582 C1574 1.574 . S
C1582 H1577 0.949 . S
C1582 C1588 1.368 . S
C1583 C1567 1.349 . S
C1583 H1575 0.950 . S
C1583 C1581 1.327 . S
C1584 C1572 1.349 . S
C1584 H1578 0.950 . S
C1584 C1585 1.327 . S
C1585 H1579 0.950 . S
C1585 C1584 1.327 . S
C1585 C1589 1.429 . S
C1586 C1569 1.574 . S
C1586 H1580 0.949 . S
C1586 C1590 1.368 . S
C1587 C1568 1.429 . S
C1587 C1581 1.429 . S
C1587 C1588 1.523 . S
C1588 C1569 1.368 . S
C1588 C1582 1.368 . S
C1588 C1587 1.523 . S
C1589 C1573 1.429 . S
C1589 C1585 1.429 . S
C1589 C1590 1.523 . S
C1590 C1574 1.368 . S
C1590 C1586 1.368 . S
C1590 C1589 1.523 . S
H1591 C1566 0.950 . S
H1592 C1568 0.950 . S
H1593 C1569 0.949 . S
H1594 C1571 0.950 . S
H1595 C1573 0.950 . S
C1596 C1597 1.349 . S
C1596 C1598 1.327 . S
C1596 H1621 0.950 . S
C1597 C1596 1.349 . S
C1597 C1613 1.349 . S
C1598 C1596 1.327 . S
C1598 C1617 1.429 . S
C1598 H1622 0.950 . S
C1599 C1616 1.574 . S
C1599 C1618 1.368 . S
C1599 H1623 0.949 . S
H1600 C1604 0.949 . S
C1601 C1602 1.349 . S
C1601 C1603 1.327 . S
C1601 H1624 0.950 . S
C1602 C1601 1.349 . S
C1602 C1614 1.349 . S
C1603 C1601 1.327 . S
C1603 C1619 1.429 . S
C1603 H1625 0.950 . S
C1604 H1600 0.949 . S
C1604 C1612 1.574 . S
C1604 C1620 1.368 . S
H1605 C1613 0.950 . S
H1606 C1611 0.950 . S
H1607 C1612 0.949 . S
H1608 C1614 0.950 . S
H1609 C1615 0.950 . S
H1610 C1616 0.949 . S
C1611 H1606 0.950 . S
C1611 C1613 1.327 . S
C1611 C1617 1.429 . S
C1612 C1604 1.574 . S
C1612 H1607 0.949 . S
C1612 C1618 1.368 . S
C1613 C1597 1.349 . S
C1613 H1605 0.950 . S
C1613 C1611 1.327 . S
C1614 C1602 1.349 . S
C1614 H1608 0.950 . S
C1614 C1615 1.327 . S
C1615 H1609 0.950 . S
C1615 C1614 1.327 . S
C1615 C1619 1.429 . S
C1616 C1599 1.574 . S
C1616 H1610 0.949 . S
C1616 C1620 1.368 . S
C1617 C1598 1.429 . S
C1617 C1611 1.429 . S
C1617 C1618 1.523 . S
C1618 C1599 1.368 . S
C1618 C1612 1.368 . S
C1618 C1617 1.523 . S
C1619 C1603 1.429 . S
C1619 C1615 1.429 . S
C1619 C1620 1.523 . S
C1620 C1604 1.368 . S
C1620 C1616 1.368 . S
C1620 C1619 1.523 . S
H1621 C1596 0.950 . S
H1622 C1598 0.950 . S
H1623 C1599 0.949 . S
H1624 C1601 0.950 . S
H1625 C1603 0.950 . S
C1626 C1627 1.349 . S
C1626 C1628 1.327 . S
C1626 H1651 0.950 . S
C1627 C1626 1.349 . S
C1627 C1643 1.349 . S
C1628 C1626 1.327 . S
C1628 C1647 1.429 . S
C1628 H1652 0.950 . S
C1629 C1646 1.574 . S
C1629 C1648 1.368 . S
C1629 H1653 0.949 . S
H1630 C1634 0.949 . S
C1631 C1632 1.349 . S
C1631 C1633 1.327 . S
C1631 H1654 0.950 . S
C1632 C1631 1.349 . S
C1632 C1644 1.349 . S
C1633 C1631 1.327 . S
C1633 C1649 1.429 . S
C1633 H1655 0.950 . S
C1634 H1630 0.949 . S
C1634 C1642 1.574 . S
C1634 C1650 1.368 . S
H1635 C1643 0.950 . S
H1636 C1641 0.950 . S
H1637 C1642 0.949 . S
H1638 C1644 0.950 . S
H1639 C1645 0.950 . S
H1640 C1646 0.949 . S
C1641 H1636 0.950 . S
C1641 C1643 1.327 . S
C1641 C1647 1.429 . S
C1642 C1634 1.574 . S
C1642 H1637 0.949 . S
C1642 C1648 1.368 . S
C1643 C1627 1.349 . S
C1643 H1635 0.950 . S
C1643 C1641 1.327 . S
C1644 C1632 1.349 . S
C1644 H1638 0.950 . S
C1644 C1645 1.327 . S
C1645 H1639 0.950 . S
C1645 C1644 1.327 . S
C1645 C1649 1.429 . S
C1646 C1629 1.574 . S
C1646 H1640 0.949 . S
C1646 C1650 1.368 . S
C1647 C1628 1.429 . S
C1647 C1641 1.429 . S
C1647 C1648 1.523 . S
C1648 C1629 1.368 . S
C1648 C1642 1.368 . S
C1648 C1647 1.523 . S
C1649 C1633 1.429 . S
C1649 C1645 1.429 . S
C1649 C1650 1.523 . S
C1650 C1634 1.368 . S
C1650 C1646 1.368 . S
C1650 C1649 1.523 . S
H1651 C1626 0.950 . S
H1652 C1628 0.950 . S
H1653 C1629 0.949 . S
H1654 C1631 0.950 . S
H1655 C1633 0.950 . S
C1656 C1657 1.349 . S
C1656 C1658 1.327 . S
C1656 H1681 0.950 . S
C1657 C1656 1.349 . S
C1657 C1673 1.349 . S
C1658 C1656 1.327 . S
C1658 C1677 1.429 . S
C1658 H1682 0.950 . S
C1659 C1676 1.574 . S
C1659 C1678 1.368 . S
C1659 H1683 0.949 . S
H1660 C1664 0.949 . S
C1661 C1662 1.349 . S
C1661 C1663 1.327 . S
C1661 H1684 0.950 . S
C1662 C1661 1.349 . S
C1662 C1674 1.349 1_545 S
C1663 C1661 1.327 . S
C1663 C1679 1.429 1_545 S
C1663 H1685 0.950 . S
C1664 H1660 0.949 . S
C1664 C1672 1.574 . S
C1664 C1680 1.368 . S
H1665 C1673 0.950 . S
H1666 C1671 0.950 . S
H1667 C1672 0.949 . S
H1668 C1674 0.950 1_554 S
H1669 C1675 0.950 . S
H1670 C1676 0.949 . S
C1671 H1666 0.950 . S
C1671 C1673 1.327 . S
C1671 C1677 1.429 . S
C1672 C1664 1.574 . S
C1672 H1667 0.949 . S
C1672 C1678 1.368 . S
C1673 C1657 1.349 . S
C1673 H1665 0.950 . S
C1673 C1671 1.327 . S
C1674 C1662 1.349 1_565 S
C1674 H1668 0.950 1_556 S
C1674 C1675 1.327 . S
C1675 H1669 0.950 . S
C1675 C1674 1.327 . S
C1675 C1679 1.429 . S
C1676 C1659 1.574 . S
C1676 H1670 0.949 . S
C1676 C1680 1.368 . S
C1677 C1658 1.429 . S
C1677 C1671 1.429 . S
C1677 C1678 1.523 . S
C1678 C1659 1.368 . S
C1678 C1672 1.368 . S
C1678 C1677 1.523 . S
C1679 C1663 1.429 1_565 S
C1679 C1675 1.429 . S
C1679 C1680 1.523 . S
C1680 C1664 1.368 . S
C1680 C1676 1.368 . S
C1680 C1679 1.523 . S
H1681 C1656 0.950 . S
H1682 C1658 0.950 . S
H1683 C1659 0.949 . S
H1684 C1661 0.950 . S
H1685 C1663 0.950 . S
C1686 C1687 1.349 1_455 S
C1686 C1688 1.327 . S
C1686 H1711 0.950 . S
C1687 C1686 1.349 1_655 S
C1687 C1703 1.349 . S
C1688 C1686 1.327 . S
C1688 C1707 1.429 . S
C1688 H1712 0.950 . S
C1689 C1706 1.574 . S
C1689 C1708 1.368 . S
C1689 H1713 0.949 . S
H1690 C1694 0.949 . S
C1691 C1692 1.349 . S
C1691 C1693 1.327 . S
C1691 H1714 0.950 . S
C1692 C1691 1.349 . S
C1692 C1704 1.349 . S
C1693 C1691 1.327 . S
C1693 C1709 1.429 . S
C1693 H1715 0.950 . S
C1694 H1690 0.949 . S
C1694 C1702 1.574 . S
C1694 C1710 1.368 . S
H1695 C1703 0.950 . S
H1696 C1701 0.950 . S
H1697 C1702 0.949 . S
H1698 C1704 0.950 . S
H1699 C1705 0.950 . S
H1700 C1706 0.949 . S
C1701 H1696 0.950 . S
C1701 C1703 1.327 . S
C1701 C1707 1.429 1_655 S
C1702 C1694 1.574 . S
C1702 H1697 0.949 . S
C1702 C1708 1.368 . S
C1703 C1687 1.349 . S
C1703 H1695 0.950 . S
C1703 C1701 1.327 . S
C1704 C1692 1.349 . S
C1704 H1698 0.950 . S
C1704 C1705 1.327 . S
C1705 H1699 0.950 . S
C1705 C1704 1.327 . S
C1705 C1709 1.429 . S
C1706 C1689 1.574 . S
C1706 H1700 0.949 . S
C1706 C1710 1.368 . S
C1707 C1688 1.429 . S
C1707 C1701 1.429 1_455 S
C1707 C1708 1.523 . S
C1708 C1689 1.368 . S
C1708 C1702 1.368 . S
C1708 C1707 1.523 . S
C1709 C1693 1.429 . S
C1709 C1705 1.429 . S
C1709 C1710 1.523 . S
C1710 C1694 1.368 . S
C1710 C1706 1.368 . S
C1710 C1709 1.523 . S
H1711 C1686 0.950 . S
H1712 C1688 0.950 . S
H1713 C1689 0.949 . S
H1714 C1691 0.950 . S
H1715 C1693 0.950 . S
C1716 C1717 1.349 . S
C1716 C1718 1.327 . S
C1716 H1741 0.950 . S
C1717 C1716 1.349 . S
C1717 C1733 1.349 . S
C1718 C1716 1.327 . S
C1718 C1737 1.429 . S
C1718 H1742 0.950 . S
C1719 C1736 1.574 . S
C1719 C1738 1.368 . S
C1719 H1743 0.949 . S
H1720 C1724 0.949 . S
C1721 C1722 1.349 . S
C1721 C1723 1.327 . S
C1721 H1744 0.950 . S
C1722 C1721 1.349 . S
C1722 C1734 1.349 . S
C1723 C1721 1.327 . S
C1723 C1739 1.429 . S
C1723 H1745 0.950 . S
C1724 H1720 0.949 . S
C1724 C1732 1.574 . S
C1724 C1740 1.368 . S
H1725 C1733 0.950 . S
H1726 C1731 0.950 . S
H1727 C1732 0.949 . S
H1728 C1734 0.950 . S
H1729 C1735 0.950 . S
H1730 C1736 0.949 . S
C1731 H1726 0.950 . S
C1731 C1733 1.327 . S
C1731 C1737 1.429 . S
C1732 C1724 1.574 . S
C1732 H1727 0.949 . S
C1732 C1738 1.368 . S
C1733 C1717 1.349 . S
C1733 H1725 0.950 . S
C1733 C1731 1.327 . S
C1734 C1722 1.349 . S
C1734 H1728 0.950 . S
C1734 C1735 1.327 . S
C1735 H1729 0.950 . S
C1735 C1734 1.327 . S
C1735 C1739 1.429 . S
C1736 C1719 1.574 . S
C1736 H1730 0.949 . S
C1736 C1740 1.368 . S
C1737 C1718 1.429 . S
C1737 C1731 1.429 . S
C1737 C1738 1.523 . S
C1738 C1719 1.368 . S
C1738 C1732 1.368 . S
C1738 C1737 1.523 . S
C1739 C1723 1.429 . S
C1739 C1735 1.429 . S
C1739 C1740 1.523 . S
C1740 C1724 1.368 . S
C1740 C1736 1.368 . S
C1740 C1739 1.523 . S
H1741 C1716 0.950 . S
H1742 C1718 0.950 . S
H1743 C1719 0.949 . S
H1744 C1721 0.950 . S
H1745 C1723 0.950 . S
C1746 C1747 1.349 . S
C1746 C1748 1.327 1_655 S
C1746 H1771 0.950 . S
C1747 C1746 1.349 . S
C1747 C1763 1.349 . S
C1748 C1746 1.327 1_455 S
C1748 C1767 1.429 . S
C1748 H1772 0.950 . S
C1749 C1766 1.574 . S
C1749 C1768 1.368 . S
C1749 H1773 0.949 . S
H1750 C1754 0.949 . S
C1751 C1752 1.349 . S
C1751 C1753 1.327 . S
C1751 H1774 0.950 . S
C1752 C1751 1.349 . S
C1752 C1764 1.349 . S
C1753 C1751 1.327 . S
C1753 C1769 1.429 . S
C1753 H1775 0.950 . S
C1754 H1750 0.949 . S
C1754 C1762 1.574 . S
C1754 C1770 1.368 . S
H1755 C1763 0.950 . S
H1756 C1761 0.950 . S
H1757 C1762 0.949 . S
H1758 C1764 0.950 . S
H1759 C1765 0.950 . S
H1760 C1766 0.949 . S
C1761 H1756 0.950 . S
C1761 C1763 1.327 1_455 S
C1761 C1767 1.429 . S
C1762 C1754 1.574 . S
C1762 H1757 0.949 . S
C1762 C1768 1.368 . S
C1763 C1747 1.349 . S
C1763 H1755 0.950 . S
C1763 C1761 1.327 1_655 S
C1764 C1752 1.349 . S
C1764 H1758 0.950 . S
C1764 C1765 1.327 . S
C1765 H1759 0.950 . S
C1765 C1764 1.327 . S
C1765 C1769 1.429 . S
C1766 C1749 1.574 . S
C1766 H1760 0.949 . S
C1766 C1770 1.368 . S
C1767 C1748 1.429 . S
C1767 C1761 1.429 . S
C1767 C1768 1.523 . S
C1768 C1749 1.368 . S
C1768 C1762 1.368 . S
C1768 C1767 1.523 . S
C1769 C1753 1.429 . S
C1769 C1765 1.429 . S
C1769 C1770 1.523 . S
C1770 C1754 1.368 . S
C1770 C1766 1.368 . S
C1770 C1769 1.523 . S
H1771 C1746 0.950 . S
H1772 C1748 0.950 . S
H1773 C1749 0.949 . S
H1774 C1751 0.950 . S
H1775 C1753 0.950 . S
C1776 C1777 1.349 . S
C1776 C1778 1.327 . S
C1776 H1801 0.950 . S
C1777 C1776 1.349 . S
C1777 C1793 1.349 . S
C1778 C1776 1.327 . S
C1778 C1797 1.429 . S
C1778 H1802 0.950 . S
C1779 C1796 1.574 . S
C1779 C1798 1.368 . S
C1779 H1803 0.949 . S
H1780 C1784 0.949 . S
C1781 C1782 1.349 . S
C1781 C1783 1.327 . S
C1781 H1804 0.950 . S
C1782 C1781 1.349 . S
C1782 C1794 1.349 . S
C1783 C1781 1.327 . S
C1783 C1799 1.429 . S
C1783 H1805 0.950 . S
C1784 H1780 0.949 . S
C1784 C1792 1.574 . S
C1784 C1800 1.368 . S
H1785 C1793 0.950 . S
H1786 C1791 0.950 . S
H1787 C1792 0.949 . S
H1788 C1794 0.950 . S
H1789 C1795 0.950 . S
H1790 C1796 0.949 . S
C1791 H1786 0.950 . S
C1791 C1793 1.327 . S
C1791 C1797 1.429 . S
C1792 C1784 1.574 . S
C1792 H1787 0.949 . S
C1792 C1798 1.368 . S
C1793 C1777 1.349 . S
C1793 H1785 0.950 . S
C1793 C1791 1.327 . S
C1794 C1782 1.349 . S
C1794 H1788 0.950 . S
C1794 C1795 1.327 . S
C1795 H1789 0.950 . S
C1795 C1794 1.327 . S
C1795 C1799 1.429 . S
C1796 C1779 1.574 . S
C1796 H1790 0.949 . S
C1796 C1800 1.368 . S
C1797 C1778 1.429 . S
C1797 C1791 1.429 . S
C1797 C1798 1.523 . S
C1798 C1779 1.368 . S
C1798 C1792 1.368 . S
C1798 C1797 1.523 . S
C1799 C1783 1.429 . S
C1799 C1795 1.429 . S
C1799 C1800 1.523 . S
C1800 C1784 1.368 . S
C1800 C1796 1.368 . S
C1800 C1799 1.523 . S
H1801 C1776 0.950 . S
H1802 C1778 0.950 . S
H1803 C1779 0.949 . S
H1804 C1781 0.950 . S
H1805 C1783 0.950 . S
C1806 C1807 1.349 . S
C1806 C1808 1.327 . S
C1806 H1831 0.950 . S
C1807 C1806 1.349 . S
C1807 C1823 1.349 . S
C1808 C1806 1.327 . S
C1808 C1827 1.429 . S
C1808 H1832 0.950 . S
C1809 C1826 1.574 . S
C1809 C1828 1.368 . S
C1809 H1833 0.949 . S
H1810 C1814 0.949 . S
C1811 C1812 1.349 . S
C1811 C1813 1.327 1_545 S
C1811 H1834 0.950 . S
C1812 C1811 1.349 . S
C1812 C1824 1.349 . S
C1813 C1811 1.327 1_565 S
C1813 C1829 1.429 . S
C1813 H1835 0.950 . S
C1814 H1810 0.949 . S
C1814 C1822 1.574 . S
C1814 C1830 1.368 . S
H1815 C1823 0.950 . S
H1816 C1821 0.950 . S
H1817 C1822 0.949 . S
H1818 C1824 0.950 . S
H1819 C1825 0.950 . S
H1820 C1826 0.949 . S
C1821 H1816 0.950 . S
C1821 C1823 1.327 . S
C1821 C1827 1.429 . S
C1822 C1814 1.574 . S
C1822 H1817 0.949 . S
C1822 C1828 1.368 . S
C1823 C1807 1.349 . S
C1823 H1815 0.950 . S
C1823 C1821 1.327 . S
C1824 C1812 1.349 . S
C1824 H1818 0.950 . S
C1824 C1825 1.327 1_545 S
C1825 H1819 0.950 . S
C1825 C1824 1.327 1_565 S
C1825 C1829 1.429 . S
C1826 C1809 1.574 . S
C1826 H1820 0.949 . S
C1826 C1830 1.368 . S
C1827 C1808 1.429 . S
C1827 C1821 1.429 . S
C1827 C1828 1.523 . S
C1828 C1809 1.368 . S
C1828 C1822 1.368 . S
C1828 C1827 1.523 . S
C1829 C1813 1.429 . S
C1829 C1825 1.429 . S
C1829 C1830 1.523 . S
C1830 C1814 1.368 . S
C1830 C1826 1.368 . S
C1830 C1829 1.523 . S
H1831 C1806 0.950 . S
H1832 C1808 0.950 . S
H1833 C1809 0.949 . S
H1834 C1811 0.950 . S
H1835 C1813 0.950 . S
C1836 C1837 1.349 . S
C1836 C1838 1.327 . S
C1836 H1861 0.950 . S
C1837 C1836 1.349 . S
C1837 C1853 1.349 . S
C1838 C1836 1.327 . S
C1838 C1857 1.429 . S
C1838 H1862 0.950 . S
C1839 C1856 1.574 . S
C1839 C1858 1.368 . S
C1839 H1863 0.949 . S
H1840 C1844 0.949 . S
C1841 C1842 1.349 . S
C1841 C1843 1.327 1_655 S
C1841 H1864 0.950 . S
C1842 C1841 1.349 . S
C1842 C1854 1.349 1_655 S
C1843 C1841 1.327 1_455 S
C1843 C1859 1.429 . S
C1843 H1865 0.950 . S
C1844 H1840 0.949 . S
C1844 C1852 1.574 . S
C1844 C1860 1.368 . S
H1845 C1853 0.950 . S
H1846 C1851 0.950 . S
H1847 C1852 0.949 . S
H1848 C1854 0.950 . S
H1849 C1855 0.950 . S
H1850 C1856 0.949 . S
C1851 H1846 0.950 . S
C1851 C1853 1.327 . S
C1851 C1857 1.429 . S
C1852 C1844 1.574 . S
C1852 H1847 0.949 . S
C1852 C1858 1.368 . S
C1853 C1837 1.349 . S
C1853 H1845 0.950 . S
C1853 C1851 1.327 . S
C1854 C1842 1.349 1_455 S
C1854 H1848 0.950 . S
C1854 C1855 1.327 . S
C1855 H1849 0.950 . S
C1855 C1854 1.327 . S
C1855 C1859 1.429 . S
C1856 C1839 1.574 . S
C1856 H1850 0.949 . S
C1856 C1860 1.368 . S
C1857 C1838 1.429 . S
C1857 C1851 1.429 . S
C1857 C1858 1.523 . S
C1858 C1839 1.368 . S
C1858 C1852 1.368 . S
C1858 C1857 1.523 . S
C1859 C1843 1.429 . S
C1859 C1855 1.429 . S
C1859 C1860 1.523 . S
C1860 C1844 1.368 . S
C1860 C1856 1.368 . S
C1860 C1859 1.523 . S
H1861 C1836 0.950 . S
H1862 C1838 0.950 . S
H1863 C1839 0.949 . S
H1864 C1841 0.950 . S
H1865 C1843 0.950 . S
C1866 C1867 1.349 . S
C1866 C1868 1.327 . S
C1866 H1891 0.950 . S
C1867 C1866 1.349 . S
C1867 C1883 1.349 . S
C1868 C1866 1.327 . S
C1868 C1887 1.429 . S
C1868 H1892 0.950 . S
C1869 C1886 1.574 . S
C1869 C1888 1.368 . S
C1869 H1893 0.949 . S
H1870 C1874 0.949 . S
C1871 C1872 1.349 . S
C1871 C1873 1.327 . S
C1871 H1894 0.950 . S
C1872 C1871 1.349 . S
C1872 C1884 1.349 . S
C1873 C1871 1.327 . S
C1873 C1889 1.429 . S
C1873 H1895 0.950 . S
C1874 H1870 0.949 . S
C1874 C1882 1.574 . S
C1874 C1890 1.368 . S
H1875 C1883 0.950 . S
H1876 C1881 0.950 . S
H1877 C1882 0.949 . S
H1878 C1884 0.950 . S
H1879 C1885 0.950 . S
H1880 C1886 0.949 . S
C1881 H1876 0.950 . S
C1881 C1883 1.327 . S
C1881 C1887 1.429 . S
C1882 C1874 1.574 . S
C1882 H1877 0.949 . S
C1882 C1888 1.368 . S
C1883 C1867 1.349 . S
C1883 H1875 0.950 . S
C1883 C1881 1.327 . S
C1884 C1872 1.349 . S
C1884 H1878 0.950 . S
C1884 C1885 1.327 . S
C1885 H1879 0.950 . S
C1885 C1884 1.327 . S
C1885 C1889 1.429 . S
C1886 C1869 1.574 . S
C1886 H1880 0.949 . S
C1886 C1890 1.368 . S
C1887 C1868 1.429 . S
C1887 C1881 1.429 . S
C1887 C1888 1.523 . S
C1888 C1869 1.368 . S
C1888 C1882 1.368 . S
C1888 C1887 1.523 . S
C1889 C1873 1.429 . S
C1889 C1885 1.429 . S
C1889 C1890 1.523 . S
C1890 C1874 1.368 . S
C1890 C1886 1.368 . S
C1890 C1889 1.523 . S
H1891 C1866 0.950 . S
H1892 C1868 0.950 . S
H1893 C1869 0.949 . S
H1894 C1871 0.950 . S
H1895 C1873 0.950 . S
C1896 C1897 1.349 . S
C1896 C1898 1.327 . S
C1896 H1921 0.950 . S
C1897 C1896 1.349 . S
C1897 C1913 1.349 . S
C1898 C1896 1.327 . S
C1898 C1917 1.429 . S
C1898 H1922 0.950 . S
C1899 C1916 1.574 . S
C1899 C1918 1.368 . S
C1899 H1923 0.949 . S
H1900 C1904 0.949 . S
C1901 C1902 1.349 1_565 S
C1901 C1903 1.327 . S
C1901 H1924 0.950 . S
C1902 C1901 1.349 1_545 S
C1902 C1914 1.349 . S
C1903 C1901 1.327 . S
C1903 C1919 1.429 . S
C1903 H1925 0.950 . S
C1904 H1900 0.949 . S
C1904 C1912 1.574 . S
C1904 C1920 1.368 . S
H1905 C1913 0.950 . S
H1906 C1911 0.950 . S
H1907 C1912 0.949 . S
H1908 C1914 0.950 . S
H1909 C1915 0.950 . S
H1910 C1916 0.949 . S
C1911 H1906 0.950 . S
C1911 C1913 1.327 . S
C1911 C1917 1.429 . S
C1912 C1904 1.574 . S
C1912 H1907 0.949 . S
C1912 C1918 1.368 . S
C1913 C1897 1.349 . S
C1913 H1905 0.950 . S
C1913 C1911 1.327 . S
C1914 C1902 1.349 . S
C1914 H1908 0.950 . S
C1914 C1915 1.327 1_545 S
C1915 H1909 0.950 . S
C1915 C1914 1.327 1_565 S
C1915 C1919 1.429 . S
C1916 C1899 1.574 . S
C1916 H1910 0.949 . S
C1916 C1920 1.368 . S
C1917 C1898 1.429 . S
C1917 C1911 1.429 . S
C1917 C1918 1.523 . S
C1918 C1899 1.368 . S
C1918 C1912 1.368 . S
C1918 C1917 1.523 . S
C1919 C1903 1.429 . S
C1919 C1915 1.429 . S
C1919 C1920 1.523 . S
C1920 C1904 1.368 . S
C1920 C1916 1.368 . S
C1920 C1919 1.523 . S
H1921 C1896 0.950 . S
H1922 C1898 0.950 . S
H1923 C1899 0.949 . S
H1924 C1901 0.950 . S
H1925 C1903 0.950 . S
C1926 C1927 1.349 1_565 S
C1926 C1928 1.327 . S
C1926 H1951 0.950 . S
C1927 C1926 1.349 1_545 S
C1927 C1943 1.349 . S
C1928 C1926 1.327 . S
C1928 C1947 1.429 . S
C1928 H1952 0.950 . S
C1929 C1946 1.574 . S
C1929 C1948 1.368 . S
C1929 H1953 0.949 . S
H1930 C1934 0.949 . S
C1931 C1932 1.349 . S
C1931 C1933 1.327 . S
C1931 H1954 0.950 . S
C1932 C1931 1.349 . S
C1932 C1944 1.349 . S
C1933 C1931 1.327 . S
C1933 C1949 1.429 . S
C1933 H1955 0.950 . S
C1934 H1930 0.949 . S
C1934 C1942 1.574 . S
C1934 C1950 1.368 . S
H1935 C1943 0.950 . S
H1936 C1941 0.950 . S
H1937 C1942 0.949 . S
H1938 C1944 0.950 . S
H1939 C1945 0.950 . S
H1940 C1946 0.949 . S
C1941 H1936 0.950 . S
C1941 C1943 1.327 1_565 S
C1941 C1947 1.429 . S
C1942 C1934 1.574 . S
C1942 H1937 0.949 . S
C1942 C1948 1.368 . S
C1943 C1927 1.349 . S
C1943 H1935 0.950 . S
C1943 C1941 1.327 1_545 S
C1944 C1932 1.349 . S
C1944 H1938 0.950 . S
C1944 C1945 1.327 . S
C1945 H1939 0.950 . S
C1945 C1944 1.327 . S
C1945 C1949 1.429 . S
C1946 C1929 1.574 . S
C1946 H1940 0.949 . S
C1946 C1950 1.368 . S
C1947 C1928 1.429 . S
C1947 C1941 1.429 . S
C1947 C1948 1.523 . S
C1948 C1929 1.368 . S
C1948 C1942 1.368 . S
C1948 C1947 1.523 . S
C1949 C1933 1.429 . S
C1949 C1945 1.429 . S
C1949 C1950 1.523 . S
C1950 C1934 1.368 . S
C1950 C1946 1.368 . S
C1950 C1949 1.523 . S
H1951 C1926 0.950 . S
H1952 C1928 0.950 . S
H1953 C1929 0.949 . S
H1954 C1931 0.950 . S
H1955 C1933 0.950 . S
C1956 C1957 1.349 . S
C1956 C1958 1.327 1_655 S
C1956 H1981 0.950 . S
C1957 C1956 1.349 . S
C1957 C1973 1.349 . S
C1958 C1956 1.327 1_455 S
C1958 C1977 1.429 . S
C1958 H1982 0.950 . S
C1959 C1976 1.574 . S
C1959 C1978 1.368 . S
C1959 H1983 0.949 . S
H1960 C1964 0.949 . S
C1961 C1962 1.349 . S
C1961 C1963 1.327 . S
C1961 H1984 0.950 . S
C1962 C1961 1.349 . S
C1962 C1974 1.349 . S
C1963 C1961 1.327 . S
C1963 C1979 1.429 . S
C1963 H1985 0.950 . S
C1964 H1960 0.949 . S
C1964 C1972 1.574 . S
C1964 C1980 1.368 . S
H1965 C1973 0.950 . S
H1966 C1971 0.950 . S
H1967 C1972 0.949 . S
H1968 C1974 0.950 . S
H1969 C1975 0.950 . S
H1970 C1976 0.949 . S
C1971 H1966 0.950 . S
C1971 C1973 1.327 1_455 S
C1971 C1977 1.429 . S
C1972 C1964 1.574 . S
C1972 H1967 0.949 . S
C1972 C1978 1.368 . S
C1973 C1957 1.349 . S
C1973 H1965 0.950 . S
C1973 C1971 1.327 1_655 S
C1974 C1962 1.349 . S
C1974 H1968 0.950 . S
C1974 C1975 1.327 . S
C1975 H1969 0.950 . S
C1975 C1974 1.327 . S
C1975 C1979 1.429 . S
C1976 C1959 1.574 . S
C1976 H1970 0.949 . S
C1976 C1980 1.368 . S
C1977 C1958 1.429 . S
C1977 C1971 1.429 . S
C1977 C1978 1.523 . S
C1978 C1959 1.368 . S
C1978 C1972 1.368 . S
C1978 C1977 1.523 . S
C1979 C1963 1.429 . S
C1979 C1975 1.429 . S
C1979 C1980 1.523 . S
C1980 C1964 1.368 . S
C1980 C1976 1.368 . S
C1980 C1979 1.523 . S
H1981 C1956 0.950 . S
H1982 C1958 0.950 . S
H1983 C1959 0.949 . S
H1984 C1961 0.950 . S
H1985 C1963 0.950 . S
C1986 C1987 1.349 . S
C1986 C1988 1.327 . S
C1986 H2011 0.950 . S
C1987 C1986 1.349 . S
C1987 C2003 1.349 . S
C1988 C1986 1.327 . S
C1988 C2007 1.429 . S
C1988 H2012 0.950 . S
C1989 C2006 1.574 . S
C1989 C2008 1.368 . S
C1989 H2013 0.949 . S
H1990 C1994 0.949 . S
C1991 C1992 1.349 . S
C1991 C1993 1.327 . S
C1991 H2014 0.950 . S
C1992 C1991 1.349 . S
C1992 C2004 1.349 . S
C1993 C1991 1.327 . S
C1993 C2009 1.429 . S
C1993 H2015 0.950 . S
C1994 H1990 0.949 . S
C1994 C2002 1.574 . S
C1994 C2010 1.368 . S
H1995 C2003 0.950 . S
H1996 C2001 0.950 . S
H1997 C2002 0.949 . S
H1998 C2004 0.950 . S
H1999 C2005 0.950 . S
H2000 C2006 0.949 . S
C2001 H1996 0.950 . S
C2001 C2003 1.327 . S
C2001 C2007 1.429 . S
C2002 C1994 1.574 . S
C2002 H1997 0.949 . S
C2002 C2008 1.368 . S
C2003 C1987 1.349 . S
C2003 H1995 0.950 . S
C2003 C2001 1.327 . S
C2004 C1992 1.349 . S
C2004 H1998 0.950 . S
C2004 C2005 1.327 . S
C2005 H1999 0.950 . S
C2005 C2004 1.327 . S
C2005 C2009 1.429 . S
C2006 C1989 1.574 . S
C2006 H2000 0.949 . S
C2006 C2010 1.368 . S
C2007 C1988 1.429 . S
C2007 C2001 1.429 . S
C2007 C2008 1.523 . S
C2008 C1989 1.368 . S
C2008 C2002 1.368 . S
C2008 C2007 1.523 . S
C2009 C1993 1.429 . S
C2009 C2005 1.429 . S
C2009 C2010 1.523 . S
C2010 C1994 1.368 . S
C2010 C2006 1.368 . S
C2010 C2009 1.523 . S
H2011 C1986 0.950 . S
H2012 C1988 0.950 . S
H2013 C1989 0.949 . S
H2014 C1991 0.950 . S
H2015 C1993 0.950 . S
C2016 C2017 1.349 . S
C2016 C2018 1.327 . S
C2016 H2041 0.950 . S
C2017 C2016 1.349 . S
C2017 C2033 1.349 . S
C2018 C2016 1.327 . S
C2018 C2037 1.429 . S
C2018 H2042 0.950 . S
C2019 C2036 1.574 . S
C2019 C2038 1.368 . S
C2019 H2043 0.949 . S
H2020 C2024 0.949 . S
C2021 C2022 1.349 . S
C2021 C2023 1.327 . S
C2021 H2044 0.950 . S
C2022 C2021 1.349 . S
C2022 C2034 1.349 . S
C2023 C2021 1.327 . S
C2023 C2039 1.429 . S
C2023 H2045 0.950 . S
C2024 H2020 0.949 . S
C2024 C2032 1.574 . S
C2024 C2040 1.368 . S
H2025 C2033 0.950 . S
H2026 C2031 0.950 . S
H2027 C2032 0.949 . S
H2028 C2034 0.950 . S
H2029 C2035 0.950 . S
H2030 C2036 0.949 . S
C2031 H2026 0.950 . S
C2031 C2033 1.327 . S
C2031 C2037 1.429 . S
C2032 C2024 1.574 . S
C2032 H2027 0.949 . S
C2032 C2038 1.368 . S
C2033 C2017 1.349 . S
C2033 H2025 0.950 . S
C2033 C2031 1.327 . S
C2034 C2022 1.349 . S
C2034 H2028 0.950 . S
C2034 C2035 1.327 . S
C2035 H2029 0.950 . S
C2035 C2034 1.327 . S
C2035 C2039 1.429 . S
C2036 C2019 1.574 . S
C2036 H2030 0.949 . S
C2036 C2040 1.368 . S
C2037 C2018 1.429 . S
C2037 C2031 1.429 . S
C2037 C2038 1.523 . S
C2038 C2019 1.368 . S
C2038 C2032 1.368 . S
C2038 C2037 1.523 . S
C2039 C2023 1.429 . S
C2039 C2035 1.429 . S
C2039 C2040 1.523 . S
C2040 C2024 1.368 . S
C2040 C2036 1.368 . S
C2040 C2039 1.523 . S
H2041 C2016 0.950 . S
H2042 C2018 0.950 . S
H2043 C2019 0.949 . S
H2044 C2021 0.950 . S
H2045 C2023 0.950 . S
C2046 C2047 1.349 . S
C2046 C2048 1.327 . S
C2046 H2071 0.950 . S
C2047 C2046 1.349 . S
C2047 C2063 1.349 . S
C2048 C2046 1.327 . S
C2048 C2067 1.429 . S
C2048 H2072 0.950 . S
C2049 C2066 1.574 . S
C2049 C2068 1.368 . S
C2049 H2073 0.949 . S
H2050 C2054 0.949 . S
C2051 C2052 1.349 . S
C2051 C2053 1.327 . S
C2051 H2074 0.950 . S
C2052 C2051 1.349 . S
C2052 C2064 1.349 . S
C2053 C2051 1.327 . S
C2053 C2069 1.429 . S
C2053 H2075 0.950 . S
C2054 H2050 0.949 . S
C2054 C2062 1.574 . S
C2054 C2070 1.368 . S
H2055 C2063 0.950 . S
H2056 C2061 0.950 . S
H2057 C2062 0.949 . S
H2058 C2064 0.950 . S
H2059 C2065 0.950 . S
H2060 C2066 0.949 . S
C2061 H2056 0.950 . S
C2061 C2063 1.327 . S
C2061 C2067 1.429 . S
C2062 C2054 1.574 . S
C2062 H2057 0.949 . S
C2062 C2068 1.368 . S
C2063 C2047 1.349 . S
C2063 H2055 0.950 . S
C2063 C2061 1.327 . S
C2064 C2052 1.349 . S
C2064 H2058 0.950 . S
C2064 C2065 1.327 . S
C2065 H2059 0.950 . S
C2065 C2064 1.327 . S
C2065 C2069 1.429 . S
C2066 C2049 1.574 . S
C2066 H2060 0.949 . S
C2066 C2070 1.368 . S
C2067 C2048 1.429 . S
C2067 C2061 1.429 . S
C2067 C2068 1.523 . S
C2068 C2049 1.368 . S
C2068 C2062 1.368 . S
C2068 C2067 1.523 . S
C2069 C2053 1.429 . S
C2069 C2065 1.429 . S
C2069 C2070 1.523 . S
C2070 C2054 1.368 . S
C2070 C2066 1.368 . S
C2070 C2069 1.523 . S
H2071 C2046 0.950 . S
H2072 C2048 0.950 . S
H2073 C2049 0.949 . S
H2074 C2051 0.950 . S
H2075 C2053 0.950 . S
C2076 C2077 1.349 . S
C2076 C2078 1.327 . S
C2076 H2101 0.950 . S
C2077 C2076 1.349 . S
C2077 C2093 1.349 . S
C2078 C2076 1.327 . S
C2078 C2097 1.429 . S
C2078 H2102 0.950 . S
C2079 C2096 1.574 . S
C2079 C2098 1.368 . S
C2079 H2103 0.949 . S
H2080 C2084 0.949 . S
C2081 C2082 1.349 . S
C2081 C2083 1.327 . S
C2081 H2104 0.950 . S
C2082 C2081 1.349 . S
C2082 C2094 1.349 . S
C2083 C2081 1.327 . S
C2083 C2099 1.429 . S
C2083 H2105 0.950 . S
C2084 H2080 0.949 . S
C2084 C2092 1.574 . S
C2084 C2100 1.368 . S
H2085 C2093 0.950 . S
H2086 C2091 0.950 . S
H2087 C2092 0.949 . S
H2088 C2094 0.950 . S
H2089 C2095 0.950 . S
H2090 C2096 0.949 . S
C2091 H2086 0.950 . S
C2091 C2093 1.327 . S
C2091 C2097 1.429 . S
C2092 C2084 1.574 . S
C2092 H2087 0.949 . S
C2092 C2098 1.368 . S
C2093 C2077 1.349 . S
C2093 H2085 0.950 . S
C2093 C2091 1.327 . S
C2094 C2082 1.349 . S
C2094 H2088 0.950 . S
C2094 C2095 1.327 . S
C2095 H2089 0.950 . S
C2095 C2094 1.327 . S
C2095 C2099 1.429 . S
C2096 C2079 1.574 . S
C2096 H2090 0.949 . S
C2096 C2100 1.368 . S
C2097 C2078 1.429 . S
C2097 C2091 1.429 . S
C2097 C2098 1.523 . S
C2098 C2079 1.368 . S
C2098 C2092 1.368 . S
C2098 C2097 1.523 . S
C2099 C2083 1.429 . S
C2099 C2095 1.429 . S
C2099 C2100 1.523 . S
C2100 C2084 1.368 . S
C2100 C2096 1.368 . S
C2100 C2099 1.523 . S
H2101 C2076 0.950 . S
H2102 C2078 0.950 . S
H2103 C2079 0.949 . S
H2104 C2081 0.950 . S
H2105 C2083 0.950 . S
C2106 C2107 1.349 . S
C2106 C2108 1.327 . S
C2106 H2131 0.950 . S
C2107 C2106 1.349 . S
C2107 C2123 1.349 . S
C2108 C2106 1.327 . S
C2108 C2127 1.429 . S
C2108 H2132 0.950 . S
C2109 C2126 1.574 . S
C2109 C2128 1.368 . S
C2109 H2133 0.949 . S
H2110 C2114 0.949 . S
C2111 C2112 1.349 . S
C2111 C2113 1.327 . S
C2111 H2134 0.950 . S
C2112 C2111 1.349 . S
C2112 C2124 1.349 . S
C2113 C2111 1.327 . S
C2113 C2129 1.429 . S
C2113 H2135 0.950 . S
C2114 H2110 0.949 . S
C2114 C2122 1.574 . S
C2114 C2130 1.368 . S
H2115 C2123 0.950 . S
H2116 C2121 0.950 . S
H2117 C2122 0.949 . S
H2118 C2124 0.950 1_556 S
H2119 C2125 0.950 . S
H2120 C2126 0.949 . S
C2121 H2116 0.950 . S
C2121 C2123 1.327 . S
C2121 C2127 1.429 . S
C2122 C2114 1.574 . S
C2122 H2117 0.949 . S
C2122 C2128 1.368 . S
C2123 C2107 1.349 . S
C2123 H2115 0.950 . S
C2123 C2121 1.327 . S
C2124 C2112 1.349 . S
C2124 H2118 0.950 1_554 S
C2124 C2125 1.327 . S
C2125 H2119 0.950 . S
C2125 C2124 1.327 . S
C2125 C2129 1.429 . S
C2126 C2109 1.574 . S
C2126 H2120 0.949 . S
C2126 C2130 1.368 . S
C2127 C2108 1.429 . S
C2127 C2121 1.429 . S
C2127 C2128 1.523 . S
C2128 C2109 1.368 . S
C2128 C2122 1.368 . S
C2128 C2127 1.523 . S
C2129 C2113 1.429 . S
C2129 C2125 1.429 . S
C2129 C2130 1.523 . S
C2130 C2114 1.368 . S
C2130 C2126 1.368 . S
C2130 C2129 1.523 . S
H2131 C2106 0.950 . S
H2132 C2108 0.950 . S
H2133 C2109 0.949 . S
H2134 C2111 0.950 . S
H2135 C2113 0.950 . S
C2136 C2137 1.349 . S
C2136 C2138 1.327 . S
C2136 H2161 0.950 . S
C2137 C2136 1.349 . S
C2137 C2153 1.349 . S
C2138 C2136 1.327 . S
C2138 C2157 1.429 . S
C2138 H2162 0.950 . S
C2139 C2156 1.574 . S
C2139 C2158 1.368 . S
C2139 H2163 0.949 . S
H2140 C2144 0.949 . S
C2141 C2142 1.349 . S
C2141 C2143 1.327 . S
C2141 H2164 0.950 1_554 S
C2142 C2141 1.349 . S
C2142 C2154 1.349 . S
C2143 C2141 1.327 . S
C2143 C2159 1.429 . S
C2143 H2165 0.950 . S
C2144 H2140 0.949 . S
C2144 C2152 1.574 . S
C2144 C2160 1.368 . S
H2145 C2153 0.950 . S
H2146 C2151 0.950 . S
H2147 C2152 0.949 . S
H2148 C2154 0.950 . S
H2149 C2155 0.950 . S
H2150 C2156 0.949 . S
C2151 H2146 0.950 . S
C2151 C2153 1.327 . S
C2151 C2157 1.429 . S
C2152 C2144 1.574 . S
C2152 H2147 0.949 . S
C2152 C2158 1.368 . S
C2153 C2137 1.349 . S
C2153 H2145 0.950 . S
C2153 C2151 1.327 . S
C2154 C2142 1.349 . S
C2154 H2148 0.950 . S
C2154 C2155 1.327 . S
C2155 H2149 0.950 . S
C2155 C2154 1.327 . S
C2155 C2159 1.429 . S
C2156 C2139 1.574 . S
C2156 H2150 0.949 . S
C2156 C2160 1.368 . S
C2157 C2138 1.429 . S
C2157 C2151 1.429 . S
C2157 C2158 1.523 . S
C2158 C2139 1.368 . S
C2158 C2152 1.368 . S
C2158 C2157 1.523 . S
C2159 C2143 1.429 . S
C2159 C2155 1.429 . S
C2159 C2160 1.523 . S
C2160 C2144 1.368 . S
C2160 C2156 1.368 . S
C2160 C2159 1.523 . S
H2161 C2136 0.950 . S
H2162 C2138 0.950 . S
H2163 C2139 0.949 . S
H2164 C2141 0.950 1_556 S
H2165 C2143 0.950 . S
C2166 C2167 1.349 . S
C2166 C2168 1.327 . S
C2166 H2191 0.950 . S
C2167 C2166 1.349 . S
C2167 C2183 1.349 . S
C2168 C2166 1.327 . S
C2168 C2187 1.429 . S
C2168 H2192 0.950 . S
C2169 C2186 1.574 . S
C2169 C2188 1.368 . S
C2169 H2193 0.949 . S
H2170 C2174 0.949 . S
C2171 C2172 1.349 . S
C2171 C2173 1.327 . S
C2171 H2194 0.950 . S
C2172 C2171 1.349 . S
C2172 C2184 1.349 . S
C2173 C2171 1.327 . S
C2173 C2189 1.429 . S
C2173 H2195 0.950 . S
C2174 H2170 0.949 . S
C2174 C2182 1.574 . S
C2174 C2190 1.368 . S
H2175 C2183 0.950 1_556 S
H2176 C2181 0.950 . S
H2177 C2182 0.949 . S
H2178 C2184 0.950 . S
H2179 C2185 0.950 . S
H2180 C2186 0.949 . S
C2181 H2176 0.950 . S
C2181 C2183 1.327 . S
C2181 C2187 1.429 . S
C2182 C2174 1.574 . S
C2182 H2177 0.949 . S
C2182 C2188 1.368 . S
C2183 C2167 1.349 . S
C2183 H2175 0.950 1_554 S
C2183 C2181 1.327 . S
C2184 C2172 1.349 . S
C2184 H2178 0.950 . S
C2184 C2185 1.327 . S
C2185 H2179 0.950 . S
C2185 C2184 1.327 . S
C2185 C2189 1.429 . S
C2186 C2169 1.574 . S
C2186 H2180 0.949 . S
C2186 C2190 1.368 . S
C2187 C2168 1.429 . S
C2187 C2181 1.429 . S
C2187 C2188 1.523 . S
C2188 C2169 1.368 . S
C2188 C2182 1.368 . S
C2188 C2187 1.523 . S
C2189 C2173 1.429 . S
C2189 C2185 1.429 . S
C2189 C2190 1.523 . S
C2190 C2174 1.368 . S
C2190 C2186 1.368 . S
C2190 C2189 1.523 . S
H2191 C2166 0.950 . S
H2192 C2168 0.950 . S
H2193 C2169 0.949 . S
H2194 C2171 0.950 . S
H2195 C2173 0.950 . S
C577 C4 0.503 1_556 S
C582 N77 0.527 . S
C607 N13 0.527 . S
C612 C36 0.503 1_556 S
C637 C68 0.503 1_556 S
C642 N45 0.527 . S
C667 N141 0.527 . S
C672 C100 0.503 . S
C697 N178 0.527 . S
C702 C132 0.503 . S
C727 C189 0.503 . S
C732 N109 0.527 . S
C757 N269 0.527 . S
C762 C196 0.503 . S
C787 C228 0.503 . S
C792 N205 0.527 . S
C817 N237 0.527 . S
C822 C260 0.503 . S
C847 C317 0.503 . S
C852 N333 0.527 . S
C877 N370 0.527 . S
C882 C324 0.503 . S
C907 C381 0.503 . S
C912 N306 0.527 . S
C937 N461 0.527 . S
C942 C388 0.503 . S
C967 C420 0.503 . S
C972 N397 0.527 . S
C997 C452 0.503 . S
C1002 N429 0.527 . S
C1027 C509 0.503 . S
C1032 N525 0.527 . S
C1057 N562 0.527 . S
C1062 C516 0.503 . S
C1087 N498 0.527 . S
C1092 C573 0.503 . S
C1117 C166 1.348 . S
C1122 C29 1.327 . S
C1147 C98 1.348 . S
C1152 C61 1.327 . S
C1177 C130 1.348 . S
C1182 C93 1.327 . S
C1207 C34 1.348 . S
C1212 C125 1.327 . S
C1237 C157 1.327 . S
C1242 C66 1.348 . S
C1267 C2 1.348 . S
C1272 C164 1.327 . S
C1297 C221 1.327 . S
C1302 C358 1.348 . S
C1327 C253 1.327 . S
C1332 C294 1.348 . S
C1357 C322 1.348 . S
C1362 C285 1.327 . S
C1387 C292 1.327 . S
C1392 C226 1.348 . S
C1417 C349 1.327 . S
C1422 C258 1.348 . S
C1447 C356 1.327 . S
C1452 C194 1.348 . S
C1477 C413 1.327 . S
C1482 C550 1.348 . S
C1507 C445 1.327 . S
C1512 C486 1.348 . S
C1537 C477 1.327 . S
C1542 C514 1.348 . S
C1567 C484 1.327 . S
C1572 C418 1.348 . S
C1597 C541 1.327 . S
C1602 C450 1.348 . S
C1627 C548 1.327 . S
C1632 C386 1.349 . S
C1657 C326 1.935 . S
C1662 N18 1.986 . S
C1687 N50 1.986 . S
C1692 C354 1.934 . S
C1717 C290 1.934 . S
C1722 N82 1.986 . S
C1747 N114 1.986 . S
C1752 C262 1.935 . S
C1777 N146 1.986 . S
C1782 C198 1.934 . S
C1807 C230 1.934 . S
C1812 N173 1.986 . S
C1837 N210 1.986 . S
C1842 C518 1.935 . S
C1867 N242 1.986 . S
C1872 C546 1.934 . S
C1897 N274 1.986 . S
C1902 C482 1.934 . S
C1927 C454 1.935 . S
C1932 N301 1.986 . S
C1957 C390 1.934 . S
C1962 N338 1.986 . S
C1987 C422 1.935 . S
C1992 N365 1.986 . S
C2017 C134 1.935 . S
C2022 N402 1.986 . S
C2047 N434 1.986 . S
C2052 C162 1.935 . S
C2077 C102 1.934 . S
C2082 N466 1.986 . S
C2107 N493 1.986 . S
C2112 C70 1.935 . S
C2137 N530 1.986 . S
C2142 C6 1.934 . S
C2167 C38 1.935 . S
C2172 N557 1.986 . S
