# Generated by pormake.
# Topology sxc, (6)-cn, num edge types: 1
# Building blocks:
#     Node 0, Type 0, BuildingBlock: BETGAK_clean_sbu_0, # of connection points: 6
#     Node 1, Type 0, BuildingBlock: BETGAK_clean_sbu_0, # of connection points: 6
#     Node 2, Type 0, BuildingBlock: BETGAK_clean_sbu_0, # of connection points: 6
#     Edge 3, Type (0, 0), BuildingBlock: FUNLAD_clean_linker_0, # of connection points: 2
#     Edge 4, Type (0, 0), BuildingBlock: FUNLAD_clean_linker_0, # of connection points: 2
#     Edge 5, Type (0, 0), BuildingBlock: FUNLAD_clean_linker_0, # of connection points: 2
#     Edge 6, Type (0, 0), BuildingBlock: FUNLAD_clean_linker_0, # of connection points: 2
#     Edge 7, Type (0, 0), BuildingBlock: FUNLAD_clean_linker_0, # of connection points: 2
#     Edge 8, Type (0, 0), BuildingBlock: FUNLAD_clean_linker_0, # of connection points: 2
#     Edge 9, Type (0, 0), BuildingBlock: FUNLAD_clean_linker_0, # of connection points: 2
#     Edge 10, Type (0, 0), BuildingBlock: FUNLAD_clean_linker_0, # of connection points: 2
#     Edge 11, Type (0, 0), BuildingBlock: FUNLAD_clean_linker_0, # of connection points: 2
# Relax obj value: 0.261
# Max RMSD: 0.147
# Mean RMSD: 0.082
data_MOF--net-sxc--node1-BETGAK_clean_sbu_0--edge1-FUNLAD_clean_linker_0
_symmetry_space_group_name_H-M    P1
_symmetry_Int_Tables_number       1
_symmetry_cell_setting            triclinic
loop_
_symmetry_equiv_pos_as_xyz
'x, y, z'
_cell_length_a     19.718362
_cell_length_b     18.271657
_cell_length_c     51.825535
_cell_angle_alpha  89.655666
_cell_angle_beta   93.984272
_cell_angle_gamma 95.956176
loop_
_atom_site_label
_atom_site_type_symbol
_atom_site_fract_x
_atom_site_fract_y
_atom_site_fract_z
_atom_type_partial_charge
La0 La 0.21379 0.07572 0.99849 0.0
La1 La 1.06869 0.05863 0.99989 0.0
C2 C 0.33668 0.10908 0.98879 0.0
C3 C 0.39258 0.15971 1.00044 0.0
C4 C 0.38752 0.19049 0.02487 0.0
C5 C 0.4418 0.23707 0.03625 0.0
C6 C 0.50178 0.25397 0.02327 0.0
C7 C 0.5063 0.22298 0.99873 0.0
C8 C 0.45209 0.17607 0.98743 0.0
C9 C 0.17423 0.05615 0.04651 0.0
C10 C 0.13379 0.22108 1.00115 0.0
C11 C 0.94848 1.01419 0.00987 0.0
C12 C 0.91969 0.94116 0.01834 0.0
C13 C 0.86668 0.90252 0.00297 0.0
C14 C 0.8463 0.82883 0.00813 0.0
C15 C 0.87822 0.79276 0.02892 0.0
C16 C 0.92912 0.83225 0.04504 0.0
C17 C 0.95011 0.90579 0.0397 0.0
C18 C 1.11003 0.08335 0.95253 0.0
C19 C 0.14671 0.91603 0.99687 0.0
O20 O 0.316 1.05418 0.0035 0.0
O21 O 0.28554 0.13935 0.97723 0.0
O22 O 0.22793 1.03278 0.03794 0.0
O23 O 0.14749 0.09399 0.02888 0.0
O24 O 0.1915 0.1928 0.99689 0.0
O25 O 1.07783 0.17741 0.00521 0.0
O26 O 0.96959 1.01608 0.98651 0.0
O27 O 0.99214 1.05145 0.02626 0.0
O28 O 1.05922 0.11116 0.96194 0.0
O29 O 0.13513 1.04143 0.96935 0.0
O30 O 1.09609 0.94525 0.00704 0.0
O31 O 0.19532 0.96018 0.98693 0.0
H32 H 0.34173 0.17808 0.03518 0.0
H33 H 0.43692 0.25949 0.05525 0.0
H34 H 0.55124 0.236 0.98801 0.0
H35 H 0.45657 0.15268 0.96854 0.0
H36 H 0.84282 0.92858 0.98635 0.0
H37 H 0.80613 0.79969 0.99567 0.0
H38 H 0.95453 0.80547 0.06113 0.0
H39 H 0.99179 0.93391 0.05173 0.0
La40 La 1.06767 1.0492 0.33348 0.0
La41 La 0.21113 0.07193 0.33466 0.0
C42 C 0.94589 0.05673 0.34394 0.0
C43 C 0.91809 0.1065 0.36169 0.0
C44 C 0.85196 0.12689 0.35672 0.0
C45 C 0.82656 0.17627 0.37317 0.0
C46 C 0.86689 0.20546 0.39491 0.0
C47 C 0.93321 0.18505 0.39978 0.0
C48 C 0.95886 0.13656 0.38315 0.0
C49 C 1.11148 1.0381 0.2862 0.0
C50 C 0.13931 0.21319 0.33326 0.0
C51 C 0.33912 0.07773 0.33513 0.0
C52 C 0.38924 0.1088 0.35566 0.0
C53 C 0.37803 0.09462 0.38183 0.0
C54 C 0.42084 0.1303 0.40143 0.0
C55 C 0.47557 0.18131 0.39532 0.0
C56 C 0.48744 0.19472 0.36915 0.0
C57 C 0.44458 0.15872 0.34948 0.0
C58 C 0.16489 0.08511 0.38174 0.0
C59 C 0.13981 0.90778 0.33019 0.0
O60 O 0.97244 0.08816 0.32377 0.0
O61 O 0.98499 1.01025 0.35488 0.0
O62 O 1.05837 1.0004 0.29468 0.0
O63 O 0.13608 0.08378 0.30349 0.0
O64 O 1.08918 0.16824 0.34204 0.0
O65 O 0.1925 0.18502 0.32478 0.0
O66 O 0.30381 0.1251 0.32273 0.0
O67 O 0.30024 1.01907 0.34142 0.0
O68 O 0.21492 0.12507 0.37248 0.0
O69 O 0.14305 1.03748 0.36479 0.0
O70 O 0.19152 0.95447 0.32338 0.0
O71 O 1.08464 0.93349 0.33805 0.0
H72 H 0.82012 0.10482 0.34012 0.0
H73 H 0.77497 0.19074 0.36916 0.0
H74 H 0.96542 0.20725 0.41628 0.0
H75 H 1.01068 0.12278 0.387 0.0
H76 H 0.33506 0.05728 0.38727 0.0
H77 H 0.40994 0.11939 0.42137 0.0
H78 H 0.52983 0.23312 0.36389 0.0
H79 H 0.45375 0.17102 0.32947 0.0
La80 La 1.11309 0.99928 0.67164 0.0
La81 La 1.12121 0.14967 0.66022 0.0
C82 C 1.08614 0.87497 0.69186 0.0
C83 C 1.02141 0.83189 0.69692 0.0
C84 C 1.00996 0.75859 0.68863 0.0
C85 C 0.94501 0.72049 0.68906 0.0
C86 C 0.89051 0.75518 0.69788 0.0
C87 C 0.9032 0.8272 0.70766 0.0
C88 C 0.96807 0.86538 0.70712 0.0
C89 C 1.1187 1.02678 0.62157 0.0
C90 C 0.96517 0.07662 0.66454 0.0
C91 C 0.14817 0.27378 0.63987 0.0
C92 C 0.21292 0.31772 0.63542 0.0
C93 C 0.22327 0.39078 0.64404 0.0
C94 C 0.28808 0.42952 0.64432 0.0
C95 C 0.34356 0.39574 0.63589 0.0
C96 C 0.33203 0.32407 0.62572 0.0
C97 C 0.2673 0.28523 0.62557 0.0
C98 C 1.11289 0.12295 0.71011 0.0
C99 C 0.26912 0.07228 0.66735 0.0
O100 O 1.09668 0.88453 0.66742 0.0
O101 O 1.10173 0.93565 0.7052 0.0
O102 O 0.15146 0.97819 0.63401 0.0
O103 O 1.0833 0.05703 0.63705 0.0
O104 O 0.99818 1.01813 0.67225 0.0
O105 O 1.00499 0.13539 0.65671 0.0
O106 O 0.13586 0.26453 0.66418 0.0
O107 O 0.13432 0.21271 0.62661 0.0
O108 O 1.08155 0.1718 0.69723 0.0
O109 O 0.14953 0.09205 0.69518 0.0
O110 O 0.2362 0.13103 0.65991 0.0
O111 O 0.22926 1.01317 0.67485 0.0
H112 H 1.05044 0.73204 0.68059 0.0
H113 H 0.93675 0.66532 0.68113 0.0
H114 H 0.86245 0.8549 0.71495 0.0
H115 H 0.97558 0.92199 0.71369 0.0
H116 H 0.18199 0.41658 0.65181 0.0
H117 H 0.2954 0.48439 0.65251 0.0
H118 H 0.37354 0.2971 0.61868 0.0
H119 H 0.26069 0.22885 0.61876 0.0
C120 C 0.18907 0.35289 0.99716 0.0
C121 C 0.13137 0.30323 1.00156 0.0
C122 C 0.18568 0.42977 0.9974 0.0
C123 C 1.12417 0.45949 1.00201 0.0
C124 C 1.06691 0.4095 0.00653 0.0
C125 C 1.0703 0.33304 0.00627 0.0
C126 C 1.11662 0.54118 1.00283 0.0
C127 C 0.16358 0.596 0.99567 0.0
C128 C 0.15587 0.6777 0.9962 0.0
C129 C 0.20723 0.72685 0.98608 0.0
C130 C 0.20393 0.80334 0.98619 0.0
C131 C 0.14904 0.83397 0.99652 0.0
H132 H 1.05972 0.67388 0.01477 0.0
C133 C 1.09731 0.78522 0.00665 0.0
C134 C 1.10055 0.70837 0.00653 0.0
H135 H 1.05414 0.80644 0.01481 0.0
H136 H 0.23718 0.33241 0.99354 0.0
H137 H 0.23169 0.46515 0.99418 0.0
H138 H 1.01873 0.42964 0.01026 0.0
H139 H 1.02461 0.29727 0.00978 0.0
H140 H 1.06871 0.55596 0.00924 0.0
H141 H 0.21054 0.58094 0.98848 0.0
H142 H 0.25066 0.70599 0.97798 0.0
H143 H 0.24487 0.83853 0.97821 0.0
C144 C 0.54054 0.29601 0.41421 0.0
C145 C 0.52007 0.22038 0.41622 0.0
C146 C 0.5861 0.33181 0.43303 0.0
C147 C 0.61292 0.2924 0.45415 0.0
C148 C 0.58915 0.21775 0.4569 0.0
C149 C 0.54332 0.18207 0.43813 0.0
C150 C 0.67191 0.32457 0.47144 0.0
C151 C 0.72002 0.37156 0.46137 0.0
C152 C 0.76976 0.33897 0.44591 0.0
C153 C 0.77153 0.35674 0.41954 0.0
C154 C 0.8052 0.31487 0.40308 0.0
C155 C 0.83876 0.25538 0.41279 0.0
H156 H 0.80655 0.26775 0.47621 0.0
C157 C 0.84149 0.24109 0.43949 0.0
C158 C 0.80691 0.28232 0.45593 0.0
H159 H 0.86719 0.19552 0.44742 0.0
H160 H 0.522 0.32737 0.39787 0.0
H161 H 0.60191 0.38971 0.43044 0.0
H162 H 0.60874 0.18587 0.47292 0.0
H163 H 0.52836 0.12373 0.44025 0.0
H164 H 0.69045 0.28605 0.48567 0.0
H165 H 0.70299 0.42197 0.45321 0.0
H166 H 0.74301 0.39991 0.41133 0.0
H167 H 0.80323 0.32752 0.3826 0.0
C168 C 0.80615 0.64293 0.69865 0.0
C169 C 0.81983 0.71886 0.69444 0.0
C170 C 0.74121 0.60726 0.69225 0.0
C171 C 0.68882 0.64698 0.68144 0.0
C172 C 0.70139 0.72341 0.67864 0.0
C173 C 0.76639 0.75904 0.6849 0.0
C174 C 0.62089 0.61041 0.67257 0.0
C175 C 0.61198 0.54134 0.66318 0.0
C176 C 0.54419 0.50482 0.65411 0.0
C177 C 0.53186 0.42826 0.65655 0.0
C178 C 0.46722 0.39245 0.64979 0.0
C179 C 0.41391 0.43256 0.64007 0.0
H180 H 0.50054 0.60331 0.64005 0.0
C181 C 0.42733 0.50873 0.63632 0.0
C182 C 0.49191 0.54459 0.64323 0.0
H183 H 0.38767 0.54078 0.62833 0.0
H184 H 0.84594 0.61088 0.70654 0.0
H185 H 0.73242 0.54868 0.69571 0.0
H186 H 0.66155 0.75525 0.67063 0.0
H187 H 0.77538 0.81754 0.6812 0.0
H188 H 0.57763 0.64255 0.67297 0.0
H189 H 0.65527 0.50925 0.66278 0.0
H190 H 0.57163 0.39639 0.66461 0.0
H191 H 0.45841 0.33377 0.65317 0.0
C192 C 0.83467 1.01844 0.67229 0.0
C193 C 0.8829 0.07783 0.6645 0.0
C194 C 0.76054 1.02236 0.67205 0.0
C195 C 0.72779 0.08623 0.66401 0.0
C196 C 0.77642 0.14477 0.65633 0.0
C197 C 0.84964 0.1409 0.65654 0.0
C198 C 0.64681 0.09773 0.6629 0.0
C199 C 0.58751 1.05129 0.669 0.0
C200 C 0.50652 0.06275 0.66787 0.0
C201 C 0.45785 1.004 0.67536 0.0
C202 C 0.38462 1.00784 0.67514 0.0
C203 C 0.3514 0.0711 0.66739 0.0
H204 H 0.50546 0.17491 0.65395 0.0
C205 C 0.39968 0.13072 0.65981 0.0
C206 C 0.47381 0.12682 0.66003 0.0
H207 H 0.38017 0.1816 0.65355 0.0
H208 H 0.85421 0.96772 0.67872 0.0
H209 H 0.72893 0.97445 0.6783 0.0
H210 H 0.75749 0.19581 0.64988 0.0
H211 H 0.88081 0.18912 0.65027 0.0
H212 H 0.63588 0.15184 0.6561 0.0
H213 H 0.59843 0.99715 0.67578 0.0
H214 H 0.47675 0.9528 0.68166 0.0
H215 H 0.35342 0.95943 0.68125 0.0
C216 C 0.84273 0.68758 0.05786 0.0
C217 C 0.85897 0.71365 0.03327 0.0
C218 C 0.81725 0.61411 0.06115 0.0
C219 C 0.80789 0.56575 0.03987 0.0
C220 C 0.82919 0.59072 0.0158 0.0
C221 C 0.854 0.66414 0.01246 0.0
C222 C 0.77025 0.49154 0.04125 0.0
C223 C 0.71733 0.47737 0.05623 0.0
C224 C 0.66473 0.41418 0.05122 0.0
C225 C 0.59671 0.4235 0.05551 0.0
C226 C 0.54393 0.37037 0.04719 0.0
C227 C 0.55827 0.30627 0.03469 0.0
H228 H 0.73178 0.33793 0.03748 0.0
C229 C 0.62681 0.29461 0.03201 0.0
C230 C 0.67963 0.348 0.04024 0.0
H231 H 0.63958 0.24478 0.02313 0.0
H232 H 0.84695 0.72466 0.07425 0.0
H233 H 0.80326 0.59592 0.08016 0.0
H234 H 0.82323 0.55433 0.99918 0.0
H235 H 0.86779 0.68269 0.99345 0.0
H236 H 0.77831 0.4525 0.02632 0.0
H237 H 0.70542 0.51945 0.06943 0.0
H238 H 0.58392 0.47387 0.06404 0.0
H239 H 0.49173 0.38127 0.04947 0.0
C240 C 0.1875 0.34499 0.32398 0.0
C241 C 0.13565 0.29517 0.33353 0.0
C242 C 0.18323 0.42173 0.32424 0.0
C243 C 1.12675 0.45127 0.33412 0.0
C244 C 1.07527 0.40105 0.34368 0.0
C245 C 1.07951 0.32468 0.34339 0.0
C246 C 1.11847 0.53289 0.33516 0.0
C247 C 0.16206 0.58846 0.3262 0.0
C248 C 0.15351 0.67 0.32745 0.0
C249 C 0.20687 0.72116 0.31973 0.0
C250 C 0.20226 0.79752 0.32044 0.0
C251 C 0.14383 0.82594 0.32882 0.0
H252 H 1.05151 0.66245 0.34156 0.0
C253 C 1.09001 0.77508 0.33637 0.0
C254 C 1.09462 0.69851 0.33569 0.0
H255 H 1.04404 0.7944 0.34293 0.0
H256 H 0.23162 0.3247 0.31623 0.0
H257 H 0.22455 0.45711 0.3167 0.0
H258 H 1.03102 0.42095 0.35149 0.0
H259 H 1.03842 0.2887 0.35097 0.0
H260 H 1.07346 0.54711 0.34405 0.0
H261 H 0.20749 0.57442 0.31755 0.0
H262 H 0.25295 0.70201 0.31318 0.0
H263 H 0.24494 0.83433 0.31447 0.0
C264 C 1.07833 1.00889 0.23916 0.0
C265 C 1.12522 1.04362 0.25817 0.0
C266 C 1.09026 1.01446 0.21272 0.0
C267 C 0.15003 1.0542 0.20451 0.0
C268 C 0.19728 0.08802 0.22359 0.0
C269 C 0.18474 0.08355 0.25001 0.0
C270 C 0.1665 0.05792 0.17654 0.0
C271 C 1.11896 1.05427 0.15622 0.0
C272 C 0.13552 0.05693 0.12825 0.0
C273 C 1.08903 0.08338 0.10942 0.0
C274 C 1.10168 0.08425 0.083 0.0
C275 C 0.16046 0.05695 0.07456 0.0
H276 H 0.23101 1.00762 0.13343 0.0
C277 C 0.20666 1.02979 0.09333 0.0
C278 C 0.19466 1.03013 0.11977 0.0
H279 H 0.25239 1.00805 0.08757 0.0
H280 H 1.03203 0.9774 0.24471 0.0
H281 H 1.05331 0.98603 0.19884 0.0
H282 H 0.24413 0.11843 0.21803 0.0
H283 H 0.22205 0.11071 0.26408 0.0
H284 H 0.22017 0.06697 0.17269 0.0
H285 H 1.06536 1.05208 0.16009 0.0
H286 H 1.04273 0.10388 0.11519 0.0
H287 H 1.06512 0.10578 0.06918 0.0
C288 C 1.10291 1.03721 0.42112 0.0
C289 C 0.15869 0.07787 0.41031 0.0
C290 C 1.09977 1.03176 0.44827 0.0
C291 C 0.15323 0.06545 0.4651 0.0
C292 C 0.20873 0.10543 0.45412 0.0
C293 C 0.21099 0.11246 0.42728 0.0
C294 C 0.15626 0.05645 0.49399 0.0
C295 C 1.1017 1.05252 0.50862 0.0
C296 C 1.10784 1.04724 0.5377 0.0
C297 C 1.06015 0.07761 0.55241 0.0
C298 C 1.06423 0.07263 0.57961 0.0
C299 C 1.11522 1.03551 0.59281 0.0
H300 H 0.19603 0.98497 0.54053 0.0
C301 C 0.16255 1.00461 0.57813 0.0
C302 C 0.15919 1.01062 0.55102 0.0
H303 H 0.20236 0.9754 0.58763 0.0
H304 H 1.06187 1.00973 0.40863 0.0
H305 H 1.05669 0.99944 0.45601 0.0
H306 H 0.25091 0.1316 0.46643 0.0
H307 H 0.25493 0.14407 0.41983 0.0
H308 H 0.20696 0.05845 0.50378 0.0
H309 H 1.05146 0.05765 0.49919 0.0
H310 H 1.01975 0.1058 0.54283 0.0
H311 H 1.02678 0.09681 0.59027 0.0
C312 C 0.15666 0.07314 0.75368 0.0
C313 C 1.11147 0.11423 0.73882 0.0
C314 C 0.15442 0.06866 0.78089 0.0
C315 C 1.10642 0.10481 0.79379 0.0
C316 C 1.06104 0.14466 0.77863 0.0
C317 C 1.06368 0.14956 0.75176 0.0
C318 C 1.09958 0.10277 0.82262 0.0
C319 C 0.1448 0.07909 0.84097 0.0
C320 C 0.1359 0.08172 0.86971 0.0
C321 C 0.17344 1.03809 0.88681 0.0
C322 C 0.16621 1.03897 0.91369 0.0
C323 C 1.12138 0.08388 0.92427 0.0
H324 H 1.06426 0.16497 0.86868 0.0
C325 C 1.08514 0.12878 0.90734 0.0
C326 C 1.09241 0.12808 0.88058 0.0
H327 H 1.05076 0.16478 0.9148 0.0
H328 H 0.19403 1.04504 0.74431 0.0
H329 H 0.18984 1.03646 0.79159 0.0
H330 H 1.0232 0.17296 0.78766 0.0
H331 H 1.02779 0.18139 0.74106 0.0
H332 H 1.05381 0.12334 0.82891 0.0
H333 H 0.18992 0.0564 0.83498 0.0
H334 H 0.20806 1.00244 0.87932 0.0
H335 H 0.19516 1.00389 0.92615 0.0
loop_
_geom_bond_atom_site_label_1
_geom_bond_atom_site_label_2
_geom_bond_distance
_geom_bond_site_symmetry_2
_ccdc_geom_bond_type
La0 C2 2.928 . S
La0 O20 2.521 . S
La0 O21 2.628 1_554 S
La0 O22 2.554 . S
La0 O23 2.757 1_545 S
La0 O24 2.470 . S
La0 O29 2.482 1_554 S
La0 O31 2.503 1_545 S
La1 C11 2.928 . S
La1 O23 2.482 1_655 S
La1 O25 2.503 1_565 S
La1 O26 2.521 1_554 S
La1 O27 2.628 . S
La1 O28 2.554 1_554 S
La1 O29 2.757 1_664 S
La1 O30 2.470 1_554 S
C2 La0 2.928 . S
C2 C3 1.503 . S
C2 O20 1.261 . S
C2 O21 1.243 1_554 S
C3 C2 1.503 . S
C3 C4 1.394 . S
C3 C8 1.373 1_554 S
C4 C3 1.394 . S
C4 C5 1.380 . S
C4 H32 0.930 . S
C5 C4 1.380 . S
C5 C6 1.376 . S
C5 H33 0.930 . S
C6 C5 1.376 . S
C6 C7 1.370 1_554 S
C7 C6 1.370 1_556 S
C7 C8 1.396 . S
C7 H34 0.929 . S
C8 C3 1.373 1_556 S
C8 C7 1.396 . S
C8 H35 0.929 . S
C9 O22 1.240 . S
C9 O23 1.289 1_545 S
C10 O24 1.258 . S
C10 O25 1.256 1_455 S
C11 La1 2.928 . S
C11 C12 1.503 . S
C11 O26 1.261 1_554 S
C11 O27 1.243 . S
C12 C11 1.503 . S
C12 C13 1.394 1_554 S
C12 C17 1.373 . S
C13 C12 1.394 1_556 S
C13 C14 1.380 . S
C13 H36 0.930 . S
C14 C13 1.380 . S
C14 C15 1.376 1_556 S
C14 H37 0.930 . S
C15 C14 1.376 1_554 S
C15 C16 1.370 . S
C16 C15 1.370 . S
C16 C17 1.396 . S
C16 H38 0.929 . S
C17 C12 1.373 . S
C17 C16 1.396 . S
C17 H39 0.929 . S
C18 O28 1.240 1_445 S
C18 O29 1.289 . S
C19 O30 1.258 1_454 S
C19 O31 1.256 . S
O20 La0 2.521 . S
O20 C2 1.261 . S
O21 La0 2.628 1_556 S
O21 C2 1.243 1_556 S
O22 La0 2.554 . S
O22 C9 1.240 . S
O23 La0 2.757 1_565 S
O23 La1 2.482 1_455 S
O23 C9 1.289 1_565 S
O24 La0 2.470 . S
O24 C10 1.258 . S
O25 La1 2.503 1_545 S
O25 C10 1.256 1_655 S
O26 La1 2.521 1_556 S
O26 C11 1.261 1_556 S
O27 La1 2.628 . S
O27 C11 1.243 . S
O28 La1 2.554 1_556 S
O28 C18 1.240 1_665 S
O29 La0 2.482 1_556 S
O29 La1 2.757 1_446 S
O29 C18 1.289 . S
O30 La1 2.470 1_556 S
O30 C19 1.258 1_656 S
O31 La0 2.503 1_565 S
O31 C19 1.256 . S
H32 C4 0.930 . S
H33 C5 0.930 . S
H34 C7 0.929 . S
H35 C8 0.929 . S
H36 C13 0.930 . S
H37 C14 0.930 . S
H38 C16 0.929 . S
H39 C17 0.929 . S
La40 C42 2.928 1_565 S
La40 O60 2.521 . S
La40 O61 2.628 1_565 S
La40 O62 2.554 . S
La40 O63 2.757 1_665 S
La40 O64 2.470 1_565 S
La40 O69 2.482 1_565 S
La40 O71 2.503 . S
La41 C51 2.928 . S
La41 O63 2.482 . S
La41 O65 2.503 . S
La41 O66 2.521 . S
La41 O67 2.628 . S
La41 O68 2.554 . S
La41 O69 2.757 1_455 S
La41 O70 2.470 1_545 S
C42 La40 2.928 1_545 S
C42 C43 1.503 . S
C42 O60 1.261 1_545 S
C42 O61 1.243 . S
C43 C42 1.503 . S
C43 C44 1.394 . S
C43 C48 1.373 . S
C44 C43 1.394 . S
C44 C45 1.380 . S
C44 H72 0.930 . S
C45 C44 1.380 . S
C45 C46 1.376 . S
C45 H73 0.930 . S
C46 C45 1.376 . S
C46 C47 1.370 . S
C47 C46 1.370 . S
C47 C48 1.396 . S
C47 H74 0.929 . S
C48 C43 1.373 . S
C48 C47 1.396 . S
C48 H75 0.929 . S
C49 O62 1.240 1_545 S
C49 O63 1.289 1_655 S
C50 O64 1.258 . S
C50 O65 1.256 1_655 S
C51 La41 2.928 . S
C51 C52 1.503 1_545 S
C51 O66 1.261 . S
C51 O67 1.243 . S
C52 C51 1.503 1_565 S
C52 C53 1.394 . S
C52 C57 1.373 . S
C53 C52 1.394 . S
C53 C54 1.387 . S
C53 H76 0.924 1_565 S
C54 C53 1.387 . S
C54 C55 1.376 . S
C54 H77 0.930 . S
C55 C54 1.376 . S
C55 C56 1.370 . S
C56 C55 1.370 . S
C56 C57 1.396 . S
C56 H78 0.929 . S
C57 C52 1.373 . S
C57 C56 1.396 . S
C57 H79 0.929 . S
C58 O68 1.240 . S
C58 O69 1.289 1_455 S
C59 O70 1.258 . S
C59 O71 1.256 1_455 S
O60 La40 2.521 . S
O60 C42 1.261 1_565 S
O61 La40 2.628 1_545 S
O61 C42 1.243 . S
O62 La40 2.554 . S
O62 C49 1.240 1_565 S
O63 La40 2.757 1_445 S
O63 La41 2.482 . S
O63 C49 1.289 1_455 S
O64 La40 2.470 1_545 S
O64 C50 1.258 . S
O65 La41 2.503 . S
O65 C50 1.256 1_455 S
O66 La41 2.521 . S
O66 C51 1.261 . S
O67 La41 2.628 . S
O67 C51 1.243 . S
O68 La41 2.554 . S
O68 C58 1.240 . S
O69 La40 2.482 1_545 S
O69 La41 2.757 1_655 S
O69 C58 1.289 1_655 S
O70 La41 2.470 1_565 S
O70 C59 1.258 . S
O71 La40 2.503 . S
O71 C59 1.256 1_655 S
H72 C44 0.930 . S
H73 C45 0.930 . S
H74 C47 0.929 . S
H75 C48 0.929 . S
H76 C53 0.924 1_545 S
H77 C54 0.930 . S
H78 C56 0.929 . S
H79 C57 0.929 . S
La80 C82 2.928 . S
La80 O100 2.521 . S
La80 O101 2.628 . S
La80 O102 2.554 . S
La80 O103 2.757 1_665 S
La80 O104 2.470 1_565 S
La80 O109 2.482 1_565 S
La80 O111 2.503 1_655 S
La81 C91 2.928 . S
La81 O103 2.482 . S
La81 O105 2.503 1_455 S
La81 O106 2.521 . S
La81 O107 2.628 . S
La81 O108 2.554 . S
La81 O109 2.757 1_455 S
La81 O110 2.470 . S
C82 La80 2.928 . S
C82 C83 1.503 . S
C82 O100 1.261 . S
C82 O101 1.243 . S
C83 C82 1.503 . S
C83 C84 1.394 . S
C83 C88 1.373 . S
C84 C83 1.394 . S
C84 C85 1.380 . S
C84 H112 0.930 . S
C85 C84 1.380 . S
C85 C86 1.376 . S
C85 H113 0.930 . S
C86 C85 1.376 . S
C86 C87 1.370 . S
C87 C86 1.370 . S
C87 C88 1.396 . S
C87 H114 0.929 . S
C88 C83 1.373 . S
C88 C87 1.396 . S
C88 H115 0.929 . S
C89 O102 1.238 1_445 S
C89 O103 1.291 . S
C90 O104 1.258 . S
C90 O105 1.256 . S
C91 La81 2.928 . S
C91 C92 1.503 . S
C91 O106 1.261 . S
C91 O107 1.243 . S
C92 C91 1.503 . S
C92 C93 1.394 . S
C92 C97 1.373 . S
C93 C92 1.394 . S
C93 C94 1.380 . S
C93 H116 0.930 . S
C94 C93 1.380 . S
C94 C95 1.376 . S
C94 H117 0.930 . S
C95 C94 1.376 . S
C95 C96 1.370 . S
C96 C95 1.370 . S
C96 C97 1.396 . S
C96 H118 0.929 . S
C97 C92 1.373 . S
C97 C96 1.396 . S
C97 H119 0.929 . S
C98 O108 1.240 . S
C98 O109 1.289 1_455 S
C99 O110 1.258 . S
C99 O111 1.256 1_545 S
O100 La80 2.521 . S
O100 C82 1.261 . S
O101 La80 2.628 . S
O101 C82 1.243 . S
O102 La80 2.554 . S
O102 C89 1.238 1_665 S
O103 La80 2.757 1_445 S
O103 La81 2.482 . S
O103 C89 1.291 . S
O104 La80 2.470 1_545 S
O104 C90 1.258 . S
O105 La81 2.503 1_655 S
O105 C90 1.256 . S
O106 La81 2.521 . S
O106 C91 1.261 . S
O107 La81 2.628 . S
O107 C91 1.243 . S
O108 La81 2.554 . S
O108 C98 1.240 . S
O109 La80 2.482 1_545 S
O109 La81 2.757 1_655 S
O109 C98 1.289 1_655 S
O110 La81 2.470 . S
O110 C99 1.258 . S
O111 La80 2.503 1_455 S
O111 C99 1.256 1_565 S
H112 C84 0.930 . S
H113 C85 0.930 . S
H114 C87 0.929 . S
H115 C88 0.929 . S
H116 C93 0.930 . S
H117 C94 0.930 . S
H118 C96 0.929 . S
H119 C97 0.929 . S
C120 C121 1.386 . S
C120 C122 1.383 . S
C120 H136 0.951 . S
C121 C120 1.386 . S
C121 C125 1.383 1_454 S
C122 C120 1.383 . S
C122 C123 1.402 1_554 S
C122 H137 0.951 . S
C123 C122 1.402 1_556 S
C123 C124 1.375 1_455 S
C123 C126 1.481 . S
C124 C123 1.375 1_655 S
C124 C125 1.367 . S
C124 H138 0.951 . S
C125 C121 1.383 1_656 S
C125 C124 1.367 . S
C125 H139 0.950 . S
C126 C123 1.481 . S
C126 C127 1.297 1_556 S
C126 H140 0.950 1_455 S
C127 C126 1.297 1_554 S
C127 C128 1.479 . S
C127 H141 0.950 . S
C128 C127 1.479 . S
C128 C129 1.375 . S
C128 C134 1.404 1_554 S
C129 C128 1.375 . S
C129 C130 1.369 . S
C129 H142 0.950 . S
C130 C129 1.369 . S
C130 C131 1.392 . S
C130 H143 0.951 . S
C131 C130 1.392 . S
C131 C133 1.384 1_554 S
H132 C134 0.951 . S
C133 C131 1.384 1_556 S
C133 C134 1.385 . S
C133 H135 0.950 1_455 S
C134 C128 1.404 1_556 S
C134 H132 0.951 . S
C134 C133 1.385 . S
H135 C133 0.950 1_655 S
H136 C120 0.951 . S
H137 C122 0.951 . S
H138 C124 0.951 . S
H139 C125 0.950 . S
H140 C126 0.950 1_655 S
H141 C127 0.950 . S
H142 C129 0.950 . S
H143 C130 0.951 . S
C144 C145 1.386 . S
C144 C146 1.383 . S
C144 H160 0.951 . S
C145 C144 1.386 . S
C145 C149 1.383 . S
C146 C144 1.383 . S
C146 C147 1.402 . S
C146 H161 0.951 1_565 S
C147 C146 1.402 . S
C147 C148 1.375 . S
C147 C150 1.481 1_565 S
C148 C147 1.375 . S
C148 C149 1.367 . S
C148 H162 0.951 . S
C149 C145 1.383 . S
C149 C148 1.367 . S
C149 H163 0.950 . S
C150 C147 1.481 1_545 S
C150 C151 1.297 . S
C150 H164 0.950 . S
C151 C150 1.297 . S
C151 C152 1.479 . S
C151 H165 0.950 . S
C152 C151 1.479 . S
C152 C153 1.375 . S
C152 C158 1.404 . S
C153 C152 1.375 . S
C153 C154 1.369 . S
C153 H166 0.950 . S
C154 C153 1.369 . S
C154 C155 1.392 . S
C154 H167 0.951 . S
C155 C154 1.392 . S
C155 C157 1.384 . S
H156 C158 0.949 . S
C157 C155 1.384 . S
C157 C158 1.385 . S
C157 H159 0.950 . S
C158 C152 1.404 . S
C158 H156 0.949 . S
C158 C157 1.385 . S
H159 C157 0.950 . S
H160 C144 0.951 . S
H161 C146 0.951 1_545 S
H162 C148 0.951 . S
H163 C149 0.950 . S
H164 C150 0.950 . S
H165 C151 0.950 . S
H166 C153 0.950 . S
H167 C154 0.951 . S
C168 C169 1.386 . S
C168 C170 1.383 . S
C168 H184 0.951 . S
C169 C168 1.386 . S
C169 C173 1.383 . S
C170 C168 1.383 . S
C170 C171 1.402 . S
C170 H185 0.951 . S
C171 C170 1.402 . S
C171 C172 1.375 . S
C171 C174 1.481 . S
C172 C171 1.375 . S
C172 C173 1.367 . S
C172 H186 0.951 . S
C173 C169 1.383 . S
C173 C172 1.367 . S
C173 H187 0.950 . S
C174 C171 1.481 . S
C174 C175 1.297 . S
C174 H188 0.950 . S
C175 C174 1.297 . S
C175 C176 1.479 . S
C175 H189 0.950 . S
C176 C175 1.479 . S
C176 C177 1.375 . S
C176 C182 1.404 . S
C177 C176 1.375 . S
C177 C178 1.369 . S
C177 H190 0.950 . S
C178 C177 1.369 . S
C178 C179 1.392 . S
C178 H191 0.951 . S
C179 C178 1.392 . S
C179 C181 1.384 . S
H180 C182 0.949 . S
C181 C179 1.384 . S
C181 C182 1.385 . S
C181 H183 0.950 . S
C182 C176 1.404 . S
C182 H180 0.949 . S
C182 C181 1.385 . S
H183 C181 0.950 . S
H184 C168 0.951 . S
H185 C170 0.951 . S
H186 C172 0.951 . S
H187 C173 0.950 . S
H188 C174 0.950 . S
H189 C175 0.950 . S
H190 C177 0.950 . S
H191 C178 0.951 . S
C192 C193 1.381 1_565 S
C192 C194 1.381 1_565 S
C192 H208 0.957 . S
C193 C192 1.381 1_545 S
C193 C197 1.383 . S
C194 C192 1.381 1_545 S
C194 C195 1.402 . S
C194 H209 0.951 1_545 S
C195 C194 1.402 . S
C195 C196 1.375 . S
C195 C198 1.481 . S
C196 C195 1.375 . S
C196 C197 1.367 . S
C196 H210 0.951 . S
C197 C193 1.383 . S
C197 C196 1.367 . S
C197 H211 0.950 . S
C198 C195 1.481 . S
C198 C199 1.297 . S
C198 H212 0.950 . S
C199 C198 1.297 . S
C199 C200 1.479 . S
C199 H213 0.950 1_545 S
C200 C199 1.479 . S
C200 C201 1.375 1_545 S
C200 C206 1.404 . S
C201 C200 1.375 1_565 S
C201 C202 1.369 . S
C201 H214 0.950 . S
C202 C201 1.369 . S
C202 C203 1.392 1_565 S
C202 H215 0.951 . S
C203 C202 1.392 1_545 S
C203 C205 1.384 . S
H204 C206 0.949 . S
C205 C203 1.384 . S
C205 C206 1.385 . S
C205 H207 0.950 . S
C206 C200 1.404 . S
C206 H204 0.949 . S
C206 C205 1.385 . S
H207 C205 0.950 . S
H208 C192 0.957 . S
H209 C194 0.951 1_565 S
H210 C196 0.951 . S
H211 C197 0.950 . S
H212 C198 0.950 . S
H213 C199 0.950 1_565 S
H214 C201 0.950 . S
H215 C202 0.951 . S
C216 C217 1.386 . S
C216 C218 1.383 . S
C216 H232 0.951 . S
C217 C216 1.386 . S
C217 C221 1.383 1_554 S
C218 C216 1.383 . S
C218 C219 1.402 . S
C218 H233 0.951 . S
C219 C218 1.402 . S
C219 C220 1.375 1_554 S
C219 C222 1.481 1_554 S
C220 C219 1.375 1_556 S
C220 C221 1.367 . S
C220 H234 0.951 . S
C221 C217 1.383 1_556 S
C221 C220 1.367 . S
C221 H235 0.950 . S
C222 C219 1.481 1_556 S
C222 C223 1.297 1_556 S
C222 H236 0.950 . S
C223 C222 1.297 1_554 S
C223 C224 1.479 . S
C223 H237 0.950 . S
C224 C223 1.479 . S
C224 C225 1.375 . S
C224 C230 1.404 1_554 S
C225 C224 1.375 . S
C225 C226 1.369 . S
C225 H238 0.950 . S
C226 C225 1.369 . S
C226 C227 1.392 . S
C226 H239 0.951 . S
C227 C226 1.392 . S
C227 C229 1.384 1_554 S
H228 C230 0.949 . S
C229 C227 1.384 1_556 S
C229 C230 1.385 . S
C229 H231 0.950 . S
C230 C224 1.404 1_556 S
C230 H228 0.949 . S
C230 C229 1.385 . S
H231 C229 0.950 . S
H232 C216 0.951 . S
H233 C218 0.951 . S
H234 C220 0.951 . S
H235 C221 0.950 . S
H236 C222 0.950 . S
H237 C223 0.950 . S
H238 C225 0.950 . S
H239 C226 0.951 . S
C240 C241 1.386 1_455 S
C240 C242 1.383 . S
C240 H256 0.951 . S
C241 C240 1.386 1_655 S
C241 C245 1.383 . S
C242 C240 1.383 . S
C242 C243 1.402 1_455 S
C242 H257 0.951 . S
C243 C242 1.402 1_655 S
C243 C244 1.375 . S
C243 C246 1.481 . S
C244 C243 1.375 . S
C244 C245 1.367 . S
C244 H258 0.951 . S
C245 C241 1.383 . S
C245 C244 1.367 . S
C245 H259 0.950 . S
C246 C243 1.481 . S
C246 C247 1.297 1_655 S
C246 H260 0.950 . S
C247 C246 1.297 1_455 S
C247 C248 1.479 . S
C247 H261 0.950 . S
C248 C247 1.479 . S
C248 C249 1.375 . S
C248 C254 1.404 1_455 S
C249 C248 1.375 . S
C249 C250 1.369 . S
C249 H262 0.950 . S
C250 C249 1.369 . S
C250 C251 1.392 . S
C250 H263 0.951 . S
C251 C250 1.392 . S
C251 C253 1.384 1_455 S
H252 C254 0.949 . S
C253 C251 1.384 1_655 S
C253 C254 1.385 . S
C253 H255 0.950 . S
C254 C248 1.404 1_655 S
C254 H252 0.949 . S
C254 C253 1.385 . S
H255 C253 0.950 . S
H256 C240 0.951 . S
H257 C242 0.951 . S
H258 C244 0.951 . S
H259 C245 0.950 . S
H260 C246 0.950 . S
H261 C247 0.950 . S
H262 C249 0.950 . S
H263 C250 0.951 . S
C264 C265 1.386 1_665 S
C264 C266 1.383 1_565 S
C264 H280 0.951 . S
C265 C264 1.386 1_445 S
C265 C269 1.383 . S
C266 C264 1.383 1_545 S
C266 C267 1.402 1_655 S
C266 H281 0.951 1_545 S
C267 C266 1.402 1_455 S
C267 C268 1.375 . S
C267 C270 1.481 . S
C268 C267 1.375 . S
C268 C269 1.367 . S
C268 H282 0.951 . S
C269 C265 1.383 . S
C269 C268 1.367 . S
C269 H283 0.950 . S
C270 C267 1.481 . S
C270 C271 1.297 1_455 S
C270 H284 0.950 . S
C271 C270 1.297 1_655 S
C271 C272 1.479 1_655 S
C271 H285 0.950 . S
C272 C271 1.479 1_455 S
C272 C273 1.375 1_445 S
C272 C278 1.404 . S
C273 C272 1.375 1_665 S
C273 C274 1.369 . S
C273 H286 0.950 . S
C274 C273 1.369 . S
C274 C275 1.392 1_665 S
C274 H287 0.951 . S
C275 C274 1.392 1_445 S
C275 C277 1.384 . S
H276 C278 0.949 . S
C277 C275 1.384 . S
C277 C278 1.385 . S
C277 H279 0.950 . S
C278 C272 1.404 . S
C278 H276 0.949 . S
C278 C277 1.385 . S
H279 C277 0.950 . S
H280 C264 0.951 . S
H281 C266 0.951 1_565 S
H282 C268 0.951 . S
H283 C269 0.950 . S
H284 C270 0.950 . S
H285 C271 0.950 . S
H286 C273 0.950 . S
H287 C274 0.951 . S
C288 C289 1.386 1_655 S
C288 C290 1.383 . S
C288 H304 0.951 . S
C289 C288 1.386 1_455 S
C289 C293 1.383 . S
C290 C288 1.383 . S
C290 C291 1.402 1_655 S
C290 H305 0.951 . S
C291 C290 1.402 1_455 S
C291 C292 1.377 . S
C291 C294 1.481 . S
C292 C291 1.377 . S
C292 C293 1.368 . S
C292 H306 0.948 1_545 S
C293 C289 1.383 . S
C293 C292 1.368 . S
C293 H307 0.950 1_545 S
C294 C291 1.481 . S
C294 C295 1.297 1_455 S
C294 H308 0.950 1_545 S
C295 C294 1.297 1_655 S
C295 C296 1.479 . S
C295 H309 0.950 . S
C296 C295 1.479 . S
C296 C297 1.375 . S
C296 C302 1.398 1_645 S
C297 C296 1.375 . S
C297 C298 1.369 . S
C297 H310 0.950 . S
C298 C297 1.369 . S
C298 C299 1.376 1_655 S
C298 H311 0.951 . S
C299 C298 1.376 1_455 S
C299 C301 1.401 . S
H300 C302 0.957 . S
C301 C299 1.401 . S
C301 C302 1.383 1_545 S
C301 H303 0.952 . S
C302 C296 1.398 1_465 S
C302 H300 0.957 . S
C302 C301 1.383 1_565 S
H303 C301 0.952 . S
H304 C288 0.951 . S
H305 C290 0.951 . S
H306 C292 0.948 1_565 S
H307 C293 0.950 1_565 S
H308 C294 0.950 1_565 S
H309 C295 0.950 . S
H310 C297 0.950 . S
H311 C298 0.951 . S
C312 C313 1.386 . S
C312 C314 1.383 . S
C312 H328 0.951 1_545 S
C313 C312 1.386 . S
C313 C317 1.383 1_455 S
C314 C312 1.383 . S
C314 C315 1.402 . S
C314 H329 0.952 . S
C315 C314 1.402 . S
C315 C316 1.375 1_455 S
C315 C318 1.481 . S
C316 C315 1.375 1_655 S
C316 C317 1.367 . S
C316 H330 0.951 . S
C317 C313 1.383 1_655 S
C317 C316 1.367 . S
C317 H331 0.950 . S
C318 C315 1.481 . S
C318 C319 1.297 . S
C318 H332 0.950 1_455 S
C319 C318 1.297 . S
C319 C320 1.479 . S
C319 H333 0.950 . S
C320 C319 1.479 . S
C320 C321 1.375 . S
C320 C326 1.404 . S
C321 C320 1.375 . S
C321 C322 1.369 1_545 S
C321 H334 0.950 1_545 S
C322 C321 1.369 1_565 S
C322 C323 1.392 1_565 S
C322 H335 0.951 . S
C323 C322 1.392 1_545 S
C323 C325 1.384 . S
H324 C326 0.949 1_655 S
C325 C323 1.384 . S
C325 C326 1.385 . S
C325 H327 0.950 1_455 S
C326 C320 1.404 . S
C326 H324 0.949 1_455 S
C326 C325 1.385 . S
H327 C325 0.950 1_655 S
H328 C312 0.951 1_565 S
H329 C314 0.952 . S
H330 C316 0.951 . S
H331 C317 0.950 . S
H332 C318 0.950 1_655 S
H333 C319 0.950 . S
H334 C321 0.950 1_565 S
H335 C322 0.951 . S
C121 C10 2.981 . S
C131 C19 2.948 . S
C145 C55 0.877 . S
C155 C46 1.017 . S
C169 C86 0.611 . S
C179 C95 0.569 . S
C193 C90 4.894 . S
C203 C99 4.871 . S
C217 C15 0.526 . S
C227 C6 0.587 . S
C241 C50 3.014 . S
C251 C59 3.029 . S
C265 C49 1.478 1_455 S
C275 C9 1.463 . S
C289 C58 1.444 . S
C299 C89 1.382 . S
C313 C98 1.437 . S
C323 C18 1.479 . S
