# Generated by pormake.
# Topology ukk, (4)-cn, num edge types: 1
# Building blocks:
#     Node 0, Type 0, BuildingBlock: CEKHIL_clean_sbu_0, # of connection points: 4
#     Node 1, Type 0, BuildingBlock: CEKHIL_clean_sbu_0, # of connection points: 4
#     Node 2, Type 0, BuildingBlock: CEKHIL_clean_sbu_0, # of connection points: 4
#     Node 3, Type 0, BuildingBlock: CEKHIL_clean_sbu_0, # of connection points: 4
#     Node 4, Type 0, BuildingBlock: CEKHIL_clean_sbu_0, # of connection points: 4
#     Node 5, Type 0, BuildingBlock: CEKHIL_clean_sbu_0, # of connection points: 4
#     Node 6, Type 0, BuildingBlock: CEKHIL_clean_sbu_0, # of connection points: 4
#     Node 7, Type 0, BuildingBlock: CEKHIL_clean_sbu_0, # of connection points: 4
#     Node 8, Type 0, BuildingBlock: CEKHIL_clean_sbu_0, # of connection points: 4
#     Node 9, Type 0, BuildingBlock: CEKHIL_clean_sbu_0, # of connection points: 4
#     Node 10, Type 0, BuildingBlock: CEKHIL_clean_sbu_0, # of connection points: 4
#     Node 11, Type 0, BuildingBlock: CEKHIL_clean_sbu_0, # of connection points: 4
#     Node 12, Type 0, BuildingBlock: CEKHIL_clean_sbu_0, # of connection points: 4
#     Node 13, Type 0, BuildingBlock: CEKHIL_clean_sbu_0, # of connection points: 4
#     Node 14, Type 0, BuildingBlock: CEKHIL_clean_sbu_0, # of connection points: 4
#     Node 15, Type 0, BuildingBlock: CEKHIL_clean_sbu_0, # of connection points: 4
#     Edge 16, Type (0, 0), BuildingBlock: XIVTED_clean_linker_0, # of connection points: 2
#     Edge 17, Type (0, 0), BuildingBlock: XIVTED_clean_linker_0, # of connection points: 2
#     Edge 18, Type (0, 0), BuildingBlock: XIVTED_clean_linker_0, # of connection points: 2
#     Edge 19, Type (0, 0), BuildingBlock: XIVTED_clean_linker_0, # of connection points: 2
#     Edge 20, Type (0, 0), BuildingBlock: XIVTED_clean_linker_0, # of connection points: 2
#     Edge 21, Type (0, 0), BuildingBlock: XIVTED_clean_linker_0, # of connection points: 2
#     Edge 22, Type (0, 0), BuildingBlock: XIVTED_clean_linker_0, # of connection points: 2
#     Edge 23, Type (0, 0), BuildingBlock: XIVTED_clean_linker_0, # of connection points: 2
#     Edge 24, Type (0, 0), BuildingBlock: XIVTED_clean_linker_0, # of connection points: 2
#     Edge 25, Type (0, 0), BuildingBlock: XIVTED_clean_linker_0, # of connection points: 2
#     Edge 26, Type (0, 0), BuildingBlock: XIVTED_clean_linker_0, # of connection points: 2
#     Edge 27, Type (0, 0), BuildingBlock: XIVTED_clean_linker_0, # of connection points: 2
#     Edge 28, Type (0, 0), BuildingBlock: XIVTED_clean_linker_0, # of connection points: 2
#     Edge 29, Type (0, 0), BuildingBlock: XIVTED_clean_linker_0, # of connection points: 2
#     Edge 30, Type (0, 0), BuildingBlock: XIVTED_clean_linker_0, # of connection points: 2
#     Edge 31, Type (0, 0), BuildingBlock: XIVTED_clean_linker_0, # of connection points: 2
#     Edge 32, Type (0, 0), BuildingBlock: XIVTED_clean_linker_0, # of connection points: 2
#     Edge 33, Type (0, 0), BuildingBlock: XIVTED_clean_linker_0, # of connection points: 2
#     Edge 34, Type (0, 0), BuildingBlock: XIVTED_clean_linker_0, # of connection points: 2
#     Edge 35, Type (0, 0), BuildingBlock: XIVTED_clean_linker_0, # of connection points: 2
#     Edge 36, Type (0, 0), BuildingBlock: XIVTED_clean_linker_0, # of connection points: 2
#     Edge 37, Type (0, 0), BuildingBlock: XIVTED_clean_linker_0, # of connection points: 2
#     Edge 38, Type (0, 0), BuildingBlock: XIVTED_clean_linker_0, # of connection points: 2
#     Edge 39, Type (0, 0), BuildingBlock: XIVTED_clean_linker_0, # of connection points: 2
#     Edge 40, Type (0, 0), BuildingBlock: XIVTED_clean_linker_0, # of connection points: 2
#     Edge 41, Type (0, 0), BuildingBlock: XIVTED_clean_linker_0, # of connection points: 2
#     Edge 42, Type (0, 0), BuildingBlock: XIVTED_clean_linker_0, # of connection points: 2
#     Edge 43, Type (0, 0), BuildingBlock: XIVTED_clean_linker_0, # of connection points: 2
#     Edge 44, Type (0, 0), BuildingBlock: XIVTED_clean_linker_0, # of connection points: 2
#     Edge 45, Type (0, 0), BuildingBlock: XIVTED_clean_linker_0, # of connection points: 2
#     Edge 46, Type (0, 0), BuildingBlock: XIVTED_clean_linker_0, # of connection points: 2
#     Edge 47, Type (0, 0), BuildingBlock: XIVTED_clean_linker_0, # of connection points: 2
# Relax obj value: 0.119
# Max RMSD: 0.294
# Mean RMSD: 0.294
data_MOF--net-ukk--node1-CEKHIL_clean_sbu_0--edge1-XIVTED_clean_linker_0
_symmetry_space_group_name_H-M    P1
_symmetry_Int_Tables_number       1
_symmetry_cell_setting            triclinic
loop_
_symmetry_equiv_pos_as_xyz
'x, y, z'
_cell_length_a     54.049895
_cell_length_b     54.133357
_cell_length_c     16.185301
_cell_angle_alpha  90.062993
_cell_angle_beta   89.942397
_cell_angle_gamma 89.988512
loop_
_atom_site_label
_atom_site_type_symbol
_atom_site_fract_x
_atom_site_fract_y
_atom_site_fract_z
_atom_type_partial_charge
Co0 Co 0.35228 0.10399 0.15753 0.0
O1 O 0.31707 0.10144 0.14798 0.0
O2 O 0.34315 0.10406 0.04237 0.0
C3 C 0.35711 0.07396 0.25065 0.0
O4 O 0.3897 0.10602 0.14445 0.0
Co5 Co 0.37489 0.12104 0.32246 0.0
O6 O 0.40555 0.10727 0.27284 0.0
C7 C 0.35361 0.15817 0.21154 0.0
C8 C 0.32044 0.10232 0.06872 0.0
C9 C 0.40797 0.1047 0.195 0.0
O10 O 0.34978 0.14086 0.15903 0.0
O11 O 0.36219 0.15416 0.28404 0.0
O12 O 0.35518 0.06878 0.17268 0.0
O13 O 0.35321 0.09675 0.27165 0.0
Co14 Co 0.10465 0.64541 0.83932 0.0
O15 O 0.1008 0.68047 0.8494 0.0
O16 O 0.10776 0.65486 0.95379 0.0
C17 C 0.07207 0.63849 0.75747 0.0
O18 O 0.10867 0.60814 0.85193 0.0
Co19 Co 0.11771 0.62312 0.66938 0.0
O20 O 0.10615 0.59233 0.72358 0.0
C21 C 0.1573 0.64542 0.76826 0.0
C22 C 0.10405 0.67734 0.9281 0.0
C23 C 0.10617 0.58984 0.80185 0.0
O24 O 0.14124 0.64945 0.82505 0.0
O25 O 0.15166 0.63605 0.69806 0.0
O26 O 0.0693 0.64089 0.83668 0.0
O27 O 0.09389 0.6435 0.72847 0.0
Co28 Co 0.64371 0.88652 0.1561 0.0
O29 O 0.67858 0.89113 0.14234 0.0
O30 O 0.65191 0.88571 0.03988 0.0
C31 C 0.63766 0.91721 0.24645 0.0
O32 O 0.60623 0.88213 0.14797 0.0
Co33 Co 0.62405 0.86955 0.32552 0.0
O34 O 0.5921 0.88101 0.27876 0.0
C35 C 0.64716 0.83297 0.21655 0.0
C36 C 0.67468 0.8891 0.0636 0.0
C37 C 0.58852 0.88286 0.20119 0.0
O38 O 0.64873 0.8499 0.16152 0.0
O39 O 0.63908 0.83711 0.28968 0.0
O40 O 0.63872 0.92163 0.16776 0.0
O41 O 0.64319 0.89494 0.26931 0.0
Co42 Co 0.88314 0.3504 0.81912 0.0
O43 O 0.88652 0.31517 0.82828 0.0
O44 O 0.87748 0.34057 0.93171 0.0
C45 C 0.91748 0.35719 0.74523 0.0
O46 O 0.879 0.38757 0.83474 0.0
Co47 Co 0.87477 0.37555 0.65077 0.0
O48 O 0.88566 0.40543 0.71155 0.0
C49 C 0.83223 0.35404 0.73865 0.0
C50 C 0.88164 0.31815 0.90624 0.0
C51 C 0.88319 0.40666 0.78966 0.0
O52 O 0.84695 0.34676 0.79569 0.0
O53 O 0.83944 0.36579 0.67436 0.0
O54 O 0.91851 0.35455 0.8248 0.0
O55 O 0.8962 0.35301 0.71096 0.0
Co56 Co 0.35261 0.38661 0.09472 0.0
O57 O 0.31755 0.39092 0.1057 0.0
O58 O 0.34344 0.38398 0.20946 0.0
C59 C 0.35974 0.41862 0.01109 0.0
O60 O 0.38988 0.3821 0.10669 0.0
Co61 Co 0.37453 0.37254 0.92506 0.0
O62 O 0.40574 0.38353 0.9782 0.0
C63 C 0.35168 0.33382 0.02616 0.0
C64 C 0.32088 0.38775 0.18437 0.0
C65 C 0.40825 0.38386 0.05646 0.0
O66 O 0.34803 0.35014 0.08224 0.0
O67 O 0.36103 0.33898 0.95551 0.0
O68 O 0.35758 0.42182 0.09022 0.0
O69 O 0.35443 0.39677 0.98334 0.0
Co70 Co 0.38729 0.64291 0.90523 0.0
O71 O 0.38965 0.67784 0.89062 0.0
O72 O 0.38765 0.65051 0.78859 0.0
C73 C 0.41721 0.63979 -0.00014 0.0
O74 O 0.3857 0.60541 0.89808 0.0
Co75 Co 0.37015 0.62253 0.07315 0.0
O76 O 0.38494 0.59164 0.02906 0.0
C77 C 0.333 0.64232 0.95896 0.0
C78 C 0.38937 0.67349 0.81187 0.0
C79 C 0.38761 0.58804 0.95175 0.0
O80 O 0.35027 0.64518 0.90543 0.0
O81 O 0.3371 0.63492 0.03283 0.0
O82 O 0.42255 0.6406 0.92181 0.0
O83 O 0.39431 0.64372 0.01962 0.0
Co84 Co 0.64224 0.6057 0.08915 0.0
O85 O 0.67649 0.59744 0.10244 0.0
O86 O 0.65063 0.60629 0.20485 0.0
C87 C 0.63227 0.57556 0.00078 0.0
O88 O 0.60572 0.61418 0.09924 0.0
Co89 Co 0.62425 0.62408 0.9195 0.0
O90 O 0.59131 0.62452 0.97337 0.0
C91 C 0.65045 0.65867 0.02708 0.0
C92 C 0.6729 0.6005 0.18108 0.0
C93 C 0.5882 0.62066 0.05028 0.0
O94 O 0.65095 0.64168 0.08215 0.0
O95 O 0.64204 0.65506 0.95417 0.0
O96 O 0.63329 0.57136 0.07961 0.0
O97 O 0.64046 0.59682 0.97611 0.0
Co98 Co 0.60821 0.35031 0.92012 0.0
O99 O 0.60635 0.31498 0.9115 0.0
O100 O 0.60835 0.34079 0.80535 0.0
C101 C 0.57798 0.35466 0.01374 0.0
O102 O 0.60935 0.38779 0.90466 0.0
Co103 Co 0.62432 0.375 0.0831 0.0
O104 O 0.61034 0.40498 0.03115 0.0
C105 C 0.66238 0.35506 0.97173 0.0
C106 C 0.60693 0.31817 0.83206 0.0
C107 C 0.60775 0.40658 0.95319 0.0
O108 O 0.64524 0.34848 0.9217 0.0
O109 O 0.65818 0.36563 0.04113 0.0
O110 O 0.57287 0.3523 0.93587 0.0
O111 O 0.60097 0.35184 0.03445 0.0
Co112 Co 0.84729 0.60517 0.66324 0.0
O113 O 0.81197 0.60391 0.65361 0.0
O114 O 0.83816 0.6054 0.5481 0.0
C115 C 0.85094 0.57488 0.75674 0.0
O116 O 0.88478 0.6058 0.64962 0.0
Co117 Co 0.87066 0.62121 0.8291 0.0
O118 O 0.90141 0.6087 0.7768 0.0
C119 C 0.85033 0.65915 0.71877 0.0
C120 C 0.81541 0.60429 0.57428 0.0
C121 C 0.90335 0.6053 0.69917 0.0
O122 O 0.84622 0.6422 0.66508 0.0
O123 O 0.85853 0.65457 0.79138 0.0
O124 O 0.84865 0.56979 0.67883 0.0
O125 O 0.84823 0.59786 0.77729 0.0
Co126 Co 0.60667 0.14166 0.358 0.0
O127 O 0.60234 0.1765 0.37161 0.0
O128 O 0.6079 0.1499 0.4741 0.0
C129 C 0.57561 0.13567 0.26907 0.0
O130 O 0.61089 0.10429 0.36619 0.0
Co131 Co 0.62264 0.12177 0.18703 0.0
O132 O 0.61126 0.09005 0.23544 0.0
C133 C 0.66005 0.14401 0.29508 0.0
C134 C 0.60455 0.17264 0.45031 0.0
C135 C 0.60987 0.08659 0.3132 0.0
O136 O 0.64336 0.1462 0.35089 0.0
O137 O 0.65545 0.13606 0.22213 0.0
O138 O 0.57142 0.13691 0.34792 0.0
O139 O 0.59785 0.14109 0.24529 0.0
Co140 Co 0.14512 0.38896 0.66259 0.0
O141 O 0.18007 0.39251 0.64824 0.0
O142 O 0.15321 0.3866 0.54658 0.0
C143 C 0.13967 0.42086 0.74864 0.0
O144 O 0.10762 0.38538 0.65514 0.0
Co145 Co 0.12522 0.37457 0.83466 0.0
O146 O 0.0936 0.38618 0.78609 0.0
C147 C 0.14611 0.33588 0.72881 0.0
C148 C 0.17606 0.38972 0.5698 0.0
C149 C 0.08999 0.3871 0.70834 0.0
O150 O 0.14902 0.35231 0.67269 0.0
O151 O 0.13801 0.34098 0.80124 0.0
O152 O 0.14101 0.4243 0.66946 0.0
O153 O 0.14477 0.39877 0.77454 0.0
Co154 Co 0.38819 0.84878 0.33717 0.0
O155 O 0.3946 0.81406 0.34686 0.0
O156 O 0.38861 0.83975 0.45202 0.0
C157 C 0.41783 0.85751 0.24547 0.0
O158 O 0.38212 0.8856 0.35152 0.0
Co159 Co 0.36879 0.86946 0.17266 0.0
O160 O 0.37302 0.90198 0.22739 0.0
C161 C 0.33421 0.84356 0.28129 0.0
C162 C 0.39285 0.81738 0.4261 0.0
C163 C 0.37743 0.90406 0.30433 0.0
O164 O 0.35169 0.84213 0.33452 0.0
O165 O 0.33745 0.85239 0.20875 0.0
O166 O 0.42289 0.85568 0.32355 0.0
O167 O 0.39575 0.85094 0.22306 0.0
Co168 Co 0.85097 0.88807 0.58641 0.0
O169 O 0.81581 0.89037 0.59897 0.0
O170 O 0.84245 0.88658 0.70229 0.0
C171 C 0.8552 0.91937 0.4973 0.0
O172 O 0.88863 0.88609 0.59584 0.0
Co173 Co 0.87229 0.87309 0.41664 0.0
O174 O 0.90336 0.886 0.46566 0.0
C175 C 0.85198 0.83457 0.52439 0.0
C176 C 0.8196 0.88868 0.67785 0.0
C177 C 0.90651 0.8878 0.54347 0.0
O178 O 0.84858 0.85121 0.57966 0.0
O179 O 0.85999 0.8395 0.45174 0.0
O180 O 0.85358 0.92348 0.57608 0.0
O181 O 0.85132 0.89682 0.47355 0.0
Co182 Co 0.88834 0.14407 0.38798 0.0
O183 O 0.89264 0.17884 0.37173 0.0
O184 O 0.88374 0.15188 0.27273 0.0
C185 C 0.9217 0.13759 0.46643 0.0
O186 O 0.88345 0.10679 0.3819 0.0
Co187 Co 0.87692 0.12464 0.56311 0.0
O188 O 0.88704 0.0928 0.51222 0.0
C189 C 0.83681 0.14687 0.4669 0.0
C190 C 0.88794 0.17467 0.29436 0.0
C191 C 0.8861 0.08919 0.43447 0.0
O192 O 0.85214 0.1492 0.40697 0.0
O193 O 0.84311 0.13851 0.53783 0.0
O194 O 0.92362 0.13881 0.38659 0.0
O195 O 0.90037 0.14353 0.49733 0.0
Co196 Co 0.14621 0.1069 0.58598 0.0
O197 O 0.18124 0.10473 0.5993 0.0
O198 O 0.15428 0.10723 0.70239 0.0
C199 C 0.14284 0.07651 0.4931 0.0
O200 O 0.10862 0.10849 0.59402 0.0
Co201 Co 0.12559 0.12332 0.4178 0.0
O202 O 0.09476 0.10873 0.46305 0.0
C203 C 0.14516 0.16095 0.53038 0.0
C204 C 0.17722 0.10554 0.67818 0.0
C205 C 0.09118 0.10641 0.54047 0.0
O206 O 0.14837 0.14384 0.58398 0.0
O207 O 0.13755 0.15663 0.45686 0.0
O208 O 0.14393 0.07162 0.57139 0.0
O209 O 0.14675 0.09926 0.47196 0.0
Co210 Co 0.10796 0.85127 0.41062 0.0
O211 O 0.09924 0.81718 0.39783 0.0
O212 O 0.10907 0.8425 0.2952 0.0
C213 C 0.07739 0.86205 0.49646 0.0
O214 O 0.11703 0.8876 0.40006 0.0
Co215 Co 0.1258 0.8694 0.58041 0.0
O216 O 0.12674 0.9022 0.52629 0.0
C217 C 0.16057 0.84235 0.47597 0.0
C218 C 0.10281 0.82043 0.3193 0.0
C219 C 0.12335 0.90517 0.44909 0.0
O220 O 0.14377 0.84197 0.42018 0.0
O221 O 0.15682 0.85113 0.54833 0.0
O222 O 0.07371 0.86082 0.41737 0.0
O223 O 0.09836 0.85355 0.52309 0.0
H224 H 0.41588 0.9341 0.34461 0.0
H225 H 0.32553 0.05004 0.35334 0.0
H226 H 0.3363 0.93027 0.34102 0.0
H227 H 0.40136 0.05203 0.27262 0.0
H228 H 0.33218 0.00809 0.40638 0.0
H229 H 0.41315 0.97861 0.37364 0.0
C230 C 0.39787 0.94259 0.35247 0.0
C231 C 0.37626 0.92887 0.34005 0.0
C232 C 0.34762 0.01807 0.37988 0.0
C233 C 0.37294 0.9793 0.37246 0.0
C234 C 0.34389 0.04205 0.35057 0.0
C235 C 0.36303 0.05431 0.30927 0.0
C236 C 0.37058 0.00646 0.3669 0.0
C237 C 0.38631 0.04309 0.30492 0.0
C238 C 0.3963 0.96788 0.36881 0.0
C239 C 0.35332 0.94047 0.35 0.0
N240 N 0.38938 0.0196 0.33219 0.0
N241 N 0.35223 0.96515 0.36472 0.0
H242 H 0.04795 0.65669 0.62127 0.0
H243 H 0.93606 0.56927 0.73696 0.0
H244 H 0.05038 0.59506 0.78898 0.0
H245 H 0.9278 0.63524 0.59109 0.0
H246 H 0.98063 0.57086 0.71524 0.0
H247 H 0.00735 0.64223 0.57156 0.0
C248 C 0.04037 0.63958 0.64496 0.0
C249 C 0.05229 0.62695 0.70907 0.0
C250 C 0.96914 0.58475 0.6862 0.0
C251 C 0.00624 0.61056 0.65404 0.0
C252 C 0.94368 0.58372 0.69836 0.0
C253 C 0.92847 0.60226 0.66628 0.0
C254 C 0.97953 0.60499 0.64427 0.0
C255 C 0.93911 0.62063 0.61674 0.0
C256 C 0.0172 0.63142 0.61717 0.0
C257 C 0.04171 0.60517 0.73913 0.0
N258 N 0.96416 0.62194 0.60891 0.0
N259 N 0.0192 0.59782 0.71205 0.0
H260 H 0.59144 0.93493 0.24931 0.0
H261 H 0.63738 0.06294 0.43144 0.0
H262 H 0.66295 0.94426 0.3614 0.0
H263 H 0.57851 0.0518 0.25591 0.0
H264 H 0.63965 0.01785 0.45189 0.0
H265 H 0.57873 0.97491 0.30347 0.0
C266 C 0.60404 0.94497 0.28884 0.0
C267 C 0.62804 0.93627 0.30212 0.0
C268 C 0.62578 0.02542 0.41085 0.0
C269 C 0.61444 0.9829 0.35906 0.0
C270 C 0.62441 0.05105 0.39948 0.0
C271 C 0.60786 0.06088 0.34148 0.0
C272 C 0.61018 0.00987 0.36475 0.0
C273 C 0.59161 0.04487 0.30084 0.0
C274 C 0.59697 0.96799 0.31868 0.0
C275 C 0.64414 0.95037 0.35087 0.0
N276 N 0.5933 0.02017 0.3128 0.0
N277 N 0.63726 0.9734 0.37607 0.0
H278 H 0.06666 0.36203 0.58304 0.0
H279 H 0.93704 0.40205 0.77189 0.0
H280 H 0.05471 0.41674 0.77266 0.0
H281 H 0.9465 0.33629 0.62535 0.0
H282 H 0.97809 0.41586 0.73089 0.0
H283 H 0.0216 0.36004 0.56067 0.0
C284 C 0.0546 0.37413 0.61805 0.0
C285 C 0.06421 0.38935 0.68044 0.0
C286 C 0.97109 0.39866 0.70586 0.0
C287 C 0.01317 0.3873 0.65522 0.0
C288 C 0.94755 0.39093 0.72866 0.0
C289 C 0.93853 0.36812 0.70157 0.0
C290 C 0.98611 0.38298 0.65816 0.0
C291 C 0.95294 0.3541 0.64694 0.0
C292 C 0.02897 0.37291 0.60559 0.0
C293 C 0.04795 0.40457 0.7246 0.0
N294 N 0.9764 0.36148 0.62837 0.0
N295 N 0.02326 0.403 0.71161 0.0
H296 H 0.40494 0.4377 0.03304 0.0
H297 H 0.36428 0.56348 0.82593 0.0
H298 H 0.33973 0.44471 0.88251 0.0
H299 H 0.41882 0.55443 0.0176 0.0
H300 H 0.36379 0.51838 0.80596 0.0
H301 H 0.41947 0.47747 0.98302 0.0
C302 C 0.39419 0.44727 0.98666 0.0
C303 C 0.37128 0.43801 0.96126 0.0
C304 C 0.37635 0.52638 0.85069 0.0
C305 C 0.3868 0.48437 0.90811 0.0
C306 C 0.3767 0.55204 0.86181 0.0
C307 C 0.39132 0.56243 0.92438 0.0
C308 C 0.39095 0.51135 0.90197 0.0
C309 C 0.40702 0.547 0.96959 0.0
C310 C 0.40229 0.47014 0.95885 0.0
C311 C 0.3576 0.45134 0.90293 0.0
N312 N 0.40623 0.52223 0.95809 0.0
N313 N 0.36528 0.47429 0.87974 0.0
H314 H 0.43763 0.59666 0.04943 0.0
H315 H 0.56276 0.66347 0.0512 0.0
H316 H 0.44321 0.67552 0.07728 0.0
H317 H 0.55733 0.58701 0.12212 0.0
H318 H 0.51887 0.66889 0.08212 0.0
H319 H 0.47995 0.59234 0.10074 0.0
C320 C 0.44743 0.61295 0.07033 0.0
C321 C 0.43707 0.63644 0.06002 0.0
C322 C 0.52728 0.65103 0.09305 0.0
C323 C 0.48573 0.63189 0.11422 0.0
C324 C 0.55229 0.64797 0.07508 0.0
C325 C 0.56335 0.62477 0.08378 0.0
C326 C 0.5131 0.6305 0.11704 0.0
C327 C 0.54924 0.60517 0.11473 0.0
C328 C 0.47166 0.61054 0.09892 0.0
C329 C 0.45062 0.65709 0.08536 0.0
N330 N 0.52458 0.60831 0.12845 0.0
N331 N 0.47453 0.65441 0.10947 0.0
H332 H 0.63458 0.42924 0.83142 0.0
H333 H 0.58561 0.55843 0.99598 0.0
H334 H 0.5742 0.44083 0.00114 0.0
H335 H 0.65761 0.54818 0.88729 0.0
H336 H 0.5734 0.51759 0.94623 0.0
H337 H 0.63557 0.47402 0.80439 0.0
C338 C 0.62096 0.4411 0.86052 0.0
C339 C 0.6044 0.43152 0.91902 0.0
C340 C 0.59164 0.5245 0.93088 0.0
C341 C 0.60539 0.48228 0.88875 0.0
C342 C 0.59849 0.54788 0.95859 0.0
C343 C 0.62258 0.55645 0.94553 0.0
C344 C 0.60931 0.50936 0.89213 0.0
C345 C 0.63879 0.5421 0.89793 0.0
C346 C 0.62162 0.46659 0.84551 0.0
C347 C 0.58734 0.44754 0.95601 0.0
N348 N 0.63208 0.51888 0.87453 0.0
N349 N 0.58843 0.47213 0.94087 0.0
H350 H 0.44392 0.41624 0.0124 0.0
H351 H 0.54812 0.32476 0.10435 0.0
H352 H 0.43021 0.35362 0.17009 0.0
H353 H 0.5619 0.40088 0.04432 0.0
H354 H 0.50648 0.3361 0.15161 0.0
H355 H 0.48784 0.4133 0.04304 0.0
C356 C 0.45018 0.40224 0.0553 0.0
C357 C 0.43358 0.38514 0.08879 0.0
C358 C 0.51899 0.35052 0.13148 0.0
C359 C 0.48402 0.38088 0.12154 0.0
C360 C 0.54279 0.34406 0.10514 0.0
C361 C 0.5584 0.36204 0.07125 0.0
C362 C 0.51078 0.37497 0.12133 0.0
C363 C 0.55051 0.38662 0.07106 0.0
C364 C 0.47529 0.40052 0.07291 0.0
C365 C 0.44259 0.36717 0.14336 0.0
N366 N 0.52706 0.39233 0.09399 0.0
N367 N 0.46739 0.36504 0.15638 0.0
H368 H 0.84961 0.42527 0.89935 0.0
H369 H 0.89682 0.56159 0.80678 0.0
H370 H 0.91516 0.44432 0.76157 0.0
H371 H 0.81993 0.54214 0.82936 0.0
H372 H 0.90826 0.52026 0.8537 0.0
H373 H 0.84373 0.46925 0.93301 0.0
C374 C 0.8632 0.43862 0.87876 0.0
C375 C 0.88274 0.4314 0.82703 0.0
C376 C 0.88889 0.52535 0.85153 0.0
C377 C 0.87634 0.48119 0.86572 0.0
C378 C 0.88237 0.54901 0.82555 0.0
C379 C 0.85746 0.55519 0.81472 0.0
C380 C 0.87027 0.50779 0.86583 0.0
C381 C 0.83937 0.538 0.83777 0.0
C382 C 0.85979 0.46361 0.89764 0.0
C383 C 0.89974 0.44929 0.80102 0.0
N384 N 0.84611 0.51483 0.86099 0.0
N385 N 0.89604 0.47341 0.82009 0.0
H386 H 0.55146 0.15821 0.14111 0.0
H387 H 0.44067 0.06859 0.23177 0.0
H388 H 0.55571 0.09046 0.27928 0.0
H389 H 0.43272 0.13546 0.09037 0.0
H390 H 0.48519 0.0701 0.21045 0.0
H391 H 0.51132 0.14483 0.08501 0.0
C392 C 0.54442 0.14005 0.15657 0.0
C393 C 0.55668 0.1253 0.21455 0.0
C394 C 0.47381 0.08423 0.18226 0.0
C395 C 0.51102 0.11014 0.15273 0.0
C396 C 0.44835 0.08324 0.1942 0.0
C397 C 0.43322 0.102 0.16321 0.0
C398 C 0.4843 0.10474 0.14207 0.0
C399 C 0.44397 0.12068 0.1152 0.0
C400 C 0.52149 0.13248 0.12516 0.0
C401 C 0.54678 0.1022 0.23425 0.0
N402 N 0.46903 0.12198 0.10789 0.0
N403 N 0.5244 0.09546 0.20428 0.0
H404 H 0.07179 0.55563 0.76302 0.0
H405 H 0.16287 0.44753 0.86962 0.0
H406 H 0.13738 0.56652 0.90959 0.0
H407 H 0.09394 0.43979 0.7392 0.0
H408 H 0.1494 0.48847 0.91828 0.0
H409 H 0.07428 0.51147 0.78839 0.0
C410 C 0.08639 0.54867 0.80245 0.0
C411 C 0.10447 0.56455 0.83397 0.0
C412 C 0.13683 0.4774 0.88163 0.0
C413 C 0.10834 0.5138 0.85993 0.0
C414 C 0.14445 0.454 0.85454 0.0
C415 C 0.12935 0.44041 0.80093 0.0
C416 C 0.11412 0.48704 0.85392 0.0
C417 C 0.10594 0.44967 0.78123 0.0
C418 C 0.08794 0.5234 0.81672 0.0
C419 C 0.12311 0.5547 0.8843 0.0
N420 N 0.09918 0.47251 0.8068 0.0
N421 N 0.12498 0.52978 0.89402 0.0
H422 H 0.44521 0.83089 0.1357 0.0
H423 H 0.55376 0.91317 0.2655 0.0
H424 H 0.43512 0.90396 0.23515 0.0
H425 H 0.56448 0.85787 0.07705 0.0
H426 H 0.50966 0.91286 0.23782 0.0
H427 H 0.48714 0.84242 0.09174 0.0
C428 C 0.45141 0.84975 0.14429 0.0
C429 C 0.4369 0.86658 0.18885 0.0
C430 C 0.52157 0.90115 0.20083 0.0
C431 C 0.48482 0.87955 0.1423 0.0
C432 C 0.54682 0.90135 0.21675 0.0
C433 C 0.56272 0.88555 0.17341 0.0
C434 C 0.51187 0.88423 0.14353 0.0
C435 C 0.55272 0.87037 0.11155 0.0
C436 C 0.4754 0.85627 0.11998 0.0
C437 C 0.44586 0.89055 0.20071 0.0
N438 N 0.52775 0.86958 0.09985 0.0
N439 N 0.46945 0.89619 0.17922 0.0
H440 H 0.83018 0.94561 0.37961 0.0
H441 H 0.92016 0.05515 0.4773 0.0
H442 H 0.90062 0.9389 0.50096 0.0
H443 H 0.85452 0.06487 0.33002 0.0
H444 H 0.91791 0.01087 0.45453 0.0
H445 H 0.84246 0.98676 0.32963 0.0
C446 C 0.84869 0.95232 0.39212 0.0
C447 C 0.86465 0.9389 0.44335 0.0
C448 C 0.90417 0.02255 0.42558 0.0
C449 C 0.87853 0.98577 0.38908 0.0
C450 C 0.90555 0.04789 0.43848 0.0
C451 C 0.88744 0.06349 0.40582 0.0
C452 C 0.88388 0.01259 0.38262 0.0
C453 C 0.86881 0.05326 0.35621 0.0
C454 C 0.85563 0.97583 0.36431 0.0
C455 C 0.88809 0.94851 0.46015 0.0
N456 N 0.8671 0.02827 0.34781 0.0
N457 N 0.89421 0.97144 0.43401 0.0
H458 H 0.94203 0.09326 0.43816 0.0
H459 H 0.06601 0.1321 0.65978 0.0
H460 H 0.94726 0.15651 0.59865 0.0
H461 H 0.05791 0.07395 0.47984 0.0
H462 H 0.02071 0.13381 0.67406 0.0
H463 H 0.98122 0.07809 0.49132 0.0
C464 C 0.95121 0.10355 0.48669 0.0
C465 C 0.94159 0.12607 0.51426 0.0
C466 C 0.02891 0.12019 0.63334 0.0
C467 C 0.98729 0.10976 0.57184 0.0
C468 C 0.0547 0.11912 0.6256 0.0
C469 C 0.06547 0.1031 0.56768 0.0
C470 C 0.0141 0.10501 0.58304 0.0
C471 C 0.0502 0.08677 0.52434 0.0
C472 C 0.97371 0.09504 0.51662 0.0
C473 C 0.95423 0.139 0.5762 0.0
N474 N 0.0253 0.08835 0.53215 0.0
N475 N 0.97689 0.13097 0.60158 0.0
H476 H 0.16622 0.9306 0.45132 0.0
H477 H 0.09975 0.05589 0.44334 0.0
H478 H 0.09018 0.93584 0.37409 0.0
H479 H 0.1788 0.04991 0.41899 0.0
H480 H 0.09549 0.01329 0.39484 0.0
H481 H 0.17186 0.97434 0.41985 0.0
C482 C 0.15087 0.94099 0.42595 0.0
C483 C 0.12772 0.92991 0.41551 0.0
C484 C 0.11373 0.02154 0.39679 0.0
C485 C 0.13369 0.98001 0.38159 0.0
C486 C 0.11611 0.04593 0.42375 0.0
C487 C 0.13962 0.05629 0.43417 0.0
C488 C 0.13513 0.00734 0.3832 0.0
C489 C 0.16036 0.04251 0.41067 0.0
C490 C 0.15407 0.96591 0.40768 0.0
C491 C 0.10831 0.94394 0.38276 0.0
N492 N 0.15769 0.01849 0.3881 0.0
N493 N 0.11155 0.96852 0.36872 0.0
H494 H 0.94017 0.92027 0.48487 0.0
H495 H 0.05084 0.83794 0.61531 0.0
H496 H 0.93119 0.86217 0.66421 0.0
H497 H 0.05849 0.90792 0.49183 0.0
H498 H 0.00907 0.85003 0.65992 0.0
H499 H 0.98437 0.92034 0.5105 0.0
C500 C 0.94751 0.90792 0.53137 0.0
C501 C 0.93209 0.89119 0.57246 0.0
C502 C 0.02023 0.86313 0.6258 0.0
C503 C 0.98309 0.89022 0.59951 0.0
C504 C 0.04413 0.85631 0.60109 0.0
C505 C 0.05785 0.872 0.54978 0.0
C506 C 0.01019 0.8856 0.59774 0.0
C507 C 0.0483 0.89535 0.53124 0.0
C508 C 0.97285 0.90788 0.54597 0.0
C509 C 0.94258 0.87539 0.63147 0.0
N510 N 0.02489 0.90127 0.55393 0.0
N511 N 0.96761 0.87481 0.64175 0.0
H512 H 0.33458 0.31628 0.17384 0.0
H513 H 0.34628 0.17412 0.05342 0.0
H514 H 0.35801 0.29174 0.93187 0.0
H515 H 0.35151 0.20082 0.30447 0.0
H516 H 0.34222 0.21656 0.00531 0.0
H517 H 0.33199 0.27345 0.21815 0.0
C518 C 0.33894 0.30192 0.12948 0.0
C519 C 0.34684 0.30775 0.04893 0.0
C520 C 0.34412 0.21309 0.0709 0.0
C521 C 0.3438 0.25851 0.1001 0.0
C522 C 0.34634 0.18886 0.09873 0.0
C523 C 0.34936 0.18384 0.1834 0.0
C524 C 0.3446 0.23252 0.12804 0.0
C525 C 0.34936 0.2038 0.23874 0.0
C526 C 0.33754 0.27745 0.15525 0.0
C527 C 0.35201 0.28819 0.99456 0.0
N528 N 0.34702 0.22729 0.21005 0.0
N529 N 0.3505 0.26441 0.02129 0.0
H530 H 0.19882 0.63837 0.67148 0.0
H531 H 0.29085 0.64634 0.05357 0.0
H532 H 0.17598 0.66198 0.91507 0.0
H533 H 0.3163 0.64748 0.8005 0.0
H534 H 0.24831 0.65067 0.00396 0.0
H535 H 0.24202 0.64067 0.71664 0.0
C536 C 0.20283 0.64431 0.73397 0.0
C537 C 0.18364 0.64976 0.78959 0.0
C538 C 0.26327 0.65017 0.95941 0.0
C539 C 0.23295 0.65205 0.84191 0.0
C540 C 0.28754 0.64762 0.98773 0.0
C541 C 0.30721 0.64646 0.93127 0.0
C542 C 0.25859 0.65119 0.87403 0.0
C543 C 0.30176 0.64831 0.84648 0.0
C544 C 0.22749 0.64559 0.75974 0.0
C545 C 0.19005 0.65739 0.86993 0.0
N546 N 0.27797 0.65033 0.82045 0.0
N547 N 0.21408 0.65801 0.89385 0.0
H548 H 0.66161 0.81726 0.06328 0.0
H549 H 0.66345 0.67434 0.18199 0.0
H550 H 0.64727 0.79031 0.30997 0.0
H551 H 0.65229 0.7011 0.93335 0.0
H552 H 0.66746 0.71685 0.22979 0.0
H553 H 0.66785 0.77496 0.01681 0.0
C554 C 0.65998 0.8025 0.10812 0.0
C555 C 0.65354 0.80744 0.19078 0.0
C556 C 0.6644 0.71338 0.16468 0.0
C557 C 0.66085 0.75881 0.13722 0.0
C558 C 0.66221 0.68909 0.137 0.0
C559 C 0.65715 0.68405 0.05339 0.0
C560 C 0.66176 0.73285 0.10843 0.0
C561 C 0.65593 0.70404 0.99837 0.0
C562 C 0.66353 0.77832 0.0812 0.0
C563 C 0.65196 0.78743 0.24565 0.0
N564 N 0.65804 0.72758 0.027 0.0
N565 N 0.65545 0.76396 0.21775 0.0
H566 H 0.68283 0.31529 0.8941 0.0
H567 H 0.79651 0.38872 0.71665 0.0
H568 H 0.69942 0.38897 0.9791 0.0
H569 H 0.80808 0.31441 0.80439 0.0
H570 H 0.75459 0.38785 0.77542 0.0
H571 H 0.72393 0.31331 0.82859 0.0
C572 C 0.69529 0.33088 0.89977 0.0
C573 C 0.68802 0.3522 0.9428 0.0
C574 C 0.76625 0.37163 0.78031 0.0
C575 C 0.73404 0.35048 0.86521 0.0
C576 C 0.78992 0.37197 0.74591 0.0
C577 C 0.8056 0.35155 0.75548 0.0
C578 C 0.7581 0.35053 0.82251 0.0
C579 C 0.79642 0.33047 0.79561 0.0
C580 C 0.71853 0.32977 0.86222 0.0
C581 C 0.70458 0.37207 0.9476 0.0
N582 N 0.77316 0.33044 0.82762 0.0
N583 N 0.72674 0.37089 0.90805 0.0
H584 H 0.85186 0.70132 0.81388 0.0
H585 H 0.8537 0.79253 0.42792 0.0
H586 H 0.84142 0.67633 0.5627 0.0
H587 H 0.84151 0.81709 0.67882 0.0
H588 H 0.85045 0.74969 0.47543 0.0
H589 H 0.84941 0.74404 0.76535 0.0
C590 C 0.84889 0.70477 0.74874 0.0
C591 C 0.84694 0.68515 0.69241 0.0
C592 C 0.84829 0.76452 0.51978 0.0
C593 C 0.84438 0.73398 0.63633 0.0
C594 C 0.85017 0.78898 0.4927 0.0
C595 C 0.84802 0.80851 0.54933 0.0
C596 C 0.84456 0.7596 0.60417 0.0
C597 C 0.84338 0.80272 0.63267 0.0
C598 C 0.84745 0.72916 0.72105 0.0
C599 C 0.84304 0.6908 0.60858 0.0
N600 N 0.84205 0.77884 0.65759 0.0
N601 N 0.84213 0.71467 0.58303 0.0
H602 H 0.79616 0.14115 0.56852 0.0
H603 H 0.70123 0.14839 0.19586 0.0
H604 H 0.8172 0.16417 0.32267 0.0
H605 H 0.67791 0.15119 0.45113 0.0
H606 H 0.74412 0.15346 0.24119 0.0
H607 H 0.75262 0.14441 0.52792 0.0
C608 C 0.79169 0.14719 0.50654 0.0
C609 C 0.81045 0.15207 0.44879 0.0
C610 C 0.72954 0.15322 0.2871 0.0
C611 C 0.76078 0.15548 0.4017 0.0
C612 C 0.70507 0.15026 0.26123 0.0
C613 C 0.68592 0.14923 0.31962 0.0
C614 C 0.73491 0.15475 0.37196 0.0
C615 C 0.69203 0.15184 0.4037 0.0
C616 C 0.76684 0.14902 0.48335 0.0
C617 C 0.80347 0.1599 0.36924 0.0
N618 N 0.716 0.15419 0.42737 0.0
N619 N 0.77926 0.16103 0.34782 0.0
H620 H 0.14213 0.29383 0.82427 0.0
H621 H 0.14642 0.20334 0.43644 0.0
H622 H 0.15963 0.31832 0.57696 0.0
H623 H 0.15243 0.17751 0.68811 0.0
H624 H 0.15001 0.24585 0.4868 0.0
H625 H 0.14491 0.25097 0.77626 0.0
C626 C 0.14679 0.29026 0.76028 0.0
C627 C 0.15044 0.30979 0.70464 0.0
C628 C 0.15074 0.23082 0.53081 0.0
C629 C 0.15332 0.26087 0.64913 0.0
C630 C 0.14864 0.20656 0.50207 0.0
C631 C 0.14903 0.18678 0.55796 0.0
C632 C 0.1529 0.23534 0.61608 0.0
C633 C 0.15202 0.19212 0.64251 0.0
C634 C 0.14837 0.2658 0.73287 0.0
C635 C 0.15648 0.30396 0.62227 0.0
N636 N 0.15359 0.21586 0.66899 0.0
N637 N 0.15746 0.28009 0.59693 0.0
H638 H 0.17593 0.82608 0.32417 0.0
H639 H 0.31945 0.83043 0.43695 0.0
H640 H 0.20327 0.84211 0.56924 0.0
H641 H 0.29123 0.84126 0.18993 0.0
H642 H 0.27729 0.82437 0.48635 0.0
H643 H 0.21837 0.82103 0.27637 0.0
C644 C 0.19079 0.82819 0.36847 0.0
C645 C 0.18593 0.83495 0.45088 0.0
C646 C 0.28037 0.82783 0.42124 0.0
C647 C 0.23467 0.82911 0.39581 0.0
C648 C 0.30446 0.83123 0.39266 0.0
C649 C 0.30897 0.8367 0.309 0.0
C650 C 0.26056 0.82964 0.36586 0.0
C651 C 0.28868 0.83734 0.25494 0.0
C652 C 0.21504 0.82538 0.34077 0.0
C653 C 0.20607 0.83715 0.50511 0.0
N654 N 0.26534 0.834 0.28442 0.0
N655 N 0.22959 0.83444 0.47643 0.0
H656 H 0.22611 0.10322 0.64008 0.0
H657 H 0.27151 0.10061 0.10921 0.0
H658 H 0.17605 0.10587 0.84798 0.0
H659 H 0.32092 0.10341 0.89963 0.0
H660 H 0.23629 0.10103 0.01516 0.0
H661 H 0.26091 0.10186 0.73491 0.0
C662 C 0.22242 0.10351 0.70587 0.0
C663 C 0.19813 0.10468 0.73631 0.0
C664 C 0.25482 0.10153 0.98971 0.0
C665 C 0.23803 0.10311 0.8454 0.0
C666 C 0.27495 0.10125 0.0433 0.0
C667 C 0.29917 0.10199 0.01202 0.0
C668 C 0.25893 0.10251 0.90423 0.0
C669 C 0.30255 0.10283 0.92628 0.0
C670 C 0.24235 0.10275 0.76 0.0
C671 C 0.19449 0.105 0.82204 0.0
N672 N 0.28262 0.10307 0.87529 0.0
N673 N 0.21428 0.10421 0.87377 0.0
H674 H 0.09454 0.77205 0.35637 0.0
H675 H 0.10185 0.72617 0.8881 0.0
H676 H 0.10773 0.82109 0.15081 0.0
H677 H 0.10479 0.67684 0.0973 0.0
H678 H 0.10042 0.76128 0.9826 0.0
H679 H 0.09428 0.7371 0.26118 0.0
C680 C 0.09724 0.77549 0.29107 0.0
C681 C 0.10121 0.7995 0.26135 0.0
C682 C 0.10141 0.74279 0.00785 0.0
C683 C 0.10101 0.75956 0.15223 0.0
C684 C 0.10219 0.72272 0.95401 0.0
C685 C 0.10346 0.69856 0.98505 0.0
C686 C 0.10172 0.73866 0.09338 0.0
C687 C 0.10388 0.69518 0.07087 0.0
C688 C 0.09719 0.7555 0.23686 0.0
C689 C 0.10464 0.80286 0.17625 0.0
N690 N 0.10295 0.71504 0.12215 0.0
N691 N 0.10447 0.78308 0.12455 0.0
H692 H 0.67328 0.88623 0.89438 0.0
H693 H 0.82089 0.88827 0.84723 0.0
H694 H 0.72365 0.89348 0.09984 0.0
H695 H 0.77049 0.88982 0.6405 0.0
H696 H 0.7854 0.88888 0.9413 0.0
H697 H 0.70871 0.88638 0.79994 0.0
C698 C 0.69176 0.88792 0.91954 0.0
C699 C 0.69554 0.88984 0.00494 0.0
C700 C 0.78213 0.88912 0.87532 0.0
C701 C 0.73608 0.88991 0.89776 0.0
C702 C 0.80237 0.88873 0.8217 0.0
C703 C 0.79861 0.889 0.73607 0.0
C704 C 0.758 0.88967 0.84289 0.0
C705 C 0.77424 0.88962 0.70618 0.0
C706 C 0.71197 0.888 0.86572 0.0
C707 C 0.71988 0.89196 0.03435 0.0
N708 N 0.75487 0.88989 0.75951 0.0
N709 N 0.73921 0.89188 0.98088 0.0
H710 H 0.88233 0.17229 0.12609 0.0
H711 H 0.87703 0.31915 0.07423 0.0
H712 H 0.89049 0.22385 0.32795 0.0
H713 H 0.88552 0.2691 0.86827 0.0
H714 H 0.87791 0.28392 0.16827 0.0
H715 H 0.8798 0.2072 0.03011 0.0
C716 C 0.88361 0.19093 0.15013 0.0
C717 C 0.8867 0.19521 0.23494 0.0
C718 C 0.87957 0.28064 0.10249 0.0
C719 C 0.88365 0.23506 0.12613 0.0
C720 C 0.87899 0.30074 0.0488 0.0
C721 C 0.8813 0.29702 0.96345 0.0
C722 C 0.88232 0.25666 0.07051 0.0
C723 C 0.88379 0.27277 0.93378 0.0
C724 C 0.88219 0.21081 0.09544 0.0
C725 C 0.8882 0.2197 0.26296 0.0
N726 N 0.88423 0.25348 0.9873 0.0
N727 N 0.88661 0.23869 0.20871 0.0
H728 H 0.17436 0.38683 0.40056 0.0
H729 H 0.32183 0.38463 0.35302 0.0
H730 H 0.22514 0.39219 0.60557 0.0
H731 H 0.27187 0.39146 0.14631 0.0
H732 H 0.28632 0.38505 0.44663 0.0
H733 H 0.20971 0.38628 0.30563 0.0
C734 C 0.19292 0.38791 0.42551 0.0
C735 C 0.19685 0.3896 0.51091 0.0
C736 C 0.28313 0.3865 0.38077 0.0
C737 C 0.23723 0.38887 0.40327 0.0
C738 C 0.30339 0.38623 0.32739 0.0
C739 C 0.29976 0.38807 0.24193 0.0
C740 C 0.2591 0.38849 0.34832 0.0
C741 C 0.27549 0.39007 0.21191 0.0
C742 C 0.21306 0.38762 0.37143 0.0
C743 C 0.22125 0.39093 0.54011 0.0
N744 N 0.25606 0.39019 0.26507 0.0
N745 N 0.2405 0.39048 0.4864 0.0
H746 H 0.39119 0.81853 0.59469 0.0
H747 H 0.39102 0.67137 0.64234 0.0
H748 H 0.39777 0.7685 0.38788 0.0
H749 H 0.3914 0.72248 0.84738 0.0
H750 H 0.39347 0.70649 0.54711 0.0
H751 H 0.39148 0.78321 0.6882 0.0
C752 C 0.39282 0.80011 0.56903 0.0
C753 C 0.3944 0.7964 0.48354 0.0
C754 C 0.39307 0.70995 0.613 0.0
C755 C 0.39457 0.7559 0.5899 0.0
C756 C 0.39162 0.68994 0.66722 0.0
C757 C 0.39094 0.69405 0.7527 0.0
C758 C 0.39373 0.73412 0.64482 0.0
C759 C 0.39184 0.71845 0.78186 0.0
C760 C 0.39297 0.77994 0.62238 0.0
C761 C 0.39649 0.77215 0.45351 0.0
N762 N 0.39313 0.73754 0.72803 0.0
N763 N 0.3964 0.75278 0.50667 0.0
H764 H 0.72124 0.59063 0.14607 0.0
H765 H 0.76638 0.6059 0.61328 0.0
H766 H 0.67195 0.60708 0.34887 0.0
H767 H 0.81626 0.60015 0.40565 0.0
H768 H 0.73138 0.60357 0.51862 0.0
H769 H 0.75602 0.59078 0.2419 0.0
C770 C 0.71771 0.59413 0.21092 0.0
C771 C 0.69368 0.59892 0.23963 0.0
C772 C 0.74997 0.60283 0.4937 0.0
C773 C 0.73344 0.59924 0.3495 0.0
C774 C 0.76997 0.60415 0.54768 0.0
C775 C 0.79425 0.60325 0.51713 0.0
C776 C 0.75427 0.60046 0.40857 0.0
C777 C 0.79782 0.60098 0.43169 0.0
C778 C 0.7376 0.5943 0.26552 0.0
C779 C 0.69019 0.60333 0.32419 0.0
N780 N 0.77801 0.59962 0.3803 0.0
N781 N 0.70989 0.60344 0.37622 0.0
H782 H 0.60746 0.17134 0.61959 0.0
H783 H 0.60615 0.31876 0.66309 0.0
H784 H 0.60043 0.22148 0.41368 0.0
H785 H 0.60586 0.26921 0.87193 0.0
H786 H 0.60489 0.2831 0.57056 0.0
H787 H 0.60756 0.20683 0.7137 0.0
C788 C 0.60589 0.18978 0.59428 0.0
C789 C 0.60397 0.19349 0.50884 0.0
C790 C 0.60506 0.28002 0.63665 0.0
C791 C 0.60417 0.23405 0.61558 0.0
C792 C 0.60581 0.30037 0.68944 0.0
C793 C 0.60612 0.29691 0.7752 0.0
C794 C 0.6047 0.25604 0.66994 0.0
C795 C 0.60564 0.2727 0.80609 0.0
C796 C 0.60594 0.21002 0.6479 0.0
C797 C 0.60195 0.21776 0.47918 0.0
N798 N 0.605 0.25317 0.75346 0.0
N799 N 0.60218 0.2371 0.53244 0.0
loop_
_geom_bond_atom_site_label_1
_geom_bond_atom_site_label_2
_geom_bond_distance
_geom_bond_site_symmetry_2
_ccdc_geom_bond_type
Co0 O1 2.216 . S
Co0 O2 2.079 1_554 S
Co0 O4 2.004 . S
Co0 O10 2.021 . S
Co0 O12 2.137 . S
Co0 O13 2.244 . S
O1 Co0 2.216 . S
O1 C8 1.247 . S
O2 Co0 2.079 1_556 S
O2 C8 1.258 1_556 S
C3 O12 1.247 . S
C3 O13 1.272 . S
O4 Co0 2.004 . S
O4 C9 1.259 . S
Co5 O6 2.061 . S
Co5 O11 2.052 . S
Co5 O13 2.135 . S
O6 Co5 2.061 . S
O6 C9 1.235 . S
C7 O10 1.238 . S
C7 O11 1.241 . S
C8 O1 1.247 . S
C8 O2 1.258 1_554 S
C9 O4 1.259 . S
C9 O6 1.235 . S
O10 Co0 2.021 . S
O10 C7 1.238 . S
O11 Co5 2.052 . S
O11 C7 1.241 . S
O12 Co0 2.137 . S
O12 C3 1.247 . S
O13 Co0 2.244 . S
O13 C3 1.272 . S
O13 Co5 2.135 . S
Co14 O15 2.216 . S
Co14 O16 2.080 1_556 S
Co14 O18 2.004 . S
Co14 O24 2.021 . S
Co14 O26 2.137 . S
Co14 O27 2.244 . S
O15 Co14 2.216 . S
O15 C22 1.247 . S
O16 Co14 2.080 1_554 S
O16 C22 1.258 1_554 S
C17 O26 1.247 . S
C17 O27 1.272 . S
O18 Co14 2.004 . S
O18 C23 1.259 . S
Co19 O20 2.061 . S
Co19 O25 2.052 . S
Co19 O27 2.135 . S
O20 Co19 2.061 . S
O20 C23 1.235 . S
C21 O24 1.238 . S
C21 O25 1.241 . S
C22 O15 1.247 . S
C22 O16 1.258 1_556 S
C23 O18 1.259 . S
C23 O20 1.235 . S
O24 Co14 2.021 . S
O24 C21 1.238 . S
O25 Co19 2.052 . S
O25 C21 1.241 . S
O26 Co14 2.137 . S
O26 C17 1.247 . S
O27 Co14 2.244 . S
O27 C17 1.272 . S
O27 Co19 2.135 . S
Co28 O29 2.216 . S
Co28 O30 2.080 1_554 S
Co28 O32 2.004 . S
Co28 O38 2.021 . S
Co28 O40 2.137 . S
Co28 O41 2.244 . S
O29 Co28 2.216 . S
O29 C36 1.247 . S
O30 Co28 2.080 1_556 S
O30 C36 1.258 1_556 S
C31 O40 1.247 . S
C31 O41 1.272 . S
O32 Co28 2.004 . S
O32 C37 1.259 . S
Co33 O34 2.061 . S
Co33 O39 2.052 . S
Co33 O41 2.135 . S
O34 Co33 2.061 . S
O34 C37 1.235 . S
C35 O38 1.238 . S
C35 O39 1.241 . S
C36 O29 1.247 . S
C36 O30 1.258 1_554 S
C37 O32 1.259 . S
C37 O34 1.235 . S
O38 Co28 2.021 . S
O38 C35 1.238 . S
O39 Co33 2.052 . S
O39 C35 1.241 . S
O40 Co28 2.137 . S
O40 C31 1.247 . S
O41 Co28 2.244 . S
O41 C31 1.272 . S
O41 Co33 2.135 . S
Co42 O43 2.216 . S
Co42 O44 2.078 1_556 S
Co42 O46 2.004 . S
Co42 O52 2.021 . S
Co42 O54 2.137 . S
Co42 O55 2.244 . S
O43 Co42 2.216 . S
O43 C50 1.247 . S
O44 Co42 2.078 1_554 S
O44 C50 1.258 1_554 S
C45 O54 1.247 . S
C45 O55 1.272 . S
O46 Co42 2.004 . S
O46 C51 1.259 . S
Co47 O48 2.061 . S
Co47 O53 2.052 . S
Co47 O55 2.135 . S
O48 Co47 2.061 . S
O48 C51 1.235 . S
C49 O52 1.238 . S
C49 O53 1.241 . S
C50 O43 1.247 . S
C50 O44 1.258 1_556 S
C51 O46 1.259 . S
C51 O48 1.235 . S
O52 Co42 2.021 . S
O52 C49 1.238 . S
O53 Co47 2.052 . S
O53 C49 1.241 . S
O54 Co42 2.137 . S
O54 C45 1.247 . S
O55 Co42 2.244 . S
O55 C45 1.272 . S
O55 Co47 2.135 . S
Co56 O57 2.216 . S
Co56 O58 2.091 . S
Co56 O60 2.004 . S
Co56 O66 2.021 . S
Co56 O68 2.137 . S
Co56 O69 2.244 1_554 S
O57 Co56 2.216 . S
O57 C64 1.247 . S
O58 Co56 2.091 . S
O58 C64 1.261 . S
C59 O68 1.247 . S
C59 O69 1.272 1_554 S
O60 Co56 2.004 . S
O60 C65 1.259 . S
Co61 O62 2.061 1_556 S
Co61 O67 2.052 . S
Co61 O69 2.135 . S
O62 Co61 2.061 1_554 S
O62 C65 1.235 . S
C63 O66 1.238 . S
C63 O67 1.241 1_554 S
C64 O57 1.247 . S
C64 O58 1.261 . S
C65 O60 1.259 . S
C65 O62 1.235 . S
O66 Co56 2.021 . S
O66 C63 1.238 . S
O67 Co61 2.052 . S
O67 C63 1.241 1_556 S
O68 Co56 2.137 . S
O68 C59 1.247 . S
O69 Co56 2.244 1_556 S
O69 C59 1.272 1_556 S
O69 Co61 2.135 . S
Co70 O71 2.216 . S
Co70 O72 2.091 . S
Co70 O74 2.004 . S
Co70 O80 2.021 . S
Co70 O82 2.137 . S
Co70 O83 2.244 1_556 S
O71 Co70 2.216 . S
O71 C78 1.247 . S
O72 Co70 2.091 . S
O72 C78 1.261 . S
C73 O82 1.247 . S
C73 O83 1.272 1_556 S
O74 Co70 2.004 . S
O74 C79 1.259 . S
Co75 O76 2.061 1_554 S
Co75 O81 2.052 . S
Co75 O83 2.135 . S
O76 Co75 2.061 1_556 S
O76 C79 1.235 . S
C77 O80 1.238 . S
C77 O81 1.241 1_556 S
C78 O71 1.247 . S
C78 O72 1.261 . S
C79 O74 1.259 . S
C79 O76 1.235 . S
O80 Co70 2.021 . S
O80 C77 1.238 . S
O81 Co75 2.052 . S
O81 C77 1.241 1_554 S
O82 Co70 2.137 . S
O82 C73 1.247 . S
O83 Co70 2.244 1_554 S
O83 C73 1.272 1_554 S
O83 Co75 2.135 . S
Co84 O85 2.216 . S
Co84 O86 2.091 . S
Co84 O88 2.004 . S
Co84 O94 2.021 . S
Co84 O96 2.137 . S
Co84 O97 2.244 1_554 S
O85 Co84 2.216 . S
O85 C92 1.247 . S
O86 Co84 2.091 . S
O86 C92 1.261 . S
C87 O96 1.247 . S
C87 O97 1.272 1_554 S
O88 Co84 2.004 . S
O88 C93 1.259 . S
Co89 O90 2.061 1_556 S
Co89 O95 2.052 . S
Co89 O97 2.135 . S
O90 Co89 2.061 1_554 S
O90 C93 1.235 . S
C91 O94 1.238 . S
C91 O95 1.241 1_554 S
C92 O85 1.247 . S
C92 O86 1.261 . S
C93 O88 1.259 . S
C93 O90 1.235 . S
O94 Co84 2.021 . S
O94 C91 1.238 . S
O95 Co89 2.052 . S
O95 C91 1.241 1_556 S
O96 Co84 2.137 . S
O96 C87 1.247 . S
O97 Co84 2.244 1_556 S
O97 C87 1.272 1_556 S
O97 Co89 2.135 . S
Co98 O99 2.216 . S
Co98 O100 2.091 . S
Co98 O102 2.004 . S
Co98 O108 2.021 . S
Co98 O110 2.137 . S
Co98 O111 2.244 1_556 S
O99 Co98 2.216 . S
O99 C106 1.247 . S
O100 Co98 2.091 . S
O100 C106 1.261 . S
C101 O110 1.247 . S
C101 O111 1.272 1_556 S
O102 Co98 2.004 . S
O102 C107 1.259 . S
Co103 O104 2.061 1_554 S
Co103 O109 2.052 . S
Co103 O111 2.135 . S
O104 Co103 2.061 1_556 S
O104 C107 1.235 . S
C105 O108 1.238 . S
C105 O109 1.241 1_556 S
C106 O99 1.247 . S
C106 O100 1.261 . S
C107 O102 1.259 . S
C107 O104 1.235 . S
O108 Co98 2.021 . S
O108 C105 1.238 . S
O109 Co103 2.052 . S
O109 C105 1.241 1_554 S
O110 Co98 2.137 . S
O110 C101 1.247 . S
O111 Co98 2.244 1_554 S
O111 C101 1.272 1_554 S
O111 Co103 2.135 . S
Co112 O113 2.216 . S
Co112 O114 2.091 . S
Co112 O116 2.004 . S
Co112 O122 2.021 . S
Co112 O124 2.137 . S
Co112 O125 2.244 . S
O113 Co112 2.216 . S
O113 C120 1.247 . S
O114 Co112 2.091 . S
O114 C120 1.261 . S
C115 O124 1.247 . S
C115 O125 1.272 . S
O116 Co112 2.004 . S
O116 C121 1.259 . S
Co117 O118 2.061 . S
Co117 O123 2.052 . S
Co117 O125 2.135 . S
O118 Co117 2.061 . S
O118 C121 1.235 . S
C119 O122 1.238 . S
C119 O123 1.241 . S
C120 O113 1.247 . S
C120 O114 1.261 . S
C121 O116 1.259 . S
C121 O118 1.235 . S
O122 Co112 2.021 . S
O122 C119 1.238 . S
O123 Co117 2.052 . S
O123 C119 1.241 . S
O124 Co112 2.137 . S
O124 C115 1.247 . S
O125 Co112 2.244 . S
O125 C115 1.272 . S
O125 Co117 2.135 . S
Co126 O127 2.216 . S
Co126 O128 2.091 . S
Co126 O130 2.004 . S
Co126 O136 2.021 . S
Co126 O138 2.137 . S
Co126 O139 2.244 . S
O127 Co126 2.216 . S
O127 C134 1.247 . S
O128 Co126 2.091 . S
O128 C134 1.261 . S
C129 O138 1.247 . S
C129 O139 1.272 . S
O130 Co126 2.004 . S
O130 C135 1.259 . S
Co131 O132 2.061 . S
Co131 O137 2.052 . S
Co131 O139 2.135 . S
O132 Co131 2.061 . S
O132 C135 1.235 . S
C133 O136 1.238 . S
C133 O137 1.241 . S
C134 O127 1.247 . S
C134 O128 1.261 . S
C135 O130 1.259 . S
C135 O132 1.235 . S
O136 Co126 2.021 . S
O136 C133 1.238 . S
O137 Co131 2.052 . S
O137 C133 1.241 . S
O138 Co126 2.137 . S
O138 C129 1.247 . S
O139 Co126 2.244 . S
O139 C129 1.272 . S
O139 Co131 2.135 . S
Co140 O141 2.216 . S
Co140 O142 2.091 . S
Co140 O144 2.004 . S
Co140 O150 2.021 . S
Co140 O152 2.137 . S
Co140 O153 2.244 . S
O141 Co140 2.216 . S
O141 C148 1.247 . S
O142 Co140 2.091 . S
O142 C148 1.261 . S
C143 O152 1.247 . S
C143 O153 1.272 . S
O144 Co140 2.004 . S
O144 C149 1.259 . S
Co145 O146 2.061 . S
Co145 O151 2.052 . S
Co145 O153 2.135 . S
O146 Co145 2.061 . S
O146 C149 1.235 . S
C147 O150 1.238 . S
C147 O151 1.241 . S
C148 O141 1.247 . S
C148 O142 1.261 . S
C149 O144 1.259 . S
C149 O146 1.235 . S
O150 Co140 2.021 . S
O150 C147 1.238 . S
O151 Co145 2.052 . S
O151 C147 1.241 . S
O152 Co140 2.137 . S
O152 C143 1.247 . S
O153 Co140 2.244 . S
O153 C143 1.272 . S
O153 Co145 2.135 . S
Co154 O155 2.216 . S
Co154 O156 2.091 . S
Co154 O158 2.004 . S
Co154 O164 2.021 . S
Co154 O166 2.137 . S
Co154 O167 2.244 . S
O155 Co154 2.216 . S
O155 C162 1.247 . S
O156 Co154 2.091 . S
O156 C162 1.261 . S
C157 O166 1.247 . S
C157 O167 1.272 . S
O158 Co154 2.004 . S
O158 C163 1.259 . S
Co159 O160 2.061 . S
Co159 O165 2.052 . S
Co159 O167 2.135 . S
O160 Co159 2.061 . S
O160 C163 1.235 . S
C161 O164 1.238 . S
C161 O165 1.241 . S
C162 O155 1.247 . S
C162 O156 1.261 . S
C163 O158 1.259 . S
C163 O160 1.235 . S
O164 Co154 2.021 . S
O164 C161 1.238 . S
O165 Co159 2.052 . S
O165 C161 1.241 . S
O166 Co154 2.137 . S
O166 C157 1.247 . S
O167 Co154 2.244 . S
O167 C157 1.272 . S
O167 Co159 2.135 . S
Co168 O169 2.216 . S
Co168 O170 2.091 . S
Co168 O172 2.004 . S
Co168 O178 2.021 . S
Co168 O180 2.137 . S
Co168 O181 2.244 . S
O169 Co168 2.216 . S
O169 C176 1.247 . S
O170 Co168 2.091 . S
O170 C176 1.261 . S
C171 O180 1.247 . S
C171 O181 1.272 . S
O172 Co168 2.004 . S
O172 C177 1.259 . S
Co173 O174 2.061 . S
Co173 O179 2.052 . S
Co173 O181 2.135 . S
O174 Co173 2.061 . S
O174 C177 1.235 . S
C175 O178 1.238 . S
C175 O179 1.241 . S
C176 O169 1.247 . S
C176 O170 1.261 . S
C177 O172 1.259 . S
C177 O174 1.235 . S
O178 Co168 2.021 . S
O178 C175 1.238 . S
O179 Co173 2.052 . S
O179 C175 1.241 . S
O180 Co168 2.137 . S
O180 C171 1.247 . S
O181 Co168 2.244 . S
O181 C171 1.272 . S
O181 Co173 2.135 . S
Co182 O183 2.216 . S
Co182 O184 2.091 . S
Co182 O186 2.004 . S
Co182 O192 2.021 . S
Co182 O194 2.137 . S
Co182 O195 2.244 . S
O183 Co182 2.216 . S
O183 C190 1.247 . S
O184 Co182 2.091 . S
O184 C190 1.261 . S
C185 O194 1.247 . S
C185 O195 1.272 . S
O186 Co182 2.004 . S
O186 C191 1.259 . S
Co187 O188 2.061 . S
Co187 O193 2.052 . S
Co187 O195 2.135 . S
O188 Co187 2.061 . S
O188 C191 1.235 . S
C189 O192 1.238 . S
C189 O193 1.241 . S
C190 O183 1.247 . S
C190 O184 1.261 . S
C191 O186 1.259 . S
C191 O188 1.235 . S
O192 Co182 2.021 . S
O192 C189 1.238 . S
O193 Co187 2.052 . S
O193 C189 1.241 . S
O194 Co182 2.137 . S
O194 C185 1.247 . S
O195 Co182 2.244 . S
O195 C185 1.272 . S
O195 Co187 2.135 . S
Co196 O197 2.216 . S
Co196 O198 2.091 . S
Co196 O200 2.004 . S
Co196 O206 2.021 . S
Co196 O208 2.137 . S
Co196 O209 2.244 . S
O197 Co196 2.216 . S
O197 C204 1.247 . S
O198 Co196 2.091 . S
O198 C204 1.261 . S
C199 O208 1.247 . S
C199 O209 1.272 . S
O200 Co196 2.004 . S
O200 C205 1.259 . S
Co201 O202 2.061 . S
Co201 O207 2.052 . S
Co201 O209 2.135 . S
O202 Co201 2.061 . S
O202 C205 1.235 . S
C203 O206 1.238 . S
C203 O207 1.241 . S
C204 O197 1.247 . S
C204 O198 1.261 . S
C205 O200 1.259 . S
C205 O202 1.235 . S
O206 Co196 2.021 . S
O206 C203 1.238 . S
O207 Co201 2.052 . S
O207 C203 1.241 . S
O208 Co196 2.137 . S
O208 C199 1.247 . S
O209 Co196 2.244 . S
O209 C199 1.272 . S
O209 Co201 2.135 . S
Co210 O211 2.216 . S
Co210 O212 2.091 . S
Co210 O214 2.004 . S
Co210 O220 2.021 . S
Co210 O222 2.137 . S
Co210 O223 2.244 . S
O211 Co210 2.216 . S
O211 C218 1.247 . S
O212 Co210 2.091 . S
O212 C218 1.261 . S
C213 O222 1.247 . S
C213 O223 1.272 . S
O214 Co210 2.004 . S
O214 C219 1.259 . S
Co215 O216 2.061 . S
Co215 O221 2.052 . S
Co215 O223 2.135 . S
O216 Co215 2.061 . S
O216 C219 1.235 . S
C217 O220 1.238 . S
C217 O221 1.241 . S
C218 O211 1.247 . S
C218 O212 1.261 . S
C219 O214 1.259 . S
C219 O216 1.235 . S
O220 Co210 2.021 . S
O220 C217 1.238 . S
O221 Co215 2.052 . S
O221 C217 1.241 . S
O222 Co210 2.137 . S
O222 C213 1.247 . S
O223 Co210 2.244 . S
O223 C213 1.272 . S
O223 Co215 2.135 . S
H224 C230 0.930 . S
H225 C234 0.930 . S
H226 C239 0.929 . S
H227 C237 0.929 . S
H228 C232 0.929 . S
H229 C238 0.929 . S
C230 H224 0.930 . S
C230 C231 1.367 . S
C230 C238 1.378 . S
C231 C230 1.367 . S
C231 C239 1.433 . S
C232 H228 0.929 . S
C232 C234 1.378 . S
C232 C236 1.350 . S
C233 C236 1.463 1_565 S
C233 C238 1.350 . S
C233 N241 1.427 . S
C234 H225 0.930 . S
C234 C232 1.378 . S
C234 C235 1.367 . S
C235 C234 1.367 . S
C235 C237 1.433 . S
C236 C232 1.350 . S
C236 C233 1.463 1_545 S
C236 N240 1.427 . S
C237 H227 0.929 . S
C237 C235 1.433 . S
C237 N240 1.384 . S
C238 H229 0.929 . S
C238 C230 1.378 . S
C238 C233 1.350 . S
C239 H226 0.929 . S
C239 C231 1.433 . S
C239 N241 1.384 . S
N240 C236 1.427 . S
N240 C237 1.384 . S
N241 C233 1.427 . S
N241 C239 1.384 . S
H242 C248 0.930 . S
H243 C252 0.930 . S
H244 C257 0.929 . S
H245 C255 0.929 . S
H246 C250 0.929 . S
H247 C256 0.929 . S
C248 H242 0.930 . S
C248 C249 1.367 . S
C248 C256 1.378 . S
C249 C248 1.367 . S
C249 C257 1.433 . S
C250 H246 0.929 . S
C250 C252 1.378 . S
C250 C254 1.350 . S
C251 C254 1.463 1_455 S
C251 C256 1.350 . S
C251 N259 1.427 . S
C252 H243 0.930 . S
C252 C250 1.378 . S
C252 C253 1.367 . S
C253 C252 1.367 . S
C253 C255 1.433 . S
C254 C250 1.350 . S
C254 C251 1.463 1_655 S
C254 N258 1.427 . S
C255 H245 0.929 . S
C255 C253 1.433 . S
C255 N258 1.384 . S
C256 H247 0.929 . S
C256 C248 1.378 . S
C256 C251 1.350 . S
C257 H244 0.929 . S
C257 C249 1.433 . S
C257 N259 1.384 . S
N258 C254 1.427 . S
N258 C255 1.384 . S
N259 C251 1.427 . S
N259 C257 1.384 . S
H260 C266 0.930 . S
H261 C270 0.930 . S
H262 C275 0.929 . S
H263 C273 0.929 . S
H264 C268 0.929 . S
H265 C274 0.929 . S
C266 H260 0.930 . S
C266 C267 1.367 . S
C266 C274 1.378 . S
C267 C266 1.367 . S
C267 C275 1.433 . S
C268 H264 0.929 . S
C268 C270 1.378 . S
C268 C272 1.350 . S
C269 C272 1.463 1_565 S
C269 C274 1.350 . S
C269 N277 1.427 . S
C270 H261 0.930 . S
C270 C268 1.378 . S
C270 C271 1.367 . S
C271 C270 1.367 . S
C271 C273 1.433 . S
C272 C268 1.350 . S
C272 C269 1.463 1_545 S
C272 N276 1.427 . S
C273 H263 0.929 . S
C273 C271 1.433 . S
C273 N276 1.384 . S
C274 H265 0.929 . S
C274 C266 1.378 . S
C274 C269 1.350 . S
C275 H262 0.929 . S
C275 C267 1.433 . S
C275 N277 1.384 . S
N276 C272 1.427 . S
N276 C273 1.384 . S
N277 C269 1.427 . S
N277 C275 1.384 . S
H278 C284 0.930 . S
H279 C288 0.930 . S
H280 C293 0.929 . S
H281 C291 0.929 . S
H282 C286 0.929 . S
H283 C292 0.929 . S
C284 H278 0.930 . S
C284 C285 1.367 . S
C284 C292 1.378 . S
C285 C284 1.367 . S
C285 C293 1.433 . S
C286 H282 0.929 . S
C286 C288 1.378 . S
C286 C290 1.350 . S
C287 C290 1.463 1_455 S
C287 C292 1.350 . S
C287 N295 1.427 . S
C288 H279 0.930 . S
C288 C286 1.378 . S
C288 C289 1.367 . S
C289 C288 1.367 . S
C289 C291 1.433 . S
C290 C286 1.350 . S
C290 C287 1.463 1_655 S
C290 N294 1.427 . S
C291 H281 0.929 . S
C291 C289 1.433 . S
C291 N294 1.384 . S
C292 H283 0.929 . S
C292 C284 1.378 . S
C292 C287 1.350 . S
C293 H280 0.929 . S
C293 C285 1.433 . S
C293 N295 1.384 . S
N294 C290 1.427 . S
N294 C291 1.384 . S
N295 C287 1.427 . S
N295 C293 1.384 . S
H296 C302 0.930 . S
H297 C306 0.930 . S
H298 C311 0.929 . S
H299 C309 0.929 . S
H300 C304 0.929 . S
H301 C310 0.929 . S
C302 H296 0.930 . S
C302 C303 1.367 1_554 S
C302 C310 1.378 . S
C303 C302 1.367 1_556 S
C303 C311 1.433 . S
C304 H300 0.929 . S
C304 C306 1.378 . S
C304 C308 1.350 . S
C305 C308 1.463 . S
C305 C310 1.350 1_556 S
C305 N313 1.427 . S
C306 H297 0.930 . S
C306 C304 1.378 . S
C306 C307 1.367 . S
C307 C306 1.367 . S
C307 C309 1.433 . S
C308 C304 1.350 . S
C308 C305 1.463 . S
C308 N312 1.427 . S
C309 H299 0.929 . S
C309 C307 1.433 . S
C309 N312 1.384 . S
C310 H301 0.929 . S
C310 C302 1.378 . S
C310 C305 1.350 1_554 S
C311 H298 0.929 . S
C311 C303 1.433 . S
C311 N313 1.384 . S
N312 C308 1.427 . S
N312 C309 1.384 . S
N313 C305 1.427 . S
N313 C311 1.384 . S
H314 C320 0.930 . S
H315 C324 0.930 . S
H316 C329 0.929 . S
H317 C327 0.929 . S
H318 C322 0.929 1_556 S
H319 C328 0.929 . S
C320 H314 0.930 . S
C320 C321 1.367 . S
C320 C328 1.378 . S
C321 C320 1.367 . S
C321 C329 1.433 1_554 S
C322 H318 0.929 1_554 S
C322 C324 1.378 . S
C322 C326 1.350 . S
C323 C326 1.463 . S
C323 C328 1.350 . S
C323 N331 1.427 1_554 S
C324 H315 0.930 . S
C324 C322 1.378 . S
C324 C325 1.367 . S
C325 C324 1.367 . S
C325 C327 1.433 . S
C326 C322 1.350 . S
C326 C323 1.463 . S
C326 N330 1.427 . S
C327 H317 0.929 . S
C327 C325 1.433 . S
C327 N330 1.384 . S
C328 H319 0.929 . S
C328 C320 1.378 . S
C328 C323 1.350 . S
C329 H316 0.929 . S
C329 C321 1.433 1_556 S
C329 N331 1.384 . S
N330 C326 1.427 . S
N330 C327 1.384 . S
N331 C323 1.427 1_556 S
N331 C329 1.384 . S
H332 C338 0.930 . S
H333 C342 0.930 . S
H334 C347 0.929 . S
H335 C345 0.929 . S
H336 C340 0.929 . S
H337 C346 0.929 . S
C338 H332 0.930 . S
C338 C339 1.367 . S
C338 C346 1.378 . S
C339 C338 1.367 . S
C339 C347 1.433 . S
C340 H336 0.929 . S
C340 C342 1.378 . S
C340 C344 1.350 1_554 S
C341 C344 1.463 . S
C341 C346 1.350 . S
C341 N349 1.427 . S
C342 H333 0.930 . S
C342 C340 1.378 . S
C342 C343 1.367 1_554 S
C343 C342 1.367 1_556 S
C343 C345 1.433 . S
C344 C340 1.350 1_556 S
C344 C341 1.463 . S
C344 N348 1.427 . S
C345 H335 0.929 . S
C345 C343 1.433 . S
C345 N348 1.384 . S
C346 H337 0.929 . S
C346 C338 1.378 . S
C346 C341 1.350 . S
C347 H334 0.929 . S
C347 C339 1.433 . S
C347 N349 1.384 . S
N348 C344 1.427 . S
N348 C345 1.384 . S
N349 C341 1.427 . S
N349 C347 1.384 . S
H350 C356 0.930 . S
H351 C360 0.930 . S
H352 C365 0.929 . S
H353 C363 0.929 . S
H354 C358 0.929 . S
H355 C364 0.929 . S
C356 H350 0.930 . S
C356 C357 1.367 . S
C356 C364 1.378 . S
C357 C356 1.367 . S
C357 C365 1.433 . S
C358 H354 0.929 . S
C358 C360 1.378 . S
C358 C362 1.350 . S
C359 C362 1.463 . S
C359 C364 1.350 . S
C359 N367 1.427 . S
C360 H351 0.930 . S
C360 C358 1.378 . S
C360 C361 1.367 . S
C361 C360 1.367 . S
C361 C363 1.433 . S
C362 C358 1.350 . S
C362 C359 1.463 . S
C362 N366 1.427 . S
C363 H353 0.929 . S
C363 C361 1.433 . S
C363 N366 1.384 . S
C364 H355 0.929 . S
C364 C356 1.378 . S
C364 C359 1.350 . S
C365 H352 0.929 . S
C365 C357 1.433 . S
C365 N367 1.384 . S
N366 C362 1.427 . S
N366 C363 1.384 . S
N367 C359 1.427 . S
N367 C365 1.384 . S
H368 C374 0.930 . S
H369 C378 0.930 . S
H370 C383 0.929 . S
H371 C381 0.929 . S
H372 C376 0.929 . S
H373 C382 0.929 . S
C374 H368 0.930 . S
C374 C375 1.367 . S
C374 C382 1.378 . S
C375 C374 1.367 . S
C375 C383 1.433 . S
C376 H372 0.929 . S
C376 C378 1.378 . S
C376 C380 1.350 . S
C377 C380 1.463 . S
C377 C382 1.350 . S
C377 N385 1.427 . S
C378 H369 0.930 . S
C378 C376 1.378 . S
C378 C379 1.367 . S
C379 C378 1.367 . S
C379 C381 1.433 . S
C380 C376 1.350 . S
C380 C377 1.463 . S
C380 N384 1.427 . S
C381 H371 0.929 . S
C381 C379 1.433 . S
C381 N384 1.384 . S
C382 H373 0.929 . S
C382 C374 1.378 . S
C382 C377 1.350 . S
C383 H370 0.929 . S
C383 C375 1.433 . S
C383 N385 1.384 . S
N384 C380 1.427 . S
N384 C381 1.384 . S
N385 C377 1.427 . S
N385 C383 1.384 . S
H386 C392 0.930 . S
H387 C396 0.930 . S
H388 C401 0.929 . S
H389 C399 0.929 . S
H390 C394 0.929 . S
H391 C400 0.929 . S
C392 H386 0.930 . S
C392 C393 1.367 . S
C392 C400 1.378 . S
C393 C392 1.367 . S
C393 C401 1.433 . S
C394 H390 0.929 . S
C394 C396 1.378 . S
C394 C398 1.350 . S
C395 C398 1.463 . S
C395 C400 1.350 . S
C395 N403 1.427 . S
C396 H387 0.930 . S
C396 C394 1.378 . S
C396 C397 1.367 . S
C397 C396 1.367 . S
C397 C399 1.433 . S
C398 C394 1.350 . S
C398 C395 1.463 . S
C398 N402 1.427 . S
C399 H389 0.929 . S
C399 C397 1.433 . S
C399 N402 1.384 . S
C400 H391 0.929 . S
C400 C392 1.378 . S
C400 C395 1.350 . S
C401 H388 0.929 . S
C401 C393 1.433 . S
C401 N403 1.384 . S
N402 C398 1.427 . S
N402 C399 1.384 . S
N403 C395 1.427 . S
N403 C401 1.384 . S
H404 C410 0.930 . S
H405 C414 0.930 . S
H406 C419 0.929 . S
H407 C417 0.929 . S
H408 C412 0.929 . S
H409 C418 0.929 . S
C410 H404 0.930 . S
C410 C411 1.367 . S
C410 C418 1.378 . S
C411 C410 1.367 . S
C411 C419 1.433 . S
C412 H408 0.929 . S
C412 C414 1.378 . S
C412 C416 1.350 . S
C413 C416 1.463 . S
C413 C418 1.350 . S
C413 N421 1.427 . S
C414 H405 0.930 . S
C414 C412 1.378 . S
C414 C415 1.367 . S
C415 C414 1.367 . S
C415 C417 1.433 . S
C416 C412 1.350 . S
C416 C413 1.463 . S
C416 N420 1.427 . S
C417 H407 0.929 . S
C417 C415 1.433 . S
C417 N420 1.384 . S
C418 H409 0.929 . S
C418 C410 1.378 . S
C418 C413 1.350 . S
C419 H406 0.929 . S
C419 C411 1.433 . S
C419 N421 1.384 . S
N420 C416 1.427 . S
N420 C417 1.384 . S
N421 C413 1.427 . S
N421 C419 1.384 . S
H422 C428 0.930 . S
H423 C432 0.930 . S
H424 C437 0.929 . S
H425 C435 0.929 . S
H426 C430 0.929 . S
H427 C436 0.929 . S
C428 H422 0.930 . S
C428 C429 1.367 . S
C428 C436 1.378 . S
C429 C428 1.367 . S
C429 C437 1.433 . S
C430 H426 0.929 . S
C430 C432 1.378 . S
C430 C434 1.350 . S
C431 C434 1.463 . S
C431 C436 1.350 . S
C431 N439 1.427 . S
C432 H423 0.930 . S
C432 C430 1.378 . S
C432 C433 1.367 . S
C433 C432 1.367 . S
C433 C435 1.433 . S
C434 C430 1.350 . S
C434 C431 1.463 . S
C434 N438 1.427 . S
C435 H425 0.929 . S
C435 C433 1.433 . S
C435 N438 1.384 . S
C436 H427 0.929 . S
C436 C428 1.378 . S
C436 C431 1.350 . S
C437 H424 0.929 . S
C437 C429 1.433 . S
C437 N439 1.384 . S
N438 C434 1.427 . S
N438 C435 1.384 . S
N439 C431 1.427 . S
N439 C437 1.384 . S
H440 C446 0.930 . S
H441 C450 0.930 . S
H442 C455 0.929 . S
H443 C453 0.929 . S
H444 C448 0.929 . S
H445 C454 0.929 . S
C446 H440 0.930 . S
C446 C447 1.367 . S
C446 C454 1.378 . S
C447 C446 1.367 . S
C447 C455 1.433 . S
C448 H444 0.929 . S
C448 C450 1.378 . S
C448 C452 1.350 . S
C449 C452 1.463 1_565 S
C449 C454 1.350 . S
C449 N457 1.427 . S
C450 H441 0.930 . S
C450 C448 1.378 . S
C450 C451 1.367 . S
C451 C450 1.367 . S
C451 C453 1.433 . S
C452 C448 1.350 . S
C452 C449 1.463 1_545 S
C452 N456 1.427 . S
C453 H443 0.929 . S
C453 C451 1.433 . S
C453 N456 1.384 . S
C454 H445 0.929 . S
C454 C446 1.378 . S
C454 C449 1.350 . S
C455 H442 0.929 . S
C455 C447 1.433 . S
C455 N457 1.384 . S
N456 C452 1.427 . S
N456 C453 1.384 . S
N457 C449 1.427 . S
N457 C455 1.384 . S
H458 C464 0.930 . S
H459 C468 0.930 . S
H460 C473 0.929 . S
H461 C471 0.929 . S
H462 C466 0.929 . S
H463 C472 0.929 . S
C464 H458 0.930 . S
C464 C465 1.367 . S
C464 C472 1.378 . S
C465 C464 1.367 . S
C465 C473 1.433 . S
C466 H462 0.929 . S
C466 C468 1.378 . S
C466 C470 1.350 . S
C467 C470 1.463 1_655 S
C467 C472 1.350 . S
C467 N475 1.427 . S
C468 H459 0.930 . S
C468 C466 1.378 . S
C468 C469 1.367 . S
C469 C468 1.367 . S
C469 C471 1.433 . S
C470 C466 1.350 . S
C470 C467 1.463 1_455 S
C470 N474 1.427 . S
C471 H461 0.929 . S
C471 C469 1.433 . S
C471 N474 1.384 . S
C472 H463 0.929 . S
C472 C464 1.378 . S
C472 C467 1.350 . S
C473 H460 0.929 . S
C473 C465 1.433 . S
C473 N475 1.384 . S
N474 C470 1.427 . S
N474 C471 1.384 . S
N475 C467 1.427 . S
N475 C473 1.384 . S
H476 C482 0.930 . S
H477 C486 0.930 . S
H478 C491 0.929 . S
H479 C489 0.929 . S
H480 C484 0.929 . S
H481 C490 0.929 . S
C482 H476 0.930 . S
C482 C483 1.367 . S
C482 C490 1.378 . S
C483 C482 1.367 . S
C483 C491 1.433 . S
C484 H480 0.929 . S
C484 C486 1.378 . S
C484 C488 1.350 . S
C485 C488 1.463 1_565 S
C485 C490 1.350 . S
C485 N493 1.427 . S
C486 H477 0.930 . S
C486 C484 1.378 . S
C486 C487 1.367 . S
C487 C486 1.367 . S
C487 C489 1.433 . S
C488 C484 1.350 . S
C488 C485 1.463 1_545 S
C488 N492 1.427 . S
C489 H479 0.929 . S
C489 C487 1.433 . S
C489 N492 1.384 . S
C490 H481 0.929 . S
C490 C482 1.378 . S
C490 C485 1.350 . S
C491 H478 0.929 . S
C491 C483 1.433 . S
C491 N493 1.384 . S
N492 C488 1.427 . S
N492 C489 1.384 . S
N493 C485 1.427 . S
N493 C491 1.384 . S
H494 C500 0.930 . S
H495 C504 0.930 . S
H496 C509 0.929 . S
H497 C507 0.929 . S
H498 C502 0.929 . S
H499 C508 0.929 . S
C500 H494 0.930 . S
C500 C501 1.367 . S
C500 C508 1.378 . S
C501 C500 1.367 . S
C501 C509 1.433 . S
C502 H498 0.929 . S
C502 C504 1.378 . S
C502 C506 1.350 . S
C503 C506 1.463 1_655 S
C503 C508 1.350 . S
C503 N511 1.427 . S
C504 H495 0.930 . S
C504 C502 1.378 . S
C504 C505 1.367 . S
C505 C504 1.367 . S
C505 C507 1.433 . S
C506 C502 1.350 . S
C506 C503 1.463 1_455 S
C506 N510 1.427 . S
C507 H497 0.929 . S
C507 C505 1.433 . S
C507 N510 1.384 . S
C508 H499 0.929 . S
C508 C500 1.378 . S
C508 C503 1.350 . S
C509 H496 0.929 . S
C509 C501 1.433 . S
C509 N511 1.384 . S
N510 C506 1.427 . S
N510 C507 1.384 . S
N511 C503 1.427 . S
N511 C509 1.384 . S
H512 C518 0.930 . S
H513 C522 0.930 . S
H514 C527 0.929 1_556 S
H515 C525 0.929 . S
H516 C520 0.929 . S
H517 C526 0.929 . S
C518 H512 0.930 . S
C518 C519 1.367 . S
C518 C526 1.378 . S
C519 C518 1.367 . S
C519 C527 1.433 . S
C520 H516 0.929 . S
C520 C522 1.378 . S
C520 C524 1.350 . S
C521 C524 1.463 . S
C521 C526 1.350 . S
C521 N529 1.427 . S
C522 H513 0.930 . S
C522 C520 1.378 . S
C522 C523 1.367 . S
C523 C522 1.367 . S
C523 C525 1.433 . S
C524 C520 1.350 . S
C524 C521 1.463 . S
C524 N528 1.427 . S
C525 H515 0.929 . S
C525 C523 1.433 . S
C525 N528 1.384 . S
C526 H517 0.929 . S
C526 C518 1.378 . S
C526 C521 1.350 . S
C527 H514 0.929 1_554 S
C527 C519 1.433 . S
C527 N529 1.384 . S
N528 C524 1.427 . S
N528 C525 1.384 . S
N529 C521 1.427 . S
N529 C527 1.384 . S
H530 C536 0.930 . S
H531 C540 0.930 1_554 S
H532 C545 0.929 . S
H533 C543 0.929 . S
H534 C538 0.929 1_554 S
H535 C544 0.929 . S
C536 H530 0.930 . S
C536 C537 1.367 . S
C536 C544 1.378 . S
C537 C536 1.367 . S
C537 C545 1.433 . S
C538 H534 0.929 1_556 S
C538 C540 1.378 . S
C538 C542 1.350 . S
C539 C542 1.463 . S
C539 C544 1.350 . S
C539 N547 1.427 . S
C540 H531 0.930 1_556 S
C540 C538 1.378 . S
C540 C541 1.367 . S
C541 C540 1.367 . S
C541 C543 1.433 . S
C542 C538 1.350 . S
C542 C539 1.463 . S
C542 N546 1.427 . S
C543 H533 0.929 . S
C543 C541 1.433 . S
C543 N546 1.384 . S
C544 H535 0.929 . S
C544 C536 1.378 . S
C544 C539 1.350 . S
C545 H532 0.929 . S
C545 C537 1.433 . S
C545 N547 1.384 . S
N546 C542 1.427 . S
N546 C543 1.384 . S
N547 C539 1.427 . S
N547 C545 1.384 . S
H548 C554 0.930 . S
H549 C558 0.930 . S
H550 C563 0.929 . S
H551 C561 0.929 1_556 S
H552 C556 0.929 . S
H553 C562 0.929 . S
C554 H548 0.930 . S
C554 C555 1.367 . S
C554 C562 1.378 . S
C555 C554 1.367 . S
C555 C563 1.433 . S
C556 H552 0.929 . S
C556 C558 1.378 . S
C556 C560 1.350 . S
C557 C560 1.463 . S
C557 C562 1.350 . S
C557 N565 1.427 . S
C558 H549 0.930 . S
C558 C556 1.378 . S
C558 C559 1.367 . S
C559 C558 1.367 . S
C559 C561 1.433 . S
C560 C556 1.350 . S
C560 C557 1.463 . S
C560 N564 1.427 . S
C561 H551 0.929 1_554 S
C561 C559 1.433 . S
C561 N564 1.384 . S
C562 H553 0.929 . S
C562 C554 1.378 . S
C562 C557 1.350 . S
C563 H550 0.929 . S
C563 C555 1.433 . S
C563 N565 1.384 . S
N564 C560 1.427 . S
N564 C561 1.384 . S
N565 C557 1.427 . S
N565 C563 1.384 . S
H566 C572 0.930 . S
H567 C576 0.930 . S
H568 C581 0.929 1_554 S
H569 C579 0.929 . S
H570 C574 0.929 . S
H571 C580 0.929 . S
C572 H566 0.930 . S
C572 C573 1.367 . S
C572 C580 1.378 . S
C573 C572 1.367 . S
C573 C581 1.433 . S
C574 H570 0.929 . S
C574 C576 1.378 . S
C574 C578 1.350 . S
C575 C578 1.463 . S
C575 C580 1.350 . S
C575 N583 1.427 . S
C576 H567 0.930 . S
C576 C574 1.378 . S
C576 C577 1.367 . S
C577 C576 1.367 . S
C577 C579 1.433 . S
C578 C574 1.350 . S
C578 C575 1.463 . S
C578 N582 1.427 . S
C579 H569 0.929 . S
C579 C577 1.433 . S
C579 N582 1.384 . S
C580 H571 0.929 . S
C580 C572 1.378 . S
C580 C575 1.350 . S
C581 H568 0.929 1_556 S
C581 C573 1.433 . S
C581 N583 1.384 . S
N582 C578 1.427 . S
N582 C579 1.384 . S
N583 C575 1.427 . S
N583 C581 1.384 . S
H584 C590 0.930 . S
H585 C594 0.930 . S
H586 C599 0.929 . S
H587 C597 0.929 . S
H588 C592 0.929 . S
H589 C598 0.929 . S
C590 H584 0.930 . S
C590 C591 1.367 . S
C590 C598 1.378 . S
C591 C590 1.367 . S
C591 C599 1.433 . S
C592 H588 0.929 . S
C592 C594 1.378 . S
C592 C596 1.350 . S
C593 C596 1.463 . S
C593 C598 1.350 . S
C593 N601 1.427 . S
C594 H585 0.930 . S
C594 C592 1.378 . S
C594 C595 1.367 . S
C595 C594 1.367 . S
C595 C597 1.433 . S
C596 C592 1.350 . S
C596 C593 1.463 . S
C596 N600 1.427 . S
C597 H587 0.929 . S
C597 C595 1.433 . S
C597 N600 1.384 . S
C598 H589 0.929 . S
C598 C590 1.378 . S
C598 C593 1.350 . S
C599 H586 0.929 . S
C599 C591 1.433 . S
C599 N601 1.384 . S
N600 C596 1.427 . S
N600 C597 1.384 . S
N601 C593 1.427 . S
N601 C599 1.384 . S
H602 C608 0.930 . S
H603 C612 0.930 . S
H604 C617 0.929 . S
H605 C615 0.929 . S
H606 C610 0.929 . S
H607 C616 0.929 . S
C608 H602 0.930 . S
C608 C609 1.367 . S
C608 C616 1.378 . S
C609 C608 1.367 . S
C609 C617 1.433 . S
C610 H606 0.929 . S
C610 C612 1.378 . S
C610 C614 1.350 . S
C611 C614 1.463 . S
C611 C616 1.350 . S
C611 N619 1.427 . S
C612 H603 0.930 . S
C612 C610 1.378 . S
C612 C613 1.367 . S
C613 C612 1.367 . S
C613 C615 1.433 . S
C614 C610 1.350 . S
C614 C611 1.463 . S
C614 N618 1.427 . S
C615 H605 0.929 . S
C615 C613 1.433 . S
C615 N618 1.384 . S
C616 H607 0.929 . S
C616 C608 1.378 . S
C616 C611 1.350 . S
C617 H604 0.929 . S
C617 C609 1.433 . S
C617 N619 1.384 . S
N618 C614 1.427 . S
N618 C615 1.384 . S
N619 C611 1.427 . S
N619 C617 1.384 . S
H620 C626 0.930 . S
H621 C630 0.930 . S
H622 C635 0.929 . S
H623 C633 0.929 . S
H624 C628 0.929 . S
H625 C634 0.929 . S
C626 H620 0.930 . S
C626 C627 1.367 . S
C626 C634 1.378 . S
C627 C626 1.367 . S
C627 C635 1.433 . S
C628 H624 0.929 . S
C628 C630 1.378 . S
C628 C632 1.350 . S
C629 C632 1.463 . S
C629 C634 1.350 . S
C629 N637 1.427 . S
C630 H621 0.930 . S
C630 C628 1.378 . S
C630 C631 1.367 . S
C631 C630 1.367 . S
C631 C633 1.433 . S
C632 C628 1.350 . S
C632 C629 1.463 . S
C632 N636 1.427 . S
C633 H623 0.929 . S
C633 C631 1.433 . S
C633 N636 1.384 . S
C634 H625 0.929 . S
C634 C626 1.378 . S
C634 C629 1.350 . S
C635 H622 0.929 . S
C635 C627 1.433 . S
C635 N637 1.384 . S
N636 C632 1.427 . S
N636 C633 1.384 . S
N637 C629 1.427 . S
N637 C635 1.384 . S
H638 C644 0.930 . S
H639 C648 0.930 . S
H640 C653 0.929 . S
H641 C651 0.929 . S
H642 C646 0.929 . S
H643 C652 0.929 . S
C644 H638 0.930 . S
C644 C645 1.367 . S
C644 C652 1.378 . S
C645 C644 1.367 . S
C645 C653 1.433 . S
C646 H642 0.929 . S
C646 C648 1.378 . S
C646 C650 1.350 . S
C647 C650 1.463 . S
C647 C652 1.350 . S
C647 N655 1.427 . S
C648 H639 0.930 . S
C648 C646 1.378 . S
C648 C649 1.367 . S
C649 C648 1.367 . S
C649 C651 1.433 . S
C650 C646 1.350 . S
C650 C647 1.463 . S
C650 N654 1.427 . S
C651 H641 0.929 . S
C651 C649 1.433 . S
C651 N654 1.384 . S
C652 H643 0.929 . S
C652 C644 1.378 . S
C652 C647 1.350 . S
C653 H640 0.929 . S
C653 C645 1.433 . S
C653 N655 1.384 . S
N654 C650 1.427 . S
N654 C651 1.384 . S
N655 C647 1.427 . S
N655 C653 1.384 . S
H656 C662 0.930 . S
H657 C666 0.930 1_554 S
H658 C671 0.929 . S
H659 C669 0.929 . S
H660 C664 0.929 . S
H661 C670 0.929 . S
C662 H656 0.930 . S
C662 C663 1.367 . S
C662 C670 1.378 . S
C663 C662 1.367 . S
C663 C671 1.433 . S
C664 H660 0.929 . S
C664 C666 1.378 . S
C664 C668 1.350 . S
C665 C668 1.463 . S
C665 C670 1.350 . S
C665 N673 1.427 . S
C666 H657 0.930 1_556 S
C666 C664 1.378 . S
C666 C667 1.367 . S
C667 C666 1.367 . S
C667 C669 1.433 . S
C668 C664 1.350 . S
C668 C665 1.463 . S
C668 N672 1.427 . S
C669 H659 0.929 . S
C669 C667 1.433 . S
C669 N672 1.384 . S
C670 H661 0.929 . S
C670 C662 1.378 . S
C670 C665 1.350 . S
C671 H658 0.929 . S
C671 C663 1.433 . S
C671 N673 1.384 . S
N672 C668 1.427 . S
N672 C669 1.384 . S
N673 C665 1.427 . S
N673 C671 1.384 . S
H674 C680 0.930 . S
H675 C684 0.930 . S
H676 C689 0.929 . S
H677 C687 0.929 . S
H678 C682 0.929 . S
H679 C688 0.929 . S
C680 H674 0.930 . S
C680 C681 1.367 . S
C680 C688 1.378 . S
C681 C680 1.367 . S
C681 C689 1.433 . S
C682 H678 0.929 . S
C682 C684 1.378 1_554 S
C682 C686 1.350 . S
C683 C686 1.463 . S
C683 C688 1.350 . S
C683 N691 1.427 . S
C684 H675 0.930 . S
C684 C682 1.378 1_556 S
C684 C685 1.367 1_556 S
C685 C684 1.367 1_554 S
C685 C687 1.433 . S
C686 C682 1.350 . S
C686 C683 1.463 . S
C686 N690 1.427 . S
C687 H677 0.929 . S
C687 C685 1.433 . S
C687 N690 1.384 . S
C688 H679 0.929 . S
C688 C680 1.378 . S
C688 C683 1.350 . S
C689 H676 0.929 . S
C689 C681 1.433 . S
C689 N691 1.384 . S
N690 C686 1.427 . S
N690 C687 1.384 . S
N691 C683 1.427 . S
N691 C689 1.384 . S
H692 C698 0.930 . S
H693 C702 0.930 . S
H694 C707 0.929 1_554 S
H695 C705 0.929 . S
H696 C700 0.929 . S
H697 C706 0.929 . S
C698 H692 0.930 . S
C698 C699 1.367 . S
C698 C706 1.378 . S
C699 C698 1.367 . S
C699 C707 1.433 . S
C700 H696 0.929 . S
C700 C702 1.378 . S
C700 C704 1.350 . S
C701 C704 1.463 . S
C701 C706 1.350 . S
C701 N709 1.427 . S
C702 H693 0.930 . S
C702 C700 1.378 . S
C702 C703 1.367 . S
C703 C702 1.367 . S
C703 C705 1.433 . S
C704 C700 1.350 . S
C704 C701 1.463 . S
C704 N708 1.427 . S
C705 H695 0.929 . S
C705 C703 1.433 . S
C705 N708 1.384 . S
C706 H697 0.929 . S
C706 C698 1.378 . S
C706 C701 1.350 . S
C707 H694 0.929 1_556 S
C707 C699 1.433 . S
C707 N709 1.384 . S
N708 C704 1.427 . S
N708 C705 1.384 . S
N709 C701 1.427 . S
N709 C707 1.384 . S
H710 C716 0.930 . S
H711 C720 0.930 . S
H712 C725 0.929 . S
H713 C723 0.929 1_556 S
H714 C718 0.929 . S
H715 C724 0.929 . S
C716 H710 0.930 . S
C716 C717 1.367 . S
C716 C724 1.378 . S
C717 C716 1.367 . S
C717 C725 1.433 . S
C718 H714 0.929 . S
C718 C720 1.378 . S
C718 C722 1.350 . S
C719 C722 1.463 . S
C719 C724 1.350 . S
C719 N727 1.427 . S
C720 H711 0.930 . S
C720 C718 1.378 . S
C720 C721 1.367 . S
C721 C720 1.367 . S
C721 C723 1.433 . S
C722 C718 1.350 . S
C722 C719 1.463 . S
C722 N726 1.427 . S
C723 H713 0.929 1_554 S
C723 C721 1.433 . S
C723 N726 1.384 . S
C724 H715 0.929 . S
C724 C716 1.378 . S
C724 C719 1.350 . S
C725 H712 0.929 . S
C725 C717 1.433 . S
C725 N727 1.384 . S
N726 C722 1.427 . S
N726 C723 1.384 . S
N727 C719 1.427 . S
N727 C725 1.384 . S
H728 C734 0.930 . S
H729 C738 0.930 . S
H730 C743 0.929 . S
H731 C741 0.929 . S
H732 C736 0.929 . S
H733 C742 0.929 . S
C734 H728 0.930 . S
C734 C735 1.367 . S
C734 C742 1.378 . S
C735 C734 1.367 . S
C735 C743 1.433 . S
C736 H732 0.929 . S
C736 C738 1.378 . S
C736 C740 1.350 . S
C737 C740 1.463 . S
C737 C742 1.350 . S
C737 N745 1.427 . S
C738 H729 0.930 . S
C738 C736 1.378 . S
C738 C739 1.367 . S
C739 C738 1.367 . S
C739 C741 1.433 . S
C740 C736 1.350 . S
C740 C737 1.463 . S
C740 N744 1.427 . S
C741 H731 0.929 . S
C741 C739 1.433 . S
C741 N744 1.384 . S
C742 H733 0.929 . S
C742 C734 1.378 . S
C742 C737 1.350 . S
C743 H730 0.929 . S
C743 C735 1.433 . S
C743 N745 1.384 . S
N744 C740 1.427 . S
N744 C741 1.384 . S
N745 C737 1.427 . S
N745 C743 1.384 . S
H746 C752 0.930 . S
H747 C756 0.930 . S
H748 C761 0.929 . S
H749 C759 0.929 . S
H750 C754 0.929 . S
H751 C760 0.929 . S
C752 H746 0.930 . S
C752 C753 1.367 . S
C752 C760 1.378 . S
C753 C752 1.367 . S
C753 C761 1.433 . S
C754 H750 0.929 . S
C754 C756 1.378 . S
C754 C758 1.350 . S
C755 C758 1.463 . S
C755 C760 1.350 . S
C755 N763 1.427 . S
C756 H747 0.930 . S
C756 C754 1.378 . S
C756 C757 1.367 . S
C757 C756 1.367 . S
C757 C759 1.433 . S
C758 C754 1.350 . S
C758 C755 1.463 . S
C758 N762 1.427 . S
C759 H749 0.929 . S
C759 C757 1.433 . S
C759 N762 1.384 . S
C760 H751 0.929 . S
C760 C752 1.378 . S
C760 C755 1.350 . S
C761 H748 0.929 . S
C761 C753 1.433 . S
C761 N763 1.384 . S
N762 C758 1.427 . S
N762 C759 1.384 . S
N763 C755 1.427 . S
N763 C761 1.384 . S
H764 C770 0.930 . S
H765 C774 0.930 . S
H766 C779 0.929 . S
H767 C777 0.929 . S
H768 C772 0.929 . S
H769 C778 0.929 . S
C770 H764 0.930 . S
C770 C771 1.367 . S
C770 C778 1.378 . S
C771 C770 1.367 . S
C771 C779 1.433 . S
C772 H768 0.929 . S
C772 C774 1.378 . S
C772 C776 1.350 . S
C773 C776 1.463 . S
C773 C778 1.350 . S
C773 N781 1.427 . S
C774 H765 0.930 . S
C774 C772 1.378 . S
C774 C775 1.367 . S
C775 C774 1.367 . S
C775 C777 1.433 . S
C776 C772 1.350 . S
C776 C773 1.463 . S
C776 N780 1.427 . S
C777 H767 0.929 . S
C777 C775 1.433 . S
C777 N780 1.384 . S
C778 H769 0.929 . S
C778 C770 1.378 . S
C778 C773 1.350 . S
C779 H766 0.929 . S
C779 C771 1.433 . S
C779 N781 1.384 . S
N780 C776 1.427 . S
N780 C777 1.384 . S
N781 C773 1.427 . S
N781 C779 1.384 . S
H782 C788 0.930 . S
H783 C792 0.930 . S
H784 C797 0.929 . S
H785 C795 0.929 . S
H786 C790 0.929 . S
H787 C796 0.929 . S
C788 H782 0.930 . S
C788 C789 1.367 . S
C788 C796 1.378 . S
C789 C788 1.367 . S
C789 C797 1.433 . S
C790 H786 0.929 . S
C790 C792 1.378 . S
C790 C794 1.350 . S
C791 C794 1.463 . S
C791 C796 1.350 . S
C791 N799 1.427 . S
C792 H783 0.930 . S
C792 C790 1.378 . S
C792 C793 1.367 . S
C793 C792 1.367 . S
C793 C795 1.433 . S
C794 C790 1.350 . S
C794 C791 1.463 . S
C794 N798 1.427 . S
C795 H785 0.929 . S
C795 C793 1.433 . S
C795 N798 1.384 . S
C796 H787 0.929 . S
C796 C788 1.378 . S
C796 C791 1.350 . S
C797 H784 0.929 . S
C797 C789 1.433 . S
C797 N799 1.384 . S
N798 C794 1.427 . S
N798 C795 1.384 . S
N799 C791 1.427 . S
N799 C797 1.384 . S
C231 C163 1.281 . S
C235 C3 1.270 . S
C249 C17 1.276 . S
C253 C121 1.273 . S
C267 C31 1.262 . S
C271 C135 1.276 . S
C285 C149 1.280 . S
C289 C45 1.259 . S
C303 C59 1.260 1_556 S
C307 C79 1.279 . S
C321 C73 1.269 1_554 S
C325 C93 1.270 . S
C339 C107 1.280 . S
C343 C87 1.259 1_556 S
C357 C65 1.278 . S
C361 C101 1.273 1_554 S
C375 C51 1.269 . S
C379 C115 1.272 . S
C393 C129 1.276 . S
C397 C9 1.272 . S
C411 C23 1.278 . S
C415 C143 1.273 . S
C429 C157 1.273 . S
C433 C37 1.277 . S
C447 C171 1.276 . S
C451 C191 1.272 . S
C465 C185 1.260 . S
C469 C205 1.283 . S
C483 C219 1.269 . S
C487 C199 1.272 . S
C501 C177 1.271 . S
C505 C213 1.276 . S
C519 C63 1.248 . S
C523 C7 1.240 . S
C537 C21 1.250 . S
C541 C77 1.254 . S
C555 C35 1.246 . S
C559 C91 1.241 . S
C573 C105 1.250 . S
C577 C49 1.239 . S
C591 C119 1.249 . S
C595 C175 1.254 . S
C609 C189 1.251 . S
C613 C133 1.253 . S
C627 C147 1.248 . S
C631 C203 1.254 . S
C645 C217 1.244 . S
C649 C161 1.241 . S
C663 C204 1.393 . S
C667 C8 1.393 1_556 S
C681 C218 1.391 . S
C685 C22 1.391 1_554 S
C699 C36 1.397 1_556 S
C703 C176 1.397 . S
C717 C190 1.398 . S
C721 C50 1.398 1_554 S
C735 C148 1.396 . S
C739 C64 1.396 . S
C753 C162 1.397 . S
C757 C78 1.397 . S
C771 C92 1.394 . S
C775 C120 1.394 . S
C789 C134 1.399 . S
C793 C106 1.399 . S
