# Generated by pormake.
# Topology kag, (6)-cn, num edge types: 1
# Building blocks:
#     Node 0, Type 0, BuildingBlock: BETDAH_clean_sbu_0, # of connection points: 6
#     Node 1, Type 0, BuildingBlock: BETDAH_clean_sbu_0, # of connection points: 6
#     Node 2, Type 0, BuildingBlock: BETDAH_clean_sbu_0, # of connection points: 6
#     Edge 3, Type (0, 0), BuildingBlock: MIFKUJ_clean_linker_0, # of connection points: 2
#     Edge 4, Type (0, 0), BuildingBlock: MIFKUJ_clean_linker_0, # of connection points: 2
#     Edge 5, Type (0, 0), BuildingBlock: MIFKUJ_clean_linker_0, # of connection points: 2
#     Edge 6, Type (0, 0), BuildingBlock: MIFKUJ_clean_linker_0, # of connection points: 2
#     Edge 7, Type (0, 0), BuildingBlock: MIFKUJ_clean_linker_0, # of connection points: 2
#     Edge 8, Type (0, 0), BuildingBlock: MIFKUJ_clean_linker_0, # of connection points: 2
#     Edge 9, Type (0, 0), BuildingBlock: MIFKUJ_clean_linker_0, # of connection points: 2
#     Edge 10, Type (0, 0), BuildingBlock: MIFKUJ_clean_linker_0, # of connection points: 2
#     Edge 11, Type (0, 0), BuildingBlock: MIFKUJ_clean_linker_0, # of connection points: 2
# Relax obj value: 0.053
# Max RMSD: 0.173
# Mean RMSD: 0.091
data_MOF--net-kag--node1-BETDAH_clean_sbu_0--edge1-MIFKUJ_clean_linker_0
_symmetry_space_group_name_H-M    P1
_symmetry_Int_Tables_number       1
_symmetry_cell_setting            triclinic
loop_
_symmetry_equiv_pos_as_xyz
'x, y, z'
_cell_length_a     41.481634
_cell_length_b     51.557627
_cell_length_c     19.267592
_cell_angle_alpha  95.785851
_cell_angle_beta   90.119415
_cell_angle_gamma 101.90934
loop_
_atom_site_label
_atom_site_type_symbol
_atom_site_fract_x
_atom_site_fract_y
_atom_site_fract_z
_atom_type_partial_charge
Ho0 Ho 1.02294 0.47748 0.00563 0.0
Ho1 Ho 0.03552 0.535 0.99987 0.0
C2 C 0.95879 0.50613 0.99402 0.0
C3 C 1.00288 0.42916 0.03743 0.0
C4 C 0.97309 0.40762 0.03278 0.0
C5 C 0.96568 0.39247 0.08928 0.0
C6 C 0.93939 0.37046 0.08462 0.0
C7 C 0.91996 0.36297 0.02303 0.0
C8 C 0.92676 0.37877 0.96717 0.0
C9 C 0.95307 0.40091 0.972 0.0
C10 C 0.03146 0.49169 0.87391 0.0
C11 C 0.09978 0.50631 0.01021 0.0
C12 C 0.05601 0.5836 0.97049 0.0
C13 C 0.08525 0.60577 0.98167 0.0
C14 C 0.11434 0.60561 0.9443 0.0
C15 C 0.14045 0.62789 0.95117 0.0
C16 C 0.13801 0.65086 0.99535 0.0
C17 C 0.10926 0.6506 0.0341 0.0
C18 C 0.08319 0.62843 0.02705 0.0
C19 C 1.02698 0.52061 0.13155 0.0
O20 O 0.96998 0.48507 0.01059 0.0
O21 O 0.98013 0.52763 0.97866 0.0
O22 O 1.01719 0.43505 0.97908 0.0
O23 O 1.00234 0.45026 0.08075 0.0
O24 O 0.04253 0.47248 0.89755 0.0
O25 O 1.01508 0.50191 0.92054 0.0
O26 O 0.08859 0.52769 0.99623 0.0
O27 O 0.07853 0.48444 0.02335 0.0
O28 O 0.03884 0.57732 0.02535 0.0
O29 O 0.05864 0.56265 0.92826 0.0
O30 O 1.0158 0.53977 0.10801 0.0
O31 O 0.04351 0.51061 0.08486 0.0
H32 H 0.98069 0.39737 0.13676 0.0
H33 H 0.93447 0.35916 0.12924 0.0
H34 H 0.91247 0.37355 0.91884 0.0
H35 H 0.9582 0.41236 0.92769 0.0
H36 H 0.11671 0.58854 0.90852 0.0
H37 H 0.16207 0.62744 0.92004 0.0
H38 H 0.1067 0.6677 0.06959 0.0
H39 H 0.06107 0.62922 0.05629 0.0
Ho40 Ho 0.56587 0.01194 0.99067 0.0
Ho41 Ho 0.49444 0.99987 0.00739 0.0
C42 C 0.52652 0.06132 0.01441 0.0
C43 C 0.62505 0.03264 0.95488 0.0
C44 C 0.64594 0.05995 0.96064 0.0
C45 C 0.64975 0.07477 0.90269 0.0
C46 C 0.66968 0.1004 0.90758 0.0
C47 C 0.68649 0.11175 0.97042 0.0
C48 C 0.6826 0.09692 0.02837 0.0
C49 C 0.66264 0.07135 0.02354 0.0
C50 C 0.54788 1.0052 0.12407 0.0
C51 C 0.53378 0.95052 0.98326 0.0
C52 C 0.43508 0.97961 0.04276 0.0
C53 C 0.4143 0.95244 0.03999 0.0
C54 C 0.4247 0.93182 0.07064 0.0
C55 C 0.40441 0.90634 0.06737 0.0
C56 C 0.37335 0.90087 0.03309 0.0
C57 C 0.36334 0.92154 0.00172 0.0
C58 C 0.38349 0.94699 0.00547 0.0
C59 C 0.51269 0.00695 0.87428 0.0
O60 O 0.55308 0.05287 0.99187 0.0
O61 O 0.50041 0.04423 0.0329 0.0
O62 O 0.61837 0.02168 0.01283 0.0
O63 O 0.59949 0.02798 0.91218 0.0
O64 O 0.57206 0.99658 0.09384 0.0
O65 O 0.53481 0.01788 0.08274 0.0
O66 O 0.50711 0.95885 0.0056 0.0
O67 O 0.55997 0.96764 0.96529 0.0
O68 O 0.44208 0.98886 0.98274 0.0
O69 O 0.46031 0.98543 0.08648 0.0
O70 O 0.48873 0.01583 0.90481 0.0
O71 O 0.52548 0.99397 0.91529 0.0
H72 H 0.63746 0.06649 0.8533 0.0
H73 H 0.67244 0.1111 0.86167 0.0
H74 H 0.69483 0.10515 0.07781 0.0
H75 H 0.66039 0.06055 0.06926 0.0
H76 H 0.44844 0.93533 0.09739 0.0
H77 H 0.41289 0.89109 0.09273 0.0
H78 H 0.33998 0.91804 0.97354 0.0
H79 H 0.375 0.96248 0.98103 0.0
Ho80 Ho 0.53838 0.53552 0.99633 0.0
Ho81 Ho 0.52052 0.47613 0.00175 0.0
C82 C 0.45963 0.50702 0.00853 0.0
C83 C 0.54742 0.58486 0.96629 0.0
C84 C 0.53928 0.61204 0.97662 0.0
C85 C 0.51953 0.62044 0.92737 0.0
C86 C 0.51671 0.6473 0.92982 0.0
C87 C 0.53392 0.66674 0.98109 0.0
C88 C 0.55284 0.65812 0.03157 0.0
C89 C 0.55552 0.63129 0.02932 0.0
C90 C 0.53931 0.52026 0.12763 0.0
C91 C 0.59922 0.5046 0.98975 0.0
C92 C 0.5114 0.42669 0.03108 0.0
C93 C 0.51982 0.3996 0.02105 0.0
C94 C 0.53924 0.39126 0.07101 0.0
C95 C 0.54234 0.36447 0.06855 0.0
C96 C 0.52585 0.34501 0.0164 0.0
C97 C 0.50717 0.3536 0.96537 0.0
C98 C 0.50416 0.38036 0.96775 0.0
C99 C 0.51964 0.49158 0.87049 0.0
O100 O 0.48154 0.52823 0.99232 0.0
O101 O 0.46981 0.48541 0.0239 0.0
O102 O 0.56288 0.57698 0.01673 0.0
O103 O 0.52717 0.56503 0.93101 0.0
O104 O 0.55918 0.54041 0.10581 0.0
O105 O 0.51812 0.51002 0.08001 0.0
O106 O 0.57734 0.48359 0.00723 0.0
O107 O 0.58892 0.526 0.97307 0.0
O108 O 0.49648 0.43461 0.97993 0.0
O109 O 0.53116 0.44652 0.06744 0.0
O110 O 0.49971 0.47144 0.89219 0.0
O111 O 0.54084 0.50162 0.91819 0.0
H112 H 0.5072 0.60643 0.88514 0.0
H113 H 0.50213 0.65302 0.88956 0.0
H114 H 0.56608 0.67222 0.07259 0.0
H115 H 0.57137 0.62586 0.06769 0.0
H116 H 0.55126 0.40529 0.11353 0.0
H117 H 0.55742 0.359 0.1083 0.0
H118 H 0.49361 0.33945 0.92487 0.0
H119 H 0.48837 0.3857 0.92911 0.0
H120 H 1.0001 0.5248 0.80705 0.0
H121 H 0.99927 0.52986 0.68153 0.0
H122 H 0.06203 0.47303 0.64503 0.0
H123 H 0.06322 0.46821 0.76982 0.0
H124 H 0.08185 0.51305 0.56905 0.0
H125 H 0.97768 0.45628 0.60917 0.0
H126 H 0.92416 0.44379 0.66551 0.0
H127 H 0.89357 0.51158 0.59523 0.0
H128 H 0.94712 0.5247 0.53929 0.0
H129 H 0.05827 0.4874 0.19825 0.0
H130 H 0.05883 0.48208 0.32366 0.0
H131 H 0.99585 0.53875 0.36026 0.0
H132 H 0.99493 0.5438 0.23558 0.0
H133 H 0.97605 0.49874 0.43619 0.0
H134 H 0.08007 0.5557 0.39687 0.0
H135 H 0.13363 0.5685 0.34091 0.0
H136 H 0.16446 0.50061 0.41 0.0
H137 H 0.11087 0.4872 0.46559 0.0
C138 C 1.01379 0.51348 0.7722 0.0
C139 C 0.03156 0.49598 0.79849 0.0
C140 C 1.01319 0.51627 0.70029 0.0
C141 C 0.03026 0.50157 0.65305 0.0
C142 C 0.04859 0.48459 0.67982 0.0
C143 C 0.04916 0.48179 0.75141 0.0
C144 C 0.02897 0.50356 0.57586 0.0
C145 C 0.05866 0.50959 0.54 0.0
C146 C 0.99883 0.49957 0.53746 0.0
C147 C 0.96655 0.49163 0.57067 0.0
C148 C 0.95964 0.46864 0.60617 0.0
C149 C 0.92928 0.46143 0.63797 0.0
C150 C 0.90552 0.47692 0.63412 0.0
C151 C 0.91203 0.49962 0.59828 0.0
C152 C 0.94237 0.50695 0.56648 0.0
C153 C 0.04447 0.49862 0.2331 0.0
C154 C 1.02673 0.51615 0.20687 0.0
C155 C 0.04491 0.49569 0.30495 0.0
C156 C 1.0277 0.51027 0.35219 0.0
C157 C 1.00938 0.52727 0.32547 0.0
C158 C 1.00898 0.53021 0.25395 0.0
C159 C 0.02893 0.50822 0.42937 0.0
C160 C 0.99923 0.50218 0.46524 0.0
C161 C 0.05905 0.51222 0.46781 0.0
C162 C 0.09133 0.5203 0.43474 0.0
C163 C 0.09818 0.54339 0.39967 0.0
C164 C 0.12855 0.55077 0.36809 0.0
C165 C 0.15239 0.53533 0.37172 0.0
C166 C 0.14594 0.51252 0.40712 0.0
C167 C 0.11558 0.50503 0.43872 0.0
H168 H 0.17589 0.54108 0.34723 0.0
H169 H 0.88203 0.47131 0.65873 0.0
H170 H 0.57301 0.97657 0.21358 0.0
H171 H 0.56648 0.97698 0.33967 0.0
H172 H 0.50383 0.03394 0.33506 0.0
H173 H 0.51027 0.0335 0.20784 0.0
H174 H 0.55027 0.04775 0.44388 0.0
H175 H 0.47076 0.9705 0.35629 0.0
H176 H 0.45047 0.92761 0.28548 0.0
H177 H 0.51815 0.89196 0.39315 0.0
H178 H 0.53927 0.93479 0.46384 0.0
H179 H 0.48772 0.03584 0.78518 0.0
H180 H 0.49408 0.03546 0.65908 0.0
H181 H 0.55631 0.97816 0.6629 0.0
H182 H 0.54998 0.97852 0.7901 0.0
H183 H 0.50998 0.96456 0.55447 0.0
H184 H 0.58964 0.04186 0.6417 0.0
H185 H 0.6097 0.08467 0.71301 0.0
H186 H 0.54155 0.12018 0.60633 0.0
H187 H 0.5207 0.07743 0.53508 0.0
C188 C 0.55768 0.98912 0.23921 0.0
C189 C 0.54214 1.00499 0.20047 0.0
C190 C 0.5539 0.98928 0.31152 0.0
C191 C 0.5345 1.00537 0.34739 0.0
C192 C 0.51894 0.02134 0.30885 0.0
C193 C 0.52249 0.02099 0.23606 0.0
C194 C 0.53091 1.00553 0.42496 0.0
C195 C 0.54097 0.02961 0.46788 0.0
C196 C 0.51962 0.9818 0.45699 0.0
C197 C 0.50683 0.95594 0.41492 0.0
C198 C 0.48152 0.95358 0.36449 0.0
C199 C 0.46984 0.92927 0.32443 0.0
C200 C 0.48307 0.90709 0.3347 0.0
C201 C 0.50796 0.90917 0.38519 0.0
C202 C 0.51978 0.93346 0.4253 0.0
C203 C 0.50292 0.02322 0.75937 0.0
C204 C 0.51836 0.00722 0.79788 0.0
C205 C 0.50661 0.02308 0.68705 0.0
C206 C 0.52585 0.00691 0.65095 0.0
C207 C 0.54133 0.99083 0.68927 0.0
C208 C 0.53784 0.99113 0.76207 0.0
C209 C 0.52936 0.00677 0.57337 0.0
C210 C 0.51929 0.9827 0.53045 0.0
C211 C 0.54064 0.03051 0.54135 0.0
C212 C 0.55339 0.05635 0.58347 0.0
C213 C 0.57876 0.05874 0.63377 0.0
C214 C 0.5903 0.083 0.67415 0.0
C215 C 0.57686 0.10511 0.66431 0.0
C216 C 0.55192 0.10302 0.61393 0.0
C217 C 0.54024 0.07878 0.57349 0.0
H218 H 0.58581 0.12388 0.69564 0.0
H219 H 0.47398 0.88828 0.30364 0.0
H220 H 0.47454 0.47045 0.76706 0.0
H221 H 0.47796 0.47553 0.64261 0.0
H222 H 0.57315 0.52811 0.67765 0.0
H223 H 0.56937 0.52351 0.80357 0.0
H224 H 0.53853 0.54637 0.58433 0.0
H225 H 0.56361 0.46099 0.60824 0.0
H226 H 0.55448 0.4158 0.64606 0.0
H227 H 0.4642 0.39342 0.52494 0.0
H228 H 0.47257 0.4386 0.48713 0.0
H229 H 0.58448 0.54152 0.23089 0.0
H230 H 0.58119 0.5365 0.35539 0.0
H231 H 0.48604 0.48381 0.32079 0.0
H232 H 0.4897 0.48834 0.19485 0.0
H233 H 0.52072 0.46562 0.41393 0.0
H234 H 0.49562 0.55102 0.39013 0.0
H235 H 0.50474 0.59621 0.35236 0.0
H236 H 0.59508 0.61856 0.47328 0.0
H237 H 0.58672 0.57337 0.51105 0.0
C238 C 0.49622 0.48318 0.74847 0.0
C239 C 0.52182 0.49639 0.79536 0.0
C240 C 0.49824 0.48595 0.67691 0.0
C241 C 0.52616 0.50172 0.64971 0.0
C242 C 0.55141 0.51564 0.69681 0.0
C243 C 0.54928 0.513 0.76888 0.0
C244 C 0.5288 0.5035 0.57238 0.0
C245 C 0.53513 0.52868 0.54726 0.0
C246 C 0.52354 0.4805 0.52313 0.0
C247 C 0.51858 0.45326 0.54534 0.0
C248 C 0.5417 0.44648 0.59003 0.0
C249 C 0.53668 0.42086 0.61141 0.0
C250 C 0.50874 0.40177 0.58804 0.0
C251 C 0.48582 0.40824 0.54306 0.0
C252 C 0.4907 0.43384 0.52157 0.0
C253 C 0.56283 0.52878 0.24959 0.0
C254 C 0.53722 0.51551 0.20281 0.0
C255 C 0.56088 0.52605 0.32118 0.0
C256 C 0.53301 0.51026 0.34852 0.0
C257 C 0.50775 0.49629 0.30153 0.0
C258 C 0.50981 0.49888 0.22944 0.0
C259 C 0.53045 0.50849 0.42587 0.0
C260 C 0.52413 0.48331 0.45099 0.0
C261 C 0.53572 0.53149 0.47512 0.0
C262 C 0.54068 0.55873 0.45292 0.0
C263 C 0.51754 0.56552 0.4083 0.0
C264 C 0.52256 0.59114 0.38695 0.0
C265 C 0.55051 0.61023 0.41028 0.0
C266 C 0.57345 0.60375 0.45519 0.0
C267 C 0.56857 0.57814 0.47665 0.0
H268 H 0.55436 0.63005 0.39366 0.0
H269 H 0.50489 0.38195 0.60468 0.0
H270 H 0.15239 0.54992 0.016 0.0
H271 H 0.21164 0.55099 0.01906 0.0
H272 H 0.19181 0.46523 0.0073 0.0
H273 H 0.13251 0.46431 0.00829 0.0
H274 H 0.24159 0.4795 0.08488 0.0
H275 H 0.22302 0.50989 0.86174 0.0
H276 H 0.2039 0.53912 0.78394 0.0
H277 H 0.26853 0.60735 0.891 0.0
H278 H 0.28781 0.57855 0.96982 0.0
H279 H 0.40606 0.46464 0.00671 0.0
H280 H 0.34719 0.46471 0.00557 0.0
H281 H 0.3693 0.55044 0.01512 0.0
H282 H 0.42841 0.55019 0.01208 0.0
H283 H 0.31854 0.53692 0.94013 0.0
H284 H 0.33765 0.50704 0.16227 0.0
H285 H 0.35634 0.47837 0.24227 0.0
H286 H 0.29047 0.40985 0.13967 0.0
H287 H 0.27166 0.43806 0.05859 0.0
C288 C 0.16048 0.5312 0.01402 0.0
C289 C 0.13689 0.50701 0.01165 0.0
C290 C 0.19488 0.53178 0.01501 0.0
C291 C 0.20749 0.50814 0.01154 0.0
C292 C 0.18378 0.48399 0.00985 0.0
C293 C 0.1494 0.48344 0.0102 0.0
C294 C 0.24482 0.5084 0.01066 0.0
C295 C 0.2581 0.49186 0.05216 0.0
C296 C 0.26774 0.52488 0.97013 0.0
C297 C 0.25664 0.5421 0.92198 0.0
C298 C 0.23307 0.53114 0.86877 0.0
C299 C 0.22221 0.54763 0.82452 0.0
C300 C 0.23493 0.57508 0.83263 0.0
C301 C 0.25867 0.58609 0.88481 0.0
C302 C 0.26961 0.5697 0.92921 0.0
C303 C 0.39859 0.48363 0.00892 0.0
C304 C 0.42279 0.50743 0.01009 0.0
C305 C 0.36439 0.4837 0.00894 0.0
C306 C 0.3525 0.50765 0.0123 0.0
C307 C 0.37677 0.53146 0.01283 0.0
C308 C 0.41103 0.53134 0.0114 0.0
C309 C 0.31529 0.50789 0.01408 0.0
C310 C 0.30204 0.52453 0.9728 0.0
C311 C 0.29239 0.49156 0.05499 0.0
C312 C 0.30348 0.47463 0.10402 0.0
C313 C 0.32728 0.48584 0.1566 0.0
C314 C 0.33788 0.46967 0.20213 0.0
C315 C 0.32466 0.4423 0.19595 0.0
C316 C 0.30072 0.43105 0.14436 0.0
C317 C 0.29005 0.44712 0.09865 0.0
H318 H 0.33292 0.42982 0.23121 0.0
H319 H 0.22645 0.58782 0.79842 0.0
H320 H 0.67598 0.15667 0.9161 0.0
H321 H 0.71262 0.20072 0.92394 0.0
H322 H 0.78334 0.17189 0.04372 0.0
H323 H 0.74699 0.12789 0.03591 0.0
H324 H 0.77589 0.21969 0.10045 0.0
H325 H 0.7939 0.18033 0.86993 0.0
H326 H 0.77726 0.15883 0.75149 0.0
H327 H 0.73852 0.2265 0.70626 0.0
H328 H 0.75454 0.24827 0.82487 0.0
H329 H 0.92204 0.31506 0.07041 0.0
H330 H 0.87923 0.27456 0.06127 0.0
H331 H 0.81573 0.31351 0.95002 0.0
H332 H 0.85846 0.35448 0.95985 0.0
H333 H 0.81543 0.26303 0.88908 0.0
H334 H 0.80109 0.30369 0.11761 0.0
H335 H 0.81845 0.32515 0.23572 0.0
H336 H 0.85059 0.25498 0.28475 0.0
H337 H 0.83387 0.23322 0.16652 0.0
C338 C 0.69945 0.15965 0.94364 0.0
C339 C 0.70853 0.13869 0.97531 0.0
C340 C 0.72036 0.18488 0.94819 0.0
C341 C 0.75091 0.18961 0.98396 0.0
C342 C 0.75987 0.16879 0.01608 0.0
C343 C 0.73898 0.14363 0.0117 0.0
C344 C 0.77369 0.21617 0.98813 0.0
C345 C 0.78476 0.22903 0.05417 0.0
C346 C 0.78459 0.22879 0.92789 0.0
C347 C 0.77508 0.21579 0.85651 0.0
C348 C 0.7816 0.19053 0.83491 0.0
C349 C 0.77232 0.17831 0.76773 0.0
C350 C 0.75676 0.19126 0.72145 0.0
C351 C 0.75053 0.21648 0.74221 0.0
C352 C 0.75971 0.22878 0.80939 0.0
C353 C 0.89883 0.31524 0.04483 0.0
C354 C 0.89365 0.33822 0.01658 0.0
C355 C 0.87438 0.29197 0.0394 0.0
C356 C 0.84406 0.29107 0.00579 0.0
C357 C 0.83891 0.31376 0.97633 0.0
C358 C 0.86341 0.33714 0.98184 0.0
C359 C 0.81803 0.26629 0.00134 0.0
C360 C 0.80633 0.25379 0.93534 0.0
C361 C 0.80656 0.25396 0.06162 0.0
C362 C 0.81646 0.2669 0.13297 0.0
C363 C 0.81208 0.2929 0.15339 0.0
C364 C 0.82177 0.30511 0.2204 0.0
C365 C 0.83568 0.29146 0.26766 0.0
C366 C 0.83984 0.26554 0.24806 0.0
C367 C 0.83022 0.25324 0.18108 0.0
H368 H 0.84317 0.30095 0.31951 0.0
H369 H 0.74959 0.18176 0.66945 0.0
H370 H 0.58704 0.92637 0.98546 0.0
H371 H 0.58696 0.87892 0.98506 0.0
H372 H 0.48072 0.86079 0.96872 0.0
H373 H 0.48079 0.90836 0.97382 0.0
H374 H 0.4944 0.82985 0.04769 0.0
H375 H 0.5387 0.84955 0.82595 0.0
H376 H 0.57612 0.87323 0.74289 0.0
H377 H 0.65875 0.8519 0.84044 0.0
H378 H 0.62187 0.82836 0.92466 0.0
H379 H 0.48163 0.68982 0.95048 0.0
H380 H 0.48129 0.7372 0.9481 0.0
H381 H 0.58426 0.75755 0.00811 0.0
H382 H 0.58498 0.71028 0.00917 0.0
H383 H 0.57158 0.7865 0.90479 0.0
H384 H 0.52274 0.76623 0.12712 0.0
H385 H 0.48198 0.7408 0.20124 0.0
H386 H 0.40329 0.7613 0.08733 0.0
H387 H 0.44356 0.78681 0.01271 0.0
C388 C 0.56366 0.91226 0.98136 0.0
C389 C 0.53395 0.92134 0.97918 0.0
C390 C 0.5636 0.88491 0.9806 0.0
C391 C 0.53385 0.86564 0.97519 0.0
C392 C 0.50415 0.87483 0.97288 0.0
C393 C 0.5042 0.9022 0.97544 0.0
C394 C 0.53349 0.83615 0.97369 0.0
C395 C 0.51105 0.82049 0.01539 0.0
C396 C 0.5553 0.82334 0.93263 0.0
C397 C 0.57755 0.83742 0.88203 0.0
C398 C 0.56488 0.85006 0.82996 0.0
C399 C 0.58599 0.86343 0.78264 0.0
C400 C 0.6198 0.86413 0.7865 0.0
C401 C 0.63256 0.85138 0.83758 0.0
C402 C 0.61156 0.838 0.88508 0.0
C403 C 0.5043 0.70431 0.9629 0.0
C404 C 0.53328 0.69591 0.98049 0.0
C405 C 0.504 0.73155 0.96207 0.0
C406 C 0.53267 0.75128 0.97869 0.0
C407 C 0.56171 0.74294 0.99534 0.0
C408 C 0.56199 0.71575 0.99657 0.0
C409 C 0.53258 0.78052 0.97855 0.0
C410 C 0.55496 0.79604 0.93671 0.0
C411 C 0.51024 0.79308 0.01812 0.0
C412 C 0.48613 0.77823 0.06406 0.0
C413 C 0.49673 0.76524 0.11786 0.0
C414 C 0.47372 0.75086 0.16006 0.0
C415 C 0.44005 0.74943 0.14907 0.0
C416 C 0.42934 0.76248 0.09607 0.0
C417 C 0.45225 0.77695 0.0539 0.0
H418 H 0.42228 0.73819 0.18162 0.0
H419 H 0.6361 0.87449 0.74982 0.0
H420 H 0.90627 0.46461 0.01567 0.0
H421 H 0.84699 0.46391 0.01456 0.0
H422 H 0.86655 0.54547 0.96721 0.0
H423 H 0.92591 0.54633 0.96906 0.0
H424 H 0.8188 0.54054 0.05627 0.0
H425 H 0.83314 0.48851 0.84302 0.0
H426 H 0.85104 0.45242 0.76915 0.0
H427 H 0.78854 0.39407 0.88007 0.0
H428 H 0.77058 0.42986 0.95527 0.0
H429 H 0.65226 0.54483 0.96349 0.0
H430 H 0.71125 0.54466 0.96327 0.0
H431 H 0.69035 0.4634 0.01302 0.0
H432 H 0.63111 0.46342 0.01271 0.0
H433 H 0.73866 0.46783 0.92316 0.0
H434 H 0.72419 0.51992 0.13602 0.0
H435 H 0.70683 0.55605 0.21077 0.0
H436 H 0.76997 0.61436 0.10086 0.0
H437 H 0.78737 0.57855 0.02478 0.0
C438 C 0.89815 0.48247 0.00473 0.0
C439 C 0.92168 0.5055 0.99215 0.0
C440 C 0.86378 0.48201 0.00371 0.0
C441 C 0.85119 0.50453 0.98984 0.0
C442 C 0.87474 0.52763 0.97802 0.0
C443 C 0.90911 0.52807 0.9788 0.0
C444 C 0.81393 0.50415 0.98821 0.0
C445 C 0.80154 0.52474 0.02614 0.0
C446 C 0.79028 0.48344 0.95068 0.0
C447 C 0.80077 0.46187 0.90522 0.0
C448 C 0.82337 0.46799 0.85195 0.0
C449 C 0.83351 0.44759 0.80979 0.0
C450 C 0.821 0.42097 0.82002 0.0
C451 C 0.79824 0.4147 0.87228 0.0
C452 C 0.78805 0.43503 0.91465 0.0
C453 C 0.65997 0.5268 0.9744 0.0
C454 C 0.63609 0.50416 0.98828 0.0
C455 C 0.6942 0.52678 0.97472 0.0
C456 C 0.70636 0.50414 0.98915 0.0
C457 C 0.68247 0.48132 0.00179 0.0
C458 C 0.64819 0.48138 0.00178 0.0
C459 C 0.74356 0.50428 0.99108 0.0
C460 C 0.75593 0.48364 0.95324 0.0
C461 C 0.76722 0.52496 0.02867 0.0
C462 C 0.75681 0.54654 0.07422 0.0
C463 C 0.73417 0.54045 0.12743 0.0
C464 C 0.72436 0.56087 0.17009 0.0
C465 C 0.73721 0.58749 0.16044 0.0
C466 C 0.75998 0.59373 0.10819 0.0
C467 C 0.76985 0.57338 0.06531 0.0
H468 H 0.7296 0.60327 0.19355 0.0
H469 H 0.82889 0.40521 0.78735 0.0
H470 H 0.13088 0.70264 0.00209 0.0
H471 H 0.1738 0.74295 0.00775 0.0
H472 H 0.24835 0.69557 0.99915 0.0
H473 H 0.20532 0.6549 0.99621 0.0
H474 H 0.26495 0.73873 0.0945 0.0
H475 H 0.22913 0.72314 0.85538 0.0
H476 H 0.18885 0.71378 0.75712 0.0
H477 H 0.15687 0.78654 0.81981 0.0
H478 H 0.19665 0.79615 0.91908 0.0
H479 H 0.39036 0.85163 0.0188 0.0
H480 H 0.35353 0.80769 0.01287 0.0
H481 H 0.26957 0.84493 0.03328 0.0
H482 H 0.30601 0.88878 0.04166 0.0
H483 H 0.26162 0.80467 0.92546 0.0
H484 H 0.29655 0.81964 0.16617 0.0
H485 H 0.33599 0.8286 0.26577 0.0
H486 H 0.36899 0.75644 0.20189 0.0
H487 H 0.33061 0.74749 0.10027 0.0
C488 C 0.15637 0.70069 0.00234 0.0
C489 C 0.16455 0.67542 0.99888 0.0
C490 C 0.18094 0.72382 0.00474 0.0
C491 C 0.21434 0.72233 0.00285 0.0
C492 C 0.22274 0.69722 0.00031 0.0
C493 C 0.19809 0.67398 0.99806 0.0
C494 C 0.24025 0.74711 0.00355 0.0
C495 C 0.26465 0.75293 0.05675 0.0
C496 C 0.23952 0.76587 0.955 0.0
C497 C 0.21572 0.76026 0.895 0.0
C498 C 0.21336 0.73706 0.8485 0.0
C499 C 0.19064 0.73172 0.79258 0.0
C500 C 0.17027 0.74953 0.78231 0.0
C501 C 0.17265 0.77275 0.82785 0.0
C502 C 0.19531 0.77817 0.88391 0.0
C503 C 0.3641 0.85054 0.02305 0.0
C504 C 0.35125 0.87391 0.03039 0.0
C505 C 0.34307 0.82535 0.0193 0.0
C506 C 0.30879 0.82302 0.02257 0.0
C507 C 0.29593 0.84624 0.0301 0.0
C508 C 0.31687 0.87135 0.03447 0.0
C509 C 0.28601 0.7965 0.01704 0.0
C510 C 0.2622 0.79034 0.96276 0.0
C511 C 0.2874 0.77747 0.06453 0.0
C512 C 0.31104 0.78312 0.12482 0.0
C513 C 0.31261 0.8059 0.17256 0.0
C514 C 0.33478 0.81097 0.22945 0.0
C515 C 0.35518 0.7932 0.23982 0.0
C516 C 0.35339 0.7703 0.1934 0.0
C517 C 0.33149 0.76525 0.13603 0.0
H518 H 0.37224 0.79711 0.28405 0.0
H519 H 0.15268 0.74536 0.73899 0.0
H520 H 0.52829 0.31616 0.12929 0.0
H521 H 0.52892 0.26889 0.12938 0.0
H522 H 0.52572 0.25959 0.90457 0.0
H523 H 0.52565 0.30697 0.90385 0.0
H524 H 0.48455 0.21867 0.95078 0.0
H525 H 0.59738 0.2609 0.99886 0.0
H526 H 0.64393 0.2923 0.06077 0.0
H527 H 0.61855 0.25668 0.25065 0.0
H528 H 0.57158 0.22528 0.19003 0.0
H529 H 0.57701 0.10209 0.985 0.0
H530 H 0.57675 0.14944 0.98571 0.0
H531 H 0.476 0.1349 0.052 0.0
H532 H 0.47594 0.08726 0.05059 0.0
H533 H 0.57012 0.18779 0.08167 0.0
H534 H 0.43568 0.17928 0.98655 0.0
H535 H 0.39276 0.1478 0.91415 0.0
H536 H 0.46732 0.11602 0.80052 0.0
H537 H 0.51065 0.14754 0.87158 0.0
C538 C 0.52824 0.30429 0.07962 0.0
C539 C 0.52707 0.31586 0.01653 0.0
C540 C 0.52845 0.27703 0.07981 0.0
C541 C 0.52759 0.26036 0.01697 0.0
C542 C 0.52624 0.27177 0.95395 0.0
C543 C 0.52612 0.29904 0.95368 0.0
C544 C 0.52803 0.23117 0.0169 0.0
C545 C 0.50323 0.212 0.97973 0.0
C546 C 0.5526 0.22207 0.05345 0.0
C547 C 0.58077 0.24092 0.09007 0.0
C548 C 0.60158 0.25991 0.05395 0.0
C549 C 0.62806 0.27767 0.08878 0.0
C550 C 0.63414 0.27653 0.15964 0.0
C551 C 0.61378 0.25757 0.19579 0.0
C552 C 0.58724 0.23977 0.16121 0.0
C553 C 0.5547 0.10884 0.99989 0.0
C554 C 0.52643 0.09056 0.01755 0.0
C555 C 0.55466 0.13612 0.00047 0.0
C556 C 0.52629 0.14607 0.01824 0.0
C557 C 0.49814 0.12792 0.03698 0.0
C558 C 0.49818 0.10057 0.03653 0.0
C559 C 0.52629 0.17527 0.01659 0.0
C560 C 0.55124 0.19444 0.05328 0.0
C561 C 0.5022 0.18438 0.97856 0.0
C562 C 0.47637 0.16558 0.93492 0.0
C563 C 0.4429 0.16564 0.94595 0.0
C564 C 0.4185 0.14778 0.90517 0.0
C565 C 0.42731 0.12986 0.85294 0.0
C566 C 0.46053 0.12983 0.84117 0.0
C567 C 0.48501 0.14767 0.88174 0.0
H568 H 0.40839 0.11603 0.82148 0.0
H569 H 0.65466 0.2903 0.18651 0.0
loop_
_geom_bond_atom_site_label_1
_geom_bond_atom_site_label_2
_geom_bond_distance
_geom_bond_site_symmetry_2
_ccdc_geom_bond_type
Ho0 C3 2.811 . S
Ho0 O20 2.322 . S
Ho0 O22 2.378 . S
Ho0 O23 2.524 1_556 S
Ho0 O24 2.381 . S
Ho0 O25 2.669 1_655 S
Ho0 O27 2.346 1_655 S
Ho0 O31 2.305 1_556 S
Ho1 C12 2.811 . S
Ho1 O21 2.346 1_455 S
Ho1 O25 2.305 1_554 S
Ho1 O26 2.322 . S
Ho1 O28 2.378 . S
Ho1 O29 2.524 1_554 S
Ho1 O30 2.381 . S
Ho1 O31 2.669 1_455 S
C2 O20 1.259 . S
C2 O21 1.268 1_556 S
C3 Ho0 2.811 . S
C3 C4 1.488 . S
C3 O22 1.215 . S
C3 O23 1.289 1_556 S
C4 C3 1.488 . S
C4 C5 1.348 1_556 S
C4 C9 1.413 . S
C5 C4 1.348 1_554 S
C5 C6 1.442 . S
C5 H32 0.930 . S
C6 C5 1.442 . S
C6 C7 1.381 1_554 S
C6 H33 0.931 . S
C7 C6 1.381 1_556 S
C7 C8 1.321 . S
C8 C7 1.321 . S
C8 C9 1.403 . S
C8 H34 0.934 . S
C9 C4 1.413 . S
C9 C8 1.403 . S
C9 H35 0.930 . S
C10 O24 1.271 1_455 S
C10 O25 1.260 . S
C11 O26 1.259 . S
C11 O27 1.268 1_554 S
C12 Ho1 2.811 . S
C12 C13 1.488 . S
C12 O28 1.215 . S
C12 O29 1.289 1_554 S
C13 C12 1.488 . S
C13 C14 1.348 1_554 S
C13 C18 1.413 . S
C14 C13 1.348 1_556 S
C14 C15 1.442 . S
C14 H36 0.930 . S
C15 C14 1.442 . S
C15 C16 1.381 1_556 S
C15 H37 0.931 . S
C16 C15 1.381 1_554 S
C16 C17 1.321 . S
C17 C16 1.321 . S
C17 C18 1.403 . S
C17 H38 0.934 . S
C18 C13 1.413 . S
C18 C17 1.403 . S
C18 H39 0.930 . S
C19 O30 1.275 . S
C19 O31 1.256 1_455 S
O20 Ho0 2.322 . S
O20 C2 1.259 . S
O21 Ho1 2.346 1_655 S
O21 C2 1.268 1_554 S
O22 Ho0 2.378 . S
O22 C3 1.215 . S
O23 Ho0 2.524 1_554 S
O23 C3 1.289 1_554 S
O24 Ho0 2.381 . S
O24 C10 1.271 1_655 S
O25 Ho0 2.669 1_455 S
O25 Ho1 2.305 1_556 S
O25 C10 1.260 . S
O26 Ho1 2.322 . S
O26 C11 1.259 . S
O27 Ho0 2.346 1_455 S
O27 C11 1.268 1_556 S
O28 Ho1 2.378 . S
O28 C12 1.215 . S
O29 Ho1 2.524 1_556 S
O29 C12 1.289 1_556 S
O30 Ho1 2.381 . S
O30 C19 1.275 . S
O31 Ho0 2.305 1_554 S
O31 Ho1 2.669 1_655 S
O31 C19 1.256 1_655 S
H32 C5 0.930 . S
H33 C6 0.931 . S
H34 C8 0.934 . S
H35 C9 0.930 . S
H36 C14 0.930 . S
H37 C15 0.931 . S
H38 C17 0.934 . S
H39 C18 0.930 . S
Ho40 C43 2.812 . S
Ho40 O60 2.322 . S
Ho40 O62 2.378 . S
Ho40 O63 2.524 1_554 S
Ho40 O64 2.381 . S
Ho40 O65 2.669 1_545 S
Ho40 O67 2.346 1_545 S
Ho40 O71 2.305 1_554 S
Ho41 C52 2.811 . S
Ho41 O61 2.346 1_565 S
Ho41 O65 2.305 1_556 S
Ho41 O66 2.322 . S
Ho41 O68 2.378 . S
Ho41 O69 2.524 1_556 S
Ho41 O70 2.381 . S
Ho41 O71 2.669 1_565 S
C42 O60 1.259 . S
C42 O61 1.268 1_554 S
C43 Ho40 2.812 . S
C43 C44 1.487 1_554 S
C43 O62 1.221 . S
C43 O63 1.285 1_554 S
C44 C43 1.487 1_556 S
C44 C45 1.348 . S
C44 C49 1.413 1_556 S
C45 C44 1.348 . S
C45 C46 1.442 . S
C45 H72 0.930 . S
C46 C45 1.442 . S
C46 C47 1.381 . S
C46 H73 0.931 . S
C47 C46 1.381 . S
C47 C48 1.321 1_556 S
C48 C47 1.321 1_554 S
C48 C49 1.403 . S
C48 H74 0.934 . S
C49 C44 1.413 1_554 S
C49 C48 1.403 . S
C49 H75 0.930 . S
C50 O64 1.275 . S
C50 O65 1.256 1_545 S
C51 O66 1.259 . S
C51 O67 1.268 1_556 S
C52 Ho41 2.811 . S
C52 C53 1.488 1_556 S
C52 O68 1.214 . S
C52 O69 1.290 1_556 S
C53 C52 1.488 1_554 S
C53 C54 1.348 . S
C53 C58 1.413 1_554 S
C54 C53 1.348 . S
C54 C55 1.442 . S
C54 H76 0.930 . S
C55 C54 1.442 . S
C55 C56 1.381 . S
C55 H77 0.931 . S
C56 C55 1.381 . S
C56 C57 1.321 1_554 S
C57 C56 1.321 1_556 S
C57 C58 1.403 . S
C57 H78 0.934 . S
C58 C53 1.413 1_556 S
C58 C57 1.403 . S
C58 H79 0.930 . S
C59 O70 1.275 . S
C59 O71 1.256 1_565 S
O60 Ho40 2.322 . S
O60 C42 1.259 . S
O61 Ho41 2.346 1_545 S
O61 C42 1.268 1_556 S
O62 Ho40 2.378 . S
O62 C43 1.221 . S
O63 Ho40 2.524 1_556 S
O63 C43 1.285 1_556 S
O64 Ho40 2.381 . S
O64 C50 1.275 . S
O65 Ho40 2.669 1_565 S
O65 Ho41 2.305 1_554 S
O65 C50 1.256 1_565 S
O66 Ho41 2.322 . S
O66 C51 1.259 . S
O67 Ho40 2.346 1_565 S
O67 C51 1.268 1_554 S
O68 Ho41 2.378 . S
O68 C52 1.214 . S
O69 Ho41 2.524 1_554 S
O69 C52 1.290 1_554 S
O70 Ho41 2.381 . S
O70 C59 1.275 . S
O71 Ho40 2.305 1_556 S
O71 Ho41 2.669 1_545 S
O71 C59 1.256 1_545 S
H72 C45 0.930 . S
H73 C46 0.931 . S
H74 C48 0.934 . S
H75 C49 0.930 . S
H76 C54 0.930 . S
H77 C55 0.931 . S
H78 C57 0.934 . S
H79 C58 0.930 . S
Ho80 C83 2.811 . S
Ho80 O100 2.322 . S
Ho80 O102 2.378 . S
Ho80 O103 2.524 1_554 S
Ho80 O104 2.381 . S
Ho80 O105 2.669 . S
Ho80 O107 2.346 . S
Ho80 O111 2.305 1_554 S
Ho81 C92 2.811 . S
Ho81 O101 2.346 . S
Ho81 O105 2.305 1_556 S
Ho81 O106 2.322 . S
Ho81 O108 2.378 . S
Ho81 O109 2.524 1_556 S
Ho81 O110 2.381 . S
Ho81 O111 2.669 . S
C82 O100 1.259 . S
C82 O101 1.268 1_554 S
C83 Ho80 2.811 . S
C83 C84 1.488 . S
C83 O102 1.215 . S
C83 O103 1.289 1_554 S
C84 C83 1.488 . S
C84 C85 1.348 1_554 S
C84 C89 1.413 . S
C85 C84 1.348 1_556 S
C85 C86 1.442 . S
C85 H112 0.930 . S
C86 C85 1.442 . S
C86 C87 1.381 1_556 S
C86 H113 0.931 . S
C87 C86 1.381 1_554 S
C87 C88 1.321 . S
C88 C87 1.321 . S
C88 C89 1.403 . S
C88 H114 0.934 . S
C89 C84 1.413 . S
C89 C88 1.403 . S
C89 H115 0.930 . S
C90 O104 1.275 . S
C90 O105 1.256 . S
C91 O106 1.259 . S
C91 O107 1.268 1_556 S
C92 Ho81 2.811 . S
C92 C93 1.488 . S
C92 O108 1.215 . S
C92 O109 1.289 1_556 S
C93 C92 1.488 . S
C93 C94 1.348 1_556 S
C93 C98 1.413 . S
C94 C93 1.348 1_554 S
C94 C95 1.442 . S
C94 H116 0.930 . S
C95 C94 1.442 . S
C95 C96 1.381 1_554 S
C95 H117 0.931 . S
C96 C95 1.381 1_556 S
C96 C97 1.321 . S
C97 C96 1.321 . S
C97 C98 1.403 . S
C97 H118 0.934 . S
C98 C93 1.413 . S
C98 C97 1.403 . S
C98 H119 0.930 . S
C99 O110 1.275 . S
C99 O111 1.256 . S
O100 Ho80 2.322 . S
O100 C82 1.259 . S
O101 Ho81 2.346 . S
O101 C82 1.268 1_556 S
O102 Ho80 2.378 . S
O102 C83 1.215 . S
O103 Ho80 2.524 1_556 S
O103 C83 1.289 1_556 S
O104 Ho80 2.381 . S
O104 C90 1.275 . S
O105 Ho80 2.669 . S
O105 Ho81 2.305 1_554 S
O105 C90 1.256 . S
O106 Ho81 2.322 . S
O106 C91 1.259 . S
O107 Ho80 2.346 . S
O107 C91 1.268 1_554 S
O108 Ho81 2.378 . S
O108 C92 1.215 . S
O109 Ho81 2.524 1_554 S
O109 C92 1.289 1_554 S
O110 Ho81 2.381 . S
O110 C99 1.275 . S
O111 Ho80 2.305 1_556 S
O111 Ho81 2.669 . S
O111 C99 1.256 . S
H112 C85 0.930 . S
H113 C86 0.931 . S
H114 C88 0.934 . S
H115 C89 0.930 . S
H116 C94 0.930 . S
H117 C95 0.931 . S
H118 C97 0.934 . S
H119 C98 0.930 . S
H120 C138 0.951 . S
H121 C140 0.951 . S
H122 C142 0.950 . S
H123 C143 0.950 . S
H124 C145 0.950 . S
H125 C148 0.950 . S
H126 C149 0.950 . S
H127 C151 0.950 . S
H128 C152 0.950 . S
H129 C153 0.951 . S
H130 C155 0.951 . S
H131 C157 0.950 . S
H132 C158 0.950 . S
H133 C160 0.950 . S
H134 C163 0.950 . S
H135 C164 0.950 . S
H136 C166 0.950 . S
H137 C167 0.950 . S
C138 H120 0.951 . S
C138 C139 1.366 1_655 S
C138 C140 1.388 . S
C139 C138 1.366 1_455 S
C139 C143 1.385 . S
C140 H121 0.951 . S
C140 C138 1.388 . S
C140 C141 1.366 1_655 S
C141 C140 1.366 1_455 S
C141 C142 1.414 . S
C141 C144 1.499 . S
C142 H122 0.950 . S
C142 C141 1.414 . S
C142 C143 1.374 . S
C143 H123 0.950 . S
C143 C139 1.385 . S
C143 C142 1.374 . S
C144 C141 1.499 . S
C144 C145 1.373 . S
C144 C146 1.389 1_455 S
C145 H124 0.950 . S
C145 C144 1.373 . S
C145 C161 1.377 . S
C146 C144 1.389 1_655 S
C146 C147 1.524 . S
C146 C160 1.377 . S
C147 C146 1.524 . S
C147 C148 1.397 . S
C147 C152 1.363 . S
C148 H125 0.950 . S
C148 C147 1.397 . S
C148 C149 1.334 . S
C149 H126 0.950 . S
C149 C148 1.334 . S
C149 C150 1.287 . S
C150 C149 1.287 . S
C150 C151 1.524 . S
C150 H169 0.913 . S
C151 H127 0.950 . S
C151 C150 1.524 . S
C151 C152 1.415 . S
C152 H128 0.950 . S
C152 C147 1.363 . S
C152 C151 1.415 . S
C153 H129 0.951 . S
C153 C154 1.346 1_455 S
C153 C155 1.388 . S
C154 C153 1.346 1_655 S
C154 C158 1.404 . S
C155 H130 0.951 . S
C155 C153 1.388 . S
C155 C156 1.366 . S
C156 C155 1.366 . S
C156 C157 1.414 1_455 S
C156 C159 1.500 . S
C157 H131 0.950 . S
C157 C156 1.414 1_655 S
C157 C158 1.374 . S
C158 H132 0.950 . S
C158 C154 1.404 . S
C158 C157 1.374 . S
C159 C156 1.500 . S
C159 C160 1.343 1_455 S
C159 C161 1.420 . S
C160 H133 0.950 . S
C160 C146 1.377 . S
C160 C159 1.343 1_655 S
C161 C145 1.377 . S
C161 C159 1.420 . S
C161 C162 1.524 . S
C162 C161 1.524 . S
C162 C163 1.397 . S
C162 C167 1.363 . S
C163 H134 0.950 . S
C163 C162 1.397 . S
C163 C164 1.334 . S
C164 H135 0.950 . S
C164 C163 1.334 . S
C164 C165 1.287 . S
C165 C164 1.287 . S
C165 C166 1.524 . S
C165 H168 0.999 . S
C166 H136 0.950 . S
C166 C165 1.524 . S
C166 C167 1.415 . S
C167 H137 0.950 . S
C167 C162 1.363 . S
C167 C166 1.415 . S
H168 C165 0.999 . S
H169 C150 0.913 . S
H170 C188 0.951 . S
H171 C190 0.951 . S
H172 C192 0.950 . S
H173 C193 0.950 . S
H174 C195 0.950 . S
H175 C198 0.950 . S
H176 C199 0.950 . S
H177 C201 0.950 . S
H178 C202 0.950 . S
H179 C203 0.951 . S
H180 C205 0.951 . S
H181 C207 0.950 . S
H182 C208 0.950 . S
H183 C210 0.950 . S
H184 C213 0.950 . S
H185 C214 0.950 . S
H186 C216 0.950 . S
H187 C217 0.950 . S
C188 H170 0.951 . S
C188 C189 1.351 1_565 S
C188 C190 1.388 . S
C189 C188 1.351 1_545 S
C189 C193 1.398 . S
C190 H171 0.951 . S
C190 C188 1.388 . S
C190 C191 1.362 1_565 S
C191 C190 1.362 1_545 S
C191 C192 1.418 . S
C191 C194 1.502 . S
C192 H172 0.950 . S
C192 C191 1.418 . S
C192 C193 1.374 . S
C193 H173 0.950 . S
C193 C189 1.398 . S
C193 C192 1.374 . S
C194 C191 1.502 . S
C194 C195 1.391 . S
C194 C196 1.367 1_545 S
C195 H174 0.950 . S
C195 C194 1.391 . S
C195 C211 1.377 . S
C196 C194 1.367 1_565 S
C196 C197 1.524 . S
C196 C210 1.377 . S
C197 C196 1.524 . S
C197 C198 1.397 . S
C197 C202 1.363 . S
C198 H175 0.950 . S
C198 C197 1.397 . S
C198 C199 1.334 . S
C199 H176 0.950 . S
C199 C198 1.334 . S
C199 C200 1.287 . S
C200 C199 1.287 . S
C200 C201 1.524 . S
C200 H219 0.913 . S
C201 H177 0.950 . S
C201 C200 1.524 . S
C201 C202 1.415 . S
C202 H178 0.950 . S
C202 C197 1.363 . S
C202 C201 1.415 . S
C203 H179 0.951 . S
C203 C204 1.361 1_545 S
C203 C205 1.388 . S
C204 C203 1.361 1_565 S
C204 C208 1.388 . S
C205 H180 0.951 . S
C205 C203 1.388 . S
C205 C206 1.363 . S
C206 C205 1.363 . S
C206 C207 1.417 1_545 S
C206 C209 1.501 1_545 S
C207 H181 0.950 . S
C207 C206 1.417 1_565 S
C207 C208 1.374 . S
C208 H182 0.950 . S
C208 C204 1.388 . S
C208 C207 1.374 . S
C209 C206 1.501 1_565 S
C209 C210 1.386 . S
C209 C211 1.373 1_565 S
C210 H183 0.950 . S
C210 C196 1.377 . S
C210 C209 1.386 . S
C211 C195 1.377 . S
C211 C209 1.373 1_545 S
C211 C212 1.524 . S
C212 C211 1.524 . S
C212 C213 1.397 . S
C212 C217 1.363 . S
C213 H184 0.950 . S
C213 C212 1.397 . S
C213 C214 1.334 . S
C214 H185 0.950 . S
C214 C213 1.334 . S
C214 C215 1.287 . S
C215 C214 1.287 . S
C215 C216 1.524 . S
C215 H218 0.999 . S
C216 H186 0.950 . S
C216 C215 1.524 . S
C216 C217 1.415 . S
C217 H187 0.950 . S
C217 C212 1.363 . S
C217 C216 1.415 . S
H218 C215 0.999 . S
H219 C200 0.913 . S
H220 C238 0.951 . S
H221 C240 0.951 . S
H222 C242 0.950 . S
H223 C243 0.950 . S
H224 C245 0.950 . S
H225 C248 0.950 . S
H226 C249 0.950 . S
H227 C251 0.950 . S
H228 C252 0.950 . S
H229 C253 0.951 . S
H230 C255 0.951 . S
H231 C257 0.950 . S
H232 C258 0.950 . S
H233 C260 0.950 . S
H234 C263 0.950 . S
H235 C264 0.950 . S
H236 C266 0.950 . S
H237 C267 0.950 . S
C238 H220 0.951 . S
C238 C239 1.366 . S
C238 C240 1.388 . S
C239 C238 1.366 . S
C239 C243 1.385 . S
C240 H221 0.951 . S
C240 C238 1.388 . S
C240 C241 1.366 . S
C241 C240 1.366 . S
C241 C242 1.414 . S
C241 C244 1.499 . S
C242 H222 0.950 . S
C242 C241 1.414 . S
C242 C243 1.374 . S
C243 H223 0.950 . S
C243 C239 1.385 . S
C243 C242 1.374 . S
C244 C241 1.499 . S
C244 C245 1.373 . S
C244 C246 1.389 . S
C245 H224 0.950 . S
C245 C244 1.373 . S
C245 C261 1.377 . S
C246 C244 1.389 . S
C246 C247 1.524 . S
C246 C260 1.377 . S
C247 C246 1.524 . S
C247 C248 1.397 . S
C247 C252 1.363 . S
C248 H225 0.950 . S
C248 C247 1.397 . S
C248 C249 1.334 . S
C249 H226 0.950 . S
C249 C248 1.334 . S
C249 C250 1.287 . S
C250 C249 1.287 . S
C250 C251 1.524 . S
C250 H269 0.913 . S
C251 H227 0.950 . S
C251 C250 1.524 . S
C251 C252 1.415 . S
C252 H228 0.950 . S
C252 C247 1.363 . S
C252 C251 1.415 . S
C253 H229 0.951 . S
C253 C254 1.366 . S
C253 C255 1.388 . S
C254 C253 1.366 . S
C254 C258 1.385 . S
C255 H230 0.951 . S
C255 C253 1.388 . S
C255 C256 1.366 . S
C256 C255 1.366 . S
C256 C257 1.414 . S
C256 C259 1.499 . S
C257 H231 0.950 . S
C257 C256 1.414 . S
C257 C258 1.374 . S
C258 H232 0.950 . S
C258 C254 1.385 . S
C258 C257 1.374 . S
C259 C256 1.499 . S
C259 C260 1.373 . S
C259 C261 1.389 . S
C260 H233 0.950 . S
C260 C246 1.377 . S
C260 C259 1.373 . S
C261 C245 1.377 . S
C261 C259 1.389 . S
C261 C262 1.524 . S
C262 C261 1.524 . S
C262 C263 1.397 . S
C262 C267 1.363 . S
C263 H234 0.950 . S
C263 C262 1.397 . S
C263 C264 1.334 . S
C264 H235 0.950 . S
C264 C263 1.334 . S
C264 C265 1.287 . S
C265 C264 1.287 . S
C265 C266 1.524 . S
C265 H268 0.999 . S
C266 H236 0.950 . S
C266 C265 1.524 . S
C266 C267 1.415 . S
C267 H237 0.950 . S
C267 C262 1.363 . S
C267 C266 1.415 . S
H268 C265 0.999 . S
H269 C250 0.913 . S
H270 C288 0.951 . S
H271 C290 0.951 . S
H272 C292 0.950 . S
H273 C293 0.950 . S
H274 C295 0.950 . S
H275 C298 0.950 1_556 S
H276 C299 0.950 1_556 S
H277 C301 0.950 . S
H278 C302 0.950 . S
H279 C303 0.951 . S
H280 C305 0.951 . S
H281 C307 0.950 . S
H282 C308 0.950 . S
H283 C310 0.950 . S
H284 C313 0.950 1_554 S
H285 C314 0.950 . S
H286 C316 0.950 . S
H287 C317 0.950 . S
C288 H270 0.951 . S
C288 C289 1.366 1_554 S
C288 C290 1.388 . S
C289 C288 1.366 1_556 S
C289 C293 1.385 . S
C290 H271 0.951 . S
C290 C288 1.388 . S
C290 C291 1.366 1_554 S
C291 C290 1.366 1_556 S
C291 C292 1.414 . S
C291 C294 1.499 . S
C292 H272 0.950 . S
C292 C291 1.414 . S
C292 C293 1.374 . S
C293 H273 0.950 . S
C293 C289 1.385 . S
C293 C292 1.374 . S
C294 C291 1.499 . S
C294 C295 1.373 . S
C294 C296 1.389 1_556 S
C295 H274 0.950 . S
C295 C294 1.373 . S
C295 C311 1.377 . S
C296 C294 1.389 1_554 S
C296 C297 1.524 . S
C296 C310 1.377 . S
C297 C296 1.524 . S
C297 C298 1.397 . S
C297 C302 1.363 . S
C298 H275 0.950 1_554 S
C298 C297 1.397 . S
C298 C299 1.334 . S
C299 H276 0.950 1_554 S
C299 C298 1.334 . S
C299 C300 1.287 . S
C300 C299 1.287 . S
C300 C301 1.524 . S
C300 H319 0.913 . S
C301 H277 0.950 . S
C301 C300 1.524 . S
C301 C302 1.415 . S
C302 H278 0.950 . S
C302 C297 1.363 . S
C302 C301 1.415 . S
C303 H279 0.951 . S
C303 C304 1.366 . S
C303 C305 1.388 . S
C304 C303 1.366 . S
C304 C308 1.385 1_556 S
C305 H280 0.951 . S
C305 C303 1.388 . S
C305 C306 1.366 . S
C306 C305 1.366 . S
C306 C307 1.414 1_556 S
C306 C309 1.499 . S
C307 H281 0.950 . S
C307 C306 1.414 1_554 S
C307 C308 1.374 . S
C308 H282 0.950 . S
C308 C304 1.385 1_554 S
C308 C307 1.374 . S
C309 C306 1.499 . S
C309 C310 1.373 1_556 S
C309 C311 1.389 . S
C310 H283 0.950 . S
C310 C296 1.377 . S
C310 C309 1.373 1_554 S
C311 C295 1.377 . S
C311 C309 1.389 . S
C311 C312 1.524 . S
C312 C311 1.524 . S
C312 C313 1.397 . S
C312 C317 1.363 . S
C313 H284 0.950 1_556 S
C313 C312 1.397 . S
C313 C314 1.334 . S
C314 H285 0.950 . S
C314 C313 1.334 . S
C314 C315 1.287 . S
C315 C314 1.287 . S
C315 C316 1.524 . S
C315 H318 0.999 . S
C316 H286 0.950 . S
C316 C315 1.524 . S
C316 C317 1.415 . S
C317 H287 0.950 . S
C317 C312 1.363 . S
C317 C316 1.415 . S
H318 C315 0.999 . S
H319 C300 0.913 . S
H320 C338 0.951 . S
H321 C340 0.951 . S
H322 C342 0.950 . S
H323 C343 0.950 . S
H324 C345 0.950 . S
H325 C348 0.950 . S
H326 C349 0.950 . S
H327 C351 0.950 . S
H328 C352 0.950 . S
H329 C353 0.951 . S
H330 C355 0.951 . S
H331 C357 0.950 . S
H332 C358 0.950 . S
H333 C360 0.950 . S
H334 C363 0.950 . S
H335 C364 0.950 . S
H336 C366 0.950 . S
H337 C367 0.950 . S
C338 H320 0.951 . S
C338 C339 1.366 . S
C338 C340 1.388 . S
C339 C338 1.366 . S
C339 C343 1.385 1_556 S
C340 H321 0.951 . S
C340 C338 1.388 . S
C340 C341 1.366 . S
C341 C340 1.366 . S
C341 C342 1.414 1_556 S
C341 C344 1.499 . S
C342 H322 0.950 . S
C342 C341 1.414 1_554 S
C342 C343 1.374 . S
C343 H323 0.950 . S
C343 C339 1.385 1_554 S
C343 C342 1.374 . S
C344 C341 1.499 . S
C344 C345 1.373 1_556 S
C344 C346 1.389 . S
C345 H324 0.950 . S
C345 C344 1.373 1_554 S
C345 C361 1.377 . S
C346 C344 1.389 . S
C346 C347 1.524 . S
C346 C360 1.377 . S
C347 C346 1.524 . S
C347 C348 1.397 . S
C347 C352 1.363 . S
C348 H325 0.950 . S
C348 C347 1.397 . S
C348 C349 1.334 . S
C349 H326 0.950 . S
C349 C348 1.334 . S
C349 C350 1.287 . S
C350 C349 1.287 . S
C350 C351 1.524 . S
C350 H369 0.913 . S
C351 H327 0.950 . S
C351 C350 1.524 . S
C351 C352 1.415 . S
C352 H328 0.950 . S
C352 C347 1.363 . S
C352 C351 1.415 . S
C353 H329 0.951 . S
C353 C354 1.366 1_554 S
C353 C355 1.388 . S
C354 C353 1.366 1_556 S
C354 C358 1.385 . S
C355 H330 0.951 . S
C355 C353 1.388 . S
C355 C356 1.368 . S
C356 C355 1.368 . S
C356 C357 1.411 1_554 S
C356 C359 1.500 1_554 S
C357 H331 0.950 . S
C357 C356 1.411 1_556 S
C357 C358 1.374 . S
C358 H332 0.950 . S
C358 C354 1.385 . S
C358 C357 1.374 . S
C359 C356 1.500 1_556 S
C359 C360 1.382 . S
C359 C361 1.380 1_556 S
C360 H333 0.950 . S
C360 C346 1.377 . S
C360 C359 1.382 . S
C361 C345 1.377 . S
C361 C359 1.380 1_554 S
C361 C362 1.524 . S
C362 C361 1.524 . S
C362 C363 1.397 . S
C362 C367 1.363 . S
C363 H334 0.950 . S
C363 C362 1.397 . S
C363 C364 1.334 . S
C364 H335 0.950 . S
C364 C363 1.334 . S
C364 C365 1.287 . S
C365 C364 1.287 . S
C365 C366 1.524 . S
C365 H368 0.999 . S
C366 H336 0.950 . S
C366 C365 1.524 . S
C366 C367 1.415 . S
C367 H337 0.950 . S
C367 C362 1.363 . S
C367 C366 1.415 . S
H368 C365 0.999 . S
H369 C350 0.913 . S
H370 C388 0.951 . S
H371 C390 0.951 . S
H372 C392 0.950 . S
H373 C393 0.950 . S
H374 C395 0.950 . S
H375 C398 0.950 . S
H376 C399 0.950 . S
H377 C401 0.950 . S
H378 C402 0.950 . S
H379 C403 0.951 . S
H380 C405 0.951 . S
H381 C407 0.950 . S
H382 C408 0.950 . S
H383 C410 0.950 . S
H384 C413 0.950 . S
H385 C414 0.950 . S
H386 C416 0.950 . S
H387 C417 0.950 . S
C388 H370 0.951 . S
C388 C389 1.366 1_554 S
C388 C390 1.388 . S
C389 C388 1.366 1_556 S
C389 C393 1.385 . S
C390 H371 0.951 . S
C390 C388 1.388 . S
C390 C391 1.366 1_554 S
C391 C390 1.366 1_556 S
C391 C392 1.414 . S
C391 C394 1.499 . S
C392 H372 0.950 . S
C392 C391 1.414 . S
C392 C393 1.374 . S
C393 H373 0.950 . S
C393 C389 1.385 . S
C393 C392 1.374 . S
C394 C391 1.499 . S
C394 C395 1.373 1_556 S
C394 C396 1.389 . S
C395 H374 0.950 . S
C395 C394 1.373 1_554 S
C395 C411 1.377 . S
C396 C394 1.389 . S
C396 C397 1.524 . S
C396 C410 1.377 . S
C397 C396 1.524 . S
C397 C398 1.397 . S
C397 C402 1.363 . S
C398 H375 0.950 . S
C398 C397 1.397 . S
C398 C399 1.334 . S
C399 H376 0.950 . S
C399 C398 1.334 . S
C399 C400 1.287 . S
C400 C399 1.287 . S
C400 C401 1.524 . S
C400 H419 0.913 . S
C401 H377 0.950 . S
C401 C400 1.524 . S
C401 C402 1.415 . S
C402 H378 0.950 . S
C402 C397 1.363 . S
C402 C401 1.415 . S
C403 H379 0.951 . S
C403 C404 1.365 1_556 S
C403 C405 1.388 . S
C404 C403 1.365 1_554 S
C404 C408 1.385 . S
C405 H380 0.951 . S
C405 C403 1.388 . S
C405 C406 1.366 1_556 S
C406 C405 1.366 1_554 S
C406 C407 1.414 . S
C406 C409 1.499 . S
C407 H381 0.950 . S
C407 C406 1.414 . S
C407 C408 1.374 . S
C408 H382 0.950 . S
C408 C404 1.385 . S
C408 C407 1.374 . S
C409 C406 1.499 . S
C409 C410 1.373 1_554 S
C409 C411 1.389 . S
C410 H383 0.950 . S
C410 C396 1.377 . S
C410 C409 1.373 1_556 S
C411 C395 1.377 . S
C411 C409 1.389 . S
C411 C412 1.524 . S
C412 C411 1.524 . S
C412 C413 1.397 . S
C412 C417 1.363 . S
C413 H384 0.950 . S
C413 C412 1.397 . S
C413 C414 1.334 . S
C414 H385 0.950 . S
C414 C413 1.334 . S
C414 C415 1.287 . S
C415 C414 1.287 . S
C415 C416 1.524 . S
C415 H418 0.999 . S
C416 H386 0.950 . S
C416 C415 1.524 . S
C416 C417 1.415 . S
C417 H387 0.950 . S
C417 C412 1.363 . S
C417 C416 1.415 . S
H418 C415 0.999 . S
H419 C400 0.913 . S
H420 C438 0.951 . S
H421 C440 0.951 . S
H422 C442 0.950 . S
H423 C443 0.950 . S
H424 C445 0.950 . S
H425 C448 0.950 . S
H426 C449 0.950 . S
H427 C451 0.950 . S
H428 C452 0.950 . S
H429 C453 0.951 . S
H430 C455 0.951 . S
H431 C457 0.950 . S
H432 C458 0.950 . S
H433 C460 0.950 . S
H434 C463 0.950 . S
H435 C464 0.950 . S
H436 C466 0.950 . S
H437 C467 0.950 . S
C438 H420 0.951 . S
C438 C439 1.366 1_556 S
C438 C440 1.388 . S
C439 C438 1.366 1_554 S
C439 C443 1.385 . S
C440 H421 0.951 . S
C440 C438 1.388 . S
C440 C441 1.366 1_556 S
C441 C440 1.366 1_554 S
C441 C442 1.414 . S
C441 C444 1.499 . S
C442 H422 0.950 . S
C442 C441 1.414 . S
C442 C443 1.374 . S
C443 H423 0.950 . S
C443 C439 1.385 . S
C443 C442 1.374 . S
C444 C441 1.499 . S
C444 C445 1.373 . S
C444 C446 1.389 1_554 S
C445 H424 0.950 . S
C445 C444 1.373 . S
C445 C461 1.377 . S
C446 C444 1.389 1_556 S
C446 C447 1.524 . S
C446 C460 1.377 . S
C447 C446 1.524 . S
C447 C448 1.397 . S
C447 C452 1.363 . S
C448 H425 0.950 . S
C448 C447 1.397 . S
C448 C449 1.334 . S
C449 H426 0.950 . S
C449 C448 1.334 . S
C449 C450 1.287 . S
C450 C449 1.287 . S
C450 C451 1.524 . S
C450 H469 0.913 . S
C451 H427 0.950 . S
C451 C450 1.524 . S
C451 C452 1.415 . S
C452 H428 0.950 . S
C452 C447 1.363 . S
C452 C451 1.415 . S
C453 H429 0.951 . S
C453 C454 1.366 . S
C453 C455 1.388 . S
C454 C453 1.366 . S
C454 C458 1.385 1_554 S
C455 H430 0.951 . S
C455 C453 1.388 . S
C455 C456 1.366 . S
C456 C455 1.366 . S
C456 C457 1.414 1_554 S
C456 C459 1.499 . S
C457 H431 0.950 . S
C457 C456 1.414 1_556 S
C457 C458 1.374 . S
C458 H432 0.950 . S
C458 C454 1.385 1_556 S
C458 C457 1.374 . S
C459 C456 1.499 . S
C459 C460 1.373 1_554 S
C459 C461 1.389 . S
C460 H433 0.950 . S
C460 C446 1.377 . S
C460 C459 1.373 1_556 S
C461 C445 1.377 . S
C461 C459 1.389 . S
C461 C462 1.524 . S
C462 C461 1.524 . S
C462 C463 1.397 . S
C462 C467 1.363 . S
C463 H434 0.950 . S
C463 C462 1.397 . S
C463 C464 1.334 . S
C464 H435 0.950 . S
C464 C463 1.334 . S
C464 C465 1.287 . S
C465 C464 1.287 . S
C465 C466 1.524 . S
C465 H468 0.999 . S
C466 H436 0.950 . S
C466 C465 1.524 . S
C466 C467 1.415 . S
C467 H437 0.950 . S
C467 C462 1.363 . S
C467 C466 1.415 . S
H468 C465 0.999 . S
H469 C450 0.913 . S
H470 C488 0.951 . S
H471 C490 0.951 . S
H472 C492 0.950 . S
H473 C493 0.950 . S
H474 C495 0.950 . S
H475 C498 0.950 . S
H476 C499 0.950 . S
H477 C501 0.950 . S
H478 C502 0.950 . S
H479 C503 0.951 . S
H480 C505 0.951 . S
H481 C507 0.950 . S
H482 C508 0.950 . S
H483 C510 0.950 . S
H484 C513 0.950 . S
H485 C514 0.950 . S
H486 C516 0.950 . S
H487 C517 0.950 . S
C488 H470 0.951 . S
C488 C489 1.366 . S
C488 C490 1.388 . S
C489 C488 1.366 . S
C489 C493 1.385 1_554 S
C490 H471 0.951 . S
C490 C488 1.388 . S
C490 C491 1.364 1_554 S
C491 C490 1.364 1_556 S
C491 C492 1.414 . S
C491 C494 1.500 . S
C492 H472 0.950 . S
C492 C491 1.414 . S
C492 C493 1.374 . S
C493 H473 0.950 . S
C493 C489 1.385 1_556 S
C493 C492 1.374 . S
C494 C491 1.500 . S
C494 C495 1.373 1_556 S
C494 C496 1.389 . S
C495 H474 0.950 . S
C495 C494 1.373 1_554 S
C495 C511 1.377 . S
C496 C494 1.389 . S
C496 C497 1.524 . S
C496 C510 1.377 . S
C497 C496 1.524 . S
C497 C498 1.397 . S
C497 C502 1.363 . S
C498 H475 0.950 . S
C498 C497 1.397 . S
C498 C499 1.334 . S
C499 H476 0.950 . S
C499 C498 1.334 . S
C499 C500 1.287 . S
C500 C499 1.287 . S
C500 C501 1.524 . S
C500 H519 0.913 . S
C501 H477 0.950 . S
C501 C500 1.524 . S
C501 C502 1.415 . S
C502 H478 0.950 . S
C502 C497 1.363 . S
C502 C501 1.415 . S
C503 H479 0.951 . S
C503 C504 1.366 1_556 S
C503 C505 1.388 . S
C504 C503 1.366 1_554 S
C504 C508 1.385 . S
C505 H480 0.951 . S
C505 C503 1.388 . S
C505 C506 1.366 1_556 S
C506 C505 1.366 1_554 S
C506 C507 1.414 . S
C506 C509 1.499 . S
C507 H481 0.950 . S
C507 C506 1.414 . S
C507 C508 1.374 . S
C508 H482 0.950 . S
C508 C504 1.385 . S
C508 C507 1.374 . S
C509 C506 1.499 . S
C509 C510 1.373 1_554 S
C509 C511 1.389 . S
C510 H483 0.950 . S
C510 C496 1.377 . S
C510 C509 1.373 1_556 S
C511 C495 1.377 . S
C511 C509 1.389 . S
C511 C512 1.524 . S
C512 C511 1.524 . S
C512 C513 1.397 . S
C512 C517 1.363 . S
C513 H484 0.950 . S
C513 C512 1.397 . S
C513 C514 1.334 . S
C514 H485 0.950 . S
C514 C513 1.334 . S
C514 C515 1.287 . S
C515 C514 1.287 . S
C515 C516 1.524 . S
C515 H518 0.999 . S
C516 H486 0.950 . S
C516 C515 1.524 . S
C516 C517 1.415 . S
C517 H487 0.950 . S
C517 C512 1.363 . S
C517 C516 1.415 . S
H518 C515 0.999 . S
H519 C500 0.913 . S
H520 C538 0.951 . S
H521 C540 0.951 . S
H522 C542 0.950 . S
H523 C543 0.950 . S
H524 C545 0.950 . S
H525 C548 0.950 1_556 S
H526 C549 0.950 . S
H527 C551 0.950 . S
H528 C552 0.950 . S
H529 C553 0.951 . S
H530 C555 0.951 . S
H531 C557 0.950 . S
H532 C558 0.950 . S
H533 C560 0.950 . S
H534 C563 0.950 1_554 S
H535 C564 0.950 . S
H536 C566 0.950 . S
H537 C567 0.950 . S
C538 H520 0.951 . S
C538 C539 1.366 1_554 S
C538 C540 1.388 . S
C539 C538 1.366 1_556 S
C539 C543 1.384 . S
C540 H521 0.951 . S
C540 C538 1.388 . S
C540 C541 1.362 1_554 S
C541 C540 1.362 1_556 S
C541 C542 1.418 . S
C541 C544 1.498 . S
C542 H522 0.950 . S
C542 C541 1.418 . S
C542 C543 1.374 . S
C543 H523 0.950 . S
C543 C539 1.384 . S
C543 C542 1.374 . S
C544 C541 1.498 . S
C544 C545 1.373 . S
C544 C546 1.389 1_556 S
C545 H524 0.950 . S
C545 C544 1.373 . S
C545 C561 1.377 . S
C546 C544 1.389 1_554 S
C546 C547 1.524 . S
C546 C560 1.377 . S
C547 C546 1.524 . S
C547 C548 1.397 . S
C547 C552 1.363 . S
C548 H525 0.950 1_554 S
C548 C547 1.397 . S
C548 C549 1.334 . S
C549 H526 0.950 . S
C549 C548 1.334 . S
C549 C550 1.287 . S
C550 C549 1.287 . S
C550 C551 1.524 . S
C550 H569 0.913 . S
C551 H527 0.950 . S
C551 C550 1.524 . S
C551 C552 1.415 . S
C552 H528 0.950 . S
C552 C547 1.363 . S
C552 C551 1.415 . S
C553 H529 0.951 . S
C553 C554 1.366 1_556 S
C553 C555 1.388 . S
C554 C553 1.366 1_554 S
C554 C558 1.385 . S
C555 H530 0.951 . S
C555 C553 1.388 . S
C555 C556 1.366 1_556 S
C556 C555 1.366 1_554 S
C556 C557 1.414 . S
C556 C559 1.499 . S
C557 H531 0.950 . S
C557 C556 1.414 . S
C557 C558 1.374 . S
C558 H532 0.950 . S
C558 C554 1.385 . S
C558 C557 1.374 . S
C559 C556 1.499 . S
C559 C560 1.373 . S
C559 C561 1.389 1_554 S
C560 H533 0.950 . S
C560 C546 1.377 . S
C560 C559 1.373 . S
C561 C545 1.377 . S
C561 C559 1.389 1_556 S
C561 C562 1.524 . S
C562 C561 1.524 . S
C562 C563 1.397 . S
C562 C567 1.363 . S
C563 H534 0.950 1_556 S
C563 C562 1.397 . S
C563 C564 1.334 . S
C564 H535 0.950 . S
C564 C563 1.334 . S
C564 C565 1.287 . S
C565 C564 1.287 . S
C565 C566 1.524 . S
C565 H568 0.999 . S
C566 H536 0.950 . S
C566 C565 1.524 . S
C566 C567 1.415 . S
C567 H537 0.950 . S
C567 C562 1.363 . S
C567 C566 1.415 . S
H568 C565 0.999 . S
H569 C550 0.913 . S
C139 C10 1.464 . S
C154 C19 1.463 1_655 S
C189 C50 1.461 . S
C204 C59 1.459 . S
C239 C99 1.465 . S
C254 C90 1.465 . S
C289 C11 2.616 1_556 S
C304 C82 2.585 1_556 S
C339 C47 0.885 . S
C354 C7 0.884 . S
C389 C51 1.943 . S
C404 C87 1.914 . S
C439 C2 2.617 1_554 S
C454 C91 2.585 1_554 S
C489 C16 0.884 . S
C504 C56 0.885 . S
C539 C96 1.913 . S
C554 C42 1.943 . S
