# Generated by pormake.
# Topology sxa, (6)-cn, num edge types: 1
# Building blocks:
#     Node 0, Type 0, BuildingBlock: VOLQOD_clean_sbu_1, # of connection points: 6
#     Node 1, Type 0, BuildingBlock: VOLQOD_clean_sbu_1, # of connection points: 6
#     Node 2, Type 0, BuildingBlock: VOLQOD_clean_sbu_1, # of connection points: 6
#     Node 3, Type 0, BuildingBlock: VOLQOD_clean_sbu_1, # of connection points: 6
#     Edge 4, Type (0, 0), BuildingBlock: TEMPAE_clean_linker_10, # of connection points: 2
#     Edge 5, Type (0, 0), BuildingBlock: TEMPAE_clean_linker_10, # of connection points: 2
#     Edge 6, Type (0, 0), BuildingBlock: TEMPAE_clean_linker_10, # of connection points: 2
#     Edge 7, Type (0, 0), BuildingBlock: TEMPAE_clean_linker_10, # of connection points: 2
#     Edge 8, Type (0, 0), BuildingBlock: TEMPAE_clean_linker_10, # of connection points: 2
#     Edge 9, Type (0, 0), BuildingBlock: TEMPAE_clean_linker_10, # of connection points: 2
#     Edge 10, Type (0, 0), BuildingBlock: TEMPAE_clean_linker_10, # of connection points: 2
#     Edge 11, Type (0, 0), BuildingBlock: TEMPAE_clean_linker_10, # of connection points: 2
#     Edge 12, Type (0, 0), BuildingBlock: TEMPAE_clean_linker_10, # of connection points: 2
#     Edge 13, Type (0, 0), BuildingBlock: TEMPAE_clean_linker_10, # of connection points: 2
#     Edge 14, Type (0, 0), BuildingBlock: TEMPAE_clean_linker_10, # of connection points: 2
#     Edge 15, Type (0, 0), BuildingBlock: TEMPAE_clean_linker_10, # of connection points: 2
# Relax obj value: 0.229
# Max RMSD: 0.203
# Mean RMSD: 0.203
data_MOF--net-sxa--node1-VOLQOD_clean_sbu_1--edge1-TEMPAE_clean_linker_10
_symmetry_space_group_name_H-M    P1
_symmetry_Int_Tables_number       1
_symmetry_cell_setting            triclinic
loop_
_symmetry_equiv_pos_as_xyz
'x, y, z'
_cell_length_a     25.050865
_cell_length_b     30.686278
_cell_length_c     18.72681
_cell_angle_alpha  89.835179
_cell_angle_beta   92.003092
_cell_angle_gamma 90.065542
loop_
_atom_site_label
_atom_site_type_symbol
_atom_site_fract_x
_atom_site_fract_y
_atom_site_fract_z
_atom_type_partial_charge
O0 O 0.93124 0.71757 0.33573 0.0
Zn1 Zn 0.00497 0.70373 0.29634 0.0
O2 O 0.0181 0.74667 0.22455 0.0
Zn3 Zn 0.05769 0.72263 0.14965 0.0
Zn4 Zn 0.95322 0.76644 0.18086 0.0
Zn5 Zn 0.05808 0.79476 0.26106 0.0
O6 O 0.13638 0.7324 0.16417 0.0
O7 O 0.1351 0.78578 0.24345 0.0
O8 O 0.00572 0.64139 0.24673 0.0
O9 O 0.04192 0.66009 0.14417 0.0
O10 O 0.02869 0.74643 0.05735 0.0
O11 O 0.94517 0.73377 0.08788 0.0
O12 O 0.96215 0.82942 0.14925 0.0
O13 O 0.06293 0.71785 0.37466 0.0
O14 O 0.03579 0.85131 0.2083 0.0
O15 O 0.0586 0.79054 0.36786 0.0
C16 C 0.89124 0.73994 0.31192 0.0
C17 C 0.16066 0.75935 0.20542 0.0
C18 C 0.97989 0.73917 0.04011 0.0
C19 C 0.0209 0.63166 0.18376 0.0
C20 C -0.00258 0.85857 0.16283 0.0
C21 C 0.07591 0.75578 0.39886 0.0
O22 O 0.89253 0.75944 0.25137 0.0
O23 O 0.43171 0.27016 0.316 0.0
Zn24 Zn 0.50555 0.26607 0.27148 0.0
O25 O 0.51869 0.31944 0.22007 0.0
Zn26 Zn 0.55118 0.30733 0.13115 0.0
Zn27 Zn 0.45323 0.35036 0.20028 0.0
Zn28 Zn 0.56772 0.35737 0.27059 0.0
O29 O 0.63039 0.31606 0.1351 0.0
O30 O 0.64263 0.34718 0.24084 0.0
O31 O 0.5087 0.21231 0.20139 0.0
O32 O 0.53725 0.2457 0.10453 0.0
O33 O 0.51679 0.34146 0.05267 0.0
O34 O 0.43523 0.34045 0.09659 0.0
O35 O 0.46697 0.41546 0.20018 0.0
O36 O 0.56234 0.2661 0.35309 0.0
O37 O 0.55072 0.42094 0.24231 0.0
O38 O 0.57352 0.3375 0.37322 0.0
C39 C 0.39229 0.29663 0.30985 0.0
C40 C 0.66116 0.33119 0.18446 0.0
C41 C 0.46639 0.34444 0.04428 0.0
C42 C 0.52104 0.21145 0.13535 0.0
C43 C 0.50899 0.43814 0.21257 0.0
C44 C 0.58165 0.29759 0.39099 0.0
O45 O 0.39392 0.32938 0.26718 0.0
O46 O 0.06953 0.22011 0.66907 0.0
Zn47 Zn 0.01274 0.20429 0.74528 0.0
O48 O 0.02425 0.2467 0.81916 0.0
Zn49 Zn 0.062 0.22316 0.90037 0.0
Zn50 Zn 0.06328 0.29499 0.78596 0.0
Zn51 Zn 0.96022 0.2659 0.85835 0.0
O52 O 0.03258 0.24859 0.99036 0.0
O53 O 0.95087 0.23287 0.94934 0.0
O54 O 0.01403 0.1418 0.79532 0.0
O55 O 0.0435 0.16102 0.9044 0.0
O56 O 0.14113 0.22946 0.88942 0.0
O57 O 0.1386 0.28272 0.80899 0.0
O58 O 0.04247 0.35111 0.83907 0.0
O59 O 0.93754 0.21647 0.70272 0.0
O60 O 0.96836 0.32883 0.89002 0.0
O61 O 0.89987 0.25726 0.78568 0.0
C62 C 0.08276 0.25831 0.6467 0.0
C63 C 0.98365 0.24037 1.0015 0.0
C64 C 0.16444 0.25516 0.84699 0.0
C65 C 0.02512 0.13239 0.86128 0.0
C66 C 0.00374 0.35804 0.88054 0.0
C67 C 0.89745 0.23751 0.72566 0.0
O68 O 0.06688 0.29273 0.67842 0.0
O69 O 0.574 0.76862 0.6892 0.0
Zn70 Zn 0.51841 0.76662 0.76838 0.0
O71 O 0.52836 0.81994 0.82269 0.0
Zn72 Zn 0.56271 0.80812 0.9146 0.0
Zn73 Zn 0.57126 0.86113 0.77228 0.0
Zn74 Zn 0.46172 0.84756 0.84005 0.0
O75 O 0.52445 0.83592 0.99496 0.0
O76 O 0.44389 0.83538 0.94067 0.0
O77 O 0.52424 0.71237 0.83771 0.0
O78 O 0.55471 0.74507 0.93662 0.0
O79 O 0.64101 0.82272 0.91407 0.0
O80 O 0.64524 0.85665 0.80969 0.0
O81 O 0.54967 0.92405 0.79689 0.0
O82 O 0.44339 0.76837 0.72078 0.0
O83 O 0.46981 0.91298 0.84143 0.0
O84 O 0.40368 0.825 0.77116 0.0
C85 C 0.59224 0.8007 0.65305 0.0
C86 C 0.47377 0.83789 0.99706 0.0
C87 C 0.6677 0.84125 0.86584 0.0
C88 C 0.53855 0.71091 0.90422 0.0
C89 C 0.50824 0.93845 0.82726 0.0
C90 C 0.40267 0.79303 0.72748 0.0
O91 O 0.58291 0.84033 0.67065 0.0
C92 C 0.04852 0.4243 0.93566 0.0
C93 C 0.00263 0.3984 0.92541 0.0
C94 C 0.04952 0.45983 0.98339 0.0
C95 C 0.00329 0.4705 0.02142 0.0
C96 C 0.95668 0.44478 1.01077 0.0
C97 C 0.95707 0.40894 0.96375 0.0
C98 C 0.10022 0.4861 0.99311 0.0
C99 C 0.90602 0.4556 0.04824 0.0
C100 C 0.02043 0.54864 0.18144 0.0
C101 C 0.0092 0.5889 0.14876 0.0
C102 C 0.01763 0.5095 0.14131 0.0
C103 C 0.00255 0.51072 0.06728 0.0
C104 C 0.98865 0.55121 0.03554 0.0
C105 C 0.99225 0.58943 0.07635 0.0
C106 C 0.03183 0.46701 0.17778 0.0
C107 C 0.97192 0.55458 0.95739 0.0
H108 H 0.08426 0.41623 0.90752 0.0
H109 H 0.92141 0.38913 0.95698 0.0
H110 H 0.09305 0.52014 0.97512 0.0
H111 H 0.1126 0.48729 0.05056 0.0
H112 H 0.13357 0.47243 0.96267 0.0
H113 H 0.87348 0.43188 0.03583 0.0
H114 H 0.91388 0.45626 0.10689 0.0
H115 H 0.89198 0.48857 0.03209 0.0
H116 H 0.0337 0.54792 0.23713 0.0
H117 H 0.98301 0.6204 0.05069 0.0
H118 H 0.06056 0.44835 0.14604 0.0
H119 H -0.00473 0.44688 0.18179 0.0
H120 H 0.04935 0.47196 0.23247 0.0
H121 H 0.00583 0.54533 0.92404 0.0
H122 H 0.95891 0.58803 0.94204 0.0
H123 H 0.9387 0.53166 0.94459 0.0
C124 C 0.56223 0.50071 0.16357 0.0
C125 C 0.51236 0.4821 0.17774 0.0
C126 C 0.56652 0.53741 0.11846 0.0
C127 C 0.51986 0.55667 0.08699 0.0
C128 C 0.46932 0.53915 0.10338 0.0
C129 C 0.46621 0.50214 0.14795 0.0
C130 C 0.62125 0.55489 0.10283 0.0
C131 C 0.4184 0.55896 0.07252 0.0
C132 C 0.52934 0.67467 0.02324 0.0
C133 C 0.53292 0.67051 0.94864 0.0
C134 C 0.5246 0.6382 0.0682 0.0
C135 C 0.52387 0.59581 0.03867 0.0
C136 C 0.52711 0.59115 0.96337 0.0
C137 C 0.53111 0.62851 0.91919 0.0
C138 C 0.52004 0.64522 0.14758 0.0
C139 C 0.52688 0.54659 0.92957 0.0
H140 H 0.5983 0.4854 0.18512 0.0
H141 H 0.42742 0.48815 0.15792 0.0
H142 H 0.62765 0.55333 0.04455 0.0
H143 H 0.62428 0.58964 0.11868 0.0
H144 H 0.65367 0.53642 0.13131 0.0
H145 H 0.38219 0.54254 0.09223 0.0
H146 H 0.41654 0.59406 0.08631 0.0
H147 H 0.41776 0.55671 1.01339 0.0
H148 H 0.52967 0.70685 0.04699 0.0
H149 H 0.53372 0.62479 0.86189 0.0
H150 H 0.55208 0.62721 0.17744 0.0
H151 H 0.48129 0.63225 0.16523 0.0
H152 H 0.52277 0.6802 0.16244 0.0
H153 H 0.56082 0.5271 0.95202 0.0
H154 H 0.52993 0.54824 0.87059 0.0
H155 H 0.48966 0.52901 0.94226 0.0
C156 C 0.46113 1.00153 0.88343 0.0
C157 C 0.50884 0.98261 0.86107 0.0
C158 C 0.46147 0.03868 0.92765 0.0
C159 C 0.51072 0.05718 0.9518 0.0
C160 C 0.55898 0.03895 0.92797 0.0
C161 C 0.55746 1.00228 0.88256 0.0
C162 C 0.409 0.05764 0.94972 0.0
C163 C 0.61243 0.05757 0.95194 0.0
C164 C 0.51446 0.17529 1.01548 0.0
C165 C 0.51588 0.17114 0.09049 0.0
C166 C 0.51263 0.13877 0.97031 0.0
C167 C 0.5118 0.09637 1.00011 0.0
C168 C 0.51236 0.09171 0.07575 0.0
C169 C 0.51412 0.12909 0.12003 0.0
C170 C 0.51118 0.14583 0.89039 0.0
C171 C 0.51203 0.04714 0.10989 0.0
H172 H 0.42332 0.98657 0.86769 0.0
H173 H 0.59463 0.98767 0.86691 0.0
H174 H 0.40627 0.05588 1.00866 0.0
H175 H 0.40666 0.09256 0.9344 0.0
H176 H 0.37412 0.04032 0.92489 0.0
H177 H 0.64636 0.03952 0.92943 0.0
H178 H 0.61509 0.09224 0.93545 0.0
H179 H 0.61656 0.05658 1.01112 0.0
H180 H 0.51481 0.20748 0.99146 0.0
H181 H 0.51524 0.12535 0.17762 0.0
H182 H 0.4707 0.13786 0.86819 0.0
H183 H 0.53992 0.12411 0.86426 0.0
H184 H 0.52067 0.18002 0.87594 0.0
H185 H 0.4761 1.02876 0.091 0.0
H186 H 0.51236 0.0488 0.16915 0.0
H187 H 0.54746 1.02842 0.09363 0.0
C188 C 0.95294 0.90946 0.07268 0.0
C189 C -0.00279 0.89912 0.11789 0.0
C190 C 0.95398 0.94502 0.02479 0.0
C191 C 0.00053 0.97114 0.02125 0.0
C192 C 0.04531 0.96093 0.06675 0.0
C193 C 0.04306 0.92535 0.11447 0.0
C194 C 0.90487 0.955 0.9787 0.0
C195 C 0.09583 0.98772 0.06503 0.0
C196 C 0.02451 0.04934 0.8641 0.0
C197 C 0.01177 0.08958 0.89435 0.0
C198 C 0.01977 1.01016 0.90381 0.0
C199 C 0.00116 1.01129 0.9748 0.0
C200 C 0.98561 0.05173 1.00352 0.0
C201 C 0.9912 0.09001 0.96329 0.0
C202 C 0.03564 0.9677 0.87031 0.0
C203 C 0.96515 0.05502 0.07828 0.0
H204 H 0.91722 0.88965 0.07463 0.0
H205 H 0.07783 0.91754 0.14812 0.0
H206 H 0.88754 0.98648 0.99526 0.0
H207 H 0.91559 0.9585 0.92199 0.0
H208 H 0.87378 0.92933 0.98261 0.0
H209 H 0.12798 0.97458 0.10133 0.0
H210 H 0.1106 0.98877 1.00986 0.0
H211 H 0.08736 1.02177 0.0809 0.0
H212 H 0.04046 0.04868 0.81106 0.0
H213 H 0.98067 0.12093 0.98694 0.0
H214 H -0.00059 0.94762 0.85984 0.0
H215 H 0.06268 0.94897 0.90718 0.0
H216 H 0.05575 0.97272 0.81898 0.0
H217 H 0.93165 1.03192 0.08534 0.0
H218 H 0.9512 0.0884 0.09087 0.0
H219 H -0.0026 0.04597 0.11766 0.0
C220 C 0.30343 0.79945 0.70575 0.0
C221 C 0.3531 0.78455 0.68338 0.0
C222 C 0.25635 0.7925 0.66407 0.0
C223 C 0.25896 0.77101 0.59741 0.0
C224 C 0.30895 0.75564 0.57472 0.0
C225 C 0.35522 0.76209 0.61833 0.0
C226 C 0.20388 0.80878 0.69093 0.0
C227 C 0.31383 0.73353 0.50331 0.0
C228 C 0.13289 0.72626 0.502 0.0
C229 C 0.11964 0.76026 0.45437 0.0
C230 C 0.17732 0.72962 0.55015 0.0
C231 C 0.21016 0.76733 0.54924 0.0
C232 C 0.19689 0.80164 0.50119 0.0
C233 C 0.15162 0.79794 0.45526 0.0
C234 C 0.18947 0.69267 0.60145 0.0
C235 C 0.23126 0.84201 0.49702 0.0
H236 H 0.30125 0.81645 0.75623 0.0
H237 H 0.39341 0.75063 0.60042 0.0
H238 H 0.18817 0.83515 0.65546 0.0
H239 H 0.17389 0.78212 0.68964 0.0
H240 H 0.20785 0.82159 0.74628 0.0
H241 H 0.35545 0.72328 0.49353 0.0
H242 H 0.2876 0.70441 0.50028 0.0
H243 H 0.30033 0.75597 0.45976 0.0
H244 H 0.10863 0.69698 0.50148 0.0
H245 H 0.14248 0.82415 0.41789 0.0
H246 H 0.19248 0.70513 0.65702 0.0
H247 H 0.22864 0.67802 0.58966 0.0
H248 H 0.15851 0.66673 0.59835 0.0
H249 H 0.23163 0.85947 0.5488 0.0
H250 H 0.21697 0.86478 0.45428 0.0
H251 H 0.27311 0.83282 0.48671 0.0
C252 C 0.15779 0.30011 0.59252 0.0
C253 C 0.12395 0.26345 0.59079 0.0
C254 C 0.20015 0.30459 0.54538 0.0
C255 C 0.20837 0.27246 0.49263 0.0
C256 C 0.17362 0.2358 0.48937 0.0
C257 C 0.13255 0.23136 0.5391 0.0
C258 C 0.23709 0.34332 0.55351 0.0
C259 C 0.18023 0.20094 0.43382 0.0
C260 C 0.2948 0.3087 0.33722 0.0
C261 C 0.34445 0.28946 0.3549 0.0
C262 C 0.24991 0.30213 0.37987 0.0
C263 C 0.25468 0.27671 0.4433 0.0
C264 C 0.30477 0.25725 0.46136 0.0
C265 C 0.34844 0.26327 0.41664 0.0
C266 C 0.19719 0.32236 0.35683 0.0
C267 C 0.31281 0.22977 0.52789 0.0
H268 H 0.1525 0.32483 0.63289 0.0
H269 H 0.10705 0.2028 0.5373 0.0
H270 H 0.27932 0.33237 0.55682 0.0
H271 H 0.23241 0.36479 0.50599 0.0
H272 H 0.22904 0.36281 0.60187 0.0
H273 H 0.14663 0.17727 0.43267 0.0
H274 H 0.18307 0.21589 0.38003 0.0
H275 H 0.21792 0.18293 0.44533 0.0
H276 H 0.29079 0.32861 0.28944 0.0
H277 H 0.38631 0.24803 0.43116 0.0
H278 H 0.18574 0.34731 0.39616 0.0
H279 H 0.16535 0.29715 0.35528 0.0
H280 H 0.19864 0.33803 0.30339 0.0
H281 H 0.35554 0.22857 0.54581 0.0
H282 H 0.2996 0.19595 0.51611 0.0
H283 H 0.28915 0.24201 0.57256 0.0
C284 C 0.79959 0.25383 0.71082 0.0
C285 C 0.84765 0.2412 0.68045 0.0
C286 C 0.75302 0.26072 0.66827 0.0
C287 C 0.75461 0.25564 0.59326 0.0
C288 C 0.80268 0.24204 0.56237 0.0
C289 C 0.84845 0.23458 0.60638 0.0
C290 C 0.70245 0.27456 0.70344 0.0
C291 C 0.80628 0.23682 0.48251 0.0
C292 C 0.62728 0.24525 0.47682 0.0
C293 C 0.62122 0.28779 0.44994 0.0
C294 C 0.66945 0.23455 0.52536 0.0
C295 C 0.70702 0.26697 0.54663 0.0
C296 C 0.70022 0.31019 0.52127 0.0
C297 C 0.65727 0.32013 0.47384 0.0
C298 C 0.67471 0.18829 0.55224 0.0
C299 C 0.73965 0.34566 0.54184 0.0
H300 H 0.79844 0.25873 0.76805 0.0
H301 H 0.88541 0.22506 0.58238 0.0
H302 H 0.69169 0.30818 0.68644 0.0
H303 H 0.66881 0.253 0.68637 0.0
H304 H 0.70664 0.27379 0.76269 0.0
H305 H 0.84637 0.22565 0.46685 0.0
H306 H 0.776 0.21302 0.46247 0.0
H307 H 0.79741 0.26836 0.45553 0.0
H308 H 0.59969 0.22003 0.45878 0.0
H309 H 0.65343 0.353 0.45299 0.0
H310 H 0.67858 0.18785 0.61144 0.0
H311 H 0.71148 0.17343 0.53175 0.0
H312 H 0.63999 0.16778 0.53523 0.0
H313 H 0.74382 0.34827 0.60083 0.0
H314 H 0.7276 0.37796 0.51974 0.0
H315 H 0.77957 0.33735 0.52191 0.0
C316 C 0.8474 0.73566 0.43115 0.0
C317 C 0.84385 0.74577 0.35783 0.0
C318 C 0.80473 0.74396 0.47641 0.0
C319 C 0.7565 0.7622 0.44795 0.0
C320 C 0.75209 0.77144 0.37369 0.0
C321 C 0.79577 0.7635 0.32982 0.0
C322 C 0.81183 0.73417 0.55526 0.0
C323 C 0.70137 0.79032 0.34066 0.0
C324 C 0.6331 0.75085 0.56245 0.0
C325 C 0.63057 0.79194 0.59512 0.0
C326 C 0.67261 0.74118 0.51287 0.0
C327 C 0.7116 0.77293 0.49644 0.0
C328 C 0.70885 0.8146 0.52868 0.0
C329 C 0.66827 0.82368 0.57681 0.0
C330 C 0.67328 0.69661 0.47911 0.0
C331 C 0.74998 0.84924 0.51432 0.0
H332 H 0.88427 0.72228 0.45385 0.0
H333 H 0.79227 0.77141 0.27341 0.0
H334 H 0.80738 0.76457 0.58644 0.0
H335 H 0.78037 0.71128 0.5722 0.0
H336 H 0.8515 0.71973 0.56914 0.0
H337 H 0.70304 0.79347 0.28167 0.0
H338 H 0.66677 0.76947 0.35354 0.0
H339 H 0.69405 0.82302 0.36344 0.0
H340 H 0.60438 0.72601 0.57613 0.0
H341 H 0.66746 0.85531 0.60235 0.0
H342 H 0.71019 0.67908 0.49664 0.0
H343 H 0.67374 0.69967 0.42007 0.0
H344 H 0.63824 0.67659 0.49343 0.0
H345 H 0.79007 0.83775 0.53307 0.0
H346 H 0.74135 0.88044 0.54151 0.0
H347 H 0.75178 0.85544 0.45607 0.0
C348 C 0.46144 0.80449 0.11593 0.0
C349 C 0.44772 0.83682 0.06566 0.0
C350 C 0.42439 0.79121 0.16612 0.0
C351 C 0.3732 0.8107 0.16445 0.0
C352 C 0.3633 0.84829 0.12192 0.0
C353 C 0.40083 0.86076 0.07247 0.0
C354 C 0.43763 0.75286 0.214 0.0
C355 C 0.30996 0.87128 0.12044 0.0
C356 C 0.24702 0.7461 0.14801 0.0
C357 C 0.21929 0.76281 0.20532 0.0
C358 C 0.30033 0.75752 0.13856 0.0
C359 C 0.32639 0.78588 0.18834 0.0
C360 C 0.30087 0.7977 0.2515 0.0
C361 C 0.24712 0.78644 0.25893 0.0
C362 C 0.32653 0.74315 0.07102 0.0
C363 C 0.32828 0.82536 0.30824 0.0
H364 H 0.49825 0.78632 0.111 0.0
H365 H 0.39111 0.88638 0.03414 0.0
H366 H 0.48105 0.75201 0.22826 0.0
H367 H 0.41482 0.75384 0.26372 0.0
H368 H 0.42738 0.7222 0.1854 0.0
H369 H 0.31118 0.90273 0.09098 0.0
H370 H 0.27924 0.85019 0.09386 0.0
H371 H 0.29723 0.87776 0.17548 0.0
H372 H 0.22599 0.72694 0.1074 0.0
H373 H 0.2263 0.79808 0.30498 0.0
H374 H 0.36654 0.7292 0.08373 0.0
H375 H 0.33199 0.7717 0.03545 0.0
H376 H 0.30241 0.71837 0.04113 0.0
H377 H 0.37237 0.82187 0.30819 0.0
H378 H 0.3142 0.81656 0.362 0.0
H379 H 0.31812 0.86011 0.29859 0.0
C380 C 0.25507 0.24095 0.89958 0.0
C381 C 0.22267 0.25491 0.84196 0.0
C382 C 0.30916 0.25222 0.90315 0.0
C383 C 0.33022 0.27814 0.8477 0.0
C384 C 0.29993 0.28496 0.78385 0.0
C385 C 0.24596 0.27348 0.78184 0.0
C386 C 0.34118 0.24197 0.97105 0.0
C387 C 0.3219 0.30913 0.72111 0.0
C388 C 0.39448 0.36298 0.9574 0.0
C389 C 0.44301 0.34209 0.97209 0.0
C390 C 0.35958 0.34693 0.90418 0.0
C391 C 0.3738 0.30853 0.86746 0.0
C392 C 0.42691 0.29331 0.87197 0.0
C393 C 0.46148 0.31038 0.92518 0.0
C394 C 0.30433 0.36645 0.89656 0.0
C395 C 0.44454 0.25496 0.82863 0.0
H396 H 0.23732 0.22509 0.94483 0.0
H397 H 0.2213 0.28212 0.73519 0.0
H398 H 0.38135 0.22964 0.95868 0.0
H399 H 0.34649 0.27207 1.00327 0.0
H400 H 0.32114 0.21721 1.00427 0.0
H401 H 0.30456 0.34239 0.71834 0.0
H402 H 0.36609 0.31179 0.72429 0.0
H403 H 0.30975 0.29235 0.67074 0.0
H404 H 0.38139 0.38852 0.99269 0.0
H405 H 0.49992 0.29499 0.93571 0.0
H406 H 0.2752 0.3448 0.92254 0.0
H407 H 0.29197 0.36965 0.83938 0.0
H408 H 0.30235 0.39911 0.92177 0.0
H409 H 0.43428 0.22428 0.85646 0.0
H410 H 0.48844 0.25549 0.82204 0.0
H411 H 0.42399 0.25462 0.77517 0.0
C412 C 0.74107 0.3248 0.11074 0.0
C413 C 0.71933 0.3267 0.17835 0.0
C414 C 0.79476 0.31412 0.10296 0.0
C415 C 0.82725 0.3042 0.16447 0.0
C416 C 0.80648 0.30899 0.23328 0.0
C417 C 0.75256 0.3204 0.23945 0.0
C418 C 0.81575 0.31103 0.02838 0.0
C419 C 0.83957 0.29932 0.3003 0.0
C420 C 0.92126 0.22257 0.09556 0.0
C421 C 0.96035 0.25054 0.07 0.0
C422 C 0.88117 0.23858 0.13849 0.0
C423 C 0.87997 0.28367 0.15403 0.0
C424 C 0.92441 0.31014 0.13851 0.0
C425 C 0.9646 0.29309 0.09635 0.0
C426 C 0.83575 0.20874 0.15704 0.0
C427 C 0.92569 0.35775 0.15801 0.0
H428 H 0.71558 0.33044 0.06362 0.0
H429 H 0.73578 0.32194 0.292 0.0
H430 H 0.85275 0.33065 0.02428 0.0
H431 H 0.82585 0.27668 1.01637 0.0
H432 H 0.78628 0.32267 0.98692 0.0
H433 H 0.82611 0.3192 0.34577 0.0
H434 H 0.83451 0.26451 0.31478 0.0
H435 H 0.88269 0.30543 0.29306 0.0
H436 H 0.91863 0.18946 0.07554 0.0
H437 H -0.00476 0.31458 0.07666 0.0
H438 H 0.80151 0.21438 0.11889 0.0
H439 H 0.82214 0.21559 0.21159 0.0
H440 H 0.8474 0.17389 0.15392 0.0
H441 H 0.89203 0.3749 0.13014 0.0
H442 H 0.96369 0.37363 0.14351 0.0
H443 H 0.92037 0.36152 0.21623 0.0
C444 C 0.97055 0.79089 0.94023 0.0
C445 C 0.95982 0.74954 0.96808 0.0
C446 C 0.93248 0.8115 0.89522 0.0
C447 C 0.88426 0.78929 0.87805 0.0
C448 C 0.88027 0.74403 0.89191 0.0
C449 C 0.91794 0.7247 0.93862 0.0
C450 C 0.94058 0.85858 0.87475 0.0
C451 C 0.8311 0.71827 0.86984 0.0
C452 C 0.75329 0.83377 0.93497 0.0
C453 C 0.72618 0.83873 0.86919 0.0
C454 C 0.80715 0.82213 0.93818 0.0
C455 C 0.83376 0.81407 0.87373 0.0
C456 C 0.80802 0.82318 0.80721 0.0
C457 C 0.75427 0.83577 0.80567 0.0
C458 C 0.83391 0.81479 1.01083 0.0
C459 C 0.83596 0.81672 0.73796 0.0
H460 H 0.0043 0.80943 0.96168 0.0
H461 H 0.91091 0.69212 0.95893 0.0
H462 H 0.95005 0.86028 0.81738 0.0
H463 H 0.90392 0.87805 0.88188 0.0
H464 H 0.97404 0.8738 0.90622 0.0
H465 H 0.7996 0.72383 0.90906 0.0
H466 H 0.81523 0.72871 0.81649 0.0
H467 H 0.83969 0.68277 0.86853 0.0
H468 H 0.73174 0.83699 0.98392 0.0
H469 H 0.73334 0.84013 0.75448 0.0
H470 H 0.87465 0.82889 1.01298 0.0
H471 H 0.83743 0.77928 0.02133 0.0
H472 H 0.81092 0.82947 0.05436 0.0
H473 H 0.8442 0.78158 0.7301 0.0
H474 H 0.87495 0.83391 0.73995 0.0
H475 H 0.81178 0.82882 0.69113 0.0
loop_
_geom_bond_atom_site_label_1
_geom_bond_atom_site_label_2
_geom_bond_distance
_geom_bond_site_symmetry_2
_ccdc_geom_bond_type
O0 Zn1 1.953 1_655 S
O0 C16 1.225 . S
Zn1 O0 1.953 1_455 S
Zn1 O2 1.949 . S
Zn1 O8 1.919 . S
Zn1 O13 1.924 . S
O2 Zn1 1.949 . S
O2 Zn3 1.923 . S
O2 Zn4 1.950 1_455 S
O2 Zn5 1.945 . S
Zn3 O2 1.923 . S
Zn3 O6 1.933 . S
Zn3 O9 1.941 . S
Zn3 O10 1.965 1_455 S
Zn4 O2 1.950 1_655 S
Zn4 O11 1.938 . S
Zn4 O12 1.906 . S
Zn4 O22 1.953 . S
Zn5 O2 1.945 . S
Zn5 O7 1.932 . S
Zn5 O14 1.977 . S
Zn5 O15 1.910 . S
O6 Zn3 1.933 . S
O6 C17 1.226 . S
O7 Zn5 1.932 . S
O7 C17 1.307 . S
O8 Zn1 1.919 . S
O8 C19 1.253 . S
O9 Zn3 1.941 . S
O9 C19 1.283 . S
O10 Zn3 1.965 1_655 S
O10 C18 1.303 . S
O11 Zn4 1.938 . S
O11 C18 1.247 . S
O12 Zn4 1.906 . S
O12 C20 1.305 1_655 S
O13 Zn1 1.924 . S
O13 C21 1.311 . S
O14 Zn5 1.977 . S
O14 C20 1.272 . S
O15 Zn5 1.910 . S
O15 C21 1.231 . S
C16 O0 1.225 . S
C16 O22 1.298 . S
C17 O6 1.226 . S
C17 O7 1.307 . S
C18 O10 1.303 . S
C18 O11 1.247 . S
C19 O8 1.253 . S
C19 O9 1.283 . S
C20 O12 1.305 1_455 S
C20 O14 1.272 . S
C21 O13 1.311 . S
C21 O15 1.231 . S
O22 Zn4 1.953 . S
O22 C16 1.298 . S
O23 Zn24 1.953 . S
O23 C39 1.225 . S
Zn24 O23 1.953 . S
Zn24 O25 1.949 . S
Zn24 O31 1.919 . S
Zn24 O36 1.924 . S
O25 Zn24 1.949 . S
O25 Zn26 1.923 . S
O25 Zn27 1.950 . S
O25 Zn28 1.945 . S
Zn26 O25 1.923 . S
Zn26 O29 1.933 . S
Zn26 O32 1.941 . S
Zn26 O33 1.965 . S
Zn27 O25 1.950 . S
Zn27 O34 1.938 . S
Zn27 O35 1.906 . S
Zn27 O45 1.953 . S
Zn28 O25 1.945 . S
Zn28 O30 1.932 . S
Zn28 O37 1.977 . S
Zn28 O38 1.910 . S
O29 Zn26 1.933 . S
O29 C40 1.226 . S
O30 Zn28 1.932 . S
O30 C40 1.307 . S
O31 Zn24 1.919 . S
O31 C42 1.253 . S
O32 Zn26 1.941 . S
O32 C42 1.283 . S
O33 Zn26 1.965 . S
O33 C41 1.303 . S
O34 Zn27 1.938 . S
O34 C41 1.247 . S
O35 Zn27 1.906 . S
O35 C43 1.304 . S
O36 Zn24 1.924 . S
O36 C44 1.311 . S
O37 Zn28 1.977 . S
O37 C43 1.272 . S
O38 Zn28 1.910 . S
O38 C44 1.231 . S
C39 O23 1.225 . S
C39 O45 1.298 . S
C40 O29 1.226 . S
C40 O30 1.307 . S
C41 O33 1.303 . S
C41 O34 1.247 . S
C42 O31 1.253 . S
C42 O32 1.283 . S
C43 O35 1.304 . S
C43 O37 1.272 . S
C44 O36 1.311 . S
C44 O38 1.231 . S
O45 Zn27 1.953 . S
O45 C39 1.298 . S
O46 Zn47 1.953 . S
O46 C62 1.225 . S
Zn47 O46 1.953 . S
Zn47 O48 1.949 . S
Zn47 O54 1.919 . S
Zn47 O59 1.924 1_455 S
O48 Zn47 1.949 . S
O48 Zn49 1.923 . S
O48 Zn50 1.950 . S
O48 Zn51 1.945 1_455 S
Zn49 O48 1.923 . S
Zn49 O52 1.933 1_455 S
Zn49 O55 1.941 . S
Zn49 O56 1.965 . S
Zn50 O48 1.950 . S
Zn50 O57 1.938 . S
Zn50 O58 1.906 . S
Zn50 O68 1.953 . S
Zn51 O48 1.945 1_655 S
Zn51 O53 1.932 . S
Zn51 O60 1.977 . S
Zn51 O61 1.910 . S
O52 Zn49 1.933 1_655 S
O52 C63 1.226 . S
O53 Zn51 1.932 . S
O53 C63 1.307 . S
O54 Zn47 1.919 . S
O54 C65 1.253 . S
O55 Zn49 1.941 . S
O55 C65 1.283 . S
O56 Zn49 1.965 . S
O56 C64 1.303 . S
O57 Zn50 1.938 . S
O57 C64 1.247 . S
O58 Zn50 1.906 . S
O58 C66 1.304 . S
O59 Zn47 1.924 1_655 S
O59 C67 1.311 . S
O60 Zn51 1.977 . S
O60 C66 1.272 1_655 S
O61 Zn51 1.910 . S
O61 C67 1.231 . S
C62 O46 1.225 . S
C62 O68 1.298 . S
C63 O52 1.226 . S
C63 O53 1.307 . S
C64 O56 1.303 . S
C64 O57 1.247 . S
C65 O54 1.253 . S
C65 O55 1.283 . S
C66 O58 1.304 . S
C66 O60 1.272 1_455 S
C67 O59 1.311 . S
C67 O61 1.231 . S
O68 Zn50 1.953 . S
O68 C62 1.298 . S
O69 Zn70 1.953 . S
O69 C85 1.225 . S
Zn70 O69 1.953 . S
Zn70 O71 1.949 . S
Zn70 O77 1.919 . S
Zn70 O82 1.924 . S
O71 Zn70 1.949 . S
O71 Zn72 1.923 . S
O71 Zn73 1.950 . S
O71 Zn74 1.945 . S
Zn72 O71 1.923 . S
Zn72 O75 1.933 . S
Zn72 O78 1.941 . S
Zn72 O79 1.965 . S
Zn73 O71 1.950 . S
Zn73 O80 1.938 . S
Zn73 O81 1.906 . S
Zn73 O91 1.953 . S
Zn74 O71 1.945 . S
Zn74 O76 1.932 . S
Zn74 O83 1.977 . S
Zn74 O84 1.910 . S
O75 Zn72 1.933 . S
O75 C86 1.226 . S
O76 Zn74 1.932 . S
O76 C86 1.307 . S
O77 Zn70 1.919 . S
O77 C88 1.253 . S
O78 Zn72 1.941 . S
O78 C88 1.283 . S
O79 Zn72 1.965 . S
O79 C87 1.303 . S
O80 Zn73 1.938 . S
O80 C87 1.247 . S
O81 Zn73 1.906 . S
O81 C89 1.304 . S
O82 Zn70 1.924 . S
O82 C90 1.311 . S
O83 Zn74 1.977 . S
O83 C89 1.272 . S
O84 Zn74 1.910 . S
O84 C90 1.231 . S
C85 O69 1.225 . S
C85 O91 1.298 . S
C86 O75 1.226 . S
C86 O76 1.307 . S
C87 O79 1.303 . S
C87 O80 1.247 . S
C88 O77 1.253 . S
C88 O78 1.283 . S
C89 O81 1.304 . S
C89 O83 1.272 . S
C90 O82 1.311 . S
C90 O84 1.231 . S
O91 Zn73 1.953 . S
O91 C85 1.298 . S
C92 C93 1.391 . S
C92 C94 1.394 1_556 S
C92 H108 0.931 . S
C93 C92 1.391 . S
C93 C97 1.376 . S
C94 C92 1.394 1_554 S
C94 C95 1.369 1_554 S
C94 C98 1.531 . S
C95 C94 1.369 1_556 S
C95 C96 1.410 . S
C95 C103 1.503 1_556 S
C96 C95 1.410 . S
C96 C97 1.392 . S
C96 C99 1.511 . S
C97 C93 1.376 . S
C97 C96 1.392 . S
C97 H109 0.929 . S
C98 C94 1.531 . S
C98 H110 0.960 . S
C98 H111 0.962 1_455 S
C98 H112 0.960 . S
C99 C96 1.511 . S
C99 H113 0.961 . S
C99 H114 0.961 . S
C99 H115 0.961 . S
C100 C101 1.370 1_655 S
C100 C102 1.363 . S
C100 H116 0.931 . S
C101 C100 1.370 1_455 S
C101 C105 1.408 . S
C102 C100 1.363 . S
C102 C103 1.370 1_655 S
C102 C106 1.524 1_554 S
C103 C95 1.503 1_554 S
C103 C102 1.370 1_455 S
C103 C104 1.403 . S
C104 C103 1.403 . S
C104 C105 1.404 . S
C104 C107 1.539 . S
C105 C101 1.408 . S
C105 C104 1.404 . S
C105 H117 0.930 . S
C106 C102 1.524 1_556 S
C106 H118 0.956 1_556 S
C106 H119 0.961 . S
C106 H120 0.958 1_556 S
C107 C104 1.539 . S
C107 H121 0.958 . S
C107 H122 0.961 . S
C107 H123 0.960 . S
H108 C92 0.931 . S
H109 C97 0.929 . S
H110 C98 0.960 . S
H111 C98 0.962 1_655 S
H112 C98 0.960 . S
H113 C99 0.961 . S
H114 C99 0.961 . S
H115 C99 0.961 . S
H116 C100 0.931 . S
H117 C105 0.930 . S
H118 C106 0.956 1_554 S
H119 C106 0.961 . S
H120 C106 0.958 1_554 S
H121 C107 0.958 . S
H122 C107 0.961 . S
H123 C107 0.960 . S
C124 C125 1.391 . S
C124 C126 1.394 . S
C124 H140 0.931 . S
C125 C124 1.391 . S
C125 C129 1.376 . S
C126 C124 1.394 . S
C126 C127 1.369 . S
C126 C130 1.531 1_554 S
C127 C126 1.369 . S
C127 C128 1.410 . S
C127 C135 1.503 1_554 S
C128 C127 1.410 . S
C128 C129 1.392 . S
C128 C131 1.511 . S
C129 C125 1.376 . S
C129 C128 1.392 . S
C129 H141 0.929 . S
C130 C126 1.531 1_556 S
C130 H142 0.960 . S
C130 H143 0.962 . S
C130 H144 0.960 . S
C131 C128 1.511 . S
C131 H145 0.961 . S
C131 H146 0.961 . S
C131 H147 0.961 . S
C132 C133 1.370 . S
C132 C134 1.363 . S
C132 H148 0.931 . S
C133 C132 1.370 . S
C133 C137 1.408 . S
C134 C132 1.363 . S
C134 C135 1.370 . S
C134 C138 1.524 1_556 S
C135 C127 1.503 1_556 S
C135 C134 1.370 . S
C135 C136 1.403 . S
C136 C135 1.403 . S
C136 C137 1.404 . S
C136 C139 1.539 . S
C137 C133 1.408 . S
C137 C136 1.404 . S
C137 H149 0.930 . S
C138 C134 1.524 1_554 S
C138 H150 0.956 . S
C138 H151 0.961 . S
C138 H152 0.961 . S
C139 C136 1.539 . S
C139 H153 0.958 . S
C139 H154 0.961 . S
C139 H155 0.960 . S
H140 C124 0.931 . S
H141 C129 0.929 . S
H142 C130 0.960 . S
H143 C130 0.962 . S
H144 C130 0.960 . S
H145 C131 0.961 . S
H146 C131 0.961 . S
H147 C131 0.961 . S
H148 C132 0.931 . S
H149 C137 0.930 . S
H150 C138 0.956 . S
H151 C138 0.961 . S
H152 C138 0.961 . S
H153 C139 0.958 . S
H154 C139 0.961 . S
H155 C139 0.960 . S
C156 C157 1.391 . S
C156 C158 1.394 . S
C156 H172 0.931 . S
C157 C156 1.391 . S
C157 C161 1.376 . S
C158 C156 1.394 . S
C158 C159 1.369 . S
C158 C162 1.531 1_556 S
C159 C158 1.369 . S
C159 C160 1.410 . S
C159 C167 1.503 1_566 S
C160 C159 1.410 . S
C160 C161 1.392 . S
C160 C163 1.511 . S
C161 C157 1.376 . S
C161 C160 1.392 . S
C161 H173 0.929 . S
C162 C158 1.531 1_554 S
C162 H174 0.960 . S
C162 H175 0.962 1_554 S
C162 H176 0.960 . S
C163 C160 1.511 . S
C163 H177 0.961 . S
C163 H178 0.961 1_565 S
C163 H179 0.961 1_556 S
C164 C165 1.370 . S
C164 C166 1.359 1_554 S
C164 H180 0.931 . S
C165 C164 1.370 . S
C165 C169 1.408 . S
C166 C164 1.359 1_556 S
C166 C167 1.367 1_556 S
C166 C170 1.532 . S
C167 C159 1.503 1_544 S
C167 C166 1.367 1_554 S
C167 C168 1.403 . S
C168 C167 1.403 . S
C168 C169 1.404 . S
C168 C171 1.539 1_545 S
C169 C165 1.408 . S
C169 C168 1.404 . S
C169 H181 0.930 . S
C170 C166 1.532 . S
C170 H182 0.956 . S
C170 H183 0.961 . S
C170 H184 0.961 . S
C171 C168 1.539 1_565 S
C171 H185 0.958 . S
C171 H186 0.961 . S
C171 H187 0.960 . S
H172 C156 0.931 . S
H173 C161 0.929 . S
H174 C162 0.960 . S
H175 C162 0.962 1_556 S
H176 C162 0.960 . S
H177 C163 0.961 . S
H178 C163 0.961 1_545 S
H179 C163 0.961 1_554 S
H180 C164 0.931 . S
H181 C169 0.930 . S
H182 C170 0.956 . S
H183 C170 0.961 . S
H184 C170 0.961 . S
H185 C171 0.958 . S
H186 C171 0.961 . S
H187 C171 0.960 . S
C188 C189 1.391 . S
C188 C190 1.394 . S
C188 H204 0.931 1_455 S
C189 C188 1.391 . S
C189 C193 1.376 . S
C190 C188 1.394 . S
C190 C191 1.369 . S
C190 C194 1.531 1_465 S
C191 C190 1.369 . S
C191 C192 1.410 . S
C191 C199 1.503 1_564 S
C192 C191 1.410 . S
C192 C193 1.392 . S
C192 C195 1.511 1_554 S
C193 C189 1.376 . S
C193 C192 1.392 . S
C193 H205 0.929 . S
C194 C190 1.531 1_645 S
C194 H206 0.960 . S
C194 H207 0.962 1_545 S
C194 H208 0.960 . S
C195 C192 1.511 1_556 S
C195 H209 0.961 . S
C195 H210 0.961 . S
C195 H211 0.961 1_556 S
C196 C197 1.370 . S
C196 C198 1.363 . S
C196 H212 0.931 1_455 S
C197 C196 1.370 . S
C197 C201 1.408 . S
C198 C196 1.363 . S
C198 C199 1.370 . S
C198 C202 1.524 1_445 S
C199 C191 1.503 1_546 S
C199 C198 1.370 . S
C199 C200 1.403 1_556 S
C200 C199 1.403 1_554 S
C200 C201 1.404 1_554 S
C200 C203 1.539 . S
C201 C197 1.408 . S
C201 C200 1.404 1_556 S
C201 H213 0.930 . S
C202 C198 1.524 1_665 S
C202 H214 0.956 . S
C202 H215 0.961 1_655 S
C202 H216 0.961 . S
C203 C200 1.539 . S
C203 H217 0.958 . S
C203 H218 0.961 . S
C203 H219 0.960 . S
H204 C188 0.931 1_655 S
H205 C193 0.929 . S
H206 C194 0.960 . S
H207 C194 0.962 1_565 S
H208 C194 0.960 . S
H209 C195 0.961 . S
H210 C195 0.961 . S
H211 C195 0.961 1_554 S
H212 C196 0.931 1_655 S
H213 C201 0.930 . S
H214 C202 0.956 . S
H215 C202 0.961 1_455 S
H216 C202 0.961 . S
H217 C203 0.958 . S
H218 C203 0.961 . S
H219 C203 0.960 . S
C220 C221 1.391 . S
C220 C222 1.394 . S
C220 H236 0.931 . S
C221 C220 1.391 . S
C221 C225 1.376 . S
C222 C220 1.394 . S
C222 C223 1.369 . S
C222 C226 1.531 . S
C223 C222 1.369 . S
C223 C224 1.410 . S
C223 C231 1.503 . S
C224 C223 1.410 . S
C224 C225 1.392 . S
C224 C227 1.511 . S
C225 C221 1.376 . S
C225 C224 1.392 . S
C225 H237 0.929 . S
C226 C222 1.531 . S
C226 H238 0.960 . S
C226 H239 0.962 . S
C226 H240 0.960 . S
C227 C224 1.511 . S
C227 H241 0.961 . S
C227 H242 0.961 . S
C227 H243 0.961 . S
C228 C229 1.370 . S
C228 C230 1.363 . S
C228 H244 0.931 . S
C229 C228 1.370 . S
C229 C233 1.408 . S
C230 C228 1.363 . S
C230 C231 1.370 . S
C230 C234 1.524 . S
C231 C223 1.503 . S
C231 C230 1.370 . S
C231 C232 1.403 . S
C232 C231 1.403 . S
C232 C233 1.404 . S
C232 C235 1.539 . S
C233 C229 1.408 . S
C233 C232 1.404 . S
C233 H245 0.930 . S
C234 C230 1.524 . S
C234 H246 0.956 . S
C234 H247 0.961 . S
C234 H248 0.961 . S
C235 C232 1.539 . S
C235 H249 0.958 . S
C235 H250 0.961 . S
C235 H251 0.960 . S
H236 C220 0.931 . S
H237 C225 0.929 . S
H238 C226 0.960 . S
H239 C226 0.962 . S
H240 C226 0.960 . S
H241 C227 0.961 . S
H242 C227 0.961 . S
H243 C227 0.961 . S
H244 C228 0.931 . S
H245 C233 0.930 . S
H246 C234 0.956 . S
H247 C234 0.961 . S
H248 C234 0.961 . S
H249 C235 0.958 . S
H250 C235 0.961 . S
H251 C235 0.960 . S
C252 C253 1.391 . S
C252 C254 1.394 . S
C252 H268 0.931 . S
C253 C252 1.391 . S
C253 C257 1.376 . S
C254 C252 1.394 . S
C254 C255 1.369 . S
C254 C258 1.531 . S
C255 C254 1.369 . S
C255 C256 1.410 . S
C255 C263 1.503 . S
C256 C255 1.410 . S
C256 C257 1.392 . S
C256 C259 1.511 . S
C257 C253 1.376 . S
C257 C256 1.392 . S
C257 H269 0.929 . S
C258 C254 1.531 . S
C258 H270 0.960 . S
C258 H271 0.962 . S
C258 H272 0.960 . S
C259 C256 1.511 . S
C259 H273 0.961 . S
C259 H274 0.961 . S
C259 H275 0.961 . S
C260 C261 1.370 . S
C260 C262 1.363 . S
C260 H276 0.931 . S
C261 C260 1.370 . S
C261 C265 1.408 . S
C262 C260 1.363 . S
C262 C263 1.370 . S
C262 C266 1.524 . S
C263 C255 1.503 . S
C263 C262 1.370 . S
C263 C264 1.403 . S
C264 C263 1.403 . S
C264 C265 1.404 . S
C264 C267 1.539 . S
C265 C261 1.408 . S
C265 C264 1.404 . S
C265 H277 0.930 . S
C266 C262 1.524 . S
C266 H278 0.956 . S
C266 H279 0.961 . S
C266 H280 0.961 . S
C267 C264 1.539 . S
C267 H281 0.958 . S
C267 H282 0.961 . S
C267 H283 0.960 . S
H268 C252 0.931 . S
H269 C257 0.929 . S
H270 C258 0.960 . S
H271 C258 0.962 . S
H272 C258 0.960 . S
H273 C259 0.961 . S
H274 C259 0.961 . S
H275 C259 0.961 . S
H276 C260 0.931 . S
H277 C265 0.930 . S
H278 C266 0.956 . S
H279 C266 0.961 . S
H280 C266 0.961 . S
H281 C267 0.958 . S
H282 C267 0.961 . S
H283 C267 0.960 . S
C284 C285 1.391 . S
C284 C286 1.394 . S
C284 H300 0.931 . S
C285 C284 1.391 . S
C285 C289 1.376 . S
C286 C284 1.394 . S
C286 C287 1.369 . S
C286 C290 1.531 . S
C287 C286 1.369 . S
C287 C288 1.410 . S
C287 C295 1.503 . S
C288 C287 1.410 . S
C288 C289 1.392 . S
C288 C291 1.511 . S
C289 C285 1.376 . S
C289 C288 1.392 . S
C289 H301 0.929 . S
C290 C286 1.531 . S
C290 H302 0.960 . S
C290 H303 0.962 . S
C290 H304 0.960 . S
C291 C288 1.511 . S
C291 H305 0.961 . S
C291 H306 0.961 . S
C291 H307 0.961 . S
C292 C293 1.370 . S
C292 C294 1.363 . S
C292 H308 0.931 . S
C293 C292 1.370 . S
C293 C297 1.408 . S
C294 C292 1.363 . S
C294 C295 1.370 . S
C294 C298 1.524 . S
C295 C287 1.503 . S
C295 C294 1.370 . S
C295 C296 1.403 . S
C296 C295 1.403 . S
C296 C297 1.404 . S
C296 C299 1.539 . S
C297 C293 1.408 . S
C297 C296 1.404 . S
C297 H309 0.930 . S
C298 C294 1.524 . S
C298 H310 0.956 . S
C298 H311 0.961 . S
C298 H312 0.961 . S
C299 C296 1.539 . S
C299 H313 0.958 . S
C299 H314 0.961 . S
C299 H315 0.960 . S
H300 C284 0.931 . S
H301 C289 0.929 . S
H302 C290 0.960 . S
H303 C290 0.962 . S
H304 C290 0.960 . S
H305 C291 0.961 . S
H306 C291 0.961 . S
H307 C291 0.961 . S
H308 C292 0.931 . S
H309 C297 0.930 . S
H310 C298 0.956 . S
H311 C298 0.961 . S
H312 C298 0.961 . S
H313 C299 0.958 . S
H314 C299 0.961 . S
H315 C299 0.960 . S
C316 C317 1.391 . S
C316 C318 1.394 . S
C316 H332 0.931 . S
C317 C316 1.391 . S
C317 C321 1.376 . S
C318 C316 1.394 . S
C318 C319 1.369 . S
C318 C322 1.531 . S
C319 C318 1.369 . S
C319 C320 1.410 . S
C319 C327 1.503 . S
C320 C319 1.410 . S
C320 C321 1.392 . S
C320 C323 1.511 . S
C321 C317 1.376 . S
C321 C320 1.392 . S
C321 H333 0.929 . S
C322 C318 1.531 . S
C322 H334 0.960 . S
C322 H335 0.962 . S
C322 H336 0.960 . S
C323 C320 1.511 . S
C323 H337 0.961 . S
C323 H338 0.961 . S
C323 H339 0.961 . S
C324 C325 1.370 . S
C324 C326 1.363 . S
C324 H340 0.931 . S
C325 C324 1.370 . S
C325 C329 1.408 . S
C326 C324 1.363 . S
C326 C327 1.370 . S
C326 C330 1.524 . S
C327 C319 1.503 . S
C327 C326 1.370 . S
C327 C328 1.403 . S
C328 C327 1.403 . S
C328 C329 1.404 . S
C328 C331 1.539 . S
C329 C325 1.408 . S
C329 C328 1.404 . S
C329 H341 0.930 . S
C330 C326 1.524 . S
C330 H342 0.956 . S
C330 H343 0.961 . S
C330 H344 0.961 . S
C331 C328 1.539 . S
C331 H345 0.958 . S
C331 H346 0.961 . S
C331 H347 0.960 . S
H332 C316 0.931 . S
H333 C321 0.929 . S
H334 C322 0.960 . S
H335 C322 0.962 . S
H336 C322 0.960 . S
H337 C323 0.961 . S
H338 C323 0.961 . S
H339 C323 0.961 . S
H340 C324 0.931 . S
H341 C329 0.930 . S
H342 C330 0.956 . S
H343 C330 0.961 . S
H344 C330 0.961 . S
H345 C331 0.958 . S
H346 C331 0.961 . S
H347 C331 0.960 . S
C348 C349 1.391 . S
C348 C350 1.394 . S
C348 H364 0.931 . S
C349 C348 1.391 . S
C349 C353 1.376 1_556 S
C350 C348 1.394 . S
C350 C351 1.369 1_556 S
C350 C354 1.531 . S
C351 C350 1.369 1_554 S
C351 C352 1.410 . S
C351 C359 1.503 . S
C352 C351 1.410 . S
C352 C353 1.392 . S
C352 C355 1.511 . S
C353 C349 1.376 1_554 S
C353 C352 1.392 . S
C353 H365 0.929 . S
C354 C350 1.531 . S
C354 H366 0.960 . S
C354 H367 0.962 . S
C354 H368 0.960 . S
C355 C352 1.511 . S
C355 H369 0.961 . S
C355 H370 0.961 . S
C355 H371 0.961 . S
C356 C357 1.370 1_556 S
C356 C358 1.363 . S
C356 H372 0.931 . S
C357 C356 1.370 1_554 S
C357 C361 1.408 . S
C358 C356 1.363 . S
C358 C359 1.370 1_556 S
C358 C362 1.524 . S
C359 C351 1.503 . S
C359 C358 1.370 1_554 S
C359 C360 1.403 . S
C360 C359 1.403 . S
C360 C361 1.404 . S
C360 C363 1.539 . S
C361 C357 1.408 . S
C361 C360 1.404 . S
C361 H373 0.930 . S
C362 C358 1.524 . S
C362 H374 0.956 . S
C362 H375 0.961 . S
C362 H376 0.961 . S
C363 C360 1.539 . S
C363 H377 0.958 . S
C363 H378 0.961 . S
C363 H379 0.960 . S
H364 C348 0.931 . S
H365 C353 0.929 . S
H366 C354 0.960 . S
H367 C354 0.962 . S
H368 C354 0.960 . S
H369 C355 0.961 . S
H370 C355 0.961 . S
H371 C355 0.961 . S
H372 C356 0.931 . S
H373 C361 0.930 . S
H374 C362 0.956 . S
H375 C362 0.961 . S
H376 C362 0.961 . S
H377 C363 0.958 . S
H378 C363 0.961 . S
H379 C363 0.960 . S
C380 C381 1.391 . S
C380 C382 1.394 1_556 S
C380 H396 0.931 1_556 S
C381 C380 1.391 . S
C381 C385 1.376 . S
C382 C380 1.394 1_554 S
C382 C383 1.369 1_554 S
C382 C386 1.531 . S
C383 C382 1.369 1_556 S
C383 C384 1.410 . S
C383 C391 1.503 1_556 S
C384 C383 1.410 . S
C384 C385 1.392 . S
C384 C387 1.511 . S
C385 C381 1.376 . S
C385 C384 1.392 . S
C385 H397 0.929 . S
C386 C382 1.531 . S
C386 H398 0.960 . S
C386 H399 0.962 . S
C386 H400 0.960 . S
C387 C384 1.511 . S
C387 H401 0.961 . S
C387 H402 0.961 . S
C387 H403 0.961 . S
C388 C389 1.370 . S
C388 C390 1.363 . S
C388 H404 0.931 . S
C389 C388 1.370 . S
C389 C393 1.408 . S
C390 C388 1.363 . S
C390 C391 1.370 . S
C390 C394 1.524 1_554 S
C391 C383 1.503 1_554 S
C391 C390 1.370 . S
C391 C392 1.403 . S
C392 C391 1.403 . S
C392 C393 1.404 . S
C392 C395 1.539 . S
C393 C389 1.408 . S
C393 C392 1.404 . S
C393 H405 0.930 . S
C394 C390 1.524 1_556 S
C394 H406 0.956 . S
C394 H407 0.961 . S
C394 H408 0.961 . S
C395 C392 1.539 . S
C395 H409 0.958 . S
C395 H410 0.961 . S
C395 H411 0.960 . S
H396 C380 0.931 1_554 S
H397 C385 0.929 . S
H398 C386 0.960 . S
H399 C386 0.962 . S
H400 C386 0.960 . S
H401 C387 0.961 . S
H402 C387 0.961 . S
H403 C387 0.961 . S
H404 C388 0.931 . S
H405 C393 0.930 . S
H406 C394 0.956 . S
H407 C394 0.961 . S
H408 C394 0.961 . S
H409 C395 0.958 . S
H410 C395 0.961 . S
H411 C395 0.960 . S
C412 C413 1.391 1_556 S
C412 C414 1.394 . S
C412 H428 0.931 . S
C413 C412 1.391 1_554 S
C413 C417 1.376 . S
C414 C412 1.394 . S
C414 C415 1.369 . S
C414 C418 1.531 . S
C415 C414 1.369 . S
C415 C416 1.410 1_556 S
C415 C423 1.503 . S
C416 C415 1.410 1_554 S
C416 C417 1.392 . S
C416 C419 1.511 . S
C417 C413 1.376 . S
C417 C416 1.392 . S
C417 H429 0.929 . S
C418 C414 1.531 . S
C418 H430 0.960 . S
C418 H431 0.962 . S
C418 H432 0.960 . S
C419 C416 1.511 . S
C419 H433 0.961 . S
C419 H434 0.961 . S
C419 H435 0.961 . S
C420 C421 1.370 1_554 S
C420 C422 1.363 . S
C420 H436 0.931 . S
C421 C420 1.370 1_556 S
C421 C425 1.408 . S
C422 C420 1.363 . S
C422 C423 1.370 1_554 S
C422 C426 1.524 . S
C423 C415 1.503 . S
C423 C422 1.370 1_556 S
C423 C424 1.403 . S
C424 C423 1.403 . S
C424 C425 1.404 . S
C424 C427 1.539 . S
C425 C421 1.408 . S
C425 C424 1.404 . S
C425 H437 0.930 . S
C426 C422 1.524 . S
C426 H438 0.956 . S
C426 H439 0.961 . S
C426 H440 0.961 . S
C427 C424 1.539 . S
C427 H441 0.958 . S
C427 H442 0.961 . S
C427 H443 0.960 . S
H428 C412 0.931 . S
H429 C417 0.929 . S
H430 C418 0.960 . S
H431 C418 0.962 . S
H432 C418 0.960 . S
H433 C419 0.961 . S
H434 C419 0.961 . S
H435 C419 0.961 . S
H436 C420 0.931 . S
H437 C425 0.930 . S
H438 C426 0.956 . S
H439 C426 0.961 . S
H440 C426 0.961 . S
H441 C427 0.958 . S
H442 C427 0.961 . S
H443 C427 0.960 . S
C444 C445 1.391 . S
C444 C446 1.394 1_554 S
C444 H460 0.931 1_554 S
C445 C444 1.391 . S
C445 C449 1.376 . S
C446 C444 1.394 1_556 S
C446 C447 1.369 1_556 S
C446 C450 1.531 . S
C447 C446 1.369 1_554 S
C447 C448 1.410 . S
C447 C455 1.503 1_554 S
C448 C447 1.410 . S
C448 C449 1.392 . S
C448 C451 1.511 . S
C449 C445 1.376 . S
C449 C448 1.392 . S
C449 H461 0.929 . S
C450 C446 1.531 . S
C450 H462 0.960 . S
C450 H463 0.962 . S
C450 H464 0.960 . S
C451 C448 1.511 . S
C451 H465 0.961 . S
C451 H466 0.961 . S
C451 H467 0.961 . S
C452 C453 1.370 . S
C452 C454 1.363 . S
C452 H468 0.931 . S
C453 C452 1.370 . S
C453 C457 1.408 . S
C454 C452 1.363 . S
C454 C455 1.370 . S
C454 C458 1.524 1_556 S
C455 C447 1.503 1_556 S
C455 C454 1.370 . S
C455 C456 1.403 . S
C456 C455 1.403 . S
C456 C457 1.404 . S
C456 C459 1.539 . S
C457 C453 1.408 . S
C457 C456 1.404 . S
C457 H469 0.930 . S
C458 C454 1.524 1_554 S
C458 H470 0.956 . S
C458 H471 0.961 . S
C458 H472 0.961 . S
C459 C456 1.539 . S
C459 H473 0.958 . S
C459 H474 0.961 . S
C459 H475 0.960 . S
H460 C444 0.931 1_556 S
H461 C449 0.929 . S
H462 C450 0.960 . S
H463 C450 0.962 . S
H464 C450 0.960 . S
H465 C451 0.961 . S
H466 C451 0.961 . S
H467 C451 0.961 . S
H468 C452 0.931 . S
H469 C457 0.930 . S
H470 C458 0.956 . S
H471 C458 0.961 . S
H472 C458 0.961 . S
H473 C459 0.958 . S
H474 C459 0.961 . S
H475 C459 0.960 . S
C93 C66 2.154 . S
C101 C19 2.109 . S
C125 C43 2.151 . S
C133 C88 2.111 . S
C157 C89 2.152 . S
C165 C42 2.110 . S
C189 C20 2.174 . S
C197 C65 2.091 . S
C221 C90 1.543 . S
C229 C21 1.522 . S
C253 C62 2.067 . S
C261 C39 2.073 . S
C285 C67 1.542 . S
C293 C44 1.523 . S
C317 C16 2.070 . S
C325 C85 2.074 . S
C349 C86 0.695 . S
C357 C17 0.588 . S
C381 C64 0.356 . S
C389 C41 0.293 . S
C413 C40 0.664 . S
C421 C63 0.603 . S
C445 C18 0.349 . S
C453 C87 0.291 . S
