# Generated by pormake.
# Topology snz, (6)-cn, num edge types: 1
# Building blocks:
#     Node 0, Type 0, BuildingBlock: MIFKUJ_clean_sbu_0, # of connection points: 6
#     Node 1, Type 0, BuildingBlock: MIFKUJ_clean_sbu_0, # of connection points: 6
#     Node 2, Type 0, BuildingBlock: MIFKUJ_clean_sbu_0, # of connection points: 6
#     Node 3, Type 0, BuildingBlock: MIFKUJ_clean_sbu_0, # of connection points: 6
#     Node 4, Type 0, BuildingBlock: MIFKUJ_clean_sbu_0, # of connection points: 6
#     Node 5, Type 0, BuildingBlock: MIFKUJ_clean_sbu_0, # of connection points: 6
#     Node 6, Type 0, BuildingBlock: MIFKUJ_clean_sbu_0, # of connection points: 6
#     Node 7, Type 0, BuildingBlock: MIFKUJ_clean_sbu_0, # of connection points: 6
#     Node 8, Type 0, BuildingBlock: MIFKUJ_clean_sbu_0, # of connection points: 6
#     Edge 9, Type (0, 0), BuildingBlock: KIFKEQ_clean_linker_1, # of connection points: 2
#     Edge 10, Type (0, 0), BuildingBlock: KIFKEQ_clean_linker_1, # of connection points: 2
#     Edge 11, Type (0, 0), BuildingBlock: KIFKEQ_clean_linker_1, # of connection points: 2
#     Edge 12, Type (0, 0), BuildingBlock: KIFKEQ_clean_linker_1, # of connection points: 2
#     Edge 13, Type (0, 0), BuildingBlock: KIFKEQ_clean_linker_1, # of connection points: 2
#     Edge 14, Type (0, 0), BuildingBlock: KIFKEQ_clean_linker_1, # of connection points: 2
#     Edge 15, Type (0, 0), BuildingBlock: KIFKEQ_clean_linker_1, # of connection points: 2
#     Edge 16, Type (0, 0), BuildingBlock: KIFKEQ_clean_linker_1, # of connection points: 2
#     Edge 17, Type (0, 0), BuildingBlock: KIFKEQ_clean_linker_1, # of connection points: 2
#     Edge 18, Type (0, 0), BuildingBlock: KIFKEQ_clean_linker_1, # of connection points: 2
#     Edge 19, Type (0, 0), BuildingBlock: KIFKEQ_clean_linker_1, # of connection points: 2
#     Edge 20, Type (0, 0), BuildingBlock: KIFKEQ_clean_linker_1, # of connection points: 2
#     Edge 21, Type (0, 0), BuildingBlock: KIFKEQ_clean_linker_1, # of connection points: 2
#     Edge 22, Type (0, 0), BuildingBlock: KIFKEQ_clean_linker_1, # of connection points: 2
#     Edge 23, Type (0, 0), BuildingBlock: KIFKEQ_clean_linker_1, # of connection points: 2
#     Edge 24, Type (0, 0), BuildingBlock: KIFKEQ_clean_linker_1, # of connection points: 2
#     Edge 25, Type (0, 0), BuildingBlock: KIFKEQ_clean_linker_1, # of connection points: 2
#     Edge 26, Type (0, 0), BuildingBlock: KIFKEQ_clean_linker_1, # of connection points: 2
#     Edge 27, Type (0, 0), BuildingBlock: KIFKEQ_clean_linker_1, # of connection points: 2
#     Edge 28, Type (0, 0), BuildingBlock: KIFKEQ_clean_linker_1, # of connection points: 2
#     Edge 29, Type (0, 0), BuildingBlock: KIFKEQ_clean_linker_1, # of connection points: 2
#     Edge 30, Type (0, 0), BuildingBlock: KIFKEQ_clean_linker_1, # of connection points: 2
#     Edge 31, Type (0, 0), BuildingBlock: KIFKEQ_clean_linker_1, # of connection points: 2
#     Edge 32, Type (0, 0), BuildingBlock: KIFKEQ_clean_linker_1, # of connection points: 2
#     Edge 33, Type (0, 0), BuildingBlock: KIFKEQ_clean_linker_1, # of connection points: 2
#     Edge 34, Type (0, 0), BuildingBlock: KIFKEQ_clean_linker_1, # of connection points: 2
#     Edge 35, Type (0, 0), BuildingBlock: KIFKEQ_clean_linker_1, # of connection points: 2
# Relax obj value: 0.114
# Max RMSD: 0.178
# Mean RMSD: 0.123
data_MOF--net-snz--node1-MIFKUJ_clean_sbu_0--edge1-KIFKEQ_clean_linker_1
_symmetry_space_group_name_H-M    P1
_symmetry_Int_Tables_number       1
_symmetry_cell_setting            triclinic
loop_
_symmetry_equiv_pos_as_xyz
'x, y, z'
_cell_length_a     58.644208
_cell_length_b     55.872669
_cell_length_c     14.982151
_cell_angle_alpha  93.892465
_cell_angle_beta   93.470911
_cell_angle_gamma 120.49247
loop_
_atom_site_label
_atom_site_type_symbol
_atom_site_fract_x
_atom_site_fract_y
_atom_site_fract_z
_atom_type_partial_charge
Zn0 Zn 0.02232 0.49815 0.02435 0.0
Zn1 Zn 0.06058 0.47648 0.03158 0.0
C2 C 0.06079 0.55071 0.11519 0.0
O3 O 0.04132 0.54286 0.16635 0.0
C4 C 0.03455 0.42392 0.93315 0.0
O5 O 0.05666 0.43781 0.89555 0.0
O6 O 0.99637 0.51131 1.00076 0.0
O7 O 0.0201 0.47622 0.90712 0.0
O8 O 0.06352 0.49633 0.91978 0.0
C9 C 0.99779 0.52143 0.92634 0.0
O10 O 0.01486 0.52188 0.87268 0.0
O11 O 0.05792 0.53423 0.04692 0.0
C12 C 0.09203 0.45931 0.11931 0.0
O13 O 0.07164 0.45057 0.16655 0.0
O14 O 0.09274 0.47246 0.05246 0.0
O15 O 0.05785 0.49168 0.15528 0.0
O16 O 0.01577 0.47975 0.13985 0.0
O17 O 0.03026 0.43652 0.99801 0.0
C18 C 0.04154 0.48607 0.87007 0.0
C19 C 0.03647 0.48514 0.19007 0.0
Zn20 Zn 0.55905 0.46983 0.05804 0.0
Zn21 Zn 0.63078 0.51567 0.07929 0.0
C22 C 0.54024 0.41761 0.94204 0.0
O23 O 0.54128 0.43262 0.87695 0.0
C24 C 0.63528 0.56516 0.15583 0.0
O25 O 0.64538 0.55798 0.22223 0.0
O26 O 0.52431 0.46846 0.07604 0.0
O27 O 0.57891 0.48045 0.18472 0.0
O28 O 0.62281 0.50047 0.20065 0.0
C29 C 0.5113 0.45185 0.13244 0.0
O30 O 0.52141 0.43828 0.17062 0.0
O31 O 0.54751 0.42919 0.02291 0.0
C32 C 0.67743 0.54212 0.99134 0.0
O33 O 0.65897 0.53825 0.92821 0.0
O34 O 0.67053 0.53364 0.06747 0.0
O35 O 0.61226 0.48914 0.96375 0.0
O36 O 0.57562 0.49106 0.95007 0.0
O37 O 0.62549 0.5488 0.08271 0.0
C38 C 0.60075 0.48979 0.23449 0.0
C39 C 0.59449 0.49031 0.91443 0.0
Zn40 Zn 0.60984 0.01779 0.0731 0.0
Zn41 Zn 0.54645 0.97796 0.05746 0.0
C42 C 0.62345 0.98106 0.14281 0.0
O43 O 0.63457 0.00255 0.20547 0.0
C44 C 0.52858 0.00791 0.96885 0.0
O45 O 0.51956 0.98474 0.9146 0.0
O46 O 0.64781 0.04619 0.04917 0.0
O47 O 0.58821 0.01723 0.96117 0.0
O48 O 0.56087 0.9719 0.94154 0.0
C49 C 0.65251 0.03802 0.97454 0.0
O50 O 0.63411 0.0138 0.93167 0.0
O51 O 0.60998 0.98166 0.07407 0.0
C52 C 0.49897 0.95167 0.13471 0.0
O53 O 0.51473 0.97404 0.19138 0.0
O54 O 0.5081 0.94714 0.06453 0.0
O55 O 0.56533 0.98174 0.18088 0.0
O56 O 0.60007 0.02476 0.19752 0.0
O57 O 0.54225 0.01128 0.04291 0.0
C58 C 0.57525 0.99467 0.90827 0.0
C59 C 0.5827 0.0035 0.23185 0.0
Zn60 Zn 0.7555 0.86711 0.28514 0.0
Zn61 Zn 0.77846 0.81782 0.27996 0.0
C62 C 0.80411 0.91785 0.37888 0.0
O63 O 0.81095 0.90077 0.41025 0.0
C64 C 0.73424 0.76913 0.18996 0.0
O65 O 0.75117 0.7769 0.12927 0.0
O66 O 0.72163 0.86767 0.25852 0.0
O67 O 0.76433 0.85701 0.16315 0.0
O68 O 0.78639 0.83454 0.16206 0.0
C69 C 0.72071 0.8804 0.19243 0.0
O70 O 0.74091 0.89099 0.14426 0.0
O71 O 0.78283 0.90805 0.32562 0.0
C72 C 0.79758 0.78903 0.37405 0.0
O73 O 0.78097 0.79008 0.42695 0.0
O74 O 0.80047 0.7999 0.30058 0.0
O75 O 0.78664 0.84225 0.39774 0.0
O76 O 0.75089 0.84579 0.39549 0.0
O77 O 0.74069 0.78486 0.26384 0.0
C78 C 0.77633 0.84683 0.12134 0.0
C79 C 0.76899 0.84369 0.43899 0.0
Zn80 Zn 0.18978 0.80569 0.30509 0.0
Zn81 Zn 0.26692 0.87399 0.33232 0.0
C82 C 0.1794 0.75585 0.20305 0.0
O83 O 0.17196 0.767 0.14176 0.0
C84 C 0.2753 0.92828 0.40478 0.0
O85 O 0.25511 0.91325 0.44976 0.0
O86 O 0.15087 0.79195 0.32321 0.0
O87 O 0.21026 0.82506 0.42822 0.0
O88 O 0.25199 0.8606 0.45113 0.0
C89 C 0.14108 0.77204 0.37249 0.0
O90 O 0.15645 0.76341 0.40667 0.0
O91 O 0.18994 0.76973 0.27998 0.0
C92 C 0.31107 0.88245 0.24763 0.0
O93 O 0.30145 0.89506 0.20106 0.0
O94 O 0.29912 0.87021 0.31357 0.0
O95 O 0.24263 0.85847 0.2136 0.0
O96 O 0.20004 0.82498 0.18978 0.0
O97 O 0.28267 0.91596 0.34935 0.0
C98 C 0.23063 0.84289 0.48132 0.0
C99 C 0.22126 0.84345 0.16069 0.0
Zn100 Zn 0.28015 0.34044 0.32809 0.0
Zn101 Zn 0.2028 0.32427 0.31292 0.0
C102 C 0.30733 0.31045 0.29479 0.0
O103 O 0.31966 0.32973 0.24121 0.0
C104 C 0.18724 0.35741 0.22548 0.0
O105 O 0.17953 0.33628 0.16323 0.0
O106 O 0.31662 0.37518 0.3253 0.0
O107 O 0.25763 0.33169 0.20844 0.0
O108 O 0.2147 0.31798 0.19165 0.0
C109 C 0.32384 0.38825 0.25634 0.0
O110 O 0.30593 0.38209 0.1881 0.0
O111 O 0.28854 0.30991 0.33437 0.0
C112 C 0.16089 0.27611 0.38635 0.0
O113 O 0.18107 0.27536 0.42614 0.0
O114 O 0.1653 0.29341 0.32902 0.0
O115 O 0.22419 0.33056 0.43323 0.0
O116 O 0.26611 0.34085 0.44866 0.0
O117 O 0.19878 0.35772 0.30063 0.0
C118 C 0.23612 0.32357 0.15821 0.0
C119 C 0.2451 0.33625 0.48274 0.0
Zn120 Zn 0.41903 0.14969 0.81049 0.0
Zn121 Zn 0.43175 0.19409 0.58218 0.0
C122 C 0.44101 0.11402 0.78756 0.0
O123 O 0.42361 0.10335 0.7155 0.0
C124 C 0.39511 0.21422 0.57142 0.0
O125 O 0.38451 0.19815 0.63515 0.0
O126 O 0.38804 0.13205 0.8817 0.0
O127 O 0.43999 0.19155 0.85603 0.0
O128 O 0.43665 0.19579 0.71482 0.0
C129 C 0.37948 0.10835 0.91016 0.0
O130 O 0.3866 0.09139 0.87396 0.0
O131 O 0.44283 0.13428 0.83788 0.0
C132 C 0.47181 0.1974 0.46642 0.0
O133 O 0.49632 0.20565 0.45003 0.0
O134 O 0.46787 0.20726 0.53893 0.0
O135 O 0.40539 0.15297 0.53853 0.0
O136 O 0.40727 0.14314 0.67641 0.0
O137 O 0.41604 0.21673 0.5426 0.0
C138 C 0.44497 0.20752 0.79461 0.0
C139 C 0.39761 0.13495 0.59446 0.0
Zn140 Zn 0.93835 0.17356 0.70087 0.0
Zn141 Zn 0.88118 0.16263 0.69369 0.0
C142 C 0.99208 0.20823 0.68211 0.0
O143 O 0.98229 0.22472 0.67674 0.0
C144 C 0.82763 0.12647 0.71254 0.0
O145 O 0.83783 0.11028 0.71373 0.0
O146 O 0.93205 0.18038 0.57808 0.0
O147 O 0.91258 0.13176 0.69919 0.0
O148 O 0.88282 0.13431 0.60884 0.0
C149 C 0.93717 0.16688 0.51934 0.0
O150 O 0.94539 0.15018 0.54453 0.0
O151 O 0.97704 0.18363 0.70289 0.0
C152 C 0.88398 0.16786 0.87693 0.0
O153 O 0.87242 0.18202 0.85696 0.0
O154 O 0.88991 0.15629 0.81439 0.0
O155 O 0.90622 0.20433 0.69161 0.0
O156 O 0.93635 0.20245 0.78217 0.0
O157 O 0.84239 0.15169 0.69685 0.0
C158 C 0.89272 0.12028 0.63836 0.0
C159 C 0.92656 0.21634 0.75054 0.0
Zn160 Zn 0.91263 0.68075 0.74608 0.0
Zn161 Zn 0.89822 0.64356 0.56071 0.0
C162 C 0.8623 0.66519 0.82188 0.0
O163 O 0.87198 0.69229 0.83424 0.0
C164 C 0.95345 0.66463 0.5435 0.0
O165 O 0.94529 0.63825 0.55074 0.0
O166 O 0.93548 0.71385 0.83975 0.0
O167 O 0.93018 0.6574 0.73971 0.0
O168 O 0.89659 0.62051 0.65922 0.0
C169 C 0.93417 0.71614 0.92393 0.0
O170 O 0.94945 0.74061 0.97139 0.0
O171 O 0.87573 0.65599 0.7848 0.0
C172 C 0.86303 0.61017 0.401 0.0
O173 O 0.84475 0.61142 0.44414 0.0
O174 O 0.88601 0.61953 0.44248 0.0
O175 O 0.87585 0.66117 0.5643 0.0
O176 O 0.9088 0.69941 0.63996 0.0
O177 O 0.93687 0.67287 0.54827 0.0
C178 C 0.91644 0.63102 0.71903 0.0
C179 C 0.88771 0.68736 0.58538 0.0
H180 H 0.08319 0.51343 0.76993 0.0
H181 H 0.99787 0.45837 0.74453 0.0
H182 H 0.08154 0.51388 0.60724 0.0
H183 H 0.99623 0.45778 0.58158 0.0
H184 H 0.99857 0.48246 0.29586 0.0
H185 H 0.99983 0.48338 0.45943 0.0
H186 H 0.07542 0.48711 0.47184 0.0
H187 H 0.07466 0.48749 0.31 0.0
C188 C 0.06409 0.50118 0.72953 0.0
C189 C 0.0407 0.48584 0.7705 0.0
C190 C 0.06311 0.50128 0.63584 0.0
C191 C 0.03873 0.48577 0.58025 0.0
C192 C 0.01534 0.47037 0.6216 0.0
C193 C 0.0163 0.47052 0.71535 0.0
C194 C 0.01544 0.48349 0.33368 0.0
C195 C 0.0365 0.48493 0.28946 0.0
C196 C 0.01613 0.48387 0.42767 0.0
C197 C 0.03779 0.4854 0.47983 0.0
C198 C 0.05866 0.48652 0.43497 0.0
C199 C 0.0581 0.48648 0.3415 0.0
H200 H 0.6298 0.48492 0.81474 0.0
H201 H 0.56136 0.49472 0.78702 0.0
H202 H 0.63142 0.48409 0.65252 0.0
H203 H 0.56331 0.49451 0.62482 0.0
H204 H 0.55708 0.4657 0.32816 0.0
H205 H 0.55568 0.46536 0.48992 0.0
H206 H 0.64164 0.51193 0.53041 0.0
H207 H 0.64302 0.51165 0.36773 0.0
C208 C 0.61513 0.48705 0.77422 0.0
C209 C 0.59543 0.4899 0.81467 0.0
C210 C 0.61617 0.48674 0.68077 0.0
C211 C 0.59752 0.48924 0.62454 0.0
C212 C 0.57782 0.4921 0.66514 0.0
C213 C 0.57677 0.4924 0.75864 0.0
C214 C 0.57575 0.47575 0.37122 0.0
C215 C 0.60018 0.48864 0.33404 0.0
C216 C 0.57494 0.47577 0.46462 0.0
C217 C 0.59853 0.48877 0.5243 0.0
C218 C 0.623 0.5014 0.48709 0.0
C219 C 0.62382 0.50132 0.39343 0.0
H220 H 0.55581 0.95088 0.77315 0.0
H221 H 0.59775 0.041 0.81846 0.0
H222 H 0.55904 0.9533 0.61197 0.0
H223 H 0.60008 0.0435 0.65774 0.0
H224 H 0.62061 0.04095 0.36878 0.0
H225 H 0.61963 0.03845 0.53109 0.0
H226 H 0.54249 0.96263 0.48216 0.0
H227 H 0.54407 0.9645 0.32164 0.0
C228 C 0.5655 0.97121 0.74872 0.0
C229 C 0.57642 0.99569 0.80917 0.0
C230 C 0.56728 0.97266 0.6559 0.0
C231 C 0.5798 0.99865 0.6206 0.0
C232 C 0.59069 0.0231 0.68153 0.0
C233 C 0.58912 0.02163 0.77419 0.0
C234 C 0.60348 0.02377 0.39285 0.0
C235 C 0.58245 0.00299 0.33152 0.0
C236 C 0.60281 0.02235 0.48623 0.0
C237 C 0.58097 1.00024 0.5209 0.0
C238 C 0.55994 0.97967 0.45908 0.0
C239 C 0.56074 0.98092 0.36627 0.0
H240 H 0.73443 0.84564 0.55132 0.0
H241 H 0.80724 0.84388 0.55467 0.0
H242 H 0.73703 0.8469 0.71474 0.0
H243 H 0.81027 0.84592 0.71812 0.0
H244 H 0.79282 0.82043 1.00275 0.0
H245 H 0.79114 0.81972 0.83955 0.0
H246 H 0.76065 0.87572 0.85133 0.0
H247 H 0.76171 0.87584 0.01392 0.0
C248 C 0.75109 0.84568 0.58681 0.0
C249 C 0.77059 0.84463 0.53924 0.0
C250 C 0.75271 0.8466 0.68097 0.0
C251 C 0.77393 0.8466 0.73054 0.0
C252 C 0.79342 0.84556 0.68276 0.0
C253 C 0.79176 0.84456 0.58864 0.0
C254 C 0.78595 0.83278 0.97072 0.0
C255 C 0.77736 0.84816 0.02219 0.0
C256 C 0.78505 0.83244 0.87674 0.0
C257 C 0.77562 0.84755 0.83131 0.0
C258 C 0.76754 0.86336 0.88315 0.0
C259 C 0.76835 0.86361 0.97697 0.0
H260 H 0.19315 0.80281 0.57396 0.0
H261 H 0.26438 0.88451 0.61504 0.0
H262 H 0.19055 0.80379 0.73568 0.0
H263 H 0.26119 0.88621 0.77625 0.0
H264 H 0.26497 0.87012 0.06874 0.0
H265 H 0.26698 0.86995 0.90784 0.0
H266 H 0.18102 0.82149 0.86378 0.0
H267 H 0.17923 0.82068 0.02599 0.0
C268 C 0.20821 0.82111 0.61743 0.0
C269 C 0.2291 0.84348 0.58087 0.0
C270 C 0.20659 0.82182 0.71072 0.0
C271 C 0.22562 0.8451 0.77067 0.0
C272 C 0.24637 0.86759 0.73357 0.0
C273 C 0.24818 0.86671 0.64045 0.0
C274 C 0.24643 0.85969 0.02521 0.0
C275 C 0.22195 0.84556 0.06145 0.0
C276 C 0.24756 0.85965 0.93195 0.0
C277 C 0.22418 0.84572 0.87106 0.0
C278 C 0.19958 0.83206 0.90746 0.0
C279 C 0.1985 0.83183 1.00105 0.0
H280 H 0.2098 0.33968 0.58807 0.0
H281 H 0.27776 0.329 0.60214 0.0
H282 H 0.20745 0.33592 0.74872 0.0
H283 H 0.27451 0.32341 0.76092 0.0
H284 H 0.27922 0.33949 0.06308 0.0
H285 H 0.28155 0.34369 0.90386 0.0
H286 H 0.19629 0.30821 0.86372 0.0
H287 H 0.19443 0.30609 0.02516 0.0
C288 C 0.22422 0.33643 0.62545 0.0
C289 C 0.24416 0.33498 0.58193 0.0
C290 C 0.2227 0.33391 0.71793 0.0
C291 C 0.24074 0.32927 0.76965 0.0
C292 C 0.26056 0.32762 0.72532 0.0
C293 C 0.26239 0.33072 0.63341 0.0
C294 C 0.26092 0.33269 0.02068 0.0
C295 C 0.23669 0.3228 0.05816 0.0
C296 C 0.26219 0.3348 0.92817 0.0
C297 C 0.23914 0.32643 0.86899 0.0
C298 C 0.21469 0.31559 0.90625 0.0
C299 C 0.21353 0.31401 0.99932 0.0
H300 H 0.4673 0.15226 0.36781 0.0
H301 H 0.42657 0.19703 0.41506 0.0
H302 H 0.43188 0.12049 0.25204 0.0
H303 H 0.38904 0.16312 0.31027 0.0
H304 H 0.36442 0.1401 1.00627 0.0
H305 H 0.37863 0.15524 0.16337 0.0
H306 H 0.39118 0.08587 0.18844 0.0
H307 H 0.3791 0.0723 0.02724 0.0
C308 C 0.45022 0.15468 0.35534 0.0
C309 C 0.4493 0.17671 0.40176 0.0
C310 C 0.42948 0.13605 0.29015 0.0
C311 C 0.40713 0.13886 0.27068 0.0
C312 C 0.4059 0.16032 0.32099 0.0
C313 C 0.42717 0.17953 0.38319 0.0
C314 C 0.36936 0.12748 0.04577 0.0
C315 C 0.37255 0.10633 1.00355 0.0
C316 C 0.37756 0.13615 0.13717 0.0
C317 C 0.38814 0.12306 0.18831 0.0
C318 C 0.38506 0.09772 0.14979 0.0
C319 C 0.37757 0.08954 0.05741 0.0
H320 H 0.93217 0.2072 0.44617 0.0
H321 H 0.93006 0.1295 0.37939 0.0
H322 H 0.92038 0.20796 0.28825 0.0
H323 H 0.91737 0.12975 0.22189 0.0
H324 H 0.91976 0.15403 0.93797 0.0
H325 H 0.93471 0.15519 0.09399 0.0
H326 H 0.88076 0.18107 0.18171 0.0
H327 H 0.86646 0.18084 0.02551 0.0
C328 C 0.92916 0.19031 0.39753 0.0
C329 C 0.93186 0.16824 0.42424 0.0
C330 C 0.92229 0.19066 0.30757 0.0
C331 C 0.91775 0.16878 0.24349 0.0
C332 C 0.92105 0.14702 0.27007 0.0
C333 C 0.92823 0.14683 0.35996 0.0
C334 C 0.91105 0.15986 0.99071 0.0
C335 C 0.892 0.16736 0.97037 0.0
C336 C 0.91956 0.16046 0.07974 0.0
C337 C 0.90892 0.1683 0.14944 0.0
C338 C 0.88961 0.17546 0.12895 0.0
C339 C 0.8813 0.17514 0.03987 0.0
H340 H 0.8946 0.60267 0.29043 0.0
H341 H 0.82721 0.61443 0.28735 0.0
H342 H 0.90358 0.61991 0.14486 0.0
H343 H 0.83591 0.63121 0.14003 0.0
H344 H 0.90239 0.71619 0.04711 0.0
H345 H 0.87448 0.67824 0.13278 0.0
H346 H 0.89584 0.62432 0.98669 0.0
H347 H 0.92442 0.66293 0.90313 0.0
C348 C 0.88094 0.6077 0.2567 0.0
C349 C 0.86087 0.60827 0.30177 0.0
C350 C 0.88601 0.61748 0.17275 0.0
C351 C 0.87101 0.62788 0.13262 0.0
C352 C 0.84823 0.62404 0.17087 0.0
C353 C 0.84315 0.61423 0.25504 0.0
C354 C 0.90074 0.69607 0.03259 0.0
C355 C 0.91535 0.69228 0.96838 0.0
C356 C 0.88441 0.67415 0.08041 0.0
C357 C 0.88274 0.64813 0.066 0.0
C358 C 0.8966 0.64406 0.99896 0.0
C359 C 0.91286 0.66605 0.95088 0.0
H360 H 0.1912 0.39848 0.34805 0.0
H361 H 0.16717 0.36467 0.06788 0.0
H362 H 0.17407 0.42966 0.32488 0.0
H363 H 0.1498 0.39537 0.04529 0.0
H364 H 0.13005 0.46215 0.01504 0.0
H365 H 0.15935 0.44356 0.04295 0.0
H366 H 0.1283 0.41989 0.29729 0.0
H367 H 0.09948 0.43868 0.27021 0.0
C368 C 0.18263 0.39798 0.28134 0.0
C369 C 0.1802 0.37885 0.21011 0.0
C370 C 0.17275 0.41575 0.26815 0.0
C371 C 0.16042 0.41484 0.1834 0.0
C372 C 0.15941 0.39682 0.11116 0.0
C373 C 0.16915 0.37901 0.1244 0.0
C374 C 0.12988 0.45344 0.07758 0.0
C375 C 0.11225 0.45157 0.13994 0.0
C376 C 0.14656 0.4427 0.09338 0.0
C377 C 0.14604 0.43013 0.17211 0.0
C378 C 0.12942 0.42969 0.23646 0.0
C379 C 0.1127 0.44024 0.22048 0.0
H380 H 0.62595 0.59156 0.02233 0.0
H381 H 0.65511 0.60381 0.30332 0.0
H382 H 0.64154 0.6414 0.02768 0.0
H383 H 0.67143 0.65333 0.30794 0.0
H384 H 0.69871 0.74231 0.31136 0.0
H385 H 0.66589 0.69239 0.30105 0.0
H386 H 0.68508 0.68102 0.03328 0.0
H387 H 0.71687 0.73068 0.04235 0.0
C388 C 0.63523 0.60476 0.08559 0.0
C389 C 0.63972 0.59381 0.16194 0.0
C390 C 0.64432 0.63336 0.08857 0.0
C391 C 0.65816 0.65156 0.16786 0.0
C392 C 0.66072 0.64008 0.24582 0.0
C393 C 0.65155 0.61158 0.24293 0.0
C394 C 0.69537 0.72922 0.24947 0.0
C395 C 0.71076 0.74038 0.17836 0.0
C396 C 0.67668 0.70056 0.24371 0.0
C397 C 0.67311 0.68249 0.16694 0.0
C398 C 0.68703 0.69416 0.09326 0.0
C399 C 0.70554 0.72274 0.09882 0.0
H400 H 0.45615 0.91423 0.01354 0.0
H401 H 0.47789 0.94953 0.29235 0.0
H402 H 0.409 0.89065 0.03836 0.0
H403 H 0.43118 0.92642 0.31677 0.0
H404 H 0.33495 0.8983 0.09495 0.0
H405 H 0.37918 0.90856 0.06608 0.0
H406 H 0.38929 0.88233 0.32273 0.0
H407 H 0.34479 0.87227 0.35228 0.0
C408 C 0.4509 0.91654 0.08035 0.0
C409 C 0.47072 0.93397 0.15068 0.0
C410 C 0.42392 0.90318 0.09451 0.0
C411 C 0.41629 0.90677 0.17949 0.0
C412 C 0.43627 0.92293 0.25078 0.0
C413 C 0.4631 0.93641 0.23648 0.0
C414 C 0.34642 0.89434 0.14489 0.0
C415 C 0.33646 0.88479 0.22648 0.0
C416 C 0.37174 0.89999 0.12785 0.0
C417 C 0.38787 0.8964 0.19219 0.0
C418 C 0.37744 0.88557 0.27213 0.0
C419 C 0.35192 0.87969 0.28893 0.0
H420 H 0.5215 0.04398 0.08029 0.0
H421 H 0.51985 0.01823 0.80061 0.0
H422 H 0.50284 0.07242 0.03557 0.0
H423 H 0.50244 0.04741 0.75561 0.0
H424 H 0.43594 0.06582 0.71039 0.0
H425 H 0.46052 0.04363 0.75543 0.0
H426 H 0.50759 0.11186 0.96549 0.0
H427 H 0.48214 0.13366 0.92211 0.0
C428 C 0.51775 0.04499 0.00935 0.0
C429 C 0.52167 0.02865 0.94384 0.0
C430 C 0.50713 0.0613 0.98359 0.0
C431 C 0.50064 0.06178 0.89188 0.0
C432 C 0.5064 0.04687 0.82677 0.0
C433 C 0.51655 0.03029 0.85248 0.0
C434 C 0.45163 0.07621 0.76583 0.0
C435 C 0.45708 0.10148 0.81264 0.0
C436 C 0.4659 0.06358 0.79138 0.0
C437 C 0.48623 0.07604 0.86378 0.0
C438 C 0.49191 0.10155 0.91003 0.0
C439 C 0.47743 0.1141 0.88485 0.0
H440 H 0.90829 0.25236 0.72401 0.0
H441 H 0.97539 0.24909 0.84471 0.0
H442 H 0.93237 0.30313 0.76889 0.0
H443 H 0.99918 0.2993 0.88729 0.0
H444 H 0.04426 0.39021 0.82333 0.0
H445 H 0.01595 0.34014 0.78009 0.0
H446 H 0.95492 0.33886 0.93011 0.0
H447 H 0.98359 0.38946 0.97534 0.0
C448 C 0.92803 0.26238 0.76018 0.0
C449 C 0.93997 0.2467 0.78023 0.0
C450 C 0.94169 0.29132 0.78613 0.0
C451 C 0.96761 0.30498 0.83095 0.0
C452 C 0.97928 0.28924 0.85221 0.0
C453 C 0.96557 0.26045 0.82784 0.0
C454 C 0.02477 0.37943 0.84688 0.0
C455 C 0.01625 0.39379 0.90338 0.0
C456 C 0.00861 0.35074 0.82213 0.0
C457 C 0.98338 0.33575 0.85214 0.0
C458 C 0.9743 0.35009 0.90598 0.0
C459 C 0.99073 0.37891 0.93211 0.0
H460 H 0.83626 0.67697 0.94697 0.0
H461 H 0.8303 0.60904 0.77116 0.0
H462 H 0.79291 0.645 0.99595 0.0
H463 H 0.78682 0.57719 0.81943 0.0
H464 H 0.6963 0.5468 0.82859 0.0
H465 H 0.74214 0.57484 0.79477 0.0
H466 H 0.76854 0.60056 0.07836 0.0
H467 H 0.72234 0.57198 0.11268 0.0
C468 C 0.8257 0.65521 0.91883 0.0
C469 C 0.83652 0.64561 0.85419 0.0
C470 C 0.80102 0.63687 0.9476 0.0
C471 C 0.78643 0.60863 0.91123 0.0
C472 C 0.79753 0.5989 0.84812 0.0
C473 C 0.82242 0.61713 0.82055 0.0
C474 C 0.71188 0.55816 0.88395 0.0
C475 C 0.7057 0.55722 0.97332 0.0
C476 C 0.73817 0.57412 0.86452 0.0
C477 C 0.75892 0.58992 0.93386 0.0
C478 C 0.75289 0.58866 0.02357 0.0
C479 C 0.72652 0.57221 0.04321 0.0
H480 H 0.9538 0.64454 0.8622 0.0
H481 H 0.89871 0.57632 0.66259 0.0
H482 H 0.96986 0.61514 0.91908 0.0
H483 H 0.91508 0.54723 0.71896 0.0
H484 H 0.98399 0.52797 0.75796 0.0
H485 H 0.96123 0.5524 0.71444 0.0
H486 H 0.95336 0.56856 0.99338 0.0
H487 H 0.97598 0.54359 0.03736 0.0
C488 C 0.94493 0.62323 0.83104 0.0
C489 C 0.92507 0.61282 0.75755 0.0
C490 C 0.95402 0.60638 0.86401 0.0
C491 C 0.94371 0.57898 0.82323 0.0
C492 C 0.92343 0.56835 0.75126 0.0
C493 C 0.91406 0.58502 0.71916 0.0
C494 C 0.97713 0.53643 0.81001 0.0
C495 C 0.98176 0.53394 0.90103 0.0
C496 C 0.96399 0.55028 0.78501 0.0
C497 C 0.95557 0.56234 0.85059 0.0
C498 C 0.95976 0.55948 0.94167 0.0
C499 C 0.97252 0.5451 0.96667 0.0
H500 H 0.53563 0.38856 0.78145 0.0
H501 H 0.51843 0.37772 0.05683 0.0
H502 H 0.51469 0.33815 0.74606 0.0
H503 H 0.49612 0.32726 0.02089 0.0
H504 H 0.47502 0.23805 0.95162 0.0
H505 H 0.50023 0.28867 0.98686 0.0
H506 H 0.47362 0.29715 0.7215 0.0
H507 H 0.44991 0.24667 0.68512 0.0
C508 C 0.52727 0.37534 0.83436 0.0
C509 C 0.5287 0.38709 0.92189 0.0
C510 C 0.51501 0.34636 0.81398 0.0
C511 C 0.5034 0.32834 0.88024 0.0
C512 C 0.50517 0.34028 0.96819 0.0
C513 C 0.51787 0.36929 0.98889 0.0
C514 C 0.4747 0.25079 0.90074 0.0
C515 C 0.46039 0.23834 0.81558 0.0
C516 C 0.48901 0.27988 0.92113 0.0
C517 C 0.489 0.29729 0.85739 0.0
C518 C 0.47464 0.28468 0.77204 0.0
C519 C 0.46075 0.25561 0.7512 0.0
H520 H 0.78834 0.07244 0.70778 0.0
H521 H 0.80662 0.15667 0.78582 0.0
H522 H 0.74614 0.054 0.77062 0.0
H523 H 0.76383 0.13799 0.84923 0.0
H524 H 0.69953 0.08545 0.04943 0.0
H525 H 0.74149 0.10954 0.98062 0.0
H526 H 0.70344 0.05222 0.73803 0.0
H527 H 0.66221 0.02832 0.80563 0.0
C528 C 0.78316 0.08705 0.73738 0.0
C529 C 0.80074 0.116 0.74121 0.0
C530 C 0.75892 0.07647 0.77336 0.0
C531 C 0.75161 0.09453 0.81487 0.0
C532 C 0.76901 0.12358 0.81808 0.0
C533 C 0.79331 0.13424 0.78087 0.0
C534 C 0.70017 0.07823 0.98122 0.0
C535 C 0.67764 0.05466 0.93377 0.0
C536 C 0.72411 0.09208 0.94168 0.0
C537 C 0.72583 0.08252 0.85428 0.0
C538 C 0.70293 0.05977 0.806 0.0
C539 C 0.67924 0.04606 0.84508 0.0
H540 H 0.61758 0.94204 0.00765 0.0
H541 H 0.64321 0.96937 0.29127 0.0
H542 H 0.63451 0.91009 0.01442 0.0
H543 H 0.66027 0.93788 0.2978 0.0
H544 H 0.68177 0.87236 0.30014 0.0
H545 H 0.651 0.88957 0.28419 0.0
H546 H 0.68075 0.92014 0.03389 0.0
H547 H 0.71112 0.90273 0.0491 0.0
C548 C 0.62632 0.94081 0.0717 0.0
C549 C 0.6294 0.95846 0.14866 0.0
C550 C 0.63612 0.92264 0.0755 0.0
C551 C 0.6489 0.92161 0.15649 0.0
C552 C 0.65032 0.93794 0.23455 0.0
C553 C 0.64075 0.9562 0.23061 0.0
C554 C 0.68132 0.88223 0.2408 0.0
C555 C 0.69915 0.88656 0.17655 0.0
C556 C 0.66378 0.89216 0.23185 0.0
C557 C 0.6636 0.90642 0.15818 0.0
C558 C 0.68019 0.90904 0.09103 0.0
C559 C 0.6978 0.89926 0.1002 0.0
H560 H 0.1582 0.72123 0.04577 0.0
H561 H 0.18 0.72231 0.32739 0.0
H562 H 0.13503 0.67044 0.02727 0.0
H563 H 0.15714 0.67133 0.30834 0.0
H564 H 0.07447 0.58815 0.26338 0.0
H565 H 0.1095 0.63707 0.285 0.0
H566 H 0.13589 0.62711 0.02941 0.0
H567 H 0.10034 0.57793 1.00697 0.0
C568 C 0.15862 0.71066 0.10328 0.0
C569 C 0.17057 0.7258 0.18836 0.0
C570 C 0.14547 0.68149 0.09249 0.0
C571 C 0.14395 0.66681 0.1666 0.0
C572 C 0.15762 0.68205 0.25026 0.0
C573 C 0.17086 0.71127 0.26102 0.0
C574 C 0.08795 0.59624 0.21224 0.0
C575 C 0.0844 0.57926 0.13289 0.0
C576 C 0.10824 0.62428 0.22508 0.0
C577 C 0.12545 0.63605 0.15877 0.0
C578 C 0.12276 0.61871 0.08132 0.0
C579 C 0.10248 0.59054 0.06863 0.0
H580 H 0.48009 0.41728 0.24891 0.0
H581 H 0.48291 0.47515 0.06643 0.0
H582 H 0.43644 0.40711 0.28282 0.0
H583 H 0.43899 0.4654 0.10251 0.0
H584 H 0.34646 0.40866 0.10336 0.0
H585 H 0.39287 0.42798 0.07728 0.0
H586 H 0.41298 0.42554 0.35742 0.0
H587 H 0.36642 0.40538 0.38283 0.0
C588 C 0.47151 0.42812 0.21657 0.0
C589 C 0.48504 0.447 0.15463 0.0
C590 C 0.44646 0.42245 0.23683 0.0
C591 C 0.43416 0.43558 0.19612 0.0
C592 C 0.44778 0.45476 0.13473 0.0
C593 C 0.47299 0.46044 0.11427 0.0
C594 C 0.36084 0.41273 0.15987 0.0
C595 C 0.35261 0.40511 0.24501 0.0
C596 C 0.38755 0.42392 0.14489 0.0
C597 C 0.40668 0.42791 0.21482 0.0
C598 C 0.3987 0.42211 0.30141 0.0
C599 C 0.372 0.41075 0.31623 0.0
H600 H 0.85178 0.67234 0.43694 0.0
H601 H 0.89855 0.7392 0.65108 0.0
H602 H 0.83183 0.69852 0.38114 0.0
H603 H 0.87842 0.76513 0.59558 0.0
H604 H 0.80664 0.77822 0.54222 0.0
H605 H 0.83029 0.75495 0.58868 0.0
H606 H 0.84593 0.74565 0.31451 0.0
H607 H 0.82237 0.76937 0.26757 0.0
C608 C 0.85787 0.69265 0.4718 0.0
C609 C 0.87662 0.70368 0.54866 0.0
C610 C 0.8466 0.70768 0.43947 0.0
C611 C 0.85356 0.73377 0.48429 0.0
C612 C 0.87261 0.74497 0.56019 0.0
C613 C 0.88418 0.73018 0.59168 0.0
C614 C 0.81518 0.77132 0.49174 0.0
C615 C 0.81263 0.77557 0.40121 0.0
C616 C 0.82885 0.75815 0.51853 0.0
C617 C 0.83995 0.74859 0.45519 0.0
C618 C 0.83744 0.75278 0.36452 0.0
C619 C 0.8241 0.76642 0.33784 0.0
H620 H 0.37051 0.0929 0.69818 0.0
H621 H 0.38061 0.10947 0.42166 0.0
H622 H 0.33982 0.04344 0.64826 0.0
H623 H 0.3494 0.06015 0.37134 0.0
H624 H 0.31921 0.96546 0.32861 0.0
H625 H 0.34755 0.01562 0.37226 0.0
H626 H 0.29556 0.01128 0.57096 0.0
H627 H 0.26744 0.961 0.52844 0.0
C628 C 0.36615 0.08598 0.62673 0.0
C629 C 0.37824 0.10507 0.564 0.0
C630 C 0.34833 0.05767 0.59799 0.0
C631 C 0.34213 0.04779 0.50573 0.0
C632 C 0.35396 0.06698 0.44292 0.0
C633 C 0.37175 0.0953 0.47174 0.0
C634 C 0.31367 0.97522 0.38108 0.0
C635 C 0.2911 0.95915 0.42532 0.0
C636 C 0.32988 0.00403 0.40585 0.0
C637 C 0.32393 0.01747 0.47552 0.0
C638 C 0.30095 0.00152 0.51802 0.0
C639 C 0.28471 0.97271 0.49315 0.0
H640 H 0.02781 0.25938 0.63676 0.0
H641 H 0.01489 0.17633 0.6469 0.0
H642 H 0.06723 0.27247 0.56083 0.0
H643 H 0.05477 0.18964 0.57011 0.0
H644 H 0.14546 0.24015 0.51593 0.0
H645 H 0.1047 0.22193 0.5896 0.0
H646 H 0.07585 0.26028 0.40964 0.0
H647 H 0.11655 0.27868 0.33645 0.0
C648 C 0.03349 0.24392 0.62352 0.0
C649 C 0.01805 0.21673 0.64768 0.0
C650 C 0.05601 0.25139 0.57911 0.0
C651 C 0.06386 0.23195 0.5578 0.0
C652 C 0.04918 0.20507 0.58539 0.0
C653 C 0.02641 0.19749 0.62965 0.0
C654 C 0.13024 0.24433 0.49104 0.0
C655 C 0.13445 0.26115 0.42075 0.0
C656 C 0.10686 0.23382 0.53329 0.0
C657 C 0.08725 0.24005 0.50653 0.0
C658 C 0.09084 0.25559 0.4331 0.0
C659 C 0.1141 0.26596 0.39061 0.0
H660 H 0.4018 0.23323 0.40702 0.0
H661 H 0.35771 0.22416 0.63568 0.0
H662 H 0.37865 0.25318 0.33107 0.0
H663 H 0.33537 0.24544 0.56165 0.0
H664 H 0.28333 0.26376 0.38223 0.0
H665 H 0.30347 0.23861 0.44345 0.0
H666 H 0.37673 0.29401 0.33498 0.0
H667 H 0.35616 0.31814 0.27048 0.0
C668 C 0.38738 0.23587 0.44158 0.0
C669 C 0.38166 0.2273 0.52756 0.0
C670 C 0.37413 0.24738 0.39808 0.0
C671 C 0.35513 0.25103 0.44009 0.0
C672 C 0.34949 0.24249 0.5264 0.0
C673 C 0.36247 0.23054 0.56935 0.0
C674 C 0.3036 0.27022 0.37031 0.0
C675 C 0.31819 0.29296 0.32177 0.0
C676 C 0.31525 0.256 0.40618 0.0
C677 C 0.34188 0.26446 0.39533 0.0
C678 C 0.3561 0.28662 0.34392 0.0
C679 C 0.34432 0.30056 0.307 0.0
H680 H 0.84045 0.94347 0.52779 0.0
H681 H 0.80284 0.96044 0.30418 0.0
H682 H 0.8629 0.99246 0.58943 0.0
H683 H 0.82623 0.00967 0.36311 0.0
H684 H 0.84413 0.08658 0.54363 0.0
H685 H 0.82446 0.03837 0.47962 0.0
H686 H 0.8958 0.0392 0.57743 0.0
H687 H 0.91504 0.08742 0.64558 0.0
C688 C 0.83736 0.95779 0.49093 0.0
C689 C 0.8197 0.94805 0.41149 0.0
C690 C 0.85035 0.98597 0.52607 0.0
C691 C 0.84626 0.00514 0.48193 0.0
C692 C 0.82938 0.99547 0.4004 0.0
C693 C 0.8161 0.96725 0.36607 0.0
C694 C 0.85566 0.07651 0.55163 0.0
C695 C 0.88114 0.09083 0.59986 0.0
C696 C 0.84444 0.04883 0.51407 0.0
C697 C 0.85857 0.03478 0.5223 0.0
C698 C 0.88416 0.04917 0.57053 0.0
C699 C 0.89526 0.07685 0.60938 0.0
H700 H 0.97259 0.70982 0.44685 0.0
H701 H 0.99693 0.66212 0.59863 0.0
H702 H 0.0175 0.73685 0.40148 0.0
H703 H 0.04192 0.68994 0.55881 0.0
H704 H 0.11011 0.71776 0.3967 0.0
H705 H 0.06505 0.69375 0.43722 0.0
H706 H 0.0633 0.7702 0.43568 0.0
H707 H 0.1084 0.79387 0.38929 0.0
C708 C 0.98773 0.70555 0.47201 0.0
C709 C 0.98123 0.68366 0.52537 0.0
C710 C 0.01352 0.72108 0.44624 0.0
C711 C 0.03345 0.71533 0.47463 0.0
C712 C 0.02706 0.69442 0.53244 0.0
C713 C 0.00126 0.67859 0.55631 0.0
C714 C 0.10006 0.72943 0.40447 0.0
C715 C 0.11285 0.75774 0.39049 0.0
C716 C 0.07421 0.71572 0.4288 0.0
C717 C 0.06049 0.73007 0.44238 0.0
C718 C 0.07307 0.75834 0.42579 0.0
C719 C 0.09893 0.77198 0.39935 0.0
loop_
_geom_bond_atom_site_label_1
_geom_bond_atom_site_label_2
_geom_bond_distance
_geom_bond_site_symmetry_2
_ccdc_geom_bond_type
Zn0 O6 1.969 1_455 S
Zn0 O7 1.965 1_554 S
Zn0 O11 2.024 . S
Zn0 O16 1.969 . S
Zn1 O8 1.969 1_554 S
Zn1 O14 1.969 . S
Zn1 O15 1.965 . S
Zn1 O17 2.026 1_455 S
C2 O3 1.229 . S
C2 O11 1.058 . S
O3 C2 1.229 . S
C4 O5 1.218 1_655 S
C4 O17 1.066 1_556 S
O5 C4 1.218 1_455 S
O6 Zn0 1.969 1_655 S
O6 C9 1.267 1_554 S
O7 Zn0 1.965 1_556 S
O7 C18 1.260 . S
O8 Zn1 1.969 1_556 S
O8 C18 1.258 . S
C9 O6 1.267 1_556 S
C9 O10 1.228 1_655 S
O10 C9 1.228 1_455 S
O11 Zn0 2.024 . S
O11 C2 1.058 . S
C12 O13 1.228 . S
C12 O14 1.267 . S
O13 C12 1.228 . S
O14 Zn1 1.969 . S
O14 C12 1.267 . S
O15 Zn1 1.965 . S
O15 C19 1.260 . S
O16 Zn0 1.969 . S
O16 C19 1.258 . S
O17 Zn1 2.026 1_655 S
O17 C4 1.066 1_554 S
C18 O7 1.260 . S
C18 O8 1.258 . S
C19 O15 1.260 . S
C19 O16 1.258 . S
Zn20 O26 1.969 . S
Zn20 O27 1.965 . S
Zn20 O31 2.024 . S
Zn20 O36 1.969 1_554 S
Zn21 O28 1.969 . S
Zn21 O34 1.969 . S
Zn21 O35 1.965 1_554 S
Zn21 O37 2.024 . S
C22 O23 1.229 1_554 S
C22 O31 1.058 . S
O23 C22 1.229 1_556 S
C24 O25 1.229 . S
C24 O37 1.058 . S
O25 C24 1.229 . S
O26 Zn20 1.969 . S
O26 C29 1.267 . S
O27 Zn20 1.965 . S
O27 C38 1.260 . S
O28 Zn21 1.969 . S
O28 C38 1.258 . S
C29 O26 1.267 . S
C29 O30 1.228 . S
O30 C29 1.228 . S
O31 Zn20 2.024 . S
O31 C22 1.058 . S
C32 O33 1.228 1_554 S
C32 O34 1.267 . S
O33 C32 1.228 1_556 S
O34 Zn21 1.969 . S
O34 C32 1.267 . S
O35 Zn21 1.965 1_556 S
O35 C39 1.260 . S
O36 Zn20 1.969 1_556 S
O36 C39 1.258 . S
O37 Zn21 2.024 . S
O37 C24 1.058 . S
C38 O27 1.260 . S
C38 O28 1.258 . S
C39 O35 1.260 . S
C39 O36 1.258 . S
Zn40 O46 1.969 . S
Zn40 O47 1.965 . S
Zn40 O51 2.024 1_545 S
Zn40 O56 1.969 . S
Zn41 O48 1.969 1_554 S
Zn41 O54 1.969 1_545 S
Zn41 O55 1.965 . S
Zn41 O57 2.024 . S
C42 O43 1.228 1_565 S
C42 O51 1.057 . S
O43 C42 1.228 1_545 S
C44 O45 1.229 . S
C44 O57 1.058 . S
O45 C44 1.229 . S
O46 Zn40 1.969 . S
O46 C49 1.267 . S
O47 Zn40 1.965 . S
O47 C58 1.260 1_554 S
O48 Zn41 1.969 1_556 S
O48 C58 1.258 . S
C49 O46 1.267 . S
C49 O50 1.228 . S
O50 C49 1.228 . S
O51 Zn40 2.024 1_565 S
O51 C42 1.057 . S
C52 O53 1.228 1_565 S
C52 O54 1.267 . S
O53 C52 1.228 1_545 S
O54 Zn41 1.969 1_565 S
O54 C52 1.267 . S
O55 Zn41 1.965 . S
O55 C59 1.260 . S
O56 Zn40 1.969 . S
O56 C59 1.258 . S
O57 Zn41 2.024 . S
O57 C44 1.058 . S
C58 O47 1.260 1_556 S
C58 O48 1.258 . S
C59 O55 1.260 . S
C59 O56 1.258 . S
Zn60 O66 1.969 . S
Zn60 O67 1.965 . S
Zn60 O71 2.024 . S
Zn60 O76 1.969 . S
Zn61 O68 1.969 . S
Zn61 O74 1.969 . S
Zn61 O75 1.965 . S
Zn61 O77 2.024 . S
C62 O63 1.229 . S
C62 O71 1.058 . S
O63 C62 1.229 . S
C64 O65 1.229 . S
C64 O77 1.058 . S
O65 C64 1.229 . S
O66 Zn60 1.969 . S
O66 C69 1.267 . S
O67 Zn60 1.965 . S
O67 C78 1.260 . S
O68 Zn61 1.969 . S
O68 C78 1.258 . S
C69 O66 1.267 . S
C69 O70 1.228 . S
O70 C69 1.228 . S
O71 Zn60 2.024 . S
O71 C62 1.058 . S
C72 O73 1.228 . S
C72 O74 1.267 . S
O73 C72 1.228 . S
O74 Zn61 1.969 . S
O74 C72 1.267 . S
O75 Zn61 1.965 . S
O75 C79 1.260 . S
O76 Zn60 1.969 . S
O76 C79 1.258 . S
O77 Zn61 2.024 . S
O77 C64 1.058 . S
C78 O67 1.260 . S
C78 O68 1.258 . S
C79 O75 1.260 . S
C79 O76 1.258 . S
Zn80 O86 1.969 . S
Zn80 O87 1.965 . S
Zn80 O91 2.024 . S
Zn80 O96 1.969 . S
Zn81 O88 1.969 . S
Zn81 O94 1.969 . S
Zn81 O95 1.965 . S
Zn81 O97 2.024 . S
C82 O83 1.229 . S
C82 O91 1.058 . S
O83 C82 1.229 . S
C84 O85 1.229 . S
C84 O97 1.058 . S
O85 C84 1.229 . S
O86 Zn80 1.969 . S
O86 C89 1.267 . S
O87 Zn80 1.965 . S
O87 C98 1.260 . S
O88 Zn81 1.969 . S
O88 C98 1.258 . S
C89 O86 1.267 . S
C89 O90 1.228 . S
O90 C89 1.228 . S
O91 Zn80 2.024 . S
O91 C82 1.058 . S
C92 O93 1.228 . S
C92 O94 1.267 . S
O93 C92 1.228 . S
O94 Zn81 1.969 . S
O94 C92 1.267 . S
O95 Zn81 1.965 . S
O95 C99 1.260 . S
O96 Zn80 1.969 . S
O96 C99 1.258 . S
O97 Zn81 2.024 . S
O97 C84 1.058 . S
C98 O87 1.260 . S
C98 O88 1.258 . S
C99 O95 1.260 . S
C99 O96 1.258 . S
Zn100 O106 1.969 . S
Zn100 O107 1.965 . S
Zn100 O111 2.024 . S
Zn100 O116 1.969 . S
Zn101 O108 1.969 . S
Zn101 O114 1.969 . S
Zn101 O115 1.965 . S
Zn101 O117 2.024 . S
C102 O103 1.229 . S
C102 O111 1.058 . S
O103 C102 1.229 . S
C104 O105 1.229 . S
C104 O117 1.058 . S
O105 C104 1.229 . S
O106 Zn100 1.969 . S
O106 C109 1.267 . S
O107 Zn100 1.965 . S
O107 C118 1.260 . S
O108 Zn101 1.969 . S
O108 C118 1.258 . S
C109 O106 1.267 . S
C109 O110 1.228 . S
O110 C109 1.228 . S
O111 Zn100 2.024 . S
O111 C102 1.058 . S
C112 O113 1.228 . S
C112 O114 1.267 . S
O113 C112 1.228 . S
O114 Zn101 1.969 . S
O114 C112 1.267 . S
O115 Zn101 1.965 . S
O115 C119 1.260 . S
O116 Zn100 1.969 . S
O116 C119 1.258 . S
O117 Zn101 2.024 . S
O117 C104 1.058 . S
C118 O107 1.260 . S
C118 O108 1.258 . S
C119 O115 1.260 . S
C119 O116 1.258 . S
Zn120 O126 1.969 . S
Zn120 O127 1.965 . S
Zn120 O131 2.024 . S
Zn120 O136 1.969 . S
Zn121 O128 1.969 . S
Zn121 O134 1.969 . S
Zn121 O135 1.965 . S
Zn121 O137 2.024 . S
C122 O123 1.229 . S
C122 O131 1.058 . S
O123 C122 1.229 . S
C124 O125 1.229 . S
C124 O137 1.058 . S
O125 C124 1.229 . S
O126 Zn120 1.969 . S
O126 C129 1.267 . S
O127 Zn120 1.965 . S
O127 C138 1.260 . S
O128 Zn121 1.969 . S
O128 C138 1.258 . S
C129 O126 1.267 . S
C129 O130 1.228 . S
O130 C129 1.228 . S
O131 Zn120 2.024 . S
O131 C122 1.058 . S
C132 O133 1.228 . S
C132 O134 1.267 . S
O133 C132 1.228 . S
O134 Zn121 1.969 . S
O134 C132 1.267 . S
O135 Zn121 1.965 . S
O135 C139 1.260 . S
O136 Zn120 1.969 . S
O136 C139 1.258 . S
O137 Zn121 2.024 . S
O137 C124 1.058 . S
C138 O127 1.260 . S
C138 O128 1.258 . S
C139 O135 1.260 . S
C139 O136 1.258 . S
Zn140 O146 1.969 . S
Zn140 O147 1.965 . S
Zn140 O151 2.024 . S
Zn140 O156 1.969 . S
Zn141 O148 1.969 . S
Zn141 O154 1.969 . S
Zn141 O155 1.965 . S
Zn141 O157 2.024 . S
C142 O143 1.229 . S
C142 O151 1.058 . S
O143 C142 1.229 . S
C144 O145 1.229 . S
C144 O157 1.058 . S
O145 C144 1.229 . S
O146 Zn140 1.969 . S
O146 C149 1.267 . S
O147 Zn140 1.965 . S
O147 C158 1.260 . S
O148 Zn141 1.969 . S
O148 C158 1.258 . S
C149 O146 1.267 . S
C149 O150 1.228 . S
O150 C149 1.228 . S
O151 Zn140 2.024 . S
O151 C142 1.058 . S
C152 O153 1.228 . S
C152 O154 1.267 . S
O153 C152 1.228 . S
O154 Zn141 1.969 . S
O154 C152 1.267 . S
O155 Zn141 1.965 . S
O155 C159 1.260 . S
O156 Zn140 1.969 . S
O156 C159 1.258 . S
O157 Zn141 2.024 . S
O157 C144 1.058 . S
C158 O147 1.260 . S
C158 O148 1.258 . S
C159 O155 1.260 . S
C159 O156 1.258 . S
Zn160 O166 1.969 . S
Zn160 O167 1.965 . S
Zn160 O171 2.024 . S
Zn160 O176 1.969 . S
Zn161 O168 1.969 . S
Zn161 O174 1.969 . S
Zn161 O175 1.965 . S
Zn161 O177 2.024 . S
C162 O163 1.229 . S
C162 O171 1.058 . S
O163 C162 1.229 . S
C164 O165 1.229 . S
C164 O177 1.058 . S
O165 C164 1.229 . S
O166 Zn160 1.969 . S
O166 C169 1.267 . S
O167 Zn160 1.965 . S
O167 C178 1.260 . S
O168 Zn161 1.969 . S
O168 C178 1.258 . S
C169 O166 1.267 . S
C169 O170 1.228 . S
O170 C169 1.228 . S
O171 Zn160 2.024 . S
O171 C162 1.058 . S
C172 O173 1.228 . S
C172 O174 1.267 . S
O173 C172 1.228 . S
O174 Zn161 1.969 . S
O174 C172 1.267 . S
O175 Zn161 1.965 . S
O175 C179 1.260 . S
O176 Zn160 1.969 . S
O176 C179 1.258 . S
O177 Zn161 2.024 . S
O177 C164 1.058 . S
C178 O167 1.260 . S
C178 O168 1.258 . S
C179 O175 1.260 . S
C179 O176 1.258 . S
H180 C188 0.950 . S
H181 C193 0.950 1_655 S
H182 C190 0.950 . S
H183 C192 0.950 1_655 S
H184 C194 0.950 1_655 S
H185 C196 0.950 1_655 S
H186 C198 0.950 . S
H187 C199 0.950 . S
C188 H180 0.950 . S
C188 C189 1.386 . S
C188 C190 1.391 . S
C189 C188 1.386 . S
C189 C193 1.393 . S
C190 H182 0.950 . S
C190 C188 1.391 . S
C190 C191 1.400 . S
C191 C190 1.400 . S
C191 C192 1.398 . S
C191 C197 1.491 . S
C192 H183 0.950 1_455 S
C192 C191 1.398 . S
C192 C193 1.391 . S
C193 H181 0.950 1_455 S
C193 C189 1.393 . S
C193 C192 1.391 . S
C194 H184 0.950 1_455 S
C194 C195 1.386 . S
C194 C196 1.391 . S
C195 C194 1.386 . S
C195 C199 1.393 . S
C196 H185 0.950 1_455 S
C196 C194 1.391 . S
C196 C197 1.400 . S
C197 C191 1.491 . S
C197 C196 1.400 . S
C197 C198 1.398 . S
C198 H186 0.950 . S
C198 C197 1.398 . S
C198 C199 1.391 . S
C199 H187 0.950 . S
C199 C195 1.393 . S
C199 C198 1.391 . S
H200 C208 0.950 . S
H201 C213 0.950 . S
H202 C210 0.950 . S
H203 C212 0.950 . S
H204 C214 0.950 . S
H205 C216 0.950 . S
H206 C218 0.950 . S
H207 C219 0.950 . S
C208 H200 0.950 . S
C208 C209 1.386 . S
C208 C210 1.391 . S
C209 C208 1.386 . S
C209 C213 1.393 . S
C210 H202 0.950 . S
C210 C208 1.391 . S
C210 C211 1.400 . S
C211 C210 1.400 . S
C211 C212 1.398 . S
C211 C217 1.491 . S
C212 H203 0.950 . S
C212 C211 1.398 . S
C212 C213 1.391 . S
C213 H201 0.950 . S
C213 C209 1.393 . S
C213 C212 1.391 . S
C214 H204 0.950 . S
C214 C215 1.386 . S
C214 C216 1.391 . S
C215 C214 1.386 . S
C215 C219 1.393 . S
C216 H205 0.950 . S
C216 C214 1.391 . S
C216 C217 1.400 . S
C217 C211 1.491 . S
C217 C216 1.400 . S
C217 C218 1.398 . S
C218 H206 0.950 . S
C218 C217 1.398 . S
C218 C219 1.391 . S
C219 H207 0.950 . S
C219 C215 1.393 . S
C219 C218 1.391 . S
H220 C228 0.950 1_565 S
H221 C233 0.950 . S
H222 C230 0.950 1_565 S
H223 C232 0.950 . S
H224 C234 0.950 . S
H225 C236 0.950 . S
H226 C238 0.958 . S
H227 C239 0.950 . S
C228 H220 0.950 1_545 S
C228 C229 1.386 . S
C228 C230 1.391 . S
C229 C228 1.386 . S
C229 C233 1.393 . S
C230 H222 0.950 1_545 S
C230 C228 1.391 . S
C230 C231 1.400 . S
C231 C230 1.400 . S
C231 C232 1.398 . S
C231 C237 1.491 . S
C232 H223 0.950 . S
C232 C231 1.398 . S
C232 C233 1.391 . S
C233 H221 0.950 . S
C233 C229 1.393 . S
C233 C232 1.391 . S
C234 H224 0.950 . S
C234 C235 1.386 . S
C234 C236 1.391 . S
C235 C234 1.386 . S
C235 C239 1.393 . S
C236 H225 0.950 . S
C236 C234 1.391 . S
C236 C237 1.400 . S
C237 C231 1.491 . S
C237 C236 1.400 . S
C237 C238 1.398 . S
C238 H226 0.958 . S
C238 C237 1.398 . S
C238 C239 1.391 . S
C239 H227 0.950 . S
C239 C235 1.393 . S
C239 C238 1.391 . S
H240 C248 0.950 . S
H241 C253 0.950 . S
H242 C250 0.950 . S
H243 C252 0.950 . S
H244 C254 0.950 . S
H245 C256 0.950 . S
H246 C258 0.950 . S
H247 C259 0.950 . S
C248 H240 0.950 . S
C248 C249 1.386 . S
C248 C250 1.391 . S
C249 C248 1.386 . S
C249 C253 1.393 . S
C250 H242 0.950 . S
C250 C248 1.391 . S
C250 C251 1.400 . S
C251 C250 1.400 . S
C251 C252 1.398 . S
C251 C257 1.491 . S
C252 H243 0.950 . S
C252 C251 1.398 . S
C252 C253 1.391 . S
C253 H241 0.950 . S
C253 C249 1.393 . S
C253 C252 1.391 . S
C254 H244 0.950 . S
C254 C255 1.386 . S
C254 C256 1.391 1_554 S
C255 C254 1.386 . S
C255 C259 1.393 . S
C256 H245 0.950 . S
C256 C254 1.391 1_556 S
C256 C257 1.400 . S
C257 C251 1.491 . S
C257 C256 1.400 . S
C257 C258 1.398 . S
C258 H246 0.950 . S
C258 C257 1.398 . S
C258 C259 1.391 1_556 S
C259 H247 0.950 . S
C259 C255 1.393 . S
C259 C258 1.391 1_554 S
H260 C268 0.950 . S
H261 C273 0.950 . S
H262 C270 0.950 . S
H263 C272 0.950 . S
H264 C274 0.950 1_554 S
H265 C276 0.950 . S
H266 C278 0.950 . S
H267 C279 0.950 . S
C268 H260 0.950 . S
C268 C269 1.386 . S
C268 C270 1.391 . S
C269 C268 1.386 . S
C269 C273 1.393 . S
C270 H262 0.950 . S
C270 C268 1.391 . S
C270 C271 1.400 . S
C271 C270 1.400 . S
C271 C272 1.398 . S
C271 C277 1.491 . S
C272 H263 0.950 . S
C272 C271 1.398 . S
C272 C273 1.391 . S
C273 H261 0.950 . S
C273 C269 1.393 . S
C273 C272 1.391 . S
C274 H264 0.950 1_556 S
C274 C275 1.386 1_556 S
C274 C276 1.391 . S
C275 C274 1.386 1_554 S
C275 C279 1.393 1_554 S
C276 H265 0.950 . S
C276 C274 1.391 . S
C276 C277 1.400 . S
C277 C271 1.491 . S
C277 C276 1.400 . S
C277 C278 1.398 . S
C278 H266 0.950 . S
C278 C277 1.398 . S
C278 C279 1.391 . S
C279 H267 0.950 . S
C279 C275 1.393 1_556 S
C279 C278 1.391 . S
H280 C288 0.950 . S
H281 C293 0.950 . S
H282 C290 0.950 . S
H283 C292 0.950 . S
H284 C294 0.950 . S
H285 C296 0.950 . S
H286 C298 0.950 . S
H287 C299 0.950 . S
C288 H280 0.950 . S
C288 C289 1.386 . S
C288 C290 1.391 . S
C289 C288 1.386 . S
C289 C293 1.393 . S
C290 H282 0.950 . S
C290 C288 1.391 . S
C290 C291 1.400 . S
C291 C290 1.400 . S
C291 C292 1.398 . S
C291 C297 1.491 . S
C292 H283 0.950 . S
C292 C291 1.398 . S
C292 C293 1.391 . S
C293 H281 0.950 . S
C293 C289 1.393 . S
C293 C292 1.391 . S
C294 H284 0.950 . S
C294 C295 1.386 . S
C294 C296 1.391 . S
C295 C294 1.386 . S
C295 C299 1.393 . S
C296 H285 0.950 . S
C296 C294 1.391 . S
C296 C297 1.400 . S
C297 C291 1.491 . S
C297 C296 1.400 . S
C297 C298 1.398 . S
C298 H286 0.950 . S
C298 C297 1.398 . S
C298 C299 1.391 . S
C299 H287 0.950 . S
C299 C295 1.393 . S
C299 C298 1.391 . S
H300 C308 0.950 . S
H301 C313 0.950 . S
H302 C310 0.950 . S
H303 C312 0.950 . S
H304 C314 0.950 . S
H305 C316 0.950 . S
H306 C318 0.950 . S
H307 C319 0.950 . S
C308 H300 0.950 . S
C308 C309 1.386 . S
C308 C310 1.391 . S
C309 C308 1.386 . S
C309 C313 1.393 . S
C310 H302 0.950 . S
C310 C308 1.391 . S
C310 C311 1.400 . S
C311 C310 1.400 . S
C311 C312 1.398 . S
C311 C317 1.491 . S
C312 H303 0.950 . S
C312 C311 1.398 . S
C312 C313 1.391 . S
C313 H301 0.950 . S
C313 C309 1.393 . S
C313 C312 1.391 . S
C314 H304 0.950 . S
C314 C315 1.386 . S
C314 C316 1.391 1_556 S
C315 C314 1.386 . S
C315 C319 1.393 . S
C316 H305 0.950 . S
C316 C314 1.391 1_554 S
C316 C317 1.400 . S
C317 C311 1.491 . S
C317 C316 1.400 . S
C317 C318 1.398 . S
C318 H306 0.950 . S
C318 C317 1.398 . S
C318 C319 1.391 1_554 S
C319 H307 0.950 . S
C319 C315 1.393 . S
C319 C318 1.391 1_556 S
H320 C328 0.950 . S
H321 C333 0.950 . S
H322 C330 0.950 . S
H323 C332 0.950 . S
H324 C334 0.950 . S
H325 C336 0.950 . S
H326 C338 0.950 . S
H327 C339 0.950 . S
C328 H320 0.950 . S
C328 C329 1.386 . S
C328 C330 1.391 . S
C329 C328 1.386 . S
C329 C333 1.393 . S
C330 H322 0.950 . S
C330 C328 1.391 . S
C330 C331 1.400 . S
C331 C330 1.400 . S
C331 C332 1.398 . S
C331 C337 1.491 . S
C332 H323 0.950 . S
C332 C331 1.398 . S
C332 C333 1.391 . S
C333 H321 0.950 . S
C333 C329 1.393 . S
C333 C332 1.391 . S
C334 H324 0.950 . S
C334 C335 1.386 . S
C334 C336 1.391 1_556 S
C335 C334 1.386 . S
C335 C339 1.393 . S
C336 H325 0.950 . S
C336 C334 1.391 1_554 S
C336 C337 1.400 . S
C337 C331 1.491 . S
C337 C336 1.400 . S
C337 C338 1.398 . S
C338 H326 0.950 . S
C338 C337 1.398 . S
C338 C339 1.391 1_554 S
C339 H327 0.950 . S
C339 C335 1.393 . S
C339 C338 1.391 1_556 S
H340 C348 0.950 . S
H341 C353 0.950 . S
H342 C350 0.950 . S
H343 C352 0.950 . S
H344 C354 0.950 . S
H345 C356 0.950 . S
H346 C358 0.950 . S
H347 C359 0.950 1_556 S
C348 H340 0.950 . S
C348 C349 1.386 . S
C348 C350 1.391 . S
C349 C348 1.386 . S
C349 C353 1.393 . S
C350 H342 0.950 . S
C350 C348 1.391 . S
C350 C351 1.400 . S
C351 C350 1.400 . S
C351 C352 1.398 . S
C351 C357 1.491 . S
C352 H343 0.950 . S
C352 C351 1.398 . S
C352 C353 1.391 . S
C353 H341 0.950 . S
C353 C349 1.393 . S
C353 C352 1.391 . S
C354 H344 0.950 . S
C354 C355 1.386 . S
C354 C356 1.391 1_556 S
C355 C354 1.386 . S
C355 C359 1.393 1_556 S
C356 H345 0.950 . S
C356 C354 1.391 1_554 S
C356 C357 1.400 . S
C357 C351 1.491 . S
C357 C356 1.400 . S
C357 C358 1.398 . S
C358 H346 0.950 . S
C358 C357 1.398 . S
C358 C359 1.391 . S
C359 H347 0.950 1_554 S
C359 C355 1.393 1_554 S
C359 C358 1.391 . S
H360 C368 0.950 . S
H361 C373 0.950 . S
H362 C370 0.950 . S
H363 C372 0.950 . S
H364 C374 0.950 . S
H365 C376 0.950 . S
H366 C378 0.950 . S
H367 C379 0.950 . S
C368 H360 0.950 . S
C368 C369 1.386 . S
C368 C370 1.391 . S
C369 C368 1.386 . S
C369 C373 1.393 . S
C370 H362 0.950 . S
C370 C368 1.391 . S
C370 C371 1.400 . S
C371 C370 1.400 . S
C371 C372 1.398 . S
C371 C377 1.491 . S
C372 H363 0.950 . S
C372 C371 1.398 . S
C372 C373 1.391 . S
C373 H361 0.950 . S
C373 C369 1.393 . S
C373 C372 1.391 . S
C374 H364 0.950 . S
C374 C375 1.386 . S
C374 C376 1.391 . S
C375 C374 1.386 . S
C375 C379 1.393 . S
C376 H365 0.950 . S
C376 C374 1.391 . S
C376 C377 1.400 . S
C377 C371 1.491 . S
C377 C376 1.400 . S
C377 C378 1.398 . S
C378 H366 0.950 . S
C378 C377 1.398 . S
C378 C379 1.391 . S
C379 H367 0.950 . S
C379 C375 1.393 . S
C379 C378 1.391 . S
H380 C388 0.950 . S
H381 C393 0.950 . S
H382 C390 0.950 . S
H383 C392 0.950 . S
H384 C394 0.950 . S
H385 C396 0.950 . S
H386 C398 0.950 . S
H387 C399 0.950 . S
C388 H380 0.950 . S
C388 C389 1.386 . S
C388 C390 1.391 . S
C389 C388 1.386 . S
C389 C393 1.393 . S
C390 H382 0.950 . S
C390 C388 1.391 . S
C390 C391 1.400 . S
C391 C390 1.400 . S
C391 C392 1.398 . S
C391 C397 1.491 . S
C392 H383 0.950 . S
C392 C391 1.398 . S
C392 C393 1.391 . S
C393 H381 0.950 . S
C393 C389 1.393 . S
C393 C392 1.391 . S
C394 H384 0.950 . S
C394 C395 1.386 . S
C394 C396 1.391 . S
C395 C394 1.386 . S
C395 C399 1.393 . S
C396 H385 0.950 . S
C396 C394 1.391 . S
C396 C397 1.400 . S
C397 C391 1.491 . S
C397 C396 1.400 . S
C397 C398 1.398 . S
C398 H386 0.950 . S
C398 C397 1.398 . S
C398 C399 1.391 . S
C399 H387 0.950 . S
C399 C395 1.393 . S
C399 C398 1.391 . S
H400 C408 0.950 . S
H401 C413 0.950 1_545 S
H402 C410 0.950 . S
H403 C412 0.950 . S
H404 C414 0.950 . S
H405 C416 0.950 . S
H406 C418 0.950 . S
H407 C419 0.950 . S
C408 H400 0.950 . S
C408 C409 1.386 . S
C408 C410 1.391 . S
C409 C408 1.386 . S
C409 C413 1.393 . S
C410 H402 0.950 . S
C410 C408 1.391 . S
C410 C411 1.400 . S
C411 C410 1.400 . S
C411 C412 1.398 . S
C411 C417 1.491 . S
C412 H403 0.950 . S
C412 C411 1.398 . S
C412 C413 1.391 . S
C413 H401 0.950 1_565 S
C413 C409 1.393 . S
C413 C412 1.391 . S
C414 H404 0.950 . S
C414 C415 1.386 . S
C414 C416 1.391 . S
C415 C414 1.386 . S
C415 C419 1.393 . S
C416 H405 0.950 . S
C416 C414 1.391 . S
C416 C417 1.400 . S
C417 C411 1.491 . S
C417 C416 1.400 . S
C417 C418 1.398 . S
C418 H406 0.950 . S
C418 C417 1.398 . S
C418 C419 1.391 . S
C419 H407 0.950 . S
C419 C415 1.393 . S
C419 C418 1.391 . S
H420 C428 0.950 . S
H421 C433 0.950 . S
H422 C430 0.950 . S
H423 C432 0.950 . S
H424 C434 0.950 . S
H425 C436 0.950 . S
H426 C438 0.950 1_554 S
H427 C439 0.950 . S
C428 H420 0.950 . S
C428 C429 1.386 . S
C428 C430 1.391 . S
C429 C428 1.386 . S
C429 C433 1.393 1_554 S
C430 H422 0.950 . S
C430 C428 1.391 . S
C430 C431 1.400 1_554 S
C431 C430 1.400 1_556 S
C431 C432 1.398 . S
C431 C437 1.491 . S
C432 H423 0.950 . S
C432 C431 1.398 . S
C432 C433 1.391 . S
C433 H421 0.950 . S
C433 C429 1.393 1_556 S
C433 C432 1.391 . S
C434 H424 0.950 . S
C434 C435 1.386 . S
C434 C436 1.391 . S
C435 C434 1.386 . S
C435 C439 1.393 . S
C436 H425 0.950 . S
C436 C434 1.391 . S
C436 C437 1.400 . S
C437 C431 1.491 . S
C437 C436 1.400 . S
C437 C438 1.398 . S
C438 H426 0.950 1_556 S
C438 C437 1.398 . S
C438 C439 1.391 . S
C439 H427 0.950 . S
C439 C435 1.393 . S
C439 C438 1.391 . S
H440 C448 0.950 . S
H441 C453 0.950 . S
H442 C450 0.950 . S
H443 C452 0.950 . S
H444 C454 0.950 1_455 S
H445 C456 0.950 . S
H446 C458 0.950 . S
H447 C459 0.950 . S
C448 H440 0.950 . S
C448 C449 1.386 . S
C448 C450 1.391 . S
C449 C448 1.386 . S
C449 C453 1.393 . S
C450 H442 0.950 . S
C450 C448 1.391 . S
C450 C451 1.400 . S
C451 C450 1.400 . S
C451 C452 1.398 . S
C451 C457 1.491 . S
C452 H443 0.950 . S
C452 C451 1.398 . S
C452 C453 1.391 . S
C453 H441 0.950 . S
C453 C449 1.393 . S
C453 C452 1.391 . S
C454 H444 0.950 1_655 S
C454 C455 1.386 . S
C454 C456 1.391 . S
C455 C454 1.386 . S
C455 C459 1.393 . S
C456 H445 0.950 . S
C456 C454 1.391 . S
C456 C457 1.400 . S
C457 C451 1.491 . S
C457 C456 1.400 . S
C457 C458 1.398 . S
C458 H446 0.950 . S
C458 C457 1.398 . S
C458 C459 1.391 . S
C459 H447 0.950 . S
C459 C455 1.393 . S
C459 C458 1.391 . S
H460 C468 0.950 . S
H461 C473 0.950 . S
H462 C470 0.950 . S
H463 C472 0.950 . S
H464 C474 0.950 . S
H465 C476 0.950 . S
H466 C478 0.950 . S
H467 C479 0.950 . S
C468 H460 0.950 . S
C468 C469 1.386 . S
C468 C470 1.391 . S
C469 C468 1.386 . S
C469 C473 1.393 . S
C470 H462 0.950 . S
C470 C468 1.391 . S
C470 C471 1.400 . S
C471 C470 1.400 . S
C471 C472 1.398 . S
C471 C477 1.491 . S
C472 H463 0.950 . S
C472 C471 1.398 . S
C472 C473 1.391 . S
C473 H461 0.950 . S
C473 C469 1.393 . S
C473 C472 1.391 . S
C474 H464 0.950 . S
C474 C475 1.386 1_556 S
C474 C476 1.391 . S
C475 C474 1.386 1_554 S
C475 C479 1.393 . S
C476 H465 0.950 . S
C476 C474 1.391 . S
C476 C477 1.400 . S
C477 C471 1.491 . S
C477 C476 1.400 . S
C477 C478 1.398 . S
C478 H466 0.950 . S
C478 C477 1.398 . S
C478 C479 1.391 1_556 S
C479 H467 0.950 . S
C479 C475 1.393 . S
C479 C478 1.391 1_554 S
H480 C488 0.950 . S
H481 C493 0.950 . S
H482 C490 0.950 . S
H483 C492 0.950 . S
H484 C494 0.950 . S
H485 C496 0.950 . S
H486 C498 0.950 . S
H487 C499 0.950 1_554 S
C488 H480 0.950 . S
C488 C489 1.386 . S
C488 C490 1.391 . S
C489 C488 1.386 . S
C489 C493 1.393 . S
C490 H482 0.950 . S
C490 C488 1.391 . S
C490 C491 1.400 . S
C491 C490 1.400 . S
C491 C492 1.398 . S
C491 C497 1.491 . S
C492 H483 0.950 . S
C492 C491 1.398 . S
C492 C493 1.391 . S
C493 H481 0.950 . S
C493 C489 1.393 . S
C493 C492 1.391 . S
C494 H484 0.950 . S
C494 C495 1.386 . S
C494 C496 1.391 . S
C495 C494 1.386 . S
C495 C499 1.393 . S
C496 H485 0.950 . S
C496 C494 1.391 . S
C496 C497 1.400 . S
C497 C491 1.491 . S
C497 C496 1.400 . S
C497 C498 1.398 . S
C498 H486 0.950 . S
C498 C497 1.398 . S
C498 C499 1.391 . S
C499 H487 0.950 1_556 S
C499 C495 1.393 . S
C499 C498 1.391 . S
H500 C508 0.950 . S
H501 C513 0.944 1_554 S
H502 C510 0.950 . S
H503 C512 0.950 . S
H504 C514 0.950 . S
H505 C516 0.950 . S
H506 C518 0.950 . S
H507 C519 0.950 . S
C508 H500 0.950 . S
C508 C509 1.386 . S
C508 C510 1.391 . S
C509 C508 1.386 . S
C509 C513 1.394 . S
C510 H502 0.950 . S
C510 C508 1.391 . S
C510 C511 1.400 . S
C511 C510 1.400 . S
C511 C512 1.398 . S
C511 C517 1.491 . S
C512 H503 0.950 . S
C512 C511 1.398 . S
C512 C513 1.395 . S
C513 H501 0.944 1_556 S
C513 C509 1.394 . S
C513 C512 1.395 . S
C514 H504 0.950 . S
C514 C515 1.386 . S
C514 C516 1.391 . S
C515 C514 1.386 . S
C515 C519 1.393 . S
C516 H505 0.950 . S
C516 C514 1.391 . S
C516 C517 1.400 . S
C517 C511 1.491 . S
C517 C516 1.400 . S
C517 C518 1.398 . S
C518 H506 0.950 . S
C518 C517 1.398 . S
C518 C519 1.391 . S
C519 H507 0.950 . S
C519 C515 1.393 . S
C519 C518 1.391 . S
H520 C528 0.950 . S
H521 C533 0.950 . S
H522 C530 0.950 . S
H523 C532 0.950 1_554 S
H524 C534 0.950 . S
H525 C536 0.950 . S
H526 C538 0.950 . S
H527 C539 0.950 . S
C528 H520 0.950 . S
C528 C529 1.386 . S
C528 C530 1.391 . S
C529 C528 1.386 . S
C529 C533 1.393 . S
C530 H522 0.950 . S
C530 C528 1.391 . S
C530 C531 1.400 . S
C531 C530 1.400 . S
C531 C532 1.398 . S
C531 C537 1.491 . S
C532 H523 0.950 1_556 S
C532 C531 1.398 . S
C532 C533 1.391 . S
C533 H521 0.950 . S
C533 C529 1.393 . S
C533 C532 1.391 . S
C534 H524 0.950 . S
C534 C535 1.386 . S
C534 C536 1.391 . S
C535 C534 1.386 . S
C535 C539 1.393 1_554 S
C536 H525 0.950 . S
C536 C534 1.391 . S
C536 C537 1.400 1_554 S
C537 C531 1.491 . S
C537 C536 1.400 1_556 S
C537 C538 1.398 . S
C538 H526 0.950 . S
C538 C537 1.398 . S
C538 C539 1.391 . S
C539 H527 0.950 . S
C539 C535 1.393 1_556 S
C539 C538 1.391 . S
H540 C548 0.950 . S
H541 C553 0.950 1_545 S
H542 C550 0.950 . S
H543 C552 0.950 . S
H544 C554 0.950 . S
H545 C556 0.950 . S
H546 C558 0.950 . S
H547 C559 0.950 . S
C548 H540 0.950 . S
C548 C549 1.386 . S
C548 C550 1.391 . S
C549 C548 1.386 . S
C549 C553 1.393 . S
C550 H542 0.950 . S
C550 C548 1.391 . S
C550 C551 1.400 . S
C551 C550 1.400 . S
C551 C552 1.398 . S
C551 C557 1.491 . S
C552 H543 0.950 . S
C552 C551 1.398 . S
C552 C553 1.391 . S
C553 H541 0.950 1_565 S
C553 C549 1.393 . S
C553 C552 1.391 . S
C554 H544 0.950 . S
C554 C555 1.386 . S
C554 C556 1.391 . S
C555 C554 1.386 . S
C555 C559 1.393 . S
C556 H545 0.950 . S
C556 C554 1.391 . S
C556 C557 1.400 . S
C557 C551 1.491 . S
C557 C556 1.400 . S
C557 C558 1.398 . S
C558 H546 0.950 . S
C558 C557 1.398 . S
C558 C559 1.391 . S
C559 H547 0.950 . S
C559 C555 1.393 . S
C559 C558 1.391 . S
H560 C568 0.950 . S
H561 C573 0.950 . S
H562 C570 0.950 . S
H563 C572 0.950 . S
H564 C574 0.950 . S
H565 C576 0.950 . S
H566 C578 0.950 . S
H567 C579 0.950 1_556 S
C568 H560 0.950 . S
C568 C569 1.386 . S
C568 C570 1.391 . S
C569 C568 1.386 . S
C569 C573 1.393 . S
C570 H562 0.950 . S
C570 C568 1.391 . S
C570 C571 1.400 . S
C571 C570 1.400 . S
C571 C572 1.398 . S
C571 C577 1.491 . S
C572 H563 0.950 . S
C572 C571 1.398 . S
C572 C573 1.391 . S
C573 H561 0.950 . S
C573 C569 1.393 . S
C573 C572 1.391 . S
C574 H564 0.950 . S
C574 C575 1.386 . S
C574 C576 1.391 . S
C575 C574 1.386 . S
C575 C579 1.393 . S
C576 H565 0.950 . S
C576 C574 1.391 . S
C576 C577 1.400 . S
C577 C571 1.491 . S
C577 C576 1.400 . S
C577 C578 1.398 . S
C578 H566 0.950 . S
C578 C577 1.398 . S
C578 C579 1.391 . S
C579 H567 0.950 1_554 S
C579 C575 1.393 . S
C579 C578 1.391 . S
H580 C588 0.950 . S
H581 C593 0.950 . S
H582 C590 0.950 . S
H583 C592 0.950 . S
H584 C594 0.950 . S
H585 C596 0.950 . S
H586 C598 0.950 . S
H587 C599 0.950 . S
C588 H580 0.950 . S
C588 C589 1.386 . S
C588 C590 1.391 . S
C589 C588 1.386 . S
C589 C593 1.393 . S
C590 H582 0.950 . S
C590 C588 1.391 . S
C590 C591 1.400 . S
C591 C590 1.400 . S
C591 C592 1.398 . S
C591 C597 1.491 . S
C592 H583 0.950 . S
C592 C591 1.398 . S
C592 C593 1.391 . S
C593 H581 0.950 . S
C593 C589 1.393 . S
C593 C592 1.391 . S
C594 H584 0.950 . S
C594 C595 1.386 . S
C594 C596 1.391 . S
C595 C594 1.386 . S
C595 C599 1.393 . S
C596 H585 0.950 . S
C596 C594 1.391 . S
C596 C597 1.400 . S
C597 C591 1.491 . S
C597 C596 1.400 . S
C597 C598 1.398 . S
C598 H586 0.950 . S
C598 C597 1.398 . S
C598 C599 1.391 . S
C599 H587 0.950 . S
C599 C595 1.393 . S
C599 C598 1.391 . S
H600 C608 0.950 . S
H601 C613 0.950 . S
H602 C610 0.950 . S
H603 C612 0.950 . S
H604 C614 0.950 . S
H605 C616 0.950 . S
H606 C618 0.950 . S
H607 C619 0.950 . S
C608 H600 0.950 . S
C608 C609 1.386 . S
C608 C610 1.391 . S
C609 C608 1.386 . S
C609 C613 1.393 . S
C610 H602 0.950 . S
C610 C608 1.391 . S
C610 C611 1.400 . S
C611 C610 1.400 . S
C611 C612 1.398 . S
C611 C617 1.491 . S
C612 H603 0.950 . S
C612 C611 1.398 . S
C612 C613 1.391 . S
C613 H601 0.950 . S
C613 C609 1.393 . S
C613 C612 1.391 . S
C614 H604 0.950 . S
C614 C615 1.386 . S
C614 C616 1.391 . S
C615 C614 1.386 . S
C615 C619 1.393 . S
C616 H605 0.950 . S
C616 C614 1.391 . S
C616 C617 1.400 . S
C617 C611 1.491 . S
C617 C616 1.400 . S
C617 C618 1.398 . S
C618 H606 0.950 . S
C618 C617 1.398 . S
C618 C619 1.391 . S
C619 H607 0.950 . S
C619 C615 1.393 . S
C619 C618 1.391 . S
H620 C628 0.950 . S
H621 C633 0.950 . S
H622 C630 0.950 . S
H623 C632 0.950 . S
H624 C634 0.950 . S
H625 C636 0.950 . S
H626 C638 0.950 . S
H627 C639 0.950 . S
C628 H620 0.950 . S
C628 C629 1.386 . S
C628 C630 1.391 . S
C629 C628 1.386 . S
C629 C633 1.393 . S
C630 H622 0.950 . S
C630 C628 1.391 . S
C630 C631 1.400 . S
C631 C630 1.400 . S
C631 C632 1.398 . S
C631 C637 1.491 . S
C632 H623 0.950 . S
C632 C631 1.398 . S
C632 C633 1.391 . S
C633 H621 0.950 . S
C633 C629 1.393 . S
C633 C632 1.391 . S
C634 H624 0.950 . S
C634 C635 1.386 . S
C634 C636 1.391 1_565 S
C635 C634 1.386 . S
C635 C639 1.393 . S
C636 H625 0.950 . S
C636 C634 1.391 1_545 S
C636 C637 1.400 . S
C637 C631 1.491 . S
C637 C636 1.400 . S
C637 C638 1.398 1_545 S
C638 H626 0.950 . S
C638 C637 1.398 1_565 S
C638 C639 1.391 . S
C639 H627 0.950 . S
C639 C635 1.393 . S
C639 C638 1.391 . S
H640 C648 0.950 . S
H641 C653 0.950 . S
H642 C650 0.950 . S
H643 C652 0.950 . S
H644 C654 0.950 . S
H645 C656 0.950 . S
H646 C658 0.950 . S
H647 C659 0.950 . S
C648 H640 0.950 . S
C648 C649 1.386 . S
C648 C650 1.391 1_655 S
C649 C648 1.386 . S
C649 C653 1.393 1_655 S
C650 H642 0.950 . S
C650 C648 1.391 1_455 S
C650 C651 1.400 . S
C651 C650 1.400 . S
C651 C652 1.398 . S
C651 C657 1.491 . S
C652 H643 0.950 . S
C652 C651 1.398 . S
C652 C653 1.391 . S
C653 H641 0.950 . S
C653 C649 1.393 1_455 S
C653 C652 1.391 . S
C654 H644 0.950 . S
C654 C655 1.386 . S
C654 C656 1.391 . S
C655 C654 1.386 . S
C655 C659 1.393 . S
C656 H645 0.950 . S
C656 C654 1.391 . S
C656 C657 1.400 . S
C657 C651 1.491 . S
C657 C656 1.400 . S
C657 C658 1.398 . S
C658 H646 0.950 . S
C658 C657 1.398 . S
C658 C659 1.391 . S
C659 H647 0.950 . S
C659 C655 1.393 . S
C659 C658 1.391 . S
H660 C668 0.950 . S
H661 C673 0.950 . S
H662 C670 0.950 . S
H663 C672 0.950 . S
H664 C674 0.950 . S
H665 C676 0.950 . S
H666 C678 0.950 . S
H667 C679 0.950 . S
C668 H660 0.950 . S
C668 C669 1.386 . S
C668 C670 1.391 . S
C669 C668 1.386 . S
C669 C673 1.393 . S
C670 H662 0.950 . S
C670 C668 1.391 . S
C670 C671 1.400 . S
C671 C670 1.400 . S
C671 C672 1.398 . S
C671 C677 1.491 . S
C672 H663 0.950 . S
C672 C671 1.398 . S
C672 C673 1.391 . S
C673 H661 0.950 . S
C673 C669 1.393 . S
C673 C672 1.391 . S
C674 H664 0.950 . S
C674 C675 1.386 . S
C674 C676 1.391 . S
C675 C674 1.386 . S
C675 C679 1.393 . S
C676 H665 0.950 . S
C676 C674 1.391 . S
C676 C677 1.400 . S
C677 C671 1.491 . S
C677 C676 1.400 . S
C677 C678 1.398 . S
C678 H666 0.950 . S
C678 C677 1.398 . S
C678 C679 1.391 . S
C679 H667 0.950 . S
C679 C675 1.393 . S
C679 C678 1.391 . S
H680 C688 0.950 . S
H681 C693 0.950 . S
H682 C690 0.950 1_545 S
H683 C692 0.950 1_545 S
H684 C694 0.950 . S
H685 C696 0.950 . S
H686 C698 0.950 . S
H687 C699 0.950 . S
C688 H680 0.950 . S
C688 C689 1.386 . S
C688 C690 1.391 . S
C689 C688 1.386 . S
C689 C693 1.393 . S
C690 H682 0.950 1_565 S
C690 C688 1.391 . S
C690 C691 1.400 1_565 S
C691 C690 1.400 1_545 S
C691 C692 1.398 1_545 S
C691 C697 1.491 . S
C692 H683 0.950 1_565 S
C692 C691 1.398 1_565 S
C692 C693 1.391 . S
C693 H681 0.950 . S
C693 C689 1.393 . S
C693 C692 1.391 . S
C694 H684 0.950 . S
C694 C695 1.386 . S
C694 C696 1.391 . S
C695 C694 1.386 . S
C695 C699 1.393 . S
C696 H685 0.950 . S
C696 C694 1.391 . S
C696 C697 1.400 . S
C697 C691 1.491 . S
C697 C696 1.400 . S
C697 C698 1.398 . S
C698 H686 0.950 . S
C698 C697 1.398 . S
C698 C699 1.391 . S
C699 H687 0.950 . S
C699 C695 1.393 . S
C699 C698 1.391 . S
H700 C708 0.950 1_655 S
H701 C713 0.950 . S
H702 C710 0.950 . S
H703 C712 0.950 . S
H704 C714 0.950 . S
H705 C716 0.950 . S
H706 C718 0.950 . S
H707 C719 0.950 . S
C708 H700 0.950 1_455 S
C708 C709 1.382 . S
C708 C710 1.391 . S
C709 C708 1.382 . S
C709 C713 1.415 . S
C710 H702 0.950 . S
C710 C708 1.391 . S
C710 C711 1.400 . S
C711 C710 1.400 . S
C711 C712 1.398 . S
C711 C717 1.491 . S
C712 H703 0.950 . S
C712 C711 1.398 . S
C712 C713 1.391 . S
C713 H701 0.950 . S
C713 C709 1.415 . S
C713 C712 1.391 . S
C714 H704 0.950 . S
C714 C715 1.386 . S
C714 C716 1.391 . S
C715 C714 1.386 . S
C715 C719 1.393 . S
C716 H705 0.950 . S
C716 C714 1.391 . S
C716 C717 1.400 . S
C717 C711 1.491 . S
C717 C716 1.400 . S
C717 C718 1.398 . S
C718 H706 0.950 . S
C718 C717 1.398 . S
C718 C719 1.391 . S
C719 H707 0.950 . S
C719 C715 1.393 . S
C719 C718 1.391 . S
C189 C18 1.997 . S
C195 C19 1.997 . S
C209 C39 2.007 . S
C215 C38 2.007 . S
C229 C58 2.015 . S
C235 C59 2.015 . S
C249 C79 2.011 . S
C255 C78 2.011 . S
C269 C98 2.022 . S
C275 C99 2.022 . S
C289 C119 2.019 . S
C295 C118 2.019 1_556 S
C309 C132 0.534 . S
C315 C129 0.534 . S
C329 C149 0.615 . S
C335 C152 0.615 . S
C349 C172 0.680 . S
C355 C169 0.680 . S
C369 C104 1.546 . S
C375 C12 1.587 . S
C389 C24 1.499 . S
C395 C64 1.489 . S
C409 C52 1.628 . S
C415 C92 1.645 . S
C429 C44 1.245 . S
C435 C122 1.254 . S
C449 C159 1.371 . S
C455 C4 1.272 . S
C469 C162 1.373 . S
C475 C32 1.388 . S
C489 C178 1.484 . S
C495 C9 1.391 . S
C509 C22 1.245 1_556 S
C515 C138 1.342 . S
C529 C144 1.336 . S
C535 C49 1.384 . S
C549 C42 1.529 . S
C555 C69 1.601 . S
C569 C82 1.498 . S
C575 C2 1.489 . S
C589 C29 1.650 . S
C595 C109 1.623 . S
C609 C179 1.475 . S
C615 C72 1.420 . S
C629 C139 1.355 . S
C635 C84 1.215 . S
C649 C142 1.354 . S
C655 C112 1.391 . S
C669 C124 1.283 . S
C675 C102 1.217 . S
C689 C62 1.267 . S
C695 C158 1.373 . S
C709 C164 1.357 1_455 S
C715 C89 1.388 . S
