# Generated by pormake.
# Topology sod, (4)-cn, num edge types: 1
# Building blocks:
#     Node 0, Type 0, BuildingBlock: CEKHIL_clean_sbu_0, # of connection points: 4
#     Node 1, Type 0, BuildingBlock: CEKHIL_clean_sbu_0, # of connection points: 4
#     Node 2, Type 0, BuildingBlock: CEKHIL_clean_sbu_0, # of connection points: 4
#     Node 3, Type 0, BuildingBlock: CEKHIL_clean_sbu_0, # of connection points: 4
#     Node 4, Type 0, BuildingBlock: CEKHIL_clean_sbu_0, # of connection points: 4
#     Node 5, Type 0, BuildingBlock: CEKHIL_clean_sbu_0, # of connection points: 4
#     Node 6, Type 0, BuildingBlock: CEKHIL_clean_sbu_0, # of connection points: 4
#     Node 7, Type 0, BuildingBlock: CEKHIL_clean_sbu_0, # of connection points: 4
#     Node 8, Type 0, BuildingBlock: CEKHIL_clean_sbu_0, # of connection points: 4
#     Node 9, Type 0, BuildingBlock: CEKHIL_clean_sbu_0, # of connection points: 4
#     Node 10, Type 0, BuildingBlock: CEKHIL_clean_sbu_0, # of connection points: 4
#     Node 11, Type 0, BuildingBlock: CEKHIL_clean_sbu_0, # of connection points: 4
#     Edge 12, Type (0, 0), BuildingBlock: EYOCIG_clean_linker_4, # of connection points: 2
#     Edge 13, Type (0, 0), BuildingBlock: EYOCIG_clean_linker_4, # of connection points: 2
#     Edge 14, Type (0, 0), BuildingBlock: EYOCIG_clean_linker_4, # of connection points: 2
#     Edge 15, Type (0, 0), BuildingBlock: EYOCIG_clean_linker_4, # of connection points: 2
#     Edge 16, Type (0, 0), BuildingBlock: EYOCIG_clean_linker_4, # of connection points: 2
#     Edge 17, Type (0, 0), BuildingBlock: EYOCIG_clean_linker_4, # of connection points: 2
#     Edge 18, Type (0, 0), BuildingBlock: EYOCIG_clean_linker_4, # of connection points: 2
#     Edge 19, Type (0, 0), BuildingBlock: EYOCIG_clean_linker_4, # of connection points: 2
#     Edge 20, Type (0, 0), BuildingBlock: EYOCIG_clean_linker_4, # of connection points: 2
#     Edge 21, Type (0, 0), BuildingBlock: EYOCIG_clean_linker_4, # of connection points: 2
#     Edge 22, Type (0, 0), BuildingBlock: EYOCIG_clean_linker_4, # of connection points: 2
#     Edge 23, Type (0, 0), BuildingBlock: EYOCIG_clean_linker_4, # of connection points: 2
#     Edge 24, Type (0, 0), BuildingBlock: EYOCIG_clean_linker_4, # of connection points: 2
#     Edge 25, Type (0, 0), BuildingBlock: EYOCIG_clean_linker_4, # of connection points: 2
#     Edge 26, Type (0, 0), BuildingBlock: EYOCIG_clean_linker_4, # of connection points: 2
#     Edge 27, Type (0, 0), BuildingBlock: EYOCIG_clean_linker_4, # of connection points: 2
#     Edge 28, Type (0, 0), BuildingBlock: EYOCIG_clean_linker_4, # of connection points: 2
#     Edge 29, Type (0, 0), BuildingBlock: EYOCIG_clean_linker_4, # of connection points: 2
#     Edge 30, Type (0, 0), BuildingBlock: EYOCIG_clean_linker_4, # of connection points: 2
#     Edge 31, Type (0, 0), BuildingBlock: EYOCIG_clean_linker_4, # of connection points: 2
#     Edge 32, Type (0, 0), BuildingBlock: EYOCIG_clean_linker_4, # of connection points: 2
#     Edge 33, Type (0, 0), BuildingBlock: EYOCIG_clean_linker_4, # of connection points: 2
#     Edge 34, Type (0, 0), BuildingBlock: EYOCIG_clean_linker_4, # of connection points: 2
#     Edge 35, Type (0, 0), BuildingBlock: EYOCIG_clean_linker_4, # of connection points: 2
# Relax obj value: 0.139
# Max RMSD: 0.179
# Mean RMSD: 0.169
data_MOF--net-sod--node1-CEKHIL_clean_sbu_0--edge1-EYOCIG_clean_linker_4
_symmetry_space_group_name_H-M    P1
_symmetry_Int_Tables_number       1
_symmetry_cell_setting            triclinic
loop_
_symmetry_equiv_pos_as_xyz
'x, y, z'
_cell_length_a     32.914158
_cell_length_b     33.093707
_cell_length_c     33.030938
_cell_angle_alpha  90.933401
_cell_angle_beta   89.928735
_cell_angle_gamma 90.397649
loop_
_atom_site_label
_atom_site_type_symbol
_atom_site_fract_x
_atom_site_fract_y
_atom_site_fract_z
_atom_type_partial_charge
Co0 Co 1.00105 0.27276 0.50683 0.0
O1 O 0.96628 0.31437 0.48496 0.0
O2 O 0.02914 0.30068 0.46478 0.0
C3 C 0.95448 0.22221 0.50898 0.0
O4 O 0.04666 0.23371 0.5173 0.0
Co5 Co 0.99024 0.23005 0.58892 0.0
O6 O 0.03991 0.19948 0.57497 0.0
C7 C 0.01117 0.31634 0.58627 0.0
C8 C 0.99699 0.32254 0.46145 0.0
C9 C 0.05887 0.20763 0.54259 0.0
O10 O 0.02163 0.31287 0.54884 0.0
O11 O 0.99468 0.28797 0.60634 0.0
O12 O 0.9726 0.23066 0.47506 0.0
O13 O 0.96272 0.24574 0.53935 0.0
Co14 Co 0.76524 1.00385 0.51183 0.0
O15 O 0.80803 0.98092 0.47743 0.0
O16 O 0.79374 0.96167 0.53962 0.0
C17 C 0.71499 1.00528 0.46387 0.0
O18 O 0.72457 0.01487 0.55759 0.0
Co19 Co 0.72205 0.08513 0.50162 0.0
O20 O 0.68989 0.07235 0.55056 0.0
C21 C 0.80849 0.08409 0.52323 0.0
C22 C 0.8162 0.95757 0.50771 0.0
C23 C 0.69762 0.0403 0.56959 0.0
O24 O 0.80547 0.04647 0.53264 0.0
O25 O 0.7797 0.10378 0.50707 0.0
O26 O 0.72336 0.97196 0.48246 0.0
O27 O 0.73814 0.03569 0.47289 0.0
Co28 Co 0.01036 0.76955 0.5327 0.0
O29 O 0.97683 0.72632 0.55454 0.0
O30 O 0.03909 0.74256 0.57488 0.0
C31 C 0.96209 0.8181 0.53043 0.0
O32 O 0.05471 0.81054 0.52247 0.0
Co33 Co 0.99901 0.81208 0.4506 0.0
O34 O 0.04829 0.84382 0.46426 0.0
C35 C 0.02142 0.72667 0.45351 0.0
C36 C 0.00759 0.71933 0.57819 0.0
C37 C 0.06673 0.83674 0.49707 0.0
O38 O 0.03228 0.73062 0.49072 0.0
O39 O 1.00414 0.75433 0.43348 0.0
O40 O 0.9804 0.8104 0.56436 0.0
O41 O 0.9714 0.79511 0.50001 0.0
Co42 Co 0.26181 0.0385 0.51242 0.0
O43 O 0.21938 0.0595 0.47851 0.0
O44 O 0.23428 0.08074 0.5411 0.0
C45 C 0.30979 0.03685 0.46413 0.0
O46 O 0.30214 0.02782 0.55686 0.0
Co47 Co 0.30625 0.95696 0.49835 0.0
O48 O 0.33572 0.96941 0.54914 0.0
C49 C 0.22066 0.95928 0.52344 0.0
C50 C 0.21216 0.08383 0.50896 0.0
C51 C 0.3276 1.00162 0.56881 0.0
O52 O 0.22323 0.99676 0.53383 0.0
O53 O 0.24851 0.93982 0.50485 0.0
O54 O 0.30228 0.0705 0.48351 0.0
O55 O 0.28753 0.00613 0.47303 0.0
Co56 Co 0.52122 0.03451 0.27163 0.0
O57 O 0.55574 0.05653 0.22916 0.0
O58 O 0.49372 0.07739 0.24454 0.0
C59 C 0.56949 0.03107 0.32118 0.0
O60 O 0.47543 0.02432 0.31165 0.0
Co61 Co 0.52976 0.95232 0.31274 0.0
O62 O 0.47967 0.96524 0.34342 0.0
C63 C 0.50861 0.95606 0.22675 0.0
C64 C 0.52546 0.08049 0.22174 0.0
C65 C 0.46185 0.99833 0.33668 0.0
O66 O 0.49905 0.9935 0.23115 0.0
O67 O 0.52476 0.93533 0.25462 0.0
O68 O 0.55149 0.06505 0.31365 0.0
O69 O 0.55969 1.0011 0.29763 0.0
Co70 Co 0.02007 0.50818 0.27164 0.0
O71 O 0.05372 0.48591 0.314 0.0
O72 O 0.99047 0.46702 0.29928 0.0
C73 C 0.06783 0.50873 0.2225 0.0
O74 O 0.97512 0.51959 0.23204 0.0
Co75 Co 0.03361 0.58928 0.22789 0.0
O76 O 0.98299 0.57709 0.19788 0.0
C77 C 0.01209 0.58756 0.31419 0.0
C78 C 0.0223 0.46309 0.32169 0.0
C79 C 0.96314 0.54533 0.20634 0.0
O80 O 1.00019 0.55063 0.31092 0.0
O81 O 0.02949 0.60691 0.28583 0.0
O82 O 0.04817 0.47553 0.23045 0.0
O83 O 0.05975 0.53965 0.24523 0.0
Co84 Co 0.52001 0.00791 0.77162 0.0
O85 O 0.55366 0.98566 0.81391 0.0
O86 O 0.4905 0.96652 0.79897 0.0
C87 C 0.56778 0.00884 0.72253 0.0
O88 O 0.47524 0.01958 0.73187 0.0
Co89 Co 0.53384 0.08962 0.72916 0.0
O90 O 0.48344 0.07764 0.69866 0.0
C91 C 0.51128 0.08686 0.81509 0.0
C92 C 0.5223 0.96275 0.82149 0.0
C93 C 0.46353 0.04573 0.70645 0.0
O94 O 0.49969 0.0499 0.81118 0.0
O95 O 0.52896 0.10667 0.78723 0.0
O96 O 0.54822 0.97555 0.73031 0.0
O97 O 0.55976 0.03958 0.74557 0.0
Co98 Co 0.02204 0.53431 0.77135 0.0
O99 O 0.057 0.5552 0.72865 0.0
O100 O 0.99515 0.57701 0.74336 0.0
C101 C 0.07006 0.53124 0.82108 0.0
O102 O 0.97608 0.52528 0.81152 0.0
Co103 Co 0.02979 0.45268 0.81393 0.0
O104 O 0.98017 0.46696 0.84471 0.0
C105 C 0.0093 0.45532 0.72772 0.0
C106 C 0.02708 0.57941 0.72071 0.0
C107 C 0.96256 0.5 0.83732 0.0
O108 O 0.99967 0.49279 0.73154 0.0
O109 O 0.02524 0.43496 0.75599 0.0
O110 O 0.05247 0.56528 0.81292 0.0
O111 O 0.06003 0.50098 0.79801 0.0
Co112 Co 0.26552 0.50415 0.01171 0.0
O113 O 0.30839 0.48183 0.97706 0.0
O114 O 0.29449 0.46206 0.03917 0.0
C115 C 0.21517 0.50542 0.96391 0.0
O116 O 0.22485 0.51475 0.05762 0.0
Co117 Co 0.22184 0.58528 1.00175 0.0
O118 O 0.18994 0.57215 0.05075 0.0
C119 C 0.3083 0.58458 0.02334 0.0
C120 C 0.31691 0.45841 0.00717 0.0
C121 C 0.19784 0.54009 0.06971 0.0
O122 O 0.30546 0.54693 0.03267 0.0
O123 O 0.27943 0.60416 0.0072 0.0
O124 O 0.22382 0.47207 0.98232 0.0
O125 O 0.23814 0.53595 0.97299 0.0
Co126 Co 0.50998 0.26964 0.03283 0.0
O127 O 0.47531 0.22745 0.05498 0.0
O128 O 0.53784 0.24247 0.07543 0.0
C129 C 0.46288 0.31922 0.02981 0.0
O130 O 0.55535 0.30947 0.02243 0.0
Co131 Co 0.50012 0.31159 0.95025 0.0
O132 O 0.54962 0.34285 0.96421 0.0
C133 C 0.52011 0.2256 0.95423 0.0
C134 C 0.50578 0.22002 0.07886 0.0
C135 C 0.56788 0.33546 0.99704 0.0
O136 O 0.5311 0.22975 0.99138 0.0
O137 O 0.50367 0.25349 0.93384 0.0
O138 O 0.48086 0.31149 0.0639 0.0
O139 O 0.47181 0.29573 0.99966 0.0
Co140 Co 0.76178 0.53878 0.01237 0.0
O141 O 0.72015 0.55995 0.97758 0.0
O142 O 0.7333 0.58063 0.04073 0.0
C143 C 0.81089 0.53812 0.96525 0.0
O144 O 0.80112 0.52788 0.05763 0.0
Co145 Co 0.80729 0.45777 0.99822 0.0
O146 O 0.83593 0.47024 0.04944 0.0
C147 C 0.72141 0.45876 0.02265 0.0
C148 C 0.71221 0.58415 0.00796 0.0
C149 C 0.82687 0.50192 0.06953 0.0
O150 O 0.72301 0.49646 0.03247 0.0
O151 O 0.7499 0.43959 0.00476 0.0
O152 O 0.80268 0.57145 0.98488 0.0
O153 O 0.78866 0.5071 0.97322 0.0
Co154 Co 0.50104 0.77309 0.0066 0.0
O155 O 0.46589 0.81451 0.98501 0.0
O156 O 0.52869 0.80103 0.96438 0.0
C157 C 0.45472 0.72237 0.00922 0.0
O158 O 0.54704 0.73439 0.01651 0.0
Co159 Co 0.49176 0.73034 0.08862 0.0
O160 O 0.54153 0.70007 0.07419 0.0
C161 C 0.51074 0.81702 0.08567 0.0
C162 C 0.49646 0.82281 0.96134 0.0
C163 C 0.55992 0.70842 0.04155 0.0
O164 O 0.52163 0.8134 0.04839 0.0
O165 O 0.49466 0.78846 0.10581 0.0
O166 O 0.47252 0.73083 0.97514 0.0
O167 O 0.4632 0.74588 0.03954 0.0
C168 C 1.00368 0.38139 0.4092 0.0
C169 C 0.99727 0.35555 0.43378 0.0
C170 C 0.0142 0.41061 0.38018 0.0
C171 C 0.02111 0.43523 0.3545 0.0
C172 C 0.65635 0.01387 0.40855 0.0
C173 C 0.68265 0.00856 0.43389 0.0
C174 C 0.62581 0.02113 0.37856 0.0
C175 C 0.60005 0.02682 0.35277 0.0
C176 C 0.01404 0.6296 0.3816 0.0
C177 C 0.01099 0.60726 0.35279 0.0
C178 C 0.02099 0.65932 0.41159 0.0
C179 C 0.02351 0.68799 0.43414 0.0
C180 C 0.36618 0.0266 0.40835 0.0
C181 C 0.34096 0.03318 0.43402 0.0
C182 C 0.39745 0.01692 0.38069 0.0
C183 C 0.42682 0.00874 0.36044 0.0
C184 C 0.02248 0.63155 0.66107 0.0
C185 C 0.02752 0.607 0.68734 0.0
C186 C 0.01395 0.66078 0.63131 0.0
C187 C 0.00831 0.68656 0.60641 0.0
C188 C 0.39822 0.02878 0.66398 0.0
C189 C 0.42806 0.03646 0.68343 0.0
C190 C 0.3692 0.01865 0.63455 0.0
C191 C 0.35013 0.01095 0.60451 0.0
C192 C 0.01257 0.38348 0.62926 0.0
C193 C 0.01394 0.35485 0.60637 0.0
C194 C 0.00786 0.41331 0.6598 0.0
C195 C 0.00663 0.43568 0.68888 0.0
C196 C 0.62281 0.01686 0.66455 0.0
C197 C 0.59751 0.01181 0.69061 0.0
C198 C 0.65121 0.02416 0.6331 0.0
C199 C 0.6729 0.03065 0.60428 0.0
C200 C 0.40827 0.3769 0.01875 0.0
C201 C 0.43334 0.35109 0.0254 0.0
C202 C 0.37759 0.40598 0.01089 0.0
C203 C 0.35068 0.43048 0.00667 0.0
C204 C 0.37413 0.63024 0.02658 0.0
C205 C 0.34645 0.60597 0.02732 0.0
C206 C 0.40355 0.66116 0.02027 0.0
C207 C 0.42704 0.68867 0.01385 0.0
C208 C 0.62842 0.38272 0.01876 0.0
C209 C 0.60078 0.3609 0.00919 0.0
C210 C 0.65816 0.41197 0.0273 0.0
C211 C 0.68463 0.43691 0.0278 0.0
C212 C 0.65544 0.63913 0.01075 0.0
C213 C 0.68063 0.61335 0.00655 0.0
C214 C 0.62411 0.66614 0.02059 0.0
C215 C 0.59479 0.6855 0.03009 0.0
C216 C 0.50328 0.88177 0.9094 0.0
C217 C 0.49663 0.85593 0.93389 0.0
C218 C 0.51407 0.91079 0.88033 0.0
C219 C 0.52105 0.93519 0.8545 0.0
C220 C 0.15649 0.51401 0.9087 0.0
C221 C 0.1828 0.50863 0.934 0.0
C222 C 0.12605 0.5214 0.8787 0.0
C223 C 0.10044 0.52715 0.85281 0.0
C224 C 0.51155 0.12809 0.88301 0.0
C225 C 0.50923 0.10606 0.8539 0.0
C226 C 0.51825 0.15776 0.91311 0.0
C227 C 0.52128 0.18666 0.93531 0.0
C228 C 0.89901 0.51963 0.88207 0.0
C229 C 0.92797 0.51124 0.86132 0.0
C230 C 0.86794 0.52908 0.91001 0.0
C231 C 0.84243 0.53522 0.93549 0.0
C232 C 0.51974 0.13294 0.16248 0.0
C233 C 0.52521 0.10832 0.18858 0.0
C234 C 0.51102 0.16201 0.13262 0.0
C235 C 0.50567 0.18753 0.1074 0.0
C236 C 0.89721 0.52814 0.16496 0.0
C237 C 0.92732 0.53581 0.18399 0.0
C238 C 0.8679 0.51837 0.13573 0.0
C239 C 0.84894 0.51117 0.10552 0.0
C240 C 0.51084 0.8846 0.12808 0.0
C241 C 0.51272 0.85573 0.10552 0.0
C242 C 0.50619 0.91457 0.15853 0.0
C243 C 0.50533 0.93681 0.18774 0.0
C244 C 0.15153 0.52391 0.13328 0.0
C245 C 0.17321 0.53035 0.10444 0.0
C246 C 0.12305 0.5166 0.16467 0.0
C247 C 0.09765 0.51152 0.19064 0.0
C248 C 0.87623 0.90442 0.5119 0.0
C249 C 0.84961 0.92921 0.50749 0.0
C250 C 0.90684 0.87528 0.51983 0.0
C251 C 0.9322 0.84971 0.52633 0.0
C252 C 0.90372 0.16064 0.51988 0.0
C253 C 0.92705 0.1883 0.51348 0.0
C254 C 0.87442 0.12963 0.52628 0.0
C255 C 0.84674 0.10535 0.52715 0.0
C256 C 0.12666 0.88473 0.51888 0.0
C257 C 0.09928 0.86267 0.50912 0.0
C258 C 0.15651 0.91375 0.52778 0.0
C259 C 0.18343 0.93821 0.5286 0.0
C260 C 0.1229 0.16462 0.52276 0.0
C261 C 0.09365 0.1843 0.53177 0.0
C262 C 0.15438 0.13775 0.51307 0.0
C263 C 0.18001 0.11245 0.50848 0.0
loop_
_geom_bond_atom_site_label_1
_geom_bond_atom_site_label_2
_geom_bond_distance
_geom_bond_site_symmetry_2
_ccdc_geom_bond_type
Co0 O1 2.216 1_455 S
Co0 O2 2.091 . S
Co0 O4 2.004 . S
Co0 O10 2.021 . S
Co0 O12 2.137 1_455 S
Co0 O13 2.244 1_455 S
O1 Co0 2.216 1_655 S
O1 C8 1.247 . S
O2 Co0 2.091 . S
O2 C8 1.261 1_455 S
C3 O12 1.247 . S
C3 O13 1.272 . S
O4 Co0 2.004 . S
O4 C9 1.259 . S
Co5 O6 2.061 1_655 S
Co5 O11 2.052 . S
Co5 O13 2.135 . S
O6 Co5 2.061 1_455 S
O6 C9 1.235 . S
C7 O10 1.238 . S
C7 O11 1.241 1_455 S
C8 O1 1.247 . S
C8 O2 1.261 1_655 S
C9 O4 1.259 . S
C9 O6 1.235 . S
O10 Co0 2.021 . S
O10 C7 1.238 . S
O11 Co5 2.052 . S
O11 C7 1.241 1_655 S
O12 Co0 2.137 1_655 S
O12 C3 1.247 . S
O13 Co0 2.244 1_655 S
O13 C3 1.272 . S
O13 Co5 2.135 . S
Co14 O15 2.216 . S
Co14 O16 2.091 . S
Co14 O18 2.004 1_565 S
Co14 O24 2.021 1_565 S
Co14 O26 2.137 . S
Co14 O27 2.244 1_565 S
O15 Co14 2.216 . S
O15 C22 1.247 . S
O16 Co14 2.091 . S
O16 C22 1.261 . S
C17 O26 1.247 . S
C17 O27 1.272 1_565 S
O18 Co14 2.004 1_545 S
O18 C23 1.259 . S
Co19 O20 2.061 . S
Co19 O25 2.052 . S
Co19 O27 2.135 . S
O20 Co19 2.061 . S
O20 C23 1.235 . S
C21 O24 1.238 . S
C21 O25 1.241 . S
C22 O15 1.247 . S
C22 O16 1.261 . S
C23 O18 1.259 . S
C23 O20 1.235 . S
O24 Co14 2.021 1_545 S
O24 C21 1.238 . S
O25 Co19 2.052 . S
O25 C21 1.241 . S
O26 Co14 2.137 . S
O26 C17 1.247 . S
O27 Co14 2.244 1_545 S
O27 C17 1.272 1_545 S
O27 Co19 2.135 . S
Co28 O29 2.216 1_455 S
Co28 O30 2.091 . S
Co28 O32 2.004 . S
Co28 O38 2.021 . S
Co28 O40 2.137 1_455 S
Co28 O41 2.244 1_455 S
O29 Co28 2.216 1_655 S
O29 C36 1.261 . S
O30 Co28 2.091 . S
O30 C36 1.245 1_455 S
C31 O40 1.247 . S
C31 O41 1.272 . S
O32 Co28 2.004 . S
O32 C37 1.259 . S
Co33 O34 2.061 1_655 S
Co33 O39 2.052 1_655 S
Co33 O41 2.135 . S
O34 Co33 2.061 1_455 S
O34 C37 1.235 . S
C35 O38 1.238 . S
C35 O39 1.241 . S
C36 O29 1.261 . S
C36 O30 1.245 1_655 S
C37 O32 1.259 . S
C37 O34 1.235 . S
O38 Co28 2.021 . S
O38 C35 1.238 . S
O39 Co33 2.052 1_455 S
O39 C35 1.241 . S
O40 Co28 2.137 1_655 S
O40 C31 1.247 . S
O41 Co28 2.244 1_655 S
O41 C31 1.272 . S
O41 Co33 2.135 . S
Co42 O43 2.216 . S
Co42 O44 2.091 . S
Co42 O46 2.004 . S
Co42 O52 2.021 1_545 S
Co42 O54 2.137 . S
Co42 O55 2.244 1_545 S
O43 Co42 2.216 . S
O43 C50 1.247 . S
O44 Co42 2.091 . S
O44 C50 1.261 . S
C45 O54 1.247 . S
C45 O55 1.272 1_545 S
O46 Co42 2.004 . S
O46 C51 1.259 . S
Co47 O48 2.061 . S
Co47 O53 2.052 . S
Co47 O55 2.135 . S
O48 Co47 2.061 . S
O48 C51 1.235 1_565 S
C49 O52 1.238 . S
C49 O53 1.241 . S
C50 O43 1.247 . S
C50 O44 1.261 . S
C51 O46 1.259 . S
C51 O48 1.235 1_545 S
O52 Co42 2.021 1_565 S
O52 C49 1.238 . S
O53 Co47 2.052 . S
O53 C49 1.241 . S
O54 Co42 2.137 . S
O54 C45 1.247 . S
O55 Co42 2.244 1_565 S
O55 C45 1.272 1_565 S
O55 Co47 2.135 . S
Co56 O57 2.216 . S
Co56 O58 2.091 . S
Co56 O60 2.004 . S
Co56 O66 2.021 1_545 S
Co56 O68 2.137 . S
Co56 O69 2.244 1_545 S
O57 Co56 2.216 . S
O57 C64 1.247 . S
O58 Co56 2.091 . S
O58 C64 1.261 . S
C59 O68 1.247 . S
C59 O69 1.272 1_545 S
O60 Co56 2.004 . S
O60 C65 1.259 1_545 S
Co61 O62 2.061 . S
Co61 O67 2.052 . S
Co61 O69 2.135 . S
O62 Co61 2.061 . S
O62 C65 1.235 . S
C63 O66 1.238 . S
C63 O67 1.241 . S
C64 O57 1.247 . S
C64 O58 1.261 . S
C65 O60 1.259 1_565 S
C65 O62 1.235 . S
O66 Co56 2.021 1_565 S
O66 C63 1.238 . S
O67 Co61 2.052 . S
O67 C63 1.241 . S
O68 Co56 2.137 . S
O68 C59 1.247 . S
O69 Co56 2.244 1_565 S
O69 C59 1.272 1_565 S
O69 Co61 2.135 . S
Co70 O71 2.216 . S
Co70 O72 2.091 1_455 S
Co70 O74 2.004 1_455 S
Co70 O80 2.021 1_455 S
Co70 O82 2.137 . S
Co70 O83 2.244 . S
O71 Co70 2.216 . S
O71 C78 1.247 . S
O72 Co70 2.091 1_655 S
O72 C78 1.261 1_655 S
C73 O82 1.247 . S
C73 O83 1.272 . S
O74 Co70 2.004 1_655 S
O74 C79 1.259 . S
Co75 O76 2.061 1_455 S
Co75 O81 2.052 . S
Co75 O83 2.135 . S
O76 Co75 2.061 1_655 S
O76 C79 1.235 . S
C77 O80 1.232 1_455 S
C77 O81 1.252 . S
C78 O71 1.247 . S
C78 O72 1.261 1_455 S
C79 O74 1.259 . S
C79 O76 1.235 . S
O80 Co70 2.021 1_655 S
O80 C77 1.232 1_655 S
O81 Co75 2.052 . S
O81 C77 1.252 . S
O82 Co70 2.137 . S
O82 C73 1.247 . S
O83 Co70 2.244 . S
O83 C73 1.272 . S
O83 Co75 2.135 . S
Co84 O85 2.216 1_545 S
Co84 O86 2.091 1_545 S
Co84 O88 2.004 . S
Co84 O94 2.021 . S
Co84 O96 2.137 1_545 S
Co84 O97 2.244 . S
O85 Co84 2.216 1_565 S
O85 C92 1.247 . S
O86 Co84 2.091 1_565 S
O86 C92 1.261 . S
C87 O96 1.247 1_545 S
C87 O97 1.272 . S
O88 Co84 2.004 . S
O88 C93 1.259 . S
Co89 O90 2.061 . S
Co89 O95 2.052 . S
Co89 O97 2.135 . S
O90 Co89 2.061 . S
O90 C93 1.235 . S
C91 O94 1.238 . S
C91 O95 1.241 . S
C92 O85 1.247 . S
C92 O86 1.261 . S
C93 O88 1.259 . S
C93 O90 1.235 . S
O94 Co84 2.021 . S
O94 C91 1.238 . S
O95 Co89 2.052 . S
O95 C91 1.241 . S
O96 Co84 2.137 1_565 S
O96 C87 1.247 1_565 S
O97 Co84 2.244 . S
O97 C87 1.272 . S
O97 Co89 2.135 . S
Co98 O99 2.216 . S
Co98 O100 2.091 1_455 S
Co98 O102 2.004 1_455 S
Co98 O108 2.021 1_455 S
Co98 O110 2.137 . S
Co98 O111 2.244 . S
O99 Co98 2.216 . S
O99 C106 1.247 . S
O100 Co98 2.091 1_655 S
O100 C106 1.261 1_655 S
C101 O110 1.247 . S
C101 O111 1.272 . S
O102 Co98 2.004 1_655 S
O102 C107 1.259 . S
Co103 O104 2.061 1_455 S
Co103 O109 2.052 . S
Co103 O111 2.135 . S
O104 Co103 2.061 1_655 S
O104 C107 1.235 . S
C105 O108 1.238 . S
C105 O109 1.241 1_655 S
C106 O99 1.247 . S
C106 O100 1.261 1_455 S
C107 O102 1.259 . S
C107 O104 1.235 . S
O108 Co98 2.021 1_655 S
O108 C105 1.238 . S
O109 Co103 2.052 . S
O109 C105 1.241 1_455 S
O110 Co98 2.137 . S
O110 C101 1.247 . S
O111 Co98 2.244 . S
O111 C101 1.272 . S
O111 Co103 2.135 . S
Co112 O113 2.216 1_554 S
Co112 O114 2.091 . S
Co112 O116 2.004 . S
Co112 O122 2.021 . S
Co112 O124 2.137 1_554 S
Co112 O125 2.244 1_554 S
O113 Co112 2.216 1_556 S
O113 C120 1.247 . S
O114 Co112 2.091 . S
O114 C120 1.261 1_554 S
C115 O124 1.247 . S
C115 O125 1.272 . S
O116 Co112 2.004 . S
O116 C121 1.259 . S
Co117 O118 2.045 1_556 S
Co117 O123 2.050 1_556 S
Co117 O125 2.142 . S
O118 Co117 2.045 1_554 S
O118 C121 1.235 . S
C119 O122 1.238 . S
C119 O123 1.241 . S
C120 O113 1.247 . S
C120 O114 1.261 1_556 S
C121 O116 1.259 . S
C121 O118 1.235 . S
O122 Co112 2.021 . S
O122 C119 1.238 . S
O123 Co117 2.050 1_554 S
O123 C119 1.241 . S
O124 Co112 2.137 1_556 S
O124 C115 1.247 . S
O125 Co112 2.244 1_556 S
O125 C115 1.272 . S
O125 Co117 2.142 . S
Co126 O127 2.216 . S
Co126 O128 2.091 . S
Co126 O130 2.004 . S
Co126 O136 2.021 1_554 S
Co126 O138 2.137 . S
Co126 O139 2.244 1_554 S
O127 Co126 2.216 . S
O127 C134 1.247 . S
O128 Co126 2.091 . S
O128 C134 1.261 . S
C129 O138 1.247 . S
C129 O139 1.272 1_554 S
O130 Co126 2.004 . S
O130 C135 1.259 1_554 S
Co131 O132 2.061 . S
Co131 O137 2.052 . S
Co131 O139 2.135 . S
O132 Co131 2.061 . S
O132 C135 1.235 . S
C133 O136 1.238 . S
C133 O137 1.241 . S
C134 O127 1.247 . S
C134 O128 1.261 . S
C135 O130 1.259 1_556 S
C135 O132 1.235 . S
O136 Co126 2.021 1_556 S
O136 C133 1.238 . S
O137 Co131 2.052 . S
O137 C133 1.241 . S
O138 Co126 2.137 . S
O138 C129 1.247 . S
O139 Co126 2.244 1_556 S
O139 C129 1.272 1_556 S
O139 Co131 2.135 . S
Co140 O141 2.216 1_554 S
Co140 O142 2.091 . S
Co140 O144 2.004 . S
Co140 O150 2.021 . S
Co140 O152 2.137 1_554 S
Co140 O153 2.244 1_554 S
O141 Co140 2.216 1_556 S
O141 C148 1.247 1_556 S
O142 Co140 2.091 . S
O142 C148 1.261 . S
C143 O152 1.247 . S
C143 O153 1.272 . S
O144 Co140 2.004 . S
O144 C149 1.259 . S
Co145 O146 2.061 1_556 S
Co145 O151 2.052 1_556 S
Co145 O153 2.135 . S
O146 Co145 2.061 1_554 S
O146 C149 1.235 . S
C147 O150 1.238 . S
C147 O151 1.241 . S
C148 O141 1.247 1_554 S
C148 O142 1.261 . S
C149 O144 1.259 . S
C149 O146 1.235 . S
O150 Co140 2.021 . S
O150 C147 1.238 . S
O151 Co145 2.052 1_554 S
O151 C147 1.241 . S
O152 Co140 2.137 1_556 S
O152 C143 1.247 . S
O153 Co140 2.244 1_556 S
O153 C143 1.272 . S
O153 Co145 2.135 . S
Co154 O155 2.216 1_554 S
Co154 O156 2.091 1_554 S
Co154 O158 2.004 . S
Co154 O164 2.021 . S
Co154 O166 2.137 1_554 S
Co154 O167 2.244 . S
O155 Co154 2.216 1_556 S
O155 C162 1.247 . S
O156 Co154 2.091 1_556 S
O156 C162 1.261 . S
C157 O166 1.247 1_554 S
C157 O167 1.272 . S
O158 Co154 2.004 . S
O158 C163 1.259 . S
Co159 O160 2.061 . S
Co159 O165 2.052 . S
Co159 O167 2.135 . S
O160 Co159 2.061 . S
O160 C163 1.235 . S
C161 O164 1.238 . S
C161 O165 1.241 . S
C162 O155 1.247 . S
C162 O156 1.261 . S
C163 O158 1.259 . S
C163 O160 1.235 . S
O164 Co154 2.021 . S
O164 C161 1.238 . S
O165 Co159 2.052 . S
O165 C161 1.241 . S
O166 Co154 2.137 1_556 S
O166 C157 1.247 1_556 S
O167 Co154 2.244 . S
O167 C157 1.272 . S
O167 Co159 2.135 . S
C168 C169 1.170 . S
C168 C170 1.380 1_655 S
C169 C168 1.170 . S
C170 C168 1.380 1_455 S
C170 C171 1.170 . S
C171 C170 1.170 . S
C172 C173 1.172 . S
C172 C174 1.380 . S
C173 C172 1.172 . S
C174 C172 1.380 . S
C174 C175 1.170 . S
C175 C174 1.170 . S
C176 C177 1.170 . S
C176 C178 1.380 . S
C177 C176 1.170 . S
C178 C176 1.380 . S
C178 C179 1.170 . S
C179 C178 1.170 . S
C180 C181 1.170 . S
C180 C182 1.380 . S
C181 C180 1.170 . S
C182 C180 1.380 . S
C182 C183 1.169 1_545 S
C183 C182 1.169 1_565 S
C184 C185 1.170 . S
C184 C186 1.380 . S
C185 C184 1.170 . S
C186 C184 1.380 . S
C186 C187 1.170 . S
C187 C186 1.170 . S
C188 C189 1.170 . S
C188 C190 1.380 . S
C189 C188 1.170 . S
C190 C188 1.380 . S
C190 C191 1.170 . S
C191 C190 1.170 . S
C192 C193 1.170 . S
C192 C194 1.380 . S
C193 C192 1.170 . S
C194 C192 1.380 . S
C194 C195 1.170 1_455 S
C195 C194 1.170 1_655 S
C196 C197 1.170 . S
C196 C198 1.380 . S
C197 C196 1.170 . S
C198 C196 1.380 . S
C198 C199 1.170 . S
C199 C198 1.170 . S
C200 C201 1.170 . S
C200 C202 1.380 . S
C201 C200 1.170 . S
C202 C200 1.380 . S
C202 C203 1.174 . S
C203 C202 1.174 . S
C204 C205 1.170 . S
C204 C206 1.380 . S
C205 C204 1.170 . S
C206 C204 1.380 . S
C206 C207 1.170 . S
C207 C206 1.170 . S
C208 C209 1.174 . S
C208 C210 1.380 . S
C209 C208 1.174 . S
C210 C208 1.380 . S
C210 C211 1.170 . S
C211 C210 1.170 . S
C212 C213 1.170 . S
C212 C214 1.380 . S
C213 C212 1.170 . S
C214 C212 1.380 . S
C214 C215 1.170 . S
C215 C214 1.170 . S
C216 C217 1.170 . S
C216 C218 1.380 . S
C217 C216 1.170 . S
C218 C216 1.380 . S
C218 C219 1.170 . S
C219 C218 1.170 . S
C220 C221 1.170 . S
C220 C222 1.380 . S
C221 C220 1.170 . S
C222 C220 1.380 . S
C222 C223 1.170 . S
C223 C222 1.170 . S
C224 C225 1.170 . S
C224 C226 1.380 . S
C225 C224 1.170 . S
C226 C224 1.380 . S
C226 C227 1.170 . S
C227 C226 1.170 . S
C228 C229 1.170 . S
C228 C230 1.380 . S
C229 C228 1.170 . S
C230 C228 1.380 . S
C230 C231 1.170 . S
C231 C230 1.170 . S
C232 C233 1.170 . S
C232 C234 1.380 . S
C233 C232 1.170 . S
C234 C232 1.380 . S
C234 C235 1.170 . S
C235 C234 1.170 . S
C236 C237 1.170 . S
C236 C238 1.380 . S
C237 C236 1.170 . S
C238 C236 1.380 . S
C238 C239 1.170 . S
C239 C238 1.170 . S
C240 C241 1.170 . S
C240 C242 1.380 . S
C241 C240 1.170 . S
C242 C240 1.380 . S
C242 C243 1.170 . S
C243 C242 1.170 . S
C244 C245 1.170 . S
C244 C246 1.380 . S
C245 C244 1.170 . S
C246 C244 1.380 . S
C246 C247 1.170 . S
C247 C246 1.170 . S
C248 C249 1.170 . S
C248 C250 1.380 . S
C249 C248 1.170 . S
C250 C248 1.380 . S
C250 C251 1.170 . S
C251 C250 1.170 . S
C252 C253 1.170 . S
C252 C254 1.380 . S
C253 C252 1.170 . S
C254 C252 1.380 . S
C254 C255 1.170 . S
C255 C254 1.170 . S
C256 C257 1.170 . S
C256 C258 1.380 . S
C257 C256 1.170 . S
C258 C256 1.380 . S
C258 C259 1.170 . S
C259 C258 1.170 . S
C260 C261 1.170 . S
C260 C262 1.380 . S
C261 C260 1.170 . S
C262 C260 1.380 . S
C262 C263 1.170 . S
C263 C262 1.170 . S
C169 C8 1.514 . S
C171 C78 1.491 . S
C173 C17 1.580 1_545 S
C175 C59 1.576 . S
C177 C77 1.399 . S
C179 C35 1.413 . S
C181 C45 1.485 . S
C183 C65 1.492 . S
C185 C106 1.549 . S
C187 C36 1.523 1_455 S
C189 C93 1.411 . S
C191 C51 1.416 . S
C193 C7 1.439 . S
C195 C105 1.440 . S
C197 C87 1.509 . S
C199 C23 1.506 . S
C201 C129 1.563 . S
C203 C120 1.541 1_554 S
C205 C119 1.507 . S
C207 C157 1.518 . S
C209 C135 1.434 1_554 S
C211 C147 1.411 . S
C213 C148 1.470 . S
C215 C163 1.477 . S
C217 C162 1.510 . S
C219 C92 1.494 . S
C221 C115 1.580 . S
C223 C101 1.576 . S
C225 C91 1.431 . S
C227 C133 1.401 . S
C229 C107 1.475 . S
C231 C143 1.487 . S
C233 C64 1.527 . S
C235 C134 1.552 . S
C237 C79 1.415 . S
C239 C149 1.422 . S
C241 C161 1.436 . S
C243 C63 1.464 . S
C245 C121 1.508 . S
C247 C73 1.508 . S
C249 C22 1.536 . S
C251 C31 1.575 . S
C253 C3 1.516 . S
C255 C21 1.507 . S
C257 C37 1.422 . S
C259 C49 1.422 . S
C261 C9 1.471 . S
C263 C50 1.443 . S
