# Generated by pormake.
# Topology lcy-e, (6)-cn, num edge types: 1
# Building blocks:
#     Node 0, Type 0, BuildingBlock: INOVEN_clean_sbu_0, # of connection points: 6
#     Node 1, Type 0, BuildingBlock: INOVEN_clean_sbu_0, # of connection points: 6
#     Node 2, Type 0, BuildingBlock: INOVEN_clean_sbu_0, # of connection points: 6
#     Node 3, Type 0, BuildingBlock: INOVEN_clean_sbu_0, # of connection points: 6
#     Node 4, Type 0, BuildingBlock: INOVEN_clean_sbu_0, # of connection points: 6
#     Node 5, Type 0, BuildingBlock: INOVEN_clean_sbu_0, # of connection points: 6
#     Node 6, Type 0, BuildingBlock: INOVEN_clean_sbu_0, # of connection points: 6
#     Node 7, Type 0, BuildingBlock: INOVEN_clean_sbu_0, # of connection points: 6
#     Node 8, Type 0, BuildingBlock: INOVEN_clean_sbu_0, # of connection points: 6
#     Node 9, Type 0, BuildingBlock: INOVEN_clean_sbu_0, # of connection points: 6
#     Node 10, Type 0, BuildingBlock: INOVEN_clean_sbu_0, # of connection points: 6
#     Node 11, Type 0, BuildingBlock: INOVEN_clean_sbu_0, # of connection points: 6
#     Edge 12, Type (0, 0), BuildingBlock: EZIPEK_clean_linker_0, # of connection points: 2
#     Edge 13, Type (0, 0), BuildingBlock: EZIPEK_clean_linker_0, # of connection points: 2
#     Edge 14, Type (0, 0), BuildingBlock: EZIPEK_clean_linker_0, # of connection points: 2
#     Edge 15, Type (0, 0), BuildingBlock: EZIPEK_clean_linker_0, # of connection points: 2
#     Edge 16, Type (0, 0), BuildingBlock: EZIPEK_clean_linker_0, # of connection points: 2
#     Edge 17, Type (0, 0), BuildingBlock: EZIPEK_clean_linker_0, # of connection points: 2
#     Edge 18, Type (0, 0), BuildingBlock: EZIPEK_clean_linker_0, # of connection points: 2
#     Edge 19, Type (0, 0), BuildingBlock: EZIPEK_clean_linker_0, # of connection points: 2
#     Edge 20, Type (0, 0), BuildingBlock: EZIPEK_clean_linker_0, # of connection points: 2
#     Edge 21, Type (0, 0), BuildingBlock: EZIPEK_clean_linker_0, # of connection points: 2
#     Edge 22, Type (0, 0), BuildingBlock: EZIPEK_clean_linker_0, # of connection points: 2
#     Edge 23, Type (0, 0), BuildingBlock: EZIPEK_clean_linker_0, # of connection points: 2
#     Edge 24, Type (0, 0), BuildingBlock: EZIPEK_clean_linker_0, # of connection points: 2
#     Edge 25, Type (0, 0), BuildingBlock: EZIPEK_clean_linker_0, # of connection points: 2
#     Edge 26, Type (0, 0), BuildingBlock: EZIPEK_clean_linker_0, # of connection points: 2
#     Edge 27, Type (0, 0), BuildingBlock: EZIPEK_clean_linker_0, # of connection points: 2
#     Edge 28, Type (0, 0), BuildingBlock: EZIPEK_clean_linker_0, # of connection points: 2
#     Edge 29, Type (0, 0), BuildingBlock: EZIPEK_clean_linker_0, # of connection points: 2
#     Edge 30, Type (0, 0), BuildingBlock: EZIPEK_clean_linker_0, # of connection points: 2
#     Edge 31, Type (0, 0), BuildingBlock: EZIPEK_clean_linker_0, # of connection points: 2
#     Edge 32, Type (0, 0), BuildingBlock: EZIPEK_clean_linker_0, # of connection points: 2
#     Edge 33, Type (0, 0), BuildingBlock: EZIPEK_clean_linker_0, # of connection points: 2
#     Edge 34, Type (0, 0), BuildingBlock: EZIPEK_clean_linker_0, # of connection points: 2
#     Edge 35, Type (0, 0), BuildingBlock: EZIPEK_clean_linker_0, # of connection points: 2
#     Edge 36, Type (0, 0), BuildingBlock: EZIPEK_clean_linker_0, # of connection points: 2
#     Edge 37, Type (0, 0), BuildingBlock: EZIPEK_clean_linker_0, # of connection points: 2
#     Edge 38, Type (0, 0), BuildingBlock: EZIPEK_clean_linker_0, # of connection points: 2
#     Edge 39, Type (0, 0), BuildingBlock: EZIPEK_clean_linker_0, # of connection points: 2
#     Edge 40, Type (0, 0), BuildingBlock: EZIPEK_clean_linker_0, # of connection points: 2
#     Edge 41, Type (0, 0), BuildingBlock: EZIPEK_clean_linker_0, # of connection points: 2
#     Edge 42, Type (0, 0), BuildingBlock: EZIPEK_clean_linker_0, # of connection points: 2
#     Edge 43, Type (0, 0), BuildingBlock: EZIPEK_clean_linker_0, # of connection points: 2
#     Edge 44, Type (0, 0), BuildingBlock: EZIPEK_clean_linker_0, # of connection points: 2
#     Edge 45, Type (0, 0), BuildingBlock: EZIPEK_clean_linker_0, # of connection points: 2
#     Edge 46, Type (0, 0), BuildingBlock: EZIPEK_clean_linker_0, # of connection points: 2
#     Edge 47, Type (0, 0), BuildingBlock: EZIPEK_clean_linker_0, # of connection points: 2
# Relax obj value: 0.184
# Max RMSD: 0.316
# Mean RMSD: 0.300
data_MOF--net-lcy-e--node1-INOVEN_clean_sbu_0--edge1-EZIPEK_clean_linker_0
_symmetry_space_group_name_H-M    P1
_symmetry_Int_Tables_number       1
_symmetry_cell_setting            triclinic
loop_
_symmetry_equiv_pos_as_xyz
'x, y, z'
_cell_length_a     35.106727
_cell_length_b     33.632631
_cell_length_c     34.269173
_cell_angle_alpha  89.703577
_cell_angle_beta   90.164747
_cell_angle_gamma 87.87768
loop_
_atom_site_label
_atom_site_type_symbol
_atom_site_fract_x
_atom_site_fract_y
_atom_site_fract_z
_atom_type_partial_charge
Gd0 Gd 0.15735 0.23437 0.55108 0.0
Gd1 Gd 0.12599 0.2922 0.49139 0.0
C2 C 0.08357 0.21246 0.50094 0.0
C3 C 0.17342 0.19037 0.61112 0.0
C4 C 0.16051 0.15034 0.62061 0.0
C5 C 0.14664 0.12597 0.59094 0.0
C6 C 0.15626 0.13895 0.65971 0.0
C7 C 0.12301 0.08027 0.63946 0.0
C8 C 0.13769 0.10408 0.66907 0.0
C9 C 0.12803 0.09111 0.60029 0.0
C10 C 0.18613 0.22115 0.47829 0.0
C11 C 0.19387 0.32246 0.54468 0.0
C12 C 0.11297 0.33512 0.42931 0.0
C13 C 0.13359 0.35529 0.39789 0.0
C14 C 0.1135 0.36868 0.36484 0.0
C15 C 0.17325 0.35796 0.39842 0.0
C16 C 0.17151 0.39563 0.33639 0.0
C17 C 0.19203 0.37661 0.36757 0.0
C18 C 0.13226 0.38724 0.33416 0.0
C19 C 0.08802 0.29116 0.56215 0.0
O20 O 0.10001 0.20943 0.53559 0.0
O21 O 0.09696 0.23654 0.47454 0.0
O22 O 0.19668 0.19342 0.5815 0.0
O23 O 0.14596 0.21768 0.61074 0.0
O24 O 0.17445 0.19382 0.50169 0.0
O25 O 0.1798 0.25477 0.49391 0.0
O26 O 0.17285 0.32921 0.51322 0.0
O27 O 0.19341 0.28808 0.56418 0.0
O28 O 0.11447 0.35014 0.46448 0.0
O29 O 0.11597 0.29625 0.42923 0.0
O30 O 0.07159 0.30005 0.52911 0.0
O31 O 0.12292 0.28851 0.55556 0.0
H32 H 0.14899 0.13468 0.56061 0.0
H33 H 0.16601 0.15777 0.68298 0.0
H34 H 0.13388 0.09616 0.69946 0.0
H35 H 0.11667 0.07319 0.57712 0.0
H36 H 0.08316 0.36423 0.36241 0.0
H37 H 0.18982 0.34491 0.4223 0.0
H38 H 0.22266 0.37442 0.36848 0.0
H39 H 0.1154 0.39437 0.3085 0.0
Gd40 Gd 0.99569 0.87761 0.73868 0.0
Gd41 Gd 0.05364 0.90966 0.79426 0.0
C42 C 0.05044 0.94995 0.71197 0.0
C43 C 0.94404 0.86537 0.68599 0.0
C44 C 0.93105 0.88402 0.64883 0.0
C45 C 0.90755 0.86302 0.62364 0.0
C46 C 0.94127 0.92266 0.63835 0.0
C47 C 0.90205 0.92007 0.57964 0.0
C48 C 0.92688 0.94055 0.60401 0.0
C49 C 0.89313 0.88089 0.58936 0.0
C50 C 0.05961 0.83113 0.74569 0.0
C51 C 0.99936 0.84301 0.82548 0.0
C52 C 0.11129 0.91856 0.84106 0.0
C53 C 0.14248 0.89442 0.85995 0.0
C54 C 0.15801 0.90737 0.89526 0.0
C55 C 0.15893 0.86039 0.84197 0.0
C56 C 0.2069 0.85396 0.89353 0.0
C57 C 0.19078 0.84024 0.8587 0.0
C58 C 0.18986 0.88736 0.91188 0.0
C59 C 0.98407 0.95101 0.79168 0.0
O60 O 1.01783 0.93205 0.70672 0.0
O61 O 0.07241 0.94221 0.74215 0.0
O62 O 0.97794 0.84807 0.68579 0.0
O63 O 0.93741 0.8856 0.7179 0.0
O64 O 0.02546 0.81799 0.74337 0.0
O65 O 0.05853 0.86878 0.74372 0.0
O66 O 0.0349 0.85438 0.82482 0.0
O67 O 0.97563 0.85199 0.79618 0.0
O68 O 0.07654 0.91407 0.85342 0.0
O69 O 0.113 0.92215 0.80319 0.0
O70 O 1.01655 0.96742 0.79783 0.0
O71 O 0.99063 0.91435 0.79044 0.0
H72 H 0.8995 0.83313 0.63103 0.0
H73 H 0.95949 0.93941 0.65717 0.0
H74 H 0.93369 0.97099 0.59733 0.0
H75 H 0.87365 0.86478 0.57129 0.0
H76 H 0.146 0.93359 0.90956 0.0
H77 H 0.14769 0.84995 0.81457 0.0
H78 H 0.20331 0.81443 0.84414 0.0
H79 H 0.20168 0.89836 0.93881 0.0
Gd80 Gd 0.38535 0.79421 0.04249 0.0
Gd81 Gd 0.40878 0.73526 0.98473 0.0
C82 C 0.45471 0.81694 0.98661 0.0
C83 C 0.36887 0.84047 0.10109 0.0
C84 C 0.38988 0.87239 0.12004 0.0
C85 C 0.37706 0.88884 0.1554 0.0
C86 C 0.42218 0.88776 0.10205 0.0
C87 C 0.42826 0.9358 0.15414 0.0
C88 C 0.44125 0.91912 0.11899 0.0
C89 C 0.39611 0.9204 0.17234 0.0
C90 C 0.3443 0.80033 0.97493 0.0
C91 C 0.35126 0.70414 0.04487 0.0
C92 C 0.41984 0.70031 0.91807 0.0
C93 C 0.39846 0.68187 0.88563 0.0
C94 C 0.40573 0.64167 0.8763 0.0
C95 C 0.37381 0.70492 0.86117 0.0
C96 C 0.36603 0.64852 0.8179 0.0
C97 C 0.35792 0.68844 0.82759 0.0
C98 C 0.38962 0.62515 0.84288 0.0
C99 C 0.44829 0.72744 0.05421 0.0
O100 O 0.43831 0.8242 1.02061 0.0
O101 O 0.44487 0.78624 0.96571 0.0
O102 O 0.35799 0.84794 0.06533 0.0
O103 O 0.3829 0.80421 0.10528 0.0
O104 O 0.35822 0.82983 0.99336 0.0
O105 O 0.35362 0.76841 0.99263 0.0
O106 O 0.36106 0.70127 1.00804 0.0
O107 O 0.35877 0.73671 0.06499 0.0
O108 O 0.42287 0.68137 0.95152 0.0
O109 O 0.41505 0.73878 0.92227 0.0
O110 O 0.43858 0.6983 0.03195 0.0
O111 O 0.43917 0.75954 0.0368 0.0
H112 H 0.35211 0.8776 0.16963 0.0
H113 H 0.43246 0.87581 0.07467 0.0
H114 H 0.46594 0.93066 0.1045 0.0
H115 H 0.38566 0.93302 0.19947 0.0
H116 H 0.42488 0.62329 0.89422 0.0
H117 H 0.36766 0.73607 0.86721 0.0
H118 H 0.34008 0.7071 0.80862 0.0
H119 H 0.39648 0.59436 0.83582 0.0
Gd120 Gd 0.55324 0.13564 0.25856 0.0
Gd121 Gd 0.48842 0.11587 0.31418 0.0
C122 C 0.4979 0.06592 0.2335 0.0
C123 C 0.61603 0.14058 0.21919 0.0
C124 C 0.62951 0.12203 0.18206 0.0
C125 C 0.65794 0.1397 0.15982 0.0
C126 C 0.61415 0.08654 0.16844 0.0
C127 C 0.65556 0.08673 0.11128 0.0
C128 C 0.62693 0.06918 0.1334 0.0
C129 C 0.67086 0.12224 0.12484 0.0
C130 C 0.48569 0.17536 0.24303 0.0
C131 C 0.53914 0.18356 0.34138 0.0
C132 C 0.42222 0.10628 0.34607 0.0
C133 C 0.38929 0.1287 0.36378 0.0
C134 C 0.37388 0.11488 0.3989 0.0
C135 C 0.37116 0.16171 0.34501 0.0
C136 C 0.32248 0.16566 0.39577 0.0
C137 C 0.33809 0.18004 0.36092 0.0
C138 C 0.34094 0.13319 0.41476 0.0
C139 C 0.5586 0.07978 0.32997 0.0
O140 O 0.53047 0.08302 0.22664 0.0
O141 O 0.47623 0.07574 0.26356 0.0
O142 O 0.58783 0.16702 0.2165 0.0
O143 O 0.61211 0.11638 0.24882 0.0
O144 O 0.50932 0.16183 0.21684 0.0
O145 O 0.49961 0.16795 0.2764 0.0
O146 O 0.50309 0.17519 0.33707 0.0
O147 O 0.56511 0.16926 0.316 0.0
O148 O 0.45427 0.10363 0.36574 0.0
O149 O 0.42745 0.11047 0.30848 0.0
O150 O 0.53312 0.0885 0.35626 0.0
O151 O 0.54321 0.08588 0.29712 0.0
H152 H 0.67024 0.16701 0.16956 0.0
H153 H 0.59232 0.07211 0.18492 0.0
H154 H 0.6146 0.04191 0.1236 0.0
H155 H 0.69288 0.13642 0.1083 0.0
H156 H 0.38702 0.0894 0.41382 0.0
H157 H 0.38224 0.17306 0.31784 0.0
H158 H 0.32454 0.20526 0.34595 0.0
H159 H 0.32959 0.12176 0.44178 0.0
Gd160 Gd 0.63766 0.23933 0.56888 0.0
Gd161 Gd 0.66331 0.30537 0.51373 0.0
C162 C 0.71234 0.29213 0.59073 0.0
C163 C 0.63706 0.1773 0.61424 0.0
C164 C 0.65255 0.16528 0.65306 0.0
C165 C 0.66242 0.19353 0.68118 0.0
C166 C 0.65783 0.1247 0.66203 0.0
C167 C 0.68227 0.14046 0.72663 0.0
C168 C 0.67247 0.11241 0.69842 0.0
C169 C 0.67703 0.1812 0.71775 0.0
C170 C 0.5953 0.30693 0.57427 0.0
C171 C 0.59503 0.25309 0.48555 0.0
C172 C 0.66882 0.37145 0.47498 0.0
C173 C 0.6462 0.40537 0.45768 0.0
C174 C 0.65068 0.44379 0.47272 0.0
C175 C 0.62284 0.40092 0.42466 0.0
C176 C 0.61131 0.47281 0.42072 0.0
C177 C 0.60554 0.43441 0.40637 0.0
C178 C 0.63336 0.47716 0.45449 0.0
C179 C 0.69812 0.23138 0.504 0.0
O180 O 0.68944 0.26324 0.6005 0.0
O181 O 0.70744 0.31346 0.55883 0.0
O182 O 0.6098 0.20496 0.61353 0.0
O183 O 0.66204 0.18163 0.58637 0.0
O184 O 0.58231 0.27154 0.57862 0.0
O185 O 0.63135 0.30533 0.5701 0.0
O186 O 0.60697 0.28978 0.48731 0.0
O187 O 0.6056 0.22608 0.51257 0.0
O188 O 0.6681 0.33655 0.45824 0.0
O189 O 0.66958 0.36914 0.51308 0.0
O190 O 0.71481 0.26444 0.49617 0.0
O191 O 0.66438 0.24019 0.51248 0.0
H192 H 0.65876 0.22504 0.67489 0.0
H193 H 0.65055 0.1024 0.64084 0.0
H194 H 0.67612 0.08088 0.70464 0.0
H195 H 0.68423 0.20336 0.73909 0.0
H196 H 0.66872 0.44817 0.49793 0.0
H197 H 0.61883 0.37181 0.41229 0.0
H198 H 0.58874 0.43051 0.38019 0.0
H199 H 0.63835 0.50652 0.46585 0.0
Gd200 Gd 1.00266 0.39412 0.73679 0.0
Gd201 Gd 0.05968 0.3577 0.80155 0.0
C202 C 0.97884 0.31822 0.79329 0.0
C203 C 0.96323 0.39316 0.67338 0.0
C204 C 0.92362 0.38221 0.66557 0.0
C205 C 0.89791 0.37734 0.6965 0.0
C206 C 0.91273 0.37171 0.6277 0.0
C207 C 0.85122 0.35115 0.65171 0.0
C208 C 0.87678 0.35636 0.62081 0.0
C209 C 0.86192 0.36201 0.6896 0.0
C210 C 0.986 0.42844 0.80664 0.0
C211 C 0.08439 0.43436 0.75319 0.0
C212 C 0.10104 0.34862 0.86378 0.0
C213 C 0.11401 0.37408 0.89623 0.0
C214 C 0.08886 0.3863 0.92624 0.0
C215 C 0.15232 0.38468 0.89859 0.0
C216 C 0.14036 0.41742 0.96079 0.0
C217 C 0.16535 0.40624 0.93054 0.0
C218 C 0.10194 0.40773 0.9582 0.0
C219 C 0.06489 0.32767 0.72679 0.0
O220 O 0.97156 0.34089 0.76201 0.0
O221 O 1.00984 0.32124 0.81455 0.0
O222 O 0.96822 0.42601 0.69322 0.0
O223 O 0.98553 0.36325 0.685 0.0
O224 O 0.96891 0.43778 0.77395 0.0
O225 O 1.0116 0.4018 0.79976 0.0
O226 O 0.08353 0.4174 0.78803 0.0
O227 O 0.05716 0.42857 0.72655 0.0
O228 O 0.11568 0.35431 0.82915 0.0
O229 O 0.0646 0.34166 0.86246 0.0
O230 O 0.07456 0.30682 0.75775 0.0
O231 O 0.057 0.36214 0.73811 0.0
H232 H 0.90604 0.38453 0.72609 0.0
H233 H 0.93238 0.37449 0.60361 0.0
H234 H 0.86902 0.34811 0.5914 0.0
H235 H 0.84261 0.35814 0.71381 0.0
H236 H 0.05916 0.37869 0.92553 0.0
H237 H 0.17241 0.37558 0.87612 0.0
H238 H 0.19517 0.41328 0.93221 0.0
H239 H 0.08231 0.41596 0.98137 0.0
Gd240 Gd 0.90262 0.7859 0.05805 0.0
Gd241 Gd 0.88725 0.71844 1.00519 0.0
C242 C 0.84124 0.72416 0.08646 0.0
C243 C 0.91062 0.85028 0.09821 0.0
C244 C 0.89116 0.86529 0.13371 0.0
C245 C 0.90928 0.89188 0.15842 0.0
C246 C 0.85496 0.85208 0.14398 0.0
C247 C 0.85471 0.89299 0.20228 0.0
C248 C 0.83672 0.86612 0.17777 0.0
C249 C 0.89123 0.90558 0.1925 0.0
C250 C 0.94809 0.71977 0.07107 0.0
C251 C 0.94131 0.77891 0.97129 0.0
C252 C 0.88216 0.64834 0.97414 0.0
C253 C 0.90463 0.61547 0.95483 0.0
C254 C 0.91948 0.61937 0.91691 0.0
C255 C 0.90834 0.57811 0.9735 0.0
C256 C 0.93894 0.54882 0.91616 0.0
C257 C 0.92528 0.54519 0.95441 0.0
C258 C 0.93648 0.58635 0.89782 0.0
C259 C 0.84244 0.787 0.99199 0.0
O260 O 0.8522 0.76115 0.08978 0.0
O261 O 0.85442 0.7008 0.05855 0.0
O262 O 0.88996 0.84895 0.06654 0.0
O263 O 0.93228 0.81829 0.10293 0.0
O264 O 0.93196 0.74117 0.09799 0.0
O265 O 0.93884 0.73409 0.03813 0.0
O266 O 0.93861 0.74034 0.97571 0.0
O267 O 0.92677 0.80355 0.99819 0.0
O268 O 0.87503 0.68157 0.95492 0.0
O269 O 0.88875 0.65415 1.01123 0.0
O270 O 0.85499 0.76246 0.96551 0.0
O271 O 0.85226 0.77205 0.02445 0.0
H272 H 0.93733 0.90213 0.1513 0.0
H273 H 0.8407 0.83102 0.12583 0.0
H274 H 0.80849 0.85626 0.18467 0.0
H275 H 0.90541 0.92658 0.2109 0.0
H276 H 0.91697 0.64756 0.90154 0.0
H277 H 0.89692 0.574 1.00252 0.0
H278 H 0.92648 0.51651 0.96897 0.0
H279 H 0.94647 0.58974 0.86815 0.0
Gd280 Gd 0.55267 0.6221 0.24017 0.0
Gd281 Gd 0.49623 0.66187 0.2931 0.0
C282 C 0.57432 0.70379 0.28771 0.0
C283 C 0.60298 0.60881 0.186 0.0
C284 C 0.6427 0.61952 0.17905 0.0
C285 C 0.65863 0.61308 0.14209 0.0
C286 C 0.66304 0.6407 0.20704 0.0
C287 C 0.71314 0.65187 0.15978 0.0
C288 C 0.69807 0.65687 0.19742 0.0
C289 C 0.69361 0.62907 0.13253 0.0
C290 C 0.55293 0.58795 0.31119 0.0
C291 C 0.47173 0.58342 0.25309 0.0
C292 C 0.44937 0.6751 0.35045 0.0
C293 C 0.43651 0.65149 0.38463 0.0
C294 C 0.46095 0.64318 0.41664 0.0
C295 C 0.3992 0.63764 0.38592 0.0
C296 C 0.41076 0.60896 0.45058 0.0
C297 C 0.38648 0.61655 0.41853 0.0
C298 C 0.44822 0.62206 0.44918 0.0
C299 C 0.49398 0.68867 0.21583 0.0
O300 O 0.58388 0.67687 0.26103 0.0
O301 O 0.54183 0.70336 0.30628 0.0
O302 O 0.59677 0.58358 0.21426 0.0
O303 O 0.5784 0.6389 0.18552 0.0
O304 O 0.55768 0.56897 0.27862 0.0
O305 O 0.54987 0.62534 0.30492 0.0
O306 O 0.47353 0.60111 0.28694 0.0
O307 O 0.4982 0.58942 0.22648 0.0
O308 O 0.43823 0.66408 0.31586 0.0
O309 O 0.48478 0.68575 0.35063 0.0
O310 O 0.48501 0.71035 0.24609 0.0
O311 O 0.499 0.65392 0.22862 0.0
H312 H 0.64321 0.5972 0.12001 0.0
H313 H 0.65112 0.64615 0.2357 0.0
H314 H 0.71256 0.67467 0.21869 0.0
H315 H 0.70467 0.62519 0.10325 0.0
H316 H 0.4899 0.65321 0.41679 0.0
H317 H 0.37967 0.64355 0.36188 0.0
H318 H 0.35742 0.60683 0.41911 0.0
H319 H 0.46737 0.61657 0.47361 0.0
Gd320 Gd 0.24665 0.54238 0.16246 0.0
Gd321 Gd 0.29796 0.47596 0.13519 0.0
C322 C 0.21972 0.48549 0.09007 0.0
C323 C 0.20266 0.60586 0.16384 0.0
C324 C 0.16467 0.61839 0.14777 0.0
C325 C 0.13474 0.62905 0.17325 0.0
C326 C 0.15811 0.62111 0.10722 0.0
C327 C 0.09305 0.64593 0.11824 0.0
C328 C 0.12262 0.63471 0.09263 0.0
C329 C 0.09925 0.64264 0.15863 0.0
C330 C 0.24229 0.47821 0.20873 0.0
C331 C 0.32597 0.52693 0.20694 0.0
C332 C 0.34157 0.41229 0.12768 0.0
C333 C 0.36256 0.381 0.15054 0.0
C334 C 0.39714 0.36499 0.13601 0.0
C335 C 0.34742 0.36467 0.18479 0.0
C336 C 0.40036 0.31578 0.18844 0.0
C337 C 0.36631 0.3325 0.20375 0.0
C338 C 0.41584 0.33267 0.15472 0.0
C339 C 0.30634 0.54794 0.0984 0.0
O340 O 0.21203 0.51648 0.11275 0.0
O341 O 0.2514 0.46389 0.09378 0.0
O342 O 0.20335 0.57915 0.19179 0.0
O343 O 0.23045 0.60033 0.13879 0.0
O344 O 0.24081 0.5148 0.22063 0.0
O345 O 0.24459 0.47672 0.17153 0.0
O346 O 0.32425 0.49081 0.19272 0.0
O347 O 0.30158 0.55524 0.19402 0.0
O348 O 0.35464 0.44821 0.12791 0.0
O349 O 0.30436 0.41217 0.12871 0.0
O350 O 0.30971 0.51398 0.08062 0.0
O351 O 0.30135 0.54127 0.13378 0.0
H352 H 0.13899 0.62746 0.20455 0.0
H353 H 0.18053 0.61338 0.08669 0.0
H354 H 0.11844 0.6373 0.06138 0.0
H355 H 0.07685 0.65143 0.17884 0.0
H356 H 0.40926 0.37688 0.10955 0.0
H357 H 0.32057 0.3761 0.19636 0.0
H358 H 0.35398 0.32006 0.22983 0.0
H359 H 0.44214 0.32039 0.14253 0.0
Gd360 Gd 0.74829 0.97683 0.88841 0.0
Gd361 Gd 0.80198 0.03497 0.9218 0.0
C362 C 0.7267 0.02724 0.96959 0.0
C363 C 0.70216 0.91817 0.88297 0.0
C364 C 0.66296 0.90842 0.89478 0.0
C365 C 0.63668 0.93765 0.90856 0.0
C366 C 0.65285 0.86842 0.89549 0.0
C367 C 0.59131 0.88661 0.92441 0.0
C368 C 0.61744 0.85762 0.91016 0.0
C369 C 0.60105 0.92682 0.92316 0.0
C370 C 0.74282 0.04715 0.85125 0.0
C371 C 0.83013 0.9908 0.84673 0.0
C372 C 0.84408 0.0965 0.93008 0.0
C373 C 0.86033 0.12792 0.90457 0.0
C374 C 0.8388 0.16296 0.89526 0.0
C375 C 0.8982 0.12445 0.89114 0.0
C376 C 0.8929 0.19064 0.8614 0.0
C377 C 0.91426 0.15542 0.86975 0.0
C378 C 0.85485 0.19383 0.87387 0.0
C379 C 0.80898 0.95668 0.95066 0.0
O380 O 0.71727 1.00022 0.94344 0.0
O381 O 0.75838 0.04641 0.96708 0.0
O382 O 0.70621 0.94473 0.85534 0.0
O383 O 0.7262 0.92225 0.91169 0.0
O384 O 0.73907 1.01287 0.83474 0.0
O385 O 0.74699 0.043 0.88815 0.0
O386 O 0.82602 0.02627 0.862 0.0
O387 O 0.80467 0.96364 0.85493 0.0
O388 O 0.85823 0.06009 0.92737 0.0
O389 O 0.80708 0.09759 0.93458 0.0
O390 O 0.81597 0.98852 0.9707 0.0
O391 O 0.80288 0.96881 0.91653 0.0
H392 H 0.64403 0.96865 0.9088 0.0
H393 H 0.67279 0.84533 0.8855 0.0
H394 H 0.61065 0.82647 0.91102 0.0
H395 H 0.58144 0.94965 0.93422 0.0
H396 H 0.80965 0.16698 0.90516 0.0
H397 H 0.91574 0.09812 0.89788 0.0
H398 H 0.94372 0.15235 0.86062 0.0
H399 H 0.83786 0.22074 0.86794 0.0
Gd400 Gd 0.73642 0.98942 0.41635 0.0
Gd401 Gd 0.79467 0.04748 0.39004 0.0
C402 C 0.79018 0.97119 0.33835 0.0
C403 C 0.67957 0.94213 0.41777 0.0
C404 C 0.66819 0.90665 0.39581 0.0
C405 C 0.63998 0.8825 0.41095 0.0
C406 C 0.68502 0.89657 0.35981 0.0
C407 C 0.64535 0.83889 0.35445 0.0
C408 C 0.67385 0.86286 0.3394 0.0
C409 C 0.62862 0.84897 0.39045 0.0
C410 C 0.79932 0.98421 0.46103 0.0
C411 C 0.74642 0.07095 0.46453 0.0
C412 C 0.8524 0.09326 0.38561 0.0
C413 C 0.88294 0.10808 0.41124 0.0
C414 C 0.8904 0.14857 0.41102 0.0
C415 C 0.90699 0.08218 0.43318 0.0
C416 C 0.94365 0.13801 0.45756 0.0
C417 C 0.93735 0.09669 0.45505 0.0
C418 C 0.92048 0.16309 0.43298 0.0
C419 C 0.72325 0.05515 0.356 0.0
O420 O 0.76107 0.96125 0.36053 0.0
O421 O 0.80975 1.00276 0.34526 0.0
O422 O 0.70946 0.93756 0.44043 0.0
O423 O 0.67915 0.97572 0.39836 0.0
O424 O 0.76492 0.9787 0.47321 0.0
O425 O 0.79956 0.98998 0.42401 0.0
O426 O 0.78082 0.06964 0.44957 0.0
O427 O 0.72098 0.04533 0.45189 0.0
O428 O 0.81749 0.10693 0.39155 0.0
O429 O 0.85414 0.05534 0.37733 0.0
O430 O 0.75439 0.06452 0.33831 0.0
O431 O 0.73178 0.04775 0.39062 0.0
H432 H 0.62664 0.88965 0.43864 0.0
H433 H 0.70667 0.91476 0.34735 0.0
H434 H 0.68722 0.85559 0.31177 0.0
H435 H 0.60669 0.83083 0.40267 0.0
H436 H 0.87348 0.16907 0.39296 0.0
H437 H 0.90307 0.05038 0.43268 0.0
H438 H 0.95601 0.07448 0.46833 0.0
H439 H 0.92587 0.19431 0.42938 0.0
Gd440 Gd 0.30767 0.48236 0.65458 0.0
Gd441 Gd 0.25111 0.55024 0.6222 0.0
C442 C 0.33231 0.54003 0.58104 0.0
C443 C 0.34758 0.41659 0.65539 0.0
C444 C 0.38837 0.40732 0.64864 0.0
C445 C 0.40123 0.36774 0.6436 0.0
C446 C 0.41412 0.43804 0.64387 0.0
C447 C 0.46475 0.3896 0.62784 0.0
C448 C 0.45213 0.42922 0.63367 0.0
C449 C 0.43917 0.35894 0.63337 0.0
C450 C 0.32276 0.55154 0.69094 0.0
C451 C 0.22558 0.49892 0.69756 0.0
C452 C 0.20871 0.61403 0.61423 0.0
C453 C 0.19105 0.64516 0.63924 0.0
C454 C 0.15164 0.6532 0.63669 0.0
C455 C 0.21318 0.66864 0.66384 0.0
C456 C 0.15697 0.70876 0.68113 0.0
C457 C 0.19624 0.70031 0.68456 0.0
C458 C 0.13472 0.68473 0.6575 0.0
C459 C 0.24729 0.47691 0.58877 0.0
O460 O 0.33982 0.50783 0.60274 0.0
O461 O 0.30104 0.56238 0.58509 0.0
O462 O 0.33883 0.43634 0.68735 0.0
O463 O 0.32881 0.42985 0.62451 0.0
O464 O 0.34065 0.51782 0.69805 0.0
O465 O 0.29787 0.54626 0.66489 0.0
O466 O 0.2227 0.53289 0.67804 0.0
O467 O 0.25383 0.47229 0.69011 0.0
O468 O 0.1947 0.57848 0.61614 0.0
O469 O 0.24595 0.61336 0.61158 0.0
O470 O 0.23913 0.50994 0.57006 0.0
O471 O 0.25359 0.48533 0.62366 0.0
H472 H 0.38173 0.34371 0.64677 0.0
H473 H 0.40459 0.46883 0.64728 0.0
H474 H 0.47149 0.45323 0.62963 0.0
H475 H 0.44846 0.3282 0.62909 0.0
H476 H 0.13406 0.63567 0.61785 0.0
H477 H 0.24369 0.6632 0.66641 0.0
H478 H 0.21379 0.71872 0.70255 0.0
H479 H 0.10436 0.69103 0.65445 0.0
C480 C 0.23874 0.37816 0.53389 0.0
C481 C 0.21469 0.35729 0.55973 0.0
C482 C 0.20929 0.41634 0.60151 0.0
C483 C 0.23467 0.43668 0.57684 0.0
N484 N 0.27678 0.436 0.52162 0.0
N485 N 0.18428 0.35383 0.62289 0.0
C486 C 0.25033 0.41728 0.54356 0.0
C487 C 0.20279 0.37531 0.59532 0.0
N488 N 0.24994 0.36058 0.4997 0.0
N489 N 0.18883 0.43722 0.62902 0.0
H490 H 0.17684 0.32447 0.61923 0.0
H491 H 0.17957 0.36393 0.6512 0.0
H492 H 0.18812 0.46818 0.63042 0.0
H493 H 0.16922 0.4248 0.64764 0.0
H494 H 0.2632 0.37547 0.47709 0.0
H495 H 0.24484 0.33089 0.49347 0.0
H496 H 0.29273 0.42219 0.49966 0.0
H497 H 0.28413 0.46526 0.5267 0.0
C498 C 0.87618 0.97233 0.79199 0.0
C499 C 0.86941 0.97925 0.83216 0.0
C500 C 0.93893 0.97324 0.84507 0.0
C501 C 0.94581 0.96723 0.80472 0.0
N502 N 0.92194 0.96721 0.73889 0.0
N503 N 0.89464 0.98817 0.89709 0.0
C504 C 0.91459 0.96845 0.77797 0.0
C505 C 0.90095 0.98029 0.85858 0.0
N506 N 0.84579 0.96887 0.76737 0.0
N507 N 0.96857 0.97028 0.87108 0.0
H508 H 0.86785 0.9879 0.90954 0.0
H509 H 0.91558 0.99655 0.91662 0.0
H510 H 0.99707 0.96873 0.86294 0.0
H511 H 0.96529 0.96747 0.90111 0.0
H512 H 0.84814 0.95995 0.73843 0.0
H513 H 0.81763 0.97233 0.77678 0.0
H514 H 0.90137 0.97182 0.71726 0.0
H515 H 0.94951 0.96407 0.72794 0.0
C516 C 0.35573 0.64739 0.0941 0.0
C517 C 0.33534 0.66762 0.06339 0.0
C518 C 0.29611 0.60849 0.05471 0.0
C519 C 0.31834 0.58757 0.08336 0.0
N520 N 0.37365 0.58429 0.12514 0.0
N521 N 0.28509 0.66846 1.01543 0.0
C522 C 0.3491 0.60643 0.10187 0.0
C523 C 0.3051 0.64835 0.04413 0.0
N524 N 0.38162 0.66703 0.11598 0.0
N525 N 0.26593 0.5903 0.03817 0.0
H526 H 0.28827 0.69869 1.00987 0.0
H527 H 0.26574 0.65557 0.99676 0.0
H528 H 0.26069 0.56041 0.04313 0.0
H529 H 0.24557 0.60452 1.02038 0.0
H530 H 0.39381 0.65555 0.14157 0.0
H531 H 0.38874 0.69631 0.11101 0.0
H532 H 0.39899 0.59466 0.13636 0.0
H533 H 0.37092 0.5539 0.13001 0.0
C534 C 0.62113 0.04046 0.31839 0.0
C535 C 0.60118 0.07282 0.33686 0.0
C536 C 0.66328 0.09819 0.35816 0.0
C537 C 0.68271 0.06396 0.34319 0.0
N538 N 0.67967 0.99994 0.31256 0.0
N539 N 0.60418 0.12706 0.38265 0.0
C540 C 0.66152 0.03459 0.32384 0.0
C541 C 0.62253 0.1002 0.35902 0.0
N542 N 0.60123 1.01436 0.29663 0.0
N543 N 0.684 0.12879 0.37201 0.0
H544 H 0.57543 0.12607 0.38897 0.0
H545 H 0.61783 0.14784 0.3994 0.0
H546 H 0.71374 0.12791 0.37212 0.0
H547 H 0.67212 0.1565 0.37956 0.0
H548 H 0.614 0.99346 0.27805 0.0
H549 H 0.57153 1.01443 0.29635 0.0
H550 H 0.66568 0.97518 0.30262 0.0
H551 H 0.70891 0.99492 0.31576 0.0
C552 C 0.68614 0.15986 0.48696 0.0
C553 C 0.71263 0.18915 0.49733 0.0
C554 C 0.7627 0.13577 0.49914 0.0
C555 C 0.73518 0.10733 0.48822 0.0
N556 N 0.66934 0.0914 0.49529 0.0
N557 N 0.77503 0.20219 0.52293 0.0
C558 C 0.6964 0.11901 0.49034 0.0
C559 C 0.75074 0.17636 0.50625 0.0
N560 N 0.65228 0.17074 0.47007 0.0
N561 N 0.80013 0.12404 0.50333 0.0
H562 H 0.76739 0.23173 0.52887 0.0
H563 H 0.8018 0.19371 0.53391 0.0
H564 H 0.80904 0.09427 0.50588 0.0
H565 H 0.82228 0.14376 0.50442 0.0
H566 H 0.6317 0.15049 0.46287 0.0
H567 H 0.64798 0.19884 0.45783 0.0
H568 H 0.64056 0.0992 0.49906 0.0
H569 H 0.67656 0.06168 0.50162 0.0
C570 C 0.12152 0.49342 0.72931 0.0
C571 C 0.12112 0.45332 0.74232 0.0
C572 C 0.19169 0.45019 0.74109 0.0
C573 C 0.19168 0.48754 0.72213 0.0
N574 N 0.15894 0.55192 0.72023 0.0
N575 N 0.15707 0.39182 0.75696 0.0
C576 C 0.15719 0.51145 0.72226 0.0
C577 C 0.15658 0.43144 0.74779 0.0
N578 N 0.08788 0.51441 0.72364 0.0
N579 N 0.22509 0.43409 0.75573 0.0
H580 H 0.13262 0.37573 0.76067 0.0
H581 H 0.18173 0.37364 0.75649 0.0
H582 H 0.25028 0.4496 0.75547 0.0
H583 H 0.22669 0.40865 0.7732 0.0
H584 H 0.08595 0.54189 0.70948 0.0
H585 H 0.0615 0.50325 0.73093 0.0
H586 H 0.13529 0.57134 0.72261 0.0
H587 H 0.18461 0.56636 0.72259 0.0
C588 C 0.81513 0.88175 0.9342 0.0
C589 C 0.8128 0.91245 0.96311 0.0
C590 C 0.81907 0.85828 1.01309 0.0
C591 C 0.82665 0.82922 0.98362 0.0
N592 N 0.81061 0.81254 0.91758 0.0
N593 N 0.81276 0.92749 0.03228 0.0
C594 C 0.81918 0.84077 0.94455 0.0
C595 C 0.81478 0.89996 1.00315 0.0
N596 N 0.8125 0.89109 0.89582 0.0
N597 N 0.81124 0.84593 0.05007 0.0
H598 H 0.80386 0.95697 0.02814 0.0
H599 H 0.82099 0.92105 0.06093 0.0
H600 H 0.81033 0.81614 0.05775 0.0
H601 H 0.80074 0.86479 0.07184 0.0
H602 H 0.82683 0.87438 0.87446 0.0
H603 H 0.78863 0.90722 0.88616 0.0
H604 H 0.80256 0.81916 0.88891 0.0
H605 H 0.80542 0.7832 0.92514 0.0
C606 C 0.40145 0.5933 0.24245 0.0
C607 C 0.4343 0.56713 0.24242 0.0
C608 C 0.39292 0.51061 0.23349 0.0
C609 C 0.36083 0.53769 0.22961 0.0
N610 N 0.33343 0.59972 0.25236 0.0
N611 N 0.46203 0.50106 0.23632 0.0
C612 C 0.36472 0.57758 0.24073 0.0
C613 C 0.43025 0.52572 0.23756 0.0
N614 N 0.40514 0.63354 0.24181 0.0
N615 N 0.38727 0.47083 0.23733 0.0
H616 H 0.48947 0.51128 0.24028 0.0
H617 H 0.4616 0.47118 0.22864 0.0
H618 H 0.36026 0.45981 0.24159 0.0
H619 H 0.40898 0.44948 0.2422 0.0
H620 H 0.38224 0.65366 0.23729 0.0
H621 H 0.43138 0.64671 0.24167 0.0
H622 H 0.33501 0.62814 0.2641 0.0
H623 H 0.3068 0.58732 0.25564 0.0
C624 C 0.53412 0.19587 0.41496 0.0
C625 C 0.55051 0.20516 0.3778 0.0
C626 C 0.59633 0.2463 0.41158 0.0
C627 C 0.5778 0.23969 0.44803 0.0
N628 N 0.52282 0.21675 0.48171 0.0
N629 N 0.58992 0.24904 0.34121 0.0
C630 C 0.54458 0.21741 0.44874 0.0
C631 C 0.57926 0.23355 0.37626 0.0
N632 N 0.51109 0.16431 0.41925 0.0
N633 N 0.63168 0.26193 0.4105 0.0
H634 H 0.57703 0.24161 0.31492 0.0
H635 H 0.60829 0.27259 0.33887 0.0
H636 H 0.64717 0.26841 0.43542 0.0
H637 H 0.64769 0.2636 0.38502 0.0
H638 H 0.50189 0.15425 0.44632 0.0
H639 H 0.50514 0.14475 0.39702 0.0
H640 H 0.49606 0.20435 0.48257 0.0
H641 H 0.52969 0.2323 0.5069 0.0
C642 C 0.06106 0.27171 0.62803 0.0
C643 C 0.07315 0.30172 0.60191 0.0
C644 C 0.08254 0.34596 0.65725 0.0
C645 C 0.06948 0.31677 0.68403 0.0
N646 N 0.04009 0.25374 0.69328 0.0
N647 N 0.08484 0.37064 0.5906 0.0
C648 C 0.05708 0.28001 0.66896 0.0
C649 C 0.07988 0.34003 0.61628 0.0
N650 N 0.05334 0.23518 0.61352 0.0
N651 N 0.10088 0.37802 0.67089 0.0
H652 H 0.08376 0.36696 0.56042 0.0
H653 H 0.08587 0.40031 0.59895 0.0
H654 H 0.11054 0.37922 0.69938 0.0
H655 H 0.11116 0.40043 0.65333 0.0
H656 H 0.04973 0.21005 0.63079 0.0
H657 H 0.051 0.23024 0.58364 0.0
H658 H 0.0268 0.22842 0.68367 0.0
H659 H 0.0369 0.25858 0.7231 0.0
C660 C 0.96535 0.78998 0.86238 0.0
C661 C 0.98489 0.82589 0.86255 0.0
C662 C 0.98161 0.82697 0.93428 0.0
C663 C 0.95727 0.79432 0.93386 0.0
N664 N 0.91918 0.75039 0.89461 0.0
N665 N 1.00336 0.88373 0.89866 0.0
C666 C 0.94737 0.77716 0.89715 0.0
C667 C 0.99081 0.84582 0.89852 0.0
N668 N 0.96463 0.76744 0.82934 0.0
N669 N 0.99719 0.83925 0.96855 0.0
H670 H 1.00797 0.89965 0.87313 0.0
H671 H 1.00473 0.90086 0.92385 0.0
H672 H 0.99273 0.82504 0.99517 0.0
H673 H 1.01798 0.86055 0.96977 0.0
H674 H 0.95437 0.73876 0.82888 0.0
H675 H 0.97775 0.77572 0.80341 0.0
H676 H 0.90839 0.74065 0.86811 0.0
H677 H 0.90343 0.74117 0.91826 0.0
C678 C 0.48991 0.67169 0.14191 0.0
C679 C 0.4896 0.70053 0.17265 0.0
C680 C 0.47068 0.75173 0.12296 0.0
C681 C 0.46859 0.72191 0.09344 0.0
N682 N 0.49778 0.65973 0.07302 0.0
N683 N 0.49556 0.77042 0.18629 0.0
C684 C 0.48432 0.6837 0.10243 0.0
C685 C 0.48455 0.74132 0.1614 0.0
N686 N 0.49657 0.63236 0.14923 0.0
N687 N 0.46027 0.79025 0.1148 0.0
H688 H 0.50878 0.7644 0.21295 0.0
H689 H 0.49651 0.80034 0.17858 0.0
H690 H 0.45529 0.80086 0.08682 0.0
H691 H 0.45544 0.81168 0.13623 0.0
H692 H 0.48802 0.61027 0.13016 0.0
H693 H 0.51441 0.62243 0.17133 0.0
H694 H 0.51245 0.63264 0.07794 0.0
H695 H 0.4997 0.66961 0.04421 0.0
C696 C 0.16831 0.44124 0.27536 0.0
C697 C 0.19047 0.42036 0.30439 0.0
C698 C 0.2476 0.43229 0.26524 0.0
C699 C 0.22486 0.44814 0.23441 0.0
N700 N 0.16236 0.46241 0.2079 0.0
N701 N 0.25159 0.42892 0.33495 0.0
C702 C 0.18478 0.4503 0.23864 0.0
C703 C 0.23069 0.42395 0.30187 0.0
N704 N 0.13437 0.45944 0.28541 0.0
N705 N 0.28586 0.42665 0.26 0.0
H706 H 0.23846 0.43504 0.36165 0.0
H707 H 0.28059 0.4346 0.33465 0.0
H708 H 0.2986 0.43232 0.2332 0.0
H709 H 0.30358 0.41256 0.28074 0.0
H710 H 0.11859 0.47814 0.26659 0.0
H711 H 0.12523 0.46078 0.31435 0.0
H712 H 0.13271 0.46143 0.20851 0.0
H713 H 0.17367 0.46951 0.18073 0.0
C714 C 0.88988 0.93547 0.50797 0.0
C715 C 0.88038 0.9415 0.54782 0.0
C716 C 0.82745 0.98652 0.52801 0.0
C717 C 0.83241 0.97531 0.48818 0.0
N718 N 0.86896 0.93732 0.44041 0.0
N719 N 0.83723 0.96935 0.59593 0.0
C720 C 0.86421 0.94982 0.47799 0.0
C721 C 0.84865 0.96642 0.55785 0.0
N722 N 0.92361 0.91624 0.49886 0.0
N723 N 0.80237 1.01686 0.5376 0.0
H724 H 0.85188 0.95553 0.6191 0.0
H725 H 0.81132 0.98271 0.60434 0.0
H726 H 0.78566 0.03206 0.51707 0.0
H727 H 0.80097 0.02962 0.56522 0.0
H728 H 0.93436 0.91437 0.47062 0.0
H729 H 0.94249 0.90506 0.52017 0.0
H730 H 0.88825 0.91457 0.4324 0.0
H731 H 0.85256 0.94814 0.41715 0.0
C732 C 0.36919 0.5984 0.71853 0.0
C733 C 0.3306 0.58807 0.71373 0.0
C734 C 0.31364 0.62317 0.77424 0.0
C735 C 0.3526 0.63173 0.78009 0.0
N736 N 0.41493 0.63856 0.75216 0.0
N737 N 0.26486 0.60313 0.72867 0.0
C738 C 0.37957 0.62294 0.75028 0.0
C739 C 0.30234 0.60477 0.7388 0.0
N740 N 0.39613 0.58353 0.69326 0.0
N741 N 0.2878 0.63065 0.80326 0.0
H742 H 0.25649 0.59217 0.70178 0.0
H743 H 0.24283 0.61717 0.74426 0.0
H744 H 0.29497 0.64397 0.82956 0.0
H745 H 0.25994 0.62106 0.80246 0.0
H746 H 0.42535 0.5853 0.69783 0.0
H747 H 0.38907 0.56794 0.66815 0.0
H748 H 0.43477 0.63637 0.72969 0.0
H749 H 0.42322 0.65699 0.77482 0.0
C750 C 0.6602 0.08681 0.03748 0.0
C751 C 0.6695 0.06819 0.07381 0.0
C752 C 0.70597 1.01551 0.03868 0.0
C753 C 0.70138 0.03736 1.00338 0.0
N754 N 0.67519 0.09444 0.96866 0.0
N755 N 0.70396 1.01628 0.10951 0.0
C756 C 0.67851 0.07306 1.00261 0.0
C757 C 0.69276 0.0326 0.07451 0.0
N758 N 0.63315 0.1171 0.03625 0.0
N759 N 0.72304 0.97835 0.03784 0.0
H760 H 0.69519 0.02794 0.1363 0.0
H761 H 0.72425 0.99306 0.11222 0.0
H762 H 0.73282 0.96526 1.01202 0.0
H763 H 0.72436 0.95916 0.06177 0.0
H764 H 0.62225 0.12942 1.01043 0.0
H765 H 0.61909 0.12771 0.06109 0.0
H766 H 0.66304 0.1231 0.96696 0.0
H767 H 0.68637 0.08409 0.94224 0.0
C768 C 0.67156 0.1097 0.79274 0.0
C769 C 0.69709 0.12637 0.76562 0.0
C770 C 0.75082 0.10667 0.80874 0.0
C771 C 0.72626 0.08313 0.831 0.0
N772 N 0.6629 0.06399 0.84698 0.0
N773 N 0.76129 0.14205 0.74794 0.0
C774 C 0.68635 0.08589 0.82429 0.0
C775 C 0.7368 0.12598 0.77407 0.0
N776 N 0.63321 0.11673 0.78815 0.0
N777 N 0.7876 0.11011 0.82087 0.0
H778 H 0.75203 0.1568 0.72261 0.0
H779 H 0.79082 0.13895 0.75017 0.0
H780 H 0.79752 0.0969 0.84676 0.0
H781 H 0.80673 0.12905 0.80793 0.0
H782 H 0.61301 0.10835 0.80847 0.0
H783 H 0.62174 0.13408 0.76535 0.0
H784 H 0.63418 0.06034 0.84095 0.0
H785 H 0.67281 0.0482 0.87152 0.0
C786 C 0.18257 0.4305 0.06233 0.0
C787 C 0.19118 0.47139 0.06134 0.0
C788 C 0.15733 0.47854 0.99851 0.0
C789 C 0.15519 0.43653 0.9966 0.0
N790 N 0.16668 0.37183 0.02592 0.0
N791 N 0.18486 0.53551 0.02959 0.0
C792 C 0.16773 0.41234 0.02849 0.0
C793 C 0.17743 0.49597 0.03004 0.0
N794 N 0.18762 0.40936 0.09627 0.0
N795 N 0.1398 0.50166 0.97033 0.0
H796 H 0.19675 0.54987 0.05322 0.0
H797 H 0.18039 0.55399 1.00542 0.0
H798 H 0.12555 0.48969 0.94661 0.0
H799 H 0.13679 0.53251 0.97182 0.0
H800 H 0.17863 0.38046 0.10015 0.0
H801 H 0.19708 0.42231 0.12199 0.0
H802 H 0.17973 0.35247 0.04612 0.0
H803 H 0.15496 0.35731 1.00215 0.0
C804 C 0.81897 0.90937 0.30671 0.0
C805 C 0.80088 0.94768 0.30298 0.0
C806 C 0.81604 0.94875 0.23287 0.0
C807 C 0.83418 0.91053 0.23657 0.0
N808 N 0.84756 0.85123 0.27463 0.0
N809 N 0.77544 1.00044 0.26153 0.0
C810 C 0.83377 0.88974 0.27278 0.0
C811 C 0.79742 0.96629 0.2657 0.0
N812 N 0.82383 0.89274 0.34296 0.0
N813 N 0.81748 0.96878 0.19805 0.0
H814 H 0.76195 1.0145 0.28488 0.0
H815 H 0.76786 1.01315 0.23474 0.0
H816 H 0.82865 0.9561 0.17263 0.0
H817 H 0.80956 0.99872 0.19459 0.0
H818 H 0.84069 0.86723 0.34854 0.0
H819 H 0.81264 0.90577 0.36819 0.0
H820 H 0.84455 0.83284 0.29886 0.0
H821 H 0.85991 0.83659 0.2508 0.0
C822 C 0.37197 0.53012 0.51941 0.0
C823 C 0.36034 0.55408 0.55166 0.0
C824 C 0.38482 0.61317 0.51899 0.0
C825 C 0.39606 0.58947 0.48657 0.0
N826 N 0.40883 0.52448 0.45949 0.0
N827 N 0.3665 0.61515 0.58713 0.0
C828 C 0.39236 0.54757 0.48798 0.0
C829 C 0.3703 0.59461 0.55295 0.0
N830 N 0.36202 0.49129 0.51777 0.0
N831 N 0.38641 0.65368 0.51675 0.0
H832 H 0.35667 0.60217 0.61274 0.0
H833 H 0.37673 0.64351 0.59123 0.0
H834 H 0.39723 0.66853 0.49265 0.0
H835 H 0.37435 0.67279 0.5375 0.0
H836 H 0.36507 0.47381 0.49292 0.0
H837 H 0.34896 0.47684 0.54077 0.0
H838 H 0.41072 0.49354 0.46072 0.0
H839 H 0.42355 0.53644 0.43604 0.0
C840 C 0.21733 0.19334 0.41751 0.0
C841 C 0.22094 0.21208 0.4543 0.0
C842 C 0.29083 0.2084 0.44726 0.0
C843 C 0.28732 0.1848 0.4134 0.0
N844 N 0.24721 0.15199 0.36738 0.0
N845 N 0.26199 0.23116 0.50743 0.0
C846 C 0.25051 0.17679 0.39857 0.0
C847 C 0.25792 0.21831 0.46992 0.0
N848 N 0.18215 0.19169 0.40057 0.0
N849 N 0.32575 0.22166 0.45767 0.0
H850 H 0.23914 0.23742 0.52591 0.0
H851 H 0.28821 0.23187 0.52166 0.0
H852 H 0.35047 0.21485 0.44184 0.0
H853 H 0.32957 0.24251 0.47958 0.0
H854 H 0.17779 0.18202 0.37215 0.0
H855 H 0.15745 0.20323 0.41387 0.0
H856 H 0.22138 0.14127 0.35783 0.0
H857 H 0.27074 0.13987 0.35249 0.0
C858 C 0.06286 0.05045 0.66302 0.0
C859 C 0.10099 0.0449 0.65004 0.0
C860 C 0.0988 0.97369 0.66501 0.0
C861 C 0.06349 0.98067 0.68431 0.0
N862 N 1.01283 0.02641 0.7044 0.0
N863 N 0.15614 1.00175 0.63881 0.0
C864 C 0.04532 0.01909 0.6834 0.0
C865 C 0.11905 1.00649 0.65049 0.0
N866 N 0.04356 0.0858 0.65594 0.0
N867 N 0.11285 0.93554 0.66072 0.0
H868 H 0.17153 0.02493 0.62718 0.0
H869 H 0.17243 0.97553 0.64274 0.0
H870 H 0.09853 0.9111 0.67124 0.0
H871 H 0.13662 0.92783 0.64391 0.0
H872 H 1.01454 0.0904 0.66124 0.0
H873 H 0.05581 0.10944 0.64135 0.0
H874 H 1.00076 0.05479 0.70873 0.0
H875 H 0.99941 1.00438 0.72003 0.0
C876 C 0.23889 0.81176 0.94598 0.0
C877 C 0.24193 0.8341 0.91097 0.0
C878 C 0.31169 0.82335 0.9132 0.0
C879 C 0.30888 0.80657 0.9511 0.0
N880 N 0.26946 0.78888 1.00585 0.0
N881 N 0.28146 0.86387 0.86222 0.0
C882 C 0.27237 0.80136 0.96797 0.0
C883 C 0.27841 0.84023 0.89454 0.0
N884 N 0.20391 0.80018 0.95804 0.0
N885 N 0.34626 0.82285 0.89494 0.0
H886 H 0.2579 0.87656 0.84759 0.0
H887 H 0.30735 0.87329 0.85148 0.0
H888 H 0.37103 0.81074 0.90791 0.0
H889 H 0.34981 0.83095 0.86585 0.0
H890 H 0.2001 0.78038 0.98105 0.0
H891 H 0.17888 0.80736 0.94263 0.0
H892 H 0.24381 0.78916 1.02105 0.0
H893 H 0.2929 0.7812 0.02336 0.0
C894 C 0.44959 0.04137 0.18604 0.0
C895 C 0.48422 0.03449 0.20694 0.0
C896 C 0.48284 0.96319 0.19211 0.0
C897 C 0.44808 0.96998 0.17146 0.0
N898 N 0.40208 1.01586 0.1419 0.0
N899 N 0.53907 0.9914 0.2205 0.0
C900 C 0.43252 1.00925 0.16639 0.0
C901 C 0.50257 0.99618 0.20693 0.0
N902 N 0.43311 0.07882 0.18508 0.0
N903 N 0.49623 0.92507 0.1989 0.0
H904 H 0.55463 1.01507 0.23041 0.0
H905 H 0.55533 0.96502 0.2181 0.0
H906 H 0.48279 0.90018 0.18823 0.0
H907 H 0.51892 0.91784 0.21756 0.0
H908 H 0.40556 0.08538 0.17509 0.0
H909 H 0.44709 0.10356 0.19528 0.0
H910 H 0.39152 0.04401 0.13376 0.0
H911 H 0.38879 0.99302 0.12728 0.0
C912 C 0.78067 0.36003 0.6391 0.0
C913 C 0.81324 0.33423 0.64398 0.0
C914 C 0.77625 0.2773 0.62311 0.0
C915 C 0.74416 0.30352 0.61673 0.0
N916 N 0.71207 0.36634 0.63005 0.0
N917 N 0.83997 0.26756 0.65049 0.0
C918 C 0.74525 0.34381 0.62856 0.0
C919 C 0.81027 0.29251 0.63927 0.0
N920 N 0.78397 0.40022 0.64274 0.0
N921 N 0.77492 0.23847 0.61186 0.0
H922 H 0.86525 0.27792 0.66209 0.0
H923 H 0.83853 0.23672 0.65142 0.0
H924 H 0.75018 0.22596 0.60144 0.0
H925 H 0.79865 0.21901 0.61108 0.0
H926 H 0.76247 0.42093 0.63499 0.0
H927 H 0.80921 0.41317 0.65122 0.0
H928 H 0.71011 0.39488 0.64166 0.0
H929 H 0.68567 0.35478 0.62326 0.0
C930 C 1.00283 0.46795 0.86759 0.0
C931 C 0.97549 0.44909 0.84405 0.0
C932 C 0.92419 0.49131 0.87258 0.0
C933 C 0.95162 0.51253 0.89374 0.0
N934 N 1.0156 0.51635 0.91843 0.0
N935 N 0.91008 0.43249 0.83524 0.0
C936 C 0.99058 0.49922 0.89355 0.0
C937 C 0.93611 0.45756 0.85026 0.0
N938 N 0.04037 0.45658 0.86449 0.0
N939 N 0.88682 0.50437 0.87252 0.0
H940 H 0.91821 0.40694 0.81971 0.0
H941 H 0.88109 0.43446 0.84155 0.0
H942 H 0.87657 0.52812 0.88942 0.0
H943 H 0.8663 0.49335 0.85388 0.0
H944 H 0.06267 0.47189 0.87664 0.0
H945 H 0.04914 0.43076 0.85005 0.0
H946 H 0.04375 0.5064 0.92244 0.0
H947 H 1.00745 0.53955 0.93708 0.0
C948 C 0.81587 0.68016 0.13914 0.0
C949 C 0.80906 0.70982 0.11007 0.0
C950 C 0.74038 0.7078 0.12214 0.0
C951 C 0.7467 0.67424 0.14677 0.0
N952 N 0.79005 0.62665 0.17776 0.0
N953 N 0.76419 0.74616 0.06844 0.0
C954 C 0.78441 0.6601 0.15539 0.0
C955 C 0.77117 0.72249 0.10037 0.0
N956 N 0.85237 0.67139 0.1512 0.0
N957 N 0.70482 0.72562 0.1195 0.0
H958 H 0.78567 0.75547 0.05009 0.0
H959 H 0.73692 0.75289 0.05766 0.0
H960 H 0.68149 0.71557 0.13501 0.0
H961 H 0.69938 0.75259 0.10506 0.0
H962 H 0.85919 0.6527 0.1747 0.0
H963 H 0.87584 0.68543 0.13955 0.0
H964 H 0.81651 0.61216 0.18165 0.0
H965 H 0.76767 0.6119 0.19071 0.0
C966 C 0.55921 0.52328 0.40207 0.0
C967 C 0.59746 0.50856 0.39809 0.0
C968 C 0.60861 0.55929 0.348 0.0
C969 C 0.56904 0.56924 0.34729 0.0
N970 N 0.50661 0.56366 0.37461 0.0
N971 N 0.65893 0.51174 0.36711 0.0
C972 C 0.5444 0.55253 0.37512 0.0
C973 C 0.62247 0.52684 0.37147 0.0
N974 N 0.5373 0.50931 0.43168 0.0
N975 N 0.63277 0.58088 0.3258 0.0
H976 H 0.67044 0.48844 0.38412 0.0
H977 H 0.67717 0.52048 0.34504 0.0
H978 H 0.62317 0.60455 0.3081 0.0
H979 H 0.66234 0.5779 0.32748 0.0
H980 H 0.51026 0.52091 0.43846 0.0
H981 H 0.54738 0.48764 0.45143 0.0
H982 H 0.48583 0.54969 0.39072 0.0
H983 H 0.49597 0.58695 0.35707 0.0
C984 C 0.45584 0.28453 0.22563 0.0
C985 C 0.41998 0.28032 0.20718 0.0
C986 C 0.42366 0.20861 0.22194 0.0
C987 C 0.46182 0.21196 0.23465 0.0
N988 N 0.5159 0.25292 0.24576 0.0
N989 N 0.37118 0.23751 0.18393 0.0
C990 C 0.47832 0.24994 0.23602 0.0
C991 C 0.40406 0.24215 0.2046 0.0
N992 N 0.46803 0.32169 0.23396 0.0
N993 N 0.40594 0.17351 0.22705 0.0
H994 H 0.35607 0.26114 0.17054 0.0
H995 H 0.36052 0.20983 0.17736 0.0
H996 H 0.41946 0.14884 0.24034 0.0
H997 H 0.377 0.17011 0.22184 0.0
H998 H 0.49201 0.32675 0.25093 0.0
H999 H 0.45213 0.34761 0.22705 0.0
H1000 H 0.53064 0.27906 0.24275 0.0
H1001 H 0.53332 0.22863 0.25426 0.0
C1002 C 0.93874 0.29138 0.84708 0.0
C1003 C 0.95065 0.28903 0.80753 0.0
C1004 C 0.91789 0.22567 0.80134 0.0
C1005 C 0.91124 0.22535 0.84225 0.0
N1006 N 0.91885 0.25624 0.90503 0.0
N1007 N 0.95303 0.25285 0.74695 0.0
C1008 C 0.92237 0.25792 0.86533 0.0
C1009 C 0.94018 0.25611 0.78443 0.0
N1010 N 0.94229 0.32617 0.86701 0.0
N1011 N 0.90234 0.19719 0.77859 0.0
H1012 H 0.96828 0.27487 0.7332 0.0
H1013 H 0.95054 0.22736 0.73016 0.0
H1014 H 0.88632 0.17441 0.7901 0.0
H1015 H 0.90261 0.19793 0.74822 0.0
H1016 H 0.93064 0.33129 0.89453 0.0
H1017 H 0.95349 0.35148 0.85439 0.0
H1018 H 0.9306 0.27681 0.92375 0.0
H1019 H 0.90692 0.23247 0.91966 0.0
C1020 C 0.05416 0.70483 0.09277 0.0
C1021 C 0.05641 0.66384 0.10294 0.0
C1022 C 0.98768 0.65894 0.09048 0.0
C1023 C 0.98575 0.69954 0.07888 0.0
N1024 N 1.01783 0.75995 0.06336 0.0
N1025 N 0.02746 0.6001 0.10559 0.0
C1026 C 1.01927 0.72204 0.07812 0.0
C1027 C 1.02374 0.64034 0.09999 0.0
N1028 N 0.08499 0.72779 0.09887 0.0
N1029 N 0.95483 0.63852 0.09341 0.0
H1030 H 0.05334 0.58572 0.113 0.0
H1031 H 1.00581 0.58057 0.10005 0.0
H1032 H 0.9282 0.65083 0.08541 0.0
H1033 H 0.95348 0.61032 0.10585 0.0
H1034 H 0.08399 0.75869 0.09677 0.0
H1035 H 0.11125 0.71629 0.10889 0.0
H1036 H 0.04192 0.776 0.05733 0.0
H1037 H 0.99267 0.77474 0.05447 0.0
C1038 C 0.61093 0.80713 0.29818 0.0
C1039 C 0.63296 0.80293 0.33296 0.0
C1040 C 0.62285 0.73098 0.3334 0.0
C1041 C 0.60083 0.73532 0.29877 0.0
N1042 N 0.58305 0.77445 0.2424 0.0
N1043 N 0.66824 0.75989 0.37763 0.0
C1044 C 0.59804 0.77247 0.27919 0.0
C1045 C 0.64161 0.76444 0.34863 0.0
N1046 N 0.60044 0.8442 0.28451 0.0
N1047 N 0.6247 0.69516 0.35244 0.0
H1048 H 0.68273 0.78374 0.38909 0.0
H1049 H 0.6785 0.73229 0.38781 0.0
H1050 H 0.61273 0.66973 0.3411 0.0
H1051 H 0.63633 0.6911 0.38022 0.0
H1052 H 0.58092 0.84916 0.26191 0.0
H1053 H 0.6089 0.87031 0.2977 0.0
H1054 H 0.58293 0.79998 0.22506 0.0
H1055 H 0.57433 0.74919 0.22778 0.0
C1056 C 0.56444 0.34248 0.63012 0.0
C1057 C 0.57267 0.34143 0.58966 0.0
C1058 C 0.51472 0.38159 0.57536 0.0
C1059 C 0.50459 0.37949 0.61543 0.0
N1060 N 0.52384 0.36853 0.68217 0.0
N1061 N 0.56383 0.37031 0.52617 0.0
C1062 C 0.53103 0.36358 0.64329 0.0
C1063 C 0.55053 0.36479 0.56311 0.0
N1064 N 0.58769 0.32146 0.65547 0.0
N1065 N 0.48925 0.39751 0.54882 0.0
H1066 H 0.5905 0.3588 0.51761 0.0
H1067 H 0.55069 0.38928 0.50571 0.0
H1068 H 0.46308 0.41067 0.55683 0.0
H1069 H 0.4931 0.39599 0.51876 0.0
H1070 H 0.58129 0.31667 0.68471 0.0
H1071 H 0.61338 0.30775 0.64662 0.0
H1072 H 0.54311 0.36039 0.70417 0.0
H1073 H 0.49951 0.38388 0.69237 0.0
C1074 C 0.1301 0.74401 0.74024 0.0
C1075 C 0.139 0.74437 0.6999 0.0
C1076 C 0.10039 0.80571 0.69063 0.0
C1077 C 0.09176 0.80581 0.73111 0.0
N1078 N 0.10488 0.78075 0.79584 0.0
N1079 N 0.14217 0.78091 0.63943 0.0
C1080 C 0.10894 0.77683 0.75641 0.0
C1081 C 0.12738 0.77716 0.67607 0.0
N1082 N 0.14016 0.71149 0.76259 0.0
N1083 N 0.08088 0.83085 0.66553 0.0
H1084 H 0.16207 0.76039 0.62789 0.0
H1085 H 0.13765 0.80622 0.62214 0.0
H1086 H 0.06037 0.85199 0.67454 0.0
H1087 H 0.08282 0.82866 0.63529 0.0
H1088 H 0.13074 0.70741 0.79105 0.0
H1089 H 0.1561 0.68719 0.75183 0.0
H1090 H 0.11951 0.76276 0.81613 0.0
H1091 H 0.08962 0.80461 0.8083 0.0
C1092 C 0.52246 0.83919 0.99532 0.0
C1093 C 0.48801 0.84003 0.97325 0.0
C1094 C 0.52078 0.87354 0.9194 0.0
C1095 C 0.55462 0.87408 0.94219 0.0
N1096 N 0.58522 0.86562 1.0048 0.0
N1097 N 0.45231 0.86493 0.91764 0.0
C1098 C 0.55454 0.85966 0.98117 0.0
C1099 C 0.4866 0.85936 0.93625 0.0
N1100 N 0.52561 0.8165 0.02845 0.0
N1101 N 0.52164 0.88536 0.88121 0.0
H1102 H 0.42682 0.85542 0.92945 0.0
H1103 H 0.4485 0.88201 0.89242 0.0
H1104 H 0.54575 0.89696 0.86831 0.0
H1105 H 0.49939 0.88136 0.86164 0.0
H1106 H 0.55121 0.81107 0.04331 0.0
H1107 H 0.50353 0.79986 0.03919 0.0
H1108 H 0.58529 0.85973 0.03467 0.0
H1109 H 0.60941 0.8799 0.99526 0.0
C1110 C 0.97714 0.19734 0.48601 0.0
C1111 C 0.97605 0.1557 0.48128 0.0
C1112 C 0.04416 0.15075 0.49869 0.0
C1113 C 0.04674 0.19257 0.49348 0.0
N1114 N 1.01356 0.25565 0.47799 0.0
N1115 N 1.00196 0.09856 0.51615 0.0
C1116 C 1.01266 0.21595 0.48619 0.0
C1117 C 1.0078 0.13312 0.49654 0.0
N1118 N 0.94437 0.21855 0.49459 0.0
N1119 N 0.07641 0.12752 0.50442 0.0
H1120 H 0.97459 0.09086 0.52439 0.0
H1121 H 1.02364 0.08223 0.5305 0.0
H1122 H 0.10355 0.1391 0.50515 0.0
H1123 H 0.07631 0.09652 0.50473 0.0
H1124 H 0.94392 0.24853 0.50226 0.0
H1125 H 0.9186 0.20456 0.49875 0.0
H1126 H 0.98936 0.27237 0.46934 0.0
H1127 H 0.03844 0.27106 0.47527 0.0
loop_
_geom_bond_atom_site_label_1
_geom_bond_atom_site_label_2
_geom_bond_distance
_geom_bond_site_symmetry_2
_ccdc_geom_bond_type
Gd0 C3 2.818 . S
Gd0 O20 2.377 . S
Gd0 O22 2.448 . S
Gd0 O23 2.506 . S
Gd0 O24 2.435 . S
Gd0 O25 2.717 . S
Gd0 O27 2.395 . S
Gd0 O31 2.327 . S
Gd1 C12 2.818 . S
Gd1 O21 2.395 . S
Gd1 O25 2.327 . S
Gd1 O26 2.377 . S
Gd1 O28 2.448 . S
Gd1 O29 2.506 . S
Gd1 O30 2.435 . S
Gd1 O31 2.717 . S
C2 O20 1.240 . S
C2 O21 1.240 . S
C3 Gd0 2.818 . S
C3 C4 1.510 . S
C3 O22 1.249 . S
C3 O23 1.252 . S
C4 C3 1.510 . S
C4 C5 1.404 . S
C4 C6 1.352 . S
C5 C4 1.404 . S
C5 C9 1.389 . S
C5 H32 0.930 . S
C6 C4 1.352 . S
C6 C8 1.374 . S
C6 H33 0.931 . S
C7 C8 1.359 . S
C7 C9 1.364 . S
C8 C6 1.374 . S
C8 C7 1.359 . S
C8 H34 0.931 . S
C9 C5 1.389 . S
C9 C7 1.364 . S
C9 H35 0.931 . S
C10 O24 1.256 . S
C10 O25 1.257 . S
C11 O26 1.240 . S
C11 O27 1.240 . S
C12 Gd1 2.818 . S
C12 C13 1.510 . S
C12 O28 1.249 . S
C12 O29 1.252 . S
C13 C12 1.510 . S
C13 C14 1.404 . S
C13 C15 1.352 . S
C14 C13 1.404 . S
C14 C18 1.389 . S
C14 H36 0.930 . S
C15 C13 1.352 . S
C15 C17 1.374 . S
C15 H37 0.931 . S
C16 C17 1.359 . S
C16 C18 1.364 . S
C17 C15 1.374 . S
C17 C16 1.359 . S
C17 H38 0.931 . S
C18 C14 1.389 . S
C18 C16 1.364 . S
C18 H39 0.931 . S
C19 O30 1.256 . S
C19 O31 1.257 . S
O20 Gd0 2.377 . S
O20 C2 1.240 . S
O21 Gd1 2.395 . S
O21 C2 1.240 . S
O22 Gd0 2.448 . S
O22 C3 1.249 . S
O23 Gd0 2.506 . S
O23 C3 1.252 . S
O24 Gd0 2.435 . S
O24 C10 1.256 . S
O25 Gd0 2.717 . S
O25 Gd1 2.327 . S
O25 C10 1.257 . S
O26 Gd1 2.377 . S
O26 C11 1.240 . S
O27 Gd0 2.395 . S
O27 C11 1.240 . S
O28 Gd1 2.448 . S
O28 C12 1.249 . S
O29 Gd1 2.506 . S
O29 C12 1.252 . S
O30 Gd1 2.435 . S
O30 C19 1.256 . S
O31 Gd0 2.327 . S
O31 Gd1 2.717 . S
O31 C19 1.257 . S
H32 C5 0.930 . S
H33 C6 0.931 . S
H34 C8 0.931 . S
H35 C9 0.931 . S
H36 C14 0.930 . S
H37 C15 0.931 . S
H38 C17 0.931 . S
H39 C18 0.931 . S
Gd40 C43 2.818 . S
Gd40 O60 2.377 . S
Gd40 O62 2.448 . S
Gd40 O63 2.506 . S
Gd40 O64 2.435 1_655 S
Gd40 O65 2.717 1_655 S
Gd40 O67 2.395 . S
Gd40 O71 2.327 . S
Gd41 C52 2.818 . S
Gd41 O61 2.395 . S
Gd41 O65 2.327 . S
Gd41 O66 2.377 . S
Gd41 O68 2.448 . S
Gd41 O69 2.506 . S
Gd41 O70 2.435 1_455 S
Gd41 O71 2.717 1_455 S
C42 O60 1.240 1_455 S
C42 O61 1.240 . S
C43 Gd40 2.818 . S
C43 C44 1.510 . S
C43 O62 1.249 . S
C43 O63 1.252 . S
C44 C43 1.510 . S
C44 C45 1.404 . S
C44 C46 1.352 . S
C45 C44 1.404 . S
C45 C49 1.389 . S
C45 H72 0.930 . S
C46 C44 1.352 . S
C46 C48 1.374 . S
C46 H73 0.931 . S
C47 C48 1.359 . S
C47 C49 1.364 . S
C48 C46 1.374 . S
C48 C47 1.359 . S
C48 H74 0.931 . S
C49 C45 1.389 . S
C49 C47 1.364 . S
C49 H75 0.931 . S
C50 O64 1.256 . S
C50 O65 1.257 . S
C51 O66 1.240 1_655 S
C51 O67 1.240 . S
C52 Gd41 2.818 . S
C52 C53 1.510 . S
C52 O68 1.249 . S
C52 O69 1.252 . S
C53 C52 1.510 . S
C53 C54 1.404 . S
C53 C55 1.352 . S
C54 C53 1.404 . S
C54 C58 1.389 . S
C54 H76 0.930 . S
C55 C53 1.352 . S
C55 C57 1.374 . S
C55 H77 0.931 . S
C56 C57 1.359 . S
C56 C58 1.364 . S
C57 C55 1.374 . S
C57 C56 1.359 . S
C57 H78 0.931 . S
C58 C54 1.389 . S
C58 C56 1.364 . S
C58 H79 0.931 . S
C59 O70 1.256 . S
C59 O71 1.257 . S
O60 Gd40 2.377 . S
O60 C42 1.240 1_655 S
O61 Gd41 2.395 . S
O61 C42 1.240 . S
O62 Gd40 2.448 . S
O62 C43 1.249 . S
O63 Gd40 2.506 . S
O63 C43 1.252 . S
O64 Gd40 2.435 1_455 S
O64 C50 1.256 . S
O65 Gd40 2.717 1_455 S
O65 Gd41 2.327 . S
O65 C50 1.257 . S
O66 Gd41 2.377 . S
O66 C51 1.240 1_455 S
O67 Gd40 2.395 . S
O67 C51 1.240 . S
O68 Gd41 2.448 . S
O68 C52 1.249 . S
O69 Gd41 2.506 . S
O69 C52 1.252 . S
O70 Gd41 2.435 1_655 S
O70 C59 1.256 . S
O71 Gd40 2.327 . S
O71 Gd41 2.717 1_655 S
O71 C59 1.257 . S
H72 C45 0.930 . S
H73 C46 0.931 . S
H74 C48 0.931 . S
H75 C49 0.931 . S
H76 C54 0.930 . S
H77 C55 0.931 . S
H78 C57 0.931 . S
H79 C58 0.931 . S
Gd80 C83 2.818 . S
Gd80 O100 2.392 . S
Gd80 O102 2.448 . S
Gd80 O103 2.506 . S
Gd80 O104 2.435 1_554 S
Gd80 O105 2.717 1_554 S
Gd80 O107 2.395 . S
Gd80 O111 2.327 . S
Gd81 C92 2.818 . S
Gd81 O101 2.395 . S
Gd81 O105 2.327 . S
Gd81 O106 2.396 . S
Gd81 O108 2.448 . S
Gd81 O109 2.506 . S
Gd81 O110 2.435 1_556 S
Gd81 O111 2.717 1_556 S
C82 O100 1.227 1_556 S
C82 O101 1.240 . S
C83 Gd80 2.818 . S
C83 C84 1.510 . S
C83 O102 1.249 . S
C83 O103 1.252 . S
C84 C83 1.510 . S
C84 C85 1.404 . S
C84 C86 1.352 . S
C85 C84 1.404 . S
C85 C89 1.389 . S
C85 H112 0.930 . S
C86 C84 1.352 . S
C86 C88 1.374 . S
C86 H113 0.931 . S
C87 C88 1.359 . S
C87 C89 1.364 . S
C88 C86 1.374 . S
C88 C87 1.359 . S
C88 H114 0.931 . S
C89 C85 1.389 . S
C89 C87 1.364 . S
C89 H115 0.931 . S
C90 O104 1.256 . S
C90 O105 1.257 . S
C91 O106 1.223 1_554 S
C91 O107 1.240 . S
C92 Gd81 2.818 . S
C92 C93 1.510 . S
C92 O108 1.249 . S
C92 O109 1.252 . S
C93 C92 1.510 . S
C93 C94 1.404 . S
C93 C95 1.352 . S
C94 C93 1.404 . S
C94 C98 1.389 . S
C94 H116 0.930 . S
C95 C93 1.352 . S
C95 C97 1.374 . S
C95 H117 0.931 . S
C96 C97 1.359 . S
C96 C98 1.364 . S
C97 C95 1.374 . S
C97 C96 1.359 . S
C97 H118 0.931 . S
C98 C94 1.389 . S
C98 C96 1.364 . S
C98 H119 0.931 . S
C99 O110 1.256 . S
C99 O111 1.257 . S
O100 Gd80 2.392 . S
O100 C82 1.227 1_554 S
O101 Gd81 2.395 . S
O101 C82 1.240 . S
O102 Gd80 2.448 . S
O102 C83 1.249 . S
O103 Gd80 2.506 . S
O103 C83 1.252 . S
O104 Gd80 2.435 1_556 S
O104 C90 1.256 . S
O105 Gd80 2.717 1_556 S
O105 Gd81 2.327 . S
O105 C90 1.257 . S
O106 Gd81 2.396 . S
O106 C91 1.223 1_556 S
O107 Gd80 2.395 . S
O107 C91 1.240 . S
O108 Gd81 2.448 . S
O108 C92 1.249 . S
O109 Gd81 2.506 . S
O109 C92 1.252 . S
O110 Gd81 2.435 1_554 S
O110 C99 1.256 . S
O111 Gd80 2.327 . S
O111 Gd81 2.717 1_554 S
O111 C99 1.257 . S
H112 C85 0.930 . S
H113 C86 0.931 . S
H114 C88 0.931 . S
H115 C89 0.931 . S
H116 C94 0.930 . S
H117 C95 0.931 . S
H118 C97 0.931 . S
H119 C98 0.931 . S
Gd120 C123 2.818 . S
Gd120 O140 2.377 . S
Gd120 O142 2.448 . S
Gd120 O143 2.506 . S
Gd120 O144 2.435 . S
Gd120 O145 2.717 . S
Gd120 O147 2.395 . S
Gd120 O151 2.327 . S
Gd121 C132 2.818 . S
Gd121 O141 2.395 . S
Gd121 O145 2.327 . S
Gd121 O146 2.377 . S
Gd121 O148 2.448 . S
Gd121 O149 2.506 . S
Gd121 O150 2.435 . S
Gd121 O151 2.717 . S
C122 O140 1.240 . S
C122 O141 1.240 . S
C123 Gd120 2.818 . S
C123 C124 1.510 . S
C123 O142 1.249 . S
C123 O143 1.252 . S
C124 C123 1.510 . S
C124 C125 1.404 . S
C124 C126 1.352 . S
C125 C124 1.404 . S
C125 C129 1.389 . S
C125 H152 0.930 . S
C126 C124 1.352 . S
C126 C128 1.374 . S
C126 H153 0.931 . S
C127 C128 1.359 . S
C127 C129 1.364 . S
C128 C126 1.374 . S
C128 C127 1.359 . S
C128 H154 0.931 . S
C129 C125 1.389 . S
C129 C127 1.364 . S
C129 H155 0.931 . S
C130 O144 1.256 . S
C130 O145 1.257 . S
C131 O146 1.240 . S
C131 O147 1.240 . S
C132 Gd121 2.818 . S
C132 C133 1.510 . S
C132 O148 1.249 . S
C132 O149 1.252 . S
C133 C132 1.510 . S
C133 C134 1.404 . S
C133 C135 1.352 . S
C134 C133 1.404 . S
C134 C138 1.389 . S
C134 H156 0.930 . S
C135 C133 1.352 . S
C135 C137 1.374 . S
C135 H157 0.931 . S
C136 C137 1.359 . S
C136 C138 1.364 . S
C137 C135 1.374 . S
C137 C136 1.359 . S
C137 H158 0.931 . S
C138 C134 1.389 . S
C138 C136 1.364 . S
C138 H159 0.931 . S
C139 O150 1.256 . S
C139 O151 1.257 . S
O140 Gd120 2.377 . S
O140 C122 1.240 . S
O141 Gd121 2.395 . S
O141 C122 1.240 . S
O142 Gd120 2.448 . S
O142 C123 1.249 . S
O143 Gd120 2.506 . S
O143 C123 1.252 . S
O144 Gd120 2.435 . S
O144 C130 1.256 . S
O145 Gd120 2.717 . S
O145 Gd121 2.327 . S
O145 C130 1.257 . S
O146 Gd121 2.377 . S
O146 C131 1.240 . S
O147 Gd120 2.395 . S
O147 C131 1.240 . S
O148 Gd121 2.448 . S
O148 C132 1.249 . S
O149 Gd121 2.506 . S
O149 C132 1.252 . S
O150 Gd121 2.435 . S
O150 C139 1.256 . S
O151 Gd120 2.327 . S
O151 Gd121 2.717 . S
O151 C139 1.257 . S
H152 C125 0.930 . S
H153 C126 0.931 . S
H154 C128 0.931 . S
H155 C129 0.931 . S
H156 C134 0.930 . S
H157 C135 0.931 . S
H158 C137 0.931 . S
H159 C138 0.931 . S
Gd160 C163 2.818 . S
Gd160 O180 2.377 . S
Gd160 O182 2.448 . S
Gd160 O183 2.506 . S
Gd160 O184 2.435 . S
Gd160 O185 2.717 . S
Gd160 O187 2.395 . S
Gd160 O191 2.327 . S
Gd161 C172 2.818 . S
Gd161 O181 2.395 . S
Gd161 O185 2.327 . S
Gd161 O186 2.377 . S
Gd161 O188 2.448 . S
Gd161 O189 2.506 . S
Gd161 O190 2.435 . S
Gd161 O191 2.717 . S
C162 O180 1.240 . S
C162 O181 1.240 . S
C163 Gd160 2.818 . S
C163 C164 1.510 . S
C163 O182 1.249 . S
C163 O183 1.252 . S
C164 C163 1.510 . S
C164 C165 1.404 . S
C164 C166 1.352 . S
C165 C164 1.404 . S
C165 C169 1.389 . S
C165 H192 0.930 . S
C166 C164 1.352 . S
C166 C168 1.374 . S
C166 H193 0.931 . S
C167 C168 1.359 . S
C167 C169 1.364 . S
C168 C166 1.374 . S
C168 C167 1.359 . S
C168 H194 0.931 . S
C169 C165 1.389 . S
C169 C167 1.364 . S
C169 H195 0.931 . S
C170 O184 1.256 . S
C170 O185 1.257 . S
C171 O186 1.240 . S
C171 O187 1.240 . S
C172 Gd161 2.818 . S
C172 C173 1.510 . S
C172 O188 1.249 . S
C172 O189 1.252 . S
C173 C172 1.510 . S
C173 C174 1.404 . S
C173 C175 1.352 . S
C174 C173 1.404 . S
C174 C178 1.389 . S
C174 H196 0.930 . S
C175 C173 1.352 . S
C175 C177 1.374 . S
C175 H197 0.931 . S
C176 C177 1.359 . S
C176 C178 1.364 . S
C177 C175 1.374 . S
C177 C176 1.359 . S
C177 H198 0.931 . S
C178 C174 1.389 . S
C178 C176 1.364 . S
C178 H199 0.931 . S
C179 O190 1.256 . S
C179 O191 1.257 . S
O180 Gd160 2.377 . S
O180 C162 1.240 . S
O181 Gd161 2.395 . S
O181 C162 1.240 . S
O182 Gd160 2.448 . S
O182 C163 1.249 . S
O183 Gd160 2.506 . S
O183 C163 1.252 . S
O184 Gd160 2.435 . S
O184 C170 1.256 . S
O185 Gd160 2.717 . S
O185 Gd161 2.327 . S
O185 C170 1.257 . S
O186 Gd161 2.377 . S
O186 C171 1.240 . S
O187 Gd160 2.395 . S
O187 C171 1.240 . S
O188 Gd161 2.448 . S
O188 C172 1.249 . S
O189 Gd161 2.506 . S
O189 C172 1.252 . S
O190 Gd161 2.435 . S
O190 C179 1.256 . S
O191 Gd160 2.327 . S
O191 Gd161 2.717 . S
O191 C179 1.257 . S
H192 C165 0.930 . S
H193 C166 0.931 . S
H194 C168 0.931 . S
H195 C169 0.931 . S
H196 C174 0.930 . S
H197 C175 0.931 . S
H198 C177 0.931 . S
H199 C178 0.931 . S
Gd200 C203 2.818 . S
Gd200 O220 2.377 . S
Gd200 O222 2.448 . S
Gd200 O223 2.506 . S
Gd200 O224 2.435 . S
Gd200 O225 2.717 . S
Gd200 O227 2.395 1_655 S
Gd200 O231 2.327 1_655 S
Gd201 C212 2.818 . S
Gd201 O221 2.395 1_455 S
Gd201 O225 2.327 1_455 S
Gd201 O226 2.377 . S
Gd201 O228 2.448 . S
Gd201 O229 2.506 . S
Gd201 O230 2.435 . S
Gd201 O231 2.717 . S
C202 O220 1.240 . S
C202 O221 1.240 . S
C203 Gd200 2.818 . S
C203 C204 1.510 . S
C203 O222 1.249 . S
C203 O223 1.252 . S
C204 C203 1.510 . S
C204 C205 1.404 . S
C204 C206 1.352 . S
C205 C204 1.404 . S
C205 C209 1.389 . S
C205 H232 0.930 . S
C206 C204 1.352 . S
C206 C208 1.374 . S
C206 H233 0.931 . S
C207 C208 1.359 . S
C207 C209 1.364 . S
C208 C206 1.374 . S
C208 C207 1.359 . S
C208 H234 0.931 . S
C209 C205 1.389 . S
C209 C207 1.364 . S
C209 H235 0.931 . S
C210 O224 1.256 . S
C210 O225 1.257 . S
C211 O226 1.240 . S
C211 O227 1.240 . S
C212 Gd201 2.818 . S
C212 C213 1.510 . S
C212 O228 1.249 . S
C212 O229 1.252 . S
C213 C212 1.510 . S
C213 C214 1.404 . S
C213 C215 1.352 . S
C214 C213 1.404 . S
C214 C218 1.389 . S
C214 H236 0.930 . S
C215 C213 1.352 . S
C215 C217 1.374 . S
C215 H237 0.931 . S
C216 C217 1.359 . S
C216 C218 1.364 . S
C217 C215 1.374 . S
C217 C216 1.359 . S
C217 H238 0.931 . S
C218 C214 1.389 . S
C218 C216 1.364 . S
C218 H239 0.931 . S
C219 O230 1.256 . S
C219 O231 1.257 . S
O220 Gd200 2.377 . S
O220 C202 1.240 . S
O221 Gd201 2.395 1_655 S
O221 C202 1.240 . S
O222 Gd200 2.448 . S
O222 C203 1.249 . S
O223 Gd200 2.506 . S
O223 C203 1.252 . S
O224 Gd200 2.435 . S
O224 C210 1.256 . S
O225 Gd200 2.717 . S
O225 Gd201 2.327 1_655 S
O225 C210 1.257 . S
O226 Gd201 2.377 . S
O226 C211 1.240 . S
O227 Gd200 2.395 1_455 S
O227 C211 1.240 . S
O228 Gd201 2.448 . S
O228 C212 1.249 . S
O229 Gd201 2.506 . S
O229 C212 1.252 . S
O230 Gd201 2.435 . S
O230 C219 1.256 . S
O231 Gd200 2.327 1_455 S
O231 Gd201 2.717 . S
O231 C219 1.257 . S
H232 C205 0.930 . S
H233 C206 0.931 . S
H234 C208 0.931 . S
H235 C209 0.931 . S
H236 C214 0.930 . S
H237 C215 0.931 . S
H238 C217 0.931 . S
H239 C218 0.931 . S
Gd240 C243 2.818 . S
Gd240 O260 2.377 . S
Gd240 O262 2.448 . S
Gd240 O263 2.506 . S
Gd240 O264 2.435 . S
Gd240 O265 2.717 . S
Gd240 O267 2.395 1_554 S
Gd240 O271 2.327 1_554 S
Gd241 C252 2.818 . S
Gd241 O261 2.395 1_556 S
Gd241 O265 2.327 1_556 S
Gd241 O266 2.377 . S
Gd241 O268 2.448 . S
Gd241 O269 2.506 . S
Gd241 O270 2.435 . S
Gd241 O271 2.717 . S
C242 O260 1.240 . S
C242 O261 1.240 . S
C243 Gd240 2.818 . S
C243 C244 1.510 . S
C243 O262 1.249 . S
C243 O263 1.252 . S
C244 C243 1.510 . S
C244 C245 1.404 . S
C244 C246 1.352 . S
C245 C244 1.404 . S
C245 C249 1.389 . S
C245 H272 0.930 . S
C246 C244 1.352 . S
C246 C248 1.374 . S
C246 H273 0.931 . S
C247 C248 1.359 . S
C247 C249 1.364 . S
C248 C246 1.374 . S
C248 C247 1.359 . S
C248 H274 0.931 . S
C249 C245 1.389 . S
C249 C247 1.364 . S
C249 H275 0.931 . S
C250 O264 1.256 . S
C250 O265 1.257 . S
C251 O266 1.240 . S
C251 O267 1.240 . S
C252 Gd241 2.818 . S
C252 C253 1.510 . S
C252 O268 1.249 . S
C252 O269 1.252 . S
C253 C252 1.510 . S
C253 C254 1.404 . S
C253 C255 1.352 . S
C254 C253 1.404 . S
C254 C258 1.389 . S
C254 H276 0.930 . S
C255 C253 1.352 . S
C255 C257 1.374 . S
C255 H277 0.931 . S
C256 C257 1.359 . S
C256 C258 1.364 . S
C257 C255 1.374 . S
C257 C256 1.359 . S
C257 H278 0.931 . S
C258 C254 1.389 . S
C258 C256 1.364 . S
C258 H279 0.931 . S
C259 O270 1.256 . S
C259 O271 1.257 . S
O260 Gd240 2.377 . S
O260 C242 1.240 . S
O261 Gd241 2.395 1_554 S
O261 C242 1.240 . S
O262 Gd240 2.448 . S
O262 C243 1.249 . S
O263 Gd240 2.506 . S
O263 C243 1.252 . S
O264 Gd240 2.435 . S
O264 C250 1.256 . S
O265 Gd240 2.717 . S
O265 Gd241 2.327 1_554 S
O265 C250 1.257 . S
O266 Gd241 2.377 . S
O266 C251 1.240 . S
O267 Gd240 2.395 1_556 S
O267 C251 1.240 . S
O268 Gd241 2.448 . S
O268 C252 1.249 . S
O269 Gd241 2.506 . S
O269 C252 1.252 . S
O270 Gd241 2.435 . S
O270 C259 1.256 . S
O271 Gd240 2.327 1_556 S
O271 Gd241 2.717 . S
O271 C259 1.257 . S
H272 C245 0.930 . S
H273 C246 0.931 . S
H274 C248 0.931 . S
H275 C249 0.931 . S
H276 C254 0.930 . S
H277 C255 0.931 . S
H278 C257 0.931 . S
H279 C258 0.931 . S
Gd280 C283 2.818 . S
Gd280 O300 2.377 . S
Gd280 O302 2.448 . S
Gd280 O303 2.506 . S
Gd280 O304 2.435 . S
Gd280 O305 2.717 . S
Gd280 O307 2.395 . S
Gd280 O311 2.327 . S
Gd281 C292 2.818 . S
Gd281 O301 2.395 . S
Gd281 O305 2.327 . S
Gd281 O306 2.377 . S
Gd281 O308 2.448 . S
Gd281 O309 2.506 . S
Gd281 O310 2.435 . S
Gd281 O311 2.717 . S
C282 O300 1.240 . S
C282 O301 1.240 . S
C283 Gd280 2.818 . S
C283 C284 1.510 . S
C283 O302 1.249 . S
C283 O303 1.252 . S
C284 C283 1.510 . S
C284 C285 1.404 . S
C284 C286 1.352 . S
C285 C284 1.404 . S
C285 C289 1.389 . S
C285 H312 0.930 . S
C286 C284 1.352 . S
C286 C288 1.374 . S
C286 H313 0.931 . S
C287 C288 1.359 . S
C287 C289 1.364 . S
C288 C286 1.374 . S
C288 C287 1.359 . S
C288 H314 0.931 . S
C289 C285 1.389 . S
C289 C287 1.364 . S
C289 H315 0.931 . S
C290 O304 1.256 . S
C290 O305 1.257 . S
C291 O306 1.240 . S
C291 O307 1.240 . S
C292 Gd281 2.818 . S
C292 C293 1.510 . S
C292 O308 1.249 . S
C292 O309 1.252 . S
C293 C292 1.510 . S
C293 C294 1.404 . S
C293 C295 1.352 . S
C294 C293 1.404 . S
C294 C298 1.389 . S
C294 H316 0.930 . S
C295 C293 1.352 . S
C295 C297 1.374 . S
C295 H317 0.931 . S
C296 C297 1.359 . S
C296 C298 1.364 . S
C297 C295 1.374 . S
C297 C296 1.359 . S
C297 H318 0.931 . S
C298 C294 1.389 . S
C298 C296 1.364 . S
C298 H319 0.931 . S
C299 O310 1.256 . S
C299 O311 1.257 . S
O300 Gd280 2.377 . S
O300 C282 1.240 . S
O301 Gd281 2.395 . S
O301 C282 1.240 . S
O302 Gd280 2.448 . S
O302 C283 1.249 . S
O303 Gd280 2.506 . S
O303 C283 1.252 . S
O304 Gd280 2.435 . S
O304 C290 1.256 . S
O305 Gd280 2.717 . S
O305 Gd281 2.327 . S
O305 C290 1.257 . S
O306 Gd281 2.377 . S
O306 C291 1.240 . S
O307 Gd280 2.395 . S
O307 C291 1.240 . S
O308 Gd281 2.448 . S
O308 C292 1.249 . S
O309 Gd281 2.506 . S
O309 C292 1.252 . S
O310 Gd281 2.435 . S
O310 C299 1.256 . S
O311 Gd280 2.327 . S
O311 Gd281 2.717 . S
O311 C299 1.257 . S
H312 C285 0.930 . S
H313 C286 0.931 . S
H314 C288 0.931 . S
H315 C289 0.931 . S
H316 C294 0.930 . S
H317 C295 0.931 . S
H318 C297 0.931 . S
H319 C298 0.931 . S
Gd320 C323 2.818 . S
Gd320 O340 2.377 . S
Gd320 O342 2.448 . S
Gd320 O343 2.506 . S
Gd320 O344 2.435 . S
Gd320 O345 2.717 . S
Gd320 O347 2.395 . S
Gd320 O351 2.327 . S
Gd321 C332 2.818 . S
Gd321 O341 2.395 . S
Gd321 O345 2.327 . S
Gd321 O346 2.377 . S
Gd321 O348 2.448 . S
Gd321 O349 2.506 . S
Gd321 O350 2.435 . S
Gd321 O351 2.717 . S
C322 O340 1.240 . S
C322 O341 1.240 . S
C323 Gd320 2.818 . S
C323 C324 1.510 . S
C323 O342 1.249 . S
C323 O343 1.252 . S
C324 C323 1.510 . S
C324 C325 1.404 . S
C324 C326 1.352 . S
C325 C324 1.404 . S
C325 C329 1.389 . S
C325 H352 0.930 . S
C326 C324 1.352 . S
C326 C328 1.374 . S
C326 H353 0.931 . S
C327 C328 1.359 . S
C327 C329 1.364 . S
C328 C326 1.374 . S
C328 C327 1.359 . S
C328 H354 0.931 . S
C329 C325 1.389 . S
C329 C327 1.364 . S
C329 H355 0.931 . S
C330 O344 1.256 . S
C330 O345 1.257 . S
C331 O346 1.240 . S
C331 O347 1.240 . S
C332 Gd321 2.818 . S
C332 C333 1.510 . S
C332 O348 1.249 . S
C332 O349 1.252 . S
C333 C332 1.510 . S
C333 C334 1.404 . S
C333 C335 1.352 . S
C334 C333 1.404 . S
C334 C338 1.389 . S
C334 H356 0.930 . S
C335 C333 1.352 . S
C335 C337 1.374 . S
C335 H357 0.931 . S
C336 C337 1.359 . S
C336 C338 1.364 . S
C337 C335 1.374 . S
C337 C336 1.359 . S
C337 H358 0.931 . S
C338 C334 1.389 . S
C338 C336 1.364 . S
C338 H359 0.931 . S
C339 O350 1.256 . S
C339 O351 1.257 . S
O340 Gd320 2.377 . S
O340 C322 1.240 . S
O341 Gd321 2.395 . S
O341 C322 1.240 . S
O342 Gd320 2.448 . S
O342 C323 1.249 . S
O343 Gd320 2.506 . S
O343 C323 1.252 . S
O344 Gd320 2.435 . S
O344 C330 1.256 . S
O345 Gd320 2.717 . S
O345 Gd321 2.327 . S
O345 C330 1.257 . S
O346 Gd321 2.377 . S
O346 C331 1.240 . S
O347 Gd320 2.395 . S
O347 C331 1.240 . S
O348 Gd321 2.448 . S
O348 C332 1.249 . S
O349 Gd321 2.506 . S
O349 C332 1.252 . S
O350 Gd321 2.435 . S
O350 C339 1.256 . S
O351 Gd320 2.327 . S
O351 Gd321 2.717 . S
O351 C339 1.257 . S
H352 C325 0.930 . S
H353 C326 0.931 . S
H354 C328 0.931 . S
H355 C329 0.931 . S
H356 C334 0.930 . S
H357 C335 0.931 . S
H358 C337 0.931 . S
H359 C338 0.931 . S
Gd360 C363 2.818 . S
Gd360 O380 2.368 1_565 S
Gd360 O382 2.448 . S
Gd360 O383 2.506 . S
Gd360 O384 2.435 1_565 S
Gd360 O385 2.717 1_565 S
Gd360 O387 2.395 . S
Gd360 O391 2.327 . S
Gd361 C372 2.818 . S
Gd361 O381 2.395 . S
Gd361 O385 2.327 . S
Gd361 O386 2.372 1_545 S
Gd361 O388 2.448 . S
Gd361 O389 2.506 . S
Gd361 O390 2.435 1_545 S
Gd361 O391 2.717 1_545 S
C362 O380 1.249 . S
C362 O381 1.240 . S
C363 Gd360 2.818 . S
C363 C364 1.510 . S
C363 O382 1.249 . S
C363 O383 1.252 . S
C364 C363 1.510 . S
C364 C365 1.404 . S
C364 C366 1.352 . S
C365 C364 1.404 . S
C365 C369 1.389 . S
C365 H392 0.930 . S
C366 C364 1.352 . S
C366 C368 1.374 . S
C366 H393 0.931 . S
C367 C368 1.359 . S
C367 C369 1.364 . S
C368 C366 1.374 . S
C368 C367 1.359 . S
C368 H394 0.931 . S
C369 C365 1.389 . S
C369 C367 1.364 . S
C369 H395 0.931 . S
C370 O384 1.256 . S
C370 O385 1.257 . S
C371 O386 1.245 . S
C371 O387 1.240 . S
C372 Gd361 2.818 . S
C372 C373 1.510 . S
C372 O388 1.249 . S
C372 O389 1.252 . S
C373 C372 1.510 . S
C373 C374 1.404 . S
C373 C375 1.352 . S
C374 C373 1.404 . S
C374 C378 1.389 . S
C374 H396 0.930 . S
C375 C373 1.352 . S
C375 C377 1.374 . S
C375 H397 0.931 . S
C376 C377 1.359 . S
C376 C378 1.364 . S
C377 C375 1.374 . S
C377 C376 1.359 . S
C377 H398 0.931 . S
C378 C374 1.389 . S
C378 C376 1.364 . S
C378 H399 0.931 . S
C379 O390 1.256 . S
C379 O391 1.257 . S
O380 Gd360 2.368 1_545 S
O380 C362 1.249 . S
O381 Gd361 2.395 . S
O381 C362 1.240 . S
O382 Gd360 2.448 . S
O382 C363 1.249 . S
O383 Gd360 2.506 . S
O383 C363 1.252 . S
O384 Gd360 2.435 1_545 S
O384 C370 1.256 . S
O385 Gd360 2.717 1_545 S
O385 Gd361 2.327 . S
O385 C370 1.257 . S
O386 Gd361 2.372 1_565 S
O386 C371 1.245 . S
O387 Gd360 2.395 . S
O387 C371 1.240 . S
O388 Gd361 2.448 . S
O388 C372 1.249 . S
O389 Gd361 2.506 . S
O389 C372 1.252 . S
O390 Gd361 2.435 1_565 S
O390 C379 1.256 . S
O391 Gd360 2.327 . S
O391 Gd361 2.717 1_565 S
O391 C379 1.257 . S
H392 C365 0.930 . S
H393 C366 0.931 . S
H394 C368 0.931 . S
H395 C369 0.931 . S
H396 C374 0.930 . S
H397 C375 0.931 . S
H398 C377 0.931 . S
H399 C378 0.931 . S
Gd400 C403 2.818 . S
Gd400 O420 2.377 . S
Gd400 O422 2.448 . S
Gd400 O423 2.506 . S
Gd400 O424 2.435 . S
Gd400 O425 2.717 . S
Gd400 O427 2.395 1_565 S
Gd400 O431 2.327 1_565 S
Gd401 C412 2.818 . S
Gd401 O421 2.395 1_545 S
Gd401 O425 2.327 1_545 S
Gd401 O426 2.377 . S
Gd401 O428 2.448 . S
Gd401 O429 2.506 . S
Gd401 O430 2.435 . S
Gd401 O431 2.717 . S
C402 O420 1.240 . S
C402 O421 1.240 . S
C403 Gd400 2.818 . S
C403 C404 1.510 . S
C403 O422 1.249 . S
C403 O423 1.252 . S
C404 C403 1.510 . S
C404 C405 1.404 . S
C404 C406 1.352 . S
C405 C404 1.404 . S
C405 C409 1.389 . S
C405 H432 0.930 . S
C406 C404 1.352 . S
C406 C408 1.374 . S
C406 H433 0.931 . S
C407 C408 1.359 . S
C407 C409 1.364 . S
C408 C406 1.374 . S
C408 C407 1.359 . S
C408 H434 0.931 . S
C409 C405 1.389 . S
C409 C407 1.364 . S
C409 H435 0.931 . S
C410 O424 1.256 . S
C410 O425 1.257 . S
C411 O426 1.240 . S
C411 O427 1.240 . S
C412 Gd401 2.818 . S
C412 C413 1.510 . S
C412 O428 1.249 . S
C412 O429 1.252 . S
C413 C412 1.510 . S
C413 C414 1.404 . S
C413 C415 1.352 . S
C414 C413 1.404 . S
C414 C418 1.389 . S
C414 H436 0.930 . S
C415 C413 1.352 . S
C415 C417 1.374 . S
C415 H437 0.931 . S
C416 C417 1.359 . S
C416 C418 1.364 . S
C417 C415 1.374 . S
C417 C416 1.359 . S
C417 H438 0.931 . S
C418 C414 1.389 . S
C418 C416 1.364 . S
C418 H439 0.931 . S
C419 O430 1.256 . S
C419 O431 1.257 . S
O420 Gd400 2.377 . S
O420 C402 1.240 . S
O421 Gd401 2.395 1_565 S
O421 C402 1.240 . S
O422 Gd400 2.448 . S
O422 C403 1.249 . S
O423 Gd400 2.506 . S
O423 C403 1.252 . S
O424 Gd400 2.435 . S
O424 C410 1.256 . S
O425 Gd400 2.717 . S
O425 Gd401 2.327 1_565 S
O425 C410 1.257 . S
O426 Gd401 2.377 . S
O426 C411 1.240 . S
O427 Gd400 2.395 1_545 S
O427 C411 1.240 . S
O428 Gd401 2.448 . S
O428 C412 1.249 . S
O429 Gd401 2.506 . S
O429 C412 1.252 . S
O430 Gd401 2.435 . S
O430 C419 1.256 . S
O431 Gd400 2.327 1_545 S
O431 Gd401 2.717 . S
O431 C419 1.257 . S
H432 C405 0.930 . S
H433 C406 0.931 . S
H434 C408 0.931 . S
H435 C409 0.931 . S
H436 C414 0.930 . S
H437 C415 0.931 . S
H438 C417 0.931 . S
H439 C418 0.931 . S
Gd440 C443 2.818 . S
Gd440 O460 2.377 . S
Gd440 O462 2.448 . S
Gd440 O463 2.506 . S
Gd440 O464 2.435 . S
Gd440 O465 2.717 . S
Gd440 O467 2.395 . S
Gd440 O471 2.327 . S
Gd441 C452 2.818 . S
Gd441 O461 2.395 . S
Gd441 O465 2.327 . S
Gd441 O466 2.377 . S
Gd441 O468 2.448 . S
Gd441 O469 2.506 . S
Gd441 O470 2.435 . S
Gd441 O471 2.717 . S
C442 O460 1.240 . S
C442 O461 1.240 . S
C443 Gd440 2.818 . S
C443 C444 1.510 . S
C443 O462 1.249 . S
C443 O463 1.252 . S
C444 C443 1.510 . S
C444 C445 1.404 . S
C444 C446 1.352 . S
C445 C444 1.404 . S
C445 C449 1.389 . S
C445 H472 0.930 . S
C446 C444 1.352 . S
C446 C448 1.374 . S
C446 H473 0.931 . S
C447 C448 1.359 . S
C447 C449 1.364 . S
C448 C446 1.374 . S
C448 C447 1.359 . S
C448 H474 0.931 . S
C449 C445 1.389 . S
C449 C447 1.364 . S
C449 H475 0.931 . S
C450 O464 1.256 . S
C450 O465 1.257 . S
C451 O466 1.240 . S
C451 O467 1.240 . S
C452 Gd441 2.818 . S
C452 C453 1.510 . S
C452 O468 1.249 . S
C452 O469 1.252 . S
C453 C452 1.510 . S
C453 C454 1.404 . S
C453 C455 1.352 . S
C454 C453 1.404 . S
C454 C458 1.389 . S
C454 H476 0.930 . S
C455 C453 1.352 . S
C455 C457 1.374 . S
C455 H477 0.931 . S
C456 C457 1.359 . S
C456 C458 1.364 . S
C457 C455 1.374 . S
C457 C456 1.359 . S
C457 H478 0.931 . S
C458 C454 1.389 . S
C458 C456 1.364 . S
C458 H479 0.931 . S
C459 O470 1.256 . S
C459 O471 1.257 . S
O460 Gd440 2.377 . S
O460 C442 1.240 . S
O461 Gd441 2.395 . S
O461 C442 1.240 . S
O462 Gd440 2.448 . S
O462 C443 1.249 . S
O463 Gd440 2.506 . S
O463 C443 1.252 . S
O464 Gd440 2.435 . S
O464 C450 1.256 . S
O465 Gd440 2.717 . S
O465 Gd441 2.327 . S
O465 C450 1.257 . S
O466 Gd441 2.377 . S
O466 C451 1.240 . S
O467 Gd440 2.395 . S
O467 C451 1.240 . S
O468 Gd441 2.448 . S
O468 C452 1.249 . S
O469 Gd441 2.506 . S
O469 C452 1.252 . S
O470 Gd441 2.435 . S
O470 C459 1.256 . S
O471 Gd440 2.327 . S
O471 Gd441 2.717 . S
O471 C459 1.257 . S
H472 C445 0.930 . S
H473 C446 0.931 . S
H474 C448 0.931 . S
H475 C449 0.931 . S
H476 C454 0.930 . S
H477 C455 0.931 . S
H478 C457 0.931 . S
H479 C458 0.931 . S
C480 C481 1.363 . S
C480 C486 1.379 . S
C480 N488 1.356 . S
C481 C480 1.363 . S
C481 C487 1.363 . S
C482 C483 1.363 . S
C482 C487 1.379 . S
C482 N489 1.356 . S
C483 C482 1.363 . S
C483 C486 1.363 . S
N484 C486 1.356 . S
N484 H496 0.984 . S
N484 H497 0.985 . S
N485 C487 1.356 . S
N485 H490 0.984 . S
N485 H491 0.985 . S
C486 C480 1.379 . S
C486 C483 1.363 . S
C486 N484 1.356 . S
C487 C481 1.363 . S
C487 C482 1.379 . S
C487 N485 1.356 . S
N488 C480 1.356 . S
N488 H494 0.984 . S
N488 H495 0.984 . S
N489 C482 1.356 . S
N489 H492 0.984 . S
N489 H493 0.985 . S
H490 N485 0.984 . S
H491 N485 0.985 . S
H492 N489 0.984 . S
H493 N489 0.985 . S
H494 N488 0.984 . S
H495 N488 0.984 . S
H496 N484 0.984 . S
H497 N484 0.985 . S
C498 C499 1.363 . S
C498 C504 1.379 . S
C498 N506 1.356 . S
C499 C498 1.363 . S
C499 C505 1.363 . S
C500 C501 1.363 . S
C500 C505 1.379 . S
C500 N507 1.356 . S
C501 C500 1.363 . S
C501 C504 1.363 . S
N502 C504 1.356 . S
N502 H514 0.984 . S
N502 H515 0.985 . S
N503 C505 1.356 . S
N503 H508 0.984 . S
N503 H509 0.985 . S
C504 C498 1.379 . S
C504 C501 1.363 . S
C504 N502 1.356 . S
C505 C499 1.363 . S
C505 C500 1.379 . S
C505 N503 1.356 . S
N506 C498 1.356 . S
N506 H512 0.984 . S
N506 H513 0.984 . S
N507 C500 1.356 . S
N507 H510 0.984 . S
N507 H511 0.985 . S
H508 N503 0.984 . S
H509 N503 0.985 . S
H510 N507 0.984 . S
H511 N507 0.985 . S
H512 N506 0.984 . S
H513 N506 0.984 . S
H514 N502 0.984 . S
H515 N502 0.985 . S
C516 C517 1.363 . S
C516 C522 1.379 . S
C516 N524 1.356 . S
C517 C516 1.363 . S
C517 C523 1.363 . S
C518 C519 1.363 . S
C518 C523 1.379 . S
C518 N525 1.356 . S
C519 C518 1.363 . S
C519 C522 1.363 . S
N520 C522 1.356 . S
N520 H532 0.984 . S
N520 H533 0.985 . S
N521 C523 1.356 1_556 S
N521 H526 0.984 . S
N521 H527 0.985 . S
C522 C516 1.379 . S
C522 C519 1.363 . S
C522 N520 1.356 . S
C523 C517 1.363 . S
C523 C518 1.379 . S
C523 N521 1.356 1_554 S
N524 C516 1.356 . S
N524 H530 0.984 . S
N524 H531 0.984 . S
N525 C518 1.356 . S
N525 H528 0.984 . S
N525 H529 0.985 1_554 S
H526 N521 0.984 . S
H527 N521 0.985 . S
H528 N525 0.984 . S
H529 N525 0.985 1_556 S
H530 N524 0.984 . S
H531 N524 0.984 . S
H532 N520 0.984 . S
H533 N520 0.985 . S
C534 C535 1.363 . S
C534 C540 1.379 . S
C534 N542 1.351 1_545 S
C535 C534 1.363 . S
C535 C541 1.363 . S
C536 C537 1.363 . S
C536 C541 1.379 . S
C536 N543 1.356 . S
C537 C536 1.363 . S
C537 C540 1.363 . S
N538 C540 1.356 1_565 S
N538 H550 0.984 . S
N538 H551 0.985 . S
N539 C541 1.356 . S
N539 H544 0.984 . S
N539 H545 0.985 . S
C540 C534 1.379 . S
C540 C537 1.363 . S
C540 N538 1.356 1_545 S
C541 C535 1.363 . S
C541 C536 1.379 . S
C541 N539 1.356 . S
N542 C534 1.351 1_565 S
N542 H548 0.994 . S
N542 H549 0.981 1_565 S
N543 C536 1.356 . S
N543 H546 0.984 . S
N543 H547 0.985 . S
H544 N539 0.984 . S
H545 N539 0.985 . S
H546 N543 0.984 . S
H547 N543 0.985 . S
H548 N542 0.994 . S
H549 N542 0.981 1_545 S
H550 N538 0.984 . S
H551 N538 0.985 . S
C552 C553 1.363 . S
C552 C558 1.379 . S
C552 N560 1.356 . S
C553 C552 1.363 . S
C553 C559 1.363 . S
C554 C555 1.363 . S
C554 C559 1.379 . S
C554 N561 1.356 . S
C555 C554 1.363 . S
C555 C558 1.363 . S
N556 C558 1.356 . S
N556 H568 0.984 . S
N556 H569 0.985 . S
N557 C559 1.356 . S
N557 H562 0.984 . S
N557 H563 0.985 . S
C558 C552 1.379 . S
C558 C555 1.363 . S
C558 N556 1.356 . S
C559 C553 1.363 . S
C559 C554 1.379 . S
C559 N557 1.356 . S
N560 C552 1.356 . S
N560 H566 0.984 . S
N560 H567 0.984 . S
N561 C554 1.356 . S
N561 H564 0.984 . S
N561 H565 0.985 . S
H562 N557 0.984 . S
H563 N557 0.985 . S
H564 N561 0.984 . S
H565 N561 0.985 . S
H566 N560 0.984 . S
H567 N560 0.984 . S
H568 N556 0.984 . S
H569 N556 0.985 . S
C570 C571 1.363 . S
C570 C576 1.379 . S
C570 N578 1.356 . S
C571 C570 1.363 . S
C571 C577 1.363 . S
C572 C573 1.363 . S
C572 C577 1.379 . S
C572 N579 1.356 . S
C573 C572 1.363 . S
C573 C576 1.363 . S
N574 C576 1.356 . S
N574 H586 0.984 . S
N574 H587 0.985 . S
N575 C577 1.356 . S
N575 H580 0.984 . S
N575 H581 0.985 . S
C576 C570 1.379 . S
C576 C573 1.363 . S
C576 N574 1.356 . S
C577 C571 1.363 . S
C577 C572 1.379 . S
C577 N575 1.356 . S
N578 C570 1.356 . S
N578 H584 0.984 . S
N578 H585 0.984 . S
N579 C572 1.356 . S
N579 H582 0.984 . S
N579 H583 0.985 . S
H580 N575 0.984 . S
H581 N575 0.985 . S
H582 N579 0.984 . S
H583 N579 0.985 . S
H584 N578 0.984 . S
H585 N578 0.984 . S
H586 N574 0.984 . S
H587 N574 0.985 . S
C588 C589 1.363 . S
C588 C594 1.379 . S
C588 N596 1.356 . S
C589 C588 1.363 . S
C589 C595 1.363 . S
C590 C591 1.363 . S
C590 C595 1.379 . S
C590 N597 1.356 1_556 S
C591 C590 1.363 . S
C591 C594 1.363 . S
N592 C594 1.356 . S
N592 H604 0.984 . S
N592 H605 0.985 . S
N593 C595 1.359 . S
N593 H598 0.986 . S
N593 H599 0.980 1_556 S
C594 C588 1.379 . S
C594 C591 1.363 . S
C594 N592 1.356 . S
C595 C589 1.363 . S
C595 C590 1.379 . S
C595 N593 1.359 . S
N596 C588 1.356 . S
N596 H602 0.984 . S
N596 H603 0.984 . S
N597 C590 1.356 1_554 S
N597 H600 0.984 . S
N597 H601 0.985 . S
H598 N593 0.986 . S
H599 N593 0.980 1_554 S
H600 N597 0.984 . S
H601 N597 0.985 . S
H602 N596 0.984 . S
H603 N596 0.984 . S
H604 N592 0.984 . S
H605 N592 0.985 . S
C606 C607 1.363 . S
C606 C612 1.379 . S
C606 N614 1.356 . S
C607 C606 1.363 . S
C607 C613 1.363 . S
C608 C609 1.363 . S
C608 C613 1.379 . S
C608 N615 1.356 . S
C609 C608 1.363 . S
C609 C612 1.363 . S
N610 C612 1.356 . S
N610 H622 0.984 . S
N610 H623 0.985 . S
N611 C613 1.356 . S
N611 H616 0.984 . S
N611 H617 0.985 . S
C612 C606 1.379 . S
C612 C609 1.363 . S
C612 N610 1.356 . S
C613 C607 1.363 . S
C613 C608 1.379 . S
C613 N611 1.356 . S
N614 C606 1.356 . S
N614 H620 0.984 . S
N614 H621 0.984 . S
N615 C608 1.356 . S
N615 H618 0.984 . S
N615 H619 0.985 . S
H616 N611 0.984 . S
H617 N611 0.985 . S
H618 N615 0.984 . S
H619 N615 0.985 . S
H620 N614 0.984 . S
H621 N614 0.984 . S
H622 N610 0.984 . S
H623 N610 0.985 . S
C624 C625 1.363 . S
C624 C630 1.379 . S
C624 N632 1.356 . S
C625 C624 1.363 . S
C625 C631 1.363 . S
C626 C627 1.363 . S
C626 C631 1.379 . S
C626 N633 1.356 . S
C627 C626 1.363 . S
C627 C630 1.363 . S
N628 C630 1.356 . S
N628 H640 0.984 . S
N628 H641 0.985 . S
N629 C631 1.356 . S
N629 H634 0.984 . S
N629 H635 0.985 . S
C630 C624 1.379 . S
C630 C627 1.363 . S
C630 N628 1.356 . S
C631 C625 1.363 . S
C631 C626 1.379 . S
C631 N629 1.356 . S
N632 C624 1.356 . S
N632 H638 0.984 . S
N632 H639 0.984 . S
N633 C626 1.356 . S
N633 H636 0.984 . S
N633 H637 0.985 . S
H634 N629 0.984 . S
H635 N629 0.985 . S
H636 N633 0.984 . S
H637 N633 0.985 . S
H638 N632 0.984 . S
H639 N632 0.984 . S
H640 N628 0.984 . S
H641 N628 0.985 . S
C642 C643 1.363 . S
C642 C648 1.379 . S
C642 N650 1.356 . S
C643 C642 1.363 . S
C643 C649 1.363 . S
C644 C645 1.363 . S
C644 C649 1.379 . S
C644 N651 1.356 . S
C645 C644 1.363 . S
C645 C648 1.363 . S
N646 C648 1.356 . S
N646 H658 0.984 1_455 S
N646 H659 0.985 . S
N647 C649 1.356 . S
N647 H652 0.984 . S
N647 H653 0.985 . S
C648 C642 1.379 . S
C648 C645 1.363 . S
C648 N646 1.356 . S
C649 C643 1.363 . S
C649 C644 1.379 . S
C649 N647 1.356 . S
N650 C642 1.356 . S
N650 H656 0.984 1_455 S
N650 H657 0.984 . S
N651 C644 1.356 . S
N651 H654 0.984 . S
N651 H655 0.985 . S
H652 N647 0.984 . S
H653 N647 0.985 . S
H654 N651 0.984 . S
H655 N651 0.985 . S
H656 N650 0.984 1_655 S
H657 N650 0.984 . S
H658 N646 0.984 1_655 S
H659 N646 0.985 . S
C660 C661 1.363 . S
C660 C666 1.379 . S
C660 N668 1.356 . S
C661 C660 1.363 . S
C661 C667 1.363 . S
C662 C663 1.363 . S
C662 C667 1.379 . S
C662 N669 1.356 . S
C663 C662 1.363 . S
C663 C666 1.363 . S
N664 C666 1.356 . S
N664 H676 0.984 . S
N664 H677 0.985 . S
N665 C667 1.356 1_455 S
N665 H670 0.984 . S
N665 H671 0.985 . S
C666 C660 1.379 . S
C666 C663 1.363 . S
C666 N664 1.356 . S
C667 C661 1.363 . S
C667 C662 1.379 . S
C667 N665 1.356 1_655 S
N668 C660 1.356 . S
N668 H674 0.984 . S
N668 H675 0.984 . S
N669 C662 1.356 . S
N669 H672 0.984 . S
N669 H673 0.985 . S
H670 N665 0.984 . S
H671 N665 0.985 . S
H672 N669 0.984 . S
H673 N669 0.985 . S
H674 N668 0.984 . S
H675 N668 0.984 . S
H676 N664 0.984 . S
H677 N664 0.985 . S
C678 C679 1.363 . S
C678 C684 1.379 . S
C678 N686 1.356 . S
C679 C678 1.363 . S
C679 C685 1.363 . S
C680 C681 1.363 . S
C680 C685 1.379 . S
C680 N687 1.356 . S
C681 C680 1.363 . S
C681 C684 1.363 . S
N682 C684 1.356 . S
N682 H694 0.984 . S
N682 H695 0.985 . S
N683 C685 1.356 . S
N683 H688 0.984 . S
N683 H689 0.985 . S
C684 C678 1.379 . S
C684 C681 1.363 . S
C684 N682 1.356 . S
C685 C679 1.363 . S
C685 C680 1.379 . S
C685 N683 1.356 . S
N686 C678 1.356 . S
N686 H692 0.984 . S
N686 H693 0.984 . S
N687 C680 1.356 . S
N687 H690 0.984 . S
N687 H691 0.985 . S
H688 N683 0.984 . S
H689 N683 0.985 . S
H690 N687 0.984 . S
H691 N687 0.985 . S
H692 N686 0.984 . S
H693 N686 0.984 . S
H694 N682 0.984 . S
H695 N682 0.985 . S
C696 C697 1.363 . S
C696 C702 1.379 . S
C696 N704 1.356 . S
C697 C696 1.363 . S
C697 C703 1.363 . S
C698 C699 1.363 . S
C698 C703 1.379 . S
C698 N705 1.356 . S
C699 C698 1.363 . S
C699 C702 1.363 . S
N700 C702 1.356 . S
N700 H712 0.984 . S
N700 H713 0.985 . S
N701 C703 1.356 . S
N701 H706 0.984 . S
N701 H707 0.985 . S
C702 C696 1.379 . S
C702 C699 1.363 . S
C702 N700 1.356 . S
C703 C697 1.363 . S
C703 C698 1.379 . S
C703 N701 1.356 . S
N704 C696 1.356 . S
N704 H710 0.984 . S
N704 H711 0.984 . S
N705 C698 1.356 . S
N705 H708 0.984 . S
N705 H709 0.985 . S
H706 N701 0.984 . S
H707 N701 0.985 . S
H708 N705 0.984 . S
H709 N705 0.985 . S
H710 N704 0.984 . S
H711 N704 0.984 . S
H712 N700 0.984 . S
H713 N700 0.985 . S
C714 C715 1.363 . S
C714 C720 1.379 . S
C714 N722 1.356 . S
C715 C714 1.363 . S
C715 C721 1.363 . S
C716 C717 1.363 . S
C716 C721 1.379 . S
C716 N723 1.356 . S
C717 C716 1.363 . S
C717 C720 1.363 . S
N718 C720 1.356 . S
N718 H730 0.984 . S
N718 H731 0.985 . S
N719 C721 1.356 . S
N719 H724 0.984 . S
N719 H725 0.985 . S
C720 C714 1.379 . S
C720 C717 1.363 . S
C720 N718 1.356 . S
C721 C715 1.363 . S
C721 C716 1.379 . S
C721 N719 1.356 . S
N722 C714 1.356 . S
N722 H728 0.984 . S
N722 H729 0.984 . S
N723 C716 1.356 . S
N723 H726 0.984 . S
N723 H727 0.985 1_565 S
H724 N719 0.984 . S
H725 N719 0.985 . S
H726 N723 0.984 . S
H727 N723 0.985 1_545 S
H728 N722 0.984 . S
H729 N722 0.984 . S
H730 N718 0.984 . S
H731 N718 0.985 . S
C732 C733 1.363 . S
C732 C738 1.379 . S
C732 N740 1.356 . S
C733 C732 1.363 . S
C733 C739 1.363 . S
C734 C735 1.363 . S
C734 C739 1.379 . S
C734 N741 1.356 . S
C735 C734 1.363 . S
C735 C738 1.363 . S
N736 C738 1.356 . S
N736 H748 0.984 . S
N736 H749 0.985 . S
N737 C739 1.356 . S
N737 H742 0.984 . S
N737 H743 0.985 . S
C738 C732 1.379 . S
C738 C735 1.363 . S
C738 N736 1.356 . S
C739 C733 1.363 . S
C739 C734 1.379 . S
C739 N737 1.356 . S
N740 C732 1.356 . S
N740 H746 0.984 . S
N740 H747 0.984 . S
N741 C734 1.356 . S
N741 H744 0.984 . S
N741 H745 0.985 . S
H742 N737 0.984 . S
H743 N737 0.985 . S
H744 N741 0.984 . S
H745 N741 0.985 . S
H746 N740 0.984 . S
H747 N740 0.984 . S
H748 N736 0.984 . S
H749 N736 0.985 . S
C750 C751 1.363 . S
C750 C756 1.379 1_554 S
C750 N758 1.356 . S
C751 C750 1.363 . S
C751 C757 1.363 . S
C752 C753 1.363 . S
C752 C757 1.379 1_556 S
C752 N759 1.356 . S
C753 C752 1.363 . S
C753 C756 1.363 . S
N754 C756 1.341 1_565 S
N754 H766 0.996 . S
N754 H767 0.989 . S
N755 C757 1.356 . S
N755 H760 0.984 . S
N755 H761 0.985 . S
C756 C750 1.379 1_556 S
C756 C753 1.363 . S
C756 N754 1.341 1_545 S
C757 C751 1.363 . S
C757 C752 1.379 1_554 S
C757 N755 1.356 . S
N758 C750 1.356 . S
N758 H764 0.984 . S
N758 H765 0.984 . S
N759 C752 1.356 . S
N759 H762 0.984 . S
N759 H763 0.985 . S
H760 N755 0.984 . S
H761 N755 0.985 . S
H762 N759 0.984 . S
H763 N759 0.985 . S
H764 N758 0.984 . S
H765 N758 0.984 . S
H766 N754 0.996 . S
H767 N754 0.989 . S
C768 C769 1.363 . S
C768 C774 1.379 . S
C768 N776 1.356 . S
C769 C768 1.363 . S
C769 C775 1.363 . S
C770 C771 1.363 . S
C770 C775 1.379 . S
C770 N777 1.356 . S
C771 C770 1.363 . S
C771 C774 1.363 . S
N772 C774 1.356 . S
N772 H784 0.984 . S
N772 H785 0.985 . S
N773 C775 1.356 . S
N773 H778 0.984 . S
N773 H779 0.985 . S
C774 C768 1.379 . S
C774 C771 1.363 . S
C774 N772 1.356 . S
C775 C769 1.363 . S
C775 C770 1.379 . S
C775 N773 1.356 . S
N776 C768 1.356 . S
N776 H782 0.984 . S
N776 H783 0.984 . S
N777 C770 1.356 . S
N777 H780 0.984 . S
N777 H781 0.985 . S
H778 N773 0.984 . S
H779 N773 0.985 . S
H780 N777 0.984 . S
H781 N777 0.985 . S
H782 N776 0.984 . S
H783 N776 0.984 . S
H784 N772 0.984 . S
H785 N772 0.985 . S
C786 C787 1.363 1_556 S
C786 C792 1.379 . S
C786 N794 1.356 1_556 S
C787 C786 1.363 1_554 S
C787 C793 1.363 1_554 S
C788 C789 1.363 . S
C788 C793 1.379 . S
C788 N795 1.356 . S
C789 C788 1.363 . S
C789 C792 1.363 . S
N790 C792 1.356 . S
N790 H802 0.984 . S
N790 H803 0.985 . S
N791 C793 1.369 . S
N791 H796 0.960 1_556 S
N791 H797 0.996 . S
C792 C786 1.379 . S
C792 C789 1.363 . S
C792 N790 1.356 . S
C793 C787 1.363 1_556 S
C793 C788 1.379 . S
C793 N791 1.369 . S
N794 C786 1.356 1_554 S
N794 H800 0.984 . S
N794 H801 0.984 . S
N795 C788 1.356 . S
N795 H798 0.984 . S
N795 H799 0.985 . S
H796 N791 0.960 1_554 S
H797 N791 0.996 . S
H798 N795 0.984 . S
H799 N795 0.985 . S
H800 N794 0.984 . S
H801 N794 0.984 . S
H802 N790 0.984 . S
H803 N790 0.985 . S
C804 C805 1.363 . S
C804 C810 1.379 . S
C804 N812 1.356 . S
C805 C804 1.363 . S
C805 C811 1.363 . S
C806 C807 1.363 . S
C806 C811 1.379 . S
C806 N813 1.356 . S
C807 C806 1.363 . S
C807 C810 1.363 . S
N808 C810 1.356 . S
N808 H820 0.984 . S
N808 H821 0.985 . S
N809 C811 1.356 . S
N809 H814 0.984 . S
N809 H815 0.985 . S
C810 C804 1.379 . S
C810 C807 1.363 . S
C810 N808 1.356 . S
C811 C805 1.363 . S
C811 C806 1.379 . S
C811 N809 1.356 . S
N812 C804 1.356 . S
N812 H818 0.984 . S
N812 H819 0.984 . S
N813 C806 1.356 . S
N813 H816 0.984 . S
N813 H817 0.985 . S
H814 N809 0.984 . S
H815 N809 0.985 . S
H816 N813 0.984 . S
H817 N813 0.985 . S
H818 N812 0.984 . S
H819 N812 0.984 . S
H820 N808 0.984 . S
H821 N808 0.985 . S
C822 C823 1.363 . S
C822 C828 1.379 . S
C822 N830 1.356 . S
C823 C822 1.363 . S
C823 C829 1.363 . S
C824 C825 1.363 . S
C824 C829 1.379 . S
C824 N831 1.356 . S
C825 C824 1.363 . S
C825 C828 1.363 . S
N826 C828 1.356 . S
N826 H838 0.984 . S
N826 H839 0.985 . S
N827 C829 1.356 . S
N827 H832 0.984 . S
N827 H833 0.985 . S
C828 C822 1.379 . S
C828 C825 1.363 . S
C828 N826 1.356 . S
C829 C823 1.363 . S
C829 C824 1.379 . S
C829 N827 1.356 . S
N830 C822 1.356 . S
N830 H836 0.984 . S
N830 H837 0.984 . S
N831 C824 1.356 . S
N831 H834 0.984 . S
N831 H835 0.985 . S
H832 N827 0.984 . S
H833 N827 0.985 . S
H834 N831 0.984 . S
H835 N831 0.985 . S
H836 N830 0.984 . S
H837 N830 0.984 . S
H838 N826 0.984 . S
H839 N826 0.985 . S
C840 C841 1.363 . S
C840 C846 1.379 . S
C840 N848 1.356 . S
C841 C840 1.363 . S
C841 C847 1.363 . S
C842 C843 1.363 . S
C842 C847 1.379 . S
C842 N849 1.356 . S
C843 C842 1.363 . S
C843 C846 1.363 . S
N844 C846 1.356 . S
N844 H856 0.984 . S
N844 H857 0.985 . S
N845 C847 1.356 . S
N845 H850 0.984 . S
N845 H851 0.985 . S
C846 C840 1.379 . S
C846 C843 1.363 . S
C846 N844 1.356 . S
C847 C841 1.363 . S
C847 C842 1.379 . S
C847 N845 1.356 . S
N848 C840 1.356 . S
N848 H854 0.984 . S
N848 H855 0.984 . S
N849 C842 1.356 . S
N849 H852 0.984 . S
N849 H853 0.985 . S
H850 N845 0.984 . S
H851 N845 0.985 . S
H852 N849 0.984 . S
H853 N849 0.985 . S
H854 N848 0.984 . S
H855 N848 0.984 . S
H856 N844 0.984 . S
H857 N844 0.985 . S
C858 C859 1.363 . S
C858 C864 1.379 1_545 S
C858 N866 1.356 . S
C859 C858 1.363 . S
C859 C865 1.363 . S
C860 C861 1.363 . S
C860 C865 1.379 1_565 S
C860 N867 1.356 . S
C861 C860 1.363 . S
C861 C864 1.363 . S
N862 C864 1.356 1_655 S
N862 H874 0.984 . S
N862 H875 0.985 . S
N863 C865 1.356 . S
N863 H868 0.984 . S
N863 H869 0.985 . S
C864 C858 1.379 1_565 S
C864 C861 1.363 . S
C864 N862 1.356 1_455 S
C865 C859 1.363 . S
C865 C860 1.379 1_545 S
C865 N863 1.356 . S
N866 C858 1.356 . S
N866 H872 0.984 1_455 S
N866 H873 0.984 . S
N867 C860 1.356 . S
N867 H870 0.984 . S
N867 H871 0.985 . S
H868 N863 0.984 . S
H869 N863 0.985 . S
H870 N867 0.984 . S
H871 N867 0.985 . S
H872 N866 0.984 1_655 S
H873 N866 0.984 . S
H874 N862 0.984 . S
H875 N862 0.985 . S
C876 C877 1.363 . S
C876 C882 1.379 . S
C876 N884 1.356 1_556 S
C877 C876 1.363 . S
C877 C883 1.363 . S
C878 C879 1.363 . S
C878 C883 1.379 . S
C878 N885 1.356 . S
C879 C878 1.363 . S
C879 C882 1.363 . S
N880 C882 1.356 1_554 S
N880 H892 0.984 . S
N880 H893 0.985 1_554 S
N881 C883 1.356 . S
N881 H886 0.984 . S
N881 H887 0.985 . S
C882 C876 1.379 . S
C882 C879 1.363 . S
C882 N880 1.356 1_556 S
C883 C877 1.363 . S
C883 C878 1.379 . S
C883 N881 1.356 . S
N884 C876 1.356 1_554 S
N884 H890 0.984 . S
N884 H891 0.984 . S
N885 C878 1.356 . S
N885 H888 0.984 . S
N885 H889 0.985 . S
H886 N881 0.984 . S
H887 N881 0.985 . S
H888 N885 0.984 . S
H889 N885 0.985 . S
H890 N884 0.984 . S
H891 N884 0.984 . S
H892 N880 0.984 . S
H893 N880 0.985 1_556 S
C894 C895 1.363 . S
C894 C900 1.379 1_545 S
C894 N902 1.356 . S
C895 C894 1.363 . S
C895 C901 1.363 1_545 S
C896 C897 1.363 . S
C896 C901 1.379 . S
C896 N903 1.356 . S
C897 C896 1.363 . S
C897 C900 1.363 . S
N898 C900 1.356 . S
N898 H910 0.984 1_565 S
N898 H911 0.985 . S
N899 C901 1.356 1_545 S
N899 H904 0.984 . S
N899 H905 0.985 1_545 S
C900 C894 1.379 1_565 S
C900 C897 1.363 . S
C900 N898 1.356 . S
C901 C895 1.363 1_565 S
C901 C896 1.379 . S
C901 N899 1.356 1_565 S
N902 C894 1.356 . S
N902 H908 0.984 . S
N902 H909 0.984 . S
N903 C896 1.356 . S
N903 H906 0.984 . S
N903 H907 0.985 . S
H904 N899 0.984 . S
H905 N899 0.985 1_565 S
H906 N903 0.984 . S
H907 N903 0.985 . S
H908 N902 0.984 . S
H909 N902 0.984 . S
H910 N898 0.984 1_545 S
H911 N898 0.985 . S
C912 C913 1.363 . S
C912 C918 1.379 . S
C912 N920 1.356 . S
C913 C912 1.363 . S
C913 C919 1.363 . S
C914 C915 1.363 . S
C914 C919 1.379 . S
C914 N921 1.356 . S
C915 C914 1.363 . S
C915 C918 1.363 . S
N916 C918 1.356 . S
N916 H928 0.984 . S
N916 H929 0.985 . S
N917 C919 1.356 . S
N917 H922 0.984 . S
N917 H923 0.985 . S
C918 C912 1.379 . S
C918 C915 1.363 . S
C918 N916 1.356 . S
C919 C913 1.363 . S
C919 C914 1.379 . S
C919 N917 1.356 . S
N920 C912 1.356 . S
N920 H926 0.984 . S
N920 H927 0.984 . S
N921 C914 1.356 . S
N921 H924 0.984 . S
N921 H925 0.985 . S
H922 N917 0.984 . S
H923 N917 0.985 . S
H924 N921 0.984 . S
H925 N921 0.985 . S
H926 N920 0.984 . S
H927 N920 0.984 . S
H928 N916 0.984 . S
H929 N916 0.985 . S
C930 C931 1.363 . S
C930 C936 1.379 . S
C930 N938 1.356 . S
C931 C930 1.363 . S
C931 C937 1.363 . S
C932 C933 1.363 . S
C932 C937 1.379 . S
C932 N939 1.356 . S
C933 C932 1.363 . S
C933 C936 1.363 . S
N934 C936 1.356 . S
N934 H946 0.984 . S
N934 H947 0.985 . S
N935 C937 1.356 . S
N935 H940 0.984 . S
N935 H941 0.985 . S
C936 C930 1.379 . S
C936 C933 1.363 . S
C936 N934 1.356 . S
C937 C931 1.363 . S
C937 C932 1.379 . S
C937 N935 1.356 . S
N938 C930 1.356 . S
N938 H944 0.984 . S
N938 H945 0.984 . S
N939 C932 1.356 . S
N939 H942 0.984 . S
N939 H943 0.985 . S
H940 N935 0.984 . S
H941 N935 0.985 . S
H942 N939 0.984 . S
H943 N939 0.985 . S
H944 N938 0.984 . S
H945 N938 0.984 . S
H946 N934 0.984 . S
H947 N934 0.985 . S
C948 C949 1.363 . S
C948 C954 1.379 . S
C948 N956 1.356 . S
C949 C948 1.363 . S
C949 C955 1.363 . S
C950 C951 1.363 . S
C950 C955 1.379 . S
C950 N957 1.356 . S
C951 C950 1.363 . S
C951 C954 1.363 . S
N952 C954 1.356 . S
N952 H964 0.984 . S
N952 H965 0.985 . S
N953 C955 1.356 . S
N953 H958 0.984 . S
N953 H959 0.985 1_554 S
C954 C948 1.379 . S
C954 C951 1.363 . S
C954 N952 1.356 . S
C955 C949 1.363 . S
C955 C950 1.379 . S
C955 N953 1.356 . S
N956 C948 1.356 . S
N956 H962 0.984 . S
N956 H963 0.984 . S
N957 C950 1.356 . S
N957 H960 0.984 . S
N957 H961 0.985 . S
H958 N953 0.984 . S
H959 N953 0.985 1_556 S
H960 N957 0.984 . S
H961 N957 0.985 . S
H962 N956 0.984 . S
H963 N956 0.984 . S
H964 N952 0.984 . S
H965 N952 0.985 . S
C966 C967 1.363 . S
C966 C972 1.379 . S
C966 N974 1.356 . S
C967 C966 1.363 . S
C967 C973 1.363 . S
C968 C969 1.363 . S
C968 C973 1.379 . S
C968 N975 1.356 . S
C969 C968 1.363 . S
C969 C972 1.363 . S
N970 C972 1.356 . S
N970 H982 0.984 . S
N970 H983 0.985 . S
N971 C973 1.356 . S
N971 H976 0.984 . S
N971 H977 0.985 . S
C972 C966 1.379 . S
C972 C969 1.363 . S
C972 N970 1.356 . S
C973 C967 1.363 . S
C973 C968 1.379 . S
C973 N971 1.356 . S
N974 C966 1.356 . S
N974 H980 0.984 . S
N974 H981 0.984 . S
N975 C968 1.356 . S
N975 H978 0.984 . S
N975 H979 0.985 . S
H976 N971 0.984 . S
H977 N971 0.985 . S
H978 N975 0.984 . S
H979 N975 0.985 . S
H980 N974 0.984 . S
H981 N974 0.984 . S
H982 N970 0.984 . S
H983 N970 0.985 . S
C984 C985 1.363 . S
C984 C990 1.379 . S
C984 N992 1.356 . S
C985 C984 1.363 . S
C985 C991 1.363 . S
C986 C987 1.363 . S
C986 C991 1.379 . S
C986 N993 1.356 . S
C987 C986 1.363 . S
C987 C990 1.363 . S
N988 C990 1.356 . S
N988 H1000 0.984 . S
N988 H1001 0.985 . S
N989 C991 1.356 . S
N989 H994 0.984 . S
N989 H995 0.985 . S
C990 C984 1.379 . S
C990 C987 1.363 . S
C990 N988 1.356 . S
C991 C985 1.363 . S
C991 C986 1.379 . S
C991 N989 1.356 . S
N992 C984 1.356 . S
N992 H998 0.984 . S
N992 H999 0.984 . S
N993 C986 1.356 . S
N993 H996 0.984 . S
N993 H997 0.985 . S
H994 N989 0.984 . S
H995 N989 0.985 . S
H996 N993 0.984 . S
H997 N993 0.985 . S
H998 N992 0.984 . S
H999 N992 0.984 . S
H1000 N988 0.984 . S
H1001 N988 0.985 . S
C1002 C1003 1.363 . S
C1002 C1008 1.379 . S
C1002 N1010 1.356 . S
C1003 C1002 1.363 . S
C1003 C1009 1.363 . S
C1004 C1005 1.363 . S
C1004 C1009 1.379 . S
C1004 N1011 1.356 . S
C1005 C1004 1.363 . S
C1005 C1008 1.363 . S
N1006 C1008 1.356 . S
N1006 H1018 0.984 1_655 S
N1006 H1019 0.985 . S
N1007 C1009 1.356 . S
N1007 H1012 0.984 . S
N1007 H1013 0.985 . S
C1008 C1002 1.379 . S
C1008 C1005 1.363 . S
C1008 N1006 1.356 . S
C1009 C1003 1.363 . S
C1009 C1004 1.379 . S
C1009 N1007 1.356 . S
N1010 C1002 1.356 . S
N1010 H1016 0.984 . S
N1010 H1017 0.984 . S
N1011 C1004 1.356 . S
N1011 H1014 0.984 . S
N1011 H1015 0.985 . S
H1012 N1007 0.984 . S
H1013 N1007 0.985 . S
H1014 N1011 0.984 . S
H1015 N1011 0.985 . S
H1016 N1010 0.984 . S
H1017 N1010 0.984 . S
H1018 N1006 0.984 1_455 S
H1019 N1006 0.985 . S
C1020 C1021 1.363 . S
C1020 C1026 1.379 1_455 S
C1020 N1028 1.356 . S
C1021 C1020 1.363 . S
C1021 C1027 1.363 . S
C1022 C1023 1.363 . S
C1022 C1027 1.379 1_655 S
C1022 N1029 1.356 . S
C1023 C1022 1.363 . S
C1023 C1026 1.363 . S
N1024 C1026 1.356 . S
N1024 H1036 0.984 . S
N1024 H1037 0.985 . S
N1025 C1027 1.356 . S
N1025 H1030 0.984 . S
N1025 H1031 0.985 . S
C1026 C1020 1.379 1_655 S
C1026 C1023 1.363 . S
C1026 N1024 1.356 . S
C1027 C1021 1.363 . S
C1027 C1022 1.379 1_455 S
C1027 N1025 1.356 . S
N1028 C1020 1.356 . S
N1028 H1034 0.984 . S
N1028 H1035 0.984 . S
N1029 C1022 1.356 . S
N1029 H1032 0.984 . S
N1029 H1033 0.985 . S
H1030 N1025 0.984 . S
H1031 N1025 0.985 . S
H1032 N1029 0.984 . S
H1033 N1029 0.985 . S
H1034 N1028 0.984 . S
H1035 N1028 0.984 . S
H1036 N1024 0.984 . S
H1037 N1024 0.985 . S
C1038 C1039 1.363 . S
C1038 C1044 1.379 . S
C1038 N1046 1.356 . S
C1039 C1038 1.363 . S
C1039 C1045 1.363 . S
C1040 C1041 1.363 . S
C1040 C1045 1.379 . S
C1040 N1047 1.356 . S
C1041 C1040 1.363 . S
C1041 C1044 1.363 . S
N1042 C1044 1.356 . S
N1042 H1054 0.984 . S
N1042 H1055 0.985 . S
N1043 C1045 1.356 . S
N1043 H1048 0.984 . S
N1043 H1049 0.985 . S
C1044 C1038 1.379 . S
C1044 C1041 1.363 . S
C1044 N1042 1.356 . S
C1045 C1039 1.363 . S
C1045 C1040 1.379 . S
C1045 N1043 1.356 . S
N1046 C1038 1.356 . S
N1046 H1052 0.984 . S
N1046 H1053 0.984 . S
N1047 C1040 1.356 . S
N1047 H1050 0.984 . S
N1047 H1051 0.985 . S
H1048 N1043 0.984 . S
H1049 N1043 0.985 . S
H1050 N1047 0.984 . S
H1051 N1047 0.985 . S
H1052 N1046 0.984 . S
H1053 N1046 0.984 . S
H1054 N1042 0.984 . S
H1055 N1042 0.985 . S
C1056 C1057 1.363 . S
C1056 C1062 1.379 . S
C1056 N1064 1.356 . S
C1057 C1056 1.363 . S
C1057 C1063 1.363 . S
C1058 C1059 1.363 . S
C1058 C1063 1.379 . S
C1058 N1065 1.356 . S
C1059 C1058 1.363 . S
C1059 C1062 1.363 . S
N1060 C1062 1.356 . S
N1060 H1072 0.984 . S
N1060 H1073 0.985 . S
N1061 C1063 1.356 . S
N1061 H1066 0.984 . S
N1061 H1067 0.985 . S
C1062 C1056 1.379 . S
C1062 C1059 1.363 . S
C1062 N1060 1.356 . S
C1063 C1057 1.363 . S
C1063 C1058 1.379 . S
C1063 N1061 1.356 . S
N1064 C1056 1.356 . S
N1064 H1070 0.984 . S
N1064 H1071 0.984 . S
N1065 C1058 1.356 . S
N1065 H1068 0.984 . S
N1065 H1069 0.985 . S
H1066 N1061 0.984 . S
H1067 N1061 0.985 . S
H1068 N1065 0.984 . S
H1069 N1065 0.985 . S
H1070 N1064 0.984 . S
H1071 N1064 0.984 . S
H1072 N1060 0.984 . S
H1073 N1060 0.985 . S
C1074 C1075 1.363 . S
C1074 C1080 1.379 . S
C1074 N1082 1.356 . S
C1075 C1074 1.363 . S
C1075 C1081 1.363 . S
C1076 C1077 1.363 . S
C1076 C1081 1.379 . S
C1076 N1083 1.356 . S
C1077 C1076 1.363 . S
C1077 C1080 1.363 . S
N1078 C1080 1.356 . S
N1078 H1090 0.984 1_455 S
N1078 H1091 0.985 . S
N1079 C1081 1.356 . S
N1079 H1084 0.984 . S
N1079 H1085 0.985 . S
C1080 C1074 1.379 . S
C1080 C1077 1.363 . S
C1080 N1078 1.356 . S
C1081 C1075 1.363 . S
C1081 C1076 1.379 . S
C1081 N1079 1.356 . S
N1082 C1074 1.356 . S
N1082 H1088 0.984 1_455 S
N1082 H1089 0.984 . S
N1083 C1076 1.356 . S
N1083 H1086 0.984 . S
N1083 H1087 0.985 . S
H1084 N1079 0.984 . S
H1085 N1079 0.985 . S
H1086 N1083 0.984 . S
H1087 N1083 0.985 . S
H1088 N1082 0.984 1_655 S
H1089 N1082 0.984 . S
H1090 N1078 0.984 1_655 S
H1091 N1078 0.985 . S
C1092 C1093 1.363 . S
C1092 C1098 1.379 . S
C1092 N1100 1.356 1_556 S
C1093 C1092 1.363 . S
C1093 C1099 1.363 . S
C1094 C1095 1.363 . S
C1094 C1099 1.379 . S
C1094 N1101 1.356 . S
C1095 C1094 1.363 . S
C1095 C1098 1.363 . S
N1096 C1098 1.356 . S
N1096 H1108 0.984 1_556 S
N1096 H1109 0.985 . S
N1097 C1099 1.356 . S
N1097 H1102 0.984 . S
N1097 H1103 0.985 . S
C1098 C1092 1.379 . S
C1098 C1095 1.363 . S
C1098 N1096 1.356 . S
C1099 C1093 1.363 . S
C1099 C1094 1.379 . S
C1099 N1097 1.356 . S
N1100 C1092 1.356 1_554 S
N1100 H1106 0.984 . S
N1100 H1107 0.984 . S
N1101 C1094 1.356 . S
N1101 H1104 0.984 . S
N1101 H1105 0.985 . S
H1102 N1097 0.984 . S
H1103 N1097 0.985 . S
H1104 N1101 0.984 . S
H1105 N1101 0.985 . S
H1106 N1100 0.984 . S
H1107 N1100 0.984 . S
H1108 N1096 0.984 1_554 S
H1109 N1096 0.985 . S
C1110 C1111 1.363 . S
C1110 C1116 1.379 . S
C1110 N1118 1.356 . S
C1111 C1110 1.363 . S
C1111 C1117 1.363 . S
C1112 C1113 1.363 . S
C1112 C1117 1.379 . S
C1112 N1119 1.356 . S
C1113 C1112 1.363 . S
C1113 C1116 1.363 . S
N1114 C1116 1.356 1_455 S
N1114 H1126 0.984 . S
N1114 H1127 0.985 . S
N1115 C1117 1.356 . S
N1115 H1120 0.984 . S
N1115 H1121 0.985 . S
C1116 C1110 1.379 . S
C1116 C1113 1.363 . S
C1116 N1114 1.356 1_655 S
C1117 C1111 1.363 . S
C1117 C1112 1.379 . S
C1117 N1115 1.356 . S
N1118 C1110 1.356 . S
N1118 H1124 0.984 . S
N1118 H1125 0.984 . S
N1119 C1112 1.356 . S
N1119 H1122 0.984 1_655 S
N1119 H1123 0.985 . S
H1120 N1115 0.984 . S
H1121 N1115 0.985 . S
H1122 N1119 0.984 1_455 S
H1123 N1119 0.985 . S
H1124 N1118 0.984 . S
H1125 N1118 0.984 . S
H1126 N1114 0.984 . S
H1127 N1114 0.985 . S
C481 C11 1.384 . S
C483 C459 1.433 . S
C499 C371 1.877 . S
C501 C59 1.985 . S
C517 C91 1.440 . S
C519 C339 1.526 . S
C535 C139 2.175 . S
C537 C419 2.171 . S
C553 C179 1.877 . S
C555 C411 1.786 . S
C571 C211 1.572 . S
C573 C451 1.595 . S
C589 C379 2.082 . S
C591 C259 2.083 . S
C607 C291 1.643 . S
C609 C331 1.693 . S
C625 C131 1.652 . S
C627 C171 1.671 . S
C643 C19 1.882 . S
C645 C219 1.884 . S
C661 C51 1.659 . S
C663 C251 1.694 . S
C679 C299 1.946 . S
C681 C99 1.952 . S
C697 C16 2.209 . S
C699 C330 2.214 . S
C715 C47 1.394 . S
C717 C410 1.336 . S
C733 C450 2.129 . S
C735 C96 2.122 . S
C751 C127 1.609 . S
C753 C362 1.585 . S
C769 C167 1.276 . S
C771 C370 1.228 . S
C787 C322 2.390 . S
C789 C216 2.231 . S
C805 C402 1.481 . S
C807 C247 1.498 . S
C823 C442 2.323 . S
C825 C296 2.175 . S
C841 C10 2.499 . S
C843 C136 2.500 . S
C859 C7 1.751 . S
C861 C42 1.722 . S
C877 C56 2.278 . S
C879 C90 2.285 . S
C895 C122 1.625 . S
C897 C87 1.650 . S
C913 C207 1.603 . S
C915 C162 1.559 . S
C931 C210 1.611 . S
C933 C256 1.621 . S
C949 C242 1.494 . S
C951 C287 1.525 . S
C967 C176 1.439 . S
C969 C290 1.450 . S
C985 C336 1.804 . S
C987 C130 1.780 . S
C1003 C202 2.299 . S
C1005 C376 2.177 . S
C1021 C327 1.541 . S
C1023 C250 1.432 . S
C1039 C407 1.791 . S
C1041 C282 1.753 . S
C1057 C170 1.379 . S
C1059 C447 1.466 . S
C1075 C456 1.693 . S
C1077 C50 1.670 . S
C1093 C82 1.647 . S
C1095 C367 1.667 . S
C1111 C416 2.086 . S
C1113 C2 2.232 1_655 S
