# Generated by pormake.
# Topology yff, (5)-cn, num edge types: 1
# Building blocks:
#     Node 0, Type 0, BuildingBlock: BEQFEK_clean_sbu_0, # of connection points: 5
#     Node 1, Type 0, BuildingBlock: BEQFEK_clean_sbu_0, # of connection points: 5
#     Node 2, Type 0, BuildingBlock: BEQFEK_clean_sbu_0, # of connection points: 5
#     Node 3, Type 0, BuildingBlock: BEQFEK_clean_sbu_0, # of connection points: 5
#     Node 4, Type 0, BuildingBlock: BEQFEK_clean_sbu_0, # of connection points: 5
#     Node 5, Type 0, BuildingBlock: BEQFEK_clean_sbu_0, # of connection points: 5
#     Node 6, Type 0, BuildingBlock: BEQFEK_clean_sbu_0, # of connection points: 5
#     Node 7, Type 0, BuildingBlock: BEQFEK_clean_sbu_0, # of connection points: 5
#     Node 8, Type 0, BuildingBlock: BEQFEK_clean_sbu_0, # of connection points: 5
#     Node 9, Type 0, BuildingBlock: BEQFEK_clean_sbu_0, # of connection points: 5
#     Node 10, Type 0, BuildingBlock: BEQFEK_clean_sbu_0, # of connection points: 5
#     Node 11, Type 0, BuildingBlock: BEQFEK_clean_sbu_0, # of connection points: 5
#     Node 12, Type 0, BuildingBlock: BEQFEK_clean_sbu_0, # of connection points: 5
#     Node 13, Type 0, BuildingBlock: BEQFEK_clean_sbu_0, # of connection points: 5
#     Node 14, Type 0, BuildingBlock: BEQFEK_clean_sbu_0, # of connection points: 5
#     Node 15, Type 0, BuildingBlock: BEQFEK_clean_sbu_0, # of connection points: 5
#     Edge 16, Type (0, 0), BuildingBlock: XUDNAN_clean_linker_2, # of connection points: 2
#     Edge 17, Type (0, 0), BuildingBlock: XUDNAN_clean_linker_2, # of connection points: 2
#     Edge 18, Type (0, 0), BuildingBlock: XUDNAN_clean_linker_2, # of connection points: 2
#     Edge 19, Type (0, 0), BuildingBlock: XUDNAN_clean_linker_2, # of connection points: 2
#     Edge 20, Type (0, 0), BuildingBlock: XUDNAN_clean_linker_2, # of connection points: 2
#     Edge 21, Type (0, 0), BuildingBlock: XUDNAN_clean_linker_2, # of connection points: 2
#     Edge 22, Type (0, 0), BuildingBlock: XUDNAN_clean_linker_2, # of connection points: 2
#     Edge 23, Type (0, 0), BuildingBlock: XUDNAN_clean_linker_2, # of connection points: 2
#     Edge 24, Type (0, 0), BuildingBlock: XUDNAN_clean_linker_2, # of connection points: 2
#     Edge 25, Type (0, 0), BuildingBlock: XUDNAN_clean_linker_2, # of connection points: 2
#     Edge 26, Type (0, 0), BuildingBlock: XUDNAN_clean_linker_2, # of connection points: 2
#     Edge 27, Type (0, 0), BuildingBlock: XUDNAN_clean_linker_2, # of connection points: 2
#     Edge 28, Type (0, 0), BuildingBlock: XUDNAN_clean_linker_2, # of connection points: 2
#     Edge 29, Type (0, 0), BuildingBlock: XUDNAN_clean_linker_2, # of connection points: 2
#     Edge 30, Type (0, 0), BuildingBlock: XUDNAN_clean_linker_2, # of connection points: 2
#     Edge 31, Type (0, 0), BuildingBlock: XUDNAN_clean_linker_2, # of connection points: 2
#     Edge 32, Type (0, 0), BuildingBlock: XUDNAN_clean_linker_2, # of connection points: 2
#     Edge 33, Type (0, 0), BuildingBlock: XUDNAN_clean_linker_2, # of connection points: 2
#     Edge 34, Type (0, 0), BuildingBlock: XUDNAN_clean_linker_2, # of connection points: 2
#     Edge 35, Type (0, 0), BuildingBlock: XUDNAN_clean_linker_2, # of connection points: 2
#     Edge 36, Type (0, 0), BuildingBlock: XUDNAN_clean_linker_2, # of connection points: 2
#     Edge 37, Type (0, 0), BuildingBlock: XUDNAN_clean_linker_2, # of connection points: 2
#     Edge 38, Type (0, 0), BuildingBlock: XUDNAN_clean_linker_2, # of connection points: 2
#     Edge 39, Type (0, 0), BuildingBlock: XUDNAN_clean_linker_2, # of connection points: 2
#     Edge 40, Type (0, 0), BuildingBlock: XUDNAN_clean_linker_2, # of connection points: 2
#     Edge 41, Type (0, 0), BuildingBlock: XUDNAN_clean_linker_2, # of connection points: 2
#     Edge 42, Type (0, 0), BuildingBlock: XUDNAN_clean_linker_2, # of connection points: 2
#     Edge 43, Type (0, 0), BuildingBlock: XUDNAN_clean_linker_2, # of connection points: 2
#     Edge 44, Type (0, 0), BuildingBlock: XUDNAN_clean_linker_2, # of connection points: 2
#     Edge 45, Type (0, 0), BuildingBlock: XUDNAN_clean_linker_2, # of connection points: 2
#     Edge 46, Type (0, 0), BuildingBlock: XUDNAN_clean_linker_2, # of connection points: 2
#     Edge 47, Type (0, 0), BuildingBlock: XUDNAN_clean_linker_2, # of connection points: 2
#     Edge 48, Type (0, 0), BuildingBlock: XUDNAN_clean_linker_2, # of connection points: 2
#     Edge 49, Type (0, 0), BuildingBlock: XUDNAN_clean_linker_2, # of connection points: 2
#     Edge 50, Type (0, 0), BuildingBlock: XUDNAN_clean_linker_2, # of connection points: 2
#     Edge 51, Type (0, 0), BuildingBlock: XUDNAN_clean_linker_2, # of connection points: 2
#     Edge 52, Type (0, 0), BuildingBlock: XUDNAN_clean_linker_2, # of connection points: 2
#     Edge 53, Type (0, 0), BuildingBlock: XUDNAN_clean_linker_2, # of connection points: 2
#     Edge 54, Type (0, 0), BuildingBlock: XUDNAN_clean_linker_2, # of connection points: 2
#     Edge 55, Type (0, 0), BuildingBlock: XUDNAN_clean_linker_2, # of connection points: 2
# Relax obj value: 0.527
# Max RMSD: 0.289
# Mean RMSD: 0.277
data_MOF--net-yff--node1-BEQFEK_clean_sbu_0--edge1-XUDNAN_clean_linker_2
_symmetry_space_group_name_H-M    P1
_symmetry_Int_Tables_number       1
_symmetry_cell_setting            triclinic
loop_
_symmetry_equiv_pos_as_xyz
'x, y, z'
_cell_length_a     68.329187
_cell_length_b     66.224314
_cell_length_c     27.718252
_cell_angle_alpha  89.494136
_cell_angle_beta   89.385475
_cell_angle_gamma 88.885712
loop_
_atom_site_label
_atom_site_type_symbol
_atom_site_fract_x
_atom_site_fract_y
_atom_site_fract_z
_atom_type_partial_charge
Co0 Co 0.06585 0.03579 0.30516 0.0
Co1 Co 0.11114 0.03436 0.28984 0.0
C2 C 0.08825 0.99714 0.28076 0.0
O3 O 0.07292 0.00754 0.29045 0.0
O4 O 0.105 0.00523 0.27777 0.0
C5 C 0.02723 0.02181 0.31247 0.0
O6 O 0.03239 0.01192 0.27331 0.0
C7 C 0.15337 0.02507 0.30024 0.0
C8 C 0.16588 0.05444 0.27931 0.0
C9 C 0.17094 0.0351 0.29483 0.0
N10 N 0.13868 0.03795 0.28844 0.0
N11 N 0.14629 0.05542 0.27574 0.0
C12 C 0.15034 0.00419 0.31959 0.0
H13 H 0.13577 0.0032 0.33743 0.0
H14 H 0.16197 -0.00011 0.34559 0.0
H15 H 0.15088 0.99339 0.28921 0.0
C16 C 0.07683 0.05035 0.4004 0.0
N17 N 0.08166 0.04435 0.35559 0.0
N18 N 0.10082 0.04313 0.35097 0.0
C19 C 0.10885 0.04837 0.39335 0.0
C20 C 0.09387 0.05327 0.42584 0.0
C21 C 0.05626 0.05096 0.41976 0.0
H22 H 0.04714 0.06117 0.39692 0.0
H23 H 0.05016 0.03559 0.41799 0.0
H24 H 0.05534 0.05603 0.4577 0.0
O25 O 0.06833 0.05368 0.24863 0.0
O26 O 0.1005 0.05212 0.23679 0.0
H27 H 0.1376 0.05847 0.3758 0.0
H28 H 0.13348 0.05399 0.4395 0.0
C29 C 0.13036 0.04854 0.40269 0.0
H30 H 0.13656 0.03305 0.3984 0.0
H31 H 0.13805 0.06812 0.26526 0.0
O32 O 0.03863 0.03502 0.32854 0.0
C33 C 0.08355 0.05878 0.22501 0.0
Co34 Co 0.46153 0.06386 0.8325 0.0
Co35 Co 0.45941 0.10836 0.79411 0.0
C36 C 0.49668 0.08456 0.78916 0.0
O37 O 0.48784 0.06981 0.8083 0.0
O38 O 0.48764 0.10112 0.78021 0.0
C39 C 0.48034 0.02843 0.86666 0.0
O40 O 0.49088 0.03032 0.82705 0.0
C41 C 0.46651 0.15182 0.79476 0.0
C42 C 0.44166 0.16384 0.75217 0.0
C43 C 0.45786 0.16963 0.77797 0.0
N44 N 0.45572 0.13629 0.78015 0.0
N45 N 0.44096 0.14356 0.75448 0.0
C46 C 0.48518 0.14948 0.82235 0.0
H47 H 0.49195 0.13439 0.81672 0.0
H48 H 0.48208 0.15105 0.86148 0.0
H49 H 0.49567 0.16129 0.81131 0.0
C50 C 0.44663 0.08287 0.92043 0.0
N51 N 0.45319 0.08428 0.87471 0.0
N52 N 0.45171 0.10315 0.8597 0.0
C53 C 0.44347 0.1143 0.89557 0.0
C54 C 0.44043 0.10181 0.93537 0.0
C55 C 0.44478 0.06336 0.94784 0.0
H56 H 0.45962 0.0573 0.95627 0.0
H57 H 0.43639 0.0652 0.98203 0.0
H58 H 0.43727 0.05222 0.92527 0.0
O59 O 0.44272 0.06128 0.77931 0.0
O60 O 0.44222 0.09283 0.75074 0.0
H61 H 0.43037 0.13886 0.85575 0.0
H62 H 0.42713 0.14053 0.92054 0.0
C63 C 0.43741 0.13605 0.89109 0.0
H64 H 0.45051 0.14556 0.89319 0.0
H65 H 0.43029 0.1347 0.73897 0.0
O66 O 0.46475 0.03897 0.8714 0.0
C67 C 0.43658 0.07457 0.74921 0.0
Co68 Co 0.42043 0.46987 0.33345 0.0
Co69 Co 0.37679 0.46737 0.30098 0.0
C70 C 0.39731 0.50568 0.29237 0.0
O71 O 0.41239 0.49639 0.30797 0.0
O72 O 0.38122 0.49669 0.28696 0.0
C73 C 0.44104 0.49003 0.39981 0.0
O74 O 0.42367 0.49887 0.40022 0.0
C75 C 0.33387 0.47237 0.29933 0.0
C76 C 0.32521 0.44245 0.27305 0.0
C77 C 0.3177 0.46073 0.28959 0.0
N78 N 0.35012 0.46125 0.28983 0.0
N79 N 0.34484 0.44349 0.27366 0.0
C80 C 0.33405 0.49396 0.31497 0.0
H81 H 0.34422 0.50251 0.29149 0.0
H82 H 0.33951 0.49479 0.35241 0.0
H83 H 0.31933 0.50122 0.31281 0.0
C84 C 0.40408 0.453 0.42236 0.0
N85 N 0.40173 0.4602 0.37734 0.0
N86 N 0.38307 0.46012 0.36618 0.0
C87 C 0.37286 0.45308 0.4048 0.0
C88 C 0.38593 0.44876 0.44169 0.0
C89 C 0.42344 0.44828 0.44525 0.0
H90 H 0.43478 0.44501 0.41739 0.0
H91 H 0.42788 0.46132 0.46717 0.0
H92 H 0.42237 0.43502 0.46985 0.0
O93 O 0.42406 0.45039 0.28083 0.0
O94 O 0.39314 0.45012 0.25598 0.0
H95 H 0.34715 0.43976 0.37681 0.0
H96 H 0.34641 0.44364 0.44134 0.0
C97 C 0.35124 0.45007 0.40618 0.0
H98 H 0.34358 0.46475 0.40018 0.0
H99 H 0.35464 0.43189 0.26414 0.0
O100 O 0.44431 0.47565 0.37041 0.0
C101 C 0.41102 0.44423 0.25214 0.0
Co102 Co 0.00686 0.36544 0.80038 0.0
Co103 Co 0.0441 0.35517 0.8614 0.0
C104 C 0.0149 0.32368 0.83769 0.0
O105 O 0.00442 0.33589 0.8129 0.0
O106 O 0.03027 0.32937 0.85857 0.0
C107 C 0.96554 0.37201 0.79448 0.0
O108 O 0.96576 0.36124 0.83453 0.0
C109 C 0.06377 0.34547 0.95106 0.0
C110 C 0.09436 0.35347 0.93474 0.0
C111 C 0.08207 0.34731 0.97208 0.0
N112 N 0.06524 0.35083 0.90439 0.0
N113 N 0.08366 0.35501 0.89439 0.0
C114 C 0.0446 0.3409 0.97519 0.0
H115 H 0.03221 0.34456 0.95089 0.0
H116 H 0.04277 0.34952 0.00912 0.0
H117 H 0.04424 0.32455 0.98422 0.0
C118 C 0.00326 0.39806 0.87432 0.0
N119 N 0.01152 0.3807 0.85776 0.0
N120 N 0.02743 0.37662 0.88277 0.0
C121 C 0.02992 0.39137 0.91536 0.0
C122 C 0.01449 0.4052 0.91165 0.0
C123 C 0.98692 0.40946 0.85004 0.0
H124 H 0.98876 0.40872 0.81033 0.0
H125 H 0.97282 0.40258 0.86051 0.0
H126 H 0.98633 0.42554 0.86091 0.0
O127 O 0.02888 0.37026 0.75342 0.0
O128 O 0.05509 0.36308 0.79802 0.0
H129 H 0.06113 0.38993 0.92396 0.0
H130 H 0.049 0.40882 0.96079 0.0
C131 C 0.04781 0.39348 0.94564 0.0
H132 H 0.04705 0.38285 0.97653 0.0
H133 H 0.08868 0.36002 0.86076 0.0
O134 O 0.98163 0.3751 0.77226 0.0
C135 C 0.04744 0.36888 0.75843 0.0
Co136 Co 0.57886 0.97474 0.65692 0.0
Co137 Co 0.62189 0.96835 0.69393 0.0
C138 C 0.60302 0.00855 0.69714 0.0
O139 O 0.58786 0.00062 0.68017 0.0
O140 O 0.61842 0.99808 0.70578 0.0
C141 C 0.54612 0.99798 0.62193 0.0
O142 O 0.55152 0.01098 0.65447 0.0
C143 C 0.66465 0.97015 0.69912 0.0
C144 C 0.67209 0.94078 0.73342 0.0
C145 C 0.68033 0.95814 0.7145 0.0
N146 N 0.64802 0.96029 0.70862 0.0
N147 N 0.65255 0.94281 0.72939 0.0
C148 C 0.66529 0.98983 0.67231 0.0
H149 H 0.65182 0.99211 0.65071 0.0
H150 H 0.67837 0.99036 0.64827 0.0
H151 H 0.66605 0.00232 0.69861 0.0
C152 C 0.5957 0.95671 0.57046 0.0
N153 N 0.59773 0.96361 0.61539 0.0
N154 N 0.61598 0.96097 0.62917 0.0
C155 C 0.6262 0.95201 0.59285 0.0
C156 C 0.61366 0.94935 0.55439 0.0
C157 C 0.57649 0.95574 0.54501 0.0
H158 H 0.57208 0.97114 0.53268 0.0
H159 H 0.57725 0.9456 0.5134 0.0
H160 H 0.56509 0.95017 0.57032 0.0
O161 O 0.57406 0.95625 0.71194 0.0
O162 O 0.60445 0.95342 0.73978 0.0
H163 H 0.64962 0.93575 0.62714 0.0
H164 H 0.65207 0.93758 0.56212 0.0
C165 C 0.64728 0.94568 0.59522 0.0
H166 H 0.65635 0.95923 0.59945 0.0
H167 H 0.64231 0.93214 0.74009 0.0
O168 O 0.5548 0.98085 0.61957 0.0
C169 C 0.58628 0.9494 0.74278 0.0
Co170 Co 0.52034 0.56692 0.18668 0.0
Co171 Co 0.52653 0.61289 0.20473 0.0
C172 C 0.48744 0.59545 0.21671 0.0
O173 O 0.4949 0.57835 0.20631 0.0
O174 O 0.49769 0.61125 0.2179 0.0
C175 C 0.49814 0.53216 0.16437 0.0
O176 O 0.48583 0.53932 0.19697 0.0
C177 C 0.52321 0.65673 0.19571 0.0
C178 C 0.55237 0.66621 0.21961 0.0
C179 C 0.53454 0.67355 0.20283 0.0
N180 N 0.53385 0.64024 0.20787 0.0
N181 N 0.55123 0.64598 0.22232 0.0
C182 C 0.50328 0.656 0.17402 0.0
H183 H 0.50152 0.6416 0.1545 0.0
H184 H 0.5008 0.66891 0.14887 0.0
H185 H 0.49209 0.65677 0.2033 0.0
C186 C 0.53747 0.5778 0.09253 0.0
N187 N 0.53103 0.58291 0.13682 0.0
N188 N 0.53348 0.60235 0.14325 0.0
C189 C 0.54184 0.61021 0.10306 0.0
C190 C 0.54443 0.59491 0.06958 0.0
C191 C 0.53811 0.55662 0.07386 0.0
H192 H 0.54377 0.54619 0.10217 0.0
H193 H 0.52304 0.55211 0.06483 0.0
H194 H 0.54753 0.55513 0.04121 0.0
O195 O 0.5383 0.56522 0.24201 0.0
O196 O 0.54195 0.59805 0.25485 0.0
H197 H 0.55829 0.63566 0.12459 0.0
H198 H 0.5536 0.63483 0.06052 0.0
C199 C 0.54738 0.63182 0.09697 0.0
H200 H 0.53426 0.64166 0.10255 0.0
H201 H 0.56237 0.63606 0.2335 0.0
O202 O 0.51475 0.54026 0.15904 0.0
C203 C 0.54571 0.57962 0.26551 0.0
Co204 Co 0.92014 0.52337 0.6533 0.0
Co205 Co 0.87603 0.52956 0.68033 0.0
C206 C 0.89562 0.49002 0.69661 0.0
O207 O 0.91123 0.49767 0.68003 0.0
O208 O 0.87982 0.50046 0.70038 0.0
C209 C 0.95643 0.50269 0.63795 0.0
O210 O 0.95175 0.49315 0.67807 0.0
C211 C 0.83311 0.52676 0.67819 0.0
C212 C 0.82436 0.5587 0.68955 0.0
C213 C 0.81706 0.53984 0.67979 0.0
N214 N 0.84924 0.53747 0.68643 0.0
N215 N 0.84386 0.55646 0.69407 0.0
C216 C 0.83336 0.50501 0.6641 0.0
H217 H 0.84731 0.50104 0.64529 0.0
H218 H 0.82078 0.50167 0.64066 0.0
H219 H 0.83227 0.49555 0.69722 0.0
C220 C 0.90642 0.53534 0.55784 0.0
N221 N 0.903 0.53162 0.60482 0.0
N222 N 0.88421 0.53393 0.61448 0.0
C223 C 0.87501 0.53937 0.57318 0.0
C224 C 0.88882 0.54012 0.53598 0.0
C225 C 0.92643 0.5354 0.53509 0.0
H226 H 0.93674 0.54309 0.55913 0.0
H227 H 0.93166 0.51958 0.53013 0.0
H228 H 0.92649 0.54325 0.49958 0.0
O229 O 0.92205 0.54418 0.70248 0.0
O230 O 0.89081 0.54751 0.72466 0.0
H231 H 0.8491 0.55592 0.59351 0.0
H232 H 0.84937 0.54755 0.53157 0.0
C233 C 0.85349 0.54344 0.56905 0.0
H234 H 0.84546 0.52979 0.58025 0.0
H235 H 0.85362 0.56808 0.70007 0.0
O236 O 0.94578 0.51744 0.62375 0.0
C237 C 0.90873 0.55225 0.72872 0.0
Co238 Co 0.97459 0.91944 0.165 0.0
Co239 Co 0.97165 0.87315 0.18863 0.0
C240 C 0.00798 0.89442 0.20797 0.0
O241 O 0.99927 0.91043 0.19385 0.0
O242 O 0.99963 0.8774 0.20765 0.0
C243 C 0.99483 0.95625 0.1498 0.0
O244 O 0.00396 0.95079 0.18942 0.0
C245 C 0.97675 0.82869 0.18619 0.0
C246 C 0.94727 0.81907 0.20901 0.0
C247 C 0.96554 0.81167 0.19488 0.0
N248 N 0.96555 0.84522 0.19487 0.0
N249 N 0.94799 0.83934 0.20871 0.0
C250 C 0.99722 0.82948 0.16668 0.0
H251 H 0.99969 0.84417 0.14824 0.0
H252 H 0.00012 0.81693 0.14116 0.0
H253 H 0.00763 0.82802 0.19701 0.0
C254 C 0.9631 0.90582 0.0695 0.0
N255 N 0.96789 0.90181 0.11551 0.0
N256 N 0.96686 0.88227 0.12392 0.0
C257 C 0.96134 0.87317 0.08286 0.0
C258 C 0.9587 0.88788 0.04728 0.0
C259 C 0.96335 0.92651 0.04714 0.0
H260 H 0.9785 0.93221 0.0479 0.0
H261 H 0.9584 0.92659 0.00919 0.0
H262 H 0.95388 0.93691 0.06866 0.0
O263 O 0.95349 0.92053 0.21374 0.0
O264 O 0.95317 0.88792 0.23393 0.0
H265 H 0.94679 0.84644 0.10604 0.0
H266 H 0.95225 0.84734 0.04204 0.0
C267 C 0.9577 0.85109 0.0784 0.0
H268 H 0.97149 0.84249 0.08516 0.0
H269 H 0.9364 0.84919 0.21742 0.0
O270 O 0.98029 0.94615 0.13604 0.0
C271 C 0.94683 0.90606 0.23927 0.0
Co272 Co 0.92578 0.95564 0.64453 0.0
Co273 Co 0.88251 0.95262 0.6824 0.0
C274 C 0.9028 0.99179 0.68167 0.0
O275 O 0.91806 0.98317 0.66443 0.0
O276 O 0.88737 0.98204 0.69151 0.0
C277 C 0.95981 0.97395 0.60157 0.0
O278 O 0.9552 0.98945 0.62896 0.0
C279 C 0.84002 0.9592 0.68946 0.0
C280 C 0.83053 0.93073 0.72376 0.0
C281 C 0.82356 0.94907 0.70578 0.0
N282 N 0.85587 0.9474 0.69768 0.0
N283 N 0.85012 0.93044 0.71834 0.0
C284 C 0.84077 0.97903 0.66323 0.0
H285 H 0.85411 0.97968 0.64013 0.0
H286 H 0.82758 0.98138 0.64071 0.0
H287 H 0.84136 0.99138 0.68992 0.0
C288 C 0.90841 0.93894 0.55791 0.0
N289 N 0.90668 0.94532 0.60361 0.0
N290 N 0.88828 0.94434 0.61771 0.0
C291 C 0.87765 0.93732 0.58065 0.0
C292 C 0.89021 0.93351 0.54185 0.0
C293 C 0.927 0.93953 0.52894 0.0
H294 H 0.93836 0.9302 0.54738 0.0
H295 H 0.93193 0.95536 0.52668 0.0
H296 H 0.92528 0.93395 0.49171 0.0
O297 O 0.92937 0.93763 0.70085 0.0
O298 O 0.89882 0.93657 0.72926 0.0
H299 H 0.85207 0.92516 0.6142 0.0
H300 H 0.85097 0.92684 0.54898 0.0
C301 C 0.85602 0.93438 0.58209 0.0
H302 H 0.84848 0.94929 0.58532 0.0
H303 H 0.85956 0.91858 0.72828 0.0
O304 O 0.9504 0.95768 0.60662 0.0
C305 C 0.91691 0.93157 0.73198 0.0
Co306 Co 0.5349 0.92783 0.18704 0.0
Co307 Co 0.53562 0.88102 0.19806 0.0
C308 C 0.49885 0.90436 0.21428 0.0
O309 O 0.50812 0.92038 0.20469 0.0
O310 O 0.50739 0.88708 0.21469 0.0
C311 C 0.51909 0.96758 0.16919 0.0
O312 O 0.5037 0.96131 0.19338 0.0
C313 C 0.52823 0.83772 0.18644 0.0
C314 C 0.55745 0.82475 0.2033 0.0
C315 C 0.53866 0.81957 0.19048 0.0
N316 N 0.54036 0.8528 0.19662 0.0
N317 N 0.55777 0.84495 0.20667 0.0
C318 C 0.50759 0.84102 0.17026 0.0
H319 H 0.50588 0.85608 0.15279 0.0
H320 H 0.50335 0.8291 0.14468 0.0
H321 H 0.49766 0.84054 0.20216 0.0
C322 C 0.5481 0.91785 0.08871 0.0
N323 N 0.54302 0.9123 0.13383 0.0
N324 N 0.54261 0.89248 0.13687 0.0
C325 C 0.54733 0.88476 0.09318 0.0
C326 C 0.55108 0.90063 0.06147 0.0
C327 C 0.54825 0.93931 0.07113 0.0
H328 H 0.5333 0.94598 0.07495 0.0
H329 H 0.55286 0.94059 0.03279 0.0
H330 H 0.55826 0.94812 0.0937 0.0
O331 O 0.5531 0.92426 0.24046 0.0
O332 O 0.55339 0.89096 0.24915 0.0
H333 H 0.55268 0.86002 0.04395 0.0
H334 H 0.53353 0.85619 0.08852 0.0
C335 C 0.54814 0.86272 0.08195 0.0
H336 H 0.55868 0.85495 0.10632 0.0
H337 H 0.5699 0.85342 0.21569 0.0
O338 O 0.53431 0.95631 0.16675 0.0
C339 C 0.55924 0.90828 0.26155 0.0
Co340 Co 0.57369 0.51606 0.69175 0.0
Co341 Co 0.619 0.51831 0.70392 0.0
C342 C 0.59886 0.48047 0.72501 0.0
O343 O 0.58293 0.48977 0.71548 0.0
O344 O 0.61539 0.48902 0.72142 0.0
C345 C 0.54301 0.49781 0.64372 0.0
O346 O 0.5571 0.48465 0.63393 0.0
C347 C 0.66228 0.51612 0.68973 0.0
C348 C 0.66929 0.54768 0.70702 0.0
C349 C 0.67747 0.52965 0.69125 0.0
N350 N 0.64574 0.52584 0.70392 0.0
N351 N 0.65016 0.54458 0.71494 0.0
C352 C 0.66322 0.495 0.67124 0.0
H353 H 0.64832 0.48952 0.66369 0.0
H354 H 0.67246 0.49425 0.63808 0.0
H355 H 0.67015 0.48504 0.69885 0.0
C356 C 0.58358 0.53076 0.59449 0.0
N357 N 0.58888 0.52456 0.63885 0.0
N358 N 0.60807 0.5248 0.64222 0.0
C359 C 0.61561 0.53096 0.59933 0.0
C360 C 0.60028 0.53463 0.56769 0.0
C361 C 0.56289 0.53484 0.57924 0.0
H362 H 0.55377 0.53976 0.61043 0.0
H363 H 0.55683 0.52087 0.56403 0.0
H364 H 0.56217 0.54679 0.55095 0.0
O365 O 0.57441 0.53566 0.74358 0.0
O366 O 0.6065 0.53586 0.75488 0.0
H367 H 0.64302 0.5448 0.61239 0.0
H368 H 0.63965 0.53741 0.55042 0.0
C369 C 0.63696 0.53312 0.58866 0.0
H370 H 0.64467 0.51861 0.59637 0.0
H371 H 0.63992 0.55554 0.72592 0.0
O372 O 0.54661 0.51264 0.67077 0.0
C373 C 0.5892 0.54182 0.76618 0.0
Co374 Co 0.96449 0.55665 0.14507 0.0
Co375 Co 0.96665 0.60245 0.17462 0.0
C376 C 0.00101 0.57606 0.18649 0.0
O377 O 0.99038 0.56207 0.17109 0.0
O378 O 0.99431 0.59405 0.19056 0.0
C379 C 0.98373 0.53147 0.08286 0.0
O380 O 0.99244 0.5489 0.07802 0.0
C381 C 0.97414 0.64646 0.17898 0.0
C382 C 0.94503 0.65779 0.20292 0.0
C383 C 0.96356 0.6641 0.18963 0.0
N384 N 0.9623 0.63064 0.1856 0.0
N385 N 0.94499 0.63755 0.20024 0.0
C386 C 0.99456 0.6446 0.15933 0.0
H387 H 0.99666 0.63009 0.14005 0.0
H388 H 0.99777 0.6574 0.13455 0.0
H389 H 0.00501 0.64486 0.18966 0.0
C390 C 0.94976 0.57529 0.05566 0.0
N391 N 0.95725 0.57687 0.10006 0.0
N392 N 0.95967 0.59606 0.11006 0.0
C393 C 0.95425 0.6073 0.07134 0.0
C394 C 0.94768 0.59448 0.03589 0.0
C395 C 0.94531 0.55562 0.03218 0.0
H396 H 0.94122 0.54423 0.05983 0.0
H397 H 0.9585 0.55012 0.01227 0.0
H398 H 0.93326 0.55725 0.00599 0.0
O399 O 0.94523 0.55611 0.19873 0.0
O400 O 0.94788 0.58845 0.21886 0.0
H401 H 0.94428 0.63611 0.09673 0.0
H402 H 0.95003 0.63565 0.03302 0.0
C403 C 0.95448 0.62986 0.06904 0.0
H404 H 0.96939 0.63509 0.07711 0.0
H405 H 0.933 0.62845 0.20747 0.0
O406 O 0.96902 0.53037 0.11134 0.0
C407 C 0.94035 0.57111 0.22516 0.0
Co408 Co 0.4176 0.02954 0.31935 0.0
Co409 Co 0.37242 0.02704 0.30186 0.0
C410 C 0.39802 0.99108 0.28841 0.0
O411 O 0.41268 0.00176 0.29851 0.0
O412 O 0.38059 0.99834 0.28843 0.0
C413 C 0.45516 0.01534 0.35433 0.0
O414 O 0.44916 0.99738 0.3422 0.0
C415 C 0.32973 0.01887 0.30783 0.0
C416 C 0.31807 0.04924 0.28872 0.0
C417 C 0.31241 0.03001 0.30214 0.0
N418 N 0.34482 0.03112 0.29837 0.0
N419 N 0.3377 0.04917 0.28668 0.0
C420 C 0.33208 0.99754 0.32525 0.0
H421 H 0.34666 0.99513 0.34184 0.0
H422 H 0.32037 0.99381 0.35175 0.0
H423 H 0.33098 0.98723 0.29409 0.0
C424 C 0.40359 0.04247 0.41502 0.0
N425 N 0.40008 0.03669 0.36962 0.0
N426 N 0.3811 0.035 0.3638 0.0
C427 C 0.37192 0.03946 0.40594 0.0
C428 C 0.38591 0.04452 0.43948 0.0
C429 C 0.42366 0.04426 0.43559 0.0
H430 H 0.43119 0.02929 0.43438 0.0
H431 H 0.42339 0.04939 0.47352 0.0
H432 H 0.43217 0.05504 0.41333 0.0
O433 O 0.41487 0.04837 0.26475 0.0
O434 O 0.38315 0.04556 0.25087 0.0
H435 H 0.34621 0.04284 0.45167 0.0
H436 H 0.3452 0.02325 0.4067 0.0
C437 C 0.35028 0.0387 0.41412 0.0
H438 H 0.34283 0.04927 0.38877 0.0
H439 H 0.34629 0.06158 0.27814 0.0
O440 O 0.44453 0.03079 0.34467 0.0
C441 C 0.39973 0.05306 0.24052 0.0
Co442 Co 0.46023 0.42355 0.8266 0.0
Co443 Co 0.461 0.37724 0.80451 0.0
C444 C 0.49745 0.40075 0.79878 0.0
O445 O 0.4877 0.41648 0.81093 0.0
O446 O 0.48922 0.38385 0.79314 0.0
C447 C 0.47491 0.4604 0.8651 0.0
O448 O 0.49182 0.454 0.84757 0.0
C449 C 0.46812 0.33283 0.80829 0.0
C450 C 0.44144 0.32266 0.77192 0.0
C451 C 0.45862 0.31575 0.79287 0.0
N452 N 0.45696 0.34912 0.79687 0.0
N453 N 0.44103 0.34287 0.77536 0.0
C454 C 0.48789 0.3337 0.8308 0.0
H455 H 0.49366 0.34919 0.82904 0.0
H456 H 0.48681 0.32913 0.86928 0.0
H457 H 0.49821 0.32301 0.81256 0.0
C458 C 0.44445 0.40877 0.91919 0.0
N459 N 0.45103 0.40532 0.87408 0.0
N460 N 0.45212 0.38572 0.86672 0.0
C461 C 0.44634 0.37608 0.9075 0.0
C462 C 0.44116 0.39043 0.94182 0.0
C463 C 0.44332 0.42925 0.94169 0.0
H464 H 0.45826 0.43542 0.94312 0.0
H465 H 0.43727 0.42894 0.97889 0.0
H466 H 0.43406 0.43943 0.91918 0.0
O467 O 0.44346 0.42323 0.7691 0.0
O468 O 0.4442 0.39034 0.75451 0.0
H469 H 0.43913 0.34933 0.94876 0.0
H470 H 0.46125 0.34759 0.9126 0.0
C471 C 0.44603 0.35365 0.91382 0.0
H472 H 0.43787 0.34688 0.88384 0.0
H473 H 0.4299 0.35245 0.76263 0.0
O474 O 0.45953 0.45076 0.85555 0.0
C475 C 0.43823 0.40819 0.74437 0.0
Co476 Co 0.07187 0.44391 0.34082 0.0
Co477 Co 0.11725 0.44532 0.3279 0.0
C478 C 0.09165 0.48052 0.30061 0.0
O479 O 0.0766 0.47026 0.31061 0.0
O480 O 0.10895 0.47346 0.30694 0.0
C481 C 0.03225 0.4575 0.35987 0.0
O482 O 0.03667 0.47336 0.33343 0.0
C483 C 0.1594 0.45501 0.33685 0.0
C484 C 0.17266 0.42718 0.30619 0.0
C485 C 0.17721 0.44593 0.32414 0.0
N486 N 0.14503 0.44217 0.3264 0.0
N487 N 0.15313 0.42551 0.30864 0.0
C488 C 0.15599 0.47587 0.35579 0.0
H489 H 0.1405 0.48072 0.35152 0.0
H490 H 0.15942 0.47598 0.39481 0.0
H491 H 0.16576 0.48667 0.33704 0.0
C492 C 0.08285 0.43421 0.44012 0.0
N493 N 0.0879 0.43995 0.39522 0.0
N494 N 0.10701 0.43851 0.39004 0.0
C495 C 0.11467 0.43074 0.43118 0.0
C496 C 0.09945 0.42748 0.46414 0.0
C497 C 0.06239 0.43537 0.4599 0.0
H498 H 0.05539 0.44987 0.44868 0.0
H499 H 0.06211 0.43456 0.4999 0.0
H500 H 0.05392 0.42272 0.44539 0.0
O501 O 0.07634 0.42187 0.29483 0.0
O502 O 0.10811 0.42542 0.28027 0.0
H503 H 0.14027 0.41497 0.4055 0.0
H504 H 0.13833 0.41612 0.47058 0.0
C505 C 0.13571 0.42455 0.43643 0.0
H506 H 0.14483 0.43823 0.43547 0.0
H507 H 0.14527 0.41315 0.29701 0.0
O508 O 0.04452 0.44294 0.36313 0.0
C509 C 0.09198 0.41681 0.27245 0.0
Co510 Co 0.01962 0.07345 0.82716 0.0
Co511 Co 0.01834 0.11795 0.78874 0.0
C512 C 0.98335 0.09076 0.78499 0.0
O513 O 0.99307 0.07634 0.80414 0.0
O514 O 0.99104 0.10784 0.77627 0.0
C515 C 0.03696 0.03887 0.87545 0.0
O516 O 0.05373 0.04709 0.86382 0.0
C517 C 0.00818 0.16076 0.80079 0.0
C518 C 0.02657 0.17538 0.74511 0.0
C519 C 0.01338 0.17947 0.78225 0.0
N520 N 0.01808 0.14634 0.77626 0.0
N521 N 0.02888 0.15517 0.74265 0.0
C522 C 0.99339 0.15647 0.8396 0.0
H523 H 0.98738 0.14117 0.83506 0.0
H524 H 0.0004 0.15695 0.87539 0.0
H525 H 0.98138 0.168 0.83892 0.0
C526 C 0.02928 0.09386 0.91768 0.0
N527 N 0.0244 0.09446 0.87083 0.0
N528 N 0.02684 0.11283 0.8537 0.0
C529 C 0.03531 0.12395 0.88824 0.0
C530 C 0.0367 0.11236 0.93019 0.0
C531 C 0.0281 0.07549 0.94945 0.0
H532 H 0.04242 0.06734 0.94889 0.0
H533 H 0.01634 0.06554 0.93729 0.0
H534 H 0.02481 0.0796 0.98731 0.0
O535 O 0.03871 0.07335 0.77225 0.0
O536 O 0.03685 0.10467 0.74287 0.0
H537 H 0.04621 0.14739 0.84124 0.0
H538 H 0.05785 0.14562 0.89943 0.0
C539 C 0.04377 0.1444 0.88021 0.0
H540 H 0.03366 0.15608 0.89524 0.0
H541 H 0.03816 0.14742 0.71874 0.0
O542 O 0.02115 0.04718 0.86096 0.0
C543 C 0.04384 0.0867 0.74141 0.0
H544 H 0.9775 0.00871 0.57038 0.0
H545 H 0.96934 0.94596 0.53248 0.0
H546 H 0.982 0.95288 0.45066 0.0
H547 H 0.965 0.03122 0.45929 0.0
H548 H 0.98399 0.04975 0.45929 0.0
H549 H 0.97438 0.04018 0.5156 0.0
H550 H 0.00922 0.02887 0.54246 0.0
H551 H 0.0189 0.03918 0.48706 0.0
H552 H 0.02402 0.01318 0.50303 0.0
H553 H 0.99221 0.96739 0.37071 0.0
H554 H 0.00854 0.9859 0.3045 0.0
H555 H 0.01301 0.03826 0.39657 0.0
C556 C 0.97867 0.99633 0.54521 0.0
C557 C 0.97176 0.97694 0.55737 0.0
C558 C 0.97393 0.96109 0.52357 0.0
C559 C 0.98106 0.96487 0.47691 0.0
C560 C 0.98655 0.98443 0.46515 0.0
C561 C 0.98622 -0.00029 0.49881 0.0
C562 C 0.99412 0.01909 0.47757 0.0
C563 C 0.97843 0.03606 0.47797 0.0
C564 C 0.01267 0.02544 0.50409 0.0
C565 C 0.99877 0.01231 0.42665 0.0
C566 C 0.99386 0.99241 0.41996 0.0
C567 C 0.99649 0.98288 0.37573 0.0
C568 C 0.00565 0.99356 0.33824 0.0
C569 C 0.01252 0.0133 0.34583 0.0
C570 C 0.00816 0.02308 0.38988 0.0
H571 H 0.46217 0.01449 0.94892 0.0
H572 H 0.5192 0.02537 0.885 0.0
H573 H 0.53502 0.01588 0.96108 0.0
H574 H 0.47366 0.03318 0.06875 0.0
H575 H 0.45958 0.01421 0.09968 0.0
H576 H 0.45253 0.0228 0.04032 0.0
H577 H 0.45437 0.98586 0.00886 0.0
H578 H 0.46073 0.97744 0.06854 0.0
H579 H 0.47645 0.97103 0.01811 0.0
H580 H 0.54479 0.00457 0.04243 0.0
H581 H 0.54826 0.98665 0.12015 0.0
H582 H 0.48504 0.98376 0.13346 0.0
C583 C 0.47799 0.01468 0.95096 0.0
C584 C 0.48953 0.0202 0.9106 0.0
C585 C 0.51015 0.02048 0.9147 0.0
C586 C 0.51924 0.01555 0.95822 0.0
C587 C 0.50747 0.01051 0.99751 0.0
C588 C 0.48733 0.00973 0.99426 0.0
C589 C 0.47826 0.00255 0.04123 0.0
C590 C 0.46522 0.01917 0.06383 0.0
C591 C 0.4668 0.98306 0.03373 0.0
C592 C 0.49654 0.99876 0.07068 0.0
C593 C 0.51318 0.00396 0.04507 0.0
C594 C 0.53189 0.00058 0.06313 0.0
C595 C 0.53372 0.99049 0.1074 0.0
C596 C 0.51692 0.98368 0.13257 0.0
C597 C 0.49811 0.98889 0.11522 0.0
H598 H 0.5339 0.47328 0.56845 0.0
H599 H 0.51119 0.52304 0.65491 0.0
H600 H 0.48276 0.52638 0.60122 0.0
H601 H 0.52105 0.49399 0.4554 0.0
H602 H 0.51447 0.47031 0.42913 0.0
H603 H 0.53236 0.47075 0.47633 0.0
H604 H 0.51177 0.44558 0.52722 0.0
H605 H 0.49397 0.44498 0.47979 0.0
H606 H 0.48641 0.45158 0.54022 0.0
H607 H 0.4583 0.52602 0.53566 0.0
H608 H 0.43738 0.52007 0.46576 0.0
H609 H 0.47576 0.47035 0.42162 0.0
C610 C 0.52276 0.48461 0.57672 0.0
C611 C 0.52472 0.49787 0.61595 0.0
C612 C 0.50995 0.51268 0.62514 0.0
C613 C 0.49379 0.51474 0.59478 0.0
C614 C 0.49263 0.50185 0.55557 0.0
C615 C 0.50655 0.48691 0.54673 0.0
C616 C 0.50205 0.47543 0.50128 0.0
C617 C 0.51846 0.47777 0.46331 0.0
C618 C 0.49832 0.45307 0.51284 0.0
C619 C 0.48349 0.48637 0.48579 0.0
C620 C 0.47838 0.50158 0.5176 0.0
C621 C 0.46203 0.51404 0.5107 0.0
C622 C 0.45029 0.51056 0.47074 0.0
C623 C 0.45492 0.4947 0.43831 0.0
C624 C 0.47189 0.48263 0.44569 0.0
H625 H 0.96719 0.49387 0.07251 0.0
H626 H 0.01743 0.52944 0.03028 0.0
H627 H 0.03037 0.50115 0.98217 0.0
H628 H 0.99356 0.44606 0.08291 0.0
H629 H 0.97406 0.43143 0.0586 0.0
H630 H 0.96848 0.45451 0.09028 0.0
H631 H 0.94948 0.46821 0.01609 0.0
H632 H 0.95504 0.44519 0.98414 0.0
H633 H 0.9616 0.46918 0.95804 0.0
H634 H 0.03784 0.46974 0.93738 0.0
H635 H 0.03982 0.43595 0.90019 0.0
H636 H 0.98537 0.41992 0.971 0.0
C637 C 0.98092 0.49564 0.05321 0.0
C638 C 0.99122 0.51394 0.05502 0.0
C639 C 0.00916 0.51567 0.02924 0.0
C640 C 0.01669 0.49966 0.00179 0.0
C641 C 0.00615 0.48194 0.00036 0.0
C642 C 0.9887 0.47973 0.02537 0.0
C643 C 0.98043 0.45893 0.01737 0.0
C644 C 0.97906 0.44703 0.06514 0.0
C645 C 0.96045 0.46048 0.99242 0.0
C646 C 0.99598 0.4499 0.98408 0.0
C647 C 0.01065 0.46351 0.97474 0.0
C648 C 0.02655 0.45887 0.94469 0.0
C649 C 0.0276 0.43969 0.92391 0.0
C650 C 0.01296 0.42539 0.93369 0.0
C651 C 0.99683 0.43062 0.9636 0.0
H652 H 0.53024 0.97458 0.55151 0.0
H653 H 0.53129 0.03597 0.60531 0.0
H654 H 0.51086 0.04746 0.53729 0.0
H655 H 0.53182 0.9873 0.42424 0.0
H656 H 0.51518 0.96782 0.40762 0.0
H657 H 0.5306 0.96437 0.45951 0.0
H658 H 0.50009 0.95795 0.51356 0.0
H659 H 0.48465 0.96107 0.46174 0.0
H660 H 0.48029 0.97635 0.51443 0.0
H661 H 0.49077 0.05245 0.46353 0.0
H662 H 0.46819 0.04994 0.39539 0.0
H663 H 0.47893 0.9851 0.39106 0.0
C664 C 0.52613 0.99043 0.54907 0.0
C665 C 0.53241 0.00439 0.58367 0.0
C666 C 0.52663 0.02498 0.57933 0.0
C667 C 0.51517 0.0317 0.54058 0.0
C668 C 0.50955 0.01763 0.50662 0.0
C669 C 0.51457 0.99739 0.51082 0.0
C670 C 0.50572 0.98525 0.47075 0.0
C671 C 0.52179 0.97562 0.43864 0.0
C672 C 0.49186 0.96921 0.49136 0.0
C673 C 0.4946 0.00181 0.44397 0.0
C674 C 0.49739 0.02042 0.46472 0.0
C675 C 0.48841 0.03797 0.44702 0.0
C676 C 0.47562 0.03637 0.40821 0.0
C677 C 0.47159 0.01729 0.38818 0.0
C678 C 0.4817 -0.0001 0.4055 0.0
H679 H 0.51979 0.51334 0.09357 0.0
H680 H 0.46021 0.52235 0.14642 0.0
H681 H 0.44773 0.50677 0.07263 0.0
H682 H 0.51056 0.52534 0.9725 0.0
H683 H 0.52703 0.50652 0.94735 0.0
H684 H 0.53173 0.51689 0.00586 0.0
H685 H 0.53218 0.48111 0.04455 0.0
H686 H 0.52821 0.47051 0.98594 0.0
H687 H 0.51181 0.46473 0.03531 0.0
H688 H 0.44167 0.49305 0.99021 0.0
H689 H 0.44253 0.47634 0.91105 0.0
H690 H 0.5061 0.4759 0.91279 0.0
C691 C 0.50413 0.51169 0.09009 0.0
C692 C 0.49098 0.51915 0.12566 0.0
C693 C 0.47059 0.51668 0.11977 0.0
C694 C 0.46334 0.50803 0.07777 0.0
C695 C 0.47668 0.50178 0.04235 0.0
C696 C 0.49665 0.50305 0.04856 0.0
C697 C 0.50786 0.49523 0.00497 0.0
C698 C 0.52002 0.51199 0.98128 0.0
C699 C 0.52077 0.47679 0.01851 0.0
C700 C 0.49105 0.4894 0.97321 0.0
C701 C 0.47319 0.49353 0.99521 0.0
C702 C 0.45556 0.48954 0.97283 0.0
C703 C 0.45621 0.48015 0.92774 0.0
C704 C 0.47437 0.47458 0.90597 0.0
C705 C 0.49197 0.47996 0.92837 0.0
H706 H 0.96962 0.51865 0.55248 0.0
H707 H 0.97442 0.4655 0.64458 0.0
H708 H 0.99036 0.44671 0.57789 0.0
H709 H 0.96 0.49429 0.44258 0.0
H710 H 0.97501 0.5106 0.40597 0.0
H711 H 0.96383 0.51997 0.46073 0.0
H712 H 0.99774 0.52999 0.49312 0.0
H713 H 0.0089 0.52126 0.43782 0.0
H714 H 0.01732 0.51135 0.49489 0.0
H715 H 0.00285 0.43304 0.4991 0.0
H716 H 0.01998 0.42775 0.42151 0.0
H717 H 0.00987 0.49086 0.38378 0.0
C718 C 0.97422 0.50313 0.55887 0.0
C719 C 0.97014 0.49325 0.6031 0.0
C720 C 0.97685 0.47312 0.61044 0.0
C721 C 0.98583 0.46232 0.57276 0.0
C722 C 0.98844 0.47213 0.52857 0.0
C723 C 0.98353 0.49229 0.52204 0.0
C724 C 0.98909 0.49964 0.47204 0.0
C725 C 0.9709 0.50653 0.44367 0.0
C726 C 0.00417 0.51655 0.47464 0.0
C727 C 0.99799 0.48045 0.45146 0.0
C728 C 0.99696 0.46464 0.48424 0.0
C729 C 0.00407 0.44538 0.47344 0.0
C730 C 0.01371 0.44253 0.4292 0.0
C731 C 0.01677 0.45904 0.39725 0.0
C732 C 0.00789 0.47796 0.40751 0.0
H733 H 0.97947 0.97183 0.06623 0.0
H734 H 0.03121 0.97267 0.1558 0.0
H735 H 0.04849 0.99213 0.09265 0.0
H736 H 0.00392 0.96518 0.95442 0.0
H737 H 0.9875 0.98148 0.92084 0.0
H738 H 0.97881 0.9684 0.9739 0.0
H739 H 0.96739 0.00237 0.0118 0.0
H740 H 0.97562 0.01547 0.95837 0.0
H741 H 0.98454 0.02258 0.01665 0.0
H742 H 0.06073 0.00983 0.01744 0.0
H743 H 0.06532 0.02886 0.94119 0.0
H744 H 0.00545 0.01644 0.9018 0.0
C745 C 0.99434 0.97633 0.07291 0.0
C746 C 0.004 0.97067 0.11588 0.0
C747 C 0.02346 0.97691 0.12324 0.0
C748 C 0.03347 0.98781 0.08741 0.0
C749 C 0.02375 0.99246 0.04468 0.0
C750 C 0.0045 0.98726 0.03771 0.0
C751 C 0.99729 0.99427 0.98886 0.0
C752 C 0.99155 0.97626 0.95768 0.0
C753 C 0.98021 0.00959 0.99426 0.0
C754 C 0.01552 0.00419 0.96933 0.0
C755 C 0.0307 0.00282 0.0018 0.0
C756 C 0.04893 0.01105 0.99176 0.0
C757 C 0.05147 0.02165 0.94815 0.0
C758 C 0.03576 0.02409 0.91554 0.0
C759 C 0.01776 0.01476 0.92591 0.0
H760 H 0.05008 0.07786 0.19355 0.0
H761 H 0.112 0.07049 0.16019 0.0
H762 H 0.10758 0.0912 0.08643 0.0
H763 H 0.03378 0.07143 0.07935 0.0
H764 H 0.01383 0.08959 0.08295 0.0
H765 H 0.02267 0.07748 0.13684 0.0
H766 H 0.02864 0.11251 0.17445 0.0
H767 H 0.01996 0.12479 0.12022 0.0
H768 H 0.04386 0.13035 0.14295 0.0
H769 H 0.09537 0.10711 0.00989 0.0
H770 H 0.0762 0.11503 0.9368 0.0
H771 H 0.02275 0.11431 0.02159 0.0
C772 C 0.06283 0.08096 0.17138 0.0
C773 C 0.08139 0.07253 0.18277 0.0
C774 C 0.09763 0.07681 0.15238 0.0
C775 C 0.09529 0.08869 0.11054 0.0
C776 C 0.07669 0.09648 0.09996 0.0
C777 C 0.06077 0.09287 0.12976 0.0
C778 C 0.04196 0.10092 0.10782 0.0
C779 C 0.02721 0.08384 0.10133 0.0
C780 C 0.03309 0.11817 0.13818 0.0
C781 C 0.0496 0.1087 0.05982 0.0
C782 C 0.06974 0.10635 0.05624 0.0
C783 C 0.07972 0.10966 0.01277 0.0
C784 C 0.06876 0.11438 0.97148 0.0
C785 C 0.04811 0.11575 0.97416 0.0
C786 C 0.03859 0.11403 0.01928 0.0
H787 H 0.42742 0.09564 0.66695 0.0
H788 H 0.41547 0.03983 0.74401 0.0
H789 H 0.39475 0.02898 0.67691 0.0
H790 H 0.37911 0.10158 0.60568 0.0
H791 H 0.39052 0.11069 0.55096 0.0
H792 H 0.40135 0.11571 0.60857 0.0
H793 H 0.43413 0.09925 0.57947 0.0
H794 H 0.42347 0.09444 0.52189 0.0
H795 H 0.43417 0.0739 0.55627 0.0
H796 H 0.37943 0.02209 0.5972 0.0
H797 H 0.37344 0.01872 0.50967 0.0
H798 H 0.39517 0.07887 0.48491 0.0
C799 C 0.42002 0.08137 0.67035 0.0
C800 C 0.42296 0.06865 0.71088 0.0
C801 C 0.41341 0.04986 0.71334 0.0
C802 C 0.40147 0.04365 0.67558 0.0
C803 C 0.39915 0.05642 0.63571 0.0
C804 C 0.40822 0.07489 0.63286 0.0
C805 C 0.40558 0.08463 0.58374 0.0
C806 C 0.39341 0.10432 0.58749 0.0
C807 C 0.42551 0.08825 0.5589 0.0
C808 C 0.39431 0.0684 0.55867 0.0
C809 C 0.39033 0.05242 0.58952 0.0
C810 C 0.38202 0.0347 0.57301 0.0
C811 C 0.37854 0.03293 0.52342 0.0
C812 C 0.38356 0.0487 0.49129 0.0
C813 C 0.39071 0.06691 0.50934 0.0
H814 H 0.39104 0.43653 0.16948 0.0
H815 H 0.44422 0.42042 0.24606 0.0
H816 H 0.45457 0.39832 0.17878 0.0
H817 H 0.3841 0.38733 0.10804 0.0
H818 H 0.37612 0.39966 0.05325 0.0
H819 H 0.37124 0.41133 0.11078 0.0
H820 H 0.38864 0.44378 0.08156 0.0
H821 H 0.39328 0.43232 0.024 0.0
H822 H 0.41333 0.44183 0.05824 0.0
H823 H 0.46119 0.38174 0.09929 0.0
H824 H 0.46493 0.37524 0.0118 0.0
H825 H 0.40761 0.40192 0.98706 0.0
C826 C 0.40462 0.42795 0.17267 0.0
C827 C 0.41674 0.43007 0.2132 0.0
C828 C 0.43467 0.41901 0.21539 0.0
C829 C 0.44059 0.40626 0.17754 0.0
C830 C 0.4284 0.40471 0.13776 0.0
C831 C 0.41083 0.41536 0.13501 0.0
C832 C 0.40167 0.41325 0.0859 0.0
C833 C 0.38212 0.40223 0.08975 0.0
C834 C 0.3991 0.43402 0.06098 0.0
C835 C 0.41714 0.40034 0.06083 0.0
C836 C 0.43227 0.39517 0.09163 0.0
C837 C 0.44924 0.38526 0.07513 0.0
C838 C 0.45121 0.38146 0.02554 0.0
C839 C 0.43637 0.38776 0.99338 0.0
C840 C 0.41881 0.39642 0.01149 0.0
H841 H 0.07564 0.39671 0.48795 0.0
H842 H 0.12223 0.4328 0.54436 0.0
H843 H 0.11671 0.41765 0.62555 0.0
H844 H 0.04406 0.40745 0.58154 0.0
H845 H 0.03215 0.38339 0.5822 0.0
H846 H 0.04302 0.39274 0.52725 0.0
H847 H 0.06435 0.3601 0.51992 0.0
H848 H 0.05337 0.35046 0.57466 0.0
H849 H 0.07961 0.35219 0.56955 0.0
H850 H 0.1034 0.40114 0.702 0.0
H851 H 0.08262 0.38708 0.76717 0.0
H852 H 0.04166 0.36625 0.66093 0.0
C853 C 0.08498 0.40112 0.51721 0.0
C854 C 0.09938 0.41588 0.5101 0.0
C855 C 0.11133 0.42127 0.54904 0.0
C856 C 0.1082 0.41281 0.59521 0.0
C857 C 0.09297 0.39919 0.60154 0.0
C858 C 0.08152 0.39348 0.56343 0.0
C859 C 0.06423 0.38122 0.58025 0.0
C860 C 0.04472 0.39184 0.56704 0.0
C861 C 0.06547 0.35971 0.55989 0.0
C862 C 0.06744 0.38116 0.63409 0.0
C863 C 0.08438 0.39111 0.64561 0.0
C864 C 0.09019 0.39324 0.69327 0.0
C865 C 0.0783 0.3852 0.73001 0.0
C866 C 0.06053 0.37564 0.71896 0.0
C867 C 0.05514 0.37352 0.67034 0.0
H868 H 0.60395 0.94356 0.82982 0.0
H869 H 0.5523 0.92808 0.74945 0.0
H870 H 0.53982 0.90911 0.82026 0.0
H871 H 0.60866 0.89664 0.90185 0.0
H872 H 0.6157 0.91002 0.95509 0.0
H873 H 0.6218 0.9199 0.89614 0.0
H874 H 0.60419 0.95382 0.91708 0.0
H875 H 0.59821 0.94409 0.97605 0.0
H876 H 0.57904 0.95365 0.93744 0.0
H877 H 0.53172 0.8943 0.90222 0.0
H878 H 0.52741 0.8878 0.98996 0.0
H879 H 0.58384 0.91384 0.01651 0.0
C880 C 0.59022 0.93579 0.82671 0.0
C881 C 0.57919 0.93709 0.78396 0.0
C882 C 0.56103 0.9272 0.78181 0.0
C883 C 0.55389 0.91628 0.82173 0.0
C884 C 0.56506 0.91548 0.86355 0.0
C885 C 0.58278 0.92511 0.86634 0.0
C886 C 0.59095 0.92389 0.91682 0.0
C887 C 0.61043 0.91189 0.91749 0.0
C888 C 0.59322 0.94512 0.93808 0.0
C889 C 0.57489 0.91243 0.94232 0.0
C890 C 0.56023 0.90736 0.91088 0.0
C891 C 0.54324 0.89791 0.92699 0.0
C892 C 0.54094 0.89417 0.97668 0.0
C893 C 0.55544 0.9001 0.00933 0.0
C894 C 0.57279 0.90881 0.99182 0.0
H895 H 0.54934 0.54408 0.31639 0.0
H896 H 0.57183 0.60485 0.30686 0.0
H897 H 0.593 0.59769 0.37679 0.0
H898 H 0.54538 0.54278 0.44139 0.0
H899 H 0.55215 0.51648 0.44802 0.0
H900 H 0.54098 0.52538 0.39321 0.0
H901 H 0.57042 0.51093 0.34381 0.0
H902 H 0.58173 0.50206 0.39872 0.0
H903 H 0.59489 0.51845 0.35811 0.0
H904 H 0.60897 0.58525 0.45288 0.0
H905 H 0.61616 0.56936 0.53221 0.0
H906 H 0.58357 0.51686 0.49161 0.0
C907 C 0.55903 0.55574 0.32836 0.0
C908 C 0.55904 0.57497 0.30598 0.0
C909 C 0.57158 0.58999 0.32345 0.0
C910 C 0.58379 0.58601 0.36291 0.0
C911 C 0.58329 0.56695 0.38449 0.0
C912 C 0.57116 0.55209 0.36795 0.0
C913 C 0.57177 0.53364 0.40054 0.0
C914 C 0.55137 0.52934 0.42205 0.0
C915 C 0.58021 0.51518 0.37368 0.0
C916 C 0.58569 0.54068 0.4387 0.0
C917 C 0.59248 0.55979 0.42846 0.0
C918 C 0.6041 0.57012 0.46083 0.0
C919 C 0.60824 0.56098 0.50557 0.0
C920 C 0.60063 0.54186 0.51727 0.0
C921 C 0.58985 0.53135 0.48281 0.0
H922 H 0.91222 0.58814 0.99674 0.0
H923 H 0.97016 0.60981 0.96369 0.0
H924 H 0.96323 0.60796 0.87646 0.0
H925 H 0.91299 0.5514 0.918 0.0
H926 H 0.88777 0.5527 0.89957 0.0
H927 H 0.89442 0.56184 0.95775 0.0
H928 H 0.87896 0.59693 0.93795 0.0
H929 H 0.87188 0.58779 0.87969 0.0
H930 H 0.88634 0.61017 0.88386 0.0
H931 H 0.95368 0.59533 0.7966 0.0
H932 H 0.94155 0.57506 0.72945 0.0
H933 H 0.88951 0.56111 0.81324 0.0
C934 C 0.92299 0.59345 0.97087 0.0
C935 C 0.9416 0.59928 0.98627 0.0
C936 C 0.9557 0.60564 0.95214 0.0
C937 C 0.95188 0.60458 0.90264 0.0
C938 C 0.9338 0.59736 0.88827 0.0
C939 C 0.9194 0.59227 0.92144 0.0
C940 C 0.90259 0.58183 0.89739 0.0
C941 C 0.89927 0.5607 0.91948 0.0
C942 C 0.88383 0.59497 0.89986 0.0
C943 C 0.9104 0.58051 0.84621 0.0
C944 C 0.92821 0.58996 0.84146 0.0
C945 C 0.93948 0.58845 0.79941 0.0
C946 C 0.93254 0.57676 0.7616 0.0
C947 C 0.91451 0.56667 0.76608 0.0
C948 C 0.90309 0.56908 0.80842 0.0
H949 H 0.93791 0.88376 0.31995 0.0
H950 H 0.9217 0.93871 0.24277 0.0
H951 H 0.89787 0.94735 0.30723 0.0
H952 H 0.88873 0.87371 0.37731 0.0
H953 H 0.89991 0.86554 0.43295 0.0
H954 H 0.9125 0.8614 0.37627 0.0
H955 H 0.94263 0.88035 0.40762 0.0
H956 H 0.93029 0.88424 0.46432 0.0
H957 H 0.93935 0.90558 0.43066 0.0
H958 H 0.88005 0.95286 0.38488 0.0
H959 H 0.87332 0.95668 0.47215 0.0
H960 H 0.90069 0.8984 0.49963 0.0
C961 C 0.9289 0.89729 0.31594 0.0
C962 C 0.93152 0.91046 0.27613 0.0
C963 C 0.91991 0.92836 0.2729 0.0
C964 C 0.90618 0.93329 0.30911 0.0
C965 C 0.90417 0.92016 0.34838 0.0
C966 C 0.91532 0.90256 0.35212 0.0
C967 C 0.91268 0.89267 0.40115 0.0
C968 C 0.90287 0.87211 0.39663 0.0
C969 C 0.9324 0.89061 0.42747 0.0
C970 C 0.89906 0.90793 0.42527 0.0
C971 C 0.89384 0.9234 0.39378 0.0
C972 C 0.88354 0.94058 0.40952 0.0
C973 C 0.87955 0.94256 0.45906 0.0
C974 C 0.88605 0.92757 0.49199 0.0
C975 C 0.89488 0.9096 0.47462 0.0
H976 H 0.92518 0.90282 0.00869 0.0
H977 H 0.97853 0.86967 0.97336 0.0
H978 H 0.97134 0.87359 0.88621 0.0
H979 H 0.89516 0.88496 0.90367 0.0
H980 H 0.88352 0.90949 0.89736 0.0
H981 H 0.89095 0.90046 0.95605 0.0
H982 H 0.91116 0.93276 0.96703 0.0
H983 H 0.90414 0.94175 0.90823 0.0
H984 H 0.9297 0.939 0.9229 0.0
H985 H 0.96167 0.88698 0.80463 0.0
H986 H 0.94877 0.90598 0.73428 0.0
H987 H 0.90099 0.92955 0.82275 0.0
C988 C 0.93484 0.89566 0.98243 0.0
C989 C 0.95222 0.88572 0.99713 0.0
C990 C 0.96497 0.877 0.96235 0.0
C991 C 0.96102 0.87925 0.91295 0.0
C992 C 0.94414 0.88999 0.89937 0.0
C993 C 0.93104 0.89771 0.93318 0.0
C994 C 0.91508 0.91038 0.90956 0.0
C995 C 0.89498 0.90074 0.9171 0.0
C996 C 0.91504 0.93226 0.92802 0.0
C997 C 0.92163 0.90928 0.85732 0.0
C998 C 0.93836 0.89738 0.85211 0.0
C999 C 0.94828 0.89587 0.80805 0.0
C1000 C 0.94093 0.90682 0.76839 0.0
C1001 C 0.92376 0.919 0.773 0.0
C1002 C 0.91387 0.91995 0.81791 0.0
H1003 H 0.61016 0.96741 0.46811 0.0
H1004 H 0.62226 0.90974 0.53673 0.0
H1005 H 0.6149 0.89234 0.46052 0.0
H1006 H 0.56935 0.9538 0.41847 0.0
H1007 H 0.57112 0.96809 0.36303 0.0
H1008 H 0.58366 0.97637 0.41557 0.0
H1009 H 0.6168 0.97572 0.36901 0.0
H1010 H 0.60426 0.96795 0.31556 0.0
H1011 H 0.62467 0.95312 0.33799 0.0
H1012 H 0.59826 0.88134 0.38513 0.0
H1013 H 0.57634 0.87772 0.31549 0.0
H1014 H 0.57386 0.94293 0.29818 0.0
C1015 C 0.6125 0.95121 0.46583 0.0
C1016 C 0.61718 0.93983 0.50735 0.0
C1017 C 0.61923 0.91863 0.50457 0.0
C1018 C 0.61491 0.90867 0.46156 0.0
C1019 C 0.60871 0.92025 0.42202 0.0
C1020 C 0.60789 0.94115 0.42357 0.0
C1021 C 0.59752 0.95006 0.38017 0.0
C1022 C 0.57935 0.96281 0.39525 0.0
C1023 C 0.61166 0.96244 0.34881 0.0
C1024 C 0.59177 0.93096 0.35509 0.0
C1025 C 0.59861 0.9139 0.37913 0.0
C1026 C 0.59329 0.89458 0.36528 0.0
C1027 C 0.5807 0.89268 0.32592 0.0
C1028 C 0.5734 0.91004 0.30127 0.0
C1029 C 0.57933 0.92933 0.31583 0.0
H1030 H 0.52774 0.58524 0.98539 0.0
H1031 H 0.5821 0.60446 0.04718 0.0
H1032 H 0.59935 0.59734 0.96984 0.0
H1033 H 0.54607 0.54437 0.92995 0.0
H1034 H 0.5313 0.54578 0.87648 0.0
H1035 H 0.52241 0.55693 0.9315 0.0
H1036 H 0.51787 0.5916 0.88908 0.0
H1037 H 0.52634 0.58058 0.8332 0.0
H1038 H 0.53814 0.6025 0.85659 0.0
H1039 H 0.6114 0.58184 0.89196 0.0
H1040 H 0.61694 0.56141 0.81864 0.0
H1041 H 0.55433 0.5526 0.80844 0.0
C1042 C 0.54309 0.58878 0.98167 0.0
C1043 C 0.55365 0.59563 0.02142 0.0
C1044 C 0.57381 0.59958 0.01644 0.0
C1045 C 0.58368 0.5955 0.9728 0.0
C1046 C 0.57302 0.58778 0.93468 0.0
C1047 C 0.55306 0.58483 0.93848 0.0
C1048 C 0.54534 0.57421 0.89478 0.0
C1049 C 0.53573 0.55413 0.90904 0.0
C1050 C 0.53108 0.58806 0.86675 0.0
C1051 C 0.56417 0.57072 0.86679 0.0
C1052 C 0.57996 0.57887 0.88991 0.0
C1053 C 0.59908 0.57583 0.87294 0.0
C1054 C 0.60209 0.56411 0.83144 0.0
C1055 C 0.58606 0.55549 0.8076 0.0
C1056 C 0.56688 0.55921 0.82529 0.0
H1057 H 0.93168 0.53645 0.27511 0.0
H1058 H 0.91706 0.60037 0.26576 0.0
H1059 H 0.89558 0.59725 0.33735 0.0
H1060 H 0.88316 0.51917 0.32625 0.0
H1061 H 0.89517 0.50108 0.36549 0.0
H1062 H 0.90591 0.50722 0.30761 0.0
H1063 H 0.9382 0.51678 0.34942 0.0
H1064 H 0.92756 0.51055 0.40701 0.0
H1065 H 0.93741 0.53529 0.39676 0.0
H1066 H 0.88034 0.58873 0.41661 0.0
H1067 H 0.87494 0.57593 0.49978 0.0
H1068 H 0.89918 0.51768 0.45853 0.0
C1069 C 0.92342 0.54961 0.28722 0.0
C1070 C 0.92589 0.5686 0.26469 0.0
C1071 C 0.91535 0.58565 0.28245 0.0
C1072 C 0.90296 0.58399 0.32284 0.0
C1073 C 0.90121 0.56517 0.3451 0.0
C1074 C 0.91117 0.54825 0.32792 0.0
C1075 C 0.90911 0.53053 0.36232 0.0
C1076 C 0.89765 0.51349 0.33901 0.0
C1077 C 0.92926 0.52286 0.37989 0.0
C1078 C 0.89733 0.54038 0.40259 0.0
C1079 C 0.89245 0.56023 0.39145 0.0
C1080 C 0.8836 0.57307 0.42531 0.0
C1081 C 0.88048 0.56569 0.47234 0.0
C1082 C 0.88639 0.54581 0.48485 0.0
C1083 C 0.89411 0.5328 0.44912 0.0
H1084 H 0.45767 0.09992 0.02187 0.0
H1085 H 0.40193 0.11049 0.95301 0.0
H1086 H 0.38488 0.10488 0.03111 0.0
H1087 H 0.44446 0.05964 0.08195 0.0
H1088 H 0.45813 0.06327 0.13635 0.0
H1089 H 0.46629 0.0745 0.08074 0.0
H1090 H 0.46533 0.11007 0.11906 0.0
H1091 H 0.45766 0.09893 0.17561 0.0
H1092 H 0.44326 0.11907 0.14869 0.0
H1093 H 0.37405 0.08984 0.11004 0.0
H1094 H 0.37036 0.06924 0.18419 0.0
H1095 H 0.43345 0.06779 0.20095 0.0
C1096 C 0.44196 0.10235 0.02423 0.0
C1097 C 0.43104 0.10615 0.98225 0.0
C1098 C 0.41046 0.1082 0.98537 0.0
C1099 C 0.40071 0.10488 0.02951 0.0
C1100 C 0.41184 0.09972 0.06992 0.0
C1101 C 0.4321 0.09888 0.06783 0.0
C1102 C 0.4406 0.08974 0.11344 0.0
C1103 C 0.45309 0.07067 0.10244 0.0
C1104 C 0.45241 0.10539 0.14083 0.0
C1105 C 0.42203 0.08455 0.14048 0.0
C1106 C 0.40557 0.09069 0.11529 0.0
C1107 C 0.38682 0.08547 0.13071 0.0
C1108 C 0.38488 0.07362 0.1727 0.0
C1109 C 0.40161 0.06696 0.19859 0.0
C1110 C 0.42034 0.07289 0.18252 0.0
H1111 H 0.42918 0.4438 0.69795 0.0
H1112 H 0.41726 0.37968 0.69728 0.0
H1113 H 0.39592 0.38478 0.62678 0.0
H1114 H 0.3806 0.46226 0.65537 0.0
H1115 H 0.39136 0.48164 0.61814 0.0
H1116 H 0.40319 0.47356 0.67305 0.0
H1117 H 0.43521 0.46529 0.62515 0.0
H1118 H 0.42356 0.47376 0.57067 0.0
H1119 H 0.43426 0.44871 0.57401 0.0
H1120 H 0.37964 0.39597 0.55012 0.0
H1121 H 0.37278 0.41187 0.47063 0.0
H1122 H 0.39444 0.46855 0.52242 0.0
C1123 C 0.42173 0.4309 0.68368 0.0
C1124 C 0.42478 0.41138 0.70336 0.0
C1125 C 0.41513 0.3948 0.68286 0.0
C1126 C 0.40282 0.39757 0.64306 0.0
C1127 C 0.40025 0.41701 0.62424 0.0
C1128 C 0.40953 0.43337 0.64377 0.0
C1129 C 0.40635 0.45222 0.61347 0.0
C1130 C 0.39467 0.46838 0.64171 0.0
C1131 C 0.426 0.46046 0.59472 0.0
C1132 C 0.39435 0.44379 0.57304 0.0
C1133 C 0.39064 0.42352 0.5802 0.0
C1134 C 0.38195 0.41195 0.54467 0.0
C1135 C 0.3779 0.42109 0.49984 0.0
C1136 C 0.38265 0.44147 0.49133 0.0
C1137 C 0.39005 0.45312 0.52903 0.0
H1138 H 0.10744 0.37326 0.01192 0.0
H1139 H 0.06659 0.32624 0.05001 0.0
H1140 H 0.06753 0.33676 0.1351 0.0
H1141 H 0.13614 0.3699 0.12896 0.0
H1142 H 0.13966 0.3968 0.12776 0.0
H1143 H 0.13844 0.38306 0.07203 0.0
H1144 H 0.11049 0.40718 0.04366 0.0
H1145 H 0.11124 0.4207 0.09944 0.0
H1146 H 0.08864 0.40986 0.08028 0.0
H1147 H 0.06707 0.35742 0.21058 0.0
H1148 H 0.06927 0.38333 0.27401 0.0
H1149 H 0.11279 0.41473 0.18848 0.0
C1150 C 0.09926 0.36461 0.03832 0.0
C1151 C 0.08637 0.34941 0.02404 0.0
C1152 C 0.07592 0.33852 0.05976 0.0
C1153 C 0.07657 0.34421 0.10832 0.0
C1154 C 0.08833 0.3603 0.12063 0.0
C1155 C 0.10001 0.3699 0.08687 0.0
C1156 C 0.11014 0.38778 0.10836 0.0
C1157 C 0.13242 0.38416 0.10935 0.0
C1158 C 0.10479 0.40753 0.08133 0.0
C1159 C 0.10144 0.38748 0.15869 0.0
C1160 C 0.08896 0.37146 0.16522 0.0
C1161 C 0.0773 0.36961 0.20655 0.0
C1162 C 0.0785 0.38446 0.2421 0.0
C1163 C 0.09139 0.40077 0.23616 0.0
C1164 C 0.1032 0.40208 0.19432 0.0
H1165 H 0.07942 0.08695 0.46906 0.0
H1166 H 0.10928 0.03001 0.49823 0.0
H1167 H 0.10357 0.03474 0.58593 0.0
H1168 H 0.09412 0.11396 0.58253 0.0
H1169 H 0.07034 0.12611 0.58732 0.0
H1170 H 0.0806 0.12026 0.52877 0.0
H1171 H 0.0495 0.10037 0.50859 0.0
H1172 H 0.03927 0.10578 0.56714 0.0
H1173 H 0.04209 0.07997 0.54777 0.0
H1174 H 0.08899 0.04255 0.66761 0.0
H1175 H 0.06885 0.05383 0.73728 0.0
H1176 H 0.04865 0.10594 0.65449 0.0
C1177 C 0.08548 0.07597 0.49427 0.0
C1178 C 0.09499 0.05828 0.47747 0.0
C1179 C 0.10228 0.04383 0.51084 0.0
C1180 C 0.09901 0.04637 0.56057 0.0
C1181 C 0.08864 0.06355 0.576 0.0
C1182 C 0.08227 0.07828 0.54381 0.0
C1183 C 0.06953 0.0941 0.56858 0.0
C1184 C 0.07923 0.11484 0.56669 0.0
C1185 C 0.04888 0.09509 0.54673 0.0
C1186 C 0.0691 0.08563 0.61943 0.0
C1187 C 0.08032 0.0681 0.62316 0.0
C1188 C 0.08056 0.05652 0.66543 0.0
C1189 C 0.06898 0.06299 0.70472 0.0
C1190 C 0.05734 0.08088 0.70151 0.0
C1191 C 0.05773 0.09245 0.65848 0.0
H1192 H 0.01853 0.90745 0.29472 0.0
H1193 H 0.04136 0.89027 0.15498 0.0
H1194 H 0.07107 0.90992 0.16916 0.0
H1195 H 0.02692 0.95407 0.28514 0.0
H1196 H 0.03402 0.95974 0.34601 0.0
H1197 H 0.01903 0.93846 0.33509 0.0
H1198 H 0.04421 0.91468 0.37687 0.0
H1199 H 0.05915 0.93615 0.38918 0.0
H1200 H 0.0695 0.91471 0.35765 0.0
H1201 H 0.09276 0.93894 0.18763 0.0
H1202 H 0.10388 0.97314 0.20896 0.0
H1203 H 0.06603 0.97248 0.33503 0.0
C1204 C 0.03056 0.90657 0.26902 0.0
C1205 C 0.02811 0.89679 0.22469 0.0
C1206 C 0.04341 0.89698 0.19003 0.0
C1207 C 0.06028 0.90829 0.19772 0.0
C1208 C 0.06163 0.91919 0.24043 0.0
C1209 C 0.04731 0.91799 0.27614 0.0
C1210 C 0.04995 0.934 0.31407 0.0
C1211 C 0.03138 0.94734 0.32032 0.0
C1212 C 0.05607 0.9243 0.3623 0.0
C1213 C 0.06662 0.94567 0.29172 0.0
C1214 C 0.07378 0.93649 0.25036 0.0
C1215 C 0.08768 0.9459 0.22076 0.0
C1216 C 0.09394 0.96532 0.23303 0.0
C1217 C 0.08586 0.97525 0.27374 0.0
C1218 C 0.07259 0.96499 0.30408 0.0
H1219 H 0.59073 0.01645 0.78527 0.0
H1220 H 0.60473 0.0446 0.64873 0.0
H1221 H 0.58281 0.07353 0.66876 0.0
H1222 H 0.54652 0.02131 0.75809 0.0
H1223 H 0.53444 0.02404 0.81506 0.0
H1224 H 0.55751 0.01076 0.81177 0.0
H1225 H 0.57603 0.0336 0.86853 0.0
H1226 H 0.55291 0.04593 0.88219 0.0
H1227 H 0.57353 0.06067 0.86285 0.0
H1228 H 0.55296 0.09455 0.69417 0.0
H1229 H 0.51899 0.10388 0.7194 0.0
H1230 H 0.52178 0.0582 0.83213 0.0
C1231 C 0.59052 0.02963 0.76177 0.0
C1232 C 0.60006 0.02886 0.71669 0.0
C1233 C 0.59818 0.04542 0.68445 0.0
C1234 C 0.58553 0.0618 0.69542 0.0
C1235 C 0.57454 0.06106 0.73821 0.0
C1236 C 0.57701 0.04525 0.77094 0.0
C1237 C 0.55971 0.04383 0.80507 0.0
C1238 C 0.54895 0.02383 0.79718 0.0
C1239 C 0.56592 0.04616 0.8578 0.0
C1240 C 0.54747 0.06166 0.78812 0.0
C1241 C 0.55618 0.0716 0.74977 0.0
C1242 C 0.54627 0.08713 0.72495 0.0
C1243 C 0.52699 0.09235 0.73944 0.0
C1244 C 0.51776 0.08174 0.77767 0.0
C1245 C 0.52844 0.06663 0.80283 0.0
H1246 H 0.41446 0.53256 0.34868 0.0
H1247 H 0.38655 0.52663 0.21052 0.0
H1248 H 0.40064 0.5591 0.18385 0.0
H1249 H 0.41602 0.59158 0.35093 0.0
H1250 H 0.43984 0.58981 0.37815 0.0
H1251 H 0.42163 0.57128 0.39259 0.0
H1252 H 0.44602 0.54274 0.36753 0.0
H1253 H 0.4641 0.56099 0.35296 0.0
H1254 H 0.45681 0.54326 0.30785 0.0
H1255 H 0.42544 0.58473 0.16406 0.0
H1256 H 0.45805 0.59954 0.15272 0.0
H1257 H 0.47067 0.58897 0.30314 0.0
C1258 C 0.41049 0.53874 0.31378 0.0
C1259 C 0.39936 0.52736 0.28172 0.0
C1260 C 0.39472 0.53542 0.23588 0.0
C1261 C 0.40273 0.55385 0.22055 0.0
C1262 C 0.41503 0.56403 0.25186 0.0
C1263 C 0.41856 0.55687 0.29809 0.0
C1264 C 0.43527 0.56775 0.32131 0.0
C1265 C 0.42773 0.58089 0.36322 0.0
C1266 C 0.45148 0.5528 0.33829 0.0
C1267 C 0.442 0.58071 0.27934 0.0
C1268 C 0.42964 0.57906 0.24023 0.0
C1269 C 0.43473 0.58684 0.19492 0.0
C1270 C 0.45324 0.59538 0.18877 0.0
C1271 C 0.46641 0.59599 0.22761 0.0
C1272 C 0.46034 0.58955 0.27377 0.0
H1273 H 0.91564 0.46046 0.65069 0.0
H1274 H 0.87933 0.47181 0.77683 0.0
H1275 H 0.88881 0.43808 0.80975 0.0
H1276 H 0.90884 0.40274 0.64874 0.0
H1277 H 0.93383 0.39927 0.62854 0.0
H1278 H 0.91992 0.42134 0.60984 0.0
H1279 H 0.94687 0.44376 0.64244 0.0
H1280 H 0.96085 0.42222 0.6628 0.0
H1281 H 0.95387 0.44174 0.70496 0.0
H1282 H 0.90773 0.40661 0.83556 0.0
H1283 H 0.93369 0.38107 0.85183 0.0
H1284 H 0.95803 0.39108 0.70875 0.0
C1285 C 0.90905 0.45545 0.68433 0.0
C1286 C 0.89671 0.46856 0.71123 0.0
C1287 C 0.88855 0.46179 0.75541 0.0
C1288 C 0.8939 0.44267 0.7743 0.0
C1289 C 0.907 0.43047 0.74788 0.0
C1290 C 0.91411 0.43648 0.70323 0.0
C1291 C 0.92985 0.42208 0.68461 0.0
C1292 C 0.92267 0.41068 0.64031 0.0
C1293 C 0.949 0.43311 0.67317 0.0
C1294 C 0.93191 0.40807 0.72759 0.0
C1295 C 0.91812 0.4126 0.76302 0.0
C1296 C 0.91826 0.40266 0.80759 0.0
C1297 C 0.93309 0.38815 0.81651 0.0
C1298 C 0.94787 0.38407 0.78145 0.0
C1299 C 0.94684 0.39377 0.73604 0.0
H1300 H 0.95725 0.06779 0.83261 0.0
H1301 H 0.96552 0.10203 0.70059 0.0
H1302 H 0.93742 0.08486 0.6646 0.0
H1303 H 0.95201 0.0242 0.78442 0.0
H1304 H 0.93358 0.01408 0.82437 0.0
H1305 H 0.94917 0.03352 0.8451 0.0
H1306 H 0.91896 0.05601 0.86668 0.0
H1307 H 0.90311 0.03641 0.84643 0.0
H1308 H 0.90079 0.06157 0.82157 0.0
H1309 H 0.91672 0.05713 0.63572 0.0
H1310 H 0.90392 0.02329 0.61871 0.0
H1311 H 0.90763 0.00746 0.76989 0.0
C1312 C 0.95241 0.07241 0.79704 0.0
C1313 C 0.96335 0.08627 0.76938 0.0
C1314 C 0.95705 0.09173 0.72261 0.0
C1315 C 0.94113 0.08198 0.70192 0.0
C1316 C 0.93146 0.06721 0.729 0.0
C1317 C 0.93657 0.06286 0.7762 0.0
C1318 C 0.92634 0.04425 0.7951 0.0
C1319 C 0.94116 0.02808 0.81323 0.0
C1320 C 0.91141 0.04991 0.83479 0.0
C1321 C 0.91615 0.03763 0.74988 0.0
C1322 C 0.91881 0.05135 0.71243 0.0
C1323 C 0.91374 0.04676 0.66517 0.0
C1324 C 0.90646 0.02754 0.65575 0.0
C1325 C 0.90415 0.01326 0.69344 0.0
C1326 C 0.90836 0.01862 0.74115 0.0
H1327 H 0.47361 0.92538 0.15936 0.0
H1328 H 0.47718 0.89008 0.29098 0.0
H1329 H 0.44426 0.90297 0.31558 0.0
H1330 H 0.45767 0.96707 0.20683 0.0
H1331 H 0.44147 0.97532 0.15927 0.0
H1332 H 0.46139 0.95827 0.14599 0.0
H1333 H 0.43735 0.93295 0.11014 0.0
H1334 H 0.41712 0.9499 0.12395 0.0
H1335 H 0.41703 0.92424 0.1462 0.0
H1336 H 0.41635 0.92672 0.33527 0.0
H1337 H 0.39705 0.95828 0.34779 0.0
H1338 H 0.41135 0.97788 0.2029 0.0
C1339 C 0.46693 0.91961 0.19219 0.0
C1340 C 0.47764 0.90665 0.22313 0.0
C1341 C 0.46893 0.8997 0.26643 0.0
C1342 C 0.45025 0.90699 0.28057 0.0
C1343 C 0.44045 0.92081 0.2504 0.0
C1344 C 0.4484 0.92668 0.20645 0.0
C1345 C 0.43692 0.94411 0.18423 0.0
C1346 C 0.45013 0.96227 0.17359 0.0
C1347 C 0.42648 0.93739 0.13842 0.0
C1348 C 0.42237 0.94849 0.22441 0.0
C1349 C 0.4241 0.93447 0.26163 0.0
C1350 C 0.4143 0.93727 0.30563 0.0
C1351 C 0.40325 0.95518 0.31244 0.0
C1352 C 0.40223 0.97 0.27555 0.0
C1353 C 0.41122 0.96623 0.23057 0.0
H1354 H 0.58652 0.46942 0.81243 0.0
H1355 H 0.60334 0.44611 0.67289 0.0
H1356 H 0.58369 0.41577 0.68831 0.0
H1357 H 0.57687 0.41721 0.8773 0.0
H1358 H 0.55604 0.42867 0.90759 0.0
H1359 H 0.57757 0.44326 0.89537 0.0
H1360 H 0.55599 0.4701 0.85163 0.0
H1361 H 0.53465 0.4555 0.86255 0.0
H1362 H 0.5412 0.46256 0.8016 0.0
H1363 H 0.55481 0.39433 0.70707 0.0
H1364 H 0.52096 0.38419 0.72769 0.0
H1365 H 0.52151 0.42275 0.85285 0.0
C1366 C 0.58727 0.45707 0.78706 0.0
C1367 C 0.5969 0.45963 0.74235 0.0
C1368 C 0.59669 0.44395 0.70818 0.0
C1369 C 0.58536 0.42676 0.71657 0.0
C1370 C 0.57441 0.42553 0.75936 0.0
C1371 C 0.57565 0.44016 0.79465 0.0
C1372 C 0.55951 0.43805 0.83216 0.0
C1373 C 0.56801 0.43139 0.881 0.0
C1374 C 0.54712 0.4577 0.83715 0.0
C1375 C 0.54793 0.42132 0.8101 0.0
C1376 C 0.55709 0.41365 0.76926 0.0
C1377 C 0.54782 0.39978 0.7398 0.0
C1378 C 0.52859 0.39411 0.75163 0.0
C1379 C 0.51876 0.40275 0.79177 0.0
C1380 C 0.52884 0.41588 0.8221 0.0
H1381 H 0.02324 0.54691 0.14526 0.0
H1382 H 0.02377 0.59107 0.2595 0.0
H1383 H 0.05387 0.57463 0.29214 0.0
H1384 H 0.03181 0.507 0.21453 0.0
H1385 H 0.04663 0.49282 0.17207 0.0
H1386 H 0.02922 0.51124 0.15052 0.0
H1387 H 0.05663 0.52952 0.10325 0.0
H1388 H 0.07429 0.51103 0.12457 0.0
H1389 H 0.07815 0.53752 0.13434 0.0
H1390 H 0.0791 0.54878 0.32183 0.0
H1391 H 0.09555 0.51659 0.34596 0.0
H1392 H 0.07744 0.48934 0.21301 0.0
C1393 C 0.03012 0.55363 0.1761 0.0
C1394 C 0.02127 0.57028 0.19983 0.0
C1395 C 0.03051 0.5785 0.2404 0.0
C1396 C 0.04759 0.56921 0.25913 0.0
C1397 C 0.05532 0.55199 0.23629 0.0
C1398 C 0.04691 0.5445 0.19512 0.0
C1399 C 0.0557 0.52421 0.18128 0.0
C1400 C 0.03991 0.50788 0.17957 0.0
C1401 C 0.06686 0.52567 0.133 0.0
C1402 C 0.06957 0.5207 0.22271 0.0
C1403 C 0.06966 0.53709 0.25345 0.0
C1404 C 0.07962 0.53618 0.29723 0.0
C1405 C 0.08904 0.51791 0.31059 0.0
C1406 C 0.08819 0.50084 0.28047 0.0
C1407 C 0.07889 0.5025 0.23554 0.0
H1408 H 0.2003 0.05682 0.33147 0.0
H1409 H 0.18753 0.99768 0.27542 0.0
H1410 H 0.22255 0.98783 0.28171 0.0
H1411 H 0.24256 0.06372 0.26663 0.0
H1412 H 0.25533 0.07676 0.31323 0.0
H1413 H 0.22905 0.07773 0.31195 0.0
H1414 H 0.22757 0.0638 0.39962 0.0
H1415 H 0.25394 0.06285 0.40126 0.0
H1416 H 0.24022 0.04045 0.41439 0.0
H1417 H 0.25984 0.98643 0.28369 0.0
H1418 H 0.29524 0.99366 0.28114 0.0
H1419 H 0.28286 0.05363 0.33657 0.0
C1420 C 0.2048 0.04162 0.32159 0.0
C1421 C 0.19119 0.02789 0.30379 0.0
C1422 C 0.19763 0.00824 0.2905 0.0
C1423 C 0.21752 0.00257 0.29371 0.0
C1424 C 0.23066 0.01667 0.31065 0.0
C1425 C 0.22446 0.03575 0.32477 0.0
C1426 C 0.24147 0.04881 0.33766 0.0
C1427 C 0.24214 0.06786 0.30543 0.0
C1428 C 0.24075 0.05429 0.39143 0.0
C1429 C 0.25832 0.03444 0.32668 0.0
C1430 C 0.25191 0.01585 0.31186 0.0
C1431 C 0.26502 0.00077 0.29635 0.0
C1432 C 0.28513 0.00495 0.29532 0.0
C1433 C 0.29182 0.02409 0.30944 0.0
C1434 C 0.2782 0.03878 0.32603 0.0
H1435 H 0.45357 0.20148 0.71642 0.0
H1436 H 0.47326 0.1857 0.86037 0.0
H1437 H 0.48021 0.22139 0.87564 0.0
H1438 H 0.48756 0.24378 0.6938 0.0
H1439 H 0.46902 0.25858 0.66314 0.0
H1440 H 0.46874 0.2314 0.66064 0.0
H1441 H 0.43311 0.23182 0.69384 0.0
H1442 H 0.43329 0.25892 0.69647 0.0
H1443 H 0.42763 0.2444 0.74995 0.0
H1444 H 0.48136 0.25919 0.8787 0.0
H1445 H 0.47531 0.29592 0.87017 0.0
H1446 H 0.45416 0.28708 0.72511 0.0
C1447 C 0.45977 0.20549 0.75075 0.0
C1448 C 0.46353 0.1907 0.78652 0.0
C1449 C 0.47114 0.19657 0.83151 0.0
C1450 C 0.47498 0.21688 0.84071 0.0
C1451 C 0.47105 0.23112 0.80464 0.0
C1452 C 0.4636 0.22567 0.76054 0.0
C1453 C 0.45878 0.24398 0.72966 0.0
C1454 C 0.47181 0.24446 0.68412 0.0
C1455 C 0.43691 0.24482 0.71676 0.0
C1456 C 0.46394 0.26061 0.764 0.0
C1457 C 0.47137 0.25293 0.80671 0.0
C1458 C 0.47598 0.26542 0.84502 0.0
C1459 C 0.47266 0.28629 0.83973 0.0
C1460 C 0.46468 0.29432 0.79659 0.0
C1461 C 0.46052 0.2813 0.75823 0.0
H1462 H 0.28728 0.44939 0.23482 0.0
H1463 H 0.30085 0.48013 0.3674 0.0
H1464 H 0.26554 0.48355 0.38649 0.0
H1465 H 0.24079 0.47718 0.20814 0.0
H1466 H 0.22949 0.4547 0.18633 0.0
H1467 H 0.25554 0.45772 0.17965 0.0
H1468 H 0.26151 0.4236 0.22419 0.0
H1469 H 0.23556 0.42052 0.23125 0.0
H1470 H 0.25104 0.41985 0.28351 0.0
H1471 H 0.22879 0.48 0.39534 0.0
H1472 H 0.19432 0.46926 0.39356 0.0
H1473 H 0.20534 0.44031 0.25597 0.0
C1474 C 0.28277 0.45732 0.26722 0.0
C1475 C 0.29672 0.4651 0.29879 0.0
C1476 C 0.29036 0.47485 0.34162 0.0
C1477 C 0.27034 0.4767 0.35297 0.0
C1478 C 0.25692 0.46867 0.32118 0.0
C1479 C 0.26292 0.45923 0.27906 0.0
C1480 C 0.24589 0.45019 0.25311 0.0
C1481 C 0.24275 0.46057 0.2039 0.0
C1482 C 0.24867 0.42718 0.24775 0.0
C1483 C 0.22945 0.45537 0.28799 0.0
C1484 C 0.23596 0.46631 0.32668 0.0
C1485 C 0.22346 0.47178 0.36474 0.0
C1486 C 0.20387 0.46573 0.36331 0.0
C1487 C 0.19712 0.45423 0.32428 0.0
C1488 C 0.21009 0.44922 0.28612 0.0
H1489 H 0.00518 0.29907 0.7637 0.0
H1490 H 0.01498 0.2998 0.91782 0.0
H1491 H 0.01077 0.2628 0.92175 0.0
H1492 H 0.97043 0.25611 0.76095 0.0
H1493 H 0.98142 0.24611 0.70656 0.0
H1494 H 0.9813 0.27293 0.71722 0.0
H1495 H 0.01902 0.27306 0.70645 0.0
H1496 H 0.01926 0.24631 0.69596 0.0
H1497 H 0.03395 0.25646 0.74327 0.0
H1498 H 0.00883 0.2257 0.90787 0.0
H1499 H 0.01206 0.19104 0.87669 0.0
H1500 H 0.00578 0.21395 0.73056 0.0
C1501 C 0.00573 0.29145 0.79842 0.0
C1502 C 0.00992 0.30218 0.84069 0.0
C1503 C 0.01147 0.29175 0.88526 0.0
C1504 C 0.00903 0.2708 0.88781 0.0
C1505 C 0.00535 0.2605 0.8453 0.0
C1506 C 0.00385 0.27044 0.80134 0.0
C1507 C 0.00253 0.25559 0.76025 0.0
C1508 C 0.98274 0.25782 0.73475 0.0
C1509 C 0.01972 0.258 0.7244 0.0
C1510 C 0.00406 0.23578 0.78782 0.0
C1511 C 0.00517 0.23895 0.83692 0.0
C1512 C 0.00761 0.223 0.86959 0.0
C1513 C 0.00926 0.20332 0.85156 0.0
C1514 C 0.0087 0.19979 0.80132 0.0
C1515 C 0.00593 0.21624 0.7692 0.0
H1516 H 0.70916 0.93014 0.6983 0.0
H1517 H 0.69959 0.9941 0.72408 0.0
H1518 H 0.73528 0.99928 0.71996 0.0
H1519 H 0.75102 0.92435 0.77117 0.0
H1520 H 0.76325 0.90646 0.73195 0.0
H1521 H 0.73693 0.90818 0.73341 0.0
H1522 H 0.73661 0.9145 0.64098 0.0
H1523 H 0.76295 0.91278 0.6392 0.0
H1524 H 0.75053 0.93493 0.61555 0.0
H1525 H 0.77233 0.99692 0.71783 0.0
H1526 H 0.80742 0.98727 0.71769 0.0
H1527 H 0.79241 0.92488 0.69299 0.0
C1528 C 0.71456 0.94527 0.70268 0.0
C1529 C 0.70158 0.96179 0.71043 0.0
C1530 C 0.7092 0.98133 0.71647 0.0
C1531 C 0.72947 0.98438 0.71462 0.0
C1532 C 0.74187 0.96774 0.70679 0.0
C1533 C 0.73467 0.94857 0.70085 0.0
C1534 C 0.75102 0.93307 0.6946 0.0
C1535 C 0.75052 0.91708 0.73521 0.0
C1536 C 0.75023 0.92325 0.6446 0.0
C1537 C 0.76859 0.94643 0.69876 0.0
C1538 C 0.76306 0.9664 0.70548 0.0
C1539 C 0.77683 0.98138 0.71177 0.0
C1540 C 0.79676 0.97578 0.71116 0.0
C1541 C 0.80268 0.95539 0.70413 0.0
C1542 C 0.78834 0.94062 0.698 0.0
H1543 H 0.55857 0.7024 0.16791 0.0
H1544 H 0.4996 0.69325 0.22197 0.0
H1545 H 0.49258 0.72987 0.21447 0.0
H1546 H 0.56711 0.74575 0.23136 0.0
H1547 H 0.58115 0.75801 0.18454 0.0
H1548 H 0.58046 0.73091 0.18731 0.0
H1549 H 0.56812 0.73009 0.09921 0.0
H1550 H 0.5688 0.75727 0.09613 0.0
H1551 H 0.54647 0.74447 0.08294 0.0
H1552 H 0.49362 0.76784 0.21147 0.0
H1553 H 0.50255 0.80373 0.2128 0.0
H1554 H 0.56057 0.78781 0.1586 0.0
C1555 C 0.54405 0.70808 0.17721 0.0
C1556 C 0.5295 0.69502 0.19455 0.0
C1557 C 0.51076 0.70295 0.20716 0.0
C1558 C 0.50668 0.72374 0.20325 0.0
C1559 C 0.52146 0.73627 0.18638 0.0
C1560 C 0.53973 0.72869 0.17324 0.0
C1561 C 0.55359 0.74539 0.15988 0.0
C1562 C 0.57163 0.74499 0.19275 0.0
C1563 C 0.55959 0.74423 0.10635 0.0
C1564 C 0.54052 0.7636 0.16946 0.0
C1565 C 0.52197 0.75809 0.18409 0.0
C1566 C 0.50792 0.77237 0.19875 0.0
C1567 C 0.51307 0.79278 0.19896 0.0
C1568 C 0.5321 0.79864 0.18453 0.0
C1569 C 0.54581 0.78382 0.16907 0.0
H1570 H 0.79128 0.51402 0.72263 0.0
H1571 H 0.79738 0.55784 0.60682 0.0
H1572 H 0.76238 0.55462 0.58754 0.0
H1573 H 0.75203 0.48273 0.66545 0.0
H1574 H 0.73946 0.47938 0.72239 0.0
H1575 H 0.76572 0.48171 0.72068 0.0
H1576 H 0.76309 0.51155 0.78037 0.0
H1577 H 0.73693 0.50931 0.78227 0.0
H1578 H 0.74764 0.53308 0.76573 0.0
H1579 H 0.72673 0.55099 0.58864 0.0
H1580 H 0.69196 0.54849 0.61268 0.0
H1581 H 0.70786 0.50739 0.72876 0.0
C1582 C 0.78526 0.52236 0.69228 0.0
C1583 C 0.79685 0.53595 0.66561 0.0
C1584 C 0.78859 0.54726 0.62721 0.0
C1585 C 0.76882 0.5454 0.61585 0.0
C1586 C 0.75753 0.53224 0.64345 0.0
C1587 C 0.76539 0.5209 0.68096 0.0
C1588 C 0.74949 0.51013 0.70913 0.0
C1589 C 0.75182 0.48712 0.70409 0.0
C1590 C 0.74928 0.51641 0.76251 0.0
C1591 C 0.73144 0.51798 0.68307 0.0
C1592 C 0.73652 0.53031 0.64455 0.0
C1593 C 0.72253 0.541 0.61789 0.0
C1594 C 0.70287 0.53952 0.63175 0.0
C1595 C 0.69744 0.52747 0.6718 0.0
C1596 C 0.71176 0.51616 0.69705 0.0
H1597 H 0.9402 0.69614 0.16582 0.0
H1598 H 0.99958 0.68071 0.20825 0.0
H1599 H 0.00765 0.71695 0.20768 0.0
H1600 H 0.95188 0.73934 0.08809 0.0
H1601 H 0.93038 0.75343 0.10719 0.0
H1602 H 0.93009 0.72623 0.10627 0.0
H1603 H 0.91968 0.72566 0.19649 0.0
H1604 H 0.91999 0.7528 0.19774 0.0
H1605 H 0.93447 0.73826 0.24004 0.0
H1606 H 0.00814 0.75549 0.20917 0.0
H1607 H 0.00103 0.79219 0.21245 0.0
H1608 H 0.94132 0.78175 0.16887 0.0
C1609 C 0.955 0.70033 0.17435 0.0
C1610 C 0.96936 0.68553 0.18611 0.0
C1611 C 0.98849 0.69167 0.19759 0.0
C1612 C 0.99316 0.71227 0.19775 0.0
C1613 C 0.97854 0.72648 0.18629 0.0
C1614 C 0.95987 0.7207 0.17463 0.0
C1615 C 0.94643 0.73877 0.16624 0.0
C1616 C 0.93928 0.73948 0.11383 0.0
C1617 C 0.92913 0.73887 0.20228 0.0
C1618 C 0.96031 0.7557 0.17602 0.0
C1619 C 0.97882 0.74841 0.18714 0.0
C1620 C 0.99379 0.76136 0.19961 0.0
C1621 C 0.98966 0.78224 0.20094 0.0
C1622 C 0.97073 0.78993 0.18984 0.0
C1623 C 0.95599 0.77638 0.17709 0.0
loop_
_geom_bond_atom_site_label_1
_geom_bond_atom_site_label_2
_geom_bond_distance
_geom_bond_site_symmetry_2
_ccdc_geom_bond_type
Co0 O3 1.970 1_545 S
Co0 N17 1.989 . S
Co0 O25 1.967 . S
Co0 O32 1.920 . S
Co1 O4 1.966 . S
Co1 N10 2.022 . S
Co1 N18 1.993 . S
Co1 O26 1.941 . S
C2 O3 1.258 . S
C2 O4 1.263 1_565 S
O3 Co0 1.970 1_565 S
O3 C2 1.258 . S
O4 Co1 1.966 . S
O4 C2 1.263 1_545 S
C5 O6 1.238 1_545 S
C5 O32 1.289 . S
O6 C5 1.238 1_565 S
C7 C9 1.400 . S
C7 N10 1.351 . S
C7 C12 1.501 1_545 S
C8 C9 1.387 . S
C8 N11 1.341 . S
C9 C7 1.400 . S
C9 C8 1.387 . S
N10 Co1 2.022 . S
N10 C7 1.351 . S
N10 N11 1.365 . S
N11 C8 1.341 . S
N11 N10 1.365 . S
N11 H31 0.862 . S
C12 C7 1.501 1_565 S
C12 H13 0.961 . S
C12 H14 0.961 . S
C12 H15 0.960 . S
H13 C12 0.961 . S
H14 C12 0.961 . S
H15 C12 0.960 . S
C16 N17 1.342 . S
C16 C20 1.401 . S
C16 C21 1.499 . S
N17 Co0 1.989 . S
N17 C16 1.342 . S
N17 N18 1.388 . S
N18 Co1 1.993 . S
N18 N17 1.388 . S
N18 C19 1.346 . S
C19 N18 1.346 . S
C19 C20 1.396 . S
C19 C29 1.510 . S
C20 C16 1.401 . S
C20 C19 1.396 . S
C21 C16 1.499 . S
C21 H22 0.959 . S
C21 H23 0.960 . S
C21 H24 0.961 . S
H22 C21 0.959 . S
H23 C21 0.960 . S
H24 C21 0.961 . S
O25 Co0 1.967 . S
O25 C33 1.258 . S
O26 Co1 1.941 . S
O26 C33 1.266 . S
H27 C29 0.959 . S
H28 C29 0.961 . S
C29 C19 1.510 . S
C29 H27 0.959 . S
C29 H28 0.961 . S
C29 H30 0.960 . S
H30 C29 0.960 . S
H31 N11 0.862 . S
O32 Co0 1.920 . S
O32 C5 1.289 . S
C33 O25 1.258 . S
C33 O26 1.266 . S
Co34 O37 1.970 . S
Co34 N51 1.989 . S
Co34 O59 1.967 . S
Co34 O66 1.920 . S
Co35 O38 1.966 . S
Co35 N44 2.022 . S
Co35 N52 1.993 . S
Co35 O60 1.941 . S
C36 O37 1.258 . S
C36 O38 1.263 . S
O37 Co34 1.970 . S
O37 C36 1.258 . S
O38 Co35 1.966 . S
O38 C36 1.263 . S
C39 O40 1.235 . S
C39 O66 1.289 . S
O40 C39 1.235 . S
C41 C43 1.400 . S
C41 N44 1.351 . S
C41 C46 1.501 . S
C42 C43 1.387 . S
C42 N45 1.341 . S
C43 C41 1.400 . S
C43 C42 1.387 . S
N44 Co35 2.022 . S
N44 C41 1.351 . S
N44 N45 1.365 . S
N45 C42 1.341 . S
N45 N44 1.365 . S
N45 H65 0.862 . S
C46 C41 1.501 . S
C46 H47 0.961 . S
C46 H48 0.961 . S
C46 H49 0.960 . S
H47 C46 0.961 . S
H48 C46 0.961 . S
H49 C46 0.960 . S
C50 N51 1.342 . S
C50 C54 1.401 1_556 S
C50 C55 1.499 1_556 S
N51 Co34 1.989 . S
N51 C50 1.342 . S
N51 N52 1.388 . S
N52 Co35 1.993 . S
N52 N51 1.388 . S
N52 C53 1.346 . S
C53 N52 1.346 . S
C53 C54 1.396 1_556 S
C53 C63 1.510 . S
C54 C50 1.401 1_554 S
C54 C53 1.396 1_554 S
C55 C50 1.499 1_554 S
C55 H56 0.959 1_554 S
C55 H57 0.960 . S
C55 H58 0.961 . S
H56 C55 0.959 1_556 S
H57 C55 0.960 . S
H58 C55 0.961 . S
O59 Co34 1.967 . S
O59 C67 1.258 . S
O60 Co35 1.941 . S
O60 C67 1.266 . S
H61 C63 0.959 . S
H62 C63 0.961 1_554 S
C63 C53 1.510 . S
C63 H61 0.959 . S
C63 H62 0.961 1_556 S
C63 H64 0.960 . S
H64 C63 0.960 . S
H65 N45 0.862 . S
O66 Co34 1.920 . S
O66 C39 1.289 . S
C67 O59 1.258 . S
C67 O60 1.266 . S
Co68 O71 1.970 . S
Co68 N85 1.989 . S
Co68 O93 1.967 . S
Co68 O100 1.920 . S
Co69 O72 1.966 . S
Co69 N78 2.022 . S
Co69 N86 1.993 . S
Co69 O94 1.941 . S
C70 O71 1.258 . S
C70 O72 1.263 . S
O71 Co68 1.970 . S
O71 C70 1.258 . S
O72 Co69 1.966 . S
O72 C70 1.263 . S
C73 O74 1.235 . S
C73 O100 1.289 . S
O74 C73 1.235 . S
C75 C77 1.400 . S
C75 N78 1.351 . S
C75 C80 1.501 . S
C76 C77 1.387 . S
C76 N79 1.341 . S
C77 C75 1.400 . S
C77 C76 1.387 . S
N78 Co69 2.022 . S
N78 C75 1.351 . S
N78 N79 1.365 . S
N79 C76 1.341 . S
N79 N78 1.365 . S
N79 H99 0.862 . S
C80 C75 1.501 . S
C80 H81 0.961 . S
C80 H82 0.961 . S
C80 H83 0.960 . S
H81 C80 0.961 . S
H82 C80 0.961 . S
H83 C80 0.960 . S
C84 N85 1.342 . S
C84 C88 1.401 . S
C84 C89 1.499 . S
N85 Co68 1.989 . S
N85 C84 1.342 . S
N85 N86 1.388 . S
N86 Co69 1.993 . S
N86 N85 1.388 . S
N86 C87 1.346 . S
C87 N86 1.346 . S
C87 C88 1.396 . S
C87 C97 1.510 . S
C88 C84 1.401 . S
C88 C87 1.396 . S
C89 C84 1.499 . S
C89 H90 0.959 . S
C89 H91 0.960 . S
C89 H92 0.961 . S
H90 C89 0.959 . S
H91 C89 0.960 . S
H92 C89 0.961 . S
O93 Co68 1.967 . S
O93 C101 1.258 . S
O94 Co69 1.941 . S
O94 C101 1.266 . S
H95 C97 0.959 . S
H96 C97 0.961 . S
C97 C87 1.510 . S
C97 H95 0.959 . S
C97 H96 0.961 . S
C97 H98 0.960 . S
H98 C97 0.960 . S
H99 N79 0.862 . S
O100 Co68 1.920 . S
O100 C73 1.289 . S
C101 O93 1.258 . S
C101 O94 1.266 . S
Co102 O105 1.972 . S
Co102 N119 1.989 . S
Co102 O127 1.967 . S
Co102 O134 1.920 1_455 S
Co103 O106 1.966 . S
Co103 N112 2.022 . S
Co103 N120 1.993 . S
Co103 O128 1.941 . S
C104 O105 1.271 . S
C104 O106 1.263 . S
O105 Co102 1.972 . S
O105 C104 1.271 . S
O106 Co103 1.966 . S
O106 C104 1.263 . S
C107 O108 1.235 . S
C107 O134 1.289 . S
O108 C107 1.235 . S
C109 C111 1.400 . S
C109 N112 1.351 1_554 S
C109 C114 1.501 . S
C110 C111 1.387 . S
C110 N113 1.324 1_554 S
C111 C109 1.400 . S
C111 C110 1.387 . S
N112 Co103 2.022 . S
N112 C109 1.351 1_556 S
N112 N113 1.370 . S
N113 C110 1.324 1_556 S
N113 N112 1.370 . S
N113 H133 0.873 . S
C114 C109 1.501 . S
C114 H115 0.948 1_554 S
C114 H116 0.961 . S
C114 H117 0.960 . S
H115 C114 0.948 1_556 S
H116 C114 0.961 . S
H117 C114 0.960 . S
C118 N119 1.342 1_655 S
C118 C122 1.401 1_655 S
C118 C123 1.499 . S
N119 Co102 1.989 . S
N119 C118 1.342 1_455 S
N119 N120 1.388 . S
N120 Co103 1.993 . S
N120 N119 1.388 . S
N120 C121 1.346 . S
C121 N120 1.346 . S
C121 C122 1.396 . S
C121 C131 1.510 1_556 S
C122 C118 1.401 1_455 S
C122 C121 1.396 . S
C123 C118 1.499 . S
C123 H124 0.959 . S
C123 H125 0.960 . S
C123 H126 0.961 . S
H124 C123 0.959 . S
H125 C123 0.960 . S
H126 C123 0.961 . S
O127 Co102 1.967 . S
O127 C135 1.258 . S
O128 Co103 1.941 . S
O128 C135 1.266 . S
H129 C131 0.959 . S
H130 C131 0.961 . S
C131 C121 1.510 1_554 S
C131 H129 0.959 . S
C131 H130 0.961 . S
C131 H132 0.960 . S
H132 C131 0.960 . S
H133 N113 0.873 . S
O134 Co102 1.920 1_655 S
O134 C107 1.289 . S
C135 O127 1.258 . S
C135 O128 1.266 . S
Co136 O139 2.008 . S
Co136 N153 1.989 . S
Co136 O161 1.967 . S
Co136 O168 1.920 . S
Co137 O140 1.966 . S
Co137 N146 2.022 . S
Co137 N154 1.993 . S
Co137 O162 1.941 . S
C138 O139 1.247 1_545 S
C138 O140 1.263 1_545 S
O139 Co136 2.008 . S
O139 C138 1.247 1_565 S
O140 Co137 1.966 . S
O140 C138 1.263 1_565 S
C141 O142 1.235 . S
C141 O168 1.289 . S
O142 C141 1.235 . S
C143 C145 1.400 . S
C143 N146 1.351 . S
C143 C148 1.501 1_565 S
C144 C145 1.387 . S
C144 N147 1.341 . S
C145 C143 1.400 . S
C145 C144 1.387 . S
N146 Co137 2.022 . S
N146 C143 1.351 . S
N146 N147 1.365 . S
N147 C144 1.341 . S
N147 N146 1.365 . S
N147 H167 0.862 . S
C148 C143 1.501 1_545 S
C148 H149 0.961 . S
C148 H150 0.961 . S
C148 H151 0.960 . S
H149 C148 0.961 . S
H150 C148 0.961 . S
H151 C148 0.960 . S
C152 N153 1.342 . S
C152 C156 1.401 . S
C152 C157 1.499 . S
N153 Co136 1.989 . S
N153 C152 1.342 . S
N153 N154 1.388 . S
N154 Co137 1.993 . S
N154 N153 1.388 . S
N154 C155 1.346 . S
C155 N154 1.346 . S
C155 C156 1.396 . S
C155 C165 1.510 . S
C156 C152 1.401 . S
C156 C155 1.396 . S
C157 C152 1.499 . S
C157 H158 0.959 . S
C157 H159 0.960 . S
C157 H160 0.961 . S
H158 C157 0.959 . S
H159 C157 0.960 . S
H160 C157 0.961 . S
O161 Co136 1.967 . S
O161 C169 1.258 . S
O162 Co137 1.941 . S
O162 C169 1.266 . S
H163 C165 0.959 . S
H164 C165 0.961 . S
C165 C155 1.510 . S
C165 H163 0.959 . S
C165 H164 0.961 . S
C165 H166 0.960 . S
H166 C165 0.960 . S
H167 N147 0.862 . S
O168 Co136 1.920 . S
O168 C141 1.289 . S
C169 O161 1.258 . S
C169 O162 1.266 . S
Co170 O173 1.970 . S
Co170 N187 1.989 . S
Co170 O195 1.967 . S
Co170 O202 1.920 . S
Co171 O174 1.966 . S
Co171 N180 2.022 . S
Co171 N188 1.993 . S
Co171 O196 1.941 . S
C172 O173 1.258 . S
C172 O174 1.263 . S
O173 Co170 1.970 . S
O173 C172 1.258 . S
O174 Co171 1.966 . S
O174 C172 1.263 . S
C175 O176 1.235 . S
C175 O202 1.289 . S
O176 C175 1.235 . S
C177 C179 1.400 . S
C177 N180 1.351 . S
C177 C182 1.501 . S
C178 C179 1.387 . S
C178 N181 1.341 . S
C179 C177 1.400 . S
C179 C178 1.387 . S
N180 Co171 2.022 . S
N180 C177 1.351 . S
N180 N181 1.365 . S
N181 C178 1.341 . S
N181 N180 1.365 . S
N181 H201 0.862 . S
C182 C177 1.501 . S
C182 H183 0.961 . S
C182 H184 0.961 . S
C182 H185 0.960 . S
H183 C182 0.961 . S
H184 C182 0.961 . S
H185 C182 0.960 . S
C186 N187 1.342 . S
C186 C190 1.401 1_554 S
C186 C191 1.499 1_554 S
N187 Co170 1.989 . S
N187 C186 1.342 . S
N187 N188 1.388 . S
N188 Co171 1.993 . S
N188 N187 1.388 . S
N188 C189 1.346 . S
C189 N188 1.346 . S
C189 C190 1.396 1_554 S
C189 C199 1.510 . S
C190 C186 1.401 1_556 S
C190 C189 1.396 1_556 S
C191 C186 1.499 1_556 S
C191 H192 0.959 1_556 S
C191 H193 0.960 . S
C191 H194 0.961 . S
H192 C191 0.959 1_554 S
H193 C191 0.960 . S
H194 C191 0.961 . S
O195 Co170 1.967 . S
O195 C203 1.258 . S
O196 Co171 1.941 . S
O196 C203 1.266 . S
H197 C199 0.959 . S
H198 C199 0.961 1_556 S
C199 C189 1.510 . S
C199 H197 0.959 . S
C199 H198 0.961 1_554 S
C199 H200 0.960 . S
H200 C199 0.960 . S
H201 N181 0.862 . S
O202 Co170 1.920 . S
O202 C175 1.289 . S
C203 O195 1.258 . S
C203 O196 1.266 . S
Co204 O207 1.970 . S
Co204 N221 1.989 . S
Co204 O229 1.967 . S
Co204 O236 1.920 . S
Co205 O208 1.966 . S
Co205 N214 2.022 . S
Co205 N222 1.993 . S
Co205 O230 1.941 . S
C206 O207 1.258 . S
C206 O208 1.263 . S
O207 Co204 1.970 . S
O207 C206 1.258 . S
O208 Co205 1.966 . S
O208 C206 1.263 . S
C209 O210 1.235 . S
C209 O236 1.289 . S
O210 C209 1.235 . S
C211 C213 1.400 . S
C211 N214 1.351 . S
C211 C216 1.501 . S
C212 C213 1.387 . S
C212 N215 1.341 . S
C213 C211 1.400 . S
C213 C212 1.387 . S
N214 Co205 2.022 . S
N214 C211 1.351 . S
N214 N215 1.365 . S
N215 C212 1.341 . S
N215 N214 1.365 . S
N215 H235 0.862 . S
C216 C211 1.501 . S
C216 H217 0.961 . S
C216 H218 0.961 . S
C216 H219 0.960 . S
H217 C216 0.961 . S
H218 C216 0.961 . S
H219 C216 0.960 . S
C220 N221 1.342 . S
C220 C224 1.401 . S
C220 C225 1.499 . S
N221 Co204 1.989 . S
N221 C220 1.342 . S
N221 N222 1.388 . S
N222 Co205 1.993 . S
N222 N221 1.388 . S
N222 C223 1.346 . S
C223 N222 1.346 . S
C223 C224 1.396 . S
C223 C233 1.510 . S
C224 C220 1.401 . S
C224 C223 1.396 . S
C225 C220 1.499 . S
C225 H226 0.959 . S
C225 H227 0.960 . S
C225 H228 0.961 . S
H226 C225 0.959 . S
H227 C225 0.960 . S
H228 C225 0.961 . S
O229 Co204 1.967 . S
O229 C237 1.258 . S
O230 Co205 1.941 . S
O230 C237 1.266 . S
H231 C233 0.959 . S
H232 C233 0.961 . S
C233 C223 1.510 . S
C233 H231 0.959 . S
C233 H232 0.961 . S
C233 H234 0.960 . S
H234 C233 0.960 . S
H235 N215 0.862 . S
O236 Co204 1.920 . S
O236 C209 1.289 . S
C237 O229 1.258 . S
C237 O230 1.266 . S
Co238 O241 1.970 1_655 S
Co238 N255 1.989 . S
Co238 O263 1.967 . S
Co238 O270 1.920 . S
Co239 O242 1.966 . S
Co239 N248 2.022 . S
Co239 N256 1.993 . S
Co239 O264 1.941 . S
C240 O241 1.258 . S
C240 O242 1.263 1_455 S
O241 Co238 1.970 1_455 S
O241 C240 1.258 . S
O242 Co239 1.966 . S
O242 C240 1.263 1_655 S
C243 O244 1.274 . S
C243 O270 1.289 . S
O244 C243 1.274 . S
C245 C247 1.400 . S
C245 N248 1.351 . S
C245 C250 1.501 1_655 S
C246 C247 1.387 . S
C246 N249 1.341 . S
C247 C245 1.400 . S
C247 C246 1.387 . S
N248 Co239 2.022 . S
N248 C245 1.351 . S
N248 N249 1.365 . S
N249 C246 1.341 . S
N249 N248 1.365 . S
N249 H269 0.862 . S
C250 C245 1.501 1_455 S
C250 H251 0.961 . S
C250 H252 0.961 . S
C250 H253 0.960 . S
H251 C250 0.961 . S
H252 C250 0.961 . S
H253 C250 0.960 . S
C254 N255 1.342 1_556 S
C254 C258 1.401 . S
C254 C259 1.499 . S
N255 Co238 1.989 . S
N255 C254 1.342 1_554 S
N255 N256 1.388 . S
N256 Co239 1.993 . S
N256 N255 1.388 . S
N256 C257 1.346 . S
C257 N256 1.346 . S
C257 C258 1.396 1_554 S
C257 C267 1.510 . S
C258 C254 1.401 . S
C258 C257 1.396 1_556 S
C259 C254 1.499 . S
C259 H260 0.959 . S
C259 H261 0.960 . S
C259 H262 0.961 . S
H260 C259 0.959 . S
H261 C259 0.960 . S
H262 C259 0.961 . S
O263 Co238 1.967 . S
O263 C271 1.258 . S
O264 Co239 1.941 . S
O264 C271 1.266 . S
H265 C267 0.959 . S
H266 C267 0.961 1_556 S
C267 C257 1.510 . S
C267 H265 0.959 . S
C267 H266 0.961 1_554 S
C267 H268 0.960 . S
H268 C267 0.960 . S
H269 N249 0.862 . S
O270 Co238 1.920 . S
O270 C243 1.289 . S
C271 O263 1.258 . S
C271 O264 1.266 . S
Co272 O275 1.970 1_565 S
Co272 N289 1.989 . S
Co272 O297 1.967 . S
Co272 O304 1.920 . S
Co273 O276 1.966 . S
Co273 N282 2.022 . S
Co273 N290 1.993 . S
Co273 O298 1.941 . S
C274 O275 1.258 . S
C274 O276 1.263 1_545 S
O275 Co272 1.970 1_545 S
O275 C274 1.258 . S
O276 Co273 1.966 . S
O276 C274 1.263 1_565 S
C277 O278 1.235 . S
C277 O304 1.289 . S
O278 C277 1.235 . S
C279 C281 1.400 . S
C279 N282 1.351 . S
C279 C284 1.501 1_565 S
C280 C281 1.387 . S
C280 N283 1.341 . S
C281 C279 1.400 . S
C281 C280 1.387 . S
N282 Co273 2.022 . S
N282 C279 1.351 . S
N282 N283 1.365 . S
N283 C280 1.341 . S
N283 N282 1.365 . S
N283 H303 0.862 . S
C284 C279 1.501 1_545 S
C284 H285 0.961 . S
C284 H286 0.961 . S
C284 H287 0.960 . S
H285 C284 0.961 . S
H286 C284 0.961 . S
H287 C284 0.960 . S
C288 N289 1.342 . S
C288 C292 1.401 . S
C288 C293 1.499 . S
N289 Co272 1.989 . S
N289 C288 1.342 . S
N289 N290 1.388 . S
N290 Co273 1.993 . S
N290 N289 1.388 . S
N290 C291 1.346 . S
C291 N290 1.346 . S
C291 C292 1.396 . S
C291 C301 1.510 . S
C292 C288 1.401 . S
C292 C291 1.396 . S
C293 C288 1.499 . S
C293 H294 0.959 . S
C293 H295 0.960 . S
C293 H296 0.961 . S
H294 C293 0.959 . S
H295 C293 0.960 . S
H296 C293 0.961 . S
O297 Co272 1.967 . S
O297 C305 1.258 . S
O298 Co273 1.941 . S
O298 C305 1.266 . S
H299 C301 0.959 . S
H300 C301 0.961 . S
C301 C291 1.510 . S
C301 H299 0.959 . S
C301 H300 0.961 . S
C301 H302 0.960 . S
H302 C301 0.960 . S
H303 N283 0.862 . S
O304 Co272 1.920 . S
O304 C277 1.289 . S
C305 O297 1.258 . S
C305 O298 1.266 . S
Co306 O309 1.970 . S
Co306 N323 1.989 . S
Co306 O331 1.967 . S
Co306 O338 1.920 . S
Co307 O310 1.966 . S
Co307 N316 2.022 . S
Co307 N324 1.993 . S
Co307 O332 1.941 . S
C308 O309 1.258 . S
C308 O310 1.263 . S
O309 Co306 1.970 . S
O309 C308 1.258 . S
O310 Co307 1.966 . S
O310 C308 1.263 . S
C311 O312 1.235 . S
C311 O338 1.289 . S
O312 C311 1.235 . S
C313 C315 1.400 . S
C313 N316 1.351 . S
C313 C318 1.501 . S
C314 C315 1.387 . S
C314 N317 1.341 . S
C315 C313 1.400 . S
C315 C314 1.387 . S
N316 Co307 2.022 . S
N316 C313 1.351 . S
N316 N317 1.365 . S
N317 C314 1.341 . S
N317 N316 1.365 . S
N317 H337 0.862 . S
C318 C313 1.501 . S
C318 H319 0.961 . S
C318 H320 0.961 . S
C318 H321 0.960 . S
H319 C318 0.961 . S
H320 C318 0.961 . S
H321 C318 0.960 . S
C322 N323 1.342 . S
C322 C326 1.401 1_554 S
C322 C327 1.499 1_554 S
N323 Co306 1.989 . S
N323 C322 1.342 . S
N323 N324 1.388 . S
N324 Co307 1.993 . S
N324 N323 1.388 . S
N324 C325 1.346 . S
C325 N324 1.346 . S
C325 C326 1.396 1_554 S
C325 C335 1.510 . S
C326 C322 1.401 1_556 S
C326 C325 1.396 1_556 S
C327 C322 1.499 1_556 S
C327 H328 0.959 1_556 S
C327 H329 0.960 . S
C327 H330 0.961 . S
H328 C327 0.959 1_554 S
H329 C327 0.960 . S
H330 C327 0.961 . S
O331 Co306 1.967 . S
O331 C339 1.258 . S
O332 Co307 1.941 . S
O332 C339 1.266 . S
H333 C335 0.959 . S
H334 C335 0.961 1_556 S
C335 C325 1.510 . S
C335 H333 0.959 . S
C335 H334 0.961 1_554 S
C335 H336 0.960 . S
H336 C335 0.960 . S
H337 N317 0.862 . S
O338 Co306 1.920 . S
O338 C311 1.289 . S
C339 O331 1.258 . S
C339 O332 1.266 . S
Co340 O343 1.970 . S
Co340 N357 1.989 . S
Co340 O365 1.967 . S
Co340 O372 1.920 . S
Co341 O344 1.966 . S
Co341 N350 2.022 . S
Co341 N358 1.993 . S
Co341 O366 1.941 . S
C342 O343 1.258 . S
C342 O344 1.263 . S
O343 Co340 1.970 . S
O343 C342 1.258 . S
O344 Co341 1.966 . S
O344 C342 1.263 . S
C345 O346 1.235 . S
C345 O372 1.289 . S
O346 C345 1.235 . S
C347 C349 1.400 . S
C347 N350 1.351 . S
C347 C352 1.501 . S
C348 C349 1.387 . S
C348 N351 1.341 . S
C349 C347 1.400 . S
C349 C348 1.387 . S
N350 Co341 2.022 . S
N350 C347 1.351 . S
N350 N351 1.365 . S
N351 C348 1.341 . S
N351 N350 1.365 . S
N351 H371 0.862 . S
C352 C347 1.501 . S
C352 H353 0.961 . S
C352 H354 0.961 . S
C352 H355 0.960 . S
H353 C352 0.961 . S
H354 C352 0.961 . S
H355 C352 0.960 . S
C356 N357 1.342 . S
C356 C360 1.401 . S
C356 C361 1.499 . S
N357 Co340 1.989 . S
N357 C356 1.342 . S
N357 N358 1.388 . S
N358 Co341 1.993 . S
N358 N357 1.388 . S
N358 C359 1.346 . S
C359 N358 1.346 . S
C359 C360 1.396 . S
C359 C369 1.510 . S
C360 C356 1.401 . S
C360 C359 1.396 . S
C361 C356 1.499 . S
C361 H362 0.959 . S
C361 H363 0.960 . S
C361 H364 0.961 . S
H362 C361 0.959 . S
H363 C361 0.960 . S
H364 C361 0.961 . S
O365 Co340 1.967 . S
O365 C373 1.258 . S
O366 Co341 1.941 . S
O366 C373 1.266 . S
H367 C369 0.959 . S
H368 C369 0.961 . S
C369 C359 1.510 . S
C369 H367 0.959 . S
C369 H368 0.961 . S
C369 H370 0.960 . S
H370 C369 0.960 . S
H371 N351 0.862 . S
O372 Co340 1.920 . S
O372 C345 1.289 . S
C373 O365 1.258 . S
C373 O366 1.266 . S
Co374 O377 1.970 . S
Co374 N391 1.989 . S
Co374 O399 1.967 . S
Co374 O406 1.920 . S
Co375 O378 1.966 . S
Co375 N384 2.022 . S
Co375 N392 1.993 . S
Co375 O400 1.941 . S
C376 O377 1.258 1_455 S
C376 O378 1.263 1_455 S
O377 Co374 1.970 . S
O377 C376 1.258 1_655 S
O378 Co375 1.966 . S
O378 C376 1.263 1_655 S
C379 O380 1.235 . S
C379 O406 1.289 . S
O380 C379 1.235 . S
C381 C383 1.400 . S
C381 N384 1.351 . S
C381 C386 1.501 1_655 S
C382 C383 1.387 . S
C382 N385 1.341 . S
C383 C381 1.400 . S
C383 C382 1.387 . S
N384 Co375 2.022 . S
N384 C381 1.351 . S
N384 N385 1.365 . S
N385 C382 1.341 . S
N385 N384 1.365 . S
N385 H405 0.862 . S
C386 C381 1.501 1_455 S
C386 H387 0.961 . S
C386 H388 0.961 . S
C386 H389 0.960 . S
H387 C386 0.961 . S
H388 C386 0.961 . S
H389 C386 0.960 . S
C390 N391 1.342 . S
C390 C394 1.401 1_554 S
C390 C395 1.499 1_554 S
N391 Co374 1.989 . S
N391 C390 1.342 . S
N391 N392 1.388 . S
N392 Co375 1.993 . S
N392 N391 1.388 . S
N392 C393 1.346 . S
C393 N392 1.346 . S
C393 C394 1.396 1_554 S
C393 C403 1.510 . S
C394 C390 1.401 1_556 S
C394 C393 1.396 1_556 S
C395 C390 1.499 1_556 S
C395 H396 0.959 1_556 S
C395 H397 0.960 . S
C395 H398 0.961 . S
H396 C395 0.959 1_554 S
H397 C395 0.960 . S
H398 C395 0.961 . S
O399 Co374 1.967 . S
O399 C407 1.258 . S
O400 Co375 1.941 . S
O400 C407 1.266 . S
H401 C403 0.959 . S
H402 C403 0.961 1_556 S
C403 C393 1.510 . S
C403 H401 0.959 . S
C403 H402 0.961 1_554 S
C403 H404 0.960 . S
H404 C403 0.960 . S
H405 N385 0.862 . S
O406 Co374 1.920 . S
O406 C379 1.289 . S
C407 O399 1.258 . S
C407 O400 1.266 . S
Co408 O411 1.970 1_545 S
Co408 N425 1.989 . S
Co408 O433 1.967 . S
Co408 O440 1.920 . S
Co409 O412 1.966 1_545 S
Co409 N418 2.022 . S
Co409 N426 1.993 . S
Co409 O434 1.941 . S
C410 O411 1.258 . S
C410 O412 1.263 . S
O411 Co408 1.970 1_565 S
O411 C410 1.258 . S
O412 Co409 1.966 1_565 S
O412 C410 1.263 . S
C413 O414 1.235 1_545 S
C413 O440 1.289 . S
O414 C413 1.235 1_565 S
C415 C417 1.400 . S
C415 N418 1.351 . S
C415 C420 1.501 1_545 S
C416 C417 1.387 . S
C416 N419 1.341 . S
C417 C415 1.400 . S
C417 C416 1.387 . S
N418 Co409 2.022 . S
N418 C415 1.351 . S
N418 N419 1.365 . S
N419 C416 1.341 . S
N419 N418 1.365 . S
N419 H439 0.862 . S
C420 C415 1.501 1_565 S
C420 H421 0.961 . S
C420 H422 0.961 . S
C420 H423 0.960 . S
H421 C420 0.961 . S
H422 C420 0.961 . S
H423 C420 0.960 . S
C424 N425 1.342 . S
C424 C428 1.401 . S
C424 C429 1.499 . S
N425 Co408 1.989 . S
N425 C424 1.342 . S
N425 N426 1.388 . S
N426 Co409 1.993 . S
N426 N425 1.388 . S
N426 C427 1.346 . S
C427 N426 1.346 . S
C427 C428 1.396 . S
C427 C437 1.510 . S
C428 C424 1.401 . S
C428 C427 1.396 . S
C429 C424 1.499 . S
C429 H430 0.959 . S
C429 H431 0.960 . S
C429 H432 0.961 . S
H430 C429 0.959 . S
H431 C429 0.960 . S
H432 C429 0.961 . S
O433 Co408 1.967 . S
O433 C441 1.258 . S
O434 Co409 1.941 . S
O434 C441 1.266 . S
H435 C437 0.959 . S
H436 C437 0.961 . S
C437 C427 1.510 . S
C437 H435 0.959 . S
C437 H436 0.961 . S
C437 H438 0.960 . S
H438 C437 0.960 . S
H439 N419 0.862 . S
O440 Co408 1.920 . S
O440 C413 1.289 . S
C441 O433 1.258 . S
C441 O434 1.266 . S
Co442 O445 1.970 . S
Co442 N459 1.989 . S
Co442 O467 1.967 . S
Co442 O474 1.920 . S
Co443 O446 1.966 . S
Co443 N452 2.022 . S
Co443 N460 1.993 . S
Co443 O468 1.941 . S
C444 O445 1.258 . S
C444 O446 1.263 . S
O445 Co442 1.970 . S
O445 C444 1.258 . S
O446 Co443 1.966 . S
O446 C444 1.263 . S
C447 O448 1.235 . S
C447 O474 1.289 . S
O448 C447 1.235 . S
C449 C451 1.400 . S
C449 N452 1.351 . S
C449 C454 1.501 . S
C450 C451 1.387 . S
C450 N453 1.341 . S
C451 C449 1.400 . S
C451 C450 1.387 . S
N452 Co443 2.022 . S
N452 C449 1.351 . S
N452 N453 1.365 . S
N453 C450 1.341 . S
N453 N452 1.365 . S
N453 H473 0.862 . S
C454 C449 1.501 . S
C454 H455 0.961 . S
C454 H456 0.961 . S
C454 H457 0.960 . S
H455 C454 0.961 . S
H456 C454 0.961 . S
H457 C454 0.960 . S
C458 N459 1.342 1_554 S
C458 C462 1.401 . S
C458 C463 1.499 . S
N459 Co442 1.989 . S
N459 C458 1.342 1_556 S
N459 N460 1.388 . S
N460 Co443 1.993 . S
N460 N459 1.388 . S
N460 C461 1.346 . S
C461 N460 1.346 . S
C461 C462 1.396 1_556 S
C461 C471 1.510 . S
C462 C458 1.401 . S
C462 C461 1.396 1_554 S
C463 C458 1.499 . S
C463 H464 0.959 . S
C463 H465 0.960 . S
C463 H466 0.961 . S
H464 C463 0.959 . S
H465 C463 0.960 . S
H466 C463 0.961 . S
O467 Co442 1.967 . S
O467 C475 1.258 . S
O468 Co443 1.941 . S
O468 C475 1.266 . S
H469 C471 0.959 1_554 S
H470 C471 0.961 1_554 S
C471 C461 1.510 . S
C471 H469 0.959 1_556 S
C471 H470 0.961 1_556 S
C471 H472 0.960 . S
H472 C471 0.960 . S
H473 N453 0.862 . S
O474 Co442 1.920 . S
O474 C447 1.289 . S
C475 O467 1.258 . S
C475 O468 1.266 . S
Co476 O479 1.970 . S
Co476 N493 1.989 . S
Co476 O501 1.967 . S
Co476 O508 1.920 . S
Co477 O480 1.966 . S
Co477 N486 2.022 . S
Co477 N494 1.993 . S
Co477 O502 1.941 . S
C478 O479 1.258 . S
C478 O480 1.263 . S
O479 Co476 1.970 . S
O479 C478 1.258 . S
O480 Co477 1.966 . S
O480 C478 1.263 . S
C481 O482 1.235 . S
C481 O508 1.289 . S
O482 C481 1.235 . S
C483 C485 1.400 . S
C483 N486 1.351 . S
C483 C488 1.501 . S
C484 C485 1.387 . S
C484 N487 1.341 . S
C485 C483 1.400 . S
C485 C484 1.387 . S
N486 Co477 2.022 . S
N486 C483 1.351 . S
N486 N487 1.365 . S
N487 C484 1.341 . S
N487 N486 1.365 . S
N487 H507 0.862 . S
C488 C483 1.501 . S
C488 H489 0.961 . S
C488 H490 0.961 . S
C488 H491 0.960 . S
H489 C488 0.961 . S
H490 C488 0.961 . S
H491 C488 0.960 . S
C492 N493 1.342 . S
C492 C496 1.401 . S
C492 C497 1.499 . S
N493 Co476 1.989 . S
N493 C492 1.342 . S
N493 N494 1.388 . S
N494 Co477 1.993 . S
N494 N493 1.388 . S
N494 C495 1.346 . S
C495 N494 1.346 . S
C495 C496 1.396 . S
C495 C505 1.510 . S
C496 C492 1.401 . S
C496 C495 1.396 . S
C497 C492 1.499 . S
C497 H498 0.959 . S
C497 H499 0.960 . S
C497 H500 0.961 . S
H498 C497 0.959 . S
H499 C497 0.960 . S
H500 C497 0.961 . S
O501 Co476 1.967 . S
O501 C509 1.258 . S
O502 Co477 1.941 . S
O502 C509 1.266 . S
H503 C505 0.959 . S
H504 C505 0.961 . S
C505 C495 1.510 . S
C505 H503 0.959 . S
C505 H504 0.961 . S
C505 H506 0.960 . S
H506 C505 0.960 . S
H507 N487 0.862 . S
O508 Co476 1.920 . S
O508 C481 1.289 . S
C509 O501 1.258 . S
C509 O502 1.266 . S
Co510 O513 1.970 1_455 S
Co510 N527 1.989 . S
Co510 O535 1.967 . S
Co510 O542 1.920 . S
Co511 O514 1.966 1_455 S
Co511 N520 2.022 . S
Co511 N528 1.993 . S
Co511 O536 1.941 . S
C512 O513 1.258 . S
C512 O514 1.263 . S
O513 Co510 1.970 1_655 S
O513 C512 1.258 . S
O514 Co511 1.966 1_655 S
O514 C512 1.263 . S
C515 O516 1.235 1_455 S
C515 O542 1.289 . S
O516 C515 1.235 1_655 S
C517 C519 1.400 . S
C517 N520 1.351 . S
C517 C522 1.501 1_455 S
C518 C519 1.387 . S
C518 N521 1.341 . S
C519 C517 1.400 . S
C519 C518 1.387 . S
N520 Co511 2.022 . S
N520 C517 1.351 . S
N520 N521 1.365 . S
N521 C518 1.341 . S
N521 N520 1.365 . S
N521 H541 0.862 . S
C522 C517 1.501 1_655 S
C522 H523 0.961 . S
C522 H524 0.961 . S
C522 H525 0.960 . S
H523 C522 0.961 . S
H524 C522 0.961 . S
H525 C522 0.960 . S
C526 N527 1.342 . S
C526 C530 1.401 1_556 S
C526 C531 1.499 1_556 S
N527 Co510 1.989 . S
N527 C526 1.342 . S
N527 N528 1.388 . S
N528 Co511 1.993 . S
N528 N527 1.388 . S
N528 C529 1.346 . S
C529 N528 1.346 . S
C529 C530 1.396 1_556 S
C529 C539 1.510 . S
C530 C526 1.401 1_554 S
C530 C529 1.396 1_554 S
C531 C526 1.499 1_554 S
C531 H532 0.959 1_554 S
C531 H533 0.960 . S
C531 H534 0.961 . S
H532 C531 0.959 1_556 S
H533 C531 0.960 . S
H534 C531 0.961 . S
O535 Co510 1.967 . S
O535 C543 1.258 . S
O536 Co511 1.941 . S
O536 C543 1.266 . S
H537 C539 0.959 . S
H538 C539 0.966 . S
C539 C529 1.510 . S
C539 H537 0.959 . S
C539 H538 0.966 . S
C539 H540 0.960 . S
H540 C539 0.960 . S
H541 N521 0.862 . S
O542 Co510 1.920 . S
O542 C515 1.289 . S
C543 O535 1.258 . S
C543 O536 1.266 . S
H544 C556 0.930 1_545 S
H545 C558 0.930 . S
H546 C559 0.930 . S
H547 C563 0.959 . S
H548 C563 0.959 . S
H549 C563 0.961 . S
H550 C564 0.960 . S
H551 C564 0.961 1_455 S
H552 C564 0.959 1_455 S
H553 C567 0.929 . S
H554 C568 0.931 . S
H555 C570 0.930 . S
C556 H544 0.930 1_565 S
C556 C557 1.399 . S
C556 C561 1.399 1_565 S
C557 C556 1.399 . S
C557 C558 1.376 . S
C558 H545 0.930 . S
C558 C557 1.376 . S
C558 C559 1.388 . S
C559 H546 0.930 . S
C559 C558 1.388 . S
C559 C560 1.390 . S
C560 C559 1.390 . S
C560 C561 1.394 1_565 S
C560 C566 1.465 1_655 S
C561 C556 1.399 1_545 S
C561 C560 1.394 1_545 S
C561 C562 1.516 . S
C562 C561 1.516 . S
C562 C563 1.502 . S
C562 C564 1.561 . S
C562 C565 1.526 1_655 S
C563 H547 0.959 . S
C563 H548 0.959 . S
C563 H549 0.961 . S
C563 C562 1.502 . S
C564 H550 0.960 . S
C564 H551 0.961 1_655 S
C564 H552 0.959 1_655 S
C564 C562 1.561 . S
C565 C562 1.526 1_455 S
C565 C566 1.396 1_545 S
C565 C570 1.390 . S
C566 C560 1.465 1_455 S
C566 C565 1.396 1_565 S
C566 C567 1.399 . S
C567 H553 0.929 . S
C567 C566 1.399 . S
C567 C568 1.385 . S
C568 H554 0.931 . S
C568 C567 1.385 . S
C568 C569 1.389 1_565 S
C569 C568 1.389 1_545 S
C569 C570 1.387 . S
C570 H555 0.930 . S
C570 C565 1.390 . S
C570 C569 1.387 . S
H571 C583 0.930 . S
H572 C585 0.930 . S
H573 C586 0.930 . S
H574 C590 0.959 . S
H575 C590 0.959 . S
H576 C590 0.961 . S
H577 C591 0.960 . S
H578 C591 0.961 . S
H579 C591 0.959 . S
H580 C594 0.929 1_545 S
H581 C595 0.931 . S
H582 C597 0.930 . S
C583 H571 0.930 . S
C583 C584 1.399 . S
C583 C588 1.395 1_545 S
C584 C583 1.399 . S
C584 C585 1.376 . S
C585 H572 0.930 . S
C585 C584 1.376 . S
C585 C586 1.388 1_556 S
C586 H573 0.930 . S
C586 C585 1.388 1_554 S
C586 C587 1.390 1_554 S
C587 C586 1.390 1_556 S
C587 C588 1.390 1_545 S
C587 C593 1.465 1_546 S
C588 C583 1.395 1_565 S
C588 C587 1.390 1_565 S
C588 C589 1.523 . S
C589 C588 1.523 . S
C589 C590 1.502 . S
C589 C591 1.561 . S
C589 C592 1.526 1_556 S
C590 H574 0.959 . S
C590 H575 0.959 . S
C590 H576 0.961 . S
C590 C589 1.502 . S
C591 H577 0.960 . S
C591 H578 0.961 . S
C591 H579 0.959 . S
C591 C589 1.561 . S
C592 C589 1.526 1_554 S
C592 C593 1.396 . S
C592 C597 1.390 . S
C593 C587 1.465 1_564 S
C593 C592 1.396 . S
C593 C594 1.399 . S
C594 H580 0.929 1_565 S
C594 C593 1.399 . S
C594 C595 1.385 . S
C595 H581 0.931 . S
C595 C594 1.385 . S
C595 C596 1.389 . S
C596 C595 1.389 . S
C596 C597 1.387 . S
C597 H582 0.930 . S
C597 C592 1.390 . S
C597 C596 1.387 . S
H598 C610 0.930 . S
H599 C612 0.930 . S
H600 C613 0.930 . S
H601 C617 0.959 . S
H602 C617 0.959 . S
H603 C617 0.961 . S
H604 C618 0.960 . S
H605 C618 0.961 . S
H606 C618 0.959 . S
H607 C621 0.929 . S
H608 C622 0.931 . S
H609 C624 0.930 . S
C610 H598 0.930 . S
C610 C611 1.399 . S
C610 C615 1.399 . S
C611 C610 1.399 . S
C611 C612 1.376 . S
C612 H599 0.930 . S
C612 C611 1.376 . S
C612 C613 1.388 . S
C613 H600 0.930 . S
C613 C612 1.388 . S
C613 C614 1.390 . S
C614 C613 1.390 . S
C614 C615 1.394 . S
C614 C620 1.465 . S
C615 C610 1.399 . S
C615 C614 1.394 . S
C615 C616 1.516 . S
C616 C615 1.516 . S
C616 C617 1.502 . S
C616 C618 1.561 . S
C616 C619 1.526 . S
C617 H601 0.959 . S
C617 H602 0.959 . S
C617 H603 0.961 . S
C617 C616 1.502 . S
C618 H604 0.960 . S
C618 H605 0.961 . S
C618 H606 0.959 . S
C618 C616 1.561 . S
C619 C616 1.526 . S
C619 C620 1.396 . S
C619 C624 1.390 . S
C620 C614 1.465 . S
C620 C619 1.396 . S
C620 C621 1.399 . S
C621 H607 0.929 . S
C621 C620 1.399 . S
C621 C622 1.385 . S
C622 H608 0.931 . S
C622 C621 1.385 . S
C622 C623 1.389 . S
C623 C622 1.389 . S
C623 C624 1.387 . S
C624 H609 0.930 . S
C624 C619 1.390 . S
C624 C623 1.387 . S
H625 C637 0.930 . S
H626 C639 0.936 . S
H627 C640 0.930 . S
H628 C644 0.959 . S
H629 C644 0.959 . S
H630 C644 0.961 . S
H631 C645 0.960 . S
H632 C645 0.961 . S
H633 C645 0.959 . S
H634 C648 0.929 . S
H635 C649 0.931 . S
H636 C651 0.930 . S
C637 H625 0.930 . S
C637 C638 1.399 . S
C637 C642 1.399 . S
C638 C637 1.399 . S
C638 C639 1.366 1_655 S
C639 H626 0.936 . S
C639 C638 1.366 1_455 S
C639 C640 1.393 . S
C640 H627 0.930 . S
C640 C639 1.393 . S
C640 C641 1.390 1_455 S
C641 C640 1.390 1_655 S
C641 C642 1.394 . S
C641 C647 1.465 1_655 S
C642 C637 1.399 . S
C642 C641 1.394 . S
C642 C643 1.516 . S
C643 C642 1.516 . S
C643 C644 1.502 . S
C643 C645 1.561 1_554 S
C643 C646 1.526 1_554 S
C644 H628 0.959 . S
C644 H629 0.959 . S
C644 H630 0.961 . S
C644 C643 1.502 . S
C645 H631 0.960 . S
C645 H632 0.961 . S
C645 H633 0.959 . S
C645 C643 1.561 1_556 S
C646 C643 1.526 1_556 S
C646 C647 1.396 1_656 S
C646 C651 1.390 . S
C647 C641 1.465 1_455 S
C647 C646 1.396 1_454 S
C647 C648 1.399 . S
C648 H634 0.929 . S
C648 C647 1.399 . S
C648 C649 1.385 1_554 S
C649 H635 0.931 . S
C649 C648 1.385 1_556 S
C649 C650 1.389 . S
C650 C649 1.389 . S
C650 C651 1.387 1_455 S
C651 H636 0.930 . S
C651 C646 1.390 . S
C651 C650 1.387 1_655 S
H652 C664 0.930 . S
H653 C666 0.948 . S
H654 C667 0.930 . S
H655 C671 0.959 . S
H656 C671 0.959 . S
H657 C671 0.961 . S
H658 C672 0.960 . S
H659 C672 0.961 . S
H660 C672 0.959 . S
H661 C675 0.929 . S
H662 C676 0.931 . S
H663 C678 0.930 . S
C664 H652 0.930 . S
C664 C665 1.399 . S
C664 C669 1.399 . S
C665 C664 1.399 . S
C665 C666 1.376 . S
C666 H653 0.948 . S
C666 C665 1.376 . S
C666 C667 1.388 1_565 S
C667 H654 0.930 . S
C667 C666 1.388 1_545 S
C667 C668 1.390 1_545 S
C668 C667 1.390 1_565 S
C668 C669 1.394 . S
C668 C674 1.465 1_565 S
C669 C664 1.399 . S
C669 C668 1.394 . S
C669 C670 1.516 . S
C670 C669 1.516 . S
C670 C671 1.502 . S
C670 C672 1.561 . S
C670 C673 1.526 . S
C671 H655 0.959 . S
C671 H656 0.959 . S
C671 H657 0.961 . S
C671 C670 1.502 . S
C672 H658 0.960 . S
C672 H659 0.961 . S
C672 H660 0.959 . S
C672 C670 1.561 . S
C673 C670 1.526 . S
C673 C674 1.396 1_565 S
C673 C678 1.390 . S
C674 C668 1.465 1_545 S
C674 C673 1.396 1_545 S
C674 C675 1.399 . S
C675 H661 0.929 . S
C675 C674 1.399 . S
C675 C676 1.385 . S
C676 H662 0.931 . S
C676 C675 1.385 . S
C676 C677 1.389 . S
C677 C676 1.389 . S
C677 C678 1.387 1_545 S
C678 H663 0.930 . S
C678 C673 1.390 . S
C678 C677 1.387 1_565 S
H679 C691 0.930 . S
H680 C693 0.930 . S
H681 C694 0.930 . S
H682 C698 0.959 . S
H683 C698 0.959 . S
H684 C698 0.961 . S
H685 C699 0.960 . S
H686 C699 0.961 . S
H687 C699 0.959 . S
H688 C702 0.929 . S
H689 C703 0.931 . S
H690 C705 0.930 . S
C691 H679 0.930 . S
C691 C692 1.399 . S
C691 C696 1.399 . S
C692 C691 1.399 . S
C692 C693 1.376 . S
C693 H680 0.930 . S
C693 C692 1.376 . S
C693 C694 1.388 . S
C694 H681 0.930 . S
C694 C693 1.388 . S
C694 C695 1.390 . S
C695 C694 1.390 . S
C695 C696 1.394 . S
C695 C701 1.465 . S
C696 C691 1.399 . S
C696 C695 1.394 . S
C696 C697 1.516 1_554 S
C697 C696 1.516 1_556 S
C697 C698 1.502 . S
C697 C699 1.561 . S
C697 C700 1.526 . S
C698 H682 0.959 . S
C698 H683 0.959 . S
C698 H684 0.961 . S
C698 C697 1.502 . S
C699 H685 0.960 . S
C699 H686 0.961 . S
C699 H687 0.959 . S
C699 C697 1.561 . S
C700 C697 1.526 . S
C700 C701 1.396 1_556 S
C700 C705 1.390 . S
C701 C695 1.465 . S
C701 C700 1.396 1_554 S
C701 C702 1.399 . S
C702 H688 0.929 . S
C702 C701 1.399 . S
C702 C703 1.385 1_554 S
C703 H689 0.931 . S
C703 C702 1.385 1_556 S
C703 C704 1.389 . S
C704 C703 1.389 . S
C704 C705 1.387 . S
C705 H690 0.930 . S
C705 C700 1.390 . S
C705 C704 1.387 . S
H706 C718 0.930 . S
H707 C720 0.930 . S
H708 C721 0.930 . S
H709 C725 0.959 . S
H710 C725 0.959 1_455 S
H711 C725 0.961 . S
H712 C726 0.960 . S
H713 C726 0.961 . S
H714 C726 0.959 . S
H715 C729 0.929 . S
H716 C730 0.931 . S
H717 C732 0.930 . S
C718 H706 0.930 . S
C718 C719 1.399 . S
C718 C723 1.399 . S
C719 C718 1.399 . S
C719 C720 1.376 . S
C720 H707 0.930 . S
C720 C719 1.376 . S
C720 C721 1.388 . S
C721 H708 0.930 . S
C721 C720 1.388 . S
C721 C722 1.390 . S
C722 C721 1.390 . S
C722 C723 1.394 . S
C722 C728 1.465 1_655 S
C723 C718 1.399 . S
C723 C722 1.394 . S
C723 C724 1.516 1_655 S
C724 C723 1.516 1_455 S
C724 C725 1.502 1_455 S
C724 C726 1.561 . S
C724 C727 1.526 . S
C725 H709 0.959 . S
C725 H710 0.959 1_655 S
C725 H711 0.961 . S
C725 C724 1.502 1_655 S
C726 H712 0.960 . S
C726 H713 0.961 . S
C726 H714 0.959 . S
C726 C724 1.561 . S
C727 C724 1.526 . S
C727 C728 1.396 . S
C727 C732 1.390 . S
C728 C722 1.465 1_455 S
C728 C727 1.396 . S
C728 C729 1.399 . S
C729 H715 0.929 . S
C729 C728 1.399 . S
C729 C730 1.385 . S
C730 H716 0.931 . S
C730 C729 1.385 . S
C730 C731 1.389 . S
C731 C730 1.389 . S
C731 C732 1.387 . S
C732 H717 0.930 . S
C732 C727 1.390 . S
C732 C731 1.387 . S
H733 C745 0.930 . S
H734 C747 0.930 . S
H735 C748 0.940 . S
H736 C752 0.959 . S
H737 C752 0.959 . S
H738 C752 0.961 . S
H739 C753 0.960 . S
H740 C753 0.961 . S
H741 C753 0.959 . S
H742 C756 0.929 1_565 S
H743 C757 0.931 . S
H744 C759 0.930 . S
C745 H733 0.930 . S
C745 C746 1.399 . S
C745 C750 1.399 . S
C746 C745 1.399 . S
C746 C747 1.376 . S
C747 H734 0.930 . S
C747 C746 1.376 . S
C747 C748 1.388 1_554 S
C748 H735 0.940 . S
C748 C747 1.388 1_556 S
C748 C749 1.390 . S
C749 C748 1.390 . S
C749 C750 1.394 1_556 S
C749 C755 1.465 1_665 S
C750 C745 1.399 . S
C750 C749 1.394 1_554 S
C750 C751 1.516 1_565 S
C751 C750 1.516 1_545 S
C751 C752 1.502 . S
C751 C753 1.561 1_655 S
C751 C754 1.524 1_554 S
C752 H736 0.959 . S
C752 H737 0.959 . S
C752 H738 0.961 . S
C752 C751 1.502 . S
C753 H739 0.960 . S
C753 H740 0.961 . S
C753 H741 0.959 . S
C753 C751 1.561 1_455 S
C754 C751 1.524 1_556 S
C754 C755 1.396 1_655 S
C754 C759 1.391 1_655 S
C755 C749 1.465 1_445 S
C755 C754 1.396 1_455 S
C755 C756 1.399 . S
C756 H742 0.929 1_545 S
C756 C755 1.399 . S
C756 C757 1.385 . S
C757 H743 0.931 . S
C757 C756 1.385 . S
C757 C758 1.389 . S
C758 C757 1.389 . S
C758 C759 1.387 . S
C759 H744 0.930 . S
C759 C754 1.391 1_455 S
C759 C758 1.387 . S
H760 C772 0.930 . S
H761 C774 0.930 . S
H762 C775 0.930 . S
H763 C779 0.959 . S
H764 C779 0.959 . S
H765 C779 0.961 . S
H766 C780 0.960 . S
H767 C780 0.961 . S
H768 C780 0.959 . S
H769 C783 0.929 . S
H770 C784 0.931 . S
H771 C786 0.930 . S
C772 H760 0.930 . S
C772 C773 1.399 . S
C772 C777 1.399 . S
C773 C772 1.399 . S
C773 C774 1.376 . S
C774 H761 0.930 . S
C774 C773 1.376 . S
C774 C775 1.388 . S
C775 H762 0.930 . S
C775 C774 1.388 . S
C775 C776 1.390 . S
C776 C775 1.390 . S
C776 C777 1.394 . S
C776 C782 1.465 . S
C777 C772 1.399 . S
C777 C776 1.394 . S
C777 C778 1.516 . S
C778 C777 1.516 . S
C778 C779 1.502 . S
C778 C780 1.561 . S
C778 C781 1.526 . S
C779 H763 0.959 . S
C779 H764 0.959 . S
C779 H765 0.961 . S
C779 C778 1.502 . S
C780 H766 0.960 . S
C780 H767 0.961 . S
C780 H768 0.959 . S
C780 C778 1.561 . S
C781 C778 1.526 . S
C781 C782 1.396 . S
C781 C786 1.390 . S
C782 C776 1.465 . S
C782 C781 1.396 . S
C782 C783 1.399 . S
C783 H769 0.929 . S
C783 C782 1.399 . S
C783 C784 1.385 . S
C784 H770 0.931 . S
C784 C783 1.385 . S
C784 C785 1.389 . S
C785 C784 1.389 . S
C785 C786 1.387 . S
C786 H771 0.930 . S
C786 C781 1.390 . S
C786 C785 1.387 . S
H787 C799 0.930 . S
H788 C801 0.930 . S
H789 C802 0.930 . S
H790 C806 0.959 . S
H791 C806 0.959 . S
H792 C806 0.961 . S
H793 C807 0.960 . S
H794 C807 0.961 . S
H795 C807 0.959 . S
H796 C810 0.929 . S
H797 C811 0.931 . S
H798 C813 0.930 . S
C799 H787 0.930 . S
C799 C800 1.399 . S
C799 C804 1.399 . S
C800 C799 1.399 . S
C800 C801 1.376 . S
C801 H788 0.930 . S
C801 C800 1.376 . S
C801 C802 1.388 . S
C802 H789 0.930 . S
C802 C801 1.388 . S
C802 C803 1.390 . S
C803 C802 1.390 . S
C803 C804 1.394 . S
C803 C809 1.465 . S
C804 C799 1.399 . S
C804 C803 1.394 . S
C804 C805 1.516 . S
C805 C804 1.516 . S
C805 C806 1.502 . S
C805 C807 1.561 . S
C805 C808 1.526 . S
C806 H790 0.959 . S
C806 H791 0.959 . S
C806 H792 0.961 . S
C806 C805 1.502 . S
C807 H793 0.960 . S
C807 H794 0.961 . S
C807 H795 0.959 . S
C807 C805 1.561 . S
C808 C805 1.526 . S
C808 C809 1.396 . S
C808 C813 1.390 . S
C809 C803 1.465 . S
C809 C808 1.396 . S
C809 C810 1.399 . S
C810 H796 0.929 . S
C810 C809 1.399 . S
C810 C811 1.385 . S
C811 H797 0.931 . S
C811 C810 1.385 . S
C811 C812 1.389 . S
C812 C811 1.389 . S
C812 C813 1.387 . S
C813 H798 0.930 . S
C813 C808 1.390 . S
C813 C812 1.387 . S
H814 C826 0.930 . S
H815 C828 0.930 . S
H816 C829 0.930 . S
H817 C833 0.959 . S
H818 C833 0.959 . S
H819 C833 0.961 . S
H820 C834 0.960 . S
H821 C834 0.961 . S
H822 C834 0.959 . S
H823 C837 0.929 . S
H824 C838 0.931 . S
H825 C840 0.930 . S
C826 H814 0.930 . S
C826 C827 1.399 . S
C826 C831 1.399 . S
C827 C826 1.399 . S
C827 C828 1.376 . S
C828 H815 0.930 . S
C828 C827 1.376 . S
C828 C829 1.388 . S
C829 H816 0.930 . S
C829 C828 1.388 . S
C829 C830 1.390 . S
C830 C829 1.390 . S
C830 C831 1.394 . S
C830 C836 1.465 . S
C831 C826 1.399 . S
C831 C830 1.394 . S
C831 C832 1.516 . S
C832 C831 1.516 . S
C832 C833 1.502 . S
C832 C834 1.561 . S
C832 C835 1.526 . S
C833 H817 0.959 . S
C833 H818 0.959 . S
C833 H819 0.961 . S
C833 C832 1.502 . S
C834 H820 0.960 . S
C834 H821 0.961 . S
C834 H822 0.959 . S
C834 C832 1.561 . S
C835 C832 1.526 . S
C835 C836 1.396 . S
C835 C840 1.390 . S
C836 C830 1.465 . S
C836 C835 1.396 . S
C836 C837 1.399 . S
C837 H823 0.929 . S
C837 C836 1.399 . S
C837 C838 1.385 . S
C838 H824 0.931 . S
C838 C837 1.385 . S
C838 C839 1.389 . S
C839 C838 1.389 . S
C839 C840 1.387 . S
C840 H825 0.930 . S
C840 C835 1.390 . S
C840 C839 1.387 . S
H841 C853 0.930 . S
H842 C855 0.930 . S
H843 C856 0.930 . S
H844 C860 0.959 . S
H845 C860 0.959 . S
H846 C860 0.961 . S
H847 C861 0.960 . S
H848 C861 0.961 . S
H849 C861 0.959 . S
H850 C864 0.929 . S
H851 C865 0.931 . S
H852 C867 0.930 . S
C853 H841 0.930 . S
C853 C854 1.399 . S
C853 C858 1.399 . S
C854 C853 1.399 . S
C854 C855 1.376 . S
C855 H842 0.930 . S
C855 C854 1.376 . S
C855 C856 1.388 . S
C856 H843 0.930 . S
C856 C855 1.388 . S
C856 C857 1.390 . S
C857 C856 1.390 . S
C857 C858 1.394 . S
C857 C863 1.465 . S
C858 C853 1.399 . S
C858 C857 1.394 . S
C858 C859 1.516 . S
C859 C858 1.516 . S
C859 C860 1.502 . S
C859 C861 1.561 . S
C859 C862 1.526 . S
C860 H844 0.959 . S
C860 H845 0.959 . S
C860 H846 0.961 . S
C860 C859 1.502 . S
C861 H847 0.960 . S
C861 H848 0.961 . S
C861 H849 0.959 . S
C861 C859 1.561 . S
C862 C859 1.526 . S
C862 C863 1.396 . S
C862 C867 1.390 . S
C863 C857 1.465 . S
C863 C862 1.396 . S
C863 C864 1.399 . S
C864 H850 0.929 . S
C864 C863 1.399 . S
C864 C865 1.385 . S
C865 H851 0.931 . S
C865 C864 1.385 . S
C865 C866 1.389 . S
C866 C865 1.389 . S
C866 C867 1.387 . S
C867 H852 0.930 . S
C867 C862 1.390 . S
C867 C866 1.387 . S
H868 C880 0.930 . S
H869 C882 0.930 . S
H870 C883 0.930 . S
H871 C887 0.959 . S
H872 C887 0.959 . S
H873 C887 0.961 . S
H874 C888 0.960 . S
H875 C888 0.961 . S
H876 C888 0.959 . S
H877 C891 0.929 . S
H878 C892 0.931 . S
H879 C894 0.930 . S
C880 H868 0.930 . S
C880 C881 1.399 . S
C880 C885 1.399 . S
C881 C880 1.399 . S
C881 C882 1.376 . S
C882 H869 0.930 . S
C882 C881 1.376 . S
C882 C883 1.388 . S
C883 H870 0.930 . S
C883 C882 1.388 . S
C883 C884 1.390 . S
C884 C883 1.390 . S
C884 C885 1.394 . S
C884 C890 1.465 . S
C885 C880 1.399 . S
C885 C884 1.394 . S
C885 C886 1.516 . S
C886 C885 1.516 . S
C886 C887 1.502 . S
C886 C888 1.561 . S
C886 C889 1.526 . S
C887 H871 0.959 . S
C887 H872 0.959 . S
C887 H873 0.961 . S
C887 C886 1.502 . S
C888 H874 0.960 . S
C888 H875 0.961 . S
C888 H876 0.959 . S
C888 C886 1.561 . S
C889 C886 1.526 . S
C889 C890 1.396 . S
C889 C894 1.390 . S
C890 C884 1.465 . S
C890 C889 1.396 . S
C890 C891 1.399 . S
C891 H877 0.929 . S
C891 C890 1.399 . S
C891 C892 1.385 . S
C892 H878 0.931 . S
C892 C891 1.385 . S
C892 C893 1.389 . S
C893 C892 1.389 . S
C893 C894 1.387 . S
C894 H879 0.930 . S
C894 C889 1.390 . S
C894 C893 1.387 . S
H895 C907 0.930 . S
H896 C909 0.930 . S
H897 C910 0.930 . S
H898 C914 0.959 . S
H899 C914 0.959 . S
H900 C914 0.961 . S
H901 C915 0.960 . S
H902 C915 0.961 . S
H903 C915 0.959 . S
H904 C918 0.929 . S
H905 C919 0.931 . S
H906 C921 0.930 . S
C907 H895 0.930 . S
C907 C908 1.399 . S
C907 C912 1.399 . S
C908 C907 1.399 . S
C908 C909 1.376 . S
C909 H896 0.930 . S
C909 C908 1.376 . S
C909 C910 1.388 . S
C910 H897 0.930 . S
C910 C909 1.388 . S
C910 C911 1.390 . S
C911 C910 1.390 . S
C911 C912 1.394 . S
C911 C917 1.465 . S
C912 C907 1.399 . S
C912 C911 1.394 . S
C912 C913 1.516 . S
C913 C912 1.516 . S
C913 C914 1.502 . S
C913 C915 1.561 . S
C913 C916 1.526 . S
C914 H898 0.959 . S
C914 H899 0.959 . S
C914 H900 0.961 . S
C914 C913 1.502 . S
C915 H901 0.960 . S
C915 H902 0.961 . S
C915 H903 0.959 . S
C915 C913 1.561 . S
C916 C913 1.526 . S
C916 C917 1.396 . S
C916 C921 1.390 . S
C917 C911 1.465 . S
C917 C916 1.396 . S
C917 C918 1.399 . S
C918 H904 0.929 . S
C918 C917 1.399 . S
C918 C919 1.385 . S
C919 H905 0.931 . S
C919 C918 1.385 . S
C919 C920 1.389 . S
C920 C919 1.389 . S
C920 C921 1.387 . S
C921 H906 0.930 . S
C921 C916 1.390 . S
C921 C920 1.387 . S
H922 C934 0.930 . S
H923 C936 0.930 . S
H924 C937 0.930 . S
H925 C941 0.959 . S
H926 C941 0.959 . S
H927 C941 0.961 . S
H928 C942 0.960 . S
H929 C942 0.961 . S
H930 C942 0.959 . S
H931 C945 0.929 . S
H932 C946 0.931 . S
H933 C948 0.930 . S
C934 H922 0.930 . S
C934 C935 1.399 . S
C934 C939 1.399 . S
C935 C934 1.399 . S
C935 C936 1.376 . S
C936 H923 0.930 . S
C936 C935 1.376 . S
C936 C937 1.388 . S
C937 H924 0.930 . S
C937 C936 1.388 . S
C937 C938 1.390 . S
C938 C937 1.390 . S
C938 C939 1.394 . S
C938 C944 1.465 . S
C939 C934 1.399 . S
C939 C938 1.394 . S
C939 C940 1.516 . S
C940 C939 1.516 . S
C940 C941 1.502 . S
C940 C942 1.561 . S
C940 C943 1.526 . S
C941 H925 0.959 . S
C941 H926 0.959 . S
C941 H927 0.961 . S
C941 C940 1.502 . S
C942 H928 0.960 . S
C942 H929 0.961 . S
C942 H930 0.959 . S
C942 C940 1.561 . S
C943 C940 1.526 . S
C943 C944 1.396 . S
C943 C948 1.390 . S
C944 C938 1.465 . S
C944 C943 1.396 . S
C944 C945 1.399 . S
C945 H931 0.929 . S
C945 C944 1.399 . S
C945 C946 1.385 . S
C946 H932 0.931 . S
C946 C945 1.385 . S
C946 C947 1.389 . S
C947 C946 1.389 . S
C947 C948 1.387 . S
C948 H933 0.930 . S
C948 C943 1.390 . S
C948 C947 1.387 . S
H949 C961 0.930 . S
H950 C963 0.930 . S
H951 C964 0.930 . S
H952 C968 0.959 . S
H953 C968 0.959 . S
H954 C968 0.961 . S
H955 C969 0.960 . S
H956 C969 0.961 . S
H957 C969 0.959 . S
H958 C972 0.929 . S
H959 C973 0.931 . S
H960 C975 0.930 . S
C961 H949 0.930 . S
C961 C962 1.399 . S
C961 C966 1.399 . S
C962 C961 1.399 . S
C962 C963 1.376 . S
C963 H950 0.930 . S
C963 C962 1.376 . S
C963 C964 1.388 . S
C964 H951 0.930 . S
C964 C963 1.388 . S
C964 C965 1.390 . S
C965 C964 1.390 . S
C965 C966 1.394 . S
C965 C971 1.465 . S
C966 C961 1.399 . S
C966 C965 1.394 . S
C966 C967 1.516 . S
C967 C966 1.516 . S
C967 C968 1.502 . S
C967 C969 1.561 . S
C967 C970 1.526 . S
C968 H952 0.959 . S
C968 H953 0.959 . S
C968 H954 0.961 . S
C968 C967 1.502 . S
C969 H955 0.960 . S
C969 H956 0.961 . S
C969 H957 0.959 . S
C969 C967 1.561 . S
C970 C967 1.526 . S
C970 C971 1.396 . S
C970 C975 1.390 . S
C971 C965 1.465 . S
C971 C970 1.396 . S
C971 C972 1.399 . S
C972 H958 0.929 . S
C972 C971 1.399 . S
C972 C973 1.385 . S
C973 H959 0.931 . S
C973 C972 1.385 . S
C973 C974 1.389 . S
C974 C973 1.389 . S
C974 C975 1.387 . S
C975 H960 0.930 . S
C975 C970 1.390 . S
C975 C974 1.387 . S
H976 C988 0.930 . S
H977 C990 0.930 . S
H978 C991 0.930 . S
H979 C995 0.959 . S
H980 C995 0.959 . S
H981 C995 0.961 . S
H982 C996 0.960 . S
H983 C996 0.961 . S
H984 C996 0.959 . S
H985 C999 0.929 . S
H986 C1000 0.931 . S
H987 C1002 0.930 . S
C988 H976 0.930 . S
C988 C989 1.399 . S
C988 C993 1.399 . S
C989 C988 1.399 . S
C989 C990 1.376 . S
C990 H977 0.930 . S
C990 C989 1.376 . S
C990 C991 1.388 . S
C991 H978 0.930 . S
C991 C990 1.388 . S
C991 C992 1.390 . S
C992 C991 1.390 . S
C992 C993 1.394 . S
C992 C998 1.465 . S
C993 C988 1.399 . S
C993 C992 1.394 . S
C993 C994 1.516 . S
C994 C993 1.516 . S
C994 C995 1.502 . S
C994 C996 1.561 . S
C994 C997 1.526 . S
C995 H979 0.959 . S
C995 H980 0.959 . S
C995 H981 0.961 . S
C995 C994 1.502 . S
C996 H982 0.960 . S
C996 H983 0.961 . S
C996 H984 0.959 . S
C996 C994 1.561 . S
C997 C994 1.526 . S
C997 C998 1.396 . S
C997 C1002 1.390 . S
C998 C992 1.465 . S
C998 C997 1.396 . S
C998 C999 1.399 . S
C999 H985 0.929 . S
C999 C998 1.399 . S
C999 C1000 1.385 . S
C1000 H986 0.931 . S
C1000 C999 1.385 . S
C1000 C1001 1.389 . S
C1001 C1000 1.389 . S
C1001 C1002 1.387 . S
C1002 H987 0.930 . S
C1002 C997 1.390 . S
C1002 C1001 1.387 . S
H1003 C1015 0.930 . S
H1004 C1017 0.930 . S
H1005 C1018 0.930 . S
H1006 C1022 0.959 . S
H1007 C1022 0.959 . S
H1008 C1022 0.961 . S
H1009 C1023 0.960 . S
H1010 C1023 0.961 . S
H1011 C1023 0.959 . S
H1012 C1026 0.929 . S
H1013 C1027 0.931 . S
H1014 C1029 0.930 . S
C1015 H1003 0.930 . S
C1015 C1016 1.399 . S
C1015 C1020 1.399 . S
C1016 C1015 1.399 . S
C1016 C1017 1.376 . S
C1017 H1004 0.930 . S
C1017 C1016 1.376 . S
C1017 C1018 1.388 . S
C1018 H1005 0.930 . S
C1018 C1017 1.388 . S
C1018 C1019 1.390 . S
C1019 C1018 1.390 . S
C1019 C1020 1.394 . S
C1019 C1025 1.465 . S
C1020 C1015 1.399 . S
C1020 C1019 1.394 . S
C1020 C1021 1.516 . S
C1021 C1020 1.516 . S
C1021 C1022 1.502 . S
C1021 C1023 1.561 . S
C1021 C1024 1.526 . S
C1022 H1006 0.959 . S
C1022 H1007 0.959 . S
C1022 H1008 0.961 . S
C1022 C1021 1.502 . S
C1023 H1009 0.960 . S
C1023 H1010 0.961 . S
C1023 H1011 0.959 . S
C1023 C1021 1.561 . S
C1024 C1021 1.526 . S
C1024 C1025 1.396 . S
C1024 C1029 1.390 . S
C1025 C1019 1.465 . S
C1025 C1024 1.396 . S
C1025 C1026 1.399 . S
C1026 H1012 0.929 . S
C1026 C1025 1.399 . S
C1026 C1027 1.385 . S
C1027 H1013 0.931 . S
C1027 C1026 1.385 . S
C1027 C1028 1.389 . S
C1028 C1027 1.389 . S
C1028 C1029 1.387 . S
C1029 H1014 0.930 . S
C1029 C1024 1.390 . S
C1029 C1028 1.387 . S
H1030 C1042 0.930 . S
H1031 C1044 0.930 . S
H1032 C1045 0.930 . S
H1033 C1049 0.959 . S
H1034 C1049 0.959 . S
H1035 C1049 0.961 . S
H1036 C1050 0.960 . S
H1037 C1050 0.961 . S
H1038 C1050 0.959 . S
H1039 C1053 0.929 . S
H1040 C1054 0.931 . S
H1041 C1056 0.930 . S
C1042 H1030 0.930 . S
C1042 C1043 1.399 . S
C1042 C1047 1.399 . S
C1043 C1042 1.399 . S
C1043 C1044 1.376 . S
C1044 H1031 0.930 . S
C1044 C1043 1.376 . S
C1044 C1045 1.388 . S
C1045 H1032 0.930 . S
C1045 C1044 1.388 . S
C1045 C1046 1.390 . S
C1046 C1045 1.390 . S
C1046 C1047 1.394 . S
C1046 C1052 1.465 . S
C1047 C1042 1.399 . S
C1047 C1046 1.394 . S
C1047 C1048 1.516 . S
C1048 C1047 1.516 . S
C1048 C1049 1.502 . S
C1048 C1050 1.561 . S
C1048 C1051 1.526 . S
C1049 H1033 0.959 . S
C1049 H1034 0.959 . S
C1049 H1035 0.961 . S
C1049 C1048 1.502 . S
C1050 H1036 0.960 . S
C1050 H1037 0.961 . S
C1050 H1038 0.959 . S
C1050 C1048 1.561 . S
C1051 C1048 1.526 . S
C1051 C1052 1.396 . S
C1051 C1056 1.390 . S
C1052 C1046 1.465 . S
C1052 C1051 1.396 . S
C1052 C1053 1.399 . S
C1053 H1039 0.929 . S
C1053 C1052 1.399 . S
C1053 C1054 1.385 . S
C1054 H1040 0.931 . S
C1054 C1053 1.385 . S
C1054 C1055 1.389 . S
C1055 C1054 1.389 . S
C1055 C1056 1.387 . S
C1056 H1041 0.930 . S
C1056 C1051 1.390 . S
C1056 C1055 1.387 . S
H1057 C1069 0.930 . S
H1058 C1071 0.930 . S
H1059 C1072 0.930 . S
H1060 C1076 0.959 . S
H1061 C1076 0.959 . S
H1062 C1076 0.961 . S
H1063 C1077 0.960 . S
H1064 C1077 0.961 . S
H1065 C1077 0.959 . S
H1066 C1080 0.929 . S
H1067 C1081 0.931 . S
H1068 C1083 0.930 . S
C1069 H1057 0.930 . S
C1069 C1070 1.399 . S
C1069 C1074 1.399 . S
C1070 C1069 1.399 . S
C1070 C1071 1.376 . S
C1071 H1058 0.930 . S
C1071 C1070 1.376 . S
C1071 C1072 1.388 . S
C1072 H1059 0.930 . S
C1072 C1071 1.388 . S
C1072 C1073 1.390 . S
C1073 C1072 1.390 . S
C1073 C1074 1.394 . S
C1073 C1079 1.465 . S
C1074 C1069 1.399 . S
C1074 C1073 1.394 . S
C1074 C1075 1.516 . S
C1075 C1074 1.516 . S
C1075 C1076 1.502 . S
C1075 C1077 1.561 . S
C1075 C1078 1.526 . S
C1076 H1060 0.959 . S
C1076 H1061 0.959 . S
C1076 H1062 0.961 . S
C1076 C1075 1.502 . S
C1077 H1063 0.960 . S
C1077 H1064 0.961 . S
C1077 H1065 0.959 . S
C1077 C1075 1.561 . S
C1078 C1075 1.526 . S
C1078 C1079 1.396 . S
C1078 C1083 1.390 . S
C1079 C1073 1.465 . S
C1079 C1078 1.396 . S
C1079 C1080 1.399 . S
C1080 H1066 0.929 . S
C1080 C1079 1.399 . S
C1080 C1081 1.385 . S
C1081 H1067 0.931 . S
C1081 C1080 1.385 . S
C1081 C1082 1.389 . S
C1082 C1081 1.389 . S
C1082 C1083 1.387 . S
C1083 H1068 0.930 . S
C1083 C1078 1.390 . S
C1083 C1082 1.387 . S
H1084 C1096 0.930 . S
H1085 C1098 0.930 . S
H1086 C1099 0.930 . S
H1087 C1103 0.959 . S
H1088 C1103 0.959 . S
H1089 C1103 0.961 . S
H1090 C1104 0.960 . S
H1091 C1104 0.961 . S
H1092 C1104 0.959 . S
H1093 C1107 0.929 . S
H1094 C1108 0.931 . S
H1095 C1110 0.930 . S
C1096 H1084 0.930 . S
C1096 C1097 1.399 . S
C1096 C1101 1.399 . S
C1097 C1096 1.399 . S
C1097 C1098 1.376 . S
C1098 H1085 0.930 . S
C1098 C1097 1.376 . S
C1098 C1099 1.388 . S
C1099 H1086 0.930 . S
C1099 C1098 1.388 . S
C1099 C1100 1.390 . S
C1100 C1099 1.390 . S
C1100 C1101 1.394 . S
C1100 C1106 1.465 . S
C1101 C1096 1.399 . S
C1101 C1100 1.394 . S
C1101 C1102 1.516 . S
C1102 C1101 1.516 . S
C1102 C1103 1.502 . S
C1102 C1104 1.561 . S
C1102 C1105 1.526 . S
C1103 H1087 0.959 . S
C1103 H1088 0.959 . S
C1103 H1089 0.961 . S
C1103 C1102 1.502 . S
C1104 H1090 0.960 . S
C1104 H1091 0.961 . S
C1104 H1092 0.959 . S
C1104 C1102 1.561 . S
C1105 C1102 1.526 . S
C1105 C1106 1.396 . S
C1105 C1110 1.390 . S
C1106 C1100 1.465 . S
C1106 C1105 1.396 . S
C1106 C1107 1.399 . S
C1107 H1093 0.929 . S
C1107 C1106 1.399 . S
C1107 C1108 1.385 . S
C1108 H1094 0.931 . S
C1108 C1107 1.385 . S
C1108 C1109 1.389 . S
C1109 C1108 1.389 . S
C1109 C1110 1.387 . S
C1110 H1095 0.930 . S
C1110 C1105 1.390 . S
C1110 C1109 1.387 . S
H1111 C1123 0.930 . S
H1112 C1125 0.930 . S
H1113 C1126 0.930 . S
H1114 C1130 0.959 . S
H1115 C1130 0.959 . S
H1116 C1130 0.961 . S
H1117 C1131 0.960 . S
H1118 C1131 0.961 . S
H1119 C1131 0.959 . S
H1120 C1134 0.929 . S
H1121 C1135 0.931 . S
H1122 C1137 0.930 . S
C1123 H1111 0.930 . S
C1123 C1124 1.399 . S
C1123 C1128 1.399 . S
C1124 C1123 1.399 . S
C1124 C1125 1.376 . S
C1125 H1112 0.930 . S
C1125 C1124 1.376 . S
C1125 C1126 1.388 . S
C1126 H1113 0.930 . S
C1126 C1125 1.388 . S
C1126 C1127 1.390 . S
C1127 C1126 1.390 . S
C1127 C1128 1.394 . S
C1127 C1133 1.465 . S
C1128 C1123 1.399 . S
C1128 C1127 1.394 . S
C1128 C1129 1.516 . S
C1129 C1128 1.516 . S
C1129 C1130 1.502 . S
C1129 C1131 1.561 . S
C1129 C1132 1.526 . S
C1130 H1114 0.959 . S
C1130 H1115 0.959 . S
C1130 H1116 0.961 . S
C1130 C1129 1.502 . S
C1131 H1117 0.960 . S
C1131 H1118 0.961 . S
C1131 H1119 0.959 . S
C1131 C1129 1.561 . S
C1132 C1129 1.526 . S
C1132 C1133 1.396 . S
C1132 C1137 1.390 . S
C1133 C1127 1.465 . S
C1133 C1132 1.396 . S
C1133 C1134 1.399 . S
C1134 H1120 0.929 . S
C1134 C1133 1.399 . S
C1134 C1135 1.385 . S
C1135 H1121 0.931 . S
C1135 C1134 1.385 . S
C1135 C1136 1.389 . S
C1136 C1135 1.389 . S
C1136 C1137 1.387 . S
C1137 H1122 0.930 . S
C1137 C1132 1.390 . S
C1137 C1136 1.387 . S
H1138 C1150 0.930 . S
H1139 C1152 0.930 . S
H1140 C1153 0.930 . S
H1141 C1157 0.959 . S
H1142 C1157 0.959 . S
H1143 C1157 0.961 . S
H1144 C1158 0.960 . S
H1145 C1158 0.961 . S
H1146 C1158 0.959 . S
H1147 C1161 0.929 . S
H1148 C1162 0.931 . S
H1149 C1164 0.930 . S
C1150 H1138 0.930 . S
C1150 C1151 1.399 . S
C1150 C1155 1.399 . S
C1151 C1150 1.399 . S
C1151 C1152 1.376 . S
C1152 H1139 0.930 . S
C1152 C1151 1.376 . S
C1152 C1153 1.388 . S
C1153 H1140 0.930 . S
C1153 C1152 1.388 . S
C1153 C1154 1.390 . S
C1154 C1153 1.390 . S
C1154 C1155 1.394 . S
C1154 C1160 1.465 . S
C1155 C1150 1.399 . S
C1155 C1154 1.394 . S
C1155 C1156 1.516 . S
C1156 C1155 1.516 . S
C1156 C1157 1.502 . S
C1156 C1158 1.561 . S
C1156 C1159 1.526 . S
C1157 H1141 0.959 . S
C1157 H1142 0.959 . S
C1157 H1143 0.961 . S
C1157 C1156 1.502 . S
C1158 H1144 0.960 . S
C1158 H1145 0.961 . S
C1158 H1146 0.959 . S
C1158 C1156 1.561 . S
C1159 C1156 1.526 . S
C1159 C1160 1.396 . S
C1159 C1164 1.390 . S
C1160 C1154 1.465 . S
C1160 C1159 1.396 . S
C1160 C1161 1.399 . S
C1161 H1147 0.929 . S
C1161 C1160 1.399 . S
C1161 C1162 1.385 . S
C1162 H1148 0.931 . S
C1162 C1161 1.385 . S
C1162 C1163 1.389 . S
C1163 C1162 1.389 . S
C1163 C1164 1.387 . S
C1164 H1149 0.930 . S
C1164 C1159 1.390 . S
C1164 C1163 1.387 . S
H1165 C1177 0.930 . S
H1166 C1179 0.930 . S
H1167 C1180 0.930 . S
H1168 C1184 0.959 . S
H1169 C1184 0.959 . S
H1170 C1184 0.961 . S
H1171 C1185 0.960 . S
H1172 C1185 0.961 . S
H1173 C1185 0.959 . S
H1174 C1188 0.929 . S
H1175 C1189 0.931 . S
H1176 C1191 0.930 . S
C1177 H1165 0.930 . S
C1177 C1178 1.399 . S
C1177 C1182 1.399 . S
C1178 C1177 1.399 . S
C1178 C1179 1.376 . S
C1179 H1166 0.930 . S
C1179 C1178 1.376 . S
C1179 C1180 1.388 . S
C1180 H1167 0.930 . S
C1180 C1179 1.388 . S
C1180 C1181 1.390 . S
C1181 C1180 1.390 . S
C1181 C1182 1.394 . S
C1181 C1187 1.465 . S
C1182 C1177 1.399 . S
C1182 C1181 1.394 . S
C1182 C1183 1.516 . S
C1183 C1182 1.516 . S
C1183 C1184 1.502 . S
C1183 C1185 1.561 . S
C1183 C1186 1.526 . S
C1184 H1168 0.959 . S
C1184 H1169 0.959 . S
C1184 H1170 0.961 . S
C1184 C1183 1.502 . S
C1185 H1171 0.960 . S
C1185 H1172 0.961 . S
C1185 H1173 0.959 . S
C1185 C1183 1.561 . S
C1186 C1183 1.526 . S
C1186 C1187 1.396 . S
C1186 C1191 1.390 . S
C1187 C1181 1.465 . S
C1187 C1186 1.396 . S
C1187 C1188 1.399 . S
C1188 H1174 0.929 . S
C1188 C1187 1.399 . S
C1188 C1189 1.385 . S
C1189 H1175 0.931 . S
C1189 C1188 1.385 . S
C1189 C1190 1.389 . S
C1190 C1189 1.389 . S
C1190 C1191 1.387 . S
C1191 H1176 0.930 . S
C1191 C1186 1.390 . S
C1191 C1190 1.387 . S
H1192 C1204 0.930 . S
H1193 C1206 0.930 . S
H1194 C1207 0.930 . S
H1195 C1211 0.959 . S
H1196 C1211 0.959 . S
H1197 C1211 0.961 . S
H1198 C1212 0.960 . S
H1199 C1212 0.961 . S
H1200 C1212 0.959 . S
H1201 C1215 0.929 . S
H1202 C1216 0.931 . S
H1203 C1218 0.930 . S
C1204 H1192 0.930 . S
C1204 C1205 1.399 . S
C1204 C1209 1.399 . S
C1205 C1204 1.399 . S
C1205 C1206 1.376 . S
C1206 H1193 0.930 . S
C1206 C1205 1.376 . S
C1206 C1207 1.388 . S
C1207 H1194 0.930 . S
C1207 C1206 1.388 . S
C1207 C1208 1.390 . S
C1208 C1207 1.390 . S
C1208 C1209 1.394 . S
C1208 C1214 1.465 . S
C1209 C1204 1.399 . S
C1209 C1208 1.394 . S
C1209 C1210 1.516 . S
C1210 C1209 1.516 . S
C1210 C1211 1.502 . S
C1210 C1212 1.561 . S
C1210 C1213 1.526 . S
C1211 H1195 0.959 . S
C1211 H1196 0.959 . S
C1211 H1197 0.961 . S
C1211 C1210 1.502 . S
C1212 H1198 0.960 . S
C1212 H1199 0.961 . S
C1212 H1200 0.959 . S
C1212 C1210 1.561 . S
C1213 C1210 1.526 . S
C1213 C1214 1.396 . S
C1213 C1218 1.390 . S
C1214 C1208 1.465 . S
C1214 C1213 1.396 . S
C1214 C1215 1.399 . S
C1215 H1201 0.929 . S
C1215 C1214 1.399 . S
C1215 C1216 1.385 . S
C1216 H1202 0.931 . S
C1216 C1215 1.385 . S
C1216 C1217 1.389 . S
C1217 C1216 1.389 . S
C1217 C1218 1.387 . S
C1218 H1203 0.930 . S
C1218 C1213 1.390 . S
C1218 C1217 1.387 . S
H1219 C1231 0.930 . S
H1220 C1233 0.930 . S
H1221 C1234 0.930 . S
H1222 C1238 0.959 . S
H1223 C1238 0.959 . S
H1224 C1238 0.961 . S
H1225 C1239 0.960 . S
H1226 C1239 0.961 . S
H1227 C1239 0.959 . S
H1228 C1242 0.929 . S
H1229 C1243 0.931 . S
H1230 C1245 0.930 . S
C1231 H1219 0.930 . S
C1231 C1232 1.399 . S
C1231 C1236 1.399 . S
C1232 C1231 1.399 . S
C1232 C1233 1.376 . S
C1233 H1220 0.930 . S
C1233 C1232 1.376 . S
C1233 C1234 1.388 . S
C1234 H1221 0.930 . S
C1234 C1233 1.388 . S
C1234 C1235 1.390 . S
C1235 C1234 1.390 . S
C1235 C1236 1.394 . S
C1235 C1241 1.465 . S
C1236 C1231 1.399 . S
C1236 C1235 1.394 . S
C1236 C1237 1.516 . S
C1237 C1236 1.516 . S
C1237 C1238 1.502 . S
C1237 C1239 1.561 . S
C1237 C1240 1.526 . S
C1238 H1222 0.959 . S
C1238 H1223 0.959 . S
C1238 H1224 0.961 . S
C1238 C1237 1.502 . S
C1239 H1225 0.960 . S
C1239 H1226 0.961 . S
C1239 H1227 0.959 . S
C1239 C1237 1.561 . S
C1240 C1237 1.526 . S
C1240 C1241 1.396 . S
C1240 C1245 1.390 . S
C1241 C1235 1.465 . S
C1241 C1240 1.396 . S
C1241 C1242 1.399 . S
C1242 H1228 0.929 . S
C1242 C1241 1.399 . S
C1242 C1243 1.385 . S
C1243 H1229 0.931 . S
C1243 C1242 1.385 . S
C1243 C1244 1.389 . S
C1244 C1243 1.389 . S
C1244 C1245 1.387 . S
C1245 H1230 0.930 . S
C1245 C1240 1.390 . S
C1245 C1244 1.387 . S
H1246 C1258 0.930 . S
H1247 C1260 0.930 . S
H1248 C1261 0.930 . S
H1249 C1265 0.959 . S
H1250 C1265 0.959 . S
H1251 C1265 0.961 . S
H1252 C1266 0.960 . S
H1253 C1266 0.961 . S
H1254 C1266 0.959 . S
H1255 C1269 0.929 . S
H1256 C1270 0.931 . S
H1257 C1272 0.930 . S
C1258 H1246 0.930 . S
C1258 C1259 1.399 . S
C1258 C1263 1.399 . S
C1259 C1258 1.399 . S
C1259 C1260 1.376 . S
C1260 H1247 0.930 . S
C1260 C1259 1.376 . S
C1260 C1261 1.388 . S
C1261 H1248 0.930 . S
C1261 C1260 1.388 . S
C1261 C1262 1.390 . S
C1262 C1261 1.390 . S
C1262 C1263 1.394 . S
C1262 C1268 1.465 . S
C1263 C1258 1.399 . S
C1263 C1262 1.394 . S
C1263 C1264 1.516 . S
C1264 C1263 1.516 . S
C1264 C1265 1.502 . S
C1264 C1266 1.561 . S
C1264 C1267 1.526 . S
C1265 H1249 0.959 . S
C1265 H1250 0.959 . S
C1265 H1251 0.961 . S
C1265 C1264 1.502 . S
C1266 H1252 0.960 . S
C1266 H1253 0.961 . S
C1266 H1254 0.959 . S
C1266 C1264 1.561 . S
C1267 C1264 1.526 . S
C1267 C1268 1.396 . S
C1267 C1272 1.390 . S
C1268 C1262 1.465 . S
C1268 C1267 1.396 . S
C1268 C1269 1.399 . S
C1269 H1255 0.929 . S
C1269 C1268 1.399 . S
C1269 C1270 1.385 . S
C1270 H1256 0.931 . S
C1270 C1269 1.385 . S
C1270 C1271 1.389 . S
C1271 C1270 1.389 . S
C1271 C1272 1.387 . S
C1272 H1257 0.930 . S
C1272 C1267 1.390 . S
C1272 C1271 1.387 . S
H1273 C1285 0.930 . S
H1274 C1287 0.930 . S
H1275 C1288 0.930 . S
H1276 C1292 0.959 . S
H1277 C1292 0.959 . S
H1278 C1292 0.961 . S
H1279 C1293 0.960 . S
H1280 C1293 0.961 . S
H1281 C1293 0.959 . S
H1282 C1296 0.929 . S
H1283 C1297 0.931 . S
H1284 C1299 0.930 . S
C1285 H1273 0.930 . S
C1285 C1286 1.399 . S
C1285 C1290 1.399 . S
C1286 C1285 1.399 . S
C1286 C1287 1.376 . S
C1287 H1274 0.930 . S
C1287 C1286 1.376 . S
C1287 C1288 1.388 . S
C1288 H1275 0.930 . S
C1288 C1287 1.388 . S
C1288 C1289 1.390 . S
C1289 C1288 1.390 . S
C1289 C1290 1.394 . S
C1289 C1295 1.465 . S
C1290 C1285 1.399 . S
C1290 C1289 1.394 . S
C1290 C1291 1.516 . S
C1291 C1290 1.516 . S
C1291 C1292 1.502 . S
C1291 C1293 1.561 . S
C1291 C1294 1.526 . S
C1292 H1276 0.959 . S
C1292 H1277 0.959 . S
C1292 H1278 0.961 . S
C1292 C1291 1.502 . S
C1293 H1279 0.960 . S
C1293 H1280 0.961 . S
C1293 H1281 0.959 . S
C1293 C1291 1.561 . S
C1294 C1291 1.526 . S
C1294 C1295 1.396 . S
C1294 C1299 1.390 . S
C1295 C1289 1.465 . S
C1295 C1294 1.396 . S
C1295 C1296 1.399 . S
C1296 H1282 0.929 . S
C1296 C1295 1.399 . S
C1296 C1297 1.385 . S
C1297 H1283 0.931 . S
C1297 C1296 1.385 . S
C1297 C1298 1.389 . S
C1298 C1297 1.389 . S
C1298 C1299 1.387 . S
C1299 H1284 0.930 . S
C1299 C1294 1.390 . S
C1299 C1298 1.387 . S
H1300 C1312 0.930 . S
H1301 C1314 0.930 . S
H1302 C1315 0.930 . S
H1303 C1319 0.959 . S
H1304 C1319 0.959 . S
H1305 C1319 0.961 . S
H1306 C1320 0.960 . S
H1307 C1320 0.961 . S
H1308 C1320 0.959 . S
H1309 C1323 0.929 . S
H1310 C1324 0.931 . S
H1311 C1326 0.930 . S
C1312 H1300 0.930 . S
C1312 C1313 1.399 . S
C1312 C1317 1.399 . S
C1313 C1312 1.399 . S
C1313 C1314 1.376 . S
C1314 H1301 0.930 . S
C1314 C1313 1.376 . S
C1314 C1315 1.388 . S
C1315 H1302 0.930 . S
C1315 C1314 1.388 . S
C1315 C1316 1.390 . S
C1316 C1315 1.390 . S
C1316 C1317 1.394 . S
C1316 C1322 1.465 . S
C1317 C1312 1.399 . S
C1317 C1316 1.394 . S
C1317 C1318 1.516 . S
C1318 C1317 1.516 . S
C1318 C1319 1.502 . S
C1318 C1320 1.561 . S
C1318 C1321 1.526 . S
C1319 H1303 0.959 . S
C1319 H1304 0.959 . S
C1319 H1305 0.961 . S
C1319 C1318 1.502 . S
C1320 H1306 0.960 . S
C1320 H1307 0.961 . S
C1320 H1308 0.959 . S
C1320 C1318 1.561 . S
C1321 C1318 1.526 . S
C1321 C1322 1.396 . S
C1321 C1326 1.390 . S
C1322 C1316 1.465 . S
C1322 C1321 1.396 . S
C1322 C1323 1.399 . S
C1323 H1309 0.929 . S
C1323 C1322 1.399 . S
C1323 C1324 1.385 . S
C1324 H1310 0.931 . S
C1324 C1323 1.385 . S
C1324 C1325 1.389 . S
C1325 C1324 1.389 . S
C1325 C1326 1.387 . S
C1326 H1311 0.930 . S
C1326 C1321 1.390 . S
C1326 C1325 1.387 . S
H1327 C1339 0.930 . S
H1328 C1341 0.930 . S
H1329 C1342 0.930 . S
H1330 C1346 0.959 . S
H1331 C1346 0.959 . S
H1332 C1346 0.961 . S
H1333 C1347 0.960 . S
H1334 C1347 0.961 . S
H1335 C1347 0.959 . S
H1336 C1350 0.929 . S
H1337 C1351 0.931 . S
H1338 C1353 0.930 . S
C1339 H1327 0.930 . S
C1339 C1340 1.399 . S
C1339 C1344 1.399 . S
C1340 C1339 1.399 . S
C1340 C1341 1.376 . S
C1341 H1328 0.930 . S
C1341 C1340 1.376 . S
C1341 C1342 1.388 . S
C1342 H1329 0.930 . S
C1342 C1341 1.388 . S
C1342 C1343 1.390 . S
C1343 C1342 1.390 . S
C1343 C1344 1.394 . S
C1343 C1349 1.465 . S
C1344 C1339 1.399 . S
C1344 C1343 1.394 . S
C1344 C1345 1.516 . S
C1345 C1344 1.516 . S
C1345 C1346 1.502 . S
C1345 C1347 1.561 . S
C1345 C1348 1.526 . S
C1346 H1330 0.959 . S
C1346 H1331 0.959 . S
C1346 H1332 0.961 . S
C1346 C1345 1.502 . S
C1347 H1333 0.960 . S
C1347 H1334 0.961 . S
C1347 H1335 0.959 . S
C1347 C1345 1.561 . S
C1348 C1345 1.526 . S
C1348 C1349 1.396 . S
C1348 C1353 1.390 . S
C1349 C1343 1.465 . S
C1349 C1348 1.396 . S
C1349 C1350 1.399 . S
C1350 H1336 0.929 . S
C1350 C1349 1.399 . S
C1350 C1351 1.385 . S
C1351 H1337 0.931 . S
C1351 C1350 1.385 . S
C1351 C1352 1.389 . S
C1352 C1351 1.389 . S
C1352 C1353 1.387 . S
C1353 H1338 0.930 . S
C1353 C1348 1.390 . S
C1353 C1352 1.387 . S
H1354 C1366 0.930 . S
H1355 C1368 0.930 . S
H1356 C1369 0.930 . S
H1357 C1373 0.959 . S
H1358 C1373 0.959 . S
H1359 C1373 0.961 . S
H1360 C1374 0.960 . S
H1361 C1374 0.961 . S
H1362 C1374 0.959 . S
H1363 C1377 0.929 . S
H1364 C1378 0.931 . S
H1365 C1380 0.930 . S
C1366 H1354 0.930 . S
C1366 C1367 1.399 . S
C1366 C1371 1.399 . S
C1367 C1366 1.399 . S
C1367 C1368 1.376 . S
C1368 H1355 0.930 . S
C1368 C1367 1.376 . S
C1368 C1369 1.388 . S
C1369 H1356 0.930 . S
C1369 C1368 1.388 . S
C1369 C1370 1.390 . S
C1370 C1369 1.390 . S
C1370 C1371 1.394 . S
C1370 C1376 1.465 . S
C1371 C1366 1.399 . S
C1371 C1370 1.394 . S
C1371 C1372 1.516 . S
C1372 C1371 1.516 . S
C1372 C1373 1.502 . S
C1372 C1374 1.561 . S
C1372 C1375 1.526 . S
C1373 H1357 0.959 . S
C1373 H1358 0.959 . S
C1373 H1359 0.961 . S
C1373 C1372 1.502 . S
C1374 H1360 0.960 . S
C1374 H1361 0.961 . S
C1374 H1362 0.959 . S
C1374 C1372 1.561 . S
C1375 C1372 1.526 . S
C1375 C1376 1.396 . S
C1375 C1380 1.390 . S
C1376 C1370 1.465 . S
C1376 C1375 1.396 . S
C1376 C1377 1.399 . S
C1377 H1363 0.929 . S
C1377 C1376 1.399 . S
C1377 C1378 1.385 . S
C1378 H1364 0.931 . S
C1378 C1377 1.385 . S
C1378 C1379 1.389 . S
C1379 C1378 1.389 . S
C1379 C1380 1.387 . S
C1380 H1365 0.930 . S
C1380 C1375 1.390 . S
C1380 C1379 1.387 . S
H1381 C1393 0.930 . S
H1382 C1395 0.930 . S
H1383 C1396 0.930 . S
H1384 C1400 0.959 . S
H1385 C1400 0.959 . S
H1386 C1400 0.961 . S
H1387 C1401 0.960 . S
H1388 C1401 0.961 . S
H1389 C1401 0.959 . S
H1390 C1404 0.929 . S
H1391 C1405 0.931 . S
H1392 C1407 0.930 . S
C1393 H1381 0.930 . S
C1393 C1394 1.399 . S
C1393 C1398 1.399 . S
C1394 C1393 1.399 . S
C1394 C1395 1.376 . S
C1395 H1382 0.930 . S
C1395 C1394 1.376 . S
C1395 C1396 1.388 . S
C1396 H1383 0.930 . S
C1396 C1395 1.388 . S
C1396 C1397 1.390 . S
C1397 C1396 1.390 . S
C1397 C1398 1.394 . S
C1397 C1403 1.465 . S
C1398 C1393 1.399 . S
C1398 C1397 1.394 . S
C1398 C1399 1.516 . S
C1399 C1398 1.516 . S
C1399 C1400 1.502 . S
C1399 C1401 1.561 . S
C1399 C1402 1.526 . S
C1400 H1384 0.959 . S
C1400 H1385 0.959 . S
C1400 H1386 0.961 . S
C1400 C1399 1.502 . S
C1401 H1387 0.960 . S
C1401 H1388 0.961 . S
C1401 H1389 0.959 . S
C1401 C1399 1.561 . S
C1402 C1399 1.526 . S
C1402 C1403 1.396 . S
C1402 C1407 1.390 . S
C1403 C1397 1.465 . S
C1403 C1402 1.396 . S
C1403 C1404 1.399 . S
C1404 H1390 0.929 . S
C1404 C1403 1.399 . S
C1404 C1405 1.385 . S
C1405 H1391 0.931 . S
C1405 C1404 1.385 . S
C1405 C1406 1.389 . S
C1406 C1405 1.389 . S
C1406 C1407 1.387 . S
C1407 H1392 0.930 . S
C1407 C1402 1.390 . S
C1407 C1406 1.387 . S
H1408 C1420 0.930 . S
H1409 C1422 0.930 . S
H1410 C1423 0.930 . S
H1411 C1427 0.959 . S
H1412 C1427 0.959 . S
H1413 C1427 0.961 . S
H1414 C1428 0.960 . S
H1415 C1428 0.961 . S
H1416 C1428 0.959 . S
H1417 C1431 0.929 . S
H1418 C1432 0.931 . S
H1419 C1434 0.930 . S
C1420 H1408 0.930 . S
C1420 C1421 1.399 . S
C1420 C1425 1.399 . S
C1421 C1420 1.399 . S
C1421 C1422 1.376 1_545 S
C1422 H1409 0.930 . S
C1422 C1421 1.376 1_565 S
C1422 C1423 1.388 . S
C1423 H1410 0.930 . S
C1423 C1422 1.388 . S
C1423 C1424 1.390 1_565 S
C1424 C1423 1.390 1_545 S
C1424 C1425 1.394 . S
C1424 C1430 1.465 . S
C1425 C1420 1.399 . S
C1425 C1424 1.394 . S
C1425 C1426 1.516 . S
C1426 C1425 1.516 . S
C1426 C1427 1.502 . S
C1426 C1428 1.561 . S
C1426 C1429 1.526 . S
C1427 H1411 0.959 . S
C1427 H1412 0.959 . S
C1427 H1413 0.961 . S
C1427 C1426 1.502 . S
C1428 H1414 0.960 . S
C1428 H1415 0.961 . S
C1428 H1416 0.959 . S
C1428 C1426 1.561 . S
C1429 C1426 1.526 . S
C1429 C1430 1.396 . S
C1429 C1434 1.390 . S
C1430 C1424 1.465 . S
C1430 C1429 1.396 . S
C1430 C1431 1.399 1_545 S
C1431 H1417 0.929 . S
C1431 C1430 1.399 1_565 S
C1431 C1432 1.385 . S
C1432 H1418 0.931 . S
C1432 C1431 1.385 . S
C1432 C1433 1.389 1_565 S
C1433 C1432 1.389 1_545 S
C1433 C1434 1.387 . S
C1434 H1419 0.930 . S
C1434 C1429 1.390 . S
C1434 C1433 1.387 . S
H1435 C1447 0.930 . S
H1436 C1449 0.930 . S
H1437 C1450 0.930 . S
H1438 C1454 0.959 . S
H1439 C1454 0.959 . S
H1440 C1454 0.961 . S
H1441 C1455 0.960 . S
H1442 C1455 0.961 . S
H1443 C1455 0.959 . S
H1444 C1458 0.929 . S
H1445 C1459 0.931 . S
H1446 C1461 0.930 . S
C1447 H1435 0.930 . S
C1447 C1448 1.399 . S
C1447 C1452 1.399 . S
C1448 C1447 1.399 . S
C1448 C1449 1.376 . S
C1449 H1436 0.930 . S
C1449 C1448 1.376 . S
C1449 C1450 1.388 . S
C1450 H1437 0.930 . S
C1450 C1449 1.388 . S
C1450 C1451 1.390 . S
C1451 C1450 1.390 . S
C1451 C1452 1.394 . S
C1451 C1457 1.465 . S
C1452 C1447 1.399 . S
C1452 C1451 1.394 . S
C1452 C1453 1.516 . S
C1453 C1452 1.516 . S
C1453 C1454 1.502 . S
C1453 C1455 1.561 . S
C1453 C1456 1.526 . S
C1454 H1438 0.959 . S
C1454 H1439 0.959 . S
C1454 H1440 0.961 . S
C1454 C1453 1.502 . S
C1455 H1441 0.960 . S
C1455 H1442 0.961 . S
C1455 H1443 0.959 . S
C1455 C1453 1.561 . S
C1456 C1453 1.526 . S
C1456 C1457 1.396 . S
C1456 C1461 1.390 . S
C1457 C1451 1.465 . S
C1457 C1456 1.396 . S
C1457 C1458 1.399 . S
C1458 H1444 0.929 . S
C1458 C1457 1.399 . S
C1458 C1459 1.385 . S
C1459 H1445 0.931 . S
C1459 C1458 1.385 . S
C1459 C1460 1.389 . S
C1460 C1459 1.389 . S
C1460 C1461 1.387 . S
C1461 H1446 0.930 . S
C1461 C1456 1.390 . S
C1461 C1460 1.387 . S
H1462 C1474 0.930 . S
H1463 C1476 0.930 . S
H1464 C1477 0.930 . S
H1465 C1481 0.959 . S
H1466 C1481 0.959 . S
H1467 C1481 0.961 . S
H1468 C1482 0.960 . S
H1469 C1482 0.961 . S
H1470 C1482 0.959 . S
H1471 C1485 0.929 . S
H1472 C1486 0.931 . S
H1473 C1488 0.930 . S
C1474 H1462 0.930 . S
C1474 C1475 1.399 . S
C1474 C1479 1.399 . S
C1475 C1474 1.399 . S
C1475 C1476 1.376 . S
C1476 H1463 0.930 . S
C1476 C1475 1.376 . S
C1476 C1477 1.388 . S
C1477 H1464 0.930 . S
C1477 C1476 1.388 . S
C1477 C1478 1.390 . S
C1478 C1477 1.390 . S
C1478 C1479 1.394 . S
C1478 C1484 1.465 . S
C1479 C1474 1.399 . S
C1479 C1478 1.394 . S
C1479 C1480 1.516 . S
C1480 C1479 1.516 . S
C1480 C1481 1.502 . S
C1480 C1482 1.561 . S
C1480 C1483 1.526 . S
C1481 H1465 0.959 . S
C1481 H1466 0.959 . S
C1481 H1467 0.961 . S
C1481 C1480 1.502 . S
C1482 H1468 0.960 . S
C1482 H1469 0.961 . S
C1482 H1470 0.959 . S
C1482 C1480 1.561 . S
C1483 C1480 1.526 . S
C1483 C1484 1.396 . S
C1483 C1488 1.390 . S
C1484 C1478 1.465 . S
C1484 C1483 1.396 . S
C1484 C1485 1.399 . S
C1485 H1471 0.929 . S
C1485 C1484 1.399 . S
C1485 C1486 1.385 . S
C1486 H1472 0.931 . S
C1486 C1485 1.385 . S
C1486 C1487 1.389 . S
C1487 C1486 1.389 . S
C1487 C1488 1.387 . S
C1488 H1473 0.930 . S
C1488 C1483 1.390 . S
C1488 C1487 1.387 . S
H1489 C1501 0.930 . S
H1490 C1503 0.930 . S
H1491 C1504 0.930 . S
H1492 C1508 0.959 . S
H1493 C1508 0.959 . S
H1494 C1508 0.961 . S
H1495 C1509 0.960 . S
H1496 C1509 0.961 . S
H1497 C1509 0.959 . S
H1498 C1512 0.929 . S
H1499 C1513 0.931 . S
H1500 C1515 0.930 1_655 S
C1501 H1489 0.930 . S
C1501 C1502 1.399 . S
C1501 C1506 1.399 . S
C1502 C1501 1.399 . S
C1502 C1503 1.376 . S
C1503 H1490 0.930 . S
C1503 C1502 1.376 . S
C1503 C1504 1.388 . S
C1504 H1491 0.930 . S
C1504 C1503 1.388 . S
C1504 C1505 1.390 . S
C1505 C1504 1.390 . S
C1505 C1506 1.394 . S
C1505 C1511 1.465 . S
C1506 C1501 1.399 . S
C1506 C1505 1.394 . S
C1506 C1507 1.516 . S
C1507 C1506 1.516 . S
C1507 C1508 1.502 1_455 S
C1507 C1509 1.561 . S
C1507 C1510 1.526 . S
C1508 H1492 0.959 . S
C1508 H1493 0.959 . S
C1508 H1494 0.961 . S
C1508 C1507 1.502 1_655 S
C1509 H1495 0.960 . S
C1509 H1496 0.961 . S
C1509 H1497 0.959 . S
C1509 C1507 1.561 . S
C1510 C1507 1.526 . S
C1510 C1511 1.396 . S
C1510 C1515 1.390 . S
C1511 C1505 1.465 . S
C1511 C1510 1.396 . S
C1511 C1512 1.399 . S
C1512 H1498 0.929 . S
C1512 C1511 1.399 . S
C1512 C1513 1.385 . S
C1513 H1499 0.931 . S
C1513 C1512 1.385 . S
C1513 C1514 1.389 . S
C1514 C1513 1.389 . S
C1514 C1515 1.387 . S
C1515 H1500 0.930 1_455 S
C1515 C1510 1.390 . S
C1515 C1514 1.387 . S
H1516 C1528 0.930 . S
H1517 C1530 0.930 . S
H1518 C1531 0.930 . S
H1519 C1535 0.959 . S
H1520 C1535 0.959 . S
H1521 C1535 0.961 . S
H1522 C1536 0.960 . S
H1523 C1536 0.961 . S
H1524 C1536 0.959 1_545 S
H1525 C1539 0.929 . S
H1526 C1540 0.931 . S
H1527 C1542 0.930 . S
C1528 H1516 0.930 . S
C1528 C1529 1.399 . S
C1528 C1533 1.399 . S
C1529 C1528 1.399 . S
C1529 C1530 1.376 . S
C1530 H1517 0.930 . S
C1530 C1529 1.376 . S
C1530 C1531 1.388 . S
C1531 H1518 0.930 . S
C1531 C1530 1.388 . S
C1531 C1532 1.390 . S
C1532 C1531 1.390 . S
C1532 C1533 1.394 . S
C1532 C1538 1.465 . S
C1533 C1528 1.399 . S
C1533 C1532 1.394 . S
C1533 C1534 1.516 . S
C1534 C1533 1.516 . S
C1534 C1535 1.502 . S
C1534 C1536 1.561 . S
C1534 C1537 1.526 . S
C1535 H1519 0.959 . S
C1535 H1520 0.959 . S
C1535 H1521 0.961 . S
C1535 C1534 1.502 . S
C1536 H1522 0.960 . S
C1536 H1523 0.961 . S
C1536 H1524 0.959 1_565 S
C1536 C1534 1.561 . S
C1537 C1534 1.526 . S
C1537 C1538 1.396 . S
C1537 C1542 1.390 . S
C1538 C1532 1.465 . S
C1538 C1537 1.396 . S
C1538 C1539 1.399 . S
C1539 H1525 0.929 . S
C1539 C1538 1.399 . S
C1539 C1540 1.385 . S
C1540 H1526 0.931 . S
C1540 C1539 1.385 . S
C1540 C1541 1.389 . S
C1541 C1540 1.389 . S
C1541 C1542 1.387 . S
C1542 H1527 0.930 . S
C1542 C1537 1.390 . S
C1542 C1541 1.387 . S
H1543 C1555 0.930 . S
H1544 C1557 0.930 . S
H1545 C1558 0.930 . S
H1546 C1562 0.959 . S
H1547 C1562 0.959 . S
H1548 C1562 0.961 . S
H1549 C1563 0.960 1_556 S
H1550 C1563 0.961 1_556 S
H1551 C1563 0.959 . S
H1552 C1566 0.929 . S
H1553 C1567 0.931 . S
H1554 C1569 0.930 . S
C1555 H1543 0.930 . S
C1555 C1556 1.399 . S
C1555 C1560 1.399 . S
C1556 C1555 1.399 . S
C1556 C1557 1.376 . S
C1557 H1544 0.930 . S
C1557 C1556 1.376 . S
C1557 C1558 1.388 . S
C1558 H1545 0.930 . S
C1558 C1557 1.388 . S
C1558 C1559 1.390 . S
C1559 C1558 1.390 . S
C1559 C1560 1.394 . S
C1559 C1565 1.465 . S
C1560 C1555 1.399 . S
C1560 C1559 1.394 . S
C1560 C1561 1.516 . S
C1561 C1560 1.516 . S
C1561 C1562 1.502 . S
C1561 C1563 1.561 . S
C1561 C1564 1.526 . S
C1562 H1546 0.959 . S
C1562 H1547 0.959 . S
C1562 H1548 0.961 . S
C1562 C1561 1.502 . S
C1563 H1549 0.960 1_554 S
C1563 H1550 0.961 1_554 S
C1563 H1551 0.959 . S
C1563 C1561 1.561 . S
C1564 C1561 1.526 . S
C1564 C1565 1.396 . S
C1564 C1569 1.390 . S
C1565 C1559 1.465 . S
C1565 C1564 1.396 . S
C1565 C1566 1.399 . S
C1566 H1552 0.929 . S
C1566 C1565 1.399 . S
C1566 C1567 1.385 . S
C1567 H1553 0.931 . S
C1567 C1566 1.385 . S
C1567 C1568 1.389 . S
C1568 C1567 1.389 . S
C1568 C1569 1.387 . S
C1569 H1554 0.930 . S
C1569 C1564 1.390 . S
C1569 C1568 1.387 . S
H1570 C1582 0.930 . S
H1571 C1584 0.930 . S
H1572 C1585 0.930 . S
H1573 C1589 0.959 . S
H1574 C1589 0.959 . S
H1575 C1589 0.961 . S
H1576 C1590 0.960 . S
H1577 C1590 0.961 . S
H1578 C1590 0.959 . S
H1579 C1593 0.929 . S
H1580 C1594 0.931 . S
H1581 C1596 0.930 . S
C1582 H1570 0.930 . S
C1582 C1583 1.399 . S
C1582 C1587 1.399 . S
C1583 C1582 1.399 . S
C1583 C1584 1.376 . S
C1584 H1571 0.930 . S
C1584 C1583 1.376 . S
C1584 C1585 1.388 . S
C1585 H1572 0.930 . S
C1585 C1584 1.388 . S
C1585 C1586 1.390 . S
C1586 C1585 1.390 . S
C1586 C1587 1.394 . S
C1586 C1592 1.465 . S
C1587 C1582 1.399 . S
C1587 C1586 1.394 . S
C1587 C1588 1.516 . S
C1588 C1587 1.516 . S
C1588 C1589 1.502 . S
C1588 C1590 1.561 . S
C1588 C1591 1.526 . S
C1589 H1573 0.959 . S
C1589 H1574 0.959 . S
C1589 H1575 0.961 . S
C1589 C1588 1.502 . S
C1590 H1576 0.960 . S
C1590 H1577 0.961 . S
C1590 H1578 0.959 . S
C1590 C1588 1.561 . S
C1591 C1588 1.526 . S
C1591 C1592 1.396 . S
C1591 C1596 1.390 . S
C1592 C1586 1.465 . S
C1592 C1591 1.396 . S
C1592 C1593 1.399 . S
C1593 H1579 0.929 . S
C1593 C1592 1.399 . S
C1593 C1594 1.385 . S
C1594 H1580 0.931 . S
C1594 C1593 1.385 . S
C1594 C1595 1.389 . S
C1595 C1594 1.389 . S
C1595 C1596 1.387 . S
C1596 H1581 0.930 . S
C1596 C1591 1.390 . S
C1596 C1595 1.387 . S
H1597 C1609 0.930 . S
H1598 C1611 0.930 . S
H1599 C1612 0.930 . S
H1600 C1616 0.959 . S
H1601 C1616 0.959 . S
H1602 C1616 0.961 . S
H1603 C1617 0.960 1_556 S
H1604 C1617 0.961 1_556 S
H1605 C1617 0.959 . S
H1606 C1620 0.929 . S
H1607 C1621 0.931 . S
H1608 C1623 0.930 . S
C1609 H1597 0.930 . S
C1609 C1610 1.399 . S
C1609 C1614 1.399 . S
C1610 C1609 1.399 . S
C1610 C1611 1.376 . S
C1611 H1598 0.930 . S
C1611 C1610 1.376 . S
C1611 C1612 1.388 . S
C1612 H1599 0.930 . S
C1612 C1611 1.388 . S
C1612 C1613 1.390 . S
C1613 C1612 1.390 . S
C1613 C1614 1.394 . S
C1613 C1619 1.465 . S
C1614 C1609 1.399 . S
C1614 C1613 1.394 . S
C1614 C1615 1.516 . S
C1615 C1614 1.516 . S
C1615 C1616 1.502 1_655 S
C1615 C1617 1.561 . S
C1615 C1618 1.526 . S
C1616 H1600 0.959 . S
C1616 H1601 0.959 . S
C1616 H1602 0.961 . S
C1616 C1615 1.502 1_455 S
C1617 H1603 0.960 1_554 S
C1617 H1604 0.961 1_554 S
C1617 H1605 0.959 . S
C1617 C1615 1.561 . S
C1618 C1615 1.526 . S
C1618 C1619 1.396 . S
C1618 C1623 1.390 . S
C1619 C1613 1.465 . S
C1619 C1618 1.396 . S
C1619 C1620 1.399 . S
C1620 H1606 0.929 . S
C1620 C1619 1.399 . S
C1620 C1621 1.385 . S
C1621 H1607 0.931 . S
C1621 C1620 1.385 . S
C1621 C1622 1.389 . S
C1622 C1621 1.389 . S
C1622 C1623 1.387 . S
C1623 H1608 0.930 . S
C1623 C1618 1.390 . S
C1623 C1622 1.387 . S
C557 C277 0.668 . S
C569 C5 0.458 . S
C584 C39 0.520 . S
C596 C311 0.754 . S
C611 C345 0.667 . S
C623 C73 0.401 . S
C638 C379 0.242 . S
C650 C122 0.180 . S
C665 C141 0.590 . S
C677 C413 0.514 . S
C692 C175 0.714 . S
C704 C447 0.619 . S
C719 C209 0.516 . S
C731 C481 0.563 . S
C746 C243 0.310 . S
C758 C515 0.601 . S
C773 C33 1.718 . S
C785 C530 1.639 . S
C800 C67 1.577 . S
C812 C428 1.525 . S
C827 C101 1.616 . S
C839 C462 1.559 . S
C854 C496 1.489 . S
C866 C135 1.517 . S
C881 C169 1.544 . S
C893 C326 1.498 . S
C908 C203 1.541 . S
C920 C360 1.490 . S
C935 C394 1.654 . S
C947 C237 1.710 . S
C962 C271 1.607 . S
C974 C292 1.507 . S
C989 C258 1.530 . S
C1001 C305 1.595 . S
C1016 C156 1.474 . S
C1028 C339 1.551 . S
C1043 C190 1.519 . S
C1055 C373 1.564 . S
C1070 C407 1.256 . S
C1082 C224 1.211 . S
C1097 C54 1.431 . S
C1109 C441 1.505 . S
C1124 C475 1.525 . S
C1136 C88 1.459 . S
C1151 C111 1.103 . S
C1163 C509 1.148 . S
C1178 C20 1.518 . S
C1190 C543 1.616 . S
C1205 C240 1.802 . S
C1217 C2 1.814 . S
C1232 C138 1.773 . S
C1244 C36 1.789 . S
C1259 C70 1.714 . S
C1271 C172 1.750 . S
C1286 C206 1.276 . S
C1298 C107 1.264 . S
C1313 C512 1.899 . S
C1325 C274 1.910 . S
C1340 C308 1.803 . S
C1352 C410 1.761 . S
C1367 C342 1.708 . S
C1379 C444 1.732 . S
C1394 C376 2.043 . S
C1406 C478 2.036 . S
C1421 C9 1.271 . S
C1433 C417 1.250 . S
C1448 C43 0.889 . S
C1460 C451 0.887 . S
C1475 C77 1.100 . S
C1487 C485 1.181 . S
C1502 C104 1.390 . S
C1514 C519 1.307 . S
C1529 C145 1.230 . S
C1541 C281 1.221 . S
C1556 C179 0.991 . S
C1568 C315 0.978 . S
C1583 C213 1.080 . S
C1595 C349 1.082 . S
C1610 C383 1.420 . S
C1622 C247 1.400 . S
