# Generated by pormake.
# Topology svo, (7)-cn, num edge types: 1
# Building blocks:
#     Node 0, Type 0, BuildingBlock: HICVOG_clean_sbu_0, # of connection points: 7
#     Node 1, Type 0, BuildingBlock: HICVOG_clean_sbu_0, # of connection points: 7
#     Node 2, Type 0, BuildingBlock: HICVOG_clean_sbu_0, # of connection points: 7
#     Node 3, Type 0, BuildingBlock: HICVOG_clean_sbu_0, # of connection points: 7
#     Node 4, Type 0, BuildingBlock: HICVOG_clean_sbu_0, # of connection points: 7
#     Node 5, Type 0, BuildingBlock: HICVOG_clean_sbu_0, # of connection points: 7
#     Node 6, Type 0, BuildingBlock: HICVOG_clean_sbu_0, # of connection points: 7
#     Node 7, Type 0, BuildingBlock: HICVOG_clean_sbu_0, # of connection points: 7
#     Node 8, Type 0, BuildingBlock: HICVOG_clean_sbu_0, # of connection points: 7
#     Node 9, Type 0, BuildingBlock: HICVOG_clean_sbu_0, # of connection points: 7
#     Node 10, Type 0, BuildingBlock: HICVOG_clean_sbu_0, # of connection points: 7
#     Node 11, Type 0, BuildingBlock: HICVOG_clean_sbu_0, # of connection points: 7
#     Node 12, Type 0, BuildingBlock: HICVOG_clean_sbu_0, # of connection points: 7
#     Node 13, Type 0, BuildingBlock: HICVOG_clean_sbu_0, # of connection points: 7
#     Node 14, Type 0, BuildingBlock: HICVOG_clean_sbu_0, # of connection points: 7
#     Node 15, Type 0, BuildingBlock: HICVOG_clean_sbu_0, # of connection points: 7
#     Edge 16, Type (0, 0), BuildingBlock: AJUNOK_clean_linker_0, # of connection points: 2
#     Edge 17, Type (0, 0), BuildingBlock: AJUNOK_clean_linker_0, # of connection points: 2
#     Edge 18, Type (0, 0), BuildingBlock: AJUNOK_clean_linker_0, # of connection points: 2
#     Edge 19, Type (0, 0), BuildingBlock: AJUNOK_clean_linker_0, # of connection points: 2
#     Edge 20, Type (0, 0), BuildingBlock: AJUNOK_clean_linker_0, # of connection points: 2
#     Edge 21, Type (0, 0), BuildingBlock: AJUNOK_clean_linker_0, # of connection points: 2
#     Edge 22, Type (0, 0), BuildingBlock: AJUNOK_clean_linker_0, # of connection points: 2
#     Edge 23, Type (0, 0), BuildingBlock: AJUNOK_clean_linker_0, # of connection points: 2
#     Edge 24, Type (0, 0), BuildingBlock: AJUNOK_clean_linker_0, # of connection points: 2
#     Edge 25, Type (0, 0), BuildingBlock: AJUNOK_clean_linker_0, # of connection points: 2
#     Edge 26, Type (0, 0), BuildingBlock: AJUNOK_clean_linker_0, # of connection points: 2
#     Edge 27, Type (0, 0), BuildingBlock: AJUNOK_clean_linker_0, # of connection points: 2
#     Edge 28, Type (0, 0), BuildingBlock: AJUNOK_clean_linker_0, # of connection points: 2
#     Edge 29, Type (0, 0), BuildingBlock: AJUNOK_clean_linker_0, # of connection points: 2
#     Edge 30, Type (0, 0), BuildingBlock: AJUNOK_clean_linker_0, # of connection points: 2
#     Edge 31, Type (0, 0), BuildingBlock: AJUNOK_clean_linker_0, # of connection points: 2
#     Edge 32, Type (0, 0), BuildingBlock: AJUNOK_clean_linker_0, # of connection points: 2
#     Edge 33, Type (0, 0), BuildingBlock: AJUNOK_clean_linker_0, # of connection points: 2
#     Edge 34, Type (0, 0), BuildingBlock: AJUNOK_clean_linker_0, # of connection points: 2
#     Edge 35, Type (0, 0), BuildingBlock: AJUNOK_clean_linker_0, # of connection points: 2
#     Edge 36, Type (0, 0), BuildingBlock: AJUNOK_clean_linker_0, # of connection points: 2
#     Edge 37, Type (0, 0), BuildingBlock: AJUNOK_clean_linker_0, # of connection points: 2
#     Edge 38, Type (0, 0), BuildingBlock: AJUNOK_clean_linker_0, # of connection points: 2
#     Edge 39, Type (0, 0), BuildingBlock: AJUNOK_clean_linker_0, # of connection points: 2
#     Edge 40, Type (0, 0), BuildingBlock: AJUNOK_clean_linker_0, # of connection points: 2
#     Edge 41, Type (0, 0), BuildingBlock: AJUNOK_clean_linker_0, # of connection points: 2
#     Edge 42, Type (0, 0), BuildingBlock: AJUNOK_clean_linker_0, # of connection points: 2
#     Edge 43, Type (0, 0), BuildingBlock: AJUNOK_clean_linker_0, # of connection points: 2
#     Edge 44, Type (0, 0), BuildingBlock: AJUNOK_clean_linker_0, # of connection points: 2
#     Edge 45, Type (0, 0), BuildingBlock: AJUNOK_clean_linker_0, # of connection points: 2
#     Edge 46, Type (0, 0), BuildingBlock: AJUNOK_clean_linker_0, # of connection points: 2
#     Edge 47, Type (0, 0), BuildingBlock: AJUNOK_clean_linker_0, # of connection points: 2
#     Edge 48, Type (0, 0), BuildingBlock: AJUNOK_clean_linker_0, # of connection points: 2
#     Edge 49, Type (0, 0), BuildingBlock: AJUNOK_clean_linker_0, # of connection points: 2
#     Edge 50, Type (0, 0), BuildingBlock: AJUNOK_clean_linker_0, # of connection points: 2
#     Edge 51, Type (0, 0), BuildingBlock: AJUNOK_clean_linker_0, # of connection points: 2
#     Edge 52, Type (0, 0), BuildingBlock: AJUNOK_clean_linker_0, # of connection points: 2
#     Edge 53, Type (0, 0), BuildingBlock: AJUNOK_clean_linker_0, # of connection points: 2
#     Edge 54, Type (0, 0), BuildingBlock: AJUNOK_clean_linker_0, # of connection points: 2
#     Edge 55, Type (0, 0), BuildingBlock: AJUNOK_clean_linker_0, # of connection points: 2
#     Edge 56, Type (0, 0), BuildingBlock: AJUNOK_clean_linker_0, # of connection points: 2
#     Edge 57, Type (0, 0), BuildingBlock: AJUNOK_clean_linker_0, # of connection points: 2
#     Edge 58, Type (0, 0), BuildingBlock: AJUNOK_clean_linker_0, # of connection points: 2
#     Edge 59, Type (0, 0), BuildingBlock: AJUNOK_clean_linker_0, # of connection points: 2
#     Edge 60, Type (0, 0), BuildingBlock: AJUNOK_clean_linker_0, # of connection points: 2
#     Edge 61, Type (0, 0), BuildingBlock: AJUNOK_clean_linker_0, # of connection points: 2
#     Edge 62, Type (0, 0), BuildingBlock: AJUNOK_clean_linker_0, # of connection points: 2
#     Edge 63, Type (0, 0), BuildingBlock: AJUNOK_clean_linker_0, # of connection points: 2
#     Edge 64, Type (0, 0), BuildingBlock: AJUNOK_clean_linker_0, # of connection points: 2
#     Edge 65, Type (0, 0), BuildingBlock: AJUNOK_clean_linker_0, # of connection points: 2
#     Edge 66, Type (0, 0), BuildingBlock: AJUNOK_clean_linker_0, # of connection points: 2
#     Edge 67, Type (0, 0), BuildingBlock: AJUNOK_clean_linker_0, # of connection points: 2
#     Edge 68, Type (0, 0), BuildingBlock: AJUNOK_clean_linker_0, # of connection points: 2
#     Edge 69, Type (0, 0), BuildingBlock: AJUNOK_clean_linker_0, # of connection points: 2
#     Edge 70, Type (0, 0), BuildingBlock: AJUNOK_clean_linker_0, # of connection points: 2
#     Edge 71, Type (0, 0), BuildingBlock: AJUNOK_clean_linker_0, # of connection points: 2
# Relax obj value: 0.213
# Max RMSD: 0.235
# Mean RMSD: 0.235
data_MOF--net-svo--node1-HICVOG_clean_sbu_0--edge1-AJUNOK_clean_linker_0
_symmetry_space_group_name_H-M    P1
_symmetry_Int_Tables_number       1
_symmetry_cell_setting            triclinic
loop_
_symmetry_equiv_pos_as_xyz
'x, y, z'
_cell_length_a     22.544784
_cell_length_b     22.561364
_cell_length_c     64.06426
_cell_angle_alpha  89.939375
_cell_angle_beta   89.837713
_cell_angle_gamma 90.151697
loop_
_atom_site_label
_atom_site_type_symbol
_atom_site_fract_x
_atom_site_fract_y
_atom_site_fract_z
_atom_type_partial_charge
Zn0 Zn 0.17097 0.29218 0.16288 0.0
C1 C 0.07396 0.40641 0.12986 0.0
N2 N 0.03096 0.36573 0.1324 0.0
C3 C 0.05998 0.32047 0.14125 0.0
N4 N 0.11751 0.33286 0.1444 0.0
N5 N 0.12711 0.38634 0.13661 0.0
C6 C 0.22495 0.51513 0.13401 0.0
O7 O 0.21682 0.48615 0.15158 0.0
O8 O 0.15182 0.20597 0.16636 0.0
Zn9 Zn 0.19627 0.4004 0.11891 0.0
N10 N 0.16588 0.32509 0.19057 0.0
C11 C 0.12263 0.38871 0.21588 0.0
C12 C 0.12906 0.37081 0.19516 0.0
C13 C 0.19666 0.29659 0.20575 0.0
N14 N 0.15203 0.35906 0.23115 0.0
C15 C 0.18853 0.31261 0.22678 0.0
O16 O 0.27156 0.35602 0.12721 0.0
C17 C 0.29015 0.31633 0.13975 0.0
O18 O 0.25601 0.29237 0.15318 0.0
H19 H 0.10428 0.39248 0.18292 0.0
H20 H 0.22672 0.26166 0.20122 0.0
C21 C 0.16737 0.3932 0.07353 0.0
C22 C 0.15316 0.35874 0.05575 0.0
C23 C 0.15134 0.27241 0.07708 0.0
C24 C 0.16751 0.30613 0.09424 0.0
N25 N 0.17495 0.36555 0.09228 0.0
N26 N 0.14508 0.29931 0.05833 0.0
H27 H 0.17223 0.44078 0.07267 0.0
C28 C 0.15327 0.17264 0.15047 0.0
O29 O 0.15434 0.1975 0.13197 0.0
O30 O 0.21739 0.48797 0.11683 0.0
H31 H 0.17424 0.28536 0.1092 0.0
H32 H 0.09365 0.42513 0.21985 0.0
H33 H 0.14484 0.22506 0.07852 0.0
Zn34 Zn 0.75074 0.17834 0.16273 0.0
C35 C 0.64332 0.05948 0.13502 0.0
N36 N 0.68486 0.02186 0.14202 0.0
C37 C 0.72688 0.05788 0.14942 0.0
N38 N 0.71206 0.11525 0.14747 0.0
N39 N 0.66003 0.11712 0.13777 0.0
C40 C 0.53025 0.21938 0.13451 0.0
O41 O 0.5598 0.21255 0.15199 0.0
O42 O 0.83778 0.16342 0.16621 0.0
Zn43 Zn 0.6431 0.18145 0.11761 0.0
N44 N 0.71531 0.1852 0.19011 0.0
C45 C 0.63098 0.17477 0.21214 0.0
C46 C 0.65747 0.16978 0.19257 0.0
C47 C 0.74815 0.20519 0.20649 0.0
N48 N 0.66351 0.19498 0.22846 0.0
C49 C 0.72171 0.21039 0.22636 0.0
O50 O 0.68845 0.25886 0.12173 0.0
C51 C 0.72673 0.28423 0.13328 0.0
O52 O 0.74958 0.25765 0.14873 0.0
H53 H 0.63219 0.15367 0.17942 0.0
H54 H 0.79434 0.21614 0.20397 0.0
C55 C 0.65116 0.15771 0.07141 0.0
C56 C 0.68135 0.1318 0.05426 0.0
C57 C 0.75545 0.09652 0.07734 0.0
C58 C 0.72624 0.12271 0.09399 0.0
N59 N 0.67405 0.15138 0.091 0.0
N60 N 0.73246 0.10172 0.05799 0.0
H61 H 0.61148 0.18376 0.0693 0.0
C62 C 0.86685 0.1709 0.14943 0.0
O63 O 0.83718 0.17859 0.13202 0.0
O64 O 0.55593 0.20672 0.11736 0.0
H65 H 0.74554 0.12095 0.10928 0.0
H66 H 0.58492 0.16279 0.21437 0.0
H67 H 0.79668 0.07316 0.07963 0.0
Zn68 Zn 0.86028 0.63966 0.12029 0.0
C69 C 0.98293 0.72807 0.15284 0.0
N70 N 0.01909 0.68381 0.14734 0.0
C71 C 0.98199 0.64366 0.13903 0.0
N72 N 0.92495 0.66316 0.13912 0.0
N73 N 0.92589 0.71566 0.14843 0.0
C74 C 0.87495 0.87088 0.15532 0.0
O75 O 0.8696 0.84828 0.13653 0.0
O76 O 0.84626 0.55056 0.12149 0.0
Zn77 Zn 0.86011 0.75095 0.16346 0.0
N78 N 0.88234 0.67195 0.09306 0.0
C79 C 0.91526 0.76196 0.07747 0.0
C80 C 0.89909 0.72952 0.09498 0.0
C81 C 0.87871 0.64575 0.0739 0.0
N82 N 0.91219 0.7361 0.05847 0.0
C83 C 0.89394 0.679 0.05589 0.0
O84 O 0.78169 0.75186 0.14829 0.0
C85 C 0.75452 0.72189 0.13449 0.0
O86 O 0.78011 0.67949 0.12496 0.0
H87 H 0.89876 0.75038 0.11011 0.0
H88 H 0.86458 0.60011 0.07291 0.0
C89 C 0.8298 0.74052 0.20658 0.0
C90 C 0.81918 0.71089 0.2256 0.0
C91 C 0.84777 0.62039 0.20943 0.0
C92 C 0.85749 0.65002 0.19063 0.0
N93 N 0.84834 0.70939 0.18958 0.0
N94 N 0.82872 0.65131 0.22635 0.0
H95 H 0.8238 0.78785 0.20515 0.0
C96 C 0.80139 0.52631 0.113 0.0
O97 O 0.76599 0.55921 0.10162 0.0
O98 O 0.87652 0.83568 0.1707 0.0
H99 H 0.87197 0.62591 0.17696 0.0
H100 H 0.92888 0.80776 0.07884 0.0
H101 H 0.85486 0.57311 0.21057 0.0
Zn102 Zn 0.3988 0.85346 0.12141 0.0
C103 C 0.3173 0.99005 0.14634 0.0
N104 N 0.36283 0.02007 0.13778 0.0
C105 C 0.40132 0.97651 0.13323 0.0
N106 N 0.37996 0.92253 0.13857 0.0
N107 N 0.32757 0.93155 0.1473 0.0
C108 C 0.16604 0.88883 0.15377 0.0
O109 O 0.19026 0.88153 0.13529 0.0
O110 O 0.48813 0.83777 0.12173 0.0
Zn111 Zn 0.28588 0.87542 0.1645 0.0
N112 N 0.36634 0.87401 0.09415 0.0
C113 C 0.27383 0.90037 0.07904 0.0
C114 C 0.30738 0.88472 0.09627 0.0
C115 C 0.3935 0.8776 0.07509 0.0
N116 N 0.30019 0.90307 0.06008 0.0
C117 C 0.35897 0.8917 0.05726 0.0
O118 O 0.2852 0.79441 0.15224 0.0
C119 C 0.31094 0.7591 0.13978 0.0
O120 O 0.35503 0.77593 0.12871 0.0
H121 H 0.28659 0.88087 0.1114 0.0
H122 H 0.44065 0.86975 0.07399 0.0
C123 C 0.28963 0.84532 0.2074 0.0
C124 C 0.31582 0.83506 0.227 0.0
C125 C 0.40562 0.87735 0.21416 0.0
C126 C 0.37987 0.88548 0.19461 0.0
N127 N 0.32251 0.86919 0.19163 0.0
N128 N 0.37329 0.85216 0.22977 0.0
H129 H 0.24362 0.83495 0.20447 0.0
C130 C 0.50927 0.78899 0.11508 0.0
O131 O 0.47294 0.75047 0.10653 0.0
O132 O 0.20009 0.89501 0.16932 0.0
H133 H 0.40541 0.90425 0.1819 0.0
H134 H 0.22691 0.90922 0.0806 0.0
H135 H 0.45121 0.89021 0.21685 0.0
Zn136 Zn 0.16902 0.74763 0.3612 0.0
C137 C 0.066 0.63133 0.39167 0.0
N138 N 0.02302 0.66951 0.38623 0.0
C139 C 0.05383 0.71481 0.37801 0.0
N140 N 0.11251 0.70504 0.37821 0.0
N141 N 0.12099 0.65286 0.38723 0.0
C142 C 0.24207 0.52947 0.39185 0.0
O143 O 0.25575 0.56644 0.37672 0.0
O144 O 0.14901 0.83342 0.35613 0.0
Zn145 Zn 0.19083 0.63772 0.405 0.0
N146 N 0.17497 0.71044 0.33419 0.0
C147 C 0.16506 0.62602 0.31236 0.0
C148 C 0.15881 0.65287 0.3318 0.0
C149 C 0.19715 0.74253 0.31794 0.0
N150 N 0.18746 0.65788 0.29616 0.0
C151 C 0.20384 0.71576 0.29824 0.0
O152 O 0.26858 0.68173 0.39719 0.0
C153 C 0.28576 0.72448 0.38556 0.0
O154 O 0.25046 0.74944 0.37296 0.0
H155 H 0.1415 0.62806 0.34489 0.0
H156 H 0.20898 0.78837 0.32047 0.0
C157 C 0.16132 0.6519 0.45073 0.0
C158 C 0.146 0.69014 0.46745 0.0
C159 C 0.14696 0.77177 0.44395 0.0
C160 C 0.1627 0.73432 0.42774 0.0
N161 N 0.16941 0.67537 0.43126 0.0
N162 N 0.13947 0.74896 0.4633 0.0
H163 H 0.16689 0.60477 0.45305 0.0
C164 C 0.15659 0.86929 0.37112 0.0
O165 O 0.16426 0.84746 0.38991 0.0
O166 O 0.21139 0.549 0.40712 0.0
H167 H 0.16981 0.75198 0.41228 0.0
H168 H 0.15253 0.58014 0.31018 0.0
H169 H 0.14156 0.81879 0.44128 0.0
Zn170 Zn 0.39692 0.17839 0.40484 0.0
C171 C 0.31575 0.0529 0.37209 0.0
N172 N 0.35961 1.01774 0.37846 0.0
C173 C 0.39978 0.05607 0.3861 0.0
N174 N 0.38046 0.1133 0.38479 0.0
N175 N 0.32797 0.11033 0.37548 0.0
C176 C 0.17262 0.1594 0.37451 0.0
O177 O 0.2021 0.16003 0.39218 0.0
O178 O 0.48526 0.20183 0.40503 0.0
Zn179 Zn 0.28967 0.17136 0.35962 0.0
N180 N 0.3675 0.14767 0.43175 0.0
C181 C 0.29974 0.07955 0.44755 0.0
C182 C 0.32305 0.10704 0.42993 0.0
C183 C 0.38789 0.16374 0.45098 0.0
N184 N 0.32011 0.09518 0.46661 0.0
C185 C 0.36302 0.13705 0.46899 0.0
O186 O 0.29691 0.2526 0.37146 0.0
C187 C 0.31877 0.28201 0.38646 0.0
O188 O 0.35338 0.25808 0.39976 0.0
H189 H 0.30545 0.09572 0.41488 0.0
H190 H 0.42299 0.19635 0.45219 0.0
C191 C 0.2909 0.19983 0.31625 0.0
C192 C 0.3105 0.19557 0.29549 0.0
C193 C 0.39054 0.13527 0.30656 0.0
C194 C 0.3707 0.13923 0.32714 0.0
N195 N 0.32103 0.17093 0.33155 0.0
N196 N 0.35982 0.16306 0.29121 0.0
H197 H 0.25111 0.22422 0.32017 0.0
C198 C 0.50673 0.224 0.38833 0.0
O199 O 0.47187 0.22854 0.37201 0.0
O200 O 0.20188 0.15818 0.35759 0.0
H201 H 0.39422 0.11647 0.33944 0.0
H202 H 0.26505 0.0466 0.44613 0.0
H203 H 0.42968 0.1098 0.30277 0.0
Zn204 Zn 0.87001 0.28498 0.36172 0.0
C205 C 0.97223 0.39275 0.39659 0.0
N206 N 1.0104 0.34724 0.39566 0.0
C207 C 0.97936 0.30515 0.38585 0.0
N208 N 0.92493 0.32382 0.38052 0.0
N209 N 0.91871 0.37794 0.38831 0.0
C210 C 0.81915 0.50789 0.39079 0.0
O211 O 0.82733 0.47941 0.37313 0.0
O212 O 0.88605 0.19793 0.35785 0.0
Zn213 Zn 0.84843 0.39279 0.4057 0.0
N214 N 0.87103 0.32137 0.33444 0.0
C215 C 0.88383 0.40417 0.31197 0.0
C216 C 0.88898 0.37829 0.33165 0.0
C217 C 0.84869 0.28894 0.31838 0.0
N218 N 0.85952 0.37249 0.2961 0.0
C219 C 0.84086 0.3154 0.29866 0.0
O220 O 0.77073 0.35079 0.39733 0.0
C221 C 0.75149 0.31158 0.3847 0.0
O222 O 0.78553 0.28653 0.3716 0.0
H223 H 0.90645 0.40348 0.34462 0.0
H224 H 0.83737 0.24319 0.32127 0.0
C225 C 0.87849 0.38199 0.45106 0.0
C226 C 0.89389 0.3457 0.46826 0.0
C227 C 0.88926 0.26102 0.44625 0.0
C228 C 0.87281 0.29665 0.42962 0.0
N229 N 0.86822 0.35614 0.43217 0.0
N230 N 0.89884 0.28622 0.4651 0.0
H231 H 0.87463 0.42955 0.45259 0.0
C232 C 0.88652 0.16489 0.37387 0.0
O233 O 0.88885 0.19013 0.39229 0.0
O234 O 0.82849 0.48047 0.40784 0.0
H235 H 0.86371 0.27732 0.41459 0.0
H236 H 0.89794 0.44945 0.3094 0.0
H237 H 0.8935 0.21359 0.44433 0.0
Zn238 Zn 0.75216 0.86557 0.36114 0.0
C239 C 0.63922 0.96785 0.39314 0.0
N240 N 0.67921 1.01062 0.38905 0.0
C241 C 0.72418 0.98018 0.38049 0.0
N242 N 0.71222 0.922 0.37898 0.0
N243 N 0.65927 0.91363 0.38748 0.0
C244 C 0.52963 0.81283 0.39066 0.0
O245 O 0.56117 0.81398 0.37339 0.0
O246 O 0.83862 0.88312 0.35643 0.0
Zn247 Zn 0.64328 0.84551 0.40561 0.0
N248 N 0.71466 0.86261 0.33408 0.0
C249 C 0.63245 0.88007 0.3118 0.0
C250 C 0.65928 0.88468 0.33131 0.0
C251 C 0.74456 0.83618 0.31814 0.0
N252 N 0.66185 0.85286 0.29596 0.0
C253 C 0.71726 0.83003 0.29851 0.0
O254 O 0.68559 0.76832 0.3978 0.0
C255 C 0.72657 0.74935 0.3858 0.0
O256 O 0.75184 0.78299 0.37256 0.0
H257 H 0.63617 0.90553 0.34412 0.0
H258 H 0.78924 0.82086 0.32086 0.0
C259 C 0.65538 0.87781 0.45103 0.0
C260 C 0.69272 0.89344 0.46795 0.0
C261 C 0.77628 0.88802 0.44531 0.0
C262 C 0.73963 0.87178 0.42895 0.0
N263 N 0.6802 0.86724 0.43193 0.0
N264 N 0.75211 0.89797 0.46433 0.0
H265 H 0.60786 0.8739 0.45295 0.0
C266 C 0.87173 0.87936 0.37233 0.0
O267 O 0.84647 0.87696 0.39077 0.0
O268 O 0.55479 0.82652 0.40777 0.0
H269 H 0.75815 0.86261 0.41377 0.0
H270 H 0.58842 0.89756 0.30929 0.0
H271 H 0.82369 0.89187 0.44305 0.0
Zn272 Zn 0.88944 0.6897 0.90538 0.0
C273 C 0.80358 0.55394 0.88464 0.0
N274 N 0.84652 0.52284 0.89387 0.0
C275 C 0.89039 0.56272 0.89612 0.0
N276 N 0.87392 0.61713 0.88886 0.0
N277 N 0.82004 0.61018 0.88083 0.0
C278 C 0.66038 0.64802 0.8757 0.0
O279 O 0.68743 0.64812 0.89378 0.0
O280 O 0.97707 0.71276 0.90697 0.0
Zn281 Zn 0.77963 0.66416 0.86194 0.0
N282 N 0.8527 0.67254 0.93225 0.0
C283 C 0.75669 0.65388 0.94625 0.0
C284 C 0.79319 0.66857 0.92958 0.0
C285 C 0.87772 0.66342 0.95136 0.0
N286 N 0.78116 0.6449 0.96525 0.0
C287 C 0.84067 0.64912 0.96856 0.0
O288 O 0.78191 0.74914 0.87086 0.0
C289 C 0.80696 0.7843 0.88356 0.0
O290 O 0.84653 0.76599 0.89619 0.0
H291 H 0.77458 0.67689 0.9144 0.0
H292 H 0.92521 0.66722 0.95305 0.0
C293 C 0.78523 0.68885 0.81847 0.0
C294 C 0.8045 0.68158 0.79775 0.0
C295 C 0.87804 0.61425 0.8095 0.0
C296 C 0.85833 0.62118 0.83002 0.0
N297 N 0.81218 0.65807 0.83407 0.0
N298 N 0.85051 0.64415 0.79388 0.0
H299 H 0.7479 0.71709 0.82215 0.0
C300 C 1.00751 0.7111 0.89023 0.0
O301 O 0.98186 0.69219 0.87308 0.0
O302 O 0.69189 0.64793 0.85928 0.0
H303 H 0.879 0.59668 0.84255 0.0
H304 H 0.7092 0.65023 0.94422 0.0
H305 H 0.91447 0.58477 0.80598 0.0
Zn306 Zn 0.36691 0.78701 0.86145 0.0
C307 C 0.46919 0.89216 0.89713 0.0
N308 N 0.50749 0.84687 0.89522 0.0
C309 C 0.47578 0.80557 0.88529 0.0
N310 N 0.42096 0.82445 0.88075 0.0
N311 N 0.41495 0.87788 0.88918 0.0
C312 C 0.31133 1.00948 0.89045 0.0
O313 O 0.32345 0.98268 0.87275 0.0
O314 O 0.38322 0.70045 0.85636 0.0
Zn315 Zn 0.34277 0.89306 0.9062 0.0
N316 N 0.36656 0.82671 0.8347 0.0
C317 C 0.38405 0.91125 0.81343 0.0
C318 C 0.38714 0.88303 0.83275 0.0
C319 C 0.34322 0.79715 0.81811 0.0
N320 N 0.36007 0.88209 0.79693 0.0
C321 C 0.33926 0.82548 0.79854 0.0
O322 O 0.26623 0.84755 0.89796 0.0
C323 C 0.24911 0.80724 0.88535 0.0
O324 O 0.28459 0.78518 0.87213 0.0
H325 H 0.40542 0.9059 0.84611 0.0
H326 H 0.32824 0.75206 0.82035 0.0
C327 C 0.37146 0.8837 0.95229 0.0
C328 C 0.38802 0.84751 0.96943 0.0
C329 C 0.38502 0.7631 0.94727 0.0
C330 C 0.36862 0.79865 0.93061 0.0
N331 N 0.36245 0.85802 0.93323 0.0
N332 N 0.39404 0.78821 0.96615 0.0
H333 H 0.36607 0.93103 0.95401 0.0
C334 C 0.37689 0.66666 0.87205 0.0
O335 O 0.37268 0.691 0.89058 0.0
O336 O 0.31853 0.98083 0.90741 0.0
H337 H 0.36093 0.77922 0.91548 0.0
H338 H 0.40011 0.95616 0.81158 0.0
H339 H 0.39011 0.71577 0.94529 0.0
Zn340 Zn 0.24108 0.36692 0.86045 0.0
C341 C 0.12997 0.47267 0.89139 0.0
N342 N 0.16836 0.51506 0.88534 0.0
C343 C 0.21301 0.48352 0.8771 0.0
N344 N 0.20245 0.42489 0.87785 0.0
N345 N 0.15048 0.41746 0.88721 0.0
C346 C 0.02331 0.30989 0.89192 0.0
O347 O 0.05734 0.3042 0.87536 0.0
O348 O 0.32776 0.38283 0.85553 0.0
Zn349 Zn 0.13488 0.34949 0.90574 0.0
N350 N 0.20459 0.36698 0.83319 0.0
C351 C 0.1265 0.39147 0.80987 0.0
C352 C 0.15004 0.39069 0.83 0.0
C353 C 0.23656 0.34403 0.81712 0.0
N354 N 0.1588 0.36914 0.79375 0.0
C355 C 0.21383 0.3459 0.79673 0.0
O356 O 0.17689 0.27108 0.89821 0.0
C357 C 0.21605 0.25106 0.88565 0.0
O358 O 0.23967 0.28405 0.87184 0.0
H359 H 0.12512 0.40887 0.84294 0.0
H360 H 0.27894 0.32393 0.82036 0.0
C361 C 0.1484 0.38018 0.95111 0.0
C362 C 0.18582 0.39684 0.96785 0.0
C363 C 0.26827 0.39708 0.94464 0.0
C364 C 0.23156 0.38007 0.92838 0.0
N365 N 0.1726 0.37222 0.93176 0.0
N366 N 0.2447 0.40464 0.96388 0.0
H367 H 0.10131 0.37344 0.95336 0.0
C368 C 0.36321 0.37211 0.87038 0.0
O369 O 0.34135 0.36491 0.88922 0.0
O370 O 0.04621 0.331 0.90848 0.0
H371 H 0.24976 0.37289 0.91301 0.0
H372 H 0.08301 0.4099 0.80705 0.0
H373 H 0.31531 0.40336 0.94211 0.0
Zn374 Zn 0.6658 0.24914 0.85963 0.0
C375 C 0.56019 0.12877 0.88655 0.0
N376 N 0.51724 0.16378 0.87897 0.0
C377 C 0.54803 0.20994 0.87137 0.0
N378 N 0.60675 0.20343 0.87403 0.0
N379 N 0.61504 0.15249 0.8839 0.0
C380 C 0.72033 0.02868 0.88849 0.0
O381 O 0.72236 0.06199 0.87167 0.0
O382 O 0.64708 0.33599 0.85756 0.0
Zn383 Zn 0.67908 0.13973 0.90428 0.0
N384 N 0.67572 0.21749 0.83197 0.0
C385 C 0.67873 0.13481 0.80911 0.0
C386 C 0.66688 0.15869 0.8287 0.0
C387 C 0.6956 0.2537 0.81646 0.0
N388 N 0.70023 0.17054 0.79377 0.0
C389 C 0.70982 0.22959 0.79682 0.0
O390 O 0.75781 0.18566 0.89958 0.0
C391 C 0.77787 0.22495 0.88703 0.0
O392 O 0.7454 0.24704 0.87291 0.0
H393 H 0.65144 0.13054 0.84127 0.0
H394 H 0.69996 0.30043 0.81968 0.0
C395 C 0.65373 0.14634 0.94981 0.0
C396 C 0.6237 0.17135 0.96707 0.0
C397 C 0.5768 0.2398 0.9445 0.0
C398 C 0.6076 0.21619 0.92765 0.0
N399 N 0.6444 0.16911 0.93037 0.0
N400 N 0.5857 0.21707 0.96378 0.0
H401 H 0.684 0.10964 0.95179 0.0
C402 C 0.65101 0.36416 0.87463 0.0
O403 O 0.65582 0.33349 0.89199 0.0
O404 O 0.70161 0.05157 0.90546 0.0
H405 H 0.60201 0.23557 0.91245 0.0
H406 H 0.67192 0.08808 0.80618 0.0
H407 H 0.54682 0.27664 0.94233 0.0
Zn408 Zn 0.8983 0.35339 0.61915 0.0
C409 C 0.81794 0.48913 0.64397 0.0
N410 N 0.86285 0.51986 0.63539 0.0
C411 C 0.90238 0.47713 0.63101 0.0
N412 N 0.88214 0.42269 0.6365 0.0
N413 N 0.82934 0.4309 0.64505 0.0
C414 C 0.66882 0.38705 0.65235 0.0
O415 O 0.69221 0.38371 0.6336 0.0
O416 O 0.98629 0.33363 0.61746 0.0
Zn417 Zn 0.78948 0.37547 0.66303 0.0
N418 N 0.86439 0.37421 0.59237 0.0
C419 C 0.77283 0.40139 0.5768 0.0
C420 C 0.80552 0.38557 0.59423 0.0
C421 C 0.89237 0.37751 0.5735 0.0
N422 N 0.80001 0.40348 0.55796 0.0
C423 C 0.85881 0.39148 0.55552 0.0
O424 O 0.78907 0.29219 0.6524 0.0
C425 C 0.81363 0.25809 0.63922 0.0
O426 O 0.85444 0.27669 0.62702 0.0
H427 H 0.78425 0.38218 0.60929 0.0
H428 H 0.93952 0.36947 0.57271 0.0
C429 C 0.79574 0.35273 0.70626 0.0
C430 C 0.82136 0.35102 0.72623 0.0
C431 C 0.90815 0.39665 0.71234 0.0
C432 C 0.88257 0.39765 0.69257 0.0
N433 N 0.82697 0.37565 0.68996 0.0
N434 N 0.87718 0.37326 0.72862 0.0
H435 H 0.75132 0.33648 0.70354 0.0
C436 C 1.01052 0.31472 0.63411 0.0
O437 O 0.97873 0.31286 0.65133 0.0
O438 O 0.70336 0.39343 0.66776 0.0
H439 H 0.9068 0.41577 0.67943 0.0
H440 H 0.72597 0.41087 0.57813 0.0
H441 H 0.95238 0.41397 0.71474 0.0
Zn442 Zn 0.66908 0.79302 0.66481 0.0
C443 C 0.56113 0.90007 0.63173 0.0
N444 N 0.52214 0.85635 0.63577 0.0
C445 C 0.55547 0.81495 0.64489 0.0
N446 N 0.61216 0.83222 0.6469 0.0
N447 N 0.61705 0.885 0.63783 0.0
C448 C 0.71807 1.01683 0.63573 0.0
O449 O 0.70562 0.99032 0.65349 0.0
O450 O 0.65365 0.70561 0.66703 0.0
Zn451 Zn 0.687 0.90091 0.61993 0.0
N452 N 0.66398 0.822 0.69311 0.0
C453 C 0.62058 0.88234 0.71936 0.0
C454 C 0.62693 0.86691 0.6984 0.0
C455 C 0.69513 0.79193 0.70786 0.0
N456 N 0.65045 0.85127 0.73416 0.0
C457 C 0.68731 0.80564 0.72914 0.0
O458 O 0.76365 0.85648 0.62756 0.0
C459 C 0.78511 0.8195 0.64056 0.0
O460 O 0.75329 0.7967 0.65487 0.0
H461 H 0.60201 0.88991 0.68648 0.0
H462 H 0.72533 0.75771 0.70281 0.0
C463 C 0.66563 0.89495 0.57366 0.0
C464 C 0.6496 0.86148 0.55581 0.0
C465 C 0.63357 0.77746 0.57756 0.0
C466 C 0.65026 0.81022 0.59487 0.0
N467 N 0.66569 0.86807 0.59278 0.0
N468 N 0.63385 0.80368 0.55857 0.0
H469 H 0.67731 0.94127 0.57259 0.0
C470 C 0.66149 0.6755 0.65059 0.0
O471 O 0.67011 0.70386 0.63296 0.0
O472 O 0.71116 0.98804 0.61884 0.0
H473 H 0.65107 0.78987 0.61005 0.0
H474 H 0.59137 0.91806 0.72389 0.0
H475 H 0.62121 0.73132 0.5791 0.0
Zn476 Zn 0.25083 0.6771 0.66394 0.0
C477 C 0.14236 0.56712 0.63215 0.0
N478 N 0.18541 0.52804 0.63652 0.0
C479 C 0.22723 0.56152 0.64537 0.0
N480 N 0.21086 0.61855 0.64686 0.0
N481 N 0.15815 0.62335 0.63776 0.0
C482 C 0.02827 0.72895 0.63571 0.0
O483 O 0.05726 0.7221 0.65331 0.0
O484 O 0.33709 0.6587 0.66843 0.0
Zn485 Zn 0.14252 0.69262 0.61951 0.0
N486 N 0.21445 0.68262 0.69119 0.0
C487 C 0.13149 0.67399 0.71394 0.0
C488 C 0.15706 0.66644 0.69428 0.0
C489 C 0.24756 0.70577 0.70695 0.0
N490 N 0.1641 0.69836 0.72956 0.0
C491 C 0.22163 0.7153 0.72668 0.0
O492 O 0.18814 0.76981 0.62596 0.0
C493 C 0.22845 0.79057 0.63784 0.0
O494 O 0.25233 0.75877 0.65182 0.0
H495 H 0.13139 0.64817 0.68157 0.0
H496 H 0.29359 0.71609 0.70394 0.0
C497 C 0.14892 0.6694 0.57344 0.0
C498 C 0.18175 0.65128 0.55566 0.0
C499 C 0.26467 0.63224 0.57753 0.0
C500 C 0.23268 0.65134 0.59475 0.0
N501 N 0.17551 0.66902 0.59256 0.0
N502 N 0.23868 0.63294 0.55853 0.0
H503 H 0.10318 0.68287 0.57238 0.0
C504 C 0.37009 0.65886 0.65238 0.0
O505 O 0.34468 0.66027 0.63398 0.0
O506 O 0.05489 0.71694 0.61867 0.0
H507 H 0.25329 0.65222 0.6099 0.0
H508 H 0.08587 0.66122 0.71672 0.0
H509 H 0.31008 0.61765 0.57917 0.0
Zn510 Zn 0.35376 0.14914 0.61863 0.0
C511 C 0.48572 0.22243 0.64897 0.0
N512 N 0.51684 0.17748 0.64076 0.0
C513 C 0.47394 0.14011 0.63448 0.0
N514 N 0.41897 0.16155 0.63847 0.0
N515 N 0.42696 0.213 0.64801 0.0
C516 C 0.3834 0.37562 0.65096 0.0
O517 O 0.38138 0.35033 0.63253 0.0
O518 O 0.33305 0.0608 0.61574 0.0
Zn519 Zn 0.36904 0.25539 0.66432 0.0
N520 N 0.38194 0.18655 0.59275 0.0
C521 C 0.43228 0.27285 0.58046 0.0
C522 C 0.40855 0.23949 0.59665 0.0
C523 C 0.37618 0.16643 0.57274 0.0
N524 N 0.42678 0.25306 0.56066 0.0
C525 C 0.3988 0.20123 0.55606 0.0
O526 O 0.2863 0.25183 0.65296 0.0
C527 C 0.25465 0.22895 0.63868 0.0
O528 O 0.27602 0.19167 0.62575 0.0
H529 H 0.41093 0.25614 0.61232 0.0
H530 H 0.35308 0.12515 0.56992 0.0
C531 C 0.33713 0.25347 0.70729 0.0
C532 C 0.34159 0.23575 0.7282 0.0
C533 C 0.40872 0.16007 0.71828 0.0
C534 C 0.40451 0.178 0.6975 0.0
N535 N 0.36923 0.22462 0.69245 0.0
N536 N 0.3776 0.18959 0.73317 0.0
H537 H 0.30997 0.29097 0.70291 0.0
C538 C 0.31429 0.03545 0.6323 0.0
O539 O 0.31254 0.06637 0.64966 0.0
O540 O 0.38607 0.34267 0.66697 0.0
H541 H 0.43006 0.15566 0.68558 0.0
H542 H 0.45408 0.31468 0.58354 0.0
H543 H 0.43704 0.12345 0.7226 0.0
C544 C 0.115 0.35253 0.01928 0.0
C545 C 0.15072 0.38233 0.034 0.0
C546 C 0.12243 0.36118 0.99774 0.0
C547 C 0.16571 0.40048 0.99 0.0
H548 H 0.08353 0.31911 0.02437 0.0
H549 H 0.09728 0.33329 0.98724 0.0
S550 S 0.26329 0.49789 0.02173 0.0
N551 N 0.22637 0.45816 0.03909 0.0
N552 N 0.23813 0.47659 0.99877 0.0
C553 C 0.1973 0.4352 1.00455 0.0
C554 C 0.19035 0.42576 0.0265 0.0
C555 C 0.70829 0.14154 0.01672 0.0
C556 C 0.66337 0.13926 0.0321 0.0
C557 C 0.69496 0.14851 0.99556 0.0
C558 C 0.6361 0.15378 0.98886 0.0
H559 H 0.75464 0.13938 0.02106 0.0
H560 H 0.73126 0.15244 0.98452 0.0
S561 S 0.50136 0.14367 0.02208 0.0
N562 N 0.55696 0.13702 0.03864 0.0
N563 N 0.53201 0.15227 0.99882 0.0
C564 C 0.59047 0.14984 1.00385 0.0
C565 C 0.60402 0.14208 0.02547 0.0
C566 C 0.91222 0.67596 0.99722 0.0
C567 C 0.86261 0.64343 0.99045 0.0
C568 C 0.92471 0.68231 0.01851 0.0
C569 C 0.88794 0.65712 0.03404 0.0
H570 H 0.93944 0.70043 0.98625 0.0
H571 H 0.9617 0.71043 0.02285 0.0
S572 S 0.75809 0.55927 0.02443 0.0
N573 N 0.7818 0.57784 1.00093 0.0
N574 N 0.80323 0.59273 0.04088 0.0
C575 C 0.84108 0.62036 0.02747 0.0
C576 C 0.82892 0.61298 1.00572 0.0
C577 C 0.35812 0.91563 0.99878 0.0
C578 C 0.39429 0.86963 0.9913 0.0
C579 C 0.35198 0.92604 0.02027 0.0
C580 C 0.38118 0.89071 0.03527 0.0
H581 H 0.33065 0.94093 0.98821 0.0
H582 H 0.32075 0.95969 0.0252 0.0
S583 S 0.48996 0.77184 0.02355 0.0
N584 N 0.46763 0.79501 1.00044 0.0
N585 N 0.45372 0.81254 0.04073 0.0
C586 C 0.42182 0.84829 0.02792 0.0
C587 C 0.42877 0.83825 1.00599 0.0
C588 C 0.17791 0.62463 0.49725 0.0
C589 C 0.14214 0.67081 0.48973 0.0
C590 C 0.18596 0.61596 0.51873 0.0
C591 C 0.15939 0.65345 0.53371 0.0
H592 H 0.2034 0.5974 0.48664 0.0
H593 H 0.21625 0.58141 0.52357 0.0
S594 S 0.05328 0.77489 0.52207 0.0
N595 N 0.07221 0.74861 0.49899 0.0
N596 N 0.09027 0.73486 0.53918 0.0
C597 C 0.1196 0.69676 0.52642 0.0
C598 C 0.11043 0.70481 0.50451 0.0
C599 C 0.3913 0.12555 0.52717 0.0
C600 C 0.3916 0.18509 0.53366 0.0
C601 C 0.38471 0.11064 0.50603 0.0
C602 C 0.37899 0.15458 0.49053 0.0
H603 H 0.39634 0.09008 0.53842 0.0
H604 H 0.38339 0.06418 0.50179 0.0
S605 S 0.37446 0.31686 0.49921 0.0
N606 N 0.38397 0.28834 0.52269 0.0
N607 N 0.37221 0.25984 0.48313 0.0
C608 C 0.37993 0.21417 0.4967 0.0
C609 C 0.38611 0.22948 0.5182 0.0
C610 C 0.85488 0.42526 0.51848 0.0
C611 C 0.88241 0.38971 0.53376 0.0
C612 C 0.86276 0.41459 0.4971 0.0
C613 C 0.89904 0.36809 0.49007 0.0
H614 H 0.82365 0.45931 0.52306 0.0
H615 H 0.83641 0.44006 0.48624 0.0
S616 S 0.99046 0.26916 0.52335 0.0
N617 N 0.95332 0.31049 0.54009 0.0
N618 N 0.97051 0.29252 0.49999 0.0
C619 C 0.93185 0.33637 0.5051 0.0
C620 C 0.92311 0.34666 0.52692 0.0
C621 C 0.62469 0.86399 0.49743 0.0
C622 C 0.67164 0.89925 0.48996 0.0
C623 C 0.61485 0.85687 0.5189 0.0
C624 C 0.65181 0.88401 0.5339 0.0
H625 H 0.59798 0.83794 0.48682 0.0
H626 H 0.58007 0.82659 0.52377 0.0
S627 S 0.77428 0.98966 0.52231 0.0
N628 N 0.74931 0.9696 0.49919 0.0
N629 N 0.73301 0.95358 0.53944 0.0
C630 C 0.69553 0.92366 0.52663 0.0
C631 C 0.70491 0.93175 0.5047 0.0
C632 C 0.25464 0.05261 0.169 0.0
C633 C 0.26062 0.01868 0.15082 0.0
C634 C 0.21271 0.09826 0.17006 0.0
C635 C 0.17682 0.11195 0.1527 0.0
H636 H 0.28607 0.04757 0.18164 0.0
H637 H 0.21338 0.12692 0.18361 0.0
S638 S 0.16836 0.02769 0.10321 0.0
N639 N 0.22215 0.99551 0.11646 0.0
N640 N 0.14264 0.08071 0.11848 0.0
C641 C 0.17761 0.07334 0.13554 0.0
C642 C 0.22015 0.02698 0.13452 0.0
C643 C 0.99976 0.25975 0.16542 0.0
C644 C 0.02976 0.26492 0.1463 0.0
C645 C 0.95043 0.22207 0.16738 0.0
C646 C 0.92956 0.18956 0.1501 0.0
H647 H 1.01043 0.28945 0.17816 0.0
H648 H 0.92482 0.22379 0.1817 0.0
S649 S 1.0011 0.17947 0.0981 0.0
N650 N 0.04137 0.22845 0.11096 0.0
N651 N 0.94934 0.15703 0.11462 0.0
C652 C 0.96398 0.18906 0.13181 0.0
C653 C 1.01393 0.22725 0.12987 0.0
C654 C 0.82209 0.94901 0.1754 0.0
C655 C 0.85915 0.93356 0.15854 0.0
C656 C 0.7848 0.99853 0.17409 0.0
C657 C 0.78421 0.03401 0.15607 0.0
H658 H 0.81603 0.91883 0.1884 0.0
H659 H 0.75101 1.00439 0.18597 0.0
S660 S 0.88482 0.02054 0.11044 0.0
N661 N 0.90297 0.96461 0.12572 0.0
N662 N 0.83164 0.05629 0.1229 0.0
C663 C 0.82766 0.024 0.14072 0.0
C664 C 0.86572 0.97397 0.1421 0.0
C665 C 0.09052 0.83463 0.175 0.0
C666 C 0.10443 0.86817 0.15705 0.0
C667 C 0.0431 0.79421 0.17491 0.0
C668 C 1.00769 0.78706 0.15709 0.0
H669 H 0.12039 0.83408 0.18821 0.0
H670 H 0.03847 0.76375 0.18791 0.0
S671 S 1.01882 0.87319 0.10792 0.0
N672 N 0.07286 0.89938 0.1226 0.0
N673 N 0.98514 0.82225 0.12221 0.0
C674 C 1.01659 0.82585 0.1402 0.0
C675 C 0.06463 0.86698 0.14028 0.0
C676 C 0.21774 0.01903 0.38358 0.0
C677 C 0.25756 0.02789 0.36696 0.0
C678 C 0.17813 0.97115 0.38356 0.0
C679 C 0.17742 0.93046 0.36695 0.0
H680 H 0.22233 0.04437 0.39783 0.0
H681 H 0.15271 0.96232 0.39761 0.0
S682 S 0.26413 0.94266 0.31776 0.0
N683 N 0.28737 0.99879 0.33213 0.0
N684 N 0.21218 0.90913 0.33169 0.0
C685 C 0.21108 0.94397 0.34897 0.0
C686 C 0.2517 0.99259 0.34913 0.0
C687 C 0.0784 0.17761 0.39359 0.0
C688 C 0.10941 0.17725 0.37451 0.0
C689 C 0.02851 0.21347 0.39634 0.0
C690 C 1.00752 0.24922 0.38004 0.0
H691 H 0.09614 0.1549 0.4071 0.0
H692 H 1.01018 0.21809 0.41192 0.0
S693 S 0.06337 0.25351 0.32577 0.0
N694 N 0.10828 0.20719 0.3379 0.0
N695 N 1.01422 0.27471 0.34339 0.0
C696 C 0.03261 0.2429 0.36018 0.0
C697 C 0.08372 0.20655 0.3573 0.0
C698 C 0.78585 0.04148 0.35692 0.0
C699 C 0.78072 1.00879 0.37545 0.0
C700 C 0.82697 0.08803 0.35528 0.0
C701 C 0.86313 0.10372 0.37236 0.0
H702 H 0.75418 0.03488 0.34443 0.0
H703 H 0.82558 0.11565 0.34145 0.0
S704 S 0.8735 0.0236 0.42275 0.0
N705 N 0.81984 0.98949 0.40999 0.0
N706 N 0.8984 0.07565 0.40681 0.0
C707 C 0.86321 0.06636 0.38993 0.0
C708 C 0.82124 0.01936 0.39157 0.0
C709 C 0.99047 0.77486 0.35477 0.0
C710 C 0.02528 0.77108 0.37282 0.0
C711 C 0.94492 0.81686 0.35329 0.0
C712 C 0.93219 0.85512 0.37011 0.0
H713 H 0.99483 0.74178 0.34262 0.0
H714 H 0.91556 0.81457 0.33996 0.0
S715 S 1.01752 0.86852 0.4192 0.0
N716 N 0.04926 0.81322 0.40657 0.0
N717 N 0.96434 0.89282 0.40374 0.0
C718 C 0.97127 0.85603 0.38713 0.0
C719 C 1.01754 0.81344 0.38857 0.0
C720 C 0.79274 0.8811 0.90278 0.0
C721 C 0.78608 0.84716 0.88444 0.0
C722 C 0.7699 0.93911 0.90429 0.0
C723 C 0.74055 0.96592 0.88737 0.0
H724 H 0.81493 0.86243 0.91623 0.0
H725 H 0.77631 0.96352 0.91866 0.0
S726 S 0.71016 0.89635 0.836 0.0
N727 N 0.7465 0.84507 0.84912 0.0
N728 N 0.70496 0.95367 0.85188 0.0
C729 C 0.73357 0.93258 0.86899 0.0
C730 C 0.75593 0.87342 0.86754 0.0
C731 C 0.08993 0.77641 0.90372 0.0
C732 C 0.06984 0.73309 0.88955 0.0
C733 C 0.14746 0.80073 0.90218 0.0
C734 C 0.18749 0.78229 0.88654 0.0
H735 H 0.06057 0.79264 0.91583 0.0
H736 H 0.16055 0.83421 0.91337 0.0
S737 S 0.15759 0.66607 0.84659 0.0
N738 N 0.09542 0.6704 0.86012 0.0
N739 N 0.20276 0.71518 0.85713 0.0
C740 C 0.16804 0.73773 0.87258 0.0
C741 C 0.10956 0.71341 0.87412 0.0
C742 C 0.26682 0.16212 0.87037 0.0
C743 C 0.23782 0.18867 0.88748 0.0
C744 C 0.29055 0.10477 0.87164 0.0
C745 C 0.28729 0.07123 0.89017 0.0
H746 H 0.2712 0.18581 0.85572 0.0
H747 H 0.31196 0.08675 0.85789 0.0
S748 S 0.21814 0.12064 0.93987 0.0
N749 N 0.20834 0.17705 0.9238 0.0
N750 N 0.25354 0.06956 0.92627 0.0
C751 C 0.25909 0.09735 0.90754 0.0
C752 C 0.23414 0.15575 0.90616 0.0
C753 C 0.93031 0.26839 0.90873 0.0
C754 C 0.96008 0.29062 0.89098 0.0
C755 C 0.87187 0.24597 0.90741 0.0
C756 C 0.84064 0.24609 0.88837 0.0
H757 H 0.95274 0.2671 0.92365 0.0
H758 H 0.8508 0.22916 0.92144 0.0
S759 S 0.89853 0.30077 0.83745 0.0
N760 N 0.9535 0.31201 0.8539 0.0
N761 N 0.84456 0.27089 0.85138 0.0
C762 C 0.86995 0.26898 0.87061 0.0
C763 C 0.92931 0.29097 0.87192 0.0
C764 C 0.7621 0.17022 0.65498 0.0
C765 C 0.7916 0.19586 0.63777 0.0
C766 C 0.73839 0.11275 0.65405 0.0
C767 C 0.74223 0.07842 0.63576 0.0
H768 H 0.7574 0.19467 0.66944 0.0
H769 H 0.71654 0.0953 0.66783 0.0
S770 S 0.81304 0.12536 0.58596 0.0
N771 N 0.82235 0.18262 0.60166 0.0
N772 N 0.77714 0.07488 0.59979 0.0
C773 C 0.77099 0.10364 0.6183 0.0
C774 C 0.79592 0.16211 0.61935 0.0
C775 C 0.9348 0.75359 0.6551 0.0
C776 C 0.96627 0.75217 0.63608 0.0
C777 C 0.87695 0.77615 0.65634 0.0
C778 C 0.84794 0.79931 0.63869 0.0
H779 H 0.95478 0.73665 0.66925 0.0
H780 H 0.85479 0.77548 0.67137 0.0
S781 S 0.91007 0.8057 0.58498 0.0
N782 N 0.96347 0.77556 0.599 0.0
N783 N 0.85504 0.8187 0.60141 0.0
C784 C 0.87885 0.79857 0.61954 0.0
C785 C 0.93773 0.77474 0.6182 0.0
C786 C 0.29708 0.94014 0.65134 0.0
C787 C 0.29409 0.97246 0.63257 0.0
C788 C 0.27579 0.88177 0.65276 0.0
C789 C 0.24935 0.85318 0.63558 0.0
H790 H 0.31633 0.96003 0.66515 0.0
H791 H 0.27955 0.85912 0.66762 0.0
S792 S 0.23102 0.91794 0.58268 0.0
N793 N 0.26346 0.97116 0.59623 0.0
N794 N 0.22229 0.86175 0.59897 0.0
C795 C 0.24604 0.88491 0.61665 0.0
C796 C 0.26881 0.94428 0.61511 0.0
C797 C 0.1043 0.29307 0.65337 0.0
C798 C 0.07299 0.29361 0.6344 0.0
C799 C 0.16256 0.2717 0.65454 0.0
C800 C 0.19187 0.24879 0.63686 0.0
H801 H 0.08381 0.30977 0.6675 0.0
H802 H 0.1847 0.27286 0.66953 0.0
S803 S 0.12954 0.23995 0.58335 0.0
N804 N 0.07577 0.2696 0.59742 0.0
N805 N 0.18497 0.22842 0.59966 0.0
C806 C 0.16099 0.2487 0.61777 0.0
C807 C 0.10179 0.27148 0.61652 0.0
C808 C 0.71633 0.59639 0.66939 0.0
C809 C 0.68174 0.61363 0.65213 0.0
C810 C 0.75631 0.54911 0.66776 0.0
C811 C 0.7615 0.5173 0.64906 0.0
H812 H 0.71788 0.62362 0.6833 0.0
H813 H 0.78736 0.54144 0.68035 0.0
S814 S 0.6713 0.53616 0.60135 0.0
N815 N 0.64756 0.58844 0.61733 0.0
N816 N 0.72296 0.49981 0.61431 0.0
C817 C 0.72176 0.52912 0.63282 0.0
C818 C 0.6814 0.57722 0.6344 0.0
C819 C 0.44944 0.71437 0.67117 0.0
C820 C 0.43248 0.67855 0.65416 0.0
C821 C 0.49748 0.75376 0.66942 0.0
C822 C 0.5302 0.75752 0.65081 0.0
H823 H 0.42151 0.71742 0.68492 0.0
H824 H 0.50454 0.78602 0.6817 0.0
S825 S 0.51306 0.66286 0.60403 0.0
N826 N 0.45984 0.64062 0.62 0.0
N827 N 0.54902 0.71567 0.6166 0.0
C828 C 0.51887 0.71618 0.63499 0.0
C829 C 0.47028 0.67608 0.63674 0.0
C830 C 0.32246 0.52179 0.63378 0.0
C831 C 0.28512 0.53639 0.65057 0.0
C832 C 0.36112 0.47352 0.63501 0.0
C833 C 0.363 0.43781 0.65301 0.0
H834 H 0.31683 0.54348 0.61881 0.0
H835 H 0.38485 0.46048 0.62102 0.0
S836 S 0.28335 0.46673 0.70281 0.0
N837 N 0.25943 0.51872 0.68675 0.0
N838 N 0.33253 0.428 0.68943 0.0
C839 C 0.33198 0.45732 0.67089 0.0
C840 C 0.29255 0.50659 0.66954 0.0
C841 C 0.52285 0.31985 0.63791 0.0
C842 C 0.51416 0.27889 0.65414 0.0
C843 C 0.56928 0.36106 0.63866 0.0
C844 C 0.60872 0.36216 0.65562 0.0
H845 H 0.49778 0.31597 0.62358 0.0
H846 H 0.57782 0.38811 0.62498 0.0
S847 S 0.59701 0.27079 0.70376 0.0
N848 N 0.54251 0.24686 0.68876 0.0
N849 N 0.6295 0.32496 0.69061 0.0
C850 C 0.59567 0.32623 0.67309 0.0
C851 C 0.54856 0.28398 0.67217 0.0
C852 C 0.7031 0.44914 0.85746 0.0
C853 C 0.6703 0.4269 0.87457 0.0
C854 C 0.7413 0.49791 0.85985 0.0
C855 C 0.74699 0.52599 0.87927 0.0
H856 H 0.70457 0.42497 0.84287 0.0
H857 H 0.77114 0.50936 0.84717 0.0
S858 S 0.66058 0.49407 0.92722 0.0
N859 N 0.63742 0.44421 0.9102 0.0
N860 N 0.71041 0.53465 0.91475 0.0
C861 C 0.70897 0.50901 0.89557 0.0
C862 C 0.66997 0.45981 0.89316 0.0
C863 C 0.53287 0.74485 0.86037 0.0
C864 C 0.50218 0.74881 0.87938 0.0
C865 C 0.58018 0.70507 0.85803 0.0
C866 C 0.59832 0.66894 0.87481 0.0
H867 H 0.5247 0.77698 0.84813 0.0
H868 H 0.60663 0.7078 0.84391 0.0
S869 S 0.52244 0.6537 0.92592 0.0
N870 N 0.48616 0.70709 0.91383 0.0
N871 N 0.57383 0.63113 0.90933 0.0
C872 C 0.56242 0.66695 0.89275 0.0
C873 C 0.51474 0.70759 0.89513 0.0
C874 C 0.27196 0.54866 0.85389 0.0
C875 C 0.26956 0.51166 0.87149 0.0
C876 C 0.31352 0.59497 0.85265 0.0
C877 C 0.3528 0.60625 0.86926 0.0
H878 H 0.23798 0.54543 0.84201 0.0
H879 H 0.31006 0.62593 0.83977 0.0
S880 S 0.37031 0.51548 0.91701 0.0
N881 N 0.31456 0.48426 0.90443 0.0
N882 N 0.39293 0.5709 0.90211 0.0
C883 C 0.35514 0.56526 0.88573 0.0
C884 C 0.31316 0.51807 0.88689 0.0
C885 C 0.51328 0.30916 0.88139 0.0
C886 C 0.51809 0.26533 0.86592 0.0
C887 C 0.46611 0.34941 0.88134 0.0
C888 C 0.42221 0.34686 0.86585 0.0
H889 H 0.54192 0.30815 0.8949 0.0
H890 H 0.46089 0.37884 0.89458 0.0
S891 S 0.41912 0.24397 0.82066 0.0
N892 N 0.47902 0.22493 0.8338 0.0
N893 N 0.39047 0.30084 0.83335 0.0
C894 C 0.43018 0.30718 0.8491 0.0
C895 C 0.47805 0.26602 0.84929 0.0
C896 C 0.29008 0.37259 0.40746 0.0
C897 C 0.30245 0.34583 0.38806 0.0
C898 C 0.26943 0.43157 0.40867 0.0
C899 C 0.26186 0.46641 0.39057 0.0
H900 H 0.29487 0.34731 0.42173 0.0
H901 H 0.25997 0.45019 0.42389 0.0
S902 S 0.28972 0.41731 0.33604 0.0
N903 N 0.30589 0.3589 0.35044 0.0
N904 N 0.26943 0.46929 0.35268 0.0
C905 C 0.27522 0.44022 0.37116 0.0
C906 C 0.29486 0.38016 0.36992 0.0
C907 C 0.6011 0.25964 0.4056 0.0
C908 C 0.56914 0.24651 0.38726 0.0
C909 C 0.65929 0.28274 0.40473 0.0
C910 C 0.68826 0.29237 0.38551 0.0
H911 H 0.58087 0.25252 0.42075 0.0
H912 H 0.68229 0.29168 0.41922 0.0
S913 S 0.62435 0.26685 0.333 0.0
N914 N 0.57116 0.24658 0.34927 0.0
N915 N 0.68028 0.28826 0.34777 0.0
C916 C 0.65691 0.27951 0.36712 0.0
C917 C 0.59752 0.25708 0.36796 0.0
C918 C 0.7766 0.66039 0.3705 0.0
C919 C 0.74804 0.68719 0.38764 0.0
C920 C 0.79971 0.60288 0.37182 0.0
C921 C 0.79626 0.56976 0.39043 0.0
H922 H 0.78091 0.68393 0.35582 0.0
H923 H 0.82075 0.58437 0.35808 0.0
S924 S 0.7277 0.62003 0.44011 0.0
N925 N 0.71848 0.67639 0.42398 0.0
N926 N 0.76263 0.56853 0.42655 0.0
C927 C 0.76848 0.59618 0.4078 0.0
C928 C 0.7441 0.65466 0.40637 0.0
C929 C 0.44212 0.75769 0.40578 0.0
C930 C 0.46662 0.79344 0.3899 0.0
C931 C 0.38409 0.73469 0.40418 0.0
C932 C 0.34793 0.74752 0.38682 0.0
H933 H 0.46852 0.7461 0.41928 0.0
H934 H 0.36737 0.70701 0.41671 0.0
S935 S 0.39056 0.84271 0.34166 0.0
N936 N 0.44985 0.8424 0.3567 0.0
N937 N 0.34115 0.8008 0.35375 0.0
C938 C 0.37181 0.78461 0.37109 0.0
C939 C 0.43097 0.8071 0.37262 0.0
C940 C 0.31075 0.65758 0.12304 0.0
C941 C 0.28757 0.69722 0.13801 0.0
C942 C 0.28894 0.59923 0.12124 0.0
C943 C 0.24399 0.57801 0.13459 0.0
H944 H 0.34609 0.67158 0.11265 0.0
H945 H 0.30859 0.57004 0.10974 0.0
S946 S 0.16396 0.66416 0.17491 0.0
N947 N 0.21309 0.71115 0.1653 0.0
N948 N 0.1747 0.60142 0.1623 0.0
C949 C 0.21975 0.6171 0.14928 0.0
C950 C 0.24081 0.67665 0.15088 0.0
C951 C 0.43731 0.24483 0.1541 0.0
C952 C 0.46885 0.24379 0.13508 0.0
C953 C 0.38006 0.26887 0.15546 0.0
C954 C 0.3521 0.29401 0.13795 0.0
H955 H 0.45679 0.22651 0.16812 0.0
H956 H 0.35761 0.26795 0.17043 0.0
S957 S 0.41462 0.30161 0.08431 0.0
N958 N 0.46703 0.26923 0.09817 0.0
N959 N 0.35993 0.31523 0.10081 0.0
C960 C 0.38306 0.29345 0.11881 0.0
C961 C 0.44114 0.26806 0.11735 0.0
C962 C 0.7322 0.43941 0.10967 0.0
C963 C 0.78547 0.46338 0.11753 0.0
C964 C 0.71373 0.38165 0.11475 0.0
C965 C 0.74748 0.34532 0.12804 0.0
H966 H 0.70385 0.46569 0.09968 0.0
H967 H 0.67215 0.36572 0.10841 0.0
S968 S 0.89265 0.38508 0.15174 0.0
N969 N 0.8733 0.44476 0.13852 0.0
N970 N 0.83867 0.33666 0.14813 0.0
C971 C 0.80153 0.36824 0.13569 0.0
C972 C 0.82051 0.42699 0.13041 0.0
C973 C 0.60654 0.8047 0.13355 0.0
C974 C 0.57265 0.7731 0.11882 0.0
C975 C 0.66484 0.78774 0.1385 0.0
C976 C 0.69223 0.73862 0.12886 0.0
H977 H 0.58756 0.84226 0.14168 0.0
H978 H 0.68846 0.81346 0.15009 0.0
S979 S 0.62411 0.6436 0.08797 0.0
N980 N 0.57191 0.69196 0.09387 0.0
N981 N 0.68107 0.6605 0.10296 0.0
C982 C 0.65923 0.7076 0.11369 0.0
C983 C 0.59972 0.7247 0.10874 0.0
C984 C 0.26352 0.28456 0.27904 0.0
C985 C 0.27781 0.22404 0.27821 0.0
C986 C 0.23468 0.31246 0.26232 0.0
C987 C 0.21859 0.28083 0.24422 0.0
H988 H 0.27583 0.3108 0.29251 0.0
H989 H 0.2257 0.35948 0.2635 0.0
S990 S 0.23873 0.1188 0.23605 0.0
N991 N 0.27022 0.13214 0.2588 0.0
N992 N 0.21328 0.18328 0.22787 0.0
C993 C 0.23054 0.21943 0.2437 0.0
C994 C 0.2609 0.19144 0.26056 0.0
C995 C 0.82796 0.30072 0.26016 0.0
C996 C 0.81238 0.28405 0.28067 0.0
C997 C 0.79985 0.2759 0.24269 0.0
C998 C 0.75481 0.23297 0.2449 0.0
H999 H 0.86186 0.33401 0.25749 0.0
H1000 H 0.81247 0.29216 0.22741 0.0
S1001 S 0.69733 0.17223 0.29494 0.0
N1002 N 0.7475 0.2216 0.30197 0.0
N1003 N 0.69734 0.17307 0.26921 0.0
C1004 C 0.73949 0.21485 0.26526 0.0
C1005 C 0.76759 0.24063 0.28309 0.0
C1006 C 0.73589 0.82097 0.26015 0.0
C1007 C 0.74674 0.80017 0.2805 0.0
C1008 C 0.7601 0.79282 0.2426 0.0
C1009 C 0.79653 0.74242 0.24454 0.0
H1010 H 0.70793 0.85932 0.2577 0.0
H1011 H 0.74845 0.81006 0.22739 0.0
S1012 S 0.83741 0.66855 0.29435 0.0
N1013 N 0.79472 0.72425 0.30153 0.0
N1014 N 0.84214 0.67283 0.26868 0.0
C1015 C 0.80796 0.72117 0.26485 0.0
C1016 C 0.78285 0.74967 0.28276 0.0
C1017 C 0.27138 0.79368 0.28254 0.0
C1018 C 0.22894 0.74835 0.2799 0.0
C1019 C 0.29785 0.82193 0.26534 0.0
C1020 C 0.2834 0.80615 0.24469 0.0
H1021 H 0.28594 0.80653 0.29797 0.0
H1022 H 0.33051 0.85618 0.26831 0.0
S1023 S 0.17544 0.68931 0.22926 0.0
N1024 N 0.17294 0.68968 0.25497 0.0
N1025 N 0.22469 0.7403 0.22272 0.0
C1026 C 0.24096 0.76085 0.2418 0.0
C1027 C 0.21347 0.73256 0.25936 0.0
C1028 C 0.73294 0.80221 0.76478 0.0
C1029 C 0.71779 0.77234 0.7462 0.0
C1030 C 0.7606 0.77273 0.78142 0.0
C1031 C 0.77466 0.71216 0.78014 0.0
H1032 H 0.72375 0.84906 0.76646 0.0
H1033 H 0.77181 0.79781 0.79528 0.0
S1034 S 0.73913 0.61128 0.73624 0.0
N1035 N 0.71435 0.67654 0.72859 0.0
N1036 N 0.76867 0.62231 0.75946 0.0
C1037 C 0.7593 0.68142 0.76186 0.0
C1038 C 0.73024 0.71111 0.74502 0.0
C1039 C 0.26862 0.75134 0.78229 0.0
C1040 C 0.312 0.79604 0.77989 0.0
C1041 C 0.24084 0.7253 0.76499 0.0
C1042 C 0.25464 0.74273 0.74444 0.0
H1043 H 0.25437 0.73703 0.79763 0.0
H1044 H 0.20778 0.69127 0.76783 0.0
S1045 S 0.36287 0.86003 0.72937 0.0
N1046 N 0.36702 0.85688 0.75505 0.0
N1047 N 0.31268 0.81022 0.72275 0.0
C1048 C 0.2974 0.78786 0.74173 0.0
C1049 C 0.32633 0.81396 0.75937 0.0
C1050 C 0.21701 0.28902 0.76322 0.0
C1051 C 0.24736 0.32127 0.77871 0.0
C1052 C 0.2476 0.26248 0.74657 0.0
C1053 C 0.30953 0.26723 0.7449 0.0
H1054 H 0.16941 0.28297 0.76425 0.0
H1055 H 0.22289 0.2369 0.73522 0.0
S1056 S 0.40887 0.35463 0.77902 0.0
N1057 N 0.34238 0.36267 0.78954 0.0
N1058 N 0.39967 0.31077 0.75866 0.0
C1059 C 0.34021 0.30107 0.7597 0.0
C1060 C 0.30918 0.3287 0.7765 0.0
C1061 C 0.72413 0.2475 0.75867 0.0
C1062 C 0.73537 0.26541 0.77934 0.0
C1063 C 0.75081 0.27599 0.74162 0.0
C1064 C 0.78986 0.32413 0.74442 0.0
H1065 H 0.69501 0.21029 0.75556 0.0
H1066 H 0.74202 0.25851 0.72621 0.0
S1067 S 0.83355 0.39044 0.79512 0.0
N1068 N 0.78903 0.33512 0.80151 0.0
N1069 N 0.83676 0.39016 0.7694 0.0
C1070 C 0.80057 0.34359 0.76493 0.0
C1071 C 0.77384 0.31413 0.78238 0.0
C1072 C 0.06914 0.50342 0.14732 0.0
C1073 C 0.0576 0.46942 0.12952 0.0
C1074 C 0.04229 0.55853 0.15017 0.0
C1075 C 1.00339 0.58255 0.13524 0.0
H1076 H 0.0966 0.48599 0.15973 0.0
H1077 H 0.05151 0.58233 0.16448 0.0
S1078 S 0.96158 0.51181 0.08522 0.0
N1079 N 1.00512 0.46277 0.09661 0.0
N1080 N 0.958 0.56905 0.10127 0.0
C1081 C 0.9926 0.54959 0.11707 0.0
C1082 C 0.01896 0.49239 0.11439 0.0
C1083 C 0.50553 0.96727 0.14411 0.0
C1084 C 0.46452 0.98971 0.1298 0.0
C1085 C 0.56282 0.9906 0.14525 0.0
C1086 C 0.58203 0.03682 0.13195 0.0
H1087 H 0.49218 0.93411 0.15545 0.0
H1088 H 0.59174 0.97332 0.15728 0.0
S1089 S 0.49476 0.10088 0.08854 0.0
N1090 N 0.44791 0.05551 0.10042 0.0
N1091 N 0.55806 0.09566 0.10138 0.0
C1092 C 0.54282 0.05616 0.1164 0.0
C1093 C 0.48346 0.03347 0.11563 0.0
C1094 C 1.00228 0.55535 0.40932 0.0
C1095 C 0.0508 0.56878 0.39611 0.0
C1096 C 0.97633 0.49841 0.40965 0.0
C1097 C 0.99715 0.45363 0.39636 0.0
H1098 H 0.98315 0.58971 0.41901 0.0
H1099 H 0.93988 0.48955 0.42024 0.0
S1100 S 0.11921 0.46754 0.35754 0.0
N1101 N 0.11654 0.53301 0.36894 0.0
N1102 N 0.06757 0.42716 0.36907 0.0
C1103 C 0.04561 0.46664 0.38313 0.0
C1104 C 0.07252 0.52389 0.38312 0.0
C1105 C 0.53828 0.9651 0.37867 0.0
C1106 C 0.57595 0.98327 0.39476 0.0
C1107 C 0.48237 0.99041 0.37619 0.0
C1108 C 0.46105 0.03465 0.38982 0.0
H1109 H 0.55336 0.93365 0.36707 0.0
H1110 H 0.45599 0.9758 0.36303 0.0
S1111 S 0.53986 0.09118 0.43643 0.0
N1112 N 0.58765 0.0453 0.42543 0.0
N1113 N 0.47978 0.08955 0.42171 0.0
C1114 C 0.49707 0.05102 0.4067 0.0
C1115 C 0.55517 0.02611 0.40893 0.0
C1116 C 0.02302 0.46664 0.88311 0.0
C1117 C 0.06786 0.48802 0.89621 0.0
C1118 C 0.9665 0.49223 0.88323 0.0
C1119 C 0.95219 0.53999 0.89655 0.0
H1120 H 0.03263 0.43237 0.87176 0.0
H1121 H 0.93391 0.47511 0.87237 0.0
S1122 S 0.05206 0.6062 0.93597 0.0
N1123 N 0.09384 0.55695 0.92381 0.0
N1124 N 0.98582 0.60196 0.92507 0.0
C1125 C 0.99571 0.5595 0.91054 0.0
C1126 C 0.05396 0.53428 0.9101 0.0
C1127 C 0.56806 0.02078 0.8816 0.0
C1128 C 0.54649 0.06809 0.89349 0.0
C1129 C 0.54259 0.96436 0.88324 0.0
C1130 C 0.49442 0.95293 0.89681 0.0
H1131 H 0.60185 0.0283 0.86983 0.0
H1132 H 0.5595 0.92978 0.87312 0.0
S1133 S 0.42724 0.06062 0.93337 0.0
N1134 N 0.47727 0.09969 0.92035 0.0
N1135 N 0.43143 0.9923 0.92419 0.0
C1136 C 0.47471 0.99911 0.90966 0.0
C1137 C 0.50025 0.05703 0.90778 0.0
C1138 C 0.06387 0.49627 0.64285 0.0
C1139 C 0.08088 0.54427 0.62996 0.0
C1140 C 1.00737 0.47084 0.64166 0.0
C1141 C 0.96521 0.49251 0.62761 0.0
H1142 H 0.09411 0.47897 0.65447 0.0
H1143 H 0.99551 0.4366 0.65278 0.0
S1144 S 0.98902 0.61089 0.5883 0.0
N1145 N 0.05297 0.6066 0.60077 0.0
N1146 N 0.94484 0.5615 0.59943 0.0
C1147 C 0.98192 0.53877 0.61405 0.0
C1148 C 0.0402 0.56402 0.615 0.0
C1149 C 0.4905 0.97713 0.64355 0.0
C1150 C 0.53801 0.96148 0.63025 0.0
C1151 C 0.46598 0.03399 0.64334 0.0
C1152 C 0.48802 0.07777 0.62989 0.0
H1153 H 0.47312 0.94559 0.65479 0.0
H1154 H 0.43233 0.04478 0.65482 0.0
S1155 S 0.6053 0.05816 0.58986 0.0
N1156 N 0.60019 0.9926 0.60129 0.0
N1157 N 0.55685 0.10129 0.60184 0.0
C1158 C 0.53374 0.06248 0.61592 0.0
C1159 C 0.55804 1.00389 0.61585 0.0
loop_
_geom_bond_atom_site_label_1
_geom_bond_atom_site_label_2
_geom_bond_distance
_geom_bond_site_symmetry_2
_ccdc_geom_bond_type
Zn0 N4 2.020 . S
Zn0 O8 2.019 . S
Zn0 N10 2.119 . S
Zn0 O18 1.975 . S
C1 N2 1.334 . S
C1 N5 1.336 . S
N2 C1 1.334 . S
N2 C3 1.334 . S
C3 N2 1.334 . S
C3 N4 1.336 . S
N4 Zn0 2.020 . S
N4 C3 1.336 . S
N4 N5 1.354 . S
N5 C1 1.336 . S
N5 N4 1.354 . S
N5 Zn9 2.020 . S
C6 O7 1.244 . S
C6 O30 1.257 . S
O7 C6 1.244 . S
O8 Zn0 2.019 . S
O8 C28 1.257 . S
Zn9 N5 2.020 . S
Zn9 O16 1.975 . S
Zn9 N25 2.119 . S
Zn9 O30 2.019 . S
N10 Zn0 2.119 . S
N10 C12 1.334 . S
N10 C13 1.328 . S
C11 C12 1.391 . S
C11 N14 1.329 . S
C11 H32 0.930 . S
C12 N10 1.334 . S
C12 C11 1.391 . S
C12 H19 0.930 . S
C13 N10 1.328 . S
C13 C15 1.392 . S
C13 H20 0.930 . S
N14 C11 1.329 . S
N14 C15 1.331 . S
C15 C13 1.392 . S
C15 N14 1.331 . S
O16 Zn9 1.975 . S
O16 C17 1.252 . S
C17 O16 1.252 . S
C17 O18 1.252 . S
O18 Zn0 1.975 . S
O18 C17 1.252 . S
H19 C12 0.930 . S
H20 C13 0.930 . S
C21 C22 1.392 . S
C21 N25 1.328 . S
C21 H27 0.930 . S
C22 C21 1.392 . S
C22 N26 1.331 . S
C23 C24 1.391 . S
C23 N26 1.329 . S
C23 H33 0.930 . S
C24 C23 1.391 . S
C24 N25 1.334 . S
C24 H31 0.930 . S
N25 Zn9 2.119 . S
N25 C21 1.328 . S
N25 C24 1.334 . S
N26 C22 1.331 . S
N26 C23 1.329 . S
H27 C21 0.930 . S
C28 O8 1.257 . S
C28 O29 1.244 . S
O29 C28 1.244 . S
O30 C6 1.257 . S
O30 Zn9 2.019 . S
H31 C24 0.930 . S
H32 C11 0.930 . S
H33 C23 0.930 . S
Zn34 N38 2.020 . S
Zn34 O42 2.019 . S
Zn34 N44 2.119 . S
Zn34 O52 1.975 . S
C35 N36 1.334 . S
C35 N39 1.336 . S
N36 C35 1.334 . S
N36 C37 1.334 . S
C37 N36 1.334 . S
C37 N38 1.336 . S
N38 Zn34 2.020 . S
N38 C37 1.336 . S
N38 N39 1.354 . S
N39 C35 1.336 . S
N39 N38 1.354 . S
N39 Zn43 2.020 . S
C40 O41 1.244 . S
C40 O64 1.257 . S
O41 C40 1.244 . S
O42 Zn34 2.019 . S
O42 C62 1.257 . S
Zn43 N39 2.020 . S
Zn43 O50 1.975 . S
Zn43 N59 2.119 . S
Zn43 O64 2.019 . S
N44 Zn34 2.119 . S
N44 C46 1.334 . S
N44 C47 1.328 . S
C45 C46 1.391 . S
C45 N48 1.329 . S
C45 H66 0.930 . S
C46 N44 1.334 . S
C46 C45 1.391 . S
C46 H53 0.930 . S
C47 N44 1.328 . S
C47 C49 1.392 . S
C47 H54 0.930 . S
N48 C45 1.329 . S
N48 C49 1.331 . S
C49 C47 1.392 . S
C49 N48 1.331 . S
O50 Zn43 1.975 . S
O50 C51 1.252 . S
C51 O50 1.252 . S
C51 O52 1.252 . S
O52 Zn34 1.975 . S
O52 C51 1.252 . S
H53 C46 0.930 . S
H54 C47 0.930 . S
C55 C56 1.392 . S
C55 N59 1.328 . S
C55 H61 0.930 . S
C56 C55 1.392 . S
C56 N60 1.331 . S
C57 C58 1.391 . S
C57 N60 1.329 . S
C57 H67 0.930 . S
C58 C57 1.391 . S
C58 N59 1.334 . S
C58 H65 0.930 . S
N59 Zn43 2.119 . S
N59 C55 1.328 . S
N59 C58 1.334 . S
N60 C56 1.331 . S
N60 C57 1.329 . S
H61 C55 0.930 . S
C62 O42 1.257 . S
C62 O63 1.244 . S
O63 C62 1.244 . S
O64 C40 1.257 . S
O64 Zn43 2.019 . S
H65 C58 0.930 . S
H66 C45 0.930 . S
H67 C57 0.930 . S
Zn68 N72 2.020 . S
Zn68 O76 2.019 . S
Zn68 N78 2.119 . S
Zn68 O86 1.975 . S
C69 N70 1.334 . S
C69 N73 1.336 . S
N70 C69 1.334 . S
N70 C71 1.334 . S
C71 N70 1.334 . S
C71 N72 1.336 . S
N72 Zn68 2.020 . S
N72 C71 1.336 . S
N72 N73 1.354 . S
N73 C69 1.336 . S
N73 N72 1.354 . S
N73 Zn77 2.020 . S
C74 O75 1.244 . S
C74 O98 1.257 . S
O75 C74 1.244 . S
O76 Zn68 2.019 . S
O76 C96 1.257 . S
Zn77 N73 2.020 . S
Zn77 O84 1.975 . S
Zn77 N93 2.119 . S
Zn77 O98 2.019 . S
N78 Zn68 2.119 . S
N78 C80 1.334 . S
N78 C81 1.328 . S
C79 C80 1.391 . S
C79 N82 1.329 . S
C79 H100 0.930 . S
C80 N78 1.334 . S
C80 C79 1.391 . S
C80 H87 0.930 . S
C81 N78 1.328 . S
C81 C83 1.392 . S
C81 H88 0.930 . S
N82 C79 1.329 . S
N82 C83 1.331 . S
C83 C81 1.392 . S
C83 N82 1.331 . S
O84 Zn77 1.975 . S
O84 C85 1.252 . S
C85 O84 1.252 . S
C85 O86 1.252 . S
O86 Zn68 1.975 . S
O86 C85 1.252 . S
H87 C80 0.930 . S
H88 C81 0.930 . S
C89 C90 1.392 . S
C89 N93 1.328 . S
C89 H95 0.930 . S
C90 C89 1.392 . S
C90 N94 1.331 . S
C91 C92 1.391 . S
C91 N94 1.329 . S
C91 H101 0.930 . S
C92 C91 1.391 . S
C92 N93 1.334 . S
C92 H99 0.930 . S
N93 Zn77 2.119 . S
N93 C89 1.328 . S
N93 C92 1.334 . S
N94 C90 1.331 . S
N94 C91 1.329 . S
H95 C89 0.930 . S
C96 O76 1.257 . S
C96 O97 1.244 . S
O97 C96 1.244 . S
O98 C74 1.257 . S
O98 Zn77 2.019 . S
H99 C92 0.930 . S
H100 C79 0.930 . S
H101 C91 0.930 . S
Zn102 N106 2.020 . S
Zn102 O110 2.019 . S
Zn102 N112 2.119 . S
Zn102 O120 1.975 . S
C103 N104 1.334 . S
C103 N107 1.336 . S
N104 C103 1.334 . S
N104 C105 1.334 . S
C105 N104 1.334 . S
C105 N106 1.336 . S
N106 Zn102 2.020 . S
N106 C105 1.336 . S
N106 N107 1.354 . S
N107 C103 1.336 . S
N107 N106 1.354 . S
N107 Zn111 2.020 . S
C108 O109 1.244 . S
C108 O132 1.257 . S
O109 C108 1.244 . S
O110 Zn102 2.019 . S
O110 C130 1.257 . S
Zn111 N107 2.020 . S
Zn111 O118 1.975 . S
Zn111 N127 2.119 . S
Zn111 O132 2.019 . S
N112 Zn102 2.119 . S
N112 C114 1.334 . S
N112 C115 1.328 . S
C113 C114 1.391 . S
C113 N116 1.329 . S
C113 H134 0.930 . S
C114 N112 1.334 . S
C114 C113 1.391 . S
C114 H121 0.930 . S
C115 N112 1.328 . S
C115 C117 1.392 . S
C115 H122 0.930 . S
N116 C113 1.329 . S
N116 C117 1.331 . S
C117 C115 1.392 . S
C117 N116 1.331 . S
O118 Zn111 1.975 . S
O118 C119 1.252 . S
C119 O118 1.252 . S
C119 O120 1.252 . S
O120 Zn102 1.975 . S
O120 C119 1.252 . S
H121 C114 0.930 . S
H122 C115 0.930 . S
C123 C124 1.392 . S
C123 N127 1.328 . S
C123 H129 0.930 . S
C124 C123 1.392 . S
C124 N128 1.331 . S
C125 C126 1.391 . S
C125 N128 1.329 . S
C125 H135 0.930 . S
C126 C125 1.391 . S
C126 N127 1.334 . S
C126 H133 0.930 . S
N127 Zn111 2.119 . S
N127 C123 1.328 . S
N127 C126 1.334 . S
N128 C124 1.331 . S
N128 C125 1.329 . S
H129 C123 0.930 . S
C130 O110 1.257 . S
C130 O131 1.244 . S
O131 C130 1.244 . S
O132 C108 1.257 . S
O132 Zn111 2.019 . S
H133 C126 0.930 . S
H134 C113 0.930 . S
H135 C125 0.930 . S
Zn136 N140 2.020 . S
Zn136 O144 2.019 . S
Zn136 N146 2.119 . S
Zn136 O154 1.975 . S
C137 N138 1.334 . S
C137 N141 1.336 . S
N138 C137 1.334 . S
N138 C139 1.334 . S
C139 N138 1.334 . S
C139 N140 1.336 . S
N140 Zn136 2.020 . S
N140 C139 1.336 . S
N140 N141 1.354 . S
N141 C137 1.336 . S
N141 N140 1.354 . S
N141 Zn145 2.020 . S
C142 O143 1.244 . S
C142 O166 1.257 . S
O143 C142 1.244 . S
O144 Zn136 2.019 . S
O144 C164 1.257 . S
Zn145 N141 2.020 . S
Zn145 O152 1.975 . S
Zn145 N161 2.119 . S
Zn145 O166 2.019 . S
N146 Zn136 2.119 . S
N146 C148 1.334 . S
N146 C149 1.328 . S
C147 C148 1.391 . S
C147 N150 1.329 . S
C147 H168 0.930 . S
C148 N146 1.334 . S
C148 C147 1.391 . S
C148 H155 0.930 . S
C149 N146 1.328 . S
C149 C151 1.392 . S
C149 H156 0.930 . S
N150 C147 1.329 . S
N150 C151 1.331 . S
C151 C149 1.392 . S
C151 N150 1.331 . S
O152 Zn145 1.975 . S
O152 C153 1.252 . S
C153 O152 1.252 . S
C153 O154 1.252 . S
O154 Zn136 1.975 . S
O154 C153 1.252 . S
H155 C148 0.930 . S
H156 C149 0.930 . S
C157 C158 1.392 . S
C157 N161 1.328 . S
C157 H163 0.930 . S
C158 C157 1.392 . S
C158 N162 1.331 . S
C159 C160 1.391 . S
C159 N162 1.329 . S
C159 H169 0.930 . S
C160 C159 1.391 . S
C160 N161 1.334 . S
C160 H167 0.930 . S
N161 Zn145 2.119 . S
N161 C157 1.328 . S
N161 C160 1.334 . S
N162 C158 1.331 . S
N162 C159 1.329 . S
H163 C157 0.930 . S
C164 O144 1.257 . S
C164 O165 1.244 . S
O165 C164 1.244 . S
O166 C142 1.257 . S
O166 Zn145 2.019 . S
H167 C160 0.930 . S
H168 C147 0.930 . S
H169 C159 0.930 . S
Zn170 N174 2.020 . S
Zn170 O178 2.019 . S
Zn170 N180 2.119 . S
Zn170 O188 1.975 . S
C171 N172 1.334 . S
C171 N175 1.336 . S
N172 C171 1.334 . S
N172 C173 1.334 . S
C173 N172 1.334 . S
C173 N174 1.336 . S
N174 Zn170 2.020 . S
N174 C173 1.336 . S
N174 N175 1.354 . S
N175 C171 1.336 . S
N175 N174 1.354 . S
N175 Zn179 2.020 . S
C176 O177 1.244 . S
C176 O200 1.257 . S
O177 C176 1.244 . S
O178 Zn170 2.019 . S
O178 C198 1.257 . S
Zn179 N175 2.020 . S
Zn179 O186 1.975 . S
Zn179 N195 2.119 . S
Zn179 O200 2.019 . S
N180 Zn170 2.119 . S
N180 C182 1.334 . S
N180 C183 1.328 . S
C181 C182 1.391 . S
C181 N184 1.329 . S
C181 H202 0.930 . S
C182 N180 1.334 . S
C182 C181 1.391 . S
C182 H189 0.930 . S
C183 N180 1.328 . S
C183 C185 1.392 . S
C183 H190 0.930 . S
N184 C181 1.329 . S
N184 C185 1.331 . S
C185 C183 1.392 . S
C185 N184 1.331 . S
O186 Zn179 1.975 . S
O186 C187 1.252 . S
C187 O186 1.252 . S
C187 O188 1.252 . S
O188 Zn170 1.975 . S
O188 C187 1.252 . S
H189 C182 0.930 . S
H190 C183 0.930 . S
C191 C192 1.392 . S
C191 N195 1.328 . S
C191 H197 0.930 . S
C192 C191 1.392 . S
C192 N196 1.331 . S
C193 C194 1.391 . S
C193 N196 1.329 . S
C193 H203 0.930 . S
C194 C193 1.391 . S
C194 N195 1.334 . S
C194 H201 0.930 . S
N195 Zn179 2.119 . S
N195 C191 1.328 . S
N195 C194 1.334 . S
N196 C192 1.331 . S
N196 C193 1.329 . S
H197 C191 0.930 . S
C198 O178 1.257 . S
C198 O199 1.244 . S
O199 C198 1.244 . S
O200 C176 1.257 . S
O200 Zn179 2.019 . S
H201 C194 0.930 . S
H202 C181 0.930 . S
H203 C193 0.930 . S
Zn204 N208 2.020 . S
Zn204 O212 2.019 . S
Zn204 N214 2.119 . S
Zn204 O222 1.975 . S
C205 N206 1.334 . S
C205 N209 1.336 . S
N206 C205 1.334 . S
N206 C207 1.334 . S
C207 N206 1.334 . S
C207 N208 1.336 . S
N208 Zn204 2.020 . S
N208 C207 1.336 . S
N208 N209 1.354 . S
N209 C205 1.336 . S
N209 N208 1.354 . S
N209 Zn213 2.020 . S
C210 O211 1.244 . S
C210 O234 1.257 . S
O211 C210 1.244 . S
O212 Zn204 2.019 . S
O212 C232 1.257 . S
Zn213 N209 2.020 . S
Zn213 O220 1.975 . S
Zn213 N229 2.119 . S
Zn213 O234 2.019 . S
N214 Zn204 2.119 . S
N214 C216 1.334 . S
N214 C217 1.328 . S
C215 C216 1.391 . S
C215 N218 1.329 . S
C215 H236 0.930 . S
C216 N214 1.334 . S
C216 C215 1.391 . S
C216 H223 0.930 . S
C217 N214 1.328 . S
C217 C219 1.392 . S
C217 H224 0.930 . S
N218 C215 1.329 . S
N218 C219 1.331 . S
C219 C217 1.392 . S
C219 N218 1.331 . S
O220 Zn213 1.975 . S
O220 C221 1.252 . S
C221 O220 1.252 . S
C221 O222 1.252 . S
O222 Zn204 1.975 . S
O222 C221 1.252 . S
H223 C216 0.930 . S
H224 C217 0.930 . S
C225 C226 1.392 . S
C225 N229 1.328 . S
C225 H231 0.930 . S
C226 C225 1.392 . S
C226 N230 1.331 . S
C227 C228 1.391 . S
C227 N230 1.329 . S
C227 H237 0.930 . S
C228 C227 1.391 . S
C228 N229 1.334 . S
C228 H235 0.930 . S
N229 Zn213 2.119 . S
N229 C225 1.328 . S
N229 C228 1.334 . S
N230 C226 1.331 . S
N230 C227 1.329 . S
H231 C225 0.930 . S
C232 O212 1.257 . S
C232 O233 1.244 . S
O233 C232 1.244 . S
O234 C210 1.257 . S
O234 Zn213 2.019 . S
H235 C228 0.930 . S
H236 C215 0.930 . S
H237 C227 0.930 . S
Zn238 N242 2.020 . S
Zn238 O246 2.019 . S
Zn238 N248 2.119 . S
Zn238 O256 1.975 . S
C239 N240 1.334 . S
C239 N243 1.336 . S
N240 C239 1.334 . S
N240 C241 1.334 . S
C241 N240 1.334 . S
C241 N242 1.336 . S
N242 Zn238 2.020 . S
N242 C241 1.336 . S
N242 N243 1.354 . S
N243 C239 1.336 . S
N243 N242 1.354 . S
N243 Zn247 2.020 . S
C244 O245 1.244 . S
C244 O268 1.257 . S
O245 C244 1.244 . S
O246 Zn238 2.019 . S
O246 C266 1.257 . S
Zn247 N243 2.020 . S
Zn247 O254 1.975 . S
Zn247 N263 2.119 . S
Zn247 O268 2.019 . S
N248 Zn238 2.119 . S
N248 C250 1.334 . S
N248 C251 1.328 . S
C249 C250 1.391 . S
C249 N252 1.329 . S
C249 H270 0.930 . S
C250 N248 1.334 . S
C250 C249 1.391 . S
C250 H257 0.930 . S
C251 N248 1.328 . S
C251 C253 1.392 . S
C251 H258 0.930 . S
N252 C249 1.329 . S
N252 C253 1.331 . S
C253 C251 1.392 . S
C253 N252 1.331 . S
O254 Zn247 1.975 . S
O254 C255 1.252 . S
C255 O254 1.252 . S
C255 O256 1.252 . S
O256 Zn238 1.975 . S
O256 C255 1.252 . S
H257 C250 0.930 . S
H258 C251 0.930 . S
C259 C260 1.392 . S
C259 N263 1.328 . S
C259 H265 0.930 . S
C260 C259 1.392 . S
C260 N264 1.331 . S
C261 C262 1.391 . S
C261 N264 1.329 . S
C261 H271 0.930 . S
C262 C261 1.391 . S
C262 N263 1.334 . S
C262 H269 0.930 . S
N263 Zn247 2.119 . S
N263 C259 1.328 . S
N263 C262 1.334 . S
N264 C260 1.331 . S
N264 C261 1.329 . S
H265 C259 0.930 . S
C266 O246 1.257 . S
C266 O267 1.244 . S
O267 C266 1.244 . S
O268 C244 1.257 . S
O268 Zn247 2.019 . S
H269 C262 0.930 . S
H270 C249 0.930 . S
H271 C261 0.930 . S
Zn272 N276 2.020 . S
Zn272 O280 2.019 . S
Zn272 N282 2.119 . S
Zn272 O290 1.975 . S
C273 N274 1.334 . S
C273 N277 1.336 . S
N274 C273 1.334 . S
N274 C275 1.334 . S
C275 N274 1.334 . S
C275 N276 1.336 . S
N276 Zn272 2.020 . S
N276 C275 1.336 . S
N276 N277 1.354 . S
N277 C273 1.336 . S
N277 N276 1.354 . S
N277 Zn281 2.020 . S
C278 O279 1.244 . S
C278 O302 1.257 . S
O279 C278 1.244 . S
O280 Zn272 2.019 . S
O280 C300 1.257 . S
Zn281 N277 2.020 . S
Zn281 O288 1.975 . S
Zn281 N297 2.119 . S
Zn281 O302 2.019 . S
N282 Zn272 2.119 . S
N282 C284 1.334 . S
N282 C285 1.328 . S
C283 C284 1.391 . S
C283 N286 1.329 . S
C283 H304 0.930 . S
C284 N282 1.334 . S
C284 C283 1.391 . S
C284 H291 0.930 . S
C285 N282 1.328 . S
C285 C287 1.392 . S
C285 H292 0.930 . S
N286 C283 1.329 . S
N286 C287 1.331 . S
C287 C285 1.392 . S
C287 N286 1.331 . S
O288 Zn281 1.975 . S
O288 C289 1.252 . S
C289 O288 1.252 . S
C289 O290 1.252 . S
O290 Zn272 1.975 . S
O290 C289 1.252 . S
H291 C284 0.930 . S
H292 C285 0.930 . S
C293 C294 1.392 . S
C293 N297 1.328 . S
C293 H299 0.930 . S
C294 C293 1.392 . S
C294 N298 1.331 . S
C295 C296 1.391 . S
C295 N298 1.329 . S
C295 H305 0.930 . S
C296 C295 1.391 . S
C296 N297 1.334 . S
C296 H303 0.930 . S
N297 Zn281 2.119 . S
N297 C293 1.328 . S
N297 C296 1.334 . S
N298 C294 1.331 . S
N298 C295 1.329 . S
H299 C293 0.930 . S
C300 O280 1.257 . S
C300 O301 1.244 . S
O301 C300 1.244 . S
O302 C278 1.257 . S
O302 Zn281 2.019 . S
H303 C296 0.930 . S
H304 C283 0.930 . S
H305 C295 0.930 . S
Zn306 N310 2.020 . S
Zn306 O314 2.019 . S
Zn306 N316 2.119 . S
Zn306 O324 1.975 . S
C307 N308 1.334 . S
C307 N311 1.336 . S
N308 C307 1.334 . S
N308 C309 1.334 . S
C309 N308 1.334 . S
C309 N310 1.336 . S
N310 Zn306 2.020 . S
N310 C309 1.336 . S
N310 N311 1.354 . S
N311 C307 1.336 . S
N311 N310 1.354 . S
N311 Zn315 2.020 . S
C312 O313 1.244 . S
C312 O336 1.257 . S
O313 C312 1.244 . S
O314 Zn306 2.019 . S
O314 C334 1.257 . S
Zn315 N311 2.020 . S
Zn315 O322 1.975 . S
Zn315 N331 2.119 . S
Zn315 O336 2.019 . S
N316 Zn306 2.119 . S
N316 C318 1.334 . S
N316 C319 1.328 . S
C317 C318 1.391 . S
C317 N320 1.329 . S
C317 H338 0.930 . S
C318 N316 1.334 . S
C318 C317 1.391 . S
C318 H325 0.930 . S
C319 N316 1.328 . S
C319 C321 1.392 . S
C319 H326 0.930 . S
N320 C317 1.329 . S
N320 C321 1.331 . S
C321 C319 1.392 . S
C321 N320 1.331 . S
O322 Zn315 1.975 . S
O322 C323 1.252 . S
C323 O322 1.252 . S
C323 O324 1.252 . S
O324 Zn306 1.975 . S
O324 C323 1.252 . S
H325 C318 0.930 . S
H326 C319 0.930 . S
C327 C328 1.392 . S
C327 N331 1.328 . S
C327 H333 0.930 . S
C328 C327 1.392 . S
C328 N332 1.331 . S
C329 C330 1.391 . S
C329 N332 1.329 . S
C329 H339 0.930 . S
C330 C329 1.391 . S
C330 N331 1.334 . S
C330 H337 0.930 . S
N331 Zn315 2.119 . S
N331 C327 1.328 . S
N331 C330 1.334 . S
N332 C328 1.331 . S
N332 C329 1.329 . S
H333 C327 0.930 . S
C334 O314 1.257 . S
C334 O335 1.244 . S
O335 C334 1.244 . S
O336 C312 1.257 . S
O336 Zn315 2.019 . S
H337 C330 0.930 . S
H338 C317 0.930 . S
H339 C329 0.930 . S
Zn340 N344 2.020 . S
Zn340 O348 2.019 . S
Zn340 N350 2.119 . S
Zn340 O358 1.975 . S
C341 N342 1.334 . S
C341 N345 1.336 . S
N342 C341 1.334 . S
N342 C343 1.334 . S
C343 N342 1.334 . S
C343 N344 1.336 . S
N344 Zn340 2.020 . S
N344 C343 1.336 . S
N344 N345 1.354 . S
N345 C341 1.336 . S
N345 N344 1.354 . S
N345 Zn349 2.020 . S
C346 O347 1.244 . S
C346 O370 1.257 . S
O347 C346 1.244 . S
O348 Zn340 2.019 . S
O348 C368 1.257 . S
Zn349 N345 2.020 . S
Zn349 O356 1.975 . S
Zn349 N365 2.119 . S
Zn349 O370 2.019 . S
N350 Zn340 2.119 . S
N350 C352 1.334 . S
N350 C353 1.328 . S
C351 C352 1.391 . S
C351 N354 1.329 . S
C351 H372 0.930 . S
C352 N350 1.334 . S
C352 C351 1.391 . S
C352 H359 0.930 . S
C353 N350 1.328 . S
C353 C355 1.392 . S
C353 H360 0.930 . S
N354 C351 1.329 . S
N354 C355 1.331 . S
C355 C353 1.392 . S
C355 N354 1.331 . S
O356 Zn349 1.975 . S
O356 C357 1.252 . S
C357 O356 1.252 . S
C357 O358 1.252 . S
O358 Zn340 1.975 . S
O358 C357 1.252 . S
H359 C352 0.930 . S
H360 C353 0.930 . S
C361 C362 1.392 . S
C361 N365 1.328 . S
C361 H367 0.930 . S
C362 C361 1.392 . S
C362 N366 1.331 . S
C363 C364 1.391 . S
C363 N366 1.329 . S
C363 H373 0.930 . S
C364 C363 1.391 . S
C364 N365 1.334 . S
C364 H371 0.930 . S
N365 Zn349 2.119 . S
N365 C361 1.328 . S
N365 C364 1.334 . S
N366 C362 1.331 . S
N366 C363 1.329 . S
H367 C361 0.930 . S
C368 O348 1.257 . S
C368 O369 1.244 . S
O369 C368 1.244 . S
O370 C346 1.257 . S
O370 Zn349 2.019 . S
H371 C364 0.930 . S
H372 C351 0.930 . S
H373 C363 0.930 . S
Zn374 N378 2.020 . S
Zn374 O382 2.019 . S
Zn374 N384 2.119 . S
Zn374 O392 1.975 . S
C375 N376 1.334 . S
C375 N379 1.336 . S
N376 C375 1.334 . S
N376 C377 1.334 . S
C377 N376 1.334 . S
C377 N378 1.336 . S
N378 Zn374 2.020 . S
N378 C377 1.336 . S
N378 N379 1.354 . S
N379 C375 1.336 . S
N379 N378 1.354 . S
N379 Zn383 2.020 . S
C380 O381 1.244 . S
C380 O404 1.257 . S
O381 C380 1.244 . S
O382 Zn374 2.019 . S
O382 C402 1.257 . S
Zn383 N379 2.020 . S
Zn383 O390 1.975 . S
Zn383 N399 2.119 . S
Zn383 O404 2.019 . S
N384 Zn374 2.119 . S
N384 C386 1.334 . S
N384 C387 1.328 . S
C385 C386 1.391 . S
C385 N388 1.329 . S
C385 H406 0.930 . S
C386 N384 1.334 . S
C386 C385 1.391 . S
C386 H393 0.930 . S
C387 N384 1.328 . S
C387 C389 1.392 . S
C387 H394 0.930 . S
N388 C385 1.329 . S
N388 C389 1.331 . S
C389 C387 1.392 . S
C389 N388 1.331 . S
O390 Zn383 1.975 . S
O390 C391 1.252 . S
C391 O390 1.252 . S
C391 O392 1.252 . S
O392 Zn374 1.975 . S
O392 C391 1.252 . S
H393 C386 0.930 . S
H394 C387 0.930 . S
C395 C396 1.392 . S
C395 N399 1.328 . S
C395 H401 0.930 . S
C396 C395 1.392 . S
C396 N400 1.331 . S
C397 C398 1.391 . S
C397 N400 1.329 . S
C397 H407 0.930 . S
C398 C397 1.391 . S
C398 N399 1.334 . S
C398 H405 0.930 . S
N399 Zn383 2.119 . S
N399 C395 1.328 . S
N399 C398 1.334 . S
N400 C396 1.331 . S
N400 C397 1.329 . S
H401 C395 0.930 . S
C402 O382 1.257 . S
C402 O403 1.244 . S
O403 C402 1.244 . S
O404 C380 1.257 . S
O404 Zn383 2.019 . S
H405 C398 0.930 . S
H406 C385 0.930 . S
H407 C397 0.930 . S
Zn408 N412 2.020 . S
Zn408 O416 2.019 . S
Zn408 N418 2.119 . S
Zn408 O426 1.975 . S
C409 N410 1.334 . S
C409 N413 1.336 . S
N410 C409 1.334 . S
N410 C411 1.334 . S
C411 N410 1.334 . S
C411 N412 1.336 . S
N412 Zn408 2.020 . S
N412 C411 1.336 . S
N412 N413 1.354 . S
N413 C409 1.336 . S
N413 N412 1.354 . S
N413 Zn417 2.020 . S
C414 O415 1.244 . S
C414 O438 1.257 . S
O415 C414 1.244 . S
O416 Zn408 2.019 . S
O416 C436 1.257 . S
Zn417 N413 2.020 . S
Zn417 O424 1.975 . S
Zn417 N433 2.119 . S
Zn417 O438 2.019 . S
N418 Zn408 2.119 . S
N418 C420 1.334 . S
N418 C421 1.328 . S
C419 C420 1.391 . S
C419 N422 1.329 . S
C419 H440 0.930 . S
C420 N418 1.334 . S
C420 C419 1.391 . S
C420 H427 0.930 . S
C421 N418 1.328 . S
C421 C423 1.392 . S
C421 H428 0.930 . S
N422 C419 1.329 . S
N422 C423 1.331 . S
C423 C421 1.392 . S
C423 N422 1.331 . S
O424 Zn417 1.975 . S
O424 C425 1.252 . S
C425 O424 1.252 . S
C425 O426 1.252 . S
O426 Zn408 1.975 . S
O426 C425 1.252 . S
H427 C420 0.930 . S
H428 C421 0.930 . S
C429 C430 1.392 . S
C429 N433 1.328 . S
C429 H435 0.930 . S
C430 C429 1.392 . S
C430 N434 1.331 . S
C431 C432 1.391 . S
C431 N434 1.329 . S
C431 H441 0.930 . S
C432 C431 1.391 . S
C432 N433 1.334 . S
C432 H439 0.930 . S
N433 Zn417 2.119 . S
N433 C429 1.328 . S
N433 C432 1.334 . S
N434 C430 1.331 . S
N434 C431 1.329 . S
H435 C429 0.930 . S
C436 O416 1.257 . S
C436 O437 1.244 . S
O437 C436 1.244 . S
O438 C414 1.257 . S
O438 Zn417 2.019 . S
H439 C432 0.930 . S
H440 C419 0.930 . S
H441 C431 0.930 . S
Zn442 N446 2.020 . S
Zn442 O450 2.019 . S
Zn442 N452 2.119 . S
Zn442 O460 1.975 . S
C443 N444 1.334 . S
C443 N447 1.336 . S
N444 C443 1.334 . S
N444 C445 1.334 . S
C445 N444 1.334 . S
C445 N446 1.336 . S
N446 Zn442 2.020 . S
N446 C445 1.336 . S
N446 N447 1.354 . S
N447 C443 1.336 . S
N447 N446 1.354 . S
N447 Zn451 2.020 . S
C448 O449 1.244 . S
C448 O472 1.257 . S
O449 C448 1.244 . S
O450 Zn442 2.019 . S
O450 C470 1.257 . S
Zn451 N447 2.020 . S
Zn451 O458 1.975 . S
Zn451 N467 2.119 . S
Zn451 O472 2.019 . S
N452 Zn442 2.119 . S
N452 C454 1.334 . S
N452 C455 1.328 . S
C453 C454 1.391 . S
C453 N456 1.329 . S
C453 H474 0.930 . S
C454 N452 1.334 . S
C454 C453 1.391 . S
C454 H461 0.930 . S
C455 N452 1.328 . S
C455 C457 1.392 . S
C455 H462 0.930 . S
N456 C453 1.329 . S
N456 C457 1.331 . S
C457 C455 1.392 . S
C457 N456 1.331 . S
O458 Zn451 1.975 . S
O458 C459 1.252 . S
C459 O458 1.252 . S
C459 O460 1.252 . S
O460 Zn442 1.975 . S
O460 C459 1.252 . S
H461 C454 0.930 . S
H462 C455 0.930 . S
C463 C464 1.392 . S
C463 N467 1.328 . S
C463 H469 0.930 . S
C464 C463 1.392 . S
C464 N468 1.331 . S
C465 C466 1.391 . S
C465 N468 1.329 . S
C465 H475 0.930 . S
C466 C465 1.391 . S
C466 N467 1.334 . S
C466 H473 0.930 . S
N467 Zn451 2.119 . S
N467 C463 1.328 . S
N467 C466 1.334 . S
N468 C464 1.331 . S
N468 C465 1.329 . S
H469 C463 0.930 . S
C470 O450 1.257 . S
C470 O471 1.244 . S
O471 C470 1.244 . S
O472 C448 1.257 . S
O472 Zn451 2.019 . S
H473 C466 0.930 . S
H474 C453 0.930 . S
H475 C465 0.930 . S
Zn476 N480 2.020 . S
Zn476 O484 2.019 . S
Zn476 N486 2.119 . S
Zn476 O494 1.975 . S
C477 N478 1.334 . S
C477 N481 1.336 . S
N478 C477 1.334 . S
N478 C479 1.334 . S
C479 N478 1.334 . S
C479 N480 1.336 . S
N480 Zn476 2.020 . S
N480 C479 1.336 . S
N480 N481 1.354 . S
N481 C477 1.336 . S
N481 N480 1.354 . S
N481 Zn485 2.020 . S
C482 O483 1.244 . S
C482 O506 1.257 . S
O483 C482 1.244 . S
O484 Zn476 2.019 . S
O484 C504 1.257 . S
Zn485 N481 2.020 . S
Zn485 O492 1.975 . S
Zn485 N501 2.119 . S
Zn485 O506 2.019 . S
N486 Zn476 2.119 . S
N486 C488 1.334 . S
N486 C489 1.328 . S
C487 C488 1.391 . S
C487 N490 1.329 . S
C487 H508 0.930 . S
C488 N486 1.334 . S
C488 C487 1.391 . S
C488 H495 0.930 . S
C489 N486 1.328 . S
C489 C491 1.392 . S
C489 H496 0.930 . S
N490 C487 1.329 . S
N490 C491 1.331 . S
C491 C489 1.392 . S
C491 N490 1.331 . S
O492 Zn485 1.975 . S
O492 C493 1.252 . S
C493 O492 1.252 . S
C493 O494 1.252 . S
O494 Zn476 1.975 . S
O494 C493 1.252 . S
H495 C488 0.930 . S
H496 C489 0.930 . S
C497 C498 1.392 . S
C497 N501 1.328 . S
C497 H503 0.930 . S
C498 C497 1.392 . S
C498 N502 1.331 . S
C499 C500 1.391 . S
C499 N502 1.329 . S
C499 H509 0.930 . S
C500 C499 1.391 . S
C500 N501 1.334 . S
C500 H507 0.930 . S
N501 Zn485 2.119 . S
N501 C497 1.328 . S
N501 C500 1.334 . S
N502 C498 1.331 . S
N502 C499 1.329 . S
H503 C497 0.930 . S
C504 O484 1.257 . S
C504 O505 1.244 . S
O505 C504 1.244 . S
O506 C482 1.257 . S
O506 Zn485 2.019 . S
H507 C500 0.930 . S
H508 C487 0.930 . S
H509 C499 0.930 . S
Zn510 N514 2.020 . S
Zn510 O518 2.019 . S
Zn510 N520 2.119 . S
Zn510 O528 1.975 . S
C511 N512 1.334 . S
C511 N515 1.336 . S
N512 C511 1.334 . S
N512 C513 1.334 . S
C513 N512 1.334 . S
C513 N514 1.336 . S
N514 Zn510 2.020 . S
N514 C513 1.336 . S
N514 N515 1.354 . S
N515 C511 1.336 . S
N515 N514 1.354 . S
N515 Zn519 2.020 . S
C516 O517 1.244 . S
C516 O540 1.257 . S
O517 C516 1.244 . S
O518 Zn510 2.019 . S
O518 C538 1.257 . S
Zn519 N515 2.020 . S
Zn519 O526 1.975 . S
Zn519 N535 2.119 . S
Zn519 O540 2.019 . S
N520 Zn510 2.119 . S
N520 C522 1.334 . S
N520 C523 1.328 . S
C521 C522 1.391 . S
C521 N524 1.329 . S
C521 H542 0.930 . S
C522 N520 1.334 . S
C522 C521 1.391 . S
C522 H529 0.930 . S
C523 N520 1.328 . S
C523 C525 1.392 . S
C523 H530 0.930 . S
N524 C521 1.329 . S
N524 C525 1.331 . S
C525 C523 1.392 . S
C525 N524 1.331 . S
O526 Zn519 1.975 . S
O526 C527 1.252 . S
C527 O526 1.252 . S
C527 O528 1.252 . S
O528 Zn510 1.975 . S
O528 C527 1.252 . S
H529 C522 0.930 . S
H530 C523 0.930 . S
C531 C532 1.392 . S
C531 N535 1.328 . S
C531 H537 0.930 . S
C532 C531 1.392 . S
C532 N536 1.331 . S
C533 C534 1.391 . S
C533 N536 1.329 . S
C533 H543 0.930 . S
C534 C533 1.391 . S
C534 N535 1.334 . S
C534 H541 0.930 . S
N535 Zn519 2.119 . S
N535 C531 1.328 . S
N535 C534 1.334 . S
N536 C532 1.331 . S
N536 C533 1.329 . S
H537 C531 0.930 . S
C538 O518 1.257 . S
C538 O539 1.244 . S
O539 C538 1.244 . S
O540 C516 1.257 . S
O540 Zn519 2.019 . S
H541 C534 0.930 . S
H542 C521 0.930 . S
H543 C533 0.930 . S
C544 C545 1.369 . S
C544 C546 1.419 1_554 S
C544 H548 0.930 . S
C545 C544 1.369 . S
C545 C554 1.429 . S
C546 C544 1.419 1_556 S
C546 C547 1.363 . S
C546 H549 0.929 . S
C547 C546 1.363 . S
C547 C553 1.428 . S
H548 C544 0.930 . S
H549 C546 0.929 . S
S550 N551 1.613 1_556 S
S550 N552 1.610 . S
N551 S550 1.613 1_554 S
N551 C554 1.350 . S
N552 S550 1.610 . S
N552 C553 1.351 . S
C553 C547 1.428 . S
C553 N552 1.351 . S
C553 C554 1.434 1_556 S
C554 C545 1.429 . S
C554 N551 1.350 . S
C554 C553 1.434 1_554 S
C555 C556 1.369 . S
C555 C557 1.419 1_554 S
C555 H559 0.930 . S
C556 C555 1.369 . S
C556 C565 1.429 . S
C557 C555 1.419 1_556 S
C557 C558 1.363 . S
C557 H560 0.929 . S
C558 C557 1.363 . S
C558 C564 1.428 . S
H559 C555 0.930 . S
H560 C557 0.929 . S
S561 N562 1.613 1_556 S
S561 N563 1.610 . S
N562 S561 1.613 1_554 S
N562 C565 1.350 . S
N563 S561 1.610 . S
N563 C564 1.351 . S
C564 C558 1.428 . S
C564 N563 1.351 . S
C564 C565 1.434 1_556 S
C565 C556 1.429 . S
C565 N562 1.350 . S
C565 C564 1.434 1_554 S
C566 C567 1.369 . S
C566 C568 1.419 1_556 S
C566 H570 0.930 . S
C567 C566 1.369 . S
C567 C576 1.429 . S
C568 C566 1.419 1_554 S
C568 C569 1.363 . S
C568 H571 0.929 . S
C569 C568 1.363 . S
C569 C575 1.428 . S
H570 C566 0.930 . S
H571 C568 0.929 . S
S572 N573 1.613 . S
S572 N574 1.610 1_556 S
N573 S572 1.613 . S
N573 C576 1.350 . S
N574 S572 1.610 1_554 S
N574 C575 1.351 . S
C575 C569 1.428 . S
C575 N574 1.351 . S
C575 C576 1.434 1_554 S
C576 C567 1.429 . S
C576 N573 1.350 . S
C576 C575 1.434 1_556 S
C577 C578 1.369 . S
C577 C579 1.419 1_556 S
C577 H581 0.930 . S
C578 C577 1.369 . S
C578 C587 1.429 . S
C579 C577 1.419 1_554 S
C579 C580 1.363 . S
C579 H582 0.929 . S
C580 C579 1.363 . S
C580 C586 1.428 . S
H581 C577 0.930 . S
H582 C579 0.929 . S
S583 N584 1.613 . S
S583 N585 1.594 1_556 S
N584 S583 1.613 . S
N584 C587 1.350 . S
N585 S583 1.594 1_554 S
N585 C586 1.352 . S
C586 C580 1.428 . S
C586 N585 1.352 . S
C586 C587 1.434 1_554 S
C587 C578 1.429 . S
C587 N584 1.350 . S
C587 C586 1.434 1_556 S
C588 C589 1.369 . S
C588 C590 1.419 . S
C588 H592 0.930 . S
C589 C588 1.369 . S
C589 C598 1.429 . S
C590 C588 1.419 . S
C590 C591 1.363 . S
C590 H593 0.929 . S
C591 C590 1.363 . S
C591 C597 1.428 . S
H592 C588 0.930 . S
H593 C590 0.929 . S
S594 N595 1.613 . S
S594 N596 1.610 . S
N595 S594 1.613 . S
N595 C598 1.350 . S
N596 S594 1.610 . S
N596 C597 1.351 . S
C597 C591 1.428 . S
C597 N596 1.351 . S
C597 C598 1.434 . S
C598 C589 1.429 . S
C598 N595 1.350 . S
C598 C597 1.434 . S
C599 C600 1.369 . S
C599 C601 1.419 . S
C599 H603 0.930 . S
C600 C599 1.369 . S
C600 C609 1.429 . S
C601 C599 1.419 . S
C601 C602 1.363 . S
C601 H604 0.929 . S
C602 C601 1.363 . S
C602 C608 1.428 . S
H603 C599 0.930 . S
H604 C601 0.929 . S
S605 N606 1.613 . S
S605 N607 1.610 . S
N606 S605 1.613 . S
N606 C609 1.350 . S
N607 S605 1.610 . S
N607 C608 1.351 . S
C608 C602 1.428 . S
C608 N607 1.351 . S
C608 C609 1.434 . S
C609 C600 1.429 . S
C609 N606 1.350 . S
C609 C608 1.434 . S
C610 C611 1.369 . S
C610 C612 1.419 . S
C610 H614 0.930 . S
C611 C610 1.369 . S
C611 C620 1.429 . S
C612 C610 1.419 . S
C612 C613 1.363 . S
C612 H615 0.929 . S
C613 C612 1.363 . S
C613 C619 1.428 . S
H614 C610 0.930 . S
H615 C612 0.929 . S
S616 N617 1.613 . S
S616 N618 1.610 . S
N617 S616 1.613 . S
N617 C620 1.350 . S
N618 S616 1.610 . S
N618 C619 1.351 . S
C619 C613 1.428 . S
C619 N618 1.351 . S
C619 C620 1.434 . S
C620 C611 1.429 . S
C620 N617 1.350 . S
C620 C619 1.434 . S
C621 C622 1.369 . S
C621 C623 1.419 . S
C621 H625 0.930 . S
C622 C621 1.369 . S
C622 C631 1.429 . S
C623 C621 1.419 . S
C623 C624 1.363 . S
C623 H626 0.929 . S
C624 C623 1.363 . S
C624 C630 1.428 . S
H625 C621 0.930 . S
H626 C623 0.929 . S
S627 N628 1.613 . S
S627 N629 1.610 . S
N628 S627 1.613 . S
N628 C631 1.350 . S
N629 S627 1.610 . S
N629 C630 1.351 . S
C630 C624 1.428 . S
C630 N629 1.351 . S
C630 C631 1.434 . S
C631 C622 1.429 . S
C631 N628 1.350 . S
C631 C630 1.434 . S
C632 C633 1.369 1_545 S
C632 C634 1.419 . S
C632 H636 0.930 . S
C633 C632 1.369 1_565 S
C633 C642 1.429 . S
C634 C632 1.419 . S
C634 C635 1.363 . S
C634 H637 0.929 . S
C635 C634 1.363 . S
C635 C641 1.428 . S
H636 C632 0.930 . S
H637 C634 0.929 . S
S638 N639 1.613 . S
S638 N640 1.619 . S
N639 S638 1.613 . S
N639 C642 1.350 . S
N640 S638 1.619 . S
N640 C641 1.348 1_565 S
C641 C635 1.428 . S
C641 N640 1.348 1_545 S
C641 C642 1.434 1_545 S
C642 C633 1.429 . S
C642 N639 1.350 . S
C642 C641 1.434 1_565 S
C643 C644 1.369 1_655 S
C643 C645 1.419 . S
C643 H647 0.930 1_655 S
C644 C643 1.369 1_455 S
C644 C653 1.429 1_455 S
C645 C643 1.419 . S
C645 C646 1.363 . S
C645 H648 0.929 . S
C646 C645 1.363 . S
C646 C652 1.428 . S
H647 C643 0.930 1_455 S
H648 C645 0.929 . S
S649 N650 1.613 . S
S649 N651 1.610 . S
N650 S649 1.613 . S
N650 C653 1.350 . S
N651 S649 1.610 . S
N651 C652 1.351 . S
C652 C646 1.428 . S
C652 N651 1.351 . S
C652 C653 1.434 . S
C653 C644 1.429 1_655 S
C653 N650 1.350 . S
C653 C652 1.434 . S
C654 C655 1.369 . S
C654 C656 1.419 1_565 S
C654 H658 0.930 . S
C655 C654 1.369 . S
C655 C664 1.429 . S
C656 C654 1.419 1_545 S
C656 C657 1.363 . S
C656 H659 0.929 . S
C657 C656 1.363 . S
C657 C663 1.428 1_545 S
H658 C654 0.930 . S
H659 C656 0.929 . S
S660 N661 1.613 . S
S660 N662 1.610 . S
N661 S660 1.613 . S
N661 C664 1.350 . S
N662 S660 1.610 . S
N662 C663 1.351 . S
C663 C657 1.428 1_565 S
C663 N662 1.351 . S
C663 C664 1.434 . S
C664 C655 1.429 . S
C664 N661 1.350 . S
C664 C663 1.434 . S
C665 C666 1.369 . S
C665 C667 1.419 . S
C665 H669 0.930 . S
C666 C665 1.369 . S
C666 C675 1.429 . S
C667 C665 1.419 . S
C667 C668 1.363 1_455 S
C667 H670 0.929 . S
C668 C667 1.363 1_655 S
C668 C674 1.428 . S
H669 C665 0.930 . S
H670 C667 0.929 . S
S671 N672 1.613 1_655 S
S671 N673 1.610 . S
N672 S671 1.613 1_455 S
N672 C675 1.350 . S
N673 S671 1.610 . S
N673 C674 1.351 . S
C674 C668 1.428 . S
C674 N673 1.351 . S
C674 C675 1.434 1_655 S
C675 C666 1.429 . S
C675 N672 1.350 . S
C675 C674 1.434 1_455 S
C676 C677 1.369 . S
C676 C678 1.419 1_545 S
C676 H680 0.930 . S
C677 C676 1.369 . S
C677 C686 1.429 1_545 S
C678 C676 1.419 1_565 S
C678 C679 1.363 . S
C678 H681 0.929 . S
C679 C678 1.363 . S
C679 C685 1.428 . S
H680 C676 0.930 . S
H681 C678 0.929 . S
S682 N683 1.613 . S
S682 N684 1.610 . S
N683 S682 1.613 . S
N683 C686 1.350 . S
N684 S682 1.610 . S
N684 C685 1.351 . S
C685 C679 1.428 . S
C685 N684 1.351 . S
C685 C686 1.434 . S
C686 C677 1.429 1_565 S
C686 N683 1.350 . S
C686 C685 1.434 . S
C687 C688 1.369 . S
C687 C689 1.419 . S
C687 H691 0.930 . S
C688 C687 1.369 . S
C688 C697 1.429 . S
C689 C687 1.419 . S
C689 C690 1.363 1_455 S
C689 H692 0.929 . S
C690 C689 1.363 1_655 S
C690 C696 1.428 . S
H691 C687 0.930 . S
H692 C689 0.929 . S
S693 N694 1.613 1_655 S
S693 N695 1.610 . S
N694 S693 1.613 1_455 S
N694 C697 1.350 . S
N695 S693 1.610 . S
N695 C696 1.351 . S
C696 C690 1.428 . S
C696 N695 1.351 . S
C696 C697 1.434 1_655 S
C697 C688 1.429 . S
C697 N694 1.350 . S
C697 C696 1.434 1_455 S
C698 C699 1.369 . S
C698 C700 1.419 1_565 S
C698 H702 0.930 . S
C699 C698 1.369 . S
C699 C708 1.429 1_565 S
C700 C698 1.419 1_545 S
C700 C701 1.363 . S
C700 H703 0.929 . S
C701 C700 1.363 . S
C701 C707 1.428 . S
H702 C698 0.930 . S
H703 C700 0.929 . S
S704 N705 1.613 . S
S704 N706 1.610 . S
N705 S704 1.613 . S
N705 C708 1.350 . S
N706 S704 1.610 . S
N706 C707 1.351 . S
C707 C701 1.428 . S
C707 N706 1.351 . S
C707 C708 1.434 . S
C708 C699 1.429 1_545 S
C708 N705 1.350 . S
C708 C707 1.434 . S
C709 C710 1.369 1_655 S
C709 C711 1.419 . S
C709 H713 0.930 . S
C710 C709 1.369 1_455 S
C710 C719 1.429 . S
C711 C709 1.419 . S
C711 C712 1.363 . S
C711 H714 0.929 . S
C712 C711 1.363 . S
C712 C718 1.428 . S
H713 C709 0.930 . S
H714 C711 0.929 . S
S715 N716 1.613 . S
S715 N717 1.610 . S
N716 S715 1.613 . S
N716 C719 1.350 . S
N717 S715 1.610 . S
N717 C718 1.351 1_455 S
C718 C712 1.428 . S
C718 N717 1.351 1_655 S
C718 C719 1.434 1_655 S
C719 C710 1.429 . S
C719 N716 1.350 . S
C719 C718 1.434 1_455 S
C720 C721 1.369 . S
C720 C722 1.419 . S
C720 H724 0.930 . S
C721 C720 1.369 . S
C721 C730 1.429 . S
C722 C720 1.419 . S
C722 C723 1.363 . S
C722 H725 0.929 . S
C723 C722 1.363 . S
C723 C729 1.428 . S
H724 C720 0.930 . S
H725 C722 0.929 . S
S726 N727 1.613 . S
S726 N728 1.610 . S
N727 S726 1.613 . S
N727 C730 1.350 . S
N728 S726 1.610 . S
N728 C729 1.351 . S
C729 C723 1.428 . S
C729 N728 1.351 . S
C729 C730 1.434 . S
C730 C721 1.429 . S
C730 N727 1.350 . S
C730 C729 1.434 . S
C731 C732 1.369 . S
C731 C733 1.419 . S
C731 H735 0.930 . S
C732 C731 1.369 . S
C732 C741 1.429 . S
C733 C731 1.419 . S
C733 C734 1.363 . S
C733 H736 0.929 . S
C734 C733 1.363 . S
C734 C740 1.428 . S
H735 C731 0.930 . S
H736 C733 0.929 . S
S737 N738 1.613 . S
S737 N739 1.610 . S
N738 S737 1.613 . S
N738 C741 1.350 . S
N739 S737 1.610 . S
N739 C740 1.351 . S
C740 C734 1.428 . S
C740 N739 1.351 . S
C740 C741 1.434 . S
C741 C732 1.429 . S
C741 N738 1.350 . S
C741 C740 1.434 . S
C742 C743 1.369 . S
C742 C744 1.419 . S
C742 H746 0.930 . S
C743 C742 1.369 . S
C743 C752 1.429 . S
C744 C742 1.419 . S
C744 C745 1.363 . S
C744 H747 0.929 . S
C745 C744 1.363 . S
C745 C751 1.428 . S
H746 C742 0.930 . S
H747 C744 0.929 . S
S748 N749 1.613 . S
S748 N750 1.610 . S
N749 S748 1.613 . S
N749 C752 1.350 . S
N750 S748 1.610 . S
N750 C751 1.351 . S
C751 C745 1.428 . S
C751 N750 1.351 . S
C751 C752 1.434 . S
C752 C743 1.429 . S
C752 N749 1.350 . S
C752 C751 1.434 . S
C753 C754 1.369 . S
C753 C755 1.419 . S
C753 H757 0.930 . S
C754 C753 1.369 . S
C754 C763 1.429 . S
C755 C753 1.419 . S
C755 C756 1.363 . S
C755 H758 0.929 . S
C756 C755 1.363 . S
C756 C762 1.428 . S
H757 C753 0.930 . S
H758 C755 0.929 . S
S759 N760 1.613 . S
S759 N761 1.610 . S
N760 S759 1.613 . S
N760 C763 1.350 . S
N761 S759 1.610 . S
N761 C762 1.351 . S
C762 C756 1.428 . S
C762 N761 1.351 . S
C762 C763 1.434 . S
C763 C754 1.429 . S
C763 N760 1.350 . S
C763 C762 1.434 . S
C764 C765 1.369 . S
C764 C766 1.419 . S
C764 H768 0.930 . S
C765 C764 1.369 . S
C765 C774 1.429 . S
C766 C764 1.419 . S
C766 C767 1.363 . S
C766 H769 0.929 . S
C767 C766 1.363 . S
C767 C773 1.428 . S
H768 C764 0.930 . S
H769 C766 0.929 . S
S770 N771 1.613 . S
S770 N772 1.610 . S
N771 S770 1.613 . S
N771 C774 1.350 . S
N772 S770 1.610 . S
N772 C773 1.351 . S
C773 C767 1.428 . S
C773 N772 1.351 . S
C773 C774 1.434 . S
C774 C765 1.429 . S
C774 N771 1.350 . S
C774 C773 1.434 . S
C775 C776 1.369 . S
C775 C777 1.419 . S
C775 H779 0.930 . S
C776 C775 1.369 . S
C776 C785 1.429 . S
C777 C775 1.419 . S
C777 C778 1.363 . S
C777 H780 0.929 . S
C778 C777 1.363 . S
C778 C784 1.428 . S
H779 C775 0.930 . S
H780 C777 0.929 . S
S781 N782 1.613 . S
S781 N783 1.610 . S
N782 S781 1.613 . S
N782 C785 1.350 . S
N783 S781 1.610 . S
N783 C784 1.351 . S
C784 C778 1.428 . S
C784 N783 1.351 . S
C784 C785 1.434 . S
C785 C776 1.429 . S
C785 N782 1.350 . S
C785 C784 1.434 . S
C786 C787 1.369 . S
C786 C788 1.419 . S
C786 H790 0.930 . S
C787 C786 1.369 . S
C787 C796 1.429 . S
C788 C786 1.419 . S
C788 C789 1.363 . S
C788 H791 0.929 . S
C789 C788 1.363 . S
C789 C795 1.428 . S
H790 C786 0.930 . S
H791 C788 0.929 . S
S792 N793 1.613 . S
S792 N794 1.610 . S
N793 S792 1.613 . S
N793 C796 1.350 . S
N794 S792 1.610 . S
N794 C795 1.351 . S
C795 C789 1.428 . S
C795 N794 1.351 . S
C795 C796 1.434 . S
C796 C787 1.429 . S
C796 N793 1.350 . S
C796 C795 1.434 . S
C797 C798 1.369 . S
C797 C799 1.419 . S
C797 H801 0.930 . S
C798 C797 1.369 . S
C798 C807 1.429 . S
C799 C797 1.419 . S
C799 C800 1.363 . S
C799 H802 0.929 . S
C800 C799 1.363 . S
C800 C806 1.428 . S
H801 C797 0.930 . S
H802 C799 0.929 . S
S803 N804 1.613 . S
S803 N805 1.610 . S
N804 S803 1.613 . S
N804 C807 1.350 . S
N805 S803 1.610 . S
N805 C806 1.351 . S
C806 C800 1.428 . S
C806 N805 1.351 . S
C806 C807 1.434 . S
C807 C798 1.429 . S
C807 N804 1.350 . S
C807 C806 1.434 . S
C808 C809 1.369 . S
C808 C810 1.419 . S
C808 H812 0.930 . S
C809 C808 1.369 . S
C809 C818 1.429 . S
C810 C808 1.419 . S
C810 C811 1.363 . S
C810 H813 0.929 . S
C811 C810 1.363 . S
C811 C817 1.428 . S
H812 C808 0.930 . S
H813 C810 0.929 . S
S814 N815 1.613 . S
S814 N816 1.610 . S
N815 S814 1.613 . S
N815 C818 1.350 . S
N816 S814 1.610 . S
N816 C817 1.351 . S
C817 C811 1.428 . S
C817 N816 1.351 . S
C817 C818 1.434 . S
C818 C809 1.429 . S
C818 N815 1.350 . S
C818 C817 1.434 . S
C819 C820 1.369 . S
C819 C821 1.419 . S
C819 H823 0.930 . S
C820 C819 1.369 . S
C820 C829 1.429 . S
C821 C819 1.419 . S
C821 C822 1.363 . S
C821 H824 0.929 . S
C822 C821 1.363 . S
C822 C828 1.428 . S
H823 C819 0.930 . S
H824 C821 0.929 . S
S825 N826 1.613 . S
S825 N827 1.610 . S
N826 S825 1.613 . S
N826 C829 1.350 . S
N827 S825 1.610 . S
N827 C828 1.351 . S
C828 C822 1.428 . S
C828 N827 1.351 . S
C828 C829 1.434 . S
C829 C820 1.429 . S
C829 N826 1.350 . S
C829 C828 1.434 . S
C830 C831 1.369 . S
C830 C832 1.419 . S
C830 H834 0.930 . S
C831 C830 1.369 . S
C831 C840 1.429 . S
C832 C830 1.419 . S
C832 C833 1.363 . S
C832 H835 0.929 . S
C833 C832 1.363 . S
C833 C839 1.428 . S
H834 C830 0.930 . S
H835 C832 0.929 . S
S836 N837 1.613 . S
S836 N838 1.610 . S
N837 S836 1.613 . S
N837 C840 1.350 . S
N838 S836 1.610 . S
N838 C839 1.351 . S
C839 C833 1.428 . S
C839 N838 1.351 . S
C839 C840 1.434 . S
C840 C831 1.429 . S
C840 N837 1.350 . S
C840 C839 1.434 . S
C841 C842 1.369 . S
C841 C843 1.419 . S
C841 H845 0.930 . S
C842 C841 1.369 . S
C842 C851 1.429 . S
C843 C841 1.419 . S
C843 C844 1.363 . S
C843 H846 0.929 . S
C844 C843 1.363 . S
C844 C850 1.428 . S
H845 C841 0.930 . S
H846 C843 0.929 . S
S847 N848 1.613 . S
S847 N849 1.610 . S
N848 S847 1.613 . S
N848 C851 1.350 . S
N849 S847 1.610 . S
N849 C850 1.351 . S
C850 C844 1.428 . S
C850 N849 1.351 . S
C850 C851 1.434 . S
C851 C842 1.429 . S
C851 N848 1.350 . S
C851 C850 1.434 . S
C852 C853 1.369 . S
C852 C854 1.419 . S
C852 H856 0.930 . S
C853 C852 1.369 . S
C853 C862 1.429 . S
C854 C852 1.419 . S
C854 C855 1.363 . S
C854 H857 0.929 . S
C855 C854 1.363 . S
C855 C861 1.428 . S
H856 C852 0.930 . S
H857 C854 0.929 . S
S858 N859 1.613 . S
S858 N860 1.610 . S
N859 S858 1.613 . S
N859 C862 1.350 . S
N860 S858 1.610 . S
N860 C861 1.351 . S
C861 C855 1.428 . S
C861 N860 1.351 . S
C861 C862 1.434 . S
C862 C853 1.429 . S
C862 N859 1.350 . S
C862 C861 1.434 . S
C863 C864 1.369 . S
C863 C865 1.419 . S
C863 H867 0.930 . S
C864 C863 1.369 . S
C864 C873 1.429 . S
C865 C863 1.419 . S
C865 C866 1.363 . S
C865 H868 0.929 . S
C866 C865 1.363 . S
C866 C872 1.428 . S
H867 C863 0.930 . S
H868 C865 0.929 . S
S869 N870 1.613 . S
S869 N871 1.610 . S
N870 S869 1.613 . S
N870 C873 1.350 . S
N871 S869 1.610 . S
N871 C872 1.351 . S
C872 C866 1.428 . S
C872 N871 1.351 . S
C872 C873 1.434 . S
C873 C864 1.429 . S
C873 N870 1.350 . S
C873 C872 1.434 . S
C874 C875 1.369 . S
C874 C876 1.419 . S
C874 H878 0.930 . S
C875 C874 1.369 . S
C875 C884 1.429 . S
C876 C874 1.419 . S
C876 C877 1.363 . S
C876 H879 0.929 . S
C877 C876 1.363 . S
C877 C883 1.428 . S
H878 C874 0.930 . S
H879 C876 0.929 . S
S880 N881 1.613 . S
S880 N882 1.610 . S
N881 S880 1.613 . S
N881 C884 1.350 . S
N882 S880 1.610 . S
N882 C883 1.351 . S
C883 C877 1.428 . S
C883 N882 1.351 . S
C883 C884 1.434 . S
C884 C875 1.429 . S
C884 N881 1.350 . S
C884 C883 1.434 . S
C885 C886 1.369 . S
C885 C887 1.419 . S
C885 H889 0.930 . S
C886 C885 1.369 . S
C886 C895 1.429 . S
C887 C885 1.419 . S
C887 C888 1.363 . S
C887 H890 0.929 . S
C888 C887 1.363 . S
C888 C894 1.428 . S
H889 C885 0.930 . S
H890 C887 0.929 . S
S891 N892 1.613 . S
S891 N893 1.610 . S
N892 S891 1.613 . S
N892 C895 1.350 . S
N893 S891 1.610 . S
N893 C894 1.351 . S
C894 C888 1.428 . S
C894 N893 1.351 . S
C894 C895 1.434 . S
C895 C886 1.429 . S
C895 N892 1.350 . S
C895 C894 1.434 . S
C896 C897 1.369 . S
C896 C898 1.419 . S
C896 H900 0.930 . S
C897 C896 1.369 . S
C897 C906 1.429 . S
C898 C896 1.419 . S
C898 C899 1.363 . S
C898 H901 0.929 . S
C899 C898 1.363 . S
C899 C905 1.428 . S
H900 C896 0.930 . S
H901 C898 0.929 . S
S902 N903 1.613 . S
S902 N904 1.610 . S
N903 S902 1.613 . S
N903 C906 1.350 . S
N904 S902 1.610 . S
N904 C905 1.351 . S
C905 C899 1.428 . S
C905 N904 1.351 . S
C905 C906 1.434 . S
C906 C897 1.429 . S
C906 N903 1.350 . S
C906 C905 1.434 . S
C907 C908 1.369 . S
C907 C909 1.419 . S
C907 H911 0.930 . S
C908 C907 1.369 . S
C908 C917 1.429 . S
C909 C907 1.419 . S
C909 C910 1.363 . S
C909 H912 0.929 . S
C910 C909 1.363 . S
C910 C916 1.428 . S
H911 C907 0.930 . S
H912 C909 0.929 . S
S913 N914 1.613 . S
S913 N915 1.610 . S
N914 S913 1.613 . S
N914 C917 1.350 . S
N915 S913 1.610 . S
N915 C916 1.351 . S
C916 C910 1.428 . S
C916 N915 1.351 . S
C916 C917 1.434 . S
C917 C908 1.429 . S
C917 N914 1.350 . S
C917 C916 1.434 . S
C918 C919 1.369 . S
C918 C920 1.419 . S
C918 H922 0.930 . S
C919 C918 1.369 . S
C919 C928 1.429 . S
C920 C918 1.419 . S
C920 C921 1.363 . S
C920 H923 0.929 . S
C921 C920 1.363 . S
C921 C927 1.428 . S
H922 C918 0.930 . S
H923 C920 0.929 . S
S924 N925 1.613 . S
S924 N926 1.610 . S
N925 S924 1.613 . S
N925 C928 1.350 . S
N926 S924 1.610 . S
N926 C927 1.351 . S
C927 C921 1.428 . S
C927 N926 1.351 . S
C927 C928 1.434 . S
C928 C919 1.429 . S
C928 N925 1.350 . S
C928 C927 1.434 . S
C929 C930 1.369 . S
C929 C931 1.419 . S
C929 H933 0.930 . S
C930 C929 1.369 . S
C930 C939 1.429 . S
C931 C929 1.419 . S
C931 C932 1.363 . S
C931 H934 0.929 . S
C932 C931 1.363 . S
C932 C938 1.428 . S
H933 C929 0.930 . S
H934 C931 0.929 . S
S935 N936 1.613 . S
S935 N937 1.610 . S
N936 S935 1.613 . S
N936 C939 1.350 . S
N937 S935 1.610 . S
N937 C938 1.351 . S
C938 C932 1.428 . S
C938 N937 1.351 . S
C938 C939 1.434 . S
C939 C930 1.429 . S
C939 N936 1.350 . S
C939 C938 1.434 . S
C940 C941 1.369 . S
C940 C942 1.419 . S
C940 H944 0.930 . S
C941 C940 1.369 . S
C941 C950 1.429 . S
C942 C940 1.419 . S
C942 C943 1.363 . S
C942 H945 0.929 . S
C943 C942 1.363 . S
C943 C949 1.428 . S
H944 C940 0.930 . S
H945 C942 0.929 . S
S946 N947 1.613 . S
S946 N948 1.610 . S
N947 S946 1.613 . S
N947 C950 1.350 . S
N948 S946 1.610 . S
N948 C949 1.351 . S
C949 C943 1.428 . S
C949 N948 1.351 . S
C949 C950 1.434 . S
C950 C941 1.429 . S
C950 N947 1.350 . S
C950 C949 1.434 . S
C951 C952 1.369 . S
C951 C953 1.419 . S
C951 H955 0.930 . S
C952 C951 1.369 . S
C952 C961 1.429 . S
C953 C951 1.419 . S
C953 C954 1.363 . S
C953 H956 0.929 . S
C954 C953 1.363 . S
C954 C960 1.428 . S
H955 C951 0.930 . S
H956 C953 0.929 . S
S957 N958 1.613 . S
S957 N959 1.610 . S
N958 S957 1.613 . S
N958 C961 1.350 . S
N959 S957 1.610 . S
N959 C960 1.351 . S
C960 C954 1.428 . S
C960 N959 1.351 . S
C960 C961 1.434 . S
C961 C952 1.429 . S
C961 N958 1.350 . S
C961 C960 1.434 . S
C962 C963 1.369 . S
C962 C964 1.419 . S
C962 H966 0.930 . S
C963 C962 1.369 . S
C963 C972 1.429 . S
C964 C962 1.419 . S
C964 C965 1.363 . S
C964 H967 0.929 . S
C965 C964 1.363 . S
C965 C971 1.428 . S
H966 C962 0.930 . S
H967 C964 0.929 . S
S968 N969 1.613 . S
S968 N970 1.610 . S
N969 S968 1.613 . S
N969 C972 1.350 . S
N970 S968 1.610 . S
N970 C971 1.351 . S
C971 C965 1.428 . S
C971 N970 1.351 . S
C971 C972 1.434 . S
C972 C963 1.429 . S
C972 N969 1.350 . S
C972 C971 1.434 . S
C973 C974 1.369 . S
C973 C975 1.419 . S
C973 H977 0.930 . S
C974 C973 1.369 . S
C974 C983 1.429 . S
C975 C973 1.419 . S
C975 C976 1.363 . S
C975 H978 0.929 . S
C976 C975 1.363 . S
C976 C982 1.428 . S
H977 C973 0.930 . S
H978 C975 0.929 . S
S979 N980 1.613 . S
S979 N981 1.610 . S
N980 S979 1.613 . S
N980 C983 1.350 . S
N981 S979 1.610 . S
N981 C982 1.351 . S
C982 C976 1.428 . S
C982 N981 1.351 . S
C982 C983 1.434 . S
C983 C974 1.429 . S
C983 N980 1.350 . S
C983 C982 1.434 . S
C984 C985 1.369 . S
C984 C986 1.419 . S
C984 H988 0.930 . S
C985 C984 1.369 . S
C985 C994 1.429 . S
C986 C984 1.419 . S
C986 C987 1.363 . S
C986 H989 0.929 . S
C987 C986 1.363 . S
C987 C993 1.428 . S
H988 C984 0.930 . S
H989 C986 0.929 . S
S990 N991 1.613 . S
S990 N992 1.610 . S
N991 S990 1.613 . S
N991 C994 1.350 . S
N992 S990 1.610 . S
N992 C993 1.351 . S
C993 C987 1.428 . S
C993 N992 1.351 . S
C993 C994 1.434 . S
C994 C985 1.429 . S
C994 N991 1.350 . S
C994 C993 1.434 . S
C995 C996 1.369 . S
C995 C997 1.419 . S
C995 H999 0.930 . S
C996 C995 1.369 . S
C996 C1005 1.429 . S
C997 C995 1.419 . S
C997 C998 1.363 . S
C997 H1000 0.929 . S
C998 C997 1.363 . S
C998 C1004 1.428 . S
H999 C995 0.930 . S
H1000 C997 0.929 . S
S1001 N1002 1.613 . S
S1001 N1003 1.610 . S
N1002 S1001 1.613 . S
N1002 C1005 1.350 . S
N1003 S1001 1.610 . S
N1003 C1004 1.351 . S
C1004 C998 1.428 . S
C1004 N1003 1.351 . S
C1004 C1005 1.434 . S
C1005 C996 1.429 . S
C1005 N1002 1.350 . S
C1005 C1004 1.434 . S
C1006 C1007 1.369 . S
C1006 C1008 1.419 . S
C1006 H1010 0.930 . S
C1007 C1006 1.369 . S
C1007 C1016 1.429 . S
C1008 C1006 1.419 . S
C1008 C1009 1.363 . S
C1008 H1011 0.929 . S
C1009 C1008 1.363 . S
C1009 C1015 1.428 . S
H1010 C1006 0.930 . S
H1011 C1008 0.929 . S
S1012 N1013 1.613 . S
S1012 N1014 1.610 . S
N1013 S1012 1.613 . S
N1013 C1016 1.350 . S
N1014 S1012 1.610 . S
N1014 C1015 1.351 . S
C1015 C1009 1.428 . S
C1015 N1014 1.351 . S
C1015 C1016 1.434 . S
C1016 C1007 1.429 . S
C1016 N1013 1.350 . S
C1016 C1015 1.434 . S
C1017 C1018 1.369 . S
C1017 C1019 1.419 . S
C1017 H1021 0.930 . S
C1018 C1017 1.369 . S
C1018 C1027 1.429 . S
C1019 C1017 1.419 . S
C1019 C1020 1.363 . S
C1019 H1022 0.929 . S
C1020 C1019 1.363 . S
C1020 C1026 1.428 . S
H1021 C1017 0.930 . S
H1022 C1019 0.929 . S
S1023 N1024 1.613 . S
S1023 N1025 1.610 . S
N1024 S1023 1.613 . S
N1024 C1027 1.350 . S
N1025 S1023 1.610 . S
N1025 C1026 1.351 . S
C1026 C1020 1.428 . S
C1026 N1025 1.351 . S
C1026 C1027 1.434 . S
C1027 C1018 1.429 . S
C1027 N1024 1.350 . S
C1027 C1026 1.434 . S
C1028 C1029 1.369 . S
C1028 C1030 1.419 . S
C1028 H1032 0.930 . S
C1029 C1028 1.369 . S
C1029 C1038 1.429 . S
C1030 C1028 1.419 . S
C1030 C1031 1.363 . S
C1030 H1033 0.929 . S
C1031 C1030 1.363 . S
C1031 C1037 1.428 . S
H1032 C1028 0.930 . S
H1033 C1030 0.929 . S
S1034 N1035 1.613 . S
S1034 N1036 1.610 . S
N1035 S1034 1.613 . S
N1035 C1038 1.350 . S
N1036 S1034 1.610 . S
N1036 C1037 1.351 . S
C1037 C1031 1.428 . S
C1037 N1036 1.351 . S
C1037 C1038 1.434 . S
C1038 C1029 1.429 . S
C1038 N1035 1.350 . S
C1038 C1037 1.434 . S
C1039 C1040 1.369 . S
C1039 C1041 1.419 . S
C1039 H1043 0.930 . S
C1040 C1039 1.369 . S
C1040 C1049 1.429 . S
C1041 C1039 1.419 . S
C1041 C1042 1.363 . S
C1041 H1044 0.929 . S
C1042 C1041 1.363 . S
C1042 C1048 1.428 . S
H1043 C1039 0.930 . S
H1044 C1041 0.929 . S
S1045 N1046 1.613 . S
S1045 N1047 1.610 . S
N1046 S1045 1.613 . S
N1046 C1049 1.350 . S
N1047 S1045 1.610 . S
N1047 C1048 1.351 . S
C1048 C1042 1.428 . S
C1048 N1047 1.351 . S
C1048 C1049 1.434 . S
C1049 C1040 1.429 . S
C1049 N1046 1.350 . S
C1049 C1048 1.434 . S
C1050 C1051 1.369 . S
C1050 C1052 1.419 . S
C1050 H1054 0.930 . S
C1051 C1050 1.369 . S
C1051 C1060 1.429 . S
C1052 C1050 1.419 . S
C1052 C1053 1.363 . S
C1052 H1055 0.929 . S
C1053 C1052 1.363 . S
C1053 C1059 1.428 . S
H1054 C1050 0.930 . S
H1055 C1052 0.929 . S
S1056 N1057 1.613 . S
S1056 N1058 1.610 . S
N1057 S1056 1.613 . S
N1057 C1060 1.350 . S
N1058 S1056 1.610 . S
N1058 C1059 1.351 . S
C1059 C1053 1.428 . S
C1059 N1058 1.351 . S
C1059 C1060 1.434 . S
C1060 C1051 1.429 . S
C1060 N1057 1.350 . S
C1060 C1059 1.434 . S
C1061 C1062 1.369 . S
C1061 C1063 1.419 . S
C1061 H1065 0.930 . S
C1062 C1061 1.369 . S
C1062 C1071 1.429 . S
C1063 C1061 1.419 . S
C1063 C1064 1.363 . S
C1063 H1066 0.929 . S
C1064 C1063 1.363 . S
C1064 C1070 1.428 . S
H1065 C1061 0.930 . S
H1066 C1063 0.929 . S
S1067 N1068 1.613 . S
S1067 N1069 1.610 . S
N1068 S1067 1.613 . S
N1068 C1071 1.350 . S
N1069 S1067 1.610 . S
N1069 C1070 1.351 . S
C1070 C1064 1.428 . S
C1070 N1069 1.351 . S
C1070 C1071 1.434 . S
C1071 C1062 1.429 . S
C1071 N1068 1.350 . S
C1071 C1070 1.434 . S
C1072 C1073 1.369 . S
C1072 C1074 1.419 . S
C1072 H1076 0.930 . S
C1073 C1072 1.369 . S
C1073 C1082 1.429 1_455 S
C1074 C1072 1.419 . S
C1074 C1075 1.363 1_455 S
C1074 H1077 0.929 . S
C1075 C1074 1.363 1_655 S
C1075 C1081 1.428 . S
H1076 C1072 0.930 . S
H1077 C1074 0.929 . S
S1078 N1079 1.613 . S
S1078 N1080 1.610 . S
N1079 S1078 1.613 . S
N1079 C1082 1.350 . S
N1080 S1078 1.610 . S
N1080 C1081 1.351 . S
C1081 C1075 1.428 . S
C1081 N1080 1.351 . S
C1081 C1082 1.434 . S
C1082 C1073 1.429 1_655 S
C1082 N1079 1.350 . S
C1082 C1081 1.434 . S
C1083 C1084 1.369 . S
C1083 C1085 1.419 . S
C1083 H1087 0.930 . S
C1084 C1083 1.369 . S
C1084 C1093 1.429 1_565 S
C1085 C1083 1.419 . S
C1085 C1086 1.363 1_565 S
C1085 H1088 0.929 . S
C1086 C1085 1.363 1_545 S
C1086 C1092 1.428 . S
H1087 C1083 0.930 . S
H1088 C1085 0.929 . S
S1089 N1090 1.613 . S
S1089 N1091 1.610 . S
N1090 S1089 1.613 . S
N1090 C1093 1.350 . S
N1091 S1089 1.610 . S
N1091 C1092 1.351 . S
C1092 C1086 1.428 . S
C1092 N1091 1.351 . S
C1092 C1093 1.434 . S
C1093 C1084 1.429 1_545 S
C1093 N1090 1.350 . S
C1093 C1092 1.434 . S
C1094 C1095 1.369 1_655 S
C1094 C1096 1.419 . S
C1094 H1098 0.930 . S
C1095 C1094 1.369 1_455 S
C1095 C1104 1.429 . S
C1096 C1094 1.419 . S
C1096 C1097 1.363 . S
C1096 H1099 0.929 . S
C1097 C1096 1.363 . S
C1097 C1103 1.428 1_655 S
H1098 C1094 0.930 . S
H1099 C1096 0.929 . S
S1100 N1101 1.613 . S
S1100 N1102 1.610 . S
N1101 S1100 1.613 . S
N1101 C1104 1.350 . S
N1102 S1100 1.610 . S
N1102 C1103 1.351 . S
C1103 C1097 1.428 1_455 S
C1103 N1102 1.351 . S
C1103 C1104 1.434 . S
C1104 C1095 1.429 . S
C1104 N1101 1.350 . S
C1104 C1103 1.434 . S
C1105 C1106 1.369 . S
C1105 C1107 1.419 . S
C1105 H1109 0.930 . S
C1106 C1105 1.369 . S
C1106 C1115 1.429 1_565 S
C1107 C1105 1.419 . S
C1107 C1108 1.363 1_565 S
C1107 H1110 0.929 . S
C1108 C1107 1.363 1_545 S
C1108 C1114 1.428 . S
H1109 C1105 0.930 . S
H1110 C1107 0.929 . S
S1111 N1112 1.613 . S
S1111 N1113 1.610 . S
N1112 S1111 1.613 . S
N1112 C1115 1.350 . S
N1113 S1111 1.610 . S
N1113 C1114 1.351 . S
C1114 C1108 1.428 . S
C1114 N1113 1.351 . S
C1114 C1115 1.434 . S
C1115 C1106 1.429 1_545 S
C1115 N1112 1.350 . S
C1115 C1114 1.434 . S
C1116 C1117 1.369 . S
C1116 C1118 1.419 1_455 S
C1116 H1120 0.930 . S
C1117 C1116 1.369 . S
C1117 C1126 1.429 . S
C1118 C1116 1.419 1_655 S
C1118 C1119 1.363 . S
C1118 H1121 0.929 . S
C1119 C1118 1.363 . S
C1119 C1125 1.428 . S
H1120 C1116 0.930 . S
H1121 C1118 0.929 . S
S1122 N1123 1.613 . S
S1122 N1124 1.610 1_455 S
N1123 S1122 1.613 . S
N1123 C1126 1.350 . S
N1124 S1122 1.610 1_655 S
N1124 C1125 1.351 . S
C1125 C1119 1.428 . S
C1125 N1124 1.351 . S
C1125 C1126 1.434 1_655 S
C1126 C1117 1.429 . S
C1126 N1123 1.350 . S
C1126 C1125 1.434 1_455 S
C1127 C1128 1.369 . S
C1127 C1129 1.419 1_545 S
C1127 H1131 0.930 . S
C1128 C1127 1.369 . S
C1128 C1137 1.429 . S
C1129 C1127 1.419 1_565 S
C1129 C1130 1.363 . S
C1129 H1132 0.929 . S
C1130 C1129 1.363 . S
C1130 C1136 1.428 . S
H1131 C1127 0.930 . S
H1132 C1129 0.929 . S
S1133 N1134 1.613 . S
S1133 N1135 1.610 1_545 S
N1134 S1133 1.613 . S
N1134 C1137 1.350 . S
N1135 S1133 1.610 1_565 S
N1135 C1136 1.351 . S
C1136 C1130 1.428 . S
C1136 N1135 1.351 . S
C1136 C1137 1.434 1_565 S
C1137 C1128 1.429 . S
C1137 N1134 1.350 . S
C1137 C1136 1.434 1_545 S
C1138 C1139 1.369 . S
C1138 C1140 1.419 1_455 S
C1138 H1142 0.930 . S
C1139 C1138 1.369 . S
C1139 C1148 1.429 . S
C1140 C1138 1.419 1_655 S
C1140 C1141 1.363 . S
C1140 H1143 0.929 . S
C1141 C1140 1.363 . S
C1141 C1147 1.428 . S
H1142 C1138 0.930 . S
H1143 C1140 0.929 . S
S1144 N1145 1.613 1_655 S
S1144 N1146 1.610 . S
N1145 S1144 1.613 1_455 S
N1145 C1148 1.350 . S
N1146 S1144 1.610 . S
N1146 C1147 1.351 . S
C1147 C1141 1.428 . S
C1147 N1146 1.351 . S
C1147 C1148 1.434 1_655 S
C1148 C1139 1.429 . S
C1148 N1145 1.350 . S
C1148 C1147 1.434 1_455 S
C1149 C1150 1.369 . S
C1149 C1151 1.419 1_565 S
C1149 H1153 0.930 . S
C1150 C1149 1.369 . S
C1150 C1159 1.429 . S
C1151 C1149 1.419 1_545 S
C1151 C1152 1.363 . S
C1151 H1154 0.929 . S
C1152 C1151 1.363 . S
C1152 C1158 1.428 . S
H1153 C1149 0.930 . S
H1154 C1151 0.929 . S
S1155 N1156 1.613 . S
S1155 N1157 1.610 1_565 S
N1156 S1155 1.613 . S
N1156 C1159 1.350 . S
N1157 S1155 1.610 1_545 S
N1157 C1158 1.351 . S
C1158 C1152 1.428 . S
C1158 N1157 1.351 . S
C1158 C1159 1.434 1_545 S
C1159 C1150 1.429 . S
C1159 N1156 1.350 . S
C1159 C1158 1.434 1_565 S
C545 C22 1.848 . S
C547 C362 1.839 . S
C556 C56 1.843 . S
C558 C396 1.844 . S
C567 C287 1.838 . S
C569 C83 1.847 . S
C578 C328 1.835 . S
C580 C117 1.845 . S
C589 C158 1.836 . S
C591 C498 1.842 . S
C600 C525 1.841 . S
C602 C185 1.838 . S
C611 C423 1.848 . S
C613 C226 1.838 . S
C622 C260 1.837 . S
C624 C464 1.846 . S
C633 C103 1.153 . S
C635 C28 1.135 . S
C644 C3 1.148 . S
C646 C62 1.126 . S
C655 C74 1.125 . S
C657 C37 1.150 . S
C666 C108 1.137 . S
C668 C69 1.155 . S
C677 C171 1.159 . S
C679 C164 1.125 . S
C688 C176 1.133 . S
C690 C207 1.161 . S
C699 C241 1.150 . S
C701 C232 1.124 . S
C710 C139 1.154 . S
C712 C266 1.135 . S
C721 C289 1.799 . S
C723 C380 1.806 1_565 S
C732 C300 1.806 1_455 S
C734 C323 1.799 . S
C743 C357 1.800 . S
C745 C312 1.806 1_545 S
C754 C346 1.805 1_655 S
C756 C391 1.800 . S
C765 C425 1.800 . S
C767 C448 1.806 1_545 S
C776 C482 1.806 1_655 S
C778 C459 1.800 . S
C787 C538 1.806 1_565 S
C789 C493 1.799 . S
C798 C436 1.805 1_455 S
C800 C527 1.801 . S
C809 C470 1.125 . S
C811 C409 1.150 . S
C820 C504 1.124 . S
C822 C445 1.150 . S
C831 C479 1.161 . S
C833 C516 1.126 . S
C842 C511 1.162 . S
C844 C414 1.130 . S
C853 C402 1.137 . S
C855 C273 1.159 . S
C864 C309 1.154 . S
C866 C278 1.135 . S
C875 C343 1.149 . S
C877 C334 1.124 . S
C886 C377 1.161 . S
C888 C368 1.134 . S
C897 C187 1.801 . S
C899 C142 1.805 . S
C908 C198 1.805 . S
C910 C221 1.799 . S
C919 C255 1.798 . S
C921 C210 1.806 . S
C930 C244 1.805 . S
C932 C153 1.800 . S
C941 C119 1.799 . S
C943 C6 1.806 . S
C952 C40 1.806 . S
C954 C17 1.800 . S
C963 C96 1.806 . S
C965 C51 1.799 . S
C974 C130 1.805 . S
C976 C85 1.801 . S
C985 C192 1.551 . S
C987 C15 1.553 . S
C996 C219 1.554 . S
C998 C49 1.551 . S
C1007 C253 1.549 . S
C1009 C90 1.546 . S
C1018 C151 1.547 . S
C1020 C124 1.552 . S
C1029 C457 1.553 . S
C1031 C294 1.553 . S
C1040 C321 1.545 . S
C1042 C491 1.550 . S
C1051 C355 1.553 . S
C1053 C532 1.553 . S
C1062 C389 1.550 . S
C1064 C430 1.547 . S
C1073 C1 1.991 . S
C1075 C71 1.990 . S
C1084 C105 1.988 . S
C1086 C35 1.989 . S
C1095 C137 1.985 . S
C1097 C205 1.985 . S
C1106 C239 1.988 . S
C1108 C173 1.989 . S
C1117 C341 1.988 . S
C1119 C275 1.989 . S
C1128 C375 1.988 . S
C1130 C307 1.989 . S
C1139 C477 1.990 . S
C1141 C411 1.988 . S
C1150 C443 1.991 . S
C1152 C513 1.990 . S
