# Generated by pormake.
# Topology uox, (4)-cn, num edge types: 1
# Building blocks:
#     Node 0, Type 0, BuildingBlock: AZAVOO_clean_sbu_0, # of connection points: 4
#     Node 1, Type 0, BuildingBlock: AZAVOO_clean_sbu_0, # of connection points: 4
#     Node 2, Type 0, BuildingBlock: AZAVOO_clean_sbu_0, # of connection points: 4
#     Node 3, Type 0, BuildingBlock: AZAVOO_clean_sbu_0, # of connection points: 4
#     Node 4, Type 0, BuildingBlock: AZAVOO_clean_sbu_0, # of connection points: 4
#     Node 5, Type 0, BuildingBlock: AZAVOO_clean_sbu_0, # of connection points: 4
#     Node 6, Type 0, BuildingBlock: AZAVOO_clean_sbu_0, # of connection points: 4
#     Node 7, Type 0, BuildingBlock: AZAVOO_clean_sbu_0, # of connection points: 4
#     Node 8, Type 0, BuildingBlock: AZAVOO_clean_sbu_0, # of connection points: 4
#     Node 9, Type 0, BuildingBlock: AZAVOO_clean_sbu_0, # of connection points: 4
#     Node 10, Type 0, BuildingBlock: AZAVOO_clean_sbu_0, # of connection points: 4
#     Node 11, Type 0, BuildingBlock: AZAVOO_clean_sbu_0, # of connection points: 4
#     Node 12, Type 0, BuildingBlock: AZAVOO_clean_sbu_0, # of connection points: 4
#     Node 13, Type 0, BuildingBlock: AZAVOO_clean_sbu_0, # of connection points: 4
#     Node 14, Type 0, BuildingBlock: AZAVOO_clean_sbu_0, # of connection points: 4
#     Node 15, Type 0, BuildingBlock: AZAVOO_clean_sbu_0, # of connection points: 4
#     Node 16, Type 0, BuildingBlock: AZAVOO_clean_sbu_0, # of connection points: 4
#     Node 17, Type 0, BuildingBlock: AZAVOO_clean_sbu_0, # of connection points: 4
#     Node 18, Type 0, BuildingBlock: AZAVOO_clean_sbu_0, # of connection points: 4
#     Node 19, Type 0, BuildingBlock: AZAVOO_clean_sbu_0, # of connection points: 4
#     Node 20, Type 0, BuildingBlock: AZAVOO_clean_sbu_0, # of connection points: 4
#     Node 21, Type 0, BuildingBlock: AZAVOO_clean_sbu_0, # of connection points: 4
#     Node 22, Type 0, BuildingBlock: AZAVOO_clean_sbu_0, # of connection points: 4
#     Node 23, Type 0, BuildingBlock: AZAVOO_clean_sbu_0, # of connection points: 4
#     Node 24, Type 0, BuildingBlock: AZAVOO_clean_sbu_0, # of connection points: 4
#     Node 25, Type 0, BuildingBlock: AZAVOO_clean_sbu_0, # of connection points: 4
#     Node 26, Type 0, BuildingBlock: AZAVOO_clean_sbu_0, # of connection points: 4
#     Node 27, Type 0, BuildingBlock: AZAVOO_clean_sbu_0, # of connection points: 4
#     Node 28, Type 0, BuildingBlock: AZAVOO_clean_sbu_0, # of connection points: 4
#     Node 29, Type 0, BuildingBlock: AZAVOO_clean_sbu_0, # of connection points: 4
#     Node 30, Type 0, BuildingBlock: AZAVOO_clean_sbu_0, # of connection points: 4
#     Node 31, Type 0, BuildingBlock: AZAVOO_clean_sbu_0, # of connection points: 4
#     Edge 32, Type (0, 0), BuildingBlock: KIFKEQ_clean_linker_1, # of connection points: 2
#     Edge 33, Type (0, 0), BuildingBlock: KIFKEQ_clean_linker_1, # of connection points: 2
#     Edge 34, Type (0, 0), BuildingBlock: KIFKEQ_clean_linker_1, # of connection points: 2
#     Edge 35, Type (0, 0), BuildingBlock: KIFKEQ_clean_linker_1, # of connection points: 2
#     Edge 36, Type (0, 0), BuildingBlock: KIFKEQ_clean_linker_1, # of connection points: 2
#     Edge 37, Type (0, 0), BuildingBlock: KIFKEQ_clean_linker_1, # of connection points: 2
#     Edge 38, Type (0, 0), BuildingBlock: KIFKEQ_clean_linker_1, # of connection points: 2
#     Edge 39, Type (0, 0), BuildingBlock: KIFKEQ_clean_linker_1, # of connection points: 2
#     Edge 40, Type (0, 0), BuildingBlock: KIFKEQ_clean_linker_1, # of connection points: 2
#     Edge 41, Type (0, 0), BuildingBlock: KIFKEQ_clean_linker_1, # of connection points: 2
#     Edge 42, Type (0, 0), BuildingBlock: KIFKEQ_clean_linker_1, # of connection points: 2
#     Edge 43, Type (0, 0), BuildingBlock: KIFKEQ_clean_linker_1, # of connection points: 2
#     Edge 44, Type (0, 0), BuildingBlock: KIFKEQ_clean_linker_1, # of connection points: 2
#     Edge 45, Type (0, 0), BuildingBlock: KIFKEQ_clean_linker_1, # of connection points: 2
#     Edge 46, Type (0, 0), BuildingBlock: KIFKEQ_clean_linker_1, # of connection points: 2
#     Edge 47, Type (0, 0), BuildingBlock: KIFKEQ_clean_linker_1, # of connection points: 2
#     Edge 48, Type (0, 0), BuildingBlock: KIFKEQ_clean_linker_1, # of connection points: 2
#     Edge 49, Type (0, 0), BuildingBlock: KIFKEQ_clean_linker_1, # of connection points: 2
#     Edge 50, Type (0, 0), BuildingBlock: KIFKEQ_clean_linker_1, # of connection points: 2
#     Edge 51, Type (0, 0), BuildingBlock: KIFKEQ_clean_linker_1, # of connection points: 2
#     Edge 52, Type (0, 0), BuildingBlock: KIFKEQ_clean_linker_1, # of connection points: 2
#     Edge 53, Type (0, 0), BuildingBlock: KIFKEQ_clean_linker_1, # of connection points: 2
#     Edge 54, Type (0, 0), BuildingBlock: KIFKEQ_clean_linker_1, # of connection points: 2
#     Edge 55, Type (0, 0), BuildingBlock: KIFKEQ_clean_linker_1, # of connection points: 2
#     Edge 56, Type (0, 0), BuildingBlock: KIFKEQ_clean_linker_1, # of connection points: 2
#     Edge 57, Type (0, 0), BuildingBlock: KIFKEQ_clean_linker_1, # of connection points: 2
#     Edge 58, Type (0, 0), BuildingBlock: KIFKEQ_clean_linker_1, # of connection points: 2
#     Edge 59, Type (0, 0), BuildingBlock: KIFKEQ_clean_linker_1, # of connection points: 2
#     Edge 60, Type (0, 0), BuildingBlock: KIFKEQ_clean_linker_1, # of connection points: 2
#     Edge 61, Type (0, 0), BuildingBlock: KIFKEQ_clean_linker_1, # of connection points: 2
#     Edge 62, Type (0, 0), BuildingBlock: KIFKEQ_clean_linker_1, # of connection points: 2
#     Edge 63, Type (0, 0), BuildingBlock: KIFKEQ_clean_linker_1, # of connection points: 2
#     Edge 64, Type (0, 0), BuildingBlock: KIFKEQ_clean_linker_1, # of connection points: 2
#     Edge 65, Type (0, 0), BuildingBlock: KIFKEQ_clean_linker_1, # of connection points: 2
#     Edge 66, Type (0, 0), BuildingBlock: KIFKEQ_clean_linker_1, # of connection points: 2
#     Edge 67, Type (0, 0), BuildingBlock: KIFKEQ_clean_linker_1, # of connection points: 2
#     Edge 68, Type (0, 0), BuildingBlock: KIFKEQ_clean_linker_1, # of connection points: 2
#     Edge 69, Type (0, 0), BuildingBlock: KIFKEQ_clean_linker_1, # of connection points: 2
#     Edge 70, Type (0, 0), BuildingBlock: KIFKEQ_clean_linker_1, # of connection points: 2
#     Edge 71, Type (0, 0), BuildingBlock: KIFKEQ_clean_linker_1, # of connection points: 2
#     Edge 72, Type (0, 0), BuildingBlock: KIFKEQ_clean_linker_1, # of connection points: 2
#     Edge 73, Type (0, 0), BuildingBlock: KIFKEQ_clean_linker_1, # of connection points: 2
#     Edge 74, Type (0, 0), BuildingBlock: KIFKEQ_clean_linker_1, # of connection points: 2
#     Edge 75, Type (0, 0), BuildingBlock: KIFKEQ_clean_linker_1, # of connection points: 2
#     Edge 76, Type (0, 0), BuildingBlock: KIFKEQ_clean_linker_1, # of connection points: 2
#     Edge 77, Type (0, 0), BuildingBlock: KIFKEQ_clean_linker_1, # of connection points: 2
#     Edge 78, Type (0, 0), BuildingBlock: KIFKEQ_clean_linker_1, # of connection points: 2
#     Edge 79, Type (0, 0), BuildingBlock: KIFKEQ_clean_linker_1, # of connection points: 2
#     Edge 80, Type (0, 0), BuildingBlock: KIFKEQ_clean_linker_1, # of connection points: 2
#     Edge 81, Type (0, 0), BuildingBlock: KIFKEQ_clean_linker_1, # of connection points: 2
#     Edge 82, Type (0, 0), BuildingBlock: KIFKEQ_clean_linker_1, # of connection points: 2
#     Edge 83, Type (0, 0), BuildingBlock: KIFKEQ_clean_linker_1, # of connection points: 2
#     Edge 84, Type (0, 0), BuildingBlock: KIFKEQ_clean_linker_1, # of connection points: 2
#     Edge 85, Type (0, 0), BuildingBlock: KIFKEQ_clean_linker_1, # of connection points: 2
#     Edge 86, Type (0, 0), BuildingBlock: KIFKEQ_clean_linker_1, # of connection points: 2
#     Edge 87, Type (0, 0), BuildingBlock: KIFKEQ_clean_linker_1, # of connection points: 2
#     Edge 88, Type (0, 0), BuildingBlock: KIFKEQ_clean_linker_1, # of connection points: 2
#     Edge 89, Type (0, 0), BuildingBlock: KIFKEQ_clean_linker_1, # of connection points: 2
#     Edge 90, Type (0, 0), BuildingBlock: KIFKEQ_clean_linker_1, # of connection points: 2
#     Edge 91, Type (0, 0), BuildingBlock: KIFKEQ_clean_linker_1, # of connection points: 2
#     Edge 92, Type (0, 0), BuildingBlock: KIFKEQ_clean_linker_1, # of connection points: 2
#     Edge 93, Type (0, 0), BuildingBlock: KIFKEQ_clean_linker_1, # of connection points: 2
#     Edge 94, Type (0, 0), BuildingBlock: KIFKEQ_clean_linker_1, # of connection points: 2
#     Edge 95, Type (0, 0), BuildingBlock: KIFKEQ_clean_linker_1, # of connection points: 2
# Relax obj value: 0.135
# Max RMSD: 0.161
# Mean RMSD: 0.161
data_MOF--net-uox--node1-AZAVOO_clean_sbu_0--edge1-KIFKEQ_clean_linker_1
_symmetry_space_group_name_H-M    P1
_symmetry_Int_Tables_number       1
_symmetry_cell_setting            triclinic
loop_
_symmetry_equiv_pos_as_xyz
'x, y, z'
_cell_length_a     43.630874
_cell_length_b     43.637119
_cell_length_c     82.514105
_cell_angle_alpha  90.001604
_cell_angle_beta   90.007358
_cell_angle_gamma 90.024509
loop_
_atom_site_label
_atom_site_type_symbol
_atom_site_fract_x
_atom_site_fract_y
_atom_site_fract_z
_atom_type_partial_charge
Mg0 Mg 0.4827 0.00687 0.15029 0.0
O1 O 0.44471 0.04347 0.14918 0.0
O2 O 0.40245 0.02404 0.16048 0.0
Mg3 Mg 0.41351 0.97605 0.16983 0.0
C4 C 0.41656 0.04576 0.15327 0.0
C5 C 0.52237 0.04964 0.12796 0.0
O6 O 0.5056 0.03606 0.11685 0.0
O7 O 0.49128 0.01603 0.17733 0.0
O8 O 0.44802 0.99626 0.18758 0.0
O9 O 0.4638 0.98576 0.12726 0.0
O10 O 0.45029 0.9722 0.15197 0.0
C11 C 0.47395 0.00942 0.18933 0.0
C12 C 0.44676 0.96918 0.13665 0.0
O13 O 0.5181 0.04289 0.14278 0.0
Mg14 Mg 0.25209 0.22648 0.40349 0.0
O15 O 0.21189 0.19222 0.40141 0.0
O16 O 0.2253 0.14912 0.41416 0.0
Mg17 Mg 0.27226 0.15647 0.42579 0.0
C18 C 0.20629 0.16467 0.40576 0.0
C19 C 0.20169 0.26242 0.38278 0.0
O20 O 0.19637 0.23522 0.37657 0.0
O21 O 0.23975 0.23808 0.42969 0.0
O22 O 0.253 0.19435 0.44212 0.0
O23 O 0.27483 0.20459 0.38191 0.0
O24 O 0.2828 0.19087 0.40729 0.0
C25 C 0.24252 0.22167 0.44242 0.0
C26 C 0.28818 0.18654 0.39218 0.0
O27 O 0.22216 0.2654 0.39365 0.0
Mg28 Mg 0.02196 0.99412 0.65379 0.0
O29 O 0.05606 0.954 0.65397 0.0
O30 O 0.0967 0.96728 0.66883 0.0
Mg31 Mg 0.08843 0.01563 0.67861 0.0
C32 C 0.08244 0.9481 0.65991 0.0
C33 C 0.97789 0.96243 0.62855 0.0
O34 O 0.99188 0.98151 0.6187 0.0
O35 O 0.00619 0.98438 0.67968 0.0
O36 O 0.04763 0.99909 0.69373 0.0
O37 O 0.04741 0.0144 0.63267 0.0
O38 O 0.0573 0.02503 0.65828 0.0
C39 C 0.02032 0.98867 0.69303 0.0
C40 C 0.06416 0.02851 0.64327 0.0
O41 O 0.98529 0.96217 0.64346 0.0
Mg42 Mg 0.25447 0.77682 0.8987 0.0
O43 O 0.29471 0.81121 0.89866 0.0
O44 O 0.28067 0.85145 0.91366 0.0
Mg45 Mg 0.23223 0.84337 0.92331 0.0
C46 C 0.30012 0.83764 0.90471 0.0
C47 C 0.30623 0.74209 0.87809 0.0
O48 O 0.31246 0.76958 0.87252 0.0
O49 O 0.26418 0.76141 0.92473 0.0
O50 O 0.24796 0.80254 0.93855 0.0
O51 O 0.23395 0.80173 0.8774 0.0
O52 O 0.22378 0.8122 0.90299 0.0
C53 C 0.25885 0.77542 0.93802 0.0
C54 C 0.22 0.81869 0.88797 0.0
O55 O 0.28488 0.73872 0.88843 0.0
Mg56 Mg 0.48476 0.99505 0.34497 0.0
O57 O 0.4479 0.95728 0.34641 0.0
O58 O 0.40565 0.97424 0.33405 0.0
Mg59 Mg 0.41555 0.0219 0.32386 0.0
C60 C 0.42009 0.95363 0.34194 0.0
C61 C 0.5275 0.95894 0.36881 0.0
O62 O 0.51279 0.97637 0.3792 0.0
O63 O 0.49491 0.98396 0.31829 0.0
O64 O 0.45157 1.00148 0.30702 0.0
O65 O 0.46436 0.01736 0.36722 0.0
O66 O 0.45129 0.02851 0.34211 0.0
C67 C 0.47797 0.98904 0.30594 0.0
C68 C 0.4472 0.03268 0.35732 0.0
O69 O 0.52091 0.96092 0.35383 0.0
Mg70 Mg 0.25634 0.22453 0.59719 0.0
O71 O 0.29465 0.18887 0.59531 0.0
O72 O 0.27719 0.14867 0.58139 0.0
Mg73 Mg 0.22725 0.15843 0.57426 0.0
C74 C 0.29846 0.16225 0.58924 0.0
C75 C 0.2819 0.28681 0.60893 0.0
O76 O 0.25294 0.29341 0.60628 0.0
O77 O 0.26253 0.23934 0.57065 0.0
O78 O 0.24062 0.19908 0.55835 0.0
O79 O 0.23805 0.20028 0.61944 0.0
O80 O 0.22325 0.19071 0.59442 0.0
C81 C 0.2529 0.22562 0.55795 0.0
C82 C 0.22146 0.18428 0.60954 0.0
O83 O 0.29116 0.2597 0.60621 0.0
Mg84 Mg 0.02138 0.01086 0.84554 0.0
O85 O 0.05633 0.05014 0.84401 0.0
O86 O 0.09593 0.03446 0.82904 0.0
Mg87 Mg 0.08627 0.98539 0.82063 0.0
C88 C 0.08258 0.05481 0.83762 0.0
C89 C 0.97726 0.04318 0.87024 0.0
O90 O 0.98975 0.02285 0.87995 0.0
O91 O 0.00477 0.01877 0.81958 0.0
O92 O 0.04499 1.0008 0.8056 0.0
O93 O 0.04728 0.99161 0.86689 0.0
O94 O 0.05568 0.9788 0.84142 0.0
C95 C 0.01808 0.0122 0.80625 0.0
C96 C 0.06309 0.97621 0.85639 0.0
O97 O 0.98576 0.04421 0.85552 0.0
Mg98 Mg 0.248 0.77884 0.09118 0.0
O99 O 0.20778 0.81334 0.0925 0.0
O100 O 0.22097 0.854 0.07759 0.0
Mg101 Mg 0.26852 0.8462 0.06678 0.0
C102 C 0.20208 0.83998 0.08679 0.0
C103 C 0.19803 0.74311 0.11262 0.0
O104 O 0.19205 0.77036 0.11858 0.0
O105 O 0.23618 0.7645 0.06527 0.0
O106 O 0.25082 0.8062 0.05143 0.0
O107 O 0.27048 0.80251 0.11223 0.0
O108 O 0.27862 0.81428 0.08659 0.0
C109 C 0.24001 0.77903 0.052 0.0
C110 C 0.28383 0.81984 0.10161 0.0
O111 O 0.21849 0.74029 0.10174 0.0
Mg112 Mg 0.52567 0.99858 0.84341 0.0
O113 O 0.56238 0.96078 0.8456 0.0
O114 O 0.60492 0.97684 0.83313 0.0
Mg115 Mg 0.59623 0.02484 0.82316 0.0
C116 C 0.59012 0.95662 0.84112 0.0
C117 C 0.46654 0.97452 0.86023 0.0
O118 O 0.46398 0.00416 0.86269 0.0
O119 O 0.51698 0.98719 0.81657 0.0
O120 O 0.56052 0.00536 0.80585 0.0
O121 O 0.54348 0.0217 0.86597 0.0
O122 O 0.5601 0.03125 0.8412 0.0
C123 C 0.53421 0.99284 0.8044 0.0
C124 C 0.56241 0.03586 0.8565 0.0
O125 O 0.48938 0.96461 0.85224 0.0
Mg126 Mg 0.75824 0.76929 0.59486 0.0
O127 O 0.79506 0.80706 0.59578 0.0
O128 O 0.7777 0.84806 0.58247 0.0
Mg129 Mg 0.7306 0.83622 0.5721 0.0
C130 C 0.79833 0.83459 0.5908 0.0
C131 C 0.78296 0.70935 0.61006 0.0
O132 O 0.75353 0.70344 0.60874 0.0
O133 O 0.77022 0.75719 0.56851 0.0
O134 O 0.75199 0.7992 0.55621 0.0
O135 O 0.73489 0.79069 0.61647 0.0
O136 O 0.72409 0.8017 0.59102 0.0
C137 C 0.76498 0.773 0.55577 0.0
C138 C 0.7194 0.80675 0.60612 0.0
O139 O 0.79291 0.73511 0.60514 0.0
Mg140 Mg 0.98616 0.99931 0.34366 0.0
O141 O 0.94841 0.03638 0.34595 0.0
O142 O 0.90639 0.01818 0.33383 0.0
Mg143 Mg 0.91688 0.97133 0.32293 0.0
C144 C 0.9203 0.03907 0.34179 0.0
C145 C 0.01973 0.05307 0.36344 0.0
O146 O 0.99271 0.05673 0.37018 0.0
O147 O 0.99506 0.01158 0.31695 0.0
O148 O 0.95181 0.99315 0.30598 0.0
O149 O 0.96719 0.97563 0.36591 0.0
O150 O 0.95319 0.96542 0.34083 0.0
C151 C 0.97782 0.00633 0.30473 0.0
C152 C 0.94983 0.96046 0.35602 0.0
O153 O 0.02321 0.03266 0.35258 0.0
Mg154 Mg 0.74945 0.2396 0.09906 0.0
O155 O 0.71133 0.20294 0.10119 0.0
O156 O 0.72741 0.16089 0.08825 0.0
Mg157 Mg 0.77527 0.16957 0.0781 0.0
C158 C 0.70721 0.17534 0.09643 0.0
C159 C 0.71714 0.28703 0.12217 0.0
O160 O 0.73788 0.2762 0.13219 0.0
O161 O 0.73721 0.24862 0.0724 0.0
O162 O 0.75502 0.2054 0.06112 0.0
O163 O 0.77311 0.22082 0.12137 0.0
O164 O 0.78181 0.20509 0.09638 0.0
C165 C 0.74236 0.23167 0.06007 0.0
C166 C 0.78681 0.20213 0.11159 0.0
O167 O 0.71599 0.27658 0.10779 0.0
Mg168 Mg 0.52483 0.00407 0.64925 0.0
O169 O 0.56236 0.04107 0.64662 0.0
O170 O 0.60406 0.02458 0.65965 0.0
Mg171 Mg 0.59346 0.97826 0.67122 0.0
C172 C 0.5902 0.04459 0.65107 0.0
C173 C 0.48061 0.03642 0.62462 0.0
O174 O 0.49298 0.01582 0.61503 0.0
O175 O 0.51464 0.01778 0.67561 0.0
O176 O 0.5575 1.00046 0.68745 0.0
O177 O 0.54483 0.97918 0.6277 0.0
O178 O 0.55776 0.97039 0.65309 0.0
C179 C 0.5313 0.01339 0.68815 0.0
C180 C 0.56178 0.96461 0.63802 0.0
O181 O 0.48917 0.03771 0.63934 0.0
Mg182 Mg 0.75099 0.76883 0.40137 0.0
O183 O 0.71363 0.80602 0.40002 0.0
O184 O 0.73016 0.84746 0.41326 0.0
Mg185 Mg 0.77738 0.83673 0.42379 0.0
C186 C 0.70986 0.83355 0.40489 0.0
C187 C 0.72642 0.70713 0.38776 0.0
O188 O 0.75536 0.70047 0.39041 0.0
O189 O 0.73882 0.75723 0.42777 0.0
O190 O 0.75642 0.79973 0.43987 0.0
O191 O 0.77453 0.78995 0.37973 0.0
O192 O 0.78469 0.80185 0.40513 0.0
C193 C 0.74377 0.77336 0.44044 0.0
C194 C 0.78967 0.80649 0.39002 0.0
O195 O 0.71686 0.73386 0.39122 0.0
Mg196 Mg 0.9763 0.99978 0.14905 0.0
O197 O 0.93814 0.96351 0.146 0.0
O198 O 0.8962 0.98067 0.1586 0.0
Mg199 Mg 0.90675 0.02724 0.16985 0.0
C200 C 0.91012 0.96038 0.15024 0.0
C201 C 0.03542 0.97527 0.13249 0.0
O202 O 0.03913 0.00504 0.1311 0.0
O203 O 0.98447 0.9861 0.17561 0.0
O204 O 0.94162 0.00504 0.1867 0.0
O205 O 0.95917 0.02532 0.127 0.0
O206 O 0.94316 0.03355 0.152 0.0
C207 C 0.96742 0.99145 0.1879 0.0
C208 C 0.94085 0.03939 0.13683 0.0
O209 O 0.01161 0.96525 0.13963 0.0
Mg210 Mg 0.75155 0.23016 0.90372 0.0
O211 O 0.78904 0.19312 0.90167 0.0
O212 O 0.77099 0.14974 0.91242 0.0
Mg213 Mg 0.72228 0.15834 0.9214 0.0
C214 C 0.79226 0.1649 0.90545 0.0
C215 C 0.77724 0.29263 0.89178 0.0
O216 O 0.74761 0.29798 0.89159 0.0
O217 O 0.76077 0.23618 0.93097 0.0
O218 O 0.74081 0.19212 0.94004 0.0
O219 O 0.73049 0.21439 0.88015 0.0
O220 O 0.71821 0.19624 0.90428 0.0
C221 C 0.75368 0.21799 0.94253 0.0
C222 C 0.71519 0.19504 0.88885 0.0
O223 O 0.78669 0.26665 0.89663 0.0
Mg224 Mg 0.98126 0.50172 0.65513 0.0
O225 O 0.94467 0.53998 0.65338 0.0
O226 O 0.90234 0.52301 0.66568 0.0
Mg227 Mg 0.91145 0.47527 0.67586 0.0
C228 C 0.9168 0.54358 0.65777 0.0
C229 C 0.01566 0.55488 0.63565 0.0
O230 O 0.98873 0.55846 0.6288 0.0
O231 O 0.99113 0.51212 0.68195 0.0
O232 O 0.94768 0.49445 0.69299 0.0
O233 O 0.9614 0.47977 0.63267 0.0
O234 O 0.94722 0.4688 0.65765 0.0
C235 C 0.9742 0.50658 0.69426 0.0
C236 C 0.94363 0.46467 0.6424 0.0
O237 O 0.01901 0.5345 0.64654 0.0
Mg238 Mg 0.74917 0.73005 0.90076 0.0
O239 O 0.70868 0.69621 0.89902 0.0
O240 O 0.72113 0.65401 0.91286 0.0
Mg241 Mg 0.76934 0.65999 0.92309 0.0
C242 C 0.70235 0.66934 0.90421 0.0
C243 C 0.71174 0.77178 0.87678 0.0
O244 O 0.72336 0.75242 0.86625 0.0
O245 O 0.7383 0.74193 0.92714 0.0
O246 O 0.75272 0.6986 0.93949 0.0
O247 O 0.77125 0.70903 0.87878 0.0
O248 O 0.77929 0.69341 0.90385 0.0
C249 C 0.74232 0.72591 0.9399 0.0
C250 C 0.78416 0.68986 0.88862 0.0
O251 O 0.71815 0.76862 0.89171 0.0
Mg252 Mg 0.51549 0.50212 0.1461 0.0
O253 O 0.55394 0.4664 0.14787 0.0
O254 O 0.59375 0.48792 0.16049 0.0
Mg255 Mg 0.58116 0.53754 0.16691 0.0
C256 C 0.58124 0.46509 0.1534 0.0
C257 C 0.45617 0.47386 0.13257 0.0
O258 O 0.45024 0.50339 0.1325 0.0
O259 O 0.50314 0.49669 0.17318 0.0
O260 O 0.54276 0.52262 0.18378 0.0
O261 O 0.53719 0.52067 0.12307 0.0
O262 O 0.54693 0.53759 0.14768 0.0
C263 C 0.51723 0.50864 0.18524 0.0
C264 C 0.55244 0.53889 0.13247 0.0
O265 O 0.48195 0.46486 0.13795 0.0
Mg266 Mg 0.75774 0.26863 0.39749 0.0
O267 O 0.79289 0.30793 0.39542 0.0
O268 O 0.77323 0.34927 0.4075 0.0
Mg269 Mg 0.72676 0.33639 0.41826 0.0
C270 C 0.79461 0.3361 0.39958 0.0
C271 C 0.78544 0.20689 0.38686 0.0
O272 O 0.75726 0.19938 0.39085 0.0
O273 O 0.77009 0.25984 0.42417 0.0
O274 O 0.74986 0.3022 0.43519 0.0
O275 O 0.73377 0.28682 0.37523 0.0
O276 O 0.72218 0.2998 0.40032 0.0
C277 C 0.76406 0.27673 0.43642 0.0
C278 C 0.71756 0.30326 0.3851 0.0
O279 O 0.79373 0.23467 0.38836 0.0
Mg280 Mg 0.98336 0.4953 0.84832 0.0
O281 O 0.94497 0.45914 0.85107 0.0
O282 O 0.9046 0.47514 0.83677 0.0
Mg283 Mg 0.91664 0.52037 0.82455 0.0
C284 C 0.91745 0.45567 0.84609 0.0
C285 C 0.0431 0.47192 0.86468 0.0
O286 O 0.04901 0.50132 0.86319 0.0
O287 O 0.9951 0.47957 0.82246 0.0
O288 O 0.95348 0.49688 0.80947 0.0
O289 O 0.96293 0.52208 0.86903 0.0
O290 O 0.95106 0.52917 0.84334 0.0
C291 C 0.97948 0.48351 0.80953 0.0
C292 C 0.94645 0.53604 0.85826 0.0
O293 O 0.01752 0.46176 0.85961 0.0
Mg294 Mg 0.75814 0.72596 0.092 0.0
O295 O 0.79574 0.68919 0.09427 0.0
O296 O 0.78161 0.64861 0.07959 0.0
Mg297 Mg 0.7359 0.65937 0.06744 0.0
C298 C 0.80045 0.66203 0.08906 0.0
C299 C 0.78118 0.78873 0.10428 0.0
O300 O 0.75388 0.79561 0.09863 0.0
O301 O 0.77322 0.73945 0.06646 0.0
O302 O 0.75789 0.6979 0.05273 0.0
O303 O 0.73255 0.70363 0.11245 0.0
O304 O 0.72561 0.69258 0.08662 0.0
C305 C 0.77011 0.72447 0.05328 0.0
C306 C 0.71905 0.68717 0.1015 0.0
O307 O 0.79028 0.76112 0.10345 0.0
Mg308 Mg 0.52648 0.50282 0.34037 0.0
O309 O 0.5644 0.53934 0.34299 0.0
O310 O 0.60555 0.52301 0.32945 0.0
Mg311 Mg 0.59405 0.47705 0.3176 0.0
C312 C 0.59213 0.5428 0.33836 0.0
C313 C 0.48898 0.54198 0.36557 0.0
O314 O 0.50748 0.52772 0.37562 0.0
O315 O 0.51584 0.51678 0.31424 0.0
O316 O 0.55779 0.4996 0.30147 0.0
O317 O 0.54648 0.47757 0.36168 0.0
O318 O 0.55904 0.4689 0.3362 0.0
C319 C 0.53155 0.51254 0.30137 0.0
C320 C 0.56322 0.46299 0.35126 0.0
O321 O 0.49138 0.53687 0.35045 0.0
Mg322 Mg 0.74791 0.27481 0.59193 0.0
O323 O 0.71077 0.31227 0.59322 0.0
O324 O 0.72869 0.35434 0.58108 0.0
Mg325 Mg 0.77643 0.34374 0.5712 0.0
C326 C 0.70766 0.34016 0.58879 0.0
C327 C 0.72309 0.21301 0.60471 0.0
O328 O 0.75246 0.20725 0.60292 0.0
O329 O 0.7373 0.2649 0.56515 0.0
O330 O 0.75608 0.30798 0.55418 0.0
O331 O 0.77013 0.29446 0.61435 0.0
O332 O 0.78204 0.30769 0.58935 0.0
C333 C 0.74322 0.28181 0.55288 0.0
C334 C 0.78602 0.31146 0.6046 0.0
O335 O 0.71312 0.23944 0.60094 0.0
Mg336 Mg 0.02821 0.49459 0.34495 0.0
O337 O 0.06385 0.45587 0.34662 0.0
O338 O 0.10696 0.47125 0.33453 0.0
Mg339 Mg 0.09815 0.51855 0.32361 0.0
C340 C 0.09167 0.45131 0.34245 0.0
C341 C 0.96433 0.47085 0.35607 0.0
O342 O 0.95769 0.49921 0.35204 0.0
O343 O 0.01736 0.4831 0.31843 0.0
O344 O 0.06125 0.49878 0.30701 0.0
O345 O 0.04938 0.51704 0.36694 0.0
O346 O 0.0625 0.52709 0.34169 0.0
C347 C 0.03441 0.48725 0.30603 0.0
C348 C 0.06679 0.53169 0.35685 0.0
O349 O 0.99176 0.46154 0.35446 0.0
Mg350 Mg 0.25264 0.26802 0.09275 0.0
O351 O 0.28973 0.30558 0.0934 0.0
O352 O 0.2723 0.34584 0.07946 0.0
Mg353 Mg 0.2249 0.33404 0.06937 0.0
C354 C 0.29291 0.33288 0.08805 0.0
C355 C 0.28695 0.22494 0.1172 0.0
O356 O 0.26652 0.23699 0.12699 0.0
O357 O 0.26378 0.2553 0.06649 0.0
O358 O 0.24515 0.29627 0.05339 0.0
O359 O 0.23064 0.29017 0.11441 0.0
O360 O 0.21871 0.3008 0.08903 0.0
C361 C 0.25805 0.27003 0.05347 0.0
C362 C 0.21516 0.3065 0.10417 0.0
O363 O 0.28739 0.23329 0.10244 0.0
Mg364 Mg 0.4802 0.50931 0.84174 0.0
O365 O 0.44485 0.54835 0.84317 0.0
O366 O 0.4021 0.53329 0.83062 0.0
Mg367 Mg 0.41057 0.48571 0.81999 0.0
C368 C 0.41725 0.55313 0.83868 0.0
C369 C 0.51812 0.55025 0.86579 0.0
O370 O 0.49747 0.53952 0.87589 0.0
O371 O 0.49151 0.52038 0.81528 0.0
O372 O 0.44798 0.50478 0.80345 0.0
O373 O 0.45868 0.48691 0.86367 0.0
O374 O 0.44566 0.47712 0.8384 0.0
C375 C 0.47493 0.51612 0.80271 0.0
C376 C 0.44126 0.47239 0.85354 0.0
O377 O 0.51705 0.54219 0.85099 0.0
Mg378 Mg 0.24529 0.73124 0.59413 0.0
O379 O 0.20639 0.69595 0.59742 0.0
O380 O 0.21977 0.6529 0.58466 0.0
Mg381 Mg 0.26586 0.66072 0.57231 0.0
C382 C 0.20104 0.66823 0.59333 0.0
C383 C 0.20677 0.7692 0.61917 0.0
O384 O 0.21827 0.74836 0.62892 0.0
O385 O 0.23111 0.74166 0.56794 0.0
O386 O 0.24551 0.69783 0.55605 0.0
O387 O 0.27082 0.71097 0.6154 0.0
O388 O 0.27704 0.69642 0.59007 0.0
C389 C 0.23417 0.72477 0.5554 0.0
C390 C 0.28398 0.69297 0.60505 0.0
O391 O 0.21361 0.76837 0.60419 0.0
Mg392 Mg 0.02935 0.50812 0.15165 0.0
O393 O 0.06474 0.54697 0.14952 0.0
O394 O 0.1083 0.53218 0.16132 0.0
Mg395 Mg 0.10022 0.48467 0.17221 0.0
C396 C 0.09258 0.55191 0.1535 0.0
C397 C 0.96742 0.53007 0.13725 0.0
O398 O 0.96299 0.50031 0.13789 0.0
O399 O 0.01956 0.51974 0.17827 0.0
O400 O 0.0638 0.50398 0.18926 0.0
O401 O 0.0493 0.4853 0.12949 0.0
O402 O 0.06379 0.47576 0.15458 0.0
C403 C 0.03697 0.51544 0.19052 0.0
C404 C 0.06711 0.47069 0.13938 0.0
O405 O 0.99266 0.54094 0.14235 0.0
Mg406 Mg 0.25242 0.2713 0.8986 0.0
O407 O 0.21513 0.30824 0.89997 0.0
O408 O 0.23316 0.3474 0.91453 0.0
Mg409 Mg 0.28219 0.33585 0.92254 0.0
C410 C 0.21194 0.33485 0.90618 0.0
C411 C 0.21361 0.2325 0.87389 0.0
O412 O 0.2305 0.24817 0.86364 0.0
O413 O 0.24417 0.25625 0.92493 0.0
O414 O 0.26616 0.29555 0.93803 0.0
O415 O 0.27245 0.29556 0.87686 0.0
O416 O 0.2864 0.30416 0.90211 0.0
C417 C 0.25303 0.26942 0.93794 0.0
C418 C 0.28883 0.31103 0.88707 0.0
O419 O 0.21701 0.23705 0.88901 0.0
Mg420 Mg 0.48057 0.49843 0.6491 0.0
O421 O 0.4441 0.46008 0.6473 0.0
O422 O 0.40318 0.47554 0.6614 0.0
Mg423 Mg 0.41276 0.52252 0.6723 0.0
C424 C 0.41683 0.45582 0.65254 0.0
C425 C 0.52519 0.46569 0.6246 0.0
O426 O 0.51168 0.48472 0.61454 0.0
O427 O 0.49268 0.48585 0.6753 0.0
O428 O 0.45055 0.50239 0.68803 0.0
O429 O 0.45996 0.52201 0.62743 0.0
O430 O 0.44575 0.53065 0.65267 0.0
C431 C 0.47711 0.49022 0.68818 0.0
C432 C 0.44171 0.53566 0.63747 0.0
O433 O 0.51726 0.46569 0.63943 0.0
Mg434 Mg 0.26271 0.72579 0.40221 0.0
O435 O 0.3022 0.69086 0.40083 0.0
O436 O 0.28806 0.64858 0.41409 0.0
Mg437 Mg 0.24003 0.65626 0.42435 0.0
C438 C 0.30755 0.66361 0.40572 0.0
C439 C 0.29663 0.76981 0.37791 0.0
O440 O 0.27943 0.75467 0.36758 0.0
O441 O 0.27328 0.73778 0.42872 0.0
O442 O 0.25784 0.6944 0.44075 0.0
O443 O 0.2406 0.70355 0.38038 0.0
O444 O 0.231 0.69086 0.40572 0.0
C445 C 0.26879 0.72152 0.44138 0.0
C446 C 0.22628 0.68616 0.3906 0.0
O447 O 0.29509 0.76313 0.39289 0.0
H448 H 0.53 0.01177 0.29211 0.0
H449 H 0.44993 0.95664 0.28258 0.0
H450 H 0.53716 0.01935 0.26278 0.0
H451 H 0.45725 0.96376 0.25353 0.0
H452 H 0.44081 0.03188 0.21405 0.0
H453 H 0.45065 0.02363 0.24277 0.0
H454 H 0.53964 0.9862 0.23149 0.0
H455 H 0.52979 0.99475 0.20241 0.0
C456 C 0.51498 0.99997 0.28372 0.0
C457 C 0.48941 0.98364 0.28947 0.0
C458 C 0.51894 0.00449 0.26701 0.0
C459 C 0.49738 0.99259 0.25606 0.0
C460 C 0.47394 0.97343 0.26182 0.0
C461 C 0.46989 0.96913 0.27838 0.0
C462 C 0.46292 0.02295 0.21772 0.0
C463 C 0.48448 0.01382 0.20609 0.0
C464 C 0.46846 0.018 0.2341 0.0
C465 C 0.49557 0.00364 0.23918 0.0
C466 C 0.51853 0.99718 0.22776 0.0
C467 C 0.51299 0.0023 0.21121 0.0
H468 H 0.29963 0.23827 0.53692 0.0
H469 H 0.20203 0.24667 0.54373 0.0
H470 H 0.29315 0.24904 0.50789 0.0
H471 H 0.19546 0.25737 0.5149 0.0
H472 H 0.20519 0.19968 0.46573 0.0
H473 H 0.20609 0.21336 0.49439 0.0
H474 H 0.27127 0.28539 0.48433 0.0
H475 H 0.2695 0.27214 0.45537 0.0
C476 C 0.27707 0.24391 0.53232 0.0
C477 C 0.25132 0.24179 0.5424 0.0
C478 C 0.2733 0.25003 0.51576 0.0
C479 C 0.24374 0.25375 0.50919 0.0
C480 C 0.21843 0.25449 0.51966 0.0
C481 C 0.22221 0.2485 0.53612 0.0
C482 C 0.21868 0.21924 0.46957 0.0
C483 C 0.23697 0.23513 0.45845 0.0
C484 C 0.21926 0.22708 0.48594 0.0
C485 C 0.23879 0.25044 0.49154 0.0
C486 C 0.25598 0.26739 0.48028 0.0
C487 C 0.25476 0.26001 0.46377 0.0
H488 H 0.01967 0.05594 0.7829 0.0
H489 H 0.98084 0.96806 0.79503 0.0
H490 H 0.00604 0.04789 0.75442 0.0
H491 H 0.96796 0.95949 0.76649 0.0
H492 H 0.03012 0.94765 0.71705 0.0
H493 H 0.01504 0.9541 0.74539 0.0
H494 H 0.96165 0.03366 0.73242 0.0
H495 H 0.97591 0.02638 0.7039 0.0
C496 C 0.00685 0.03564 0.77955 0.0
C497 C 1.00085 0.01279 0.79103 0.0
C498 C 0.9991 0.03095 0.76329 0.0
C499 C 0.98602 0.00302 0.75833 0.0
C500 C 0.97784 0.98125 0.77007 0.0
C501 C 0.98504 0.98622 0.78635 0.0
C502 C 0.01388 0.96547 0.72018 0.0
C503 C 0.00377 0.98626 0.70842 0.0
C504 C 0.00527 0.96924 0.73635 0.0
C505 C 0.98721 0.99442 0.74102 0.0
C506 C 0.9754 0.014 0.72906 0.0
C507 C 0.98338 0.00971 0.7128 0.0
H508 H 0.30335 0.77812 0.96096 0.0
H509 H 0.21522 0.73851 0.95007 0.0
H510 H 0.29635 0.76544 0.98966 0.0
H511 H 0.20766 0.72672 0.97883 0.0
H512 H 0.19883 0.7907 0.02825 0.0
H513 H 0.20403 0.77578 -0.00021 0.0
H514 H 0.28224 0.71981 0.01194 0.0
H515 H 0.27615 0.73381 0.04058 0.0
C516 C 0.28321 0.76536 0.96464 0.0
C517 C 0.26003 0.7588 0.95342 0.0
C518 C 0.27912 0.75817 0.98101 0.0
C519 C 0.25143 0.74515 0.98637 0.0
C520 C 0.22926 0.73653 0.97494 0.0
C521 C 0.23366 0.74311 0.95853 0.0
C522 C 0.21606 0.77397 0.02492 0.0
C523 C 0.23679 0.76298 0.0365 0.0
C524 C 0.21912 0.76548 0.00868 0.0
C525 C 0.24355 0.74666 0.00376 0.0
C526 C 0.26312 0.73413 0.01551 0.0
C527 C 0.25951 0.74197 0.03184 0.0
H528 H 0.56569 0.96829 0.77959 0.0
H529 H 0.47882 0.00974 0.7916 0.0
H530 H 0.55579 0.977 0.75091 0.0
H531 H 0.46894 0.01873 0.76257 0.0
H532 H 0.47833 0.99209 0.70159 0.0
H533 H 0.47043 0.98453 0.73086 0.0
H534 H 0.55119 0.03847 0.74065 0.0
H535 H 0.55926 0.04562 0.71166 0.0
C536 C 0.54394 0.97821 0.77601 0.0
C537 C 0.52307 0.98843 0.78774 0.0
C538 C 0.53839 0.98342 0.75965 0.0
C539 C 0.51195 0.99911 0.75468 0.0
C540 C 0.48952 0.00668 0.7662 0.0
C541 C 0.49506 1.0013 0.78273 0.0
C542 C 0.49338 0.00363 0.71008 0.0
C543 C 0.51941 0.01944 0.70449 0.0
C544 C 0.48898 0.99909 0.72676 0.0
C545 C 0.51055 0.01048 0.73785 0.0
C546 C 0.53446 0.02924 0.73226 0.0
C547 C 0.53893 0.03356 0.71571 0.0
H548 H 0.7138 0.80057 0.465 0.0
H549 H 0.76488 0.71923 0.45264 0.0
H550 H 0.72192 0.79016 0.49372 0.0
H551 H 0.77343 0.70899 0.48165 0.0
H552 H 0.74279 0.7194 0.54351 0.0
H553 H 0.73432 0.70944 0.51448 0.0
H554 H 0.78818 0.78923 0.50263 0.0
H555 H 0.79621 0.79938 0.53139 0.0
C556 C 0.72554 0.7797 0.46849 0.0
C557 C 0.73865 0.76066 0.4567 0.0
C558 C 0.73037 0.77387 0.48487 0.0
C559 C 0.7486 0.74905 0.48974 0.0
C560 C 0.7592 0.72818 0.47809 0.0
C561 C 0.7541 0.73391 0.46157 0.0
C562 C 0.75411 0.73378 0.53464 0.0
C563 C 0.77022 0.7601 0.53957 0.0
C564 C 0.74906 0.72821 0.5181 0.0
C565 C 0.76035 0.74882 0.50649 0.0
C566 C 0.77921 0.77313 0.51144 0.0
C567 C 0.78399 0.77881 0.52785 0.0
H568 H 0.0288 0.9838 0.2898 0.0
H569 H 0.94877 0.04 0.28225 0.0
H570 H 0.03396 0.97714 0.26029 0.0
H571 H 0.95409 0.03375 0.25303 0.0
H572 H 0.93459 0.96861 0.21271 0.0
H573 H 0.94578 0.97537 0.24139 0.0
H574 H 0.0355 0.01043 0.22957 0.0
H575 H 0.02427 0.00345 0.20053 0.0
C576 C 0.01338 0.99604 0.2818 0.0
C577 C 0.98841 0.01246 0.28817 0.0
C578 C 0.01618 0.99201 0.26498 0.0
C579 C 0.99403 0.00443 0.25454 0.0
C580 C 0.9712 0.02363 0.26091 0.0
C581 C 0.96833 0.02749 0.27758 0.0
C582 C 0.95712 0.97669 0.21623 0.0
C583 C 0.9785 0.98567 0.20446 0.0
C584 C 0.96343 0.98081 0.2326 0.0
C585 C 0.99116 0.99413 0.23755 0.0
C586 C 0.01389 1.00029 0.22595 0.0
C587 C 0.00757 0.99603 0.20941 0.0
H588 H 0.74935 0.27585 0.95569 0.0
H589 H 0.76507 0.1809 0.96793 0.0
H590 H 0.74254 0.28781 0.98468 0.0
H591 H 0.75829 0.19275 0.99645 0.0
H592 H 0.70239 0.20686 0.03911 0.0
H593 H 0.70584 0.21049 0.00968 0.0
H594 H 0.77375 0.28191 0.01422 0.0
H595 H 0.76979 0.27857 0.0439 0.0
C596 C 0.75223 0.2578 0.96457 0.0
C597 C 0.75734 0.22738 0.9596 0.0
C598 C 0.74809 0.2646 0.98107 0.0
C599 C 0.74897 0.24098 0.99263 0.0
C600 C 0.75663 0.21119 0.98769 0.0
C601 C 0.76076 0.20447 0.97139 0.0
C602 C 0.71685 0.2244 0.03381 0.0
C603 C 0.73569 0.24253 0.04364 0.0
C604 C 0.71908 0.22629 0.01701 0.0
C605 C 0.74055 0.24602 0.00978 0.0
C606 C 0.75704 0.26656 0.01955 0.0
C607 C 0.75462 0.2648 0.03648 0.0
H608 H 0.03035 0.48952 0.70602 0.0
H609 H 0.94378 0.52951 0.71989 0.0
H610 H 0.0419 0.47927 0.73477 0.0
H611 H 0.95534 0.51954 0.74829 0.0
H612 H 0.95476 0.44819 0.78622 0.0
H613 H 0.96298 0.45558 0.75725 0.0
H614 H 0.03968 0.51491 0.76737 0.0
H615 H 0.03171 0.50707 0.79658 0.0
C616 C 0.01452 0.49736 0.71524 0.0
C617 C 0.98613 0.5102 0.71083 0.0
C618 C 0.02101 0.49126 0.7316 0.0
C619 C 0.99918 0.49812 0.74355 0.0
C620 C 0.9723 0.51372 0.7392 0.0
C621 C 0.9658 0.51964 0.723 0.0
C622 C 0.97445 0.46135 0.78225 0.0
C623 C 0.99267 0.47696 0.79354 0.0
C624 C 0.97899 0.4658 0.76571 0.0
C625 C 1.00164 0.48615 0.76022 0.0
C626 C 0.02218 0.49903 0.77139 0.0
C627 C 0.01776 0.49433 0.78805 0.0
H628 H 0.80387 0.70283 0.02841 0.0
H629 H 0.74554 0.77792 0.04268 0.0
H630 H 0.79547 0.71565 -5e-05 0.0
H631 H 0.73638 0.7902 0.01402 0.0
H632 H 0.76927 0.77838 0.95053 0.0
H633 H 0.78058 0.79006 0.97909 0.0
H634 H 0.72223 0.71538 0.99392 0.0
H635 H 0.71163 0.70323 0.96558 0.0
C636 C 0.79058 0.72305 0.02544 0.0
C637 C 0.77545 0.73949 0.03763 0.0
C638 C 0.78566 0.73029 0.0092 0.0
C639 C 0.7652 0.75374 0.00496 0.0
C640 C 0.75251 0.77225 0.01711 0.0
C641 C 0.75789 0.76532 0.03345 0.0
C642 C 0.75771 0.76552 0.95995 0.0
C643 C 0.73953 0.73997 0.95598 0.0
C644 C 0.76433 0.77209 0.97621 0.0
C645 C 0.7523 0.75347 0.9885 0.0
C646 C 0.73158 0.73005 0.98454 0.0
C647 C 0.72542 0.7232 0.96839 0.0
H648 H 0.47782 0.49122 0.28909 0.0
H649 H 0.5567 0.54668 0.27759 0.0
H650 H 0.4628 0.49124 0.26034 0.0
H651 H 0.54131 0.54765 0.24915 0.0
H652 H 0.50226 0.55977 0.20119 0.0
H653 H 0.49544 0.56488 0.2304 0.0
H654 H 0.49562 0.46641 0.23521 0.0
H655 H 0.50254 0.46132 0.20573 0.0
C656 C 0.49115 0.50444 0.2805 0.0
C657 C 0.51817 0.51928 0.28545 0.0
C658 C 0.48275 0.50418 0.26411 0.0
C659 C 0.50086 0.51948 0.2526 0.0
C660 C 0.52674 0.53598 0.25782 0.0
C661 C 0.53553 0.53553 0.27405 0.0
C662 C 0.49953 0.53921 0.20842 0.0
C663 C 0.50296 0.51016 0.20134 0.0
C664 C 0.49573 0.54216 0.2251 0.0
C665 C 0.49534 0.51608 0.23501 0.0
C666 C 0.49562 0.48685 0.22776 0.0
C667 C 0.49951 0.48389 0.21095 0.0
H668 H 0.7609 0.22665 0.54017 0.0
H669 H 0.71765 0.31261 0.52814 0.0
H670 H 0.76989 0.21683 0.51114 0.0
H671 H 0.72631 0.30276 0.49945 0.0
H672 H 0.79382 0.30755 0.4598 0.0
H673 H 0.78648 0.3004 0.48883 0.0
H674 H 0.73729 0.21634 0.47977 0.0
H675 H 0.74507 0.22338 0.45044 0.0
C676 C 0.75205 0.24266 0.53129 0.0
C677 C 0.73868 0.27043 0.53629 0.0
C678 C 0.75744 0.23717 0.51476 0.0
C679 C 0.74939 0.25942 0.50323 0.0
C680 C 0.73316 0.28554 0.5082 0.0
C681 C 0.72794 0.29104 0.52457 0.0
C682 C 0.78275 0.28681 0.46403 0.0
C683 C 0.77004 0.26601 0.45298 0.0
C684 C 0.77828 0.28285 0.4806 0.0
C685 C 0.76077 0.25818 0.48639 0.0
C686 C 0.75083 0.23553 0.47551 0.0
C687 C 0.75551 0.23943 0.4588 0.0
H688 H 0.98135 0.51003 0.29337 0.0
H689 H 0.06189 0.45727 0.28154 0.0
H690 H 0.97282 0.52007 0.26436 0.0
H691 H 0.0532 0.4669 0.2528 0.0
H692 H 0.06683 0.54086 0.21571 0.0
H693 H 0.05657 0.53085 0.24425 0.0
H694 H 0.9717 0.48614 0.2316 0.0
H695 H 0.98187 0.49649 0.20275 0.0
C696 C 0.99619 0.49923 0.28453 0.0
C697 C 0.0223 0.48293 0.28958 0.0
C698 C 0.99144 0.50518 0.268 0.0
C699 C 0.01268 0.49463 0.25652 0.0
C700 C 0.03669 0.47544 0.26151 0.0
C701 C 0.04154 0.46974 0.27791 0.0
C702 C 0.04536 0.53008 0.21905 0.0
C703 C 0.0252 0.51935 0.2071 0.0
C704 C 0.0396 0.52417 0.23533 0.0
C705 C 0.01368 0.50726 0.23995 0.0
C706 C 0.99183 0.4992 0.22822 0.0
C707 C 0.99754 0.50534 0.2118 0.0
H708 H 0.22438 0.22513 0.03961 0.0
H709 H 0.3014 0.2851 0.03154 0.0
H710 H 0.2231 0.21264 0.01059 0.0
H711 H 0.30071 0.27231 0.00274 0.0
H712 H 0.3008 0.24251 0.95251 0.0
H713 H 0.30508 0.23055 0.98135 0.0
H714 H 0.20878 0.25023 0.98748 0.0
H715 H 0.20466 0.26214 0.95851 0.0
C716 C 0.24187 0.23449 0.0317 0.0
C717 C 0.2633 0.25567 0.03768 0.0
C718 C 0.24096 0.22759 0.01514 0.0
C719 C 0.26178 0.24148 0.00444 0.0
C720 C 0.28466 0.26088 0.01073 0.0
C721 C 0.28516 0.2682 0.02719 0.0
C722 C 0.28031 0.24293 0.95993 0.0
C723 C 0.25237 0.25298 0.95342 0.0
C724 C 0.2828 0.23629 0.97641 0.0
C725 C 0.25736 0.23975 0.98665 0.0
C726 C 0.22869 0.24707 0.97982 0.0
C727 C 0.22626 0.25385 0.96328 0.0
H728 H 0.44796 0.54374 0.77726 0.0
H729 H 0.52963 0.49476 0.79137 0.0
H730 H 0.45974 0.53417 0.74881 0.0
H731 H 0.54117 0.48469 0.76264 0.0
H732 H 0.52961 0.51531 0.69996 0.0
H733 H 0.53962 0.52457 0.7289 0.0
H734 H 0.46385 0.46561 0.74132 0.0
H735 H 0.4535 0.4569 0.71262 0.0
C736 C 0.46912 0.53208 0.77421 0.0
C737 C 0.4879 0.51998 0.78641 0.0
C738 C 0.47576 0.52647 0.75799 0.0
C739 C 0.5011 0.50844 0.75371 0.0
C740 C 0.5216 0.49877 0.76576 0.0
C741 C 0.5151 0.50471 0.78211 0.0
C742 C 0.51625 0.50305 0.70894 0.0
C743 C 0.49084 0.48534 0.70419 0.0
C744 C 0.52186 0.50851 0.72542 0.0
C745 C 0.50229 0.49595 0.73715 0.0
C746 C 0.47919 0.47546 0.7324 0.0
C747 C 0.47339 0.47033 0.71603 0.0
H748 H 0.20484 0.69828 0.53028 0.0
H749 H 0.2568 0.77854 0.54365 0.0
H750 H 0.21576 0.70817 0.50176 0.0
H751 H 0.2682 0.78817 0.5149 0.0
H752 H 0.29618 0.69617 0.46737 0.0
H753 H 0.28404 0.70771 0.49557 0.0
H754 H 0.23242 0.787 0.48052 0.0
H755 H 0.24502 0.77567 0.45206 0.0
C756 C 0.21732 0.71887 0.52704 0.0
C757 C 0.22999 0.73764 0.53909 0.0
C758 C 0.22372 0.72441 0.51077 0.0
C759 C 0.2431 0.74866 0.50631 0.0
C760 C 0.25309 0.76944 0.51815 0.0
C761 C 0.24637 0.76404 0.53453 0.0
C762 C 0.28352 0.71689 0.47013 0.0
C763 C 0.27155 0.73504 0.45763 0.0
C764 C 0.27641 0.72337 0.48621 0.0
C765 C 0.25701 0.74795 0.49004 0.0
C766 C 0.24751 0.76801 0.47775 0.0
C767 C 0.25492 0.76165 0.46155 0.0
H768 H 0.4167 0.9709 0.10731 0.0
H769 H 0.42205 0.92105 0.15242 0.0
H770 H 0.37432 0.93784 0.09864 0.0
H771 H 0.38115 0.88748 0.14365 0.0
H772 H 0.2909 0.84623 0.13147 0.0
H773 H 0.32826 0.88511 0.13929 0.0
H774 H 0.36254 0.88748 0.09013 0.0
H775 H 0.3243 0.84988 0.08224 0.0
C776 C 0.40902 0.95271 0.11526 0.0
C777 C 0.4225 0.94864 0.13055 0.0
C778 C 0.3848 0.93373 0.11033 0.0
C779 C 0.37397 0.91014 0.12053 0.0
C780 C 0.3881 0.90589 0.13566 0.0
C781 C 0.41184 0.925 0.14063 0.0
C782 C 0.30621 0.85536 0.12234 0.0
C783 C 0.30477 0.84491 0.10629 0.0
C784 C 0.3278 0.8775 0.12681 0.0
C785 C 0.34879 0.88922 0.11539 0.0
C786 C 0.34661 0.87935 0.09922 0.0
C787 C 0.32474 0.85759 0.09472 0.0
H788 H 0.29364 0.16009 0.36216 0.0
H789 H 0.32983 0.15695 0.41084 0.0
H790 H 0.32962 0.12009 0.35404 0.0
H791 H 0.36674 0.11848 0.40266 0.0
H792 H 0.41775 0.03367 0.38675 0.0
H793 H 0.37632 0.068 0.39504 0.0
H794 H 0.38145 0.11378 0.3486 0.0
H795 H 0.4213 0.07863 0.34018 0.0
C796 C 0.30935 0.15091 0.37109 0.0
C797 C 0.30895 0.16165 0.3871 0.0
C798 C 0.33014 0.12811 0.36645 0.0
C799 C 0.35137 0.11605 0.37766 0.0
C800 C 0.3505 0.12665 0.39374 0.0
C801 C 0.32942 0.14896 0.39841 0.0
C802 C 0.40983 0.05105 0.37837 0.0
C803 C 0.42266 0.05346 0.36284 0.0
C804 C 0.38618 0.07083 0.38309 0.0
C805 C 0.37533 0.09375 0.37248 0.0
C806 C 0.38849 0.09605 0.35699 0.0
C807 C 0.41163 0.07602 0.3522 0.0
H808 H 0.09354 0.03113 0.61396 0.0
H809 H 0.09427 0.06962 0.66218 0.0
H810 H 0.13535 0.06533 0.60624 0.0
H811 H 0.13486 0.10463 0.65436 0.0
H812 H 0.2211 0.15401 0.63883 0.0
H813 H 0.18662 0.11254 0.64708 0.0
H814 H 0.14123 0.11758 0.60055 0.0
H815 H 0.17607 0.15764 0.59225 0.0
C816 C 0.10264 0.04689 0.62289 0.0
C817 C 0.09054 0.0478 0.63862 0.0
C818 C 0.1265 0.06662 0.61848 0.0
C819 C 0.13838 0.08803 0.62963 0.0
C820 C 0.12672 0.08823 0.6455 0.0
C821 C 0.10321 0.06825 0.64996 0.0
C822 C 0.20386 0.14598 0.63039 0.0
C823 C 0.20139 0.15897 0.61489 0.0
C824 C 0.18403 0.12232 0.6351 0.0
C825 C 0.16114 0.11152 0.62445 0.0
C826 C 0.15895 0.12461 0.60895 0.0
C827 C 0.17888 0.14786 0.60422 0.0
H828 H 0.09457 0.97494 0.88522 0.0
H829 H 0.09021 0.93262 0.83796 0.0
H830 H 0.13647 0.9405 0.89265 0.0
H831 H 0.13071 0.89754 0.8455 0.0
H832 H 0.217 0.84818 0.85862 0.0
H833 H 0.18277 0.89017 0.85112 0.0
H834 H 0.14375 0.88882 0.89931 0.0
H835 H 0.1787 0.84819 0.90689 0.0
C836 C 0.10255 0.95828 0.87645 0.0
C837 C 0.08912 0.95647 0.86104 0.0
C838 C 0.12645 0.93844 0.8807 0.0
C839 C 0.13704 0.91609 0.86969 0.0
C840 C 0.12376 0.91477 0.8542 0.0
C841 C 0.10027 0.9348 0.84991 0.0
C842 C 0.20127 0.85714 0.8676 0.0
C843 C 0.20049 0.84488 0.88331 0.0
C844 C 0.18154 0.8811 0.86332 0.0
C845 C 0.1603 0.8929 0.87459 0.0
C846 C 0.16009 0.88087 0.89038 0.0
C847 C 0.18004 0.85732 0.8947 0.0
H848 H 0.72346 0.13389 0.89141 0.0
H849 H 0.66325 0.20231 0.87122 0.0
H850 H 0.68696 0.09361 0.88391 0.0
H851 H 0.62623 0.16203 0.86403 0.0
H852 H 0.5555 0.08413 0.87693 0.0
H853 H 0.59423 0.1231 0.88355 0.0
H854 H 0.66182 0.07248 0.85632 0.0
H855 H 0.62307 0.03396 0.84951 0.0
C856 C 0.70261 0.14014 0.88511 0.0
C857 C 0.69611 0.17095 0.8817 0.0
C858 C 0.68176 0.11721 0.88089 0.0
C859 C 0.65376 0.12489 0.87359 0.0
C860 C 0.64761 0.15568 0.8698 0.0
C861 C 0.66883 0.17857 0.8737 0.0
C862 C 0.57877 0.08121 0.87261 0.0
C863 C 0.58645 0.05628 0.8627 0.0
C864 C 0.60073 0.10356 0.87621 0.0
C865 C 0.63078 0.10085 0.87024 0.0
C866 C 0.63875 0.0751 0.86097 0.0
C867 C 0.61664 0.05317 0.85708 0.0
H868 H 0.58855 0.92125 0.6567 0.0
H869 H 0.58955 0.95889 0.60831 0.0
H870 H 0.62759 0.88448 0.64913 0.0
H871 H 0.63 0.92284 0.6008 0.0
H872 H 0.67446 0.83176 0.5878 0.0
H873 H 0.63771 0.87083 0.59534 0.0
H874 H 0.67932 0.87697 0.64283 0.0
H875 H 0.71537 0.83647 0.63539 0.0
C876 C 0.59748 0.92191 0.64446 0.0
C877 C 0.58596 0.94291 0.63307 0.0
C878 C 0.62012 0.90093 0.64014 0.0
C879 C 0.63219 0.90063 0.62436 0.0
C880 C 0.62092 0.92201 0.613 0.0
C881 C 0.59784 0.94278 0.61728 0.0
C882 C 0.67585 0.84152 0.59985 0.0
C883 C 0.69777 0.83103 0.61103 0.0
C884 C 0.65487 0.86417 0.60414 0.0
C885 C 0.65549 0.8773 0.61968 0.0
C886 C 0.67778 0.86707 0.63083 0.0
C887 C 0.69855 0.84396 0.62658 0.0
H888 H 0.79515 0.83429 0.36031 0.0
H889 H 0.83362 0.83299 0.40853 0.0
H890 H 0.83199 0.87379 0.3525 0.0
H891 H 0.87121 0.87108 0.40063 0.0
H892 H 0.92173 0.95734 0.38581 0.0
H893 H 0.88068 0.92235 0.39394 0.0
H894 H 0.88401 0.87955 0.34668 0.0
H895 H 0.9236 0.91522 0.33848 0.0
C896 C 0.81157 0.84234 0.36919 0.0
C897 C 0.81149 0.83058 0.385 0.0
C898 C 0.83282 0.86486 0.36473 0.0
C899 C 0.85478 0.87567 0.37592 0.0
C900 C 0.8544 0.86389 0.39176 0.0
C901 C 0.83292 0.84181 0.39626 0.0
C902 C 0.91355 0.94044 0.37723 0.0
C903 C 0.92576 0.93907 0.36152 0.0
C904 C 0.8901 0.9203 0.38186 0.0
C905 C 0.8788 0.89809 0.37095 0.0
C906 C 0.89142 0.89673 0.3553 0.0
C907 C 0.9144 0.91707 0.35063 0.0
H908 H 0.83863 0.2067 0.12969 0.0
H909 H 0.77979 0.14162 0.1056 0.0
H910 H 0.87615 0.16579 0.13484 0.0
H911 H 0.81681 0.10072 0.11099 0.0
H912 H 0.87993 0.03542 0.14255 0.0
H913 H 0.8411 0.07464 0.13724 0.0
H914 H 0.90955 0.13106 0.11407 0.0
H915 H 0.94838 0.09137 0.11915 0.0
C916 C 0.83349 0.18351 0.12586 0.0
C917 C 0.80646 0.17709 0.11732 0.0
C918 C 0.85501 0.16029 0.1286 0.0
C919 C 0.8494 0.13029 0.12313 0.0
C920 C 0.82165 0.12369 0.11527 0.0
C921 C 0.80052 0.14699 0.11222 0.0
C922 C 0.8865 0.05602 0.13611 0.0
C923 C 0.91695 0.06051 0.13119 0.0
C924 C 0.86436 0.07839 0.1331 0.0
C925 C 0.87252 0.10593 0.12545 0.0
C926 C 0.90286 0.1101 0.12016 0.0
C927 C 0.9249 0.08736 0.12286 0.0
H928 H 0.83174 0.33802 0.58747 0.0
H929 H 0.78875 0.33865 0.6346 0.0
H930 H 0.86828 0.37624 0.59643 0.0
H931 H 0.82459 0.37833 0.64348 0.0
H932 H 0.91522 0.4202 0.65961 0.0
H933 H 0.87601 0.38477 0.65062 0.0
H934 H 0.87632 0.42757 0.60333 0.0
H935 H 0.91698 0.46227 0.61225 0.0
C936 C 0.82984 0.34671 0.59972 0.0
C937 C 0.80742 0.3353 0.61036 0.0
C938 C 0.8507 0.36889 0.60483 0.0
C939 C 0.84946 0.3806 0.62067 0.0
C940 C 0.82661 0.3695 0.63126 0.0
C941 C 0.80596 0.34686 0.62619 0.0
C942 C 0.90685 0.42215 0.64729 0.0
C943 C 0.91921 0.44397 0.63661 0.0
C944 C 0.8841 0.40193 0.64216 0.0
C945 C 0.87276 0.40325 0.62625 0.0
C946 C 0.88483 0.4255 0.6156 0.0
C947 C 0.90803 0.4455 0.6207 0.0
H948 H 0.92598 0.55184 0.88861 0.0
H949 H 0.91176 0.57035 0.83772 0.0
H950 H 0.88555 0.58841 0.89533 0.0
H951 H 0.8705 0.60518 0.8443 0.0
H952 H 0.82192 0.69143 0.86241 0.0
H953 H 0.86123 0.65415 0.85513 0.0
H954 H 0.83151 0.59554 0.89436 0.0
H955 H 0.79304 0.63318 0.9018 0.0
C956 C 0.91404 0.56342 0.87887 0.0
C957 C 0.92187 0.55786 0.86264 0.0
C958 C 0.89068 0.5842 0.88269 0.0
C959 C 0.87459 0.59969 0.87034 0.0
C960 C 0.88255 0.59402 0.85414 0.0
C961 C 0.90602 0.5736 0.85035 0.0
C962 C 0.82361 0.67038 0.86932 0.0
C963 C 0.80473 0.66542 0.88282 0.0
C964 C 0.84612 0.64897 0.86517 0.0
C965 C 0.84986 0.62193 0.8743 0.0
C966 C 0.82993 0.61647 0.88736 0.0
C967 C 0.80774 0.63803 0.8916 0.0
H968 H 0.68058 0.65711 0.08098 0.0
H969 H 0.70767 0.66197 0.13128 0.0
H970 H 0.6414 0.61965 0.08775 0.0
H971 H 0.66906 0.62357 0.13802 0.0
H972 H 0.5732 0.58938 0.14765 0.0
H973 H 0.61487 0.6228 0.13985 0.0
H974 H 0.62967 0.56851 0.09672 0.0
H975 H 0.5867 0.5352 0.10443 0.0
C976 C 0.67852 0.64976 0.09347 0.0
C977 C 0.69707 0.66266 0.10564 0.0
C978 C 0.65612 0.62812 0.09732 0.0
C979 C 0.65186 0.61874 0.11344 0.0
C980 C 0.67128 0.63078 0.12552 0.0
C981 C 0.69351 0.65268 0.12168 0.0
C982 C 0.58532 0.58448 0.13648 0.0
C983 C 0.57685 0.55956 0.12669 0.0
C984 C 0.60945 0.60354 0.13208 0.0
C985 C 0.62607 0.59807 0.11782 0.0
C986 C 0.61727 0.57341 0.10778 0.0
C987 C 0.59271 0.55435 0.11216 0.0
H988 H 0.67059 0.32729 0.40222 0.0
H989 H 0.71507 0.33226 0.35556 0.0
H990 H 0.63449 0.36646 0.39398 0.0
H991 H 0.67961 0.37288 0.34742 0.0
H992 H 0.59056 0.4201 0.33237 0.0
H993 H 0.62842 0.38216 0.34018 0.0
H994 H 0.62893 0.41883 0.38889 0.0
H995 H 0.58975 0.45596 0.38114 0.0
C996 C 0.67282 0.33705 0.39021 0.0
C997 C 0.69565 0.32675 0.37952 0.0
C998 C 0.65224 0.35978 0.38552 0.0
C999 C 0.65419 0.3732 0.37008 0.0
C1000 C 0.67712 0.36284 0.35935 0.0
C1001 C 0.69752 0.33964 0.36398 0.0
C1002 C 0.59884 0.42014 0.34474 0.0
C1003 C 0.58711 0.44093 0.35618 0.0
C1004 C 0.62077 0.39847 0.3492 0.0
C1005 C 0.63184 0.39728 0.36518 0.0
C1006 C 0.62053 0.41861 0.37654 0.0
C1007 C 0.59819 0.44003 0.37212 0.0
H1008 H 0.0958 0.53411 0.3864 0.0
H1009 H 0.09391 0.576 0.33901 0.0
H1010 H 0.13737 0.56858 0.39435 0.0
H1011 H 0.13394 0.61128 0.34705 0.0
H1012 H 0.22165 0.65832 0.36083 0.0
H1013 H 0.18567 0.61804 0.35293 0.0
H1014 H 0.1465 0.61957 0.4011 0.0
H1015 H 0.18326 0.65828 0.40906 0.0
C1016 C 0.10414 0.55082 0.37775 0.0
C1017 C 0.09167 0.55235 0.36211 0.0
C1018 C 0.12787 0.57068 0.38228 0.0
C1019 C 0.13918 0.59284 0.37134 0.0
C1020 C 0.12651 0.59418 0.35571 0.0
C1021 C 0.10327 0.57406 0.35113 0.0
C1022 C 0.20546 0.64978 0.3697 0.0
C1023 C 0.20528 0.66141 0.38553 0.0
C1024 C 0.1847 0.62681 0.36519 0.0
C1025 C 0.16297 0.61547 0.37636 0.0
C1026 C 0.16317 0.6271 0.39223 0.0
C1027 C 0.18417 0.64957 0.39678 0.0
H1028 H 0.21592 0.33767 0.13298 0.0
H1029 H 0.16963 0.33306 0.08679 0.0
H1030 H 0.18293 0.38021 0.14098 0.0
H1031 H 0.13566 0.37427 0.09499 0.0
H1032 H 0.0916 0.46401 0.10888 0.0
H1033 H 0.13011 0.42666 0.10029 0.0
H1034 H 0.13271 0.3898 0.14894 0.0
H1035 H 0.0958 0.42779 0.15753 0.0
C1036 C 0.19852 0.34561 0.12461 0.0
C1037 C 0.19528 0.33205 0.10931 0.0
C1038 C 0.17949 0.36992 0.12919 0.0
C1039 C 0.15643 0.38075 0.11866 0.0
C1040 C 0.15345 0.3671 0.10331 0.0
C1041 C 0.17278 0.34322 0.09866 0.0
C1042 C 0.10069 0.44803 0.1177 0.0
C1043 C 0.09078 0.44889 0.13386 0.0
C1044 C 0.12262 0.4265 0.1128 0.0
C1045 C 0.13464 0.40508 0.12392 0.0
C1046 C 0.12466 0.40624 0.14009 0.0
C1047 C 0.10322 0.42797 0.145 0.0
H1048 H 0.41532 0.46634 0.88374 0.0
H1049 H 0.41183 0.43053 0.83498 0.0
H1050 H 0.37537 0.4301 0.89185 0.0
H1051 H 0.37329 0.39373 0.84309 0.0
H1052 H 0.28839 0.34321 0.85848 0.0
H1053 H 0.32228 0.38541 0.85079 0.0
H1054 H 0.36922 0.37745 0.89678 0.0
H1055 H 0.33468 0.33656 0.90461 0.0
C1056 C 0.40606 0.45072 0.87479 0.0
C1057 C 0.41666 0.45132 0.85875 0.0
C1058 C 0.38328 0.42984 0.87941 0.0
C1059 C 0.37102 0.40886 0.86812 0.0
C1060 C 0.38157 0.40985 0.85206 0.0
C1061 C 0.40393 0.43089 0.84742 0.0
C1062 C 0.30588 0.35068 0.86692 0.0
C1063 C 0.30889 0.33662 0.88212 0.0
C1064 C 0.3254 0.37478 0.86253 0.0
C1065 C 0.34861 0.38493 0.87316 0.0
C1066 C 0.35131 0.37083 0.8884 0.0
C1067 C 0.3316 0.34713 0.89284 0.0
H1068 H 0.44157 0.57182 0.61058 0.0
H1069 H 0.38598 0.5459 0.65158 0.0
H1070 H 0.40317 0.60985 0.60288 0.0
H1071 H 0.34751 0.5832 0.64387 0.0
H1072 H 0.30179 0.67644 0.63577 0.0
H1073 H 0.3396 0.63757 0.64323 0.0
H1074 H 0.35268 0.61568 0.59261 0.0
H1075 H 0.31638 0.65516 0.58521 0.0
C1076 C 0.42098 0.57398 0.61783 0.0
C1077 C 0.41707 0.55625 0.63185 0.0
C1078 C 0.39895 0.59573 0.61344 0.0
C1079 C 0.37236 0.59987 0.62288 0.0
C1080 C 0.36807 0.58128 0.63658 0.0
C1081 C 0.39019 0.5598 0.64102 0.0
C1082 C 0.31273 0.66325 0.62628 0.0
C1083 C 0.30579 0.66872 0.60993 0.0
C1084 C 0.33427 0.64086 0.63053 0.0
C1085 C 0.3492 0.62345 0.6185 0.0
C1086 C 0.342 0.62888 0.60218 0.0
C1087 C 0.32075 0.65131 0.59795 0.0
H1088 H 0.4364 0.09541 0.13569 0.0
H1089 H 0.35727 0.05988 0.16103 0.0
H1090 H 0.40683 0.1404 0.12765 0.0
H1091 H 0.32777 0.10446 0.15278 0.0
H1092 H 0.29051 0.20074 0.14769 0.0
H1093 H 0.32352 0.15942 0.15714 0.0
H1094 H 0.36402 0.15275 0.1095 0.0
H1095 H 0.33134 0.19447 0.1001 0.0
C1096 C 0.41278 0.09721 0.13961 0.0
C1097 C 0.39925 0.07393 0.149 0.0
C1098 C 0.39578 0.12292 0.13491 0.0
C1099 C 0.36492 0.12602 0.13955 0.0
C1100 C 0.35159 0.10301 0.14916 0.0
C1101 C 0.36851 0.07731 0.15382 0.0
C1102 C 0.30657 0.19062 0.13924 0.0
C1103 C 0.30814 0.20083 0.12311 0.0
C1104 C 0.3254 0.16681 0.14465 0.0
C1105 C 0.3463 0.15264 0.13406 0.0
C1106 C 0.3484 0.16335 0.11802 0.0
C1107 C 0.32951 0.18716 0.1126 0.0
H1108 H 0.19303 0.10353 0.40601 0.0
H1109 H 0.15484 0.19138 0.39267 0.0
H1110 H 0.1475 0.07803 0.39553 0.0
H1111 H 0.10903 0.16558 0.38223 0.0
H1112 H 0.01966 0.10432 0.38268 0.0
H1113 H 0.06409 0.13257 0.39299 0.0
H1114 H 0.12445 0.07088 0.36746 0.0
H1115 H 0.08029 0.04281 0.35707 0.0
C1116 C 0.17485 0.11747 0.40095 0.0
C1117 C 0.17768 0.14955 0.40015 0.0
C1118 C 0.14885 0.10279 0.39485 0.0
C1119 C 0.12482 0.1198 0.38797 0.0
C1120 C 0.12718 0.15191 0.38751 0.0
C1121 C 0.15346 0.16664 0.39343 0.0
C1122 C 0.04241 0.09689 0.3792 0.0
C1123 C 0.04642 0.07123 0.3691 0.0
C1124 C 0.06781 0.11316 0.38505 0.0
C1125 C 0.09771 0.10379 0.38111 0.0
C1126 C 0.10168 0.07841 0.37085 0.0
C1127 C 0.07635 0.06244 0.36483 0.0
H1128 H 0.06504 0.90646 0.63679 0.0
H1129 H 0.1355 0.92433 0.67241 0.0
H1130 H 0.09336 0.86158 0.62748 0.0
H1131 H 0.16378 0.87958 0.663 0.0
H1132 H 0.19334 0.78161 0.65088 0.0
H1133 H 0.16117 0.82271 0.66152 0.0
H1134 H 0.14249 0.85328 0.61273 0.0
H1135 H 0.17449 0.81213 0.60206 0.0
C1136 C 0.08638 0.90068 0.64276 0.0
C1137 C 0.09804 0.91914 0.65531 0.0
C1138 C 0.1027 0.87507 0.63734 0.0
C1139 C 0.13089 0.86716 0.64443 0.0
C1140 C 0.14202 0.88495 0.65736 0.0
C1141 C 0.12585 0.9107 0.6627 0.0
C1142 C 0.18227 0.79701 0.64241 0.0
C1143 C 0.18658 0.79364 0.62561 0.0
C1144 C 0.16394 0.82062 0.64852 0.0
C1145 C 0.1493 0.84124 0.63797 0.0
C1146 C 0.15319 0.83756 0.62117 0.0
C1147 C 0.17171 0.8141 0.61506 0.0
H1148 H 0.4686 0.91168 0.86103 0.0
H1149 H 0.41258 0.98882 0.8751 0.0
H1150 H 0.43127 0.87676 0.87308 0.0
H1151 H 0.37493 0.95406 0.88664 0.0
H1152 H 0.3246 0.88886 0.91873 0.0
H1153 H 0.36664 0.92027 0.90878 0.0
H1154 H 0.38066 0.85677 0.86928 0.0
H1155 H 0.33921 0.82483 0.87956 0.0
C1156 C 0.44823 0.92118 0.8666 0.0
C1157 C 0.4436 0.95307 0.86712 0.0
C1158 C 0.42676 0.90114 0.87346 0.0
C1159 C 0.4001 0.91252 0.88095 0.0
C1160 C 0.39547 0.94443 0.88132 0.0
C1161 C 0.41697 0.96442 0.87456 0.0
C1162 C 0.3369 0.88135 0.90804 0.0
C1163 C 0.32833 0.85438 0.89989 0.0
C1164 C 0.36089 0.89953 0.90224 0.0
C1165 C 0.37677 0.89141 0.88804 0.0
C1166 C 0.36912 0.8637 0.8803 0.0
C1167 C 0.34525 0.84535 0.88619 0.0
H1168 H 0.30243 0.79205 0.34708 0.0
H1169 H 0.33624 0.80483 0.39585 0.0
H1170 H 0.33388 0.83482 0.33787 0.0
H1171 H 0.36739 0.84789 0.38664 0.0
H1172 H 0.44019 0.90664 0.36138 0.0
H1173 H 0.41195 0.86087 0.36959 0.0
H1174 H 0.33429 0.89052 0.34118 0.0
H1175 H 0.36246 0.93593 0.33281 0.0
C1176 C 0.31661 0.80392 0.35584 0.0
C1177 C 0.31669 0.79507 0.37223 0.0
C1178 C 0.33453 0.82854 0.35056 0.0
C1179 C 0.35305 0.84486 0.36153 0.0
C1180 C 0.35362 0.83562 0.37785 0.0
C1181 C 0.3356 0.81105 0.38315 0.0
C1182 C 0.41717 0.90332 0.35679 0.0
C1183 C 0.40362 0.92507 0.34644 0.0
C1184 C 0.40092 0.87716 0.36158 0.0
C1185 C 0.37086 0.87206 0.35606 0.0
C1186 C 0.35753 0.89355 0.34551 0.0
C1187 C 0.37367 0.91972 0.34078 0.0
H1188 H 0.34874 0.18298 0.60589 0.0
H1189 H 0.3141 0.10381 0.58024 0.0
H1190 H 0.39442 0.15424 0.61342 0.0
H1191 H 0.35951 0.07498 0.58806 0.0
H1192 H 0.45632 0.03846 0.59407 0.0
H1193 H 0.4145 0.07052 0.58428 0.0
H1194 H 0.40694 0.11224 0.63159 0.0
H1195 H 0.44913 0.0806 0.64131 0.0
C1196 C 0.3509 0.15953 0.60176 0.0
C1197 C 0.32757 0.14571 0.59251 0.0
C1198 C 0.37704 0.14298 0.60619 0.0
C1199 C 0.38055 0.11222 0.60147 0.0
C1200 C 0.35771 0.09871 0.59178 0.0
C1201 C 0.33156 0.11525 0.58735 0.0
C1202 C 0.44588 0.0546 0.60237 0.0
C1203 C 0.45604 0.05687 0.6185 0.0
C1204 C 0.42178 0.07287 0.59677 0.0
C1205 C 0.40727 0.0939 0.60715 0.0
C1206 C 0.41782 0.09656 0.6232 0.0
C1207 C 0.44191 0.07827 0.62881 0.0
H1208 H 0.06495 0.10119 0.85805 0.0
H1209 H 0.13807 0.07386 0.82579 0.0
H1210 H 0.09451 0.14616 0.86605 0.0
H1211 H 0.16768 0.11852 0.83398 0.0
H1212 H 0.20349 0.21487 0.84253 0.0
H1213 H 0.16959 0.17445 0.83277 0.0
H1214 H 0.14106 0.15589 0.88192 0.0
H1215 H 0.17463 0.19659 0.89169 0.0
C1216 C 0.08718 0.10486 0.85255 0.0
C1217 C 0.09914 0.08374 0.84131 0.0
C1218 C 0.10422 0.13055 0.85723 0.0
C1219 C 0.13354 0.13584 0.85074 0.0
C1220 C 0.14505 0.1153 0.83911 0.0
C1221 C 0.12809 0.08957 0.83447 0.0
C1222 C 0.18985 0.20232 0.85126 0.0
C1223 C 0.19191 0.20889 0.86791 0.0
C1224 C 0.17052 0.17904 0.84566 0.0
C1225 C 0.15268 0.16186 0.85656 0.0
C1226 C 0.15422 0.16891 0.87317 0.0
C1227 C 0.17364 0.19212 0.87879 0.0
H1228 H 0.17734 0.89167 0.0735 0.0
H1229 H 0.16347 0.82623 0.1121 0.0
H1230 H 0.13538 0.92255 0.08388 0.0
H1231 H 0.12188 0.85767 0.12278 0.0
H1232 H 0.03303 0.9124 0.13093 0.0
H1233 H 0.07069 0.87778 0.11885 0.0
H1234 H 0.1277 0.95542 0.10664 0.0
H1235 H 0.08992 0.98984 0.11827 0.0
C1236 C 0.16524 0.88375 0.08417 0.0
C1237 C 0.17403 0.85655 0.09203 0.0
C1238 C 0.14127 0.90162 0.0902 0.0
C1239 C 0.12554 0.89295 0.10435 0.0
C1240 C 0.13337 0.86502 0.11182 0.0
C1241 C 0.1573 0.84699 0.1057 0.0
C1242 C 0.05361 0.92204 0.12565 0.0
C1243 C 0.0584 0.95393 0.12553 0.0
C1244 C 0.07526 0.90217 0.11877 0.0
C1245 C 0.10218 0.91376 0.11164 0.0
C1246 C 0.10697 0.94565 0.11169 0.0
C1247 C 0.08536 0.96545 0.1185 0.0
H1248 H 0.69983 0.7896 0.84564 0.0
H1249 H 0.67891 0.81188 0.89546 0.0
H1250 H 0.66866 0.83276 0.8366 0.0
H1251 H 0.64783 0.85511 0.88637 0.0
H1252 H 0.57161 0.91272 0.86285 0.0
H1253 H 0.59941 0.8667 0.87115 0.0
H1254 H 0.67266 0.88964 0.83813 0.0
H1255 H 0.64502 0.93544 0.82978 0.0
C1256 C 0.68851 0.80361 0.85467 0.0
C1257 C 0.69199 0.79737 0.87128 0.0
C1258 C 0.67075 0.82841 0.84948 0.0
C1259 C 0.65585 0.84736 0.86078 0.0
C1260 C 0.65881 0.84075 0.87738 0.0
C1261 C 0.67678 0.81611 0.88257 0.0
C1262 C 0.59354 0.90785 0.85728 0.0
C1263 C 0.6061 0.92787 0.84567 0.0
C1264 C 0.60953 0.88158 0.86211 0.0
C1265 C 0.63823 0.87458 0.8553 0.0
C1266 C 0.65047 0.89425 0.84348 0.0
C1267 C 0.63467 0.92062 0.83877 0.0
H1268 H 0.95506 0.95879 0.59773 0.0
H1269 H 0.94466 0.9201 0.64562 0.0
H1270 H 0.91336 0.92652 0.58792 0.0
H1271 H 0.90264 0.88823 0.63587 0.0
H1272 H 0.84644 0.81536 0.60968 0.0
H1273 H 0.89114 0.84488 0.61815 0.0
H1274 H 0.85802 0.92285 0.59108 0.0
H1275 H 0.81368 0.89333 0.58238 0.0
C1276 C 0.94392 0.9434 0.60617 0.0
C1277 C 0.95316 0.94213 0.62248 0.0
C1278 C 0.9199 0.925 0.60056 0.0
C1279 C 0.90459 0.90484 0.61111 0.0
C1280 C 0.91416 0.90323 0.62737 0.0
C1281 C 0.93814 0.92167 0.63298 0.0
C1282 C 0.84876 0.83873 0.60543 0.0
C1283 C 0.82634 0.85193 0.59536 0.0
C1284 C 0.87432 0.85571 0.61038 0.0
C1285 C 0.87813 0.88627 0.60534 0.0
C1286 C 0.85601 0.89927 0.59504 0.0
C1287 C 0.83045 0.88234 0.59012 0.0
H1288 H 0.84513 0.21423 0.37689 0.0
H1289 H 0.77371 0.14626 0.38195 0.0
H1290 H 0.87901 0.17534 0.36525 0.0
H1291 H 0.80753 0.10759 0.37062 0.0
H1292 H 0.86114 0.05342 0.33408 0.0
H1293 H 0.83007 0.09508 0.34455 0.0
H1294 H 0.90718 0.12798 0.37239 0.0
H1295 H 0.93871 0.08639 0.36165 0.0
C1296 C 0.8367 0.19101 0.3756 0.0
C1297 C 0.80663 0.1834 0.38029 0.0
C1298 C 0.85616 0.16872 0.36898 0.0
C1299 C 0.8459 0.13842 0.36687 0.0
C1300 C 0.81599 0.13083 0.37178 0.0
C1301 C 0.79663 0.153 0.37839 0.0
C1302 C 0.87168 0.06959 0.34234 0.0
C1303 C 0.90244 0.06626 0.34713 0.0
C1304 C 0.85373 0.09342 0.34843 0.0
C1305 C 0.86598 0.11461 0.3595 0.0
C1306 C 0.89706 0.11208 0.36384 0.0
C1307 C 0.9151 0.08815 0.35773 0.0
H1308 H 0.66232 0.19312 0.11786 0.0
H1309 H 0.68675 0.12061 0.08458 0.0
H1310 H 0.61583 0.16502 0.12526 0.0
H1311 H 0.64065 0.09272 0.09205 0.0
H1312 H 0.54149 0.06386 0.09733 0.0
H1313 H 0.58434 0.09648 0.08945 0.0
H1314 H 0.60254 0.11638 0.13981 0.0
H1315 H 0.55949 0.08387 0.14774 0.0
C1316 C 0.65776 0.17132 0.11207 0.0
C1317 C 0.67835 0.15914 0.10064 0.0
C1318 C 0.63121 0.15517 0.11638 0.0
C1319 C 0.62454 0.12668 0.10921 0.0
C1320 C 0.64491 0.11477 0.09764 0.0
C1321 C 0.67149 0.13072 0.09344 0.0
C1322 C 0.55445 0.07535 0.10674 0.0
C1323 C 0.54717 0.07106 0.12318 0.0
C1324 C 0.5791 0.09394 0.10222 0.0
C1325 C 0.59695 0.10886 0.11401 0.0
C1326 C 0.58909 0.10537 0.13043 0.0
C1327 C 0.56453 0.08659 0.13497 0.0
H1328 H 0.66166 0.21782 0.61161 0.0
H1329 H 0.73761 0.15436 0.61311 0.0
H1330 H 0.62834 0.17881 0.62355 0.0
H1331 H 0.70434 0.11541 0.62466 0.0
H1332 H 0.64752 0.06261 0.66044 0.0
H1333 H 0.67819 0.10437 0.64966 0.0
H1334 H 0.60399 0.12958 0.61767 0.0
H1335 H 0.57285 0.08803 0.62874 0.0
C1336 C 0.67121 0.19553 0.6144 0.0
C1337 C 0.70235 0.18927 0.61145 0.0
C1338 C 0.65208 0.17313 0.62118 0.0
C1339 C 0.66369 0.14402 0.62519 0.0
C1340 C 0.69474 0.13775 0.62204 0.0
C1341 C 0.7138 0.16007 0.61529 0.0
C1342 C 0.63757 0.07713 0.65119 0.0
C1343 C 0.60774 0.07173 0.64538 0.0
C1344 C 0.65528 0.10101 0.64492 0.0
C1345 C 0.64376 0.1201 0.63263 0.0
C1346 C 0.61354 0.11542 0.62719 0.0
C1347 C 0.59572 0.09151 0.63351 0.0
H1348 H 0.54901 0.95188 0.39969 0.0
H1349 H 0.56247 0.91956 0.3507 0.0
H1350 H 0.59144 0.92 0.40884 0.0
H1351 H 0.60524 0.88795 0.35986 0.0
H1352 H 0.66335 0.81429 0.38488 0.0
H1353 H 0.61791 0.84291 0.37658 0.0
H1354 H 0.64715 0.9196 0.40584 0.0
H1355 H 0.69222 0.89103 0.41432 0.0
C1356 C 0.56095 0.93792 0.39086 0.0
C1357 C 0.5524 0.93841 0.37444 0.0
C1358 C 0.5854 0.91976 0.39611 0.0
C1359 C 0.60185 0.90155 0.38507 0.0
C1360 C 0.59287 0.90149 0.3687 0.0
C1361 C 0.56846 0.91975 0.36344 0.0
C1362 C 0.66001 0.83719 0.38963 0.0
C1363 C 0.68154 0.85032 0.40027 0.0
C1364 C 0.63404 0.85365 0.38479 0.0
C1365 C 0.62891 0.88355 0.39054 0.0
C1366 C 0.65019 0.89648 0.40134 0.0
C1367 C 0.67618 0.88012 0.40613 0.0
H1368 H 0.83974 0.78311 0.11609 0.0
H1369 H 0.76724 0.84908 0.10864 0.0
H1370 H 0.87177 0.82324 0.12798 0.0
H1371 H 0.79929 0.88904 0.12027 0.0
H1372 H 0.85047 0.94607 0.15698 0.0
H1373 H 0.82036 0.90362 0.14652 0.0
H1374 H 0.89921 0.87064 0.12014 0.0
H1375 H 0.92973 0.91305 0.13082 0.0
C1376 C 0.83065 0.80615 0.11696 0.0
C1377 C 0.80088 0.81287 0.11145 0.0
C1378 C 0.84907 0.82915 0.1237 0.0
C1379 C 0.83804 0.85931 0.12514 0.0
C1380 C 0.80832 0.86596 0.11958 0.0
C1381 C 0.78999 0.84305 0.11281 0.0
C1382 C 0.86157 0.92973 0.14904 0.0
C1383 C 0.89255 0.93318 0.14467 0.0
C1384 C 0.84419 0.90545 0.14296 0.0
C1385 C 0.85728 0.88392 0.13236 0.0
C1386 C 0.88849 0.88675 0.12836 0.0
C1387 C 0.90594 0.91114 0.13443 0.0
H1388 H 0.9521 0.0451 0.90057 0.0
H1389 H 0.94607 0.08714 0.85325 0.0
H1390 H 0.90931 0.07639 0.90986 0.0
H1391 H 0.90294 0.11807 0.8625 0.0
H1392 H 0.84177 0.18729 0.88861 0.0
H1393 H 0.88828 0.1598 0.88089 0.0
H1394 H 0.85434 0.0785 0.90476 0.0
H1395 H 0.80825 0.10589 0.91268 0.0
C1396 C 0.94174 0.06108 0.89216 0.0
C1397 C 0.95241 0.06346 0.87614 0.0
C1398 C 0.9171 0.07891 0.89747 0.0
C1399 C 0.90258 0.0996 0.88689 0.0
C1400 C 0.91378 0.10258 0.871 0.0
C1401 C 0.9384 0.0847 0.86567 0.0
C1402 C 0.84431 0.16361 0.8923 0.0
C1403 C 0.82117 0.14883 0.90125 0.0
C1404 C 0.87091 0.14782 0.8878 0.0
C1405 C 0.87502 0.11696 0.8922 0.0
C1406 C 0.85211 0.10237 0.90135 0.0
C1407 C 0.82554 0.11807 0.90581 0.0
H1408 H 0.76876 0.65173 0.62039 0.0
H1409 H 0.8445 0.71513 0.61648 0.0
H1410 H 0.80247 0.61405 0.63268 0.0
H1411 H 0.87827 0.67746 0.62921 0.0
H1412 H 0.93393 0.58692 0.63533 0.0
H1413 H 0.90261 0.62825 0.62428 0.0
H1414 H 0.82968 0.6045 0.65739 0.0
H1415 H 0.86054 0.56283 0.66811 0.0
C1416 C 0.7926 0.65772 0.62223 0.0
C1417 C 0.80388 0.68649 0.61745 0.0
C1418 C 0.81193 0.63615 0.62941 0.0
C1419 C 0.84308 0.64277 0.6321 0.0
C1420 C 0.85447 0.6715 0.62723 0.0
C1421 C 0.83508 0.69314 0.61999 0.0
C1422 C 0.91136 0.59073 0.64038 0.0
C1423 C 0.89967 0.57125 0.65248 0.0
C1424 C 0.89341 0.61452 0.63406 0.0
C1425 C 0.86341 0.61945 0.63976 0.0
C1426 C 0.85237 0.6009 0.65242 0.0
C1427 C 0.8702 0.57709 0.65865 0.0
H1428 H 0.66152 0.68793 0.88088 0.0
H1429 H 0.67674 0.61736 0.91676 0.0
H1430 H 0.61511 0.66143 0.87194 0.0
H1431 H 0.63061 0.591 0.90776 0.0
H1432 H 0.53152 0.56551 0.89713 0.0
H1433 H 0.57397 0.59685 0.90695 0.0
H1434 H 0.60364 0.61204 0.85768 0.0
H1435 H 0.56111 0.58081 0.84781 0.0
C1436 C 0.65486 0.66696 0.88696 0.0
C1437 C 0.67295 0.65472 0.8995 0.0
C1438 C 0.62839 0.6517 0.88176 0.0
C1439 C 0.61926 0.6241 0.88912 0.0
C1440 C 0.63686 0.61236 0.90195 0.0
C1441 C 0.66343 0.62741 0.90704 0.0
C1442 C 0.54696 0.57568 0.88837 0.0
C1443 C 0.54302 0.5705 0.87169 0.0
C1444 C 0.57135 0.59354 0.89401 0.0
C1445 C 0.59219 0.60684 0.88309 0.0
C1446 C 0.58779 0.60233 0.86638 0.0
C1447 C 0.56354 0.58426 0.86074 0.0
H1448 H 0.64095 0.4543 0.16204 0.0
H1449 H 0.56371 0.41236 0.13783 0.0
H1450 H 0.67262 0.41036 0.15504 0.0
H1451 H 0.59535 0.36814 0.1311 0.0
H1452 H 0.67159 0.31469 0.1046 0.0
H1453 H 0.6379 0.35626 0.11311 0.0
H1454 H 0.68051 0.35627 0.16037 0.0
H1455 H 0.71457 0.31509 0.15179 0.0
C1456 C 0.63056 0.43557 0.15541 0.0
C1457 C 0.59974 0.43703 0.15046 0.0
C1458 C 0.64875 0.41026 0.15144 0.0
C1459 C 0.6366 0.38575 0.14243 0.0
C1460 C 0.60557 0.38683 0.13783 0.0
C1461 C 0.58737 0.41213 0.14181 0.0
C1462 C 0.67373 0.32349 0.11683 0.0
C1463 C 0.69589 0.31161 0.12748 0.0
C1464 C 0.65426 0.3472 0.12175 0.0
C1465 C 0.65648 0.35965 0.13743 0.0
C1466 C 0.67842 0.3475 0.14814 0.0
C1467 C 0.69786 0.32377 0.14323 0.0
H1468 H 0.80734 0.39582 0.4071 0.0
H1469 H 0.84253 0.31861 0.38005 0.0
H1470 H 0.84916 0.42742 0.39712 0.0
H1471 H 0.88414 0.35058 0.3698 0.0
H1472 H 0.97032 0.41131 0.36629 0.0
H1473 H 0.93063 0.3781 0.37758 0.0
H1474 H 0.86416 0.45061 0.37172 0.0
H1475 H 0.9038 0.48391 0.36077 0.0
C1476 C 0.82401 0.38551 0.39905 0.0
C1477 C 0.82139 0.35464 0.39432 0.0
C1478 C 0.84792 0.40375 0.39323 0.0
C1479 C 0.86985 0.39166 0.38252 0.0
C1480 C 0.86777 0.36058 0.37813 0.0
C1481 C 0.84382 0.34227 0.38397 0.0
C1482 C 0.94723 0.42016 0.36742 0.0
C1483 C 0.94027 0.45032 0.36266 0.0
C1484 C 0.92445 0.40106 0.37382 0.0
C1485 C 0.89422 0.41172 0.37564 0.0
C1486 C 0.88729 0.44182 0.37077 0.0
C1487 C 0.91002 0.46087 0.36437 0.0
H1488 H 0.86102 0.43738 0.83551 0.0
H1489 H 0.93169 0.41449 0.87017 0.0
H1490 H 0.82857 0.39725 0.84653 0.0
H1491 H 0.89872 0.37458 0.88147 0.0
H1492 H 0.83947 0.28734 0.88771 0.0
H1493 H 0.87458 0.32519 0.87623 0.0
H1494 H 0.79938 0.38876 0.8708 0.0
H1495 H 0.76432 0.35085 0.88188 0.0
C1496 C 0.86971 0.42376 0.84548 0.0
C1497 C 0.89895 0.42937 0.85201 0.0
C1498 C 0.85095 0.40084 0.85188 0.0
C1499 C 0.86081 0.38295 0.86505 0.0
C1500 C 0.89045 0.38783 0.87128 0.0
C1501 C 0.90933 0.41077 0.86482 0.0
C1502 C 0.83048 0.30944 0.88411 0.0
C1503 C 0.79904 0.316 0.88564 0.0
C1504 C 0.85063 0.33118 0.87758 0.0
C1505 C 0.83979 0.35994 0.87245 0.0
C1506 C 0.80845 0.36663 0.8743 0.0
C1507 C 0.78834 0.34493 0.88078 0.0
H1508 H 0.97076 0.59204 0.13201 0.0
H1509 H 0.91045 0.51416 0.12649 0.0
H1510 H 0.93215 0.62501 0.11957 0.0
H1511 H 0.87172 0.54713 0.11445 0.0
H1512 H 0.82087 0.60612 0.07871 0.0
H1513 H 0.8622 0.57544 0.08996 0.0
H1514 H 0.882 0.64711 0.12454 0.0
H1515 H 0.84101 0.67824 0.11302 0.0
C1516 C 0.94921 0.58198 0.12823 0.0
C1517 C 0.94373 0.55043 0.1302 0.0
C1518 C 0.92703 0.60091 0.12116 0.0
C1519 C 0.89888 0.58871 0.11591 0.0
C1520 C 0.89336 0.55721 0.11806 0.0
C1521 C 0.91551 0.53831 0.12508 0.0
C1522 C 0.83415 0.61551 0.08863 0.0
C1523 C 0.82742 0.64462 0.09501 0.0
C1524 C 0.85776 0.59778 0.09516 0.0
C1525 C 0.8752 0.60861 0.1083 0.0
C1526 C 0.86916 0.63813 0.11435 0.0
C1527 C 0.84557 0.65596 0.10777 0.0
H1528 H 0.65056 0.55924 0.33003 0.0
H1529 H 0.57474 0.58656 0.3605 0.0
H1530 H 0.68178 0.59997 0.3415 0.0
H1531 H 0.60636 0.62706 0.37222 0.0
H1532 H 0.66577 0.71364 0.3795 0.0
H1533 H 0.63234 0.67564 0.36677 0.0
H1534 H 0.70661 0.6102 0.36708 0.0
H1535 H 0.74004 0.64817 0.37945 0.0
C1536 C 0.64045 0.57399 0.33913 0.0
C1537 C 0.61012 0.56941 0.34439 0.0
C1538 C 0.65848 0.59726 0.34581 0.0
C1539 C 0.64674 0.61658 0.35794 0.0
C1540 C 0.61609 0.61272 0.36283 0.0
C1541 C 0.59798 0.5894 0.35613 0.0
C1542 C 0.67493 0.69112 0.37685 0.0
C1543 C 0.70564 0.684 0.38045 0.0
C1544 C 0.65573 0.6693 0.36961 0.0
C1545 C 0.66682 0.63991 0.36579 0.0
C1546 C 0.69744 0.63278 0.36956 0.0
C1547 C 0.71659 0.65453 0.37677 0.0
H1548 H 0.65911 0.31995 0.6071 0.0
H1549 H 0.69193 0.39883 0.58055 0.0
H1550 H 0.61364 0.34873 0.61518 0.0
H1551 H 0.64684 0.42756 0.58883 0.0
H1552 H 0.54919 0.46192 0.59405 0.0
H1553 H 0.59158 0.43007 0.58479 0.0
H1554 H 0.60059 0.39198 0.63288 0.0
H1555 H 0.55785 0.4235 0.6421 0.0
C1556 C 0.65664 0.34336 0.60294 0.0
C1557 C 0.67929 0.35704 0.59318 0.0
C1558 C 0.63064 0.35991 0.60765 0.0
C1559 C 0.62661 0.39046 0.60267 0.0
C1560 C 0.64901 0.40395 0.59272 0.0
C1561 C 0.675 0.38748 0.58805 0.0
C1562 C 0.56008 0.44665 0.60264 0.0
C1563 C 0.55019 0.44539 0.61884 0.0
C1564 C 0.5845 0.42849 0.59735 0.0
C1565 C 0.59959 0.40857 0.60811 0.0
C1566 C 0.58929 0.40684 0.62423 0.0
C1567 C 0.56489 0.42507 0.62954 0.0
H1568 H 0.06553 0.39924 0.35501 0.0
H1569 H 0.15297 0.43839 0.34159 0.0
H1570 H 0.09161 0.35306 0.36456 0.0
H1571 H 0.17881 0.39232 0.35115 0.0
H1572 H 0.21446 0.32271 0.38861 0.0
H1573 H 0.18732 0.36759 0.37842 0.0
H1574 H 0.12333 0.30881 0.35338 0.0
H1575 H 0.15054 0.26371 0.36354 0.0
C1576 C 0.09026 0.39798 0.35402 0.0
C1577 C 0.10714 0.4226 0.34755 0.0
C1578 C 0.10515 0.37147 0.35943 0.0
C1579 C 0.13724 0.36917 0.35868 0.0
C1580 C 0.15407 0.3936 0.35206 0.0
C1581 C 0.13921 0.41992 0.34648 0.0
C1582 C 0.19457 0.31929 0.38096 0.0
C1583 C 0.18471 0.28961 0.37686 0.0
C1584 C 0.17915 0.34502 0.37505 0.0
C1585 C 0.15329 0.34169 0.36505 0.0
C1586 C 0.1431 0.31205 0.36113 0.0
C1587 C 0.15877 0.28626 0.36689 0.0
H1588 H 0.33583 0.31882 0.11123 0.0
H1589 H 0.31129 0.38859 0.0764 0.0
H1590 H 0.37641 0.35184 0.12168 0.0
H1591 H 0.35226 0.42114 0.08654 0.0
H1592 H 0.3984 0.4862 0.12186 0.0
H1593 H 0.3612 0.45084 0.11047 0.0
H1594 H 0.42534 0.37625 0.11639 0.0
H1595 H 0.46251 0.41173 0.12823 0.0
C1596 C 0.3394 0.34096 0.1056 0.0
C1597 C 0.32004 0.35114 0.09307 0.0
C1598 C 0.36276 0.35988 0.11158 0.0
C1599 C 0.36737 0.38936 0.10512 0.0
C1600 C 0.3489 0.39889 0.09209 0.0
C1601 C 0.32551 0.3801 0.08618 0.0
C1602 C 0.40464 0.46226 0.12077 0.0
C1603 C 0.43349 0.45184 0.12594 0.0
C1604 C 0.38334 0.44198 0.11409 0.0
C1605 C 0.39033 0.41069 0.11233 0.0
C1606 C 0.4191 0.40014 0.11766 0.0
C1607 C 0.44045 0.4205 0.1244 0.0
H1608 H 0.2923 0.68175 0.88278 0.0
H1609 H 0.3589 0.74106 0.85998 0.0
H1610 H 0.3198 0.63702 0.87274 0.0
H1611 H 0.38651 0.69606 0.84995 0.0
H1612 H 0.44302 0.60455 0.85222 0.0
H1613 H 0.41677 0.65091 0.86142 0.0
H1614 H 0.33035 0.61329 0.84549 0.0
H1615 H 0.35634 0.56709 0.83629 0.0
C1616 C 0.31284 0.68527 0.87565 0.0
C1617 C 0.32336 0.715 0.87215 0.0
C1618 C 0.32849 0.65962 0.86983 0.0
C1619 C 0.35522 0.66306 0.86051 0.0
C1620 C 0.36604 0.69274 0.85718 0.0
C1621 C 0.35015 0.71847 0.86286 0.0
C1622 C 0.41844 0.60622 0.8506 0.0
C1623 C 0.4018 0.58201 0.84355 0.0
C1624 C 0.40346 0.63284 0.8558 0.0
C1625 C 0.3715 0.63562 0.85425 0.0
C1626 C 0.35495 0.61163 0.84702 0.0
C1627 C 0.36992 0.58522 0.84166 0.0
H1628 H 0.07621 0.54472 0.64211 0.0
H1629 H 0.0155 0.60642 0.61668 0.0
H1630 H 0.12034 0.57323 0.63198 0.0
H1631 H 0.05985 0.63508 0.60663 0.0
H1632 H 0.14998 0.69436 0.60711 0.0
H1633 H 0.10455 0.6681 0.61769 0.0
H1634 H 0.1434 0.58098 0.60392 0.0
H1635 H 0.18851 0.60694 0.59327 0.0
C1636 C 0.07225 0.56448 0.63445 0.0
C1637 C 0.04232 0.57321 0.63014 0.0
C1638 C 0.09754 0.5807 0.62859 0.0
C1639 C 0.09351 0.60627 0.61846 0.0
C1640 C 0.06361 0.61555 0.61448 0.0
C1641 C 0.03826 0.59904 0.62017 0.0
C1642 C 0.14877 0.66962 0.60629 0.0
C1643 C 0.17293 0.65278 0.59933 0.0
C1644 C 0.12272 0.65463 0.61229 0.0
C1645 C 0.12056 0.62251 0.6117 0.0
C1646 C 0.1446 0.60574 0.60469 0.0
C1647 C 0.17037 0.62068 0.5985 0.0
H1648 H 0.06533 0.6035 0.1411 0.0
H1649 H 0.15365 0.56607 0.15421 0.0
H1650 H 0.09037 0.65028 0.13159 0.0
H1651 H 0.17847 0.61277 0.14469 0.0
H1652 H 0.21218 0.68308 0.10706 0.0
H1653 H 0.18625 0.63771 0.11749 0.0
H1654 H 0.12123 0.69522 0.14258 0.0
H1655 H 0.14725 0.74086 0.13216 0.0
C1656 C 0.09004 0.60526 0.14202 0.0
C1657 C 0.10747 0.58093 0.14838 0.0
C1658 C 0.10433 0.63212 0.13664 0.0
C1659 C 0.13637 0.6351 0.13733 0.0
C1660 C 0.15376 0.61098 0.14385 0.0
C1661 C 0.13948 0.58429 0.14939 0.0
C1662 C 0.19233 0.68613 0.11478 0.0
C1663 C 0.18181 0.71562 0.11879 0.0
C1664 C 0.1776 0.66011 0.12083 0.0
C1665 C 0.1518 0.66292 0.13091 0.0
C1666 C 0.14098 0.69237 0.13477 0.0
C1667 C 0.15596 0.71847 0.12886 0.0
H1668 H 0.16592 0.32018 0.88492 0.0
H1669 H 0.1948 0.39066 0.91843 0.0
H1670 H 0.12381 0.35261 0.87599 0.0
H1671 H 0.15216 0.42272 0.9098 0.0
H1672 H 0.10087 0.48617 0.8749 0.0
H1673 H 0.1393 0.45204 0.88624 0.0
H1674 H 0.07576 0.37631 0.88284 0.0
H1675 H 0.03745 0.41045 0.87105 0.0
C1676 C 0.163 0.34236 0.89061 0.0
C1677 C 0.184 0.35287 0.9023 0.0
C1678 C 0.13871 0.36095 0.88551 0.0
C1679 C 0.13472 0.39046 0.89204 0.0
C1680 C 0.15491 0.40039 0.90425 0.0
C1681 C 0.17927 0.38188 0.9093 0.0
C1682 C 0.09501 0.46227 0.8766 0.0
C1683 C 0.06609 0.45106 0.872 0.0
C1684 C 0.11701 0.44269 0.88324 0.0
C1685 C 0.11066 0.41138 0.88554 0.0
C1686 C 0.08158 0.40021 0.88109 0.0
C1687 C 0.05956 0.41981 0.87438 0.0
H1688 H 0.26839 0.34606 0.61658 0.0
H1689 H 0.34327 0.28129 0.61575 0.0
H1690 H 0.30245 0.38499 0.62753 0.0
H1691 H 0.37741 0.32037 0.627 0.0
H1692 H 0.43348 0.41185 0.63029 0.0
H1693 H 0.40192 0.36988 0.61992 0.0
H1694 H 0.32931 0.39545 0.6528 0.0
H1695 H 0.36037 0.43741 0.66297 0.0
C1696 C 0.29212 0.34007 0.61876 0.0
C1697 C 0.30305 0.3105 0.61533 0.0
C1698 C 0.31163 0.36237 0.62515 0.0
C1699 C 0.3426 0.35572 0.62828 0.0
C1700 C 0.35371 0.32626 0.62464 0.0
C1701 C 0.33411 0.30385 0.61827 0.0
C1702 C 0.4109 0.40831 0.63542 0.0
C1703 C 0.39939 0.42826 0.64736 0.0
C1704 C 0.39285 0.3842 0.6295 0.0
C1705 C 0.36294 0.37959 0.63537 0.0
C1706 C 0.35198 0.39878 0.64775 0.0
C1707 C 0.36993 0.42277 0.65366 0.0
H1708 H 0.47377 0.55287 0.3972 0.0
H1709 H 0.449 0.57753 0.3482 0.0
H1710 H 0.43203 0.58449 0.40754 0.0
H1711 H 0.4071 0.60895 0.35857 0.0
H1712 H 0.35048 0.68327 0.38372 0.0
H1713 H 0.39617 0.65603 0.3745 0.0
H1714 H 0.37554 0.58173 0.4073 0.0
H1715 H 0.33014 0.60889 0.41662 0.0
C1716 C 0.45954 0.56514 0.38863 0.0
C1717 C 0.46464 0.56251 0.37186 0.0
C1718 C 0.43552 0.58315 0.39456 0.0
C1719 C 0.41617 0.59914 0.38388 0.0
C1720 C 0.42177 0.59716 0.36713 0.0
C1721 C 0.44567 0.57898 0.36118 0.0
C1722 C 0.35583 0.66126 0.38909 0.0
C1723 C 0.33652 0.64826 0.40089 0.0
C1724 C 0.38192 0.64558 0.38371 0.0
C1725 C 0.38944 0.61668 0.39013 0.0
C1726 C 0.37058 0.60408 0.40222 0.0
C1727 C 0.34442 0.61961 0.4075 0.0
loop_
_geom_bond_atom_site_label_1
_geom_bond_atom_site_label_2
_geom_bond_distance
_geom_bond_site_symmetry_2
_ccdc_geom_bond_type
Mg0 O1 2.028 . S
Mg0 O7 1.986 . S
Mg0 O9 2.114 1_545 S
Mg0 O10 2.251 1_545 S
Mg0 O13 2.010 . S
O1 Mg0 2.028 . S
O1 C4 1.250 . S
O2 Mg3 2.028 . S
O2 C4 1.248 . S
Mg3 O2 2.028 . S
Mg3 O8 2.032 . S
Mg3 O10 2.079 1_545 S
C4 O1 1.250 . S
C4 O2 1.248 . S
C5 O6 1.264 . S
C5 O13 1.249 . S
O6 C5 1.264 . S
O7 Mg0 1.986 . S
O7 C11 1.246 . S
O8 Mg3 2.032 . S
O8 C11 1.259 . S
O9 Mg0 2.114 1_565 S
O9 C12 1.252 . S
O10 Mg0 2.251 1_565 S
O10 Mg3 2.079 1_565 S
O10 C12 1.273 . S
C11 O7 1.246 . S
C11 O8 1.259 . S
C12 O9 1.252 . S
C12 O10 1.273 . S
O13 Mg0 2.010 . S
O13 C5 1.249 . S
Mg14 O15 2.028 . S
Mg14 O21 1.986 . S
Mg14 O23 2.114 . S
Mg14 O24 2.251 . S
Mg14 O27 2.010 . S
O15 Mg14 2.028 . S
O15 C18 1.250 . S
O16 Mg17 2.028 . S
O16 C18 1.248 . S
Mg17 O16 2.028 . S
Mg17 O22 2.032 . S
Mg17 O24 2.079 . S
C18 O15 1.250 . S
C18 O16 1.248 . S
C19 O20 1.264 . S
C19 O27 1.249 . S
O20 C19 1.264 . S
O21 Mg14 1.986 . S
O21 C25 1.246 . S
O22 Mg17 2.032 . S
O22 C25 1.259 . S
O23 Mg14 2.114 . S
O23 C26 1.252 . S
O24 Mg14 2.251 . S
O24 Mg17 2.079 . S
O24 C26 1.273 . S
C25 O21 1.246 . S
C25 O22 1.259 . S
C26 O23 1.252 . S
C26 O24 1.273 . S
O27 Mg14 2.010 . S
O27 C19 1.249 . S
Mg28 O29 2.028 . S
Mg28 O35 1.986 . S
Mg28 O37 2.114 1_565 S
Mg28 O38 2.251 1_565 S
Mg28 O41 2.010 . S
O29 Mg28 2.028 . S
O29 C32 1.250 . S
O30 Mg31 2.028 . S
O30 C32 1.248 . S
Mg31 O30 2.028 . S
Mg31 O36 2.032 . S
Mg31 O38 2.079 1_565 S
C32 O29 1.250 . S
C32 O30 1.248 . S
C33 O34 1.264 . S
C33 O41 1.249 1_655 S
O34 C33 1.264 . S
O35 Mg28 1.986 . S
O35 C39 1.246 . S
O36 Mg31 2.032 . S
O36 C39 1.259 . S
O37 Mg28 2.114 1_545 S
O37 C40 1.252 . S
O38 Mg28 2.251 1_545 S
O38 Mg31 2.079 1_545 S
O38 C40 1.273 . S
C39 O35 1.246 . S
C39 O36 1.259 . S
C40 O37 1.252 . S
C40 O38 1.273 . S
O41 Mg28 2.010 . S
O41 C33 1.249 1_455 S
Mg42 O43 2.028 . S
Mg42 O49 1.986 . S
Mg42 O51 2.114 . S
Mg42 O52 2.251 . S
Mg42 O55 2.010 . S
O43 Mg42 2.028 . S
O43 C46 1.250 . S
O44 Mg45 2.028 . S
O44 C46 1.248 . S
Mg45 O44 2.028 . S
Mg45 O50 2.032 . S
Mg45 O52 2.079 . S
C46 O43 1.250 . S
C46 O44 1.248 . S
C47 O48 1.264 . S
C47 O55 1.249 . S
O48 C47 1.264 . S
O49 Mg42 1.986 . S
O49 C53 1.246 . S
O50 Mg45 2.032 . S
O50 C53 1.259 . S
O51 Mg42 2.114 . S
O51 C54 1.252 . S
O52 Mg42 2.251 . S
O52 Mg45 2.079 . S
O52 C54 1.273 . S
C53 O49 1.246 . S
C53 O50 1.259 . S
C54 O51 1.252 . S
C54 O52 1.273 . S
O55 Mg42 2.010 . S
O55 C47 1.249 . S
Mg56 O57 2.028 . S
Mg56 O63 1.986 . S
Mg56 O65 2.114 1_565 S
Mg56 O66 2.251 1_565 S
Mg56 O69 2.010 . S
O57 Mg56 2.028 . S
O57 C60 1.250 . S
O58 Mg59 2.028 . S
O58 C60 1.248 . S
Mg59 O58 2.028 . S
Mg59 O64 2.032 . S
Mg59 O66 2.079 1_565 S
C60 O57 1.250 . S
C60 O58 1.248 . S
C61 O62 1.264 . S
C61 O69 1.249 . S
O62 C61 1.264 . S
O63 Mg56 1.986 . S
O63 C67 1.246 . S
O64 Mg59 2.032 . S
O64 C67 1.259 . S
O65 Mg56 2.114 1_545 S
O65 C68 1.252 . S
O66 Mg56 2.251 1_545 S
O66 Mg59 2.079 1_545 S
O66 C68 1.273 . S
C67 O63 1.246 . S
C67 O64 1.259 . S
C68 O65 1.252 . S
C68 O66 1.273 . S
O69 Mg56 2.010 . S
O69 C61 1.249 . S
Mg70 O71 2.028 . S
Mg70 O77 1.986 . S
Mg70 O79 2.114 . S
Mg70 O80 2.251 . S
Mg70 O83 2.010 . S
O71 Mg70 2.028 . S
O71 C74 1.250 . S
O72 Mg73 2.028 . S
O72 C74 1.248 . S
Mg73 O72 2.028 . S
Mg73 O78 2.032 . S
Mg73 O80 2.079 . S
C74 O71 1.250 . S
C74 O72 1.248 . S
C75 O76 1.264 . S
C75 O83 1.249 . S
O76 C75 1.264 . S
O77 Mg70 1.986 . S
O77 C81 1.246 . S
O78 Mg73 2.032 . S
O78 C81 1.259 . S
O79 Mg70 2.114 . S
O79 C82 1.252 . S
O80 Mg70 2.251 . S
O80 Mg73 2.079 . S
O80 C82 1.273 . S
C81 O77 1.246 . S
C81 O78 1.259 . S
C82 O79 1.252 . S
C82 O80 1.273 . S
O83 Mg70 2.010 . S
O83 C75 1.249 . S
Mg84 O85 2.028 . S
Mg84 O91 1.986 . S
Mg84 O93 2.114 1_545 S
Mg84 O94 2.251 1_545 S
Mg84 O97 2.010 . S
O85 Mg84 2.028 . S
O85 C88 1.250 . S
O86 Mg87 2.028 . S
O86 C88 1.248 . S
Mg87 O86 2.028 . S
Mg87 O92 2.032 . S
Mg87 O94 2.079 1_545 S
C88 O85 1.250 . S
C88 O86 1.248 . S
C89 O90 1.264 . S
C89 O97 1.249 1_655 S
O90 C89 1.264 . S
O91 Mg84 1.986 . S
O91 C95 1.246 . S
O92 Mg87 2.032 . S
O92 C95 1.259 . S
O93 Mg84 2.114 1_565 S
O93 C96 1.252 . S
O94 Mg84 2.251 1_565 S
O94 Mg87 2.079 1_565 S
O94 C96 1.273 . S
C95 O91 1.246 . S
C95 O92 1.259 . S
C96 O93 1.252 . S
C96 O94 1.273 . S
O97 Mg84 2.010 . S
O97 C89 1.249 1_455 S
Mg98 O99 2.028 . S
Mg98 O105 1.986 . S
Mg98 O107 2.114 . S
Mg98 O108 2.251 . S
Mg98 O111 2.010 . S
O99 Mg98 2.028 . S
O99 C102 1.250 . S
O100 Mg101 2.028 . S
O100 C102 1.248 . S
Mg101 O100 2.028 . S
Mg101 O106 2.032 . S
Mg101 O108 2.079 . S
C102 O99 1.250 . S
C102 O100 1.248 . S
C103 O104 1.264 . S
C103 O111 1.249 . S
O104 C103 1.264 . S
O105 Mg98 1.986 . S
O105 C109 1.246 . S
O106 Mg101 2.032 . S
O106 C109 1.259 . S
O107 Mg98 2.114 . S
O107 C110 1.252 . S
O108 Mg98 2.251 . S
O108 Mg101 2.079 . S
O108 C110 1.273 . S
C109 O105 1.246 . S
C109 O106 1.259 . S
C110 O107 1.252 . S
C110 O108 1.273 . S
O111 Mg98 2.010 . S
O111 C103 1.249 . S
Mg112 O113 2.028 . S
Mg112 O119 1.986 . S
Mg112 O121 2.114 1_565 S
Mg112 O122 2.251 1_565 S
Mg112 O125 2.010 . S
O113 Mg112 2.028 . S
O113 C116 1.250 . S
O114 Mg115 2.028 . S
O114 C116 1.248 . S
Mg115 O114 2.028 . S
Mg115 O120 2.032 . S
Mg115 O122 2.079 1_565 S
C116 O113 1.250 . S
C116 O114 1.248 . S
C117 O118 1.264 . S
C117 O125 1.249 . S
O118 C117 1.264 . S
O119 Mg112 1.986 . S
O119 C123 1.246 . S
O120 Mg115 2.032 . S
O120 C123 1.259 . S
O121 Mg112 2.114 1_545 S
O121 C124 1.252 . S
O122 Mg112 2.251 1_545 S
O122 Mg115 2.079 1_545 S
O122 C124 1.273 . S
C123 O119 1.246 . S
C123 O120 1.259 . S
C124 O121 1.252 . S
C124 O122 1.273 . S
O125 Mg112 2.010 . S
O125 C117 1.249 . S
Mg126 O127 2.028 . S
Mg126 O133 1.986 . S
Mg126 O135 2.114 . S
Mg126 O136 2.251 . S
Mg126 O139 2.010 . S
O127 Mg126 2.028 . S
O127 C130 1.250 . S
O128 Mg129 2.028 . S
O128 C130 1.248 . S
Mg129 O128 2.028 . S
Mg129 O134 2.032 . S
Mg129 O136 2.079 . S
C130 O127 1.250 . S
C130 O128 1.248 . S
C131 O132 1.264 . S
C131 O139 1.249 . S
O132 C131 1.264 . S
O133 Mg126 1.986 . S
O133 C137 1.246 . S
O134 Mg129 2.032 . S
O134 C137 1.259 . S
O135 Mg126 2.114 . S
O135 C138 1.252 . S
O136 Mg126 2.251 . S
O136 Mg129 2.079 . S
O136 C138 1.273 . S
C137 O133 1.246 . S
C137 O134 1.259 . S
C138 O135 1.252 . S
C138 O136 1.273 . S
O139 Mg126 2.010 . S
O139 C131 1.249 . S
Mg140 O141 2.028 . S
Mg140 O147 1.986 . S
Mg140 O149 2.114 1_545 S
Mg140 O150 2.251 1_545 S
Mg140 O153 2.010 . S
O141 Mg140 2.028 . S
O141 C144 1.250 . S
O142 Mg143 2.028 . S
O142 C144 1.248 . S
Mg143 O142 2.028 . S
Mg143 O148 2.032 . S
Mg143 O150 2.079 1_545 S
C144 O141 1.250 . S
C144 O142 1.248 . S
C145 O146 1.264 . S
C145 O153 1.249 1_455 S
O146 C145 1.264 . S
O147 Mg140 1.986 . S
O147 C151 1.246 . S
O148 Mg143 2.032 . S
O148 C151 1.259 . S
O149 Mg140 2.114 1_565 S
O149 C152 1.252 . S
O150 Mg140 2.251 1_565 S
O150 Mg143 2.079 1_565 S
O150 C152 1.273 . S
C151 O147 1.246 . S
C151 O148 1.259 . S
C152 O149 1.252 . S
C152 O150 1.273 . S
O153 Mg140 2.010 . S
O153 C145 1.249 1_655 S
Mg154 O155 2.028 . S
Mg154 O161 1.986 . S
Mg154 O163 2.114 . S
Mg154 O164 2.251 . S
Mg154 O167 2.010 . S
O155 Mg154 2.028 . S
O155 C158 1.250 . S
O156 Mg157 2.028 . S
O156 C158 1.248 . S
Mg157 O156 2.028 . S
Mg157 O162 2.032 . S
Mg157 O164 2.079 . S
C158 O155 1.250 . S
C158 O156 1.248 . S
C159 O160 1.264 . S
C159 O167 1.249 . S
O160 C159 1.264 . S
O161 Mg154 1.986 . S
O161 C165 1.246 . S
O162 Mg157 2.032 . S
O162 C165 1.259 . S
O163 Mg154 2.114 . S
O163 C166 1.252 . S
O164 Mg154 2.251 . S
O164 Mg157 2.079 . S
O164 C166 1.273 . S
C165 O161 1.246 . S
C165 O162 1.259 . S
C166 O163 1.252 . S
C166 O164 1.273 . S
O167 Mg154 2.010 . S
O167 C159 1.249 . S
Mg168 O169 2.028 . S
Mg168 O175 1.986 . S
Mg168 O177 2.114 1_545 S
Mg168 O178 2.251 1_545 S
Mg168 O181 2.010 . S
O169 Mg168 2.028 . S
O169 C172 1.250 . S
O170 Mg171 2.028 . S
O170 C172 1.248 . S
Mg171 O170 2.028 . S
Mg171 O176 2.032 . S
Mg171 O178 2.079 1_545 S
C172 O169 1.250 . S
C172 O170 1.248 . S
C173 O174 1.264 . S
C173 O181 1.249 . S
O174 C173 1.264 . S
O175 Mg168 1.986 . S
O175 C179 1.246 . S
O176 Mg171 2.032 . S
O176 C179 1.259 . S
O177 Mg168 2.114 1_565 S
O177 C180 1.252 . S
O178 Mg168 2.251 1_565 S
O178 Mg171 2.079 1_565 S
O178 C180 1.273 . S
C179 O175 1.246 . S
C179 O176 1.259 . S
C180 O177 1.252 . S
C180 O178 1.273 . S
O181 Mg168 2.010 . S
O181 C173 1.249 . S
Mg182 O183 2.028 . S
Mg182 O189 1.986 . S
Mg182 O191 2.114 . S
Mg182 O192 2.251 . S
Mg182 O195 2.010 . S
O183 Mg182 2.028 . S
O183 C186 1.250 . S
O184 Mg185 2.028 . S
O184 C186 1.248 . S
Mg185 O184 2.028 . S
Mg185 O190 2.032 . S
Mg185 O192 2.079 . S
C186 O183 1.250 . S
C186 O184 1.248 . S
C187 O188 1.264 . S
C187 O195 1.249 . S
O188 C187 1.264 . S
O189 Mg182 1.986 . S
O189 C193 1.246 . S
O190 Mg185 2.032 . S
O190 C193 1.259 . S
O191 Mg182 2.114 . S
O191 C194 1.252 . S
O192 Mg182 2.251 . S
O192 Mg185 2.079 . S
O192 C194 1.273 . S
C193 O189 1.246 . S
C193 O190 1.259 . S
C194 O191 1.252 . S
C194 O192 1.273 . S
O195 Mg182 2.010 . S
O195 C187 1.249 . S
Mg196 O197 2.028 . S
Mg196 O203 1.986 . S
Mg196 O205 2.114 1_565 S
Mg196 O206 2.251 1_565 S
Mg196 O209 2.010 . S
O197 Mg196 2.028 . S
O197 C200 1.250 . S
O198 Mg199 2.028 . S
O198 C200 1.248 . S
Mg199 O198 2.028 . S
Mg199 O204 2.032 . S
Mg199 O206 2.079 1_565 S
C200 O197 1.250 . S
C200 O198 1.248 . S
C201 O202 1.264 . S
C201 O209 1.249 1_455 S
O202 C201 1.264 . S
O203 Mg196 1.986 . S
O203 C207 1.246 . S
O204 Mg199 2.032 . S
O204 C207 1.259 . S
O205 Mg196 2.114 1_545 S
O205 C208 1.252 . S
O206 Mg196 2.251 1_545 S
O206 Mg199 2.079 1_545 S
O206 C208 1.273 . S
C207 O203 1.246 . S
C207 O204 1.259 . S
C208 O205 1.252 . S
C208 O206 1.273 . S
O209 Mg196 2.010 . S
O209 C201 1.249 1_655 S
Mg210 O211 2.028 . S
Mg210 O217 1.986 . S
Mg210 O219 2.114 . S
Mg210 O220 2.251 . S
Mg210 O223 2.010 . S
O211 Mg210 2.028 . S
O211 C214 1.250 . S
O212 Mg213 2.028 . S
O212 C214 1.248 . S
Mg213 O212 2.028 . S
Mg213 O218 2.032 . S
Mg213 O220 2.079 . S
C214 O211 1.250 . S
C214 O212 1.248 . S
C215 O216 1.264 . S
C215 O223 1.249 . S
O216 C215 1.264 . S
O217 Mg210 1.986 . S
O217 C221 1.246 . S
O218 Mg213 2.032 . S
O218 C221 1.259 . S
O219 Mg210 2.114 . S
O219 C222 1.252 . S
O220 Mg210 2.251 . S
O220 Mg213 2.079 . S
O220 C222 1.273 . S
C221 O217 1.246 . S
C221 O218 1.259 . S
C222 O219 1.252 . S
C222 O220 1.273 . S
O223 Mg210 2.010 . S
O223 C215 1.249 . S
Mg224 O225 2.028 . S
Mg224 O231 1.986 . S
Mg224 O233 2.114 . S
Mg224 O234 2.251 . S
Mg224 O237 2.010 . S
O225 Mg224 2.028 . S
O225 C228 1.250 . S
O226 Mg227 2.028 . S
O226 C228 1.248 . S
Mg227 O226 2.028 . S
Mg227 O232 2.032 . S
Mg227 O234 2.079 . S
C228 O225 1.250 . S
C228 O226 1.248 . S
C229 O230 1.264 . S
C229 O237 1.249 1_455 S
O230 C229 1.264 . S
O231 Mg224 1.986 . S
O231 C235 1.246 . S
O232 Mg227 2.032 . S
O232 C235 1.259 . S
O233 Mg224 2.114 . S
O233 C236 1.252 . S
O234 Mg224 2.251 . S
O234 Mg227 2.079 . S
O234 C236 1.273 . S
C235 O231 1.246 . S
C235 O232 1.259 . S
C236 O233 1.252 . S
C236 O234 1.273 . S
O237 Mg224 2.010 . S
O237 C229 1.249 1_655 S
Mg238 O239 2.028 . S
Mg238 O245 1.986 . S
Mg238 O247 2.114 . S
Mg238 O248 2.251 . S
Mg238 O251 2.010 . S
O239 Mg238 2.028 . S
O239 C242 1.250 . S
O240 Mg241 2.028 . S
O240 C242 1.248 . S
Mg241 O240 2.028 . S
Mg241 O246 2.032 . S
Mg241 O248 2.079 . S
C242 O239 1.250 . S
C242 O240 1.248 . S
C243 O244 1.264 . S
C243 O251 1.249 . S
O244 C243 1.264 . S
O245 Mg238 1.986 . S
O245 C249 1.246 . S
O246 Mg241 2.032 . S
O246 C249 1.259 . S
O247 Mg238 2.114 . S
O247 C250 1.252 . S
O248 Mg238 2.251 . S
O248 Mg241 2.079 . S
O248 C250 1.273 . S
C249 O245 1.246 . S
C249 O246 1.259 . S
C250 O247 1.252 . S
C250 O248 1.273 . S
O251 Mg238 2.010 . S
O251 C243 1.249 . S
Mg252 O253 2.028 . S
Mg252 O259 1.986 . S
Mg252 O261 2.114 . S
Mg252 O262 2.251 . S
Mg252 O265 2.010 . S
O253 Mg252 2.028 . S
O253 C256 1.250 . S
O254 Mg255 2.028 . S
O254 C256 1.248 . S
Mg255 O254 2.028 . S
Mg255 O260 2.032 . S
Mg255 O262 2.079 . S
C256 O253 1.250 . S
C256 O254 1.248 . S
C257 O258 1.264 . S
C257 O265 1.249 . S
O258 C257 1.264 . S
O259 Mg252 1.986 . S
O259 C263 1.246 . S
O260 Mg255 2.032 . S
O260 C263 1.259 . S
O261 Mg252 2.114 . S
O261 C264 1.252 . S
O262 Mg252 2.251 . S
O262 Mg255 2.079 . S
O262 C264 1.273 . S
C263 O259 1.246 . S
C263 O260 1.259 . S
C264 O261 1.252 . S
C264 O262 1.273 . S
O265 Mg252 2.010 . S
O265 C257 1.249 . S
Mg266 O267 2.028 . S
Mg266 O273 1.986 . S
Mg266 O275 2.114 . S
Mg266 O276 2.251 . S
Mg266 O279 2.010 . S
O267 Mg266 2.028 . S
O267 C270 1.250 . S
O268 Mg269 2.028 . S
O268 C270 1.248 . S
Mg269 O268 2.028 . S
Mg269 O274 2.032 . S
Mg269 O276 2.079 . S
C270 O267 1.250 . S
C270 O268 1.248 . S
C271 O272 1.264 . S
C271 O279 1.249 . S
O272 C271 1.264 . S
O273 Mg266 1.986 . S
O273 C277 1.246 . S
O274 Mg269 2.032 . S
O274 C277 1.259 . S
O275 Mg266 2.114 . S
O275 C278 1.252 . S
O276 Mg266 2.251 . S
O276 Mg269 2.079 . S
O276 C278 1.273 . S
C277 O273 1.246 . S
C277 O274 1.259 . S
C278 O275 1.252 . S
C278 O276 1.273 . S
O279 Mg266 2.010 . S
O279 C271 1.249 . S
Mg280 O281 2.028 . S
Mg280 O287 1.986 . S
Mg280 O289 2.114 . S
Mg280 O290 2.251 . S
Mg280 O293 2.010 . S
O281 Mg280 2.028 . S
O281 C284 1.250 . S
O282 Mg283 2.028 . S
O282 C284 1.248 . S
Mg283 O282 2.028 . S
Mg283 O288 2.032 . S
Mg283 O290 2.079 . S
C284 O281 1.250 . S
C284 O282 1.248 . S
C285 O286 1.264 . S
C285 O293 1.249 1_455 S
O286 C285 1.264 . S
O287 Mg280 1.986 . S
O287 C291 1.246 . S
O288 Mg283 2.032 . S
O288 C291 1.259 . S
O289 Mg280 2.114 . S
O289 C292 1.252 . S
O290 Mg280 2.251 . S
O290 Mg283 2.079 . S
O290 C292 1.273 . S
C291 O287 1.246 . S
C291 O288 1.259 . S
C292 O289 1.252 . S
C292 O290 1.273 . S
O293 Mg280 2.010 . S
O293 C285 1.249 1_655 S
Mg294 O295 2.028 . S
Mg294 O301 1.986 . S
Mg294 O303 2.114 . S
Mg294 O304 2.251 . S
Mg294 O307 2.010 . S
O295 Mg294 2.028 . S
O295 C298 1.250 . S
O296 Mg297 2.028 . S
O296 C298 1.248 . S
Mg297 O296 2.028 . S
Mg297 O302 2.032 . S
Mg297 O304 2.079 . S
C298 O295 1.250 . S
C298 O296 1.248 . S
C299 O300 1.264 . S
C299 O307 1.249 . S
O300 C299 1.264 . S
O301 Mg294 1.986 . S
O301 C305 1.246 . S
O302 Mg297 2.032 . S
O302 C305 1.259 . S
O303 Mg294 2.114 . S
O303 C306 1.252 . S
O304 Mg294 2.251 . S
O304 Mg297 2.079 . S
O304 C306 1.273 . S
C305 O301 1.246 . S
C305 O302 1.259 . S
C306 O303 1.252 . S
C306 O304 1.273 . S
O307 Mg294 2.010 . S
O307 C299 1.249 . S
Mg308 O309 2.028 . S
Mg308 O315 1.986 . S
Mg308 O317 2.114 . S
Mg308 O318 2.251 . S
Mg308 O321 2.010 . S
O309 Mg308 2.028 . S
O309 C312 1.250 . S
O310 Mg311 2.028 . S
O310 C312 1.248 . S
Mg311 O310 2.028 . S
Mg311 O316 2.032 . S
Mg311 O318 2.079 . S
C312 O309 1.250 . S
C312 O310 1.248 . S
C313 O314 1.264 . S
C313 O321 1.249 . S
O314 C313 1.264 . S
O315 Mg308 1.986 . S
O315 C319 1.246 . S
O316 Mg311 2.032 . S
O316 C319 1.259 . S
O317 Mg308 2.114 . S
O317 C320 1.252 . S
O318 Mg308 2.251 . S
O318 Mg311 2.079 . S
O318 C320 1.273 . S
C319 O315 1.246 . S
C319 O316 1.259 . S
C320 O317 1.252 . S
C320 O318 1.273 . S
O321 Mg308 2.010 . S
O321 C313 1.249 . S
Mg322 O323 2.028 . S
Mg322 O329 1.986 . S
Mg322 O331 2.114 . S
Mg322 O332 2.251 . S
Mg322 O335 2.010 . S
O323 Mg322 2.028 . S
O323 C326 1.250 . S
O324 Mg325 2.028 . S
O324 C326 1.248 . S
Mg325 O324 2.028 . S
Mg325 O330 2.032 . S
Mg325 O332 2.079 . S
C326 O323 1.250 . S
C326 O324 1.248 . S
C327 O328 1.264 . S
C327 O335 1.249 . S
O328 C327 1.264 . S
O329 Mg322 1.986 . S
O329 C333 1.246 . S
O330 Mg325 2.032 . S
O330 C333 1.259 . S
O331 Mg322 2.114 . S
O331 C334 1.252 . S
O332 Mg322 2.251 . S
O332 Mg325 2.079 . S
O332 C334 1.273 . S
C333 O329 1.246 . S
C333 O330 1.259 . S
C334 O331 1.252 . S
C334 O332 1.273 . S
O335 Mg322 2.010 . S
O335 C327 1.249 . S
Mg336 O337 2.028 . S
Mg336 O343 1.986 . S
Mg336 O345 2.114 . S
Mg336 O346 2.251 . S
Mg336 O349 2.010 . S
O337 Mg336 2.028 . S
O337 C340 1.250 . S
O338 Mg339 2.028 . S
O338 C340 1.248 . S
Mg339 O338 2.028 . S
Mg339 O344 2.032 . S
Mg339 O346 2.079 . S
C340 O337 1.250 . S
C340 O338 1.248 . S
C341 O342 1.264 . S
C341 O349 1.249 1_655 S
O342 C341 1.264 . S
O343 Mg336 1.986 . S
O343 C347 1.246 . S
O344 Mg339 2.032 . S
O344 C347 1.259 . S
O345 Mg336 2.114 . S
O345 C348 1.252 . S
O346 Mg336 2.251 . S
O346 Mg339 2.079 . S
O346 C348 1.273 . S
C347 O343 1.246 . S
C347 O344 1.259 . S
C348 O345 1.252 . S
C348 O346 1.273 . S
O349 Mg336 2.010 . S
O349 C341 1.249 1_455 S
Mg350 O351 2.028 . S
Mg350 O357 1.986 . S
Mg350 O359 2.114 . S
Mg350 O360 2.251 . S
Mg350 O363 2.010 . S
O351 Mg350 2.028 . S
O351 C354 1.250 . S
O352 Mg353 2.028 . S
O352 C354 1.248 . S
Mg353 O352 2.028 . S
Mg353 O358 2.032 . S
Mg353 O360 2.079 . S
C354 O351 1.250 . S
C354 O352 1.248 . S
C355 O356 1.264 . S
C355 O363 1.249 . S
O356 C355 1.264 . S
O357 Mg350 1.986 . S
O357 C361 1.246 . S
O358 Mg353 2.032 . S
O358 C361 1.259 . S
O359 Mg350 2.114 . S
O359 C362 1.252 . S
O360 Mg350 2.251 . S
O360 Mg353 2.079 . S
O360 C362 1.273 . S
C361 O357 1.246 . S
C361 O358 1.259 . S
C362 O359 1.252 . S
C362 O360 1.273 . S
O363 Mg350 2.010 . S
O363 C355 1.249 . S
Mg364 O365 2.028 . S
Mg364 O371 1.986 . S
Mg364 O373 2.114 . S
Mg364 O374 2.251 . S
Mg364 O377 2.010 . S
O365 Mg364 2.028 . S
O365 C368 1.250 . S
O366 Mg367 2.028 . S
O366 C368 1.248 . S
Mg367 O366 2.028 . S
Mg367 O372 2.032 . S
Mg367 O374 2.079 . S
C368 O365 1.250 . S
C368 O366 1.248 . S
C369 O370 1.264 . S
C369 O377 1.249 . S
O370 C369 1.264 . S
O371 Mg364 1.986 . S
O371 C375 1.246 . S
O372 Mg367 2.032 . S
O372 C375 1.259 . S
O373 Mg364 2.114 . S
O373 C376 1.252 . S
O374 Mg364 2.251 . S
O374 Mg367 2.079 . S
O374 C376 1.273 . S
C375 O371 1.246 . S
C375 O372 1.259 . S
C376 O373 1.252 . S
C376 O374 1.273 . S
O377 Mg364 2.010 . S
O377 C369 1.249 . S
Mg378 O379 2.028 . S
Mg378 O385 1.986 . S
Mg378 O387 2.114 . S
Mg378 O388 2.251 . S
Mg378 O391 2.010 . S
O379 Mg378 2.028 . S
O379 C382 1.250 . S
O380 Mg381 2.028 . S
O380 C382 1.248 . S
Mg381 O380 2.028 . S
Mg381 O386 2.032 . S
Mg381 O388 2.079 . S
C382 O379 1.250 . S
C382 O380 1.248 . S
C383 O384 1.264 . S
C383 O391 1.249 . S
O384 C383 1.264 . S
O385 Mg378 1.986 . S
O385 C389 1.246 . S
O386 Mg381 2.032 . S
O386 C389 1.259 . S
O387 Mg378 2.114 . S
O387 C390 1.252 . S
O388 Mg378 2.251 . S
O388 Mg381 2.079 . S
O388 C390 1.273 . S
C389 O385 1.246 . S
C389 O386 1.259 . S
C390 O387 1.252 . S
C390 O388 1.273 . S
O391 Mg378 2.010 . S
O391 C383 1.249 . S
Mg392 O393 2.028 . S
Mg392 O399 1.986 . S
Mg392 O401 2.114 . S
Mg392 O402 2.251 . S
Mg392 O405 2.010 . S
O393 Mg392 2.028 . S
O393 C396 1.250 . S
O394 Mg395 2.028 . S
O394 C396 1.248 . S
Mg395 O394 2.028 . S
Mg395 O400 2.032 . S
Mg395 O402 2.079 . S
C396 O393 1.250 . S
C396 O394 1.248 . S
C397 O398 1.264 . S
C397 O405 1.249 1_655 S
O398 C397 1.264 . S
O399 Mg392 1.986 . S
O399 C403 1.246 . S
O400 Mg395 2.032 . S
O400 C403 1.259 . S
O401 Mg392 2.114 . S
O401 C404 1.252 . S
O402 Mg392 2.251 . S
O402 Mg395 2.079 . S
O402 C404 1.273 . S
C403 O399 1.246 . S
C403 O400 1.259 . S
C404 O401 1.252 . S
C404 O402 1.273 . S
O405 Mg392 2.010 . S
O405 C397 1.249 1_455 S
Mg406 O407 2.028 . S
Mg406 O413 1.986 . S
Mg406 O415 2.114 . S
Mg406 O416 2.251 . S
Mg406 O419 2.010 . S
O407 Mg406 2.028 . S
O407 C410 1.250 . S
O408 Mg409 2.028 . S
O408 C410 1.248 . S
Mg409 O408 2.028 . S
Mg409 O414 2.032 . S
Mg409 O416 2.079 . S
C410 O407 1.250 . S
C410 O408 1.248 . S
C411 O412 1.264 . S
C411 O419 1.249 . S
O412 C411 1.264 . S
O413 Mg406 1.986 . S
O413 C417 1.246 . S
O414 Mg409 2.032 . S
O414 C417 1.259 . S
O415 Mg406 2.114 . S
O415 C418 1.252 . S
O416 Mg406 2.251 . S
O416 Mg409 2.079 . S
O416 C418 1.273 . S
C417 O413 1.246 . S
C417 O414 1.259 . S
C418 O415 1.252 . S
C418 O416 1.273 . S
O419 Mg406 2.010 . S
O419 C411 1.249 . S
Mg420 O421 2.028 . S
Mg420 O427 1.986 . S
Mg420 O429 2.114 . S
Mg420 O430 2.251 . S
Mg420 O433 2.010 . S
O421 Mg420 2.028 . S
O421 C424 1.250 . S
O422 Mg423 2.028 . S
O422 C424 1.248 . S
Mg423 O422 2.028 . S
Mg423 O428 2.032 . S
Mg423 O430 2.079 . S
C424 O421 1.250 . S
C424 O422 1.248 . S
C425 O426 1.264 . S
C425 O433 1.249 . S
O426 C425 1.264 . S
O427 Mg420 1.986 . S
O427 C431 1.246 . S
O428 Mg423 2.032 . S
O428 C431 1.259 . S
O429 Mg420 2.114 . S
O429 C432 1.252 . S
O430 Mg420 2.251 . S
O430 Mg423 2.079 . S
O430 C432 1.273 . S
C431 O427 1.246 . S
C431 O428 1.259 . S
C432 O429 1.252 . S
C432 O430 1.273 . S
O433 Mg420 2.010 . S
O433 C425 1.249 . S
Mg434 O435 2.028 . S
Mg434 O441 1.986 . S
Mg434 O443 2.114 . S
Mg434 O444 2.251 . S
Mg434 O447 2.010 . S
O435 Mg434 2.028 . S
O435 C438 1.250 . S
O436 Mg437 2.028 . S
O436 C438 1.248 . S
Mg437 O436 2.028 . S
Mg437 O442 2.032 . S
Mg437 O444 2.079 . S
C438 O435 1.250 . S
C438 O436 1.248 . S
C439 O440 1.264 . S
C439 O447 1.249 . S
O440 C439 1.264 . S
O441 Mg434 1.986 . S
O441 C445 1.246 . S
O442 Mg437 2.032 . S
O442 C445 1.259 . S
O443 Mg434 2.114 . S
O443 C446 1.252 . S
O444 Mg434 2.251 . S
O444 Mg437 2.079 . S
O444 C446 1.273 . S
C445 O441 1.246 . S
C445 O442 1.259 . S
C446 O443 1.252 . S
C446 O444 1.273 . S
O447 Mg434 2.010 . S
O447 C439 1.249 . S
H448 C456 0.950 . S
H449 C461 0.950 . S
H450 C458 0.950 . S
H451 C460 0.950 . S
H452 C462 0.950 . S
H453 C464 0.950 . S
H454 C466 0.950 . S
H455 C467 0.950 . S
C456 H448 0.950 . S
C456 C457 1.386 1_545 S
C456 C458 1.391 . S
C457 C456 1.386 1_565 S
C457 C461 1.393 . S
C458 H450 0.950 . S
C458 C456 1.391 . S
C458 C459 1.400 1_545 S
C459 C458 1.400 1_565 S
C459 C460 1.398 . S
C459 C465 1.491 1_565 S
C460 H451 0.950 . S
C460 C459 1.398 . S
C460 C461 1.391 . S
C461 H449 0.950 . S
C461 C457 1.393 . S
C461 C460 1.391 . S
C462 H452 0.950 . S
C462 C463 1.386 1_565 S
C462 C464 1.391 . S
C463 C462 1.386 1_545 S
C463 C467 1.393 . S
C464 H453 0.950 . S
C464 C462 1.391 . S
C464 C465 1.400 1_565 S
C465 C459 1.491 1_545 S
C465 C464 1.400 1_545 S
C465 C466 1.398 . S
C466 H454 0.950 . S
C466 C465 1.398 . S
C466 C467 1.391 . S
C467 H455 0.950 . S
C467 C463 1.393 . S
C467 C466 1.391 . S
H468 C476 0.950 . S
H469 C481 0.950 . S
H470 C478 0.950 . S
H471 C480 0.950 . S
H472 C482 0.950 . S
H473 C484 0.950 . S
H474 C486 0.950 . S
H475 C487 0.950 . S
C476 H468 0.950 . S
C476 C477 1.386 . S
C476 C478 1.391 . S
C477 C476 1.386 . S
C477 C481 1.393 . S
C478 H470 0.950 . S
C478 C476 1.391 . S
C478 C479 1.400 . S
C479 C478 1.400 . S
C479 C480 1.398 . S
C479 C485 1.491 . S
C480 H471 0.950 . S
C480 C479 1.398 . S
C480 C481 1.391 . S
C481 H469 0.950 . S
C481 C477 1.393 . S
C481 C480 1.391 . S
C482 H472 0.950 . S
C482 C483 1.386 . S
C482 C484 1.391 . S
C483 C482 1.386 . S
C483 C487 1.393 . S
C484 H473 0.950 . S
C484 C482 1.391 . S
C484 C485 1.400 . S
C485 C479 1.491 . S
C485 C484 1.400 . S
C485 C486 1.398 . S
C486 H474 0.950 . S
C486 C485 1.398 . S
C486 C487 1.391 . S
C487 H475 0.950 . S
C487 C483 1.393 . S
C487 C486 1.391 . S
H488 C496 0.950 . S
H489 C501 0.950 . S
H490 C498 0.950 . S
H491 C500 0.950 . S
H492 C502 0.950 . S
H493 C504 0.950 . S
H494 C506 0.950 . S
H495 C507 0.950 . S
C496 H488 0.950 . S
C496 C497 1.386 . S
C496 C498 1.391 . S
C497 C496 1.386 . S
C497 C501 1.393 1_545 S
C498 H490 0.950 . S
C498 C496 1.391 . S
C498 C499 1.400 . S
C499 C498 1.400 . S
C499 C500 1.398 1_545 S
C499 C505 1.491 1_545 S
C500 H491 0.950 . S
C500 C499 1.398 1_565 S
C500 C501 1.391 . S
C501 H489 0.950 . S
C501 C497 1.393 1_565 S
C501 C500 1.391 . S
C502 H492 0.950 . S
C502 C503 1.386 . S
C502 C504 1.391 . S
C503 C502 1.386 . S
C503 C507 1.393 1_565 S
C504 H493 0.950 . S
C504 C502 1.391 . S
C504 C505 1.400 . S
C505 C499 1.491 1_565 S
C505 C504 1.400 . S
C505 C506 1.398 1_565 S
C506 H494 0.950 . S
C506 C505 1.398 1_545 S
C506 C507 1.391 . S
C507 H495 0.950 . S
C507 C503 1.393 1_545 S
C507 C506 1.391 . S
H508 C516 0.950 . S
H509 C521 0.950 . S
H510 C518 0.950 . S
H511 C520 0.950 . S
H512 C522 0.950 . S
H513 C524 0.950 . S
H514 C526 0.950 . S
H515 C527 0.950 . S
C516 H508 0.950 . S
C516 C517 1.386 . S
C516 C518 1.391 . S
C517 C516 1.386 . S
C517 C521 1.393 . S
C518 H510 0.950 . S
C518 C516 1.391 . S
C518 C519 1.400 . S
C519 C518 1.400 . S
C519 C520 1.398 . S
C519 C525 1.491 1_556 S
C520 H511 0.950 . S
C520 C519 1.398 . S
C520 C521 1.391 . S
C521 H509 0.950 . S
C521 C517 1.393 . S
C521 C520 1.391 . S
C522 H512 0.950 . S
C522 C523 1.386 . S
C522 C524 1.391 . S
C523 C522 1.386 . S
C523 C527 1.393 . S
C524 H513 0.950 . S
C524 C522 1.391 . S
C524 C525 1.400 . S
C525 C519 1.491 1_554 S
C525 C524 1.400 . S
C525 C526 1.398 . S
C526 H514 0.950 . S
C526 C525 1.398 . S
C526 C527 1.391 . S
C527 H515 0.950 . S
C527 C523 1.393 . S
C527 C526 1.391 . S
H528 C536 0.950 1_545 S
H529 C541 0.950 . S
H530 C538 0.950 . S
H531 C540 0.950 . S
H532 C542 0.950 1_565 S
H533 C544 0.950 . S
H534 C546 0.950 . S
H535 C547 0.950 . S
C536 H528 0.950 1_565 S
C536 C537 1.386 . S
C536 C538 1.391 1_565 S
C537 C536 1.386 . S
C537 C541 1.393 . S
C538 H530 0.950 . S
C538 C536 1.391 1_545 S
C538 C539 1.400 1_545 S
C539 C538 1.400 1_565 S
C539 C540 1.398 . S
C539 C545 1.491 1_565 S
C540 H531 0.950 . S
C540 C539 1.398 . S
C540 C541 1.391 . S
C541 H529 0.950 . S
C541 C537 1.393 . S
C541 C540 1.391 . S
C542 H532 0.950 1_545 S
C542 C543 1.386 . S
C542 C544 1.391 1_545 S
C543 C542 1.386 . S
C543 C547 1.393 . S
C544 H533 0.950 . S
C544 C542 1.391 1_565 S
C544 C545 1.400 1_565 S
C545 C539 1.491 1_545 S
C545 C544 1.400 1_545 S
C545 C546 1.398 . S
C546 H534 0.950 . S
C546 C545 1.398 . S
C546 C547 1.391 . S
C547 H535 0.950 . S
C547 C543 1.393 . S
C547 C546 1.391 . S
H548 C556 0.950 . S
H549 C561 0.950 . S
H550 C558 0.950 . S
H551 C560 0.950 . S
H552 C562 0.950 . S
H553 C564 0.950 . S
H554 C566 0.950 . S
H555 C567 0.950 . S
C556 H548 0.950 . S
C556 C557 1.386 . S
C556 C558 1.391 . S
C557 C556 1.386 . S
C557 C561 1.393 . S
C558 H550 0.950 . S
C558 C556 1.391 . S
C558 C559 1.400 . S
C559 C558 1.400 . S
C559 C560 1.398 . S
C559 C565 1.491 . S
C560 H551 0.950 . S
C560 C559 1.398 . S
C560 C561 1.391 . S
C561 H549 0.950 . S
C561 C557 1.393 . S
C561 C560 1.391 . S
C562 H552 0.950 . S
C562 C563 1.386 . S
C562 C564 1.391 . S
C563 C562 1.386 . S
C563 C567 1.393 . S
C564 H553 0.950 . S
C564 C562 1.391 . S
C564 C565 1.400 . S
C565 C559 1.491 . S
C565 C564 1.400 . S
C565 C566 1.398 . S
C566 H554 0.950 . S
C566 C565 1.398 . S
C566 C567 1.391 . S
C567 H555 0.950 . S
C567 C563 1.393 . S
C567 C566 1.391 . S
H568 C576 0.950 1_565 S
H569 C581 0.950 . S
H570 C578 0.950 . S
H571 C580 0.950 . S
H572 C582 0.950 1_545 S
H573 C584 0.950 . S
H574 C586 0.950 . S
H575 C587 0.950 . S
C576 H568 0.950 1_545 S
C576 C577 1.386 . S
C576 C578 1.391 1_545 S
C577 C576 1.386 . S
C577 C581 1.393 . S
C578 H570 0.950 . S
C578 C576 1.391 1_565 S
C578 C579 1.400 1_565 S
C579 C578 1.400 1_545 S
C579 C580 1.398 . S
C579 C585 1.491 1_545 S
C580 H571 0.950 . S
C580 C579 1.398 . S
C580 C581 1.391 . S
C581 H569 0.950 . S
C581 C577 1.393 . S
C581 C580 1.391 . S
C582 H572 0.950 1_565 S
C582 C583 1.386 . S
C582 C584 1.391 1_565 S
C583 C582 1.386 . S
C583 C587 1.393 . S
C584 H573 0.950 . S
C584 C582 1.391 1_545 S
C584 C585 1.400 1_545 S
C585 C579 1.491 1_565 S
C585 C584 1.400 1_565 S
C585 C586 1.398 . S
C586 H574 0.950 . S
C586 C585 1.398 . S
C586 C587 1.391 . S
C587 H575 0.950 . S
C587 C583 1.393 . S
C587 C586 1.391 . S
H588 C596 0.950 . S
H589 C601 0.950 . S
H590 C598 0.950 . S
H591 C600 0.950 . S
H592 C602 0.950 . S
H593 C604 0.950 . S
H594 C606 0.950 . S
H595 C607 0.950 . S
C596 H588 0.950 . S
C596 C597 1.386 . S
C596 C598 1.391 . S
C597 C596 1.386 . S
C597 C601 1.393 . S
C598 H590 0.950 . S
C598 C596 1.391 . S
C598 C599 1.400 . S
C599 C598 1.400 . S
C599 C600 1.398 . S
C599 C605 1.491 1_556 S
C600 H591 0.950 . S
C600 C599 1.398 . S
C600 C601 1.391 . S
C601 H589 0.950 . S
C601 C597 1.393 . S
C601 C600 1.391 . S
C602 H592 0.950 . S
C602 C603 1.386 . S
C602 C604 1.391 . S
C603 C602 1.386 . S
C603 C607 1.393 . S
C604 H593 0.950 . S
C604 C602 1.391 . S
C604 C605 1.400 . S
C605 C599 1.491 1_554 S
C605 C604 1.400 . S
C605 C606 1.398 . S
C606 H594 0.950 . S
C606 C605 1.398 . S
C606 C607 1.391 . S
C607 H595 0.950 . S
C607 C603 1.393 . S
C607 C606 1.391 . S
H608 C616 0.950 . S
H609 C621 0.950 . S
H610 C618 0.950 . S
H611 C620 0.950 . S
H612 C622 0.950 . S
H613 C624 0.950 . S
H614 C626 0.950 . S
H615 C627 0.950 . S
C616 H608 0.950 . S
C616 C617 1.386 . S
C616 C618 1.391 . S
C617 C616 1.386 . S
C617 C621 1.393 . S
C618 H610 0.950 . S
C618 C616 1.391 . S
C618 C619 1.400 . S
C619 C618 1.400 . S
C619 C620 1.398 . S
C619 C625 1.491 . S
C620 H611 0.950 . S
C620 C619 1.398 . S
C620 C621 1.391 . S
C621 H609 0.950 . S
C621 C617 1.393 . S
C621 C620 1.391 . S
C622 H612 0.950 . S
C622 C623 1.386 . S
C622 C624 1.391 . S
C623 C622 1.386 . S
C623 C627 1.393 . S
C624 H613 0.950 . S
C624 C622 1.391 . S
C624 C625 1.400 . S
C625 C619 1.491 . S
C625 C624 1.400 . S
C625 C626 1.398 . S
C626 H614 0.950 . S
C626 C625 1.398 . S
C626 C627 1.391 . S
C627 H615 0.950 . S
C627 C623 1.393 . S
C627 C626 1.391 . S
H628 C636 0.950 . S
H629 C641 0.950 . S
H630 C638 0.950 . S
H631 C640 0.950 . S
H632 C642 0.950 . S
H633 C644 0.950 . S
H634 C646 0.950 . S
H635 C647 0.950 . S
C636 H628 0.950 . S
C636 C637 1.386 . S
C636 C638 1.391 . S
C637 C636 1.386 . S
C637 C641 1.393 . S
C638 H630 0.950 . S
C638 C636 1.391 . S
C638 C639 1.400 . S
C639 C638 1.400 . S
C639 C640 1.398 . S
C639 C645 1.491 1_554 S
C640 H631 0.950 . S
C640 C639 1.398 . S
C640 C641 1.391 . S
C641 H629 0.950 . S
C641 C637 1.393 . S
C641 C640 1.391 . S
C642 H632 0.950 . S
C642 C643 1.386 . S
C642 C644 1.391 . S
C643 C642 1.386 . S
C643 C647 1.393 . S
C644 H633 0.950 . S
C644 C642 1.391 . S
C644 C645 1.400 . S
C645 C639 1.491 1_556 S
C645 C644 1.400 . S
C645 C646 1.398 . S
C646 H634 0.950 . S
C646 C645 1.398 . S
C646 C647 1.391 . S
C647 H635 0.950 . S
C647 C643 1.393 . S
C647 C646 1.391 . S
H648 C656 0.950 . S
H649 C661 0.950 . S
H650 C658 0.950 . S
H651 C660 0.950 . S
H652 C662 0.950 . S
H653 C664 0.950 . S
H654 C666 0.950 . S
H655 C667 0.950 . S
C656 H648 0.950 . S
C656 C657 1.386 . S
C656 C658 1.391 . S
C657 C656 1.386 . S
C657 C661 1.393 . S
C658 H650 0.950 . S
C658 C656 1.391 . S
C658 C659 1.400 . S
C659 C658 1.400 . S
C659 C660 1.398 . S
C659 C665 1.491 . S
C660 H651 0.950 . S
C660 C659 1.398 . S
C660 C661 1.391 . S
C661 H649 0.950 . S
C661 C657 1.393 . S
C661 C660 1.391 . S
C662 H652 0.950 . S
C662 C663 1.386 . S
C662 C664 1.391 . S
C663 C662 1.386 . S
C663 C667 1.393 . S
C664 H653 0.950 . S
C664 C662 1.391 . S
C664 C665 1.400 . S
C665 C659 1.491 . S
C665 C664 1.400 . S
C665 C666 1.398 . S
C666 H654 0.950 . S
C666 C665 1.398 . S
C666 C667 1.391 . S
C667 H655 0.950 . S
C667 C663 1.393 . S
C667 C666 1.391 . S
H668 C676 0.950 . S
H669 C681 0.950 . S
H670 C678 0.950 . S
H671 C680 0.950 . S
H672 C682 0.950 . S
H673 C684 0.950 . S
H674 C686 0.950 . S
H675 C687 0.950 . S
C676 H668 0.950 . S
C676 C677 1.386 . S
C676 C678 1.391 . S
C677 C676 1.386 . S
C677 C681 1.393 . S
C678 H670 0.950 . S
C678 C676 1.391 . S
C678 C679 1.400 . S
C679 C678 1.400 . S
C679 C680 1.398 . S
C679 C685 1.491 . S
C680 H671 0.950 . S
C680 C679 1.398 . S
C680 C681 1.391 . S
C681 H669 0.950 . S
C681 C677 1.393 . S
C681 C680 1.391 . S
C682 H672 0.950 . S
C682 C683 1.386 . S
C682 C684 1.391 . S
C683 C682 1.386 . S
C683 C687 1.393 . S
C684 H673 0.950 . S
C684 C682 1.391 . S
C684 C685 1.400 . S
C685 C679 1.491 . S
C685 C684 1.400 . S
C685 C686 1.398 . S
C686 H674 0.950 . S
C686 C685 1.398 . S
C686 C687 1.391 . S
C687 H675 0.950 . S
C687 C683 1.393 . S
C687 C686 1.391 . S
H688 C696 0.950 . S
H689 C701 0.950 . S
H690 C698 0.950 . S
H691 C700 0.950 . S
H692 C702 0.950 . S
H693 C704 0.950 . S
H694 C706 0.950 . S
H695 C707 0.950 . S
C696 H688 0.950 . S
C696 C697 1.386 . S
C696 C698 1.391 . S
C697 C696 1.386 . S
C697 C701 1.393 . S
C698 H690 0.950 . S
C698 C696 1.391 . S
C698 C699 1.400 . S
C699 C698 1.400 . S
C699 C700 1.398 . S
C699 C705 1.491 . S
C700 H691 0.950 . S
C700 C699 1.398 . S
C700 C701 1.391 . S
C701 H689 0.950 . S
C701 C697 1.393 . S
C701 C700 1.391 . S
C702 H692 0.950 . S
C702 C703 1.386 . S
C702 C704 1.391 . S
C703 C702 1.386 . S
C703 C707 1.393 . S
C704 H693 0.950 . S
C704 C702 1.391 . S
C704 C705 1.400 . S
C705 C699 1.491 . S
C705 C704 1.400 . S
C705 C706 1.398 . S
C706 H694 0.950 . S
C706 C705 1.398 . S
C706 C707 1.391 . S
C707 H695 0.950 . S
C707 C703 1.393 . S
C707 C706 1.391 . S
H708 C716 0.950 . S
H709 C721 0.950 . S
H710 C718 0.950 . S
H711 C720 0.950 . S
H712 C722 0.950 . S
H713 C724 0.950 . S
H714 C726 0.950 . S
H715 C727 0.950 . S
C716 H708 0.950 . S
C716 C717 1.386 . S
C716 C718 1.391 . S
C717 C716 1.386 . S
C717 C721 1.393 . S
C718 H710 0.950 . S
C718 C716 1.391 . S
C718 C719 1.400 . S
C719 C718 1.400 . S
C719 C720 1.398 . S
C719 C725 1.491 1_554 S
C720 H711 0.950 . S
C720 C719 1.398 . S
C720 C721 1.391 . S
C721 H709 0.950 . S
C721 C717 1.393 . S
C721 C720 1.391 . S
C722 H712 0.950 . S
C722 C723 1.386 . S
C722 C724 1.391 . S
C723 C722 1.386 . S
C723 C727 1.393 . S
C724 H713 0.950 . S
C724 C722 1.391 . S
C724 C725 1.400 . S
C725 C719 1.491 1_556 S
C725 C724 1.400 . S
C725 C726 1.398 . S
C726 H714 0.950 . S
C726 C725 1.398 . S
C726 C727 1.391 . S
C727 H715 0.950 . S
C727 C723 1.393 . S
C727 C726 1.391 . S
H728 C736 0.950 . S
H729 C741 0.950 . S
H730 C738 0.950 . S
H731 C740 0.950 . S
H732 C742 0.950 . S
H733 C744 0.950 . S
H734 C746 0.950 . S
H735 C747 0.950 . S
C736 H728 0.950 . S
C736 C737 1.386 . S
C736 C738 1.391 . S
C737 C736 1.386 . S
C737 C741 1.393 . S
C738 H730 0.950 . S
C738 C736 1.391 . S
C738 C739 1.400 . S
C739 C738 1.400 . S
C739 C740 1.398 . S
C739 C745 1.491 . S
C740 H731 0.950 . S
C740 C739 1.398 . S
C740 C741 1.391 . S
C741 H729 0.950 . S
C741 C737 1.393 . S
C741 C740 1.391 . S
C742 H732 0.950 . S
C742 C743 1.386 . S
C742 C744 1.391 . S
C743 C742 1.386 . S
C743 C747 1.393 . S
C744 H733 0.950 . S
C744 C742 1.391 . S
C744 C745 1.400 . S
C745 C739 1.491 . S
C745 C744 1.400 . S
C745 C746 1.398 . S
C746 H734 0.950 . S
C746 C745 1.398 . S
C746 C747 1.391 . S
C747 H735 0.950 . S
C747 C743 1.393 . S
C747 C746 1.391 . S
H748 C756 0.950 . S
H749 C761 0.950 . S
H750 C758 0.950 . S
H751 C760 0.950 . S
H752 C762 0.950 . S
H753 C764 0.950 . S
H754 C766 0.950 . S
H755 C767 0.950 . S
C756 H748 0.950 . S
C756 C757 1.386 . S
C756 C758 1.391 . S
C757 C756 1.386 . S
C757 C761 1.393 . S
C758 H750 0.950 . S
C758 C756 1.391 . S
C758 C759 1.400 . S
C759 C758 1.400 . S
C759 C760 1.398 . S
C759 C765 1.491 . S
C760 H751 0.950 . S
C760 C759 1.398 . S
C760 C761 1.391 . S
C761 H749 0.950 . S
C761 C757 1.393 . S
C761 C760 1.391 . S
C762 H752 0.950 . S
C762 C763 1.386 . S
C762 C764 1.391 . S
C763 C762 1.386 . S
C763 C767 1.393 . S
C764 H753 0.950 . S
C764 C762 1.391 . S
C764 C765 1.400 . S
C765 C759 1.491 . S
C765 C764 1.400 . S
C765 C766 1.398 . S
C766 H754 0.950 . S
C766 C765 1.398 . S
C766 C767 1.391 . S
C767 H755 0.950 . S
C767 C763 1.393 . S
C767 C766 1.391 . S
H768 C776 0.950 . S
H769 C781 0.950 . S
H770 C778 0.950 . S
H771 C780 0.950 . S
H772 C782 0.950 . S
H773 C784 0.950 . S
H774 C786 0.950 . S
H775 C787 0.950 . S
C776 H768 0.950 . S
C776 C777 1.386 . S
C776 C778 1.391 . S
C777 C776 1.386 . S
C777 C781 1.393 . S
C778 H770 0.950 . S
C778 C776 1.391 . S
C778 C779 1.400 . S
C779 C778 1.400 . S
C779 C780 1.398 . S
C779 C785 1.491 . S
C780 H771 0.950 . S
C780 C779 1.398 . S
C780 C781 1.391 . S
C781 H769 0.950 . S
C781 C777 1.393 . S
C781 C780 1.391 . S
C782 H772 0.950 . S
C782 C783 1.386 . S
C782 C784 1.391 . S
C783 C782 1.386 . S
C783 C787 1.393 . S
C784 H773 0.950 . S
C784 C782 1.391 . S
C784 C785 1.400 . S
C785 C779 1.491 . S
C785 C784 1.400 . S
C785 C786 1.398 . S
C786 H774 0.950 . S
C786 C785 1.398 . S
C786 C787 1.391 . S
C787 H775 0.950 . S
C787 C783 1.393 . S
C787 C786 1.391 . S
H788 C796 0.950 . S
H789 C801 0.950 . S
H790 C798 0.950 . S
H791 C800 0.950 . S
H792 C802 0.950 . S
H793 C804 0.950 . S
H794 C806 0.950 . S
H795 C807 0.950 . S
C796 H788 0.950 . S
C796 C797 1.386 . S
C796 C798 1.391 . S
C797 C796 1.386 . S
C797 C801 1.393 . S
C798 H790 0.950 . S
C798 C796 1.391 . S
C798 C799 1.400 . S
C799 C798 1.400 . S
C799 C800 1.398 . S
C799 C805 1.491 . S
C800 H791 0.950 . S
C800 C799 1.398 . S
C800 C801 1.391 . S
C801 H789 0.950 . S
C801 C797 1.393 . S
C801 C800 1.391 . S
C802 H792 0.950 . S
C802 C803 1.386 . S
C802 C804 1.391 . S
C803 C802 1.386 . S
C803 C807 1.393 . S
C804 H793 0.950 . S
C804 C802 1.391 . S
C804 C805 1.400 . S
C805 C799 1.491 . S
C805 C804 1.400 . S
C805 C806 1.398 . S
C806 H794 0.950 . S
C806 C805 1.398 . S
C806 C807 1.391 . S
C807 H795 0.950 . S
C807 C803 1.393 . S
C807 C806 1.391 . S
H808 C816 0.950 . S
H809 C821 0.950 . S
H810 C818 0.950 . S
H811 C820 0.950 . S
H812 C822 0.950 . S
H813 C824 0.950 . S
H814 C826 0.950 . S
H815 C827 0.950 . S
C816 H808 0.950 . S
C816 C817 1.386 . S
C816 C818 1.391 . S
C817 C816 1.386 . S
C817 C821 1.393 . S
C818 H810 0.950 . S
C818 C816 1.391 . S
C818 C819 1.400 . S
C819 C818 1.400 . S
C819 C820 1.398 . S
C819 C825 1.491 . S
C820 H811 0.950 . S
C820 C819 1.398 . S
C820 C821 1.391 . S
C821 H809 0.950 . S
C821 C817 1.393 . S
C821 C820 1.391 . S
C822 H812 0.950 . S
C822 C823 1.386 . S
C822 C824 1.391 . S
C823 C822 1.386 . S
C823 C827 1.393 . S
C824 H813 0.950 . S
C824 C822 1.391 . S
C824 C825 1.400 . S
C825 C819 1.491 . S
C825 C824 1.400 . S
C825 C826 1.398 . S
C826 H814 0.950 . S
C826 C825 1.398 . S
C826 C827 1.391 . S
C827 H815 0.950 . S
C827 C823 1.393 . S
C827 C826 1.391 . S
H828 C836 0.950 . S
H829 C841 0.950 . S
H830 C838 0.950 . S
H831 C840 0.950 . S
H832 C842 0.950 . S
H833 C844 0.950 . S
H834 C846 0.950 . S
H835 C847 0.950 . S
C836 H828 0.950 . S
C836 C837 1.386 . S
C836 C838 1.391 . S
C837 C836 1.386 . S
C837 C841 1.393 . S
C838 H830 0.950 . S
C838 C836 1.391 . S
C838 C839 1.400 . S
C839 C838 1.400 . S
C839 C840 1.398 . S
C839 C845 1.491 . S
C840 H831 0.950 . S
C840 C839 1.398 . S
C840 C841 1.391 . S
C841 H829 0.950 . S
C841 C837 1.393 . S
C841 C840 1.391 . S
C842 H832 0.950 . S
C842 C843 1.386 . S
C842 C844 1.391 . S
C843 C842 1.386 . S
C843 C847 1.393 . S
C844 H833 0.950 . S
C844 C842 1.391 . S
C844 C845 1.400 . S
C845 C839 1.491 . S
C845 C844 1.400 . S
C845 C846 1.398 . S
C846 H834 0.950 . S
C846 C845 1.398 . S
C846 C847 1.391 . S
C847 H835 0.950 . S
C847 C843 1.393 . S
C847 C846 1.391 . S
H848 C856 0.950 . S
H849 C861 0.950 . S
H850 C858 0.950 . S
H851 C860 0.950 . S
H852 C862 0.950 . S
H853 C864 0.950 . S
H854 C866 0.950 . S
H855 C867 0.950 . S
C856 H848 0.950 . S
C856 C857 1.386 . S
C856 C858 1.391 . S
C857 C856 1.386 . S
C857 C861 1.393 . S
C858 H850 0.950 . S
C858 C856 1.391 . S
C858 C859 1.400 . S
C859 C858 1.400 . S
C859 C860 1.398 . S
C859 C865 1.491 . S
C860 H851 0.950 . S
C860 C859 1.398 . S
C860 C861 1.391 . S
C861 H849 0.950 . S
C861 C857 1.393 . S
C861 C860 1.391 . S
C862 H852 0.950 . S
C862 C863 1.386 . S
C862 C864 1.391 . S
C863 C862 1.386 . S
C863 C867 1.393 . S
C864 H853 0.950 . S
C864 C862 1.391 . S
C864 C865 1.400 . S
C865 C859 1.491 . S
C865 C864 1.400 . S
C865 C866 1.398 . S
C866 H854 0.950 . S
C866 C865 1.398 . S
C866 C867 1.391 . S
C867 H855 0.950 . S
C867 C863 1.393 . S
C867 C866 1.391 . S
H868 C876 0.950 . S
H869 C881 0.950 . S
H870 C878 0.950 . S
H871 C880 0.950 . S
H872 C882 0.950 . S
H873 C884 0.950 . S
H874 C886 0.950 . S
H875 C887 0.950 . S
C876 H868 0.950 . S
C876 C877 1.386 . S
C876 C878 1.391 . S
C877 C876 1.386 . S
C877 C881 1.393 . S
C878 H870 0.950 . S
C878 C876 1.391 . S
C878 C879 1.400 . S
C879 C878 1.400 . S
C879 C880 1.398 . S
C879 C885 1.491 . S
C880 H871 0.950 . S
C880 C879 1.398 . S
C880 C881 1.391 . S
C881 H869 0.950 . S
C881 C877 1.393 . S
C881 C880 1.391 . S
C882 H872 0.950 . S
C882 C883 1.386 . S
C882 C884 1.391 . S
C883 C882 1.386 . S
C883 C887 1.393 . S
C884 H873 0.950 . S
C884 C882 1.391 . S
C884 C885 1.400 . S
C885 C879 1.491 . S
C885 C884 1.400 . S
C885 C886 1.398 . S
C886 H874 0.950 . S
C886 C885 1.398 . S
C886 C887 1.391 . S
C887 H875 0.950 . S
C887 C883 1.393 . S
C887 C886 1.391 . S
H888 C896 0.950 . S
H889 C901 0.950 . S
H890 C898 0.950 . S
H891 C900 0.950 . S
H892 C902 0.950 . S
H893 C904 0.950 . S
H894 C906 0.950 . S
H895 C907 0.950 . S
C896 H888 0.950 . S
C896 C897 1.386 . S
C896 C898 1.391 . S
C897 C896 1.386 . S
C897 C901 1.393 . S
C898 H890 0.950 . S
C898 C896 1.391 . S
C898 C899 1.400 . S
C899 C898 1.400 . S
C899 C900 1.398 . S
C899 C905 1.491 . S
C900 H891 0.950 . S
C900 C899 1.398 . S
C900 C901 1.391 . S
C901 H889 0.950 . S
C901 C897 1.393 . S
C901 C900 1.391 . S
C902 H892 0.950 . S
C902 C903 1.386 . S
C902 C904 1.391 . S
C903 C902 1.386 . S
C903 C907 1.393 . S
C904 H893 0.950 . S
C904 C902 1.391 . S
C904 C905 1.400 . S
C905 C899 1.491 . S
C905 C904 1.400 . S
C905 C906 1.398 . S
C906 H894 0.950 . S
C906 C905 1.398 . S
C906 C907 1.391 . S
C907 H895 0.950 . S
C907 C903 1.393 . S
C907 C906 1.391 . S
H908 C916 0.950 . S
H909 C921 0.950 . S
H910 C918 0.950 . S
H911 C920 0.950 . S
H912 C922 0.950 . S
H913 C924 0.950 . S
H914 C926 0.950 . S
H915 C927 0.950 . S
C916 H908 0.950 . S
C916 C917 1.386 . S
C916 C918 1.391 . S
C917 C916 1.386 . S
C917 C921 1.393 . S
C918 H910 0.950 . S
C918 C916 1.391 . S
C918 C919 1.400 . S
C919 C918 1.400 . S
C919 C920 1.398 . S
C919 C925 1.491 . S
C920 H911 0.950 . S
C920 C919 1.398 . S
C920 C921 1.391 . S
C921 H909 0.950 . S
C921 C917 1.393 . S
C921 C920 1.391 . S
C922 H912 0.950 . S
C922 C923 1.386 . S
C922 C924 1.391 . S
C923 C922 1.386 . S
C923 C927 1.393 . S
C924 H913 0.950 . S
C924 C922 1.391 . S
C924 C925 1.400 . S
C925 C919 1.491 . S
C925 C924 1.400 . S
C925 C926 1.398 . S
C926 H914 0.950 . S
C926 C925 1.398 . S
C926 C927 1.391 . S
C927 H915 0.950 . S
C927 C923 1.393 . S
C927 C926 1.391 . S
H928 C936 0.950 . S
H929 C941 0.950 . S
H930 C938 0.950 . S
H931 C940 0.950 . S
H932 C942 0.950 . S
H933 C944 0.950 . S
H934 C946 0.950 . S
H935 C947 0.950 . S
C936 H928 0.950 . S
C936 C937 1.386 . S
C936 C938 1.391 . S
C937 C936 1.386 . S
C937 C941 1.393 . S
C938 H930 0.950 . S
C938 C936 1.391 . S
C938 C939 1.400 . S
C939 C938 1.400 . S
C939 C940 1.398 . S
C939 C945 1.491 . S
C940 H931 0.950 . S
C940 C939 1.398 . S
C940 C941 1.391 . S
C941 H929 0.950 . S
C941 C937 1.393 . S
C941 C940 1.391 . S
C942 H932 0.950 . S
C942 C943 1.386 . S
C942 C944 1.391 . S
C943 C942 1.386 . S
C943 C947 1.393 . S
C944 H933 0.950 . S
C944 C942 1.391 . S
C944 C945 1.400 . S
C945 C939 1.491 . S
C945 C944 1.400 . S
C945 C946 1.398 . S
C946 H934 0.950 . S
C946 C945 1.398 . S
C946 C947 1.391 . S
C947 H935 0.950 . S
C947 C943 1.393 . S
C947 C946 1.391 . S
H948 C956 0.950 . S
H949 C961 0.950 . S
H950 C958 0.950 . S
H951 C960 0.950 . S
H952 C962 0.950 . S
H953 C964 0.950 . S
H954 C966 0.950 . S
H955 C967 0.950 . S
C956 H948 0.950 . S
C956 C957 1.386 . S
C956 C958 1.391 . S
C957 C956 1.386 . S
C957 C961 1.393 . S
C958 H950 0.950 . S
C958 C956 1.391 . S
C958 C959 1.400 . S
C959 C958 1.400 . S
C959 C960 1.398 . S
C959 C965 1.491 . S
C960 H951 0.950 . S
C960 C959 1.398 . S
C960 C961 1.391 . S
C961 H949 0.950 . S
C961 C957 1.393 . S
C961 C960 1.391 . S
C962 H952 0.950 . S
C962 C963 1.386 . S
C962 C964 1.391 . S
C963 C962 1.386 . S
C963 C967 1.393 . S
C964 H953 0.950 . S
C964 C962 1.391 . S
C964 C965 1.400 . S
C965 C959 1.491 . S
C965 C964 1.400 . S
C965 C966 1.398 . S
C966 H954 0.950 . S
C966 C965 1.398 . S
C966 C967 1.391 . S
C967 H955 0.950 . S
C967 C963 1.393 . S
C967 C966 1.391 . S
H968 C976 0.950 . S
H969 C981 0.950 . S
H970 C978 0.950 . S
H971 C980 0.950 . S
H972 C982 0.950 . S
H973 C984 0.950 . S
H974 C986 0.950 . S
H975 C987 0.950 . S
C976 H968 0.950 . S
C976 C977 1.386 . S
C976 C978 1.391 . S
C977 C976 1.386 . S
C977 C981 1.393 . S
C978 H970 0.950 . S
C978 C976 1.391 . S
C978 C979 1.400 . S
C979 C978 1.400 . S
C979 C980 1.398 . S
C979 C985 1.491 . S
C980 H971 0.950 . S
C980 C979 1.398 . S
C980 C981 1.391 . S
C981 H969 0.950 . S
C981 C977 1.393 . S
C981 C980 1.391 . S
C982 H972 0.950 . S
C982 C983 1.386 . S
C982 C984 1.391 . S
C983 C982 1.386 . S
C983 C987 1.393 . S
C984 H973 0.950 . S
C984 C982 1.391 . S
C984 C985 1.400 . S
C985 C979 1.491 . S
C985 C984 1.400 . S
C985 C986 1.398 . S
C986 H974 0.950 . S
C986 C985 1.398 . S
C986 C987 1.391 . S
C987 H975 0.950 . S
C987 C983 1.393 . S
C987 C986 1.391 . S
H988 C996 0.950 . S
H989 C1001 0.950 . S
H990 C998 0.950 . S
H991 C1000 0.950 . S
H992 C1002 0.950 . S
H993 C1004 0.950 . S
H994 C1006 0.950 . S
H995 C1007 0.950 . S
C996 H988 0.950 . S
C996 C997 1.386 . S
C996 C998 1.391 . S
C997 C996 1.386 . S
C997 C1001 1.393 . S
C998 H990 0.950 . S
C998 C996 1.391 . S
C998 C999 1.400 . S
C999 C998 1.400 . S
C999 C1000 1.398 . S
C999 C1005 1.491 . S
C1000 H991 0.950 . S
C1000 C999 1.398 . S
C1000 C1001 1.391 . S
C1001 H989 0.950 . S
C1001 C997 1.393 . S
C1001 C1000 1.391 . S
C1002 H992 0.950 . S
C1002 C1003 1.386 . S
C1002 C1004 1.391 . S
C1003 C1002 1.386 . S
C1003 C1007 1.393 . S
C1004 H993 0.950 . S
C1004 C1002 1.391 . S
C1004 C1005 1.400 . S
C1005 C999 1.491 . S
C1005 C1004 1.400 . S
C1005 C1006 1.398 . S
C1006 H994 0.950 . S
C1006 C1005 1.398 . S
C1006 C1007 1.391 . S
C1007 H995 0.950 . S
C1007 C1003 1.393 . S
C1007 C1006 1.391 . S
H1008 C1016 0.950 . S
H1009 C1021 0.950 . S
H1010 C1018 0.950 . S
H1011 C1020 0.950 . S
H1012 C1022 0.950 . S
H1013 C1024 0.950 . S
H1014 C1026 0.950 . S
H1015 C1027 0.950 . S
C1016 H1008 0.950 . S
C1016 C1017 1.386 . S
C1016 C1018 1.391 . S
C1017 C1016 1.386 . S
C1017 C1021 1.393 . S
C1018 H1010 0.950 . S
C1018 C1016 1.391 . S
C1018 C1019 1.400 . S
C1019 C1018 1.400 . S
C1019 C1020 1.398 . S
C1019 C1025 1.491 . S
C1020 H1011 0.950 . S
C1020 C1019 1.398 . S
C1020 C1021 1.391 . S
C1021 H1009 0.950 . S
C1021 C1017 1.393 . S
C1021 C1020 1.391 . S
C1022 H1012 0.950 . S
C1022 C1023 1.386 . S
C1022 C1024 1.391 . S
C1023 C1022 1.386 . S
C1023 C1027 1.393 . S
C1024 H1013 0.950 . S
C1024 C1022 1.391 . S
C1024 C1025 1.400 . S
C1025 C1019 1.491 . S
C1025 C1024 1.400 . S
C1025 C1026 1.398 . S
C1026 H1014 0.950 . S
C1026 C1025 1.398 . S
C1026 C1027 1.391 . S
C1027 H1015 0.950 . S
C1027 C1023 1.393 . S
C1027 C1026 1.391 . S
H1028 C1036 0.950 . S
H1029 C1041 0.950 . S
H1030 C1038 0.950 . S
H1031 C1040 0.950 . S
H1032 C1042 0.950 . S
H1033 C1044 0.950 . S
H1034 C1046 0.950 . S
H1035 C1047 0.950 . S
C1036 H1028 0.950 . S
C1036 C1037 1.386 . S
C1036 C1038 1.391 . S
C1037 C1036 1.386 . S
C1037 C1041 1.393 . S
C1038 H1030 0.950 . S
C1038 C1036 1.391 . S
C1038 C1039 1.400 . S
C1039 C1038 1.400 . S
C1039 C1040 1.398 . S
C1039 C1045 1.491 . S
C1040 H1031 0.950 . S
C1040 C1039 1.398 . S
C1040 C1041 1.391 . S
C1041 H1029 0.950 . S
C1041 C1037 1.393 . S
C1041 C1040 1.391 . S
C1042 H1032 0.950 . S
C1042 C1043 1.386 . S
C1042 C1044 1.391 . S
C1043 C1042 1.386 . S
C1043 C1047 1.393 . S
C1044 H1033 0.950 . S
C1044 C1042 1.391 . S
C1044 C1045 1.400 . S
C1045 C1039 1.491 . S
C1045 C1044 1.400 . S
C1045 C1046 1.398 . S
C1046 H1034 0.950 . S
C1046 C1045 1.398 . S
C1046 C1047 1.391 . S
C1047 H1035 0.950 . S
C1047 C1043 1.393 . S
C1047 C1046 1.391 . S
H1048 C1056 0.950 . S
H1049 C1061 0.950 . S
H1050 C1058 0.950 . S
H1051 C1060 0.950 . S
H1052 C1062 0.950 . S
H1053 C1064 0.950 . S
H1054 C1066 0.950 . S
H1055 C1067 0.950 . S
C1056 H1048 0.950 . S
C1056 C1057 1.386 . S
C1056 C1058 1.391 . S
C1057 C1056 1.386 . S
C1057 C1061 1.393 . S
C1058 H1050 0.950 . S
C1058 C1056 1.391 . S
C1058 C1059 1.400 . S
C1059 C1058 1.400 . S
C1059 C1060 1.398 . S
C1059 C1065 1.491 . S
C1060 H1051 0.950 . S
C1060 C1059 1.398 . S
C1060 C1061 1.391 . S
C1061 H1049 0.950 . S
C1061 C1057 1.393 . S
C1061 C1060 1.391 . S
C1062 H1052 0.950 . S
C1062 C1063 1.386 . S
C1062 C1064 1.391 . S
C1063 C1062 1.386 . S
C1063 C1067 1.393 . S
C1064 H1053 0.950 . S
C1064 C1062 1.391 . S
C1064 C1065 1.400 . S
C1065 C1059 1.491 . S
C1065 C1064 1.400 . S
C1065 C1066 1.398 . S
C1066 H1054 0.950 . S
C1066 C1065 1.398 . S
C1066 C1067 1.391 . S
C1067 H1055 0.950 . S
C1067 C1063 1.393 . S
C1067 C1066 1.391 . S
H1068 C1076 0.950 . S
H1069 C1081 0.950 . S
H1070 C1078 0.950 . S
H1071 C1080 0.950 . S
H1072 C1082 0.950 . S
H1073 C1084 0.950 . S
H1074 C1086 0.950 . S
H1075 C1087 0.950 . S
C1076 H1068 0.950 . S
C1076 C1077 1.386 . S
C1076 C1078 1.391 . S
C1077 C1076 1.386 . S
C1077 C1081 1.393 . S
C1078 H1070 0.950 . S
C1078 C1076 1.391 . S
C1078 C1079 1.400 . S
C1079 C1078 1.400 . S
C1079 C1080 1.398 . S
C1079 C1085 1.491 . S
C1080 H1071 0.950 . S
C1080 C1079 1.398 . S
C1080 C1081 1.391 . S
C1081 H1069 0.950 . S
C1081 C1077 1.393 . S
C1081 C1080 1.391 . S
C1082 H1072 0.950 . S
C1082 C1083 1.386 . S
C1082 C1084 1.391 . S
C1083 C1082 1.386 . S
C1083 C1087 1.393 . S
C1084 H1073 0.950 . S
C1084 C1082 1.391 . S
C1084 C1085 1.400 . S
C1085 C1079 1.491 . S
C1085 C1084 1.400 . S
C1085 C1086 1.398 . S
C1086 H1074 0.950 . S
C1086 C1085 1.398 . S
C1086 C1087 1.391 . S
C1087 H1075 0.950 . S
C1087 C1083 1.393 . S
C1087 C1086 1.391 . S
H1088 C1096 0.950 . S
H1089 C1101 0.950 . S
H1090 C1098 0.950 . S
H1091 C1100 0.950 . S
H1092 C1102 0.950 . S
H1093 C1104 0.950 . S
H1094 C1106 0.950 . S
H1095 C1107 0.950 . S
C1096 H1088 0.950 . S
C1096 C1097 1.386 . S
C1096 C1098 1.391 . S
C1097 C1096 1.386 . S
C1097 C1101 1.393 . S
C1098 H1090 0.950 . S
C1098 C1096 1.391 . S
C1098 C1099 1.400 . S
C1099 C1098 1.400 . S
C1099 C1100 1.398 . S
C1099 C1105 1.491 . S
C1100 H1091 0.950 . S
C1100 C1099 1.398 . S
C1100 C1101 1.391 . S
C1101 H1089 0.950 . S
C1101 C1097 1.393 . S
C1101 C1100 1.391 . S
C1102 H1092 0.950 . S
C1102 C1103 1.386 . S
C1102 C1104 1.391 . S
C1103 C1102 1.386 . S
C1103 C1107 1.393 . S
C1104 H1093 0.950 . S
C1104 C1102 1.391 . S
C1104 C1105 1.400 . S
C1105 C1099 1.491 . S
C1105 C1104 1.400 . S
C1105 C1106 1.398 . S
C1106 H1094 0.950 . S
C1106 C1105 1.398 . S
C1106 C1107 1.391 . S
C1107 H1095 0.950 . S
C1107 C1103 1.393 . S
C1107 C1106 1.391 . S
H1108 C1116 0.950 . S
H1109 C1121 0.950 . S
H1110 C1118 0.950 . S
H1111 C1120 0.950 . S
H1112 C1122 0.950 . S
H1113 C1124 0.950 . S
H1114 C1126 0.950 . S
H1115 C1127 0.950 . S
C1116 H1108 0.950 . S
C1116 C1117 1.386 . S
C1116 C1118 1.391 . S
C1117 C1116 1.386 . S
C1117 C1121 1.393 . S
C1118 H1110 0.950 . S
C1118 C1116 1.391 . S
C1118 C1119 1.400 . S
C1119 C1118 1.400 . S
C1119 C1120 1.398 . S
C1119 C1125 1.491 . S
C1120 H1111 0.950 . S
C1120 C1119 1.398 . S
C1120 C1121 1.391 . S
C1121 H1109 0.950 . S
C1121 C1117 1.393 . S
C1121 C1120 1.391 . S
C1122 H1112 0.950 . S
C1122 C1123 1.386 . S
C1122 C1124 1.391 . S
C1123 C1122 1.386 . S
C1123 C1127 1.393 . S
C1124 H1113 0.950 . S
C1124 C1122 1.391 . S
C1124 C1125 1.400 . S
C1125 C1119 1.491 . S
C1125 C1124 1.400 . S
C1125 C1126 1.398 . S
C1126 H1114 0.950 . S
C1126 C1125 1.398 . S
C1126 C1127 1.391 . S
C1127 H1115 0.950 . S
C1127 C1123 1.393 . S
C1127 C1126 1.391 . S
H1128 C1136 0.950 . S
H1129 C1141 0.950 . S
H1130 C1138 0.950 . S
H1131 C1140 0.950 . S
H1132 C1142 0.950 . S
H1133 C1144 0.950 . S
H1134 C1146 0.950 . S
H1135 C1147 0.950 . S
C1136 H1128 0.950 . S
C1136 C1137 1.386 . S
C1136 C1138 1.391 . S
C1137 C1136 1.386 . S
C1137 C1141 1.393 . S
C1138 H1130 0.950 . S
C1138 C1136 1.391 . S
C1138 C1139 1.400 . S
C1139 C1138 1.400 . S
C1139 C1140 1.398 . S
C1139 C1145 1.491 . S
C1140 H1131 0.950 . S
C1140 C1139 1.398 . S
C1140 C1141 1.391 . S
C1141 H1129 0.950 . S
C1141 C1137 1.393 . S
C1141 C1140 1.391 . S
C1142 H1132 0.950 . S
C1142 C1143 1.386 . S
C1142 C1144 1.391 . S
C1143 C1142 1.386 . S
C1143 C1147 1.393 . S
C1144 H1133 0.950 . S
C1144 C1142 1.391 . S
C1144 C1145 1.400 . S
C1145 C1139 1.491 . S
C1145 C1144 1.400 . S
C1145 C1146 1.398 . S
C1146 H1134 0.950 . S
C1146 C1145 1.398 . S
C1146 C1147 1.391 . S
C1147 H1135 0.950 . S
C1147 C1143 1.393 . S
C1147 C1146 1.391 . S
H1148 C1156 0.950 . S
H1149 C1161 0.950 . S
H1150 C1158 0.950 . S
H1151 C1160 0.950 . S
H1152 C1162 0.950 . S
H1153 C1164 0.950 . S
H1154 C1166 0.950 . S
H1155 C1167 0.950 . S
C1156 H1148 0.950 . S
C1156 C1157 1.386 . S
C1156 C1158 1.391 . S
C1157 C1156 1.386 . S
C1157 C1161 1.393 . S
C1158 H1150 0.950 . S
C1158 C1156 1.391 . S
C1158 C1159 1.400 . S
C1159 C1158 1.400 . S
C1159 C1160 1.398 . S
C1159 C1165 1.491 . S
C1160 H1151 0.950 . S
C1160 C1159 1.398 . S
C1160 C1161 1.391 . S
C1161 H1149 0.950 . S
C1161 C1157 1.393 . S
C1161 C1160 1.391 . S
C1162 H1152 0.950 . S
C1162 C1163 1.386 . S
C1162 C1164 1.391 . S
C1163 C1162 1.386 . S
C1163 C1167 1.393 . S
C1164 H1153 0.950 . S
C1164 C1162 1.391 . S
C1164 C1165 1.400 . S
C1165 C1159 1.491 . S
C1165 C1164 1.400 . S
C1165 C1166 1.398 . S
C1166 H1154 0.950 . S
C1166 C1165 1.398 . S
C1166 C1167 1.391 . S
C1167 H1155 0.950 . S
C1167 C1163 1.393 . S
C1167 C1166 1.391 . S
H1168 C1176 0.950 . S
H1169 C1181 0.950 . S
H1170 C1178 0.950 . S
H1171 C1180 0.950 . S
H1172 C1182 0.950 . S
H1173 C1184 0.950 . S
H1174 C1186 0.950 . S
H1175 C1187 0.950 . S
C1176 H1168 0.950 . S
C1176 C1177 1.386 . S
C1176 C1178 1.391 . S
C1177 C1176 1.386 . S
C1177 C1181 1.393 . S
C1178 H1170 0.950 . S
C1178 C1176 1.391 . S
C1178 C1179 1.400 . S
C1179 C1178 1.400 . S
C1179 C1180 1.398 . S
C1179 C1185 1.491 . S
C1180 H1171 0.950 . S
C1180 C1179 1.398 . S
C1180 C1181 1.391 . S
C1181 H1169 0.950 . S
C1181 C1177 1.393 . S
C1181 C1180 1.391 . S
C1182 H1172 0.950 . S
C1182 C1183 1.386 . S
C1182 C1184 1.391 . S
C1183 C1182 1.386 . S
C1183 C1187 1.393 . S
C1184 H1173 0.950 . S
C1184 C1182 1.391 . S
C1184 C1185 1.400 . S
C1185 C1179 1.491 . S
C1185 C1184 1.400 . S
C1185 C1186 1.398 . S
C1186 H1174 0.950 . S
C1186 C1185 1.398 . S
C1186 C1187 1.391 . S
C1187 H1175 0.950 . S
C1187 C1183 1.393 . S
C1187 C1186 1.391 . S
H1188 C1196 0.950 . S
H1189 C1201 0.950 . S
H1190 C1198 0.950 . S
H1191 C1200 0.950 . S
H1192 C1202 0.950 . S
H1193 C1204 0.950 . S
H1194 C1206 0.950 . S
H1195 C1207 0.950 . S
C1196 H1188 0.950 . S
C1196 C1197 1.386 . S
C1196 C1198 1.391 . S
C1197 C1196 1.386 . S
C1197 C1201 1.393 . S
C1198 H1190 0.950 . S
C1198 C1196 1.391 . S
C1198 C1199 1.400 . S
C1199 C1198 1.400 . S
C1199 C1200 1.398 . S
C1199 C1205 1.491 . S
C1200 H1191 0.950 . S
C1200 C1199 1.398 . S
C1200 C1201 1.391 . S
C1201 H1189 0.950 . S
C1201 C1197 1.393 . S
C1201 C1200 1.391 . S
C1202 H1192 0.950 . S
C1202 C1203 1.386 . S
C1202 C1204 1.391 . S
C1203 C1202 1.386 . S
C1203 C1207 1.393 . S
C1204 H1193 0.950 . S
C1204 C1202 1.391 . S
C1204 C1205 1.400 . S
C1205 C1199 1.491 . S
C1205 C1204 1.400 . S
C1205 C1206 1.398 . S
C1206 H1194 0.950 . S
C1206 C1205 1.398 . S
C1206 C1207 1.391 . S
C1207 H1195 0.950 . S
C1207 C1203 1.393 . S
C1207 C1206 1.391 . S
H1208 C1216 0.950 . S
H1209 C1221 0.950 . S
H1210 C1218 0.950 . S
H1211 C1220 0.950 . S
H1212 C1222 0.950 . S
H1213 C1224 0.950 . S
H1214 C1226 0.950 . S
H1215 C1227 0.950 . S
C1216 H1208 0.950 . S
C1216 C1217 1.386 . S
C1216 C1218 1.391 . S
C1217 C1216 1.386 . S
C1217 C1221 1.393 . S
C1218 H1210 0.950 . S
C1218 C1216 1.391 . S
C1218 C1219 1.400 . S
C1219 C1218 1.400 . S
C1219 C1220 1.398 . S
C1219 C1225 1.491 . S
C1220 H1211 0.950 . S
C1220 C1219 1.398 . S
C1220 C1221 1.391 . S
C1221 H1209 0.950 . S
C1221 C1217 1.393 . S
C1221 C1220 1.391 . S
C1222 H1212 0.950 . S
C1222 C1223 1.386 . S
C1222 C1224 1.391 . S
C1223 C1222 1.386 . S
C1223 C1227 1.393 . S
C1224 H1213 0.950 . S
C1224 C1222 1.391 . S
C1224 C1225 1.400 . S
C1225 C1219 1.491 . S
C1225 C1224 1.400 . S
C1225 C1226 1.398 . S
C1226 H1214 0.950 . S
C1226 C1225 1.398 . S
C1226 C1227 1.391 . S
C1227 H1215 0.950 . S
C1227 C1223 1.393 . S
C1227 C1226 1.391 . S
H1228 C1236 0.950 . S
H1229 C1241 0.950 . S
H1230 C1238 0.950 . S
H1231 C1240 0.950 . S
H1232 C1242 0.950 . S
H1233 C1244 0.950 . S
H1234 C1246 0.950 . S
H1235 C1247 0.950 . S
C1236 H1228 0.950 . S
C1236 C1237 1.386 . S
C1236 C1238 1.391 . S
C1237 C1236 1.386 . S
C1237 C1241 1.393 . S
C1238 H1230 0.950 . S
C1238 C1236 1.391 . S
C1238 C1239 1.400 . S
C1239 C1238 1.400 . S
C1239 C1240 1.398 . S
C1239 C1245 1.491 . S
C1240 H1231 0.950 . S
C1240 C1239 1.398 . S
C1240 C1241 1.391 . S
C1241 H1229 0.950 . S
C1241 C1237 1.393 . S
C1241 C1240 1.391 . S
C1242 H1232 0.950 . S
C1242 C1243 1.386 . S
C1242 C1244 1.391 . S
C1243 C1242 1.386 . S
C1243 C1247 1.393 . S
C1244 H1233 0.950 . S
C1244 C1242 1.391 . S
C1244 C1245 1.400 . S
C1245 C1239 1.491 . S
C1245 C1244 1.400 . S
C1245 C1246 1.398 . S
C1246 H1234 0.950 . S
C1246 C1245 1.398 . S
C1246 C1247 1.391 . S
C1247 H1235 0.950 . S
C1247 C1243 1.393 . S
C1247 C1246 1.391 . S
H1248 C1256 0.950 . S
H1249 C1261 0.950 . S
H1250 C1258 0.950 . S
H1251 C1260 0.950 . S
H1252 C1262 0.950 . S
H1253 C1264 0.950 . S
H1254 C1266 0.950 . S
H1255 C1267 0.950 . S
C1256 H1248 0.950 . S
C1256 C1257 1.386 . S
C1256 C1258 1.391 . S
C1257 C1256 1.386 . S
C1257 C1261 1.393 . S
C1258 H1250 0.950 . S
C1258 C1256 1.391 . S
C1258 C1259 1.400 . S
C1259 C1258 1.400 . S
C1259 C1260 1.398 . S
C1259 C1265 1.491 . S
C1260 H1251 0.950 . S
C1260 C1259 1.398 . S
C1260 C1261 1.391 . S
C1261 H1249 0.950 . S
C1261 C1257 1.393 . S
C1261 C1260 1.391 . S
C1262 H1252 0.950 . S
C1262 C1263 1.386 . S
C1262 C1264 1.391 . S
C1263 C1262 1.386 . S
C1263 C1267 1.393 . S
C1264 H1253 0.950 . S
C1264 C1262 1.391 . S
C1264 C1265 1.400 . S
C1265 C1259 1.491 . S
C1265 C1264 1.400 . S
C1265 C1266 1.398 . S
C1266 H1254 0.950 . S
C1266 C1265 1.398 . S
C1266 C1267 1.391 . S
C1267 H1255 0.950 . S
C1267 C1263 1.393 . S
C1267 C1266 1.391 . S
H1268 C1276 0.950 . S
H1269 C1281 0.950 . S
H1270 C1278 0.950 . S
H1271 C1280 0.950 . S
H1272 C1282 0.950 . S
H1273 C1284 0.950 . S
H1274 C1286 0.950 . S
H1275 C1287 0.950 . S
C1276 H1268 0.950 . S
C1276 C1277 1.386 . S
C1276 C1278 1.391 . S
C1277 C1276 1.386 . S
C1277 C1281 1.393 . S
C1278 H1270 0.950 . S
C1278 C1276 1.391 . S
C1278 C1279 1.400 . S
C1279 C1278 1.400 . S
C1279 C1280 1.398 . S
C1279 C1285 1.491 . S
C1280 H1271 0.950 . S
C1280 C1279 1.398 . S
C1280 C1281 1.391 . S
C1281 H1269 0.950 . S
C1281 C1277 1.393 . S
C1281 C1280 1.391 . S
C1282 H1272 0.950 . S
C1282 C1283 1.386 . S
C1282 C1284 1.391 . S
C1283 C1282 1.386 . S
C1283 C1287 1.393 . S
C1284 H1273 0.950 . S
C1284 C1282 1.391 . S
C1284 C1285 1.400 . S
C1285 C1279 1.491 . S
C1285 C1284 1.400 . S
C1285 C1286 1.398 . S
C1286 H1274 0.950 . S
C1286 C1285 1.398 . S
C1286 C1287 1.391 . S
C1287 H1275 0.950 . S
C1287 C1283 1.393 . S
C1287 C1286 1.391 . S
H1288 C1296 0.950 . S
H1289 C1301 0.950 . S
H1290 C1298 0.950 . S
H1291 C1300 0.950 . S
H1292 C1302 0.950 . S
H1293 C1304 0.950 . S
H1294 C1306 0.950 . S
H1295 C1307 0.950 . S
C1296 H1288 0.950 . S
C1296 C1297 1.386 . S
C1296 C1298 1.391 . S
C1297 C1296 1.386 . S
C1297 C1301 1.393 . S
C1298 H1290 0.950 . S
C1298 C1296 1.391 . S
C1298 C1299 1.400 . S
C1299 C1298 1.400 . S
C1299 C1300 1.398 . S
C1299 C1305 1.491 . S
C1300 H1291 0.950 . S
C1300 C1299 1.398 . S
C1300 C1301 1.391 . S
C1301 H1289 0.950 . S
C1301 C1297 1.393 . S
C1301 C1300 1.391 . S
C1302 H1292 0.950 . S
C1302 C1303 1.386 . S
C1302 C1304 1.391 . S
C1303 C1302 1.386 . S
C1303 C1307 1.393 . S
C1304 H1293 0.950 . S
C1304 C1302 1.391 . S
C1304 C1305 1.400 . S
C1305 C1299 1.491 . S
C1305 C1304 1.400 . S
C1305 C1306 1.398 . S
C1306 H1294 0.950 . S
C1306 C1305 1.398 . S
C1306 C1307 1.391 . S
C1307 H1295 0.950 . S
C1307 C1303 1.393 . S
C1307 C1306 1.391 . S
H1308 C1316 0.950 . S
H1309 C1321 0.950 . S
H1310 C1318 0.950 . S
H1311 C1320 0.950 . S
H1312 C1322 0.950 . S
H1313 C1324 0.950 . S
H1314 C1326 0.950 . S
H1315 C1327 0.950 . S
C1316 H1308 0.950 . S
C1316 C1317 1.386 . S
C1316 C1318 1.391 . S
C1317 C1316 1.386 . S
C1317 C1321 1.393 . S
C1318 H1310 0.950 . S
C1318 C1316 1.391 . S
C1318 C1319 1.400 . S
C1319 C1318 1.400 . S
C1319 C1320 1.398 . S
C1319 C1325 1.491 . S
C1320 H1311 0.950 . S
C1320 C1319 1.398 . S
C1320 C1321 1.391 . S
C1321 H1309 0.950 . S
C1321 C1317 1.393 . S
C1321 C1320 1.391 . S
C1322 H1312 0.950 . S
C1322 C1323 1.386 . S
C1322 C1324 1.391 . S
C1323 C1322 1.386 . S
C1323 C1327 1.393 . S
C1324 H1313 0.950 . S
C1324 C1322 1.391 . S
C1324 C1325 1.400 . S
C1325 C1319 1.491 . S
C1325 C1324 1.400 . S
C1325 C1326 1.398 . S
C1326 H1314 0.950 . S
C1326 C1325 1.398 . S
C1326 C1327 1.391 . S
C1327 H1315 0.950 . S
C1327 C1323 1.393 . S
C1327 C1326 1.391 . S
H1328 C1336 0.950 . S
H1329 C1341 0.950 . S
H1330 C1338 0.950 . S
H1331 C1340 0.950 . S
H1332 C1342 0.950 . S
H1333 C1344 0.950 . S
H1334 C1346 0.950 . S
H1335 C1347 0.950 . S
C1336 H1328 0.950 . S
C1336 C1337 1.386 . S
C1336 C1338 1.391 . S
C1337 C1336 1.386 . S
C1337 C1341 1.393 . S
C1338 H1330 0.950 . S
C1338 C1336 1.391 . S
C1338 C1339 1.400 . S
C1339 C1338 1.400 . S
C1339 C1340 1.398 . S
C1339 C1345 1.491 . S
C1340 H1331 0.950 . S
C1340 C1339 1.398 . S
C1340 C1341 1.391 . S
C1341 H1329 0.950 . S
C1341 C1337 1.393 . S
C1341 C1340 1.391 . S
C1342 H1332 0.950 . S
C1342 C1343 1.386 . S
C1342 C1344 1.391 . S
C1343 C1342 1.386 . S
C1343 C1347 1.393 . S
C1344 H1333 0.950 . S
C1344 C1342 1.391 . S
C1344 C1345 1.400 . S
C1345 C1339 1.491 . S
C1345 C1344 1.400 . S
C1345 C1346 1.398 . S
C1346 H1334 0.950 . S
C1346 C1345 1.398 . S
C1346 C1347 1.391 . S
C1347 H1335 0.950 . S
C1347 C1343 1.393 . S
C1347 C1346 1.391 . S
H1348 C1356 0.950 . S
H1349 C1361 0.950 . S
H1350 C1358 0.950 . S
H1351 C1360 0.950 . S
H1352 C1362 0.950 . S
H1353 C1364 0.950 . S
H1354 C1366 0.950 . S
H1355 C1367 0.950 . S
C1356 H1348 0.950 . S
C1356 C1357 1.386 . S
C1356 C1358 1.391 . S
C1357 C1356 1.386 . S
C1357 C1361 1.393 . S
C1358 H1350 0.950 . S
C1358 C1356 1.391 . S
C1358 C1359 1.400 . S
C1359 C1358 1.400 . S
C1359 C1360 1.398 . S
C1359 C1365 1.491 . S
C1360 H1351 0.950 . S
C1360 C1359 1.398 . S
C1360 C1361 1.391 . S
C1361 H1349 0.950 . S
C1361 C1357 1.393 . S
C1361 C1360 1.391 . S
C1362 H1352 0.950 . S
C1362 C1363 1.386 . S
C1362 C1364 1.391 . S
C1363 C1362 1.386 . S
C1363 C1367 1.393 . S
C1364 H1353 0.950 . S
C1364 C1362 1.391 . S
C1364 C1365 1.400 . S
C1365 C1359 1.491 . S
C1365 C1364 1.400 . S
C1365 C1366 1.398 . S
C1366 H1354 0.950 . S
C1366 C1365 1.398 . S
C1366 C1367 1.391 . S
C1367 H1355 0.950 . S
C1367 C1363 1.393 . S
C1367 C1366 1.391 . S
H1368 C1376 0.950 . S
H1369 C1381 0.950 . S
H1370 C1378 0.950 . S
H1371 C1380 0.950 . S
H1372 C1382 0.950 . S
H1373 C1384 0.950 . S
H1374 C1386 0.950 . S
H1375 C1387 0.950 . S
C1376 H1368 0.950 . S
C1376 C1377 1.386 . S
C1376 C1378 1.391 . S
C1377 C1376 1.386 . S
C1377 C1381 1.393 . S
C1378 H1370 0.950 . S
C1378 C1376 1.391 . S
C1378 C1379 1.400 . S
C1379 C1378 1.400 . S
C1379 C1380 1.398 . S
C1379 C1385 1.491 . S
C1380 H1371 0.950 . S
C1380 C1379 1.398 . S
C1380 C1381 1.391 . S
C1381 H1369 0.950 . S
C1381 C1377 1.393 . S
C1381 C1380 1.391 . S
C1382 H1372 0.950 . S
C1382 C1383 1.386 . S
C1382 C1384 1.391 . S
C1383 C1382 1.386 . S
C1383 C1387 1.393 . S
C1384 H1373 0.950 . S
C1384 C1382 1.391 . S
C1384 C1385 1.400 . S
C1385 C1379 1.491 . S
C1385 C1384 1.400 . S
C1385 C1386 1.398 . S
C1386 H1374 0.950 . S
C1386 C1385 1.398 . S
C1386 C1387 1.391 . S
C1387 H1375 0.950 . S
C1387 C1383 1.393 . S
C1387 C1386 1.391 . S
H1388 C1396 0.950 . S
H1389 C1401 0.950 . S
H1390 C1398 0.950 . S
H1391 C1400 0.950 . S
H1392 C1402 0.950 . S
H1393 C1404 0.950 . S
H1394 C1406 0.950 . S
H1395 C1407 0.950 . S
C1396 H1388 0.950 . S
C1396 C1397 1.386 . S
C1396 C1398 1.391 . S
C1397 C1396 1.386 . S
C1397 C1401 1.393 . S
C1398 H1390 0.950 . S
C1398 C1396 1.391 . S
C1398 C1399 1.400 . S
C1399 C1398 1.400 . S
C1399 C1400 1.398 . S
C1399 C1405 1.491 . S
C1400 H1391 0.950 . S
C1400 C1399 1.398 . S
C1400 C1401 1.391 . S
C1401 H1389 0.950 . S
C1401 C1397 1.393 . S
C1401 C1400 1.391 . S
C1402 H1392 0.950 . S
C1402 C1403 1.386 . S
C1402 C1404 1.391 . S
C1403 C1402 1.386 . S
C1403 C1407 1.393 . S
C1404 H1393 0.950 . S
C1404 C1402 1.391 . S
C1404 C1405 1.400 . S
C1405 C1399 1.491 . S
C1405 C1404 1.400 . S
C1405 C1406 1.398 . S
C1406 H1394 0.950 . S
C1406 C1405 1.398 . S
C1406 C1407 1.391 . S
C1407 H1395 0.950 . S
C1407 C1403 1.393 . S
C1407 C1406 1.391 . S
H1408 C1416 0.950 . S
H1409 C1421 0.950 . S
H1410 C1418 0.950 . S
H1411 C1420 0.950 . S
H1412 C1422 0.950 . S
H1413 C1424 0.950 . S
H1414 C1426 0.950 . S
H1415 C1427 0.950 . S
C1416 H1408 0.950 . S
C1416 C1417 1.386 . S
C1416 C1418 1.391 . S
C1417 C1416 1.386 . S
C1417 C1421 1.393 . S
C1418 H1410 0.950 . S
C1418 C1416 1.391 . S
C1418 C1419 1.400 . S
C1419 C1418 1.400 . S
C1419 C1420 1.398 . S
C1419 C1425 1.491 . S
C1420 H1411 0.950 . S
C1420 C1419 1.398 . S
C1420 C1421 1.391 . S
C1421 H1409 0.950 . S
C1421 C1417 1.393 . S
C1421 C1420 1.391 . S
C1422 H1412 0.950 . S
C1422 C1423 1.386 . S
C1422 C1424 1.391 . S
C1423 C1422 1.386 . S
C1423 C1427 1.393 . S
C1424 H1413 0.950 . S
C1424 C1422 1.391 . S
C1424 C1425 1.400 . S
C1425 C1419 1.491 . S
C1425 C1424 1.400 . S
C1425 C1426 1.398 . S
C1426 H1414 0.950 . S
C1426 C1425 1.398 . S
C1426 C1427 1.391 . S
C1427 H1415 0.950 . S
C1427 C1423 1.393 . S
C1427 C1426 1.391 . S
H1428 C1436 0.950 . S
H1429 C1441 0.950 . S
H1430 C1438 0.950 . S
H1431 C1440 0.950 . S
H1432 C1442 0.950 . S
H1433 C1444 0.950 . S
H1434 C1446 0.950 . S
H1435 C1447 0.950 . S
C1436 H1428 0.950 . S
C1436 C1437 1.386 . S
C1436 C1438 1.391 . S
C1437 C1436 1.386 . S
C1437 C1441 1.393 . S
C1438 H1430 0.950 . S
C1438 C1436 1.391 . S
C1438 C1439 1.400 . S
C1439 C1438 1.400 . S
C1439 C1440 1.398 . S
C1439 C1445 1.491 . S
C1440 H1431 0.950 . S
C1440 C1439 1.398 . S
C1440 C1441 1.391 . S
C1441 H1429 0.950 . S
C1441 C1437 1.393 . S
C1441 C1440 1.391 . S
C1442 H1432 0.950 . S
C1442 C1443 1.386 . S
C1442 C1444 1.391 . S
C1443 C1442 1.386 . S
C1443 C1447 1.393 . S
C1444 H1433 0.950 . S
C1444 C1442 1.391 . S
C1444 C1445 1.400 . S
C1445 C1439 1.491 . S
C1445 C1444 1.400 . S
C1445 C1446 1.398 . S
C1446 H1434 0.950 . S
C1446 C1445 1.398 . S
C1446 C1447 1.391 . S
C1447 H1435 0.950 . S
C1447 C1443 1.393 . S
C1447 C1446 1.391 . S
H1448 C1456 0.950 . S
H1449 C1461 0.950 . S
H1450 C1458 0.950 . S
H1451 C1460 0.950 . S
H1452 C1462 0.950 . S
H1453 C1464 0.950 . S
H1454 C1466 0.950 . S
H1455 C1467 0.950 . S
C1456 H1448 0.950 . S
C1456 C1457 1.386 . S
C1456 C1458 1.391 . S
C1457 C1456 1.386 . S
C1457 C1461 1.393 . S
C1458 H1450 0.950 . S
C1458 C1456 1.391 . S
C1458 C1459 1.400 . S
C1459 C1458 1.400 . S
C1459 C1460 1.398 . S
C1459 C1465 1.491 . S
C1460 H1451 0.950 . S
C1460 C1459 1.398 . S
C1460 C1461 1.391 . S
C1461 H1449 0.950 . S
C1461 C1457 1.393 . S
C1461 C1460 1.391 . S
C1462 H1452 0.950 . S
C1462 C1463 1.386 . S
C1462 C1464 1.391 . S
C1463 C1462 1.386 . S
C1463 C1467 1.393 . S
C1464 H1453 0.950 . S
C1464 C1462 1.391 . S
C1464 C1465 1.400 . S
C1465 C1459 1.491 . S
C1465 C1464 1.400 . S
C1465 C1466 1.398 . S
C1466 H1454 0.950 . S
C1466 C1465 1.398 . S
C1466 C1467 1.391 . S
C1467 H1455 0.950 . S
C1467 C1463 1.393 . S
C1467 C1466 1.391 . S
H1468 C1476 0.950 . S
H1469 C1481 0.950 . S
H1470 C1478 0.950 . S
H1471 C1480 0.950 . S
H1472 C1482 0.950 . S
H1473 C1484 0.950 . S
H1474 C1486 0.950 . S
H1475 C1487 0.950 . S
C1476 H1468 0.950 . S
C1476 C1477 1.386 . S
C1476 C1478 1.391 . S
C1477 C1476 1.386 . S
C1477 C1481 1.393 . S
C1478 H1470 0.950 . S
C1478 C1476 1.391 . S
C1478 C1479 1.400 . S
C1479 C1478 1.400 . S
C1479 C1480 1.398 . S
C1479 C1485 1.491 . S
C1480 H1471 0.950 . S
C1480 C1479 1.398 . S
C1480 C1481 1.391 . S
C1481 H1469 0.950 . S
C1481 C1477 1.393 . S
C1481 C1480 1.391 . S
C1482 H1472 0.950 . S
C1482 C1483 1.386 . S
C1482 C1484 1.391 . S
C1483 C1482 1.386 . S
C1483 C1487 1.393 . S
C1484 H1473 0.950 . S
C1484 C1482 1.391 . S
C1484 C1485 1.400 . S
C1485 C1479 1.491 . S
C1485 C1484 1.400 . S
C1485 C1486 1.398 . S
C1486 H1474 0.950 . S
C1486 C1485 1.398 . S
C1486 C1487 1.391 . S
C1487 H1475 0.950 . S
C1487 C1483 1.393 . S
C1487 C1486 1.391 . S
H1488 C1496 0.950 . S
H1489 C1501 0.950 . S
H1490 C1498 0.950 . S
H1491 C1500 0.950 . S
H1492 C1502 0.950 . S
H1493 C1504 0.950 . S
H1494 C1506 0.950 . S
H1495 C1507 0.950 . S
C1496 H1488 0.950 . S
C1496 C1497 1.386 . S
C1496 C1498 1.391 . S
C1497 C1496 1.386 . S
C1497 C1501 1.393 . S
C1498 H1490 0.950 . S
C1498 C1496 1.391 . S
C1498 C1499 1.400 . S
C1499 C1498 1.400 . S
C1499 C1500 1.398 . S
C1499 C1505 1.491 . S
C1500 H1491 0.950 . S
C1500 C1499 1.398 . S
C1500 C1501 1.391 . S
C1501 H1489 0.950 . S
C1501 C1497 1.393 . S
C1501 C1500 1.391 . S
C1502 H1492 0.950 . S
C1502 C1503 1.386 . S
C1502 C1504 1.391 . S
C1503 C1502 1.386 . S
C1503 C1507 1.393 . S
C1504 H1493 0.950 . S
C1504 C1502 1.391 . S
C1504 C1505 1.400 . S
C1505 C1499 1.491 . S
C1505 C1504 1.400 . S
C1505 C1506 1.398 . S
C1506 H1494 0.950 . S
C1506 C1505 1.398 . S
C1506 C1507 1.391 . S
C1507 H1495 0.950 . S
C1507 C1503 1.393 . S
C1507 C1506 1.391 . S
H1508 C1516 0.950 . S
H1509 C1521 0.950 . S
H1510 C1518 0.950 . S
H1511 C1520 0.950 . S
H1512 C1522 0.950 . S
H1513 C1524 0.950 . S
H1514 C1526 0.950 . S
H1515 C1527 0.950 . S
C1516 H1508 0.950 . S
C1516 C1517 1.386 . S
C1516 C1518 1.391 . S
C1517 C1516 1.386 . S
C1517 C1521 1.393 . S
C1518 H1510 0.950 . S
C1518 C1516 1.391 . S
C1518 C1519 1.400 . S
C1519 C1518 1.400 . S
C1519 C1520 1.398 . S
C1519 C1525 1.491 . S
C1520 H1511 0.950 . S
C1520 C1519 1.398 . S
C1520 C1521 1.391 . S
C1521 H1509 0.950 . S
C1521 C1517 1.393 . S
C1521 C1520 1.391 . S
C1522 H1512 0.950 . S
C1522 C1523 1.386 . S
C1522 C1524 1.391 . S
C1523 C1522 1.386 . S
C1523 C1527 1.393 . S
C1524 H1513 0.950 . S
C1524 C1522 1.391 . S
C1524 C1525 1.400 . S
C1525 C1519 1.491 . S
C1525 C1524 1.400 . S
C1525 C1526 1.398 . S
C1526 H1514 0.950 . S
C1526 C1525 1.398 . S
C1526 C1527 1.391 . S
C1527 H1515 0.950 . S
C1527 C1523 1.393 . S
C1527 C1526 1.391 . S
H1528 C1536 0.950 . S
H1529 C1541 0.950 . S
H1530 C1538 0.950 . S
H1531 C1540 0.950 . S
H1532 C1542 0.950 . S
H1533 C1544 0.950 . S
H1534 C1546 0.950 . S
H1535 C1547 0.950 . S
C1536 H1528 0.950 . S
C1536 C1537 1.386 . S
C1536 C1538 1.391 . S
C1537 C1536 1.386 . S
C1537 C1541 1.393 . S
C1538 H1530 0.950 . S
C1538 C1536 1.391 . S
C1538 C1539 1.400 . S
C1539 C1538 1.400 . S
C1539 C1540 1.398 . S
C1539 C1545 1.491 . S
C1540 H1531 0.950 . S
C1540 C1539 1.398 . S
C1540 C1541 1.391 . S
C1541 H1529 0.950 . S
C1541 C1537 1.393 . S
C1541 C1540 1.391 . S
C1542 H1532 0.950 . S
C1542 C1543 1.386 . S
C1542 C1544 1.391 . S
C1543 C1542 1.386 . S
C1543 C1547 1.393 . S
C1544 H1533 0.950 . S
C1544 C1542 1.391 . S
C1544 C1545 1.400 . S
C1545 C1539 1.491 . S
C1545 C1544 1.400 . S
C1545 C1546 1.398 . S
C1546 H1534 0.950 . S
C1546 C1545 1.398 . S
C1546 C1547 1.391 . S
C1547 H1535 0.950 . S
C1547 C1543 1.393 . S
C1547 C1546 1.391 . S
H1548 C1556 0.950 . S
H1549 C1561 0.950 . S
H1550 C1558 0.950 . S
H1551 C1560 0.950 . S
H1552 C1562 0.950 . S
H1553 C1564 0.950 . S
H1554 C1566 0.950 . S
H1555 C1567 0.950 . S
C1556 H1548 0.950 . S
C1556 C1557 1.386 . S
C1556 C1558 1.391 . S
C1557 C1556 1.386 . S
C1557 C1561 1.393 . S
C1558 H1550 0.950 . S
C1558 C1556 1.391 . S
C1558 C1559 1.400 . S
C1559 C1558 1.400 . S
C1559 C1560 1.398 . S
C1559 C1565 1.491 . S
C1560 H1551 0.950 . S
C1560 C1559 1.398 . S
C1560 C1561 1.391 . S
C1561 H1549 0.950 . S
C1561 C1557 1.393 . S
C1561 C1560 1.391 . S
C1562 H1552 0.950 . S
C1562 C1563 1.386 . S
C1562 C1564 1.391 . S
C1563 C1562 1.386 . S
C1563 C1567 1.393 . S
C1564 H1553 0.950 . S
C1564 C1562 1.391 . S
C1564 C1565 1.400 . S
C1565 C1559 1.491 . S
C1565 C1564 1.400 . S
C1565 C1566 1.398 . S
C1566 H1554 0.950 . S
C1566 C1565 1.398 . S
C1566 C1567 1.391 . S
C1567 H1555 0.950 . S
C1567 C1563 1.393 . S
C1567 C1566 1.391 . S
H1568 C1576 0.950 . S
H1569 C1581 0.950 . S
H1570 C1578 0.950 . S
H1571 C1580 0.950 . S
H1572 C1582 0.950 . S
H1573 C1584 0.950 . S
H1574 C1586 0.950 . S
H1575 C1587 0.950 . S
C1576 H1568 0.950 . S
C1576 C1577 1.386 . S
C1576 C1578 1.391 . S
C1577 C1576 1.386 . S
C1577 C1581 1.393 . S
C1578 H1570 0.950 . S
C1578 C1576 1.391 . S
C1578 C1579 1.400 . S
C1579 C1578 1.400 . S
C1579 C1580 1.398 . S
C1579 C1585 1.491 . S
C1580 H1571 0.950 . S
C1580 C1579 1.398 . S
C1580 C1581 1.391 . S
C1581 H1569 0.950 . S
C1581 C1577 1.393 . S
C1581 C1580 1.391 . S
C1582 H1572 0.950 . S
C1582 C1583 1.386 . S
C1582 C1584 1.391 . S
C1583 C1582 1.386 . S
C1583 C1587 1.393 . S
C1584 H1573 0.950 . S
C1584 C1582 1.391 . S
C1584 C1585 1.400 . S
C1585 C1579 1.491 . S
C1585 C1584 1.400 . S
C1585 C1586 1.398 . S
C1586 H1574 0.950 . S
C1586 C1585 1.398 . S
C1586 C1587 1.391 . S
C1587 H1575 0.950 . S
C1587 C1583 1.393 . S
C1587 C1586 1.391 . S
H1588 C1596 0.950 . S
H1589 C1601 0.950 . S
H1590 C1598 0.950 . S
H1591 C1600 0.950 . S
H1592 C1602 0.950 . S
H1593 C1604 0.950 . S
H1594 C1606 0.950 . S
H1595 C1607 0.950 . S
C1596 H1588 0.950 . S
C1596 C1597 1.386 . S
C1596 C1598 1.391 . S
C1597 C1596 1.386 . S
C1597 C1601 1.393 . S
C1598 H1590 0.950 . S
C1598 C1596 1.391 . S
C1598 C1599 1.400 . S
C1599 C1598 1.400 . S
C1599 C1600 1.398 . S
C1599 C1605 1.491 . S
C1600 H1591 0.950 . S
C1600 C1599 1.398 . S
C1600 C1601 1.391 . S
C1601 H1589 0.950 . S
C1601 C1597 1.393 . S
C1601 C1600 1.391 . S
C1602 H1592 0.950 . S
C1602 C1603 1.386 . S
C1602 C1604 1.391 . S
C1603 C1602 1.386 . S
C1603 C1607 1.393 . S
C1604 H1593 0.950 . S
C1604 C1602 1.391 . S
C1604 C1605 1.400 . S
C1605 C1599 1.491 . S
C1605 C1604 1.400 . S
C1605 C1606 1.398 . S
C1606 H1594 0.950 . S
C1606 C1605 1.398 . S
C1606 C1607 1.391 . S
C1607 H1595 0.950 . S
C1607 C1603 1.393 . S
C1607 C1606 1.391 . S
H1608 C1616 0.950 . S
H1609 C1621 0.950 . S
H1610 C1618 0.950 . S
H1611 C1620 0.950 . S
H1612 C1622 0.950 . S
H1613 C1624 0.950 . S
H1614 C1626 0.950 . S
H1615 C1627 0.950 . S
C1616 H1608 0.950 . S
C1616 C1617 1.386 . S
C1616 C1618 1.391 . S
C1617 C1616 1.386 . S
C1617 C1621 1.393 . S
C1618 H1610 0.950 . S
C1618 C1616 1.391 . S
C1618 C1619 1.400 . S
C1619 C1618 1.400 . S
C1619 C1620 1.398 . S
C1619 C1625 1.491 . S
C1620 H1611 0.950 . S
C1620 C1619 1.398 . S
C1620 C1621 1.391 . S
C1621 H1609 0.950 . S
C1621 C1617 1.393 . S
C1621 C1620 1.391 . S
C1622 H1612 0.950 . S
C1622 C1623 1.386 . S
C1622 C1624 1.391 . S
C1623 C1622 1.386 . S
C1623 C1627 1.393 . S
C1624 H1613 0.950 . S
C1624 C1622 1.391 . S
C1624 C1625 1.400 . S
C1625 C1619 1.491 . S
C1625 C1624 1.400 . S
C1625 C1626 1.398 . S
C1626 H1614 0.950 . S
C1626 C1625 1.398 . S
C1626 C1627 1.391 . S
C1627 H1615 0.950 . S
C1627 C1623 1.393 . S
C1627 C1626 1.391 . S
H1628 C1636 0.950 . S
H1629 C1641 0.950 . S
H1630 C1638 0.950 . S
H1631 C1640 0.950 . S
H1632 C1642 0.950 . S
H1633 C1644 0.950 . S
H1634 C1646 0.950 . S
H1635 C1647 0.950 . S
C1636 H1628 0.950 . S
C1636 C1637 1.386 . S
C1636 C1638 1.391 . S
C1637 C1636 1.386 . S
C1637 C1641 1.393 . S
C1638 H1630 0.950 . S
C1638 C1636 1.391 . S
C1638 C1639 1.400 . S
C1639 C1638 1.400 . S
C1639 C1640 1.398 . S
C1639 C1645 1.491 . S
C1640 H1631 0.950 . S
C1640 C1639 1.398 . S
C1640 C1641 1.391 . S
C1641 H1629 0.950 . S
C1641 C1637 1.393 . S
C1641 C1640 1.391 . S
C1642 H1632 0.950 . S
C1642 C1643 1.386 . S
C1642 C1644 1.391 . S
C1643 C1642 1.386 . S
C1643 C1647 1.393 . S
C1644 H1633 0.950 . S
C1644 C1642 1.391 . S
C1644 C1645 1.400 . S
C1645 C1639 1.491 . S
C1645 C1644 1.400 . S
C1645 C1646 1.398 . S
C1646 H1634 0.950 . S
C1646 C1645 1.398 . S
C1646 C1647 1.391 . S
C1647 H1635 0.950 . S
C1647 C1643 1.393 . S
C1647 C1646 1.391 . S
H1648 C1656 0.950 . S
H1649 C1661 0.950 . S
H1650 C1658 0.950 . S
H1651 C1660 0.950 . S
H1652 C1662 0.950 . S
H1653 C1664 0.950 . S
H1654 C1666 0.950 . S
H1655 C1667 0.950 . S
C1656 H1648 0.950 . S
C1656 C1657 1.386 . S
C1656 C1658 1.391 . S
C1657 C1656 1.386 . S
C1657 C1661 1.393 . S
C1658 H1650 0.950 . S
C1658 C1656 1.391 . S
C1658 C1659 1.400 . S
C1659 C1658 1.400 . S
C1659 C1660 1.398 . S
C1659 C1665 1.491 . S
C1660 H1651 0.950 . S
C1660 C1659 1.398 . S
C1660 C1661 1.391 . S
C1661 H1649 0.950 . S
C1661 C1657 1.393 . S
C1661 C1660 1.391 . S
C1662 H1652 0.950 . S
C1662 C1663 1.386 . S
C1662 C1664 1.391 . S
C1663 C1662 1.386 . S
C1663 C1667 1.393 . S
C1664 H1653 0.950 . S
C1664 C1662 1.391 . S
C1664 C1665 1.400 . S
C1665 C1659 1.491 . S
C1665 C1664 1.400 . S
C1665 C1666 1.398 . S
C1666 H1654 0.950 . S
C1666 C1665 1.398 . S
C1666 C1667 1.391 . S
C1667 H1655 0.950 . S
C1667 C1663 1.393 . S
C1667 C1666 1.391 . S
H1668 C1676 0.950 . S
H1669 C1681 0.950 . S
H1670 C1678 0.950 . S
H1671 C1680 0.950 . S
H1672 C1682 0.950 . S
H1673 C1684 0.950 . S
H1674 C1686 0.950 . S
H1675 C1687 0.950 . S
C1676 H1668 0.950 . S
C1676 C1677 1.386 . S
C1676 C1678 1.391 . S
C1677 C1676 1.386 . S
C1677 C1681 1.393 . S
C1678 H1670 0.950 . S
C1678 C1676 1.391 . S
C1678 C1679 1.400 . S
C1679 C1678 1.400 . S
C1679 C1680 1.398 . S
C1679 C1685 1.491 . S
C1680 H1671 0.950 . S
C1680 C1679 1.398 . S
C1680 C1681 1.391 . S
C1681 H1669 0.950 . S
C1681 C1677 1.393 . S
C1681 C1680 1.391 . S
C1682 H1672 0.950 . S
C1682 C1683 1.386 . S
C1682 C1684 1.391 . S
C1683 C1682 1.386 . S
C1683 C1687 1.393 . S
C1684 H1673 0.950 . S
C1684 C1682 1.391 . S
C1684 C1685 1.400 . S
C1685 C1679 1.491 . S
C1685 C1684 1.400 . S
C1685 C1686 1.398 . S
C1686 H1674 0.950 . S
C1686 C1685 1.398 . S
C1686 C1687 1.391 . S
C1687 H1675 0.950 . S
C1687 C1683 1.393 . S
C1687 C1686 1.391 . S
H1688 C1696 0.950 . S
H1689 C1701 0.950 . S
H1690 C1698 0.950 . S
H1691 C1700 0.950 . S
H1692 C1702 0.950 . S
H1693 C1704 0.950 . S
H1694 C1706 0.950 . S
H1695 C1707 0.950 . S
C1696 H1688 0.950 . S
C1696 C1697 1.386 . S
C1696 C1698 1.391 . S
C1697 C1696 1.386 . S
C1697 C1701 1.393 . S
C1698 H1690 0.950 . S
C1698 C1696 1.391 . S
C1698 C1699 1.400 . S
C1699 C1698 1.400 . S
C1699 C1700 1.398 . S
C1699 C1705 1.491 . S
C1700 H1691 0.950 . S
C1700 C1699 1.398 . S
C1700 C1701 1.391 . S
C1701 H1689 0.950 . S
C1701 C1697 1.393 . S
C1701 C1700 1.391 . S
C1702 H1692 0.950 . S
C1702 C1703 1.386 . S
C1702 C1704 1.391 . S
C1703 C1702 1.386 . S
C1703 C1707 1.393 . S
C1704 H1693 0.950 . S
C1704 C1702 1.391 . S
C1704 C1705 1.400 . S
C1705 C1699 1.491 . S
C1705 C1704 1.400 . S
C1705 C1706 1.398 . S
C1706 H1694 0.950 . S
C1706 C1705 1.398 . S
C1706 C1707 1.391 . S
C1707 H1695 0.950 . S
C1707 C1703 1.393 . S
C1707 C1706 1.391 . S
H1708 C1716 0.950 . S
H1709 C1721 0.950 . S
H1710 C1718 0.950 . S
H1711 C1720 0.950 . S
H1712 C1722 0.950 . S
H1713 C1724 0.950 . S
H1714 C1726 0.950 . S
H1715 C1727 0.950 . S
C1716 H1708 0.950 . S
C1716 C1717 1.386 . S
C1716 C1718 1.391 . S
C1717 C1716 1.386 . S
C1717 C1721 1.393 . S
C1718 H1710 0.950 . S
C1718 C1716 1.391 . S
C1718 C1719 1.400 . S
C1719 C1718 1.400 . S
C1719 C1720 1.398 . S
C1719 C1725 1.491 . S
C1720 H1711 0.950 . S
C1720 C1719 1.398 . S
C1720 C1721 1.391 . S
C1721 H1709 0.950 . S
C1721 C1717 1.393 . S
C1721 C1720 1.391 . S
C1722 H1712 0.950 . S
C1722 C1723 1.386 . S
C1722 C1724 1.391 . S
C1723 C1722 1.386 . S
C1723 C1727 1.393 . S
C1724 H1713 0.950 . S
C1724 C1722 1.391 . S
C1724 C1725 1.400 . S
C1725 C1719 1.491 . S
C1725 C1724 1.400 . S
C1725 C1726 1.398 . S
C1726 H1714 0.950 . S
C1726 C1725 1.398 . S
C1726 C1727 1.391 . S
C1727 H1715 0.950 . S
C1727 C1723 1.393 . S
C1727 C1726 1.391 . S
C457 C67 1.489 . S
C463 C11 1.478 . S
C477 C81 1.473 . S
C483 C25 1.490 . S
C497 C95 1.473 . S
C503 C39 1.489 . S
C517 C53 1.474 . S
C523 C109 1.490 . S
C537 C123 1.482 . S
C543 C179 1.486 . S
C557 C193 1.482 . S
C563 C137 1.485 . S
C577 C151 1.476 . S
C583 C207 1.483 . S
C597 C221 1.480 . S
C603 C165 1.480 . S
C617 C235 1.484 . S
C623 C291 1.484 . S
C637 C305 1.483 . S
C643 C249 1.477 . S
C657 C319 1.490 . S
C663 C263 1.476 . S
C677 C333 1.477 . S
C683 C277 1.489 . S
C697 C347 1.483 . S
C703 C403 1.478 . S
C717 C361 1.477 . S
C723 C417 1.489 . S
C737 C375 1.482 . S
C743 C431 1.485 . S
C757 C389 1.490 . S
C763 C445 1.473 . S
C777 C12 0.877 . S
C783 C110 0.871 . S
C797 C26 0.873 . S
C803 C68 0.859 . S
C817 C40 0.862 . S
C823 C82 0.857 . S
C837 C96 0.876 . S
C843 C54 0.863 . S
C857 C222 0.862 . S
C863 C124 0.857 . S
C877 C180 0.864 . S
C883 C138 0.856 . S
C897 C194 0.861 . S
C903 C152 0.875 . S
C917 C166 0.874 . S
C923 C208 0.875 . S
C937 C334 0.858 . S
C943 C236 0.872 . S
C957 C292 0.877 . S
C963 C250 0.867 . S
C977 C306 0.876 . S
C983 C264 0.873 . S
C997 C278 0.861 . S
C1003 C320 0.875 . S
C1017 C348 0.858 . S
C1023 C446 0.872 . S
C1037 C362 0.863 . S
C1043 C404 0.876 . S
C1057 C376 0.863 . S
C1063 C418 0.876 . S
C1077 C432 0.864 . S
C1083 C390 0.877 . S
C1097 C4 1.458 . S
C1103 C355 1.384 . S
C1117 C18 1.451 . S
C1123 C145 1.385 . S
C1137 C32 1.459 . S
C1143 C383 1.383 . S
C1157 C117 1.390 . S
C1163 C46 1.451 . S
C1177 C439 1.372 . S
C1183 C60 1.456 . S
C1197 C74 1.469 . S
C1203 C173 1.363 . S
C1217 C88 1.455 . S
C1223 C411 1.388 . S
C1237 C102 1.470 . S
C1243 C201 1.352 . S
C1257 C243 1.389 . S
C1263 C116 1.454 . S
C1277 C33 1.377 . S
C1283 C130 1.462 . S
C1297 C271 1.355 . S
C1303 C144 1.466 . S
C1317 C158 1.461 . S
C1323 C5 1.363 . S
C1337 C327 1.352 . S
C1343 C172 1.470 . S
C1357 C61 1.381 . S
C1363 C186 1.460 . S
C1377 C299 1.356 . S
C1383 C200 1.466 . S
C1397 C89 1.378 . S
C1403 C214 1.462 . S
C1417 C131 1.353 . S
C1423 C228 1.471 . S
C1437 C242 1.464 . S
C1443 C369 1.375 . S
C1457 C256 1.458 . S
C1463 C159 1.367 . S
C1477 C270 1.471 . S
C1483 C341 1.353 . S
C1497 C284 1.467 . S
C1503 C215 1.353 . S
C1517 C397 1.389 . S
C1523 C298 1.454 . S
C1537 C312 1.467 . S
C1543 C187 1.353 . S
C1557 C326 1.467 . S
C1563 C425 1.367 . S
C1577 C340 1.451 . S
C1583 C19 1.385 . S
C1597 C354 1.471 . S
C1603 C257 1.353 . S
C1617 C47 1.356 . S
C1623 C368 1.471 . S
C1637 C229 1.356 . S
C1643 C382 1.470 . S
C1657 C396 1.451 . S
C1663 C103 1.386 . S
C1677 C410 1.470 . S
C1683 C285 1.351 . S
C1697 C75 1.390 . S
C1703 C424 1.453 . S
C1717 C313 1.380 . S
C1723 C438 1.460 . S
