# Generated by pormake.
# Topology wkh, (6)-cn, num edge types: 1
# Building blocks:
#     Node 0, Type 0, BuildingBlock: MIDCAF_clean_sbu_0, # of connection points: 6
#     Node 1, Type 0, BuildingBlock: MIDCAF_clean_sbu_0, # of connection points: 6
#     Node 2, Type 0, BuildingBlock: MIDCAF_clean_sbu_0, # of connection points: 6
#     Node 3, Type 0, BuildingBlock: MIDCAF_clean_sbu_0, # of connection points: 6
#     Node 4, Type 0, BuildingBlock: MIDCAF_clean_sbu_0, # of connection points: 6
#     Node 5, Type 0, BuildingBlock: MIDCAF_clean_sbu_0, # of connection points: 6
#     Node 6, Type 0, BuildingBlock: MIDCAF_clean_sbu_0, # of connection points: 6
#     Node 7, Type 0, BuildingBlock: MIDCAF_clean_sbu_0, # of connection points: 6
#     Node 8, Type 0, BuildingBlock: MIDCAF_clean_sbu_0, # of connection points: 6
#     Node 9, Type 0, BuildingBlock: MIDCAF_clean_sbu_0, # of connection points: 6
#     Node 10, Type 0, BuildingBlock: MIDCAF_clean_sbu_0, # of connection points: 6
#     Node 11, Type 0, BuildingBlock: MIDCAF_clean_sbu_0, # of connection points: 6
#     Edge 12, Type (0, 0), BuildingBlock: XUDNAN_clean_linker_2, # of connection points: 2
#     Edge 13, Type (0, 0), BuildingBlock: XUDNAN_clean_linker_2, # of connection points: 2
#     Edge 14, Type (0, 0), BuildingBlock: XUDNAN_clean_linker_2, # of connection points: 2
#     Edge 15, Type (0, 0), BuildingBlock: XUDNAN_clean_linker_2, # of connection points: 2
#     Edge 16, Type (0, 0), BuildingBlock: XUDNAN_clean_linker_2, # of connection points: 2
#     Edge 17, Type (0, 0), BuildingBlock: XUDNAN_clean_linker_2, # of connection points: 2
#     Edge 18, Type (0, 0), BuildingBlock: XUDNAN_clean_linker_2, # of connection points: 2
#     Edge 19, Type (0, 0), BuildingBlock: XUDNAN_clean_linker_2, # of connection points: 2
#     Edge 20, Type (0, 0), BuildingBlock: XUDNAN_clean_linker_2, # of connection points: 2
#     Edge 21, Type (0, 0), BuildingBlock: XUDNAN_clean_linker_2, # of connection points: 2
#     Edge 22, Type (0, 0), BuildingBlock: XUDNAN_clean_linker_2, # of connection points: 2
#     Edge 23, Type (0, 0), BuildingBlock: XUDNAN_clean_linker_2, # of connection points: 2
#     Edge 24, Type (0, 0), BuildingBlock: XUDNAN_clean_linker_2, # of connection points: 2
#     Edge 25, Type (0, 0), BuildingBlock: XUDNAN_clean_linker_2, # of connection points: 2
#     Edge 26, Type (0, 0), BuildingBlock: XUDNAN_clean_linker_2, # of connection points: 2
#     Edge 27, Type (0, 0), BuildingBlock: XUDNAN_clean_linker_2, # of connection points: 2
#     Edge 28, Type (0, 0), BuildingBlock: XUDNAN_clean_linker_2, # of connection points: 2
#     Edge 29, Type (0, 0), BuildingBlock: XUDNAN_clean_linker_2, # of connection points: 2
#     Edge 30, Type (0, 0), BuildingBlock: XUDNAN_clean_linker_2, # of connection points: 2
#     Edge 31, Type (0, 0), BuildingBlock: XUDNAN_clean_linker_2, # of connection points: 2
#     Edge 32, Type (0, 0), BuildingBlock: XUDNAN_clean_linker_2, # of connection points: 2
#     Edge 33, Type (0, 0), BuildingBlock: XUDNAN_clean_linker_2, # of connection points: 2
#     Edge 34, Type (0, 0), BuildingBlock: XUDNAN_clean_linker_2, # of connection points: 2
#     Edge 35, Type (0, 0), BuildingBlock: XUDNAN_clean_linker_2, # of connection points: 2
#     Edge 36, Type (0, 0), BuildingBlock: XUDNAN_clean_linker_2, # of connection points: 2
#     Edge 37, Type (0, 0), BuildingBlock: XUDNAN_clean_linker_2, # of connection points: 2
#     Edge 38, Type (0, 0), BuildingBlock: XUDNAN_clean_linker_2, # of connection points: 2
#     Edge 39, Type (0, 0), BuildingBlock: XUDNAN_clean_linker_2, # of connection points: 2
#     Edge 40, Type (0, 0), BuildingBlock: XUDNAN_clean_linker_2, # of connection points: 2
#     Edge 41, Type (0, 0), BuildingBlock: XUDNAN_clean_linker_2, # of connection points: 2
#     Edge 42, Type (0, 0), BuildingBlock: XUDNAN_clean_linker_2, # of connection points: 2
#     Edge 43, Type (0, 0), BuildingBlock: XUDNAN_clean_linker_2, # of connection points: 2
#     Edge 44, Type (0, 0), BuildingBlock: XUDNAN_clean_linker_2, # of connection points: 2
#     Edge 45, Type (0, 0), BuildingBlock: XUDNAN_clean_linker_2, # of connection points: 2
#     Edge 46, Type (0, 0), BuildingBlock: XUDNAN_clean_linker_2, # of connection points: 2
#     Edge 47, Type (0, 0), BuildingBlock: XUDNAN_clean_linker_2, # of connection points: 2
# Relax obj value: 0.394
# Max RMSD: 0.272
# Mean RMSD: 0.272
data_MOF--net-wkh--node1-MIDCAF_clean_sbu_0--edge1-XUDNAN_clean_linker_2
_symmetry_space_group_name_H-M    P1
_symmetry_Int_Tables_number       1
_symmetry_cell_setting            triclinic
loop_
_symmetry_equiv_pos_as_xyz
'x, y, z'
_cell_length_a     26.321727
_cell_length_b     26.336018
_cell_length_c     77.316793
_cell_angle_alpha  89.880995
_cell_angle_beta   89.982164
_cell_angle_gamma 120.10126
loop_
_atom_site_label
_atom_site_type_symbol
_atom_site_fract_x
_atom_site_fract_y
_atom_site_fract_z
_atom_type_partial_charge
Zn0 Zn 0.33229 0.41618 0.98617 0.0
Zn1 Zn 0.20403 0.19323 0.0416 0.0
Zn2 Zn 0.28184 0.33513 0.0062 0.0
C3 C 0.33644 0.2961 0.04124 0.0
C4 C 0.21016 0.20851 0.00093 0.0
O5 O 0.22716 0.38044 0.00647 0.0
O6 O 0.27128 0.43882 0.98429 0.0
C7 C 0.41657 0.43487 0.01054 0.0
O8 O 0.33781 0.32695 0.02778 0.0
O9 O 0.2905 0.24948 0.04652 0.0
O10 O 0.21981 0.22095 0.01678 0.0
O11 O 0.23622 0.2524 0.99076 0.0
O12 O 0.40531 0.46311 -0.00055 0.0
O13 O 0.37617 0.38274 0.01503 0.0
O14 O 0.27856 0.29555 0.98053 0.0
O15 O 0.34025 0.37431 0.96577 0.0
C16 C 0.30854 0.31919 0.96667 0.0
O17 O 0.21435 0.34288 0.02111 0.0
O18 O 0.21192 0.26303 0.02838 0.0
C19 C 0.22898 0.41674 0.99486 0.0
C20 C 0.19382 0.29838 0.03116 0.0
Zn21 Zn 0.9743 0.23941 0.20198 0.0
Zn22 Zn 0.94091 0.32489 0.15677 0.0
Zn23 Zn 0.96359 0.28923 0.17945 0.0
C24 C 0.01274 0.29895 0.14182 0.0
C25 C 0.9886 0.41562 0.17746 0.0
O26 O 0.88342 0.24506 0.1968 0.0
O27 O 0.89604 0.17695 0.20913 0.0
C28 C 0.01634 0.20329 0.17705 0.0
O29 O -0.00926 0.26371 0.15486 0.0
O30 O 0.00729 0.3438 0.14117 0.0
O31 O 0.94109 0.3906 0.1691 0.0
O32 O 0.0134 0.38572 0.18149 0.0
O33 O 0.02375 0.2104 0.19313 0.0
O34 O -0.00798 0.22802 0.16877 0.0
O35 O 0.03351 0.3603 0.19522 0.0
O36 O 0.01248 0.30493 0.21839 0.0
C37 C 0.04147 0.3547 0.21136 0.0
O38 O 0.8682 0.25737 0.17932 0.0
O39 O 0.86457 0.25548 0.15094 0.0
C40 C 0.8658 0.20142 0.20739 0.0
C41 C 0.83818 0.24051 0.16526 0.0
Zn42 Zn 0.56635 0.92742 0.32461 0.0
Zn43 Zn 0.69213 0.91129 0.35888 0.0
Zn44 Zn 0.64201 0.95056 0.34616 0.0
C45 C 0.74248 0.03381 0.36593 0.0
C46 C 0.76237 0.96317 0.33328 0.0
O47 O 0.61565 0.86725 0.33414 0.0
O48 O 0.55106 0.85393 0.31403 0.0
C49 C 0.53685 0.97798 0.3463 0.0
O50 O 0.72542 0.02898 0.35013 0.0
O51 O 0.73087 0.98732 0.37405 0.0
O52 O 0.73903 0.91055 0.33849 0.0
O53 O 0.73453 0.9913 0.33585 0.0
O54 O 0.50357 0.93159 0.33809 0.0
O55 O 0.58964 0.99091 0.34911 0.0
O56 O 0.70322 0.02478 0.33024 0.0
O57 O 0.62827 0.00061 0.31247 0.0
C58 C 0.68188 0.03403 0.31632 0.0
O59 O 0.61758 0.92308 0.37328 0.0
O60 O 0.6193 0.84213 0.36845 0.0
C61 C 0.58199 0.837 0.3218 0.0
C62 C 0.60464 0.87139 0.3781 0.0
Zn63 Zn 0.72338 0.72398 0.54037 0.0
Zn64 Zn 0.66797 0.61479 0.4899 0.0
Zn65 Zn 0.6951 0.67364 0.51595 0.0
C66 C 0.70052 0.71846 0.47608 0.0
C67 C 0.56539 0.58506 0.50852 0.0
O68 O 0.76522 0.66172 0.52907 0.0
O69 O 0.80624 0.74667 0.54239 0.0
C70 C 0.73836 0.80426 0.51826 0.0
O71 O 0.70329 0.72779 0.49248 0.0
O72 O 0.69757 0.67185 0.47073 0.0
O73 O 0.58293 0.57643 0.49423 0.0
O74 O 0.60239 0.62085 0.51951 0.0
O75 O 0.71145 0.7883 0.53248 0.0
O76 O 0.73958 0.7655 0.50849 0.0
O77 O 0.62276 0.66169 0.53428 0.0
O78 O 0.66868 0.67428 0.55892 0.0
C79 C 0.62301 0.66515 0.55095 0.0
O80 O 0.73808 0.61878 0.51612 0.0
O81 O 0.69941 0.56343 0.49295 0.0
C82 C 0.80791 0.70154 0.53806 0.0
C83 C 0.73111 0.57643 0.50621 0.0
Zn84 Zn 0.05612 0.65401 0.66058 0.0
Zn85 Zn 0.00062 0.73269 0.70338 0.0
Zn86 Zn 0.02544 0.69052 0.68197 0.0
C87 C 0.91891 0.61837 0.70619 0.0
C88 C 0.98601 0.7836 0.67641 0.0
O89 O 0.12125 0.74398 0.68137 0.0
O90 O 0.12983 0.72393 0.6542 0.0
C91 C 0.01791 0.569 0.68272 0.0
O92 O 0.96083 0.61611 0.69833 0.0
O93 O 0.92073 0.66693 0.70748 0.0
O94 O 0.00487 0.80014 0.69153 0.0
O95 O 0.98482 0.73779 0.67012 0.0
O96 O 0.06476 0.59579 0.67414 0.0
O97 O 0.98914 0.59551 0.68611 0.0
O98 O -0.00435 0.70576 0.65656 0.0
O99 O 0.98986 0.62835 0.64384 0.0
C100 C 0.97961 0.67028 0.64361 0.0
O101 O 0.1052 0.74521 0.698 0.0
O102 O 0.05895 0.74805 0.72144 0.0
C103 C 0.15205 0.75482 0.66748 0.0
C104 C 0.10547 0.75672 0.7142 0.0
Zn105 Zn 0.1707 0.89858 0.86939 0.0
Zn106 Zn 0.4175 0.07693 0.82972 0.0
Zn107 Zn 0.31737 0.02438 0.84213 0.0
C108 C 0.3337 0.98225 0.80983 0.0
C109 C 0.42481 0.9921 0.8421 0.0
O110 O 0.2747 0.02073 0.86693 0.0
O111 O 0.20316 0.97073 0.88589 0.0
C112 C 0.1972 0.9564 0.83502 0.0
O113 O 0.31612 0.96338 0.82501 0.0
O114 O 0.36873 0.03681 0.80749 0.0
O115 O 0.46427 0.04306 0.83786 0.0
O116 O 0.37089 0.97943 0.84291 0.0
O117 O 0.21053 0.92798 0.84552 0.0
O118 O 0.2393 0.00036 0.82777 0.0
O119 O 0.32711 0.97959 0.86381 0.0
O120 O 0.24282 0.9055 0.85622 0.0
C121 C 0.2874 0.92586 0.86616 0.0
O122 O 0.3448 0.11165 0.8343 0.0
O123 O 0.43897 0.15512 0.83875 0.0
C124 C 0.24952 0.01824 0.8814 0.0
C125 C 0.39379 0.15833 0.83576 0.0
Zn126 Zn 0.76104 0.78634 0.786 0.0
Zn127 Zn 0.57965 0.62278 0.83472 0.0
Zn128 Zn 0.6605 0.68806 0.81991 0.0
C129 C 0.67653 0.64363 0.85485 0.0
C130 C 0.57338 0.56268 0.80745 0.0
O131 O 0.62749 0.73961 0.80722 0.0
O132 O 0.71864 0.80358 0.80426 0.0
C133 C 0.78564 0.78867 0.82747 0.0
O134 O 0.70099 0.6907 0.84553 0.0
O135 O 0.62598 0.60258 0.85071 0.0
O136 O 0.53588 0.57155 0.81479 0.0
O137 O 0.62806 0.60023 0.80953 0.0
O138 O 0.79051 0.80292 0.8115 0.0
O139 O 0.74114 0.74186 0.83344 0.0
O140 O 0.68126 0.64296 0.79963 0.0
O141 O 0.73792 0.70307 0.77842 0.0
C142 C 0.70906 0.65229 0.7852 0.0
O143 O 0.59264 0.71589 0.82208 0.0
O144 O 0.54524 0.66552 0.84517 0.0
C145 C 0.66668 0.78636 0.79985 0.0
C146 C 0.55558 0.70542 0.83438 0.0
Zn147 Zn 0.93937 0.6444 0.01021 0.0
Zn148 Zn 0.9621 0.72315 0.95888 0.0
Zn149 Zn 0.95966 0.68158 0.98322 0.0
C150 C 0.06374 0.72799 0.96074 0.0
C151 C 0.95907 0.79743 0.98066 0.0
O152 O 0.8823 0.68873 0.99342 0.0
O153 O 0.85548 0.61746 0.0125 0.0
C154 C 0.95783 0.56772 0.98968 0.0
O155 O 0.05273 0.73694 0.97629 0.0
O156 O 0.02164 0.70411 0.95018 0.0
O157 O 0.98806 0.802 0.96721 0.0
O158 O 0.92988 0.74683 0.98823 0.0
O159 O 0.96375 0.58631 0.00501 0.0
O160 O 0.94157 0.59149 0.97793 0.0
O161 O 0.04557 0.72407 0.99609 0.0
O162 O 0.00012 0.71993 0.02039 0.0
C163 C 0.04735 0.73981 0.0119 0.0
O164 O 0.91501 0.61374 0.96262 0.0
O165 O 0.87749 0.66909 0.95621 0.0
C166 C 0.84312 0.65019 0.00376 0.0
C167 C 0.87657 0.62119 0.95441 0.0
Zn168 Zn 0.19437 0.99214 0.11527 0.0
Zn169 Zn 0.36438 0.93114 0.16191 0.0
Zn170 Zn 0.29657 0.95745 0.14872 0.0
C171 C 0.32991 0.98896 0.18653 0.0
C172 C 0.42666 0.01708 0.13861 0.0
O173 O 0.25116 0.88033 0.13199 0.0
O174 O 0.21487 0.93417 0.12532 0.0
C175 C 0.21092 0.98453 0.15436 0.0
O176 O 0.28786 0.97524 0.17573 0.0
O177 O 0.37188 0.9807 0.18257 0.0
O178 O 0.42329 0.96896 0.14275 0.0
O179 O 0.38167 0.02308 0.14051 0.0
O180 O 0.21696 0.97442 0.13874 0.0
O181 O 0.24174 0.976 0.16537 0.0
O182 O 0.3367 0.03491 0.12931 0.0
O183 O 0.2793 0.05483 0.11151 0.0
C184 C 0.32944 0.06607 0.11743 0.0
O185 O 0.26346 0.86166 0.14683 0.0
O186 O 0.31576 0.84443 0.16568 0.0
C187 C 0.22247 0.89212 0.12105 0.0
C188 C 0.27072 0.82543 0.1563 0.0
Zn189 Zn 0.3835 0.31984 0.33824 0.0
Zn190 Zn 0.19529 0.23789 0.28197 0.0
Zn191 Zn 0.31461 0.29558 0.31306 0.0
C192 C 0.29778 0.35974 0.28825 0.0
C193 C 0.16837 0.22283 0.31945 0.0
O194 O 0.3549 0.24101 0.30939 0.0
O195 O 0.40539 0.26114 0.33378 0.0
C196 C 0.42879 0.42173 0.31958 0.0
O197 O 0.34028 0.37853 0.29869 0.0
O198 O 0.26451 0.30575 0.28872 0.0
O199 O 0.15075 0.21422 0.30386 0.0
O200 O 0.22335 0.25122 0.32377 0.0
O201 O 0.44199 0.40186 0.33261 0.0
O202 O 0.38197 0.38872 0.31088 0.0
O203 O 0.26494 0.28735 0.33712 0.0
O204 O 0.33173 0.3105 0.35751 0.0
C205 C 0.28078 0.2982 0.35307 0.0
O206 O 0.31053 0.22627 0.2953 0.0
O207 O 0.23285 0.18949 0.27718 0.0
C208 C 0.38918 0.23389 0.31966 0.0
C209 C 0.27862 0.19065 0.28312 0.0
Zn210 Zn 0.03803 0.28242 0.4623 0.0
Zn211 Zn 0.03547 0.41151 0.50226 0.0
Zn212 Zn 0.03249 0.34236 0.48198 0.0
C213 C 0.97342 0.30487 0.5187 0.0
C214 C 0.97195 0.41868 0.47707 0.0
O215 O 0.11962 0.37691 0.46856 0.0
O216 O 0.11536 0.2926 0.46988 0.0
C217 C 0.98016 0.2055 0.48481 0.0
O218 O -0.00498 0.29102 0.5058 0.0
O219 O 0.98005 0.35568 0.51966 0.0
O220 O 0.01071 0.45507 0.48713 0.0
O221 O 0.96965 0.36963 0.47404 0.0
O222 O 0.97516 0.20517 0.46858 0.0
O223 O 0.00302 0.25458 0.49306 0.0
O224 O 0.97512 0.33297 0.4603 0.0
O225 O 0.02811 0.31991 0.44083 0.0
C226 C 0.98605 0.32827 0.44437 0.0
O227 O 0.12461 0.41018 0.48546 0.0
O228 O 0.11606 0.45056 0.50934 0.0
C229 C 0.14049 0.34396 0.46394 0.0
C230 C 0.148 0.44416 0.4985 0.0
Zn231 Zn 0.66377 0.06222 0.67569 0.0
Zn232 Zn 0.73714 0.95138 0.60425 0.0
Zn233 Zn 0.68692 0.02339 0.65174 0.0
C234 C 0.62509 0.94153 0.62308 0.0
C235 C 0.74612 0.95681 0.64607 0.0
O236 O 0.74502 0.11995 0.64959 0.0
O237 O 0.72599 0.14291 0.67531 0.0
C238 C 0.56501 0.01375 0.65542 0.0
O239 O 0.6092 0.96142 0.63581 0.0
O240 O 0.68021 0.96337 0.62104 0.0
O241 O 0.73061 0.96638 0.6313 0.0
O242 O 0.72938 0.9737 0.65932 0.0
O243 O 0.58844 0.05021 0.66751 0.0
O244 O 0.59346 0.99174 0.64811 0.0
O245 O 0.70426 0.98174 0.67461 0.0
O246 O 0.66519 0.01211 0.69438 0.0
C247 C 0.68796 0.98149 0.69037 0.0
O248 O 0.74846 0.09482 0.63371 0.0
O249 O 0.73943 0.0174 0.62095 0.0
C250 C 0.75447 0.15829 0.66135 0.0
C251 C 0.75869 0.07259 0.62036 0.0
H252 H 0.75142 0.58834 0.9819 0.0
H253 H 0.79754 0.67827 0.03108 0.0
H254 H 0.6925 0.62779 0.0394 0.0
H255 H 0.6086 0.58445 0.976 0.0
H256 H 0.57488 0.51232 0.96651 0.0
H257 H 0.65251 0.56191 0.9639 0.0
H258 H 0.67235 0.48263 0.97658 0.0
H259 H 0.59501 0.43348 0.97991 0.0
H260 H 0.64514 0.45323 -0.00216 0.0
H261 H 0.58127 0.55916 0.04336 0.0
H262 H 0.47377 0.49066 0.04053 0.0
H263 H 0.50159 0.4434 0.98928 0.0
C264 C 0.73897 0.59977 0.994 0.0
C265 C 0.78246 0.63929 0.00555 0.0
C266 C 0.76475 0.65018 0.02176 0.0
C267 C 0.70519 0.62081 0.02671 0.0
C268 C 0.66357 0.57996 0.01537 0.0
C269 C 0.67964 0.57037 -0.00082 0.0
C270 C 0.62696 0.52239 0.9897 0.0
C271 C 0.61502 0.54673 0.97305 0.0
C272 C 0.63542 0.46985 0.98578 0.0
C273 C 0.57884 0.5063 0.00306 0.0
C274 C 0.60068 0.53961 0.01785 0.0
C275 C 0.56385 0.5328 0.03182 0.0
C276 C 0.50293 0.49307 0.03027 0.0
C277 C 0.47957 0.46029 0.01495 0.0
C278 C 0.51849 0.4664 0.00139 0.0
H279 H 0.27067 0.73267 0.17313 0.0
H280 H 0.15826 0.78158 0.14516 0.0
H281 H 0.07224 0.68715 0.15277 0.0
H282 H 0.19844 0.58435 0.15946 0.0
H283 H 0.20625 0.55534 0.17981 0.0
H284 H 0.25876 0.62944 0.17368 0.0
H285 H 0.23782 0.66612 0.20248 0.0
H286 H 0.18401 0.59187 0.20836 0.0
H287 H 0.16371 0.6478 0.2076 0.0
H288 H -0.0015 0.5905 0.16349 0.0
H289 H 0.9431 0.48516 0.1696 0.0
H290 H 0.10191 0.49196 0.18846 0.0
C291 C 0.22798 0.72327 0.16852 0.0
C292 C 0.22141 0.76479 0.15856 0.0
C293 C 0.1648 0.75069 0.15271 0.0
C294 C 0.11534 0.69746 0.15722 0.0
C295 C 0.12306 0.65845 0.16749 0.0
C296 C 0.17791 0.66968 0.1727 0.0
C297 C 0.17386 0.61715 0.18215 0.0
C298 C 0.21153 0.59526 0.17323 0.0
C299 C 0.19088 0.63163 0.20128 0.0
C300 C 0.10873 0.57369 0.1804 0.0
C301 C 0.08017 0.59984 0.17271 0.0
C302 C 0.02029 0.5693 0.16941 0.0
C303 C 0.98924 0.50932 0.17297 0.0
C304 C 0.01851 0.48004 0.17917 0.0
C305 C 0.07846 0.51314 0.18373 0.0
H306 H 0.33799 0.11559 0.32266 0.0
H307 H 0.50011 0.27412 0.3098 0.0
H308 H 0.55649 0.22579 0.31755 0.0
H309 H 0.3853 0.07918 0.35851 0.0
H310 H 0.34882 0.00084 0.35547 0.0
H311 H 0.31863 0.04247 0.34601 0.0
H312 H 0.32146 0.0043 0.31533 0.0
H313 H 0.3482 0.95965 0.32484 0.0
H314 H 0.3887 0.00993 0.30756 0.0
H315 H 0.59506 0.16964 0.33288 0.0
H316 H 0.61529 0.09488 0.34461 0.0
H317 H 0.42821 0.96866 0.34563 0.0
C318 C 0.38493 0.13849 0.32038 0.0
C319 C 0.41499 0.19793 0.31538 0.0
C320 C 0.47663 0.22795 0.31322 0.0
C321 C 0.50899 0.20128 0.31792 0.0
C322 C 0.47855 0.14429 0.32435 0.0
C323 C 0.41787 0.11205 0.32477 0.0
C324 C 0.39649 0.05196 0.33265 0.0
C325 C 0.36016 0.04315 0.34913 0.0
C326 C 0.36168 0.00359 0.3193 0.0
C327 C 0.45461 0.0562 0.33691 0.0
C328 C 0.50121 0.11047 0.33243 0.0
C329 C 0.55908 0.12631 0.33599 0.0
C330 C 0.56997 0.08373 0.34296 0.0
C331 C 0.52323 0.02568 0.34581 0.0
C332 C 0.46469 0.01262 0.34351 0.0
H333 H 0.23581 0.44828 0.47811 0.0
H334 H 0.2009 0.49624 0.52867 0.0
H335 H 0.30178 0.5283 0.53755 0.0
H336 H 0.33084 0.39501 0.49259 0.0
H337 H 0.38038 0.42546 0.47449 0.0
H338 H 0.3041 0.40385 0.47199 0.0
H339 H 0.33347 0.50816 0.46114 0.0
H340 H 0.40976 0.52992 0.46337 0.0
H341 H 0.38118 0.57091 0.47419 0.0
H342 H 0.40441 0.55409 0.54137 0.0
H343 H 0.50902 0.58521 0.53835 0.0
H344 H 0.47861 0.52404 0.48516 0.0
C345 C 0.24936 0.46558 0.49099 0.0
C346 C 0.21037 0.46936 0.50266 0.0
C347 C 0.23004 0.49297 0.51942 0.0
C348 C 0.28708 0.5108 0.52471 0.0
C349 C 0.32393 0.50512 0.51306 0.0
C350 C 0.30645 0.48412 0.49646 0.0
C351 C 0.35616 0.48594 0.48623 0.0
C352 C 0.342 0.42386 0.48103 0.0
C353 C 0.37102 0.52615 0.4703 0.0
C354 C 0.40423 0.51205 0.49967 0.0
C355 C 0.38435 0.52178 0.51513 0.0
C356 C 0.42088 0.54704 0.52933 0.0
C357 C 0.48026 0.56493 0.52747 0.0
C358 C 0.50213 0.55823 0.51146 0.0
C359 C 0.46321 0.52982 0.49759 0.0
H360 H 0.74671 0.25119 0.67201 0.0
H361 H 0.86622 0.20238 0.64891 0.0
H362 H 0.94977 0.30178 0.65529 0.0
H363 H 0.82146 0.40369 0.65725 0.0
H364 H 0.80481 0.42866 0.67701 0.0
H365 H 0.75597 0.35553 0.66932 0.0
H366 H 0.7655 0.31488 0.69901 0.0
H367 H 0.81652 0.38791 0.70643 0.0
H368 H 0.83711 0.33215 0.70664 0.0
H369 H 0.01973 0.40115 0.66744 0.0
H370 H 0.07054 0.50447 0.67643 0.0
H371 H 0.90351 0.48857 0.69071 0.0
C372 C 0.79035 0.26212 0.66783 0.0
C373 C 0.80057 0.2198 0.65993 0.0
C374 C 0.85787 0.23488 0.65473 0.0
C375 C 0.90541 0.29064 0.6586 0.0
C376 C 0.89412 0.33005 0.66751 0.0
C377 C 0.83782 0.31716 0.67154 0.0
C378 C 0.83716 0.36728 0.68087 0.0
C379 C 0.80287 0.39017 0.67048 0.0
C380 C 0.8126 0.34944 0.69933 0.0
C381 C 0.90208 0.4111 0.68121 0.0
C382 C 0.93419 0.38804 0.67392 0.0
C383 C -0.00498 0.41997 0.67291 0.0
C384 C 0.02342 0.4785 0.67822 0.0
C385 C -0.0093 0.50482 0.68394 0.0
C386 C 0.92964 0.46975 0.68639 0.0
H387 H 0.5824 0.81032 0.81868 0.0
H388 H 0.46425 0.68023 0.85579 0.0
H389 H 0.42202 0.74231 0.86265 0.0
H390 H 0.61088 0.93622 0.84322 0.0
H391 H 0.61134 0.97899 0.82492 0.0
H392 H 0.63215 0.92395 0.82216 0.0
H393 H 0.55332 0.87309 0.79844 0.0
H394 H 0.53314 0.9287 0.80081 0.0
H395 H 0.47814 0.85232 0.80302 0.0
H396 H 0.39401 0.81741 0.86633 0.0
H397 H 0.37485 0.89963 0.86443 0.0
H398 H 0.51022 0.98215 0.82521 0.0
C399 C 0.54719 0.79461 0.82807 0.0
C400 C 0.52688 0.74059 0.83676 0.0
C401 C 0.48085 0.72167 0.84904 0.0
C402 C 0.45659 0.75661 0.85309 0.0
C403 C 0.47869 0.81025 0.84471 0.0
C404 C 0.52232 0.82906 0.83231 0.0
C405 C 0.53751 0.88872 0.82523 0.0
C406 C 0.60178 0.93468 0.82913 0.0
C407 C 0.52472 0.88546 0.80572 0.0
C408 C 0.49522 0.89992 0.8356 0.0
C409 C 0.46209 0.85414 0.84681 0.0
C410 C 0.41921 0.85344 0.85751 0.0
C411 C 0.40835 0.90004 0.8563 0.0
C412 C 0.44035 0.94642 0.84454 0.0
C413 C 0.48532 0.94712 0.83437 0.0
H414 H 0.59476 0.49604 0.82794 0.0
H415 H 0.50286 0.49311 0.78126 0.0
H416 H 0.44184 0.38449 0.7834 0.0
H417 H 0.5866 0.35306 0.82553 0.0
H418 H 0.57081 0.34064 0.84834 0.0
H419 H 0.6151 0.41427 0.84027 0.0
H420 H 0.54323 0.44177 0.8549 0.0
H421 H 0.49711 0.36744 0.86224 0.0
H422 H 0.46658 0.40214 0.84911 0.0
H423 H 0.38493 0.27639 0.79295 0.0
H424 H 0.3446 0.17957 0.80753 0.0
H425 H 0.46577 0.26198 0.84999 0.0
C426 C 0.56432 0.47204 0.81759 0.0
C427 C 0.5549 0.50172 0.80401 0.0
C428 C 0.51186 0.47006 0.79133 0.0
C429 C 0.47658 0.40878 0.79264 0.0
C430 C 0.48404 0.38116 0.80704 0.0
C431 C 0.52708 0.41204 0.81925 0.0
C432 C 0.5212 0.37506 0.83482 0.0
C433 C 0.57671 0.37045 0.83737 0.0
C434 C 0.50617 0.39803 0.85122 0.0
C435 C 0.46968 0.31785 0.82925 0.0
C436 C 0.44822 0.32171 0.81327 0.0
C437 C 0.4012 0.27307 0.80551 0.0
C438 C 0.37791 0.21866 0.81398 0.0
C439 C 0.40207 0.21442 0.82991 0.0
C440 C 0.44644 0.2648 0.8379 0.0
H441 H 0.98569 0.50821 0.01327 0.0
H442 H 0.98726 0.53972 0.9581 0.0
H443 H 0.04802 0.49317 0.95365 0.0
H444 H 0.13122 0.54979 0.0164 0.0
H445 H 0.12297 0.49685 0.03261 0.0
H446 H 0.07016 0.52101 0.03126 0.0
H447 H 0.98593 0.41354 0.02801 0.0
H448 H 0.03854 0.38896 0.02964 0.0
H449 H 0.99003 0.36817 0.01127 0.0
H450 H 0.11993 0.45743 0.95574 0.0
H451 H 0.19492 0.43224 0.96347 0.0
H452 H 0.15061 0.42602 0.01781 0.0
C453 C -0.00307 0.50359 0.00012 0.0
C454 C 0.98075 0.52716 0.98595 0.0
C455 C -0.00223 0.5211 0.96908 0.0
C456 C 0.03272 0.49504 0.96649 0.0
C457 C 0.05015 0.47507 0.98088 0.0
C458 C 0.03226 0.47846 -0.00263 0.0
C459 C 0.06192 0.45958 0.01084 0.0
C460 C 0.09874 0.5098 0.02352 0.0
C461 C 0.01638 0.40426 0.02051 0.0
C462 C 0.10083 0.44644 -0.0006 0.0
C463 C 0.09266 0.4552 0.98216 0.0
C464 C 0.12597 0.44979 0.96915 0.0
C465 C 0.16893 0.43579 0.97375 0.0
C466 C 0.17912 0.42721 0.99129 0.0
C467 C 0.14361 0.43157 0.0043 0.0
H468 H 0.52671 0.02919 0.12434 0.0
H469 H 0.45867 0.11897 0.15528 0.0
H470 H 0.55801 0.1855 0.1665 0.0
H471 H 0.62065 0.02729 0.15333 0.0
H472 H 0.68041 0.04284 0.13883 0.0
H473 H 0.60643 0.00823 0.13076 0.0
H474 H 0.63524 0.0905 0.10797 0.0
H475 H 0.71011 0.12407 0.11536 0.0
H476 H 0.67323 0.16613 0.11476 0.0
H477 H 0.6603 0.22774 0.17885 0.0
H478 H 0.76561 0.2635 0.18484 0.0
H479 H 0.76721 0.15065 0.14439 0.0
C480 C 0.53344 0.06493 0.13273 0.0
C481 C 0.4854 0.06929 0.13887 0.0
C482 C 0.49522 0.11566 0.15016 0.0
C483 C 0.55134 0.15305 0.15684 0.0
C484 C 0.59712 0.14452 0.15162 0.0
C485 C 0.58933 0.10345 0.13921 0.0
C486 C 0.64541 0.10236 0.13603 0.0
C487 C 0.6377 0.04156 0.13998 0.0
C488 C 0.66732 0.12197 0.11743 0.0
C489 C 0.68518 0.14741 0.14909 0.0
C490 C 0.65647 0.17076 0.15814 0.0
C491 C 0.6837 0.21084 0.17156 0.0
C492 C 0.743 0.23013 0.17509 0.0
C493 C 0.7739 0.20966 0.16504 0.0
C494 C 0.74422 0.16684 0.15222 0.0
H495 H 0.48492 0.50967 0.3425 0.0
H496 H 0.44725 0.47393 0.28784 0.0
H497 H 0.49754 0.58061 0.28189 0.0
H498 H 0.45013 0.62042 0.34334 0.0
H499 H 0.50385 0.66396 0.35946 0.0
H500 H 0.47399 0.58584 0.35894 0.0
H501 H 0.57923 0.60149 0.35664 0.0
H502 H 0.60938 0.67986 0.35707 0.0
H503 H 0.62722 0.64663 0.33949 0.0
H504 H 0.53921 0.68843 0.28249 0.0
H505 H 0.56698 0.79056 0.28966 0.0
H506 H 0.57774 0.75536 0.34391 0.0
C507 C 0.48915 0.52443 0.32921 0.0
C508 C 0.46356 0.48424 0.31555 0.0
C509 C 0.46729 0.50457 0.29841 0.0
C510 C 0.49596 0.56484 0.29493 0.0
C511 C 0.51998 0.60353 0.30877 0.0
C512 C 0.51656 0.58413 0.32559 0.0
C513 C 0.53831 0.63386 0.33841 0.0
C514 C 0.48863 0.62551 0.35075 0.0
C515 C 0.59175 0.64087 0.34849 0.0
C516 C 0.55503 0.68448 0.32617 0.0
C517 C 0.54411 0.66611 0.30913 0.0
C518 C 0.54934 0.70372 0.2957 0.0
C519 C 0.56493 0.76135 0.29988 0.0
C520 C 0.57541 0.78037 0.31726 0.0
C521 C 0.57194 0.74209 0.33048 0.0
H522 H 0.97333 0.51928 0.46938 0.0
H523 H 0.85766 0.3352 0.48101 0.0
H524 H 0.78337 0.35768 0.49224 0.0
H525 H 0.95337 0.57347 0.50561 0.0
H526 H 0.95272 0.63671 0.49692 0.0
H527 H -0.00878 0.60643 0.48566 0.0
H528 H 0.93095 0.59144 0.45772 0.0
H529 H 0.89514 0.62571 0.46843 0.0
H530 H 0.85193 0.55402 0.45894 0.0
H531 H 0.73064 0.40304 0.50705 0.0
H532 H 0.69012 0.46495 0.51692 0.0
H533 H 0.84353 0.61945 0.497 0.0
C534 C 0.93081 0.48336 0.47326 0.0
C535 C 0.92087 0.42569 0.47433 0.0
C536 C 0.8655 0.37957 0.47983 0.0
C537 C 0.82359 0.39214 0.48657 0.0
C538 C 0.83769 0.45067 0.48724 0.0
C539 C 0.88885 0.49523 0.48005 0.0
C540 C 0.89528 0.55477 0.48326 0.0
C541 C 0.95149 0.59517 0.49347 0.0
C542 C 0.89316 0.58315 0.46607 0.0
C543 C 0.8411 0.53707 0.49405 0.0
C544 C 0.80838 0.47686 0.4962 0.0
C545 C 0.75573 0.45018 0.50538 0.0
C546 C 0.73373 0.48567 0.5113 0.0
C547 C 0.76486 0.54682 0.50816 0.0
C548 C 0.8203 0.57308 0.50016 0.0
H549 H 0.4854 0.90938 0.64068 0.0
H550 H 0.5043 0.06877 0.66321 0.0
H551 H 0.39739 0.0211 0.66678 0.0
H552 H 0.33608 0.86189 0.61905 0.0
H553 H 0.31245 0.78601 0.6235 0.0
H554 H 0.38869 0.8371 0.61894 0.0
H555 H 0.41669 0.80705 0.6477 0.0
H556 H 0.34081 0.75785 0.65282 0.0
H557 H 0.38649 0.81528 0.66775 0.0
H558 H 0.29517 0.95002 0.67529 0.0
H559 H 0.19626 0.86462 0.681 0.0
H560 H 0.24213 0.7538 0.65132 0.0
C561 C 0.46674 0.93506 0.64552 0.0
C562 C 0.50277 0.99216 0.65192 0.0
C563 C 0.47715 0.02447 0.65843 0.0
C564 C 0.41651 -0.00211 0.66052 0.0
C565 C 0.38232 0.93968 0.65556 0.0
C566 C 0.40604 0.90926 0.64753 0.0
C567 C 0.36009 0.84569 0.64481 0.0
C568 C 0.34863 0.83188 0.62542 0.0
C569 C 0.37708 0.80408 0.65381 0.0
C570 C 0.30826 0.84458 0.65358 0.0
C571 C 0.32189 0.89914 0.65973 0.0
C572 C 0.28304 0.90741 0.67001 0.0
C573 C 0.22762 0.85879 0.67344 0.0
C574 C 0.2122 0.80349 0.66641 0.0
C575 C 0.25307 0.79622 0.65656 0.0
H576 H 0.26157 0.19904 0.96564 0.0
H577 H 0.35471 0.35701 0.93442 0.0
H578 H 0.35632 0.29781 0.91002 0.0
H579 H 0.33875 0.12702 0.94817 0.0
H580 H 0.27438 0.05498 0.94899 0.0
H581 H 0.28326 0.11014 0.96439 0.0
H582 H 0.1831 0.09697 0.95549 0.0
H583 H 0.17319 0.04209 0.93994 0.0
H584 H 0.16934 0.10563 0.93314 0.0
H585 H 0.34641 0.22154 0.88876 0.0
H586 H 0.31859 0.13271 0.87144 0.0
H587 H 0.22957 0.02384 0.91609 0.0
C588 C 0.28212 0.22126 0.95368 0.0
C589 C 0.30774 0.28276 0.95197 0.0
C590 C 0.33477 0.30998 0.93609 0.0
C591 C 0.33616 0.27676 0.92215 0.0
C592 C 0.31069 0.21632 0.92428 0.0
C593 C 0.28408 0.18877 0.93963 0.0
C594 C 0.25856 0.12297 0.93836 0.0
C595 C 0.29066 0.10258 0.95071 0.0
C596 C 0.19209 0.09 0.94193 0.0
C597 C 0.2723 0.11756 0.91961 0.0
C598 C 0.30384 0.17212 0.91189 0.0
C599 C 0.32173 0.17855 0.89466 0.0
C600 C 0.30583 0.12783 0.88493 0.0
C601 C 0.27142 0.07134 0.89235 0.0
C602 C 0.25538 0.06641 0.91001 0.0
H603 H 0.08816 0.37817 0.11843 0.0
H604 H -0.0041 0.19224 0.13074 0.0
H605 H 0.02856 0.17218 0.10277 0.0
H606 H 0.0541 0.36526 0.07391 0.0
H607 H 0.12458 0.42474 0.06718 0.0
H608 H 0.09695 0.42512 0.08847 0.0
H609 H 0.19076 0.43431 0.10241 0.0
H610 H 0.21936 0.43544 0.08116 0.0
H611 H 0.21318 0.38196 0.09688 0.0
H612 H 0.06401 0.17239 0.07249 0.0
H613 H 0.11375 0.19285 0.04425 0.0
H614 H 0.18617 0.37971 0.05203 0.0
C615 C 0.07539 0.33321 0.11536 0.0
C616 C 0.03944 0.28661 0.12674 0.0
C617 C 0.02386 0.22853 0.12229 0.0
C618 C 0.04168 0.21679 0.10637 0.0
C619 C 0.07519 0.26369 0.09517 0.0
C620 C 0.09289 0.32086 0.09963 0.0
C621 C 0.12941 0.36354 0.08542 0.0
C622 C 0.09946 0.39661 0.07833 0.0
C623 C 0.19189 0.40633 0.09185 0.0
C624 C 0.12936 0.32146 0.07212 0.0
C625 C 0.09719 0.26405 0.07796 0.0
C626 C 0.08999 0.21717 0.06794 0.0
C627 C 0.11849 0.22935 0.05191 0.0
C628 C 0.15461 0.28795 0.04609 0.0
C629 C 0.15863 0.33455 0.0561 0.0
H630 H 0.77303 0.09826 0.21805 0.0
H631 H 0.87447 0.28334 0.22998 0.0
H632 H 0.83979 0.26237 0.2603 0.0
H633 H 0.64672 0.06557 0.24885 0.0
H634 H 0.6371 -0.00582 0.25349 0.0
H635 H 0.66195 0.02658 0.23241 0.0
H636 H 0.75208 0.01251 0.23575 0.0
H637 H 0.72926 0.98277 0.25713 0.0
H638 H 0.80113 0.04581 0.25379 0.0
H639 H 0.80784 0.21708 0.29089 0.0
H640 H 0.76277 0.15378 0.31693 0.0
H641 H 0.6823 0.00065 0.28387 0.0
C642 C 0.78488 0.13459 0.2268 0.0
C643 C 0.82516 0.19243 0.22164 0.0
C644 C 0.84191 0.23889 0.23358 0.0
C645 C 0.82332 0.22722 0.25092 0.0
C646 C 0.78679 0.16901 0.25594 0.0
C647 C 0.76586 0.12375 0.24401 0.0
C648 C 0.729 0.06483 0.25263 0.0
C649 C 0.66489 0.03611 0.24649 0.0
C650 C 0.75445 0.02415 0.24964 0.0
C651 C 0.7348 0.08358 0.27131 0.0
C652 C 0.76817 0.14369 0.27315 0.0
C653 C 0.78065 0.17001 0.28953 0.0
C654 C 0.75578 0.13394 0.30425 0.0
C655 C 0.71919 0.07268 0.30229 0.0
C656 C 0.71006 0.04757 0.28568 0.0
H657 H 0.67801 0.92483 0.4049 0.0
H658 H 0.51233 0.77263 0.39108 0.0
H659 H 0.51301 0.72422 0.4184 0.0
H660 H 0.74359 0.85318 0.41788 0.0
H661 H 0.78432 0.8977 0.43604 0.0
H662 H 0.76357 0.9294 0.41881 0.0
H663 H 0.71238 0.96255 0.44022 0.0
H664 H 0.728 0.92957 0.4584 0.0
H665 H 0.65365 0.90959 0.4537 0.0
H666 H 0.54041 0.68514 0.44325 0.0
H667 H 0.59108 0.65684 0.4645 0.0
H668 H 0.74428 0.83101 0.46187 0.0
C669 C 0.64015 0.88294 0.40824 0.0
C670 C 0.59372 0.85327 0.39633 0.0
C671 C 0.54681 0.79682 0.40043 0.0
C672 C 0.54722 0.76892 0.41585 0.0
C673 C 0.59526 0.79792 0.42691 0.0
C674 C 0.64071 0.85394 0.42342 0.0
C675 C 0.691 0.87166 0.43609 0.0
C676 C 0.74901 0.88899 0.42664 0.0
C677 C 0.69669 0.92136 0.44777 0.0
C678 C 0.66899 0.81509 0.44631 0.0
C679 C 0.6127 0.77408 0.44112 0.0
C680 C 0.58389 0.71724 0.44765 0.0
C681 C 0.61328 0.70152 0.45964 0.0
C682 C 0.67145 0.74192 0.46489 0.0
C683 C 0.69949 0.79986 0.45836 0.0
H684 H 0.78714 0.60869 0.55843 0.0
H685 H 0.92428 0.77744 0.5398 0.0
H686 H 0.98565 0.78583 0.5649 0.0
H687 H 0.79423 0.64457 0.59982 0.0
H688 H 0.78348 0.57779 0.60967 0.0
H689 H 0.75535 0.57594 0.58835 0.0
H690 H 0.8133 0.52892 0.57579 0.0
H691 H 0.83958 0.52789 0.59725 0.0
H692 H 0.89106 0.56286 0.57979 0.0
H693 H 0.02069 0.78747 0.59489 0.0
H694 H 0.03951 0.77035 0.6251 0.0
H695 H 0.88206 0.59913 0.62441 0.0
C696 C 0.83172 0.64524 0.55904 0.0
C697 C 0.85159 0.69194 0.54705 0.0
C698 C 0.90902 0.74069 0.54867 0.0
C699 C 0.94381 0.74619 0.56302 0.0
C700 C 0.92087 0.70201 0.57548 0.0
C701 C 0.86717 0.6513 0.57335 0.0
C702 C 0.85084 0.61287 0.5894 0.0
C703 C 0.79253 0.6022 0.59726 0.0
C704 C 0.84858 0.55469 0.58532 0.0
C705 C 0.90222 0.65118 0.6011 0.0
C706 C 0.94192 0.70254 0.59283 0.0
C707 C -0.0094 0.74685 0.60138 0.0
C708 C 0.00033 0.73732 0.61861 0.0
C709 C 0.96158 0.68406 0.62707 0.0
C710 C 0.91189 0.64053 0.61822 0.0
H711 H 0.30886 0.00386 0.77777 0.0
H712 H 0.30549 0.86738 0.80997 0.0
H713 H 0.26139 0.79643 0.78589 0.0
H714 H 0.16904 0.9129 0.76072 0.0
H715 H 0.1863 0.94894 0.73994 0.0
H716 H 0.22532 0.98893 0.75887 0.0
H717 H 0.32393 0.01561 0.74391 0.0
H718 H 0.28519 0.97462 0.72498 0.0
H719 H 0.33554 0.95793 0.73595 0.0
H720 H 0.21022 0.73945 0.75909 0.0
H721 H 0.14444 0.69819 0.73377 0.0
H722 H 0.17872 0.87172 0.71984 0.0
C723 C 0.30049 0.95949 0.77951 0.0
C724 C 0.3118 0.94115 0.79536 0.0
C725 C 0.29779 0.88214 0.79766 0.0
C726 C 0.27311 0.84179 0.78408 0.0
C727 C 0.2623 0.86133 0.76847 0.0
C728 C 0.27469 0.91856 0.7663 0.0
C729 C 0.25163 0.92694 0.74933 0.0
C730 C 0.20533 0.94548 0.7524 0.0
C731 C 0.30209 0.97141 0.73785 0.0
C732 C 0.22432 0.86549 0.74213 0.0
C733 C 0.23161 0.82835 0.75325 0.0
C734 C 0.20537 0.76829 0.7501 0.0
C735 C 0.16869 0.74531 0.73563 0.0
C736 C 0.1588 0.78238 0.72464 0.0
C737 C 0.18815 0.84322 0.72764 0.0
H738 H 0.79382 0.67978 0.86363 0.0
H739 H 0.61488 0.58609 0.88304 0.0
H740 H 0.64686 0.55273 0.90821 0.0
H741 H 0.83677 0.57502 0.87784 0.0
H742 H 0.90952 0.63051 0.88432 0.0
H743 H 0.87192 0.64558 0.86733 0.0
H744 H 0.88347 0.73749 0.88481 0.0
H745 H 0.92453 0.72177 0.90042 0.0
H746 H 0.86182 0.72712 0.90717 0.0
H747 H 0.69566 0.52824 0.93133 0.0
H748 H 0.76316 0.53467 0.95441 0.0
H749 H 0.91132 0.64183 0.92115 0.0
C750 C 0.76174 0.65298 0.8733 0.0
C751 C 0.70157 0.63491 0.87113 0.0
C752 C 0.66104 0.59981 0.88418 0.0
C753 C 0.67862 0.58013 0.89853 0.0
C754 C 0.73727 0.59581 0.89989 0.0
C755 C 0.7787 0.63278 0.88797 0.0
C756 C 0.83957 0.64577 0.89343 0.0
C757 C 0.86605 0.62291 0.87992 0.0
C758 C 0.87977 0.71192 0.89665 0.0
C759 C 0.82551 0.61064 0.91022 0.0
C760 C 0.76594 0.58136 0.91348 0.0
C761 C 0.7424 0.55015 0.92883 0.0
C762 C 0.781 0.55273 0.94178 0.0
C763 C 0.84238 0.58687 0.93943 0.0
C764 C 0.86457 0.61283 0.92299 0.0
H765 H 0.08382 0.8417 0.02809 0.0
H766 H 0.12471 0.7039 0.0202 0.0
H767 H 0.18418 0.73359 0.04701 0.0
H768 H 0.22985 0.95154 0.04981 0.0
H769 H 0.19189 0.97505 0.06425 0.0
H770 H 0.16573 0.95319 0.04254 0.0
H771 H 0.06215 0.8748 0.05411 0.0
H772 H 0.08831 0.89868 0.07566 0.0
H773 H 0.05743 0.82249 0.06993 0.0
H774 H 0.21893 0.76455 0.07821 0.0
H775 H 0.23874 0.80388 0.10812 0.0
H776 H 0.17429 0.92118 0.09442 0.0
C777 C 0.1094 0.82118 0.03124 0.0
C778 C 0.10193 0.77239 0.02177 0.0
C779 C 0.13214 0.74309 0.02693 0.0
C780 C 0.16528 0.75919 0.04229 0.0
C781 C 0.16855 0.80539 0.05202 0.0
C782 C 0.14295 0.83725 0.04633 0.0
C783 C 0.14642 0.88013 0.05989 0.0
C784 C 0.18585 0.94374 0.05376 0.0
C785 C 0.08498 0.86832 0.0652 0.0
C786 C 0.17499 0.8655 0.07442 0.0
C787 C 0.18807 0.82274 0.06975 0.0
C788 C 0.21038 0.79929 0.08177 0.0
C789 C 0.22097 0.82147 0.09876 0.0
C790 C 0.2086 0.86609 0.10356 0.0
C791 C 0.18502 0.88777 0.09118 0.0
H792 H 0.23813 0.98251 0.20545 0.0
H793 H 0.42739 0.05806 0.20548 0.0
H794 H 0.43378 0.10643 0.23327 0.0
H795 H 0.23414 0.10285 0.22168 0.0
H796 H 0.17023 0.06157 0.23511 0.0
H797 H 0.18051 0.02831 0.21617 0.0
H798 H 0.17219 0.94301 0.2351 0.0
H799 H 0.16284 0.97672 0.25419 0.0
H800 H 0.22068 0.95908 0.2533 0.0
H801 H 0.42129 0.15682 0.25899 0.0
H802 H 0.39012 0.20689 0.27982 0.0
H803 H 0.20881 0.09217 0.26472 0.0
C804 C 0.28074 0.00871 0.21143 0.0
C805 C 0.33216 0.01647 0.20334 0.0
C806 C 0.38726 0.05113 0.21153 0.0
C807 C 0.39141 0.07862 0.22736 0.0
C808 C 0.33995 0.07009 0.23507 0.0
C809 C 0.28559 0.03559 0.22745 0.0
C810 C 0.23747 0.03619 0.23796 0.0
C811 C 0.20365 0.0586 0.22708 0.0
C812 C 0.19584 0.97511 0.24559 0.0
C813 C 0.27371 0.07923 0.25201 0.0
C814 C 0.33263 0.09751 0.25034 0.0
C815 C 0.37508 0.14175 0.26075 0.0
C816 C 0.35698 0.16963 0.27271 0.0
C817 C 0.29701 0.15296 0.27411 0.0
C818 C 0.25496 0.10553 0.2641 0.0
H819 H 0.18531 0.22802 0.37372 0.0
H820 H 0.31198 0.40824 0.36087 0.0
H821 H 0.28493 0.44233 0.3871 0.0
H822 H 0.07543 0.26709 0.39508 0.0
H823 H 0.05468 0.20928 0.41077 0.0
H824 H 0.07472 0.20065 0.38911 0.0
H825 H 0.15298 0.17905 0.40186 0.0
H826 H 0.13454 0.18923 0.42345 0.0
H827 H 0.2092 0.23226 0.41588 0.0
H828 H 0.25642 0.45567 0.41706 0.0
H829 H 0.22064 0.4466 0.44727 0.0
H830 H 0.11463 0.25792 0.4405 0.0
C831 C 0.20481 0.27465 0.37605 0.0
C832 C 0.24973 0.31574 0.36525 0.0
C833 C 0.27637 0.37643 0.3689 0.0
C834 C 0.26156 0.3962 0.3838 0.0
C835 C 0.21917 0.35469 0.39476 0.0
C836 C 0.18982 0.29526 0.39083 0.0
C837 C 0.14918 0.25971 0.40544 0.0
C838 C 0.08469 0.23258 0.39977 0.0
C839 C 0.16235 0.21232 0.41204 0.0
C840 C 0.16494 0.30763 0.41871 0.0
C841 C 0.20384 0.36236 0.41218 0.0
C842 C 0.22532 0.41303 0.42229 0.0
C843 C 0.20549 0.40755 0.43948 0.0
C844 C 0.16629 0.35164 0.44645 0.0
C845 C 0.14597 0.30136 0.43579 0.0
H846 H 0.97886 0.32002 0.55373 0.0
H847 H 0.88337 0.19433 0.51321 0.0
H848 H 0.81693 0.12368 0.53512 0.0
H849 H 0.96843 0.21492 0.58605 0.0
H850 H 0.95876 0.25333 0.60387 0.0
H851 H -0.0003 0.29342 0.58505 0.0
H852 H 0.93101 0.33671 0.58157 0.0
H853 H 0.88942 0.29613 0.60026 0.0
H854 H 0.85287 0.28784 0.57987 0.0
H855 H 0.76094 0.06843 0.56067 0.0
H856 H 0.71962 0.02655 0.58905 0.0
H857 H 0.84916 0.18733 0.61409 0.0
C858 C 0.94422 0.27728 0.54958 0.0
C859 C 0.93699 0.26148 0.5319 0.0
C860 C 0.89059 0.2061 0.52677 0.0
C861 C 0.8524 0.16615 0.53909 0.0
C862 C 0.86076 0.18289 0.55642 0.0
C863 C 0.90554 0.2369 0.56175 0.0
C864 C 0.9044 0.24343 0.58127 0.0
C865 C 0.9612 0.25175 0.58955 0.0
C866 C 0.89378 0.29403 0.58602 0.0
C867 C 0.85198 0.1844 0.58607 0.0
C868 C 0.82763 0.15065 0.57142 0.0
C869 C 0.77967 0.09424 0.57223 0.0
C870 C 0.75671 0.07085 0.58846 0.0
C871 C 0.78159 0.10351 0.60377 0.0
C872 C 0.82915 0.16164 0.60258 0.0
H873 H 0.68551 0.89163 0.78855 0.0
H874 H 0.63021 0.71497 0.7715 0.0
H875 H 0.63517 0.74637 0.74092 0.0
H876 H 0.60299 0.92163 0.75547 0.0
H877 H 0.65942 -0.00233 0.75378 0.0
H878 H 0.64809 0.95898 0.77393 0.0
H879 H 0.75787 0.98784 0.77384 0.0
H880 H 0.76908 0.02496 0.75341 0.0
H881 H 0.78705 0.96764 0.7557 0.0
H882 H 0.65522 0.80127 0.71181 0.0
H883 H 0.67044 0.86942 0.68749 0.0
H884 H 0.70919 0.00798 0.72433 0.0
C885 C 0.67299 0.85936 0.77835 0.0
C886 C 0.65672 0.80089 0.78224 0.0
C887 C 0.64155 0.75976 0.76868 0.0
C888 C 0.64497 0.77741 0.75131 0.0
C889 C 0.66299 0.83611 0.74783 0.0
C890 C 0.6752 0.87599 0.76105 0.0
C891 C 0.69265 0.9362 0.75404 0.0
C892 C 0.64814 0.95469 0.75963 0.0
C893 C 0.75539 0.98182 0.75958 0.0
C894 C 0.68945 0.92447 0.73481 0.0
C895 C 0.67292 0.86676 0.73137 0.0
C896 C 0.66776 0.84643 0.7144 0.0
C897 C 0.67728 0.88554 0.70065 0.0
C898 C 0.69132 0.94393 0.70405 0.0
C899 C 0.6987 0.96359 0.72135 0.0
H900 H 0.34883 0.17366 0.12373 0.0
H901 H 0.41252 0.07884 0.09387 0.0
H902 H 0.45731 0.16072 0.07286 0.0
H903 H 0.29252 0.20419 0.0918 0.0
H904 H 0.30618 0.27556 0.09843 0.0
H905 H 0.30306 0.22479 0.11431 0.0
H906 H 0.407 0.30112 0.12501 0.0
H907 H 0.41052 0.35269 0.10899 0.0
H908 H 0.46745 0.33373 0.10994 0.0
H909 H 0.46343 0.23267 0.05083 0.0
H910 H 0.4252 0.27872 0.03093 0.0
H911 H 0.35806 0.32999 0.07428 0.0
C912 C 0.37632 0.17259 0.11347 0.0
C913 C 0.37906 0.12107 0.11069 0.0
C914 C 0.41199 0.11891 0.09659 0.0
C915 C 0.43707 0.16524 0.08449 0.0
C916 C 0.42896 0.2135 0.08672 0.0
C917 C 0.40003 0.21779 0.10113 0.0
C918 C 0.38445 0.2656 0.09881 0.0
C919 C 0.31769 0.24101 0.10093 0.0
C920 C 0.41948 0.31631 0.11144 0.0
C921 C 0.40453 0.28439 0.08031 0.0
C922 C 0.43205 0.25543 0.07373 0.0
C923 C 0.44403 0.25718 0.05603 0.0
C924 C 0.42304 0.28454 0.04472 0.0
C925 C 0.38947 0.30876 0.05111 0.0
C926 C 0.38553 0.3137 0.06919 0.0
H927 H 0.04248 0.37053 0.24556 0.0
H928 H 0.15222 0.43476 0.2 0.0
H929 H 0.24055 0.47106 0.21832 0.0
H930 H 0.15214 0.47459 0.27992 0.0
H931 H 0.12662 0.41322 0.29458 0.0
H932 H 0.07626 0.41702 0.27955 0.0
H933 H 0.04866 0.31398 0.26812 0.0
H934 H 0.09943 0.31029 0.2827 0.0
H935 H 0.10566 0.30175 0.25981 0.0
H936 H 0.31217 0.47013 0.23971 0.0
H937 H 0.35682 0.43404 0.26124 0.0
H938 H 0.1987 0.36243 0.29207 0.0
C939 C 0.08538 0.39582 0.23962 0.0
C940 C 0.09075 0.4003 0.22146 0.0
C941 C 0.14721 0.43202 0.21394 0.0
C942 C 0.19767 0.45221 0.2243 0.0
C943 C 0.1906 0.44056 0.24208 0.0
C944 C 0.13546 0.41377 0.2497 0.0
C945 C 0.13677 0.3928 0.26785 0.0
C946 C 0.12211 0.42647 0.28127 0.0
C947 C 0.09526 0.32583 0.26969 0.0
C948 C 0.20039 0.40896 0.26899 0.0
C949 C 0.23148 0.438 0.25428 0.0
C950 C 0.28885 0.4494 0.25153 0.0
C951 C 0.31406 0.429 0.2638 0.0
C952 C 0.28132 0.39688 0.27837 0.0
C953 C 0.22495 0.38868 0.28124 0.0
H954 H 0.74844 0.05291 0.4004 0.0
H955 H 0.80375 0.14346 0.35115 0.0
H956 H 0.86037 0.23826 0.36655 0.0
H957 H 0.73444 0.1719 0.42262 0.0
H958 H 0.75865 0.15735 0.44288 0.0
H959 H 0.71796 0.09841 0.42783 0.0
H960 H 0.80143 0.07323 0.42779 0.0
H961 H 0.84161 0.13111 0.443 0.0
H962 H 0.87537 0.13009 0.42281 0.0
H963 H 0.92853 0.31678 0.38747 0.0
H964 H -0.0065 0.37271 0.41187 0.0
H965 H 0.87943 0.23502 0.44725 0.0
C966 C 0.77204 0.09281 0.39284 0.0
C967 C 0.77352 0.09105 0.37464 0.0
C968 C 0.8032 0.14404 0.36515 0.0
C969 C 0.83494 0.19799 0.37379 0.0
C970 C 0.83399 0.19803 0.39184 0.0
C971 C 0.80186 0.14681 0.40121 0.0
C972 C 0.80951 0.15771 0.42045 0.0
C973 C 0.75169 0.14564 0.42894 0.0
C974 C 0.83344 0.12092 0.42899 0.0
C975 C 0.85429 0.22254 0.42051 0.0
C976 C 0.86795 0.24526 0.40389 0.0
C977 C 0.91633 0.30067 0.40058 0.0
C978 C 0.95279 0.3324 0.41447 0.0
C979 C 0.93953 0.30916 0.43142 0.0
C980 C 0.88821 0.25508 0.43453 0.0
H981 H 0.60398 0.66387 0.58559 0.0
H982 H 0.56046 0.71222 0.53656 0.0
H983 H 0.53209 0.77649 0.55178 0.0
H984 H 0.49132 0.67947 0.61351 0.0
H985 H 0.54391 0.70954 0.63087 0.0
H986 H 0.54335 0.65482 0.61675 0.0
H987 H 0.65355 0.72504 0.60985 0.0
H988 H 0.65431 0.7798 0.62373 0.0
H989 H 0.67645 0.79731 0.60144 0.0
H990 H 0.53732 0.85621 0.57119 0.0
H991 H 0.56842 0.93557 0.59288 0.0
H992 H 0.60419 0.83329 0.62941 0.0
C993 C 0.58515 0.68527 0.57815 0.0
C994 C 0.58399 0.68243 0.5599 0.0
C995 C 0.56074 0.71258 0.55057 0.0
C996 C 0.5449 0.74973 0.55914 0.0
C997 C 0.55115 0.75524 0.57709 0.0
C998 C 0.56937 0.72252 0.58653 0.0
C999 C 0.5811 0.74229 0.60521 0.0
C1000 C 0.53729 0.69362 0.6173 0.0
C1001 C 0.6451 0.7623 0.61033 0.0
C1002 C 0.57003 0.79341 0.60467 0.0
C1003 C 0.55197 0.79996 0.58842 0.0
C1004 C 0.54864 0.84989 0.58416 0.0
C1005 C 0.5658 0.89463 0.59659 0.0
C1006 C 0.5855 0.88887 0.61308 0.0
C1007 C 0.58572 0.83687 0.61726 0.0
H1008 H 0.80306 0.57123 0.70279 0.0
H1009 H 0.93594 0.56745 0.73442 0.0
H1010 H 0.87121 0.54158 0.75986 0.0
H1011 H 0.77845 0.6509 0.72569 0.0
H1012 H 0.69996 0.61911 0.72388 0.0
H1013 H 0.73922 0.60599 0.70734 0.0
H1014 H 0.67379 0.49378 0.71141 0.0
H1015 H 0.6328 0.50639 0.72789 0.0
H1016 H 0.66522 0.46174 0.73258 0.0
H1017 H 0.81172 0.5537 0.78257 0.0
H1018 H 0.76634 0.60087 0.7991 0.0
H1019 H 0.67541 0.60561 0.75321 0.0
C1020 C 0.81597 0.55973 0.7148 0.0
C1021 C 0.8737 0.57017 0.71664 0.0
C1022 C 0.89112 0.55777 0.73263 0.0
C1023 C 0.85461 0.54375 0.74724 0.0
C1024 C 0.80043 0.54115 0.74552 0.0
C1025 C 0.78035 0.54715 0.72949 0.0
C1026 C 0.72811 0.55633 0.73135 0.0
C1027 C 0.73714 0.61137 0.72151 0.0
C1028 C 0.67163 0.50129 0.72546 0.0
C1029 C 0.72759 0.56358 0.75075 0.0
C1030 C 0.76692 0.55084 0.75882 0.0
C1031 C 0.77936 0.56161 0.77645 0.0
C1032 C 0.75327 0.58833 0.78579 0.0
C1033 C 0.7167 0.60563 0.77738 0.0
C1034 C 0.70191 0.59097 0.75989 0.0
H1035 H 0.09575 0.68761 0.93347 0.0
H1036 H 0.16189 0.83082 0.97011 0.0
H1037 H 0.24576 0.89033 0.9507 0.0
H1038 H 0.24361 0.72484 0.91161 0.0
H1039 H 0.20706 0.70524 0.89096 0.0
H1040 H 0.16818 0.6667 0.91025 0.0
H1041 H 0.08694 0.69161 0.90296 0.0
H1042 H 0.12645 0.73113 0.88407 0.0
H1043 H 0.1066 0.76735 0.90024 0.0
H1044 H 0.30755 0.9409 0.92555 0.0
H1045 H 0.33664 0.98199 0.89629 0.0
H1046 H 0.22122 0.81025 0.87438 0.0
C1047 C 0.12993 0.73027 0.93784 0.0
C1048 C 0.12326 0.75436 0.95341 0.0
C1049 C 0.16734 0.81094 0.95854 0.0
C1050 C 0.21492 0.84508 0.9475 0.0
C1051 C 0.21764 0.82166 0.93155 0.0
C1052 C 0.17624 0.76523 0.92674 0.0
C1053 C 0.18034 0.75489 0.90762 0.0
C1054 C 0.20106 0.7103 0.90496 0.0
C1055 C 0.12165 0.73519 0.89819 0.0
C1056 C 0.22728 0.81583 0.90218 0.0
C1057 C 0.25027 0.8527 0.9163 0.0
C1058 C 0.29083 0.91225 0.91445 0.0
C1059 C 0.30696 0.93527 0.89778 0.0
C1060 C 0.28058 0.89923 0.88324 0.0
C1061 C 0.24197 0.83846 0.88542 0.0
H1062 H 0.18387 0.10549 0.01637 0.0
H1063 H 0.13446 0.17736 0.97339 0.0
H1064 H 0.04987 0.07826 0.96722 0.0
H1065 H 0.15269 0.97496 0.99348 0.0
H1066 H 0.12987 0.92959 0.0125 0.0
H1067 H 0.18252 0.00658 0.01427 0.0
H1068 H 0.1165 0.01792 0.03679 0.0
H1069 H 0.06055 0.94178 0.03492 0.0
H1070 H 0.04242 -0.0018 0.0311 0.0
H1071 H 0.97015 0.97025 0.96616 0.0
H1072 H 0.91821 0.86195 0.96539 0.0
H1073 H 0.02299 0.86057 0.00822 0.0
C1074 C 0.15525 0.1003 0.00563 0.0
C1075 C 0.16526 0.14892 0.99541 0.0
C1076 C 0.12754 0.14046 0.98132 0.0
C1077 C 0.07898 0.08454 0.9779 0.0
C1078 C 0.06934 0.03762 0.98859 0.0
C1079 C 0.10756 0.04485 0.00183 0.0
C1080 C 0.09193 0.98679 0.01016 0.0
C1081 C 0.14218 0.97368 0.00746 0.0
C1082 C 0.07705 0.98621 0.02939 0.0
C1083 C 0.03797 0.94524 -0.00015 0.0
C1084 C 0.02504 0.97559 0.98763 0.0
C1085 C 0.97955 0.94629 0.97581 0.0
C1086 C 0.94936 0.88461 0.9757 0.0
C1087 C 0.96503 0.85269 0.98718 0.0
C1088 C 0.00803 0.88355 -8e-05 0.0
H1089 H 0.21047 0.07802 0.13976 0.0
H1090 H 0.12521 0.94258 0.17879 0.0
H1091 H 0.05272 0.97482 0.18388 0.0
H1092 H 0.20208 0.18756 0.16364 0.0
H1093 H 0.19117 0.22255 0.14508 0.0
H1094 H 0.23007 0.18305 0.14276 0.0
H1095 H 0.15709 0.11975 0.11876 0.0
H1096 H 0.11714 0.15835 0.12138 0.0
H1097 H 0.07947 0.07956 0.12337 0.0
H1098 H -0.00932 0.02014 0.18461 0.0
H1099 H 0.95892 0.09279 0.18789 0.0
H1100 H 0.0918 0.20815 0.15124 0.0
C1101 C 0.1762 0.05521 0.14932 0.0
C1102 C 0.17244 0.00763 0.15884 0.0
C1103 C 0.12831 0.97916 0.17146 0.0
C1104 C 0.08665 -0.00344 0.1742 0.0
C1105 C 0.0907 0.04297 0.16435 0.0
C1106 C 0.13541 0.07321 0.15257 0.0
C1107 C 0.13475 0.12683 0.1456 0.0
C1108 C 0.19295 0.18333 0.14952 0.0
C1109 C 0.12131 0.12073 0.12612 0.0
C1110 C 0.08403 0.12334 0.15588 0.0
C1111 C 0.05763 0.07282 0.1659 0.0
C1112 C 0.01087 0.05976 0.17686 0.0
C1113 C -0.00703 0.10112 0.17854 0.0
C1114 C 0.02287 0.1556 0.16974 0.0
C1115 C 0.06748 0.16618 0.15774 0.0
H1116 H 0.0833 0.24098 0.33238 0.0
H1117 H 0.14888 0.11984 0.33192 0.0
H1118 H 0.04848 0.03705 0.33635 0.0
H1119 H 0.95426 0.145 0.36533 0.0
H1120 H 0.9119 0.172 0.35454 0.0
H1121 H 0.98992 0.21862 0.35672 0.0
H1122 H -0.00768 0.2336 0.32338 0.0
H1123 H 0.91529 0.18186 0.32124 0.0
H1124 H 0.96798 0.17092 0.30936 0.0
H1125 H 0.94143 0.96863 0.3316 0.0
H1126 H 0.83389 0.9171 0.32817 0.0
H1127 H 0.83701 0.08286 0.33331 0.0
C1128 C 0.07686 0.19752 0.33462 0.0
C1129 C 0.12336 0.18647 0.33204 0.0
C1130 C 0.11371 0.12902 0.33434 0.0
C1131 C 0.05663 0.08162 0.33652 0.0
C1132 C 0.01053 0.09322 0.33711 0.0
C1133 C 0.02025 0.14994 0.33721 0.0
C1134 C 0.96292 0.15022 0.33703 0.0
C1135 C 0.95424 0.17273 0.35446 0.0
C1136 C 0.95952 0.18628 0.32184 0.0
C1137 C 0.91982 0.08533 0.33485 0.0
C1138 C 0.9482 0.05319 0.33512 0.0
C1139 C 0.91841 0.99302 0.33203 0.0
C1140 C 0.85742 0.96432 0.32977 0.0
C1141 C 0.82674 -0.00426 0.33063 0.0
C1142 C 0.85889 0.0574 0.33264 0.0
H1143 H 0.94417 0.0999 0.46977 0.0
H1144 H 0.98024 0.18574 0.51972 0.0
H1145 H 0.93082 0.08898 0.53409 0.0
H1146 H 0.81419 0.99375 0.47496 0.0
H1147 H 0.8191 0.93415 0.46516 0.0
H1148 H 0.86884 0.00823 0.45863 0.0
H1149 H 0.95809 -0.0029 0.46631 0.0
H1150 H 0.90856 0.92154 0.4721 0.0
H1151 H 0.96274 0.97029 0.48738 0.0
H1152 H 0.85522 0.98905 0.54148 0.0
H1153 H 0.77591 0.8871 0.54326 0.0
H1154 H 0.79916 0.86232 0.48887 0.0
C1155 C 0.94299 0.09844 0.48377 0.0
C1156 C 0.96178 0.14973 0.4937 0.0
C1157 C 0.96212 0.1465 0.51191 0.0
C1158 C 0.93557 0.09191 0.52016 0.0
C1159 C 0.91304 0.04182 0.5099 0.0
C1160 C 0.91934 0.04458 0.49215 0.0
C1161 C 0.88775 0.98421 0.48406 0.0
C1162 C 0.8449 0.97994 0.46987 0.0
C1163 C 0.93192 0.96728 0.47706 0.0
C1164 C 0.85593 0.94797 0.49976 0.0
C1165 C 0.87243 0.9821 0.51455 0.0
C1166 C 0.84361 0.96117 0.5302 0.0
C1167 C 0.79767 0.9034 0.53092 0.0
C1168 C 0.78116 0.86683 0.5161 0.0
C1169 C 0.81098 0.88934 0.50034 0.0
H1170 H 0.91717 0.81753 0.69213 0.0
H1171 H 0.98666 0.81024 0.64197 0.0
H1172 H 0.93305 0.8556 0.62859 0.0
H1173 H 0.77407 0.77954 0.6773 0.0
H1174 H 0.76574 0.82671 0.69249 0.0
H1175 H 0.81102 0.79563 0.69789 0.0
H1176 H 0.89907 0.89993 0.70357 0.0
H1177 H 0.85391 0.93118 0.69821 0.0
H1178 H 0.92214 0.9551 0.68688 0.0
H1179 H 0.87216 0.90164 0.62124 0.0
H1180 H 0.80635 0.94229 0.61972 0.0
H1181 H 0.77522 0.91671 0.67503 0.0
C1182 C 0.92158 0.82603 0.67833 0.0
C1183 C 0.95597 0.81085 0.66794 0.0
C1184 C 0.95993 0.82125 0.64996 0.0
C1185 C 0.93003 0.84723 0.64237 0.0
C1186 C 0.89621 0.8615 0.65304 0.0
C1187 C 0.89161 0.85094 0.67062 0.0
C1188 C 0.85082 0.86811 0.67921 0.0
C1189 C 0.79725 0.81429 0.68719 0.0
C1190 C 0.88347 0.91648 0.69276 0.0
C1191 C 0.83353 0.89085 0.66372 0.0
C1192 C 0.86014 0.88662 0.64877 0.0
C1193 C 0.8507 0.90465 0.63281 0.0
C1194 C 0.81274 0.92724 0.63209 0.0
C1195 C 0.78457 0.93142 0.64722 0.0
C1196 C 0.79556 0.91339 0.66324 0.0
H1197 H 0.10002 0.85241 0.8382 0.0
H1198 H 0.15905 0.03715 0.83154 0.0
H1199 H 0.05583 0.01553 0.83474 0.0
H1200 H 0.96859 0.80161 0.81351 0.0
H1201 H 0.92976 0.7368 0.82675 0.0
H1202 H 0.00797 0.77096 0.82421 0.0
H1203 H 0.01936 0.77967 0.85791 0.0
H1204 H 0.94097 0.74591 0.85986 0.0
H1205 H 0.98793 0.81645 0.86966 0.0
H1206 H 0.94371 0.96973 0.83738 0.0
H1207 H 0.8364 0.90492 0.83416 0.0
H1208 H 0.85545 0.75236 0.84077 0.0
C1209 C 0.09129 0.88843 0.83748 0.0
C1210 C 0.13697 0.94618 0.83485 0.0
C1211 C 0.12416 0.99231 0.83356 0.0
C1212 C 0.06594 0.98051 0.83557 0.0
C1213 C 0.0219 0.92258 0.83879 0.0
C1214 C 0.03425 0.87747 0.83934 0.0
C1215 C 0.9799 0.81844 0.84147 0.0
C1216 C 0.97103 0.7797 0.82554 0.0
C1217 C 0.98223 0.78842 0.85825 0.0
C1218 C 0.93405 0.83655 0.84239 0.0
C1219 C 0.95885 0.89689 0.84082 0.0
C1220 C 0.92414 0.92276 0.839 0.0
C1221 C 0.86319 0.88574 0.83748 0.0
C1222 C 0.83805 0.82394 0.83784 0.0
C1223 C 0.87343 0.79941 0.84142 0.0
loop_
_geom_bond_atom_site_label_1
_geom_bond_atom_site_label_2
_geom_bond_distance
_geom_bond_site_symmetry_2
_ccdc_geom_bond_type
Zn0 O6 1.920 . S
Zn0 O12 1.898 . S
Zn0 O15 1.905 . S
Zn1 O9 1.905 . S
Zn1 O10 1.898 . S
Zn1 O18 1.920 . S
Zn2 O5 2.114 . S
Zn2 O8 2.114 . S
Zn2 O11 2.120 . S
Zn2 O13 2.120 . S
Zn2 O14 2.114 1_554 S
Zn2 O17 2.080 . S
C3 O8 1.166 . S
C3 O9 1.182 . S
C4 O10 1.167 . S
C4 O11 1.299 . S
O5 Zn2 2.114 . S
O5 C19 1.290 1_554 S
O6 Zn0 1.920 . S
O6 C19 1.234 . S
C7 O12 1.167 1_554 S
C7 O13 1.299 . S
O8 Zn2 2.114 . S
O8 C3 1.166 . S
O9 Zn1 1.905 . S
O9 C3 1.182 . S
O10 Zn1 1.898 . S
O10 C4 1.167 . S
O11 Zn2 2.120 . S
O11 C4 1.299 . S
O12 Zn0 1.898 . S
O12 C7 1.167 1_556 S
O13 Zn2 2.120 . S
O13 C7 1.299 . S
O14 Zn2 2.114 1_556 S
O14 C16 1.166 . S
O15 Zn0 1.905 . S
O15 C16 1.182 . S
C16 O14 1.166 . S
C16 O15 1.182 . S
O17 Zn2 2.080 . S
O17 C20 1.305 . S
O18 Zn1 1.920 . S
O18 C20 1.234 . S
C19 O5 1.290 1_556 S
C19 O6 1.234 . S
C20 O17 1.305 . S
C20 O18 1.234 . S
Zn21 O27 1.920 1_455 S
Zn21 O33 1.898 . S
Zn21 O36 1.905 . S
Zn22 O30 1.905 . S
Zn22 O31 1.898 . S
Zn22 O39 1.920 . S
Zn23 O26 2.080 . S
Zn23 O29 2.114 1_655 S
Zn23 O32 2.120 . S
Zn23 O34 2.120 . S
Zn23 O35 2.114 1_655 S
Zn23 O38 2.080 . S
C24 O29 1.166 . S
C24 O30 1.182 1_455 S
C25 O31 1.167 . S
C25 O32 1.299 . S
O26 Zn23 2.080 . S
O26 C40 1.305 . S
O27 Zn21 1.920 1_655 S
O27 C40 1.234 . S
C28 O33 1.177 . S
C28 O34 1.279 1_455 S
O29 Zn23 2.114 1_455 S
O29 C24 1.166 . S
O30 Zn22 1.905 . S
O30 C24 1.182 1_655 S
O31 Zn22 1.898 . S
O31 C25 1.167 . S
O32 Zn23 2.120 . S
O32 C25 1.299 . S
O33 Zn21 1.898 . S
O33 C28 1.177 . S
O34 Zn23 2.120 . S
O34 C28 1.279 1_655 S
O35 Zn23 2.114 1_455 S
O35 C37 1.166 . S
O36 Zn21 1.905 . S
O36 C37 1.182 . S
C37 O35 1.166 . S
C37 O36 1.182 . S
O38 Zn23 2.080 . S
O38 C41 1.305 . S
O39 Zn22 1.920 . S
O39 C41 1.234 . S
C40 O26 1.305 . S
C40 O27 1.234 . S
C41 O38 1.305 . S
C41 O39 1.234 . S
Zn42 O48 1.920 . S
Zn42 O54 1.898 . S
Zn42 O57 1.905 . S
Zn43 O51 1.905 . S
Zn43 O52 1.898 . S
Zn43 O60 1.920 1_545 S
Zn44 O47 2.080 . S
Zn44 O50 2.114 1_565 S
Zn44 O53 2.120 . S
Zn44 O55 2.120 . S
Zn44 O56 2.114 1_565 S
Zn44 O59 2.080 . S
C45 O50 1.166 . S
C45 O51 1.182 . S
C46 O52 1.167 . S
C46 O53 1.299 1_545 S
O47 Zn44 2.080 . S
O47 C61 1.305 . S
O48 Zn42 1.920 . S
O48 C61 1.234 . S
C49 O54 1.167 . S
C49 O55 1.299 . S
O50 Zn44 2.114 1_545 S
O50 C45 1.166 . S
O51 Zn43 1.905 . S
O51 C45 1.182 . S
O52 Zn43 1.898 . S
O52 C46 1.167 . S
O53 Zn44 2.120 . S
O53 C46 1.299 1_565 S
O54 Zn42 1.898 . S
O54 C49 1.167 . S
O55 Zn44 2.120 . S
O55 C49 1.299 . S
O56 Zn44 2.114 1_545 S
O56 C58 1.166 . S
O57 Zn42 1.905 . S
O57 C58 1.182 1_565 S
C58 O56 1.166 . S
C58 O57 1.182 1_545 S
O59 Zn44 2.080 . S
O59 C62 1.305 . S
O60 Zn43 1.920 1_565 S
O60 C62 1.234 . S
C61 O47 1.305 . S
C61 O48 1.234 . S
C62 O59 1.305 . S
C62 O60 1.234 . S
Zn63 O69 1.920 . S
Zn63 O75 1.898 . S
Zn63 O78 1.905 . S
Zn64 O72 1.905 . S
Zn64 O73 1.898 . S
Zn64 O81 1.920 . S
Zn65 O68 2.080 . S
Zn65 O71 2.114 . S
Zn65 O74 2.120 . S
Zn65 O76 2.120 . S
Zn65 O77 2.114 . S
Zn65 O80 2.080 . S
C66 O71 1.166 . S
C66 O72 1.182 . S
C67 O73 1.167 . S
C67 O74 1.299 . S
O68 Zn65 2.080 . S
O68 C82 1.305 . S
O69 Zn63 1.920 . S
O69 C82 1.234 . S
C70 O75 1.167 . S
C70 O76 1.299 . S
O71 Zn65 2.114 . S
O71 C66 1.166 . S
O72 Zn64 1.905 . S
O72 C66 1.182 . S
O73 Zn64 1.898 . S
O73 C67 1.167 . S
O74 Zn65 2.120 . S
O74 C67 1.299 . S
O75 Zn63 1.898 . S
O75 C70 1.167 . S
O76 Zn65 2.120 . S
O76 C70 1.299 . S
O77 Zn65 2.114 . S
O77 C79 1.166 . S
O78 Zn63 1.905 . S
O78 C79 1.182 . S
C79 O77 1.166 . S
C79 O78 1.182 . S
O80 Zn65 2.080 . S
O80 C83 1.305 . S
O81 Zn64 1.920 . S
O81 C83 1.234 . S
C82 O68 1.305 . S
C82 O69 1.234 . S
C83 O80 1.305 . S
C83 O81 1.234 . S
Zn84 O90 1.920 . S
Zn84 O96 1.898 . S
Zn84 O99 1.905 . S
Zn85 O93 1.905 . S
Zn85 O94 1.898 . S
Zn85 O102 1.920 1_655 S
Zn86 O89 2.080 . S
Zn86 O92 2.114 1_455 S
Zn86 O95 2.120 . S
Zn86 O97 2.120 . S
Zn86 O98 2.114 1_455 S
Zn86 O101 2.080 . S
C87 O92 1.166 . S
C87 O93 1.182 . S
C88 O94 1.175 . S
C88 O95 1.283 1_655 S
O89 Zn86 2.080 . S
O89 C103 1.305 . S
O90 Zn84 1.920 . S
O90 C103 1.234 . S
C91 O96 1.167 . S
C91 O97 1.299 . S
O92 Zn86 2.114 1_655 S
O92 C87 1.166 . S
O93 Zn85 1.905 . S
O93 C87 1.182 . S
O94 Zn85 1.898 . S
O94 C88 1.175 . S
O95 Zn86 2.120 . S
O95 C88 1.283 1_455 S
O96 Zn84 1.898 . S
O96 C91 1.167 . S
O97 Zn86 2.120 . S
O97 C91 1.299 . S
O98 Zn86 2.114 1_655 S
O98 C100 1.166 . S
O99 Zn84 1.905 . S
O99 C100 1.182 1_455 S
C100 O98 1.166 . S
C100 O99 1.182 1_655 S
O101 Zn86 2.080 . S
O101 C104 1.305 . S
O102 Zn85 1.920 1_455 S
O102 C104 1.234 . S
C103 O89 1.305 . S
C103 O90 1.234 . S
C104 O101 1.305 . S
C104 O102 1.234 . S
Zn105 O111 1.920 1_565 S
Zn105 O117 1.898 . S
Zn105 O120 1.905 . S
Zn106 O114 1.905 . S
Zn106 O115 1.898 . S
Zn106 O123 1.920 . S
Zn107 O110 2.080 . S
Zn107 O113 2.114 1_545 S
Zn107 O116 2.120 . S
Zn107 O118 2.120 . S
Zn107 O119 2.114 1_545 S
Zn107 O122 2.080 . S
C108 O113 1.166 . S
C108 O114 1.182 1_565 S
C109 O115 1.167 . S
C109 O116 1.299 . S
O110 Zn107 2.080 . S
O110 C124 1.305 . S
O111 Zn105 1.920 1_545 S
O111 C124 1.234 . S
C112 O117 1.168 . S
C112 O118 1.298 1_565 S
O113 Zn107 2.114 1_565 S
O113 C108 1.166 . S
O114 Zn106 1.905 . S
O114 C108 1.182 1_545 S
O115 Zn106 1.898 . S
O115 C109 1.167 . S
O116 Zn107 2.120 . S
O116 C109 1.299 . S
O117 Zn105 1.898 . S
O117 C112 1.168 . S
O118 Zn107 2.120 . S
O118 C112 1.298 1_545 S
O119 Zn107 2.114 1_565 S
O119 C121 1.166 . S
O120 Zn105 1.905 . S
O120 C121 1.182 . S
C121 O119 1.166 . S
C121 O120 1.182 . S
O122 Zn107 2.080 . S
O122 C125 1.305 . S
O123 Zn106 1.920 . S
O123 C125 1.234 . S
C124 O110 1.305 . S
C124 O111 1.234 . S
C125 O122 1.305 . S
C125 O123 1.234 . S
Zn126 O132 1.920 . S
Zn126 O138 1.898 . S
Zn126 O141 1.905 . S
Zn127 O135 1.905 . S
Zn127 O136 1.898 . S
Zn127 O144 1.920 . S
Zn128 O131 2.080 . S
Zn128 O134 2.114 . S
Zn128 O137 2.120 . S
Zn128 O139 2.120 . S
Zn128 O140 2.114 . S
Zn128 O143 2.080 . S
C129 O134 1.166 . S
C129 O135 1.182 . S
C130 O136 1.167 . S
C130 O137 1.299 . S
O131 Zn128 2.080 . S
O131 C145 1.305 . S
O132 Zn126 1.920 . S
O132 C145 1.234 . S
C133 O138 1.167 . S
C133 O139 1.299 . S
O134 Zn128 2.114 . S
O134 C129 1.166 . S
O135 Zn127 1.905 . S
O135 C129 1.182 . S
O136 Zn127 1.898 . S
O136 C130 1.167 . S
O137 Zn128 2.120 . S
O137 C130 1.299 . S
O138 Zn126 1.898 . S
O138 C133 1.167 . S
O139 Zn128 2.120 . S
O139 C133 1.299 . S
O140 Zn128 2.114 . S
O140 C142 1.166 . S
O141 Zn126 1.905 . S
O141 C142 1.182 . S
C142 O140 1.166 . S
C142 O141 1.182 . S
O143 Zn128 2.080 . S
O143 C146 1.305 . S
O144 Zn127 1.920 . S
O144 C146 1.234 . S
C145 O131 1.305 . S
C145 O132 1.234 . S
C146 O143 1.305 . S
C146 O144 1.234 . S
Zn147 O153 1.920 . S
Zn147 O159 1.898 . S
Zn147 O162 1.905 . S
Zn148 O156 1.905 . S
Zn148 O157 1.898 . S
Zn148 O165 1.920 1_455 S
Zn149 O152 2.081 . S
Zn149 O155 2.114 1_655 S
Zn149 O158 2.120 . S
Zn149 O160 2.120 . S
Zn149 O161 2.114 1_656 S
Zn149 O164 2.080 . S
C150 O155 1.166 . S
C150 O156 1.182 . S
C151 O157 1.171 . S
C151 O158 1.296 1_455 S
O152 Zn149 2.081 . S
O152 C166 1.304 1_556 S
O153 Zn147 1.920 . S
O153 C166 1.234 . S
C154 O159 1.167 1_556 S
C154 O160 1.299 . S
O155 Zn149 2.114 1_455 S
O155 C150 1.166 . S
O156 Zn148 1.905 . S
O156 C150 1.182 . S
O157 Zn148 1.898 . S
O157 C151 1.171 . S
O158 Zn149 2.120 . S
O158 C151 1.296 1_655 S
O159 Zn147 1.898 . S
O159 C154 1.167 1_554 S
O160 Zn149 2.120 . S
O160 C154 1.299 . S
O161 Zn149 2.114 1_454 S
O161 C163 1.166 . S
O162 Zn147 1.905 . S
O162 C163 1.182 1_655 S
C163 O161 1.166 . S
C163 O162 1.182 1_455 S
O164 Zn149 2.080 . S
O164 C167 1.305 . S
O165 Zn148 1.920 1_655 S
O165 C167 1.234 . S
C166 O152 1.304 1_554 S
C166 O153 1.234 . S
C167 O164 1.305 . S
C167 O165 1.234 . S
Zn168 O174 1.920 1_545 S
Zn168 O180 1.898 . S
Zn168 O183 1.905 . S
Zn169 O177 1.905 . S
Zn169 O178 1.898 . S
Zn169 O186 1.920 . S
Zn170 O173 2.080 . S
Zn170 O176 2.114 1_565 S
Zn170 O179 2.120 . S
Zn170 O181 2.120 . S
Zn170 O182 2.114 1_565 S
Zn170 O185 2.080 . S
C171 O176 1.166 . S
C171 O177 1.182 1_545 S
C172 O178 1.167 . S
C172 O179 1.299 . S
O173 Zn170 2.080 . S
O173 C187 1.305 . S
O174 Zn168 1.920 1_565 S
O174 C187 1.234 . S
C175 O180 1.167 . S
C175 O181 1.299 1_545 S
O176 Zn170 2.114 1_545 S
O176 C171 1.166 . S
O177 Zn169 1.905 . S
O177 C171 1.182 1_565 S
O178 Zn169 1.898 . S
O178 C172 1.167 . S
O179 Zn170 2.120 . S
O179 C172 1.299 . S
O180 Zn168 1.898 . S
O180 C175 1.167 . S
O181 Zn170 2.120 . S
O181 C175 1.299 1_565 S
O182 Zn170 2.114 1_545 S
O182 C184 1.166 . S
O183 Zn168 1.905 . S
O183 C184 1.182 . S
C184 O182 1.166 . S
C184 O183 1.182 . S
O185 Zn170 2.080 . S
O185 C188 1.305 . S
O186 Zn169 1.920 . S
O186 C188 1.234 . S
C187 O173 1.305 . S
C187 O174 1.234 . S
C188 O185 1.305 . S
C188 O186 1.234 . S
Zn189 O195 1.920 . S
Zn189 O201 1.898 . S
Zn189 O204 1.905 . S
Zn190 O198 1.905 . S
Zn190 O199 1.898 . S
Zn190 O207 1.920 . S
Zn191 O194 2.080 . S
Zn191 O197 2.114 . S
Zn191 O200 2.120 . S
Zn191 O202 2.120 . S
Zn191 O203 2.114 . S
Zn191 O206 2.080 . S
C192 O197 1.166 . S
C192 O198 1.182 . S
C193 O199 1.167 . S
C193 O200 1.299 . S
O194 Zn191 2.080 . S
O194 C208 1.305 . S
O195 Zn189 1.920 . S
O195 C208 1.234 . S
C196 O201 1.167 . S
C196 O202 1.299 . S
O197 Zn191 2.114 . S
O197 C192 1.166 . S
O198 Zn190 1.905 . S
O198 C192 1.182 . S
O199 Zn190 1.898 . S
O199 C193 1.167 . S
O200 Zn191 2.120 . S
O200 C193 1.299 . S
O201 Zn189 1.898 . S
O201 C196 1.167 . S
O202 Zn191 2.120 . S
O202 C196 1.299 . S
O203 Zn191 2.114 . S
O203 C205 1.166 . S
O204 Zn189 1.905 . S
O204 C205 1.182 . S
C205 O203 1.166 . S
C205 O204 1.182 . S
O206 Zn191 2.080 . S
O206 C209 1.305 . S
O207 Zn190 1.920 . S
O207 C209 1.234 . S
C208 O194 1.305 . S
C208 O195 1.234 . S
C209 O206 1.305 . S
C209 O207 1.234 . S
Zn210 O216 1.920 1_655 S
Zn210 O222 1.898 . S
Zn210 O225 1.905 . S
Zn211 O219 1.905 . S
Zn211 O220 1.898 . S
Zn211 O228 1.920 . S
Zn212 O215 2.080 . S
Zn212 O218 2.114 1_455 S
Zn212 O221 2.120 . S
Zn212 O223 2.120 . S
Zn212 O224 2.114 1_455 S
Zn212 O227 2.080 . S
C213 O218 1.166 . S
C213 O219 1.182 1_655 S
C214 O220 1.167 . S
C214 O221 1.299 . S
O215 Zn212 2.080 . S
O215 C229 1.305 . S
O216 Zn210 1.920 1_455 S
O216 C229 1.234 . S
C217 O222 1.170 . S
C217 O223 1.297 1_655 S
O218 Zn212 2.114 1_655 S
O218 C213 1.166 . S
O219 Zn211 1.905 . S
O219 C213 1.182 1_455 S
O220 Zn211 1.898 . S
O220 C214 1.167 . S
O221 Zn212 2.120 . S
O221 C214 1.299 . S
O222 Zn210 1.898 . S
O222 C217 1.170 . S
O223 Zn212 2.120 . S
O223 C217 1.297 1_455 S
O224 Zn212 2.114 1_655 S
O224 C226 1.166 . S
O225 Zn210 1.905 . S
O225 C226 1.182 . S
C226 O224 1.166 . S
C226 O225 1.182 . S
O227 Zn212 2.080 . S
O227 C230 1.305 . S
O228 Zn211 1.920 . S
O228 C230 1.234 . S
C229 O215 1.305 . S
C229 O216 1.234 . S
C230 O227 1.305 . S
C230 O228 1.234 . S
Zn231 O237 1.920 . S
Zn231 O243 1.898 . S
Zn231 O246 1.905 . S
Zn232 O240 1.905 . S
Zn232 O241 1.898 . S
Zn232 O249 1.920 1_565 S
Zn233 O236 2.080 . S
Zn233 O239 2.114 1_545 S
Zn233 O242 2.120 . S
Zn233 O244 2.120 . S
Zn233 O245 2.114 1_545 S
Zn233 O248 2.080 . S
C234 O239 1.166 . S
C234 O240 1.182 . S
C235 O241 1.168 . S
C235 O242 1.296 1_565 S
O236 Zn233 2.080 . S
O236 C250 1.305 . S
O237 Zn231 1.920 . S
O237 C250 1.234 . S
C238 O243 1.167 . S
C238 O244 1.299 . S
O239 Zn233 2.114 1_565 S
O239 C234 1.166 . S
O240 Zn232 1.905 . S
O240 C234 1.182 . S
O241 Zn232 1.898 . S
O241 C235 1.168 . S
O242 Zn233 2.120 . S
O242 C235 1.296 1_545 S
O243 Zn231 1.898 . S
O243 C238 1.167 . S
O244 Zn233 2.120 . S
O244 C238 1.299 . S
O245 Zn233 2.114 1_565 S
O245 C247 1.166 . S
O246 Zn231 1.905 . S
O246 C247 1.182 1_545 S
C247 O245 1.166 . S
C247 O246 1.182 1_565 S
O248 Zn233 2.080 . S
O248 C251 1.305 . S
O249 Zn232 1.920 1_545 S
O249 C251 1.234 . S
C250 O236 1.305 . S
C250 O237 1.234 . S
C251 O248 1.305 . S
C251 O249 1.234 . S
H252 C264 0.930 . S
H253 C266 0.930 . S
H254 C267 0.930 . S
H255 C271 0.959 . S
H256 C271 0.959 . S
H257 C271 0.961 . S
H258 C272 0.960 . S
H259 C272 0.961 . S
H260 C272 0.959 . S
H261 C275 0.929 . S
H262 C276 0.931 . S
H263 C278 0.930 1_556 S
C264 H252 0.930 . S
C264 C265 1.399 1_556 S
C264 C269 1.412 . S
C265 C264 1.399 1_554 S
C265 C266 1.376 . S
C266 H253 0.930 . S
C266 C265 1.376 . S
C266 C267 1.388 . S
C267 H254 0.930 . S
C267 C266 1.388 . S
C267 C268 1.390 . S
C268 C267 1.390 . S
C268 C269 1.357 1_554 S
C268 C274 1.465 . S
C269 C264 1.412 . S
C269 C268 1.357 1_556 S
C269 C270 1.536 . S
C270 C269 1.536 . S
C270 C271 1.502 . S
C270 C272 1.561 . S
C270 C273 1.526 1_556 S
C271 H255 0.959 . S
C271 H256 0.959 . S
C271 H257 0.961 . S
C271 C270 1.502 . S
C272 H258 0.960 . S
C272 H259 0.961 . S
C272 H260 0.959 . S
C272 C270 1.561 . S
C273 C270 1.526 1_554 S
C273 C274 1.396 . S
C273 C278 1.390 . S
C274 C268 1.465 . S
C274 C273 1.396 . S
C274 C275 1.399 . S
C275 H261 0.929 . S
C275 C274 1.399 . S
C275 C276 1.385 . S
C276 H262 0.931 . S
C276 C275 1.385 . S
C276 C277 1.389 . S
C277 C276 1.389 . S
C277 C278 1.387 . S
C278 H263 0.930 1_554 S
C278 C273 1.390 . S
C278 C277 1.387 . S
H279 C291 0.930 . S
H280 C293 0.930 . S
H281 C294 0.930 . S
H282 C298 0.959 . S
H283 C298 0.959 . S
H284 C298 0.961 . S
H285 C299 0.960 . S
H286 C299 0.961 . S
H287 C299 0.959 . S
H288 C302 0.929 . S
H289 C303 0.930 1_655 S
H290 C305 0.930 . S
C291 H279 0.930 . S
C291 C292 1.399 . S
C291 C296 1.399 . S
C292 C291 1.399 . S
C292 C293 1.376 . S
C293 H280 0.930 . S
C293 C292 1.376 . S
C293 C294 1.388 . S
C294 H281 0.930 . S
C294 C293 1.388 . S
C294 C295 1.390 . S
C295 C294 1.390 . S
C295 C296 1.394 . S
C295 C301 1.465 . S
C296 C291 1.399 . S
C296 C295 1.394 . S
C296 C297 1.516 . S
C297 C296 1.516 . S
C297 C298 1.502 . S
C297 C299 1.561 . S
C297 C300 1.526 . S
C298 H282 0.959 . S
C298 H283 0.959 . S
C298 H284 0.961 . S
C298 C297 1.502 . S
C299 H285 0.960 . S
C299 H286 0.961 . S
C299 H287 0.959 . S
C299 C297 1.561 . S
C300 C297 1.526 . S
C300 C301 1.396 . S
C300 C305 1.390 . S
C301 C295 1.465 . S
C301 C300 1.396 . S
C301 C302 1.399 . S
C302 H288 0.929 . S
C302 C301 1.399 . S
C302 C303 1.385 . S
C303 H289 0.930 1_455 S
C303 C302 1.385 . S
C303 C304 1.389 . S
C304 C303 1.389 . S
C304 C305 1.387 . S
C305 H290 0.930 . S
C305 C300 1.390 . S
C305 C304 1.387 . S
H306 C318 0.930 . S
H307 C320 0.930 . S
H308 C321 0.930 . S
H309 C325 0.959 . S
H310 C325 0.959 . S
H311 C325 0.961 . S
H312 C326 0.960 . S
H313 C326 0.961 1_565 S
H314 C326 0.959 . S
H315 C329 0.929 . S
H316 C330 0.931 . S
H317 C332 0.930 1_565 S
C318 H306 0.930 . S
C318 C319 1.399 . S
C318 C323 1.399 . S
C319 C318 1.399 . S
C319 C320 1.376 . S
C320 H307 0.930 . S
C320 C319 1.376 . S
C320 C321 1.388 . S
C321 H308 0.930 . S
C321 C320 1.388 . S
C321 C322 1.390 . S
C322 C321 1.390 . S
C322 C323 1.394 . S
C322 C328 1.465 . S
C323 C318 1.399 . S
C323 C322 1.394 . S
C323 C324 1.516 . S
C324 C323 1.516 . S
C324 C325 1.502 . S
C324 C326 1.561 . S
C324 C327 1.526 . S
C325 H309 0.959 . S
C325 H310 0.959 . S
C325 H311 0.961 . S
C325 C324 1.502 . S
C326 H312 0.960 . S
C326 H313 0.961 1_545 S
C326 H314 0.959 . S
C326 C324 1.561 . S
C327 C324 1.526 . S
C327 C328 1.396 . S
C327 C332 1.390 . S
C328 C322 1.465 . S
C328 C327 1.396 . S
C328 C329 1.399 . S
C329 H315 0.929 . S
C329 C328 1.399 . S
C329 C330 1.385 . S
C330 H316 0.931 . S
C330 C329 1.385 . S
C330 C331 1.389 . S
C331 C330 1.389 . S
C331 C332 1.387 . S
C332 H317 0.930 1_545 S
C332 C327 1.390 . S
C332 C331 1.387 . S
H333 C345 0.930 . S
H334 C347 0.930 . S
H335 C348 0.930 . S
H336 C352 0.959 . S
H337 C352 0.959 . S
H338 C352 0.961 . S
H339 C353 0.960 . S
H340 C353 0.961 . S
H341 C353 0.959 . S
H342 C356 0.929 . S
H343 C357 0.931 . S
H344 C359 0.930 . S
C345 H333 0.930 . S
C345 C346 1.399 . S
C345 C350 1.399 . S
C346 C345 1.399 . S
C346 C347 1.376 . S
C347 H334 0.930 . S
C347 C346 1.376 . S
C347 C348 1.388 . S
C348 H335 0.930 . S
C348 C347 1.388 . S
C348 C349 1.390 . S
C349 C348 1.390 . S
C349 C350 1.394 . S
C349 C355 1.465 . S
C350 C345 1.399 . S
C350 C349 1.394 . S
C350 C351 1.516 . S
C351 C350 1.516 . S
C351 C352 1.502 . S
C351 C353 1.561 . S
C351 C354 1.526 . S
C352 H336 0.959 . S
C352 H337 0.959 . S
C352 H338 0.961 . S
C352 C351 1.502 . S
C353 H339 0.960 . S
C353 H340 0.961 . S
C353 H341 0.959 . S
C353 C351 1.561 . S
C354 C351 1.526 . S
C354 C355 1.396 . S
C354 C359 1.390 . S
C355 C349 1.465 . S
C355 C354 1.396 . S
C355 C356 1.399 . S
C356 H342 0.929 . S
C356 C355 1.399 . S
C356 C357 1.385 . S
C357 H343 0.931 . S
C357 C356 1.385 . S
C357 C358 1.389 . S
C358 C357 1.389 . S
C358 C359 1.387 . S
C359 H344 0.930 . S
C359 C354 1.390 . S
C359 C358 1.387 . S
H360 C372 0.930 . S
H361 C374 0.930 . S
H362 C375 0.930 . S
H363 C379 0.959 . S
H364 C379 0.959 . S
H365 C379 0.961 . S
H366 C380 0.960 . S
H367 C380 0.961 . S
H368 C380 0.959 . S
H369 C383 0.929 . S
H370 C384 0.931 1_455 S
H371 C386 0.930 . S
C372 H360 0.930 . S
C372 C373 1.399 . S
C372 C377 1.399 . S
C373 C372 1.399 . S
C373 C374 1.376 . S
C374 H361 0.930 . S
C374 C373 1.376 . S
C374 C375 1.388 . S
C375 H362 0.930 . S
C375 C374 1.388 . S
C375 C376 1.390 . S
C376 C375 1.390 . S
C376 C377 1.394 . S
C376 C382 1.465 . S
C377 C372 1.399 . S
C377 C376 1.394 . S
C377 C378 1.516 . S
C378 C377 1.516 . S
C378 C379 1.502 . S
C378 C380 1.561 . S
C378 C381 1.526 . S
C379 H363 0.959 . S
C379 H364 0.959 . S
C379 H365 0.961 . S
C379 C378 1.502 . S
C380 H366 0.960 . S
C380 H367 0.961 . S
C380 H368 0.959 . S
C380 C378 1.561 . S
C381 C378 1.526 . S
C381 C382 1.396 . S
C381 C386 1.390 . S
C382 C376 1.465 . S
C382 C381 1.396 . S
C382 C383 1.399 . S
C383 H369 0.929 . S
C383 C382 1.399 . S
C383 C384 1.385 . S
C384 H370 0.931 1_655 S
C384 C383 1.385 . S
C384 C385 1.389 . S
C385 C384 1.389 . S
C385 C386 1.387 . S
C386 H371 0.930 . S
C386 C381 1.390 . S
C386 C385 1.387 . S
H387 C399 0.930 . S
H388 C401 0.930 . S
H389 C402 0.930 . S
H390 C406 0.959 . S
H391 C406 0.959 1_545 S
H392 C406 0.961 . S
H393 C407 0.960 . S
H394 C407 0.961 . S
H395 C407 0.959 . S
H396 C410 0.929 . S
H397 C411 0.931 . S
H398 C413 0.930 1_545 S
C399 H387 0.930 . S
C399 C400 1.399 . S
C399 C404 1.399 . S
C400 C399 1.399 . S
C400 C401 1.376 . S
C401 H388 0.930 . S
C401 C400 1.376 . S
C401 C402 1.388 . S
C402 H389 0.930 . S
C402 C401 1.388 . S
C402 C403 1.390 . S
C403 C402 1.390 . S
C403 C404 1.394 . S
C403 C409 1.465 . S
C404 C399 1.399 . S
C404 C403 1.394 . S
C404 C405 1.516 . S
C405 C404 1.516 . S
C405 C406 1.502 . S
C405 C407 1.561 . S
C405 C408 1.526 . S
C406 H390 0.959 . S
C406 H391 0.959 1_565 S
C406 H392 0.961 . S
C406 C405 1.502 . S
C407 H393 0.960 . S
C407 H394 0.961 . S
C407 H395 0.959 . S
C407 C405 1.561 . S
C408 C405 1.526 . S
C408 C409 1.396 . S
C408 C413 1.390 . S
C409 C403 1.465 . S
C409 C408 1.396 . S
C409 C410 1.399 . S
C410 H396 0.929 . S
C410 C409 1.399 . S
C410 C411 1.385 . S
C411 H397 0.931 . S
C411 C410 1.385 . S
C411 C412 1.389 . S
C412 C411 1.389 . S
C412 C413 1.387 . S
C413 H398 0.930 1_565 S
C413 C408 1.390 . S
C413 C412 1.387 . S
H414 C426 0.930 . S
H415 C428 0.930 . S
H416 C429 0.930 . S
H417 C433 0.959 . S
H418 C433 0.959 . S
H419 C433 0.961 . S
H420 C434 0.960 . S
H421 C434 0.961 . S
H422 C434 0.959 . S
H423 C437 0.929 . S
H424 C438 0.931 . S
H425 C440 0.930 . S
C426 H414 0.930 . S
C426 C427 1.399 . S
C426 C431 1.399 . S
C427 C426 1.399 . S
C427 C428 1.376 . S
C428 H415 0.930 . S
C428 C427 1.376 . S
C428 C429 1.388 . S
C429 H416 0.930 . S
C429 C428 1.388 . S
C429 C430 1.390 . S
C430 C429 1.390 . S
C430 C431 1.394 . S
C430 C436 1.465 . S
C431 C426 1.399 . S
C431 C430 1.394 . S
C431 C432 1.516 . S
C432 C431 1.516 . S
C432 C433 1.502 . S
C432 C434 1.561 . S
C432 C435 1.526 . S
C433 H417 0.959 . S
C433 H418 0.959 . S
C433 H419 0.961 . S
C433 C432 1.502 . S
C434 H420 0.960 . S
C434 H421 0.961 . S
C434 H422 0.959 . S
C434 C432 1.561 . S
C435 C432 1.526 . S
C435 C436 1.396 . S
C435 C440 1.390 . S
C436 C430 1.465 . S
C436 C435 1.396 . S
C436 C437 1.399 . S
C437 H423 0.929 . S
C437 C436 1.399 . S
C437 C438 1.385 . S
C438 H424 0.931 . S
C438 C437 1.385 . S
C438 C439 1.389 . S
C439 C438 1.389 . S
C439 C440 1.387 . S
C440 H425 0.930 . S
C440 C435 1.390 . S
C440 C439 1.387 . S
H441 C453 0.930 1_554 S
H442 C455 0.930 . S
H443 C456 0.930 . S
H444 C460 0.959 . S
H445 C460 0.959 . S
H446 C460 0.961 . S
H447 C461 0.960 . S
H448 C461 0.961 . S
H449 C461 0.959 . S
H450 C464 0.929 . S
H451 C465 0.931 . S
H452 C467 0.930 . S
C453 H441 0.930 1_556 S
C453 C454 1.399 . S
C453 C458 1.399 . S
C454 C453 1.399 . S
C454 C455 1.376 . S
C455 H442 0.930 . S
C455 C454 1.376 . S
C455 C456 1.388 . S
C456 H443 0.930 . S
C456 C455 1.388 . S
C456 C457 1.390 . S
C457 C456 1.390 . S
C457 C458 1.394 . S
C457 C463 1.465 . S
C458 C453 1.399 . S
C458 C457 1.394 . S
C458 C459 1.516 1_556 S
C459 C458 1.516 1_554 S
C459 C460 1.502 . S
C459 C461 1.561 . S
C459 C462 1.526 . S
C460 H444 0.959 . S
C460 H445 0.959 . S
C460 H446 0.961 . S
C460 C459 1.502 . S
C461 H447 0.960 . S
C461 H448 0.961 . S
C461 H449 0.959 . S
C461 C459 1.561 . S
C462 C459 1.526 . S
C462 C463 1.396 1_554 S
C462 C467 1.390 . S
C463 C457 1.465 . S
C463 C462 1.396 1_556 S
C463 C464 1.399 . S
C464 H450 0.929 . S
C464 C463 1.399 . S
C464 C465 1.385 . S
C465 H451 0.931 . S
C465 C464 1.385 . S
C465 C466 1.389 . S
C466 C465 1.389 . S
C466 C467 1.387 1_556 S
C467 H452 0.930 . S
C467 C462 1.390 . S
C467 C466 1.387 1_554 S
H468 C480 0.930 . S
H469 C482 0.930 . S
H470 C483 0.930 . S
H471 C487 0.959 . S
H472 C487 0.959 . S
H473 C487 0.961 . S
H474 C488 0.960 . S
H475 C488 0.961 . S
H476 C488 0.959 . S
H477 C491 0.929 . S
H478 C492 0.931 . S
H479 C494 0.930 . S
C480 H468 0.930 . S
C480 C481 1.399 . S
C480 C485 1.399 . S
C481 C480 1.399 . S
C481 C482 1.376 . S
C482 H469 0.930 . S
C482 C481 1.376 . S
C482 C483 1.388 . S
C483 H470 0.930 . S
C483 C482 1.388 . S
C483 C484 1.390 . S
C484 C483 1.390 . S
C484 C485 1.394 . S
C484 C490 1.465 . S
C485 C480 1.399 . S
C485 C484 1.394 . S
C485 C486 1.516 . S
C486 C485 1.516 . S
C486 C487 1.502 . S
C486 C488 1.561 . S
C486 C489 1.526 . S
C487 H471 0.959 . S
C487 H472 0.959 . S
C487 H473 0.961 . S
C487 C486 1.502 . S
C488 H474 0.960 . S
C488 H475 0.961 . S
C488 H476 0.959 . S
C488 C486 1.561 . S
C489 C486 1.526 . S
C489 C490 1.396 . S
C489 C494 1.390 . S
C490 C484 1.465 . S
C490 C489 1.396 . S
C490 C491 1.399 . S
C491 H477 0.929 . S
C491 C490 1.399 . S
C491 C492 1.385 . S
C492 H478 0.931 . S
C492 C491 1.385 . S
C492 C493 1.389 . S
C493 C492 1.389 . S
C493 C494 1.387 . S
C494 H479 0.930 . S
C494 C489 1.390 . S
C494 C493 1.387 . S
H495 C507 0.930 . S
H496 C509 0.930 . S
H497 C510 0.930 . S
H498 C514 0.959 . S
H499 C514 0.959 . S
H500 C514 0.961 . S
H501 C515 0.960 . S
H502 C515 0.961 . S
H503 C515 0.959 . S
H504 C518 0.929 . S
H505 C519 0.931 . S
H506 C521 0.930 . S
C507 H495 0.930 . S
C507 C508 1.399 . S
C507 C512 1.399 . S
C508 C507 1.399 . S
C508 C509 1.376 . S
C509 H496 0.930 . S
C509 C508 1.376 . S
C509 C510 1.388 . S
C510 H497 0.930 . S
C510 C509 1.388 . S
C510 C511 1.390 . S
C511 C510 1.390 . S
C511 C512 1.394 . S
C511 C517 1.465 . S
C512 C507 1.399 . S
C512 C511 1.394 . S
C512 C513 1.516 . S
C513 C512 1.516 . S
C513 C514 1.502 . S
C513 C515 1.561 . S
C513 C516 1.526 . S
C514 H498 0.959 . S
C514 H499 0.959 . S
C514 H500 0.961 . S
C514 C513 1.502 . S
C515 H501 0.960 . S
C515 H502 0.961 . S
C515 H503 0.959 . S
C515 C513 1.561 . S
C516 C513 1.526 . S
C516 C517 1.396 . S
C516 C521 1.390 . S
C517 C511 1.465 . S
C517 C516 1.396 . S
C517 C518 1.399 . S
C518 H504 0.929 . S
C518 C517 1.399 . S
C518 C519 1.385 . S
C519 H505 0.931 . S
C519 C518 1.385 . S
C519 C520 1.389 . S
C520 C519 1.389 . S
C520 C521 1.387 . S
C521 H506 0.930 . S
C521 C516 1.390 . S
C521 C520 1.387 . S
H522 C534 0.930 . S
H523 C536 0.930 . S
H524 C537 0.930 . S
H525 C541 0.959 . S
H526 C541 0.959 . S
H527 C541 0.952 1_455 S
H528 C542 0.960 . S
H529 C542 0.961 . S
H530 C542 0.959 . S
H531 C545 0.929 . S
H532 C546 0.931 . S
H533 C548 0.930 . S
C534 H522 0.930 . S
C534 C535 1.399 . S
C534 C539 1.399 . S
C535 C534 1.399 . S
C535 C536 1.376 . S
C536 H523 0.930 . S
C536 C535 1.376 . S
C536 C537 1.388 . S
C537 H524 0.930 . S
C537 C536 1.388 . S
C537 C538 1.390 . S
C538 C537 1.390 . S
C538 C539 1.394 . S
C538 C544 1.465 . S
C539 C534 1.399 . S
C539 C538 1.394 . S
C539 C540 1.516 . S
C540 C539 1.516 . S
C540 C541 1.502 . S
C540 C542 1.561 . S
C540 C543 1.526 . S
C541 H525 0.959 . S
C541 H526 0.959 . S
C541 H527 0.952 1_655 S
C541 C540 1.502 . S
C542 H528 0.960 . S
C542 H529 0.961 . S
C542 H530 0.959 . S
C542 C540 1.561 . S
C543 C540 1.526 . S
C543 C544 1.396 . S
C543 C548 1.390 . S
C544 C538 1.465 . S
C544 C543 1.396 . S
C544 C545 1.399 . S
C545 H531 0.929 . S
C545 C544 1.399 . S
C545 C546 1.385 . S
C546 H532 0.931 . S
C546 C545 1.385 . S
C546 C547 1.389 . S
C547 C546 1.389 . S
C547 C548 1.387 . S
C548 H533 0.930 . S
C548 C543 1.390 . S
C548 C547 1.387 . S
H549 C561 0.930 . S
H550 C563 0.930 1_545 S
H551 C564 0.930 . S
H552 C568 0.959 . S
H553 C568 0.959 . S
H554 C568 0.961 . S
H555 C569 0.960 . S
H556 C569 0.961 . S
H557 C569 0.959 . S
H558 C572 0.929 . S
H559 C573 0.931 . S
H560 C575 0.930 . S
C561 H549 0.930 . S
C561 C562 1.399 . S
C561 C566 1.399 . S
C562 C561 1.399 . S
C562 C563 1.376 . S
C563 H550 0.930 1_565 S
C563 C562 1.376 . S
C563 C564 1.388 . S
C564 H551 0.930 . S
C564 C563 1.388 . S
C564 C565 1.390 . S
C565 C564 1.390 . S
C565 C566 1.394 . S
C565 C571 1.465 . S
C566 C561 1.399 . S
C566 C565 1.394 . S
C566 C567 1.516 . S
C567 C566 1.516 . S
C567 C568 1.502 . S
C567 C569 1.561 . S
C567 C570 1.526 . S
C568 H552 0.959 . S
C568 H553 0.959 . S
C568 H554 0.961 . S
C568 C567 1.502 . S
C569 H555 0.960 . S
C569 H556 0.961 . S
C569 H557 0.959 . S
C569 C567 1.561 . S
C570 C567 1.526 . S
C570 C571 1.396 . S
C570 C575 1.390 . S
C571 C565 1.465 . S
C571 C570 1.396 . S
C571 C572 1.399 . S
C572 H558 0.929 . S
C572 C571 1.399 . S
C572 C573 1.385 . S
C573 H559 0.931 . S
C573 C572 1.385 . S
C573 C574 1.389 . S
C574 C573 1.389 . S
C574 C575 1.387 . S
C575 H560 0.930 . S
C575 C570 1.390 . S
C575 C574 1.387 . S
H576 C588 0.930 . S
H577 C590 0.930 . S
H578 C591 0.930 . S
H579 C595 0.959 . S
H580 C595 0.959 . S
H581 C595 0.961 . S
H582 C596 0.960 . S
H583 C596 0.961 . S
H584 C596 0.959 . S
H585 C599 0.929 . S
H586 C600 0.931 . S
H587 C602 0.930 . S
C588 H576 0.930 . S
C588 C589 1.399 . S
C588 C593 1.399 . S
C589 C588 1.399 . S
C589 C590 1.376 . S
C590 H577 0.930 . S
C590 C589 1.376 . S
C590 C591 1.388 . S
C591 H578 0.930 . S
C591 C590 1.388 . S
C591 C592 1.390 . S
C592 C591 1.390 . S
C592 C593 1.394 . S
C592 C598 1.465 . S
C593 C588 1.399 . S
C593 C592 1.394 . S
C593 C594 1.516 . S
C594 C593 1.516 . S
C594 C595 1.502 . S
C594 C596 1.561 . S
C594 C597 1.526 . S
C595 H579 0.959 . S
C595 H580 0.959 . S
C595 H581 0.961 . S
C595 C594 1.502 . S
C596 H582 0.960 . S
C596 H583 0.961 . S
C596 H584 0.959 . S
C596 C594 1.561 . S
C597 C594 1.526 . S
C597 C598 1.396 . S
C597 C602 1.390 . S
C598 C592 1.465 . S
C598 C597 1.396 . S
C598 C599 1.399 . S
C599 H585 0.929 . S
C599 C598 1.399 . S
C599 C600 1.385 . S
C600 H586 0.931 . S
C600 C599 1.385 . S
C600 C601 1.389 . S
C601 C600 1.389 . S
C601 C602 1.387 . S
C602 H587 0.930 . S
C602 C597 1.390 . S
C602 C601 1.387 . S
H603 C615 0.930 . S
H604 C617 0.930 . S
H605 C618 0.930 . S
H606 C622 0.959 . S
H607 C622 0.959 . S
H608 C622 0.961 . S
H609 C623 0.960 . S
H610 C623 0.961 . S
H611 C623 0.959 . S
H612 C626 0.929 . S
H613 C627 0.931 . S
H614 C629 0.930 . S
C615 H603 0.930 . S
C615 C616 1.399 . S
C615 C620 1.399 . S
C616 C615 1.399 . S
C616 C617 1.376 . S
C617 H604 0.930 . S
C617 C616 1.376 . S
C617 C618 1.388 . S
C618 H605 0.930 . S
C618 C617 1.388 . S
C618 C619 1.390 . S
C619 C618 1.390 . S
C619 C620 1.394 . S
C619 C625 1.465 . S
C620 C615 1.399 . S
C620 C619 1.394 . S
C620 C621 1.516 . S
C621 C620 1.516 . S
C621 C622 1.502 . S
C621 C623 1.561 . S
C621 C624 1.526 . S
C622 H606 0.959 . S
C622 H607 0.959 . S
C622 H608 0.961 . S
C622 C621 1.502 . S
C623 H609 0.960 . S
C623 H610 0.961 . S
C623 H611 0.959 . S
C623 C621 1.561 . S
C624 C621 1.526 . S
C624 C625 1.396 . S
C624 C629 1.390 . S
C625 C619 1.465 . S
C625 C624 1.396 . S
C625 C626 1.399 . S
C626 H612 0.929 . S
C626 C625 1.399 . S
C626 C627 1.385 . S
C627 H613 0.931 . S
C627 C626 1.385 . S
C627 C628 1.389 . S
C628 C627 1.389 . S
C628 C629 1.387 . S
C629 H614 0.930 . S
C629 C624 1.390 . S
C629 C628 1.387 . S
H630 C642 0.930 . S
H631 C644 0.930 . S
H632 C645 0.930 . S
H633 C649 0.959 . S
H634 C649 0.959 . S
H635 C649 0.961 . S
H636 C650 0.960 . S
H637 C650 0.961 1_565 S
H638 C650 0.959 . S
H639 C653 0.929 . S
H640 C654 0.931 . S
H641 C656 0.930 . S
C642 H630 0.930 . S
C642 C643 1.399 . S
C642 C647 1.399 . S
C643 C642 1.399 . S
C643 C644 1.376 . S
C644 H631 0.930 . S
C644 C643 1.376 . S
C644 C645 1.388 . S
C645 H632 0.930 . S
C645 C644 1.388 . S
C645 C646 1.390 . S
C646 C645 1.390 . S
C646 C647 1.394 . S
C646 C652 1.465 . S
C647 C642 1.399 . S
C647 C646 1.394 . S
C647 C648 1.516 . S
C648 C647 1.516 . S
C648 C649 1.502 . S
C648 C650 1.561 . S
C648 C651 1.526 . S
C649 H633 0.959 . S
C649 H634 0.959 . S
C649 H635 0.961 . S
C649 C648 1.502 . S
C650 H636 0.960 . S
C650 H637 0.961 1_545 S
C650 H638 0.959 . S
C650 C648 1.561 . S
C651 C648 1.526 . S
C651 C652 1.396 . S
C651 C656 1.390 . S
C652 C646 1.465 . S
C652 C651 1.396 . S
C652 C653 1.399 . S
C653 H639 0.929 . S
C653 C652 1.399 . S
C653 C654 1.385 . S
C654 H640 0.931 . S
C654 C653 1.385 . S
C654 C655 1.389 . S
C655 C654 1.389 . S
C655 C656 1.387 . S
C656 H641 0.930 . S
C656 C651 1.390 . S
C656 C655 1.387 . S
H657 C669 0.930 . S
H658 C671 0.930 . S
H659 C672 0.930 . S
H660 C676 0.959 . S
H661 C676 0.959 . S
H662 C676 0.961 . S
H663 C677 0.960 . S
H664 C677 0.961 . S
H665 C677 0.959 . S
H666 C680 0.929 . S
H667 C681 0.931 . S
H668 C683 0.930 . S
C669 H657 0.930 . S
C669 C670 1.399 . S
C669 C674 1.399 . S
C670 C669 1.399 . S
C670 C671 1.376 . S
C671 H658 0.930 . S
C671 C670 1.376 . S
C671 C672 1.388 . S
C672 H659 0.930 . S
C672 C671 1.388 . S
C672 C673 1.390 . S
C673 C672 1.390 . S
C673 C674 1.394 . S
C673 C679 1.465 . S
C674 C669 1.399 . S
C674 C673 1.394 . S
C674 C675 1.516 . S
C675 C674 1.516 . S
C675 C676 1.502 . S
C675 C677 1.561 . S
C675 C678 1.526 . S
C676 H660 0.959 . S
C676 H661 0.959 . S
C676 H662 0.961 . S
C676 C675 1.502 . S
C677 H663 0.960 . S
C677 H664 0.961 . S
C677 H665 0.959 . S
C677 C675 1.561 . S
C678 C675 1.526 . S
C678 C679 1.396 . S
C678 C683 1.390 . S
C679 C673 1.465 . S
C679 C678 1.396 . S
C679 C680 1.399 . S
C680 H666 0.929 . S
C680 C679 1.399 . S
C680 C681 1.385 . S
C681 H667 0.931 . S
C681 C680 1.385 . S
C681 C682 1.389 . S
C682 C681 1.389 . S
C682 C683 1.387 . S
C683 H668 0.930 . S
C683 C678 1.390 . S
C683 C682 1.387 . S
H684 C696 0.930 . S
H685 C698 0.930 . S
H686 C699 0.930 . S
H687 C703 0.959 . S
H688 C703 0.959 . S
H689 C703 0.961 . S
H690 C704 0.960 . S
H691 C704 0.961 . S
H692 C704 0.959 . S
H693 C707 0.929 . S
H694 C708 0.931 1_455 S
H695 C710 0.930 . S
C696 H684 0.930 . S
C696 C697 1.399 . S
C696 C701 1.399 . S
C697 C696 1.399 . S
C697 C698 1.376 . S
C698 H685 0.930 . S
C698 C697 1.376 . S
C698 C699 1.388 . S
C699 H686 0.930 . S
C699 C698 1.388 . S
C699 C700 1.390 . S
C700 C699 1.390 . S
C700 C701 1.394 . S
C700 C706 1.465 . S
C701 C696 1.399 . S
C701 C700 1.394 . S
C701 C702 1.516 . S
C702 C701 1.516 . S
C702 C703 1.502 . S
C702 C704 1.561 . S
C702 C705 1.526 . S
C703 H687 0.959 . S
C703 H688 0.959 . S
C703 H689 0.961 . S
C703 C702 1.502 . S
C704 H690 0.960 . S
C704 H691 0.961 . S
C704 H692 0.959 . S
C704 C702 1.561 . S
C705 C702 1.526 . S
C705 C706 1.396 . S
C705 C710 1.390 . S
C706 C700 1.465 . S
C706 C705 1.396 . S
C706 C707 1.399 . S
C707 H693 0.929 . S
C707 C706 1.399 . S
C707 C708 1.385 . S
C708 H694 0.931 1_655 S
C708 C707 1.385 . S
C708 C709 1.389 . S
C709 C708 1.389 . S
C709 C710 1.387 . S
C710 H695 0.930 . S
C710 C705 1.390 . S
C710 C709 1.387 . S
H711 C723 0.930 1_545 S
H712 C725 0.930 . S
H713 C726 0.930 . S
H714 C730 0.959 . S
H715 C730 0.959 . S
H716 C730 0.961 1_545 S
H717 C731 0.960 1_545 S
H718 C731 0.961 . S
H719 C731 0.959 . S
H720 C734 0.929 . S
H721 C735 0.931 . S
H722 C737 0.930 . S
C723 H711 0.930 1_565 S
C723 C724 1.399 . S
C723 C728 1.399 . S
C724 C723 1.399 . S
C724 C725 1.376 . S
C725 H712 0.930 . S
C725 C724 1.376 . S
C725 C726 1.388 . S
C726 H713 0.930 . S
C726 C725 1.388 . S
C726 C727 1.390 . S
C727 C726 1.390 . S
C727 C728 1.394 . S
C727 C733 1.465 . S
C728 C723 1.399 . S
C728 C727 1.394 . S
C728 C729 1.516 . S
C729 C728 1.516 . S
C729 C730 1.502 . S
C729 C731 1.561 . S
C729 C732 1.526 . S
C730 H714 0.959 . S
C730 H715 0.959 . S
C730 H716 0.961 1_565 S
C730 C729 1.502 . S
C731 H717 0.960 1_565 S
C731 H718 0.961 . S
C731 H719 0.959 . S
C731 C729 1.561 . S
C732 C729 1.526 . S
C732 C733 1.396 . S
C732 C737 1.390 . S
C733 C727 1.465 . S
C733 C732 1.396 . S
C733 C734 1.399 . S
C734 H720 0.929 . S
C734 C733 1.399 . S
C734 C735 1.385 . S
C735 H721 0.931 . S
C735 C734 1.385 . S
C735 C736 1.389 . S
C736 C735 1.389 . S
C736 C737 1.387 . S
C737 H722 0.930 . S
C737 C732 1.390 . S
C737 C736 1.387 . S
H738 C750 0.930 . S
H739 C752 0.930 . S
H740 C753 0.930 . S
H741 C757 0.959 . S
H742 C757 0.959 . S
H743 C757 0.961 . S
H744 C758 0.960 . S
H745 C758 0.961 . S
H746 C758 0.959 . S
H747 C761 0.929 . S
H748 C762 0.931 . S
H749 C764 0.930 . S
C750 H738 0.930 . S
C750 C751 1.399 . S
C750 C755 1.399 . S
C751 C750 1.399 . S
C751 C752 1.376 . S
C752 H739 0.930 . S
C752 C751 1.376 . S
C752 C753 1.388 . S
C753 H740 0.930 . S
C753 C752 1.388 . S
C753 C754 1.390 . S
C754 C753 1.390 . S
C754 C755 1.394 . S
C754 C760 1.465 . S
C755 C750 1.399 . S
C755 C754 1.394 . S
C755 C756 1.516 . S
C756 C755 1.516 . S
C756 C757 1.502 . S
C756 C758 1.561 . S
C756 C759 1.526 . S
C757 H741 0.959 . S
C757 H742 0.959 . S
C757 H743 0.961 . S
C757 C756 1.502 . S
C758 H744 0.960 . S
C758 H745 0.961 . S
C758 H746 0.959 . S
C758 C756 1.561 . S
C759 C756 1.526 . S
C759 C760 1.396 . S
C759 C764 1.390 . S
C760 C754 1.465 . S
C760 C759 1.396 . S
C760 C761 1.399 . S
C761 H747 0.929 . S
C761 C760 1.399 . S
C761 C762 1.385 . S
C762 H748 0.931 . S
C762 C761 1.385 . S
C762 C763 1.389 . S
C763 C762 1.389 . S
C763 C764 1.387 . S
C764 H749 0.930 . S
C764 C759 1.390 . S
C764 C763 1.387 . S
H765 C777 0.930 . S
H766 C779 0.930 . S
H767 C780 0.930 . S
H768 C784 0.959 . S
H769 C784 0.959 . S
H770 C784 0.961 . S
H771 C785 0.960 . S
H772 C785 0.961 . S
H773 C785 0.959 . S
H774 C788 0.929 . S
H775 C789 0.931 . S
H776 C791 0.930 . S
C777 H765 0.930 . S
C777 C778 1.399 . S
C777 C782 1.399 . S
C778 C777 1.399 . S
C778 C779 1.376 . S
C779 H766 0.930 . S
C779 C778 1.376 . S
C779 C780 1.388 . S
C780 H767 0.930 . S
C780 C779 1.388 . S
C780 C781 1.390 . S
C781 C780 1.390 . S
C781 C782 1.394 . S
C781 C787 1.465 . S
C782 C777 1.399 . S
C782 C781 1.394 . S
C782 C783 1.516 . S
C783 C782 1.516 . S
C783 C784 1.502 . S
C783 C785 1.561 . S
C783 C786 1.526 . S
C784 H768 0.959 . S
C784 H769 0.959 . S
C784 H770 0.961 . S
C784 C783 1.502 . S
C785 H771 0.960 . S
C785 H772 0.961 . S
C785 H773 0.959 . S
C785 C783 1.561 . S
C786 C783 1.526 . S
C786 C787 1.396 . S
C786 C791 1.390 . S
C787 C781 1.465 . S
C787 C786 1.396 . S
C787 C788 1.399 . S
C788 H774 0.929 . S
C788 C787 1.399 . S
C788 C789 1.385 . S
C789 H775 0.931 . S
C789 C788 1.385 . S
C789 C790 1.389 . S
C790 C789 1.389 . S
C790 C791 1.387 . S
C791 H776 0.930 . S
C791 C786 1.390 . S
C791 C790 1.387 . S
H792 C804 0.930 . S
H793 C806 0.930 . S
H794 C807 0.930 . S
H795 C811 0.959 . S
H796 C811 0.959 . S
H797 C811 0.961 . S
H798 C812 0.960 1_565 S
H799 C812 0.961 . S
H800 C812 0.959 . S
H801 C815 0.929 . S
H802 C816 0.931 . S
H803 C818 0.930 . S
C804 H792 0.930 . S
C804 C805 1.399 . S
C804 C809 1.399 . S
C805 C804 1.399 . S
C805 C806 1.376 . S
C806 H793 0.930 . S
C806 C805 1.376 . S
C806 C807 1.388 . S
C807 H794 0.930 . S
C807 C806 1.388 . S
C807 C808 1.390 . S
C808 C807 1.390 . S
C808 C809 1.394 . S
C808 C814 1.465 . S
C809 C804 1.399 . S
C809 C808 1.394 . S
C809 C810 1.516 . S
C810 C809 1.516 . S
C810 C811 1.502 . S
C810 C812 1.561 . S
C810 C813 1.526 . S
C811 H795 0.959 . S
C811 H796 0.959 . S
C811 H797 0.961 . S
C811 C810 1.502 . S
C812 H798 0.960 1_545 S
C812 H799 0.961 . S
C812 H800 0.959 . S
C812 C810 1.561 . S
C813 C810 1.526 . S
C813 C814 1.396 . S
C813 C818 1.390 . S
C814 C808 1.465 . S
C814 C813 1.396 . S
C814 C815 1.399 . S
C815 H801 0.929 . S
C815 C814 1.399 . S
C815 C816 1.385 . S
C816 H802 0.931 . S
C816 C815 1.385 . S
C816 C817 1.389 . S
C817 C816 1.389 . S
C817 C818 1.387 . S
C818 H803 0.930 . S
C818 C813 1.390 . S
C818 C817 1.387 . S
H819 C831 0.930 . S
H820 C833 0.930 . S
H821 C834 0.930 . S
H822 C838 0.959 . S
H823 C838 0.959 . S
H824 C838 0.961 . S
H825 C839 0.960 . S
H826 C839 0.961 . S
H827 C839 0.959 . S
H828 C842 0.929 . S
H829 C843 0.931 . S
H830 C845 0.930 . S
C831 H819 0.930 . S
C831 C832 1.399 . S
C831 C836 1.399 . S
C832 C831 1.399 . S
C832 C833 1.376 . S
C833 H820 0.930 . S
C833 C832 1.376 . S
C833 C834 1.388 . S
C834 H821 0.930 . S
C834 C833 1.388 . S
C834 C835 1.390 . S
C835 C834 1.390 . S
C835 C836 1.394 . S
C835 C841 1.465 . S
C836 C831 1.399 . S
C836 C835 1.394 . S
C836 C837 1.516 . S
C837 C836 1.516 . S
C837 C838 1.502 . S
C837 C839 1.561 . S
C837 C840 1.526 . S
C838 H822 0.959 . S
C838 H823 0.959 . S
C838 H824 0.961 . S
C838 C837 1.502 . S
C839 H825 0.960 . S
C839 H826 0.961 . S
C839 H827 0.959 . S
C839 C837 1.561 . S
C840 C837 1.526 . S
C840 C841 1.396 . S
C840 C845 1.390 . S
C841 C835 1.465 . S
C841 C840 1.396 . S
C841 C842 1.399 . S
C842 H828 0.929 . S
C842 C841 1.399 . S
C842 C843 1.385 . S
C843 H829 0.931 . S
C843 C842 1.385 . S
C843 C844 1.389 . S
C844 C843 1.389 . S
C844 C845 1.387 . S
C845 H830 0.930 . S
C845 C840 1.390 . S
C845 C844 1.387 . S
H846 C858 0.930 . S
H847 C860 0.930 . S
H848 C861 0.930 . S
H849 C865 0.959 . S
H850 C865 0.959 . S
H851 C865 0.961 1_455 S
H852 C866 0.960 . S
H853 C866 0.961 . S
H854 C866 0.959 . S
H855 C869 0.929 . S
H856 C870 0.931 . S
H857 C872 0.930 . S
C858 H846 0.930 . S
C858 C859 1.399 . S
C858 C863 1.399 . S
C859 C858 1.399 . S
C859 C860 1.376 . S
C860 H847 0.930 . S
C860 C859 1.376 . S
C860 C861 1.388 . S
C861 H848 0.930 . S
C861 C860 1.388 . S
C861 C862 1.390 . S
C862 C861 1.390 . S
C862 C863 1.394 . S
C862 C868 1.465 . S
C863 C858 1.399 . S
C863 C862 1.394 . S
C863 C864 1.516 . S
C864 C863 1.516 . S
C864 C865 1.502 . S
C864 C866 1.561 . S
C864 C867 1.526 . S
C865 H849 0.959 . S
C865 H850 0.959 . S
C865 H851 0.961 1_655 S
C865 C864 1.502 . S
C866 H852 0.960 . S
C866 H853 0.961 . S
C866 H854 0.959 . S
C866 C864 1.561 . S
C867 C864 1.526 . S
C867 C868 1.396 . S
C867 C872 1.390 . S
C868 C862 1.465 . S
C868 C867 1.396 . S
C868 C869 1.399 . S
C869 H855 0.929 . S
C869 C868 1.399 . S
C869 C870 1.385 . S
C870 H856 0.931 . S
C870 C869 1.385 . S
C870 C871 1.389 . S
C871 C870 1.389 . S
C871 C872 1.387 . S
C872 H857 0.930 . S
C872 C867 1.390 . S
C872 C871 1.387 . S
H873 C885 0.930 . S
H874 C887 0.930 . S
H875 C888 0.930 . S
H876 C892 0.959 . S
H877 C892 0.959 1_545 S
H878 C892 0.961 . S
H879 C893 0.960 . S
H880 C893 0.961 1_545 S
H881 C893 0.959 . S
H882 C896 0.929 . S
H883 C897 0.931 . S
H884 C899 0.930 1_545 S
C885 H873 0.930 . S
C885 C886 1.399 . S
C885 C890 1.399 . S
C886 C885 1.399 . S
C886 C887 1.376 . S
C887 H874 0.930 . S
C887 C886 1.376 . S
C887 C888 1.388 . S
C888 H875 0.930 . S
C888 C887 1.388 . S
C888 C889 1.390 . S
C889 C888 1.390 . S
C889 C890 1.394 . S
C889 C895 1.465 . S
C890 C885 1.399 . S
C890 C889 1.394 . S
C890 C891 1.516 . S
C891 C890 1.516 . S
C891 C892 1.502 . S
C891 C893 1.561 . S
C891 C894 1.526 . S
C892 H876 0.959 . S
C892 H877 0.959 1_565 S
C892 H878 0.961 . S
C892 C891 1.502 . S
C893 H879 0.960 . S
C893 H880 0.961 1_565 S
C893 H881 0.959 . S
C893 C891 1.561 . S
C894 C891 1.526 . S
C894 C895 1.396 . S
C894 C899 1.390 . S
C895 C889 1.465 . S
C895 C894 1.396 . S
C895 C896 1.399 . S
C896 H882 0.929 . S
C896 C895 1.399 . S
C896 C897 1.385 . S
C897 H883 0.931 . S
C897 C896 1.385 . S
C897 C898 1.389 . S
C898 C897 1.389 . S
C898 C899 1.387 . S
C899 H884 0.930 1_565 S
C899 C894 1.390 . S
C899 C898 1.387 . S
H900 C912 0.930 . S
H901 C914 0.930 . S
H902 C915 0.930 . S
H903 C919 0.959 . S
H904 C919 0.959 . S
H905 C919 0.961 . S
H906 C920 0.960 . S
H907 C920 0.961 . S
H908 C920 0.959 . S
H909 C923 0.929 . S
H910 C924 0.931 . S
H911 C926 0.930 . S
C912 H900 0.930 . S
C912 C913 1.399 . S
C912 C917 1.399 . S
C913 C912 1.399 . S
C913 C914 1.376 . S
C914 H901 0.930 . S
C914 C913 1.376 . S
C914 C915 1.388 . S
C915 H902 0.930 . S
C915 C914 1.388 . S
C915 C916 1.390 . S
C916 C915 1.390 . S
C916 C917 1.394 . S
C916 C922 1.465 . S
C917 C912 1.399 . S
C917 C916 1.394 . S
C917 C918 1.516 . S
C918 C917 1.516 . S
C918 C919 1.502 . S
C918 C920 1.561 . S
C918 C921 1.526 . S
C919 H903 0.959 . S
C919 H904 0.959 . S
C919 H905 0.961 . S
C919 C918 1.502 . S
C920 H906 0.960 . S
C920 H907 0.961 . S
C920 H908 0.959 . S
C920 C918 1.561 . S
C921 C918 1.526 . S
C921 C922 1.396 . S
C921 C926 1.390 . S
C922 C916 1.465 . S
C922 C921 1.396 . S
C922 C923 1.399 . S
C923 H909 0.929 . S
C923 C922 1.399 . S
C923 C924 1.385 . S
C924 H910 0.931 . S
C924 C923 1.385 . S
C924 C925 1.389 . S
C925 C924 1.389 . S
C925 C926 1.387 . S
C926 H911 0.930 . S
C926 C921 1.390 . S
C926 C925 1.387 . S
H927 C939 0.930 . S
H928 C941 0.930 . S
H929 C942 0.930 . S
H930 C946 0.959 . S
H931 C946 0.959 . S
H932 C946 0.961 . S
H933 C947 0.960 . S
H934 C947 0.961 . S
H935 C947 0.959 . S
H936 C950 0.929 . S
H937 C951 0.931 . S
H938 C953 0.930 . S
C939 H927 0.930 . S
C939 C940 1.399 . S
C939 C944 1.399 . S
C940 C939 1.399 . S
C940 C941 1.376 . S
C941 H928 0.930 . S
C941 C940 1.376 . S
C941 C942 1.388 . S
C942 H929 0.930 . S
C942 C941 1.388 . S
C942 C943 1.390 . S
C943 C942 1.390 . S
C943 C944 1.394 . S
C943 C949 1.465 . S
C944 C939 1.399 . S
C944 C943 1.394 . S
C944 C945 1.516 . S
C945 C944 1.516 . S
C945 C946 1.502 . S
C945 C947 1.561 . S
C945 C948 1.526 . S
C946 H930 0.959 . S
C946 H931 0.959 . S
C946 H932 0.961 . S
C946 C945 1.502 . S
C947 H933 0.960 . S
C947 H934 0.961 . S
C947 H935 0.959 . S
C947 C945 1.561 . S
C948 C945 1.526 . S
C948 C949 1.396 . S
C948 C953 1.390 . S
C949 C943 1.465 . S
C949 C948 1.396 . S
C949 C950 1.399 . S
C950 H936 0.929 . S
C950 C949 1.399 . S
C950 C951 1.385 . S
C951 H937 0.931 . S
C951 C950 1.385 . S
C951 C952 1.389 . S
C952 C951 1.389 . S
C952 C953 1.387 . S
C953 H938 0.930 . S
C953 C948 1.390 . S
C953 C952 1.387 . S
H954 C966 0.930 . S
H955 C968 0.930 . S
H956 C969 0.930 . S
H957 C973 0.959 . S
H958 C973 0.959 . S
H959 C973 0.961 . S
H960 C974 0.960 . S
H961 C974 0.961 . S
H962 C974 0.959 . S
H963 C977 0.929 . S
H964 C978 0.931 . S
H965 C980 0.930 . S
C966 H954 0.930 . S
C966 C967 1.399 . S
C966 C971 1.399 . S
C967 C966 1.399 . S
C967 C968 1.376 . S
C968 H955 0.930 . S
C968 C967 1.376 . S
C968 C969 1.388 . S
C969 H956 0.930 . S
C969 C968 1.388 . S
C969 C970 1.390 . S
C970 C969 1.390 . S
C970 C971 1.394 . S
C970 C976 1.465 . S
C971 C966 1.399 . S
C971 C970 1.394 . S
C971 C972 1.516 . S
C972 C971 1.516 . S
C972 C973 1.502 . S
C972 C974 1.561 . S
C972 C975 1.526 . S
C973 H957 0.959 . S
C973 H958 0.959 . S
C973 H959 0.961 . S
C973 C972 1.502 . S
C974 H960 0.960 . S
C974 H961 0.961 . S
C974 H962 0.959 . S
C974 C972 1.561 . S
C975 C972 1.526 . S
C975 C976 1.396 . S
C975 C980 1.390 . S
C976 C970 1.465 . S
C976 C975 1.396 . S
C976 C977 1.399 . S
C977 H963 0.929 . S
C977 C976 1.399 . S
C977 C978 1.385 . S
C978 H964 0.931 . S
C978 C977 1.385 . S
C978 C979 1.389 . S
C979 C978 1.389 . S
C979 C980 1.387 . S
C980 H965 0.930 . S
C980 C975 1.390 . S
C980 C979 1.387 . S
H981 C993 0.930 . S
H982 C995 0.930 . S
H983 C996 0.930 . S
H984 C1000 0.959 . S
H985 C1000 0.959 . S
H986 C1000 0.961 . S
H987 C1001 0.960 . S
H988 C1001 0.961 . S
H989 C1001 0.959 . S
H990 C1004 0.929 . S
H991 C1005 0.931 . S
H992 C1007 0.930 . S
C993 H981 0.930 . S
C993 C994 1.399 . S
C993 C998 1.399 . S
C994 C993 1.399 . S
C994 C995 1.376 . S
C995 H982 0.930 . S
C995 C994 1.376 . S
C995 C996 1.388 . S
C996 H983 0.930 . S
C996 C995 1.388 . S
C996 C997 1.390 . S
C997 C996 1.390 . S
C997 C998 1.394 . S
C997 C1003 1.465 . S
C998 C993 1.399 . S
C998 C997 1.394 . S
C998 C999 1.516 . S
C999 C998 1.516 . S
C999 C1000 1.502 . S
C999 C1001 1.561 . S
C999 C1002 1.526 . S
C1000 H984 0.959 . S
C1000 H985 0.959 . S
C1000 H986 0.961 . S
C1000 C999 1.502 . S
C1001 H987 0.960 . S
C1001 H988 0.961 . S
C1001 H989 0.959 . S
C1001 C999 1.561 . S
C1002 C999 1.526 . S
C1002 C1003 1.396 . S
C1002 C1007 1.390 . S
C1003 C997 1.465 . S
C1003 C1002 1.396 . S
C1003 C1004 1.399 . S
C1004 H990 0.929 . S
C1004 C1003 1.399 . S
C1004 C1005 1.385 . S
C1005 H991 0.931 . S
C1005 C1004 1.385 . S
C1005 C1006 1.389 . S
C1006 C1005 1.389 . S
C1006 C1007 1.387 . S
C1007 H992 0.930 . S
C1007 C1002 1.390 . S
C1007 C1006 1.387 . S
H1008 C1020 0.930 . S
H1009 C1022 0.930 . S
H1010 C1023 0.930 . S
H1011 C1027 0.959 . S
H1012 C1027 0.959 . S
H1013 C1027 0.961 . S
H1014 C1028 0.960 . S
H1015 C1028 0.961 . S
H1016 C1028 0.959 . S
H1017 C1031 0.929 . S
H1018 C1032 0.931 . S
H1019 C1034 0.930 . S
C1020 H1008 0.930 . S
C1020 C1021 1.399 . S
C1020 C1025 1.399 . S
C1021 C1020 1.399 . S
C1021 C1022 1.376 . S
C1022 H1009 0.930 . S
C1022 C1021 1.376 . S
C1022 C1023 1.388 . S
C1023 H1010 0.930 . S
C1023 C1022 1.388 . S
C1023 C1024 1.390 . S
C1024 C1023 1.390 . S
C1024 C1025 1.394 . S
C1024 C1030 1.465 . S
C1025 C1020 1.399 . S
C1025 C1024 1.394 . S
C1025 C1026 1.516 . S
C1026 C1025 1.516 . S
C1026 C1027 1.502 . S
C1026 C1028 1.561 . S
C1026 C1029 1.526 . S
C1027 H1011 0.959 . S
C1027 H1012 0.959 . S
C1027 H1013 0.961 . S
C1027 C1026 1.502 . S
C1028 H1014 0.960 . S
C1028 H1015 0.961 . S
C1028 H1016 0.959 . S
C1028 C1026 1.561 . S
C1029 C1026 1.526 . S
C1029 C1030 1.396 . S
C1029 C1034 1.390 . S
C1030 C1024 1.465 . S
C1030 C1029 1.396 . S
C1030 C1031 1.399 . S
C1031 H1017 0.929 . S
C1031 C1030 1.399 . S
C1031 C1032 1.385 . S
C1032 H1018 0.931 . S
C1032 C1031 1.385 . S
C1032 C1033 1.389 . S
C1033 C1032 1.389 . S
C1033 C1034 1.387 . S
C1034 H1019 0.930 . S
C1034 C1029 1.390 . S
C1034 C1033 1.387 . S
H1035 C1047 0.930 . S
H1036 C1049 0.930 . S
H1037 C1050 0.930 . S
H1038 C1054 0.959 . S
H1039 C1054 0.959 . S
H1040 C1054 0.961 . S
H1041 C1055 0.960 . S
H1042 C1055 0.961 . S
H1043 C1055 0.959 . S
H1044 C1058 0.929 . S
H1045 C1059 0.931 . S
H1046 C1061 0.930 . S
C1047 H1035 0.930 . S
C1047 C1048 1.399 . S
C1047 C1052 1.399 . S
C1048 C1047 1.399 . S
C1048 C1049 1.376 . S
C1049 H1036 0.930 . S
C1049 C1048 1.376 . S
C1049 C1050 1.388 . S
C1050 H1037 0.930 . S
C1050 C1049 1.388 . S
C1050 C1051 1.390 . S
C1051 C1050 1.390 . S
C1051 C1052 1.394 . S
C1051 C1057 1.465 . S
C1052 C1047 1.399 . S
C1052 C1051 1.394 . S
C1052 C1053 1.516 . S
C1053 C1052 1.516 . S
C1053 C1054 1.502 . S
C1053 C1055 1.561 . S
C1053 C1056 1.526 . S
C1054 H1038 0.959 . S
C1054 H1039 0.959 . S
C1054 H1040 0.961 . S
C1054 C1053 1.502 . S
C1055 H1041 0.960 . S
C1055 H1042 0.961 . S
C1055 H1043 0.959 . S
C1055 C1053 1.561 . S
C1056 C1053 1.526 . S
C1056 C1057 1.396 . S
C1056 C1061 1.390 . S
C1057 C1051 1.465 . S
C1057 C1056 1.396 . S
C1057 C1058 1.399 . S
C1058 H1044 0.929 . S
C1058 C1057 1.399 . S
C1058 C1059 1.385 . S
C1059 H1045 0.931 . S
C1059 C1058 1.385 . S
C1059 C1060 1.389 . S
C1060 C1059 1.389 . S
C1060 C1061 1.387 . S
C1061 H1046 0.930 . S
C1061 C1056 1.390 . S
C1061 C1060 1.387 . S
H1062 C1074 0.930 . S
H1063 C1076 0.930 . S
H1064 C1077 0.930 . S
H1065 C1081 0.959 . S
H1066 C1081 0.959 . S
H1067 C1081 0.961 1_545 S
H1068 C1082 0.960 1_545 S
H1069 C1082 0.961 . S
H1070 C1082 0.959 . S
H1071 C1085 0.929 . S
H1072 C1086 0.931 . S
H1073 C1088 0.930 . S
C1074 H1062 0.930 . S
C1074 C1075 1.399 . S
C1074 C1079 1.399 . S
C1075 C1074 1.399 . S
C1075 C1076 1.376 1_554 S
C1076 H1063 0.930 . S
C1076 C1075 1.376 1_556 S
C1076 C1077 1.388 . S
C1077 H1064 0.930 . S
C1077 C1076 1.388 . S
C1077 C1078 1.390 . S
C1078 C1077 1.390 . S
C1078 C1079 1.394 1_556 S
C1078 C1084 1.465 1_545 S
C1079 C1074 1.399 . S
C1079 C1078 1.394 1_554 S
C1079 C1080 1.516 1_545 S
C1080 C1079 1.516 1_565 S
C1080 C1081 1.502 . S
C1080 C1082 1.561 . S
C1080 C1083 1.526 . S
C1081 H1065 0.959 . S
C1081 H1066 0.959 . S
C1081 H1067 0.961 1_565 S
C1081 C1080 1.502 . S
C1082 H1068 0.960 1_565 S
C1082 H1069 0.961 . S
C1082 H1070 0.959 . S
C1082 C1080 1.561 . S
C1083 C1080 1.526 . S
C1083 C1084 1.396 1_554 S
C1083 C1088 1.390 . S
C1084 C1078 1.465 1_565 S
C1084 C1083 1.396 1_556 S
C1084 C1085 1.399 . S
C1085 H1071 0.929 . S
C1085 C1084 1.399 . S
C1085 C1086 1.385 1_455 S
C1086 H1072 0.931 . S
C1086 C1085 1.385 1_655 S
C1086 C1087 1.389 1_655 S
C1087 C1086 1.389 1_455 S
C1087 C1088 1.387 1_556 S
C1088 H1073 0.930 . S
C1088 C1083 1.390 . S
C1088 C1087 1.387 1_554 S
H1089 C1101 0.930 . S
H1090 C1103 0.930 . S
H1091 C1104 0.930 . S
H1092 C1108 0.959 . S
H1093 C1108 0.959 . S
H1094 C1108 0.961 . S
H1095 C1109 0.960 . S
H1096 C1109 0.961 . S
H1097 C1109 0.959 . S
H1098 C1112 0.929 1_655 S
H1099 C1113 0.931 . S
H1100 C1115 0.930 . S
C1101 H1089 0.930 . S
C1101 C1102 1.398 . S
C1101 C1106 1.399 . S
C1102 C1101 1.398 . S
C1102 C1103 1.377 1_545 S
C1103 H1090 0.930 . S
C1103 C1102 1.377 1_565 S
C1103 C1104 1.388 . S
C1104 H1091 0.930 . S
C1104 C1103 1.388 . S
C1104 C1105 1.390 1_565 S
C1105 C1104 1.390 1_545 S
C1105 C1106 1.394 . S
C1105 C1111 1.465 . S
C1106 C1101 1.399 . S
C1106 C1105 1.394 . S
C1106 C1107 1.516 . S
C1107 C1106 1.516 . S
C1107 C1108 1.502 . S
C1107 C1109 1.561 . S
C1107 C1110 1.526 . S
C1108 H1092 0.959 . S
C1108 H1093 0.959 . S
C1108 H1094 0.961 . S
C1108 C1107 1.502 . S
C1109 H1095 0.960 . S
C1109 H1096 0.961 . S
C1109 H1097 0.959 . S
C1109 C1107 1.561 . S
C1110 C1107 1.526 . S
C1110 C1111 1.396 . S
C1110 C1115 1.390 . S
C1111 C1105 1.465 . S
C1111 C1110 1.396 . S
C1111 C1112 1.399 . S
C1112 H1098 0.929 1_455 S
C1112 C1111 1.399 . S
C1112 C1113 1.385 1_455 S
C1113 H1099 0.931 . S
C1113 C1112 1.385 1_655 S
C1113 C1114 1.389 1_655 S
C1114 C1113 1.389 1_455 S
C1114 C1115 1.387 . S
C1115 H1100 0.930 . S
C1115 C1110 1.390 . S
C1115 C1114 1.387 . S
H1116 C1128 0.930 . S
H1117 C1130 0.930 . S
H1118 C1131 0.930 . S
H1119 C1135 0.959 . S
H1120 C1135 0.959 1_655 S
H1121 C1135 0.961 . S
H1122 C1136 0.960 . S
H1123 C1136 0.961 1_655 S
H1124 C1136 0.959 1_655 S
H1125 C1139 0.929 1_565 S
H1126 C1140 0.931 . S
H1127 C1142 0.930 . S
C1128 H1116 0.930 . S
C1128 C1129 1.399 . S
C1128 C1133 1.399 . S
C1129 C1128 1.399 . S
C1129 C1130 1.376 . S
C1130 H1117 0.930 . S
C1130 C1129 1.376 . S
C1130 C1131 1.388 . S
C1131 H1118 0.930 . S
C1131 C1130 1.388 . S
C1131 C1132 1.390 . S
C1132 C1131 1.390 . S
C1132 C1133 1.394 . S
C1132 C1138 1.465 1_455 S
C1133 C1128 1.399 . S
C1133 C1132 1.394 . S
C1133 C1134 1.516 . S
C1134 C1133 1.516 . S
C1134 C1135 1.502 . S
C1134 C1136 1.561 . S
C1134 C1137 1.526 1_455 S
C1135 H1119 0.959 . S
C1135 H1120 0.959 1_455 S
C1135 H1121 0.961 . S
C1135 C1134 1.502 . S
C1136 H1122 0.960 . S
C1136 H1123 0.961 1_455 S
C1136 H1124 0.959 1_455 S
C1136 C1134 1.561 . S
C1137 C1134 1.526 1_655 S
C1137 C1138 1.396 . S
C1137 C1142 1.390 . S
C1138 C1132 1.465 1_655 S
C1138 C1137 1.396 . S
C1138 C1139 1.399 . S
C1139 H1125 0.929 1_545 S
C1139 C1138 1.399 . S
C1139 C1140 1.385 1_545 S
C1140 H1126 0.931 . S
C1140 C1139 1.385 1_565 S
C1140 C1141 1.389 1_565 S
C1141 C1140 1.389 1_545 S
C1141 C1142 1.387 . S
C1142 H1127 0.930 . S
C1142 C1137 1.390 . S
C1142 C1141 1.387 . S
H1143 C1155 0.930 . S
H1144 C1157 0.930 1_455 S
H1145 C1158 0.930 . S
H1146 C1162 0.959 . S
H1147 C1162 0.959 . S
H1148 C1162 0.961 1_545 S
H1149 C1163 0.960 1_545 S
H1150 C1163 0.961 . S
H1151 C1163 0.959 . S
H1152 C1166 0.929 . S
H1153 C1167 0.931 . S
H1154 C1169 0.930 . S
C1155 H1143 0.930 . S
C1155 C1156 1.399 . S
C1155 C1160 1.399 . S
C1156 C1155 1.399 . S
C1156 C1157 1.376 . S
C1157 H1144 0.930 1_655 S
C1157 C1156 1.376 . S
C1157 C1158 1.388 . S
C1158 H1145 0.930 . S
C1158 C1157 1.388 . S
C1158 C1159 1.390 . S
C1159 C1158 1.390 . S
C1159 C1160 1.394 . S
C1159 C1165 1.465 1_545 S
C1160 C1155 1.399 . S
C1160 C1159 1.394 . S
C1160 C1161 1.516 1_545 S
C1161 C1160 1.516 1_565 S
C1161 C1162 1.502 . S
C1161 C1163 1.561 . S
C1161 C1164 1.526 . S
C1162 H1146 0.959 . S
C1162 H1147 0.959 . S
C1162 H1148 0.961 1_565 S
C1162 C1161 1.502 . S
C1163 H1149 0.960 1_565 S
C1163 H1150 0.961 . S
C1163 H1151 0.959 . S
C1163 C1161 1.561 . S
C1164 C1161 1.526 . S
C1164 C1165 1.396 . S
C1164 C1169 1.390 . S
C1165 C1159 1.465 1_565 S
C1165 C1164 1.396 . S
C1165 C1166 1.399 . S
C1166 H1152 0.929 . S
C1166 C1165 1.399 . S
C1166 C1167 1.385 . S
C1167 H1153 0.931 . S
C1167 C1166 1.385 . S
C1167 C1168 1.389 . S
C1168 C1167 1.389 . S
C1168 C1169 1.387 . S
C1169 H1154 0.930 . S
C1169 C1164 1.390 . S
C1169 C1168 1.387 . S
H1170 C1182 0.930 . S
H1171 C1184 0.930 . S
H1172 C1185 0.930 1_455 S
H1173 C1189 0.959 . S
H1174 C1189 0.959 . S
H1175 C1189 0.961 . S
H1176 C1190 0.960 . S
H1177 C1190 0.961 . S
H1178 C1190 0.959 . S
H1179 C1193 0.929 . S
H1180 C1194 0.931 . S
H1181 C1196 0.930 . S
C1182 H1170 0.930 . S
C1182 C1183 1.395 1_655 S
C1182 C1187 1.399 . S
C1183 C1182 1.395 1_455 S
C1183 C1184 1.377 . S
C1184 H1171 0.930 . S
C1184 C1183 1.377 . S
C1184 C1185 1.388 1_455 S
C1185 H1172 0.930 1_655 S
C1185 C1184 1.388 1_655 S
C1185 C1186 1.390 . S
C1186 C1185 1.390 . S
C1186 C1187 1.394 . S
C1186 C1192 1.465 . S
C1187 C1182 1.399 . S
C1187 C1186 1.394 . S
C1187 C1188 1.516 . S
C1188 C1187 1.516 . S
C1188 C1189 1.502 . S
C1188 C1190 1.561 . S
C1188 C1191 1.526 . S
C1189 H1173 0.959 . S
C1189 H1174 0.959 . S
C1189 H1175 0.961 . S
C1189 C1188 1.502 . S
C1190 H1176 0.960 . S
C1190 H1177 0.961 . S
C1190 H1178 0.959 . S
C1190 C1188 1.561 . S
C1191 C1188 1.526 . S
C1191 C1192 1.396 . S
C1191 C1196 1.390 . S
C1192 C1186 1.465 . S
C1192 C1191 1.396 . S
C1192 C1193 1.399 . S
C1193 H1179 0.929 . S
C1193 C1192 1.399 . S
C1193 C1194 1.385 1_565 S
C1194 H1180 0.931 . S
C1194 C1193 1.385 1_545 S
C1194 C1195 1.389 1_545 S
C1195 C1194 1.389 1_565 S
C1195 C1196 1.387 . S
C1196 H1181 0.930 . S
C1196 C1191 1.390 . S
C1196 C1195 1.387 . S
H1197 C1209 0.930 . S
H1198 C1211 0.930 . S
H1199 C1212 0.930 . S
H1200 C1216 0.959 . S
H1201 C1216 0.959 1_655 S
H1202 C1216 0.961 . S
H1203 C1217 0.960 1_455 S
H1204 C1217 0.961 . S
H1205 C1217 0.959 . S
H1206 C1220 0.929 . S
H1207 C1221 0.931 . S
H1208 C1223 0.930 . S
C1209 H1197 0.930 . S
C1209 C1210 1.399 1_565 S
C1209 C1214 1.399 . S
C1210 C1209 1.399 1_545 S
C1210 C1211 1.376 . S
C1211 H1198 0.930 . S
C1211 C1210 1.376 . S
C1211 C1212 1.388 . S
C1212 H1199 0.930 . S
C1212 C1211 1.388 . S
C1212 C1213 1.390 1_545 S
C1213 C1212 1.390 1_565 S
C1213 C1214 1.394 . S
C1213 C1219 1.465 1_455 S
C1214 C1209 1.399 . S
C1214 C1213 1.394 . S
C1214 C1215 1.516 1_455 S
C1215 C1214 1.516 1_655 S
C1215 C1216 1.502 1_655 S
C1215 C1217 1.561 . S
C1215 C1218 1.526 . S
C1216 H1200 0.959 . S
C1216 H1201 0.959 1_455 S
C1216 H1202 0.961 . S
C1216 C1215 1.502 1_455 S
C1217 H1203 0.960 1_655 S
C1217 H1204 0.961 . S
C1217 H1205 0.959 . S
C1217 C1215 1.561 . S
C1218 C1215 1.526 . S
C1218 C1219 1.396 . S
C1218 C1223 1.390 . S
C1219 C1213 1.465 1_655 S
C1219 C1218 1.396 . S
C1219 C1220 1.399 . S
C1220 H1206 0.929 . S
C1220 C1219 1.399 . S
C1220 C1221 1.385 . S
C1221 H1207 0.931 . S
C1221 C1220 1.385 . S
C1221 C1222 1.389 . S
C1222 C1221 1.389 . S
C1222 C1223 1.387 . S
C1223 H1208 0.930 . S
C1223 C1218 1.390 . S
C1223 C1222 1.387 . S
C265 C166 1.694 . S
C277 C7 1.651 . S
C292 C188 1.757 . S
C304 C25 1.545 1_455 S
C319 C208 1.734 . S
C331 C49 1.574 1_545 S
C346 C230 1.694 . S
C358 C67 1.650 . S
C373 C250 1.753 . S
C385 C91 1.555 1_655 S
C400 C146 1.701 . S
C412 C109 1.633 1_565 S
C427 C130 1.629 . S
C439 C125 1.713 . S
C454 C154 1.641 1_455 S
C466 C19 1.705 . S
C481 C172 1.573 1_545 S
C493 C41 1.735 . S
C508 C196 1.627 . S
C520 C61 1.714 . S
C535 C214 1.587 1_655 S
C547 C83 1.726 . S
C562 C238 1.541 1_565 S
C574 C103 1.756 . S
C589 C16 1.163 . S
C601 C124 1.107 . S
C616 C24 1.243 . S
C628 C20 0.982 . S
C643 C40 0.988 . S
C655 C58 1.241 . S
C670 C62 1.163 . S
C682 C66 1.133 . S
C697 C82 1.038 . S
C709 C100 1.205 . S
C724 C108 1.173 . S
C736 C104 1.110 . S
C751 C129 1.154 . S
C763 C167 1.120 . S
C778 C163 1.138 . S
C790 C187 1.147 . S
C805 C171 1.150 . S
C817 C209 1.142 . S
C832 C205 1.135 . S
C844 C229 1.152 . S
C859 C213 1.219 . S
C871 C251 1.035 . S
C886 C145 1.007 . S
C898 C247 1.233 . S
C913 C184 0.951 . S
C925 C3 0.951 . S
C940 C37 0.873 . S
C952 C192 0.867 . S
C967 C45 0.820 . S
C979 C226 0.814 . S
C994 C79 0.773 . S
C1006 C234 0.770 . S
C1021 C87 0.729 . S
C1033 C142 0.734 . S
C1048 C150 0.710 . S
C1060 C121 0.713 . S
C1075 C4 0.886 . S
C1087 C151 0.712 . S
C1102 C175 0.873 . S
C1114 C28 0.745 . S
C1129 C193 0.695 . S
C1141 C46 0.896 . S
C1156 C217 0.897 . S
C1168 C70 0.693 . S
C1183 C88 0.888 1_455 S
C1195 C235 0.725 . S
C1210 C112 0.794 1_545 S
C1222 C133 0.823 . S
