# Generated by pormake.
# Topology mmt, (4)-cn, num edge types: 1
# Building blocks:
#     Node 0, Type 0, BuildingBlock: QUQFOY_clean_sbu_3, # of connection points: 4
#     Node 1, Type 0, BuildingBlock: QUQFOY_clean_sbu_3, # of connection points: 4
#     Node 2, Type 0, BuildingBlock: QUQFOY_clean_sbu_3, # of connection points: 4
#     Node 3, Type 0, BuildingBlock: QUQFOY_clean_sbu_3, # of connection points: 4
#     Node 4, Type 0, BuildingBlock: QUQFOY_clean_sbu_3, # of connection points: 4
#     Node 5, Type 0, BuildingBlock: QUQFOY_clean_sbu_3, # of connection points: 4
#     Node 6, Type 0, BuildingBlock: QUQFOY_clean_sbu_3, # of connection points: 4
#     Node 7, Type 0, BuildingBlock: QUQFOY_clean_sbu_3, # of connection points: 4
#     Edge 8, Type (0, 0), BuildingBlock: KIFKEQ_clean_linker_1, # of connection points: 2
#     Edge 9, Type (0, 0), BuildingBlock: KIFKEQ_clean_linker_1, # of connection points: 2
#     Edge 10, Type (0, 0), BuildingBlock: KIFKEQ_clean_linker_1, # of connection points: 2
#     Edge 11, Type (0, 0), BuildingBlock: KIFKEQ_clean_linker_1, # of connection points: 2
#     Edge 12, Type (0, 0), BuildingBlock: KIFKEQ_clean_linker_1, # of connection points: 2
#     Edge 13, Type (0, 0), BuildingBlock: KIFKEQ_clean_linker_1, # of connection points: 2
#     Edge 14, Type (0, 0), BuildingBlock: KIFKEQ_clean_linker_1, # of connection points: 2
#     Edge 15, Type (0, 0), BuildingBlock: KIFKEQ_clean_linker_1, # of connection points: 2
#     Edge 16, Type (0, 0), BuildingBlock: KIFKEQ_clean_linker_1, # of connection points: 2
#     Edge 17, Type (0, 0), BuildingBlock: KIFKEQ_clean_linker_1, # of connection points: 2
#     Edge 18, Type (0, 0), BuildingBlock: KIFKEQ_clean_linker_1, # of connection points: 2
#     Edge 19, Type (0, 0), BuildingBlock: KIFKEQ_clean_linker_1, # of connection points: 2
#     Edge 20, Type (0, 0), BuildingBlock: KIFKEQ_clean_linker_1, # of connection points: 2
#     Edge 21, Type (0, 0), BuildingBlock: KIFKEQ_clean_linker_1, # of connection points: 2
#     Edge 22, Type (0, 0), BuildingBlock: KIFKEQ_clean_linker_1, # of connection points: 2
#     Edge 23, Type (0, 0), BuildingBlock: KIFKEQ_clean_linker_1, # of connection points: 2
# Relax obj value: 0.026
# Max RMSD: 0.041
# Mean RMSD: 0.041
data_MOF--net-mmt--node1-QUQFOY_clean_sbu_3--edge1-KIFKEQ_clean_linker_1
_symmetry_space_group_name_H-M    P1
_symmetry_Int_Tables_number       1
_symmetry_cell_setting            triclinic
loop_
_symmetry_equiv_pos_as_xyz
'x, y, z'
_cell_length_a     23.63029
_cell_length_b     39.481565
_cell_length_c     47.759595
_cell_angle_alpha  90.356497
_cell_angle_beta   89.953835
_cell_angle_gamma 89.923674
loop_
_atom_site_label
_atom_site_type_symbol
_atom_site_fract_x
_atom_site_fract_y
_atom_site_fract_z
_atom_type_partial_charge
C0 C 0.09724 0.64109 0.32914 0.0
O1 O 0.06481 0.64485 0.30823 0.0
Cd2 Cd 0.02335 0.59761 0.2843 0.0
O3 O 0.10151 0.61234 0.341 0.0
Cd4 Cd 0.05369 0.55583 0.33748 0.0
C5 C 0.13783 0.54227 0.28234 0.0
O6 O 0.96242 0.56627 0.31405 0.0
O7 O -0.00148 0.51622 0.30987 0.0
O8 O 0.0197 0.5597 0.38572 0.0
C9 C 0.95714 0.53592 0.30547 0.0
O10 O 0.1033 0.56197 0.26994 0.0
C11 C 0.03925 0.53125 0.39337 0.0
O12 O 0.13255 0.53614 0.3084 0.0
O13 O 0.06757 0.5146 0.37528 0.0
C14 C 0.36799 0.83272 0.32624 0.0
O15 O 0.39779 0.83029 0.30419 0.0
Cd16 Cd 0.43742 0.87873 0.28112 0.0
O17 O 0.36439 0.86085 0.33936 0.0
Cd18 Cd 0.40751 0.91844 0.33692 0.0
C19 C 0.32225 0.93333 0.28202 0.0
O20 O 0.49732 0.91049 0.31137 0.0
O21 O 0.46193 0.96103 0.31304 0.0
O22 O 0.45028 0.91448 0.38304 0.0
C23 C 0.50233 0.94177 0.30569 0.0
O24 O 0.3565 0.914 0.26886 0.0
C25 C 0.42419 0.93951 0.39378 0.0
O26 O 0.32823 0.93893 0.30821 0.0
O27 O 0.388 0.95429 0.37836 0.0
C28 C 0.59793 0.33589 0.15026 0.0
O29 O 0.57051 0.33525 0.17313 0.0
Cd30 Cd 0.52631 0.3839 0.19464 0.0
O31 O 0.59879 0.36265 0.13546 0.0
Cd32 Cd 0.55368 0.41993 0.13732 0.0
C33 C 0.63667 0.44084 0.19203 0.0
O34 O 0.46425 0.41163 0.16317 0.0
O35 O 0.4975 0.46252 0.16098 0.0
O36 O 0.51048 0.41635 0.09113 0.0
C37 C 0.45765 0.44302 0.16831 0.0
O38 O 0.60209 0.42336 0.20644 0.0
C39 C 0.53622 0.4416 0.08085 0.0
O40 O 0.63261 0.44218 0.16541 0.0
O41 O 0.57283 0.45597 0.09638 0.0
C42 C 0.86506 0.14097 0.14835 0.0
O43 O 0.8966 0.14387 0.16972 0.0
Cd44 Cd 0.93704 0.09587 0.19295 0.0
O45 O 0.86076 0.11259 0.13562 0.0
Cd46 Cd 0.90668 0.05535 0.1382 0.0
C47 C 0.82184 0.0416 0.19324 0.0
O48 O -0.00229 0.06416 0.1629 0.0
O49 O 0.96185 0.01384 0.16298 0.0
O50 O 0.94153 0.05865 0.09004 0.0
C51 C 0.00279 0.03309 0.1693 0.0
O52 O 0.85638 0.06085 0.20622 0.0
C53 C 0.9204 0.03066 0.08203 0.0
O54 O 0.82753 0.03583 0.16707 0.0
O55 O 0.89044 0.01483 0.09977 0.0
C56 C 0.87315 0.32769 0.64769 0.0
O57 O 0.90379 0.32415 0.66929 0.0
Cd58 Cd 0.94723 0.37075 0.69326 0.0
O59 O 0.87045 0.35616 0.63529 0.0
Cd60 Cd 0.918 0.41259 0.63887 0.0
C61 C 0.83574 0.42833 0.69475 0.0
O62 O 0.00782 0.40104 0.66281 0.0
O63 O 0.97514 0.45207 0.66572 0.0
O64 O 0.95974 0.4099 0.59235 0.0
C65 C 0.01491 0.43145 0.67088 0.0
O66 O 0.86939 0.40812 0.70718 0.0
C67 C 0.93506 0.43595 0.5828 0.0
O68 O 0.84084 0.43398 0.66858 0.0
O69 O 0.9002 0.45083 0.59907 0.0
C70 C 0.59717 0.13954 0.65101 0.0
O71 O 0.5695 0.14229 0.6737 0.0
Cd72 Cd 0.52351 0.09577 0.69645 0.0
O73 O 0.59704 0.11178 0.63724 0.0
Cd74 Cd 0.54869 0.05583 0.64062 0.0
C75 C 0.63225 0.0372 0.69513 0.0
O76 O 0.45957 0.06865 0.6653 0.0
O77 O 0.48994 0.01714 0.6671 0.0
O78 O 0.51397 0.06044 0.59261 0.0
C79 C 0.45106 0.03825 0.67272 0.0
O80 O 0.59797 0.05553 0.70923 0.0
C81 C 0.53222 0.03175 0.58451 0.0
O82 O 0.62809 0.03475 0.66856 0.0
O83 O 0.56015 0.01461 0.60224 0.0
C84 C 0.36653 0.63424 0.8112 0.0
O85 O 0.3904 0.62871 0.78777 0.0
Cd86 Cd 0.44717 0.58139 0.77318 0.0
O87 O 0.3715 0.61318 0.8312 0.0
Cd88 Cd 0.41784 0.55608 0.83479 0.0
C89 C 0.34078 0.52419 0.78064 0.0
O90 O 0.50831 0.564 0.80971 0.0
O91 O 0.48148 0.51272 0.81719 0.0
O92 O 0.44831 0.5646 0.88357 0.0
C93 C 0.51933 0.53256 0.80823 0.0
O94 O 0.37753 0.53751 0.76461 0.0
C95 C 0.42615 0.5374 0.8925 0.0
O96 O 0.34163 0.52955 0.80702 0.0
O97 O 0.39736 0.52024 0.87502 0.0
C98 C 0.10361 0.83651 0.81276 0.0
O99 O 0.08055 0.84162 0.78917 0.0
Cd100 Cd 0.02255 0.88814 0.77484 0.0
O101 O 0.09704 0.85758 0.83287 0.0
Cd102 Cd 0.04874 0.91424 0.83611 0.0
C103 C 0.12691 0.94678 0.78325 0.0
O104 O 0.95937 0.90615 0.81057 0.0
O105 O -0.0103 0.95742 0.81475 0.0
O106 O 0.00736 0.90748 0.88273 0.0
C107 C 0.95041 0.93757 0.80718 0.0
O108 O 0.09109 0.93279 0.76699 0.0
C109 C 0.03316 0.93233 0.89387 0.0
O110 O 0.12564 0.94165 0.80962 0.0
O111 O 0.0687 0.94774 0.87857 0.0
H112 H 0.21026 0.4913 0.29815 0.0
H113 H 0.17014 0.55747 0.22912 0.0
H114 H 0.28656 0.46579 0.27034 0.0
H115 H 0.24576 0.53199 0.20161 0.0
H116 H 0.42867 0.50892 0.17635 0.0
H117 H 0.35128 0.53165 0.20437 0.0
H118 H 0.29971 0.43014 0.2257 0.0
H119 H 0.37777 0.40715 0.1975 0.0
C120 C 0.21766 0.5004 0.27712 0.0
C121 C 0.18424 0.52653 0.26592 0.0
C122 C 0.26102 0.48563 0.26116 0.0
C123 C 0.27211 0.49699 0.23386 0.0
C124 C 0.23856 0.52296 0.22269 0.0
C125 C 0.19507 0.53747 0.23847 0.0
C126 C 0.4008 0.49138 0.18692 0.0
C127 C 0.4092 0.45623 0.18465 0.0
C128 C 0.35635 0.50442 0.2029 0.0
C129 C 0.31944 0.48267 0.21717 0.0
C130 C 0.32783 0.44748 0.21506 0.0
C131 C 0.37216 0.43435 0.19878 0.0
H132 H 0.08495 0.06913 0.19726 0.0
H133 H 0.02879 0.96728 0.1789 0.0
H134 H 0.1625 0.04616 0.22565 0.0
H135 H 0.10555 0.94464 0.20703 0.0
H136 H 0.28691 0.91732 0.22941 0.0
H137 H 0.21127 0.94314 0.20256 0.0
H138 H 0.17543 0.01141 0.27128 0.0
H139 H 0.2519 0.98545 0.29853 0.0
C140 C 0.08929 0.04193 0.19919 0.0
C141 C 0.05098 0.02 0.18576 0.0
C142 C 0.13328 0.02884 0.21558 0.0
C143 C 0.14002 -0.00636 0.21846 0.0
C144 C 0.10173 0.97186 0.20496 0.0
C145 C 0.05767 0.98487 0.1889 0.0
C146 C 0.26309 0.93784 0.23893 0.0
C147 C 0.27538 0.94922 0.26621 0.0
C148 C 0.21959 0.95255 0.22352 0.0
C149 C 0.18742 0.9792 0.23486 0.0
C150 C 0.1999 -0.00898 0.26199 0.0
C151 C 0.2433 0.97599 0.27763 0.0
H152 H 0.63625 0.46289 0.24606 0.0
H153 H 0.73972 0.46043 0.17144 0.0
H154 H 0.71329 0.48983 0.27186 0.0
H155 H 0.81737 0.48698 0.19758 0.0
H156 H 0.95466 0.48222 0.26963 0.0
H157 H 0.87651 0.46354 0.24005 0.0
H158 H 0.77368 0.54605 0.27109 0.0
H159 H 0.85264 0.56534 0.30051 0.0
C160 C 0.67537 0.46829 0.23513 0.0
C161 C 0.68217 0.45935 0.20678 0.0
C162 C 0.71922 0.48393 0.24986 0.0
C163 C 0.77111 0.4904 0.23668 0.0
C164 C 0.77769 0.48213 0.20819 0.0
C165 C 0.73332 0.46706 0.19325 0.0
C166 C 0.9155 0.49651 0.2701 0.0
C167 C 0.90957 0.52515 0.28749 0.0
C168 C 0.87101 0.48596 0.25297 0.0
C169 C 0.81933 0.50346 0.25324 0.0
C170 C 0.81325 0.53217 0.27055 0.0
C171 C 0.85827 0.54316 0.28733 0.0
H172 H 0.75082 -0.00986 0.17665 0.0
H173 H 0.78704 0.05753 0.24605 0.0
H174 H 0.67412 0.96451 0.20383 0.0
H175 H 0.71103 0.03198 0.27289 0.0
H176 H 0.52842 0.0078 0.29696 0.0
H177 H 0.60529 0.03076 0.26902 0.0
H178 H 0.66137 0.92939 0.24878 0.0
H179 H 0.58385 0.90614 0.27692 0.0
C180 C 0.74243 -0.0005 0.19761 0.0
C181 C 0.77493 0.02595 0.20913 0.0
C182 C 0.69887 0.98467 0.21321 0.0
C183 C 0.68664 -0.00366 0.24041 0.0
C184 C 0.71917 0.02271 0.25187 0.0
C185 C 0.76288 0.03724 0.23648 0.0
C186 C 0.55714 -0.00967 0.28663 0.0
C187 C 0.55023 0.95515 0.28923 0.0
C188 C 0.60126 0.00351 0.27069 0.0
C189 C 0.63932 0.98185 0.2568 0.0
C190 C 0.63233 0.94663 0.25915 0.0
C191 C 0.58833 0.93337 0.2754 0.0
H192 H 0.55492 0.46723 0.80573 0.0
H193 H 0.59433 0.5672 0.77507 0.0
H194 H 0.63187 0.44358 0.778 0.0
H195 H 0.67227 0.54334 0.7473 0.0
H196 H 0.76014 0.47713 0.67768 0.0
H197 H 0.68558 0.50412 0.70567 0.0
H198 H 0.73593 0.44513 0.7773 0.0
H199 H 0.8095 0.41805 0.7496 0.0
C200 C 0.58034 0.48422 0.7932 0.0
C201 C 0.56862 0.5191 0.79263 0.0
C202 C 0.62458 0.47066 0.77738 0.0
C203 C 0.65816 0.4916 0.76049 0.0
C204 C 0.64675 0.52656 0.75996 0.0
C205 C 0.60253 0.54024 0.77602 0.0
C206 C 0.75523 0.46994 0.6994 0.0
C207 C 0.79062 0.44525 0.71131 0.0
C208 C 0.71284 0.48559 0.71546 0.0
C209 C 0.70481 0.47663 0.74364 0.0
C210 C 0.74058 0.45225 0.75555 0.0
C211 C 0.78294 0.4368 0.73963 0.0
H212 H 0.73648 0.01863 0.6753 0.0
H213 H 0.63016 0.01477 0.74884 0.0
H214 H 0.81357 -0.00798 0.70166 0.0
H215 H 0.70663 -0.01257 0.77479 0.0
H216 H 0.84779 0.90738 0.79834 0.0
H217 H 0.76916 0.92879 0.76978 0.0
H218 H 0.86853 0.01641 0.74811 0.0
H219 H 0.94618 -0.00427 0.77709 0.0
C220 C 0.72936 0.01167 0.69692 0.0
C221 C 0.67754 0.01894 0.71009 0.0
C222 C 0.77338 -0.00343 0.71196 0.0
C223 C 0.76571 -0.01227 0.74016 0.0
C224 C 0.7133 -0.00614 0.75302 0.0
C225 C 0.66981 0.00966 0.73821 0.0
C226 C 0.85266 0.9312 0.78748 0.0
C227 C 0.90283 0.95 0.79005 0.0
C228 C 0.80786 0.94338 0.7712 0.0
C229 C 0.81324 0.97406 0.7567 0.0
C230 C 0.86369 -0.00746 0.75892 0.0
C231 C 0.90784 0.98081 0.77567 0.0
H232 H 0.34266 0.49149 0.73035 0.0
H233 H 0.2349 0.51213 0.8016 0.0
H234 H 0.26353 0.46481 0.70606 0.0
H235 H 0.15537 0.48556 0.77702 0.0
H236 H 0.02373 0.48822 0.70314 0.0
H237 H 0.10276 0.5054 0.73272 0.0
H238 H 0.19375 0.41474 0.70906 0.0
H239 H 0.11406 0.39718 0.67952 0.0
C240 C 0.30222 0.48991 0.74096 0.0
C241 C 0.29479 0.50414 0.76778 0.0
C242 C 0.25707 0.47445 0.72711 0.0
C243 C 0.20339 0.47333 0.73962 0.0
C244 C 0.19637 0.48634 0.76688 0.0
C245 C 0.24186 0.50135 0.78096 0.0
C246 C 0.06046 0.47185 0.7043 0.0
C247 C 0.0629 0.44144 0.68889 0.0
C248 C 0.10543 0.48154 0.72146 0.0
C249 C 0.15412 0.46128 0.72327 0.0
C250 C 0.1566 0.43078 0.70798 0.0
C251 C 0.11112 0.42078 0.69112 0.0
H252 H 0.124 0.97998 0.73357 0.0
H253 H 0.23275 0.95929 0.80413 0.0
H254 H 0.20272 0.00684 0.70928 0.0
H255 H 0.31189 0.98599 0.77954 0.0
H256 H 0.4416 0.98176 0.70463 0.0
H257 H 0.363 0.96543 0.73467 0.0
H258 H 0.27356 0.05674 0.7123 0.0
H259 H 0.35296 0.0735 0.68231 0.0
C260 C 0.16456 0.98163 0.74405 0.0
C261 C 0.17243 0.96727 0.77064 0.0
C262 C 0.20947 -0.0028 0.7302 0.0
C263 C 0.26334 -0.00173 0.74248 0.0
C264 C 0.27073 0.98526 0.76958 0.0
C265 C 0.22547 0.97016 0.78367 0.0
C266 C 0.40531 -0.00153 0.70617 0.0
C267 C 0.40323 0.02882 0.69098 0.0
C268 C 0.36061 -0.01074 0.7236 0.0
C269 C 0.31248 0.00994 0.72592 0.0
C270 C 0.31031 0.04039 0.71086 0.0
C271 C 0.3556 0.04993 0.69372 0.0
H272 H -0.0038 0.56504 0.4387 0.0
H273 H 0.05308 0.46624 0.41143 0.0
H274 H 0.97127 0.54195 0.48424 0.0
H275 H 0.02581 0.44268 0.45645 0.0
H276 H 0.02229 0.41678 0.54892 0.0
H277 H 0.04914 0.44021 0.50393 0.0
H278 H 0.90487 0.50762 0.50731 0.0
H279 H 0.87964 0.48509 0.55312 0.0
C280 C 0.00327 0.53833 0.44244 0.0
C281 C 0.02681 0.51749 0.4215 0.0
C282 C -0.01157 0.52497 0.46849 0.0
C283 C -0.00392 0.49031 0.47415 0.0
C284 C 0.02004 0.46957 0.45315 0.0
C285 C 0.03555 0.48304 0.42723 0.0
C286 C -0.00387 0.43652 0.54001 0.0
C287 C 0.94879 0.44907 0.5546 0.0
C288 C 0.01139 0.44989 0.51406 0.0
C289 C 0.9793 0.4759 0.50179 0.0
C290 C 0.93132 0.48808 0.51626 0.0
C291 C 0.91647 0.47496 0.54244 0.0
H292 H 0.36822 -0.0127 0.42521 0.0
H293 H 0.51222 0.91987 0.42672 0.0
H294 H 0.39418 0.00898 0.47141 0.0
H295 H 0.53963 0.94242 0.47216 0.0
H296 H 0.54534 0.96691 0.56522 0.0
H297 H 0.51688 0.94386 0.51997 0.0
H298 H 0.46154 0.04342 0.4944 0.0
H299 H 0.48782 0.06602 0.54013 0.0
C300 C 0.40544 0.97715 0.4354 0.0
C301 C 0.43802 0.95181 0.42234 0.0
C302 C 0.4207 -0.01022 0.4618 0.0
C303 C 0.46927 0.97763 0.47561 0.0
C304 C 0.50149 0.95207 0.4625 0.0
C305 C 0.48588 0.93921 0.43631 0.0
C306 C 0.52736 0.98388 0.54987 0.0
C307 C 0.51885 0.01828 0.55626 0.0
C308 C 0.51116 0.9707 0.52382 0.0
C309 C 0.48665 -0.00831 0.50339 0.0
C310 C 0.47915 0.02628 0.50972 0.0
C311 C 0.49475 0.03936 0.53588 0.0
H312 H 0.44418 0.42531 0.04932 0.0
H313 H 0.59304 0.48859 0.04952 0.0
H314 H 0.41459 0.44978 0.00518 0.0
H315 H 0.56501 0.51206 0.00444 0.0
H316 H 0.47458 0.57127 0.93663 0.0
H317 H 0.50028 0.54842 0.98225 0.0
H318 H 0.43317 0.45091 0.95743 0.0
H319 H 0.40521 0.47424 0.91261 0.0
C320 C 0.47113 0.44409 0.03967 0.0
C321 C 0.52108 0.45492 0.05289 0.0
C322 C 0.45425 0.4581 0.01421 0.0
C323 C 0.4873 0.48299 0.00101 0.0
C324 C 0.53781 0.49345 0.01412 0.0
C325 C 0.55429 0.47974 0.03986 0.0
C326 C 0.46469 0.54508 0.94113 0.0
C327 C 0.43761 0.52463 0.92105 0.0
C328 C 0.48 0.53182 0.96719 0.0
C329 C 0.46925 0.49765 0.97365 0.0
C330 C 0.44141 0.47743 0.95357 0.0
C331 C 0.42545 0.49081 0.92773 0.0
H332 H 0.94369 0.91349 0.92638 0.0
H333 H 0.08985 0.97899 0.92582 0.0
H334 H 0.91456 0.93734 0.97121 0.0
H335 H 0.0623 0.00186 0.97136 0.0
H336 H 0.96825 0.06264 0.03733 0.0
H337 H -0.00448 0.03804 -0.00757 0.0
H338 H 0.93289 0.94064 0.01933 0.0
H339 H 0.90336 0.96576 0.0637 0.0
C340 C 0.9702 0.93258 0.9361 0.0
C341 C 0.01905 0.94438 0.9225 0.0
C342 C 0.95358 0.94623 0.96193 0.0
C343 C -0.01424 0.97179 0.97502 0.0
C344 C 0.03563 0.98282 0.96172 0.0
C345 C 0.05185 0.96945 0.9357 0.0
C346 C 0.95983 0.03604 0.03352 0.0
C347 C 0.93348 0.01619 0.05405 0.0
C348 C 0.97605 0.02179 0.00785 0.0
C349 C 0.96703 -0.01283 0.00217 0.0
C350 C 0.93995 0.96745 0.02267 0.0
C351 C 0.92309 0.98183 0.04821 0.0
H352 H 0.07886 0.70861 0.32177 0.0
H353 H 0.20071 0.63755 0.35457 0.0
H354 H 0.14671 0.75458 0.32819 0.0
H355 H 0.26908 0.68365 0.3605 0.0
H356 H 0.38368 0.76589 0.31323 0.0
H357 H 0.31799 0.71924 0.3213 0.0
H358 H 0.20579 0.78707 0.36582 0.0
H359 H 0.27191 0.83377 0.35818 0.0
C360 C 0.11977 0.70293 0.33085 0.0
C361 C 0.13455 0.66946 0.33755 0.0
C362 C 0.1585 0.72928 0.33464 0.0
C363 C 0.21319 0.72261 0.34473 0.0
C364 C 0.22722 0.68941 0.3526 0.0
C365 C 0.188 0.66311 0.34935 0.0
C366 C 0.34558 0.77072 0.32525 0.0
C367 C 0.33283 0.80356 0.33491 0.0
C368 C 0.30814 0.74396 0.33 0.0
C369 C 0.25675 0.74961 0.34409 0.0
C370 C 0.24507 0.78209 0.35482 0.0
C371 C 0.28304 0.80875 0.35053 0.0
H372 H 0.76202 0.13893 0.1224 0.0
H373 H 0.88491 0.20825 0.15718 0.0
H374 H 0.69503 0.18586 0.11687 0.0
H375 H 0.81846 0.25511 0.15101 0.0
H376 H 0.69453 0.33527 0.11869 0.0
H377 H 0.76036 0.28787 0.11196 0.0
H378 H 0.64717 0.22244 0.15739 0.0
H379 H 0.58204 0.26983 0.16472 0.0
C380 C 0.77528 0.16429 0.12815 0.0
C381 C 0.82863 0.1699 0.14035 0.0
C382 C 0.73685 0.19106 0.12511 0.0
C383 C 0.7516 0.22404 0.13357 0.0
C384 C 0.80617 0.22998 0.14414 0.0
C385 C 0.84408 0.20314 0.14776 0.0
C386 C 0.6832 0.31061 0.12676 0.0
C387 C 0.63324 0.30629 0.14235 0.0
C388 C 0.72097 0.28358 0.123 0.0
C389 C 0.70879 0.25156 0.13416 0.0
C390 C 0.65736 0.24679 0.14837 0.0
C391 C 0.62025 0.27395 0.15267 0.0
H392 H 0.58426 0.20663 0.66327 0.0
H393 H 0.69339 0.13638 0.61926 0.0
H394 H 0.65176 0.25218 0.65468 0.0
H395 H 0.76154 0.18201 0.61118 0.0
H396 H 0.88963 0.26019 0.65612 0.0
H397 H 0.82095 0.21469 0.64941 0.0
H398 H 0.70236 0.286 0.6144 0.0
H399 H 0.77157 0.33159 0.62057 0.0
C400 C 0.62222 0.20106 0.65136 0.0
C401 C 0.6337 0.16791 0.64208 0.0
C402 C 0.66066 0.22718 0.6463 0.0
C403 C 0.71185 0.22054 0.63233 0.0
C404 C 0.72236 0.18772 0.62203 0.0
C405 C 0.68329 0.1617 0.62658 0.0
C406 C 0.84943 0.26601 0.64637 0.0
C407 C 0.83584 0.29946 0.63902 0.0
C408 C 0.81026 0.23995 0.6424 0.0
C409 C 0.75634 0.24692 0.6315 0.0
C410 C 0.74365 0.28004 0.6229 0.0
C411 C 0.78333 0.30603 0.62632 0.0
H412 H 0.33932 0.67177 0.85835 0.0
H413 H 0.3059 0.6629 0.7698 0.0
H414 H 0.27742 0.7217 0.86079 0.0
H415 H 0.24192 0.7105 0.77236 0.0
H416 H 0.17688 0.81493 0.77345 0.0
H417 H 0.24249 0.768 0.77538 0.0
H418 H 0.1851 0.74485 0.85917 0.0
H419 H 0.12171 0.7942 0.85771 0.0
C420 C 0.31844 0.68037 0.8395 0.0
C421 C 0.32834 0.66389 0.81379 0.0
C422 C 0.28263 0.70882 0.84089 0.0
C423 C 0.25518 0.72082 0.81666 0.0
C424 C 0.26374 0.70318 0.7913 0.0
C425 C 0.30032 0.67555 0.78982 0.0
C426 C 0.17826 0.79983 0.79232 0.0
C427 C 0.14357 0.80784 0.81525 0.0
C428 C 0.21569 0.77261 0.7934 0.0
C429 C 0.21836 0.75172 0.81715 0.0
C430 C 0.18451 0.76028 0.84052 0.0
C431 C 0.14788 0.78837 0.83968 0.0
loop_
_geom_bond_atom_site_label_1
_geom_bond_atom_site_label_2
_geom_bond_distance
_geom_bond_site_symmetry_2
_ccdc_geom_bond_type
C0 O1 1.306 . S
C0 O3 1.160 . S
O1 C0 1.306 . S
O1 Cd2 2.228 . S
Cd2 O1 2.228 . S
Cd2 O6 2.273 . S
Cd2 O10 2.277 . S
O3 C0 1.160 . S
O3 Cd4 2.203 . S
Cd4 O3 2.203 . S
Cd4 O6 2.411 . S
Cd4 O7 2.333 . S
Cd4 O8 2.352 . S
Cd4 O12 2.277 . S
Cd4 O13 2.356 . S
C5 O10 1.209 . S
C5 O12 1.226 . S
O6 Cd2 2.273 . S
O6 Cd4 2.411 . S
O6 C9 1.320 . S
O7 Cd4 2.333 . S
O7 C9 1.214 . S
O8 Cd4 2.352 . S
O8 C11 1.258 . S
C9 O6 1.320 . S
C9 O7 1.214 . S
O10 Cd2 2.277 . S
O10 C5 1.209 . S
C11 O8 1.258 . S
C11 O13 1.282 . S
O12 Cd4 2.277 . S
O12 C5 1.226 . S
O13 Cd4 2.356 . S
O13 C11 1.282 . S
C14 O15 1.306 . S
C14 O17 1.160 . S
O15 C14 1.306 . S
O15 Cd16 2.228 . S
Cd16 O15 2.228 . S
Cd16 O20 2.273 . S
Cd16 O24 2.277 . S
O17 C14 1.160 . S
O17 Cd18 2.203 . S
Cd18 O17 2.203 . S
Cd18 O20 2.411 . S
Cd18 O21 2.333 . S
Cd18 O22 2.352 . S
Cd18 O26 2.277 . S
Cd18 O27 2.356 . S
C19 O24 1.209 . S
C19 O26 1.226 . S
O20 Cd16 2.273 . S
O20 Cd18 2.411 . S
O20 C23 1.320 . S
O21 Cd18 2.333 . S
O21 C23 1.214 . S
O22 Cd18 2.352 . S
O22 C25 1.258 . S
C23 O20 1.320 . S
C23 O21 1.214 . S
O24 Cd16 2.277 . S
O24 C19 1.209 . S
C25 O22 1.258 . S
C25 O27 1.282 . S
O26 Cd18 2.277 . S
O26 C19 1.226 . S
O27 Cd18 2.356 . S
O27 C25 1.282 . S
C28 O29 1.306 . S
C28 O31 1.160 . S
O29 C28 1.306 . S
O29 Cd30 2.228 . S
Cd30 O29 2.228 . S
Cd30 O34 2.273 . S
Cd30 O38 2.277 . S
O31 C28 1.160 . S
O31 Cd32 2.203 . S
Cd32 O31 2.203 . S
Cd32 O34 2.411 . S
Cd32 O35 2.333 . S
Cd32 O36 2.352 . S
Cd32 O40 2.277 . S
Cd32 O41 2.356 . S
C33 O38 1.209 . S
C33 O40 1.226 . S
O34 Cd30 2.273 . S
O34 Cd32 2.411 . S
O34 C37 1.320 . S
O35 Cd32 2.333 . S
O35 C37 1.214 . S
O36 Cd32 2.352 . S
O36 C39 1.258 . S
C37 O34 1.320 . S
C37 O35 1.214 . S
O38 Cd30 2.277 . S
O38 C33 1.209 . S
C39 O36 1.258 . S
C39 O41 1.282 . S
O40 Cd32 2.277 . S
O40 C33 1.226 . S
O41 Cd32 2.356 . S
O41 C39 1.282 . S
C42 O43 1.306 . S
C42 O45 1.160 . S
O43 C42 1.306 . S
O43 Cd44 2.228 . S
Cd44 O43 2.228 . S
Cd44 O48 2.273 . S
Cd44 O52 2.277 . S
O45 C42 1.160 . S
O45 Cd46 2.203 . S
Cd46 O45 2.203 . S
Cd46 O48 2.411 . S
Cd46 O49 2.333 . S
Cd46 O50 2.352 . S
Cd46 O54 2.277 . S
Cd46 O55 2.356 . S
C47 O52 1.209 . S
C47 O54 1.226 . S
O48 Cd44 2.273 . S
O48 Cd46 2.411 . S
O48 C51 1.320 . S
O49 Cd46 2.333 . S
O49 C51 1.214 . S
O50 Cd46 2.352 . S
O50 C53 1.258 . S
C51 O48 1.320 . S
C51 O49 1.214 . S
O52 Cd44 2.277 . S
O52 C47 1.209 . S
C53 O50 1.258 . S
C53 O55 1.282 . S
O54 Cd46 2.277 . S
O54 C47 1.226 . S
O55 Cd46 2.356 . S
O55 C53 1.282 . S
C56 O57 1.306 . S
C56 O59 1.160 . S
O57 C56 1.306 . S
O57 Cd58 2.228 . S
Cd58 O57 2.228 . S
Cd58 O62 2.273 . S
Cd58 O66 2.277 . S
O59 C56 1.160 . S
O59 Cd60 2.203 . S
Cd60 O59 2.203 . S
Cd60 O62 2.411 . S
Cd60 O63 2.333 . S
Cd60 O64 2.352 . S
Cd60 O68 2.277 . S
Cd60 O69 2.356 . S
C61 O66 1.209 . S
C61 O68 1.226 . S
O62 Cd58 2.273 . S
O62 Cd60 2.411 . S
O62 C65 1.320 . S
O63 Cd60 2.333 . S
O63 C65 1.214 . S
O64 Cd60 2.352 . S
O64 C67 1.258 . S
C65 O62 1.320 . S
C65 O63 1.214 . S
O66 Cd58 2.277 . S
O66 C61 1.209 . S
C67 O64 1.258 . S
C67 O69 1.282 . S
O68 Cd60 2.277 . S
O68 C61 1.226 . S
O69 Cd60 2.356 . S
O69 C67 1.282 . S
C70 O71 1.306 . S
C70 O73 1.160 . S
O71 C70 1.306 . S
O71 Cd72 2.228 . S
Cd72 O71 2.228 . S
Cd72 O76 2.273 . S
Cd72 O80 2.277 . S
O73 C70 1.160 . S
O73 Cd74 2.203 . S
Cd74 O73 2.203 . S
Cd74 O76 2.411 . S
Cd74 O77 2.333 . S
Cd74 O78 2.352 . S
Cd74 O82 2.277 . S
Cd74 O83 2.356 . S
C75 O80 1.209 . S
C75 O82 1.226 . S
O76 Cd72 2.273 . S
O76 Cd74 2.411 . S
O76 C79 1.320 . S
O77 Cd74 2.333 . S
O77 C79 1.214 . S
O78 Cd74 2.352 . S
O78 C81 1.258 . S
C79 O76 1.320 . S
C79 O77 1.214 . S
O80 Cd72 2.277 . S
O80 C75 1.209 . S
C81 O78 1.258 . S
C81 O83 1.282 . S
O82 Cd74 2.277 . S
O82 C75 1.226 . S
O83 Cd74 2.356 . S
O83 C81 1.282 . S
C84 O85 1.306 . S
C84 O87 1.160 . S
O85 C84 1.306 . S
O85 Cd86 2.228 . S
Cd86 O85 2.228 . S
Cd86 O90 2.273 . S
Cd86 O94 2.277 . S
O87 C84 1.160 . S
O87 Cd88 2.203 . S
Cd88 O87 2.203 . S
Cd88 O90 2.411 . S
Cd88 O91 2.333 . S
Cd88 O92 2.352 . S
Cd88 O96 2.277 . S
Cd88 O97 2.356 . S
C89 O94 1.209 . S
C89 O96 1.226 . S
O90 Cd86 2.273 . S
O90 Cd88 2.411 . S
O90 C93 1.320 . S
O91 Cd88 2.333 . S
O91 C93 1.214 . S
O92 Cd88 2.352 . S
O92 C95 1.258 . S
C93 O90 1.320 . S
C93 O91 1.214 . S
O94 Cd86 2.277 . S
O94 C89 1.209 . S
C95 O92 1.258 . S
C95 O97 1.282 . S
O96 Cd88 2.277 . S
O96 C89 1.226 . S
O97 Cd88 2.356 . S
O97 C95 1.282 . S
C98 O99 1.306 . S
C98 O101 1.160 . S
O99 C98 1.306 . S
O99 Cd100 2.228 . S
Cd100 O99 2.228 . S
Cd100 O104 2.273 . S
Cd100 O108 2.277 . S
O101 C98 1.160 . S
O101 Cd102 2.203 . S
Cd102 O101 2.203 . S
Cd102 O104 2.411 . S
Cd102 O105 2.333 . S
Cd102 O106 2.352 . S
Cd102 O110 2.277 . S
Cd102 O111 2.356 . S
C103 O108 1.209 . S
C103 O110 1.226 . S
O104 Cd100 2.273 . S
O104 Cd102 2.411 . S
O104 C107 1.320 . S
O105 Cd102 2.333 . S
O105 C107 1.214 . S
O106 Cd102 2.352 . S
O106 C109 1.258 . S
C107 O104 1.320 . S
C107 O105 1.214 . S
O108 Cd100 2.277 . S
O108 C103 1.209 . S
C109 O106 1.258 . S
C109 O111 1.282 . S
O110 Cd102 2.277 . S
O110 C103 1.226 . S
O111 Cd102 2.356 . S
O111 C109 1.282 . S
H112 C120 0.950 . S
H113 C125 0.950 . S
H114 C122 0.950 . S
H115 C124 0.950 . S
H116 C126 0.950 . S
H117 C128 0.950 . S
H118 C130 0.950 . S
H119 C131 0.950 . S
C120 H112 0.950 . S
C120 C121 1.386 . S
C120 C122 1.391 . S
C121 C120 1.386 . S
C121 C125 1.393 . S
C122 H114 0.950 . S
C122 C120 1.391 . S
C122 C123 1.400 . S
C123 C122 1.400 . S
C123 C124 1.398 . S
C123 C129 1.491 . S
C124 H115 0.950 . S
C124 C123 1.398 . S
C124 C125 1.391 . S
C125 H113 0.950 . S
C125 C121 1.393 . S
C125 C124 1.391 . S
C126 H116 0.950 . S
C126 C127 1.386 . S
C126 C128 1.391 . S
C127 C126 1.386 . S
C127 C131 1.393 . S
C128 H117 0.950 . S
C128 C126 1.391 . S
C128 C129 1.400 . S
C129 C123 1.491 . S
C129 C128 1.400 . S
C129 C130 1.398 . S
C130 H118 0.950 . S
C130 C129 1.398 . S
C130 C131 1.391 . S
C131 H119 0.950 . S
C131 C127 1.393 . S
C131 C130 1.391 . S
H132 C140 0.950 . S
H133 C145 0.950 1_655 S
H134 C142 0.950 . S
H135 C144 0.950 . S
H136 C146 0.950 . S
H137 C148 0.950 . S
H138 C150 0.950 . S
H139 C151 0.950 . S
C140 H132 0.950 . S
C140 C141 1.386 . S
C140 C142 1.391 . S
C141 C140 1.386 . S
C141 C145 1.393 1_545 S
C142 H134 0.950 . S
C142 C140 1.391 . S
C142 C143 1.400 . S
C143 C142 1.400 . S
C143 C144 1.398 1_545 S
C143 C149 1.491 1_545 S
C144 H135 0.950 . S
C144 C143 1.398 1_565 S
C144 C145 1.391 . S
C145 H133 0.950 1_455 S
C145 C141 1.393 1_565 S
C145 C144 1.391 . S
C146 H136 0.950 . S
C146 C147 1.386 . S
C146 C148 1.391 . S
C147 C146 1.386 . S
C147 C151 1.393 1_565 S
C148 H137 0.950 . S
C148 C146 1.391 . S
C148 C149 1.400 . S
C149 C143 1.491 1_565 S
C149 C148 1.400 . S
C149 C150 1.398 1_565 S
C150 H138 0.950 . S
C150 C149 1.398 1_545 S
C150 C151 1.391 . S
C151 H139 0.950 . S
C151 C147 1.393 1_545 S
C151 C150 1.391 . S
H152 C160 0.950 . S
H153 C165 0.950 . S
H154 C162 0.950 . S
H155 C164 0.950 . S
H156 C166 0.950 . S
H157 C168 0.950 . S
H158 C170 0.950 . S
H159 C171 0.950 . S
C160 H152 0.950 . S
C160 C161 1.386 . S
C160 C162 1.391 . S
C161 C160 1.386 . S
C161 C165 1.393 . S
C162 H154 0.950 . S
C162 C160 1.391 . S
C162 C163 1.400 . S
C163 C162 1.400 . S
C163 C164 1.398 . S
C163 C169 1.491 . S
C164 H155 0.950 . S
C164 C163 1.398 . S
C164 C165 1.391 . S
C165 H153 0.950 . S
C165 C161 1.393 . S
C165 C164 1.391 . S
C166 H156 0.950 . S
C166 C167 1.386 1_455 S
C166 C168 1.391 1_455 S
C167 C166 1.386 1_655 S
C167 C171 1.393 . S
C168 H157 0.950 . S
C168 C166 1.391 1_655 S
C168 C169 1.400 . S
C169 C163 1.491 . S
C169 C168 1.400 . S
C169 C170 1.398 . S
C170 H158 0.950 . S
C170 C169 1.398 . S
C170 C171 1.391 . S
C171 H159 0.950 . S
C171 C167 1.393 . S
C171 C170 1.391 . S
H172 C180 0.950 . S
H173 C185 0.950 . S
H174 C182 0.950 . S
H175 C184 0.950 . S
H176 C186 0.950 1_545 S
H177 C188 0.950 . S
H178 C190 0.950 . S
H179 C191 0.950 . S
C180 H172 0.950 . S
C180 C181 1.386 1_565 S
C180 C182 1.391 . S
C181 C180 1.386 1_545 S
C181 C185 1.393 . S
C182 H174 0.950 . S
C182 C180 1.391 . S
C182 C183 1.400 1_565 S
C183 C182 1.400 1_545 S
C183 C184 1.398 . S
C183 C189 1.491 1_545 S
C184 H175 0.950 . S
C184 C183 1.398 . S
C184 C185 1.391 . S
C185 H173 0.950 . S
C185 C181 1.393 . S
C185 C184 1.391 . S
C186 H176 0.950 1_565 S
C186 C187 1.386 . S
C186 C188 1.391 1_565 S
C187 C186 1.386 . S
C187 C191 1.393 . S
C188 H177 0.950 . S
C188 C186 1.391 1_545 S
C188 C189 1.400 1_545 S
C189 C183 1.491 1_565 S
C189 C188 1.400 1_565 S
C189 C190 1.398 . S
C190 H178 0.950 . S
C190 C189 1.398 . S
C190 C191 1.391 . S
C191 H179 0.950 . S
C191 C187 1.393 . S
C191 C190 1.391 . S
H192 C200 0.950 . S
H193 C205 0.950 . S
H194 C202 0.950 . S
H195 C204 0.950 . S
H196 C206 0.950 . S
H197 C208 0.950 . S
H198 C210 0.950 . S
H199 C211 0.950 . S
C200 H192 0.950 . S
C200 C201 1.386 . S
C200 C202 1.391 . S
C201 C200 1.386 . S
C201 C205 1.393 . S
C202 H194 0.950 . S
C202 C200 1.391 . S
C202 C203 1.400 . S
C203 C202 1.400 . S
C203 C204 1.398 . S
C203 C209 1.491 . S
C204 H195 0.950 . S
C204 C203 1.398 . S
C204 C205 1.391 . S
C205 H193 0.950 . S
C205 C201 1.393 . S
C205 C204 1.391 . S
C206 H196 0.950 . S
C206 C207 1.386 . S
C206 C208 1.391 . S
C207 C206 1.386 . S
C207 C211 1.393 . S
C208 H197 0.950 . S
C208 C206 1.391 . S
C208 C209 1.400 . S
C209 C203 1.491 . S
C209 C208 1.400 . S
C209 C210 1.398 . S
C210 H198 0.950 . S
C210 C209 1.398 . S
C210 C211 1.391 . S
C211 H199 0.950 . S
C211 C207 1.393 . S
C211 C210 1.391 . S
H212 C220 0.950 . S
H213 C225 0.950 . S
H214 C222 0.950 1_565 S
H215 C224 0.950 . S
H216 C226 0.950 . S
H217 C228 0.950 1_545 S
H218 C230 0.950 . S
H219 C231 0.964 . S
C220 H212 0.950 . S
C220 C221 1.386 . S
C220 C222 1.391 . S
C221 C220 1.386 . S
C221 C225 1.393 . S
C222 H214 0.950 1_545 S
C222 C220 1.391 . S
C222 C223 1.400 . S
C223 C222 1.400 . S
C223 C224 1.398 . S
C223 C229 1.491 1_545 S
C224 H215 0.950 . S
C224 C223 1.398 . S
C224 C225 1.391 . S
C225 H213 0.950 . S
C225 C221 1.393 . S
C225 C224 1.391 . S
C226 H216 0.950 . S
C226 C227 1.386 . S
C226 C228 1.391 . S
C227 C226 1.386 . S
C227 C231 1.391 1_655 S
C228 H217 0.950 1_565 S
C228 C226 1.391 . S
C228 C229 1.400 . S
C229 C223 1.491 1_565 S
C229 C228 1.400 . S
C229 C230 1.398 . S
C230 H218 0.950 . S
C230 C229 1.398 . S
C230 C231 1.379 1_655 S
C231 H219 0.964 . S
C231 C227 1.391 1_455 S
C231 C230 1.379 1_455 S
H232 C240 0.950 . S
H233 C245 0.950 . S
H234 C242 0.950 . S
H235 C244 0.950 . S
H236 C246 0.950 1_655 S
H237 C248 0.950 . S
H238 C250 0.950 . S
H239 C251 0.950 . S
C240 H232 0.950 . S
C240 C241 1.386 . S
C240 C242 1.391 . S
C241 C240 1.386 . S
C241 C245 1.393 . S
C242 H234 0.950 . S
C242 C240 1.391 . S
C242 C243 1.400 . S
C243 C242 1.400 . S
C243 C244 1.398 . S
C243 C249 1.491 . S
C244 H235 0.950 . S
C244 C243 1.398 . S
C244 C245 1.391 . S
C245 H233 0.950 . S
C245 C241 1.393 . S
C245 C244 1.391 . S
C246 H236 0.950 1_455 S
C246 C247 1.386 . S
C246 C248 1.391 . S
C247 C246 1.386 . S
C247 C251 1.393 . S
C248 H237 0.950 . S
C248 C246 1.391 . S
C248 C249 1.400 . S
C249 C243 1.491 . S
C249 C248 1.400 . S
C249 C250 1.398 . S
C250 H238 0.950 . S
C250 C249 1.398 . S
C250 C251 1.391 . S
C251 H239 0.950 . S
C251 C247 1.393 . S
C251 C250 1.391 . S
H252 C260 0.950 . S
H253 C265 0.950 . S
H254 C262 0.950 . S
H255 C264 0.950 . S
H256 C266 0.950 . S
H257 C268 0.950 . S
H258 C270 0.950 . S
H259 C271 0.950 . S
C260 H252 0.950 . S
C260 C261 1.386 1_545 S
C260 C262 1.391 . S
C261 C260 1.386 1_565 S
C261 C265 1.393 . S
C262 H254 0.950 . S
C262 C260 1.391 . S
C262 C263 1.400 1_545 S
C263 C262 1.400 1_565 S
C263 C264 1.398 . S
C263 C269 1.491 1_565 S
C264 H255 0.950 . S
C264 C263 1.398 . S
C264 C265 1.391 . S
C265 H253 0.950 . S
C265 C261 1.393 . S
C265 C264 1.391 . S
C266 H256 0.950 . S
C266 C267 1.386 1_565 S
C266 C268 1.391 . S
C267 C266 1.386 1_545 S
C267 C271 1.393 . S
C268 H257 0.950 . S
C268 C266 1.391 . S
C268 C269 1.400 1_565 S
C269 C263 1.491 1_545 S
C269 C268 1.400 1_545 S
C269 C270 1.398 . S
C270 H258 0.950 . S
C270 C269 1.398 . S
C270 C271 1.391 . S
C271 H259 0.950 . S
C271 C267 1.393 . S
C271 C270 1.391 . S
H272 C280 0.950 1_655 S
H273 C285 0.950 . S
H274 C282 0.950 . S
H275 C284 0.950 . S
H276 C286 0.950 1_455 S
H277 C288 0.950 . S
H278 C290 0.950 . S
H279 C291 0.950 . S
C280 H272 0.950 1_455 S
C280 C281 1.386 . S
C280 C282 1.391 1_455 S
C281 C280 1.386 . S
C281 C285 1.393 . S
C282 H274 0.950 . S
C282 C280 1.391 1_655 S
C282 C283 1.400 1_655 S
C283 C282 1.400 1_455 S
C283 C284 1.398 . S
C283 C289 1.491 1_455 S
C284 H275 0.950 . S
C284 C283 1.398 . S
C284 C285 1.391 . S
C285 H273 0.950 . S
C285 C281 1.393 . S
C285 C284 1.391 . S
C286 H276 0.950 1_655 S
C286 C287 1.386 . S
C286 C288 1.391 1_655 S
C287 C286 1.386 . S
C287 C291 1.393 . S
C288 H277 0.950 . S
C288 C286 1.391 1_455 S
C288 C289 1.400 1_455 S
C289 C283 1.491 1_655 S
C289 C288 1.400 1_655 S
C289 C290 1.398 . S
C290 H278 0.950 . S
C290 C289 1.398 . S
C290 C291 1.391 . S
C291 H279 0.950 . S
C291 C287 1.393 . S
C291 C290 1.391 . S
H292 C300 0.950 . S
H293 C305 0.950 . S
H294 C302 0.950 . S
H295 C304 0.950 . S
H296 C306 0.950 . S
H297 C308 0.950 . S
H298 C310 0.950 . S
H299 C311 0.950 . S
C300 H292 0.950 . S
C300 C301 1.386 1_545 S
C300 C302 1.391 . S
C301 C300 1.386 1_565 S
C301 C305 1.393 . S
C302 H294 0.950 . S
C302 C300 1.391 . S
C302 C303 1.400 1_545 S
C303 C302 1.400 1_565 S
C303 C304 1.398 . S
C303 C309 1.491 1_565 S
C304 H295 0.950 . S
C304 C303 1.398 . S
C304 C305 1.391 . S
C305 H293 0.950 . S
C305 C301 1.393 . S
C305 C304 1.391 . S
C306 H296 0.950 . S
C306 C307 1.386 1_565 S
C306 C308 1.391 . S
C307 C306 1.386 1_545 S
C307 C311 1.393 . S
C308 H297 0.950 . S
C308 C306 1.391 . S
C308 C309 1.400 1_565 S
C309 C303 1.491 1_545 S
C309 C308 1.400 1_545 S
C309 C310 1.398 . S
C310 H298 0.950 . S
C310 C309 1.398 . S
C310 C311 1.391 . S
C311 H299 0.950 . S
C311 C307 1.393 . S
C311 C310 1.391 . S
H312 C320 0.950 . S
H313 C325 0.950 . S
H314 C322 0.950 . S
H315 C324 0.950 . S
H316 C326 0.950 . S
H317 C328 0.950 . S
H318 C330 0.950 . S
H319 C331 0.950 . S
C320 H312 0.950 . S
C320 C321 1.386 . S
C320 C322 1.391 . S
C321 C320 1.386 . S
C321 C325 1.393 . S
C322 H314 0.950 . S
C322 C320 1.391 . S
C322 C323 1.400 . S
C323 C322 1.400 . S
C323 C324 1.398 . S
C323 C329 1.491 1_554 S
C324 H315 0.950 . S
C324 C323 1.398 . S
C324 C325 1.391 . S
C325 H313 0.950 . S
C325 C321 1.393 . S
C325 C324 1.391 . S
C326 H316 0.950 . S
C326 C327 1.386 . S
C326 C328 1.391 . S
C327 C326 1.386 . S
C327 C331 1.393 . S
C328 H317 0.950 . S
C328 C326 1.391 . S
C328 C329 1.400 . S
C329 C323 1.491 1_556 S
C329 C328 1.400 . S
C329 C330 1.398 . S
C330 H318 0.950 . S
C330 C329 1.398 . S
C330 C331 1.391 . S
C331 H319 0.950 . S
C331 C327 1.393 . S
C331 C330 1.391 . S
H332 C340 0.950 1_655 S
H333 C345 0.950 1_545 S
H334 C342 0.950 . S
H335 C344 0.950 . S
H336 C346 0.950 1_455 S
H337 C348 0.950 . S
H338 C350 0.950 . S
H339 C351 0.950 1_565 S
C340 H332 0.950 1_455 S
C340 C341 1.386 . S
C340 C342 1.391 1_455 S
C341 C340 1.386 . S
C341 C345 1.393 . S
C342 H334 0.950 . S
C342 C340 1.391 1_655 S
C342 C343 1.400 1_655 S
C343 C342 1.400 1_455 S
C343 C344 1.398 1_565 S
C343 C349 1.491 1_466 S
C344 H335 0.950 . S
C344 C343 1.398 1_545 S
C344 C345 1.391 1_545 S
C345 H333 0.950 1_565 S
C345 C341 1.393 . S
C345 C344 1.391 1_565 S
C346 H336 0.950 1_655 S
C346 C347 1.386 . S
C346 C348 1.391 1_655 S
C347 C346 1.386 . S
C347 C351 1.393 . S
C348 H337 0.950 . S
C348 C346 1.391 1_455 S
C348 C349 1.400 1_455 S
C349 C343 1.491 1_644 S
C349 C348 1.400 1_655 S
C349 C350 1.398 1_545 S
C350 H338 0.950 . S
C350 C349 1.398 1_565 S
C350 C351 1.391 1_565 S
C351 H339 0.950 1_545 S
C351 C347 1.393 . S
C351 C350 1.391 1_545 S
H352 C360 0.950 . S
H353 C365 0.950 . S
H354 C362 0.950 . S
H355 C364 0.950 . S
H356 C366 0.950 . S
H357 C368 0.950 . S
H358 C370 0.950 . S
H359 C371 0.950 . S
C360 H352 0.950 . S
C360 C361 1.386 . S
C360 C362 1.391 . S
C361 C360 1.386 . S
C361 C365 1.393 . S
C362 H354 0.950 . S
C362 C360 1.391 . S
C362 C363 1.400 . S
C363 C362 1.400 . S
C363 C364 1.398 . S
C363 C369 1.491 . S
C364 H355 0.950 . S
C364 C363 1.398 . S
C364 C365 1.391 . S
C365 H353 0.950 . S
C365 C361 1.393 . S
C365 C364 1.391 . S
C366 H356 0.950 . S
C366 C367 1.386 . S
C366 C368 1.391 . S
C367 C366 1.386 . S
C367 C371 1.393 . S
C368 H357 0.950 . S
C368 C366 1.391 . S
C368 C369 1.400 . S
C369 C363 1.491 . S
C369 C368 1.400 . S
C369 C370 1.398 . S
C370 H358 0.950 . S
C370 C369 1.398 . S
C370 C371 1.391 . S
C371 H359 0.950 . S
C371 C367 1.393 . S
C371 C370 1.391 . S
H372 C380 0.950 . S
H373 C385 0.950 . S
H374 C382 0.950 . S
H375 C384 0.950 . S
H376 C386 0.950 . S
H377 C388 0.950 . S
H378 C390 0.950 . S
H379 C391 0.950 . S
C380 H372 0.950 . S
C380 C381 1.386 . S
C380 C382 1.391 . S
C381 C380 1.386 . S
C381 C385 1.393 . S
C382 H374 0.950 . S
C382 C380 1.391 . S
C382 C383 1.400 . S
C383 C382 1.400 . S
C383 C384 1.398 . S
C383 C389 1.491 . S
C384 H375 0.950 . S
C384 C383 1.398 . S
C384 C385 1.391 . S
C385 H373 0.950 . S
C385 C381 1.393 . S
C385 C384 1.391 . S
C386 H376 0.950 . S
C386 C387 1.386 . S
C386 C388 1.391 . S
C387 C386 1.386 . S
C387 C391 1.393 . S
C388 H377 0.950 . S
C388 C386 1.391 . S
C388 C389 1.400 . S
C389 C383 1.491 . S
C389 C388 1.400 . S
C389 C390 1.398 . S
C390 H378 0.950 . S
C390 C389 1.398 . S
C390 C391 1.391 . S
C391 H379 0.950 . S
C391 C387 1.393 . S
C391 C390 1.391 . S
H392 C400 0.950 . S
H393 C405 0.950 . S
H394 C402 0.950 . S
H395 C404 0.950 . S
H396 C406 0.950 . S
H397 C408 0.950 . S
H398 C410 0.950 . S
H399 C411 0.950 . S
C400 H392 0.950 . S
C400 C401 1.386 . S
C400 C402 1.391 . S
C401 C400 1.386 . S
C401 C405 1.393 . S
C402 H394 0.950 . S
C402 C400 1.391 . S
C402 C403 1.400 . S
C403 C402 1.400 . S
C403 C404 1.398 . S
C403 C409 1.491 . S
C404 H395 0.950 . S
C404 C403 1.398 . S
C404 C405 1.391 . S
C405 H393 0.950 . S
C405 C401 1.393 . S
C405 C404 1.391 . S
C406 H396 0.950 . S
C406 C407 1.386 . S
C406 C408 1.391 . S
C407 C406 1.386 . S
C407 C411 1.393 . S
C408 H397 0.950 . S
C408 C406 1.391 . S
C408 C409 1.400 . S
C409 C403 1.491 . S
C409 C408 1.400 . S
C409 C410 1.398 . S
C410 H398 0.950 . S
C410 C409 1.398 . S
C410 C411 1.391 . S
C411 H399 0.950 . S
C411 C407 1.393 . S
C411 C410 1.391 . S
H412 C420 0.950 . S
H413 C425 0.950 . S
H414 C422 0.950 . S
H415 C424 0.950 . S
H416 C426 0.950 . S
H417 C428 0.950 . S
H418 C430 0.950 . S
H419 C431 0.950 . S
C420 H412 0.950 . S
C420 C421 1.386 . S
C420 C422 1.391 . S
C421 C420 1.386 . S
C421 C425 1.393 . S
C422 H414 0.950 . S
C422 C420 1.391 . S
C422 C423 1.400 . S
C423 C422 1.400 . S
C423 C424 1.398 . S
C423 C429 1.491 . S
C424 H415 0.950 . S
C424 C423 1.398 . S
C424 C425 1.391 . S
C425 H413 0.950 . S
C425 C421 1.393 . S
C425 C424 1.391 . S
C426 H416 0.950 . S
C426 C427 1.386 . S
C426 C428 1.391 . S
C427 C426 1.386 . S
C427 C431 1.393 . S
C428 H417 0.950 . S
C428 C426 1.391 . S
C428 C429 1.400 . S
C429 C423 1.491 . S
C429 C428 1.400 . S
C429 C430 1.398 . S
C430 H418 0.950 . S
C430 C429 1.398 . S
C430 C431 1.391 . S
C431 H419 0.950 . S
C431 C427 1.393 . S
C431 C430 1.391 . S
C121 C5 1.415 . S
C127 C37 1.415 . S
C141 C51 1.417 1_455 S
C147 C19 1.413 . S
C161 C33 1.412 . S
C167 C9 1.419 1_655 S
C181 C47 1.414 . S
C187 C23 1.416 . S
C201 C93 1.418 . S
C207 C61 1.412 . S
C221 C75 1.413 . S
C227 C107 1.419 1_655 S
C241 C89 1.418 . S
C247 C65 1.416 1_455 S
C261 C103 1.416 . S
C267 C79 1.418 . S
C281 C11 1.505 . S
C287 C67 1.505 . S
C301 C25 1.509 . S
C307 C81 1.509 . S
C321 C39 1.505 . S
C327 C95 1.505 . S
C341 C109 1.513 . S
C347 C53 1.513 . S
C361 C0 1.513 . S
C367 C14 1.500 . S
C381 C42 1.501 . S
C387 C28 1.514 . S
C401 C70 1.503 . S
C407 C56 1.509 . S
C421 C84 1.508 . S
C427 C98 1.510 . S
