# Generated by pormake.
# Topology ukc, (4)-cn, num edge types: 1
# Building blocks:
#     Node 0, Type 0, BuildingBlock: CEKHIL_clean_sbu_0, # of connection points: 4
#     Node 1, Type 0, BuildingBlock: CEKHIL_clean_sbu_0, # of connection points: 4
#     Node 2, Type 0, BuildingBlock: CEKHIL_clean_sbu_0, # of connection points: 4
#     Node 3, Type 0, BuildingBlock: CEKHIL_clean_sbu_0, # of connection points: 4
#     Node 4, Type 0, BuildingBlock: CEKHIL_clean_sbu_0, # of connection points: 4
#     Node 5, Type 0, BuildingBlock: CEKHIL_clean_sbu_0, # of connection points: 4
#     Node 6, Type 0, BuildingBlock: CEKHIL_clean_sbu_0, # of connection points: 4
#     Node 7, Type 0, BuildingBlock: CEKHIL_clean_sbu_0, # of connection points: 4
#     Node 8, Type 0, BuildingBlock: CEKHIL_clean_sbu_0, # of connection points: 4
#     Node 9, Type 0, BuildingBlock: CEKHIL_clean_sbu_0, # of connection points: 4
#     Node 10, Type 0, BuildingBlock: CEKHIL_clean_sbu_0, # of connection points: 4
#     Node 11, Type 0, BuildingBlock: CEKHIL_clean_sbu_0, # of connection points: 4
#     Node 12, Type 0, BuildingBlock: CEKHIL_clean_sbu_0, # of connection points: 4
#     Node 13, Type 0, BuildingBlock: CEKHIL_clean_sbu_0, # of connection points: 4
#     Node 14, Type 0, BuildingBlock: CEKHIL_clean_sbu_0, # of connection points: 4
#     Node 15, Type 0, BuildingBlock: CEKHIL_clean_sbu_0, # of connection points: 4
#     Node 16, Type 0, BuildingBlock: CEKHIL_clean_sbu_0, # of connection points: 4
#     Node 17, Type 0, BuildingBlock: CEKHIL_clean_sbu_0, # of connection points: 4
#     Node 18, Type 0, BuildingBlock: CEKHIL_clean_sbu_0, # of connection points: 4
#     Node 19, Type 0, BuildingBlock: CEKHIL_clean_sbu_0, # of connection points: 4
#     Node 20, Type 0, BuildingBlock: CEKHIL_clean_sbu_0, # of connection points: 4
#     Node 21, Type 0, BuildingBlock: CEKHIL_clean_sbu_0, # of connection points: 4
#     Node 22, Type 0, BuildingBlock: CEKHIL_clean_sbu_0, # of connection points: 4
#     Node 23, Type 0, BuildingBlock: CEKHIL_clean_sbu_0, # of connection points: 4
#     Node 24, Type 0, BuildingBlock: CEKHIL_clean_sbu_0, # of connection points: 4
#     Node 25, Type 0, BuildingBlock: CEKHIL_clean_sbu_0, # of connection points: 4
#     Node 26, Type 0, BuildingBlock: CEKHIL_clean_sbu_0, # of connection points: 4
#     Node 27, Type 0, BuildingBlock: CEKHIL_clean_sbu_0, # of connection points: 4
#     Node 28, Type 0, BuildingBlock: CEKHIL_clean_sbu_0, # of connection points: 4
#     Node 29, Type 0, BuildingBlock: CEKHIL_clean_sbu_0, # of connection points: 4
#     Node 30, Type 0, BuildingBlock: CEKHIL_clean_sbu_0, # of connection points: 4
#     Node 31, Type 0, BuildingBlock: CEKHIL_clean_sbu_0, # of connection points: 4
#     Edge 32, Type (0, 0), BuildingBlock: EZIPEK_clean_linker_0, # of connection points: 2
#     Edge 33, Type (0, 0), BuildingBlock: EZIPEK_clean_linker_0, # of connection points: 2
#     Edge 34, Type (0, 0), BuildingBlock: EZIPEK_clean_linker_0, # of connection points: 2
#     Edge 35, Type (0, 0), BuildingBlock: EZIPEK_clean_linker_0, # of connection points: 2
#     Edge 36, Type (0, 0), BuildingBlock: EZIPEK_clean_linker_0, # of connection points: 2
#     Edge 37, Type (0, 0), BuildingBlock: EZIPEK_clean_linker_0, # of connection points: 2
#     Edge 38, Type (0, 0), BuildingBlock: EZIPEK_clean_linker_0, # of connection points: 2
#     Edge 39, Type (0, 0), BuildingBlock: EZIPEK_clean_linker_0, # of connection points: 2
#     Edge 40, Type (0, 0), BuildingBlock: EZIPEK_clean_linker_0, # of connection points: 2
#     Edge 41, Type (0, 0), BuildingBlock: EZIPEK_clean_linker_0, # of connection points: 2
#     Edge 42, Type (0, 0), BuildingBlock: EZIPEK_clean_linker_0, # of connection points: 2
#     Edge 43, Type (0, 0), BuildingBlock: EZIPEK_clean_linker_0, # of connection points: 2
#     Edge 44, Type (0, 0), BuildingBlock: EZIPEK_clean_linker_0, # of connection points: 2
#     Edge 45, Type (0, 0), BuildingBlock: EZIPEK_clean_linker_0, # of connection points: 2
#     Edge 46, Type (0, 0), BuildingBlock: EZIPEK_clean_linker_0, # of connection points: 2
#     Edge 47, Type (0, 0), BuildingBlock: EZIPEK_clean_linker_0, # of connection points: 2
#     Edge 48, Type (0, 0), BuildingBlock: EZIPEK_clean_linker_0, # of connection points: 2
#     Edge 49, Type (0, 0), BuildingBlock: EZIPEK_clean_linker_0, # of connection points: 2
#     Edge 50, Type (0, 0), BuildingBlock: EZIPEK_clean_linker_0, # of connection points: 2
#     Edge 51, Type (0, 0), BuildingBlock: EZIPEK_clean_linker_0, # of connection points: 2
#     Edge 52, Type (0, 0), BuildingBlock: EZIPEK_clean_linker_0, # of connection points: 2
#     Edge 53, Type (0, 0), BuildingBlock: EZIPEK_clean_linker_0, # of connection points: 2
#     Edge 54, Type (0, 0), BuildingBlock: EZIPEK_clean_linker_0, # of connection points: 2
#     Edge 55, Type (0, 0), BuildingBlock: EZIPEK_clean_linker_0, # of connection points: 2
#     Edge 56, Type (0, 0), BuildingBlock: EZIPEK_clean_linker_0, # of connection points: 2
#     Edge 57, Type (0, 0), BuildingBlock: EZIPEK_clean_linker_0, # of connection points: 2
#     Edge 58, Type (0, 0), BuildingBlock: EZIPEK_clean_linker_0, # of connection points: 2
#     Edge 59, Type (0, 0), BuildingBlock: EZIPEK_clean_linker_0, # of connection points: 2
#     Edge 60, Type (0, 0), BuildingBlock: EZIPEK_clean_linker_0, # of connection points: 2
#     Edge 61, Type (0, 0), BuildingBlock: EZIPEK_clean_linker_0, # of connection points: 2
#     Edge 62, Type (0, 0), BuildingBlock: EZIPEK_clean_linker_0, # of connection points: 2
#     Edge 63, Type (0, 0), BuildingBlock: EZIPEK_clean_linker_0, # of connection points: 2
#     Edge 64, Type (0, 0), BuildingBlock: EZIPEK_clean_linker_0, # of connection points: 2
#     Edge 65, Type (0, 0), BuildingBlock: EZIPEK_clean_linker_0, # of connection points: 2
#     Edge 66, Type (0, 0), BuildingBlock: EZIPEK_clean_linker_0, # of connection points: 2
#     Edge 67, Type (0, 0), BuildingBlock: EZIPEK_clean_linker_0, # of connection points: 2
#     Edge 68, Type (0, 0), BuildingBlock: EZIPEK_clean_linker_0, # of connection points: 2
#     Edge 69, Type (0, 0), BuildingBlock: EZIPEK_clean_linker_0, # of connection points: 2
#     Edge 70, Type (0, 0), BuildingBlock: EZIPEK_clean_linker_0, # of connection points: 2
#     Edge 71, Type (0, 0), BuildingBlock: EZIPEK_clean_linker_0, # of connection points: 2
#     Edge 72, Type (0, 0), BuildingBlock: EZIPEK_clean_linker_0, # of connection points: 2
#     Edge 73, Type (0, 0), BuildingBlock: EZIPEK_clean_linker_0, # of connection points: 2
#     Edge 74, Type (0, 0), BuildingBlock: EZIPEK_clean_linker_0, # of connection points: 2
#     Edge 75, Type (0, 0), BuildingBlock: EZIPEK_clean_linker_0, # of connection points: 2
#     Edge 76, Type (0, 0), BuildingBlock: EZIPEK_clean_linker_0, # of connection points: 2
#     Edge 77, Type (0, 0), BuildingBlock: EZIPEK_clean_linker_0, # of connection points: 2
#     Edge 78, Type (0, 0), BuildingBlock: EZIPEK_clean_linker_0, # of connection points: 2
#     Edge 79, Type (0, 0), BuildingBlock: EZIPEK_clean_linker_0, # of connection points: 2
#     Edge 80, Type (0, 0), BuildingBlock: EZIPEK_clean_linker_0, # of connection points: 2
#     Edge 81, Type (0, 0), BuildingBlock: EZIPEK_clean_linker_0, # of connection points: 2
#     Edge 82, Type (0, 0), BuildingBlock: EZIPEK_clean_linker_0, # of connection points: 2
#     Edge 83, Type (0, 0), BuildingBlock: EZIPEK_clean_linker_0, # of connection points: 2
#     Edge 84, Type (0, 0), BuildingBlock: EZIPEK_clean_linker_0, # of connection points: 2
#     Edge 85, Type (0, 0), BuildingBlock: EZIPEK_clean_linker_0, # of connection points: 2
#     Edge 86, Type (0, 0), BuildingBlock: EZIPEK_clean_linker_0, # of connection points: 2
#     Edge 87, Type (0, 0), BuildingBlock: EZIPEK_clean_linker_0, # of connection points: 2
#     Edge 88, Type (0, 0), BuildingBlock: EZIPEK_clean_linker_0, # of connection points: 2
#     Edge 89, Type (0, 0), BuildingBlock: EZIPEK_clean_linker_0, # of connection points: 2
#     Edge 90, Type (0, 0), BuildingBlock: EZIPEK_clean_linker_0, # of connection points: 2
#     Edge 91, Type (0, 0), BuildingBlock: EZIPEK_clean_linker_0, # of connection points: 2
#     Edge 92, Type (0, 0), BuildingBlock: EZIPEK_clean_linker_0, # of connection points: 2
#     Edge 93, Type (0, 0), BuildingBlock: EZIPEK_clean_linker_0, # of connection points: 2
#     Edge 94, Type (0, 0), BuildingBlock: EZIPEK_clean_linker_0, # of connection points: 2
#     Edge 95, Type (0, 0), BuildingBlock: EZIPEK_clean_linker_0, # of connection points: 2
# Relax obj value: 0.051
# Max RMSD: 0.066
# Mean RMSD: 0.066
data_MOF--net-ukc--node1-CEKHIL_clean_sbu_0--edge1-EZIPEK_clean_linker_0
_symmetry_space_group_name_H-M    P1
_symmetry_Int_Tables_number       1
_symmetry_cell_setting            triclinic
loop_
_symmetry_equiv_pos_as_xyz
'x, y, z'
_cell_length_a     32.487146
_cell_length_b     32.532125
_cell_length_c     62.586403
_cell_angle_alpha  89.993395
_cell_angle_beta   89.999062
_cell_angle_gamma 89.990416
loop_
_atom_site_label
_atom_site_type_symbol
_atom_site_fract_x
_atom_site_fract_y
_atom_site_fract_z
_atom_type_partial_charge
Co0 Co 0.12793 0.40461 0.04441 0.0
O1 O 0.17416 0.44066 0.03776 0.0
O2 O 0.15813 0.38514 0.01942 0.0
C3 C 0.14103 0.39953 0.07988 0.0
O4 O 0.08527 0.35768 0.04715 0.0
Co5 Co 0.05759 0.43103 0.07568 0.0
O6 O 0.0366 0.37456 0.07126 0.0
C7 C 0.0589 0.46434 0.03204 0.0
C8 C 0.18389 0.41511 0.02265 0.0
C9 C 0.05265 0.34911 0.05821 0.0
O10 O 0.08819 0.43937 0.02656 0.0
O11 O 0.04571 0.46831 0.05115 0.0
O12 O 0.16176 0.37783 0.06621 0.0
O13 O 0.11634 0.42619 0.07162 0.0
Co14 Co 0.85769 0.86879 0.29401 0.0
O15 O 0.8211 0.91444 0.28723 0.0
O16 O 0.87622 0.89823 0.26856 0.0
C17 C 0.8638 0.88348 0.32923 0.0
O18 O 0.90501 0.82644 0.29693 0.0
Co19 Co 0.83216 0.79977 0.32608 0.0
O20 O 0.88886 0.77912 0.32186 0.0
C21 C 0.79708 0.79986 0.28281 0.0
C22 C 0.84613 0.92388 0.27183 0.0
C23 C 0.91409 0.79465 0.30852 0.0
O24 O 0.82228 0.82855 0.27684 0.0
O25 O 0.79367 0.78741 0.3021 0.0
O26 O 0.88512 0.90352 0.31514 0.0
O27 O 0.83689 0.85836 0.32151 0.0
Co28 Co 0.39857 0.61865 0.5434 0.0
O29 O 0.35259 0.582 0.5373 0.0
O30 O 0.36717 0.63772 0.51875 0.0
C31 C 0.38632 0.6225 0.57904 0.0
O32 O 0.44045 0.66614 0.54553 0.0
Co33 Co 0.47062 0.59396 0.57392 0.0
O34 O 0.48846 0.65162 0.5704 0.0
C35 C 0.46718 0.55937 0.53048 0.0
C36 C 0.34207 0.60729 0.52221 0.0
C37 C 0.47214 0.67607 0.55694 0.0
O38 O 0.43751 0.58398 0.52518 0.0
O39 O 0.48165 0.55638 0.5494 0.0
O40 O 0.36548 0.64488 0.56568 0.0
O41 O 0.41159 0.5969 0.57037 0.0
Co42 Co 0.64863 0.14153 0.79287 0.0
O43 O 0.68413 0.09435 0.78678 0.0
O44 O 0.62564 0.10693 0.77028 0.0
C45 C 0.65266 0.13384 0.82922 0.0
O46 O 0.60091 0.18351 0.79516 0.0
Co47 Co 0.67457 0.21777 0.81909 0.0
O48 O 0.61624 0.23414 0.81827 0.0
C49 C 0.70526 0.20808 0.77523 0.0
C50 C 0.65685 0.08249 0.77294 0.0
C51 C 0.59103 0.21606 0.80588 0.0
O52 O 0.68044 0.17757 0.77175 0.0
O53 O 0.70974 0.22531 0.7934 0.0
O54 O 0.62669 0.1125 0.81793 0.0
O55 O 0.6754 0.15822 0.81816 0.0
Co56 Co 0.1247 0.61663 0.45818 0.0
O57 O 0.1717 0.5809 0.46371 0.0
O58 O 0.15694 0.63654 0.48231 0.0
C59 C 0.13429 0.62064 0.42236 0.0
O60 O 0.08187 0.6632 0.45665 0.0
Co61 Co 0.05126 0.59001 0.42904 0.0
O62 O 0.03067 0.64643 0.43404 0.0
C63 C 0.05802 0.55644 0.47249 0.0
C64 C 0.18234 0.60645 0.47867 0.0
C65 C 0.04813 0.67178 0.44665 0.0
O66 O 0.08735 0.58185 0.47719 0.0
O67 O 0.04281 0.55239 0.45379 0.0
O68 O 0.15577 0.64338 0.43528 0.0
O69 O 0.11038 0.59435 0.43147 0.0
Co70 Co 0.65022 0.86521 0.70767 0.0
O71 O 0.68644 0.91143 0.7146 0.0
O72 O 0.62843 0.89818 0.73124 0.0
C73 C 0.65218 0.87674 0.67137 0.0
O74 O 0.60216 0.82382 0.70493 0.0
Co75 Co 0.67462 0.79182 0.67905 0.0
O76 O 0.61636 0.77513 0.68055 0.0
C77 C 0.70671 0.79595 0.72295 0.0
C78 C 0.65948 0.92291 0.72873 0.0
C79 C 0.59177 0.79214 0.69367 0.0
O80 O 0.68279 0.82677 0.72743 0.0
O81 O 0.71012 0.78045 0.70429 0.0
O82 O 0.62703 0.89677 0.68373 0.0
O83 O 0.67547 0.85123 0.68144 0.0
Co84 Co 0.39893 0.40053 0.95652 0.0
O85 O 0.35271 0.437 0.96254 0.0
O86 O 0.36869 0.38272 0.98187 0.0
C87 C 0.38505 0.39403 0.92118 0.0
O88 O 0.44153 0.35352 0.95457 0.0
Co89 Co 0.46889 0.42487 0.92464 0.0
O90 O 0.48854 0.36801 0.92917 0.0
C91 C 0.46718 0.46172 0.96752 0.0
C92 C 0.34299 0.41254 0.97813 0.0
C93 C 0.47319 0.34381 0.94305 0.0
O94 O 0.43844 0.4367 0.97364 0.0
O95 O 0.48022 0.46429 0.94831 0.0
O96 O 0.36516 0.37234 0.9352 0.0
O97 O 0.41018 0.42074 0.92901 0.0
Co98 Co 0.86034 0.14044 0.20747 0.0
O99 O 0.82341 0.09394 0.2121 0.0
O100 O 0.87783 0.10769 0.23189 0.0
C101 C 0.86733 0.13206 0.17148 0.0
O102 O 0.90774 0.18251 0.20704 0.0
Co103 Co 0.83678 0.21478 0.17768 0.0
O104 O 0.89432 0.23203 0.18278 0.0
C105 C 0.79955 0.20766 0.22039 0.0
C106 C 0.8477 0.08278 0.22755 0.0
C107 C 0.91802 0.21502 0.19641 0.0
O108 O 0.82446 0.17825 0.22573 0.0
O109 O 0.79722 0.22289 0.20161 0.0
O110 O 0.88785 0.10913 0.18473 0.0
O111 O 0.8411 0.15595 0.18053 0.0
Co112 Co 0.8963 0.62201 0.95784 0.0
O113 O 0.84878 0.58696 0.96361 0.0
O114 O 0.86399 0.64293 0.98177 0.0
C115 C 0.88765 0.62512 0.92179 0.0
O116 O 0.93955 0.6683 0.95631 0.0
Co117 Co 0.97042 0.59457 0.93046 0.0
O118 O 0.99719 0.64552 0.94089 0.0
C119 C 0.96231 0.56161 0.97352 0.0
C120 C 0.83854 0.61275 0.97855 0.0
C121 C 0.97727 0.67372 0.95042 0.0
O122 O 0.93287 0.58737 0.97757 0.0
O123 O 0.97796 0.55672 0.95501 0.0
O124 O 0.86606 0.64848 0.93435 0.0
O125 O 0.91092 0.59863 0.93121 0.0
Co126 Co 0.14838 0.13969 0.70777 0.0
O127 O 0.18609 0.09456 0.7145 0.0
O128 O 0.12836 0.10682 0.7317 0.0
C129 C 0.15037 0.12785 0.67154 0.0
O130 O 0.09902 0.17944 0.70554 0.0
Co131 Co 0.16794 0.2136 0.67803 0.0
O132 O 0.10824 0.22509 0.67899 0.0
C133 C 0.20315 0.21068 0.7216 0.0
C134 C 0.15996 0.08291 0.72902 0.0
C135 C 0.08594 0.20875 0.69338 0.0
O136 O 0.18065 0.17927 0.72681 0.0
O137 O 0.2043 0.22623 0.70286 0.0
O138 O 0.12584 0.10711 0.68395 0.0
O139 O 0.17217 0.1546 0.68151 0.0
Co140 Co 0.62262 0.39315 0.45834 0.0
O141 O 0.67015 0.42809 0.46365 0.0
O142 O 0.65511 0.37259 0.48229 0.0
C143 C 0.63188 0.38905 0.42249 0.0
O144 O 0.57915 0.3472 0.45692 0.0
Co145 Co 0.54928 0.42079 0.42941 0.0
O146 O 0.5281 0.36457 0.43433 0.0
C147 C 0.55728 0.45468 0.47274 0.0
C148 C 0.68097 0.40216 0.47838 0.0
C149 C 0.54535 0.339 0.44689 0.0
O150 O 0.58605 0.42862 0.47745 0.0
O151 O 0.54206 0.45892 0.45406 0.0
O152 O 0.65308 0.36598 0.43538 0.0
O153 O 0.60838 0.41567 0.43165 0.0
Co154 Co 0.35996 0.86903 0.205 0.0
O155 O 0.32606 0.91766 0.21032 0.0
O156 O 0.3813 0.90141 0.22872 0.0
C157 C 0.36248 0.87773 0.16869 0.0
O158 O 0.40624 0.82555 0.20392 0.0
Co159 Co 0.33359 0.79491 0.17878 0.0
O160 O 0.38649 0.76922 0.18636 0.0
C161 C 0.29717 0.80563 0.2205 0.0
C162 C 0.35206 0.92782 0.22519 0.0
C163 C 0.4135 0.78901 0.19681 0.0
O164 O 0.32427 0.83365 0.22487 0.0
O165 O 0.29265 0.79007 0.20199 0.0
O166 O 0.38705 0.89774 0.18138 0.0
O167 O 0.33606 0.85463 0.17833 0.0
Co168 Co 0.89708 0.39354 0.54228 0.0
O169 O 0.85098 0.42823 0.53399 0.0
O170 O 0.86957 0.37293 0.51676 0.0
C171 C 0.88087 0.39026 0.57729 0.0
O172 O 0.94068 0.34782 0.54654 0.0
Co173 Co 0.96422 0.42312 0.57409 0.0
O174 O 0.99043 0.36911 0.56892 0.0
C175 C 0.96464 0.45511 0.53042 0.0
C176 C 0.84398 0.40359 0.5181 0.0
C177 C 0.97445 0.34158 0.55708 0.0
O178 O 0.93689 0.42868 0.52479 0.0
O179 O 0.97642 0.46038 0.54968 0.0
O180 O 0.86231 0.36656 0.56365 0.0
O181 O 0.90559 0.41716 0.5693 0.0
Co182 Co 0.35919 0.14119 0.29337 0.0
O183 O 0.32492 0.09428 0.28549 0.0
O184 O 0.37897 0.11496 0.26732 0.0
C185 C 0.36529 0.12445 0.32839 0.0
O186 O 0.40504 0.18469 0.29709 0.0
Co187 Co 0.33205 0.20737 0.32665 0.0
O188 O 0.38812 0.23004 0.32279 0.0
C189 C 0.29703 0.20951 0.28339 0.0
C190 C 0.35047 0.08734 0.26993 0.0
C191 C 0.41353 0.21595 0.30912 0.0
O192 O 0.32263 0.18156 0.27692 0.0
O193 O 0.29348 0.22072 0.30286 0.0
O194 O 0.38747 0.10592 0.31405 0.0
O195 O 0.3378 0.14921 0.32096 0.0
Co196 Co 0.62118 0.62588 0.04301 0.0
O197 O 0.66821 0.58911 0.03864 0.0
O198 O 0.65704 0.6459 0.02038 0.0
C199 C 0.62497 0.62771 0.07959 0.0
O200 O 0.58069 0.67477 0.0429 0.0
Co201 Co 0.54156 0.60373 0.06647 0.0
O202 O 0.52061 0.65902 0.05853 0.0
C203 C 0.55633 0.56717 0.025 0.0
C204 C 0.68086 0.61471 0.02408 0.0
C205 C 0.54391 0.68428 0.04889 0.0
O206 O 0.58637 0.59265 0.02181 0.0
O207 O 0.5377 0.56363 0.0428 0.0
O208 O 0.64895 0.65038 0.06783 0.0
O209 O 0.60149 0.60274 0.06911 0.0
Co210 Co 0.1439 0.86618 0.79367 0.0
O211 O 0.18099 0.91303 0.78962 0.0
O212 O 0.12632 0.90065 0.76987 0.0
C213 C 0.13831 0.87284 0.82995 0.0
O214 O 0.09506 0.82545 0.79306 0.0
Co215 Co 0.16357 0.78865 0.8196 0.0
O216 O 0.1094 0.76675 0.81035 0.0
C217 C 0.2048 0.80025 0.77891 0.0
C218 C 0.15686 0.92493 0.77424 0.0
C219 C 0.08504 0.78914 0.79957 0.0
O220 O 0.17961 0.82987 0.77426 0.0
O221 O 0.20632 0.78316 0.79721 0.0
O222 O 0.11665 0.89566 0.81713 0.0
O223 O 0.16433 0.84861 0.82071 0.0
Co224 Co 0.62188 0.89564 0.54305 0.0
O225 O 0.66788 0.93214 0.53652 0.0
O226 O 0.65228 0.87677 0.51799 0.0
C227 C 0.63538 0.89079 0.57863 0.0
O228 O 0.5799 0.84835 0.54543 0.0
Co229 Co 0.55127 0.9204 0.57447 0.0
O230 O 0.5326 0.86301 0.57065 0.0
C231 C 0.55288 0.95558 0.53117 0.0
C232 C 0.6778 0.90692 0.52128 0.0
C233 C 0.54837 0.83859 0.55699 0.0
O234 O 0.58206 0.93072 0.5254 0.0
O235 O 0.53962 0.95867 0.55033 0.0
O236 O 0.65576 0.8688 0.56492 0.0
O237 O 0.6101 0.91683 0.57032 0.0
Co238 Co 0.37089 0.36657 0.79304 0.0
O239 O 0.33574 0.41381 0.78659 0.0
O240 O 0.39354 0.39972 0.76976 0.0
C241 C 0.36817 0.37665 0.82922 0.0
O242 O 0.41822 0.32421 0.79549 0.0
Co243 Co 0.34542 0.29232 0.82073 0.0
O244 O 0.40352 0.2752 0.81963 0.0
C245 C 0.3131 0.29954 0.77705 0.0
C246 C 0.3628 0.42475 0.77242 0.0
C247 C 0.42828 0.29223 0.80662 0.0
O248 O 0.33811 0.32953 0.7728 0.0
O249 O 0.30913 0.28359 0.79557 0.0
O250 O 0.39405 0.39684 0.81734 0.0
O251 O 0.34471 0.35178 0.81887 0.0
Co252 Co 0.90187 0.12877 0.0424 0.0
O253 O 0.85605 0.09161 0.03657 0.0
O254 O 0.86896 0.14812 0.01836 0.0
C255 C 0.89184 0.13107 0.0786 0.0
O256 O 0.94313 0.17695 0.04437 0.0
Co257 Co 0.97607 0.10462 0.07188 0.0
O258 O 0.99049 0.16352 0.06979 0.0
C259 C 0.96981 0.06999 0.02845 0.0
C260 C 0.8445 0.11721 0.02182 0.0
C261 C 0.97404 0.18761 0.05619 0.0
O262 O 0.94041 0.09515 0.02343 0.0
O263 O 0.98487 0.06669 0.04724 0.0
O264 O 0.86955 0.15297 0.06567 0.0
O265 O 0.91695 0.10691 0.06893 0.0
Co266 Co 0.13675 0.64602 0.29344 0.0
O267 O 0.17281 0.59963 0.28635 0.0
O268 O 0.11406 0.61257 0.27027 0.0
C269 C 0.14153 0.6361 0.32971 0.0
O270 O 0.08814 0.68685 0.29638 0.0
Co271 Co 0.16003 0.72117 0.32101 0.0
O272 O 0.1013 0.73581 0.32074 0.0
C273 C 0.19134 0.71537 0.27707 0.0
C274 C 0.14551 0.58828 0.27236 0.0
C275 C 0.07703 0.71818 0.30772 0.0
O276 O 0.16783 0.6841 0.27298 0.0
O277 O 0.19474 0.7318 0.2955 0.0
O278 O 0.11581 0.61495 0.31815 0.0
O279 O 0.16347 0.66177 0.31901 0.0
Co280 Co 0.62713 0.12628 0.95768 0.0
O281 O 0.67357 0.09024 0.96394 0.0
O282 O 0.65904 0.14663 0.9819 0.0
C283 C 0.63852 0.12849 0.9219 0.0
O284 O 0.58471 0.17341 0.95525 0.0
Co285 Co 0.55456 0.09979 0.92796 0.0
O286 O 0.53585 0.15725 0.93113 0.0
C287 C 0.55911 0.06741 0.97184 0.0
C288 C 0.68424 0.11618 0.97869 0.0
C289 C 0.55238 0.18247 0.94412 0.0
O290 O 0.58893 0.09223 0.97661 0.0
O291 O 0.54417 0.06351 0.95307 0.0
O292 O 0.65945 0.15168 0.93484 0.0
O293 O 0.61366 0.10312 0.93104 0.0
Co294 Co 0.1364 0.36926 0.20859 0.0
O295 O 0.17223 0.41673 0.21388 0.0
O296 O 0.11473 0.40432 0.23127 0.0
C297 C 0.13674 0.37494 0.1721 0.0
O298 O 0.08818 0.32779 0.20757 0.0
Co299 Co 0.16112 0.29146 0.18374 0.0
O300 O 0.1053 0.27006 0.19004 0.0
C301 C 0.1946 0.30373 0.22645 0.0
C302 C 0.14561 0.42887 0.22805 0.0
C303 C 0.07942 0.2917 0.20027 0.0
O304 O 0.16918 0.33383 0.22974 0.0
O305 O 0.19899 0.28607 0.20841 0.0
O306 O 0.11282 0.39782 0.18377 0.0
O307 O 0.16133 0.35127 0.18266 0.0
Co308 Co 0.89611 0.89188 0.45765 0.0
O309 O 0.84919 0.92866 0.46216 0.0
O310 O 0.86127 0.87277 0.48099 0.0
C311 C 0.88982 0.88858 0.42128 0.0
O312 O 0.93704 0.84335 0.45758 0.0
Co313 Co 0.97377 0.9139 0.43202 0.0
O314 O 0.99493 0.85863 0.43965 0.0
C315 C 0.96218 0.95115 0.47388 0.0
C316 C 0.83703 0.90357 0.47704 0.0
C317 C 0.97305 0.8338 0.45043 0.0
O318 O 0.93224 0.92595 0.47785 0.0
O319 O 0.97956 0.95408 0.45567 0.0
O320 O 0.86686 0.86618 0.43369 0.0
O321 O 0.91385 0.91407 0.43102 0.0
Co322 Co 0.37076 0.64274 0.70785 0.0
O323 O 0.3345 0.59654 0.71465 0.0
O324 O 0.39265 0.60944 0.73124 0.0
C325 C 0.36846 0.63175 0.67163 0.0
O326 O 0.41872 0.68426 0.70512 0.0
Co327 Co 0.34597 0.7165 0.67933 0.0
O328 O 0.40421 0.73315 0.68086 0.0
C329 C 0.31322 0.71068 0.72303 0.0
C330 C 0.36154 0.5848 0.72867 0.0
C331 C 0.42893 0.71606 0.69388 0.0
O332 O 0.33822 0.68086 0.72767 0.0
O333 O 0.30931 0.72586 0.70433 0.0
O334 O 0.39375 0.61145 0.6838 0.0
O335 O 0.34535 0.65715 0.68184 0.0
Co336 Co 0.39423 0.11791 0.45714 0.0
O337 O 0.34734 0.08096 0.46161 0.0
O338 O 0.35894 0.13711 0.48028 0.0
C339 C 0.38872 0.12065 0.42068 0.0
O340 O 0.43471 0.1668 0.45721 0.0
Co341 Co 0.47275 0.09686 0.43195 0.0
O342 O 0.49322 0.1523 0.43967 0.0
C343 C 0.46086 0.05962 0.47385 0.0
C344 C 0.33489 0.10617 0.47639 0.0
C345 C 0.47078 0.17683 0.45032 0.0
O346 O 0.43017 0.0841 0.47758 0.0
O347 O 0.47887 0.05714 0.4558 0.0
O348 O 0.36529 0.14305 0.43287 0.0
O349 O 0.41282 0.0956 0.43068 0.0
Co350 Co 0.63681 0.63936 0.2091 0.0
O351 O 0.67402 0.59268 0.21347 0.0
O352 O 0.61775 0.60409 0.23215 0.0
C353 C 0.63474 0.63329 0.17275 0.0
O354 O 0.58771 0.67965 0.20972 0.0
Co355 Co 0.65523 0.71772 0.18311 0.0
O356 O 0.59869 0.73632 0.1901 0.0
C357 C 0.69343 0.70721 0.22537 0.0
C358 C 0.64867 0.58005 0.22817 0.0
C359 C 0.57592 0.71468 0.20222 0.0
O360 O 0.67061 0.67542 0.2293 0.0
O361 O 0.69428 0.72556 0.20733 0.0
O362 O 0.61161 0.61042 0.18484 0.0
O363 O 0.65911 0.65803 0.18271 0.0
Co364 Co 0.12316 0.8996 0.95846 0.0
O365 O 0.16943 0.93766 0.9611 0.0
O366 O 0.15841 0.88459 0.98226 0.0
C367 C 0.12943 0.89158 0.92249 0.0
O368 O 0.08317 0.85069 0.96108 0.0
Co369 Co 0.04477 0.91374 0.93165 0.0
O370 O 0.02798 0.85729 0.9398 0.0
C371 C 0.05524 0.9585 0.97212 0.0
C372 C 0.18222 0.91485 0.97684 0.0
C373 C 0.04911 0.83695 0.95327 0.0
O374 O 0.08689 0.93623 0.97706 0.0
O375 O 0.03684 0.95654 0.95411 0.0
O376 O 0.15248 0.87069 0.93554 0.0
O377 O 0.10453 0.91744 0.93126 0.0
Co378 Co 0.87249 0.36316 0.7044 0.0
O379 O 0.83891 0.41095 0.71142 0.0
O380 O 0.89401 0.39229 0.72942 0.0
C381 C 0.8763 0.37723 0.66907 0.0
O382 O 0.91701 0.31781 0.70107 0.0
Co383 Co 0.84135 0.29505 0.67379 0.0
O384 O 0.89329 0.26615 0.68075 0.0
C385 C 0.80807 0.29894 0.71705 0.0
C386 C 0.86484 0.41919 0.72657 0.0
C387 C 0.92179 0.28243 0.69181 0.0
O388 O 0.83587 0.32555 0.72249 0.0
O389 O 0.80236 0.28685 0.69789 0.0
O390 O 0.90082 0.39547 0.6824 0.0
O391 O 0.84874 0.35371 0.67741 0.0
Co392 Co 0.39744 0.90522 0.04158 0.0
O393 O 0.35177 0.94226 0.03561 0.0
O394 O 0.36669 0.88734 0.0165 0.0
C395 C 0.38447 0.89927 0.07703 0.0
O396 O 0.43915 0.85763 0.04332 0.0
Co397 Co 0.4688 0.92864 0.07251 0.0
O398 O 0.48918 0.87232 0.06697 0.0
C399 C 0.46613 0.96507 0.02961 0.0
C400 C 0.34159 0.91768 0.02015 0.0
C401 C 0.47207 0.84788 0.05377 0.0
O402 O 0.43687 0.94035 0.02394 0.0
O403 O 0.47991 0.96782 0.04867 0.0
O404 O 0.36397 0.87767 0.0632 0.0
O405 O 0.4097 0.92573 0.06902 0.0
Co406 Co 0.87068 0.63424 0.79354 0.0
O407 O 0.83667 0.58613 0.78743 0.0
O408 O 0.89169 0.60367 0.76902 0.0
C409 C 0.87528 0.62347 0.8293 0.0
O410 O 0.916 0.67849 0.79547 0.0
Co411 Co 0.84226 0.70552 0.82328 0.0
O412 O 0.89668 0.73022 0.81703 0.0
C413 C 0.80808 0.69997 0.78003 0.0
C414 C 0.86259 0.577 0.77234 0.0
C415 C 0.9231 0.71318 0.80486 0.0
O416 O 0.83431 0.67148 0.77494 0.0
O417 O 0.80371 0.71394 0.79896 0.0
O418 O 0.89877 0.60323 0.8162 0.0
O419 O 0.84793 0.64658 0.82047 0.0
Co420 Co 0.12029 0.11742 0.54285 0.0
O421 O 0.16541 0.07973 0.53627 0.0
O422 O 0.15152 0.13578 0.51796 0.0
C423 C 0.13362 0.12065 0.57857 0.0
O424 O 0.07968 0.16617 0.54516 0.0
Co425 Co 0.04815 0.09593 0.57395 0.0
O426 O 0.03305 0.15452 0.57112 0.0
C427 C 0.04939 0.06031 0.5306 0.0
C428 C 0.17611 0.10485 0.52112 0.0
C429 C 0.04926 0.17777 0.55708 0.0
O430 O 0.07997 0.08355 0.52498 0.0
O431 O 0.03491 0.05868 0.54957 0.0
O432 O 0.15472 0.14243 0.56505 0.0
O433 O 0.10722 0.09612 0.56998 0.0
Co434 Co 0.63657 0.36408 0.29367 0.0
O435 O 0.67338 0.40984 0.28682 0.0
O436 O 0.61461 0.39785 0.27048 0.0
C437 C 0.64082 0.37358 0.32993 0.0
O438 O 0.58758 0.32374 0.29645 0.0
Co439 Co 0.65943 0.28842 0.32086 0.0
O440 O 0.60048 0.27472 0.32084 0.0
C441 C 0.69088 0.29486 0.27702 0.0
C442 C 0.64653 0.42149 0.27267 0.0
C443 C 0.57625 0.2926 0.30788 0.0
O444 O 0.66734 0.32615 0.27313 0.0
O445 O 0.69424 0.27798 0.29534 0.0
O446 O 0.61555 0.39513 0.3183 0.0
O447 O 0.66287 0.34789 0.31927 0.0
C448 C 0.97682 0.49432 0.99142 0.0
C449 C 0.98234 0.53761 0.99082 0.0
C450 C 0.0428 0.53133 0.01425 0.0
C451 C 0.03609 0.48832 0.01568 0.0
N452 N 0.99357 0.42927 0.00835 0.0
N453 N 0.0168 0.59837 0.00355 0.0
C454 C 1.00226 0.46988 0.00496 0.0
C455 C 0.01413 0.55643 0.00292 0.0
N456 N 0.94766 0.47654 0.97867 0.0
N457 N 0.07736 0.54786 0.0233 0.0
H458 H 0.99668 0.61752 0.99521 0.0
H459 H 0.03669 0.61443 0.01354 0.0
H460 H 0.09899 0.5301 0.03149 0.0
H461 H 0.08651 0.57826 0.02132 0.0
H462 H 0.94539 0.44499 0.97615 0.0
H463 H 0.92664 0.49369 0.96974 0.0
H464 H 0.96672 0.41499 0.00314 0.0
H465 H 0.01224 0.41013 0.01757 0.0
C466 C 0.76334 0.72298 0.24019 0.0
C467 C 0.71985 0.72573 0.2422 0.0
C468 C 0.72772 0.78193 0.2681 0.0
C469 C 0.77119 0.77779 0.26693 0.0
N470 N 0.83057 0.74026 0.25457 0.0
N471 N 0.6604 0.75306 0.26018 0.0
C472 C 0.7891 0.74724 0.25365 0.0
C473 C 0.702 0.75368 0.25691 0.0
N474 N 0.77997 0.69757 0.22508 0.0
N475 N 0.71116 0.8139 0.2794 0.0
H476 H 0.64083 0.73292 0.25214 0.0
H477 H 0.64559 0.76985 0.27207 0.0
H478 H 0.72922 0.83542 0.28747 0.0
H479 H 0.68001 0.82134 0.27933 0.0
H480 H 0.81093 0.69791 0.22078 0.0
H481 H 0.76224 0.67722 0.21604 0.0
H482 H 0.845 0.71537 0.24728 0.0
H483 H 0.8505 0.75796 0.26383 0.0
C484 C 0.50335 0.46373 0.50091 0.0
C485 C 0.53758 0.47994 0.4896 0.0
C486 C 0.52031 0.54953 0.50198 0.0
C487 C 0.48747 0.53305 0.51424 0.0
N488 N 0.44993 0.47446 0.52747 0.0
N489 N 0.5825 0.53644 0.48139 0.0
C490 C 0.47966 0.49009 0.5143 0.0
C491 C 0.54714 0.52241 0.49073 0.0
N492 N 0.4926 0.42342 0.49817 0.0
N493 N 0.52554 0.5912 0.501 0.0
H494 H 0.60281 0.51705 0.47329 0.0
H495 H 0.59359 0.56626 0.48307 0.0
H496 H 0.50676 0.61174 0.50928 0.0
H497 H 0.54631 0.60573 0.49085 0.0
H498 H 0.46522 0.41076 0.50376 0.0
H499 H 0.51022 0.40284 0.48924 0.0
H500 H 0.44603 0.4432 0.53038 0.0
H501 H 0.43018 0.49303 0.5364 0.0
C502 C 0.79963 0.24358 0.74458 0.0
C503 C 0.78277 0.27765 0.73341 0.0
C504 C 0.71327 0.25801 0.74522 0.0
C505 C 0.73048 0.22613 0.75783 0.0
N506 N 0.78985 0.18991 0.77108 0.0
N507 N 0.7248 0.32048 0.72472 0.0
C508 C 0.77365 0.21924 0.75787 0.0
C509 C 0.73984 0.28566 0.73415 0.0
N510 N 0.84017 0.23354 0.74182 0.0
N511 N 0.67143 0.26163 0.74384 0.0
H512 H 0.74368 0.34149 0.71679 0.0
H513 H 0.69451 0.33047 0.72618 0.0
H514 H 0.6514 0.24183 0.75183 0.0
H515 H 0.65644 0.28177 0.73353 0.0
H516 H 0.85328 0.20636 0.74736 0.0
H517 H 0.86048 0.25137 0.73284 0.0
H518 H 0.82121 0.18675 0.77409 0.0
H519 H 0.77155 0.16965 0.77985 0.0
C520 C 0.02073 0.46358 0.50334 0.0
C521 C 0.9862 0.4804 0.51419 0.0
C522 C 1.00174 0.54867 0.49942 0.0
C523 C 0.03736 0.53222 0.48943 0.0
N524 N 0.08428 0.47618 0.48379 0.0
N525 N 0.94573 0.53911 0.52464 0.0
C526 C 0.04785 0.49021 0.49196 0.0
C527 C 0.97729 0.52305 0.51281 0.0
N528 N 0.02729 0.42206 0.50385 0.0
N529 N 0.99056 0.58849 0.49544 0.0
H530 H 0.92548 0.52089 0.53347 0.0
H531 H 0.94064 0.57048 0.52656 0.0
H532 H 0.00876 0.60869 0.48658 0.0
H533 H 0.96245 0.60112 0.49997 0.0
H534 H 0.04945 0.40703 0.49475 0.0
H535 H 0.00848 0.4019 0.51237 0.0
H536 H 0.09595 0.44687 0.4865 0.0
H537 H 0.10471 0.49522 0.47556 0.0
C538 C 0.77561 0.78021 0.73901 0.0
C539 C 0.73212 0.77554 0.73967 0.0
C540 C 0.73998 0.71538 0.76316 0.0
C541 C 0.78324 0.72148 0.76348 0.0
N542 N 0.84217 0.76274 0.75417 0.0
N543 N 0.67224 0.74227 0.7542 0.0
C544 C 0.80107 0.75465 0.75197 0.0
C545 C 0.71413 0.74421 0.75239 0.0
N546 N 0.79258 0.80877 0.7256 0.0
N547 N 0.72387 0.68126 0.7728 0.0
H548 H 0.65271 0.76282 0.74641 0.0
H549 H 0.65685 0.72269 0.76463 0.0
H550 H 0.74222 0.65948 0.78051 0.0
H551 H 0.69313 0.67257 0.77172 0.0
H552 H 0.82388 0.81032 0.72214 0.0
H553 H 0.77491 0.82999 0.7171 0.0
H554 H 0.85628 0.78927 0.74845 0.0
H555 H 0.86204 0.74389 0.76285 0.0
C556 C 0.52196 0.47154 0.9953 0.0
C557 C 0.48892 0.48814 0.9832 0.0
C558 C 0.5093 0.55801 0.99386 0.0
C559 C 0.53972 0.54117 0.00755 0.0
N560 N 0.57405 0.48232 0.02257 0.0
N561 N 0.44813 0.54621 0.97232 0.0
C562 C 0.54588 0.49799 0.00853 0.0
C563 C 0.48189 0.5312 0.9828 0.0
N564 N 0.53132 0.43068 0.99356 0.0
N565 N 0.50674 0.59971 0.9915 0.0
H566 H 0.42731 0.52726 0.9643 0.0
H567 H 0.43872 0.57675 0.97294 0.0
H568 H 0.52633 0.61993 0.99948 0.0
H569 H 0.48781 0.61423 0.98042 0.0
H570 H 0.5578 0.41745 0.99992 0.0
H571 H 0.51374 0.41017 0.98458 0.0
H572 H 0.57653 0.4512 0.02622 0.0
H573 H 0.59405 0.50093 0.03134 0.0
C574 C 0.78428 0.26871 0.24328 0.0
C575 C 0.77354 0.22831 0.23661 0.0
C576 C 0.70468 0.23674 0.25214 0.0
C577 C 0.7163 0.276 0.25999 0.0
N578 N 0.76766 0.32843 0.26496 0.0
N579 N 0.72595 0.17172 0.23641 0.0
C580 C 0.75619 0.29188 0.25595 0.0
C581 C 0.73439 0.21167 0.24159 0.0
N582 N 0.82126 0.28507 0.23717 0.0
N583 N 0.66482 0.22399 0.25449 0.0
H584 H 0.74711 0.15282 0.22861 0.0
H585 H 0.69951 0.15621 0.24119 0.0
H586 H 0.64245 0.24208 0.26191 0.0
H587 H 0.65295 0.19737 0.24767 0.0
H588 H 0.82906 0.31587 0.23907 0.0
H589 H 0.84384 0.26801 0.22929 0.0
H590 H 0.79771 0.33951 0.26499 0.0
H591 H 0.7472 0.34711 0.27338 0.0
C592 C 0.2498 0.29681 0.75438 0.0
C593 C 0.28827 0.2795 0.76008 0.0
C594 C 0.26972 0.21508 0.74176 0.0
C595 C 0.23001 0.23131 0.73752 0.0
N596 N 0.18003 0.28532 0.74161 0.0
N597 N 0.33481 0.22185 0.76054 0.0
C598 C 0.2195 0.27165 0.74433 0.0
C599 C 0.29823 0.23853 0.75406 0.0
N600 N 0.24247 0.33742 0.75852 0.0
N601 N 0.28065 0.17785 0.73333 0.0
H602 H 0.35767 0.23906 0.76811 0.0
H603 H 0.34201 0.19078 0.75921 0.0
H604 H 0.26002 0.1591 0.72507 0.0
H605 H 0.31053 0.16634 0.73351 0.0
H606 H 0.21663 0.35326 0.75317 0.0
H607 H 0.2641 0.35637 0.76592 0.0
H608 H 0.1689 0.31282 0.74782 0.0
H609 H 0.15717 0.26734 0.73456 0.0
C610 C 0.25817 0.72223 0.25765 0.0
C611 C 0.21671 0.73499 0.26023 0.0
C612 C 0.23178 0.79942 0.24116 0.0
C613 C 0.27249 0.78557 0.23747 0.0
N614 N 0.32427 0.73283 0.24037 0.0
N615 N 0.1622 0.78283 0.25271 0.0
C616 C 0.28567 0.74672 0.2453 0.0
C617 C 0.20301 0.77283 0.25143 0.0
N618 N 0.27149 0.68727 0.26764 0.0
N619 N 0.22102 0.8383 0.23502 0.0
H620 H 0.14059 0.76363 0.25997 0.0
H621 H 0.14905 0.8082 0.24525 0.0
H622 H 0.24178 0.85828 0.22766 0.0
H623 H 0.19296 0.85204 0.23865 0.0
H624 H 0.30229 0.67873 0.26876 0.0
H625 H 0.25162 0.66743 0.27572 0.0
H626 H 0.33423 0.70288 0.24312 0.0
H627 H 0.34611 0.75101 0.23261 0.0
C628 C 0.28851 0.26721 0.25711 0.0
C629 C 0.2714 0.23278 0.26789 0.0
C630 C 0.20203 0.25383 0.25648 0.0
C631 C 0.21953 0.28576 0.24401 0.0
N632 N 0.27918 0.3219 0.23111 0.0
N633 N 0.21287 0.19061 0.27646 0.0
C634 C 0.26275 0.29228 0.24405 0.0
C635 C 0.22833 0.22547 0.26726 0.0
N636 N 0.32916 0.27671 0.25993 0.0
N637 N 0.16017 0.25078 0.25796 0.0
H638 H 0.23146 0.16913 0.28424 0.0
H639 H 0.18243 0.18111 0.27499 0.0
H640 H 0.14035 0.2711 0.25019 0.0
H641 H 0.14501 0.23062 0.26819 0.0
H642 H 0.34255 0.30391 0.25462 0.0
H643 H 0.34921 0.25841 0.26881 0.0
H644 H 0.31056 0.32495 0.22815 0.0
H645 H 0.26099 0.34257 0.22253 0.0
C646 C 0.27536 0.78833 0.764 0.0
C647 C 0.23221 0.7817 0.76256 0.0
C648 C 0.24418 0.72205 0.73928 0.0
C649 C 0.28706 0.73027 0.73959 0.0
N650 N 0.34362 0.77359 0.75007 0.0
N651 N 0.17481 0.74595 0.74693 0.0
C652 C 0.30273 0.764 0.75145 0.0
C653 C 0.21643 0.74968 0.74954 0.0
N654 N 0.29011 0.81748 0.77775 0.0
N655 N 0.23025 0.68714 0.72948 0.0
H656 H 0.15384 0.76563 0.7543 0.0
H657 H 0.16106 0.72577 0.73619 0.0
H658 H 0.25003 0.66617 0.72213 0.0
H659 H 0.19991 0.67699 0.73017 0.0
H660 H 0.3211 0.82059 0.78167 0.0
H661 H 0.27089 0.83763 0.78605 0.0
H662 H 0.35636 0.80053 0.75613 0.0
H663 H 0.36474 0.75533 0.74185 0.0
C664 C 0.49882 0.96414 0.50281 0.0
C665 C 0.53106 0.98146 0.51521 0.0
C666 C 0.5087 0.05092 0.5048 0.0
C667 C 0.47889 0.03351 0.49094 0.0
N668 N 0.44694 0.97388 0.47532 0.0
N669 N 0.57008 0.0405 0.52637 0.0
C670 C 0.4743 0.99015 0.48961 0.0
C671 C 0.53682 0.0247 0.51579 0.0
N672 N 0.49067 0.92299 0.50429 0.0
N673 N 0.50995 0.09261 0.50745 0.0
H674 H 0.59143 0.022 0.53431 0.0
H675 H 0.57862 0.0713 0.52587 0.0
H676 H 0.48987 0.11245 0.49954 0.0
H677 H 0.52828 0.1074 0.51871 0.0
H678 H 0.46472 0.90911 0.49774 0.0
H679 H 0.50874 0.90285 0.51324 0.0
H680 H 0.44564 0.94279 0.47145 0.0
H681 H 0.42648 0.992 0.46656 0.0
C682 C 0.008 0.97177 0.00288 0.0
C683 C 0.03686 0.9872 0.98789 0.0
C684 C 0.01919 0.05808 0.99817 0.0
C685 C 0.98848 0.04261 0.01214 0.0
N686 N 0.94893 0.9857 0.02558 0.0
N687 N 0.06742 0.04451 0.96936 0.0
C688 C 0.98159 0.99965 0.01385 0.0
C689 C 0.04169 0.03027 0.98499 0.0
N690 N 1.00611 0.93042 0.0067 0.0
N691 N 0.02793 0.09919 0.99814 0.0
H692 H 0.08634 0.02517 0.96038 0.0
H693 H 0.06863 0.07512 0.96455 0.0
H694 H 0.0111 0.12053 0.00699 0.0
H695 H 0.05316 0.11197 0.99034 0.0
H696 H 0.98867 0.91729 0.01886 0.0
H697 H 0.0247 0.9092 0.99877 0.0
H698 H 0.93954 0.95513 0.02598 0.0
H699 H 0.92875 1.00546 0.03352 0.0
C700 C 0.50817 0.05956 0.00159 0.0
C701 C 0.53921 0.04185 0.98855 0.0
C702 C 0.52077 0.97297 0.00166 0.0
C703 C 0.48781 0.99045 0.01347 0.0
N704 N 0.44661 0.04903 0.02304 0.0
N705 N 0.57347 0.98194 0.97455 0.0
C706 C 0.48061 0.03345 0.013 0.0
C707 C 0.54506 0.99857 0.98816 0.0
N708 N 0.50522 0.10139 0.00305 0.0
N709 N 0.52976 0.93213 0.00399 0.0
H710 H 0.59381 0.99983 0.96559 0.0
H711 H 0.57576 0.95063 0.97134 0.0
H712 H 0.51182 0.91217 0.01312 0.0
H713 H 0.55622 0.91835 0.99794 0.0
H714 H 0.48599 0.11659 0.01374 0.0
H715 H 0.5245 0.12123 0.99464 0.0
H716 H 0.43706 0.07945 0.0218 0.0
H717 H 0.42577 0.03054 0.03133 0.0
C718 C 0.04404 0.99295 0.51136 0.0
C719 C 0.02871 0.03325 0.5148 0.0
C720 C 0.96461 0.01527 0.49596 0.0
C721 C 0.9813 0.97615 0.49107 0.0
N722 N 0.03726 0.92766 0.49286 0.0
N723 N 0.97667 0.08471 0.509 0.0
C724 C 0.0211 0.96494 0.49853 0.0
C725 C 0.9895 0.0449 0.50675 0.0
N726 N 0.07998 0.98112 0.52096 0.0
N727 N 0.92483 0.0238 0.49038 0.0
H728 H 0.99436 0.10704 0.51669 0.0
H729 H 0.95022 0.09659 0.50196 0.0
H730 H 0.90614 1.0026 0.48248 0.0
H731 H 0.90919 0.05027 0.49497 0.0
H732 H 0.09054 0.95093 0.52135 0.0
H733 H 0.09851 1.00136 0.52961 0.0
H734 H 0.06784 0.91939 0.49528 0.0
H735 H 0.02023 0.90524 0.48484 0.0
C736 C 1.00678 0.24789 0.03637 0.0
C737 C 0.99055 0.23053 0.05544 0.0
C738 C 0.02043 0.28732 0.07602 0.0
C739 C 0.03303 0.30731 0.05683 0.0
N740 N 0.02967 0.30969 0.01824 0.0
N741 N 0.9722 0.24041 0.09243 0.0
C742 C 0.02388 0.28845 0.03682 0.0
C743 C 0.99439 0.25237 0.07493 0.0
N744 N 0.00741 0.22527 0.018 0.0
N745 N 0.03479 0.3003 0.0954 0.0
H746 H 0.95144 0.21593 0.0921 0.0
H747 H 0.97088 0.25764 0.10646 0.0
H748 H 0.05527 0.32463 0.09722 0.0
H749 H 0.03005 0.28387 0.10949 0.0
H750 H 0.023 0.23456 0.00428 0.0
H751 H 0.99526 0.19568 0.017 0.0
H752 H 0.01952 0.29904 0.00345 0.0
H753 H 0.04091 0.33965 0.01775 0.0
C754 C 0.01617 0.74893 0.28746 0.0
C755 C 0.03382 0.73411 0.30677 0.0
C756 C 0.97639 0.76421 0.32686 0.0
C757 C 0.95623 0.77546 0.30748 0.0
N758 N 0.95392 0.76973 0.26897 0.0
N759 N 0.02425 0.71786 0.34402 0.0
C760 C 0.97529 0.76543 0.28763 0.0
C761 C 0.01188 0.73877 0.32619 0.0
N762 N 0.0388 0.74878 0.26907 0.0
N763 N 0.96304 0.77928 0.34604 0.0
H764 H 0.04934 0.69781 0.34407 0.0
H765 H 1.0068 0.71676 0.35798 0.0
H766 H 0.93832 0.79939 0.34757 0.0
H767 H 0.97943 0.77545 0.36023 0.0
H768 H 0.02927 0.76343 0.25511 0.0
H769 H 0.06857 0.73697 0.26824 0.0
H770 H 0.96477 0.75892 0.25435 0.0
H771 H 0.9237 0.78031 0.26833 0.0
C772 C 0.50168 0.7371 0.53623 0.0
C773 C 0.48962 0.71863 0.55588 0.0
C774 C 0.52308 0.77488 0.57531 0.0
C775 C 0.53056 0.79617 0.5559 0.0
N776 N 0.52013 0.8001 0.51774 0.0
N777 N 0.47939 0.72711 0.59391 0.0
C778 C 0.51803 0.77799 0.53626 0.0
C779 C 0.49756 0.73963 0.57532 0.0
N780 N 0.49922 0.71525 0.51765 0.0
N781 N 0.54175 0.78708 0.59382 0.0
H782 H 0.4595 0.70206 0.59484 0.0
H783 H 0.48039 0.74465 0.60783 0.0
H784 H 0.5616 0.81215 0.59474 0.0
H785 H 0.54123 0.76921 0.60763 0.0
H786 H 0.51163 0.72557 0.50327 0.0
H787 H 0.4881 0.68524 0.51695 0.0
H788 H 0.50736 0.79 0.5034 0.0
H789 H 0.53133 0.83007 0.51709 0.0
C790 C 0.52905 0.24448 0.78545 0.0
C791 C 0.54812 0.23298 0.80504 0.0
C792 C 0.49262 0.26752 0.82467 0.0
C793 C 0.47088 0.27471 0.80537 0.0
N794 N 0.46552 0.26305 0.76737 0.0
N795 N 0.54101 0.22395 0.84316 0.0
C796 C 0.48829 0.26132 0.78569 0.0
C797 C 0.5278 0.24171 0.8246 0.0
N798 N 0.55022 0.24097 0.76669 0.0
N799 N 0.4808 0.28677 0.84308 0.0
H800 H 0.56555 0.20327 0.84379 0.0
H801 H 0.52437 0.2259 0.85736 0.0
H802 H 0.4562 0.30736 0.84378 0.0
H803 H 0.49861 0.28605 0.85691 0.0
H804 H 0.53956 0.25297 0.75228 0.0
H805 H 0.58001 0.22922 0.76583 0.0
H806 H 0.475 0.24975 0.75305 0.0
H807 H 0.43559 0.27457 0.7669 0.0
C808 C 0.98783 0.76786 0.43193 0.0
C809 C 0.98742 0.79035 0.45124 0.0
C810 C 0.02283 0.73279 0.46892 0.0
C811 C 0.02904 0.71358 0.44866 0.0
N812 N 0.026 0.72044 0.4101 0.0
N813 N 0.00802 0.79629 0.48802 0.0
C814 C 0.01394 0.73327 0.42993 0.0
C815 C 1.00595 0.77343 0.46977 0.0
N816 N 0.96229 0.77886 0.41558 0.0
N817 N 0.031 0.71178 0.48733 0.0
H818 H 0.99468 0.82538 0.48926 0.0
H819 H 0.02511 0.78746 0.50134 0.0
H820 H 0.04163 0.68158 0.4875 0.0
H821 H 0.0234 0.72292 0.50243 0.0
H822 H 0.95919 0.76153 0.40166 0.0
H823 H 0.94037 0.80205 0.41726 0.0
H824 H 0.01873 0.7366 0.39622 0.0
H825 H 0.04725 0.69693 0.40764 0.0
C826 C 0.52777 0.76707 0.67545 0.0
C827 C 0.54896 0.77499 0.69484 0.0
C828 C 0.48997 0.74583 0.71456 0.0
C829 C 0.47171 0.73323 0.69494 0.0
N830 N 0.48046 0.7223 0.65705 0.0
N831 N 0.55272 0.76526 0.73306 0.0
C832 C 0.49276 0.74107 0.6755 0.0
C833 C 0.53074 0.76261 0.71452 0.0
N834 N 0.53988 0.78583 0.65697 0.0
N835 N 0.46801 0.74341 0.73312 0.0
H836 H 0.58254 0.77694 0.73372 0.0
H837 H 0.54267 0.7526 0.74743 0.0
H838 H 0.43814 0.73183 0.73383 0.0
H839 H 0.4781 0.75621 0.74745 0.0
H840 H 0.52238 0.78449 0.64303 0.0
H841 H 0.5642 0.80674 0.65627 0.0
H842 H 0.49775 0.72365 0.64305 0.0
H843 H 0.45611 0.70141 0.65643 0.0
C844 C 0.52232 0.24382 0.96445 0.0
C845 C 0.53423 0.22485 0.94489 0.0
C846 C 0.49934 0.27992 0.92514 0.0
C847 C 0.49173 0.30166 0.94442 0.0
N848 N 0.50275 0.30699 0.98248 0.0
N849 N 0.54308 0.23193 0.9067 0.0
C850 C 0.50501 0.28435 0.96415 0.0
C851 C 0.52536 0.24499 0.9253 0.0
N852 N 0.52584 0.22273 0.98322 0.0
N853 N 0.48038 0.29142 0.90659 0.0
H854 H 0.56308 0.20696 0.90584 0.0
H855 H 0.54154 0.24889 0.89259 0.0
H856 H 0.46049 0.31642 0.90547 0.0
H857 H 0.48082 0.27316 0.89292 0.0
H858 H 0.51354 0.23324 0.99759 0.0
H859 H 0.53785 0.19309 0.98412 0.0
H860 H 0.51602 0.29768 0.99684 0.0
H861 H 0.4908 0.3367 0.98294 0.0
C862 C 0.01712 0.26239 0.21983 0.0
C863 C 0.03615 0.27625 0.20072 0.0
C864 C 0.98204 0.24312 0.17972 0.0
C865 C 0.96019 0.233 0.19864 0.0
N866 N 0.9538 0.24011 0.23695 0.0
N867 N 0.02833 0.29165 0.16333 0.0
C868 C 0.97687 0.24446 0.21886 0.0
C869 C 0.01605 0.27013 0.18092 0.0
N870 N 0.03766 0.26562 0.23877 0.0
N871 N 0.97132 0.22589 0.16059 0.0
H872 H 0.05039 0.31483 0.16428 0.0
H873 H 0.01262 0.29061 0.14881 0.0
H874 H 0.94817 0.20383 0.15913 0.0
H875 H 0.98866 0.22987 0.14672 0.0
H876 H 0.0274 0.25203 0.25287 0.0
H877 H 0.06636 0.27978 0.24001 0.0
H878 H 0.96282 0.25166 0.25175 0.0
H879 H 0.92404 0.22817 0.23687 0.0
C880 C 0.98543 0.74305 0.96979 0.0
C881 C 0.99807 0.71497 0.95347 0.0
C882 C 0.05529 0.76192 0.94563 0.0
C883 C 0.03634 0.79361 0.95743 0.0
N884 N 0.98081 0.81477 0.98039 0.0
N885 N 0.03998 0.70758 0.92121 0.0
C886 C 1.00041 0.78438 0.96935 0.0
C887 C 0.03188 0.72682 0.94015 0.0
N888 N 0.96138 0.73018 0.98638 0.0
N889 N 0.09527 0.76527 0.93925 0.0
H890 H 0.02031 0.68639 0.91414 0.0
H891 H 0.063 0.71772 0.91084 0.0
H892 H 0.11388 0.78988 0.94378 0.0
H893 H 0.11075 0.74133 0.93159 0.0
H894 H 0.95385 0.74913 0.99923 0.0
H895 H 0.95388 0.69944 0.98892 0.0
H896 H 0.95218 0.81055 0.98759 0.0
H897 H 0.99234 0.84468 0.98126 0.0
C898 C 0.98565 0.25967 0.71251 0.0
C899 C 0.96261 0.26006 0.69309 0.0
C900 C 0.01643 0.21629 0.6768 0.0
C901 C 0.04216 0.22255 0.69471 0.0
N902 N 0.05284 0.2533 0.72925 0.0
N903 N 0.96085 0.24151 0.65522 0.0
C904 C 0.02717 0.24497 0.71252 0.0
C905 C 0.97907 0.23881 0.67487 0.0
N906 N 0.96733 0.27117 0.73123 0.0
N907 N 0.02737 0.18798 0.66166 0.0
H908 H 0.93352 0.2567 0.65204 0.0
H909 H 0.97514 0.23158 0.64123 0.0
H910 H 0.05436 0.17065 0.66259 0.0
H911 H 0.00769 0.17847 0.64947 0.0
H912 H 0.98145 0.26797 0.74608 0.0
H913 H 0.93635 0.27921 0.73229 0.0
H914 H 0.04523 0.27356 0.74152 0.0
H915 H 0.08293 0.24222 0.73003 0.0
C916 C 0.51084 0.27778 0.43006 0.0
C917 C 0.52596 0.29734 0.44883 0.0
C918 C 0.50283 0.23741 0.46985 0.0
C919 C 0.48457 0.22046 0.45126 0.0
N920 N 0.45936 0.23209 0.41564 0.0
N921 N 0.52778 0.299 0.48749 0.0
C922 C 0.48486 0.24309 0.432 0.0
C923 C 0.51967 0.27805 0.46906 0.0
N924 N 0.52284 0.29076 0.41025 0.0
N925 N 0.50464 0.21459 0.48812 0.0
H926 H 0.53841 0.3292 0.4877 0.0
H927 H 0.52012 0.28784 0.50258 0.0
H928 H 0.49104 0.18564 0.48934 0.0
H929 H 0.52161 0.22334 0.50149 0.0
H930 H 0.51562 0.27463 0.39636 0.0
H931 H 0.54396 0.31438 0.40779 0.0
H932 H 0.45617 0.2495 0.40174 0.0
H933 H 0.43754 0.20881 0.41728 0.0
C934 C 0.48084 0.77784 0.21792 0.0
C935 C 0.45506 0.769 0.19997 0.0
C936 C 0.50248 0.71323 0.1906 0.0
C937 C 0.53233 0.72831 0.20495 0.0
N938 N 0.55087 0.77823 0.23166 0.0
N939 N 0.45237 0.73574 0.1651 0.0
C940 C 0.5219 0.76184 0.21838 0.0
C941 C 0.46878 0.7386 0.18514 0.0
N942 N 0.46597 0.79915 0.23505 0.0
N943 N 0.506 0.67485 0.18209 0.0
H944 H 0.43244 0.75768 0.15876 0.0
H945 H 0.46373 0.71519 0.15373 0.0
H946 H 0.52898 0.65445 0.1869 0.0
H947 H 0.48332 0.66213 0.17231 0.0
H948 H 0.48297 0.80358 0.24898 0.0
H949 H 0.43521 0.80763 0.23659 0.0
H950 H 0.5461 0.80532 0.24021 0.0
H951 H 0.58039 0.76586 0.23305 0.0
C952 C 0.01033 0.28202 0.5758 0.0
C953 C 0.99526 0.30012 0.55649 0.0
C954 C 0.01626 0.23742 0.53699 0.0
C955 C 0.03364 0.22102 0.556 0.0
N956 N 0.05559 0.23235 0.59234 0.0
N957 N 0.99401 0.29835 0.51788 0.0
C958 C 0.03324 0.24483 0.57498 0.0
C959 C 1.00103 0.27872 0.53683 0.0
N960 N 1.0012 0.29882 0.59526 0.0
N961 N 0.01274 0.21314 0.51928 0.0
H962 H 0.98478 0.32897 0.51692 0.0
H963 H 1.00161 0.28572 0.50311 0.0
H964 H 0.02352 0.18297 0.51874 0.0
H965 H 0.99609 0.22176 0.50578 0.0
H966 H 1.00657 0.28366 0.60966 0.0
H967 H 0.9847 0.3258 0.59741 0.0
H968 H 0.06112 0.25101 0.60556 0.0
H969 H 0.07194 0.20485 0.59279 0.0
C970 C 0.47389 0.24643 0.28813 0.0
C971 C 0.45521 0.23607 0.30804 0.0
C972 C 0.51119 0.27252 0.32656 0.0
C973 C 0.5329 0.27713 0.30707 0.0
N974 N 0.53725 0.26256 0.26933 0.0
N975 N 0.46288 0.23165 0.34655 0.0
C976 C 0.51487 0.26258 0.28781 0.0
C977 C 0.47571 0.24709 0.32736 0.0
N978 N 0.45211 0.24271 0.26957 0.0
N979 N 0.52387 0.29331 0.34437 0.0
H980 H 0.43847 0.21118 0.34815 0.0
H981 H 0.47951 0.23547 0.36066 0.0
H982 H 0.54901 0.31329 0.34433 0.0
H983 H 0.50658 0.29441 0.35838 0.0
H984 H 0.46281 0.25368 0.25494 0.0
H985 H 0.42169 0.23266 0.26905 0.0
H986 H 0.52731 0.24812 0.2554 0.0
H987 H 0.5672 0.27389 0.26841 0.0
C988 C 0.49686 0.78712 0.03113 0.0
C989 C 0.4905 0.80576 0.05152 0.0
C990 C 0.52989 0.7498 0.06801 0.0
C991 C 0.53029 0.72802 0.04848 0.0
N992 N 0.51077 0.72404 0.01148 0.0
N993 N 0.49242 0.79745 0.09004 0.0
C994 C 0.51274 0.7461 0.03 0.0
C995 C 0.50464 0.78502 0.07017 0.0
N996 N 0.48987 0.809 0.01286 0.0
N997 N 0.55458 0.73744 0.08446 0.0
H998 H 0.47164 0.82132 0.09261 0.0
H999 H 0.49905 0.78077 0.10385 0.0
H1000 H 0.57577 0.71359 0.08275 0.0
H1001 H 0.55779 0.75412 0.09858 0.0
H1002 H 0.49766 0.7982 0.99772 0.0
H1003 H 0.48018 0.83952 0.01288 0.0
H1004 H 0.49428 0.73373 0.99812 0.0
H1005 H 0.52362 0.69477 0.01004 0.0
C1006 C 0.98252 0.75395 0.82038 0.0
C1007 C 0.96423 0.73407 0.8024 0.0
C1008 C 0.02552 0.75286 0.78111 0.0
C1009 C 0.04124 0.7755 0.79864 0.0
N1010 N 0.02745 0.80854 0.83226 0.0
N1011 N 0.96486 0.72455 0.764 0.0
C1012 C 0.01727 0.77963 0.81736 0.0
C1013 C 0.98476 0.73622 0.78224 0.0
N1014 N 0.96866 0.74658 0.84065 0.0
N1015 N 0.04955 0.74688 0.76351 0.0
H1016 H 0.93437 0.71469 0.7638 0.0
H1017 H 0.97712 0.72893 0.74879 0.0
H1018 H 0.07857 0.76029 0.76192 0.0
H1019 H 0.04167 0.7268 0.7512 0.0
H1020 H 0.98384 0.7574 0.85421 0.0
H1021 H 0.94538 0.72577 0.84424 0.0
H1022 H 0.00904 0.81507 0.84548 0.0
H1023 H 0.05145 0.82936 0.82992 0.0
C1024 C 0.26465 0.41395 0.97778 0.0
C1025 C 0.30226 0.4158 0.98952 0.0
C1026 C 0.26227 0.41594 0.02302 0.0
C1027 C 0.22468 0.41729 0.01124 0.0
N1028 N 0.19078 0.42577 0.97735 0.0
N1029 N 0.3363 0.42673 0.02319 0.0
C1030 C 0.22614 0.41868 0.98859 0.0
C1031 C 0.30084 0.41917 0.01211 0.0
N1032 N 0.26539 0.40549 0.95639 0.0
N1033 N 0.26144 0.40936 0.04459 0.0
H1034 H 0.36492 0.42956 0.01577 0.0
H1035 H 0.33684 0.43407 0.03938 0.0
H1036 H 0.23432 0.40618 0.05329 0.0
H1037 H 0.28768 0.40327 0.05361 0.0
H1038 H 0.23906 0.39901 0.94751 0.0
H1039 H 0.29246 0.40109 0.94779 0.0
H1040 H 0.19034 0.43169 0.96099 0.0
H1041 H 0.16222 0.42972 0.98468 0.0
C1042 C 0.84629 1.00455 0.22687 0.0
C1043 C 0.84353 0.04196 0.23864 0.0
C1044 C 0.84368 1.00206 0.27212 0.0
C1045 C 0.84343 0.9645 0.26033 0.0
N1046 N 0.83624 0.9305 0.22638 0.0
N1047 N 0.83071 0.0756 0.27222 0.0
C1048 C 0.84233 0.96594 0.23766 0.0
C1049 C 0.83956 0.04042 0.26119 0.0
N1050 N 0.85483 1.00563 0.20549 0.0
N1051 N 0.85027 1.00151 0.29369 0.0
H1052 H 0.82709 0.10407 0.26477 0.0
H1053 H 0.82293 0.07588 0.28837 0.0
H1054 H 0.8545 0.97462 0.30242 0.0
H1055 H 0.85554 0.02794 0.30267 0.0
H1056 H 0.86199 0.97957 0.19658 0.0
H1057 H 0.85837 0.03287 0.19694 0.0
H1058 H 0.83068 0.92993 0.21 0.0
H1059 H 0.83281 0.9019 0.23371 0.0
C1060 C 0.26056 0.6057 0.47776 0.0
C1061 C 0.2233 0.60366 0.48975 0.0
C1062 C 0.26387 0.60515 0.52302 0.0
C1063 C 0.30119 0.60417 0.51103 0.0
N1064 N 0.33465 0.59539 0.47703 0.0
N1065 N 0.19006 0.59312 0.52367 0.0
C1066 C 0.29936 0.60209 0.4884 0.0
C1067 C 0.22518 0.60095 0.51236 0.0
N1068 N 0.25913 0.61322 0.45628 0.0
N1069 N 0.26504 0.61231 0.54454 0.0
H1070 H 0.16136 0.58956 0.51643 0.0
H1071 H 0.18995 0.58624 0.53993 0.0
H1072 H 0.29228 0.61625 0.55305 0.0
H1073 H 0.23888 0.61815 0.55367 0.0
H1074 H 0.2851 0.6198 0.44715 0.0
H1075 H 0.23173 0.61659 0.44782 0.0
H1076 H 0.33493 0.58905 0.46072 0.0
H1077 H 0.36342 0.59228 0.48425 0.0
C1078 C 0.65111 1.00461 0.77308 0.0
C1079 C 0.6597 0.04159 0.76178 0.0
C1080 C 0.6679 1.00123 0.7287 0.0
C1081 C 0.66209 0.96377 0.74026 0.0
N1082 N 0.65716 0.93022 0.77449 0.0
N1083 N 0.68365 0.07432 0.72968 0.0
C1084 C 0.65622 0.96565 0.76277 0.0
C1085 C 0.67036 0.03958 0.73985 0.0
N1086 N 0.63648 1.00668 0.79351 0.0
N1087 N 0.6687 1.00072 0.70689 0.0
H1088 H 0.68516 0.1029 0.73721 0.0
H1089 H 0.69648 0.07419 0.71443 0.0
H1090 H 0.66665 0.97388 0.698 0.0
H1091 H 0.66772 0.02717 0.69753 0.0
H1092 H 0.6253 0.98132 0.80184 0.0
H1093 H 0.63201 0.03445 0.80147 0.0
H1094 H 0.65733 0.92975 0.79113 0.0
H1095 H 0.66209 0.90139 0.76766 0.0
C1096 C 0.72215 0.60692 0.99002 0.0
C1097 C 0.72136 0.61 0.01266 0.0
C1098 C 0.79743 0.60785 0.01297 0.0
C1099 C 0.79817 0.60981 0.99028 0.0
N1100 N 0.7605 0.61779 0.95727 0.0
N1101 N 0.75872 0.61929 0.04561 0.0
C1102 C 0.76031 0.6108 0.97881 0.0
C1103 C 0.75916 0.61175 0.02414 0.0
N1104 N 0.68642 0.59923 0.97921 0.0
N1105 N 0.83323 0.60107 0.02388 0.0
H1106 H 0.73163 0.62286 0.05432 0.0
H1107 H 0.78512 0.62557 0.05447 0.0
H1108 H 0.86161 0.5977 0.01627 0.0
H1109 H 0.8343 0.59494 0.0402 0.0
H1110 H 0.68544 0.59224 0.96298 0.0
H1111 H 0.65808 0.59587 0.98686 0.0
H1112 H 0.73395 0.62346 0.94843 0.0
H1113 H 0.7874 0.62182 0.94846 0.0
C1114 C 0.16964 0.96665 0.74069 0.0
C1115 C 0.16198 0.96556 0.763 0.0
C1116 C 0.16141 0.04158 0.76344 0.0
C1117 C 0.1638 0.04254 0.74077 0.0
N1118 N 0.16442 1.00473 0.70752 0.0
N1119 N 0.14462 1.00231 0.79523 0.0
C1120 C 0.16677 1.00472 0.72932 0.0
C1121 C 0.15657 1.00316 0.77431 0.0
N1122 N 0.18059 0.93128 0.73036 0.0
N1123 N 0.16497 0.0774 0.77469 0.0
H1124 H 0.13999 0.97506 0.80363 0.0
H1125 H 0.13569 0.02838 0.8037 0.0
H1126 H 0.16928 0.10585 0.76733 0.0
H1127 H 0.16779 0.07847 0.79126 0.0
H1128 H 0.19101 0.93061 0.71463 0.0
H1129 H 0.18298 0.90301 0.73814 0.0
H1130 H 0.16137 0.97809 0.69844 0.0
H1131 H 0.16186 0.03145 0.6985 0.0
C1132 C 0.79431 0.37593 0.48961 0.0
C1133 C 0.80564 0.40753 0.5042 0.0
C1134 C 0.73615 0.43781 0.50018 0.0
C1135 C 0.7234 0.40338 0.48792 0.0
N1136 N 0.7401 0.3382 0.47158 0.0
N1137 N 0.79312 0.47833 0.51363 0.0
C1138 C 0.7524 0.37199 0.48289 0.0
C1139 C 0.77814 0.44133 0.50684 0.0
N1140 N 0.82425 0.3527 0.48015 0.0
N1141 N 0.70768 0.46649 0.50623 0.0
H1142 H 0.82454 0.48397 0.51528 0.0
H1143 H 0.77556 0.50506 0.51435 0.0
H1144 H 0.67682 0.46497 0.50167 0.0
H1145 H 0.71374 0.48966 0.51727 0.0
H1146 H 0.81856 0.33121 0.4682 0.0
H1147 H 0.85543 0.35959 0.48153 0.0
H1148 H 0.75796 0.31178 0.47007 0.0
H1149 H 0.71095 0.3352 0.46484 0.0
C1150 C 0.31282 0.02833 0.25123 0.0
C1151 C 0.35036 0.04725 0.25768 0.0
C1152 C 0.38803 0.99138 0.23965 0.0
C1153 C 0.35089 0.96917 0.2362 0.0
N1154 N 0.27781 0.96439 0.24299 0.0
N1155 N 0.42373 0.03813 0.26308 0.0
C1156 C 0.31316 0.98709 0.24314 0.0
C1157 C 0.38801 0.02641 0.2533 0.0
N1158 N 0.27687 0.05003 0.25204 0.0
N1159 N 0.4233 0.98046 0.2292 0.0
H1160 H 0.42515 0.06096 0.27471 0.0
H1161 H 0.45097 0.02139 0.26168 0.0
H1162 H 0.4244 0.95723 0.21776 0.0
H1163 H 0.4501 0.99806 0.2299 0.0
H1164 H 0.24933 0.03904 0.24569 0.0
H1165 H 0.27551 0.0807 0.25681 0.0
H1166 H 0.25038 0.97468 0.24977 0.0
H1167 H 0.27693 0.93367 0.23828 0.0
C1168 C 0.75872 0.9041 0.47645 0.0
C1169 C 0.79615 0.908 0.48812 0.0
C1170 C 0.75617 0.91022 0.52159 0.0
C1171 C 0.71855 0.90956 0.50981 0.0
N1172 N 0.68463 0.9143 0.47569 0.0
N1173 N 0.82986 0.92312 0.52143 0.0
C1174 C 0.72007 0.90899 0.48712 0.0
C1175 C 0.7946 0.91362 0.51058 0.0
N1176 N 0.75991 0.89351 0.45534 0.0
N1177 N 0.75563 0.90507 0.54327 0.0
H1178 H 0.8584 0.92592 0.51392 0.0
H1179 H 0.83016 0.93206 0.53741 0.0
H1180 H 0.72871 0.90121 0.55206 0.0
H1181 H 0.78212 0.90059 0.55235 0.0
H1182 H 0.73383 0.88584 0.44653 0.0
H1183 H 0.78732 0.88852 0.44712 0.0
H1184 H 0.68416 0.91849 0.45919 0.0
H1185 H 0.65601 0.91858 0.48291 0.0
C1186 C 0.35158 0.50663 0.72847 0.0
C1187 C 0.35885 0.54382 0.74006 0.0
C1188 C 0.37134 0.5023 0.77245 0.0
C1189 C 0.36073 0.46571 0.76129 0.0
N1190 N 0.33363 0.43405 0.72958 0.0
N1191 N 0.36638 0.57665 0.77436 0.0
C1192 C 0.34862 0.46826 0.73958 0.0
C1193 C 0.3661 0.54147 0.76243 0.0
N1194 N 0.34995 0.50731 0.70667 0.0
N1195 N 0.38809 0.49964 0.79242 0.0
H1196 H 0.36118 0.60567 0.76781 0.0
H1197 H 0.36734 0.5767 0.791 0.0
H1198 H 0.39332 0.47165 0.80001 0.0
H1199 H 0.40048 0.52473 0.80052 0.0
H1200 H 0.34959 0.48087 0.69729 0.0
H1201 H 0.3529 0.53407 0.69776 0.0
H1202 H 0.31983 0.43477 0.71456 0.0
H1203 H 0.33176 0.40545 0.73708 0.0
C1204 C 0.80133 0.11113 0.98825 0.0
C1205 C 0.80343 0.11372 0.01085 0.0
C1206 C 0.72736 0.11146 0.0124 0.0
C1207 C 0.72528 0.11358 0.98977 0.0
N1208 N 0.76094 0.1218 0.95615 0.0
N1209 N 0.76784 0.12249 0.04445 0.0
C1210 C 0.76247 0.11485 0.97768 0.0
C1211 C 0.76626 0.11526 0.02295 0.0
N1212 N 0.83646 0.10387 0.97683 0.0
N1213 N 0.69221 0.10453 0.02386 0.0
H1214 H 0.7953 0.12577 0.05286 0.0
H1215 H 0.74194 0.12879 0.05368 0.0
H1216 H 0.66338 0.10137 0.01671 0.0
H1217 H 0.6921 0.09811 0.04016 0.0
H1218 H 0.83655 0.09709 0.96057 0.0
H1219 H 0.86529 0.10075 0.984 0.0
H1220 H 0.78689 0.12787 0.94691 0.0
H1221 H 0.73353 0.12524 0.94772 0.0
C1222 C 0.15174 0.5459 0.23832 0.0
C1223 C 0.14787 0.54752 0.2609 0.0
C1224 C 0.14926 0.47151 0.26194 0.0
C1225 C 0.14867 0.46983 0.23927 0.0
N1226 N 0.14168 0.50625 0.20588 0.0
N1227 N 0.13421 0.51127 0.29372 0.0
C1228 C 0.14814 0.50729 0.22744 0.0
C1229 C 0.1445 0.51011 0.27259 0.0
N1230 N 0.1596 0.58121 0.22723 0.0
N1231 N 0.15533 0.43626 0.27338 0.0
H1232 H 0.12828 0.53869 0.30169 0.0
H1233 H 0.12717 0.48519 0.30266 0.0
H1234 H 0.15931 0.4076 0.26618 0.0
H1235 H 0.16039 0.436 0.28982 0.0
H1236 H 0.16717 0.58163 0.21106 0.0
H1237 H 0.16211 0.60985 0.23463 0.0
H1238 H 0.13669 0.53243 0.19666 0.0
H1239 H 0.1372 0.47898 0.1975 0.0
C1240 C 0.21793 0.10103 0.48685 0.0
C1241 C 0.2167 0.10117 0.50955 0.0
C1242 C 0.29275 0.09668 0.51009 0.0
C1243 C 0.29407 0.10163 0.48757 0.0
N1244 N 0.25749 0.11476 0.45473 0.0
N1245 N 0.25413 0.10584 0.54286 0.0
C1246 C 0.2565 0.10519 0.47598 0.0
C1247 C 0.25444 0.10044 0.5212 0.0
N1248 N 0.18226 0.09579 0.47561 0.0
N1249 N 0.32813 0.08743 0.52089 0.0
H1250 H 0.22729 0.10964 0.55173 0.0
H1251 H 0.2807 0.11042 0.55186 0.0
H1252 H 0.35657 0.08434 0.51331 0.0
H1253 H 0.32865 0.07896 0.53694 0.0
H1254 H 0.18145 0.09109 0.45915 0.0
H1255 H 0.1537 0.09215 0.48299 0.0
H1256 H 0.23138 0.12228 0.44591 0.0
H1257 H 0.28483 0.11889 0.44631 0.0
C1258 C 0.64606 0.49944 0.27265 0.0
C1259 C 0.65002 0.46196 0.26113 0.0
C1260 C 0.65389 0.50173 0.22757 0.0
C1261 C 0.65297 0.53926 0.23934 0.0
N1262 N 0.65767 0.5731 0.27348 0.0
N1263 N 0.66489 0.4277 0.22796 0.0
C1264 C 0.65195 0.53781 0.26201 0.0
C1265 C 0.65615 0.46324 0.23867 0.0
N1266 N 0.63429 0.49857 0.29359 0.0
N1267 N 0.65021 0.50252 0.20582 0.0
H1268 H 0.66637 0.39916 0.23553 0.0
H1269 H 0.67411 0.42696 0.21203 0.0
H1270 H 0.64791 0.52963 0.19704 0.0
H1271 H 0.64593 0.47625 0.19658 0.0
H1272 H 0.6267 0.52479 0.30229 0.0
H1273 H 0.62783 0.47129 0.3016 0.0
H1274 H 0.66144 0.57347 0.29001 0.0
H1275 H 0.66295 0.60155 0.26628 0.0
C1276 C 0.22502 0.92542 0.00999 0.0
C1277 C 0.22318 0.92098 0.98747 0.0
C1278 C 0.29918 0.92245 0.98619 0.0
C1279 C 0.30088 0.92121 0.00886 0.0
N1280 N 0.26428 0.91468 0.04237 0.0
N1281 N 0.25906 0.90987 0.95415 0.0
C1282 C 0.26349 0.92122 0.02079 0.0
C1283 C 0.26043 0.91841 0.97553 0.0
N1284 N 0.18998 0.93461 0.0211 0.0
N1285 N 0.33454 0.9286 0.9748 0.0
H1286 H 0.23167 0.90639 0.94569 0.0
H1287 H 0.28506 0.90283 0.94514 0.0
H1288 H 0.36324 0.93215 0.98206 0.0
H1289 H 0.33493 0.93413 0.95841 0.0
H1290 H 0.18995 0.94256 0.03722 0.0
H1291 H 0.16145 0.93846 0.01371 0.0
H1292 H 0.23787 0.90962 0.05143 0.0
H1293 H 0.29127 0.91024 0.05102 0.0
C1294 C 0.86088 0.46033 0.76111 0.0
C1295 C 0.86336 0.45949 0.73846 0.0
C1296 C 0.85947 0.53547 0.73805 0.0
C1297 C 0.86126 0.53645 0.76071 0.0
N1298 N 0.87089 0.49927 0.79376 0.0
N1299 N 0.87264 0.49718 0.70553 0.0
C1300 C 0.86374 0.49869 0.77224 0.0
C1301 C 0.86456 0.49734 0.72697 0.0
N1302 N 0.85435 0.42455 0.77204 0.0
N1303 N 0.85151 0.57089 0.72704 0.0
H1304 H 0.87762 0.47037 0.69682 0.0
H1305 H 0.87844 0.52375 0.69676 0.0
H1306 H 0.84719 0.59919 0.73456 0.0
H1307 H 0.84525 0.57157 0.71073 0.0
H1308 H 0.84762 0.42354 0.7883 0.0
H1309 H 0.85189 0.39606 0.76451 0.0
H1310 H 0.87768 0.47302 0.8026 0.0
H1311 H 0.87384 0.52631 0.80254 0.0
C1312 C 0.13817 0.35224 0.1118 0.0
C1313 C 0.14315 0.39248 0.10338 0.0
C1314 C 0.15114 0.41946 0.13995 0.0
C1315 C 0.14047 0.38038 0.14837 0.0
N1316 N 0.12146 0.30987 0.1421 0.0
N1317 N 0.15451 0.46501 0.10937 0.0
C1318 C 0.13405 0.34677 0.13423 0.0
C1319 C 0.14938 0.42631 0.11746 0.0
N1320 N 0.13673 0.31888 0.0985 0.0
N1321 N 0.16588 0.44922 0.15334 0.0
H1322 H 0.15892 0.47102 0.09317 0.0
H1323 H 0.15296 0.49151 0.11867 0.0
H1324 H 0.17031 0.4443 0.16963 0.0
H1325 H 0.17803 0.47708 0.14814 0.0
H1326 H 0.14053 0.28877 0.1038 0.0
H1327 H 0.13293 0.3207 0.08204 0.0
H1328 H 0.11019 0.28586 0.13278 0.0
H1329 H 0.11895 0.30459 0.15827 0.0
C1330 C 0.91732 0.88138 0.38347 0.0
C1331 C 0.88398 0.88972 0.39754 0.0
C1332 C 0.83747 0.89535 0.36664 0.0
C1333 C 0.87109 0.8875 0.35262 0.0
N1334 N 0.9447 0.88042 0.34761 0.0
N1335 N 0.81518 0.91583 0.40208 0.0
C1336 C 0.91151 0.88324 0.36099 0.0
C1337 C 0.84473 0.89958 0.389 0.0
N1338 N 0.95424 0.86909 0.39152 0.0
N1339 N 0.79858 0.89969 0.35859 0.0
H1340 H 0.82031 0.9219 0.41821 0.0
H1341 H 0.78725 0.92751 0.39665 0.0
H1342 H 0.79227 0.90225 0.34233 0.0
H1343 H 0.77221 0.89925 0.36805 0.0
H1344 H 0.97795 0.85659 0.3824 0.0
H1345 H 0.95974 0.86805 0.40773 0.0
H1346 H 0.97495 0.88447 0.35271 0.0
H1347 H 0.94258 0.87525 0.33126 0.0
C1348 C 0.37877 0.58946 0.63757 0.0
C1349 C 0.36704 0.62702 0.64764 0.0
C1350 C 0.37027 0.66165 0.61291 0.0
C1351 C 0.37962 0.624 0.6026 0.0
N1352 N 0.37736 0.54976 0.60491 0.0
N1353 N 0.32973 0.69066 0.64108 0.0
C1354 C 0.37985 0.58714 0.61484 0.0
C1355 C 0.35628 0.6609 0.63432 0.0
N1356 N 0.38673 0.55511 0.64937 0.0
N1357 N 0.37495 0.69835 0.60261 0.0
H1358 H 0.31075 0.68682 0.6543 0.0
H1359 H 0.32037 0.71485 0.63129 0.0
H1360 H 0.38684 0.70095 0.58721 0.0
H1361 H 0.37153 0.72645 0.61045 0.0
H1362 H 0.40175 0.52947 0.64311 0.0
H1363 H 0.37838 0.55206 0.6653 0.0
H1364 H 0.37356 0.52218 0.61315 0.0
H1365 H 0.37345 0.54638 0.58849 0.0
C1366 C 0.6471 0.09276 0.86377 0.0
C1367 C 0.65584 0.13051 0.85318 0.0
C1368 C 0.65205 0.16661 0.88746 0.0
C1369 C 0.64463 0.12905 0.89828 0.0
N1370 N 0.6497 0.05485 0.89703 0.0
N1371 N 0.68964 0.19634 0.85836 0.0
C1372 C 0.64593 0.09155 0.88654 0.0
C1373 C 0.66511 0.16558 0.86589 0.0
N1374 N 0.64246 0.05742 0.85227 0.0
N1375 N 0.64635 0.20351 0.89743 0.0
H1376 H 0.70832 0.19258 0.84503 0.0
H1377 H 0.6981 0.22159 0.86765 0.0
H1378 H 0.63535 0.20628 0.913 0.0
H1379 H 0.64807 0.23141 0.88926 0.0
H1380 H 0.62949 0.03077 0.85861 0.0
H1381 H 0.65186 0.0547 0.83643 0.0
H1382 H 0.65453 0.02693 0.88929 0.0
H1383 H 0.65326 0.05252 0.91353 0.0
C1384 C 0.14049 0.59143 0.36317 0.0
C1385 C 0.14582 0.63075 0.35355 0.0
C1386 C 0.1411 0.66289 0.38885 0.0
C1387 C 0.13767 0.62384 0.39868 0.0
N1388 N 0.14668 0.55031 0.3953 0.0
N1389 N 0.17437 0.69853 0.36018 0.0
C1390 C 0.14051 0.58777 0.38589 0.0
C1391 C 0.15284 0.66516 0.36711 0.0
N1392 N 0.13815 0.55713 0.35071 0.0
N1393 N 0.13283 0.69803 0.39998 0.0
H1394 H 0.19305 0.69732 0.34672 0.0
H1395 H 0.181 0.72356 0.37 0.0
H1396 H 0.12242 0.69802 0.41573 0.0
H1397 H 0.13173 0.72681 0.39265 0.0
H1398 H 0.12752 0.52889 0.3563 0.0
H1399 H 0.14741 0.55704 0.33481 0.0
H1400 H 0.15285 0.52354 0.38677 0.0
H1401 H 0.15039 0.54642 0.41171 0.0
C1402 C 0.66411 0.84902 0.63362 0.0
C1403 C 0.65367 0.88242 0.64737 0.0
C1404 C 0.64187 0.92405 0.61498 0.0
C1405 C 0.64198 0.88789 0.60222 0.0
N1406 N 0.64572 0.81354 0.60122 0.0
N1407 N 0.6343 0.95438 0.64984 0.0
C1408 C 0.65065 0.84962 0.61207 0.0
C1409 C 0.64242 0.92057 0.63768 0.0
N1410 N 0.68977 0.81832 0.64017 0.0
N1411 N 0.64487 0.96191 0.60558 0.0
H1412 H 0.64217 0.95668 0.66585 0.0
H1413 H 0.61953 0.98036 0.6438 0.0
H1414 H 0.64898 0.96607 0.58922 0.0
H1415 H 0.64885 0.98901 0.61421 0.0
H1416 H 0.69895 0.79448 0.6301 0.0
H1417 H 0.7084 0.82096 0.65358 0.0
H1418 H 0.64847 0.78498 0.60868 0.0
H1419 H 0.63416 0.81191 0.58572 0.0
C1420 C 0.35742 0.34903 0.86689 0.0
C1421 C 0.36512 0.38275 0.853 0.0
C1422 C 0.37478 0.42614 0.88483 0.0
C1423 C 0.3777 0.39024 0.89776 0.0
N1424 N 0.37774 0.31581 0.8996 0.0
N1425 N 0.3753 0.45598 0.84943 0.0
C1426 C 0.37091 0.35116 0.88837 0.0
C1427 C 0.37267 0.42204 0.86218 0.0
N1428 N 0.33403 0.31649 0.8605 0.0
N1429 N 0.37046 0.46395 0.89414 0.0
H1430 H 0.3651 0.45612 0.83366 0.0
H1431 H 0.38734 0.48393 0.85463 0.0
H1432 H 0.36772 0.46819 0.91057 0.0
H1433 H 0.3645 0.49074 0.88557 0.0
H1434 H 0.3266 0.29213 0.87061 0.0
H1435 H 0.3151 0.31796 0.84715 0.0
H1436 H 0.37665 0.28685 0.89246 0.0
H1437 H 0.38907 0.31534 0.91516 0.0
C1438 C 0.84706 0.15275 0.13361 0.0
C1439 C 0.87514 0.13318 0.14784 0.0
C1440 C 0.91172 0.10712 0.11655 0.0
C1441 C 0.88832 0.13317 0.10262 0.0
N1442 N 0.84591 0.19508 0.10226 0.0
N1443 N 0.94511 0.10713 0.15085 0.0
C1444 C 0.8598 0.16062 0.11238 0.0
C1445 C 0.91102 0.1152 0.13882 0.0
N1446 N 0.80776 0.16232 0.1395 0.0
N1447 N 0.93295 0.07355 0.10947 0.0
H1448 H 0.9487 0.11765 0.16644 0.0
H1449 H 0.97222 0.09586 0.14409 0.0
H1450 H 0.93006 0.06093 0.09433 0.0
H1451 H 0.9484 0.05399 0.11999 0.0
H1452 H 0.78682 0.17514 0.12874 0.0
H1453 H 0.79414 0.15183 0.15352 0.0
H1454 H 0.82607 0.21582 0.10974 0.0
H1455 H 0.85934 0.20663 0.08841 0.0
C1456 C 0.91523 0.63703 0.86302 0.0
C1457 C 0.87947 0.62125 0.85294 0.0
C1458 C 0.84943 0.6062 0.88822 0.0
C1459 C 0.88342 0.62586 0.89813 0.0
N1460 N 0.94367 0.66828 0.89482 0.0
N1461 N 0.81094 0.59306 0.85568 0.0
C1462 C 0.91506 0.64338 0.88549 0.0
C1463 C 0.84599 0.60667 0.86549 0.0
N1464 N 0.94951 0.64593 0.85126 0.0
N1465 N 0.82121 0.58584 0.9005 0.0
H1466 H 0.80846 0.58948 0.83917 0.0
H1467 H 0.78361 0.58706 0.86379 0.0
H1468 H 0.82238 0.58544 0.91715 0.0
H1469 H 0.7983 0.56697 0.89427 0.0
H1470 H 0.97787 0.65293 0.85813 0.0
H1471 H 0.95063 0.6436 0.83468 0.0
H1472 H 0.96488 0.68559 0.88616 0.0
H1473 H 0.94286 0.67538 0.91102 0.0
C1474 C 0.15349 0.158 0.61272 0.0
C1475 C 0.14097 0.12144 0.6022 0.0
C1476 C 0.13807 0.08652 0.63715 0.0
C1477 C 0.1521 0.12302 0.64749 0.0
N1478 N 0.19515 0.18326 0.64145 0.0
N1479 N 0.13784 0.04721 0.60435 0.0
C1480 C 0.16639 0.1559 0.63433 0.0
C1481 C 0.13758 0.08459 0.61437 0.0
N1482 N 0.15297 0.19508 0.60249 0.0
N1483 N 0.12752 0.05259 0.64873 0.0
H1484 H 0.14261 0.04375 0.58799 0.0
H1485 H 0.13915 0.01933 0.61251 0.0
H1486 H 0.13595 0.04824 0.66457 0.0
H1487 H 0.11062 0.02834 0.64227 0.0
H1488 H 0.15841 0.22267 0.61051 0.0
H1489 H 0.14267 0.19912 0.58689 0.0
H1490 H 0.20734 0.20627 0.63173 0.0
H1491 H 0.21271 0.17842 0.65511 0.0
C1492 C 0.63844 0.34679 0.38902 0.0
C1493 C 0.63539 0.3859 0.39883 0.0
C1494 C 0.63968 0.41826 0.36334 0.0
C1495 C 0.64468 0.37885 0.35378 0.0
N1496 N 0.67173 0.31054 0.36055 0.0
N1497 N 0.64553 0.4593 0.39551 0.0
C1498 C 0.65069 0.34432 0.36737 0.0
C1499 C 0.6391 0.42193 0.38606 0.0
N1500 N 0.62937 0.31179 0.40011 0.0
N1501 N 0.63818 0.45259 0.35085 0.0
H1502 H 0.64876 0.46318 0.41194 0.0
H1503 H 0.65236 0.48597 0.38702 0.0
H1504 H 0.64774 0.45255 0.33499 0.0
H1505 H 0.62783 0.48099 0.35636 0.0
H1506 H 0.62793 0.28303 0.39278 0.0
H1507 H 0.61865 0.31197 0.4158 0.0
H1508 H 0.67765 0.28538 0.37041 0.0
H1509 H 0.69073 0.31142 0.34722 0.0
C1510 C 0.37226 0.92965 0.11371 0.0
C1511 C 0.37824 0.89458 0.10048 0.0
C1512 C 0.35985 0.85045 0.13056 0.0
C1513 C 0.36246 0.88432 0.14488 0.0
N1514 N 0.36847 0.95793 0.14944 0.0
N1515 N 0.38598 0.82083 0.09796 0.0
C1516 C 0.36845 0.92444 0.13628 0.0
C1517 C 0.37476 0.85477 0.10943 0.0
N1518 N 0.36703 0.96761 0.10471 0.0
N1519 N 0.34004 0.81521 0.13621 0.0
H1520 H 0.3982 0.82243 0.08259 0.0
H1521 H 0.38755 0.79158 0.10473 0.0
H1522 H 0.31972 0.81435 0.14895 0.0
H1523 H 0.33643 0.79035 0.12586 0.0
H1524 H 0.3584 0.99356 0.11335 0.0
H1525 H 0.36684 0.97265 0.08827 0.0
H1526 H 0.37908 0.98673 0.14468 0.0
H1527 H 0.3583 0.95692 0.16523 0.0
C1528 C 0.90236 0.35552 0.63346 0.0
C1529 C 0.87887 0.38327 0.6457 0.0
C1530 C 0.8564 0.41732 0.61273 0.0
C1531 C 0.876 0.38589 0.60067 0.0
N1532 N 0.90688 0.31841 0.60028 0.0
N1533 N 0.83008 0.43895 0.64735 0.0
C1534 C 0.89554 0.35285 0.61122 0.0
C1535 C 0.85475 0.41379 0.63545 0.0
N1536 N 0.93313 0.33351 0.64278 0.0
N1537 N 0.8395 0.45039 0.60252 0.0
H1538 H 0.82955 0.43811 0.66402 0.0
H1539 H 0.80853 0.45892 0.64072 0.0
H1540 H 0.83805 0.45265 0.5859 0.0
H1541 H 0.82882 0.4764 0.61046 0.0
H1542 H 0.95424 0.31659 0.63384 0.0
H1543 H 0.94052 0.33646 0.65891 0.0
H1544 H 0.9173 0.29198 0.60803 0.0
H1545 H 0.90256 0.31501 0.58388 0.0
C1546 C 0.33851 0.111 0.36556 0.0
C1547 C 0.37231 0.11981 0.3518 0.0
C1548 C 0.41716 0.12822 0.38306 0.0
C1549 C 0.38362 0.11911 0.39688 0.0
N1550 N 0.31542 0.09124 0.40099 0.0
N1551 N 0.44574 0.12956 0.34743 0.0
C1552 C 0.34502 0.10776 0.38804 0.0
C1553 C 0.41223 0.12572 0.36052 0.0
N1554 N 0.30014 0.10498 0.35714 0.0
N1555 N 0.45335 0.14187 0.39141 0.0
H1556 H 0.444 0.134 0.33101 0.0
H1557 H 0.47595 0.12691 0.35282 0.0
H1558 H 0.45816 0.14344 0.40766 0.0
H1559 H 0.477 0.15492 0.38247 0.0
H1560 H 0.27337 0.10468 0.36629 0.0
H1561 H 0.29465 0.10165 0.34082 0.0
H1562 H 0.2881 0.07845 0.39541 0.0
H1563 H 0.31989 0.08631 0.41728 0.0
C1564 C 0.59928 0.64913 0.13808 0.0
C1565 C 0.63313 0.6317 0.14891 0.0
C1566 C 0.6637 0.61338 0.1141 0.0
C1567 C 0.62746 0.62745 0.10355 0.0
N1568 N 0.55661 0.64892 0.10699 0.0
N1569 N 0.6962 0.59296 0.14758 0.0
C1570 C 0.59402 0.6421 0.116 0.0
C1571 C 0.66515 0.61271 0.137 0.0
N1572 N 0.57323 0.67488 0.14857 0.0
N1573 N 0.69652 0.60024 0.10229 0.0
H1574 H 0.69828 0.59236 0.16421 0.0
H1575 H 0.71823 0.57482 0.14004 0.0
H1576 H 0.69534 0.59697 0.08573 0.0
H1577 H 0.72545 0.59428 0.10873 0.0
H1578 H 0.55068 0.69241 0.14099 0.0
H1579 H 0.57782 0.68231 0.16443 0.0
H1580 H 0.52998 0.65478 0.11579 0.0
H1581 H 0.55178 0.64527 0.09089 0.0
C1582 C 0.1217 0.8453 0.86678 0.0
C1583 C 0.13687 0.87766 0.85375 0.0
C1584 C 0.15098 0.91817 0.88628 0.0
C1585 C 0.13208 0.88708 0.89884 0.0
N1586 N 0.09143 0.82548 0.9003 0.0
N1587 N 0.16482 0.94615 0.85098 0.0
C1588 C 0.11543 0.85184 0.88888 0.0
C1589 C 0.15096 0.91463 0.86349 0.0
N1590 N 0.11366 0.80775 0.85821 0.0
N1591 N 0.17032 0.95025 0.89621 0.0
H1592 H 0.16901 0.94332 0.83454 0.0
H1593 H 0.1706 0.97564 0.85668 0.0
H1594 H 0.1707 0.95382 0.91277 0.0
H1595 H 0.18846 0.97176 0.88828 0.0
H1596 H 0.1079 0.78147 0.86725 0.0
H1597 H 0.11582 0.80244 0.84204 0.0
H1598 H 0.07406 0.80194 0.89351 0.0
H1599 H 0.08559 0.83008 0.91636 0.0
loop_
_geom_bond_atom_site_label_1
_geom_bond_atom_site_label_2
_geom_bond_distance
_geom_bond_site_symmetry_2
_ccdc_geom_bond_type
Co0 O1 2.216 . S
Co0 O2 2.091 . S
Co0 O4 2.004 . S
Co0 O10 2.021 . S
Co0 O12 2.137 . S
Co0 O13 2.244 . S
O1 Co0 2.216 . S
O1 C8 1.247 . S
O2 Co0 2.091 . S
O2 C8 1.261 . S
C3 O12 1.247 . S
C3 O13 1.272 . S
O4 Co0 2.004 . S
O4 C9 1.259 . S
Co5 O6 2.061 . S
Co5 O11 2.052 . S
Co5 O13 2.135 . S
O6 Co5 2.061 . S
O6 C9 1.235 . S
C7 O10 1.238 . S
C7 O11 1.241 . S
C8 O1 1.247 . S
C8 O2 1.261 . S
C9 O4 1.259 . S
C9 O6 1.235 . S
O10 Co0 2.021 . S
O10 C7 1.238 . S
O11 Co5 2.052 . S
O11 C7 1.241 . S
O12 Co0 2.137 . S
O12 C3 1.247 . S
O13 Co0 2.244 . S
O13 C3 1.272 . S
O13 Co5 2.135 . S
Co14 O15 2.216 . S
Co14 O16 2.091 . S
Co14 O18 2.004 . S
Co14 O24 2.021 . S
Co14 O26 2.137 . S
Co14 O27 2.244 . S
O15 Co14 2.216 . S
O15 C22 1.247 . S
O16 Co14 2.091 . S
O16 C22 1.261 . S
C17 O26 1.247 . S
C17 O27 1.272 . S
O18 Co14 2.004 . S
O18 C23 1.259 . S
Co19 O20 2.061 . S
Co19 O25 2.052 . S
Co19 O27 2.135 . S
O20 Co19 2.061 . S
O20 C23 1.235 . S
C21 O24 1.238 . S
C21 O25 1.241 . S
C22 O15 1.247 . S
C22 O16 1.261 . S
C23 O18 1.259 . S
C23 O20 1.235 . S
O24 Co14 2.021 . S
O24 C21 1.238 . S
O25 Co19 2.052 . S
O25 C21 1.241 . S
O26 Co14 2.137 . S
O26 C17 1.247 . S
O27 Co14 2.244 . S
O27 C17 1.272 . S
O27 Co19 2.135 . S
Co28 O29 2.216 . S
Co28 O30 2.091 . S
Co28 O32 2.004 . S
Co28 O38 2.021 . S
Co28 O40 2.137 . S
Co28 O41 2.244 . S
O29 Co28 2.216 . S
O29 C36 1.247 . S
O30 Co28 2.091 . S
O30 C36 1.261 . S
C31 O40 1.247 . S
C31 O41 1.272 . S
O32 Co28 2.004 . S
O32 C37 1.259 . S
Co33 O34 2.061 . S
Co33 O39 2.052 . S
Co33 O41 2.135 . S
O34 Co33 2.061 . S
O34 C37 1.235 . S
C35 O38 1.238 . S
C35 O39 1.241 . S
C36 O29 1.247 . S
C36 O30 1.261 . S
C37 O32 1.259 . S
C37 O34 1.235 . S
O38 Co28 2.021 . S
O38 C35 1.238 . S
O39 Co33 2.052 . S
O39 C35 1.241 . S
O40 Co28 2.137 . S
O40 C31 1.247 . S
O41 Co28 2.244 . S
O41 C31 1.272 . S
O41 Co33 2.135 . S
Co42 O43 2.216 . S
Co42 O44 2.091 . S
Co42 O46 2.004 . S
Co42 O52 2.021 . S
Co42 O54 2.137 . S
Co42 O55 2.244 . S
O43 Co42 2.216 . S
O43 C50 1.247 . S
O44 Co42 2.091 . S
O44 C50 1.261 . S
C45 O54 1.247 . S
C45 O55 1.272 . S
O46 Co42 2.004 . S
O46 C51 1.259 . S
Co47 O48 2.061 . S
Co47 O53 2.052 . S
Co47 O55 2.135 . S
O48 Co47 2.061 . S
O48 C51 1.235 . S
C49 O52 1.238 . S
C49 O53 1.241 . S
C50 O43 1.247 . S
C50 O44 1.261 . S
C51 O46 1.259 . S
C51 O48 1.235 . S
O52 Co42 2.021 . S
O52 C49 1.238 . S
O53 Co47 2.052 . S
O53 C49 1.241 . S
O54 Co42 2.137 . S
O54 C45 1.247 . S
O55 Co42 2.244 . S
O55 C45 1.272 . S
O55 Co47 2.135 . S
Co56 O57 2.216 . S
Co56 O58 2.091 . S
Co56 O60 2.004 . S
Co56 O66 2.021 . S
Co56 O68 2.137 . S
Co56 O69 2.244 . S
O57 Co56 2.216 . S
O57 C64 1.247 . S
O58 Co56 2.091 . S
O58 C64 1.261 . S
C59 O68 1.247 . S
C59 O69 1.272 . S
O60 Co56 2.004 . S
O60 C65 1.259 . S
Co61 O62 2.061 . S
Co61 O67 2.052 . S
Co61 O69 2.135 . S
O62 Co61 2.061 . S
O62 C65 1.235 . S
C63 O66 1.238 . S
C63 O67 1.241 . S
C64 O57 1.247 . S
C64 O58 1.261 . S
C65 O60 1.259 . S
C65 O62 1.235 . S
O66 Co56 2.021 . S
O66 C63 1.238 . S
O67 Co61 2.052 . S
O67 C63 1.241 . S
O68 Co56 2.137 . S
O68 C59 1.247 . S
O69 Co56 2.244 . S
O69 C59 1.272 . S
O69 Co61 2.135 . S
Co70 O71 2.216 . S
Co70 O72 2.091 . S
Co70 O74 2.004 . S
Co70 O80 2.021 . S
Co70 O82 2.137 . S
Co70 O83 2.244 . S
O71 Co70 2.216 . S
O71 C78 1.247 . S
O72 Co70 2.091 . S
O72 C78 1.261 . S
C73 O82 1.247 . S
C73 O83 1.272 . S
O74 Co70 2.004 . S
O74 C79 1.259 . S
Co75 O76 2.061 . S
Co75 O81 2.052 . S
Co75 O83 2.135 . S
O76 Co75 2.061 . S
O76 C79 1.235 . S
C77 O80 1.238 . S
C77 O81 1.241 . S
C78 O71 1.247 . S
C78 O72 1.261 . S
C79 O74 1.259 . S
C79 O76 1.235 . S
O80 Co70 2.021 . S
O80 C77 1.238 . S
O81 Co75 2.052 . S
O81 C77 1.241 . S
O82 Co70 2.137 . S
O82 C73 1.247 . S
O83 Co70 2.244 . S
O83 C73 1.272 . S
O83 Co75 2.135 . S
Co84 O85 2.216 . S
Co84 O86 2.091 . S
Co84 O88 2.004 . S
Co84 O94 2.021 . S
Co84 O96 2.137 . S
Co84 O97 2.244 . S
O85 Co84 2.216 . S
O85 C92 1.247 . S
O86 Co84 2.091 . S
O86 C92 1.261 . S
C87 O96 1.247 . S
C87 O97 1.272 . S
O88 Co84 2.004 . S
O88 C93 1.259 . S
Co89 O90 2.061 . S
Co89 O95 2.052 . S
Co89 O97 2.135 . S
O90 Co89 2.061 . S
O90 C93 1.235 . S
C91 O94 1.238 . S
C91 O95 1.241 . S
C92 O85 1.247 . S
C92 O86 1.261 . S
C93 O88 1.259 . S
C93 O90 1.235 . S
O94 Co84 2.021 . S
O94 C91 1.238 . S
O95 Co89 2.052 . S
O95 C91 1.241 . S
O96 Co84 2.137 . S
O96 C87 1.247 . S
O97 Co84 2.244 . S
O97 C87 1.272 . S
O97 Co89 2.135 . S
Co98 O99 2.216 . S
Co98 O100 2.091 . S
Co98 O102 2.004 . S
Co98 O108 2.021 . S
Co98 O110 2.137 . S
Co98 O111 2.244 . S
O99 Co98 2.216 . S
O99 C106 1.247 . S
O100 Co98 2.091 . S
O100 C106 1.261 . S
C101 O110 1.247 . S
C101 O111 1.272 . S
O102 Co98 2.004 . S
O102 C107 1.259 . S
Co103 O104 2.061 . S
Co103 O109 2.052 . S
Co103 O111 2.135 . S
O104 Co103 2.061 . S
O104 C107 1.235 . S
C105 O108 1.238 . S
C105 O109 1.241 . S
C106 O99 1.247 . S
C106 O100 1.261 . S
C107 O102 1.259 . S
C107 O104 1.235 . S
O108 Co98 2.021 . S
O108 C105 1.238 . S
O109 Co103 2.052 . S
O109 C105 1.241 . S
O110 Co98 2.137 . S
O110 C101 1.247 . S
O111 Co98 2.244 . S
O111 C101 1.272 . S
O111 Co103 2.135 . S
Co112 O113 2.216 . S
Co112 O114 2.091 . S
Co112 O116 2.004 . S
Co112 O122 2.021 . S
Co112 O124 2.137 . S
Co112 O125 2.244 . S
O113 Co112 2.216 . S
O113 C120 1.247 . S
O114 Co112 2.091 . S
O114 C120 1.261 . S
C115 O124 1.247 . S
C115 O125 1.272 . S
O116 Co112 2.004 . S
O116 C121 1.259 . S
Co117 O118 2.061 . S
Co117 O123 2.052 . S
Co117 O125 2.135 . S
O118 Co117 2.061 . S
O118 C121 1.235 . S
C119 O122 1.238 . S
C119 O123 1.241 . S
C120 O113 1.247 . S
C120 O114 1.261 . S
C121 O116 1.259 . S
C121 O118 1.235 . S
O122 Co112 2.021 . S
O122 C119 1.238 . S
O123 Co117 2.052 . S
O123 C119 1.241 . S
O124 Co112 2.137 . S
O124 C115 1.247 . S
O125 Co112 2.244 . S
O125 C115 1.272 . S
O125 Co117 2.135 . S
Co126 O127 2.216 . S
Co126 O128 2.091 . S
Co126 O130 2.004 . S
Co126 O136 2.021 . S
Co126 O138 2.137 . S
Co126 O139 2.244 . S
O127 Co126 2.216 . S
O127 C134 1.247 . S
O128 Co126 2.091 . S
O128 C134 1.261 . S
C129 O138 1.247 . S
C129 O139 1.272 . S
O130 Co126 2.004 . S
O130 C135 1.259 . S
Co131 O132 2.061 . S
Co131 O137 2.052 . S
Co131 O139 2.135 . S
O132 Co131 2.061 . S
O132 C135 1.235 . S
C133 O136 1.238 . S
C133 O137 1.241 . S
C134 O127 1.247 . S
C134 O128 1.261 . S
C135 O130 1.259 . S
C135 O132 1.235 . S
O136 Co126 2.021 . S
O136 C133 1.238 . S
O137 Co131 2.052 . S
O137 C133 1.241 . S
O138 Co126 2.137 . S
O138 C129 1.247 . S
O139 Co126 2.244 . S
O139 C129 1.272 . S
O139 Co131 2.135 . S
Co140 O141 2.216 . S
Co140 O142 2.091 . S
Co140 O144 2.004 . S
Co140 O150 2.021 . S
Co140 O152 2.137 . S
Co140 O153 2.244 . S
O141 Co140 2.216 . S
O141 C148 1.247 . S
O142 Co140 2.091 . S
O142 C148 1.261 . S
C143 O152 1.247 . S
C143 O153 1.272 . S
O144 Co140 2.004 . S
O144 C149 1.259 . S
Co145 O146 2.061 . S
Co145 O151 2.052 . S
Co145 O153 2.135 . S
O146 Co145 2.061 . S
O146 C149 1.235 . S
C147 O150 1.238 . S
C147 O151 1.241 . S
C148 O141 1.247 . S
C148 O142 1.261 . S
C149 O144 1.259 . S
C149 O146 1.235 . S
O150 Co140 2.021 . S
O150 C147 1.238 . S
O151 Co145 2.052 . S
O151 C147 1.241 . S
O152 Co140 2.137 . S
O152 C143 1.247 . S
O153 Co140 2.244 . S
O153 C143 1.272 . S
O153 Co145 2.135 . S
Co154 O155 2.216 . S
Co154 O156 2.091 . S
Co154 O158 2.004 . S
Co154 O164 2.021 . S
Co154 O166 2.137 . S
Co154 O167 2.244 . S
O155 Co154 2.216 . S
O155 C162 1.247 . S
O156 Co154 2.091 . S
O156 C162 1.261 . S
C157 O166 1.247 . S
C157 O167 1.272 . S
O158 Co154 2.004 . S
O158 C163 1.259 . S
Co159 O160 2.061 . S
Co159 O165 2.052 . S
Co159 O167 2.135 . S
O160 Co159 2.061 . S
O160 C163 1.235 . S
C161 O164 1.238 . S
C161 O165 1.241 . S
C162 O155 1.247 . S
C162 O156 1.261 . S
C163 O158 1.259 . S
C163 O160 1.235 . S
O164 Co154 2.021 . S
O164 C161 1.238 . S
O165 Co159 2.052 . S
O165 C161 1.241 . S
O166 Co154 2.137 . S
O166 C157 1.247 . S
O167 Co154 2.244 . S
O167 C157 1.272 . S
O167 Co159 2.135 . S
Co168 O169 2.216 . S
Co168 O170 2.091 . S
Co168 O172 2.004 . S
Co168 O178 2.021 . S
Co168 O180 2.137 . S
Co168 O181 2.244 . S
O169 Co168 2.216 . S
O169 C176 1.247 . S
O170 Co168 2.091 . S
O170 C176 1.261 . S
C171 O180 1.247 . S
C171 O181 1.272 . S
O172 Co168 2.004 . S
O172 C177 1.259 . S
Co173 O174 2.061 . S
Co173 O179 2.052 . S
Co173 O181 2.135 . S
O174 Co173 2.061 . S
O174 C177 1.235 . S
C175 O178 1.238 . S
C175 O179 1.241 . S
C176 O169 1.247 . S
C176 O170 1.261 . S
C177 O172 1.259 . S
C177 O174 1.235 . S
O178 Co168 2.021 . S
O178 C175 1.238 . S
O179 Co173 2.052 . S
O179 C175 1.241 . S
O180 Co168 2.137 . S
O180 C171 1.247 . S
O181 Co168 2.244 . S
O181 C171 1.272 . S
O181 Co173 2.135 . S
Co182 O183 2.216 . S
Co182 O184 2.091 . S
Co182 O186 2.004 . S
Co182 O192 2.021 . S
Co182 O194 2.137 . S
Co182 O195 2.244 . S
O183 Co182 2.216 . S
O183 C190 1.247 . S
O184 Co182 2.091 . S
O184 C190 1.261 . S
C185 O194 1.247 . S
C185 O195 1.272 . S
O186 Co182 2.004 . S
O186 C191 1.259 . S
Co187 O188 2.061 . S
Co187 O193 2.052 . S
Co187 O195 2.135 . S
O188 Co187 2.061 . S
O188 C191 1.235 . S
C189 O192 1.238 . S
C189 O193 1.241 . S
C190 O183 1.247 . S
C190 O184 1.261 . S
C191 O186 1.259 . S
C191 O188 1.235 . S
O192 Co182 2.021 . S
O192 C189 1.238 . S
O193 Co187 2.052 . S
O193 C189 1.241 . S
O194 Co182 2.137 . S
O194 C185 1.247 . S
O195 Co182 2.244 . S
O195 C185 1.272 . S
O195 Co187 2.135 . S
Co196 O197 2.216 . S
Co196 O198 2.091 . S
Co196 O200 2.004 . S
Co196 O206 2.021 . S
Co196 O208 2.137 . S
Co196 O209 2.244 . S
O197 Co196 2.216 . S
O197 C204 1.247 . S
O198 Co196 2.091 . S
O198 C204 1.261 . S
C199 O208 1.247 . S
C199 O209 1.272 . S
O200 Co196 2.004 . S
O200 C205 1.259 . S
Co201 O202 2.061 . S
Co201 O207 2.052 . S
Co201 O209 2.135 . S
O202 Co201 2.061 . S
O202 C205 1.235 . S
C203 O206 1.238 . S
C203 O207 1.241 . S
C204 O197 1.247 . S
C204 O198 1.261 . S
C205 O200 1.259 . S
C205 O202 1.235 . S
O206 Co196 2.021 . S
O206 C203 1.238 . S
O207 Co201 2.052 . S
O207 C203 1.241 . S
O208 Co196 2.137 . S
O208 C199 1.247 . S
O209 Co196 2.244 . S
O209 C199 1.272 . S
O209 Co201 2.135 . S
Co210 O211 2.216 . S
Co210 O212 2.091 . S
Co210 O214 2.004 . S
Co210 O220 2.021 . S
Co210 O222 2.137 . S
Co210 O223 2.244 . S
O211 Co210 2.216 . S
O211 C218 1.247 . S
O212 Co210 2.091 . S
O212 C218 1.261 . S
C213 O222 1.247 . S
C213 O223 1.272 . S
O214 Co210 2.004 . S
O214 C219 1.259 . S
Co215 O216 2.061 . S
Co215 O221 2.052 . S
Co215 O223 2.135 . S
O216 Co215 2.061 . S
O216 C219 1.235 . S
C217 O220 1.238 . S
C217 O221 1.241 . S
C218 O211 1.247 . S
C218 O212 1.261 . S
C219 O214 1.259 . S
C219 O216 1.235 . S
O220 Co210 2.021 . S
O220 C217 1.238 . S
O221 Co215 2.052 . S
O221 C217 1.241 . S
O222 Co210 2.137 . S
O222 C213 1.247 . S
O223 Co210 2.244 . S
O223 C213 1.272 . S
O223 Co215 2.135 . S
Co224 O225 2.216 . S
Co224 O226 2.091 . S
Co224 O228 2.004 . S
Co224 O234 2.021 . S
Co224 O236 2.137 . S
Co224 O237 2.244 . S
O225 Co224 2.216 . S
O225 C232 1.247 . S
O226 Co224 2.091 . S
O226 C232 1.261 . S
C227 O236 1.247 . S
C227 O237 1.272 . S
O228 Co224 2.004 . S
O228 C233 1.259 . S
Co229 O230 2.061 . S
Co229 O235 2.052 . S
Co229 O237 2.135 . S
O230 Co229 2.061 . S
O230 C233 1.235 . S
C231 O234 1.238 . S
C231 O235 1.241 . S
C232 O225 1.247 . S
C232 O226 1.261 . S
C233 O228 1.259 . S
C233 O230 1.235 . S
O234 Co224 2.021 . S
O234 C231 1.238 . S
O235 Co229 2.052 . S
O235 C231 1.241 . S
O236 Co224 2.137 . S
O236 C227 1.247 . S
O237 Co224 2.244 . S
O237 C227 1.272 . S
O237 Co229 2.135 . S
Co238 O239 2.216 . S
Co238 O240 2.091 . S
Co238 O242 2.004 . S
Co238 O248 2.021 . S
Co238 O250 2.137 . S
Co238 O251 2.244 . S
O239 Co238 2.216 . S
O239 C246 1.247 . S
O240 Co238 2.091 . S
O240 C246 1.261 . S
C241 O250 1.247 . S
C241 O251 1.272 . S
O242 Co238 2.004 . S
O242 C247 1.259 . S
Co243 O244 2.061 . S
Co243 O249 2.052 . S
Co243 O251 2.135 . S
O244 Co243 2.061 . S
O244 C247 1.235 . S
C245 O248 1.238 . S
C245 O249 1.241 . S
C246 O239 1.247 . S
C246 O240 1.261 . S
C247 O242 1.259 . S
C247 O244 1.235 . S
O248 Co238 2.021 . S
O248 C245 1.238 . S
O249 Co243 2.052 . S
O249 C245 1.241 . S
O250 Co238 2.137 . S
O250 C241 1.247 . S
O251 Co238 2.244 . S
O251 C241 1.272 . S
O251 Co243 2.135 . S
Co252 O253 2.216 . S
Co252 O254 2.091 . S
Co252 O256 2.004 . S
Co252 O262 2.021 . S
Co252 O264 2.137 . S
Co252 O265 2.244 . S
O253 Co252 2.216 . S
O253 C260 1.247 . S
O254 Co252 2.091 . S
O254 C260 1.261 . S
C255 O264 1.247 . S
C255 O265 1.272 . S
O256 Co252 2.004 . S
O256 C261 1.259 . S
Co257 O258 2.061 . S
Co257 O263 2.052 . S
Co257 O265 2.135 . S
O258 Co257 2.061 . S
O258 C261 1.235 . S
C259 O262 1.238 . S
C259 O263 1.241 . S
C260 O253 1.247 . S
C260 O254 1.261 . S
C261 O256 1.259 . S
C261 O258 1.235 . S
O262 Co252 2.021 . S
O262 C259 1.238 . S
O263 Co257 2.052 . S
O263 C259 1.241 . S
O264 Co252 2.137 . S
O264 C255 1.247 . S
O265 Co252 2.244 . S
O265 C255 1.272 . S
O265 Co257 2.135 . S
Co266 O267 2.216 . S
Co266 O268 2.091 . S
Co266 O270 2.004 . S
Co266 O276 2.021 . S
Co266 O278 2.137 . S
Co266 O279 2.244 . S
O267 Co266 2.216 . S
O267 C274 1.247 . S
O268 Co266 2.091 . S
O268 C274 1.261 . S
C269 O278 1.247 . S
C269 O279 1.272 . S
O270 Co266 2.004 . S
O270 C275 1.259 . S
Co271 O272 2.061 . S
Co271 O277 2.052 . S
Co271 O279 2.135 . S
O272 Co271 2.061 . S
O272 C275 1.235 . S
C273 O276 1.238 . S
C273 O277 1.241 . S
C274 O267 1.247 . S
C274 O268 1.261 . S
C275 O270 1.259 . S
C275 O272 1.235 . S
O276 Co266 2.021 . S
O276 C273 1.238 . S
O277 Co271 2.052 . S
O277 C273 1.241 . S
O278 Co266 2.137 . S
O278 C269 1.247 . S
O279 Co266 2.244 . S
O279 C269 1.272 . S
O279 Co271 2.135 . S
Co280 O281 2.216 . S
Co280 O282 2.091 . S
Co280 O284 2.004 . S
Co280 O290 2.021 . S
Co280 O292 2.137 . S
Co280 O293 2.244 . S
O281 Co280 2.216 . S
O281 C288 1.247 . S
O282 Co280 2.091 . S
O282 C288 1.261 . S
C283 O292 1.247 . S
C283 O293 1.272 . S
O284 Co280 2.004 . S
O284 C289 1.259 . S
Co285 O286 2.061 . S
Co285 O291 2.052 . S
Co285 O293 2.135 . S
O286 Co285 2.061 . S
O286 C289 1.235 . S
C287 O290 1.238 . S
C287 O291 1.241 . S
C288 O281 1.247 . S
C288 O282 1.261 . S
C289 O284 1.259 . S
C289 O286 1.235 . S
O290 Co280 2.021 . S
O290 C287 1.238 . S
O291 Co285 2.052 . S
O291 C287 1.241 . S
O292 Co280 2.137 . S
O292 C283 1.247 . S
O293 Co280 2.244 . S
O293 C283 1.272 . S
O293 Co285 2.135 . S
Co294 O295 2.216 . S
Co294 O296 2.091 . S
Co294 O298 2.004 . S
Co294 O304 2.021 . S
Co294 O306 2.137 . S
Co294 O307 2.244 . S
O295 Co294 2.216 . S
O295 C302 1.247 . S
O296 Co294 2.091 . S
O296 C302 1.261 . S
C297 O306 1.247 . S
C297 O307 1.272 . S
O298 Co294 2.004 . S
O298 C303 1.259 . S
Co299 O300 2.061 . S
Co299 O305 2.052 . S
Co299 O307 2.135 . S
O300 Co299 2.061 . S
O300 C303 1.235 . S
C301 O304 1.238 . S
C301 O305 1.241 . S
C302 O295 1.247 . S
C302 O296 1.261 . S
C303 O298 1.259 . S
C303 O300 1.235 . S
O304 Co294 2.021 . S
O304 C301 1.238 . S
O305 Co299 2.052 . S
O305 C301 1.241 . S
O306 Co294 2.137 . S
O306 C297 1.247 . S
O307 Co294 2.244 . S
O307 C297 1.272 . S
O307 Co299 2.135 . S
Co308 O309 2.216 . S
Co308 O310 2.091 . S
Co308 O312 2.004 . S
Co308 O318 2.021 . S
Co308 O320 2.137 . S
Co308 O321 2.244 . S
O309 Co308 2.216 . S
O309 C316 1.247 . S
O310 Co308 2.091 . S
O310 C316 1.261 . S
C311 O320 1.247 . S
C311 O321 1.272 . S
O312 Co308 2.004 . S
O312 C317 1.259 . S
Co313 O314 2.061 . S
Co313 O319 2.052 . S
Co313 O321 2.135 . S
O314 Co313 2.061 . S
O314 C317 1.235 . S
C315 O318 1.238 . S
C315 O319 1.241 . S
C316 O309 1.247 . S
C316 O310 1.261 . S
C317 O312 1.259 . S
C317 O314 1.235 . S
O318 Co308 2.021 . S
O318 C315 1.238 . S
O319 Co313 2.052 . S
O319 C315 1.241 . S
O320 Co308 2.137 . S
O320 C311 1.247 . S
O321 Co308 2.244 . S
O321 C311 1.272 . S
O321 Co313 2.135 . S
Co322 O323 2.216 . S
Co322 O324 2.091 . S
Co322 O326 2.004 . S
Co322 O332 2.021 . S
Co322 O334 2.137 . S
Co322 O335 2.244 . S
O323 Co322 2.216 . S
O323 C330 1.247 . S
O324 Co322 2.091 . S
O324 C330 1.261 . S
C325 O334 1.247 . S
C325 O335 1.272 . S
O326 Co322 2.004 . S
O326 C331 1.259 . S
Co327 O328 2.061 . S
Co327 O333 2.052 . S
Co327 O335 2.135 . S
O328 Co327 2.061 . S
O328 C331 1.235 . S
C329 O332 1.238 . S
C329 O333 1.241 . S
C330 O323 1.247 . S
C330 O324 1.261 . S
C331 O326 1.259 . S
C331 O328 1.235 . S
O332 Co322 2.021 . S
O332 C329 1.238 . S
O333 Co327 2.052 . S
O333 C329 1.241 . S
O334 Co322 2.137 . S
O334 C325 1.247 . S
O335 Co322 2.244 . S
O335 C325 1.272 . S
O335 Co327 2.135 . S
Co336 O337 2.216 . S
Co336 O338 2.091 . S
Co336 O340 2.004 . S
Co336 O346 2.021 . S
Co336 O348 2.137 . S
Co336 O349 2.244 . S
O337 Co336 2.216 . S
O337 C344 1.247 . S
O338 Co336 2.091 . S
O338 C344 1.261 . S
C339 O348 1.247 . S
C339 O349 1.272 . S
O340 Co336 2.004 . S
O340 C345 1.259 . S
Co341 O342 2.061 . S
Co341 O347 2.052 . S
Co341 O349 2.135 . S
O342 Co341 2.061 . S
O342 C345 1.235 . S
C343 O346 1.238 . S
C343 O347 1.241 . S
C344 O337 1.247 . S
C344 O338 1.261 . S
C345 O340 1.259 . S
C345 O342 1.235 . S
O346 Co336 2.021 . S
O346 C343 1.238 . S
O347 Co341 2.052 . S
O347 C343 1.241 . S
O348 Co336 2.137 . S
O348 C339 1.247 . S
O349 Co336 2.244 . S
O349 C339 1.272 . S
O349 Co341 2.135 . S
Co350 O351 2.216 . S
Co350 O352 2.091 . S
Co350 O354 2.004 . S
Co350 O360 2.021 . S
Co350 O362 2.137 . S
Co350 O363 2.244 . S
O351 Co350 2.216 . S
O351 C358 1.247 . S
O352 Co350 2.091 . S
O352 C358 1.261 . S
C353 O362 1.247 . S
C353 O363 1.272 . S
O354 Co350 2.004 . S
O354 C359 1.259 . S
Co355 O356 2.061 . S
Co355 O361 2.052 . S
Co355 O363 2.135 . S
O356 Co355 2.061 . S
O356 C359 1.235 . S
C357 O360 1.238 . S
C357 O361 1.241 . S
C358 O351 1.247 . S
C358 O352 1.261 . S
C359 O354 1.259 . S
C359 O356 1.235 . S
O360 Co350 2.021 . S
O360 C357 1.238 . S
O361 Co355 2.052 . S
O361 C357 1.241 . S
O362 Co350 2.137 . S
O362 C353 1.247 . S
O363 Co350 2.244 . S
O363 C353 1.272 . S
O363 Co355 2.135 . S
Co364 O365 2.216 . S
Co364 O366 2.091 . S
Co364 O368 2.004 . S
Co364 O374 2.021 . S
Co364 O376 2.137 . S
Co364 O377 2.244 . S
O365 Co364 2.216 . S
O365 C372 1.247 . S
O366 Co364 2.091 . S
O366 C372 1.261 . S
C367 O376 1.247 . S
C367 O377 1.272 . S
O368 Co364 2.004 . S
O368 C373 1.259 . S
Co369 O370 2.061 . S
Co369 O375 2.052 . S
Co369 O377 2.135 . S
O370 Co369 2.061 . S
O370 C373 1.235 . S
C371 O374 1.238 . S
C371 O375 1.241 . S
C372 O365 1.247 . S
C372 O366 1.261 . S
C373 O368 1.259 . S
C373 O370 1.235 . S
O374 Co364 2.021 . S
O374 C371 1.238 . S
O375 Co369 2.052 . S
O375 C371 1.241 . S
O376 Co364 2.137 . S
O376 C367 1.247 . S
O377 Co364 2.244 . S
O377 C367 1.272 . S
O377 Co369 2.135 . S
Co378 O379 2.216 . S
Co378 O380 2.091 . S
Co378 O382 2.004 . S
Co378 O388 2.021 . S
Co378 O390 2.137 . S
Co378 O391 2.244 . S
O379 Co378 2.216 . S
O379 C386 1.247 . S
O380 Co378 2.091 . S
O380 C386 1.261 . S
C381 O390 1.247 . S
C381 O391 1.272 . S
O382 Co378 2.004 . S
O382 C387 1.259 . S
Co383 O384 2.061 . S
Co383 O389 2.052 . S
Co383 O391 2.135 . S
O384 Co383 2.061 . S
O384 C387 1.235 . S
C385 O388 1.238 . S
C385 O389 1.241 . S
C386 O379 1.247 . S
C386 O380 1.261 . S
C387 O382 1.259 . S
C387 O384 1.235 . S
O388 Co378 2.021 . S
O388 C385 1.238 . S
O389 Co383 2.052 . S
O389 C385 1.241 . S
O390 Co378 2.137 . S
O390 C381 1.247 . S
O391 Co378 2.244 . S
O391 C381 1.272 . S
O391 Co383 2.135 . S
Co392 O393 2.216 . S
Co392 O394 2.091 . S
Co392 O396 2.004 . S
Co392 O402 2.021 . S
Co392 O404 2.137 . S
Co392 O405 2.244 . S
O393 Co392 2.216 . S
O393 C400 1.247 . S
O394 Co392 2.091 . S
O394 C400 1.261 . S
C395 O404 1.247 . S
C395 O405 1.272 . S
O396 Co392 2.004 . S
O396 C401 1.259 . S
Co397 O398 2.061 . S
Co397 O403 2.052 . S
Co397 O405 2.135 . S
O398 Co397 2.061 . S
O398 C401 1.235 . S
C399 O402 1.238 . S
C399 O403 1.241 . S
C400 O393 1.247 . S
C400 O394 1.261 . S
C401 O396 1.259 . S
C401 O398 1.235 . S
O402 Co392 2.021 . S
O402 C399 1.238 . S
O403 Co397 2.052 . S
O403 C399 1.241 . S
O404 Co392 2.137 . S
O404 C395 1.247 . S
O405 Co392 2.244 . S
O405 C395 1.272 . S
O405 Co397 2.135 . S
Co406 O407 2.216 . S
Co406 O408 2.091 . S
Co406 O410 2.004 . S
Co406 O416 2.021 . S
Co406 O418 2.137 . S
Co406 O419 2.244 . S
O407 Co406 2.216 . S
O407 C414 1.247 . S
O408 Co406 2.091 . S
O408 C414 1.261 . S
C409 O418 1.247 . S
C409 O419 1.272 . S
O410 Co406 2.004 . S
O410 C415 1.259 . S
Co411 O412 2.061 . S
Co411 O417 2.052 . S
Co411 O419 2.135 . S
O412 Co411 2.061 . S
O412 C415 1.235 . S
C413 O416 1.238 . S
C413 O417 1.241 . S
C414 O407 1.247 . S
C414 O408 1.261 . S
C415 O410 1.259 . S
C415 O412 1.235 . S
O416 Co406 2.021 . S
O416 C413 1.238 . S
O417 Co411 2.052 . S
O417 C413 1.241 . S
O418 Co406 2.137 . S
O418 C409 1.247 . S
O419 Co406 2.244 . S
O419 C409 1.272 . S
O419 Co411 2.135 . S
Co420 O421 2.216 . S
Co420 O422 2.091 . S
Co420 O424 2.004 . S
Co420 O430 2.021 . S
Co420 O432 2.137 . S
Co420 O433 2.244 . S
O421 Co420 2.216 . S
O421 C428 1.247 . S
O422 Co420 2.091 . S
O422 C428 1.261 . S
C423 O432 1.247 . S
C423 O433 1.272 . S
O424 Co420 2.004 . S
O424 C429 1.259 . S
Co425 O426 2.061 . S
Co425 O431 2.052 . S
Co425 O433 2.135 . S
O426 Co425 2.061 . S
O426 C429 1.235 . S
C427 O430 1.238 . S
C427 O431 1.241 . S
C428 O421 1.247 . S
C428 O422 1.261 . S
C429 O424 1.259 . S
C429 O426 1.235 . S
O430 Co420 2.021 . S
O430 C427 1.238 . S
O431 Co425 2.052 . S
O431 C427 1.241 . S
O432 Co420 2.137 . S
O432 C423 1.247 . S
O433 Co420 2.244 . S
O433 C423 1.272 . S
O433 Co425 2.135 . S
Co434 O435 2.216 . S
Co434 O436 2.091 . S
Co434 O438 2.004 . S
Co434 O444 2.021 . S
Co434 O446 2.137 . S
Co434 O447 2.244 . S
O435 Co434 2.216 . S
O435 C442 1.247 . S
O436 Co434 2.091 . S
O436 C442 1.261 . S
C437 O446 1.247 . S
C437 O447 1.272 . S
O438 Co434 2.004 . S
O438 C443 1.259 . S
Co439 O440 2.061 . S
Co439 O445 2.052 . S
Co439 O447 2.135 . S
O440 Co439 2.061 . S
O440 C443 1.235 . S
C441 O444 1.238 . S
C441 O445 1.241 . S
C442 O435 1.247 . S
C442 O436 1.261 . S
C443 O438 1.259 . S
C443 O440 1.235 . S
O444 Co434 2.021 . S
O444 C441 1.238 . S
O445 Co439 2.052 . S
O445 C441 1.241 . S
O446 Co434 2.137 . S
O446 C437 1.247 . S
O447 Co434 2.244 . S
O447 C437 1.272 . S
O447 Co439 2.135 . S
C448 C449 1.363 . S
C448 C454 1.379 1_655 S
C448 N456 1.356 . S
C449 C448 1.363 . S
C449 C455 1.363 1_556 S
C450 C451 1.363 . S
C450 C455 1.379 1_455 S
C450 N457 1.356 . S
C451 C450 1.363 . S
C451 C454 1.363 1_554 S
N452 C454 1.356 . S
N452 H464 0.984 . S
N452 H465 0.985 . S
N453 C455 1.356 . S
N453 H458 0.984 . S
N453 H459 0.985 . S
C454 C448 1.379 1_455 S
C454 C451 1.363 1_556 S
C454 N452 1.356 . S
C455 C449 1.363 1_554 S
C455 C450 1.379 1_655 S
C455 N453 1.356 . S
N456 C448 1.356 . S
N456 H462 0.984 . S
N456 H463 0.984 . S
N457 C450 1.356 . S
N457 H460 0.984 . S
N457 H461 0.985 . S
H458 N453 0.984 . S
H459 N453 0.985 . S
H460 N457 0.984 . S
H461 N457 0.985 . S
H462 N456 0.984 . S
H463 N456 0.984 . S
H464 N452 0.984 . S
H465 N452 0.985 . S
C466 C467 1.363 . S
C466 C472 1.379 . S
C466 N474 1.356 . S
C467 C466 1.363 . S
C467 C473 1.363 . S
C468 C469 1.363 . S
C468 C473 1.379 . S
C468 N475 1.356 . S
C469 C468 1.363 . S
C469 C472 1.363 . S
N470 C472 1.356 . S
N470 H482 0.984 . S
N470 H483 0.985 . S
N471 C473 1.356 . S
N471 H476 0.984 . S
N471 H477 0.985 . S
C472 C466 1.379 . S
C472 C469 1.363 . S
C472 N470 1.356 . S
C473 C467 1.363 . S
C473 C468 1.379 . S
C473 N471 1.356 . S
N474 C466 1.356 . S
N474 H480 0.984 . S
N474 H481 0.984 . S
N475 C468 1.356 . S
N475 H478 0.984 . S
N475 H479 0.985 . S
H476 N471 0.984 . S
H477 N471 0.985 . S
H478 N475 0.984 . S
H479 N475 0.985 . S
H480 N474 0.984 . S
H481 N474 0.984 . S
H482 N470 0.984 . S
H483 N470 0.985 . S
C484 C485 1.363 . S
C484 C490 1.379 . S
C484 N492 1.356 . S
C485 C484 1.363 . S
C485 C491 1.363 . S
C486 C487 1.363 . S
C486 C491 1.379 . S
C486 N493 1.356 . S
C487 C486 1.363 . S
C487 C490 1.363 . S
N488 C490 1.356 . S
N488 H500 0.984 . S
N488 H501 0.985 . S
N489 C491 1.356 . S
N489 H494 0.984 . S
N489 H495 0.985 . S
C490 C484 1.379 . S
C490 C487 1.363 . S
C490 N488 1.356 . S
C491 C485 1.363 . S
C491 C486 1.379 . S
C491 N489 1.356 . S
N492 C484 1.356 . S
N492 H498 0.984 . S
N492 H499 0.984 . S
N493 C486 1.356 . S
N493 H496 0.984 . S
N493 H497 0.985 . S
H494 N489 0.984 . S
H495 N489 0.985 . S
H496 N493 0.984 . S
H497 N493 0.985 . S
H498 N492 0.984 . S
H499 N492 0.984 . S
H500 N488 0.984 . S
H501 N488 0.985 . S
C502 C503 1.363 . S
C502 C508 1.379 . S
C502 N510 1.356 . S
C503 C502 1.363 . S
C503 C509 1.363 . S
C504 C505 1.363 . S
C504 C509 1.379 . S
C504 N511 1.356 . S
C505 C504 1.363 . S
C505 C508 1.363 . S
N506 C508 1.356 . S
N506 H518 0.984 . S
N506 H519 0.985 . S
N507 C509 1.356 . S
N507 H512 0.984 . S
N507 H513 0.985 . S
C508 C502 1.379 . S
C508 C505 1.363 . S
C508 N506 1.356 . S
C509 C503 1.363 . S
C509 C504 1.379 . S
C509 N507 1.356 . S
N510 C502 1.356 . S
N510 H516 0.984 . S
N510 H517 0.984 . S
N511 C504 1.356 . S
N511 H514 0.984 . S
N511 H515 0.985 . S
H512 N507 0.984 . S
H513 N507 0.985 . S
H514 N511 0.984 . S
H515 N511 0.985 . S
H516 N510 0.984 . S
H517 N510 0.984 . S
H518 N506 0.984 . S
H519 N506 0.985 . S
C520 C521 1.363 1_455 S
C520 C526 1.379 . S
C520 N528 1.356 . S
C521 C520 1.363 1_655 S
C521 C527 1.363 . S
C522 C523 1.363 1_655 S
C522 C527 1.379 . S
C522 N529 1.356 . S
C523 C522 1.363 1_455 S
C523 C526 1.363 . S
N524 C526 1.356 . S
N524 H536 0.984 . S
N524 H537 0.985 . S
N525 C527 1.356 . S
N525 H530 0.984 . S
N525 H531 0.985 . S
C526 C520 1.379 . S
C526 C523 1.363 . S
C526 N524 1.356 . S
C527 C521 1.363 . S
C527 C522 1.379 . S
C527 N525 1.356 . S
N528 C520 1.356 . S
N528 H534 0.984 . S
N528 H535 0.984 1_455 S
N529 C522 1.356 . S
N529 H532 0.984 1_655 S
N529 H533 0.985 . S
H530 N525 0.984 . S
H531 N525 0.985 . S
H532 N529 0.984 1_455 S
H533 N529 0.985 . S
H534 N528 0.984 . S
H535 N528 0.984 1_655 S
H536 N524 0.984 . S
H537 N524 0.985 . S
C538 C539 1.363 . S
C538 C544 1.379 . S
C538 N546 1.356 . S
C539 C538 1.363 . S
C539 C545 1.363 . S
C540 C541 1.363 . S
C540 C545 1.379 . S
C540 N547 1.356 . S
C541 C540 1.363 . S
C541 C544 1.363 . S
N542 C544 1.356 . S
N542 H554 0.984 . S
N542 H555 0.985 . S
N543 C545 1.356 . S
N543 H548 0.984 . S
N543 H549 0.985 . S
C544 C538 1.379 . S
C544 C541 1.363 . S
C544 N542 1.356 . S
C545 C539 1.363 . S
C545 C540 1.379 . S
C545 N543 1.356 . S
N546 C538 1.356 . S
N546 H552 0.984 . S
N546 H553 0.984 . S
N547 C540 1.356 . S
N547 H550 0.984 . S
N547 H551 0.985 . S
H548 N543 0.984 . S
H549 N543 0.985 . S
H550 N547 0.984 . S
H551 N547 0.985 . S
H552 N546 0.984 . S
H553 N546 0.984 . S
H554 N542 0.984 . S
H555 N542 0.985 . S
C556 C557 1.363 1_554 S
C556 C562 1.379 . S
C556 N564 1.354 1_554 S
C557 C556 1.363 1_556 S
C557 C563 1.363 . S
C558 C559 1.363 1_556 S
C558 C563 1.379 . S
C558 N565 1.354 1_556 S
C559 C558 1.363 1_554 S
C559 C562 1.363 . S
N560 C562 1.356 . S
N560 H572 0.984 . S
N560 H573 0.985 . S
N561 C563 1.356 . S
N561 H566 0.984 . S
N561 H567 0.985 . S
C562 C556 1.379 . S
C562 C559 1.363 . S
C562 N560 1.356 . S
C563 C557 1.363 . S
C563 C558 1.379 . S
C563 N561 1.356 . S
N564 C556 1.354 1_556 S
N564 H570 0.972 1_556 S
N564 H571 1.000 . S
N565 C558 1.354 1_554 S
N565 H568 1.000 . S
N565 H569 0.972 1_554 S
H566 N561 0.984 . S
H567 N561 0.985 . S
H568 N565 1.000 . S
H569 N565 0.972 1_556 S
H570 N564 0.972 1_554 S
H571 N564 1.000 . S
H572 N560 0.984 . S
H573 N560 0.985 . S
C574 C575 1.363 . S
C574 C580 1.379 . S
C574 N582 1.356 . S
C575 C574 1.363 . S
C575 C581 1.363 . S
C576 C577 1.363 . S
C576 C581 1.379 . S
C576 N583 1.356 . S
C577 C576 1.363 . S
C577 C580 1.363 . S
N578 C580 1.356 . S
N578 H590 0.984 . S
N578 H591 0.985 . S
N579 C581 1.356 . S
N579 H584 0.984 . S
N579 H585 0.985 . S
C580 C574 1.379 . S
C580 C577 1.363 . S
C580 N578 1.356 . S
C581 C575 1.363 . S
C581 C576 1.379 . S
C581 N579 1.356 . S
N582 C574 1.356 . S
N582 H588 0.984 . S
N582 H589 0.984 . S
N583 C576 1.356 . S
N583 H586 0.984 . S
N583 H587 0.985 . S
H584 N579 0.984 . S
H585 N579 0.985 . S
H586 N583 0.984 . S
H587 N583 0.985 . S
H588 N582 0.984 . S
H589 N582 0.984 . S
H590 N578 0.984 . S
H591 N578 0.985 . S
C592 C593 1.363 . S
C592 C598 1.379 . S
C592 N600 1.356 . S
C593 C592 1.363 . S
C593 C599 1.363 . S
C594 C595 1.363 . S
C594 C599 1.379 . S
C594 N601 1.356 . S
C595 C594 1.363 . S
C595 C598 1.363 . S
N596 C598 1.356 . S
N596 H608 0.984 . S
N596 H609 0.985 . S
N597 C599 1.356 . S
N597 H602 0.984 . S
N597 H603 0.985 . S
C598 C592 1.379 . S
C598 C595 1.363 . S
C598 N596 1.356 . S
C599 C593 1.363 . S
C599 C594 1.379 . S
C599 N597 1.356 . S
N600 C592 1.356 . S
N600 H606 0.984 . S
N600 H607 0.984 . S
N601 C594 1.356 . S
N601 H604 0.984 . S
N601 H605 0.985 . S
H602 N597 0.984 . S
H603 N597 0.985 . S
H604 N601 0.984 . S
H605 N601 0.985 . S
H606 N600 0.984 . S
H607 N600 0.984 . S
H608 N596 0.984 . S
H609 N596 0.985 . S
C610 C611 1.363 . S
C610 C616 1.379 . S
C610 N618 1.356 . S
C611 C610 1.363 . S
C611 C617 1.363 . S
C612 C613 1.363 . S
C612 C617 1.379 . S
C612 N619 1.356 . S
C613 C612 1.363 . S
C613 C616 1.363 . S
N614 C616 1.356 . S
N614 H626 0.984 . S
N614 H627 0.985 . S
N615 C617 1.356 . S
N615 H620 0.984 . S
N615 H621 0.985 . S
C616 C610 1.379 . S
C616 C613 1.363 . S
C616 N614 1.356 . S
C617 C611 1.363 . S
C617 C612 1.379 . S
C617 N615 1.356 . S
N618 C610 1.356 . S
N618 H624 0.984 . S
N618 H625 0.984 . S
N619 C612 1.356 . S
N619 H622 0.984 . S
N619 H623 0.985 . S
H620 N615 0.984 . S
H621 N615 0.985 . S
H622 N619 0.984 . S
H623 N619 0.985 . S
H624 N618 0.984 . S
H625 N618 0.984 . S
H626 N614 0.984 . S
H627 N614 0.985 . S
C628 C629 1.363 . S
C628 C634 1.379 . S
C628 N636 1.356 . S
C629 C628 1.363 . S
C629 C635 1.363 . S
C630 C631 1.363 . S
C630 C635 1.379 . S
C630 N637 1.356 . S
C631 C630 1.363 . S
C631 C634 1.363 . S
N632 C634 1.356 . S
N632 H644 0.984 . S
N632 H645 0.985 . S
N633 C635 1.356 . S
N633 H638 0.984 . S
N633 H639 0.985 . S
C634 C628 1.379 . S
C634 C631 1.363 . S
C634 N632 1.356 . S
C635 C629 1.363 . S
C635 C630 1.379 . S
C635 N633 1.356 . S
N636 C628 1.356 . S
N636 H642 0.984 . S
N636 H643 0.984 . S
N637 C630 1.356 . S
N637 H640 0.984 . S
N637 H641 0.985 . S
H638 N633 0.984 . S
H639 N633 0.985 . S
H640 N637 0.984 . S
H641 N637 0.985 . S
H642 N636 0.984 . S
H643 N636 0.984 . S
H644 N632 0.984 . S
H645 N632 0.985 . S
C646 C647 1.363 . S
C646 C652 1.379 . S
C646 N654 1.356 . S
C647 C646 1.363 . S
C647 C653 1.363 . S
C648 C649 1.363 . S
C648 C653 1.379 . S
C648 N655 1.356 . S
C649 C648 1.363 . S
C649 C652 1.363 . S
N650 C652 1.356 . S
N650 H662 0.984 . S
N650 H663 0.985 . S
N651 C653 1.356 . S
N651 H656 0.984 . S
N651 H657 0.985 . S
C652 C646 1.379 . S
C652 C649 1.363 . S
C652 N650 1.356 . S
C653 C647 1.363 . S
C653 C648 1.379 . S
C653 N651 1.356 . S
N654 C646 1.356 . S
N654 H660 0.984 . S
N654 H661 0.984 . S
N655 C648 1.356 . S
N655 H658 0.984 . S
N655 H659 0.985 . S
H656 N651 0.984 . S
H657 N651 0.985 . S
H658 N655 0.984 . S
H659 N655 0.985 . S
H660 N654 0.984 . S
H661 N654 0.984 . S
H662 N650 0.984 . S
H663 N650 0.985 . S
C664 C665 1.363 . S
C664 C670 1.379 . S
C664 N672 1.356 . S
C665 C664 1.363 . S
C665 C671 1.363 1_565 S
C666 C667 1.363 . S
C666 C671 1.379 . S
C666 N673 1.356 . S
C667 C666 1.363 . S
C667 C670 1.363 1_545 S
N668 C670 1.356 . S
N668 H680 0.984 . S
N668 H681 0.985 1_565 S
N669 C671 1.356 . S
N669 H674 0.984 1_545 S
N669 H675 0.985 . S
C670 C664 1.379 . S
C670 C667 1.363 1_565 S
C670 N668 1.356 . S
C671 C665 1.363 1_545 S
C671 C666 1.379 . S
C671 N669 1.356 . S
N672 C664 1.356 . S
N672 H678 0.984 . S
N672 H679 0.984 . S
N673 C666 1.356 . S
N673 H676 0.984 . S
N673 H677 0.985 . S
H674 N669 0.984 1_565 S
H675 N669 0.985 . S
H676 N673 0.984 . S
H677 N673 0.985 . S
H678 N672 0.984 . S
H679 N672 0.984 . S
H680 N668 0.984 . S
H681 N668 0.985 1_545 S
C682 C683 1.363 1_554 S
C682 C688 1.379 1_565 S
C682 N690 1.356 . S
C683 C682 1.363 1_556 S
C683 C689 1.363 1_455 S
C684 C685 1.363 1_556 S
C684 C689 1.379 1_545 S
C684 N691 1.356 . S
C685 C684 1.363 1_554 S
C685 C688 1.363 1_655 S
N686 C688 1.356 1_655 S
N686 H698 0.984 1_655 S
N686 H699 0.985 . S
N687 C689 1.356 1_455 S
N687 H692 0.984 . S
N687 H693 0.985 1_455 S
C688 C682 1.379 1_545 S
C688 C685 1.363 1_455 S
C688 N686 1.356 1_455 S
C689 C683 1.363 1_655 S
C689 C684 1.379 1_565 S
C689 N687 1.356 1_655 S
N690 C682 1.356 . S
N690 H696 0.984 . S
N690 H697 0.984 . S
N691 C684 1.356 . S
N691 H694 0.984 . S
N691 H695 0.985 . S
H692 N687 0.984 . S
H693 N687 0.985 1_655 S
H694 N691 0.984 . S
H695 N691 0.985 . S
H696 N690 0.984 . S
H697 N690 0.984 . S
H698 N686 0.984 1_455 S
H699 N686 0.985 . S
C700 C701 1.363 1_554 S
C700 C706 1.379 . S
C700 N708 1.358 . S
C701 C700 1.363 1_556 S
C701 C707 1.363 1_545 S
C702 C703 1.363 1_556 S
C702 C707 1.379 . S
C702 N709 1.358 . S
C703 C702 1.363 1_554 S
C703 C706 1.363 1_565 S
N704 C706 1.356 . S
N704 H716 0.984 . S
N704 H717 0.985 1_545 S
N705 C707 1.356 . S
N705 H710 0.984 1_565 S
N705 H711 0.985 . S
C706 C700 1.379 . S
C706 C703 1.363 1_545 S
C706 N704 1.356 . S
C707 C701 1.363 1_565 S
C707 C702 1.379 . S
C707 N705 1.356 . S
N708 C700 1.358 . S
N708 H714 0.994 . S
N708 H715 0.974 1_554 S
N709 C702 1.358 . S
N709 H712 0.974 1_556 S
N709 H713 0.994 . S
H710 N705 0.984 1_545 S
H711 N705 0.985 . S
H712 N709 0.974 1_554 S
H713 N709 0.994 . S
H714 N708 0.994 . S
H715 N708 0.974 1_556 S
H716 N704 0.984 . S
H717 N704 0.985 1_565 S
C718 C719 1.363 1_565 S
C718 C724 1.379 . S
C718 N726 1.356 . S
C719 C718 1.363 1_545 S
C719 C725 1.363 1_455 S
C720 C721 1.363 1_545 S
C720 C725 1.379 . S
C720 N727 1.356 . S
C721 C720 1.363 1_565 S
C721 C724 1.363 1_655 S
N722 C724 1.356 . S
N722 H734 0.984 . S
N722 H735 0.985 1_455 S
N723 C725 1.356 . S
N723 H728 0.984 1_655 S
N723 H729 0.985 . S
C724 C718 1.379 . S
C724 C721 1.363 1_455 S
C724 N722 1.356 . S
C725 C719 1.363 1_655 S
C725 C720 1.379 . S
C725 N723 1.356 . S
N726 C718 1.356 . S
N726 H732 0.984 . S
N726 H733 0.984 1_565 S
N727 C720 1.356 . S
N727 H730 0.984 1_545 S
N727 H731 0.985 . S
H728 N723 0.984 1_455 S
H729 N723 0.985 . S
H730 N727 0.984 1_565 S
H731 N727 0.985 . S
H732 N726 0.984 . S
H733 N726 0.984 1_545 S
H734 N722 0.984 . S
H735 N722 0.985 1_655 S
C736 C737 1.363 1_455 S
C736 C742 1.379 . S
C736 N744 1.356 . S
C737 C736 1.363 1_655 S
C737 C743 1.363 . S
C738 C739 1.363 1_655 S
C738 C743 1.379 . S
C738 N745 1.356 . S
C739 C738 1.363 1_455 S
C739 C742 1.363 . S
N740 C742 1.356 . S
N740 H752 0.984 . S
N740 H753 0.985 . S
N741 C743 1.356 . S
N741 H746 0.984 . S
N741 H747 0.985 . S
C742 C736 1.379 . S
C742 C739 1.363 . S
C742 N740 1.356 . S
C743 C737 1.363 . S
C743 C738 1.379 . S
C743 N741 1.356 . S
N744 C736 1.356 . S
N744 H750 0.984 . S
N744 H751 0.984 1_455 S
N745 C738 1.356 . S
N745 H748 0.984 1_655 S
N745 H749 0.985 . S
H746 N741 0.984 . S
H747 N741 0.985 . S
H748 N745 0.984 1_455 S
H749 N745 0.985 . S
H750 N744 0.984 . S
H751 N744 0.984 1_655 S
H752 N740 0.984 . S
H753 N740 0.985 . S
C754 C755 1.363 . S
C754 C760 1.379 1_455 S
C754 N762 1.356 . S
C755 C754 1.363 . S
C755 C761 1.363 . S
C756 C757 1.363 . S
C756 C761 1.379 1_655 S
C756 N763 1.356 . S
C757 C756 1.363 . S
C757 C760 1.363 . S
N758 C760 1.356 . S
N758 H770 0.984 . S
N758 H771 0.985 . S
N759 C761 1.356 . S
N759 H764 0.984 . S
N759 H765 0.985 . S
C760 C754 1.379 1_655 S
C760 C757 1.363 . S
C760 N758 1.356 . S
C761 C755 1.363 . S
C761 C756 1.379 1_455 S
C761 N759 1.356 . S
N762 C754 1.356 . S
N762 H768 0.984 . S
N762 H769 0.984 . S
N763 C756 1.356 . S
N763 H766 0.984 . S
N763 H767 0.985 . S
H764 N759 0.984 . S
H765 N759 0.985 . S
H766 N763 0.984 . S
H767 N763 0.985 . S
H768 N762 0.984 . S
H769 N762 0.984 . S
H770 N758 0.984 . S
H771 N758 0.985 . S
C772 C773 1.363 . S
C772 C778 1.379 . S
C772 N780 1.356 . S
C773 C772 1.363 . S
C773 C779 1.363 . S
C774 C775 1.363 . S
C774 C779 1.379 . S
C774 N781 1.356 . S
C775 C774 1.363 . S
C775 C778 1.363 . S
N776 C778 1.356 . S
N776 H788 0.984 . S
N776 H789 0.985 . S
N777 C779 1.356 . S
N777 H782 0.984 . S
N777 H783 0.985 . S
C778 C772 1.379 . S
C778 C775 1.363 . S
C778 N776 1.356 . S
C779 C773 1.363 . S
C779 C774 1.379 . S
C779 N777 1.356 . S
N780 C772 1.356 . S
N780 H786 0.984 . S
N780 H787 0.984 . S
N781 C774 1.356 . S
N781 H784 0.984 . S
N781 H785 0.985 . S
H782 N777 0.984 . S
H783 N777 0.985 . S
H784 N781 0.984 . S
H785 N781 0.985 . S
H786 N780 0.984 . S
H787 N780 0.984 . S
H788 N776 0.984 . S
H789 N776 0.985 . S
C790 C791 1.363 . S
C790 C796 1.379 . S
C790 N798 1.356 . S
C791 C790 1.363 . S
C791 C797 1.363 . S
C792 C793 1.363 . S
C792 C797 1.379 . S
C792 N799 1.356 . S
C793 C792 1.363 . S
C793 C796 1.363 . S
N794 C796 1.356 . S
N794 H806 0.984 . S
N794 H807 0.985 . S
N795 C797 1.356 . S
N795 H800 0.984 . S
N795 H801 0.985 . S
C796 C790 1.379 . S
C796 C793 1.363 . S
C796 N794 1.356 . S
C797 C791 1.363 . S
C797 C792 1.379 . S
C797 N795 1.356 . S
N798 C790 1.356 . S
N798 H804 0.984 . S
N798 H805 0.984 . S
N799 C792 1.356 . S
N799 H802 0.984 . S
N799 H803 0.985 . S
H800 N795 0.984 . S
H801 N795 0.985 . S
H802 N799 0.984 . S
H803 N799 0.985 . S
H804 N798 0.984 . S
H805 N798 0.984 . S
H806 N794 0.984 . S
H807 N794 0.985 . S
C808 C809 1.363 . S
C808 C814 1.379 . S
C808 N816 1.356 . S
C809 C808 1.363 . S
C809 C815 1.363 1_655 S
C810 C811 1.363 . S
C810 C815 1.379 . S
C810 N817 1.356 . S
C811 C810 1.363 . S
C811 C814 1.363 1_455 S
N812 C814 1.356 . S
N812 H824 0.984 . S
N812 H825 0.985 1_655 S
N813 C815 1.356 . S
N813 H818 0.984 1_455 S
N813 H819 0.985 . S
C814 C808 1.379 . S
C814 C811 1.363 1_655 S
C814 N812 1.356 . S
C815 C809 1.363 1_455 S
C815 C810 1.379 . S
C815 N813 1.356 . S
N816 C808 1.356 . S
N816 H822 0.984 . S
N816 H823 0.984 . S
N817 C810 1.356 . S
N817 H820 0.984 . S
N817 H821 0.985 . S
H818 N813 0.984 1_655 S
H819 N813 0.985 . S
H820 N817 0.984 . S
H821 N817 0.985 . S
H822 N816 0.984 . S
H823 N816 0.984 . S
H824 N812 0.984 . S
H825 N812 0.985 1_455 S
C826 C827 1.363 . S
C826 C832 1.379 . S
C826 N834 1.356 . S
C827 C826 1.363 . S
C827 C833 1.363 . S
C828 C829 1.363 . S
C828 C833 1.379 . S
C828 N835 1.356 . S
C829 C828 1.363 . S
C829 C832 1.363 . S
N830 C832 1.356 . S
N830 H842 0.984 . S
N830 H843 0.985 . S
N831 C833 1.356 . S
N831 H836 0.984 . S
N831 H837 0.985 . S
C832 C826 1.379 . S
C832 C829 1.363 . S
C832 N830 1.356 . S
C833 C827 1.363 . S
C833 C828 1.379 . S
C833 N831 1.356 . S
N834 C826 1.356 . S
N834 H840 0.984 . S
N834 H841 0.984 . S
N835 C828 1.356 . S
N835 H838 0.984 . S
N835 H839 0.985 . S
H836 N831 0.984 . S
H837 N831 0.985 . S
H838 N835 0.984 . S
H839 N835 0.985 . S
H840 N834 0.984 . S
H841 N834 0.984 . S
H842 N830 0.984 . S
H843 N830 0.985 . S
C844 C845 1.363 . S
C844 C850 1.379 . S
C844 N852 1.356 . S
C845 C844 1.363 . S
C845 C851 1.363 . S
C846 C847 1.363 . S
C846 C851 1.379 . S
C846 N853 1.356 . S
C847 C846 1.363 . S
C847 C850 1.363 . S
N848 C850 1.356 . S
N848 H860 0.984 . S
N848 H861 0.985 . S
N849 C851 1.356 . S
N849 H854 0.984 . S
N849 H855 0.985 . S
C850 C844 1.379 . S
C850 C847 1.363 . S
C850 N848 1.356 . S
C851 C845 1.363 . S
C851 C846 1.379 . S
C851 N849 1.356 . S
N852 C844 1.356 . S
N852 H858 0.984 . S
N852 H859 0.984 . S
N853 C846 1.356 . S
N853 H856 0.984 . S
N853 H857 0.985 . S
H854 N849 0.984 . S
H855 N849 0.985 . S
H856 N853 0.984 . S
H857 N853 0.985 . S
H858 N852 0.984 . S
H859 N852 0.984 . S
H860 N848 0.984 . S
H861 N848 0.985 . S
C862 C863 1.363 . S
C862 C868 1.379 1_455 S
C862 N870 1.356 . S
C863 C862 1.363 . S
C863 C869 1.363 . S
C864 C865 1.363 . S
C864 C869 1.379 1_655 S
C864 N871 1.356 . S
C865 C864 1.363 . S
C865 C868 1.363 . S
N866 C868 1.356 . S
N866 H878 0.984 . S
N866 H879 0.985 . S
N867 C869 1.356 . S
N867 H872 0.984 . S
N867 H873 0.985 . S
C868 C862 1.379 1_655 S
C868 C865 1.363 . S
C868 N866 1.356 . S
C869 C863 1.363 . S
C869 C864 1.379 1_455 S
C869 N867 1.356 . S
N870 C862 1.356 . S
N870 H876 0.984 . S
N870 H877 0.984 . S
N871 C864 1.356 . S
N871 H874 0.984 . S
N871 H875 0.985 . S
H872 N867 0.984 . S
H873 N867 0.985 . S
H874 N871 0.984 . S
H875 N871 0.985 . S
H876 N870 0.984 . S
H877 N870 0.984 . S
H878 N866 0.984 . S
H879 N866 0.985 . S
C880 C881 1.363 . S
C880 C886 1.379 . S
C880 N888 1.356 . S
C881 C880 1.363 . S
C881 C887 1.363 1_655 S
C882 C883 1.363 . S
C882 C887 1.379 . S
C882 N889 1.356 . S
C883 C882 1.363 . S
C883 C886 1.363 1_455 S
N884 C886 1.356 . S
N884 H896 0.984 . S
N884 H897 0.985 1_655 S
N885 C887 1.356 . S
N885 H890 0.984 1_455 S
N885 H891 0.985 . S
C886 C880 1.379 . S
C886 C883 1.363 1_655 S
C886 N884 1.356 . S
C887 C881 1.363 1_455 S
C887 C882 1.379 . S
C887 N885 1.356 . S
N888 C880 1.356 . S
N888 H894 0.984 . S
N888 H895 0.984 . S
N889 C882 1.356 . S
N889 H892 0.984 . S
N889 H893 0.985 . S
H890 N885 0.984 1_655 S
H891 N885 0.985 . S
H892 N889 0.984 . S
H893 N889 0.985 . S
H894 N888 0.984 . S
H895 N888 0.984 . S
H896 N884 0.984 . S
H897 N884 0.985 1_455 S
C898 C899 1.363 . S
C898 C904 1.379 1_655 S
C898 N906 1.356 . S
C899 C898 1.363 . S
C899 C905 1.363 . S
C900 C901 1.363 . S
C900 C905 1.379 1_455 S
C900 N907 1.356 . S
C901 C900 1.363 . S
C901 C904 1.363 . S
N902 C904 1.356 . S
N902 H914 0.984 . S
N902 H915 0.985 . S
N903 C905 1.356 . S
N903 H908 0.984 . S
N903 H909 0.985 . S
C904 C898 1.379 1_455 S
C904 C901 1.363 . S
C904 N902 1.356 . S
C905 C899 1.363 . S
C905 C900 1.379 1_655 S
C905 N903 1.356 . S
N906 C898 1.356 . S
N906 H912 0.984 . S
N906 H913 0.984 . S
N907 C900 1.356 . S
N907 H910 0.984 . S
N907 H911 0.985 . S
H908 N903 0.984 . S
H909 N903 0.985 . S
H910 N907 0.984 . S
H911 N907 0.985 . S
H912 N906 0.984 . S
H913 N906 0.984 . S
H914 N902 0.984 . S
H915 N902 0.985 . S
C916 C917 1.363 . S
C916 C922 1.379 . S
C916 N924 1.356 . S
C917 C916 1.363 . S
C917 C923 1.363 . S
C918 C919 1.363 . S
C918 C923 1.379 . S
C918 N925 1.356 . S
C919 C918 1.363 . S
C919 C922 1.363 . S
N920 C922 1.356 . S
N920 H932 0.984 . S
N920 H933 0.985 . S
N921 C923 1.356 . S
N921 H926 0.984 . S
N921 H927 0.985 . S
C922 C916 1.379 . S
C922 C919 1.363 . S
C922 N920 1.356 . S
C923 C917 1.363 . S
C923 C918 1.379 . S
C923 N921 1.356 . S
N924 C916 1.356 . S
N924 H930 0.984 . S
N924 H931 0.984 . S
N925 C918 1.356 . S
N925 H928 0.984 . S
N925 H929 0.985 . S
H926 N921 0.984 . S
H927 N921 0.985 . S
H928 N925 0.984 . S
H929 N925 0.985 . S
H930 N924 0.984 . S
H931 N924 0.984 . S
H932 N920 0.984 . S
H933 N920 0.985 . S
C934 C935 1.363 . S
C934 C940 1.379 . S
C934 N942 1.356 . S
C935 C934 1.363 . S
C935 C941 1.363 . S
C936 C937 1.363 . S
C936 C941 1.379 . S
C936 N943 1.356 . S
C937 C936 1.363 . S
C937 C940 1.363 . S
N938 C940 1.356 . S
N938 H950 0.984 . S
N938 H951 0.985 . S
N939 C941 1.356 . S
N939 H944 0.984 . S
N939 H945 0.985 . S
C940 C934 1.379 . S
C940 C937 1.363 . S
C940 N938 1.356 . S
C941 C935 1.363 . S
C941 C936 1.379 . S
C941 N939 1.356 . S
N942 C934 1.356 . S
N942 H948 0.984 . S
N942 H949 0.984 . S
N943 C936 1.356 . S
N943 H946 0.984 . S
N943 H947 0.985 . S
H944 N939 0.984 . S
H945 N939 0.985 . S
H946 N943 0.984 . S
H947 N943 0.985 . S
H948 N942 0.984 . S
H949 N942 0.984 . S
H950 N938 0.984 . S
H951 N938 0.985 . S
C952 C953 1.363 1_455 S
C952 C958 1.379 . S
C952 N960 1.356 . S
C953 C952 1.363 1_655 S
C953 C959 1.363 . S
C954 C955 1.363 1_655 S
C954 C959 1.379 . S
C954 N961 1.356 . S
C955 C954 1.363 1_455 S
C955 C958 1.363 . S
N956 C958 1.356 . S
N956 H968 0.984 . S
N956 H969 0.985 . S
N957 C959 1.356 . S
N957 H962 0.984 . S
N957 H963 0.985 . S
C958 C952 1.379 . S
C958 C955 1.363 . S
C958 N956 1.356 . S
C959 C953 1.363 . S
C959 C954 1.379 . S
C959 N957 1.356 . S
N960 C952 1.356 . S
N960 H966 0.984 . S
N960 H967 0.984 1_455 S
N961 C954 1.356 . S
N961 H964 0.984 1_655 S
N961 H965 0.985 . S
H962 N957 0.984 . S
H963 N957 0.985 . S
H964 N961 0.984 1_455 S
H965 N961 0.985 . S
H966 N960 0.984 . S
H967 N960 0.984 1_655 S
H968 N956 0.984 . S
H969 N956 0.985 . S
C970 C971 1.363 . S
C970 C976 1.379 . S
C970 N978 1.356 . S
C971 C970 1.363 . S
C971 C977 1.363 . S
C972 C973 1.363 . S
C972 C977 1.379 . S
C972 N979 1.356 . S
C973 C972 1.363 . S
C973 C976 1.363 . S
N974 C976 1.356 . S
N974 H986 0.984 . S
N974 H987 0.985 . S
N975 C977 1.356 . S
N975 H980 0.984 . S
N975 H981 0.985 . S
C976 C970 1.379 . S
C976 C973 1.363 . S
C976 N974 1.356 . S
C977 C971 1.363 . S
C977 C972 1.379 . S
C977 N975 1.356 . S
N978 C970 1.356 . S
N978 H984 0.984 . S
N978 H985 0.984 . S
N979 C972 1.356 . S
N979 H982 0.984 . S
N979 H983 0.985 . S
H980 N975 0.984 . S
H981 N975 0.985 . S
H982 N979 0.984 . S
H983 N979 0.985 . S
H984 N978 0.984 . S
H985 N978 0.984 . S
H986 N974 0.984 . S
H987 N974 0.985 . S
C988 C989 1.363 . S
C988 C994 1.379 . S
C988 N996 1.356 . S
C989 C988 1.363 . S
C989 C995 1.363 . S
C990 C991 1.363 . S
C990 C995 1.379 . S
C990 N997 1.356 . S
C991 C990 1.363 . S
C991 C994 1.363 . S
N992 C994 1.356 . S
N992 H1004 0.984 . S
N992 H1005 0.985 . S
N993 C995 1.356 . S
N993 H998 0.984 . S
N993 H999 0.985 . S
C994 C988 1.379 . S
C994 C991 1.363 . S
C994 N992 1.356 . S
C995 C989 1.363 . S
C995 C990 1.379 . S
C995 N993 1.356 . S
N996 C988 1.356 . S
N996 H1002 0.984 . S
N996 H1003 0.984 . S
N997 C990 1.356 . S
N997 H1000 0.984 . S
N997 H1001 0.985 . S
H998 N993 0.984 . S
H999 N993 0.985 . S
H1000 N997 0.984 . S
H1001 N997 0.985 . S
H1002 N996 0.984 . S
H1003 N996 0.984 . S
H1004 N992 0.984 . S
H1005 N992 0.985 . S
C1006 C1007 1.363 . S
C1006 C1012 1.379 1_655 S
C1006 N1014 1.356 . S
C1007 C1006 1.363 . S
C1007 C1013 1.363 . S
C1008 C1009 1.363 . S
C1008 C1013 1.379 1_455 S
C1008 N1015 1.356 . S
C1009 C1008 1.363 . S
C1009 C1012 1.363 . S
N1010 C1012 1.356 . S
N1010 H1022 0.984 . S
N1010 H1023 0.985 . S
N1011 C1013 1.356 . S
N1011 H1016 0.984 . S
N1011 H1017 0.985 . S
C1012 C1006 1.379 1_455 S
C1012 C1009 1.363 . S
C1012 N1010 1.356 . S
C1013 C1007 1.363 . S
C1013 C1008 1.379 1_655 S
C1013 N1011 1.356 . S
N1014 C1006 1.356 . S
N1014 H1020 0.984 . S
N1014 H1021 0.984 . S
N1015 C1008 1.356 . S
N1015 H1018 0.984 . S
N1015 H1019 0.985 . S
H1016 N1011 0.984 . S
H1017 N1011 0.985 . S
H1018 N1015 0.984 . S
H1019 N1015 0.985 . S
H1020 N1014 0.984 . S
H1021 N1014 0.984 . S
H1022 N1010 0.984 . S
H1023 N1010 0.985 . S
C1024 C1025 1.363 . S
C1024 C1030 1.379 . S
C1024 N1032 1.356 . S
C1025 C1024 1.363 . S
C1025 C1031 1.363 1_556 S
C1026 C1027 1.363 . S
C1026 C1031 1.379 . S
C1026 N1033 1.356 . S
C1027 C1026 1.363 . S
C1027 C1030 1.363 1_554 S
N1028 C1030 1.356 . S
N1028 H1040 0.984 . S
N1028 H1041 0.985 1_556 S
N1029 C1031 1.356 . S
N1029 H1034 0.984 1_554 S
N1029 H1035 0.985 . S
C1030 C1024 1.379 . S
C1030 C1027 1.363 1_556 S
C1030 N1028 1.356 . S
C1031 C1025 1.363 1_554 S
C1031 C1026 1.379 . S
C1031 N1029 1.356 . S
N1032 C1024 1.356 . S
N1032 H1038 0.984 . S
N1032 H1039 0.984 . S
N1033 C1026 1.356 . S
N1033 H1036 0.984 . S
N1033 H1037 0.985 . S
H1034 N1029 0.984 1_556 S
H1035 N1029 0.985 . S
H1036 N1033 0.984 . S
H1037 N1033 0.985 . S
H1038 N1032 0.984 . S
H1039 N1032 0.984 . S
H1040 N1028 0.984 . S
H1041 N1028 0.985 1_554 S
C1042 C1043 1.363 . S
C1042 C1048 1.379 1_545 S
C1042 N1050 1.356 . S
C1043 C1042 1.363 . S
C1043 C1049 1.363 . S
C1044 C1045 1.363 . S
C1044 C1049 1.379 1_565 S
C1044 N1051 1.356 . S
C1045 C1044 1.363 . S
C1045 C1048 1.363 . S
N1046 C1048 1.356 . S
N1046 H1058 0.984 . S
N1046 H1059 0.985 . S
N1047 C1049 1.356 . S
N1047 H1052 0.984 . S
N1047 H1053 0.985 . S
C1048 C1042 1.379 1_565 S
C1048 C1045 1.363 . S
C1048 N1046 1.356 . S
C1049 C1043 1.363 . S
C1049 C1044 1.379 1_545 S
C1049 N1047 1.356 . S
N1050 C1042 1.356 . S
N1050 H1056 0.984 . S
N1050 H1057 0.984 . S
N1051 C1044 1.356 . S
N1051 H1054 0.984 . S
N1051 H1055 0.985 . S
H1052 N1047 0.984 . S
H1053 N1047 0.985 . S
H1054 N1051 0.984 . S
H1055 N1051 0.985 . S
H1056 N1050 0.984 . S
H1057 N1050 0.984 . S
H1058 N1046 0.984 . S
H1059 N1046 0.985 . S
C1060 C1061 1.363 . S
C1060 C1066 1.379 . S
C1060 N1068 1.356 . S
C1061 C1060 1.363 . S
C1061 C1067 1.363 . S
C1062 C1063 1.363 . S
C1062 C1067 1.379 . S
C1062 N1069 1.356 . S
C1063 C1062 1.363 . S
C1063 C1066 1.363 . S
N1064 C1066 1.356 . S
N1064 H1076 0.984 . S
N1064 H1077 0.985 . S
N1065 C1067 1.356 . S
N1065 H1070 0.984 . S
N1065 H1071 0.985 . S
C1066 C1060 1.379 . S
C1066 C1063 1.363 . S
C1066 N1064 1.356 . S
C1067 C1061 1.363 . S
C1067 C1062 1.379 . S
C1067 N1065 1.356 . S
N1068 C1060 1.356 . S
N1068 H1074 0.984 . S
N1068 H1075 0.984 . S
N1069 C1062 1.356 . S
N1069 H1072 0.984 . S
N1069 H1073 0.985 . S
H1070 N1065 0.984 . S
H1071 N1065 0.985 . S
H1072 N1069 0.984 . S
H1073 N1069 0.985 . S
H1074 N1068 0.984 . S
H1075 N1068 0.984 . S
H1076 N1064 0.984 . S
H1077 N1064 0.985 . S
C1078 C1079 1.370 . S
C1078 C1084 1.372 1_545 S
C1078 N1086 1.359 . S
C1079 C1078 1.370 . S
C1079 C1085 1.363 . S
C1080 C1081 1.370 . S
C1080 C1085 1.372 1_565 S
C1080 N1087 1.359 . S
C1081 C1080 1.370 . S
C1081 C1084 1.363 . S
N1082 C1084 1.356 . S
N1082 H1094 0.984 . S
N1082 H1095 0.985 . S
N1083 C1085 1.356 . S
N1083 H1088 0.984 . S
N1083 H1089 0.985 . S
C1084 C1078 1.372 1_565 S
C1084 C1081 1.363 . S
C1084 N1082 1.356 . S
C1085 C1079 1.363 . S
C1085 C1080 1.372 1_545 S
C1085 N1083 1.356 . S
N1086 C1078 1.359 . S
N1086 H1092 0.984 1_545 S
N1086 H1093 0.984 . S
N1087 C1080 1.359 . S
N1087 H1090 0.984 . S
N1087 H1091 0.985 1_565 S
H1088 N1083 0.984 . S
H1089 N1083 0.985 . S
H1090 N1087 0.984 . S
H1091 N1087 0.985 1_545 S
H1092 N1086 0.984 1_565 S
H1093 N1086 0.984 . S
H1094 N1082 0.984 . S
H1095 N1082 0.985 . S
C1096 C1097 1.363 1_556 S
C1096 C1102 1.379 . S
C1096 N1104 1.356 . S
C1097 C1096 1.363 1_554 S
C1097 C1103 1.363 . S
C1098 C1099 1.363 1_554 S
C1098 C1103 1.379 . S
C1098 N1105 1.356 . S
C1099 C1098 1.363 1_556 S
C1099 C1102 1.363 . S
N1100 C1102 1.356 . S
N1100 H1112 0.984 . S
N1100 H1113 0.985 . S
N1101 C1103 1.356 . S
N1101 H1106 0.984 . S
N1101 H1107 0.985 . S
C1102 C1096 1.379 . S
C1102 C1099 1.363 . S
C1102 N1100 1.356 . S
C1103 C1097 1.363 . S
C1103 C1098 1.379 . S
C1103 N1101 1.356 . S
N1104 C1096 1.356 . S
N1104 H1110 0.984 . S
N1104 H1111 0.984 1_556 S
N1105 C1098 1.356 . S
N1105 H1108 0.984 1_554 S
N1105 H1109 0.985 . S
H1106 N1101 0.984 . S
H1107 N1101 0.985 . S
H1108 N1105 0.984 1_556 S
H1109 N1105 0.985 . S
H1110 N1104 0.984 . S
H1111 N1104 0.984 1_554 S
H1112 N1100 0.984 . S
H1113 N1100 0.985 . S
C1114 C1115 1.363 . S
C1114 C1120 1.362 1_565 S
C1114 N1122 1.356 . S
C1115 C1114 1.363 . S
C1115 C1121 1.380 . S
C1116 C1117 1.363 . S
C1116 C1121 1.362 1_545 S
C1116 N1123 1.356 . S
C1117 C1116 1.363 . S
C1117 C1120 1.380 . S
N1118 C1120 1.362 . S
N1118 H1130 0.984 1_545 S
N1118 H1131 0.985 . S
N1119 C1121 1.362 . S
N1119 H1124 0.984 . S
N1119 H1125 0.985 1_565 S
C1120 C1114 1.362 1_545 S
C1120 C1117 1.380 . S
C1120 N1118 1.362 . S
C1121 C1115 1.380 . S
C1121 C1116 1.362 1_565 S
C1121 N1119 1.362 . S
N1122 C1114 1.356 . S
N1122 H1128 0.984 . S
N1122 H1129 0.984 . S
N1123 C1116 1.356 . S
N1123 H1126 0.984 . S
N1123 H1127 0.985 . S
H1124 N1119 0.984 . S
H1125 N1119 0.985 1_545 S
H1126 N1123 0.984 . S
H1127 N1123 0.985 . S
H1128 N1122 0.984 . S
H1129 N1122 0.984 . S
H1130 N1118 0.984 1_565 S
H1131 N1118 0.985 . S
C1132 C1133 1.363 . S
C1132 C1138 1.379 . S
C1132 N1140 1.356 . S
C1133 C1132 1.363 . S
C1133 C1139 1.363 . S
C1134 C1135 1.363 . S
C1134 C1139 1.379 . S
C1134 N1141 1.356 . S
C1135 C1134 1.363 . S
C1135 C1138 1.363 . S
N1136 C1138 1.356 . S
N1136 H1148 0.984 . S
N1136 H1149 0.985 . S
N1137 C1139 1.356 . S
N1137 H1142 0.984 . S
N1137 H1143 0.985 . S
C1138 C1132 1.379 . S
C1138 C1135 1.363 . S
C1138 N1136 1.356 . S
C1139 C1133 1.363 . S
C1139 C1134 1.379 . S
C1139 N1137 1.356 . S
N1140 C1132 1.356 . S
N1140 H1146 0.984 . S
N1140 H1147 0.984 . S
N1141 C1134 1.356 . S
N1141 H1144 0.984 . S
N1141 H1145 0.985 . S
H1142 N1137 0.984 . S
H1143 N1137 0.985 . S
H1144 N1141 0.984 . S
H1145 N1141 0.985 . S
H1146 N1140 0.984 . S
H1147 N1140 0.984 . S
H1148 N1136 0.984 . S
H1149 N1136 0.985 . S
C1150 C1151 1.363 . S
C1150 C1156 1.379 1_545 S
C1150 N1158 1.356 . S
C1151 C1150 1.363 . S
C1151 C1157 1.363 . S
C1152 C1153 1.363 . S
C1152 C1157 1.379 1_565 S
C1152 N1159 1.356 . S
C1153 C1152 1.363 . S
C1153 C1156 1.363 . S
N1154 C1156 1.356 . S
N1154 H1166 0.984 . S
N1154 H1167 0.985 . S
N1155 C1157 1.356 . S
N1155 H1160 0.984 . S
N1155 H1161 0.985 . S
C1156 C1150 1.379 1_565 S
C1156 C1153 1.363 . S
C1156 N1154 1.356 . S
C1157 C1151 1.363 . S
C1157 C1152 1.379 1_545 S
C1157 N1155 1.356 . S
N1158 C1150 1.356 . S
N1158 H1164 0.984 . S
N1158 H1165 0.984 . S
N1159 C1152 1.356 . S
N1159 H1162 0.984 . S
N1159 H1163 0.985 . S
H1160 N1155 0.984 . S
H1161 N1155 0.985 . S
H1162 N1159 0.984 . S
H1163 N1159 0.985 . S
H1164 N1158 0.984 . S
H1165 N1158 0.984 . S
H1166 N1154 0.984 . S
H1167 N1154 0.985 . S
C1168 C1169 1.363 . S
C1168 C1174 1.379 . S
C1168 N1176 1.356 . S
C1169 C1168 1.363 . S
C1169 C1175 1.363 . S
C1170 C1171 1.363 . S
C1170 C1175 1.379 . S
C1170 N1177 1.356 . S
C1171 C1170 1.363 . S
C1171 C1174 1.363 . S
N1172 C1174 1.356 . S
N1172 H1184 0.984 . S
N1172 H1185 0.985 . S
N1173 C1175 1.356 . S
N1173 H1178 0.984 . S
N1173 H1179 0.985 . S
C1174 C1168 1.379 . S
C1174 C1171 1.363 . S
C1174 N1172 1.356 . S
C1175 C1169 1.363 . S
C1175 C1170 1.379 . S
C1175 N1173 1.356 . S
N1176 C1168 1.356 . S
N1176 H1182 0.984 . S
N1176 H1183 0.984 . S
N1177 C1170 1.356 . S
N1177 H1180 0.984 . S
N1177 H1181 0.985 . S
H1178 N1173 0.984 . S
H1179 N1173 0.985 . S
H1180 N1177 0.984 . S
H1181 N1177 0.985 . S
H1182 N1176 0.984 . S
H1183 N1176 0.984 . S
H1184 N1172 0.984 . S
H1185 N1172 0.985 . S
C1186 C1187 1.363 . S
C1186 C1192 1.379 . S
C1186 N1194 1.356 . S
C1187 C1186 1.363 . S
C1187 C1193 1.363 . S
C1188 C1189 1.363 . S
C1188 C1193 1.379 . S
C1188 N1195 1.356 . S
C1189 C1188 1.363 . S
C1189 C1192 1.363 . S
N1190 C1192 1.356 . S
N1190 H1202 0.984 . S
N1190 H1203 0.985 . S
N1191 C1193 1.356 . S
N1191 H1196 0.984 . S
N1191 H1197 0.985 . S
C1192 C1186 1.379 . S
C1192 C1189 1.363 . S
C1192 N1190 1.356 . S
C1193 C1187 1.363 . S
C1193 C1188 1.379 . S
C1193 N1191 1.356 . S
N1194 C1186 1.356 . S
N1194 H1200 0.984 . S
N1194 H1201 0.984 . S
N1195 C1188 1.356 . S
N1195 H1198 0.984 . S
N1195 H1199 0.985 . S
H1196 N1191 0.984 . S
H1197 N1191 0.985 . S
H1198 N1195 0.984 . S
H1199 N1195 0.985 . S
H1200 N1194 0.984 . S
H1201 N1194 0.984 . S
H1202 N1190 0.984 . S
H1203 N1190 0.985 . S
C1204 C1205 1.363 1_556 S
C1204 C1210 1.379 . S
C1204 N1212 1.356 . S
C1205 C1204 1.363 1_554 S
C1205 C1211 1.363 . S
C1206 C1207 1.363 1_554 S
C1206 C1211 1.379 . S
C1206 N1213 1.356 . S
C1207 C1206 1.363 1_556 S
C1207 C1210 1.363 . S
N1208 C1210 1.356 . S
N1208 H1220 0.984 . S
N1208 H1221 0.985 . S
N1209 C1211 1.356 . S
N1209 H1214 0.984 . S
N1209 H1215 0.985 . S
C1210 C1204 1.379 . S
C1210 C1207 1.363 . S
C1210 N1208 1.356 . S
C1211 C1205 1.363 . S
C1211 C1206 1.379 . S
C1211 N1209 1.356 . S
N1212 C1204 1.356 . S
N1212 H1218 0.984 . S
N1212 H1219 0.984 1_556 S
N1213 C1206 1.356 . S
N1213 H1216 0.984 1_554 S
N1213 H1217 0.985 . S
H1214 N1209 0.984 . S
H1215 N1209 0.985 . S
H1216 N1213 0.984 1_556 S
H1217 N1213 0.985 . S
H1218 N1212 0.984 . S
H1219 N1212 0.984 1_554 S
H1220 N1208 0.984 . S
H1221 N1208 0.985 . S
C1222 C1223 1.363 . S
C1222 C1228 1.379 . S
C1222 N1230 1.356 . S
C1223 C1222 1.363 . S
C1223 C1229 1.363 . S
C1224 C1225 1.363 . S
C1224 C1229 1.379 . S
C1224 N1231 1.356 . S
C1225 C1224 1.363 . S
C1225 C1228 1.363 . S
N1226 C1228 1.356 . S
N1226 H1238 0.984 . S
N1226 H1239 0.985 . S
N1227 C1229 1.356 . S
N1227 H1232 0.984 . S
N1227 H1233 0.985 . S
C1228 C1222 1.379 . S
C1228 C1225 1.363 . S
C1228 N1226 1.356 . S
C1229 C1223 1.363 . S
C1229 C1224 1.379 . S
C1229 N1227 1.356 . S
N1230 C1222 1.356 . S
N1230 H1236 0.984 . S
N1230 H1237 0.984 . S
N1231 C1224 1.356 . S
N1231 H1234 0.984 . S
N1231 H1235 0.985 . S
H1232 N1227 0.984 . S
H1233 N1227 0.985 . S
H1234 N1231 0.984 . S
H1235 N1231 0.985 . S
H1236 N1230 0.984 . S
H1237 N1230 0.984 . S
H1238 N1226 0.984 . S
H1239 N1226 0.985 . S
C1240 C1241 1.363 . S
C1240 C1246 1.379 . S
C1240 N1248 1.356 . S
C1241 C1240 1.363 . S
C1241 C1247 1.363 . S
C1242 C1243 1.363 . S
C1242 C1247 1.379 . S
C1242 N1249 1.356 . S
C1243 C1242 1.363 . S
C1243 C1246 1.363 . S
N1244 C1246 1.356 . S
N1244 H1256 0.984 . S
N1244 H1257 0.985 . S
N1245 C1247 1.356 . S
N1245 H1250 0.984 . S
N1245 H1251 0.985 . S
C1246 C1240 1.379 . S
C1246 C1243 1.363 . S
C1246 N1244 1.356 . S
C1247 C1241 1.363 . S
C1247 C1242 1.379 . S
C1247 N1245 1.356 . S
N1248 C1240 1.356 . S
N1248 H1254 0.984 . S
N1248 H1255 0.984 . S
N1249 C1242 1.356 . S
N1249 H1252 0.984 . S
N1249 H1253 0.985 . S
H1250 N1245 0.984 . S
H1251 N1245 0.985 . S
H1252 N1249 0.984 . S
H1253 N1249 0.985 . S
H1254 N1248 0.984 . S
H1255 N1248 0.984 . S
H1256 N1244 0.984 . S
H1257 N1244 0.985 . S
C1258 C1259 1.363 . S
C1258 C1264 1.379 . S
C1258 N1266 1.356 . S
C1259 C1258 1.363 . S
C1259 C1265 1.363 . S
C1260 C1261 1.363 . S
C1260 C1265 1.379 . S
C1260 N1267 1.356 . S
C1261 C1260 1.363 . S
C1261 C1264 1.363 . S
N1262 C1264 1.356 . S
N1262 H1274 0.984 . S
N1262 H1275 0.985 . S
N1263 C1265 1.356 . S
N1263 H1268 0.984 . S
N1263 H1269 0.985 . S
C1264 C1258 1.379 . S
C1264 C1261 1.363 . S
C1264 N1262 1.356 . S
C1265 C1259 1.363 . S
C1265 C1260 1.379 . S
C1265 N1263 1.356 . S
N1266 C1258 1.356 . S
N1266 H1272 0.984 . S
N1266 H1273 0.984 . S
N1267 C1260 1.356 . S
N1267 H1270 0.984 . S
N1267 H1271 0.985 . S
H1268 N1263 0.984 . S
H1269 N1263 0.985 . S
H1270 N1267 0.984 . S
H1271 N1267 0.985 . S
H1272 N1266 0.984 . S
H1273 N1266 0.984 . S
H1274 N1262 0.984 . S
H1275 N1262 0.985 . S
C1276 C1277 1.363 1_554 S
C1276 C1282 1.379 . S
C1276 N1284 1.356 . S
C1277 C1276 1.363 1_556 S
C1277 C1283 1.363 . S
C1278 C1279 1.363 1_556 S
C1278 C1283 1.379 . S
C1278 N1285 1.356 . S
C1279 C1278 1.363 1_554 S
C1279 C1282 1.363 . S
N1280 C1282 1.356 . S
N1280 H1292 0.984 . S
N1280 H1293 0.985 . S
N1281 C1283 1.356 . S
N1281 H1286 0.984 . S
N1281 H1287 0.985 . S
C1282 C1276 1.379 . S
C1282 C1279 1.363 . S
C1282 N1280 1.356 . S
C1283 C1277 1.363 . S
C1283 C1278 1.379 . S
C1283 N1281 1.356 . S
N1284 C1276 1.356 . S
N1284 H1290 0.984 . S
N1284 H1291 0.984 1_554 S
N1285 C1278 1.356 . S
N1285 H1288 0.984 1_556 S
N1285 H1289 0.985 . S
H1286 N1281 0.984 . S
H1287 N1281 0.985 . S
H1288 N1285 0.984 1_554 S
H1289 N1285 0.985 . S
H1290 N1284 0.984 . S
H1291 N1284 0.984 1_556 S
H1292 N1280 0.984 . S
H1293 N1280 0.985 . S
C1294 C1295 1.363 . S
C1294 C1300 1.379 . S
C1294 N1302 1.356 . S
C1295 C1294 1.363 . S
C1295 C1301 1.363 . S
C1296 C1297 1.363 . S
C1296 C1301 1.379 . S
C1296 N1303 1.356 . S
C1297 C1296 1.363 . S
C1297 C1300 1.363 . S
N1298 C1300 1.356 . S
N1298 H1310 0.984 . S
N1298 H1311 0.985 . S
N1299 C1301 1.356 . S
N1299 H1304 0.984 . S
N1299 H1305 0.985 . S
C1300 C1294 1.379 . S
C1300 C1297 1.363 . S
C1300 N1298 1.356 . S
C1301 C1295 1.363 . S
C1301 C1296 1.379 . S
C1301 N1299 1.356 . S
N1302 C1294 1.356 . S
N1302 H1308 0.984 . S
N1302 H1309 0.984 . S
N1303 C1296 1.356 . S
N1303 H1306 0.984 . S
N1303 H1307 0.985 . S
H1304 N1299 0.984 . S
H1305 N1299 0.985 . S
H1306 N1303 0.984 . S
H1307 N1303 0.985 . S
H1308 N1302 0.984 . S
H1309 N1302 0.984 . S
H1310 N1298 0.984 . S
H1311 N1298 0.985 . S
C1312 C1313 1.363 . S
C1312 C1318 1.379 . S
C1312 N1320 1.356 . S
C1313 C1312 1.363 . S
C1313 C1319 1.363 . S
C1314 C1315 1.363 . S
C1314 C1319 1.379 . S
C1314 N1321 1.356 . S
C1315 C1314 1.363 . S
C1315 C1318 1.363 . S
N1316 C1318 1.356 . S
N1316 H1328 0.984 . S
N1316 H1329 0.985 . S
N1317 C1319 1.356 . S
N1317 H1322 0.984 . S
N1317 H1323 0.985 . S
C1318 C1312 1.379 . S
C1318 C1315 1.363 . S
C1318 N1316 1.356 . S
C1319 C1313 1.363 . S
C1319 C1314 1.379 . S
C1319 N1317 1.356 . S
N1320 C1312 1.356 . S
N1320 H1326 0.984 . S
N1320 H1327 0.984 . S
N1321 C1314 1.356 . S
N1321 H1324 0.984 . S
N1321 H1325 0.985 . S
H1322 N1317 0.984 . S
H1323 N1317 0.985 . S
H1324 N1321 0.984 . S
H1325 N1321 0.985 . S
H1326 N1320 0.984 . S
H1327 N1320 0.984 . S
H1328 N1316 0.984 . S
H1329 N1316 0.985 . S
C1330 C1331 1.363 . S
C1330 C1336 1.379 . S
C1330 N1338 1.356 . S
C1331 C1330 1.363 . S
C1331 C1337 1.363 . S
C1332 C1333 1.363 . S
C1332 C1337 1.379 . S
C1332 N1339 1.356 . S
C1333 C1332 1.363 . S
C1333 C1336 1.363 . S
N1334 C1336 1.356 . S
N1334 H1346 0.984 . S
N1334 H1347 0.985 . S
N1335 C1337 1.356 . S
N1335 H1340 0.984 . S
N1335 H1341 0.985 . S
C1336 C1330 1.379 . S
C1336 C1333 1.363 . S
C1336 N1334 1.356 . S
C1337 C1331 1.363 . S
C1337 C1332 1.379 . S
C1337 N1335 1.356 . S
N1338 C1330 1.356 . S
N1338 H1344 0.984 . S
N1338 H1345 0.984 . S
N1339 C1332 1.356 . S
N1339 H1342 0.984 . S
N1339 H1343 0.985 . S
H1340 N1335 0.984 . S
H1341 N1335 0.985 . S
H1342 N1339 0.984 . S
H1343 N1339 0.985 . S
H1344 N1338 0.984 . S
H1345 N1338 0.984 . S
H1346 N1334 0.984 . S
H1347 N1334 0.985 . S
C1348 C1349 1.363 . S
C1348 C1354 1.379 . S
C1348 N1356 1.356 . S
C1349 C1348 1.363 . S
C1349 C1355 1.363 . S
C1350 C1351 1.363 . S
C1350 C1355 1.379 . S
C1350 N1357 1.356 . S
C1351 C1350 1.363 . S
C1351 C1354 1.363 . S
N1352 C1354 1.356 . S
N1352 H1364 0.984 . S
N1352 H1365 0.985 . S
N1353 C1355 1.356 . S
N1353 H1358 0.984 . S
N1353 H1359 0.985 . S
C1354 C1348 1.379 . S
C1354 C1351 1.363 . S
C1354 N1352 1.356 . S
C1355 C1349 1.363 . S
C1355 C1350 1.379 . S
C1355 N1353 1.356 . S
N1356 C1348 1.356 . S
N1356 H1362 0.984 . S
N1356 H1363 0.984 . S
N1357 C1350 1.356 . S
N1357 H1360 0.984 . S
N1357 H1361 0.985 . S
H1358 N1353 0.984 . S
H1359 N1353 0.985 . S
H1360 N1357 0.984 . S
H1361 N1357 0.985 . S
H1362 N1356 0.984 . S
H1363 N1356 0.984 . S
H1364 N1352 0.984 . S
H1365 N1352 0.985 . S
C1366 C1367 1.363 . S
C1366 C1372 1.379 . S
C1366 N1374 1.356 . S
C1367 C1366 1.363 . S
C1367 C1373 1.363 . S
C1368 C1369 1.363 . S
C1368 C1373 1.379 . S
C1368 N1375 1.356 . S
C1369 C1368 1.363 . S
C1369 C1372 1.363 . S
N1370 C1372 1.356 . S
N1370 H1382 0.984 . S
N1370 H1383 0.985 . S
N1371 C1373 1.356 . S
N1371 H1376 0.984 . S
N1371 H1377 0.985 . S
C1372 C1366 1.379 . S
C1372 C1369 1.363 . S
C1372 N1370 1.356 . S
C1373 C1367 1.363 . S
C1373 C1368 1.379 . S
C1373 N1371 1.356 . S
N1374 C1366 1.356 . S
N1374 H1380 0.984 . S
N1374 H1381 0.984 . S
N1375 C1368 1.356 . S
N1375 H1378 0.984 . S
N1375 H1379 0.985 . S
H1376 N1371 0.984 . S
H1377 N1371 0.985 . S
H1378 N1375 0.984 . S
H1379 N1375 0.985 . S
H1380 N1374 0.984 . S
H1381 N1374 0.984 . S
H1382 N1370 0.984 . S
H1383 N1370 0.985 . S
C1384 C1385 1.363 . S
C1384 C1390 1.379 . S
C1384 N1392 1.356 . S
C1385 C1384 1.363 . S
C1385 C1391 1.363 . S
C1386 C1387 1.363 . S
C1386 C1391 1.379 . S
C1386 N1393 1.356 . S
C1387 C1386 1.363 . S
C1387 C1390 1.363 . S
N1388 C1390 1.356 . S
N1388 H1400 0.984 . S
N1388 H1401 0.985 . S
N1389 C1391 1.356 . S
N1389 H1394 0.984 . S
N1389 H1395 0.985 . S
C1390 C1384 1.379 . S
C1390 C1387 1.363 . S
C1390 N1388 1.356 . S
C1391 C1385 1.363 . S
C1391 C1386 1.379 . S
C1391 N1389 1.356 . S
N1392 C1384 1.356 . S
N1392 H1398 0.984 . S
N1392 H1399 0.984 . S
N1393 C1386 1.356 . S
N1393 H1396 0.984 . S
N1393 H1397 0.985 . S
H1394 N1389 0.984 . S
H1395 N1389 0.985 . S
H1396 N1393 0.984 . S
H1397 N1393 0.985 . S
H1398 N1392 0.984 . S
H1399 N1392 0.984 . S
H1400 N1388 0.984 . S
H1401 N1388 0.985 . S
C1402 C1403 1.363 . S
C1402 C1408 1.379 . S
C1402 N1410 1.356 . S
C1403 C1402 1.363 . S
C1403 C1409 1.363 . S
C1404 C1405 1.363 . S
C1404 C1409 1.379 . S
C1404 N1411 1.356 . S
C1405 C1404 1.363 . S
C1405 C1408 1.363 . S
N1406 C1408 1.356 . S
N1406 H1418 0.984 . S
N1406 H1419 0.985 . S
N1407 C1409 1.356 . S
N1407 H1412 0.984 . S
N1407 H1413 0.985 . S
C1408 C1402 1.379 . S
C1408 C1405 1.363 . S
C1408 N1406 1.356 . S
C1409 C1403 1.363 . S
C1409 C1404 1.379 . S
C1409 N1407 1.356 . S
N1410 C1402 1.356 . S
N1410 H1416 0.984 . S
N1410 H1417 0.984 . S
N1411 C1404 1.356 . S
N1411 H1414 0.984 . S
N1411 H1415 0.985 . S
H1412 N1407 0.984 . S
H1413 N1407 0.985 . S
H1414 N1411 0.984 . S
H1415 N1411 0.985 . S
H1416 N1410 0.984 . S
H1417 N1410 0.984 . S
H1418 N1406 0.984 . S
H1419 N1406 0.985 . S
C1420 C1421 1.363 . S
C1420 C1426 1.379 . S
C1420 N1428 1.356 . S
C1421 C1420 1.363 . S
C1421 C1427 1.363 . S
C1422 C1423 1.363 . S
C1422 C1427 1.379 . S
C1422 N1429 1.356 . S
C1423 C1422 1.363 . S
C1423 C1426 1.363 . S
N1424 C1426 1.356 . S
N1424 H1436 0.984 . S
N1424 H1437 0.985 . S
N1425 C1427 1.356 . S
N1425 H1430 0.984 . S
N1425 H1431 0.985 . S
C1426 C1420 1.379 . S
C1426 C1423 1.363 . S
C1426 N1424 1.356 . S
C1427 C1421 1.363 . S
C1427 C1422 1.379 . S
C1427 N1425 1.356 . S
N1428 C1420 1.356 . S
N1428 H1434 0.984 . S
N1428 H1435 0.984 . S
N1429 C1422 1.356 . S
N1429 H1432 0.984 . S
N1429 H1433 0.985 . S
H1430 N1425 0.984 . S
H1431 N1425 0.985 . S
H1432 N1429 0.984 . S
H1433 N1429 0.985 . S
H1434 N1428 0.984 . S
H1435 N1428 0.984 . S
H1436 N1424 0.984 . S
H1437 N1424 0.985 . S
C1438 C1439 1.363 . S
C1438 C1444 1.379 . S
C1438 N1446 1.356 . S
C1439 C1438 1.363 . S
C1439 C1445 1.363 . S
C1440 C1441 1.363 . S
C1440 C1445 1.379 . S
C1440 N1447 1.356 . S
C1441 C1440 1.363 . S
C1441 C1444 1.363 . S
N1442 C1444 1.356 . S
N1442 H1454 0.984 . S
N1442 H1455 0.985 . S
N1443 C1445 1.356 . S
N1443 H1448 0.984 . S
N1443 H1449 0.985 . S
C1444 C1438 1.379 . S
C1444 C1441 1.363 . S
C1444 N1442 1.356 . S
C1445 C1439 1.363 . S
C1445 C1440 1.379 . S
C1445 N1443 1.356 . S
N1446 C1438 1.356 . S
N1446 H1452 0.984 . S
N1446 H1453 0.984 . S
N1447 C1440 1.356 . S
N1447 H1450 0.984 . S
N1447 H1451 0.985 . S
H1448 N1443 0.984 . S
H1449 N1443 0.985 . S
H1450 N1447 0.984 . S
H1451 N1447 0.985 . S
H1452 N1446 0.984 . S
H1453 N1446 0.984 . S
H1454 N1442 0.984 . S
H1455 N1442 0.985 . S
C1456 C1457 1.363 . S
C1456 C1462 1.379 . S
C1456 N1464 1.356 . S
C1457 C1456 1.363 . S
C1457 C1463 1.363 . S
C1458 C1459 1.363 . S
C1458 C1463 1.379 . S
C1458 N1465 1.356 . S
C1459 C1458 1.363 . S
C1459 C1462 1.363 . S
N1460 C1462 1.356 . S
N1460 H1472 0.984 . S
N1460 H1473 0.985 . S
N1461 C1463 1.356 . S
N1461 H1466 0.984 . S
N1461 H1467 0.985 . S
C1462 C1456 1.379 . S
C1462 C1459 1.363 . S
C1462 N1460 1.356 . S
C1463 C1457 1.363 . S
C1463 C1458 1.379 . S
C1463 N1461 1.356 . S
N1464 C1456 1.356 . S
N1464 H1470 0.984 . S
N1464 H1471 0.984 . S
N1465 C1458 1.356 . S
N1465 H1468 0.984 . S
N1465 H1469 0.985 . S
H1466 N1461 0.984 . S
H1467 N1461 0.985 . S
H1468 N1465 0.984 . S
H1469 N1465 0.985 . S
H1470 N1464 0.984 . S
H1471 N1464 0.984 . S
H1472 N1460 0.984 . S
H1473 N1460 0.985 . S
C1474 C1475 1.363 . S
C1474 C1480 1.379 . S
C1474 N1482 1.356 . S
C1475 C1474 1.363 . S
C1475 C1481 1.363 . S
C1476 C1477 1.363 . S
C1476 C1481 1.379 . S
C1476 N1483 1.356 . S
C1477 C1476 1.363 . S
C1477 C1480 1.363 . S
N1478 C1480 1.356 . S
N1478 H1490 0.984 . S
N1478 H1491 0.985 . S
N1479 C1481 1.356 . S
N1479 H1484 0.984 . S
N1479 H1485 0.985 . S
C1480 C1474 1.379 . S
C1480 C1477 1.363 . S
C1480 N1478 1.356 . S
C1481 C1475 1.363 . S
C1481 C1476 1.379 . S
C1481 N1479 1.356 . S
N1482 C1474 1.356 . S
N1482 H1488 0.984 . S
N1482 H1489 0.984 . S
N1483 C1476 1.356 . S
N1483 H1486 0.984 . S
N1483 H1487 0.985 . S
H1484 N1479 0.984 . S
H1485 N1479 0.985 . S
H1486 N1483 0.984 . S
H1487 N1483 0.985 . S
H1488 N1482 0.984 . S
H1489 N1482 0.984 . S
H1490 N1478 0.984 . S
H1491 N1478 0.985 . S
C1492 C1493 1.363 . S
C1492 C1498 1.379 . S
C1492 N1500 1.356 . S
C1493 C1492 1.363 . S
C1493 C1499 1.363 . S
C1494 C1495 1.363 . S
C1494 C1499 1.379 . S
C1494 N1501 1.356 . S
C1495 C1494 1.363 . S
C1495 C1498 1.363 . S
N1496 C1498 1.356 . S
N1496 H1508 0.984 . S
N1496 H1509 0.985 . S
N1497 C1499 1.356 . S
N1497 H1502 0.984 . S
N1497 H1503 0.985 . S
C1498 C1492 1.379 . S
C1498 C1495 1.363 . S
C1498 N1496 1.356 . S
C1499 C1493 1.363 . S
C1499 C1494 1.379 . S
C1499 N1497 1.356 . S
N1500 C1492 1.356 . S
N1500 H1506 0.984 . S
N1500 H1507 0.984 . S
N1501 C1494 1.356 . S
N1501 H1504 0.984 . S
N1501 H1505 0.985 . S
H1502 N1497 0.984 . S
H1503 N1497 0.985 . S
H1504 N1501 0.984 . S
H1505 N1501 0.985 . S
H1506 N1500 0.984 . S
H1507 N1500 0.984 . S
H1508 N1496 0.984 . S
H1509 N1496 0.985 . S
C1510 C1511 1.363 . S
C1510 C1516 1.379 . S
C1510 N1518 1.356 . S
C1511 C1510 1.363 . S
C1511 C1517 1.363 . S
C1512 C1513 1.363 . S
C1512 C1517 1.379 . S
C1512 N1519 1.356 . S
C1513 C1512 1.363 . S
C1513 C1516 1.363 . S
N1514 C1516 1.356 . S
N1514 H1526 0.984 . S
N1514 H1527 0.985 . S
N1515 C1517 1.356 . S
N1515 H1520 0.984 . S
N1515 H1521 0.985 . S
C1516 C1510 1.379 . S
C1516 C1513 1.363 . S
C1516 N1514 1.356 . S
C1517 C1511 1.363 . S
C1517 C1512 1.379 . S
C1517 N1515 1.356 . S
N1518 C1510 1.356 . S
N1518 H1524 0.984 . S
N1518 H1525 0.984 . S
N1519 C1512 1.356 . S
N1519 H1522 0.984 . S
N1519 H1523 0.985 . S
H1520 N1515 0.984 . S
H1521 N1515 0.985 . S
H1522 N1519 0.984 . S
H1523 N1519 0.985 . S
H1524 N1518 0.984 . S
H1525 N1518 0.984 . S
H1526 N1514 0.984 . S
H1527 N1514 0.985 . S
C1528 C1529 1.363 . S
C1528 C1534 1.379 . S
C1528 N1536 1.356 . S
C1529 C1528 1.363 . S
C1529 C1535 1.363 . S
C1530 C1531 1.363 . S
C1530 C1535 1.379 . S
C1530 N1537 1.356 . S
C1531 C1530 1.363 . S
C1531 C1534 1.363 . S
N1532 C1534 1.356 . S
N1532 H1544 0.984 . S
N1532 H1545 0.985 . S
N1533 C1535 1.356 . S
N1533 H1538 0.984 . S
N1533 H1539 0.985 . S
C1534 C1528 1.379 . S
C1534 C1531 1.363 . S
C1534 N1532 1.356 . S
C1535 C1529 1.363 . S
C1535 C1530 1.379 . S
C1535 N1533 1.356 . S
N1536 C1528 1.356 . S
N1536 H1542 0.984 . S
N1536 H1543 0.984 . S
N1537 C1530 1.356 . S
N1537 H1540 0.984 . S
N1537 H1541 0.985 . S
H1538 N1533 0.984 . S
H1539 N1533 0.985 . S
H1540 N1537 0.984 . S
H1541 N1537 0.985 . S
H1542 N1536 0.984 . S
H1543 N1536 0.984 . S
H1544 N1532 0.984 . S
H1545 N1532 0.985 . S
C1546 C1547 1.363 . S
C1546 C1552 1.379 . S
C1546 N1554 1.356 . S
C1547 C1546 1.363 . S
C1547 C1553 1.363 . S
C1548 C1549 1.363 . S
C1548 C1553 1.379 . S
C1548 N1555 1.356 . S
C1549 C1548 1.363 . S
C1549 C1552 1.363 . S
N1550 C1552 1.356 . S
N1550 H1562 0.984 . S
N1550 H1563 0.985 . S
N1551 C1553 1.356 . S
N1551 H1556 0.984 . S
N1551 H1557 0.985 . S
C1552 C1546 1.379 . S
C1552 C1549 1.363 . S
C1552 N1550 1.356 . S
C1553 C1547 1.363 . S
C1553 C1548 1.379 . S
C1553 N1551 1.356 . S
N1554 C1546 1.356 . S
N1554 H1560 0.984 . S
N1554 H1561 0.984 . S
N1555 C1548 1.356 . S
N1555 H1558 0.984 . S
N1555 H1559 0.985 . S
H1556 N1551 0.984 . S
H1557 N1551 0.985 . S
H1558 N1555 0.984 . S
H1559 N1555 0.985 . S
H1560 N1554 0.984 . S
H1561 N1554 0.984 . S
H1562 N1550 0.984 . S
H1563 N1550 0.985 . S
C1564 C1565 1.363 . S
C1564 C1570 1.379 . S
C1564 N1572 1.356 . S
C1565 C1564 1.363 . S
C1565 C1571 1.363 . S
C1566 C1567 1.363 . S
C1566 C1571 1.379 . S
C1566 N1573 1.356 . S
C1567 C1566 1.363 . S
C1567 C1570 1.363 . S
N1568 C1570 1.356 . S
N1568 H1580 0.984 . S
N1568 H1581 0.985 . S
N1569 C1571 1.356 . S
N1569 H1574 0.984 . S
N1569 H1575 0.985 . S
C1570 C1564 1.379 . S
C1570 C1567 1.363 . S
C1570 N1568 1.356 . S
C1571 C1565 1.363 . S
C1571 C1566 1.379 . S
C1571 N1569 1.356 . S
N1572 C1564 1.356 . S
N1572 H1578 0.984 . S
N1572 H1579 0.984 . S
N1573 C1566 1.356 . S
N1573 H1576 0.984 . S
N1573 H1577 0.985 . S
H1574 N1569 0.984 . S
H1575 N1569 0.985 . S
H1576 N1573 0.984 . S
H1577 N1573 0.985 . S
H1578 N1572 0.984 . S
H1579 N1572 0.984 . S
H1580 N1568 0.984 . S
H1581 N1568 0.985 . S
C1582 C1583 1.363 . S
C1582 C1588 1.379 . S
C1582 N1590 1.356 . S
C1583 C1582 1.363 . S
C1583 C1589 1.363 . S
C1584 C1585 1.363 . S
C1584 C1589 1.379 . S
C1584 N1591 1.356 . S
C1585 C1584 1.363 . S
C1585 C1588 1.363 . S
N1586 C1588 1.356 . S
N1586 H1598 0.984 . S
N1586 H1599 0.985 . S
N1587 C1589 1.356 . S
N1587 H1592 0.984 . S
N1587 H1593 0.985 . S
C1588 C1582 1.379 . S
C1588 C1585 1.363 . S
C1588 N1586 1.356 . S
C1589 C1583 1.363 . S
C1589 C1584 1.379 . S
C1589 N1587 1.356 . S
N1590 C1582 1.356 . S
N1590 H1596 0.984 . S
N1590 H1597 0.984 . S
N1591 C1584 1.356 . S
N1591 H1594 0.984 . S
N1591 H1595 0.985 . S
H1592 N1587 0.984 . S
H1593 N1587 0.985 . S
H1594 N1591 0.984 . S
H1595 N1591 0.985 . S
H1596 N1590 0.984 . S
H1597 N1590 0.984 . S
H1598 N1586 0.984 . S
H1599 N1586 0.985 . S
C449 C119 1.515 . S
C451 C7 1.515 . S
C467 C357 1.515 . S
C469 C21 1.515 . S
C485 C147 1.515 . S
C487 C35 1.515 . S
C503 C385 1.515 . S
C505 C49 1.515 . S
C521 C175 1.515 . S
C523 C63 1.515 . S
C539 C77 1.515 . S
C541 C413 1.515 . S
C557 C91 1.515 . S
C559 C203 1.515 . S
C575 C105 1.515 . S
C577 C441 1.515 . S
C593 C245 1.515 . S
C595 C133 1.515 . S
C611 C273 1.515 . S
C613 C161 1.515 . S
C629 C189 1.515 . S
C631 C301 1.515 . S
C647 C217 1.515 . S
C649 C329 1.515 . S
C665 C231 1.515 . S
C667 C343 1.515 . S
C683 C371 1.515 . S
C685 C259 1.515 . S
C701 C287 1.515 . S
C703 C399 1.515 . S
C719 C427 1.515 . S
C721 C315 1.515 . S
C737 C261 1.589 . S
C739 C9 1.589 . S
C755 C275 1.589 . S
C757 C23 1.589 . S
C773 C37 1.589 . S
C775 C233 1.589 . S
C791 C51 1.589 . S
C793 C247 1.589 . S
C809 C317 1.589 . S
C811 C65 1.589 . S
C827 C79 1.589 . S
C829 C331 1.589 . S
C845 C289 1.589 . S
C847 C93 1.589 . S
C863 C303 1.589 . S
C865 C107 1.589 . S
C881 C121 1.589 . S
C883 C373 1.589 . S
C899 C387 1.589 . S
C901 C135 1.589 . S
C917 C149 1.589 . S
C919 C345 1.589 . S
C935 C163 1.589 . S
C937 C359 1.589 . S
C953 C177 1.589 . S
C955 C429 1.589 . S
C971 C191 1.589 . S
C973 C443 1.589 . S
C989 C401 1.589 . S
C991 C205 1.589 . S
C1007 C415 1.589 . S
C1009 C219 1.589 . S
C1025 C92 1.524 . S
C1027 C8 1.524 . S
C1043 C106 1.524 . S
C1045 C22 1.524 . S
C1061 C64 1.524 . S
C1063 C36 1.524 . S
C1079 C50 1.524 . S
C1081 C78 1.524 . S
C1097 C204 1.524 . S
C1099 C120 1.524 . S
C1115 C218 1.524 . S
C1117 C134 1.524 . S
C1133 C176 1.524 . S
C1135 C148 1.524 . S
C1151 C190 1.524 . S
C1153 C162 1.524 . S
C1169 C316 1.524 . S
C1171 C232 1.524 . S
C1187 C330 1.524 . S
C1189 C246 1.524 . S
C1205 C260 1.524 . S
C1207 C288 1.524 . S
C1223 C274 1.524 . S
C1225 C302 1.524 . S
C1241 C428 1.524 . S
C1243 C344 1.524 . S
C1259 C442 1.524 . S
C1261 C358 1.524 . S
C1277 C372 1.524 . S
C1279 C400 1.524 . S
C1295 C386 1.524 . S
C1297 C414 1.524 . S
C1313 C3 1.431 . S
C1315 C297 1.431 . S
C1331 C311 1.431 . S
C1333 C17 1.431 . S
C1349 C325 1.431 . S
C1351 C31 1.431 . S
C1367 C45 1.431 . S
C1369 C283 1.431 . S
C1385 C269 1.431 . S
C1387 C59 1.431 . S
C1403 C73 1.431 . S
C1405 C227 1.431 . S
C1421 C241 1.431 . S
C1423 C87 1.431 . S
C1439 C101 1.431 . S
C1441 C255 1.431 . S
C1457 C409 1.431 . S
C1459 C115 1.431 . S
C1475 C423 1.431 . S
C1477 C129 1.431 . S
C1493 C143 1.431 . S
C1495 C437 1.431 . S
C1511 C395 1.431 . S
C1513 C157 1.431 . S
C1529 C381 1.431 . S
C1531 C171 1.431 . S
C1547 C185 1.431 . S
C1549 C339 1.431 . S
C1565 C353 1.431 . S
C1567 C199 1.431 . S
C1583 C213 1.431 . S
C1585 C367 1.431 . S
