# Generated by pormake.
# Topology mon, (4)-cn, num edge types: 1
# Building blocks:
#     Node 0, Type 0, BuildingBlock: NAHDIM_clean_sbu_0, # of connection points: 4
#     Node 1, Type 0, BuildingBlock: NAHDIM_clean_sbu_0, # of connection points: 4
#     Node 2, Type 0, BuildingBlock: NAHDIM_clean_sbu_0, # of connection points: 4
#     Node 3, Type 0, BuildingBlock: NAHDIM_clean_sbu_0, # of connection points: 4
#     Node 4, Type 0, BuildingBlock: NAHDIM_clean_sbu_0, # of connection points: 4
#     Node 5, Type 0, BuildingBlock: NAHDIM_clean_sbu_0, # of connection points: 4
#     Node 6, Type 0, BuildingBlock: NAHDIM_clean_sbu_0, # of connection points: 4
#     Node 7, Type 0, BuildingBlock: NAHDIM_clean_sbu_0, # of connection points: 4
#     Node 8, Type 0, BuildingBlock: NAHDIM_clean_sbu_0, # of connection points: 4
#     Node 9, Type 0, BuildingBlock: NAHDIM_clean_sbu_0, # of connection points: 4
#     Node 10, Type 0, BuildingBlock: NAHDIM_clean_sbu_0, # of connection points: 4
#     Node 11, Type 0, BuildingBlock: NAHDIM_clean_sbu_0, # of connection points: 4
#     Node 12, Type 0, BuildingBlock: NAHDIM_clean_sbu_0, # of connection points: 4
#     Node 13, Type 0, BuildingBlock: NAHDIM_clean_sbu_0, # of connection points: 4
#     Node 14, Type 0, BuildingBlock: NAHDIM_clean_sbu_0, # of connection points: 4
#     Node 15, Type 0, BuildingBlock: NAHDIM_clean_sbu_0, # of connection points: 4
#     Edge 16, Type (0, 0), BuildingBlock: UVAHIK_clean_linker_0, # of connection points: 2
#     Edge 17, Type (0, 0), BuildingBlock: UVAHIK_clean_linker_0, # of connection points: 2
#     Edge 18, Type (0, 0), BuildingBlock: UVAHIK_clean_linker_0, # of connection points: 2
#     Edge 19, Type (0, 0), BuildingBlock: UVAHIK_clean_linker_0, # of connection points: 2
#     Edge 20, Type (0, 0), BuildingBlock: UVAHIK_clean_linker_0, # of connection points: 2
#     Edge 21, Type (0, 0), BuildingBlock: UVAHIK_clean_linker_0, # of connection points: 2
#     Edge 22, Type (0, 0), BuildingBlock: UVAHIK_clean_linker_0, # of connection points: 2
#     Edge 23, Type (0, 0), BuildingBlock: UVAHIK_clean_linker_0, # of connection points: 2
#     Edge 24, Type (0, 0), BuildingBlock: UVAHIK_clean_linker_0, # of connection points: 2
#     Edge 25, Type (0, 0), BuildingBlock: UVAHIK_clean_linker_0, # of connection points: 2
#     Edge 26, Type (0, 0), BuildingBlock: UVAHIK_clean_linker_0, # of connection points: 2
#     Edge 27, Type (0, 0), BuildingBlock: UVAHIK_clean_linker_0, # of connection points: 2
#     Edge 28, Type (0, 0), BuildingBlock: UVAHIK_clean_linker_0, # of connection points: 2
#     Edge 29, Type (0, 0), BuildingBlock: UVAHIK_clean_linker_0, # of connection points: 2
#     Edge 30, Type (0, 0), BuildingBlock: UVAHIK_clean_linker_0, # of connection points: 2
#     Edge 31, Type (0, 0), BuildingBlock: UVAHIK_clean_linker_0, # of connection points: 2
#     Edge 32, Type (0, 0), BuildingBlock: UVAHIK_clean_linker_0, # of connection points: 2
#     Edge 33, Type (0, 0), BuildingBlock: UVAHIK_clean_linker_0, # of connection points: 2
#     Edge 34, Type (0, 0), BuildingBlock: UVAHIK_clean_linker_0, # of connection points: 2
#     Edge 35, Type (0, 0), BuildingBlock: UVAHIK_clean_linker_0, # of connection points: 2
#     Edge 36, Type (0, 0), BuildingBlock: UVAHIK_clean_linker_0, # of connection points: 2
#     Edge 37, Type (0, 0), BuildingBlock: UVAHIK_clean_linker_0, # of connection points: 2
#     Edge 38, Type (0, 0), BuildingBlock: UVAHIK_clean_linker_0, # of connection points: 2
#     Edge 39, Type (0, 0), BuildingBlock: UVAHIK_clean_linker_0, # of connection points: 2
#     Edge 40, Type (0, 0), BuildingBlock: UVAHIK_clean_linker_0, # of connection points: 2
#     Edge 41, Type (0, 0), BuildingBlock: UVAHIK_clean_linker_0, # of connection points: 2
#     Edge 42, Type (0, 0), BuildingBlock: UVAHIK_clean_linker_0, # of connection points: 2
#     Edge 43, Type (0, 0), BuildingBlock: UVAHIK_clean_linker_0, # of connection points: 2
#     Edge 44, Type (0, 0), BuildingBlock: UVAHIK_clean_linker_0, # of connection points: 2
#     Edge 45, Type (0, 0), BuildingBlock: UVAHIK_clean_linker_0, # of connection points: 2
#     Edge 46, Type (0, 0), BuildingBlock: UVAHIK_clean_linker_0, # of connection points: 2
#     Edge 47, Type (0, 0), BuildingBlock: UVAHIK_clean_linker_0, # of connection points: 2
# Relax obj value: 0.123
# Max RMSD: 0.119
# Mean RMSD: 0.119
data_MOF--net-mon--node1-NAHDIM_clean_sbu_0--edge1-UVAHIK_clean_linker_0
_symmetry_space_group_name_H-M    P1
_symmetry_Int_Tables_number       1
_symmetry_cell_setting            triclinic
loop_
_symmetry_equiv_pos_as_xyz
'x, y, z'
_cell_length_a     44.447614
_cell_length_b     44.434791
_cell_length_c     105.03015
_cell_angle_alpha  90.07367
_cell_angle_beta   89.967371
_cell_angle_gamma 89.966984
loop_
_atom_site_label
_atom_site_type_symbol
_atom_site_fract_x
_atom_site_fract_y
_atom_site_fract_z
_atom_type_partial_charge
C0 C 0.97023 0.08649 0.59336 0.0
O1 O 0.94747 0.07585 0.58677 0.0
O2 O 0.94794 0.01017 0.60297 0.0
Zn3 Zn 0.98458 0.02482 0.59372 0.0
O4 O 0.98029 0.02014 0.57482 0.0
C5 C 0.02107 0.98327 0.60832 0.0
O6 O -0.00398 0.97881 0.61468 0.0
O7 O 0.98988 0.06836 0.5976 0.0
C8 C 0.98284 -0.0054 0.56949 0.0
O9 O 0.98737 0.97065 0.57656 0.0
C10 C 0.92303 0.00426 0.59761 0.0
O11 O 0.92045 0.00733 0.58523 0.0
O12 O 0.02134 0.00205 0.59922 0.0
C13 C 0.16527 0.73865 0.83757 0.0
O14 O 0.17606 0.71484 0.8317 0.0
O15 O 0.2411 0.71925 0.8432 0.0
Zn16 Zn 0.22549 0.75629 0.8345 0.0
O17 O 0.22884 0.75273 0.81551 0.0
C18 C 0.25072 0.79823 0.85214 0.0
O19 O 0.23598 0.78149 0.86034 0.0
O20 O 0.18252 0.76087 0.83964 0.0
C21 C 0.25463 0.75374 0.81031 0.0
O22 O 0.27857 0.75685 0.81753 0.0
C23 C 0.24709 0.69467 0.83755 0.0
O24 O 0.24404 0.6928 0.82514 0.0
O25 O 0.24924 0.79189 0.84036 0.0
C26 C 0.51837 0.90738 0.10734 0.0
O27 O 0.53692 0.92332 0.11436 0.0
O28 O 0.55475 0.97411 0.10025 0.0
Zn29 Zn 0.51562 0.9615 0.09232 0.0
O30 O 0.51812 0.96342 0.07327 0.0
C31 C 0.48251 -0.00302 0.11011 0.0
O32 O 0.50401 0.98768 0.11774 0.0
O33 O 0.50647 0.9192 0.09755 0.0
C34 C 0.51946 0.98851 0.06751 0.0
O35 O 0.51911 0.01353 0.0742 0.0
C36 C 0.57932 0.97799 0.0943 0.0
O37 O 0.58022 0.97426 0.0819 0.0
O38 O 0.48266 0.98858 0.09855 0.0
C39 C 0.33696 0.26389 0.34924 0.0
O40 O 0.32273 0.28093 0.35751 0.0
O41 O 0.26695 0.29854 0.34609 0.0
Zn42 Zn 0.27837 0.25941 0.33786 0.0
O43 O 0.26818 0.25867 0.31924 0.0
C44 C 0.2567 0.19993 0.34101 0.0
O45 O 0.27189 0.19635 0.33038 0.0
O46 O 0.32249 0.2524 0.34001 0.0
C47 C 0.24426 0.26999 0.31467 0.0
O48 O 0.22534 0.28401 0.32224 0.0
C49 C 0.26874 0.32396 0.34063 0.0
O50 O 0.27787 0.32553 0.32875 0.0
O51 O 0.2562 0.22569 0.34627 0.0
C52 C 0.98884 0.89972 0.40335 0.0
O53 O 0.96601 0.90898 0.41027 0.0
O54 O 0.96944 0.97771 0.40096 0.0
Zn55 Zn 0.00747 0.95967 0.40788 0.0
O56 O 0.00657 0.95931 0.42696 0.0
C57 C 0.05501 0.97864 0.39119 0.0
O58 O 0.04514 0.95616 0.38422 0.0
O59 O 0.01048 0.91764 0.40121 0.0
C60 C 0.00557 0.98411 0.43297 0.0
O61 O 0.00559 0.00942 0.42651 0.0
C62 C 0.94512 0.97966 0.40728 0.0
O63 O 0.94435 0.97008 0.4191 0.0
O64 O 0.04247 0.98419 0.40181 0.0
C65 C 0.36005 0.72298 0.64435 0.0
O66 O 0.34959 0.7006 0.65121 0.0
O67 O 0.28235 0.7053 0.6423 0.0
Zn68 Zn 0.3012 0.74328 0.64891 0.0
O69 O 0.30148 0.74318 0.668 0.0
C70 C 0.26301 0.7782 0.63254 0.0
O71 O 0.26529 0.75439 0.62517 0.0
O72 O 0.34312 0.74537 0.64212 0.0
C73 C 0.27629 0.74401 0.67371 0.0
O74 O 0.25147 0.74477 0.66692 0.0
C75 C 0.27945 0.68135 0.64878 0.0
O76 O 0.28857 0.6808 0.66067 0.0
O77 O 0.27711 0.77875 0.64304 0.0
C78 C 0.54004 0.09103 0.90549 0.0
O79 O 0.56347 0.08202 0.91208 0.0
O80 O 0.56241 0.01284 0.89675 0.0
Zn81 Zn 0.52688 0.02871 0.90642 0.0
O82 O 0.53279 0.02551 0.92529 0.0
C83 C 0.48147 0.00414 0.89013 0.0
O84 O 0.49697 0.0184 0.88136 0.0
O85 O 0.52079 0.07178 0.90185 0.0
C86 C 0.53216 5e-05 0.93077 0.0
O87 O 0.5285 0.97566 0.92385 0.0
C88 C 0.58815 0.00889 0.90171 0.0
O89 O 0.59219 0.01506 0.91383 0.0
O90 O 0.49014 0.00538 0.90164 0.0
C91 C 0.15732 0.27118 0.14746 0.0
O92 O 0.16622 0.29482 0.15398 0.0
O93 O 0.23387 0.29209 0.1475 0.0
Zn94 Zn 0.21587 0.25372 0.15392 0.0
O95 O 0.21125 0.25621 0.17293 0.0
C96 C 0.26618 0.21281 0.15507 0.0
O97 O 0.27284 0.22865 0.16525 0.0
O98 O 0.17532 0.24925 0.14603 0.0
C99 C 0.2097 0.23295 0.17991 0.0
O100 O 0.21092 0.20615 0.17464 0.0
C101 C 0.25499 0.30509 0.15349 0.0
O102 O 0.26505 0.29326 0.16412 0.0
O103 O 0.24259 0.21921 0.14879 0.0
C104 C 0.84636 0.22923 0.14169 0.0
O105 O 0.82978 0.211 0.13479 0.0
O106 O 0.78335 0.18835 0.15127 0.0
Zn107 Zn 0.79446 0.22926 0.1579 0.0
O108 O 0.79257 0.23006 0.17699 0.0
C109 C 0.74046 0.25279 0.14635 0.0
O110 O 0.73271 0.22428 0.14602 0.0
O111 O 0.8359 0.23972 0.15205 0.0
C112 C 0.76727 0.22738 0.1825 0.0
O113 O 0.74294 0.2239 0.17555 0.0
C114 C 0.7826 0.16448 0.15791 0.0
O115 O 0.78986 0.16559 0.17002 0.0
O116 O 0.7658 0.26012 0.151 0.0
C117 C 0.67143 0.74039 0.64079 0.0
O118 O 0.68997 0.75758 0.63431 0.0
O119 O 0.72869 0.78425 0.65386 0.0
Zn120 Zn 0.71955 0.7415 0.65866 0.0
O121 O 0.71976 0.73629 0.67767 0.0
C122 C 0.77618 0.72395 0.64754 0.0
O123 O 0.78269 0.75251 0.64925 0.0
O124 O 0.67933 0.73058 0.65164 0.0
C125 C 0.74471 0.73478 0.68354 0.0
O126 O 0.76986 0.73684 0.67703 0.0
C127 C 0.73268 0.80589 0.66159 0.0
O128 O 0.73031 0.80115 0.67389 0.0
O129 O 0.75047 0.71422 0.65085 0.0
C130 C 0.65497 0.21853 0.34345 0.0
O131 O 0.66472 0.19635 0.33625 0.0
O132 O 0.72834 0.18904 0.35104 0.0
Zn133 Zn 0.71687 0.22922 0.34373 0.0
O134 O 0.72117 0.22937 0.32465 0.0
C135 C 0.76956 0.25432 0.35517 0.0
O136 O 0.77844 0.22617 0.35442 0.0
O137 O 0.67387 0.23693 0.34808 0.0
C138 C 0.74647 0.23312 0.31924 0.0
O139 O 0.77063 0.23684 0.32625 0.0
C140 C 0.73778 0.16699 0.34445 0.0
O141 O 0.73958 0.16959 0.33202 0.0
O142 O 0.7434 0.2613 0.35127 0.0
C143 C 0.85091 0.74743 0.85762 0.0
O144 O 0.83561 0.76756 0.86412 0.0
O145 O 0.78596 0.78524 0.84808 0.0
Zn146 Zn 0.79566 0.74227 0.84364 0.0
O147 O 0.79103 0.73568 0.82482 0.0
C148 C 0.74267 0.72457 0.85731 0.0
O149 O 0.73643 0.75334 0.85619 0.0
O150 O 0.83813 0.73337 0.84858 0.0
C151 C 0.76507 0.73304 0.81987 0.0
O152 O 0.7412 0.7346 0.82722 0.0
C153 C 0.7806 0.80585 0.84002 0.0
O154 O 0.78223 0.79979 0.8278 0.0
O155 O 0.76732 0.71457 0.85285 0.0
C156 C 0.49535 0.59246 0.09556 0.0
O157 O 0.47279 0.58309 0.08851 0.0
O158 O 0.46949 0.51875 0.0975 0.0
Zn159 Zn 0.51025 0.53245 0.09164 0.0
O160 O 0.51108 0.53352 0.07248 0.0
C161 C 0.53569 0.47598 0.09827 0.0
O162 O 0.51034 0.46687 0.09314 0.0
O163 O 0.51619 0.57406 0.09835 0.0
C164 C 0.5283 0.51733 0.06566 0.0
O165 O 0.5477 0.49927 0.07117 0.0
C166 C 0.45178 0.50378 0.09042 0.0
O167 O 0.46 0.49701 0.07875 0.0
O168 O 0.54136 0.504 0.09866 0.0
C169 C 0.02723 0.40205 0.58627 0.0
O170 O 0.04945 0.41015 0.57876 0.0
O171 O 0.06099 0.47412 0.59342 0.0
Zn172 Zn 0.01996 0.46465 0.58655 0.0
O173 O 0.01872 0.4688 0.56748 0.0
C174 C -0.00254 0.51835 0.59833 0.0
O175 O 0.02557 0.52687 0.59695 0.0
O176 O 0.0104 0.42221 0.59103 0.0
C177 C 0.01364 0.49378 0.56202 0.0
O178 O 0.00922 0.51797 0.56897 0.0
C179 C 0.08263 0.48376 0.58666 0.0
O180 O 0.07881 0.48735 0.57436 0.0
O181 O 0.98965 0.4923 0.59457 0.0
C182 C 0.47382 0.40503 0.90686 0.0
O183 O 0.45294 0.41344 0.91498 0.0
O184 O 0.44237 0.48047 0.89889 0.0
Zn185 Zn 0.48218 0.46783 0.90611 0.0
O186 O 0.48373 0.47203 0.92514 0.0
C187 C 0.50905 0.52138 0.89638 0.0
O188 O 0.48172 0.53176 0.89824 0.0
O189 O 0.48988 0.42496 0.90152 0.0
C190 C 0.47619 0.49601 0.93092 0.0
O191 O 0.46563 0.51883 0.92435 0.0
C192 C 0.41767 0.48178 0.90495 0.0
O193 O 0.41676 0.47389 0.91699 0.0
O194 O 0.51466 0.49395 0.89881 0.0
C195 C 0.00984 0.58806 0.38482 0.0
O196 O 0.0291 0.57264 0.37791 0.0
O197 O 0.05057 0.52417 0.39375 0.0
Zn198 Zn 0.00939 0.53463 0.40029 0.0
O199 O 0.00871 0.53306 0.41941 0.0
C200 C 0.98692 0.47881 0.39024 0.0
O201 O 0.01542 0.47113 0.39089 0.0
O202 O -0.00159 0.57612 0.39468 0.0
C203 C 0.0131 0.50832 0.42517 0.0
O204 O 0.01831 0.48388 0.41847 0.0
C205 C 0.07432 0.52554 0.40044 0.0
O206 O 0.07265 0.5346 0.41233 0.0
O207 O 0.97907 0.50517 0.39357 0.0
C208 C 0.95529 0.13951 0.58866 0.0
C209 C 0.97389 0.11919 0.59519 0.0
C210 C 0.96013 0.17044 0.58967 0.0
C211 C 0.02025 0.2244 0.59702 0.0
H212 H 0.95485 0.28212 0.59601 0.0
C213 C -0.00069 0.36136 0.59771 0.0
C214 C 0.02163 0.36997 0.58896 0.0
C215 C 0.99364 0.33097 0.60003 0.0
C216 C 0.97338 0.26633 0.59647 0.0
H217 H 0.01128 0.1153 0.60837 0.0
H218 H 0.01937 0.16933 0.61032 0.0
H219 H 0.94364 0.22866 0.59792 0.0
H220 H 0.05565 0.35353 0.57586 0.0
H221 H 0.04536 0.30057 0.57972 0.0
H222 H 0.05 0.26204 0.5957 0.0
C223 C 0.00148 0.16135 0.60419 0.0
C224 C 0.96694 0.23567 0.59741 0.0
C225 C -0.00324 0.13041 0.60311 0.0
C226 C 0.03836 0.34762 0.58268 0.0
C227 C 0.03261 0.31726 0.58497 0.0
C228 C 0.02669 0.25503 0.59614 0.0
C229 C 0.98355 0.18168 0.59731 0.0
C230 C 0.9903 0.21435 0.59748 0.0
C231 C 0.01011 0.30859 0.59363 0.0
C232 C 0.00332 0.27629 0.59563 0.0
H233 H 0.9375 0.13155 0.58247 0.0
H234 H 0.94617 0.18547 0.58411 0.0
H235 H 0.03878 0.20856 0.59692 0.0
H236 H 0.98615 0.37809 0.60275 0.0
H237 H 0.97641 0.325 0.60688 0.0
C238 C 0.89897 0.71987 0.85374 0.0
C239 C 0.88346 0.74347 0.85977 0.0
C240 C 0.93024 0.71807 0.85448 0.0
C241 C -0.00516 0.76722 0.85727 0.0
H242 H 0.03943 0.69237 0.85946 0.0
C243 C 0.12329 0.76278 0.84976 0.0
C244 C 0.13386 0.73904 0.84212 0.0
C245 C 0.09365 0.76288 0.85418 0.0
C246 C 0.02727 0.71343 0.85877 0.0
H247 H 0.88835 0.78281 0.87185 0.0
H248 H 0.94318 0.77976 0.87304 0.0
H249 H 0.98546 0.69264 0.8638 0.0
H250 H 0.12172 0.69676 0.83314 0.0
H251 H 0.06989 0.6973 0.84057 0.0
H252 H 0.03621 0.78785 0.85172 0.0
C253 C 0.93105 0.76277 0.86771 0.0
C254 C -0.00355 0.71359 0.86131 0.0
C255 C 0.8997 0.76442 0.86707 0.0
C256 C 0.11427 0.71536 0.83903 0.0
C257 C 0.08462 0.71553 0.84339 0.0
C258 C 0.02561 0.76704 0.85466 0.0
C259 C 0.94663 0.73994 0.86119 0.0
C260 C 0.97984 0.74037 0.86032 0.0
C261 C 0.07396 0.73931 0.851 0.0
C262 C 0.04204 0.74002 0.8551 0.0
H263 H 0.88706 0.70327 0.84811 0.0
H264 H 0.94166 0.70039 0.84926 0.0
H265 H 0.98252 0.78812 0.85626 0.0
H266 H 0.13793 0.78125 0.85239 0.0
H267 H 0.08621 0.78136 0.86013 0.0
C268 C 0.51931 0.6337 0.10829 0.0
C269 C 0.49638 0.6239 0.10007 0.0
C270 C 0.52046 0.6637 0.11227 0.0
C271 C 0.47501 0.73386 0.11384 0.0
H272 H 0.55264 0.77335 0.1118 0.0
C273 C 0.49005 0.85961 0.10388 0.0
C274 C 0.51304 0.87534 0.11019 0.0
C275 C 0.48656 0.82874 0.1057 0.0
C276 C 0.53089 0.76255 0.11267 0.0
H277 H 0.45646 0.6377 0.08972 0.0
H278 H 0.45887 0.68997 0.09639 0.0
H279 H 0.54957 0.71898 0.10921 0.0
H280 H 0.54968 0.87134 0.12373 0.0
H281 H 0.54376 0.81711 0.12676 0.0
H282 H 0.45626 0.77777 0.11667 0.0
C283 C 0.47562 0.67446 0.1 0.0
C284 C 0.52911 0.73139 0.1112 0.0
C285 C 0.4744 0.64452 0.09607 0.0
C286 C 0.5318 0.85979 0.11871 0.0
C287 C 0.5285 0.82879 0.12043 0.0
C288 C 0.47678 0.76504 0.11522 0.0
C289 C 0.49876 0.68446 0.10808 0.0
C290 C 0.50106 0.71681 0.11142 0.0
C291 C 0.50613 0.81294 0.11378 0.0
C292 C 0.50465 0.77973 0.11432 0.0
H293 H 0.53646 0.61827 0.11161 0.0
H294 H 0.5384 0.67064 0.1186 0.0
H295 H 0.45314 0.72319 0.11433 0.0
H296 H 0.47514 0.87101 0.09731 0.0
H297 H 0.46934 0.81702 0.10034 0.0
C298 C 0.60156 0.2035 0.33979 0.0
C299 C 0.62249 0.22219 0.34593 0.0
C300 C 0.57081 0.20731 0.34187 0.0
C301 C 0.51548 0.26376 0.35235 0.0
H302 H 0.46219 0.1947 0.35341 0.0
C303 C 0.38682 0.27454 0.35936 0.0
C304 C 0.36951 0.2582 0.35055 0.0
C305 C 0.41778 0.2696 0.36031 0.0
C306 C 0.47683 0.21417 0.35311 0.0
H307 H 0.62767 0.25919 0.35926 0.0
H308 H 0.57388 0.26556 0.36302 0.0
H309 H 0.51648 0.18696 0.35251 0.0
H310 H 0.37093 0.22352 0.33599 0.0
H311 H 0.42487 0.21489 0.33768 0.0
H312 H 0.47569 0.29092 0.35285 0.0
C313 C 0.58126 0.24827 0.35645 0.0
C314 C 0.50787 0.20977 0.35256 0.0
C315 C 0.61206 0.24453 0.35433 0.0
C316 C 0.38365 0.23652 0.34286 0.0
C317 C 0.4145 0.2314 0.34388 0.0
C318 C 0.48441 0.26815 0.35298 0.0
C319 C 0.56029 0.2298 0.35018 0.0
C320 C 0.52752 0.2345 0.35192 0.0
C321 C 0.43189 0.24801 0.35256 0.0
C322 C 0.4648 0.24339 0.35312 0.0
H323 H 0.60887 0.18614 0.33323 0.0
H324 H 0.55524 0.19304 0.33672 0.0
H325 H 0.52996 0.28329 0.35171 0.0
H326 H 0.37654 0.2914 0.36542 0.0
H327 H 0.43069 0.28258 0.36712 0.0
C328 C 0.96679 0.84824 0.40143 0.0
C329 C 0.98917 0.86899 0.39801 0.0
C330 C 0.9674 0.81899 0.39661 0.0
C331 C 0.02001 0.7632 0.38365 0.0
H332 H 0.9466 0.71864 0.3771 0.0
C333 C 0.02232 0.63615 0.37362 0.0
C334 C 0.00366 0.61996 0.38197 0.0
C335 C 0.01871 0.66722 0.37224 0.0
C336 C 0.96728 0.73088 0.37882 0.0
H337 H 0.02923 0.8757 0.38654 0.0
H338 H 0.03007 0.82466 0.378 0.0
H339 H 0.9441 0.77278 0.38099 0.0
H340 H 0.96538 0.62312 0.39472 0.0
H341 H 0.9591 0.67719 0.3923 0.0
H342 H 0.04308 0.72118 0.38183 0.0
C343 C 0.01234 0.83087 0.38457 0.0
C344 C 0.96586 0.7618 0.3811 0.0
C345 C 0.01182 0.86011 0.38945 0.0
C346 C 0.98025 0.63504 0.3883 0.0
C347 C 0.97648 0.66598 0.38683 0.0
C348 C 0.02144 0.73234 0.38129 0.0
C349 C 0.99029 0.80989 0.3882 0.0
C350 C 0.99212 0.77812 0.38394 0.0
C351 C -0.00383 0.68249 0.37906 0.0
C352 C -0.005 0.71574 0.37924 0.0
H353 H 0.94905 0.8544 0.40801 0.0
H354 H 0.95038 0.80325 0.39979 0.0
H355 H 0.04063 0.775 0.38593 0.0
H356 H 0.0405 0.6251 0.36858 0.0
H357 H 0.03405 0.67944 0.36612 0.0
C358 C 0.40167 0.7445 0.63112 0.0
C359 C 0.39119 0.72222 0.63951 0.0
C360 C 0.43156 0.74434 0.62701 0.0
C361 C 0.50099 0.69721 0.62629 0.0
H362 H 0.54151 0.77421 0.62895 0.0
C363 C 0.62328 0.71175 0.64165 0.0
C364 C 0.64084 0.73437 0.63602 0.0
C365 C 0.59331 0.70797 0.63811 0.0
C366 C 0.53047 0.75263 0.62787 0.0
H367 H 0.40351 0.68184 0.64986 0.0
H368 H 0.45568 0.68205 0.64303 0.0
H369 H 0.48693 0.7722 0.63014 0.0
H370 H 0.64132 0.76983 0.62184 0.0
H371 H 0.58851 0.76354 0.61583 0.0
H372 H 0.5449 0.67758 0.62485 0.0
C373 C 0.44078 0.69929 0.63937 0.0
C374 C 0.49915 0.75145 0.62854 0.0
C375 C 0.41091 0.69934 0.64341 0.0
C376 C 0.62826 0.75227 0.62637 0.0
C377 C 0.5981 0.74873 0.62294 0.0
C378 C 0.53234 0.69838 0.62574 0.0
C379 C 0.45158 0.72199 0.63125 0.0
C380 C 0.48413 0.72362 0.62821 0.0
C381 C 0.58023 0.72692 0.62897 0.0
C382 C 0.54736 0.72602 0.62694 0.0
H383 H 0.38689 0.76225 0.62784 0.0
H384 H 0.43908 0.76193 0.62063 0.0
H385 H 0.49003 0.67549 0.62571 0.0
H386 H 0.63244 0.69747 0.64905 0.0
H387 H 0.57995 0.69121 0.64302 0.0
C388 C 0.50102 0.3638 0.89539 0.0
C389 C 0.47944 0.37281 0.90441 0.0
C390 C 0.50725 0.33333 0.89349 0.0
C391 C 0.47729 0.25692 0.89952 0.0
H392 H 0.5611 0.23319 0.89721 0.0
C393 C 0.55339 0.14512 0.90876 0.0
C394 C 0.53513 0.12331 0.90295 0.0
C395 C 0.54734 0.17568 0.90709 0.0
C396 C 0.5376 0.23947 0.89787 0.0
H397 H 0.44711 0.35698 0.91835 0.0
H398 H 0.45835 0.30391 0.91522 0.0
H399 H 0.54805 0.28642 0.898 0.0
H400 H 0.49708 0.11635 0.89034 0.0
H401 H 0.48688 0.1697 0.88724 0.0
H402 H 0.46689 0.21002 0.90001 0.0
C403 C 0.47012 0.32032 0.90945 0.0
C404 C 0.53009 0.26996 0.89817 0.0
C405 C 0.46382 0.35076 0.91131 0.0
C406 C 0.51138 0.13264 0.89506 0.0
C407 C 0.50545 0.1632 0.89332 0.0
C408 C 0.4848 0.22645 0.89928 0.0
C409 C 0.49208 0.31127 0.9006 0.0
C410 C 0.49988 0.279 0.8992 0.0
C411 C 0.52304 0.18505 0.8995 0.0
C412 C 0.51506 0.21738 0.89864 0.0
H413 H 0.5133 0.38028 0.88985 0.0
H414 H 0.524 0.32704 0.88648 0.0
H415 H 0.45378 0.26318 0.90014 0.0
H416 H 0.57184 0.13863 0.9149 0.0
H417 H 0.5611 0.19193 0.91211 0.0
C418 C 0.10499 0.29122 0.14603 0.0
C419 C 0.12637 0.26954 0.14245 0.0
C420 C 0.07515 0.28853 0.1421 0.0
C421 C 0.02114 0.2306 0.13228 0.0
H422 H 0.96915 0.29986 0.12764 0.0
C423 C 0.89239 0.21894 0.12866 0.0
C424 C 0.87739 0.23652 0.13781 0.0
C425 C 0.92262 0.22441 0.12583 0.0
C426 C 0.98348 0.28032 0.12882 0.0
H427 H 0.1337 0.22892 0.1314 0.0
H428 H 0.08163 0.22452 0.12433 0.0
H429 H 0.02361 0.30684 0.12852 0.0
H430 H 0.88166 0.27454 0.15066 0.0
H431 H 0.93427 0.28417 0.14566 0.0
H432 H 0.98092 0.20423 0.13288 0.0
C433 C 0.08778 0.24324 0.1304 0.0
C434 C 0.01459 0.28429 0.12938 0.0
C435 C 0.11762 0.2458 0.13443 0.0
C436 C 0.8927 0.26049 0.14364 0.0
C437 C 0.92273 0.26619 0.14069 0.0
C438 C 0.99006 0.22662 0.13159 0.0
C439 C 0.06608 0.26424 0.13441 0.0
C440 C 0.0337 0.2596 0.13158 0.0
C441 C 0.93813 0.24784 0.13196 0.0
C442 C 0.97092 0.25156 0.13028 0.0
H443 H 0.11103 0.30979 0.15221 0.0
H444 H 0.05897 0.30486 0.14555 0.0
H445 H 0.0351 0.21112 0.13412 0.0
H446 H 0.88111 0.20035 0.124 0.0
H447 H 0.93404 0.21002 0.11904 0.0
C448 C -0.00053 0.01172 0.4536 0.0
C449 C 0.00299 0.98442 0.44701 0.0
C450 C -0.00378 0.01195 0.46683 0.0
C451 C 0.01113 0.96696 0.49551 0.0
H452 H 0.95117 0.01899 0.51091 0.0
C453 C 0.98575 0.96421 0.5494 0.0
C454 C 0.98233 0.99223 0.55545 0.0
C455 C 0.98675 0.9623 0.53612 0.0
C456 C 0.9682 0.00454 0.50677 0.0
H457 H 0.00607 0.93593 0.44913 0.0
H458 H 0.00036 0.93638 0.47222 0.0
H459 H 0.95656 0.01776 0.48781 0.0
H460 H 0.97679 0.04019 0.55229 0.0
H461 H 0.97893 0.03688 0.52919 0.0
H462 H 0.02305 0.95401 0.51446 0.0
C463 C 0.00031 0.95761 0.46716 0.0
C464 C 0.97128 0.00385 0.49354 0.0
C465 C 0.00345 0.95736 0.45393 0.0
C466 C 0.9794 0.01822 0.54793 0.0
C467 C 0.98045 0.01632 0.53468 0.0
C468 C 0.00811 0.96772 0.50875 0.0
C469 C -0.00347 0.98489 0.47374 0.0
C470 C 0.99289 0.98517 0.48778 0.0
C471 C 0.98436 0.98837 0.52862 0.0
C472 C 0.98672 0.98664 0.51453 0.0
H473 H -0.00094 0.03296 0.44855 0.0
H474 H 0.99374 0.03336 0.47166 0.0
H475 H 0.02822 0.95261 0.49135 0.0
H476 H 0.98794 0.94375 0.55492 0.0
H477 H 0.98936 0.94038 0.53174 0.0
C478 C 0.23193 0.74901 0.7886 0.0
C479 C 0.25762 0.75135 0.79633 0.0
C480 C 0.23471 0.74708 0.77538 0.0
C481 C 0.28703 0.76396 0.7491 0.0
H482 H 0.2351 0.71039 0.72994 0.0
C483 C 0.30135 0.74396 0.69507 0.0
C484 C 0.27485 0.74381 0.68777 0.0
C485 C 0.2999 0.74396 0.70836 0.0
C486 C 0.24958 0.72564 0.73515 0.0
H487 H 0.30641 0.75318 0.79626 0.0
H488 H 0.31124 0.74946 0.77318 0.0
H489 H 0.23149 0.71185 0.7531 0.0
H490 H 0.22608 0.74342 0.68868 0.0
H491 H 0.22359 0.74358 0.71185 0.0
H492 H 0.30506 0.77777 0.73113 0.0
C493 C 0.28893 0.74956 0.77734 0.0
C494 C 0.24751 0.7265 0.74841 0.0
C495 C 0.28616 0.75153 0.79057 0.0
C496 C 0.24691 0.7435 0.69403 0.0
C497 C 0.24547 0.74341 0.70731 0.0
C498 C 0.28914 0.76305 0.73583 0.0
C499 C 0.26323 0.74739 0.7696 0.0
C500 C 0.26607 0.74581 0.75553 0.0
C501 C 0.27194 0.74369 0.71462 0.0
C502 C 0.27031 0.74402 0.72872 0.0
H503 H 0.20961 0.74889 0.79274 0.0
H504 H 0.21444 0.74586 0.76969 0.0
H505 H 0.30135 0.7794 0.75429 0.0
H506 H 0.32324 0.74412 0.69054 0.0
H507 H 0.32068 0.74386 0.71374 0.0
C508 C 0.52204 0.96255 0.04638 0.0
C509 C 0.52202 0.98939 0.05348 0.0
C510 C 0.5245 0.96328 0.03313 0.0
C511 C 0.54964 0.01115 0.00654 0.0
H512 H 0.49814 0.95936 0.98633 0.0
C513 C 0.53636 0.02443 0.95219 0.0
C514 C 0.53401 -0.00186 0.9448 0.0
C515 C 0.53653 0.02282 0.96546 0.0
C516 C 0.51299 0.97365 0.99183 0.0
H517 H 0.52464 0.03805 0.05224 0.0
H518 H 0.52873 0.03931 0.02908 0.0
H519 H 0.49497 0.95777 0.00947 0.0
H520 H 0.53078 0.94946 0.94555 0.0
H521 H 0.53144 0.94663 0.96874 0.0
H522 H 0.5676 0.02711 0.98889 0.0
C523 C 0.52715 0.01769 0.03379 0.0
C524 C 0.51113 0.97277 0.0051 0.0
C525 C 0.52461 0.01697 0.04705 0.0
C526 C 0.53246 0.97015 0.95097 0.0
C527 C 0.53266 0.96854 0.96426 0.0
C528 C 0.55154 0.012 0.99327 0.0
C529 C 0.52706 0.99085 0.02669 0.0
C530 C 0.52936 0.99158 0.0126 0.0
C531 C 0.53441 -0.00512 0.97165 0.0
C532 C 0.53315 0.99334 0.98576 0.0
H533 H 0.52019 0.9409 0.05104 0.0
H534 H 0.52474 0.9422 0.02794 0.0
H535 H 0.5643 0.02559 0.01207 0.0
H536 H 0.53756 0.04637 0.94773 0.0
H537 H 0.53755 0.04356 0.97088 0.0
C538 C 0.19906 0.2634 0.19942 0.0
C539 C 0.20848 0.2362 0.19388 0.0
C540 C 0.19927 0.26703 0.21263 0.0
C541 C 0.20646 0.22418 0.24307 0.0
H542 H 0.23026 0.30203 0.25643 0.0
C543 C 0.25131 0.24341 0.29394 0.0
C544 C 0.23756 0.26654 0.30099 0.0
C545 C 0.24486 0.23976 0.28103 0.0
C546 C 0.22329 0.28028 0.25281 0.0
H547 H 0.22536 0.1914 0.19779 0.0
H548 H 0.22698 0.19804 0.22077 0.0
H549 H 0.22456 0.29533 0.23353 0.0
H550 H 0.20651 0.30413 0.30007 0.0
H551 H 0.19593 0.29821 0.27729 0.0
H552 H 0.20678 0.20896 0.26243 0.0
C553 C 0.21849 0.21634 0.215 0.0
C554 C 0.21985 0.2764 0.23969 0.0
C555 C 0.21776 0.21255 0.2018 0.0
C556 C 0.21736 0.28608 0.29487 0.0
C557 C 0.21138 0.28277 0.28187 0.0
C558 C 0.21044 0.22795 0.25616 0.0
C559 C 0.20943 0.24371 0.2206 0.0
C560 C 0.2116 0.24822 0.23463 0.0
C561 C 0.22498 0.25948 0.27488 0.0
C562 C 0.21907 0.25597 0.26112 0.0
H563 H 0.19151 0.28193 0.19353 0.0
H564 H 0.19149 0.28818 0.21656 0.0
H565 H 0.19944 0.20235 0.23958 0.0
H566 H 0.26685 0.22792 0.29843 0.0
H567 H 0.2558 0.22178 0.2758 0.0
C568 C 0.79123 0.23177 0.204 0.0
C569 C 0.76525 0.22795 0.19655 0.0
C570 C 0.78928 0.23239 0.21727 0.0
C571 C 0.73573 0.24559 0.24352 0.0
H572 H 0.79533 0.20354 0.26376 0.0
C573 C 0.72285 0.22873 0.29768 0.0
C574 C 0.74869 0.23276 0.3052 0.0
C575 C 0.72496 0.22829 0.28442 0.0
C576 C 0.77871 0.21566 0.25824 0.0
H577 H 0.71686 0.22165 0.19718 0.0
H578 H 0.71353 0.22245 0.22034 0.0
H579 H 0.79883 0.20239 0.2406 0.0
H580 H 0.79702 0.23957 0.30468 0.0
H581 H 0.80063 0.23901 0.28152 0.0
H582 H 0.71558 0.25882 0.26117 0.0
C583 C 0.73535 0.22535 0.21592 0.0
C584 C 0.78071 0.21501 0.24498 0.0
C585 C 0.73729 0.22473 0.20265 0.0
C586 C 0.77668 0.23635 0.29916 0.0
C587 C 0.77879 0.23586 0.2859 0.0
C588 C 0.73372 0.24623 0.25679 0.0
C589 C 0.76131 0.22921 0.22337 0.0
C590 C 0.75923 0.22995 0.23747 0.0
C591 C 0.75295 0.23183 0.27838 0.0
C592 C 0.75518 0.23126 0.26429 0.0
H593 H 0.8131 0.23439 0.19959 0.0
H594 H 0.80964 0.23577 0.22274 0.0
H595 H 0.7191 0.25772 0.23801 0.0
H596 H 0.70094 0.22581 0.30203 0.0
H597 H 0.70469 0.22476 0.27889 0.0
C598 C 0.77317 0.73032 0.70397 0.0
C599 C 0.7455 0.73151 0.69753 0.0
C600 C 0.77403 0.72784 0.71721 0.0
C601 C 0.72867 0.74243 0.74583 0.0
H602 H 0.78816 0.69178 0.76226 0.0
C603 C 0.7331 0.72783 0.80038 0.0
C604 C 0.76179 0.72959 0.80595 0.0
C605 C 0.73 0.72566 0.78717 0.0
C606 C 0.77155 0.70618 0.75781 0.0
H607 H 0.69701 0.73064 0.69992 0.0
H608 H 0.69855 0.72608 0.72305 0.0
H609 H 0.78466 0.69234 0.73909 0.0
H610 H 0.80974 0.73 0.80204 0.0
H611 H 0.80431 0.72649 0.77902 0.0
H612 H 0.7158 0.75654 0.76454 0.0
C613 C 0.71957 0.72741 0.71786 0.0
C614 C 0.76956 0.70651 0.74454 0.0
C615 C 0.7187 0.72988 0.7046 0.0
C616 C 0.78731 0.72865 0.79805 0.0
C617 C 0.78421 0.72645 0.78486 0.0
C618 C 0.73066 0.74209 0.75909 0.0
C619 C 0.74725 0.72648 0.72431 0.0
C620 C 0.7483 0.72488 0.7384 0.0
C621 C 0.75553 0.72515 0.77927 0.0
C622 C 0.75233 0.7242 0.76522 0.0
H623 H 0.79423 0.73158 0.69881 0.0
H624 H 0.79572 0.7276 0.72191 0.0
H625 H 0.71233 0.75713 0.74138 0.0
H626 H 0.71298 0.72837 0.8062 0.0
H627 H 0.70761 0.72434 0.78315 0.0
C628 C 0.46962 0.52369 0.95152 0.0
C629 C 0.48068 0.49863 0.94481 0.0
C630 C 0.47488 0.52661 0.96458 0.0
C631 C 0.52691 0.50286 0.98966 0.0
H632 H 0.46219 0.52427 0.01272 0.0
C633 C 0.53947 0.49553 0.0442 0.0
C634 C 0.52497 0.5174 0.05167 0.0
C635 C 0.53479 0.49444 0.03106 0.0
C636 C 0.48064 0.51875 0.00639 0.0
H637 H 0.50571 0.45687 0.94654 0.0
H638 H 0.51499 0.46212 0.96931 0.0
H639 H 0.45213 0.52005 0.98997 0.0
H640 H 0.49495 0.5559 0.05118 0.0
H641 H 0.48738 0.55448 0.02824 0.0
H642 H 0.55554 0.50185 0.006 0.0
C643 C 0.50239 0.47953 0.96445 0.0
C644 C 0.47481 0.51624 0.99337 0.0
C645 C 0.49689 0.47645 0.95143 0.0
C646 C 0.50629 0.53863 0.0457 0.0
C647 C 0.50178 0.53768 0.03255 0.0
C648 C 0.5328 0.50561 0.00266 0.0
C649 C 0.49156 0.50468 0.97113 0.0
C650 C 0.49784 0.50806 0.9849 0.0
C651 C 0.51568 0.51535 0.02509 0.0
C652 C 0.5097 0.5134 0.0112 0.0
H653 H 0.45703 0.54114 0.94668 0.0
H654 H 0.46642 0.54631 0.9695 0.0
H655 H 0.54518 0.49694 0.98329 0.0
H656 H 0.5539 0.47877 0.04853 0.0
H657 H 0.54554 0.4767 0.02564 0.0
C658 C 0.018 0.46971 0.54054 0.0
C659 C 0.01306 0.49558 0.54797 0.0
C660 C 0.0175 0.47137 0.52727 0.0
C661 C 0.02562 0.52474 0.5007 0.0
H662 H 0.9862 0.46189 0.48124 0.0
C663 C 0.00735 0.53326 0.44643 0.0
C664 C 0.01267 0.5071 0.43923 0.0
C665 C 0.007 0.53207 0.45971 0.0
C666 C -0.00244 0.47945 0.48653 0.0
H667 H 0.00362 0.54347 0.5473 0.0
H668 H 0.00252 0.54629 0.52412 0.0
H669 H 0.98623 0.45947 0.50443 0.0
H670 H 0.02187 0.45921 0.44032 0.0
H671 H 0.02152 0.45723 0.4635 0.0
H672 H 0.03702 0.54467 0.48281 0.0
C673 C 0.00712 0.5248 0.52857 0.0
C674 C -0.00243 0.47807 0.49981 0.0
C675 C 0.00759 0.52314 0.54185 0.0
C676 C 0.01762 0.47975 0.44559 0.0
C677 C 0.01724 0.47857 0.45887 0.0
C678 C 0.02561 0.52612 0.48742 0.0
C679 C 0.01206 0.49893 0.52114 0.0
C680 C 0.01167 0.50065 0.50704 0.0
C681 C 0.01194 0.50472 0.46608 0.0
C682 C 0.01165 0.50345 0.48019 0.0
H683 H 0.02237 0.44814 0.54496 0.0
H684 H 0.02178 0.45112 0.52181 0.0
H685 H 0.03704 0.54225 0.506 0.0
H686 H 0.00339 0.55468 0.44181 0.0
H687 H 0.00249 0.55253 0.465 0.0
C688 C 0.24014 0.82856 0.63705 0.0
C689 C 0.24223 0.80295 0.62923 0.0
C690 C 0.2188 0.85083 0.63454 0.0
C691 C 0.15831 0.88173 0.6325 0.0
H692 H 0.13707 0.9054 0.59815 0.0
C693 C 0.04767 0.94316 0.62068 0.0
C694 C 0.04836 0.96559 0.61128 0.0
C695 C 0.07306 0.92551 0.62304 0.0
C696 C 0.14295 0.89931 0.60781 0.0
H697 H 0.22419 0.78108 0.61241 0.0
H698 H 0.18666 0.81971 0.60814 0.0
H699 H 0.17937 0.87144 0.60156 0.0
H700 H 0.07647 0.98759 0.59718 0.0
H701 H 0.12085 0.95702 0.60142 0.0
H702 H 0.12208 0.90979 0.63876 0.0
C703 C 0.20176 0.82278 0.61613 0.0
C704 C 0.16697 0.87957 0.60976 0.0
C705 C 0.22318 0.80055 0.61861 0.0
C706 C 0.07514 0.97038 0.60445 0.0
C707 C 0.10053 0.95276 0.60682 0.0
C708 C 0.13433 0.90148 0.63056 0.0
C709 C 0.19903 0.84794 0.62418 0.0
C710 C 0.17473 0.87032 0.62211 0.0
C711 C 0.09969 0.92994 0.61607 0.0
C712 C 0.12618 0.91025 0.61819 0.0
H713 H 0.25466 0.8312 0.64526 0.0
H714 H 0.21761 0.87019 0.6408 0.0
H715 H 0.16348 0.8748 0.64214 0.0
H716 H 0.02737 0.93886 0.62609 0.0
H717 H 0.07155 0.90786 0.63012 0.0
C718 C 0.28631 0.84053 0.84772 0.0
C719 C 0.27025 0.82304 0.85655 0.0
C720 C 0.30621 0.86275 0.85187 0.0
C721 C 0.353 0.88251 0.87931 0.0
H722 H 0.36146 0.959 0.86193 0.0
C723 C 0.43753 0.97206 0.89619 0.0
C724 C 0.45467 0.98624 0.88668 0.0
C725 C 0.41281 0.95429 0.89294 0.0
C726 C 0.35949 0.93765 0.86681 0.0
H727 H 0.26175 0.81579 0.87666 0.0
H728 H 0.29645 0.85474 0.8839 0.0
H729 H 0.32163 0.9243 0.85555 0.0
H730 H 0.45901 0.99332 0.86633 0.0
H731 H 0.41611 0.96189 0.86066 0.0
H732 H 0.39115 0.89548 0.8904 0.0
C733 C 0.29388 0.85098 0.87377 0.0
C734 C 0.33668 0.91781 0.86318 0.0
C735 C 0.27391 0.82877 0.86962 0.0
C736 C 0.44625 0.9827 0.87388 0.0
C737 C 0.42155 0.96486 0.87063 0.0
C738 C 0.37582 0.90229 0.88293 0.0
C739 C 0.31051 0.86794 0.86494 0.0
C740 C 0.33338 0.88992 0.86931 0.0
C741 C 0.40471 0.95024 0.88013 0.0
C742 C 0.3795 0.92997 0.87665 0.0
H743 H 0.28399 0.8367 0.83758 0.0
H744 H 0.31894 0.87521 0.84484 0.0
H745 H 0.35135 0.86098 0.88408 0.0
H746 H 0.44329 0.9745 0.90615 0.0
H747 H 0.40003 0.9437 0.90049 0.0
C748 C 0.46022 0.02913 0.12727 0.0
C749 C 0.4587 0.01731 0.11488 0.0
C750 C 0.43804 0.04881 0.1317 0.0
C751 C 0.37905 0.10073 0.12029 0.0
H752 H 0.35149 0.09672 0.15529 0.0
C753 C 0.28132 0.17381 0.13907 0.0
C754 C 0.28634 0.18838 0.15076 0.0
C755 C 0.3011 0.15156 0.13478 0.0
C756 C 0.35912 0.0982 0.14552 0.0
H757 H 0.43243 0.01642 0.09748 0.0
H758 H 0.39345 0.05032 0.10528 0.0
H759 H 0.38827 0.06019 0.14758 0.0
H760 H 0.31569 0.19062 0.16724 0.0
H761 H 0.35019 0.15177 0.15973 0.0
H762 H 0.34984 0.13872 0.11824 0.0
C763 C 0.41209 0.04485 0.1115 0.0
C764 C 0.38022 0.07734 0.1411 0.0
C765 C 0.43435 0.0253 0.10705 0.0
C766 C 0.31122 0.17985 0.15818 0.0
C767 C 0.33088 0.15747 0.15392 0.0
C768 C 0.35784 0.12147 0.12469 0.0
C769 C 0.41375 0.05697 0.12385 0.0
C770 C 0.39058 0.07849 0.12846 0.0
C771 C 0.32617 0.1433 0.14213 0.0
C772 C 0.34782 0.12054 0.13737 0.0
H773 H 0.47875 0.0235 0.13353 0.0
H774 H 0.44025 0.05807 0.14119 0.0
H775 H 0.3869 0.10258 0.11056 0.0
H776 H 0.26232 0.17982 0.13314 0.0
H777 H 0.29675 0.14077 0.12571 0.0
C778 C 0.08797 0.02397 0.39337 0.0
C779 C 0.0795 -0.00181 0.38649 0.0
C780 C 0.11004 0.04329 0.38865 0.0
C781 C 0.14612 0.06588 0.3586 0.0
H782 H 0.20243 0.10603 0.38112 0.0
C783 C 0.23726 0.14714 0.33998 0.0
C784 C 0.23964 0.17461 0.34655 0.0
C785 C 0.22015 0.1236 0.34499 0.0
C786 C 0.18675 0.09506 0.37473 0.0
H787 H 0.08816 0.97202 0.36942 0.0
H788 H 0.12703 0.00556 0.36127 0.0
H789 H 0.16843 0.06796 0.38966 0.0
H790 H 0.22647 0.19871 0.36365 0.0
H791 H 0.1966 0.15762 0.37237 0.0
H792 H 0.16431 0.09317 0.3437 0.0
C793 C 0.11622 0.01109 0.37021 0.0
C794 C 0.16726 0.07331 0.37962 0.0
C795 C 0.09405 0.9918 0.37492 0.0
C796 C 0.22505 0.17784 0.35835 0.0
C797 C 0.2081 0.15425 0.36338 0.0
C798 C 0.1657 0.08753 0.35371 0.0
C799 C 0.12424 0.03723 0.37696 0.0
C800 C 0.14644 0.05876 0.37164 0.0
C801 C 0.20527 0.12699 0.3567 0.0
C802 C 0.18594 0.10261 0.36176 0.0
H803 H 0.07715 0.02958 0.40231 0.0
H804 H 0.11536 0.06344 0.394 0.0
H805 H 0.13006 0.05544 0.35222 0.0
H806 H 0.24828 0.14391 0.33088 0.0
H807 H 0.21858 0.10272 0.33969 0.0
C808 C 0.91727 -0.00211 0.38814 0.0
C809 C 0.91805 0.99275 0.40133 0.0
C810 C 0.89217 0.01122 0.38252 0.0
C811 C 0.83205 0.06353 0.38974 0.0
H812 H 0.79999 0.03786 0.35715 0.0
C813 C 0.74455 0.13556 0.36393 0.0
C814 C 0.75015 0.14027 0.35092 0.0
C815 C 0.75933 0.11261 0.37049 0.0
C816 C 0.80876 0.04538 0.36623 0.0
H817 H 0.89287 -0.0031 0.41895 0.0
H818 H 0.84907 0.0207 0.4091 0.0
H819 H 0.83728 0.0067 0.36801 0.0
H820 H 0.7744 0.12371 0.33442 0.0
H821 H 0.8009 0.08431 0.3459 0.0
H822 H 0.80497 0.10288 0.38775 0.0
C823 C 0.86793 0.0143 0.40315 0.0
C824 C 0.83001 0.02749 0.37245 0.0
C825 C 0.89295 0.00066 0.40876 0.0
C826 C 0.76961 0.12062 0.34444 0.0
C827 C 0.78468 0.09788 0.35103 0.0
C828 C 0.81106 0.08154 0.38348 0.0
C829 C 0.86744 0.01992 0.38999 0.0
C830 C 0.84228 0.03673 0.38414 0.0
C831 C 0.78031 0.09411 0.36421 0.0
C832 C 0.7996 0.073 0.37152 0.0
H833 H 0.9362 0.9919 0.38214 0.0
H834 H 0.89253 0.01562 0.37238 0.0
H835 H 0.84142 0.07137 0.39866 0.0
H836 H 0.72933 0.15012 0.36914 0.0
H837 H 0.75492 0.10989 0.38056 0.0
C838 C 0.60781 0.9841 0.11459 0.0
C839 C 0.60623 0.98796 0.10134 0.0
C840 C 0.63207 -0.0044 0.12147 0.0
C841 C 0.708 0.0308 0.11803 0.0
H842 H 0.68488 0.07134 0.14926 0.0
C843 C 0.7681 0.13398 0.13894 0.0
C844 C 0.77067 0.13657 0.15222 0.0
C845 C 0.75341 0.10938 0.13352 0.0
C846 C 0.69189 0.05962 0.14071 0.0
H847 H 0.62922 0.00589 0.08482 0.0
H848 H 0.67098 0.0271 0.09684 0.0
H849 H 0.64844 0.04028 0.13818 0.0
H850 H 0.76135 0.11467 0.17024 0.0
H851 H 0.73514 0.07178 0.16073 0.0
H852 H 0.75103 0.05195 0.12028 0.0
C853 C 0.65395 0.01452 0.10193 0.0
C854 C 0.67099 0.04172 0.13434 0.0
C855 C 0.62989 0.00257 0.09503 0.0
C856 C 0.75963 0.11331 0.15997 0.0
C857 C 0.74458 0.08884 0.15455 0.0
C858 C 0.72882 0.04904 0.12435 0.0
C859 C 0.65503 0.01169 0.11528 0.0
C860 C 0.67855 0.02759 0.12277 0.0
C861 C 0.74074 0.08704 0.14129 0.0
C862 C 0.72072 0.06409 0.13561 0.0
H863 H 0.59009 0.97249 0.11969 0.0
H864 H 0.63249 0.99235 0.13168 0.0
H865 H 0.71478 0.01978 0.10929 0.0
H866 H 0.77659 0.15146 0.13272 0.0
H867 H 0.75054 0.10871 0.12328 0.0
C868 C 0.75376 0.85449 0.83609 0.0
C869 C 0.76895 0.83513 0.84448 0.0
C870 C 0.73892 0.87999 0.84072 0.0
C871 C 0.7303 0.93004 0.86867 0.0
H872 H 0.64607 0.93076 0.85913 0.0
C873 C 0.63852 0.98413 0.89986 0.0
C874 C 0.61285 -0.0038 0.89399 0.0
C875 C 0.66073 0.96999 0.89257 0.0
C876 C 0.66963 0.93149 0.86171 0.0
H877 H 0.78237 0.82841 0.86414 0.0
H878 H 0.75661 0.87292 0.87219 0.0
H879 H 0.68059 0.89709 0.84824 0.0
H880 H 0.59109 0.00456 0.87585 0.0
H881 H 0.63018 0.98067 0.86312 0.0
H882 H 0.71921 0.96409 0.88233 0.0
C883 C 0.75611 0.86841 0.86205 0.0
C884 C 0.68943 0.91211 0.85546 0.0
C885 C 0.77066 0.84279 0.85745 0.0
C886 C 0.61044 -0.00493 0.88066 0.0
C887 C 0.6328 0.98128 0.87337 0.0
C888 C 0.71052 0.94967 0.87487 0.0
C889 C 0.73935 0.88675 0.8538 0.0
C890 C 0.71979 0.91066 0.85909 0.0
C891 C 0.6579 0.96796 0.87925 0.0
C892 C 0.67978 0.95006 0.87168 0.0
H893 H 0.75212 0.84922 0.82604 0.0
H894 H 0.72634 0.89392 0.83415 0.0
H895 H 0.75368 0.92953 0.87157 0.0
H896 H 0.64098 0.98464 0.91011 0.0
H897 H 0.67951 0.95964 0.89746 0.0
C898 C 0.74223 0.8411 0.64355 0.0
C899 C 0.7433 0.83513 0.65668 0.0
C900 C 0.7559 0.86677 0.63859 0.0
C901 C 0.81995 0.91426 0.64519 0.0
H902 H 0.79103 0.95995 0.61623 0.0
C903 C 0.89856 -0.00527 0.61863 0.0
C904 C 0.89771 0.99275 0.60528 0.0
C905 C 0.87578 0.98193 0.62598 0.0
C906 C 0.79945 0.94733 0.62429 0.0
H907 H 0.75788 0.8523 0.67501 0.0
H908 H 0.7821 0.89716 0.66628 0.0
H909 H 0.7568 0.92614 0.62747 0.0
H910 H 0.87182 0.9768 0.58915 0.0
H911 H 0.83255 0.95356 0.60197 0.0
H912 H 0.8629 0.93392 0.64168 0.0
C913 C 0.77075 0.88183 0.65986 0.0
C914 C 0.77982 0.92811 0.63075 0.0
C915 C 0.75681 0.85623 0.66484 0.0
C916 C 0.87308 0.97867 0.59942 0.0
C917 C 0.85044 0.96556 0.60678 0.0
C918 C 0.8396 0.93325 0.63868 0.0
C919 C 0.77109 0.8869 0.64665 0.0
C920 C 0.79009 0.91088 0.64108 0.0
C921 C 0.85182 0.96655 0.62016 0.0
C922 C 0.8298 0.94948 0.62797 0.0
H923 H 0.73177 0.82537 0.63703 0.0
H924 H 0.75603 0.86992 0.62837 0.0
H925 H 0.82864 0.9009 0.65298 0.0
H926 H 0.91707 0.00582 0.62343 0.0
H927 H 0.87724 0.98365 0.63625 0.0
C928 C 0.72777 0.30676 0.14214 0.0
C929 C 0.71981 0.27618 0.14151 0.0
C930 C 0.70816 0.32886 0.13763 0.0
C931 C 0.62829 0.34222 0.13016 0.0
H932 H 0.65916 0.40898 0.11031 0.0
C933 C 0.55051 0.42291 0.10289 0.0
C934 C 0.55729 0.45377 0.10335 0.0
C935 C 0.57064 0.40176 0.10775 0.0
C936 C 0.65026 0.39066 0.11597 0.0
H937 H 0.68512 0.2448 0.13559 0.0
H938 H 0.65106 0.28338 0.12761 0.0
H939 H 0.6938 0.37088 0.11838 0.0
H940 H 0.59059 0.48667 0.10921 0.0
H941 H 0.62575 0.44962 0.11778 0.0
H942 H 0.58476 0.36188 0.12771 0.0
C943 C 0.67229 0.29028 0.13175 0.0
C944 C 0.67008 0.36885 0.12058 0.0
C945 C 0.69188 0.26817 0.13625 0.0
C946 C 0.58473 0.46304 0.10871 0.0
C947 C 0.60493 0.44183 0.11356 0.0
C948 C 0.60849 0.36399 0.12554 0.0
C949 C 0.68019 0.32086 0.1324 0.0
C950 C 0.65928 0.34432 0.12767 0.0
C951 C 0.59803 0.41098 0.11316 0.0
C952 C 0.61924 0.38836 0.11834 0.0
H953 H 0.7491 0.31368 0.14617 0.0
H954 H 0.71474 0.35226 0.1384 0.0
H955 H 0.61934 0.32387 0.13579 0.0
H956 H 0.52962 0.415 0.09878 0.0
H957 H 0.56489 0.37812 0.10712 0.0
C958 C 0.78114 0.30786 0.36087 0.0
C959 C 0.79052 0.27777 0.35972 0.0
C960 C 0.80144 0.33012 0.36467 0.0
C961 C 0.87535 0.34087 0.38032 0.0
H962 H 0.87437 0.41758 0.36274 0.0
C963 C 0.97211 0.4263 0.38442 0.0
C964 C 0.96403 0.45652 0.38638 0.0
C965 C 0.95029 0.40493 0.38133 0.0
C966 C 0.8747 0.39637 0.36781 0.0
H967 H 0.82846 0.24739 0.36176 0.0
H968 H 0.86389 0.2862 0.36816 0.0
H969 H 0.83707 0.37936 0.35737 0.0
H970 H 0.9268 0.48816 0.38643 0.0
H971 H 0.88871 0.45077 0.38098 0.0
H972 H 0.9133 0.35776 0.39061 0.0
C973 C 0.84077 0.29259 0.36634 0.0
C974 C 0.85331 0.37451 0.36477 0.0
C975 C 0.82047 0.27034 0.3626 0.0
C976 C 0.93374 0.46504 0.38498 0.0
C977 C 0.91195 0.44368 0.38181 0.0
C978 C 0.89682 0.36266 0.38331 0.0
C979 C 0.83154 0.32276 0.36736 0.0
C980 C 0.8535 0.34645 0.37094 0.0
C981 C 0.91998 0.41338 0.38006 0.0
C982 C 0.89682 0.39055 0.37703 0.0
H983 H 0.75816 0.31428 0.35877 0.0
H984 H 0.79352 0.35309 0.36554 0.0
H985 H 0.87579 0.3197 0.38541 0.0
H986 H -0.00475 0.41902 0.38541 0.0
H987 H 0.95717 0.38179 0.37987 0.0
C988 C 0.98298 0.56898 0.60675 0.0
C989 C 0.97496 0.53925 0.60371 0.0
C990 C 0.96155 0.589 0.61153 0.0
C991 C 0.87957 0.60136 0.61319 0.0
H992 H 0.90058 0.6568 0.64031 0.0
C993 C 0.7914 0.6729 0.63982 0.0
C994 C 0.79882 0.70312 0.64222 0.0
C995 C 0.81293 0.65307 0.63498 0.0
C996 C 0.89449 0.64165 0.63265 0.0
H997 H 0.93827 0.50705 0.60346 0.0
H998 H 0.90099 0.54186 0.612 0.0
H999 H 0.93819 0.62149 0.63235 0.0
H1000 H 0.83459 0.73629 0.64137 0.0
H1001 H 0.87217 0.70159 0.6329 0.0
H1002 H 0.83579 0.62141 0.61357 0.0
C1003 C 0.92373 0.54985 0.61048 0.0
C1004 C 0.91602 0.62145 0.62808 0.0
C1005 C 0.94514 0.52986 0.60566 0.0
C1006 C 0.82818 0.71313 0.63964 0.0
C1007 C 0.84975 0.69324 0.63486 0.0
C1008 C 0.85802 0.62148 0.61779 0.0
C1009 C 0.93166 0.57969 0.61341 0.0
C1010 C 0.90879 0.60108 0.6183 0.0
C1011 C 0.84234 0.66301 0.6325 0.0
C1012 C 0.86527 0.64183 0.62756 0.0
H1013 H 0.00575 0.57695 0.60531 0.0
H1014 H 0.96829 0.61193 0.61354 0.0
H1015 H 0.87344 0.5863 0.6055 0.0
H1016 H 0.76898 0.66448 0.64172 0.0
H1017 H 0.80668 0.62981 0.63339 0.0
C1018 C 0.72604 0.67271 0.86343 0.0
C1019 C 0.72008 0.70373 0.86264 0.0
C1020 C 0.70379 0.65283 0.8676 0.0
C1021 C 0.62182 0.64603 0.86963 0.0
H1022 H 0.63866 0.58042 0.89288 0.0
C1023 C 0.52781 0.57276 0.89094 0.0
C1024 C 0.53328 0.54177 0.89215 0.0
C1025 C 0.55091 0.59228 0.8874 0.0
C1026 C 0.6337 0.59841 0.88625 0.0
H1027 H 0.68646 0.73831 0.86598 0.0
H1028 H 0.64776 0.7036 0.87329 0.0
H1029 H 0.67884 0.61518 0.88699 0.0
H1030 H 0.56718 0.50683 0.89043 0.0
H1031 H 0.60741 0.54088 0.88402 0.0
H1032 H 0.57684 0.62922 0.86876 0.0
C1033 C 0.66949 0.69465 0.87053 0.0
C1034 C 0.65668 0.61833 0.88292 0.0
C1035 C 0.69173 0.71453 0.86642 0.0
C1036 C 0.56227 0.53063 0.88962 0.0
C1037 C 0.58538 0.55016 0.88603 0.0
C1038 C 0.5989 0.62607 0.87292 0.0
C1039 C 0.67516 0.66358 0.871 0.0
C1040 C 0.65092 0.6424 0.87461 0.0
C1041 C 0.57998 0.58122 0.88494 0.0
C1042 C 0.60454 0.60209 0.8813 0.0
H1043 H 0.74767 0.66369 0.8606 0.0
H1044 H 0.70872 0.62896 0.86779 0.0
H1045 H 0.61686 0.66407 0.86303 0.0
H1046 H 0.50576 0.58209 0.89289 0.0
H1047 H 0.54611 0.61614 0.88682 0.0
C1048 C 0.39033 0.49807 0.88543 0.0
C1049 C 0.39124 0.49546 0.89875 0.0
C1050 C 0.36756 0.51456 0.87955 0.0
C1051 C 0.32207 0.57995 0.88568 0.0
H1052 H 0.28355 0.55931 0.85372 0.0
C1053 C 0.25305 0.66769 0.85823 0.0
C1054 C 0.25731 0.66844 0.84499 0.0
C1055 C 0.26356 0.64341 0.86538 0.0
C1056 C 0.29428 0.56549 0.8626 0.0
H1057 H 0.3682 0.50667 0.91634 0.0
H1058 H 0.32854 0.53606 0.90601 0.0
H1059 H 0.31186 0.52101 0.86533 0.0
H1060 H 0.27535 0.64417 0.82878 0.0
H1061 H 0.29479 0.60234 0.84128 0.0
H1062 H 0.30624 0.62469 0.88271 0.0
C1063 C 0.34547 0.52522 0.90016 0.0
C1064 C 0.31027 0.5435 0.86927 0.0
C1065 C 0.36807 0.50834 0.90605 0.0
C1066 C 0.27172 0.64416 0.83898 0.0
C1067 C 0.28263 0.62006 0.84615 0.0
C1068 C 0.30641 0.60199 0.87896 0.0
C1069 C 0.34546 0.52904 0.88688 0.0
C1070 C 0.32478 0.5507 0.88075 0.0
C1071 C 0.27897 0.61954 0.85946 0.0
C1072 C 0.29282 0.59521 0.8672 0.0
H1073 H 0.4078 0.48821 0.87956 0.0
H1074 H 0.36825 0.51736 0.86931 0.0
H1075 H 0.33345 0.58624 0.89441 0.0
H1076 H 0.24162 0.6859 0.86311 0.0
H1077 H 0.25978 0.6435 0.87556 0.0
C1078 C 0.13038 0.51342 0.58649 0.0
C1079 C 0.1104 0.49428 0.59293 0.0
C1080 C 0.1543 0.5268 0.59298 0.0
C1081 C 0.17384 0.54997 0.62548 0.0
H1082 H 0.24857 0.57427 0.60946 0.0
C1083 C 0.2576 0.62954 0.65038 0.0
C1084 C 0.26579 0.65444 0.64291 0.0
C1085 C 0.24335 0.60477 0.64483 0.0
C1086 C 0.22784 0.56751 0.61406 0.0
H1087 H 0.10115 0.4722 0.61092 0.0
H1088 H 0.14334 0.49493 0.62216 0.0
H1089 H 0.2155 0.53864 0.5986 0.0
H1090 H 0.2665 0.67246 0.62371 0.0
H1091 H 0.24164 0.62931 0.61407 0.0
H1092 H 0.18585 0.57934 0.64079 0.0
C1093 C 0.14003 0.50034 0.6122 0.0
C1094 C 0.20888 0.54721 0.60784 0.0
C1095 C 0.11594 0.48722 0.60575 0.0
C1096 C 0.26033 0.65369 0.62974 0.0
C1097 C 0.24635 0.62885 0.62419 0.0
C1098 C 0.1929 0.57006 0.63173 0.0
C1099 C 0.1589 0.52105 0.60601 0.0
C1100 C 0.18125 0.53886 0.61333 0.0
C1101 C 0.23735 0.60434 0.6317 0.0
C1102 C 0.21965 0.57966 0.62592 0.0
H1103 H 0.12669 0.51928 0.57661 0.0
H1104 H 0.16817 0.54287 0.58793 0.0
H1105 H 0.15255 0.54445 0.62992 0.0
H1106 H 0.26162 0.62943 0.66055 0.0
H1107 H 0.23673 0.58607 0.65082 0.0
C1108 C 0.10638 0.51075 0.38196 0.0
C1109 C 0.10289 0.51408 0.39519 0.0
C1110 C 0.1318 0.49653 0.37699 0.0
C1111 C 0.18185 0.43646 0.38515 0.0
H1112 H 0.22575 0.45994 0.35484 0.0
C1113 C 0.26023 0.35221 0.3608 0.0
C1114 C 0.25876 0.35113 0.34746 0.0
C1115 C 0.24813 0.37659 0.36744 0.0
C1116 C 0.21358 0.45295 0.36326 0.0
H1117 H 0.12387 0.50654 0.41355 0.0
H1118 H 0.16808 0.48094 0.40481 0.0
H1119 H 0.19155 0.49575 0.36501 0.0
H1120 H 0.24461 0.37502 0.33054 0.0
H1121 H 0.22202 0.41689 0.34209 0.0
H1122 H 0.20179 0.39318 0.38304 0.0
C1123 C 0.15119 0.48957 0.39834 0.0
C1124 C 0.19421 0.47355 0.36912 0.0
C1125 C 0.12596 0.50424 0.40332 0.0
C1126 C 0.24607 0.37539 0.34083 0.0
C1127 C 0.23332 0.3995 0.34748 0.0
C1128 C 0.20076 0.41574 0.37919 0.0
C1129 C 0.15397 0.48502 0.38515 0.0
C1130 C 0.17779 0.46526 0.37998 0.0
C1131 C 0.23358 0.40007 0.3609 0.0
C1132 C 0.21645 0.42348 0.36802 0.0
H1133 H 0.08904 0.51833 0.37547 0.0
H1134 H 0.13328 0.49306 0.3668 0.0
H1135 H 0.16906 0.42934 0.3934 0.0
H1136 H 0.27038 0.33397 0.36612 0.0
H1137 H 0.24957 0.37661 0.37773 0.0
C1138 C 0.41109 0.46516 0.0905 0.0
C1139 C 0.42409 0.49095 0.09589 0.0
C1140 C 0.38731 0.45063 0.09662 0.0
C1141 C 0.35509 0.44249 0.12883 0.0
H1142 H 0.29731 0.39323 0.11071 0.0
C1143 C 0.29812 0.34085 0.1521 0.0
C1144 C 0.26935 0.33208 0.14806 0.0
C1145 C 0.31282 0.36481 0.1462 0.0
C1146 C 0.31284 0.40727 0.11598 0.0
H1147 H 0.42112 0.52313 0.11137 0.0
H1148 H 0.37881 0.49852 0.1218 0.0
H1149 H 0.32864 0.42825 0.09895 0.0
H1150 H 0.23265 0.34243 0.13519 0.0
H1151 H 0.25787 0.38498 0.12519 0.0
H1152 H 0.33885 0.42203 0.14589 0.0
C1153 C 0.38763 0.48879 0.11311 0.0
C1154 C 0.33118 0.42706 0.10919 0.0
C1155 C 0.41175 0.50301 0.1071 0.0
C1156 C 0.25501 0.3485 0.13839 0.0
C1157 C 0.26953 0.37278 0.13262 0.0
C1158 C 0.33644 0.42306 0.13564 0.0
C1159 C 0.3757 0.4619 0.10816 0.0
C1160 C 0.35318 0.44424 0.11548 0.0
C1161 C 0.29888 0.38086 0.13627 0.0
C1162 C 0.31573 0.40451 0.12926 0.0
H1163 H 0.42023 0.4553 0.08189 0.0
H1164 H 0.37909 0.42977 0.09259 0.0
H1165 H 0.3719 0.45512 0.13404 0.0
H1166 H 0.30977 0.32851 0.15949 0.0
H1167 H 0.33559 0.36996 0.14914 0.0
loop_
_geom_bond_atom_site_label_1
_geom_bond_atom_site_label_2
_geom_bond_distance
_geom_bond_site_symmetry_2
_ccdc_geom_bond_type
C0 O1 1.136 1_455 S
C0 O7 1.204 . S
O1 C0 1.136 1_655 S
O2 Zn3 1.899 1_655 S
O2 C10 1.284 . S
Zn3 O2 1.899 1_455 S
Zn3 O4 2.032 . S
Zn3 O7 2.086 . S
Zn3 O12 1.977 . S
O4 Zn3 2.032 . S
O4 C8 1.278 . S
C5 O6 1.203 . S
C5 O12 1.267 1_565 S
O6 C5 1.203 . S
O7 C0 1.204 . S
O7 Zn3 2.086 . S
C8 O4 1.278 . S
C8 O9 1.211 1_545 S
O9 C8 1.211 1_565 S
C10 O2 1.284 . S
C10 O11 1.273 1_545 S
O11 C10 1.273 1_565 S
O12 Zn3 1.977 . S
O12 C5 1.267 1_545 S
C13 O14 1.160 . S
C13 O20 1.185 . S
O14 C13 1.160 . S
O15 Zn16 1.899 . S
O15 C23 1.284 . S
Zn16 O15 1.899 . S
Zn16 O17 2.032 . S
Zn16 O20 2.086 . S
Zn16 O25 1.977 . S
O17 Zn16 2.032 . S
O17 C21 1.278 . S
C18 O19 1.203 . S
C18 O25 1.267 . S
O19 C18 1.203 . S
O20 C13 1.185 . S
O20 Zn16 2.086 . S
C21 O17 1.278 . S
C21 O22 1.211 . S
O22 C21 1.211 . S
C23 O15 1.284 . S
C23 O24 1.273 . S
O24 C23 1.273 . S
O25 Zn16 1.977 . S
O25 C18 1.267 . S
C26 O27 1.160 . S
C26 O33 1.185 . S
O27 C26 1.160 . S
O28 Zn29 1.899 . S
O28 C36 1.284 . S
Zn29 O28 1.899 . S
Zn29 O30 2.032 . S
Zn29 O33 2.086 . S
Zn29 O38 1.977 . S
O30 Zn29 2.032 . S
O30 C34 1.278 . S
C31 O32 1.203 . S
C31 O38 1.267 1_545 S
O32 C31 1.203 . S
O33 C26 1.185 . S
O33 Zn29 2.086 . S
C34 O30 1.278 . S
C34 O35 1.211 1_565 S
O35 C34 1.211 1_545 S
C36 O28 1.284 . S
C36 O37 1.273 1_565 S
O37 C36 1.273 1_545 S
O38 Zn29 1.977 . S
O38 C31 1.267 1_565 S
C39 O40 1.160 . S
C39 O46 1.185 . S
O40 C39 1.160 . S
O41 Zn42 1.899 . S
O41 C49 1.284 . S
Zn42 O41 1.899 . S
Zn42 O43 2.032 . S
Zn42 O46 2.086 . S
Zn42 O51 1.977 . S
O43 Zn42 2.032 . S
O43 C47 1.278 . S
C44 O45 1.203 . S
C44 O51 1.267 . S
O45 C44 1.203 . S
O46 C39 1.185 . S
O46 Zn42 2.086 . S
C47 O43 1.278 . S
C47 O48 1.211 . S
O48 C47 1.211 . S
C49 O41 1.284 . S
C49 O50 1.273 . S
O50 C49 1.273 . S
O51 Zn42 1.977 . S
O51 C44 1.267 . S
C52 O53 1.136 1_455 S
C52 O59 1.204 . S
O53 C52 1.136 1_655 S
O54 Zn55 1.899 1_655 S
O54 C62 1.284 . S
Zn55 O54 1.899 1_455 S
Zn55 O56 2.032 . S
Zn55 O59 2.086 . S
Zn55 O64 1.977 . S
O56 Zn55 2.032 . S
O56 C60 1.278 . S
C57 O58 1.203 . S
C57 O64 1.267 1_545 S
O58 C57 1.203 . S
O59 C52 1.204 . S
O59 Zn55 2.086 . S
C60 O56 1.278 . S
C60 O61 1.211 1_565 S
O61 C60 1.211 1_545 S
C62 O54 1.284 . S
C62 O63 1.273 1_565 S
O63 C62 1.273 1_545 S
O64 Zn55 1.977 . S
O64 C57 1.267 1_565 S
C65 O66 1.160 . S
C65 O72 1.185 . S
O66 C65 1.160 . S
O67 Zn68 1.899 . S
O67 C75 1.284 . S
Zn68 O67 1.899 . S
Zn68 O69 2.032 . S
Zn68 O72 2.086 . S
Zn68 O77 1.977 . S
O69 Zn68 2.032 . S
O69 C73 1.278 . S
C70 O71 1.203 . S
C70 O77 1.267 . S
O71 C70 1.203 . S
O72 C65 1.185 . S
O72 Zn68 2.086 . S
C73 O69 1.278 . S
C73 O74 1.211 . S
O74 C73 1.211 . S
C75 O67 1.284 . S
C75 O76 1.273 . S
O76 C75 1.273 . S
O77 Zn68 1.977 . S
O77 C70 1.267 . S
C78 O79 1.160 . S
C78 O85 1.185 . S
O79 C78 1.160 . S
O80 Zn81 1.899 . S
O80 C88 1.284 . S
Zn81 O80 1.899 . S
Zn81 O82 2.032 . S
Zn81 O85 2.086 . S
Zn81 O90 1.977 . S
O82 Zn81 2.032 . S
O82 C86 1.278 . S
C83 O84 1.203 . S
C83 O90 1.267 1_565 S
O84 C83 1.203 . S
O85 C78 1.185 . S
O85 Zn81 2.086 . S
C86 O82 1.278 . S
C86 O87 1.211 1_545 S
O87 C86 1.211 1_565 S
C88 O80 1.284 . S
C88 O89 1.273 1_545 S
O89 C88 1.273 1_565 S
O90 Zn81 1.977 . S
O90 C83 1.267 1_545 S
C91 O92 1.160 . S
C91 O98 1.185 . S
O92 C91 1.160 . S
O93 Zn94 1.899 . S
O93 C101 1.284 . S
Zn94 O93 1.899 . S
Zn94 O95 2.032 . S
Zn94 O98 2.086 . S
Zn94 O103 1.977 . S
O95 Zn94 2.032 . S
O95 C99 1.278 . S
C96 O97 1.203 . S
C96 O103 1.267 . S
O97 C96 1.203 . S
O98 C91 1.185 . S
O98 Zn94 2.086 . S
C99 O95 1.278 . S
C99 O100 1.211 . S
O100 C99 1.211 . S
C101 O93 1.284 . S
C101 O102 1.273 . S
O102 C101 1.273 . S
O103 Zn94 1.977 . S
O103 C96 1.267 . S
C104 O105 1.160 . S
C104 O111 1.185 . S
O105 C104 1.160 . S
O106 Zn107 1.899 . S
O106 C114 1.284 . S
Zn107 O106 1.899 . S
Zn107 O108 2.032 . S
Zn107 O111 2.086 . S
Zn107 O116 1.977 . S
O108 Zn107 2.032 . S
O108 C112 1.278 . S
C109 O110 1.203 . S
C109 O116 1.267 . S
O110 C109 1.203 . S
O111 C104 1.185 . S
O111 Zn107 2.086 . S
C112 O108 1.278 . S
C112 O113 1.211 . S
O113 C112 1.211 . S
C114 O106 1.284 . S
C114 O115 1.273 . S
O115 C114 1.273 . S
O116 Zn107 1.977 . S
O116 C109 1.267 . S
C117 O118 1.160 . S
C117 O124 1.185 . S
O118 C117 1.160 . S
O119 Zn120 1.899 . S
O119 C127 1.284 . S
Zn120 O119 1.899 . S
Zn120 O121 2.032 . S
Zn120 O124 2.086 . S
Zn120 O129 1.977 . S
O121 Zn120 2.032 . S
O121 C125 1.278 . S
C122 O123 1.203 . S
C122 O129 1.267 . S
O123 C122 1.203 . S
O124 C117 1.185 . S
O124 Zn120 2.086 . S
C125 O121 1.278 . S
C125 O126 1.211 . S
O126 C125 1.211 . S
C127 O119 1.284 . S
C127 O128 1.273 . S
O128 C127 1.273 . S
O129 Zn120 1.977 . S
O129 C122 1.267 . S
C130 O131 1.160 . S
C130 O137 1.185 . S
O131 C130 1.160 . S
O132 Zn133 1.899 . S
O132 C140 1.284 . S
Zn133 O132 1.899 . S
Zn133 O134 2.032 . S
Zn133 O137 2.086 . S
Zn133 O142 1.977 . S
O134 Zn133 2.032 . S
O134 C138 1.278 . S
C135 O136 1.203 . S
C135 O142 1.267 . S
O136 C135 1.203 . S
O137 C130 1.185 . S
O137 Zn133 2.086 . S
C138 O134 1.278 . S
C138 O139 1.211 . S
O139 C138 1.211 . S
C140 O132 1.284 . S
C140 O141 1.273 . S
O141 C140 1.273 . S
O142 Zn133 1.977 . S
O142 C135 1.267 . S
C143 O144 1.160 . S
C143 O150 1.185 . S
O144 C143 1.160 . S
O145 Zn146 1.899 . S
O145 C153 1.284 . S
Zn146 O145 1.899 . S
Zn146 O147 2.032 . S
Zn146 O150 2.086 . S
Zn146 O155 1.977 . S
O147 Zn146 2.032 . S
O147 C151 1.278 . S
C148 O149 1.203 . S
C148 O155 1.267 . S
O149 C148 1.203 . S
O150 C143 1.185 . S
O150 Zn146 2.086 . S
C151 O147 1.278 . S
C151 O152 1.211 . S
O152 C151 1.211 . S
C153 O145 1.284 . S
C153 O154 1.273 . S
O154 C153 1.273 . S
O155 Zn146 1.977 . S
O155 C148 1.267 . S
C156 O157 1.160 . S
C156 O163 1.185 . S
O157 C156 1.160 . S
O158 Zn159 1.899 . S
O158 C166 1.284 . S
Zn159 O158 1.899 . S
Zn159 O160 2.032 . S
Zn159 O163 2.086 . S
Zn159 O168 1.977 . S
O160 Zn159 2.032 . S
O160 C164 1.278 . S
C161 O162 1.203 . S
C161 O168 1.267 . S
O162 C161 1.203 . S
O163 C156 1.185 . S
O163 Zn159 2.086 . S
C164 O160 1.278 . S
C164 O165 1.211 . S
O165 C164 1.211 . S
C166 O158 1.284 . S
C166 O167 1.273 . S
O167 C166 1.273 . S
O168 Zn159 1.977 . S
O168 C161 1.267 . S
C169 O170 1.160 . S
C169 O176 1.185 . S
O170 C169 1.160 . S
O171 Zn172 1.899 . S
O171 C179 1.284 . S
Zn172 O171 1.899 . S
Zn172 O173 2.032 . S
Zn172 O176 2.086 . S
Zn172 O181 1.977 1_455 S
O173 Zn172 2.032 . S
O173 C177 1.278 . S
C174 O175 1.203 . S
C174 O181 1.267 . S
O175 C174 1.203 . S
O176 C169 1.185 . S
O176 Zn172 2.086 . S
C177 O173 1.278 . S
C177 O178 1.208 1_455 S
O178 C177 1.208 1_655 S
C179 O171 1.284 . S
C179 O180 1.273 . S
O180 C179 1.273 . S
O181 Zn172 1.977 1_655 S
O181 C174 1.267 . S
C182 O183 1.160 . S
C182 O189 1.185 . S
O183 C182 1.160 . S
O184 Zn185 1.899 . S
O184 C192 1.284 . S
Zn185 O184 1.899 . S
Zn185 O186 2.032 . S
Zn185 O189 2.086 . S
Zn185 O194 1.977 . S
O186 Zn185 2.032 . S
O186 C190 1.278 . S
C187 O188 1.203 . S
C187 O194 1.267 . S
O188 C187 1.203 . S
O189 C182 1.185 . S
O189 Zn185 2.086 . S
C190 O186 1.278 . S
C190 O191 1.211 . S
O191 C190 1.211 . S
C192 O184 1.284 . S
C192 O193 1.273 . S
O193 C192 1.273 . S
O194 Zn185 1.977 . S
O194 C187 1.267 . S
C195 O196 1.160 . S
C195 O202 1.185 . S
O196 C195 1.160 . S
O197 Zn198 1.899 . S
O197 C205 1.284 . S
Zn198 O197 1.899 . S
Zn198 O199 2.032 . S
Zn198 O202 2.086 . S
Zn198 O207 1.977 1_455 S
O199 Zn198 2.032 . S
O199 C203 1.278 . S
C200 O201 1.203 . S
C200 O207 1.267 . S
O201 C200 1.203 . S
O202 C195 1.185 . S
O202 Zn198 2.086 . S
C203 O199 1.278 . S
C203 O204 1.208 1_455 S
O204 C203 1.208 1_655 S
C205 O197 1.284 . S
C205 O206 1.273 . S
O206 C205 1.273 . S
O207 Zn198 1.977 1_655 S
O207 C200 1.267 . S
C208 C209 1.349 1_655 S
C208 C210 1.327 . S
C208 H233 0.950 . S
C209 C208 1.349 1_455 S
C209 C225 1.349 . S
C210 C208 1.327 . S
C210 C229 1.429 1_655 S
C210 H234 0.950 . S
C211 C228 1.574 . S
C211 C230 1.368 . S
C211 H235 0.949 . S
H212 C216 0.949 . S
C213 C214 1.349 . S
C213 C215 1.327 . S
C213 H236 0.950 . S
C214 C213 1.349 . S
C214 C226 1.349 . S
C215 C213 1.327 . S
C215 C231 1.429 . S
C215 H237 0.950 . S
C216 H212 0.949 . S
C216 C224 1.574 . S
C216 C232 1.368 1_655 S
H217 C225 0.950 . S
H218 C223 0.950 . S
H219 C224 0.949 . S
H220 C226 0.950 1_655 S
H221 C227 0.936 1_655 S
H222 C228 0.949 . S
C223 H218 0.950 . S
C223 C225 1.327 . S
C223 C229 1.429 . S
C224 C216 1.574 . S
C224 H219 0.949 . S
C224 C230 1.368 1_655 S
C225 C209 1.349 . S
C225 H217 0.950 . S
C225 C223 1.327 . S
C226 C214 1.349 . S
C226 H220 0.950 1_455 S
C226 C227 1.329 . S
C227 H221 0.936 1_455 S
C227 C226 1.329 . S
C227 C231 1.440 . S
C228 C211 1.574 . S
C228 H222 0.949 . S
C228 C232 1.368 . S
C229 C210 1.429 1_455 S
C229 C223 1.429 . S
C229 C230 1.523 . S
C230 C211 1.368 . S
C230 C224 1.368 1_455 S
C230 C229 1.523 . S
C231 C215 1.429 . S
C231 C227 1.440 . S
C231 C232 1.523 . S
C232 C216 1.368 1_455 S
C232 C228 1.368 . S
C232 C231 1.523 . S
H233 C208 0.950 . S
H234 C210 0.950 . S
H235 C211 0.949 . S
H236 C213 0.950 . S
H237 C215 0.950 . S
C238 C239 1.349 . S
C238 C240 1.327 . S
C238 H263 0.950 . S
C239 C238 1.349 . S
C239 C255 1.349 . S
C240 C238 1.327 . S
C240 C259 1.429 . S
C240 H264 0.950 . S
C241 C258 1.574 1_655 S
C241 C260 1.368 . S
C241 H265 0.949 . S
H242 C246 0.949 . S
C243 C244 1.349 . S
C243 C245 1.327 . S
C243 H266 0.950 . S
C244 C243 1.349 . S
C244 C256 1.349 . S
C245 C243 1.327 . S
C245 C261 1.429 . S
C245 H267 0.950 . S
C246 H242 0.949 . S
C246 C254 1.574 1_455 S
C246 C262 1.368 . S
H247 C255 0.950 . S
H248 C253 0.950 . S
H249 C254 0.949 . S
H250 C256 0.950 . S
H251 C257 0.950 . S
H252 C258 0.949 . S
C253 H248 0.950 . S
C253 C255 1.327 . S
C253 C259 1.429 . S
C254 C246 1.574 1_655 S
C254 H249 0.949 . S
C254 C260 1.368 . S
C255 C239 1.349 . S
C255 H247 0.950 . S
C255 C253 1.327 . S
C256 C244 1.349 . S
C256 H250 0.950 . S
C256 C257 1.327 . S
C257 H251 0.950 . S
C257 C256 1.327 . S
C257 C261 1.429 . S
C258 C241 1.574 1_455 S
C258 H252 0.949 . S
C258 C262 1.368 . S
C259 C240 1.429 . S
C259 C253 1.429 . S
C259 C260 1.523 . S
C260 C241 1.368 . S
C260 C254 1.368 . S
C260 C259 1.523 . S
C261 C245 1.429 . S
C261 C257 1.429 . S
C261 C262 1.523 . S
C262 C246 1.368 . S
C262 C258 1.368 . S
C262 C261 1.523 . S
H263 C238 0.950 . S
H264 C240 0.950 . S
H265 C241 0.949 . S
H266 C243 0.950 . S
H267 C245 0.950 . S
C268 C269 1.349 . S
C268 C270 1.327 . S
C268 H293 0.950 . S
C269 C268 1.349 . S
C269 C285 1.349 . S
C270 C268 1.327 . S
C270 C289 1.429 . S
C270 H294 0.950 . S
C271 C288 1.574 . S
C271 C290 1.368 . S
C271 H295 0.949 . S
H272 C276 0.949 . S
C273 C274 1.349 . S
C273 C275 1.327 . S
C273 H296 0.950 . S
C274 C273 1.349 . S
C274 C286 1.349 . S
C275 C273 1.327 . S
C275 C291 1.429 . S
C275 H297 0.950 . S
C276 H272 0.949 . S
C276 C284 1.574 . S
C276 C292 1.368 . S
H277 C285 0.950 . S
H278 C283 0.950 . S
H279 C284 0.949 . S
H280 C286 0.950 . S
H281 C287 0.950 . S
H282 C288 0.949 . S
C283 H278 0.950 . S
C283 C285 1.327 . S
C283 C289 1.429 . S
C284 C276 1.574 . S
C284 H279 0.949 . S
C284 C290 1.368 . S
C285 C269 1.349 . S
C285 H277 0.950 . S
C285 C283 1.327 . S
C286 C274 1.349 . S
C286 H280 0.950 . S
C286 C287 1.327 . S
C287 H281 0.950 . S
C287 C286 1.327 . S
C287 C291 1.429 . S
C288 C271 1.574 . S
C288 H282 0.949 . S
C288 C292 1.368 . S
C289 C270 1.429 . S
C289 C283 1.429 . S
C289 C290 1.523 . S
C290 C271 1.368 . S
C290 C284 1.368 . S
C290 C289 1.523 . S
C291 C275 1.429 . S
C291 C287 1.429 . S
C291 C292 1.523 . S
C292 C276 1.368 . S
C292 C288 1.368 . S
C292 C291 1.523 . S
H293 C268 0.950 . S
H294 C270 0.950 . S
H295 C271 0.949 . S
H296 C273 0.950 . S
H297 C275 0.950 . S
C298 C299 1.349 . S
C298 C300 1.327 . S
C298 H323 0.950 . S
C299 C298 1.349 . S
C299 C315 1.349 . S
C300 C298 1.327 . S
C300 C319 1.429 . S
C300 H324 0.950 . S
C301 C318 1.574 . S
C301 C320 1.368 . S
C301 H325 0.949 . S
H302 C306 0.949 . S
C303 C304 1.349 . S
C303 C305 1.327 . S
C303 H326 0.950 . S
C304 C303 1.349 . S
C304 C316 1.349 . S
C305 C303 1.327 . S
C305 C321 1.429 . S
C305 H327 0.950 . S
C306 H302 0.949 . S
C306 C314 1.574 . S
C306 C322 1.368 . S
H307 C315 0.950 . S
H308 C313 0.950 . S
H309 C314 0.949 . S
H310 C316 0.950 . S
H311 C317 0.950 . S
H312 C318 0.949 . S
C313 H308 0.950 . S
C313 C315 1.327 . S
C313 C319 1.429 . S
C314 C306 1.574 . S
C314 H309 0.949 . S
C314 C320 1.368 . S
C315 C299 1.349 . S
C315 H307 0.950 . S
C315 C313 1.327 . S
C316 C304 1.349 . S
C316 H310 0.950 . S
C316 C317 1.327 . S
C317 H311 0.950 . S
C317 C316 1.327 . S
C317 C321 1.429 . S
C318 C301 1.574 . S
C318 H312 0.949 . S
C318 C322 1.368 . S
C319 C300 1.429 . S
C319 C313 1.429 . S
C319 C320 1.523 . S
C320 C301 1.368 . S
C320 C314 1.368 . S
C320 C319 1.523 . S
C321 C305 1.429 . S
C321 C317 1.429 . S
C321 C322 1.523 . S
C322 C306 1.368 . S
C322 C318 1.368 . S
C322 C321 1.523 . S
H323 C298 0.950 . S
H324 C300 0.950 . S
H325 C301 0.949 . S
H326 C303 0.950 . S
H327 C305 0.950 . S
C328 C329 1.349 1_655 S
C328 C330 1.327 . S
C328 H353 0.950 . S
C329 C328 1.349 1_455 S
C329 C345 1.349 . S
C330 C328 1.327 . S
C330 C349 1.429 1_655 S
C330 H354 0.950 . S
C331 C348 1.574 . S
C331 C350 1.368 . S
C331 H355 0.949 . S
H332 C336 0.949 . S
C333 C334 1.349 . S
C333 C335 1.327 . S
C333 H356 0.950 . S
C334 C333 1.349 . S
C334 C346 1.349 . S
C335 C333 1.327 . S
C335 C351 1.429 . S
C335 H357 0.950 . S
C336 H332 0.949 . S
C336 C344 1.574 . S
C336 C352 1.368 1_655 S
H337 C345 0.950 . S
H338 C343 0.950 . S
H339 C344 0.949 . S
H340 C346 0.950 1_655 S
H341 C347 0.936 1_655 S
H342 C348 0.949 . S
C343 H338 0.950 . S
C343 C345 1.327 . S
C343 C349 1.429 . S
C344 C336 1.574 . S
C344 H339 0.949 . S
C344 C350 1.368 1_655 S
C345 C329 1.349 . S
C345 H337 0.950 . S
C345 C343 1.327 . S
C346 C334 1.349 . S
C346 H340 0.950 1_455 S
C346 C347 1.329 . S
C347 H341 0.936 1_455 S
C347 C346 1.329 . S
C347 C351 1.440 . S
C348 C331 1.574 . S
C348 H342 0.949 . S
C348 C352 1.368 . S
C349 C330 1.429 1_455 S
C349 C343 1.429 . S
C349 C350 1.523 . S
C350 C331 1.368 . S
C350 C344 1.368 1_455 S
C350 C349 1.523 . S
C351 C335 1.429 . S
C351 C347 1.440 . S
C351 C352 1.523 . S
C352 C336 1.368 1_455 S
C352 C348 1.368 . S
C352 C351 1.523 . S
H353 C328 0.950 . S
H354 C330 0.950 . S
H355 C331 0.949 . S
H356 C333 0.950 . S
H357 C335 0.950 . S
C358 C359 1.349 . S
C358 C360 1.327 . S
C358 H383 0.950 . S
C359 C358 1.349 . S
C359 C375 1.349 . S
C360 C358 1.327 . S
C360 C379 1.429 . S
C360 H384 0.950 . S
C361 C378 1.574 . S
C361 C380 1.368 . S
C361 H385 0.949 . S
H362 C366 0.949 . S
C363 C364 1.349 . S
C363 C365 1.327 . S
C363 H386 0.950 . S
C364 C363 1.349 . S
C364 C376 1.349 . S
C365 C363 1.327 . S
C365 C381 1.429 . S
C365 H387 0.950 . S
C366 H362 0.949 . S
C366 C374 1.574 . S
C366 C382 1.368 . S
H367 C375 0.950 . S
H368 C373 0.950 . S
H369 C374 0.949 . S
H370 C376 0.950 . S
H371 C377 0.950 . S
H372 C378 0.949 . S
C373 H368 0.950 . S
C373 C375 1.327 . S
C373 C379 1.429 . S
C374 C366 1.574 . S
C374 H369 0.949 . S
C374 C380 1.368 . S
C375 C359 1.349 . S
C375 H367 0.950 . S
C375 C373 1.327 . S
C376 C364 1.349 . S
C376 H370 0.950 . S
C376 C377 1.327 . S
C377 H371 0.950 . S
C377 C376 1.327 . S
C377 C381 1.429 . S
C378 C361 1.574 . S
C378 H372 0.949 . S
C378 C382 1.368 . S
C379 C360 1.429 . S
C379 C373 1.429 . S
C379 C380 1.523 . S
C380 C361 1.368 . S
C380 C374 1.368 . S
C380 C379 1.523 . S
C381 C365 1.429 . S
C381 C377 1.429 . S
C381 C382 1.523 . S
C382 C366 1.368 . S
C382 C378 1.368 . S
C382 C381 1.523 . S
H383 C358 0.950 . S
H384 C360 0.950 . S
H385 C361 0.949 . S
H386 C363 0.950 . S
H387 C365 0.950 . S
C388 C389 1.349 . S
C388 C390 1.327 . S
C388 H413 0.950 . S
C389 C388 1.349 . S
C389 C405 1.349 . S
C390 C388 1.327 . S
C390 C409 1.429 . S
C390 H414 0.950 . S
C391 C408 1.574 . S
C391 C410 1.368 . S
C391 H415 0.949 . S
H392 C396 0.949 . S
C393 C394 1.349 . S
C393 C395 1.327 . S
C393 H416 0.950 . S
C394 C393 1.349 . S
C394 C406 1.349 . S
C395 C393 1.327 . S
C395 C411 1.429 . S
C395 H417 0.950 . S
C396 H392 0.949 . S
C396 C404 1.574 . S
C396 C412 1.368 . S
H397 C405 0.950 . S
H398 C403 0.950 . S
H399 C404 0.949 . S
H400 C406 0.950 . S
H401 C407 0.950 . S
H402 C408 0.949 . S
C403 H398 0.950 . S
C403 C405 1.327 . S
C403 C409 1.429 . S
C404 C396 1.574 . S
C404 H399 0.949 . S
C404 C410 1.368 . S
C405 C389 1.349 . S
C405 H397 0.950 . S
C405 C403 1.327 . S
C406 C394 1.349 . S
C406 H400 0.950 . S
C406 C407 1.327 . S
C407 H401 0.950 . S
C407 C406 1.327 . S
C407 C411 1.429 . S
C408 C391 1.574 . S
C408 H402 0.949 . S
C408 C412 1.368 . S
C409 C390 1.429 . S
C409 C403 1.429 . S
C409 C410 1.523 . S
C410 C391 1.368 . S
C410 C404 1.368 . S
C410 C409 1.523 . S
C411 C395 1.429 . S
C411 C407 1.429 . S
C411 C412 1.523 . S
C412 C396 1.368 . S
C412 C408 1.368 . S
C412 C411 1.523 . S
H413 C388 0.950 . S
H414 C390 0.950 . S
H415 C391 0.949 . S
H416 C393 0.950 . S
H417 C395 0.950 . S
C418 C419 1.349 . S
C418 C420 1.327 . S
C418 H443 0.950 . S
C419 C418 1.349 . S
C419 C435 1.349 . S
C420 C418 1.327 . S
C420 C439 1.429 . S
C420 H444 0.950 . S
C421 C438 1.574 1_455 S
C421 C440 1.368 . S
C421 H445 0.949 . S
H422 C426 0.949 . S
C423 C424 1.349 . S
C423 C425 1.327 . S
C423 H446 0.950 . S
C424 C423 1.349 . S
C424 C436 1.349 . S
C425 C423 1.327 . S
C425 C441 1.429 . S
C425 H447 0.950 . S
C426 H422 0.949 . S
C426 C434 1.574 1_655 S
C426 C442 1.368 . S
H427 C435 0.950 . S
H428 C433 0.950 . S
H429 C434 0.949 . S
H430 C436 0.950 . S
H431 C437 0.950 . S
H432 C438 0.949 . S
C433 H428 0.950 . S
C433 C435 1.327 . S
C433 C439 1.429 . S
C434 C426 1.574 1_455 S
C434 H429 0.949 . S
C434 C440 1.368 . S
C435 C419 1.349 . S
C435 H427 0.950 . S
C435 C433 1.327 . S
C436 C424 1.349 . S
C436 H430 0.950 . S
C436 C437 1.327 . S
C437 H431 0.950 . S
C437 C436 1.327 . S
C437 C441 1.429 . S
C438 C421 1.574 1_655 S
C438 H432 0.949 . S
C438 C442 1.368 . S
C439 C420 1.429 . S
C439 C433 1.429 . S
C439 C440 1.523 . S
C440 C421 1.368 . S
C440 C434 1.368 . S
C440 C439 1.523 . S
C441 C425 1.429 . S
C441 C437 1.429 . S
C441 C442 1.523 . S
C442 C426 1.368 . S
C442 C438 1.368 . S
C442 C441 1.523 . S
H443 C418 0.950 . S
H444 C420 0.950 . S
H445 C421 0.949 . S
H446 C423 0.950 . S
H447 C425 0.950 . S
C448 C449 1.349 1_645 S
C448 C450 1.327 . S
C448 H473 0.950 . S
C449 C448 1.349 1_465 S
C449 C465 1.349 . S
C450 C448 1.327 . S
C450 C469 1.429 1_645 S
C450 H474 0.950 . S
C451 C468 1.574 . S
C451 C470 1.368 . S
C451 H475 0.949 . S
H452 C456 0.949 . S
C453 C454 1.349 1_565 S
C453 C455 1.327 . S
C453 H476 0.950 . S
C454 C453 1.349 1_545 S
C454 C466 1.349 1_455 S
C455 C453 1.327 . S
C455 C471 1.429 1_565 S
C455 H477 0.950 . S
C456 H452 0.949 . S
C456 C464 1.574 . S
C456 C472 1.368 1_655 S
H457 C465 0.950 . S
H458 C463 0.950 . S
H459 C464 0.949 . S
H460 C466 0.950 . S
H461 C467 0.950 . S
H462 C468 0.949 . S
C463 H458 0.950 . S
C463 C465 1.327 . S
C463 C469 1.429 . S
C464 C456 1.574 . S
C464 H459 0.949 . S
C464 C470 1.368 1_645 S
C465 C449 1.349 . S
C465 H457 0.950 . S
C465 C463 1.327 . S
C466 C454 1.349 1_655 S
C466 H460 0.950 . S
C466 C467 1.327 . S
C467 H461 0.950 . S
C467 C466 1.327 . S
C467 C471 1.429 1_655 S
C468 C451 1.574 . S
C468 H462 0.949 . S
C468 C472 1.368 1_565 S
C469 C450 1.429 1_465 S
C469 C463 1.429 . S
C469 C470 1.523 . S
C470 C451 1.368 . S
C470 C464 1.368 1_465 S
C470 C469 1.523 . S
C471 C455 1.429 1_545 S
C471 C467 1.429 1_455 S
C471 C472 1.523 . S
C472 C456 1.368 1_455 S
C472 C468 1.368 1_545 S
C472 C471 1.523 . S
H473 C448 0.950 . S
H474 C450 0.950 . S
H475 C451 0.949 . S
H476 C453 0.950 . S
H477 C455 0.950 . S
C478 C479 1.349 . S
C478 C480 1.327 . S
C478 H503 0.950 . S
C479 C478 1.349 . S
C479 C495 1.349 . S
C480 C478 1.327 . S
C480 C499 1.429 . S
C480 H504 0.950 . S
C481 C498 1.574 . S
C481 C500 1.368 . S
C481 H505 0.949 . S
H482 C486 0.949 . S
C483 C484 1.349 . S
C483 C485 1.327 . S
C483 H506 0.950 . S
C484 C483 1.349 . S
C484 C496 1.349 . S
C485 C483 1.327 . S
C485 C501 1.429 . S
C485 H507 0.950 . S
C486 H482 0.949 . S
C486 C494 1.574 . S
C486 C502 1.368 . S
H487 C495 0.950 . S
H488 C493 0.950 . S
H489 C494 0.949 . S
H490 C496 0.950 . S
H491 C497 0.950 . S
H492 C498 0.949 . S
C493 H488 0.950 . S
C493 C495 1.327 . S
C493 C499 1.429 . S
C494 C486 1.574 . S
C494 H489 0.949 . S
C494 C500 1.368 . S
C495 C479 1.349 . S
C495 H487 0.950 . S
C495 C493 1.327 . S
C496 C484 1.349 . S
C496 H490 0.950 . S
C496 C497 1.327 . S
C497 H491 0.950 . S
C497 C496 1.327 . S
C497 C501 1.429 . S
C498 C481 1.574 . S
C498 H492 0.949 . S
C498 C502 1.368 . S
C499 C480 1.429 . S
C499 C493 1.429 . S
C499 C500 1.523 . S
C500 C481 1.368 . S
C500 C494 1.368 . S
C500 C499 1.523 . S
C501 C485 1.429 . S
C501 C497 1.429 . S
C501 C502 1.523 . S
C502 C486 1.368 . S
C502 C498 1.368 . S
C502 C501 1.523 . S
H503 C478 0.950 . S
H504 C480 0.950 . S
H505 C481 0.949 . S
H506 C483 0.950 . S
H507 C485 0.950 . S
C508 C509 1.349 . S
C508 C510 1.327 . S
C508 H533 0.950 . S
C509 C508 1.349 . S
C509 C525 1.349 1_565 S
C510 C508 1.327 . S
C510 C529 1.429 . S
C510 H534 0.950 . S
C511 C528 1.574 1_554 S
C511 C530 1.368 1_545 S
C511 H535 0.949 . S
H512 C516 0.949 . S
C513 C514 1.349 . S
C513 C515 1.327 . S
C513 H536 0.950 . S
C514 C513 1.349 . S
C514 C526 1.349 1_545 S
C515 C513 1.327 . S
C515 C531 1.429 . S
C515 H537 0.950 . S
C516 H512 0.949 . S
C516 C524 1.574 1_556 S
C516 C532 1.368 1_565 S
H517 C525 0.950 . S
H518 C523 0.950 . S
H519 C524 0.949 . S
H520 C526 0.950 . S
H521 C527 0.950 . S
H522 C528 0.949 . S
C523 H518 0.950 . S
C523 C525 1.327 . S
C523 C529 1.429 1_545 S
C524 C516 1.574 1_554 S
C524 H519 0.949 . S
C524 C530 1.368 . S
C525 C509 1.349 1_545 S
C525 H517 0.950 . S
C525 C523 1.327 . S
C526 C514 1.349 1_565 S
C526 H520 0.950 . S
C526 C527 1.327 . S
C527 H521 0.950 . S
C527 C526 1.327 . S
C527 C531 1.429 1_565 S
C528 C511 1.574 1_556 S
C528 H522 0.949 . S
C528 C532 1.368 . S
C529 C510 1.429 . S
C529 C523 1.429 1_565 S
C529 C530 1.523 . S
C530 C511 1.368 1_565 S
C530 C524 1.368 . S
C530 C529 1.523 . S
C531 C515 1.429 . S
C531 C527 1.429 1_545 S
C531 C532 1.523 . S
C532 C516 1.368 1_545 S
C532 C528 1.368 . S
C532 C531 1.523 . S
H533 C508 0.950 . S
H534 C510 0.950 . S
H535 C511 0.949 . S
H536 C513 0.950 . S
H537 C515 0.950 . S
C538 C539 1.349 . S
C538 C540 1.327 . S
C538 H563 0.950 . S
C539 C538 1.349 . S
C539 C555 1.349 . S
C540 C538 1.327 . S
C540 C559 1.429 . S
C540 H564 0.950 . S
C541 C558 1.574 . S
C541 C560 1.368 . S
C541 H565 0.949 . S
H542 C546 0.949 . S
C543 C544 1.349 . S
C543 C545 1.327 . S
C543 H566 0.950 . S
C544 C543 1.349 . S
C544 C556 1.349 . S
C545 C543 1.327 . S
C545 C561 1.429 . S
C545 H567 0.950 . S
C546 H542 0.949 . S
C546 C554 1.574 . S
C546 C562 1.368 . S
H547 C555 0.950 . S
H548 C553 0.950 . S
H549 C554 0.949 . S
H550 C556 0.950 . S
H551 C557 0.950 . S
H552 C558 0.949 . S
C553 H548 0.950 . S
C553 C555 1.327 . S
C553 C559 1.429 . S
C554 C546 1.574 . S
C554 H549 0.949 . S
C554 C560 1.368 . S
C555 C539 1.349 . S
C555 H547 0.950 . S
C555 C553 1.327 . S
C556 C544 1.349 . S
C556 H550 0.950 . S
C556 C557 1.327 . S
C557 H551 0.950 . S
C557 C556 1.327 . S
C557 C561 1.429 . S
C558 C541 1.574 . S
C558 H552 0.949 . S
C558 C562 1.368 . S
C559 C540 1.429 . S
C559 C553 1.429 . S
C559 C560 1.523 . S
C560 C541 1.368 . S
C560 C554 1.368 . S
C560 C559 1.523 . S
C561 C545 1.429 . S
C561 C557 1.429 . S
C561 C562 1.523 . S
C562 C546 1.368 . S
C562 C558 1.368 . S
C562 C561 1.523 . S
H563 C538 0.950 . S
H564 C540 0.950 . S
H565 C541 0.949 . S
H566 C543 0.950 . S
H567 C545 0.950 . S
C568 C569 1.349 . S
C568 C570 1.327 . S
C568 H593 0.950 . S
C569 C568 1.349 . S
C569 C585 1.349 . S
C570 C568 1.327 . S
C570 C589 1.429 . S
C570 H594 0.950 . S
C571 C588 1.574 . S
C571 C590 1.368 . S
C571 H595 0.949 . S
H572 C576 0.949 . S
C573 C574 1.349 . S
C573 C575 1.327 . S
C573 H596 0.950 . S
C574 C573 1.349 . S
C574 C586 1.349 . S
C575 C573 1.327 . S
C575 C591 1.429 . S
C575 H597 0.950 . S
C576 H572 0.949 . S
C576 C584 1.574 . S
C576 C592 1.368 . S
H577 C585 0.950 . S
H578 C583 0.950 . S
H579 C584 0.949 . S
H580 C586 0.950 . S
H581 C587 0.950 . S
H582 C588 0.949 . S
C583 H578 0.950 . S
C583 C585 1.327 . S
C583 C589 1.429 . S
C584 C576 1.574 . S
C584 H579 0.949 . S
C584 C590 1.368 . S
C585 C569 1.349 . S
C585 H577 0.950 . S
C585 C583 1.327 . S
C586 C574 1.349 . S
C586 H580 0.950 . S
C586 C587 1.327 . S
C587 H581 0.950 . S
C587 C586 1.327 . S
C587 C591 1.429 . S
C588 C571 1.574 . S
C588 H582 0.949 . S
C588 C592 1.368 . S
C589 C570 1.429 . S
C589 C583 1.429 . S
C589 C590 1.523 . S
C590 C571 1.368 . S
C590 C584 1.368 . S
C590 C589 1.523 . S
C591 C575 1.429 . S
C591 C587 1.429 . S
C591 C592 1.523 . S
C592 C576 1.368 . S
C592 C588 1.368 . S
C592 C591 1.523 . S
H593 C568 0.950 . S
H594 C570 0.950 . S
H595 C571 0.949 . S
H596 C573 0.950 . S
H597 C575 0.950 . S
C598 C599 1.349 . S
C598 C600 1.327 . S
C598 H623 0.950 . S
C599 C598 1.349 . S
C599 C615 1.349 . S
C600 C598 1.327 . S
C600 C619 1.429 . S
C600 H624 0.950 . S
C601 C618 1.574 . S
C601 C620 1.368 . S
C601 H625 0.949 . S
H602 C606 0.949 . S
C603 C604 1.349 . S
C603 C605 1.327 . S
C603 H626 0.950 . S
C604 C603 1.349 . S
C604 C616 1.349 . S
C605 C603 1.327 . S
C605 C621 1.429 . S
C605 H627 0.950 . S
C606 H602 0.949 . S
C606 C614 1.574 . S
C606 C622 1.368 . S
H607 C615 0.950 . S
H608 C613 0.950 . S
H609 C614 0.949 . S
H610 C616 0.950 . S
H611 C617 0.950 . S
H612 C618 0.949 . S
C613 H608 0.950 . S
C613 C615 1.327 . S
C613 C619 1.429 . S
C614 C606 1.574 . S
C614 H609 0.949 . S
C614 C620 1.368 . S
C615 C599 1.349 . S
C615 H607 0.950 . S
C615 C613 1.327 . S
C616 C604 1.349 . S
C616 H610 0.950 . S
C616 C617 1.327 . S
C617 H611 0.950 . S
C617 C616 1.327 . S
C617 C621 1.429 . S
C618 C601 1.574 . S
C618 H612 0.949 . S
C618 C622 1.368 . S
C619 C600 1.429 . S
C619 C613 1.429 . S
C619 C620 1.523 . S
C620 C601 1.368 . S
C620 C614 1.368 . S
C620 C619 1.523 . S
C621 C605 1.429 . S
C621 C617 1.429 . S
C621 C622 1.523 . S
C622 C606 1.368 . S
C622 C618 1.368 . S
C622 C621 1.523 . S
H623 C598 0.950 . S
H624 C600 0.950 . S
H625 C601 0.949 . S
H626 C603 0.950 . S
H627 C605 0.950 . S
C628 C629 1.349 . S
C628 C630 1.327 . S
C628 H653 0.950 . S
C629 C628 1.349 . S
C629 C645 1.349 . S
C630 C628 1.327 . S
C630 C649 1.429 . S
C630 H654 0.950 . S
C631 C648 1.574 1_556 S
C631 C650 1.368 . S
C631 H655 0.949 . S
H632 C636 0.949 . S
C633 C634 1.349 . S
C633 C635 1.327 . S
C633 H656 0.950 . S
C634 C633 1.349 . S
C634 C646 1.349 . S
C635 C633 1.327 . S
C635 C651 1.429 . S
C635 H657 0.950 . S
C636 H632 0.949 . S
C636 C644 1.574 1_554 S
C636 C652 1.368 . S
H637 C645 0.950 . S
H638 C643 0.950 . S
H639 C644 0.949 . S
H640 C646 0.950 . S
H641 C647 0.950 . S
H642 C648 0.949 . S
C643 H638 0.950 . S
C643 C645 1.327 . S
C643 C649 1.429 . S
C644 C636 1.574 1_556 S
C644 H639 0.949 . S
C644 C650 1.368 . S
C645 C629 1.349 . S
C645 H637 0.950 . S
C645 C643 1.327 . S
C646 C634 1.349 . S
C646 H640 0.950 . S
C646 C647 1.327 . S
C647 H641 0.950 . S
C647 C646 1.327 . S
C647 C651 1.429 . S
C648 C631 1.574 1_554 S
C648 H642 0.949 . S
C648 C652 1.368 . S
C649 C630 1.429 . S
C649 C643 1.429 . S
C649 C650 1.523 . S
C650 C631 1.368 . S
C650 C644 1.368 . S
C650 C649 1.523 . S
C651 C635 1.429 . S
C651 C647 1.429 . S
C651 C652 1.523 . S
C652 C636 1.368 . S
C652 C648 1.368 . S
C652 C651 1.523 . S
H653 C628 0.950 . S
H654 C630 0.950 . S
H655 C631 0.949 . S
H656 C633 0.950 . S
H657 C635 0.950 . S
C658 C659 1.349 1_655 S
C658 C660 1.327 . S
C658 H683 0.950 . S
C659 C658 1.349 1_455 S
C659 C675 1.349 . S
C660 C658 1.327 . S
C660 C679 1.429 1_655 S
C660 H684 0.950 . S
C661 C678 1.574 . S
C661 C680 1.368 . S
C661 H685 0.949 . S
H662 C666 0.949 . S
C663 C664 1.349 . S
C663 C665 1.327 . S
C663 H686 0.950 . S
C664 C663 1.349 . S
C664 C676 1.349 1_455 S
C665 C663 1.327 . S
C665 C681 1.429 . S
C665 H687 0.950 . S
C666 H662 0.949 . S
C666 C674 1.574 . S
C666 C682 1.368 1_655 S
H667 C675 0.950 . S
H668 C673 0.950 . S
H669 C674 0.949 . S
H670 C676 0.950 . S
H671 C677 0.950 . S
H672 C678 0.949 . S
C673 H668 0.950 . S
C673 C675 1.327 . S
C673 C679 1.429 . S
C674 C666 1.574 . S
C674 H669 0.949 . S
C674 C680 1.368 1_655 S
C675 C659 1.349 . S
C675 H667 0.950 . S
C675 C673 1.327 . S
C676 C664 1.349 1_655 S
C676 H670 0.950 . S
C676 C677 1.327 . S
C677 H671 0.950 . S
C677 C676 1.327 . S
C677 C681 1.429 1_655 S
C678 C661 1.574 . S
C678 H672 0.949 . S
C678 C682 1.368 . S
C679 C660 1.429 1_455 S
C679 C673 1.429 . S
C679 C680 1.523 . S
C680 C661 1.368 . S
C680 C674 1.368 1_455 S
C680 C679 1.523 . S
C681 C665 1.429 . S
C681 C677 1.429 1_455 S
C681 C682 1.523 . S
C682 C666 1.368 1_455 S
C682 C678 1.368 . S
C682 C681 1.523 . S
H683 C658 0.950 . S
H684 C660 0.950 . S
H685 C661 0.949 . S
H686 C663 0.950 . S
H687 C665 0.950 . S
C688 C689 1.349 . S
C688 C690 1.327 . S
C688 H713 0.950 . S
C689 C688 1.349 . S
C689 C705 1.349 . S
C690 C688 1.327 . S
C690 C709 1.429 . S
C690 H714 0.950 . S
C691 C708 1.574 . S
C691 C710 1.368 . S
C691 H715 0.949 . S
H692 C696 0.949 . S
C693 C694 1.349 . S
C693 C695 1.327 . S
C693 H716 0.950 . S
C694 C693 1.349 . S
C694 C706 1.349 . S
C695 C693 1.327 . S
C695 C711 1.429 . S
C695 H717 0.950 . S
C696 H692 0.949 . S
C696 C704 1.574 . S
C696 C712 1.368 . S
H697 C705 0.950 . S
H698 C703 0.950 . S
H699 C704 0.949 . S
H700 C706 0.950 1_545 S
H701 C707 0.950 . S
H702 C708 0.949 . S
C703 H698 0.950 . S
C703 C705 1.327 . S
C703 C709 1.429 . S
C704 C696 1.574 . S
C704 H699 0.949 . S
C704 C710 1.368 . S
C705 C689 1.349 . S
C705 H697 0.950 . S
C705 C703 1.327 . S
C706 C694 1.349 . S
C706 H700 0.950 1_565 S
C706 C707 1.327 . S
C707 H701 0.950 . S
C707 C706 1.327 . S
C707 C711 1.429 . S
C708 C691 1.574 . S
C708 H702 0.949 . S
C708 C712 1.368 . S
C709 C690 1.429 . S
C709 C703 1.429 . S
C709 C710 1.523 . S
C710 C691 1.368 . S
C710 C704 1.368 . S
C710 C709 1.523 . S
C711 C695 1.429 . S
C711 C707 1.429 . S
C711 C712 1.523 . S
C712 C696 1.368 . S
C712 C708 1.368 . S
C712 C711 1.523 . S
H713 C688 0.950 . S
H714 C690 0.950 . S
H715 C691 0.949 . S
H716 C693 0.950 . S
H717 C695 0.950 . S
C718 C719 1.349 . S
C718 C720 1.327 . S
C718 H743 0.950 . S
C719 C718 1.349 . S
C719 C735 1.349 . S
C720 C718 1.327 . S
C720 C739 1.429 . S
C720 H744 0.950 . S
C721 C738 1.574 . S
C721 C740 1.368 . S
C721 H745 0.949 . S
H722 C726 0.949 . S
C723 C724 1.349 . S
C723 C725 1.327 . S
C723 H746 0.950 . S
C724 C723 1.349 . S
C724 C736 1.349 . S
C725 C723 1.327 . S
C725 C741 1.429 . S
C725 H747 0.950 . S
C726 H722 0.949 . S
C726 C734 1.574 . S
C726 C742 1.368 . S
H727 C735 0.950 . S
H728 C733 0.950 . S
H729 C734 0.949 . S
H730 C736 0.950 1_545 S
H731 C737 0.950 . S
H732 C738 0.949 . S
C733 H728 0.950 . S
C733 C735 1.327 . S
C733 C739 1.429 . S
C734 C726 1.574 . S
C734 H729 0.949 . S
C734 C740 1.368 . S
C735 C719 1.349 . S
C735 H727 0.950 . S
C735 C733 1.327 . S
C736 C724 1.349 . S
C736 H730 0.950 1_565 S
C736 C737 1.327 . S
C737 H731 0.950 . S
C737 C736 1.327 . S
C737 C741 1.429 . S
C738 C721 1.574 . S
C738 H732 0.949 . S
C738 C742 1.368 . S
C739 C720 1.429 . S
C739 C733 1.429 . S
C739 C740 1.523 . S
C740 C721 1.368 . S
C740 C734 1.368 . S
C740 C739 1.523 . S
C741 C725 1.429 . S
C741 C737 1.429 . S
C741 C742 1.523 . S
C742 C726 1.368 . S
C742 C738 1.368 . S
C742 C741 1.523 . S
H743 C718 0.950 . S
H744 C720 0.950 . S
H745 C721 0.949 . S
H746 C723 0.950 . S
H747 C725 0.950 . S
C748 C749 1.349 . S
C748 C750 1.327 . S
C748 H773 0.950 . S
C749 C748 1.349 . S
C749 C765 1.349 . S
C750 C748 1.327 . S
C750 C769 1.429 . S
C750 H774 0.950 . S
C751 C768 1.574 . S
C751 C770 1.368 . S
C751 H775 0.949 . S
H752 C756 0.949 . S
C753 C754 1.349 . S
C753 C755 1.327 . S
C753 H776 0.950 . S
C754 C753 1.349 . S
C754 C766 1.349 . S
C755 C753 1.327 . S
C755 C771 1.429 . S
C755 H777 0.950 . S
C756 H752 0.949 . S
C756 C764 1.574 . S
C756 C772 1.368 . S
H757 C765 0.950 . S
H758 C763 0.950 . S
H759 C764 0.949 . S
H760 C766 0.950 . S
H761 C767 0.950 . S
H762 C768 0.949 . S
C763 H758 0.950 . S
C763 C765 1.327 . S
C763 C769 1.429 . S
C764 C756 1.574 . S
C764 H759 0.949 . S
C764 C770 1.368 . S
C765 C749 1.349 . S
C765 H757 0.950 . S
C765 C763 1.327 . S
C766 C754 1.349 . S
C766 H760 0.950 . S
C766 C767 1.327 . S
C767 H761 0.950 . S
C767 C766 1.327 . S
C767 C771 1.429 . S
C768 C751 1.574 . S
C768 H762 0.949 . S
C768 C772 1.368 . S
C769 C750 1.429 . S
C769 C763 1.429 . S
C769 C770 1.523 . S
C770 C751 1.368 . S
C770 C764 1.368 . S
C770 C769 1.523 . S
C771 C755 1.429 . S
C771 C767 1.429 . S
C771 C772 1.523 . S
C772 C756 1.368 . S
C772 C768 1.368 . S
C772 C771 1.523 . S
H773 C748 0.950 . S
H774 C750 0.950 . S
H775 C751 0.949 . S
H776 C753 0.950 . S
H777 C755 0.950 . S
C778 C779 1.349 . S
C778 C780 1.327 . S
C778 H803 0.950 . S
C779 C778 1.349 . S
C779 C795 1.349 . S
C780 C778 1.327 . S
C780 C799 1.429 . S
C780 H804 0.950 . S
C781 C798 1.574 . S
C781 C800 1.368 . S
C781 H805 0.949 . S
H782 C786 0.949 . S
C783 C784 1.349 . S
C783 C785 1.327 . S
C783 H806 0.950 . S
C784 C783 1.349 . S
C784 C796 1.349 . S
C785 C783 1.327 . S
C785 C801 1.429 . S
C785 H807 0.950 . S
C786 H782 0.949 . S
C786 C794 1.574 . S
C786 C802 1.368 . S
H787 C795 0.950 . S
H788 C793 0.950 . S
H789 C794 0.949 . S
H790 C796 0.950 . S
H791 C797 0.950 . S
H792 C798 0.949 . S
C793 H788 0.950 . S
C793 C795 1.327 . S
C793 C799 1.429 . S
C794 C786 1.574 . S
C794 H789 0.949 . S
C794 C800 1.368 . S
C795 C779 1.349 . S
C795 H787 0.950 . S
C795 C793 1.327 . S
C796 C784 1.349 . S
C796 H790 0.950 . S
C796 C797 1.327 . S
C797 H791 0.950 . S
C797 C796 1.327 . S
C797 C801 1.429 . S
C798 C781 1.574 . S
C798 H792 0.949 . S
C798 C802 1.368 . S
C799 C780 1.429 . S
C799 C793 1.429 . S
C799 C800 1.523 . S
C800 C781 1.368 . S
C800 C794 1.368 . S
C800 C799 1.523 . S
C801 C785 1.429 . S
C801 C797 1.429 . S
C801 C802 1.523 . S
C802 C786 1.368 . S
C802 C798 1.368 . S
C802 C801 1.523 . S
H803 C778 0.950 . S
H804 C780 0.950 . S
H805 C781 0.949 . S
H806 C783 0.950 . S
H807 C785 0.950 . S
C808 C809 1.343 1_565 S
C808 C810 1.315 1_565 S
C808 H833 0.969 . S
C809 C808 1.343 1_545 S
C809 C825 1.349 . S
C810 C808 1.315 1_545 S
C810 C829 1.429 . S
C810 H834 0.950 . S
C811 C828 1.574 . S
C811 C830 1.368 . S
C811 H835 0.949 . S
H812 C816 0.949 . S
C813 C814 1.349 . S
C813 C815 1.327 . S
C813 H836 0.950 . S
C814 C813 1.349 . S
C814 C826 1.349 . S
C815 C813 1.327 . S
C815 C831 1.429 . S
C815 H837 0.950 . S
C816 H812 0.949 . S
C816 C824 1.574 . S
C816 C832 1.368 . S
H817 C825 0.950 . S
H818 C823 0.950 . S
H819 C824 0.949 . S
H820 C826 0.950 . S
H821 C827 0.950 . S
H822 C828 0.949 . S
C823 H818 0.950 . S
C823 C825 1.327 . S
C823 C829 1.429 . S
C824 C816 1.574 . S
C824 H819 0.949 . S
C824 C830 1.368 . S
C825 C809 1.349 . S
C825 H817 0.950 . S
C825 C823 1.327 . S
C826 C814 1.349 . S
C826 H820 0.950 . S
C826 C827 1.327 . S
C827 H821 0.950 . S
C827 C826 1.327 . S
C827 C831 1.429 . S
C828 C811 1.574 . S
C828 H822 0.949 . S
C828 C832 1.368 . S
C829 C810 1.429 . S
C829 C823 1.429 . S
C829 C830 1.523 . S
C830 C811 1.368 . S
C830 C824 1.368 . S
C830 C829 1.523 . S
C831 C815 1.429 . S
C831 C827 1.429 . S
C831 C832 1.523 . S
C832 C816 1.368 . S
C832 C828 1.368 . S
C832 C831 1.523 . S
H833 C808 0.969 . S
H834 C810 0.950 . S
H835 C811 0.949 . S
H836 C813 0.950 . S
H837 C815 0.950 . S
C838 C839 1.349 . S
C838 C840 1.327 . S
C838 H863 0.950 . S
C839 C838 1.349 . S
C839 C855 1.349 . S
C840 C838 1.327 . S
C840 C859 1.429 . S
C840 H864 0.950 . S
C841 C858 1.574 . S
C841 C860 1.368 . S
C841 H865 0.949 . S
H842 C846 0.949 . S
C843 C844 1.349 . S
C843 C845 1.327 . S
C843 H866 0.950 . S
C844 C843 1.349 . S
C844 C856 1.349 . S
C845 C843 1.327 . S
C845 C861 1.429 . S
C845 H867 0.950 . S
C846 H842 0.949 . S
C846 C854 1.574 . S
C846 C862 1.368 . S
H847 C855 0.950 1_565 S
H848 C853 0.950 . S
H849 C854 0.949 . S
H850 C856 0.950 . S
H851 C857 0.950 . S
H852 C858 0.949 . S
C853 H848 0.950 . S
C853 C855 1.327 . S
C853 C859 1.429 . S
C854 C846 1.574 . S
C854 H849 0.949 . S
C854 C860 1.368 . S
C855 C839 1.349 . S
C855 H847 0.950 1_545 S
C855 C853 1.327 . S
C856 C844 1.349 . S
C856 H850 0.950 . S
C856 C857 1.327 . S
C857 H851 0.950 . S
C857 C856 1.327 . S
C857 C861 1.429 . S
C858 C841 1.574 . S
C858 H852 0.949 . S
C858 C862 1.368 . S
C859 C840 1.429 . S
C859 C853 1.429 . S
C859 C860 1.523 . S
C860 C841 1.368 . S
C860 C854 1.368 . S
C860 C859 1.523 . S
C861 C845 1.429 . S
C861 C857 1.429 . S
C861 C862 1.523 . S
C862 C846 1.368 . S
C862 C858 1.368 . S
C862 C861 1.523 . S
H863 C838 0.950 . S
H864 C840 0.950 . S
H865 C841 0.949 . S
H866 C843 0.950 . S
H867 C845 0.950 . S
C868 C869 1.349 . S
C868 C870 1.327 . S
C868 H893 0.950 . S
C869 C868 1.349 . S
C869 C885 1.349 . S
C870 C868 1.327 . S
C870 C889 1.429 . S
C870 H894 0.950 . S
C871 C888 1.574 . S
C871 C890 1.368 . S
C871 H895 0.949 . S
H872 C876 0.949 . S
C873 C874 1.349 . S
C873 C875 1.327 . S
C873 H896 0.950 . S
C874 C873 1.349 . S
C874 C886 1.349 . S
C875 C873 1.327 . S
C875 C891 1.429 . S
C875 H897 0.950 . S
C876 H872 0.949 . S
C876 C884 1.574 . S
C876 C892 1.368 . S
H877 C885 0.950 . S
H878 C883 0.950 . S
H879 C884 0.949 . S
H880 C886 0.950 . S
H881 C887 0.950 . S
H882 C888 0.949 . S
C883 H878 0.950 . S
C883 C885 1.327 . S
C883 C889 1.429 . S
C884 C876 1.574 . S
C884 H879 0.949 . S
C884 C890 1.368 . S
C885 C869 1.349 . S
C885 H877 0.950 . S
C885 C883 1.327 . S
C886 C874 1.349 . S
C886 H880 0.950 . S
C886 C887 1.327 . S
C887 H881 0.950 . S
C887 C886 1.327 . S
C887 C891 1.429 . S
C888 C871 1.574 . S
C888 H882 0.949 . S
C888 C892 1.368 . S
C889 C870 1.429 . S
C889 C883 1.429 . S
C889 C890 1.523 . S
C890 C871 1.368 . S
C890 C884 1.368 . S
C890 C889 1.523 . S
C891 C875 1.429 . S
C891 C887 1.429 . S
C891 C892 1.523 . S
C892 C876 1.368 . S
C892 C888 1.368 . S
C892 C891 1.523 . S
H893 C868 0.950 . S
H894 C870 0.950 . S
H895 C871 0.949 . S
H896 C873 0.950 . S
H897 C875 0.950 . S
C898 C899 1.349 . S
C898 C900 1.327 . S
C898 H923 0.950 . S
C899 C898 1.349 . S
C899 C915 1.349 . S
C900 C898 1.327 . S
C900 C919 1.429 . S
C900 H924 0.950 . S
C901 C918 1.574 . S
C901 C920 1.368 . S
C901 H925 0.949 . S
H902 C906 0.949 . S
C903 C904 1.349 . S
C903 C905 1.327 . S
C903 H926 0.950 . S
C904 C903 1.349 . S
C904 C916 1.349 . S
C905 C903 1.327 . S
C905 C921 1.429 . S
C905 H927 0.950 . S
C906 H902 0.949 . S
C906 C914 1.574 . S
C906 C922 1.368 . S
H907 C915 0.950 . S
H908 C913 0.950 . S
H909 C914 0.949 . S
H910 C916 0.950 1_545 S
H911 C917 0.950 . S
H912 C918 0.949 . S
C913 H908 0.950 . S
C913 C915 1.327 . S
C913 C919 1.429 . S
C914 C906 1.574 . S
C914 H909 0.949 . S
C914 C920 1.368 . S
C915 C899 1.349 . S
C915 H907 0.950 . S
C915 C913 1.327 . S
C916 C904 1.349 . S
C916 H910 0.950 1_565 S
C916 C917 1.327 . S
C917 H911 0.950 . S
C917 C916 1.327 . S
C917 C921 1.429 . S
C918 C901 1.574 . S
C918 H912 0.949 . S
C918 C922 1.368 . S
C919 C900 1.429 . S
C919 C913 1.429 . S
C919 C920 1.523 . S
C920 C901 1.368 . S
C920 C914 1.368 . S
C920 C919 1.523 . S
C921 C905 1.429 . S
C921 C917 1.429 . S
C921 C922 1.523 . S
C922 C906 1.368 . S
C922 C918 1.368 . S
C922 C921 1.523 . S
H923 C898 0.950 . S
H924 C900 0.950 . S
H925 C901 0.949 . S
H926 C903 0.950 . S
H927 C905 0.950 . S
C928 C929 1.349 . S
C928 C930 1.327 . S
C928 H953 0.950 . S
C929 C928 1.349 . S
C929 C945 1.349 . S
C930 C928 1.327 . S
C930 C949 1.429 . S
C930 H954 0.950 . S
C931 C948 1.574 . S
C931 C950 1.368 . S
C931 H955 0.949 . S
H932 C936 0.949 . S
C933 C934 1.349 . S
C933 C935 1.327 . S
C933 H956 0.950 . S
C934 C933 1.349 . S
C934 C946 1.349 . S
C935 C933 1.327 . S
C935 C951 1.429 . S
C935 H957 0.950 . S
C936 H932 0.949 . S
C936 C944 1.574 . S
C936 C952 1.368 . S
H937 C945 0.950 . S
H938 C943 0.950 . S
H939 C944 0.949 . S
H940 C946 0.950 . S
H941 C947 0.950 . S
H942 C948 0.949 . S
C943 H938 0.950 . S
C943 C945 1.327 . S
C943 C949 1.429 . S
C944 C936 1.574 . S
C944 H939 0.949 . S
C944 C950 1.368 . S
C945 C929 1.349 . S
C945 H937 0.950 . S
C945 C943 1.327 . S
C946 C934 1.349 . S
C946 H940 0.950 . S
C946 C947 1.327 . S
C947 H941 0.950 . S
C947 C946 1.327 . S
C947 C951 1.429 . S
C948 C931 1.574 . S
C948 H942 0.949 . S
C948 C952 1.368 . S
C949 C930 1.429 . S
C949 C943 1.429 . S
C949 C950 1.523 . S
C950 C931 1.368 . S
C950 C944 1.368 . S
C950 C949 1.523 . S
C951 C935 1.429 . S
C951 C947 1.429 . S
C951 C952 1.523 . S
C952 C936 1.368 . S
C952 C948 1.368 . S
C952 C951 1.523 . S
H953 C928 0.950 . S
H954 C930 0.950 . S
H955 C931 0.949 . S
H956 C933 0.950 . S
H957 C935 0.950 . S
C958 C959 1.349 . S
C958 C960 1.327 . S
C958 H983 0.950 . S
C959 C958 1.349 . S
C959 C975 1.349 . S
C960 C958 1.327 . S
C960 C979 1.429 . S
C960 H984 0.950 . S
C961 C978 1.574 . S
C961 C980 1.368 . S
C961 H985 0.949 . S
H962 C966 0.949 . S
C963 C964 1.349 . S
C963 C965 1.327 . S
C963 H986 0.950 . S
C964 C963 1.349 . S
C964 C976 1.349 . S
C965 C963 1.327 . S
C965 C981 1.429 . S
C965 H987 0.950 . S
C966 H962 0.949 . S
C966 C974 1.574 . S
C966 C982 1.368 . S
H967 C975 0.950 . S
H968 C973 0.950 . S
H969 C974 0.949 . S
H970 C976 0.950 . S
H971 C977 0.950 . S
H972 C978 0.949 . S
C973 H968 0.950 . S
C973 C975 1.327 . S
C973 C979 1.429 . S
C974 C966 1.574 . S
C974 H969 0.949 . S
C974 C980 1.368 . S
C975 C959 1.349 . S
C975 H967 0.950 . S
C975 C973 1.327 . S
C976 C964 1.349 . S
C976 H970 0.950 . S
C976 C977 1.327 . S
C977 H971 0.950 . S
C977 C976 1.327 . S
C977 C981 1.429 . S
C978 C961 1.574 . S
C978 H972 0.949 . S
C978 C982 1.368 . S
C979 C960 1.429 . S
C979 C973 1.429 . S
C979 C980 1.523 . S
C980 C961 1.368 . S
C980 C974 1.368 . S
C980 C979 1.523 . S
C981 C965 1.429 . S
C981 C977 1.429 . S
C981 C982 1.523 . S
C982 C966 1.368 . S
C982 C978 1.368 . S
C982 C981 1.523 . S
H983 C958 0.950 . S
H984 C960 0.950 . S
H985 C961 0.949 . S
H986 C963 0.950 . S
H987 C965 0.950 . S
C988 C989 1.349 . S
C988 C990 1.327 . S
C988 H1013 0.950 . S
C989 C988 1.349 . S
C989 C1005 1.349 . S
C990 C988 1.327 . S
C990 C1009 1.429 . S
C990 H1014 0.950 . S
C991 C1008 1.574 . S
C991 C1010 1.368 . S
C991 H1015 0.949 . S
H992 C996 0.949 . S
C993 C994 1.349 . S
C993 C995 1.327 . S
C993 H1016 0.950 . S
C994 C993 1.349 . S
C994 C1006 1.349 . S
C995 C993 1.327 . S
C995 C1011 1.429 . S
C995 H1017 0.950 . S
C996 H992 0.949 . S
C996 C1004 1.574 . S
C996 C1012 1.368 . S
H997 C1005 0.950 . S
H998 C1003 0.950 . S
H999 C1004 0.949 . S
H1000 C1006 0.950 . S
H1001 C1007 0.950 . S
H1002 C1008 0.949 . S
C1003 H998 0.950 . S
C1003 C1005 1.327 . S
C1003 C1009 1.429 . S
C1004 C996 1.574 . S
C1004 H999 0.949 . S
C1004 C1010 1.368 . S
C1005 C989 1.349 . S
C1005 H997 0.950 . S
C1005 C1003 1.327 . S
C1006 C994 1.349 . S
C1006 H1000 0.950 . S
C1006 C1007 1.327 . S
C1007 H1001 0.950 . S
C1007 C1006 1.327 . S
C1007 C1011 1.429 . S
C1008 C991 1.574 . S
C1008 H1002 0.949 . S
C1008 C1012 1.368 . S
C1009 C990 1.429 . S
C1009 C1003 1.429 . S
C1009 C1010 1.523 . S
C1010 C991 1.368 . S
C1010 C1004 1.368 . S
C1010 C1009 1.523 . S
C1011 C995 1.429 . S
C1011 C1007 1.429 . S
C1011 C1012 1.523 . S
C1012 C996 1.368 . S
C1012 C1008 1.368 . S
C1012 C1011 1.523 . S
H1013 C988 0.950 . S
H1014 C990 0.950 . S
H1015 C991 0.949 . S
H1016 C993 0.950 . S
H1017 C995 0.950 . S
C1018 C1019 1.349 . S
C1018 C1020 1.327 . S
C1018 H1043 0.950 . S
C1019 C1018 1.349 . S
C1019 C1035 1.349 . S
C1020 C1018 1.327 . S
C1020 C1039 1.429 . S
C1020 H1044 0.950 . S
C1021 C1038 1.574 . S
C1021 C1040 1.368 . S
C1021 H1045 0.949 . S
H1022 C1026 0.949 . S
C1023 C1024 1.349 . S
C1023 C1025 1.327 . S
C1023 H1046 0.950 . S
C1024 C1023 1.349 . S
C1024 C1036 1.349 . S
C1025 C1023 1.327 . S
C1025 C1041 1.429 . S
C1025 H1047 0.950 . S
C1026 H1022 0.949 . S
C1026 C1034 1.574 . S
C1026 C1042 1.368 . S
H1027 C1035 0.950 . S
H1028 C1033 0.950 . S
H1029 C1034 0.949 . S
H1030 C1036 0.950 . S
H1031 C1037 0.950 . S
H1032 C1038 0.949 . S
C1033 H1028 0.950 . S
C1033 C1035 1.327 . S
C1033 C1039 1.429 . S
C1034 C1026 1.574 . S
C1034 H1029 0.949 . S
C1034 C1040 1.368 . S
C1035 C1019 1.349 . S
C1035 H1027 0.950 . S
C1035 C1033 1.327 . S
C1036 C1024 1.349 . S
C1036 H1030 0.950 . S
C1036 C1037 1.327 . S
C1037 H1031 0.950 . S
C1037 C1036 1.327 . S
C1037 C1041 1.429 . S
C1038 C1021 1.574 . S
C1038 H1032 0.949 . S
C1038 C1042 1.368 . S
C1039 C1020 1.429 . S
C1039 C1033 1.429 . S
C1039 C1040 1.523 . S
C1040 C1021 1.368 . S
C1040 C1034 1.368 . S
C1040 C1039 1.523 . S
C1041 C1025 1.429 . S
C1041 C1037 1.429 . S
C1041 C1042 1.523 . S
C1042 C1026 1.368 . S
C1042 C1038 1.368 . S
C1042 C1041 1.523 . S
H1043 C1018 0.950 . S
H1044 C1020 0.950 . S
H1045 C1021 0.949 . S
H1046 C1023 0.950 . S
H1047 C1025 0.950 . S
C1048 C1049 1.349 . S
C1048 C1050 1.327 . S
C1048 H1073 0.950 . S
C1049 C1048 1.349 . S
C1049 C1065 1.349 . S
C1050 C1048 1.327 . S
C1050 C1069 1.429 . S
C1050 H1074 0.950 . S
C1051 C1068 1.574 . S
C1051 C1070 1.368 . S
C1051 H1075 0.949 . S
H1052 C1056 0.949 . S
C1053 C1054 1.349 . S
C1053 C1055 1.327 . S
C1053 H1076 0.950 . S
C1054 C1053 1.349 . S
C1054 C1066 1.349 . S
C1055 C1053 1.327 . S
C1055 C1071 1.429 . S
C1055 H1077 0.950 . S
C1056 H1052 0.949 . S
C1056 C1064 1.574 . S
C1056 C1072 1.368 . S
H1057 C1065 0.950 . S
H1058 C1063 0.950 . S
H1059 C1064 0.949 . S
H1060 C1066 0.950 . S
H1061 C1067 0.950 . S
H1062 C1068 0.949 . S
C1063 H1058 0.950 . S
C1063 C1065 1.327 . S
C1063 C1069 1.429 . S
C1064 C1056 1.574 . S
C1064 H1059 0.949 . S
C1064 C1070 1.368 . S
C1065 C1049 1.349 . S
C1065 H1057 0.950 . S
C1065 C1063 1.327 . S
C1066 C1054 1.349 . S
C1066 H1060 0.950 . S
C1066 C1067 1.327 . S
C1067 H1061 0.950 . S
C1067 C1066 1.327 . S
C1067 C1071 1.429 . S
C1068 C1051 1.574 . S
C1068 H1062 0.949 . S
C1068 C1072 1.368 . S
C1069 C1050 1.429 . S
C1069 C1063 1.429 . S
C1069 C1070 1.523 . S
C1070 C1051 1.368 . S
C1070 C1064 1.368 . S
C1070 C1069 1.523 . S
C1071 C1055 1.429 . S
C1071 C1067 1.429 . S
C1071 C1072 1.523 . S
C1072 C1056 1.368 . S
C1072 C1068 1.368 . S
C1072 C1071 1.523 . S
H1073 C1048 0.950 . S
H1074 C1050 0.950 . S
H1075 C1051 0.949 . S
H1076 C1053 0.950 . S
H1077 C1055 0.950 . S
C1078 C1079 1.349 . S
C1078 C1080 1.327 . S
C1078 H1103 0.950 . S
C1079 C1078 1.349 . S
C1079 C1095 1.349 . S
C1080 C1078 1.327 . S
C1080 C1099 1.429 . S
C1080 H1104 0.950 . S
C1081 C1098 1.574 . S
C1081 C1100 1.368 . S
C1081 H1105 0.949 . S
H1082 C1086 0.949 . S
C1083 C1084 1.349 . S
C1083 C1085 1.327 . S
C1083 H1106 0.950 . S
C1084 C1083 1.349 . S
C1084 C1096 1.349 . S
C1085 C1083 1.327 . S
C1085 C1101 1.429 . S
C1085 H1107 0.950 . S
C1086 H1082 0.949 . S
C1086 C1094 1.574 . S
C1086 C1102 1.368 . S
H1087 C1095 0.950 . S
H1088 C1093 0.950 . S
H1089 C1094 0.949 . S
H1090 C1096 0.950 . S
H1091 C1097 0.950 . S
H1092 C1098 0.949 . S
C1093 H1088 0.950 . S
C1093 C1095 1.327 . S
C1093 C1099 1.429 . S
C1094 C1086 1.574 . S
C1094 H1089 0.949 . S
C1094 C1100 1.368 . S
C1095 C1079 1.349 . S
C1095 H1087 0.950 . S
C1095 C1093 1.327 . S
C1096 C1084 1.349 . S
C1096 H1090 0.950 . S
C1096 C1097 1.327 . S
C1097 H1091 0.950 . S
C1097 C1096 1.327 . S
C1097 C1101 1.429 . S
C1098 C1081 1.574 . S
C1098 H1092 0.949 . S
C1098 C1102 1.368 . S
C1099 C1080 1.429 . S
C1099 C1093 1.429 . S
C1099 C1100 1.523 . S
C1100 C1081 1.368 . S
C1100 C1094 1.368 . S
C1100 C1099 1.523 . S
C1101 C1085 1.429 . S
C1101 C1097 1.429 . S
C1101 C1102 1.523 . S
C1102 C1086 1.368 . S
C1102 C1098 1.368 . S
C1102 C1101 1.523 . S
H1103 C1078 0.950 . S
H1104 C1080 0.950 . S
H1105 C1081 0.949 . S
H1106 C1083 0.950 . S
H1107 C1085 0.950 . S
C1108 C1109 1.349 . S
C1108 C1110 1.327 . S
C1108 H1133 0.950 . S
C1109 C1108 1.349 . S
C1109 C1125 1.349 . S
C1110 C1108 1.327 . S
C1110 C1129 1.429 . S
C1110 H1134 0.950 . S
C1111 C1128 1.574 . S
C1111 C1130 1.368 . S
C1111 H1135 0.949 . S
H1112 C1116 0.949 . S
C1113 C1114 1.349 . S
C1113 C1115 1.327 . S
C1113 H1136 0.950 . S
C1114 C1113 1.349 . S
C1114 C1126 1.349 . S
C1115 C1113 1.327 . S
C1115 C1131 1.429 . S
C1115 H1137 0.950 . S
C1116 H1112 0.949 . S
C1116 C1124 1.574 . S
C1116 C1132 1.368 . S
H1117 C1125 0.950 . S
H1118 C1123 0.950 . S
H1119 C1124 0.949 . S
H1120 C1126 0.950 . S
H1121 C1127 0.950 . S
H1122 C1128 0.949 . S
C1123 H1118 0.950 . S
C1123 C1125 1.327 . S
C1123 C1129 1.429 . S
C1124 C1116 1.574 . S
C1124 H1119 0.949 . S
C1124 C1130 1.368 . S
C1125 C1109 1.349 . S
C1125 H1117 0.950 . S
C1125 C1123 1.327 . S
C1126 C1114 1.349 . S
C1126 H1120 0.950 . S
C1126 C1127 1.327 . S
C1127 H1121 0.950 . S
C1127 C1126 1.327 . S
C1127 C1131 1.429 . S
C1128 C1111 1.574 . S
C1128 H1122 0.949 . S
C1128 C1132 1.368 . S
C1129 C1110 1.429 . S
C1129 C1123 1.429 . S
C1129 C1130 1.523 . S
C1130 C1111 1.368 . S
C1130 C1124 1.368 . S
C1130 C1129 1.523 . S
C1131 C1115 1.429 . S
C1131 C1127 1.429 . S
C1131 C1132 1.523 . S
C1132 C1116 1.368 . S
C1132 C1128 1.368 . S
C1132 C1131 1.523 . S
H1133 C1108 0.950 . S
H1134 C1110 0.950 . S
H1135 C1111 0.949 . S
H1136 C1113 0.950 . S
H1137 C1115 0.950 . S
C1138 C1139 1.349 . S
C1138 C1140 1.327 . S
C1138 H1163 0.950 . S
C1139 C1138 1.349 . S
C1139 C1155 1.349 . S
C1140 C1138 1.327 . S
C1140 C1159 1.429 . S
C1140 H1164 0.950 . S
C1141 C1158 1.574 . S
C1141 C1160 1.368 . S
C1141 H1165 0.949 . S
H1142 C1146 0.949 . S
C1143 C1144 1.349 . S
C1143 C1145 1.327 . S
C1143 H1166 0.950 . S
C1144 C1143 1.349 . S
C1144 C1156 1.349 . S
C1145 C1143 1.327 . S
C1145 C1161 1.429 . S
C1145 H1167 0.950 . S
C1146 H1142 0.949 . S
C1146 C1154 1.574 . S
C1146 C1162 1.368 . S
H1147 C1155 0.950 . S
H1148 C1153 0.950 . S
H1149 C1154 0.949 . S
H1150 C1156 0.950 . S
H1151 C1157 0.950 . S
H1152 C1158 0.949 . S
C1153 H1148 0.950 . S
C1153 C1155 1.327 . S
C1153 C1159 1.429 . S
C1154 C1146 1.574 . S
C1154 H1149 0.949 . S
C1154 C1160 1.368 . S
C1155 C1139 1.349 . S
C1155 H1147 0.950 . S
C1155 C1153 1.327 . S
C1156 C1144 1.349 . S
C1156 H1150 0.950 . S
C1156 C1157 1.327 . S
C1157 H1151 0.950 . S
C1157 C1156 1.327 . S
C1157 C1161 1.429 . S
C1158 C1141 1.574 . S
C1158 H1152 0.949 . S
C1158 C1162 1.368 . S
C1159 C1140 1.429 . S
C1159 C1153 1.429 . S
C1159 C1160 1.523 . S
C1160 C1141 1.368 . S
C1160 C1154 1.368 . S
C1160 C1159 1.523 . S
C1161 C1145 1.429 . S
C1161 C1157 1.429 . S
C1161 C1162 1.523 . S
C1162 C1146 1.368 . S
C1162 C1158 1.368 . S
C1162 C1161 1.523 . S
H1163 C1138 0.950 . S
H1164 C1140 0.950 . S
H1165 C1141 0.949 . S
H1166 C1143 0.950 . S
H1167 C1145 0.950 . S
C209 C0 0.993 . S
C214 C169 0.987 . S
C239 C143 0.987 . S
C244 C13 0.987 . S
C269 C156 0.987 . S
C274 C26 0.987 . S
C299 C130 0.987 . S
C304 C39 0.987 . S
C329 C52 0.993 . S
C334 C195 0.987 . S
C359 C65 0.987 . S
C364 C117 0.987 . S
C389 C182 0.987 . S
C394 C78 0.987 . S
C419 C91 0.987 . S
C424 C104 0.987 . S
C449 C60 1.598 . S
C454 C8 1.598 . S
C479 C21 1.597 . S
C484 C73 1.597 . S
C509 C34 1.597 . S
C514 C86 1.597 . S
C539 C99 1.597 . S
C544 C47 1.597 . S
C569 C112 1.597 . S
C574 C138 1.597 . S
C599 C125 1.597 . S
C604 C151 1.597 . S
C629 C190 1.598 . S
C634 C164 1.598 . S
C659 C177 1.597 . S
C664 C203 1.597 . S
C689 C70 1.153 . S
C694 C5 1.153 . S
C719 C18 1.153 . S
C724 C83 1.153 . S
C749 C31 1.153 . S
C754 C96 1.153 . S
C779 C57 1.153 . S
C784 C44 1.153 . S
C809 C62 1.225 1_545 S
C814 C140 1.225 . S
C839 C36 1.225 1_545 S
C844 C114 1.225 . S
C869 C153 1.225 . S
C874 C88 1.225 1_565 S
C899 C127 1.225 . S
C904 C10 1.225 1_565 S
C929 C109 1.153 . S
C934 C161 1.153 . S
C959 C135 1.153 . S
C964 C200 1.153 . S
C989 C174 1.153 . S
C994 C122 1.153 . S
C1019 C148 1.153 . S
C1024 C187 1.153 . S
C1049 C192 1.226 . S
C1054 C23 1.226 . S
C1079 C179 1.225 . S
C1084 C75 1.225 . S
C1109 C205 1.225 . S
C1114 C49 1.225 . S
C1139 C166 1.226 . S
C1144 C101 1.226 . S
