# Generated by pormake.
# Topology wfs, (7)-cn, num edge types: 1
# Building blocks:
#     Node 0, Type 0, BuildingBlock: HICVOG_clean_sbu_0, # of connection points: 7
#     Node 1, Type 0, BuildingBlock: HICVOG_clean_sbu_0, # of connection points: 7
#     Node 2, Type 0, BuildingBlock: HICVOG_clean_sbu_0, # of connection points: 7
#     Node 3, Type 0, BuildingBlock: HICVOG_clean_sbu_0, # of connection points: 7
#     Node 4, Type 0, BuildingBlock: HICVOG_clean_sbu_0, # of connection points: 7
#     Node 5, Type 0, BuildingBlock: HICVOG_clean_sbu_0, # of connection points: 7
#     Node 6, Type 0, BuildingBlock: HICVOG_clean_sbu_0, # of connection points: 7
#     Node 7, Type 0, BuildingBlock: HICVOG_clean_sbu_0, # of connection points: 7
#     Edge 8, Type (0, 0), BuildingBlock: CIFDUS_clean_linker_0, # of connection points: 2
#     Edge 9, Type (0, 0), BuildingBlock: CIFDUS_clean_linker_0, # of connection points: 2
#     Edge 10, Type (0, 0), BuildingBlock: CIFDUS_clean_linker_0, # of connection points: 2
#     Edge 11, Type (0, 0), BuildingBlock: CIFDUS_clean_linker_0, # of connection points: 2
#     Edge 12, Type (0, 0), BuildingBlock: CIFDUS_clean_linker_0, # of connection points: 2
#     Edge 13, Type (0, 0), BuildingBlock: CIFDUS_clean_linker_0, # of connection points: 2
#     Edge 14, Type (0, 0), BuildingBlock: CIFDUS_clean_linker_0, # of connection points: 2
#     Edge 15, Type (0, 0), BuildingBlock: CIFDUS_clean_linker_0, # of connection points: 2
#     Edge 16, Type (0, 0), BuildingBlock: CIFDUS_clean_linker_0, # of connection points: 2
#     Edge 17, Type (0, 0), BuildingBlock: CIFDUS_clean_linker_0, # of connection points: 2
#     Edge 18, Type (0, 0), BuildingBlock: CIFDUS_clean_linker_0, # of connection points: 2
#     Edge 19, Type (0, 0), BuildingBlock: CIFDUS_clean_linker_0, # of connection points: 2
#     Edge 20, Type (0, 0), BuildingBlock: CIFDUS_clean_linker_0, # of connection points: 2
#     Edge 21, Type (0, 0), BuildingBlock: CIFDUS_clean_linker_0, # of connection points: 2
#     Edge 22, Type (0, 0), BuildingBlock: CIFDUS_clean_linker_0, # of connection points: 2
#     Edge 23, Type (0, 0), BuildingBlock: CIFDUS_clean_linker_0, # of connection points: 2
#     Edge 24, Type (0, 0), BuildingBlock: CIFDUS_clean_linker_0, # of connection points: 2
#     Edge 25, Type (0, 0), BuildingBlock: CIFDUS_clean_linker_0, # of connection points: 2
#     Edge 26, Type (0, 0), BuildingBlock: CIFDUS_clean_linker_0, # of connection points: 2
#     Edge 27, Type (0, 0), BuildingBlock: CIFDUS_clean_linker_0, # of connection points: 2
#     Edge 28, Type (0, 0), BuildingBlock: CIFDUS_clean_linker_0, # of connection points: 2
#     Edge 29, Type (0, 0), BuildingBlock: CIFDUS_clean_linker_0, # of connection points: 2
#     Edge 30, Type (0, 0), BuildingBlock: CIFDUS_clean_linker_0, # of connection points: 2
#     Edge 31, Type (0, 0), BuildingBlock: CIFDUS_clean_linker_0, # of connection points: 2
#     Edge 32, Type (0, 0), BuildingBlock: CIFDUS_clean_linker_0, # of connection points: 2
#     Edge 33, Type (0, 0), BuildingBlock: CIFDUS_clean_linker_0, # of connection points: 2
#     Edge 34, Type (0, 0), BuildingBlock: CIFDUS_clean_linker_0, # of connection points: 2
#     Edge 35, Type (0, 0), BuildingBlock: CIFDUS_clean_linker_0, # of connection points: 2
# Relax obj value: 0.559
# Max RMSD: 0.322
# Mean RMSD: 0.322
data_MOF--net-wfs--node1-HICVOG_clean_sbu_0--edge1-CIFDUS_clean_linker_0
_symmetry_space_group_name_H-M    P1
_symmetry_Int_Tables_number       1
_symmetry_cell_setting            triclinic
loop_
_symmetry_equiv_pos_as_xyz
'x, y, z'
_cell_length_a     28.323712
_cell_length_b     26.007066
_cell_length_c     29.46261
_cell_angle_alpha  89.829089
_cell_angle_beta   90.109985
_cell_angle_gamma 89.965971
loop_
_atom_site_label
_atom_site_type_symbol
_atom_site_fract_x
_atom_site_fract_y
_atom_site_fract_z
_atom_type_partial_charge
Zn0 Zn 0.17081 0.15706 0.21528 0.0
C1 C 0.17058 0.29875 0.26609 0.0
N2 N 0.21198 0.284 0.28447 0.0
C3 C 0.21438 0.23416 0.2733 0.0
N4 N 0.1766 0.21923 0.24908 0.0
N5 N 0.1484 0.25949 0.24447 0.0
C6 C 0.08045 0.29132 0.12011 0.0
O7 O 0.11758 0.32092 0.12523 0.0
O8 O 0.21727 0.10051 0.2338 0.0
Zn9 Zn 0.08266 0.25363 0.22202 0.0
N10 N 0.18565 0.17441 0.1536 0.0
C11 C 0.20905 0.23481 0.09726 0.0
C12 C 0.18876 0.224 0.13926 0.0
C13 C 0.20227 0.13533 0.12806 0.0
N14 N 0.22634 0.19565 0.07186 0.0
C15 C 0.22418 0.14588 0.08631 0.0
O16 O 0.05349 0.1832 0.23746 0.0
C17 C 0.06599 0.1361 0.23452 0.0
O18 O 0.10785 0.12364 0.22366 0.0
H19 H 0.17741 0.25499 0.16085 0.0
H20 H 0.19854 0.09674 0.14113 0.0
C21 C 0.00676 0.32199 0.2367 0.0
C22 C 0.97785 0.3555 0.26163 0.0
C23 C 0.03274 0.35175 0.32261 0.0
C24 C 0.05905 0.31541 0.29905 0.0
N25 N 0.04657 0.30288 0.25594 0.0
N26 N -0.0076 0.37016 0.30377 0.0
H27 H -0.00375 0.30764 0.20381 0.0
C28 C 0.22318 0.08075 0.27298 0.0
O29 O 0.1994 0.09936 0.30748 0.0
O30 O 0.06581 0.26434 0.15349 0.0
H31 H 0.08898 0.29714 0.31511 0.0
H32 H 0.21181 0.27405 0.08529 0.0
H33 H 0.04294 0.36328 0.35648 0.0
Zn34 Zn 0.08125 0.77413 0.80884 0.0
C35 C 0.22138 0.79159 0.7884 0.0
N36 N 0.22161 0.74121 0.77925 0.0
C37 C 0.17661 0.72779 0.78767 0.0
N38 N 0.14997 0.76837 0.80139 0.0
N39 N 0.17894 0.80832 0.80168 0.0
C40 C 0.23544 0.94797 0.77415 0.0
O41 O 0.21726 0.93313 0.73529 0.0
O42 O 0.05228 0.75001 0.86983 0.0
Zn43 Zn 0.16738 0.87627 0.82331 0.0
N44 N 0.05409 0.73219 0.76231 0.0
C45 C 0.05334 0.69847 0.68748 0.0
C46 C 0.07465 0.72841 0.72088 0.0
C47 C 0.01183 0.71005 0.77101 0.0
N48 N 0.01048 0.67713 0.6958 0.0
C49 C -0.01144 0.68259 0.73665 0.0
O50 O 0.10864 0.90804 0.79967 0.0
C51 C 0.06644 0.89389 0.79242 0.0
O52 O 0.05416 0.84679 0.7963 0.0
H53 H 0.1072 0.74859 0.71392 0.0
H54 H -0.00475 0.71763 0.8033 0.0
C55 C 0.19667 0.89222 0.9128 0.0
C56 C 0.19172 0.89496 0.95993 0.0
C57 C 0.11903 0.85007 0.95426 0.0
C58 C 0.12267 0.85085 0.90706 0.0
N59 N 0.16164 0.87143 0.88753 0.0
N60 N 0.15314 0.873 0.97956 0.0
H61 H 0.2268 0.90917 0.89602 0.0
C62 C 0.06774 0.73476 0.90827 0.0
O63 O 0.11347 0.73061 0.91485 0.0
O64 O 0.22055 0.92784 0.81091 0.0
H65 H 0.09457 0.83617 0.88604 0.0
H66 H 0.0697 0.69409 0.65458 0.0
H67 H 0.08831 0.83374 0.97056 0.0
Zn68 Zn 0.81289 0.85858 0.21633 0.0
C69 C 0.80137 0.71431 0.26335 0.0
N70 N 0.75646 0.72937 0.27023 0.0
C71 C 0.75758 0.77895 0.25798 0.0
N72 N 0.80043 0.79358 0.24404 0.0
N73 N 0.82887 0.75334 0.24735 0.0
C74 C 0.91512 0.72144 0.13809 0.0
O75 O 0.8752 0.69614 0.13447 0.0
O76 O 0.76161 0.91311 0.22676 0.0
Zn77 Zn 0.89777 0.75959 0.23848 0.0
N78 N 0.81953 0.84818 0.15268 0.0
C79 C 0.82189 0.79811 0.08538 0.0
C80 C 0.81623 0.80151 0.13235 0.0
C81 C 0.82762 0.89139 0.12841 0.0
N82 N 0.8293 0.84169 0.06081 0.0
C83 C 0.83173 0.88855 0.08119 0.0
O84 O 0.9253 0.83158 0.2532 0.0
C85 C 0.91269 0.87874 0.25111 0.0
O86 O 0.87155 0.89134 0.23822 0.0
H87 H 0.80921 0.76747 0.15234 0.0
H88 H 0.83054 0.9276 0.1462 0.0
C89 C 0.9711 0.69553 0.2693 0.0
C90 C -0.00385 0.66411 0.29992 0.0
C91 C 0.93111 0.66784 0.3506 0.0
C92 C 0.9077 0.70113 0.32101 0.0
N93 N 0.92761 0.713 0.28044 0.0
N94 N 0.97497 0.6508 0.33975 0.0
H95 H -0.01326 0.70934 0.23817 0.0
C96 C 0.75109 0.93035 0.2659 0.0
O97 O 0.7716 0.90994 0.30171 0.0
O98 O 0.92486 0.74518 0.17473 0.0
H99 H 0.87433 0.718 0.33053 0.0
H100 H 0.81975 0.7613 0.06852 0.0
H101 H 0.9154 0.65728 0.38274 0.0
Zn102 Zn 0.89703 0.26782 0.80206 0.0
C103 C 0.76307 0.25295 0.75766 0.0
N104 N 0.76639 0.30279 0.74666 0.0
C105 C 0.80809 0.31626 0.76494 0.0
N106 N 0.82964 0.27609 0.78616 0.0
N107 N 0.80045 0.23663 0.78179 0.0
C108 C 0.74295 0.09749 0.76493 0.0
O109 O 0.76143 0.11345 0.72653 0.0
O110 O 0.92076 0.27947 0.86859 0.0
Zn111 Zn 0.80683 0.1726 0.81331 0.0
N112 N 0.92959 0.31357 0.76125 0.0
C113 C 0.93406 0.35549 0.68968 0.0
C114 C 0.91173 0.32141 0.71895 0.0
C115 C 0.97107 0.33495 0.77417 0.0
N116 N 0.976 0.3761 0.70214 0.0
C117 C -0.00368 0.36586 0.74318 0.0
O118 O 0.86705 0.13686 0.79806 0.0
C119 C 0.90917 0.1489 0.78787 0.0
O120 O 0.92263 0.19577 0.78712 0.0
H121 H 0.88027 0.30154 0.708 0.0
H122 H 0.98472 0.32474 0.80715 0.0
C123 C 0.81472 0.14857 0.90532 0.0
C124 C 0.8114 0.15615 0.95233 0.0
C125 C 0.78903 0.24289 0.93903 0.0
C126 C 0.79205 0.23487 0.89237 0.0
N127 N 0.80528 0.18797 0.87667 0.0
N128 N 0.79851 0.2034 0.96787 0.0
H129 H 0.82248 0.11133 0.89095 0.0
C130 C 0.90443 0.30023 0.90447 0.0
O131 O 0.86272 0.32215 0.90324 0.0
O132 O 0.75558 0.11868 0.80197 0.0
H133 H 0.7834 0.26558 0.869 0.0
H134 H 0.91945 0.36357 0.65647 0.0
H135 H 0.77863 0.27996 0.95223 0.0
Zn136 Zn 0.58435 0.76004 0.7027 0.0
C137 C 0.72514 0.75334 0.72564 0.0
N138 N 0.72317 0.80364 0.73486 0.0
C139 C 0.67731 0.81467 0.72721 0.0
N140 N 0.65242 0.77275 0.71341 0.0
N141 N 0.68337 0.73482 0.71263 0.0
C142 C 0.74245 0.59941 0.72655 0.0
O143 O 0.72168 0.61326 0.76443 0.0
O144 O 0.56073 0.77201 0.63588 0.0
Zn145 Zn 0.674 0.6703 0.68589 0.0
N146 N 0.55219 0.80764 0.74191 0.0
C147 C 0.55012 0.85717 0.80958 0.0
C148 C 0.57278 0.82196 0.78161 0.0
C149 C 0.50849 0.8245 0.73038 0.0
N150 N 0.50613 0.87353 0.79845 0.0
C151 C 0.48407 0.85768 0.75981 0.0
O152 O 0.62198 0.6323 0.71445 0.0
C153 C 0.5799 0.64143 0.72643 0.0
O154 O 0.56219 0.68664 0.7232 0.0
H155 H 0.60647 0.80603 0.79157 0.0
H156 H 0.49226 0.80927 0.70003 0.0
C157 C 0.64343 0.63974 0.60194 0.0
C158 C 0.63439 0.64258 0.55558 0.0
C159 C 0.65264 0.73135 0.5562 0.0
C160 C 0.66281 0.7281 0.60255 0.0
N161 N 0.65822 0.68206 0.62412 0.0
N162 N 0.63976 0.68817 0.53342 0.0
H163 H 0.64156 0.60345 0.62 0.0
C164 C 0.54259 0.7344 0.61404 0.0
O165 O 0.54238 0.68886 0.63334 0.0
O166 O 0.73013 0.62118 0.68955 0.0
H167 H 0.67475 0.76164 0.62087 0.0
H168 H 0.56653 0.86984 0.84079 0.0
H169 H 0.65634 0.76746 0.53825 0.0
Zn170 Zn 0.57797 0.25727 0.28341 0.0
C171 C 0.71543 0.27927 0.24942 0.0
N172 N 0.71619 0.22971 0.23735 0.0
C173 C 0.67217 0.21399 0.24767 0.0
N174 N 0.6455 0.25254 0.26559 0.0
N175 N 0.67357 0.29315 0.26633 0.0
C176 C 0.72336 0.43048 0.24649 0.0
O177 O 0.70277 0.41086 0.21049 0.0
O178 O 0.56378 0.23944 0.35146 0.0
Zn179 Zn 0.66323 0.35612 0.29718 0.0
N180 N 0.54433 0.21068 0.24393 0.0
C181 C 0.53901 0.16589 0.17388 0.0
C182 C 0.56284 0.19932 0.20265 0.0
C183 C 0.50097 0.19342 0.25606 0.0
N184 N 0.49549 0.14899 0.18573 0.0
C185 C 0.47494 0.16257 0.22572 0.0
O186 O 0.60277 0.38934 0.28046 0.0
C187 C 0.5607 0.37632 0.27129 0.0
O188 O 0.54828 0.32905 0.27104 0.0
H189 H 0.59546 0.21675 0.19176 0.0
H190 H 0.48624 0.20698 0.28758 0.0
C191 C 0.66817 0.38319 0.3864 0.0
C192 C 0.66826 0.37825 0.43341 0.0
C193 C 0.65737 0.28851 0.42642 0.0
C194 C 0.65806 0.29354 0.37914 0.0
N195 N 0.66266 0.34113 0.36039 0.0
N196 N 0.6621 0.33115 0.45269 0.0
H197 H 0.67173 0.42046 0.37025 0.0
C198 C 0.528 0.25945 0.37132 0.0
O199 O 0.50059 0.29044 0.34783 0.0
O200 O 0.71337 0.41204 0.28542 0.0
H201 H 0.65497 0.26001 0.3578 0.0
H202 H 0.55392 0.15543 0.14141 0.0
H203 H 0.65314 0.25113 0.44206 0.0
Zn204 Zn 0.29339 0.37575 0.71632 0.0
C205 C 0.30607 0.22942 0.75413 0.0
N206 N 0.26394 0.23837 0.77365 0.0
C207 C 0.25808 0.28882 0.76689 0.0
N208 N 0.29438 0.30972 0.74415 0.0
N209 N 0.32569 0.27294 0.73663 0.0
C210 C 0.43471 0.24087 0.62992 0.0
O211 O 0.45834 0.20667 0.65365 0.0
O212 O 0.24825 0.4279 0.74432 0.0
Zn213 Zn 0.39262 0.2858 0.71928 0.0
N214 N 0.27382 0.36766 0.65475 0.0
C215 C 0.2469 0.31919 0.59176 0.0
C216 C 0.26908 0.3214 0.63398 0.0
C217 C 0.258 0.41155 0.63536 0.0
N218 N 0.23041 0.36323 0.57247 0.0
C219 C 0.23497 0.40979 0.59323 0.0
O220 O 0.41675 0.36136 0.72851 0.0
C221 C 0.398 0.40599 0.72513 0.0
O222 O 0.35402 0.41118 0.71933 0.0
H223 H 0.28098 0.2866 0.6506 0.0
H224 H 0.26373 0.44698 0.65347 0.0
C225 C 0.47389 0.22903 0.75553 0.0
C226 C 0.49719 0.19892 0.78871 0.0
C227 C 0.42872 0.20253 0.83477 0.0
C228 C 0.40695 0.23403 0.80288 0.0
N229 N 0.42863 0.24427 0.76264 0.0
N230 N 0.47322 0.18595 0.82707 0.0
H231 H 0.49192 0.24303 0.72576 0.0
C232 C 0.24217 0.44119 0.78542 0.0
O233 O 0.26574 0.41738 0.81768 0.0
O234 O 0.40632 0.27139 0.65035 0.0
H235 H 0.37311 0.25063 0.81076 0.0
H236 H 0.24242 0.28279 0.57461 0.0
H237 H 0.41107 0.19284 0.86618 0.0
Zn238 Zn 0.38776 0.75108 0.2861 0.0
C239 C 0.254 0.73239 0.24007 0.0
N240 N 0.25532 0.78236 0.22902 0.0
C241 C 0.29796 0.79704 0.24457 0.0
N242 N 0.32188 0.75752 0.2644 0.0
N243 N 0.2935 0.71733 0.26149 0.0
C244 C 0.24692 0.581 0.23463 0.0
O245 O 0.27075 0.5999 0.2002 0.0
O246 O 0.40046 0.75844 0.35535 0.0
Zn247 Zn 0.30102 0.65415 0.29333 0.0
N248 N 0.42444 0.80119 0.25322 0.0
C249 C 0.4375 0.85288 0.18774 0.0
C250 C 0.4109 0.81639 0.21101 0.0
C251 C 0.46568 0.81758 0.27151 0.0
N252 N 0.47886 0.86918 0.20592 0.0
C253 C 0.49433 0.85194 0.24706 0.0
O254 O 0.36349 0.62115 0.28362 0.0
C255 C 0.40546 0.63365 0.27344 0.0
O256 O 0.41789 0.68082 0.27079 0.0
H257 H 0.3801 0.79976 0.19525 0.0
H258 H 0.47724 0.80077 0.30322 0.0
C259 C 0.26916 0.62742 0.37821 0.0
C260 C 0.24816 0.63505 0.42069 0.0
C261 C 0.27083 0.72299 0.41743 0.0
C262 C 0.28998 0.71534 0.37441 0.0
N263 N 0.2886 0.66759 0.35588 0.0
N264 N 0.25019 0.68288 0.43942 0.0
H265 H 0.2698 0.59029 0.36199 0.0
C266 C 0.40953 0.7991 0.37795 0.0
O267 O 0.40468 0.84406 0.35802 0.0
O268 O 0.2536 0.59947 0.27404 0.0
H269 H 0.3041 0.74739 0.3554 0.0
H270 H 0.42653 0.86633 0.15458 0.0
H271 H 0.27144 0.76069 0.43284 0.0
H272 H 0.26886 0.0275 0.2068 0.0
H273 H 0.24067 0.02554 0.35067 0.0
H274 H 0.27423 0.93916 0.35654 0.0
H275 H 0.29779 0.8586 0.31824 0.0
H276 H 0.31594 0.85883 0.17324 0.0
H277 H 0.30212 0.9513 0.1705 0.0
C278 C 0.27083 1.00867 0.23965 0.0
C279 C 0.25132 0.03273 0.27806 0.0
C280 C 0.28887 0.95836 0.24256 0.0
C281 C 0.25474 1.00776 0.32038 0.0
C282 C 0.27395 0.95823 0.32378 0.0
C283 C 0.30105 0.87957 0.28651 0.0
C284 C 0.30954 0.85227 0.2462 0.0
C285 C 0.28939 0.93231 0.28479 0.0
C286 C 0.31129 0.87932 0.20489 0.0
C287 C 0.30238 0.93209 0.20321 0.0
H288 H 0.92463 0.6808 0.66882 0.0
H289 H 0.93714 0.65783 0.81358 0.0
H290 H 0.85281 0.67361 0.82249 0.0
H291 H 0.7801 0.71218 0.79072 0.0
H292 H 0.76802 0.73425 0.64626 0.0
H293 H 0.84796 0.70058 0.63545 0.0
C294 C 0.90883 0.67752 0.70221 0.0
C295 C 0.93756 0.67114 0.74072 0.0
C296 C 0.86067 0.6878 0.7072 0.0
C297 C 0.91616 0.66542 0.78354 0.0
C298 C 0.86793 0.67448 0.78873 0.0
C299 C 0.79499 0.70858 0.75697 0.0
C300 C 0.76945 0.72608 0.71932 0.0
C301 C 0.84066 0.68911 0.75115 0.0
C302 C 0.78795 0.72113 0.67552 0.0
C303 C 0.83336 0.70185 0.66941 0.0
H304 H 0.66659 0.14617 0.3172 0.0
H305 H 0.66091 0.15831 0.17161 0.0
H306 H 0.6782 0.0669 0.16433 0.0
H307 H 0.71092 0.9885 0.19867 0.0
H308 H 0.72414 0.97812 0.34433 0.0
H309 H 0.68807 0.06287 0.35231 0.0
C310 C 0.66663 0.12801 0.28409 0.0
C311 C 0.66087 0.15865 0.24506 0.0
C312 C 0.67985 0.07585 0.28011 0.0
C313 C 0.66339 0.13521 0.2022 0.0
C314 C 0.67433 0.08304 0.19799 0.0
C315 C 0.70507 1.00426 0.23224 0.0
C316 C 0.72125 0.97723 0.27075 0.0
C317 C 0.68515 0.05368 0.23661 0.0
C318 C 0.71281 0.99824 0.31396 0.0
C319 C 0.69211 0.04686 0.31862 0.0
H320 H 0.05393 0.35347 0.81979 0.0
H321 H 0.05638 0.40684 0.68041 0.0
H322 H 0.14065 0.39188 0.67735 0.0
H323 H 0.20725 0.34277 0.70686 0.0
H324 H 0.20688 0.2881 0.84464 0.0
H325 H 0.1261 0.32038 0.8545 0.0
C326 C 0.07226 0.36177 0.78848 0.0
C327 C 0.0475 0.37707 0.74908 0.0
C328 C 0.12061 0.35091 0.78608 0.0
C329 C 0.07365 0.39246 0.71071 0.0
C330 C 0.12198 0.3835 0.70862 0.0
C331 C 0.19039 0.34003 0.73953 0.0
C332 C 0.21297 0.31439 0.77517 0.0
C333 C 0.14483 0.35925 0.7449 0.0
C334 C 0.18991 0.30844 0.81691 0.0
C335 C 0.14402 0.32705 0.82255 0.0
H336 H 0.27065 1.00601 0.70372 0.0
H337 H 0.27187 0.99308 0.84994 0.0
H338 H 0.30791 0.07763 0.85586 0.0
H339 H 0.32225 0.16151 0.82063 0.0
H340 H 0.31949 0.17713 0.67529 0.0
H341 H 0.30274 0.08504 0.66769 0.0
C342 C 0.27981 0.02116 0.73683 0.0
C343 C 0.26706 0.99368 0.77636 0.0
C344 C 0.30039 0.07046 0.74013 0.0
C345 C 0.28016 1.01361 0.81892 0.0
C346 C 0.30091 0.06212 0.82241 0.0
C347 C 0.32067 0.14409 0.78723 0.0
C348 C 0.32224 0.17589 0.74858 0.0
C349 C 0.30899 0.09181 0.78341 0.0
C350 C 0.31923 0.15325 0.70549 0.0
C351 C 0.30855 0.10075 0.70126 0.0
H352 H 0.21169 0.69299 0.31327 0.0
H353 H 0.19597 0.71207 0.16898 0.0
H354 H 0.11495 0.67909 0.17324 0.0
H355 H 0.04637 0.65772 0.22001 0.0
H356 H 0.06195 0.64671 0.36571 0.0
H357 H 0.14679 0.65839 0.35848 0.0
C358 C 0.19124 0.68771 0.28263 0.0
C359 C 0.20961 0.70372 0.24085 0.0
C360 C 0.1449 0.66974 0.28565 0.0
C361 C 0.18225 0.69925 0.20139 0.0
C362 C 0.13614 0.68045 0.20389 0.0
C363 C 0.06815 0.65787 0.25029 0.0
C364 C 0.04731 0.65429 0.29357 0.0
C365 C 0.11656 0.66764 0.24618 0.0
C366 C 0.0767 0.65074 0.332 0.0
C367 C 0.12526 0.65801 0.32801 0.0
H368 H 0.70245 0.04543 0.69381 0.0
H369 H 0.71871 0.04137 0.83956 0.0
H370 H 0.68743 0.95431 0.84162 0.0
H371 H 0.67161 0.87421 0.80078 0.0
H372 H 0.65485 0.87625 0.65569 0.0
H373 H 0.66883 0.96933 0.65456 0.0
C374 C 0.69818 0.0259 0.7261 0.0
C375 C 0.71425 0.04958 0.76631 0.0
C376 C 0.68005 0.97535 0.72715 0.0
C377 C 0.70746 0.02403 0.80795 0.0
C378 C 0.68957 0.97404 0.80922 0.0
C379 C 0.66836 0.89559 0.76924 0.0
C380 C 0.66161 0.86867 0.72845 0.0
C381 C 0.67782 0.94859 0.7689 0.0
C382 C 0.65884 0.8964 0.68761 0.0
C383 C 0.66784 0.94947 0.68693 0.0
H384 H 0.77858 0.30851 0.18591 0.0
H385 H 0.7489 0.31305 0.32918 0.0
H386 H 0.82544 0.35238 0.34397 0.0
H387 H 0.90467 0.36984 0.31793 0.0
H388 H 0.93819 0.35965 0.17529 0.0
H389 H 0.8558 0.3401 0.1581 0.0
C390 C 0.78888 0.31916 0.2201 0.0
C391 C 0.75859 0.30868 0.25647 0.0
C392 C 0.83349 0.34049 0.22839 0.0
C393 C 0.77173 0.32181 0.3008 0.0
C394 C 0.81545 0.34408 0.30922 0.0
C395 C 0.89395 0.36497 0.28284 0.0
C396 C 0.92799 0.36364 0.24829 0.0
C397 C 0.84722 0.35168 0.27349 0.0
C398 C 0.91305 0.3585 0.20291 0.0
C399 C 0.86594 0.34722 0.19301 0.0
H400 H 0.78055 0.54727 0.79872 0.0
H401 H 0.77191 0.54559 0.6524 0.0
H402 H 0.80369 0.45854 0.65129 0.0
H403 H 0.81718 0.37769 0.69241 0.0
H404 H 0.82434 0.37739 0.8382 0.0
H405 H 0.81131 0.47052 0.83917 0.0
C406 C 0.78666 0.5283 0.76653 0.0
C407 C 0.77252 0.55251 0.72577 0.0
C408 C 0.80462 0.47772 0.76612 0.0
C409 C 0.78168 0.52776 0.68434 0.0
C410 C 0.79977 0.47778 0.68365 0.0
C411 C 0.81825 0.39853 0.72425 0.0
C412 C 0.82219 0.37091 0.76521 0.0
C413 C 0.8091 0.4516 0.72438 0.0
C414 C 0.82264 0.39797 0.8063 0.0
C415 C 0.81414 0.45113 0.80678 0.0
H416 H 0.25974 0.18981 0.20423 0.0
H417 H 0.26985 0.2196 0.34741 0.0
H418 H 0.35146 0.18792 0.34788 0.0
H419 H 0.42194 0.16398 0.30481 0.0
H420 H 0.41078 0.13936 0.15999 0.0
H421 H 0.32605 0.15177 0.16381 0.0
C422 C 0.27908 0.1872 0.2358 0.0
C423 C 0.25891 0.20577 0.27581 0.0
C424 C 0.32561 0.1695 0.23554 0.0
C425 C 0.28489 0.20464 0.31635 0.0
C426 C 0.33137 0.18663 0.31656 0.0
C427 C 0.40128 0.1614 0.27395 0.0
C428 C 0.42349 0.15386 0.23172 0.0
C429 C 0.35263 0.17093 0.27588 0.0
C430 C 0.39519 0.14668 0.19288 0.0
C431 C 0.3466 0.15425 0.19483 0.0
H432 H 0.17064 0.65605 0.85357 0.0
H433 H 0.16067 0.67846 0.70913 0.0
H434 H 0.17003 0.58686 0.69654 0.0
H435 H 0.19888 0.50468 0.72498 0.0
H436 H 0.22299 0.48398 0.86853 0.0
H437 H 0.19076 0.56962 0.88321 0.0
C438 C 0.16795 0.64021 0.81964 0.0
C439 C 0.16206 0.67377 0.78251 0.0
C440 C 0.17812 0.58776 0.81241 0.0
C441 C 0.1617 0.65329 0.73844 0.0
C442 C 0.16859 0.60086 0.73114 0.0
C443 C 0.19628 0.51836 0.75965 0.0
C444 C 0.21431 0.48825 0.79549 0.0
C445 C 0.17944 0.56832 0.76765 0.0
C446 C 0.21007 0.50657 0.84017 0.0
C447 C 0.19165 0.55566 0.8486 0.0
H448 H 0.56727 0.86819 0.19049 0.0
H449 H 0.53422 0.85358 0.333 0.0
H450 H 0.61692 0.83523 0.34981 0.0
H451 H 0.69436 0.80582 0.32152 0.0
H452 H 0.72534 0.81732 0.17879 0.0
H453 H 0.64763 0.85486 0.1644 0.0
C454 C 0.5782 0.86262 0.22547 0.0
C455 C 0.54428 0.85966 0.26009 0.0
C456 C 0.62534 0.85058 0.23466 0.0
C457 C 0.55935 0.85363 0.30535 0.0
C458 C 0.60663 0.84313 0.31503 0.0
C459 C 0.68414 0.8177 0.28755 0.0
C460 C 0.7148 0.80912 0.25116 0.0
C461 C 0.63921 0.83833 0.27956 0.0
C462 C 0.70193 0.82415 0.20714 0.0
C463 C 0.65762 0.84543 0.19898 0.0
H464 H 0.7608 0.4895 0.31435 0.0
H465 H 0.75304 0.4777 0.16849 0.0
H466 H 0.78967 0.5622 0.16067 0.0
H467 H 0.81016 0.64566 0.19536 0.0
H468 H 0.8095 0.65964 0.34081 0.0
H469 H 0.7921 0.56837 0.34876 0.0
C470 C 0.76797 0.50489 0.28081 0.0
C471 C 0.75319 0.47749 0.24211 0.0
C472 C 0.78816 0.55424 0.27649 0.0
C473 C 0.76323 0.4981 0.19896 0.0
C474 C 0.78429 0.54657 0.19441 0.0
C475 C 0.80887 0.62794 0.22871 0.0
C476 C 0.81318 0.65913 0.26744 0.0
C477 C 0.79525 0.57589 0.23293 0.0
C478 C 0.80867 0.63618 0.3105 0.0
C479 C 0.79747 0.58407 0.31504 0.0
H480 H 0.55595 0.19606 0.71389 0.0
H481 H 0.55508 0.17558 0.85966 0.0
H482 H 0.64049 0.18043 0.86133 0.0
H483 H 0.71274 0.21024 0.82444 0.0
H484 H 0.71366 0.23805 0.68036 0.0
H485 H 0.63069 0.21214 0.6751 0.0
C486 C 0.57417 0.19279 0.74611 0.0
C487 C 0.54862 0.1884 0.78684 0.0
C488 C 0.62339 0.19776 0.74725 0.0
C489 C 0.57347 0.18048 0.82775 0.0
C490 C 0.62249 0.18355 0.82893 0.0
C491 C 0.69511 0.20859 0.79174 0.0
C492 C 0.71874 0.22513 0.75276 0.0
C493 C 0.64743 0.19517 0.78934 0.0
C494 C 0.69571 0.22467 0.71061 0.0
C495 C 0.64842 0.21015 0.7077 0.0
H496 H 0.19798 0.52989 0.30001 0.0
H497 H 0.23155 0.52491 0.15729 0.0
H498 H 0.19807 0.43853 0.15211 0.0
H499 H 0.174 0.35877 0.19149 0.0
H500 H 0.15009 0.36192 0.33562 0.0
H501 H 0.16359 0.45448 0.33685 0.0
C502 C 0.19722 0.51038 0.26753 0.0
C503 C 0.21829 0.53351 0.22934 0.0
C504 C 0.17929 0.46008 0.26511 0.0
C505 C 0.21626 0.50782 0.18743 0.0
C506 C 0.19715 0.45829 0.18443 0.0
C507 C 0.16914 0.3804 0.22253 0.0
C508 C 0.15925 0.35395 0.26308 0.0
C509 C 0.1804 0.43318 0.22346 0.0
C510 C 0.15585 0.38179 0.30373 0.0
C511 C 0.16449 0.4346 0.30457 0.0
H512 H 0.2732 0.81881 0.71633 0.0
H513 H 0.26552 0.83 0.86185 0.0
H514 H 0.34554 0.8654 0.86452 0.0
H515 H 0.4214 0.87539 0.82675 0.0
H516 H 0.43051 0.86099 0.68097 0.0
H517 H 0.34568 0.84601 0.67679 0.0
C518 C 0.28891 0.83039 0.74833 0.0
C519 C 0.2643 0.82231 0.78885 0.0
C520 C 0.3351 0.8494 0.74951 0.0
C521 C 0.28422 0.83683 0.83039 0.0
C522 C 0.32989 0.85665 0.83184 0.0
C523 C 0.40483 0.87052 0.79383 0.0
C524 C 0.43269 0.8665 0.75454 0.0
C525 C 0.35635 0.8607 0.79179 0.0
C526 C 0.41028 0.86156 0.7121 0.0
C527 C 0.36171 0.85314 0.70961 0.0
H528 H 0.08414 0.03384 0.24678 0.0
H529 H 0.96971 0.14359 0.2424 0.0
H530 H 0.91274 0.0738 0.25177 0.0
H531 H 0.89515 0.98157 0.25585 0.0
H532 H 0.00926 0.87142 0.2593 0.0
H533 H 0.06661 0.94171 0.25656 0.0
C534 C 0.04674 0.04268 0.24804 0.0
C535 C 0.03133 0.09412 0.24332 0.0
C536 C 0.01411 1.00228 0.25343 0.0
C537 C 0.9827 0.10457 0.24572 0.0
C538 C 0.95006 0.0646 0.25104 0.0
C539 C 0.93257 0.97273 0.25658 0.0
C540 C 0.94771 0.92094 0.25746 0.0
C541 C 0.96533 1.01329 0.25422 0.0
C542 C -0.00357 0.91066 0.25873 0.0
C543 C 0.02929 0.95092 0.25681 0.0
H544 H 0.89223 0.04551 0.78547 0.0
H545 H 0.00467 0.15695 0.77415 0.0
H546 H 0.06257 0.08747 0.77058 0.0
H547 H 0.08184 0.99581 0.77672 0.0
H548 H 0.96982 0.88416 0.78966 0.0
H549 H 0.91123 0.95319 0.78596 0.0
C550 C 0.92935 0.05478 0.78177 0.0
C551 C 0.94393 0.10671 0.78048 0.0
C552 C 0.9626 1.01457 0.78019 0.0
C553 C -0.00774 0.11758 0.77538 0.0
C554 C 0.02548 0.07779 0.77345 0.0
C555 C 0.0446 0.9863 0.77828 0.0
C556 C 0.03044 0.93461 0.78388 0.0
C557 C 0.01113 0.02623 0.77675 0.0
C558 C 0.98191 0.92339 0.78541 0.0
C559 C 0.94834 0.96294 0.78352 0.0
H560 H 0.48468 0.63025 0.71593 0.0
H561 H 0.60942 0.54925 0.76031 0.0
H562 H 0.565 0.46899 0.76461 0.0
H563 H 0.49148 0.41986 0.75026 0.0
H564 H 0.36765 0.50239 0.70458 0.0
H565 H 0.41073 0.58268 0.70618 0.0
C566 C 0.50185 0.59533 0.72764 0.0
C567 C 0.55027 0.59602 0.73787 0.0
C568 C 0.47635 0.54882 0.72902 0.0
C569 C 0.57209 0.54998 0.75222 0.0
C570 C 0.54678 0.50383 0.75441 0.0
C571 C 0.47396 0.45538 0.74077 0.0
C572 C 0.4263 0.45439 0.72717 0.0
C573 C 0.49906 0.5024 0.7418 0.0
C574 C 0.40426 0.5013 0.71527 0.0
C575 C 0.42885 0.54769 0.71617 0.0
H576 H 0.57749 0.47907 0.2626 0.0
H577 H 0.464 0.36828 0.26609 0.0
H578 H 0.40627 0.43829 0.26438 0.0
H579 H 0.38818 0.53071 0.26717 0.0
H580 H 0.50181 0.64137 0.26486 0.0
H581 H 0.55931 0.57135 0.26066 0.0
C582 C 0.54012 0.46998 0.26261 0.0
C583 C 0.52526 0.41815 0.26478 0.0
C584 C 0.50713 0.51045 0.26213 0.0
C585 C 0.47661 0.40755 0.2644 0.0
C586 C 0.44354 0.44766 0.26365 0.0
C587 C 0.42551 0.53974 0.26548 0.0
C588 C 0.44052 0.59156 0.26673 0.0
C589 C 0.45842 0.49924 0.26335 0.0
C590 C 0.4891 0.60211 0.26404 0.0
C591 C 0.52205 0.562 0.26176 0.0
H592 H 0.25057 0.04688 0.10951 0.0
H593 H 0.23797 0.15027 0.99486 0.0
H594 H 0.2418 0.07759 0.94331 0.0
H595 H 0.22512 0.98725 0.93265 0.0
H596 H 0.22122 0.88415 0.04773 0.0
H597 H 0.246 0.9543 0.09755 0.0
C598 C 0.24801 0.05383 0.07333 0.0
C599 C 0.24043 0.10387 0.05627 0.0
C600 C 0.2464 1.01171 0.04403 0.0
C601 C 0.24198 0.11208 0.00912 0.0
C602 C 0.24387 0.07047 0.97954 0.0
C603 C 0.23161 0.97925 0.96825 0.0
C604 C 0.22096 0.93066 0.98667 0.0
C605 C 0.24251 0.02024 0.99682 0.0
C606 C 0.22886 0.92145 0.03301 0.0
C607 C 0.24274 0.96157 0.06144 0.0
H608 H 0.08592 0.7373 0.99956 0.0
H609 H 0.97304 0.71554 0.90304 0.0
H610 H 0.91632 0.70724 0.96508 0.0
H611 H 0.89797 0.70878 0.04716 0.0
H612 H 0.01019 0.73675 0.14312 0.0
H613 H 0.06749 0.74005 0.08133 0.0
C614 C 0.04897 0.73033 0.99208 0.0
C615 C 0.03396 0.72688 0.94652 0.0
C616 C 0.01617 0.72701 0.02802 0.0
C617 C 0.98573 0.71844 0.93765 0.0
C618 C 0.95317 0.71372 0.97319 0.0
C619 C 0.93499 0.71534 0.05453 0.0
C620 C 0.94961 0.72242 0.09987 0.0
C621 C 0.96784 0.71835 0.01856 0.0
C622 C -0.00224 0.73144 0.10864 0.0
C623 C 0.03068 0.73321 0.07326 0.0
H624 H 0.86552 0.06922 0.9429 0.0
H625 H 0.7699 0.14578 0.03487 0.0
H626 H 0.76958 0.07025 0.08391 0.0
H627 H 0.78999 0.98057 0.09664 0.0
H628 H 0.88233 0.90174 1.00343 0.0
H629 H 0.88829 0.9799 0.95718 0.0
C630 C 0.84407 0.06938 0.97331 0.0
C631 C 0.81666 0.11273 0.98445 0.0
C632 C 0.84282 0.02529 1.0006 0.0
C633 C 0.79109 0.1129 0.02527 0.0
C634 C 0.79055 0.06958 0.05317 0.0
C635 C 0.81234 0.98065 0.06679 0.0
C636 C 0.83633 0.93574 0.05375 0.0
C637 C 0.81539 0.02529 0.04057 0.0
C638 C 0.86361 0.93598 0.01405 0.0
C639 C 0.86717 0.98061 0.98782 0.0
H640 H 0.98506 0.2863 0.10597 0.0
H641 H 0.11745 0.29692 0.03478 0.0
H642 H 0.0755 0.29825 0.96191 0.0
H643 H 0.00056 0.29786 0.91794 0.0
H644 H 0.86826 0.29608 0.99005 0.0
H645 H 0.91033 0.28988 0.06237 0.0
C646 C 0.00471 0.28853 0.07446 0.0
C647 C 0.05446 0.29095 0.0759 0.0
C648 C 0.98017 0.29109 0.03261 0.0
C649 C 0.07924 0.29492 0.03472 0.0
C650 C 0.05521 0.29566 0.99298 0.0
C651 C 0.98098 0.29598 0.9495 0.0
C652 C 0.93113 0.29713 0.94831 0.0
C653 C 0.0056 0.294 0.9914 0.0
C654 C 0.90648 0.29536 0.98972 0.0
C655 C 0.93059 0.29169 0.03123 0.0
H656 H 0.60238 0.41725 0.48873 0.0
H657 H 0.74158 0.44397 0.43485 0.0
H658 H 0.74065 0.53193 0.46384 0.0
H659 H 0.69886 0.60178 0.50178 0.0
H660 H 0.56135 0.57496 0.55913 0.0
H661 H 0.56168 0.48673 0.52997 0.0
C662 C 0.63285 0.44212 0.48467 0.0
C663 C 0.67221 0.42475 0.46056 0.0
C664 C 0.63143 0.49285 0.50027 0.0
C665 C 0.71132 0.45701 0.45413 0.0
C666 C 0.71048 0.50727 0.47 0.0
C667 C 0.66858 0.5768 0.5067 0.0
C668 C 0.62942 0.59462 0.53073 0.0
C669 C 0.67029 0.52587 0.49212 0.0
C670 C 0.59101 0.56196 0.53906 0.0
C671 C 0.59164 0.51148 0.52322 0.0
H672 H 0.50523 0.19628 0.57941 0.0
H673 H 0.38706 0.30046 0.56797 0.0
H674 H 0.40528 0.31457 0.48785 0.0
H675 H 0.45542 0.29904 0.4212 0.0
H676 H 0.57449 0.19616 0.43207 0.0
H677 H 0.55535 0.18015 0.51199 0.0
C678 C 0.48316 0.22182 0.5594 0.0
C679 C 0.44456 0.24713 0.58015 0.0
C680 C 0.49422 0.23029 0.51311 0.0
C681 C 0.41686 0.28038 0.55334 0.0
C682 C 0.42735 0.28855 0.50736 0.0
C683 C 0.4773 0.27297 0.44087 0.0
C684 C 0.51656 0.24891 0.4202 0.0
C685 C 0.46609 0.26401 0.48692 0.0
C686 C 0.54421 0.21535 0.44672 0.0
C687 C 0.53319 0.20613 0.49255 0.0
H688 H 0.21103 0.41979 0.50445 0.0
H689 H 0.22044 0.50851 0.62816 0.0
H690 H 0.21967 0.58742 0.58463 0.0
H691 H 0.23205 0.62992 0.51126 0.0
H692 H 0.21275 0.54244 0.38805 0.0
H693 H 0.20066 0.46481 0.43212 0.0
C694 C 0.21207 0.45622 0.52223 0.0
C695 C 0.22002 0.45754 0.56931 0.0
C696 C 0.21056 0.50195 0.49712 0.0
C697 C 0.21856 0.50547 0.59165 0.0
C698 C 0.21734 0.5511 0.56681 0.0
C699 C 0.2243 0.5942 0.49388 0.0
C700 C 0.22734 0.5915 0.44638 0.0
C701 C 0.21628 0.54957 0.51939 0.0
C702 C 0.21473 0.54524 0.4246 0.0
C703 C 0.207 0.50066 0.44979 0.0
H704 H 0.51143 0.82275 0.57017 0.0
H705 H 0.52276 0.65837 0.55436 0.0
H706 H 0.48195 0.66319 0.48186 0.0
H707 H 0.44156 0.71326 0.42261 0.0
H708 H 0.4292 0.87769 0.43701 0.0
H709 H 0.47074 0.87348 0.50979 0.0
C710 C 0.50531 0.78811 0.55065 0.0
C711 C 0.5205 0.74022 0.56807 0.0
C712 C 0.48084 0.79098 0.50863 0.0
C713 C 0.51168 0.69577 0.5422 0.0
C714 C 0.48807 0.69841 0.50055 0.0
C715 C 0.44755 0.74822 0.44174 0.0
C716 C 0.43181 0.79569 0.42407 0.0
C717 C 0.47205 0.74566 0.48352 0.0
C718 C 0.44057 0.84049 0.44954 0.0
C719 C 0.46461 0.83817 0.49126 0.0
loop_
_geom_bond_atom_site_label_1
_geom_bond_atom_site_label_2
_geom_bond_distance
_geom_bond_site_symmetry_2
_ccdc_geom_bond_type
Zn0 N4 2.020 . S
Zn0 O8 2.019 . S
Zn0 N10 2.119 . S
Zn0 O18 1.975 . S
C1 N2 1.334 . S
C1 N5 1.336 . S
N2 C1 1.334 . S
N2 C3 1.334 . S
C3 N2 1.334 . S
C3 N4 1.336 . S
N4 Zn0 2.020 . S
N4 C3 1.336 . S
N4 N5 1.354 . S
N5 C1 1.336 . S
N5 N4 1.354 . S
N5 Zn9 2.020 . S
C6 O7 1.244 . S
C6 O30 1.257 . S
O7 C6 1.244 . S
O8 Zn0 2.019 . S
O8 C28 1.257 . S
Zn9 N5 2.020 . S
Zn9 O16 1.975 . S
Zn9 N25 2.119 . S
Zn9 O30 2.019 . S
N10 Zn0 2.119 . S
N10 C12 1.334 . S
N10 C13 1.328 . S
C11 C12 1.391 . S
C11 N14 1.329 . S
C11 H32 0.930 . S
C12 N10 1.334 . S
C12 C11 1.391 . S
C12 H19 0.930 . S
C13 N10 1.328 . S
C13 C15 1.392 . S
C13 H20 0.930 . S
N14 C11 1.329 . S
N14 C15 1.331 . S
C15 C13 1.392 . S
C15 N14 1.331 . S
O16 Zn9 1.975 . S
O16 C17 1.252 . S
C17 O16 1.252 . S
C17 O18 1.252 . S
O18 Zn0 1.975 . S
O18 C17 1.252 . S
H19 C12 0.930 . S
H20 C13 0.930 . S
C21 C22 1.392 . S
C21 N25 1.328 . S
C21 H27 0.930 . S
C22 C21 1.392 . S
C22 N26 1.331 . S
C23 C24 1.391 . S
C23 N26 1.329 . S
C23 H33 0.930 . S
C24 C23 1.391 . S
C24 N25 1.334 . S
C24 H31 0.930 . S
N25 Zn9 2.119 . S
N25 C21 1.328 . S
N25 C24 1.334 . S
N26 C22 1.331 . S
N26 C23 1.329 . S
H27 C21 0.930 . S
C28 O8 1.257 . S
C28 O29 1.244 . S
O29 C28 1.244 . S
O30 C6 1.257 . S
O30 Zn9 2.019 . S
H31 C24 0.930 . S
H32 C11 0.930 . S
H33 C23 0.930 . S
Zn34 N38 2.020 . S
Zn34 O42 2.019 . S
Zn34 N44 2.119 . S
Zn34 O52 1.975 . S
C35 N36 1.334 . S
C35 N39 1.336 . S
N36 C35 1.334 . S
N36 C37 1.334 . S
C37 N36 1.334 . S
C37 N38 1.336 . S
N38 Zn34 2.020 . S
N38 C37 1.336 . S
N38 N39 1.354 . S
N39 C35 1.336 . S
N39 N38 1.354 . S
N39 Zn43 2.020 . S
C40 O41 1.244 . S
C40 O64 1.257 . S
O41 C40 1.244 . S
O42 Zn34 2.019 . S
O42 C62 1.257 . S
Zn43 N39 2.020 . S
Zn43 O50 1.975 . S
Zn43 N59 2.119 . S
Zn43 O64 2.019 . S
N44 Zn34 2.119 . S
N44 C46 1.334 . S
N44 C47 1.328 . S
C45 C46 1.391 . S
C45 N48 1.329 . S
C45 H66 0.930 . S
C46 N44 1.334 . S
C46 C45 1.391 . S
C46 H53 0.930 . S
C47 N44 1.328 . S
C47 C49 1.392 . S
C47 H54 0.930 . S
N48 C45 1.329 . S
N48 C49 1.331 . S
C49 C47 1.392 . S
C49 N48 1.331 . S
O50 Zn43 1.975 . S
O50 C51 1.252 . S
C51 O50 1.252 . S
C51 O52 1.252 . S
O52 Zn34 1.975 . S
O52 C51 1.252 . S
H53 C46 0.930 . S
H54 C47 0.930 . S
C55 C56 1.392 . S
C55 N59 1.328 . S
C55 H61 0.930 . S
C56 C55 1.392 . S
C56 N60 1.331 . S
C57 C58 1.391 . S
C57 N60 1.329 . S
C57 H67 0.930 . S
C58 C57 1.391 . S
C58 N59 1.334 . S
C58 H65 0.930 . S
N59 Zn43 2.119 . S
N59 C55 1.328 . S
N59 C58 1.334 . S
N60 C56 1.331 . S
N60 C57 1.329 . S
H61 C55 0.930 . S
C62 O42 1.257 . S
C62 O63 1.244 . S
O63 C62 1.244 . S
O64 C40 1.257 . S
O64 Zn43 2.019 . S
H65 C58 0.930 . S
H66 C45 0.930 . S
H67 C57 0.930 . S
Zn68 N72 2.020 . S
Zn68 O76 2.019 . S
Zn68 N78 2.119 . S
Zn68 O86 1.975 . S
C69 N70 1.334 . S
C69 N73 1.336 . S
N70 C69 1.334 . S
N70 C71 1.334 . S
C71 N70 1.334 . S
C71 N72 1.336 . S
N72 Zn68 2.020 . S
N72 C71 1.336 . S
N72 N73 1.354 . S
N73 C69 1.336 . S
N73 N72 1.354 . S
N73 Zn77 2.020 . S
C74 O75 1.244 . S
C74 O98 1.257 . S
O75 C74 1.244 . S
O76 Zn68 2.019 . S
O76 C96 1.257 . S
Zn77 N73 2.020 . S
Zn77 O84 1.975 . S
Zn77 N93 2.119 . S
Zn77 O98 2.019 . S
N78 Zn68 2.119 . S
N78 C80 1.334 . S
N78 C81 1.328 . S
C79 C80 1.391 . S
C79 N82 1.329 . S
C79 H100 0.930 . S
C80 N78 1.334 . S
C80 C79 1.391 . S
C80 H87 0.930 . S
C81 N78 1.328 . S
C81 C83 1.392 . S
C81 H88 0.930 . S
N82 C79 1.329 . S
N82 C83 1.331 . S
C83 C81 1.392 . S
C83 N82 1.331 . S
O84 Zn77 1.975 . S
O84 C85 1.252 . S
C85 O84 1.252 . S
C85 O86 1.252 . S
O86 Zn68 1.975 . S
O86 C85 1.252 . S
H87 C80 0.930 . S
H88 C81 0.930 . S
C89 C90 1.392 . S
C89 N93 1.328 . S
C89 H95 0.930 . S
C90 C89 1.392 . S
C90 N94 1.331 . S
C91 C92 1.391 . S
C91 N94 1.329 . S
C91 H101 0.930 . S
C92 C91 1.391 . S
C92 N93 1.334 . S
C92 H99 0.930 . S
N93 Zn77 2.119 . S
N93 C89 1.328 . S
N93 C92 1.334 . S
N94 C90 1.331 . S
N94 C91 1.329 . S
H95 C89 0.930 . S
C96 O76 1.257 . S
C96 O97 1.244 . S
O97 C96 1.244 . S
O98 C74 1.257 . S
O98 Zn77 2.019 . S
H99 C92 0.930 . S
H100 C79 0.930 . S
H101 C91 0.930 . S
Zn102 N106 2.020 . S
Zn102 O110 2.019 . S
Zn102 N112 2.119 . S
Zn102 O120 1.975 . S
C103 N104 1.334 . S
C103 N107 1.336 . S
N104 C103 1.334 . S
N104 C105 1.334 . S
C105 N104 1.334 . S
C105 N106 1.336 . S
N106 Zn102 2.020 . S
N106 C105 1.336 . S
N106 N107 1.354 . S
N107 C103 1.336 . S
N107 N106 1.354 . S
N107 Zn111 2.020 . S
C108 O109 1.244 . S
C108 O132 1.257 . S
O109 C108 1.244 . S
O110 Zn102 2.019 . S
O110 C130 1.257 . S
Zn111 N107 2.020 . S
Zn111 O118 1.975 . S
Zn111 N127 2.119 . S
Zn111 O132 2.019 . S
N112 Zn102 2.119 . S
N112 C114 1.334 . S
N112 C115 1.328 . S
C113 C114 1.391 . S
C113 N116 1.329 . S
C113 H134 0.930 . S
C114 N112 1.334 . S
C114 C113 1.391 . S
C114 H121 0.930 . S
C115 N112 1.328 . S
C115 C117 1.392 . S
C115 H122 0.930 . S
N116 C113 1.329 . S
N116 C117 1.331 . S
C117 C115 1.392 . S
C117 N116 1.331 . S
O118 Zn111 1.975 . S
O118 C119 1.252 . S
C119 O118 1.252 . S
C119 O120 1.252 . S
O120 Zn102 1.975 . S
O120 C119 1.252 . S
H121 C114 0.930 . S
H122 C115 0.930 . S
C123 C124 1.392 . S
C123 N127 1.328 . S
C123 H129 0.930 . S
C124 C123 1.392 . S
C124 N128 1.331 . S
C125 C126 1.391 . S
C125 N128 1.329 . S
C125 H135 0.930 . S
C126 C125 1.391 . S
C126 N127 1.334 . S
C126 H133 0.930 . S
N127 Zn111 2.119 . S
N127 C123 1.328 . S
N127 C126 1.334 . S
N128 C124 1.331 . S
N128 C125 1.329 . S
H129 C123 0.930 . S
C130 O110 1.257 . S
C130 O131 1.244 . S
O131 C130 1.244 . S
O132 C108 1.257 . S
O132 Zn111 2.019 . S
H133 C126 0.930 . S
H134 C113 0.930 . S
H135 C125 0.930 . S
Zn136 N140 2.020 . S
Zn136 O144 2.019 . S
Zn136 N146 2.119 . S
Zn136 O154 1.975 . S
C137 N138 1.334 . S
C137 N141 1.336 . S
N138 C137 1.334 . S
N138 C139 1.334 . S
C139 N138 1.334 . S
C139 N140 1.336 . S
N140 Zn136 2.020 . S
N140 C139 1.336 . S
N140 N141 1.354 . S
N141 C137 1.336 . S
N141 N140 1.354 . S
N141 Zn145 2.020 . S
C142 O143 1.244 . S
C142 O166 1.257 . S
O143 C142 1.244 . S
O144 Zn136 2.019 . S
O144 C164 1.257 . S
Zn145 N141 2.020 . S
Zn145 O152 1.975 . S
Zn145 N161 2.119 . S
Zn145 O166 2.019 . S
N146 Zn136 2.119 . S
N146 C148 1.334 . S
N146 C149 1.328 . S
C147 C148 1.391 . S
C147 N150 1.329 . S
C147 H168 0.930 . S
C148 N146 1.334 . S
C148 C147 1.391 . S
C148 H155 0.930 . S
C149 N146 1.328 . S
C149 C151 1.392 . S
C149 H156 0.930 . S
N150 C147 1.329 . S
N150 C151 1.331 . S
C151 C149 1.392 . S
C151 N150 1.331 . S
O152 Zn145 1.975 . S
O152 C153 1.252 . S
C153 O152 1.252 . S
C153 O154 1.252 . S
O154 Zn136 1.975 . S
O154 C153 1.252 . S
H155 C148 0.930 . S
H156 C149 0.930 . S
C157 C158 1.392 . S
C157 N161 1.328 . S
C157 H163 0.930 . S
C158 C157 1.392 . S
C158 N162 1.331 . S
C159 C160 1.391 . S
C159 N162 1.329 . S
C159 H169 0.930 . S
C160 C159 1.391 . S
C160 N161 1.334 . S
C160 H167 0.930 . S
N161 Zn145 2.119 . S
N161 C157 1.328 . S
N161 C160 1.334 . S
N162 C158 1.331 . S
N162 C159 1.329 . S
H163 C157 0.930 . S
C164 O144 1.257 . S
C164 O165 1.244 . S
O165 C164 1.244 . S
O166 C142 1.257 . S
O166 Zn145 2.019 . S
H167 C160 0.930 . S
H168 C147 0.930 . S
H169 C159 0.930 . S
Zn170 N174 2.020 . S
Zn170 O178 2.019 . S
Zn170 N180 2.119 . S
Zn170 O188 1.975 . S
C171 N172 1.334 . S
C171 N175 1.336 . S
N172 C171 1.334 . S
N172 C173 1.334 . S
C173 N172 1.334 . S
C173 N174 1.336 . S
N174 Zn170 2.020 . S
N174 C173 1.336 . S
N174 N175 1.354 . S
N175 C171 1.336 . S
N175 N174 1.354 . S
N175 Zn179 2.020 . S
C176 O177 1.244 . S
C176 O200 1.257 . S
O177 C176 1.244 . S
O178 Zn170 2.019 . S
O178 C198 1.257 . S
Zn179 N175 2.020 . S
Zn179 O186 1.975 . S
Zn179 N195 2.119 . S
Zn179 O200 2.019 . S
N180 Zn170 2.119 . S
N180 C182 1.334 . S
N180 C183 1.328 . S
C181 C182 1.391 . S
C181 N184 1.329 . S
C181 H202 0.930 . S
C182 N180 1.334 . S
C182 C181 1.391 . S
C182 H189 0.930 . S
C183 N180 1.328 . S
C183 C185 1.392 . S
C183 H190 0.930 . S
N184 C181 1.329 . S
N184 C185 1.331 . S
C185 C183 1.392 . S
C185 N184 1.331 . S
O186 Zn179 1.975 . S
O186 C187 1.252 . S
C187 O186 1.252 . S
C187 O188 1.252 . S
O188 Zn170 1.975 . S
O188 C187 1.252 . S
H189 C182 0.930 . S
H190 C183 0.930 . S
C191 C192 1.392 . S
C191 N195 1.328 . S
C191 H197 0.930 . S
C192 C191 1.392 . S
C192 N196 1.331 . S
C193 C194 1.391 . S
C193 N196 1.329 . S
C193 H203 0.930 . S
C194 C193 1.391 . S
C194 N195 1.334 . S
C194 H201 0.930 . S
N195 Zn179 2.119 . S
N195 C191 1.328 . S
N195 C194 1.334 . S
N196 C192 1.331 . S
N196 C193 1.329 . S
H197 C191 0.930 . S
C198 O178 1.257 . S
C198 O199 1.244 . S
O199 C198 1.244 . S
O200 C176 1.257 . S
O200 Zn179 2.019 . S
H201 C194 0.930 . S
H202 C181 0.930 . S
H203 C193 0.930 . S
Zn204 N208 2.020 . S
Zn204 O212 2.019 . S
Zn204 N214 2.119 . S
Zn204 O222 1.975 . S
C205 N206 1.334 . S
C205 N209 1.336 . S
N206 C205 1.334 . S
N206 C207 1.334 . S
C207 N206 1.334 . S
C207 N208 1.336 . S
N208 Zn204 2.020 . S
N208 C207 1.336 . S
N208 N209 1.354 . S
N209 C205 1.336 . S
N209 N208 1.354 . S
N209 Zn213 2.020 . S
C210 O211 1.244 . S
C210 O234 1.257 . S
O211 C210 1.244 . S
O212 Zn204 2.019 . S
O212 C232 1.257 . S
Zn213 N209 2.020 . S
Zn213 O220 1.975 . S
Zn213 N229 2.119 . S
Zn213 O234 2.019 . S
N214 Zn204 2.119 . S
N214 C216 1.334 . S
N214 C217 1.328 . S
C215 C216 1.391 . S
C215 N218 1.329 . S
C215 H236 0.930 . S
C216 N214 1.334 . S
C216 C215 1.391 . S
C216 H223 0.930 . S
C217 N214 1.328 . S
C217 C219 1.392 . S
C217 H224 0.930 . S
N218 C215 1.329 . S
N218 C219 1.331 . S
C219 C217 1.392 . S
C219 N218 1.331 . S
O220 Zn213 1.975 . S
O220 C221 1.252 . S
C221 O220 1.252 . S
C221 O222 1.252 . S
O222 Zn204 1.975 . S
O222 C221 1.252 . S
H223 C216 0.930 . S
H224 C217 0.930 . S
C225 C226 1.392 . S
C225 N229 1.328 . S
C225 H231 0.930 . S
C226 C225 1.392 . S
C226 N230 1.331 . S
C227 C228 1.391 . S
C227 N230 1.329 . S
C227 H237 0.930 . S
C228 C227 1.391 . S
C228 N229 1.334 . S
C228 H235 0.930 . S
N229 Zn213 2.119 . S
N229 C225 1.328 . S
N229 C228 1.334 . S
N230 C226 1.331 . S
N230 C227 1.329 . S
H231 C225 0.930 . S
C232 O212 1.257 . S
C232 O233 1.244 . S
O233 C232 1.244 . S
O234 C210 1.257 . S
O234 Zn213 2.019 . S
H235 C228 0.930 . S
H236 C215 0.930 . S
H237 C227 0.930 . S
Zn238 N242 2.020 . S
Zn238 O246 2.019 . S
Zn238 N248 2.119 . S
Zn238 O256 1.975 . S
C239 N240 1.334 . S
C239 N243 1.336 . S
N240 C239 1.334 . S
N240 C241 1.334 . S
C241 N240 1.334 . S
C241 N242 1.336 . S
N242 Zn238 2.020 . S
N242 C241 1.336 . S
N242 N243 1.354 . S
N243 C239 1.336 . S
N243 N242 1.354 . S
N243 Zn247 2.020 . S
C244 O245 1.244 . S
C244 O268 1.257 . S
O245 C244 1.244 . S
O246 Zn238 2.019 . S
O246 C266 1.257 . S
Zn247 N243 2.020 . S
Zn247 O254 1.975 . S
Zn247 N263 2.119 . S
Zn247 O268 2.019 . S
N248 Zn238 2.119 . S
N248 C250 1.334 . S
N248 C251 1.328 . S
C249 C250 1.391 . S
C249 N252 1.329 . S
C249 H270 0.930 . S
C250 N248 1.334 . S
C250 C249 1.391 . S
C250 H257 0.930 . S
C251 N248 1.328 . S
C251 C253 1.392 . S
C251 H258 0.930 . S
N252 C249 1.329 . S
N252 C253 1.331 . S
C253 C251 1.392 . S
C253 N252 1.331 . S
O254 Zn247 1.975 . S
O254 C255 1.252 . S
C255 O254 1.252 . S
C255 O256 1.252 . S
O256 Zn238 1.975 . S
O256 C255 1.252 . S
H257 C250 0.930 . S
H258 C251 0.930 . S
C259 C260 1.392 . S
C259 N263 1.328 . S
C259 H265 0.930 . S
C260 C259 1.392 . S
C260 N264 1.331 . S
C261 C262 1.391 . S
C261 N264 1.329 . S
C261 H271 0.930 . S
C262 C261 1.391 . S
C262 N263 1.334 . S
C262 H269 0.930 . S
N263 Zn247 2.119 . S
N263 C259 1.328 . S
N263 C262 1.334 . S
N264 C260 1.331 . S
N264 C261 1.329 . S
H265 C259 0.930 . S
C266 O246 1.257 . S
C266 O267 1.244 . S
O267 C266 1.244 . S
O268 C244 1.257 . S
O268 Zn247 2.019 . S
H269 C262 0.930 . S
H270 C249 0.930 . S
H271 C261 0.930 . S
H272 C278 0.930 . S
H273 C281 0.930 . S
H274 C282 0.930 . S
H275 C283 0.930 . S
H276 C286 0.930 . S
H277 C287 0.930 . S
C278 H272 0.930 . S
C278 C279 1.355 1_565 S
C278 C280 1.415 . S
C279 C278 1.355 1_545 S
C279 C281 1.419 . S
C280 C278 1.415 . S
C280 C285 1.425 . S
C280 C287 1.409 . S
C281 H273 0.930 . S
C281 C279 1.419 . S
C281 C282 1.362 1_545 S
C282 H274 0.930 . S
C282 C281 1.362 1_565 S
C282 C285 1.409 . S
C283 H275 0.930 . S
C283 C284 1.355 . S
C283 C285 1.415 . S
C284 C283 1.355 . S
C284 C286 1.419 . S
C285 C280 1.425 . S
C285 C282 1.409 . S
C285 C283 1.415 . S
C286 H276 0.930 . S
C286 C284 1.419 . S
C286 C287 1.362 . S
C287 H277 0.930 . S
C287 C280 1.409 . S
C287 C286 1.362 . S
H288 C294 0.930 . S
H289 C297 0.930 . S
H290 C298 0.930 . S
H291 C299 0.930 . S
H292 C302 0.930 . S
H293 C303 0.930 . S
C294 H288 0.930 . S
C294 C295 1.355 . S
C294 C296 1.415 . S
C295 C294 1.355 . S
C295 C297 1.419 . S
C296 C294 1.415 . S
C296 C301 1.425 . S
C296 C303 1.409 . S
C297 H289 0.930 . S
C297 C295 1.419 . S
C297 C298 1.362 . S
C298 H290 0.930 . S
C298 C297 1.362 . S
C298 C301 1.409 . S
C299 H291 0.930 . S
C299 C300 1.355 . S
C299 C301 1.415 . S
C300 C299 1.355 . S
C300 C302 1.419 . S
C301 C296 1.425 . S
C301 C298 1.409 . S
C301 C299 1.415 . S
C302 H292 0.930 . S
C302 C300 1.419 . S
C302 C303 1.362 . S
C303 H293 0.930 . S
C303 C296 1.409 . S
C303 C302 1.362 . S
H304 C310 0.930 . S
H305 C313 0.930 . S
H306 C314 0.930 . S
H307 C315 0.930 . S
H308 C318 0.930 . S
H309 C319 0.930 . S
C310 H304 0.930 . S
C310 C311 1.355 . S
C310 C312 1.415 . S
C311 C310 1.355 . S
C311 C313 1.419 . S
C312 C310 1.415 . S
C312 C317 1.425 . S
C312 C319 1.409 . S
C313 H305 0.930 . S
C313 C311 1.419 . S
C313 C314 1.362 . S
C314 H306 0.930 . S
C314 C313 1.362 . S
C314 C317 1.409 . S
C315 H307 0.930 . S
C315 C316 1.355 1_545 S
C315 C317 1.415 . S
C316 C315 1.355 1_565 S
C316 C318 1.419 . S
C317 C312 1.425 . S
C317 C314 1.409 . S
C317 C315 1.415 . S
C318 H308 0.930 . S
C318 C316 1.419 . S
C318 C319 1.362 1_565 S
C319 H309 0.930 . S
C319 C312 1.409 . S
C319 C318 1.362 1_545 S
H320 C326 0.930 . S
H321 C329 0.930 . S
H322 C330 0.930 . S
H323 C331 0.930 . S
H324 C334 0.930 . S
H325 C335 0.930 . S
C326 H320 0.930 . S
C326 C327 1.355 . S
C326 C328 1.415 . S
C327 C326 1.355 . S
C327 C329 1.419 . S
C328 C326 1.415 . S
C328 C333 1.425 . S
C328 C335 1.409 . S
C329 H321 0.930 . S
C329 C327 1.419 . S
C329 C330 1.362 . S
C330 H322 0.930 . S
C330 C329 1.362 . S
C330 C333 1.409 . S
C331 H323 0.930 . S
C331 C332 1.355 . S
C331 C333 1.415 . S
C332 C331 1.355 . S
C332 C334 1.419 . S
C333 C328 1.425 . S
C333 C330 1.409 . S
C333 C331 1.415 . S
C334 H324 0.930 . S
C334 C332 1.419 . S
C334 C335 1.362 . S
C335 H325 0.930 . S
C335 C328 1.409 . S
C335 C334 1.362 . S
H336 C342 0.930 1_565 S
H337 C345 0.930 . S
H338 C346 0.930 . S
H339 C347 0.930 . S
H340 C350 0.930 . S
H341 C351 0.930 . S
C342 H336 0.930 1_545 S
C342 C343 1.355 1_545 S
C342 C344 1.415 . S
C343 C342 1.355 1_565 S
C343 C345 1.419 1_565 S
C344 C342 1.415 . S
C344 C349 1.425 . S
C344 C351 1.409 . S
C345 H337 0.930 . S
C345 C343 1.419 1_545 S
C345 C346 1.362 . S
C346 H338 0.930 . S
C346 C345 1.362 . S
C346 C349 1.409 . S
C347 H339 0.930 . S
C347 C348 1.355 . S
C347 C349 1.415 . S
C348 C347 1.355 . S
C348 C350 1.419 . S
C349 C344 1.425 . S
C349 C346 1.409 . S
C349 C347 1.415 . S
C350 H340 0.930 . S
C350 C348 1.419 . S
C350 C351 1.362 . S
C351 H341 0.930 . S
C351 C344 1.409 . S
C351 C350 1.362 . S
H352 C358 0.930 . S
H353 C361 0.930 . S
H354 C362 0.930 . S
H355 C363 0.930 . S
H356 C366 0.930 1_655 S
H357 C367 0.930 . S
C358 H352 0.930 . S
C358 C359 1.355 . S
C358 C360 1.415 . S
C359 C358 1.355 . S
C359 C361 1.419 . S
C360 C358 1.415 . S
C360 C365 1.425 . S
C360 C367 1.409 . S
C361 H353 0.930 . S
C361 C359 1.419 . S
C361 C362 1.362 . S
C362 H354 0.930 . S
C362 C361 1.362 . S
C362 C365 1.409 . S
C363 H355 0.930 . S
C363 C364 1.355 . S
C363 C365 1.415 . S
C364 C363 1.355 . S
C364 C366 1.419 . S
C365 C360 1.425 . S
C365 C362 1.409 . S
C365 C363 1.415 . S
C366 H356 0.930 1_455 S
C366 C364 1.419 . S
C366 C367 1.362 . S
C367 H357 0.930 . S
C367 C360 1.409 . S
C367 C366 1.362 . S
H368 C374 0.930 . S
H369 C377 0.930 1_545 S
H370 C378 0.930 . S
H371 C379 0.930 . S
H372 C382 0.930 . S
H373 C383 0.930 . S
C374 H368 0.930 . S
C374 C375 1.355 1_565 S
C374 C376 1.415 . S
C375 C374 1.355 1_545 S
C375 C377 1.419 1_545 S
C376 C374 1.415 . S
C376 C381 1.425 . S
C376 C383 1.409 . S
C377 H369 0.930 1_565 S
C377 C375 1.419 1_565 S
C377 C378 1.362 . S
C378 H370 0.930 . S
C378 C377 1.362 . S
C378 C381 1.409 . S
C379 H371 0.930 . S
C379 C380 1.355 . S
C379 C381 1.415 . S
C380 C379 1.355 . S
C380 C382 1.419 . S
C381 C376 1.425 . S
C381 C378 1.409 . S
C381 C379 1.415 . S
C382 H372 0.930 . S
C382 C380 1.419 . S
C382 C383 1.362 . S
C383 H373 0.930 . S
C383 C376 1.409 . S
C383 C382 1.362 . S
H384 C390 0.930 . S
H385 C393 0.930 . S
H386 C394 0.930 . S
H387 C395 0.930 . S
H388 C398 0.930 . S
H389 C399 0.930 . S
C390 H384 0.930 . S
C390 C391 1.355 . S
C390 C392 1.415 . S
C391 C390 1.355 . S
C391 C393 1.419 . S
C392 C390 1.415 . S
C392 C397 1.425 . S
C392 C399 1.409 . S
C393 H385 0.930 . S
C393 C391 1.419 . S
C393 C394 1.362 . S
C394 H386 0.930 . S
C394 C393 1.362 . S
C394 C397 1.409 . S
C395 H387 0.930 . S
C395 C396 1.355 . S
C395 C397 1.415 . S
C396 C395 1.355 . S
C396 C398 1.419 . S
C397 C392 1.425 . S
C397 C394 1.409 . S
C397 C395 1.415 . S
C398 H388 0.930 . S
C398 C396 1.419 . S
C398 C399 1.362 . S
C399 H389 0.930 . S
C399 C392 1.409 . S
C399 C398 1.362 . S
H400 C406 0.930 . S
H401 C409 0.930 . S
H402 C410 0.930 . S
H403 C411 0.930 . S
H404 C414 0.930 . S
H405 C415 0.930 . S
C406 H400 0.930 . S
C406 C407 1.355 . S
C406 C408 1.415 . S
C407 C406 1.355 . S
C407 C409 1.419 . S
C408 C406 1.415 . S
C408 C413 1.425 . S
C408 C415 1.409 . S
C409 H401 0.930 . S
C409 C407 1.419 . S
C409 C410 1.362 . S
C410 H402 0.930 . S
C410 C409 1.362 . S
C410 C413 1.409 . S
C411 H403 0.930 . S
C411 C412 1.355 . S
C411 C413 1.415 . S
C412 C411 1.355 . S
C412 C414 1.419 . S
C413 C408 1.425 . S
C413 C410 1.409 . S
C413 C411 1.415 . S
C414 H404 0.930 . S
C414 C412 1.419 . S
C414 C415 1.362 . S
C415 H405 0.930 . S
C415 C408 1.409 . S
C415 C414 1.362 . S
H416 C422 0.930 . S
H417 C425 0.930 . S
H418 C426 0.930 . S
H419 C427 0.930 . S
H420 C430 0.930 . S
H421 C431 0.930 . S
C422 H416 0.930 . S
C422 C423 1.355 . S
C422 C424 1.415 . S
C423 C422 1.355 . S
C423 C425 1.419 . S
C424 C422 1.415 . S
C424 C429 1.425 . S
C424 C431 1.409 . S
C425 H417 0.930 . S
C425 C423 1.419 . S
C425 C426 1.362 . S
C426 H418 0.930 . S
C426 C425 1.362 . S
C426 C429 1.409 . S
C427 H419 0.930 . S
C427 C428 1.355 . S
C427 C429 1.415 . S
C428 C427 1.355 . S
C428 C430 1.419 . S
C429 C424 1.425 . S
C429 C426 1.409 . S
C429 C427 1.415 . S
C430 H420 0.930 . S
C430 C428 1.419 . S
C430 C431 1.362 . S
C431 H421 0.930 . S
C431 C424 1.409 . S
C431 C430 1.362 . S
H432 C438 0.930 . S
H433 C441 0.930 . S
H434 C442 0.930 . S
H435 C443 0.930 . S
H436 C446 0.930 . S
H437 C447 0.930 . S
C438 H432 0.930 . S
C438 C439 1.355 . S
C438 C440 1.415 . S
C439 C438 1.355 . S
C439 C441 1.419 . S
C440 C438 1.415 . S
C440 C445 1.425 . S
C440 C447 1.409 . S
C441 H433 0.930 . S
C441 C439 1.419 . S
C441 C442 1.362 . S
C442 H434 0.930 . S
C442 C441 1.362 . S
C442 C445 1.409 . S
C443 H435 0.930 . S
C443 C444 1.355 . S
C443 C445 1.415 . S
C444 C443 1.355 . S
C444 C446 1.419 . S
C445 C440 1.425 . S
C445 C442 1.409 . S
C445 C443 1.415 . S
C446 H436 0.930 . S
C446 C444 1.419 . S
C446 C447 1.362 . S
C447 H437 0.930 . S
C447 C440 1.409 . S
C447 C446 1.362 . S
H448 C454 0.930 . S
H449 C457 0.930 . S
H450 C458 0.930 . S
H451 C459 0.930 . S
H452 C462 0.930 . S
H453 C463 0.930 . S
C454 H448 0.930 . S
C454 C455 1.355 . S
C454 C456 1.415 . S
C455 C454 1.355 . S
C455 C457 1.419 . S
C456 C454 1.415 . S
C456 C461 1.425 . S
C456 C463 1.409 . S
C457 H449 0.930 . S
C457 C455 1.419 . S
C457 C458 1.362 . S
C458 H450 0.930 . S
C458 C457 1.362 . S
C458 C461 1.409 . S
C459 H451 0.930 . S
C459 C460 1.355 . S
C459 C461 1.415 . S
C460 C459 1.355 . S
C460 C462 1.419 . S
C461 C456 1.425 . S
C461 C458 1.409 . S
C461 C459 1.415 . S
C462 H452 0.930 . S
C462 C460 1.419 . S
C462 C463 1.362 . S
C463 H453 0.930 . S
C463 C456 1.409 . S
C463 C462 1.362 . S
H464 C470 0.930 . S
H465 C473 0.930 . S
H466 C474 0.930 . S
H467 C475 0.930 . S
H468 C478 0.930 . S
H469 C479 0.930 . S
C470 H464 0.930 . S
C470 C471 1.355 . S
C470 C472 1.415 . S
C471 C470 1.355 . S
C471 C473 1.419 . S
C472 C470 1.415 . S
C472 C477 1.425 . S
C472 C479 1.409 . S
C473 H465 0.930 . S
C473 C471 1.419 . S
C473 C474 1.362 . S
C474 H466 0.930 . S
C474 C473 1.362 . S
C474 C477 1.409 . S
C475 H467 0.930 . S
C475 C476 1.355 . S
C475 C477 1.415 . S
C476 C475 1.355 . S
C476 C478 1.419 . S
C477 C472 1.425 . S
C477 C474 1.409 . S
C477 C475 1.415 . S
C478 H468 0.930 . S
C478 C476 1.419 . S
C478 C479 1.362 . S
C479 H469 0.930 . S
C479 C472 1.409 . S
C479 C478 1.362 . S
H480 C486 0.930 . S
H481 C489 0.930 . S
H482 C490 0.930 . S
H483 C491 0.930 . S
H484 C494 0.930 . S
H485 C495 0.930 . S
C486 H480 0.930 . S
C486 C487 1.355 . S
C486 C488 1.415 . S
C487 C486 1.355 . S
C487 C489 1.419 . S
C488 C486 1.415 . S
C488 C493 1.425 . S
C488 C495 1.409 . S
C489 H481 0.930 . S
C489 C487 1.419 . S
C489 C490 1.362 . S
C490 H482 0.930 . S
C490 C489 1.362 . S
C490 C493 1.409 . S
C491 H483 0.930 . S
C491 C492 1.355 . S
C491 C493 1.415 . S
C492 C491 1.355 . S
C492 C494 1.419 . S
C493 C488 1.425 . S
C493 C490 1.409 . S
C493 C491 1.415 . S
C494 H484 0.930 . S
C494 C492 1.419 . S
C494 C495 1.362 . S
C495 H485 0.930 . S
C495 C488 1.409 . S
C495 C494 1.362 . S
H496 C502 0.930 . S
H497 C505 0.930 . S
H498 C506 0.930 . S
H499 C507 0.930 . S
H500 C510 0.930 . S
H501 C511 0.930 . S
C502 H496 0.930 . S
C502 C503 1.355 . S
C502 C504 1.415 . S
C503 C502 1.355 . S
C503 C505 1.419 . S
C504 C502 1.415 . S
C504 C509 1.425 . S
C504 C511 1.409 . S
C505 H497 0.930 . S
C505 C503 1.419 . S
C505 C506 1.362 . S
C506 H498 0.930 . S
C506 C505 1.362 . S
C506 C509 1.409 . S
C507 H499 0.930 . S
C507 C508 1.355 . S
C507 C509 1.415 . S
C508 C507 1.355 . S
C508 C510 1.419 . S
C509 C504 1.425 . S
C509 C506 1.409 . S
C509 C507 1.415 . S
C510 H500 0.930 . S
C510 C508 1.419 . S
C510 C511 1.362 . S
C511 H501 0.930 . S
C511 C504 1.409 . S
C511 C510 1.362 . S
H512 C518 0.930 . S
H513 C521 0.930 . S
H514 C522 0.930 . S
H515 C523 0.930 . S
H516 C526 0.930 . S
H517 C527 0.930 . S
C518 H512 0.930 . S
C518 C519 1.355 . S
C518 C520 1.415 . S
C519 C518 1.355 . S
C519 C521 1.419 . S
C520 C518 1.415 . S
C520 C525 1.425 . S
C520 C527 1.409 . S
C521 H513 0.930 . S
C521 C519 1.419 . S
C521 C522 1.362 . S
C522 H514 0.930 . S
C522 C521 1.362 . S
C522 C525 1.409 . S
C523 H515 0.930 . S
C523 C524 1.355 . S
C523 C525 1.415 . S
C524 C523 1.355 . S
C524 C526 1.419 . S
C525 C520 1.425 . S
C525 C522 1.409 . S
C525 C523 1.415 . S
C526 H516 0.930 . S
C526 C524 1.419 . S
C526 C527 1.362 . S
C527 H517 0.930 . S
C527 C520 1.409 . S
C527 C526 1.362 . S
H528 C534 0.930 . S
H529 C537 0.930 . S
H530 C538 0.930 . S
H531 C539 0.930 . S
H532 C542 0.930 . S
H533 C543 0.930 . S
C534 H528 0.930 . S
C534 C535 1.355 . S
C534 C536 1.415 1_545 S
C535 C534 1.355 . S
C535 C537 1.419 . S
C536 C534 1.415 1_565 S
C536 C541 1.425 1_465 S
C536 C543 1.409 . S
C537 H529 0.930 . S
C537 C535 1.419 . S
C537 C538 1.362 1_455 S
C538 H530 0.930 . S
C538 C537 1.362 1_655 S
C538 C541 1.409 . S
C539 H531 0.930 . S
C539 C540 1.355 . S
C539 C541 1.415 1_565 S
C540 C539 1.355 . S
C540 C542 1.419 . S
C541 C536 1.425 1_645 S
C541 C538 1.409 . S
C541 C539 1.415 1_545 S
C542 H532 0.930 . S
C542 C540 1.419 . S
C542 C543 1.362 1_655 S
C543 H533 0.930 . S
C543 C536 1.409 . S
C543 C542 1.362 1_455 S
H544 C550 0.930 . S
H545 C553 0.930 . S
H546 C554 0.930 . S
H547 C555 0.930 . S
H548 C558 0.930 . S
H549 C559 0.930 . S
C550 H544 0.930 . S
C550 C551 1.355 . S
C550 C552 1.415 1_545 S
C551 C550 1.355 . S
C551 C553 1.419 . S
C552 C550 1.415 1_565 S
C552 C557 1.425 1_665 S
C552 C559 1.409 . S
C553 H545 0.930 . S
C553 C551 1.419 . S
C553 C554 1.362 1_655 S
C554 H546 0.930 . S
C554 C553 1.362 1_455 S
C554 C557 1.409 . S
C555 H547 0.930 . S
C555 C556 1.355 . S
C555 C557 1.415 1_565 S
C556 C555 1.355 . S
C556 C558 1.419 . S
C557 C552 1.425 1_445 S
C557 C554 1.409 . S
C557 C555 1.415 1_545 S
C558 H548 0.930 . S
C558 C556 1.419 . S
C558 C559 1.362 1_455 S
C559 H549 0.930 . S
C559 C552 1.409 . S
C559 C558 1.362 1_655 S
H560 C566 0.930 . S
H561 C569 0.930 . S
H562 C570 0.930 . S
H563 C571 0.930 . S
H564 C574 0.930 . S
H565 C575 0.930 . S
C566 H560 0.930 . S
C566 C567 1.355 . S
C566 C568 1.415 . S
C567 C566 1.355 . S
C567 C569 1.419 . S
C568 C566 1.415 . S
C568 C573 1.425 . S
C568 C575 1.409 . S
C569 H561 0.930 . S
C569 C567 1.419 . S
C569 C570 1.362 . S
C570 H562 0.930 . S
C570 C569 1.362 . S
C570 C573 1.409 . S
C571 H563 0.930 . S
C571 C572 1.355 . S
C571 C573 1.415 . S
C572 C571 1.355 . S
C572 C574 1.419 . S
C573 C568 1.425 . S
C573 C570 1.409 . S
C573 C571 1.415 . S
C574 H564 0.930 . S
C574 C572 1.419 . S
C574 C575 1.362 . S
C575 H565 0.930 . S
C575 C568 1.409 . S
C575 C574 1.362 . S
H576 C582 0.930 . S
H577 C585 0.930 . S
H578 C586 0.930 . S
H579 C587 0.930 . S
H580 C590 0.930 . S
H581 C591 0.930 . S
C582 H576 0.930 . S
C582 C583 1.355 . S
C582 C584 1.415 . S
C583 C582 1.355 . S
C583 C585 1.419 . S
C584 C582 1.415 . S
C584 C589 1.425 . S
C584 C591 1.409 . S
C585 H577 0.930 . S
C585 C583 1.419 . S
C585 C586 1.362 . S
C586 H578 0.930 . S
C586 C585 1.362 . S
C586 C589 1.409 . S
C587 H579 0.930 . S
C587 C588 1.355 . S
C587 C589 1.415 . S
C588 C587 1.355 . S
C588 C590 1.419 . S
C589 C584 1.425 . S
C589 C586 1.409 . S
C589 C587 1.415 . S
C590 H580 0.930 . S
C590 C588 1.419 . S
C590 C591 1.362 . S
C591 H581 0.930 . S
C591 C584 1.409 . S
C591 C590 1.362 . S
H592 C598 0.930 1_565 S
H593 C601 0.930 . S
H594 C602 0.930 . S
H595 C603 0.930 1_545 S
H596 C606 0.930 . S
H597 C607 0.930 . S
C598 H592 0.930 1_545 S
C598 C599 1.355 . S
C598 C600 1.415 1_545 S
C599 C598 1.355 . S
C599 C601 1.419 . S
C600 C598 1.415 1_565 S
C600 C605 1.425 1_564 S
C600 C607 1.409 . S
C601 H593 0.930 . S
C601 C599 1.419 . S
C601 C602 1.362 1_554 S
C602 H594 0.930 . S
C602 C601 1.362 1_556 S
C602 C605 1.409 . S
C603 H595 0.930 1_565 S
C603 C604 1.355 . S
C603 C605 1.415 1_565 S
C604 C603 1.355 . S
C604 C606 1.419 . S
C605 C600 1.425 1_546 S
C605 C602 1.409 . S
C605 C603 1.415 1_545 S
C606 H596 0.930 . S
C606 C604 1.419 . S
C606 C607 1.362 1_556 S
C607 H597 0.930 . S
C607 C600 1.409 . S
C607 C606 1.362 1_554 S
H608 C614 0.930 . S
H609 C617 0.930 1_655 S
H610 C618 0.930 . S
H611 C619 0.930 . S
H612 C622 0.930 1_455 S
H613 C623 0.930 . S
C614 H608 0.930 . S
C614 C615 1.355 . S
C614 C616 1.415 1_556 S
C615 C614 1.355 . S
C615 C617 1.419 . S
C616 C614 1.415 1_554 S
C616 C621 1.425 1_454 S
C616 C623 1.409 . S
C617 H609 0.930 1_455 S
C617 C615 1.419 . S
C617 C618 1.362 1_455 S
C618 H610 0.930 . S
C618 C617 1.362 1_655 S
C618 C621 1.409 . S
C619 H611 0.930 . S
C619 C620 1.355 . S
C619 C621 1.415 1_554 S
C620 C619 1.355 . S
C620 C622 1.419 . S
C621 C616 1.425 1_656 S
C621 C618 1.409 . S
C621 C619 1.415 1_556 S
C622 H612 0.930 1_655 S
C622 C620 1.419 . S
C622 C623 1.362 1_655 S
C623 H613 0.930 . S
C623 C616 1.409 . S
C623 C622 1.362 1_455 S
H624 C630 0.930 . S
H625 C633 0.930 . S
H626 C634 0.917 1_554 S
H627 C635 0.930 . S
H628 C638 0.930 . S
H629 C639 0.917 1_556 S
C630 H624 0.930 . S
C630 C631 1.355 . S
C630 C632 1.415 1_545 S
C631 C630 1.355 . S
C631 C633 1.419 . S
C632 C630 1.415 1_565 S
C632 C637 1.425 1_566 S
C632 C639 1.402 1_556 S
C633 H625 0.930 . S
C633 C631 1.419 . S
C633 C634 1.382 . S
C634 H626 0.917 1_556 S
C634 C633 1.382 . S
C634 C637 1.402 1_556 S
C635 H627 0.930 . S
C635 C636 1.355 . S
C635 C637 1.415 1_565 S
C636 C635 1.355 . S
C636 C638 1.419 . S
C637 C632 1.425 1_544 S
C637 C634 1.402 1_554 S
C637 C635 1.415 1_545 S
C638 H628 0.930 . S
C638 C636 1.419 . S
C638 C639 1.382 . S
C639 H629 0.917 1_554 S
C639 C632 1.402 1_554 S
C639 C638 1.382 . S
H640 C646 0.930 1_655 S
H641 C649 0.930 . S
H642 C650 0.930 . S
H643 C651 0.930 1_455 S
H644 C654 0.930 . S
H645 C655 0.930 . S
C646 H640 0.930 1_455 S
C646 C647 1.355 . S
C646 C648 1.415 1_455 S
C647 C646 1.355 . S
C647 C649 1.419 . S
C648 C646 1.415 1_655 S
C648 C653 1.425 1_654 S
C648 C655 1.409 . S
C649 H641 0.930 . S
C649 C647 1.419 . S
C649 C650 1.362 1_554 S
C650 H642 0.930 . S
C650 C649 1.362 1_556 S
C650 C653 1.409 . S
C651 H643 0.930 1_655 S
C651 C652 1.355 . S
C651 C653 1.415 1_655 S
C652 C651 1.355 . S
C652 C654 1.419 . S
C653 C648 1.425 1_456 S
C653 C650 1.409 . S
C653 C651 1.415 1_455 S
C654 H644 0.930 . S
C654 C652 1.419 . S
C654 C655 1.362 1_556 S
C655 H645 0.930 . S
C655 C648 1.409 . S
C655 C654 1.362 1_554 S
H656 C662 0.930 . S
H657 C665 0.930 . S
H658 C666 0.930 . S
H659 C667 0.930 . S
H660 C670 0.930 . S
H661 C671 0.930 . S
C662 H656 0.930 . S
C662 C663 1.355 . S
C662 C664 1.415 . S
C663 C662 1.355 . S
C663 C665 1.419 . S
C664 C662 1.415 . S
C664 C669 1.425 . S
C664 C671 1.409 . S
C665 H657 0.930 . S
C665 C663 1.419 . S
C665 C666 1.362 . S
C666 H658 0.930 . S
C666 C665 1.362 . S
C666 C669 1.409 . S
C667 H659 0.930 . S
C667 C668 1.355 . S
C667 C669 1.415 . S
C668 C667 1.355 . S
C668 C670 1.419 . S
C669 C664 1.425 . S
C669 C666 1.409 . S
C669 C667 1.415 . S
C670 H660 0.930 . S
C670 C668 1.419 . S
C670 C671 1.362 . S
C671 H661 0.930 . S
C671 C664 1.409 . S
C671 C670 1.362 . S
H672 C678 0.930 . S
H673 C681 0.930 . S
H674 C682 0.930 . S
H675 C683 0.930 . S
H676 C686 0.930 . S
H677 C687 0.930 . S
C678 H672 0.930 . S
C678 C679 1.355 . S
C678 C680 1.415 . S
C679 C678 1.355 . S
C679 C681 1.419 . S
C680 C678 1.415 . S
C680 C685 1.425 . S
C680 C687 1.409 . S
C681 H673 0.930 . S
C681 C679 1.419 . S
C681 C682 1.362 . S
C682 H674 0.930 . S
C682 C681 1.362 . S
C682 C685 1.409 . S
C683 H675 0.930 . S
C683 C684 1.355 . S
C683 C685 1.415 . S
C684 C683 1.355 . S
C684 C686 1.419 . S
C685 C680 1.425 . S
C685 C682 1.409 . S
C685 C683 1.415 . S
C686 H676 0.930 . S
C686 C684 1.419 . S
C686 C687 1.362 . S
C687 H677 0.930 . S
C687 C680 1.409 . S
C687 C686 1.362 . S
H688 C694 0.930 . S
H689 C697 0.930 . S
H690 C698 0.930 . S
H691 C699 0.930 . S
H692 C702 0.930 . S
H693 C703 0.930 . S
C694 H688 0.930 . S
C694 C695 1.355 . S
C694 C696 1.415 . S
C695 C694 1.355 . S
C695 C697 1.419 . S
C696 C694 1.415 . S
C696 C701 1.425 . S
C696 C703 1.409 . S
C697 H689 0.930 . S
C697 C695 1.419 . S
C697 C698 1.362 . S
C698 H690 0.930 . S
C698 C697 1.362 . S
C698 C701 1.409 . S
C699 H691 0.930 . S
C699 C700 1.355 . S
C699 C701 1.415 . S
C700 C699 1.355 . S
C700 C702 1.419 . S
C701 C696 1.425 . S
C701 C698 1.409 . S
C701 C699 1.415 . S
C702 H692 0.930 . S
C702 C700 1.419 . S
C702 C703 1.362 . S
C703 H693 0.930 . S
C703 C696 1.409 . S
C703 C702 1.362 . S
H704 C710 0.930 . S
H705 C713 0.930 . S
H706 C714 0.930 . S
H707 C715 0.930 . S
H708 C718 0.930 . S
H709 C719 0.930 . S
C710 H704 0.930 . S
C710 C711 1.355 . S
C710 C712 1.415 . S
C711 C710 1.355 . S
C711 C713 1.419 . S
C712 C710 1.415 . S
C712 C717 1.425 . S
C712 C719 1.409 . S
C713 H705 0.930 . S
C713 C711 1.419 . S
C713 C714 1.362 . S
C714 H706 0.930 . S
C714 C713 1.362 . S
C714 C717 1.409 . S
C715 H707 0.930 . S
C715 C716 1.355 . S
C715 C717 1.415 . S
C716 C715 1.355 . S
C716 C718 1.419 . S
C717 C712 1.425 . S
C717 C714 1.409 . S
C717 C715 1.415 . S
C718 H708 0.930 . S
C718 C716 1.419 . S
C718 C719 1.362 . S
C719 H709 0.930 . S
C719 C712 1.409 . S
C719 C718 1.362 . S
C279 C28 1.762 . S
C284 C241 1.587 . S
C295 C49 1.241 1_655 S
C300 C137 1.345 . S
C311 C173 1.589 . S
C316 C96 1.762 . S
C327 C117 1.264 1_455 S
C332 C207 1.329 . S
C343 C40 1.718 . S
C348 C205 1.677 . S
C359 C239 1.323 . S
C364 C90 1.272 1_455 S
C375 C108 1.752 . S
C380 C139 1.598 . S
C391 C171 1.263 . S
C396 C22 1.331 1_655 S
C407 C142 1.724 . S
C412 C105 1.655 . S
C423 C3 1.337 . S
C428 C185 1.254 . S
C439 C37 1.599 . S
C444 C232 1.760 . S
C455 C253 1.262 . S
C460 C71 1.323 . S
C471 C176 1.762 . S
C476 C69 1.591 . S
C487 C226 1.336 . S
C492 C103 1.261 . S
C503 C244 1.751 . S
C508 C1 1.624 . S
C519 C35 1.266 . S
C524 C151 1.327 . S
C535 C17 1.750 . S
C540 C85 1.751 . S
C551 C119 1.750 . S
C556 C51 1.751 . S
C567 C153 1.741 . S
C572 C221 1.756 . S
C583 C187 1.755 . S
C588 C255 1.746 . S
C599 C15 0.749 . S
C604 C56 0.609 . S
C615 C62 0.937 . S
C620 C74 0.965 . S
C631 C124 0.803 . S
C636 C83 0.612 . S
C647 C6 0.917 . S
C652 C130 0.922 . S
C663 C192 0.837 . S
C668 C158 0.722 . S
C679 C210 0.968 . S
C684 C198 0.932 . S
C695 C219 0.623 . S
C700 C260 0.818 . S
C711 C164 0.905 . S
C716 C266 0.935 . S
