# Generated by pormake.
# Topology uoo, (4)-cn, num edge types: 1
# Building blocks:
#     Node 0, Type 0, BuildingBlock: QUQFOY_clean_sbu_3, # of connection points: 4
#     Node 1, Type 0, BuildingBlock: QUQFOY_clean_sbu_3, # of connection points: 4
#     Node 2, Type 0, BuildingBlock: QUQFOY_clean_sbu_3, # of connection points: 4
#     Node 3, Type 0, BuildingBlock: QUQFOY_clean_sbu_3, # of connection points: 4
#     Node 4, Type 0, BuildingBlock: QUQFOY_clean_sbu_3, # of connection points: 4
#     Node 5, Type 0, BuildingBlock: QUQFOY_clean_sbu_3, # of connection points: 4
#     Edge 6, Type (0, 0), BuildingBlock: TEMPAE_clean_linker_10, # of connection points: 2
#     Edge 7, Type (0, 0), BuildingBlock: TEMPAE_clean_linker_10, # of connection points: 2
#     Edge 8, Type (0, 0), BuildingBlock: TEMPAE_clean_linker_10, # of connection points: 2
#     Edge 9, Type (0, 0), BuildingBlock: TEMPAE_clean_linker_10, # of connection points: 2
#     Edge 10, Type (0, 0), BuildingBlock: TEMPAE_clean_linker_10, # of connection points: 2
#     Edge 11, Type (0, 0), BuildingBlock: TEMPAE_clean_linker_10, # of connection points: 2
#     Edge 12, Type (0, 0), BuildingBlock: TEMPAE_clean_linker_10, # of connection points: 2
#     Edge 13, Type (0, 0), BuildingBlock: TEMPAE_clean_linker_10, # of connection points: 2
#     Edge 14, Type (0, 0), BuildingBlock: TEMPAE_clean_linker_10, # of connection points: 2
#     Edge 15, Type (0, 0), BuildingBlock: TEMPAE_clean_linker_10, # of connection points: 2
#     Edge 16, Type (0, 0), BuildingBlock: TEMPAE_clean_linker_10, # of connection points: 2
#     Edge 17, Type (0, 0), BuildingBlock: TEMPAE_clean_linker_10, # of connection points: 2
# Relax obj value: 0.206
# Max RMSD: 0.153
# Mean RMSD: 0.152
data_MOF--net-uoo--node1-QUQFOY_clean_sbu_3--edge1-TEMPAE_clean_linker_10
_symmetry_space_group_name_H-M    P1
_symmetry_Int_Tables_number       1
_symmetry_cell_setting            triclinic
loop_
_symmetry_equiv_pos_as_xyz
'x, y, z'
_cell_length_a     25.127752
_cell_length_b     24.408323
_cell_length_c     44.871727
_cell_angle_alpha  90.275537
_cell_angle_beta   90.194415
_cell_angle_gamma 119.74101
loop_
_atom_site_label
_atom_site_type_symbol
_atom_site_fract_x
_atom_site_fract_y
_atom_site_fract_z
_atom_type_partial_charge
C0 C 0.24776 0.3482 -0.03078 0.0
O1 O 0.23566 0.37731 0.9493 0.0
Cd2 Cd 0.14076 0.36266 0.93279 0.0
O3 O 0.20523 0.30143 -0.01668 0.0
Cd4 Cd 0.08828 0.24007 -0.01694 0.0
C5 C 0.08576 0.20867 0.90669 0.0
O6 O 0.09521 0.3398 -0.02057 0.0
O7 O 0.00183 0.2658 -0.0192 0.0
O8 O 0.10089 0.23444 0.03713 0.0
C9 C 0.0396 0.3245 -0.02024 0.0
O10 O 0.10467 0.26734 0.90389 0.0
C11 C 0.05474 0.18026 0.04126 0.0
O12 O 0.07704 0.18406 0.93273 0.0
O13 O 0.02583 0.15041 0.01788 0.0
C14 C 0.68521 0.05473 0.32417 0.0
O15 O 0.6982 0.09759 0.34361 0.0
Cd16 Cd 0.79466 0.1833 0.35518 0.0
O17 O 0.72716 0.05218 0.30904 0.0
Cd18 Cd 0.84404 0.11522 0.30726 0.0
C19 C 0.85657 0.09452 0.38299 0.0
O20 O 0.83154 0.205 0.30625 0.0
O21 O 0.92583 0.23099 0.31103 0.0
O22 O 0.83004 0.09187 0.25347 0.0
C23 C 0.88646 0.24827 0.30658 0.0
O24 O 0.83782 0.13403 0.38579 0.0
C25 C 0.87848 0.08907 0.24914 0.0
O26 O 0.86142 0.07543 0.35698 0.0
O27 O 0.90957 0.0932 0.27233 0.0
C28 C 0.60475 0.89505 0.62911 0.0
O29 O 0.57653 0.85395 0.60886 0.0
Cd30 Cd 0.58844 0.76782 0.59499 0.0
O31 O 0.64865 0.89607 0.64421 0.0
Cd32 Cd 0.7061 0.83491 0.6464 0.0
C33 C 0.73911 0.85744 0.57032 0.0
O34 O 0.60689 0.74724 0.64339 0.0
O35 O 0.67338 0.71752 0.64753 0.0
O36 O 0.71404 0.86479 0.69933 0.0
C37 C 0.6173 0.70226 0.64579 0.0
O38 O 0.68191 0.82001 0.56684 0.0
C39 C 0.7645 0.8668 0.70493 0.0
O40 O 0.76215 0.87402 0.59661 0.0
O41 O 0.79112 0.85831 0.68275 0.0
C42 C 0.69815 0.58525 -0.02306 0.0
O43 O 0.71411 0.55847 0.95737 0.0
Cd44 Cd 0.80913 0.59452 0.93387 0.0
O45 O 0.73578 0.64044 -0.01283 0.0
Cd46 Cd 0.84977 0.72113 -0.01722 0.0
C47 C 0.83339 0.74031 0.90698 0.0
O48 O 0.86394 0.63328 -0.02218 0.0
O49 O 0.95002 0.71921 -0.02036 0.0
O50 O 0.83806 0.72748 0.03664 0.0
C51 C 0.92129 0.65961 -0.02255 0.0
O52 O 0.82196 0.68344 0.90458 0.0
C53 C 0.87936 0.78462 0.04034 0.0
O54 O 0.84467 0.76761 0.9326 0.0
O55 O 0.90449 0.81518 0.01674 0.0
C56 C 0.23192 0.84514 0.31259 0.0
O57 O 0.20805 0.79611 0.32863 0.0
Cd58 Cd 0.10579 0.74083 0.34343 0.0
O59 O 0.19986 0.86892 0.30274 0.0
Cd60 Cd 0.08613 0.837 0.30295 0.0
C61 C 0.09084 0.86063 0.37842 0.0
O62 O 0.06186 0.73104 0.29581 0.0
O63 O -0.01552 0.73696 0.31126 0.0
O64 O 0.10317 0.86229 0.24992 0.0
C65 C 0.00512 0.70351 0.30003 0.0
O66 O 0.09459 0.8105 0.37885 0.0
C67 C 0.06213 0.8774 0.24608 0.0
O68 O 0.08882 0.88491 0.3535 0.0
O69 O 0.03508 0.88014 0.2695 0.0
C70 C 0.36058 0.10899 0.64289 0.0
O71 O 0.38499 0.15546 0.62521 0.0
Cd72 Cd 0.34309 0.2149 0.606 0.0
O73 O 0.30622 0.08836 0.65291 0.0
Cd74 Cd 0.22397 0.12078 0.65124 0.0
C75 C 0.20666 0.09291 0.57498 0.0
O76 O 0.30591 0.22558 0.65185 0.0
O77 O 0.21976 0.22262 0.64726 0.0
O78 O 0.21916 0.097 0.70448 0.0
C79 C 0.27734 0.25547 0.6506 0.0
O80 O 0.2602 0.14093 0.57377 0.0
C81 C 0.16316 0.08004 0.70848 0.0
O82 O 0.18067 0.07233 0.60023 0.0
O83 O 0.13263 0.07678 0.68518 0.0
C84 C 0.07736 0.05905 0.74415 0.0
C85 C 0.13814 0.07355 0.73925 0.0
C86 C 0.05758 0.06528 0.77276 0.0
C87 C 0.09986 0.08785 0.79697 0.0
C88 C 0.15974 0.09754 0.79252 0.0
C89 C 0.17786 0.08978 0.76391 0.0
C90 C -0.00726 0.05245 0.7762 0.0
C91 C 0.20687 0.1222 0.81732 0.0
C92 C 0.09589 0.20524 0.85139 0.0
C93 C 0.08049 0.17256 0.87861 0.0
C94 C 0.09988 0.17726 0.82479 0.0
C95 C 0.08673 0.11381 0.82469 0.0
C96 C 0.06689 0.0787 0.85151 0.0
C97 C 0.06478 0.10868 0.87829 0.0
C98 C 0.12113 0.217 0.79696 0.0
C99 C 0.04946 0.01006 0.85208 0.0
H100 H 0.0459 0.04574 0.72542 0.0
H101 H 0.22478 0.10061 0.76057 0.0
H102 H -0.02338 0.04064 0.79947 0.0
H103 H -0.00945 0.0951 0.76973 0.0
H104 H 0.96101 0.0132 0.76128 0.0
H105 H 0.24887 0.12044 0.81135 0.0
H106 H 0.22011 0.17195 0.82237 0.0
H107 H 0.18759 0.09467 0.83794 0.0
H108 H 0.10735 0.25427 0.85087 0.0
H109 H 0.05208 0.08249 0.89894 0.0
H110 H 0.08642 0.19461 0.77897 0.0
H111 H 0.16437 0.2203 0.78895 0.0
H112 H 0.12927 0.26559 0.80071 0.0
H113 H 0.02092 -0.01519 0.83232 0.0
H114 H 0.02391 -0.01364 0.87259 0.0
H115 H 0.09145 0.00597 0.8512 0.0
C116 C 0.95071 0.0795 0.21301 0.0
C117 C 0.90054 0.08855 0.21827 0.0
C118 C -0.02452 0.08607 0.18417 0.0
C119 C 0.95079 0.10405 0.16004 0.0
C120 C 0.89901 0.11135 0.16516 0.0
C121 C 0.8742 0.10277 0.19397 0.0
C122 C 0.02947 0.07582 0.18008 0.0
C123 C 0.87115 0.13082 0.1404 0.0
C124 C 0.05666 0.19869 0.09641 0.0
C125 C 0.03243 0.157 0.07203 0.0
C126 C 0.03134 0.18142 0.12507 0.0
C127 C -0.01874 0.12005 0.13003 0.0
C128 C 0.9581 0.0767 0.1057 0.0
C129 C -0.01635 0.09584 0.07706 0.0
C130 C 0.05612 0.23038 0.1497 0.0
C131 C 0.90462 0.01071 0.10894 0.0
H132 H -0.02864 0.06823 0.23151 0.0
H133 H 0.83551 0.11 0.19766 0.0
H134 H 0.03137 0.06001 0.15712 0.0
H135 H 0.07246 0.12073 0.18449 0.0
H136 H 0.02785 0.04044 0.19608 0.0
H137 H 0.83288 0.13753 0.14827 0.0
H138 H 0.90668 0.17557 0.13037 0.0
H139 H 0.85346 0.09428 0.12258 0.0
H140 H 0.09399 0.24624 0.09286 0.0
H141 H 0.96434 0.06307 0.05848 0.0
H142 H 0.07437 0.21426 0.16812 0.0
H143 H 0.01866 0.23687 0.15894 0.0
H144 H 0.09329 0.27682 0.14194 0.0
H145 H 0.88993 -0.00242 0.1323 0.0
H146 H 0.91644 0.97615 0.09934 0.0
H147 H 0.86512 0.00641 0.09585 0.0
C148 C 0.88064 0.01864 0.41117 0.0
C149 C 0.86428 0.06598 0.41106 0.0
C150 C 0.87778 -0.01399 0.43768 0.0
C151 C 0.85574 -0.00072 0.46435 0.0
C152 C 0.8437 0.05009 0.4647 0.0
C153 C 0.84912 0.08317 0.43839 0.0
C154 C 0.89526 0.93521 0.43671 0.0
C155 C 0.81951 0.06615 0.49224 0.0
C156 C 0.74464 0.86991 0.51496 0.0
C157 C 0.77545 0.88642 0.54264 0.0
C158 C 0.77208 0.90335 0.48892 0.0
C159 C 0.83323 0.95384 0.48988 0.0
C160 C 0.86711 0.96654 0.51693 0.0
C161 C 0.83753 0.93351 0.54317 0.0
C162 C 0.73336 0.88792 0.46095 0.0
C163 C 0.93361 0.0171 0.51859 0.0
H164 H 0.89369 0.00559 0.39047 0.0
H165 H 0.8375 0.12038 0.43907 0.0
H166 H 0.91636 0.93294 0.45811 0.0
H167 H 0.85368 0.88874 0.43284 0.0
H168 H 0.92783 0.94328 0.41833 0.0
H169 H 0.81537 0.10906 0.48931 0.0
H170 H 0.77356 0.02613 0.49771 0.0
H171 H 0.85002 0.07392 0.51158 0.0
H172 H 0.69713 0.83284 0.51378 0.0
H173 H 0.86245 0.94608 0.56415 0.0
H174 H 0.75667 0.8797 0.44197 0.0
H175 H 0.7269 0.92841 0.45514 0.0
H176 H 0.68744 0.84546 0.46351 0.0
H177 H 0.95759 0.01957 0.49748 0.0
H178 H 0.95764 0.0086 0.5373 0.0
H179 H 0.93692 0.06361 0.52238 0.0
C180 C 0.8535 0.83744 0.87718 0.0
C181 C 0.83067 0.77208 0.879 0.0
C182 C 0.85081 0.86553 0.85007 0.0
C183 C 0.82372 0.82727 0.82434 0.0
C184 C 0.80065 0.76145 0.82623 0.0
C185 C 0.80465 0.73503 0.85323 0.0
C186 C 0.87626 0.93589 0.84913 0.0
C187 C 0.77072 0.71828 0.79971 0.0
C188 C 0.74717 0.86309 0.76009 0.0
C189 C 0.7864 0.87064 0.73629 0.0
C190 C 0.76122 0.85429 0.78945 0.0
C191 C 0.81642 0.8539 0.79547 0.0
C192 C 0.85892 0.8676 0.77203 0.0
C193 C 0.84314 0.87501 0.74269 0.0
C194 C 0.71438 0.83994 0.81352 0.0
C195 C 0.91937 0.87018 0.77756 0.0
H196 H 0.87385 0.86667 0.8968 0.0
H197 H 0.78638 0.68446 0.85413 0.0
H198 H 0.90236 0.95574 0.82835 0.0
H199 H 0.83793 0.94616 0.84931 0.0
H200 H 0.9066 0.96027 0.86854 0.0
H201 H 0.75497 0.66807 0.80486 0.0
H202 H 0.73061 0.72203 0.79205 0.0
H203 H 0.80344 0.73268 0.78094 0.0
H204 H 0.7034 0.86011 0.75557 0.0
H205 H 0.87427 0.88176 0.72462 0.0
H206 H 0.73662 0.86762 0.834 0.0
H207 H 0.6925 0.78922 0.81935 0.0
H208 H 0.67794 0.85032 0.80636 0.0
H209 H 0.94079 0.89617 0.79854 0.0
H210 H 0.95189 0.89326 0.75895 0.0
H211 H 0.91153 0.82151 0.77997 0.0
C212 C 0.06385 0.86393 0.1908 0.0
C213 C 0.0416 0.88219 0.21539 0.0
C214 C 0.0381 0.85686 0.1622 0.0
C215 C -0.01059 0.86947 0.15765 0.0
C216 C -0.03034 0.89233 0.1819 0.0
C217 C -0.00456 0.89775 0.21054 0.0
C218 C 0.06086 0.83243 0.13716 0.0
C219 C 0.92003 0.90925 0.17771 0.0
C220 C 0.95015 0.87271 0.07531 0.0
C221 C 0.90163 0.81088 0.07089 0.0
C222 C -0.02296 0.89406 0.10375 0.0
C223 C 0.9556 0.85233 0.12836 0.0
C224 C 0.90486 0.79087 0.12419 0.0
C225 C 0.87833 0.77123 0.09571 0.0
C226 C 0.03055 0.96017 0.10674 0.0
C227 C 0.8809 0.74414 0.14943 0.0
H228 H 0.09959 0.85194 0.19413 0.0
H229 H -0.02179 0.91246 0.22925 0.0
H230 H 0.02319 0.7862 0.12916 0.0
H231 H 0.07535 0.86538 0.1181 0.0
H232 H 0.1001 0.82637 0.1441 0.0
H233 H 0.91473 0.93328 0.19763 0.0
H234 H 0.93072 0.94058 0.15819 0.0
H235 H 0.87564 0.86599 0.17307 0.0
H236 H -0.03137 0.90393 0.05639 0.0
H237 H 0.84091 0.72338 0.09269 0.0
H238 H 0.07339 0.95981 0.10126 0.0
H239 H 0.0351 0.97911 0.12967 0.0
H240 H 0.0261 -0.00745 0.09091 0.0
H241 H 0.91691 0.73328 0.15671 0.0
H242 H 0.83936 0.69926 0.14296 0.0
H243 H 0.86961 0.76461 0.16887 0.0
C244 C 0.21427 0.07628 0.52042 0.0
C245 C 0.17791 0.05981 0.5462 0.0
C246 C 0.19145 0.04444 0.49321 0.0
C247 C 0.12999 -0.00511 0.49111 0.0
C248 C 0.0918 -0.02029 0.51655 0.0
C249 C 0.11634 0.01188 0.5439 0.0
C250 C 0.23445 0.06199 0.46703 0.0
C251 C 0.02553 0.92841 0.51507 0.0
C252 C 0.08108 0.94178 0.4103 0.0
C253 C 0.0936 0.8919 0.40765 0.0
C254 C 0.08801 0.97291 0.43794 0.0
C255 C 0.10938 0.95482 0.46335 0.0
C256 C 0.11964 0.90296 0.46096 0.0
C257 C 0.11118 0.87208 0.43342 0.0
C258 C 0.07458 0.02659 0.43971 0.0
C259 C 0.14329 0.88224 0.48711 0.0
H260 H 0.26185 0.11317 0.52161 0.0
H261 H 0.08751 -0.00087 0.56344 0.0
H262 H 0.24143 0.02178 0.46117 0.0
H263 H 0.21431 0.07208 0.44722 0.0
H264 H 0.27993 0.10391 0.47177 0.0
H265 H 0.00013 0.92696 0.53554 0.0
H266 H 0.00249 0.93548 0.49553 0.0
H267 H 0.02275 0.88191 0.51214 0.0
H268 H 0.06664 0.95702 0.39075 0.0
H269 H 0.12086 0.83355 0.43193 0.0
H270 H 0.1181 0.07187 0.44235 0.0
H271 H 0.04602 0.02125 0.45949 0.0
H272 H 0.0505 0.02934 0.41945 0.0
H273 H 0.19048 0.9199 0.49288 0.0
H274 H 0.14437 0.83811 0.48232 0.0
H275 H 0.11436 0.87457 0.50697 0.0
C276 C 0.33375 0.37645 0.00567 0.0
C277 C 0.31309 0.37256 -0.02373 0.0
C278 C 0.3969 0.41014 0.01245 0.0
C279 C 0.43967 0.43981 -0.0108 0.0
C280 C 0.41872 0.43347 0.95939 0.0
C281 C 0.35585 0.40015 0.95336 0.0
C282 C 0.41762 0.41599 0.04447 0.0
C283 C 0.46264 0.4631 0.93376 0.0
C284 C 0.60039 0.57934 -0.00602 0.0
C285 C 0.63443 0.54954 -0.01234 0.0
C286 C 0.53647 0.54348 -0.00232 0.0
C287 C 0.50671 0.47673 -0.00484 0.0
C288 C 0.54207 0.44664 -0.00797 0.0
C289 C 0.60543 0.48343 -0.01183 0.0
C290 C 0.50029 0.57721 0.00142 0.0
C291 C 0.51252 0.37573 -0.0104 0.0
H292 H 0.30062 0.35585 0.02345 0.0
H293 H 0.33989 0.39689 0.93058 0.0
H294 H 0.45522 0.40484 0.04659 0.0
H295 H 0.43592 0.46539 0.05221 0.0
H296 H 0.37958 0.38441 0.0594 0.0
H297 H 0.4387 0.45302 0.91187 0.0
H298 H 0.48956 0.51502 0.93694 0.0
H299 H 0.49554 0.44528 0.93309 0.0
H300 H 0.62282 0.63043 -0.00615 0.0
H301 H 0.63198 0.46022 -0.01604 0.0
H302 H 0.46357 0.55308 0.01813 0.0
H303 H 0.47798 0.57641 -0.0201 0.0
H304 H 0.52997 0.6272 0.00839 0.0
H305 H 0.47568 0.35227 0.0063 0.0
H306 H 0.54637 0.35948 -0.00731 0.0
H307 H 0.49128 0.36019 -0.03282 0.0
C308 C 0.85487 0.32809 0.29697 0.0
C309 C 0.90086 0.3147 0.30584 0.0
C310 C 0.86557 0.39001 0.29636 0.0
C311 C 0.92361 0.43994 0.30505 0.0
C312 C -0.02977 0.42692 0.31431 0.0
C313 C 0.95841 0.36424 0.31441 0.0
C314 C 0.81511 0.40206 0.28587 0.0
C315 C 0.03265 0.47924 0.32389 0.0
C316 C -0.02021 0.6038 0.27494 0.0
C317 C -0.02867 0.63442 0.29938 0.0
C318 C 0.96212 0.53977 0.27611 0.0
C319 C 0.93665 0.50607 0.30268 0.0
C320 C 0.92532 0.5361 0.32701 0.0
C321 C 0.94252 0.60023 0.32498 0.0
C322 C -0.02646 0.50911 0.24943 0.0
C323 C 0.8985 0.50158 0.35573 0.0
H324 H 0.81027 0.28996 0.29017 0.0
H325 H -0.00613 0.35402 0.32142 0.0
H326 H 0.80569 0.42888 0.30307 0.0
H327 H 0.82983 0.43132 0.26547 0.0
H328 H 0.77183 0.35768 0.28082 0.0
H329 H 0.06272 0.461 0.33198 0.0
H330 H 0.05545 0.51126 0.3049 0.0
H331 H 0.02791 0.50781 0.3419 0.0
H332 H 0.00278 0.63085 0.2553 0.0
H333 H 0.93742 0.62457 0.34409 0.0
H334 H 0.93118 0.46486 0.24325 0.0
H335 H 0.00903 0.49636 0.25507 0.0
H336 H -0.01079 0.5406 0.22975 0.0
H337 H 0.85557 0.45662 0.35123 0.0
H338 H 0.88853 0.53021 0.37169 0.0
H339 H 0.93121 0.48948 0.3664 0.0
C340 C 0.46195 0.11856 0.65261 0.0
C341 C 0.39793 0.08034 0.65171 0.0
C342 C 0.50011 0.09228 0.65513 0.0
C343 C 0.47359 0.02603 0.65651 0.0
C344 C 0.40896 -0.01245 0.65841 0.0
C345 C 0.37165 0.01532 0.65609 0.0
C346 C 0.56868 0.13512 0.65345 0.0
C347 C 0.3791 0.91669 0.66024 0.0
C348 C 0.5541 0.95507 0.6136 0.0
C349 C 0.58095 0.93779 0.63638 0.0
C350 C 0.52007 -0.01527 0.62 0.0
C351 C 0.51226 -0.00287 0.65004 0.0
C352 C 0.54149 -0.01766 0.67317 0.0
C353 C 0.57589 0.95291 0.66603 0.0
C354 C 0.49084 0.00095 0.59456 0.0
C355 C 0.53416 -0.00507 0.70542 0.0
H356 H 0.48243 0.16917 0.64991 0.0
H357 H 0.32219 -0.0142 0.65563 0.0
H358 H 0.5927 0.1209 0.66979 0.0
H359 H 0.58468 0.13135 0.63091 0.0
H360 H 0.58219 0.18528 0.65762 0.0
H361 H 0.33001 0.89461 0.66648 0.0
H362 H 0.38208 0.89745 0.63824 0.0
H363 H 0.40328 0.90294 0.67672 0.0
H364 H 0.55817 0.9435 0.59065 0.0
H365 H 0.59589 0.93867 0.6837 0.0
H366 H 0.50587 0.05204 0.59512 0.0
H367 H 0.44024 0.97475 0.59689 0.0
H368 H 0.50258 -0.01069 0.57245 0.0
H369 H 0.54283 0.04382 0.70846 0.0
H370 H 0.56555 -0.01223 0.72032 0.0
H371 H 0.48631 0.96256 0.71241 0.0
C372 C 0.34532 0.34741 0.62017 0.0
C373 C 0.31223 0.32388 0.64652 0.0
C374 C 0.39364 0.40978 0.61862 0.0
C375 C 0.40925 0.44916 0.64416 0.0
C376 C 0.37367 0.42645 0.67035 0.0
C377 C 0.32554 0.36371 0.67125 0.0
C378 C 0.43006 0.43235 0.59021 0.0
C379 C 0.38862 0.46724 0.69794 0.0
C380 C 0.57304 0.58527 0.65197 0.0
C381 C 0.56591 0.63659 0.64391 0.0
C382 C 0.52234 0.52371 0.65206 0.0
C383 C 0.46361 0.51361 0.64366 0.0
C384 C 0.45665 0.56516 0.63487 0.0
C385 C 0.50773 0.62589 0.63519 0.0
C386 C 0.53134 0.46962 0.6616 0.0
C387 C 0.39506 0.55632 0.62545 0.0
H388 H 0.33552 0.31588 0.60128 0.0
H389 H 0.30087 0.34465 0.69184 0.0
H390 H 0.43365 0.4775 0.58306 0.0
H391 H 0.47736 0.44139 0.5942 0.0
H392 H 0.40928 0.39739 0.57176 0.0
H393 H 0.35412 0.44393 0.71576 0.0
H394 H 0.4342 0.47819 0.70674 0.0
H395 H 0.39122 0.51276 0.69245 0.0
H396 H 0.6178 0.59337 0.65883 0.0
H397 H 0.5018 0.66529 0.62876 0.0
H398 H 0.51599 0.43358 0.64357 0.0
H399 H 0.50284 0.44644 0.68142 0.0
H400 H 0.57994 0.48521 0.66715 0.0
H401 H 0.37619 0.52232 0.60658 0.0
H402 H 0.39773 0.60128 0.61858 0.0
H403 H 0.36215 0.5362 0.6441 0.0
C404 C 0.93109 0.57713 0.95015 0.0
C405 C 0.95085 0.62129 -0.02652 0.0
C406 C 0.9473 0.52992 0.94933 0.0
C407 C -0.01733 0.52592 -0.02708 0.0
C408 C 0.00467 0.57198 -0.00398 0.0
C409 C -0.0111 0.61974 -0.00415 0.0
C410 C 0.92456 0.48294 0.92386 0.0
C411 C 0.04195 0.56876 0.0217 0.0
C412 C -0.03331 0.36511 -0.01219 0.0
C413 C 0.02166 0.37318 -0.02385 0.0
C414 C 0.95344 0.41471 -0.01293 0.0
C415 C -0.00446 0.47278 -0.02632 0.0
C416 C 0.04998 0.48011 0.96093 0.0
C417 C 0.06273 0.43055 0.96267 0.0
C418 C 0.89523 0.40561 0.00125 0.0
C419 C 0.0951 0.54052 0.94569 0.0
H420 H 0.90134 0.57841 0.93296 0.0
H421 H 0.00291 0.65326 0.01418 0.0
H422 H 0.96315 0.47942 0.91393 0.0
H423 H 0.89111 0.43548 0.93224 0.0
H424 H 0.90201 0.49588 0.90607 0.0
H425 H 0.05736 0.60942 0.03729 0.0
H426 H 0.0141 0.52454 0.03427 0.0
H427 H 0.08283 0.56759 0.0133 0.0
H428 H 0.93526 0.32101 -0.00153 0.0
H429 H 0.10528 0.43695 0.95352 0.0
H430 H 0.86672 0.4127 -0.01552 0.0
H431 H 0.90657 0.4414 0.01912 0.0
H432 H 0.86766 0.35789 0.01099 0.0
H433 H 0.07162 0.55208 0.92787 0.0
H434 H 0.13392 0.53745 0.93568 0.0
H435 H 0.11385 0.5802 0.96195 0.0
C436 C 0.59734 -0.00595 0.2889 0.0
C437 C 0.61956 0.01159 0.3181 0.0
C438 C 0.53401 0.96481 0.2828 0.0
C439 C 0.49259 0.95276 0.30653 0.0
C440 C 0.51492 0.96745 0.33617 0.0
C441 C 0.57801 -0.00327 0.34153 0.0
C442 C 0.51176 0.94948 0.25096 0.0
C443 C 0.47236 0.95427 0.36223 0.0
C444 C 0.33516 0.93746 0.3004 0.0
C445 C 0.29765 0.87277 0.30537 0.0
C446 C 0.39915 0.96399 0.29835 0.0
C447 C 0.42564 0.92463 0.30105 0.0
C448 C 0.38732 0.85868 0.3035 0.0
C449 C 0.32393 0.83366 0.30575 0.0
C450 C 0.43865 0.03457 0.29551 0.0
C451 C 0.41343 0.81491 0.30615 0.0
H452 H 0.62951 0.00634 0.27071 0.0
H453 H 0.59518 0.01012 0.36414 0.0
H454 H 0.4733 0.90027 0.24904 0.0
H455 H 0.49415 -0.01903 0.24373 0.0
H456 H 0.54876 0.95556 0.23554 0.0
H457 H 0.49714 0.96737 0.38394 0.0
H458 H 0.44767 -0.01886 0.35974 0.0
H459 H 0.43741 0.90343 0.36273 0.0
H460 H 0.31499 0.96774 0.29987 0.0
H461 H 0.29496 0.78329 0.3089 0.0
H462 H 0.47467 0.04642 0.27853 0.0
H463 H 0.46208 0.0548 0.3171 0.0
H464 H 0.41136 0.05735 0.28936 0.0
H465 H 0.44982 0.82662 0.28941 0.0
H466 H 0.37767 0.76463 0.30323 0.0
H467 H 0.43461 0.82072 0.32853 0.0
loop_
_geom_bond_atom_site_label_1
_geom_bond_atom_site_label_2
_geom_bond_distance
_geom_bond_site_symmetry_2
_ccdc_geom_bond_type
C0 O1 1.287 1_554 S
C0 O3 1.160 . S
O1 C0 1.287 1_556 S
O1 Cd2 2.254 . S
Cd2 O1 2.254 . S
Cd2 O6 2.273 1_556 S
Cd2 O10 2.277 . S
O3 C0 1.160 . S
O3 Cd4 2.203 . S
Cd4 O3 2.203 . S
Cd4 O6 2.411 . S
Cd4 O7 2.333 . S
Cd4 O8 2.352 . S
Cd4 O12 2.277 1_554 S
Cd4 O13 2.356 . S
C5 O10 1.209 . S
C5 O12 1.226 . S
O6 Cd2 2.273 1_554 S
O6 Cd4 2.411 . S
O6 C9 1.323 . S
O7 Cd4 2.333 . S
O7 C9 1.219 . S
O8 Cd4 2.352 . S
O8 C11 1.258 . S
C9 O6 1.323 . S
C9 O7 1.219 . S
O10 Cd2 2.277 . S
O10 C5 1.209 . S
C11 O8 1.258 . S
C11 O13 1.282 . S
O12 Cd4 2.277 1_556 S
O12 C5 1.226 . S
O13 Cd4 2.356 . S
O13 C11 1.282 . S
C14 O15 1.306 . S
C14 O17 1.160 . S
O15 C14 1.306 . S
O15 Cd16 2.228 . S
Cd16 O15 2.228 . S
Cd16 O20 2.273 . S
Cd16 O24 2.277 . S
O17 C14 1.160 . S
O17 Cd18 2.203 . S
Cd18 O17 2.203 . S
Cd18 O20 2.411 . S
Cd18 O21 2.333 . S
Cd18 O22 2.352 . S
Cd18 O26 2.277 . S
Cd18 O27 2.356 . S
C19 O24 1.209 . S
C19 O26 1.226 . S
O20 Cd16 2.273 . S
O20 Cd18 2.411 . S
O20 C23 1.320 . S
O21 Cd18 2.333 . S
O21 C23 1.214 . S
O22 Cd18 2.352 . S
O22 C25 1.258 . S
C23 O20 1.320 . S
C23 O21 1.214 . S
O24 Cd16 2.277 . S
O24 C19 1.209 . S
C25 O22 1.258 . S
C25 O27 1.282 . S
O26 Cd18 2.277 . S
O26 C19 1.226 . S
O27 Cd18 2.356 . S
O27 C25 1.282 . S
C28 O29 1.306 . S
C28 O31 1.160 . S
O29 C28 1.306 . S
O29 Cd30 2.228 . S
Cd30 O29 2.228 . S
Cd30 O34 2.273 . S
Cd30 O38 2.277 . S
O31 C28 1.160 . S
O31 Cd32 2.203 . S
Cd32 O31 2.203 . S
Cd32 O34 2.411 . S
Cd32 O35 2.333 . S
Cd32 O36 2.352 . S
Cd32 O40 2.277 . S
Cd32 O41 2.356 . S
C33 O38 1.209 . S
C33 O40 1.226 . S
O34 Cd30 2.273 . S
O34 Cd32 2.411 . S
O34 C37 1.320 . S
O35 Cd32 2.333 . S
O35 C37 1.214 . S
O36 Cd32 2.352 . S
O36 C39 1.258 . S
C37 O34 1.320 . S
C37 O35 1.214 . S
O38 Cd30 2.277 . S
O38 C33 1.209 . S
C39 O36 1.258 . S
C39 O41 1.282 . S
O40 Cd32 2.277 . S
O40 C33 1.226 . S
O41 Cd32 2.356 . S
O41 C39 1.282 . S
C42 O43 1.287 1_554 S
C42 O45 1.160 . S
O43 C42 1.287 1_556 S
O43 Cd44 2.254 . S
Cd44 O43 2.254 . S
Cd44 O48 2.273 1_556 S
Cd44 O52 2.277 . S
O45 C42 1.160 . S
O45 Cd46 2.203 . S
Cd46 O45 2.203 . S
Cd46 O48 2.411 . S
Cd46 O49 2.333 . S
Cd46 O50 2.352 . S
Cd46 O54 2.277 1_554 S
Cd46 O55 2.356 . S
C47 O52 1.209 . S
C47 O54 1.226 . S
O48 Cd44 2.273 1_554 S
O48 Cd46 2.411 . S
O48 C51 1.323 . S
O49 Cd46 2.333 . S
O49 C51 1.219 . S
O50 Cd46 2.352 . S
O50 C53 1.258 . S
C51 O48 1.323 . S
C51 O49 1.219 . S
O52 Cd44 2.277 . S
O52 C47 1.209 . S
C53 O50 1.258 . S
C53 O55 1.282 . S
O54 Cd46 2.277 1_556 S
O54 C47 1.226 . S
O55 Cd46 2.356 . S
O55 C53 1.282 . S
C56 O57 1.306 . S
C56 O59 1.160 . S
O57 C56 1.306 . S
O57 Cd58 2.228 . S
Cd58 O57 2.228 . S
Cd58 O62 2.273 . S
Cd58 O66 2.277 . S
O59 C56 1.160 . S
O59 Cd60 2.203 . S
Cd60 O59 2.203 . S
Cd60 O62 2.411 . S
Cd60 O63 2.333 . S
Cd60 O64 2.352 . S
Cd60 O68 2.277 . S
Cd60 O69 2.356 . S
C61 O66 1.209 . S
C61 O68 1.226 . S
O62 Cd58 2.273 . S
O62 Cd60 2.411 . S
O62 C65 1.320 . S
O63 Cd60 2.333 . S
O63 C65 1.214 . S
O64 Cd60 2.352 . S
O64 C67 1.258 . S
C65 O62 1.320 . S
C65 O63 1.214 . S
O66 Cd58 2.277 . S
O66 C61 1.209 . S
C67 O64 1.258 . S
C67 O69 1.282 . S
O68 Cd60 2.277 . S
O68 C61 1.226 . S
O69 Cd60 2.356 . S
O69 C67 1.282 . S
C70 O71 1.306 . S
C70 O73 1.160 . S
O71 C70 1.306 . S
O71 Cd72 2.228 . S
Cd72 O71 2.228 . S
Cd72 O76 2.273 . S
Cd72 O80 2.277 . S
O73 C70 1.160 . S
O73 Cd74 2.203 . S
Cd74 O73 2.203 . S
Cd74 O76 2.411 . S
Cd74 O77 2.333 . S
Cd74 O78 2.352 . S
Cd74 O82 2.277 . S
Cd74 O83 2.356 . S
C75 O80 1.209 . S
C75 O82 1.226 . S
O76 Cd72 2.273 . S
O76 Cd74 2.411 . S
O76 C79 1.320 . S
O77 Cd74 2.333 . S
O77 C79 1.214 . S
O78 Cd74 2.352 . S
O78 C81 1.258 . S
C79 O76 1.320 . S
C79 O77 1.214 . S
O80 Cd72 2.277 . S
O80 C75 1.209 . S
C81 O78 1.258 . S
C81 O83 1.282 . S
O82 Cd74 2.277 . S
O82 C75 1.226 . S
O83 Cd74 2.356 . S
O83 C81 1.282 . S
C84 C85 1.391 . S
C84 C86 1.394 . S
C84 H100 0.931 . S
C85 C84 1.391 . S
C85 C89 1.376 . S
C86 C84 1.394 . S
C86 C87 1.369 . S
C86 C90 1.531 . S
C87 C86 1.369 . S
C87 C88 1.410 . S
C87 C95 1.503 . S
C88 C87 1.410 . S
C88 C89 1.392 . S
C88 C91 1.511 . S
C89 C85 1.376 . S
C89 C88 1.392 . S
C89 H101 0.929 . S
C90 C86 1.531 . S
C90 H102 0.960 . S
C90 H103 0.962 . S
C90 H104 0.960 . S
C91 C88 1.511 . S
C91 H105 0.961 . S
C91 H106 0.961 . S
C91 H107 0.961 . S
C92 C93 1.370 . S
C92 C94 1.363 . S
C92 H108 0.931 . S
C93 C92 1.370 . S
C93 C97 1.408 . S
C94 C92 1.363 . S
C94 C95 1.370 . S
C94 C98 1.524 . S
C95 C87 1.503 . S
C95 C94 1.370 . S
C95 C96 1.403 . S
C96 C95 1.403 . S
C96 C97 1.404 . S
C96 C99 1.539 . S
C97 C93 1.408 . S
C97 C96 1.404 . S
C97 H109 0.930 . S
C98 C94 1.524 . S
C98 H110 0.956 . S
C98 H111 0.961 . S
C98 H112 0.961 . S
C99 C96 1.539 . S
C99 H113 0.958 . S
C99 H114 0.961 . S
C99 H115 0.960 . S
H100 C84 0.931 . S
H101 C89 0.929 . S
H102 C90 0.960 . S
H103 C90 0.962 . S
H104 C90 0.960 . S
H105 C91 0.961 . S
H106 C91 0.961 . S
H107 C91 0.961 . S
H108 C92 0.931 . S
H109 C97 0.930 . S
H110 C98 0.956 . S
H111 C98 0.961 . S
H112 C98 0.961 . S
H113 C99 0.958 . S
H114 C99 0.961 . S
H115 C99 0.960 . S
C116 C117 1.391 . S
C116 C118 1.394 . S
C116 H132 0.931 . S
C117 C116 1.391 . S
C117 C121 1.376 . S
C118 C116 1.394 . S
C118 C119 1.369 . S
C118 C122 1.531 . S
C119 C118 1.369 . S
C119 C120 1.410 . S
C119 C127 1.503 1_655 S
C120 C119 1.410 . S
C120 C121 1.392 . S
C120 C123 1.511 . S
C121 C117 1.376 . S
C121 C120 1.392 . S
C121 H133 0.929 . S
C122 C118 1.531 . S
C122 H134 0.960 . S
C122 H135 0.962 1_655 S
C122 H136 0.960 . S
C123 C120 1.511 . S
C123 H137 0.961 . S
C123 H138 0.961 1_655 S
C123 H139 0.961 . S
C124 C125 1.370 . S
C124 C126 1.363 . S
C124 H140 0.931 . S
C125 C124 1.370 . S
C125 C129 1.408 1_455 S
C126 C124 1.363 . S
C126 C127 1.370 . S
C126 C130 1.524 . S
C127 C119 1.503 1_455 S
C127 C126 1.370 . S
C127 C128 1.403 1_455 S
C128 C127 1.403 1_655 S
C128 C129 1.404 . S
C128 C131 1.539 . S
C129 C125 1.408 1_655 S
C129 C128 1.404 . S
C129 H141 0.930 . S
C130 C126 1.524 . S
C130 H142 0.956 . S
C130 H143 0.961 . S
C130 H144 0.961 . S
C131 C128 1.539 . S
C131 H145 0.958 . S
C131 H146 0.961 . S
C131 H147 0.960 . S
H132 C116 0.931 . S
H133 C121 0.929 . S
H134 C122 0.960 . S
H135 C122 0.962 1_455 S
H136 C122 0.960 . S
H137 C123 0.961 . S
H138 C123 0.961 1_455 S
H139 C123 0.961 . S
H140 C124 0.931 . S
H141 C129 0.930 . S
H142 C130 0.956 . S
H143 C130 0.961 . S
H144 C130 0.961 . S
H145 C131 0.958 . S
H146 C131 0.961 . S
H147 C131 0.960 . S
C148 C149 1.391 . S
C148 C150 1.394 1_545 S
C148 H164 0.942 . S
C149 C148 1.391 . S
C149 C153 1.376 . S
C150 C148 1.394 1_565 S
C150 C151 1.369 1_565 S
C150 C154 1.531 . S
C151 C150 1.369 1_545 S
C151 C152 1.410 . S
C151 C159 1.503 1_545 S
C152 C151 1.410 . S
C152 C153 1.392 . S
C152 C155 1.511 . S
C153 C149 1.376 . S
C153 C152 1.392 . S
C153 H165 0.929 . S
C154 C150 1.531 . S
C154 H166 0.960 . S
C154 H167 0.962 . S
C154 H168 0.960 . S
C155 C152 1.511 . S
C155 H169 0.961 . S
C155 H170 0.961 . S
C155 H171 0.961 . S
C156 C157 1.370 . S
C156 C158 1.363 . S
C156 H172 0.931 . S
C157 C156 1.370 . S
C157 C161 1.408 . S
C158 C156 1.363 . S
C158 C159 1.370 . S
C158 C162 1.524 . S
C159 C151 1.503 1_565 S
C159 C158 1.370 . S
C159 C160 1.403 1_565 S
C160 C159 1.403 1_545 S
C160 C161 1.404 1_545 S
C160 C163 1.539 . S
C161 C157 1.408 . S
C161 C160 1.404 1_565 S
C161 H173 0.930 . S
C162 C158 1.524 . S
C162 H174 0.956 . S
C162 H175 0.961 . S
C162 H176 0.961 . S
C163 C160 1.539 . S
C163 H177 0.958 . S
C163 H178 0.961 . S
C163 H179 0.960 . S
H164 C148 0.942 . S
H165 C153 0.929 . S
H166 C154 0.960 . S
H167 C154 0.962 . S
H168 C154 0.960 . S
H169 C155 0.961 . S
H170 C155 0.961 . S
H171 C155 0.961 . S
H172 C156 0.931 . S
H173 C161 0.930 . S
H174 C162 0.956 . S
H175 C162 0.961 . S
H176 C162 0.961 . S
H177 C163 0.958 . S
H178 C163 0.961 . S
H179 C163 0.960 . S
C180 C181 1.391 . S
C180 C182 1.394 . S
C180 H196 0.931 . S
C181 C180 1.391 . S
C181 C185 1.376 . S
C182 C180 1.394 . S
C182 C183 1.369 . S
C182 C186 1.531 . S
C183 C182 1.369 . S
C183 C184 1.410 . S
C183 C191 1.503 . S
C184 C183 1.410 . S
C184 C185 1.392 . S
C184 C187 1.511 . S
C185 C181 1.376 . S
C185 C184 1.392 . S
C185 H197 0.929 . S
C186 C182 1.531 . S
C186 H198 0.960 . S
C186 H199 0.962 . S
C186 H200 0.960 . S
C187 C184 1.511 . S
C187 H201 0.961 . S
C187 H202 0.961 . S
C187 H203 0.961 . S
C188 C189 1.370 . S
C188 C190 1.363 . S
C188 H204 0.931 . S
C189 C188 1.370 . S
C189 C193 1.408 . S
C190 C188 1.363 . S
C190 C191 1.370 . S
C190 C194 1.524 . S
C191 C183 1.503 . S
C191 C190 1.370 . S
C191 C192 1.403 . S
C192 C191 1.403 . S
C192 C193 1.404 . S
C192 C195 1.539 . S
C193 C189 1.408 . S
C193 C192 1.404 . S
C193 H205 0.930 . S
C194 C190 1.524 . S
C194 H206 0.956 . S
C194 H207 0.961 . S
C194 H208 0.961 . S
C195 C192 1.539 . S
C195 H209 0.958 . S
C195 H210 0.961 . S
C195 H211 0.960 . S
H196 C180 0.931 . S
H197 C185 0.929 . S
H198 C186 0.960 . S
H199 C186 0.962 . S
H200 C186 0.960 . S
H201 C187 0.961 . S
H202 C187 0.961 . S
H203 C187 0.961 . S
H204 C188 0.931 . S
H205 C193 0.930 . S
H206 C194 0.956 . S
H207 C194 0.961 . S
H208 C194 0.961 . S
H209 C195 0.958 . S
H210 C195 0.961 . S
H211 C195 0.960 . S
C212 C213 1.391 . S
C212 C214 1.394 . S
C212 H228 0.931 . S
C213 C212 1.391 . S
C213 C217 1.376 . S
C214 C212 1.394 . S
C214 C215 1.369 . S
C214 C218 1.531 . S
C215 C214 1.369 . S
C215 C216 1.410 1_455 S
C215 C223 1.503 1_455 S
C216 C215 1.410 1_655 S
C216 C217 1.392 1_655 S
C216 C219 1.511 . S
C217 C213 1.376 . S
C217 C216 1.392 1_455 S
C217 H229 0.929 . S
C218 C214 1.531 . S
C218 H230 0.960 . S
C218 H231 0.962 . S
C218 H232 0.960 . S
C219 C216 1.511 . S
C219 H233 0.961 . S
C219 H234 0.961 . S
C219 H235 0.961 . S
C220 C221 1.370 . S
C220 C222 1.363 1_655 S
C220 H236 0.931 1_655 S
C221 C220 1.370 . S
C221 C225 1.408 . S
C222 C220 1.363 1_455 S
C222 C223 1.370 1_455 S
C222 C226 1.524 . S
C223 C215 1.503 1_655 S
C223 C222 1.370 1_655 S
C223 C224 1.403 . S
C224 C223 1.403 . S
C224 C225 1.404 . S
C224 C227 1.539 . S
C225 C221 1.408 . S
C225 C224 1.404 . S
C225 H237 0.930 . S
C226 C222 1.524 . S
C226 H238 0.956 . S
C226 H239 0.961 . S
C226 H240 0.961 . S
C227 C224 1.539 . S
C227 H241 0.958 . S
C227 H242 0.961 . S
C227 H243 0.960 . S
H228 C212 0.931 . S
H229 C217 0.929 . S
H230 C218 0.960 . S
H231 C218 0.962 . S
H232 C218 0.960 . S
H233 C219 0.961 . S
H234 C219 0.961 . S
H235 C219 0.961 . S
H236 C220 0.931 1_455 S
H237 C225 0.930 . S
H238 C226 0.956 . S
H239 C226 0.961 . S
H240 C226 0.961 . S
H241 C227 0.958 . S
H242 C227 0.961 . S
H243 C227 0.960 . S
C244 C245 1.391 . S
C244 C246 1.394 . S
C244 H260 0.931 . S
C245 C244 1.391 . S
C245 C249 1.376 . S
C246 C244 1.394 . S
C246 C247 1.369 . S
C246 C250 1.531 . S
C247 C246 1.369 . S
C247 C248 1.410 1_545 S
C247 C255 1.503 1_545 S
C248 C247 1.410 1_565 S
C248 C249 1.392 1_565 S
C248 C251 1.511 . S
C249 C245 1.376 . S
C249 C248 1.392 1_545 S
C249 H261 0.929 . S
C250 C246 1.531 . S
C250 H262 0.960 . S
C250 H263 0.962 . S
C250 H264 0.960 . S
C251 C248 1.511 . S
C251 H265 0.961 . S
C251 H266 0.961 . S
C251 H267 0.961 . S
C252 C253 1.370 . S
C252 C254 1.363 1_565 S
C252 H268 0.931 1_565 S
C253 C252 1.370 . S
C253 C257 1.408 . S
C254 C252 1.363 1_545 S
C254 C255 1.370 1_545 S
C254 C258 1.524 . S
C255 C247 1.503 1_565 S
C255 C254 1.370 1_565 S
C255 C256 1.403 . S
C256 C255 1.403 . S
C256 C257 1.404 . S
C256 C259 1.539 . S
C257 C253 1.408 . S
C257 C256 1.404 . S
C257 H269 0.930 . S
C258 C254 1.524 . S
C258 H270 0.956 . S
C258 H271 0.961 . S
C258 H272 0.961 . S
C259 C256 1.539 . S
C259 H273 0.958 . S
C259 H274 0.961 . S
C259 H275 0.960 . S
H260 C244 0.931 . S
H261 C249 0.929 . S
H262 C250 0.960 . S
H263 C250 0.962 . S
H264 C250 0.960 . S
H265 C251 0.961 . S
H266 C251 0.961 . S
H267 C251 0.961 . S
H268 C252 0.931 1_545 S
H269 C257 0.930 . S
H270 C258 0.956 . S
H271 C258 0.961 . S
H272 C258 0.961 . S
H273 C259 0.958 . S
H274 C259 0.961 . S
H275 C259 0.960 . S
C276 C277 1.391 . S
C276 C278 1.394 . S
C276 H292 0.931 . S
C277 C276 1.391 . S
C277 C281 1.376 1_554 S
C278 C276 1.394 . S
C278 C279 1.369 . S
C278 C282 1.531 . S
C279 C278 1.369 . S
C279 C280 1.410 1_554 S
C279 C287 1.503 . S
C280 C279 1.410 1_556 S
C280 C281 1.392 . S
C280 C283 1.511 . S
C281 C277 1.376 1_556 S
C281 C280 1.392 . S
C281 H293 0.929 . S
C282 C278 1.531 . S
C282 H294 0.960 . S
C282 H295 0.962 . S
C282 H296 0.960 . S
C283 C280 1.511 . S
C283 H297 0.961 . S
C283 H298 0.961 . S
C283 H299 0.961 . S
C284 C285 1.370 . S
C284 C286 1.363 . S
C284 H300 0.931 . S
C285 C284 1.370 . S
C285 C289 1.408 . S
C286 C284 1.363 . S
C286 C287 1.370 . S
C286 C290 1.524 . S
C287 C279 1.503 . S
C287 C286 1.370 . S
C287 C288 1.403 . S
C288 C287 1.403 . S
C288 C289 1.404 . S
C288 C291 1.539 . S
C289 C285 1.408 . S
C289 C288 1.404 . S
C289 H301 0.930 . S
C290 C286 1.524 . S
C290 H302 0.956 . S
C290 H303 0.961 1_554 S
C290 H304 0.961 . S
C291 C288 1.539 . S
C291 H305 0.958 . S
C291 H306 0.961 . S
C291 H307 0.960 . S
H292 C276 0.931 . S
H293 C281 0.929 . S
H294 C282 0.960 . S
H295 C282 0.962 . S
H296 C282 0.960 . S
H297 C283 0.961 . S
H298 C283 0.961 . S
H299 C283 0.961 . S
H300 C284 0.931 . S
H301 C289 0.930 . S
H302 C290 0.956 . S
H303 C290 0.961 1_556 S
H304 C290 0.961 . S
H305 C291 0.958 . S
H306 C291 0.961 . S
H307 C291 0.960 . S
C308 C309 1.391 . S
C308 C310 1.394 . S
C308 H324 0.931 . S
C309 C308 1.391 . S
C309 C313 1.376 1_655 S
C310 C308 1.394 . S
C310 C311 1.369 . S
C310 C314 1.531 . S
C311 C310 1.369 . S
C311 C312 1.410 1_655 S
C311 C319 1.503 1_655 S
C312 C311 1.410 1_455 S
C312 C313 1.392 . S
C312 C315 1.511 . S
C313 C309 1.376 1_455 S
C313 C312 1.392 . S
C313 H325 0.929 . S
C314 C310 1.531 . S
C314 H326 0.960 . S
C314 H327 0.962 . S
C314 H328 0.960 . S
C315 C312 1.511 . S
C315 H329 0.961 . S
C315 H330 0.961 . S
C315 H331 0.961 . S
C316 C317 1.370 . S
C316 C318 1.363 . S
C316 H332 0.931 . S
C317 C316 1.370 . S
C317 C321 1.408 . S
C318 C316 1.363 . S
C318 C319 1.370 . S
C318 C322 1.524 . S
C319 C311 1.503 1_455 S
C319 C318 1.370 . S
C319 C320 1.403 . S
C320 C319 1.403 . S
C320 C321 1.404 . S
C320 C323 1.539 . S
C321 C317 1.408 . S
C321 C320 1.404 . S
C321 H333 0.930 . S
C322 C318 1.524 . S
C322 H334 0.956 1_455 S
C322 H335 0.961 . S
C322 H336 0.961 . S
C323 C320 1.539 . S
C323 H337 0.958 1_455 S
C323 H338 0.961 . S
C323 H339 0.960 . S
H324 C308 0.931 . S
H325 C313 0.929 . S
H326 C314 0.960 . S
H327 C314 0.962 . S
H328 C314 0.960 . S
H329 C315 0.961 . S
H330 C315 0.961 . S
H331 C315 0.961 . S
H332 C316 0.931 . S
H333 C321 0.930 . S
H334 C322 0.956 1_655 S
H335 C322 0.961 . S
H336 C322 0.961 . S
H337 C323 0.958 1_655 S
H338 C323 0.961 . S
H339 C323 0.960 . S
C340 C341 1.391 . S
C340 C342 1.394 . S
C340 H356 0.931 . S
C341 C340 1.391 . S
C341 C345 1.376 1_545 S
C342 C340 1.394 . S
C342 C343 1.369 . S
C342 C346 1.531 . S
C343 C342 1.369 . S
C343 C344 1.410 1_545 S
C343 C351 1.503 1_545 S
C344 C343 1.410 1_565 S
C344 C345 1.392 . S
C344 C347 1.511 . S
C345 C341 1.376 1_565 S
C345 C344 1.392 . S
C345 H357 0.929 . S
C346 C342 1.531 . S
C346 H358 0.960 . S
C346 H359 0.962 . S
C346 H360 0.960 . S
C347 C344 1.511 . S
C347 H361 0.961 . S
C347 H362 0.961 . S
C347 H363 0.961 . S
C348 C349 1.370 . S
C348 C350 1.363 . S
C348 H364 0.931 . S
C349 C348 1.370 . S
C349 C353 1.408 . S
C350 C348 1.363 . S
C350 C351 1.370 . S
C350 C354 1.524 1_565 S
C351 C343 1.503 1_565 S
C351 C350 1.370 . S
C351 C352 1.403 . S
C352 C351 1.403 . S
C352 C353 1.404 . S
C352 C355 1.539 . S
C353 C349 1.408 . S
C353 C352 1.404 . S
C353 H365 0.930 . S
C354 C350 1.524 1_545 S
C354 H366 0.956 . S
C354 H367 0.961 1_545 S
C354 H368 0.961 . S
C355 C352 1.539 . S
C355 H369 0.958 1_565 S
C355 H370 0.961 . S
C355 H371 0.960 . S
H356 C340 0.931 . S
H357 C345 0.929 . S
H358 C346 0.960 . S
H359 C346 0.962 . S
H360 C346 0.960 . S
H361 C347 0.961 . S
H362 C347 0.961 . S
H363 C347 0.961 . S
H364 C348 0.931 . S
H365 C353 0.930 . S
H366 C354 0.956 . S
H367 C354 0.961 1_565 S
H368 C354 0.961 . S
H369 C355 0.958 1_545 S
H370 C355 0.961 . S
H371 C355 0.960 . S
C372 C373 1.391 . S
C372 C374 1.394 . S
C372 H388 0.931 . S
C373 C372 1.391 . S
C373 C377 1.376 . S
C374 C372 1.394 . S
C374 C375 1.369 . S
C374 C378 1.531 . S
C375 C374 1.369 . S
C375 C376 1.410 . S
C375 C383 1.503 . S
C376 C375 1.410 . S
C376 C377 1.392 . S
C376 C379 1.511 . S
C377 C373 1.376 . S
C377 C376 1.392 . S
C377 H389 0.929 . S
C378 C374 1.531 . S
C378 H390 0.960 . S
C378 H391 0.962 . S
C378 H392 0.960 . S
C379 C376 1.511 . S
C379 H393 0.961 . S
C379 H394 0.961 . S
C379 H395 0.961 . S
C380 C381 1.370 . S
C380 C382 1.363 . S
C380 H396 0.931 . S
C381 C380 1.370 . S
C381 C385 1.408 . S
C382 C380 1.363 . S
C382 C383 1.370 . S
C382 C386 1.524 . S
C383 C375 1.503 . S
C383 C382 1.370 . S
C383 C384 1.403 . S
C384 C383 1.403 . S
C384 C385 1.404 . S
C384 C387 1.539 . S
C385 C381 1.408 . S
C385 C384 1.404 . S
C385 H397 0.930 . S
C386 C382 1.524 . S
C386 H398 0.956 . S
C386 H399 0.961 . S
C386 H400 0.961 . S
C387 C384 1.539 . S
C387 H401 0.958 . S
C387 H402 0.961 . S
C387 H403 0.960 . S
H388 C372 0.931 . S
H389 C377 0.929 . S
H390 C378 0.960 . S
H391 C378 0.962 . S
H392 C378 0.960 . S
H393 C379 0.961 . S
H394 C379 0.961 . S
H395 C379 0.961 . S
H396 C380 0.931 . S
H397 C385 0.930 . S
H398 C386 0.956 . S
H399 C386 0.961 . S
H400 C386 0.961 . S
H401 C387 0.958 . S
H402 C387 0.961 . S
H403 C387 0.960 . S
C404 C405 1.391 . S
C404 C406 1.394 . S
C404 H420 0.931 . S
C405 C404 1.391 . S
C405 C409 1.376 1_656 S
C406 C404 1.394 . S
C406 C407 1.369 . S
C406 C410 1.531 . S
C407 C406 1.369 . S
C407 C408 1.410 1_656 S
C407 C415 1.503 1_655 S
C408 C407 1.410 1_454 S
C408 C409 1.392 . S
C408 C411 1.511 . S
C409 C405 1.376 1_454 S
C409 C408 1.392 . S
C409 H421 0.929 . S
C410 C406 1.531 . S
C410 H422 0.960 . S
C410 H423 0.962 . S
C410 H424 0.960 . S
C411 C408 1.511 . S
C411 H425 0.961 . S
C411 H426 0.961 . S
C411 H427 0.961 . S
C412 C413 1.370 1_554 S
C412 C414 1.363 1_455 S
C412 H428 0.931 1_455 S
C413 C412 1.370 1_556 S
C413 C417 1.408 . S
C414 C412 1.363 1_655 S
C414 C415 1.370 1_654 S
C414 C418 1.524 . S
C415 C407 1.503 1_455 S
C415 C414 1.370 1_456 S
C415 C416 1.403 . S
C416 C415 1.403 . S
C416 C417 1.404 . S
C416 C419 1.539 . S
C417 C413 1.408 . S
C417 C416 1.404 . S
C417 H429 0.930 . S
C418 C414 1.524 . S
C418 H430 0.956 . S
C418 H431 0.961 . S
C418 H432 0.961 . S
C419 C416 1.539 . S
C419 H433 0.958 . S
C419 H434 0.961 . S
C419 H435 0.960 . S
H420 C404 0.931 . S
H421 C409 0.929 . S
H422 C410 0.960 . S
H423 C410 0.962 . S
H424 C410 0.960 . S
H425 C411 0.961 . S
H426 C411 0.961 . S
H427 C411 0.961 . S
H428 C412 0.931 1_655 S
H429 C417 0.930 . S
H430 C418 0.956 . S
H431 C418 0.961 . S
H432 C418 0.961 . S
H433 C419 0.958 . S
H434 C419 0.961 . S
H435 C419 0.960 . S
C436 C437 1.391 . S
C436 C438 1.394 . S
C436 H452 0.931 . S
C437 C436 1.391 . S
C437 C441 1.376 1_545 S
C438 C436 1.394 . S
C438 C439 1.369 1_545 S
C438 C442 1.531 . S
C439 C438 1.369 1_565 S
C439 C440 1.410 . S
C439 C447 1.503 . S
C440 C439 1.410 . S
C440 C441 1.392 . S
C440 C443 1.511 . S
C441 C437 1.376 1_565 S
C441 C440 1.392 . S
C441 H453 0.929 . S
C442 C438 1.531 . S
C442 H454 0.960 . S
C442 H455 0.962 . S
C442 H456 0.960 . S
C443 C440 1.511 . S
C443 H457 0.961 . S
C443 H458 0.961 . S
C443 H459 0.961 . S
C444 C445 1.370 1_545 S
C444 C446 1.363 . S
C444 H460 0.931 . S
C445 C444 1.370 1_565 S
C445 C449 1.408 . S
C446 C444 1.363 . S
C446 C447 1.370 1_545 S
C446 C450 1.524 . S
C447 C439 1.503 . S
C447 C446 1.370 1_565 S
C447 C448 1.403 . S
C448 C447 1.403 . S
C448 C449 1.404 . S
C448 C451 1.539 . S
C449 C445 1.408 . S
C449 C448 1.404 . S
C449 H461 0.930 . S
C450 C446 1.524 . S
C450 H462 0.956 . S
C450 H463 0.961 . S
C450 H464 0.961 . S
C451 C448 1.539 . S
C451 H465 0.958 . S
C451 H466 0.961 . S
C451 H467 0.960 . S
H452 C436 0.931 . S
H453 C441 0.929 . S
H454 C442 0.960 . S
H455 C442 0.962 . S
H456 C442 0.960 . S
H457 C443 0.961 . S
H458 C443 0.961 . S
H459 C443 0.961 . S
H460 C444 0.931 . S
H461 C449 0.930 . S
H462 C450 0.956 . S
H463 C450 0.961 . S
H464 C450 0.961 . S
H465 C451 0.958 . S
H466 C451 0.961 . S
H467 C451 0.960 . S
C85 C81 1.281 . S
C93 C5 1.267 . S
C117 C25 1.291 . S
C125 C11 1.281 . S
C149 C19 1.265 . S
C157 C33 1.255 . S
C181 C47 1.283 . S
C189 C39 1.274 . S
C213 C67 1.267 . S
C221 C53 1.285 . S
C245 C75 1.232 . S
C253 C61 1.247 . S
C277 C0 1.445 . S
C285 C42 1.412 . S
C309 C23 1.440 . S
C317 C65 1.434 . S
C341 C70 1.402 . S
C349 C28 1.386 . S
C373 C79 1.405 . S
C381 C37 1.390 . S
C405 C51 1.435 1_556 S
C413 C9 1.422 1_556 S
C437 C14 1.409 . S
C445 C56 1.374 . S
