# Generated by pormake.
# Topology tzs, (4)-cn, num edge types: 1
# Building blocks:
#     Node 0, Type 0, BuildingBlock: NAHDIM_clean_sbu_0, # of connection points: 4
#     Node 1, Type 0, BuildingBlock: NAHDIM_clean_sbu_0, # of connection points: 4
#     Node 2, Type 0, BuildingBlock: NAHDIM_clean_sbu_0, # of connection points: 4
#     Node 3, Type 0, BuildingBlock: NAHDIM_clean_sbu_0, # of connection points: 4
#     Node 4, Type 0, BuildingBlock: NAHDIM_clean_sbu_0, # of connection points: 4
#     Node 5, Type 0, BuildingBlock: NAHDIM_clean_sbu_0, # of connection points: 4
#     Node 6, Type 0, BuildingBlock: NAHDIM_clean_sbu_0, # of connection points: 4
#     Node 7, Type 0, BuildingBlock: NAHDIM_clean_sbu_0, # of connection points: 4
#     Node 8, Type 0, BuildingBlock: NAHDIM_clean_sbu_0, # of connection points: 4
#     Node 9, Type 0, BuildingBlock: NAHDIM_clean_sbu_0, # of connection points: 4
#     Node 10, Type 0, BuildingBlock: NAHDIM_clean_sbu_0, # of connection points: 4
#     Node 11, Type 0, BuildingBlock: NAHDIM_clean_sbu_0, # of connection points: 4
#     Node 12, Type 0, BuildingBlock: NAHDIM_clean_sbu_0, # of connection points: 4
#     Node 13, Type 0, BuildingBlock: NAHDIM_clean_sbu_0, # of connection points: 4
#     Node 14, Type 0, BuildingBlock: NAHDIM_clean_sbu_0, # of connection points: 4
#     Node 15, Type 0, BuildingBlock: NAHDIM_clean_sbu_0, # of connection points: 4
#     Edge 16, Type (0, 0), BuildingBlock: ZUJKAS_clean_linker_0, # of connection points: 2
#     Edge 17, Type (0, 0), BuildingBlock: ZUJKAS_clean_linker_0, # of connection points: 2
#     Edge 18, Type (0, 0), BuildingBlock: ZUJKAS_clean_linker_0, # of connection points: 2
#     Edge 19, Type (0, 0), BuildingBlock: ZUJKAS_clean_linker_0, # of connection points: 2
#     Edge 20, Type (0, 0), BuildingBlock: ZUJKAS_clean_linker_0, # of connection points: 2
#     Edge 21, Type (0, 0), BuildingBlock: ZUJKAS_clean_linker_0, # of connection points: 2
#     Edge 22, Type (0, 0), BuildingBlock: ZUJKAS_clean_linker_0, # of connection points: 2
#     Edge 23, Type (0, 0), BuildingBlock: ZUJKAS_clean_linker_0, # of connection points: 2
#     Edge 24, Type (0, 0), BuildingBlock: ZUJKAS_clean_linker_0, # of connection points: 2
#     Edge 25, Type (0, 0), BuildingBlock: ZUJKAS_clean_linker_0, # of connection points: 2
#     Edge 26, Type (0, 0), BuildingBlock: ZUJKAS_clean_linker_0, # of connection points: 2
#     Edge 27, Type (0, 0), BuildingBlock: ZUJKAS_clean_linker_0, # of connection points: 2
#     Edge 28, Type (0, 0), BuildingBlock: ZUJKAS_clean_linker_0, # of connection points: 2
#     Edge 29, Type (0, 0), BuildingBlock: ZUJKAS_clean_linker_0, # of connection points: 2
#     Edge 30, Type (0, 0), BuildingBlock: ZUJKAS_clean_linker_0, # of connection points: 2
#     Edge 31, Type (0, 0), BuildingBlock: ZUJKAS_clean_linker_0, # of connection points: 2
#     Edge 32, Type (0, 0), BuildingBlock: ZUJKAS_clean_linker_0, # of connection points: 2
#     Edge 33, Type (0, 0), BuildingBlock: ZUJKAS_clean_linker_0, # of connection points: 2
#     Edge 34, Type (0, 0), BuildingBlock: ZUJKAS_clean_linker_0, # of connection points: 2
#     Edge 35, Type (0, 0), BuildingBlock: ZUJKAS_clean_linker_0, # of connection points: 2
#     Edge 36, Type (0, 0), BuildingBlock: ZUJKAS_clean_linker_0, # of connection points: 2
#     Edge 37, Type (0, 0), BuildingBlock: ZUJKAS_clean_linker_0, # of connection points: 2
#     Edge 38, Type (0, 0), BuildingBlock: ZUJKAS_clean_linker_0, # of connection points: 2
#     Edge 39, Type (0, 0), BuildingBlock: ZUJKAS_clean_linker_0, # of connection points: 2
#     Edge 40, Type (0, 0), BuildingBlock: ZUJKAS_clean_linker_0, # of connection points: 2
#     Edge 41, Type (0, 0), BuildingBlock: ZUJKAS_clean_linker_0, # of connection points: 2
#     Edge 42, Type (0, 0), BuildingBlock: ZUJKAS_clean_linker_0, # of connection points: 2
#     Edge 43, Type (0, 0), BuildingBlock: ZUJKAS_clean_linker_0, # of connection points: 2
#     Edge 44, Type (0, 0), BuildingBlock: ZUJKAS_clean_linker_0, # of connection points: 2
#     Edge 45, Type (0, 0), BuildingBlock: ZUJKAS_clean_linker_0, # of connection points: 2
#     Edge 46, Type (0, 0), BuildingBlock: ZUJKAS_clean_linker_0, # of connection points: 2
#     Edge 47, Type (0, 0), BuildingBlock: ZUJKAS_clean_linker_0, # of connection points: 2
# Relax obj value: 0.068
# Max RMSD: 0.082
# Mean RMSD: 0.082
data_MOF--net-tzs--node1-NAHDIM_clean_sbu_0--edge1-ZUJKAS_clean_linker_0
_symmetry_space_group_name_H-M    P1
_symmetry_Int_Tables_number       1
_symmetry_cell_setting            triclinic
loop_
_symmetry_equiv_pos_as_xyz
'x, y, z'
_cell_length_a     63.672975
_cell_length_b     63.654436
_cell_length_c     51.226473
_cell_angle_alpha  90.038914
_cell_angle_beta   90.054539
_cell_angle_gamma 89.954633
loop_
_atom_site_label
_atom_site_type_symbol
_atom_site_fract_x
_atom_site_fract_y
_atom_site_fract_z
_atom_type_partial_charge
C0 C 0.18104 0.32922 0.19021 0.0
O1 O 0.18742 0.3423 0.17204 0.0
O2 O 0.1524 0.38147 0.19512 0.0
Zn3 Zn 0.14323 0.35262 0.18375 0.0
O4 O 0.14387 0.3507 0.14455 0.0
C5 C 0.09983 0.36139 0.1905 0.0
O6 O 0.10518 0.37777 0.17641 0.0
O7 O 0.16234 0.33064 0.19862 0.0
C8 C 0.14441 0.36703 0.1303 0.0
O9 O 0.14442 0.38564 0.14139 0.0
C10 C 0.16466 0.38522 0.21413 0.0
O11 O 0.17233 0.36951 0.22776 0.0
O12 O 0.11376 0.34786 0.19627 0.0
C13 C 0.66341 0.18526 0.19571 0.0
O14 O 0.65358 0.19071 0.17418 0.0
O15 O 0.60993 0.15486 0.20229 0.0
Zn16 Zn 0.63894 0.14776 0.18947 0.0
O17 O 0.6402 0.1499 0.15036 0.0
C18 C 0.63405 0.10336 0.19238 0.0
O19 O 0.61837 0.10764 0.17656 0.0
O20 O 0.65968 0.16744 0.2058 0.0
C21 C 0.65327 0.13929 0.13704 0.0
O22 O 0.66658 0.12686 0.14913 0.0
C23 C 0.59417 0.15591 0.18711 0.0
O24 O 0.59682 0.15276 0.16198 0.0
O25 O 0.64555 0.11827 0.20056 0.0
C26 C 0.80954 0.66726 0.1859 0.0
O27 O 0.80563 0.65439 0.16644 0.0
O28 O 0.8392 0.61568 0.2037 0.0
Zn29 Zn 0.84717 0.64319 0.18737 0.0
O30 O 0.84683 0.64046 0.14833 0.0
C31 C 0.89108 0.63857 0.19078 0.0
O32 O 0.88636 0.62288 0.17515 0.0
O33 O 0.82676 0.66552 0.19827 0.0
C34 C 0.85613 0.65383 0.13405 0.0
O35 O 0.86616 0.66952 0.14512 0.0
C36 C 0.82785 0.60221 0.19204 0.0
O37 O 0.82057 0.60646 0.16862 0.0
O38 O 0.87641 0.65035 0.19906 0.0
C39 C 0.33057 0.81898 0.21886 0.0
O40 O 0.34624 0.82433 0.23418 0.0
O41 O 0.37992 0.8369 0.19551 0.0
Zn42 Zn 0.35149 0.84697 0.1838 0.0
O43 O 0.35108 0.84824 0.14456 0.0
C44 C 0.35387 0.88138 0.22042 0.0
O45 O 0.36568 0.86811 0.23349 0.0
O46 O 0.32947 0.82682 0.1961 0.0
C47 C 0.35361 0.8654 0.13229 0.0
O48 O 0.35627 0.88288 0.14553 0.0
C49 C 0.39614 0.84726 0.18906 0.0
O50 O 0.39392 0.86414 0.17458 0.0
O51 O 0.34585 0.87566 0.19884 0.0
C52 C 0.18042 0.66439 0.30076 0.0
O53 O 0.18279 0.65485 0.3233 0.0
O54 O 0.15286 0.60947 0.28397 0.0
Zn55 Zn 0.14424 0.6377 0.298 0.0
O56 O 0.14324 0.637 0.33728 0.0
C57 C 0.10153 0.63035 0.28483 0.0
O58 O 0.1066 0.61167 0.2937 0.0
O59 O 0.16488 0.6596 0.28635 0.0
C60 C 0.13892 0.62044 0.35004 0.0
O61 O 0.13478 0.60299 0.33736 0.0
C62 C 0.16888 0.5996 0.29229 0.0
O63 O 0.18069 0.60821 0.31041 0.0
O64 O 0.11541 0.64468 0.28446 0.0
C65 C 0.32656 0.17873 0.29485 0.0
O66 O 0.3438 0.18548 0.3062 0.0
O67 O 0.37391 0.14807 0.29005 0.0
Zn68 Zn 0.34618 0.13983 0.30578 0.0
O69 O 0.34747 0.14174 0.34493 0.0
C70 C 0.35214 0.09582 0.3049 0.0
O71 O 0.36706 0.10131 0.32126 0.0
O72 O 0.32375 0.15908 0.29234 0.0
C73 C 0.33526 0.13084 0.35908 0.0
O74 O 0.32124 0.11869 0.34783 0.0
C75 C 0.39042 0.15063 0.30365 0.0
O76 O 0.38944 0.14833 0.3291 0.0
O77 O 0.34038 0.10998 0.29526 0.0
C78 C 0.81255 0.32874 0.30681 0.0
O79 O 0.80825 0.33985 0.32775 0.0
O80 O 0.83802 0.38282 0.29337 0.0
Zn81 Zn 0.84886 0.3551 0.30657 0.0
O82 O 0.85018 0.35544 0.34582 0.0
C83 C 0.89184 0.36405 0.29639 0.0
O84 O 0.88715 0.38047 0.31082 0.0
O85 O 0.82946 0.33232 0.29445 0.0
C86 C 0.86447 0.34598 0.35853 0.0
O87 O 0.87875 0.33514 0.34583 0.0
C88 C 0.83817 0.39929 0.3074 0.0
O89 O 0.8452 0.3982 0.33148 0.0
O90 O 0.87771 0.35047 0.29174 0.0
C91 C 0.66038 0.82346 0.26635 0.0
O92 O 0.64417 0.82874 0.25189 0.0
O93 O 0.61256 0.84477 0.28861 0.0
Zn94 Zn 0.64105 0.85164 0.30308 0.0
O95 O 0.64125 0.8502 0.34231 0.0
C96 C 0.63406 0.89496 0.29437 0.0
O97 O 0.61595 0.88968 0.30472 0.0
O98 O 0.66236 0.83144 0.28896 0.0
C99 C 0.62507 0.8537 0.35616 0.0
O100 O 0.60718 0.85819 0.34466 0.0
C101 C 0.60194 0.82843 0.29385 0.0
O102 O 0.60956 0.81445 0.31017 0.0
O103 O 0.64816 0.88099 0.29171 0.0
C104 C 0.82664 0.68066 0.80171 0.0
O105 O 0.83959 0.68514 0.8209 0.0
O106 O 0.8782 0.64987 0.78381 0.0
Zn107 Zn 0.85091 0.64304 0.80142 0.0
O108 O 0.85442 0.64493 0.8403 0.0
C109 C 0.85618 0.59926 0.7987 0.0
O110 O 0.87327 0.60477 0.81136 0.0
O111 O 0.82849 0.66317 0.78994 0.0
C112 C 0.84146 0.63579 0.85531 0.0
O113 O 0.82593 0.62499 0.84506 0.0
C114 C 0.89163 0.66236 0.79361 0.0
O115 O 0.88741 0.67179 0.81581 0.0
O116 O 0.84323 0.61343 0.79191 0.0
C117 C 0.30495 0.83142 0.79493 0.0
O118 O 0.29799 0.84659 0.81002 0.0
O119 O 0.33128 0.8821 0.7861 0.0
Zn120 Zn 0.34275 0.85478 0.80018 0.0
O121 O 0.34325 0.85507 0.83949 0.0
C122 C 0.38272 0.86516 0.77718 0.0
O123 O 0.37441 0.88404 0.77663 0.0
O124 O 0.32411 0.83145 0.78806 0.0
C125 C 0.35898 0.86212 0.85202 0.0
O126 O 0.37522 0.86932 0.83903 0.0
C127 C 0.3291 0.89846 0.80007 0.0
O128 O 0.3338 0.89763 0.82502 0.0
O129 O 0.37206 0.85 0.78639 0.0
C130 C 0.16247 0.31078 0.79514 0.0
O131 O 0.15173 0.30537 0.81596 0.0
O132 O 0.10796 0.33763 0.78544 0.0
Zn133 Zn 0.13617 0.34687 0.79898 0.0
O134 O 0.13689 0.34554 0.83811 0.0
C135 C 0.12896 0.39068 0.79773 0.0
O136 O 0.11381 0.38484 0.81354 0.0
O137 O 0.15857 0.32826 0.7842 0.0
C138 C 0.15189 0.35393 0.85068 0.0
O139 O 0.16712 0.36314 0.83774 0.0
C140 C 0.09297 0.33261 0.80058 0.0
O141 O 0.09595 0.33314 0.82595 0.0
O142 O 0.1411 0.37677 0.7883 0.0
C143 C 0.67349 0.15283 0.76723 0.0
O144 O 0.66859 0.1368 0.75225 0.0
O145 O 0.65431 0.10346 0.78946 0.0
Zn146 Zn 0.64693 0.13162 0.80442 0.0
O147 O 0.64996 0.13083 0.84339 0.0
C148 C 0.60247 0.12747 0.80555 0.0
O149 O 0.60747 0.11287 0.82259 0.0
O150 O 0.66595 0.15387 0.79014 0.0
C151 C 0.64178 0.14532 0.85711 0.0
O152 O 0.6315 0.16054 0.8454 0.0
C153 C 0.67207 0.09477 0.79284 0.0
O154 O 0.68648 0.1045 0.80666 0.0
O155 O 0.61703 0.13807 0.79491 0.0
C156 C 0.82115 0.30986 0.68596 0.0
O157 O 0.83418 0.30616 0.66662 0.0
O158 O 0.87325 0.33574 0.70366 0.0
Zn159 Zn 0.84601 0.34671 0.68897 0.0
O160 O 0.84752 0.34844 0.64988 0.0
C161 C 0.85547 0.38625 0.71308 0.0
O162 O 0.87443 0.37812 0.71321 0.0
O163 O 0.82299 0.32682 0.69886 0.0
C164 C 0.86093 0.35978 0.63816 0.0
O165 O 0.87423 0.37102 0.65193 0.0
C166 C 0.88731 0.32637 0.69045 0.0
O167 O 0.88409 0.32256 0.66557 0.0
O168 O 0.84036 0.37562 0.70363 0.0
C169 C 0.66771 0.8284 0.72535 0.0
O170 O 0.66343 0.845 0.73966 0.0
O171 O 0.64972 0.87724 0.70189 0.0
Zn172 Zn 0.64041 0.84902 0.68866 0.0
O173 O 0.64153 0.84823 0.64945 0.0
C174 C 0.59808 0.85976 0.6993 0.0
O175 O 0.6052 0.87802 0.6913 0.0
O176 O 0.65933 0.82661 0.70294 0.0
C177 C 0.63807 0.86446 0.63566 0.0
O178 O 0.63401 0.88241 0.64727 0.0
C179 C 0.66743 0.88546 0.69685 0.0
O180 O 0.68088 0.8752 0.68216 0.0
O181 O 0.61058 0.84419 0.70014 0.0
C182 C 0.16072 0.67887 0.69277 0.0
O183 O 0.14406 0.6854 0.67996 0.0
O184 O 0.11303 0.64948 0.69444 0.0
Zn185 Zn 0.1414 0.63968 0.6824 0.0
O186 O 0.14241 0.63944 0.64311 0.0
C187 C 0.1446 0.60651 0.72033 0.0
O188 O 0.14071 0.62188 0.73677 0.0
O189 O 0.16328 0.65929 0.69632 0.0
C190 C 0.13978 0.62248 0.6304 0.0
O191 O 0.13644 0.60492 0.64318 0.0
C192 C 0.09653 0.64074 0.6857 0.0
O193 O 0.09834 0.62554 0.66849 0.0
O194 O 0.14612 0.61058 0.69615 0.0
C195 C 0.31624 0.16826 0.69171 0.0
O196 O 0.31221 0.15767 0.67026 0.0
O197 O 0.3426 0.11421 0.70257 0.0
Zn198 Zn 0.35271 0.14247 0.69037 0.0
O199 O 0.35303 0.14351 0.65121 0.0
C200 C 0.38695 0.13996 0.72636 0.0
O201 O 0.3727 0.13013 0.7403 0.0
O202 O 0.33316 0.16458 0.70405 0.0
C203 C 0.36143 0.129 0.63775 0.0
O204 O 0.37052 0.11318 0.64976 0.0
C205 C 0.32975 0.10268 0.69012 0.0
O206 O 0.32214 0.10919 0.66769 0.0
O207 O 0.38191 0.14714 0.70408 0.0
H208 H 0.32875 0.22158 0.29521 0.0
H209 H 0.30302 0.24646 0.27793 0.0
H210 H 0.26308 0.19504 0.25472 0.0
H211 H 0.28886 0.16998 0.27161 0.0
H212 H 0.26841 0.22493 0.2159 0.0
H213 H 0.24634 0.26234 0.30982 0.0
H214 H 0.27408 0.26237 0.30358 0.0
H215 H 0.26059 0.23784 0.30815 0.0
C216 C 0.31445 0.21554 0.28655 0.0
C217 C 0.31082 0.1938 0.28485 0.0
C218 C 0.29972 0.2298 0.27682 0.0
C219 C 0.28103 0.22258 0.26543 0.0
C220 C 0.27738 0.2009 0.26358 0.0
H221 H 0.1726 0.29966 0.22744 0.0
H222 H 0.19651 0.27314 0.24505 0.0
C223 C 0.29212 0.18662 0.27326 0.0
C224 C 0.26557 0.23765 0.2547 0.0
H225 H 0.23433 0.27919 0.27109 0.0
C226 C 0.26086 0.23673 0.22796 0.0
C227 C 0.25558 0.25284 0.27059 0.0
C228 C 0.25922 0.25384 0.29968 0.0
C229 C 0.24673 0.25093 0.21653 0.0
C230 C 0.23736 0.26662 0.23223 0.0
C231 C 0.24172 0.26725 0.25908 0.0
C232 C 0.22292 0.28253 0.22121 0.0
C233 C 0.24175 0.24884 0.18784 0.0
C234 C 0.22994 0.29671 0.20218 0.0
C235 C 0.21632 0.31185 0.19203 0.0
C236 C 0.19547 0.31317 0.20089 0.0
C237 C 0.18855 0.29904 0.22015 0.0
C238 C 0.20218 0.28389 0.23025 0.0
H239 H 0.24574 0.23295 0.18032 0.0
H240 H 0.22486 0.25192 0.18401 0.0
H241 H 0.25111 0.26049 0.17673 0.0
H242 H 0.24602 0.29618 0.19534 0.0
H243 H 0.22217 0.32258 0.17734 0.0
H244 H 0.77604 0.31582 0.32977 0.0
H245 H 0.75081 0.29016 0.31302 0.0
H246 H 0.78956 0.28051 0.24504 0.0
H247 H 0.81504 0.30579 0.26182 0.0
H248 H 0.72838 0.29182 0.26753 0.0
H249 H 0.77867 0.22073 0.26915 0.0
H250 H 0.78567 0.24462 0.28603 0.0
H251 H 0.7902 0.24215 0.2515 0.0
C252 C 0.77928 0.30811 0.31136 0.0
C253 C 0.79758 0.31278 0.29717 0.0
C254 C 0.76485 0.29347 0.30182 0.0
C255 C 0.76848 0.28322 0.27799 0.0
C256 C 0.7867 0.28788 0.26377 0.0
H257 H 0.6772 0.2232 0.17755 0.0
H258 H 0.70232 0.24696 0.19832 0.0
C259 C 0.80118 0.30243 0.27332 0.0
C260 C 0.75276 0.26835 0.26742 0.0
H261 H 0.74661 0.21819 0.24516 0.0
C262 C 0.7323 0.27567 0.2628 0.0
C263 C 0.75787 0.24723 0.26161 0.0
C264 C 0.77924 0.23813 0.26756 0.0
C265 C 0.71691 0.26257 0.25191 0.0
C266 C 0.7223 0.24174 0.24498 0.0
C267 C 0.74261 0.23426 0.2502 0.0
C268 C 0.70707 0.2274 0.23238 0.0
C269 C 0.69499 0.27109 0.24821 0.0
C270 C 0.70188 0.20828 0.2443 0.0
C271 C 0.68771 0.19457 0.23236 0.0
C272 C 0.67851 0.19973 0.20823 0.0
C273 C 0.68389 0.21884 0.19622 0.0
C274 C 0.69814 0.2325 0.20814 0.0
H275 H 0.69198 0.28486 0.26101 0.0
H276 H 0.69303 0.27626 0.22767 0.0
H277 H 0.683 0.25888 0.25237 0.0
H278 H 0.7087 0.20402 0.26295 0.0
H279 H 0.68392 0.17997 0.24212 0.0
H280 H 0.8115 0.69453 0.2271 0.0
H281 H 0.78566 0.72116 0.23947 0.0
H282 H 0.74711 0.70378 0.17364 0.0
H283 H 0.77265 0.67685 0.16137 0.0
H284 H 0.77141 0.75535 0.21105 0.0
H285 H 0.70585 0.70101 0.23434 0.0
H286 H 0.73257 0.6921 0.23036 0.0
H287 H 0.71661 0.69764 0.20222 0.0
C288 C 0.79749 0.69631 0.2153 0.0
C289 C 0.79406 0.6835 0.19334 0.0
C290 C 0.78276 0.71154 0.22238 0.0
C291 C 0.76435 0.71419 0.2077 0.0
C292 C 0.76101 0.70165 0.18556 0.0
H293 H 0.65896 0.80057 0.22117 0.0
H294 H 0.68455 0.7746 0.20587 0.0
C295 C 0.77568 0.68635 0.17851 0.0
C296 C 0.74885 0.73039 0.2153 0.0
H297 H 0.69791 0.73741 0.23415 0.0
C298 C 0.75535 0.75144 0.21617 0.0
C299 C 0.72792 0.7252 0.22191 0.0
C300 C 0.72032 0.70275 0.22242 0.0
C301 C 0.7414 0.76751 0.22331 0.0
C302 C 0.72053 0.76229 0.22998 0.0
C303 C 0.71395 0.74129 0.2289 0.0
C304 C 0.7054 0.77836 0.23889 0.0
C305 C 0.74901 0.78995 0.2234 0.0
C306 C 0.70866 0.78887 0.2626 0.0
C307 C 0.69409 0.80363 0.27144 0.0
C308 C 0.67598 0.80811 0.25671 0.0
C309 C 0.67279 0.79754 0.23292 0.0
C310 C 0.68734 0.78269 0.22416 0.0
H311 H 0.76375 0.79182 0.21204 0.0
H312 H 0.73689 0.80063 0.21519 0.0
H313 H 0.75217 0.79489 0.2438 0.0
H314 H 0.72236 0.78546 0.27442 0.0
H315 H 0.69699 0.81145 0.28988 0.0
H316 H 0.2962 0.80485 0.19209 0.0
H317 H 0.27015 0.77924 0.20667 0.0
H318 H 0.30294 0.77268 0.27992 0.0
H319 H 0.32894 0.79848 0.26569 0.0
H320 H 0.27735 0.73752 0.22141 0.0
H321 H 0.24212 0.78354 0.30247 0.0
H322 H 0.25836 0.79538 0.27764 0.0
H323 H 0.27019 0.78107 0.30408 0.0
C324 C 0.29782 0.79807 0.21138 0.0
C325 C 0.31461 0.80375 0.22778 0.0
C326 C 0.28293 0.78344 0.21965 0.0
C327 C 0.28449 0.77431 0.24448 0.0
C328 C 0.30124 0.77988 0.26088 0.0
H329 H 0.21472 0.67876 0.32739 0.0
H330 H 0.24004 0.70526 0.31321 0.0
C331 C 0.31614 0.79453 0.25265 0.0
C332 C 0.26899 0.7584 0.25283 0.0
H333 H 0.23195 0.74776 0.29906 0.0
C334 C 0.26733 0.73978 0.2383 0.0
C335 C 0.25602 0.76144 0.2749 0.0
C336 C 0.25656 0.78151 0.29058 0.0
C337 C 0.25325 0.7239 0.24553 0.0
C338 C 0.24031 0.72692 0.26763 0.0
C339 C 0.24195 0.74554 0.28215 0.0
C340 C 0.22495 0.7109 0.27602 0.0
C341 C 0.25264 0.70384 0.22982 0.0
C342 C 0.20799 0.70552 0.25987 0.0
C343 C 0.19349 0.6904 0.26789 0.0
C344 C 0.19569 0.68046 0.29226 0.0
C345 C 0.21262 0.68606 0.30848 0.0
C346 C 0.22708 0.70121 0.30044 0.0
H347 H 0.26687 0.70197 0.2175 0.0
H348 H 0.25124 0.68995 0.2428 0.0
H349 H 0.23874 0.70412 0.21674 0.0
H350 H 0.2059 0.71312 0.24113 0.0
H351 H 0.18057 0.68651 0.25499 0.0
H352 H 0.67815 0.79131 0.70186 0.0
H353 H 0.70429 0.76567 0.71622 0.0
H354 H 0.71819 0.80402 0.78349 0.0
H355 H 0.69179 0.82958 0.76956 0.0
H356 H 0.7466 0.77245 0.72308 0.0
H357 H 0.71 0.74619 0.81578 0.0
H358 H 0.69573 0.76085 0.79136 0.0
H359 H 0.71328 0.77413 0.81338 0.0
C360 C 0.68662 0.79421 0.71985 0.0
C361 C 0.68286 0.81246 0.73462 0.0
C362 C 0.70156 0.77955 0.728 0.0
C363 C 0.71297 0.78282 0.75107 0.0
C364 C 0.70922 0.80097 0.76592 0.0
H365 H 0.81708 0.71816 0.82479 0.0
H366 H 0.78958 0.74303 0.81213 0.0
C367 C 0.69421 0.81562 0.75785 0.0
C368 C 0.7295 0.76772 0.75886 0.0
H369 H 0.745 0.73485 0.80786 0.0
C370 C 0.7462 0.76413 0.74155 0.0
C371 C 0.72893 0.75697 0.783 0.0
C372 C 0.71093 0.75954 0.80187 0.0
C373 C 0.76253 0.75026 0.74788 0.0
C374 C 0.76197 0.73955 0.77202 0.0
C375 C 0.74533 0.74315 0.78938 0.0
C376 C 0.77852 0.72445 0.77955 0.0
C377 C 0.78045 0.74743 0.72894 0.0
C378 C 0.78119 0.70571 0.76553 0.0
C379 C 0.79684 0.69146 0.7727 0.0
C380 C 0.81006 0.69571 0.79407 0.0
C381 C 0.80722 0.71445 0.80818 0.0
C382 C 0.79151 0.72866 0.80103 0.0
H383 H 0.78093 0.76019 0.71415 0.0
H384 H 0.79573 0.74702 0.7394 0.0
H385 H 0.77853 0.73227 0.71851 0.0
H386 H 0.77108 0.70208 0.74912 0.0
H387 H 0.79857 0.67712 0.7615 0.0
H388 H 0.15942 0.72167 0.68927 0.0
H389 H 0.1847 0.74684 0.70693 0.0
H390 H 0.22204 0.69587 0.73735 0.0
H391 H 0.19673 0.67054 0.72003 0.0
H392 H 0.215 0.72839 0.77332 0.0
H393 H 0.24372 0.75897 0.67837 0.0
H394 H 0.21569 0.75988 0.68212 0.0
H395 H 0.22888 0.73491 0.68109 0.0
C396 C 0.17305 0.71579 0.69963 0.0
C397 C 0.17612 0.6941 0.70316 0.0
C398 C 0.18751 0.7302 0.70959 0.0
C399 C 0.20535 0.72317 0.72309 0.0
C400 C 0.2084 0.70157 0.72685 0.0
H401 H 0.31437 0.79827 0.76308 0.0
H402 H 0.29042 0.7713 0.7467 0.0
C403 C 0.19394 0.68713 0.71691 0.0
C404 C 0.22062 0.7384 0.73379 0.0
H405 H 0.25442 0.77751 0.7164 0.0
C406 C 0.2237 0.73909 0.76091 0.0
C407 C 0.23209 0.75213 0.71747 0.0
C408 C 0.23013 0.75137 0.68812 0.0
C409 C 0.23771 0.75347 0.77221 0.0
C410 C 0.24864 0.76766 0.75595 0.0
C411 C 0.24586 0.7667 0.7288 0.0
C412 C 0.26314 0.78363 0.76666 0.0
C413 C 0.24087 0.75318 0.80141 0.0
C414 C 0.25565 0.79953 0.78318 0.0
C415 C 0.26928 0.81497 0.79261 0.0
C416 C 0.29061 0.81481 0.78551 0.0
C417 C 0.29804 0.79882 0.76895 0.0
C418 C 0.28439 0.78341 0.75955 0.0
H419 H 0.23558 0.73812 0.81016 0.0
H420 H 0.25765 0.75566 0.80648 0.0
H421 H 0.23159 0.76606 0.81034 0.0
H422 H 0.2392 0.80018 0.78849 0.0
H423 H 0.26305 0.82711 0.80523 0.0
H424 H 0.18516 0.31581 0.7503 0.0
H425 H 0.21138 0.29188 0.73206 0.0
H426 H 0.20304 0.25013 0.79751 0.0
H427 H 0.17651 0.27374 0.81567 0.0
H428 H 0.24889 0.27816 0.75289 0.0
H429 H 0.19497 0.21122 0.73506 0.0
H430 H 0.18564 0.23735 0.7424 0.0
H431 H 0.19477 0.22047 0.76818 0.0
C432 C 0.18886 0.30151 0.7608 0.0
C433 C 0.17865 0.29658 0.78434 0.0
C434 C 0.20385 0.28788 0.75036 0.0
C435 C 0.20888 0.2691 0.76323 0.0
C436 C 0.19903 0.26433 0.78698 0.0
H437 H 0.31799 0.19021 0.73758 0.0
H438 H 0.29222 0.21525 0.75442 0.0
C439 C 0.18396 0.27789 0.79739 0.0
C440 C 0.22462 0.25462 0.75194 0.0
H441 H 0.23146 0.20445 0.73008 0.0
C442 C 0.24509 0.26206 0.7478 0.0
C443 C 0.2195 0.23374 0.74499 0.0
C444 C 0.19748 0.22524 0.74762 0.0
C445 C 0.26072 0.24903 0.73728 0.0
C446 C 0.25579 0.22792 0.73124 0.0
C447 C 0.23523 0.2206 0.73497 0.0
C448 C 0.27166 0.21315 0.72084 0.0
C449 C 0.28225 0.25809 0.73236 0.0
C450 C 0.2684 0.20333 0.69666 0.0
C451 C 0.28297 0.18885 0.6871 0.0
C452 C 0.30106 0.18391 0.70161 0.0
C453 C 0.3043 0.19379 0.72585 0.0
C454 C 0.28965 0.2082 0.73543 0.0
H455 H 0.28183 0.27551 0.73118 0.0
H456 H 0.29283 0.2537 0.74869 0.0
H457 H 0.28906 0.25183 0.71397 0.0
H458 H 0.25455 0.20688 0.68517 0.0
H459 H 0.28001 0.18151 0.66838 0.0
H460 H 0.6956 0.15359 0.72145 0.0
H461 H 0.72049 0.18043 0.70689 0.0
H462 H 0.70867 0.21622 0.77687 0.0
H463 H 0.68412 0.18937 0.79182 0.0
H464 H 0.71444 0.22297 0.6975 0.0
H465 H 0.77239 0.21069 0.77702 0.0
H466 H 0.75149 0.19231 0.77034 0.0
H467 H 0.74629 0.21592 0.78854 0.0
C468 C 0.69832 0.16716 0.73376 0.0
C469 C 0.68802 0.16927 0.75789 0.0
C470 C 0.71252 0.18247 0.7254 0.0
C471 C 0.71668 0.20008 0.74104 0.0
C472 C 0.70605 0.20248 0.76481 0.0
H473 H 0.79412 0.31101 0.7274 0.0
H474 H 0.76814 0.28452 0.73971 0.0
C475 C 0.69194 0.18717 0.77325 0.0
C476 C 0.73201 0.21609 0.73242 0.0
H477 H 0.77743 0.24072 0.75018 0.0
C478 C 0.72829 0.22678 0.70891 0.0
C479 C 0.75006 0.22096 0.74736 0.0
C480 C 0.75545 0.20924 0.77209 0.0
C481 C 0.74194 0.24259 0.70022 0.0
C482 C 0.75981 0.24762 0.71535 0.0
C483 C 0.7636 0.23686 0.73876 0.0
C484 C 0.77491 0.26392 0.70719 0.0
C485 C 0.73696 0.25409 0.67523 0.0
C486 C 0.78733 0.26098 0.6849 0.0
C487 C 0.80224 0.27602 0.67786 0.0
C488 C 0.80497 0.29424 0.69303 0.0
C489 C 0.79237 0.29718 0.71527 0.0
C490 C 0.77754 0.28207 0.72235 0.0
H491 H 0.72048 0.25149 0.66887 0.0
H492 H 0.73963 0.27123 0.67757 0.0
H493 H 0.74752 0.24837 0.65953 0.0
H494 H 0.78572 0.24689 0.6732 0.0
H495 H 0.81172 0.27328 0.66064 0.0
H496 H 0.18056 0.37188 0.88364 0.0
H497 H 0.17951 0.37288 0.93135 0.0
H498 H 0.12207 0.33702 0.93068 0.0
H499 H 0.12281 0.33615 0.88299 0.0
H500 H 0.12031 0.37242 0.9624 0.0
H501 H 0.19172 0.3251 0.98286 0.0
H502 H 0.19597 0.34679 0.96109 0.0
H503 H 0.17918 0.32552 0.95123 0.0
C504 C 0.16778 0.36407 0.89363 0.0
C505 C 0.15179 0.3539 0.87953 0.0
C506 C 0.16727 0.36457 0.92089 0.0
C507 C 0.15086 0.35478 0.9345 0.0
C508 C 0.13491 0.34458 0.9205 0.0
H509 H 0.14457 0.331 0.10118 0.0
H510 H 0.14558 0.32796 0.05359 0.0
C511 C 0.13539 0.34409 0.89326 0.0
C512 C 0.14983 0.3559 0.96331 0.0
H513 H 0.17627 0.34281 0.01896 0.0
C514 C 0.13249 0.36589 0.9748 0.0
C515 C 0.16564 0.34713 0.97936 0.0
C516 C 0.1841 0.33535 0.96808 0.0
C517 C 0.13071 0.36768 0.00199 0.0
C518 C 0.14686 0.35953 0.01801 0.0
C519 C 0.16402 0.34921 0.00655 0.0
C520 C 0.1462 0.36149 0.04677 0.0
C521 C 0.11143 0.37801 0.01333 0.0
C522 C 0.14644 0.38136 0.05862 0.0
C523 C 0.14582 0.38316 0.08578 0.0
C524 C 0.14508 0.36511 0.10155 0.0
C525 C 0.14506 0.34521 0.08959 0.0
C526 C 0.14568 0.34344 0.06242 0.0
H527 H 0.09829 0.37848 -0.00095 0.0
H528 H 0.10605 0.36964 0.03112 0.0
H529 H 0.11526 0.39443 0.01885 0.0
H530 H 0.14724 0.39547 0.04686 0.0
H531 H 0.14597 0.39871 0.09438 0.0
H532 H 0.62336 0.17187 0.89224 0.0
H533 H 0.62631 0.17101 0.93986 0.0
H534 H 0.66717 0.11713 0.93469 0.0
H535 H 0.66439 0.11784 0.88706 0.0
H536 H 0.6158 0.13566 0.97329 0.0
H537 H 0.69942 0.16001 0.98156 0.0
H538 H 0.68398 0.16455 0.9525 0.0
H539 H 0.6941 0.1388 0.95932 0.0
C540 C 0.63306 0.15989 0.9012 0.0
C541 C 0.64369 0.14495 0.88587 0.0
C542 C 0.6347 0.15942 0.92839 0.0
C543 C 0.64715 0.14416 0.94068 0.0
C544 C 0.65775 0.12922 0.92549 0.0
H545 H 0.67622 0.11592 0.10245 0.0
H546 H 0.67448 0.11693 0.05474 0.0
C547 C 0.65605 0.1296 0.8983 0.0
C548 C 0.64852 0.14352 0.96946 0.0
H549 H 0.68245 0.14958 0.02051 0.0
C550 C 0.63033 0.13877 0.98368 0.0
C551 C 0.66755 0.14746 0.9828 0.0
C552 C 0.68739 0.15315 0.96836 0.0
C553 C 0.63071 0.13758 0.01101 0.0
C554 C 0.6497 0.14175 0.02442 0.0
C555 C 0.66792 0.14642 0.01016 0.0
C556 C 0.65095 0.14144 0.05327 0.0
C557 C 0.6109 0.13141 0.02522 0.0
C558 C 0.63857 0.15516 0.0682 0.0
C559 C 0.63944 0.15456 0.09542 0.0
C560 C 0.65289 0.14037 0.10822 0.0
C561 C 0.66566 0.127 0.09319 0.0
C562 C 0.6647 0.12755 0.06594 0.0
H563 H 0.59968 0.12316 0.01213 0.0
H564 H 0.61446 0.12107 0.0421 0.0
H565 H 0.60303 0.14577 0.03265 0.0
H566 H 0.62822 0.16635 0.05878 0.0
H567 H 0.62953 0.1652 0.10641 0.0
H568 H 0.81881 0.6154 0.89282 0.0
H569 H 0.82235 0.6187 0.94024 0.0
H570 H 0.8726 0.66328 0.92998 0.0
H571 H 0.86923 0.66013 0.88255 0.0
H572 H 0.86094 0.61176 0.97119 0.0
H573 H 0.82863 0.6928 0.97895 0.0
H574 H 0.82388 0.67617 0.95097 0.0
H575 H 0.84889 0.68874 0.95501 0.0
C576 C 0.8306 0.62593 0.90063 0.0
C577 C 0.8437 0.63756 0.88394 0.0
C578 C 0.83261 0.62776 0.92769 0.0
C579 C 0.84757 0.64139 0.93848 0.0
C580 C 0.86078 0.65289 0.92194 0.0
H581 H 0.87695 0.67758 0.09793 0.0
H582 H 0.87582 0.67401 0.05038 0.0
C583 C 0.85888 0.65099 0.89488 0.0
C584 C 0.8495 0.64341 0.96709 0.0
H585 H 0.8419 0.67753 0.01757 0.0
C586 C 0.85677 0.6261 0.98141 0.0
C587 C 0.84414 0.6622 0.98017 0.0
C588 C 0.8358 0.68104 0.96561 0.0
C589 C 0.85902 0.62716 0.00862 0.0
C590 C 0.85336 0.64587 0.0218 0.0
C591 C 0.84623 0.66322 0.0074 0.0
C592 C 0.85436 0.64767 0.05058 0.0
C593 C 0.86781 0.60838 0.02291 0.0
C594 C 0.84248 0.63419 0.06639 0.0
C595 C 0.84317 0.63611 0.09352 0.0
C596 C 0.85557 0.65173 0.10533 0.0
C597 C 0.86727 0.66537 0.08943 0.0
C598 C 0.86665 0.66336 0.06228 0.0
H599 H 0.87694 0.59799 0.00966 0.0
H600 H 0.87814 0.61331 0.03928 0.0
H601 H 0.85467 0.59903 0.03107 0.0
H602 H 0.83248 0.62231 0.05773 0.0
H603 H 0.83382 0.62546 0.10521 0.0
H604 H 0.34902 0.83204 0.09912 0.0
H605 H 0.35046 0.83235 0.05145 0.0
H606 H 0.36093 0.89926 0.05242 0.0
H607 H 0.35929 0.89919 0.10013 0.0
H608 H 0.3304 0.88632 0.01632 0.0
H609 H 0.4037 0.83964 0.00705 0.0
H610 H 0.38378 0.82739 0.02663 0.0
H611 H 0.39557 0.85154 0.03742 0.0
C612 C 0.35165 0.84683 0.08923 0.0
C613 C 0.35414 0.86559 0.10343 0.0
C614 C 0.35258 0.84695 0.06199 0.0
C615 C 0.35614 0.86577 0.04849 0.0
C616 C 0.3583 0.88456 0.06254 0.0
H617 H 0.38956 0.87698 0.88463 0.0
H618 H 0.38874 0.8787 0.93232 0.0
C619 C 0.35737 0.88447 0.08979 0.0
C620 C 0.35724 0.86589 0.01966 0.0
H621 H 0.38446 0.84581 0.96798 0.0
C622 C 0.34226 0.87754 0.00572 0.0
C623 C 0.37292 0.85466 0.00596 0.0
C624 C 0.39004 0.84275 0.01999 0.0
C625 C 0.34225 0.87787 0.97833 0.0
C626 C 0.35744 0.86599 0.96463 0.0
C627 C 0.37271 0.85473 0.97858 0.0
C628 C 0.35777 0.86503 0.93579 0.0
C629 C 0.32613 0.89112 0.96432 0.0
C630 C 0.34074 0.85651 0.92202 0.0
C631 C 0.34113 0.85551 0.89479 0.0
C632 C 0.35866 0.8629 0.88086 0.0
C633 C 0.37581 0.87119 0.89476 0.0
C634 C 0.37539 0.87219 0.922 0.0
H635 H 0.31936 0.90335 0.97731 0.0
H636 H 0.3331 0.89892 0.94699 0.0
H637 H 0.31312 0.8809 0.95753 0.0
H638 H 0.32718 0.85051 0.93235 0.0
H639 H 0.32771 0.84894 0.88468 0.0
H640 H 0.13367 0.58919 0.59762 0.0
H641 H 0.13398 0.58931 0.5499 0.0
H642 H 0.14662 0.65585 0.55012 0.0
H643 H 0.14653 0.6559 0.59788 0.0
H644 H 0.10789 0.61328 0.51626 0.0
H645 H 0.19249 0.63136 0.50203 0.0
H646 H 0.18208 0.62219 0.53276 0.0
H647 H 0.17864 0.64912 0.52319 0.0
C648 C 0.13662 0.60385 0.58755 0.0
C649 C 0.14015 0.62253 0.60154 0.0
C650 C 0.13677 0.60387 0.5603 0.0
C651 C 0.14058 0.62252 0.54656 0.0
C652 C 0.14402 0.64122 0.56041 0.0
H653 H 0.14636 0.65397 0.38213 0.0
H654 H 0.1461 0.65449 0.42985 0.0
C655 C 0.14385 0.64123 0.58769 0.0
C656 C 0.1404 0.62247 0.51771 0.0
H657 H 0.17106 0.63117 0.46421 0.0
C658 C 0.1217 0.61711 0.50483 0.0
C659 C 0.15845 0.62755 0.50297 0.0
C660 C 0.17913 0.63272 0.51587 0.0
C661 C 0.12047 0.61698 0.4775 0.0
C662 C 0.13855 0.62195 0.46274 0.0
C663 C 0.15724 0.62738 0.47563 0.0
C664 C 0.13845 0.62155 0.43388 0.0
C665 C 0.09973 0.61193 0.46466 0.0
C666 C 0.13444 0.60279 0.42039 0.0
C667 C 0.13452 0.60243 0.39313 0.0
C668 C 0.13875 0.62082 0.37889 0.0
C669 C 0.14297 0.63955 0.3925 0.0
C670 C 0.14286 0.63989 0.41976 0.0
H671 H 0.08637 0.61391 0.47838 0.0
H672 H 0.09702 0.62208 0.44736 0.0
H673 H 0.09989 0.59533 0.45803 0.0
H674 H 0.13144 0.58837 0.43096 0.0
H675 H 0.13135 0.58772 0.38325 0.0
H676 H 0.34663 0.16081 0.60705 0.0
H677 H 0.34252 0.16085 0.55965 0.0
H678 H 0.3678 0.09804 0.55593 0.0
H679 H 0.37243 0.09801 0.60335 0.0
H680 H 0.38405 0.12363 0.51821 0.0
H681 H 0.29718 0.12966 0.51966 0.0
H682 H 0.30993 0.15032 0.53746 0.0
H683 H 0.31237 0.12358 0.54844 0.0
C684 C 0.35136 0.147 0.59617 0.0
C685 C 0.35974 0.12935 0.60898 0.0
C686 C 0.34886 0.14701 0.56909 0.0
C687 C 0.35444 0.12928 0.55436 0.0
C688 C 0.36327 0.11182 0.56699 0.0
H689 H 0.31577 0.10538 0.39448 0.0
H690 H 0.32091 0.10461 0.44177 0.0
C691 C 0.3659 0.11184 0.59408 0.0
C692 C 0.35122 0.12903 0.52573 0.0
H693 H 0.31378 0.13449 0.47848 0.0
C694 C 0.36868 0.12591 0.5095 0.0
C695 C 0.33109 0.13168 0.51445 0.0
C696 C 0.31154 0.13379 0.53089 0.0
C697 C 0.36663 0.12577 0.48223 0.0
C698 C 0.34665 0.12931 0.47094 0.0
C699 C 0.32912 0.13203 0.48719 0.0
C700 C 0.34351 0.13 0.4423 0.0
C701 C 0.38583 0.12145 0.46581 0.0
C702 C 0.35422 0.14477 0.42699 0.0
C703 C 0.35143 0.14517 0.39995 0.0
C704 C 0.33763 0.13096 0.38778 0.0
C705 C 0.32652 0.11652 0.40325 0.0
C706 C 0.32944 0.11605 0.43027 0.0
H707 H 0.39824 0.11325 0.47718 0.0
H708 H 0.38184 0.11173 0.44849 0.0
H709 H 0.39244 0.13657 0.45887 0.0
H710 H 0.36474 0.15604 0.43596 0.0
H711 H 0.36009 0.15659 0.3886 0.0
H712 H 0.83551 0.36407 0.39081 0.0
H713 H 0.837 0.36712 0.4383 0.0
H714 H 0.8968 0.33524 0.43885 0.0
H715 H 0.89524 0.33169 0.39132 0.0
H716 H 0.8703 0.32005 0.47573 0.0
H717 H 0.87275 0.40693 0.48117 0.0
H718 H 0.85075 0.3974 0.46275 0.0
H719 H 0.877 0.39274 0.45111 0.0
C720 C 0.84902 0.35775 0.40101 0.0
C721 C 0.8653 0.3477 0.38729 0.0
C722 C 0.84991 0.35965 0.42813 0.0
C723 C 0.86721 0.35179 0.44203 0.0
C724 C 0.88338 0.34155 0.42845 0.0
H725 H 0.89026 0.37856 0.60687 0.0
H726 H 0.89299 0.37639 0.55926 0.0
C727 C 0.88246 0.33953 0.40131 0.0
C728 C 0.86803 0.35358 0.47083 0.0
H729 H 0.86534 0.38881 0.521 0.0
C730 C 0.86939 0.33509 0.48564 0.0
C731 C 0.86718 0.37325 0.4837 0.0
C732 C 0.86706 0.39372 0.46887 0.0
C733 C 0.86927 0.33568 0.513 0.0
C734 C 0.86727 0.35527 0.52584 0.0
C735 C 0.86659 0.37381 0.51107 0.0
C736 C 0.86549 0.35679 0.55459 0.0
C737 C 0.87144 0.31534 0.52787 0.0
C738 C 0.84889 0.34684 0.56762 0.0
C739 C 0.84733 0.34797 0.59475 0.0
C740 C 0.86223 0.35929 0.60935 0.0
C741 C 0.87856 0.36969 0.59619 0.0
C742 C 0.88015 0.36846 0.56901 0.0
H743 H 0.87896 0.30294 0.5158 0.0
H744 H 0.88085 0.31753 0.54593 0.0
H745 H 0.8556 0.30967 0.53351 0.0
H746 H 0.83711 0.33819 0.55679 0.0
H747 H 0.83446 0.33993 0.60426 0.0
H748 H 0.64676 0.83002 0.60559 0.0
H749 H 0.64583 0.82747 0.55798 0.0
H750 H 0.6278 0.89266 0.55299 0.0
H751 H 0.62899 0.89548 0.60055 0.0
H752 H 0.61201 0.83426 0.5251 0.0
H753 H 0.67726 0.88898 0.50245 0.0
H754 H 0.67296 0.87851 0.53475 0.0
H755 H 0.6574 0.90015 0.52311 0.0
C756 C 0.64273 0.84387 0.59438 0.0
C757 C 0.63802 0.86299 0.60686 0.0
C758 C 0.64219 0.84236 0.56718 0.0
C759 C 0.63702 0.85994 0.55199 0.0
C760 C 0.63225 0.87903 0.56436 0.0
H761 H 0.5942 0.86258 0.39159 0.0
H762 H 0.5972 0.86316 0.43917 0.0
C763 C 0.63283 0.88057 0.59155 0.0
C764 C 0.63592 0.85812 0.52322 0.0
H765 H 0.6559 0.87818 0.46672 0.0
C766 C 0.62167 0.84377 0.5123 0.0
C767 C 0.64874 0.87037 0.50664 0.0
C768 C 0.6651 0.88523 0.51728 0.0
C769 C 0.61958 0.84165 0.48516 0.0
C770 C 0.63183 0.85448 0.46859 0.0
C771 C 0.64639 0.86851 0.47951 0.0
C772 C 0.62982 0.85361 0.43983 0.0
C773 C 0.60448 0.82552 0.47449 0.0
C774 C 0.64729 0.84843 0.42445 0.0
C775 C 0.64568 0.84824 0.39726 0.0
C776 C 0.62658 0.85332 0.38496 0.0
C777 C 0.6091 0.85847 0.40045 0.0
C778 C 0.61074 0.8587 0.42765 0.0
H779 H 0.60069 0.8133 0.48923 0.0
H780 H 0.58961 0.83343 0.46888 0.0
H781 H 0.61101 0.81771 0.45689 0.0
H782 H 0.66218 0.84455 0.4335 0.0
H783 H 0.65946 0.84422 0.38591 0.0
H784 H 0.14854 0.57821 0.25363 0.0
H785 H 0.15374 0.54167 0.24051 0.0
H786 H 0.20376 0.53543 0.29676 0.0
H787 H 0.19867 0.57205 0.31016 0.0
H788 H 0.19211 0.52042 0.22231 0.0
H789 H 0.15997 0.48861 0.31539 0.0
H790 H 0.15545 0.51539 0.30519 0.0
H791 H 0.18065 0.50777 0.31771 0.0
C792 C 0.16075 0.56914 0.26313 0.0
C793 C 0.1731 0.57799 0.28308 0.0
C794 C 0.16372 0.54829 0.25555 0.0
C795 C 0.17897 0.53587 0.26787 0.0
C796 C 0.19175 0.54476 0.28725 0.0
H797 H 0.19106 0.39924 0.25266 0.0
H798 H 0.19794 0.43573 0.26524 0.0
C799 C 0.18886 0.56568 0.2948 0.0
C800 C 0.18081 0.51342 0.26091 0.0
H801 H 0.16946 0.46421 0.28312 0.0
C802 C 0.18736 0.50808 0.23564 0.0
C803 C 0.1747 0.49743 0.27846 0.0
C804 C 0.16716 0.50245 0.30568 0.0
C805 C 0.1876 0.4871 0.22724 0.0
C806 C 0.1806 0.47117 0.2444 0.0
C807 C 0.17478 0.47646 0.27 0.0
C808 C 0.17769 0.44917 0.23569 0.0
C809 C 0.19525 0.48223 0.20003 0.0
C810 C 0.16394 0.44465 0.21504 0.0
C811 C 0.16002 0.4239 0.20777 0.0
C812 C 0.1696 0.4072 0.22125 0.0
C813 C 0.18345 0.41174 0.24189 0.0
C814 C 0.18742 0.43257 0.24909 0.0
H815 H 0.2063 0.49446 0.19294 0.0
H816 H 0.20322 0.46672 0.19922 0.0
H817 H 0.18164 0.48189 0.1865 0.0
H818 H 0.15581 0.45718 0.20489 0.0
H819 H 0.14917 0.42096 0.19189 0.0
H820 H 0.55698 0.15766 0.16043 0.0
H821 H 0.52164 0.16091 0.17869 0.0
H822 H 0.5478 0.16442 0.25626 0.0
H823 H 0.58316 0.16146 0.23823 0.0
H824 H 0.5037 0.13294 0.21352 0.0
H825 H 0.50595 0.21308 0.25594 0.0
H826 H 0.52494 0.20402 0.2323 0.0
H827 H 0.52742 0.1967 0.26607 0.0
C828 C 0.55524 0.1594 0.18135 0.0
C829 C 0.57289 0.15929 0.19788 0.0
C830 C 0.53504 0.16126 0.19173 0.0
C831 C 0.53214 0.16318 0.21877 0.0
C832 C 0.54972 0.16341 0.23529 0.0
H833 H 0.42895 0.15519 0.32661 0.0
H834 H 0.46287 0.15946 0.30486 0.0
C835 C 0.56992 0.16157 0.22494 0.0
C836 C 0.5107 0.1633 0.2299 0.0
H837 H 0.47751 0.1911 0.26925 0.0
C838 C 0.49786 0.14576 0.22545 0.0
C839 C 0.50321 0.18001 0.24556 0.0
C840 C 0.51601 0.19961 0.25009 0.0
C841 C 0.47792 0.14417 0.23688 0.0
C842 C 0.47055 0.16075 0.25281 0.0
C843 C 0.48326 0.17843 0.25702 0.0
C844 C 0.44987 0.15967 0.26584 0.0
C845 C 0.46521 0.12448 0.2325 0.0
C846 C 0.43134 0.15889 0.25107 0.0
C847 C 0.41194 0.1564 0.26339 0.0
C848 C 0.41076 0.15476 0.29074 0.0
C849 C 0.42932 0.15631 0.30552 0.0
C850 C 0.44871 0.15878 0.29315 0.0
H851 H 0.47496 0.11143 0.22467 0.0
H852 H 0.45774 0.1192 0.25094 0.0
H853 H 0.45255 0.1278 0.21818 0.0
H854 H 0.43191 0.15991 0.22997 0.0
H855 H 0.39794 0.15543 0.25144 0.0
H856 H 0.83929 0.5892 0.24082 0.0
H857 H 0.83558 0.55408 0.25946 0.0
H858 H 0.80433 0.53308 0.18946 0.0
H859 H 0.80802 0.5682 0.17051 0.0
H860 H 0.79785 0.52801 0.26695 0.0
H861 H 0.85669 0.49385 0.19857 0.0
H862 H 0.8544 0.52179 0.20398 0.0
H863 H 0.83534 0.50837 0.18426 0.0
C864 C 0.83149 0.57718 0.22942 0.0
C865 C 0.82412 0.58144 0.20407 0.0
C866 C 0.82933 0.55715 0.24014 0.0
C867 C 0.81989 0.54102 0.22569 0.0
C868 C 0.81187 0.54533 0.20076 0.0
H869 H 0.82104 0.40674 0.25931 0.0
H870 H 0.81329 0.44082 0.23949 0.0
C871 C 0.81395 0.5654 0.19002 0.0
C872 C 0.8194 0.51948 0.23638 0.0
H873 H 0.84183 0.47113 0.22951 0.0
C874 C 0.80732 0.51549 0.25871 0.0
C875 C 0.83176 0.50325 0.22547 0.0
C876 C 0.84543 0.50693 0.20185 0.0
C877 C 0.8074 0.49563 0.2706 0.0
C878 C 0.82028 0.47957 0.26017 0.0
C879 C 0.83194 0.48346 0.23744 0.0
C880 C 0.82288 0.45896 0.27318 0.0
C881 C 0.79364 0.49203 0.29413 0.0
C882 C 0.83077 0.45787 0.29873 0.0
C883 C 0.83513 0.43844 0.31016 0.0
C884 C 0.83195 0.41974 0.29609 0.0
C885 C 0.8237 0.42086 0.27065 0.0
C886 C 0.81924 0.4403 0.2593 0.0
H887 H 0.78013 0.50309 0.29444 0.0
H888 H 0.78753 0.4757 0.29459 0.0
H889 H 0.80298 0.49473 0.31211 0.0
H890 H 0.83421 0.47207 0.30957 0.0
H891 H 0.84158 0.43813 0.32973 0.0
H892 H 0.57239 0.79833 0.30485 0.0
H893 H 0.53708 0.79513 0.28598 0.0
H894 H 0.54879 0.84929 0.23764 0.0
H895 H 0.58389 0.85257 0.25613 0.0
H896 H 0.50532 0.82665 0.28753 0.0
H897 H 0.52585 0.80545 0.18584 0.0
H898 H 0.54407 0.80263 0.21267 0.0
H899 H 0.54004 0.82788 0.1977 0.0
C900 C 0.5675 0.80941 0.29001 0.0
C901 C 0.58094 0.82569 0.28198 0.0
C902 C 0.54735 0.80756 0.27928 0.0
C903 C 0.54051 0.82177 0.26014 0.0
C904 C 0.55395 0.83789 0.25198 0.0
H905 H 0.43361 0.86662 0.17977 0.0
H906 H 0.46803 0.85735 0.19743 0.0
C907 C 0.57397 0.83983 0.26274 0.0
C908 C 0.51886 0.82084 0.24974 0.0
H909 H 0.49125 0.8195 0.19265 0.0
C910 C 0.50212 0.82467 0.26687 0.0
C911 C 0.51485 0.81826 0.22278 0.0
C912 C 0.53214 0.81312 0.2037 0.0
C913 C 0.48156 0.82728 0.25752 0.0
C914 C 0.47769 0.82563 0.23039 0.0
C915 C 0.49431 0.82085 0.21342 0.0
C916 C 0.45686 0.83039 0.21904 0.0
C917 C 0.46435 0.83289 0.27654 0.0
C918 C 0.43926 0.81808 0.22504 0.0
C919 C 0.41952 0.82337 0.21504 0.0
C920 C 0.41711 0.84102 0.19876 0.0
C921 C 0.4349 0.85298 0.19231 0.0
C922 C 0.45459 0.84769 0.20233 0.0
H923 H 0.47068 0.83746 0.29595 0.0
H924 H 0.45465 0.84602 0.26888 0.0
H925 H 0.45392 0.8191 0.27928 0.0
H926 H 0.44078 0.80445 0.23756 0.0
H927 H 0.40614 0.81376 0.22026 0.0
H928 H 0.82223 0.58226 0.77343 0.0
H929 H 0.8169 0.54542 0.76124 0.0
H930 H 0.87657 0.52933 0.79578 0.0
H931 H 0.88187 0.56588 0.8084 0.0
H932 H 0.8415 0.52145 0.72894 0.0
H933 H 0.83813 0.48527 0.82701 0.0
H934 H 0.83549 0.51322 0.82198 0.0
H935 H 0.86109 0.50121 0.82285 0.0
C936 C 0.83412 0.57083 0.77865 0.0
C937 C 0.85245 0.57698 0.79195 0.0
C938 C 0.83104 0.54981 0.77168 0.0
C939 C 0.84616 0.5346 0.77803 0.0
C940 C 0.86444 0.54071 0.7913 0.0
H941 H 0.88364 0.41106 0.73863 0.0
H942 H 0.87848 0.44685 0.75456 0.0
C943 C 0.86752 0.56167 0.79832 0.0
C944 C 0.8436 0.51254 0.76941 0.0
H945 H 0.84559 0.46191 0.79121 0.0
C946 C 0.842 0.50842 0.74256 0.0
C947 C 0.84418 0.49559 0.78725 0.0
C948 C 0.8446 0.49903 0.81639 0.0
C949 C 0.84211 0.48776 0.73298 0.0
C950 C 0.8437 0.47088 0.75077 0.0
C951 C 0.84448 0.47495 0.77765 0.0
C952 C 0.84618 0.44898 0.74173 0.0
C953 C 0.84153 0.4841 0.70388 0.0
C954 C 0.8296 0.43831 0.72953 0.0
C955 C 0.83246 0.41778 0.72043 0.0
C956 C 0.85199 0.40769 0.72336 0.0
C957 C 0.86844 0.4184 0.73594 0.0
C958 C 0.86552 0.43883 0.74513 0.0
H959 H 0.8431 0.49895 0.69266 0.0
H960 H 0.85433 0.47323 0.69798 0.0
H961 H 0.82638 0.47665 0.69851 0.0
H962 H 0.8145 0.44589 0.72697 0.0
H963 H 0.81948 0.40992 0.71086 0.0
H964 H 0.56783 0.89005 0.69895 0.0
H965 H 0.53105 0.88661 0.7115 0.0
H966 H 0.54086 0.8211 0.72917 0.0
H967 H 0.57791 0.82441 0.71686 0.0
H968 H 0.5006 0.85896 0.68981 0.0
H969 H 0.51331 0.84512 0.796 0.0
H970 H 0.53354 0.85565 0.7751 0.0
H971 H 0.52731 0.82817 0.77394 0.0
C972 C 0.56224 0.8749 0.70558 0.0
C973 C 0.57582 0.85751 0.707 0.0
C974 C 0.5412 0.87297 0.71269 0.0
C975 C 0.53333 0.85367 0.72148 0.0
C976 C 0.54675 0.83621 0.7228 0.0
H977 H 0.4059 0.82887 0.77873 0.0
H978 H 0.44211 0.82381 0.7638 0.0
C979 C 0.56787 0.83812 0.71566 0.0
C980 C 0.51096 0.85202 0.72889 0.0
H981 H 0.47831 0.84582 0.78113 0.0
C982 C 0.49569 0.85594 0.70973 0.0
C983 C 0.50467 0.84794 0.75487 0.0
C984 C 0.5205 0.84411 0.77628 0.0
C985 C 0.47427 0.85633 0.71597 0.0
C986 C 0.46802 0.85305 0.74212 0.0
C987 C 0.48321 0.84836 0.76111 0.0
C988 C 0.44597 0.85581 0.75045 0.0
C989 C 0.4585 0.86038 0.69454 0.0
C990 C 0.4363 0.87552 0.74812 0.0
C991 C 0.41571 0.87848 0.75664 0.0
C992 C 0.4044 0.86178 0.76777 0.0
C993 C 0.41415 0.84202 0.77014 0.0
C994 C 0.43482 0.8391 0.76166 0.0
H995 H 0.46503 0.8565 0.67502 0.0
H996 H 0.44396 0.85108 0.69761 0.0
H997 H 0.45422 0.87728 0.69456 0.0
H998 H 0.4448 0.88872 0.74 0.0
H999 H 0.40871 0.89391 0.75462 0.0
H1000 H 0.15986 0.40829 0.76778 0.0
H1001 H 0.16409 0.44539 0.75643 0.0
H1002 H 0.1089 0.46081 0.80124 0.0
H1003 H 0.10444 0.42379 0.8126 0.0
H1004 H 0.10965 0.47773 0.74996 0.0
H1005 H 0.18332 0.49423 0.80451 0.0
H1006 H 0.18417 0.47162 0.7835 0.0
H1007 H 0.16699 0.47169 0.81128 0.0
C1008 C 0.14867 0.41958 0.77532 0.0
C1009 C 0.13181 0.4131 0.7911 0.0
C1010 C 0.1512 0.44077 0.76895 0.0
C1011 C 0.13696 0.45582 0.77829 0.0
C1012 C 0.12011 0.44941 0.79399 0.0
H1013 H 0.14211 0.59206 0.77057 0.0
H1014 H 0.14094 0.55539 0.78502 0.0
C1015 C 0.1176 0.42826 0.80044 0.0
C1016 C 0.13904 0.47813 0.77076 0.0
H1017 H 0.17114 0.5209 0.77579 0.0
C1018 C 0.12306 0.4872 0.75565 0.0
C1019 C 0.15648 0.49043 0.77845 0.0
C1020 C 0.17367 0.48161 0.79552 0.0
C1021 C 0.1242 0.50821 0.74762 0.0
C1022 C 0.14188 0.52035 0.75473 0.0
C1023 C 0.15771 0.51143 0.77023 0.0
C1024 C 0.14407 0.5424 0.7462 0.0
C1025 C 0.1064 0.51735 0.7318 0.0
C1026 C 0.14671 0.54711 0.71969 0.0
C1027 C 0.14743 0.56797 0.71137 0.0
C1028 C 0.14551 0.58449 0.72946 0.0
C1029 C 0.14354 0.57969 0.75614 0.0
C1030 C 0.1429 0.55879 0.76445 0.0
H1031 H 0.09208 0.50741 0.73271 0.0
H1032 H 0.1024 0.53339 0.73875 0.0
H1033 H 0.1113 0.51855 0.71107 0.0
H1034 H 0.1479 0.53462 0.70538 0.0
H1035 H 0.14906 0.57111 0.69069 0.0
H1036 H 0.40393 0.12182 0.76982 0.0
H1037 H 0.44052 0.12268 0.78402 0.0
H1038 H 0.45609 0.16261 0.71887 0.0
H1039 H 0.41955 0.16145 0.70414 0.0
H1040 H 0.48289 0.12963 0.72363 0.0
H1041 H 0.47359 0.16875 0.81959 0.0
H1042 H 0.45715 0.14605 0.81605 0.0
H1043 H 0.45301 0.1685 0.79532 0.0
C1044 C 0.41507 0.13098 0.75865 0.0
C1045 C 0.40882 0.14159 0.73586 0.0
C1046 C 0.43597 0.13157 0.76691 0.0
C1047 C 0.45096 0.14301 0.75276 0.0
C1048 C 0.44473 0.1538 0.73016 0.0
H1049 H 0.58699 0.15476 0.76901 0.0
H1050 H 0.5503 0.15967 0.75609 0.0
C1051 C 0.42385 0.15312 0.72178 0.0
C1052 C 0.47335 0.14259 0.76062 0.0
H1053 H 0.50657 0.15189 0.81171 0.0
C1054 C 0.48812 0.13472 0.74278 0.0
C1055 C 0.4801 0.14922 0.78563 0.0
C1056 C 0.46516 0.1588 0.80516 0.0
C1057 C 0.50937 0.13271 0.74954 0.0
C1058 C 0.51602 0.13895 0.7747 0.0
C1059 C 0.50135 0.14707 0.79245 0.0
C1060 C 0.5381 0.13665 0.78315 0.0
C1061 C 0.52445 0.12336 0.73001 0.0
C1062 C 0.54325 0.12244 0.80305 0.0
C1063 C 0.56417 0.11959 0.81051 0.0
C1064 C 0.58027 0.13104 0.79828 0.0
C1065 C 0.57497 0.14563 0.77873 0.0
C1066 C 0.55405 0.14841 0.77125 0.0
H1067 H 0.51614 0.11551 0.71361 0.0
H1068 H 0.53439 0.13603 0.72177 0.0
H1069 H 0.53497 0.11175 0.73957 0.0
H1070 H 0.53111 0.11328 0.81251 0.0
H1071 H 0.56771 0.1083 0.8257 0.0
H1072 H 0.64588 0.07142 0.76231 0.0
H1073 H 0.65166 0.03601 0.74561 0.0
H1074 H 0.71307 0.03486 0.78114 0.0
H1075 H 0.70737 0.0704 0.79826 0.0
H1076 H 0.68427 0.02019 0.71281 0.0
H1077 H 0.6828 0.98236 0.81084 0.0
H1078 H 0.67348 0.00881 0.80553 0.0
H1079 H 0.70116 0.0035 0.80623 0.0
C1080 C 0.66066 0.06371 0.76657 0.0
C1081 C 0.6761 0.07367 0.78181 0.0
C1082 C 0.66395 0.04349 0.75692 0.0
C1083 C 0.68269 0.03279 0.76236 0.0
C1084 C 0.69839 0.0428 0.77703 0.0
H1085 H 0.70278 0.90907 0.68804 0.0
H1086 H 0.71005 0.94467 0.70407 0.0
C1087 C 0.69512 0.06311 0.78671 0.0
C1088 C 0.68524 0.0109 0.75318 0.0
H1089 H 0.68538 0.9601 0.77442 0.0
C1090 C 0.68484 0.00701 0.72621 0.0
C1091 C 0.68583 0.99384 0.77082 0.0
C1092 C 0.68571 -0.00282 0.79999 0.0
C1093 C 0.68426 0.98644 0.7164 0.0
C1094 C 0.68431 0.96938 0.73406 0.0
C1095 C 0.68547 0.97327 0.76099 0.0
C1096 C 0.68077 0.94757 0.72517 0.0
C1097 C 0.68249 0.98309 0.68731 0.0
C1098 C 0.66213 0.93734 0.73221 0.0
C1099 C 0.65796 0.91711 0.72318 0.0
C1100 C 0.6724 0.90664 0.707 0.0
C1101 C 0.6913 0.91676 0.70038 0.0
C1102 C 0.69545 0.93709 0.70943 0.0
H1103 H 0.67941 -0.00201 0.67667 0.0
H1104 H 0.69738 0.97631 0.67986 0.0
H1105 H 0.66967 0.97183 0.68281 0.0
H1106 H 0.65061 0.94519 0.74435 0.0
H1107 H 0.64328 0.90976 0.72874 0.0
H1108 H 0.92506 0.68566 0.81078 0.0
H1109 H 0.96014 0.68764 0.79137 0.0
H1110 H 0.94028 0.64649 0.72917 0.0
H1111 H 0.90523 0.64461 0.74813 0.0
H1112 H 0.98663 0.65382 0.7838 0.0
H1113 H 0.97025 0.69309 0.68954 0.0
H1114 H 0.95188 0.69339 0.71638 0.0
H1115 H 0.95355 0.67087 0.69522 0.0
C1116 C 0.92807 0.67728 0.79276 0.0
C1117 C 0.91235 0.66497 0.781 0.0
C1118 C 0.94811 0.67844 0.78171 0.0
C1119 C 0.9527 0.66746 0.75864 0.0
C1120 C 0.93694 0.65547 0.74664 0.0
H1121 H 0.0583 0.62547 0.67072 0.0
H1122 H 0.02392 0.63431 0.68888 0.0
C1123 C 0.91694 0.6543 0.75764 0.0
C1124 C 0.97437 0.66701 0.74822 0.0
H1125 H 0.00304 0.67458 0.69274 0.0
C1126 C 0.99033 0.65868 0.76404 0.0
C1127 C 0.97909 0.67333 0.72242 0.0
C1128 C 0.96282 0.68336 0.70499 0.0
C1129 C 0.01069 0.65559 0.75436 0.0
C1130 C 0.01522 0.66127 0.72829 0.0
C1131 C -0.00056 0.67018 0.7127 0.0
C1132 C 0.03597 0.65703 0.7165 0.0
C1133 C 0.02696 0.64543 0.77171 0.0
C1134 C 0.05404 0.66719 0.72573 0.0
C1135 C 0.07373 0.66217 0.71543 0.0
C1136 C 0.07563 0.64692 0.69567 0.0
C1137 C 0.05739 0.63721 0.686 0.0
C1138 C 0.03773 0.64227 0.69629 0.0
H1139 H 0.01987 0.63837 0.78945 0.0
H1140 H 0.03562 0.63301 0.76093 0.0
H1141 H 0.0385 0.65746 0.77803 0.0
H1142 H 0.05293 0.67885 0.74108 0.0
H1143 H 0.08746 0.67003 0.7232 0.0
H1144 H 0.31069 0.07022 0.66422 0.0
H1145 H 0.30414 0.03464 0.6807 0.0
H1146 H 0.33004 0.0522 0.75538 0.0
H1147 H 0.33679 0.08762 0.73913 0.0
H1148 H 0.33832 0.00818 0.70245 0.0
H1149 H 0.27275 0.0218 0.77185 0.0
H1150 H 0.27838 0.03932 0.74499 0.0
H1151 H 0.29414 0.04015 0.77405 0.0
C1152 C 0.31474 0.06657 0.68425 0.0
C1153 C 0.32431 0.08169 0.70037 0.0
C1154 C 0.31099 0.04628 0.6936 0.0
C1155 C 0.3164 0.04096 0.7193 0.0
C1156 C 0.32547 0.05614 0.7356 0.0
H1157 H 0.33037 0.93748 0.82215 0.0
H1158 H 0.32468 0.9712 0.80058 0.0
C1159 C 0.32944 0.07632 0.72622 0.0
C1160 C 0.31431 0.01913 0.72865 0.0
H1161 H 0.29108 0.98928 0.77574 0.0
C1162 C 0.32776 0.00387 0.71817 0.0
C1163 C 0.30061 0.01376 0.74924 0.0
C1164 C 0.2855 0.02955 0.76062 0.0
C1165 C 0.32866 0.98355 0.72867 0.0
C1166 C 0.31529 0.97826 0.74975 0.0
C1167 C 0.30129 0.99336 0.75958 0.0
C1168 C 0.31676 0.95767 0.76307 0.0
C1169 C 0.34474 0.96834 0.71804 0.0
C1170 C 0.31359 0.93885 0.74933 0.0
C1171 C 0.31707 0.91953 0.76154 0.0
C1172 C 0.32346 0.91871 0.78781 0.0
C1173 C 0.32554 0.93756 0.80187 0.0
C1174 C 0.32226 0.95686 0.78958 0.0
H1175 H 0.35696 0.97642 0.70628 0.0
H1176 H 0.3526 0.95964 0.73409 0.0
H1177 H 0.33678 0.95676 0.70521 0.0
H1178 H 0.30884 0.93912 0.72903 0.0
H1179 H 0.31509 0.90526 0.75026 0.0
H1180 H 0.05653 0.32595 0.82744 0.0
H1181 H 0.02143 0.32023 0.80934 0.0
H1182 H 0.04683 0.32224 0.7314 0.0
H1183 H 0.08201 0.32799 0.74925 0.0
H1184 H 0.00232 0.35 0.77303 0.0
H1185 H 0.0079 0.26905 0.73266 0.0
H1186 H 0.02529 0.27861 0.75791 0.0
H1187 H 0.02905 0.28664 0.72467 0.0
C1188 C 0.05472 0.32491 0.80646 0.0
C1189 C 0.07205 0.32751 0.78977 0.0
C1190 C 0.03467 0.32162 0.79618 0.0
C1191 C 0.03164 0.32061 0.7691 0.0
C1192 C 0.04894 0.32265 0.75238 0.0
H1193 H 0.92432 0.31738 0.6658 0.0
H1194 H 0.95919 0.31462 0.6857 0.0
C1195 C 0.069 0.32607 0.76262 0.0
C1196 C 0.01017 0.31934 0.75828 0.0
H1197 H 0.97729 0.28856 0.72213 0.0
C1198 C -0.00326 0.33651 0.76207 0.0
C1199 C 0.00316 0.30181 0.74378 0.0
C1200 C 0.017 0.28287 0.73958 0.0
C1201 C 0.97652 0.33685 0.75129 0.0
C1202 C 0.96934 0.31922 0.73698 0.0
C1203 C 0.98279 0.30198 0.73323 0.0
C1204 C 0.94807 0.31871 0.72529 0.0
C1205 C 0.96334 0.3564 0.75462 0.0
C1206 C 0.93022 0.32116 0.74104 0.0
C1207 C 0.91035 0.323 0.72973 0.0
C1208 C 0.90794 0.32201 0.70248 0.0
C1209 C 0.92569 0.31825 0.68685 0.0
C1210 C 0.94561 0.31667 0.69818 0.0
H1211 H 0.97311 0.37031 0.75955 0.0
H1212 H 0.95428 0.35994 0.73661 0.0
H1213 H 0.95205 0.35398 0.77083 0.0
H1214 H 0.93171 0.32219 0.76207 0.0
H1215 H 0.89694 0.32561 0.74232 0.0
H1216 H 0.32552 0.07949 0.26811 0.0
H1217 H 0.32234 0.04268 0.25466 0.0
H1218 H 0.36962 0.02517 0.31091 0.0
H1219 H 0.37289 0.0618 0.32455 0.0
H1220 H 0.35606 0.01744 0.23482 0.0
H1221 H 0.32093 0.98344 0.32448 0.0
H1222 H 0.32033 0.01124 0.31744 0.0
H1223 H 0.34385 -0.0007 0.32997 0.0
C1224 C 0.33511 0.06778 0.27778 0.0
C1225 C 0.34946 0.07355 0.2974 0.0
C1226 C 0.33327 0.04679 0.27007 0.0
C1227 C 0.34555 0.03124 0.28204 0.0
C1228 C 0.35973 0.03691 0.30177 0.0
H1229 H 0.37226 0.89988 0.2628 0.0
H1230 H 0.36883 0.93634 0.27716 0.0
C1231 C 0.36166 0.05788 0.30941 0.0
C1232 C 0.3445 0.00922 0.27293 0.0
H1233 H 0.33408 0.95922 0.29305 0.0
C1234 C 0.35104 0.0047 0.2474 0.0
C1235 C 0.33804 0.99272 0.28951 0.0
C1236 C 0.33021 -0.00314 0.31682 0.0
C1237 C 0.35199 0.98395 0.23825 0.0
C1238 C 0.34574 0.96738 0.25493 0.0
C1239 C 0.33885 0.97196 0.28032 0.0
C1240 C 0.34697 0.94511 0.24668 0.0
C1241 C 0.36041 0.97991 0.21117 0.0
C1242 C 0.33548 0.93788 0.2251 0.0
C1243 C 0.33751 0.91708 0.21673 0.0
C1244 C 0.35089 0.9031 0.23 0.0
C1245 C 0.36186 0.91025 0.25211 0.0
C1246 C 0.35991 0.93107 0.26037 0.0
H1247 H 0.36932 0.99359 0.20354 0.0
H1248 H 0.37085 0.96593 0.21094 0.0
H1249 H 0.3471 0.9769 0.19769 0.0
H1250 H 0.32505 0.94835 0.21463 0.0
H1251 H 0.3287 0.91201 0.19976 0.0
H1252 H 0.90697 0.33173 0.2665 0.0
H1253 H 0.94243 0.32784 0.24869 0.0
H1254 H 0.96038 0.38673 0.28387 0.0
H1255 H 0.92515 0.39064 0.30201 0.0
H1256 H 0.96343 0.35445 0.21466 0.0
H1257 H 0.00676 0.34676 0.30805 0.0
H1258 H 0.9786 0.3439 0.30584 0.0
H1259 H 0.99026 0.36962 0.3068 0.0
C1260 C 0.9185 0.3438 0.27058 0.0
C1261 C 0.91327 0.36146 0.28576 0.0
C1262 C 0.93873 0.34155 0.26038 0.0
C1263 C 0.95409 0.35683 0.26532 0.0
C1264 C 0.94888 0.37453 0.28032 0.0
H1265 H 0.06686 0.38814 0.1828 0.0
H1266 H 0.03126 0.38505 0.20004 0.0
C1267 C 0.92869 0.37679 0.29053 0.0
C1268 C 0.97536 0.35475 0.25401 0.0
H1269 H 0.02737 0.35393 0.2701 0.0
C1270 C 0.97742 0.35413 0.22675 0.0
C1271 C 0.99354 0.35401 0.26987 0.0
C1272 C 0.99223 0.35339 0.29927 0.0
C1273 C -0.00274 0.35358 0.21488 0.0
C1274 C 0.01546 0.35402 0.23073 0.0
C1275 C 0.01338 0.35383 0.25799 0.0
C1276 C 0.03681 0.35537 0.21946 0.0
C1277 C -0.00144 0.35253 0.1855 0.0
C1278 C 0.05185 0.3399 0.2251 0.0
C1279 C 0.07229 0.3417 0.21544 0.0
C1280 C 0.07806 0.35908 0.2001 0.0
C1281 C 0.06291 0.3745 0.19444 0.0
C1282 C 0.04251 0.3727 0.20413 0.0
H1283 H 0.98389 0.34611 0.17686 0.0
H1284 H 0.00085 0.36861 0.17766 0.0
H1285 H 0.01198 0.34265 0.17911 0.0
H1286 H 0.04778 0.32648 0.23705 0.0
H1287 H 0.08359 0.32956 0.22018 0.0
H1288 H 0.66871 0.91085 0.26955 0.0
H1289 H 0.67355 0.94661 0.25288 0.0
H1290 H 0.61199 0.96357 0.28094 0.0
H1291 H 0.60709 0.92812 0.29786 0.0
H1292 H 0.64893 0.96723 0.21581 0.0
H1293 H 0.6492 0.01064 0.30954 0.0
H1294 H 0.65293 0.98255 0.30769 0.0
H1295 H 0.62693 0.99359 0.30613 0.0
C1296 C 0.65629 0.92226 0.27238 0.0
C1297 C 0.63753 0.91667 0.28509 0.0
C1298 C 0.65908 0.94265 0.26283 0.0
C1299 C 0.64326 0.95778 0.26604 0.0
C1300 C 0.62458 0.95225 0.27877 0.0
H1301 H 0.61085 0.06844 0.18111 0.0
H1302 H 0.61578 0.03291 0.19799 0.0
C1303 C 0.62176 0.93192 0.28828 0.0
C1304 C 0.64568 0.9791 0.25499 0.0
H1305 H 0.64301 0.03105 0.27097 0.0
C1306 C 0.64792 0.98121 0.22787 0.0
C1307 C 0.64467 -0.00273 0.27082 0.0
C1308 C 0.64352 0.99595 0.30019 0.0
C1309 C 0.64819 0.00107 0.21602 0.0
C1310 C 0.64582 0.01921 0.23172 0.0
C1311 C 0.64458 0.01711 0.25894 0.0
C1312 C 0.64367 0.04045 0.2203 0.0
C1313 C 0.6509 0.00244 0.18682 0.0
C1314 C 0.6575 0.05656 0.2276 0.0
C1315 C 0.65461 0.07695 0.21817 0.0
C1316 C 0.63775 0.0816 0.20138 0.0
C1317 C 0.62405 0.06537 0.1939 0.0
C1318 C 0.62693 0.04501 0.20338 0.0
H1319 H 0.65887 0.98826 0.17894 0.0
H1320 H 0.63521 0.00354 0.17746 0.0
H1321 H 0.66012 0.01654 0.18126 0.0
H1322 H 0.67044 0.05338 0.24078 0.0
H1323 H 0.66545 0.08911 0.22431 0.0
H1324 H 0.08584 0.66681 0.26399 0.0
H1325 H 0.04993 0.67338 0.24877 0.0
H1326 H 0.0327 0.60999 0.2692 0.0
H1327 H 0.06834 0.60332 0.28461 0.0
H1328 H 0.02769 0.652 0.20944 0.0
H1329 H 0.98734 0.64579 0.30488 0.0
H1330 H 0.01538 0.64936 0.30206 0.0
H1331 H 0.004 0.62371 0.29802 0.0
C1332 C 0.07437 0.6543 0.26535 0.0
C1333 C 0.07992 0.63456 0.2756 0.0
C1334 C 0.05389 0.6581 0.25666 0.0
C1335 C 0.03862 0.64228 0.25828 0.0
C1336 C 0.04415 0.62254 0.26831 0.0
H1337 H 0.9257 0.61619 0.17627 0.0
H1338 H 0.96164 0.62036 0.19195 0.0
C1339 C 0.06458 0.61872 0.27695 0.0
C1340 C 0.01704 0.64597 0.24862 0.0
H1341 H 0.96561 0.64292 0.26679 0.0
C1342 C 0.0141 0.65031 0.22201 0.0
C1343 C -0.00063 0.64411 0.26516 0.0
C1344 C 0.00164 0.6407 0.29418 0.0
C1345 C 0.99388 0.65174 0.21124 0.0
C1346 C 0.97624 0.64844 0.22748 0.0
C1347 C 0.97917 0.64521 0.25433 0.0
C1348 C 0.95468 0.64697 0.21682 0.0
C1349 C 0.9916 0.65654 0.18255 0.0
C1350 C 0.93876 0.66033 0.22594 0.0
C1351 C 0.91811 0.6579 0.21714 0.0
C1352 C 0.91303 0.64192 0.19924 0.0
C1353 C 0.92908 0.6287 0.18999 0.0
C1354 C 0.94968 0.63116 0.19878 0.0
H1355 H 0.00559 0.66493 0.17489 0.0
H1356 H 0.99003 0.64159 0.17157 0.0
H1357 H 0.97742 0.66624 0.17872 0.0
H1358 H 0.9423 0.67252 0.24004 0.0
H1359 H 0.9061 0.66833 0.22466 0.0
loop_
_geom_bond_atom_site_label_1
_geom_bond_atom_site_label_2
_geom_bond_distance
_geom_bond_site_symmetry_2
_ccdc_geom_bond_type
C0 O1 1.160 . S
C0 O7 1.185 . S
O1 C0 1.160 . S
O2 Zn3 1.899 . S
O2 C10 1.284 . S
Zn3 O2 1.899 . S
Zn3 O4 2.032 . S
Zn3 O7 2.086 . S
Zn3 O12 1.977 . S
O4 Zn3 2.032 . S
O4 C8 1.278 . S
C5 O6 1.203 . S
C5 O12 1.267 . S
O6 C5 1.203 . S
O7 C0 1.185 . S
O7 Zn3 2.086 . S
C8 O4 1.278 . S
C8 O9 1.211 . S
O9 C8 1.211 . S
C10 O2 1.284 . S
C10 O11 1.273 . S
O11 C10 1.273 . S
O12 Zn3 1.977 . S
O12 C5 1.267 . S
C13 O14 1.160 . S
C13 O20 1.185 . S
O14 C13 1.160 . S
O15 Zn16 1.899 . S
O15 C23 1.284 . S
Zn16 O15 1.899 . S
Zn16 O17 2.032 . S
Zn16 O20 2.086 . S
Zn16 O25 1.977 . S
O17 Zn16 2.032 . S
O17 C21 1.278 . S
C18 O19 1.203 . S
C18 O25 1.267 . S
O19 C18 1.203 . S
O20 C13 1.185 . S
O20 Zn16 2.086 . S
C21 O17 1.278 . S
C21 O22 1.211 . S
O22 C21 1.211 . S
C23 O15 1.284 . S
C23 O24 1.273 . S
O24 C23 1.273 . S
O25 Zn16 1.977 . S
O25 C18 1.267 . S
C26 O27 1.160 . S
C26 O33 1.185 . S
O27 C26 1.160 . S
O28 Zn29 1.899 . S
O28 C36 1.284 . S
Zn29 O28 1.899 . S
Zn29 O30 2.032 . S
Zn29 O33 2.086 . S
Zn29 O38 1.977 . S
O30 Zn29 2.032 . S
O30 C34 1.278 . S
C31 O32 1.203 . S
C31 O38 1.267 . S
O32 C31 1.203 . S
O33 C26 1.185 . S
O33 Zn29 2.086 . S
C34 O30 1.278 . S
C34 O35 1.211 . S
O35 C34 1.211 . S
C36 O28 1.284 . S
C36 O37 1.273 . S
O37 C36 1.273 . S
O38 Zn29 1.977 . S
O38 C31 1.267 . S
C39 O40 1.160 . S
C39 O46 1.185 . S
O40 C39 1.160 . S
O41 Zn42 1.899 . S
O41 C49 1.284 . S
Zn42 O41 1.899 . S
Zn42 O43 2.032 . S
Zn42 O46 2.086 . S
Zn42 O51 1.977 . S
O43 Zn42 2.032 . S
O43 C47 1.278 . S
C44 O45 1.203 . S
C44 O51 1.267 . S
O45 C44 1.203 . S
O46 C39 1.185 . S
O46 Zn42 2.086 . S
C47 O43 1.278 . S
C47 O48 1.211 . S
O48 C47 1.211 . S
C49 O41 1.284 . S
C49 O50 1.273 . S
O50 C49 1.273 . S
O51 Zn42 1.977 . S
O51 C44 1.267 . S
C52 O53 1.160 . S
C52 O59 1.185 . S
O53 C52 1.160 . S
O54 Zn55 1.899 . S
O54 C62 1.284 . S
Zn55 O54 1.899 . S
Zn55 O56 2.032 . S
Zn55 O59 2.086 . S
Zn55 O64 1.977 . S
O56 Zn55 2.032 . S
O56 C60 1.278 . S
C57 O58 1.203 . S
C57 O64 1.267 . S
O58 C57 1.203 . S
O59 C52 1.185 . S
O59 Zn55 2.086 . S
C60 O56 1.278 . S
C60 O61 1.211 . S
O61 C60 1.211 . S
C62 O54 1.284 . S
C62 O63 1.273 . S
O63 C62 1.273 . S
O64 Zn55 1.977 . S
O64 C57 1.267 . S
C65 O66 1.160 . S
C65 O72 1.185 . S
O66 C65 1.160 . S
O67 Zn68 1.899 . S
O67 C75 1.284 . S
Zn68 O67 1.899 . S
Zn68 O69 2.032 . S
Zn68 O72 2.086 . S
Zn68 O77 1.977 . S
O69 Zn68 2.032 . S
O69 C73 1.278 . S
C70 O71 1.203 . S
C70 O77 1.267 . S
O71 C70 1.203 . S
O72 C65 1.185 . S
O72 Zn68 2.086 . S
C73 O69 1.278 . S
C73 O74 1.211 . S
O74 C73 1.211 . S
C75 O67 1.284 . S
C75 O76 1.273 . S
O76 C75 1.273 . S
O77 Zn68 1.977 . S
O77 C70 1.267 . S
C78 O79 1.160 . S
C78 O85 1.185 . S
O79 C78 1.160 . S
O80 Zn81 1.899 . S
O80 C88 1.284 . S
Zn81 O80 1.899 . S
Zn81 O82 2.032 . S
Zn81 O85 2.086 . S
Zn81 O90 1.977 . S
O82 Zn81 2.032 . S
O82 C86 1.278 . S
C83 O84 1.203 . S
C83 O90 1.267 . S
O84 C83 1.203 . S
O85 C78 1.185 . S
O85 Zn81 2.086 . S
C86 O82 1.278 . S
C86 O87 1.211 . S
O87 C86 1.211 . S
C88 O80 1.284 . S
C88 O89 1.273 . S
O89 C88 1.273 . S
O90 Zn81 1.977 . S
O90 C83 1.267 . S
C91 O92 1.160 . S
C91 O98 1.185 . S
O92 C91 1.160 . S
O93 Zn94 1.899 . S
O93 C101 1.284 . S
Zn94 O93 1.899 . S
Zn94 O95 2.032 . S
Zn94 O98 2.086 . S
Zn94 O103 1.977 . S
O95 Zn94 2.032 . S
O95 C99 1.278 . S
C96 O97 1.203 . S
C96 O103 1.267 . S
O97 C96 1.203 . S
O98 C91 1.185 . S
O98 Zn94 2.086 . S
C99 O95 1.278 . S
C99 O100 1.211 . S
O100 C99 1.211 . S
C101 O93 1.284 . S
C101 O102 1.273 . S
O102 C101 1.273 . S
O103 Zn94 1.977 . S
O103 C96 1.267 . S
C104 O105 1.160 . S
C104 O111 1.185 . S
O105 C104 1.160 . S
O106 Zn107 1.899 . S
O106 C114 1.284 . S
Zn107 O106 1.899 . S
Zn107 O108 2.032 . S
Zn107 O111 2.086 . S
Zn107 O116 1.977 . S
O108 Zn107 2.032 . S
O108 C112 1.278 . S
C109 O110 1.203 . S
C109 O116 1.267 . S
O110 C109 1.203 . S
O111 C104 1.185 . S
O111 Zn107 2.086 . S
C112 O108 1.278 . S
C112 O113 1.211 . S
O113 C112 1.211 . S
C114 O106 1.284 . S
C114 O115 1.273 . S
O115 C114 1.273 . S
O116 Zn107 1.977 . S
O116 C109 1.267 . S
C117 O118 1.160 . S
C117 O124 1.185 . S
O118 C117 1.160 . S
O119 Zn120 1.899 . S
O119 C127 1.284 . S
Zn120 O119 1.899 . S
Zn120 O121 2.032 . S
Zn120 O124 2.086 . S
Zn120 O129 1.977 . S
O121 Zn120 2.032 . S
O121 C125 1.278 . S
C122 O123 1.203 . S
C122 O129 1.267 . S
O123 C122 1.203 . S
O124 C117 1.185 . S
O124 Zn120 2.086 . S
C125 O121 1.278 . S
C125 O126 1.211 . S
O126 C125 1.211 . S
C127 O119 1.284 . S
C127 O128 1.273 . S
O128 C127 1.273 . S
O129 Zn120 1.977 . S
O129 C122 1.267 . S
C130 O131 1.160 . S
C130 O137 1.185 . S
O131 C130 1.160 . S
O132 Zn133 1.899 . S
O132 C140 1.284 . S
Zn133 O132 1.899 . S
Zn133 O134 2.032 . S
Zn133 O137 2.086 . S
Zn133 O142 1.977 . S
O134 Zn133 2.032 . S
O134 C138 1.278 . S
C135 O136 1.203 . S
C135 O142 1.267 . S
O136 C135 1.203 . S
O137 C130 1.185 . S
O137 Zn133 2.086 . S
C138 O134 1.278 . S
C138 O139 1.211 . S
O139 C138 1.211 . S
C140 O132 1.284 . S
C140 O141 1.273 . S
O141 C140 1.273 . S
O142 Zn133 1.977 . S
O142 C135 1.267 . S
C143 O144 1.160 . S
C143 O150 1.185 . S
O144 C143 1.160 . S
O145 Zn146 1.899 . S
O145 C153 1.284 . S
Zn146 O145 1.899 . S
Zn146 O147 2.032 . S
Zn146 O150 2.086 . S
Zn146 O155 1.977 . S
O147 Zn146 2.032 . S
O147 C151 1.278 . S
C148 O149 1.203 . S
C148 O155 1.267 . S
O149 C148 1.203 . S
O150 C143 1.185 . S
O150 Zn146 2.086 . S
C151 O147 1.278 . S
C151 O152 1.211 . S
O152 C151 1.211 . S
C153 O145 1.284 . S
C153 O154 1.273 . S
O154 C153 1.273 . S
O155 Zn146 1.977 . S
O155 C148 1.267 . S
C156 O157 1.160 . S
C156 O163 1.185 . S
O157 C156 1.160 . S
O158 Zn159 1.899 . S
O158 C166 1.284 . S
Zn159 O158 1.899 . S
Zn159 O160 2.032 . S
Zn159 O163 2.086 . S
Zn159 O168 1.977 . S
O160 Zn159 2.032 . S
O160 C164 1.278 . S
C161 O162 1.203 . S
C161 O168 1.267 . S
O162 C161 1.203 . S
O163 C156 1.185 . S
O163 Zn159 2.086 . S
C164 O160 1.278 . S
C164 O165 1.211 . S
O165 C164 1.211 . S
C166 O158 1.284 . S
C166 O167 1.273 . S
O167 C166 1.273 . S
O168 Zn159 1.977 . S
O168 C161 1.267 . S
C169 O170 1.160 . S
C169 O176 1.185 . S
O170 C169 1.160 . S
O171 Zn172 1.899 . S
O171 C179 1.284 . S
Zn172 O171 1.899 . S
Zn172 O173 2.032 . S
Zn172 O176 2.086 . S
Zn172 O181 1.977 . S
O173 Zn172 2.032 . S
O173 C177 1.278 . S
C174 O175 1.203 . S
C174 O181 1.267 . S
O175 C174 1.203 . S
O176 C169 1.185 . S
O176 Zn172 2.086 . S
C177 O173 1.278 . S
C177 O178 1.211 . S
O178 C177 1.211 . S
C179 O171 1.284 . S
C179 O180 1.273 . S
O180 C179 1.273 . S
O181 Zn172 1.977 . S
O181 C174 1.267 . S
C182 O183 1.160 . S
C182 O189 1.185 . S
O183 C182 1.160 . S
O184 Zn185 1.899 . S
O184 C192 1.284 . S
Zn185 O184 1.899 . S
Zn185 O186 2.032 . S
Zn185 O189 2.086 . S
Zn185 O194 1.977 . S
O186 Zn185 2.032 . S
O186 C190 1.278 . S
C187 O188 1.203 . S
C187 O194 1.267 . S
O188 C187 1.203 . S
O189 C182 1.185 . S
O189 Zn185 2.086 . S
C190 O186 1.278 . S
C190 O191 1.211 . S
O191 C190 1.211 . S
C192 O184 1.284 . S
C192 O193 1.273 . S
O193 C192 1.273 . S
O194 Zn185 1.977 . S
O194 C187 1.267 . S
C195 O196 1.160 . S
C195 O202 1.185 . S
O196 C195 1.160 . S
O197 Zn198 1.899 . S
O197 C205 1.284 . S
Zn198 O197 1.899 . S
Zn198 O199 2.032 . S
Zn198 O202 2.086 . S
Zn198 O207 1.977 . S
O199 Zn198 2.032 . S
O199 C203 1.278 . S
C200 O201 1.203 . S
C200 O207 1.267 . S
O201 C200 1.203 . S
O202 C195 1.185 . S
O202 Zn198 2.086 . S
C203 O199 1.278 . S
C203 O204 1.211 . S
O204 C203 1.211 . S
C205 O197 1.284 . S
C205 O206 1.273 . S
O206 C205 1.273 . S
O207 Zn198 1.977 . S
O207 C200 1.267 . S
H208 C216 0.929 . S
H209 C218 0.930 . S
H210 C220 0.930 . S
H211 C223 0.929 . S
H212 C226 0.930 . S
H213 C228 0.960 . S
H214 C228 0.960 . S
H215 C228 0.960 . S
C216 H208 0.929 . S
C216 C217 1.377 . S
C216 C218 1.384 . S
C217 C216 1.377 . S
C217 C223 1.390 . S
C218 H209 0.930 . S
C218 C216 1.384 . S
C218 C219 1.372 . S
C219 C218 1.372 . S
C219 C220 1.400 . S
C219 C224 1.490 . S
C220 H210 0.930 . S
C220 C219 1.400 . S
C220 C223 1.386 . S
H221 C237 0.930 . S
H222 C238 0.931 . S
C223 H211 0.929 . S
C223 C217 1.390 . S
C223 C220 1.386 . S
C224 C219 1.490 . S
C224 C226 1.395 . S
C224 C227 1.403 . S
H225 C231 0.930 . S
C226 H212 0.930 . S
C226 C224 1.395 . S
C226 C229 1.403 . S
C227 C224 1.403 . S
C227 C228 1.524 . S
C227 C231 1.400 . S
C228 H213 0.960 . S
C228 H214 0.960 . S
C228 H215 0.960 . S
C228 C227 1.524 . S
C229 C226 1.403 . S
C229 C230 1.392 . S
C229 C233 1.495 . S
C230 C229 1.392 . S
C230 C231 1.385 . S
C230 C232 1.478 . S
C231 H225 0.930 . S
C231 C227 1.400 . S
C231 C230 1.385 . S
C232 C230 1.478 . S
C232 C234 1.381 . S
C232 C238 1.383 . S
C233 C229 1.495 . S
C233 H239 0.959 . S
C233 H240 0.961 . S
C233 H241 0.960 . S
C234 C232 1.381 . S
C234 C235 1.394 . S
C234 H242 0.930 . S
C235 C234 1.394 . S
C235 C236 1.383 . S
C235 H243 0.929 . S
C236 C235 1.383 . S
C236 C237 1.377 . S
C237 H221 0.930 . S
C237 C236 1.377 . S
C237 C238 1.379 . S
C238 H222 0.931 . S
C238 C232 1.383 . S
C238 C237 1.379 . S
H239 C233 0.959 . S
H240 C233 0.961 . S
H241 C233 0.960 . S
H242 C234 0.930 . S
H243 C235 0.929 . S
H244 C252 0.929 . S
H245 C254 0.930 . S
H246 C256 0.930 . S
H247 C259 0.929 . S
H248 C262 0.930 . S
H249 C264 0.960 . S
H250 C264 0.960 . S
H251 C264 0.960 . S
C252 H244 0.929 . S
C252 C253 1.377 . S
C252 C254 1.384 . S
C253 C252 1.377 . S
C253 C259 1.390 . S
C254 H245 0.930 . S
C254 C252 1.384 . S
C254 C255 1.372 . S
C255 C254 1.372 . S
C255 C256 1.400 . S
C255 C260 1.490 . S
C256 H246 0.930 . S
C256 C255 1.400 . S
C256 C259 1.386 . S
H257 C273 0.930 . S
H258 C274 0.931 . S
C259 H247 0.929 . S
C259 C253 1.390 . S
C259 C256 1.386 . S
C260 C255 1.490 . S
C260 C262 1.395 . S
C260 C263 1.403 . S
H261 C267 0.930 . S
C262 H248 0.930 . S
C262 C260 1.395 . S
C262 C265 1.403 . S
C263 C260 1.403 . S
C263 C264 1.524 . S
C263 C267 1.400 . S
C264 H249 0.960 . S
C264 H250 0.960 . S
C264 H251 0.960 . S
C264 C263 1.524 . S
C265 C262 1.403 . S
C265 C266 1.392 . S
C265 C269 1.495 . S
C266 C265 1.392 . S
C266 C267 1.385 . S
C266 C268 1.478 . S
C267 H261 0.930 . S
C267 C263 1.400 . S
C267 C266 1.385 . S
C268 C266 1.478 . S
C268 C270 1.381 . S
C268 C274 1.383 . S
C269 C265 1.495 . S
C269 H275 0.959 . S
C269 H276 0.961 . S
C269 H277 0.960 . S
C270 C268 1.381 . S
C270 C271 1.394 . S
C270 H278 0.930 . S
C271 C270 1.394 . S
C271 C272 1.383 . S
C271 H279 0.929 . S
C272 C271 1.383 . S
C272 C273 1.377 . S
C273 H257 0.930 . S
C273 C272 1.377 . S
C273 C274 1.379 . S
C274 H258 0.931 . S
C274 C268 1.383 . S
C274 C273 1.379 . S
H275 C269 0.959 . S
H276 C269 0.961 . S
H277 C269 0.960 . S
H278 C270 0.930 . S
H279 C271 0.929 . S
H280 C288 0.929 . S
H281 C290 0.930 . S
H282 C292 0.930 . S
H283 C295 0.929 . S
H284 C298 0.930 . S
H285 C300 0.960 . S
H286 C300 0.960 . S
H287 C300 0.960 . S
C288 H280 0.929 . S
C288 C289 1.377 . S
C288 C290 1.384 . S
C289 C288 1.377 . S
C289 C295 1.390 . S
C290 H281 0.930 . S
C290 C288 1.384 . S
C290 C291 1.372 . S
C291 C290 1.372 . S
C291 C292 1.400 . S
C291 C296 1.490 . S
C292 H282 0.930 . S
C292 C291 1.400 . S
C292 C295 1.386 . S
H293 C309 0.930 . S
H294 C310 0.931 . S
C295 H283 0.929 . S
C295 C289 1.390 . S
C295 C292 1.386 . S
C296 C291 1.490 . S
C296 C298 1.395 . S
C296 C299 1.403 . S
H297 C303 0.930 . S
C298 H284 0.930 . S
C298 C296 1.395 . S
C298 C301 1.403 . S
C299 C296 1.403 . S
C299 C300 1.524 . S
C299 C303 1.400 . S
C300 H285 0.960 . S
C300 H286 0.960 . S
C300 H287 0.960 . S
C300 C299 1.524 . S
C301 C298 1.403 . S
C301 C302 1.392 . S
C301 C305 1.495 . S
C302 C301 1.392 . S
C302 C303 1.385 . S
C302 C304 1.478 . S
C303 H297 0.930 . S
C303 C299 1.400 . S
C303 C302 1.385 . S
C304 C302 1.478 . S
C304 C306 1.381 . S
C304 C310 1.383 . S
C305 C301 1.495 . S
C305 H311 0.959 . S
C305 H312 0.961 . S
C305 H313 0.960 . S
C306 C304 1.381 . S
C306 C307 1.394 . S
C306 H314 0.930 . S
C307 C306 1.394 . S
C307 C308 1.383 . S
C307 H315 0.929 . S
C308 C307 1.383 . S
C308 C309 1.377 . S
C309 H293 0.930 . S
C309 C308 1.377 . S
C309 C310 1.379 . S
C310 H294 0.931 . S
C310 C304 1.383 . S
C310 C309 1.379 . S
H311 C305 0.959 . S
H312 C305 0.961 . S
H313 C305 0.960 . S
H314 C306 0.930 . S
H315 C307 0.929 . S
H316 C324 0.929 . S
H317 C326 0.930 . S
H318 C328 0.930 . S
H319 C331 0.929 . S
H320 C334 0.930 . S
H321 C336 0.960 . S
H322 C336 0.960 . S
H323 C336 0.960 . S
C324 H316 0.929 . S
C324 C325 1.377 . S
C324 C326 1.384 . S
C325 C324 1.377 . S
C325 C331 1.390 . S
C326 H317 0.930 . S
C326 C324 1.384 . S
C326 C327 1.372 . S
C327 C326 1.372 . S
C327 C328 1.400 . S
C327 C332 1.490 . S
C328 H318 0.930 . S
C328 C327 1.400 . S
C328 C331 1.386 . S
H329 C345 0.930 . S
H330 C346 0.931 . S
C331 H319 0.929 . S
C331 C325 1.390 . S
C331 C328 1.386 . S
C332 C327 1.490 . S
C332 C334 1.395 . S
C332 C335 1.403 . S
H333 C339 0.930 . S
C334 H320 0.930 . S
C334 C332 1.395 . S
C334 C337 1.403 . S
C335 C332 1.403 . S
C335 C336 1.524 . S
C335 C339 1.400 . S
C336 H321 0.960 . S
C336 H322 0.960 . S
C336 H323 0.960 . S
C336 C335 1.524 . S
C337 C334 1.403 . S
C337 C338 1.392 . S
C337 C341 1.495 . S
C338 C337 1.392 . S
C338 C339 1.385 . S
C338 C340 1.478 . S
C339 H333 0.930 . S
C339 C335 1.400 . S
C339 C338 1.385 . S
C340 C338 1.478 . S
C340 C342 1.381 . S
C340 C346 1.383 . S
C341 C337 1.495 . S
C341 H347 0.959 . S
C341 H348 0.961 . S
C341 H349 0.960 . S
C342 C340 1.381 . S
C342 C343 1.394 . S
C342 H350 0.930 . S
C343 C342 1.394 . S
C343 C344 1.383 . S
C343 H351 0.929 . S
C344 C343 1.383 . S
C344 C345 1.377 . S
C345 H329 0.930 . S
C345 C344 1.377 . S
C345 C346 1.379 . S
C346 H330 0.931 . S
C346 C340 1.383 . S
C346 C345 1.379 . S
H347 C341 0.959 . S
H348 C341 0.961 . S
H349 C341 0.960 . S
H350 C342 0.930 . S
H351 C343 0.929 . S
H352 C360 0.929 . S
H353 C362 0.930 . S
H354 C364 0.930 . S
H355 C367 0.929 . S
H356 C370 0.930 . S
H357 C372 0.960 . S
H358 C372 0.960 . S
H359 C372 0.960 . S
C360 H352 0.929 . S
C360 C361 1.377 . S
C360 C362 1.384 . S
C361 C360 1.377 . S
C361 C367 1.390 . S
C362 H353 0.930 . S
C362 C360 1.384 . S
C362 C363 1.372 . S
C363 C362 1.372 . S
C363 C364 1.400 . S
C363 C368 1.490 . S
C364 H354 0.930 . S
C364 C363 1.400 . S
C364 C367 1.386 . S
H365 C381 0.930 . S
H366 C382 0.931 . S
C367 H355 0.929 . S
C367 C361 1.390 . S
C367 C364 1.386 . S
C368 C363 1.490 . S
C368 C370 1.395 . S
C368 C371 1.403 . S
H369 C375 0.930 . S
C370 H356 0.930 . S
C370 C368 1.395 . S
C370 C373 1.403 . S
C371 C368 1.403 . S
C371 C372 1.524 . S
C371 C375 1.400 . S
C372 H357 0.960 . S
C372 H358 0.960 . S
C372 H359 0.960 . S
C372 C371 1.524 . S
C373 C370 1.403 . S
C373 C374 1.392 . S
C373 C377 1.495 . S
C374 C373 1.392 . S
C374 C375 1.385 . S
C374 C376 1.478 . S
C375 H369 0.930 . S
C375 C371 1.400 . S
C375 C374 1.385 . S
C376 C374 1.478 . S
C376 C378 1.381 . S
C376 C382 1.383 . S
C377 C373 1.495 . S
C377 H383 0.959 . S
C377 H384 0.961 . S
C377 H385 0.960 . S
C378 C376 1.381 . S
C378 C379 1.394 . S
C378 H386 0.930 . S
C379 C378 1.394 . S
C379 C380 1.383 . S
C379 H387 0.929 . S
C380 C379 1.383 . S
C380 C381 1.377 . S
C381 H365 0.930 . S
C381 C380 1.377 . S
C381 C382 1.379 . S
C382 H366 0.931 . S
C382 C376 1.383 . S
C382 C381 1.379 . S
H383 C377 0.959 . S
H384 C377 0.961 . S
H385 C377 0.960 . S
H386 C378 0.930 . S
H387 C379 0.929 . S
H388 C396 0.929 . S
H389 C398 0.930 . S
H390 C400 0.930 . S
H391 C403 0.929 . S
H392 C406 0.930 . S
H393 C408 0.960 . S
H394 C408 0.960 . S
H395 C408 0.960 . S
C396 H388 0.929 . S
C396 C397 1.377 . S
C396 C398 1.384 . S
C397 C396 1.377 . S
C397 C403 1.390 . S
C398 H389 0.930 . S
C398 C396 1.384 . S
C398 C399 1.372 . S
C399 C398 1.372 . S
C399 C400 1.400 . S
C399 C404 1.490 . S
C400 H390 0.930 . S
C400 C399 1.400 . S
C400 C403 1.386 . S
H401 C417 0.930 . S
H402 C418 0.931 . S
C403 H391 0.929 . S
C403 C397 1.390 . S
C403 C400 1.386 . S
C404 C399 1.490 . S
C404 C406 1.395 . S
C404 C407 1.403 . S
H405 C411 0.930 . S
C406 H392 0.930 . S
C406 C404 1.395 . S
C406 C409 1.403 . S
C407 C404 1.403 . S
C407 C408 1.524 . S
C407 C411 1.400 . S
C408 H393 0.960 . S
C408 H394 0.960 . S
C408 H395 0.960 . S
C408 C407 1.524 . S
C409 C406 1.403 . S
C409 C410 1.392 . S
C409 C413 1.495 . S
C410 C409 1.392 . S
C410 C411 1.385 . S
C410 C412 1.478 . S
C411 H405 0.930 . S
C411 C407 1.400 . S
C411 C410 1.385 . S
C412 C410 1.478 . S
C412 C414 1.381 . S
C412 C418 1.383 . S
C413 C409 1.495 . S
C413 H419 0.959 . S
C413 H420 0.961 . S
C413 H421 0.960 . S
C414 C412 1.381 . S
C414 C415 1.394 . S
C414 H422 0.930 . S
C415 C414 1.394 . S
C415 C416 1.383 . S
C415 H423 0.929 . S
C416 C415 1.383 . S
C416 C417 1.377 . S
C417 H401 0.930 . S
C417 C416 1.377 . S
C417 C418 1.379 . S
C418 H402 0.931 . S
C418 C412 1.383 . S
C418 C417 1.379 . S
H419 C413 0.959 . S
H420 C413 0.961 . S
H421 C413 0.960 . S
H422 C414 0.930 . S
H423 C415 0.929 . S
H424 C432 0.929 . S
H425 C434 0.930 . S
H426 C436 0.930 . S
H427 C439 0.929 . S
H428 C442 0.930 . S
H429 C444 0.960 . S
H430 C444 0.960 . S
H431 C444 0.960 . S
C432 H424 0.929 . S
C432 C433 1.377 . S
C432 C434 1.384 . S
C433 C432 1.377 . S
C433 C439 1.390 . S
C434 H425 0.930 . S
C434 C432 1.384 . S
C434 C435 1.372 . S
C435 C434 1.372 . S
C435 C436 1.400 . S
C435 C440 1.490 . S
C436 H426 0.930 . S
C436 C435 1.400 . S
C436 C439 1.386 . S
H437 C453 0.930 . S
H438 C454 0.931 . S
C439 H427 0.929 . S
C439 C433 1.390 . S
C439 C436 1.386 . S
C440 C435 1.490 . S
C440 C442 1.395 . S
C440 C443 1.403 . S
H441 C447 0.930 . S
C442 H428 0.930 . S
C442 C440 1.395 . S
C442 C445 1.403 . S
C443 C440 1.403 . S
C443 C444 1.524 . S
C443 C447 1.400 . S
C444 H429 0.960 . S
C444 H430 0.960 . S
C444 H431 0.960 . S
C444 C443 1.524 . S
C445 C442 1.403 . S
C445 C446 1.392 . S
C445 C449 1.495 . S
C446 C445 1.392 . S
C446 C447 1.385 . S
C446 C448 1.478 . S
C447 H441 0.930 . S
C447 C443 1.400 . S
C447 C446 1.385 . S
C448 C446 1.478 . S
C448 C450 1.381 . S
C448 C454 1.383 . S
C449 C445 1.495 . S
C449 H455 0.959 . S
C449 H456 0.961 . S
C449 H457 0.960 . S
C450 C448 1.381 . S
C450 C451 1.394 . S
C450 H458 0.930 . S
C451 C450 1.394 . S
C451 C452 1.383 . S
C451 H459 0.929 . S
C452 C451 1.383 . S
C452 C453 1.377 . S
C453 H437 0.930 . S
C453 C452 1.377 . S
C453 C454 1.379 . S
C454 H438 0.931 . S
C454 C448 1.383 . S
C454 C453 1.379 . S
H455 C449 0.959 . S
H456 C449 0.961 . S
H457 C449 0.960 . S
H458 C450 0.930 . S
H459 C451 0.929 . S
H460 C468 0.929 . S
H461 C470 0.930 . S
H462 C472 0.930 . S
H463 C475 0.929 . S
H464 C478 0.930 . S
H465 C480 0.960 . S
H466 C480 0.960 . S
H467 C480 0.960 . S
C468 H460 0.929 . S
C468 C469 1.377 . S
C468 C470 1.384 . S
C469 C468 1.377 . S
C469 C475 1.390 . S
C470 H461 0.930 . S
C470 C468 1.384 . S
C470 C471 1.372 . S
C471 C470 1.372 . S
C471 C472 1.400 . S
C471 C476 1.490 . S
C472 H462 0.930 . S
C472 C471 1.400 . S
C472 C475 1.386 . S
H473 C489 0.930 . S
H474 C490 0.931 . S
C475 H463 0.929 . S
C475 C469 1.390 . S
C475 C472 1.386 . S
C476 C471 1.490 . S
C476 C478 1.395 . S
C476 C479 1.403 . S
H477 C483 0.930 . S
C478 H464 0.930 . S
C478 C476 1.395 . S
C478 C481 1.403 . S
C479 C476 1.403 . S
C479 C480 1.524 . S
C479 C483 1.400 . S
C480 H465 0.960 . S
C480 H466 0.960 . S
C480 H467 0.960 . S
C480 C479 1.524 . S
C481 C478 1.403 . S
C481 C482 1.392 . S
C481 C485 1.495 . S
C482 C481 1.392 . S
C482 C483 1.385 . S
C482 C484 1.478 . S
C483 H477 0.930 . S
C483 C479 1.400 . S
C483 C482 1.385 . S
C484 C482 1.478 . S
C484 C486 1.381 . S
C484 C490 1.383 . S
C485 C481 1.495 . S
C485 H491 0.959 . S
C485 H492 0.961 . S
C485 H493 0.960 . S
C486 C484 1.381 . S
C486 C487 1.394 . S
C486 H494 0.930 . S
C487 C486 1.394 . S
C487 C488 1.383 . S
C487 H495 0.929 . S
C488 C487 1.383 . S
C488 C489 1.377 . S
C489 H473 0.930 . S
C489 C488 1.377 . S
C489 C490 1.379 . S
C490 H474 0.931 . S
C490 C484 1.383 . S
C490 C489 1.379 . S
H491 C485 0.959 . S
H492 C485 0.961 . S
H493 C485 0.960 . S
H494 C486 0.930 . S
H495 C487 0.929 . S
H496 C504 0.929 . S
H497 C506 0.930 . S
H498 C508 0.930 . S
H499 C511 0.929 . S
H500 C514 0.930 . S
H501 C516 0.960 . S
H502 C516 0.960 . S
H503 C516 0.960 . S
C504 H496 0.929 . S
C504 C505 1.377 . S
C504 C506 1.384 . S
C505 C504 1.377 . S
C505 C511 1.390 . S
C506 H497 0.930 . S
C506 C504 1.384 . S
C506 C507 1.372 . S
C507 C506 1.372 . S
C507 C508 1.400 . S
C507 C512 1.490 . S
C508 H498 0.930 . S
C508 C507 1.400 . S
C508 C511 1.386 . S
H509 C525 0.930 . S
H510 C526 0.931 . S
C511 H499 0.929 . S
C511 C505 1.390 . S
C511 C508 1.386 . S
C512 C507 1.490 . S
C512 C514 1.395 . S
C512 C515 1.403 . S
H513 C519 0.930 . S
C514 H500 0.930 . S
C514 C512 1.395 . S
C514 C517 1.403 1_556 S
C515 C512 1.403 . S
C515 C516 1.524 . S
C515 C519 1.400 1_556 S
C516 H501 0.960 . S
C516 H502 0.960 . S
C516 H503 0.960 . S
C516 C515 1.524 . S
C517 C514 1.403 1_554 S
C517 C518 1.392 . S
C517 C521 1.495 . S
C518 C517 1.392 . S
C518 C519 1.385 . S
C518 C520 1.478 . S
C519 H513 0.930 . S
C519 C515 1.400 1_554 S
C519 C518 1.385 . S
C520 C518 1.478 . S
C520 C522 1.381 . S
C520 C526 1.383 . S
C521 C517 1.495 . S
C521 H527 0.959 . S
C521 H528 0.961 . S
C521 H529 0.960 . S
C522 C520 1.381 . S
C522 C523 1.394 . S
C522 H530 0.930 . S
C523 C522 1.394 . S
C523 C524 1.383 . S
C523 H531 0.929 . S
C524 C523 1.383 . S
C524 C525 1.377 . S
C525 H509 0.930 . S
C525 C524 1.377 . S
C525 C526 1.379 . S
C526 H510 0.931 . S
C526 C520 1.383 . S
C526 C525 1.379 . S
H527 C521 0.959 . S
H528 C521 0.961 . S
H529 C521 0.960 . S
H530 C522 0.930 . S
H531 C523 0.929 . S
H532 C540 0.929 . S
H533 C542 0.930 . S
H534 C544 0.930 . S
H535 C547 0.929 . S
H536 C550 0.930 . S
H537 C552 0.960 . S
H538 C552 0.960 . S
H539 C552 0.960 . S
C540 H532 0.929 . S
C540 C541 1.377 . S
C540 C542 1.384 . S
C541 C540 1.377 . S
C541 C547 1.390 . S
C542 H533 0.930 . S
C542 C540 1.384 . S
C542 C543 1.372 . S
C543 C542 1.372 . S
C543 C544 1.400 . S
C543 C548 1.490 . S
C544 H534 0.930 . S
C544 C543 1.400 . S
C544 C547 1.386 . S
H545 C561 0.930 . S
H546 C562 0.931 . S
C547 H535 0.929 . S
C547 C541 1.390 . S
C547 C544 1.386 . S
C548 C543 1.490 . S
C548 C550 1.395 . S
C548 C551 1.403 . S
H549 C555 0.930 . S
C550 H536 0.930 . S
C550 C548 1.395 . S
C550 C553 1.403 1_556 S
C551 C548 1.403 . S
C551 C552 1.524 . S
C551 C555 1.400 1_556 S
C552 H537 0.960 . S
C552 H538 0.960 . S
C552 H539 0.960 . S
C552 C551 1.524 . S
C553 C550 1.403 1_554 S
C553 C554 1.392 . S
C553 C557 1.495 . S
C554 C553 1.392 . S
C554 C555 1.385 . S
C554 C556 1.478 . S
C555 H549 0.930 . S
C555 C551 1.400 1_554 S
C555 C554 1.385 . S
C556 C554 1.478 . S
C556 C558 1.381 . S
C556 C562 1.383 . S
C557 C553 1.495 . S
C557 H563 0.959 . S
C557 H564 0.961 . S
C557 H565 0.960 . S
C558 C556 1.381 . S
C558 C559 1.394 . S
C558 H566 0.930 . S
C559 C558 1.394 . S
C559 C560 1.383 . S
C559 H567 0.929 . S
C560 C559 1.383 . S
C560 C561 1.377 . S
C561 H545 0.930 . S
C561 C560 1.377 . S
C561 C562 1.379 . S
C562 H546 0.931 . S
C562 C556 1.383 . S
C562 C561 1.379 . S
H563 C557 0.959 . S
H564 C557 0.961 . S
H565 C557 0.960 . S
H566 C558 0.930 . S
H567 C559 0.929 . S
H568 C576 0.929 . S
H569 C578 0.930 . S
H570 C580 0.930 . S
H571 C583 0.929 . S
H572 C586 0.930 . S
H573 C588 0.960 . S
H574 C588 0.960 . S
H575 C588 0.960 . S
C576 H568 0.929 . S
C576 C577 1.377 . S
C576 C578 1.384 . S
C577 C576 1.377 . S
C577 C583 1.390 . S
C578 H569 0.930 . S
C578 C576 1.384 . S
C578 C579 1.372 . S
C579 C578 1.372 . S
C579 C580 1.400 . S
C579 C584 1.490 . S
C580 H570 0.930 . S
C580 C579 1.400 . S
C580 C583 1.386 . S
H581 C597 0.930 . S
H582 C598 0.931 . S
C583 H571 0.929 . S
C583 C577 1.390 . S
C583 C580 1.386 . S
C584 C579 1.490 . S
C584 C586 1.395 . S
C584 C587 1.403 . S
H585 C591 0.930 . S
C586 H572 0.930 . S
C586 C584 1.395 . S
C586 C589 1.403 1_556 S
C587 C584 1.403 . S
C587 C588 1.524 . S
C587 C591 1.400 1_556 S
C588 H573 0.960 . S
C588 H574 0.960 . S
C588 H575 0.960 . S
C588 C587 1.524 . S
C589 C586 1.403 1_554 S
C589 C590 1.392 . S
C589 C593 1.495 . S
C590 C589 1.392 . S
C590 C591 1.385 . S
C590 C592 1.478 . S
C591 H585 0.930 . S
C591 C587 1.400 1_554 S
C591 C590 1.385 . S
C592 C590 1.478 . S
C592 C594 1.381 . S
C592 C598 1.383 . S
C593 C589 1.495 . S
C593 H599 0.959 . S
C593 H600 0.961 . S
C593 H601 0.960 . S
C594 C592 1.381 . S
C594 C595 1.394 . S
C594 H602 0.930 . S
C595 C594 1.394 . S
C595 C596 1.383 . S
C595 H603 0.929 . S
C596 C595 1.383 . S
C596 C597 1.377 . S
C597 H581 0.930 . S
C597 C596 1.377 . S
C597 C598 1.379 . S
C598 H582 0.931 . S
C598 C592 1.383 . S
C598 C597 1.379 . S
H599 C593 0.959 . S
H600 C593 0.961 . S
H601 C593 0.960 . S
H602 C594 0.930 . S
H603 C595 0.929 . S
H604 C612 0.929 . S
H605 C614 0.930 . S
H606 C616 0.930 . S
H607 C619 0.929 . S
H608 C622 0.930 . S
H609 C624 0.960 . S
H610 C624 0.960 . S
H611 C624 0.960 . S
C612 H604 0.929 . S
C612 C613 1.377 . S
C612 C614 1.384 . S
C613 C612 1.377 . S
C613 C619 1.390 . S
C614 H605 0.930 . S
C614 C612 1.384 . S
C614 C615 1.372 . S
C615 C614 1.372 . S
C615 C616 1.400 . S
C615 C620 1.490 . S
C616 H606 0.930 . S
C616 C615 1.400 . S
C616 C619 1.386 . S
H617 C633 0.930 . S
H618 C634 0.931 . S
C619 H607 0.929 . S
C619 C613 1.390 . S
C619 C616 1.386 . S
C620 C615 1.490 . S
C620 C622 1.395 . S
C620 C623 1.403 . S
H621 C627 0.930 . S
C622 H608 0.930 . S
C622 C620 1.395 . S
C622 C625 1.403 1_554 S
C623 C620 1.403 . S
C623 C624 1.524 . S
C623 C627 1.400 1_554 S
C624 H609 0.960 . S
C624 H610 0.960 . S
C624 H611 0.960 . S
C624 C623 1.524 . S
C625 C622 1.403 1_556 S
C625 C626 1.392 . S
C625 C629 1.495 . S
C626 C625 1.392 . S
C626 C627 1.385 . S
C626 C628 1.478 . S
C627 H621 0.930 . S
C627 C623 1.400 1_556 S
C627 C626 1.385 . S
C628 C626 1.478 . S
C628 C630 1.381 . S
C628 C634 1.383 . S
C629 C625 1.495 . S
C629 H635 0.959 . S
C629 H636 0.961 . S
C629 H637 0.960 . S
C630 C628 1.381 . S
C630 C631 1.394 . S
C630 H638 0.930 . S
C631 C630 1.394 . S
C631 C632 1.383 . S
C631 H639 0.929 . S
C632 C631 1.383 . S
C632 C633 1.377 . S
C633 H617 0.930 . S
C633 C632 1.377 . S
C633 C634 1.379 . S
C634 H618 0.931 . S
C634 C628 1.383 . S
C634 C633 1.379 . S
H635 C629 0.959 . S
H636 C629 0.961 . S
H637 C629 0.960 . S
H638 C630 0.930 . S
H639 C631 0.929 . S
H640 C648 0.929 . S
H641 C650 0.930 . S
H642 C652 0.930 . S
H643 C655 0.929 . S
H644 C658 0.930 . S
H645 C660 0.960 . S
H646 C660 0.960 . S
H647 C660 0.960 . S
C648 H640 0.929 . S
C648 C649 1.377 . S
C648 C650 1.384 . S
C649 C648 1.377 . S
C649 C655 1.390 . S
C650 H641 0.930 . S
C650 C648 1.384 . S
C650 C651 1.372 . S
C651 C650 1.372 . S
C651 C652 1.400 . S
C651 C656 1.490 . S
C652 H642 0.930 . S
C652 C651 1.400 . S
C652 C655 1.386 . S
H653 C669 0.930 . S
H654 C670 0.931 . S
C655 H643 0.929 . S
C655 C649 1.390 . S
C655 C652 1.386 . S
C656 C651 1.490 . S
C656 C658 1.395 . S
C656 C659 1.403 . S
H657 C663 0.930 . S
C658 H644 0.930 . S
C658 C656 1.395 . S
C658 C661 1.403 . S
C659 C656 1.403 . S
C659 C660 1.524 . S
C659 C663 1.400 . S
C660 H645 0.960 . S
C660 H646 0.960 . S
C660 H647 0.960 . S
C660 C659 1.524 . S
C661 C658 1.403 . S
C661 C662 1.392 . S
C661 C665 1.495 . S
C662 C661 1.392 . S
C662 C663 1.385 . S
C662 C664 1.478 . S
C663 H657 0.930 . S
C663 C659 1.400 . S
C663 C662 1.385 . S
C664 C662 1.478 . S
C664 C666 1.381 . S
C664 C670 1.383 . S
C665 C661 1.495 . S
C665 H671 0.959 . S
C665 H672 0.961 . S
C665 H673 0.960 . S
C666 C664 1.381 . S
C666 C667 1.394 . S
C666 H674 0.930 . S
C667 C666 1.394 . S
C667 C668 1.383 . S
C667 H675 0.929 . S
C668 C667 1.383 . S
C668 C669 1.377 . S
C669 H653 0.930 . S
C669 C668 1.377 . S
C669 C670 1.379 . S
C670 H654 0.931 . S
C670 C664 1.383 . S
C670 C669 1.379 . S
H671 C665 0.959 . S
H672 C665 0.961 . S
H673 C665 0.960 . S
H674 C666 0.930 . S
H675 C667 0.929 . S
H676 C684 0.929 . S
H677 C686 0.930 . S
H678 C688 0.930 . S
H679 C691 0.929 . S
H680 C694 0.930 . S
H681 C696 0.960 . S
H682 C696 0.960 . S
H683 C696 0.960 . S
C684 H676 0.929 . S
C684 C685 1.377 . S
C684 C686 1.384 . S
C685 C684 1.377 . S
C685 C691 1.390 . S
C686 H677 0.930 . S
C686 C684 1.384 . S
C686 C687 1.372 . S
C687 C686 1.372 . S
C687 C688 1.400 . S
C687 C692 1.490 . S
C688 H678 0.930 . S
C688 C687 1.400 . S
C688 C691 1.386 . S
H689 C705 0.930 . S
H690 C706 0.931 . S
C691 H679 0.929 . S
C691 C685 1.390 . S
C691 C688 1.386 . S
C692 C687 1.490 . S
C692 C694 1.395 . S
C692 C695 1.403 . S
H693 C699 0.930 . S
C694 H680 0.930 . S
C694 C692 1.395 . S
C694 C697 1.403 . S
C695 C692 1.403 . S
C695 C696 1.524 . S
C695 C699 1.400 . S
C696 H681 0.960 . S
C696 H682 0.960 . S
C696 H683 0.960 . S
C696 C695 1.524 . S
C697 C694 1.403 . S
C697 C698 1.392 . S
C697 C701 1.495 . S
C698 C697 1.392 . S
C698 C699 1.385 . S
C698 C700 1.478 . S
C699 H693 0.930 . S
C699 C695 1.400 . S
C699 C698 1.385 . S
C700 C698 1.478 . S
C700 C702 1.381 . S
C700 C706 1.383 . S
C701 C697 1.495 . S
C701 H707 0.959 . S
C701 H708 0.961 . S
C701 H709 0.960 . S
C702 C700 1.381 . S
C702 C703 1.394 . S
C702 H710 0.930 . S
C703 C702 1.394 . S
C703 C704 1.383 . S
C703 H711 0.929 . S
C704 C703 1.383 . S
C704 C705 1.377 . S
C705 H689 0.930 . S
C705 C704 1.377 . S
C705 C706 1.379 . S
C706 H690 0.931 . S
C706 C700 1.383 . S
C706 C705 1.379 . S
H707 C701 0.959 . S
H708 C701 0.961 . S
H709 C701 0.960 . S
H710 C702 0.930 . S
H711 C703 0.929 . S
H712 C720 0.929 . S
H713 C722 0.930 . S
H714 C724 0.930 . S
H715 C727 0.929 . S
H716 C730 0.930 . S
H717 C732 0.960 . S
H718 C732 0.960 . S
H719 C732 0.960 . S
C720 H712 0.929 . S
C720 C721 1.377 . S
C720 C722 1.384 . S
C721 C720 1.377 . S
C721 C727 1.390 . S
C722 H713 0.930 . S
C722 C720 1.384 . S
C722 C723 1.372 . S
C723 C722 1.372 . S
C723 C724 1.400 . S
C723 C728 1.490 . S
C724 H714 0.930 . S
C724 C723 1.400 . S
C724 C727 1.386 . S
H725 C741 0.930 . S
H726 C742 0.931 . S
C727 H715 0.929 . S
C727 C721 1.390 . S
C727 C724 1.386 . S
C728 C723 1.490 . S
C728 C730 1.395 . S
C728 C731 1.403 . S
H729 C735 0.930 . S
C730 H716 0.930 . S
C730 C728 1.395 . S
C730 C733 1.403 . S
C731 C728 1.403 . S
C731 C732 1.524 . S
C731 C735 1.400 . S
C732 H717 0.960 . S
C732 H718 0.960 . S
C732 H719 0.960 . S
C732 C731 1.524 . S
C733 C730 1.403 . S
C733 C734 1.392 . S
C733 C737 1.495 . S
C734 C733 1.392 . S
C734 C735 1.385 . S
C734 C736 1.478 . S
C735 H729 0.930 . S
C735 C731 1.400 . S
C735 C734 1.385 . S
C736 C734 1.478 . S
C736 C738 1.381 . S
C736 C742 1.383 . S
C737 C733 1.495 . S
C737 H743 0.959 . S
C737 H744 0.961 . S
C737 H745 0.960 . S
C738 C736 1.381 . S
C738 C739 1.394 . S
C738 H746 0.930 . S
C739 C738 1.394 . S
C739 C740 1.383 . S
C739 H747 0.929 . S
C740 C739 1.383 . S
C740 C741 1.377 . S
C741 H725 0.930 . S
C741 C740 1.377 . S
C741 C742 1.379 . S
C742 H726 0.931 . S
C742 C736 1.383 . S
C742 C741 1.379 . S
H743 C737 0.959 . S
H744 C737 0.961 . S
H745 C737 0.960 . S
H746 C738 0.930 . S
H747 C739 0.929 . S
H748 C756 0.929 . S
H749 C758 0.930 . S
H750 C760 0.930 . S
H751 C763 0.929 . S
H752 C766 0.930 . S
H753 C768 0.960 . S
H754 C768 0.960 . S
H755 C768 0.960 . S
C756 H748 0.929 . S
C756 C757 1.377 . S
C756 C758 1.384 . S
C757 C756 1.377 . S
C757 C763 1.390 . S
C758 H749 0.930 . S
C758 C756 1.384 . S
C758 C759 1.372 . S
C759 C758 1.372 . S
C759 C760 1.400 . S
C759 C764 1.490 . S
C760 H750 0.930 . S
C760 C759 1.400 . S
C760 C763 1.386 . S
H761 C777 0.930 . S
H762 C778 0.931 . S
C763 H751 0.929 . S
C763 C757 1.390 . S
C763 C760 1.386 . S
C764 C759 1.490 . S
C764 C766 1.395 . S
C764 C767 1.403 . S
H765 C771 0.930 . S
C766 H752 0.930 . S
C766 C764 1.395 . S
C766 C769 1.403 . S
C767 C764 1.403 . S
C767 C768 1.524 . S
C767 C771 1.400 . S
C768 H753 0.960 . S
C768 H754 0.960 . S
C768 H755 0.960 . S
C768 C767 1.524 . S
C769 C766 1.403 . S
C769 C770 1.392 . S
C769 C773 1.495 . S
C770 C769 1.392 . S
C770 C771 1.385 . S
C770 C772 1.478 . S
C771 H765 0.930 . S
C771 C767 1.400 . S
C771 C770 1.385 . S
C772 C770 1.478 . S
C772 C774 1.381 . S
C772 C778 1.383 . S
C773 C769 1.495 . S
C773 H779 0.959 . S
C773 H780 0.961 . S
C773 H781 0.960 . S
C774 C772 1.381 . S
C774 C775 1.394 . S
C774 H782 0.930 . S
C775 C774 1.394 . S
C775 C776 1.383 . S
C775 H783 0.929 . S
C776 C775 1.383 . S
C776 C777 1.377 . S
C777 H761 0.930 . S
C777 C776 1.377 . S
C777 C778 1.379 . S
C778 H762 0.931 . S
C778 C772 1.383 . S
C778 C777 1.379 . S
H779 C773 0.959 . S
H780 C773 0.961 . S
H781 C773 0.960 . S
H782 C774 0.930 . S
H783 C775 0.929 . S
H784 C792 0.929 . S
H785 C794 0.930 . S
H786 C796 0.930 . S
H787 C799 0.929 . S
H788 C802 0.930 . S
H789 C804 0.960 . S
H790 C804 0.960 . S
H791 C804 0.960 . S
C792 H784 0.929 . S
C792 C793 1.377 . S
C792 C794 1.384 . S
C793 C792 1.377 . S
C793 C799 1.390 . S
C794 H785 0.930 . S
C794 C792 1.384 . S
C794 C795 1.372 . S
C795 C794 1.372 . S
C795 C796 1.400 . S
C795 C800 1.490 . S
C796 H786 0.930 . S
C796 C795 1.400 . S
C796 C799 1.386 . S
H797 C813 0.930 . S
H798 C814 0.931 . S
C799 H787 0.929 . S
C799 C793 1.390 . S
C799 C796 1.386 . S
C800 C795 1.490 . S
C800 C802 1.395 . S
C800 C803 1.403 . S
H801 C807 0.930 . S
C802 H788 0.930 . S
C802 C800 1.395 . S
C802 C805 1.403 . S
C803 C800 1.403 . S
C803 C804 1.524 . S
C803 C807 1.400 . S
C804 H789 0.960 . S
C804 H790 0.960 . S
C804 H791 0.960 . S
C804 C803 1.524 . S
C805 C802 1.403 . S
C805 C806 1.392 . S
C805 C809 1.495 . S
C806 C805 1.392 . S
C806 C807 1.385 . S
C806 C808 1.478 . S
C807 H801 0.930 . S
C807 C803 1.400 . S
C807 C806 1.385 . S
C808 C806 1.478 . S
C808 C810 1.381 . S
C808 C814 1.383 . S
C809 C805 1.495 . S
C809 H815 0.959 . S
C809 H816 0.961 . S
C809 H817 0.960 . S
C810 C808 1.381 . S
C810 C811 1.394 . S
C810 H818 0.930 . S
C811 C810 1.394 . S
C811 C812 1.383 . S
C811 H819 0.929 . S
C812 C811 1.383 . S
C812 C813 1.377 . S
C813 H797 0.930 . S
C813 C812 1.377 . S
C813 C814 1.379 . S
C814 H798 0.931 . S
C814 C808 1.383 . S
C814 C813 1.379 . S
H815 C809 0.959 . S
H816 C809 0.961 . S
H817 C809 0.960 . S
H818 C810 0.930 . S
H819 C811 0.929 . S
H820 C828 0.929 . S
H821 C830 0.930 . S
H822 C832 0.930 . S
H823 C835 0.929 . S
H824 C838 0.930 . S
H825 C840 0.960 . S
H826 C840 0.960 . S
H827 C840 0.960 . S
C828 H820 0.929 . S
C828 C829 1.377 . S
C828 C830 1.384 . S
C829 C828 1.377 . S
C829 C835 1.390 . S
C830 H821 0.930 . S
C830 C828 1.384 . S
C830 C831 1.372 . S
C831 C830 1.372 . S
C831 C832 1.400 . S
C831 C836 1.490 . S
C832 H822 0.930 . S
C832 C831 1.400 . S
C832 C835 1.386 . S
H833 C849 0.930 . S
H834 C850 0.931 . S
C835 H823 0.929 . S
C835 C829 1.390 . S
C835 C832 1.386 . S
C836 C831 1.490 . S
C836 C838 1.395 . S
C836 C839 1.403 . S
H837 C843 0.930 . S
C838 H824 0.930 . S
C838 C836 1.395 . S
C838 C841 1.403 . S
C839 C836 1.403 . S
C839 C840 1.524 . S
C839 C843 1.400 . S
C840 H825 0.960 . S
C840 H826 0.960 . S
C840 H827 0.960 . S
C840 C839 1.524 . S
C841 C838 1.403 . S
C841 C842 1.392 . S
C841 C845 1.495 . S
C842 C841 1.392 . S
C842 C843 1.385 . S
C842 C844 1.478 . S
C843 H837 0.930 . S
C843 C839 1.400 . S
C843 C842 1.385 . S
C844 C842 1.478 . S
C844 C846 1.381 . S
C844 C850 1.383 . S
C845 C841 1.495 . S
C845 H851 0.959 . S
C845 H852 0.961 . S
C845 H853 0.960 . S
C846 C844 1.381 . S
C846 C847 1.394 . S
C846 H854 0.930 . S
C847 C846 1.394 . S
C847 C848 1.383 . S
C847 H855 0.929 . S
C848 C847 1.383 . S
C848 C849 1.377 . S
C849 H833 0.930 . S
C849 C848 1.377 . S
C849 C850 1.379 . S
C850 H834 0.931 . S
C850 C844 1.383 . S
C850 C849 1.379 . S
H851 C845 0.959 . S
H852 C845 0.961 . S
H853 C845 0.960 . S
H854 C846 0.930 . S
H855 C847 0.929 . S
H856 C864 0.929 . S
H857 C866 0.930 . S
H858 C868 0.930 . S
H859 C871 0.929 . S
H860 C874 0.930 . S
H861 C876 0.960 . S
H862 C876 0.960 . S
H863 C876 0.960 . S
C864 H856 0.929 . S
C864 C865 1.377 . S
C864 C866 1.384 . S
C865 C864 1.377 . S
C865 C871 1.390 . S
C866 H857 0.930 . S
C866 C864 1.384 . S
C866 C867 1.372 . S
C867 C866 1.372 . S
C867 C868 1.400 . S
C867 C872 1.490 . S
C868 H858 0.930 . S
C868 C867 1.400 . S
C868 C871 1.386 . S
H869 C885 0.930 . S
H870 C886 0.931 . S
C871 H859 0.929 . S
C871 C865 1.390 . S
C871 C868 1.386 . S
C872 C867 1.490 . S
C872 C874 1.395 . S
C872 C875 1.403 . S
H873 C879 0.930 . S
C874 H860 0.930 . S
C874 C872 1.395 . S
C874 C877 1.403 . S
C875 C872 1.403 . S
C875 C876 1.524 . S
C875 C879 1.400 . S
C876 H861 0.960 . S
C876 H862 0.960 . S
C876 H863 0.960 . S
C876 C875 1.524 . S
C877 C874 1.403 . S
C877 C878 1.392 . S
C877 C881 1.495 . S
C878 C877 1.392 . S
C878 C879 1.385 . S
C878 C880 1.478 . S
C879 H873 0.930 . S
C879 C875 1.400 . S
C879 C878 1.385 . S
C880 C878 1.478 . S
C880 C882 1.381 . S
C880 C886 1.383 . S
C881 C877 1.495 . S
C881 H887 0.959 . S
C881 H888 0.961 . S
C881 H889 0.960 . S
C882 C880 1.381 . S
C882 C883 1.394 . S
C882 H890 0.930 . S
C883 C882 1.394 . S
C883 C884 1.383 . S
C883 H891 0.929 . S
C884 C883 1.383 . S
C884 C885 1.377 . S
C885 H869 0.930 . S
C885 C884 1.377 . S
C885 C886 1.379 . S
C886 H870 0.931 . S
C886 C880 1.383 . S
C886 C885 1.379 . S
H887 C881 0.959 . S
H888 C881 0.961 . S
H889 C881 0.960 . S
H890 C882 0.930 . S
H891 C883 0.929 . S
H892 C900 0.929 . S
H893 C902 0.930 . S
H894 C904 0.930 . S
H895 C907 0.929 . S
H896 C910 0.930 . S
H897 C912 0.960 . S
H898 C912 0.960 . S
H899 C912 0.960 . S
C900 H892 0.929 . S
C900 C901 1.377 . S
C900 C902 1.384 . S
C901 C900 1.377 . S
C901 C907 1.390 . S
C902 H893 0.930 . S
C902 C900 1.384 . S
C902 C903 1.372 . S
C903 C902 1.372 . S
C903 C904 1.400 . S
C903 C908 1.490 . S
C904 H894 0.930 . S
C904 C903 1.400 . S
C904 C907 1.386 . S
H905 C921 0.930 . S
H906 C922 0.931 . S
C907 H895 0.929 . S
C907 C901 1.390 . S
C907 C904 1.386 . S
C908 C903 1.490 . S
C908 C910 1.395 . S
C908 C911 1.403 . S
H909 C915 0.930 . S
C910 H896 0.930 . S
C910 C908 1.395 . S
C910 C913 1.403 . S
C911 C908 1.403 . S
C911 C912 1.524 . S
C911 C915 1.400 . S
C912 H897 0.960 . S
C912 H898 0.960 . S
C912 H899 0.960 . S
C912 C911 1.524 . S
C913 C910 1.403 . S
C913 C914 1.392 . S
C913 C917 1.495 . S
C914 C913 1.392 . S
C914 C915 1.385 . S
C914 C916 1.478 . S
C915 H909 0.930 . S
C915 C911 1.400 . S
C915 C914 1.385 . S
C916 C914 1.478 . S
C916 C918 1.381 . S
C916 C922 1.383 . S
C917 C913 1.495 . S
C917 H923 0.959 . S
C917 H924 0.961 . S
C917 H925 0.960 . S
C918 C916 1.381 . S
C918 C919 1.394 . S
C918 H926 0.930 . S
C919 C918 1.394 . S
C919 C920 1.383 . S
C919 H927 0.929 . S
C920 C919 1.383 . S
C920 C921 1.377 . S
C921 H905 0.930 . S
C921 C920 1.377 . S
C921 C922 1.379 . S
C922 H906 0.931 . S
C922 C916 1.383 . S
C922 C921 1.379 . S
H923 C917 0.959 . S
H924 C917 0.961 . S
H925 C917 0.960 . S
H926 C918 0.930 . S
H927 C919 0.929 . S
H928 C936 0.929 . S
H929 C938 0.930 . S
H930 C940 0.930 . S
H931 C943 0.929 . S
H932 C946 0.930 . S
H933 C948 0.960 . S
H934 C948 0.960 . S
H935 C948 0.960 . S
C936 H928 0.929 . S
C936 C937 1.377 . S
C936 C938 1.384 . S
C937 C936 1.377 . S
C937 C943 1.390 . S
C938 H929 0.930 . S
C938 C936 1.384 . S
C938 C939 1.372 . S
C939 C938 1.372 . S
C939 C940 1.400 . S
C939 C944 1.490 . S
C940 H930 0.930 . S
C940 C939 1.400 . S
C940 C943 1.386 . S
H941 C957 0.930 . S
H942 C958 0.931 . S
C943 H931 0.929 . S
C943 C937 1.390 . S
C943 C940 1.386 . S
C944 C939 1.490 . S
C944 C946 1.395 . S
C944 C947 1.403 . S
H945 C951 0.930 . S
C946 H932 0.930 . S
C946 C944 1.395 . S
C946 C949 1.403 . S
C947 C944 1.403 . S
C947 C948 1.524 . S
C947 C951 1.400 . S
C948 H933 0.960 . S
C948 H934 0.960 . S
C948 H935 0.960 . S
C948 C947 1.524 . S
C949 C946 1.403 . S
C949 C950 1.392 . S
C949 C953 1.495 . S
C950 C949 1.392 . S
C950 C951 1.385 . S
C950 C952 1.478 . S
C951 H945 0.930 . S
C951 C947 1.400 . S
C951 C950 1.385 . S
C952 C950 1.478 . S
C952 C954 1.381 . S
C952 C958 1.383 . S
C953 C949 1.495 . S
C953 H959 0.959 . S
C953 H960 0.961 . S
C953 H961 0.960 . S
C954 C952 1.381 . S
C954 C955 1.394 . S
C954 H962 0.930 . S
C955 C954 1.394 . S
C955 C956 1.383 . S
C955 H963 0.929 . S
C956 C955 1.383 . S
C956 C957 1.377 . S
C957 H941 0.930 . S
C957 C956 1.377 . S
C957 C958 1.379 . S
C958 H942 0.931 . S
C958 C952 1.383 . S
C958 C957 1.379 . S
H959 C953 0.959 . S
H960 C953 0.961 . S
H961 C953 0.960 . S
H962 C954 0.930 . S
H963 C955 0.929 . S
H964 C972 0.929 . S
H965 C974 0.930 . S
H966 C976 0.930 . S
H967 C979 0.929 . S
H968 C982 0.930 . S
H969 C984 0.960 . S
H970 C984 0.960 . S
H971 C984 0.960 . S
C972 H964 0.929 . S
C972 C973 1.377 . S
C972 C974 1.384 . S
C973 C972 1.377 . S
C973 C979 1.390 . S
C974 H965 0.930 . S
C974 C972 1.384 . S
C974 C975 1.372 . S
C975 C974 1.372 . S
C975 C976 1.400 . S
C975 C980 1.490 . S
C976 H966 0.930 . S
C976 C975 1.400 . S
C976 C979 1.386 . S
H977 C993 0.930 . S
H978 C994 0.931 . S
C979 H967 0.929 . S
C979 C973 1.390 . S
C979 C976 1.386 . S
C980 C975 1.490 . S
C980 C982 1.395 . S
C980 C983 1.403 . S
H981 C987 0.930 . S
C982 H968 0.930 . S
C982 C980 1.395 . S
C982 C985 1.403 . S
C983 C980 1.403 . S
C983 C984 1.524 . S
C983 C987 1.400 . S
C984 H969 0.960 . S
C984 H970 0.960 . S
C984 H971 0.960 . S
C984 C983 1.524 . S
C985 C982 1.403 . S
C985 C986 1.392 . S
C985 C989 1.495 . S
C986 C985 1.392 . S
C986 C987 1.385 . S
C986 C988 1.478 . S
C987 H981 0.930 . S
C987 C983 1.400 . S
C987 C986 1.385 . S
C988 C986 1.478 . S
C988 C990 1.381 . S
C988 C994 1.383 . S
C989 C985 1.495 . S
C989 H995 0.959 . S
C989 H996 0.961 . S
C989 H997 0.960 . S
C990 C988 1.381 . S
C990 C991 1.394 . S
C990 H998 0.930 . S
C991 C990 1.394 . S
C991 C992 1.383 . S
C991 H999 0.929 . S
C992 C991 1.383 . S
C992 C993 1.377 . S
C993 H977 0.930 . S
C993 C992 1.377 . S
C993 C994 1.379 . S
C994 H978 0.931 . S
C994 C988 1.383 . S
C994 C993 1.379 . S
H995 C989 0.959 . S
H996 C989 0.961 . S
H997 C989 0.960 . S
H998 C990 0.930 . S
H999 C991 0.929 . S
H1000 C1008 0.929 . S
H1001 C1010 0.930 . S
H1002 C1012 0.930 . S
H1003 C1015 0.929 . S
H1004 C1018 0.930 . S
H1005 C1020 0.960 . S
H1006 C1020 0.960 . S
H1007 C1020 0.960 . S
C1008 H1000 0.929 . S
C1008 C1009 1.377 . S
C1008 C1010 1.384 . S
C1009 C1008 1.377 . S
C1009 C1015 1.390 . S
C1010 H1001 0.930 . S
C1010 C1008 1.384 . S
C1010 C1011 1.372 . S
C1011 C1010 1.372 . S
C1011 C1012 1.400 . S
C1011 C1016 1.490 . S
C1012 H1002 0.930 . S
C1012 C1011 1.400 . S
C1012 C1015 1.386 . S
H1013 C1029 0.930 . S
H1014 C1030 0.931 . S
C1015 H1003 0.929 . S
C1015 C1009 1.390 . S
C1015 C1012 1.386 . S
C1016 C1011 1.490 . S
C1016 C1018 1.395 . S
C1016 C1019 1.403 . S
H1017 C1023 0.930 . S
C1018 H1004 0.930 . S
C1018 C1016 1.395 . S
C1018 C1021 1.403 . S
C1019 C1016 1.403 . S
C1019 C1020 1.524 . S
C1019 C1023 1.400 . S
C1020 H1005 0.960 . S
C1020 H1006 0.960 . S
C1020 H1007 0.960 . S
C1020 C1019 1.524 . S
C1021 C1018 1.403 . S
C1021 C1022 1.392 . S
C1021 C1025 1.495 . S
C1022 C1021 1.392 . S
C1022 C1023 1.385 . S
C1022 C1024 1.478 . S
C1023 H1017 0.930 . S
C1023 C1019 1.400 . S
C1023 C1022 1.385 . S
C1024 C1022 1.478 . S
C1024 C1026 1.381 . S
C1024 C1030 1.383 . S
C1025 C1021 1.495 . S
C1025 H1031 0.959 . S
C1025 H1032 0.961 . S
C1025 H1033 0.960 . S
C1026 C1024 1.381 . S
C1026 C1027 1.394 . S
C1026 H1034 0.930 . S
C1027 C1026 1.394 . S
C1027 C1028 1.383 . S
C1027 H1035 0.929 . S
C1028 C1027 1.383 . S
C1028 C1029 1.377 . S
C1029 H1013 0.930 . S
C1029 C1028 1.377 . S
C1029 C1030 1.379 . S
C1030 H1014 0.931 . S
C1030 C1024 1.383 . S
C1030 C1029 1.379 . S
H1031 C1025 0.959 . S
H1032 C1025 0.961 . S
H1033 C1025 0.960 . S
H1034 C1026 0.930 . S
H1035 C1027 0.929 . S
H1036 C1044 0.929 . S
H1037 C1046 0.930 . S
H1038 C1048 0.930 . S
H1039 C1051 0.929 . S
H1040 C1054 0.930 . S
H1041 C1056 0.960 . S
H1042 C1056 0.960 . S
H1043 C1056 0.960 . S
C1044 H1036 0.929 . S
C1044 C1045 1.377 . S
C1044 C1046 1.384 . S
C1045 C1044 1.377 . S
C1045 C1051 1.390 . S
C1046 H1037 0.930 . S
C1046 C1044 1.384 . S
C1046 C1047 1.372 . S
C1047 C1046 1.372 . S
C1047 C1048 1.400 . S
C1047 C1052 1.490 . S
C1048 H1038 0.930 . S
C1048 C1047 1.400 . S
C1048 C1051 1.386 . S
H1049 C1065 0.930 . S
H1050 C1066 0.931 . S
C1051 H1039 0.929 . S
C1051 C1045 1.390 . S
C1051 C1048 1.386 . S
C1052 C1047 1.490 . S
C1052 C1054 1.395 . S
C1052 C1055 1.403 . S
H1053 C1059 0.930 . S
C1054 H1040 0.930 . S
C1054 C1052 1.395 . S
C1054 C1057 1.403 . S
C1055 C1052 1.403 . S
C1055 C1056 1.524 . S
C1055 C1059 1.400 . S
C1056 H1041 0.960 . S
C1056 H1042 0.960 . S
C1056 H1043 0.960 . S
C1056 C1055 1.524 . S
C1057 C1054 1.403 . S
C1057 C1058 1.392 . S
C1057 C1061 1.495 . S
C1058 C1057 1.392 . S
C1058 C1059 1.385 . S
C1058 C1060 1.478 . S
C1059 H1053 0.930 . S
C1059 C1055 1.400 . S
C1059 C1058 1.385 . S
C1060 C1058 1.478 . S
C1060 C1062 1.381 . S
C1060 C1066 1.383 . S
C1061 C1057 1.495 . S
C1061 H1067 0.959 . S
C1061 H1068 0.961 . S
C1061 H1069 0.960 . S
C1062 C1060 1.381 . S
C1062 C1063 1.394 . S
C1062 H1070 0.930 . S
C1063 C1062 1.394 . S
C1063 C1064 1.383 . S
C1063 H1071 0.929 . S
C1064 C1063 1.383 . S
C1064 C1065 1.377 . S
C1065 H1049 0.930 . S
C1065 C1064 1.377 . S
C1065 C1066 1.379 . S
C1066 H1050 0.931 . S
C1066 C1060 1.383 . S
C1066 C1065 1.379 . S
H1067 C1061 0.959 . S
H1068 C1061 0.961 . S
H1069 C1061 0.960 . S
H1070 C1062 0.930 . S
H1071 C1063 0.929 . S
H1072 C1080 0.929 . S
H1073 C1082 0.930 . S
H1074 C1084 0.930 . S
H1075 C1087 0.929 . S
H1076 C1090 0.930 . S
H1077 C1092 0.960 1_565 S
H1078 C1092 0.960 . S
H1079 C1092 0.960 . S
C1080 H1072 0.929 . S
C1080 C1081 1.377 . S
C1080 C1082 1.384 . S
C1081 C1080 1.377 . S
C1081 C1087 1.390 . S
C1082 H1073 0.930 . S
C1082 C1080 1.384 . S
C1082 C1083 1.372 . S
C1083 C1082 1.372 . S
C1083 C1084 1.400 . S
C1083 C1088 1.490 . S
C1084 H1074 0.930 . S
C1084 C1083 1.400 . S
C1084 C1087 1.386 . S
H1085 C1101 0.930 . S
H1086 C1102 0.931 . S
C1087 H1075 0.929 . S
C1087 C1081 1.390 . S
C1087 C1084 1.386 . S
C1088 C1083 1.490 . S
C1088 C1090 1.395 . S
C1088 C1091 1.403 . S
H1089 C1095 0.930 . S
C1090 H1076 0.930 . S
C1090 C1088 1.395 . S
C1090 C1093 1.403 1_545 S
C1091 C1088 1.403 . S
C1091 C1092 1.524 . S
C1091 C1095 1.400 1_545 S
C1092 H1077 0.960 1_545 S
C1092 H1078 0.960 . S
C1092 H1079 0.960 . S
C1092 C1091 1.524 . S
C1093 C1090 1.403 1_565 S
C1093 C1094 1.392 . S
C1093 C1097 1.495 . S
C1094 C1093 1.392 . S
C1094 C1095 1.385 . S
C1094 C1096 1.478 . S
C1095 H1089 0.930 . S
C1095 C1091 1.400 1_565 S
C1095 C1094 1.385 . S
C1096 C1094 1.478 . S
C1096 C1098 1.381 . S
C1096 C1102 1.383 . S
C1097 C1093 1.495 . S
C1097 H1103 0.959 1_565 S
C1097 H1104 0.961 . S
C1097 H1105 0.960 . S
C1098 C1096 1.381 . S
C1098 C1099 1.394 . S
C1098 H1106 0.930 . S
C1099 C1098 1.394 . S
C1099 C1100 1.383 . S
C1099 H1107 0.929 . S
C1100 C1099 1.383 . S
C1100 C1101 1.377 . S
C1101 H1085 0.930 . S
C1101 C1100 1.377 . S
C1101 C1102 1.379 . S
C1102 H1086 0.931 . S
C1102 C1096 1.383 . S
C1102 C1101 1.379 . S
H1103 C1097 0.959 1_545 S
H1104 C1097 0.961 . S
H1105 C1097 0.960 . S
H1106 C1098 0.930 . S
H1107 C1099 0.929 . S
H1108 C1116 0.929 . S
H1109 C1118 0.930 . S
H1110 C1120 0.930 . S
H1111 C1123 0.929 . S
H1112 C1126 0.930 . S
H1113 C1128 0.960 . S
H1114 C1128 0.960 . S
H1115 C1128 0.960 . S
C1116 H1108 0.929 . S
C1116 C1117 1.377 . S
C1116 C1118 1.384 . S
C1117 C1116 1.377 . S
C1117 C1123 1.390 . S
C1118 H1109 0.930 . S
C1118 C1116 1.384 . S
C1118 C1119 1.372 . S
C1119 C1118 1.372 . S
C1119 C1120 1.400 . S
C1119 C1124 1.490 . S
C1120 H1110 0.930 . S
C1120 C1119 1.400 . S
C1120 C1123 1.386 . S
H1121 C1137 0.930 . S
H1122 C1138 0.931 . S
C1123 H1111 0.929 . S
C1123 C1117 1.390 . S
C1123 C1120 1.386 . S
C1124 C1119 1.490 . S
C1124 C1126 1.395 . S
C1124 C1127 1.403 . S
H1125 C1131 0.930 . S
C1126 H1112 0.930 . S
C1126 C1124 1.395 . S
C1126 C1129 1.403 1_655 S
C1127 C1124 1.403 . S
C1127 C1128 1.524 . S
C1127 C1131 1.400 1_655 S
C1128 H1113 0.960 . S
C1128 H1114 0.960 . S
C1128 H1115 0.960 . S
C1128 C1127 1.524 . S
C1129 C1126 1.403 1_455 S
C1129 C1130 1.392 . S
C1129 C1133 1.495 . S
C1130 C1129 1.392 . S
C1130 C1131 1.385 . S
C1130 C1132 1.478 . S
C1131 H1125 0.930 . S
C1131 C1127 1.400 1_455 S
C1131 C1130 1.385 . S
C1132 C1130 1.478 . S
C1132 C1134 1.381 . S
C1132 C1138 1.383 . S
C1133 C1129 1.495 . S
C1133 H1139 0.959 . S
C1133 H1140 0.961 . S
C1133 H1141 0.960 . S
C1134 C1132 1.381 . S
C1134 C1135 1.394 . S
C1134 H1142 0.930 . S
C1135 C1134 1.394 . S
C1135 C1136 1.383 . S
C1135 H1143 0.929 . S
C1136 C1135 1.383 . S
C1136 C1137 1.377 . S
C1137 H1121 0.930 . S
C1137 C1136 1.377 . S
C1137 C1138 1.379 . S
C1138 H1122 0.931 . S
C1138 C1132 1.383 . S
C1138 C1137 1.379 . S
H1139 C1133 0.959 . S
H1140 C1133 0.961 . S
H1141 C1133 0.960 . S
H1142 C1134 0.930 . S
H1143 C1135 0.929 . S
H1144 C1152 0.929 . S
H1145 C1154 0.930 . S
H1146 C1156 0.930 . S
H1147 C1159 0.929 . S
H1148 C1162 0.930 . S
H1149 C1164 0.960 . S
H1150 C1164 0.960 . S
H1151 C1164 0.960 . S
C1152 H1144 0.929 . S
C1152 C1153 1.377 . S
C1152 C1154 1.384 . S
C1153 C1152 1.377 . S
C1153 C1159 1.390 . S
C1154 H1145 0.930 . S
C1154 C1152 1.384 . S
C1154 C1155 1.372 . S
C1155 C1154 1.372 . S
C1155 C1156 1.400 . S
C1155 C1160 1.490 . S
C1156 H1146 0.930 . S
C1156 C1155 1.400 . S
C1156 C1159 1.386 . S
H1157 C1173 0.930 . S
H1158 C1174 0.931 . S
C1159 H1147 0.929 . S
C1159 C1153 1.390 . S
C1159 C1156 1.386 . S
C1160 C1155 1.490 . S
C1160 C1162 1.395 . S
C1160 C1163 1.403 . S
H1161 C1167 0.930 . S
C1162 H1148 0.930 . S
C1162 C1160 1.395 . S
C1162 C1165 1.403 1_545 S
C1163 C1160 1.403 . S
C1163 C1164 1.524 . S
C1163 C1167 1.400 1_545 S
C1164 H1149 0.960 . S
C1164 H1150 0.960 . S
C1164 H1151 0.960 . S
C1164 C1163 1.524 . S
C1165 C1162 1.403 1_565 S
C1165 C1166 1.392 . S
C1165 C1169 1.495 . S
C1166 C1165 1.392 . S
C1166 C1167 1.385 . S
C1166 C1168 1.478 . S
C1167 H1161 0.930 . S
C1167 C1163 1.400 1_565 S
C1167 C1166 1.385 . S
C1168 C1166 1.478 . S
C1168 C1170 1.381 . S
C1168 C1174 1.383 . S
C1169 C1165 1.495 . S
C1169 H1175 0.959 . S
C1169 H1176 0.961 . S
C1169 H1177 0.960 . S
C1170 C1168 1.381 . S
C1170 C1171 1.394 . S
C1170 H1178 0.930 . S
C1171 C1170 1.394 . S
C1171 C1172 1.383 . S
C1171 H1179 0.929 . S
C1172 C1171 1.383 . S
C1172 C1173 1.377 . S
C1173 H1157 0.930 . S
C1173 C1172 1.377 . S
C1173 C1174 1.379 . S
C1174 H1158 0.931 . S
C1174 C1168 1.383 . S
C1174 C1173 1.379 . S
H1175 C1169 0.959 . S
H1176 C1169 0.961 . S
H1177 C1169 0.960 . S
H1178 C1170 0.930 . S
H1179 C1171 0.929 . S
H1180 C1188 0.929 . S
H1181 C1190 0.930 . S
H1182 C1192 0.930 . S
H1183 C1195 0.929 . S
H1184 C1198 0.930 . S
H1185 C1200 0.960 . S
H1186 C1200 0.960 . S
H1187 C1200 0.960 . S
C1188 H1180 0.929 . S
C1188 C1189 1.377 . S
C1188 C1190 1.384 . S
C1189 C1188 1.377 . S
C1189 C1195 1.390 . S
C1190 H1181 0.930 . S
C1190 C1188 1.384 . S
C1190 C1191 1.372 . S
C1191 C1190 1.372 . S
C1191 C1192 1.400 . S
C1191 C1196 1.490 . S
C1192 H1182 0.930 . S
C1192 C1191 1.400 . S
C1192 C1195 1.386 . S
H1193 C1209 0.930 . S
H1194 C1210 0.931 . S
C1195 H1183 0.929 . S
C1195 C1189 1.390 . S
C1195 C1192 1.386 . S
C1196 C1191 1.490 . S
C1196 C1198 1.395 . S
C1196 C1199 1.403 . S
H1197 C1203 0.930 . S
C1198 H1184 0.930 . S
C1198 C1196 1.395 . S
C1198 C1201 1.403 1_455 S
C1199 C1196 1.403 . S
C1199 C1200 1.524 . S
C1199 C1203 1.400 1_455 S
C1200 H1185 0.960 . S
C1200 H1186 0.960 . S
C1200 H1187 0.960 . S
C1200 C1199 1.524 . S
C1201 C1198 1.403 1_655 S
C1201 C1202 1.392 . S
C1201 C1205 1.495 . S
C1202 C1201 1.392 . S
C1202 C1203 1.385 . S
C1202 C1204 1.478 . S
C1203 H1197 0.930 . S
C1203 C1199 1.400 1_655 S
C1203 C1202 1.385 . S
C1204 C1202 1.478 . S
C1204 C1206 1.381 . S
C1204 C1210 1.383 . S
C1205 C1201 1.495 . S
C1205 H1211 0.959 . S
C1205 H1212 0.961 . S
C1205 H1213 0.960 . S
C1206 C1204 1.381 . S
C1206 C1207 1.394 . S
C1206 H1214 0.930 . S
C1207 C1206 1.394 . S
C1207 C1208 1.383 . S
C1207 H1215 0.929 . S
C1208 C1207 1.383 . S
C1208 C1209 1.377 . S
C1209 H1193 0.930 . S
C1209 C1208 1.377 . S
C1209 C1210 1.379 . S
C1210 H1194 0.931 . S
C1210 C1204 1.383 . S
C1210 C1209 1.379 . S
H1211 C1205 0.959 . S
H1212 C1205 0.961 . S
H1213 C1205 0.960 . S
H1214 C1206 0.930 . S
H1215 C1207 0.929 . S
H1216 C1224 0.929 . S
H1217 C1226 0.930 . S
H1218 C1228 0.930 . S
H1219 C1231 0.929 . S
H1220 C1234 0.930 . S
H1221 C1236 0.960 1_565 S
H1222 C1236 0.960 . S
H1223 C1236 0.960 . S
C1224 H1216 0.929 . S
C1224 C1225 1.377 . S
C1224 C1226 1.384 . S
C1225 C1224 1.377 . S
C1225 C1231 1.390 . S
C1226 H1217 0.930 . S
C1226 C1224 1.384 . S
C1226 C1227 1.372 . S
C1227 C1226 1.372 . S
C1227 C1228 1.400 . S
C1227 C1232 1.490 . S
C1228 H1218 0.930 . S
C1228 C1227 1.400 . S
C1228 C1231 1.386 . S
H1229 C1245 0.930 . S
H1230 C1246 0.931 . S
C1231 H1219 0.929 . S
C1231 C1225 1.390 . S
C1231 C1228 1.386 . S
C1232 C1227 1.490 . S
C1232 C1234 1.395 . S
C1232 C1235 1.403 . S
H1233 C1239 0.930 . S
C1234 H1220 0.930 . S
C1234 C1232 1.395 . S
C1234 C1237 1.403 1_545 S
C1235 C1232 1.403 . S
C1235 C1236 1.524 . S
C1235 C1239 1.400 1_545 S
C1236 H1221 0.960 1_545 S
C1236 H1222 0.960 . S
C1236 H1223 0.960 . S
C1236 C1235 1.524 . S
C1237 C1234 1.403 1_565 S
C1237 C1238 1.392 . S
C1237 C1241 1.495 . S
C1238 C1237 1.392 . S
C1238 C1239 1.385 . S
C1238 C1240 1.478 . S
C1239 H1233 0.930 . S
C1239 C1235 1.400 1_565 S
C1239 C1238 1.385 . S
C1240 C1238 1.478 . S
C1240 C1242 1.381 . S
C1240 C1246 1.383 . S
C1241 C1237 1.495 . S
C1241 H1247 0.959 1_565 S
C1241 H1248 0.961 . S
C1241 H1249 0.960 . S
C1242 C1240 1.381 . S
C1242 C1243 1.394 . S
C1242 H1250 0.930 . S
C1243 C1242 1.394 . S
C1243 C1244 1.383 . S
C1243 H1251 0.929 . S
C1244 C1243 1.383 . S
C1244 C1245 1.377 . S
C1245 H1229 0.930 . S
C1245 C1244 1.377 . S
C1245 C1246 1.379 . S
C1246 H1230 0.931 . S
C1246 C1240 1.383 . S
C1246 C1245 1.379 . S
H1247 C1241 0.959 1_545 S
H1248 C1241 0.961 . S
H1249 C1241 0.960 . S
H1250 C1242 0.930 . S
H1251 C1243 0.929 . S
H1252 C1260 0.929 . S
H1253 C1262 0.930 . S
H1254 C1264 0.930 . S
H1255 C1267 0.929 . S
H1256 C1270 0.930 . S
H1257 C1272 0.960 1_455 S
H1258 C1272 0.960 . S
H1259 C1272 0.960 . S
C1260 H1252 0.929 . S
C1260 C1261 1.377 . S
C1260 C1262 1.384 . S
C1261 C1260 1.377 . S
C1261 C1267 1.390 . S
C1262 H1253 0.930 . S
C1262 C1260 1.384 . S
C1262 C1263 1.372 . S
C1263 C1262 1.372 . S
C1263 C1264 1.400 . S
C1263 C1268 1.490 . S
C1264 H1254 0.930 . S
C1264 C1263 1.400 . S
C1264 C1267 1.386 . S
H1265 C1281 0.930 . S
H1266 C1282 0.931 . S
C1267 H1255 0.929 . S
C1267 C1261 1.390 . S
C1267 C1264 1.386 . S
C1268 C1263 1.490 . S
C1268 C1270 1.395 . S
C1268 C1271 1.403 . S
H1269 C1275 0.930 . S
C1270 H1256 0.930 . S
C1270 C1268 1.395 . S
C1270 C1273 1.403 1_655 S
C1271 C1268 1.403 . S
C1271 C1272 1.524 . S
C1271 C1275 1.400 1_655 S
C1272 H1257 0.960 1_655 S
C1272 H1258 0.960 . S
C1272 H1259 0.960 . S
C1272 C1271 1.524 . S
C1273 C1270 1.403 1_455 S
C1273 C1274 1.392 . S
C1273 C1277 1.495 . S
C1274 C1273 1.392 . S
C1274 C1275 1.385 . S
C1274 C1276 1.478 . S
C1275 H1269 0.930 . S
C1275 C1271 1.400 1_455 S
C1275 C1274 1.385 . S
C1276 C1274 1.478 . S
C1276 C1278 1.381 . S
C1276 C1282 1.383 . S
C1277 C1273 1.495 . S
C1277 H1283 0.959 1_455 S
C1277 H1284 0.961 . S
C1277 H1285 0.960 . S
C1278 C1276 1.381 . S
C1278 C1279 1.394 . S
C1278 H1286 0.930 . S
C1279 C1278 1.394 . S
C1279 C1280 1.383 . S
C1279 H1287 0.929 . S
C1280 C1279 1.383 . S
C1280 C1281 1.377 . S
C1281 H1265 0.930 . S
C1281 C1280 1.377 . S
C1281 C1282 1.379 . S
C1282 H1266 0.931 . S
C1282 C1276 1.383 . S
C1282 C1281 1.379 . S
H1283 C1277 0.959 1_655 S
H1284 C1277 0.961 . S
H1285 C1277 0.960 . S
H1286 C1278 0.930 . S
H1287 C1279 0.929 . S
H1288 C1296 0.929 . S
H1289 C1298 0.930 . S
H1290 C1300 0.930 . S
H1291 C1303 0.929 . S
H1292 C1306 0.930 . S
H1293 C1308 0.960 1_545 S
H1294 C1308 0.960 . S
H1295 C1308 0.960 . S
C1296 H1288 0.929 . S
C1296 C1297 1.377 . S
C1296 C1298 1.384 . S
C1297 C1296 1.377 . S
C1297 C1303 1.390 . S
C1298 H1289 0.930 . S
C1298 C1296 1.384 . S
C1298 C1299 1.372 . S
C1299 C1298 1.372 . S
C1299 C1300 1.400 . S
C1299 C1304 1.490 . S
C1300 H1290 0.930 . S
C1300 C1299 1.400 . S
C1300 C1303 1.386 . S
H1301 C1317 0.930 . S
H1302 C1318 0.931 . S
C1303 H1291 0.929 . S
C1303 C1297 1.390 . S
C1303 C1300 1.386 . S
C1304 C1299 1.490 . S
C1304 C1306 1.395 . S
C1304 C1307 1.403 . S
H1305 C1311 0.930 . S
C1306 H1292 0.930 . S
C1306 C1304 1.395 . S
C1306 C1309 1.403 1_565 S
C1307 C1304 1.403 . S
C1307 C1308 1.524 . S
C1307 C1311 1.400 1_565 S
C1308 H1293 0.960 1_565 S
C1308 H1294 0.960 . S
C1308 H1295 0.960 . S
C1308 C1307 1.524 . S
C1309 C1306 1.403 1_545 S
C1309 C1310 1.392 . S
C1309 C1313 1.495 . S
C1310 C1309 1.392 . S
C1310 C1311 1.385 . S
C1310 C1312 1.478 . S
C1311 H1305 0.930 . S
C1311 C1307 1.400 1_545 S
C1311 C1310 1.385 . S
C1312 C1310 1.478 . S
C1312 C1314 1.381 . S
C1312 C1318 1.383 . S
C1313 C1309 1.495 . S
C1313 H1319 0.959 1_545 S
C1313 H1320 0.961 . S
C1313 H1321 0.960 . S
C1314 C1312 1.381 . S
C1314 C1315 1.394 . S
C1314 H1322 0.930 . S
C1315 C1314 1.394 . S
C1315 C1316 1.383 . S
C1315 H1323 0.929 . S
C1316 C1315 1.383 . S
C1316 C1317 1.377 . S
C1317 H1301 0.930 . S
C1317 C1316 1.377 . S
C1317 C1318 1.379 . S
C1318 H1302 0.931 . S
C1318 C1312 1.383 . S
C1318 C1317 1.379 . S
H1319 C1313 0.959 1_565 S
H1320 C1313 0.961 . S
H1321 C1313 0.960 . S
H1322 C1314 0.930 . S
H1323 C1315 0.929 . S
H1324 C1332 0.929 . S
H1325 C1334 0.930 . S
H1326 C1336 0.930 . S
H1327 C1339 0.929 . S
H1328 C1342 0.930 . S
H1329 C1344 0.960 1_655 S
H1330 C1344 0.960 . S
H1331 C1344 0.960 . S
C1332 H1324 0.929 . S
C1332 C1333 1.377 . S
C1332 C1334 1.384 . S
C1333 C1332 1.377 . S
C1333 C1339 1.390 . S
C1334 H1325 0.930 . S
C1334 C1332 1.384 . S
C1334 C1335 1.372 . S
C1335 C1334 1.372 . S
C1335 C1336 1.400 . S
C1335 C1340 1.490 . S
C1336 H1326 0.930 . S
C1336 C1335 1.400 . S
C1336 C1339 1.386 . S
H1337 C1353 0.930 . S
H1338 C1354 0.931 . S
C1339 H1327 0.929 . S
C1339 C1333 1.390 . S
C1339 C1336 1.386 . S
C1340 C1335 1.490 . S
C1340 C1342 1.395 . S
C1340 C1343 1.403 . S
H1341 C1347 0.930 . S
C1342 H1328 0.930 . S
C1342 C1340 1.395 . S
C1342 C1345 1.403 1_455 S
C1343 C1340 1.403 . S
C1343 C1344 1.524 . S
C1343 C1347 1.400 1_455 S
C1344 H1329 0.960 1_455 S
C1344 H1330 0.960 . S
C1344 H1331 0.960 . S
C1344 C1343 1.524 . S
C1345 C1342 1.403 1_655 S
C1345 C1346 1.392 . S
C1345 C1349 1.495 . S
C1346 C1345 1.392 . S
C1346 C1347 1.385 . S
C1346 C1348 1.478 . S
C1347 H1341 0.930 . S
C1347 C1343 1.400 1_655 S
C1347 C1346 1.385 . S
C1348 C1346 1.478 . S
C1348 C1350 1.381 . S
C1348 C1354 1.383 . S
C1349 C1345 1.495 . S
C1349 H1355 0.959 1_655 S
C1349 H1356 0.961 . S
C1349 H1357 0.960 . S
C1350 C1348 1.381 . S
C1350 C1351 1.394 . S
C1350 H1358 0.930 . S
C1351 C1350 1.394 . S
C1351 C1352 1.383 . S
C1351 H1359 0.929 . S
C1352 C1351 1.383 . S
C1352 C1353 1.377 . S
C1353 H1337 0.930 . S
C1353 C1352 1.377 . S
C1353 C1354 1.379 . S
C1354 H1338 0.931 . S
C1354 C1348 1.383 . S
C1354 C1353 1.379 . S
H1355 C1349 0.959 1_455 S
H1356 C1349 0.961 . S
H1357 C1349 0.960 . S
H1358 C1350 0.930 . S
H1359 C1351 0.929 . S
C217 C65 1.171 . S
C236 C0 1.191 . S
C253 C78 1.179 . S
C272 C13 1.151 . S
C289 C26 1.173 . S
C308 C91 1.182 . S
C325 C39 1.179 . S
C344 C52 1.151 . S
C361 C169 1.177 . S
C380 C104 1.158 . S
C397 C182 1.171 . S
C416 C117 1.192 . S
C433 C130 1.171 . S
C452 C195 1.192 . S
C469 C143 1.172 . S
C488 C156 1.187 . S
C505 C138 1.466 . S
C524 C8 1.445 . S
C541 C151 1.470 . S
C560 C21 1.456 . S
C577 C112 1.471 . S
C596 C34 1.460 . S
C613 C47 1.473 . S
C632 C125 1.470 . S
C649 C190 1.465 . S
C668 C60 1.445 . S
C685 C203 1.472 . S
C704 C73 1.467 . S
C721 C86 1.474 . S
C740 C164 1.488 . S
C757 C177 1.474 . S
C776 C99 1.486 . S
C793 C62 1.271 . S
C812 C10 1.256 . S
C829 C23 1.272 . S
C848 C75 1.260 . S
C865 C36 1.271 . S
C884 C88 1.258 . S
C901 C101 1.278 . S
C920 C49 1.287 . S
C937 C109 1.418 . S
C956 C161 1.429 . S
C973 C174 1.411 . S
C992 C122 1.416 . S
C1009 C135 1.421 . S
C1028 C187 1.388 . S
C1045 C200 1.411 . S
C1064 C148 1.427 . S
C1081 C153 1.271 . S
C1100 C179 1.255 . S
C1117 C114 1.277 . S
C1136 C192 1.279 . S
C1153 C205 1.273 . S
C1172 C127 1.261 . S
C1189 C140 1.277 . S
C1208 C166 1.280 . S
C1225 C70 1.420 . S
C1244 C44 1.417 . S
C1261 C83 1.421 . S
C1280 C5 1.407 . S
C1297 C96 1.422 . S
C1316 C18 1.399 . S
C1333 C57 1.420 . S
C1352 C31 1.420 . S
