# Generated by pormake.
# Topology unx, (4)-cn, num edge types: 1
# Building blocks:
#     Node 0, Type 0, BuildingBlock: CEKHIL_clean_sbu_0, # of connection points: 4
#     Node 1, Type 0, BuildingBlock: CEKHIL_clean_sbu_0, # of connection points: 4
#     Node 2, Type 0, BuildingBlock: CEKHIL_clean_sbu_0, # of connection points: 4
#     Node 3, Type 0, BuildingBlock: CEKHIL_clean_sbu_0, # of connection points: 4
#     Node 4, Type 0, BuildingBlock: CEKHIL_clean_sbu_0, # of connection points: 4
#     Node 5, Type 0, BuildingBlock: CEKHIL_clean_sbu_0, # of connection points: 4
#     Node 6, Type 0, BuildingBlock: CEKHIL_clean_sbu_0, # of connection points: 4
#     Node 7, Type 0, BuildingBlock: CEKHIL_clean_sbu_0, # of connection points: 4
#     Node 8, Type 0, BuildingBlock: CEKHIL_clean_sbu_0, # of connection points: 4
#     Node 9, Type 0, BuildingBlock: CEKHIL_clean_sbu_0, # of connection points: 4
#     Node 10, Type 0, BuildingBlock: CEKHIL_clean_sbu_0, # of connection points: 4
#     Node 11, Type 0, BuildingBlock: CEKHIL_clean_sbu_0, # of connection points: 4
#     Node 12, Type 0, BuildingBlock: CEKHIL_clean_sbu_0, # of connection points: 4
#     Node 13, Type 0, BuildingBlock: CEKHIL_clean_sbu_0, # of connection points: 4
#     Node 14, Type 0, BuildingBlock: CEKHIL_clean_sbu_0, # of connection points: 4
#     Node 15, Type 0, BuildingBlock: CEKHIL_clean_sbu_0, # of connection points: 4
#     Node 16, Type 0, BuildingBlock: CEKHIL_clean_sbu_0, # of connection points: 4
#     Node 17, Type 0, BuildingBlock: CEKHIL_clean_sbu_0, # of connection points: 4
#     Node 18, Type 0, BuildingBlock: CEKHIL_clean_sbu_0, # of connection points: 4
#     Node 19, Type 0, BuildingBlock: CEKHIL_clean_sbu_0, # of connection points: 4
#     Node 20, Type 0, BuildingBlock: CEKHIL_clean_sbu_0, # of connection points: 4
#     Node 21, Type 0, BuildingBlock: CEKHIL_clean_sbu_0, # of connection points: 4
#     Node 22, Type 0, BuildingBlock: CEKHIL_clean_sbu_0, # of connection points: 4
#     Node 23, Type 0, BuildingBlock: CEKHIL_clean_sbu_0, # of connection points: 4
#     Node 24, Type 0, BuildingBlock: CEKHIL_clean_sbu_0, # of connection points: 4
#     Node 25, Type 0, BuildingBlock: CEKHIL_clean_sbu_0, # of connection points: 4
#     Node 26, Type 0, BuildingBlock: CEKHIL_clean_sbu_0, # of connection points: 4
#     Node 27, Type 0, BuildingBlock: CEKHIL_clean_sbu_0, # of connection points: 4
#     Node 28, Type 0, BuildingBlock: CEKHIL_clean_sbu_0, # of connection points: 4
#     Node 29, Type 0, BuildingBlock: CEKHIL_clean_sbu_0, # of connection points: 4
#     Node 30, Type 0, BuildingBlock: CEKHIL_clean_sbu_0, # of connection points: 4
#     Node 31, Type 0, BuildingBlock: CEKHIL_clean_sbu_0, # of connection points: 4
#     Node 32, Type 0, BuildingBlock: CEKHIL_clean_sbu_0, # of connection points: 4
#     Node 33, Type 0, BuildingBlock: CEKHIL_clean_sbu_0, # of connection points: 4
#     Node 34, Type 0, BuildingBlock: CEKHIL_clean_sbu_0, # of connection points: 4
#     Node 35, Type 0, BuildingBlock: CEKHIL_clean_sbu_0, # of connection points: 4
#     Node 36, Type 0, BuildingBlock: CEKHIL_clean_sbu_0, # of connection points: 4
#     Node 37, Type 0, BuildingBlock: CEKHIL_clean_sbu_0, # of connection points: 4
#     Node 38, Type 0, BuildingBlock: CEKHIL_clean_sbu_0, # of connection points: 4
#     Node 39, Type 0, BuildingBlock: CEKHIL_clean_sbu_0, # of connection points: 4
#     Node 40, Type 0, BuildingBlock: CEKHIL_clean_sbu_0, # of connection points: 4
#     Node 41, Type 0, BuildingBlock: CEKHIL_clean_sbu_0, # of connection points: 4
#     Node 42, Type 0, BuildingBlock: CEKHIL_clean_sbu_0, # of connection points: 4
#     Node 43, Type 0, BuildingBlock: CEKHIL_clean_sbu_0, # of connection points: 4
#     Node 44, Type 0, BuildingBlock: CEKHIL_clean_sbu_0, # of connection points: 4
#     Node 45, Type 0, BuildingBlock: CEKHIL_clean_sbu_0, # of connection points: 4
#     Node 46, Type 0, BuildingBlock: CEKHIL_clean_sbu_0, # of connection points: 4
#     Node 47, Type 0, BuildingBlock: CEKHIL_clean_sbu_0, # of connection points: 4
#     Edge 48, Type (0, 0), BuildingBlock: KIFKEQ_clean_linker_1, # of connection points: 2
#     Edge 49, Type (0, 0), BuildingBlock: KIFKEQ_clean_linker_1, # of connection points: 2
#     Edge 50, Type (0, 0), BuildingBlock: KIFKEQ_clean_linker_1, # of connection points: 2
#     Edge 51, Type (0, 0), BuildingBlock: KIFKEQ_clean_linker_1, # of connection points: 2
#     Edge 52, Type (0, 0), BuildingBlock: KIFKEQ_clean_linker_1, # of connection points: 2
#     Edge 53, Type (0, 0), BuildingBlock: KIFKEQ_clean_linker_1, # of connection points: 2
#     Edge 54, Type (0, 0), BuildingBlock: KIFKEQ_clean_linker_1, # of connection points: 2
#     Edge 55, Type (0, 0), BuildingBlock: KIFKEQ_clean_linker_1, # of connection points: 2
#     Edge 56, Type (0, 0), BuildingBlock: KIFKEQ_clean_linker_1, # of connection points: 2
#     Edge 57, Type (0, 0), BuildingBlock: KIFKEQ_clean_linker_1, # of connection points: 2
#     Edge 58, Type (0, 0), BuildingBlock: KIFKEQ_clean_linker_1, # of connection points: 2
#     Edge 59, Type (0, 0), BuildingBlock: KIFKEQ_clean_linker_1, # of connection points: 2
#     Edge 60, Type (0, 0), BuildingBlock: KIFKEQ_clean_linker_1, # of connection points: 2
#     Edge 61, Type (0, 0), BuildingBlock: KIFKEQ_clean_linker_1, # of connection points: 2
#     Edge 62, Type (0, 0), BuildingBlock: KIFKEQ_clean_linker_1, # of connection points: 2
#     Edge 63, Type (0, 0), BuildingBlock: KIFKEQ_clean_linker_1, # of connection points: 2
#     Edge 64, Type (0, 0), BuildingBlock: KIFKEQ_clean_linker_1, # of connection points: 2
#     Edge 65, Type (0, 0), BuildingBlock: KIFKEQ_clean_linker_1, # of connection points: 2
#     Edge 66, Type (0, 0), BuildingBlock: KIFKEQ_clean_linker_1, # of connection points: 2
#     Edge 67, Type (0, 0), BuildingBlock: KIFKEQ_clean_linker_1, # of connection points: 2
#     Edge 68, Type (0, 0), BuildingBlock: KIFKEQ_clean_linker_1, # of connection points: 2
#     Edge 69, Type (0, 0), BuildingBlock: KIFKEQ_clean_linker_1, # of connection points: 2
#     Edge 70, Type (0, 0), BuildingBlock: KIFKEQ_clean_linker_1, # of connection points: 2
#     Edge 71, Type (0, 0), BuildingBlock: KIFKEQ_clean_linker_1, # of connection points: 2
#     Edge 72, Type (0, 0), BuildingBlock: KIFKEQ_clean_linker_1, # of connection points: 2
#     Edge 73, Type (0, 0), BuildingBlock: KIFKEQ_clean_linker_1, # of connection points: 2
#     Edge 74, Type (0, 0), BuildingBlock: KIFKEQ_clean_linker_1, # of connection points: 2
#     Edge 75, Type (0, 0), BuildingBlock: KIFKEQ_clean_linker_1, # of connection points: 2
#     Edge 76, Type (0, 0), BuildingBlock: KIFKEQ_clean_linker_1, # of connection points: 2
#     Edge 77, Type (0, 0), BuildingBlock: KIFKEQ_clean_linker_1, # of connection points: 2
#     Edge 78, Type (0, 0), BuildingBlock: KIFKEQ_clean_linker_1, # of connection points: 2
#     Edge 79, Type (0, 0), BuildingBlock: KIFKEQ_clean_linker_1, # of connection points: 2
#     Edge 80, Type (0, 0), BuildingBlock: KIFKEQ_clean_linker_1, # of connection points: 2
#     Edge 81, Type (0, 0), BuildingBlock: KIFKEQ_clean_linker_1, # of connection points: 2
#     Edge 82, Type (0, 0), BuildingBlock: KIFKEQ_clean_linker_1, # of connection points: 2
#     Edge 83, Type (0, 0), BuildingBlock: KIFKEQ_clean_linker_1, # of connection points: 2
#     Edge 84, Type (0, 0), BuildingBlock: KIFKEQ_clean_linker_1, # of connection points: 2
#     Edge 85, Type (0, 0), BuildingBlock: KIFKEQ_clean_linker_1, # of connection points: 2
#     Edge 86, Type (0, 0), BuildingBlock: KIFKEQ_clean_linker_1, # of connection points: 2
#     Edge 87, Type (0, 0), BuildingBlock: KIFKEQ_clean_linker_1, # of connection points: 2
#     Edge 88, Type (0, 0), BuildingBlock: KIFKEQ_clean_linker_1, # of connection points: 2
#     Edge 89, Type (0, 0), BuildingBlock: KIFKEQ_clean_linker_1, # of connection points: 2
#     Edge 90, Type (0, 0), BuildingBlock: KIFKEQ_clean_linker_1, # of connection points: 2
#     Edge 91, Type (0, 0), BuildingBlock: KIFKEQ_clean_linker_1, # of connection points: 2
#     Edge 92, Type (0, 0), BuildingBlock: KIFKEQ_clean_linker_1, # of connection points: 2
#     Edge 93, Type (0, 0), BuildingBlock: KIFKEQ_clean_linker_1, # of connection points: 2
#     Edge 94, Type (0, 0), BuildingBlock: KIFKEQ_clean_linker_1, # of connection points: 2
#     Edge 95, Type (0, 0), BuildingBlock: KIFKEQ_clean_linker_1, # of connection points: 2
#     Edge 96, Type (0, 0), BuildingBlock: KIFKEQ_clean_linker_1, # of connection points: 2
#     Edge 97, Type (0, 0), BuildingBlock: KIFKEQ_clean_linker_1, # of connection points: 2
#     Edge 98, Type (0, 0), BuildingBlock: KIFKEQ_clean_linker_1, # of connection points: 2
#     Edge 99, Type (0, 0), BuildingBlock: KIFKEQ_clean_linker_1, # of connection points: 2
#     Edge 100, Type (0, 0), BuildingBlock: KIFKEQ_clean_linker_1, # of connection points: 2
#     Edge 101, Type (0, 0), BuildingBlock: KIFKEQ_clean_linker_1, # of connection points: 2
#     Edge 102, Type (0, 0), BuildingBlock: KIFKEQ_clean_linker_1, # of connection points: 2
#     Edge 103, Type (0, 0), BuildingBlock: KIFKEQ_clean_linker_1, # of connection points: 2
#     Edge 104, Type (0, 0), BuildingBlock: KIFKEQ_clean_linker_1, # of connection points: 2
#     Edge 105, Type (0, 0), BuildingBlock: KIFKEQ_clean_linker_1, # of connection points: 2
#     Edge 106, Type (0, 0), BuildingBlock: KIFKEQ_clean_linker_1, # of connection points: 2
#     Edge 107, Type (0, 0), BuildingBlock: KIFKEQ_clean_linker_1, # of connection points: 2
#     Edge 108, Type (0, 0), BuildingBlock: KIFKEQ_clean_linker_1, # of connection points: 2
#     Edge 109, Type (0, 0), BuildingBlock: KIFKEQ_clean_linker_1, # of connection points: 2
#     Edge 110, Type (0, 0), BuildingBlock: KIFKEQ_clean_linker_1, # of connection points: 2
#     Edge 111, Type (0, 0), BuildingBlock: KIFKEQ_clean_linker_1, # of connection points: 2
#     Edge 112, Type (0, 0), BuildingBlock: KIFKEQ_clean_linker_1, # of connection points: 2
#     Edge 113, Type (0, 0), BuildingBlock: KIFKEQ_clean_linker_1, # of connection points: 2
#     Edge 114, Type (0, 0), BuildingBlock: KIFKEQ_clean_linker_1, # of connection points: 2
#     Edge 115, Type (0, 0), BuildingBlock: KIFKEQ_clean_linker_1, # of connection points: 2
#     Edge 116, Type (0, 0), BuildingBlock: KIFKEQ_clean_linker_1, # of connection points: 2
#     Edge 117, Type (0, 0), BuildingBlock: KIFKEQ_clean_linker_1, # of connection points: 2
#     Edge 118, Type (0, 0), BuildingBlock: KIFKEQ_clean_linker_1, # of connection points: 2
#     Edge 119, Type (0, 0), BuildingBlock: KIFKEQ_clean_linker_1, # of connection points: 2
#     Edge 120, Type (0, 0), BuildingBlock: KIFKEQ_clean_linker_1, # of connection points: 2
#     Edge 121, Type (0, 0), BuildingBlock: KIFKEQ_clean_linker_1, # of connection points: 2
#     Edge 122, Type (0, 0), BuildingBlock: KIFKEQ_clean_linker_1, # of connection points: 2
#     Edge 123, Type (0, 0), BuildingBlock: KIFKEQ_clean_linker_1, # of connection points: 2
#     Edge 124, Type (0, 0), BuildingBlock: KIFKEQ_clean_linker_1, # of connection points: 2
#     Edge 125, Type (0, 0), BuildingBlock: KIFKEQ_clean_linker_1, # of connection points: 2
#     Edge 126, Type (0, 0), BuildingBlock: KIFKEQ_clean_linker_1, # of connection points: 2
#     Edge 127, Type (0, 0), BuildingBlock: KIFKEQ_clean_linker_1, # of connection points: 2
#     Edge 128, Type (0, 0), BuildingBlock: KIFKEQ_clean_linker_1, # of connection points: 2
#     Edge 129, Type (0, 0), BuildingBlock: KIFKEQ_clean_linker_1, # of connection points: 2
#     Edge 130, Type (0, 0), BuildingBlock: KIFKEQ_clean_linker_1, # of connection points: 2
#     Edge 131, Type (0, 0), BuildingBlock: KIFKEQ_clean_linker_1, # of connection points: 2
#     Edge 132, Type (0, 0), BuildingBlock: KIFKEQ_clean_linker_1, # of connection points: 2
#     Edge 133, Type (0, 0), BuildingBlock: KIFKEQ_clean_linker_1, # of connection points: 2
#     Edge 134, Type (0, 0), BuildingBlock: KIFKEQ_clean_linker_1, # of connection points: 2
#     Edge 135, Type (0, 0), BuildingBlock: KIFKEQ_clean_linker_1, # of connection points: 2
#     Edge 136, Type (0, 0), BuildingBlock: KIFKEQ_clean_linker_1, # of connection points: 2
#     Edge 137, Type (0, 0), BuildingBlock: KIFKEQ_clean_linker_1, # of connection points: 2
#     Edge 138, Type (0, 0), BuildingBlock: KIFKEQ_clean_linker_1, # of connection points: 2
#     Edge 139, Type (0, 0), BuildingBlock: KIFKEQ_clean_linker_1, # of connection points: 2
#     Edge 140, Type (0, 0), BuildingBlock: KIFKEQ_clean_linker_1, # of connection points: 2
#     Edge 141, Type (0, 0), BuildingBlock: KIFKEQ_clean_linker_1, # of connection points: 2
#     Edge 142, Type (0, 0), BuildingBlock: KIFKEQ_clean_linker_1, # of connection points: 2
#     Edge 143, Type (0, 0), BuildingBlock: KIFKEQ_clean_linker_1, # of connection points: 2
# Relax obj value: 0.549
# Max RMSD: 0.348
# Mean RMSD: 0.245
data_MOF--net-unx--node1-CEKHIL_clean_sbu_0--edge1-KIFKEQ_clean_linker_1
_symmetry_space_group_name_H-M    P1
_symmetry_Int_Tables_number       1
_symmetry_cell_setting            triclinic
loop_
_symmetry_equiv_pos_as_xyz
'x, y, z'
_cell_length_a     53.672754
_cell_length_b     51.912492
_cell_length_c     54.094633
_cell_angle_alpha  90.005804
_cell_angle_beta   89.999937
_cell_angle_gamma 91.099908
loop_
_atom_site_label
_atom_site_type_symbol
_atom_site_fract_x
_atom_site_fract_y
_atom_site_fract_z
_atom_type_partial_charge
Co0 Co 0.13083 0.5033 0.29655 0.0
O1 O 0.15366 0.49146 0.32148 0.0
O2 O 0.15856 0.52709 0.29929 0.0
C3 C 0.09466 0.49751 0.31681 0.0
O4 O 0.11156 0.52237 0.2701 0.0
Co5 Co 0.09262 0.46641 0.27145 0.0
O6 O 0.07865 0.49845 0.25748 0.0
C7 C 0.145 0.46479 0.25611 0.0
C8 C 0.16738 0.51154 0.31581 0.0
C9 C 0.09119 0.51953 0.25773 0.0
O10 O 0.14965 0.48376 0.27073 0.0
O11 O 0.12344 0.45399 0.25425 0.0
O12 O 0.10883 0.51756 0.32136 0.0
O13 O 0.10446 0.47999 0.303 0.0
Co14 Co 0.67848 0.20771 0.49827 0.0
O15 O 0.7098 0.22232 0.50965 0.0
O16 O 0.67249 0.23355 0.52292 0.0
C17 C 0.68836 0.16563 0.49828 0.0
O18 O 0.64231 0.19795 0.49126 0.0
Co19 Co 0.6743 0.17948 0.44784 0.0
O20 O 0.63905 0.17283 0.45757 0.0
C21 C 0.68026 0.23582 0.44874 0.0
C22 C 0.69643 0.23783 0.52286 0.0
C23 C 0.62932 0.18441 0.47586 0.0
O24 O 0.67739 0.23522 0.47228 0.0
O25 O 0.68144 0.21546 0.43547 0.0
O26 O 0.68196 0.17682 0.51883 0.0
O27 O 0.69127 0.18078 0.47953 0.0
Co28 Co 0.8726 0.97185 0.59782 0.0
O29 O 0.8435 0.99276 0.5946 0.0
O30 O 0.85192 0.96812 0.62685 0.0
C31 C 0.90259 0.99995 0.58524 0.0
O32 O 0.90101 0.94836 0.6076 0.0
Co33 Co 0.90061 0.9571 0.54965 0.0
O34 O 0.92549 0.94466 0.57388 0.0
C35 C 0.85372 0.93066 0.56136 0.0
C36 C 0.83655 0.98348 0.61587 0.0
C37 C 0.92111 0.9412 0.59682 0.0
O38 O 0.85406 0.94162 0.58264 0.0
O39 O 0.86929 0.93621 0.54418 0.0
O40 O 0.89344 0.00148 0.60747 0.0
O41 O 0.88995 0.98515 0.57044 0.0
Co42 Co 0.23708 0.96734 0.92999 0.0
O43 O 0.22704 0.93168 0.93361 0.0
O44 O 0.26614 0.94614 0.93343 0.0
C45 C 0.2104 0.98593 0.95653 0.0
O46 O 0.25419 0.00272 0.92786 0.0
Co47 Co 0.19956 0.00539 0.90698 0.0
O48 O 0.22437 0.03133 0.91913 0.0
C49 C 0.22697 0.97142 0.87413 0.0
C50 C 0.25061 0.92663 0.93475 0.0
C51 C 0.24654 0.02599 0.92559 0.0
O52 O 0.23942 0.96346 0.89287 0.0
O53 O 0.20846 0.98644 0.87609 0.0
O54 O 0.23003 0.97442 0.9648 0.0
O55 O 0.20533 0.9813 0.93357 0.0
Co56 Co 0.11713 0.46384 0.87935 0.0
O57 O 0.09676 0.49387 0.88175 0.0
O58 O 0.09697 0.46177 0.90878 0.0
C59 C 0.15345 0.48268 0.86865 0.0
O60 O 0.13563 0.43026 0.88342 0.0
Co61 Co 0.13807 0.44702 0.82866 0.0
O62 O 0.15674 0.42165 0.84859 0.0
C63 C 0.0854 0.43728 0.83916 0.0
C64 C 0.08712 0.48312 0.90135 0.0
C65 C 0.15112 0.4167 0.87102 0.0
O66 O 0.08958 0.44561 0.8611 0.0
O67 O 0.1021 0.43726 0.82227 0.0
O68 O 0.14636 0.48256 0.89169 0.0
O69 O 0.13688 0.47486 0.85282 0.0
Co70 Co 0.73519 0.53453 0.06314 0.0
O71 O 0.72321 0.56892 0.05811 0.0
O72 O 0.76262 0.55734 0.05452 0.0
C73 C 0.70636 0.5116 0.04184 0.0
O74 O 0.75399 0.50083 0.06592 0.0
Co75 Co 0.70323 0.4964 0.09445 0.0
O76 O 0.72698 0.47107 0.08108 0.0
C77 C 0.73375 0.53508 0.12016 0.0
C78 C 0.74629 0.57554 0.05394 0.0
C79 C 0.74782 0.47735 0.07125 0.0
O80 O 0.74221 0.5423 0.09901 0.0
O81 O 0.71639 0.51802 0.12253 0.0
O82 O 0.72419 0.52392 0.0303 0.0
O83 O 0.70397 0.51772 0.06494 0.0
Co84 Co 0.87577 0.03846 0.19726 0.0
O85 O 0.90338 0.04149 0.17491 0.0
O86 O 0.8994 0.01243 0.2049 0.0
C87 C 0.84472 0.04228 0.16992 0.0
O88 O 0.84964 0.02873 0.22315 0.0
Co89 Co 0.84008 0.08402 0.20498 0.0
O90 O 0.81862 0.05719 0.22104 0.0
C91 C 0.89044 0.08659 0.2262 0.0
C92 C 0.91274 0.02242 0.18713 0.0
C93 C 0.8275 0.03598 0.22854 0.0
O94 O 0.89326 0.06269 0.22096 0.0
O95 O 0.87142 0.09931 0.21939 0.0
O96 O 0.85569 0.02029 0.17251 0.0
O97 O 0.85535 0.06152 0.18105 0.0
Co98 Co 0.18387 0.28713 0.48307 0.0
O99 O 0.21363 0.27615 0.46652 0.0
O100 O 0.17514 0.26385 0.45664 0.0
C101 C 0.1927 0.32951 0.48674 0.0
O102 O 0.14885 0.29379 0.49563 0.0
Co103 Co 0.18676 0.30728 0.53682 0.0
O104 O 0.15099 0.31506 0.53177 0.0
C105 C 0.19171 0.25211 0.52792 0.0
C106 C 0.19898 0.26098 0.45369 0.0
C107 C 0.13852 0.30546 0.51383 0.0
O108 O 0.18646 0.25651 0.50526 0.0
O109 O 0.19402 0.26999 0.54411 0.0
O110 O 0.18411 0.32025 0.46597 0.0
O111 O 0.1987 0.31254 0.50312 0.0
Co112 Co 0.26495 0.0375 0.4277 0.0
O113 O 0.27573 0.07304 0.42872 0.0
O114 O 0.23638 0.05961 0.43057 0.0
C115 C 0.29199 0.02066 0.45488 0.0
O116 O 0.24729 0.00223 0.42766 0.0
Co117 Co 0.30169 0.99724 0.40687 0.0
O118 O 0.2762 0.97241 0.41968 0.0
C119 C 0.27419 0.02944 0.37223 0.0
C120 C 0.25235 0.07881 0.43011 0.0
C121 C 0.25413 0.9786 0.42576 0.0
O122 O 0.26213 0.03897 0.39051 0.0
O123 O 0.29244 0.0142 0.37498 0.0
O124 O 0.2725 0.03268 0.46277 0.0
O125 O 0.29654 0.02347 0.43157 0.0
Co126 Co 0.36974 0.49768 0.7961 0.0
O127 O 0.34765 0.51269 0.82004 0.0
O128 O 0.34117 0.47542 0.80085 0.0
C129 C 0.40617 0.50366 0.81574 0.0
O130 O 0.388 0.47553 0.77131 0.0
Co131 Co 0.40909 0.53068 0.76806 0.0
O132 O 0.42132 0.49695 0.75602 0.0
C133 C 0.35663 0.53383 0.7534 0.0
C134 C 0.33317 0.49271 0.81613 0.0
C135 C 0.40806 0.47645 0.75829 0.0
O136 O 0.35164 0.51555 0.76871 0.0
O137 O 0.37837 0.54423 0.75143 0.0
O138 O 0.39125 0.48471 0.82196 0.0
O139 O 0.397 0.52033 0.80059 0.0
Co140 Co 0.81468 0.78891 0.99302 0.0
O141 O 0.78509 0.77402 0.00833 0.0
O142 O 0.82402 0.76335 0.01652 0.0
C143 C 0.80532 0.83102 0.99424 0.0
O144 O 0.84969 0.79864 0.98203 0.0
Co145 Co 0.81356 0.81664 0.94246 0.0
O146 O 0.84981 0.82308 0.94786 0.0
C147 C 0.80827 0.76032 0.94384 0.0
C148 C 0.80037 0.75872 0.01961 0.0
C149 C 0.86122 0.81174 0.96529 0.0
O150 O 0.81279 0.76126 0.96711 0.0
O151 O 0.80614 0.78052 0.93048 0.0
O152 O 0.81378 0.81964 0.0139 0.0
O153 O 0.7999 0.81601 0.97584 0.0
Co154 Co 0.62425 0.0414 0.14824 0.0
O155 O 0.65548 0.02477 0.15033 0.0
O156 O 0.64284 0.05573 0.17561 0.0
C157 C 0.59989 0.00647 0.14205 0.0
O158 O 0.59249 0.06205 0.15159 0.0
Co159 Co 0.5966 0.03925 0.09792 0.0
O160 O 0.56876 0.05234 0.11834 0.0
C161 C 0.6391 0.0746 0.10355 0.0
C162 C 0.66024 0.04017 0.16865 0.0
C163 C 0.57176 0.06251 0.13962 0.0
O164 O 0.63947 0.06904 0.12665 0.0
O165 O 0.62478 0.06306 0.08803 0.0
O166 O 0.60738 0.01233 0.16427 0.0
O167 O 0.61077 0.01927 0.1245 0.0
Co168 Co 0.42659 0.24273 0.12218 0.0
O169 O 0.40402 0.2384 0.14961 0.0
O170 O 0.44115 0.2578 0.15142 0.0
C171 C 0.39885 0.25554 0.09385 0.0
O172 O 0.4546 0.25176 0.09819 0.0
Co173 Co 0.42166 0.20979 0.07454 0.0
O174 O 0.44674 0.23464 0.0608 0.0
C175 C 0.44243 0.18675 0.11977 0.0
C176 C 0.42113 0.24986 0.16287 0.0
C177 C 0.4596 0.24925 0.07506 0.0
O178 O 0.44248 0.20892 0.13038 0.0
O179 O 0.43303 0.18273 0.09831 0.0
O180 O 0.40815 0.2721 0.10955 0.0
O181 O 0.40447 0.23182 0.09755 0.0
Co182 Co 0.11299 0.79231 0.3701 0.0
O183 O 0.10107 0.76668 0.34719 0.0
O184 O 0.13424 0.79226 0.34134 0.0
C185 C 0.11036 0.76839 0.40446 0.0
O186 O 0.13099 0.82078 0.38939 0.0
Co187 Co 0.07802 0.81361 0.41016 0.0
O188 O 0.10784 0.83346 0.42161 0.0
C189 C 0.07138 0.83002 0.35905 0.0
C190 C 0.11908 0.77453 0.33285 0.0
C191 C 0.12779 0.83462 0.40885 0.0
O192 O 0.09121 0.81792 0.35356 0.0
O193 O 0.06177 0.83016 0.38067 0.0
O194 O 0.1296 0.7667 0.38997 0.0
O195 O 0.0923 0.78236 0.39647 0.0
Co196 Co 0.37085 0.2955 0.62792 0.0
O197 O 0.37444 0.27058 0.65401 0.0
O198 O 0.34607 0.30112 0.65288 0.0
C199 C 0.37425 0.26897 0.59546 0.0
O200 O 0.36039 0.32383 0.60449 0.0
Co201 Co 0.41344 0.30939 0.59177 0.0
O202 O 0.38856 0.3307 0.57442 0.0
C203 C 0.41499 0.33099 0.64177 0.0
C204 C 0.35612 0.28223 0.66477 0.0
C205 C 0.3676 0.33505 0.58447 0.0
O206 O 0.39386 0.31989 0.64594 0.0
O207 O 0.42682 0.32878 0.62137 0.0
O208 O 0.35325 0.27058 0.60734 0.0
O209 O 0.39317 0.28102 0.6053 0.0
Co210 Co 0.06143 0.74433 0.86965 0.0
O211 O 0.08507 0.74151 0.8431 0.0
O212 O 0.05155 0.7659 0.84275 0.0
C213 C 0.08839 0.74796 0.90127 0.0
O214 O 0.03337 0.75301 0.89309 0.0
Co215 Co 0.05725 0.7035 0.91145 0.0
O216 O 0.03498 0.72891 0.92751 0.0
C217 C 0.04008 0.69081 0.86117 0.0
C218 C 0.07074 0.75705 0.83104 0.0
C219 C 0.02598 0.74742 0.91507 0.0
O220 O 0.04131 0.71478 0.85526 0.0
O221 O 0.04811 0.68207 0.88176 0.0
O222 O 0.08336 0.76817 0.88803 0.0
O223 O 0.07935 0.72641 0.89317 0.0
Co224 Co 0.10593 0.70146 0.11773 0.0
O225 O 0.09249 0.72584 0.14059 0.0
O226 O 0.12873 0.70635 0.14493 0.0
C227 C 0.09866 0.72293 0.08256 0.0
O228 O 0.12585 0.67546 0.09811 0.0
Co229 Co 0.07118 0.67309 0.08051 0.0
O230 O 0.10249 0.65873 0.06734 0.0
C231 C 0.07106 0.65651 0.1323 0.0
C232 C 0.11222 0.72182 0.15386 0.0
C233 C 0.12307 0.6609 0.07898 0.0
O234 O 0.08878 0.67288 0.13643 0.0
O235 O 0.06032 0.65408 0.11128 0.0
O236 O 0.11797 0.72885 0.09607 0.0
O237 O 0.08289 0.70664 0.09226 0.0
Co238 Co 0.57043 0.7429 0.12472 0.0
O239 O 0.5944 0.74663 0.15082 0.0
O240 O 0.55766 0.72654 0.15413 0.0
C241 C 0.59703 0.73185 0.09478 0.0
O242 O 0.54132 0.73463 0.10181 0.0
Co243 Co 0.57293 0.77839 0.07864 0.0
O244 O 0.5474 0.75393 0.06506 0.0
C245 C 0.5544 0.79879 0.12593 0.0
C246 C 0.57814 0.7347 0.16467 0.0
C247 C 0.53527 0.73845 0.0791 0.0
O248 O 0.55458 0.77599 0.13516 0.0
O249 O 0.56302 0.80415 0.10441 0.0
O250 O 0.58859 0.71437 0.11002 0.0
O251 O 0.59118 0.75526 0.09969 0.0
Co252 Co 0.36497 0.22624 0.879 0.0
O253 O 0.3697 0.25466 0.85639 0.0
O254 O 0.33951 0.22495 0.85415 0.0
C255 C 0.3705 0.24754 0.91469 0.0
O256 O 0.3531 0.19486 0.89833 0.0
Co257 Co 0.407 0.20585 0.91198 0.0
O258 O 0.38119 0.18235 0.92634 0.0
C259 C 0.40661 0.19211 0.85951 0.0
C260 C 0.35063 0.24497 0.84448 0.0
C261 C 0.35988 0.18019 0.91614 0.0
O262 O 0.38622 0.20435 0.85732 0.0
O263 O 0.41874 0.19064 0.8798 0.0
O264 O 0.34924 0.24819 0.90317 0.0
O265 O 0.38852 0.23661 0.90294 0.0
Co266 Co 0.42744 0.25346 0.38893 0.0
O267 O 0.40477 0.2587 0.36183 0.0
O268 O 0.43943 0.23618 0.35999 0.0
C269 C 0.39915 0.24425 0.41832 0.0
O270 O 0.45497 0.2429 0.41243 0.0
Co271 Co 0.42822 0.28821 0.43546 0.0
O272 O 0.45069 0.26184 0.44944 0.0
C273 C 0.44967 0.30789 0.38877 0.0
C274 C 0.42026 0.2455 0.34863 0.0
C275 C 0.46115 0.24568 0.43527 0.0
O276 O 0.44676 0.28545 0.37902 0.0
O277 O 0.44185 0.31342 0.41047 0.0
O278 O 0.40605 0.22634 0.40308 0.0
O279 O 0.40751 0.2672 0.4137 0.0
Co280 Co 0.11856 0.03144 0.5915 0.0
O281 O 0.1482 0.01132 0.5884 0.0
O282 O 0.13961 0.03676 0.62003 0.0
C283 C 0.08896 0.00225 0.58058 0.0
O284 O 0.08949 0.05425 0.60116 0.0
Co285 Co 0.08959 0.04391 0.54344 0.0
O286 O 0.06481 0.05647 0.56754 0.0
C287 C 0.13521 0.07313 0.5541 0.0
C288 C 0.1552 0.02144 0.60929 0.0
C289 C 0.06902 0.0605 0.59043 0.0
O290 O 0.13611 0.06164 0.57511 0.0
O291 O 0.11909 0.06727 0.53752 0.0
O292 O 0.09888 0.00163 0.60252 0.0
O293 O 0.10097 0.01665 0.56488 0.0
Co294 Co 0.76334 0.03525 0.9295 0.0
O295 O 0.77351 0.071 0.93168 0.0
O296 O 0.7344 0.0567 0.93289 0.0
C297 C 0.79025 0.01753 0.95641 0.0
O298 O 0.74608 0.99983 0.9286 0.0
Co299 Co 0.80056 0.99604 0.90773 0.0
O300 O 0.77558 0.97068 0.92047 0.0
C301 C 0.77286 0.02884 0.87377 0.0
C302 C 0.74999 0.07622 0.9332 0.0
C303 C 0.75347 0.9764 0.9268 0.0
O304 O 0.76075 0.03794 0.89226 0.0
O305 O 0.79105 0.01349 0.87627 0.0
O306 O 0.77071 0.02937 0.96446 0.0
O307 O 0.79511 0.02133 0.93328 0.0
Co308 Co 0.8728 0.49546 0.29629 0.0
O309 O 0.84878 0.50598 0.32068 0.0
O310 O 0.84618 0.47029 0.29811 0.0
C311 C 0.9083 0.50323 0.31698 0.0
O312 O 0.8939 0.47759 0.27052 0.0
Co313 Co 0.90816 0.53542 0.27165 0.0
O314 O 0.92309 0.50502 0.25534 0.0
C315 C 0.85594 0.53393 0.2567 0.0
C316 C 0.83613 0.48543 0.31426 0.0
C317 C 0.91307 0.48263 0.25696 0.0
O318 O 0.85339 0.51358 0.26996 0.0
O319 O 0.87622 0.54729 0.25608 0.0
O320 O 0.89496 0.48258 0.32158 0.0
O321 O 0.89773 0.52027 0.30316 0.0
Co322 Co 0.32235 0.79495 0.4976 0.0
O323 O 0.2911 0.78059 0.50934 0.0
O324 O 0.32853 0.7691 0.52212 0.0
C325 C 0.31287 0.83702 0.49781 0.0
O326 O 0.35845 0.80449 0.49022 0.0
Co327 Co 0.32619 0.82312 0.44716 0.0
O328 O 0.36153 0.82975 0.45663 0.0
C329 C 0.31993 0.76684 0.44806 0.0
C330 C 0.30456 0.76498 0.52235 0.0
C331 C 0.37136 0.81807 0.47481 0.0
O332 O 0.32292 0.76746 0.47158 0.0
O333 O 0.31888 0.78718 0.43474 0.0
O334 O 0.31939 0.82575 0.51827 0.0
O335 O 0.30954 0.82196 0.47905 0.0
Co336 Co 0.1328 0.97602 0.19295 0.0
O337 O 0.1048 0.97502 0.17102 0.0
O338 O 0.10892 1.00062 0.20377 0.0
C339 C 0.16339 0.97612 0.165 0.0
O340 O 0.15953 0.98305 0.21896 0.0
Co341 Co 0.16814 0.92955 0.19488 0.0
O342 O 0.18937 0.95354 0.21476 0.0
C343 C 0.11899 0.92502 0.21817 0.0
C344 C 0.0954 0.99244 0.1853 0.0
C345 C 0.18118 0.97425 0.22417 0.0
O346 O 0.11607 0.94922 0.21453 0.0
O347 O 0.13767 0.91279 0.20978 0.0
O348 O 0.15193 0.99735 0.17001 0.0
O349 O 0.15326 0.95533 0.17392 0.0
Co350 Co 0.81342 0.71467 0.47884 0.0
O351 O 0.78378 0.72648 0.46258 0.0
O352 O 0.82242 0.73741 0.45202 0.0
C353 C 0.80368 0.67256 0.48332 0.0
O354 O 0.84828 0.70704 0.49112 0.0
Co355 Co 0.80993 0.69599 0.53305 0.0
O356 O 0.84576 0.68796 0.52838 0.0
C357 C 0.80635 0.75094 0.52294 0.0
C358 C 0.79865 0.74111 0.44945 0.0
C359 C 0.85838 0.69618 0.50991 0.0
O360 O 0.81232 0.74566 0.50064 0.0
O361 O 0.80232 0.73347 0.53925 0.0
O362 O 0.81198 0.68126 0.46222 0.0
O363 O 0.79818 0.69001 0.49941 0.0
Co364 Co 0.8789 0.54301 0.87557 0.0
O365 O 0.90066 0.514 0.87801 0.0
O366 O 0.9 0.54684 0.90418 0.0
C367 C 0.84315 0.52194 0.86669 0.0
O368 O 0.85923 0.57581 0.87972 0.0
Co369 Co 0.85424 0.55766 0.82586 0.0
O370 O 0.83606 0.58326 0.84598 0.0
C371 C 0.90718 0.5697 0.83317 0.0
C372 C 0.91036 0.52563 0.89713 0.0
C373 C 0.84279 0.58877 0.86798 0.0
O374 O 0.90482 0.56187 0.85556 0.0
O375 O 0.88943 0.56854 0.81738 0.0
O376 O 0.85095 0.52327 0.88947 0.0
O377 O 0.85863 0.53037 0.85012 0.0
Co378 Co 0.26549 0.46815 0.06305 0.0
O379 O 0.27771 0.43363 0.06014 0.0
O380 O 0.23835 0.4446 0.05512 0.0
C381 C 0.29441 0.48974 0.04061 0.0
O382 O 0.24639 0.50186 0.06388 0.0
Co383 Co 0.29715 0.50883 0.09178 0.0
O384 O 0.27303 0.53294 0.07716 0.0
C385 C 0.26706 0.4714 0.11987 0.0
C386 C 0.25481 0.42653 0.05569 0.0
C387 C 0.25221 0.52574 0.06789 0.0
O388 O 0.25859 0.4624 0.09933 0.0
O389 O 0.28394 0.48911 0.12101 0.0
O390 O 0.27659 0.47679 0.02971 0.0
O391 O 0.29664 0.48517 0.06404 0.0
Co392 Co 0.18491 0.21512 0.99308 0.0
O393 O 0.21546 0.22885 0.0071 0.0
O394 O 0.1774 0.24047 0.01771 0.0
C395 C 0.19368 0.17282 0.99325 0.0
O396 O 0.1493 0.20604 0.98321 0.0
Co397 Co 0.18482 0.18857 0.94176 0.0
O398 O 0.14865 0.18306 0.94801 0.0
C399 C 0.18991 0.24483 0.94429 0.0
C400 C 0.20133 0.24417 0.0197 0.0
C401 C 0.13753 0.19369 0.96606 0.0
O402 O 0.1861 0.24332 0.96766 0.0
O403 O 0.1918 0.22497 0.93043 0.0
O404 O 0.18615 0.18399 0.01339 0.0
O405 O 0.19868 0.18811 0.97495 0.0
Co406 Co 0.38544 0.95517 0.13289 0.0
O407 O 0.3581 0.97709 0.12622 0.0
O408 O 0.3606 0.95053 0.15829 0.0
C409 C 0.41666 0.98357 0.12617 0.0
O410 O 0.41162 0.93046 0.14571 0.0
Co411 Co 0.42063 0.94239 0.08916 0.0
O412 O 0.44149 0.92907 0.1164 0.0
C413 C 0.37187 0.91658 0.09197 0.0
C414 C 0.3478 0.96719 0.14582 0.0
C415 C 0.43341 0.92418 0.13808 0.0
O416 O 0.36878 0.92664 0.1134 0.0
O417 O 0.39052 0.92215 0.0781 0.0
O418 O 0.40467 0.98372 0.14706 0.0
O419 O 0.40658 0.96948 0.10905 0.0
Co420 Co 0.7367 0.96638 0.42535 0.0
O421 O 0.72531 0.93094 0.42482 0.0
O422 O 0.76485 0.94355 0.42715 0.0
C423 C 0.70997 0.98237 0.45348 0.0
O424 O 0.7551 0.0012 0.42702 0.0
Co425 Co 0.70081 0.00893 0.40732 0.0
O426 O 0.72674 0.03219 0.4218 0.0
C427 C 0.72766 0.97842 0.37051 0.0
C428 C 0.74857 0.92466 0.42604 0.0
C429 C 0.74873 0.02505 0.42706 0.0
O430 O 0.73929 0.96684 0.388 0.0
O431 O 0.71008 0.9942 0.37451 0.0
O432 O 0.7293 0.96965 0.4607 0.0
O433 O 0.70537 0.98084 0.4301 0.0
Co434 Co 0.6281 0.49592 0.79414 0.0
O435 O 0.65023 0.48151 0.8185 0.0
O436 O 0.65632 0.51855 0.79879 0.0
C437 C 0.59166 0.48988 0.81378 0.0
O438 O 0.60992 0.51778 0.76901 0.0
Co439 Co 0.58874 0.46307 0.76607 0.0
O440 O 0.57623 0.49668 0.7542 0.0
C441 C 0.64125 0.46021 0.75112 0.0
C442 C 0.66439 0.50172 0.81449 0.0
C443 C 0.58971 0.51704 0.7562 0.0
O444 O 0.64657 0.47772 0.76714 0.0
O445 O 0.61927 0.45063 0.74835 0.0
O446 O 0.60643 0.50904 0.81972 0.0
O447 O 0.60087 0.47313 0.79871 0.0
Co448 Co 0.62169 0.70422 0.62966 0.0
O449 O 0.61428 0.72888 0.65491 0.0
O450 O 0.64563 0.70165 0.65602 0.0
C451 C 0.61788 0.72996 0.59675 0.0
O452 O 0.63556 0.67662 0.60716 0.0
Co453 Co 0.58161 0.68671 0.59198 0.0
O454 O 0.60896 0.66754 0.57614 0.0
C455 C 0.57997 0.6651 0.642 0.0
C456 C 0.63307 0.71957 0.6669 0.0
C457 C 0.62979 0.66475 0.58701 0.0
O458 O 0.59998 0.678 0.6469 0.0
O459 O 0.56872 0.66632 0.62118 0.0
O460 O 0.63828 0.73034 0.60972 0.0
O461 O 0.59944 0.71649 0.6058 0.0
Co462 Co 0.93517 0.25965 0.88083 0.0
O463 O 0.91252 0.26243 0.8535 0.0
O464 O 0.94797 0.24108 0.85306 0.0
C465 C 0.90754 0.25115 0.91085 0.0
O466 O 0.96267 0.25162 0.90518 0.0
Co467 Co 0.93418 0.29849 0.92425 0.0
O468 O 0.95949 0.27579 0.93949 0.0
C469 C 0.95309 0.31525 0.87596 0.0
C470 C 0.92857 0.24911 0.84113 0.0
C471 C 0.96953 0.25776 0.9272 0.0
O472 O 0.95354 0.29157 0.8691 0.0
O473 O 0.94348 0.32246 0.89642 0.0
O474 O 0.91478 0.23269 0.8964 0.0
O475 O 0.91466 0.27413 0.90465 0.0
Co476 Co 0.88776 0.2126 0.37875 0.0
O477 O 0.89743 0.23924 0.35573 0.0
O478 O 0.8664 0.21097 0.35022 0.0
C479 C 0.88886 0.23658 0.41313 0.0
O480 O 0.8716 0.18299 0.39783 0.0
Co481 Co 0.9232 0.19341 0.41938 0.0
O482 O 0.8947 0.17121 0.43035 0.0
C483 C 0.93188 0.17798 0.36821 0.0
C484 C 0.87979 0.23006 0.34159 0.0
C485 C 0.87508 0.16914 0.41719 0.0
O486 O 0.91143 0.18874 0.36224 0.0
O487 O 0.94095 0.17836 0.39007 0.0
O488 O 0.86946 0.23684 0.39873 0.0
O489 O 0.90777 0.22384 0.40518 0.0
Co490 Co 0.93577 0.24786 0.61488 0.0
O491 O 0.91402 0.24272 0.64262 0.0
O492 O 0.95128 0.26197 0.64411 0.0
C493 C 0.90707 0.26163 0.58807 0.0
O494 O 0.9629 0.25727 0.5901 0.0
Co495 Co 0.92844 0.2157 0.567 0.0
O496 O 0.95404 0.2399 0.55299 0.0
C497 C 0.9495 0.19157 0.61129 0.0
C498 C 0.93145 0.25373 0.65575 0.0
C499 C 0.96734 0.2545 0.56688 0.0
O500 O 0.95182 0.21381 0.62153 0.0
O501 O 0.93823 0.18782 0.59071 0.0
O502 O 0.91709 0.27772 0.60378 0.0
O503 O 0.91269 0.23779 0.59095 0.0
Co504 Co 0.57316 0.74788 0.38807 0.0
O505 O 0.59669 0.74238 0.36198 0.0
O506 O 0.56271 0.76592 0.35899 0.0
C507 C 0.60029 0.75584 0.41867 0.0
O508 O 0.54516 0.7585 0.41087 0.0
Co509 Co 0.57024 0.71105 0.43304 0.0
O510 O 0.54768 0.73744 0.44703 0.0
C511 C 0.55143 0.69351 0.38481 0.0
C512 C 0.58199 0.75596 0.34829 0.0
C513 C 0.53818 0.75469 0.43334 0.0
O514 O 0.55336 0.71674 0.37681 0.0
O515 O 0.55946 0.68655 0.40603 0.0
O516 O 0.59454 0.7742 0.40345 0.0
O517 O 0.59183 0.73313 0.41316 0.0
Co518 Co 0.62696 0.77898 0.88185 0.0
O519 O 0.61911 0.75074 0.86011 0.0
O520 O 0.65093 0.77822 0.85542 0.0
C521 C 0.6224 0.75779 0.91764 0.0
O522 O 0.64148 0.8099 0.90028 0.0
Co523 Co 0.58771 0.80137 0.91689 0.0
O524 O 0.61537 0.82345 0.92975 0.0
C525 C 0.58593 0.81499 0.86444 0.0
C526 C 0.638 0.75871 0.84694 0.0
C527 C 0.63616 0.82483 0.91844 0.0
O528 O 0.60566 0.80187 0.86126 0.0
O529 O 0.57492 0.81702 0.88531 0.0
O530 O 0.64298 0.75628 0.90508 0.0
O531 O 0.60434 0.76981 0.90703 0.0
Co532 Co 0.61701 0.45373 0.37106 0.0
O533 O 0.59701 0.48421 0.37134 0.0
O534 O 0.59756 0.45463 0.40089 0.0
C535 C 0.65346 0.471 0.35838 0.0
O536 O 0.63503 0.42035 0.37787 0.0
Co537 Co 0.63722 0.43163 0.32196 0.0
O538 O 0.65515 0.40746 0.34375 0.0
C539 C 0.58476 0.42284 0.33417 0.0
C540 C 0.58787 0.47546 0.39206 0.0
C541 C 0.6498 0.40504 0.36658 0.0
O542 O 0.58885 0.43423 0.35484 0.0
O543 O 0.60143 0.42026 0.3175 0.0
O544 O 0.6466 0.4732 0.38135 0.0
O545 O 0.63668 0.46182 0.3434 0.0
Co546 Co 0.24227 0.53826 0.55384 0.0
O547 O 0.22943 0.5725 0.55104 0.0
O548 O 0.26879 0.56217 0.54486 0.0
C549 C 0.21295 0.51571 0.53271 0.0
O550 O 0.26175 0.50486 0.55445 0.0
Co551 Co 0.21174 0.49821 0.58457 0.0
O552 O 0.23536 0.47411 0.56899 0.0
C553 C 0.24182 0.53689 0.61076 0.0
C554 C 0.25209 0.57999 0.54601 0.0
C555 C 0.25583 0.4811 0.5588 0.0
O556 O 0.25041 0.54452 0.58978 0.0
O557 O 0.2244 0.51985 0.61281 0.0
O558 O 0.23011 0.52884 0.52098 0.0
O559 O 0.21142 0.52084 0.55608 0.0
Co560 Co 0.36296 0.02976 0.69388 0.0
O561 O 0.3925 0.03451 0.67397 0.0
O562 O 0.38919 0.00823 0.70614 0.0
C563 C 0.33438 0.02605 0.66342 0.0
O564 O 0.33562 0.01921 0.71825 0.0
Co565 Co 0.32108 0.07041 0.69269 0.0
O566 O 0.3022 0.04385 0.7118 0.0
C567 C 0.36789 0.08227 0.71905 0.0
C568 C 0.403 0.01819 0.6887 0.0
C569 C 0.31267 0.02483 0.72219 0.0
O570 O 0.37468 0.05878 0.71631 0.0
O571 O 0.34823 0.09118 0.70905 0.0
O572 O 0.34766 0.00632 0.66952 0.0
O573 O 0.34132 0.0476 0.67334 0.0
Co574 Co 0.6767 0.28267 0.99535 0.0
O575 O 0.70667 0.27067 0.97988 0.0
O576 O 0.66829 0.25865 0.96933 0.0
C577 C 0.68617 0.32504 0.99792 0.0
O578 O 0.64159 0.2904 0.00691 0.0
Co579 Co 0.67923 0.30497 0.04851 0.0
O580 O 0.64334 0.31203 0.04292 0.0
C581 C 0.68324 0.24937 0.04153 0.0
C582 C 0.69217 0.25555 0.96687 0.0
C583 C 0.63108 0.30228 0.02489 0.0
O584 O 0.67788 0.25286 0.01871 0.0
O585 O 0.68686 0.26801 0.05671 0.0
O586 O 0.67795 0.31528 0.97721 0.0
O587 O 0.6915 0.30847 0.01485 0.0
Co588 Co 0.88589 0.29646 0.12531 0.0
O589 O 0.89719 0.27117 0.14843 0.0
O590 O 0.86316 0.29433 0.15284 0.0
C591 C 0.89083 0.27382 0.09051 0.0
O592 O 0.86817 0.32379 0.10541 0.0
Co593 Co 0.92253 0.32099 0.08772 0.0
O594 O 0.89254 0.33794 0.07429 0.0
C595 C 0.92421 0.33875 0.13906 0.0
C596 C 0.87818 0.27738 0.16191 0.0
C597 C 0.87194 0.33767 0.086 0.0
O598 O 0.90543 0.32378 0.14337 0.0
O599 O 0.93516 0.33975 0.11805 0.0
O600 O 0.87119 0.27011 0.10421 0.0
O601 O 0.9082 0.28856 0.09981 0.0
Co602 Co 0.06288 0.75857 0.60498 0.0
O603 O 0.08506 0.76512 0.63223 0.0
O604 O 0.04776 0.74613 0.63503 0.0
C605 C 0.09128 0.74326 0.57862 0.0
O606 O 0.03526 0.74771 0.58121 0.0
Co607 Co 0.06912 0.78718 0.555 0.0
O608 O 0.04372 0.7618 0.5428 0.0
C609 C 0.04759 0.81422 0.59773 0.0
C610 C 0.06778 0.7548 0.64604 0.0
C611 C 0.03054 0.74849 0.55789 0.0
O612 O 0.04708 0.79306 0.6101 0.0
O613 O 0.05756 0.81629 0.57629 0.0
O614 O 0.08136 0.72807 0.59518 0.0
O615 O 0.08559 0.76721 0.58019 0.0
Co616 Co 0.62777 0.97665 0.69762 0.0
O617 O 0.59866 0.97088 0.67731 0.0
O618 O 0.60099 0.99803 0.70888 0.0
C619 C 0.65676 0.98003 0.66748 0.0
O620 O 0.65445 0.98826 0.72228 0.0
Co621 Co 0.67077 0.93726 0.69825 0.0
O622 O 0.68926 0.96611 0.71462 0.0
C623 C 0.62373 0.92499 0.72434 0.0
C624 C 0.58766 0.98741 0.69144 0.0
C625 C 0.67792 0.98446 0.72517 0.0
O626 O 0.61619 0.94805 0.72053 0.0
O627 O 0.64398 0.91643 0.71523 0.0
O628 O 0.64313 0.99969 0.67293 0.0
O629 O 0.65007 0.95867 0.67791 0.0
Co630 Co 0.31882 0.71721 0.99414 0.0
O631 O 0.2911 0.73048 0.97552 0.0
O632 O 0.33071 0.74224 0.97062 0.0
C633 C 0.30911 0.67491 0.99396 0.0
O634 O 0.35237 0.7086 0.0091 0.0
Co635 Co 0.31129 0.69215 0.04563 0.0
O636 O 0.34745 0.68471 0.04342 0.0
C637 C 0.30731 0.748 0.04087 0.0
C638 C 0.30745 0.74603 0.96532 0.0
C639 C 0.36128 0.69549 0.02713 0.0
O640 O 0.3146 0.74583 0.01843 0.0
O641 O 0.30338 0.72864 0.05509 0.0
O642 O 0.31964 0.6855 0.97467 0.0
O643 O 0.30187 0.69072 0.01085 0.0
Co644 Co 0.38429 0.54723 0.378 0.0
O645 O 0.40388 0.51662 0.37975 0.0
O646 O 0.40419 0.54799 0.4076 0.0
C647 C 0.3476 0.52977 0.3666 0.0
O648 O 0.36666 0.58114 0.38281 0.0
Co649 Co 0.36478 0.56624 0.32761 0.0
O650 O 0.34651 0.59158 0.34791 0.0
C651 C 0.4173 0.57483 0.33935 0.0
C652 C 0.41364 0.52664 0.39964 0.0
C653 C 0.35185 0.5956 0.37057 0.0
O654 O 0.41248 0.56531 0.36069 0.0
O655 O 0.40094 0.57618 0.3222 0.0
O656 O 0.3546 0.52901 0.38963 0.0
O657 O 0.36444 0.53753 0.35096 0.0
Co658 Co 0.75999 0.46434 0.5569 0.0
O659 O 0.77262 0.43001 0.55337 0.0
O660 O 0.73301 0.4404 0.54937 0.0
C661 C 0.78797 0.48697 0.53408 0.0
O662 O 0.74052 0.49776 0.55852 0.0
Co663 Co 0.792 0.50472 0.58575 0.0
O664 O 0.76754 0.52868 0.57149 0.0
C665 C 0.7625 0.4669 0.61383 0.0
C666 C 0.74971 0.42255 0.5495 0.0
C667 C 0.74658 0.52158 0.56246 0.0
O668 O 0.75386 0.45809 0.59327 0.0
O669 O 0.7793 0.48467 0.61496 0.0
O670 O 0.77024 0.47366 0.52342 0.0
O671 O 0.79093 0.48193 0.55735 0.0
H672 H 0.23584 0.42961 0.12702 0.0
H673 H 0.26901 0.49499 0.16499 0.0
H674 H 0.20917 0.42102 0.16265 0.0
H675 H 0.24178 0.48719 0.19996 0.0
H676 H 0.19505 0.46858 0.26411 0.0
H677 H 0.22819 0.46319 0.23392 0.0
H678 H 0.17344 0.43988 0.17924 0.0
H679 H 0.14057 0.444 0.20988 0.0
C680 C 0.23769 0.44195 0.14309 0.0
C681 C 0.2544 0.46317 0.14301 0.0
C682 C 0.22224 0.43714 0.16348 0.0
C683 C 0.22292 0.45361 0.18414 0.0
C684 C 0.24079 0.47383 0.18461 0.0
C685 C 0.25643 0.47843 0.16439 0.0
C686 C 0.19021 0.46173 0.24577 0.0
C687 C 0.16519 0.45698 0.23926 0.0
C688 C 0.20919 0.45882 0.22838 0.0
C689 C 0.20356 0.45162 0.2039 0.0
C690 C 0.17864 0.44524 0.19791 0.0
C691 C 0.15969 0.4477 0.21546 0.0
H692 H 0.67601 0.24673 0.39935 0.0
H693 H 0.686 0.28288 0.4708 0.0
H694 H 0.67258 0.28905 0.38031 0.0
H695 H 0.68308 0.32509 0.45166 0.0
H696 H 0.68258 0.36915 0.34989 0.0
H697 H 0.69422 0.32925 0.37014 0.0
H698 H 0.64961 0.3493 0.43352 0.0
H699 H 0.63836 0.38939 0.41361 0.0
C700 C 0.67789 0.26368 0.41093 0.0
C701 C 0.68095 0.26138 0.43662 0.0
C702 C 0.67605 0.28796 0.4 0.0
C703 C 0.67736 0.31043 0.41452 0.0
C704 C 0.68154 0.30814 0.44004 0.0
C705 C 0.68328 0.28391 0.45098 0.0
C706 C 0.6755 0.36524 0.36829 0.0
C707 C 0.65933 0.38241 0.38002 0.0
C708 C 0.68208 0.34228 0.37982 0.0
C709 C 0.67267 0.33598 0.40332 0.0
C710 C 0.6574 0.35367 0.4155 0.0
C711 C 0.65084 0.37664 0.40401 0.0
H712 H 0.82719 0.91682 0.52027 0.0
H713 H 0.84402 0.89294 0.59468 0.0
H714 H 0.80679 0.87528 0.51243 0.0
H715 H 0.82588 0.85064 0.58642 0.0
H716 H 0.79346 0.77354 0.56742 0.0
H717 H 0.79613 0.81938 0.57781 0.0
H718 H 0.8219 0.83605 0.50356 0.0
H719 H 0.81766 0.79146 0.49301 0.0
C720 C 0.82627 0.90268 0.53499 0.0
C721 C 0.83734 0.90788 0.55794 0.0
C722 C 0.81486 0.87872 0.53049 0.0
C723 C 0.81536 0.85904 0.54848 0.0
C724 C 0.8249 0.8651 0.57206 0.0
C725 C 0.83548 0.88939 0.57681 0.0
C726 C 0.79927 0.78718 0.5533 0.0
C727 C 0.80567 0.77866 0.52953 0.0
C728 C 0.80095 0.81348 0.55925 0.0
C729 C 0.80942 0.83172 0.54164 0.0
C730 C 0.8148 0.82306 0.51764 0.0
C731 C 0.81272 0.79709 0.51164 0.0
H732 H 0.32595 0.98072 0.74675 0.0
H733 H 0.26608 0.03473 0.73951 0.0
H734 H 0.30312 0.95874 0.77988 0.0
H735 H 0.24398 0.0137 0.77295 0.0
H736 H 0.20245 0.97358 0.82981 0.0
H737 H 0.22155 0.97871 0.78921 0.0
H738 H 0.29411 0.96706 0.82162 0.0
H739 H 0.27488 0.96057 0.86173 0.0
C740 C 0.30789 0.98783 0.7521 0.0
C741 C 0.29804 0.00973 0.74064 0.0
C742 C 0.29481 0.97527 0.77116 0.0
C743 C 0.27169 0.98444 0.77932 0.0
C744 C 0.26146 0.00565 0.76703 0.0
C745 C 0.27436 0.018 0.7479 0.0
C746 C 0.22239 0.97128 0.82807 0.0
C747 C 0.23718 0.96715 0.84906 0.0
C748 C 0.23341 0.97448 0.80483 0.0
C749 C 0.2595 0.97418 0.80217 0.0
C750 C 0.27399 0.96745 0.82279 0.0
C751 C 0.26292 0.96376 0.84594 0.0
H752 H 0.19513 0.29109 0.9679 0.0
H753 H 0.18518 0.2576 0.8953 0.0
H754 H 0.19006 0.33387 0.95053 0.0
H755 H 0.17958 0.30049 0.87801 0.0
H756 H 0.18431 0.38289 0.85115 0.0
H757 H 0.19826 0.34247 0.86885 0.0
H758 H 0.15487 0.35683 0.93452 0.0
H759 H 0.14133 0.39738 0.91716 0.0
C760 C 0.19204 0.29284 0.94817 0.0
C761 C 0.19025 0.27085 0.93302 0.0
C762 C 0.18903 0.3174 0.93826 0.0
C763 C 0.18406 0.3206 0.91296 0.0
C764 C 0.18356 0.29873 0.89756 0.0
C765 C 0.18669 0.27411 0.90748 0.0
C766 C 0.17795 0.37759 0.86949 0.0
C767 C 0.16153 0.39337 0.88265 0.0
C768 C 0.18587 0.35433 0.87956 0.0
C769 C 0.1776 0.34633 0.90303 0.0
C770 C 0.16187 0.36253 0.91652 0.0
C771 C 0.15397 0.38577 0.90648 0.0
H772 H 0.71994 0.52982 0.16887 0.0
H773 H 0.77877 0.5604 0.12219 0.0
H774 H 0.74634 0.53658 0.20503 0.0
H775 H 0.80552 0.56572 0.15785 0.0
H776 H 0.8518 0.57557 0.22532 0.0
H777 H 0.81863 0.58329 0.19546 0.0
H778 H 0.7799 0.51431 0.22059 0.0
H779 H 0.812 0.50744 0.25086 0.0
C780 C 0.73836 0.5383 0.16634 0.0
C781 C 0.74734 0.5441 0.14255 0.0
C782 C 0.75364 0.54198 0.18706 0.0
C783 C 0.77842 0.55106 0.18443 0.0
C784 C 0.7866 0.5588 0.16082 0.0
C785 C 0.7712 0.55556 0.1402 0.0
C786 C 0.83596 0.56235 0.22471 0.0
C787 C 0.83483 0.5407 0.24031 0.0
C788 C 0.81696 0.56668 0.20748 0.0
C789 C 0.79654 0.54932 0.20531 0.0
C790 C 0.79496 0.52841 0.22179 0.0
C791 C 0.8137 0.52428 0.2391 0.0
H792 H 0.71217 0.00509 0.33003 0.0
H793 H 0.76629 0.94933 0.35302 0.0
H794 H 0.73513 0.01272 0.29248 0.0
H795 H 0.78874 0.95582 0.31428 0.0
H796 H 0.77767 0.02658 0.22495 0.0
H797 H 0.75095 0.00372 0.25438 0.0
H798 H 0.81556 0.98759 0.29934 0.0
H799 H 0.84219 0.00879 0.26883 0.0
C800 C 0.72856 0.99374 0.32672 0.0
C801 C 0.73768 0.97707 0.34496 0.0
C802 C 0.74177 0.99801 0.30487 0.0
C803 C 0.76428 0.98535 0.30035 0.0
C804 C 0.77197 0.9666 0.31742 0.0
C805 C 0.7589 0.96262 0.33957 0.0
C806 C 0.78608 0.01771 0.24098 0.0
C807 C 0.81188 0.01975 0.24492 0.0
C808 C 0.77079 0.0047 0.25795 0.0
C809 C 0.78087 0.99417 0.2797 0.0
C810 C 0.80696 0.99509 0.28281 0.0
C811 C 0.82231 0.00748 0.26544 0.0
H812 H 0.20778 0.21289 0.49945 0.0
H813 H 0.17858 0.2295 0.572 0.0
H814 H 0.20124 0.16701 0.5066 0.0
H815 H 0.17147 0.18338 0.57903 0.0
H816 H 0.16585 0.09739 0.58776 0.0
H817 H 0.18692 0.13918 0.58324 0.0
H818 H 0.16209 0.143 0.50738 0.0
H819 H 0.14133 0.1013 0.51171 0.0
C820 C 0.20041 0.20665 0.51717 0.0
C821 C 0.1933 0.22475 0.53506 0.0
C822 C 0.19656 0.18037 0.5212 0.0
C823 C 0.18533 0.17158 0.54315 0.0
C824 C 0.18024 0.18953 0.56194 0.0
C825 C 0.18428 0.21595 0.55795 0.0
C826 C 0.16531 0.10688 0.56994 0.0
C827 C 0.15161 0.09608 0.55016 0.0
C828 C 0.17728 0.13092 0.56745 0.0
C829 C 0.17602 0.14452 0.54506 0.0
C830 C 0.16365 0.13296 0.52485 0.0
C831 C 0.15158 0.10905 0.52737 0.0
H832 H 0.98077 0.25903 0.518 0.0
H833 H 0.00488 0.27941 0.59182 0.0
H834 H 0.01964 0.27699 0.50134 0.0
H835 H 0.04379 0.29642 0.57539 0.0
H836 H 0.10569 0.27311 0.49002 0.0
H837 H 0.06214 0.26528 0.50026 0.0
H838 H 0.06512 0.32841 0.55237 0.0
H839 H 0.10907 0.33552 0.54282 0.0
C840 C 0.99428 0.26744 0.53067 0.0
C841 C 0.98977 0.26753 0.55629 0.0
C842 C 0.01662 0.27766 0.52112 0.0
C843 C 0.035 0.28808 0.53698 0.0
C844 C 0.02999 0.289 0.56249 0.0
C845 C 0.00765 0.279 0.57199 0.0
C846 C 0.09694 0.28571 0.50327 0.0
C847 C 0.11098 0.30466 0.51592 0.0
C848 C 0.07184 0.28126 0.50911 0.0
C849 C 0.06014 0.29588 0.52752 0.0
C850 C 0.07369 0.31628 0.53861 0.0
C851 C 0.09886 0.3205 0.533 0.0
H852 H 0.99363 0.30804 0.84674 0.0
H853 H 0.94298 0.36633 0.87133 0.0
H854 H 0.02098 0.34113 0.82942 0.0
H855 H 0.96945 0.39956 0.85249 0.0
H856 H 0.0431 0.44487 0.86527 0.0
H857 H 0.00646 0.41747 0.86621 0.0
H858 H 0.03399 0.37483 0.80344 0.0
H859 H 0.07179 0.4019 0.80342 0.0
C860 C 0.98793 0.32793 0.84768 0.0
C861 C 0.96655 0.33471 0.86092 0.0
C862 C 0.00354 0.34699 0.83752 0.0
C863 C 0.9978 0.37322 0.83999 0.0
C864 C 0.97494 0.37966 0.85095 0.0
C865 C 0.95969 0.36064 0.86167 0.0
C866 C 0.04121 0.42996 0.85132 0.0
C867 C 0.06068 0.42508 0.83471 0.0
C868 C 0.01989 0.41431 0.85165 0.0
C869 C 0.0173 0.39345 0.83519 0.0
C870 C 0.03563 0.39028 0.81682 0.0
C871 C 0.0572 0.40595 0.81661 0.0
H872 H 0.73718 0.42623 0.06598 0.0
H873 H 0.79864 0.48123 0.06655 0.0
H874 H 0.76637 0.39099 0.06445 0.0
H875 H 0.82797 0.4458 0.06544 0.0
H876 H 0.87507 0.37588 0.051 0.0
H877 H 0.84451 0.40889 0.04231 0.0
H878 H 0.79432 0.37389 0.09554 0.0
H879 H 0.82451 0.34079 0.10397 0.0
C880 C 0.75696 0.4308 0.06565 0.0
C881 C 0.76565 0.4565 0.06689 0.0
C882 C 0.77367 0.41059 0.06479 0.0
C883 C 0.79947 0.41558 0.06525 0.0
C884 C 0.80819 0.44133 0.06496 0.0
C885 C 0.79141 0.46163 0.06569 0.0
C886 C 0.85735 0.37497 0.06056 0.0
C887 C 0.85234 0.35574 0.07833 0.0
C888 C 0.83992 0.394 0.05568 0.0
C889 C 0.81706 0.39409 0.06831 0.0
C890 C 0.81164 0.37423 0.08526 0.0
C891 C 0.82906 0.3553 0.09022 0.0
H892 H 0.93452 0.12618 0.36545 0.0
H893 H 0.95354 0.1963 0.32662 0.0
H894 H 0.93595 0.10228 0.32678 0.0
H895 H 0.95637 0.17235 0.28794 0.0
H896 H 0.89575 0.13804 0.23484 0.0
H897 H 0.91916 0.15869 0.26764 0.0
H898 H 0.95064 0.08557 0.28781 0.0
H899 H 0.92649 0.06459 0.25493 0.0
C900 C 0.94058 0.13612 0.34883 0.0
C901 C 0.94376 0.16296 0.34878 0.0
C902 C 0.9414 0.12246 0.32658 0.0
C903 C 0.94553 0.13558 0.30411 0.0
C904 C 0.95247 0.16184 0.30484 0.0
C905 C 0.95115 0.17552 0.32698 0.0
C906 C 0.90802 0.12637 0.24591 0.0
C907 C 0.90873 0.09957 0.24269 0.0
C908 C 0.92181 0.13831 0.2646 0.0
C909 C 0.9367 0.12376 0.28059 0.0
C910 C 0.93911 0.09725 0.27601 0.0
C911 C 0.9253 0.08526 0.25715 0.0
H912 H 0.26316 0.92734 0.43102 0.0
H913 H 0.20306 0.98152 0.42778 0.0
H914 H 0.23309 0.89172 0.43055 0.0
H915 H 0.1729 0.94562 0.42719 0.0
H916 H 0.17491 0.83993 0.38995 0.0
H917 H 0.20529 0.87434 0.39797 0.0
H918 H 0.15524 0.90816 0.4508 0.0
H919 H 0.12464 0.8738 0.44271 0.0
C920 C 0.24351 0.9317 0.43039 0.0
C921 C 0.23555 0.95734 0.42902 0.0
C922 C 0.22629 0.91122 0.43006 0.0
C923 C 0.20065 0.91583 0.42845 0.0
C924 C 0.19255 0.94146 0.42852 0.0
C925 C 0.20984 0.96203 0.4288 0.0
C926 C 0.17043 0.85451 0.40348 0.0
C927 C 0.14726 0.85407 0.4156 0.0
C928 C 0.18792 0.87419 0.40817 0.0
C929 C 0.18264 0.89401 0.425 0.0
C930 C 0.15974 0.89329 0.43757 0.0
C931 C 0.1423 0.87347 0.43303 0.0
H932 H 0.43736 0.37814 0.63509 0.0
H933 H 0.41232 0.32481 0.69143 0.0
H934 H 0.44115 0.41219 0.66609 0.0
H935 H 0.41726 0.35829 0.72265 0.0
H936 H 0.38295 0.43034 0.75632 0.0
H937 H 0.39151 0.39367 0.73041 0.0
H938 H 0.45798 0.43216 0.70273 0.0
H939 H 0.44891 0.46959 0.72837 0.0
C940 C 0.43369 0.37346 0.65428 0.0
C941 C 0.42424 0.34902 0.66087 0.0
C942 C 0.43585 0.39296 0.67209 0.0
C943 C 0.42889 0.38816 0.69681 0.0
C944 C 0.42201 0.36288 0.70368 0.0
C945 C 0.41941 0.34361 0.68585 0.0
C946 C 0.39957 0.43101 0.74496 0.0
C947 C 0.41508 0.4531 0.7443 0.0
C948 C 0.40465 0.40975 0.7302 0.0
C949 C 0.42552 0.40983 0.71446 0.0
C950 C 0.44161 0.43155 0.71444 0.0
C951 C 0.43645 0.45296 0.72921 0.0
H952 H 0.99261 0.77625 0.88995 0.0
H953 H 0.01225 0.75215 0.96373 0.0
H954 H 0.95608 0.79714 0.9059 0.0
H955 H 0.97611 0.77436 0.98012 0.0
H956 H 0.894 0.83986 0.9365 0.0
H957 H 0.93735 0.82987 0.92803 0.0
H958 H 0.93321 0.76783 0.98133 0.0
H959 H 0.8907 0.77873 0.9907 0.0
C960 C 0.9894 0.77589 0.90972 0.0
C961 C 0.00516 0.76222 0.92553 0.0
C962 C 0.96848 0.78817 0.91897 0.0
C963 C 0.96293 0.7875 0.94439 0.0
C964 C 0.97945 0.77488 0.96038 0.0
C965 C 0.00022 0.76219 0.95103 0.0
C966 C 0.90261 0.82455 0.94687 0.0
C967 C 0.88871 0.80984 0.96397 0.0
C968 C 0.92742 0.81863 0.94185 0.0
C969 C 0.93873 0.79756 0.95349 0.0
C970 C 0.92537 0.78426 0.97202 0.0
C971 C 0.90077 0.79046 0.97734 0.0
H972 H 0.44524 0.13695 0.10408 0.0
H973 H 0.47064 0.18822 0.16223 0.0
H974 H 0.47362 0.10461 0.11818 0.0
H975 H 0.49876 0.15517 0.17701 0.0
H976 H 0.57282 0.11126 0.15797 0.0
H977 H 0.5371 0.13937 0.16139 0.0
H978 H 0.48755 0.07437 0.14699 0.0
H979 H 0.5235 0.04683 0.14215 0.0
C980 C 0.45645 0.14112 0.12029 0.0
C981 C 0.45601 0.16544 0.13164 0.0
C982 C 0.47264 0.12235 0.12863 0.0
C983 C 0.48875 0.12728 0.14868 0.0
C984 C 0.48693 0.15089 0.16126 0.0
C985 C 0.47071 0.16979 0.15284 0.0
C986 C 0.55422 0.10293 0.15638 0.0
C987 C 0.55078 0.07712 0.14939 0.0
C988 C 0.53368 0.11899 0.1584 0.0
C989 C 0.50941 0.1093 0.15379 0.0
C990 C 0.506 0.08267 0.14985 0.0
C991 C 0.52653 0.06682 0.14729 0.0
H992 H 0.05194 0.81307 0.31597 0.0
H993 H 0.07008 0.88207 0.35697 0.0
H994 H 0.05295 0.83753 0.27746 0.0
H995 H 0.07183 0.9066 0.31855 0.0
H996 H 0.11595 0.87334 0.22749 0.0
H997 H 0.09225 0.85184 0.25979 0.0
H998 H 0.05767 0.92369 0.27879 0.0
H999 H 0.08178 0.94547 0.24644 0.0
C1000 C 0.05495 0.83375 0.31676 0.0
C1001 C 0.06105 0.84578 0.33922 0.0
C1002 C 0.0558 0.84771 0.29474 0.0
C1003 C 0.0632 0.87383 0.29488 0.0
C1004 C 0.06604 0.88652 0.31776 0.0
C1005 C 0.06495 0.87253 0.33984 0.0
C1006 C 0.10296 0.88453 0.23817 0.0
C1007 C 0.1012 0.91123 0.23468 0.0
C1008 C 0.08909 0.87212 0.25659 0.0
C1009 C 0.07311 0.88609 0.272 0.0
C1010 C 0.06999 0.91246 0.26737 0.0
C1011 C 0.08381 0.9249 0.24881 0.0
H1012 H 0.31815 0.34111 0.59288 0.0
H1013 H 0.38034 0.374 0.55219 0.0
H1014 H 0.29226 0.3763 0.57968 0.0
H1015 H 0.35408 0.40944 0.5387 0.0
H1016 H 0.30683 0.48351 0.5606 0.0
H1017 H 0.33476 0.44676 0.56045 0.0
H1018 H 0.2724 0.39582 0.54376 0.0
H1019 H 0.24459 0.43231 0.54447 0.0
C1020 C 0.32621 0.35568 0.5808 0.0
C1021 C 0.35135 0.35484 0.57374 0.0
C1022 C 0.31128 0.37578 0.57303 0.0
C1023 C 0.32111 0.39565 0.55808 0.0
C1024 C 0.34605 0.39445 0.5503 0.0
C1025 C 0.361 0.37409 0.55792 0.0
C1026 C 0.2993 0.46454 0.55625 0.0
C1027 C 0.27355 0.46059 0.55312 0.0
C1028 C 0.31526 0.44351 0.5561 0.0
C1029 C 0.30565 0.41834 0.55261 0.0
C1030 C 0.28024 0.41489 0.54711 0.0
C1031 C 0.26433 0.43577 0.54748 0.0
H1032 H 0.95186 0.56309 0.85523 0.0
H1033 H 0.91643 0.60554 0.79668 0.0
H1034 H 0.98821 0.59085 0.85228 0.0
H1035 H 0.95368 0.63323 0.79297 0.0
H1036 H 0.05128 0.64109 0.85117 0.0
H1037 H 0.02349 0.60848 0.83318 0.0
H1038 H 0.96904 0.66701 0.81886 0.0
H1039 H 0.99762 0.69967 0.83535 0.0
C1040 C 0.95216 0.57798 0.84117 0.0
C1041 C 0.93107 0.58252 0.82659 0.0
C1042 C 0.97325 0.59382 0.83923 0.0
C1043 C 0.97388 0.61462 0.82256 0.0
C1044 C 0.95364 0.61768 0.80632 0.0
C1045 C 0.93238 0.60171 0.80829 0.0
C1046 C 0.03369 0.647 0.84338 0.0
C1047 C 0.0263 0.6727 0.84505 0.0
C1048 C 0.0177 0.62834 0.83319 0.0
C1049 C 0.99366 0.63492 0.8253 0.0
C1050 C 0.98738 0.66113 0.82469 0.0
C1051 C 0.00369 0.67991 0.8343 0.0
H1052 H 0.20154 0.52031 0.06215 0.0
H1053 H 0.26143 0.57716 0.0625 0.0
H1054 H 0.17124 0.55481 0.06025 0.0
H1055 H 0.23128 0.61145 0.06026 0.0
H1056 H 0.12256 0.62288 0.04376 0.0
H1057 H 0.15446 0.59103 0.03612 0.0
H1058 H 0.20186 0.62791 0.09066 0.0
H1059 H 0.17024 0.65989 0.09815 0.0
C1060 C 0.20825 0.5401 0.06132 0.0
C1061 C 0.23384 0.546 0.06295 0.0
C1062 C 0.19091 0.55988 0.06015 0.0
C1063 C 0.19888 0.58588 0.06047 0.0
C1064 C 0.22454 0.59164 0.06053 0.0
C1065 C 0.2418 0.57196 0.06177 0.0
C1066 C 0.13995 0.62449 0.05385 0.0
C1067 C 0.14373 0.64389 0.07174 0.0
C1068 C 0.15815 0.6061 0.04956 0.0
C1069 C 0.18059 0.60683 0.0629 0.0
C1070 C 0.18486 0.62694 0.07989 0.0
C1071 C 0.16665 0.64524 0.08428 0.0
H1072 H 0.52285 0.79349 0.16564 0.0
H1073 H 0.55622 0.85046 0.11697 0.0
H1074 H 0.49505 0.82605 0.18205 0.0
H1075 H 0.52844 0.88258 0.13292 0.0
H1076 H 0.47856 0.93881 0.15545 0.0
H1077 H 0.51211 0.90932 0.16487 0.0
H1078 H 0.45943 0.84532 0.16197 0.0
H1079 H 0.42592 0.87511 0.15364 0.0
C1080 C 0.52469 0.81307 0.15886 0.0
C1081 C 0.54138 0.81927 0.13958 0.0
C1082 C 0.50871 0.83169 0.16825 0.0
C1083 C 0.50928 0.85687 0.15867 0.0
C1084 C 0.52755 0.8635 0.14099 0.0
C1085 C 0.54337 0.84494 0.13156 0.0
C1086 C 0.47405 0.91858 0.15827 0.0
C1087 C 0.44985 0.90905 0.15375 0.0
C1088 C 0.49326 0.90165 0.16338 0.0
C1089 C 0.4886 0.87489 0.16335 0.0
C1090 C 0.46373 0.86578 0.16212 0.0
C1091 C 0.44444 0.88283 0.15739 0.0
H1092 H 0.31083 0.17403 0.90427 0.0
H1093 H 0.3704 0.13757 0.94414 0.0
H1094 H 0.28413 0.13656 0.91126 0.0
H1095 H 0.34327 0.09995 0.95154 0.0
H1096 H 0.29764 0.02697 0.92296 0.0
H1097 H 0.32523 0.06497 0.9257 0.0
H1098 H 0.26192 0.11208 0.94257 0.0
H1099 H 0.23451 0.07443 0.93923 0.0
C1100 C 0.31813 0.15817 0.91488 0.0
C1101 C 0.34283 0.15876 0.92349 0.0
C1102 C 0.30272 0.13671 0.91905 0.0
C1103 C 0.31159 0.11523 0.93193 0.0
C1104 C 0.336 0.11612 0.94135 0.0
C1105 C 0.35146 0.13774 0.93727 0.0
C1106 C 0.28975 0.0454 0.92758 0.0
C1107 C 0.26388 0.04787 0.93033 0.0
C1108 C 0.30553 0.06714 0.92929 0.0
C1109 C 0.29569 0.09161 0.93398 0.0
C1110 C 0.27001 0.09363 0.93835 0.0
C1111 C 0.2543 0.07205 0.93644 0.0
H1112 H 0.49331 0.21632 0.40884 0.0
H1113 H 0.47726 0.2412 0.48331 0.0
H1114 H 0.5309 0.19617 0.4232 0.0
H1115 H 0.5147 0.22005 0.49797 0.0
H1116 H 0.60151 0.21834 0.50224 0.0
H1117 H 0.55806 0.22822 0.49571 0.0
H1118 H 0.55071 0.16361 0.44564 0.0
H1119 H 0.59467 0.1544 0.45138 0.0
C1120 C 0.49752 0.21705 0.42841 0.0
C1121 C 0.4824 0.23075 0.44484 0.0
C1122 C 0.51908 0.20522 0.43674 0.0
C1123 C 0.52603 0.20648 0.4618 0.0
C1124 C 0.51019 0.21904 0.47848 0.0
C1125 C 0.48867 0.23112 0.47008 0.0
C1126 C 0.59053 0.20581 0.49029 0.0
C1127 C 0.60176 0.18589 0.47693 0.0
C1128 C 0.56545 0.21145 0.4866 0.0
C1129 C 0.5509 0.1971 0.46969 0.0
C1130 C 0.56154 0.17558 0.45822 0.0
C1131 C 0.58672 0.17014 0.46167 0.0
H1132 H 0.72682 0.99903 0.72267 0.0
H1133 H 0.6611 0.00565 0.76798 0.0
H1134 H 0.75189 0.01938 0.75503 0.0
H1135 H 0.68619 0.02448 0.80103 0.0
H1136 H 0.7332 0.05819 0.85941 0.0
H1137 H 0.71141 0.05596 0.8199 0.0
H1138 H 0.76746 0.0047 0.79204 0.0
H1139 H 0.78965 0.00799 0.83066 0.0
C1140 C 0.71774 0.00505 0.73955 0.0
C1141 C 0.69213 1.00043 0.74303 0.0
C1142 C 0.7321 0.01659 0.75818 0.0
C1143 C 0.72129 0.02312 0.78101 0.0
C1144 C 0.69528 0.02001 0.78373 0.0
C1145 C 0.68083 0.00902 0.76483 0.0
C1146 C 0.74123 0.04706 0.84457 0.0
C1147 C 0.76294 0.03284 0.84846 0.0
C1148 C 0.72858 0.04557 0.82195 0.0
C1149 C 0.73724 0.02965 0.80282 0.0
C1150 C 0.76013 0.01731 0.80609 0.0
C1151 C 0.77288 0.01905 0.82851 0.0
H1152 H 0.32096 0.63179 0.35094 0.0
H1153 H 0.36104 0.61257 0.4176 0.0
H1154 H 0.3087 0.67239 0.36957 0.0
H1155 H 0.34923 0.65326 0.43588 0.0
H1156 H 0.31174 0.72022 0.47012 0.0
H1157 H 0.31488 0.67774 0.45158 0.0
H1158 H 0.32979 0.71279 0.38051 0.0
H1159 H 0.3261 0.75543 0.39896 0.0
C1160 C 0.327 0.63608 0.36962 0.0
C1161 C 0.34216 0.61895 0.3827 0.0
C1162 C 0.32007 0.65943 0.38022 0.0
C1163 C 0.3281 0.66613 0.40413 0.0
C1164 C 0.34246 0.64857 0.41753 0.0
C1165 C 0.34937 0.62526 0.40696 0.0
C1166 C 0.31545 0.71891 0.45047 0.0
C1167 C 0.31901 0.74124 0.43605 0.0
C1168 C 0.31732 0.69453 0.43988 0.0
C1169 C 0.3229 0.69188 0.41465 0.0
C1170 C 0.32527 0.71417 0.39997 0.0
C1171 C 0.32327 0.73862 0.41056 0.0
H1172 H 0.17319 0.02121 0.24599 0.0
H1173 H 0.2255 0.95896 0.24346 0.0
H1174 H 0.19844 0.04249 0.27778 0.0
H1175 H 0.25002 0.97956 0.27559 0.0
H1176 H 0.29721 0.02051 0.32793 0.0
H1177 H 0.27676 0.01361 0.28822 0.0
H1178 H 0.20666 0.03599 0.32033 0.0
H1179 H 0.22728 0.04399 0.35953 0.0
C1180 C 0.19008 0.01209 0.25214 0.0
C1181 C 0.19711 0.9882 0.24236 0.0
C1182 C 0.20455 0.02428 0.2704 0.0
C1183 C 0.22629 0.01279 0.27938 0.0
C1184 C 0.2337 0.98934 0.26891 0.0
C1185 C 0.2194 0.97729 0.25059 0.0
C1186 C 0.27759 0.02472 0.32628 0.0
C1187 C 0.26379 0.03229 0.34703 0.0
C1188 C 0.2658 0.02054 0.30357 0.0
C1189 C 0.23989 0.02345 0.30122 0.0
C1190 C 0.22662 0.03352 0.32134 0.0
C1191 C 0.23849 0.03807 0.34395 0.0
H1192 H 0.80998 0.62338 0.8486 0.0
H1193 H 0.85299 0.60736 0.91424 0.0
H1194 H 0.79686 0.66392 0.86683 0.0
H1195 H 0.84032 0.64793 0.93208 0.0
H1196 H 0.81213 0.74833 0.89456 0.0
H1197 H 0.81638 0.70554 0.87651 0.0
H1198 H 0.8057 0.67122 0.94859 0.0
H1199 H 0.80204 0.71383 0.96669 0.0
C1200 C 0.81648 0.62834 0.86698 0.0
C1201 C 0.8327 0.61211 0.87988 0.0
C1202 C 0.80906 0.65167 0.87735 0.0
C1203 C 0.81761 0.65924 0.90086 0.0
C1204 C 0.8331 0.64258 0.91407 0.0
C1205 C 0.84052 0.61932 0.90373 0.0
C1206 C 0.8103 0.73163 0.90647 0.0
C1207 C 0.80714 0.73454 0.9321 0.0
C1208 C 0.81264 0.70708 0.89612 0.0
C1209 C 0.81172 0.68497 0.91117 0.0
C1210 C 0.80707 0.68787 0.93656 0.0
C1211 C 0.80487 0.71234 0.94691 0.0
H1212 H 0.88732 0.66815 0.5413 0.0
H1213 H 0.89181 0.7253 0.48333 0.0
H1214 H 0.93145 0.67508 0.55012 0.0
H1215 H 0.93553 0.733 0.49277 0.0
H1216 H 0.01686 0.7394 0.50969 0.0
H1217 H 0.97769 0.7205 0.49475 0.0
H1218 H 0.95365 0.7086 0.57024 0.0
H1219 H 0.99288 0.72653 0.58503 0.0
C1220 C 0.8978 0.68194 0.53021 0.0
C1221 C 0.88593 0.69644 0.51186 0.0
C1222 C 0.92308 0.68607 0.53538 0.0
C1223 C 0.93701 0.70503 0.52255 0.0
C1224 C 0.92554 0.71814 0.50298 0.0
C1225 C 0.90033 0.71378 0.4976 0.0
C1226 C 0.00331 0.73244 0.52307 0.0
C1227 C 0.00793 0.73476 0.54858 0.0
C1228 C 0.9808 0.72167 0.5145 0.0
C1229 C 0.96234 0.71313 0.53124 0.0
C1230 C 0.96748 0.71453 0.55672 0.0
C1231 C 0.99 0.72507 0.56526 0.0
H1232 H 0.00283 0.27524 0.96187 0.0
H1233 H 0.98391 0.2089 0.91704 0.0
H1234 H 0.04093 0.2546 0.9751 0.0
H1235 H 0.02131 0.18758 0.9312 0.0
H1236 H 0.10664 0.18003 0.92794 0.0
H1237 H 0.06365 0.19182 0.92249 0.0
H1238 H 0.06233 0.22253 0.99679 0.0
H1239 H 0.10602 0.21169 0.00184 0.0
C1240 C 0.00654 0.25596 0.95533 0.0
C1241 C 0.99066 0.24388 0.93808 0.0
C1242 C 0.02832 0.24399 0.96305 0.0
C1243 C 0.03447 0.21946 0.95401 0.0
C1244 C 0.01759 0.20672 0.93806 0.0
C1245 C 0.99608 0.21889 0.93 0.0
C1246 C 0.09712 0.18879 0.94337 0.0
C1247 C 0.10999 0.19528 0.96519 0.0
C1248 C 0.07226 0.19549 0.94028 0.0
C1249 C 0.05946 0.20853 0.95907 0.0
C1250 C 0.07175 0.21311 0.98168 0.0
C1251 C 0.09677 0.20667 0.98466 0.0
H1252 H 0.82737 0.16509 0.40011 0.0
H1253 H 0.87996 0.12732 0.44782 0.0
H1254 H 0.79735 0.13016 0.40691 0.0
H1255 H 0.84962 0.09223 0.45471 0.0
H1256 H 0.74062 0.07545 0.43801 0.0
H1257 H 0.77113 0.11062 0.43982 0.0
H1258 H 0.83039 0.05677 0.4286 0.0
H1259 H 0.79977 0.02128 0.42688 0.0
C1260 C 0.83245 0.14947 0.41227 0.0
C1261 C 0.85611 0.14901 0.42336 0.0
C1262 C 0.81515 0.1295 0.41629 0.0
C1263 C 0.82111 0.10845 0.43137 0.0
C1264 C 0.84458 0.10814 0.44288 0.0
C1265 C 0.86186 0.12832 0.43906 0.0
C1266 C 0.76016 0.07099 0.43614 0.0
C1267 C 0.76772 0.04557 0.43182 0.0
C1268 C 0.77763 0.09119 0.43716 0.0
C1269 C 0.80311 0.08652 0.43396 0.0
C1270 C 0.81088 0.06095 0.4312 0.0
C1271 C 0.79333 0.04063 0.43015 0.0
H1272 H 0.55912 0.61731 0.63431 0.0
H1273 H 0.58301 0.66985 0.69184 0.0
H1274 H 0.55642 0.58239 0.66449 0.0
H1275 H 0.57932 0.63538 0.7222 0.0
H1276 H 0.5489 0.52395 0.72626 0.0
H1277 H 0.53961 0.5616 0.70102 0.0
H1278 H 0.60598 0.60013 0.72884 0.0
H1279 H 0.61484 0.56317 0.75434 0.0
C1280 C 0.56284 0.6216 0.65357 0.0
C1281 C 0.57161 0.64614 0.66071 0.0
C1282 C 0.5613 0.60159 0.67091 0.0
C1283 C 0.56825 0.60593 0.6957 0.0
C1284 C 0.57456 0.63118 0.70314 0.0
C1285 C 0.57646 0.65099 0.6858 0.0
C1286 C 0.56132 0.54061 0.7272 0.0
C1287 C 0.58273 0.54042 0.74224 0.0
C1288 C 0.55603 0.56215 0.71265 0.0
C1289 C 0.57199 0.58395 0.71289 0.0
C1290 C 0.59295 0.58394 0.72849 0.0
C1291 C 0.59819 0.56254 0.74301 0.0
H1292 H 0.49725 0.71633 0.10564 0.0
H1293 H 0.52092 0.73247 0.0308 0.0
H1294 H 0.45704 0.70121 0.09046 0.0
H1295 H 0.48091 0.71628 0.0154 0.0
H1296 H 0.38839 0.66571 0.05882 0.0
H1297 H 0.4325 0.67056 0.06889 0.0
H1298 H 0.43984 0.73121 0.01446 0.0
H1299 H 0.39625 0.72563 0.00375 0.0
C1300 C 0.49408 0.71611 0.08587 0.0
C1301 C 0.51218 0.72598 0.06947 0.0
C1302 C 0.47099 0.70723 0.0771 0.0
C1303 C 0.46552 0.70767 0.05166 0.0
C1304 C 0.48421 0.71617 0.03515 0.0
C1305 C 0.50722 0.72536 0.04396 0.0
C1306 C 0.39956 0.67974 0.04869 0.0
C1307 C 0.38868 0.69546 0.03066 0.0
C1308 C 0.42484 0.68265 0.05458 0.0
C1309 C 0.43977 0.70156 0.04278 0.0
C1310 C 0.42913 0.71626 0.0238 0.0
C1311 C 0.40397 0.71314 0.01772 0.0
H1312 H 0.50638 0.78454 0.4071 0.0
H1313 H 0.52256 0.75946 0.48147 0.0
H1314 H 0.46928 0.80545 0.42171 0.0
H1315 H 0.48569 0.78144 0.49641 0.0
H1316 H 0.40602 0.84771 0.44992 0.0
H1317 H 0.4499 0.83817 0.44406 0.0
H1318 H 0.44238 0.77401 0.49465 0.0
H1319 H 0.3991 0.78428 0.50135 0.0
C1320 C 0.50231 0.78394 0.42671 0.0
C1321 C 0.51726 0.76994 0.44304 0.0
C1322 C 0.48105 0.79621 0.43519 0.0
C1323 C 0.47429 0.79513 0.4603 0.0
C1324 C 0.49003 0.7823 0.47688 0.0
C1325 C 0.51121 0.76973 0.46833 0.0
C1326 C 0.41394 0.83201 0.4603 0.0
C1327 C 0.3989 0.81648 0.47574 0.0
C1328 C 0.43907 0.82639 0.45679 0.0
C1329 C 0.44962 0.80487 0.46834 0.0
C1330 C 0.43508 0.79078 0.48545 0.0
C1331 C 0.41007 0.79663 0.48923 0.0
H1332 H 0.76482 0.92716 0.93846 0.0
H1333 H 0.70227 0.97665 0.92597 0.0
H1334 H 0.73673 0.89001 0.94127 0.0
H1335 H 0.67399 0.93917 0.9284 0.0
H1336 H 0.62842 0.8669 0.94802 0.0
H1337 H 0.65667 0.90372 0.95467 0.0
H1338 H 0.71234 0.86726 0.90965 0.0
H1339 H 0.68443 0.8305 0.90321 0.0
C1340 C 0.74502 0.93012 0.93643 0.0
C1341 C 0.7358 0.95476 0.93152 0.0
C1342 C 0.72893 0.90881 0.93802 0.0
C1343 C 0.7032 0.91159 0.93465 0.0
C1344 C 0.69375 0.93644 0.93117 0.0
C1345 C 0.70993 0.95788 0.92968 0.0
C1346 C 0.64684 0.86656 0.93986 0.0
C1347 C 0.65412 0.84576 0.92498 0.0
C1348 C 0.66292 0.88775 0.94354 0.0
C1349 C 0.68668 0.88843 0.93264 0.0
C1350 C 0.69426 0.86721 0.91855 0.0
C1351 C 0.67818 0.84617 0.91474 0.0
H1352 H 0.73061 0.42557 0.62072 0.0
H1353 H 0.76544 0.48963 0.65934 0.0
H1354 H 0.70399 0.4171 0.65642 0.0
H1355 H 0.7383 0.48192 0.69441 0.0
H1356 H 0.69149 0.463 0.7587 0.0
H1357 H 0.7243 0.45764 0.72816 0.0
H1358 H 0.66878 0.43681 0.67338 0.0
H1359 H 0.63621 0.44098 0.70428 0.0
C1360 C 0.73285 0.43763 0.63695 0.0
C1361 C 0.74998 0.45849 0.63701 0.0
C1362 C 0.71743 0.4329 0.65737 0.0
C1363 C 0.71858 0.44906 0.67825 0.0
C1364 C 0.73692 0.46883 0.67888 0.0
C1365 C 0.75251 0.47337 0.6586 0.0
C1366 C 0.68638 0.45675 0.74024 0.0
C1367 C 0.66123 0.4527 0.73382 0.0
C1368 C 0.70519 0.45384 0.72265 0.0
C1369 C 0.69928 0.44727 0.69808 0.0
C1370 C 0.6742 0.44166 0.69211 0.0
C1371 C 0.65541 0.44416 0.70983 0.0
H1372 H 0.33528 0.89248 0.11934 0.0
H1373 H 0.36905 0.89336 0.04673 0.0
H1374 H 0.31116 0.85389 0.10812 0.0
H1375 H 0.34526 0.85486 0.03577 0.0
H1376 H 0.29641 0.7912 0.01521 0.0
H1377 H 0.30429 0.8355 0.02813 0.0
H1378 H 0.32384 0.80887 0.10117 0.0
H1379 H 0.31536 0.76445 0.08834 0.0
C1380 C 0.33725 0.88476 0.10085 0.0
C1381 C 0.35437 0.89582 0.08401 0.0
C1382 C 0.32349 0.8626 0.09451 0.0
C1383 C 0.32638 0.85127 0.07114 0.0
C1384 C 0.34234 0.86327 0.05384 0.0
C1385 C 0.35618 0.88527 0.0602 0.0
C1386 C 0.30173 0.79487 0.03424 0.0
C1387 C 0.30577 0.7744 0.05068 0.0
C1388 C 0.30631 0.82023 0.04159 0.0
C1389 C 0.31524 0.8256 0.06546 0.0
C1390 C 0.31692 0.80534 0.08264 0.0
C1391 C 0.31211 0.77988 0.07531 0.0
H1392 H 0.31114 0.51051 0.74708 0.0
H1393 H 0.35683 0.57393 0.72001 0.0
H1394 H 0.28115 0.51788 0.7148 0.0
H1395 H 0.32584 0.5823 0.68813 0.0
H1396 H 0.22539 0.53467 0.65877 0.0
H1397 H 0.25024 0.54134 0.69601 0.0
H1398 H 0.31366 0.56349 0.6509 0.0
H1399 H 0.28847 0.55833 0.61407 0.0
C1400 C 0.31455 0.52649 0.73458 0.0
C1401 C 0.3367 0.54134 0.73595 0.0
C1402 C 0.29707 0.53093 0.71607 0.0
C1403 C 0.30099 0.55061 0.69855 0.0
C1404 C 0.3224 0.56658 0.70091 0.0
C1405 C 0.34013 0.5619 0.7193 0.0
C1406 C 0.24447 0.54157 0.65691 0.0
C1407 C 0.25503 0.54557 0.63343 0.0
C1408 C 0.25883 0.5452 0.67825 0.0
C1409 C 0.28424 0.55235 0.67659 0.0
C1410 C 0.29419 0.55816 0.65313 0.0
C1411 C 0.27971 0.55502 0.63186 0.0
H1412 H 0.6523 0.11656 0.13089 0.0
H1413 H 0.65829 0.08436 0.05759 0.0
H1414 H 0.66857 0.15753 0.11594 0.0
H1415 H 0.67651 0.12485 0.0428 0.0
H1416 H 0.66494 0.20718 0.01758 0.0
H1417 H 0.66044 0.16386 0.03276 0.0
H1418 H 0.69825 0.18599 0.10041 0.0
H1419 H 0.70136 0.2304 0.08551 0.0
C1420 C 0.65788 0.11803 0.11168 0.0
C1421 C 0.65357 0.09745 0.09526 0.0
C1422 C 0.66743 0.14157 0.10309 0.0
C1423 C 0.67345 0.14488 0.07797 0.0
C1424 C 0.67125 0.12341 0.06208 0.0
C1425 C 0.66101 0.10009 0.07054 0.0
C1426 C 0.67255 0.20291 0.03564 0.0
C1427 C 0.68327 0.22242 0.05046 0.0
C1428 C 0.67022 0.17776 0.0443 0.0
C1429 C 0.67898 0.17112 0.0679 0.0
C1430 C 0.69083 0.1904 0.08232 0.0
C1431 C 0.69275 0.21586 0.07378 0.0
H1432 H 0.47361 0.25495 0.0265 0.0
H1433 H 0.49672 0.2737 0.101 0.0
H1434 H 0.51251 0.2736 0.01065 0.0
H1435 H 0.53572 0.29138 0.08536 0.0
H1436 H 0.60119 0.33161 0.05421 0.0
H1437 H 0.5572 0.32402 0.06325 0.0
H1438 H 0.55501 0.26215 0.00975 0.0
H1439 H 0.59858 0.27045 4e-05 0.0
C1440 C 0.48692 0.26313 0.03949 0.0
C1441 C 0.48212 0.26258 0.06505 0.0
C1442 C 0.50928 0.27375 0.03041 0.0
C1443 C 0.52742 0.28391 0.04669 0.0
C1444 C 0.52212 0.28418 0.07216 0.0
C1445 C 0.49974 0.27379 0.0812 0.0
C1446 C 0.59115 0.31679 0.04397 0.0
C1447 C 0.60351 0.30141 0.02665 0.0
C1448 C 0.56595 0.31229 0.04929 0.0
C1449 C 0.5526 0.29208 0.03765 0.0
C1450 C 0.56454 0.27798 0.01902 0.0
C1451 C 0.58966 0.28269 0.01348 0.0
H1452 H 0.46683 0.30576 0.34096 0.0
H1453 H 0.46566 0.35501 0.40541 0.0
H1454 H 0.4947 0.33656 0.32026 0.0
H1455 H 0.49395 0.38505 0.38526 0.0
H1456 H 0.57494 0.37485 0.31585 0.0
H1457 H 0.53745 0.34896 0.32388 0.0
H1458 H 0.50181 0.41588 0.35444 0.0
H1459 H 0.53986 0.4412 0.34763 0.0
C1460 C 0.47233 0.32323 0.35065 0.0
C1461 C 0.4642 0.32775 0.37498 0.0
C1462 C 0.48837 0.34085 0.33879 0.0
C1463 C 0.49672 0.3633 0.35105 0.0
C1464 C 0.48764 0.36828 0.37495 0.0
C1465 C 0.47151 0.35083 0.38669 0.0
C1466 C 0.55876 0.38415 0.32349 0.0
C1467 C 0.56031 0.40985 0.33142 0.0
C1468 C 0.53721 0.36934 0.32812 0.0
C1469 C 0.51677 0.38015 0.34044 0.0
C1470 C 0.51746 0.4067 0.34567 0.0
C1471 C 0.53914 0.42131 0.34153 0.0
H1472 H 0.41619 0.14096 0.85731 0.0
H1473 H 0.41268 0.20968 0.81282 0.0
H1474 H 0.41427 0.11454 0.82002 0.0
H1475 H 0.41241 0.18359 0.77537 0.0
H1476 H 0.36035 0.13324 0.72765 0.0
H1477 H 0.37864 0.16001 0.75944 0.0
H1478 H 0.42682 0.09802 0.78082 0.0
H1479 H 0.4076 0.07054 0.74912 0.0
C1480 C 0.41632 0.15039 0.83944 0.0
C1481 C 0.41439 0.17724 0.83782 0.0
C1482 C 0.41521 0.13528 0.81801 0.0
C1483 C 0.41249 0.14689 0.79463 0.0
C1484 C 0.41366 0.17395 0.79307 0.0
C1485 C 0.41416 0.18895 0.81447 0.0
C1486 C 0.37507 0.12527 0.73883 0.0
C1487 C 0.38217 0.09953 0.73601 0.0
C1488 C 0.38586 0.14084 0.75702 0.0
C1489 C 0.4043 0.13127 0.77286 0.0
C1490 C 0.41246 0.10594 0.76917 0.0
C1491 C 0.40152 0.09022 0.75091 0.0
H1492 H 0.92055 0.43329 0.27112 0.0
H1493 H 0.92816 0.48485 0.20898 0.0
H1494 H 0.93223 0.39721 0.24507 0.0
H1495 H 0.93793 0.44863 0.18223 0.0
H1496 H 0.95668 0.3806 0.13665 0.0
H1497 H 0.96175 0.41474 0.16747 0.0
H1498 H 0.91122 0.37321 0.21619 0.0
H1499 H 0.90747 0.33898 0.18647 0.0
C1500 C 0.9248 0.43682 0.25182 0.0
C1501 C 0.92313 0.46165 0.24189 0.0
C1502 C 0.93135 0.41616 0.23679 0.0
C1503 C 0.93543 0.41973 0.21127 0.0
C1504 C 0.93515 0.44499 0.20175 0.0
C1505 C 0.92934 0.46579 0.21701 0.0
C1506 C 0.94725 0.37853 0.15425 0.0
C1507 C 0.93135 0.35723 0.15886 0.0
C1508 C 0.94993 0.39823 0.17186 0.0
C1509 C 0.93663 0.39709 0.19432 0.0
C1510 C 0.9221 0.37489 0.19941 0.0
C1511 C 0.91968 0.35521 0.18207 0.0
H1512 H 0.07343 0.09107 0.63193 0.0
H1513 H 0.01976 0.05909 0.58039 0.0
H1514 H 0.04136 0.1191 0.6487 0.0
H1515 H 0.9885 0.08737 0.59585 0.0
H1516 H 0.93425 0.14145 0.61582 0.0
H1517 H 0.96088 0.10464 0.62286 0.0
H1518 H 0.02384 0.15672 0.63403 0.0
H1519 H 0.99663 0.19317 0.62914 0.0
C1520 C 0.0547 0.08969 0.62454 0.0
C1521 C 0.04926 0.0735 0.60439 0.0
C1522 C 0.03634 0.10587 0.63397 0.0
C1523 C 0.01234 0.1061 0.62333 0.0
C1524 C 0.00653 0.08793 0.6048 0.0
C1525 C 0.02469 0.07183 0.59557 0.0
C1526 C 0.95361 0.14486 0.6207 0.0
C1527 C 0.96356 0.17 0.62154 0.0
C1528 C 0.96898 0.12382 0.62452 0.0
C1529 C 0.99482 0.12754 0.62806 0.0
C1530 C 0.00413 0.15287 0.63137 0.0
C1531 C 0.98855 0.17389 0.62841 0.0
H1532 H 0.63094 0.87397 0.73288 0.0
H1533 H 0.58437 0.93711 0.75466 0.0
H1534 H 0.61253 0.84732 0.76477 0.0
H1535 H 0.56515 0.90982 0.78653 0.0
H1536 H 0.57718 0.86638 0.86292 0.0
H1537 H 0.57863 0.89304 0.82574 0.0
H1538 H 0.57793 0.82427 0.7806 0.0
H1539 H 0.57798 0.7979 0.81786 0.0
C1540 C 0.61638 0.88206 0.74418 0.0
C1541 C 0.60946 0.90786 0.74139 0.0
C1542 C 0.60551 0.86658 0.76239 0.0
C1543 C 0.58727 0.87635 0.77834 0.0
C1544 C 0.57932 0.90176 0.77474 0.0
C1545 C 0.59027 0.91735 0.7564 0.0
C1546 C 0.57634 0.85708 0.845 0.0
C1547 C 0.57769 0.8302 0.84313 0.0
C1548 C 0.57719 0.87232 0.82364 0.0
C1549 C 0.5791 0.86081 0.80014 0.0
C1550 C 0.57727 0.83379 0.7984 0.0
C1551 C 0.57698 0.81864 0.8197 0.0
H1552 H 0.45867 0.56469 0.36598 0.0
H1553 H 0.43258 0.61236 0.30624 0.0
H1554 H 0.49535 0.59155 0.37012 0.0
H1555 H 0.47066 0.6388 0.30922 0.0
H1556 H 0.51173 0.70241 0.3551 0.0
H1557 H 0.48392 0.67063 0.33633 0.0
H1558 H 0.5327 0.60997 0.36014 0.0
H1559 H 0.55935 0.64193 0.38065 0.0
C1560 C 0.46118 0.58055 0.35312 0.0
C1561 C 0.44234 0.58684 0.33625 0.0
C1562 C 0.48256 0.59594 0.3553 0.0
C1563 C 0.48597 0.61791 0.34038 0.0
C1564 C 0.46837 0.62254 0.32158 0.0
C1565 C 0.44666 0.60719 0.31961 0.0
C1566 C 0.51663 0.68228 0.356 0.0
C1567 C 0.53733 0.67453 0.3698 0.0
C1568 C 0.50079 0.66396 0.34498 0.0
C1569 C 0.50563 0.63747 0.34703 0.0
C1570 C 0.52777 0.63005 0.35888 0.0
C1571 C 0.54318 0.64834 0.37054 0.0
H1572 H 0.69552 0.5182 0.56365 0.0
H1573 H 0.75707 0.5713 0.55059 0.0
H1574 H 0.66685 0.55434 0.56404 0.0
H1575 H 0.72856 0.60717 0.55069 0.0
H1576 H 0.67886 0.6597 0.59869 0.0
H1577 H 0.70638 0.62528 0.58658 0.0
H1578 H 0.64804 0.59162 0.54128 0.0
H1579 H 0.62023 0.62615 0.55352 0.0
C1580 C 0.70279 0.53747 0.5602 0.0
C1581 C 0.72853 0.54204 0.55766 0.0
C1582 C 0.68642 0.55815 0.56038 0.0
C1583 C 0.69559 0.58361 0.55787 0.0
C1584 C 0.72106 0.58783 0.55323 0.0
C1585 C 0.73735 0.56728 0.55316 0.0
C1586 C 0.67195 0.64518 0.5859 0.0
C1587 C 0.64731 0.64561 0.5772 0.0
C1588 C 0.68779 0.62554 0.57881 0.0
C1589 C 0.67934 0.60575 0.56297 0.0
C1590 C 0.65496 0.60655 0.55362 0.0
C1591 C 0.63914 0.62641 0.56053 0.0
H1592 H 0.01585 0.81581 0.63757 0.0
H1593 H 0.04779 0.86321 0.57953 0.0
H1594 H 0.98732 0.85024 0.64797 0.0
H1595 H 0.01911 0.89699 0.58935 0.0
H1596 H 0.96852 0.95679 0.6052 0.0
H1597 H 0.00314 0.92904 0.61557 0.0
H1598 H 0.95103 0.86555 0.62699 0.0
H1599 H 0.91651 0.89394 0.61782 0.0
C1600 C 0.01716 0.83372 0.62735 0.0
C1601 C 0.0338 0.83655 0.60738 0.0
C1602 C 0.00071 0.85341 0.63325 0.0
C1603 C 0.00066 0.87631 0.61936 0.0
C1604 C 0.01868 0.87981 0.60071 0.0
C1605 C 0.03505 0.86022 0.59484 0.0
C1606 C 0.96455 0.93721 0.61106 0.0
C1607 C 0.94006 0.92735 0.61072 0.0
C1608 C 0.98432 0.92121 0.61675 0.0
C1609 C 0.97996 0.89485 0.62144 0.0
C1610 C 0.95514 0.88573 0.62357 0.0
C1611 C 0.9353 0.90195 0.61832 0.0
H1612 H 0.05469 0.60643 0.12844 0.0
H1613 H 0.07419 0.66545 0.18165 0.0
H1614 H 0.05462 0.57415 0.16128 0.0
H1615 H 0.07325 0.6335 0.21458 0.0
H1616 H 0.04996 0.52133 0.22766 0.0
H1617 H 0.03848 0.5559 0.19951 0.0
H1618 H 0.1025 0.60082 0.22388 0.0
H1619 H 0.11359 0.56683 0.25224 0.0
C1620 C 0.0581 0.61262 0.14728 0.0
C1621 C 0.06486 0.63832 0.15245 0.0
C1622 C 0.05804 0.59415 0.16613 0.0
C1623 C 0.06449 0.60116 0.19049 0.0
C1624 C 0.06891 0.62733 0.19591 0.0
C1625 C 0.06928 0.64567 0.17708 0.0
C1626 C 0.06141 0.53873 0.22721 0.0
C1627 C 0.08284 0.54119 0.24211 0.0
C1628 C 0.05485 0.5585 0.211 0.0
C1629 C 0.06954 0.58115 0.2094 0.0
C1630 C 0.09047 0.58387 0.2249 0.0
C1631 C 0.09699 0.5642 0.24106 0.0
H1632 H 0.19211 0.48074 0.34831 0.0
H1633 H 0.20056 0.55037 0.30511 0.0
H1634 H 0.23574 0.48448 0.36087 0.0
H1635 H 0.24399 0.55427 0.31792 0.0
H1636 H 0.30881 0.5151 0.39633 0.0
H1637 H 0.2648 0.51129 0.38536 0.0
H1638 H 0.28275 0.53146 0.30987 0.0
H1639 H 0.32673 0.53561 0.32092 0.0
C1640 C 0.20317 0.49702 0.34177 0.0
C1641 C 0.1929 0.51522 0.32567 0.0
C1642 C 0.22816 0.49918 0.34899 0.0
C1643 C 0.24339 0.51953 0.34018 0.0
C1644 C 0.23288 0.53811 0.32465 0.0
C1645 C 0.20792 0.53599 0.3175 0.0
C1646 C 0.30337 0.51856 0.37736 0.0
C1647 C 0.32123 0.52568 0.35949 0.0
C1648 C 0.27816 0.51631 0.37107 0.0
C1649 C 0.27025 0.52122 0.34679 0.0
C1650 C 0.2882 0.52795 0.32884 0.0
C1651 C 0.31342 0.53012 0.33511 0.0
H1652 H 0.67335 0.27307 0.55203 0.0
H1653 H 0.74285 0.25874 0.51472 0.0
H1654 H 0.68715 0.3172 0.5604 0.0
H1655 H 0.75639 0.30307 0.52242 0.0
H1656 H 0.7802 0.38123 0.55381 0.0
H1657 H 0.7688 0.33562 0.55137 0.0
H1658 H 0.69248 0.35562 0.53638 0.0
H1659 H 0.70379 0.4012 0.53957 0.0
C1660 C 0.69177 0.2792 0.546 0.0
C1661 C 0.70697 0.26238 0.53266 0.0
C1662 C 0.69957 0.30463 0.55051 0.0
C1663 C 0.7227 0.31393 0.54167 0.0
C1664 C 0.73851 0.29662 0.52962 0.0
C1665 C 0.73076 0.27112 0.52524 0.0
C1666 C 0.76099 0.37589 0.54995 0.0
C1667 C 0.7429 0.39487 0.54684 0.0
C1668 C 0.75446 0.3497 0.5485 0.0
C1669 C 0.72968 0.34182 0.54382 0.0
C1670 C 0.71165 0.36089 0.54053 0.0
C1671 C 0.71817 0.38707 0.54209 0.0
H1672 H 0.81387 0.95967 0.65507 0.0
H1673 H 0.80123 0.01576 0.59765 0.0
H1674 H 0.76995 0.96102 0.66651 0.0
H1675 H 0.75719 0.01707 0.60918 0.0
H1676 H 0.68782 0.9417 0.65462 0.0
H1677 H 0.7316 0.94542 0.64336 0.0
H1678 H 0.72715 0.02834 0.64469 0.0
H1679 H 0.68298 0.02466 0.65629 0.0
C1680 C 0.80184 0.97262 0.64517 0.0
C1681 C 0.81102 0.98747 0.62535 0.0
C1682 C 0.77663 0.97324 0.65159 0.0
C1683 C 0.76008 0.98887 0.63848 0.0
C1684 C 0.76951 0.00485 0.6196 0.0
C1685 C 0.79472 0.00406 0.613 0.0
C1686 C 0.69603 0.96077 0.65229 0.0
C1687 C 0.68196 0.98289 0.65652 0.0
C1688 C 0.72119 0.96288 0.64604 0.0
C1689 C 0.73291 0.98716 0.64364 0.0
C1690 C 0.71859 0.00937 0.64653 0.0
C1691 C 0.69331 0.00726 0.65304 0.0
H1692 H 0.2955 0.90758 0.92064 0.0
H1693 H 0.22483 0.88501 0.95273 0.0
H1694 H 0.30895 0.86307 0.92237 0.0
H1695 H 0.23867 0.84085 0.95617 0.0
H1696 H 0.2612 0.75928 0.94834 0.0
H1697 H 0.24753 0.80235 0.93738 0.0
H1698 H 0.3227 0.83178 0.94833 0.0
H1699 H 0.33639 0.78875 0.95744 0.0
C1700 C 0.28298 0.89309 0.92839 0.0
C1701 C 0.25918 0.89977 0.93665 0.0
C1702 C 0.29069 0.8675 0.9295 0.0
C1703 C 0.27501 0.84801 0.93947 0.0
C1704 C 0.25117 0.85493 0.9478 0.0
C1705 C 0.24328 0.8804 0.94614 0.0
C1706 C 0.27487 0.77489 0.94764 0.0
C1707 C 0.29987 0.77053 0.9537 0.0
C1708 C 0.26699 0.79974 0.94176 0.0
C1709 C 0.28383 0.82095 0.94236 0.0
C1710 C 0.30909 0.81618 0.94726 0.0
C1711 C 0.31701 0.79131 0.95258 0.0
H1712 H 0.19264 0.49619 0.89862 0.0
H1713 H 0.17386 0.47824 0.8228 0.0
H1714 H 0.23679 0.49879 0.88743 0.0
H1715 H 0.21781 0.48091 0.81169 0.0
H1716 H 0.31073 0.52602 0.8481 0.0
H1717 H 0.26719 0.52496 0.86159 0.0
H1718 H 0.25477 0.45427 0.82095 0.0
H1719 H 0.29802 0.45533 0.8074 0.0
C1720 C 0.1979 0.49308 0.87954 0.0
C1721 C 0.17981 0.48686 0.86161 0.0
C1722 C 0.22315 0.49461 0.87315 0.0
C1723 C 0.23074 0.48975 0.84876 0.0
C1724 C 0.21254 0.48429 0.83073 0.0
C1725 C 0.18735 0.48294 0.83707 0.0
C1726 C 0.29875 0.51012 0.84229 0.0
C1727 C 0.30777 0.49082 0.8266 0.0
C1728 C 0.27386 0.50951 0.85004 0.0
C1729 C 0.25753 0.48971 0.84206 0.0
C1730 C 0.26681 0.47002 0.82702 0.0
C1731 C 0.29165 0.47054 0.81943 0.0
H1732 H 0.7198 0.61374 0.03227 0.0
H1733 H 0.78924 0.59884 0.06917 0.0
H1734 H 0.73221 0.65885 0.0272 0.0
H1735 H 0.80095 0.64415 0.06622 0.0
H1736 H 0.82894 0.71799 0.03096 0.0
H1737 H 0.81546 0.6746 0.04017 0.0
H1738 H 0.73892 0.69929 0.04318 0.0
H1739 H 0.75265 0.74285 0.03181 0.0
C1740 C 0.73766 0.62027 0.03949 0.0
C1741 C 0.75379 0.60281 0.05068 0.0
C1742 C 0.7447 0.64625 0.03692 0.0
C1743 C 0.76774 0.65552 0.04619 0.0
C1744 C 0.78343 0.63791 0.0581 0.0
C1745 C 0.77672 0.61184 0.05993 0.0
C1746 C 0.80924 0.71436 0.03399 0.0
C1747 C 0.79187 0.73395 0.0306 0.0
C1748 C 0.80141 0.68925 0.03945 0.0
C1749 C 0.77595 0.68299 0.04239 0.0
C1750 C 0.75863 0.70303 0.04045 0.0
C1751 C 0.76649 0.72816 0.03432 0.0
H1752 H 0.81652 0.08497 0.16768 0.0
H1753 H 0.81241 0.0022 0.15973 0.0
H1754 H 0.77185 0.08626 0.17209 0.0
H1755 H 0.76719 0.0036 0.16154 0.0
H1756 H 0.69048 0.0059 0.19082 0.0
H1757 H 0.73594 0.00781 0.19006 0.0
H1758 H 0.73313 0.08346 0.15639 0.0
H1759 H 0.68812 0.08222 0.15973 0.0
C1760 C 0.80593 0.06708 0.16604 0.0
C1761 C 0.81799 0.04341 0.16405 0.0
C1762 C 0.78015 0.06781 0.1685 0.0
C1763 C 0.76571 0.04494 0.16794 0.0
C1764 C 0.7777 0.02151 0.16323 0.0
C1765 C 0.80363 0.02072 0.16155 0.0
C1766 C 0.69987 0.02334 0.18446 0.0
C1767 C 0.68615 0.04414 0.17586 0.0
C1768 C 0.72584 0.02423 0.18332 0.0
C1769 C 0.73839 0.04547 0.17244 0.0
C1770 C 0.72441 0.06686 0.16514 0.0
C1771 C 0.69854 0.06631 0.16719 0.0
H1772 H 0.17289 0.22433 0.42746 0.0
H1773 H 0.24639 0.24299 0.45548 0.0
H1774 H 0.186 0.1806 0.4185 0.0
H1775 H 0.25922 0.19921 0.44746 0.0
H1776 H 0.28087 0.12128 0.41943 0.0
H1777 H 0.2687 0.16616 0.41953 0.0
H1778 H 0.19429 0.14306 0.44209 0.0
H1779 H 0.20633 0.09795 0.4409 0.0
C1780 C 0.19202 0.21929 0.43119 0.0
C1781 C 0.20856 0.23718 0.44224 0.0
C1782 C 0.19944 0.19406 0.42641 0.0
C1783 C 0.22354 0.18608 0.4327 0.0
C1784 C 0.24056 0.20455 0.44218 0.0
C1785 C 0.2332 0.2298 0.44676 0.0
C1786 C 0.26188 0.12577 0.42434 0.0
C1787 C 0.24458 0.10605 0.43029 0.0
C1788 C 0.2549 0.15157 0.42447 0.0
C1789 C 0.2305 0.15841 0.43085 0.0
C1790 C 0.21313 0.13859 0.43662 0.0
C1791 C 0.22006 0.1127 0.43619 0.0
H1792 H 0.20315 0.35307 0.53075 0.0
H1793 H 0.1839 0.36927 0.45488 0.0
H1794 H 0.20378 0.39909 0.53988 0.0
H1795 H 0.18456 0.41546 0.46406 0.0
H1796 H 0.18107 0.4808 0.55461 0.0
H1797 H 0.17401 0.43594 0.5424 0.0
H1798 H 0.2167 0.44924 0.47584 0.0
H1799 H 0.22394 0.49397 0.48806 0.0
C1800 C 0.19901 0.36645 0.51602 0.0
C1801 C 0.19348 0.35751 0.49208 0.0
C1802 C 0.19916 0.39282 0.52131 0.0
C1803 C 0.19398 0.4109 0.50274 0.0
C1804 C 0.18864 0.40199 0.47874 0.0
C1805 C 0.18824 0.37555 0.4735 0.0
C1806 C 0.18849 0.47432 0.53711 0.0
C1807 C 0.20338 0.49089 0.52251 0.0
C1808 C 0.18463 0.44856 0.53023 0.0
C1809 C 0.19517 0.43895 0.50837 0.0
C1810 C 0.20833 0.45606 0.49279 0.0
C1811 C 0.21242 0.48174 0.49979 0.0
H1812 H 0.05345 0.45499 0.92836 0.0
H1813 H 0.06545 0.52978 0.89497 0.0
H1814 H 0.00955 0.46476 0.9347 0.0
H1815 H 0.02166 0.53964 0.90165 0.0
H1816 H 0.93314 0.47945 0.89136 0.0
H1817 H 0.97659 0.46995 0.9004 0.0
H1818 H 0.98644 0.54507 0.93359 0.0
H1819 H 0.94286 0.5545 0.92487 0.0
C1820 C 0.04695 0.47386 0.92318 0.0
C1821 C 0.06287 0.4916 0.91106 0.0
C1822 C 0.02177 0.47935 0.92665 0.0
C1823 C 0.01218 0.50286 0.91851 0.0
C1824 C 0.02857 0.52142 0.90828 0.0
C1825 C 0.05364 0.51577 0.90442 0.0
C1826 C 0.94437 0.49363 0.90124 0.0
C1827 C 0.93461 0.51773 0.90732 0.0
C1828 C 0.96922 0.48817 0.90649 0.0
C1829 C 0.9849 0.50685 0.91758 0.0
C1830 C 0.97477 0.53039 0.92494 0.0
C1831 C 0.94979 0.53569 0.92006 0.0
H1832 H 0.67438 0.47705 0.06424 0.0
H1833 H 0.71689 0.48942 0.99734 0.0
H1834 H 0.66697 0.43213 0.05238 0.0
H1835 H 0.70933 0.44466 0.98548 0.0
H1836 H 0.67711 0.36431 0.96546 0.0
H1837 H 0.6774 0.41064 0.97413 0.0
H1838 H 0.69665 0.39536 0.05016 0.0
H1839 H 0.69639 0.34929 0.04157 0.0
C1840 C 0.68166 0.47038 0.04676 0.0
C1841 C 0.69659 0.48672 0.03197 0.0
C1842 C 0.67758 0.4446 0.04006 0.0
C1843 C 0.68795 0.43475 0.01821 0.0
C1844 C 0.7011 0.45165 0.00243 0.0
C1845 C 0.7054 0.47734 0.00924 0.0
C1846 C 0.68139 0.37088 0.98402 0.0
C1847 C 0.68675 0.35313 0.00282 0.0
C1848 C 0.68155 0.39739 0.98897 0.0
C1849 C 0.68679 0.40664 0.01289 0.0
C1850 C 0.69208 0.38884 0.03166 0.0
C1851 C 0.69215 0.36242 0.02667 0.0
H1852 H 0.94104 0.99312 0.21732 0.0
H1853 H 0.94313 0.03552 0.14853 0.0
H1854 H 0.98591 0.98713 0.2147 0.0
H1855 H 0.98814 0.02919 0.14588 0.0
H1856 H 0.06667 0.01671 0.21909 0.0
H1857 H 0.02172 0.02262 0.21713 0.0
H1858 H 0.02016 0.9906 0.14348 0.0
H1859 H 0.06521 0.98436 0.14543 0.0
C1860 C 0.95099 1.0007 0.20141 0.0
C1861 C 0.9387 0.01495 0.18322 0.0
C1862 C 0.97664 0.99746 0.20004 0.0
C1863 C 0.99032 0.0081 0.18031 0.0
C1864 C 0.97787 0.02094 0.1613 0.0
C1865 C 0.95221 0.02452 0.16283 0.0
C1866 C 0.05683 0.01134 0.20231 0.0
C1867 C 0.06932 0.99995 0.18246 0.0
C1868 C 0.03115 0.01451 0.20131 0.0
C1869 C 0.01765 0.00667 0.18031 0.0
C1870 C 0.03028 0.99667 0.15987 0.0
C1871 C 0.05596 0.99315 0.16101 0.0
H1872 H 0.33184 0.99173 0.4426 0.0
H1873 H 0.27322 0.9979 0.49688 0.0
H1874 H 0.33978 0.94798 0.45655 0.0
H1875 H 0.28138 0.95406 0.51092 0.0
H1876 H 0.30835 0.86398 0.45513 0.0
H1877 H 0.30803 0.91037 0.44961 0.0
H1878 H 0.31472 0.92117 0.52846 0.0
H1879 H 0.3155 0.87414 0.53412 0.0
C1880 C 0.32118 0.98406 0.45802 0.0
C1881 C 0.30162 0.99809 0.46832 0.0
C1882 C 0.32566 0.95898 0.46592 0.0
C1883 C 0.31086 0.94754 0.48447 0.0
C1884 C 0.29303 0.96246 0.49657 0.0
C1885 C 0.28842 0.98758 0.48854 0.0
C1886 C 0.30991 0.87611 0.47136 0.0
C1887 C 0.31209 0.86536 0.49507 0.0
C1888 C 0.30989 0.90273 0.46815 0.0
C1889 C 0.31174 0.91934 0.48857 0.0
C1890 C 0.31344 0.90873 0.51241 0.0
C1891 C 0.31387 0.8819 0.51562 0.0
H1892 H 0.44167 0.54056 0.80582 0.0
H1893 H 0.4317 0.46427 0.83664 0.0
H1894 H 0.48681 0.53661 0.80935 0.0
H1895 H 0.47684 0.46034 0.84007 0.0
H1896 H 0.55605 0.45314 0.80335 0.0
H1897 H 0.51096 0.45681 0.80791 0.0
H1898 H 0.52134 0.53205 0.84078 0.0
H1899 H 0.56638 0.52843 0.83629 0.0
C1900 C 0.4491 0.52313 0.8137 0.0
C1901 C 0.43317 0.50271 0.82087 0.0
C1902 C 0.47493 0.5209 0.81579 0.0
C1903 C 0.4853 0.4981 0.82487 0.0
C1904 C 0.46933 0.47802 0.8328 0.0
C1905 C 0.44351 0.48037 0.83097 0.0
C1906 C 0.54872 0.47028 0.8119 0.0
C1907 C 0.56474 0.49053 0.81935 0.0
C1908 C 0.52293 0.47234 0.81459 0.0
C1909 C 0.51267 0.49479 0.82457 0.0
C1910 C 0.52874 0.51465 0.8328 0.0
C1911 C 0.55452 0.51248 0.83034 0.0
H1912 H 0.80319 0.85887 0.9517 0.0
H1913 H 0.80732 0.86747 0.03101 0.0
H1914 H 0.80453 0.90543 0.94692 0.0
H1915 H 0.80776 0.91457 0.02616 0.0
H1916 H 0.77011 0.9932 0.99698 0.0
H1917 H 0.7765 0.94844 0.00904 0.0
H1918 H 0.83545 0.94285 0.9552 0.0
H1919 H 0.82933 0.98764 0.94328 0.0
C1920 C 0.80429 0.87069 0.96815 0.0
C1921 C 0.8052 0.85944 0.99174 0.0
C1922 C 0.80519 0.89742 0.96539 0.0
C1923 C 0.80641 0.91365 0.98616 0.0
C1924 C 0.80689 0.9025 0.00984 0.0
C1925 C 0.80662 0.8756 0.01259 0.0
C1926 C 0.78506 0.98276 0.98834 0.0
C1927 C 0.79897 0.99388 0.96888 0.0
C1928 C 0.78864 0.95706 0.9952 0.0
C1929 C 0.80613 0.94205 0.9827 0.0
C1930 C 0.82154 0.95388 0.96485 0.0
C1931 C 0.81815 0.97959 0.95817 0.0
H1932 H 0.4493 0.97568 0.0884 0.0
H1933 H 0.44456 0.00691 0.16222 0.0
H1934 H 0.49418 0.97467 0.09179 0.0
H1935 H 0.48972 0.00867 0.16471 0.0
H1936 H 0.56727 0.98785 0.17682 0.0
H1937 H 0.52264 0.98157 0.17114 0.0
H1938 H 0.53159 0.99523 0.09266 0.0
H1939 H 0.57617 0.99876 0.09815 0.0
C1940 C 0.45791 0.98301 0.10513 0.0
C1941 C 0.44339 0.99053 0.12537 0.0
C1942 C 0.48379 0.98255 0.10707 0.0
C1943 C 0.49575 0.99078 0.12888 0.0
C1944 C 0.4812 0.00092 0.1481 0.0
C1945 C 0.45527 1.00051 0.14648 0.0
C1946 C 0.55973 0.98854 0.15827 0.0
C1947 C 0.57506 0.99466 0.13802 0.0
C1948 C 0.53406 0.98552 0.15503 0.0
C1949 C 0.52324 0.98914 0.1316 0.0
C1950 C 0.53901 0.9925 0.11105 0.0
C1951 C 0.56471 0.99465 0.1142 0.0
H1952 H 0.38078 0.23712 0.19156 0.0
H1953 H 0.45683 0.26569 0.19562 0.0
H1954 H 0.379 0.23524 0.23671 0.0
H1955 H 0.45498 0.26381 0.24062 0.0
H1956 H 0.45337 0.2253 0.31617 0.0
H1957 H 0.45216 0.2273 0.27119 0.0
H1958 H 0.38093 0.26442 0.27448 0.0
H1959 H 0.38208 0.26244 0.31967 0.0
C1960 C 0.397 0.24328 0.20208 0.0
C1961 C 0.41898 0.25146 0.19005 0.0
C1962 C 0.39595 0.24222 0.2279 0.0
C1963 C 0.41695 0.24907 0.24212 0.0
C1964 C 0.43865 0.258 0.23008 0.0
C1965 C 0.43963 0.25928 0.20433 0.0
C1966 C 0.43729 0.23361 0.30734 0.0
C1967 C 0.41786 0.24379 0.32147 0.0
C1968 C 0.43672 0.23495 0.28159 0.0
C1969 C 0.41661 0.24633 0.26938 0.0
C1970 C 0.39665 0.25554 0.28343 0.0
C1971 C 0.39732 0.2544 0.30927 0.0
H1972 H 0.08155 0.77987 0.30089 0.0
H1973 H 0.1571 0.75388 0.30614 0.0
H1974 H 0.08094 0.77024 0.25708 0.0
H1975 H 0.15603 0.74146 0.2625 0.0
H1976 H 0.15397 0.73812 0.17872 0.0
H1977 H 0.15652 0.75258 0.22165 0.0
H1978 H 0.07712 0.73819 0.22955 0.0
H1979 H 0.07462 0.72627 0.18639 0.0
C1980 C 0.09788 0.7715 0.29257 0.0
C1981 C 0.11924 0.76726 0.3067 0.0
C1982 C 0.09754 0.76571 0.26744 0.0
C1983 C 0.11827 0.7545 0.25598 0.0
C1984 C 0.13978 0.75035 0.27037 0.0
C1985 C 0.14038 0.75712 0.29544 0.0
C1986 C 0.13712 0.73857 0.18972 0.0
C1987 C 0.11406 0.73157 0.1793 0.0
C1988 C 0.13854 0.74654 0.21443 0.0
C1989 C 0.11701 0.74677 0.22939 0.0
C1990 C 0.09405 0.73926 0.21871 0.0
C1991 C 0.09255 0.73221 0.1939 0.0
H1992 H 0.36339 0.27043 0.44183 0.0
H1993 H 0.41312 0.20675 0.45035 0.0
H1994 H 0.35426 0.26926 0.48602 0.0
H1995 H 0.40456 0.20601 0.49494 0.0
H1996 H 0.41578 0.25762 0.56883 0.0
H1997 H 0.41758 0.24358 0.52573 0.0
H1998 H 0.33722 0.24102 0.52259 0.0
H1999 H 0.33534 0.25469 0.56578 0.0
C2000 C 0.37164 0.25559 0.4531 0.0
C2001 C 0.38872 0.23854 0.44282 0.0
C2002 C 0.36646 0.25492 0.47835 0.0
C2003 C 0.37881 0.23762 0.49384 0.0
C2004 C 0.3948 0.21949 0.48332 0.0
C2005 C 0.3995 0.21975 0.45786 0.0
C2006 C 0.39852 0.25356 0.55908 0.0
C2007 C 0.37544 0.25746 0.57056 0.0
C2008 C 0.39955 0.24531 0.53451 0.0
C2009 C 0.37752 0.24119 0.52093 0.0
C2010 C 0.35444 0.24404 0.53272 0.0
C2011 C 0.35341 0.25188 0.5574 0.0
H2012 H 0.10899 0.76684 0.67358 0.0
H2013 H 0.03159 0.7432 0.67977 0.0
H2014 H 0.11178 0.77007 0.7186 0.0
H2015 H 0.03443 0.74646 0.72466 0.0
H2016 H 0.03986 0.7829 0.80023 0.0
H2017 H 0.04064 0.78307 0.75519 0.0
H2018 H 0.10883 0.74028 0.75605 0.0
H2019 H 0.10813 0.74006 0.80123 0.0
C2020 C 0.09264 0.76217 0.68455 0.0
C2021 C 0.07005 0.75479 0.67319 0.0
C2022 C 0.09427 0.76401 0.71027 0.0
C2023 C 0.07325 0.7588 0.72502 0.0
C2024 C 0.0508 0.751 0.71366 0.0
C2025 C 0.04924 0.7489 0.688 0.0
C2026 C 0.05528 0.77394 0.79086 0.0
C2027 C 0.07383 0.76128 0.80425 0.0
C2028 C 0.05559 0.77386 0.76509 0.0
C2029 C 0.07456 0.76132 0.75221 0.0
C2030 C 0.09398 0.75007 0.76556 0.0
C2031 C 0.09357 0.74996 0.79139 0.0
H2032 H 0.08672 0.78924 0.93315 0.0
H2033 H 0.10756 0.70944 0.92804 0.0
H2034 H 0.09007 0.78683 0.97848 0.0
H2035 H 0.11038 0.70706 0.97288 0.0
H2036 H 0.12641 0.76046 0.05952 0.0
H2037 H 0.12686 0.77085 0.01526 0.0
H2038 H 0.06821 0.71437 0.00285 0.0
H2039 H 0.06732 0.70425 0.04693 0.0
C2040 C 0.09281 0.77154 0.94161 0.0
C2041 C 0.09673 0.74947 0.92717 0.0
C2042 C 0.09452 0.77012 0.96745 0.0
C2043 C 0.10001 0.74662 0.97892 0.0
C2044 C 0.10578 0.72526 0.96435 0.0
C2045 C 0.1043 0.7267 0.93874 0.0
C2046 C 0.11335 0.75057 0.04737 0.0
C2047 C 0.09698 0.73136 0.05659 0.0
C2048 C 0.11359 0.7566 0.02216 0.0
C2049 C 0.09772 0.74323 0.00586 0.0
C2050 C 0.08071 0.72479 0.0152 0.0
C2051 C 0.08019 0.71904 0.04038 0.0
H2052 H 0.6203 0.73702 0.321 0.0
H2053 H 0.54948 0.77473 0.31441 0.0
H2054 H 0.62092 0.73014 0.27633 0.0
H2055 H 0.55022 0.7679 0.26984 0.0
H2056 H 0.54338 0.72111 0.19926 0.0
H2057 H 0.54632 0.72756 0.24385 0.0
H2058 H 0.62257 0.75431 0.23575 0.0
H2059 H 0.61973 0.74779 0.19112 0.0
C2060 C 0.60512 0.74428 0.30997 0.0
C2061 C 0.58476 0.75627 0.32119 0.0
C2062 C 0.60547 0.74028 0.28444 0.0
C2063 C 0.58539 0.74805 0.26978 0.0
C2064 C 0.56568 0.76123 0.28084 0.0
C2065 C 0.56541 0.7654 0.3063 0.0
C2066 C 0.56091 0.72791 0.20703 0.0
C2067 C 0.58127 0.73409 0.19172 0.0
C2068 C 0.5625 0.73187 0.23249 0.0
C2069 C 0.58452 0.74189 0.24311 0.0
C2070 C 0.60536 0.74664 0.228 0.0
C2071 C 0.60371 0.74288 0.20249 0.0
H2072 H 0.41584 0.29427 0.06395 0.0
H2073 H 0.36126 0.23239 0.06879 0.0
H2074 H 0.40719 0.29846 0.01957 0.0
H2075 H 0.35213 0.23698 0.02482 0.0
H2076 H 0.41324 0.25403 0.94152 0.0
H2077 H 0.41679 0.26341 0.9857 0.0
H2078 H 0.33679 0.26854 0.99083 0.0
H2079 H 0.33318 0.25952 0.94661 0.0
C2080 C 0.40125 0.28238 0.05573 0.0
C2081 C 0.38903 0.26314 0.06965 0.0
C2082 C 0.3965 0.28459 0.03037 0.0
C2083 C 0.37905 0.26799 0.01885 0.0
C2084 C 0.36548 0.25017 0.03329 0.0
C2085 C 0.37066 0.24756 0.05841 0.0
C2086 C 0.39646 0.2576 0.952 0.0
C2087 C 0.37294 0.25584 0.94069 0.0
C2088 C 0.39851 0.26319 0.97721 0.0
C2089 C 0.37704 0.26674 0.99159 0.0
C2090 C 0.35359 0.26589 0.98011 0.0
C2091 C 0.35157 0.26071 0.95484 0.0
H2092 H 0.30826 0.9815 0.65188 0.0
H2093 H 0.30368 0.06446 0.64984 0.0
H2094 H 0.26439 0.97789 0.63931 0.0
H2095 H 0.26019 0.06083 0.63754 0.0
H2096 H 0.19103 0.98945 0.59159 0.0
H2097 H 0.235 0.98869 0.60349 0.0
H2098 H 0.2214 0.04568 0.65976 0.0
H2099 H 0.17757 0.04651 0.64794 0.0
C2100 C 0.29805 0.99891 0.64836 0.0
C2101 C 0.30938 0.02326 0.65205 0.0
C2102 C 0.27295 0.99684 0.64126 0.0
C2103 C 0.25876 0.01909 0.63795 0.0
C2104 C 0.27048 0.04335 0.64054 0.0
C2105 C 0.29548 0.04541 0.6474 0.0
C2106 C 0.19736 0.00153 0.60676 0.0
C2107 C 0.18084 0.01817 0.61874 0.0
C2108 C 0.22253 0.00104 0.61357 0.0
C2109 C 0.23169 0.01739 0.6323 0.0
C2110 C 0.21494 0.03319 0.64496 0.0
C2111 C 0.18979 0.03351 0.63832 0.0
H2112 H 0.66652 0.21934 0.93959 0.0
H2113 H 0.73983 0.23823 0.96792 0.0
H2114 H 0.68068 0.17667 0.9279 0.0
H2115 H 0.75371 0.19543 0.95726 0.0
H2116 H 0.77746 0.12011 0.92497 0.0
H2117 H 0.76405 0.16454 0.92767 0.0
H2118 H 0.69014 0.13785 0.94837 0.0
H2119 H 0.70342 0.09336 0.94456 0.0
C2120 C 0.68579 0.21457 0.94291 0.0
C2121 C 0.70201 0.23221 0.95475 0.0
C2122 C 0.69384 0.18993 0.93652 0.0
C2123 C 0.71825 0.18226 0.94201 0.0
C2124 C 0.73485 0.20054 0.9525 0.0
C2125 C 0.72686 0.22522 0.95866 0.0
C2126 C 0.75831 0.12374 0.93 0.0
C2127 C 0.74154 0.1032 0.9347 0.0
C2128 C 0.75061 0.14928 0.93164 0.0
C2129 C 0.72599 0.155 0.93833 0.0
C2130 C 0.70913 0.13434 0.94274 0.0
C2131 C 0.71679 0.10876 0.9408 0.0
H2132 H 0.79806 0.47067 0.28483 0.0
H2133 H 0.81521 0.49311 0.35971 0.0
H2134 H 0.75407 0.46917 0.29454 0.0
H2135 H 0.77119 0.48903 0.37059 0.0
H2136 H 0.68888 0.50185 0.37994 0.0
H2137 H 0.73283 0.50573 0.36929 0.0
H2138 H 0.72165 0.44881 0.31154 0.0
H2139 H 0.67761 0.44744 0.32056 0.0
C2140 C 0.79232 0.47451 0.30366 0.0
C2141 C 0.80992 0.48176 0.3216 0.0
C2142 C 0.76698 0.47351 0.30938 0.0
C2143 C 0.75858 0.47878 0.33352 0.0
C2144 C 0.77654 0.48541 0.35165 0.0
C2145 C 0.80188 0.48739 0.3456 0.0
C2146 C 0.69592 0.49054 0.36472 0.0
C2147 C 0.67982 0.47437 0.35108 0.0
C2148 C 0.72127 0.49242 0.35878 0.0
C2149 C 0.73132 0.47746 0.33956 0.0
C2150 C 0.71494 0.46123 0.32604 0.0
C2151 C 0.6895 0.46016 0.33138 0.0
H2152 H 0.29759 0.60166 0.5349 0.0
H2153 H 0.22159 0.621 0.55197 0.0
H2154 H 0.3087 0.64737 0.5326 0.0
H2155 H 0.2328 0.66668 0.55037 0.0
H2156 H 0.25792 0.74447 0.51472 0.0
H2157 H 0.24453 0.69996 0.52163 0.0
H2158 H 0.31435 0.68496 0.55819 0.0
H2159 H 0.32799 0.72931 0.55067 0.0
C2160 C 0.28327 0.61567 0.53819 0.0
C2161 C 0.25871 0.60769 0.54352 0.0
C2162 C 0.28967 0.6419 0.53714 0.0
C2163 C 0.27169 0.66078 0.54153 0.0
C2164 C 0.24708 0.65273 0.54669 0.0
C2165 C 0.24067 0.62651 0.54765 0.0
C2166 C 0.27016 0.73186 0.5248 0.0
C2167 C 0.29408 0.7404 0.53202 0.0
C2168 C 0.2625 0.70627 0.52871 0.0
C2169 C 0.27855 0.68869 0.54006 0.0
C2170 C 0.30177 0.69778 0.54882 0.0
C2171 C 0.30947 0.72332 0.5448 0.0
H2172 H 0.19229 0.93511 0.15466 0.0
H2173 H 0.19427 0.0182 0.16015 0.0
H2174 H 0.23758 0.93509 0.15162 0.0
H2175 H 0.23963 0.01811 0.15731 0.0
H2176 H 0.31724 0.9413 0.17805 0.0
H2177 H 0.27206 0.94502 0.18139 0.0
H2178 H 0.27396 0.00747 0.1286 0.0
H2179 H 0.31902 0.00407 0.12552 0.0
C2180 C 0.20238 0.95338 0.15482 0.0
C2181 C 0.18981 0.97663 0.15781 0.0
C2182 C 0.22829 0.95334 0.1534 0.0
C2183 C 0.24206 0.97656 0.15481 0.0
C2184 C 0.22942 0.99994 0.15627 0.0
C2185 C 0.20347 0.99998 0.15775 0.0
C2186 C 0.30805 0.95616 0.16758 0.0
C2187 C 0.32155 0.97226 0.15139 0.0
C2188 C 0.28221 0.95809 0.16926 0.0
C2189 C 0.26955 0.97622 0.15488 0.0
C2190 C 0.28326 0.99332 0.13986 0.0
C2191 C 0.30904 0.99133 0.13809 0.0
H2192 H 0.71937 0.88267 0.41502 0.0
H2193 H 0.79429 0.90457 0.43644 0.0
H2194 H 0.73075 0.83752 0.4151 0.0
H2195 H 0.80554 0.85925 0.43757 0.0
H2196 H 0.75161 0.76019 0.45112 0.0
H2197 H 0.7396 0.80423 0.44295 0.0
H2198 H 0.81327 0.82139 0.4144 0.0
H2199 H 0.82554 0.77741 0.42348 0.0
C2200 C 0.73829 0.87782 0.41987 0.0
C2201 C 0.7559 0.89723 0.42583 0.0
C2202 C 0.74481 0.85185 0.42001 0.0
C2203 C 0.76908 0.84452 0.42639 0.0
C2204 C 0.78679 0.86405 0.4321 0.0
C2205 C 0.78031 0.89008 0.43169 0.0
C2206 C 0.76508 0.77312 0.44248 0.0
C2207 C 0.78959 0.76522 0.43807 0.0
C2208 C 0.75819 0.79853 0.4378 0.0
C2209 C 0.77556 0.81668 0.42836 0.0
C2210 C 0.79955 0.80821 0.42226 0.0
C2211 C 0.8065 0.78282 0.42711 0.0
H2212 H 0.80498 0.508 0.89802 0.0
H2213 H 0.82212 0.52188 0.82105 0.0
H2214 H 0.76078 0.50223 0.88738 0.0
H2215 H 0.7783 0.51623 0.81061 0.0
H2216 H 0.68763 0.46941 0.84704 0.0
H2217 H 0.73099 0.47255 0.86129 0.0
H2218 H 0.74096 0.54353 0.82059 0.0
H2219 H 0.69802 0.54053 0.80645 0.0
C2220 C 0.79937 0.50953 0.87885 0.0
C2221 C 0.81696 0.51564 0.86039 0.0
C2222 C 0.77413 0.50619 0.8728 0.0
C2223 C 0.76615 0.50916 0.84824 0.0
C2224 C 0.78391 0.51429 0.82975 0.0
C2225 C 0.80903 0.51741 0.83573 0.0
C2226 C 0.69904 0.48582 0.84141 0.0
C2227 C 0.68949 0.50462 0.82547 0.0
C2228 C 0.72379 0.48761 0.84959 0.0
C2229 C 0.73936 0.50808 0.84172 0.0
C2230 C 0.72947 0.52731 0.82657 0.0
C2231 C 0.70482 0.52564 0.81859 0.0
H2232 H 0.24844 0.2646 0.01561 0.0
H2233 H 0.1768 0.27809 0.04906 0.0
H2234 H 0.26196 0.30825 0.02624 0.0
H2235 H 0.19056 0.3215 0.06043 0.0
H2236 H 0.20924 0.40606 0.04315 0.0
H2237 H 0.19768 0.36074 0.0382 0.0
H2238 H 0.27275 0.33936 0.05714 0.0
H2239 H 0.28445 0.38476 0.06131 0.0
C2240 C 0.23584 0.27661 0.02593 0.0
C2241 C 0.21149 0.26794 0.03135 0.0
C2242 C 0.24359 0.30171 0.03202 0.0
C2243 C 0.2272 0.31862 0.04382 0.0
C2244 C 0.20345 0.30925 0.05077 0.0
C2245 C 0.19566 0.28424 0.04453 0.0
C2246 C 0.22327 0.39168 0.04622 0.0
C2247 C 0.24778 0.39901 0.05249 0.0
C2248 C 0.2166 0.36565 0.04364 0.0
C2249 C 0.23423 0.34629 0.04744 0.0
C2250 C 0.25874 0.3537 0.05382 0.0
C2251 C 0.26544 0.37975 0.05626 0.0
H2252 H 0.28374 0.50961 0.99507 0.0
H2253 H 0.32658 0.5252 0.0612 0.0
H2254 H 0.29049 0.55409 0.98167 0.0
H2255 H 0.33296 0.56978 0.04788 0.0
H2256 H 0.32167 0.63643 0.96166 0.0
H2257 H 0.32319 0.59001 0.97027 0.0
H2258 H 0.29883 0.60389 0.04505 0.0
H2259 H 0.2968 0.64974 0.03647 0.0
C2260 C 0.29517 0.52229 0.00643 0.0
C2261 C 0.30419 0.514 0.02948 0.0
C2262 C 0.29901 0.54779 0.99873 0.0
C2263 C 0.31181 0.56547 0.01398 0.0
C2264 C 0.32265 0.55661 0.03598 0.0
C2265 C 0.3191 0.53105 0.04353 0.0
C2266 C 0.31657 0.62949 0.97988 0.0
C2267 C 0.30917 0.64677 0.99839 0.0
C2268 C 0.31749 0.60299 0.9848 0.0
C2269 C 0.31149 0.59344 0.00843 0.0
C2270 C 0.30402 0.61075 0.02681 0.0
C2271 C 0.30269 0.63704 0.02181 0.0
H2272 H 0.81994 0.52311 0.55422 0.0
H2273 H 0.77487 0.50763 0.48956 0.0
H2274 H 0.82557 0.56786 0.54096 0.0
H2275 H 0.78074 0.55219 0.47626 0.0
H2276 H 0.81161 0.63195 0.4522 0.0
H2277 H 0.81188 0.58607 0.46258 0.0
H2278 H 0.7952 0.60435 0.53858 0.0
H2279 H 0.79486 0.65011 0.52825 0.0
C2280 C 0.81171 0.52906 0.53691 0.0
C2281 C 0.79663 0.51185 0.52318 0.0
C2282 C 0.81476 0.55476 0.52944 0.0
C2283 C 0.80323 0.56367 0.50779 0.0
C2284 C 0.78985 0.54594 0.49303 0.0
C2285 C 0.78655 0.52034 0.50066 0.0
C2286 C 0.80797 0.62616 0.47112 0.0
C2287 C 0.80318 0.64468 0.48939 0.0
C2288 C 0.80812 0.59989 0.47704 0.0
C2289 C 0.80379 0.59159 0.50144 0.0
C2290 C 0.79903 0.61014 0.5197 0.0
C2291 C 0.79861 0.63636 0.51373 0.0
H2292 H 0.19555 0.14518 0.95051 0.0
H2293 H 0.19228 0.13629 0.02983 0.0
H2294 H 0.19491 0.09855 0.94564 0.0
H2295 H 0.19231 0.08928 0.0249 0.0
H2296 H 0.23025 0.01111 0.99673 0.0
H2297 H 0.22356 0.05598 0.00813 0.0
H2298 H 0.16499 0.0605 0.95377 0.0
H2299 H 0.17142 0.01558 0.9425 0.0
C2300 C 0.19475 0.13327 0.96693 0.0
C2301 C 0.19395 0.14444 0.99056 0.0
C2302 C 0.19422 0.10652 0.96413 0.0
C2303 C 0.19339 0.09025 0.98489 0.0
C2304 C 0.19292 0.10136 0.00858 0.0
C2305 C 0.1929 0.12822 0.01138 0.0
C2306 C 0.21535 0.02136 0.9878 0.0
C2307 C 0.2016 0.00986 0.96843 0.0
C2308 C 0.21159 0.04712 0.99429 0.0
C2309 C 0.19409 0.06186 0.98149 0.0
C2310 C 0.17891 0.04971 0.96364 0.0
C2311 C 0.18247 0.02392 0.95734 0.0
H2312 H 0.69206 0.13876 0.45544 0.0
H2313 H 0.68762 0.12836 0.53458 0.0
H2314 H 0.69312 0.09241 0.44979 0.0
H2315 H 0.68922 0.08136 0.52875 0.0
H2316 H 0.73076 0.0051 0.49466 0.0
H2317 H 0.7229 0.04884 0.50933 0.0
H2318 H 0.66158 0.0544 0.45819 0.0
H2319 H 0.6692 0.01079 0.44366 0.0
C2320 C 0.69128 0.12659 0.47168 0.0
C2321 C 0.6896 0.13729 0.49547 0.0
C2322 C 0.69175 0.09998 0.4684 0.0
C2323 C 0.6909 0.0833 0.48881 0.0
C2324 C 0.68975 0.09384 0.51272 0.0
C2325 C 0.68883 0.12066 0.51602 0.0
C2326 C 0.71498 0.01526 0.48725 0.0
C2327 C 0.70078 0.00462 0.46775 0.0
C2328 C 0.71056 0.04034 0.49561 0.0
C2329 C 0.69193 0.0551 0.48455 0.0
C2330 C 0.67628 0.04353 0.46677 0.0
C2331 C 0.68057 0.01851 0.45856 0.0
H2332 H 0.67686 0.76978 0.81564 0.0
H2333 H 0.60788 0.72575 0.82116 0.0
H2334 H 0.67896 0.75966 0.77139 0.0
H2335 H 0.60991 0.71619 0.7771 0.0
H2336 H 0.6033 0.74735 0.69693 0.0
H2337 H 0.60795 0.75429 0.74125 0.0
H2338 H 0.67808 0.71508 0.7402 0.0
H2339 H 0.67331 0.70753 0.69559 0.0
C2340 C 0.66247 0.75753 0.80756 0.0
C2341 C 0.64209 0.74872 0.82179 0.0
C2342 C 0.66372 0.75178 0.78232 0.0
C2343 C 0.64443 0.73748 0.77104 0.0
C2344 C 0.62486 0.72745 0.78551 0.0
C2345 C 0.6238 0.73284 0.81071 0.0
C2346 C 0.61989 0.74048 0.70599 0.0
C2347 C 0.63789 0.72679 0.69283 0.0
C2348 C 0.62244 0.74432 0.73135 0.0
C2349 C 0.6432 0.73492 0.74396 0.0
C2350 C 0.66189 0.72239 0.73073 0.0
C2351 C 0.65915 0.71813 0.70531 0.0
H2352 H 0.96756 0.26828 0.68872 0.0
H2353 H 0.89124 0.24059 0.68408 0.0
H2354 H 0.96555 0.26556 0.73374 0.0
H2355 H 0.88935 0.23769 0.72904 0.0
H2356 H 0.89062 0.26442 0.8113 0.0
H2357 H 0.89051 0.26606 0.76621 0.0
H2358 H 0.96232 0.22993 0.76475 0.0
H2359 H 0.96257 0.22845 0.8098 0.0
C2360 C 0.95031 0.26184 0.69731 0.0
C2361 C 0.92958 0.25461 0.68291 0.0
C2362 C 0.94924 0.26004 0.72304 0.0
C2363 C 0.92737 0.25114 0.73482 0.0
C2364 C 0.9064 0.24468 0.72044 0.0
C2365 C 0.90752 0.24632 0.69472 0.0
C2366 C 0.9062 0.25647 0.80134 0.0
C2367 C 0.92665 0.2464 0.81406 0.0
C2368 C 0.90613 0.25742 0.77554 0.0
C2369 C 0.92656 0.24845 0.76204 0.0
C2370 C 0.94653 0.23742 0.77474 0.0
C2371 C 0.94655 0.23633 0.80051 0.0
H2372 H 0.57817 0.69687 0.06203 0.0
H2373 H 0.63602 0.75477 0.07194 0.0
H2374 H 0.58611 0.69694 0.01733 0.0
H2375 H 0.64446 0.75438 0.02762 0.0
H2376 H 0.65995 0.74076 0.94685 0.0
H2377 H 0.65714 0.72649 0.98983 0.0
H2378 H 0.57751 0.7366 0.98827 0.0
H2379 H 0.58028 0.75118 0.94536 0.0
C2380 C 0.59336 0.70865 0.05476 0.0
C2381 C 0.60667 0.7257 0.07021 0.0
C2382 C 0.59771 0.70889 0.02926 0.0
C2383 C 0.6158 0.72575 0.01913 0.0
C2384 C 0.63057 0.74105 0.03499 0.0
C2385 C 0.62581 0.74126 0.0603 0.0
C2386 C 0.6418 0.73963 0.95558 0.0
C2387 C 0.62034 0.74732 0.94289 0.0
C2388 C 0.64023 0.7314 0.98011 0.0
C2389 C 0.61712 0.73031 0.99222 0.0
C2390 C 0.59551 0.7369 0.97919 0.0
C2391 C 0.59712 0.74551 0.95477 0.0
H2392 H 0.91228 0.25975 0.31489 0.0
H2393 H 0.84101 0.21989 0.31007 0.0
H2394 H 0.90998 0.27014 0.27096 0.0
H2395 H 0.83865 0.23066 0.26604 0.0
H2396 H 0.83891 0.28358 0.19357 0.0
H2397 H 0.83741 0.27255 0.23763 0.0
H2398 H 0.91056 0.23994 0.23222 0.0
H2399 H 0.91204 0.25054 0.18835 0.0
C2400 C 0.89594 0.25357 0.30455 0.0
C2401 C 0.87684 0.23897 0.31588 0.0
C2402 C 0.89474 0.25935 0.2794 0.0
C2403 C 0.87425 0.25096 0.26518 0.0
C2404 C 0.85462 0.23733 0.27667 0.0
C2405 C 0.856 0.23118 0.3018 0.0
C2406 C 0.85448 0.2737 0.20174 0.0
C2407 C 0.87562 0.26798 0.18755 0.0
C2408 C 0.85361 0.26742 0.22688 0.0
C2409 C 0.87401 0.25573 0.23825 0.0
C2410 C 0.89475 0.24928 0.2239 0.0
C2411 C 0.89548 0.25518 0.19876 0.0
H2412 H 0.86754 0.24057 0.56444 0.0
H2413 H 0.92491 0.2995 0.55786 0.0
H2414 H 0.85959 0.24315 0.52017 0.0
H2415 H 0.91741 0.30171 0.51323 0.0
H2416 H 0.92882 0.24682 0.44266 0.0
H2417 H 0.92847 0.26306 0.48495 0.0
H2418 H 0.84849 0.26994 0.48149 0.0
H2419 H 0.84884 0.25392 0.43891 0.0
C2420 C 0.87763 0.25491 0.55361 0.0
C2421 C 0.89674 0.26988 0.56437 0.0
C2422 C 0.87311 0.25639 0.5283 0.0
C2423 C 0.88808 0.27244 0.51332 0.0
C2424 C 0.90567 0.28917 0.52445 0.0
C2425 C 0.9098 0.28808 0.54995 0.0
C2426 C 0.91122 0.25223 0.45077 0.0
C2427 C 0.88883 0.24884 0.43767 0.0
C2428 C 0.91105 0.26182 0.47485 0.0
C2429 C 0.88845 0.26787 0.48637 0.0
C2430 C 0.86615 0.2655 0.47292 0.0
C2431 C 0.86636 0.25626 0.44866 0.0
H2432 H 0.33323 0.31381 0.69748 0.0
H2433 H 0.36396 0.23786 0.69032 0.0
H2434 H 0.32691 0.30648 0.74177 0.0
H2435 H 0.35703 0.23037 0.73448 0.0
H2436 H 0.32212 0.2193 0.81062 0.0
H2437 H 0.31872 0.22871 0.76655 0.0
H2438 H 0.36203 0.29876 0.77684 0.0
H2439 H 0.36601 0.28915 0.82098 0.0
C2440 C 0.33809 0.29534 0.70526 0.0
C2441 C 0.3491 0.27636 0.69052 0.0
C2442 C 0.33458 0.29126 0.73056 0.0
C2443 C 0.34147 0.26791 0.74138 0.0
C2444 C 0.35138 0.24847 0.72644 0.0
C2445 C 0.35541 0.25276 0.70126 0.0
C2446 C 0.33046 0.23702 0.80364 0.0
C2447 C 0.34448 0.25345 0.81921 0.0
C2448 C 0.32858 0.24228 0.77841 0.0
C2449 C 0.34023 0.26433 0.76843 0.0
C2450 C 0.35279 0.28168 0.78422 0.0
C2451 C 0.3551 0.27617 0.80941 0.0
H2452 H 0.65732 0.74637 0.56896 0.0
H2453 H 0.57702 0.7385 0.56807 0.0
H2454 H 0.65683 0.75995 0.52571 0.0
H2455 H 0.57661 0.75264 0.52489 0.0
H2456 H 0.5847 0.79277 0.4504 0.0
H2457 H 0.59089 0.79281 0.49539 0.0
H2458 H 0.64144 0.72955 0.48828 0.0
H2459 H 0.63454 0.72892 0.44364 0.0
C2460 C 0.63954 0.74808 0.55969 0.0
C2461 C 0.61719 0.74117 0.57175 0.0
C2462 C 0.63931 0.75589 0.53501 0.0
C2463 C 0.6167 0.75743 0.52216 0.0
C2464 C 0.59425 0.75191 0.53458 0.0
C2465 C 0.5945 0.74363 0.55916 0.0
C2466 C 0.59784 0.77958 0.45845 0.0
C2467 C 0.60935 0.76095 0.44376 0.0
C2468 C 0.60119 0.77946 0.48409 0.0
C2469 C 0.6166 0.76117 0.49513 0.0
C2470 C 0.62966 0.74398 0.48013 0.0
C2471 C 0.62577 0.74364 0.45466 0.0
H2472 H 0.43332 0.47889 0.39457 0.0
H2473 H 0.44916 0.55475 0.42409 0.0
H2474 H 0.47697 0.46765 0.40025 0.0
H2475 H 0.49293 0.54366 0.42918 0.0
H2476 H 0.56667 0.52188 0.38256 0.0
H2477 H 0.52405 0.53423 0.39241 0.0
H2478 H 0.51303 0.46349 0.43319 0.0
H2479 H 0.55575 0.45132 0.42385 0.0
C2480 C 0.44595 0.49285 0.40298 0.0
C2481 C 0.43783 0.51764 0.40892 0.0
C2482 C 0.47092 0.48644 0.40623 0.0
C2483 C 0.48828 0.50488 0.41501 0.0
C2484 C 0.47988 0.52915 0.42234 0.0
C2485 C 0.4548 0.53538 0.41961 0.0
C2486 C 0.55541 0.50935 0.39427 0.0
C2487 C 0.56453 0.48562 0.40236 0.0
C2488 C 0.53106 0.51644 0.39995 0.0
C2489 C 0.51528 0.49971 0.41345 0.0
C2490 C 0.52483 0.47667 0.42271 0.0
C2491 C 0.54933 0.46982 0.41745 0.0
H2492 H 0.42763 0.97658 0.70673 0.0
H2493 H 0.43912 0.04792 0.66689 0.0
H2494 H 0.47262 0.96912 0.70556 0.0
H2495 H 0.48409 0.04076 0.66643 0.0
H2496 H 0.5624 0.02942 0.70756 0.0
H2497 H 0.51744 0.03661 0.70503 0.0
H2498 H 0.50717 0.96354 0.6681 0.0
H2499 H 0.55216 0.95662 0.6699 0.0
C2500 C 0.43974 0.99058 0.69766 0.0
C2501 C 0.42989 0.01278 0.68683 0.0
C2502 C 0.46541 0.98629 0.69696 0.0
C2503 C 0.4817 0.00443 0.68596 0.0
C2504 C 0.47187 0.02656 0.67507 0.0
C2505 C 0.44617 0.03055 0.67524 0.0
C2506 C 0.55057 0.01503 0.69869 0.0
C2507 C 0.56077 0.99252 0.68885 0.0
C2508 C 0.52491 0.01917 0.69721 0.0
C2509 C 0.50896 1.00058 0.68643 0.0
C2510 C 0.51913 0.97809 0.67656 0.0
C2511 C 0.54484 0.97424 0.67749 0.0
H2512 H 0.06778 0.53678 0.3363 0.0
H2513 H 0.06036 0.45891 0.30871 0.0
H2514 H 0.02255 0.53899 0.34028 0.0
H2515 H 0.01516 0.46118 0.3126 0.0
H2516 H 0.93572 0.46626 0.33939 0.0
H2517 H 0.98093 0.46489 0.34331 0.0
H2518 H 0.9874 0.54033 0.31003 0.0
H2519 H 0.94208 0.5418 0.30621 0.0
C2520 C 0.05653 0.52 0.33141 0.0
C2521 C 0.06763 0.49767 0.32211 0.0
C2522 C 0.03062 0.52135 0.33354 0.0
C2523 C 0.01529 0.50032 0.32664 0.0
C2524 C 0.02648 0.47763 0.31828 0.0
C2525 C 0.05237 0.47635 0.31597 0.0
C2526 C 0.94674 0.48274 0.33324 0.0
C2527 C 0.93533 0.5041 0.32235 0.0
C2528 C 0.97265 0.48186 0.33536 0.0
C2529 C 0.98773 0.50239 0.3268 0.0
C2530 C 0.97626 0.52428 0.31697 0.0
C2531 C 0.95032 0.52509 0.3147 0.0
H2532 H 0.0601 0.00799 0.53907 0.0
H2533 H 0.05634 0.98424 0.6155 0.0
H2534 H 0.01476 0.01085 0.53798 0.0
H2535 H 0.01119 0.98598 0.61414 0.0
H2536 H 0.93663 0.0208 0.61748 0.0
H2537 H 0.98179 0.0201 0.61377 0.0
H2538 H 0.97469 0.98977 0.53967 0.0
H2539 H 0.92947 0.99188 0.54291 0.0
C2540 C 0.04958 0.00269 0.55543 0.0
C2541 C 0.06192 0.99653 0.57755 0.0
C2542 C 0.02355 0.0044 0.55484 0.0
C2543 C 0.00932 0.99955 0.57624 0.0
C2544 C 0.02159 0.99092 0.59759 0.0
C2545 C 0.04753 0.98945 0.59825 0.0
C2546 C 0.94467 0.01463 0.60014 0.0
C2547 C 0.92939 0.00582 0.5807 0.0
C2548 C 0.97061 0.01382 0.59814 0.0
C2549 C 0.98192 0.00391 0.57676 0.0
C2550 C 0.96668 0.99726 0.55651 0.0
C2551 C 0.9407 0.99845 0.55839 0.0
H2552 H 0.92462 0.21521 0.94283 0.0
H2553 H 0.87311 0.27765 0.93617 0.0
H2554 H 0.91905 0.21548 0.98787 0.0
H2555 H 0.86686 0.27729 0.98096 0.0
H2556 H 0.85188 0.25688 0.06235 0.0
H2557 H 0.85257 0.24505 0.01858 0.0
H2558 H 0.93231 0.25719 0.01714 0.0
H2559 H 0.93165 0.26969 0.06081 0.0
C2560 C 0.91128 0.22816 0.95092 0.0
C2561 C 0.89908 0.24628 0.93621 0.0
C2562 C 0.90831 0.22847 0.9766 0.0
C2563 C 0.89257 0.24642 0.98769 0.0
C2564 C 0.87892 0.26314 0.97274 0.0
C2565 C 0.88243 0.26331 0.9472 0.0
C2566 C 0.86961 0.25668 0.05278 0.0
C2567 C 0.89173 0.26433 0.06487 0.0
C2568 C 0.86995 0.24989 0.02782 0.0
C2569 C 0.89249 0.25006 0.01472 0.0
C2570 C 0.91476 0.25661 0.02704 0.0
C2571 C 0.91436 0.26393 0.05189 0.0
H2572 H 0.07012 0.76124 0.4345 0.0
H2573 H 0.14911 0.74752 0.42958 0.0
H2574 H 0.06974 0.74424 0.47657 0.0
H2575 H 0.14874 0.7308 0.47187 0.0
H2576 H 0.07134 0.70625 0.54877 0.0
H2577 H 0.07838 0.7039 0.50406 0.0
H2578 H 0.14007 0.75804 0.5111 0.0
H2579 H 0.13249 0.76091 0.55542 0.0
C2580 C 0.08731 0.75425 0.4423 0.0
C2581 C 0.10968 0.75597 0.42894 0.0
C2582 C 0.08704 0.74422 0.46623 0.0
C2583 C 0.10921 0.73606 0.47734 0.0
C2584 C 0.13141 0.73684 0.46363 0.0
C2585 C 0.1316 0.74651 0.43953 0.0
C2586 C 0.08717 0.71656 0.54086 0.0
C2587 C 0.10144 0.73375 0.55531 0.0
C2588 C 0.09103 0.71542 0.51532 0.0
C2589 C 0.10959 0.73099 0.5042 0.0
C2590 C 0.12575 0.74571 0.51922 0.0
C2591 C 0.12149 0.74732 0.54457 0.0
loop_
_geom_bond_atom_site_label_1
_geom_bond_atom_site_label_2
_geom_bond_distance
_geom_bond_site_symmetry_2
_ccdc_geom_bond_type
Co0 O1 2.216 . S
Co0 O2 2.091 . S
Co0 O4 2.004 . S
Co0 O10 2.021 . S
Co0 O12 2.137 . S
Co0 O13 2.244 . S
O1 Co0 2.216 . S
O1 C8 1.247 . S
O2 Co0 2.091 . S
O2 C8 1.261 . S
C3 O12 1.247 . S
C3 O13 1.272 . S
O4 Co0 2.004 . S
O4 C9 1.259 . S
Co5 O6 2.061 . S
Co5 O11 2.052 . S
Co5 O13 2.135 . S
O6 Co5 2.061 . S
O6 C9 1.235 . S
C7 O10 1.238 . S
C7 O11 1.241 . S
C8 O1 1.247 . S
C8 O2 1.261 . S
C9 O4 1.259 . S
C9 O6 1.235 . S
O10 Co0 2.021 . S
O10 C7 1.238 . S
O11 Co5 2.052 . S
O11 C7 1.241 . S
O12 Co0 2.137 . S
O12 C3 1.247 . S
O13 Co0 2.244 . S
O13 C3 1.272 . S
O13 Co5 2.135 . S
Co14 O15 2.216 . S
Co14 O16 2.091 . S
Co14 O18 2.004 . S
Co14 O24 2.021 . S
Co14 O26 2.137 . S
Co14 O27 2.244 . S
O15 Co14 2.216 . S
O15 C22 1.247 . S
O16 Co14 2.091 . S
O16 C22 1.261 . S
C17 O26 1.247 . S
C17 O27 1.272 . S
O18 Co14 2.004 . S
O18 C23 1.259 . S
Co19 O20 2.061 . S
Co19 O25 2.052 . S
Co19 O27 2.135 . S
O20 Co19 2.061 . S
O20 C23 1.235 . S
C21 O24 1.238 . S
C21 O25 1.241 . S
C22 O15 1.247 . S
C22 O16 1.261 . S
C23 O18 1.259 . S
C23 O20 1.235 . S
O24 Co14 2.021 . S
O24 C21 1.238 . S
O25 Co19 2.052 . S
O25 C21 1.241 . S
O26 Co14 2.137 . S
O26 C17 1.247 . S
O27 Co14 2.244 . S
O27 C17 1.272 . S
O27 Co19 2.135 . S
Co28 O29 2.216 . S
Co28 O30 2.091 . S
Co28 O32 2.004 . S
Co28 O38 2.021 . S
Co28 O40 2.137 . S
Co28 O41 2.244 . S
O29 Co28 2.216 . S
O29 C36 1.247 . S
O30 Co28 2.091 . S
O30 C36 1.261 . S
C31 O40 1.247 . S
C31 O41 1.272 . S
O32 Co28 2.004 . S
O32 C37 1.259 . S
Co33 O34 2.061 . S
Co33 O39 2.052 . S
Co33 O41 2.135 . S
O34 Co33 2.061 . S
O34 C37 1.235 . S
C35 O38 1.238 . S
C35 O39 1.241 . S
C36 O29 1.247 . S
C36 O30 1.261 . S
C37 O32 1.259 . S
C37 O34 1.235 . S
O38 Co28 2.021 . S
O38 C35 1.238 . S
O39 Co33 2.052 . S
O39 C35 1.241 . S
O40 Co28 2.137 . S
O40 C31 1.247 . S
O41 Co28 2.244 . S
O41 C31 1.272 . S
O41 Co33 2.135 . S
Co42 O43 2.216 . S
Co42 O44 2.091 . S
Co42 O46 2.004 1_565 S
Co42 O52 2.021 . S
Co42 O54 2.137 1_565 S
Co42 O55 2.244 1_565 S
O43 Co42 2.216 . S
O43 C50 1.247 . S
O44 Co42 2.091 . S
O44 C50 1.261 . S
C45 O54 1.247 . S
C45 O55 1.272 . S
O46 Co42 2.004 1_545 S
O46 C51 1.259 . S
Co47 O48 2.061 . S
Co47 O53 2.052 . S
Co47 O55 2.135 . S
O48 Co47 2.061 . S
O48 C51 1.235 . S
C49 O52 1.238 . S
C49 O53 1.241 1_565 S
C50 O43 1.247 . S
C50 O44 1.261 . S
C51 O46 1.259 . S
C51 O48 1.235 . S
O52 Co42 2.021 . S
O52 C49 1.238 . S
O53 Co47 2.052 . S
O53 C49 1.241 1_545 S
O54 Co42 2.137 1_545 S
O54 C45 1.247 . S
O55 Co42 2.244 1_545 S
O55 C45 1.272 . S
O55 Co47 2.135 . S
Co56 O57 2.216 . S
Co56 O58 2.091 . S
Co56 O60 2.004 . S
Co56 O66 2.021 . S
Co56 O68 2.137 . S
Co56 O69 2.244 . S
O57 Co56 2.216 . S
O57 C64 1.247 . S
O58 Co56 2.091 . S
O58 C64 1.261 . S
C59 O68 1.247 . S
C59 O69 1.272 . S
O60 Co56 2.004 . S
O60 C65 1.259 . S
Co61 O62 2.061 . S
Co61 O67 2.052 . S
Co61 O69 2.135 . S
O62 Co61 2.061 . S
O62 C65 1.235 . S
C63 O66 1.238 . S
C63 O67 1.241 . S
C64 O57 1.247 . S
C64 O58 1.261 . S
C65 O60 1.259 . S
C65 O62 1.235 . S
O66 Co56 2.021 . S
O66 C63 1.238 . S
O67 Co61 2.052 . S
O67 C63 1.241 . S
O68 Co56 2.137 . S
O68 C59 1.247 . S
O69 Co56 2.244 . S
O69 C59 1.272 . S
O69 Co61 2.135 . S
Co70 O71 2.216 . S
Co70 O72 2.091 . S
Co70 O74 2.004 . S
Co70 O80 2.021 . S
Co70 O82 2.137 . S
Co70 O83 2.244 . S
O71 Co70 2.216 . S
O71 C78 1.247 . S
O72 Co70 2.091 . S
O72 C78 1.261 . S
C73 O82 1.247 . S
C73 O83 1.272 . S
O74 Co70 2.004 . S
O74 C79 1.259 . S
Co75 O76 2.061 . S
Co75 O81 2.052 . S
Co75 O83 2.135 . S
O76 Co75 2.061 . S
O76 C79 1.235 . S
C77 O80 1.238 . S
C77 O81 1.241 . S
C78 O71 1.247 . S
C78 O72 1.261 . S
C79 O74 1.259 . S
C79 O76 1.235 . S
O80 Co70 2.021 . S
O80 C77 1.238 . S
O81 Co75 2.052 . S
O81 C77 1.241 . S
O82 Co70 2.137 . S
O82 C73 1.247 . S
O83 Co70 2.244 . S
O83 C73 1.272 . S
O83 Co75 2.135 . S
Co84 O85 2.216 1_565 S
Co84 O86 2.091 . S
Co84 O88 2.004 . S
Co84 O94 2.021 1_565 S
Co84 O96 2.137 . S
Co84 O97 2.244 1_565 S
O85 Co84 2.216 1_545 S
O85 C92 1.247 1_545 S
O86 Co84 2.091 . S
O86 C92 1.261 . S
C87 O96 1.248 1_545 S
C87 O97 1.271 . S
O88 Co84 2.004 . S
O88 C93 1.259 . S
Co89 O90 2.061 . S
Co89 O95 2.052 . S
Co89 O97 2.135 . S
O90 Co89 2.061 . S
O90 C93 1.235 1_545 S
C91 O94 1.238 . S
C91 O95 1.241 . S
C92 O85 1.247 1_565 S
C92 O86 1.261 . S
C93 O88 1.259 . S
C93 O90 1.235 1_565 S
O94 Co84 2.021 1_545 S
O94 C91 1.238 . S
O95 Co89 2.052 . S
O95 C91 1.241 . S
O96 Co84 2.137 . S
O96 C87 1.248 1_565 S
O97 Co84 2.244 1_545 S
O97 C87 1.271 . S
O97 Co89 2.135 . S
Co98 O99 2.216 . S
Co98 O100 2.091 . S
Co98 O102 2.004 . S
Co98 O108 2.021 . S
Co98 O110 2.137 . S
Co98 O111 2.244 . S
O99 Co98 2.216 . S
O99 C106 1.247 . S
O100 Co98 2.091 . S
O100 C106 1.261 . S
C101 O110 1.247 . S
C101 O111 1.272 . S
O102 Co98 2.004 . S
O102 C107 1.259 . S
Co103 O104 2.061 . S
Co103 O109 2.052 . S
Co103 O111 2.135 . S
O104 Co103 2.061 . S
O104 C107 1.235 . S
C105 O108 1.238 . S
C105 O109 1.241 . S
C106 O99 1.247 . S
C106 O100 1.261 . S
C107 O102 1.259 . S
C107 O104 1.235 . S
O108 Co98 2.021 . S
O108 C105 1.238 . S
O109 Co103 2.052 . S
O109 C105 1.241 . S
O110 Co98 2.137 . S
O110 C101 1.247 . S
O111 Co98 2.244 . S
O111 C101 1.272 . S
O111 Co103 2.135 . S
Co112 O113 2.216 . S
Co112 O114 2.091 . S
Co112 O116 2.004 1_545 S
Co112 O122 2.021 . S
Co112 O124 2.137 1_545 S
Co112 O125 2.244 1_545 S
O113 Co112 2.216 . S
O113 C120 1.247 . S
O114 Co112 2.091 . S
O114 C120 1.261 . S
C115 O124 1.247 . S
C115 O125 1.272 . S
O116 Co112 2.004 1_565 S
O116 C121 1.259 . S
Co117 O118 2.061 . S
Co117 O123 2.052 . S
Co117 O125 2.135 . S
O118 Co117 2.061 . S
O118 C121 1.235 . S
C119 O122 1.238 . S
C119 O123 1.241 1_545 S
C120 O113 1.247 . S
C120 O114 1.261 . S
C121 O116 1.259 . S
C121 O118 1.235 . S
O122 Co112 2.021 . S
O122 C119 1.238 . S
O123 Co117 2.052 . S
O123 C119 1.241 1_565 S
O124 Co112 2.137 1_565 S
O124 C115 1.247 . S
O125 Co112 2.244 1_565 S
O125 C115 1.272 . S
O125 Co117 2.135 . S
Co126 O127 2.216 . S
Co126 O128 2.091 . S
Co126 O130 2.004 . S
Co126 O136 2.021 . S
Co126 O138 2.137 . S
Co126 O139 2.244 . S
O127 Co126 2.216 . S
O127 C134 1.247 . S
O128 Co126 2.091 . S
O128 C134 1.261 . S
C129 O138 1.247 . S
C129 O139 1.272 . S
O130 Co126 2.004 . S
O130 C135 1.259 . S
Co131 O132 2.061 . S
Co131 O137 2.052 . S
Co131 O139 2.135 . S
O132 Co131 2.061 . S
O132 C135 1.235 . S
C133 O136 1.238 . S
C133 O137 1.241 . S
C134 O127 1.247 . S
C134 O128 1.261 . S
C135 O130 1.259 . S
C135 O132 1.235 . S
O136 Co126 2.021 . S
O136 C133 1.238 . S
O137 Co131 2.052 . S
O137 C133 1.241 . S
O138 Co126 2.137 . S
O138 C129 1.247 . S
O139 Co126 2.244 . S
O139 C129 1.272 . S
O139 Co131 2.135 . S
Co140 O141 2.216 . S
Co140 O142 2.091 . S
Co140 O144 2.004 . S
Co140 O150 2.021 1_554 S
Co140 O152 2.137 . S
Co140 O153 2.244 1_554 S
O141 Co140 2.216 . S
O141 C148 1.247 . S
O142 Co140 2.091 . S
O142 C148 1.261 . S
C143 O152 1.247 1_556 S
C143 O153 1.272 . S
O144 Co140 2.004 . S
O144 C149 1.259 1_554 S
Co145 O146 2.061 . S
Co145 O151 2.052 . S
Co145 O153 2.135 . S
O146 Co145 2.061 . S
O146 C149 1.235 . S
C147 O150 1.238 . S
C147 O151 1.241 . S
C148 O141 1.247 . S
C148 O142 1.261 . S
C149 O144 1.259 1_556 S
C149 O146 1.235 . S
O150 Co140 2.021 1_556 S
O150 C147 1.238 . S
O151 Co145 2.052 . S
O151 C147 1.241 . S
O152 Co140 2.137 . S
O152 C143 1.247 1_554 S
O153 Co140 2.244 1_556 S
O153 C143 1.272 . S
O153 Co145 2.135 . S
Co154 O155 2.216 . S
Co154 O156 2.091 . S
Co154 O158 2.004 . S
Co154 O164 2.021 . S
Co154 O166 2.137 . S
Co154 O167 2.244 . S
O155 Co154 2.216 . S
O155 C162 1.247 . S
O156 Co154 2.091 . S
O156 C162 1.261 . S
C157 O166 1.247 . S
C157 O167 1.272 . S
O158 Co154 2.004 . S
O158 C163 1.259 . S
Co159 O160 2.061 . S
Co159 O165 2.052 . S
Co159 O167 2.135 . S
O160 Co159 2.061 . S
O160 C163 1.235 . S
C161 O164 1.238 . S
C161 O165 1.241 . S
C162 O155 1.247 . S
C162 O156 1.261 . S
C163 O158 1.259 . S
C163 O160 1.235 . S
O164 Co154 2.021 . S
O164 C161 1.238 . S
O165 Co159 2.052 . S
O165 C161 1.241 . S
O166 Co154 2.137 . S
O166 C157 1.247 . S
O167 Co154 2.244 . S
O167 C157 1.272 . S
O167 Co159 2.135 . S
Co168 O169 2.216 . S
Co168 O170 2.091 . S
Co168 O172 2.004 . S
Co168 O178 2.021 . S
Co168 O180 2.137 . S
Co168 O181 2.244 . S
O169 Co168 2.216 . S
O169 C176 1.247 . S
O170 Co168 2.091 . S
O170 C176 1.261 . S
C171 O180 1.247 . S
C171 O181 1.272 . S
O172 Co168 2.004 . S
O172 C177 1.259 . S
Co173 O174 2.061 . S
Co173 O179 2.052 . S
Co173 O181 2.135 . S
O174 Co173 2.061 . S
O174 C177 1.235 . S
C175 O178 1.238 . S
C175 O179 1.241 . S
C176 O169 1.247 . S
C176 O170 1.261 . S
C177 O172 1.259 . S
C177 O174 1.235 . S
O178 Co168 2.021 . S
O178 C175 1.238 . S
O179 Co173 2.052 . S
O179 C175 1.241 . S
O180 Co168 2.137 . S
O180 C171 1.247 . S
O181 Co168 2.244 . S
O181 C171 1.272 . S
O181 Co173 2.135 . S
Co182 O183 2.216 . S
Co182 O184 2.091 . S
Co182 O186 2.004 . S
Co182 O192 2.021 . S
Co182 O194 2.137 . S
Co182 O195 2.244 . S
O183 Co182 2.216 . S
O183 C190 1.247 . S
O184 Co182 2.091 . S
O184 C190 1.261 . S
C185 O194 1.247 . S
C185 O195 1.272 . S
O186 Co182 2.004 . S
O186 C191 1.259 . S
Co187 O188 2.061 . S
Co187 O193 2.052 . S
Co187 O195 2.135 . S
O188 Co187 2.061 . S
O188 C191 1.235 . S
C189 O192 1.238 . S
C189 O193 1.241 . S
C190 O183 1.247 . S
C190 O184 1.261 . S
C191 O186 1.259 . S
C191 O188 1.235 . S
O192 Co182 2.021 . S
O192 C189 1.238 . S
O193 Co187 2.052 . S
O193 C189 1.241 . S
O194 Co182 2.137 . S
O194 C185 1.247 . S
O195 Co182 2.244 . S
O195 C185 1.272 . S
O195 Co187 2.135 . S
Co196 O197 2.216 . S
Co196 O198 2.091 . S
Co196 O200 2.004 . S
Co196 O206 2.021 . S
Co196 O208 2.137 . S
Co196 O209 2.244 . S
O197 Co196 2.216 . S
O197 C204 1.247 . S
O198 Co196 2.091 . S
O198 C204 1.261 . S
C199 O208 1.247 . S
C199 O209 1.272 . S
O200 Co196 2.004 . S
O200 C205 1.259 . S
Co201 O202 2.061 . S
Co201 O207 2.052 . S
Co201 O209 2.135 . S
O202 Co201 2.061 . S
O202 C205 1.235 . S
C203 O206 1.238 . S
C203 O207 1.241 . S
C204 O197 1.247 . S
C204 O198 1.261 . S
C205 O200 1.259 . S
C205 O202 1.235 . S
O206 Co196 2.021 . S
O206 C203 1.238 . S
O207 Co201 2.052 . S
O207 C203 1.241 . S
O208 Co196 2.137 . S
O208 C199 1.247 . S
O209 Co196 2.244 . S
O209 C199 1.272 . S
O209 Co201 2.135 . S
Co210 O211 2.216 . S
Co210 O212 2.091 . S
Co210 O214 2.004 1_455 S
Co210 O220 2.021 1_455 S
Co210 O222 2.137 . S
Co210 O223 2.244 . S
O211 Co210 2.216 . S
O211 C218 1.247 . S
O212 Co210 2.091 . S
O212 C218 1.261 . S
C213 O222 1.247 . S
C213 O223 1.272 . S
O214 Co210 2.004 1_655 S
O214 C219 1.259 . S
Co215 O216 2.061 . S
Co215 O221 2.052 . S
Co215 O223 2.135 1_655 S
O216 Co215 2.061 . S
O216 C219 1.235 . S
C217 O220 1.238 . S
C217 O221 1.241 . S
C218 O211 1.247 . S
C218 O212 1.261 . S
C219 O214 1.259 . S
C219 O216 1.235 . S
O220 Co210 2.021 1_655 S
O220 C217 1.238 . S
O221 Co215 2.052 . S
O221 C217 1.241 . S
O222 Co210 2.137 . S
O222 C213 1.247 . S
O223 Co210 2.244 . S
O223 C213 1.272 . S
O223 Co215 2.135 1_455 S
Co224 O225 2.216 . S
Co224 O226 2.091 . S
Co224 O228 2.004 . S
Co224 O234 2.021 . S
Co224 O236 2.137 . S
Co224 O237 2.244 . S
O225 Co224 2.216 . S
O225 C232 1.247 . S
O226 Co224 2.091 . S
O226 C232 1.261 . S
C227 O236 1.247 . S
C227 O237 1.272 . S
O228 Co224 2.004 . S
O228 C233 1.259 . S
Co229 O230 2.061 . S
Co229 O235 2.052 . S
Co229 O237 2.135 . S
O230 Co229 2.061 . S
O230 C233 1.235 . S
C231 O234 1.238 . S
C231 O235 1.241 . S
C232 O225 1.247 . S
C232 O226 1.261 . S
C233 O228 1.259 . S
C233 O230 1.235 . S
O234 Co224 2.021 . S
O234 C231 1.238 . S
O235 Co229 2.052 . S
O235 C231 1.241 . S
O236 Co224 2.137 . S
O236 C227 1.247 . S
O237 Co224 2.244 . S
O237 C227 1.272 . S
O237 Co229 2.135 . S
Co238 O239 2.216 . S
Co238 O240 2.091 . S
Co238 O242 2.004 . S
Co238 O248 2.021 . S
Co238 O250 2.137 . S
Co238 O251 2.244 . S
O239 Co238 2.216 . S
O239 C246 1.247 . S
O240 Co238 2.091 . S
O240 C246 1.261 . S
C241 O250 1.247 . S
C241 O251 1.272 . S
O242 Co238 2.004 . S
O242 C247 1.259 . S
Co243 O244 2.061 . S
Co243 O249 2.052 . S
Co243 O251 2.135 . S
O244 Co243 2.061 . S
O244 C247 1.235 . S
C245 O248 1.238 . S
C245 O249 1.241 . S
C246 O239 1.247 . S
C246 O240 1.261 . S
C247 O242 1.259 . S
C247 O244 1.235 . S
O248 Co238 2.021 . S
O248 C245 1.238 . S
O249 Co243 2.052 . S
O249 C245 1.241 . S
O250 Co238 2.137 . S
O250 C241 1.247 . S
O251 Co238 2.244 . S
O251 C241 1.272 . S
O251 Co243 2.135 . S
Co252 O253 2.216 . S
Co252 O254 2.091 . S
Co252 O256 2.004 . S
Co252 O262 2.021 . S
Co252 O264 2.137 . S
Co252 O265 2.244 . S
O253 Co252 2.216 . S
O253 C260 1.247 . S
O254 Co252 2.091 . S
O254 C260 1.261 . S
C255 O264 1.247 . S
C255 O265 1.272 . S
O256 Co252 2.004 . S
O256 C261 1.259 . S
Co257 O258 2.061 . S
Co257 O263 2.052 . S
Co257 O265 2.135 . S
O258 Co257 2.061 . S
O258 C261 1.235 . S
C259 O262 1.238 . S
C259 O263 1.241 . S
C260 O253 1.247 . S
C260 O254 1.261 . S
C261 O256 1.259 . S
C261 O258 1.235 . S
O262 Co252 2.021 . S
O262 C259 1.238 . S
O263 Co257 2.052 . S
O263 C259 1.241 . S
O264 Co252 2.137 . S
O264 C255 1.247 . S
O265 Co252 2.244 . S
O265 C255 1.272 . S
O265 Co257 2.135 . S
Co266 O267 2.216 . S
Co266 O268 2.091 . S
Co266 O270 2.004 . S
Co266 O276 2.021 . S
Co266 O278 2.137 . S
Co266 O279 2.244 . S
O267 Co266 2.216 . S
O267 C274 1.247 . S
O268 Co266 2.091 . S
O268 C274 1.261 . S
C269 O278 1.247 . S
C269 O279 1.272 . S
O270 Co266 2.004 . S
O270 C275 1.259 . S
Co271 O272 2.061 . S
Co271 O277 2.052 . S
Co271 O279 2.135 . S
O272 Co271 2.061 . S
O272 C275 1.235 . S
C273 O276 1.238 . S
C273 O277 1.241 . S
C274 O267 1.247 . S
C274 O268 1.261 . S
C275 O270 1.259 . S
C275 O272 1.235 . S
O276 Co266 2.021 . S
O276 C273 1.238 . S
O277 Co271 2.052 . S
O277 C273 1.241 . S
O278 Co266 2.137 . S
O278 C269 1.247 . S
O279 Co266 2.244 . S
O279 C269 1.272 . S
O279 Co271 2.135 . S
Co280 O281 2.216 . S
Co280 O282 2.091 . S
Co280 O284 2.004 . S
Co280 O290 2.021 . S
Co280 O292 2.137 . S
Co280 O293 2.244 . S
O281 Co280 2.216 . S
O281 C288 1.247 . S
O282 Co280 2.091 . S
O282 C288 1.261 . S
C283 O292 1.247 . S
C283 O293 1.272 . S
O284 Co280 2.004 . S
O284 C289 1.259 . S
Co285 O286 2.061 . S
Co285 O291 2.052 . S
Co285 O293 2.135 . S
O286 Co285 2.061 . S
O286 C289 1.235 . S
C287 O290 1.238 . S
C287 O291 1.241 . S
C288 O281 1.247 . S
C288 O282 1.261 . S
C289 O284 1.259 . S
C289 O286 1.235 . S
O290 Co280 2.021 . S
O290 C287 1.238 . S
O291 Co285 2.052 . S
O291 C287 1.241 . S
O292 Co280 2.137 . S
O292 C283 1.247 . S
O293 Co280 2.244 . S
O293 C283 1.272 . S
O293 Co285 2.135 . S
Co294 O295 2.216 . S
Co294 O296 2.091 . S
Co294 O298 2.004 1_545 S
Co294 O304 2.021 . S
Co294 O306 2.137 1_545 S
Co294 O307 2.244 1_545 S
O295 Co294 2.216 . S
O295 C302 1.247 . S
O296 Co294 2.091 . S
O296 C302 1.261 . S
C297 O306 1.247 . S
C297 O307 1.272 . S
O298 Co294 2.004 1_565 S
O298 C303 1.259 . S
Co299 O300 2.061 . S
Co299 O305 2.052 . S
Co299 O307 2.135 . S
O300 Co299 2.061 . S
O300 C303 1.235 . S
C301 O304 1.238 . S
C301 O305 1.241 1_545 S
C302 O295 1.247 . S
C302 O296 1.261 . S
C303 O298 1.259 . S
C303 O300 1.235 . S
O304 Co294 2.021 . S
O304 C301 1.238 . S
O305 Co299 2.052 . S
O305 C301 1.241 1_565 S
O306 Co294 2.137 1_565 S
O306 C297 1.247 . S
O307 Co294 2.244 1_565 S
O307 C297 1.272 . S
O307 Co299 2.135 . S
Co308 O309 2.216 . S
Co308 O310 2.091 . S
Co308 O312 2.004 . S
Co308 O318 2.021 . S
Co308 O320 2.137 . S
Co308 O321 2.244 . S
O309 Co308 2.216 . S
O309 C316 1.247 . S
O310 Co308 2.091 . S
O310 C316 1.261 . S
C311 O320 1.247 . S
C311 O321 1.272 . S
O312 Co308 2.004 . S
O312 C317 1.259 . S
Co313 O314 2.061 . S
Co313 O319 2.052 . S
Co313 O321 2.135 . S
O314 Co313 2.061 . S
O314 C317 1.235 . S
C315 O318 1.238 . S
C315 O319 1.241 . S
C316 O309 1.247 . S
C316 O310 1.261 . S
C317 O312 1.259 . S
C317 O314 1.235 . S
O318 Co308 2.021 . S
O318 C315 1.238 . S
O319 Co313 2.052 . S
O319 C315 1.241 . S
O320 Co308 2.137 . S
O320 C311 1.247 . S
O321 Co308 2.244 . S
O321 C311 1.272 . S
O321 Co313 2.135 . S
Co322 O323 2.216 . S
Co322 O324 2.091 . S
Co322 O326 2.004 . S
Co322 O332 2.021 . S
Co322 O334 2.137 . S
Co322 O335 2.244 . S
O323 Co322 2.216 . S
O323 C330 1.247 . S
O324 Co322 2.091 . S
O324 C330 1.261 . S
C325 O334 1.247 . S
C325 O335 1.272 . S
O326 Co322 2.004 . S
O326 C331 1.259 . S
Co327 O328 2.061 . S
Co327 O333 2.052 . S
Co327 O335 2.135 . S
O328 Co327 2.061 . S
O328 C331 1.235 . S
C329 O332 1.238 . S
C329 O333 1.241 . S
C330 O323 1.247 . S
C330 O324 1.261 . S
C331 O326 1.259 . S
C331 O328 1.235 . S
O332 Co322 2.021 . S
O332 C329 1.238 . S
O333 Co327 2.052 . S
O333 C329 1.241 . S
O334 Co322 2.137 . S
O334 C325 1.247 . S
O335 Co322 2.244 . S
O335 C325 1.272 . S
O335 Co327 2.135 . S
Co336 O337 2.216 1_545 S
Co336 O338 2.091 . S
Co336 O340 2.004 . S
Co336 O346 2.021 1_545 S
Co336 O348 2.137 . S
Co336 O349 2.244 1_545 S
O337 Co336 2.216 1_565 S
O337 C344 1.247 1_565 S
O338 Co336 2.091 . S
O338 C344 1.261 . S
C339 O348 1.248 1_565 S
C339 O349 1.271 . S
O340 Co336 2.004 . S
O340 C345 1.259 . S
Co341 O342 2.061 . S
Co341 O347 2.052 . S
Co341 O349 2.135 . S
O342 Co341 2.061 . S
O342 C345 1.235 1_565 S
C343 O346 1.238 . S
C343 O347 1.241 . S
C344 O337 1.247 1_545 S
C344 O338 1.261 . S
C345 O340 1.259 . S
C345 O342 1.235 1_545 S
O346 Co336 2.021 1_565 S
O346 C343 1.238 . S
O347 Co341 2.052 . S
O347 C343 1.241 . S
O348 Co336 2.137 . S
O348 C339 1.248 1_545 S
O349 Co336 2.244 1_565 S
O349 C339 1.271 . S
O349 Co341 2.135 . S
Co350 O351 2.216 . S
Co350 O352 2.091 . S
Co350 O354 2.004 . S
Co350 O360 2.021 . S
Co350 O362 2.137 . S
Co350 O363 2.244 . S
O351 Co350 2.216 . S
O351 C358 1.247 . S
O352 Co350 2.091 . S
O352 C358 1.261 . S
C353 O362 1.247 . S
C353 O363 1.272 . S
O354 Co350 2.004 . S
O354 C359 1.259 . S
Co355 O356 2.061 . S
Co355 O361 2.052 . S
Co355 O363 2.135 . S
O356 Co355 2.061 . S
O356 C359 1.235 . S
C357 O360 1.238 . S
C357 O361 1.241 . S
C358 O351 1.247 . S
C358 O352 1.261 . S
C359 O354 1.259 . S
C359 O356 1.235 . S
O360 Co350 2.021 . S
O360 C357 1.238 . S
O361 Co355 2.052 . S
O361 C357 1.241 . S
O362 Co350 2.137 . S
O362 C353 1.247 . S
O363 Co350 2.244 . S
O363 C353 1.272 . S
O363 Co355 2.135 . S
Co364 O365 2.216 . S
Co364 O366 2.091 . S
Co364 O368 2.004 . S
Co364 O374 2.021 . S
Co364 O376 2.137 . S
Co364 O377 2.244 . S
O365 Co364 2.216 . S
O365 C372 1.247 . S
O366 Co364 2.091 . S
O366 C372 1.261 . S
C367 O376 1.247 . S
C367 O377 1.272 . S
O368 Co364 2.004 . S
O368 C373 1.259 . S
Co369 O370 2.061 . S
Co369 O375 2.052 . S
Co369 O377 2.135 . S
O370 Co369 2.061 . S
O370 C373 1.235 . S
C371 O374 1.238 . S
C371 O375 1.241 . S
C372 O365 1.247 . S
C372 O366 1.261 . S
C373 O368 1.259 . S
C373 O370 1.235 . S
O374 Co364 2.021 . S
O374 C371 1.238 . S
O375 Co369 2.052 . S
O375 C371 1.241 . S
O376 Co364 2.137 . S
O376 C367 1.247 . S
O377 Co364 2.244 . S
O377 C367 1.272 . S
O377 Co369 2.135 . S
Co378 O379 2.216 . S
Co378 O380 2.091 . S
Co378 O382 2.004 . S
Co378 O388 2.021 . S
Co378 O390 2.137 . S
Co378 O391 2.244 . S
O379 Co378 2.216 . S
O379 C386 1.247 . S
O380 Co378 2.091 . S
O380 C386 1.261 . S
C381 O390 1.247 . S
C381 O391 1.272 . S
O382 Co378 2.004 . S
O382 C387 1.259 . S
Co383 O384 2.061 . S
Co383 O389 2.052 . S
Co383 O391 2.135 . S
O384 Co383 2.061 . S
O384 C387 1.235 . S
C385 O388 1.238 . S
C385 O389 1.241 . S
C386 O379 1.247 . S
C386 O380 1.261 . S
C387 O382 1.259 . S
C387 O384 1.235 . S
O388 Co378 2.021 . S
O388 C385 1.238 . S
O389 Co383 2.052 . S
O389 C385 1.241 . S
O390 Co378 2.137 . S
O390 C381 1.247 . S
O391 Co378 2.244 . S
O391 C381 1.272 . S
O391 Co383 2.135 . S
Co392 O393 2.216 . S
Co392 O394 2.091 . S
Co392 O396 2.004 . S
Co392 O402 2.021 1_554 S
Co392 O404 2.137 . S
Co392 O405 2.244 1_554 S
O393 Co392 2.216 . S
O393 C400 1.247 . S
O394 Co392 2.091 . S
O394 C400 1.261 . S
C395 O404 1.247 1_556 S
C395 O405 1.272 . S
O396 Co392 2.004 . S
O396 C401 1.259 1_554 S
Co397 O398 2.061 . S
Co397 O403 2.052 . S
Co397 O405 2.135 . S
O398 Co397 2.061 . S
O398 C401 1.235 . S
C399 O402 1.238 . S
C399 O403 1.241 . S
C400 O393 1.247 . S
C400 O394 1.261 . S
C401 O396 1.259 1_556 S
C401 O398 1.235 . S
O402 Co392 2.021 1_556 S
O402 C399 1.238 . S
O403 Co397 2.052 . S
O403 C399 1.241 . S
O404 Co392 2.137 . S
O404 C395 1.247 1_554 S
O405 Co392 2.244 1_556 S
O405 C395 1.272 . S
O405 Co397 2.135 . S
Co406 O407 2.216 . S
Co406 O408 2.091 . S
Co406 O410 2.004 . S
Co406 O416 2.021 . S
Co406 O418 2.137 . S
Co406 O419 2.244 . S
O407 Co406 2.216 . S
O407 C414 1.247 . S
O408 Co406 2.091 . S
O408 C414 1.261 . S
C409 O418 1.247 . S
C409 O419 1.272 . S
O410 Co406 2.004 . S
O410 C415 1.259 . S
Co411 O412 2.061 . S
Co411 O417 2.052 . S
Co411 O419 2.135 . S
O412 Co411 2.061 . S
O412 C415 1.235 . S
C413 O416 1.238 . S
C413 O417 1.241 . S
C414 O407 1.247 . S
C414 O408 1.261 . S
C415 O410 1.259 . S
C415 O412 1.235 . S
O416 Co406 2.021 . S
O416 C413 1.238 . S
O417 Co411 2.052 . S
O417 C413 1.241 . S
O418 Co406 2.137 . S
O418 C409 1.247 . S
O419 Co406 2.244 . S
O419 C409 1.272 . S
O419 Co411 2.135 . S
Co420 O421 2.216 . S
Co420 O422 2.091 . S
Co420 O424 2.004 1_565 S
Co420 O430 2.021 . S
Co420 O432 2.137 1_565 S
Co420 O433 2.244 1_565 S
O421 Co420 2.216 . S
O421 C428 1.247 . S
O422 Co420 2.091 . S
O422 C428 1.261 . S
C423 O432 1.247 . S
C423 O433 1.272 . S
O424 Co420 2.004 1_545 S
O424 C429 1.259 . S
Co425 O426 2.061 . S
Co425 O431 2.052 . S
Co425 O433 2.135 . S
O426 Co425 2.061 . S
O426 C429 1.235 . S
C427 O430 1.238 . S
C427 O431 1.241 1_565 S
C428 O421 1.247 . S
C428 O422 1.261 . S
C429 O424 1.259 . S
C429 O426 1.235 . S
O430 Co420 2.021 . S
O430 C427 1.238 . S
O431 Co425 2.052 . S
O431 C427 1.241 1_545 S
O432 Co420 2.137 1_545 S
O432 C423 1.247 . S
O433 Co420 2.244 1_545 S
O433 C423 1.272 . S
O433 Co425 2.135 . S
Co434 O435 2.216 . S
Co434 O436 2.091 . S
Co434 O438 2.004 . S
Co434 O444 2.021 . S
Co434 O446 2.137 . S
Co434 O447 2.244 . S
O435 Co434 2.216 . S
O435 C442 1.247 . S
O436 Co434 2.091 . S
O436 C442 1.261 . S
C437 O446 1.247 . S
C437 O447 1.272 . S
O438 Co434 2.004 . S
O438 C443 1.259 . S
Co439 O440 2.061 . S
Co439 O445 2.052 . S
Co439 O447 2.135 . S
O440 Co439 2.061 . S
O440 C443 1.235 . S
C441 O444 1.238 . S
C441 O445 1.241 . S
C442 O435 1.247 . S
C442 O436 1.261 . S
C443 O438 1.259 . S
C443 O440 1.235 . S
O444 Co434 2.021 . S
O444 C441 1.238 . S
O445 Co439 2.052 . S
O445 C441 1.241 . S
O446 Co434 2.137 . S
O446 C437 1.247 . S
O447 Co434 2.244 . S
O447 C437 1.272 . S
O447 Co439 2.135 . S
Co448 O449 2.216 . S
Co448 O450 2.091 . S
Co448 O452 2.004 . S
Co448 O458 2.021 . S
Co448 O460 2.137 . S
Co448 O461 2.244 . S
O449 Co448 2.216 . S
O449 C456 1.247 . S
O450 Co448 2.091 . S
O450 C456 1.261 . S
C451 O460 1.247 . S
C451 O461 1.272 . S
O452 Co448 2.004 . S
O452 C457 1.259 . S
Co453 O454 2.061 . S
Co453 O459 2.052 . S
Co453 O461 2.135 . S
O454 Co453 2.061 . S
O454 C457 1.235 . S
C455 O458 1.238 . S
C455 O459 1.241 . S
C456 O449 1.247 . S
C456 O450 1.261 . S
C457 O452 1.259 . S
C457 O454 1.235 . S
O458 Co448 2.021 . S
O458 C455 1.238 . S
O459 Co453 2.052 . S
O459 C455 1.241 . S
O460 Co448 2.137 . S
O460 C451 1.247 . S
O461 Co448 2.244 . S
O461 C451 1.272 . S
O461 Co453 2.135 . S
Co462 O463 2.216 . S
Co462 O464 2.091 . S
Co462 O466 2.004 1_655 S
Co462 O472 2.021 1_655 S
Co462 O474 2.137 . S
Co462 O475 2.244 . S
O463 Co462 2.216 . S
O463 C470 1.247 . S
O464 Co462 2.091 . S
O464 C470 1.261 . S
C465 O474 1.247 . S
C465 O475 1.272 . S
O466 Co462 2.004 1_455 S
O466 C471 1.259 . S
Co467 O468 2.061 . S
Co467 O473 2.052 . S
Co467 O475 2.135 1_455 S
O468 Co467 2.061 . S
O468 C471 1.235 . S
C469 O472 1.238 . S
C469 O473 1.241 . S
C470 O463 1.247 . S
C470 O464 1.261 . S
C471 O466 1.259 . S
C471 O468 1.235 . S
O472 Co462 2.021 1_455 S
O472 C469 1.238 . S
O473 Co467 2.052 . S
O473 C469 1.241 . S
O474 Co462 2.137 . S
O474 C465 1.247 . S
O475 Co462 2.244 . S
O475 C465 1.272 . S
O475 Co467 2.135 1_655 S
Co476 O477 2.216 . S
Co476 O478 2.091 . S
Co476 O480 2.004 . S
Co476 O486 2.021 . S
Co476 O488 2.137 . S
Co476 O489 2.244 . S
O477 Co476 2.216 . S
O477 C484 1.247 . S
O478 Co476 2.091 . S
O478 C484 1.261 . S
C479 O488 1.247 . S
C479 O489 1.272 . S
O480 Co476 2.004 . S
O480 C485 1.259 . S
Co481 O482 2.061 . S
Co481 O487 2.052 . S
Co481 O489 2.135 . S
O482 Co481 2.061 . S
O482 C485 1.235 . S
C483 O486 1.238 . S
C483 O487 1.241 . S
C484 O477 1.247 . S
C484 O478 1.261 . S
C485 O480 1.259 . S
C485 O482 1.235 . S
O486 Co476 2.021 . S
O486 C483 1.238 . S
O487 Co481 2.052 . S
O487 C483 1.241 . S
O488 Co476 2.137 . S
O488 C479 1.247 . S
O489 Co476 2.244 . S
O489 C479 1.272 . S
O489 Co481 2.135 . S
Co490 O491 2.216 . S
Co490 O492 2.091 . S
Co490 O494 2.004 1_655 S
Co490 O500 2.021 1_655 S
Co490 O502 2.137 . S
Co490 O503 2.244 . S
O491 Co490 2.216 . S
O491 C498 1.247 . S
O492 Co490 2.091 . S
O492 C498 1.261 . S
C493 O502 1.247 . S
C493 O503 1.272 . S
O494 Co490 2.004 1_455 S
O494 C499 1.259 . S
Co495 O496 2.061 . S
Co495 O501 2.052 . S
Co495 O503 2.135 1_455 S
O496 Co495 2.061 . S
O496 C499 1.235 . S
C497 O500 1.238 . S
C497 O501 1.241 . S
C498 O491 1.247 . S
C498 O492 1.261 . S
C499 O494 1.259 . S
C499 O496 1.235 . S
O500 Co490 2.021 1_455 S
O500 C497 1.238 . S
O501 Co495 2.052 . S
O501 C497 1.241 . S
O502 Co490 2.137 . S
O502 C493 1.247 . S
O503 Co490 2.244 . S
O503 C493 1.272 . S
O503 Co495 2.135 1_655 S
Co504 O505 2.216 . S
Co504 O506 2.091 . S
Co504 O508 2.004 . S
Co504 O514 2.021 . S
Co504 O516 2.137 . S
Co504 O517 2.244 . S
O505 Co504 2.216 . S
O505 C512 1.247 . S
O506 Co504 2.091 . S
O506 C512 1.261 . S
C507 O516 1.247 . S
C507 O517 1.272 . S
O508 Co504 2.004 . S
O508 C513 1.259 . S
Co509 O510 2.061 . S
Co509 O515 2.052 . S
Co509 O517 2.135 . S
O510 Co509 2.061 . S
O510 C513 1.235 . S
C511 O514 1.238 . S
C511 O515 1.241 . S
C512 O505 1.247 . S
C512 O506 1.261 . S
C513 O508 1.259 . S
C513 O510 1.235 . S
O514 Co504 2.021 . S
O514 C511 1.238 . S
O515 Co509 2.052 . S
O515 C511 1.241 . S
O516 Co504 2.137 . S
O516 C507 1.247 . S
O517 Co504 2.244 . S
O517 C507 1.272 . S
O517 Co509 2.135 . S
Co518 O519 2.216 . S
Co518 O520 2.091 . S
Co518 O522 2.004 . S
Co518 O528 2.021 . S
Co518 O530 2.137 . S
Co518 O531 2.244 . S
O519 Co518 2.216 . S
O519 C526 1.247 . S
O520 Co518 2.091 . S
O520 C526 1.261 . S
C521 O530 1.247 . S
C521 O531 1.272 . S
O522 Co518 2.004 . S
O522 C527 1.259 . S
Co523 O524 2.061 . S
Co523 O529 2.052 . S
Co523 O531 2.135 . S
O524 Co523 2.061 . S
O524 C527 1.235 . S
C525 O528 1.238 . S
C525 O529 1.241 . S
C526 O519 1.247 . S
C526 O520 1.261 . S
C527 O522 1.259 . S
C527 O524 1.235 . S
O528 Co518 2.021 . S
O528 C525 1.238 . S
O529 Co523 2.052 . S
O529 C525 1.241 . S
O530 Co518 2.137 . S
O530 C521 1.247 . S
O531 Co518 2.244 . S
O531 C521 1.272 . S
O531 Co523 2.135 . S
Co532 O533 2.216 . S
Co532 O534 2.091 . S
Co532 O536 2.004 . S
Co532 O542 2.021 . S
Co532 O544 2.137 . S
Co532 O545 2.244 . S
O533 Co532 2.216 . S
O533 C540 1.247 . S
O534 Co532 2.091 . S
O534 C540 1.261 . S
C535 O544 1.247 . S
C535 O545 1.272 . S
O536 Co532 2.004 . S
O536 C541 1.259 . S
Co537 O538 2.061 . S
Co537 O543 2.052 . S
Co537 O545 2.135 . S
O538 Co537 2.061 . S
O538 C541 1.235 . S
C539 O542 1.238 . S
C539 O543 1.241 . S
C540 O533 1.247 . S
C540 O534 1.261 . S
C541 O536 1.259 . S
C541 O538 1.235 . S
O542 Co532 2.021 . S
O542 C539 1.238 . S
O543 Co537 2.052 . S
O543 C539 1.241 . S
O544 Co532 2.137 . S
O544 C535 1.247 . S
O545 Co532 2.244 . S
O545 C535 1.272 . S
O545 Co537 2.135 . S
Co546 O547 2.216 . S
Co546 O548 2.091 . S
Co546 O550 2.004 . S
Co546 O556 2.021 . S
Co546 O558 2.137 . S
Co546 O559 2.244 . S
O547 Co546 2.216 . S
O547 C554 1.247 . S
O548 Co546 2.091 . S
O548 C554 1.261 . S
C549 O558 1.247 . S
C549 O559 1.272 . S
O550 Co546 2.004 . S
O550 C555 1.259 . S
Co551 O552 2.061 . S
Co551 O557 2.052 . S
Co551 O559 2.135 . S
O552 Co551 2.061 . S
O552 C555 1.235 . S
C553 O556 1.238 . S
C553 O557 1.241 . S
C554 O547 1.247 . S
C554 O548 1.261 . S
C555 O550 1.259 . S
C555 O552 1.235 . S
O556 Co546 2.021 . S
O556 C553 1.238 . S
O557 Co551 2.052 . S
O557 C553 1.241 . S
O558 Co546 2.137 . S
O558 C549 1.247 . S
O559 Co546 2.244 . S
O559 C549 1.272 . S
O559 Co551 2.135 . S
Co560 O561 2.216 1_565 S
Co560 O562 2.091 . S
Co560 O564 2.004 . S
Co560 O570 2.021 1_565 S
Co560 O572 2.137 . S
Co560 O573 2.244 1_565 S
O561 Co560 2.216 1_545 S
O561 C568 1.247 1_545 S
O562 Co560 2.091 . S
O562 C568 1.261 . S
C563 O572 1.247 . S
C563 O573 1.272 1_565 S
O564 Co560 2.004 . S
O564 C569 1.259 . S
Co565 O566 2.038 1_545 S
Co565 O571 2.052 . S
Co565 O573 2.135 . S
O566 Co565 2.038 1_565 S
O566 C569 1.260 . S
C567 O570 1.238 . S
C567 O571 1.241 . S
C568 O561 1.247 1_565 S
C568 O562 1.261 . S
C569 O564 1.259 . S
C569 O566 1.260 . S
O570 Co560 2.021 1_545 S
O570 C567 1.238 . S
O571 Co565 2.052 . S
O571 C567 1.241 . S
O572 Co560 2.137 . S
O572 C563 1.247 . S
O573 Co560 2.244 1_545 S
O573 C563 1.272 1_545 S
O573 Co565 2.135 . S
Co574 O575 2.216 . S
Co574 O576 2.091 . S
Co574 O578 2.004 . S
Co574 O584 2.021 1_556 S
Co574 O586 2.137 . S
Co574 O587 2.244 1_556 S
O575 Co574 2.216 . S
O575 C582 1.247 . S
O576 Co574 2.091 . S
O576 C582 1.261 . S
C577 O586 1.252 . S
C577 O587 1.267 1_556 S
O578 Co574 2.004 . S
O578 C583 1.259 1_556 S
Co579 O580 2.061 . S
Co579 O585 2.052 . S
Co579 O587 2.135 . S
O580 Co579 2.061 . S
O580 C583 1.235 . S
C581 O584 1.238 . S
C581 O585 1.241 . S
C582 O575 1.247 . S
C582 O576 1.261 . S
C583 O578 1.259 1_554 S
C583 O580 1.235 . S
O584 Co574 2.021 1_554 S
O584 C581 1.238 . S
O585 Co579 2.052 . S
O585 C581 1.241 . S
O586 Co574 2.137 . S
O586 C577 1.252 . S
O587 Co574 2.244 1_554 S
O587 C577 1.267 1_554 S
O587 Co579 2.135 . S
Co588 O589 2.216 . S
Co588 O590 2.091 . S
Co588 O592 2.004 . S
Co588 O598 2.021 . S
Co588 O600 2.137 . S
Co588 O601 2.244 . S
O589 Co588 2.216 . S
O589 C596 1.247 . S
O590 Co588 2.091 . S
O590 C596 1.261 . S
C591 O600 1.247 . S
C591 O601 1.272 . S
O592 Co588 2.004 . S
O592 C597 1.259 . S
Co593 O594 2.061 . S
Co593 O599 2.052 . S
Co593 O601 2.135 . S
O594 Co593 2.061 . S
O594 C597 1.235 . S
C595 O598 1.238 . S
C595 O599 1.241 . S
C596 O589 1.247 . S
C596 O590 1.261 . S
C597 O592 1.259 . S
C597 O594 1.235 . S
O598 Co588 2.021 . S
O598 C595 1.238 . S
O599 Co593 2.052 . S
O599 C595 1.241 . S
O600 Co588 2.137 . S
O600 C591 1.247 . S
O601 Co588 2.244 . S
O601 C591 1.272 . S
O601 Co593 2.135 . S
Co602 O603 2.216 . S
Co602 O604 2.091 . S
Co602 O606 2.004 1_455 S
Co602 O612 2.021 1_455 S
Co602 O614 2.137 . S
Co602 O615 2.244 . S
O603 Co602 2.216 . S
O603 C610 1.247 . S
O604 Co602 2.091 . S
O604 C610 1.261 . S
C605 O614 1.247 . S
C605 O615 1.272 . S
O606 Co602 2.004 1_655 S
O606 C611 1.259 . S
Co607 O608 2.061 . S
Co607 O613 2.052 . S
Co607 O615 2.135 1_655 S
O608 Co607 2.061 . S
O608 C611 1.235 . S
C609 O612 1.238 . S
C609 O613 1.241 . S
C610 O603 1.247 . S
C610 O604 1.261 . S
C611 O606 1.259 . S
C611 O608 1.235 . S
O612 Co602 2.021 1_655 S
O612 C609 1.238 . S
O613 Co607 2.052 . S
O613 C609 1.241 . S
O614 Co602 2.137 . S
O614 C605 1.247 . S
O615 Co602 2.244 . S
O615 C605 1.272 . S
O615 Co607 2.135 1_455 S
Co616 O617 2.216 1_545 S
Co616 O618 2.091 . S
Co616 O620 2.004 . S
Co616 O626 2.021 1_545 S
Co616 O628 2.137 . S
Co616 O629 2.244 1_545 S
O617 Co616 2.216 1_565 S
O617 C624 1.247 1_565 S
O618 Co616 2.091 . S
O618 C624 1.261 . S
C619 O628 1.247 . S
C619 O629 1.272 1_545 S
O620 Co616 2.004 . S
O620 C625 1.259 . S
Co621 O622 2.038 1_565 S
Co621 O627 2.052 . S
Co621 O629 2.135 . S
O622 Co621 2.038 1_545 S
O622 C625 1.260 . S
C623 O626 1.238 . S
C623 O627 1.241 . S
C624 O617 1.247 1_545 S
C624 O618 1.261 . S
C625 O620 1.259 . S
C625 O622 1.260 . S
O626 Co616 2.021 1_565 S
O626 C623 1.238 . S
O627 Co621 2.052 . S
O627 C623 1.241 . S
O628 Co616 2.137 . S
O628 C619 1.247 . S
O629 Co616 2.244 1_565 S
O629 C619 1.272 1_565 S
O629 Co621 2.135 . S
Co630 O631 2.216 . S
Co630 O632 2.091 . S
Co630 O634 2.004 . S
Co630 O640 2.021 1_556 S
Co630 O642 2.137 . S
Co630 O643 2.244 1_556 S
O631 Co630 2.216 . S
O631 C638 1.247 . S
O632 Co630 2.091 . S
O632 C638 1.261 . S
C633 O642 1.252 . S
C633 O643 1.267 1_556 S
O634 Co630 2.004 . S
O634 C639 1.259 1_556 S
Co635 O636 2.061 . S
Co635 O641 2.052 . S
Co635 O643 2.135 . S
O636 Co635 2.061 . S
O636 C639 1.235 . S
C637 O640 1.238 . S
C637 O641 1.241 . S
C638 O631 1.247 . S
C638 O632 1.261 . S
C639 O634 1.259 1_554 S
C639 O636 1.235 . S
O640 Co630 2.021 1_554 S
O640 C637 1.238 . S
O641 Co635 2.052 . S
O641 C637 1.241 . S
O642 Co630 2.137 . S
O642 C633 1.252 . S
O643 Co630 2.244 1_554 S
O643 C633 1.267 1_554 S
O643 Co635 2.135 . S
Co644 O645 2.216 . S
Co644 O646 2.091 . S
Co644 O648 2.004 . S
Co644 O654 2.021 . S
Co644 O656 2.137 . S
Co644 O657 2.244 . S
O645 Co644 2.216 . S
O645 C652 1.247 . S
O646 Co644 2.091 . S
O646 C652 1.261 . S
C647 O656 1.247 . S
C647 O657 1.272 . S
O648 Co644 2.004 . S
O648 C653 1.259 . S
Co649 O650 2.061 . S
Co649 O655 2.052 . S
Co649 O657 2.135 . S
O650 Co649 2.061 . S
O650 C653 1.235 . S
C651 O654 1.238 . S
C651 O655 1.241 . S
C652 O645 1.247 . S
C652 O646 1.261 . S
C653 O648 1.259 . S
C653 O650 1.235 . S
O654 Co644 2.021 . S
O654 C651 1.238 . S
O655 Co649 2.052 . S
O655 C651 1.241 . S
O656 Co644 2.137 . S
O656 C647 1.247 . S
O657 Co644 2.244 . S
O657 C647 1.272 . S
O657 Co649 2.135 . S
Co658 O659 2.216 . S
Co658 O660 2.091 . S
Co658 O662 2.004 . S
Co658 O668 2.021 . S
Co658 O670 2.137 . S
Co658 O671 2.244 . S
O659 Co658 2.216 . S
O659 C666 1.247 . S
O660 Co658 2.091 . S
O660 C666 1.261 . S
C661 O670 1.247 . S
C661 O671 1.272 . S
O662 Co658 2.004 . S
O662 C667 1.259 . S
Co663 O664 2.061 . S
Co663 O669 2.052 . S
Co663 O671 2.135 . S
O664 Co663 2.061 . S
O664 C667 1.235 . S
C665 O668 1.238 . S
C665 O669 1.241 . S
C666 O659 1.247 . S
C666 O660 1.261 . S
C667 O662 1.259 . S
C667 O664 1.235 . S
O668 Co658 2.021 . S
O668 C665 1.238 . S
O669 Co663 2.052 . S
O669 C665 1.241 . S
O670 Co658 2.137 . S
O670 C661 1.247 . S
O671 Co658 2.244 . S
O671 C661 1.272 . S
O671 Co663 2.135 . S
H672 C680 0.950 . S
H673 C685 0.950 . S
H674 C682 0.950 . S
H675 C684 0.950 . S
H676 C686 0.950 . S
H677 C688 0.950 . S
H678 C690 0.950 . S
H679 C691 0.950 . S
C680 H672 0.950 . S
C680 C681 1.386 . S
C680 C682 1.391 . S
C681 C680 1.386 . S
C681 C685 1.393 . S
C682 H674 0.950 . S
C682 C680 1.391 . S
C682 C683 1.400 . S
C683 C682 1.400 . S
C683 C684 1.398 . S
C683 C689 1.491 . S
C684 H675 0.950 . S
C684 C683 1.398 . S
C684 C685 1.391 . S
C685 H673 0.950 . S
C685 C681 1.393 . S
C685 C684 1.391 . S
C686 H676 0.950 . S
C686 C687 1.386 . S
C686 C688 1.391 . S
C687 C686 1.386 . S
C687 C691 1.393 . S
C688 H677 0.950 . S
C688 C686 1.391 . S
C688 C689 1.400 . S
C689 C683 1.491 . S
C689 C688 1.400 . S
C689 C690 1.398 . S
C690 H678 0.950 . S
C690 C689 1.398 . S
C690 C691 1.391 . S
C691 H679 0.950 . S
C691 C687 1.393 . S
C691 C690 1.391 . S
H692 C700 0.950 . S
H693 C705 0.950 . S
H694 C702 0.950 . S
H695 C704 0.950 . S
H696 C706 0.950 . S
H697 C708 0.950 . S
H698 C710 0.950 . S
H699 C711 0.950 . S
C700 H692 0.950 . S
C700 C701 1.386 . S
C700 C702 1.391 . S
C701 C700 1.386 . S
C701 C705 1.393 . S
C702 H694 0.950 . S
C702 C700 1.391 . S
C702 C703 1.400 . S
C703 C702 1.400 . S
C703 C704 1.398 . S
C703 C709 1.491 . S
C704 H695 0.950 . S
C704 C703 1.398 . S
C704 C705 1.391 . S
C705 H693 0.950 . S
C705 C701 1.393 . S
C705 C704 1.391 . S
C706 H696 0.950 . S
C706 C707 1.386 . S
C706 C708 1.391 . S
C707 C706 1.386 . S
C707 C711 1.393 . S
C708 H697 0.950 . S
C708 C706 1.391 . S
C708 C709 1.400 . S
C709 C703 1.491 . S
C709 C708 1.400 . S
C709 C710 1.398 . S
C710 H698 0.950 . S
C710 C709 1.398 . S
C710 C711 1.391 . S
C711 H699 0.950 . S
C711 C707 1.393 . S
C711 C710 1.391 . S
H712 C720 0.950 . S
H713 C725 0.950 . S
H714 C722 0.950 . S
H715 C724 0.950 . S
H716 C726 0.950 . S
H717 C728 0.950 . S
H718 C730 0.950 . S
H719 C731 0.950 . S
C720 H712 0.950 . S
C720 C721 1.386 . S
C720 C722 1.391 . S
C721 C720 1.386 . S
C721 C725 1.393 . S
C722 H714 0.950 . S
C722 C720 1.391 . S
C722 C723 1.400 . S
C723 C722 1.400 . S
C723 C724 1.398 . S
C723 C729 1.491 . S
C724 H715 0.950 . S
C724 C723 1.398 . S
C724 C725 1.391 . S
C725 H713 0.950 . S
C725 C721 1.393 . S
C725 C724 1.391 . S
C726 H716 0.950 . S
C726 C727 1.386 . S
C726 C728 1.391 . S
C727 C726 1.386 . S
C727 C731 1.393 . S
C728 H717 0.950 . S
C728 C726 1.391 . S
C728 C729 1.400 . S
C729 C723 1.491 . S
C729 C728 1.400 . S
C729 C730 1.398 . S
C730 H718 0.950 . S
C730 C729 1.398 . S
C730 C731 1.391 . S
C731 H719 0.950 . S
C731 C727 1.393 . S
C731 C730 1.391 . S
H732 C740 0.951 1_545 S
H733 C745 0.950 . S
H734 C742 0.950 1_545 S
H735 C744 0.950 . S
H736 C746 0.950 . S
H737 C748 0.950 . S
H738 C750 0.950 1_545 S
H739 C751 0.950 1_545 S
C740 H732 0.951 1_565 S
C740 C741 1.386 . S
C740 C742 1.391 . S
C741 C740 1.386 . S
C741 C745 1.393 . S
C742 H734 0.950 1_565 S
C742 C740 1.391 . S
C742 C743 1.400 . S
C743 C742 1.400 . S
C743 C744 1.398 . S
C743 C749 1.491 . S
C744 H735 0.950 . S
C744 C743 1.398 . S
C744 C745 1.391 . S
C745 H733 0.950 . S
C745 C741 1.393 . S
C745 C744 1.391 . S
C746 H736 0.950 . S
C746 C747 1.386 . S
C746 C748 1.391 . S
C747 C746 1.386 . S
C747 C751 1.393 . S
C748 H737 0.950 . S
C748 C746 1.391 . S
C748 C749 1.400 . S
C749 C743 1.491 . S
C749 C748 1.400 . S
C749 C750 1.398 . S
C750 H738 0.950 1_565 S
C750 C749 1.398 . S
C750 C751 1.391 . S
C751 H739 0.950 1_565 S
C751 C747 1.393 . S
C751 C750 1.391 . S
H752 C760 0.950 . S
H753 C765 0.950 . S
H754 C762 0.950 . S
H755 C764 0.950 . S
H756 C766 0.950 . S
H757 C768 0.950 . S
H758 C770 0.950 . S
H759 C771 0.950 . S
C760 H752 0.950 . S
C760 C761 1.386 . S
C760 C762 1.391 . S
C761 C760 1.386 . S
C761 C765 1.393 . S
C762 H754 0.950 . S
C762 C760 1.391 . S
C762 C763 1.400 . S
C763 C762 1.400 . S
C763 C764 1.398 . S
C763 C769 1.491 . S
C764 H755 0.950 . S
C764 C763 1.398 . S
C764 C765 1.391 . S
C765 H753 0.950 . S
C765 C761 1.393 . S
C765 C764 1.391 . S
C766 H756 0.950 . S
C766 C767 1.386 . S
C766 C768 1.391 . S
C767 C766 1.386 . S
C767 C771 1.393 . S
C768 H757 0.950 . S
C768 C766 1.391 . S
C768 C769 1.400 . S
C769 C763 1.491 . S
C769 C768 1.400 . S
C769 C770 1.398 . S
C770 H758 0.950 . S
C770 C769 1.398 . S
C770 C771 1.391 . S
C771 H759 0.950 . S
C771 C767 1.393 . S
C771 C770 1.391 . S
H772 C780 0.950 . S
H773 C785 0.950 . S
H774 C782 0.950 . S
H775 C784 0.950 . S
H776 C786 0.950 . S
H777 C788 0.950 . S
H778 C790 0.950 . S
H779 C791 0.950 . S
C780 H772 0.950 . S
C780 C781 1.386 . S
C780 C782 1.391 . S
C781 C780 1.386 . S
C781 C785 1.393 . S
C782 H774 0.950 . S
C782 C780 1.391 . S
C782 C783 1.400 . S
C783 C782 1.400 . S
C783 C784 1.398 . S
C783 C789 1.491 . S
C784 H775 0.950 . S
C784 C783 1.398 . S
C784 C785 1.391 . S
C785 H773 0.950 . S
C785 C781 1.393 . S
C785 C784 1.391 . S
C786 H776 0.950 . S
C786 C787 1.386 . S
C786 C788 1.391 . S
C787 C786 1.386 . S
C787 C791 1.393 . S
C788 H777 0.950 . S
C788 C786 1.391 . S
C788 C789 1.400 . S
C789 C783 1.491 . S
C789 C788 1.400 . S
C789 C790 1.398 . S
C790 H778 0.950 . S
C790 C789 1.398 . S
C790 C791 1.391 . S
C791 H779 0.950 . S
C791 C787 1.393 . S
C791 C790 1.391 . S
H792 C800 0.950 . S
H793 C805 0.950 . S
H794 C802 0.950 . S
H795 C804 0.950 . S
H796 C806 0.950 . S
H797 C808 0.950 . S
H798 C810 0.917 1_545 S
H799 C811 0.950 1_545 S
C800 H792 0.950 . S
C800 C801 1.386 1_545 S
C800 C802 1.391 . S
C801 C800 1.386 1_565 S
C801 C805 1.393 . S
C802 H794 0.950 . S
C802 C800 1.391 . S
C802 C803 1.400 1_545 S
C803 C802 1.400 1_565 S
C803 C804 1.398 . S
C803 C809 1.491 . S
C804 H795 0.950 . S
C804 C803 1.398 . S
C804 C805 1.391 . S
C805 H793 0.950 . S
C805 C801 1.393 . S
C805 C804 1.391 . S
C806 H796 0.950 . S
C806 C807 1.386 . S
C806 C808 1.391 . S
C807 C806 1.386 . S
C807 C811 1.393 . S
C808 H797 0.950 . S
C808 C806 1.391 . S
C808 C809 1.400 . S
C809 C803 1.491 . S
C809 C808 1.400 . S
C809 C810 1.427 . S
C810 H798 0.917 1_565 S
C810 C809 1.427 . S
C810 C811 1.395 . S
C811 H799 0.950 1_565 S
C811 C807 1.393 . S
C811 C810 1.395 . S
H812 C820 0.950 . S
H813 C825 0.950 . S
H814 C822 0.950 . S
H815 C824 0.950 . S
H816 C826 0.950 . S
H817 C828 0.950 . S
H818 C830 0.950 . S
H819 C831 0.950 . S
C820 H812 0.950 . S
C820 C821 1.386 . S
C820 C822 1.391 . S
C821 C820 1.386 . S
C821 C825 1.393 . S
C822 H814 0.950 . S
C822 C820 1.391 . S
C822 C823 1.400 . S
C823 C822 1.400 . S
C823 C824 1.398 . S
C823 C829 1.491 . S
C824 H815 0.950 . S
C824 C823 1.398 . S
C824 C825 1.391 . S
C825 H813 0.950 . S
C825 C821 1.393 . S
C825 C824 1.391 . S
C826 H816 0.950 . S
C826 C827 1.386 . S
C826 C828 1.391 . S
C827 C826 1.386 . S
C827 C831 1.393 . S
C828 H817 0.950 . S
C828 C826 1.391 . S
C828 C829 1.400 . S
C829 C823 1.491 . S
C829 C828 1.400 . S
C829 C830 1.398 . S
C830 H818 0.950 . S
C830 C829 1.398 . S
C830 C831 1.391 . S
C831 H819 0.950 . S
C831 C827 1.393 . S
C831 C830 1.391 . S
H832 C840 0.950 . S
H833 C845 0.950 . S
H834 C842 0.950 . S
H835 C844 0.950 . S
H836 C846 0.950 . S
H837 C848 0.950 . S
H838 C850 0.950 . S
H839 C851 0.950 . S
C840 H832 0.950 . S
C840 C841 1.386 . S
C840 C842 1.391 . S
C841 C840 1.386 . S
C841 C845 1.393 . S
C842 H834 0.950 . S
C842 C840 1.391 . S
C842 C843 1.400 . S
C843 C842 1.400 . S
C843 C844 1.398 . S
C843 C849 1.491 . S
C844 H835 0.950 . S
C844 C843 1.398 . S
C844 C845 1.391 . S
C845 H833 0.950 . S
C845 C841 1.393 . S
C845 C844 1.391 . S
C846 H836 0.950 . S
C846 C847 1.386 . S
C846 C848 1.391 . S
C847 C846 1.386 . S
C847 C851 1.393 . S
C848 H837 0.950 . S
C848 C846 1.391 . S
C848 C849 1.400 . S
C849 C843 1.491 . S
C849 C848 1.400 . S
C849 C850 1.398 . S
C850 H838 0.950 . S
C850 C849 1.398 . S
C850 C851 1.391 . S
C851 H839 0.950 . S
C851 C847 1.393 . S
C851 C850 1.391 . S
H852 C860 0.950 . S
H853 C865 0.950 . S
H854 C862 0.950 . S
H855 C864 0.950 . S
H856 C866 0.950 . S
H857 C868 0.950 . S
H858 C870 0.950 . S
H859 C871 0.950 . S
C860 H852 0.950 . S
C860 C861 1.386 . S
C860 C862 1.391 . S
C861 C860 1.386 . S
C861 C865 1.393 . S
C862 H854 0.950 . S
C862 C860 1.391 . S
C862 C863 1.400 . S
C863 C862 1.400 . S
C863 C864 1.398 . S
C863 C869 1.491 . S
C864 H855 0.950 . S
C864 C863 1.398 . S
C864 C865 1.391 . S
C865 H853 0.950 . S
C865 C861 1.393 . S
C865 C864 1.391 . S
C866 H856 0.950 . S
C866 C867 1.386 . S
C866 C868 1.391 . S
C867 C866 1.386 . S
C867 C871 1.393 . S
C868 H857 0.950 . S
C868 C866 1.391 . S
C868 C869 1.400 . S
C869 C863 1.491 . S
C869 C868 1.400 . S
C869 C870 1.398 . S
C870 H858 0.950 . S
C870 C869 1.398 . S
C870 C871 1.391 . S
C871 H859 0.950 . S
C871 C867 1.393 . S
C871 C870 1.391 . S
H872 C880 0.950 . S
H873 C885 0.950 . S
H874 C882 0.950 . S
H875 C884 0.950 . S
H876 C886 0.950 . S
H877 C888 0.950 . S
H878 C890 0.950 . S
H879 C891 0.950 . S
C880 H872 0.950 . S
C880 C881 1.386 . S
C880 C882 1.391 . S
C881 C880 1.386 . S
C881 C885 1.393 . S
C882 H874 0.950 . S
C882 C880 1.391 . S
C882 C883 1.400 . S
C883 C882 1.400 . S
C883 C884 1.398 . S
C883 C889 1.491 . S
C884 H875 0.950 . S
C884 C883 1.398 . S
C884 C885 1.391 . S
C885 H873 0.950 . S
C885 C881 1.393 . S
C885 C884 1.391 . S
C886 H876 0.950 . S
C886 C887 1.386 . S
C886 C888 1.391 . S
C887 C886 1.386 . S
C887 C891 1.393 . S
C888 H877 0.950 . S
C888 C886 1.391 . S
C888 C889 1.400 . S
C889 C883 1.491 . S
C889 C888 1.400 . S
C889 C890 1.398 . S
C890 H878 0.950 . S
C890 C889 1.398 . S
C890 C891 1.391 . S
C891 H879 0.950 . S
C891 C887 1.393 . S
C891 C890 1.391 . S
H892 C900 0.950 . S
H893 C905 0.950 . S
H894 C902 0.950 . S
H895 C904 0.950 . S
H896 C906 0.950 . S
H897 C908 0.950 . S
H898 C910 0.950 . S
H899 C911 0.950 . S
C900 H892 0.950 . S
C900 C901 1.386 . S
C900 C902 1.391 . S
C901 C900 1.386 . S
C901 C905 1.393 . S
C902 H894 0.950 . S
C902 C900 1.391 . S
C902 C903 1.400 . S
C903 C902 1.400 . S
C903 C904 1.398 . S
C903 C909 1.491 . S
C904 H895 0.950 . S
C904 C903 1.398 . S
C904 C905 1.391 . S
C905 H893 0.950 . S
C905 C901 1.393 . S
C905 C904 1.391 . S
C906 H896 0.950 . S
C906 C907 1.386 . S
C906 C908 1.391 . S
C907 C906 1.386 . S
C907 C911 1.393 . S
C908 H897 0.950 . S
C908 C906 1.391 . S
C908 C909 1.400 . S
C909 C903 1.491 . S
C909 C908 1.400 . S
C909 C910 1.398 . S
C910 H898 0.950 . S
C910 C909 1.398 . S
C910 C911 1.391 . S
C911 H899 0.950 . S
C911 C907 1.393 . S
C911 C910 1.391 . S
H912 C920 0.950 . S
H913 C925 0.950 . S
H914 C922 0.950 . S
H915 C924 0.950 . S
H916 C926 0.950 . S
H917 C928 0.950 . S
H918 C930 0.950 . S
H919 C931 0.950 . S
C920 H912 0.950 . S
C920 C921 1.386 . S
C920 C922 1.391 . S
C921 C920 1.386 . S
C921 C925 1.393 . S
C922 H914 0.950 . S
C922 C920 1.391 . S
C922 C923 1.400 . S
C923 C922 1.400 . S
C923 C924 1.398 . S
C923 C929 1.491 . S
C924 H915 0.950 . S
C924 C923 1.398 . S
C924 C925 1.391 . S
C925 H913 0.950 . S
C925 C921 1.393 . S
C925 C924 1.391 . S
C926 H916 0.950 . S
C926 C927 1.386 . S
C926 C928 1.391 . S
C927 C926 1.386 . S
C927 C931 1.393 . S
C928 H917 0.950 . S
C928 C926 1.391 . S
C928 C929 1.400 . S
C929 C923 1.491 . S
C929 C928 1.400 . S
C929 C930 1.398 . S
C930 H918 0.950 . S
C930 C929 1.398 . S
C930 C931 1.391 . S
C931 H919 0.950 . S
C931 C927 1.393 . S
C931 C930 1.391 . S
H932 C940 0.950 . S
H933 C945 0.950 . S
H934 C942 0.950 . S
H935 C944 0.950 . S
H936 C946 0.950 . S
H937 C948 0.950 . S
H938 C950 0.950 . S
H939 C951 0.950 . S
C940 H932 0.950 . S
C940 C941 1.386 . S
C940 C942 1.391 . S
C941 C940 1.386 . S
C941 C945 1.393 . S
C942 H934 0.950 . S
C942 C940 1.391 . S
C942 C943 1.400 . S
C943 C942 1.400 . S
C943 C944 1.398 . S
C943 C949 1.491 . S
C944 H935 0.950 . S
C944 C943 1.398 . S
C944 C945 1.391 . S
C945 H933 0.950 . S
C945 C941 1.393 . S
C945 C944 1.391 . S
C946 H936 0.950 . S
C946 C947 1.386 . S
C946 C948 1.391 . S
C947 C946 1.386 . S
C947 C951 1.393 . S
C948 H937 0.950 . S
C948 C946 1.391 . S
C948 C949 1.400 . S
C949 C943 1.491 . S
C949 C948 1.400 . S
C949 C950 1.398 . S
C950 H938 0.950 . S
C950 C949 1.398 . S
C950 C951 1.391 . S
C951 H939 0.950 . S
C951 C947 1.393 . S
C951 C950 1.391 . S
H952 C960 0.950 . S
H953 C965 0.950 . S
H954 C962 0.950 . S
H955 C964 0.950 . S
H956 C966 0.950 1_554 S
H957 C968 0.950 . S
H958 C970 0.950 . S
H959 C971 0.950 . S
C960 H952 0.950 . S
C960 C961 1.386 . S
C960 C962 1.391 . S
C961 C960 1.386 . S
C961 C965 1.393 . S
C962 H954 0.950 . S
C962 C960 1.391 . S
C962 C963 1.400 . S
C963 C962 1.400 . S
C963 C964 1.398 . S
C963 C969 1.491 . S
C964 H955 0.950 . S
C964 C963 1.398 . S
C964 C965 1.391 . S
C965 H953 0.950 . S
C965 C961 1.393 . S
C965 C964 1.391 . S
C966 H956 0.950 1_556 S
C966 C967 1.386 . S
C966 C968 1.391 . S
C967 C966 1.386 . S
C967 C971 1.393 . S
C968 H957 0.950 . S
C968 C966 1.391 . S
C968 C969 1.400 . S
C969 C963 1.491 . S
C969 C968 1.400 . S
C969 C970 1.398 . S
C970 H958 0.950 . S
C970 C969 1.398 . S
C970 C971 1.391 . S
C971 H959 0.950 . S
C971 C967 1.393 . S
C971 C970 1.391 . S
H972 C980 0.950 . S
H973 C985 0.950 . S
H974 C982 0.950 . S
H975 C984 0.950 . S
H976 C986 0.950 . S
H977 C988 0.950 . S
H978 C990 0.950 . S
H979 C991 0.950 . S
C980 H972 0.950 . S
C980 C981 1.386 . S
C980 C982 1.391 . S
C981 C980 1.386 . S
C981 C985 1.393 . S
C982 H974 0.950 . S
C982 C980 1.391 . S
C982 C983 1.400 . S
C983 C982 1.400 . S
C983 C984 1.398 . S
C983 C989 1.491 . S
C984 H975 0.950 . S
C984 C983 1.398 . S
C984 C985 1.391 . S
C985 H973 0.950 . S
C985 C981 1.393 . S
C985 C984 1.391 . S
C986 H976 0.950 . S
C986 C987 1.386 . S
C986 C988 1.391 . S
C987 C986 1.386 . S
C987 C991 1.393 . S
C988 H977 0.950 . S
C988 C986 1.391 . S
C988 C989 1.400 . S
C989 C983 1.491 . S
C989 C988 1.400 . S
C989 C990 1.398 . S
C990 H978 0.950 . S
C990 C989 1.398 . S
C990 C991 1.391 . S
C991 H979 0.950 . S
C991 C987 1.393 . S
C991 C990 1.391 . S
H992 C1000 0.950 . S
H993 C1005 0.950 . S
H994 C1002 0.950 . S
H995 C1004 0.950 . S
H996 C1006 0.950 . S
H997 C1008 0.950 . S
H998 C1010 0.950 . S
H999 C1011 0.950 . S
C1000 H992 0.950 . S
C1000 C1001 1.386 . S
C1000 C1002 1.391 . S
C1001 C1000 1.386 . S
C1001 C1005 1.393 . S
C1002 H994 0.950 . S
C1002 C1000 1.391 . S
C1002 C1003 1.400 . S
C1003 C1002 1.400 . S
C1003 C1004 1.398 . S
C1003 C1009 1.491 . S
C1004 H995 0.950 . S
C1004 C1003 1.398 . S
C1004 C1005 1.391 . S
C1005 H993 0.950 . S
C1005 C1001 1.393 . S
C1005 C1004 1.391 . S
C1006 H996 0.950 . S
C1006 C1007 1.386 . S
C1006 C1008 1.391 . S
C1007 C1006 1.386 . S
C1007 C1011 1.393 . S
C1008 H997 0.950 . S
C1008 C1006 1.391 . S
C1008 C1009 1.400 . S
C1009 C1003 1.491 . S
C1009 C1008 1.400 . S
C1009 C1010 1.398 . S
C1010 H998 0.950 . S
C1010 C1009 1.398 . S
C1010 C1011 1.391 . S
C1011 H999 0.950 . S
C1011 C1007 1.393 . S
C1011 C1010 1.391 . S
H1012 C1020 0.950 . S
H1013 C1025 0.950 . S
H1014 C1022 0.950 . S
H1015 C1024 0.950 . S
H1016 C1026 0.950 . S
H1017 C1028 0.950 . S
H1018 C1030 0.950 . S
H1019 C1031 0.950 . S
C1020 H1012 0.950 . S
C1020 C1021 1.386 . S
C1020 C1022 1.391 . S
C1021 C1020 1.386 . S
C1021 C1025 1.393 . S
C1022 H1014 0.950 . S
C1022 C1020 1.391 . S
C1022 C1023 1.400 . S
C1023 C1022 1.400 . S
C1023 C1024 1.398 . S
C1023 C1029 1.491 . S
C1024 H1015 0.950 . S
C1024 C1023 1.398 . S
C1024 C1025 1.391 . S
C1025 H1013 0.950 . S
C1025 C1021 1.393 . S
C1025 C1024 1.391 . S
C1026 H1016 0.950 . S
C1026 C1027 1.386 . S
C1026 C1028 1.391 . S
C1027 C1026 1.386 . S
C1027 C1031 1.393 . S
C1028 H1017 0.950 . S
C1028 C1026 1.391 . S
C1028 C1029 1.400 . S
C1029 C1023 1.491 . S
C1029 C1028 1.400 . S
C1029 C1030 1.398 . S
C1030 H1018 0.950 . S
C1030 C1029 1.398 . S
C1030 C1031 1.391 . S
C1031 H1019 0.950 . S
C1031 C1027 1.393 . S
C1031 C1030 1.391 . S
H1032 C1040 0.950 . S
H1033 C1045 0.950 . S
H1034 C1042 0.950 . S
H1035 C1044 0.950 . S
H1036 C1046 0.950 . S
H1037 C1048 0.950 . S
H1038 C1050 0.950 . S
H1039 C1051 0.950 . S
C1040 H1032 0.950 . S
C1040 C1041 1.386 . S
C1040 C1042 1.391 . S
C1041 C1040 1.386 . S
C1041 C1045 1.393 . S
C1042 H1034 0.950 . S
C1042 C1040 1.391 . S
C1042 C1043 1.400 . S
C1043 C1042 1.400 . S
C1043 C1044 1.398 . S
C1043 C1049 1.491 . S
C1044 H1035 0.950 . S
C1044 C1043 1.398 . S
C1044 C1045 1.391 . S
C1045 H1033 0.950 . S
C1045 C1041 1.393 . S
C1045 C1044 1.391 . S
C1046 H1036 0.950 . S
C1046 C1047 1.386 . S
C1046 C1048 1.391 . S
C1047 C1046 1.386 . S
C1047 C1051 1.393 . S
C1048 H1037 0.950 . S
C1048 C1046 1.391 . S
C1048 C1049 1.400 . S
C1049 C1043 1.491 . S
C1049 C1048 1.400 . S
C1049 C1050 1.398 . S
C1050 H1038 0.950 . S
C1050 C1049 1.398 . S
C1050 C1051 1.391 . S
C1051 H1039 0.950 . S
C1051 C1047 1.393 . S
C1051 C1050 1.391 . S
H1052 C1060 0.950 . S
H1053 C1065 0.950 . S
H1054 C1062 0.950 . S
H1055 C1064 0.950 . S
H1056 C1066 0.950 . S
H1057 C1068 0.950 . S
H1058 C1070 0.950 . S
H1059 C1071 0.950 . S
C1060 H1052 0.950 . S
C1060 C1061 1.386 . S
C1060 C1062 1.391 . S
C1061 C1060 1.386 . S
C1061 C1065 1.393 . S
C1062 H1054 0.950 . S
C1062 C1060 1.391 . S
C1062 C1063 1.400 . S
C1063 C1062 1.400 . S
C1063 C1064 1.398 . S
C1063 C1069 1.491 . S
C1064 H1055 0.950 . S
C1064 C1063 1.398 . S
C1064 C1065 1.391 . S
C1065 H1053 0.950 . S
C1065 C1061 1.393 . S
C1065 C1064 1.391 . S
C1066 H1056 0.950 . S
C1066 C1067 1.386 . S
C1066 C1068 1.391 . S
C1067 C1066 1.386 . S
C1067 C1071 1.393 . S
C1068 H1057 0.950 . S
C1068 C1066 1.391 . S
C1068 C1069 1.400 . S
C1069 C1063 1.491 . S
C1069 C1068 1.400 . S
C1069 C1070 1.398 . S
C1070 H1058 0.950 . S
C1070 C1069 1.398 . S
C1070 C1071 1.391 . S
C1071 H1059 0.950 . S
C1071 C1067 1.393 . S
C1071 C1070 1.391 . S
H1072 C1080 0.950 . S
H1073 C1085 0.950 . S
H1074 C1082 0.950 . S
H1075 C1084 0.950 . S
H1076 C1086 0.950 . S
H1077 C1088 0.950 . S
H1078 C1090 0.950 . S
H1079 C1091 0.950 . S
C1080 H1072 0.950 . S
C1080 C1081 1.386 . S
C1080 C1082 1.391 . S
C1081 C1080 1.386 . S
C1081 C1085 1.393 . S
C1082 H1074 0.950 . S
C1082 C1080 1.391 . S
C1082 C1083 1.400 . S
C1083 C1082 1.400 . S
C1083 C1084 1.398 . S
C1083 C1089 1.491 . S
C1084 H1075 0.950 . S
C1084 C1083 1.398 . S
C1084 C1085 1.391 . S
C1085 H1073 0.950 . S
C1085 C1081 1.393 . S
C1085 C1084 1.391 . S
C1086 H1076 0.950 . S
C1086 C1087 1.386 . S
C1086 C1088 1.391 . S
C1087 C1086 1.386 . S
C1087 C1091 1.393 . S
C1088 H1077 0.950 . S
C1088 C1086 1.391 . S
C1088 C1089 1.400 . S
C1089 C1083 1.491 . S
C1089 C1088 1.400 . S
C1089 C1090 1.398 . S
C1090 H1078 0.950 . S
C1090 C1089 1.398 . S
C1090 C1091 1.391 . S
C1091 H1079 0.950 . S
C1091 C1087 1.393 . S
C1091 C1090 1.391 . S
H1092 C1100 0.950 . S
H1093 C1105 0.950 . S
H1094 C1102 0.950 . S
H1095 C1104 0.950 . S
H1096 C1106 0.950 . S
H1097 C1108 0.950 . S
H1098 C1110 0.950 . S
H1099 C1111 0.950 . S
C1100 H1092 0.950 . S
C1100 C1101 1.386 . S
C1100 C1102 1.391 . S
C1101 C1100 1.386 . S
C1101 C1105 1.393 . S
C1102 H1094 0.950 . S
C1102 C1100 1.391 . S
C1102 C1103 1.400 . S
C1103 C1102 1.400 . S
C1103 C1104 1.398 . S
C1103 C1109 1.491 . S
C1104 H1095 0.950 . S
C1104 C1103 1.398 . S
C1104 C1105 1.391 . S
C1105 H1093 0.950 . S
C1105 C1101 1.393 . S
C1105 C1104 1.391 . S
C1106 H1096 0.950 . S
C1106 C1107 1.386 . S
C1106 C1108 1.391 . S
C1107 C1106 1.386 . S
C1107 C1111 1.393 . S
C1108 H1097 0.950 . S
C1108 C1106 1.391 . S
C1108 C1109 1.400 . S
C1109 C1103 1.491 . S
C1109 C1108 1.400 . S
C1109 C1110 1.398 . S
C1110 H1098 0.950 . S
C1110 C1109 1.398 . S
C1110 C1111 1.391 . S
C1111 H1099 0.950 . S
C1111 C1107 1.393 . S
C1111 C1110 1.391 . S
H1112 C1120 0.950 . S
H1113 C1125 0.950 . S
H1114 C1122 0.950 . S
H1115 C1124 0.950 . S
H1116 C1126 0.950 . S
H1117 C1128 0.950 . S
H1118 C1130 0.950 . S
H1119 C1131 0.950 . S
C1120 H1112 0.950 . S
C1120 C1121 1.386 . S
C1120 C1122 1.391 . S
C1121 C1120 1.386 . S
C1121 C1125 1.393 . S
C1122 H1114 0.950 . S
C1122 C1120 1.391 . S
C1122 C1123 1.400 . S
C1123 C1122 1.400 . S
C1123 C1124 1.398 . S
C1123 C1129 1.491 . S
C1124 H1115 0.950 . S
C1124 C1123 1.398 . S
C1124 C1125 1.391 . S
C1125 H1113 0.950 . S
C1125 C1121 1.393 . S
C1125 C1124 1.391 . S
C1126 H1116 0.950 . S
C1126 C1127 1.386 . S
C1126 C1128 1.391 . S
C1127 C1126 1.386 . S
C1127 C1131 1.393 . S
C1128 H1117 0.950 . S
C1128 C1126 1.391 . S
C1128 C1129 1.400 . S
C1129 C1123 1.491 . S
C1129 C1128 1.400 . S
C1129 C1130 1.398 . S
C1130 H1118 0.950 . S
C1130 C1129 1.398 . S
C1130 C1131 1.391 . S
C1131 H1119 0.950 . S
C1131 C1127 1.393 . S
C1131 C1130 1.391 . S
H1132 C1140 0.950 . S
H1133 C1145 0.950 . S
H1134 C1142 0.950 . S
H1135 C1144 0.950 . S
H1136 C1146 0.950 . S
H1137 C1148 0.950 . S
H1138 C1150 0.950 . S
H1139 C1151 0.950 1_565 S
C1140 H1132 0.950 . S
C1140 C1141 1.386 . S
C1140 C1142 1.391 . S
C1141 C1140 1.386 . S
C1141 C1145 1.393 . S
C1142 H1134 0.950 . S
C1142 C1140 1.391 . S
C1142 C1143 1.400 . S
C1143 C1142 1.400 . S
C1143 C1144 1.398 . S
C1143 C1149 1.491 . S
C1144 H1135 0.950 . S
C1144 C1143 1.398 . S
C1144 C1145 1.391 . S
C1145 H1133 0.950 . S
C1145 C1141 1.393 . S
C1145 C1144 1.391 . S
C1146 H1136 0.950 . S
C1146 C1147 1.386 . S
C1146 C1148 1.391 . S
C1147 C1146 1.386 . S
C1147 C1151 1.393 . S
C1148 H1137 0.950 . S
C1148 C1146 1.391 . S
C1148 C1149 1.400 . S
C1149 C1143 1.491 . S
C1149 C1148 1.400 . S
C1149 C1150 1.398 . S
C1150 H1138 0.950 . S
C1150 C1149 1.398 . S
C1150 C1151 1.391 . S
C1151 H1139 0.950 1_545 S
C1151 C1147 1.393 . S
C1151 C1150 1.391 . S
H1152 C1160 0.950 . S
H1153 C1165 0.950 . S
H1154 C1162 0.950 . S
H1155 C1164 0.950 . S
H1156 C1166 0.950 . S
H1157 C1168 0.950 . S
H1158 C1170 0.950 . S
H1159 C1171 0.950 . S
C1160 H1152 0.950 . S
C1160 C1161 1.386 . S
C1160 C1162 1.391 . S
C1161 C1160 1.386 . S
C1161 C1165 1.393 . S
C1162 H1154 0.950 . S
C1162 C1160 1.391 . S
C1162 C1163 1.400 . S
C1163 C1162 1.400 . S
C1163 C1164 1.398 . S
C1163 C1169 1.491 . S
C1164 H1155 0.950 . S
C1164 C1163 1.398 . S
C1164 C1165 1.391 . S
C1165 H1153 0.950 . S
C1165 C1161 1.393 . S
C1165 C1164 1.391 . S
C1166 H1156 0.950 . S
C1166 C1167 1.386 . S
C1166 C1168 1.391 . S
C1167 C1166 1.386 . S
C1167 C1171 1.393 . S
C1168 H1157 0.950 . S
C1168 C1166 1.391 . S
C1168 C1169 1.400 . S
C1169 C1163 1.491 . S
C1169 C1168 1.400 . S
C1169 C1170 1.398 . S
C1170 H1158 0.950 . S
C1170 C1169 1.398 . S
C1170 C1171 1.391 . S
C1171 H1159 0.950 . S
C1171 C1167 1.393 . S
C1171 C1170 1.391 . S
H1172 C1180 0.950 . S
H1173 C1185 0.950 1_565 S
H1174 C1182 0.950 . S
H1175 C1184 0.950 1_565 S
H1176 C1186 0.950 . S
H1177 C1188 0.950 . S
H1178 C1190 0.950 . S
H1179 C1191 0.950 . S
C1180 H1172 0.950 . S
C1180 C1181 1.386 . S
C1180 C1182 1.391 . S
C1181 C1180 1.386 . S
C1181 C1185 1.393 . S
C1182 H1174 0.950 . S
C1182 C1180 1.391 . S
C1182 C1183 1.400 . S
C1183 C1182 1.400 . S
C1183 C1184 1.398 . S
C1183 C1189 1.491 . S
C1184 H1175 0.950 1_545 S
C1184 C1183 1.398 . S
C1184 C1185 1.391 . S
C1185 H1173 0.950 1_545 S
C1185 C1181 1.393 . S
C1185 C1184 1.391 . S
C1186 H1176 0.950 . S
C1186 C1187 1.386 1_565 S
C1186 C1188 1.391 . S
C1187 C1186 1.386 1_545 S
C1187 C1191 1.393 . S
C1188 H1177 0.950 . S
C1188 C1186 1.391 . S
C1188 C1189 1.400 1_565 S
C1189 C1183 1.491 . S
C1189 C1188 1.400 1_545 S
C1189 C1190 1.398 . S
C1190 H1178 0.950 . S
C1190 C1189 1.398 . S
C1190 C1191 1.391 . S
C1191 H1179 0.950 . S
C1191 C1187 1.393 . S
C1191 C1190 1.391 . S
H1192 C1200 0.950 . S
H1193 C1205 0.950 . S
H1194 C1202 0.950 . S
H1195 C1204 0.950 . S
H1196 C1206 0.950 . S
H1197 C1208 0.950 . S
H1198 C1210 0.950 . S
H1199 C1211 0.950 . S
C1200 H1192 0.950 . S
C1200 C1201 1.386 . S
C1200 C1202 1.391 . S
C1201 C1200 1.386 . S
C1201 C1205 1.393 . S
C1202 H1194 0.950 . S
C1202 C1200 1.391 . S
C1202 C1203 1.400 . S
C1203 C1202 1.400 . S
C1203 C1204 1.398 . S
C1203 C1209 1.491 . S
C1204 H1195 0.950 . S
C1204 C1203 1.398 . S
C1204 C1205 1.391 . S
C1205 H1193 0.950 . S
C1205 C1201 1.393 . S
C1205 C1204 1.391 . S
C1206 H1196 0.950 . S
C1206 C1207 1.386 . S
C1206 C1208 1.391 . S
C1207 C1206 1.386 . S
C1207 C1211 1.393 . S
C1208 H1197 0.950 . S
C1208 C1206 1.391 . S
C1208 C1209 1.400 . S
C1209 C1203 1.491 . S
C1209 C1208 1.400 . S
C1209 C1210 1.398 . S
C1210 H1198 0.950 . S
C1210 C1209 1.398 . S
C1210 C1211 1.391 . S
C1211 H1199 0.950 . S
C1211 C1207 1.393 . S
C1211 C1210 1.391 . S
H1212 C1220 0.950 . S
H1213 C1225 0.950 . S
H1214 C1222 0.950 . S
H1215 C1224 0.950 . S
H1216 C1226 0.950 . S
H1217 C1228 0.950 . S
H1218 C1230 0.950 . S
H1219 C1231 0.950 . S
C1220 H1212 0.950 . S
C1220 C1221 1.386 . S
C1220 C1222 1.391 . S
C1221 C1220 1.386 . S
C1221 C1225 1.393 . S
C1222 H1214 0.950 . S
C1222 C1220 1.391 . S
C1222 C1223 1.400 . S
C1223 C1222 1.400 . S
C1223 C1224 1.398 . S
C1223 C1229 1.491 . S
C1224 H1215 0.950 . S
C1224 C1223 1.398 . S
C1224 C1225 1.391 . S
C1225 H1213 0.950 . S
C1225 C1221 1.393 . S
C1225 C1224 1.391 . S
C1226 H1216 0.950 . S
C1226 C1227 1.386 . S
C1226 C1228 1.391 . S
C1227 C1226 1.386 . S
C1227 C1231 1.393 . S
C1228 H1217 0.950 . S
C1228 C1226 1.391 . S
C1228 C1229 1.400 . S
C1229 C1223 1.491 . S
C1229 C1228 1.400 . S
C1229 C1230 1.398 . S
C1230 H1218 0.950 . S
C1230 C1229 1.398 . S
C1230 C1231 1.391 . S
C1231 H1219 0.950 . S
C1231 C1227 1.393 . S
C1231 C1230 1.391 . S
H1232 C1240 0.950 . S
H1233 C1245 0.950 . S
H1234 C1242 0.950 . S
H1235 C1244 0.950 . S
H1236 C1246 0.950 . S
H1237 C1248 0.950 . S
H1238 C1250 0.950 . S
H1239 C1251 0.950 . S
C1240 H1232 0.950 . S
C1240 C1241 1.386 . S
C1240 C1242 1.391 . S
C1241 C1240 1.386 . S
C1241 C1245 1.393 . S
C1242 H1234 0.950 . S
C1242 C1240 1.391 . S
C1242 C1243 1.400 . S
C1243 C1242 1.400 . S
C1243 C1244 1.398 . S
C1243 C1249 1.491 . S
C1244 H1235 0.950 . S
C1244 C1243 1.398 . S
C1244 C1245 1.391 . S
C1245 H1233 0.950 . S
C1245 C1241 1.393 . S
C1245 C1244 1.391 . S
C1246 H1236 0.950 . S
C1246 C1247 1.386 . S
C1246 C1248 1.391 . S
C1247 C1246 1.386 . S
C1247 C1251 1.393 1_556 S
C1248 H1237 0.950 . S
C1248 C1246 1.391 . S
C1248 C1249 1.400 . S
C1249 C1243 1.491 . S
C1249 C1248 1.400 . S
C1249 C1250 1.398 . S
C1250 H1238 0.950 . S
C1250 C1249 1.398 . S
C1250 C1251 1.391 1_556 S
C1251 H1239 0.950 . S
C1251 C1247 1.393 1_554 S
C1251 C1250 1.391 1_554 S
H1252 C1260 0.950 . S
H1253 C1265 0.950 . S
H1254 C1262 0.950 . S
H1255 C1264 0.950 . S
H1256 C1266 0.950 . S
H1257 C1268 0.950 . S
H1258 C1270 0.950 . S
H1259 C1271 0.950 . S
C1260 H1252 0.950 . S
C1260 C1261 1.386 . S
C1260 C1262 1.391 . S
C1261 C1260 1.386 . S
C1261 C1265 1.393 . S
C1262 H1254 0.950 . S
C1262 C1260 1.391 . S
C1262 C1263 1.400 . S
C1263 C1262 1.400 . S
C1263 C1264 1.398 . S
C1263 C1269 1.491 . S
C1264 H1255 0.950 . S
C1264 C1263 1.398 . S
C1264 C1265 1.391 . S
C1265 H1253 0.950 . S
C1265 C1261 1.393 . S
C1265 C1264 1.391 . S
C1266 H1256 0.950 . S
C1266 C1267 1.386 . S
C1266 C1268 1.391 . S
C1267 C1266 1.386 . S
C1267 C1271 1.393 . S
C1268 H1257 0.950 . S
C1268 C1266 1.391 . S
C1268 C1269 1.400 . S
C1269 C1263 1.491 . S
C1269 C1268 1.400 . S
C1269 C1270 1.398 . S
C1270 H1258 0.950 . S
C1270 C1269 1.398 . S
C1270 C1271 1.391 . S
C1271 H1259 0.950 . S
C1271 C1267 1.393 . S
C1271 C1270 1.391 . S
H1272 C1280 0.950 . S
H1273 C1285 0.950 . S
H1274 C1282 0.950 . S
H1275 C1284 0.950 . S
H1276 C1286 0.950 . S
H1277 C1288 0.950 . S
H1278 C1290 0.950 . S
H1279 C1291 0.950 . S
C1280 H1272 0.950 . S
C1280 C1281 1.386 . S
C1280 C1282 1.391 . S
C1281 C1280 1.386 . S
C1281 C1285 1.393 . S
C1282 H1274 0.950 . S
C1282 C1280 1.391 . S
C1282 C1283 1.400 . S
C1283 C1282 1.400 . S
C1283 C1284 1.398 . S
C1283 C1289 1.491 . S
C1284 H1275 0.950 . S
C1284 C1283 1.398 . S
C1284 C1285 1.391 . S
C1285 H1273 0.950 . S
C1285 C1281 1.393 . S
C1285 C1284 1.391 . S
C1286 H1276 0.950 . S
C1286 C1287 1.386 . S
C1286 C1288 1.391 . S
C1287 C1286 1.386 . S
C1287 C1291 1.393 . S
C1288 H1277 0.950 . S
C1288 C1286 1.391 . S
C1288 C1289 1.400 . S
C1289 C1283 1.491 . S
C1289 C1288 1.400 . S
C1289 C1290 1.398 . S
C1290 H1278 0.950 . S
C1290 C1289 1.398 . S
C1290 C1291 1.391 . S
C1291 H1279 0.950 . S
C1291 C1287 1.393 . S
C1291 C1290 1.391 . S
H1292 C1300 0.950 . S
H1293 C1305 0.950 . S
H1294 C1302 0.950 . S
H1295 C1304 0.950 . S
H1296 C1306 0.950 . S
H1297 C1308 0.950 . S
H1298 C1310 0.950 . S
H1299 C1311 0.950 . S
C1300 H1292 0.950 . S
C1300 C1301 1.386 . S
C1300 C1302 1.391 . S
C1301 C1300 1.386 . S
C1301 C1305 1.393 . S
C1302 H1294 0.950 . S
C1302 C1300 1.391 . S
C1302 C1303 1.400 . S
C1303 C1302 1.400 . S
C1303 C1304 1.398 . S
C1303 C1309 1.491 . S
C1304 H1295 0.950 . S
C1304 C1303 1.398 . S
C1304 C1305 1.391 . S
C1305 H1293 0.950 . S
C1305 C1301 1.393 . S
C1305 C1304 1.391 . S
C1306 H1296 0.950 . S
C1306 C1307 1.386 1_556 S
C1306 C1308 1.391 1_556 S
C1307 C1306 1.386 1_554 S
C1307 C1311 1.393 . S
C1308 H1297 0.950 . S
C1308 C1306 1.391 1_554 S
C1308 C1309 1.400 . S
C1309 C1303 1.491 . S
C1309 C1308 1.400 . S
C1309 C1310 1.398 . S
C1310 H1298 0.950 . S
C1310 C1309 1.398 . S
C1310 C1311 1.391 . S
C1311 H1299 0.950 . S
C1311 C1307 1.393 . S
C1311 C1310 1.391 . S
H1312 C1320 0.950 . S
H1313 C1325 0.950 . S
H1314 C1322 0.950 . S
H1315 C1324 0.950 . S
H1316 C1326 0.950 . S
H1317 C1328 0.950 . S
H1318 C1330 0.950 . S
H1319 C1331 0.950 . S
C1320 H1312 0.950 . S
C1320 C1321 1.386 . S
C1320 C1322 1.391 . S
C1321 C1320 1.386 . S
C1321 C1325 1.393 . S
C1322 H1314 0.950 . S
C1322 C1320 1.391 . S
C1322 C1323 1.400 . S
C1323 C1322 1.400 . S
C1323 C1324 1.398 . S
C1323 C1329 1.491 . S
C1324 H1315 0.950 . S
C1324 C1323 1.398 . S
C1324 C1325 1.391 . S
C1325 H1313 0.950 . S
C1325 C1321 1.393 . S
C1325 C1324 1.391 . S
C1326 H1316 0.950 . S
C1326 C1327 1.386 . S
C1326 C1328 1.391 . S
C1327 C1326 1.386 . S
C1327 C1331 1.393 . S
C1328 H1317 0.950 . S
C1328 C1326 1.391 . S
C1328 C1329 1.400 . S
C1329 C1323 1.491 . S
C1329 C1328 1.400 . S
C1329 C1330 1.398 . S
C1330 H1318 0.950 . S
C1330 C1329 1.398 . S
C1330 C1331 1.391 . S
C1331 H1319 0.950 . S
C1331 C1327 1.393 . S
C1331 C1330 1.391 . S
H1332 C1340 0.950 . S
H1333 C1345 0.950 . S
H1334 C1342 0.950 . S
H1335 C1344 0.950 . S
H1336 C1346 0.950 . S
H1337 C1348 0.950 . S
H1338 C1350 0.950 . S
H1339 C1351 0.950 . S
C1340 H1332 0.950 . S
C1340 C1341 1.386 . S
C1340 C1342 1.391 . S
C1341 C1340 1.386 . S
C1341 C1345 1.393 . S
C1342 H1334 0.950 . S
C1342 C1340 1.391 . S
C1342 C1343 1.400 . S
C1343 C1342 1.400 . S
C1343 C1344 1.398 . S
C1343 C1349 1.491 . S
C1344 H1335 0.950 . S
C1344 C1343 1.398 . S
C1344 C1345 1.391 . S
C1345 H1333 0.950 . S
C1345 C1341 1.393 . S
C1345 C1344 1.391 . S
C1346 H1336 0.950 . S
C1346 C1347 1.386 . S
C1346 C1348 1.391 . S
C1347 C1346 1.386 . S
C1347 C1351 1.393 . S
C1348 H1337 0.950 . S
C1348 C1346 1.391 . S
C1348 C1349 1.400 . S
C1349 C1343 1.491 . S
C1349 C1348 1.400 . S
C1349 C1350 1.398 . S
C1350 H1338 0.950 . S
C1350 C1349 1.398 . S
C1350 C1351 1.391 . S
C1351 H1339 0.950 . S
C1351 C1347 1.393 . S
C1351 C1350 1.391 . S
H1352 C1360 0.950 . S
H1353 C1365 0.950 . S
H1354 C1362 0.950 . S
H1355 C1364 0.950 . S
H1356 C1366 0.950 . S
H1357 C1368 0.950 . S
H1358 C1370 0.950 . S
H1359 C1371 0.950 . S
C1360 H1352 0.950 . S
C1360 C1361 1.386 . S
C1360 C1362 1.391 . S
C1361 C1360 1.386 . S
C1361 C1365 1.393 . S
C1362 H1354 0.950 . S
C1362 C1360 1.391 . S
C1362 C1363 1.400 . S
C1363 C1362 1.400 . S
C1363 C1364 1.398 . S
C1363 C1369 1.491 . S
C1364 H1355 0.950 . S
C1364 C1363 1.398 . S
C1364 C1365 1.391 . S
C1365 H1353 0.950 . S
C1365 C1361 1.393 . S
C1365 C1364 1.391 . S
C1366 H1356 0.950 . S
C1366 C1367 1.386 . S
C1366 C1368 1.391 . S
C1367 C1366 1.386 . S
C1367 C1371 1.393 . S
C1368 H1357 0.950 . S
C1368 C1366 1.391 . S
C1368 C1369 1.400 . S
C1369 C1363 1.491 . S
C1369 C1368 1.400 . S
C1369 C1370 1.398 . S
C1370 H1358 0.950 . S
C1370 C1369 1.398 . S
C1370 C1371 1.391 . S
C1371 H1359 0.950 . S
C1371 C1367 1.393 . S
C1371 C1370 1.391 . S
H1372 C1380 0.950 . S
H1373 C1385 0.950 . S
H1374 C1382 0.950 . S
H1375 C1384 0.950 . S
H1376 C1386 0.950 . S
H1377 C1388 0.950 . S
H1378 C1390 0.950 . S
H1379 C1391 0.950 . S
C1380 H1372 0.950 . S
C1380 C1381 1.386 . S
C1380 C1382 1.391 . S
C1381 C1380 1.386 . S
C1381 C1385 1.393 . S
C1382 H1374 0.950 . S
C1382 C1380 1.391 . S
C1382 C1383 1.400 . S
C1383 C1382 1.400 . S
C1383 C1384 1.398 . S
C1383 C1389 1.491 . S
C1384 H1375 0.950 . S
C1384 C1383 1.398 . S
C1384 C1385 1.391 . S
C1385 H1373 0.950 . S
C1385 C1381 1.393 . S
C1385 C1384 1.391 . S
C1386 H1376 0.950 . S
C1386 C1387 1.386 . S
C1386 C1388 1.391 . S
C1387 C1386 1.386 . S
C1387 C1391 1.393 . S
C1388 H1377 0.950 . S
C1388 C1386 1.391 . S
C1388 C1389 1.400 . S
C1389 C1383 1.491 . S
C1389 C1388 1.400 . S
C1389 C1390 1.398 . S
C1390 H1378 0.950 . S
C1390 C1389 1.398 . S
C1390 C1391 1.391 . S
C1391 H1379 0.950 . S
C1391 C1387 1.393 . S
C1391 C1390 1.391 . S
H1392 C1400 0.950 . S
H1393 C1405 0.950 . S
H1394 C1402 0.950 . S
H1395 C1404 0.950 . S
H1396 C1406 0.950 . S
H1397 C1408 0.950 . S
H1398 C1410 0.950 . S
H1399 C1411 0.950 . S
C1400 H1392 0.950 . S
C1400 C1401 1.386 . S
C1400 C1402 1.391 . S
C1401 C1400 1.386 . S
C1401 C1405 1.393 . S
C1402 H1394 0.950 . S
C1402 C1400 1.391 . S
C1402 C1403 1.400 . S
C1403 C1402 1.400 . S
C1403 C1404 1.398 . S
C1403 C1409 1.491 . S
C1404 H1395 0.950 . S
C1404 C1403 1.398 . S
C1404 C1405 1.391 . S
C1405 H1393 0.950 . S
C1405 C1401 1.393 . S
C1405 C1404 1.391 . S
C1406 H1396 0.950 . S
C1406 C1407 1.386 . S
C1406 C1408 1.391 . S
C1407 C1406 1.386 . S
C1407 C1411 1.393 . S
C1408 H1397 0.950 . S
C1408 C1406 1.391 . S
C1408 C1409 1.400 . S
C1409 C1403 1.491 . S
C1409 C1408 1.400 . S
C1409 C1410 1.398 . S
C1410 H1398 0.950 . S
C1410 C1409 1.398 . S
C1410 C1411 1.391 . S
C1411 H1399 0.950 . S
C1411 C1407 1.393 . S
C1411 C1410 1.391 . S
H1412 C1420 0.950 . S
H1413 C1425 0.950 . S
H1414 C1422 0.950 . S
H1415 C1424 0.950 . S
H1416 C1426 0.950 . S
H1417 C1428 0.950 . S
H1418 C1430 0.950 . S
H1419 C1431 0.950 . S
C1420 H1412 0.950 . S
C1420 C1421 1.386 . S
C1420 C1422 1.391 . S
C1421 C1420 1.386 . S
C1421 C1425 1.393 . S
C1422 H1414 0.950 . S
C1422 C1420 1.391 . S
C1422 C1423 1.400 . S
C1423 C1422 1.400 . S
C1423 C1424 1.398 . S
C1423 C1429 1.491 . S
C1424 H1415 0.950 . S
C1424 C1423 1.398 . S
C1424 C1425 1.391 . S
C1425 H1413 0.950 . S
C1425 C1421 1.393 . S
C1425 C1424 1.391 . S
C1426 H1416 0.950 . S
C1426 C1427 1.386 . S
C1426 C1428 1.391 . S
C1427 C1426 1.386 . S
C1427 C1431 1.393 . S
C1428 H1417 0.950 . S
C1428 C1426 1.391 . S
C1428 C1429 1.400 . S
C1429 C1423 1.491 . S
C1429 C1428 1.400 . S
C1429 C1430 1.398 . S
C1430 H1418 0.950 . S
C1430 C1429 1.398 . S
C1430 C1431 1.391 . S
C1431 H1419 0.950 . S
C1431 C1427 1.393 . S
C1431 C1430 1.391 . S
H1432 C1440 0.950 . S
H1433 C1445 0.950 . S
H1434 C1442 0.950 . S
H1435 C1444 0.950 . S
H1436 C1446 0.950 . S
H1437 C1448 0.950 . S
H1438 C1450 0.950 . S
H1439 C1451 0.950 . S
C1440 H1432 0.950 . S
C1440 C1441 1.386 . S
C1440 C1442 1.391 . S
C1441 C1440 1.386 . S
C1441 C1445 1.393 . S
C1442 H1434 0.950 . S
C1442 C1440 1.391 . S
C1442 C1443 1.400 . S
C1443 C1442 1.400 . S
C1443 C1444 1.398 . S
C1443 C1449 1.491 . S
C1444 H1435 0.950 . S
C1444 C1443 1.398 . S
C1444 C1445 1.391 . S
C1445 H1433 0.950 . S
C1445 C1441 1.393 . S
C1445 C1444 1.391 . S
C1446 H1436 0.950 . S
C1446 C1447 1.386 . S
C1446 C1448 1.391 . S
C1447 C1446 1.386 . S
C1447 C1451 1.393 1_554 S
C1448 H1437 0.950 . S
C1448 C1446 1.391 . S
C1448 C1449 1.400 . S
C1449 C1443 1.491 . S
C1449 C1448 1.400 . S
C1449 C1450 1.398 . S
C1450 H1438 0.950 . S
C1450 C1449 1.398 . S
C1450 C1451 1.391 1_554 S
C1451 H1439 0.950 . S
C1451 C1447 1.393 1_556 S
C1451 C1450 1.391 1_556 S
H1452 C1460 0.950 . S
H1453 C1465 0.950 . S
H1454 C1462 0.950 . S
H1455 C1464 0.950 . S
H1456 C1466 0.950 . S
H1457 C1468 0.950 . S
H1458 C1470 0.950 . S
H1459 C1471 0.950 . S
C1460 H1452 0.950 . S
C1460 C1461 1.386 . S
C1460 C1462 1.391 . S
C1461 C1460 1.386 . S
C1461 C1465 1.393 . S
C1462 H1454 0.950 . S
C1462 C1460 1.391 . S
C1462 C1463 1.400 . S
C1463 C1462 1.400 . S
C1463 C1464 1.398 . S
C1463 C1469 1.491 . S
C1464 H1455 0.950 . S
C1464 C1463 1.398 . S
C1464 C1465 1.391 . S
C1465 H1453 0.950 . S
C1465 C1461 1.393 . S
C1465 C1464 1.391 . S
C1466 H1456 0.950 . S
C1466 C1467 1.386 . S
C1466 C1468 1.391 . S
C1467 C1466 1.386 . S
C1467 C1471 1.393 . S
C1468 H1457 0.950 . S
C1468 C1466 1.391 . S
C1468 C1469 1.400 . S
C1469 C1463 1.491 . S
C1469 C1468 1.400 . S
C1469 C1470 1.398 . S
C1470 H1458 0.950 . S
C1470 C1469 1.398 . S
C1470 C1471 1.391 . S
C1471 H1459 0.950 . S
C1471 C1467 1.393 . S
C1471 C1470 1.391 . S
H1472 C1480 0.950 . S
H1473 C1485 0.950 . S
H1474 C1482 0.950 . S
H1475 C1484 0.950 . S
H1476 C1486 0.950 . S
H1477 C1488 0.950 . S
H1478 C1490 0.950 . S
H1479 C1491 0.950 . S
C1480 H1472 0.950 . S
C1480 C1481 1.386 . S
C1480 C1482 1.391 . S
C1481 C1480 1.386 . S
C1481 C1485 1.393 . S
C1482 H1474 0.950 . S
C1482 C1480 1.391 . S
C1482 C1483 1.400 . S
C1483 C1482 1.400 . S
C1483 C1484 1.398 . S
C1483 C1489 1.491 . S
C1484 H1475 0.950 . S
C1484 C1483 1.398 . S
C1484 C1485 1.391 . S
C1485 H1473 0.950 . S
C1485 C1481 1.393 . S
C1485 C1484 1.391 . S
C1486 H1476 0.950 . S
C1486 C1487 1.386 . S
C1486 C1488 1.391 . S
C1487 C1486 1.386 . S
C1487 C1491 1.393 . S
C1488 H1477 0.950 . S
C1488 C1486 1.391 . S
C1488 C1489 1.400 . S
C1489 C1483 1.491 . S
C1489 C1488 1.400 . S
C1489 C1490 1.398 . S
C1490 H1478 0.950 . S
C1490 C1489 1.398 . S
C1490 C1491 1.391 . S
C1491 H1479 0.950 . S
C1491 C1487 1.393 . S
C1491 C1490 1.391 . S
H1492 C1500 0.950 . S
H1493 C1505 0.950 . S
H1494 C1502 0.950 . S
H1495 C1504 0.950 . S
H1496 C1506 0.950 . S
H1497 C1508 0.950 . S
H1498 C1510 0.950 . S
H1499 C1511 0.950 . S
C1500 H1492 0.950 . S
C1500 C1501 1.386 . S
C1500 C1502 1.391 . S
C1501 C1500 1.386 . S
C1501 C1505 1.393 . S
C1502 H1494 0.950 . S
C1502 C1500 1.391 . S
C1502 C1503 1.400 . S
C1503 C1502 1.400 . S
C1503 C1504 1.398 . S
C1503 C1509 1.491 . S
C1504 H1495 0.950 . S
C1504 C1503 1.398 . S
C1504 C1505 1.391 . S
C1505 H1493 0.950 . S
C1505 C1501 1.393 . S
C1505 C1504 1.391 . S
C1506 H1496 0.950 . S
C1506 C1507 1.386 . S
C1506 C1508 1.391 . S
C1507 C1506 1.386 . S
C1507 C1511 1.393 . S
C1508 H1497 0.950 . S
C1508 C1506 1.391 . S
C1508 C1509 1.400 . S
C1509 C1503 1.491 . S
C1509 C1508 1.400 . S
C1509 C1510 1.398 . S
C1510 H1498 0.950 . S
C1510 C1509 1.398 . S
C1510 C1511 1.391 . S
C1511 H1499 0.950 . S
C1511 C1507 1.393 . S
C1511 C1510 1.391 . S
H1512 C1520 0.950 . S
H1513 C1525 0.950 . S
H1514 C1522 0.950 . S
H1515 C1524 0.950 . S
H1516 C1526 0.950 1_655 S
H1517 C1528 0.950 . S
H1518 C1530 0.950 . S
H1519 C1531 0.950 . S
C1520 H1512 0.950 . S
C1520 C1521 1.386 . S
C1520 C1522 1.391 . S
C1521 C1520 1.386 . S
C1521 C1525 1.393 . S
C1522 H1514 0.950 . S
C1522 C1520 1.391 . S
C1522 C1523 1.400 . S
C1523 C1522 1.400 . S
C1523 C1524 1.398 . S
C1523 C1529 1.491 . S
C1524 H1515 0.950 . S
C1524 C1523 1.398 . S
C1524 C1525 1.391 . S
C1525 H1513 0.950 . S
C1525 C1521 1.393 . S
C1525 C1524 1.391 . S
C1526 H1516 0.950 1_455 S
C1526 C1527 1.386 . S
C1526 C1528 1.391 . S
C1527 C1526 1.386 . S
C1527 C1531 1.393 . S
C1528 H1517 0.950 . S
C1528 C1526 1.391 . S
C1528 C1529 1.400 . S
C1529 C1523 1.491 . S
C1529 C1528 1.400 . S
C1529 C1530 1.398 . S
C1530 H1518 0.950 . S
C1530 C1529 1.398 . S
C1530 C1531 1.391 . S
C1531 H1519 0.950 . S
C1531 C1527 1.393 . S
C1531 C1530 1.391 . S
H1532 C1540 0.950 . S
H1533 C1545 0.950 . S
H1534 C1542 0.950 . S
H1535 C1544 0.950 . S
H1536 C1546 0.950 . S
H1537 C1548 0.950 . S
H1538 C1550 0.950 . S
H1539 C1551 0.950 . S
C1540 H1532 0.950 . S
C1540 C1541 1.386 . S
C1540 C1542 1.391 . S
C1541 C1540 1.386 . S
C1541 C1545 1.393 . S
C1542 H1534 0.950 . S
C1542 C1540 1.391 . S
C1542 C1543 1.400 . S
C1543 C1542 1.400 . S
C1543 C1544 1.398 . S
C1543 C1549 1.491 . S
C1544 H1535 0.950 . S
C1544 C1543 1.398 . S
C1544 C1545 1.391 . S
C1545 H1533 0.950 . S
C1545 C1541 1.393 . S
C1545 C1544 1.391 . S
C1546 H1536 0.950 . S
C1546 C1547 1.386 . S
C1546 C1548 1.391 . S
C1547 C1546 1.386 . S
C1547 C1551 1.393 . S
C1548 H1537 0.950 . S
C1548 C1546 1.391 . S
C1548 C1549 1.400 . S
C1549 C1543 1.491 . S
C1549 C1548 1.400 . S
C1549 C1550 1.398 . S
C1550 H1538 0.950 . S
C1550 C1549 1.398 . S
C1550 C1551 1.391 . S
C1551 H1539 0.950 . S
C1551 C1547 1.393 . S
C1551 C1550 1.391 . S
H1552 C1560 0.950 . S
H1553 C1565 0.950 . S
H1554 C1562 0.950 . S
H1555 C1564 0.950 . S
H1556 C1566 0.950 . S
H1557 C1568 0.950 . S
H1558 C1570 0.950 . S
H1559 C1571 0.950 . S
C1560 H1552 0.950 . S
C1560 C1561 1.386 . S
C1560 C1562 1.391 . S
C1561 C1560 1.386 . S
C1561 C1565 1.393 . S
C1562 H1554 0.950 . S
C1562 C1560 1.391 . S
C1562 C1563 1.400 . S
C1563 C1562 1.400 . S
C1563 C1564 1.398 . S
C1563 C1569 1.491 . S
C1564 H1555 0.950 . S
C1564 C1563 1.398 . S
C1564 C1565 1.391 . S
C1565 H1553 0.950 . S
C1565 C1561 1.393 . S
C1565 C1564 1.391 . S
C1566 H1556 0.950 . S
C1566 C1567 1.386 . S
C1566 C1568 1.391 . S
C1567 C1566 1.386 . S
C1567 C1571 1.393 . S
C1568 H1557 0.950 . S
C1568 C1566 1.391 . S
C1568 C1569 1.400 . S
C1569 C1563 1.491 . S
C1569 C1568 1.400 . S
C1569 C1570 1.398 . S
C1570 H1558 0.950 . S
C1570 C1569 1.398 . S
C1570 C1571 1.391 . S
C1571 H1559 0.950 . S
C1571 C1567 1.393 . S
C1571 C1570 1.391 . S
H1572 C1580 0.950 . S
H1573 C1585 0.950 . S
H1574 C1582 0.950 . S
H1575 C1584 0.950 . S
H1576 C1586 0.950 . S
H1577 C1588 0.950 . S
H1578 C1590 0.950 . S
H1579 C1591 0.950 . S
C1580 H1572 0.950 . S
C1580 C1581 1.386 . S
C1580 C1582 1.391 . S
C1581 C1580 1.386 . S
C1581 C1585 1.393 . S
C1582 H1574 0.950 . S
C1582 C1580 1.391 . S
C1582 C1583 1.400 . S
C1583 C1582 1.400 . S
C1583 C1584 1.398 . S
C1583 C1589 1.491 . S
C1584 H1575 0.950 . S
C1584 C1583 1.398 . S
C1584 C1585 1.391 . S
C1585 H1573 0.950 . S
C1585 C1581 1.393 . S
C1585 C1584 1.391 . S
C1586 H1576 0.950 . S
C1586 C1587 1.386 . S
C1586 C1588 1.391 . S
C1587 C1586 1.386 . S
C1587 C1591 1.393 . S
C1588 H1577 0.950 . S
C1588 C1586 1.391 . S
C1588 C1589 1.400 . S
C1589 C1583 1.491 . S
C1589 C1588 1.400 . S
C1589 C1590 1.398 . S
C1590 H1578 0.950 . S
C1590 C1589 1.398 . S
C1590 C1591 1.391 . S
C1591 H1579 0.950 . S
C1591 C1587 1.393 . S
C1591 C1590 1.391 . S
H1592 C1600 0.950 . S
H1593 C1605 0.950 . S
H1594 C1602 0.950 . S
H1595 C1604 0.950 . S
H1596 C1606 0.950 . S
H1597 C1608 0.950 . S
H1598 C1610 0.950 . S
H1599 C1611 0.950 . S
C1600 H1592 0.950 . S
C1600 C1601 1.386 . S
C1600 C1602 1.391 . S
C1601 C1600 1.386 . S
C1601 C1605 1.393 . S
C1602 H1594 0.950 . S
C1602 C1600 1.391 . S
C1602 C1603 1.400 . S
C1603 C1602 1.400 . S
C1603 C1604 1.398 . S
C1603 C1609 1.491 . S
C1604 H1595 0.950 . S
C1604 C1603 1.398 . S
C1604 C1605 1.391 . S
C1605 H1593 0.950 . S
C1605 C1601 1.393 . S
C1605 C1604 1.391 . S
C1606 H1596 0.950 . S
C1606 C1607 1.386 . S
C1606 C1608 1.391 . S
C1607 C1606 1.386 . S
C1607 C1611 1.393 . S
C1608 H1597 0.950 . S
C1608 C1606 1.391 . S
C1608 C1609 1.400 . S
C1609 C1603 1.491 . S
C1609 C1608 1.400 . S
C1609 C1610 1.398 . S
C1610 H1598 0.950 . S
C1610 C1609 1.398 . S
C1610 C1611 1.391 . S
C1611 H1599 0.950 . S
C1611 C1607 1.393 . S
C1611 C1610 1.391 . S
H1612 C1620 0.950 . S
H1613 C1625 0.950 . S
H1614 C1622 0.950 . S
H1615 C1624 0.950 . S
H1616 C1626 0.950 . S
H1617 C1628 0.950 . S
H1618 C1630 0.950 . S
H1619 C1631 0.950 . S
C1620 H1612 0.950 . S
C1620 C1621 1.386 . S
C1620 C1622 1.391 . S
C1621 C1620 1.386 . S
C1621 C1625 1.393 . S
C1622 H1614 0.950 . S
C1622 C1620 1.391 . S
C1622 C1623 1.400 . S
C1623 C1622 1.400 . S
C1623 C1624 1.398 . S
C1623 C1629 1.491 . S
C1624 H1615 0.950 . S
C1624 C1623 1.398 . S
C1624 C1625 1.391 . S
C1625 H1613 0.950 . S
C1625 C1621 1.393 . S
C1625 C1624 1.391 . S
C1626 H1616 0.950 . S
C1626 C1627 1.386 . S
C1626 C1628 1.391 . S
C1627 C1626 1.386 . S
C1627 C1631 1.393 . S
C1628 H1617 0.950 . S
C1628 C1626 1.391 . S
C1628 C1629 1.400 . S
C1629 C1623 1.491 . S
C1629 C1628 1.400 . S
C1629 C1630 1.398 . S
C1630 H1618 0.950 . S
C1630 C1629 1.398 . S
C1630 C1631 1.391 . S
C1631 H1619 0.950 . S
C1631 C1627 1.393 . S
C1631 C1630 1.391 . S
H1632 C1640 0.950 . S
H1633 C1645 0.950 . S
H1634 C1642 0.950 . S
H1635 C1644 0.950 . S
H1636 C1646 0.950 . S
H1637 C1648 0.950 . S
H1638 C1650 0.950 . S
H1639 C1651 0.950 . S
C1640 H1632 0.950 . S
C1640 C1641 1.386 . S
C1640 C1642 1.391 . S
C1641 C1640 1.386 . S
C1641 C1645 1.393 . S
C1642 H1634 0.950 . S
C1642 C1640 1.391 . S
C1642 C1643 1.400 . S
C1643 C1642 1.400 . S
C1643 C1644 1.398 . S
C1643 C1649 1.491 . S
C1644 H1635 0.950 . S
C1644 C1643 1.398 . S
C1644 C1645 1.391 . S
C1645 H1633 0.950 . S
C1645 C1641 1.393 . S
C1645 C1644 1.391 . S
C1646 H1636 0.950 . S
C1646 C1647 1.386 . S
C1646 C1648 1.391 . S
C1647 C1646 1.386 . S
C1647 C1651 1.393 . S
C1648 H1637 0.950 . S
C1648 C1646 1.391 . S
C1648 C1649 1.400 . S
C1649 C1643 1.491 . S
C1649 C1648 1.400 . S
C1649 C1650 1.398 . S
C1650 H1638 0.950 . S
C1650 C1649 1.398 . S
C1650 C1651 1.391 . S
C1651 H1639 0.950 . S
C1651 C1647 1.393 . S
C1651 C1650 1.391 . S
H1652 C1660 0.950 . S
H1653 C1665 0.950 . S
H1654 C1662 0.950 . S
H1655 C1664 0.950 . S
H1656 C1666 0.950 . S
H1657 C1668 0.950 . S
H1658 C1670 0.950 . S
H1659 C1671 0.950 . S
C1660 H1652 0.950 . S
C1660 C1661 1.386 . S
C1660 C1662 1.391 . S
C1661 C1660 1.386 . S
C1661 C1665 1.393 . S
C1662 H1654 0.950 . S
C1662 C1660 1.391 . S
C1662 C1663 1.400 . S
C1663 C1662 1.400 . S
C1663 C1664 1.398 . S
C1663 C1669 1.491 . S
C1664 H1655 0.950 . S
C1664 C1663 1.398 . S
C1664 C1665 1.391 . S
C1665 H1653 0.950 . S
C1665 C1661 1.393 . S
C1665 C1664 1.391 . S
C1666 H1656 0.950 . S
C1666 C1667 1.386 . S
C1666 C1668 1.391 . S
C1667 C1666 1.386 . S
C1667 C1671 1.393 . S
C1668 H1657 0.950 . S
C1668 C1666 1.391 . S
C1668 C1669 1.400 . S
C1669 C1663 1.491 . S
C1669 C1668 1.400 . S
C1669 C1670 1.398 . S
C1670 H1658 0.950 . S
C1670 C1669 1.398 . S
C1670 C1671 1.391 . S
C1671 H1659 0.950 . S
C1671 C1667 1.393 . S
C1671 C1670 1.391 . S
H1672 C1680 0.950 . S
H1673 C1685 0.950 . S
H1674 C1682 0.950 . S
H1675 C1684 0.950 . S
H1676 C1686 0.950 . S
H1677 C1688 0.950 . S
H1678 C1690 0.950 . S
H1679 C1691 0.950 . S
C1680 H1672 0.950 . S
C1680 C1681 1.386 . S
C1680 C1682 1.391 . S
C1681 C1680 1.386 . S
C1681 C1685 1.393 . S
C1682 H1674 0.950 . S
C1682 C1680 1.391 . S
C1682 C1683 1.400 . S
C1683 C1682 1.400 . S
C1683 C1684 1.398 . S
C1683 C1689 1.491 . S
C1684 H1675 0.950 . S
C1684 C1683 1.398 . S
C1684 C1685 1.391 . S
C1685 H1673 0.950 . S
C1685 C1681 1.393 . S
C1685 C1684 1.391 . S
C1686 H1676 0.950 . S
C1686 C1687 1.386 . S
C1686 C1688 1.391 . S
C1687 C1686 1.386 . S
C1687 C1691 1.393 . S
C1688 H1677 0.950 . S
C1688 C1686 1.391 . S
C1688 C1689 1.400 . S
C1689 C1683 1.491 . S
C1689 C1688 1.400 . S
C1689 C1690 1.398 . S
C1690 H1678 0.950 . S
C1690 C1689 1.398 . S
C1690 C1691 1.391 . S
C1691 H1679 0.950 . S
C1691 C1687 1.393 . S
C1691 C1690 1.391 . S
H1692 C1700 0.950 . S
H1693 C1705 0.950 . S
H1694 C1702 0.950 . S
H1695 C1704 0.950 . S
H1696 C1706 0.950 . S
H1697 C1708 0.950 . S
H1698 C1710 0.950 . S
H1699 C1711 0.950 . S
C1700 H1692 0.950 . S
C1700 C1701 1.386 . S
C1700 C1702 1.391 . S
C1701 C1700 1.386 . S
C1701 C1705 1.393 . S
C1702 H1694 0.950 . S
C1702 C1700 1.391 . S
C1702 C1703 1.400 . S
C1703 C1702 1.400 . S
C1703 C1704 1.398 . S
C1703 C1709 1.491 . S
C1704 H1695 0.950 . S
C1704 C1703 1.398 . S
C1704 C1705 1.391 . S
C1705 H1693 0.950 . S
C1705 C1701 1.393 . S
C1705 C1704 1.391 . S
C1706 H1696 0.950 . S
C1706 C1707 1.386 . S
C1706 C1708 1.391 . S
C1707 C1706 1.386 . S
C1707 C1711 1.393 . S
C1708 H1697 0.950 . S
C1708 C1706 1.391 . S
C1708 C1709 1.400 . S
C1709 C1703 1.491 . S
C1709 C1708 1.400 . S
C1709 C1710 1.398 . S
C1710 H1698 0.950 . S
C1710 C1709 1.398 . S
C1710 C1711 1.391 . S
C1711 H1699 0.950 . S
C1711 C1707 1.393 . S
C1711 C1710 1.391 . S
H1712 C1720 0.950 . S
H1713 C1725 0.950 . S
H1714 C1722 0.950 . S
H1715 C1724 0.950 . S
H1716 C1726 0.950 . S
H1717 C1728 0.950 . S
H1718 C1730 0.950 . S
H1719 C1731 0.950 . S
C1720 H1712 0.950 . S
C1720 C1721 1.386 . S
C1720 C1722 1.391 . S
C1721 C1720 1.386 . S
C1721 C1725 1.393 . S
C1722 H1714 0.950 . S
C1722 C1720 1.391 . S
C1722 C1723 1.400 . S
C1723 C1722 1.400 . S
C1723 C1724 1.398 . S
C1723 C1729 1.491 . S
C1724 H1715 0.950 . S
C1724 C1723 1.398 . S
C1724 C1725 1.391 . S
C1725 H1713 0.950 . S
C1725 C1721 1.393 . S
C1725 C1724 1.391 . S
C1726 H1716 0.950 . S
C1726 C1727 1.386 . S
C1726 C1728 1.391 . S
C1727 C1726 1.386 . S
C1727 C1731 1.393 . S
C1728 H1717 0.950 . S
C1728 C1726 1.391 . S
C1728 C1729 1.400 . S
C1729 C1723 1.491 . S
C1729 C1728 1.400 . S
C1729 C1730 1.398 . S
C1730 H1718 0.950 . S
C1730 C1729 1.398 . S
C1730 C1731 1.391 . S
C1731 H1719 0.950 . S
C1731 C1727 1.393 . S
C1731 C1730 1.391 . S
H1732 C1740 0.950 . S
H1733 C1745 0.950 . S
H1734 C1742 0.950 . S
H1735 C1744 0.950 . S
H1736 C1746 0.950 . S
H1737 C1748 0.950 . S
H1738 C1750 0.950 . S
H1739 C1751 0.950 . S
C1740 H1732 0.950 . S
C1740 C1741 1.386 . S
C1740 C1742 1.391 . S
C1741 C1740 1.386 . S
C1741 C1745 1.393 . S
C1742 H1734 0.950 . S
C1742 C1740 1.391 . S
C1742 C1743 1.400 . S
C1743 C1742 1.400 . S
C1743 C1744 1.398 . S
C1743 C1749 1.491 . S
C1744 H1735 0.950 . S
C1744 C1743 1.398 . S
C1744 C1745 1.391 . S
C1745 H1733 0.950 . S
C1745 C1741 1.393 . S
C1745 C1744 1.391 . S
C1746 H1736 0.950 . S
C1746 C1747 1.386 . S
C1746 C1748 1.391 . S
C1747 C1746 1.386 . S
C1747 C1751 1.393 . S
C1748 H1737 0.950 . S
C1748 C1746 1.391 . S
C1748 C1749 1.400 . S
C1749 C1743 1.491 . S
C1749 C1748 1.400 . S
C1749 C1750 1.398 . S
C1750 H1738 0.950 . S
C1750 C1749 1.398 . S
C1750 C1751 1.391 . S
C1751 H1739 0.950 . S
C1751 C1747 1.393 . S
C1751 C1750 1.391 . S
H1752 C1760 0.950 . S
H1753 C1765 0.950 1_565 S
H1754 C1762 0.950 . S
H1755 C1764 0.950 . S
H1756 C1766 0.950 . S
H1757 C1768 0.950 . S
H1758 C1770 0.950 . S
H1759 C1771 0.950 . S
C1760 H1752 0.950 . S
C1760 C1761 1.386 . S
C1760 C1762 1.391 . S
C1761 C1760 1.386 . S
C1761 C1765 1.393 . S
C1762 H1754 0.950 . S
C1762 C1760 1.391 . S
C1762 C1763 1.400 . S
C1763 C1762 1.400 . S
C1763 C1764 1.398 . S
C1763 C1769 1.491 . S
C1764 H1755 0.950 . S
C1764 C1763 1.398 . S
C1764 C1765 1.391 . S
C1765 H1753 0.950 1_545 S
C1765 C1761 1.393 . S
C1765 C1764 1.391 . S
C1766 H1756 0.950 . S
C1766 C1767 1.386 . S
C1766 C1768 1.391 . S
C1767 C1766 1.386 . S
C1767 C1771 1.393 . S
C1768 H1757 0.950 . S
C1768 C1766 1.391 . S
C1768 C1769 1.400 . S
C1769 C1763 1.491 . S
C1769 C1768 1.400 . S
C1769 C1770 1.398 . S
C1770 H1758 0.950 . S
C1770 C1769 1.398 . S
C1770 C1771 1.391 . S
C1771 H1759 0.950 . S
C1771 C1767 1.393 . S
C1771 C1770 1.391 . S
H1772 C1780 0.950 . S
H1773 C1785 0.950 . S
H1774 C1782 0.950 . S
H1775 C1784 0.950 . S
H1776 C1786 0.950 . S
H1777 C1788 0.950 . S
H1778 C1790 0.950 . S
H1779 C1791 0.950 . S
C1780 H1772 0.950 . S
C1780 C1781 1.386 . S
C1780 C1782 1.391 . S
C1781 C1780 1.386 . S
C1781 C1785 1.393 . S
C1782 H1774 0.950 . S
C1782 C1780 1.391 . S
C1782 C1783 1.400 . S
C1783 C1782 1.400 . S
C1783 C1784 1.398 . S
C1783 C1789 1.491 . S
C1784 H1775 0.950 . S
C1784 C1783 1.398 . S
C1784 C1785 1.391 . S
C1785 H1773 0.950 . S
C1785 C1781 1.393 . S
C1785 C1784 1.391 . S
C1786 H1776 0.950 . S
C1786 C1787 1.386 . S
C1786 C1788 1.391 . S
C1787 C1786 1.386 . S
C1787 C1791 1.393 . S
C1788 H1777 0.950 . S
C1788 C1786 1.391 . S
C1788 C1789 1.400 . S
C1789 C1783 1.491 . S
C1789 C1788 1.400 . S
C1789 C1790 1.398 . S
C1790 H1778 0.950 . S
C1790 C1789 1.398 . S
C1790 C1791 1.391 . S
C1791 H1779 0.950 . S
C1791 C1787 1.393 . S
C1791 C1790 1.391 . S
H1792 C1800 0.950 . S
H1793 C1805 0.950 . S
H1794 C1802 0.950 . S
H1795 C1804 0.950 . S
H1796 C1806 0.950 . S
H1797 C1808 0.950 . S
H1798 C1810 0.950 . S
H1799 C1811 0.950 . S
C1800 H1792 0.950 . S
C1800 C1801 1.386 . S
C1800 C1802 1.391 . S
C1801 C1800 1.386 . S
C1801 C1805 1.393 . S
C1802 H1794 0.950 . S
C1802 C1800 1.391 . S
C1802 C1803 1.400 . S
C1803 C1802 1.400 . S
C1803 C1804 1.398 . S
C1803 C1809 1.491 . S
C1804 H1795 0.950 . S
C1804 C1803 1.398 . S
C1804 C1805 1.391 . S
C1805 H1793 0.950 . S
C1805 C1801 1.393 . S
C1805 C1804 1.391 . S
C1806 H1796 0.950 . S
C1806 C1807 1.386 . S
C1806 C1808 1.391 . S
C1807 C1806 1.386 . S
C1807 C1811 1.393 . S
C1808 H1797 0.950 . S
C1808 C1806 1.391 . S
C1808 C1809 1.400 . S
C1809 C1803 1.491 . S
C1809 C1808 1.400 . S
C1809 C1810 1.398 . S
C1810 H1798 0.950 . S
C1810 C1809 1.398 . S
C1810 C1811 1.391 . S
C1811 H1799 0.950 . S
C1811 C1807 1.393 . S
C1811 C1810 1.391 . S
H1812 C1820 0.950 . S
H1813 C1825 0.950 . S
H1814 C1822 0.950 . S
H1815 C1824 0.950 . S
H1816 C1826 0.950 . S
H1817 C1828 0.950 . S
H1818 C1830 0.950 . S
H1819 C1831 0.950 . S
C1820 H1812 0.950 . S
C1820 C1821 1.386 . S
C1820 C1822 1.391 . S
C1821 C1820 1.386 . S
C1821 C1825 1.393 . S
C1822 H1814 0.950 . S
C1822 C1820 1.391 . S
C1822 C1823 1.400 . S
C1823 C1822 1.400 . S
C1823 C1824 1.398 . S
C1823 C1829 1.491 1_455 S
C1824 H1815 0.950 . S
C1824 C1823 1.398 . S
C1824 C1825 1.391 . S
C1825 H1813 0.950 . S
C1825 C1821 1.393 . S
C1825 C1824 1.391 . S
C1826 H1816 0.950 . S
C1826 C1827 1.386 . S
C1826 C1828 1.391 . S
C1827 C1826 1.386 . S
C1827 C1831 1.393 . S
C1828 H1817 0.950 . S
C1828 C1826 1.391 . S
C1828 C1829 1.400 . S
C1829 C1823 1.491 1_655 S
C1829 C1828 1.400 . S
C1829 C1830 1.398 . S
C1830 H1818 0.950 . S
C1830 C1829 1.398 . S
C1830 C1831 1.391 . S
C1831 H1819 0.950 . S
C1831 C1827 1.393 . S
C1831 C1830 1.391 . S
H1832 C1840 0.950 . S
H1833 C1845 0.950 . S
H1834 C1842 0.950 . S
H1835 C1844 0.950 1_556 S
H1836 C1846 0.950 . S
H1837 C1848 0.950 . S
H1838 C1850 0.950 . S
H1839 C1851 0.950 . S
C1840 H1832 0.950 . S
C1840 C1841 1.386 . S
C1840 C1842 1.391 . S
C1841 C1840 1.386 . S
C1841 C1845 1.393 . S
C1842 H1834 0.950 . S
C1842 C1840 1.391 . S
C1842 C1843 1.400 . S
C1843 C1842 1.400 . S
C1843 C1844 1.398 . S
C1843 C1849 1.491 . S
C1844 H1835 0.950 1_554 S
C1844 C1843 1.398 . S
C1844 C1845 1.391 . S
C1845 H1833 0.950 . S
C1845 C1841 1.393 . S
C1845 C1844 1.391 . S
C1846 H1836 0.950 . S
C1846 C1847 1.386 1_556 S
C1846 C1848 1.391 . S
C1847 C1846 1.386 1_554 S
C1847 C1851 1.393 . S
C1848 H1837 0.950 . S
C1848 C1846 1.391 . S
C1848 C1849 1.400 1_556 S
C1849 C1843 1.491 . S
C1849 C1848 1.400 1_554 S
C1849 C1850 1.398 . S
C1850 H1838 0.950 . S
C1850 C1849 1.398 . S
C1850 C1851 1.391 . S
C1851 H1839 0.950 . S
C1851 C1847 1.393 . S
C1851 C1850 1.391 . S
H1852 C1860 0.950 . S
H1853 C1865 0.950 . S
H1854 C1862 0.950 . S
H1855 C1864 0.950 . S
H1856 C1866 0.950 . S
H1857 C1868 0.950 . S
H1858 C1870 0.950 . S
H1859 C1871 0.950 . S
C1860 H1852 0.950 . S
C1860 C1861 1.386 . S
C1860 C1862 1.391 . S
C1861 C1860 1.386 . S
C1861 C1865 1.393 1_565 S
C1862 H1854 0.950 . S
C1862 C1860 1.391 . S
C1862 C1863 1.400 . S
C1863 C1862 1.400 . S
C1863 C1864 1.398 1_565 S
C1863 C1869 1.491 1_665 S
C1864 H1855 0.950 . S
C1864 C1863 1.398 1_545 S
C1864 C1865 1.391 . S
C1865 H1853 0.950 . S
C1865 C1861 1.393 1_545 S
C1865 C1864 1.391 . S
C1866 H1856 0.950 . S
C1866 C1867 1.386 . S
C1866 C1868 1.391 . S
C1867 C1866 1.386 . S
C1867 C1871 1.393 1_545 S
C1868 H1857 0.950 . S
C1868 C1866 1.391 . S
C1868 C1869 1.400 . S
C1869 C1863 1.491 1_445 S
C1869 C1868 1.400 . S
C1869 C1870 1.398 1_545 S
C1870 H1858 0.950 . S
C1870 C1869 1.398 1_565 S
C1870 C1871 1.391 . S
C1871 H1859 0.950 . S
C1871 C1867 1.393 1_565 S
C1871 C1870 1.391 . S
H1872 C1880 0.950 . S
H1873 C1885 0.950 . S
H1874 C1882 0.950 . S
H1875 C1884 0.950 . S
H1876 C1886 0.950 . S
H1877 C1888 0.950 . S
H1878 C1890 0.950 . S
H1879 C1891 0.950 . S
C1880 H1872 0.950 . S
C1880 C1881 1.386 . S
C1880 C1882 1.391 . S
C1881 C1880 1.386 . S
C1881 C1885 1.393 . S
C1882 H1874 0.950 . S
C1882 C1880 1.391 . S
C1882 C1883 1.400 . S
C1883 C1882 1.400 . S
C1883 C1884 1.398 . S
C1883 C1889 1.491 . S
C1884 H1875 0.950 . S
C1884 C1883 1.398 . S
C1884 C1885 1.391 . S
C1885 H1873 0.950 . S
C1885 C1881 1.393 . S
C1885 C1884 1.391 . S
C1886 H1876 0.950 . S
C1886 C1887 1.386 . S
C1886 C1888 1.391 . S
C1887 C1886 1.386 . S
C1887 C1891 1.393 . S
C1888 H1877 0.950 . S
C1888 C1886 1.391 . S
C1888 C1889 1.400 . S
C1889 C1883 1.491 . S
C1889 C1888 1.400 . S
C1889 C1890 1.398 . S
C1890 H1878 0.950 . S
C1890 C1889 1.398 . S
C1890 C1891 1.391 . S
C1891 H1879 0.950 . S
C1891 C1887 1.393 . S
C1891 C1890 1.391 . S
H1892 C1900 0.950 . S
H1893 C1905 0.950 . S
H1894 C1902 0.950 . S
H1895 C1904 0.950 . S
H1896 C1906 0.950 . S
H1897 C1908 0.950 . S
H1898 C1910 0.950 . S
H1899 C1911 0.950 . S
C1900 H1892 0.950 . S
C1900 C1901 1.386 . S
C1900 C1902 1.391 . S
C1901 C1900 1.386 . S
C1901 C1905 1.393 . S
C1902 H1894 0.950 . S
C1902 C1900 1.391 . S
C1902 C1903 1.400 . S
C1903 C1902 1.400 . S
C1903 C1904 1.398 . S
C1903 C1909 1.491 . S
C1904 H1895 0.950 . S
C1904 C1903 1.398 . S
C1904 C1905 1.391 . S
C1905 H1893 0.950 . S
C1905 C1901 1.393 . S
C1905 C1904 1.391 . S
C1906 H1896 0.950 . S
C1906 C1907 1.386 . S
C1906 C1908 1.391 . S
C1907 C1906 1.386 . S
C1907 C1911 1.393 . S
C1908 H1897 0.950 . S
C1908 C1906 1.391 . S
C1908 C1909 1.400 . S
C1909 C1903 1.491 . S
C1909 C1908 1.400 . S
C1909 C1910 1.398 . S
C1910 H1898 0.950 . S
C1910 C1909 1.398 . S
C1910 C1911 1.391 . S
C1911 H1899 0.950 . S
C1911 C1907 1.393 . S
C1911 C1910 1.391 . S
H1912 C1920 0.950 . S
H1913 C1925 0.950 . S
H1914 C1922 0.950 . S
H1915 C1924 0.950 . S
H1916 C1926 0.950 . S
H1917 C1928 0.950 1_554 S
H1918 C1930 0.950 . S
H1919 C1931 0.950 . S
C1920 H1912 0.950 . S
C1920 C1921 1.386 . S
C1920 C1922 1.391 . S
C1921 C1920 1.386 . S
C1921 C1925 1.393 1_556 S
C1922 H1914 0.950 . S
C1922 C1920 1.391 . S
C1922 C1923 1.400 . S
C1923 C1922 1.400 . S
C1923 C1924 1.398 1_556 S
C1923 C1929 1.491 . S
C1924 H1915 0.950 . S
C1924 C1923 1.398 1_554 S
C1924 C1925 1.391 . S
C1925 H1913 0.950 . S
C1925 C1921 1.393 1_554 S
C1925 C1924 1.391 . S
C1926 H1916 0.950 . S
C1926 C1927 1.386 . S
C1926 C1928 1.391 . S
C1927 C1926 1.386 . S
C1927 C1931 1.393 . S
C1928 H1917 0.950 1_556 S
C1928 C1926 1.391 . S
C1928 C1929 1.400 . S
C1929 C1923 1.491 . S
C1929 C1928 1.400 . S
C1929 C1930 1.398 . S
C1930 H1918 0.950 . S
C1930 C1929 1.398 . S
C1930 C1931 1.391 . S
C1931 H1919 0.950 . S
C1931 C1927 1.393 . S
C1931 C1930 1.391 . S
H1932 C1940 0.950 . S
H1933 C1945 0.950 . S
H1934 C1942 0.950 . S
H1935 C1944 0.950 . S
H1936 C1946 0.950 . S
H1937 C1948 0.950 . S
H1938 C1950 0.950 . S
H1939 C1951 0.950 . S
C1940 H1932 0.950 . S
C1940 C1941 1.386 . S
C1940 C1942 1.391 . S
C1941 C1940 1.386 . S
C1941 C1945 1.393 . S
C1942 H1934 0.950 . S
C1942 C1940 1.391 . S
C1942 C1943 1.400 . S
C1943 C1942 1.400 . S
C1943 C1944 1.398 1_565 S
C1943 C1949 1.491 1_565 S
C1944 H1935 0.950 . S
C1944 C1943 1.398 1_545 S
C1944 C1945 1.391 1_545 S
C1945 H1933 0.950 . S
C1945 C1941 1.393 . S
C1945 C1944 1.391 1_565 S
C1946 H1936 0.950 . S
C1946 C1947 1.386 . S
C1946 C1948 1.391 . S
C1947 C1946 1.386 . S
C1947 C1951 1.393 . S
C1948 H1937 0.950 . S
C1948 C1946 1.391 . S
C1948 C1949 1.400 . S
C1949 C1943 1.491 1_545 S
C1949 C1948 1.400 . S
C1949 C1950 1.398 1_545 S
C1950 H1938 0.950 . S
C1950 C1949 1.398 1_565 S
C1950 C1951 1.391 1_565 S
C1951 H1939 0.950 . S
C1951 C1947 1.393 . S
C1951 C1950 1.391 1_545 S
H1952 C1960 0.950 . S
H1953 C1965 0.950 . S
H1954 C1962 0.950 . S
H1955 C1964 0.950 . S
H1956 C1966 0.950 . S
H1957 C1968 0.950 . S
H1958 C1970 0.950 . S
H1959 C1971 0.950 . S
C1960 H1952 0.950 . S
C1960 C1961 1.386 . S
C1960 C1962 1.391 . S
C1961 C1960 1.386 . S
C1961 C1965 1.393 . S
C1962 H1954 0.950 . S
C1962 C1960 1.391 . S
C1962 C1963 1.400 . S
C1963 C1962 1.400 . S
C1963 C1964 1.398 . S
C1963 C1969 1.491 . S
C1964 H1955 0.950 . S
C1964 C1963 1.398 . S
C1964 C1965 1.391 . S
C1965 H1953 0.950 . S
C1965 C1961 1.393 . S
C1965 C1964 1.391 . S
C1966 H1956 0.950 . S
C1966 C1967 1.386 . S
C1966 C1968 1.391 . S
C1967 C1966 1.386 . S
C1967 C1971 1.393 . S
C1968 H1957 0.950 . S
C1968 C1966 1.391 . S
C1968 C1969 1.400 . S
C1969 C1963 1.491 . S
C1969 C1968 1.400 . S
C1969 C1970 1.398 . S
C1970 H1958 0.950 . S
C1970 C1969 1.398 . S
C1970 C1971 1.391 . S
C1971 H1959 0.950 . S
C1971 C1967 1.393 . S
C1971 C1970 1.391 . S
H1972 C1980 0.950 . S
H1973 C1985 0.950 . S
H1974 C1982 0.950 . S
H1975 C1984 0.950 . S
H1976 C1986 0.950 . S
H1977 C1988 0.950 . S
H1978 C1990 0.950 . S
H1979 C1991 0.950 . S
C1980 H1972 0.950 . S
C1980 C1981 1.386 . S
C1980 C1982 1.391 . S
C1981 C1980 1.386 . S
C1981 C1985 1.393 . S
C1982 H1974 0.950 . S
C1982 C1980 1.391 . S
C1982 C1983 1.400 . S
C1983 C1982 1.400 . S
C1983 C1984 1.398 . S
C1983 C1989 1.491 . S
C1984 H1975 0.950 . S
C1984 C1983 1.398 . S
C1984 C1985 1.391 . S
C1985 H1973 0.950 . S
C1985 C1981 1.393 . S
C1985 C1984 1.391 . S
C1986 H1976 0.950 . S
C1986 C1987 1.386 . S
C1986 C1988 1.391 . S
C1987 C1986 1.386 . S
C1987 C1991 1.393 . S
C1988 H1977 0.950 . S
C1988 C1986 1.391 . S
C1988 C1989 1.400 . S
C1989 C1983 1.491 . S
C1989 C1988 1.400 . S
C1989 C1990 1.398 . S
C1990 H1978 0.950 . S
C1990 C1989 1.398 . S
C1990 C1991 1.391 . S
C1991 H1979 0.950 . S
C1991 C1987 1.393 . S
C1991 C1990 1.391 . S
H1992 C2000 0.950 . S
H1993 C2005 0.950 . S
H1994 C2002 0.950 . S
H1995 C2004 0.950 . S
H1996 C2006 0.950 . S
H1997 C2008 0.950 . S
H1998 C2010 0.950 . S
H1999 C2011 0.950 . S
C2000 H1992 0.950 . S
C2000 C2001 1.386 . S
C2000 C2002 1.391 . S
C2001 C2000 1.386 . S
C2001 C2005 1.393 . S
C2002 H1994 0.950 . S
C2002 C2000 1.391 . S
C2002 C2003 1.400 . S
C2003 C2002 1.400 . S
C2003 C2004 1.398 . S
C2003 C2009 1.491 . S
C2004 H1995 0.950 . S
C2004 C2003 1.398 . S
C2004 C2005 1.391 . S
C2005 H1993 0.950 . S
C2005 C2001 1.393 . S
C2005 C2004 1.391 . S
C2006 H1996 0.950 . S
C2006 C2007 1.386 . S
C2006 C2008 1.391 . S
C2007 C2006 1.386 . S
C2007 C2011 1.393 . S
C2008 H1997 0.950 . S
C2008 C2006 1.391 . S
C2008 C2009 1.400 . S
C2009 C2003 1.491 . S
C2009 C2008 1.400 . S
C2009 C2010 1.398 . S
C2010 H1998 0.950 . S
C2010 C2009 1.398 . S
C2010 C2011 1.391 . S
C2011 H1999 0.950 . S
C2011 C2007 1.393 . S
C2011 C2010 1.391 . S
H2012 C2020 0.950 . S
H2013 C2025 0.950 1_655 S
H2014 C2022 0.950 . S
H2015 C2024 0.950 1_655 S
H2016 C2026 0.950 1_655 S
H2017 C2028 0.950 1_655 S
H2018 C2030 0.950 . S
H2019 C2031 0.950 . S
C2020 H2012 0.950 . S
C2020 C2021 1.386 . S
C2020 C2022 1.391 . S
C2021 C2020 1.386 . S
C2021 C2025 1.393 . S
C2022 H2014 0.950 . S
C2022 C2020 1.391 . S
C2022 C2023 1.400 . S
C2023 C2022 1.400 . S
C2023 C2024 1.398 . S
C2023 C2029 1.491 . S
C2024 H2015 0.950 1_455 S
C2024 C2023 1.398 . S
C2024 C2025 1.391 . S
C2025 H2013 0.950 1_455 S
C2025 C2021 1.393 . S
C2025 C2024 1.391 . S
C2026 H2016 0.950 1_455 S
C2026 C2027 1.386 . S
C2026 C2028 1.391 . S
C2027 C2026 1.386 . S
C2027 C2031 1.393 . S
C2028 H2017 0.950 1_455 S
C2028 C2026 1.391 . S
C2028 C2029 1.400 . S
C2029 C2023 1.491 . S
C2029 C2028 1.400 . S
C2029 C2030 1.398 . S
C2030 H2018 0.950 . S
C2030 C2029 1.398 . S
C2030 C2031 1.391 . S
C2031 H2019 0.950 . S
C2031 C2027 1.393 . S
C2031 C2030 1.391 . S
H2032 C2040 0.950 . S
H2033 C2045 0.950 . S
H2034 C2042 0.950 . S
H2035 C2044 0.950 . S
H2036 C2046 0.950 . S
H2037 C2048 0.982 . S
H2038 C2050 0.950 . S
H2039 C2051 0.950 . S
C2040 H2032 0.950 . S
C2040 C2041 1.386 . S
C2040 C2042 1.391 . S
C2041 C2040 1.386 . S
C2041 C2045 1.393 . S
C2042 H2034 0.950 . S
C2042 C2040 1.391 . S
C2042 C2043 1.400 . S
C2043 C2042 1.400 . S
C2043 C2044 1.398 . S
C2043 C2049 1.491 1_556 S
C2044 H2035 0.950 . S
C2044 C2043 1.398 . S
C2044 C2045 1.391 . S
C2045 H2033 0.950 . S
C2045 C2041 1.393 . S
C2045 C2044 1.391 . S
C2046 H2036 0.950 . S
C2046 C2047 1.386 . S
C2046 C2048 1.391 . S
C2047 C2046 1.386 . S
C2047 C2051 1.393 . S
C2048 H2037 0.982 . S
C2048 C2046 1.391 . S
C2048 C2049 1.400 . S
C2049 C2043 1.491 1_554 S
C2049 C2048 1.400 . S
C2049 C2050 1.398 . S
C2050 H2038 0.950 . S
C2050 C2049 1.398 . S
C2050 C2051 1.391 . S
C2051 H2039 0.950 . S
C2051 C2047 1.393 . S
C2051 C2050 1.391 . S
H2052 C2060 0.950 . S
H2053 C2065 0.950 . S
H2054 C2062 0.950 . S
H2055 C2064 0.950 . S
H2056 C2066 0.950 . S
H2057 C2068 0.950 . S
H2058 C2070 0.950 . S
H2059 C2071 0.950 . S
C2060 H2052 0.950 . S
C2060 C2061 1.386 . S
C2060 C2062 1.391 . S
C2061 C2060 1.386 . S
C2061 C2065 1.393 . S
C2062 H2054 0.950 . S
C2062 C2060 1.391 . S
C2062 C2063 1.400 . S
C2063 C2062 1.400 . S
C2063 C2064 1.398 . S
C2063 C2069 1.491 . S
C2064 H2055 0.950 . S
C2064 C2063 1.398 . S
C2064 C2065 1.391 . S
C2065 H2053 0.950 . S
C2065 C2061 1.393 . S
C2065 C2064 1.391 . S
C2066 H2056 0.950 . S
C2066 C2067 1.386 . S
C2066 C2068 1.391 . S
C2067 C2066 1.386 . S
C2067 C2071 1.393 . S
C2068 H2057 0.950 . S
C2068 C2066 1.391 . S
C2068 C2069 1.400 . S
C2069 C2063 1.491 . S
C2069 C2068 1.400 . S
C2069 C2070 1.398 . S
C2070 H2058 0.950 . S
C2070 C2069 1.398 . S
C2070 C2071 1.391 . S
C2071 H2059 0.950 . S
C2071 C2067 1.393 . S
C2071 C2070 1.391 . S
H2072 C2080 0.950 . S
H2073 C2085 0.950 . S
H2074 C2082 0.970 . S
H2075 C2084 0.950 . S
H2076 C2086 0.950 . S
H2077 C2088 0.950 . S
H2078 C2090 0.950 . S
H2079 C2091 0.950 . S
C2080 H2072 0.950 . S
C2080 C2081 1.386 . S
C2080 C2082 1.391 . S
C2081 C2080 1.386 . S
C2081 C2085 1.393 . S
C2082 H2074 0.970 . S
C2082 C2080 1.391 . S
C2082 C2083 1.400 . S
C2083 C2082 1.400 . S
C2083 C2084 1.398 . S
C2083 C2089 1.491 1_554 S
C2084 H2075 0.950 . S
C2084 C2083 1.398 . S
C2084 C2085 1.391 . S
C2085 H2073 0.950 . S
C2085 C2081 1.393 . S
C2085 C2084 1.391 . S
C2086 H2076 0.950 . S
C2086 C2087 1.386 . S
C2086 C2088 1.391 . S
C2087 C2086 1.386 . S
C2087 C2091 1.393 . S
C2088 H2077 0.950 . S
C2088 C2086 1.391 . S
C2088 C2089 1.400 . S
C2089 C2083 1.491 1_556 S
C2089 C2088 1.400 . S
C2089 C2090 1.398 . S
C2090 H2078 0.950 . S
C2090 C2089 1.398 . S
C2090 C2091 1.391 . S
C2091 H2079 0.950 . S
C2091 C2087 1.393 . S
C2091 C2090 1.391 . S
H2092 C2100 0.950 . S
H2093 C2105 0.950 . S
H2094 C2102 0.950 1_565 S
H2095 C2104 0.950 . S
H2096 C2106 0.950 . S
H2097 C2108 0.950 . S
H2098 C2110 0.950 . S
H2099 C2111 0.950 . S
C2100 H2092 0.950 . S
C2100 C2101 1.386 1_565 S
C2100 C2102 1.391 1_565 S
C2101 C2100 1.386 1_545 S
C2101 C2105 1.393 . S
C2102 H2094 0.950 1_545 S
C2102 C2100 1.391 1_545 S
C2102 C2103 1.400 . S
C2103 C2102 1.400 . S
C2103 C2104 1.398 . S
C2103 C2109 1.491 . S
C2104 H2095 0.950 . S
C2104 C2103 1.398 . S
C2104 C2105 1.391 . S
C2105 H2093 0.950 . S
C2105 C2101 1.393 . S
C2105 C2104 1.391 . S
C2106 H2096 0.950 . S
C2106 C2107 1.386 . S
C2106 C2108 1.391 . S
C2107 C2106 1.386 . S
C2107 C2111 1.393 . S
C2108 H2097 0.950 . S
C2108 C2106 1.391 . S
C2108 C2109 1.400 . S
C2109 C2103 1.491 . S
C2109 C2108 1.400 . S
C2109 C2110 1.398 . S
C2110 H2098 0.950 . S
C2110 C2109 1.398 . S
C2110 C2111 1.391 . S
C2111 H2099 0.950 . S
C2111 C2107 1.393 . S
C2111 C2110 1.391 . S
H2112 C2120 0.950 . S
H2113 C2125 0.950 . S
H2114 C2122 0.950 . S
H2115 C2124 0.950 . S
H2116 C2126 0.950 . S
H2117 C2128 0.950 . S
H2118 C2130 0.950 . S
H2119 C2131 0.950 . S
C2120 H2112 0.950 . S
C2120 C2121 1.386 . S
C2120 C2122 1.391 . S
C2121 C2120 1.386 . S
C2121 C2125 1.393 . S
C2122 H2114 0.950 . S
C2122 C2120 1.391 . S
C2122 C2123 1.400 . S
C2123 C2122 1.400 . S
C2123 C2124 1.398 . S
C2123 C2129 1.491 . S
C2124 H2115 0.950 . S
C2124 C2123 1.398 . S
C2124 C2125 1.391 . S
C2125 H2113 0.950 . S
C2125 C2121 1.393 . S
C2125 C2124 1.391 . S
C2126 H2116 0.950 . S
C2126 C2127 1.386 . S
C2126 C2128 1.391 . S
C2127 C2126 1.386 . S
C2127 C2131 1.393 . S
C2128 H2117 0.950 . S
C2128 C2126 1.391 . S
C2128 C2129 1.400 . S
C2129 C2123 1.491 . S
C2129 C2128 1.400 . S
C2129 C2130 1.398 . S
C2130 H2118 0.950 . S
C2130 C2129 1.398 . S
C2130 C2131 1.391 . S
C2131 H2119 0.950 . S
C2131 C2127 1.393 . S
C2131 C2130 1.391 . S
H2132 C2140 0.950 . S
H2133 C2145 0.950 . S
H2134 C2142 0.950 . S
H2135 C2144 0.950 . S
H2136 C2146 0.950 . S
H2137 C2148 0.950 . S
H2138 C2150 0.950 . S
H2139 C2151 0.950 . S
C2140 H2132 0.950 . S
C2140 C2141 1.386 . S
C2140 C2142 1.391 . S
C2141 C2140 1.386 . S
C2141 C2145 1.393 . S
C2142 H2134 0.950 . S
C2142 C2140 1.391 . S
C2142 C2143 1.400 . S
C2143 C2142 1.400 . S
C2143 C2144 1.398 . S
C2143 C2149 1.491 . S
C2144 H2135 0.950 . S
C2144 C2143 1.398 . S
C2144 C2145 1.391 . S
C2145 H2133 0.950 . S
C2145 C2141 1.393 . S
C2145 C2144 1.391 . S
C2146 H2136 0.950 . S
C2146 C2147 1.386 . S
C2146 C2148 1.391 . S
C2147 C2146 1.386 . S
C2147 C2151 1.393 . S
C2148 H2137 0.950 . S
C2148 C2146 1.391 . S
C2148 C2149 1.400 . S
C2149 C2143 1.491 . S
C2149 C2148 1.400 . S
C2149 C2150 1.398 . S
C2150 H2138 0.950 . S
C2150 C2149 1.398 . S
C2150 C2151 1.391 . S
C2151 H2139 0.950 . S
C2151 C2147 1.393 . S
C2151 C2150 1.391 . S
H2152 C2160 0.950 . S
H2153 C2165 0.950 . S
H2154 C2162 0.950 . S
H2155 C2164 0.950 . S
H2156 C2166 0.950 . S
H2157 C2168 0.950 . S
H2158 C2170 0.950 . S
H2159 C2171 0.950 . S
C2160 H2152 0.950 . S
C2160 C2161 1.386 . S
C2160 C2162 1.391 . S
C2161 C2160 1.386 . S
C2161 C2165 1.393 . S
C2162 H2154 0.950 . S
C2162 C2160 1.391 . S
C2162 C2163 1.400 . S
C2163 C2162 1.400 . S
C2163 C2164 1.398 . S
C2163 C2169 1.491 . S
C2164 H2155 0.950 . S
C2164 C2163 1.398 . S
C2164 C2165 1.391 . S
C2165 H2153 0.950 . S
C2165 C2161 1.393 . S
C2165 C2164 1.391 . S
C2166 H2156 0.950 . S
C2166 C2167 1.386 . S
C2166 C2168 1.391 . S
C2167 C2166 1.386 . S
C2167 C2171 1.393 . S
C2168 H2157 0.950 . S
C2168 C2166 1.391 . S
C2168 C2169 1.400 . S
C2169 C2163 1.491 . S
C2169 C2168 1.400 . S
C2169 C2170 1.398 . S
C2170 H2158 0.950 . S
C2170 C2169 1.398 . S
C2170 C2171 1.391 . S
C2171 H2159 0.950 . S
C2171 C2167 1.393 . S
C2171 C2170 1.391 . S
H2172 C2180 0.950 . S
H2173 C2185 0.950 . S
H2174 C2182 0.950 . S
H2175 C2184 0.939 1_545 S
H2176 C2186 0.950 . S
H2177 C2188 0.950 . S
H2178 C2190 0.950 . S
H2179 C2191 0.950 . S
C2180 H2172 0.950 . S
C2180 C2181 1.386 . S
C2180 C2182 1.391 . S
C2181 C2180 1.386 . S
C2181 C2185 1.393 1_565 S
C2182 H2174 0.950 . S
C2182 C2180 1.391 . S
C2182 C2183 1.400 . S
C2183 C2182 1.400 . S
C2183 C2184 1.398 . S
C2183 C2189 1.491 . S
C2184 H2175 0.939 1_565 S
C2184 C2183 1.398 . S
C2184 C2185 1.391 1_565 S
C2185 H2173 0.950 . S
C2185 C2181 1.393 1_545 S
C2185 C2184 1.391 1_545 S
C2186 H2176 0.950 . S
C2186 C2187 1.386 . S
C2186 C2188 1.391 . S
C2187 C2186 1.386 . S
C2187 C2191 1.393 . S
C2188 H2177 0.950 . S
C2188 C2186 1.391 . S
C2188 C2189 1.400 . S
C2189 C2183 1.491 . S
C2189 C2188 1.400 . S
C2189 C2190 1.398 . S
C2190 H2178 0.950 . S
C2190 C2189 1.398 . S
C2190 C2191 1.391 . S
C2191 H2179 0.950 . S
C2191 C2187 1.393 . S
C2191 C2190 1.391 . S
H2192 C2200 0.950 . S
H2193 C2205 0.950 . S
H2194 C2202 0.950 . S
H2195 C2204 0.950 . S
H2196 C2206 0.950 . S
H2197 C2208 0.950 . S
H2198 C2210 0.950 . S
H2199 C2211 0.950 . S
C2200 H2192 0.950 . S
C2200 C2201 1.386 . S
C2200 C2202 1.391 . S
C2201 C2200 1.386 . S
C2201 C2205 1.393 . S
C2202 H2194 0.950 . S
C2202 C2200 1.391 . S
C2202 C2203 1.400 . S
C2203 C2202 1.400 . S
C2203 C2204 1.398 . S
C2203 C2209 1.491 . S
C2204 H2195 0.950 . S
C2204 C2203 1.398 . S
C2204 C2205 1.391 . S
C2205 H2193 0.950 . S
C2205 C2201 1.393 . S
C2205 C2204 1.391 . S
C2206 H2196 0.950 . S
C2206 C2207 1.386 . S
C2206 C2208 1.391 . S
C2207 C2206 1.386 . S
C2207 C2211 1.393 . S
C2208 H2197 0.950 . S
C2208 C2206 1.391 . S
C2208 C2209 1.400 . S
C2209 C2203 1.491 . S
C2209 C2208 1.400 . S
C2209 C2210 1.398 . S
C2210 H2198 0.950 . S
C2210 C2209 1.398 . S
C2210 C2211 1.391 . S
C2211 H2199 0.950 . S
C2211 C2207 1.393 . S
C2211 C2210 1.391 . S
H2212 C2220 0.950 . S
H2213 C2225 0.950 . S
H2214 C2222 0.950 . S
H2215 C2224 0.950 . S
H2216 C2226 0.950 . S
H2217 C2228 0.950 . S
H2218 C2230 0.950 . S
H2219 C2231 0.950 . S
C2220 H2212 0.950 . S
C2220 C2221 1.386 . S
C2220 C2222 1.391 . S
C2221 C2220 1.386 . S
C2221 C2225 1.393 . S
C2222 H2214 0.950 . S
C2222 C2220 1.391 . S
C2222 C2223 1.400 . S
C2223 C2222 1.400 . S
C2223 C2224 1.398 . S
C2223 C2229 1.491 . S
C2224 H2215 0.950 . S
C2224 C2223 1.398 . S
C2224 C2225 1.391 . S
C2225 H2213 0.950 . S
C2225 C2221 1.393 . S
C2225 C2224 1.391 . S
C2226 H2216 0.950 . S
C2226 C2227 1.386 . S
C2226 C2228 1.391 . S
C2227 C2226 1.386 . S
C2227 C2231 1.393 . S
C2228 H2217 0.950 . S
C2228 C2226 1.391 . S
C2228 C2229 1.400 . S
C2229 C2223 1.491 . S
C2229 C2228 1.400 . S
C2229 C2230 1.398 . S
C2230 H2218 0.950 . S
C2230 C2229 1.398 . S
C2230 C2231 1.391 . S
C2231 H2219 0.950 . S
C2231 C2227 1.393 . S
C2231 C2230 1.391 . S
H2232 C2240 0.950 . S
H2233 C2245 0.950 . S
H2234 C2242 0.950 . S
H2235 C2244 0.950 . S
H2236 C2246 0.950 . S
H2237 C2248 0.950 . S
H2238 C2250 0.950 . S
H2239 C2251 0.950 . S
C2240 H2232 0.950 . S
C2240 C2241 1.386 . S
C2240 C2242 1.391 . S
C2241 C2240 1.386 . S
C2241 C2245 1.393 . S
C2242 H2234 0.950 . S
C2242 C2240 1.391 . S
C2242 C2243 1.400 . S
C2243 C2242 1.400 . S
C2243 C2244 1.398 . S
C2243 C2249 1.491 . S
C2244 H2235 0.950 . S
C2244 C2243 1.398 . S
C2244 C2245 1.391 . S
C2245 H2233 0.950 . S
C2245 C2241 1.393 . S
C2245 C2244 1.391 . S
C2246 H2236 0.950 . S
C2246 C2247 1.386 . S
C2246 C2248 1.391 . S
C2247 C2246 1.386 . S
C2247 C2251 1.393 . S
C2248 H2237 0.950 . S
C2248 C2246 1.391 . S
C2248 C2249 1.400 . S
C2249 C2243 1.491 . S
C2249 C2248 1.400 . S
C2249 C2250 1.398 . S
C2250 H2238 0.950 . S
C2250 C2249 1.398 . S
C2250 C2251 1.391 . S
C2251 H2239 0.950 . S
C2251 C2247 1.393 . S
C2251 C2250 1.391 . S
H2252 C2260 0.950 . S
H2253 C2265 0.950 . S
H2254 C2262 0.950 . S
H2255 C2264 0.950 . S
H2256 C2266 0.950 . S
H2257 C2268 0.950 . S
H2258 C2270 0.950 1_556 S
H2259 C2271 0.950 . S
C2260 H2252 0.950 . S
C2260 C2261 1.386 . S
C2260 C2262 1.391 . S
C2261 C2260 1.386 . S
C2261 C2265 1.393 . S
C2262 H2254 0.950 . S
C2262 C2260 1.391 . S
C2262 C2263 1.400 . S
C2263 C2262 1.400 . S
C2263 C2264 1.398 . S
C2263 C2269 1.491 . S
C2264 H2255 0.950 . S
C2264 C2263 1.398 . S
C2264 C2265 1.391 . S
C2265 H2253 0.950 . S
C2265 C2261 1.393 . S
C2265 C2264 1.391 . S
C2266 H2256 0.950 . S
C2266 C2267 1.386 . S
C2266 C2268 1.391 . S
C2267 C2266 1.386 . S
C2267 C2271 1.393 1_554 S
C2268 H2257 0.950 . S
C2268 C2266 1.391 . S
C2268 C2269 1.400 . S
C2269 C2263 1.491 . S
C2269 C2268 1.400 . S
C2269 C2270 1.398 . S
C2270 H2258 0.950 1_554 S
C2270 C2269 1.398 . S
C2270 C2271 1.391 1_554 S
C2271 H2259 0.950 . S
C2271 C2267 1.393 1_556 S
C2271 C2270 1.391 1_556 S
H2272 C2280 0.950 . S
H2273 C2285 0.950 . S
H2274 C2282 0.950 . S
H2275 C2284 0.950 . S
H2276 C2286 0.950 . S
H2277 C2288 0.950 . S
H2278 C2290 0.950 . S
H2279 C2291 0.950 . S
C2280 H2272 0.950 . S
C2280 C2281 1.386 . S
C2280 C2282 1.391 . S
C2281 C2280 1.386 . S
C2281 C2285 1.393 . S
C2282 H2274 0.950 . S
C2282 C2280 1.391 . S
C2282 C2283 1.400 . S
C2283 C2282 1.400 . S
C2283 C2284 1.398 . S
C2283 C2289 1.491 . S
C2284 H2275 0.950 . S
C2284 C2283 1.398 . S
C2284 C2285 1.391 . S
C2285 H2273 0.950 . S
C2285 C2281 1.393 . S
C2285 C2284 1.391 . S
C2286 H2276 0.950 . S
C2286 C2287 1.386 . S
C2286 C2288 1.391 . S
C2287 C2286 1.386 . S
C2287 C2291 1.393 . S
C2288 H2277 0.950 . S
C2288 C2286 1.391 . S
C2288 C2289 1.400 . S
C2289 C2283 1.491 . S
C2289 C2288 1.400 . S
C2289 C2290 1.398 . S
C2290 H2278 0.950 . S
C2290 C2289 1.398 . S
C2290 C2291 1.391 . S
C2291 H2279 0.950 . S
C2291 C2287 1.393 . S
C2291 C2290 1.391 . S
H2292 C2300 0.950 . S
H2293 C2305 0.950 . S
H2294 C2302 0.950 . S
H2295 C2304 0.950 1_554 S
H2296 C2306 0.950 . S
H2297 C2308 0.950 . S
H2298 C2310 0.950 . S
H2299 C2311 0.950 . S
C2300 H2292 0.950 . S
C2300 C2301 1.386 . S
C2300 C2302 1.391 . S
C2301 C2300 1.386 . S
C2301 C2305 1.393 1_556 S
C2302 H2294 0.950 . S
C2302 C2300 1.391 . S
C2302 C2303 1.400 . S
C2303 C2302 1.400 . S
C2303 C2304 1.398 . S
C2303 C2309 1.491 . S
C2304 H2295 0.950 1_556 S
C2304 C2303 1.398 . S
C2304 C2305 1.391 1_556 S
C2305 H2293 0.950 . S
C2305 C2301 1.393 1_554 S
C2305 C2304 1.391 1_554 S
C2306 H2296 0.950 . S
C2306 C2307 1.386 . S
C2306 C2308 1.391 . S
C2307 C2306 1.386 . S
C2307 C2311 1.393 . S
C2308 H2297 0.950 . S
C2308 C2306 1.391 . S
C2308 C2309 1.400 . S
C2309 C2303 1.491 . S
C2309 C2308 1.400 . S
C2309 C2310 1.398 . S
C2310 H2298 0.950 . S
C2310 C2309 1.398 . S
C2310 C2311 1.391 . S
C2311 H2299 0.950 . S
C2311 C2307 1.393 . S
C2311 C2310 1.391 . S
H2312 C2320 0.950 . S
H2313 C2325 0.950 . S
H2314 C2322 0.950 . S
H2315 C2324 0.950 . S
H2316 C2326 0.950 . S
H2317 C2328 0.950 . S
H2318 C2330 0.950 . S
H2319 C2331 0.950 . S
C2320 H2312 0.950 . S
C2320 C2321 1.386 . S
C2320 C2322 1.391 . S
C2321 C2320 1.386 . S
C2321 C2325 1.393 . S
C2322 H2314 0.950 . S
C2322 C2320 1.391 . S
C2322 C2323 1.400 . S
C2323 C2322 1.400 . S
C2323 C2324 1.398 . S
C2323 C2329 1.491 . S
C2324 H2315 0.950 . S
C2324 C2323 1.398 . S
C2324 C2325 1.391 . S
C2325 H2313 0.950 . S
C2325 C2321 1.393 . S
C2325 C2324 1.391 . S
C2326 H2316 0.950 . S
C2326 C2327 1.386 . S
C2326 C2328 1.391 . S
C2327 C2326 1.386 . S
C2327 C2331 1.393 . S
C2328 H2317 0.950 . S
C2328 C2326 1.391 . S
C2328 C2329 1.400 . S
C2329 C2323 1.491 . S
C2329 C2328 1.400 . S
C2329 C2330 1.398 . S
C2330 H2318 0.950 . S
C2330 C2329 1.398 . S
C2330 C2331 1.391 . S
C2331 H2319 0.950 . S
C2331 C2327 1.393 . S
C2331 C2330 1.391 . S
H2332 C2340 0.950 . S
H2333 C2345 0.950 . S
H2334 C2342 0.950 . S
H2335 C2344 0.950 . S
H2336 C2346 0.950 . S
H2337 C2348 0.950 . S
H2338 C2350 0.950 . S
H2339 C2351 0.950 . S
C2340 H2332 0.950 . S
C2340 C2341 1.386 . S
C2340 C2342 1.391 . S
C2341 C2340 1.386 . S
C2341 C2345 1.393 . S
C2342 H2334 0.950 . S
C2342 C2340 1.391 . S
C2342 C2343 1.400 . S
C2343 C2342 1.400 . S
C2343 C2344 1.398 . S
C2343 C2349 1.491 . S
C2344 H2335 0.950 . S
C2344 C2343 1.398 . S
C2344 C2345 1.391 . S
C2345 H2333 0.950 . S
C2345 C2341 1.393 . S
C2345 C2344 1.391 . S
C2346 H2336 0.950 . S
C2346 C2347 1.386 . S
C2346 C2348 1.391 . S
C2347 C2346 1.386 . S
C2347 C2351 1.393 . S
C2348 H2337 0.950 . S
C2348 C2346 1.391 . S
C2348 C2349 1.400 . S
C2349 C2343 1.491 . S
C2349 C2348 1.400 . S
C2349 C2350 1.398 . S
C2350 H2338 0.950 . S
C2350 C2349 1.398 . S
C2350 C2351 1.391 . S
C2351 H2339 0.950 . S
C2351 C2347 1.393 . S
C2351 C2350 1.391 . S
H2352 C2360 0.950 1_455 S
H2353 C2365 0.950 . S
H2354 C2362 0.950 1_455 S
H2355 C2364 0.950 . S
H2356 C2366 0.950 . S
H2357 C2368 0.950 . S
H2358 C2370 0.950 1_455 S
H2359 C2371 0.950 1_455 S
C2360 H2352 0.950 1_655 S
C2360 C2361 1.386 . S
C2360 C2362 1.391 . S
C2361 C2360 1.386 . S
C2361 C2365 1.393 . S
C2362 H2354 0.950 1_655 S
C2362 C2360 1.391 . S
C2362 C2363 1.400 . S
C2363 C2362 1.400 . S
C2363 C2364 1.398 . S
C2363 C2369 1.491 . S
C2364 H2355 0.950 . S
C2364 C2363 1.398 . S
C2364 C2365 1.391 . S
C2365 H2353 0.950 . S
C2365 C2361 1.393 . S
C2365 C2364 1.391 . S
C2366 H2356 0.950 . S
C2366 C2367 1.386 . S
C2366 C2368 1.391 . S
C2367 C2366 1.386 . S
C2367 C2371 1.393 . S
C2368 H2357 0.950 . S
C2368 C2366 1.391 . S
C2368 C2369 1.400 . S
C2369 C2363 1.491 . S
C2369 C2368 1.400 . S
C2369 C2370 1.398 . S
C2370 H2358 0.950 1_655 S
C2370 C2369 1.398 . S
C2370 C2371 1.391 . S
C2371 H2359 0.950 1_655 S
C2371 C2367 1.393 . S
C2371 C2370 1.391 . S
H2372 C2380 0.950 . S
H2373 C2385 0.950 . S
H2374 C2382 0.949 1_556 S
H2375 C2384 0.950 . S
H2376 C2386 0.950 . S
H2377 C2388 0.950 . S
H2378 C2390 0.950 . S
H2379 C2391 0.950 . S
C2380 H2372 0.950 . S
C2380 C2381 1.386 . S
C2380 C2382 1.391 . S
C2381 C2380 1.386 . S
C2381 C2385 1.393 . S
C2382 H2374 0.949 1_554 S
C2382 C2380 1.391 . S
C2382 C2383 1.400 . S
C2383 C2382 1.400 . S
C2383 C2384 1.398 . S
C2383 C2389 1.491 1_554 S
C2384 H2375 0.950 . S
C2384 C2383 1.398 . S
C2384 C2385 1.391 . S
C2385 H2373 0.950 . S
C2385 C2381 1.393 . S
C2385 C2384 1.391 . S
C2386 H2376 0.950 . S
C2386 C2387 1.386 . S
C2386 C2388 1.391 . S
C2387 C2386 1.386 . S
C2387 C2391 1.393 . S
C2388 H2377 0.950 . S
C2388 C2386 1.391 . S
C2388 C2389 1.400 . S
C2389 C2383 1.491 1_556 S
C2389 C2388 1.400 . S
C2389 C2390 1.398 . S
C2390 H2378 0.950 . S
C2390 C2389 1.398 . S
C2390 C2391 1.391 . S
C2391 H2379 0.950 . S
C2391 C2387 1.393 . S
C2391 C2390 1.391 . S
H2392 C2400 0.950 . S
H2393 C2405 0.950 . S
H2394 C2402 0.950 . S
H2395 C2404 0.950 . S
H2396 C2406 0.950 . S
H2397 C2408 0.950 . S
H2398 C2410 0.950 . S
H2399 C2411 0.950 . S
C2400 H2392 0.950 . S
C2400 C2401 1.386 . S
C2400 C2402 1.391 . S
C2401 C2400 1.386 . S
C2401 C2405 1.393 . S
C2402 H2394 0.950 . S
C2402 C2400 1.391 . S
C2402 C2403 1.400 . S
C2403 C2402 1.400 . S
C2403 C2404 1.398 . S
C2403 C2409 1.491 . S
C2404 H2395 0.950 . S
C2404 C2403 1.398 . S
C2404 C2405 1.391 . S
C2405 H2393 0.950 . S
C2405 C2401 1.393 . S
C2405 C2404 1.391 . S
C2406 H2396 0.950 . S
C2406 C2407 1.386 . S
C2406 C2408 1.391 . S
C2407 C2406 1.386 . S
C2407 C2411 1.393 . S
C2408 H2397 0.950 . S
C2408 C2406 1.391 . S
C2408 C2409 1.400 . S
C2409 C2403 1.491 . S
C2409 C2408 1.400 . S
C2409 C2410 1.398 . S
C2410 H2398 0.950 . S
C2410 C2409 1.398 . S
C2410 C2411 1.391 . S
C2411 H2399 0.950 . S
C2411 C2407 1.393 . S
C2411 C2410 1.391 . S
H2412 C2420 0.950 . S
H2413 C2425 0.950 . S
H2414 C2422 0.950 . S
H2415 C2424 0.950 . S
H2416 C2426 0.950 . S
H2417 C2428 0.950 . S
H2418 C2430 0.950 . S
H2419 C2431 0.950 . S
C2420 H2412 0.950 . S
C2420 C2421 1.386 . S
C2420 C2422 1.391 . S
C2421 C2420 1.386 . S
C2421 C2425 1.393 . S
C2422 H2414 0.950 . S
C2422 C2420 1.391 . S
C2422 C2423 1.400 . S
C2423 C2422 1.400 . S
C2423 C2424 1.398 . S
C2423 C2429 1.491 . S
C2424 H2415 0.950 . S
C2424 C2423 1.398 . S
C2424 C2425 1.391 . S
C2425 H2413 0.950 . S
C2425 C2421 1.393 . S
C2425 C2424 1.391 . S
C2426 H2416 0.950 . S
C2426 C2427 1.386 . S
C2426 C2428 1.391 . S
C2427 C2426 1.386 . S
C2427 C2431 1.393 . S
C2428 H2417 0.950 . S
C2428 C2426 1.391 . S
C2428 C2429 1.400 . S
C2429 C2423 1.491 . S
C2429 C2428 1.400 . S
C2429 C2430 1.398 . S
C2430 H2418 0.950 . S
C2430 C2429 1.398 . S
C2430 C2431 1.391 . S
C2431 H2419 0.950 . S
C2431 C2427 1.393 . S
C2431 C2430 1.391 . S
H2432 C2440 0.950 . S
H2433 C2445 0.950 . S
H2434 C2442 0.950 . S
H2435 C2444 0.950 . S
H2436 C2446 0.950 . S
H2437 C2448 0.950 . S
H2438 C2450 0.950 . S
H2439 C2451 0.950 . S
C2440 H2432 0.950 . S
C2440 C2441 1.386 . S
C2440 C2442 1.391 . S
C2441 C2440 1.386 . S
C2441 C2445 1.393 . S
C2442 H2434 0.950 . S
C2442 C2440 1.391 . S
C2442 C2443 1.400 . S
C2443 C2442 1.400 . S
C2443 C2444 1.398 . S
C2443 C2449 1.491 . S
C2444 H2435 0.950 . S
C2444 C2443 1.398 . S
C2444 C2445 1.391 . S
C2445 H2433 0.950 . S
C2445 C2441 1.393 . S
C2445 C2444 1.391 . S
C2446 H2436 0.950 . S
C2446 C2447 1.386 . S
C2446 C2448 1.391 . S
C2447 C2446 1.386 . S
C2447 C2451 1.393 . S
C2448 H2437 0.950 . S
C2448 C2446 1.391 . S
C2448 C2449 1.400 . S
C2449 C2443 1.491 . S
C2449 C2448 1.400 . S
C2449 C2450 1.398 . S
C2450 H2438 0.950 . S
C2450 C2449 1.398 . S
C2450 C2451 1.391 . S
C2451 H2439 0.950 . S
C2451 C2447 1.393 . S
C2451 C2450 1.391 . S
H2452 C2460 0.950 . S
H2453 C2465 0.950 . S
H2454 C2462 0.950 . S
H2455 C2464 0.950 . S
H2456 C2466 0.950 . S
H2457 C2468 0.950 . S
H2458 C2470 0.950 . S
H2459 C2471 0.950 . S
C2460 H2452 0.950 . S
C2460 C2461 1.386 . S
C2460 C2462 1.391 . S
C2461 C2460 1.386 . S
C2461 C2465 1.393 . S
C2462 H2454 0.950 . S
C2462 C2460 1.391 . S
C2462 C2463 1.400 . S
C2463 C2462 1.400 . S
C2463 C2464 1.398 . S
C2463 C2469 1.491 . S
C2464 H2455 0.950 . S
C2464 C2463 1.398 . S
C2464 C2465 1.391 . S
C2465 H2453 0.950 . S
C2465 C2461 1.393 . S
C2465 C2464 1.391 . S
C2466 H2456 0.950 . S
C2466 C2467 1.386 . S
C2466 C2468 1.391 . S
C2467 C2466 1.386 . S
C2467 C2471 1.393 . S
C2468 H2457 0.950 . S
C2468 C2466 1.391 . S
C2468 C2469 1.400 . S
C2469 C2463 1.491 . S
C2469 C2468 1.400 . S
C2469 C2470 1.398 . S
C2470 H2458 0.950 . S
C2470 C2469 1.398 . S
C2470 C2471 1.391 . S
C2471 H2459 0.950 . S
C2471 C2467 1.393 . S
C2471 C2470 1.391 . S
H2472 C2480 0.950 . S
H2473 C2485 0.950 . S
H2474 C2482 0.950 . S
H2475 C2484 0.950 . S
H2476 C2486 0.950 . S
H2477 C2488 0.950 . S
H2478 C2490 0.950 . S
H2479 C2491 0.950 . S
C2480 H2472 0.950 . S
C2480 C2481 1.386 . S
C2480 C2482 1.391 . S
C2481 C2480 1.386 . S
C2481 C2485 1.393 . S
C2482 H2474 0.950 . S
C2482 C2480 1.391 . S
C2482 C2483 1.400 . S
C2483 C2482 1.400 . S
C2483 C2484 1.398 . S
C2483 C2489 1.491 . S
C2484 H2475 0.950 . S
C2484 C2483 1.398 . S
C2484 C2485 1.391 . S
C2485 H2473 0.950 . S
C2485 C2481 1.393 . S
C2485 C2484 1.391 . S
C2486 H2476 0.950 . S
C2486 C2487 1.386 . S
C2486 C2488 1.391 . S
C2487 C2486 1.386 . S
C2487 C2491 1.393 . S
C2488 H2477 0.950 . S
C2488 C2486 1.391 . S
C2488 C2489 1.400 . S
C2489 C2483 1.491 . S
C2489 C2488 1.400 . S
C2489 C2490 1.398 . S
C2490 H2478 0.950 . S
C2490 C2489 1.398 . S
C2490 C2491 1.391 . S
C2491 H2479 0.950 . S
C2491 C2487 1.393 . S
C2491 C2490 1.391 . S
H2492 C2500 0.950 . S
H2493 C2505 0.950 . S
H2494 C2502 0.950 . S
H2495 C2504 0.950 . S
H2496 C2506 0.950 . S
H2497 C2508 0.950 . S
H2498 C2510 0.950 . S
H2499 C2511 0.950 . S
C2500 H2492 0.950 . S
C2500 C2501 1.386 . S
C2500 C2502 1.391 . S
C2501 C2500 1.386 . S
C2501 C2505 1.393 1_565 S
C2502 H2494 0.950 . S
C2502 C2500 1.391 . S
C2502 C2503 1.400 . S
C2503 C2502 1.400 . S
C2503 C2504 1.398 1_565 S
C2503 C2509 1.491 1_565 S
C2504 H2495 0.950 . S
C2504 C2503 1.398 1_545 S
C2504 C2505 1.391 . S
C2505 H2493 0.950 . S
C2505 C2501 1.393 1_545 S
C2505 C2504 1.391 . S
C2506 H2496 0.950 . S
C2506 C2507 1.386 . S
C2506 C2508 1.391 . S
C2507 C2506 1.386 . S
C2507 C2511 1.393 1_545 S
C2508 H2497 0.950 . S
C2508 C2506 1.391 . S
C2508 C2509 1.400 . S
C2509 C2503 1.491 1_545 S
C2509 C2508 1.400 . S
C2509 C2510 1.398 1_545 S
C2510 H2498 0.950 . S
C2510 C2509 1.398 1_565 S
C2510 C2511 1.391 . S
C2511 H2499 0.950 . S
C2511 C2507 1.393 1_565 S
C2511 C2510 1.391 . S
H2512 C2520 0.950 . S
H2513 C2525 0.950 . S
H2514 C2522 0.950 . S
H2515 C2524 0.950 . S
H2516 C2526 0.950 . S
H2517 C2528 0.950 . S
H2518 C2530 0.950 . S
H2519 C2531 0.950 . S
C2520 H2512 0.950 . S
C2520 C2521 1.386 . S
C2520 C2522 1.391 . S
C2521 C2520 1.386 . S
C2521 C2525 1.393 . S
C2522 H2514 0.950 . S
C2522 C2520 1.391 . S
C2522 C2523 1.400 . S
C2523 C2522 1.400 . S
C2523 C2524 1.398 . S
C2523 C2529 1.491 1_455 S
C2524 H2515 0.950 . S
C2524 C2523 1.398 . S
C2524 C2525 1.391 . S
C2525 H2513 0.950 . S
C2525 C2521 1.393 . S
C2525 C2524 1.391 . S
C2526 H2516 0.950 . S
C2526 C2527 1.386 . S
C2526 C2528 1.391 . S
C2527 C2526 1.386 . S
C2527 C2531 1.393 . S
C2528 H2517 0.950 . S
C2528 C2526 1.391 . S
C2528 C2529 1.400 . S
C2529 C2523 1.491 1_655 S
C2529 C2528 1.400 . S
C2529 C2530 1.398 . S
C2530 H2518 0.950 . S
C2530 C2529 1.398 . S
C2530 C2531 1.391 . S
C2531 H2519 0.950 . S
C2531 C2527 1.393 . S
C2531 C2530 1.391 . S
H2532 C2540 0.950 . S
H2533 C2545 0.950 1_565 S
H2534 C2542 0.950 . S
H2535 C2544 0.950 . S
H2536 C2546 0.950 . S
H2537 C2548 0.950 . S
H2538 C2550 0.950 . S
H2539 C2551 0.950 1_545 S
C2540 H2532 0.950 . S
C2540 C2541 1.386 . S
C2540 C2542 1.391 . S
C2541 C2540 1.386 . S
C2541 C2545 1.393 . S
C2542 H2534 0.950 . S
C2542 C2540 1.391 . S
C2542 C2543 1.400 . S
C2543 C2542 1.400 . S
C2543 C2544 1.398 1_545 S
C2543 C2549 1.491 1_445 S
C2544 H2535 0.950 . S
C2544 C2543 1.398 1_565 S
C2544 C2545 1.391 1_565 S
C2545 H2533 0.950 1_545 S
C2545 C2541 1.393 . S
C2545 C2544 1.391 1_545 S
C2546 H2536 0.950 . S
C2546 C2547 1.386 . S
C2546 C2548 1.391 . S
C2547 C2546 1.386 . S
C2547 C2551 1.393 . S
C2548 H2537 0.950 . S
C2548 C2546 1.391 . S
C2548 C2549 1.400 . S
C2549 C2543 1.491 1_665 S
C2549 C2548 1.400 . S
C2549 C2550 1.398 1_565 S
C2550 H2538 0.950 . S
C2550 C2549 1.398 1_545 S
C2550 C2551 1.391 1_545 S
C2551 H2539 0.950 1_565 S
C2551 C2547 1.393 . S
C2551 C2550 1.391 1_565 S
H2552 C2560 0.950 . S
H2553 C2565 0.950 . S
H2554 C2562 0.950 . S
H2555 C2564 0.950 . S
H2556 C2566 0.950 . S
H2557 C2568 0.950 . S
H2558 C2570 0.950 . S
H2559 C2571 0.950 . S
C2560 H2552 0.950 . S
C2560 C2561 1.386 . S
C2560 C2562 1.391 . S
C2561 C2560 1.386 . S
C2561 C2565 1.393 . S
C2562 H2554 0.950 . S
C2562 C2560 1.391 . S
C2562 C2563 1.400 . S
C2563 C2562 1.400 . S
C2563 C2564 1.398 . S
C2563 C2569 1.491 1_556 S
C2564 H2555 0.950 . S
C2564 C2563 1.398 . S
C2564 C2565 1.391 . S
C2565 H2553 0.950 . S
C2565 C2561 1.393 . S
C2565 C2564 1.391 . S
C2566 H2556 0.950 . S
C2566 C2567 1.386 . S
C2566 C2568 1.391 . S
C2567 C2566 1.386 . S
C2567 C2571 1.393 . S
C2568 H2557 0.950 . S
C2568 C2566 1.391 . S
C2568 C2569 1.400 . S
C2569 C2563 1.491 1_554 S
C2569 C2568 1.400 . S
C2569 C2570 1.398 . S
C2570 H2558 0.950 . S
C2570 C2569 1.398 . S
C2570 C2571 1.391 . S
C2571 H2559 0.950 . S
C2571 C2567 1.393 . S
C2571 C2570 1.391 . S
H2572 C2580 0.950 . S
H2573 C2585 0.950 . S
H2574 C2582 0.950 . S
H2575 C2584 0.950 . S
H2576 C2586 0.950 . S
H2577 C2588 0.950 . S
H2578 C2590 0.950 . S
H2579 C2591 0.950 . S
C2580 H2572 0.950 . S
C2580 C2581 1.386 . S
C2580 C2582 1.391 . S
C2581 C2580 1.386 . S
C2581 C2585 1.393 . S
C2582 H2574 0.950 . S
C2582 C2580 1.391 . S
C2582 C2583 1.400 . S
C2583 C2582 1.400 . S
C2583 C2584 1.398 . S
C2583 C2589 1.491 . S
C2584 H2575 0.950 . S
C2584 C2583 1.398 . S
C2584 C2585 1.391 . S
C2585 H2573 0.950 . S
C2585 C2581 1.393 . S
C2585 C2584 1.391 . S
C2586 H2576 0.950 . S
C2586 C2587 1.386 . S
C2586 C2588 1.391 . S
C2587 C2586 1.386 . S
C2587 C2591 1.393 . S
C2588 H2577 0.950 . S
C2588 C2586 1.391 . S
C2588 C2589 1.400 . S
C2589 C2583 1.491 . S
C2589 C2588 1.400 . S
C2589 C2590 1.398 . S
C2590 H2578 0.950 . S
C2590 C2589 1.398 . S
C2590 C2591 1.391 . S
C2591 H2579 0.950 . S
C2591 C2587 1.393 . S
C2591 C2590 1.391 . S
C681 C385 1.087 . S
C687 C7 1.057 . S
C701 C21 0.462 . S
C707 C541 0.492 . S
C721 C35 0.689 . S
C727 C357 0.723 . S
C741 C569 1.109 . S
C747 C49 1.127 . S
C761 C399 0.587 . S
C767 C65 0.581 . S
C781 C77 1.046 . S
C787 C315 1.095 . S
C801 C427 0.848 . S
C807 C93 0.847 . S
C821 C105 0.714 . S
C827 C287 0.693 . S
C841 C499 0.872 . S
C847 C107 0.893 . S
C861 C469 0.449 . S
C867 C63 0.347 . S
C881 C79 0.621 . S
C887 C597 0.596 . S
C901 C483 0.596 . S
C907 C91 0.630 . S
C921 C121 0.737 . S
C927 C191 0.746 . S
C941 C203 0.419 . S
C947 C135 0.376 . S
C961 C219 0.731 . S
C967 C149 0.732 . S
C981 C175 0.719 . S
C987 C163 0.776 . S
C1001 C189 0.600 . S
C1007 C343 0.618 . S
C1021 C205 0.351 . S
C1027 C555 0.277 . S
C1041 C371 0.411 . S
C1047 C217 0.452 . S
C1061 C387 0.587 . S
C1067 C233 0.595 . S
C1081 C245 0.760 . S
C1087 C415 0.706 . S
C1101 C261 0.452 . S
C1107 C51 0.351 . S
C1121 C275 1.119 . S
C1127 C23 1.141 . S
C1141 C625 1.144 . S
C1147 C301 1.104 . S
C1161 C653 0.545 . S
C1167 C329 0.433 . S
C1181 C345 0.850 . S
C1187 C119 0.888 . S
C1201 C373 0.622 . S
C1207 C147 0.614 . S
C1221 C359 0.896 . S
C1227 C611 0.853 . S
C1241 C471 0.793 . S
C1247 C401 0.762 . S
C1261 C485 0.694 . S
C1267 C429 0.700 . S
C1281 C455 0.447 . S
C1287 C443 0.341 . S
C1301 C247 0.990 . S
C1307 C639 1.008 . S
C1321 C513 1.112 . S
C1327 C331 1.109 . S
C1341 C303 0.291 . S
C1347 C527 0.449 . S
C1361 C665 1.372 . S
C1367 C441 1.361 . S
C1381 C413 0.477 . S
C1387 C637 0.347 . S
C1401 C133 1.373 . S
C1407 C553 1.359 . S
C1421 C161 0.488 . S
C1427 C581 0.323 . S
C1441 C177 1.033 . S
C1447 C583 1.014 . S
C1461 C273 0.604 . S
C1467 C539 0.636 . S
C1481 C259 0.627 . S
C1487 C567 0.657 . S
C1501 C317 0.640 . S
C1507 C595 0.684 . S
C1521 C289 0.362 . S
C1527 C497 0.508 . S
C1541 C623 0.656 . S
C1547 C525 0.656 . S
C1561 C651 0.657 . S
C1567 C511 0.599 . S
C1581 C667 0.356 . S
C1587 C457 0.441 . S
C1601 C609 0.500 . S
C1607 C37 0.374 . S
C1621 C231 0.657 . S
C1627 C9 0.618 . S
C1641 C8 1.895 . S
C1647 C647 1.987 . S
C1661 C22 1.632 . S
C1667 C666 1.719 . S
C1681 C36 1.477 . S
C1687 C619 1.398 1_565 S
C1701 C50 2.060 . S
C1707 C638 1.999 . S
C1721 C59 1.671 . S
C1727 C134 1.550 . S
C1741 C78 1.458 . S
C1747 C148 1.309 . S
C1761 C87 1.664 . S
C1767 C162 1.778 . S
C1781 C106 1.896 . S
C1787 C120 2.099 . S
C1801 C101 2.094 . S
C1807 C549 1.927 . S
C1821 C64 1.739 . S
C1827 C372 1.739 . S
C1841 C73 1.352 . S
C1847 C577 1.417 1_554 S
C1861 C92 1.912 . S
C1867 C344 1.893 . S
C1881 C115 1.070 . S
C1887 C325 1.104 . S
C1901 C129 2.323 . S
C1907 C437 2.312 . S
C1921 C143 1.456 . S
C1927 C297 1.268 . S
C1941 C409 1.443 . S
C1947 C157 1.438 . S
C1961 C176 2.115 . S
C1967 C274 2.114 . S
C1981 C190 1.487 . S
C1987 C232 1.478 . S
C2001 C269 1.758 . S
C2007 C199 1.835 . S
C2021 C610 2.324 . S
C2027 C218 2.312 . S
C2041 C213 1.948 . S
C2047 C227 2.055 . S
C2061 C512 2.106 . S
C2067 C246 2.126 . S
C2081 C171 1.646 . S
C2087 C255 1.719 . S
C2101 C563 1.393 1_545 S
C2107 C288 1.473 . S
C2121 C582 2.007 . S
C2127 C302 2.067 . S
C2141 C316 1.911 . S
C2147 C535 1.999 . S
C2161 C554 1.719 . S
C2167 C330 1.626 . S
C2181 C339 1.671 . S
C2187 C414 1.783 . S
C2201 C428 2.087 . S
C2207 C358 1.890 . S
C2221 C367 1.673 . S
C2227 C442 1.553 . S
C2241 C400 1.303 . S
C2247 C386 1.454 . S
C2261 C381 1.321 . S
C2267 C633 1.403 1_554 S
C2281 C661 1.948 . S
C2287 C353 2.107 . S
C2301 C395 1.454 . S
C2307 C45 1.271 . S
C2321 C17 1.131 . S
C2327 C423 1.085 . S
C2341 C526 1.428 . S
C2347 C456 1.433 . S
C2361 C498 2.336 . S
C2367 C470 2.329 . S
C2381 C241 1.645 . S
C2387 C521 1.719 . S
C2401 C484 1.484 . S
C2407 C596 1.481 . S
C2421 C493 1.750 . S
C2427 C479 1.854 . S
C2441 C204 1.423 . S
C2447 C260 1.418 . S
C2461 C451 1.838 . S
C2467 C507 1.762 . S
C2481 C652 1.512 . S
C2487 C540 1.510 . S
C2501 C568 1.880 . S
C2507 C624 1.865 . S
C2521 C3 2.072 . S
C2527 C311 2.083 . S
C2541 C283 1.958 . S
C2547 C31 1.953 . S
C2561 C465 1.950 . S
C2567 C591 2.058 . S
C2581 C185 1.852 . S
C2587 C605 1.749 . S
