# Generated by pormake.
# Topology umo, (4)-cn, num edge types: 1
# Building blocks:
#     Node 0, Type 0, BuildingBlock: ICAMEG_clean_sbu_1, # of connection points: 4
#     Node 1, Type 0, BuildingBlock: ICAMEG_clean_sbu_1, # of connection points: 4
#     Node 2, Type 0, BuildingBlock: ICAMEG_clean_sbu_1, # of connection points: 4
#     Node 3, Type 0, BuildingBlock: ICAMEG_clean_sbu_1, # of connection points: 4
#     Node 4, Type 0, BuildingBlock: ICAMEG_clean_sbu_1, # of connection points: 4
#     Node 5, Type 0, BuildingBlock: ICAMEG_clean_sbu_1, # of connection points: 4
#     Node 6, Type 0, BuildingBlock: ICAMEG_clean_sbu_1, # of connection points: 4
#     Node 7, Type 0, BuildingBlock: ICAMEG_clean_sbu_1, # of connection points: 4
#     Node 8, Type 0, BuildingBlock: ICAMEG_clean_sbu_1, # of connection points: 4
#     Node 9, Type 0, BuildingBlock: ICAMEG_clean_sbu_1, # of connection points: 4
#     Node 10, Type 0, BuildingBlock: ICAMEG_clean_sbu_1, # of connection points: 4
#     Node 11, Type 0, BuildingBlock: ICAMEG_clean_sbu_1, # of connection points: 4
#     Edge 12, Type (0, 0), BuildingBlock: ZUJKAS_clean_linker_0, # of connection points: 2
#     Edge 13, Type (0, 0), BuildingBlock: ZUJKAS_clean_linker_0, # of connection points: 2
#     Edge 14, Type (0, 0), BuildingBlock: ZUJKAS_clean_linker_0, # of connection points: 2
#     Edge 15, Type (0, 0), BuildingBlock: ZUJKAS_clean_linker_0, # of connection points: 2
#     Edge 16, Type (0, 0), BuildingBlock: ZUJKAS_clean_linker_0, # of connection points: 2
#     Edge 17, Type (0, 0), BuildingBlock: ZUJKAS_clean_linker_0, # of connection points: 2
#     Edge 18, Type (0, 0), BuildingBlock: ZUJKAS_clean_linker_0, # of connection points: 2
#     Edge 19, Type (0, 0), BuildingBlock: ZUJKAS_clean_linker_0, # of connection points: 2
#     Edge 20, Type (0, 0), BuildingBlock: ZUJKAS_clean_linker_0, # of connection points: 2
#     Edge 21, Type (0, 0), BuildingBlock: ZUJKAS_clean_linker_0, # of connection points: 2
#     Edge 22, Type (0, 0), BuildingBlock: ZUJKAS_clean_linker_0, # of connection points: 2
#     Edge 23, Type (0, 0), BuildingBlock: ZUJKAS_clean_linker_0, # of connection points: 2
#     Edge 24, Type (0, 0), BuildingBlock: ZUJKAS_clean_linker_0, # of connection points: 2
#     Edge 25, Type (0, 0), BuildingBlock: ZUJKAS_clean_linker_0, # of connection points: 2
#     Edge 26, Type (0, 0), BuildingBlock: ZUJKAS_clean_linker_0, # of connection points: 2
#     Edge 27, Type (0, 0), BuildingBlock: ZUJKAS_clean_linker_0, # of connection points: 2
#     Edge 28, Type (0, 0), BuildingBlock: ZUJKAS_clean_linker_0, # of connection points: 2
#     Edge 29, Type (0, 0), BuildingBlock: ZUJKAS_clean_linker_0, # of connection points: 2
#     Edge 30, Type (0, 0), BuildingBlock: ZUJKAS_clean_linker_0, # of connection points: 2
#     Edge 31, Type (0, 0), BuildingBlock: ZUJKAS_clean_linker_0, # of connection points: 2
#     Edge 32, Type (0, 0), BuildingBlock: ZUJKAS_clean_linker_0, # of connection points: 2
#     Edge 33, Type (0, 0), BuildingBlock: ZUJKAS_clean_linker_0, # of connection points: 2
#     Edge 34, Type (0, 0), BuildingBlock: ZUJKAS_clean_linker_0, # of connection points: 2
#     Edge 35, Type (0, 0), BuildingBlock: ZUJKAS_clean_linker_0, # of connection points: 2
# Relax obj value: 0.091
# Max RMSD: 0.159
# Mean RMSD: 0.159
data_MOF--net-umo--node1-ICAMEG_clean_sbu_1--edge1-ZUJKAS_clean_linker_0
_symmetry_space_group_name_H-M    P1
_symmetry_Int_Tables_number       1
_symmetry_cell_setting            triclinic
loop_
_symmetry_equiv_pos_as_xyz
'x, y, z'
_cell_length_a     66.299727
_cell_length_b     66.195158
_cell_length_c     51.57383
_cell_angle_alpha  90.013393
_cell_angle_beta   89.992963
_cell_angle_gamma 120.03797
loop_
_atom_site_label
_atom_site_type_symbol
_atom_site_fract_x
_atom_site_fract_y
_atom_site_fract_z
_atom_type_partial_charge
Co0 Co 0.15147 0.55284 0.40416 0.0
Co1 Co 0.18108 0.52391 0.41909 0.0
O2 O 0.15936 0.5286 0.39807 0.0
C3 C 0.10651 0.50886 0.40217 0.0
O4 O 0.11525 0.50009 0.41856 0.0
C5 C 0.19975 0.53105 0.36617 0.0
O6 O 0.19685 0.54926 0.36599 0.0
O7 O 0.20486 0.55747 0.41705 0.0
O8 O 0.18443 0.57603 0.41307 0.0
H9 H 0.2396 0.54213 0.49014 0.0
H10 H 0.13817 0.52674 0.35444 0.0
O11 O 0.11845 0.53009 0.39513 0.0
H12 H 0.18883 0.60928 0.33027 0.0
H13 H 0.1094 0.59676 0.38488 0.0
H14 H 0.1637 0.58936 0.44416 0.0
H15 H 0.17931 0.59797 0.37614 0.0
H16 H 0.1207 0.56697 0.37715 0.0
O17 O 0.19409 0.5181 0.3863 0.0
H18 H 0.2116 0.54785 0.46419 0.0
H19 H 0.19776 0.48973 0.41699 0.0
H20 H 0.15299 0.61947 0.45254 0.0
H21 H 0.14706 0.53732 0.30833 0.0
H22 H 0.12565 0.62332 0.42276 0.0
H23 H 0.17264 0.57884 0.296 0.0
O24 O 0.14494 0.54402 0.44126 0.0
H25 H 0.12074 0.44629 0.38325 0.0
H26 H 0.16078 0.4897 0.46239 0.0
H27 H 0.13035 0.44824 0.46573 0.0
H28 H 0.11011 0.42626 0.42596 0.0
H29 H 0.15117 0.4878 0.38083 0.0
H30 H 0.22576 0.48347 0.44229 0.0
H31 H 0.24683 0.50973 0.47923 0.0
O32 O 0.16886 0.53038 0.45201 0.0
C33 C 0.20348 0.57599 0.41631 0.0
C34 C 0.23044 0.53049 0.47418 0.0
C35 C 0.2227 0.49759 0.4473 0.0
N36 N 0.20285 0.51894 0.43934 0.0
C37 C 0.2145 0.53359 0.45949 0.0
C38 C 0.20689 0.50123 0.43303 0.0
C39 C 0.23451 0.51233 0.46803 0.0
C40 C 0.14909 0.54488 0.34922 0.0
N41 N 0.15811 0.56172 0.36796 0.0
C42 C 0.15416 0.55075 0.32308 0.0
C43 C 0.16854 0.57405 0.31618 0.0
C44 C 0.17764 0.59113 0.3354 0.0
C45 C 0.17223 0.58461 0.36135 0.0
C46 C 0.12137 0.59529 0.39796 0.0
C47 C 0.15191 0.59102 0.43103 0.0
C48 C 0.12779 0.57843 0.3937 0.0
N49 N 0.14299 0.57657 0.41007 0.0
C50 C 0.14586 0.60806 0.43591 0.0
C51 C 0.1305 0.61019 0.41921 0.0
C52 C 0.15461 0.53739 0.45797 0.0
C53 C 0.12949 0.45565 0.40071 0.0
C54 C 0.15202 0.48024 0.44501 0.0
C55 C 0.13484 0.45677 0.44701 0.0
C56 C 0.1235 0.44444 0.42468 0.0
N57 N 0.15781 0.4911 0.42142 0.0
C58 C 0.1468 0.47913 0.39944 0.0
Co59 Co 0.65352 0.18115 0.58405 0.0
Co60 Co 0.59485 0.15011 0.56938 0.0
O61 O 0.62709 0.1581 0.56383 0.0
C62 C 0.66428 0.19686 0.53002 0.0
O63 O 0.64272 0.19259 0.52911 0.0
C64 C 0.5946 0.10541 0.57051 0.0
O65 O 0.61288 0.11536 0.58577 0.0
O66 O 0.5974 0.1457 0.60702 0.0
O67 O 0.63503 0.16999 0.61724 0.0
H68 H 0.52965 0.15342 0.61512 0.0
H69 H 0.66029 0.15018 0.54797 0.0
O70 O 0.67217 0.19318 0.551 0.0
H71 H 0.68003 0.13361 0.6346 0.0
H72 H 0.73866 0.22837 0.60657 0.0
H73 H 0.65968 0.21328 0.62733 0.0
H74 H 0.66813 0.16321 0.62901 0.0
H75 H 0.70455 0.19881 0.58221 0.0
O76 O 0.58473 0.11665 0.56297 0.0
H77 H 0.57053 0.16415 0.60732 0.0
H78 H 0.5499 0.11743 0.54347 0.0
H79 H 0.69325 0.24286 0.65233 0.0
H80 H 0.67224 0.12056 0.55264 0.0
H81 H 0.73309 0.25057 0.64198 0.0
H82 H 0.68215 0.11207 0.59622 0.0
O83 O 0.64325 0.20437 0.58007 0.0
H84 H 0.60536 0.14022 0.4746 0.0
H85 H 0.57708 0.17594 0.53826 0.0
H86 H 0.57486 0.18265 0.49158 0.0
H87 H 0.58905 0.16471 0.45939 0.0
H88 H 0.60749 0.13415 0.52146 0.0
H89 H 0.50877 0.10608 0.55067 0.0
H90 H 0.49844 0.12418 0.58666 0.0
O91 O 0.60434 0.18347 0.57568 0.0
C92 C 0.61378 0.15598 0.62352 0.0
C93 C 0.53394 0.14547 0.59931 0.0
C94 C 0.52221 0.11888 0.56316 0.0
N95 N 0.5626 0.14158 0.57483 0.0
C96 C 0.55706 0.15153 0.59476 0.0
C97 C 0.54552 0.12534 0.5592 0.0
C98 C 0.51643 0.12905 0.58336 0.0
C99 C 0.66481 0.14675 0.56695 0.0
N100 N 0.66364 0.15847 0.58817 0.0
C101 C 0.67147 0.12989 0.56949 0.0
C102 C 0.67698 0.12511 0.59396 0.0
C103 C 0.67577 0.13717 0.61551 0.0
C104 C 0.66898 0.15387 0.61224 0.0
C105 C 0.72138 0.22512 0.61132 0.0
C106 C 0.67694 0.21639 0.62288 0.0
C107 C 0.70202 0.20842 0.59758 0.0
N108 N 0.68014 0.20414 0.60358 0.0
C109 C 0.69589 0.23323 0.63703 0.0
C110 C 0.71824 0.23756 0.63119 0.0
C111 C 0.62334 0.20277 0.57834 0.0
C112 C 0.59905 0.14806 0.48843 0.0
C113 C 0.58334 0.16811 0.52438 0.0
C114 C 0.58199 0.17193 0.49797 0.0
C115 C 0.58993 0.16184 0.47992 0.0
N116 N 0.59231 0.15458 0.53259 0.0
C117 C 0.6001 0.14459 0.515 0.0
Co118 Co 0.46909 0.65321 0.75151 0.0
Co119 Co 0.44012 0.5951 0.73386 0.0
O120 O 0.46477 0.62736 0.72963 0.0
C121 C 0.46301 0.66612 0.6988 0.0
O122 O 0.44485 0.645 0.69783 0.0
C123 C 0.48401 0.5941 0.73462 0.0
O124 O 0.49192 0.61131 0.7514 0.0
O125 O 0.44663 0.59601 0.77153 0.0
O126 O 0.46215 0.63356 0.7837 0.0
H127 H 0.37042 0.52863 0.77672 0.0
H128 H 0.50573 0.66035 0.7136 0.0
O129 O 0.47545 0.67294 0.71934 0.0
H130 H 0.54389 0.67687 0.79921 0.0
H131 H 0.50887 0.73778 0.77753 0.0
H132 H 0.44481 0.65842 0.79715 0.0
H133 H 0.50257 0.66599 0.79535 0.0
H134 H 0.50301 0.70422 0.751 0.0
O135 O 0.46316 0.58486 0.72633 0.0
H136 H 0.40117 0.56967 0.77089 0.0
H137 H 0.42744 0.55103 0.70562 0.0
H138 H 0.45014 0.69142 0.82431 0.0
H139 H 0.54711 0.67129 0.71655 0.0
H140 H 0.48237 0.73145 0.81455 0.0
H141 H 0.56644 0.67957 0.7596 0.0
O142 O 0.43558 0.64352 0.74906 0.0
H143 H 0.46122 0.60956 0.63939 0.0
H144 H 0.39686 0.57915 0.7027 0.0
H145 H 0.38829 0.5791 0.65616 0.0
H146 H 0.42061 0.59438 0.62415 0.0
H147 H 0.46904 0.60947 0.68612 0.0
H148 H 0.39708 0.50974 0.71085 0.0
H149 H 0.36824 0.49833 0.74656 0.0
O150 O 0.41677 0.60492 0.74131 0.0
C151 C 0.45377 0.61188 0.78887 0.0
C152 C 0.38283 0.53339 0.76103 0.0
C153 C 0.39782 0.52278 0.72408 0.0
N154 N 0.41596 0.56275 0.73782 0.0
C155 C 0.40024 0.55661 0.75759 0.0
C156 C 0.415 0.54618 0.72125 0.0
C157 C 0.38164 0.5164 0.74412 0.0
C158 C 0.51409 0.66417 0.73237 0.0
N159 N 0.50181 0.66267 0.75426 0.0
C160 C 0.5375 0.67025 0.73393 0.0
C161 C 0.54831 0.67486 0.7581 0.0
C162 C 0.53567 0.67333 0.78034 0.0
C163 C 0.51227 0.66713 0.77804 0.0
C164 C 0.4948 0.72041 0.78202 0.0
C165 C 0.45897 0.67576 0.79291 0.0
C166 C 0.49138 0.70136 0.76704 0.0
N167 N 0.47373 0.67938 0.77269 0.0
C168 C 0.46186 0.69439 0.8083 0.0
C169 C 0.47993 0.71685 0.80279 0.0
C170 C 0.41698 0.62391 0.74616 0.0
C171 C 0.44698 0.60279 0.65314 0.0
C172 C 0.41102 0.58584 0.68889 0.0
C173 C 0.40605 0.58573 0.66256 0.0
C174 C 0.42419 0.5943 0.64461 0.0
N175 N 0.43341 0.59418 0.69711 0.0
C176 C 0.45129 0.60258 0.67962 0.0
Co177 Co 0.84353 0.44173 0.90213 0.0
Co178 Co 0.81351 0.47017 0.9173 0.0
O179 O 0.83573 0.46611 0.89653 0.0
C180 C 0.88825 0.4859 0.90188 0.0
O181 O 0.87912 0.49383 0.91883 0.0
C182 C 0.79633 0.46489 0.86384 0.0
O183 O 0.79935 0.44677 0.86304 0.0
O184 O 0.7898 0.43674 0.91342 0.0
O185 O 0.81042 0.41822 0.91019 0.0
H186 H 0.75364 0.44993 0.98727 0.0
H187 H 0.85781 0.46905 0.8532 0.0
O188 O 0.87668 0.46487 0.894 0.0
H189 H 0.80758 0.38713 0.82645 0.0
H190 H 0.88644 0.39878 0.88214 0.0
H191 H 0.83056 0.40407 0.94087 0.0
H192 H 0.81623 0.39732 0.87268 0.0
H193 H 0.87508 0.42862 0.87515 0.0
O194 O 0.80141 0.47714 0.88451 0.0
H195 H 0.78222 0.44501 0.96143 0.0
H196 H 0.79662 0.50421 0.91592 0.0
H197 H 0.84131 0.37388 0.94848 0.0
H198 H 0.8498 0.45959 0.80676 0.0
H199 H 0.86945 0.3711 0.91898 0.0
H200 H 0.82443 0.41838 0.79313 0.0
O201 O 0.84926 0.44956 0.93947 0.0
H202 H 0.87493 0.54892 0.88527 0.0
H203 H 0.83251 0.50288 0.96211 0.0
H204 H 0.86285 0.54417 0.96742 0.0
H205 H 0.88429 0.56747 0.9288 0.0
H206 H 0.84455 0.50753 0.88089 0.0
H207 H 0.76804 0.50967 0.94111 0.0
H208 H 0.74641 0.48245 0.97715 0.0
O209 O 0.8249 0.46263 0.95022 0.0
C210 C 0.79134 0.41834 0.91249 0.0
C211 C 0.76302 0.46196 0.97168 0.0
C212 C 0.77109 0.49547 0.94575 0.0
N213 N 0.79121 0.47445 0.93738 0.0
C214 C 0.77928 0.4593 0.95704 0.0
C215 C 0.78721 0.49227 0.93153 0.0
C216 C 0.75896 0.48019 0.96597 0.0
C217 C 0.84699 0.45104 0.84742 0.0
N218 N 0.83761 0.43375 0.86564 0.0
C219 C 0.84242 0.4458 0.82109 0.0
C220 C 0.82815 0.42269 0.81346 0.0
C221 C 0.81868 0.40515 0.83215 0.0
C222 C 0.8236 0.41103 0.85831 0.0
C223 C 0.87413 0.39978 0.89509 0.0
C224 C 0.84269 0.40287 0.92785 0.0
C225 C 0.86766 0.41667 0.89126 0.0
N226 N 0.85204 0.41796 0.90747 0.0
C227 C 0.84877 0.38579 0.9323 0.0
C228 C 0.86458 0.38425 0.91576 0.0
C229 C 0.83909 0.45556 0.95623 0.0
C230 C 0.86566 0.53897 0.90223 0.0
C231 C 0.84178 0.51291 0.94523 0.0
C232 C 0.85892 0.53629 0.94834 0.0
C233 C 0.87093 0.54936 0.92667 0.0
N234 N 0.83671 0.50287 0.9212 0.0
C235 C 0.84837 0.51557 0.89985 0.0
Co236 Co 0.34008 0.81426 0.08441 0.0
Co237 Co 0.39889 0.84705 0.07263 0.0
O238 O 0.36666 0.83815 0.06521 0.0
C239 C 0.33013 0.80005 0.02985 0.0
O240 O 0.35173 0.80441 0.02905 0.0
C241 C 0.39808 0.89115 0.07151 0.0
O242 O 0.38042 0.88156 0.08766 0.0
O243 O 0.39479 0.85229 0.10957 0.0
O244 O 0.35796 0.82439 0.11819 0.0
H245 H 0.46363 0.84751 0.12375 0.0
H246 H 0.33343 0.84624 0.04993 0.0
O247 O 0.32199 0.80324 0.05093 0.0
H248 H 0.31159 0.85893 0.1373 0.0
H249 H 0.2547 0.76515 0.10503 0.0
H250 H 0.33378 0.78072 0.12608 0.0
H251 H 0.32417 0.83001 0.13025 0.0
H252 H 0.28894 0.79594 0.08195 0.0
O253 O 0.4082 0.88003 0.06439 0.0
H254 H 0.42274 0.83523 0.1135 0.0
H255 H 0.44434 0.87994 0.04783 0.0
H256 H 0.30007 0.74991 0.14979 0.0
H257 H 0.32081 0.87523 0.05605 0.0
H258 H 0.26018 0.74197 0.1393 0.0
H259 H 0.30984 0.88176 0.10002 0.0
O260 O 0.35105 0.79177 0.07906 0.0
H261 H 0.39175 0.85419 0.97646 0.0
H262 H 0.41854 0.82115 0.04498 0.0
H263 H 0.42277 0.81343 0.99911 0.0
H264 H 0.40935 0.83004 0.96447 0.0
H265 H 0.38757 0.86124 0.02257 0.0
H266 H 0.48549 0.89279 0.05742 0.0
H267 H 0.49534 0.87649 0.09558 0.0
O268 O 0.39012 0.81407 0.08086 0.0
C269 C 0.37843 0.83997 0.12541 0.0
C270 C 0.45956 0.85467 0.107 0.0
C271 C 0.47182 0.88011 0.0698 0.0
N272 N 0.43116 0.8567 0.07996 0.0
C273 C 0.43643 0.84773 0.10106 0.0
C274 C 0.4485 0.87279 0.06448 0.0
C275 C 0.47734 0.87095 0.09121 0.0
C276 C 0.32845 0.84883 0.06906 0.0
N277 N 0.32941 0.83639 0.08968 0.0
C278 C 0.32142 0.86533 0.07243 0.0
C279 C 0.31531 0.86901 0.09712 0.0
C280 C 0.31631 0.85622 0.11805 0.0
C281 C 0.32348 0.83991 0.11395 0.0
C282 C 0.272 0.7685 0.10984 0.0
C283 C 0.31649 0.77749 0.12157 0.0
C284 C 0.29144 0.78589 0.09682 0.0
N285 N 0.31333 0.79029 0.10291 0.0
C286 C 0.29747 0.75997 0.13499 0.0
C287 C 0.27509 0.7555 0.12907 0.0
C288 C 0.37136 0.79434 0.08044 0.0
C289 C 0.39773 0.84693 0.99137 0.0
C290 C 0.41257 0.82837 0.03004 0.0
C291 C 0.41507 0.82399 1.00409 0.0
C292 C 0.40757 0.83333 0.98466 0.0
N293 N 0.40288 0.8417 0.03647 0.0
C294 C 0.39553 0.85096 0.01752 0.0
Co295 Co 0.52165 0.33922 0.25371 0.0
Co296 Co 0.55071 0.39775 0.23831 0.0
O297 O 0.52643 0.36558 0.23246 0.0
C298 C 0.5288 0.32739 0.20096 0.0
O299 O 0.54705 0.34847 0.20076 0.0
C300 C 0.50689 0.3989 0.23636 0.0
O301 O 0.49825 0.38163 0.25308 0.0
O302 O 0.54199 0.39573 0.27542 0.0
O303 O 0.52814 0.35814 0.28647 0.0
H304 H 0.61744 0.46316 0.2862 0.0
H305 H 0.48569 0.33298 0.2153 0.0
O306 O 0.51582 0.3202 0.22107 0.0
H307 H 0.4461 0.31479 0.30015 0.0
H308 H 0.481 0.25411 0.2775 0.0
H309 H 0.54544 0.33276 0.29901 0.0
H310 H 0.48746 0.32563 0.29694 0.0
H311 H 0.4874 0.28832 0.2519 0.0
O312 O 0.52803 0.40806 0.22912 0.0
H313 H 0.58726 0.42225 0.27816 0.0
H314 H 0.56487 0.44255 0.21091 0.0
H315 H 0.53958 0.29909 0.32526 0.0
H316 H 0.44428 0.32208 0.21759 0.0
H317 H 0.50716 0.25942 0.31455 0.0
H318 H 0.42424 0.31295 0.26026 0.0
O319 O 0.55514 0.3489 0.2518 0.0
H320 H 0.53503 0.38602 0.14255 0.0
H321 H 0.59569 0.41471 0.21023 0.0
H322 H 0.60689 0.41616 0.16438 0.0
H323 H 0.57644 0.40175 0.13017 0.0
H324 H 0.52456 0.38468 0.18865 0.0
H325 H 0.59472 0.48371 0.21829 0.0
H326 H 0.62132 0.49422 0.25612 0.0
O327 O 0.5738 0.38791 0.2474 0.0
C328 C 0.53527 0.37949 0.29225 0.0
C329 C 0.60602 0.4588 0.26959 0.0
C330 C 0.59324 0.47033 0.2315 0.0
N331 N 0.57447 0.43001 0.24397 0.0
C332 C 0.58894 0.43565 0.2649 0.0
C333 C 0.57635 0.447 0.22744 0.0
C334 C 0.60816 0.47622 0.25272 0.0
C335 C 0.47701 0.3288 0.2339 0.0
N336 N 0.48891 0.32981 0.25594 0.0
C337 C 0.4536 0.32274 0.23509 0.0
C338 C 0.44238 0.31766 0.25905 0.0
C339 C 0.45464 0.3187 0.28144 0.0
C340 C 0.47805 0.32489 0.27951 0.0
C341 C 0.49514 0.27132 0.28242 0.0
C342 C 0.53116 0.31558 0.2944 0.0
C343 C 0.49885 0.29074 0.26799 0.0
N344 N 0.51658 0.31253 0.27419 0.0
C345 C 0.52799 0.29657 0.30925 0.0
C346 C 0.50982 0.27431 0.30321 0.0
C347 C 0.57367 0.36878 0.25092 0.0
C348 C 0.54846 0.39241 0.15727 0.0
C349 C 0.58233 0.40837 0.19547 0.0
C350 C 0.58878 0.40928 0.16953 0.0
C351 C 0.57169 0.40121 0.15034 0.0
N352 N 0.5595 0.39972 0.20212 0.0
C353 C 0.54265 0.3918 0.1834 0.0
Co354 Co 0.47124 0.81432 0.42502 0.0
Co355 Co 0.44312 0.84477 0.44028 0.0
O356 O 0.46753 0.83699 0.44553 0.0
C357 C 0.46571 0.79746 0.47866 0.0
O358 O 0.44787 0.8009 0.47937 0.0
C359 C 0.48731 0.88953 0.43833 0.0
O360 O 0.49533 0.87947 0.42279 0.0
O361 O 0.44971 0.84914 0.40256 0.0
O362 O 0.46394 0.82567 0.39197 0.0
H363 H 0.37396 0.84088 0.39552 0.0
H364 H 0.50864 0.84517 0.46152 0.0
O365 O 0.47787 0.80218 0.45798 0.0
H366 H 0.54544 0.86291 0.37513 0.0
H367 H 0.51001 0.76799 0.40201 0.0
H368 H 0.44576 0.78253 0.38131 0.0
H369 H 0.50404 0.83295 0.38033 0.0
H370 H 0.50495 0.79707 0.42674 0.0
O371 O 0.4664 0.8783 0.44651 0.0
H372 H 0.40436 0.83041 0.40284 0.0
H373 H 0.43084 0.87733 0.46648 0.0
H374 H 0.45028 0.75344 0.35595 0.0
H375 H 0.55012 0.87515 0.45724 0.0
H376 H 0.4826 0.74601 0.36626 0.0
H377 H 0.56876 0.88423 0.41378 0.0
O378 O 0.43775 0.79085 0.4286 0.0
H379 H 0.46433 0.85458 0.53483 0.0
H380 H 0.39983 0.81882 0.47182 0.0
H381 H 0.3913 0.812 0.51857 0.0
H382 H 0.42369 0.82995 0.55043 0.0
H383 H 0.47211 0.86078 0.4879 0.0
H384 H 0.40082 0.88843 0.45975 0.0
H385 H 0.37206 0.87009 0.42411 0.0
O386 O 0.41942 0.81135 0.43411 0.0
C387 C 0.45621 0.83932 0.3859 0.0
C388 C 0.38634 0.84893 0.41118 0.0
C389 C 0.40143 0.87564 0.44721 0.0
N390 N 0.41922 0.85309 0.4352 0.0
C391 C 0.40355 0.84302 0.41546 0.0
C392 C 0.41841 0.86932 0.4509 0.0
C393 C 0.3853 0.86534 0.42721 0.0
C394 C 0.5167 0.84886 0.44259 0.0
N395 N 0.50399 0.83726 0.42122 0.0
C396 C 0.54016 0.86592 0.44027 0.0
C397 C 0.5506 0.87104 0.41587 0.0
C398 C 0.53752 0.8591 0.39417 0.0
C399 C 0.51408 0.84219 0.39722 0.0
C400 C 0.49591 0.77113 0.39728 0.0
C401 C 0.45999 0.77954 0.38575 0.0
C402 C 0.49295 0.78755 0.41122 0.0
N403 N 0.47525 0.79168 0.40524 0.0
C404 C 0.4624 0.76298 0.3714 0.0
C405 C 0.48052 0.7588 0.37722 0.0
C406 C 0.41932 0.79221 0.43081 0.0
C407 C 0.45007 0.84672 0.52114 0.0
C408 C 0.41402 0.82667 0.48556 0.0
C409 C 0.40908 0.82278 0.51201 0.0
C410 C 0.42726 0.83287 0.52988 0.0
N411 N 0.43644 0.84029 0.47714 0.0
C412 C 0.45435 0.85026 0.49454 0.0
Co413 Co 0.59637 0.44324 0.60609 0.0
Co414 Co 0.65474 0.47137 0.5905 0.0
O415 O 0.62864 0.4673 0.61168 0.0
C416 C 0.59593 0.48752 0.60727 0.0
O417 O 0.6133 0.49588 0.59072 0.0
C418 C 0.66664 0.46491 0.64353 0.0
O419 O 0.64552 0.44674 0.64409 0.0
O420 O 0.64462 0.43774 0.59313 0.0
O421 O 0.60569 0.41965 0.5975 0.0
H422 H 0.69389 0.45145 0.51963 0.0
H423 H 0.60991 0.47006 0.65533 0.0
O424 O 0.58653 0.4664 0.61477 0.0
H425 H 0.57741 0.38776 0.68094 0.0
H426 H 0.51058 0.40047 0.62637 0.0
H427 H 0.57141 0.40625 0.56675 0.0
H428 H 0.57888 0.39846 0.6349 0.0
H429 H 0.55185 0.43001 0.63349 0.0
O430 O 0.6738 0.4775 0.62312 0.0
H431 H 0.66056 0.44653 0.54578 0.0
H432 H 0.70572 0.50513 0.59187 0.0
H433 H 0.53039 0.37637 0.559 0.0
H434 H 0.60857 0.46011 0.70161 0.0
H435 H 0.49964 0.37334 0.58895 0.0
H436 H 0.59232 0.41871 0.71467 0.0
O437 O 0.59842 0.45157 0.56886 0.0
H438 H 0.67318 0.54979 0.62492 0.0
H439 H 0.66861 0.50496 0.54657 0.0
H440 H 0.68006 0.54648 0.54248 0.0
H441 H 0.68241 0.56918 0.58186 0.0
H442 H 0.66166 0.5082 0.6281 0.0
H443 H 0.73959 0.51059 0.56636 0.0
H444 H 0.73376 0.48369 0.52988 0.0
O445 O 0.63579 0.46462 0.55775 0.0
C446 C 0.62462 0.41938 0.59419 0.0
C447 C 0.69665 0.46336 0.53539 0.0
C448 C 0.7223 0.49654 0.56165 0.0
N449 N 0.68117 0.47571 0.57008 0.0
C450 C 0.67783 0.46072 0.55019 0.0
C451 C 0.70307 0.49335 0.57603 0.0
C452 C 0.71901 0.48143 0.54118 0.0
C453 C 0.60256 0.45198 0.66087 0.0
N454 N 0.59437 0.43485 0.64243 0.0
C455 C 0.60195 0.44646 0.6871 0.0
C456 C 0.59287 0.42323 0.69441 0.0
C457 C 0.58452 0.40586 0.6755 0.0
C458 C 0.58544 0.41203 0.64945 0.0
C459 C 0.52382 0.40158 0.61323 0.0
C460 C 0.55815 0.40494 0.57996 0.0
C461 C 0.54721 0.41829 0.61713 0.0
N462 N 0.56403 0.41971 0.60068 0.0
C463 C 0.53494 0.38803 0.57543 0.0
C464 C 0.5177 0.38636 0.59223 0.0
C465 C 0.61454 0.45781 0.55199 0.0
C466 C 0.6723 0.54011 0.60764 0.0
C467 C 0.66957 0.51472 0.56378 0.0
C468 C 0.6761 0.53824 0.56135 0.0
C469 C 0.67743 0.55097 0.58346 0.0
N470 N 0.6646 0.50422 0.58757 0.0
C471 C 0.66589 0.51659 0.60933 0.0
Co472 Co 0.18013 0.65526 0.75718 0.0
Co473 Co 0.1496 0.59672 0.77269 0.0
O474 O 0.15765 0.62905 0.77804 0.0
C475 C 0.19711 0.66683 0.81071 0.0
O476 O 0.19301 0.6453 0.81175 0.0
C477 C 0.10491 0.59628 0.77266 0.0
O478 O 0.1142 0.61371 0.75617 0.0
O479 O 0.14414 0.59879 0.73521 0.0
O480 O 0.16836 0.63632 0.72434 0.0
H481 H 0.15162 0.53083 0.72675 0.0
H482 H 0.14978 0.6622 0.79397 0.0
O483 O 0.19279 0.67438 0.78985 0.0
H484 H 0.13131 0.68079 0.70771 0.0
H485 H 0.22646 0.74026 0.73322 0.0
H486 H 0.21141 0.66104 0.71318 0.0
H487 H 0.16121 0.66928 0.71264 0.0
H488 H 0.19755 0.70635 0.75839 0.0
O489 O 0.11642 0.58676 0.78038 0.0
H490 H 0.16253 0.57187 0.73422 0.0
H491 H 0.11771 0.55205 0.79967 0.0
H492 H 0.24033 0.6944 0.68737 0.0
H493 H 0.11985 0.67377 0.78996 0.0
H494 H 0.24801 0.73436 0.69735 0.0
H495 H 0.11041 0.6831 0.74657 0.0
O496 O 0.20348 0.64513 0.76063 0.0
H497 H 0.14241 0.60839 0.86785 0.0
H498 H 0.17632 0.57938 0.80278 0.0
H499 H 0.18437 0.57774 0.84917 0.0
H500 H 0.16734 0.5923 0.88207 0.0
H501 H 0.13501 0.60994 0.82124 0.0
H502 H 0.1062 0.51076 0.79282 0.0
H503 H 0.12326 0.49995 0.75618 0.0
O504 O 0.18272 0.60617 0.76519 0.0
C505 C 0.15415 0.615 0.71844 0.0
C506 C 0.14413 0.53533 0.74284 0.0
C507 C 0.11861 0.52407 0.7799 0.0
N508 N 0.14093 0.56436 0.76749 0.0
C509 C 0.15029 0.55854 0.74721 0.0
C510 C 0.12517 0.54746 0.78366 0.0
C511 C 0.1282 0.51801 0.75934 0.0
C512 C 0.14592 0.66647 0.77507 0.0
N513 N 0.15729 0.6652 0.75358 0.0
C514 C 0.1289 0.67291 0.7729 0.0
C515 C 0.12358 0.6781 0.74854 0.0
C516 C 0.13528 0.67679 0.72672 0.0
C517 C 0.15216 0.67022 0.72962 0.0
C518 C 0.22321 0.72292 0.72862 0.0
C519 C 0.2145 0.67835 0.71747 0.0
C520 C 0.20688 0.70367 0.74281 0.0
N521 N 0.2026 0.68172 0.73702 0.0
C522 C 0.23097 0.69718 0.70287 0.0
C523 C 0.23529 0.7196 0.7085 0.0
C524 C 0.20193 0.6252 0.76218 0.0
C525 C 0.14986 0.60192 0.8537 0.0
C526 C 0.16888 0.5858 0.81696 0.0
C527 C 0.17346 0.58478 0.84322 0.0
C528 C 0.16389 0.59293 0.86167 0.0
N529 N 0.15512 0.59466 0.8093 0.0
C530 C 0.14563 0.60264 0.82728 0.0
Co531 Co 0.5234 0.18235 0.92456 0.0
Co532 Co 0.5506 0.15075 0.93689 0.0
O533 O 0.52712 0.1594 0.94436 0.0
C534 C 0.52921 0.1987 0.97844 0.0
O535 O 0.54723 0.19554 0.97871 0.0
C536 C 0.50603 0.10654 0.93935 0.0
O537 O 0.49775 0.11572 0.92291 0.0
O538 O 0.5407 0.14457 0.90014 0.0
O539 O 0.53062 0.17155 0.89094 0.0
H540 H 0.61459 0.15015 0.8853 0.0
H541 H 0.48594 0.15093 0.96062 0.0
O542 O 0.51682 0.19395 0.95794 0.0
H543 H 0.44916 0.13502 0.87427 0.0
H544 H 0.48507 0.22948 0.90346 0.0
H545 H 0.54909 0.21492 0.88153 0.0
H546 H 0.4906 0.16474 0.87978 0.0
H547 H 0.48989 0.19981 0.92724 0.0
O548 O 0.52735 0.11787 0.94614 0.0
H549 H 0.58573 0.16213 0.89548 0.0
H550 H 0.56411 0.11884 0.96232 0.0
H551 H 0.54482 0.2446 0.85711 0.0
H552 H 0.44441 0.12117 0.95604 0.0
H553 H 0.51261 0.25204 0.86805 0.0
H554 H 0.42578 0.11302 0.91259 0.0
O555 O 0.55689 0.20544 0.92856 0.0
H556 H 0.53793 0.1461 0.03332 0.0
H557 H 0.59654 0.17767 0.96345 0.0
H558 H 0.60925 0.18671 0.009 0.0
H559 H 0.57985 0.17086 0.0443 0.0
H560 H 0.52595 0.1377 0.98751 0.0
H561 H 0.59268 0.1063 0.95281 0.0
H562 H 0.6182 0.12205 0.91409 0.0
O563 O 0.57428 0.18366 0.92765 0.0
C564 C 0.53594 0.1562 0.88405 0.0
C565 C 0.60363 0.14324 0.90229 0.0
C566 C 0.59131 0.11861 0.94016 0.0
N567 N 0.57342 0.14136 0.9296 0.0
C568 C 0.58731 0.15002 0.90819 0.0
C569 C 0.57515 0.12574 0.94543 0.0
C570 C 0.60563 0.12745 0.91843 0.0
C571 C 0.47788 0.14764 0.94171 0.0
N572 N 0.49062 0.15962 0.92052 0.0
C573 C 0.45439 0.13071 0.93921 0.0
C574 C 0.44396 0.12611 0.91482 0.0
C575 C 0.45707 0.13844 0.8933 0.0
C576 C 0.48054 0.1552 0.89653 0.0
C577 C 0.49912 0.22634 0.89846 0.0
C578 C 0.53491 0.21791 0.88623 0.0
C579 C 0.50194 0.20959 0.91186 0.0
N580 N 0.51957 0.20545 0.90554 0.0
C581 C 0.53264 0.23481 0.87242 0.0
C582 C 0.51458 0.23899 0.87859 0.0
C583 C 0.57485 0.2032 0.92723 0.0
C584 C 0.55092 0.15305 0.01811 0.0
C585 C 0.58363 0.17076 0.97869 0.0
C586 C 0.59094 0.17589 1.00445 0.0
C587 C 0.57443 0.16698 0.02426 0.0
N588 N 0.56053 0.15709 0.97281 0.0
C589 C 0.54425 0.14826 0.99213 0.0
Co590 Co 0.40132 0.55582 0.10675 0.0
Co591 Co 0.34279 0.52695 0.09184 0.0
O592 O 0.3692 0.53143 0.11266 0.0
C593 C 0.40208 0.51177 0.10754 0.0
O594 O 0.38488 0.50363 0.09078 0.0
C595 C 0.33099 0.53297 0.1451 0.0
O596 O 0.3521 0.55115 0.14569 0.0
O597 O 0.35241 0.56042 0.09501 0.0
O598 O 0.39155 0.57912 0.09832 0.0
H599 H 0.30271 0.5459 0.02121 0.0
H600 H 0.38859 0.52905 0.15605 0.0
O601 O 0.41151 0.53285 0.11521 0.0
H602 H 0.42007 0.61122 0.18165 0.0
H603 H 0.48724 0.59929 0.12632 0.0
H604 H 0.42573 0.59305 0.0675 0.0
H605 H 0.41836 0.60052 0.13557 0.0
H606 H 0.44612 0.56939 0.13364 0.0
O607 O 0.32384 0.52042 0.12465 0.0
H608 H 0.33636 0.55134 0.04713 0.0
H609 H 0.29192 0.49279 0.09367 0.0
H610 H 0.46658 0.62329 0.05956 0.0
H611 H 0.39021 0.53902 0.20236 0.0
H612 H 0.49767 0.62655 0.0891 0.0
H613 H 0.40594 0.58036 0.21541 0.0
O614 O 0.39912 0.54758 0.06952 0.0
H615 H 0.32594 0.44882 0.12553 0.0
H616 H 0.32901 0.49355 0.04769 0.0
H617 H 0.31822 0.45222 0.04325 0.0
H618 H 0.31664 0.42958 0.08236 0.0
H619 H 0.33678 0.49022 0.12905 0.0
H620 H 0.25775 0.48682 0.0684 0.0
H621 H 0.26306 0.51345 0.03181 0.0
O622 O 0.36158 0.53402 0.05887 0.0
C623 C 0.37231 0.57889 0.09579 0.0
C624 C 0.30018 0.53413 0.03704 0.0
C625 C 0.27494 0.50099 0.06356 0.0
N626 N 0.31611 0.52226 0.0717 0.0
C627 C 0.31917 0.53708 0.05173 0.0
C628 C 0.29434 0.50448 0.07782 0.0
C629 C 0.27794 0.51593 0.04302 0.0
C630 C 0.39573 0.54711 0.16158 0.0
N631 N 0.4035 0.56419 0.14312 0.0
C632 C 0.39649 0.55264 0.18783 0.0
C633 C 0.40528 0.57583 0.19514 0.0
C634 C 0.4132 0.59315 0.1762 0.0
C635 C 0.41214 0.58698 0.15014 0.0
C636 C 0.47384 0.59808 0.11335 0.0
C637 C 0.43914 0.59447 0.08054 0.0
C638 C 0.45055 0.58116 0.11737 0.0
N639 N 0.43354 0.57961 0.10113 0.0
C640 C 0.46225 0.61157 0.0759 0.0
C641 C 0.47968 0.61337 0.09246 0.0
C642 C 0.38285 0.54117 0.05282 0.0
C643 C 0.32649 0.45847 0.10835 0.0
C644 C 0.32837 0.4838 0.06479 0.0
C645 C 0.32222 0.4604 0.06216 0.0
C646 C 0.32131 0.4477 0.08412 0.0
N647 N 0.3334 0.49422 0.08862 0.0
C648 C 0.33251 0.48188 0.11025 0.0
Co649 Co 0.81451 0.34364 0.25823 0.0
Co650 Co 0.84352 0.40193 0.27541 0.0
O651 O 0.83643 0.36978 0.27957 0.0
C652 C 0.79715 0.33137 0.31158 0.0
O653 O 0.80112 0.35284 0.31292 0.0
C654 C 0.8887 0.40351 0.27301 0.0
O655 O 0.87913 0.38598 0.25665 0.0
O656 O 0.84804 0.40077 0.23751 0.0
O657 O 0.82661 0.36304 0.22578 0.0
H658 H 0.83797 0.46748 0.23346 0.0
H659 H 0.84478 0.33699 0.29542 0.0
O660 O 0.80161 0.32408 0.2906 0.0
H661 H 0.86502 0.31986 0.20934 0.0
H662 H 0.76956 0.25886 0.23307 0.0
H663 H 0.78417 0.33797 0.21329 0.0
H664 H 0.83451 0.33058 0.2139 0.0
H665 H 0.79764 0.29266 0.25901 0.0
O666 O 0.8771 0.41266 0.28159 0.0
H667 H 0.82841 0.42664 0.23926 0.0
H668 H 0.87534 0.44641 0.30275 0.0
H669 H 0.75609 0.3047 0.18672 0.0
H670 H 0.87532 0.32622 0.29178 0.0
H671 H 0.74863 0.2648 0.19657 0.0
H672 H 0.88565 0.31763 0.24848 0.0
O673 O 0.7906 0.35313 0.26135 0.0
H674 H 0.85361 0.38881 0.36938 0.0
H675 H 0.81675 0.41764 0.30797 0.0
H676 H 0.80975 0.41812 0.35487 0.0
H677 H 0.82826 0.40364 0.38593 0.0
H678 H 0.85997 0.38844 0.32232 0.0
H679 H 0.88555 0.4875 0.29752 0.0
H680 H 0.86674 0.49824 0.26271 0.0
O681 O 0.81005 0.39168 0.26935 0.0
C682 C 0.83939 0.38473 0.22035 0.0
C683 C 0.84623 0.46301 0.24875 0.0
C684 C 0.87295 0.47425 0.28468 0.0
N685 N 0.85117 0.43413 0.27145 0.0
C686 C 0.84083 0.43991 0.25218 0.0
C687 C 0.86714 0.45097 0.28752 0.0
C688 C 0.86239 0.48026 0.26515 0.0
C689 C 0.84903 0.33304 0.27656 0.0
N690 N 0.83781 0.33428 0.25492 0.0
C691 C 0.8664 0.32705 0.2746 0.0
C692 C 0.87221 0.32227 0.25029 0.0
C693 C 0.86066 0.32354 0.22832 0.0
C694 C 0.84342 0.32965 0.23101 0.0
C695 C 0.7727 0.27617 0.22855 0.0
C696 C 0.78114 0.32068 0.21756 0.0
C697 C 0.78855 0.29535 0.24319 0.0
N698 N 0.79268 0.31727 0.23749 0.0
C699 C 0.76517 0.3019 0.20251 0.0
C700 C 0.76097 0.27952 0.20806 0.0
C701 C 0.79133 0.37255 0.26477 0.0
C702 C 0.84552 0.39524 0.35604 0.0
C703 C 0.82485 0.41129 0.32135 0.0
C704 C 0.82085 0.41164 0.34789 0.0
C705 C 0.83125 0.40353 0.36531 0.0
N706 N 0.83886 0.40314 0.31241 0.0
C707 C 0.84915 0.39519 0.32937 0.0
H708 H 0.20809 0.61944 0.41834 0.0
H709 H 0.24409 0.65691 0.42189 0.0
H710 H 0.28393 0.62165 0.42323 0.0
H711 H 0.24806 0.58401 0.42013 0.0
H712 H 0.2971 0.65615 0.46119 0.0
H713 H 0.29174 0.68906 0.36375 0.0
H714 H 0.26645 0.67994 0.38376 0.0
H715 H 0.27405 0.6588 0.37289 0.0
C716 C 0.22449 0.61959 0.41934 0.0
C717 C 0.22519 0.5987 0.41878 0.0
C718 C 0.24504 0.64105 0.42124 0.0
C719 C 0.26661 0.64198 0.42237 0.0
C720 C 0.26739 0.62122 0.42223 0.0
H721 H 0.41138 0.74757 0.42749 0.0
H722 H 0.37382 0.71149 0.42646 0.0
C723 C 0.24687 0.59974 0.42042 0.0
C724 C 0.28843 0.66461 0.42403 0.0
H725 H 0.32217 0.71542 0.39128 0.0
C726 C 0.30262 0.66912 0.44592 0.0
C727 C 0.29546 0.68143 0.40405 0.0
C728 C 0.28126 0.67707 0.37966 0.0
C729 C 0.32374 0.69014 0.4484 0.0
C730 C 0.33084 0.70684 0.42833 0.0
C731 C 0.31653 0.70249 0.40661 0.0
C732 C 0.35344 0.72868 0.42917 0.0
C733 C 0.33821 0.69442 0.47253 0.0
C734 C 0.35426 0.75021 0.43052 0.0
C735 C 0.37568 0.77091 0.43108 0.0
C736 C 0.39661 0.77035 0.43006 0.0
C737 C 0.39562 0.74866 0.42841 0.0
C738 C 0.3742 0.72801 0.42794 0.0
H739 H 0.32787 0.6825 0.48856 0.0
H740 H 0.35289 0.69143 0.4681 0.0
H741 H 0.34565 0.71273 0.47924 0.0
H742 H 0.33832 0.75098 0.4313 0.0
H743 H 0.37579 0.7873 0.43226 0.0
H744 H 0.58445 0.20729 0.57795 0.0
H745 H 0.58298 0.24346 0.57903 0.0
H746 H 0.65801 0.28347 0.58174 0.0
H747 H 0.65981 0.24757 0.58058 0.0
H748 H 0.60299 0.27936 0.61857 0.0
H749 H 0.63942 0.31174 0.52042 0.0
H750 H 0.6274 0.28161 0.52994 0.0
H751 H 0.65615 0.30315 0.54024 0.0
C752 C 0.60067 0.22376 0.57868 0.0
C753 C 0.62226 0.22452 0.57907 0.0
C754 C 0.59976 0.24437 0.57931 0.0
C755 C 0.62039 0.26601 0.5801 0.0
C756 C 0.64193 0.26687 0.58068 0.0
H757 H 0.66074 0.41075 0.58962 0.0
H758 H 0.6584 0.37285 0.58626 0.0
C759 C 0.64289 0.24632 0.58015 0.0
C760 C 0.61949 0.28778 0.5811 0.0
H761 H 0.63596 0.33841 0.54833 0.0
C762 C 0.60999 0.29223 0.60316 0.0
C763 C 0.62869 0.3044 0.56091 0.0
C764 C 0.63833 0.29999 0.53641 0.0
C765 C 0.61013 0.31336 0.60598 0.0
C766 C 0.61962 0.33014 0.58593 0.0
C767 C 0.62876 0.32548 0.56367 0.0
C768 C 0.62076 0.35291 0.58793 0.0
C769 C 0.60084 0.31786 0.63072 0.0
C770 C 0.60031 0.35415 0.58966 0.0
C771 C 0.60155 0.37576 0.59171 0.0
C772 C 0.62328 0.3965 0.59183 0.0
C773 C 0.64372 0.39514 0.58968 0.0
C774 C 0.64244 0.37352 0.58772 0.0
H775 H 0.59941 0.30578 0.64648 0.0
H776 H 0.61219 0.33608 0.63745 0.0
H777 H 0.58319 0.31525 0.62708 0.0
H778 H 0.5834 0.33842 0.58931 0.0
H779 H 0.58545 0.37615 0.59311 0.0
H780 H 0.20642 0.58625 0.7612 0.0
H781 H 0.24253 0.5848 0.75942 0.0
H782 H 0.28249 0.65998 0.75826 0.0
H783 H 0.24664 0.66177 0.76006 0.0
H784 H 0.2789 0.60631 0.71963 0.0
H785 H 0.30995 0.63943 0.81924 0.0
H786 H 0.2799 0.62732 0.80952 0.0
H787 H 0.30121 0.65647 0.80013 0.0
C788 C 0.22287 0.6025 0.76064 0.0
C789 C 0.22363 0.62414 0.76088 0.0
C790 C 0.24344 0.60161 0.7596 0.0
C791 C 0.26504 0.62228 0.75904 0.0
C792 C 0.26591 0.64387 0.75907 0.0
H793 H 0.40941 0.66064 0.75246 0.0
H794 H 0.37197 0.65925 0.75519 0.0
C795 C 0.24539 0.64481 0.75999 0.0
C796 C 0.28675 0.62138 0.75785 0.0
H797 H 0.33654 0.63605 0.79135 0.0
C798 C 0.29148 0.61263 0.73533 0.0
C799 C 0.30299 0.62973 0.77842 0.0
C800 C 0.29827 0.63861 0.80332 0.0
C801 C 0.31249 0.6126 0.73251 0.0
C802 C 0.32884 0.62111 0.75303 0.0
C803 C 0.32394 0.6296 0.77568 0.0
C804 C 0.35134 0.62172 0.75124 0.0
C805 C 0.3173 0.60414 0.70735 0.0
C806 C 0.35203 0.60102 0.74842 0.0
C807 C 0.37336 0.60172 0.74672 0.0
C808 C 0.39439 0.62316 0.74807 0.0
C809 C 0.39358 0.64384 0.75128 0.0
C810 C 0.37222 0.6431 0.75287 0.0
H811 H 0.30582 0.60382 0.69146 0.0
H812 H 0.33573 0.61537 0.70133 0.0
H813 H 0.31404 0.58612 0.71001 0.0
H814 H 0.33607 0.58431 0.7477 0.0
H815 H 0.37333 0.58543 0.74446 0.0
H816 H 0.78096 0.3813 0.94345 0.0
H817 H 0.74431 0.344 0.94472 0.0
H818 H 0.71752 0.3672 0.8821 0.0
H819 H 0.75341 0.40513 0.88245 0.0
H820 H 0.68583 0.34738 0.91458 0.0
H821 H 0.72187 0.28898 0.90019 0.0
H822 H 0.73415 0.30635 0.92866 0.0
H823 H 0.73963 0.32021 0.89729 0.0
C824 C 0.76714 0.37827 0.93003 0.0
C825 C 0.76973 0.39584 0.9129 0.0
C826 C 0.74636 0.35691 0.9305 0.0
C827 C 0.72832 0.35248 0.91304 0.0
C828 C 0.73116 0.37013 0.89574 0.0
H829 H 0.60966 0.21194 0.89349 0.0
H830 H 0.64675 0.24853 0.88862 0.0
C831 C 0.75159 0.39175 0.89591 0.0
C832 C 0.706 0.33001 0.91367 0.0
H833 H 0.68265 0.27097 0.91638 0.0
C834 C 0.68517 0.33068 0.91461 0.0
C835 C 0.70499 0.30813 0.91319 0.0
C836 C 0.72637 0.30588 0.90947 0.0
C837 C 0.66346 0.31019 0.91548 0.0
C838 C 0.66255 0.2884 0.91709 0.0
C839 C 0.68333 0.28767 0.91564 0.0
C840 C 0.64026 0.26618 0.92019 0.0
C841 C 0.64182 0.31228 0.91395 0.0
C842 C 0.62449 0.26376 0.93982 0.0
C843 C 0.60308 0.24324 0.94196 0.0
C844 C 0.59756 0.22448 0.92527 0.0
C845 C 0.61369 0.22633 0.9065 0.0
C846 C 0.63481 0.24717 0.90377 0.0
H847 H 0.6453 0.32838 0.90348 0.0
H848 H 0.62737 0.29707 0.90393 0.0
H849 H 0.6361 0.31342 0.93385 0.0
H850 H 0.62868 0.27776 0.95343 0.0
H851 H 0.59094 0.2419 0.95686 0.0
H852 H 0.35076 0.75693 0.04867 0.0
H853 H 0.35272 0.72105 0.05149 0.0
H854 H 0.39668 0.74806 0.1192 0.0
H855 H 0.39619 0.78471 0.115 0.0
H856 H 0.41141 0.72635 0.09196 0.0
H857 H 0.31608 0.66902 0.09902 0.0
H858 H 0.32351 0.68491 0.06917 0.0
H859 H 0.32961 0.70034 0.09962 0.0
C860 C 0.3609 0.75511 0.06403 0.0
C861 C 0.37318 0.77325 0.08176 0.0
C862 C 0.36182 0.73459 0.06583 0.0
C863 C 0.37417 0.73149 0.0861 0.0
C864 C 0.38688 0.74994 0.10352 0.0
H865 H 0.34616 0.59184 0.12373 0.0
H866 H 0.3482 0.62978 0.12331 0.0
C867 C 0.38659 0.77081 0.10117 0.0
C868 C 0.37399 0.70913 0.08902 0.0
H869 H 0.33799 0.65014 0.08963 0.0
C870 C 0.39533 0.70968 0.09176 0.0
C871 C 0.35299 0.68737 0.0894 0.0
C872 C 0.32929 0.68539 0.08946 0.0
C873 C 0.3963 0.6891 0.0944 0.0
C874 C 0.37541 0.6673 0.09281 0.0
C875 C 0.35406 0.66679 0.09048 0.0
C876 C 0.37509 0.64475 0.0938 0.0
C877 C 0.41966 0.69113 0.09959 0.0
C878 C 0.38944 0.64044 0.07736 0.0
C879 C 0.38882 0.61907 0.07829 0.0
C880 C 0.37311 0.60136 0.09482 0.0
C881 C 0.35831 0.60532 0.11073 0.0
C882 C 0.35949 0.62695 0.11047 0.0
H883 H 0.43171 0.70788 0.10937 0.0
H884 H 0.41794 0.6766 0.11191 0.0
H885 H 0.42778 0.69083 0.08089 0.0
H886 H 0.40095 0.65348 0.06361 0.0
H887 H 0.4002 0.61616 0.06569 0.0
H888 H 0.74723 0.33531 0.2594 0.0
H889 H 0.71074 0.33595 0.25791 0.0
H890 H 0.74862 0.41077 0.26666 0.0
H891 H 0.7853 0.41048 0.26812 0.0
H892 H 0.69369 0.35567 0.29757 0.0
H893 H 0.70701 0.39727 0.2005 0.0
H894 H 0.72289 0.38315 0.21103 0.0
H895 H 0.73062 0.41151 0.22323 0.0
C896 C 0.74788 0.35194 0.26094 0.0
C897 C 0.76923 0.37286 0.26381 0.0
C898 C 0.727 0.35223 0.26013 0.0
C899 C 0.72714 0.37341 0.26193 0.0
C900 C 0.7483 0.3943 0.26492 0.0
H901 H 0.61708 0.40758 0.25298 0.0
H902 H 0.65443 0.40897 0.25717 0.0
C903 C 0.7692 0.39405 0.26584 0.0
C904 C 0.70502 0.37357 0.26101 0.0
H905 H 0.67351 0.39038 0.2238 0.0
C906 C 0.6892 0.36323 0.28148 0.0
C907 C 0.69946 0.38357 0.24 0.0
C908 C 0.71576 0.39439 0.2173 0.0
C909 C 0.66784 0.36276 0.28158 0.0
C910 C 0.66208 0.37245 0.26036 0.0
C911 C 0.67804 0.38298 0.24001 0.0
C912 C 0.63941 0.37148 0.25863 0.0
C913 C 0.65182 0.35226 0.30457 0.0
C914 C 0.61867 0.34991 0.25785 0.0
C915 C 0.59728 0.34901 0.25556 0.0
C916 C 0.59629 0.36971 0.25371 0.0
C917 C 0.61718 0.3913 0.25435 0.0
C918 C 0.63855 0.39216 0.25675 0.0
H919 H 0.66139 0.35173 0.322 0.0
H920 H 0.64294 0.36225 0.30934 0.0
H921 H 0.63829 0.33408 0.29987 0.0
H922 H 0.61905 0.33376 0.25869 0.0
H923 H 0.58156 0.33208 0.25498 0.0
H924 H 0.11969 0.57444 0.69714 0.0
H925 H 0.11752 0.56037 0.6529 0.0
H926 H 0.17951 0.62478 0.63284 0.0
H927 H 0.18133 0.63937 0.67685 0.0
H928 H 0.1492 0.61054 0.59402 0.0
H929 H 0.15815 0.53584 0.62704 0.0
H930 H 0.13322 0.53559 0.64086 0.0
H931 H 0.16203 0.55897 0.64858 0.0
C932 C 0.13272 0.58577 0.68325 0.0
C933 C 0.15083 0.60798 0.69069 0.0
C934 C 0.13158 0.57758 0.65799 0.0
C935 C 0.14878 0.59117 0.63971 0.0
C936 C 0.16617 0.61383 0.64666 0.0
H937 H 0.18126 0.53948 0.49974 0.0
H938 H 0.17925 0.55195 0.54382 0.0
C939 C 0.16715 0.62219 0.67186 0.0
C940 C 0.14887 0.58165 0.61354 0.0
H941 H 0.14879 0.53593 0.58252 0.0
C942 C 0.14915 0.59425 0.59152 0.0
C943 C 0.14933 0.56061 0.6102 0.0
C944 C 0.15092 0.5471 0.63292 0.0
C945 C 0.14952 0.58628 0.56634 0.0
C946 C 0.14883 0.56468 0.563 0.0
C947 C 0.14892 0.55226 0.58502 0.0
C948 C 0.14872 0.55507 0.53683 0.0
C949 C 0.15133 0.6015 0.54364 0.0
C950 C 0.13166 0.55165 0.51846 0.0
C951 C 0.1329 0.54474 0.49315 0.0
C952 C 0.15099 0.54064 0.48575 0.0
C953 C 0.16711 0.54249 0.50469 0.0
C954 C 0.16603 0.54971 0.52993 0.0
H955 H 0.15869 0.62002 0.54954 0.0
H956 H 0.16243 0.60067 0.52802 0.0
H957 H 0.13368 0.5954 0.53562 0.0
H958 H 0.11766 0.55485 0.52351 0.0
H959 H 0.12003 0.54325 0.47918 0.0
H960 H 0.57295 0.12264 0.64536 0.0
H961 H 0.55937 0.1215 0.68958 0.0
H962 H 0.62495 0.18238 0.70887 0.0
H963 H 0.63901 0.18327 0.66477 0.0
H964 H 0.60948 0.15142 0.7481 0.0
H965 H 0.53781 0.16514 0.7149 0.0
H966 H 0.53636 0.13968 0.70081 0.0
H967 H 0.56066 0.1681 0.69352 0.0
C968 C 0.58465 0.13565 0.65905 0.0
C969 C 0.60703 0.15321 0.65134 0.0
C970 C 0.57674 0.1351 0.68431 0.0
C971 C 0.59083 0.15229 0.70236 0.0
C972 C 0.61364 0.16908 0.6952 0.0
H973 H 0.54106 0.18561 0.84381 0.0
H974 H 0.55407 0.1846 0.79966 0.0
C975 C 0.62169 0.16952 0.66996 0.0
C976 C 0.58161 0.15295 0.7285 0.0
H977 H 0.53697 0.15496 0.75935 0.0
C978 C 0.59366 0.15227 0.75055 0.0
C979 C 0.56123 0.15457 0.73177 0.0
C980 C 0.5484 0.15717 0.709 0.0
C981 C 0.58564 0.15261 0.7757 0.0
C982 C 0.56461 0.15301 0.77894 0.0
C983 C 0.55286 0.15425 0.7569 0.0
C984 C 0.55477 0.15253 0.80505 0.0
C985 C 0.60011 0.15307 0.79853 0.0
C986 C 0.54983 0.13433 0.82246 0.0
C987 C 0.54253 0.13492 0.84774 0.0
C988 C 0.53962 0.15356 0.8561 0.0
C989 C 0.54309 0.17099 0.83809 0.0
C990 C 0.55064 0.17049 0.81284 0.0
H991 H 0.61856 0.15971 0.79293 0.0
H992 H 0.59968 0.16416 0.81444 0.0
H993 H 0.59306 0.13507 0.80605 0.0
H994 H 0.55212 0.11988 0.81668 0.0
H995 H 0.53981 0.12107 0.86097 0.0
H996 H 0.35476 0.53141 0.00983 0.0
H997 H 0.3671 0.54094 0.96455 0.0
H998 H 0.43872 0.56891 0.98764 0.0
H999 H 0.42666 0.55897 0.03253 0.0
H1000 H 0.39468 0.58346 0.94387 0.0
H1001 H 0.43537 0.52927 0.92705 0.0
H1002 H 0.41714 0.52519 0.9548 0.0
H1003 H 0.44733 0.54774 0.95489 0.0
C1004 C 0.37309 0.53916 0.00523 0.0
C1005 C 0.38965 0.54429 0.02496 0.0
C1006 C 0.38014 0.5447 0.97932 0.0
C1007 C 0.40384 0.55539 0.97257 0.0
C1008 C 0.42031 0.56016 0.99217 0.0
H1009 H 0.46518 0.63903 0.8329 0.0
H1010 H 0.45412 0.62568 0.87765 0.0
C1011 C 0.41331 0.55453 0.01797 0.0
C1012 C 0.4116 0.56293 0.94541 0.0
H1013 H 0.44457 0.55977 0.89634 0.0
C1014 C 0.40545 0.57814 0.93341 0.0
C1015 C 0.42548 0.55585 0.93161 0.0
C1016 C 0.43152 0.53842 0.94264 0.0
C1017 C 0.41309 0.58674 0.90824 0.0
C1018 C 0.42783 0.58047 0.89489 0.0
C1019 C 0.43362 0.56493 0.90671 0.0
C1020 C 0.43643 0.58888 0.86814 0.0
C1021 C 0.40485 0.60206 0.89603 0.0
C1022 C 0.43132 0.57272 0.84807 0.0
C1023 C 0.43796 0.58027 0.82258 0.0
C1024 C 0.44987 0.60424 0.81646 0.0
C1025 C 0.45591 0.62046 0.8368 0.0
C1026 C 0.44938 0.61284 0.86239 0.0
H1027 H 0.38892 0.59995 0.90567 0.0
H1028 H 0.41868 0.62061 0.89797 0.0
H1029 H 0.40107 0.59806 0.87509 0.0
H1030 H 0.42152 0.55415 0.852 0.0
H1031 H 0.433 0.56719 0.80755 0.0
H1032 H 0.82377 0.35716 0.17663 0.0
H1033 H 0.82631 0.37004 0.13161 0.0
H1034 H 0.86411 0.44182 0.15655 0.0
H1035 H 0.86227 0.42929 0.20122 0.0
H1036 H 0.80836 0.39501 0.1108 0.0
H1037 H 0.90394 0.44355 0.09696 0.0
H1038 H 0.89026 0.42429 0.12413 0.0
H1039 H 0.89516 0.45362 0.12468 0.0
C1040 C 0.83302 0.37569 0.1725 0.0
C1041 C 0.84292 0.39213 0.19268 0.0
C1042 C 0.83436 0.38303 0.14673 0.0
C1043 C 0.84567 0.40693 0.14058 0.0
C1044 C 0.8558 0.42332 0.16063 0.0
H1045 H 0.8201 0.46438 0.99936 0.0
H1046 H 0.8222 0.45376 0.04438 0.0
C1047 C 0.85461 0.41605 0.18629 0.0
C1048 C 0.84577 0.4148 0.11349 0.0
H1049 H 0.8815 0.45029 0.06551 0.0
C1050 C 0.82436 0.40698 0.10083 0.0
C1051 C 0.86665 0.43028 0.10035 0.0
C1052 C 0.8903 0.43824 0.11212 0.0
C1053 C 0.82323 0.41443 0.07561 0.0
C1054 C 0.84407 0.43064 0.06287 0.0
C1055 C 0.86549 0.43818 0.07539 0.0
C1056 C 0.84413 0.43894 0.036 0.0
C1057 C 0.79974 0.40438 0.06265 0.0
C1058 C 0.8567 0.43528 0.0165 0.0
C1059 C 0.85588 0.44168 0.99088 0.0
C1060 C 0.84238 0.45188 0.98404 0.0
C1061 C 0.83056 0.45645 1.00382 0.0
C1062 C 0.83155 0.45016 0.02956 0.0
H1063 H 0.78657 0.38787 0.07201 0.0
H1064 H 0.79349 0.41707 0.06419 0.0
H1065 H 0.80084 0.40091 0.04178 0.0
H1066 H 0.86667 0.42682 0.02096 0.0
H1067 H 0.86529 0.43789 0.97632 0.0
H1068 H 0.41662 0.8754 0.14928 0.0
H1069 H 0.42997 0.87623 0.19355 0.0
H1070 H 0.36844 0.81002 0.20906 0.0
H1071 H 0.35457 0.80932 0.1649 0.0
H1072 H 0.37968 0.83889 0.25005 0.0
H1073 H 0.45847 0.83783 0.21646 0.0
H1074 H 0.45673 0.86215 0.20381 0.0
H1075 H 0.43505 0.83291 0.19484 0.0
C1076 C 0.40573 0.86112 0.16217 0.0
C1077 C 0.38458 0.84217 0.15338 0.0
C1078 C 0.41353 0.86152 0.18744 0.0
C1079 C 0.4006 0.84284 0.20442 0.0
C1080 C 0.37888 0.82451 0.19622 0.0
H1081 H 0.4554 0.81296 0.34426 0.0
H1082 H 0.44218 0.81381 0.30018 0.0
C1083 C 0.37091 0.82419 0.17096 0.0
C1084 C 0.40992 0.84229 0.23052 0.0
H1085 H 0.45699 0.84528 0.26143 0.0
C1086 C 0.39655 0.84022 0.25252 0.0
C1087 C 0.43173 0.8435 0.23379 0.0
C1088 C 0.44622 0.84397 0.21097 0.0
C1089 C 0.40459 0.83988 0.27766 0.0
C1090 C 0.42694 0.84232 0.28097 0.0
C1091 C 0.44006 0.84381 0.25895 0.0
C1092 C 0.4368 0.84304 0.30713 0.0
C1093 C 0.3888 0.8364 0.30036 0.0
C1094 C 0.43917 0.85978 0.32543 0.0
C1095 C 0.44657 0.85925 0.35067 0.0
C1096 C 0.45216 0.84217 0.35812 0.0
C1097 C 0.45123 0.82634 0.33927 0.0
C1098 C 0.44358 0.82675 0.31404 0.0
H1099 H 0.37025 0.82792 0.29432 0.0
H1100 H 0.39051 0.82555 0.31567 0.0
H1101 H 0.3936 0.85364 0.30885 0.0
H1102 H 0.4348 0.87301 0.32035 0.0
H1103 H 0.44731 0.8719 0.36454 0.0
H1104 H 0.54162 0.42031 0.31312 0.0
H1105 H 0.55345 0.43453 0.35732 0.0
H1106 H 0.54977 0.36968 0.37819 0.0
H1107 H 0.53707 0.35496 0.33423 0.0
H1108 H 0.53424 0.38477 0.41677 0.0
H1109 H 0.61853 0.45808 0.38301 0.0
H1110 H 0.59407 0.45873 0.36915 0.0
H1111 H 0.59892 0.43491 0.36173 0.0
C1112 C 0.54298 0.4089 0.32719 0.0
C1113 C 0.5386 0.38654 0.31998 0.0
C1114 C 0.55002 0.41719 0.35242 0.0
C1115 C 0.55329 0.40352 0.3709 0.0
C1116 C 0.54764 0.38069 0.36421 0.0
H1117 H 0.63838 0.45464 0.51013 0.0
H1118 H 0.62347 0.44207 0.46621 0.0
C1119 C 0.54029 0.37225 0.33904 0.0
C1120 C 0.56308 0.41315 0.39697 0.0
H1121 H 0.60943 0.45847 0.42754 0.0
C1122 C 0.55069 0.40087 0.41911 0.0
C1123 C 0.58483 0.43392 0.4001 0.0
C1124 C 0.59999 0.44705 0.37725 0.0
C1125 C 0.55924 0.40889 0.44421 0.0
C1126 C 0.58046 0.43024 0.44734 0.0
C1127 C 0.59301 0.44234 0.4252 0.0
C1128 C 0.59025 0.43987 0.47341 0.0
C1129 C 0.54574 0.39399 0.46706 0.0
C1130 C 0.57701 0.44383 0.49183 0.0
C1131 C 0.5854 0.45078 0.51705 0.0
C1132 C 0.60744 0.4544 0.52428 0.0
C1133 C 0.62134 0.452 0.50529 0.0
C1134 C 0.61279 0.44473 0.48014 0.0
H1135 H 0.53419 0.37549 0.46131 0.0
H1136 H 0.5576 0.39459 0.48262 0.0
H1137 H 0.53456 0.40054 0.47509 0.0
H1138 H 0.55992 0.44101 0.4869 0.0
H1139 H 0.57431 0.45271 0.53107 0.0
H1140 H 0.91445 0.44143 0.30347 0.0
H1141 H 0.95142 0.45268 0.32465 0.0
H1142 H 0.95265 0.39421 0.28944 0.0
H1143 H 0.91546 0.38277 0.26782 0.0
H1144 H 0.95987 0.42404 0.35967 0.0
H1145 H 0.0176 0.45176 0.27275 0.0
H1146 H 0.98901 0.44881 0.27206 0.0
H1147 H 0.99191 0.42329 0.27227 0.0
C1148 C 0.92262 0.43102 0.29998 0.0
C1149 C 0.91205 0.41123 0.28389 0.0
C1150 C 0.94371 0.43744 0.3122 0.0
C1151 C 0.95471 0.42428 0.30858 0.0
C1152 C 0.94448 0.4047 0.29225 0.0
H1153 H 0.07763 0.46155 0.40763 0.0
H1154 H 0.04049 0.43693 0.38525 0.0
C1155 C 0.92329 0.39823 0.27991 0.0
C1156 C 0.97674 0.43125 0.32243 0.0
H1157 H 0.03554 0.4582 0.31351 0.0
C1158 C 0.97643 0.43114 0.34965 0.0
C1159 C -0.0018 0.44049 0.30917 0.0
C1160 C -0.00058 0.44129 0.27995 0.0
C1161 C 0.99716 0.44113 0.36402 0.0
C1162 C 0.01867 0.45125 0.35074 0.0
C1163 C 0.01894 0.45031 0.32355 0.0
C1164 C 0.04099 0.46554 0.36442 0.0
C1165 C 0.99602 0.44209 0.39319 0.0
C1166 C 0.05345 0.48965 0.35998 0.0
C1167 C 0.07448 0.50368 0.37267 0.0
C1168 C 0.08355 0.49386 0.39003 0.0
C1169 C 0.07099 0.46965 0.39455 0.0
C1170 C 0.04983 0.45557 0.38178 0.0
H1171 H 0.97803 0.43593 0.40025 0.0
H1172 H 0.00228 0.43089 0.40189 0.0
H1173 H 0.00753 0.46019 0.40018 0.0
H1174 H 0.04683 0.49765 0.34671 0.0
H1175 H 0.0837 0.52224 0.36867 0.0
H1176 H 0.47469 0.91803 0.46242 0.0
H1177 H 0.50013 0.95562 0.48296 0.0
H1178 H 0.56051 0.95203 0.45885 0.0
H1179 H 0.5351 0.91419 0.43793 0.0
H1180 H 0.54766 0.961 0.52085 0.0
H1181 H 0.55528 0.01986 0.43964 0.0
H1182 H 0.52778 0.99338 0.44423 0.0
H1183 H 0.55279 0.9917 0.4342 0.0
C1184 C 0.49338 0.92527 0.46125 0.0
C1185 C 0.50291 0.91317 0.44856 0.0
C1186 C 0.50785 0.94671 0.47301 0.0
C1187 C 0.53206 0.95639 0.47241 0.0
C1188 C 0.5418 0.94469 0.45942 0.0
H1189 H 0.61858 0.08163 0.56804 0.0
H1190 H 0.60706 0.04529 0.54428 0.0
C1191 C 0.52728 0.92321 0.44741 0.0
C1192 C 0.54678 0.97852 0.48612 0.0
H1193 H 0.56608 0.0367 0.48145 0.0
C1194 C 0.55225 0.97771 0.51222 0.0
C1195 C 0.55248 5e-05 0.47463 0.0
C1196 C 0.54694 0.00153 0.44658 0.0
C1197 C 0.56211 0.99789 0.52767 0.0
C1198 C 0.56676 0.0193 0.51648 0.0
C1199 C 0.56245 0.02023 0.48996 0.0
C1200 C 0.5736 0.04039 0.53231 0.0
C1201 C 0.56611 0.99592 0.55612 0.0
C1202 C 0.55858 0.04952 0.53349 0.0
C1203 C 0.56512 0.07019 0.54681 0.0
C1204 C 0.58684 0.08216 0.55928 0.0
C1205 C 0.60163 0.07264 0.55882 0.0
C1206 C 0.5951 0.05192 0.54527 0.0
H1207 H 0.55815 0.97746 0.56253 0.0
H1208 H 0.58511 0.00468 0.55994 0.0
H1209 H 0.55882 0.00474 0.56802 0.0
H1210 H 0.54187 0.0408 0.52372 0.0
H1211 H 0.5533 0.07703 0.54688 0.0
H1212 H 0.47204 0.55683 0.70311 0.0
H1213 H 0.49787 0.54576 0.68181 0.0
H1214 H 0.55734 0.60366 0.71806 0.0
H1215 H 0.53148 0.61487 0.73983 0.0
H1216 H 0.53518 0.57388 0.64738 0.0
H1217 H 0.56427 0.54614 0.73504 0.0
H1218 H 0.53894 0.54962 0.73541 0.0
H1219 H 0.56758 0.57483 0.73523 0.0
C1220 C 0.49059 0.56717 0.70677 0.0
C1221 C 0.49971 0.58668 0.72327 0.0
C1222 C 0.50532 0.56086 0.69448 0.0
C1223 C 0.52945 0.57387 0.69842 0.0
C1224 C 0.53871 0.59327 0.71502 0.0
H1225 H 0.6148 0.53482 0.60104 0.0
H1226 H 0.60257 0.55999 0.62273 0.0
C1227 C 0.52392 0.59961 0.72744 0.0
C1228 C 0.54456 0.56679 0.68485 0.0
H1229 H 0.5761 0.53961 0.69454 0.0
C1230 C 0.54451 0.56676 0.65762 0.0
C1231 C 0.55663 0.55752 0.69839 0.0
C1232 C 0.55687 0.55683 0.72763 0.0
C1233 C 0.55522 0.55656 0.64353 0.0
C1234 C 0.56642 0.54639 0.65711 0.0
C1235 C 0.56752 0.54752 0.68429 0.0
C1236 C 0.57425 0.53178 0.64378 0.0
C1237 C 0.55326 0.55543 0.61436 0.0
C1238 C 0.56239 0.50772 0.64856 0.0
C1239 C 0.56923 0.49339 0.63629 0.0
C1240 C 0.58817 0.50284 0.61899 0.0
C1241 C 0.60002 0.527 0.6141 0.0
C1242 C 0.59311 0.54139 0.62646 0.0
H1243 H 0.54161 0.56172 0.60705 0.0
H1244 H 0.57078 0.56641 0.60572 0.0
H1245 H 0.54651 0.53724 0.60755 0.0
H1246 H 0.54773 0.5 0.6618 0.0
H1247 H 0.55973 0.47488 0.64055 0.0
H1248 H 0.07701 0.61568 0.76627 0.0
H1249 H 0.04026 0.6046 0.78881 0.0
H1250 H 0.04464 0.54956 0.82842 0.0
H1251 H 0.08106 0.56037 0.8063 0.0
H1252 H -0.00178 0.56071 0.78911 0.0
H1253 H 0.03553 0.58604 0.88763 0.0
H1254 H 0.05311 0.59646 0.85863 0.0
H1255 H 0.0448 0.56806 0.87146 0.0
C1256 C 0.07006 0.60115 0.7797 0.0
C1257 C 0.08199 0.58895 0.78456 0.0
C1258 C 0.04916 0.59494 0.79261 0.0
C1259 C 0.0401 0.57664 0.81069 0.0
C1260 C 0.05169 0.56413 0.81503 0.0
H1261 H 0.91134 0.47472 0.86621 0.0
H1262 H 0.94759 0.50094 0.84401 0.0
C1263 C 0.07243 0.57024 0.80218 0.0
C1264 C 0.01807 0.56968 0.82453 0.0
H1265 H 0.99451 0.55726 0.88526 0.0
C1266 C 0.9974 0.56042 0.81013 0.0
C1267 C 0.01709 0.56973 0.85193 0.0
C1268 C 0.03886 0.58084 0.86831 0.0
C1269 C 0.97563 0.54948 0.82248 0.0
C1270 C 0.97465 0.54753 0.84982 0.0
C1271 C 0.99533 0.55848 0.86427 0.0
C1272 C 0.9526 0.53208 0.86349 0.0
C1273 C 0.95386 0.53939 0.80613 0.0
C1274 C 0.94386 0.54082 0.88251 0.0
C1275 C 0.9231 0.52579 0.89547 0.0
C1276 C 0.91097 0.50178 0.88971 0.0
C1277 C 0.92016 0.49311 0.87106 0.0
C1278 C 0.94078 0.5081 0.85815 0.0
H1279 H 0.95722 0.54859 0.78723 0.0
H1280 H 0.94787 0.52076 0.80207 0.0
H1281 H 0.93964 0.54042 0.8163 0.0
H1282 H 0.95295 0.55927 0.88709 0.0
H1283 H 0.91643 0.53301 0.90969 0.0
H1284 H 0.45868 0.0789 0.93364 0.0
H1285 H 0.43283 0.04274 0.95714 0.0
H1286 H 0.49209 0.04755 0.99739 0.0
H1287 H 0.5179 0.08344 0.9743 0.0
H1288 H 0.43416 0.00077 0.95831 0.0
H1289 H 0.44677 0.03911 0.05637 0.0
H1290 H 0.45418 0.05649 0.02717 0.0
H1291 H 0.47394 0.04791 0.04029 0.0
C1292 C 0.46618 0.07219 0.94745 0.0
C1293 C 0.49033 0.08406 0.95213 0.0
C1294 C 0.4514 0.05163 0.96092 0.0
C1295 C 0.46054 0.04284 0.9794 0.0
C1296 C 0.48465 0.0544 0.98369 0.0
H1297 H 0.433 0.91459 0.03666 0.0
H1298 H 0.44332 0.95089 0.0144 0.0
C1299 C 0.49939 0.07482 0.97027 0.0
C1300 C 0.44534 0.02095 0.99351 0.0
H1301 H 0.43396 0.99787 0.05449 0.0
C1302 C 0.43365 0.00014 0.97933 0.0
C1303 C 0.44434 0.02022 0.02092 0.0
C1304 C 0.45528 0.04217 0.03707 0.0
C1305 C 0.42258 0.97846 0.99191 0.0
C1306 C 0.42354 0.9777 0.01926 0.0
C1307 C 0.43355 -0.00147 0.03349 0.0
C1308 C 0.4168 0.95568 0.0331 0.0
C1309 C 0.41069 0.95651 0.97579 0.0
C1310 C 0.39894 0.94678 0.05168 0.0
C1311 C 0.39299 0.92594 0.06464 0.0
C1312 C 0.40503 0.91392 0.05935 0.0
C1313 C 0.42329 0.92331 0.04117 0.0
C1314 C 0.42911 0.94398 0.02824 0.0
H1315 H 0.40511 0.9598 0.95671 0.0
H1316 H 0.42309 0.95018 0.97215 0.0
H1317 H 0.39524 0.94252 0.98598 0.0
H1318 H 0.38944 0.95578 0.05587 0.0
H1319 H 0.37882 0.91912 0.07851 0.0
H1320 H 0.38268 0.46449 0.10089 0.0
H1321 H 0.39338 0.43855 0.12344 0.0
H1322 H 0.44797 0.49763 0.16399 0.0
H1323 H 0.43746 0.52354 0.14187 0.0
H1324 H 0.43638 0.43977 0.1239 0.0
H1325 H 0.41159 0.45183 0.22266 0.0
H1326 H 0.40162 0.45968 0.19381 0.0
H1327 H 0.43011 0.47913 0.20681 0.0
C1328 C 0.39702 0.47195 0.11454 0.0
C1329 C 0.40919 0.49607 0.11964 0.0
C1330 C 0.40301 0.4571 0.12747 0.0
C1331 C 0.42109 0.46615 0.14579 0.0
C1332 C 0.43356 0.49025 0.15042 0.0
H1333 H 0.51972 0.43387 0.20116 0.0
H1334 H 0.49493 0.44578 0.17909 0.0
C1335 C 0.42764 0.50505 0.13756 0.0
C1336 C 0.42783 0.45081 0.15949 0.0
H1337 H 0.43929 0.43831 0.22002 0.0
C1338 C 0.4366 0.43903 0.14491 0.0
C1339 C 0.42765 0.4495 0.18687 0.0
C1340 C 0.417 0.46051 0.20345 0.0
C1341 C 0.44683 0.42743 0.15707 0.0
C1342 C 0.44858 0.42798 0.18443 0.0
C1343 C 0.43821 0.43822 0.19903 0.0
C1344 C 0.46316 0.42023 0.19799 0.0
C1345 C 0.45632 0.4153 0.14052 0.0
C1346 C 0.4536 0.4024 0.21662 0.0
C1347 C 0.46781 0.39557 0.22949 0.0
C1348 C 0.49181 0.40668 0.22406 0.0
C1349 C 0.50131 0.42486 0.20576 0.0
C1350 C 0.48713 0.43158 0.19293 0.0
H1351 H 0.44729 0.41003 0.12149 0.0
H1352 H 0.4751 0.42744 0.13677 0.0
H1353 H 0.45453 0.39957 0.1504 0.0
H1354 H 0.43514 0.39363 0.22096 0.0
H1355 H 0.45998 0.38148 0.24345 0.0
H1356 H 0.20744 0.49433 0.35791 0.0
H1357 H 0.22614 0.48796 0.32015 0.0
H1358 H 0.23507 0.55116 0.2853 0.0
H1359 H 0.21595 0.55725 0.3223 0.0
H1360 H 0.22047 0.51656 0.25017 0.0
H1361 H 0.29536 0.52304 0.30565 0.0
H1362 H 0.26722 0.50051 0.31635 0.0
H1363 H 0.27509 0.53062 0.31959 0.0
C1364 C 0.21334 0.50681 0.34214 0.0
C1365 C 0.21035 0.5264 0.34325 0.0
C1366 C 0.22415 0.50323 0.32064 0.0
C1367 C 0.23239 0.5193 0.30004 0.0
C1368 C 0.22893 0.53854 0.30094 0.0
H1369 H 0.34049 0.55857 0.18939 0.0
H1370 H 0.31494 0.55185 0.22623 0.0
C1371 C 0.21803 0.54203 0.32222 0.0
C1372 C 0.24498 0.51663 0.27758 0.0
H1373 H 0.29489 0.51675 0.26073 0.0
C1374 C 0.23664 0.51639 0.25246 0.0
C1375 C 0.26619 0.5166 0.28059 0.0
C1376 C 0.27667 0.51791 0.30695 0.0
C1377 C 0.24925 0.51689 0.23031 0.0
C1378 C 0.27055 0.51703 0.23332 0.0
C1379 C 0.2785 0.51649 0.25843 0.0
C1380 C 0.286 0.52011 0.21092 0.0
C1381 C 0.24022 0.51849 0.20397 0.0
C1382 C 0.27842 0.50432 0.19004 0.0
C1383 C 0.293 0.50826 0.16863 0.0
C1384 C 0.31553 0.52793 0.1679 0.0
C1385 C 0.32324 0.54329 0.18919 0.0
C1386 C 0.30865 0.53944 0.21038 0.0
H1387 H 0.22657 0.52349 0.20536 0.0
H1388 H 0.25456 0.53144 0.19156 0.0
H1389 H 0.23245 0.50124 0.19427 0.0
H1390 H 0.26121 0.48899 0.19025 0.0
H1391 H 0.28661 0.49599 0.15266 0.0
H1392 H 0.77568 0.28345 0.31327 0.0
H1393 H 0.75459 0.25803 0.35012 0.0
H1394 H 0.77406 0.31864 0.39771 0.0
H1395 H 0.79461 0.34398 0.36112 0.0
H1396 H 0.76709 0.25328 0.40106 0.0
H1397 H 0.70314 0.28395 0.40115 0.0
H1398 H 0.72332 0.29004 0.37484 0.0
H1399 H 0.73272 0.30727 0.404 0.0
C1400 C 0.7756 0.29131 0.33167 0.0
C1401 C 0.78649 0.31571 0.33416 0.0
C1402 C 0.76357 0.27679 0.35269 0.0
C1403 C 0.76232 0.28645 0.3765 0.0
C1404 C 0.77429 0.31079 0.37935 0.0
H1405 H 0.71211 0.22012 0.52734 0.0
H1406 H 0.73639 0.24019 0.48952 0.0
C1407 C 0.78609 0.32526 0.35839 0.0
C1408 C 0.74771 0.2713 0.39808 0.0
H1409 H 0.70223 0.2614 0.43738 0.0
C1410 C 0.75281 0.25491 0.40894 0.0
C1411 C 0.72885 0.27321 0.40809 0.0
C1412 C 0.7215 0.28939 0.39627 0.0
C1413 C 0.73987 0.24075 0.42996 0.0
C1414 C 0.72162 0.24337 0.44063 0.0
C1415 C 0.71632 0.25949 0.42939 0.0
C1416 C 0.70736 0.22945 0.46313 0.0
C1417 C 0.74561 0.22288 0.4402 0.0
C1418 C 0.68297 0.21685 0.46103 0.0
C1419 C 0.66913 0.20577 0.48264 0.0
C1420 C 0.67933 0.2069 0.5069 0.0
C1421 C 0.70376 0.21881 0.50887 0.0
C1422 C 0.71765 0.23017 0.48722 0.0
H1423 H 0.75504 0.2184 0.42555 0.0
H1424 H 0.75703 0.23012 0.45745 0.0
H1425 H 0.72959 0.20664 0.4461 0.0
H1426 H 0.67459 0.21601 0.44271 0.0
H1427 H 0.65036 0.19661 0.4804 0.0
H1428 H 0.43821 0.65699 0.65399 0.0
H1429 H 0.44594 0.68262 0.61699 0.0
H1430 H 0.50795 0.73623 0.65436 0.0
H1431 H 0.49995 0.7107 0.69212 0.0
H1432 H 0.48289 0.75393 0.63422 0.0
H1433 H 0.49225 0.69964 0.55938 0.0
H1434 H 0.46521 0.68322 0.57634 0.0
H1435 H 0.49233 0.69389 0.59357 0.0
C1436 C 0.45362 0.67417 0.65439 0.0
C1437 C 0.4685 0.68176 0.67607 0.0
C1438 C 0.45813 0.68876 0.63302 0.0
C1439 C 0.47782 0.71118 0.63254 0.0
C1440 C 0.49276 0.7189 0.65416 0.0
H1441 H 0.50151 0.78821 0.48555 0.0
H1442 H 0.50866 0.77031 0.52353 0.0
C1443 C 0.48817 0.7043 0.67573 0.0
C1444 C 0.4818 0.72685 0.61005 0.0
H1445 H 0.48212 0.72794 0.54382 0.0
C1446 C 0.48313 0.74841 0.61447 0.0
C1447 C 0.48266 0.72 0.58424 0.0
C1448 C 0.4833 0.69804 0.57812 0.0
C1449 C 0.48381 0.76257 0.5938 0.0
C1450 C 0.48252 0.75469 0.56798 0.0
C1451 C 0.4827 0.73385 0.56356 0.0
C1452 C 0.47925 0.76685 0.54548 0.0
C1453 C 0.48568 0.78574 0.59991 0.0
C1454 C 0.46027 0.77069 0.54503 0.0
C1455 C 0.45625 0.781 0.52353 0.0
C1456 C 0.47091 0.78741 0.5017 0.0
C1457 C 0.48992 0.78353 0.50206 0.0
C1458 C 0.49402 0.7733 0.52375 0.0
H1459 H 0.49485 0.79285 0.61861 0.0
H1460 H 0.4951 0.79877 0.58441 0.0
H1461 H 0.46793 0.78331 0.60179 0.0
H1462 H 0.44819 0.76526 0.56115 0.0
H1463 H 0.44135 0.78356 0.52393 0.0
H1464 H 0.78194 0.44053 0.81859 0.0
H1465 H 0.76381 0.44779 0.78152 0.0
H1466 H 0.76992 0.50872 0.81939 0.0
H1467 H 0.78768 0.50117 0.85722 0.0
H1468 H 0.72736 0.48246 0.79905 0.0
H1469 H 0.79206 0.49481 0.72429 0.0
H1470 H 0.78224 0.46775 0.74104 0.0
H1471 H 0.79789 0.49491 0.75849 0.0
C1472 C 0.77964 0.45562 0.81908 0.0
C1473 C 0.78633 0.4703 0.84093 0.0
C1474 C 0.76943 0.45987 0.79767 0.0
C1475 C 0.76595 0.47911 0.79733 0.0
C1476 C 0.77264 0.49389 0.81909 0.0
H1477 H 0.7112 0.50159 0.6508 0.0
H1478 H 0.73633 0.50909 0.68877 0.0
C1479 C 0.78279 0.48956 0.84068 0.0
C1480 C 0.75396 0.48267 0.77487 0.0
H1481 H 0.75338 0.48342 0.70864 0.0
C1482 C 0.73327 0.48308 0.77931 0.0
C1483 C 0.76186 0.484 0.74906 0.0
C1484 C 0.78488 0.48562 0.74296 0.0
C1485 C 0.71957 0.48331 0.75864 0.0
C1486 C 0.72643 0.48252 0.73281 0.0
C1487 C 0.74785 0.48361 0.7284 0.0
C1488 C 0.71094 0.47891 0.71028 0.0
C1489 C 0.69777 0.48419 0.76476 0.0
C1490 C 0.68843 0.45937 0.70957 0.0
C1491 C 0.67406 0.45514 0.68807 0.0
C1492 C 0.68196 0.47015 0.6665 0.0
C1493 C 0.70456 0.48971 0.66711 0.0
C1494 C 0.71894 0.49401 0.68879 0.0
H1495 H 0.69941 0.49305 0.78359 0.0
H1496 H 0.69383 0.49345 0.7494 0.0
H1497 H 0.68285 0.46613 0.76637 0.0
H1498 H 0.68207 0.44705 0.7255 0.0
H1499 H 0.65682 0.43983 0.68827 0.0
H1500 H 0.3443 0.80064 0.98023 0.0
H1501 H 0.32021 0.78148 0.94235 0.0
H1502 H 0.25823 0.75703 0.98892 0.0
H1503 H 0.28235 0.77685 0.0269 0.0
H1504 H 0.29254 0.73617 0.9365 0.0
H1505 H 0.23981 0.77927 0.92527 0.0
H1506 H 0.26517 0.79086 0.94593 0.0
H1507 H 0.23766 0.76733 0.95706 0.0
C1508 C 0.32552 0.79147 0.98237 0.0
C1509 C 0.31522 0.7902 0.0066 0.0
C1510 C 0.31176 0.78053 0.96066 0.0
C1511 C 0.28736 0.76794 0.96263 0.0
C1512 C 0.27697 0.76706 0.9867 0.0
H1513 H 0.2 0.65388 0.86 0.0
H1514 H 0.22075 0.67902 0.89669 0.0
C1515 C 0.29078 0.77828 0.00845 0.0
C1516 C 0.27315 0.75417 0.94003 0.0
H1517 H 0.2276 0.7444 0.90067 0.0
C1518 C 0.27844 0.73811 0.92862 0.0
C1519 C 0.25489 0.75683 0.92948 0.0
C1520 C 0.24916 0.77467 0.93988 0.0
C1521 C 0.26587 0.72446 0.90729 0.0
C1522 C 0.24698 0.72638 0.89743 0.0
C1523 C 0.2419 0.74274 0.90845 0.0
C1524 C 0.23232 0.71133 0.87581 0.0
C1525 C 0.27322 0.70834 0.89528 0.0
C1526 C 0.23091 0.72113 0.85218 0.0
C1527 C 0.21877 0.70673 0.83112 0.0
C1528 C 0.20791 0.68232 0.83339 0.0
C1529 C 0.20849 0.67262 0.85745 0.0
C1530 C 0.22041 0.68697 0.87846 0.0
H1531 H 0.2916 0.7138 0.90005 0.0
H1532 H 0.26205 0.69044 0.90297 0.0
H1533 H 0.27132 0.70774 0.87386 0.0
H1534 H 0.23984 0.7399 0.84977 0.0
H1535 H 0.21856 0.71471 0.81286 0.0
H1536 H 0.49181 0.28313 0.19259 0.0
H1537 H 0.48522 0.25805 0.15475 0.0
H1538 H 0.54877 0.31189 0.12018 0.0
H1539 H 0.5551 0.33713 0.15725 0.0
H1540 H 0.51422 0.29259 0.08504 0.0
H1541 H 0.51929 0.22294 0.13978 0.0
H1542 H 0.49711 0.22899 0.15061 0.0
H1543 H 0.5273 0.25086 0.15397 0.0
C1544 C 0.50433 0.28961 0.17688 0.0
C1545 C 0.52407 0.31208 0.17807 0.0
C1546 C 0.50061 0.2752 0.15533 0.0
C1547 C 0.5167 0.28292 0.13477 0.0
C1548 C 0.53613 0.3055 0.13578 0.0
H1549 H 0.55459 0.2137 0.02297 0.0
H1550 H 0.54811 0.2323 0.06026 0.0
C1551 C 0.53976 0.31991 0.15711 0.0
C1552 C 0.51381 0.2677 0.11218 0.0
H1553 H 0.51308 0.21752 0.0948 0.0
C1554 C 0.51375 0.27606 0.08716 0.0
C1555 C 0.5134 0.24621 0.11496 0.0
C1556 C 0.51447 0.23674 0.14123 0.0
C1557 C 0.51408 0.26399 0.06488 0.0
C1558 C 0.51384 0.24259 0.06766 0.0
C1559 C 0.51312 0.23384 0.09268 0.0
C1560 C 0.51668 0.2302 0.0451 0.0
C1561 C 0.51593 0.27491 0.03866 0.0
C1562 C 0.50096 0.22243 0.02419 0.0
C1563 C 0.50477 0.21195 1.00254 0.0
C1564 C 0.52423 0.20879 1.00159 0.0
C1565 C 0.53947 0.21593 0.02294 0.0
C1566 C 0.53576 0.22652 0.04438 0.0
H1567 H 0.52125 0.29367 0.04024 0.0
H1568 H 0.52872 0.27334 0.02617 0.0
H1569 H 0.4987 0.26576 0.02892 0.0
H1570 H 0.48581 0.22459 0.02454 0.0
H1571 H 0.49258 0.20646 0.98653 0.0
loop_
_geom_bond_atom_site_label_1
_geom_bond_atom_site_label_2
_geom_bond_distance
_geom_bond_site_symmetry_2
_ccdc_geom_bond_type
Co0 O2 2.143 . S
Co0 O8 2.074 . S
Co0 O11 2.093 . S
Co0 O24 2.097 . S
Co0 N41 2.151 . S
Co0 N49 2.214 . S
Co1 O2 2.160 . S
Co1 O7 2.058 . S
Co1 O17 2.057 . S
Co1 O32 2.037 . S
Co1 N36 2.145 . S
Co1 N57 2.257 . S
O2 Co0 2.143 . S
O2 Co1 2.160 . S
C3 O4 1.278 . S
C3 O11 1.224 . S
O4 C3 1.278 . S
C5 O6 1.245 . S
C5 O17 1.232 . S
O6 C5 1.245 . S
O7 Co1 2.058 . S
O7 C33 1.269 . S
O8 Co0 2.074 . S
O8 C33 1.257 . S
H9 C34 0.930 . S
H10 C40 0.930 . S
O11 Co0 2.093 . S
O11 C3 1.224 . S
H12 C44 0.929 . S
H13 C46 0.930 . S
H14 C47 0.930 . S
H15 C45 0.929 . S
H16 C48 0.928 . S
O17 Co1 2.057 . S
O17 C5 1.232 . S
H18 C37 0.929 . S
H19 C38 0.929 . S
H20 C50 0.931 . S
H21 C42 0.929 . S
H22 C51 0.930 . S
H23 C43 0.931 . S
O24 Co0 2.097 . S
O24 C52 1.214 . S
H25 C53 0.929 . S
H26 C54 0.929 . S
H27 C55 0.930 . S
H28 C56 0.929 . S
H29 C58 0.930 . S
H30 C35 0.930 . S
H31 C39 0.930 . S
O32 Co1 2.037 . S
O32 C52 1.234 . S
C33 O7 1.269 . S
C33 O8 1.257 . S
C34 H9 0.930 . S
C34 C37 1.388 . S
C34 C39 1.418 . S
C35 H30 0.930 . S
C35 C38 1.404 . S
C35 C39 1.353 . S
N36 Co1 2.145 . S
N36 C37 1.397 . S
N36 C38 1.334 . S
C37 H18 0.929 . S
C37 C34 1.388 . S
C37 N36 1.397 . S
C38 H19 0.929 . S
C38 C35 1.404 . S
C38 N36 1.334 . S
C39 H31 0.930 . S
C39 C34 1.418 . S
C39 C35 1.353 . S
C40 H10 0.930 . S
C40 N41 1.330 . S
C40 C42 1.446 . S
N41 Co0 2.151 . S
N41 C40 1.330 . S
N41 C45 1.418 . S
C42 H21 0.929 . S
C42 C40 1.446 . S
C42 C43 1.332 . S
C43 H23 0.931 . S
C43 C42 1.332 . S
C43 C44 1.267 . S
C44 H12 0.929 . S
C44 C43 1.267 . S
C44 C45 1.251 . S
C45 H15 0.929 . S
C45 N41 1.418 . S
C45 C44 1.251 . S
C46 H13 0.930 . S
C46 C48 1.406 . S
C46 C51 1.261 . S
C47 H14 0.930 . S
C47 N49 1.325 . S
C47 C50 1.357 . S
C48 H16 0.928 . S
C48 C46 1.406 . S
C48 N49 1.261 . S
N49 Co0 2.214 . S
N49 C47 1.325 . S
N49 C48 1.261 . S
C50 H20 0.931 . S
C50 C47 1.357 . S
C50 C51 1.312 . S
C51 H22 0.930 . S
C51 C46 1.261 . S
C51 C50 1.312 . S
C52 O24 1.214 . S
C52 O32 1.234 . S
C53 H25 0.929 . S
C53 C56 1.391 . S
C53 C58 1.391 . S
C54 H26 0.929 . S
C54 C55 1.390 . S
C54 N57 1.391 . S
C55 H27 0.930 . S
C55 C54 1.390 . S
C55 C56 1.392 . S
C56 H28 0.929 . S
C56 C53 1.391 . S
C56 C55 1.392 . S
N57 Co1 2.257 . S
N57 C54 1.391 . S
N57 C58 1.388 . S
C58 H29 0.930 . S
C58 C53 1.391 . S
C58 N57 1.388 . S
Co59 O61 2.143 . S
Co59 O67 2.074 . S
Co59 O70 2.093 . S
Co59 O83 2.097 . S
Co59 N100 2.151 . S
Co59 N108 2.214 . S
Co60 O61 2.160 . S
Co60 O66 2.058 . S
Co60 O76 2.057 . S
Co60 O91 2.037 . S
Co60 N95 2.145 . S
Co60 N116 2.257 . S
O61 Co59 2.143 . S
O61 Co60 2.160 . S
C62 O63 1.278 . S
C62 O70 1.224 . S
O63 C62 1.278 . S
C64 O65 1.245 . S
C64 O76 1.232 . S
O65 C64 1.245 . S
O66 Co60 2.058 . S
O66 C92 1.269 . S
O67 Co59 2.074 . S
O67 C92 1.257 . S
H68 C93 0.930 . S
H69 C99 0.930 . S
O70 Co59 2.093 . S
O70 C62 1.224 . S
H71 C103 0.929 . S
H72 C105 0.930 . S
H73 C106 0.930 . S
H74 C104 0.929 . S
H75 C107 0.928 . S
O76 Co60 2.057 . S
O76 C64 1.232 . S
H77 C96 0.929 . S
H78 C97 0.929 . S
H79 C109 0.931 . S
H80 C101 0.929 . S
H81 C110 0.930 . S
H82 C102 0.931 . S
O83 Co59 2.097 . S
O83 C111 1.214 . S
H84 C112 0.929 . S
H85 C113 0.929 . S
H86 C114 0.930 . S
H87 C115 0.929 . S
H88 C117 0.930 . S
H89 C94 0.930 . S
H90 C98 0.930 . S
O91 Co60 2.037 . S
O91 C111 1.234 . S
C92 O66 1.269 . S
C92 O67 1.257 . S
C93 H68 0.930 . S
C93 C96 1.388 . S
C93 C98 1.418 . S
C94 H89 0.930 . S
C94 C97 1.404 . S
C94 C98 1.353 . S
N95 Co60 2.145 . S
N95 C96 1.397 . S
N95 C97 1.334 . S
C96 H77 0.929 . S
C96 C93 1.388 . S
C96 N95 1.397 . S
C97 H78 0.929 . S
C97 C94 1.404 . S
C97 N95 1.334 . S
C98 H90 0.930 . S
C98 C93 1.418 . S
C98 C94 1.353 . S
C99 H69 0.930 . S
C99 N100 1.330 . S
C99 C101 1.446 . S
N100 Co59 2.151 . S
N100 C99 1.330 . S
N100 C104 1.418 . S
C101 H80 0.929 . S
C101 C99 1.446 . S
C101 C102 1.332 . S
C102 H82 0.931 . S
C102 C101 1.332 . S
C102 C103 1.267 . S
C103 H71 0.929 . S
C103 C102 1.267 . S
C103 C104 1.251 . S
C104 H74 0.929 . S
C104 N100 1.418 . S
C104 C103 1.251 . S
C105 H72 0.930 . S
C105 C107 1.406 . S
C105 C110 1.261 . S
C106 H73 0.930 . S
C106 N108 1.325 . S
C106 C109 1.357 . S
C107 H75 0.928 . S
C107 C105 1.406 . S
C107 N108 1.261 . S
N108 Co59 2.214 . S
N108 C106 1.325 . S
N108 C107 1.261 . S
C109 H79 0.931 . S
C109 C106 1.357 . S
C109 C110 1.312 . S
C110 H81 0.930 . S
C110 C105 1.261 . S
C110 C109 1.312 . S
C111 O83 1.214 . S
C111 O91 1.234 . S
C112 H84 0.929 . S
C112 C115 1.391 . S
C112 C117 1.391 . S
C113 H85 0.929 . S
C113 C114 1.390 . S
C113 N116 1.391 . S
C114 H86 0.930 . S
C114 C113 1.390 . S
C114 C115 1.392 . S
C115 H87 0.929 . S
C115 C112 1.391 . S
C115 C114 1.392 . S
N116 Co60 2.257 . S
N116 C113 1.391 . S
N116 C117 1.388 . S
C117 H88 0.930 . S
C117 C112 1.391 . S
C117 N116 1.388 . S
Co118 O120 2.143 . S
Co118 O126 2.074 . S
Co118 O129 2.093 . S
Co118 O142 2.097 . S
Co118 N159 2.151 . S
Co118 N167 2.214 . S
Co119 O120 2.160 . S
Co119 O125 2.058 . S
Co119 O135 2.057 . S
Co119 O150 2.037 . S
Co119 N154 2.145 . S
Co119 N175 2.257 . S
O120 Co118 2.143 . S
O120 Co119 2.160 . S
C121 O122 1.278 . S
C121 O129 1.224 . S
O122 C121 1.278 . S
C123 O124 1.245 . S
C123 O135 1.232 . S
O124 C123 1.245 . S
O125 Co119 2.058 . S
O125 C151 1.269 . S
O126 Co118 2.074 . S
O126 C151 1.257 . S
H127 C152 0.930 . S
H128 C158 0.930 . S
O129 Co118 2.093 . S
O129 C121 1.224 . S
H130 C162 0.929 . S
H131 C164 0.930 . S
H132 C165 0.930 . S
H133 C163 0.929 . S
H134 C166 0.928 . S
O135 Co119 2.057 . S
O135 C123 1.232 . S
H136 C155 0.929 . S
H137 C156 0.929 . S
H138 C168 0.931 . S
H139 C160 0.929 . S
H140 C169 0.930 . S
H141 C161 0.931 . S
O142 Co118 2.097 . S
O142 C170 1.214 . S
H143 C171 0.929 . S
H144 C172 0.929 . S
H145 C173 0.930 . S
H146 C174 0.929 . S
H147 C176 0.930 . S
H148 C153 0.930 . S
H149 C157 0.930 . S
O150 Co119 2.037 . S
O150 C170 1.234 . S
C151 O125 1.269 . S
C151 O126 1.257 . S
C152 H127 0.930 . S
C152 C155 1.388 . S
C152 C157 1.418 . S
C153 H148 0.930 . S
C153 C156 1.404 . S
C153 C157 1.353 . S
N154 Co119 2.145 . S
N154 C155 1.397 . S
N154 C156 1.334 . S
C155 H136 0.929 . S
C155 C152 1.388 . S
C155 N154 1.397 . S
C156 H137 0.929 . S
C156 C153 1.404 . S
C156 N154 1.334 . S
C157 H149 0.930 . S
C157 C152 1.418 . S
C157 C153 1.353 . S
C158 H128 0.930 . S
C158 N159 1.330 . S
C158 C160 1.446 . S
N159 Co118 2.151 . S
N159 C158 1.330 . S
N159 C163 1.418 . S
C160 H139 0.929 . S
C160 C158 1.446 . S
C160 C161 1.332 . S
C161 H141 0.931 . S
C161 C160 1.332 . S
C161 C162 1.267 . S
C162 H130 0.929 . S
C162 C161 1.267 . S
C162 C163 1.251 . S
C163 H133 0.929 . S
C163 N159 1.418 . S
C163 C162 1.251 . S
C164 H131 0.930 . S
C164 C166 1.406 . S
C164 C169 1.261 . S
C165 H132 0.930 . S
C165 N167 1.325 . S
C165 C168 1.357 . S
C166 H134 0.928 . S
C166 C164 1.406 . S
C166 N167 1.261 . S
N167 Co118 2.214 . S
N167 C165 1.325 . S
N167 C166 1.261 . S
C168 H138 0.931 . S
C168 C165 1.357 . S
C168 C169 1.312 . S
C169 H140 0.930 . S
C169 C164 1.261 . S
C169 C168 1.312 . S
C170 O142 1.214 . S
C170 O150 1.234 . S
C171 H143 0.929 . S
C171 C174 1.391 . S
C171 C176 1.391 . S
C172 H144 0.929 . S
C172 C173 1.390 . S
C172 N175 1.391 . S
C173 H145 0.930 . S
C173 C172 1.390 . S
C173 C174 1.392 . S
C174 H146 0.929 . S
C174 C171 1.391 . S
C174 C173 1.392 . S
N175 Co119 2.257 . S
N175 C172 1.391 . S
N175 C176 1.388 . S
C176 H147 0.930 . S
C176 C171 1.391 . S
C176 N175 1.388 . S
Co177 O179 2.143 . S
Co177 O185 2.074 . S
Co177 O188 2.093 . S
Co177 O201 2.097 . S
Co177 N218 2.151 . S
Co177 N226 2.214 . S
Co178 O179 2.160 . S
Co178 O184 2.058 . S
Co178 O194 2.057 . S
Co178 O209 2.037 . S
Co178 N213 2.145 . S
Co178 N234 2.257 . S
O179 Co177 2.143 . S
O179 Co178 2.160 . S
C180 O181 1.278 . S
C180 O188 1.224 . S
O181 C180 1.278 . S
C182 O183 1.245 . S
C182 O194 1.232 . S
O183 C182 1.245 . S
O184 Co178 2.058 . S
O184 C210 1.269 . S
O185 Co177 2.074 . S
O185 C210 1.257 . S
H186 C211 0.930 . S
H187 C217 0.930 . S
O188 Co177 2.093 . S
O188 C180 1.224 . S
H189 C221 0.929 . S
H190 C223 0.930 . S
H191 C224 0.930 . S
H192 C222 0.929 . S
H193 C225 0.928 . S
O194 Co178 2.057 . S
O194 C182 1.232 . S
H195 C214 0.929 . S
H196 C215 0.929 . S
H197 C227 0.931 . S
H198 C219 0.929 . S
H199 C228 0.930 . S
H200 C220 0.931 . S
O201 Co177 2.097 . S
O201 C229 1.214 . S
H202 C230 0.929 . S
H203 C231 0.929 . S
H204 C232 0.930 . S
H205 C233 0.929 . S
H206 C235 0.930 . S
H207 C212 0.930 . S
H208 C216 0.930 . S
O209 Co178 2.037 . S
O209 C229 1.234 . S
C210 O184 1.269 . S
C210 O185 1.257 . S
C211 H186 0.930 . S
C211 C214 1.388 . S
C211 C216 1.418 . S
C212 H207 0.930 . S
C212 C215 1.404 . S
C212 C216 1.353 . S
N213 Co178 2.145 . S
N213 C214 1.397 . S
N213 C215 1.334 . S
C214 H195 0.929 . S
C214 C211 1.388 . S
C214 N213 1.397 . S
C215 H196 0.929 . S
C215 C212 1.404 . S
C215 N213 1.334 . S
C216 H208 0.930 . S
C216 C211 1.418 . S
C216 C212 1.353 . S
C217 H187 0.930 . S
C217 N218 1.330 . S
C217 C219 1.446 . S
N218 Co177 2.151 . S
N218 C217 1.330 . S
N218 C222 1.418 . S
C219 H198 0.929 . S
C219 C217 1.446 . S
C219 C220 1.332 . S
C220 H200 0.931 . S
C220 C219 1.332 . S
C220 C221 1.267 . S
C221 H189 0.929 . S
C221 C220 1.267 . S
C221 C222 1.251 . S
C222 H192 0.929 . S
C222 N218 1.418 . S
C222 C221 1.251 . S
C223 H190 0.930 . S
C223 C225 1.406 . S
C223 C228 1.261 . S
C224 H191 0.930 . S
C224 N226 1.325 . S
C224 C227 1.357 . S
C225 H193 0.928 . S
C225 C223 1.406 . S
C225 N226 1.261 . S
N226 Co177 2.214 . S
N226 C224 1.325 . S
N226 C225 1.261 . S
C227 H197 0.931 . S
C227 C224 1.357 . S
C227 C228 1.312 . S
C228 H199 0.930 . S
C228 C223 1.261 . S
C228 C227 1.312 . S
C229 O201 1.214 . S
C229 O209 1.234 . S
C230 H202 0.929 . S
C230 C233 1.391 . S
C230 C235 1.391 . S
C231 H203 0.929 . S
C231 C232 1.390 . S
C231 N234 1.391 . S
C232 H204 0.930 . S
C232 C231 1.390 . S
C232 C233 1.392 . S
C233 H205 0.929 . S
C233 C230 1.391 . S
C233 C232 1.392 . S
N234 Co178 2.257 . S
N234 C231 1.391 . S
N234 C235 1.388 . S
C235 H206 0.930 . S
C235 C230 1.391 . S
C235 N234 1.388 . S
Co236 O238 2.143 . S
Co236 O244 2.074 . S
Co236 O247 2.093 . S
Co236 O260 2.097 . S
Co236 N277 2.151 . S
Co236 N285 2.214 . S
Co237 O238 2.160 . S
Co237 O243 2.058 . S
Co237 O253 2.057 . S
Co237 O268 2.037 . S
Co237 N272 2.145 . S
Co237 N293 2.257 . S
O238 Co236 2.143 . S
O238 Co237 2.160 . S
C239 O240 1.278 . S
C239 O247 1.224 . S
O240 C239 1.278 . S
C241 O242 1.245 . S
C241 O253 1.232 . S
O242 C241 1.245 . S
O243 Co237 2.058 . S
O243 C269 1.269 . S
O244 Co236 2.074 . S
O244 C269 1.257 . S
H245 C270 0.930 . S
H246 C276 0.930 . S
O247 Co236 2.093 . S
O247 C239 1.224 . S
H248 C280 0.929 . S
H249 C282 0.930 . S
H250 C283 0.930 . S
H251 C281 0.929 . S
H252 C284 0.928 . S
O253 Co237 2.057 . S
O253 C241 1.232 . S
H254 C273 0.929 . S
H255 C274 0.929 . S
H256 C286 0.931 . S
H257 C278 0.929 . S
H258 C287 0.930 . S
H259 C279 0.931 . S
O260 Co236 2.097 . S
O260 C288 1.214 . S
H261 C289 0.929 . S
H262 C290 0.929 . S
H263 C291 0.930 . S
H264 C292 0.929 . S
H265 C294 0.930 . S
H266 C271 0.930 . S
H267 C275 0.930 . S
O268 Co237 2.037 . S
O268 C288 1.234 . S
C269 O243 1.269 . S
C269 O244 1.257 . S
C270 H245 0.930 . S
C270 C273 1.388 . S
C270 C275 1.418 . S
C271 H266 0.930 . S
C271 C274 1.404 . S
C271 C275 1.353 . S
N272 Co237 2.145 . S
N272 C273 1.397 . S
N272 C274 1.334 . S
C273 H254 0.929 . S
C273 C270 1.388 . S
C273 N272 1.397 . S
C274 H255 0.929 . S
C274 C271 1.404 . S
C274 N272 1.334 . S
C275 H267 0.930 . S
C275 C270 1.418 . S
C275 C271 1.353 . S
C276 H246 0.930 . S
C276 N277 1.330 . S
C276 C278 1.446 . S
N277 Co236 2.151 . S
N277 C276 1.330 . S
N277 C281 1.418 . S
C278 H257 0.929 . S
C278 C276 1.446 . S
C278 C279 1.332 . S
C279 H259 0.931 . S
C279 C278 1.332 . S
C279 C280 1.267 . S
C280 H248 0.929 . S
C280 C279 1.267 . S
C280 C281 1.251 . S
C281 H251 0.929 . S
C281 N277 1.418 . S
C281 C280 1.251 . S
C282 H249 0.930 . S
C282 C284 1.406 . S
C282 C287 1.261 . S
C283 H250 0.930 . S
C283 N285 1.325 . S
C283 C286 1.357 . S
C284 H252 0.928 . S
C284 C282 1.406 . S
C284 N285 1.261 . S
N285 Co236 2.214 . S
N285 C283 1.325 . S
N285 C284 1.261 . S
C286 H256 0.931 . S
C286 C283 1.357 . S
C286 C287 1.312 . S
C287 H258 0.930 . S
C287 C282 1.261 . S
C287 C286 1.312 . S
C288 O260 1.214 . S
C288 O268 1.234 . S
C289 H261 0.929 . S
C289 C292 1.391 . S
C289 C294 1.391 1_556 S
C290 H262 0.929 . S
C290 C291 1.390 1_554 S
C290 N293 1.391 . S
C291 H263 0.930 . S
C291 C290 1.390 1_556 S
C291 C292 1.392 . S
C292 H264 0.929 . S
C292 C289 1.391 . S
C292 C291 1.392 . S
N293 Co237 2.257 . S
N293 C290 1.391 . S
N293 C294 1.388 . S
C294 H265 0.930 . S
C294 C289 1.391 1_554 S
C294 N293 1.388 . S
Co295 O297 2.143 . S
Co295 O303 2.074 . S
Co295 O306 2.093 . S
Co295 O319 2.097 . S
Co295 N336 2.151 . S
Co295 N344 2.214 . S
Co296 O297 2.160 . S
Co296 O302 2.058 . S
Co296 O312 2.057 . S
Co296 O327 2.037 . S
Co296 N331 2.145 . S
Co296 N352 2.257 . S
O297 Co295 2.143 . S
O297 Co296 2.160 . S
C298 O299 1.278 . S
C298 O306 1.224 . S
O299 C298 1.278 . S
C300 O301 1.245 . S
C300 O312 1.232 . S
O301 C300 1.245 . S
O302 Co296 2.058 . S
O302 C328 1.269 . S
O303 Co295 2.074 . S
O303 C328 1.257 . S
H304 C329 0.930 . S
H305 C335 0.930 . S
O306 Co295 2.093 . S
O306 C298 1.224 . S
H307 C339 0.929 . S
H308 C341 0.930 . S
H309 C342 0.930 . S
H310 C340 0.929 . S
H311 C343 0.928 . S
O312 Co296 2.057 . S
O312 C300 1.232 . S
H313 C332 0.929 . S
H314 C333 0.929 . S
H315 C345 0.931 . S
H316 C337 0.929 . S
H317 C346 0.930 . S
H318 C338 0.931 . S
O319 Co295 2.097 . S
O319 C347 1.214 . S
H320 C348 0.929 . S
H321 C349 0.929 . S
H322 C350 0.930 . S
H323 C351 0.929 . S
H324 C353 0.930 . S
H325 C330 0.930 . S
H326 C334 0.930 . S
O327 Co296 2.037 . S
O327 C347 1.234 . S
C328 O302 1.269 . S
C328 O303 1.257 . S
C329 H304 0.930 . S
C329 C332 1.388 . S
C329 C334 1.418 . S
C330 H325 0.930 . S
C330 C333 1.404 . S
C330 C334 1.353 . S
N331 Co296 2.145 . S
N331 C332 1.397 . S
N331 C333 1.334 . S
C332 H313 0.929 . S
C332 C329 1.388 . S
C332 N331 1.397 . S
C333 H314 0.929 . S
C333 C330 1.404 . S
C333 N331 1.334 . S
C334 H326 0.930 . S
C334 C329 1.418 . S
C334 C330 1.353 . S
C335 H305 0.930 . S
C335 N336 1.330 . S
C335 C337 1.446 . S
N336 Co295 2.151 . S
N336 C335 1.330 . S
N336 C340 1.418 . S
C337 H316 0.929 . S
C337 C335 1.446 . S
C337 C338 1.332 . S
C338 H318 0.931 . S
C338 C337 1.332 . S
C338 C339 1.267 . S
C339 H307 0.929 . S
C339 C338 1.267 . S
C339 C340 1.251 . S
C340 H310 0.929 . S
C340 N336 1.418 . S
C340 C339 1.251 . S
C341 H308 0.930 . S
C341 C343 1.406 . S
C341 C346 1.261 . S
C342 H309 0.930 . S
C342 N344 1.325 . S
C342 C345 1.357 . S
C343 H311 0.928 . S
C343 C341 1.406 . S
C343 N344 1.261 . S
N344 Co295 2.214 . S
N344 C342 1.325 . S
N344 C343 1.261 . S
C345 H315 0.931 . S
C345 C342 1.357 . S
C345 C346 1.312 . S
C346 H317 0.930 . S
C346 C341 1.261 . S
C346 C345 1.312 . S
C347 O319 1.214 . S
C347 O327 1.234 . S
C348 H320 0.929 . S
C348 C351 1.391 . S
C348 C353 1.391 . S
C349 H321 0.929 . S
C349 C350 1.390 . S
C349 N352 1.391 . S
C350 H322 0.930 . S
C350 C349 1.390 . S
C350 C351 1.392 . S
C351 H323 0.929 . S
C351 C348 1.391 . S
C351 C350 1.392 . S
N352 Co296 2.257 . S
N352 C349 1.391 . S
N352 C353 1.388 . S
C353 H324 0.930 . S
C353 C348 1.391 . S
C353 N352 1.388 . S
Co354 O356 2.143 . S
Co354 O362 2.074 . S
Co354 O365 2.093 . S
Co354 O378 2.097 . S
Co354 N395 2.151 . S
Co354 N403 2.214 . S
Co355 O356 2.160 . S
Co355 O361 2.058 . S
Co355 O371 2.057 . S
Co355 O386 2.037 . S
Co355 N390 2.145 . S
Co355 N411 2.257 . S
O356 Co354 2.143 . S
O356 Co355 2.160 . S
C357 O358 1.278 . S
C357 O365 1.224 . S
O358 C357 1.278 . S
C359 O360 1.245 . S
C359 O371 1.232 . S
O360 C359 1.245 . S
O361 Co355 2.058 . S
O361 C387 1.269 . S
O362 Co354 2.074 . S
O362 C387 1.257 . S
H363 C388 0.930 . S
H364 C394 0.930 . S
O365 Co354 2.093 . S
O365 C357 1.224 . S
H366 C398 0.929 . S
H367 C400 0.930 . S
H368 C401 0.930 . S
H369 C399 0.929 . S
H370 C402 0.928 . S
O371 Co355 2.057 . S
O371 C359 1.232 . S
H372 C391 0.929 . S
H373 C392 0.929 . S
H374 C404 0.931 . S
H375 C396 0.929 . S
H376 C405 0.930 . S
H377 C397 0.931 . S
O378 Co354 2.097 . S
O378 C406 1.214 . S
H379 C407 0.929 . S
H380 C408 0.929 . S
H381 C409 0.930 . S
H382 C410 0.929 . S
H383 C412 0.930 . S
H384 C389 0.930 . S
H385 C393 0.930 . S
O386 Co355 2.037 . S
O386 C406 1.234 . S
C387 O361 1.269 . S
C387 O362 1.257 . S
C388 H363 0.930 . S
C388 C391 1.388 . S
C388 C393 1.418 . S
C389 H384 0.930 . S
C389 C392 1.404 . S
C389 C393 1.353 . S
N390 Co355 2.145 . S
N390 C391 1.397 . S
N390 C392 1.334 . S
C391 H372 0.929 . S
C391 C388 1.388 . S
C391 N390 1.397 . S
C392 H373 0.929 . S
C392 C389 1.404 . S
C392 N390 1.334 . S
C393 H385 0.930 . S
C393 C388 1.418 . S
C393 C389 1.353 . S
C394 H364 0.930 . S
C394 N395 1.330 . S
C394 C396 1.446 . S
N395 Co354 2.151 . S
N395 C394 1.330 . S
N395 C399 1.418 . S
C396 H375 0.929 . S
C396 C394 1.446 . S
C396 C397 1.332 . S
C397 H377 0.931 . S
C397 C396 1.332 . S
C397 C398 1.267 . S
C398 H366 0.929 . S
C398 C397 1.267 . S
C398 C399 1.251 . S
C399 H369 0.929 . S
C399 N395 1.418 . S
C399 C398 1.251 . S
C400 H367 0.930 . S
C400 C402 1.406 . S
C400 C405 1.261 . S
C401 H368 0.930 . S
C401 N403 1.325 . S
C401 C404 1.357 . S
C402 H370 0.928 . S
C402 C400 1.406 . S
C402 N403 1.261 . S
N403 Co354 2.214 . S
N403 C401 1.325 . S
N403 C402 1.261 . S
C404 H374 0.931 . S
C404 C401 1.357 . S
C404 C405 1.312 . S
C405 H376 0.930 . S
C405 C400 1.261 . S
C405 C404 1.312 . S
C406 O378 1.214 . S
C406 O386 1.234 . S
C407 H379 0.929 . S
C407 C410 1.391 . S
C407 C412 1.391 . S
C408 H380 0.929 . S
C408 C409 1.390 . S
C408 N411 1.391 . S
C409 H381 0.930 . S
C409 C408 1.390 . S
C409 C410 1.392 . S
C410 H382 0.929 . S
C410 C407 1.391 . S
C410 C409 1.392 . S
N411 Co355 2.257 . S
N411 C408 1.391 . S
N411 C412 1.388 . S
C412 H383 0.930 . S
C412 C407 1.391 . S
C412 N411 1.388 . S
Co413 O415 2.143 . S
Co413 O421 2.074 . S
Co413 O424 2.093 . S
Co413 O437 2.097 . S
Co413 N454 2.151 . S
Co413 N462 2.214 . S
Co414 O415 2.160 . S
Co414 O420 2.058 . S
Co414 O430 2.057 . S
Co414 O445 2.037 . S
Co414 N449 2.145 . S
Co414 N470 2.257 . S
O415 Co413 2.143 . S
O415 Co414 2.160 . S
C416 O417 1.278 . S
C416 O424 1.224 . S
O417 C416 1.278 . S
C418 O419 1.245 . S
C418 O430 1.232 . S
O419 C418 1.245 . S
O420 Co414 2.058 . S
O420 C446 1.269 . S
O421 Co413 2.074 . S
O421 C446 1.257 . S
H422 C447 0.930 . S
H423 C453 0.930 . S
O424 Co413 2.093 . S
O424 C416 1.224 . S
H425 C457 0.929 . S
H426 C459 0.930 . S
H427 C460 0.930 . S
H428 C458 0.929 . S
H429 C461 0.928 . S
O430 Co414 2.057 . S
O430 C418 1.232 . S
H431 C450 0.929 . S
H432 C451 0.929 . S
H433 C463 0.931 . S
H434 C455 0.929 . S
H435 C464 0.930 . S
H436 C456 0.931 . S
O437 Co413 2.097 . S
O437 C465 1.214 . S
H438 C466 0.929 . S
H439 C467 0.929 . S
H440 C468 0.930 . S
H441 C469 0.929 . S
H442 C471 0.930 . S
H443 C448 0.930 . S
H444 C452 0.930 . S
O445 Co414 2.037 . S
O445 C465 1.234 . S
C446 O420 1.269 . S
C446 O421 1.257 . S
C447 H422 0.930 . S
C447 C450 1.388 . S
C447 C452 1.418 . S
C448 H443 0.930 . S
C448 C451 1.404 . S
C448 C452 1.353 . S
N449 Co414 2.145 . S
N449 C450 1.397 . S
N449 C451 1.334 . S
C450 H431 0.929 . S
C450 C447 1.388 . S
C450 N449 1.397 . S
C451 H432 0.929 . S
C451 C448 1.404 . S
C451 N449 1.334 . S
C452 H444 0.930 . S
C452 C447 1.418 . S
C452 C448 1.353 . S
C453 H423 0.930 . S
C453 N454 1.330 . S
C453 C455 1.446 . S
N454 Co413 2.151 . S
N454 C453 1.330 . S
N454 C458 1.418 . S
C455 H434 0.929 . S
C455 C453 1.446 . S
C455 C456 1.332 . S
C456 H436 0.931 . S
C456 C455 1.332 . S
C456 C457 1.267 . S
C457 H425 0.929 . S
C457 C456 1.267 . S
C457 C458 1.251 . S
C458 H428 0.929 . S
C458 N454 1.418 . S
C458 C457 1.251 . S
C459 H426 0.930 . S
C459 C461 1.406 . S
C459 C464 1.261 . S
C460 H427 0.930 . S
C460 N462 1.325 . S
C460 C463 1.357 . S
C461 H429 0.928 . S
C461 C459 1.406 . S
C461 N462 1.261 . S
N462 Co413 2.214 . S
N462 C460 1.325 . S
N462 C461 1.261 . S
C463 H433 0.931 . S
C463 C460 1.357 . S
C463 C464 1.312 . S
C464 H435 0.930 . S
C464 C459 1.261 . S
C464 C463 1.312 . S
C465 O437 1.214 . S
C465 O445 1.234 . S
C466 H438 0.929 . S
C466 C469 1.391 . S
C466 C471 1.391 . S
C467 H439 0.929 . S
C467 C468 1.390 . S
C467 N470 1.391 . S
C468 H440 0.930 . S
C468 C467 1.390 . S
C468 C469 1.392 . S
C469 H441 0.929 . S
C469 C466 1.391 . S
C469 C468 1.392 . S
N470 Co414 2.257 . S
N470 C467 1.391 . S
N470 C471 1.388 . S
C471 H442 0.930 . S
C471 C466 1.391 . S
C471 N470 1.388 . S
Co472 O474 2.143 . S
Co472 O480 2.074 . S
Co472 O483 2.093 . S
Co472 O496 2.097 . S
Co472 N513 2.151 . S
Co472 N521 2.214 . S
Co473 O474 2.160 . S
Co473 O479 2.058 . S
Co473 O489 2.057 . S
Co473 O504 2.037 . S
Co473 N508 2.145 . S
Co473 N529 2.257 . S
O474 Co472 2.143 . S
O474 Co473 2.160 . S
C475 O476 1.278 . S
C475 O483 1.224 . S
O476 C475 1.278 . S
C477 O478 1.245 . S
C477 O489 1.232 . S
O478 C477 1.245 . S
O479 Co473 2.058 . S
O479 C505 1.269 . S
O480 Co472 2.074 . S
O480 C505 1.257 . S
H481 C506 0.930 . S
H482 C512 0.930 . S
O483 Co472 2.093 . S
O483 C475 1.224 . S
H484 C516 0.929 . S
H485 C518 0.930 . S
H486 C519 0.930 . S
H487 C517 0.929 . S
H488 C520 0.928 . S
O489 Co473 2.057 . S
O489 C477 1.232 . S
H490 C509 0.929 . S
H491 C510 0.929 . S
H492 C522 0.931 . S
H493 C514 0.929 . S
H494 C523 0.930 . S
H495 C515 0.931 . S
O496 Co472 2.097 . S
O496 C524 1.214 . S
H497 C525 0.929 . S
H498 C526 0.929 . S
H499 C527 0.930 . S
H500 C528 0.929 . S
H501 C530 0.930 . S
H502 C507 0.930 . S
H503 C511 0.930 . S
O504 Co473 2.037 . S
O504 C524 1.234 . S
C505 O479 1.269 . S
C505 O480 1.257 . S
C506 H481 0.930 . S
C506 C509 1.388 . S
C506 C511 1.418 . S
C507 H502 0.930 . S
C507 C510 1.404 . S
C507 C511 1.353 . S
N508 Co473 2.145 . S
N508 C509 1.397 . S
N508 C510 1.334 . S
C509 H490 0.929 . S
C509 C506 1.388 . S
C509 N508 1.397 . S
C510 H491 0.929 . S
C510 C507 1.404 . S
C510 N508 1.334 . S
C511 H503 0.930 . S
C511 C506 1.418 . S
C511 C507 1.353 . S
C512 H482 0.930 . S
C512 N513 1.330 . S
C512 C514 1.446 . S
N513 Co472 2.151 . S
N513 C512 1.330 . S
N513 C517 1.418 . S
C514 H493 0.929 . S
C514 C512 1.446 . S
C514 C515 1.332 . S
C515 H495 0.931 . S
C515 C514 1.332 . S
C515 C516 1.267 . S
C516 H484 0.929 . S
C516 C515 1.267 . S
C516 C517 1.251 . S
C517 H487 0.929 . S
C517 N513 1.418 . S
C517 C516 1.251 . S
C518 H485 0.930 . S
C518 C520 1.406 . S
C518 C523 1.261 . S
C519 H486 0.930 . S
C519 N521 1.325 . S
C519 C522 1.357 . S
C520 H488 0.928 . S
C520 C518 1.406 . S
C520 N521 1.261 . S
N521 Co472 2.214 . S
N521 C519 1.325 . S
N521 C520 1.261 . S
C522 H492 0.931 . S
C522 C519 1.357 . S
C522 C523 1.312 . S
C523 H494 0.930 . S
C523 C518 1.261 . S
C523 C522 1.312 . S
C524 O496 1.214 . S
C524 O504 1.234 . S
C525 H497 0.929 . S
C525 C528 1.391 . S
C525 C530 1.391 . S
C526 H498 0.929 . S
C526 C527 1.390 . S
C526 N529 1.391 . S
C527 H499 0.930 . S
C527 C526 1.390 . S
C527 C528 1.392 . S
C528 H500 0.929 . S
C528 C525 1.391 . S
C528 C527 1.392 . S
N529 Co473 2.257 . S
N529 C526 1.391 . S
N529 C530 1.388 . S
C530 H501 0.930 . S
C530 C525 1.391 . S
C530 N529 1.388 . S
Co531 O533 2.143 . S
Co531 O539 2.074 . S
Co531 O542 2.093 . S
Co531 O555 2.097 . S
Co531 N572 2.151 . S
Co531 N580 2.214 . S
Co532 O533 2.160 . S
Co532 O538 2.058 . S
Co532 O548 2.057 . S
Co532 O563 2.037 . S
Co532 N567 2.145 . S
Co532 N588 2.257 . S
O533 Co531 2.143 . S
O533 Co532 2.160 . S
C534 O535 1.278 . S
C534 O542 1.224 . S
O535 C534 1.278 . S
C536 O537 1.245 . S
C536 O548 1.232 . S
O537 C536 1.245 . S
O538 Co532 2.058 . S
O538 C564 1.269 . S
O539 Co531 2.074 . S
O539 C564 1.257 . S
H540 C565 0.930 . S
H541 C571 0.930 . S
O542 Co531 2.093 . S
O542 C534 1.224 . S
H543 C575 0.929 . S
H544 C577 0.930 . S
H545 C578 0.930 . S
H546 C576 0.929 . S
H547 C579 0.928 . S
O548 Co532 2.057 . S
O548 C536 1.232 . S
H549 C568 0.929 . S
H550 C569 0.929 . S
H551 C581 0.931 . S
H552 C573 0.929 . S
H553 C582 0.930 . S
H554 C574 0.931 . S
O555 Co531 2.097 . S
O555 C583 1.214 . S
H556 C584 0.929 . S
H557 C585 0.929 . S
H558 C586 0.930 . S
H559 C587 0.929 . S
H560 C589 0.930 . S
H561 C566 0.930 . S
H562 C570 0.930 . S
O563 Co532 2.037 . S
O563 C583 1.234 . S
C564 O538 1.269 . S
C564 O539 1.257 . S
C565 H540 0.930 . S
C565 C568 1.388 . S
C565 C570 1.418 . S
C566 H561 0.930 . S
C566 C569 1.404 . S
C566 C570 1.353 . S
N567 Co532 2.145 . S
N567 C568 1.397 . S
N567 C569 1.334 . S
C568 H549 0.929 . S
C568 C565 1.388 . S
C568 N567 1.397 . S
C569 H550 0.929 . S
C569 C566 1.404 . S
C569 N567 1.334 . S
C570 H562 0.930 . S
C570 C565 1.418 . S
C570 C566 1.353 . S
C571 H541 0.930 . S
C571 N572 1.330 . S
C571 C573 1.446 . S
N572 Co531 2.151 . S
N572 C571 1.330 . S
N572 C576 1.418 . S
C573 H552 0.929 . S
C573 C571 1.446 . S
C573 C574 1.332 . S
C574 H554 0.931 . S
C574 C573 1.332 . S
C574 C575 1.267 . S
C575 H543 0.929 . S
C575 C574 1.267 . S
C575 C576 1.251 . S
C576 H546 0.929 . S
C576 N572 1.418 . S
C576 C575 1.251 . S
C577 H544 0.930 . S
C577 C579 1.406 . S
C577 C582 1.261 . S
C578 H545 0.930 . S
C578 N580 1.325 . S
C578 C581 1.357 . S
C579 H547 0.928 . S
C579 C577 1.406 . S
C579 N580 1.261 . S
N580 Co531 2.214 . S
N580 C578 1.325 . S
N580 C579 1.261 . S
C581 H551 0.931 . S
C581 C578 1.357 . S
C581 C582 1.312 . S
C582 H553 0.930 . S
C582 C577 1.261 . S
C582 C581 1.312 . S
C583 O555 1.214 . S
C583 O563 1.234 . S
C584 H556 0.929 . S
C584 C587 1.391 . S
C584 C589 1.391 1_554 S
C585 H557 0.929 . S
C585 C586 1.390 1_556 S
C585 N588 1.391 . S
C586 H558 0.930 . S
C586 C585 1.390 1_554 S
C586 C587 1.392 . S
C587 H559 0.929 . S
C587 C584 1.391 . S
C587 C586 1.392 . S
N588 Co532 2.257 . S
N588 C585 1.391 . S
N588 C589 1.388 . S
C589 H560 0.930 . S
C589 C584 1.391 1_556 S
C589 N588 1.388 . S
Co590 O592 2.143 . S
Co590 O598 2.074 . S
Co590 O601 2.093 . S
Co590 O614 2.097 . S
Co590 N631 2.151 . S
Co590 N639 2.214 . S
Co591 O592 2.160 . S
Co591 O597 2.058 . S
Co591 O607 2.057 . S
Co591 O622 2.037 . S
Co591 N626 2.145 . S
Co591 N647 2.257 . S
O592 Co590 2.143 . S
O592 Co591 2.160 . S
C593 O594 1.278 . S
C593 O601 1.224 . S
O594 C593 1.278 . S
C595 O596 1.245 . S
C595 O607 1.232 . S
O596 C595 1.245 . S
O597 Co591 2.058 . S
O597 C623 1.269 . S
O598 Co590 2.074 . S
O598 C623 1.257 . S
H599 C624 0.930 . S
H600 C630 0.930 . S
O601 Co590 2.093 . S
O601 C593 1.224 . S
H602 C634 0.929 . S
H603 C636 0.930 . S
H604 C637 0.930 . S
H605 C635 0.929 . S
H606 C638 0.928 . S
O607 Co591 2.057 . S
O607 C595 1.232 . S
H608 C627 0.929 . S
H609 C628 0.929 . S
H610 C640 0.931 . S
H611 C632 0.929 . S
H612 C641 0.930 . S
H613 C633 0.931 . S
O614 Co590 2.097 . S
O614 C642 1.214 . S
H615 C643 0.929 . S
H616 C644 0.929 . S
H617 C645 0.930 . S
H618 C646 0.929 . S
H619 C648 0.930 . S
H620 C625 0.930 . S
H621 C629 0.930 . S
O622 Co591 2.037 . S
O622 C642 1.234 . S
C623 O597 1.269 . S
C623 O598 1.257 . S
C624 H599 0.930 . S
C624 C627 1.388 . S
C624 C629 1.418 . S
C625 H620 0.930 . S
C625 C628 1.404 . S
C625 C629 1.353 . S
N626 Co591 2.145 . S
N626 C627 1.397 . S
N626 C628 1.334 . S
C627 H608 0.929 . S
C627 C624 1.388 . S
C627 N626 1.397 . S
C628 H609 0.929 . S
C628 C625 1.404 . S
C628 N626 1.334 . S
C629 H621 0.930 . S
C629 C624 1.418 . S
C629 C625 1.353 . S
C630 H600 0.930 . S
C630 N631 1.330 . S
C630 C632 1.446 . S
N631 Co590 2.151 . S
N631 C630 1.330 . S
N631 C635 1.418 . S
C632 H611 0.929 . S
C632 C630 1.446 . S
C632 C633 1.332 . S
C633 H613 0.931 . S
C633 C632 1.332 . S
C633 C634 1.267 . S
C634 H602 0.929 . S
C634 C633 1.267 . S
C634 C635 1.251 . S
C635 H605 0.929 . S
C635 N631 1.418 . S
C635 C634 1.251 . S
C636 H603 0.930 . S
C636 C638 1.406 . S
C636 C641 1.261 . S
C637 H604 0.930 . S
C637 N639 1.325 . S
C637 C640 1.357 . S
C638 H606 0.928 . S
C638 C636 1.406 . S
C638 N639 1.261 . S
N639 Co590 2.214 . S
N639 C637 1.325 . S
N639 C638 1.261 . S
C640 H610 0.931 . S
C640 C637 1.357 . S
C640 C641 1.312 . S
C641 H612 0.930 . S
C641 C636 1.261 . S
C641 C640 1.312 . S
C642 O614 1.214 . S
C642 O622 1.234 . S
C643 H615 0.929 . S
C643 C646 1.391 . S
C643 C648 1.391 . S
C644 H616 0.929 . S
C644 C645 1.390 . S
C644 N647 1.391 . S
C645 H617 0.930 . S
C645 C644 1.390 . S
C645 C646 1.392 . S
C646 H618 0.929 . S
C646 C643 1.391 . S
C646 C645 1.392 . S
N647 Co591 2.257 . S
N647 C644 1.391 . S
N647 C648 1.388 . S
C648 H619 0.930 . S
C648 C643 1.391 . S
C648 N647 1.388 . S
Co649 O651 2.143 . S
Co649 O657 2.074 . S
Co649 O660 2.093 . S
Co649 O673 2.097 . S
Co649 N690 2.151 . S
Co649 N698 2.214 . S
Co650 O651 2.160 . S
Co650 O656 2.058 . S
Co650 O666 2.057 . S
Co650 O681 2.037 . S
Co650 N685 2.145 . S
Co650 N706 2.257 . S
O651 Co649 2.143 . S
O651 Co650 2.160 . S
C652 O653 1.278 . S
C652 O660 1.224 . S
O653 C652 1.278 . S
C654 O655 1.245 . S
C654 O666 1.232 . S
O655 C654 1.245 . S
O656 Co650 2.058 . S
O656 C682 1.269 . S
O657 Co649 2.074 . S
O657 C682 1.257 . S
H658 C683 0.930 . S
H659 C689 0.930 . S
O660 Co649 2.093 . S
O660 C652 1.224 . S
H661 C693 0.929 . S
H662 C695 0.930 . S
H663 C696 0.930 . S
H664 C694 0.929 . S
H665 C697 0.928 . S
O666 Co650 2.057 . S
O666 C654 1.232 . S
H667 C686 0.929 . S
H668 C687 0.929 . S
H669 C699 0.931 . S
H670 C691 0.929 . S
H671 C700 0.930 . S
H672 C692 0.931 . S
O673 Co649 2.097 . S
O673 C701 1.214 . S
H674 C702 0.929 . S
H675 C703 0.929 . S
H676 C704 0.930 . S
H677 C705 0.929 . S
H678 C707 0.930 . S
H679 C684 0.930 . S
H680 C688 0.930 . S
O681 Co650 2.037 . S
O681 C701 1.234 . S
C682 O656 1.269 . S
C682 O657 1.257 . S
C683 H658 0.930 . S
C683 C686 1.388 . S
C683 C688 1.418 . S
C684 H679 0.930 . S
C684 C687 1.404 . S
C684 C688 1.353 . S
N685 Co650 2.145 . S
N685 C686 1.397 . S
N685 C687 1.334 . S
C686 H667 0.929 . S
C686 C683 1.388 . S
C686 N685 1.397 . S
C687 H668 0.929 . S
C687 C684 1.404 . S
C687 N685 1.334 . S
C688 H680 0.930 . S
C688 C683 1.418 . S
C688 C684 1.353 . S
C689 H659 0.930 . S
C689 N690 1.330 . S
C689 C691 1.446 . S
N690 Co649 2.151 . S
N690 C689 1.330 . S
N690 C694 1.418 . S
C691 H670 0.929 . S
C691 C689 1.446 . S
C691 C692 1.332 . S
C692 H672 0.931 . S
C692 C691 1.332 . S
C692 C693 1.267 . S
C693 H661 0.929 . S
C693 C692 1.267 . S
C693 C694 1.251 . S
C694 H664 0.929 . S
C694 N690 1.418 . S
C694 C693 1.251 . S
C695 H662 0.930 . S
C695 C697 1.406 . S
C695 C700 1.261 . S
C696 H663 0.930 . S
C696 N698 1.325 . S
C696 C699 1.357 . S
C697 H665 0.928 . S
C697 C695 1.406 . S
C697 N698 1.261 . S
N698 Co649 2.214 . S
N698 C696 1.325 . S
N698 C697 1.261 . S
C699 H669 0.931 . S
C699 C696 1.357 . S
C699 C700 1.312 . S
C700 H671 0.930 . S
C700 C695 1.261 . S
C700 C699 1.312 . S
C701 O673 1.214 . S
C701 O681 1.234 . S
C702 H674 0.929 . S
C702 C705 1.391 . S
C702 C707 1.391 . S
C703 H675 0.929 . S
C703 C704 1.390 . S
C703 N706 1.391 . S
C704 H676 0.930 . S
C704 C703 1.390 . S
C704 C705 1.392 . S
C705 H677 0.929 . S
C705 C702 1.391 . S
C705 C704 1.392 . S
N706 Co650 2.257 . S
N706 C703 1.391 . S
N706 C707 1.388 . S
C707 H678 0.930 . S
C707 C702 1.391 . S
C707 N706 1.388 . S
H708 C716 0.929 . S
H709 C718 0.930 . S
H710 C720 0.930 . S
H711 C723 0.929 . S
H712 C726 0.930 . S
H713 C728 0.960 . S
H714 C728 0.960 . S
H715 C728 0.960 . S
C716 H708 0.929 . S
C716 C717 1.377 . S
C716 C718 1.384 . S
C717 C716 1.377 . S
C717 C723 1.390 . S
C718 H709 0.930 . S
C718 C716 1.384 . S
C718 C719 1.372 . S
C719 C718 1.372 . S
C719 C720 1.400 . S
C719 C724 1.490 . S
C720 H710 0.930 . S
C720 C719 1.400 . S
C720 C723 1.386 . S
H721 C737 0.930 . S
H722 C738 0.931 . S
C723 H711 0.929 . S
C723 C717 1.390 . S
C723 C720 1.386 . S
C724 C719 1.490 . S
C724 C726 1.395 . S
C724 C727 1.403 . S
H725 C731 0.930 . S
C726 H712 0.930 . S
C726 C724 1.395 . S
C726 C729 1.403 . S
C727 C724 1.403 . S
C727 C728 1.524 . S
C727 C731 1.400 . S
C728 H713 0.960 . S
C728 H714 0.960 . S
C728 H715 0.960 . S
C728 C727 1.524 . S
C729 C726 1.403 . S
C729 C730 1.392 . S
C729 C733 1.495 . S
C730 C729 1.392 . S
C730 C731 1.385 . S
C730 C732 1.478 . S
C731 H725 0.930 . S
C731 C727 1.400 . S
C731 C730 1.385 . S
C732 C730 1.478 . S
C732 C734 1.381 . S
C732 C738 1.383 . S
C733 C729 1.495 . S
C733 H739 0.959 . S
C733 H740 0.961 . S
C733 H741 0.960 . S
C734 C732 1.381 . S
C734 C735 1.394 . S
C734 H742 0.930 . S
C735 C734 1.394 . S
C735 C736 1.383 . S
C735 H743 0.929 . S
C736 C735 1.383 . S
C736 C737 1.377 . S
C737 H721 0.930 . S
C737 C736 1.377 . S
C737 C738 1.379 . S
C738 H722 0.931 . S
C738 C732 1.383 . S
C738 C737 1.379 . S
H739 C733 0.959 . S
H740 C733 0.961 . S
H741 C733 0.960 . S
H742 C734 0.930 . S
H743 C735 0.929 . S
H744 C752 0.929 . S
H745 C754 0.930 . S
H746 C756 0.930 . S
H747 C759 0.929 . S
H748 C762 0.930 . S
H749 C764 0.960 . S
H750 C764 0.960 . S
H751 C764 0.960 . S
C752 H744 0.929 . S
C752 C753 1.377 . S
C752 C754 1.384 . S
C753 C752 1.377 . S
C753 C759 1.390 . S
C754 H745 0.930 . S
C754 C752 1.384 . S
C754 C755 1.372 . S
C755 C754 1.372 . S
C755 C756 1.400 . S
C755 C760 1.490 . S
C756 H746 0.930 . S
C756 C755 1.400 . S
C756 C759 1.386 . S
H757 C773 0.930 . S
H758 C774 0.931 . S
C759 H747 0.929 . S
C759 C753 1.390 . S
C759 C756 1.386 . S
C760 C755 1.490 . S
C760 C762 1.395 . S
C760 C763 1.403 . S
H761 C767 0.930 . S
C762 H748 0.930 . S
C762 C760 1.395 . S
C762 C765 1.403 . S
C763 C760 1.403 . S
C763 C764 1.524 . S
C763 C767 1.400 . S
C764 H749 0.960 . S
C764 H750 0.960 . S
C764 H751 0.960 . S
C764 C763 1.524 . S
C765 C762 1.403 . S
C765 C766 1.392 . S
C765 C769 1.495 . S
C766 C765 1.392 . S
C766 C767 1.385 . S
C766 C768 1.478 . S
C767 H761 0.930 . S
C767 C763 1.400 . S
C767 C766 1.385 . S
C768 C766 1.478 . S
C768 C770 1.381 . S
C768 C774 1.383 . S
C769 C765 1.495 . S
C769 H775 0.959 . S
C769 H776 0.961 . S
C769 H777 0.960 . S
C770 C768 1.381 . S
C770 C771 1.394 . S
C770 H778 0.930 . S
C771 C770 1.394 . S
C771 C772 1.383 . S
C771 H779 0.929 . S
C772 C771 1.383 . S
C772 C773 1.377 . S
C773 H757 0.930 . S
C773 C772 1.377 . S
C773 C774 1.379 . S
C774 H758 0.931 . S
C774 C768 1.383 . S
C774 C773 1.379 . S
H775 C769 0.959 . S
H776 C769 0.961 . S
H777 C769 0.960 . S
H778 C770 0.930 . S
H779 C771 0.929 . S
H780 C788 0.929 . S
H781 C790 0.930 . S
H782 C792 0.930 . S
H783 C795 0.929 . S
H784 C798 0.930 . S
H785 C800 0.960 . S
H786 C800 0.960 . S
H787 C800 0.960 . S
C788 H780 0.929 . S
C788 C789 1.377 . S
C788 C790 1.384 . S
C789 C788 1.377 . S
C789 C795 1.390 . S
C790 H781 0.930 . S
C790 C788 1.384 . S
C790 C791 1.372 . S
C791 C790 1.372 . S
C791 C792 1.400 . S
C791 C796 1.490 . S
C792 H782 0.930 . S
C792 C791 1.400 . S
C792 C795 1.386 . S
H793 C809 0.930 . S
H794 C810 0.931 . S
C795 H783 0.929 . S
C795 C789 1.390 . S
C795 C792 1.386 . S
C796 C791 1.490 . S
C796 C798 1.395 . S
C796 C799 1.403 . S
H797 C803 0.930 . S
C798 H784 0.930 . S
C798 C796 1.395 . S
C798 C801 1.403 . S
C799 C796 1.403 . S
C799 C800 1.524 . S
C799 C803 1.400 . S
C800 H785 0.960 . S
C800 H786 0.960 . S
C800 H787 0.960 . S
C800 C799 1.524 . S
C801 C798 1.403 . S
C801 C802 1.392 . S
C801 C805 1.495 . S
C802 C801 1.392 . S
C802 C803 1.385 . S
C802 C804 1.478 . S
C803 H797 0.930 . S
C803 C799 1.400 . S
C803 C802 1.385 . S
C804 C802 1.478 . S
C804 C806 1.381 . S
C804 C810 1.383 . S
C805 C801 1.495 . S
C805 H811 0.959 . S
C805 H812 0.961 . S
C805 H813 0.960 . S
C806 C804 1.381 . S
C806 C807 1.394 . S
C806 H814 0.930 . S
C807 C806 1.394 . S
C807 C808 1.383 . S
C807 H815 0.929 . S
C808 C807 1.383 . S
C808 C809 1.377 . S
C809 H793 0.930 . S
C809 C808 1.377 . S
C809 C810 1.379 . S
C810 H794 0.931 . S
C810 C804 1.383 . S
C810 C809 1.379 . S
H811 C805 0.959 . S
H812 C805 0.961 . S
H813 C805 0.960 . S
H814 C806 0.930 . S
H815 C807 0.929 . S
H816 C824 0.929 . S
H817 C826 0.930 . S
H818 C828 0.930 . S
H819 C831 0.929 . S
H820 C834 0.930 . S
H821 C836 0.960 . S
H822 C836 0.960 . S
H823 C836 0.960 . S
C824 H816 0.929 . S
C824 C825 1.377 . S
C824 C826 1.384 . S
C825 C824 1.377 . S
C825 C831 1.390 . S
C826 H817 0.930 . S
C826 C824 1.384 . S
C826 C827 1.372 . S
C827 C826 1.372 . S
C827 C828 1.400 . S
C827 C832 1.490 . S
C828 H818 0.930 . S
C828 C827 1.400 . S
C828 C831 1.386 . S
H829 C845 0.930 . S
H830 C846 0.931 . S
C831 H819 0.929 . S
C831 C825 1.390 . S
C831 C828 1.386 . S
C832 C827 1.490 . S
C832 C834 1.395 . S
C832 C835 1.403 . S
H833 C839 0.930 . S
C834 H820 0.930 . S
C834 C832 1.395 . S
C834 C837 1.403 . S
C835 C832 1.403 . S
C835 C836 1.524 . S
C835 C839 1.400 . S
C836 H821 0.960 . S
C836 H822 0.960 . S
C836 H823 0.960 . S
C836 C835 1.524 . S
C837 C834 1.403 . S
C837 C838 1.392 . S
C837 C841 1.495 . S
C838 C837 1.392 . S
C838 C839 1.385 . S
C838 C840 1.478 . S
C839 H833 0.930 . S
C839 C835 1.400 . S
C839 C838 1.385 . S
C840 C838 1.478 . S
C840 C842 1.381 . S
C840 C846 1.383 . S
C841 C837 1.495 . S
C841 H847 0.959 . S
C841 H848 0.961 . S
C841 H849 0.960 . S
C842 C840 1.381 . S
C842 C843 1.394 . S
C842 H850 0.930 . S
C843 C842 1.394 . S
C843 C844 1.383 . S
C843 H851 0.929 . S
C844 C843 1.383 . S
C844 C845 1.377 . S
C845 H829 0.930 . S
C845 C844 1.377 . S
C845 C846 1.379 . S
C846 H830 0.931 . S
C846 C840 1.383 . S
C846 C845 1.379 . S
H847 C841 0.959 . S
H848 C841 0.961 . S
H849 C841 0.960 . S
H850 C842 0.930 . S
H851 C843 0.929 . S
H852 C860 0.929 . S
H853 C862 0.930 . S
H854 C864 0.930 . S
H855 C867 0.929 . S
H856 C870 0.930 . S
H857 C872 0.960 . S
H858 C872 0.960 . S
H859 C872 0.960 . S
C860 H852 0.929 . S
C860 C861 1.377 . S
C860 C862 1.384 . S
C861 C860 1.377 . S
C861 C867 1.390 . S
C862 H853 0.930 . S
C862 C860 1.384 . S
C862 C863 1.372 . S
C863 C862 1.372 . S
C863 C864 1.400 . S
C863 C868 1.490 . S
C864 H854 0.930 . S
C864 C863 1.400 . S
C864 C867 1.386 . S
H865 C881 0.930 . S
H866 C882 0.931 . S
C867 H855 0.929 . S
C867 C861 1.390 . S
C867 C864 1.386 . S
C868 C863 1.490 . S
C868 C870 1.395 . S
C868 C871 1.403 . S
H869 C875 0.930 . S
C870 H856 0.930 . S
C870 C868 1.395 . S
C870 C873 1.403 . S
C871 C868 1.403 . S
C871 C872 1.524 . S
C871 C875 1.400 . S
C872 H857 0.960 . S
C872 H858 0.960 . S
C872 H859 0.960 . S
C872 C871 1.524 . S
C873 C870 1.403 . S
C873 C874 1.392 . S
C873 C877 1.495 . S
C874 C873 1.392 . S
C874 C875 1.385 . S
C874 C876 1.478 . S
C875 H869 0.930 . S
C875 C871 1.400 . S
C875 C874 1.385 . S
C876 C874 1.478 . S
C876 C878 1.381 . S
C876 C882 1.383 . S
C877 C873 1.495 . S
C877 H883 0.959 . S
C877 H884 0.961 . S
C877 H885 0.960 . S
C878 C876 1.381 . S
C878 C879 1.394 . S
C878 H886 0.930 . S
C879 C878 1.394 . S
C879 C880 1.383 . S
C879 H887 0.929 . S
C880 C879 1.383 . S
C880 C881 1.377 . S
C881 H865 0.930 . S
C881 C880 1.377 . S
C881 C882 1.379 . S
C882 H866 0.931 . S
C882 C876 1.383 . S
C882 C881 1.379 . S
H883 C877 0.959 . S
H884 C877 0.961 . S
H885 C877 0.960 . S
H886 C878 0.930 . S
H887 C879 0.929 . S
H888 C896 0.929 . S
H889 C898 0.930 . S
H890 C900 0.930 . S
H891 C903 0.929 . S
H892 C906 0.930 . S
H893 C908 0.960 . S
H894 C908 0.960 . S
H895 C908 0.960 . S
C896 H888 0.929 . S
C896 C897 1.377 . S
C896 C898 1.384 . S
C897 C896 1.377 . S
C897 C903 1.390 . S
C898 H889 0.930 . S
C898 C896 1.384 . S
C898 C899 1.372 . S
C899 C898 1.372 . S
C899 C900 1.400 . S
C899 C904 1.490 . S
C900 H890 0.930 . S
C900 C899 1.400 . S
C900 C903 1.386 . S
H901 C917 0.930 . S
H902 C918 0.931 . S
C903 H891 0.929 . S
C903 C897 1.390 . S
C903 C900 1.386 . S
C904 C899 1.490 . S
C904 C906 1.395 . S
C904 C907 1.403 . S
H905 C911 0.930 . S
C906 H892 0.930 . S
C906 C904 1.395 . S
C906 C909 1.403 . S
C907 C904 1.403 . S
C907 C908 1.524 . S
C907 C911 1.400 . S
C908 H893 0.960 . S
C908 H894 0.960 . S
C908 H895 0.960 . S
C908 C907 1.524 . S
C909 C906 1.403 . S
C909 C910 1.392 . S
C909 C913 1.495 . S
C910 C909 1.392 . S
C910 C911 1.385 . S
C910 C912 1.478 . S
C911 H905 0.930 . S
C911 C907 1.400 . S
C911 C910 1.385 . S
C912 C910 1.478 . S
C912 C914 1.381 . S
C912 C918 1.383 . S
C913 C909 1.495 . S
C913 H919 0.959 . S
C913 H920 0.961 . S
C913 H921 0.960 . S
C914 C912 1.381 . S
C914 C915 1.394 . S
C914 H922 0.930 . S
C915 C914 1.394 . S
C915 C916 1.383 . S
C915 H923 0.929 . S
C916 C915 1.383 . S
C916 C917 1.377 . S
C917 H901 0.930 . S
C917 C916 1.377 . S
C917 C918 1.379 . S
C918 H902 0.931 . S
C918 C912 1.383 . S
C918 C917 1.379 . S
H919 C913 0.959 . S
H920 C913 0.961 . S
H921 C913 0.960 . S
H922 C914 0.930 . S
H923 C915 0.929 . S
H924 C932 0.929 . S
H925 C934 0.930 . S
H926 C936 0.930 . S
H927 C939 0.929 . S
H928 C942 0.930 . S
H929 C944 0.960 . S
H930 C944 0.960 . S
H931 C944 0.960 . S
C932 H924 0.929 . S
C932 C933 1.377 . S
C932 C934 1.384 . S
C933 C932 1.377 . S
C933 C939 1.390 . S
C934 H925 0.930 . S
C934 C932 1.384 . S
C934 C935 1.372 . S
C935 C934 1.372 . S
C935 C936 1.400 . S
C935 C940 1.490 . S
C936 H926 0.930 . S
C936 C935 1.400 . S
C936 C939 1.386 . S
H937 C953 0.930 . S
H938 C954 0.931 . S
C939 H927 0.929 . S
C939 C933 1.390 . S
C939 C936 1.386 . S
C940 C935 1.490 . S
C940 C942 1.395 . S
C940 C943 1.403 . S
H941 C947 0.930 . S
C942 H928 0.930 . S
C942 C940 1.395 . S
C942 C945 1.403 . S
C943 C940 1.403 . S
C943 C944 1.524 . S
C943 C947 1.400 . S
C944 H929 0.960 . S
C944 H930 0.960 . S
C944 H931 0.960 . S
C944 C943 1.524 . S
C945 C942 1.403 . S
C945 C946 1.392 . S
C945 C949 1.495 . S
C946 C945 1.392 . S
C946 C947 1.385 . S
C946 C948 1.478 . S
C947 H941 0.930 . S
C947 C943 1.400 . S
C947 C946 1.385 . S
C948 C946 1.478 . S
C948 C950 1.381 . S
C948 C954 1.383 . S
C949 C945 1.495 . S
C949 H955 0.959 . S
C949 H956 0.961 . S
C949 H957 0.960 . S
C950 C948 1.381 . S
C950 C951 1.394 . S
C950 H958 0.930 . S
C951 C950 1.394 . S
C951 C952 1.383 . S
C951 H959 0.929 . S
C952 C951 1.383 . S
C952 C953 1.377 . S
C953 H937 0.930 . S
C953 C952 1.377 . S
C953 C954 1.379 . S
C954 H938 0.931 . S
C954 C948 1.383 . S
C954 C953 1.379 . S
H955 C949 0.959 . S
H956 C949 0.961 . S
H957 C949 0.960 . S
H958 C950 0.930 . S
H959 C951 0.929 . S
H960 C968 0.929 . S
H961 C970 0.930 . S
H962 C972 0.930 . S
H963 C975 0.929 . S
H964 C978 0.930 . S
H965 C980 0.960 . S
H966 C980 0.960 . S
H967 C980 0.960 . S
C968 H960 0.929 . S
C968 C969 1.377 . S
C968 C970 1.384 . S
C969 C968 1.377 . S
C969 C975 1.390 . S
C970 H961 0.930 . S
C970 C968 1.384 . S
C970 C971 1.372 . S
C971 C970 1.372 . S
C971 C972 1.400 . S
C971 C976 1.490 . S
C972 H962 0.930 . S
C972 C971 1.400 . S
C972 C975 1.386 . S
H973 C989 0.930 . S
H974 C990 0.931 . S
C975 H963 0.929 . S
C975 C969 1.390 . S
C975 C972 1.386 . S
C976 C971 1.490 . S
C976 C978 1.395 . S
C976 C979 1.403 . S
H977 C983 0.930 . S
C978 H964 0.930 . S
C978 C976 1.395 . S
C978 C981 1.403 . S
C979 C976 1.403 . S
C979 C980 1.524 . S
C979 C983 1.400 . S
C980 H965 0.960 . S
C980 H966 0.960 . S
C980 H967 0.960 . S
C980 C979 1.524 . S
C981 C978 1.403 . S
C981 C982 1.392 . S
C981 C985 1.495 . S
C982 C981 1.392 . S
C982 C983 1.385 . S
C982 C984 1.478 . S
C983 H977 0.930 . S
C983 C979 1.400 . S
C983 C982 1.385 . S
C984 C982 1.478 . S
C984 C986 1.381 . S
C984 C990 1.383 . S
C985 C981 1.495 . S
C985 H991 0.959 . S
C985 H992 0.961 . S
C985 H993 0.960 . S
C986 C984 1.381 . S
C986 C987 1.394 . S
C986 H994 0.930 . S
C987 C986 1.394 . S
C987 C988 1.383 . S
C987 H995 0.929 . S
C988 C987 1.383 . S
C988 C989 1.377 . S
C989 H973 0.930 . S
C989 C988 1.377 . S
C989 C990 1.379 . S
C990 H974 0.931 . S
C990 C984 1.383 . S
C990 C989 1.379 . S
H991 C985 0.959 . S
H992 C985 0.961 . S
H993 C985 0.960 . S
H994 C986 0.930 . S
H995 C987 0.929 . S
H996 C1004 0.929 . S
H997 C1006 0.930 . S
H998 C1008 0.930 . S
H999 C1011 0.929 . S
H1000 C1014 0.930 . S
H1001 C1016 0.960 . S
H1002 C1016 0.960 . S
H1003 C1016 0.960 . S
C1004 H996 0.929 . S
C1004 C1005 1.377 1_556 S
C1004 C1006 1.384 . S
C1005 C1004 1.377 1_554 S
C1005 C1011 1.390 . S
C1006 H997 0.930 . S
C1006 C1004 1.384 . S
C1006 C1007 1.372 . S
C1007 C1006 1.372 . S
C1007 C1008 1.400 . S
C1007 C1012 1.490 . S
C1008 H998 0.930 . S
C1008 C1007 1.400 . S
C1008 C1011 1.386 1_556 S
H1009 C1025 0.930 . S
H1010 C1026 0.931 . S
C1011 H999 0.929 . S
C1011 C1005 1.390 . S
C1011 C1008 1.386 1_554 S
C1012 C1007 1.490 . S
C1012 C1014 1.395 . S
C1012 C1015 1.403 . S
H1013 C1019 0.930 . S
C1014 H1000 0.930 . S
C1014 C1012 1.395 . S
C1014 C1017 1.403 . S
C1015 C1012 1.403 . S
C1015 C1016 1.524 . S
C1015 C1019 1.400 . S
C1016 H1001 0.960 . S
C1016 H1002 0.960 . S
C1016 H1003 0.960 . S
C1016 C1015 1.524 . S
C1017 C1014 1.403 . S
C1017 C1018 1.392 . S
C1017 C1021 1.495 . S
C1018 C1017 1.392 . S
C1018 C1019 1.385 . S
C1018 C1020 1.478 . S
C1019 H1013 0.930 . S
C1019 C1015 1.400 . S
C1019 C1018 1.385 . S
C1020 C1018 1.478 . S
C1020 C1022 1.381 . S
C1020 C1026 1.383 . S
C1021 C1017 1.495 . S
C1021 H1027 0.959 . S
C1021 H1028 0.961 . S
C1021 H1029 0.960 . S
C1022 C1020 1.381 . S
C1022 C1023 1.394 . S
C1022 H1030 0.930 . S
C1023 C1022 1.394 . S
C1023 C1024 1.383 . S
C1023 H1031 0.929 . S
C1024 C1023 1.383 . S
C1024 C1025 1.377 . S
C1025 H1009 0.930 . S
C1025 C1024 1.377 . S
C1025 C1026 1.379 . S
C1026 H1010 0.931 . S
C1026 C1020 1.383 . S
C1026 C1025 1.379 . S
H1027 C1021 0.959 . S
H1028 C1021 0.961 . S
H1029 C1021 0.960 . S
H1030 C1022 0.930 . S
H1031 C1023 0.929 . S
H1032 C1040 0.929 . S
H1033 C1042 0.930 . S
H1034 C1044 0.930 . S
H1035 C1047 0.929 . S
H1036 C1050 0.930 . S
H1037 C1052 0.960 . S
H1038 C1052 0.960 . S
H1039 C1052 0.960 . S
C1040 H1032 0.929 . S
C1040 C1041 1.377 . S
C1040 C1042 1.384 . S
C1041 C1040 1.377 . S
C1041 C1047 1.390 . S
C1042 H1033 0.930 . S
C1042 C1040 1.384 . S
C1042 C1043 1.372 . S
C1043 C1042 1.372 . S
C1043 C1044 1.400 . S
C1043 C1048 1.490 . S
C1044 H1034 0.930 . S
C1044 C1043 1.400 . S
C1044 C1047 1.386 . S
H1045 C1061 0.930 . S
H1046 C1062 0.931 . S
C1047 H1035 0.929 . S
C1047 C1041 1.390 . S
C1047 C1044 1.386 . S
C1048 C1043 1.490 . S
C1048 C1050 1.395 . S
C1048 C1051 1.403 . S
H1049 C1055 0.930 . S
C1050 H1036 0.930 . S
C1050 C1048 1.395 . S
C1050 C1053 1.403 . S
C1051 C1048 1.403 . S
C1051 C1052 1.524 . S
C1051 C1055 1.400 . S
C1052 H1037 0.960 . S
C1052 H1038 0.960 . S
C1052 H1039 0.960 . S
C1052 C1051 1.524 . S
C1053 C1050 1.403 . S
C1053 C1054 1.392 . S
C1053 C1057 1.495 . S
C1054 C1053 1.392 . S
C1054 C1055 1.385 . S
C1054 C1056 1.478 . S
C1055 H1049 0.930 . S
C1055 C1051 1.400 . S
C1055 C1054 1.385 . S
C1056 C1054 1.478 . S
C1056 C1058 1.381 . S
C1056 C1062 1.383 . S
C1057 C1053 1.495 . S
C1057 H1063 0.959 . S
C1057 H1064 0.961 . S
C1057 H1065 0.960 . S
C1058 C1056 1.381 . S
C1058 C1059 1.394 1_554 S
C1058 H1066 0.930 . S
C1059 C1058 1.394 1_556 S
C1059 C1060 1.383 . S
C1059 H1067 0.929 . S
C1060 C1059 1.383 . S
C1060 C1061 1.377 1_556 S
C1061 H1045 0.930 . S
C1061 C1060 1.377 1_554 S
C1061 C1062 1.379 . S
C1062 H1046 0.931 . S
C1062 C1056 1.383 . S
C1062 C1061 1.379 . S
H1063 C1057 0.959 . S
H1064 C1057 0.961 . S
H1065 C1057 0.960 . S
H1066 C1058 0.930 . S
H1067 C1059 0.929 . S
H1068 C1076 0.929 . S
H1069 C1078 0.930 . S
H1070 C1080 0.930 . S
H1071 C1083 0.929 . S
H1072 C1086 0.930 . S
H1073 C1088 0.960 . S
H1074 C1088 0.960 . S
H1075 C1088 0.960 . S
C1076 H1068 0.929 . S
C1076 C1077 1.377 . S
C1076 C1078 1.384 . S
C1077 C1076 1.377 . S
C1077 C1083 1.390 . S
C1078 H1069 0.930 . S
C1078 C1076 1.384 . S
C1078 C1079 1.372 . S
C1079 C1078 1.372 . S
C1079 C1080 1.400 . S
C1079 C1084 1.490 . S
C1080 H1070 0.930 . S
C1080 C1079 1.400 . S
C1080 C1083 1.386 . S
H1081 C1097 0.930 . S
H1082 C1098 0.931 . S
C1083 H1071 0.929 . S
C1083 C1077 1.390 . S
C1083 C1080 1.386 . S
C1084 C1079 1.490 . S
C1084 C1086 1.395 . S
C1084 C1087 1.403 . S
H1085 C1091 0.930 . S
C1086 H1072 0.930 . S
C1086 C1084 1.395 . S
C1086 C1089 1.403 . S
C1087 C1084 1.403 . S
C1087 C1088 1.524 . S
C1087 C1091 1.400 . S
C1088 H1073 0.960 . S
C1088 H1074 0.960 . S
C1088 H1075 0.960 . S
C1088 C1087 1.524 . S
C1089 C1086 1.403 . S
C1089 C1090 1.392 . S
C1089 C1093 1.495 . S
C1090 C1089 1.392 . S
C1090 C1091 1.385 . S
C1090 C1092 1.478 . S
C1091 H1085 0.930 . S
C1091 C1087 1.400 . S
C1091 C1090 1.385 . S
C1092 C1090 1.478 . S
C1092 C1094 1.381 . S
C1092 C1098 1.383 . S
C1093 C1089 1.495 . S
C1093 H1099 0.959 . S
C1093 H1100 0.961 . S
C1093 H1101 0.960 . S
C1094 C1092 1.381 . S
C1094 C1095 1.394 . S
C1094 H1102 0.930 . S
C1095 C1094 1.394 . S
C1095 C1096 1.383 . S
C1095 H1103 0.929 . S
C1096 C1095 1.383 . S
C1096 C1097 1.377 . S
C1097 H1081 0.930 . S
C1097 C1096 1.377 . S
C1097 C1098 1.379 . S
C1098 H1082 0.931 . S
C1098 C1092 1.383 . S
C1098 C1097 1.379 . S
H1099 C1093 0.959 . S
H1100 C1093 0.961 . S
H1101 C1093 0.960 . S
H1102 C1094 0.930 . S
H1103 C1095 0.929 . S
H1104 C1112 0.929 . S
H1105 C1114 0.930 . S
H1106 C1116 0.930 . S
H1107 C1119 0.929 . S
H1108 C1122 0.930 . S
H1109 C1124 0.960 . S
H1110 C1124 0.960 . S
H1111 C1124 0.960 . S
C1112 H1104 0.929 . S
C1112 C1113 1.377 . S
C1112 C1114 1.384 . S
C1113 C1112 1.377 . S
C1113 C1119 1.390 . S
C1114 H1105 0.930 . S
C1114 C1112 1.384 . S
C1114 C1115 1.372 . S
C1115 C1114 1.372 . S
C1115 C1116 1.400 . S
C1115 C1120 1.490 . S
C1116 H1106 0.930 . S
C1116 C1115 1.400 . S
C1116 C1119 1.386 . S
H1117 C1133 0.930 . S
H1118 C1134 0.931 . S
C1119 H1107 0.929 . S
C1119 C1113 1.390 . S
C1119 C1116 1.386 . S
C1120 C1115 1.490 . S
C1120 C1122 1.395 . S
C1120 C1123 1.403 . S
H1121 C1127 0.930 . S
C1122 H1108 0.930 . S
C1122 C1120 1.395 . S
C1122 C1125 1.403 . S
C1123 C1120 1.403 . S
C1123 C1124 1.524 . S
C1123 C1127 1.400 . S
C1124 H1109 0.960 . S
C1124 H1110 0.960 . S
C1124 H1111 0.960 . S
C1124 C1123 1.524 . S
C1125 C1122 1.403 . S
C1125 C1126 1.392 . S
C1125 C1129 1.495 . S
C1126 C1125 1.392 . S
C1126 C1127 1.385 . S
C1126 C1128 1.478 . S
C1127 H1121 0.930 . S
C1127 C1123 1.400 . S
C1127 C1126 1.385 . S
C1128 C1126 1.478 . S
C1128 C1130 1.381 . S
C1128 C1134 1.383 . S
C1129 C1125 1.495 . S
C1129 H1135 0.959 . S
C1129 H1136 0.961 . S
C1129 H1137 0.960 . S
C1130 C1128 1.381 . S
C1130 C1131 1.394 . S
C1130 H1138 0.930 . S
C1131 C1130 1.394 . S
C1131 C1132 1.383 . S
C1131 H1139 0.929 . S
C1132 C1131 1.383 . S
C1132 C1133 1.377 . S
C1133 H1117 0.930 . S
C1133 C1132 1.377 . S
C1133 C1134 1.379 . S
C1134 H1118 0.931 . S
C1134 C1128 1.383 . S
C1134 C1133 1.379 . S
H1135 C1129 0.959 . S
H1136 C1129 0.961 . S
H1137 C1129 0.960 . S
H1138 C1130 0.930 . S
H1139 C1131 0.929 . S
H1140 C1148 0.929 . S
H1141 C1150 0.930 . S
H1142 C1152 0.930 . S
H1143 C1155 0.929 . S
H1144 C1158 0.930 . S
H1145 C1160 0.963 . S
H1146 C1160 0.960 . S
H1147 C1160 0.960 . S
C1148 H1140 0.929 . S
C1148 C1149 1.377 . S
C1148 C1150 1.384 . S
C1149 C1148 1.377 . S
C1149 C1155 1.390 . S
C1150 H1141 0.930 . S
C1150 C1148 1.384 . S
C1150 C1151 1.372 . S
C1151 C1150 1.372 . S
C1151 C1152 1.400 . S
C1151 C1156 1.490 . S
C1152 H1142 0.930 . S
C1152 C1151 1.400 . S
C1152 C1155 1.386 . S
H1153 C1169 0.930 . S
H1154 C1170 0.931 . S
C1155 H1143 0.929 . S
C1155 C1149 1.390 . S
C1155 C1152 1.386 . S
C1156 C1151 1.490 . S
C1156 C1158 1.395 . S
C1156 C1159 1.403 . S
H1157 C1163 0.930 . S
C1158 H1144 0.930 . S
C1158 C1156 1.395 . S
C1158 C1161 1.403 1_655 S
C1159 C1156 1.403 . S
C1159 C1160 1.524 . S
C1159 C1163 1.400 1_655 S
C1160 H1145 0.963 . S
C1160 H1146 0.960 . S
C1160 H1147 0.960 . S
C1160 C1159 1.524 . S
C1161 C1158 1.403 1_455 S
C1161 C1162 1.392 . S
C1161 C1165 1.495 . S
C1162 C1161 1.392 . S
C1162 C1163 1.385 . S
C1162 C1164 1.478 . S
C1163 H1157 0.930 . S
C1163 C1159 1.400 1_455 S
C1163 C1162 1.385 . S
C1164 C1162 1.478 . S
C1164 C1166 1.381 . S
C1164 C1170 1.383 . S
C1165 C1161 1.495 . S
C1165 H1171 0.959 . S
C1165 H1172 0.961 . S
C1165 H1173 0.960 . S
C1166 C1164 1.381 . S
C1166 C1167 1.394 . S
C1166 H1174 0.930 . S
C1167 C1166 1.394 . S
C1167 C1168 1.383 . S
C1167 H1175 0.929 . S
C1168 C1167 1.383 . S
C1168 C1169 1.377 . S
C1169 H1153 0.930 . S
C1169 C1168 1.377 . S
C1169 C1170 1.379 . S
C1170 H1154 0.931 . S
C1170 C1164 1.383 . S
C1170 C1169 1.379 . S
H1171 C1165 0.959 . S
H1172 C1165 0.961 . S
H1173 C1165 0.960 . S
H1174 C1166 0.930 . S
H1175 C1167 0.929 . S
H1176 C1184 0.929 . S
H1177 C1186 0.930 . S
H1178 C1188 0.930 . S
H1179 C1191 0.929 . S
H1180 C1194 0.930 . S
H1181 C1196 0.960 1_545 S
H1182 C1196 0.960 . S
H1183 C1196 0.960 . S
C1184 H1176 0.929 . S
C1184 C1185 1.377 . S
C1184 C1186 1.384 . S
C1185 C1184 1.377 . S
C1185 C1191 1.390 . S
C1186 H1177 0.930 . S
C1186 C1184 1.384 . S
C1186 C1187 1.372 . S
C1187 C1186 1.372 . S
C1187 C1188 1.400 . S
C1187 C1192 1.490 . S
C1188 H1178 0.930 . S
C1188 C1187 1.400 . S
C1188 C1191 1.386 . S
H1189 C1205 0.930 . S
H1190 C1206 0.931 . S
C1191 H1179 0.929 . S
C1191 C1185 1.390 . S
C1191 C1188 1.386 . S
C1192 C1187 1.490 . S
C1192 C1194 1.395 . S
C1192 C1195 1.403 . S
H1193 C1199 0.930 . S
C1194 H1180 0.930 . S
C1194 C1192 1.395 . S
C1194 C1197 1.403 1_565 S
C1195 C1192 1.403 . S
C1195 C1196 1.524 . S
C1195 C1199 1.400 1_565 S
C1196 H1181 0.960 1_565 S
C1196 H1182 0.960 . S
C1196 H1183 0.960 . S
C1196 C1195 1.524 . S
C1197 C1194 1.403 1_545 S
C1197 C1198 1.392 . S
C1197 C1201 1.495 . S
C1198 C1197 1.392 . S
C1198 C1199 1.385 . S
C1198 C1200 1.478 . S
C1199 H1193 0.930 . S
C1199 C1195 1.400 1_545 S
C1199 C1198 1.385 . S
C1200 C1198 1.478 . S
C1200 C1202 1.381 . S
C1200 C1206 1.383 . S
C1201 C1197 1.495 . S
C1201 H1207 0.959 1_545 S
C1201 H1208 0.961 . S
C1201 H1209 0.960 . S
C1202 C1200 1.381 . S
C1202 C1203 1.394 . S
C1202 H1210 0.930 . S
C1203 C1202 1.394 . S
C1203 C1204 1.383 . S
C1203 H1211 0.929 . S
C1204 C1203 1.383 . S
C1204 C1205 1.377 . S
C1205 H1189 0.930 . S
C1205 C1204 1.377 . S
C1205 C1206 1.379 . S
C1206 H1190 0.931 . S
C1206 C1200 1.383 . S
C1206 C1205 1.379 . S
H1207 C1201 0.959 1_565 S
H1208 C1201 0.961 . S
H1209 C1201 0.960 . S
H1210 C1202 0.930 . S
H1211 C1203 0.929 . S
H1212 C1220 0.929 . S
H1213 C1222 0.930 . S
H1214 C1224 0.930 . S
H1215 C1227 0.929 . S
H1216 C1230 0.930 . S
H1217 C1232 0.960 . S
H1218 C1232 0.960 . S
H1219 C1232 0.960 . S
C1220 H1212 0.929 . S
C1220 C1221 1.377 . S
C1220 C1222 1.384 . S
C1221 C1220 1.377 . S
C1221 C1227 1.390 . S
C1222 H1213 0.930 . S
C1222 C1220 1.384 . S
C1222 C1223 1.372 . S
C1223 C1222 1.372 . S
C1223 C1224 1.400 . S
C1223 C1228 1.490 . S
C1224 H1214 0.930 . S
C1224 C1223 1.400 . S
C1224 C1227 1.386 . S
H1225 C1241 0.930 . S
H1226 C1242 0.931 . S
C1227 H1215 0.929 . S
C1227 C1221 1.390 . S
C1227 C1224 1.386 . S
C1228 C1223 1.490 . S
C1228 C1230 1.395 . S
C1228 C1231 1.403 . S
H1229 C1235 0.930 . S
C1230 H1216 0.930 . S
C1230 C1228 1.395 . S
C1230 C1233 1.403 . S
C1231 C1228 1.403 . S
C1231 C1232 1.524 . S
C1231 C1235 1.400 . S
C1232 H1217 0.960 . S
C1232 H1218 0.960 . S
C1232 H1219 0.960 . S
C1232 C1231 1.524 . S
C1233 C1230 1.403 . S
C1233 C1234 1.392 . S
C1233 C1237 1.495 . S
C1234 C1233 1.392 . S
C1234 C1235 1.385 . S
C1234 C1236 1.478 . S
C1235 H1229 0.930 . S
C1235 C1231 1.400 . S
C1235 C1234 1.385 . S
C1236 C1234 1.478 . S
C1236 C1238 1.381 . S
C1236 C1242 1.383 . S
C1237 C1233 1.495 . S
C1237 H1243 0.959 . S
C1237 H1244 0.961 . S
C1237 H1245 0.960 . S
C1238 C1236 1.381 . S
C1238 C1239 1.394 . S
C1238 H1246 0.930 . S
C1239 C1238 1.394 . S
C1239 C1240 1.383 . S
C1239 H1247 0.929 . S
C1240 C1239 1.383 . S
C1240 C1241 1.377 . S
C1241 H1225 0.930 . S
C1241 C1240 1.377 . S
C1241 C1242 1.379 . S
C1242 H1226 0.931 . S
C1242 C1236 1.383 . S
C1242 C1241 1.379 . S
H1243 C1237 0.959 . S
H1244 C1237 0.961 . S
H1245 C1237 0.960 . S
H1246 C1238 0.930 . S
H1247 C1239 0.929 . S
H1248 C1256 0.929 . S
H1249 C1258 0.930 . S
H1250 C1260 0.930 . S
H1251 C1263 0.929 . S
H1252 C1266 0.930 . S
H1253 C1268 0.960 . S
H1254 C1268 0.960 . S
H1255 C1268 0.960 . S
C1256 H1248 0.929 . S
C1256 C1257 1.377 . S
C1256 C1258 1.384 . S
C1257 C1256 1.377 . S
C1257 C1263 1.390 . S
C1258 H1249 0.930 . S
C1258 C1256 1.384 . S
C1258 C1259 1.372 . S
C1259 C1258 1.372 . S
C1259 C1260 1.400 . S
C1259 C1264 1.490 . S
C1260 H1250 0.930 . S
C1260 C1259 1.400 . S
C1260 C1263 1.386 . S
H1261 C1277 0.930 . S
H1262 C1278 0.931 . S
C1263 H1251 0.929 . S
C1263 C1257 1.390 . S
C1263 C1260 1.386 . S
C1264 C1259 1.490 . S
C1264 C1266 1.395 . S
C1264 C1267 1.403 . S
H1265 C1271 0.930 . S
C1266 H1252 0.930 . S
C1266 C1264 1.395 . S
C1266 C1269 1.403 1_455 S
C1267 C1264 1.403 . S
C1267 C1268 1.524 . S
C1267 C1271 1.400 1_455 S
C1268 H1253 0.960 . S
C1268 H1254 0.960 . S
C1268 H1255 0.960 . S
C1268 C1267 1.524 . S
C1269 C1266 1.403 1_655 S
C1269 C1270 1.392 . S
C1269 C1273 1.495 . S
C1270 C1269 1.392 . S
C1270 C1271 1.385 . S
C1270 C1272 1.478 . S
C1271 H1265 0.930 . S
C1271 C1267 1.400 1_655 S
C1271 C1270 1.385 . S
C1272 C1270 1.478 . S
C1272 C1274 1.381 . S
C1272 C1278 1.383 . S
C1273 C1269 1.495 . S
C1273 H1279 0.959 . S
C1273 H1280 0.961 . S
C1273 H1281 0.960 . S
C1274 C1272 1.381 . S
C1274 C1275 1.394 . S
C1274 H1282 0.930 . S
C1275 C1274 1.394 . S
C1275 C1276 1.383 . S
C1275 H1283 0.929 . S
C1276 C1275 1.383 . S
C1276 C1277 1.377 . S
C1277 H1261 0.930 . S
C1277 C1276 1.377 . S
C1277 C1278 1.379 . S
C1278 H1262 0.931 . S
C1278 C1272 1.383 . S
C1278 C1277 1.379 . S
H1279 C1273 0.959 . S
H1280 C1273 0.961 . S
H1281 C1273 0.960 . S
H1282 C1274 0.930 . S
H1283 C1275 0.929 . S
H1284 C1292 0.929 . S
H1285 C1294 0.930 . S
H1286 C1296 0.930 . S
H1287 C1299 0.929 . S
H1288 C1302 0.930 . S
H1289 C1304 0.960 . S
H1290 C1304 0.960 . S
H1291 C1304 0.960 . S
C1292 H1284 0.929 . S
C1292 C1293 1.377 . S
C1292 C1294 1.384 . S
C1293 C1292 1.377 . S
C1293 C1299 1.390 . S
C1294 H1285 0.930 . S
C1294 C1292 1.384 . S
C1294 C1295 1.372 . S
C1295 C1294 1.372 . S
C1295 C1296 1.400 . S
C1295 C1300 1.490 . S
C1296 H1286 0.930 . S
C1296 C1295 1.400 . S
C1296 C1299 1.386 . S
H1297 C1313 0.930 . S
H1298 C1314 0.931 . S
C1299 H1287 0.929 . S
C1299 C1293 1.390 . S
C1299 C1296 1.386 . S
C1300 C1295 1.490 . S
C1300 C1302 1.395 . S
C1300 C1303 1.403 1_556 S
H1301 C1307 0.930 . S
C1302 H1288 0.930 . S
C1302 C1300 1.395 . S
C1302 C1305 1.403 1_545 S
C1303 C1300 1.403 1_554 S
C1303 C1304 1.524 . S
C1303 C1307 1.400 1_545 S
C1304 H1289 0.960 . S
C1304 H1290 0.960 . S
C1304 H1291 0.960 . S
C1304 C1303 1.524 . S
C1305 C1302 1.403 1_565 S
C1305 C1306 1.392 1_556 S
C1305 C1309 1.495 . S
C1306 C1305 1.392 1_554 S
C1306 C1307 1.385 . S
C1306 C1308 1.478 . S
C1307 H1301 0.930 . S
C1307 C1303 1.400 1_565 S
C1307 C1306 1.385 . S
C1308 C1306 1.478 . S
C1308 C1310 1.381 . S
C1308 C1314 1.383 . S
C1309 C1305 1.495 . S
C1309 H1315 0.959 . S
C1309 H1316 0.961 . S
C1309 H1317 0.960 . S
C1310 C1308 1.381 . S
C1310 C1311 1.394 . S
C1310 H1318 0.930 . S
C1311 C1310 1.394 . S
C1311 C1312 1.383 . S
C1311 H1319 0.929 . S
C1312 C1311 1.383 . S
C1312 C1313 1.377 . S
C1313 H1297 0.930 . S
C1313 C1312 1.377 . S
C1313 C1314 1.379 . S
C1314 H1298 0.931 . S
C1314 C1308 1.383 . S
C1314 C1313 1.379 . S
H1315 C1309 0.959 . S
H1316 C1309 0.961 . S
H1317 C1309 0.960 . S
H1318 C1310 0.930 . S
H1319 C1311 0.929 . S
H1320 C1328 0.929 . S
H1321 C1330 0.930 . S
H1322 C1332 0.930 . S
H1323 C1335 0.929 . S
H1324 C1338 0.930 . S
H1325 C1340 0.960 . S
H1326 C1340 0.960 . S
H1327 C1340 0.960 . S
C1328 H1320 0.929 . S
C1328 C1329 1.377 . S
C1328 C1330 1.384 . S
C1329 C1328 1.377 . S
C1329 C1335 1.390 . S
C1330 H1321 0.930 . S
C1330 C1328 1.384 . S
C1330 C1331 1.372 . S
C1331 C1330 1.372 . S
C1331 C1332 1.400 . S
C1331 C1336 1.490 . S
C1332 H1322 0.930 . S
C1332 C1331 1.400 . S
C1332 C1335 1.386 . S
H1333 C1349 0.930 . S
H1334 C1350 0.931 . S
C1335 H1323 0.929 . S
C1335 C1329 1.390 . S
C1335 C1332 1.386 . S
C1336 C1331 1.490 . S
C1336 C1338 1.395 . S
C1336 C1339 1.403 . S
H1337 C1343 0.930 . S
C1338 H1324 0.930 . S
C1338 C1336 1.395 . S
C1338 C1341 1.403 . S
C1339 C1336 1.403 . S
C1339 C1340 1.524 . S
C1339 C1343 1.400 . S
C1340 H1325 0.960 . S
C1340 H1326 0.960 . S
C1340 H1327 0.960 . S
C1340 C1339 1.524 . S
C1341 C1338 1.403 . S
C1341 C1342 1.392 . S
C1341 C1345 1.495 . S
C1342 C1341 1.392 . S
C1342 C1343 1.385 . S
C1342 C1344 1.478 . S
C1343 H1337 0.930 . S
C1343 C1339 1.400 . S
C1343 C1342 1.385 . S
C1344 C1342 1.478 . S
C1344 C1346 1.381 . S
C1344 C1350 1.383 . S
C1345 C1341 1.495 . S
C1345 H1351 0.959 . S
C1345 H1352 0.961 . S
C1345 H1353 0.960 . S
C1346 C1344 1.381 . S
C1346 C1347 1.394 . S
C1346 H1354 0.930 . S
C1347 C1346 1.394 . S
C1347 C1348 1.383 . S
C1347 H1355 0.929 . S
C1348 C1347 1.383 . S
C1348 C1349 1.377 . S
C1349 H1333 0.930 . S
C1349 C1348 1.377 . S
C1349 C1350 1.379 . S
C1350 H1334 0.931 . S
C1350 C1344 1.383 . S
C1350 C1349 1.379 . S
H1351 C1345 0.959 . S
H1352 C1345 0.961 . S
H1353 C1345 0.960 . S
H1354 C1346 0.930 . S
H1355 C1347 0.929 . S
H1356 C1364 0.929 . S
H1357 C1366 0.930 . S
H1358 C1368 0.930 . S
H1359 C1371 0.929 . S
H1360 C1374 0.930 . S
H1361 C1376 0.960 . S
H1362 C1376 0.960 . S
H1363 C1376 0.960 . S
C1364 H1356 0.929 . S
C1364 C1365 1.377 . S
C1364 C1366 1.384 . S
C1365 C1364 1.377 . S
C1365 C1371 1.390 . S
C1366 H1357 0.930 . S
C1366 C1364 1.384 . S
C1366 C1367 1.372 . S
C1367 C1366 1.372 . S
C1367 C1368 1.400 . S
C1367 C1372 1.490 . S
C1368 H1358 0.930 . S
C1368 C1367 1.400 . S
C1368 C1371 1.386 . S
H1369 C1385 0.930 . S
H1370 C1386 0.931 . S
C1371 H1359 0.929 . S
C1371 C1365 1.390 . S
C1371 C1368 1.386 . S
C1372 C1367 1.490 . S
C1372 C1374 1.395 . S
C1372 C1375 1.403 . S
H1373 C1379 0.930 . S
C1374 H1360 0.930 . S
C1374 C1372 1.395 . S
C1374 C1377 1.403 . S
C1375 C1372 1.403 . S
C1375 C1376 1.524 . S
C1375 C1379 1.400 . S
C1376 H1361 0.960 . S
C1376 H1362 0.960 . S
C1376 H1363 0.960 . S
C1376 C1375 1.524 . S
C1377 C1374 1.403 . S
C1377 C1378 1.392 . S
C1377 C1381 1.495 . S
C1378 C1377 1.392 . S
C1378 C1379 1.385 . S
C1378 C1380 1.478 . S
C1379 H1373 0.930 . S
C1379 C1375 1.400 . S
C1379 C1378 1.385 . S
C1380 C1378 1.478 . S
C1380 C1382 1.381 . S
C1380 C1386 1.383 . S
C1381 C1377 1.495 . S
C1381 H1387 0.959 . S
C1381 H1388 0.961 . S
C1381 H1389 0.960 . S
C1382 C1380 1.381 . S
C1382 C1383 1.394 . S
C1382 H1390 0.930 . S
C1383 C1382 1.394 . S
C1383 C1384 1.383 . S
C1383 H1391 0.929 . S
C1384 C1383 1.383 . S
C1384 C1385 1.377 . S
C1385 H1369 0.930 . S
C1385 C1384 1.377 . S
C1385 C1386 1.379 . S
C1386 H1370 0.931 . S
C1386 C1380 1.383 . S
C1386 C1385 1.379 . S
H1387 C1381 0.959 . S
H1388 C1381 0.961 . S
H1389 C1381 0.960 . S
H1390 C1382 0.930 . S
H1391 C1383 0.929 . S
H1392 C1400 0.929 . S
H1393 C1402 0.930 . S
H1394 C1404 0.930 . S
H1395 C1407 0.929 . S
H1396 C1410 0.930 . S
H1397 C1412 0.960 . S
H1398 C1412 0.960 . S
H1399 C1412 0.960 . S
C1400 H1392 0.929 . S
C1400 C1401 1.377 . S
C1400 C1402 1.384 . S
C1401 C1400 1.377 . S
C1401 C1407 1.390 . S
C1402 H1393 0.930 . S
C1402 C1400 1.384 . S
C1402 C1403 1.372 . S
C1403 C1402 1.372 . S
C1403 C1404 1.400 . S
C1403 C1408 1.490 . S
C1404 H1394 0.930 . S
C1404 C1403 1.400 . S
C1404 C1407 1.386 . S
H1405 C1421 0.930 . S
H1406 C1422 0.931 . S
C1407 H1395 0.929 . S
C1407 C1401 1.390 . S
C1407 C1404 1.386 . S
C1408 C1403 1.490 . S
C1408 C1410 1.395 . S
C1408 C1411 1.403 . S
H1409 C1415 0.930 . S
C1410 H1396 0.930 . S
C1410 C1408 1.395 . S
C1410 C1413 1.403 . S
C1411 C1408 1.403 . S
C1411 C1412 1.524 . S
C1411 C1415 1.400 . S
C1412 H1397 0.960 . S
C1412 H1398 0.960 . S
C1412 H1399 0.960 . S
C1412 C1411 1.524 . S
C1413 C1410 1.403 . S
C1413 C1414 1.392 . S
C1413 C1417 1.495 . S
C1414 C1413 1.392 . S
C1414 C1415 1.385 . S
C1414 C1416 1.478 . S
C1415 H1409 0.930 . S
C1415 C1411 1.400 . S
C1415 C1414 1.385 . S
C1416 C1414 1.478 . S
C1416 C1418 1.381 . S
C1416 C1422 1.383 . S
C1417 C1413 1.495 . S
C1417 H1423 0.959 . S
C1417 H1424 0.961 . S
C1417 H1425 0.960 . S
C1418 C1416 1.381 . S
C1418 C1419 1.394 . S
C1418 H1426 0.930 . S
C1419 C1418 1.394 . S
C1419 C1420 1.383 . S
C1419 H1427 0.929 . S
C1420 C1419 1.383 . S
C1420 C1421 1.377 . S
C1421 H1405 0.930 . S
C1421 C1420 1.377 . S
C1421 C1422 1.379 . S
C1422 H1406 0.931 . S
C1422 C1416 1.383 . S
C1422 C1421 1.379 . S
H1423 C1417 0.959 . S
H1424 C1417 0.961 . S
H1425 C1417 0.960 . S
H1426 C1418 0.930 . S
H1427 C1419 0.929 . S
H1428 C1436 0.929 . S
H1429 C1438 0.930 . S
H1430 C1440 0.930 . S
H1431 C1443 0.929 . S
H1432 C1446 0.930 . S
H1433 C1448 0.960 . S
H1434 C1448 0.960 . S
H1435 C1448 0.960 . S
C1436 H1428 0.929 . S
C1436 C1437 1.377 . S
C1436 C1438 1.384 . S
C1437 C1436 1.377 . S
C1437 C1443 1.390 . S
C1438 H1429 0.930 . S
C1438 C1436 1.384 . S
C1438 C1439 1.372 . S
C1439 C1438 1.372 . S
C1439 C1440 1.400 . S
C1439 C1444 1.490 . S
C1440 H1430 0.930 . S
C1440 C1439 1.400 . S
C1440 C1443 1.386 . S
H1441 C1457 0.930 . S
H1442 C1458 0.931 . S
C1443 H1431 0.929 . S
C1443 C1437 1.390 . S
C1443 C1440 1.386 . S
C1444 C1439 1.490 . S
C1444 C1446 1.395 . S
C1444 C1447 1.403 . S
H1445 C1451 0.930 . S
C1446 H1432 0.930 . S
C1446 C1444 1.395 . S
C1446 C1449 1.403 . S
C1447 C1444 1.403 . S
C1447 C1448 1.524 . S
C1447 C1451 1.400 . S
C1448 H1433 0.960 . S
C1448 H1434 0.960 . S
C1448 H1435 0.960 . S
C1448 C1447 1.524 . S
C1449 C1446 1.403 . S
C1449 C1450 1.392 . S
C1449 C1453 1.495 . S
C1450 C1449 1.392 . S
C1450 C1451 1.385 . S
C1450 C1452 1.478 . S
C1451 H1445 0.930 . S
C1451 C1447 1.400 . S
C1451 C1450 1.385 . S
C1452 C1450 1.478 . S
C1452 C1454 1.381 . S
C1452 C1458 1.383 . S
C1453 C1449 1.495 . S
C1453 H1459 0.959 . S
C1453 H1460 0.961 . S
C1453 H1461 0.960 . S
C1454 C1452 1.381 . S
C1454 C1455 1.394 . S
C1454 H1462 0.930 . S
C1455 C1454 1.394 . S
C1455 C1456 1.383 . S
C1455 H1463 0.929 . S
C1456 C1455 1.383 . S
C1456 C1457 1.377 . S
C1457 H1441 0.930 . S
C1457 C1456 1.377 . S
C1457 C1458 1.379 . S
C1458 H1442 0.931 . S
C1458 C1452 1.383 . S
C1458 C1457 1.379 . S
H1459 C1453 0.959 . S
H1460 C1453 0.961 . S
H1461 C1453 0.960 . S
H1462 C1454 0.930 . S
H1463 C1455 0.929 . S
H1464 C1472 0.929 . S
H1465 C1474 0.930 . S
H1466 C1476 0.930 . S
H1467 C1479 0.929 . S
H1468 C1482 0.930 . S
H1469 C1484 0.960 . S
H1470 C1484 0.960 . S
H1471 C1484 0.960 . S
C1472 H1464 0.929 . S
C1472 C1473 1.377 . S
C1472 C1474 1.384 . S
C1473 C1472 1.377 . S
C1473 C1479 1.390 . S
C1474 H1465 0.930 . S
C1474 C1472 1.384 . S
C1474 C1475 1.372 . S
C1475 C1474 1.372 . S
C1475 C1476 1.400 . S
C1475 C1480 1.490 . S
C1476 H1466 0.930 . S
C1476 C1475 1.400 . S
C1476 C1479 1.386 . S
H1477 C1493 0.930 . S
H1478 C1494 0.931 . S
C1479 H1467 0.929 . S
C1479 C1473 1.390 . S
C1479 C1476 1.386 . S
C1480 C1475 1.490 . S
C1480 C1482 1.395 . S
C1480 C1483 1.403 . S
H1481 C1487 0.930 . S
C1482 H1468 0.930 . S
C1482 C1480 1.395 . S
C1482 C1485 1.403 . S
C1483 C1480 1.403 . S
C1483 C1484 1.524 . S
C1483 C1487 1.400 . S
C1484 H1469 0.960 . S
C1484 H1470 0.960 . S
C1484 H1471 0.960 . S
C1484 C1483 1.524 . S
C1485 C1482 1.403 . S
C1485 C1486 1.392 . S
C1485 C1489 1.495 . S
C1486 C1485 1.392 . S
C1486 C1487 1.385 . S
C1486 C1488 1.478 . S
C1487 H1481 0.930 . S
C1487 C1483 1.400 . S
C1487 C1486 1.385 . S
C1488 C1486 1.478 . S
C1488 C1490 1.381 . S
C1488 C1494 1.383 . S
C1489 C1485 1.495 . S
C1489 H1495 0.959 . S
C1489 H1496 0.961 . S
C1489 H1497 0.960 . S
C1490 C1488 1.381 . S
C1490 C1491 1.394 . S
C1490 H1498 0.930 . S
C1491 C1490 1.394 . S
C1491 C1492 1.383 . S
C1491 H1499 0.929 . S
C1492 C1491 1.383 . S
C1492 C1493 1.377 . S
C1493 H1477 0.930 . S
C1493 C1492 1.377 . S
C1493 C1494 1.379 . S
C1494 H1478 0.931 . S
C1494 C1488 1.383 . S
C1494 C1493 1.379 . S
H1495 C1489 0.959 . S
H1496 C1489 0.961 . S
H1497 C1489 0.960 . S
H1498 C1490 0.930 . S
H1499 C1491 0.929 . S
H1500 C1508 0.929 . S
H1501 C1510 0.930 . S
H1502 C1512 0.930 . S
H1503 C1515 0.929 . S
H1504 C1518 0.930 . S
H1505 C1520 0.960 . S
H1506 C1520 0.960 . S
H1507 C1520 0.960 . S
C1508 H1500 0.929 . S
C1508 C1509 1.377 1_556 S
C1508 C1510 1.384 . S
C1509 C1508 1.377 1_554 S
C1509 C1515 1.390 . S
C1510 H1501 0.930 . S
C1510 C1508 1.384 . S
C1510 C1511 1.372 . S
C1511 C1510 1.372 . S
C1511 C1512 1.400 . S
C1511 C1516 1.490 . S
C1512 H1502 0.930 . S
C1512 C1511 1.400 . S
C1512 C1515 1.386 1_556 S
H1513 C1529 0.930 . S
H1514 C1530 0.931 . S
C1515 H1503 0.929 . S
C1515 C1509 1.390 . S
C1515 C1512 1.386 1_554 S
C1516 C1511 1.490 . S
C1516 C1518 1.395 . S
C1516 C1519 1.403 . S
H1517 C1523 0.930 . S
C1518 H1504 0.930 . S
C1518 C1516 1.395 . S
C1518 C1521 1.403 . S
C1519 C1516 1.403 . S
C1519 C1520 1.524 . S
C1519 C1523 1.400 . S
C1520 H1505 0.960 . S
C1520 H1506 0.960 . S
C1520 H1507 0.960 . S
C1520 C1519 1.524 . S
C1521 C1518 1.403 . S
C1521 C1522 1.392 . S
C1521 C1525 1.495 . S
C1522 C1521 1.392 . S
C1522 C1523 1.385 . S
C1522 C1524 1.478 . S
C1523 H1517 0.930 . S
C1523 C1519 1.400 . S
C1523 C1522 1.385 . S
C1524 C1522 1.478 . S
C1524 C1526 1.381 . S
C1524 C1530 1.383 . S
C1525 C1521 1.495 . S
C1525 H1531 0.959 . S
C1525 H1532 0.961 . S
C1525 H1533 0.960 . S
C1526 C1524 1.381 . S
C1526 C1527 1.394 . S
C1526 H1534 0.930 . S
C1527 C1526 1.394 . S
C1527 C1528 1.383 . S
C1527 H1535 0.929 . S
C1528 C1527 1.383 . S
C1528 C1529 1.377 . S
C1529 H1513 0.930 . S
C1529 C1528 1.377 . S
C1529 C1530 1.379 . S
C1530 H1514 0.931 . S
C1530 C1524 1.383 . S
C1530 C1529 1.379 . S
H1531 C1525 0.959 . S
H1532 C1525 0.961 . S
H1533 C1525 0.960 . S
H1534 C1526 0.930 . S
H1535 C1527 0.929 . S
H1536 C1544 0.929 . S
H1537 C1546 0.930 . S
H1538 C1548 0.930 . S
H1539 C1551 0.929 . S
H1540 C1554 0.930 . S
H1541 C1556 0.960 . S
H1542 C1556 0.960 . S
H1543 C1556 0.960 . S
C1544 H1536 0.929 . S
C1544 C1545 1.377 . S
C1544 C1546 1.384 . S
C1545 C1544 1.377 . S
C1545 C1551 1.390 . S
C1546 H1537 0.930 . S
C1546 C1544 1.384 . S
C1546 C1547 1.372 . S
C1547 C1546 1.372 . S
C1547 C1548 1.400 . S
C1547 C1552 1.490 . S
C1548 H1538 0.930 . S
C1548 C1547 1.400 . S
C1548 C1551 1.386 . S
H1549 C1565 0.930 . S
H1550 C1566 0.931 . S
C1551 H1539 0.929 . S
C1551 C1545 1.390 . S
C1551 C1548 1.386 . S
C1552 C1547 1.490 . S
C1552 C1554 1.395 . S
C1552 C1555 1.403 . S
H1553 C1559 0.930 . S
C1554 H1540 0.930 . S
C1554 C1552 1.395 . S
C1554 C1557 1.403 . S
C1555 C1552 1.403 . S
C1555 C1556 1.524 . S
C1555 C1559 1.400 . S
C1556 H1541 0.960 . S
C1556 H1542 0.960 . S
C1556 H1543 0.960 . S
C1556 C1555 1.524 . S
C1557 C1554 1.403 . S
C1557 C1558 1.392 . S
C1557 C1561 1.495 . S
C1558 C1557 1.392 . S
C1558 C1559 1.385 . S
C1558 C1560 1.478 . S
C1559 H1553 0.930 . S
C1559 C1555 1.400 . S
C1559 C1558 1.385 . S
C1560 C1558 1.478 . S
C1560 C1562 1.381 . S
C1560 C1566 1.383 . S
C1561 C1557 1.495 . S
C1561 H1567 0.959 . S
C1561 H1568 0.961 . S
C1561 H1569 0.960 . S
C1562 C1560 1.381 . S
C1562 C1563 1.394 . S
C1562 H1570 0.930 . S
C1563 C1562 1.394 . S
C1563 C1564 1.383 1_554 S
C1563 H1571 0.929 1_554 S
C1564 C1563 1.383 1_556 S
C1564 C1565 1.377 1_556 S
C1565 H1549 0.930 . S
C1565 C1564 1.377 1_554 S
C1565 C1566 1.379 . S
C1566 H1550 0.931 . S
C1566 C1560 1.383 . S
C1566 C1565 1.379 . S
H1567 C1561 0.959 . S
H1568 C1561 0.961 . S
H1569 C1561 0.960 . S
H1570 C1562 0.930 . S
H1571 C1563 0.929 1_556 S
C717 C33 0.885 . S
C736 C406 0.863 . S
C753 C111 0.880 . S
C772 C446 0.892 . S
C789 C524 0.881 . S
C808 C170 0.884 . S
C825 C210 0.885 . S
C844 C583 0.864 . S
C861 C288 0.878 . S
C880 C623 0.897 . S
C897 C701 0.884 . S
C916 C347 0.873 . S
C933 C505 1.706 . S
C952 C52 1.705 . S
C969 C92 1.705 . S
C988 C564 1.694 . S
C1005 C642 1.725 . S
C1024 C151 1.693 . S
C1041 C682 1.710 . S
C1060 C229 1.708 . S
C1077 C269 1.710 . S
C1096 C387 1.688 . S
C1113 C328 1.703 . S
C1132 C465 1.722 . S
C1149 C654 1.429 . S
C1168 C3 1.419 . S
C1185 C359 1.427 . S
C1204 C64 1.422 . S
C1221 C123 1.428 . S
C1240 C416 1.421 . S
C1257 C477 1.429 . S
C1276 C180 1.428 . S
C1293 C536 1.426 . S
C1312 C241 1.422 . S
C1329 C593 1.427 . S
C1348 C300 1.423 . S
C1365 C5 1.179 . S
C1384 C595 1.175 . S
C1401 C652 1.163 . S
C1420 C62 1.183 . S
C1437 C121 1.157 . S
C1456 C357 1.163 . S
C1473 C182 1.169 . S
C1492 C418 1.174 . S
C1509 C239 1.169 . S
C1528 C475 1.139 . S
C1545 C298 1.167 . S
C1564 C534 1.162 . S
