# Generated by pormake.
# Topology ums, (4)-cn, num edge types: 1
# Building blocks:
#     Node 0, Type 0, BuildingBlock: AZAVOO_clean_sbu_0, # of connection points: 4
#     Node 1, Type 0, BuildingBlock: AZAVOO_clean_sbu_0, # of connection points: 4
#     Node 2, Type 0, BuildingBlock: AZAVOO_clean_sbu_0, # of connection points: 4
#     Node 3, Type 0, BuildingBlock: AZAVOO_clean_sbu_0, # of connection points: 4
#     Node 4, Type 0, BuildingBlock: AZAVOO_clean_sbu_0, # of connection points: 4
#     Node 5, Type 0, BuildingBlock: AZAVOO_clean_sbu_0, # of connection points: 4
#     Node 6, Type 0, BuildingBlock: AZAVOO_clean_sbu_0, # of connection points: 4
#     Node 7, Type 0, BuildingBlock: AZAVOO_clean_sbu_0, # of connection points: 4
#     Node 8, Type 0, BuildingBlock: AZAVOO_clean_sbu_0, # of connection points: 4
#     Node 9, Type 0, BuildingBlock: AZAVOO_clean_sbu_0, # of connection points: 4
#     Node 10, Type 0, BuildingBlock: AZAVOO_clean_sbu_0, # of connection points: 4
#     Node 11, Type 0, BuildingBlock: AZAVOO_clean_sbu_0, # of connection points: 4
#     Node 12, Type 0, BuildingBlock: AZAVOO_clean_sbu_0, # of connection points: 4
#     Node 13, Type 0, BuildingBlock: AZAVOO_clean_sbu_0, # of connection points: 4
#     Node 14, Type 0, BuildingBlock: AZAVOO_clean_sbu_0, # of connection points: 4
#     Node 15, Type 0, BuildingBlock: AZAVOO_clean_sbu_0, # of connection points: 4
#     Node 16, Type 0, BuildingBlock: AZAVOO_clean_sbu_0, # of connection points: 4
#     Node 17, Type 0, BuildingBlock: AZAVOO_clean_sbu_0, # of connection points: 4
#     Node 18, Type 0, BuildingBlock: AZAVOO_clean_sbu_0, # of connection points: 4
#     Node 19, Type 0, BuildingBlock: AZAVOO_clean_sbu_0, # of connection points: 4
#     Node 20, Type 0, BuildingBlock: AZAVOO_clean_sbu_0, # of connection points: 4
#     Node 21, Type 0, BuildingBlock: AZAVOO_clean_sbu_0, # of connection points: 4
#     Node 22, Type 0, BuildingBlock: AZAVOO_clean_sbu_0, # of connection points: 4
#     Node 23, Type 0, BuildingBlock: AZAVOO_clean_sbu_0, # of connection points: 4
#     Node 24, Type 0, BuildingBlock: AZAVOO_clean_sbu_0, # of connection points: 4
#     Node 25, Type 0, BuildingBlock: AZAVOO_clean_sbu_0, # of connection points: 4
#     Node 26, Type 0, BuildingBlock: AZAVOO_clean_sbu_0, # of connection points: 4
#     Node 27, Type 0, BuildingBlock: AZAVOO_clean_sbu_0, # of connection points: 4
#     Node 28, Type 0, BuildingBlock: AZAVOO_clean_sbu_0, # of connection points: 4
#     Node 29, Type 0, BuildingBlock: AZAVOO_clean_sbu_0, # of connection points: 4
#     Node 30, Type 0, BuildingBlock: AZAVOO_clean_sbu_0, # of connection points: 4
#     Node 31, Type 0, BuildingBlock: AZAVOO_clean_sbu_0, # of connection points: 4
#     Node 32, Type 0, BuildingBlock: AZAVOO_clean_sbu_0, # of connection points: 4
#     Node 33, Type 0, BuildingBlock: AZAVOO_clean_sbu_0, # of connection points: 4
#     Node 34, Type 0, BuildingBlock: AZAVOO_clean_sbu_0, # of connection points: 4
#     Node 35, Type 0, BuildingBlock: AZAVOO_clean_sbu_0, # of connection points: 4
#     Edge 36, Type (0, 0), BuildingBlock: OJICUG_clean_linker_0, # of connection points: 2
#     Edge 37, Type (0, 0), BuildingBlock: OJICUG_clean_linker_0, # of connection points: 2
#     Edge 38, Type (0, 0), BuildingBlock: OJICUG_clean_linker_0, # of connection points: 2
#     Edge 39, Type (0, 0), BuildingBlock: OJICUG_clean_linker_0, # of connection points: 2
#     Edge 40, Type (0, 0), BuildingBlock: OJICUG_clean_linker_0, # of connection points: 2
#     Edge 41, Type (0, 0), BuildingBlock: OJICUG_clean_linker_0, # of connection points: 2
#     Edge 42, Type (0, 0), BuildingBlock: OJICUG_clean_linker_0, # of connection points: 2
#     Edge 43, Type (0, 0), BuildingBlock: OJICUG_clean_linker_0, # of connection points: 2
#     Edge 44, Type (0, 0), BuildingBlock: OJICUG_clean_linker_0, # of connection points: 2
#     Edge 45, Type (0, 0), BuildingBlock: OJICUG_clean_linker_0, # of connection points: 2
#     Edge 46, Type (0, 0), BuildingBlock: OJICUG_clean_linker_0, # of connection points: 2
#     Edge 47, Type (0, 0), BuildingBlock: OJICUG_clean_linker_0, # of connection points: 2
#     Edge 48, Type (0, 0), BuildingBlock: OJICUG_clean_linker_0, # of connection points: 2
#     Edge 49, Type (0, 0), BuildingBlock: OJICUG_clean_linker_0, # of connection points: 2
#     Edge 50, Type (0, 0), BuildingBlock: OJICUG_clean_linker_0, # of connection points: 2
#     Edge 51, Type (0, 0), BuildingBlock: OJICUG_clean_linker_0, # of connection points: 2
#     Edge 52, Type (0, 0), BuildingBlock: OJICUG_clean_linker_0, # of connection points: 2
#     Edge 53, Type (0, 0), BuildingBlock: OJICUG_clean_linker_0, # of connection points: 2
#     Edge 54, Type (0, 0), BuildingBlock: OJICUG_clean_linker_0, # of connection points: 2
#     Edge 55, Type (0, 0), BuildingBlock: OJICUG_clean_linker_0, # of connection points: 2
#     Edge 56, Type (0, 0), BuildingBlock: OJICUG_clean_linker_0, # of connection points: 2
#     Edge 57, Type (0, 0), BuildingBlock: OJICUG_clean_linker_0, # of connection points: 2
#     Edge 58, Type (0, 0), BuildingBlock: OJICUG_clean_linker_0, # of connection points: 2
#     Edge 59, Type (0, 0), BuildingBlock: OJICUG_clean_linker_0, # of connection points: 2
#     Edge 60, Type (0, 0), BuildingBlock: OJICUG_clean_linker_0, # of connection points: 2
#     Edge 61, Type (0, 0), BuildingBlock: OJICUG_clean_linker_0, # of connection points: 2
#     Edge 62, Type (0, 0), BuildingBlock: OJICUG_clean_linker_0, # of connection points: 2
#     Edge 63, Type (0, 0), BuildingBlock: OJICUG_clean_linker_0, # of connection points: 2
#     Edge 64, Type (0, 0), BuildingBlock: OJICUG_clean_linker_0, # of connection points: 2
#     Edge 65, Type (0, 0), BuildingBlock: OJICUG_clean_linker_0, # of connection points: 2
#     Edge 66, Type (0, 0), BuildingBlock: OJICUG_clean_linker_0, # of connection points: 2
#     Edge 67, Type (0, 0), BuildingBlock: OJICUG_clean_linker_0, # of connection points: 2
#     Edge 68, Type (0, 0), BuildingBlock: OJICUG_clean_linker_0, # of connection points: 2
#     Edge 69, Type (0, 0), BuildingBlock: OJICUG_clean_linker_0, # of connection points: 2
#     Edge 70, Type (0, 0), BuildingBlock: OJICUG_clean_linker_0, # of connection points: 2
#     Edge 71, Type (0, 0), BuildingBlock: OJICUG_clean_linker_0, # of connection points: 2
#     Edge 72, Type (0, 0), BuildingBlock: OJICUG_clean_linker_0, # of connection points: 2
#     Edge 73, Type (0, 0), BuildingBlock: OJICUG_clean_linker_0, # of connection points: 2
#     Edge 74, Type (0, 0), BuildingBlock: OJICUG_clean_linker_0, # of connection points: 2
#     Edge 75, Type (0, 0), BuildingBlock: OJICUG_clean_linker_0, # of connection points: 2
#     Edge 76, Type (0, 0), BuildingBlock: OJICUG_clean_linker_0, # of connection points: 2
#     Edge 77, Type (0, 0), BuildingBlock: OJICUG_clean_linker_0, # of connection points: 2
#     Edge 78, Type (0, 0), BuildingBlock: OJICUG_clean_linker_0, # of connection points: 2
#     Edge 79, Type (0, 0), BuildingBlock: OJICUG_clean_linker_0, # of connection points: 2
#     Edge 80, Type (0, 0), BuildingBlock: OJICUG_clean_linker_0, # of connection points: 2
#     Edge 81, Type (0, 0), BuildingBlock: OJICUG_clean_linker_0, # of connection points: 2
#     Edge 82, Type (0, 0), BuildingBlock: OJICUG_clean_linker_0, # of connection points: 2
#     Edge 83, Type (0, 0), BuildingBlock: OJICUG_clean_linker_0, # of connection points: 2
#     Edge 84, Type (0, 0), BuildingBlock: OJICUG_clean_linker_0, # of connection points: 2
#     Edge 85, Type (0, 0), BuildingBlock: OJICUG_clean_linker_0, # of connection points: 2
#     Edge 86, Type (0, 0), BuildingBlock: OJICUG_clean_linker_0, # of connection points: 2
#     Edge 87, Type (0, 0), BuildingBlock: OJICUG_clean_linker_0, # of connection points: 2
#     Edge 88, Type (0, 0), BuildingBlock: OJICUG_clean_linker_0, # of connection points: 2
#     Edge 89, Type (0, 0), BuildingBlock: OJICUG_clean_linker_0, # of connection points: 2
#     Edge 90, Type (0, 0), BuildingBlock: OJICUG_clean_linker_0, # of connection points: 2
#     Edge 91, Type (0, 0), BuildingBlock: OJICUG_clean_linker_0, # of connection points: 2
#     Edge 92, Type (0, 0), BuildingBlock: OJICUG_clean_linker_0, # of connection points: 2
#     Edge 93, Type (0, 0), BuildingBlock: OJICUG_clean_linker_0, # of connection points: 2
#     Edge 94, Type (0, 0), BuildingBlock: OJICUG_clean_linker_0, # of connection points: 2
#     Edge 95, Type (0, 0), BuildingBlock: OJICUG_clean_linker_0, # of connection points: 2
#     Edge 96, Type (0, 0), BuildingBlock: OJICUG_clean_linker_0, # of connection points: 2
#     Edge 97, Type (0, 0), BuildingBlock: OJICUG_clean_linker_0, # of connection points: 2
#     Edge 98, Type (0, 0), BuildingBlock: OJICUG_clean_linker_0, # of connection points: 2
#     Edge 99, Type (0, 0), BuildingBlock: OJICUG_clean_linker_0, # of connection points: 2
#     Edge 100, Type (0, 0), BuildingBlock: OJICUG_clean_linker_0, # of connection points: 2
#     Edge 101, Type (0, 0), BuildingBlock: OJICUG_clean_linker_0, # of connection points: 2
#     Edge 102, Type (0, 0), BuildingBlock: OJICUG_clean_linker_0, # of connection points: 2
#     Edge 103, Type (0, 0), BuildingBlock: OJICUG_clean_linker_0, # of connection points: 2
#     Edge 104, Type (0, 0), BuildingBlock: OJICUG_clean_linker_0, # of connection points: 2
#     Edge 105, Type (0, 0), BuildingBlock: OJICUG_clean_linker_0, # of connection points: 2
#     Edge 106, Type (0, 0), BuildingBlock: OJICUG_clean_linker_0, # of connection points: 2
#     Edge 107, Type (0, 0), BuildingBlock: OJICUG_clean_linker_0, # of connection points: 2
# Relax obj value: 0.204
# Max RMSD: 0.160
# Mean RMSD: 0.153
data_MOF--net-ums--node1-AZAVOO_clean_sbu_0--edge1-OJICUG_clean_linker_0
_symmetry_space_group_name_H-M    P1
_symmetry_Int_Tables_number       1
_symmetry_cell_setting            triclinic
loop_
_symmetry_equiv_pos_as_xyz
'x, y, z'
_cell_length_a     74.779612
_cell_length_b     73.922323
_cell_length_c     16.95484
_cell_angle_alpha  89.290369
_cell_angle_beta   89.988975
_cell_angle_gamma 120.32319
loop_
_atom_site_label
_atom_site_type_symbol
_atom_site_fract_x
_atom_site_fract_y
_atom_site_fract_z
_atom_type_partial_charge
Mg0 Mg 0.18031 0.24962 0.13828 0.0
O1 O 0.18787 0.28379 0.11879 0.0
O2 O 0.15889 0.2819 0.07319 0.0
Mg3 Mg 0.13319 0.24771 0.0674 0.0
C4 C 0.1779 0.2925 0.09308 0.0
C5 C 0.21525 0.26142 0.27108 0.0
O6 O 0.20201 0.26156 0.32168 0.0
O7 O 0.16194 0.24622 0.25231 0.0
O8 O 0.13373 0.2451 0.20167 0.0
O9 O 0.1888 0.24965 0.01212 0.0
O10 O 0.15711 0.23921 0.05693 0.0
C11 C 0.14419 0.24468 0.26046 0.0
C12 C 0.16953 0.24333 -0.0017 0.0
O13 O 0.21093 0.25944 0.19822 0.0
Mg14 Mg 0.74466 0.91903 0.26363 0.0
O15 O 0.71035 0.89668 0.25285 0.0
O16 O 0.69436 0.90048 0.35654 0.0
Mg17 Mg 0.72032 0.92089 0.44447 0.0
C18 C 0.69392 0.8925 0.28975 0.0
C19 C 0.76143 0.91598 0.10354 0.0
O20 O 0.77783 0.92212 0.14808 0.0
O21 O 0.7403 0.94695 0.24792 0.0
O22 O 0.7298 0.95045 0.36736 0.0
O23 O 0.74858 0.89354 0.31368 0.0
O24 O 0.74425 0.91584 0.38615 0.0
C25 C 0.73579 0.95705 0.29675 0.0
C26 C 0.7468 0.89983 0.38264 0.0
O27 O 0.74556 0.91533 0.13291 0.0
Mg28 Mg 0.07598 0.82531 0.14127 0.0
O29 O 0.09814 0.81434 0.10142 0.0
O30 O 0.12759 0.84195 0.05728 0.0
Mg31 Mg 0.12437 0.87086 0.07323 0.0
C32 C 0.11612 0.82231 0.07016 0.0
C33 C 0.04258 0.78983 0.2498 0.0
O34 O 0.0468 0.80558 0.29619 0.0
O35 O 0.09349 0.83969 0.25665 0.0
O36 O 0.12218 0.86746 0.2077 0.0
O37 O 0.06559 0.82071 0.01706 0.0
O38 O 0.09048 0.85073 0.06584 0.0
C39 C 0.11102 0.85643 0.26597 0.0
C40 C 0.08052 0.83976 0.00586 0.0
O41 O 0.05424 0.79292 0.19086 0.0
Mg42 Mg 0.23479 0.16977 0.40191 0.0
O43 O 0.26785 0.17856 0.43879 0.0
O44 O 0.2656 0.1504 0.49943 0.0
Mg45 Mg 0.23278 0.12285 0.48385 0.0
C46 C 0.27591 0.16966 0.47834 0.0
C47 C 0.25376 0.21734 0.37926 0.0
O48 O 0.25759 0.21609 0.45411 0.0
O49 O 0.23558 0.15217 0.29242 0.0
O50 O 0.2348 0.12413 0.34788 0.0
O51 O 0.23062 0.17757 0.52443 0.0
O52 O 0.22231 0.14577 0.48487 0.0
C53 C 0.23534 0.13479 0.28707 0.0
C54 C 0.22491 0.15831 0.5415 0.0
O55 O 0.24683 0.201 0.33733 0.0
Mg56 Mg 0.82467 0.0813 0.23958 0.0
O57 O 0.81227 0.10338 0.24722 0.0
O58 O 0.79273 0.09901 0.14211 0.0
Mg59 Mg 0.79869 0.07834 0.05687 0.0
C60 C 0.80003 0.10728 0.20873 0.0
C61 C 0.84358 0.08367 0.40108 0.0
O62 O 0.85296 0.07619 0.35823 0.0
O63 O 0.79258 0.05317 0.25576 0.0
O64 O 0.77882 0.0491 0.13564 0.0
O65 O 0.85399 0.10678 0.18915 0.0
O66 O 0.82759 0.084 0.1171 0.0
C67 C 0.77814 0.04276 0.20671 0.0
C68 C 0.84605 0.10014 0.12029 0.0
O69 O 0.82919 0.08555 0.37015 0.0
Mg70 Mg 0.9231 0.74011 0.3428 0.0
O71 O 0.89784 0.70605 0.37 0.0
O72 O 0.86968 0.70649 0.41152 0.0
Mg73 Mg 0.87642 0.74024 0.40623 0.0
C74 C 0.87923 0.69668 0.39631 0.0
C75 C 0.95567 0.73938 0.2336 0.0
O76 O 0.95002 0.74986 0.18678 0.0
O77 O 0.90781 0.74071 0.22542 0.0
O78 O 0.88001 0.74115 0.27235 0.0
O79 O 0.93161 0.7427 0.46965 0.0
O80 O 0.90942 0.75108 0.41801 0.0
C81 C 0.89116 0.74133 0.21496 0.0
C82 C 0.91802 0.7484 0.47913 0.0
O83 O 0.94426 0.72955 0.29239 0.0
Mg84 Mg 0.82846 0.73488 0.77681 0.0
O85 O 0.8475 0.74311 0.88896 0.0
O86 O 0.87752 0.77295 0.87189 0.0
Mg87 Mg 0.87635 0.78522 0.74803 0.0
C88 C 0.86523 0.75695 0.91371 0.0
C89 C 0.79227 0.69108 0.82371 0.0
O90 O 0.79634 0.68753 0.75204 0.0
O91 O 0.8184 0.75875 0.79723 0.0
O92 O 0.84797 0.78865 0.7718 0.0
O93 O 0.84588 0.71969 0.7339 0.0
O94 O 0.85511 0.75282 0.71085 0.0
C95 C 0.82857 0.77864 0.78762 0.0
C96 C 0.85918 0.73795 0.70505 0.0
O97 O 0.80186 0.70969 0.84904 0.0
Mg98 Mg 0.24944 0.0893 0.83439 0.0
O99 O 0.23921 0.09405 0.95612 0.0
O100 O 0.20774 0.0901 0.94487 0.0
Mg101 Mg 0.19665 0.08032 0.81812 0.0
C102 C 0.22382 0.09466 0.9853 0.0
C103 C 0.2936 0.09488 0.86411 0.0
O104 O 0.29615 0.10006 0.78883 0.0
O105 O 0.22949 0.05338 0.83581 0.0
O106 O 0.19877 0.05058 0.81391 0.0
O107 O 0.26025 0.12321 0.80474 0.0
O108 O 0.22914 0.09676 0.77901 0.0
C109 C 0.21023 0.0424 0.81942 0.0
C110 C 0.24182 0.11657 0.77739 0.0
O111 O 0.27619 0.08907 0.89659 0.0
Mg112 Mg 0.91783 0.17363 0.71514 0.0
O113 O 0.90389 0.15255 0.82361 0.0
O114 O 0.90292 0.12228 0.80447 0.0
Mg115 Mg 0.91911 0.12519 0.68623 0.0
C116 C 0.89885 0.13406 0.84585 0.0
C117 C 0.90936 0.20904 0.76049 0.0
O118 O 0.90322 0.20601 0.68677 0.0
O119 O 0.95092 0.18293 0.74736 0.0
O120 O 0.95048 0.15313 0.72094 0.0
O121 O 0.88651 0.15706 0.65962 0.0
O122 O 0.91017 0.14782 0.64505 0.0
C123 C 0.96011 0.1724 0.74044 0.0
C124 C 0.89173 0.14412 0.63183 0.0
O125 O 0.91792 0.19926 0.78813 0.0
Mg126 Mg 0.74251 0.82523 0.78764 0.0
O127 O 0.75045 0.84651 0.67946 0.0
O128 O 0.78032 0.87615 0.69871 0.0
Mg129 Mg 0.79304 0.87246 0.81724 0.0
C130 C 0.76435 0.8648 0.65724 0.0
C131 C 0.69851 0.78967 0.73916 0.0
O132 O 0.69472 0.79164 0.81328 0.0
O133 O 0.76539 0.81478 0.75576 0.0
O134 O 0.79537 0.8438 0.78258 0.0
O135 O 0.7287 0.84274 0.84318 0.0
O136 O 0.76121 0.85068 0.85814 0.0
C137 C 0.78508 0.82455 0.76295 0.0
C138 C 0.74697 0.85512 0.87133 0.0
O139 O 0.71696 0.80022 0.71327 0.0
Mg140 Mg 0.17247 0.91347 0.70646 0.0
O141 O 0.15512 0.90365 0.58959 0.0
O142 O 0.12532 0.90341 0.60099 0.0
Mg143 Mg 0.12472 0.91593 0.72331 0.0
C144 C 0.13774 0.89982 0.56188 0.0
C145 C 0.20762 0.9044 0.66607 0.0
O146 O 0.20197 0.8954 0.73607 0.0
O147 O 0.18432 0.94871 0.69118 0.0
O148 O 0.15431 0.94772 0.71162 0.0
O149 O 0.15289 0.87997 0.74896 0.0
O150 O 0.14511 0.9047 0.76674 0.0
C151 C 0.17395 0.95795 0.70192 0.0
C152 C 0.14007 0.88547 0.77496 0.0
O153 O 0.19955 0.91482 0.64013 0.0
Mg154 Mg 0.0939 0.25688 0.70325 0.0
O155 O 0.10191 0.24656 0.58889 0.0
O156 O 0.10092 0.21617 0.60894 0.0
Mg157 Mg 0.08957 0.20584 0.73625 0.0
C158 C 0.10453 0.23178 0.56486 0.0
C159 C 0.09551 0.29892 0.66269 0.0
O160 O 0.0989 0.30139 0.73891 0.0
O161 O 0.05944 0.23395 0.69251 0.0
O162 O 0.05796 0.20359 0.72027 0.0
O163 O 0.12712 0.27165 0.73744 0.0
O164 O 0.10309 0.23905 0.76787 0.0
C165 C 0.04912 0.21422 0.70581 0.0
C166 C 0.12225 0.25362 0.7685 0.0
O167 O 0.09189 0.28185 0.6319 0.0
Mg168 Mg 0.84254 0.56718 0.53354 0.0
O169 O 0.84854 0.60034 0.50417 0.0
O170 O 0.81883 0.59711 0.46075 0.0
Mg171 Mg 0.79365 0.56267 0.46901 0.0
C172 C 0.83809 0.60827 0.47622 0.0
C173 C 0.89011 0.58918 0.54123 0.0
O174 O 0.88726 0.59348 0.46853 0.0
O175 O 0.82603 0.56587 0.65061 0.0
O176 O 0.79695 0.56341 0.60277 0.0
O177 O 0.8487 0.5649 0.40602 0.0
O178 O 0.8177 0.55431 0.45772 0.0
C179 C 0.80835 0.5644 0.6605 0.0
C180 C 0.82919 0.55813 0.39633 0.0
O181 O 0.87461 0.58047 0.58804 0.0
Mg182 Mg 0.40605 0.25383 0.5803 0.0
O183 O 0.37158 0.23149 0.57325 0.0
O184 O 0.35644 0.23035 0.68773 0.0
Mg185 Mg 0.38284 0.25315 0.76906 0.0
C186 C 0.35553 0.2246 0.61649 0.0
C187 C 0.42257 0.25212 0.41851 0.0
O188 O 0.43918 0.25911 0.46248 0.0
O189 O 0.40077 0.28125 0.57082 0.0
O190 O 0.38944 0.2821 0.69208 0.0
O191 O 0.41115 0.22853 0.62696 0.0
O192 O 0.40681 0.25027 0.70243 0.0
C193 C 0.39524 0.28989 0.62255 0.0
C194 C 0.40995 0.23471 0.69686 0.0
O195 O 0.40633 0.25051 0.4487 0.0
Mg196 Mg 0.73353 0.16126 0.43784 0.0
O197 O 0.75602 0.15057 0.39765 0.0
O198 O 0.78435 0.17854 0.34779 0.0
Mg199 Mg 0.78028 0.207 0.36046 0.0
C200 C 0.77371 0.15895 0.36354 0.0
C201 C 0.70218 0.11389 0.46689 0.0
O202 O 0.70362 0.11415 0.38962 0.0
O203 O 0.75213 0.17778 0.54811 0.0
O204 O 0.78021 0.20552 0.4958 0.0
O205 O 0.72181 0.15458 0.31469 0.0
O206 O 0.74648 0.18555 0.35706 0.0
C207 C 0.76951 0.19476 0.55537 0.0
C208 C 0.73628 0.17364 0.2994 0.0
O209 O 0.71387 0.13055 0.50435 0.0
Mg210 Mg 0.9283 0.51349 0.63123 0.0
O211 O 0.96106 0.51953 0.66352 0.0
O212 O 0.95572 0.48915 0.71509 0.0
Mg213 Mg 0.92201 0.46362 0.70232 0.0
C214 C 0.96765 0.50854 0.69831 0.0
C215 C 0.94542 0.56071 0.61572 0.0
O216 O 0.95023 0.55934 0.68918 0.0
O217 O 0.92679 0.49629 0.51706 0.0
O218 O 0.92314 0.46648 0.56778 0.0
O219 O 0.92551 0.52038 0.75723 0.0
O220 O 0.91478 0.4887 0.71026 0.0
C221 C 0.92456 0.47807 0.50887 0.0
C222 C 0.9184 0.50063 0.76978 0.0
O223 O 0.94072 0.54534 0.57051 0.0
Mg224 Mg 0.48834 0.40789 0.61766 0.0
O225 O 0.4796 0.43289 0.63163 0.0
O226 O 0.46664 0.43676 0.51837 0.0
Mg227 Mg 0.46894 0.41473 0.42907 0.0
C228 C 0.47154 0.44138 0.59048 0.0
C229 C 0.50579 0.40741 0.77939 0.0
O230 O 0.51663 0.40224 0.73353 0.0
O231 O 0.4545 0.38323 0.61959 0.0
O232 O 0.44428 0.385 0.4971 0.0
O233 O 0.52046 0.43105 0.57845 0.0
O234 O 0.49398 0.41447 0.4975 0.0
C235 C 0.4409 0.37623 0.56537 0.0
C236 C 0.51329 0.42802 0.50741 0.0
O237 O 0.49055 0.40807 0.7501 0.0
Mg238 Mg 0.59548 0.08788 0.66053 0.0
O239 O 0.56937 0.05411 0.68668 0.0
O240 O 0.54245 0.05581 0.73534 0.0
Mg241 Mg 0.55068 0.09004 0.73455 0.0
C242 C 0.55108 0.04536 0.71598 0.0
C243 C 0.62643 0.07243 0.62948 0.0
O244 O 0.62551 0.07127 0.70687 0.0
O245 O 0.57954 0.09026 0.5486 0.0
O246 O 0.5525 0.09137 0.59963 0.0
O247 O 0.60489 0.08887 0.7864 0.0
O248 O 0.58342 0.09909 0.74225 0.0
C249 C 0.56318 0.0915 0.54065 0.0
C250 C 0.59195 0.0952 0.80067 0.0
O251 O 0.61405 0.07652 0.59266 0.0
Mg252 Mg 0.50108 0.07819 0.09618 0.0
O253 O 0.51949 0.08853 0.21 0.0
O254 O 0.54855 0.11924 0.1911 0.0
Mg255 Mg 0.54724 0.1298 0.06457 0.0
C256 C 0.53668 0.10344 0.23458 0.0
C257 C 0.46346 0.03436 0.1428 0.0
O258 O 0.46575 0.03062 0.06901 0.0
O259 O 0.48902 0.10072 0.11041 0.0
O260 O 0.5177 0.13139 0.08461 0.0
O261 O 0.52022 0.06426 0.05925 0.0
O262 O 0.52791 0.0967 0.03095 0.0
C263 C 0.49829 0.12056 0.09958 0.0
C264 C 0.533 0.08249 0.02876 0.0
O265 O 0.47478 0.05271 0.16902 0.0
Mg266 Mg 0.92883 0.42165 0.07074 0.0
O267 O 0.92037 0.43171 0.18406 0.0
O268 O 0.89172 0.43346 0.16849 0.0
Mg269 Mg 0.88016 0.42158 0.04367 0.0
C270 C 0.90705 0.43607 0.20995 0.0
C271 C 0.97142 0.42997 0.1336 0.0
O272 O 0.97774 0.44178 0.0695 0.0
O273 O 0.9042 0.38707 0.08601 0.0
O274 O 0.87577 0.3888 0.0608 0.0
O275 O 0.94479 0.45535 0.02971 0.0
O276 O 0.91215 0.43198 0.00531 0.0
C277 C 0.8847 0.37822 0.07422 0.0
C278 C 0.92711 0.45099 3e-05 0.0
O279 O 0.95212 0.41829 0.14593 0.0
Mg280 Mg 0.57983 0.49921 0.08571 0.0
O281 O 0.56654 0.47987 0.19825 0.0
O282 O 0.56861 0.45082 0.19354 0.0
Mg283 Mg 0.58152 0.4506 0.07089 0.0
C284 C 0.56364 0.46279 0.22894 0.0
C285 C 0.5718 0.53578 0.12456 0.0
O286 O 0.56475 0.53191 0.05208 0.0
O287 O 0.61351 0.50931 0.11604 0.0
O288 O 0.61302 0.47922 0.09587 0.0
O289 O 0.54811 0.48158 0.03351 0.0
O290 O 0.57164 0.47206 0.02325 0.0
C291 C 0.62275 0.49877 0.11093 0.0
C292 C 0.55313 0.46813 0.00973 0.0
O293 O 0.58044 0.52609 0.15253 0.0
Mg294 Mg 0.40802 0.16227 0.1057 0.0
O295 O 0.41533 0.18287 0.99545 0.0
O296 O 0.44475 0.21304 0.01394 0.0
Mg297 Mg 0.45776 0.21053 0.1334 0.0
C298 C 0.42897 0.20119 0.9724 0.0
C299 C 0.36456 0.12548 0.06439 0.0
O300 O 0.36185 0.12789 0.13929 0.0
O301 O 0.4316 0.15264 0.07477 0.0
O302 O 0.46108 0.18236 0.09984 0.0
O303 O 0.39322 0.17908 0.15899 0.0
O304 O 0.42608 0.1884 0.17466 0.0
C305 C 0.45131 0.16304 0.08102 0.0
C306 C 0.41131 0.19214 0.18682 0.0
O307 O 0.38254 0.13629 0.03435 0.0
Mg308 Mg 0.83024 0.24346 0.00434 0.0
O309 O 0.81367 0.23622 0.88582 0.0
O310 O 0.78561 0.23928 0.89696 0.0
Mg311 Mg 0.78554 0.25102 0.02142 0.0
C312 C 0.79719 0.23464 0.85728 0.0
C313 C 0.86873 0.23777 0.96929 0.0
O314 O 0.86665 0.23246 0.04442 0.0
O315 O 0.84468 0.27899 0.99125 0.0
O316 O 0.81657 0.28168 0.01085 0.0
O317 O 0.80847 0.20998 0.04243 0.0
O318 O 0.80302 0.23621 0.06315 0.0
C319 C 0.83613 0.29003 0.00132 0.0
C320 C 0.79649 0.21652 0.06871 0.0
O321 O 0.85689 0.24361 0.93918 0.0
Mg322 Mg 0.75778 0.57999 0.09793 0.0
O323 O 0.76668 0.56936 0.98665 0.0
O324 O 0.76396 0.5382 0.00687 0.0
Mg325 Mg 0.7503 0.52761 0.13162 0.0
C326 C 0.76889 0.55428 0.96342 0.0
C327 C 0.76095 0.62299 0.04726 0.0
O328 O 0.76277 0.62653 0.12341 0.0
O329 O 0.72319 0.55853 0.07937 0.0
O330 O 0.71996 0.52737 0.10692 0.0
O331 O 0.79031 0.59261 0.14027 0.0
O332 O 0.76438 0.56065 0.16618 0.0
C333 C 0.71203 0.53874 0.09011 0.0
C334 C 0.78379 0.57418 0.17109 0.0
O335 O 0.75826 0.60569 0.02225 0.0
Mg336 Mg 0.51059 0.91457 0.84585 0.0
O337 O 0.51769 0.94828 0.82108 0.0
O338 O 0.48874 0.94604 0.77329 0.0
Mg339 Mg 0.46318 0.91169 0.773 0.0
C340 C 0.50779 0.95676 0.79254 0.0
C341 C 0.5569 0.92983 0.87471 0.0
O342 O 0.55692 0.93147 0.7975 0.0
O343 O 0.49222 0.91172 0.9584 0.0
O344 O 0.46382 0.91016 0.90774 0.0
O345 O 0.51903 0.91396 0.71963 0.0
O346 O 0.48731 0.9033 0.7643 0.0
C347 C 0.47448 0.91017 0.96657 0.0
C348 C 0.49973 0.90745 0.70569 0.0
O349 O 0.54065 0.92585 0.91289 0.0
Mg350 Mg 0.09035 0.5917 0.908 0.0
O351 O 0.0601 0.56607 0.85361 0.0
O352 O 0.03631 0.55819 0.94881 0.0
Mg353 Mg 0.05115 0.57492 0.06484 0.0
C354 C 0.04139 0.55617 0.87877 0.0
C355 C 0.10325 0.60099 0.71503 0.0
O356 O 0.11464 0.61571 0.66308 0.0
O357 O 0.07726 0.61315 0.90177 0.0
O358 O 0.05841 0.60705 0.01161 0.0
O359 O 0.10086 0.56992 0.96017 0.0
O360 O 0.0802 0.57844 0.01962 0.0
C361 C 0.06695 0.61777 0.94887 0.0
C362 C 0.09015 0.56855 0.02228 0.0
O363 O 0.1055 0.6057 0.78771 0.0
Mg364 Mg 0.40419 0.49364 0.8071 0.0
O365 O 0.42949 0.48587 0.77383 0.0
O366 O 0.4548 0.51448 0.71311 0.0
Mg367 Mg 0.44821 0.54125 0.72491 0.0
C368 C 0.44655 0.49532 0.73499 0.0
C369 C 0.37415 0.44651 0.83856 0.0
O370 O 0.37712 0.4465 0.76222 0.0
O371 O 0.4218 0.51201 0.91579 0.0
O372 O 0.4487 0.5404 0.8607 0.0
O373 O 0.39285 0.48496 0.68392 0.0
O374 O 0.41527 0.51717 0.72282 0.0
C375 C 0.43857 0.52967 0.92132 0.0
C376 C 0.40594 0.50433 0.66643 0.0
O377 O 0.38562 0.46313 0.87661 0.0
Mg378 Mg 0.57468 0.83867 0.05217 0.0
O379 O 0.60786 0.84951 0.09276 0.0
O380 O 0.60835 0.82156 0.1424 0.0
Mg381 Mg 0.57595 0.79299 0.12935 0.0
C382 C 0.61721 0.84117 0.12703 0.0
C383 C 0.59077 0.88606 0.02556 0.0
O384 O 0.59249 0.88549 0.10252 0.0
O385 O 0.57682 0.82216 0.94154 0.0
O386 O 0.57715 0.79441 0.99395 0.0
O387 O 0.5695 0.84524 0.17532 0.0
O388 O 0.56345 0.81434 0.13291 0.0
C389 C 0.57716 0.80512 0.93431 0.0
C390 C 0.56503 0.82621 0.19057 0.0
O391 O 0.5855 0.86953 0.98662 0.0
Mg392 Mg 0.15687 0.73628 0.93529 0.0
O393 O 0.14922 0.76213 0.9484 0.0
O394 O 0.13138 0.76152 0.84197 0.0
Mg395 Mg 0.13465 0.74053 0.75064 0.0
C396 C 0.13868 0.76839 0.91023 0.0
C397 C 0.17622 0.73802 0.09533 0.0
O398 O 0.18753 0.7336 0.04886 0.0
O399 O 0.12287 0.71158 0.94429 0.0
O400 O 0.11139 0.71103 0.82214 0.0
O401 O 0.18853 0.75881 0.89115 0.0
O402 O 0.16117 0.74181 0.81434 0.0
C403 C 0.10881 0.70335 0.89206 0.0
C404 C 0.18063 0.75537 0.82123 0.0
O405 O 0.1603 0.7375 0.06714 0.0
Mg406 Mg 0.26265 0.42627 0.98519 0.0
O407 O 0.23786 0.3919 0.01103 0.0
O408 O 0.20939 0.39156 0.0536 0.0
Mg409 Mg 0.21532 0.42504 0.05031 0.0
C410 C 0.21925 0.38213 0.03728 0.0
C411 C 0.29416 0.41097 0.96962 0.0
O412 O 0.29062 0.40875 0.04599 0.0
O413 O 0.24693 0.42677 0.86896 0.0
O414 O 0.21859 0.42605 0.9163 0.0
O415 O 0.27103 0.42889 0.11327 0.0
O416 O 0.24849 0.43665 0.06148 0.0
C417 C 0.22993 0.4267 0.85877 0.0
C418 C 0.25715 0.43422 0.12276 0.0
O419 O 0.28353 0.41618 0.92639 0.0
Mg420 Mg 0.16518 0.41535 0.42004 0.0
O421 O 0.18451 0.42427 0.53182 0.0
O422 O 0.2134 0.45523 0.51476 0.0
Mg423 Mg 0.21085 0.46736 0.39245 0.0
C424 C 0.20193 0.43885 0.55629 0.0
C425 C 0.12804 0.37111 0.45945 0.0
O426 O 0.13032 0.36892 0.38395 0.0
O427 O 0.15312 0.43733 0.44571 0.0
O428 O 0.18142 0.46856 0.42349 0.0
O429 O 0.184 0.40202 0.37478 0.0
O430 O 0.19146 0.43473 0.35385 0.0
C431 C 0.16215 0.45727 0.44044 0.0
C432 C 0.19661 0.42063 0.34695 0.0
O433 O 0.13933 0.38886 0.49044 0.0
Mg434 Mg 0.58674 0.75466 0.48538 0.0
O435 O 0.57776 0.76193 0.60483 0.0
O436 O 0.54716 0.76001 0.59409 0.0
Mg437 Mg 0.53517 0.74882 0.46934 0.0
C438 C 0.56323 0.76408 0.63369 0.0
C439 C 0.63086 0.76099 0.52272 0.0
O440 O 0.63474 0.76828 0.44984 0.0
O441 O 0.5651 0.71903 0.495 0.0
O442 O 0.53502 0.71786 0.47513 0.0
O443 O 0.59918 0.78847 0.44916 0.0
O444 O 0.56733 0.76287 0.42732 0.0
C445 C 0.54557 0.70872 0.48303 0.0
C446 C 0.5808 0.78245 0.42254 0.0
O447 O 0.61267 0.75352 0.55049 0.0
Mg448 Mg 0.24631 0.83064 0.40622 0.0
O449 O 0.2331 0.80992 0.51573 0.0
O450 O 0.23722 0.78213 0.50732 0.0
Mg451 Mg 0.25146 0.78415 0.38517 0.0
C452 C 0.23098 0.79291 0.54396 0.0
C453 C 0.24041 0.86896 0.45028 0.0
O454 O 0.2366 0.86891 0.37461 0.0
O455 O 0.28008 0.84227 0.43818 0.0
O456 O 0.282 0.81361 0.41431 0.0
O457 O 0.21502 0.81209 0.35149 0.0
O458 O 0.24001 0.8046 0.34021 0.0
C459 C 0.29049 0.83295 0.43194 0.0
C460 C 0.22122 0.79966 0.32628 0.0
O461 O 0.24554 0.85614 0.4773 0.0
Mg462 Mg 0.06947 0.49696 0.46264 0.0
O463 O 0.07892 0.51882 0.35492 0.0
O464 O 0.10974 0.54719 0.37324 0.0
Mg465 Mg 0.11819 0.54473 0.50295 0.0
C466 C 0.09407 0.53608 0.33002 0.0
C467 C 0.02784 0.45925 0.39318 0.0
O468 O 0.02039 0.45809 0.46443 0.0
O469 O 0.09429 0.48823 0.43794 0.0
O470 O 0.12319 0.5175 0.4728 0.0
O471 O 0.05359 0.51312 0.51555 0.0
O472 O 0.08592 0.52155 0.53958 0.0
C473 C 0.11383 0.49848 0.45015 0.0
C474 C 0.07085 0.52481 0.5518 0.0
O475 O 0.04677 0.47234 0.37889 0.0
Mg476 Mg 0.49853 0.5766 0.3715 0.0
O477 O 0.48235 0.57062 0.25219 0.0
O478 O 0.45373 0.57257 0.26593 0.0
Mg479 Mg 0.45276 0.58244 0.39242 0.0
C480 C 0.46575 0.56892 0.22446 0.0
C481 C 0.5355 0.56928 0.33328 0.0
O482 O 0.53177 0.56214 0.40635 0.0
O483 O 0.51257 0.61244 0.36621 0.0
O484 O 0.48351 0.61318 0.38813 0.0
O485 O 0.47704 0.54252 0.40432 0.0
O486 O 0.47082 0.56796 0.43033 0.0
C487 C 0.50316 0.62252 0.37996 0.0
C488 C 0.46469 0.54834 0.43272 0.0
O489 O 0.52546 0.57747 0.30493 0.0
Mg490 Mg 0.42425 0.9221 0.41031 0.0
O491 O 0.43282 0.91208 0.29666 0.0
O492 O 0.43227 0.8819 0.31617 0.0
Mg493 Mg 0.42057 0.87124 0.44272 0.0
C494 C 0.43571 0.89751 0.27242 0.0
C495 C 0.42944 0.96545 0.36315 0.0
O496 O 0.43554 0.96931 0.43682 0.0
O497 O 0.38977 0.89883 0.39653 0.0
O498 O 0.38911 0.86882 0.42321 0.0
O499 O 0.4574 0.93688 0.44729 0.0
O500 O 0.43334 0.90423 0.47591 0.0
C501 C 0.37986 0.879 0.40816 0.0
C502 C 0.45246 0.91881 0.47805 0.0
O503 O 0.42264 0.94711 0.33709 0.0
C504 C 0.24427 0.24454 0.40586 0.0
C505 C 0.25052 0.23448 0.35178 0.0
H506 H 0.22805 0.26122 0.42253 0.0
C507 C 0.24949 0.23787 0.27084 0.0
H508 H 0.24501 0.24232 0.4688 0.0
C509 C 0.24015 0.24906 0.24436 0.0
C510 C 0.23118 0.25655 0.29848 0.0
H511 H 0.25446 0.23053 0.22796 0.0
H512 H 0.23826 0.25003 0.1814 0.0
C513 C 0.23449 0.25535 0.3794 0.0
C514 C 0.75324 0.00563 0.17203 0.0
C515 C 0.7621 0.0212 0.2296 0.0
H516 H 0.73776 0.97279 0.14849 0.0
C517 C 0.7583 0.01527 0.30968 0.0
H518 H 0.75582 0.00971 0.10983 0.0
C519 C 0.74767 0.99409 0.33181 0.0
C520 C 0.74103 0.97855 0.27418 0.0
H521 H 0.76475 0.02696 0.35532 0.0
H522 H 0.74633 0.99002 0.39398 0.0
C523 C 0.74296 0.98447 0.19416 0.0
C524 C 0.98773 0.75202 0.31253 0.0
C525 C 0.97792 0.74652 0.23867 0.0
H526 H 0.01627 0.7705 0.37406 0.0
C527 C 0.99006 0.75204 0.17001 0.0
H528 H 0.97871 0.74811 0.36655 0.0
C529 C 0.0116 0.76431 0.17466 0.0
C530 C 0.02123 0.77186 0.24793 0.0
H531 H 0.98284 0.74805 0.11255 0.0
H532 H 0.02047 0.76949 0.12019 0.0
C533 C 0.00922 0.7649 0.31703 0.0
C534 C 0.79552 0.77956 0.77928 0.0
C535 C 0.81726 0.79027 0.7837 0.0
H536 H 0.76827 0.7819 0.7668 0.0
C537 C 0.82827 0.81225 0.77635 0.0
H538 H 0.78656 0.76261 0.78348 0.0
C539 C 0.81782 0.82326 0.76578 0.0
C540 C 0.79608 0.8126 0.76213 0.0
H541 H 0.84504 0.82102 0.77861 0.0
H542 H 0.82683 0.84021 0.76175 0.0
C543 C 0.78504 0.7906 0.76831 0.0
C544 C 0.21356 0.01106 0.78301 0.0
C545 C 0.20142 0.02058 0.79106 0.0
H546 H 0.21463 0.98387 0.7464 0.0
C547 C 0.18103 0.00998 0.7623 0.0
H548 H 0.22945 0.01892 0.80307 0.0
C549 C 0.17288 0.99043 0.7277 0.0
C550 C 0.18466 0.98054 0.72169 0.0
H551 H 0.17122 0.01682 0.76584 0.0
H552 H 0.15697 0.98276 0.70781 0.0
C553 C 0.20523 0.99118 0.74887 0.0
C554 C 0.01458 0.18181 0.7264 0.0
C555 C 0.02629 0.20363 0.71438 0.0
H556 H 0.98467 0.15495 0.74643 0.0
C557 C 0.01618 0.21531 0.71731 0.0
H558 H 0.02186 0.17233 0.72554 0.0
C559 C 0.99479 0.20533 0.73061 0.0
C560 C 0.98303 0.18344 0.74065 0.0
H561 H 0.02477 0.23219 0.70957 0.0
H562 H 0.9874 0.21471 0.73034 0.0
C563 C 0.99324 0.17185 0.73927 0.0
C564 C 0.91387 0.58683 0.63921 0.0
C565 C 0.90892 0.58826 0.56044 0.0
H566 H 0.93022 0.57779 0.71866 0.0
C567 C 0.91985 0.58502 0.49995 0.0
H568 H 0.90581 0.58942 0.68692 0.0
C569 C 0.93351 0.57789 0.51795 0.0
C570 C 0.93685 0.57441 0.59673 0.0
H571 H 0.91644 0.58607 0.43854 0.0
H572 H 0.94024 0.57362 0.47023 0.0
C573 C 0.92795 0.58024 0.65722 0.0
C574 C 0.40384 0.31953 0.52848 0.0
C575 C 0.3999 0.31156 0.60623 0.0
H576 H 0.41959 0.34678 0.45413 0.0
C577 C 0.40487 0.32555 0.66887 0.0
H578 H 0.39989 0.30911 0.47891 0.0
C579 C 0.41639 0.34715 0.65471 0.0
C580 C 0.42276 0.35505 0.57766 0.0
H581 H 0.40187 0.31993 0.72945 0.0
H582 H 0.42187 0.35756 0.70465 0.0
C583 C 0.41505 0.34116 0.51424 0.0
C584 C 0.68306 0.09531 0.58973 0.0
C585 C 0.68351 0.09722 0.50717 0.0
H586 H 0.66426 0.08506 0.69392 0.0
C587 C 0.66492 0.08615 0.46523 0.0
H588 H 0.69722 0.10347 0.62339 0.0
C589 C 0.64598 0.07591 0.5056 0.0
C590 C 0.64545 0.07626 0.58835 0.0
H591 H 0.66479 0.08719 0.40146 0.0
H592 H 0.63178 0.06927 0.47202 0.0
C593 C 0.66415 0.08469 0.63007 0.0
C594 C 0.46428 0.1197 0.09369 0.0
C595 C 0.48605 0.13124 0.09574 0.0
H596 H 0.43617 0.12061 0.08525 0.0
C597 C 0.49619 0.15319 0.08789 0.0
H598 H 0.45597 0.10275 0.09847 0.0
C599 C 0.48488 0.16337 0.07946 0.0
C600 C 0.46311 0.1519 0.07849 0.0
H601 H 0.51294 0.1626 0.08843 0.0
H602 H 0.49325 0.18033 0.07501 0.0
C603 C 0.45292 0.12992 0.08487 0.0
C604 C 0.83952 0.32483 0.02646 0.0
C605 C 0.8491 0.31285 0.01556 0.0
H606 H 0.84296 0.35433 0.05624 0.0
C607 C 0.87057 0.32235 0.02817 0.0
H608 H 0.823 0.31806 0.01813 0.0
C609 C 0.88212 0.34336 0.051 0.0
C610 C 0.87244 0.35528 0.06159 0.0
H611 H 0.87841 0.3135 0.02155 0.0
H612 H 0.89868 0.35034 0.05877 0.0
C613 C 0.85097 0.34567 0.04934 0.0
C614 C 0.65547 0.49757 0.11435 0.0
C615 C 0.64568 0.50956 0.11184 0.0
H616 H 0.68373 0.49718 0.10751 0.0
C617 C 0.65793 0.53139 0.10085 0.0
H618 H 0.64657 0.48071 0.12245 0.0
C619 C 0.67946 0.54092 0.09145 0.0
C620 C 0.68915 0.5288 0.09314 0.0
H621 H 0.65085 0.54105 0.09763 0.0
H622 H 0.68849 0.55778 0.08345 0.0
C623 C 0.67686 0.50703 0.10503 0.0
C624 C 0.5816 0.9166 0.86846 0.0
C625 C 0.57185 0.92514 0.91311 0.0
H626 H 0.59535 0.89727 0.8698 0.0
C627 C 0.57303 0.92485 0.99574 0.0
H628 H 0.5811 0.9167 0.80462 0.0
C629 C 0.58158 0.91403 0.03303 0.0
C630 C 0.58866 0.903 0.98813 0.0
H631 H 0.56584 0.9315 0.03155 0.0
H632 H 0.5807 0.91261 0.09677 0.0
C633 C 0.58972 0.9054 0.90572 0.0
C634 C 0.07576 0.6525 0.00083 0.0
C635 C 0.06927 0.63862 0.9374 0.0
H636 H 0.09358 0.68451 0.03602 0.0
C637 C 0.07097 0.64657 0.86038 0.0
H638 H 0.07464 0.64676 0.06079 0.0
C639 C 0.08162 0.66817 0.8461 0.0
C640 C 0.0911 0.68208 0.90864 0.0
H641 H 0.06595 0.63612 0.81054 0.0
H642 H 0.08443 0.67376 0.78547 0.0
C643 C 0.08677 0.67414 0.9865 0.0
C644 C 0.33105 0.4208 0.98761 0.0
C645 C 0.31377 0.41367 0.93803 0.0
H646 H 0.36416 0.43693 0.99438 0.0
C647 C 0.31648 0.41299 0.85644 0.0
H648 H 0.32943 0.42139 0.05087 0.0
C649 C 0.33636 0.42146 0.82428 0.0
C650 C 0.35383 0.43119 0.87317 0.0
H651 H 0.30338 0.40735 0.81702 0.0
H652 H 0.33803 0.42222 0.76067 0.0
C653 C 0.35097 0.42972 0.95534 0.0
C654 C 0.14776 0.49951 0.44732 0.0
C655 C 0.126 0.48777 0.44459 0.0
H656 H 0.17614 0.49916 0.44933 0.0
C657 C 0.11615 0.46579 0.44249 0.0
H658 H 0.15588 0.51647 0.44927 0.0
C659 C 0.12784 0.45581 0.44358 0.0
C660 C 0.14962 0.46761 0.44606 0.0
H661 H 0.09942 0.45627 0.44119 0.0
H662 H 0.11979 0.43886 0.44133 0.0
C663 C 0.15941 0.48957 0.44783 0.0
C664 C 0.53631 0.65555 0.41676 0.0
C665 C 0.51491 0.64504 0.4012 0.0
H666 H 0.56289 0.68386 0.45676 0.0
C667 C 0.50388 0.6554 0.41667 0.0
H668 H 0.54522 0.64793 0.40678 0.0
C669 C 0.51375 0.67548 0.44738 0.0
C670 C 0.53511 0.68617 0.46258 0.0
H671 H 0.48738 0.64787 0.40622 0.0
H672 H 0.50452 0.68276 0.45782 0.0
C673 C 0.54634 0.67597 0.44698 0.0
C674 C 0.3458 0.8782 0.41349 0.0
C675 C 0.35693 0.86752 0.41327 0.0
H676 H 0.31601 0.87572 0.4216 0.0
C677 C 0.34607 0.84565 0.4245 0.0
H678 H 0.35371 0.89508 0.40609 0.0
C679 C 0.32464 0.83468 0.43451 0.0
C680 C 0.31341 0.84522 0.43344 0.0
H681 H 0.3541 0.83689 0.42554 0.0
H682 H 0.31684 0.8178 0.44167 0.0
C683 C 0.32423 0.86715 0.42366 0.0
C684 C 0.1315 0.22997 0.83984 0.0
C685 C 0.13765 0.25 0.80879 0.0
H686 H 0.1376 0.21212 0.92422 0.0
C687 C 0.15739 0.26682 0.82699 0.0
H688 H 0.11653 0.21663 0.82707 0.0
C689 C 0.16964 0.26406 0.8827 0.0
C690 C 0.16218 0.24449 0.92001 0.0
H691 H 0.16257 0.28242 0.80369 0.0
H692 H 0.18378 0.27763 0.90256 0.0
C693 C 0.14365 0.22727 0.89521 0.0
C694 C 0.77515 0.90089 0.00701 0.0
C695 C 0.75916 0.9043 0.03081 0.0
H696 H 0.78371 0.88245 0.93919 0.0
C697 C 0.73988 0.89355 0.99266 0.0
H698 H 0.7902 0.90899 0.03481 0.0
C699 C 0.73613 0.87826 0.93702 0.0
C700 C 0.75162 0.87357 0.91865 0.0
H701 H 0.72726 0.89596 0.00933 0.0
H702 H 0.72082 0.8694 0.91172 0.0
C703 C 0.77138 0.8856 0.95187 0.0
C704 C 0.09359 0.86742 0.90556 0.0
C705 C 0.08953 0.8475 0.92808 0.0
H706 H 0.11276 0.89501 0.8396 0.0
C707 C 0.09953 0.83836 0.88914 0.0
H708 H 0.08622 0.87477 0.93609 0.0
C709 C 0.11519 0.85012 0.83379 0.0
C710 C 0.12071 0.87096 0.81706 0.0
H711 H 0.09676 0.82304 0.90723 0.0
H712 H 0.12393 0.84349 0.80893 0.0
C713 C 0.10896 0.87902 0.85029 0.0
C714 C 0.25041 0.1513 0.71768 0.0
C715 C 0.23571 0.13044 0.73732 0.0
H716 H 0.25805 0.17724 0.63909 0.0
C717 C 0.21565 0.12157 0.70592 0.0
H718 H 0.26593 0.1586 0.74138 0.0
C719 C 0.21121 0.13213 0.64807 0.0
C720 C 0.22664 0.15185 0.62143 0.0
H721 H 0.20383 0.10564 0.7197 0.0
H722 H 0.19637 0.12403 0.6187 0.0
C723 C 0.24584 0.16204 0.65984 0.0
C724 C 0.87235 0.0978 0.49766 0.0
C725 C 0.85331 0.09528 0.47357 0.0
H726 H 0.89955 0.11546 0.56524 0.0
C727 C 0.84555 0.10683 0.5111 0.0
H728 H 0.87871 0.08908 0.47032 0.0
C729 C 0.85753 0.12201 0.5664 0.0
C730 C 0.87741 0.12581 0.58497 0.0
H731 H 0.8308 0.10511 0.49421 0.0
H732 H 0.8517 0.13148 0.59121 0.0
C733 C 0.88433 0.113 0.55239 0.0
C734 C 0.88218 0.72552 0.65014 0.0
C735 C 0.87813 0.74184 0.66369 0.0
H736 H 0.89917 0.71517 0.58025 0.0
C737 C 0.89109 0.76164 0.62889 0.0
H738 H 0.87248 0.71013 0.67642 0.0
C739 C 0.90633 0.7645 0.57524 0.0
C740 C 0.90896 0.74769 0.55579 0.0
H741 H 0.88844 0.77456 0.63752 0.0
H742 H 0.91476 0.77932 0.54349 0.0
C743 C 0.89761 0.72846 0.59619 0.0
C744 C 0.85745 0.74008 0.04734 0.0
C745 C 0.87217 0.75317 0.99068 0.0
H746 H 0.85202 0.72598 0.16225 0.0
C747 C 0.89334 0.76131 0.00635 0.0
H748 H 0.84103 0.73342 0.03679 0.0
C749 C 0.89964 0.75655 0.0777 0.0
C750 C 0.88487 0.74392 0.13503 0.0
H751 H 0.90502 0.77117 0.96318 0.0
H752 H 0.91603 0.76331 0.0891 0.0
C753 C 0.86374 0.7357 0.11894 0.0
C754 C 0.21752 0.1168 0.07877 0.0
C755 C 0.22611 0.10406 0.06404 0.0
H756 H 0.21439 0.13714 0.1596 0.0
C757 C 0.23843 0.10213 0.1223 0.0
H758 H 0.20828 0.11892 0.03445 0.0
C759 C 0.24168 0.11235 0.19448 0.0
C760 C 0.23329 0.12529 0.20872 0.0
H761 H 0.24544 0.09261 0.11224 0.0
H762 H 0.25088 0.11023 0.23904 0.0
C763 C 0.2213 0.12752 0.14988 0.0
C764 C 0.87499 0.1302 0.04681 0.0
C765 C 0.8588 0.10923 0.04853 0.0
H766 H 0.90033 0.1546 0.98053 0.0
C767 C 0.85614 0.09643 0.98391 0.0
H768 H 0.87744 0.14034 0.09619 0.0
C769 C 0.8697 0.10433 0.91932 0.0
C770 C 0.8858 0.12535 0.91724 0.0
H771 H 0.84394 0.08013 0.98424 0.0
H772 H 0.86731 0.09412 0.87024 0.0
C773 C 0.88816 0.13829 0.98109 0.0
C774 C 0.74522 0.86946 0.45556 0.0
C775 C 0.75017 0.89049 0.45436 0.0
H776 H 0.74567 0.84473 0.52153 0.0
C777 C 0.76022 0.9031 0.51949 0.0
H778 H 0.7376 0.85947 0.40576 0.0
C779 C 0.76558 0.89493 0.58413 0.0
C780 C 0.76045 0.87384 0.58574 0.0
H781 H 0.76447 0.91945 0.51954 0.0
H782 H 0.77332 0.90498 0.63367 0.0
C783 C 0.74998 0.8611 0.52132 0.0
C784 C 0.10312 0.86372 0.40151 0.0
C785 C 0.11771 0.8654 0.34536 0.0
H786 H 0.09801 0.87387 0.51284 0.0
C787 C 0.13893 0.87841 0.36115 0.0
H788 H 0.08668 0.8541 0.39038 0.0
C789 C 0.14543 0.88966 0.43119 0.0
C790 C 0.13086 0.88857 0.48619 0.0
H791 H 0.15052 0.88013 0.31862 0.0
H792 H 0.16188 0.89948 0.44167 0.0
C793 C 0.10963 0.87536 0.47088 0.0
C794 C 0.11106 0.2457 0.42662 0.0
C795 C 0.114 0.23411 0.48611 0.0
H796 H 0.11833 0.25807 0.30887 0.0
C797 C 0.12745 0.22638 0.47171 0.0
H798 H 0.10093 0.25199 0.43624 0.0
C799 C 0.13793 0.23039 0.3993 0.0
C800 C 0.13473 0.24176 0.33956 0.0
H801 H 0.13025 0.21768 0.51706 0.0
H802 H 0.14818 0.22426 0.3895 0.0
C803 C 0.12111 0.24927 0.35389 0.0
C804 C 0.83022 0.57908 0.27924 0.0
C805 C 0.82089 0.55984 0.32048 0.0
H806 H 0.82555 0.59893 0.1987 0.0
C807 C 0.80068 0.54436 0.30217 0.0
H808 H 0.8457 0.5914 0.29401 0.0
C809 C 0.78917 0.54867 0.24903 0.0
C810 C 0.79764 0.5686 0.21318 0.0
H811 H 0.79317 0.52954 0.33426 0.0
H812 H 0.77311 0.53683 0.24131 0.0
C813 C 0.81859 0.58347 0.22572 0.0
C814 C 0.39872 0.21384 0.2526 0.0
C815 C 0.41503 0.21044 0.23345 0.0
H816 H 0.38841 0.23023 0.3256 0.0
C817 C 0.43471 0.22355 0.2657 0.0
H818 H 0.38344 0.20413 0.22806 0.0
C819 C 0.43763 0.23858 0.32087 0.0
C820 C 0.42088 0.24067 0.34562 0.0
H821 H 0.44767 0.22145 0.25219 0.0
H822 H 0.4527 0.24754 0.34797 0.0
C823 C 0.40162 0.22886 0.30824 0.0
C824 C 0.77035 0.18166 0.12782 0.0
C825 C 0.7766 0.20261 0.10917 0.0
H826 H 0.75128 0.1552 0.20308 0.0
C827 C 0.76518 0.21133 0.13983 0.0
H828 H 0.7788 0.17449 0.10494 0.0
C829 C 0.74955 0.20035 0.19508 0.0
C830 C 0.74493 0.1804 0.22028 0.0
H831 H 0.76944 0.22737 0.12728 0.0
H832 H 0.74254 0.20828 0.22396 0.0
C833 C 0.75446 0.17053 0.18314 0.0
C834 C 0.90198 0.473 0.86987 0.0
C835 C 0.91892 0.4923 0.84751 0.0
H836 H 0.89133 0.44481 0.93501 0.0
C837 C 0.93791 0.49982 0.88643 0.0
H838 H 0.88732 0.46685 0.83949 0.0
C839 C 0.94042 0.48701 0.94153 0.0
C840 C 0.9239 0.46668 0.95787 0.0
H841 H 0.95131 0.51457 0.86843 0.0
H842 H 0.95559 0.49235 0.96639 0.0
C843 C 0.90441 0.46032 0.92457 0.0
C844 C 0.54554 0.43625 0.93475 0.0
C845 C 0.53871 0.44939 0.96487 0.0
H846 H 0.54012 0.41213 0.85377 0.0
C847 C 0.51897 0.44567 0.94444 0.0
H848 H 0.56061 0.43855 0.94956 0.0
C849 C 0.50714 0.43039 0.88916 0.0
C850 C 0.51496 0.4187 0.8532 0.0
H851 H 0.51318 0.45537 0.96739 0.0
H852 H 0.49259 0.42887 0.87051 0.0
C853 C 0.53376 0.42102 0.87967 0.0
C854 C 0.57162 0.07403 0.91611 0.0
C855 C 0.58323 0.09371 0.87896 0.0
H856 H 0.5462 0.05489 0.9941 0.0
C857 C 0.58091 0.11041 0.9031 0.0
H858 H 0.57294 0.06083 0.89671 0.0
C859 C 0.5656 0.10704 0.95739 0.0
C860 C 0.55228 0.08685 0.98841 0.0
H861 H 0.58956 0.12562 0.87412 0.0
H862 H 0.5632 0.11996 0.96933 0.0
C863 C 0.55616 0.07059 0.97088 0.0
C864 C 0.56482 0.10921 0.32883 0.0
C865 C 0.54367 0.10122 0.31367 0.0
H866 H 0.58759 0.11181 0.41216 0.0
C867 C 0.52906 0.08964 0.37297 0.0
H868 H 0.57638 0.11793 0.28369 0.0
C869 C 0.53547 0.08637 0.44638 0.0
C870 C 0.55658 0.09412 0.46137 0.0
H871 H 0.51266 0.08318 0.3627 0.0
H872 H 0.52386 0.07759 0.49134 0.0
C873 C 0.57121 0.10547 0.4018 0.0
C874 C 0.92281 0.44335 0.34402 0.0
C875 C 0.91099 0.44653 0.28704 0.0
H876 H 0.93643 0.45098 0.45862 0.0
C877 C 0.90464 0.46113 0.30181 0.0
H878 H 0.92811 0.43236 0.334 0.0
C879 C 0.91 0.47233 0.37232 0.0
C880 C 0.92142 0.46875 0.4299 0.0
H881 H 0.89583 0.46418 0.25833 0.0
H882 H 0.90466 0.48326 0.38285 0.0
C883 C 0.92773 0.45414 0.41502 0.0
C884 C 0.52098 0.44746 0.37914 0.0
C885 C 0.52705 0.43865 0.43959 0.0
H886 H 0.52842 0.46274 0.26573 0.0
C887 C 0.5458 0.43873 0.43242 0.0
H888 H 0.50655 0.44752 0.38359 0.0
C889 C 0.55793 0.44673 0.36401 0.0
C890 C 0.55182 0.45549 0.30339 0.0
H891 H 0.55064 0.43182 0.47829 0.0
H892 H 0.57198 0.44601 0.35829 0.0
C893 C 0.53349 0.45619 0.31216 0.0
C894 C 0.4098 0.20485 0.76922 0.0
C895 C 0.41418 0.2257 0.7676 0.0
H896 H 0.41083 0.18057 0.83641 0.0
C897 C 0.42402 0.23851 0.83251 0.0
H898 H 0.40233 0.19471 0.71965 0.0
C899 C 0.4296 0.23072 0.89756 0.0
C900 C 0.42491 0.20978 0.89999 0.0
H901 H 0.42781 0.25473 0.83233 0.0
H902 H 0.4371 0.24094 0.94694 0.0
C903 C 0.41478 0.19684 0.83559 0.0
C904 C 0.76221 0.20147 0.69257 0.0
C905 C 0.77662 0.20377 0.63443 0.0
H906 H 0.75746 0.21007 0.80762 0.0
C907 C 0.79788 0.21655 0.64969 0.0
H908 H 0.74573 0.19197 0.682 0.0
C909 C 0.80461 0.22672 0.7219 0.0
C910 C 0.79019 0.22483 0.7793 0.0
H911 H 0.80932 0.21869 0.60569 0.0
H912 H 0.82109 0.23625 0.73248 0.0
C913 C 0.76892 0.21211 0.76391 0.0
C914 C 0.77747 0.56909 0.82659 0.0
C915 C 0.77895 0.55652 0.88595 0.0
H916 H 0.78573 0.58144 0.70905 0.0
C917 C 0.79125 0.5474 0.87223 0.0
H918 H 0.76825 0.57644 0.8356 0.0
C919 C 0.80181 0.5508 0.80025 0.0
C920 C 0.79983 0.56296 0.74039 0.0
H921 H 0.79293 0.5379 0.91748 0.0
H922 H 0.81094 0.54339 0.79047 0.0
C923 C 0.78758 0.57206 0.75438 0.0
C924 C 0.48764 0.93158 0.53621 0.0
C925 C 0.46773 0.91497 0.51843 0.0
H926 H 0.51423 0.94193 0.61047 0.0
C927 C 0.4614 0.89486 0.54917 0.0
H928 H 0.49296 0.94723 0.51324 0.0
C929 C 0.47361 0.89185 0.60327 0.0
C930 C 0.49236 0.90884 0.62759 0.0
H931 H 0.44628 0.88168 0.53718 0.0
H932 H 0.46743 0.87664 0.63195 0.0
C933 C 0.49993 0.92851 0.59087 0.0
C934 C 0.09132 0.56298 0.71844 0.0
C935 C 0.08953 0.57959 0.68688 0.0
H936 H 0.08692 0.53243 0.69833 0.0
C937 C 0.07832 0.5766 0.61684 0.0
H938 H 0.1001 0.56502 0.77174 0.0
C939 C 0.07034 0.55779 0.57579 0.0
C940 C 0.07408 0.54207 0.60322 0.0
H941 H 0.07691 0.58932 0.59124 0.0
H942 H 0.06288 0.55629 0.51954 0.0
C943 C 0.08393 0.54446 0.67616 0.0
C944 C 0.4176 0.53036 0.55984 0.0
C945 C 0.41422 0.51096 0.5867 0.0
H946 H 0.43612 0.55732 0.48992 0.0
C947 C 0.42439 0.50173 0.54961 0.0
H948 H 0.41001 0.53776 0.58834 0.0
C949 C 0.43979 0.51313 0.49275 0.0
C950 C 0.44496 0.53374 0.47297 0.0
H951 H 0.42214 0.48682 0.57068 0.0
H952 H 0.4488 0.50658 0.46991 0.0
C953 C 0.43277 0.54162 0.50338 0.0
C954 C 0.55103 0.79972 0.29553 0.0
C955 C 0.56671 0.81941 0.26985 0.0
H956 H 0.54318 0.77266 0.36431 0.0
C957 C 0.58609 0.82888 0.30699 0.0
H958 H 0.5361 0.7921 0.26667 0.0
C959 C 0.59045 0.81754 0.36286 0.0
C960 C 0.57534 0.79678 0.38203 0.0
H961 H 0.59849 0.84403 0.28673 0.0
H962 H 0.60602 0.82434 0.38567 0.0
C963 C 0.55526 0.78853 0.35139 0.0
C964 C 0.18745 0.77567 0.26107 0.0
C965 C 0.2077 0.78081 0.28031 0.0
H966 H 0.16116 0.75748 0.18828 0.0
C967 C 0.2158 0.7689 0.24866 0.0
H968 H 0.18071 0.78441 0.28523 0.0
C969 C 0.20463 0.75344 0.19359 0.0
C970 C 0.18518 0.74965 0.16863 0.0
H971 H 0.23132 0.77234 0.26242 0.0
H972 H 0.21187 0.7455 0.16667 0.0
C973 C 0.17623 0.76016 0.2058 0.0
C974 C 0.24381 0.4492 0.21765 0.0
C975 C 0.24771 0.43311 0.19921 0.0
H976 H 0.22457 0.45786 0.27897 0.0
C977 C 0.23713 0.41389 0.2401 0.0
H978 H 0.25163 0.46402 0.1856 0.0
C979 C 0.22127 0.41013 0.29327 0.0
C980 C 0.21597 0.42563 0.3058 0.0
H981 H 0.23964 0.40113 0.22508 0.0
H982 H 0.21223 0.39468 0.31991 0.0
C983 C 0.22814 0.44554 0.27073 0.0
C984 C 0.20192 0.41914 0.76294 0.0
C985 C 0.22319 0.42857 0.77881 0.0
H986 H 0.17858 0.41499 0.68038 0.0
C987 C 0.23757 0.44141 0.72074 0.0
H988 H 0.1905 0.40921 0.8068 0.0
C989 C 0.23071 0.44519 0.64881 0.0
C990 C 0.20938 0.43583 0.63332 0.0
H991 H 0.25404 0.44906 0.73194 0.0
H992 H 0.24208 0.45527 0.60511 0.0
C993 C 0.19509 0.42254 0.69074 0.0
C994 C 0.58299 0.78273 0.84008 0.0
C995 C 0.5749 0.79588 0.85538 0.0
H996 H 0.58575 0.76243 0.75778 0.0
C997 C 0.5627 0.7982 0.79771 0.0
H998 H 0.59234 0.78053 0.88371 0.0
C999 C 0.55831 0.78725 0.72691 0.0
C1000 C 0.56645 0.77415 0.71148 0.0
H1001 H 0.556 0.80797 0.8083 0.0
H1002 H 0.54884 0.78935 0.6836 0.0
C1003 C 0.57908 0.77223 0.76837 0.0
C1004 C 0.18686 0.77353 0.69037 0.0
C1005 C 0.19383 0.76588 0.75186 0.0
H1006 H 0.19372 0.78883 0.57697 0.0
C1007 C 0.21342 0.76769 0.74583 0.0
H1008 H 0.17182 0.77231 0.69394 0.0
C1009 C 0.22562 0.77645 0.67805 0.0
C1010 C 0.21872 0.78427 0.61685 0.0
H1011 H 0.21902 0.76173 0.79255 0.0
H1012 H 0.24044 0.77722 0.67358 0.0
C1013 C 0.19939 0.78303 0.62395 0.0
C1014 C 0.10962 0.56097 0.12502 0.0
C1015 C 0.09069 0.55793 0.09614 0.0
H1016 H 0.12572 0.55704 0.22289 0.0
C1017 C 0.07286 0.54712 0.14363 0.0
H1018 H 0.12367 0.56956 0.0901 0.0
C1019 C 0.07394 0.53958 0.21863 0.0
C1020 C 0.09302 0.54338 0.24904 0.0
H1021 H 0.05812 0.54473 0.12308 0.0
H1022 H 0.05993 0.53136 0.25398 0.0
C1023 C 0.11085 0.55405 0.20128 0.0
C1024 C 0.46684 0.55269 0.01412 0.0
C1025 C 0.44565 0.53914 -0.0003 0.0
H1026 H 0.48988 0.57265 0.09705 0.0
C1027 C 0.43117 0.53599 0.05883 0.0
H1028 H 0.47833 0.55547 0.96935 0.0
C1029 C 0.43772 0.54639 0.13061 0.0
C1030 C 0.45892 0.55973 0.14551 0.0
H1031 H 0.41473 0.52586 0.04895 0.0
H1032 H 0.42619 0.54358 0.17524 0.0
C1033 C 0.47344 0.56262 0.08684 0.0
C1034 C 0.46874 0.89623 0.10551 0.0
C1035 C 0.46522 0.9074 0.04589 0.0
H1036 H 0.46156 0.88372 0.22359 0.0
C1037 C 0.45156 0.91481 0.06078 0.0
H1038 H 0.47902 0.89015 0.09524 0.0
C1039 C 0.44179 0.91135 0.13409 0.0
C1040 C 0.44505 0.89994 0.19344 0.0
H1041 H 0.44854 0.92344 0.0158 0.0
H1042 H 0.43159 0.91754 0.14421 0.0
C1043 C 0.45854 0.89231 0.17842 0.0
C1044 C 0.18722 0.34737 0.06077 0.0
C1045 C 0.20886 0.3592 0.05169 0.0
H1046 H 0.16056 0.31714 0.08097 0.0
C1047 C 0.22038 0.349 0.05868 0.0
H1048 H 0.17787 0.35472 0.05587 0.0
C1049 C 0.21044 0.32741 0.07437 0.0
C1050 C 0.18876 0.31556 0.08214 0.0
H1051 H 0.2371 0.35772 0.05267 0.0
H1052 H 0.21969 0.31995 0.07882 0.0
C1053 C 0.17729 0.3258 0.07521 0.0
C1054 C 0.67087 0.86118 0.20956 0.0
C1055 C 0.67404 0.87902 0.25025 0.0
H1056 H 0.65015 0.83497 0.13898 0.0
C1057 C 0.65885 0.88481 0.24686 0.0
H1058 H 0.68248 0.85653 0.21083 0.0
C1059 C 0.64086 0.87306 0.20288 0.0
C1060 C 0.63748 0.85496 0.16352 0.0
H1061 H 0.66111 0.89868 0.27674 0.0
H1062 H 0.62927 0.87774 0.20177 0.0
C1063 C 0.65254 0.849 0.1679 0.0
C1064 C 0.11287 0.77861 0.94769 0.0
C1065 C 0.13329 0.78262 0.94997 0.0
H1066 H 0.09136 0.78765 0.98703 0.0
C1067 C 0.14806 0.79941 0.9948 0.0
H1068 H 0.10117 0.76559 0.91439 0.0
C1069 C 0.14257 0.81235 0.03503 0.0
C1070 C 0.12203 0.80808 0.03372 0.0
H1071 H 0.16389 0.80267 -0.00228 0.0
H1072 H 0.15428 0.82557 0.06746 0.0
C1073 C 0.10722 0.79102 0.99018 0.0
C1074 C 0.31194 0.20051 0.46908 0.0
C1075 C 0.29689 0.18282 0.51076 0.0
H1076 H 0.34256 0.22738 0.46984 0.0
C1077 C 0.30136 0.17878 0.58743 0.0
H1078 H 0.30884 0.20405 0.41019 0.0
C1079 C 0.32028 0.19255 0.62272 0.0
C1080 C 0.33533 0.21017 0.58086 0.0
H1081 H 0.28996 0.16533 0.62118 0.0
H1082 H 0.32324 0.1893 0.68228 0.0
C1083 C 0.33114 0.21386 0.5033 0.0
C1084 C 0.76594 0.12692 0.28954 0.0
C1085 C 0.78043 0.14518 0.3285 0.0
H1086 H 0.76097 0.10102 0.21805 0.0
C1087 C 0.80147 0.1512 0.32574 0.0
H1088 H 0.74966 0.12217 0.28948 0.0
C1089 C 0.80785 0.1389 0.28616 0.0
C1090 C 0.7934 0.12087 0.24598 0.0
H1091 H 0.81294 0.16535 0.35445 0.0
H1092 H 0.82412 0.1436 0.28616 0.0
C1093 C 0.77241 0.11503 0.24761 0.0
C1094 C 0.84713 0.66229 0.42492 0.0
C1095 C 0.86874 0.67393 0.41446 0.0
H1096 H 0.82054 0.63251 0.45253 0.0
C1097 C 0.88025 0.66384 0.42539 0.0
H1098 H 0.8378 0.66959 0.41705 0.0
C1099 C 0.87038 0.64262 0.44709 0.0
C1100 C 0.84875 0.63097 0.45714 0.0
H1101 H 0.89695 0.67242 0.41846 0.0
H1102 H 0.87967 0.63528 0.45495 0.0
C1103 C 0.83724 0.64103 0.4454 0.0
C1104 C 0.77985 0.67708 0.96046 0.0
C1105 C 0.78037 0.67341 0.87946 0.0
H1106 H 0.77317 0.66395 0.0774 0.0
C1107 C 0.77171 0.65268 0.85382 0.0
H1108 H 0.78629 0.69287 0.98214 0.0
C1109 C 0.7642 0.63613 0.90842 0.0
C1110 C 0.76523 0.63996 0.98983 0.0
H1111 H 0.77167 0.64929 0.79183 0.0
H1112 H 0.75853 0.62044 0.88681 0.0
C1113 C 0.77236 0.6605 0.01516 0.0
C1114 C 0.32633 0.10326 0.04482 0.0
C1115 C 0.34643 0.11394 0.01253 0.0
H1116 H 0.29384 0.08859 0.02316 0.0
C1117 C 0.34884 0.11565 0.92997 0.0
H1118 H 0.32392 0.10149 0.10811 0.0
C1119 C 0.33156 0.10833 0.88109 0.0
C1120 C 0.31154 0.09909 0.91382 0.0
H1121 H 0.36412 0.12369 0.9031 0.0
H1122 H 0.33399 0.11086 0.818 0.0
C1123 C 0.30907 0.09588 0.996 0.0
C1124 C 0.90382 0.21828 0.89664 0.0
C1125 C 0.9025 0.22001 0.81436 0.0
H1126 H 0.89422 0.22262 0.01042 0.0
C1127 C 0.89226 0.23012 0.78432 0.0
H1128 H 0.91166 0.21064 0.92177 0.0
C1129 C 0.88231 0.23702 0.83515 0.0
C1130 C 0.8823 0.23387 0.91716 0.0
H1131 H 0.8911 0.23185 0.72131 0.0
H1132 H 0.8738 0.24392 0.80972 0.0
C1133 C 0.89377 0.22511 0.94754 0.0
C1134 C 0.66066 0.76772 0.71065 0.0
C1135 C 0.68122 0.77879 0.68311 0.0
H1136 H 0.62858 0.7531 0.68144 0.0
C1137 C 0.68496 0.78143 0.60125 0.0
H1138 H 0.65725 0.76527 0.77327 0.0
C1139 C 0.6685 0.77457 0.54845 0.0
C1140 C 0.64799 0.76481 0.57643 0.0
H1141 H 0.70063 0.7898 0.57797 0.0
H1142 H 0.67193 0.77778 0.48606 0.0
C1143 C 0.64421 0.76073 0.65786 0.0
C1144 C 0.22832 0.88704 0.64028 0.0
C1145 C 0.21961 0.89882 0.61217 0.0
H1146 H 0.24201 0.86863 0.61132 0.0
C1147 C 0.22031 0.90297 0.53065 0.0
H1148 H 0.22818 0.88369 0.70274 0.0
C1149 C 0.22812 0.89419 0.47797 0.0
C1150 C 0.23551 0.88121 0.5058 0.0
H1151 H 0.21379 0.91206 0.50701 0.0
H1152 H 0.22749 0.89683 0.4153 0.0
C1153 C 0.23625 0.87839 0.58772 0.0
C1154 C 0.11569 0.35464 0.59305 0.0
C1155 C 0.11577 0.3525 0.51074 0.0
H1156 H 0.10898 0.33928 0.70595 0.0
C1157 C 0.10616 0.3323 0.479 0.0
H1158 H 0.12277 0.36999 0.6194 0.0
C1159 C 0.09825 0.31469 0.5287 0.0
C1160 C 0.09979 0.31695 0.61108 0.0
H1161 H 0.10577 0.3301 0.41585 0.0
H1162 H 0.09194 0.2994 0.50237 0.0
C1163 C 0.10777 0.33702 0.64276 0.0
C1164 C 0.00909 0.52278 0.85105 0.0
C1165 C 0.02462 0.5426 0.82473 0.0
H1166 H 0.97935 0.49619 0.83003 0.0
C1167 C 0.02256 0.55022 0.75094 0.0
H1168 H 0.01036 0.51662 0.90779 0.0
C1169 C 0.0044 0.53878 0.70696 0.0
C1170 C 0.98842 0.51927 0.73506 0.0
H1171 H 0.03436 0.56558 0.7298 0.0
H1172 H 0.00255 0.5455 0.6526 0.0
C1173 C 0.99137 0.51108 0.80613 0.0
C1174 C 0.46411 0.48753 0.62669 0.0
C1175 C 0.45514 0.4828 0.70264 0.0
H1176 H 0.47575 0.47772 0.53052 0.0
C1177 C 0.45253 0.46489 0.74264 0.0
H1178 H 0.46617 0.50116 0.59416 0.0
C1179 C 0.45858 0.45184 0.70695 0.0
C1180 C 0.46663 0.45607 0.62961 0.0
H1181 H 0.44556 0.46084 0.80096 0.0
H1182 H 0.45624 0.43798 0.73869 0.0
C1183 C 0.46945 0.47408 0.58994 0.0
C1184 C 0.54062 0.99065 0.76477 0.0
C1185 C 0.519 0.97957 0.77558 0.0
H1186 H 0.56766 0.02004 0.73566 0.0
C1187 C 0.50802 0.99023 0.76526 0.0
H1188 H 0.54949 0.98283 0.77145 0.0
C1189 C 0.51842 0.01153 0.7452 0.0
C1190 C 0.54 0.02258 0.73357 0.0
H1191 H 0.49135 0.98211 0.77296 0.0
H1192 H 0.50952 0.01932 0.73838 0.0
C1193 C 0.55099 0.01191 0.74333 0.0
C1194 C 0.44017 0.99609 0.17184 0.0
C1195 C 0.45107 0.01681 0.19856 0.0
H1196 H 0.42445 0.96352 0.20305 0.0
C1197 C 0.45202 0.0204 0.28017 0.0
H1198 H 0.43897 0.99279 0.10939 0.0
C1199 C 0.44376 0.00362 0.33398 0.0
C1200 C 0.43431 0.98291 0.30728 0.0
H1201 H 0.46014 0.03619 0.30279 0.0
H1202 H 0.44575 0.00693 0.39644 0.0
C1203 C 0.43182 0.9793 0.22566 0.0
C1204 C 0.02124 0.45341 0.24842 0.0
C1205 C 0.0138 0.4484 0.32657 0.0
H1206 H 0.01366 0.45137 0.12592 0.0
C1207 C 0.99252 0.43472 0.33963 0.0
H1208 H 0.03757 0.46379 0.2361 0.0
C1209 C 0.97882 0.42741 0.27614 0.0
C1210 C 0.98613 0.43383 0.19842 0.0
H1211 H 0.98631 0.43042 0.39901 0.0
H1212 H 0.96239 0.41777 0.28849 0.0
C1213 C 0.00754 0.4463 0.18508 0.0
C1214 C 0.56803 0.54688 0.25982 0.0
C1215 C 0.56607 0.54788 0.17758 0.0
H1216 H 0.55997 0.55294 0.37369 0.0
C1217 C 0.55637 0.55852 0.1473 0.0
H1218 H 0.57548 0.53887 0.28519 0.0
C1219 C 0.5476 0.56673 0.19813 0.0
C1220 C 0.54817 0.5643 0.28037 0.0
H1221 H 0.55474 0.55972 0.08427 0.0
H1222 H 0.53941 0.57397 0.17272 0.0
C1223 C 0.55909 0.55492 0.31067 0.0
loop_
_geom_bond_atom_site_label_1
_geom_bond_atom_site_label_2
_geom_bond_distance
_geom_bond_site_symmetry_2
_ccdc_geom_bond_type
Mg0 O1 2.028 . S
Mg0 O7 1.986 . S
Mg0 O9 2.114 . S
Mg0 O10 2.251 . S
Mg0 O13 2.010 . S
O1 Mg0 2.028 . S
O1 C4 1.250 . S
O2 Mg3 2.028 . S
O2 C4 1.248 . S
Mg3 O2 2.028 . S
Mg3 O8 2.032 . S
Mg3 O10 2.079 . S
C4 O1 1.250 . S
C4 O2 1.248 . S
C5 O6 1.264 . S
C5 O13 1.249 . S
O6 C5 1.264 . S
O7 Mg0 1.986 . S
O7 C11 1.246 . S
O8 Mg3 2.032 . S
O8 C11 1.259 . S
O9 Mg0 2.114 . S
O9 C12 1.252 . S
O10 Mg0 2.251 . S
O10 Mg3 2.079 . S
O10 C12 1.273 . S
C11 O7 1.246 . S
C11 O8 1.259 . S
C12 O9 1.252 . S
C12 O10 1.273 . S
O13 Mg0 2.010 . S
O13 C5 1.249 . S
Mg14 O15 2.028 . S
Mg14 O21 1.986 . S
Mg14 O23 2.114 . S
Mg14 O24 2.251 . S
Mg14 O27 2.010 . S
O15 Mg14 2.028 . S
O15 C18 1.250 . S
O16 Mg17 2.028 . S
O16 C18 1.248 . S
Mg17 O16 2.028 . S
Mg17 O22 2.032 . S
Mg17 O24 2.079 . S
C18 O15 1.250 . S
C18 O16 1.248 . S
C19 O20 1.264 . S
C19 O27 1.249 . S
O20 C19 1.264 . S
O21 Mg14 1.986 . S
O21 C25 1.246 . S
O22 Mg17 2.032 . S
O22 C25 1.259 . S
O23 Mg14 2.114 . S
O23 C26 1.252 . S
O24 Mg14 2.251 . S
O24 Mg17 2.079 . S
O24 C26 1.273 . S
C25 O21 1.246 . S
C25 O22 1.259 . S
C26 O23 1.252 . S
C26 O24 1.273 . S
O27 Mg14 2.010 . S
O27 C19 1.249 . S
Mg28 O29 2.028 . S
Mg28 O35 1.986 . S
Mg28 O37 2.114 . S
Mg28 O38 2.251 . S
Mg28 O41 2.010 . S
O29 Mg28 2.028 . S
O29 C32 1.250 . S
O30 Mg31 2.028 . S
O30 C32 1.248 . S
Mg31 O30 2.028 . S
Mg31 O36 2.032 . S
Mg31 O38 2.079 . S
C32 O29 1.250 . S
C32 O30 1.248 . S
C33 O34 1.264 . S
C33 O41 1.249 . S
O34 C33 1.264 . S
O35 Mg28 1.986 . S
O35 C39 1.246 . S
O36 Mg31 2.032 . S
O36 C39 1.259 . S
O37 Mg28 2.114 . S
O37 C40 1.252 . S
O38 Mg28 2.251 . S
O38 Mg31 2.079 . S
O38 C40 1.273 . S
C39 O35 1.246 . S
C39 O36 1.259 . S
C40 O37 1.252 . S
C40 O38 1.273 . S
O41 Mg28 2.010 . S
O41 C33 1.249 . S
Mg42 O43 2.028 . S
Mg42 O49 1.986 . S
Mg42 O51 2.114 . S
Mg42 O52 2.251 . S
Mg42 O55 2.010 . S
O43 Mg42 2.028 . S
O43 C46 1.250 . S
O44 Mg45 2.028 . S
O44 C46 1.248 . S
Mg45 O44 2.028 . S
Mg45 O50 2.032 . S
Mg45 O52 2.079 . S
C46 O43 1.250 . S
C46 O44 1.248 . S
C47 O48 1.264 . S
C47 O55 1.249 . S
O48 C47 1.264 . S
O49 Mg42 1.986 . S
O49 C53 1.246 . S
O50 Mg45 2.032 . S
O50 C53 1.259 . S
O51 Mg42 2.114 . S
O51 C54 1.252 . S
O52 Mg42 2.251 . S
O52 Mg45 2.079 . S
O52 C54 1.273 . S
C53 O49 1.246 . S
C53 O50 1.259 . S
C54 O51 1.252 . S
C54 O52 1.273 . S
O55 Mg42 2.010 . S
O55 C47 1.249 . S
Mg56 O57 2.028 . S
Mg56 O63 1.986 . S
Mg56 O65 2.114 . S
Mg56 O66 2.251 . S
Mg56 O69 2.010 . S
O57 Mg56 2.028 . S
O57 C60 1.250 . S
O58 Mg59 2.028 . S
O58 C60 1.248 . S
Mg59 O58 2.028 . S
Mg59 O64 2.032 . S
Mg59 O66 2.079 . S
C60 O57 1.250 . S
C60 O58 1.248 . S
C61 O62 1.264 . S
C61 O69 1.249 . S
O62 C61 1.264 . S
O63 Mg56 1.986 . S
O63 C67 1.246 . S
O64 Mg59 2.032 . S
O64 C67 1.259 . S
O65 Mg56 2.114 . S
O65 C68 1.252 . S
O66 Mg56 2.251 . S
O66 Mg59 2.079 . S
O66 C68 1.273 . S
C67 O63 1.246 . S
C67 O64 1.259 . S
C68 O65 1.252 . S
C68 O66 1.273 . S
O69 Mg56 2.010 . S
O69 C61 1.249 . S
Mg70 O71 2.028 . S
Mg70 O77 1.986 . S
Mg70 O79 2.114 . S
Mg70 O80 2.251 . S
Mg70 O83 2.010 . S
O71 Mg70 2.028 . S
O71 C74 1.250 . S
O72 Mg73 2.028 . S
O72 C74 1.248 . S
Mg73 O72 2.028 . S
Mg73 O78 2.032 . S
Mg73 O80 2.079 . S
C74 O71 1.250 . S
C74 O72 1.248 . S
C75 O76 1.264 . S
C75 O83 1.249 . S
O76 C75 1.264 . S
O77 Mg70 1.986 . S
O77 C81 1.246 . S
O78 Mg73 2.032 . S
O78 C81 1.259 . S
O79 Mg70 2.114 . S
O79 C82 1.252 . S
O80 Mg70 2.251 . S
O80 Mg73 2.079 . S
O80 C82 1.273 . S
C81 O77 1.246 . S
C81 O78 1.259 . S
C82 O79 1.252 . S
C82 O80 1.273 . S
O83 Mg70 2.010 . S
O83 C75 1.249 . S
Mg84 O85 2.028 . S
Mg84 O91 1.986 . S
Mg84 O93 2.114 . S
Mg84 O94 2.251 . S
Mg84 O97 2.010 . S
O85 Mg84 2.028 . S
O85 C88 1.250 . S
O86 Mg87 2.028 . S
O86 C88 1.248 . S
Mg87 O86 2.028 . S
Mg87 O92 2.032 . S
Mg87 O94 2.079 . S
C88 O85 1.250 . S
C88 O86 1.248 . S
C89 O90 1.264 . S
C89 O97 1.249 . S
O90 C89 1.264 . S
O91 Mg84 1.986 . S
O91 C95 1.246 . S
O92 Mg87 2.032 . S
O92 C95 1.259 . S
O93 Mg84 2.114 . S
O93 C96 1.252 . S
O94 Mg84 2.251 . S
O94 Mg87 2.079 . S
O94 C96 1.273 . S
C95 O91 1.246 . S
C95 O92 1.259 . S
C96 O93 1.252 . S
C96 O94 1.273 . S
O97 Mg84 2.010 . S
O97 C89 1.249 . S
Mg98 O99 2.028 . S
Mg98 O105 1.986 . S
Mg98 O107 2.114 . S
Mg98 O108 2.251 . S
Mg98 O111 2.010 . S
O99 Mg98 2.028 . S
O99 C102 1.250 . S
O100 Mg101 2.028 . S
O100 C102 1.248 . S
Mg101 O100 2.028 . S
Mg101 O106 2.032 . S
Mg101 O108 2.079 . S
C102 O99 1.250 . S
C102 O100 1.248 . S
C103 O104 1.264 . S
C103 O111 1.249 . S
O104 C103 1.264 . S
O105 Mg98 1.986 . S
O105 C109 1.246 . S
O106 Mg101 2.032 . S
O106 C109 1.259 . S
O107 Mg98 2.114 . S
O107 C110 1.252 . S
O108 Mg98 2.251 . S
O108 Mg101 2.079 . S
O108 C110 1.273 . S
C109 O105 1.246 . S
C109 O106 1.259 . S
C110 O107 1.252 . S
C110 O108 1.273 . S
O111 Mg98 2.010 . S
O111 C103 1.249 . S
Mg112 O113 2.028 . S
Mg112 O119 1.986 . S
Mg112 O121 2.114 . S
Mg112 O122 2.251 . S
Mg112 O125 2.010 . S
O113 Mg112 2.028 . S
O113 C116 1.250 . S
O114 Mg115 2.028 . S
O114 C116 1.248 . S
Mg115 O114 2.028 . S
Mg115 O120 2.032 . S
Mg115 O122 2.079 . S
C116 O113 1.250 . S
C116 O114 1.248 . S
C117 O118 1.264 . S
C117 O125 1.249 . S
O118 C117 1.264 . S
O119 Mg112 1.986 . S
O119 C123 1.246 . S
O120 Mg115 2.032 . S
O120 C123 1.259 . S
O121 Mg112 2.114 . S
O121 C124 1.252 . S
O122 Mg112 2.251 . S
O122 Mg115 2.079 . S
O122 C124 1.273 . S
C123 O119 1.246 . S
C123 O120 1.259 . S
C124 O121 1.252 . S
C124 O122 1.273 . S
O125 Mg112 2.010 . S
O125 C117 1.249 . S
Mg126 O127 2.028 . S
Mg126 O133 1.986 . S
Mg126 O135 2.114 . S
Mg126 O136 2.251 . S
Mg126 O139 2.010 . S
O127 Mg126 2.028 . S
O127 C130 1.250 . S
O128 Mg129 2.028 . S
O128 C130 1.248 . S
Mg129 O128 2.028 . S
Mg129 O134 2.032 . S
Mg129 O136 2.079 . S
C130 O127 1.250 . S
C130 O128 1.248 . S
C131 O132 1.264 . S
C131 O139 1.249 . S
O132 C131 1.264 . S
O133 Mg126 1.986 . S
O133 C137 1.246 . S
O134 Mg129 2.032 . S
O134 C137 1.259 . S
O135 Mg126 2.114 . S
O135 C138 1.252 . S
O136 Mg126 2.251 . S
O136 Mg129 2.079 . S
O136 C138 1.273 . S
C137 O133 1.246 . S
C137 O134 1.259 . S
C138 O135 1.252 . S
C138 O136 1.273 . S
O139 Mg126 2.010 . S
O139 C131 1.249 . S
Mg140 O141 2.028 . S
Mg140 O147 1.986 . S
Mg140 O149 2.114 . S
Mg140 O150 2.251 . S
Mg140 O153 2.010 . S
O141 Mg140 2.028 . S
O141 C144 1.250 . S
O142 Mg143 2.028 . S
O142 C144 1.248 . S
Mg143 O142 2.028 . S
Mg143 O148 2.032 . S
Mg143 O150 2.079 . S
C144 O141 1.250 . S
C144 O142 1.248 . S
C145 O146 1.264 . S
C145 O153 1.249 . S
O146 C145 1.264 . S
O147 Mg140 1.986 . S
O147 C151 1.246 . S
O148 Mg143 2.032 . S
O148 C151 1.259 . S
O149 Mg140 2.114 . S
O149 C152 1.252 . S
O150 Mg140 2.251 . S
O150 Mg143 2.079 . S
O150 C152 1.273 . S
C151 O147 1.246 . S
C151 O148 1.259 . S
C152 O149 1.252 . S
C152 O150 1.273 . S
O153 Mg140 2.010 . S
O153 C145 1.249 . S
Mg154 O155 2.028 . S
Mg154 O161 1.986 . S
Mg154 O163 2.114 . S
Mg154 O164 2.251 . S
Mg154 O167 2.010 . S
O155 Mg154 2.028 . S
O155 C158 1.250 . S
O156 Mg157 2.028 . S
O156 C158 1.248 . S
Mg157 O156 2.028 . S
Mg157 O162 2.032 . S
Mg157 O164 2.079 . S
C158 O155 1.250 . S
C158 O156 1.248 . S
C159 O160 1.264 . S
C159 O167 1.249 . S
O160 C159 1.264 . S
O161 Mg154 1.986 . S
O161 C165 1.246 . S
O162 Mg157 2.032 . S
O162 C165 1.259 . S
O163 Mg154 2.114 . S
O163 C166 1.252 . S
O164 Mg154 2.251 . S
O164 Mg157 2.079 . S
O164 C166 1.273 . S
C165 O161 1.246 . S
C165 O162 1.259 . S
C166 O163 1.252 . S
C166 O164 1.273 . S
O167 Mg154 2.010 . S
O167 C159 1.249 . S
Mg168 O169 2.028 . S
Mg168 O175 1.986 . S
Mg168 O177 2.114 . S
Mg168 O178 2.251 . S
Mg168 O181 2.010 . S
O169 Mg168 2.028 . S
O169 C172 1.250 . S
O170 Mg171 2.028 . S
O170 C172 1.248 . S
Mg171 O170 2.028 . S
Mg171 O176 2.032 . S
Mg171 O178 2.079 . S
C172 O169 1.250 . S
C172 O170 1.248 . S
C173 O174 1.264 . S
C173 O181 1.249 . S
O174 C173 1.264 . S
O175 Mg168 1.986 . S
O175 C179 1.246 . S
O176 Mg171 2.032 . S
O176 C179 1.259 . S
O177 Mg168 2.114 . S
O177 C180 1.252 . S
O178 Mg168 2.251 . S
O178 Mg171 2.079 . S
O178 C180 1.273 . S
C179 O175 1.246 . S
C179 O176 1.259 . S
C180 O177 1.252 . S
C180 O178 1.273 . S
O181 Mg168 2.010 . S
O181 C173 1.249 . S
Mg182 O183 2.028 . S
Mg182 O189 1.986 . S
Mg182 O191 2.114 . S
Mg182 O192 2.251 . S
Mg182 O195 2.010 . S
O183 Mg182 2.028 . S
O183 C186 1.250 . S
O184 Mg185 2.028 . S
O184 C186 1.248 . S
Mg185 O184 2.028 . S
Mg185 O190 2.032 . S
Mg185 O192 2.079 . S
C186 O183 1.250 . S
C186 O184 1.248 . S
C187 O188 1.264 . S
C187 O195 1.249 . S
O188 C187 1.264 . S
O189 Mg182 1.986 . S
O189 C193 1.246 . S
O190 Mg185 2.032 . S
O190 C193 1.259 . S
O191 Mg182 2.114 . S
O191 C194 1.252 . S
O192 Mg182 2.251 . S
O192 Mg185 2.079 . S
O192 C194 1.273 . S
C193 O189 1.246 . S
C193 O190 1.259 . S
C194 O191 1.252 . S
C194 O192 1.273 . S
O195 Mg182 2.010 . S
O195 C187 1.249 . S
Mg196 O197 2.028 . S
Mg196 O203 1.986 . S
Mg196 O205 2.114 . S
Mg196 O206 2.251 . S
Mg196 O209 2.010 . S
O197 Mg196 2.028 . S
O197 C200 1.250 . S
O198 Mg199 2.028 . S
O198 C200 1.248 . S
Mg199 O198 2.028 . S
Mg199 O204 2.032 . S
Mg199 O206 2.079 . S
C200 O197 1.250 . S
C200 O198 1.248 . S
C201 O202 1.264 . S
C201 O209 1.249 . S
O202 C201 1.264 . S
O203 Mg196 1.986 . S
O203 C207 1.246 . S
O204 Mg199 2.032 . S
O204 C207 1.259 . S
O205 Mg196 2.114 . S
O205 C208 1.252 . S
O206 Mg196 2.251 . S
O206 Mg199 2.079 . S
O206 C208 1.273 . S
C207 O203 1.246 . S
C207 O204 1.259 . S
C208 O205 1.252 . S
C208 O206 1.273 . S
O209 Mg196 2.010 . S
O209 C201 1.249 . S
Mg210 O211 2.028 . S
Mg210 O217 1.986 . S
Mg210 O219 2.114 . S
Mg210 O220 2.251 . S
Mg210 O223 2.010 . S
O211 Mg210 2.028 . S
O211 C214 1.250 . S
O212 Mg213 2.028 . S
O212 C214 1.248 . S
Mg213 O212 2.028 . S
Mg213 O218 2.032 . S
Mg213 O220 2.079 . S
C214 O211 1.250 . S
C214 O212 1.248 . S
C215 O216 1.264 . S
C215 O223 1.249 . S
O216 C215 1.264 . S
O217 Mg210 1.986 . S
O217 C221 1.246 . S
O218 Mg213 2.032 . S
O218 C221 1.259 . S
O219 Mg210 2.114 . S
O219 C222 1.252 . S
O220 Mg210 2.251 . S
O220 Mg213 2.079 . S
O220 C222 1.273 . S
C221 O217 1.246 . S
C221 O218 1.259 . S
C222 O219 1.252 . S
C222 O220 1.273 . S
O223 Mg210 2.010 . S
O223 C215 1.249 . S
Mg224 O225 2.028 . S
Mg224 O231 1.986 . S
Mg224 O233 2.114 . S
Mg224 O234 2.251 . S
Mg224 O237 2.010 . S
O225 Mg224 2.028 . S
O225 C228 1.250 . S
O226 Mg227 2.028 . S
O226 C228 1.248 . S
Mg227 O226 2.028 . S
Mg227 O232 2.032 . S
Mg227 O234 2.079 . S
C228 O225 1.250 . S
C228 O226 1.248 . S
C229 O230 1.264 . S
C229 O237 1.249 . S
O230 C229 1.264 . S
O231 Mg224 1.986 . S
O231 C235 1.246 . S
O232 Mg227 2.032 . S
O232 C235 1.259 . S
O233 Mg224 2.114 . S
O233 C236 1.252 . S
O234 Mg224 2.251 . S
O234 Mg227 2.079 . S
O234 C236 1.273 . S
C235 O231 1.246 . S
C235 O232 1.259 . S
C236 O233 1.252 . S
C236 O234 1.273 . S
O237 Mg224 2.010 . S
O237 C229 1.249 . S
Mg238 O239 2.028 . S
Mg238 O245 1.986 . S
Mg238 O247 2.114 . S
Mg238 O248 2.251 . S
Mg238 O251 2.010 . S
O239 Mg238 2.028 . S
O239 C242 1.250 . S
O240 Mg241 2.028 . S
O240 C242 1.248 . S
Mg241 O240 2.028 . S
Mg241 O246 2.032 . S
Mg241 O248 2.079 . S
C242 O239 1.250 . S
C242 O240 1.248 . S
C243 O244 1.264 . S
C243 O251 1.249 . S
O244 C243 1.264 . S
O245 Mg238 1.986 . S
O245 C249 1.246 . S
O246 Mg241 2.032 . S
O246 C249 1.259 . S
O247 Mg238 2.114 . S
O247 C250 1.252 . S
O248 Mg238 2.251 . S
O248 Mg241 2.079 . S
O248 C250 1.273 . S
C249 O245 1.246 . S
C249 O246 1.259 . S
C250 O247 1.252 . S
C250 O248 1.273 . S
O251 Mg238 2.010 . S
O251 C243 1.249 . S
Mg252 O253 2.028 . S
Mg252 O259 1.986 . S
Mg252 O261 2.114 . S
Mg252 O262 2.251 . S
Mg252 O265 2.010 . S
O253 Mg252 2.028 . S
O253 C256 1.250 . S
O254 Mg255 2.028 . S
O254 C256 1.248 . S
Mg255 O254 2.028 . S
Mg255 O260 2.032 . S
Mg255 O262 2.079 . S
C256 O253 1.250 . S
C256 O254 1.248 . S
C257 O258 1.264 . S
C257 O265 1.249 . S
O258 C257 1.264 . S
O259 Mg252 1.986 . S
O259 C263 1.246 . S
O260 Mg255 2.032 . S
O260 C263 1.259 . S
O261 Mg252 2.114 . S
O261 C264 1.252 . S
O262 Mg252 2.251 . S
O262 Mg255 2.079 . S
O262 C264 1.273 . S
C263 O259 1.246 . S
C263 O260 1.259 . S
C264 O261 1.252 . S
C264 O262 1.273 . S
O265 Mg252 2.010 . S
O265 C257 1.249 . S
Mg266 O267 2.028 . S
Mg266 O273 1.986 . S
Mg266 O275 2.114 . S
Mg266 O276 2.251 . S
Mg266 O279 2.010 . S
O267 Mg266 2.028 . S
O267 C270 1.250 . S
O268 Mg269 2.028 . S
O268 C270 1.248 . S
Mg269 O268 2.028 . S
Mg269 O274 2.032 . S
Mg269 O276 2.079 . S
C270 O267 1.250 . S
C270 O268 1.248 . S
C271 O272 1.264 . S
C271 O279 1.249 . S
O272 C271 1.264 . S
O273 Mg266 1.986 . S
O273 C277 1.246 . S
O274 Mg269 2.032 . S
O274 C277 1.259 . S
O275 Mg266 2.114 . S
O275 C278 1.252 . S
O276 Mg266 2.251 . S
O276 Mg269 2.079 . S
O276 C278 1.273 . S
C277 O273 1.246 . S
C277 O274 1.259 . S
C278 O275 1.252 . S
C278 O276 1.273 . S
O279 Mg266 2.010 . S
O279 C271 1.249 . S
Mg280 O281 2.028 . S
Mg280 O287 1.986 . S
Mg280 O289 2.114 . S
Mg280 O290 2.251 . S
Mg280 O293 2.010 . S
O281 Mg280 2.028 . S
O281 C284 1.250 . S
O282 Mg283 2.028 . S
O282 C284 1.248 . S
Mg283 O282 2.028 . S
Mg283 O288 2.032 . S
Mg283 O290 2.079 . S
C284 O281 1.250 . S
C284 O282 1.248 . S
C285 O286 1.264 . S
C285 O293 1.249 . S
O286 C285 1.264 . S
O287 Mg280 1.986 . S
O287 C291 1.246 . S
O288 Mg283 2.032 . S
O288 C291 1.259 . S
O289 Mg280 2.114 . S
O289 C292 1.252 . S
O290 Mg280 2.251 . S
O290 Mg283 2.079 . S
O290 C292 1.273 . S
C291 O287 1.246 . S
C291 O288 1.259 . S
C292 O289 1.252 . S
C292 O290 1.273 . S
O293 Mg280 2.010 . S
O293 C285 1.249 . S
Mg294 O295 2.028 1_554 S
Mg294 O301 1.986 . S
Mg294 O303 2.114 . S
Mg294 O304 2.251 . S
Mg294 O307 2.010 . S
O295 Mg294 2.028 1_556 S
O295 C298 1.250 . S
O296 Mg297 2.028 1_556 S
O296 C298 1.248 . S
Mg297 O296 2.028 1_554 S
Mg297 O302 2.032 . S
Mg297 O304 2.079 . S
C298 O295 1.250 . S
C298 O296 1.248 . S
C299 O300 1.264 1_556 S
C299 O307 1.249 1_556 S
O300 C299 1.264 1_554 S
O301 Mg294 1.986 . S
O301 C305 1.246 . S
O302 Mg297 2.032 . S
O302 C305 1.259 . S
O303 Mg294 2.114 . S
O303 C306 1.252 . S
O304 Mg294 2.251 . S
O304 Mg297 2.079 . S
O304 C306 1.273 . S
C305 O301 1.246 . S
C305 O302 1.259 . S
C306 O303 1.252 . S
C306 O304 1.273 . S
O307 Mg294 2.010 . S
O307 C299 1.249 1_554 S
Mg308 O309 2.028 1_554 S
Mg308 O315 1.986 . S
Mg308 O317 2.114 . S
Mg308 O318 2.251 . S
Mg308 O321 2.010 . S
O309 Mg308 2.028 1_556 S
O309 C312 1.250 . S
O310 Mg311 2.028 1_556 S
O310 C312 1.248 . S
Mg311 O310 2.028 1_554 S
Mg311 O316 2.032 . S
Mg311 O318 2.079 . S
C312 O309 1.250 . S
C312 O310 1.248 . S
C313 O314 1.264 . S
C313 O321 1.249 . S
O314 C313 1.264 . S
O315 Mg308 1.986 . S
O315 C319 1.246 . S
O316 Mg311 2.032 . S
O316 C319 1.259 . S
O317 Mg308 2.114 . S
O317 C320 1.252 . S
O318 Mg308 2.251 . S
O318 Mg311 2.079 . S
O318 C320 1.273 . S
C319 O315 1.246 . S
C319 O316 1.259 . S
C320 O317 1.252 . S
C320 O318 1.273 . S
O321 Mg308 2.010 . S
O321 C313 1.249 . S
Mg322 O323 2.028 1_554 S
Mg322 O329 1.986 . S
Mg322 O331 2.114 . S
Mg322 O332 2.251 . S
Mg322 O335 2.010 . S
O323 Mg322 2.028 1_556 S
O323 C326 1.250 . S
O324 Mg325 2.028 1_556 S
O324 C326 1.248 . S
Mg325 O324 2.028 1_554 S
Mg325 O330 2.032 . S
Mg325 O332 2.079 . S
C326 O323 1.250 . S
C326 O324 1.248 . S
C327 O328 1.264 . S
C327 O335 1.249 . S
O328 C327 1.264 . S
O329 Mg322 1.986 . S
O329 C333 1.246 . S
O330 Mg325 2.032 . S
O330 C333 1.259 . S
O331 Mg322 2.114 . S
O331 C334 1.252 . S
O332 Mg322 2.251 . S
O332 Mg325 2.079 . S
O332 C334 1.273 . S
C333 O329 1.246 . S
C333 O330 1.259 . S
C334 O331 1.252 . S
C334 O332 1.273 . S
O335 Mg322 2.010 . S
O335 C327 1.249 . S
Mg336 O337 2.028 . S
Mg336 O343 1.986 . S
Mg336 O345 2.114 . S
Mg336 O346 2.251 . S
Mg336 O349 2.010 . S
O337 Mg336 2.028 . S
O337 C340 1.250 . S
O338 Mg339 2.028 . S
O338 C340 1.248 . S
Mg339 O338 2.028 . S
Mg339 O344 2.032 . S
Mg339 O346 2.079 . S
C340 O337 1.250 . S
C340 O338 1.248 . S
C341 O342 1.264 . S
C341 O349 1.249 . S
O342 C341 1.264 . S
O343 Mg336 1.986 . S
O343 C347 1.246 . S
O344 Mg339 2.032 . S
O344 C347 1.259 . S
O345 Mg336 2.114 . S
O345 C348 1.252 . S
O346 Mg336 2.251 . S
O346 Mg339 2.079 . S
O346 C348 1.273 . S
C347 O343 1.246 . S
C347 O344 1.259 . S
C348 O345 1.252 . S
C348 O346 1.273 . S
O349 Mg336 2.010 . S
O349 C341 1.249 . S
Mg350 O351 2.028 . S
Mg350 O357 1.986 . S
Mg350 O359 2.114 . S
Mg350 O360 2.251 . S
Mg350 O363 2.010 . S
O351 Mg350 2.028 . S
O351 C354 1.250 . S
O352 Mg353 2.028 . S
O352 C354 1.248 . S
Mg353 O352 2.028 . S
Mg353 O358 2.032 . S
Mg353 O360 2.079 . S
C354 O351 1.250 . S
C354 O352 1.248 . S
C355 O356 1.264 . S
C355 O363 1.249 . S
O356 C355 1.264 . S
O357 Mg350 1.986 . S
O357 C361 1.246 . S
O358 Mg353 2.032 . S
O358 C361 1.259 . S
O359 Mg350 2.114 . S
O359 C362 1.252 . S
O360 Mg350 2.251 . S
O360 Mg353 2.079 . S
O360 C362 1.273 . S
C361 O357 1.246 . S
C361 O358 1.259 . S
C362 O359 1.252 . S
C362 O360 1.273 . S
O363 Mg350 2.010 . S
O363 C355 1.249 . S
Mg364 O365 2.028 . S
Mg364 O371 1.986 . S
Mg364 O373 2.114 . S
Mg364 O374 2.251 . S
Mg364 O377 2.010 . S
O365 Mg364 2.028 . S
O365 C368 1.250 . S
O366 Mg367 2.028 . S
O366 C368 1.248 . S
Mg367 O366 2.028 . S
Mg367 O372 2.032 . S
Mg367 O374 2.079 . S
C368 O365 1.250 . S
C368 O366 1.248 . S
C369 O370 1.264 . S
C369 O377 1.249 . S
O370 C369 1.264 . S
O371 Mg364 1.986 . S
O371 C375 1.246 . S
O372 Mg367 2.032 . S
O372 C375 1.259 . S
O373 Mg364 2.114 . S
O373 C376 1.252 . S
O374 Mg364 2.251 . S
O374 Mg367 2.079 . S
O374 C376 1.273 . S
C375 O371 1.246 . S
C375 O372 1.259 . S
C376 O373 1.252 . S
C376 O374 1.273 . S
O377 Mg364 2.010 . S
O377 C369 1.249 . S
Mg378 O379 2.028 . S
Mg378 O385 1.986 . S
Mg378 O387 2.114 1_556 S
Mg378 O388 2.251 1_556 S
Mg378 O391 2.010 . S
O379 Mg378 2.028 . S
O379 C382 1.250 1_556 S
O380 Mg381 2.028 . S
O380 C382 1.248 . S
Mg381 O380 2.028 . S
Mg381 O386 2.032 1_554 S
Mg381 O388 2.079 . S
C382 O379 1.250 1_554 S
C382 O380 1.248 . S
C383 O384 1.264 . S
C383 O391 1.249 . S
O384 C383 1.264 . S
O385 Mg378 1.986 . S
O385 C389 1.246 . S
O386 Mg381 2.032 1_556 S
O386 C389 1.259 . S
O387 Mg378 2.114 1_554 S
O387 C390 1.252 . S
O388 Mg378 2.251 1_554 S
O388 Mg381 2.079 . S
O388 C390 1.273 . S
C389 O385 1.246 . S
C389 O386 1.259 . S
C390 O387 1.252 . S
C390 O388 1.273 . S
O391 Mg378 2.010 . S
O391 C383 1.249 . S
Mg392 O393 2.028 1_556 S
Mg392 O399 1.986 1_556 S
Mg392 O401 2.114 . S
Mg392 O402 2.251 . S
Mg392 O405 2.010 1_556 S
O393 Mg392 2.028 1_554 S
O393 C396 1.250 1_554 S
O394 Mg395 2.028 . S
O394 C396 1.248 . S
Mg395 O394 2.028 . S
Mg395 O400 2.032 . S
Mg395 O402 2.079 . S
C396 O393 1.250 1_556 S
C396 O394 1.248 . S
C397 O398 1.264 . S
C397 O405 1.249 . S
O398 C397 1.264 . S
O399 Mg392 1.986 1_554 S
O399 C403 1.246 1_554 S
O400 Mg395 2.032 . S
O400 C403 1.259 . S
O401 Mg392 2.114 . S
O401 C404 1.252 . S
O402 Mg392 2.251 . S
O402 Mg395 2.079 . S
O402 C404 1.273 . S
C403 O399 1.246 1_556 S
C403 O400 1.259 . S
C404 O401 1.252 . S
C404 O402 1.273 . S
O405 Mg392 2.010 1_554 S
O405 C397 1.249 . S
Mg406 O407 2.029 . S
Mg406 O413 1.986 . S
Mg406 O415 2.114 1_556 S
Mg406 O416 2.251 1_556 S
Mg406 O419 2.010 . S
O407 Mg406 2.029 . S
O407 C410 1.250 1_556 S
O408 Mg409 2.028 . S
O408 C410 1.248 . S
Mg409 O408 2.028 . S
Mg409 O414 2.032 1_554 S
Mg409 O416 2.079 . S
C410 O407 1.250 1_554 S
C410 O408 1.248 . S
C411 O412 1.264 . S
C411 O419 1.249 . S
O412 C411 1.264 . S
O413 Mg406 1.986 . S
O413 C417 1.246 . S
O414 Mg409 2.032 1_556 S
O414 C417 1.259 . S
O415 Mg406 2.114 1_554 S
O415 C418 1.252 . S
O416 Mg406 2.251 1_554 S
O416 Mg409 2.079 . S
O416 C418 1.273 . S
C417 O413 1.246 . S
C417 O414 1.259 . S
C418 O415 1.252 . S
C418 O416 1.273 . S
O419 Mg406 2.010 . S
O419 C411 1.249 . S
Mg420 O421 2.028 . S
Mg420 O427 1.986 . S
Mg420 O429 2.114 . S
Mg420 O430 2.251 . S
Mg420 O433 2.010 . S
O421 Mg420 2.028 . S
O421 C424 1.250 . S
O422 Mg423 2.028 . S
O422 C424 1.248 . S
Mg423 O422 2.028 . S
Mg423 O428 2.032 . S
Mg423 O430 2.079 . S
C424 O421 1.250 . S
C424 O422 1.248 . S
C425 O426 1.264 . S
C425 O433 1.249 . S
O426 C425 1.264 . S
O427 Mg420 1.986 . S
O427 C431 1.246 . S
O428 Mg423 2.032 . S
O428 C431 1.259 . S
O429 Mg420 2.114 . S
O429 C432 1.252 . S
O430 Mg420 2.251 . S
O430 Mg423 2.079 . S
O430 C432 1.273 . S
C431 O427 1.246 . S
C431 O428 1.259 . S
C432 O429 1.252 . S
C432 O430 1.273 . S
O433 Mg420 2.010 . S
O433 C425 1.249 . S
Mg434 O435 2.028 . S
Mg434 O441 1.986 . S
Mg434 O443 2.114 . S
Mg434 O444 2.251 . S
Mg434 O447 2.010 . S
O435 Mg434 2.028 . S
O435 C438 1.250 . S
O436 Mg437 2.028 . S
O436 C438 1.248 . S
Mg437 O436 2.028 . S
Mg437 O442 2.032 . S
Mg437 O444 2.079 . S
C438 O435 1.250 . S
C438 O436 1.248 . S
C439 O440 1.264 . S
C439 O447 1.249 . S
O440 C439 1.264 . S
O441 Mg434 1.986 . S
O441 C445 1.246 . S
O442 Mg437 2.032 . S
O442 C445 1.259 . S
O443 Mg434 2.114 . S
O443 C446 1.252 . S
O444 Mg434 2.251 . S
O444 Mg437 2.079 . S
O444 C446 1.273 . S
C445 O441 1.246 . S
C445 O442 1.259 . S
C446 O443 1.252 . S
C446 O444 1.273 . S
O447 Mg434 2.010 . S
O447 C439 1.249 . S
Mg448 O449 2.028 . S
Mg448 O455 1.986 . S
Mg448 O457 2.114 . S
Mg448 O458 2.251 . S
Mg448 O461 2.010 . S
O449 Mg448 2.028 . S
O449 C452 1.250 . S
O450 Mg451 2.028 . S
O450 C452 1.248 . S
Mg451 O450 2.028 . S
Mg451 O456 2.032 . S
Mg451 O458 2.079 . S
C452 O449 1.250 . S
C452 O450 1.248 . S
C453 O454 1.264 . S
C453 O461 1.249 . S
O454 C453 1.264 . S
O455 Mg448 1.986 . S
O455 C459 1.246 . S
O456 Mg451 2.032 . S
O456 C459 1.259 . S
O457 Mg448 2.114 . S
O457 C460 1.252 . S
O458 Mg448 2.251 . S
O458 Mg451 2.079 . S
O458 C460 1.273 . S
C459 O455 1.246 . S
C459 O456 1.259 . S
C460 O457 1.252 . S
C460 O458 1.273 . S
O461 Mg448 2.010 . S
O461 C453 1.249 . S
Mg462 O463 2.028 . S
Mg462 O469 1.986 . S
Mg462 O471 2.114 . S
Mg462 O472 2.251 . S
Mg462 O475 2.010 . S
O463 Mg462 2.028 . S
O463 C466 1.250 . S
O464 Mg465 2.028 . S
O464 C466 1.248 . S
Mg465 O464 2.028 . S
Mg465 O470 2.032 . S
Mg465 O472 2.079 . S
C466 O463 1.250 . S
C466 O464 1.248 . S
C467 O468 1.264 . S
C467 O475 1.249 . S
O468 C467 1.264 . S
O469 Mg462 1.986 . S
O469 C473 1.246 . S
O470 Mg465 2.032 . S
O470 C473 1.259 . S
O471 Mg462 2.114 . S
O471 C474 1.252 . S
O472 Mg462 2.251 . S
O472 Mg465 2.079 . S
O472 C474 1.273 . S
C473 O469 1.246 . S
C473 O470 1.259 . S
C474 O471 1.252 . S
C474 O472 1.273 . S
O475 Mg462 2.010 . S
O475 C467 1.249 . S
Mg476 O477 2.028 . S
Mg476 O483 1.986 . S
Mg476 O485 2.114 . S
Mg476 O486 2.251 . S
Mg476 O489 2.010 . S
O477 Mg476 2.028 . S
O477 C480 1.250 . S
O478 Mg479 2.028 . S
O478 C480 1.248 . S
Mg479 O478 2.028 . S
Mg479 O484 2.032 . S
Mg479 O486 2.079 . S
C480 O477 1.250 . S
C480 O478 1.248 . S
C481 O482 1.264 . S
C481 O489 1.249 . S
O482 C481 1.264 . S
O483 Mg476 1.986 . S
O483 C487 1.246 . S
O484 Mg479 2.032 . S
O484 C487 1.259 . S
O485 Mg476 2.114 . S
O485 C488 1.252 . S
O486 Mg476 2.251 . S
O486 Mg479 2.079 . S
O486 C488 1.273 . S
C487 O483 1.246 . S
C487 O484 1.259 . S
C488 O485 1.252 . S
C488 O486 1.273 . S
O489 Mg476 2.010 . S
O489 C481 1.249 . S
Mg490 O491 2.028 . S
Mg490 O497 1.986 . S
Mg490 O499 2.114 . S
Mg490 O500 2.251 . S
Mg490 O503 2.010 . S
O491 Mg490 2.028 . S
O491 C494 1.250 . S
O492 Mg493 2.028 . S
O492 C494 1.248 . S
Mg493 O492 2.028 . S
Mg493 O498 2.032 . S
Mg493 O500 2.079 . S
C494 O491 1.250 . S
C494 O492 1.248 . S
C495 O496 1.264 . S
C495 O503 1.249 . S
O496 C495 1.264 . S
O497 Mg490 1.986 . S
O497 C501 1.246 . S
O498 Mg493 2.032 . S
O498 C501 1.259 . S
O499 Mg490 2.114 . S
O499 C502 1.252 . S
O500 Mg490 2.251 . S
O500 Mg493 2.079 . S
O500 C502 1.273 . S
C501 O497 1.246 . S
C501 O498 1.259 . S
C502 O499 1.252 . S
C502 O500 1.273 . S
O503 Mg490 2.010 . S
O503 C495 1.249 . S
C504 C505 1.387 . S
C504 H508 0.950 . S
C504 C513 1.390 . S
C505 C504 1.387 . S
C505 C507 1.387 . S
H506 C513 0.950 . S
C507 C505 1.387 . S
C507 C509 1.390 . S
C507 H511 0.950 . S
H508 C504 0.950 . S
C509 C507 1.390 . S
C509 C510 1.387 . S
C509 H512 0.950 . S
C510 C509 1.387 . S
C510 C513 1.387 . S
H511 C507 0.950 . S
H512 C509 0.950 . S
C513 C504 1.390 . S
C513 H506 0.950 . S
C513 C510 1.387 . S
C514 C515 1.387 . S
C514 H518 0.950 . S
C514 C523 1.390 1_545 S
C515 C514 1.387 . S
C515 C517 1.387 . S
H516 C523 0.950 . S
C517 C515 1.387 . S
C517 C519 1.390 1_545 S
C517 H521 0.950 . S
H518 C514 0.950 . S
C519 C517 1.390 1_565 S
C519 C520 1.387 . S
C519 H522 0.950 . S
C520 C519 1.387 . S
C520 C523 1.387 . S
H521 C517 0.950 . S
H522 C519 0.950 . S
C523 C514 1.390 1_565 S
C523 H516 0.950 . S
C523 C520 1.387 . S
C524 C525 1.387 . S
C524 H528 0.950 . S
C524 C533 1.390 1_655 S
C525 C524 1.387 . S
C525 C527 1.387 . S
H526 C533 0.950 . S
C527 C525 1.387 . S
C527 C529 1.390 1_655 S
C527 H531 0.950 . S
H528 C524 0.950 . S
C529 C527 1.390 1_455 S
C529 C530 1.387 . S
C529 H532 0.950 . S
C530 C529 1.387 . S
C530 C533 1.387 . S
H531 C527 0.950 . S
H532 C529 0.950 . S
C533 C524 1.390 1_455 S
C533 H526 0.950 . S
C533 C530 1.387 . S
C534 C535 1.387 . S
C534 H538 0.950 . S
C534 C543 1.390 . S
C535 C534 1.387 . S
C535 C537 1.387 . S
H536 C543 0.950 . S
C537 C535 1.387 . S
C537 C539 1.390 . S
C537 H541 0.950 . S
H538 C534 0.950 . S
C539 C537 1.390 . S
C539 C540 1.387 . S
C539 H542 0.950 . S
C540 C539 1.387 . S
C540 C543 1.387 . S
H541 C537 0.950 . S
H542 C539 0.950 . S
C543 C534 1.390 . S
C543 H536 0.950 . S
C543 C540 1.387 . S
C544 C545 1.387 . S
C544 H548 0.950 . S
C544 C553 1.390 1_545 S
C545 C544 1.387 . S
C545 C547 1.387 . S
H546 C553 0.950 . S
C547 C545 1.387 . S
C547 C549 1.390 1_545 S
C547 H551 0.950 . S
H548 C544 0.950 . S
C549 C547 1.390 1_565 S
C549 C550 1.387 . S
C549 H552 0.950 . S
C550 C549 1.387 . S
C550 C553 1.387 . S
H551 C547 0.950 . S
H552 C549 0.950 . S
C553 C544 1.390 1_565 S
C553 H546 0.950 . S
C553 C550 1.387 . S
C554 C555 1.389 1_655 S
C554 H558 0.951 1_655 S
C554 C563 1.387 . S
C555 C554 1.389 1_455 S
C555 C557 1.387 . S
H556 C563 0.950 . S
C557 C555 1.387 . S
C557 C559 1.390 1_455 S
C557 H561 0.950 . S
H558 C554 0.951 1_455 S
C559 C557 1.390 1_655 S
C559 C560 1.387 . S
C559 H562 0.950 . S
C560 C559 1.387 . S
C560 C563 1.387 . S
H561 C557 0.950 . S
H562 C559 0.950 . S
C563 C554 1.387 . S
C563 H556 0.950 . S
C563 C560 1.387 . S
C564 C565 1.387 . S
C564 H568 0.950 . S
C564 C573 1.390 . S
C565 C564 1.387 . S
C565 C567 1.387 . S
H566 C573 0.950 . S
C567 C565 1.387 . S
C567 C569 1.390 . S
C567 H571 0.950 . S
H568 C564 0.950 . S
C569 C567 1.390 . S
C569 C570 1.387 . S
C569 H572 0.950 . S
C570 C569 1.387 . S
C570 C573 1.387 . S
H571 C567 0.950 . S
H572 C569 0.950 . S
C573 C564 1.390 . S
C573 H566 0.950 . S
C573 C570 1.387 . S
C574 C575 1.387 . S
C574 H578 0.950 . S
C574 C583 1.390 . S
C575 C574 1.387 . S
C575 C577 1.387 . S
H576 C583 0.950 . S
C577 C575 1.387 . S
C577 C579 1.390 . S
C577 H581 0.950 . S
H578 C574 0.950 . S
C579 C577 1.390 . S
C579 C580 1.387 . S
C579 H582 0.950 . S
C580 C579 1.387 . S
C580 C583 1.387 . S
H581 C577 0.950 . S
H582 C579 0.950 . S
C583 C574 1.390 . S
C583 H576 0.950 . S
C583 C580 1.387 . S
C584 C585 1.387 . S
C584 H588 0.950 . S
C584 C593 1.390 . S
C585 C584 1.387 . S
C585 C587 1.387 . S
H586 C593 0.950 . S
C587 C585 1.387 . S
C587 C589 1.390 . S
C587 H591 0.950 . S
H588 C584 0.950 . S
C589 C587 1.390 . S
C589 C590 1.387 . S
C589 H592 0.950 . S
C590 C589 1.387 . S
C590 C593 1.387 . S
H591 C587 0.950 . S
H592 C589 0.950 . S
C593 C584 1.390 . S
C593 H586 0.950 . S
C593 C590 1.387 . S
C594 C595 1.387 . S
C594 H598 0.950 . S
C594 C603 1.390 . S
C595 C594 1.387 . S
C595 C597 1.387 . S
H596 C603 0.950 1_556 S
C597 C595 1.387 . S
C597 C599 1.390 . S
C597 H601 0.950 . S
H598 C594 0.950 . S
C599 C597 1.390 . S
C599 C600 1.387 . S
C599 H602 0.950 . S
C600 C599 1.387 . S
C600 C603 1.387 . S
H601 C597 0.950 . S
H602 C599 0.950 . S
C603 C594 1.390 . S
C603 H596 0.950 1_554 S
C603 C600 1.387 . S
C604 C605 1.387 . S
C604 H608 0.950 . S
C604 C613 1.390 . S
C605 C604 1.387 . S
C605 C607 1.387 . S
H606 C613 0.950 . S
C607 C605 1.387 . S
C607 C609 1.390 . S
C607 H611 0.950 . S
H608 C604 0.950 . S
C609 C607 1.390 . S
C609 C610 1.387 . S
C609 H612 0.950 . S
C610 C609 1.387 . S
C610 C613 1.387 . S
H611 C607 0.950 . S
H612 C609 0.950 . S
C613 C604 1.390 . S
C613 H606 0.950 . S
C613 C610 1.387 . S
C614 C615 1.387 . S
C614 H618 0.950 . S
C614 C623 1.390 . S
C615 C614 1.387 . S
C615 C617 1.387 . S
H616 C623 0.950 . S
C617 C615 1.387 . S
C617 C619 1.390 . S
C617 H621 0.950 . S
H618 C614 0.950 . S
C619 C617 1.390 . S
C619 C620 1.387 . S
C619 H622 0.950 . S
C620 C619 1.387 . S
C620 C623 1.387 . S
H621 C617 0.950 . S
H622 C619 0.950 . S
C623 C614 1.390 . S
C623 H616 0.950 . S
C623 C620 1.387 . S
C624 C625 1.387 . S
C624 H628 0.950 . S
C624 C633 1.390 . S
C625 C624 1.387 . S
C625 C627 1.387 . S
H626 C633 0.950 . S
C627 C625 1.387 . S
C627 C629 1.390 1_556 S
C627 H631 0.950 1_556 S
H628 C624 0.950 . S
C629 C627 1.390 1_554 S
C629 C630 1.387 1_554 S
C629 H632 0.950 . S
C630 C629 1.387 1_556 S
C630 C633 1.387 . S
H631 C627 0.950 1_554 S
H632 C629 0.950 . S
C633 C624 1.390 . S
C633 H626 0.950 . S
C633 C630 1.387 . S
C634 C635 1.387 . S
C634 H638 0.950 . S
C634 C643 1.390 . S
C635 C634 1.387 . S
C635 C637 1.387 . S
H636 C643 0.950 . S
C637 C635 1.387 . S
C637 C639 1.390 . S
C637 H641 0.950 . S
H638 C634 0.950 . S
C639 C637 1.390 . S
C639 C640 1.387 . S
C639 H642 0.950 . S
C640 C639 1.387 . S
C640 C643 1.387 . S
H641 C637 0.950 . S
H642 C639 0.950 . S
C643 C634 1.390 . S
C643 H636 0.950 . S
C643 C640 1.387 . S
C644 C645 1.387 . S
C644 H648 0.950 1_556 S
C644 C653 1.390 . S
C645 C644 1.387 . S
C645 C647 1.387 . S
H646 C653 0.950 . S
C647 C645 1.387 . S
C647 C649 1.390 . S
C647 H651 0.950 . S
H648 C644 0.950 1_554 S
C649 C647 1.390 . S
C649 C650 1.387 . S
C649 H652 0.950 . S
C650 C649 1.387 . S
C650 C653 1.387 . S
H651 C647 0.950 . S
H652 C649 0.950 . S
C653 C644 1.390 . S
C653 H646 0.950 . S
C653 C650 1.387 . S
C654 C655 1.387 . S
C654 H658 0.950 . S
C654 C663 1.390 . S
C655 C654 1.387 . S
C655 C657 1.387 . S
H656 C663 0.950 . S
C657 C655 1.387 . S
C657 C659 1.390 . S
C657 H661 0.950 . S
H658 C654 0.950 . S
C659 C657 1.390 . S
C659 C660 1.387 . S
C659 H662 0.950 . S
C660 C659 1.387 . S
C660 C663 1.387 . S
H661 C657 0.950 . S
H662 C659 0.950 . S
C663 C654 1.390 . S
C663 H656 0.950 . S
C663 C660 1.387 . S
C664 C665 1.387 . S
C664 H668 0.950 . S
C664 C673 1.390 . S
C665 C664 1.387 . S
C665 C667 1.387 . S
H666 C673 0.950 . S
C667 C665 1.387 . S
C667 C669 1.390 . S
C667 H671 0.950 . S
H668 C664 0.950 . S
C669 C667 1.390 . S
C669 C670 1.387 . S
C669 H672 0.950 . S
C670 C669 1.387 . S
C670 C673 1.387 . S
H671 C667 0.950 . S
H672 C669 0.950 . S
C673 C664 1.390 . S
C673 H666 0.950 . S
C673 C670 1.387 . S
C674 C675 1.387 . S
C674 H678 0.950 . S
C674 C683 1.390 . S
C675 C674 1.387 . S
C675 C677 1.387 . S
H676 C683 0.950 . S
C677 C675 1.387 . S
C677 C679 1.390 . S
C677 H681 0.950 . S
H678 C674 0.950 . S
C679 C677 1.390 . S
C679 C680 1.387 . S
C679 H682 0.950 . S
C680 C679 1.387 . S
C680 C683 1.387 . S
H681 C677 0.950 . S
H682 C679 0.950 . S
C683 C674 1.390 . S
C683 H676 0.950 . S
C683 C680 1.387 . S
C684 C685 1.387 . S
C684 H688 0.950 . S
C684 C693 1.390 . S
C685 C684 1.387 . S
C685 C687 1.387 . S
H686 C693 0.950 . S
C687 C685 1.387 . S
C687 C689 1.390 1_556 S
C687 H691 0.950 . S
H688 C684 0.950 . S
C689 C687 1.390 1_554 S
C689 C690 1.387 . S
C689 H692 0.950 . S
C690 C689 1.387 . S
C690 C693 1.387 1_554 S
H691 C687 0.950 . S
H692 C689 0.950 . S
C693 C684 1.390 . S
C693 H686 0.950 . S
C693 C690 1.387 1_556 S
C694 C695 1.387 . S
C694 H698 0.950 . S
C694 C703 1.390 . S
C695 C694 1.387 . S
C695 C697 1.387 . S
H696 C703 0.950 . S
C697 C695 1.387 . S
C697 C699 1.390 . S
C697 H701 0.950 . S
H698 C694 0.950 . S
C699 C697 1.390 . S
C699 C700 1.387 . S
C699 H702 0.950 . S
C700 C699 1.387 . S
C700 C703 1.387 . S
H701 C697 0.950 . S
H702 C699 0.950 . S
C703 C694 1.390 . S
C703 H696 0.950 . S
C703 C700 1.387 . S
C704 C705 1.387 . S
C704 H708 0.950 1_556 S
C704 C713 1.390 . S
C705 C704 1.387 . S
C705 C707 1.387 . S
H706 C713 0.950 . S
C707 C705 1.387 . S
C707 C709 1.390 . S
C707 H711 0.950 . S
H708 C704 0.950 1_554 S
C709 C707 1.390 . S
C709 C710 1.387 . S
C709 H712 0.950 . S
C710 C709 1.387 . S
C710 C713 1.387 . S
H711 C707 0.950 . S
H712 C709 0.950 . S
C713 C704 1.390 . S
C713 H706 0.950 . S
C713 C710 1.387 . S
C714 C715 1.387 . S
C714 H718 0.950 . S
C714 C723 1.390 . S
C715 C714 1.387 . S
C715 C717 1.387 . S
H716 C723 0.950 . S
C717 C715 1.387 . S
C717 C719 1.390 . S
C717 H721 0.950 . S
H718 C714 0.950 . S
C719 C717 1.390 . S
C719 C720 1.387 . S
C719 H722 0.950 . S
C720 C719 1.387 . S
C720 C723 1.387 . S
H721 C717 0.950 . S
H722 C719 0.950 . S
C723 C714 1.390 . S
C723 H716 0.950 . S
C723 C720 1.387 . S
C724 C725 1.387 . S
C724 H728 0.950 . S
C724 C733 1.390 . S
C725 C724 1.387 . S
C725 C727 1.387 . S
H726 C733 0.950 . S
C727 C725 1.387 . S
C727 C729 1.390 . S
C727 H731 0.950 . S
H728 C724 0.950 . S
C729 C727 1.390 . S
C729 C730 1.387 . S
C729 H732 0.950 . S
C730 C729 1.387 . S
C730 C733 1.387 . S
H731 C727 0.950 . S
H732 C729 0.950 . S
C733 C724 1.390 . S
C733 H726 0.950 . S
C733 C730 1.387 . S
C734 C735 1.387 . S
C734 H738 0.950 . S
C734 C743 1.390 . S
C735 C734 1.387 . S
C735 C737 1.387 . S
H736 C743 0.950 . S
C737 C735 1.387 . S
C737 C739 1.390 . S
C737 H741 0.950 . S
H738 C734 0.950 . S
C739 C737 1.390 . S
C739 C740 1.387 . S
C739 H742 0.950 . S
C740 C739 1.387 . S
C740 C743 1.387 . S
H741 C737 0.950 . S
H742 C739 0.950 . S
C743 C734 1.390 . S
C743 H736 0.950 . S
C743 C740 1.387 . S
C744 C745 1.387 . S
C744 H748 0.950 . S
C744 C753 1.390 1_556 S
C745 C744 1.387 . S
C745 C747 1.387 1_556 S
H746 C753 0.950 . S
C747 C745 1.387 1_554 S
C747 C749 1.390 . S
C747 H751 0.950 . S
H748 C744 0.950 . S
C749 C747 1.390 . S
C749 C750 1.387 . S
C749 H752 0.950 . S
C750 C749 1.387 . S
C750 C753 1.387 . S
H751 C747 0.950 . S
H752 C749 0.950 . S
C753 C744 1.390 1_554 S
C753 H746 0.950 . S
C753 C750 1.387 . S
C754 C755 1.387 1_554 S
C754 H758 0.950 1_554 S
C754 C763 1.390 . S
C755 C754 1.387 1_556 S
C755 C757 1.387 1_556 S
H756 C763 0.950 . S
C757 C755 1.387 1_554 S
C757 C759 1.390 . S
C757 H761 0.950 . S
H758 C754 0.950 1_556 S
C759 C757 1.390 . S
C759 C760 1.387 . S
C759 H762 0.950 . S
C760 C759 1.387 . S
C760 C763 1.387 . S
H761 C757 0.950 . S
H762 C759 0.950 . S
C763 C754 1.390 . S
C763 H756 0.950 . S
C763 C760 1.387 . S
C764 C765 1.387 . S
C764 H768 0.950 . S
C764 C773 1.390 . S
C765 C764 1.387 . S
C765 C767 1.387 . S
H766 C773 0.950 . S
C767 C765 1.387 . S
C767 C769 1.390 . S
C767 H771 0.950 . S
H768 C764 0.950 . S
C769 C767 1.390 . S
C769 C770 1.387 . S
C769 H772 0.950 1_554 S
C770 C769 1.387 . S
C770 C773 1.387 . S
H771 C767 0.950 . S
H772 C769 0.950 1_556 S
C773 C764 1.390 . S
C773 H766 0.950 . S
C773 C770 1.387 . S
C774 C775 1.387 . S
C774 H778 0.950 . S
C774 C783 1.390 . S
C775 C774 1.387 . S
C775 C777 1.387 . S
H776 C783 0.950 . S
C777 C775 1.387 . S
C777 C779 1.390 . S
C777 H781 0.950 . S
H778 C774 0.950 . S
C779 C777 1.390 . S
C779 C780 1.387 . S
C779 H782 0.950 . S
C780 C779 1.387 . S
C780 C783 1.387 . S
H781 C777 0.950 . S
H782 C779 0.950 . S
C783 C774 1.390 . S
C783 H776 0.950 . S
C783 C780 1.387 . S
C784 C785 1.387 . S
C784 H788 0.950 . S
C784 C793 1.390 . S
C785 C784 1.387 . S
C785 C787 1.387 . S
H786 C793 0.950 . S
C787 C785 1.387 . S
C787 C789 1.390 . S
C787 H791 0.950 . S
H788 C784 0.950 . S
C789 C787 1.390 . S
C789 C790 1.387 . S
C789 H792 0.950 . S
C790 C789 1.387 . S
C790 C793 1.387 . S
H791 C787 0.950 . S
H792 C789 0.950 . S
C793 C784 1.390 . S
C793 H786 0.950 . S
C793 C790 1.387 . S
C794 C795 1.387 . S
C794 H798 0.950 . S
C794 C803 1.390 . S
C795 C794 1.387 . S
C795 C797 1.387 . S
H796 C803 0.950 . S
C797 C795 1.387 . S
C797 C799 1.390 . S
C797 H801 0.950 . S
H798 C794 0.950 . S
C799 C797 1.390 . S
C799 C800 1.387 . S
C799 H802 0.950 . S
C800 C799 1.387 . S
C800 C803 1.387 . S
H801 C797 0.950 . S
H802 C799 0.950 . S
C803 C794 1.390 . S
C803 H796 0.950 . S
C803 C800 1.387 . S
C804 C805 1.387 . S
C804 H808 0.950 . S
C804 C813 1.390 . S
C805 C804 1.387 . S
C805 C807 1.387 . S
H806 C813 0.950 . S
C807 C805 1.387 . S
C807 C809 1.390 . S
C807 H811 0.950 . S
H808 C804 0.950 . S
C809 C807 1.390 . S
C809 C810 1.387 . S
C809 H812 0.950 . S
C810 C809 1.387 . S
C810 C813 1.387 . S
H811 C807 0.950 . S
H812 C809 0.950 . S
C813 C804 1.390 . S
C813 H806 0.950 . S
C813 C810 1.387 . S
C814 C815 1.387 . S
C814 H818 0.950 . S
C814 C823 1.390 . S
C815 C814 1.387 . S
C815 C817 1.387 . S
H816 C823 0.950 . S
C817 C815 1.387 . S
C817 C819 1.390 . S
C817 H821 0.950 . S
H818 C814 0.950 . S
C819 C817 1.390 . S
C819 C820 1.387 . S
C819 H822 0.950 . S
C820 C819 1.387 . S
C820 C823 1.387 . S
H821 C817 0.950 . S
H822 C819 0.950 . S
C823 C814 1.390 . S
C823 H816 0.950 . S
C823 C820 1.387 . S
C824 C825 1.387 . S
C824 H828 0.950 . S
C824 C833 1.390 . S
C825 C824 1.387 . S
C825 C827 1.387 . S
H826 C833 0.950 . S
C827 C825 1.387 . S
C827 C829 1.390 . S
C827 H831 0.950 . S
H828 C824 0.950 . S
C829 C827 1.390 . S
C829 C830 1.387 . S
C829 H832 0.950 . S
C830 C829 1.387 . S
C830 C833 1.387 . S
H831 C827 0.950 . S
H832 C829 0.950 . S
C833 C824 1.390 . S
C833 H826 0.950 . S
C833 C830 1.387 . S
C834 C835 1.387 . S
C834 H838 0.950 . S
C834 C843 1.390 . S
C835 C834 1.387 . S
C835 C837 1.387 . S
H836 C843 0.950 . S
C837 C835 1.387 . S
C837 C839 1.390 . S
C837 H841 0.950 . S
H838 C834 0.950 . S
C839 C837 1.390 . S
C839 C840 1.387 . S
C839 H842 0.950 1_556 S
C840 C839 1.387 . S
C840 C843 1.387 . S
H841 C837 0.950 . S
H842 C839 0.950 1_554 S
C843 C834 1.390 . S
C843 H836 0.950 . S
C843 C840 1.387 . S
C844 C845 1.387 . S
C844 H848 0.950 . S
C844 C853 1.390 1_554 S
C845 C844 1.387 . S
C845 C847 1.387 1_554 S
H846 C853 0.950 . S
C847 C845 1.387 1_556 S
C847 C849 1.390 . S
C847 H851 0.950 . S
H848 C844 0.950 . S
C849 C847 1.390 . S
C849 C850 1.387 . S
C849 H852 0.950 . S
C850 C849 1.387 . S
C850 C853 1.387 . S
H851 C847 0.950 . S
H852 C849 0.950 . S
C853 C844 1.390 1_556 S
C853 H846 0.950 . S
C853 C850 1.387 . S
C854 C855 1.387 . S
C854 H858 0.950 . S
C854 C863 1.390 . S
C855 C854 1.387 . S
C855 C857 1.387 . S
H856 C863 0.950 . S
C857 C855 1.387 . S
C857 C859 1.390 . S
C857 H861 0.950 . S
H858 C854 0.950 . S
C859 C857 1.390 . S
C859 C860 1.387 . S
C859 H862 0.950 . S
C860 C859 1.387 . S
C860 C863 1.387 . S
H861 C857 0.950 . S
H862 C859 0.950 . S
C863 C854 1.390 . S
C863 H856 0.950 . S
C863 C860 1.387 . S
C864 C865 1.387 . S
C864 H868 0.950 . S
C864 C873 1.390 . S
C865 C864 1.387 . S
C865 C867 1.387 . S
H866 C873 0.950 . S
C867 C865 1.387 . S
C867 C869 1.390 . S
C867 H871 0.950 . S
H868 C864 0.950 . S
C869 C867 1.390 . S
C869 C870 1.387 . S
C869 H872 0.950 . S
C870 C869 1.387 . S
C870 C873 1.387 . S
H871 C867 0.950 . S
H872 C869 0.950 . S
C873 C864 1.390 . S
C873 H866 0.950 . S
C873 C870 1.387 . S
C874 C875 1.387 . S
C874 H878 0.950 . S
C874 C883 1.390 . S
C875 C874 1.387 . S
C875 C877 1.387 . S
H876 C883 0.950 . S
C877 C875 1.387 . S
C877 C879 1.390 . S
C877 H881 0.950 . S
H878 C874 0.950 . S
C879 C877 1.390 . S
C879 C880 1.387 . S
C879 H882 0.950 . S
C880 C879 1.387 . S
C880 C883 1.387 . S
H881 C877 0.950 . S
H882 C879 0.950 . S
C883 C874 1.390 . S
C883 H876 0.950 . S
C883 C880 1.387 . S
C884 C885 1.387 . S
C884 H888 0.950 . S
C884 C893 1.390 . S
C885 C884 1.387 . S
C885 C887 1.387 . S
H886 C893 0.950 . S
C887 C885 1.387 . S
C887 C889 1.390 . S
C887 H891 0.950 . S
H888 C884 0.950 . S
C889 C887 1.390 . S
C889 C890 1.387 . S
C889 H892 0.950 . S
C890 C889 1.387 . S
C890 C893 1.387 . S
H891 C887 0.950 . S
H892 C889 0.950 . S
C893 C884 1.390 . S
C893 H886 0.950 . S
C893 C890 1.387 . S
C894 C895 1.387 . S
C894 H898 0.950 . S
C894 C903 1.390 . S
C895 C894 1.387 . S
C895 C897 1.387 . S
H896 C903 0.950 . S
C897 C895 1.387 . S
C897 C899 1.390 . S
C897 H901 0.950 . S
H898 C894 0.950 . S
C899 C897 1.390 . S
C899 C900 1.387 . S
C899 H902 0.950 . S
C900 C899 1.387 . S
C900 C903 1.387 . S
H901 C897 0.950 . S
H902 C899 0.950 . S
C903 C894 1.390 . S
C903 H896 0.950 . S
C903 C900 1.387 . S
C904 C905 1.387 . S
C904 H908 0.950 . S
C904 C913 1.390 . S
C905 C904 1.387 . S
C905 C907 1.387 . S
H906 C913 0.950 . S
C907 C905 1.387 . S
C907 C909 1.390 . S
C907 H911 0.950 . S
H908 C904 0.950 . S
C909 C907 1.390 . S
C909 C910 1.387 . S
C909 H912 0.950 . S
C910 C909 1.387 . S
C910 C913 1.387 . S
H911 C907 0.950 . S
H912 C909 0.950 . S
C913 C904 1.390 . S
C913 H906 0.950 . S
C913 C910 1.387 . S
C914 C915 1.387 . S
C914 H918 0.950 . S
C914 C923 1.390 . S
C915 C914 1.387 . S
C915 C917 1.387 . S
H916 C923 0.950 . S
C917 C915 1.387 . S
C917 C919 1.390 . S
C917 H921 0.950 . S
H918 C914 0.950 . S
C919 C917 1.390 . S
C919 C920 1.387 . S
C919 H922 0.950 . S
C920 C919 1.387 . S
C920 C923 1.387 . S
H921 C917 0.950 . S
H922 C919 0.950 . S
C923 C914 1.390 . S
C923 H916 0.950 . S
C923 C920 1.387 . S
C924 C925 1.387 . S
C924 H928 0.950 . S
C924 C933 1.390 . S
C925 C924 1.387 . S
C925 C927 1.387 . S
H926 C933 0.950 . S
C927 C925 1.387 . S
C927 C929 1.390 . S
C927 H931 0.950 . S
H928 C924 0.950 . S
C929 C927 1.390 . S
C929 C930 1.387 . S
C929 H932 0.950 . S
C930 C929 1.387 . S
C930 C933 1.387 . S
H931 C927 0.950 . S
H932 C929 0.950 . S
C933 C924 1.390 . S
C933 H926 0.950 . S
C933 C930 1.387 . S
C934 C935 1.387 . S
C934 H938 0.950 . S
C934 C943 1.390 . S
C935 C934 1.387 . S
C935 C937 1.387 . S
H936 C943 0.950 . S
C937 C935 1.387 . S
C937 C939 1.390 . S
C937 H941 0.950 . S
H938 C934 0.950 . S
C939 C937 1.390 . S
C939 C940 1.387 . S
C939 H942 0.950 . S
C940 C939 1.387 . S
C940 C943 1.387 . S
H941 C937 0.950 . S
H942 C939 0.950 . S
C943 C934 1.390 . S
C943 H936 0.950 . S
C943 C940 1.387 . S
C944 C945 1.387 . S
C944 H948 0.950 . S
C944 C953 1.390 . S
C945 C944 1.387 . S
C945 C947 1.387 . S
H946 C953 0.950 . S
C947 C945 1.387 . S
C947 C949 1.390 . S
C947 H951 0.950 . S
H948 C944 0.950 . S
C949 C947 1.390 . S
C949 C950 1.387 . S
C949 H952 0.950 . S
C950 C949 1.387 . S
C950 C953 1.387 . S
H951 C947 0.950 . S
H952 C949 0.950 . S
C953 C944 1.390 . S
C953 H946 0.950 . S
C953 C950 1.387 . S
C954 C955 1.387 . S
C954 H958 0.950 . S
C954 C963 1.390 . S
C955 C954 1.387 . S
C955 C957 1.387 . S
H956 C963 0.950 . S
C957 C955 1.387 . S
C957 C959 1.390 . S
C957 H961 0.950 . S
H958 C954 0.950 . S
C959 C957 1.390 . S
C959 C960 1.387 . S
C959 H962 0.950 . S
C960 C959 1.387 . S
C960 C963 1.387 . S
H961 C957 0.950 . S
H962 C959 0.950 . S
C963 C954 1.390 . S
C963 H956 0.950 . S
C963 C960 1.387 . S
C964 C965 1.387 . S
C964 H968 0.950 . S
C964 C973 1.390 . S
C965 C964 1.387 . S
C965 C967 1.387 . S
H966 C973 0.950 . S
C967 C965 1.387 . S
C967 C969 1.390 . S
C967 H971 0.950 . S
H968 C964 0.950 . S
C969 C967 1.390 . S
C969 C970 1.387 . S
C969 H972 0.950 . S
C970 C969 1.387 . S
C970 C973 1.387 . S
H971 C967 0.950 . S
H972 C969 0.950 . S
C973 C964 1.390 . S
C973 H966 0.950 . S
C973 C970 1.387 . S
C974 C975 1.387 . S
C974 H978 0.950 . S
C974 C983 1.390 . S
C975 C974 1.387 . S
C975 C977 1.387 . S
H976 C983 0.950 . S
C977 C975 1.387 . S
C977 C979 1.390 . S
C977 H981 0.950 . S
H978 C974 0.950 . S
C979 C977 1.390 . S
C979 C980 1.387 . S
C979 H982 0.950 . S
C980 C979 1.387 . S
C980 C983 1.387 . S
H981 C977 0.950 . S
H982 C979 0.950 . S
C983 C974 1.390 . S
C983 H976 0.950 . S
C983 C980 1.387 . S
C984 C985 1.387 . S
C984 H988 0.950 . S
C984 C993 1.390 . S
C985 C984 1.387 . S
C985 C987 1.387 . S
H986 C993 0.950 . S
C987 C985 1.387 . S
C987 C989 1.390 . S
C987 H991 0.950 . S
H988 C984 0.950 . S
C989 C987 1.390 . S
C989 C990 1.387 . S
C989 H992 0.950 . S
C990 C989 1.387 . S
C990 C993 1.387 . S
H991 C987 0.950 . S
H992 C989 0.950 . S
C993 C984 1.390 . S
C993 H986 0.950 . S
C993 C990 1.387 . S
C994 C995 1.387 . S
C994 H998 0.950 . S
C994 C1003 1.390 . S
C995 C994 1.387 . S
C995 C997 1.387 . S
H996 C1003 0.950 . S
C997 C995 1.387 . S
C997 C999 1.390 . S
C997 H1001 0.950 . S
H998 C994 0.950 . S
C999 C997 1.390 . S
C999 C1000 1.387 . S
C999 H1002 0.950 . S
C1000 C999 1.387 . S
C1000 C1003 1.387 . S
H1001 C997 0.950 . S
H1002 C999 0.950 . S
C1003 C994 1.390 . S
C1003 H996 0.950 . S
C1003 C1000 1.387 . S
C1004 C1005 1.387 . S
C1004 H1008 0.950 . S
C1004 C1013 1.390 . S
C1005 C1004 1.387 . S
C1005 C1007 1.387 . S
H1006 C1013 0.950 . S
C1007 C1005 1.387 . S
C1007 C1009 1.390 . S
C1007 H1011 0.950 . S
H1008 C1004 0.950 . S
C1009 C1007 1.390 . S
C1009 C1010 1.387 . S
C1009 H1012 0.950 . S
C1010 C1009 1.387 . S
C1010 C1013 1.387 . S
H1011 C1007 0.950 . S
H1012 C1009 0.950 . S
C1013 C1004 1.390 . S
C1013 H1006 0.950 . S
C1013 C1010 1.387 . S
C1014 C1015 1.387 . S
C1014 H1018 0.950 . S
C1014 C1023 1.390 . S
C1015 C1014 1.387 . S
C1015 C1017 1.387 . S
H1016 C1023 0.950 . S
C1017 C1015 1.387 . S
C1017 C1019 1.390 . S
C1017 H1021 0.950 1_554 S
H1018 C1014 0.950 . S
C1019 C1017 1.390 . S
C1019 C1020 1.387 . S
C1019 H1022 0.950 . S
C1020 C1019 1.387 . S
C1020 C1023 1.387 . S
H1021 C1017 0.950 1_556 S
H1022 C1019 0.950 . S
C1023 C1014 1.390 . S
C1023 H1016 0.950 . S
C1023 C1020 1.387 . S
C1024 C1025 1.387 . S
C1024 H1028 0.950 . S
C1024 C1033 1.390 . S
C1025 C1024 1.387 . S
C1025 C1027 1.387 . S
H1026 C1033 0.950 . S
C1027 C1025 1.387 . S
C1027 C1029 1.390 . S
C1027 H1031 0.950 . S
H1028 C1024 0.950 . S
C1029 C1027 1.390 . S
C1029 C1030 1.387 . S
C1029 H1032 0.950 . S
C1030 C1029 1.387 . S
C1030 C1033 1.387 . S
H1031 C1027 0.950 . S
H1032 C1029 0.950 . S
C1033 C1024 1.390 . S
C1033 H1026 0.950 . S
C1033 C1030 1.387 . S
C1034 C1035 1.387 . S
C1034 H1038 0.950 . S
C1034 C1043 1.390 . S
C1035 C1034 1.387 . S
C1035 C1037 1.387 . S
H1036 C1043 0.950 . S
C1037 C1035 1.387 . S
C1037 C1039 1.390 . S
C1037 H1041 0.950 . S
H1038 C1034 0.950 . S
C1039 C1037 1.390 . S
C1039 C1040 1.387 . S
C1039 H1042 0.950 . S
C1040 C1039 1.387 . S
C1040 C1043 1.387 . S
H1041 C1037 0.950 . S
H1042 C1039 0.950 . S
C1043 C1034 1.390 . S
C1043 H1036 0.950 . S
C1043 C1040 1.387 . S
C1044 C1045 1.387 . S
C1044 H1048 0.950 . S
C1044 C1053 1.390 . S
C1045 C1044 1.387 . S
C1045 C1047 1.387 . S
H1046 C1053 0.950 . S
C1047 C1045 1.387 . S
C1047 C1049 1.390 . S
C1047 H1051 0.950 . S
H1048 C1044 0.950 . S
C1049 C1047 1.390 . S
C1049 C1050 1.387 . S
C1049 H1052 0.950 . S
C1050 C1049 1.387 . S
C1050 C1053 1.387 . S
H1051 C1047 0.950 . S
H1052 C1049 0.950 . S
C1053 C1044 1.390 . S
C1053 H1046 0.950 . S
C1053 C1050 1.387 . S
C1054 C1055 1.387 . S
C1054 H1058 0.950 . S
C1054 C1063 1.390 . S
C1055 C1054 1.387 . S
C1055 C1057 1.387 . S
H1056 C1063 0.950 . S
C1057 C1055 1.387 . S
C1057 C1059 1.390 . S
C1057 H1061 0.950 . S
H1058 C1054 0.950 . S
C1059 C1057 1.390 . S
C1059 C1060 1.387 . S
C1059 H1062 0.950 . S
C1060 C1059 1.387 . S
C1060 C1063 1.387 . S
H1061 C1057 0.950 . S
H1062 C1059 0.950 . S
C1063 C1054 1.390 . S
C1063 H1056 0.950 . S
C1063 C1060 1.387 . S
C1064 C1065 1.387 . S
C1064 H1068 0.950 1_554 S
C1064 C1073 1.390 . S
C1065 C1064 1.387 . S
C1065 C1067 1.387 . S
H1066 C1073 0.950 . S
C1067 C1065 1.387 . S
C1067 C1069 1.390 . S
C1067 H1071 0.950 . S
H1068 C1064 0.950 1_556 S
C1069 C1067 1.390 . S
C1069 C1070 1.387 . S
C1069 H1072 0.950 . S
C1070 C1069 1.387 . S
C1070 C1073 1.387 . S
H1071 C1067 0.950 . S
H1072 C1069 0.950 . S
C1073 C1064 1.390 . S
C1073 H1066 0.950 . S
C1073 C1070 1.387 . S
C1074 C1075 1.387 . S
C1074 H1078 0.950 . S
C1074 C1083 1.390 . S
C1075 C1074 1.387 . S
C1075 C1077 1.387 . S
H1076 C1083 0.950 . S
C1077 C1075 1.387 . S
C1077 C1079 1.390 . S
C1077 H1081 0.950 . S
H1078 C1074 0.950 . S
C1079 C1077 1.390 . S
C1079 C1080 1.387 . S
C1079 H1082 0.950 . S
C1080 C1079 1.387 . S
C1080 C1083 1.387 . S
H1081 C1077 0.950 . S
H1082 C1079 0.950 . S
C1083 C1074 1.390 . S
C1083 H1076 0.950 . S
C1083 C1080 1.387 . S
C1084 C1085 1.387 . S
C1084 H1088 0.950 . S
C1084 C1093 1.390 . S
C1085 C1084 1.387 . S
C1085 C1087 1.387 . S
H1086 C1093 0.950 . S
C1087 C1085 1.387 . S
C1087 C1089 1.390 . S
C1087 H1091 0.950 . S
H1088 C1084 0.950 . S
C1089 C1087 1.390 . S
C1089 C1090 1.387 . S
C1089 H1092 0.950 . S
C1090 C1089 1.387 . S
C1090 C1093 1.387 . S
H1091 C1087 0.950 . S
H1092 C1089 0.950 . S
C1093 C1084 1.390 . S
C1093 H1086 0.950 . S
C1093 C1090 1.387 . S
C1094 C1095 1.387 . S
C1094 H1098 0.950 . S
C1094 C1103 1.390 . S
C1095 C1094 1.387 . S
C1095 C1097 1.387 . S
H1096 C1103 0.950 . S
C1097 C1095 1.387 . S
C1097 C1099 1.390 . S
C1097 H1101 0.950 . S
H1098 C1094 0.950 . S
C1099 C1097 1.390 . S
C1099 C1100 1.387 . S
C1099 H1102 0.950 . S
C1100 C1099 1.387 . S
C1100 C1103 1.387 . S
H1101 C1097 0.950 . S
H1102 C1099 0.950 . S
C1103 C1094 1.390 . S
C1103 H1096 0.950 . S
C1103 C1100 1.387 . S
C1104 C1105 1.387 . S
C1104 H1108 0.950 . S
C1104 C1113 1.390 . S
C1105 C1104 1.387 . S
C1105 C1107 1.387 . S
H1106 C1113 0.950 . S
C1107 C1105 1.387 . S
C1107 C1109 1.390 . S
C1107 H1111 0.950 . S
H1108 C1104 0.950 . S
C1109 C1107 1.390 . S
C1109 C1110 1.387 . S
C1109 H1112 0.950 . S
C1110 C1109 1.387 . S
C1110 C1113 1.387 . S
H1111 C1107 0.950 . S
H1112 C1109 0.950 . S
C1113 C1104 1.390 . S
C1113 H1106 0.950 . S
C1113 C1110 1.387 . S
C1114 C1115 1.387 . S
C1114 H1118 0.950 1_556 S
C1114 C1123 1.390 . S
C1115 C1114 1.387 . S
C1115 C1117 1.387 . S
H1116 C1123 0.950 . S
C1117 C1115 1.387 . S
C1117 C1119 1.390 . S
C1117 H1121 0.950 . S
H1118 C1114 0.950 1_554 S
C1119 C1117 1.390 . S
C1119 C1120 1.387 . S
C1119 H1122 0.950 . S
C1120 C1119 1.387 . S
C1120 C1123 1.387 . S
H1121 C1117 0.950 . S
H1122 C1119 0.950 . S
C1123 C1114 1.390 . S
C1123 H1116 0.950 . S
C1123 C1120 1.387 . S
C1124 C1125 1.387 . S
C1124 H1128 0.950 1_556 S
C1124 C1133 1.390 1_556 S
C1125 C1124 1.387 . S
C1125 C1127 1.387 . S
H1126 C1133 0.950 . S
C1127 C1125 1.387 . S
C1127 C1129 1.390 . S
C1127 H1131 0.950 . S
H1128 C1124 0.950 1_554 S
C1129 C1127 1.390 . S
C1129 C1130 1.387 . S
C1129 H1132 0.950 . S
C1130 C1129 1.387 . S
C1130 C1133 1.387 1_556 S
H1131 C1127 0.950 . S
H1132 C1129 0.950 . S
C1133 C1124 1.390 1_554 S
C1133 H1126 0.950 . S
C1133 C1130 1.387 1_554 S
C1134 C1135 1.387 . S
C1134 H1138 0.950 . S
C1134 C1143 1.390 . S
C1135 C1134 1.387 . S
C1135 C1137 1.387 . S
H1136 C1143 0.950 . S
C1137 C1135 1.387 . S
C1137 C1139 1.390 . S
C1137 H1141 0.950 . S
H1138 C1134 0.950 . S
C1139 C1137 1.390 . S
C1139 C1140 1.387 . S
C1139 H1142 0.950 . S
C1140 C1139 1.387 . S
C1140 C1143 1.387 . S
H1141 C1137 0.950 . S
H1142 C1139 0.950 . S
C1143 C1134 1.390 . S
C1143 H1136 0.950 . S
C1143 C1140 1.387 . S
C1144 C1145 1.387 . S
C1144 H1148 0.950 . S
C1144 C1153 1.390 . S
C1145 C1144 1.387 . S
C1145 C1147 1.387 . S
H1146 C1153 0.950 . S
C1147 C1145 1.387 . S
C1147 C1149 1.390 . S
C1147 H1151 0.950 . S
H1148 C1144 0.950 . S
C1149 C1147 1.390 . S
C1149 C1150 1.387 . S
C1149 H1152 0.950 . S
C1150 C1149 1.387 . S
C1150 C1153 1.387 . S
H1151 C1147 0.950 . S
H1152 C1149 0.950 . S
C1153 C1144 1.390 . S
C1153 H1146 0.950 . S
C1153 C1150 1.387 . S
C1154 C1155 1.387 . S
C1154 H1158 0.950 . S
C1154 C1163 1.390 . S
C1155 C1154 1.387 . S
C1155 C1157 1.387 . S
H1156 C1163 0.950 . S
C1157 C1155 1.387 . S
C1157 C1159 1.390 . S
C1157 H1161 0.950 . S
H1158 C1154 0.950 . S
C1159 C1157 1.390 . S
C1159 C1160 1.387 . S
C1159 H1162 0.950 . S
C1160 C1159 1.387 . S
C1160 C1163 1.387 . S
H1161 C1157 0.950 . S
H1162 C1159 0.950 . S
C1163 C1154 1.390 . S
C1163 H1156 0.950 . S
C1163 C1160 1.387 . S
C1164 C1165 1.387 . S
C1164 H1168 0.950 . S
C1164 C1173 1.390 1_455 S
C1165 C1164 1.387 . S
C1165 C1167 1.387 . S
H1166 C1173 0.950 . S
C1167 C1165 1.387 . S
C1167 C1169 1.390 1_455 S
C1167 H1171 0.950 . S
H1168 C1164 0.950 . S
C1169 C1167 1.390 1_655 S
C1169 C1170 1.387 . S
C1169 H1172 0.950 . S
C1170 C1169 1.387 . S
C1170 C1173 1.387 . S
H1171 C1167 0.950 . S
H1172 C1169 0.950 . S
C1173 C1164 1.390 1_655 S
C1173 H1166 0.950 . S
C1173 C1170 1.387 . S
C1174 C1175 1.387 . S
C1174 H1178 0.950 . S
C1174 C1183 1.390 . S
C1175 C1174 1.387 . S
C1175 C1177 1.387 . S
H1176 C1183 0.950 . S
C1177 C1175 1.387 . S
C1177 C1179 1.390 . S
C1177 H1181 0.950 . S
H1178 C1174 0.950 . S
C1179 C1177 1.390 . S
C1179 C1180 1.387 . S
C1179 H1182 0.950 . S
C1180 C1179 1.387 . S
C1180 C1183 1.387 . S
H1181 C1177 0.950 . S
H1182 C1179 0.950 . S
C1183 C1174 1.390 . S
C1183 H1176 0.950 . S
C1183 C1180 1.387 . S
C1184 C1185 1.387 . S
C1184 H1188 0.950 . S
C1184 C1193 1.390 1_565 S
C1185 C1184 1.387 . S
C1185 C1187 1.387 . S
H1186 C1193 0.950 . S
C1187 C1185 1.387 . S
C1187 C1189 1.390 1_565 S
C1187 H1191 0.950 . S
H1188 C1184 0.950 . S
C1189 C1187 1.390 1_545 S
C1189 C1190 1.387 . S
C1189 H1192 0.950 . S
C1190 C1189 1.387 . S
C1190 C1193 1.387 . S
H1191 C1187 0.950 . S
H1192 C1189 0.950 . S
C1193 C1184 1.390 1_545 S
C1193 H1186 0.950 . S
C1193 C1190 1.387 . S
C1194 C1195 1.387 . S
C1194 H1198 0.950 . S
C1194 C1203 1.390 1_545 S
C1195 C1194 1.387 . S
C1195 C1197 1.387 . S
H1196 C1203 0.950 . S
C1197 C1195 1.387 . S
C1197 C1199 1.390 1_545 S
C1197 H1201 0.950 . S
H1198 C1194 0.950 . S
C1199 C1197 1.390 1_565 S
C1199 C1200 1.387 . S
C1199 H1202 0.950 . S
C1200 C1199 1.387 . S
C1200 C1203 1.387 . S
H1201 C1197 0.950 . S
H1202 C1199 0.950 . S
C1203 C1194 1.390 1_565 S
C1203 H1196 0.950 . S
C1203 C1200 1.387 . S
C1204 C1205 1.387 . S
C1204 H1208 0.950 . S
C1204 C1213 1.390 1_455 S
C1205 C1204 1.387 . S
C1205 C1207 1.387 . S
H1206 C1213 0.950 . S
C1207 C1205 1.387 . S
C1207 C1209 1.390 1_455 S
C1207 H1211 0.950 . S
H1208 C1204 0.950 . S
C1209 C1207 1.390 1_655 S
C1209 C1210 1.387 . S
C1209 H1212 0.950 . S
C1210 C1209 1.387 . S
C1210 C1213 1.387 . S
H1211 C1207 0.950 . S
H1212 C1209 0.950 . S
C1213 C1204 1.390 1_655 S
C1213 H1206 0.950 . S
C1213 C1210 1.387 . S
C1214 C1215 1.387 . S
C1214 H1218 0.950 . S
C1214 C1223 1.390 . S
C1215 C1214 1.387 . S
C1215 C1217 1.387 . S
H1216 C1223 0.950 . S
C1217 C1215 1.387 . S
C1217 C1219 1.390 . S
C1217 H1221 0.950 . S
H1218 C1214 0.950 . S
C1219 C1217 1.390 . S
C1219 C1220 1.387 . S
C1219 H1222 0.950 . S
C1220 C1219 1.387 . S
C1220 C1223 1.387 . S
H1221 C1217 0.950 . S
H1222 C1219 0.950 . S
C1223 C1214 1.390 . S
C1223 H1216 0.950 . S
C1223 C1220 1.387 . S
C505 C47 1.115 . S
C510 C5 1.124 . S
C515 C67 1.276 . S
C520 C25 1.276 . S
C525 C75 1.122 . S
C530 C33 1.117 . S
C535 C95 1.326 . S
C540 C137 1.334 . S
C545 C109 1.298 . S
C550 C151 1.298 . S
C555 C165 1.330 . S
C560 C123 1.336 . S
C565 C173 1.125 . S
C570 C215 1.111 . S
C575 C193 1.269 . S
C580 C235 1.269 . S
C585 C201 1.116 . S
C590 C243 1.120 . S
C595 C263 1.319 . S
C600 C305 1.326 . S
C605 C319 1.291 . S
C610 C277 1.290 . S
C615 C291 1.342 . S
C620 C333 1.335 . S
C625 C341 1.119 . S
C630 C383 1.118 . S
C635 C361 1.268 . S
C640 C403 1.268 . S
C645 C411 1.119 . S
C650 C369 1.118 . S
C655 C473 1.342 . S
C660 C431 1.336 . S
C665 C487 1.288 . S
C670 C445 1.288 . S
C675 C501 1.321 . S
C680 C459 1.328 . S
C685 C166 1.289 . S
C690 C12 1.274 . S
C695 C19 1.116 1_556 S
C700 C138 1.225 . S
C705 C40 1.217 1_556 S
C710 C152 1.229 . S
C715 C110 1.234 . S
C720 C54 1.220 . S
C725 C61 1.116 . S
C730 C124 1.224 . S
C735 C96 1.290 . S
C740 C82 1.276 . S
C745 C88 1.464 . S
C750 C81 1.456 . S
C755 C102 1.488 . S
C760 C53 1.480 . S
C765 C68 1.471 . S
C770 C116 1.469 1_554 S
C775 C26 1.470 . S
C780 C130 1.468 . S
C785 C39 1.484 . S
C790 C144 1.493 . S
C795 C158 1.466 . S
C800 C11 1.458 . S
C805 C180 1.270 . S
C810 C334 1.284 . S
C815 C306 1.210 . S
C820 C187 1.100 . S
C825 C320 1.231 . S
C830 C208 1.219 . S
C835 C222 1.220 . S
C840 C278 1.231 1_556 S
C845 C292 1.220 . S
C850 C229 1.113 . S
C855 C250 1.274 . S
C860 C264 1.287 1_556 S
C865 C256 1.460 . S
C870 C249 1.450 . S
C875 C270 1.482 . S
C880 C221 1.472 . S
C885 C236 1.475 . S
C890 C284 1.473 . S
C895 C194 1.481 . S
C900 C298 1.480 . S
C905 C207 1.473 . S
C910 C312 1.482 . S
C915 C326 1.471 . S
C920 C179 1.461 . S
C925 C502 1.286 . S
C930 C348 1.273 . S
C935 C355 1.106 . S
C940 C474 1.218 . S
C945 C376 1.220 . S
C950 C488 1.231 . S
C955 C390 1.219 . S
C960 C446 1.231 . S
C965 C460 1.235 . S
C970 C397 1.122 . S
C975 C418 1.271 . S
C980 C432 1.285 . S
C985 C417 1.462 . S
C990 C424 1.470 . S
C995 C389 1.475 . S
C1000 C438 1.484 . S
C1005 C404 1.455 . S
C1010 C452 1.452 . S
C1015 C362 1.474 1_554 S
C1020 C466 1.471 . S
C1025 C375 1.473 1_554 S
C1030 C480 1.483 . S
C1035 C347 1.451 1_554 S
C1040 C494 1.460 . S
C1045 C410 1.681 . S
C1050 C4 1.681 . S
C1055 C18 1.814 . S
C1060 C382 1.693 . S
C1065 C396 1.821 1_554 S
C1070 C32 1.701 . S
C1075 C46 1.696 . S
C1080 C186 1.818 . S
C1085 C200 1.695 . S
C1090 C60 1.814 . S
C1095 C74 1.681 . S
C1100 C172 1.681 . S
C1105 C89 1.121 . S
C1110 C327 1.121 1_556 S
C1115 C299 1.095 . S
C1120 C103 1.104 . S
C1125 C117 1.086 . S
C1130 C313 1.091 1_556 S
C1135 C131 1.088 . S
C1140 C439 1.096 . S
C1145 C145 1.095 . S
C1150 C453 1.089 . S
C1155 C425 1.121 . S
C1160 C159 1.121 . S
C1165 C354 1.813 . S
C1170 C214 1.694 . S
C1175 C368 1.695 . S
C1180 C228 1.814 . S
C1185 C340 1.680 . S
C1190 C242 1.680 . S
C1195 C257 1.116 . S
C1200 C495 1.116 . S
C1205 C467 1.085 . S
C1210 C271 1.091 . S
C1215 C285 1.089 . S
C1220 C481 1.096 . S
