# Generated by pormake.
# Topology wme, (6)-cn, num edge types: 1
# Building blocks:
#     Node 0, Type 0, BuildingBlock: PAMTOO_clean_sbu_0, # of connection points: 6
#     Node 1, Type 0, BuildingBlock: PAMTOO_clean_sbu_0, # of connection points: 6
#     Node 2, Type 0, BuildingBlock: PAMTOO_clean_sbu_0, # of connection points: 6
#     Node 3, Type 0, BuildingBlock: PAMTOO_clean_sbu_0, # of connection points: 6
#     Node 4, Type 0, BuildingBlock: PAMTOO_clean_sbu_0, # of connection points: 6
#     Node 5, Type 0, BuildingBlock: PAMTOO_clean_sbu_0, # of connection points: 6
#     Node 6, Type 0, BuildingBlock: PAMTOO_clean_sbu_0, # of connection points: 6
#     Node 7, Type 0, BuildingBlock: PAMTOO_clean_sbu_0, # of connection points: 6
#     Node 8, Type 0, BuildingBlock: PAMTOO_clean_sbu_0, # of connection points: 6
#     Node 9, Type 0, BuildingBlock: PAMTOO_clean_sbu_0, # of connection points: 6
#     Node 10, Type 0, BuildingBlock: PAMTOO_clean_sbu_0, # of connection points: 6
#     Node 11, Type 0, BuildingBlock: PAMTOO_clean_sbu_0, # of connection points: 6
#     Edge 12, Type (0, 0), BuildingBlock: CIFDUS_clean_linker_0, # of connection points: 2
#     Edge 13, Type (0, 0), BuildingBlock: CIFDUS_clean_linker_0, # of connection points: 2
#     Edge 14, Type (0, 0), BuildingBlock: CIFDUS_clean_linker_0, # of connection points: 2
#     Edge 15, Type (0, 0), BuildingBlock: CIFDUS_clean_linker_0, # of connection points: 2
#     Edge 16, Type (0, 0), BuildingBlock: CIFDUS_clean_linker_0, # of connection points: 2
#     Edge 17, Type (0, 0), BuildingBlock: CIFDUS_clean_linker_0, # of connection points: 2
#     Edge 18, Type (0, 0), BuildingBlock: CIFDUS_clean_linker_0, # of connection points: 2
#     Edge 19, Type (0, 0), BuildingBlock: CIFDUS_clean_linker_0, # of connection points: 2
#     Edge 20, Type (0, 0), BuildingBlock: CIFDUS_clean_linker_0, # of connection points: 2
#     Edge 21, Type (0, 0), BuildingBlock: CIFDUS_clean_linker_0, # of connection points: 2
#     Edge 22, Type (0, 0), BuildingBlock: CIFDUS_clean_linker_0, # of connection points: 2
#     Edge 23, Type (0, 0), BuildingBlock: CIFDUS_clean_linker_0, # of connection points: 2
#     Edge 24, Type (0, 0), BuildingBlock: CIFDUS_clean_linker_0, # of connection points: 2
#     Edge 25, Type (0, 0), BuildingBlock: CIFDUS_clean_linker_0, # of connection points: 2
#     Edge 26, Type (0, 0), BuildingBlock: CIFDUS_clean_linker_0, # of connection points: 2
#     Edge 27, Type (0, 0), BuildingBlock: CIFDUS_clean_linker_0, # of connection points: 2
#     Edge 28, Type (0, 0), BuildingBlock: CIFDUS_clean_linker_0, # of connection points: 2
#     Edge 29, Type (0, 0), BuildingBlock: CIFDUS_clean_linker_0, # of connection points: 2
#     Edge 30, Type (0, 0), BuildingBlock: CIFDUS_clean_linker_0, # of connection points: 2
#     Edge 31, Type (0, 0), BuildingBlock: CIFDUS_clean_linker_0, # of connection points: 2
#     Edge 32, Type (0, 0), BuildingBlock: CIFDUS_clean_linker_0, # of connection points: 2
#     Edge 33, Type (0, 0), BuildingBlock: CIFDUS_clean_linker_0, # of connection points: 2
#     Edge 34, Type (0, 0), BuildingBlock: CIFDUS_clean_linker_0, # of connection points: 2
#     Edge 35, Type (0, 0), BuildingBlock: CIFDUS_clean_linker_0, # of connection points: 2
#     Edge 36, Type (0, 0), BuildingBlock: CIFDUS_clean_linker_0, # of connection points: 2
#     Edge 37, Type (0, 0), BuildingBlock: CIFDUS_clean_linker_0, # of connection points: 2
#     Edge 38, Type (0, 0), BuildingBlock: CIFDUS_clean_linker_0, # of connection points: 2
#     Edge 39, Type (0, 0), BuildingBlock: CIFDUS_clean_linker_0, # of connection points: 2
#     Edge 40, Type (0, 0), BuildingBlock: CIFDUS_clean_linker_0, # of connection points: 2
#     Edge 41, Type (0, 0), BuildingBlock: CIFDUS_clean_linker_0, # of connection points: 2
#     Edge 42, Type (0, 0), BuildingBlock: CIFDUS_clean_linker_0, # of connection points: 2
#     Edge 43, Type (0, 0), BuildingBlock: CIFDUS_clean_linker_0, # of connection points: 2
#     Edge 44, Type (0, 0), BuildingBlock: CIFDUS_clean_linker_0, # of connection points: 2
#     Edge 45, Type (0, 0), BuildingBlock: CIFDUS_clean_linker_0, # of connection points: 2
#     Edge 46, Type (0, 0), BuildingBlock: CIFDUS_clean_linker_0, # of connection points: 2
#     Edge 47, Type (0, 0), BuildingBlock: CIFDUS_clean_linker_0, # of connection points: 2
# Relax obj value: 0.091
# Max RMSD: 0.210
# Mean RMSD: 0.210
data_MOF--net-wme--node1-PAMTOO_clean_sbu_0--edge1-CIFDUS_clean_linker_0
_symmetry_space_group_name_H-M    P1
_symmetry_Int_Tables_number       1
_symmetry_cell_setting            triclinic
loop_
_symmetry_equiv_pos_as_xyz
'x, y, z'
_cell_length_a     36.295818
_cell_length_b     36.435462
_cell_length_c     45.999992
_cell_angle_alpha  89.952057
_cell_angle_beta   90.055614
_cell_angle_gamma 120.03162
loop_
_atom_site_label
_atom_site_type_symbol
_atom_site_fract_x
_atom_site_fract_y
_atom_site_fract_z
_atom_type_partial_charge
Dy0 Dy 0.23696 0.31881 0.12696 0.0
Dy1 Dy 0.19823 0.37407 0.09468 0.0
C2 C 0.23017 0.31914 0.05945 0.0
O3 O 0.29302 0.38006 0.11163 0.0
O4 O 0.2623 0.42192 0.11091 0.0
O5 O 0.28148 0.29579 0.12637 0.0
O6 O 0.23586 0.27798 0.16148 0.0
O7 O 0.18649 0.37322 0.14277 0.0
O8 O 0.24134 0.36501 0.1599 0.0
O9 O 0.14909 0.30578 0.09047 0.0
O10 O 0.16582 0.28251 0.13185 0.0
O11 O 0.14458 0.3833 0.08746 0.0
O12 O 0.20468 0.42455 0.06636 0.0
C13 C 0.29616 0.4177 0.11078 0.0
O14 O 0.21953 0.29448 0.08221 0.0
O15 O 0.2295 0.35497 0.06005 0.0
C16 C 0.25326 0.22668 0.14505 0.0
C17 C 0.2345 0.14253 0.13487 0.0
C18 C 0.20168 0.15241 0.13592 0.0
C19 C 0.21099 0.19416 0.14078 0.0
C20 C 0.28595 0.21681 0.14435 0.0
C21 C 0.27671 0.17521 0.13926 0.0
C22 C 0.26415 0.27124 0.14884 0.0
C23 C 0.21199 0.3754 0.16396 0.0
C24 C 0.13817 0.27827 0.11175 0.0
C25 C 0.16069 0.45357 0.07795 0.0
C26 C 0.14722 0.52223 0.09014 0.0
C27 C 0.16801 0.50966 0.11039 0.0
C28 C 0.17461 0.47561 0.10437 0.0
C29 C 0.14019 0.46604 0.0577 0.0
C30 C 0.13351 0.49995 0.06369 0.0
C31 C 0.16607 0.41686 0.07133 0.0
H32 H 0.16891 0.12805 0.13232 0.0
H33 H 0.18522 0.20107 0.14083 0.0
H34 H 0.31876 0.24144 0.14745 0.0
H35 H 0.30266 0.16858 0.13888 0.0
H36 H 0.17865 0.52576 0.13108 0.0
H37 H 0.19031 0.4663 0.12037 0.0
H38 H 0.12921 0.44945 0.03718 0.0
H39 H 0.11807 0.50905 0.04737 0.0
Dy40 Dy 0.95408 0.24788 0.63799 0.0
Dy41 Dy 0.86158 0.21801 0.60478 0.0
C42 C 0.94783 0.24377 0.56963 0.0
O43 O 0.94462 0.3044 0.64001 0.0
O44 O 0.90368 0.28743 0.5989 0.0
O45 O 1.02294 0.28554 0.63927 0.0
O46 O 0.98876 0.23739 0.67194 0.0
O47 O 0.84902 0.22799 0.65125 0.0
O48 O 0.9119 0.24233 0.67412 0.0
O49 O 0.85447 0.16296 0.62993 0.0
O50 O 0.92334 0.1789 0.62559 0.0
O51 O 0.80672 0.1716 0.58026 0.0
O52 O 0.81476 0.23346 0.58968 0.0
C53 C 0.92608 0.31455 0.61937 0.0
O54 O 0.96878 0.26632 0.59215 0.0
O55 O 0.90656 0.21643 0.57112 0.0
C56 C 0.05527 0.24699 0.65631 0.0
C57 C 0.11268 0.2167 0.64844 0.0
C58 C 0.06884 0.1882 0.65151 0.0
C59 C 0.04037 0.20316 0.65523 0.0
C60 C 0.09899 0.27546 0.65317 0.0
C61 C 0.12741 0.2605 0.64916 0.0
C62 C 1.02579 0.26345 0.6606 0.0
C63 C 0.87322 0.23645 0.67454 0.0
C64 C 0.88296 0.15103 0.62987 0.0
C65 C 0.74403 0.17673 0.58549 0.0
C66 C 0.65689 0.14857 0.59612 0.0
C67 C 0.68662 0.1629 0.6191 0.0
C68 C 0.72973 0.17682 0.61385 0.0
C69 C 0.71435 0.16114 0.56273 0.0
C70 C 0.67129 0.14716 0.56794 0.0
C71 C 0.78987 0.19592 0.57879 0.0
H72 H 0.05649 0.15431 0.65071 0.0
H73 H 1.00674 0.18039 0.65726 0.0
H74 H 0.11118 0.30934 0.6539 0.0
H75 H 0.16105 0.28323 0.6471 0.0
H76 H 0.67668 0.16392 0.64113 0.0
H77 H 0.75208 0.18866 0.63179 0.0
H78 H 0.72472 0.16103 0.54066 0.0
H79 H 0.64962 0.1369 0.54964 0.0
Dy80 Dy 0.71995 0.92778 0.13332 0.0
Dy81 Dy 0.66579 0.83621 0.09887 0.0
C82 C 0.71997 0.92433 0.06519 0.0
O83 O 0.65712 0.92215 0.12029 0.0
O84 O 0.61716 0.84952 0.11726 0.0
O85 O 0.74433 0.99528 0.13508 0.0
O86 O 0.76049 0.96455 0.16905 0.0
O87 O 0.66597 0.82261 0.14653 0.0
O88 O 0.67387 0.88419 0.16587 0.0
O89 O 0.73417 0.85554 0.09412 0.0
O90 O 0.7568 0.89312 0.13643 0.0
O91 O 0.65292 0.77216 0.09193 0.0
O92 O 0.61854 0.79617 0.06734 0.0
C93 C 0.61998 0.88674 0.11934 0.0
O94 O 0.7441 0.93888 0.08823 0.0
O95 O 0.68437 0.88758 0.06544 0.0
C96 C 0.81397 0.03261 0.15433 0.0
C97 C 0.9015 0.09299 0.14898 0.0
C98 C 0.87909 0.06584 0.12571 0.0
C99 C 0.83582 0.03584 0.1284 0.0
C100 C 0.83611 0.05955 0.17759 0.0
C101 C 0.87947 0.08944 0.17497 0.0
C102 C 0.76855 1.00054 0.15751 0.0
C103 C 0.66265 0.84411 0.1684 0.0
C104 C 0.76162 0.87122 0.11553 0.0
C105 C 0.58049 0.72301 0.08007 0.0
C106 C 0.50259 0.64722 0.0905 0.0
C107 C 0.50426 0.67863 0.07184 0.0
C108 C 0.5427 0.71594 0.06662 0.0
C109 C 0.57902 0.69134 0.09841 0.0
C110 C 0.5405 0.65389 0.10357 0.0
C111 C 0.62115 0.76281 0.07434 0.0
H112 H 0.89516 0.06733 0.10554 0.0
H113 H 0.81947 1.01503 0.11025 0.0
H114 H 0.81987 0.05743 0.1978 0.0
H115 H 0.89564 0.11013 0.1932 0.0
H116 H 0.47583 0.6742 0.06097 0.0
H117 H 0.54278 0.73929 0.05199 0.0
H118 H 0.60759 0.69549 0.10889 0.0
H119 H 0.54031 0.63047 0.11818 0.0
Dy120 Dy 0.81007 0.72607 0.6339 0.0
Dy121 Dy 0.84928 0.66912 0.60696 0.0
C122 C 0.81903 0.72097 0.56713 0.0
O123 O 0.75316 0.66278 0.62036 0.0
O124 O 0.78449 0.62113 0.62122 0.0
O125 O 0.77077 0.75469 0.62874 0.0
O126 O 0.80856 0.76634 0.66778 0.0
O127 O 0.85331 0.6675 0.65587 0.0
O128 O 0.79941 0.67997 0.66854 0.0
O129 O 0.89832 0.73689 0.60117 0.0
O130 O 0.88125 0.76165 0.64131 0.0
O131 O 0.90252 0.658 0.60597 0.0
O132 O 0.84804 0.62218 0.57777 0.0
C133 C 0.75056 0.62518 0.6208 0.0
O134 O 0.82985 0.74747 0.58879 0.0
O135 O 0.81786 0.68449 0.57037 0.0
C136 C 0.80191 0.82302 0.64942 0.0
C137 C 0.83455 0.91134 0.64435 0.0
C138 C 0.85059 0.89077 0.62689 0.0
C139 C 0.83444 0.84704 0.62943 0.0
C140 C 0.78599 0.84329 0.66697 0.0
C141 C 0.80213 0.88701 0.66449 0.0
C142 C 0.78517 0.77712 0.65248 0.0
C143 C 0.8252 0.66579 0.6748 0.0
C144 C 0.90927 0.76533 0.62169 0.0
C145 C 0.88588 0.588 0.59397 0.0
C146 C 0.89203 0.51413 0.60095 0.0
C147 C 0.92874 0.55442 0.60157 0.0
C148 C 0.92568 0.59097 0.59797 0.0
C149 C 0.849 0.54783 0.59459 0.0
C150 C 0.85208 0.51131 0.59799 0.0
C151 C 0.88395 0.6268 0.5875 0.0
H152 H 0.87517 0.90834 0.61094 0.0
H153 H 0.84728 0.83192 0.61575 0.0
H154 H 0.76116 0.82532 0.6827 0.0
H155 H 0.78949 0.90182 0.67861 0.0
H156 H 0.95995 0.55761 0.6036 0.0
H157 H 0.95458 0.62159 0.59753 0.0
H158 H 0.81782 0.54446 0.5918 0.0
H159 H 0.82317 0.4807 0.59779 0.0
Dy160 Dy 0.10824 0.79594 0.13541 0.0
Dy161 Dy 0.2043 0.84163 0.10514 0.0
C162 C 0.11888 0.80838 0.06838 0.0
O163 O 0.11911 0.74275 0.12058 0.0
O164 O 0.19232 0.77909 0.12123 0.0
O165 O 0.04059 0.7526 0.13162 0.0
O166 O 0.06603 0.79121 0.17026 0.0
O167 O 0.21331 0.84987 0.15341 0.0
O168 O 0.15017 0.794 0.16983 0.0
O169 O 0.18293 0.88925 0.10305 0.0
O170 O 0.13901 0.86608 0.14269 0.0
O171 O 0.26692 0.89688 0.10033 0.0
O172 O 0.24973 0.84003 0.07551 0.0
C173 C 0.15584 0.74334 0.12067 0.0
O174 O 0.10318 0.81695 0.09118 0.0
O175 O 0.1555 0.80926 0.06997 0.0
C176 C 1.00017 0.78041 0.15279 0.0
C177 C 0.94106 0.80952 0.14911 0.0
C178 C 0.97144 0.81911 0.12706 0.0
C179 C 1.00083 0.80492 0.12897 0.0
C180 C 0.96991 0.77066 0.17476 0.0
C181 C 0.9407 0.7851 0.17299 0.0
C182 C 0.03185 0.76634 0.15539 0.0
C183 C 0.18993 0.82345 0.17413 0.0
C184 C 0.16299 0.89622 0.12422 0.0
C185 C 0.32295 0.88336 0.089 0.0
C186 C 0.40619 0.89653 0.09774 0.0
C187 C 0.39881 0.93096 0.0972 0.0
C188 C 0.35776 0.92443 0.0928 0.0
C189 C 0.33004 0.84881 0.08986 0.0
C190 C 0.37114 0.85533 0.09413 0.0
C191 C 0.28022 0.87772 0.08292 0.0
H192 H 0.97303 0.83826 0.10857 0.0
H193 H 1.02431 0.81341 0.11194 0.0
H194 H 0.96898 0.75201 0.1934 0.0
H195 H 0.91751 0.77677 0.19021 0.0
H196 H 0.42475 0.96306 0.10029 0.0
H197 H 0.35327 0.95166 0.09214 0.0
H198 H 0.30398 0.81673 0.08687 0.0
H199 H 0.37551 0.82804 0.09393 0.0
Dy200 Dy 0.33784 0.10733 0.63147 0.0
Dy201 Dy 0.39579 0.20082 0.59876 0.0
C202 C 0.3409 0.11366 0.56416 0.0
O203 O 0.4011 0.11264 0.61965 0.0
O204 O 0.44218 0.18548 0.61871 0.0
O205 O 0.30835 0.03902 0.63039 0.0
O206 O 0.2982 0.06981 0.66729 0.0
O207 O 0.39362 0.21314 0.64649 0.0
O208 O 0.38225 0.14972 0.66515 0.0
O209 O 0.32784 0.1829 0.59361 0.0
O210 O 0.30249 0.14311 0.63492 0.0
O211 O 0.40506 0.2628 0.58891 0.0
O212 O 0.44871 0.24424 0.57147 0.0
C213 C 0.43861 0.14784 0.62012 0.0
O214 O 0.315 0.10144 0.58629 0.0
O215 O 0.37801 0.14898 0.5655 0.0
C216 C 0.24019 1.00398 0.65269 0.0
C217 C 0.1511 0.94723 0.65101 0.0
C218 C 0.17217 0.97447 0.62743 0.0
C219 C 0.21619 1.00266 0.62831 0.0
C220 C 0.21936 0.97707 0.67627 0.0
C221 C 0.17532 0.94904 0.67548 0.0
C222 C 0.28658 0.03393 0.65415 0.0
C223 C 0.39388 0.18984 0.66836 0.0
C224 C 0.29968 0.167 0.61459 0.0
C225 C 0.47571 0.31803 0.57993 0.0
C226 C 0.54043 0.40348 0.58908 0.0
C227 C 0.51911 0.37656 0.61279 0.0
C228 C 0.48703 0.3343 0.60826 0.0
C229 C 0.49733 0.34448 0.55633 0.0
C230 C 0.52928 0.38661 0.5608 0.0
C231 C 0.43995 0.27471 0.57422 0.0
H232 H 0.15454 0.97438 0.6084 0.0
H233 H 0.23146 0.02352 0.60999 0.0
H234 H 0.2372 0.9777 0.69534 0.0
H235 H 0.16033 0.92827 0.69388 0.0
H236 H 0.52656 0.38839 0.63485 0.0
H237 H 0.47065 0.31454 0.62684 0.0
H238 H 0.48912 0.33264 0.53429 0.0
H239 H 0.54542 0.40594 0.54202 0.0
Dy240 Dy 0.72831 0.79641 0.37151 0.0
Dy241 Dy 0.66755 0.82692 0.40488 0.0
C242 C 0.72365 0.79663 0.43916 0.0
O243 O 0.66293 0.73874 0.36763 0.0
O244 O 0.62907 0.75665 0.40273 0.0
O245 O 0.76125 0.76062 0.37085 0.0
O246 O 0.77345 0.80714 0.33741 0.0
O247 O 0.64275 0.81658 0.35921 0.0
O248 O 0.69323 0.80597 0.33574 0.0
O249 O 0.71632 0.8812 0.37973 0.0
O250 O 0.76818 0.86464 0.38568 0.0
O251 O 0.65782 0.878 0.41912 0.0
O252 O 0.61423 0.81365 0.43264 0.0
C253 C 0.62965 0.72949 0.3842 0.0
O254 O 0.71908 0.77319 0.41657 0.0
O255 O 0.71418 0.82703 0.43751 0.0
C256 C 0.8318 0.80101 0.35389 0.0
C257 C 0.91965 0.83488 0.36455 0.0
C258 C 0.9006 0.85991 0.3687 0.0
C259 C 0.85701 0.84303 0.36358 0.0
C260 C 0.85079 0.7762 0.34938 0.0
C261 C 0.89425 0.79291 0.35466 0.0
C262 C 0.78562 0.78241 0.34924 0.0
C263 C 0.65966 0.81072 0.33557 0.0
C264 C 0.75663 0.89301 0.38101 0.0
C265 C 0.5851 0.85787 0.4249 0.0
C266 C 0.51121 0.86191 0.4119 0.0
C267 C 0.54368 0.87442 0.3911 0.0
C268 C 0.58027 0.87211 0.39747 0.0
C269 C 0.55329 0.84665 0.44587 0.0
C270 C 0.5167 0.84856 0.43945 0.0
C271 C 0.62182 0.85255 0.43184 0.0
H272 H 0.91918 0.89218 0.37652 0.0
H273 H 0.84292 0.86268 0.36743 0.0
H274 H 0.83192 0.74374 0.34194 0.0
H275 H 0.90806 0.77298 0.3509 0.0
H276 H 0.5401 0.88456 0.36966 0.0
H277 H 0.60434 0.88067 0.38084 0.0
H278 H 0.5564 0.83562 0.46713 0.0
H279 H 0.49239 0.83915 0.456 0.0
Dy280 Dy 0.96019 0.71178 0.88033 0.0
Dy281 Dy 0.86072 0.65669 0.90461 0.0
C282 C 0.9412 0.70117 0.94538 0.0
O283 O 0.94448 0.64452 0.87373 0.0
O284 O 0.88418 0.61072 0.90262 0.0
O285 O 1.02701 0.73562 0.88828 0.0
O286 O 1.00713 0.75604 0.85015 0.0
O287 O 0.85551 0.63667 0.85787 0.0
O288 O 0.92135 0.68828 0.84055 0.0
O289 O 0.86864 0.71517 0.88417 0.0
O290 O 0.93921 0.75808 0.89359 0.0
O291 O 0.79628 0.64518 0.90533 0.0
O292 O 0.81517 0.61189 0.93532 0.0
C293 C 0.91447 0.61049 0.88698 0.0
O294 O 0.95785 0.68947 0.92502 0.0
O295 O 0.90419 0.69841 0.94061 0.0
C296 C 0.07019 0.80687 0.87315 0.0
C297 C 0.12815 0.89331 0.88414 0.0
C298 C 0.10115 0.86696 0.90629 0.0
C299 C 0.07224 0.82418 0.90081 0.0
C300 C 0.09724 0.833 0.85109 0.0
C301 C 0.1259 0.87584 0.85649 0.0
C302 C 0.03898 0.76224 0.86662 0.0
C303 C 0.8829 0.65599 0.8366 0.0
C304 C 0.90143 0.75303 0.88796 0.0
C305 C 0.74347 0.57646 0.91923 0.0
C306 C 0.66521 0.50173 0.90794 0.0
C307 C 0.70238 0.51054 0.89258 0.0
C308 C 0.74112 0.54756 0.89816 0.0
C309 C 0.70657 0.56812 0.93438 0.0
C310 C 0.66782 0.53116 0.92881 0.0
C311 C 0.78375 0.61586 0.92519 0.0
H312 H 0.10187 0.8796 0.92772 0.0
H313 H 0.0513 0.80478 0.91812 0.0
H314 H 0.09602 0.82029 0.8296 0.0
H315 H 0.14662 0.89521 0.8391 0.0
H316 H 0.70149 0.4889 0.8761 0.0
H317 H 0.76922 0.55365 0.88604 0.0
H318 H 0.70776 0.59017 0.95066 0.0
H319 H 0.6401 0.52523 0.94131 0.0
Dy320 Dy 0.25165 0.9341 0.38011 0.0
Dy321 Dy 0.2143 0.83994 0.41253 0.0
C322 C 0.25419 0.92652 0.44713 0.0
O323 O 0.3037 0.91878 0.37245 0.0
O324 O 0.28383 0.86617 0.40714 0.0
O325 O 0.29463 1.00192 0.38167 0.0
O326 O 0.24796 0.97453 0.34726 0.0
O327 O 0.22039 0.82655 0.3657 0.0
O328 O 0.23051 0.88833 0.34386 0.0
O329 O 0.15887 0.84254 0.39532 0.0
O330 O 0.18573 0.9142 0.39665 0.0
O331 O 0.16277 0.77639 0.42078 0.0
O332 O 0.22252 0.79951 0.44336 0.0
C333 C 0.31116 0.89278 0.38808 0.0
O334 O 0.27814 0.94196 0.42424 0.0
O335 O 0.22069 0.88814 0.44619 0.0
C336 C 0.26399 0.04194 0.36516 0.0
C337 C 0.24269 0.10535 0.37622 0.0
C338 C 0.21088 0.06234 0.37545 0.0
C339 C 0.22145 0.03089 0.37014 0.0
C340 C 0.29571 0.08478 0.36578 0.0
C341 C 0.28522 0.11619 0.37131 0.0
C342 C 0.27604 1.00933 0.36007 0.0
C343 C 0.22371 0.84943 0.34261 0.0
C344 C 0.15324 0.87524 0.39612 0.0
C345 C 0.18475 0.72598 0.43057 0.0
C346 C 0.18256 0.64847 0.41835 0.0
C347 C 0.21544 0.68009 0.43533 0.0
C348 C 0.21647 0.71825 0.4414 0.0
C349 C 0.15149 0.69413 0.41397 0.0
C350 C 0.15046 0.65594 0.40789 0.0
C351 C 0.18573 0.76646 0.43722 0.0
H352 H 0.17792 0.05295 0.37946 0.0
H353 H 0.19642 0.99796 0.3701 0.0
H354 H 0.32871 0.09396 0.36208 0.0
H355 H 0.31039 0.14905 0.37146 0.0
H356 H 0.24029 0.67521 0.44423 0.0
H357 H 0.24217 0.74171 0.45465 0.0
H358 H 0.12621 0.69872 0.40553 0.0
H359 H 0.12485 0.63255 0.39458 0.0
Dy360 Dy 0.33082 0.24209 0.87408 0.0
Dy361 Dy 0.38552 0.20256 0.90679 0.0
C362 C 0.32885 0.23241 0.94172 0.0
O363 O 0.39239 0.29858 0.88936 0.0
O364 O 0.43372 0.26705 0.89197 0.0
O365 O 0.29995 0.27987 0.87606 0.0
O366 O 0.29449 0.24359 0.83736 0.0
O367 O 0.38725 0.19398 0.85848 0.0
O368 O 0.37883 0.24872 0.84178 0.0
O369 O 0.31709 0.153 0.9093 0.0
O370 O 0.29646 0.17164 0.86756 0.0
O371 O 0.39594 0.14937 0.91183 0.0
O372 O 0.43408 0.20697 0.93632 0.0
C373 C 0.42995 0.30107 0.89135 0.0
O374 O 0.30518 0.22266 0.91843 0.0
O375 O 0.36487 0.23186 0.94175 0.0
C376 C 0.23341 0.24717 0.85169 0.0
C377 C 0.14411 0.2137 0.85406 0.0
C378 C 0.1725 0.25724 0.8585 0.0
C379 C 0.2166 0.27376 0.85725 0.0
C380 C 0.20516 0.20363 0.84721 0.0
C381 C 0.16102 0.18715 0.8482 0.0
C382 C 0.28021 0.26508 0.85138 0.0
C383 C 0.39025 0.22023 0.83767 0.0
C384 C 0.29088 0.14317 0.88727 0.0
C385 C 0.46754 0.16745 0.92162 0.0
C386 C 0.54071 0.16092 0.90876 0.0
C387 C 0.54465 0.1993 0.91879 0.0
C388 C 0.50864 0.20255 0.92508 0.0
C389 C 0.46349 0.1289 0.91208 0.0
C390 C 0.49956 0.12568 0.90565 0.0
C391 C 0.42891 0.17013 0.92873 0.0
H392 H 0.16058 0.27865 0.86278 0.0
H393 H 0.23765 0.30737 0.86082 0.0
H394 H 0.21713 0.18219 0.84318 0.0
H395 H 0.14012 0.15344 0.84503 0.0
H396 H 0.57572 0.22695 0.92207 0.0
H397 H 0.51313 0.23262 0.93275 0.0
H398 H 0.43228 0.10113 0.90948 0.0
H399 H 0.49511 0.09572 0.8978 0.0
Dy400 Dy 0.106 0.31672 0.3742 0.0
Dy401 Dy 0.20256 0.37061 0.40273 0.0
C402 C 0.11874 0.31642 0.44129 0.0
O403 O 0.11308 0.37841 0.39045 0.0
O404 O 0.18603 0.41914 0.38896 0.0
O405 O 0.0379 0.28911 0.37828 0.0
O406 O 0.06476 0.27894 0.33917 0.0
O407 O 0.20923 0.3703 0.35424 0.0
O408 O 0.14518 0.36255 0.33999 0.0
O409 O 0.18366 0.30242 0.40615 0.0
O410 O 0.1392 0.27961 0.36684 0.0
O411 O 0.26663 0.38091 0.40497 0.0
O412 O 0.2489 0.41896 0.43115 0.0
C413 C 0.14833 0.41573 0.39091 0.0
O414 O 0.10227 0.29192 0.41865 0.0
O415 O 0.1553 0.35221 0.43934 0.0
C416 C 1.0018 0.22123 0.3571 0.0
C417 C 0.94738 0.1327 0.3625 0.0
C418 C 0.98615 0.15343 0.37779 0.0
C419 C 1.0131 0.19726 0.37509 0.0
C420 C 0.96353 0.2008 0.34156 0.0
C421 C 0.93657 0.15694 0.34419 0.0
C422 C 0.03027 0.26732 0.3543 0.0
C423 C 0.18461 0.37298 0.33433 0.0
C424 C 0.16394 0.27471 0.38541 0.0
C425 C 0.31991 0.45179 0.41375 0.0
C426 C 0.39703 0.52615 0.39956 0.0
C427 C 0.35765 0.52057 0.38995 0.0
C428 C 0.31949 0.48372 0.3969 0.0
C429 C 0.35909 0.45663 0.42266 0.0
C430 C 0.39731 0.4934 0.41559 0.0
C431 C 0.27994 0.41344 0.42225 0.0
H432 H 0.99533 0.13594 0.39228 0.0
H433 H 0.04272 0.21253 0.38717 0.0
H434 H 0.95449 0.21873 0.32737 0.0
H435 H 0.90733 0.14198 0.33172 0.0
H436 H 0.35632 0.54494 0.37728 0.0
H437 H 0.28965 0.48041 0.38945 0.0
H438 H 0.36008 0.43222 0.43553 0.0
H439 H 0.42696 0.49683 0.42356 0.0
Dy440 Dy 0.80247 0.08702 0.87501 0.0
Dy441 Dy 0.83894 0.18248 0.90188 0.0
C442 C 0.81165 0.10121 0.94175 0.0
O443 O 0.74482 0.09151 0.88946 0.0
O444 O 0.77344 0.16389 0.88836 0.0
O445 O 0.76146 0.01947 0.87983 0.0
O446 O 0.80396 0.04453 0.84284 0.0
O447 O 0.84144 0.18841 0.85288 0.0
O448 O 0.79014 0.12094 0.84009 0.0
O449 O 0.88951 0.16572 0.90704 0.0
O450 O 0.8735 0.1242 0.86692 0.0
O451 O 0.89174 0.24669 0.90369 0.0
O452 O 0.83581 0.22786 0.93039 0.0
C453 C 0.74042 0.12549 0.8894 0.0
O454 O 0.82311 0.08628 0.91998 0.0
O455 O 0.80968 0.13612 0.93894 0.0
C456 C 0.79293 0.97961 0.86353 0.0
C457 C 0.81732 0.91792 0.87332 0.0
C458 C 0.78314 0.91652 0.88868 0.0
C459 C 0.77101 0.94684 0.88377 0.0
C460 C 0.82771 0.9816 0.84855 0.0
C461 C 0.83985 0.95115 0.85347 0.0
C462 C 0.77872 1.01078 0.85796 0.0
C463 C 0.81419 0.16117 0.83386 0.0
C464 C 0.90149 0.14977 0.88612 0.0
C465 C 0.87327 0.29875 0.91369 0.0
C466 C 0.87587 0.37554 0.90037 0.0
C467 C 0.84221 0.33668 0.89024 0.0
C468 C 0.841 0.29857 0.89676 0.0
C469 C 0.90723 0.3374 0.92334 0.0
C470 C 0.9086 0.37549 0.91671 0.0
C471 C 0.87222 0.25912 0.92148 0.0
H472 H 0.76544 0.89167 0.90441 0.0
H473 H 0.74413 0.94437 0.8957 0.0
H474 H 0.84526 1.00633 0.83272 0.0
H475 H 0.86602 0.95288 0.84107 0.0
H476 H 0.81676 0.33574 0.87737 0.0
H477 H 0.81474 0.269 0.88884 0.0
H478 H 0.93249 0.33807 0.93633 0.0
H479 H 0.93464 0.4048 0.92513 0.0
H480 H 0.22197 0.9694 0.09812 0.0
H481 H 0.11788 0.92026 0.15928 0.0
H482 H 0.12987 0.99171 0.1673 0.0
H483 H 0.17148 0.06868 0.15815 0.0
H484 H 0.27636 0.11757 0.09775 0.0
H485 H 0.26262 0.04582 0.08839 0.0
C486 C 0.20166 0.9742 0.11306 0.0
C487 C 0.16905 0.93938 0.12805 0.0
C488 C 0.20907 1.01546 0.11788 0.0
C489 C 0.14331 0.9464 0.14749 0.0
C490 C 0.15014 0.9873 0.15211 0.0
C491 C 0.19106 0.06355 0.14275 0.0
C492 C 0.22502 0.09851 0.12877 0.0
C493 C 0.18314 0.02214 0.13759 0.0
C494 C 0.25039 0.09133 0.10911 0.0
C495 C 0.24243 0.05027 0.10363 0.0
H496 H 0.23131 0.13545 0.65132 0.0
H497 H 0.29187 0.2246 0.58114 0.0
H498 H 0.23931 0.24722 0.58516 0.0
H499 H 0.17733 0.24351 0.60945 0.0
H500 H 0.11594 0.15416 0.67919 0.0
H501 H 0.16729 0.12966 0.67433 0.0
C502 C 0.23291 0.15968 0.63682 0.0
C503 C 0.26573 0.17835 0.61606 0.0
C504 C 0.20242 0.17264 0.63918 0.0
C505 C 0.26705 0.20956 0.59733 0.0
C506 C 0.23703 0.22268 0.59965 0.0
C507 C 0.17532 0.21878 0.62364 0.0
C508 C 0.14305 0.20089 0.64476 0.0
C509 C 0.20484 0.20478 0.62067 0.0
C510 C 0.14035 0.16831 0.66265 0.0
C511 C 0.16981 0.15441 0.65997 0.0
H512 H 0.94183 0.14433 0.10271 0.0
H513 H 0.96488 0.11355 0.18893 0.0
H514 H 0.04024 0.16687 0.18471 0.0
H515 H 0.09949 0.22333 0.15688 0.0
H516 H 0.07576 0.25436 0.07083 0.0
H517 H 1.00114 0.19949 0.07453 0.0
C518 C 0.9634 0.14894 0.12047 0.0
C519 C 0.94759 0.12496 0.14612 0.0
C520 C 1.00671 0.17972 0.11793 0.0
C521 C 0.976 0.1319 0.16908 0.0
C522 C 1.01919 0.16224 0.16663 0.0
C523 C 0.07809 0.2179 0.13884 0.0
C524 C 0.09339 0.24308 0.11362 0.0
C525 C 0.03489 0.18652 0.14121 0.0
C526 C 0.06501 0.23564 0.09055 0.0
C527 C 1.02222 0.20423 0.09263 0.0
H528 H 0.78912 0.95223 0.64522 0.0
H529 H 0.91726 0.97512 0.63649 0.0
H530 H 0.94389 0.05115 0.63124 0.0
H531 H 0.93064 0.1115 0.62926 0.0
H532 H 0.80186 0.08707 0.63885 0.0
H533 H 0.77606 1.01173 0.64409 0.0
C534 C 0.82296 0.97382 0.64253 0.0
C535 C 0.85105 0.9578 0.64133 0.0
C536 C 0.83809 1.01746 0.63971 0.0
C537 C 0.89475 0.98638 0.63719 0.0
C538 C 0.91007 0.02996 0.63434 0.0
C539 C 0.89696 0.0897 0.63255 0.0
C540 C 0.86837 0.10522 0.63359 0.0
C541 C 0.88202 0.04593 0.63554 0.0
C542 C 0.82478 0.07633 0.63789 0.0
C543 C 0.80984 0.03305 0.6409 0.0
H544 H 0.89615 0.81024 0.10166 0.0
H545 H 0.91597 0.84363 0.19255 0.0
H546 H 0.864 0.86756 0.19001 0.0
H547 H 0.81132 0.8774 0.16222 0.0
H548 H 0.79069 0.8423 0.07157 0.0
H549 H 0.84483 0.82142 0.07372 0.0
C550 C 0.88945 0.82316 0.12085 0.0
C551 C 0.90997 0.82497 0.14727 0.0
C552 C 0.85931 0.83669 0.11929 0.0
C553 C 0.90032 0.84129 0.17201 0.0
C554 C 0.87073 0.85523 0.17054 0.0
C555 C 0.81895 0.86557 0.14287 0.0
C556 C 0.79684 0.86149 0.11677 0.0
C557 C 0.84979 0.85285 0.14434 0.0
C558 C 0.80699 0.8457 0.09199 0.0
C559 C 0.838 0.83368 0.09318 0.0
H560 H 0.9528 0.81928 0.66695 0.0
H561 H 0.96707 0.79112 0.57791 0.0
H562 H 0.04195 0.84524 0.57884 0.0
H563 H 0.1046 0.89842 0.60526 0.0
H564 H 0.09206 0.92683 0.69446 0.0
H565 H 1.01593 0.87484 0.69318 0.0
C566 C 0.97223 0.8253 0.6477 0.0
C567 C 0.95411 0.8009 0.62245 0.0
C568 C 1.0159 0.85636 0.64844 0.0
C569 C 0.97998 0.80907 0.59775 0.0
C570 C 1.02298 0.84011 0.59821 0.0
C571 C 0.08518 0.89371 0.62434 0.0
C572 C 0.10427 0.91659 0.64992 0.0
C573 C 0.04143 0.86362 0.6235 0.0
C574 C 0.07848 0.90936 0.67455 0.0
C575 C 0.03481 0.87973 0.6738 0.0
H576 H 0.12081 0.9241 0.37489 0.0
H577 H 0.08527 0.80545 0.41771 0.0
H578 H 1.01044 0.78373 0.41304 0.0
H579 H 0.95466 0.79557 0.39398 0.0
H580 H 0.98774 0.91256 0.34999 0.0
H581 H 0.06352 0.93793 0.35824 0.0
C582 C 0.09663 0.89386 0.38357 0.0
C583 C 0.10867 0.8663 0.39636 0.0
C584 C 0.05309 0.88101 0.38039 0.0
C585 C 0.07694 0.82709 0.40743 0.0
C586 C 0.03403 0.81454 0.40478 0.0
C587 C 0.97843 0.82659 0.38611 0.0
C588 C 0.96558 0.85182 0.37103 0.0
C589 C 1.02171 0.84072 0.3907 0.0
C590 C 0.99679 0.89244 0.36165 0.0
C591 C 0.04014 0.9069 0.36626 0.0
H592 H 0.14434 0.96094 0.85017 0.0
H593 H 0.18062 0.92776 0.93103 0.0
H594 H 0.23278 1.00229 0.93978 0.0
H595 H 0.26995 0.07641 0.92356 0.0
H596 H 0.23368 0.10967 0.84259 0.0
H597 H 0.17973 0.03561 0.83482 0.0
C598 C 0.1638 0.97005 0.86964 0.0
C599 C 0.15878 0.93882 0.88983 0.0
C600 C 0.19375 1.01295 0.87452 0.0
C601 C 0.18367 0.95119 0.91524 0.0
C602 C 0.21363 0.99377 0.92019 0.0
C603 C 0.25014 0.06758 0.90426 0.0
C604 C 0.25616 0.09866 0.88361 0.0
C605 C 0.21918 0.02488 0.89987 0.0
C606 C 0.22994 0.08651 0.85883 0.0
C607 C 0.19907 0.04409 0.85432 0.0
H608 H 0.2249 0.26343 0.41151 0.0
H609 H 0.11948 0.20423 0.35153 0.0
H610 H 0.13355 0.14596 0.34416 0.0
H611 H 0.17748 0.11303 0.35338 0.0
H612 H 0.2836 0.17316 0.41265 0.0
H613 H 0.26768 0.22986 0.42152 0.0
C614 C 0.20477 0.23765 0.39697 0.0
C615 C 0.17122 0.23833 0.38206 0.0
C616 C 0.21335 0.20449 0.39254 0.0
C617 C 0.14566 0.2047 0.36318 0.0
C618 C 0.15366 0.17131 0.35896 0.0
C619 C 0.19683 0.13833 0.36846 0.0
C620 C 0.23178 0.13892 0.38223 0.0
C621 C 0.18766 0.17105 0.37332 0.0
C622 C 0.25686 0.17222 0.40146 0.0
C623 C 0.24766 0.20457 0.40665 0.0
H624 H 0.10117 0.2312 0.89496 0.0
H625 H 0.08134 0.15608 0.81802 0.0
H626 H 1.00445 0.12834 0.82123 0.0
H627 H 0.94256 0.12702 0.84547 0.0
H628 H 0.96458 0.20265 0.92275 0.0
H629 H 0.0403 0.2284 0.91965 0.0
C630 C 0.08009 0.20898 0.87875 0.0
C631 C 0.09715 0.19607 0.85616 0.0
C632 C 0.03601 0.19311 0.88077 0.0
C633 C 0.06913 0.16648 0.83573 0.0
C634 C 1.02512 0.15071 0.83749 0.0
C635 C 0.9639 0.14895 0.86169 0.0
C636 C 0.94747 0.16283 0.88423 0.0
C637 C 1.0081 0.16394 0.85988 0.0
C638 C 0.97588 0.19127 0.90507 0.0
C639 C 1.01946 0.20622 0.90335 0.0
H640 H 0.86131 0.09185 0.36715 0.0
H641 H 0.96692 0.06892 0.36642 0.0
H642 H 0.91787 0.99286 0.37275 0.0
H643 H 0.84416 0.93236 0.37788 0.0
H644 H 0.73968 0.9574 0.37726 0.0
H645 H 0.789 0.03263 0.37172 0.0
C646 C 0.87369 0.07026 0.368 0.0
C647 C 0.91778 0.08624 0.36614 0.0
C648 C 0.84538 0.02666 0.37139 0.0
C649 C 0.93316 0.05766 0.36802 0.0
C650 C 0.90508 1.01407 0.3715 0.0
C651 C 0.83226 0.95429 0.37654 0.0
C652 C 0.78812 0.9389 0.37792 0.0
C653 C 0.86101 0.99812 0.37318 0.0
C654 C 0.77335 0.96798 0.37616 0.0
C655 C 0.80157 1.01124 0.373 0.0
H656 H 0.8257 0.75004 0.88514 0.0
H657 H 0.96082 0.83854 0.88696 0.0
H658 H 0.947 0.89779 0.88269 0.0
H659 H 0.8958 0.92405 0.87786 0.0
H660 H 0.76111 0.83341 0.87601 0.0
H661 H 0.77567 0.77543 0.88107 0.0
C662 C 0.85235 0.78223 0.88457 0.0
C663 C 0.8943 0.78973 0.88619 0.0
C664 C 0.84418 0.81583 0.88218 0.0
C665 C 0.92821 0.83181 0.88572 0.0
C666 C 0.9203 0.86567 0.88323 0.0
C667 C 0.86972 0.89158 0.87846 0.0
C668 C 0.82736 0.8832 0.87673 0.0
C669 C 0.87833 0.85803 0.8813 0.0
C670 C 0.79393 0.84093 0.87779 0.0
C671 C 0.80221 0.80766 0.88049 0.0
H672 H 0.09516 0.66448 0.10103 0.0
H673 H 0.22116 0.73254 0.13825 0.0
H674 H 0.22887 0.67028 0.13326 0.0
H675 H 0.20209 0.59783 0.11581 0.0
H676 H 0.07667 0.52895 0.078 0.0
H677 H 0.06682 0.58991 0.08546 0.0
C678 C 0.12403 0.66545 0.10838 0.0
C679 C 0.15753 0.70335 0.1199 0.0
C680 C 0.1287 0.62941 0.10503 0.0
C681 C 0.1949 0.70404 0.12908 0.0
C682 C 0.19943 0.66836 0.12625 0.0
C683 C 0.17231 0.59581 0.10958 0.0
C684 C 0.14032 0.55872 0.09622 0.0
C685 C 0.16685 0.63107 0.11386 0.0
C686 C 0.10221 0.55721 0.08792 0.0
C687 C 0.09641 0.59206 0.09233 0.0
H688 H 0.62836 0.18967 0.63084 0.0
H689 H 0.58369 0.08377 0.57195 0.0
H690 H 0.51101 0.07101 0.57629 0.0
H691 H 0.46065 0.09358 0.5941 0.0
H692 H 0.50741 0.20109 0.65168 0.0
H693 H 0.57805 0.20873 0.65119 0.0
C694 C 0.60268 0.16319 0.6194 0.0
C695 C 0.6118 0.13789 0.60101 0.0
C696 C 0.56101 0.15626 0.62178 0.0
C697 C 0.5779 0.10422 0.58598 0.0
C698 C 0.53619 0.09675 0.58853 0.0
C699 C 0.48615 0.11802 0.60699 0.0
C700 C 0.47877 0.14672 0.62291 0.0
C701 C 0.52739 0.12305 0.60598 0.0
C702 C 0.5123 0.17869 0.63916 0.0
C703 C 0.55279 0.18319 0.63883 0.0
H704 H 0.48666 0.56547 0.09383 0.0
H705 H 0.42546 0.64068 0.10054 0.0
H706 H 0.35689 0.57669 0.1081 0.0
H707 H 0.31395 0.49958 0.11159 0.0
H708 H 0.37425 0.42349 0.10521 0.0
H709 H 0.44354 0.48768 0.09922 0.0
C710 C 0.4584 0.56789 0.09727 0.0
C711 C 0.46127 0.60792 0.09635 0.0
C712 C 0.41887 0.53082 0.10168 0.0
C713 C 0.42416 0.61033 0.10059 0.0
C714 C 0.38491 0.57373 0.10509 0.0
C715 C 0.34218 0.49686 0.10901 0.0
C716 C 0.3387 0.45658 0.10877 0.0
C717 C 0.38183 0.53382 0.10542 0.0
C718 C 0.37585 0.45397 0.1055 0.0
C719 C 0.41554 0.49071 0.102 0.0
H720 H 0.94025 0.49414 0.63663 0.0
H721 H 0.85178 0.4467 0.56484 0.0
H722 H 0.85638 0.38234 0.56364 0.0
H723 H 0.88408 0.33917 0.583 0.0
H724 H 0.97096 0.38333 0.65573 0.0
H725 H 0.96887 0.44967 0.65628 0.0
C726 C 0.92215 0.46971 0.6207 0.0
C727 C 0.89537 0.47508 0.60101 0.0
C728 C 0.92479 0.43238 0.6202 0.0
C729 C 0.87197 0.44308 0.58057 0.0
C730 C 0.87482 0.40637 0.57972 0.0
C731 C 0.90295 0.36327 0.59894 0.0
C732 C 0.92786 0.35621 0.61922 0.0
C733 C 0.90094 0.40064 0.59946 0.0
C734 C 0.95168 0.38793 0.63977 0.0
C735 C 0.95035 0.4258 0.64014 0.0
H736 H 0.60053 0.94442 0.09615 0.0
H737 H 0.54816 0.82922 0.1465 0.0
H738 H 0.47824 0.8233 0.14566 0.0
H739 H 0.43085 0.84827 0.12849 0.0
H740 H 0.48114 0.96076 0.07529 0.0
H741 H 0.55258 0.9706 0.07977 0.0
C742 C 0.5739 0.91848 0.1073 0.0
C743 C 0.57953 0.88731 0.12136 0.0
C744 C 0.53318 0.91456 0.10607 0.0
C745 C 0.54461 0.85352 0.1354 0.0
C746 C 0.50455 0.85004 0.1349 0.0
C747 C 0.4573 0.87483 0.11768 0.0
C748 C 0.45023 0.90353 0.10146 0.0
C749 C 0.49823 0.87986 0.11982 0.0
C750 C 0.48539 0.93829 0.0882 0.0
C751 C 0.52637 0.94385 0.09059 0.0
H752 H 0.68062 0.59945 0.58575 0.0
H753 H 0.72871 0.56057 0.65803 0.0
H754 H 0.66682 0.48929 0.65595 0.0
H755 H 0.60256 0.43603 0.6308 0.0
H756 H 0.55478 0.47338 0.55738 0.0
H757 H 0.6128 0.54649 0.56242 0.0
C758 C 0.67685 0.57557 0.60143 0.0
C759 C 0.70898 0.58531 0.62217 0.0
C760 C 0.6416 0.53396 0.59952 0.0
C761 C 0.70426 0.55382 0.64196 0.0
C762 C 0.66899 0.51296 0.64068 0.0
C763 C 0.60432 0.46022 0.61617 0.0
C764 C 0.57432 0.4488 0.59358 0.0
C765 C 0.63797 0.50232 0.6191 0.0
C766 C 0.57774 0.48082 0.57466 0.0
C767 C 0.61084 0.52285 0.57764 0.0
H768 H 0.32451 0.82865 0.40154 0.0
H769 H 0.38932 0.95684 0.3689 0.0
H770 H 0.45751 0.95784 0.3713 0.0
H771 H 0.49911 0.92365 0.38701 0.0
H772 H 0.43188 0.79604 0.4208 0.0
H773 H 0.36415 0.79353 0.41375 0.0
C774 C 0.35348 0.8569 0.3948 0.0
C775 C 0.35193 0.89288 0.38547 0.0
C776 C 0.39219 0.85739 0.39672 0.0
C777 C 0.38967 0.92876 0.37623 0.0
C778 C 0.42865 0.92938 0.37778 0.0
C779 C 0.46952 0.89522 0.39246 0.0
C780 C 0.47049 0.86028 0.40483 0.0
C781 C 0.43041 0.89414 0.38862 0.0
C782 C 0.43199 0.82359 0.41179 0.0
C783 C 0.39325 0.82206 0.40766 0.0
H784 H 0.58408 0.48932 0.90507 0.0
H785 H 0.65439 0.42273 0.90009 0.0
H786 H 0.58834 0.3559 0.89338 0.0
H787 H 0.51104 0.31592 0.89044 0.0
H788 H 0.43902 0.38067 0.89614 0.0
H789 H 0.50538 0.4486 0.90119 0.0
C790 C 0.58493 0.46016 0.90264 0.0
C791 C 0.6244 0.46128 0.90303 0.0
C792 C 0.54654 0.42148 0.89898 0.0
C793 C 0.62476 0.42313 0.89944 0.0
C794 C 0.5869 0.38475 0.8958 0.0
C795 C 0.50956 0.34479 0.89271 0.0
C796 C 0.46982 0.34296 0.89301 0.0
C797 C 0.54767 0.38353 0.8957 0.0
C798 C 0.46901 0.38098 0.89582 0.0
C799 C 0.507 0.41986 0.89878 0.0
H800 H 0.11426 0.56734 0.41635 0.0
H801 H 0.25042 0.63906 0.4041 0.0
H802 H 0.25139 0.57394 0.39397 0.0
H803 H 0.21433 0.49687 0.38943 0.0
H804 H 0.07812 0.42407 0.401 0.0
H805 H 0.07644 0.48946 0.40995 0.0
C806 C 0.1441 0.56881 0.41117 0.0
C807 C 0.18229 0.60828 0.41131 0.0
C808 C 0.14446 0.53103 0.40514 0.0
C809 C 0.22065 0.60927 0.40478 0.0
C810 C 0.22122 0.572 0.39875 0.0
C811 C 0.18411 0.49509 0.39378 0.0
C812 C 0.14639 0.45535 0.39458 0.0
C813 C 0.18341 0.53271 0.39907 0.0
C814 C 0.10767 0.45406 0.40018 0.0
C815 C 0.1067 0.4915 0.40539 0.0
H816 H 0.72008 0.18493 0.87446 0.0
H817 H 0.66492 0.05838 0.90939 0.0
H818 H 0.59757 0.05737 0.91771 0.0
H819 H 0.5561 0.09483 0.91794 0.0
H820 H 0.61282 0.22103 0.88175 0.0
H821 H 0.67795 0.21988 0.87157 0.0
C822 C 0.69333 0.1569 0.88378 0.0
C823 C 0.69778 0.12188 0.89151 0.0
C824 C 0.65506 0.15673 0.88865 0.0
C825 C 0.66244 0.08574 0.90316 0.0
C826 C 0.62399 0.0853 0.90809 0.0
C827 C 0.58247 0.12189 0.90749 0.0
C828 C 0.57948 0.15831 0.90115 0.0
C829 C 0.62013 0.12093 0.90133 0.0
C830 C 0.61431 0.19303 0.88768 0.0
C831 C 0.65159 0.1923 0.88158 0.0
H832 H 0.47582 0.53987 0.38279 0.0
H833 H 0.40848 0.6052 0.40635 0.0
H834 H 0.47384 0.67314 0.40194 0.0
H835 H 0.55022 0.714 0.39395 0.0
H836 H 0.61972 0.65129 0.36992 0.0
H837 H 0.55342 0.58232 0.37173 0.0
C838 C 0.47554 0.56903 0.38688 0.0
C839 C 0.43711 0.5673 0.3949 0.0
C840 C 0.51358 0.60839 0.3843 0.0
C841 C 0.43726 0.60545 0.39981 0.0
C842 C 0.47475 0.64439 0.39748 0.0
C843 C 0.55101 0.68528 0.38905 0.0
C844 C 0.58998 0.68771 0.38222 0.0
C845 C 0.51307 0.64619 0.39009 0.0
C846 C 0.59017 0.65027 0.37529 0.0
C847 C 0.55229 0.61087 0.37648 0.0
H848 H 0.84715 0.53211 0.89532 0.0
H849 H 0.98078 0.59732 0.87377 0.0
H850 H 0.98026 0.52977 0.87461 0.0
H851 H 0.94235 0.4526 0.88423 0.0
H852 H 0.80875 0.38874 0.90593 0.0
H853 H 0.8087 0.45543 0.90194 0.0
C854 C 0.87625 0.53166 0.89075 0.0
C855 C 0.91412 0.56978 0.88489 0.0
C856 C 0.87567 0.49293 0.89128 0.0
C857 C 0.95125 0.56844 0.87843 0.0
C858 C 0.95098 0.52985 0.87901 0.0
C859 C 0.91325 0.45335 0.88803 0.0
C860 C 0.87564 0.41574 0.89549 0.0
C861 C 0.91349 0.49198 0.88587 0.0
C862 C 0.83801 0.41707 0.8999 0.0
C863 C 0.83801 0.45526 0.89782 0.0
H864 H 0.14218 0.37995 0.28775 0.0
H865 H 0.26163 0.38985 0.31269 0.0
H866 H 0.28276 0.39691 0.26178 0.0
H867 H 0.26396 0.39198 0.21038 0.0
H868 H 0.14362 0.37956 0.18509 0.0
H869 H 0.12658 0.38257 0.23611 0.0
C870 C 0.17308 0.38417 0.28213 0.0
C871 C 0.19996 0.38361 0.30403 0.0
C872 C 0.18479 0.38755 0.25278 0.0
C873 C 0.2401 0.3897 0.29632 0.0
C874 C 0.2522 0.39366 0.26718 0.0
C875 C 0.23417 0.39042 0.21594 0.0
C876 C 0.20477 0.38479 0.19398 0.0
C877 C 0.22425 0.39131 0.24525 0.0
C878 C 0.16671 0.38362 0.20157 0.0
C879 C 0.15684 0.38511 0.23075 0.0
H880 H 0.80069 0.17539 0.69902 0.0
H881 H 0.91123 0.29726 0.71524 0.0
H882 H 0.89907 0.28734 0.7676 0.0
H883 H 0.8654 0.2381 0.80836 0.0
H884 H 0.75701 0.11427 0.79174 0.0
H885 H 0.75973 0.13085 0.74034 0.0
C886 C 0.82088 0.20041 0.71406 0.0
C887 C 0.8567 0.23688 0.70355 0.0
C888 C 0.81487 0.19358 0.74418 0.0
C889 C 0.88333 0.26892 0.72308 0.0
C890 C 0.8767 0.26305 0.75299 0.0
C891 C 0.8419 0.21507 0.7936 0.0
C892 C 0.8119 0.17465 0.80384 0.0
C893 C 0.84395 0.22451 0.76381 0.0
C894 C 0.78123 0.14537 0.78442 0.0
C895 C 0.78259 0.1548 0.75493 0.0
H896 H 0.63618 0.8715 0.21445 0.0
H897 H 0.66123 0.77253 0.18755 0.0
H898 H 0.65421 0.74819 0.23774 0.0
H899 H 0.65308 0.76273 0.28955 0.0
H900 H 0.63048 0.86284 0.31703 0.0
H901 H 0.62329 0.87849 0.26616 0.0
C902 C 0.63947 0.8442 0.21952 0.0
C903 C 0.65027 0.82448 0.19746 0.0
C904 C 0.63594 0.83074 0.24846 0.0
C905 C 0.65339 0.78854 0.20418 0.0
C906 C 0.64952 0.77469 0.23288 0.0
C907 C 0.64551 0.78728 0.28435 0.0
C908 C 0.64297 0.81213 0.30673 0.0
C909 C 0.64258 0.79667 0.25525 0.0
C910 C 0.63253 0.84338 0.30003 0.0
C911 C 0.62892 0.85259 0.27098 0.0
H912 H 0.88421 0.65248 0.70183 0.0
H913 H 0.76282 0.64479 0.71509 0.0
H914 H 0.76602 0.63252 0.76682 0.0
H915 H 0.80889 0.63605 0.80935 0.0
H916 H 0.93191 0.64789 0.79613 0.0
H917 H 0.92208 0.64532 0.74356 0.0
C918 C 0.85809 0.64725 0.71593 0.0
C919 C 0.82396 0.65064 0.70476 0.0
C920 C 0.86049 0.6411 0.74583 0.0
C921 C 0.79006 0.64335 0.72327 0.0
C922 C 0.79175 0.63623 0.7529 0.0
C923 C 0.83276 0.63661 0.79488 0.0
C924 C 0.87113 0.64257 0.80632 0.0
C925 C 0.82762 0.6368 0.76462 0.0
C926 C 0.90221 0.64368 0.78756 0.0
C927 C 0.89674 0.64245 0.75754 0.0
H928 H 0.15657 0.76989 0.22041 0.0
H929 H 0.26338 0.89034 0.19454 0.0
H930 H 0.287 0.90569 0.24486 0.0
H931 H 0.2717 0.8896 0.29647 0.0
H932 H 0.16486 0.77042 0.32328 0.0
H933 H 0.14727 0.74928 0.27218 0.0
C934 C 0.18532 0.79926 0.22573 0.0
C935 C 0.20764 0.82935 0.2038 0.0
C936 C 0.19862 0.80809 0.25482 0.0
C937 C 0.24531 0.86683 0.21097 0.0
C938 C 0.25884 0.87571 0.23978 0.0
C939 C 0.24511 0.85859 0.29105 0.0
C940 C 0.21919 0.83172 0.3133 0.0
C941 C 0.23491 0.84726 0.26189 0.0
C942 C 0.1852 0.79146 0.30633 0.0
C943 C 0.17495 0.77965 0.27718 0.0
H944 H 0.40064 0.2692 0.79035 0.0
H945 H 0.40576 0.15844 0.81794 0.0
H946 H 0.41307 0.14258 0.76746 0.0
H947 H 0.40893 0.15511 0.7157 0.0
H948 H 0.40062 0.26398 0.68788 0.0
H949 H 0.40434 0.28602 0.73848 0.0
C950 C 0.40388 0.24185 0.78543 0.0
C951 C 0.40183 0.21458 0.80788 0.0
C952 C 0.40722 0.23244 0.75635 0.0
C953 C 0.4068 0.17972 0.80109 0.0
C954 C 0.41085 0.17054 0.77221 0.0
C955 C 0.4084 0.18395 0.72062 0.0
C956 C 0.40365 0.20743 0.6981 0.0
C957 C 0.40963 0.19588 0.74968 0.0
C958 C 0.40392 0.24516 0.70482 0.0
C959 C 0.40583 0.25765 0.73376 0.0
H960 H 0.2867 0.27564 0.94085 0.0
H961 H 0.34063 0.22268 0.99957 0.0
H962 H 0.31395 0.2447 0.04121 0.0
H963 H 0.27411 0.27759 0.06045 0.0
H964 H 0.22468 0.335 1.00179 0.0
H965 H 0.25102 0.31262 0.96018 0.0
C966 C 0.29255 0.26882 0.96279 0.0
C967 C 0.31503 0.24699 0.96725 0.0
C968 C 0.27795 0.28232 0.9864 0.0
C969 C 0.32328 0.23926 0.99569 0.0
C970 C 0.30795 0.25176 0.0194 0.0
C971 C 0.26895 0.28508 0.03853 0.0
C972 C 0.24687 0.3073 0.03405 0.0
C973 C 0.285 0.27301 0.01495 0.0
C974 C 0.24136 0.31775 0.00567 0.0
C975 C 0.25635 0.30492 0.98197 0.0
H976 H 0.03555 0.25539 0.44825 0.0
H977 H 0.14382 0.35275 0.49491 0.0
H978 H 0.09996 0.33809 0.53832 0.0
H979 H 0.03148 0.29985 0.56226 0.0
H980 H 0.92176 0.20325 0.51639 0.0
H981 H 0.96599 0.2158 0.473 0.0
C982 C 0.04976 0.27316 0.46799 0.0
C983 C 0.09315 0.30513 0.46833 0.0
C984 C 1.02411 0.26503 0.49277 0.0
C985 C 0.11072 0.32802 0.49403 0.0
C986 C 0.08559 0.31972 0.51882 0.0
C987 C 1.01682 0.28128 0.54288 0.0
C988 C 0.97305 0.25058 0.54267 0.0
C989 C 0.04227 0.28867 0.51829 0.0
C990 C 0.95517 0.22711 0.51719 0.0
C991 C 0.98052 0.23425 0.49243 0.0
H992 H 0.76148 1.00982 0.06373 0.0
H993 H 0.70697 0.8995 0.00832 0.0
H994 H 0.73135 0.94525 0.96524 0.0
H995 H 0.76904 1.01625 0.94372 0.0
H996 H 0.81883 0.12687 0.99859 0.0
H997 H 0.7951 0.0812 0.04191 0.0
C998 C 0.75501 0.99584 0.04219 0.0
C999 C 0.73297 0.9514 0.03906 0.0
C1000 C 0.76817 0.02231 0.01766 0.0
C1001 C 0.72396 0.93359 0.01115 0.0
C1002 C 0.73794 0.95972 0.98661 0.0
C1003 C 0.7748 0.0304 0.96519 0.0
C1004 C 0.79621 0.07482 0.96815 0.0
C1005 C 0.76025 1.00404 0.98967 0.0
C1006 C 0.80257 0.09277 0.99593 0.0
C1007 C 0.7891 0.06668 0.02058 0.0
H1008 H 0.804 0.7861 0.5585 0.0
H1009 H 0.79839 0.67808 0.51539 0.0
H1010 H 0.768 0.69227 0.4723 0.0
H1011 H 0.74189 0.73396 0.44762 0.0
H1012 H 0.74597 0.84133 0.49059 0.0
H1013 H 0.77793 0.82826 0.5335 0.0
C1014 C 0.79653 0.76578 0.53961 0.0
C1015 C 0.8037 0.73109 0.54013 0.0
C1016 C 0.77846 0.77372 0.51515 0.0
C1017 C 0.79338 0.70499 0.51554 0.0
C1018 C 0.77587 0.71302 0.49096 0.0
C1019 C 0.74966 0.75468 0.46631 0.0
C1020 C 0.74146 0.78868 0.46586 0.0
C1021 C 0.768 0.74705 0.49067 0.0
C1022 C 0.75177 0.81492 0.49039 0.0
C1023 C 0.77017 0.80752 0.51484 0.0
H1024 H 1.02371 0.72428 0.95208 0.0
H1025 H 0.92026 0.72762 0.99592 0.0
H1026 H 0.96748 0.76393 0.03735 0.0
H1027 H 0.03751 0.7924 0.06121 0.0
H1028 H 0.13974 0.78801 0.01623 0.0
H1029 H 0.09321 0.75473 0.97454 0.0
C1030 C 1.01107 0.73268 0.97066 0.0
C1031 C 0.96818 0.72269 0.97103 0.0
C1032 C 0.03827 0.75362 0.99397 0.0
C1033 C 0.95296 0.73458 0.99519 0.0
C1034 C 0.98 0.75542 0.01878 0.0
C1035 C 0.04984 0.78459 0.04219 0.0
C1036 C 0.09219 0.79264 0.04191 0.0
C1037 C 1.02267 0.76487 0.01841 0.0
C1038 C 0.10743 0.7822 0.01708 0.0
C1039 C 0.08077 0.763 0.99328 0.0
H1040 H 0.32166 1.00569 0.45247 0.0
H1041 H 0.21017 0.91261 0.49868 0.0
H1042 H 0.22663 0.96339 0.53848 0.0
H1043 H 0.2724 0.03411 0.55953 0.0
H1044 H 0.38369 0.12648 0.51273 0.0
H1045 H 0.36686 0.07572 0.47318 0.0
C1046 C 0.3008 0.99613 0.47123 0.0
C1047 C 0.26462 0.95514 0.47256 0.0
C1048 C 0.31018 0.02549 0.49366 0.0
C1049 C 0.23825 0.94373 0.49713 0.0
C1050 C 0.24757 0.97286 0.51978 0.0
C1051 C 0.29292 0.04343 0.54061 0.0
C1052 C 0.32929 0.08434 0.53907 0.0
C1053 C 0.28333 1.01389 0.51815 0.0
C1054 C 0.35551 0.09546 0.51445 0.0
C1055 C 0.34598 0.06635 0.4919 0.0
loop_
_geom_bond_atom_site_label_1
_geom_bond_atom_site_label_2
_geom_bond_distance
_geom_bond_site_symmetry_2
_ccdc_geom_bond_type
Dy0 O3 2.307 . S
Dy0 O5 2.395 . S
Dy0 O6 2.379 . S
Dy0 O8 2.339 . S
Dy0 O10 2.298 . S
Dy0 O14 2.275 . S
Dy0 C22 2.738 . S
Dy1 O4 2.298 . S
Dy1 O7 2.275 . S
Dy1 O9 2.307 . S
Dy1 O11 2.395 . S
Dy1 O12 2.379 . S
Dy1 O15 2.339 . S
Dy1 C31 2.738 . S
C2 O14 1.254 . S
C2 O15 1.257 . S
O3 Dy0 2.307 . S
O3 C13 1.266 . S
O4 Dy1 2.298 . S
O4 C13 1.236 . S
O5 Dy0 2.395 . S
O5 C22 1.255 . S
O6 Dy0 2.379 . S
O6 C22 1.249 . S
O7 Dy1 2.275 . S
O7 C23 1.254 . S
O8 Dy0 2.339 . S
O8 C23 1.257 . S
O9 Dy1 2.307 . S
O9 C24 1.266 . S
O10 Dy0 2.298 . S
O10 C24 1.236 . S
O11 Dy1 2.395 . S
O11 C31 1.255 . S
O12 Dy1 2.379 . S
O12 C31 1.249 . S
C13 O3 1.266 . S
C13 O4 1.236 . S
O14 Dy0 2.275 . S
O14 C2 1.254 . S
O15 Dy1 2.339 . S
O15 C2 1.257 . S
C16 C19 1.344 . S
C16 C20 1.328 . S
C16 C22 1.516 . S
C17 C18 1.304 . S
C17 C21 1.323 . S
C18 C17 1.304 . S
C18 C19 1.371 . S
C18 H32 0.930 . S
C19 C16 1.344 . S
C19 C18 1.371 . S
C19 H33 0.931 . S
C20 C16 1.328 . S
C20 C21 1.433 . S
C20 H34 0.931 . S
C21 C17 1.323 . S
C21 C20 1.433 . S
C21 H35 0.933 . S
C22 Dy0 2.738 . S
C22 O5 1.255 . S
C22 O6 1.249 . S
C22 C16 1.516 . S
C23 O7 1.254 . S
C23 O8 1.257 . S
C24 O9 1.266 . S
C24 O10 1.236 . S
C25 C28 1.344 . S
C25 C29 1.328 . S
C25 C31 1.516 . S
C26 C27 1.304 . S
C26 C30 1.323 . S
C27 C26 1.304 . S
C27 C28 1.371 . S
C27 H36 0.930 . S
C28 C25 1.344 . S
C28 C27 1.371 . S
C28 H37 0.931 . S
C29 C25 1.328 . S
C29 C30 1.433 . S
C29 H38 0.931 . S
C30 C26 1.323 . S
C30 C29 1.433 . S
C30 H39 0.933 . S
C31 Dy1 2.738 . S
C31 O11 1.255 . S
C31 O12 1.249 . S
C31 C25 1.516 . S
H32 C18 0.930 . S
H33 C19 0.931 . S
H34 C20 0.931 . S
H35 C21 0.933 . S
H36 C27 0.930 . S
H37 C28 0.931 . S
H38 C29 0.931 . S
H39 C30 0.933 . S
Dy40 O43 2.307 . S
Dy40 O45 2.395 . S
Dy40 O46 2.379 . S
Dy40 O48 2.339 . S
Dy40 O50 2.298 . S
Dy40 O54 2.275 . S
Dy40 C62 2.738 . S
Dy41 O44 2.298 . S
Dy41 O47 2.275 . S
Dy41 O49 2.307 . S
Dy41 O51 2.395 . S
Dy41 O52 2.379 . S
Dy41 O55 2.339 . S
Dy41 C71 2.738 . S
C42 O54 1.254 . S
C42 O55 1.257 . S
O43 Dy40 2.307 . S
O43 C53 1.266 . S
O44 Dy41 2.298 . S
O44 C53 1.236 . S
O45 Dy40 2.395 . S
O45 C62 1.255 . S
O46 Dy40 2.379 . S
O46 C62 1.249 . S
O47 Dy41 2.275 . S
O47 C63 1.254 . S
O48 Dy40 2.339 . S
O48 C63 1.257 . S
O49 Dy41 2.307 . S
O49 C64 1.266 . S
O50 Dy40 2.298 . S
O50 C64 1.236 . S
O51 Dy41 2.395 . S
O51 C71 1.255 . S
O52 Dy41 2.379 . S
O52 C71 1.249 . S
C53 O43 1.266 . S
C53 O44 1.236 . S
O54 Dy40 2.275 . S
O54 C42 1.254 . S
O55 Dy41 2.339 . S
O55 C42 1.257 . S
C56 C59 1.344 . S
C56 C60 1.328 . S
C56 C62 1.516 1_455 S
C57 C58 1.304 . S
C57 C61 1.323 . S
C58 C57 1.304 . S
C58 C59 1.371 . S
C58 H72 0.930 . S
C59 C56 1.344 . S
C59 C58 1.371 . S
C59 H73 0.931 . S
C60 C56 1.328 . S
C60 C61 1.433 . S
C60 H74 0.931 . S
C61 C57 1.323 . S
C61 C60 1.433 . S
C61 H75 0.933 . S
C62 Dy40 2.738 . S
C62 O45 1.255 . S
C62 O46 1.249 . S
C62 C56 1.516 1_655 S
C63 O47 1.254 . S
C63 O48 1.257 . S
C64 O49 1.266 . S
C64 O50 1.236 . S
C65 C68 1.344 . S
C65 C69 1.328 . S
C65 C71 1.516 . S
C66 C67 1.304 . S
C66 C70 1.323 . S
C67 C66 1.304 . S
C67 C68 1.371 . S
C67 H76 0.930 . S
C68 C65 1.344 . S
C68 C67 1.371 . S
C68 H77 0.931 . S
C69 C65 1.328 . S
C69 C70 1.433 . S
C69 H78 0.931 . S
C70 C66 1.323 . S
C70 C69 1.433 . S
C70 H79 0.933 . S
C71 Dy41 2.738 . S
C71 O51 1.255 . S
C71 O52 1.249 . S
C71 C65 1.516 . S
H72 C58 0.930 . S
H73 C59 0.931 . S
H74 C60 0.931 . S
H75 C61 0.933 . S
H76 C67 0.930 . S
H77 C68 0.931 . S
H78 C69 0.931 . S
H79 C70 0.933 . S
Dy80 O83 2.307 . S
Dy80 O85 2.395 . S
Dy80 O86 2.379 . S
Dy80 O88 2.339 . S
Dy80 O90 2.298 . S
Dy80 O94 2.275 . S
Dy80 C102 2.738 . S
Dy81 O84 2.298 . S
Dy81 O87 2.275 . S
Dy81 O89 2.307 . S
Dy81 O91 2.395 . S
Dy81 O92 2.379 . S
Dy81 O95 2.339 . S
Dy81 C111 2.738 . S
C82 O94 1.254 . S
C82 O95 1.257 . S
O83 Dy80 2.307 . S
O83 C93 1.266 . S
O84 Dy81 2.298 . S
O84 C93 1.236 . S
O85 Dy80 2.395 . S
O85 C102 1.255 . S
O86 Dy80 2.379 . S
O86 C102 1.249 . S
O87 Dy81 2.275 . S
O87 C103 1.254 . S
O88 Dy80 2.339 . S
O88 C103 1.257 . S
O89 Dy81 2.307 . S
O89 C104 1.266 . S
O90 Dy80 2.298 . S
O90 C104 1.236 . S
O91 Dy81 2.395 . S
O91 C111 1.255 . S
O92 Dy81 2.379 . S
O92 C111 1.249 . S
C93 O83 1.266 . S
C93 O84 1.236 . S
O94 Dy80 2.275 . S
O94 C82 1.254 . S
O95 Dy81 2.339 . S
O95 C82 1.257 . S
C96 C99 1.344 . S
C96 C100 1.328 . S
C96 C102 1.516 1_545 S
C97 C98 1.304 . S
C97 C101 1.323 . S
C98 C97 1.304 . S
C98 C99 1.371 . S
C98 H112 0.930 . S
C99 C96 1.344 . S
C99 C98 1.371 . S
C99 H113 0.931 . S
C100 C96 1.328 . S
C100 C101 1.433 . S
C100 H114 0.931 . S
C101 C97 1.323 . S
C101 C100 1.433 . S
C101 H115 0.933 . S
C102 Dy80 2.738 . S
C102 O85 1.255 . S
C102 O86 1.249 . S
C102 C96 1.516 1_565 S
C103 O87 1.254 . S
C103 O88 1.257 . S
C104 O89 1.266 . S
C104 O90 1.236 . S
C105 C108 1.344 . S
C105 C109 1.328 . S
C105 C111 1.516 . S
C106 C107 1.304 . S
C106 C110 1.323 . S
C107 C106 1.304 . S
C107 C108 1.371 . S
C107 H116 0.930 . S
C108 C105 1.344 . S
C108 C107 1.371 . S
C108 H117 0.931 . S
C109 C105 1.328 . S
C109 C110 1.433 . S
C109 H118 0.931 . S
C110 C106 1.323 . S
C110 C109 1.433 . S
C110 H119 0.933 . S
C111 Dy81 2.738 . S
C111 O91 1.255 . S
C111 O92 1.249 . S
C111 C105 1.516 . S
H112 C98 0.930 . S
H113 C99 0.931 . S
H114 C100 0.931 . S
H115 C101 0.933 . S
H116 C107 0.930 . S
H117 C108 0.931 . S
H118 C109 0.931 . S
H119 C110 0.933 . S
Dy120 O123 2.307 . S
Dy120 O125 2.395 . S
Dy120 O126 2.379 . S
Dy120 O128 2.339 . S
Dy120 O130 2.298 . S
Dy120 O134 2.275 . S
Dy120 C142 2.738 . S
Dy121 O124 2.298 . S
Dy121 O127 2.275 . S
Dy121 O129 2.307 . S
Dy121 O131 2.395 . S
Dy121 O132 2.379 . S
Dy121 O135 2.339 . S
Dy121 C151 2.738 . S
C122 O134 1.254 . S
C122 O135 1.257 . S
O123 Dy120 2.307 . S
O123 C133 1.266 . S
O124 Dy121 2.298 . S
O124 C133 1.236 . S
O125 Dy120 2.395 . S
O125 C142 1.255 . S
O126 Dy120 2.379 . S
O126 C142 1.249 . S
O127 Dy121 2.275 . S
O127 C143 1.254 . S
O128 Dy120 2.339 . S
O128 C143 1.257 . S
O129 Dy121 2.307 . S
O129 C144 1.266 . S
O130 Dy120 2.298 . S
O130 C144 1.236 . S
O131 Dy121 2.395 . S
O131 C151 1.255 . S
O132 Dy121 2.379 . S
O132 C151 1.249 . S
C133 O123 1.266 . S
C133 O124 1.236 . S
O134 Dy120 2.275 . S
O134 C122 1.254 . S
O135 Dy121 2.339 . S
O135 C122 1.257 . S
C136 C139 1.344 . S
C136 C140 1.328 . S
C136 C142 1.516 . S
C137 C138 1.304 . S
C137 C141 1.323 . S
C138 C137 1.304 . S
C138 C139 1.371 . S
C138 H152 0.930 . S
C139 C136 1.344 . S
C139 C138 1.371 . S
C139 H153 0.931 . S
C140 C136 1.328 . S
C140 C141 1.433 . S
C140 H154 0.931 . S
C141 C137 1.323 . S
C141 C140 1.433 . S
C141 H155 0.933 . S
C142 Dy120 2.738 . S
C142 O125 1.255 . S
C142 O126 1.249 . S
C142 C136 1.516 . S
C143 O127 1.254 . S
C143 O128 1.257 . S
C144 O129 1.266 . S
C144 O130 1.236 . S
C145 C148 1.344 . S
C145 C149 1.328 . S
C145 C151 1.516 . S
C146 C147 1.304 . S
C146 C150 1.323 . S
C147 C146 1.304 . S
C147 C148 1.371 . S
C147 H156 0.930 . S
C148 C145 1.344 . S
C148 C147 1.371 . S
C148 H157 0.931 . S
C149 C145 1.328 . S
C149 C150 1.433 . S
C149 H158 0.931 . S
C150 C146 1.323 . S
C150 C149 1.433 . S
C150 H159 0.933 . S
C151 Dy121 2.738 . S
C151 O131 1.255 . S
C151 O132 1.249 . S
C151 C145 1.516 . S
H152 C138 0.930 . S
H153 C139 0.931 . S
H154 C140 0.931 . S
H155 C141 0.933 . S
H156 C147 0.930 . S
H157 C148 0.931 . S
H158 C149 0.931 . S
H159 C150 0.933 . S
Dy160 O163 2.307 . S
Dy160 O165 2.395 . S
Dy160 O166 2.379 . S
Dy160 O168 2.339 . S
Dy160 O170 2.298 . S
Dy160 O174 2.275 . S
Dy160 C182 2.738 . S
Dy161 O164 2.298 . S
Dy161 O167 2.275 . S
Dy161 O169 2.307 . S
Dy161 O171 2.395 . S
Dy161 O172 2.379 . S
Dy161 O175 2.339 . S
Dy161 C191 2.738 . S
C162 O174 1.254 . S
C162 O175 1.257 . S
O163 Dy160 2.307 . S
O163 C173 1.266 . S
O164 Dy161 2.298 . S
O164 C173 1.236 . S
O165 Dy160 2.395 . S
O165 C182 1.255 . S
O166 Dy160 2.379 . S
O166 C182 1.249 . S
O167 Dy161 2.275 . S
O167 C183 1.254 . S
O168 Dy160 2.339 . S
O168 C183 1.257 . S
O169 Dy161 2.307 . S
O169 C184 1.266 . S
O170 Dy160 2.298 . S
O170 C184 1.236 . S
O171 Dy161 2.395 . S
O171 C191 1.255 . S
O172 Dy161 2.379 . S
O172 C191 1.249 . S
C173 O163 1.266 . S
C173 O164 1.236 . S
O174 Dy160 2.275 . S
O174 C162 1.254 . S
O175 Dy161 2.339 . S
O175 C162 1.257 . S
C176 C179 1.344 . S
C176 C180 1.328 . S
C176 C182 1.516 1_655 S
C177 C178 1.304 . S
C177 C181 1.323 . S
C178 C177 1.304 . S
C178 C179 1.371 . S
C178 H192 0.930 . S
C179 C176 1.344 . S
C179 C178 1.371 . S
C179 H193 0.931 . S
C180 C176 1.328 . S
C180 C181 1.433 . S
C180 H194 0.931 . S
C181 C177 1.323 . S
C181 C180 1.433 . S
C181 H195 0.933 . S
C182 Dy160 2.738 . S
C182 O165 1.255 . S
C182 O166 1.249 . S
C182 C176 1.516 1_455 S
C183 O167 1.254 . S
C183 O168 1.257 . S
C184 O169 1.266 . S
C184 O170 1.236 . S
C185 C188 1.344 . S
C185 C189 1.328 . S
C185 C191 1.516 . S
C186 C187 1.304 . S
C186 C190 1.323 . S
C187 C186 1.304 . S
C187 C188 1.371 . S
C187 H196 0.930 . S
C188 C185 1.344 . S
C188 C187 1.371 . S
C188 H197 0.931 . S
C189 C185 1.328 . S
C189 C190 1.433 . S
C189 H198 0.931 . S
C190 C186 1.323 . S
C190 C189 1.433 . S
C190 H199 0.933 . S
C191 Dy161 2.738 . S
C191 O171 1.255 . S
C191 O172 1.249 . S
C191 C185 1.516 . S
H192 C178 0.930 . S
H193 C179 0.931 . S
H194 C180 0.931 . S
H195 C181 0.933 . S
H196 C187 0.930 . S
H197 C188 0.931 . S
H198 C189 0.931 . S
H199 C190 0.933 . S
Dy200 O203 2.307 . S
Dy200 O205 2.395 . S
Dy200 O206 2.379 . S
Dy200 O208 2.339 . S
Dy200 O210 2.298 . S
Dy200 O214 2.275 . S
Dy200 C222 2.738 . S
Dy201 O204 2.298 . S
Dy201 O207 2.275 . S
Dy201 O209 2.307 . S
Dy201 O211 2.395 . S
Dy201 O212 2.379 . S
Dy201 O215 2.339 . S
Dy201 C231 2.738 . S
C202 O214 1.254 . S
C202 O215 1.257 . S
O203 Dy200 2.307 . S
O203 C213 1.266 . S
O204 Dy201 2.298 . S
O204 C213 1.236 . S
O205 Dy200 2.395 . S
O205 C222 1.255 . S
O206 Dy200 2.379 . S
O206 C222 1.249 . S
O207 Dy201 2.275 . S
O207 C223 1.254 . S
O208 Dy200 2.339 . S
O208 C223 1.257 . S
O209 Dy201 2.307 . S
O209 C224 1.266 . S
O210 Dy200 2.298 . S
O210 C224 1.236 . S
O211 Dy201 2.395 . S
O211 C231 1.255 . S
O212 Dy201 2.379 . S
O212 C231 1.249 . S
C213 O203 1.266 . S
C213 O204 1.236 . S
O214 Dy200 2.275 . S
O214 C202 1.254 . S
O215 Dy201 2.339 . S
O215 C202 1.257 . S
C216 C219 1.344 . S
C216 C220 1.328 . S
C216 C222 1.516 1_565 S
C217 C218 1.304 . S
C217 C221 1.323 . S
C218 C217 1.304 . S
C218 C219 1.371 . S
C218 H232 0.930 . S
C219 C216 1.344 . S
C219 C218 1.371 . S
C219 H233 0.931 . S
C220 C216 1.328 . S
C220 C221 1.433 . S
C220 H234 0.931 . S
C221 C217 1.323 . S
C221 C220 1.433 . S
C221 H235 0.933 . S
C222 Dy200 2.738 . S
C222 O205 1.255 . S
C222 O206 1.249 . S
C222 C216 1.516 1_545 S
C223 O207 1.254 . S
C223 O208 1.257 . S
C224 O209 1.266 . S
C224 O210 1.236 . S
C225 C228 1.344 . S
C225 C229 1.328 . S
C225 C231 1.516 . S
C226 C227 1.304 . S
C226 C230 1.323 . S
C227 C226 1.304 . S
C227 C228 1.371 . S
C227 H236 0.930 . S
C228 C225 1.344 . S
C228 C227 1.371 . S
C228 H237 0.931 . S
C229 C225 1.328 . S
C229 C230 1.433 . S
C229 H238 0.931 . S
C230 C226 1.323 . S
C230 C229 1.433 . S
C230 H239 0.933 . S
C231 Dy201 2.738 . S
C231 O211 1.255 . S
C231 O212 1.249 . S
C231 C225 1.516 . S
H232 C218 0.930 . S
H233 C219 0.931 . S
H234 C220 0.931 . S
H235 C221 0.933 . S
H236 C227 0.930 . S
H237 C228 0.931 . S
H238 C229 0.931 . S
H239 C230 0.933 . S
Dy240 O243 2.307 . S
Dy240 O245 2.395 . S
Dy240 O246 2.379 . S
Dy240 O248 2.339 . S
Dy240 O250 2.298 . S
Dy240 O254 2.275 . S
Dy240 C262 2.738 . S
Dy241 O244 2.298 . S
Dy241 O247 2.275 . S
Dy241 O249 2.307 . S
Dy241 O251 2.395 . S
Dy241 O252 2.379 . S
Dy241 O255 2.339 . S
Dy241 C271 2.738 . S
C242 O254 1.254 . S
C242 O255 1.257 . S
O243 Dy240 2.307 . S
O243 C253 1.266 . S
O244 Dy241 2.298 . S
O244 C253 1.236 . S
O245 Dy240 2.395 . S
O245 C262 1.255 . S
O246 Dy240 2.379 . S
O246 C262 1.249 . S
O247 Dy241 2.275 . S
O247 C263 1.254 . S
O248 Dy240 2.339 . S
O248 C263 1.257 . S
O249 Dy241 2.307 . S
O249 C264 1.266 . S
O250 Dy240 2.298 . S
O250 C264 1.236 . S
O251 Dy241 2.395 . S
O251 C271 1.255 . S
O252 Dy241 2.379 . S
O252 C271 1.249 . S
C253 O243 1.266 . S
C253 O244 1.236 . S
O254 Dy240 2.275 . S
O254 C242 1.254 . S
O255 Dy241 2.339 . S
O255 C242 1.257 . S
C256 C259 1.344 . S
C256 C260 1.328 . S
C256 C262 1.516 . S
C257 C258 1.304 . S
C257 C261 1.323 . S
C258 C257 1.304 . S
C258 C259 1.371 . S
C258 H272 0.930 . S
C259 C256 1.344 . S
C259 C258 1.371 . S
C259 H273 0.931 . S
C260 C256 1.328 . S
C260 C261 1.433 . S
C260 H274 0.931 . S
C261 C257 1.323 . S
C261 C260 1.433 . S
C261 H275 0.933 . S
C262 Dy240 2.738 . S
C262 O245 1.255 . S
C262 O246 1.249 . S
C262 C256 1.516 . S
C263 O247 1.254 . S
C263 O248 1.257 . S
C264 O249 1.266 . S
C264 O250 1.236 . S
C265 C268 1.344 . S
C265 C269 1.328 . S
C265 C271 1.516 . S
C266 C267 1.304 . S
C266 C270 1.323 . S
C267 C266 1.304 . S
C267 C268 1.371 . S
C267 H276 0.930 . S
C268 C265 1.344 . S
C268 C267 1.371 . S
C268 H277 0.931 . S
C269 C265 1.328 . S
C269 C270 1.433 . S
C269 H278 0.931 . S
C270 C266 1.323 . S
C270 C269 1.433 . S
C270 H279 0.933 . S
C271 Dy241 2.738 . S
C271 O251 1.255 . S
C271 O252 1.249 . S
C271 C265 1.516 . S
H272 C258 0.930 . S
H273 C259 0.931 . S
H274 C260 0.931 . S
H275 C261 0.933 . S
H276 C267 0.930 . S
H277 C268 0.931 . S
H278 C269 0.931 . S
H279 C270 0.933 . S
Dy280 O283 2.307 . S
Dy280 O285 2.395 . S
Dy280 O286 2.379 . S
Dy280 O288 2.339 . S
Dy280 O290 2.298 . S
Dy280 O294 2.275 . S
Dy280 C302 2.738 . S
Dy281 O284 2.298 . S
Dy281 O287 2.275 . S
Dy281 O289 2.307 . S
Dy281 O291 2.395 . S
Dy281 O292 2.379 . S
Dy281 O295 2.339 . S
Dy281 C311 2.738 . S
C282 O294 1.254 . S
C282 O295 1.257 . S
O283 Dy280 2.307 . S
O283 C293 1.266 . S
O284 Dy281 2.298 . S
O284 C293 1.236 . S
O285 Dy280 2.395 . S
O285 C302 1.255 . S
O286 Dy280 2.379 . S
O286 C302 1.249 . S
O287 Dy281 2.275 . S
O287 C303 1.254 . S
O288 Dy280 2.339 . S
O288 C303 1.257 . S
O289 Dy281 2.307 . S
O289 C304 1.266 . S
O290 Dy280 2.298 . S
O290 C304 1.236 . S
O291 Dy281 2.395 . S
O291 C311 1.255 . S
O292 Dy281 2.379 . S
O292 C311 1.249 . S
C293 O283 1.266 . S
C293 O284 1.236 . S
O294 Dy280 2.275 . S
O294 C282 1.254 . S
O295 Dy281 2.339 . S
O295 C282 1.257 . S
C296 C299 1.344 . S
C296 C300 1.328 . S
C296 C302 1.516 1_455 S
C297 C298 1.304 . S
C297 C301 1.323 . S
C298 C297 1.304 . S
C298 C299 1.371 . S
C298 H312 0.930 . S
C299 C296 1.344 . S
C299 C298 1.371 . S
C299 H313 0.931 . S
C300 C296 1.328 . S
C300 C301 1.433 . S
C300 H314 0.931 . S
C301 C297 1.323 . S
C301 C300 1.433 . S
C301 H315 0.933 . S
C302 Dy280 2.738 . S
C302 O285 1.255 . S
C302 O286 1.249 . S
C302 C296 1.516 1_655 S
C303 O287 1.254 . S
C303 O288 1.257 . S
C304 O289 1.266 . S
C304 O290 1.236 . S
C305 C308 1.344 . S
C305 C309 1.328 . S
C305 C311 1.516 . S
C306 C307 1.304 . S
C306 C310 1.323 . S
C307 C306 1.304 . S
C307 C308 1.371 . S
C307 H316 0.930 . S
C308 C305 1.344 . S
C308 C307 1.371 . S
C308 H317 0.931 . S
C309 C305 1.328 . S
C309 C310 1.433 . S
C309 H318 0.931 . S
C310 C306 1.323 . S
C310 C309 1.433 . S
C310 H319 0.933 . S
C311 Dy281 2.738 . S
C311 O291 1.255 . S
C311 O292 1.249 . S
C311 C305 1.516 . S
H312 C298 0.930 . S
H313 C299 0.931 . S
H314 C300 0.931 . S
H315 C301 0.933 . S
H316 C307 0.930 . S
H317 C308 0.931 . S
H318 C309 0.931 . S
H319 C310 0.933 . S
Dy320 O323 2.307 . S
Dy320 O325 2.395 . S
Dy320 O326 2.379 . S
Dy320 O328 2.339 . S
Dy320 O330 2.298 . S
Dy320 O334 2.275 . S
Dy320 C342 2.738 . S
Dy321 O324 2.298 . S
Dy321 O327 2.275 . S
Dy321 O329 2.307 . S
Dy321 O331 2.395 . S
Dy321 O332 2.379 . S
Dy321 O335 2.339 . S
Dy321 C351 2.738 . S
C322 O334 1.254 . S
C322 O335 1.257 . S
O323 Dy320 2.307 . S
O323 C333 1.266 . S
O324 Dy321 2.298 . S
O324 C333 1.236 . S
O325 Dy320 2.395 . S
O325 C342 1.255 . S
O326 Dy320 2.379 . S
O326 C342 1.249 . S
O327 Dy321 2.275 . S
O327 C343 1.254 . S
O328 Dy320 2.339 . S
O328 C343 1.257 . S
O329 Dy321 2.307 . S
O329 C344 1.266 . S
O330 Dy320 2.298 . S
O330 C344 1.236 . S
O331 Dy321 2.395 . S
O331 C351 1.255 . S
O332 Dy321 2.379 . S
O332 C351 1.249 . S
C333 O323 1.266 . S
C333 O324 1.236 . S
O334 Dy320 2.275 . S
O334 C322 1.254 . S
O335 Dy321 2.339 . S
O335 C322 1.257 . S
C336 C339 1.344 . S
C336 C340 1.328 . S
C336 C342 1.516 1_545 S
C337 C338 1.304 . S
C337 C341 1.323 . S
C338 C337 1.304 . S
C338 C339 1.371 . S
C338 H352 0.930 . S
C339 C336 1.344 . S
C339 C338 1.371 . S
C339 H353 0.931 . S
C340 C336 1.328 . S
C340 C341 1.433 . S
C340 H354 0.931 . S
C341 C337 1.323 . S
C341 C340 1.433 . S
C341 H355 0.933 . S
C342 Dy320 2.738 . S
C342 O325 1.255 . S
C342 O326 1.249 . S
C342 C336 1.516 1_565 S
C343 O327 1.254 . S
C343 O328 1.257 . S
C344 O329 1.266 . S
C344 O330 1.236 . S
C345 C348 1.344 . S
C345 C349 1.328 . S
C345 C351 1.516 . S
C346 C347 1.304 . S
C346 C350 1.323 . S
C347 C346 1.304 . S
C347 C348 1.371 . S
C347 H356 0.930 . S
C348 C345 1.344 . S
C348 C347 1.371 . S
C348 H357 0.931 . S
C349 C345 1.328 . S
C349 C350 1.433 . S
C349 H358 0.931 . S
C350 C346 1.323 . S
C350 C349 1.433 . S
C350 H359 0.933 . S
C351 Dy321 2.738 . S
C351 O331 1.255 . S
C351 O332 1.249 . S
C351 C345 1.516 . S
H352 C338 0.930 . S
H353 C339 0.931 . S
H354 C340 0.931 . S
H355 C341 0.933 . S
H356 C347 0.930 . S
H357 C348 0.931 . S
H358 C349 0.931 . S
H359 C350 0.933 . S
Dy360 O363 2.307 . S
Dy360 O365 2.395 . S
Dy360 O366 2.379 . S
Dy360 O368 2.339 . S
Dy360 O370 2.298 . S
Dy360 O374 2.275 . S
Dy360 C382 2.738 . S
Dy361 O364 2.298 . S
Dy361 O367 2.275 . S
Dy361 O369 2.307 . S
Dy361 O371 2.395 . S
Dy361 O372 2.379 . S
Dy361 O375 2.339 . S
Dy361 C391 2.738 . S
C362 O374 1.254 . S
C362 O375 1.257 . S
O363 Dy360 2.307 . S
O363 C373 1.266 . S
O364 Dy361 2.298 . S
O364 C373 1.236 . S
O365 Dy360 2.395 . S
O365 C382 1.255 . S
O366 Dy360 2.379 . S
O366 C382 1.249 . S
O367 Dy361 2.275 . S
O367 C383 1.254 . S
O368 Dy360 2.339 . S
O368 C383 1.257 . S
O369 Dy361 2.307 . S
O369 C384 1.266 . S
O370 Dy360 2.298 . S
O370 C384 1.236 . S
O371 Dy361 2.395 . S
O371 C391 1.255 . S
O372 Dy361 2.379 . S
O372 C391 1.249 . S
C373 O363 1.266 . S
C373 O364 1.236 . S
O374 Dy360 2.275 . S
O374 C362 1.254 . S
O375 Dy361 2.339 . S
O375 C362 1.257 . S
C376 C379 1.344 . S
C376 C380 1.328 . S
C376 C382 1.516 . S
C377 C378 1.304 . S
C377 C381 1.323 . S
C378 C377 1.304 . S
C378 C379 1.371 . S
C378 H392 0.930 . S
C379 C376 1.344 . S
C379 C378 1.371 . S
C379 H393 0.931 . S
C380 C376 1.328 . S
C380 C381 1.433 . S
C380 H394 0.931 . S
C381 C377 1.323 . S
C381 C380 1.433 . S
C381 H395 0.933 . S
C382 Dy360 2.738 . S
C382 O365 1.255 . S
C382 O366 1.249 . S
C382 C376 1.516 . S
C383 O367 1.254 . S
C383 O368 1.257 . S
C384 O369 1.266 . S
C384 O370 1.236 . S
C385 C388 1.344 . S
C385 C389 1.328 . S
C385 C391 1.516 . S
C386 C387 1.304 . S
C386 C390 1.323 . S
C387 C386 1.304 . S
C387 C388 1.371 . S
C387 H396 0.930 . S
C388 C385 1.344 . S
C388 C387 1.371 . S
C388 H397 0.931 . S
C389 C385 1.328 . S
C389 C390 1.433 . S
C389 H398 0.931 . S
C390 C386 1.323 . S
C390 C389 1.433 . S
C390 H399 0.933 . S
C391 Dy361 2.738 . S
C391 O371 1.255 . S
C391 O372 1.249 . S
C391 C385 1.516 . S
H392 C378 0.930 . S
H393 C379 0.931 . S
H394 C380 0.931 . S
H395 C381 0.933 . S
H396 C387 0.930 . S
H397 C388 0.931 . S
H398 C389 0.931 . S
H399 C390 0.933 . S
Dy400 O403 2.307 . S
Dy400 O405 2.395 . S
Dy400 O406 2.379 . S
Dy400 O408 2.339 . S
Dy400 O410 2.298 . S
Dy400 O414 2.275 . S
Dy400 C422 2.738 . S
Dy401 O404 2.298 . S
Dy401 O407 2.275 . S
Dy401 O409 2.307 . S
Dy401 O411 2.395 . S
Dy401 O412 2.379 . S
Dy401 O415 2.339 . S
Dy401 C431 2.738 . S
C402 O414 1.254 . S
C402 O415 1.257 . S
O403 Dy400 2.307 . S
O403 C413 1.266 . S
O404 Dy401 2.298 . S
O404 C413 1.236 . S
O405 Dy400 2.395 . S
O405 C422 1.255 . S
O406 Dy400 2.379 . S
O406 C422 1.249 . S
O407 Dy401 2.275 . S
O407 C423 1.254 . S
O408 Dy400 2.339 . S
O408 C423 1.257 . S
O409 Dy401 2.307 . S
O409 C424 1.266 . S
O410 Dy400 2.298 . S
O410 C424 1.236 . S
O411 Dy401 2.395 . S
O411 C431 1.255 . S
O412 Dy401 2.379 . S
O412 C431 1.249 . S
C413 O403 1.266 . S
C413 O404 1.236 . S
O414 Dy400 2.275 . S
O414 C402 1.254 . S
O415 Dy401 2.339 . S
O415 C402 1.257 . S
C416 C419 1.344 . S
C416 C420 1.328 . S
C416 C422 1.516 1_655 S
C417 C418 1.304 . S
C417 C421 1.323 . S
C418 C417 1.304 . S
C418 C419 1.371 . S
C418 H432 0.930 . S
C419 C416 1.344 . S
C419 C418 1.371 . S
C419 H433 0.931 . S
C420 C416 1.328 . S
C420 C421 1.433 . S
C420 H434 0.931 . S
C421 C417 1.323 . S
C421 C420 1.433 . S
C421 H435 0.933 . S
C422 Dy400 2.738 . S
C422 O405 1.255 . S
C422 O406 1.249 . S
C422 C416 1.516 1_455 S
C423 O407 1.254 . S
C423 O408 1.257 . S
C424 O409 1.266 . S
C424 O410 1.236 . S
C425 C428 1.344 . S
C425 C429 1.328 . S
C425 C431 1.516 . S
C426 C427 1.304 . S
C426 C430 1.323 . S
C427 C426 1.304 . S
C427 C428 1.371 . S
C427 H436 0.930 . S
C428 C425 1.344 . S
C428 C427 1.371 . S
C428 H437 0.931 . S
C429 C425 1.328 . S
C429 C430 1.433 . S
C429 H438 0.931 . S
C430 C426 1.323 . S
C430 C429 1.433 . S
C430 H439 0.933 . S
C431 Dy401 2.738 . S
C431 O411 1.255 . S
C431 O412 1.249 . S
C431 C425 1.516 . S
H432 C418 0.930 . S
H433 C419 0.931 . S
H434 C420 0.931 . S
H435 C421 0.933 . S
H436 C427 0.930 . S
H437 C428 0.931 . S
H438 C429 0.931 . S
H439 C430 0.933 . S
Dy440 O443 2.307 . S
Dy440 O445 2.395 . S
Dy440 O446 2.379 . S
Dy440 O448 2.339 . S
Dy440 O450 2.298 . S
Dy440 O454 2.275 . S
Dy440 C462 2.738 . S
Dy441 O444 2.298 . S
Dy441 O447 2.275 . S
Dy441 O449 2.307 . S
Dy441 O451 2.395 . S
Dy441 O452 2.379 . S
Dy441 O455 2.339 . S
Dy441 C471 2.738 . S
C442 O454 1.254 . S
C442 O455 1.257 . S
O443 Dy440 2.307 . S
O443 C453 1.266 . S
O444 Dy441 2.298 . S
O444 C453 1.236 . S
O445 Dy440 2.395 . S
O445 C462 1.255 . S
O446 Dy440 2.379 . S
O446 C462 1.249 . S
O447 Dy441 2.275 . S
O447 C463 1.254 . S
O448 Dy440 2.339 . S
O448 C463 1.257 . S
O449 Dy441 2.307 . S
O449 C464 1.266 . S
O450 Dy440 2.298 . S
O450 C464 1.236 . S
O451 Dy441 2.395 . S
O451 C471 1.255 . S
O452 Dy441 2.379 . S
O452 C471 1.249 . S
C453 O443 1.266 . S
C453 O444 1.236 . S
O454 Dy440 2.275 . S
O454 C442 1.254 . S
O455 Dy441 2.339 . S
O455 C442 1.257 . S
C456 C459 1.344 . S
C456 C460 1.328 . S
C456 C462 1.516 1_565 S
C457 C458 1.304 . S
C457 C461 1.323 . S
C458 C457 1.304 . S
C458 C459 1.371 . S
C458 H472 0.930 . S
C459 C456 1.344 . S
C459 C458 1.371 . S
C459 H473 0.931 . S
C460 C456 1.328 . S
C460 C461 1.433 . S
C460 H474 0.931 . S
C461 C457 1.323 . S
C461 C460 1.433 . S
C461 H475 0.933 . S
C462 Dy440 2.738 . S
C462 O445 1.255 . S
C462 O446 1.249 . S
C462 C456 1.516 1_545 S
C463 O447 1.254 . S
C463 O448 1.257 . S
C464 O449 1.266 . S
C464 O450 1.236 . S
C465 C468 1.344 . S
C465 C469 1.328 . S
C465 C471 1.516 . S
C466 C467 1.304 . S
C466 C470 1.323 . S
C467 C466 1.304 . S
C467 C468 1.371 . S
C467 H476 0.930 . S
C468 C465 1.344 . S
C468 C467 1.371 . S
C468 H477 0.931 . S
C469 C465 1.328 . S
C469 C470 1.433 . S
C469 H478 0.931 . S
C470 C466 1.323 . S
C470 C469 1.433 . S
C470 H479 0.933 . S
C471 Dy441 2.738 . S
C471 O451 1.255 . S
C471 O452 1.249 . S
C471 C465 1.516 . S
H472 C458 0.930 . S
H473 C459 0.931 . S
H474 C460 0.931 . S
H475 C461 0.933 . S
H476 C467 0.930 . S
H477 C468 0.931 . S
H478 C469 0.931 . S
H479 C470 0.933 . S
H480 C486 0.930 . S
H481 C489 0.930 . S
H482 C490 0.930 . S
H483 C491 0.930 . S
H484 C494 0.930 . S
H485 C495 0.930 . S
C486 H480 0.930 . S
C486 C487 1.355 . S
C486 C488 1.415 . S
C487 C486 1.355 . S
C487 C489 1.419 . S
C488 C486 1.415 . S
C488 C493 1.425 . S
C488 C495 1.409 1_565 S
C489 H481 0.930 . S
C489 C487 1.419 . S
C489 C490 1.362 . S
C490 H482 0.930 . S
C490 C489 1.362 . S
C490 C493 1.409 . S
C491 H483 0.930 . S
C491 C492 1.355 . S
C491 C493 1.415 1_545 S
C492 C491 1.355 . S
C492 C494 1.419 . S
C493 C488 1.425 . S
C493 C490 1.409 . S
C493 C491 1.415 1_565 S
C494 H484 0.930 . S
C494 C492 1.419 . S
C494 C495 1.362 . S
C495 H485 0.930 . S
C495 C488 1.409 1_545 S
C495 C494 1.362 . S
H496 C502 0.930 . S
H497 C505 0.930 . S
H498 C506 0.930 . S
H499 C507 0.930 . S
H500 C510 0.930 . S
H501 C511 0.930 . S
C502 H496 0.930 . S
C502 C503 1.355 . S
C502 C504 1.415 . S
C503 C502 1.355 . S
C503 C505 1.419 . S
C504 C502 1.415 . S
C504 C509 1.425 . S
C504 C511 1.409 . S
C505 H497 0.930 . S
C505 C503 1.419 . S
C505 C506 1.362 . S
C506 H498 0.930 . S
C506 C505 1.362 . S
C506 C509 1.409 . S
C507 H499 0.930 . S
C507 C508 1.355 . S
C507 C509 1.415 . S
C508 C507 1.355 . S
C508 C510 1.419 . S
C509 C504 1.425 . S
C509 C506 1.409 . S
C509 C507 1.415 . S
C510 H500 0.930 . S
C510 C508 1.419 . S
C510 C511 1.362 . S
C511 H501 0.930 . S
C511 C504 1.409 . S
C511 C510 1.362 . S
H512 C518 0.930 . S
H513 C521 0.930 . S
H514 C522 0.930 . S
H515 C523 0.930 . S
H516 C526 0.930 . S
H517 C527 0.930 1_655 S
C518 H512 0.930 . S
C518 C519 1.355 . S
C518 C520 1.415 . S
C519 C518 1.355 . S
C519 C521 1.419 . S
C520 C518 1.415 . S
C520 C525 1.425 1_655 S
C520 C527 1.409 1_655 S
C521 H513 0.930 . S
C521 C519 1.419 . S
C521 C522 1.362 1_655 S
C522 H514 0.930 . S
C522 C521 1.362 1_455 S
C522 C525 1.409 . S
C523 H515 0.930 . S
C523 C524 1.355 . S
C523 C525 1.415 . S
C524 C523 1.355 . S
C524 C526 1.419 . S
C525 C520 1.425 1_455 S
C525 C522 1.409 . S
C525 C523 1.415 . S
C526 H516 0.930 . S
C526 C524 1.419 . S
C526 C527 1.362 . S
C527 H517 0.930 1_455 S
C527 C520 1.409 1_455 S
C527 C526 1.362 . S
H528 C534 0.930 . S
H529 C537 0.930 . S
H530 C538 0.930 . S
H531 C539 0.930 . S
H532 C542 0.930 . S
H533 C543 0.930 . S
C534 H528 0.930 . S
C534 C535 1.355 . S
C534 C536 1.415 1_565 S
C535 C534 1.355 . S
C535 C537 1.419 . S
C536 C534 1.415 1_545 S
C536 C541 1.425 . S
C536 C543 1.409 . S
C537 H529 0.930 . S
C537 C535 1.419 . S
C537 C538 1.362 . S
C538 H530 0.930 . S
C538 C537 1.362 . S
C538 C541 1.409 1_565 S
C539 H531 0.930 . S
C539 C540 1.355 . S
C539 C541 1.415 . S
C540 C539 1.355 . S
C540 C542 1.419 . S
C541 C536 1.425 . S
C541 C538 1.409 1_545 S
C541 C539 1.415 . S
C542 H532 0.930 . S
C542 C540 1.419 . S
C542 C543 1.362 . S
C543 H533 0.930 . S
C543 C536 1.409 . S
C543 C542 1.362 . S
H544 C550 0.930 . S
H545 C553 0.930 . S
H546 C554 0.930 . S
H547 C555 0.930 . S
H548 C558 0.930 . S
H549 C559 0.930 . S
C550 H544 0.930 . S
C550 C551 1.355 . S
C550 C552 1.415 . S
C551 C550 1.355 . S
C551 C553 1.419 . S
C552 C550 1.415 . S
C552 C557 1.425 . S
C552 C559 1.409 . S
C553 H545 0.930 . S
C553 C551 1.419 . S
C553 C554 1.362 . S
C554 H546 0.930 . S
C554 C553 1.362 . S
C554 C557 1.409 . S
C555 H547 0.930 . S
C555 C556 1.355 . S
C555 C557 1.415 . S
C556 C555 1.355 . S
C556 C558 1.419 . S
C557 C552 1.425 . S
C557 C554 1.409 . S
C557 C555 1.415 . S
C558 H548 0.930 . S
C558 C556 1.419 . S
C558 C559 1.362 . S
C559 H549 0.930 . S
C559 C552 1.409 . S
C559 C558 1.362 . S
H560 C566 0.930 . S
H561 C569 0.930 . S
H562 C570 0.930 1_455 S
H563 C571 0.930 . S
H564 C574 0.930 . S
H565 C575 0.930 . S
C566 H560 0.930 . S
C566 C567 1.355 . S
C566 C568 1.415 . S
C567 C566 1.355 . S
C567 C569 1.419 . S
C568 C566 1.415 . S
C568 C573 1.425 1_655 S
C568 C575 1.409 . S
C569 H561 0.930 . S
C569 C567 1.419 . S
C569 C570 1.362 . S
C570 H562 0.930 1_655 S
C570 C569 1.362 . S
C570 C573 1.409 1_655 S
C571 H563 0.930 . S
C571 C572 1.355 . S
C571 C573 1.415 . S
C572 C571 1.355 . S
C572 C574 1.419 . S
C573 C568 1.425 1_455 S
C573 C570 1.409 1_455 S
C573 C571 1.415 . S
C574 H564 0.930 . S
C574 C572 1.419 . S
C574 C575 1.362 1_455 S
C575 H565 0.930 . S
C575 C568 1.409 . S
C575 C574 1.362 1_655 S
H576 C582 0.930 . S
H577 C585 0.930 . S
H578 C586 0.930 . S
H579 C587 0.930 . S
H580 C590 0.930 . S
H581 C591 0.930 1_455 S
C582 H576 0.930 . S
C582 C583 1.355 . S
C582 C584 1.415 . S
C583 C582 1.355 . S
C583 C585 1.419 . S
C584 C582 1.415 . S
C584 C589 1.426 1_455 S
C584 C591 1.409 1_455 S
C585 H577 0.930 . S
C585 C583 1.419 . S
C585 C586 1.362 . S
C586 H578 0.930 . S
C586 C585 1.362 . S
C586 C589 1.384 1_455 S
C587 H579 0.930 . S
C587 C588 1.355 . S
C587 C589 1.440 . S
C588 C587 1.355 . S
C588 C590 1.419 . S
C589 C584 1.426 1_655 S
C589 C586 1.384 1_655 S
C589 C587 1.440 . S
C590 H580 0.930 . S
C590 C588 1.419 . S
C590 C591 1.362 . S
C591 H581 0.930 1_655 S
C591 C584 1.409 1_655 S
C591 C590 1.362 . S
H592 C598 0.930 . S
H593 C601 0.930 . S
H594 C602 0.930 . S
H595 C603 0.930 . S
H596 C606 0.930 . S
H597 C607 0.930 . S
C598 H592 0.930 . S
C598 C599 1.355 . S
C598 C600 1.415 1_565 S
C599 C598 1.355 . S
C599 C601 1.419 . S
C600 C598 1.415 1_545 S
C600 C605 1.425 . S
C600 C607 1.409 . S
C601 H593 0.930 . S
C601 C599 1.419 . S
C601 C602 1.362 . S
C602 H594 0.930 . S
C602 C601 1.362 . S
C602 C605 1.409 1_565 S
C603 H595 0.930 . S
C603 C604 1.355 . S
C603 C605 1.415 . S
C604 C603 1.355 . S
C604 C606 1.419 . S
C605 C600 1.425 . S
C605 C602 1.409 1_545 S
C605 C603 1.415 . S
C606 H596 0.930 . S
C606 C604 1.419 . S
C606 C607 1.362 . S
C607 H597 0.930 . S
C607 C600 1.409 . S
C607 C606 1.362 . S
H608 C614 0.930 . S
H609 C617 0.930 . S
H610 C618 0.930 . S
H611 C619 0.930 . S
H612 C622 0.930 . S
H613 C623 0.930 . S
C614 H608 0.930 . S
C614 C615 1.355 . S
C614 C616 1.415 . S
C615 C614 1.355 . S
C615 C617 1.419 . S
C616 C614 1.415 . S
C616 C621 1.425 . S
C616 C623 1.409 . S
C617 H609 0.930 . S
C617 C615 1.419 . S
C617 C618 1.362 . S
C618 H610 0.930 . S
C618 C617 1.362 . S
C618 C621 1.409 . S
C619 H611 0.930 . S
C619 C620 1.355 . S
C619 C621 1.415 . S
C620 C619 1.355 . S
C620 C622 1.419 . S
C621 C616 1.425 . S
C621 C618 1.409 . S
C621 C619 1.415 . S
C622 H612 0.930 . S
C622 C620 1.419 . S
C622 C623 1.362 . S
C623 H613 0.930 . S
C623 C616 1.409 . S
C623 C622 1.362 . S
H624 C630 0.930 . S
H625 C633 0.930 . S
H626 C634 0.930 1_655 S
H627 C635 0.930 . S
H628 C638 0.930 . S
H629 C639 0.930 . S
C630 H624 0.930 . S
C630 C631 1.355 . S
C630 C632 1.426 . S
C631 C630 1.355 . S
C631 C633 1.419 . S
C632 C630 1.426 . S
C632 C637 1.418 1_455 S
C632 C639 1.405 1_455 S
C633 H625 0.930 . S
C633 C631 1.419 . S
C633 C634 1.362 . S
C634 H626 0.930 1_455 S
C634 C633 1.362 . S
C634 C637 1.409 1_455 S
C635 H627 0.930 . S
C635 C636 1.355 . S
C635 C637 1.415 . S
C636 C635 1.355 . S
C636 C638 1.419 . S
C637 C632 1.418 1_655 S
C637 C634 1.409 1_655 S
C637 C635 1.415 . S
C638 H628 0.930 . S
C638 C636 1.419 . S
C638 C639 1.362 . S
C639 H629 0.930 . S
C639 C632 1.405 1_655 S
C639 C638 1.362 . S
H640 C646 0.930 . S
H641 C649 0.930 . S
H642 C650 0.930 . S
H643 C651 0.930 . S
H644 C654 0.930 . S
H645 C655 0.930 . S
C646 H640 0.930 . S
C646 C647 1.355 . S
C646 C648 1.415 1_545 S
C647 C646 1.355 . S
C647 C649 1.419 . S
C648 C646 1.415 1_565 S
C648 C653 1.425 . S
C648 C655 1.409 . S
C649 H641 0.930 . S
C649 C647 1.419 . S
C649 C650 1.362 . S
C650 H642 0.930 . S
C650 C649 1.362 . S
C650 C653 1.409 1_545 S
C651 H643 0.930 . S
C651 C652 1.355 . S
C651 C653 1.415 . S
C652 C651 1.355 . S
C652 C654 1.419 . S
C653 C648 1.425 . S
C653 C650 1.409 1_565 S
C653 C651 1.415 . S
C654 H644 0.930 . S
C654 C652 1.419 . S
C654 C655 1.362 . S
C655 H645 0.930 . S
C655 C648 1.409 . S
C655 C654 1.362 . S
H656 C662 0.930 . S
H657 C665 0.930 . S
H658 C666 0.930 . S
H659 C667 0.930 . S
H660 C670 0.930 . S
H661 C671 0.930 . S
C662 H656 0.930 . S
C662 C663 1.355 . S
C662 C664 1.415 . S
C663 C662 1.355 . S
C663 C665 1.419 . S
C664 C662 1.415 . S
C664 C669 1.425 . S
C664 C671 1.409 . S
C665 H657 0.930 . S
C665 C663 1.419 . S
C665 C666 1.362 . S
C666 H658 0.930 . S
C666 C665 1.362 . S
C666 C669 1.409 . S
C667 H659 0.930 . S
C667 C668 1.355 . S
C667 C669 1.415 . S
C668 C667 1.355 . S
C668 C670 1.419 . S
C669 C664 1.425 . S
C669 C666 1.409 . S
C669 C667 1.415 . S
C670 H660 0.930 . S
C670 C668 1.419 . S
C670 C671 1.362 . S
C671 H661 0.930 . S
C671 C664 1.409 . S
C671 C670 1.362 . S
H672 C678 0.930 . S
H673 C681 0.930 . S
H674 C682 0.930 . S
H675 C683 0.930 . S
H676 C686 0.930 . S
H677 C687 0.930 . S
C678 H672 0.930 . S
C678 C679 1.355 . S
C678 C680 1.415 . S
C679 C678 1.355 . S
C679 C681 1.419 . S
C680 C678 1.415 . S
C680 C685 1.425 . S
C680 C687 1.409 . S
C681 H673 0.930 . S
C681 C679 1.419 . S
C681 C682 1.362 . S
C682 H674 0.930 . S
C682 C681 1.362 . S
C682 C685 1.409 . S
C683 H675 0.930 . S
C683 C684 1.355 . S
C683 C685 1.415 . S
C684 C683 1.355 . S
C684 C686 1.419 . S
C685 C680 1.425 . S
C685 C682 1.409 . S
C685 C683 1.415 . S
C686 H676 0.930 . S
C686 C684 1.419 . S
C686 C687 1.362 . S
C687 H677 0.930 . S
C687 C680 1.409 . S
C687 C686 1.362 . S
H688 C694 0.930 . S
H689 C697 0.930 . S
H690 C698 0.930 . S
H691 C699 0.930 . S
H692 C702 0.930 . S
H693 C703 0.930 . S
C694 H688 0.930 . S
C694 C695 1.355 . S
C694 C696 1.415 . S
C695 C694 1.355 . S
C695 C697 1.419 . S
C696 C694 1.415 . S
C696 C701 1.425 . S
C696 C703 1.409 . S
C697 H689 0.930 . S
C697 C695 1.419 . S
C697 C698 1.362 . S
C698 H690 0.930 . S
C698 C697 1.362 . S
C698 C701 1.409 . S
C699 H691 0.930 . S
C699 C700 1.355 . S
C699 C701 1.415 . S
C700 C699 1.355 . S
C700 C702 1.419 . S
C701 C696 1.425 . S
C701 C698 1.409 . S
C701 C699 1.415 . S
C702 H692 0.930 . S
C702 C700 1.419 . S
C702 C703 1.362 . S
C703 H693 0.930 . S
C703 C696 1.409 . S
C703 C702 1.362 . S
H704 C710 0.930 . S
H705 C713 0.930 . S
H706 C714 0.930 . S
H707 C715 0.930 . S
H708 C718 0.930 . S
H709 C719 0.930 . S
C710 H704 0.930 . S
C710 C711 1.355 . S
C710 C712 1.415 . S
C711 C710 1.355 . S
C711 C713 1.419 . S
C712 C710 1.415 . S
C712 C717 1.425 . S
C712 C719 1.409 . S
C713 H705 0.930 . S
C713 C711 1.419 . S
C713 C714 1.362 . S
C714 H706 0.930 . S
C714 C713 1.362 . S
C714 C717 1.409 . S
C715 H707 0.930 . S
C715 C716 1.355 . S
C715 C717 1.415 . S
C716 C715 1.355 . S
C716 C718 1.419 . S
C717 C712 1.425 . S
C717 C714 1.409 . S
C717 C715 1.415 . S
C718 H708 0.930 . S
C718 C716 1.419 . S
C718 C719 1.362 . S
C719 H709 0.930 . S
C719 C712 1.409 . S
C719 C718 1.362 . S
H720 C726 0.930 . S
H721 C729 0.930 . S
H722 C730 0.930 . S
H723 C731 0.930 . S
H724 C734 0.930 . S
H725 C735 0.930 . S
C726 H720 0.930 . S
C726 C727 1.355 . S
C726 C728 1.415 . S
C727 C726 1.355 . S
C727 C729 1.419 . S
C728 C726 1.415 . S
C728 C733 1.425 . S
C728 C735 1.409 . S
C729 H721 0.930 . S
C729 C727 1.419 . S
C729 C730 1.362 . S
C730 H722 0.930 . S
C730 C729 1.362 . S
C730 C733 1.409 . S
C731 H723 0.930 . S
C731 C732 1.355 . S
C731 C733 1.415 . S
C732 C731 1.355 . S
C732 C734 1.419 . S
C733 C728 1.425 . S
C733 C730 1.409 . S
C733 C731 1.415 . S
C734 H724 0.930 . S
C734 C732 1.419 . S
C734 C735 1.362 . S
C735 H725 0.930 . S
C735 C728 1.409 . S
C735 C734 1.362 . S
H736 C742 0.930 . S
H737 C745 0.930 . S
H738 C746 0.930 . S
H739 C747 0.930 . S
H740 C750 0.930 . S
H741 C751 0.930 . S
C742 H736 0.930 . S
C742 C743 1.355 . S
C742 C744 1.415 . S
C743 C742 1.355 . S
C743 C745 1.419 . S
C744 C742 1.415 . S
C744 C749 1.425 . S
C744 C751 1.409 . S
C745 H737 0.930 . S
C745 C743 1.419 . S
C745 C746 1.362 . S
C746 H738 0.930 . S
C746 C745 1.362 . S
C746 C749 1.409 . S
C747 H739 0.930 . S
C747 C748 1.355 . S
C747 C749 1.415 . S
C748 C747 1.355 . S
C748 C750 1.419 . S
C749 C744 1.425 . S
C749 C746 1.409 . S
C749 C747 1.415 . S
C750 H740 0.930 . S
C750 C748 1.419 . S
C750 C751 1.362 . S
C751 H741 0.930 . S
C751 C744 1.409 . S
C751 C750 1.362 . S
H752 C758 0.930 . S
H753 C761 0.930 . S
H754 C762 0.930 . S
H755 C763 0.930 . S
H756 C766 0.930 . S
H757 C767 0.930 . S
C758 H752 0.930 . S
C758 C759 1.355 . S
C758 C760 1.415 . S
C759 C758 1.355 . S
C759 C761 1.419 . S
C760 C758 1.415 . S
C760 C765 1.425 . S
C760 C767 1.409 . S
C761 H753 0.930 . S
C761 C759 1.419 . S
C761 C762 1.362 . S
C762 H754 0.930 . S
C762 C761 1.362 . S
C762 C765 1.409 . S
C763 H755 0.930 . S
C763 C764 1.355 . S
C763 C765 1.415 . S
C764 C763 1.355 . S
C764 C766 1.419 . S
C765 C760 1.425 . S
C765 C762 1.409 . S
C765 C763 1.415 . S
C766 H756 0.930 . S
C766 C764 1.419 . S
C766 C767 1.362 . S
C767 H757 0.930 . S
C767 C760 1.409 . S
C767 C766 1.362 . S
H768 C774 0.930 . S
H769 C777 0.930 . S
H770 C778 0.930 . S
H771 C779 0.930 . S
H772 C782 0.930 . S
H773 C783 0.930 . S
C774 H768 0.930 . S
C774 C775 1.355 . S
C774 C776 1.415 . S
C775 C774 1.355 . S
C775 C777 1.419 . S
C776 C774 1.415 . S
C776 C781 1.425 . S
C776 C783 1.409 . S
C777 H769 0.930 . S
C777 C775 1.419 . S
C777 C778 1.362 . S
C778 H770 0.930 . S
C778 C777 1.362 . S
C778 C781 1.409 . S
C779 H771 0.930 . S
C779 C780 1.355 . S
C779 C781 1.415 . S
C780 C779 1.355 . S
C780 C782 1.419 . S
C781 C776 1.425 . S
C781 C778 1.409 . S
C781 C779 1.415 . S
C782 H772 0.930 . S
C782 C780 1.419 . S
C782 C783 1.362 . S
C783 H773 0.930 . S
C783 C776 1.409 . S
C783 C782 1.362 . S
H784 C790 0.930 . S
H785 C793 0.930 . S
H786 C794 0.930 . S
H787 C795 0.930 . S
H788 C798 0.930 . S
H789 C799 0.930 . S
C790 H784 0.930 . S
C790 C791 1.355 . S
C790 C792 1.415 . S
C791 C790 1.355 . S
C791 C793 1.419 . S
C792 C790 1.415 . S
C792 C797 1.425 . S
C792 C799 1.409 . S
C793 H785 0.930 . S
C793 C791 1.419 . S
C793 C794 1.362 . S
C794 H786 0.930 . S
C794 C793 1.362 . S
C794 C797 1.409 . S
C795 H787 0.930 . S
C795 C796 1.355 . S
C795 C797 1.415 . S
C796 C795 1.355 . S
C796 C798 1.419 . S
C797 C792 1.425 . S
C797 C794 1.409 . S
C797 C795 1.415 . S
C798 H788 0.930 . S
C798 C796 1.419 . S
C798 C799 1.362 . S
C799 H789 0.930 . S
C799 C792 1.409 . S
C799 C798 1.362 . S
H800 C806 0.930 . S
H801 C809 0.930 . S
H802 C810 0.930 . S
H803 C811 0.930 . S
H804 C814 0.930 . S
H805 C815 0.930 . S
C806 H800 0.930 . S
C806 C807 1.355 . S
C806 C808 1.415 . S
C807 C806 1.355 . S
C807 C809 1.419 . S
C808 C806 1.415 . S
C808 C813 1.425 . S
C808 C815 1.409 . S
C809 H801 0.930 . S
C809 C807 1.419 . S
C809 C810 1.362 . S
C810 H802 0.930 . S
C810 C809 1.362 . S
C810 C813 1.409 . S
C811 H803 0.930 . S
C811 C812 1.355 . S
C811 C813 1.415 . S
C812 C811 1.355 . S
C812 C814 1.419 . S
C813 C808 1.425 . S
C813 C810 1.409 . S
C813 C811 1.415 . S
C814 H804 0.930 . S
C814 C812 1.419 . S
C814 C815 1.362 . S
C815 H805 0.930 . S
C815 C808 1.409 . S
C815 C814 1.362 . S
H816 C822 0.930 . S
H817 C825 0.930 . S
H818 C826 0.930 . S
H819 C827 0.930 . S
H820 C830 0.930 . S
H821 C831 0.930 . S
C822 H816 0.930 . S
C822 C823 1.355 . S
C822 C824 1.415 . S
C823 C822 1.355 . S
C823 C825 1.419 . S
C824 C822 1.415 . S
C824 C829 1.425 . S
C824 C831 1.409 . S
C825 H817 0.930 . S
C825 C823 1.419 . S
C825 C826 1.362 . S
C826 H818 0.930 . S
C826 C825 1.362 . S
C826 C829 1.409 . S
C827 H819 0.930 . S
C827 C828 1.355 . S
C827 C829 1.415 . S
C828 C827 1.355 . S
C828 C830 1.419 . S
C829 C824 1.425 . S
C829 C826 1.409 . S
C829 C827 1.415 . S
C830 H820 0.930 . S
C830 C828 1.419 . S
C830 C831 1.362 . S
C831 H821 0.930 . S
C831 C824 1.409 . S
C831 C830 1.362 . S
H832 C838 0.930 . S
H833 C841 0.930 . S
H834 C842 0.930 . S
H835 C843 0.930 . S
H836 C846 0.930 . S
H837 C847 0.930 . S
C838 H832 0.930 . S
C838 C839 1.355 . S
C838 C840 1.415 . S
C839 C838 1.355 . S
C839 C841 1.419 . S
C840 C838 1.415 . S
C840 C845 1.425 . S
C840 C847 1.409 . S
C841 H833 0.930 . S
C841 C839 1.419 . S
C841 C842 1.362 . S
C842 H834 0.930 . S
C842 C841 1.362 . S
C842 C845 1.409 . S
C843 H835 0.930 . S
C843 C844 1.355 . S
C843 C845 1.415 . S
C844 C843 1.355 . S
C844 C846 1.419 . S
C845 C840 1.425 . S
C845 C842 1.409 . S
C845 C843 1.415 . S
C846 H836 0.930 . S
C846 C844 1.419 . S
C846 C847 1.362 . S
C847 H837 0.930 . S
C847 C840 1.409 . S
C847 C846 1.362 . S
H848 C854 0.930 . S
H849 C857 0.930 . S
H850 C858 0.930 . S
H851 C859 0.930 . S
H852 C862 0.930 . S
H853 C863 0.930 . S
C854 H848 0.930 . S
C854 C855 1.355 . S
C854 C856 1.415 . S
C855 C854 1.355 . S
C855 C857 1.419 . S
C856 C854 1.415 . S
C856 C861 1.425 . S
C856 C863 1.409 . S
C857 H849 0.930 . S
C857 C855 1.419 . S
C857 C858 1.362 . S
C858 H850 0.930 . S
C858 C857 1.362 . S
C858 C861 1.409 . S
C859 H851 0.930 . S
C859 C860 1.355 . S
C859 C861 1.415 . S
C860 C859 1.355 . S
C860 C862 1.419 . S
C861 C856 1.425 . S
C861 C858 1.409 . S
C861 C859 1.415 . S
C862 H852 0.930 . S
C862 C860 1.419 . S
C862 C863 1.362 . S
C863 H853 0.930 . S
C863 C856 1.409 . S
C863 C862 1.362 . S
H864 C870 0.930 . S
H865 C873 0.930 . S
H866 C874 0.930 . S
H867 C875 0.930 . S
H868 C878 0.930 . S
H869 C879 0.930 . S
C870 H864 0.930 . S
C870 C871 1.355 . S
C870 C872 1.415 . S
C871 C870 1.355 . S
C871 C873 1.419 . S
C872 C870 1.415 . S
C872 C877 1.425 . S
C872 C879 1.409 . S
C873 H865 0.930 . S
C873 C871 1.419 . S
C873 C874 1.362 . S
C874 H866 0.930 . S
C874 C873 1.362 . S
C874 C877 1.409 . S
C875 H867 0.930 . S
C875 C876 1.355 . S
C875 C877 1.415 . S
C876 C875 1.355 . S
C876 C878 1.419 . S
C877 C872 1.425 . S
C877 C874 1.409 . S
C877 C875 1.415 . S
C878 H868 0.930 . S
C878 C876 1.419 . S
C878 C879 1.362 . S
C879 H869 0.930 . S
C879 C872 1.409 . S
C879 C878 1.362 . S
H880 C886 0.930 . S
H881 C889 0.930 . S
H882 C890 0.930 . S
H883 C891 0.930 . S
H884 C894 0.930 . S
H885 C895 0.930 . S
C886 H880 0.930 . S
C886 C887 1.355 . S
C886 C888 1.415 . S
C887 C886 1.355 . S
C887 C889 1.419 . S
C888 C886 1.415 . S
C888 C893 1.425 . S
C888 C895 1.409 . S
C889 H881 0.930 . S
C889 C887 1.419 . S
C889 C890 1.362 . S
C890 H882 0.930 . S
C890 C889 1.362 . S
C890 C893 1.409 . S
C891 H883 0.930 . S
C891 C892 1.355 . S
C891 C893 1.415 . S
C892 C891 1.355 . S
C892 C894 1.419 . S
C893 C888 1.425 . S
C893 C890 1.409 . S
C893 C891 1.415 . S
C894 H884 0.930 . S
C894 C892 1.419 . S
C894 C895 1.362 . S
C895 H885 0.930 . S
C895 C888 1.409 . S
C895 C894 1.362 . S
H896 C902 0.930 . S
H897 C905 0.930 . S
H898 C906 0.930 . S
H899 C907 0.930 . S
H900 C910 0.930 . S
H901 C911 0.930 . S
C902 H896 0.930 . S
C902 C903 1.355 . S
C902 C904 1.415 . S
C903 C902 1.355 . S
C903 C905 1.419 . S
C904 C902 1.415 . S
C904 C909 1.425 . S
C904 C911 1.409 . S
C905 H897 0.930 . S
C905 C903 1.419 . S
C905 C906 1.362 . S
C906 H898 0.930 . S
C906 C905 1.362 . S
C906 C909 1.409 . S
C907 H899 0.930 . S
C907 C908 1.355 . S
C907 C909 1.415 . S
C908 C907 1.355 . S
C908 C910 1.419 . S
C909 C904 1.425 . S
C909 C906 1.409 . S
C909 C907 1.415 . S
C910 H900 0.930 . S
C910 C908 1.419 . S
C910 C911 1.362 . S
C911 H901 0.930 . S
C911 C904 1.409 . S
C911 C910 1.362 . S
H912 C918 0.930 . S
H913 C921 0.930 . S
H914 C922 0.930 . S
H915 C923 0.930 . S
H916 C926 0.930 . S
H917 C927 0.930 . S
C918 H912 0.930 . S
C918 C919 1.355 . S
C918 C920 1.415 . S
C919 C918 1.355 . S
C919 C921 1.419 . S
C920 C918 1.415 . S
C920 C925 1.425 . S
C920 C927 1.409 . S
C921 H913 0.930 . S
C921 C919 1.419 . S
C921 C922 1.362 . S
C922 H914 0.930 . S
C922 C921 1.362 . S
C922 C925 1.409 . S
C923 H915 0.930 . S
C923 C924 1.355 . S
C923 C925 1.415 . S
C924 C923 1.355 . S
C924 C926 1.419 . S
C925 C920 1.425 . S
C925 C922 1.409 . S
C925 C923 1.415 . S
C926 H916 0.930 . S
C926 C924 1.419 . S
C926 C927 1.362 . S
C927 H917 0.930 . S
C927 C920 1.409 . S
C927 C926 1.362 . S
H928 C934 0.930 . S
H929 C937 0.930 . S
H930 C938 0.930 . S
H931 C939 0.930 . S
H932 C942 0.930 . S
H933 C943 0.930 . S
C934 H928 0.930 . S
C934 C935 1.355 . S
C934 C936 1.415 . S
C935 C934 1.355 . S
C935 C937 1.419 . S
C936 C934 1.415 . S
C936 C941 1.425 . S
C936 C943 1.409 . S
C937 H929 0.930 . S
C937 C935 1.419 . S
C937 C938 1.362 . S
C938 H930 0.930 . S
C938 C937 1.362 . S
C938 C941 1.409 . S
C939 H931 0.930 . S
C939 C940 1.355 . S
C939 C941 1.415 . S
C940 C939 1.355 . S
C940 C942 1.419 . S
C941 C936 1.425 . S
C941 C938 1.409 . S
C941 C939 1.415 . S
C942 H932 0.930 . S
C942 C940 1.419 . S
C942 C943 1.362 . S
C943 H933 0.930 . S
C943 C936 1.409 . S
C943 C942 1.362 . S
H944 C950 0.930 . S
H945 C953 0.930 . S
H946 C954 0.930 . S
H947 C955 0.930 . S
H948 C958 0.930 . S
H949 C959 0.930 . S
C950 H944 0.930 . S
C950 C951 1.355 . S
C950 C952 1.415 . S
C951 C950 1.355 . S
C951 C953 1.419 . S
C952 C950 1.415 . S
C952 C957 1.425 . S
C952 C959 1.409 . S
C953 H945 0.930 . S
C953 C951 1.419 . S
C953 C954 1.362 . S
C954 H946 0.930 . S
C954 C953 1.362 . S
C954 C957 1.409 . S
C955 H947 0.930 . S
C955 C956 1.355 . S
C955 C957 1.415 . S
C956 C955 1.355 . S
C956 C958 1.419 . S
C957 C952 1.425 . S
C957 C954 1.409 . S
C957 C955 1.415 . S
C958 H948 0.930 . S
C958 C956 1.419 . S
C958 C959 1.362 . S
C959 H949 0.930 . S
C959 C952 1.409 . S
C959 C958 1.362 . S
H960 C966 0.930 . S
H961 C969 0.930 . S
H962 C970 0.930 . S
H963 C971 0.930 . S
H964 C974 0.930 . S
H965 C975 0.930 . S
C966 H960 0.930 . S
C966 C967 1.355 . S
C966 C968 1.415 . S
C967 C966 1.355 . S
C967 C969 1.419 . S
C968 C966 1.415 . S
C968 C973 1.425 1_556 S
C968 C975 1.409 . S
C969 H961 0.930 . S
C969 C967 1.419 . S
C969 C970 1.362 1_556 S
C970 H962 0.930 . S
C970 C969 1.362 1_554 S
C970 C973 1.409 . S
C971 H963 0.930 . S
C971 C972 1.355 . S
C971 C973 1.415 . S
C972 C971 1.355 . S
C972 C974 1.419 . S
C973 C968 1.425 1_554 S
C973 C970 1.409 . S
C973 C971 1.415 . S
C974 H964 0.930 . S
C974 C972 1.419 . S
C974 C975 1.362 1_554 S
C975 H965 0.930 . S
C975 C968 1.409 . S
C975 C974 1.362 1_556 S
H976 C982 0.930 . S
H977 C985 0.930 . S
H978 C986 0.930 1_655 S
H979 C987 0.930 . S
H980 C990 0.930 . S
H981 C991 0.930 1_455 S
C982 H976 0.930 . S
C982 C983 1.355 . S
C982 C984 1.415 . S
C983 C982 1.355 . S
C983 C985 1.419 . S
C984 C982 1.415 . S
C984 C989 1.425 1_455 S
C984 C991 1.409 1_455 S
C985 H977 0.930 . S
C985 C983 1.419 . S
C985 C986 1.362 . S
C986 H978 0.930 1_455 S
C986 C985 1.362 . S
C986 C989 1.409 1_455 S
C987 H979 0.930 . S
C987 C988 1.355 . S
C987 C989 1.415 . S
C988 C987 1.355 . S
C988 C990 1.419 . S
C989 C984 1.425 1_655 S
C989 C986 1.409 1_655 S
C989 C987 1.415 . S
C990 H980 0.930 . S
C990 C988 1.419 . S
C990 C991 1.362 . S
C991 H981 0.930 1_655 S
C991 C984 1.409 1_655 S
C991 C990 1.362 . S
H992 C998 0.930 . S
H993 C1001 0.930 . S
H994 C1002 0.932 1_545 S
H995 C1003 0.930 . S
H996 C1006 0.930 . S
H997 C1007 0.932 1_565 S
C998 H992 0.930 . S
C998 C999 1.355 . S
C998 C1000 1.415 1_554 S
C999 C998 1.355 . S
C999 C1001 1.419 . S
C1000 C998 1.415 1_556 S
C1000 C1005 1.425 1_566 S
C1000 C1007 1.409 1_565 S
C1001 H993 0.930 . S
C1001 C999 1.419 . S
C1001 C1002 1.362 . S
C1002 H994 0.932 1_565 S
C1002 C1001 1.362 . S
C1002 C1005 1.409 1_565 S
C1003 H995 0.930 . S
C1003 C1004 1.355 . S
C1003 C1005 1.415 1_556 S
C1004 C1003 1.355 . S
C1004 C1006 1.419 . S
C1005 C1000 1.425 1_544 S
C1005 C1002 1.409 1_545 S
C1005 C1003 1.415 1_554 S
C1006 H996 0.930 . S
C1006 C1004 1.419 . S
C1006 C1007 1.362 . S
C1007 H997 0.932 1_545 S
C1007 C1000 1.409 1_545 S
C1007 C1006 1.362 . S
H1008 C1014 0.930 . S
H1009 C1017 0.930 . S
H1010 C1018 0.930 . S
H1011 C1019 0.930 . S
H1012 C1022 0.930 . S
H1013 C1023 0.930 . S
C1014 H1008 0.930 . S
C1014 C1015 1.355 . S
C1014 C1016 1.415 . S
C1015 C1014 1.355 . S
C1015 C1017 1.419 . S
C1016 C1014 1.415 . S
C1016 C1021 1.425 . S
C1016 C1023 1.409 . S
C1017 H1009 0.930 . S
C1017 C1015 1.419 . S
C1017 C1018 1.362 . S
C1018 H1010 0.930 . S
C1018 C1017 1.362 . S
C1018 C1021 1.409 . S
C1019 H1011 0.930 . S
C1019 C1020 1.355 . S
C1019 C1021 1.415 . S
C1020 C1019 1.355 . S
C1020 C1022 1.419 . S
C1021 C1016 1.425 . S
C1021 C1018 1.409 . S
C1021 C1019 1.415 . S
C1022 H1012 0.930 . S
C1022 C1020 1.419 . S
C1022 C1023 1.362 . S
C1023 H1013 0.930 . S
C1023 C1016 1.409 . S
C1023 C1022 1.362 . S
H1024 C1030 0.930 . S
H1025 C1033 0.930 . S
H1026 C1034 0.930 1_554 S
H1027 C1035 0.930 . S
H1028 C1038 0.930 . S
H1029 C1039 0.930 1_556 S
C1030 H1024 0.930 . S
C1030 C1031 1.355 . S
C1030 C1032 1.415 . S
C1031 C1030 1.355 . S
C1031 C1033 1.419 . S
C1032 C1030 1.415 . S
C1032 C1037 1.425 1_656 S
C1032 C1039 1.409 1_656 S
C1033 H1025 0.930 . S
C1033 C1031 1.419 . S
C1033 C1034 1.362 . S
C1034 H1026 0.930 1_556 S
C1034 C1033 1.362 . S
C1034 C1037 1.409 1_656 S
C1035 H1027 0.930 . S
C1035 C1036 1.355 . S
C1035 C1037 1.415 . S
C1036 C1035 1.355 . S
C1036 C1038 1.419 . S
C1037 C1032 1.425 1_454 S
C1037 C1034 1.409 1_454 S
C1037 C1035 1.415 . S
C1038 H1028 0.930 . S
C1038 C1036 1.419 . S
C1038 C1039 1.362 . S
C1039 H1029 0.930 1_554 S
C1039 C1032 1.409 1_454 S
C1039 C1038 1.362 . S
H1040 C1046 0.930 . S
H1041 C1049 0.930 . S
H1042 C1050 0.930 . S
H1043 C1051 0.930 . S
H1044 C1054 0.930 . S
H1045 C1055 0.930 . S
C1046 H1040 0.930 . S
C1046 C1047 1.355 . S
C1046 C1048 1.415 . S
C1047 C1046 1.355 . S
C1047 C1049 1.419 . S
C1048 C1046 1.415 . S
C1048 C1053 1.425 1_565 S
C1048 C1055 1.409 1_565 S
C1049 H1041 0.930 . S
C1049 C1047 1.419 . S
C1049 C1050 1.362 . S
C1050 H1042 0.930 . S
C1050 C1049 1.362 . S
C1050 C1053 1.409 1_565 S
C1051 H1043 0.930 . S
C1051 C1052 1.355 . S
C1051 C1053 1.415 . S
C1052 C1051 1.355 . S
C1052 C1054 1.419 . S
C1053 C1048 1.425 1_545 S
C1053 C1050 1.409 1_545 S
C1053 C1051 1.415 . S
C1054 H1044 0.930 . S
C1054 C1052 1.419 . S
C1054 C1055 1.362 . S
C1055 H1045 0.930 . S
C1055 C1048 1.409 1_545 S
C1055 C1054 1.362 . S
C487 C184 1.310 . S
C492 C17 1.311 . S
C503 C224 1.250 . S
C508 C57 1.254 . S
C519 C97 1.258 . S
C524 C24 1.253 . S
C535 C137 1.245 . S
C540 C64 1.241 . S
C551 C177 1.299 . S
C556 C104 1.296 . S
C567 C144 1.274 . S
C572 C217 1.279 . S
C583 C344 1.253 . S
C588 C257 1.258 . S
C599 C297 1.286 . S
C604 C384 1.284 . S
C615 C424 1.301 . S
C620 C337 1.303 . S
C631 C377 1.318 . S
C636 C464 1.316 . S
C647 C417 1.243 . S
C652 C264 1.239 . S
C663 C304 1.270 . S
C668 C457 1.272 . S
C679 C173 1.582 . S
C684 C26 1.580 . S
C695 C66 1.594 . S
C700 C213 1.596 . S
C711 C106 1.554 . S
C716 C13 1.555 . S
C727 C146 1.586 . S
C732 C53 1.588 . S
C743 C93 1.566 . S
C748 C186 1.564 . S
C759 C133 1.598 . S
C764 C226 1.596 . S
C775 C333 1.597 . S
C780 C266 1.598 . S
C791 C306 1.569 . S
C796 C373 1.568 . S
C807 C346 1.562 . S
C812 C413 1.562 . S
C823 C453 1.566 . S
C828 C386 1.564 . S
C839 C426 1.593 . S
C844 C253 1.592 . S
C855 C293 1.559 . S
C860 C466 1.559 . S
C871 C423 1.610 . S
C876 C23 1.652 . S
C887 C63 1.639 . S
C892 C463 1.611 . S
C903 C103 1.684 . S
C908 C263 1.678 . S
C919 C143 1.654 . S
C924 C303 1.611 . S
C935 C183 1.622 . S
C940 C343 1.677 . S
C951 C383 1.662 . S
C956 C223 1.691 . S
C967 C362 2.265 . S
C972 C2 2.278 . S
C983 C402 2.254 . S
C988 C42 2.261 . S
C999 C82 2.277 . S
C1004 C442 2.265 . S
C1015 C122 2.255 . S
C1020 C242 2.264 . S
C1031 C282 2.284 . S
C1036 C162 2.273 . S
C1047 C322 2.286 . S
C1052 C202 2.277 . S
