# Generated by pormake.
# Topology uon, (4)-cn, num edge types: 1
# Building blocks:
#     Node 0, Type 0, BuildingBlock: ESEHIV_clean_sbu_0, # of connection points: 4
#     Node 1, Type 0, BuildingBlock: ESEHIV_clean_sbu_0, # of connection points: 4
#     Node 2, Type 0, BuildingBlock: ESEHIV_clean_sbu_0, # of connection points: 4
#     Node 3, Type 0, BuildingBlock: ESEHIV_clean_sbu_0, # of connection points: 4
#     Node 4, Type 0, BuildingBlock: ESEHIV_clean_sbu_0, # of connection points: 4
#     Node 5, Type 0, BuildingBlock: ESEHIV_clean_sbu_0, # of connection points: 4
#     Edge 6, Type (0, 0), BuildingBlock: XIVTED_clean_linker_0, # of connection points: 2
#     Edge 7, Type (0, 0), BuildingBlock: XIVTED_clean_linker_0, # of connection points: 2
#     Edge 8, Type (0, 0), BuildingBlock: XIVTED_clean_linker_0, # of connection points: 2
#     Edge 9, Type (0, 0), BuildingBlock: XIVTED_clean_linker_0, # of connection points: 2
#     Edge 10, Type (0, 0), BuildingBlock: XIVTED_clean_linker_0, # of connection points: 2
#     Edge 11, Type (0, 0), BuildingBlock: XIVTED_clean_linker_0, # of connection points: 2
#     Edge 12, Type (0, 0), BuildingBlock: XIVTED_clean_linker_0, # of connection points: 2
#     Edge 13, Type (0, 0), BuildingBlock: XIVTED_clean_linker_0, # of connection points: 2
#     Edge 14, Type (0, 0), BuildingBlock: XIVTED_clean_linker_0, # of connection points: 2
#     Edge 15, Type (0, 0), BuildingBlock: XIVTED_clean_linker_0, # of connection points: 2
#     Edge 16, Type (0, 0), BuildingBlock: XIVTED_clean_linker_0, # of connection points: 2
#     Edge 17, Type (0, 0), BuildingBlock: XIVTED_clean_linker_0, # of connection points: 2
# Relax obj value: 0.074
# Max RMSD: 0.073
# Mean RMSD: 0.073
data_MOF--net-uon--node1-ESEHIV_clean_sbu_0--edge1-XIVTED_clean_linker_0
_symmetry_space_group_name_H-M    P1
_symmetry_Int_Tables_number       1
_symmetry_cell_setting            triclinic
loop_
_symmetry_equiv_pos_as_xyz
'x, y, z'
_cell_length_a     35.058396
_cell_length_b     34.797929
_cell_length_c     27.564323
_cell_angle_alpha  89.725673
_cell_angle_beta   90.535161
_cell_angle_gamma 120.41695
loop_
_atom_site_label
_atom_site_type_symbol
_atom_site_fract_x
_atom_site_fract_y
_atom_site_fract_z
_atom_type_partial_charge
Cu0 Cu 0.21601 0.42468 0.99973 0.0
N1 N 0.2776 0.45205 0.99831 0.0
N2 N 0.34519 0.49342 0.9667 0.0
C3 C 0.30118 0.47248 0.95841 0.0
C4 C 0.34936 0.48532 1.01394 0.0
C5 C 0.30756 0.4597 0.03334 0.0
O6 O 0.19917 0.40023 0.93417 0.0
C7 C 0.22658 0.50932 0.02576 0.0
O8 O 0.26654 0.5266 1.00791 0.0
H9 H 0.28604 0.47415 0.92469 0.0
H10 H 0.29964 0.44881 0.07059 0.0
N11 N 0.18998 0.37973 0.0465 0.0
N12 N 0.13889 0.33373 0.09937 0.0
C13 C 0.1494 0.36508 0.06478 0.0
C14 C 0.20601 0.357 0.07024 0.0
C15 C 0.17455 0.32857 0.10291 0.0
C16 C 0.18864 0.35993 0.92621 0.0
O17 O 0.17635 0.33209 0.96289 0.0
H18 H 0.1286 0.37832 0.05378 0.0
H19 H 0.23831 0.36103 0.06446 0.0
O20 O 0.19916 0.4679 1.01985 0.0
H21 H 0.38029 0.49791 0.03356 0.0
H22 H 0.17784 0.30598 0.12737 0.0
Cu23 Cu 0.81093 0.23088 0.3661 0.0
N24 N 0.83158 0.29188 0.37123 0.0
N25 N 0.83895 0.35635 0.34465 0.0
C26 C 0.8319 0.31568 0.33245 0.0
C27 C 0.84345 0.35816 0.39351 0.0
C28 C 0.83864 0.31823 0.40983 0.0
O29 O 0.84296 0.22529 0.31134 0.0
C30 C 0.72709 0.20159 0.39886 0.0
O31 O 0.7496 0.211 0.4397 0.0
H32 H 0.82363 0.30175 0.29627 0.0
H33 H 0.83758 0.30824 0.44723 0.0
N34 N 0.82131 0.20444 0.42067 0.0
N35 N 0.81345 0.15054 0.4718 0.0
C36 C 0.80074 0.16018 0.42917 0.0
C37 C 0.84816 0.22362 0.45918 0.0
C38 C 0.84347 0.19052 0.49066 0.0
C39 C 0.88383 0.24005 0.32055 0.0
O40 O 0.89895 0.25556 0.36419 0.0
H41 H 0.77668 0.13563 0.40446 0.0
H42 H 0.86938 0.25913 0.46423 0.0
O43 O 0.74705 0.20543 0.35905 0.0
H44 H 0.84818 0.38557 0.41616 0.0
H45 H 0.8601 0.1957 0.52534 0.0
Cu46 Cu 0.60612 0.81698 0.71273 0.0
N47 N 0.57216 0.84354 0.70028 0.0
N48 N 0.53235 0.86172 0.65127 0.0
C49 C 0.54846 0.83424 0.65894 0.0
C50 C 0.54605 0.88923 0.69012 0.0
C51 C 0.57102 0.87817 0.72017 0.0
O52 O 0.64757 0.83924 0.65851 0.0
C53 C 0.53858 0.74443 0.75329 0.0
O54 O 0.53869 0.77806 0.77489 0.0
H55 H 0.54461 0.80852 0.6341 0.0
H56 H 0.58876 0.89553 0.75268 0.0
N57 N 0.6361 0.82971 0.77267 0.0
N58 N 0.66424 0.81334 0.83757 0.0
C59 C 0.64294 0.79908 0.79471 0.0
C60 C 0.65398 0.86516 0.80266 0.0
C61 C 0.67175 0.8552 0.84273 0.0
C62 C 0.68764 0.87026 0.66461 0.0
O63 O 0.70495 0.87779 0.7084 0.0
H64 H 0.63265 0.76674 0.77914 0.0
H65 H 0.65423 0.89593 0.79593 0.0
O66 O 0.565 0.75279 0.71797 0.0
H67 H 0.54041 0.91677 0.69529 0.0
H68 H 0.68818 0.87672 0.87349 0.0
Cu69 Cu 0.82386 0.59595 1.01349 0.0
N70 N 0.80815 0.56117 0.95667 0.0
N71 N 0.76751 0.50923 0.90078 0.0
C72 C 0.76717 0.52902 0.94281 0.0
C73 C 0.81049 0.52969 0.88793 0.0
C74 C 0.83534 0.56144 0.92237 0.0
O75 O 0.79669 0.63305 1.01089 0.0
C76 C 0.80948 0.56359 0.11292 0.0
O77 O 0.81742 0.60318 0.12632 0.0
H78 H 0.73783 0.51942 0.96386 0.0
H79 H 0.87088 0.58276 0.92258 0.0
N80 N 0.88532 0.63537 1.017 0.0
N81 N 0.95281 0.67997 0.0488 0.0
C82 C 0.91071 0.64743 0.05747 0.0
C83 C 0.91232 0.66138 0.98152 0.0
C84 C 0.95402 0.6886 1.0009 0.0
C85 C 0.75538 0.61884 1.00816 0.0
O86 O 0.72728 0.57599 1.01296 0.0
H87 H 0.89842 0.63323 0.09282 0.0
H88 H 0.90203 0.66176 0.9445 0.0
O89 O 0.80785 0.55468 0.06792 0.0
H90 H 0.82323 0.5225 0.85577 0.0
H91 H 0.98242 0.71416 0.98169 0.0
Cu92 Cu 0.24422 0.80198 0.36315 0.0
N93 N 0.22322 0.74173 0.35053 0.0
N94 N 0.20931 0.68353 0.30364 0.0
C95 C 0.22473 0.72774 0.30556 0.0
C96 C 0.19685 0.66888 0.34951 0.0
C97 C 0.20556 0.70497 0.37848 0.0
O98 O 0.21923 0.81916 0.30923 0.0
C99 C 0.33098 0.81479 0.37354 0.0
O100 O 0.3133 0.77327 0.35919 0.0
H101 H 0.23732 0.75005 0.27479 0.0
H102 H 0.20004 0.70451 0.41707 0.0
N103 N 0.22791 0.81489 0.42279 0.0
N104 N 0.23559 0.8581 0.48641 0.0
C105 C 0.25248 0.85504 0.44386 0.0
C106 C 0.19411 0.79123 0.45333 0.0
C107 C 0.19854 0.8181 0.49251 0.0
C108 C 0.17847 0.80737 0.31283 0.0
O109 O 0.15885 0.79194 0.3546 0.0
H110 H 0.282 0.88197 0.42764 0.0
H111 H 0.16802 0.75715 0.44742 0.0
O112 O 0.30871 0.83439 0.36937 0.0
H113 H 0.1836 0.63485 0.3616 0.0
H114 H 0.17654 0.80885 0.52319 0.0
Cu115 Cu 0.43315 0.24591 0.64854 0.0
N116 N 0.4641 0.26115 0.59008 0.0
N117 N 0.50198 0.25657 0.5275 0.0
C118 C 0.4745 0.23474 0.56478 0.0
C119 C 0.5086 0.29834 0.52939 0.0
C120 C 0.48536 0.30107 0.56806 0.0
O121 O 0.40154 0.18065 0.65141 0.0
C122 C 0.51423 0.27868 0.70127 0.0
O123 O 0.52356 0.2585 0.66721 0.0
H124 H 0.46335 0.20063 0.57496 0.0
H125 H 0.48561 0.3306 0.58063 0.0
N126 N 0.39401 0.26778 0.64977 0.0
N127 N 0.34787 0.28932 0.67741 0.0
C128 C 0.37146 0.2694 0.68834 0.0
C129 C 0.3842 0.28715 0.61319 0.0
C130 C 0.35589 0.3006 0.63014 0.0
C131 C 0.36092 0.15683 0.6391 0.0
O132 O 0.33799 0.17636 0.62965 0.0
H133 H 0.37317 0.2571 0.72397 0.0
H134 H 0.39696 0.29149 0.57678 0.0
O135 O 0.47616 0.27501 0.70125 0.0
H136 H 0.53068 0.32582 0.50636 0.0
H137 H 0.34205 0.3171 0.60921 0.0
H138 H 0.23637 0.41423 0.84982 0.0
H139 H 0.30026 0.23881 0.75363 0.0
H140 H 0.17422 0.27807 0.89984 0.0
H141 H 0.33291 0.35873 0.67465 0.0
H142 H 0.2552 0.25405 0.80872 0.0
H143 H 0.2716 0.39561 0.78485 0.0
C144 C 0.22929 0.38023 0.84658 0.0
C145 C 0.20244 0.34777 0.8807 0.0
C146 C 0.27197 0.27694 0.77916 0.0
C147 C 0.24354 0.32655 0.80711 0.0
C148 C 0.29801 0.2684 0.74796 0.0
C149 C 0.32051 0.29758 0.70957 0.0
C150 C 0.26883 0.31534 0.7725 0.0
C151 C 0.31587 0.33518 0.70355 0.0
C152 C 0.24968 0.36969 0.80963 0.0
C153 C 0.19486 0.30434 0.87473 0.0
N154 N 0.29091 0.3432 0.73492 0.0
N155 N 0.21574 0.29521 0.83922 0.0
H156 H 0.87996 0.24687 0.22074 0.0
H157 H 0.12875 0.29744 0.18935 0.0
H158 H 0.96107 0.24197 0.33642 0.0
H159 H 0.05778 0.32181 0.07608 0.0
H160 H 0.06297 0.26651 0.23972 0.0
H161 H 0.93996 0.26379 0.16332 0.0
C162 C 0.90996 0.24851 0.23386 0.0
C163 C 0.91567 0.24331 0.28344 0.0
C164 C 0.06164 0.27842 0.20373 0.0
C165 C 0.98428 0.26283 0.21839 0.0
C166 C 0.09927 0.29591 0.17475 0.0
C167 C 0.0992 0.31275 0.12839 0.0
C168 C 1.02334 0.27756 0.18644 0.0
C169 C 0.05979 0.31008 0.11187 0.0
C170 C 0.9443 0.25848 0.20122 0.0
C171 C 0.95538 0.24616 0.29859 0.0
N172 N 1.02358 0.29307 0.1409 0.0
N173 N 0.98808 0.25589 0.26636 0.0
H174 H 0.73432 0.07469 0.45489 0.0
H175 H 0.77418 0.93708 0.66295 0.0
H176 H 0.85477 0.12629 0.53907 0.0
H177 H 0.65208 0.88489 0.58174 0.0
H178 H 0.80693 1.00307 0.61119 0.0
H179 H 0.70627 1.00252 0.49476 0.0
C180 C 0.75515 0.07088 0.48134 0.0
C181 C 0.79704 0.10704 0.49367 0.0
C182 C 0.77315 0.97699 0.6042 0.0
C183 C 0.76474 0.02408 0.53994 0.0
C184 C 0.75445 0.93906 0.63363 0.0
C185 C 0.71017 0.9053 0.62696 0.0
C186 C 0.74742 0.98162 0.56781 0.0
C187 C 0.68636 0.9099 0.58824 0.0
C188 C 0.73895 0.02956 0.5043 0.0
C189 C 0.82208 0.09984 0.52882 0.0
N190 N 0.70509 0.94756 0.56056 0.0
N191 N 0.80552 0.05939 0.55073 0.0
H192 H 0.67095 0.59755 0.98362 0.0
H193 H 0.73687 0.84401 0.89631 0.0
H194 H 0.80373 0.70993 0.99608 0.0
H195 H 0.61774 0.72429 0.85277 0.0
H196 H 0.75807 0.79831 0.9454 0.0
H197 H 0.64709 0.64663 0.94857 0.0
C198 C 0.69505 0.63265 0.9796 0.0
C199 C 0.73955 0.64945 0.99257 0.0
C200 C 0.72715 0.78217 0.92532 0.0
C201 C 0.71233 0.70604 0.95205 0.0
C202 C 0.71495 0.80825 0.89758 0.0
C203 C 0.67567 0.78792 0.87006 0.0
C204 C 0.6995 0.73553 0.92606 0.0
C205 C 0.64858 0.74136 0.8728 0.0
C206 C 0.6814 0.66067 0.95932 0.0
C207 C 0.76915 0.69537 0.98638 0.0
N208 N 0.66099 0.71686 0.90011 0.0
N209 N 0.75508 0.722 0.96636 0.0
H210 H 0.04159 0.71892 0.03479 0.0
H211 H 0.0975 0.79969 0.31141 0.0
H212 H 0.9443 0.69501 0.14348 0.0
H213 H 0.19416 0.79885 0.21642 0.0
H214 H 0.04422 0.77349 0.24472 0.0
H215 H 0.10029 0.7582 0.09587 0.0
C216 C 0.03258 0.72209 0.07138 0.0
C217 C 0.98787 0.70328 0.08409 0.0
C218 C 0.07718 0.77944 0.23813 0.0
C219 C 0.0548 0.74846 0.15393 0.0
C220 C 0.1078 0.79474 0.27619 0.0
C221 C 0.15034 0.80125 0.26965 0.0
C222 C 0.08885 0.77025 0.1929 0.0
C223 C 0.16179 0.79444 0.22305 0.0
C224 C 0.06608 0.7444 0.10621 0.0
C225 C 0.97814 0.70822 0.13214 0.0
N226 N 0.13103 0.7788 0.18652 0.0
N227 N 1.01122 0.7303 0.16512 0.0
H228 H 0.27336 0.09411 0.62776 0.0
H229 H 0.32204 0.91811 0.50257 0.0
H230 H 0.40357 0.10999 0.62347 0.0
H231 H 0.19044 0.88712 0.54021 0.0
H232 H 0.35238 0.98782 0.54805 0.0
H233 H 0.24205 1.01779 0.598 0.0
C234 C 0.29535 0.08137 0.62117 0.0
C235 C 0.34124 0.10866 0.62799 0.0
C236 C 0.31688 0.96566 0.54684 0.0
C237 C 0.30555 0.0213 0.59306 0.0
C238 C 0.29953 0.92596 0.52064 0.0
C239 C 0.25361 0.89697 0.51723 0.0
C240 C 0.28814 0.97701 0.56934 0.0
C241 C 0.22601 0.90846 0.54202 0.0
C242 C 0.2774 0.03772 0.60416 0.0
C243 C 0.36802 0.09021 0.6189 0.0
N244 N 0.24365 0.94786 0.56649 0.0
N245 N 0.34986 0.04794 0.60131 0.0
H246 H 0.26322 0.71536 0.22544 0.0
H247 H 0.15811 0.47927 0.09085 0.0
H248 H 0.15541 0.59467 0.28525 0.0
H249 H 0.27465 0.59904 0.04276 0.0
H250 H 0.1509 0.52168 0.15735 0.0
H251 H 0.2626 0.67391 0.1545 0.0
C252 C 0.23903 0.68017 0.22358 0.0
C253 C 0.20911 0.65866 0.26158 0.0
C254 C 0.17777 0.53872 0.13194 0.0
C255 C 0.20865 0.61043 0.17984 0.0
C256 C 0.18173 0.51462 0.09366 0.0
C257 C 0.21718 0.53556 0.0611 0.0
C258 C 0.20935 0.58414 0.13761 0.0
C259 C 0.24691 0.58138 0.06696 0.0
C260 C 0.2389 0.65637 0.18296 0.0
C261 C 0.17929 0.61262 0.25714 0.0
N262 N 0.24244 0.60397 0.10451 0.0
N263 N 0.17979 0.59005 0.21703 0.0
H264 H 0.5435 0.29152 0.44152 0.0
H265 H 0.68824 0.23461 0.33731 0.0
H266 H 0.51335 0.1855 0.54354 0.0
H267 H 0.66541 0.1566 0.46707 0.0
H268 H 0.62409 0.24187 0.35666 0.0
H269 H 0.58973 0.27056 0.3969 0.0
C270 C 0.54611 0.2635 0.45434 0.0
C271 C 0.52479 0.24087 0.49708 0.0
C272 C 0.6327 0.22285 0.38083 0.0
C273 C 0.5772 0.21555 0.44502 0.0
C274 C 0.66888 0.21794 0.36912 0.0
C275 C 0.68223 0.19529 0.4009 0.0
C276 C 0.61013 0.20508 0.42476 0.0
C277 C 0.65637 0.17469 0.44185 0.0
C278 C 0.57227 0.25107 0.42829 0.0
C279 C 0.52887 0.2042 0.51105 0.0
N280 N 0.622 0.18051 0.45285 0.0
N281 N 0.55493 0.1932 0.48553 0.0
H282 H 0.48073 0.65947 0.71866 0.0
H283 H 0.42721 0.56222 0.98984 0.0
H284 H 0.54809 0.73255 0.84781 0.0
H285 H 0.34179 0.49379 0.86774 0.0
H286 H 0.48044 0.61795 0.93455 0.0
H287 H 0.43777 0.59217 0.76899 0.0
C288 C 0.48714 0.661 0.75732 0.0
C289 C 0.51771 0.70143 0.7793 0.0
C290 C 0.45018 0.59056 0.91971 0.0
C291 C 0.46913 0.62542 0.83675 0.0
C292 C 0.41979 0.55842 0.95139 0.0
C293 C 0.3794 0.52346 0.93377 0.0
C294 C 0.44034 0.58803 0.86984 0.0
C295 C 0.37191 0.52072 0.88325 0.0
C296 C 0.46252 0.62283 0.78605 0.0
C297 C 0.52457 0.70199 0.82956 0.0
N298 N 0.40182 0.5528 0.85314 0.0
N299 N 0.50043 0.66477 0.85649 0.0
H300 H 0.81382 0.57045 0.21278 0.0
H301 H 0.84986 0.3626 0.24676 0.0
H302 H 0.80646 0.48463 0.09604 0.0
H303 H 0.82249 0.42314 0.36769 0.0
H304 H 0.83998 0.41176 0.1918 0.0
H305 H 0.82133 0.52078 0.27073 0.0
C306 C 0.81336 0.54103 0.19931 0.0
C307 C 0.80951 0.53184 0.14931 0.0
C308 C 0.83603 0.4143 0.23036 0.0
C309 C 0.81886 0.47531 0.21543 0.0
C310 C 0.84157 0.38603 0.26196 0.0
C311 C 0.83646 0.38799 0.31225 0.0
C312 C 0.82566 0.44542 0.24881 0.0
C313 C 0.82693 0.42027 0.3294 0.0
C314 C 0.81777 0.51276 0.23244 0.0
C315 C 0.80929 0.49323 0.13412 0.0
N316 N 0.82179 0.44763 0.29777 0.0
N317 N 0.81423 0.46672 0.1669 0.0
H318 H 0.39454 0.79166 0.3788 0.0
H319 H 0.47671 0.89493 0.64291 0.0
H320 H 0.35485 0.87784 0.44522 0.0
H321 H 0.53436 0.83202 0.56071 0.0
H322 H 0.434 0.89228 0.57057 0.0
H323 H 0.44875 0.80973 0.44383 0.0
C324 C 0.39785 0.81512 0.40657 0.0
C325 C 0.37003 0.83317 0.40649 0.0
C326 C 0.45625 0.87931 0.56843 0.0
C327 C 0.43138 0.85318 0.48216 0.0
C328 C 0.48068 0.88086 0.60974 0.0
C329 C 0.50868 0.86292 0.60846 0.0
C330 C 0.45975 0.85959 0.52554 0.0
C331 C 0.51236 0.84507 0.56424 0.0
C332 C 0.42871 0.8253 0.44391 0.0
C333 C 0.37575 0.86329 0.44362 0.0
N334 N 0.48801 0.84357 0.52491 0.0
N335 N 0.40527 0.8718 0.48037 0.0
H336 H 0.51001 0.33236 0.7718 0.0
H337 H 0.76837 0.44931 0.83837 0.0
H338 H 0.59922 0.29531 0.70921 0.0
H339 H 0.68086 0.487 0.9041 0.0
H340 H 0.70587 0.39115 0.79308 0.0
H341 H 0.57072 0.38675 0.82327 0.0
C342 C 0.5422 0.33532 0.76913 0.0
C343 C 0.5494 0.30916 0.73589 0.0
C344 C 0.7002 0.41202 0.81748 0.0
C345 C 0.61926 0.37175 0.79459 0.0
C346 C 0.73608 0.44556 0.84324 0.0
C347 C 0.7302 0.47355 0.87505 0.0
C348 C 0.65779 0.40618 0.8232 0.0
C349 C 0.68711 0.46618 0.88035 0.0
C350 C 0.57691 0.36652 0.79847 0.0
C351 C 0.59195 0.31469 0.73409 0.0
N352 N 0.65268 0.43343 0.85456 0.0
N353 N 0.62515 0.34538 0.76275 0.0
loop_
_geom_bond_atom_site_label_1
_geom_bond_atom_site_label_2
_geom_bond_distance
_geom_bond_site_symmetry_2
_ccdc_geom_bond_type
Cu0 N1 1.999 . S
Cu0 O6 1.974 . S
Cu0 N11 1.985 1_556 S
Cu0 O20 1.959 1_556 S
N1 Cu0 1.999 . S
N1 C3 1.263 . S
N1 C5 1.389 . S
N2 C3 1.358 . S
N2 C4 1.400 . S
C3 N1 1.263 . S
C3 N2 1.358 . S
C3 H9 0.930 . S
C4 N2 1.400 . S
C4 C5 1.351 . S
C4 H21 0.930 . S
C5 N1 1.389 . S
C5 C4 1.351 . S
C5 H10 0.930 . S
O6 Cu0 1.974 . S
O6 C16 1.282 . S
C7 O8 1.261 . S
C7 O20 1.251 . S
O8 C7 1.261 . S
H9 C3 0.930 . S
H10 C5 0.930 . S
N11 Cu0 1.985 1_554 S
N11 C13 1.335 . S
N11 C14 1.390 . S
N12 C13 1.345 . S
N12 C15 1.336 . S
C13 N11 1.335 . S
C13 N12 1.345 . S
C13 H18 0.930 . S
C14 N11 1.390 . S
C14 C15 1.346 . S
C14 H19 0.930 . S
C15 N12 1.336 . S
C15 C14 1.346 . S
C15 H22 0.929 . S
C16 O6 1.282 . S
C16 O17 1.216 . S
O17 C16 1.216 . S
H18 C13 0.930 . S
H19 C14 0.930 . S
O20 Cu0 1.959 1_554 S
O20 C7 1.251 . S
H21 C4 0.930 . S
H22 C15 0.929 . S
Cu23 N24 1.999 . S
Cu23 O29 1.974 . S
Cu23 N34 1.985 . S
Cu23 O43 1.959 . S
N24 Cu23 1.999 . S
N24 C26 1.263 . S
N24 C28 1.389 . S
N25 C26 1.358 . S
N25 C27 1.400 . S
C26 N24 1.263 . S
C26 N25 1.358 . S
C26 H32 0.930 . S
C27 N25 1.400 . S
C27 C28 1.351 . S
C27 H44 0.930 . S
C28 N24 1.389 . S
C28 C27 1.351 . S
C28 H33 0.930 . S
O29 Cu23 1.974 . S
O29 C39 1.282 . S
C30 O31 1.261 . S
C30 O43 1.251 . S
O31 C30 1.261 . S
H32 C26 0.930 . S
H33 C28 0.930 . S
N34 Cu23 1.985 . S
N34 C36 1.335 . S
N34 C37 1.390 . S
N35 C36 1.345 . S
N35 C38 1.336 . S
C36 N34 1.335 . S
C36 N35 1.345 . S
C36 H41 0.930 . S
C37 N34 1.390 . S
C37 C38 1.346 . S
C37 H42 0.930 . S
C38 N35 1.336 . S
C38 C37 1.346 . S
C38 H45 0.929 . S
C39 O29 1.282 . S
C39 O40 1.216 . S
O40 C39 1.216 . S
H41 C36 0.930 . S
H42 C37 0.930 . S
O43 Cu23 1.959 . S
O43 C30 1.251 . S
H44 C27 0.930 . S
H45 C38 0.929 . S
Cu46 N47 1.999 . S
Cu46 O52 1.974 . S
Cu46 N57 1.985 . S
Cu46 O66 1.959 . S
N47 Cu46 1.999 . S
N47 C49 1.263 . S
N47 C51 1.389 . S
N48 C49 1.358 . S
N48 C50 1.400 . S
C49 N47 1.263 . S
C49 N48 1.358 . S
C49 H55 0.930 . S
C50 N48 1.400 . S
C50 C51 1.351 . S
C50 H67 0.930 . S
C51 N47 1.389 . S
C51 C50 1.351 . S
C51 H56 0.930 . S
O52 Cu46 1.974 . S
O52 C62 1.282 . S
C53 O54 1.261 . S
C53 O66 1.251 . S
O54 C53 1.261 . S
H55 C49 0.930 . S
H56 C51 0.930 . S
N57 Cu46 1.985 . S
N57 C59 1.335 . S
N57 C60 1.390 . S
N58 C59 1.345 . S
N58 C61 1.336 . S
C59 N57 1.335 . S
C59 N58 1.345 . S
C59 H64 0.930 . S
C60 N57 1.390 . S
C60 C61 1.346 . S
C60 H65 0.930 . S
C61 N58 1.336 . S
C61 C60 1.346 . S
C61 H68 0.929 . S
C62 O52 1.282 . S
C62 O63 1.216 . S
O63 C62 1.216 . S
H64 C59 0.930 . S
H65 C60 0.930 . S
O66 Cu46 1.959 . S
O66 C53 1.251 . S
H67 C50 0.930 . S
H68 C61 0.929 . S
Cu69 N70 1.999 . S
Cu69 O75 1.974 . S
Cu69 N80 1.985 1_556 S
Cu69 O89 1.959 1_556 S
N70 Cu69 1.999 . S
N70 C72 1.263 . S
N70 C74 1.389 . S
N71 C72 1.358 . S
N71 C73 1.400 . S
C72 N70 1.263 . S
C72 N71 1.358 . S
C72 H78 0.930 . S
C73 N71 1.400 . S
C73 C74 1.351 . S
C73 H90 0.930 . S
C74 N70 1.389 . S
C74 C73 1.351 . S
C74 H79 0.930 . S
O75 Cu69 1.974 . S
O75 C85 1.282 . S
C76 O77 1.261 . S
C76 O89 1.251 . S
O77 C76 1.261 . S
H78 C72 0.930 . S
H79 C74 0.930 . S
N80 Cu69 1.985 1_554 S
N80 C82 1.335 . S
N80 C83 1.390 . S
N81 C82 1.345 . S
N81 C84 1.336 . S
C82 N80 1.335 . S
C82 N81 1.345 . S
C82 H87 0.930 . S
C83 N80 1.390 . S
C83 C84 1.346 . S
C83 H88 0.930 . S
C84 N81 1.336 . S
C84 C83 1.346 . S
C84 H91 0.929 . S
C85 O75 1.282 . S
C85 O86 1.216 . S
O86 C85 1.216 . S
H87 C82 0.930 . S
H88 C83 0.930 . S
O89 Cu69 1.959 1_554 S
O89 C76 1.251 . S
H90 C73 0.930 . S
H91 C84 0.929 . S
Cu92 N93 1.999 . S
Cu92 O98 1.974 . S
Cu92 N103 1.985 . S
Cu92 O112 1.959 . S
N93 Cu92 1.999 . S
N93 C95 1.263 . S
N93 C97 1.389 . S
N94 C95 1.358 . S
N94 C96 1.400 . S
C95 N93 1.263 . S
C95 N94 1.358 . S
C95 H101 0.930 . S
C96 N94 1.400 . S
C96 C97 1.351 . S
C96 H113 0.930 . S
C97 N93 1.389 . S
C97 C96 1.351 . S
C97 H102 0.930 . S
O98 Cu92 1.974 . S
O98 C108 1.282 . S
C99 O100 1.261 . S
C99 O112 1.251 . S
O100 C99 1.261 . S
H101 C95 0.930 . S
H102 C97 0.930 . S
N103 Cu92 1.985 . S
N103 C105 1.335 . S
N103 C106 1.390 . S
N104 C105 1.345 . S
N104 C107 1.336 . S
C105 N103 1.335 . S
C105 N104 1.345 . S
C105 H110 0.930 . S
C106 N103 1.390 . S
C106 C107 1.346 . S
C106 H111 0.930 . S
C107 N104 1.336 . S
C107 C106 1.346 . S
C107 H114 0.929 . S
C108 O98 1.282 . S
C108 O109 1.216 . S
O109 C108 1.216 . S
H110 C105 0.930 . S
H111 C106 0.930 . S
O112 Cu92 1.959 . S
O112 C99 1.251 . S
H113 C96 0.930 . S
H114 C107 0.929 . S
Cu115 N116 1.999 . S
Cu115 O121 1.974 . S
Cu115 N126 1.985 . S
Cu115 O135 1.959 . S
N116 Cu115 1.999 . S
N116 C118 1.263 . S
N116 C120 1.389 . S
N117 C118 1.358 . S
N117 C119 1.400 . S
C118 N116 1.263 . S
C118 N117 1.358 . S
C118 H124 0.930 . S
C119 N117 1.400 . S
C119 C120 1.351 . S
C119 H136 0.930 . S
C120 N116 1.389 . S
C120 C119 1.351 . S
C120 H125 0.930 . S
O121 Cu115 1.974 . S
O121 C131 1.282 . S
C122 O123 1.261 . S
C122 O135 1.251 . S
O123 C122 1.261 . S
H124 C118 0.930 . S
H125 C120 0.930 . S
N126 Cu115 1.985 . S
N126 C128 1.335 . S
N126 C129 1.390 . S
N127 C128 1.345 . S
N127 C130 1.336 . S
C128 N126 1.335 . S
C128 N127 1.345 . S
C128 H133 0.930 . S
C129 N126 1.390 . S
C129 C130 1.346 . S
C129 H134 0.930 . S
C130 N127 1.336 . S
C130 C129 1.346 . S
C130 H137 0.929 . S
C131 O121 1.282 . S
C131 O132 1.216 . S
O132 C131 1.216 . S
H133 C128 0.930 . S
H134 C129 0.930 . S
O135 Cu115 1.959 . S
O135 C122 1.251 . S
H136 C119 0.930 . S
H137 C130 0.929 . S
H138 C144 0.930 . S
H139 C148 0.930 . S
H140 C153 0.929 . S
H141 C151 0.929 . S
H142 C146 0.929 . S
H143 C152 0.929 . S
C144 H138 0.930 . S
C144 C145 1.367 . S
C144 C152 1.378 . S
C145 C144 1.367 . S
C145 C153 1.433 . S
C146 H142 0.929 . S
C146 C148 1.378 . S
C146 C150 1.350 . S
C147 C150 1.463 . S
C147 C152 1.350 . S
C147 N155 1.427 . S
C148 H139 0.930 . S
C148 C146 1.378 . S
C148 C149 1.367 . S
C149 C148 1.367 . S
C149 C151 1.433 . S
C150 C146 1.350 . S
C150 C147 1.463 . S
C150 N154 1.427 . S
C151 H141 0.929 . S
C151 C149 1.433 . S
C151 N154 1.384 . S
C152 H143 0.929 . S
C152 C144 1.378 . S
C152 C147 1.350 . S
C153 H140 0.929 . S
C153 C145 1.433 . S
C153 N155 1.384 . S
N154 C150 1.427 . S
N154 C151 1.384 . S
N155 C147 1.427 . S
N155 C153 1.384 . S
H156 C162 0.930 . S
H157 C166 0.930 . S
H158 C171 0.929 . S
H159 C169 0.929 . S
H160 C164 0.929 . S
H161 C170 0.929 . S
C162 H156 0.930 . S
C162 C163 1.367 . S
C162 C170 1.378 . S
C163 C162 1.367 . S
C163 C171 1.433 . S
C164 H160 0.929 . S
C164 C166 1.378 . S
C164 C168 1.350 . S
C165 C168 1.463 1_655 S
C165 C170 1.350 . S
C165 N173 1.427 . S
C166 H157 0.930 . S
C166 C164 1.378 . S
C166 C167 1.367 . S
C167 C166 1.367 . S
C167 C169 1.433 . S
C168 C164 1.350 . S
C168 C165 1.463 1_455 S
C168 N172 1.427 1_455 S
C169 H159 0.929 . S
C169 C167 1.433 . S
C169 N172 1.384 1_455 S
C170 H161 0.929 . S
C170 C162 1.378 . S
C170 C165 1.350 . S
C171 H158 0.929 . S
C171 C163 1.433 . S
C171 N173 1.384 . S
N172 C168 1.427 1_655 S
N172 C169 1.384 1_655 S
N173 C165 1.427 . S
N173 C171 1.384 . S
H174 C180 0.930 . S
H175 C184 0.930 . S
H176 C189 0.929 . S
H177 C187 0.929 . S
H178 C182 0.929 . S
H179 C188 0.929 . S
C180 H174 0.930 . S
C180 C181 1.367 . S
C180 C188 1.378 . S
C181 C180 1.367 . S
C181 C189 1.433 . S
C182 H178 0.929 . S
C182 C184 1.378 . S
C182 C186 1.350 . S
C183 C186 1.463 1_545 S
C183 C188 1.350 . S
C183 N191 1.427 . S
C184 H175 0.930 . S
C184 C182 1.378 . S
C184 C185 1.367 . S
C185 C184 1.367 . S
C185 C187 1.433 . S
C186 C182 1.350 . S
C186 C183 1.463 1_565 S
C186 N190 1.427 . S
C187 H177 0.929 . S
C187 C185 1.433 . S
C187 N190 1.384 . S
C188 H179 0.929 . S
C188 C180 1.378 . S
C188 C183 1.350 . S
C189 H176 0.929 . S
C189 C181 1.433 . S
C189 N191 1.384 . S
N190 C186 1.427 . S
N190 C187 1.384 . S
N191 C183 1.427 . S
N191 C189 1.384 . S
H192 C198 0.930 . S
H193 C202 0.930 . S
H194 C207 0.929 . S
H195 C205 0.929 . S
H196 C200 0.929 . S
H197 C206 0.929 . S
C198 H192 0.930 . S
C198 C199 1.367 . S
C198 C206 1.378 . S
C199 C198 1.367 . S
C199 C207 1.433 . S
C200 H196 0.929 . S
C200 C202 1.378 . S
C200 C204 1.350 . S
C201 C204 1.463 . S
C201 C206 1.350 . S
C201 N209 1.427 . S
C202 H193 0.930 . S
C202 C200 1.378 . S
C202 C203 1.367 . S
C203 C202 1.367 . S
C203 C205 1.433 . S
C204 C200 1.350 . S
C204 C201 1.463 . S
C204 N208 1.427 . S
C205 H195 0.929 . S
C205 C203 1.433 . S
C205 N208 1.384 . S
C206 H197 0.929 . S
C206 C198 1.378 . S
C206 C201 1.350 . S
C207 H194 0.929 . S
C207 C199 1.433 . S
C207 N209 1.384 . S
N208 C204 1.427 . S
N208 C205 1.384 . S
N209 C201 1.427 . S
N209 C207 1.384 . S
H210 C216 0.930 . S
H211 C220 0.930 . S
H212 C225 0.929 . S
H213 C223 0.929 . S
H214 C218 0.906 1_655 S
H215 C224 0.929 . S
C216 H210 0.930 . S
C216 C217 1.367 . S
C216 C224 1.378 1_655 S
C217 C216 1.367 . S
C217 C225 1.433 . S
C218 H214 0.906 1_455 S
C218 C220 1.378 . S
C218 C222 1.350 . S
C219 C222 1.466 . S
C219 C224 1.351 . S
C219 N227 1.422 1_455 S
C220 H211 0.930 . S
C220 C218 1.378 . S
C220 C221 1.367 . S
C221 C220 1.367 . S
C221 C223 1.433 . S
C222 C218 1.350 . S
C222 C219 1.466 . S
C222 N226 1.427 . S
C223 H213 0.929 . S
C223 C221 1.433 . S
C223 N226 1.384 . S
C224 H215 0.929 . S
C224 C216 1.378 1_455 S
C224 C219 1.351 . S
C225 H212 0.929 . S
C225 C217 1.433 . S
C225 N227 1.384 . S
N226 C222 1.427 . S
N226 C223 1.384 . S
N227 C219 1.422 1_655 S
N227 C225 1.384 . S
H228 C234 0.930 . S
H229 C238 0.930 . S
H230 C243 0.929 . S
H231 C241 0.929 . S
H232 C236 0.929 1_545 S
H233 C242 0.929 . S
C234 H228 0.930 . S
C234 C235 1.367 . S
C234 C242 1.378 . S
C235 C234 1.367 . S
C235 C243 1.433 . S
C236 H232 0.929 1_565 S
C236 C238 1.378 . S
C236 C240 1.349 . S
C237 C240 1.463 1_545 S
C237 C242 1.350 . S
C237 N245 1.427 . S
C238 H229 0.930 . S
C238 C236 1.378 . S
C238 C239 1.367 . S
C239 C238 1.367 . S
C239 C241 1.433 . S
C240 C236 1.349 . S
C240 C237 1.463 1_565 S
C240 N244 1.427 . S
C241 H231 0.929 . S
C241 C239 1.433 . S
C241 N244 1.384 . S
C242 H233 0.929 . S
C242 C234 1.378 . S
C242 C237 1.350 . S
C243 H230 0.929 . S
C243 C235 1.433 . S
C243 N245 1.384 . S
N244 C240 1.427 . S
N244 C241 1.384 . S
N245 C237 1.427 . S
N245 C243 1.384 . S
H246 C252 0.930 . S
H247 C256 0.930 . S
H248 C261 0.929 . S
H249 C259 0.929 . S
H250 C254 0.929 . S
H251 C260 0.929 . S
C252 H246 0.930 . S
C252 C253 1.367 . S
C252 C260 1.378 . S
C253 C252 1.367 . S
C253 C261 1.433 . S
C254 H250 0.929 . S
C254 C256 1.378 . S
C254 C258 1.350 . S
C255 C258 1.463 . S
C255 C260 1.350 . S
C255 N263 1.427 . S
C256 H247 0.930 . S
C256 C254 1.378 . S
C256 C257 1.367 . S
C257 C256 1.367 . S
C257 C259 1.433 . S
C258 C254 1.350 . S
C258 C255 1.463 . S
C258 N262 1.427 . S
C259 H249 0.929 . S
C259 C257 1.433 . S
C259 N262 1.384 . S
C260 H251 0.929 . S
C260 C252 1.378 . S
C260 C255 1.350 . S
C261 H248 0.929 . S
C261 C253 1.433 . S
C261 N263 1.384 . S
N262 C258 1.427 . S
N262 C259 1.384 . S
N263 C255 1.427 . S
N263 C261 1.384 . S
H264 C270 0.930 . S
H265 C274 0.930 . S
H266 C279 0.929 . S
H267 C277 0.929 . S
H268 C272 0.929 . S
H269 C278 0.929 . S
C270 H264 0.930 . S
C270 C271 1.367 . S
C270 C278 1.378 . S
C271 C270 1.367 . S
C271 C279 1.433 . S
C272 H268 0.929 . S
C272 C274 1.378 . S
C272 C276 1.350 . S
C273 C276 1.463 . S
C273 C278 1.350 . S
C273 N281 1.427 . S
C274 H265 0.930 . S
C274 C272 1.378 . S
C274 C275 1.367 . S
C275 C274 1.367 . S
C275 C277 1.433 . S
C276 C272 1.350 . S
C276 C273 1.463 . S
C276 N280 1.427 . S
C277 H267 0.929 . S
C277 C275 1.433 . S
C277 N280 1.384 . S
C278 H269 0.929 . S
C278 C270 1.378 . S
C278 C273 1.350 . S
C279 H266 0.929 . S
C279 C271 1.433 . S
C279 N281 1.384 . S
N280 C276 1.427 . S
N280 C277 1.384 . S
N281 C273 1.427 . S
N281 C279 1.384 . S
H282 C288 0.930 . S
H283 C292 0.930 . S
H284 C297 0.929 . S
H285 C295 0.929 . S
H286 C290 0.929 . S
H287 C296 0.929 . S
C288 H282 0.930 . S
C288 C289 1.367 . S
C288 C296 1.378 . S
C289 C288 1.367 . S
C289 C297 1.433 . S
C290 H286 0.929 . S
C290 C292 1.378 . S
C290 C294 1.350 . S
C291 C294 1.463 . S
C291 C296 1.350 . S
C291 N299 1.427 . S
C292 H283 0.930 . S
C292 C290 1.378 . S
C292 C293 1.367 . S
C293 C292 1.367 . S
C293 C295 1.433 . S
C294 C290 1.350 . S
C294 C291 1.463 . S
C294 N298 1.427 . S
C295 H285 0.929 . S
C295 C293 1.433 . S
C295 N298 1.384 . S
C296 H287 0.929 . S
C296 C288 1.378 . S
C296 C291 1.350 . S
C297 H284 0.929 . S
C297 C289 1.433 . S
C297 N299 1.384 . S
N298 C294 1.427 . S
N298 C295 1.384 . S
N299 C291 1.427 . S
N299 C297 1.384 . S
H300 C306 0.930 . S
H301 C310 0.930 . S
H302 C315 0.929 . S
H303 C313 0.929 . S
H304 C308 0.929 . S
H305 C314 0.929 . S
C306 H300 0.930 . S
C306 C307 1.367 . S
C306 C314 1.378 . S
C307 C306 1.367 . S
C307 C315 1.433 . S
C308 H304 0.929 . S
C308 C310 1.378 . S
C308 C312 1.350 . S
C309 C312 1.463 . S
C309 C314 1.350 . S
C309 N317 1.427 . S
C310 H301 0.930 . S
C310 C308 1.378 . S
C310 C311 1.367 . S
C311 C310 1.367 . S
C311 C313 1.433 . S
C312 C308 1.350 . S
C312 C309 1.463 . S
C312 N316 1.427 . S
C313 H303 0.929 . S
C313 C311 1.433 . S
C313 N316 1.384 . S
C314 H305 0.929 . S
C314 C306 1.378 . S
C314 C309 1.350 . S
C315 H302 0.929 . S
C315 C307 1.433 . S
C315 N317 1.384 . S
N316 C312 1.427 . S
N316 C313 1.384 . S
N317 C309 1.427 . S
N317 C315 1.384 . S
H318 C324 0.930 . S
H319 C328 0.930 . S
H320 C333 0.929 . S
H321 C331 0.929 . S
H322 C326 0.929 . S
H323 C332 0.929 . S
C324 H318 0.930 . S
C324 C325 1.367 . S
C324 C332 1.378 . S
C325 C324 1.367 . S
C325 C333 1.433 . S
C326 H322 0.929 . S
C326 C328 1.378 . S
C326 C330 1.350 . S
C327 C330 1.463 . S
C327 C332 1.350 . S
C327 N335 1.427 . S
C328 H319 0.930 . S
C328 C326 1.378 . S
C328 C329 1.367 . S
C329 C328 1.367 . S
C329 C331 1.433 . S
C330 C326 1.350 . S
C330 C327 1.463 . S
C330 N334 1.427 . S
C331 H321 0.929 . S
C331 C329 1.433 . S
C331 N334 1.384 . S
C332 H323 0.929 . S
C332 C324 1.378 . S
C332 C327 1.350 . S
C333 H320 0.929 . S
C333 C325 1.433 . S
C333 N335 1.384 . S
N334 C330 1.427 . S
N334 C331 1.384 . S
N335 C327 1.427 . S
N335 C333 1.384 . S
H336 C342 0.930 . S
H337 C346 0.930 . S
H338 C351 0.929 . S
H339 C349 0.929 . S
H340 C344 0.929 . S
H341 C350 0.929 . S
C342 H336 0.930 . S
C342 C343 1.367 . S
C342 C350 1.378 . S
C343 C342 1.367 . S
C343 C351 1.433 . S
C344 H340 0.929 . S
C344 C346 1.378 . S
C344 C348 1.350 . S
C345 C348 1.463 . S
C345 C350 1.350 . S
C345 N353 1.427 . S
C346 H337 0.930 . S
C346 C344 1.378 . S
C346 C347 1.367 . S
C347 C346 1.367 . S
C347 C349 1.433 . S
C348 C344 1.350 . S
C348 C345 1.463 . S
C348 N352 1.427 . S
C349 H339 0.929 . S
C349 C347 1.433 . S
C349 N352 1.384 . S
C350 H341 0.929 . S
C350 C342 1.378 . S
C350 C345 1.350 . S
C351 H338 0.929 . S
C351 C343 1.433 . S
C351 N353 1.384 . S
N352 C348 1.427 . S
N352 C349 1.384 . S
N353 C345 1.427 . S
N353 C351 1.384 . S
C145 C16 1.407 . S
C149 N127 1.413 . S
C163 C39 1.408 . S
C167 N12 1.413 . S
C181 N35 1.415 . S
C185 C62 1.409 . S
C199 C85 1.402 . S
C203 N58 1.411 . S
C217 N81 1.413 . S
C221 C108 1.402 . S
C235 C131 1.405 . S
C239 N104 1.415 . S
C253 N94 1.399 . S
C257 C7 1.472 . S
C271 N117 1.400 . S
C275 C30 1.471 . S
C289 C53 1.470 . S
C293 N2 1.401 . S
C307 C76 1.470 . S
C311 N25 1.413 . S
C325 C99 1.470 . S
C329 N48 1.400 . S
C343 C122 1.472 . S
C347 N71 1.399 . S
