# Generated by pormake.
# Topology mok, (4)-cn, num edge types: 1
# Building blocks:
#     Node 0, Type 0, BuildingBlock: CEKHIL_clean_sbu_0, # of connection points: 4
#     Node 1, Type 0, BuildingBlock: CEKHIL_clean_sbu_0, # of connection points: 4
#     Node 2, Type 0, BuildingBlock: CEKHIL_clean_sbu_0, # of connection points: 4
#     Node 3, Type 0, BuildingBlock: CEKHIL_clean_sbu_0, # of connection points: 4
#     Node 4, Type 0, BuildingBlock: CEKHIL_clean_sbu_0, # of connection points: 4
#     Node 5, Type 0, BuildingBlock: CEKHIL_clean_sbu_0, # of connection points: 4
#     Node 6, Type 0, BuildingBlock: CEKHIL_clean_sbu_0, # of connection points: 4
#     Node 7, Type 0, BuildingBlock: CEKHIL_clean_sbu_0, # of connection points: 4
#     Edge 8, Type (0, 0), BuildingBlock: AJUNOK_clean_linker_0, # of connection points: 2
#     Edge 9, Type (0, 0), BuildingBlock: AJUNOK_clean_linker_0, # of connection points: 2
#     Edge 10, Type (0, 0), BuildingBlock: AJUNOK_clean_linker_0, # of connection points: 2
#     Edge 11, Type (0, 0), BuildingBlock: AJUNOK_clean_linker_0, # of connection points: 2
#     Edge 12, Type (0, 0), BuildingBlock: AJUNOK_clean_linker_0, # of connection points: 2
#     Edge 13, Type (0, 0), BuildingBlock: AJUNOK_clean_linker_0, # of connection points: 2
#     Edge 14, Type (0, 0), BuildingBlock: AJUNOK_clean_linker_0, # of connection points: 2
#     Edge 15, Type (0, 0), BuildingBlock: AJUNOK_clean_linker_0, # of connection points: 2
#     Edge 16, Type (0, 0), BuildingBlock: AJUNOK_clean_linker_0, # of connection points: 2
#     Edge 17, Type (0, 0), BuildingBlock: AJUNOK_clean_linker_0, # of connection points: 2
#     Edge 18, Type (0, 0), BuildingBlock: AJUNOK_clean_linker_0, # of connection points: 2
#     Edge 19, Type (0, 0), BuildingBlock: AJUNOK_clean_linker_0, # of connection points: 2
#     Edge 20, Type (0, 0), BuildingBlock: AJUNOK_clean_linker_0, # of connection points: 2
#     Edge 21, Type (0, 0), BuildingBlock: AJUNOK_clean_linker_0, # of connection points: 2
#     Edge 22, Type (0, 0), BuildingBlock: AJUNOK_clean_linker_0, # of connection points: 2
#     Edge 23, Type (0, 0), BuildingBlock: AJUNOK_clean_linker_0, # of connection points: 2
# Relax obj value: 0.017
# Max RMSD: 0.041
# Mean RMSD: 0.041
data_MOF--net-mok--node1-CEKHIL_clean_sbu_0--edge1-AJUNOK_clean_linker_0
_symmetry_space_group_name_H-M    P1
_symmetry_Int_Tables_number       1
_symmetry_cell_setting            triclinic
loop_
_symmetry_equiv_pos_as_xyz
'x, y, z'
_cell_length_a     39.050725
_cell_length_b     11.307366
_cell_length_c     19.705145
_cell_angle_alpha  90.048672
_cell_angle_beta   90.128599
_cell_angle_gamma 90.00127
loop_
_atom_site_label
_atom_site_type_symbol
_atom_site_fract_x
_atom_site_fract_y
_atom_site_fract_z
_atom_type_partial_charge
Co0 Co 0.61765 0.29567 0.04983 0.0
O1 O 0.56857 0.27126 0.04868 0.0
O2 O 0.60651 0.13461 0.02232 0.0
C3 C 0.6193 0.38637 0.15202 0.0
O4 O 0.67045 0.28748 0.04807 0.0
Co5 Co 0.64786 0.55008 0.05356 0.0
O6 O 0.69208 0.46834 0.06874 0.0
C7 C 0.61749 0.45784 0.92709 0.0
C8 C 0.57446 0.16289 0.0307 0.0
C9 C 0.69608 0.35782 0.05894 0.0
O10 O 0.61614 0.35312 0.95277 0.0
O11 O 0.6264 0.54922 0.96116 0.0
O12 O 0.61859 0.27165 0.14809 0.0
O13 O 0.61617 0.44117 0.09503 0.0
Co14 Co 0.4152 0.70282 0.05581 0.0
O15 O 0.46435 0.72166 0.05395 0.0
O16 O 0.42778 0.8625 0.02731 0.0
C17 C 0.41365 0.61346 0.15823 0.0
O18 O 0.36242 0.71552 0.05477 0.0
Co19 Co 0.38342 0.45066 0.06071 0.0
O20 O 0.34001 0.5365 0.07707 0.0
C21 C 0.41456 0.53796 0.93429 0.0
C22 C 0.45958 0.83003 0.03499 0.0
C23 C 0.3365 0.64713 0.06698 0.0
O24 O 0.41593 0.64339 0.95913 0.0
O25 O 0.40543 0.44775 0.96901 0.0
O26 O 0.41505 0.72811 0.15411 0.0
O27 O 0.4159 0.55812 0.10129 0.0
Co28 Co 0.61965 0.70547 0.51807 0.0
O29 O 0.57052 0.72798 0.51995 0.0
O30 O 0.60811 0.86289 0.55115 0.0
C31 C 0.62135 0.62554 0.41317 0.0
O32 O 0.67244 0.71557 0.52017 0.0
Co33 Co 0.65064 0.45337 0.50698 0.0
O34 O 0.69465 0.53761 0.49443 0.0
C35 C 0.62073 0.53289 0.63648 0.0
C36 C 0.57611 0.83428 0.542 0.0
C37 C 0.69828 0.6473 0.5074 0.0
O38 O 0.61833 0.63872 0.61285 0.0
O39 O 0.63047 0.44501 0.60036 0.0
O40 O 0.62034 0.7396 0.42103 0.0
O41 O 0.61851 0.56453 0.46816 0.0
Co42 Co 0.41731 0.29298 0.52343 0.0
O43 O 0.46637 0.27201 0.52561 0.0
O44 O 0.42927 0.13465 0.55526 0.0
C45 C 0.41542 0.37396 0.4189 0.0
O46 O 0.36452 0.28336 0.52495 0.0
Co47 Co 0.38703 0.54673 0.51343 0.0
O48 O 0.34312 0.46243 0.49893 0.0
C49 C 0.41605 0.4636 0.64311 0.0
C50 C 0.46116 0.16512 0.54669 0.0
C51 C 0.339 0.35282 0.51149 0.0
O52 O 0.41842 0.3582 0.61872 0.0
O53 O 0.40701 0.5527 0.60722 0.0
O54 O 0.41662 0.2599 0.42626 0.0
O55 O 0.41845 0.43433 0.47416 0.0
Co56 Co 0.11833 0.80273 0.05798 0.0
O57 O 0.06902 0.78617 0.05564 0.0
O58 O 0.10518 0.64617 0.02548 0.0
C59 C 0.12089 0.88328 0.16277 0.0
O60 O 0.17088 0.78584 0.05654 0.0
Co61 Co 0.1524 0.05015 0.06905 0.0
O62 O 0.19572 0.96061 0.08036 0.0
C63 C 0.12087 0.97548 0.93993 0.0
C64 C 0.07351 0.67889 0.0342 0.0
C65 C 0.19767 0.8499 0.06874 0.0
O66 O 0.11784 0.86925 0.9629 0.0
O67 O 0.13116 0.06209 0.97653 0.0
O68 O 0.11861 0.76939 0.15516 0.0
O69 O 0.11878 0.9442 0.10759 0.0
Co70 Co 0.91494 0.21562 0.04853 0.0
O71 O 0.96415 0.23805 0.04687 0.0
O72 O 0.92648 0.37621 0.0214 0.0
C73 C 0.91349 0.12376 0.15036 0.0
O74 O 0.86231 0.2283 0.0474 0.0
Co75 Co 0.88199 0.96604 0.05215 0.0
O76 O 0.83835 0.05126 0.06779 0.0
C77 C 0.91275 0.05458 0.92513 0.0
C78 C 0.95848 0.34687 0.02929 0.0
C79 C 0.83582 0.16244 0.05855 0.0
O80 O 0.91573 0.15862 0.95131 0.0
O81 O 0.90279 0.96467 0.95927 0.0
O82 O 0.9147 0.2385 0.14688 0.0
O83 O 0.9157 0.06921 0.09306 0.0
Co84 Co 0.12004 0.21517 0.52564 0.0
O85 O 0.07086 0.23807 0.52749 0.0
O86 O 0.10865 0.37595 0.55294 0.0
C87 C 0.12138 0.12355 0.42374 0.0
O88 O 0.17269 0.22692 0.52644 0.0
Co89 Co 0.15249 0.96466 0.52182 0.0
O90 O 0.19629 0.04888 0.50655 0.0
C91 C 0.12198 0.05402 0.64888 0.0
C92 C 0.07663 0.34686 0.54507 0.0
C93 C 0.19902 0.16014 0.51538 0.0
O94 O 0.11927 0.15815 0.62281 0.0
O95 O 0.13166 0.9638 0.61463 0.0
O96 O 0.12023 0.23829 0.42738 0.0
O97 O 0.11907 0.06888 0.48093 0.0
Co98 Co 0.91668 0.80235 0.5159 0.0
O99 O 0.96601 0.78604 0.51793 0.0
O100 O 0.92995 0.646 0.54835 0.0
C101 C 0.914 0.88278 0.41105 0.0
O102 O 0.86414 0.78506 0.51785 0.0
Co103 Co 0.88241 0.04932 0.50487 0.0
O104 O 0.83924 0.95907 0.49306 0.0
C105 C 0.91402 0.97527 0.63405 0.0
C106 C 0.9616 0.67884 0.53948 0.0
C107 C 0.83728 0.84862 0.50538 0.0
O108 O 0.91727 0.86911 0.611 0.0
O109 O 0.90353 0.06161 0.59753 0.0
O110 O 0.91628 0.7689 0.41863 0.0
O111 O 0.9161 0.94372 0.46628 0.0
C112 C 0.77146 0.14151 0.06102 0.0
C113 C 0.80062 0.21554 0.05897 0.0
C114 C 0.73801 0.18769 0.06073 0.0
C115 C 0.73196 0.31032 0.05889 0.0
H116 H 0.77435 0.04629 0.06248 0.0
H117 H 0.71672 0.12634 0.06236 0.0
S118 S 0.79925 0.5438 0.05272 0.0
N119 N 0.82091 0.41861 0.05479 0.0
N120 N 0.75848 0.50556 0.05433 0.0
C121 C 0.76091 0.38568 0.05687 0.0
C122 C 0.79499 0.33844 0.05686 0.0
C123 C 0.26197 0.86718 0.06154 0.0
C124 C 0.2326 0.79516 0.06819 0.0
C125 C 0.29522 0.81918 0.06114 0.0
C126 C 0.30082 0.69676 0.06793 0.0
H127 H 0.25935 0.96205 0.05601 0.0
H128 H 0.31669 0.87899 0.05555 0.0
S129 S 0.23259 0.46897 0.08877 0.0
N130 N 0.21147 0.59489 0.08279 0.0
N131 N 0.27346 0.50421 0.08246 0.0
C132 C 0.27157 0.62359 0.07507 0.0
C133 C 0.23771 0.6727 0.07502 0.0
C134 C 0.77285 0.86661 0.50335 0.0
C135 C 0.80228 0.79393 0.50669 0.0
C136 C 0.73955 0.8191 0.50439 0.0
C137 C 0.73396 0.69642 0.50822 0.0
H138 H 0.77539 0.9618 0.50003 0.0
H139 H 0.71804 0.87935 0.50134 0.0
S140 S 0.80198 0.4663 0.51983 0.0
N141 N 0.82325 0.5921 0.51528 0.0
N142 N 0.76108 0.50275 0.51711 0.0
C143 C 0.76314 0.62245 0.51207 0.0
C144 C 0.79707 0.67104 0.51138 0.0
C145 C 0.26328 0.13821 0.51958 0.0
C146 C 0.23427 0.21235 0.51424 0.0
C147 C 0.2968 0.18382 0.51875 0.0
C148 C 0.30303 0.30583 0.51199 0.0
H149 H 0.26019 0.0435 0.52502 0.0
H150 H 0.31797 0.12246 0.52329 0.0
S151 S 0.23599 0.53882 0.49493 0.0
N152 N 0.21419 0.41437 0.50121 0.0
N153 N 0.2767 0.50051 0.49937 0.0
C154 C 0.27417 0.38118 0.50624 0.0
C155 C 0.24003 0.33453 0.50751 0.0
C156 C 0.62383 0.38597 0.2785 0.0
C157 C 0.62238 0.45009 0.21748 0.0
C158 C 0.62438 0.44375 0.3414 0.0
C159 C 0.62356 0.56799 0.3458 0.0
H160 H 0.62388 0.29017 0.27791 0.0
H161 H 0.62482 0.39017 0.38695 0.0
S162 S 0.62159 0.77752 0.20093 0.0
N163 N 0.62152 0.64534 0.16535 0.0
N164 N 0.62269 0.75361 0.28351 0.0
C165 C 0.62314 0.63343 0.28517 0.0
C166 C 0.6225 0.57457 0.22104 0.0
C167 C 0.41063 0.61399 0.28491 0.0
C168 C 0.41142 0.54996 0.22376 0.0
C169 C 0.41109 0.55607 0.34773 0.0
C170 C 0.41232 0.43185 0.35185 0.0
H171 H 0.41032 0.70979 0.28443 0.0
H172 H 0.41111 0.60948 0.39339 0.0
S173 S 0.41307 0.22257 0.2066 0.0
N174 N 0.41224 0.35479 0.17128 0.0
N175 N 0.41295 0.24635 0.28923 0.0
C176 C 0.41211 0.36652 0.29112 0.0
C177 C 0.41171 0.42546 0.22711 0.0
C178 C 0.4156 0.61458 0.8154 0.0
C179 C 0.42065 0.52037 0.86075 0.0
C180 C 0.41577 0.59612 0.74514 0.0
C181 C 0.42113 0.48269 0.7172 0.0
H182 H 0.40979 0.7024 0.83415 0.0
H183 H 0.41033 0.67116 0.71274 0.0
S184 S 0.4419 0.21035 0.81446 0.0
N185 N 0.4357 0.31252 0.87301 0.0
N186 N 0.43607 0.2776 0.74103 0.0
C187 C 0.42877 0.38933 0.76206 0.0
C188 C 0.42849 0.4082 0.83372 0.0
C189 C 0.62021 0.38082 0.80838 0.0
C190 C 0.61214 0.47329 0.85321 0.0
C191 C 0.62142 0.39977 0.7382 0.0
C192 C 0.61448 0.51191 0.70994 0.0
H193 H 0.62746 0.29469 0.82771 0.0
H194 H 0.62924 0.32662 0.70628 0.0
S195 S 0.58549 0.77729 0.80527 0.0
N196 N 0.59248 0.67651 0.86422 0.0
N197 N 0.59452 0.71235 0.73243 0.0
C198 C 0.60373 0.60267 0.75404 0.0
C199 C 0.60265 0.58332 0.82557 0.0
C200 C 0.12482 0.06525 0.2343 0.0
C201 C 0.12376 0.941 0.23007 0.0
C202 C 0.12489 0.12331 0.29713 0.0
C203 C 0.12389 0.05949 0.35829 0.0
H204 H 0.12494 0.11865 0.18868 0.0
H205 H 0.12507 0.21911 0.29758 0.0
S206 S 0.12294 0.73213 0.37532 0.0
N207 N 0.12327 0.75567 0.29267 0.0
N208 N 0.12332 0.86446 0.41071 0.0
C209 C 0.12385 0.93498 0.35489 0.0
C210 C 0.12381 0.87583 0.29082 0.0
C211 C 0.90967 0.06478 0.33973 0.0
C212 C 0.91116 0.94056 0.34378 0.0
C213 C 0.9096 0.12302 0.27698 0.0
C214 C 0.91103 0.05944 0.21572 0.0
H215 H 0.90919 0.11805 0.38543 0.0
H216 H 0.90907 0.2188 0.2767 0.0
S217 S 0.91342 0.73219 0.19815 0.0
N218 N 0.91266 0.75547 0.28084 0.0
N219 N 0.9126 0.86458 0.16298 0.0
C220 C 0.91155 0.93492 0.21892 0.0
C221 C 0.91159 0.87559 0.2829 0.0
C222 C 0.91743 0.90238 0.75358 0.0
C223 C 0.91937 0.99711 0.70765 0.0
C224 C 0.91695 0.92193 0.8237 0.0
C225 C 0.91851 0.03711 0.85113 0.0
H226 H 0.91462 0.81243 0.73541 0.0
H227 H 0.91415 0.84567 0.85646 0.0
S228 S 0.93 0.31432 0.75267 0.0
N229 N 0.92738 0.20949 0.69455 0.0
N230 N 0.9264 0.24635 0.82642 0.0
C231 C 0.92303 0.13213 0.80587 0.0
C232 C 0.92343 0.11214 0.73422 0.0
C233 C 0.11748 0.90228 0.82041 0.0
C234 C 0.11549 0.99712 0.86635 0.0
C235 C 0.11791 0.92164 0.7503 0.0
C236 C 0.11626 0.03674 0.72288 0.0
H237 H 0.12035 0.8124 0.83856 0.0
H238 H 0.12075 0.8453 0.71754 0.0
S239 S 0.10458 0.31411 0.82137 0.0
N240 N 0.10731 0.20946 0.87949 0.0
N241 N 0.10822 0.24597 0.74761 0.0
C242 C 0.11169 0.13185 0.76815 0.0
C243 C 0.11134 0.11204 0.8398 0.0
C244 C 0.48382 0.03593 0.02437 0.0
C245 C 0.48912 0.91289 0.0267 0.0
C246 C 0.51154 0.11559 0.02371 0.0
C247 C 0.54581 0.07581 0.02455 0.0
H248 H 0.45805 0.07141 0.02527 0.0
H249 H 0.50597 0.20944 0.02378 0.0
S250 S 0.57375 0.76212 0.02605 0.0
N251 N 0.53154 0.75505 0.02642 0.0
N252 N 0.58329 0.90429 0.02464 0.0
C253 C 0.55147 0.95295 0.02416 0.0
C254 C 0.52327 0.8718 0.02543 0.0
C255 C 0.51301 0.87937 0.54636 0.0
C256 C 0.54718 0.91922 0.55177 0.0
C257 C 0.48518 0.95847 0.54832 0.0
C258 C 0.49033 0.08104 0.55493 0.0
H259 H 0.50763 0.78629 0.53887 0.0
H260 H 0.45955 0.92361 0.54169 0.0
S261 S 0.57426 0.23062 0.57791 0.0
N262 N 0.58416 0.08943 0.56956 0.0
N263 N 0.53213 0.23765 0.5724 0.0
C264 C 0.52422 0.12163 0.56337 0.0
C265 C 0.55253 0.04099 0.56207 0.0
C266 C 0.0492 0.47316 0.02478 0.0
C267 C 0.04395 0.59633 0.02517 0.0
C268 C 0.02146 0.39362 0.02419 0.0
C269 C 0.98723 0.43357 0.02307 0.0
H270 H 0.07492 0.43759 0.02736 0.0
H271 H 0.02698 0.29979 0.02594 0.0
S272 S 0.95954 0.74765 0.01697 0.0
N273 N 1.00175 0.75441 0.01984 0.0
N274 N 0.94989 0.60549 0.01791 0.0
C275 C 0.98166 0.55653 0.0203 0.0
C276 C 1.0099 0.63758 0.02161 0.0
C277 C 1.01368 0.39381 0.55062 0.0
C278 C 0.04792 0.43376 0.55117 0.0
C279 C 0.98595 0.47335 0.5498 0.0
C280 C 0.99119 0.59649 0.54859 0.0
H281 H 1.00815 0.29996 0.54949 0.0
H282 H 0.96022 0.43772 0.5477 0.0
S283 S 0.07564 0.74789 0.55495 0.0
N284 N 0.08528 0.60572 0.55484 0.0
N285 N 0.03342 0.75465 0.55248 0.0
C286 C 0.02526 0.6378 0.55156 0.0
C287 C 0.0535 0.55676 0.55311 0.0
loop_
_geom_bond_atom_site_label_1
_geom_bond_atom_site_label_2
_geom_bond_distance
_geom_bond_site_symmetry_2
_ccdc_geom_bond_type
Co0 O1 2.216 . S
Co0 O2 2.091 . S
Co0 O4 2.004 . S
Co0 O10 2.021 1_554 S
Co0 O12 2.137 . S
Co0 O13 2.244 . S
O1 Co0 2.216 . S
O1 C8 1.247 . S
O2 Co0 2.091 . S
O2 C8 1.261 . S
C3 O12 1.247 . S
C3 O13 1.272 . S
O4 Co0 2.004 . S
O4 C9 1.259 . S
Co5 O6 2.061 . S
Co5 O11 2.052 1_554 S
Co5 O13 2.135 . S
O6 Co5 2.061 . S
O6 C9 1.235 . S
C7 O10 1.238 . S
C7 O11 1.241 . S
C8 O1 1.247 . S
C8 O2 1.261 . S
C9 O4 1.259 . S
C9 O6 1.235 . S
O10 Co0 2.021 1_556 S
O10 C7 1.238 . S
O11 Co5 2.052 1_556 S
O11 C7 1.241 . S
O12 Co0 2.137 . S
O12 C3 1.247 . S
O13 Co0 2.244 . S
O13 C3 1.272 . S
O13 Co5 2.135 . S
Co14 O15 2.216 . S
Co14 O16 2.091 . S
Co14 O18 2.004 . S
Co14 O24 2.021 1_554 S
Co14 O26 2.137 . S
Co14 O27 2.244 . S
O15 Co14 2.216 . S
O15 C22 1.247 . S
O16 Co14 2.091 . S
O16 C22 1.261 . S
C17 O26 1.247 . S
C17 O27 1.272 . S
O18 Co14 2.004 . S
O18 C23 1.259 . S
Co19 O20 2.061 . S
Co19 O25 2.052 1_554 S
Co19 O27 2.135 . S
O20 Co19 2.061 . S
O20 C23 1.235 . S
C21 O24 1.238 . S
C21 O25 1.241 . S
C22 O15 1.247 . S
C22 O16 1.261 . S
C23 O18 1.259 . S
C23 O20 1.235 . S
O24 Co14 2.021 1_556 S
O24 C21 1.238 . S
O25 Co19 2.052 1_556 S
O25 C21 1.241 . S
O26 Co14 2.137 . S
O26 C17 1.247 . S
O27 Co14 2.244 . S
O27 C17 1.272 . S
O27 Co19 2.135 . S
Co28 O29 2.216 . S
Co28 O30 2.091 . S
Co28 O32 2.004 . S
Co28 O38 2.021 . S
Co28 O40 2.137 . S
Co28 O41 2.244 . S
O29 Co28 2.216 . S
O29 C36 1.247 . S
O30 Co28 2.091 . S
O30 C36 1.261 . S
C31 O40 1.247 . S
C31 O41 1.272 . S
O32 Co28 2.004 . S
O32 C37 1.259 . S
Co33 O34 2.061 . S
Co33 O39 2.052 . S
Co33 O41 2.135 . S
O34 Co33 2.061 . S
O34 C37 1.235 . S
C35 O38 1.238 . S
C35 O39 1.241 . S
C36 O29 1.247 . S
C36 O30 1.261 . S
C37 O32 1.259 . S
C37 O34 1.235 . S
O38 Co28 2.021 . S
O38 C35 1.238 . S
O39 Co33 2.052 . S
O39 C35 1.241 . S
O40 Co28 2.137 . S
O40 C31 1.247 . S
O41 Co28 2.244 . S
O41 C31 1.272 . S
O41 Co33 2.135 . S
Co42 O43 2.216 . S
Co42 O44 2.091 . S
Co42 O46 2.004 . S
Co42 O52 2.021 . S
Co42 O54 2.137 . S
Co42 O55 2.244 . S
O43 Co42 2.216 . S
O43 C50 1.247 . S
O44 Co42 2.091 . S
O44 C50 1.261 . S
C45 O54 1.247 . S
C45 O55 1.272 . S
O46 Co42 2.004 . S
O46 C51 1.259 . S
Co47 O48 2.061 . S
Co47 O53 2.052 . S
Co47 O55 2.135 . S
O48 Co47 2.061 . S
O48 C51 1.235 . S
C49 O52 1.238 . S
C49 O53 1.241 . S
C50 O43 1.247 . S
C50 O44 1.261 . S
C51 O46 1.259 . S
C51 O48 1.235 . S
O52 Co42 2.021 . S
O52 C49 1.238 . S
O53 Co47 2.052 . S
O53 C49 1.241 . S
O54 Co42 2.137 . S
O54 C45 1.247 . S
O55 Co42 2.244 . S
O55 C45 1.272 . S
O55 Co47 2.135 . S
Co56 O57 2.216 . S
Co56 O58 2.091 . S
Co56 O60 2.004 . S
Co56 O66 2.021 1_554 S
Co56 O68 2.137 . S
Co56 O69 2.244 . S
O57 Co56 2.216 . S
O57 C64 1.247 . S
O58 Co56 2.091 . S
O58 C64 1.261 . S
C59 O68 1.247 . S
C59 O69 1.272 . S
O60 Co56 2.004 . S
O60 C65 1.259 . S
Co61 O62 2.061 1_545 S
Co61 O67 2.052 1_554 S
Co61 O69 2.135 1_545 S
O62 Co61 2.061 1_565 S
O62 C65 1.235 . S
C63 O66 1.238 . S
C63 O67 1.241 1_565 S
C64 O57 1.247 . S
C64 O58 1.261 . S
C65 O60 1.259 . S
C65 O62 1.235 . S
O66 Co56 2.021 1_556 S
O66 C63 1.238 . S
O67 Co61 2.052 1_556 S
O67 C63 1.241 1_545 S
O68 Co56 2.137 . S
O68 C59 1.247 . S
O69 Co56 2.244 . S
O69 C59 1.272 . S
O69 Co61 2.135 1_565 S
Co70 O71 2.216 . S
Co70 O72 2.091 . S
Co70 O74 2.004 . S
Co70 O80 2.021 1_554 S
Co70 O82 2.137 . S
Co70 O83 2.244 . S
O71 Co70 2.216 . S
O71 C78 1.247 . S
O72 Co70 2.091 . S
O72 C78 1.261 . S
C73 O82 1.247 . S
C73 O83 1.272 . S
O74 Co70 2.004 . S
O74 C79 1.259 . S
Co75 O76 2.061 1_565 S
Co75 O81 2.052 1_554 S
Co75 O83 2.135 1_565 S
O76 Co75 2.061 1_545 S
O76 C79 1.235 . S
C77 O80 1.238 . S
C77 O81 1.241 1_545 S
C78 O71 1.247 . S
C78 O72 1.261 . S
C79 O74 1.259 . S
C79 O76 1.235 . S
O80 Co70 2.021 1_556 S
O80 C77 1.238 . S
O81 Co75 2.052 1_556 S
O81 C77 1.241 1_565 S
O82 Co70 2.137 . S
O82 C73 1.247 . S
O83 Co70 2.244 . S
O83 C73 1.272 . S
O83 Co75 2.135 1_545 S
Co84 O85 2.216 . S
Co84 O86 2.091 . S
Co84 O88 2.004 . S
Co84 O94 2.021 . S
Co84 O96 2.137 . S
Co84 O97 2.244 . S
O85 Co84 2.216 . S
O85 C92 1.247 . S
O86 Co84 2.091 . S
O86 C92 1.261 . S
C87 O96 1.247 . S
C87 O97 1.272 . S
O88 Co84 2.004 . S
O88 C93 1.259 . S
Co89 O90 2.061 1_565 S
Co89 O95 2.052 . S
Co89 O97 2.135 1_565 S
O90 Co89 2.061 1_545 S
O90 C93 1.235 . S
C91 O94 1.238 . S
C91 O95 1.241 1_545 S
C92 O85 1.247 . S
C92 O86 1.261 . S
C93 O88 1.259 . S
C93 O90 1.235 . S
O94 Co84 2.021 . S
O94 C91 1.238 . S
O95 Co89 2.052 . S
O95 C91 1.241 1_565 S
O96 Co84 2.137 . S
O96 C87 1.247 . S
O97 Co84 2.244 . S
O97 C87 1.272 . S
O97 Co89 2.135 1_545 S
Co98 O99 2.216 . S
Co98 O100 2.091 . S
Co98 O102 2.004 . S
Co98 O108 2.021 . S
Co98 O110 2.137 . S
Co98 O111 2.244 . S
O99 Co98 2.216 . S
O99 C106 1.247 . S
O100 Co98 2.091 . S
O100 C106 1.261 . S
C101 O110 1.247 . S
C101 O111 1.272 . S
O102 Co98 2.004 . S
O102 C107 1.259 . S
Co103 O104 2.061 1_545 S
Co103 O109 2.052 . S
Co103 O111 2.135 1_545 S
O104 Co103 2.061 1_565 S
O104 C107 1.235 . S
C105 O108 1.238 . S
C105 O109 1.241 1_565 S
C106 O99 1.247 . S
C106 O100 1.261 . S
C107 O102 1.259 . S
C107 O104 1.235 . S
O108 Co98 2.021 . S
O108 C105 1.238 . S
O109 Co103 2.052 . S
O109 C105 1.241 1_545 S
O110 Co98 2.137 . S
O110 C101 1.247 . S
O111 Co98 2.244 . S
O111 C101 1.272 . S
O111 Co103 2.135 1_565 S
C112 C113 1.369 . S
C112 C114 1.419 . S
C112 H116 0.930 . S
C113 C112 1.369 . S
C113 C122 1.429 . S
C114 C112 1.419 . S
C114 C115 1.363 . S
C114 H117 0.929 . S
C115 C114 1.363 . S
C115 C121 1.428 . S
H116 C112 0.930 . S
H117 C114 0.929 . S
S118 N119 1.613 . S
S118 N120 1.610 . S
N119 S118 1.613 . S
N119 C122 1.350 . S
N120 S118 1.610 . S
N120 C121 1.351 . S
C121 C115 1.428 . S
C121 N120 1.351 . S
C121 C122 1.434 . S
C122 C113 1.429 . S
C122 N119 1.350 . S
C122 C121 1.434 . S
C123 C124 1.369 1_556 S
C123 C125 1.419 . S
C123 H127 0.930 . S
C124 C123 1.369 1_554 S
C124 C133 1.429 . S
C125 C123 1.419 . S
C125 C126 1.363 1_556 S
C125 H128 0.929 . S
C126 C125 1.363 1_554 S
C126 C132 1.428 . S
H127 C123 0.930 . S
H128 C125 0.929 . S
S129 N130 1.613 . S
S129 N131 1.610 . S
N130 S129 1.613 . S
N130 C133 1.350 . S
N131 S129 1.610 . S
N131 C132 1.351 . S
C132 C126 1.428 . S
C132 N131 1.351 . S
C132 C133 1.434 . S
C133 C124 1.429 . S
C133 N130 1.350 . S
C133 C132 1.434 . S
C134 C135 1.369 . S
C134 C136 1.419 . S
C134 H138 0.930 . S
C135 C134 1.369 . S
C135 C144 1.429 . S
C136 C134 1.419 . S
C136 C137 1.363 . S
C136 H139 0.929 . S
C137 C136 1.363 . S
C137 C143 1.428 . S
H138 C134 0.930 . S
H139 C136 0.929 . S
S140 N141 1.613 . S
S140 N142 1.610 . S
N141 S140 1.613 . S
N141 C144 1.350 . S
N142 S140 1.610 . S
N142 C143 1.351 . S
C143 C137 1.428 . S
C143 N142 1.351 . S
C143 C144 1.434 . S
C144 C135 1.429 . S
C144 N141 1.350 . S
C144 C143 1.434 . S
C145 C146 1.369 . S
C145 C147 1.419 . S
C145 H149 0.930 . S
C146 C145 1.369 . S
C146 C155 1.429 . S
C147 C145 1.419 . S
C147 C148 1.363 . S
C147 H150 0.929 . S
C148 C147 1.363 . S
C148 C154 1.428 . S
H149 C145 0.930 . S
H150 C147 0.929 . S
S151 N152 1.613 . S
S151 N153 1.610 . S
N152 S151 1.613 . S
N152 C155 1.350 . S
N153 S151 1.610 . S
N153 C154 1.351 . S
C154 C148 1.428 . S
C154 N153 1.351 . S
C154 C155 1.434 . S
C155 C146 1.429 . S
C155 N152 1.350 . S
C155 C154 1.434 . S
C156 C157 1.369 . S
C156 C158 1.419 . S
C156 H160 0.930 . S
C157 C156 1.369 . S
C157 C166 1.429 . S
C158 C156 1.419 . S
C158 C159 1.363 . S
C158 H161 0.929 . S
C159 C158 1.363 . S
C159 C165 1.428 . S
H160 C156 0.930 . S
H161 C158 0.929 . S
S162 N163 1.613 . S
S162 N164 1.610 . S
N163 S162 1.613 . S
N163 C166 1.350 . S
N164 S162 1.610 . S
N164 C165 1.351 . S
C165 C159 1.428 . S
C165 N164 1.351 . S
C165 C166 1.434 . S
C166 C157 1.429 . S
C166 N163 1.350 . S
C166 C165 1.434 . S
C167 C168 1.369 . S
C167 C169 1.419 . S
C167 H171 0.930 . S
C168 C167 1.369 . S
C168 C177 1.429 . S
C169 C167 1.419 . S
C169 C170 1.363 . S
C169 H172 0.929 . S
C170 C169 1.363 . S
C170 C176 1.428 . S
H171 C167 0.930 . S
H172 C169 0.929 . S
S173 N174 1.613 . S
S173 N175 1.610 . S
N174 S173 1.613 . S
N174 C177 1.350 . S
N175 S173 1.610 . S
N175 C176 1.351 . S
C176 C170 1.428 . S
C176 N175 1.351 . S
C176 C177 1.434 . S
C177 C168 1.429 . S
C177 N174 1.350 . S
C177 C176 1.434 . S
C178 C179 1.369 . S
C178 C180 1.419 . S
C178 H182 0.930 . S
C179 C178 1.369 . S
C179 C188 1.429 . S
C180 C178 1.419 . S
C180 C181 1.363 . S
C180 H183 0.929 . S
C181 C180 1.363 . S
C181 C187 1.428 . S
H182 C178 0.930 . S
H183 C180 0.929 . S
S184 N185 1.613 . S
S184 N186 1.610 . S
N185 S184 1.613 . S
N185 C188 1.350 . S
N186 S184 1.610 . S
N186 C187 1.351 . S
C187 C181 1.428 . S
C187 N186 1.351 . S
C187 C188 1.434 . S
C188 C179 1.429 . S
C188 N185 1.350 . S
C188 C187 1.434 . S
C189 C190 1.369 . S
C189 C191 1.419 . S
C189 H193 0.930 . S
C190 C189 1.369 . S
C190 C199 1.429 . S
C191 C189 1.419 . S
C191 C192 1.363 . S
C191 H194 0.929 . S
C192 C191 1.363 . S
C192 C198 1.428 . S
H193 C189 0.930 . S
H194 C191 0.929 . S
S195 N196 1.613 . S
S195 N197 1.610 . S
N196 S195 1.613 . S
N196 C199 1.350 . S
N197 S195 1.610 . S
N197 C198 1.351 . S
C198 C192 1.428 . S
C198 N197 1.351 . S
C198 C199 1.434 . S
C199 C190 1.429 . S
C199 N196 1.350 . S
C199 C198 1.434 . S
C200 C201 1.369 1_545 S
C200 C202 1.419 . S
C200 H204 0.930 . S
C201 C200 1.369 1_565 S
C201 C210 1.429 . S
C202 C200 1.419 . S
C202 C203 1.363 . S
C202 H205 0.929 . S
C203 C202 1.363 . S
C203 C209 1.428 1_545 S
H204 C200 0.930 . S
H205 C202 0.929 . S
S206 N207 1.613 . S
S206 N208 1.610 . S
N207 S206 1.613 . S
N207 C210 1.350 . S
N208 S206 1.610 . S
N208 C209 1.351 . S
C209 C203 1.428 1_565 S
C209 N208 1.351 . S
C209 C210 1.434 . S
C210 C201 1.429 . S
C210 N207 1.350 . S
C210 C209 1.434 . S
C211 C212 1.369 1_545 S
C211 C213 1.419 . S
C211 H215 0.930 . S
C212 C211 1.369 1_565 S
C212 C221 1.429 . S
C213 C211 1.419 . S
C213 C214 1.363 . S
C213 H216 0.929 . S
C214 C213 1.363 . S
C214 C220 1.428 1_545 S
H215 C211 0.930 . S
H216 C213 0.929 . S
S217 N218 1.613 . S
S217 N219 1.610 . S
N218 S217 1.613 . S
N218 C221 1.350 . S
N219 S217 1.610 . S
N219 C220 1.351 . S
C220 C214 1.428 1_565 S
C220 N219 1.351 . S
C220 C221 1.434 . S
C221 C212 1.429 . S
C221 N218 1.350 . S
C221 C220 1.434 . S
C222 C223 1.369 . S
C222 C224 1.419 . S
C222 H226 0.930 . S
C223 C222 1.369 . S
C223 C232 1.429 1_565 S
C224 C222 1.419 . S
C224 C225 1.363 1_565 S
C224 H227 0.929 . S
C225 C224 1.363 1_545 S
C225 C231 1.428 . S
H226 C222 0.930 . S
H227 C224 0.929 . S
S228 N229 1.613 . S
S228 N230 1.610 . S
N229 S228 1.613 . S
N229 C232 1.350 . S
N230 S228 1.610 . S
N230 C231 1.351 . S
C231 C225 1.428 . S
C231 N230 1.351 . S
C231 C232 1.434 . S
C232 C223 1.429 1_545 S
C232 N229 1.350 . S
C232 C231 1.434 . S
C233 C234 1.369 . S
C233 C235 1.419 . S
C233 H237 0.930 . S
C234 C233 1.369 . S
C234 C243 1.429 1_565 S
C235 C233 1.419 . S
C235 C236 1.363 1_565 S
C235 H238 0.929 . S
C236 C235 1.363 1_545 S
C236 C242 1.428 . S
H237 C233 0.930 . S
H238 C235 0.929 . S
S239 N240 1.613 . S
S239 N241 1.610 . S
N240 S239 1.613 . S
N240 C243 1.350 . S
N241 S239 1.610 . S
N241 C242 1.351 . S
C242 C236 1.428 . S
C242 N241 1.351 . S
C242 C243 1.434 . S
C243 C234 1.429 1_545 S
C243 N240 1.350 . S
C243 C242 1.434 . S
C244 C245 1.369 . S
C244 C246 1.419 1_565 S
C244 H248 0.930 . S
C245 C244 1.369 . S
C245 C254 1.429 1_554 S
C246 C244 1.419 1_545 S
C246 C247 1.363 . S
C246 H249 0.929 . S
C247 C246 1.363 . S
C247 C253 1.428 1_554 S
H248 C244 0.930 . S
H249 C246 0.929 . S
S250 N251 1.613 . S
S250 N252 1.610 1_565 S
N251 S250 1.613 . S
N251 C254 1.350 . S
N252 S250 1.610 1_545 S
N252 C253 1.351 . S
C253 C247 1.428 1_556 S
C253 N252 1.351 . S
C253 C254 1.434 1_545 S
C254 C245 1.429 1_556 S
C254 N251 1.350 . S
C254 C253 1.434 1_565 S
C255 C256 1.369 . S
C255 C257 1.419 . S
C255 H259 0.930 . S
C256 C255 1.369 . S
C256 C265 1.429 1_565 S
C257 C255 1.419 . S
C257 C258 1.363 1_565 S
C257 H260 0.929 . S
C258 C257 1.363 1_545 S
C258 C264 1.428 . S
H259 C255 0.930 . S
H260 C257 0.929 . S
S261 N262 1.613 . S
S261 N263 1.610 . S
N262 S261 1.613 . S
N262 C265 1.350 . S
N263 S261 1.610 . S
N263 C264 1.351 . S
C264 C258 1.428 . S
C264 N263 1.351 . S
C264 C265 1.434 . S
C265 C256 1.429 1_545 S
C265 N262 1.350 . S
C265 C264 1.434 . S
C266 C267 1.369 . S
C266 C268 1.419 . S
C266 H270 0.930 . S
C267 C266 1.369 . S
C267 C276 1.429 1_455 S
C268 C266 1.419 . S
C268 C269 1.363 1_455 S
C268 H271 0.929 . S
C269 C268 1.363 1_655 S
C269 C275 1.428 . S
H270 C266 0.930 . S
H271 C268 0.929 . S
S272 N273 1.613 . S
S272 N274 1.610 . S
N273 S272 1.613 . S
N273 C276 1.350 . S
N274 S272 1.610 . S
N274 C275 1.351 . S
C275 C269 1.428 . S
C275 N274 1.351 . S
C275 C276 1.434 . S
C276 C267 1.429 1_655 S
C276 N273 1.350 . S
C276 C275 1.434 . S
C277 C278 1.369 . S
C277 C279 1.419 1_455 S
C277 H281 0.930 . S
C278 C277 1.369 . S
C278 C287 1.429 . S
C279 C277 1.419 1_655 S
C279 C280 1.363 . S
C279 H282 0.929 . S
C280 C279 1.363 . S
C280 C286 1.428 . S
H281 C277 0.930 . S
H282 C279 0.929 . S
S283 N284 1.613 . S
S283 N285 1.610 . S
N284 S283 1.613 . S
N284 C287 1.350 . S
N285 S283 1.610 . S
N285 C286 1.351 1_455 S
C286 C280 1.428 . S
C286 N285 1.351 1_655 S
C286 C287 1.434 1_655 S
C287 C278 1.429 . S
C287 N284 1.350 . S
C287 C286 1.434 1_455 S
C113 C79 1.482 . S
C115 C9 1.477 . S
C124 C65 1.478 . S
C126 C23 1.479 . S
C135 C107 1.482 . S
C137 C37 1.477 . S
C146 C93 1.480 . S
C148 C51 1.478 . S
C157 C3 1.433 . S
C159 C31 1.430 . S
C168 C17 1.433 . S
C170 C45 1.430 . S
C179 C21 1.413 . S
C181 C49 1.415 . S
C190 C7 1.420 . S
C192 C35 1.419 . S
C201 C59 1.430 . S
C203 C87 1.433 . S
C212 C101 1.431 . S
C214 C73 1.432 . S
C223 C105 1.414 . S
C225 C77 1.417 . S
C234 C63 1.414 . S
C236 C91 1.417 . S
C245 C22 1.500 . S
C247 C8 1.499 . S
C256 C36 1.499 . S
C258 C50 1.500 . S
C267 C64 1.499 . S
C269 C78 1.498 . S
C278 C92 1.497 . S
C280 C106 1.499 . S
