# Generated by pormake.
# Topology cha, (4)-cn, num edge types: 1
# Building blocks:
#     Node 0, Type 0, BuildingBlock: GALJAG_clean_sbu_0, # of connection points: 4
#     Node 1, Type 0, BuildingBlock: GALJAG_clean_sbu_0, # of connection points: 4
#     Node 2, Type 0, BuildingBlock: GALJAG_clean_sbu_0, # of connection points: 4
#     Node 3, Type 0, BuildingBlock: GALJAG_clean_sbu_0, # of connection points: 4
#     Node 4, Type 0, BuildingBlock: GALJAG_clean_sbu_0, # of connection points: 4
#     Node 5, Type 0, BuildingBlock: GALJAG_clean_sbu_0, # of connection points: 4
#     Node 6, Type 0, BuildingBlock: GALJAG_clean_sbu_0, # of connection points: 4
#     Node 7, Type 0, BuildingBlock: GALJAG_clean_sbu_0, # of connection points: 4
#     Node 8, Type 0, BuildingBlock: GALJAG_clean_sbu_0, # of connection points: 4
#     Node 9, Type 0, BuildingBlock: GALJAG_clean_sbu_0, # of connection points: 4
#     Node 10, Type 0, BuildingBlock: GALJAG_clean_sbu_0, # of connection points: 4
#     Node 11, Type 0, BuildingBlock: GALJAG_clean_sbu_0, # of connection points: 4
#     Node 12, Type 0, BuildingBlock: GALJAG_clean_sbu_0, # of connection points: 4
#     Node 13, Type 0, BuildingBlock: GALJAG_clean_sbu_0, # of connection points: 4
#     Node 14, Type 0, BuildingBlock: GALJAG_clean_sbu_0, # of connection points: 4
#     Node 15, Type 0, BuildingBlock: GALJAG_clean_sbu_0, # of connection points: 4
#     Node 16, Type 0, BuildingBlock: GALJAG_clean_sbu_0, # of connection points: 4
#     Node 17, Type 0, BuildingBlock: GALJAG_clean_sbu_0, # of connection points: 4
#     Node 18, Type 0, BuildingBlock: GALJAG_clean_sbu_0, # of connection points: 4
#     Node 19, Type 0, BuildingBlock: GALJAG_clean_sbu_0, # of connection points: 4
#     Node 20, Type 0, BuildingBlock: GALJAG_clean_sbu_0, # of connection points: 4
#     Node 21, Type 0, BuildingBlock: GALJAG_clean_sbu_0, # of connection points: 4
#     Node 22, Type 0, BuildingBlock: GALJAG_clean_sbu_0, # of connection points: 4
#     Node 23, Type 0, BuildingBlock: GALJAG_clean_sbu_0, # of connection points: 4
#     Node 24, Type 0, BuildingBlock: GALJAG_clean_sbu_0, # of connection points: 4
#     Node 25, Type 0, BuildingBlock: GALJAG_clean_sbu_0, # of connection points: 4
#     Node 26, Type 0, BuildingBlock: GALJAG_clean_sbu_0, # of connection points: 4
#     Node 27, Type 0, BuildingBlock: GALJAG_clean_sbu_0, # of connection points: 4
#     Node 28, Type 0, BuildingBlock: GALJAG_clean_sbu_0, # of connection points: 4
#     Node 29, Type 0, BuildingBlock: GALJAG_clean_sbu_0, # of connection points: 4
#     Node 30, Type 0, BuildingBlock: GALJAG_clean_sbu_0, # of connection points: 4
#     Node 31, Type 0, BuildingBlock: GALJAG_clean_sbu_0, # of connection points: 4
#     Node 32, Type 0, BuildingBlock: GALJAG_clean_sbu_0, # of connection points: 4
#     Node 33, Type 0, BuildingBlock: GALJAG_clean_sbu_0, # of connection points: 4
#     Node 34, Type 0, BuildingBlock: GALJAG_clean_sbu_0, # of connection points: 4
#     Node 35, Type 0, BuildingBlock: GALJAG_clean_sbu_0, # of connection points: 4
#     Edge 36, Type (0, 0), BuildingBlock: OJICUG_clean_linker_0, # of connection points: 2
#     Edge 37, Type (0, 0), BuildingBlock: OJICUG_clean_linker_0, # of connection points: 2
#     Edge 38, Type (0, 0), BuildingBlock: OJICUG_clean_linker_0, # of connection points: 2
#     Edge 39, Type (0, 0), BuildingBlock: OJICUG_clean_linker_0, # of connection points: 2
#     Edge 40, Type (0, 0), BuildingBlock: OJICUG_clean_linker_0, # of connection points: 2
#     Edge 41, Type (0, 0), BuildingBlock: OJICUG_clean_linker_0, # of connection points: 2
#     Edge 42, Type (0, 0), BuildingBlock: OJICUG_clean_linker_0, # of connection points: 2
#     Edge 43, Type (0, 0), BuildingBlock: OJICUG_clean_linker_0, # of connection points: 2
#     Edge 44, Type (0, 0), BuildingBlock: OJICUG_clean_linker_0, # of connection points: 2
#     Edge 45, Type (0, 0), BuildingBlock: OJICUG_clean_linker_0, # of connection points: 2
#     Edge 46, Type (0, 0), BuildingBlock: OJICUG_clean_linker_0, # of connection points: 2
#     Edge 47, Type (0, 0), BuildingBlock: OJICUG_clean_linker_0, # of connection points: 2
#     Edge 48, Type (0, 0), BuildingBlock: OJICUG_clean_linker_0, # of connection points: 2
#     Edge 49, Type (0, 0), BuildingBlock: OJICUG_clean_linker_0, # of connection points: 2
#     Edge 50, Type (0, 0), BuildingBlock: OJICUG_clean_linker_0, # of connection points: 2
#     Edge 51, Type (0, 0), BuildingBlock: OJICUG_clean_linker_0, # of connection points: 2
#     Edge 52, Type (0, 0), BuildingBlock: OJICUG_clean_linker_0, # of connection points: 2
#     Edge 53, Type (0, 0), BuildingBlock: OJICUG_clean_linker_0, # of connection points: 2
#     Edge 54, Type (0, 0), BuildingBlock: OJICUG_clean_linker_0, # of connection points: 2
#     Edge 55, Type (0, 0), BuildingBlock: OJICUG_clean_linker_0, # of connection points: 2
#     Edge 56, Type (0, 0), BuildingBlock: OJICUG_clean_linker_0, # of connection points: 2
#     Edge 57, Type (0, 0), BuildingBlock: OJICUG_clean_linker_0, # of connection points: 2
#     Edge 58, Type (0, 0), BuildingBlock: OJICUG_clean_linker_0, # of connection points: 2
#     Edge 59, Type (0, 0), BuildingBlock: OJICUG_clean_linker_0, # of connection points: 2
#     Edge 60, Type (0, 0), BuildingBlock: OJICUG_clean_linker_0, # of connection points: 2
#     Edge 61, Type (0, 0), BuildingBlock: OJICUG_clean_linker_0, # of connection points: 2
#     Edge 62, Type (0, 0), BuildingBlock: OJICUG_clean_linker_0, # of connection points: 2
#     Edge 63, Type (0, 0), BuildingBlock: OJICUG_clean_linker_0, # of connection points: 2
#     Edge 64, Type (0, 0), BuildingBlock: OJICUG_clean_linker_0, # of connection points: 2
#     Edge 65, Type (0, 0), BuildingBlock: OJICUG_clean_linker_0, # of connection points: 2
#     Edge 66, Type (0, 0), BuildingBlock: OJICUG_clean_linker_0, # of connection points: 2
#     Edge 67, Type (0, 0), BuildingBlock: OJICUG_clean_linker_0, # of connection points: 2
#     Edge 68, Type (0, 0), BuildingBlock: OJICUG_clean_linker_0, # of connection points: 2
#     Edge 69, Type (0, 0), BuildingBlock: OJICUG_clean_linker_0, # of connection points: 2
#     Edge 70, Type (0, 0), BuildingBlock: OJICUG_clean_linker_0, # of connection points: 2
#     Edge 71, Type (0, 0), BuildingBlock: OJICUG_clean_linker_0, # of connection points: 2
#     Edge 72, Type (0, 0), BuildingBlock: OJICUG_clean_linker_0, # of connection points: 2
#     Edge 73, Type (0, 0), BuildingBlock: OJICUG_clean_linker_0, # of connection points: 2
#     Edge 74, Type (0, 0), BuildingBlock: OJICUG_clean_linker_0, # of connection points: 2
#     Edge 75, Type (0, 0), BuildingBlock: OJICUG_clean_linker_0, # of connection points: 2
#     Edge 76, Type (0, 0), BuildingBlock: OJICUG_clean_linker_0, # of connection points: 2
#     Edge 77, Type (0, 0), BuildingBlock: OJICUG_clean_linker_0, # of connection points: 2
#     Edge 78, Type (0, 0), BuildingBlock: OJICUG_clean_linker_0, # of connection points: 2
#     Edge 79, Type (0, 0), BuildingBlock: OJICUG_clean_linker_0, # of connection points: 2
#     Edge 80, Type (0, 0), BuildingBlock: OJICUG_clean_linker_0, # of connection points: 2
#     Edge 81, Type (0, 0), BuildingBlock: OJICUG_clean_linker_0, # of connection points: 2
#     Edge 82, Type (0, 0), BuildingBlock: OJICUG_clean_linker_0, # of connection points: 2
#     Edge 83, Type (0, 0), BuildingBlock: OJICUG_clean_linker_0, # of connection points: 2
#     Edge 84, Type (0, 0), BuildingBlock: OJICUG_clean_linker_0, # of connection points: 2
#     Edge 85, Type (0, 0), BuildingBlock: OJICUG_clean_linker_0, # of connection points: 2
#     Edge 86, Type (0, 0), BuildingBlock: OJICUG_clean_linker_0, # of connection points: 2
#     Edge 87, Type (0, 0), BuildingBlock: OJICUG_clean_linker_0, # of connection points: 2
#     Edge 88, Type (0, 0), BuildingBlock: OJICUG_clean_linker_0, # of connection points: 2
#     Edge 89, Type (0, 0), BuildingBlock: OJICUG_clean_linker_0, # of connection points: 2
#     Edge 90, Type (0, 0), BuildingBlock: OJICUG_clean_linker_0, # of connection points: 2
#     Edge 91, Type (0, 0), BuildingBlock: OJICUG_clean_linker_0, # of connection points: 2
#     Edge 92, Type (0, 0), BuildingBlock: OJICUG_clean_linker_0, # of connection points: 2
#     Edge 93, Type (0, 0), BuildingBlock: OJICUG_clean_linker_0, # of connection points: 2
#     Edge 94, Type (0, 0), BuildingBlock: OJICUG_clean_linker_0, # of connection points: 2
#     Edge 95, Type (0, 0), BuildingBlock: OJICUG_clean_linker_0, # of connection points: 2
#     Edge 96, Type (0, 0), BuildingBlock: OJICUG_clean_linker_0, # of connection points: 2
#     Edge 97, Type (0, 0), BuildingBlock: OJICUG_clean_linker_0, # of connection points: 2
#     Edge 98, Type (0, 0), BuildingBlock: OJICUG_clean_linker_0, # of connection points: 2
#     Edge 99, Type (0, 0), BuildingBlock: OJICUG_clean_linker_0, # of connection points: 2
#     Edge 100, Type (0, 0), BuildingBlock: OJICUG_clean_linker_0, # of connection points: 2
#     Edge 101, Type (0, 0), BuildingBlock: OJICUG_clean_linker_0, # of connection points: 2
#     Edge 102, Type (0, 0), BuildingBlock: OJICUG_clean_linker_0, # of connection points: 2
#     Edge 103, Type (0, 0), BuildingBlock: OJICUG_clean_linker_0, # of connection points: 2
#     Edge 104, Type (0, 0), BuildingBlock: OJICUG_clean_linker_0, # of connection points: 2
#     Edge 105, Type (0, 0), BuildingBlock: OJICUG_clean_linker_0, # of connection points: 2
#     Edge 106, Type (0, 0), BuildingBlock: OJICUG_clean_linker_0, # of connection points: 2
#     Edge 107, Type (0, 0), BuildingBlock: OJICUG_clean_linker_0, # of connection points: 2
# Relax obj value: 0.076
# Max RMSD: 0.060
# Mean RMSD: 0.060
data_MOF--net-cha--node1-GALJAG_clean_sbu_0--edge1-OJICUG_clean_linker_0
_symmetry_space_group_name_H-M    P1
_symmetry_Int_Tables_number       1
_symmetry_cell_setting            triclinic
loop_
_symmetry_equiv_pos_as_xyz
'x, y, z'
_cell_length_a     42.756452
_cell_length_b     42.78538
_cell_length_c     61.190047
_cell_angle_alpha  89.87402
_cell_angle_beta   89.974125
_cell_angle_gamma 119.985
loop_
_atom_site_label
_atom_site_type_symbol
_atom_site_fract_x
_atom_site_fract_y
_atom_site_fract_z
_atom_type_partial_charge
In0 In 0.02275 0.29015 0.09087 0.0
O1 O 0.03467 0.32898 0.06152 0.0
O2 O -0.00114 0.27294 0.05724 0.0
C3 C 0.02492 0.32675 0.12727 0.0
C4 C 0.08517 0.28918 0.08932 0.0
C5 C 0.96064 0.22847 0.09865 0.0
O6 O 0.01444 0.33226 0.10911 0.0
O7 O 0.0352 0.30387 0.12674 0.0
O8 O 0.99081 0.22985 0.09746 0.0
O9 O 0.96188 0.25842 0.09626 0.0
C10 C 0.01431 0.30384 0.04872 0.0
O11 O 0.05505 0.26137 0.09289 0.0
O12 O 0.08389 0.31771 0.08623 0.0
In13 In 0.7652 0.76796 0.09038 0.0
O14 O 0.73261 0.73629 0.05985 0.0
O15 O 0.78056 0.78706 0.05587 0.0
C16 C 0.72837 0.7318 0.12639 0.0
C17 C 0.76136 0.82827 0.0942 0.0
C18 C 0.82567 0.76348 0.09396 0.0
O19 O 0.7199 0.71775 0.10757 0.0
O20 O 0.75452 0.76362 0.12669 0.0
O21 O 0.82493 0.7921 0.09754 0.0
O22 O 0.79568 0.73673 0.08873 0.0
C23 C 0.75434 0.76051 0.04682 0.0
O24 O 0.78995 0.82725 0.09769 0.0
O25 O 0.73414 0.79842 0.08904 0.0
In26 In 0.28157 0.02467 0.08969 0.0
O27 O 0.31115 0.02275 0.05835 0.0
O28 O 0.26468 0.02845 0.05559 0.0
C29 C 0.3195 0.02267 0.12424 0.0
C30 C 0.22188 0.95987 0.09295 0.0
C31 C 0.2843 0.08807 0.09712 0.0
O32 O 0.33405 0.03333 0.10564 0.0
O33 O 0.28637 0.01253 0.12494 0.0
O34 O 0.25582 0.05799 0.09932 0.0
O35 O 0.31167 0.08625 0.09129 0.0
C36 C 0.28912 0.02566 0.04586 0.0
O37 O 0.22249 0.98899 0.09735 0.0
O38 O 0.25175 0.96333 0.08689 0.0
In39 In 0.2812 0.02715 0.90764 0.0
O40 O 0.25634 0.06185 0.90086 0.0
O41 O 0.31152 0.08841 0.91081 0.0
C42 C 0.22185 0.96263 0.9007 0.0
C43 C 0.28797 0.0249 0.95136 0.0
C44 C 0.32034 0.03044 0.87237 0.0
O45 O 0.22213 0.99212 0.89864 0.0
O46 O 0.25177 0.96565 0.90602 0.0
O47 O 0.32624 0.02135 0.89095 0.0
O48 O 0.29569 0.03836 0.87201 0.0
C49 C 0.28459 0.09125 0.90519 0.0
O50 O 0.31363 0.0301 0.93873 0.0
O51 O 0.26008 0.02076 0.94181 0.0
In52 In 0.02015 0.28931 0.91386 0.0
O53 O 0.02996 0.32896 0.94228 0.0
O54 O -0.00379 0.27271 0.94752 0.0
C55 C 0.03248 0.32753 0.87661 0.0
C56 C 0.95881 0.22852 0.90423 0.0
C57 C 0.08099 0.2863 0.91864 0.0
O58 O 0.01156 0.32783 0.8911 0.0
O59 O 0.04665 0.30876 0.88117 0.0
O60 O 0.05127 0.25917 0.91331 0.0
O61 O 0.07974 0.31474 0.9222 0.0
C62 C 0.01074 0.30388 0.95553 0.0
O63 O 0.98878 0.2297 0.90621 0.0
O64 O 0.9599 0.25839 0.90659 0.0
In65 In 0.76609 0.76741 0.90896 0.0
O66 O 0.73686 0.73394 0.93992 0.0
O67 O 0.7762 0.78947 0.94301 0.0
C68 C 0.72958 0.72888 0.87363 0.0
C69 C 0.82718 0.76428 0.90829 0.0
C70 C 0.76265 0.82757 0.90147 0.0
O71 O 0.71481 0.72348 0.89225 0.0
O72 O 0.76249 0.75263 0.87322 0.0
O73 O 0.79147 0.82647 0.8995 0.0
O74 O 0.73525 0.79802 0.90681 0.0
C75 C 0.75402 0.76067 0.95251 0.0
O76 O 0.8261 0.79243 0.9035 0.0
O77 O 0.79713 0.73726 0.91338 0.0
In78 In 0.0256 0.76632 0.90894 0.0
O79 O 0.99102 0.79186 0.9038 0.0
O80 O 0.96437 0.73651 0.91329 0.0
C81 C 0.08875 0.82683 0.90104 0.0
C82 C 0.03104 0.75866 0.95238 0.0
C83 C 0.02422 0.72813 0.8736 0.0
O84 O 0.05864 0.82544 0.89954 0.0
O85 O 0.08702 0.7974 0.90623 0.0
O86 O 0.03441 0.72341 0.89212 0.0
O87 O 0.01372 0.75085 0.87333 0.0
C88 C 0.96164 0.76376 0.90842 0.0
O89 O 0.01979 0.73185 0.93968 0.0
O90 O 0.03934 0.78804 0.94304 0.0
In91 In 0.27723 0.28354 0.91291 0.0
O92 O 0.31144 0.31671 0.94259 0.0
O93 O 0.26866 0.26279 0.94727 0.0
C94 C 0.30948 0.32047 0.87604 0.0
C95 C 0.2831 0.22491 0.90651 0.0
C96 C 0.21501 0.28508 0.91439 0.0
O97 O 0.31978 0.33441 0.89476 0.0
O98 O 0.28359 0.2885 0.87618 0.0
O99 O 0.21622 0.257 0.90984 0.0
O100 O 0.24533 0.31271 0.91778 0.0
C101 C 0.29363 0.29097 0.95582 0.0
O102 O 0.25376 0.22497 0.90418 0.0
O103 O 0.31004 0.25494 0.91175 0.0
In104 In 0.76787 0.02697 0.90798 0.0
O105 O 0.73841 0.02972 0.93917 0.0
O106 O 0.78602 0.0261 0.94225 0.0
C107 C 0.7293 0.02681 0.8732 0.0
C108 C 0.8271 0.09183 0.90331 0.0
C109 C 0.7639 0.96271 0.90209 0.0
O110 O 0.71559 0.01884 0.89216 0.0
O111 O 0.76202 0.03534 0.87218 0.0
O112 O 0.79255 0.99239 0.89907 0.0
O113 O 0.73705 0.96539 0.90799 0.0
C114 C 0.76116 0.02838 0.95182 0.0
O115 O 0.82718 0.06262 0.90052 0.0
O116 O 0.79687 0.08835 0.90846 0.0
In117 In 0.76782 0.02841 0.09019 0.0
O118 O 0.79163 0.99293 0.09763 0.0
O119 O 0.73687 0.96714 0.08694 0.0
C120 C 0.82769 0.09241 0.09757 0.0
C121 C 0.76178 0.03087 0.04636 0.0
C122 C 0.72809 0.02582 0.12506 0.0
O123 O 0.82714 0.06271 0.09899 0.0
O124 O 0.79782 0.08985 0.09265 0.0
O125 O 0.72322 0.03558 0.10642 0.0
O126 O 0.75201 0.01689 0.12567 0.0
C127 C 0.7633 0.96377 0.09302 0.0
O128 O 0.73586 0.02543 0.05883 0.0
O129 O 0.78959 0.03523 0.05611 0.0
In130 In 0.02388 0.76467 0.09003 0.0
O131 O 0.02435 0.73246 0.05965 0.0
O132 O 0.02912 0.78406 0.05549 0.0
C133 C 0.02444 0.7287 0.12613 0.0
C134 C 0.08823 0.82458 0.09402 0.0
C135 C 0.95959 0.76171 0.09361 0.0
O136 O 0.0179 0.71413 0.10744 0.0
O137 O 0.03098 0.76081 0.12624 0.0
O138 O 0.9893 0.78996 0.09709 0.0
O139 O 0.9621 0.73452 0.08841 0.0
C140 C 0.02812 0.7571 0.04656 0.0
O141 O 0.0587 0.82382 0.09736 0.0
O142 O 0.08543 0.79465 0.08887 0.0
In143 In 0.279 0.28182 0.09287 0.0
O144 O 0.21839 0.2567 0.09646 0.0
O145 O 0.24854 0.31242 0.08803 0.0
C146 C 0.28284 0.2218 0.09999 0.0
C147 C 0.29436 0.29008 0.04973 0.0
C148 C 0.31422 0.3188 0.12892 0.0
O149 O 0.25366 0.22237 0.10155 0.0
O150 O 0.31025 0.25177 0.0953 0.0
O151 O 0.32928 0.3257 0.11035 0.0
O152 O 0.28155 0.29434 0.12897 0.0
C153 C 0.21797 0.28527 0.09191 0.0
O154 O 0.30926 0.31672 0.0626 0.0
O155 O 0.27262 0.26059 0.05874 0.0
In156 In 0.69072 0.61842 0.42451 0.0
O157 O 0.69378 0.65051 0.39309 0.0
O158 O 0.68717 0.598 0.39042 0.0
C159 C 0.6909 0.65621 0.45976 0.0
C160 C 0.75532 0.62307 0.42817 0.0
C161 C 0.62678 0.5578 0.43052 0.0
O162 O 0.68257 0.66222 0.44097 0.0
O163 O 0.69975 0.63225 0.46032 0.0
O164 O 0.65666 0.55924 0.43349 0.0
O165 O 0.62904 0.58722 0.42475 0.0
C166 C 0.69041 0.62537 0.38063 0.0
O167 O 0.72593 0.59451 0.43209 0.0
O168 O 0.75227 0.64983 0.42236 0.0
In169 In 0.42503 0.09577 0.41831 0.0
O170 O 0.39465 0.0556 0.39028 0.0
O171 O 0.41563 0.11159 0.38489 0.0
C172 C 0.39916 0.0583 0.45579 0.0
C173 C 0.42492 0.15673 0.42814 0.0
C174 C 0.48838 0.09781 0.4125 0.0
O175 O 0.37801 0.05715 0.44099 0.0
O176 O 0.43216 0.07758 0.45144 0.0
O177 O 0.48644 0.12555 0.41715 0.0
O178 O 0.45832 0.06924 0.41026 0.0
C179 C 0.39927 0.08028 0.37706 0.0
O180 O 0.45367 0.15556 0.42577 0.0
O181 O 0.39609 0.12684 0.42601 0.0
In182 In 0.94368 0.35364 0.42402 0.0
O183 O 0.97831 0.35588 0.39423 0.0
O184 O 0.92321 0.34063 0.38961 0.0
C185 C 0.97927 0.35401 0.46041 0.0
C186 C 0.88354 0.29002 0.43002 0.0
C187 C 0.94709 0.41834 0.42486 0.0
O188 O -0.00739 0.35643 0.4416 0.0
O189 O 0.94868 0.35153 0.46057 0.0
O190 O 0.91843 0.38899 0.4284 0.0
O191 O 0.97438 0.41524 0.42097 0.0
C192 C 0.95229 0.34615 0.38103 0.0
O193 O 0.88423 0.31982 0.43141 0.0
O194 O 0.91359 0.29227 0.42582 0.0
In195 In 0.94412 0.35553 0.24444 0.0
O196 O 0.91824 0.39028 0.24088 0.0
O197 O 0.97354 0.41626 0.25026 0.0
C198 C 0.88378 0.29303 0.23524 0.0
C199 C 0.9524 0.34622 0.28729 0.0
C200 C 0.98346 0.3601 0.20891 0.0
O201 O 0.88448 0.32287 0.23602 0.0
O202 O 0.91375 0.29483 0.23875 0.0
O203 O 0.9879 0.34872 0.22708 0.0
O204 O 0.96013 0.36985 0.20903 0.0
C205 C 0.94633 0.41933 0.2459 0.0
O206 O 0.97934 0.3611 0.27459 0.0
O207 O 0.92247 0.33629 0.27826 0.0
In208 In 0.68975 0.61583 0.24223 0.0
O209 O 0.65487 0.55642 0.23529 0.0
O210 O 0.62838 0.5849 0.24565 0.0
C211 C 0.75392 0.61988 0.23544 0.0
C212 C 0.69132 0.62471 0.28601 0.0
C213 C 0.68807 0.65299 0.20701 0.0
O214 O 0.72418 0.59102 0.23328 0.0
O215 O 0.75135 0.64697 0.24085 0.0
O216 O 0.69725 0.66746 0.22569 0.0
O217 O 0.6789 0.62011 0.20652 0.0
C218 C 0.6255 0.55516 0.23997 0.0
O219 O 0.68678 0.64549 0.27326 0.0
O220 O 0.6953 0.60083 0.27655 0.0
In221 In 0.42751 0.09488 0.24251 0.0
O222 O 0.39908 0.05543 0.27135 0.0
O223 O 0.41834 0.11125 0.27584 0.0
C224 C 0.3952 0.05909 0.20552 0.0
C225 C 0.49034 0.09507 0.24603 0.0
C226 C 0.42694 0.15639 0.23459 0.0
O227 O 0.37872 0.05207 0.22359 0.0
O228 O 0.42791 0.08329 0.20635 0.0
O229 O 0.45584 0.15521 0.23597 0.0
O230 O 0.39827 0.12633 0.23682 0.0
C231 C 0.40277 0.08019 0.28413 0.0
O232 O 0.48879 0.12342 0.24298 0.0
O233 O 0.46012 0.06652 0.24747 0.0
In234 In 0.68839 0.09614 0.24297 0.0
O235 O 0.65514 0.12412 0.24277 0.0
O236 O 0.62732 0.06726 0.24751 0.0
C237 C 0.75015 0.15777 0.23461 0.0
C238 C 0.69747 0.08269 0.28509 0.0
C239 C 0.68601 0.06006 0.20628 0.0
O240 O 0.71996 0.15636 0.23596 0.0
O241 O 0.74904 0.12791 0.23719 0.0
O242 O 0.69598 0.0539 0.22445 0.0
O243 O 0.67624 0.08334 0.20693 0.0
C244 C 0.62536 0.09563 0.24585 0.0
O245 O 0.67726 0.05748 0.2723 0.0
O246 O 0.7129 0.11354 0.2765 0.0
In247 In 0.94927 0.61813 0.24373 0.0
O248 O 0.92155 0.55739 0.24071 0.0
O249 O 0.97731 0.58528 0.24911 0.0
C250 C 0.88904 0.62101 0.23538 0.0
C251 C 0.95878 0.63532 0.28663 0.0
C252 C 0.98755 0.65296 0.20778 0.0
O253 O 0.88996 0.59197 0.2348 0.0
O254 O 0.9188 0.64883 0.2398 0.0
O255 O -0.00756 0.66871 0.22597 0.0
O256 O 0.96453 0.61984 0.2081 0.0
C257 C 0.94926 0.55541 0.2453 0.0
O258 O 0.98551 0.64626 0.27384 0.0
O259 O 0.92853 0.61666 0.27766 0.0
In260 In 0.43151 0.35506 0.24393 0.0
O261 O 0.40285 0.35873 0.27529 0.0
O262 O 0.44504 0.34638 0.27803 0.0
C263 C 0.39342 0.35664 0.20924 0.0
C264 C 0.49172 0.41974 0.24132 0.0
C265 C 0.42849 0.29165 0.23625 0.0
O266 O 0.37914 0.34659 0.22795 0.0
O267 O 0.42652 0.36659 0.20847 0.0
O268 O 0.45744 0.32157 0.2351 0.0
O269 O 0.40084 0.29369 0.24108 0.0
C270 C 0.42225 0.35179 0.28778 0.0
O271 O 0.49079 0.39065 0.23641 0.0
O272 O 0.46195 0.41632 0.24754 0.0
In273 In 0.43331 0.35728 0.42611 0.0
O274 O 0.40095 0.35485 0.39505 0.0
O275 O 0.4511 0.35615 0.39177 0.0
C276 C 0.39548 0.35697 0.4614 0.0
C277 C 0.4286 0.29279 0.43067 0.0
C278 C 0.49328 0.42212 0.43097 0.0
O279 O 0.38822 0.3635 0.44245 0.0
O280 O 0.42097 0.35027 0.46217 0.0
O281 O 0.49257 0.39275 0.43461 0.0
O282 O 0.46355 0.41888 0.42501 0.0
C283 C 0.42426 0.35471 0.38231 0.0
O284 O 0.45781 0.3222 0.43311 0.0
O285 O 0.40144 0.29588 0.42602 0.0
In286 In 0.68548 0.09682 0.41998 0.0
O287 O 0.67715 0.05776 0.39148 0.0
O288 O 0.70984 0.11419 0.38641 0.0
C289 C 0.68064 0.06262 0.45804 0.0
C290 C 0.74867 0.15638 0.4278 0.0
C291 C 0.62295 0.09744 0.41549 0.0
O292 O 0.68388 0.05031 0.43992 0.0
O293 O 0.67929 0.09126 0.45671 0.0
O294 O 0.65292 0.12574 0.41831 0.0
O295 O 0.62443 0.06876 0.41504 0.0
C296 C 0.69627 0.0831 0.37835 0.0
O297 O 0.7191 0.15635 0.42711 0.0
O298 O 0.74634 0.12604 0.42466 0.0
In299 In 0.94865 0.61695 0.42337 0.0
O300 O 0.9843 0.64918 0.39379 0.0
O301 O 0.92904 0.61021 0.38877 0.0
C302 C 0.98447 0.6503 0.46013 0.0
C303 C 0.88961 0.62262 0.42886 0.0
C304 C 0.94955 0.55434 0.42417 0.0
O305 O -0.00193 0.66148 0.44138 0.0
O306 O 0.95331 0.62305 0.46006 0.0
O307 O 0.9214 0.55613 0.42741 0.0
O308 O 0.97756 0.58427 0.42049 0.0
C309 C 0.95849 0.63348 0.3804 0.0
O310 O 0.88957 0.59322 0.43098 0.0
O311 O 0.91994 0.64976 0.42425 0.0
In312 In 0.3587 0.95853 0.75476 0.0
O313 O 0.37074 -0.00349 0.72486 0.0
O314 O 0.33489 0.94037 0.72119 0.0
C315 C 0.36079 -0.00459 0.79098 0.0
C316 C 0.42128 0.95801 0.75416 0.0
C317 C 0.29701 0.89669 0.76288 0.0
O318 O 0.35024 0.00074 0.77278 0.0
O319 O 0.37101 0.97249 0.79057 0.0
O320 O 0.32734 0.89841 0.76172 0.0
O321 O 0.29785 0.92643 0.76028 0.0
C322 C 0.3504 0.97096 0.71228 0.0
O323 O 0.39109 0.93001 0.75722 0.0
O324 O 0.41998 0.98648 0.7509 0.0
In325 In 0.093 0.43031 0.75365 0.0
O326 O 0.06339 0.38835 0.72628 0.0
O327 O 0.08042 0.44341 0.72026 0.0
C328 C 0.06875 0.39731 0.79259 0.0
C329 C 0.09411 0.49244 0.76118 0.0
C330 C 0.15603 0.43151 0.74844 0.0
O331 O 0.04706 0.39191 0.77709 0.0
O332 O 0.10139 0.41853 0.78817 0.0
O333 O 0.15423 0.45974 0.75152 0.0
O334 O 0.1259 0.40273 0.74733 0.0
C335 C 0.0657 0.41186 0.71282 0.0
O336 O 0.12248 0.49073 0.75836 0.0
O337 O 0.06495 0.46253 0.76053 0.0
In338 In 0.61293 0.68874 0.75781 0.0
O339 O 0.64346 0.68734 0.72672 0.0
O340 O 0.59287 0.68512 0.72354 0.0
C341 C 0.65042 0.68916 0.79333 0.0
C342 C 0.55332 0.6244 0.76315 0.0
C343 C 0.61674 0.75327 0.76181 0.0
O344 O 0.6642 0.69514 0.77438 0.0
O345 O 0.61829 0.6826 0.79397 0.0
O346 O 0.58824 0.72373 0.76534 0.0
O347 O 0.64366 0.75041 0.75635 0.0
C348 C 0.61905 0.68523 0.71405 0.0
O349 O 0.55402 0.65394 0.76613 0.0
O350 O 0.5831 0.62719 0.75751 0.0
In351 In 0.61125 0.6907 0.57597 0.0
O352 O 0.58711 0.72627 0.5699 0.0
O353 O 0.64201 0.75185 0.58023 0.0
C354 C 0.55108 0.62712 0.56846 0.0
C355 C 0.61786 0.68543 0.61958 0.0
C356 C 0.64974 0.69333 0.54039 0.0
O357 O 0.55178 0.65693 0.56745 0.0
O358 O 0.58097 0.62938 0.57298 0.0
O359 O 0.65566 0.68427 0.55898 0.0
O360 O 0.62541 0.70172 0.54015 0.0
C361 C 0.61541 0.7553 0.57471 0.0
O362 O 0.64426 0.69367 0.60685 0.0
O363 O 0.58939 0.67999 0.61019 0.0
In364 In 0.35389 0.95134 0.5773 0.0
O365 O 0.36456 0.99207 0.60527 0.0
O366 O 0.33206 0.93593 0.61148 0.0
C367 C 0.36242 0.98543 0.53885 0.0
C368 C 0.29214 0.88979 0.56996 0.0
C369 C 0.41655 0.95131 0.58008 0.0
O370 O 0.34688 0.99105 0.55472 0.0
O371 O 0.37278 0.96317 0.54262 0.0
O372 O 0.38665 0.92291 0.57705 0.0
O373 O 0.41467 0.97962 0.5826 0.0
C374 C 0.34635 0.96742 0.619 0.0
O375 O 0.3222 0.89118 0.57198 0.0
O376 O 0.29324 0.91983 0.57125 0.0
In377 In 0.09051 0.42344 0.5779 0.0
O378 O 0.06546 0.38462 0.60745 0.0
O379 O 0.07992 0.43945 0.61103 0.0
C380 C 0.05525 0.38684 0.54168 0.0
C381 C 0.15388 0.42446 0.58009 0.0
C382 C 0.09209 0.48602 0.56987 0.0
O383 O 0.03962 0.38207 0.55991 0.0
O384 O 0.08863 0.40893 0.54202 0.0
O385 O 0.12045 0.48389 0.57146 0.0
O386 O 0.06292 0.45641 0.572 0.0
C387 C 0.06705 0.40892 0.61985 0.0
O388 O 0.15172 0.45247 0.57703 0.0
O389 O 0.12394 0.39572 0.58225 0.0
In390 In 0.35481 0.43115 0.57757 0.0
O391 O 0.31978 0.45698 0.5751 0.0
O392 O 0.29372 0.40086 0.58243 0.0
C393 C 0.41725 0.49198 0.56893 0.0
C394 C 0.36368 0.42193 0.6204 0.0
C395 C 0.35308 0.39366 0.54175 0.0
O396 O 0.38708 0.49069 0.56871 0.0
O397 O 0.41581 0.46237 0.57317 0.0
O398 O 0.3629 0.3883 0.5602 0.0
O399 O 0.34308 0.41679 0.5417 0.0
C400 C 0.29059 0.42833 0.57919 0.0
O401 O 0.34822 0.39522 0.60765 0.0
O402 O 0.37426 0.45209 0.61144 0.0
In403 In 0.61362 0.95134 0.57665 0.0
O404 O 0.58938 0.89221 0.56919 0.0
O405 O 0.64393 0.92036 0.58033 0.0
C406 C 0.55184 0.95305 0.57344 0.0
C407 C 0.62285 0.9622 0.62006 0.0
C408 C 0.64869 0.98888 0.54059 0.0
O409 O 0.55327 0.92456 0.57071 0.0
O410 O 0.58189 0.98106 0.57691 0.0
O411 O 0.6539 0.00381 0.5591 0.0
O412 O 0.62702 0.95541 0.54064 0.0
C413 C 0.61726 0.89078 0.57424 0.0
O414 O 0.64903 0.9799 0.60706 0.0
O415 O 0.59373 0.93998 0.61098 0.0
In416 In 0.10181 0.68757 0.57539 0.0
O417 O 0.07313 0.69148 0.60669 0.0
O418 O 0.1187 0.68437 0.60963 0.0
C419 C 0.06359 0.68759 0.54045 0.0
C420 C 0.16095 0.75252 0.57082 0.0
C421 C 0.09749 0.6232 0.56941 0.0
O422 O 0.04963 0.67926 0.55935 0.0
O423 O 0.09639 0.69635 0.53956 0.0
O424 O 0.12667 0.65275 0.56742 0.0
O425 O 0.07035 0.62612 0.57424 0.0
C426 C 0.09481 0.68816 0.61929 0.0
O427 O 0.16103 0.72339 0.5677 0.0
O428 O 0.13078 0.74892 0.57627 0.0
In429 In 0.10575 0.6946 0.75771 0.0
O430 O 0.07351 0.69197 0.72651 0.0
O431 O 0.12503 0.69625 0.72343 0.0
C432 C 0.06781 0.69321 0.79316 0.0
C433 C 0.10039 0.6298 0.7618 0.0
C434 C 0.16527 0.75947 0.76341 0.0
O435 O 0.06037 0.69993 0.77429 0.0
O436 O 0.09361 0.68696 0.79376 0.0
O437 O 0.1652 0.73013 0.76575 0.0
O438 O 0.13513 0.75614 0.75834 0.0
C439 C 0.09781 0.69373 0.71385 0.0
O440 O 0.12972 0.65899 0.76451 0.0
O441 O 0.07351 0.63328 0.75705 0.0
In442 In 0.35393 0.43232 0.75651 0.0
O443 O 0.38902 0.49097 0.76513 0.0
O444 O 0.41523 0.46045 0.75894 0.0
C445 C 0.29074 0.43175 0.75318 0.0
C446 C 0.36391 0.42254 0.71405 0.0
C447 C 0.34809 0.39653 0.79406 0.0
O448 O 0.32032 0.46007 0.75687 0.0
O449 O 0.29288 0.40352 0.75149 0.0
O450 O 0.34797 0.38316 0.7756 0.0
O451 O 0.3511 0.42731 0.79334 0.0
C452 C 0.41837 0.49068 0.76368 0.0
O453 O 0.3514 0.3964 0.72742 0.0
O454 O 0.37126 0.45238 0.72226 0.0
In455 In 0.61368 0.94898 0.75754 0.0
O456 O 0.55372 0.92501 0.76267 0.0
O457 O 0.58456 0.98121 0.75521 0.0
C458 C 0.61723 0.88819 0.76212 0.0
C459 C 0.62328 0.95991 0.71416 0.0
C460 C 0.64921 0.98591 0.79342 0.0
O461 O 0.58898 0.88957 0.76599 0.0
O462 O 0.64405 0.91771 0.75618 0.0
O463 O 0.66358 0.99398 0.77464 0.0
O464 O 0.61721 0.96001 0.79379 0.0
C465 C 0.55384 0.95415 0.75906 0.0
O466 O 0.64687 0.98172 0.72737 0.0
O467 O 0.59651 0.93342 0.72296 0.0
C468 C 0.1188 0.25597 0.09406 0.0
C469 C 0.11923 0.28836 0.08948 0.0
H470 H 0.14972 0.22969 0.09849 0.0
C471 C 0.15242 0.31983 0.08555 0.0
H472 H 0.09362 0.23129 0.09719 0.0
C473 C 0.18464 0.31892 0.0863 0.0
C474 C 0.18415 0.28653 0.09103 0.0
H475 H 0.15353 0.34518 0.08199 0.0
H476 H 0.20989 0.34356 0.08325 0.0
C477 C 0.15093 0.25507 0.09485 0.0
C478 C 0.73026 0.89662 0.08852 0.0
C479 C 0.76176 0.92865 0.09428 0.0
H480 H 0.70532 0.83939 0.08408 0.0
C481 C 0.79239 0.92709 0.10087 0.0
H482 H 0.70624 0.89707 0.08342 0.0
C483 C 0.79186 0.89428 0.10125 0.0
C484 C 0.76068 0.86232 0.09508 0.0
H485 H 0.81703 0.95132 0.10547 0.0
H486 H 0.81612 0.89407 0.10611 0.0
C487 C 0.72971 0.86366 0.08893 0.0
C488 C 0.15532 0.85977 0.08885 0.0
C489 C 0.12306 0.85849 0.09505 0.0
H490 H 0.21224 0.89314 0.0833 0.0
C491 C 0.12393 0.89042 0.10138 0.0
H492 H 0.15537 0.8355 0.08389 0.0
C493 C 0.15624 0.92318 0.10104 0.0
C494 C 0.18837 0.92471 0.09434 0.0
H495 H 0.0995 0.89025 0.10629 0.0
H496 H 0.15588 0.9474 0.10573 0.0
C497 C 0.18779 0.89269 0.08848 0.0
C498 C 0.25427 0.12699 0.8981 0.0
C499 C 0.28541 0.12605 0.90425 0.0
H500 H 0.22931 0.15909 0.89385 0.0
C501 C 0.31664 0.15831 0.91002 0.0
H502 H 0.22984 0.10256 0.89347 0.0
C503 C 0.31637 0.19085 0.91018 0.0
C504 C 0.28484 0.19152 0.9046 0.0
H505 H 0.34105 0.15832 0.91478 0.0
H506 H 0.34052 0.21527 0.91513 0.0
C507 C 0.25398 0.15938 0.89828 0.0
C508 C 0.92555 0.16218 0.89797 0.0
C509 C 0.92478 0.19418 0.90156 0.0
H510 H 0.89512 0.10471 0.89557 0.0
C511 C 0.89138 0.19256 0.90431 0.0
H512 H 0.95092 0.16266 0.89574 0.0
C513 C 0.85937 0.15927 0.90438 0.0
C514 C 0.86031 0.12719 0.90156 0.0
H515 H 0.89005 0.21685 0.90715 0.0
H516 H 0.83402 0.15862 0.90713 0.0
C517 C 0.8936 0.12901 0.8979 0.0
C518 C 0.89359 0.79475 0.90244 0.0
C519 C 0.86123 0.76351 0.90811 0.0
H520 H 0.95062 0.81922 0.89811 0.0
C521 C 0.86194 0.73202 0.91374 0.0
H522 H 0.89388 0.81943 0.89803 0.0
C523 C 0.89459 0.7319 0.91378 0.0
C524 C 0.92694 0.76326 0.90819 0.0
H525 H 0.83734 0.70756 0.91819 0.0
H526 H 0.89451 0.70735 0.91825 0.0
C527 C 0.9261 0.79463 0.90249 0.0
C528 C 0.82271 0.65576 0.42431 0.0
C529 C 0.79029 0.6243 0.42969 0.0
H530 H 0.87998 0.68002 0.41996 0.0
C531 C 0.79122 0.5932 0.43596 0.0
H532 H 0.82272 0.68013 0.41947 0.0
C533 C 0.82374 0.59314 0.43624 0.0
C534 C 0.85605 0.6242 0.4303 0.0
H535 H 0.76669 0.5686 0.4403 0.0
H536 H 0.82342 0.56848 0.44075 0.0
C537 C 0.85541 0.65572 0.42464 0.0
C538 C 0.39396 0.22535 0.42971 0.0
C539 C 0.42696 0.25763 0.43207 0.0
H540 H 0.36739 0.16782 0.42689 0.0
C541 C 0.45882 0.25618 0.43479 0.0
H542 H 0.36898 0.22571 0.42768 0.0
C543 C 0.45794 0.22316 0.43426 0.0
C544 C 0.42515 0.19098 0.43115 0.0
H545 H 0.48464 0.28064 0.43672 0.0
H546 H 0.48308 0.22296 0.43577 0.0
C547 C 0.39305 0.19225 0.42933 0.0
C548 C 0.84903 0.22256 0.42849 0.0
C549 C 0.84954 0.25533 0.43163 0.0
H550 H 0.81643 0.16523 0.42495 0.0
C551 C 0.81687 0.25493 0.43504 0.0
H552 H 0.87386 0.22212 0.42586 0.0
C553 C 0.78415 0.22253 0.43446 0.0
C554 C 0.78348 0.1899 0.43053 0.0
H555 H 0.81645 0.27976 0.43757 0.0
H556 H 0.75933 0.2232 0.43659 0.0
C557 C 0.81621 0.19006 0.42798 0.0
C558 C 0.91592 0.45565 0.24132 0.0
C559 C 0.94723 0.45419 0.24624 0.0
H560 H 0.89208 0.48885 0.23721 0.0
C561 C 0.97927 0.48627 0.25115 0.0
H562 H 0.89083 0.43135 0.23749 0.0
C563 C 0.98 0.5193 0.25097 0.0
C564 C 0.9487 0.52071 0.24589 0.0
H565 H 0.0038 0.48588 0.25501 0.0
H566 H 0.00507 0.54369 0.25471 0.0
C567 C 0.91665 0.48858 0.24116 0.0
C568 C 0.55864 0.51968 0.24613 0.0
C569 C 0.59075 0.52107 0.23946 0.0
H570 H 0.50182 0.48628 0.25197 0.0
C571 C 0.58974 0.48919 0.23282 0.0
H572 H 0.55868 0.54389 0.25133 0.0
C573 C 0.55741 0.45643 0.23319 0.0
C574 C 0.52538 0.45484 0.24021 0.0
H575 H 0.61406 0.48943 0.22755 0.0
H576 H 0.55762 0.43227 0.22818 0.0
C577 C 0.52616 0.48677 0.24652 0.0
C578 C 0.52539 0.06289 0.24964 0.0
C579 C 0.52487 0.09525 0.24702 0.0
H580 H 0.55775 0.03764 0.25136 0.0
C581 C 0.55765 0.12779 0.24471 0.0
H582 H 0.50049 0.03741 0.25148 0.0
C583 C 0.59035 0.12792 0.24463 0.0
C584 C 0.59086 0.09551 0.24686 0.0
H585 H 0.55807 0.15315 0.2427 0.0
H586 H 0.61519 0.15338 0.24257 0.0
C587 C 0.55813 0.06302 0.24956 0.0
C588 C 0.48873 0.98906 0.75206 0.0
C589 C 0.45539 0.95741 0.75523 0.0
H590 H 0.54631 0.01293 0.7509 0.0
C591 C 0.45478 0.925 0.75999 0.0
H592 H 0.48995 0.01444 0.74843 0.0
C593 C 0.48687 0.92418 0.76152 0.0
C594 C 0.52023 0.95573 0.75828 0.0
H595 H 0.42948 0.90019 0.76259 0.0
H596 H 0.48549 0.89871 0.76511 0.0
C597 C 0.52094 0.98822 0.75355 0.0
C598 C 0.12827 0.55916 0.76577 0.0
C599 C 0.09507 0.52716 0.76333 0.0
H600 H 0.15588 0.61674 0.76737 0.0
C601 C 0.06326 0.52897 0.76156 0.0
H602 H 0.1532 0.55852 0.76722 0.0
C603 C 0.06483 0.56238 0.76146 0.0
C604 C 0.09819 0.59441 0.7633 0.0
H605 H 0.03731 0.50468 0.75963 0.0
H606 H 0.04002 0.56314 0.75957 0.0
C607 C 0.1298 0.59247 0.76585 0.0
C608 C 0.48578 0.52443 0.76038 0.0
C609 C 0.45358 0.52399 0.76568 0.0
H610 H 0.54295 0.55685 0.7554 0.0
C611 C 0.45492 0.55633 0.77152 0.0
H612 H 0.48547 0.49984 0.7558 0.0
C613 C 0.4876 0.58874 0.77129 0.0
C614 C 0.51962 0.5895 0.76518 0.0
H615 H 0.43055 0.55679 0.77577 0.0
H616 H 0.48758 0.61335 0.77541 0.0
C617 C 0.5186 0.557 0.76011 0.0
C618 C 0.64802 0.82221 0.58039 0.0
C619 C 0.61679 0.79037 0.57405 0.0
H620 H 0.67275 0.8793 0.58539 0.0
C621 C 0.58632 0.79206 0.56726 0.0
H622 H 0.6719 0.82163 0.58567 0.0
C623 C 0.58683 0.82485 0.56706 0.0
C624 C 0.61781 0.85665 0.57366 0.0
H625 H 0.56189 0.76797 0.56223 0.0
H626 H 0.56275 0.82517 0.56192 0.0
C627 C 0.64852 0.85515 0.58021 0.0
C628 C 0.19286 0.81998 0.57151 0.0
C629 C 0.19401 0.78796 0.56893 0.0
H630 H 0.22326 0.87768 0.57356 0.0
C631 C 0.22735 0.78993 0.56523 0.0
H632 H 0.16746 0.8192 0.57429 0.0
C633 C 0.25914 0.82322 0.5649 0.0
C634 C 0.25817 0.8552 0.5681 0.0
H635 H 0.22904 0.76568 0.56311 0.0
H636 H 0.28456 0.82383 0.56256 0.0
C637 C 0.22472 0.8534 0.57101 0.0
C638 C 0.25407 0.45891 0.57666 0.0
C639 C 0.25558 0.42719 0.57993 0.0
H640 H 0.2207 0.48286 0.57425 0.0
C641 C 0.22341 0.39455 0.58369 0.0
H642 H 0.27844 0.48447 0.57377 0.0
C643 C 0.19025 0.39362 0.58395 0.0
C644 C 0.18878 0.42533 0.5805 0.0
H645 H 0.22381 0.3697 0.58628 0.0
H646 H 0.1658 0.36807 0.58672 0.0
C647 C 0.22101 0.45799 0.57697 0.0
C648 C 0.03071 0.33223 0.16786 0.0
C649 C 0.02074 0.34164 0.14808 0.0
H650 H 0.027 0.33106 0.2028 0.0
C651 C 0.00287 0.36161 0.14866 0.0
H652 H 0.04472 0.317 0.16791 0.0
C653 C -0.00725 0.36964 0.16865 0.0
C654 C 0.00035 0.35786 0.18838 0.0
H655 H -0.00502 0.36935 0.13369 0.0
H656 H 0.97737 0.38349 0.16856 0.0
C657 C 0.02062 0.3403 0.18786 0.0
C658 C 0.6904 0.67421 0.14689 0.0
C659 C 0.71212 0.7119 0.14687 0.0
H660 H 0.66546 0.62592 0.16614 0.0
C661 C 0.7216 0.73033 0.16696 0.0
H662 H 0.68262 0.65933 0.13168 0.0
C663 C 0.71165 0.71128 0.1867 0.0
C664 C 0.69225 0.67345 0.18669 0.0
H665 H 0.73812 0.75946 0.16744 0.0
H666 H 0.72089 0.7261 0.20188 0.0
C667 C 0.68065 0.65513 0.16664 0.0
C668 C 0.32097 0.01196 0.16413 0.0
C669 C 0.33981 0.02596 0.1444 0.0
H670 H 0.32385 0.01116 0.19902 0.0
C671 C 0.37761 0.04673 0.14479 0.0
H672 H 0.29179 -0.00443 0.16431 0.0
C673 C 0.39598 0.0557 0.16474 0.0
C674 C 0.37681 0.04393 0.18457 0.0
H675 H 0.3928 0.0578 0.12984 0.0
H676 H 0.425 0.07338 0.16467 0.0
C677 C 0.3393 0.02084 0.18403 0.0
C678 C 0.32962 0.03943 0.83214 0.0
C679 C 0.33724 0.02783 0.85195 0.0
H680 H 0.33153 0.0386 0.79719 0.0
C681 C 0.35724 0.01001 0.85153 0.0
H682 H 0.31448 0.05353 0.83197 0.0
C683 C 0.36699 0.00146 0.83157 0.0
C684 C 0.35695 0.01068 0.81173 0.0
H685 H 0.36357 0.00087 0.86654 0.0
H686 H 0.38076 0.986 0.83169 0.0
C687 C 0.33942 0.03096 0.8122 0.0
C688 C 0.08409 0.37652 0.82645 0.0
C689 C 0.05815 0.37976 0.81418 0.0
H690 H 0.09599 0.3575 0.85576 0.0
C691 C 0.02352 0.36717 0.82304 0.0
H692 H 0.111 0.38598 0.82006 0.0
C693 C 0.01514 0.3515 0.84398 0.0
C694 C 0.04109 0.34758 0.85588 0.0
H695 H 0.00319 0.36968 0.8139 0.0
H696 H 0.98824 0.34146 0.85054 0.0
C697 C 0.07554 0.36029 0.84692 0.0
C698 C 0.70858 0.71062 0.81348 0.0
C699 C 0.67076 0.69328 0.81364 0.0
H700 H 0.75698 0.73531 0.83254 0.0
C701 C 0.65241 0.68339 0.8338 0.0
H702 H 0.7234 0.71848 0.7982 0.0
C703 C 0.67155 0.69286 0.85345 0.0
C704 C 0.70939 0.71259 0.8533 0.0
H705 H 0.6232 0.6697 0.83442 0.0
H706 H 0.65669 0.68645 0.8687 0.0
C707 C 0.72775 0.72029 0.83315 0.0
C708 C 0.01828 0.72031 0.83308 0.0
C709 C 0.02908 0.71269 0.85319 0.0
H710 H 0.0218 0.71976 0.79814 0.0
C711 C 0.0485 0.69426 0.85323 0.0
H712 H 0.0031 0.73435 0.83255 0.0
C713 C 0.05927 0.68606 0.83354 0.0
C714 C 0.05069 0.69599 0.81345 0.0
H715 H 0.0571 0.68795 0.86845 0.0
H716 H 0.07576 0.67339 0.83411 0.0
C717 C 0.02893 0.71195 0.81336 0.0
C718 C 0.35109 0.39642 0.83481 0.0
C719 C 0.34277 0.37727 0.815 0.0
H720 H 0.34776 0.39343 0.8698 0.0
C721 C 0.32673 0.33959 0.81556 0.0
H722 H 0.36368 0.42556 0.83484 0.0
C723 C 0.31719 0.32124 0.83556 0.0
C724 C 0.32413 0.34029 0.85534 0.0
H725 H 0.32003 0.32419 0.80055 0.0
H726 H 0.30346 0.29202 0.83551 0.0
C727 C 0.34215 0.3781 0.85482 0.0
C728 C 0.72619 0.03438 0.83301 0.0
C729 C 0.70827 0.02237 0.85319 0.0
H730 H 0.72142 0.03264 0.79813 0.0
C731 C 0.67043 0.00245 0.85358 0.0
H732 H 0.75539 0.05004 0.83225 0.0
C733 C 0.65103 0.99235 0.83402 0.0
C734 C 0.66914 0.00223 0.81378 0.0
H735 H 0.65595 0.99291 0.86889 0.0
H736 H 0.62193 0.97538 0.83474 0.0
C737 C 0.70678 0.0245 0.81347 0.0
C738 C 0.71687 0.01572 0.16511 0.0
C739 C 0.71082 0.02859 0.1453 0.0
H740 H 0.71331 0.01521 0.20001 0.0
C741 C 0.69196 0.0476 0.1456 0.0
H742 H 0.73109 0.0007 0.16537 0.0
C743 C 0.68179 0.05593 0.16551 0.0
C744 C 0.69023 0.0453 0.18541 0.0
H745 H 0.68686 0.05776 0.13059 0.0
H746 H 0.66895 0.07228 0.16534 0.0
C747 C 0.70663 0.02396 0.18497 0.0
C748 C 0.00417 0.6715 0.14725 0.0
C749 C 0.02107 0.70926 0.14675 0.0
H750 H 0.9805 0.62392 0.16717 0.0
C751 C 0.03134 0.72843 0.16657 0.0
H752 H -0.00395 0.65607 0.13224 0.0
C753 C 0.02259 0.71012 0.18654 0.0
C754 C 0.00327 0.6723 0.18707 0.0
H755 H 0.04472 0.75763 0.16668 0.0
H756 H 0.02925 0.72559 0.20152 0.0
C757 C -0.00475 0.65315 0.16725 0.0
C758 C 0.31567 0.32425 0.16963 0.0
C759 C 0.33403 0.33437 0.14948 0.0
H760 H 0.3201 0.32375 0.20452 0.0
C761 C 0.37176 0.35602 0.1494 0.0
H762 H 0.28652 0.3077 0.17021 0.0
C763 C 0.39093 0.36514 0.16904 0.0
C764 C 0.37272 0.35288 0.18913 0.0
H765 H 0.38662 0.36433 0.13415 0.0
H766 H 0.42016 0.38038 0.16841 0.0
C767 C 0.33485 0.33348 0.1893 0.0
C768 C 0.68742 0.6735 0.51992 0.0
C769 C 0.66628 0.69012 0.51994 0.0
H770 H 0.71216 0.65009 0.50068 0.0
C771 C 0.6576 0.70004 0.49986 0.0
H772 H 0.69465 0.66568 0.53511 0.0
C773 C 0.66766 0.69117 0.4801 0.0
C774 C 0.68647 0.67212 0.4801 0.0
H775 H 0.64151 0.71314 0.49937 0.0
H776 H 0.65899 0.69746 0.46491 0.0
C777 C 0.69737 0.66453 0.50018 0.0
C778 C 0.35663 0.03315 0.48785 0.0
C779 C 0.38745 0.03822 0.47651 0.0
H780 H 0.32481 0.01313 0.51726 0.0
C781 C 0.40935 0.02604 0.48581 0.0
H782 H 0.3396 0.04274 0.48099 0.0
C783 C 0.40076 0.00894 0.50602 0.0
C784 C 0.37049 0.00435 0.5177 0.0
H785 H 0.43328 0.02968 0.47741 0.0
H786 H 0.41826 -0.00026 0.51268 0.0
C787 C 0.34844 0.01667 0.50857 0.0
C788 C 0.97938 0.34769 0.50084 0.0
C789 C -0.00157 0.35662 0.48095 0.0
H790 H 0.98245 0.34959 0.53574 0.0
C791 C 0.03598 0.37111 0.48123 0.0
H792 H 0.95033 0.33613 0.50109 0.0
C793 C 0.05443 0.37903 0.50115 0.0
C794 C 0.03553 0.37221 0.52103 0.0
H795 H 0.05128 0.37815 0.46613 0.0
H796 H 0.08362 0.39199 0.50094 0.0
C797 C -0.00226 0.35525 0.5207 0.0
C798 C 0.34781 0.38668 0.50111 0.0
C799 C 0.3577 0.37821 0.52126 0.0
H800 H 0.35169 0.3862 0.46617 0.0
C801 C 0.37588 0.35854 0.52137 0.0
H802 H 0.33361 0.40171 0.50054 0.0
C803 C 0.38631 0.34984 0.50173 0.0
C804 C 0.37859 0.36046 0.48161 0.0
H805 H 0.38376 0.35153 0.53661 0.0
H806 H 0.40184 0.33615 0.50236 0.0
C807 C 0.35809 0.37778 0.48143 0.0
C808 C 0.66002 0.99043 0.50045 0.0
C809 C 0.66267 0.00902 0.51993 0.0
H810 H 0.66414 0.99299 0.46547 0.0
C811 C 0.67462 0.04606 0.51898 0.0
H812 H 0.65092 0.96183 0.50073 0.0
C813 C 0.68158 0.06367 0.4988 0.0
C814 C 0.67725 0.04469 0.47925 0.0
H815 H 0.67678 0.06102 0.53371 0.0
H816 H 0.68939 0.09198 0.49849 0.0
C817 C 0.66754 0.0082 0.48028 0.0
C818 C 0.98588 0.65379 0.50085 0.0
C819 C 0.00422 0.66522 0.48074 0.0
H820 H 0.99032 0.65249 0.53569 0.0
C821 C 0.0418 0.68791 0.48071 0.0
H822 H 0.95681 0.63647 0.50135 0.0
C823 C 0.06095 0.69685 0.50037 0.0
C824 C 0.0428 0.68356 0.52038 0.0
H825 H 0.0566 0.69717 0.46548 0.0
H826 H 0.09014 0.71296 0.49981 0.0
C827 C 0.00499 0.66305 0.52052 0.0
C828 C 0.98151 0.28042 0.01386 0.0
C829 C 0.01024 0.30863 0.02519 0.0
H830 H 0.95888 0.25743 0.98292 0.0
C831 C 0.03644 0.33858 0.01339 0.0
H832 H 0.96063 0.25722 0.02252 0.0
C833 C 0.03538 0.33872 0.99043 0.0
C834 C 0.00812 0.30892 0.97917 0.0
H835 H 0.05885 0.36069 0.02177 0.0
H836 H 0.05709 0.36087 0.98155 0.0
C837 C 0.98045 0.28058 0.99115 0.0
C838 C 0.77005 0.79162 0.98832 0.0
C839 C 0.75039 0.75936 0.97661 0.0
H840 H 0.7863 0.817 0.01937 0.0
C841 C 0.72946 0.72698 0.98824 0.0
H842 H 0.78618 0.81714 0.97996 0.0
C843 C 0.72938 0.72696 0.01125 0.0
C844 C 0.75044 0.75928 0.02278 0.0
H845 H 0.71398 0.70173 0.97961 0.0
H846 H 0.7139 0.7017 0.01997 0.0
C847 C 0.77016 0.79156 0.01101 0.0
C848 C 0.26007 0.02147 0.98741 0.0
C849 C 0.28955 0.0245 0.97552 0.0
H850 H 0.23708 0.01952 0.01855 0.0
C851 C 0.31945 0.02745 0.98698 0.0
H852 H 0.23654 0.01909 0.9792 0.0
C853 C 0.31966 0.02748 0.00999 0.0
C854 C 0.29013 0.02491 0.02171 0.0
H855 H 0.34254 0.0298 0.97821 0.0
H856 H 0.34293 0.0299 0.01856 0.0
C857 C 0.26041 0.02179 0.0101 0.0
C858 C 0.01901 0.72391 0.98791 0.0
C859 C 0.03307 0.7568 0.97645 0.0
H860 H 0.00654 0.69795 0.01951 0.0
C861 C 0.04778 0.7891 0.98833 0.0
H862 H 0.00757 0.6986 0.97915 0.0
C863 C 0.04696 0.78869 0.01102 0.0
C864 C 0.03167 0.756 0.02259 0.0
H865 H 0.05921 0.81496 0.98009 0.0
H866 H 0.05783 0.81421 0.01952 0.0
C867 C 0.01845 0.72353 0.01093 0.0
C868 C 0.31605 0.32513 0.01427 0.0
C869 C 0.29972 0.29219 0.02577 0.0
H870 H 0.32727 0.35087 0.98265 0.0
C871 C 0.28545 0.25983 0.01398 0.0
H872 H 0.32733 0.35048 0.02299 0.0
C873 C 0.28537 0.26006 0.99129 0.0
C874 C 0.29966 0.29265 0.97966 0.0
H875 H 0.27313 0.23398 0.0223 0.0
H876 H 0.27295 0.23442 0.98282 0.0
C877 C 0.31607 0.32537 0.99127 0.0
C878 C 0.79012 0.03391 0.98775 0.0
C879 C 0.76018 0.02987 0.97596 0.0
H880 H 0.81398 0.03762 0.01881 0.0
C881 C 0.73031 0.02688 0.98751 0.0
H882 H 0.81368 0.03649 0.97944 0.0
C883 C 0.7304 0.02734 0.01053 0.0
C884 C 0.76048 0.03111 0.02217 0.0
H885 H 0.70686 0.02374 0.97882 0.0
H886 H 0.70703 0.0246 0.01915 0.0
C887 C 0.79031 0.03463 0.01045 0.0
C888 C 0.69111 0.65502 0.32158 0.0
C889 C 0.69107 0.62645 0.31019 0.0
H890 H 0.69125 0.67753 0.35312 0.0
C891 C 0.69079 0.59829 0.32216 0.0
H892 H 0.69135 0.6771 0.31275 0.0
C893 C 0.6905 0.59842 0.34485 0.0
C894 C 0.69072 0.62682 0.35642 0.0
H895 H 0.69059 0.57575 0.31399 0.0
H896 H 0.69022 0.57602 0.35334 0.0
C897 C 0.69111 0.65529 0.34461 0.0
C898 C 0.38925 0.0453 0.34229 0.0
C899 C 0.39089 0.07473 0.35352 0.0
H900 H 0.3916 0.02374 0.31099 0.0
C901 C 0.39031 0.10243 0.34155 0.0
H902 H 0.38978 0.02365 0.35118 0.0
C903 C 0.39143 0.10252 0.31883 0.0
C904 C 0.39314 0.07491 0.30754 0.0
H905 H 0.39114 0.12524 0.34978 0.0
H906 H 0.39298 0.12536 0.31014 0.0
C907 C 0.39036 0.04539 0.31935 0.0
C908 C 0.98737 0.36145 0.34567 0.0
C909 C 0.95467 0.34232 0.35723 0.0
H910 H 0.01252 0.37787 0.31401 0.0
C911 C 0.92256 0.32153 0.34558 0.0
H912 H 0.0125 0.37769 0.35431 0.0
C913 C 0.92257 0.3215 0.32288 0.0
C914 C 0.95468 0.34243 0.31116 0.0
H915 H 0.89701 0.30611 0.35405 0.0
H916 H 0.897 0.30604 0.31451 0.0
C917 C 0.98737 0.36157 0.32268 0.0
C918 C 0.72813 0.10687 0.34317 0.0
C919 C 0.7002 0.07824 0.35483 0.0
H920 H 0.74938 0.13021 0.31198 0.0
C921 C 0.67407 0.04802 0.34331 0.0
H922 H 0.74889 0.13033 0.35162 0.0
C923 C 0.6743 0.04797 0.32034 0.0
C924 C 0.70069 0.07813 0.30877 0.0
H925 H 0.65221 0.02562 0.35194 0.0
H926 H 0.65264 0.02551 0.31171 0.0
C927 C 0.72839 0.1068 0.32044 0.0
C928 C 0.9296 0.63094 0.34499 0.0
C929 C 0.96132 0.64027 0.35662 0.0
H930 H 0.90433 0.6229 0.31394 0.0
C931 C -0.00618 0.65235 0.34506 0.0
H932 H 0.90424 0.62201 0.35347 0.0
C933 C -0.00614 0.65266 0.32206 0.0
C934 C 0.96143 0.64109 0.31054 0.0
H935 H 0.01864 0.65967 0.3537 0.0
H936 H 0.01874 0.66027 0.31338 0.0
C937 C 0.92967 0.63146 0.32229 0.0
C938 C 0.44555 0.3459 0.34643 0.0
C939 C 0.42134 0.35262 0.35818 0.0
H940 H 0.46443 0.34009 0.31539 0.0
C941 C 0.39595 0.35796 0.3466 0.0
H942 H 0.46531 0.3414 0.35478 0.0
C943 C 0.39556 0.3574 0.32359 0.0
C944 C 0.42036 0.35118 0.31197 0.0
H945 H 0.37696 0.36319 0.35527 0.0
H946 H 0.37624 0.36216 0.31493 0.0
C947 C 0.445 0.34508 0.32373 0.0
C948 C 0.37256 0.00433 0.67647 0.0
C949 C 0.34636 0.97488 0.68862 0.0
H950 H 0.39308 0.02536 0.64437 0.0
C951 C 0.31759 0.94624 0.67757 0.0
H952 H 0.39501 0.02676 0.68463 0.0
C953 C 0.31648 0.94549 0.65486 0.0
C954 C 0.34408 0.97335 0.64257 0.0
H955 H 0.29671 0.9234 0.68648 0.0
H956 H 0.29484 0.92205 0.64689 0.0
C957 C 0.37142 0.00357 0.6535 0.0
C958 C 0.0572 0.37641 0.67843 0.0
C959 C 0.05685 0.4051 0.68938 0.0
H960 H 0.06059 0.3549 0.64733 0.0
C961 C 0.05387 0.43125 0.67714 0.0
H962 H 0.05962 0.35597 0.68752 0.0
C963 C 0.05452 0.43071 0.65441 0.0
C964 C 0.05816 0.40398 0.64338 0.0
H965 H 0.05317 0.45347 0.68514 0.0
H966 H 0.05418 0.45245 0.64551 0.0
C967 C 0.05785 0.37585 0.65548 0.0
C968 C 0.65157 0.69225 0.67813 0.0
C969 C 0.61983 0.68304 0.68992 0.0
H970 H 0.67618 0.70051 0.6463 0.0
C971 C 0.58782 0.67288 0.67837 0.0
H972 H 0.67663 0.70019 0.68665 0.0
C973 C 0.58751 0.6729 0.65567 0.0
C974 C 0.61926 0.68326 0.64371 0.0
H975 H 0.56278 0.66526 0.6869 0.0
H976 H 0.56224 0.66533 0.6475 0.0
C977 C 0.65132 0.69248 0.65511 0.0
C978 C 0.39059 0.45098 0.67851 0.0
C979 C 0.36798 0.41946 0.69032 0.0
H980 H 0.40726 0.47611 0.64729 0.0
C981 C 0.34693 0.38705 0.6789 0.0
H982 H 0.40747 0.47628 0.68685 0.0
C983 C 0.3467 0.38695 0.65591 0.0
C984 C 0.36759 0.41926 0.64423 0.0
H985 H 0.32921 0.36238 0.68766 0.0
H986 H 0.3289 0.36218 0.64736 0.0
C987 C 0.39044 0.45088 0.65579 0.0
C988 C 0.59239 0.94622 0.67857 0.0
C989 C 0.62486 0.96448 0.69021 0.0
H990 H 0.56653 0.93185 0.64768 0.0
C991 C 0.65741 0.98477 0.67864 0.0
H992 H 0.56679 0.93084 0.68699 0.0
C993 C 0.65733 0.9852 0.65562 0.0
C994 C 0.62467 0.96557 0.64412 0.0
H995 H 0.6828 -0.00084 0.6873 0.0
H996 H 0.68268 -3e-05 0.64688 0.0
C997 C 0.59228 0.94685 0.65593 0.0
C998 C 0.06728 0.69276 0.67809 0.0
C999 C 0.09543 0.69218 0.68968 0.0
H1000 H 0.04485 0.69214 0.64643 0.0
C1001 C 0.1225 0.69007 0.67791 0.0
H1002 H 0.04604 0.69437 0.68676 0.0
C1003 C 0.12171 0.68859 0.65523 0.0
C1004 C 0.09393 0.68938 0.64347 0.0
H1005 H 0.14454 0.68944 0.68623 0.0
H1006 H 0.14324 0.687 0.64691 0.0
C1007 C 0.06661 0.6915 0.65508 0.0
C1008 C 0.89434 0.12858 0.10324 0.0
C1009 C 0.86124 0.12741 0.10004 0.0
H1010 H 0.95179 0.16158 0.1054 0.0
C1011 C 0.86085 0.15992 0.09802 0.0
H1012 H 0.89547 0.10395 0.10491 0.0
C1013 C 0.89313 0.19297 0.0984 0.0
C1014 C 0.92634 0.19403 0.10071 0.0
H1015 H 0.8357 0.15982 0.09561 0.0
H1016 H 0.89213 0.21759 0.09621 0.0
C1017 C 0.92659 0.16157 0.10352 0.0
C1018 C 0.89229 0.72989 0.08957 0.0
C1019 C 0.92488 0.7612 0.09478 0.0
H1020 H 0.8351 0.706 0.08528 0.0
C1021 C 0.9243 0.79267 0.10052 0.0
H1022 H 0.89197 0.70525 0.08511 0.0
C1023 C 0.89191 0.7931 0.10062 0.0
C1024 C 0.85941 0.76207 0.09499 0.0
H1025 H 0.94899 0.81719 0.10466 0.0
H1026 H 0.89245 0.81794 0.10483 0.0
C1027 C 0.85979 0.73033 0.08967 0.0
C1028 C 0.31674 0.15555 0.09626 0.0
C1029 C 0.28487 0.12259 0.0999 0.0
H1030 H 0.34115 0.21297 0.09363 0.0
C1031 C 0.25299 0.12279 0.10518 0.0
H1032 H 0.34174 0.1562 0.09224 0.0
C1033 C 0.25264 0.15522 0.10597 0.0
C1034 C 0.28419 0.18808 0.10154 0.0
H1035 H 0.22803 0.09779 0.10815 0.0
H1036 H 0.22743 0.15444 0.10949 0.0
C1037 C 0.31641 0.18803 0.0971 0.0
C1038 C 0.15568 0.92597 0.89361 0.0
C1039 C 0.18846 0.92743 0.89856 0.0
H1040 H 0.09843 0.89287 0.89038 0.0
C1041 C 0.18856 0.89518 0.90271 0.0
H1042 H 0.1548 0.95039 0.89027 0.0
C1043 C 0.15622 0.86217 0.90275 0.0
C1044 C 0.12328 0.86092 0.89867 0.0
H1045 H 0.21347 0.89552 0.90652 0.0
H1046 H 0.15692 0.83781 0.90661 0.0
C1047 C 0.1234 0.89303 0.89367 0.0
C1048 C 0.18057 0.31706 0.92157 0.0
C1049 C 0.18073 0.28531 0.91603 0.0
H1050 H 0.14871 0.34219 0.92694 0.0
C1051 C 0.14777 0.25357 0.91224 0.0
H1052 H 0.20559 0.34187 0.92467 0.0
C1053 C 0.11525 0.25371 0.91362 0.0
C1054 C 0.1151 0.28558 0.91883 0.0
H1055 H 0.14707 0.22865 0.90804 0.0
H1056 H 0.09029 0.22896 0.9103 0.0
C1057 C 0.14802 0.3172 0.92296 0.0
C1058 C 0.73019 0.86247 0.90426 0.0
C1059 C 0.76185 0.86153 0.89949 0.0
H1060 H 0.70599 0.89539 0.9088 0.0
C1061 C 0.7935 0.8938 0.89422 0.0
H1062 H 0.70539 0.83798 0.90838 0.0
C1063 C 0.79384 0.92659 0.89446 0.0
C1064 C 0.76255 0.92772 0.90002 0.0
H1065 H 0.81829 0.89388 0.89042 0.0
H1066 H 0.81887 0.95113 0.89081 0.0
C1067 C 0.73055 0.89531 0.90454 0.0
C1068 C 0.55926 0.45895 0.43853 0.0
C1069 C 0.5268 0.45733 0.43249 0.0
H1070 H 0.6163 0.4921 0.44275 0.0
C1071 C 0.52708 0.48938 0.42703 0.0
H1072 H 0.55985 0.4347 0.44289 0.0
C1073 C 0.55948 0.52234 0.42697 0.0
C1074 C 0.59209 0.52374 0.43235 0.0
H1075 H 0.50242 0.4889 0.42236 0.0
H1076 H 0.5591 0.54655 0.42223 0.0
C1077 C 0.59158 0.49183 0.43846 0.0
C1078 C 0.58835 0.13032 0.41548 0.0
C1079 C 0.58876 0.09784 0.41341 0.0
H1080 H 0.55618 0.1558 0.4167 0.0
C1081 C 0.55613 0.06565 0.40982 0.0
H1082 H 0.61312 0.15557 0.41819 0.0
C1083 C 0.52357 0.06581 0.40885 0.0
C1084 C 0.52304 0.09815 0.41153 0.0
H1085 H 0.55567 0.04023 0.40807 0.0
H1086 H 0.49874 0.04048 0.40649 0.0
C1087 C 0.55577 0.13047 0.41459 0.0
C1088 C 0.98054 0.48561 0.42073 0.0
C1089 C 0.94822 0.45335 0.42497 0.0
H1090 H 0.00636 0.54309 0.41716 0.0
C1091 C 0.91659 0.45466 0.42911 0.0
H1092 H 0.00532 0.48537 0.41748 0.0
C1093 C 0.91717 0.48754 0.42891 0.0
C1094 C 0.94939 0.5198 0.42457 0.0
H1095 H 0.89127 0.43023 0.43243 0.0
H1096 H 0.89229 0.48763 0.4321 0.0
C1097 C 0.98113 0.5186 0.42054 0.0
C1098 C 0.81758 0.19282 0.23299 0.0
C1099 C 0.78442 0.19215 0.23217 0.0
H1100 H 0.87518 0.2254 0.23449 0.0
C1101 C 0.78435 0.22486 0.23051 0.0
H1102 H 0.81846 0.168 0.23422 0.0
C1103 C 0.81681 0.2577 0.23063 0.0
C1104 C 0.84991 0.25841 0.23245 0.0
H1105 H 0.75919 0.22517 0.22978 0.0
H1106 H 0.81587 0.28252 0.23001 0.0
C1107 C 0.85005 0.22567 0.23315 0.0
C1108 C 0.82267 0.58978 0.22861 0.0
C1109 C 0.85508 0.62174 0.23304 0.0
H1110 H 0.76523 0.56424 0.22576 0.0
C1111 C 0.85428 0.65373 0.23671 0.0
H1112 H 0.82248 0.56473 0.22566 0.0
C1113 C 0.82144 0.65343 0.23684 0.0
C1114 C 0.78889 0.62115 0.23324 0.0
H1115 H 0.87888 0.67877 0.24016 0.0
H1116 H 0.82147 0.67826 0.24032 0.0
C1117 C 0.78989 0.5895 0.22868 0.0
C1118 C 0.39478 0.22418 0.23516 0.0
C1119 C 0.42756 0.25692 0.2336 0.0
H1120 H 0.36885 0.16653 0.23646 0.0
C1121 C 0.45979 0.25621 0.23069 0.0
H1122 H 0.36951 0.22393 0.23733 0.0
C1123 C 0.45943 0.2234 0.23026 0.0
C1124 C 0.42682 0.1907 0.23261 0.0
H1125 H 0.48546 0.28104 0.22938 0.0
H1126 H 0.48482 0.22372 0.22863 0.0
C1127 C 0.3944 0.19134 0.23462 0.0
C1128 C 0.26384 0.83001 0.7686 0.0
C1129 C 0.263 0.86205 0.7652 0.0
H1130 H 0.23349 0.77244 0.77087 0.0
C1131 C 0.22953 0.86032 0.76261 0.0
H1132 H 0.28926 0.83054 0.77071 0.0
C1133 C 0.19755 0.82698 0.76257 0.0
C1134 C 0.19853 0.79486 0.76526 0.0
H1135 H 0.22809 0.88461 0.75995 0.0
H1136 H 0.17217 0.82632 0.75998 0.0
C1137 C 0.23191 0.79674 0.76869 0.0
C1138 C 0.22393 0.39944 0.7474 0.0
C1139 C 0.25641 0.43178 0.75101 0.0
H1140 H 0.16658 0.37405 0.74358 0.0
C1141 C 0.25582 0.46422 0.75266 0.0
H1142 H 0.22362 0.37406 0.74597 0.0
C1143 C 0.22326 0.46424 0.75119 0.0
C1144 C 0.19066 0.43181 0.74807 0.0
H1145 H 0.28049 0.48958 0.75534 0.0
H1146 H 0.22356 0.48958 0.75292 0.0
C1147 C 0.19132 0.39946 0.74596 0.0
C1148 C 0.64936 0.82051 0.75767 0.0
C1149 C 0.61785 0.78822 0.76316 0.0
H1150 H 0.67393 0.87768 0.75309 0.0
C1151 C 0.58678 0.78937 0.76928 0.0
H1152 H 0.67371 0.82039 0.75292 0.0
C1153 C 0.58691 0.82204 0.7694 0.0
C1154 C 0.61811 0.85421 0.76339 0.0
H1155 H 0.56212 0.76493 0.77365 0.0
H1156 H 0.56235 0.82196 0.77384 0.0
C1157 C 0.64949 0.85325 0.75778 0.0
C1158 C 0.51726 0.55964 0.5689 0.0
C1159 C 0.51731 0.59227 0.56619 0.0
H1160 H 0.48542 0.50215 0.57174 0.0
C1161 C 0.48442 0.59139 0.56266 0.0
H1162 H 0.54223 0.5595 0.5716 0.0
C1163 C 0.45193 0.5586 0.56275 0.0
C1164 C 0.45174 0.52609 0.56636 0.0
H1165 H 0.48364 0.61612 0.56044 0.0
H1166 H 0.42691 0.55885 0.56062 0.0
C1167 C 0.48475 0.52682 0.56897 0.0
C1168 C 0.45176 0.91985 0.57451 0.0
C1169 C 0.4512 0.95177 0.57891 0.0
H1170 H 0.48412 0.89536 0.56905 0.0
C1171 C 0.48402 0.98431 0.58104 0.0
H1172 H 0.42687 0.8944 0.57265 0.0
C1173 C 0.51683 0.98489 0.57885 0.0
C1174 C 0.51735 0.95295 0.57446 0.0
H1175 H 0.48437 0.00936 0.58429 0.0
H1176 H 0.54175 0.0103 0.58073 0.0
C1177 C 0.48453 0.92044 0.57229 0.0
C1178 C 0.12744 0.58624 0.56492 0.0
C1179 C 0.09569 0.58796 0.56752 0.0
H1180 H 0.15116 0.5525 0.56356 0.0
C1181 C 0.06247 0.55575 0.56938 0.0
H1182 H 0.15343 0.61064 0.5634 0.0
C1183 C 0.06115 0.52246 0.56934 0.0
C1184 C 0.09306 0.52082 0.56758 0.0
H1185 H 0.03755 0.55628 0.57132 0.0
H1186 H 0.03525 0.4981 0.57134 0.0
C1187 C 0.12614 0.55297 0.56501 0.0
loop_
_geom_bond_atom_site_label_1
_geom_bond_atom_site_label_2
_geom_bond_distance
_geom_bond_site_symmetry_2
_ccdc_geom_bond_type
In0 O1 2.294 . S
In0 O2 2.326 . S
In0 O6 2.266 . S
In0 O7 2.326 . S
In0 O8 2.266 1_455 S
In0 O9 2.326 1_455 S
In0 O11 2.294 . S
In0 O12 2.326 . S
O1 In0 2.294 . S
O1 C10 1.240 . S
O2 In0 2.326 . S
O2 C10 1.252 . S
C3 O6 1.252 . S
C3 O7 1.260 . S
C4 O11 1.240 . S
C4 O12 1.252 . S
C5 O8 1.252 . S
C5 O9 1.260 . S
O6 In0 2.266 . S
O6 C3 1.252 . S
O7 In0 2.326 . S
O7 C3 1.260 . S
O8 In0 2.266 1_655 S
O8 C5 1.252 . S
O9 In0 2.326 1_655 S
O9 C5 1.260 . S
C10 O1 1.240 . S
C10 O2 1.252 . S
O11 In0 2.294 . S
O11 C4 1.240 . S
O12 In0 2.326 . S
O12 C4 1.252 . S
In13 O14 2.294 . S
In13 O15 2.326 . S
In13 O19 2.266 . S
In13 O20 2.326 . S
In13 O21 2.266 . S
In13 O22 2.326 . S
In13 O24 2.294 . S
In13 O25 2.326 . S
O14 In13 2.294 . S
O14 C23 1.240 . S
O15 In13 2.326 . S
O15 C23 1.252 . S
C16 O19 1.252 . S
C16 O20 1.260 . S
C17 O24 1.240 . S
C17 O25 1.252 . S
C18 O21 1.252 . S
C18 O22 1.260 . S
O19 In13 2.266 . S
O19 C16 1.252 . S
O20 In13 2.326 . S
O20 C16 1.260 . S
O21 In13 2.266 . S
O21 C18 1.252 . S
O22 In13 2.326 . S
O22 C18 1.260 . S
C23 O14 1.240 . S
C23 O15 1.252 . S
O24 In13 2.294 . S
O24 C17 1.240 . S
O25 In13 2.326 . S
O25 C17 1.252 . S
In26 O27 2.294 . S
In26 O28 2.326 . S
In26 O32 2.266 . S
In26 O33 2.326 . S
In26 O34 2.266 . S
In26 O35 2.326 . S
In26 O37 2.294 1_545 S
In26 O38 2.326 1_545 S
O27 In26 2.294 . S
O27 C36 1.240 . S
O28 In26 2.326 . S
O28 C36 1.252 . S
C29 O32 1.252 . S
C29 O33 1.260 . S
C30 O37 1.240 . S
C30 O38 1.252 . S
C31 O34 1.252 . S
C31 O35 1.260 . S
O32 In26 2.266 . S
O32 C29 1.252 . S
O33 In26 2.326 . S
O33 C29 1.260 . S
O34 In26 2.266 . S
O34 C31 1.252 . S
O35 In26 2.326 . S
O35 C31 1.260 . S
C36 O27 1.240 . S
C36 O28 1.252 . S
O37 In26 2.294 1_565 S
O37 C30 1.240 . S
O38 In26 2.326 1_565 S
O38 C30 1.252 . S
In39 O40 2.294 . S
In39 O41 2.326 . S
In39 O45 2.266 1_545 S
In39 O46 2.326 1_545 S
In39 O47 2.266 . S
In39 O48 2.326 . S
In39 O50 2.294 . S
In39 O51 2.326 . S
O40 In39 2.294 . S
O40 C49 1.240 . S
O41 In39 2.326 . S
O41 C49 1.252 . S
C42 O45 1.252 . S
C42 O46 1.260 . S
C43 O50 1.240 . S
C43 O51 1.252 . S
C44 O47 1.252 . S
C44 O48 1.260 . S
O45 In39 2.266 1_565 S
O45 C42 1.252 . S
O46 In39 2.326 1_565 S
O46 C42 1.260 . S
O47 In39 2.266 . S
O47 C44 1.252 . S
O48 In39 2.326 . S
O48 C44 1.260 . S
C49 O40 1.240 . S
C49 O41 1.252 . S
O50 In39 2.294 . S
O50 C43 1.240 . S
O51 In39 2.326 . S
O51 C43 1.252 . S
In52 O53 2.294 . S
In52 O54 2.326 . S
In52 O58 2.266 . S
In52 O59 2.326 . S
In52 O60 2.266 . S
In52 O61 2.326 . S
In52 O63 2.294 1_455 S
In52 O64 2.326 1_455 S
O53 In52 2.294 . S
O53 C62 1.240 . S
O54 In52 2.326 . S
O54 C62 1.252 . S
C55 O58 1.252 . S
C55 O59 1.260 . S
C56 O63 1.240 . S
C56 O64 1.252 . S
C57 O60 1.252 . S
C57 O61 1.260 . S
O58 In52 2.266 . S
O58 C55 1.252 . S
O59 In52 2.326 . S
O59 C55 1.260 . S
O60 In52 2.266 . S
O60 C57 1.252 . S
O61 In52 2.326 . S
O61 C57 1.260 . S
C62 O53 1.240 . S
C62 O54 1.252 . S
O63 In52 2.294 1_655 S
O63 C56 1.240 . S
O64 In52 2.326 1_655 S
O64 C56 1.252 . S
In65 O66 2.294 . S
In65 O67 2.326 . S
In65 O71 2.266 . S
In65 O72 2.326 . S
In65 O73 2.266 . S
In65 O74 2.326 . S
In65 O76 2.294 . S
In65 O77 2.326 . S
O66 In65 2.294 . S
O66 C75 1.240 . S
O67 In65 2.326 . S
O67 C75 1.252 . S
C68 O71 1.252 . S
C68 O72 1.260 . S
C69 O76 1.240 . S
C69 O77 1.252 . S
C70 O73 1.252 . S
C70 O74 1.260 . S
O71 In65 2.266 . S
O71 C68 1.252 . S
O72 In65 2.326 . S
O72 C68 1.260 . S
O73 In65 2.266 . S
O73 C70 1.252 . S
O74 In65 2.326 . S
O74 C70 1.260 . S
C75 O66 1.240 . S
C75 O67 1.252 . S
O76 In65 2.294 . S
O76 C69 1.240 . S
O77 In65 2.326 . S
O77 C69 1.252 . S
In78 O79 2.294 1_455 S
In78 O80 2.326 1_455 S
In78 O84 2.266 . S
In78 O85 2.326 . S
In78 O86 2.266 . S
In78 O87 2.326 . S
In78 O89 2.294 . S
In78 O90 2.326 . S
O79 In78 2.294 1_655 S
O79 C88 1.240 . S
O80 In78 2.326 1_655 S
O80 C88 1.252 . S
C81 O84 1.252 . S
C81 O85 1.260 . S
C82 O89 1.240 . S
C82 O90 1.252 . S
C83 O86 1.252 . S
C83 O87 1.260 . S
O84 In78 2.266 . S
O84 C81 1.252 . S
O85 In78 2.326 . S
O85 C81 1.260 . S
O86 In78 2.266 . S
O86 C83 1.252 . S
O87 In78 2.326 . S
O87 C83 1.260 . S
C88 O79 1.240 . S
C88 O80 1.252 . S
O89 In78 2.294 . S
O89 C82 1.240 . S
O90 In78 2.326 . S
O90 C82 1.252 . S
In91 O92 2.294 . S
In91 O93 2.326 . S
In91 O97 2.266 . S
In91 O98 2.326 . S
In91 O99 2.266 . S
In91 O100 2.326 . S
In91 O102 2.294 . S
In91 O103 2.326 . S
O92 In91 2.294 . S
O92 C101 1.240 . S
O93 In91 2.326 . S
O93 C101 1.252 . S
C94 O97 1.252 . S
C94 O98 1.260 . S
C95 O102 1.240 . S
C95 O103 1.252 . S
C96 O99 1.252 . S
C96 O100 1.260 . S
O97 In91 2.266 . S
O97 C94 1.252 . S
O98 In91 2.326 . S
O98 C94 1.260 . S
O99 In91 2.266 . S
O99 C96 1.252 . S
O100 In91 2.326 . S
O100 C96 1.260 . S
C101 O92 1.240 . S
C101 O93 1.252 . S
O102 In91 2.294 . S
O102 C95 1.240 . S
O103 In91 2.326 . S
O103 C95 1.252 . S
In104 O105 2.294 . S
In104 O106 2.326 . S
In104 O110 2.266 . S
In104 O111 2.326 . S
In104 O112 2.266 1_545 S
In104 O113 2.326 1_545 S
In104 O115 2.294 . S
In104 O116 2.326 . S
O105 In104 2.294 . S
O105 C114 1.240 . S
O106 In104 2.326 . S
O106 C114 1.252 . S
C107 O110 1.252 . S
C107 O111 1.260 . S
C108 O115 1.240 . S
C108 O116 1.252 . S
C109 O112 1.252 . S
C109 O113 1.260 . S
O110 In104 2.266 . S
O110 C107 1.252 . S
O111 In104 2.326 . S
O111 C107 1.260 . S
O112 In104 2.266 1_565 S
O112 C109 1.252 . S
O113 In104 2.326 1_565 S
O113 C109 1.260 . S
C114 O105 1.240 . S
C114 O106 1.252 . S
O115 In104 2.294 . S
O115 C108 1.240 . S
O116 In104 2.326 . S
O116 C108 1.252 . S
In117 O118 2.294 1_545 S
In117 O119 2.326 1_545 S
In117 O123 2.266 . S
In117 O124 2.326 . S
In117 O125 2.266 . S
In117 O126 2.326 . S
In117 O128 2.294 . S
In117 O129 2.326 . S
O118 In117 2.294 1_565 S
O118 C127 1.240 . S
O119 In117 2.326 1_565 S
O119 C127 1.252 . S
C120 O123 1.252 . S
C120 O124 1.260 . S
C121 O128 1.240 . S
C121 O129 1.252 . S
C122 O125 1.252 . S
C122 O126 1.260 . S
O123 In117 2.266 . S
O123 C120 1.252 . S
O124 In117 2.326 . S
O124 C120 1.260 . S
O125 In117 2.266 . S
O125 C122 1.252 . S
O126 In117 2.326 . S
O126 C122 1.260 . S
C127 O118 1.240 . S
C127 O119 1.252 . S
O128 In117 2.294 . S
O128 C121 1.240 . S
O129 In117 2.326 . S
O129 C121 1.252 . S
In130 O131 2.294 . S
In130 O132 2.326 . S
In130 O136 2.266 . S
In130 O137 2.326 . S
In130 O138 2.266 1_455 S
In130 O139 2.326 1_455 S
In130 O141 2.294 . S
In130 O142 2.326 . S
O131 In130 2.294 . S
O131 C140 1.240 . S
O132 In130 2.326 . S
O132 C140 1.252 . S
C133 O136 1.252 . S
C133 O137 1.260 . S
C134 O141 1.240 . S
C134 O142 1.252 . S
C135 O138 1.252 . S
C135 O139 1.260 . S
O136 In130 2.266 . S
O136 C133 1.252 . S
O137 In130 2.326 . S
O137 C133 1.260 . S
O138 In130 2.266 1_655 S
O138 C135 1.252 . S
O139 In130 2.326 1_655 S
O139 C135 1.260 . S
C140 O131 1.240 . S
C140 O132 1.252 . S
O141 In130 2.294 . S
O141 C134 1.240 . S
O142 In130 2.326 . S
O142 C134 1.252 . S
In143 O144 2.294 . S
In143 O145 2.326 . S
In143 O149 2.266 . S
In143 O150 2.326 . S
In143 O151 2.266 . S
In143 O152 2.326 . S
In143 O154 2.294 . S
In143 O155 2.326 . S
O144 In143 2.294 . S
O144 C153 1.240 . S
O145 In143 2.326 . S
O145 C153 1.252 . S
C146 O149 1.252 . S
C146 O150 1.260 . S
C147 O154 1.240 . S
C147 O155 1.252 . S
C148 O151 1.252 . S
C148 O152 1.260 . S
O149 In143 2.266 . S
O149 C146 1.252 . S
O150 In143 2.326 . S
O150 C146 1.260 . S
O151 In143 2.266 . S
O151 C148 1.252 . S
O152 In143 2.326 . S
O152 C148 1.260 . S
C153 O144 1.240 . S
C153 O145 1.252 . S
O154 In143 2.294 . S
O154 C147 1.240 . S
O155 In143 2.326 . S
O155 C147 1.252 . S
In156 O157 2.294 . S
In156 O158 2.326 . S
In156 O162 2.266 . S
In156 O163 2.326 . S
In156 O164 2.266 . S
In156 O165 2.326 . S
In156 O167 2.294 . S
In156 O168 2.326 . S
O157 In156 2.294 . S
O157 C166 1.240 . S
O158 In156 2.326 . S
O158 C166 1.252 . S
C159 O162 1.252 . S
C159 O163 1.260 . S
C160 O167 1.240 . S
C160 O168 1.252 . S
C161 O164 1.252 . S
C161 O165 1.260 . S
O162 In156 2.266 . S
O162 C159 1.252 . S
O163 In156 2.326 . S
O163 C159 1.260 . S
O164 In156 2.266 . S
O164 C161 1.252 . S
O165 In156 2.326 . S
O165 C161 1.260 . S
C166 O157 1.240 . S
C166 O158 1.252 . S
O167 In156 2.294 . S
O167 C160 1.240 . S
O168 In156 2.326 . S
O168 C160 1.252 . S
In169 O170 2.294 . S
In169 O171 2.326 . S
In169 O175 2.266 . S
In169 O176 2.326 . S
In169 O177 2.266 . S
In169 O178 2.326 . S
In169 O180 2.294 . S
In169 O181 2.326 . S
O170 In169 2.294 . S
O170 C179 1.240 . S
O171 In169 2.326 . S
O171 C179 1.252 . S
C172 O175 1.252 . S
C172 O176 1.260 . S
C173 O180 1.240 . S
C173 O181 1.252 . S
C174 O177 1.252 . S
C174 O178 1.260 . S
O175 In169 2.266 . S
O175 C172 1.252 . S
O176 In169 2.326 . S
O176 C172 1.260 . S
O177 In169 2.266 . S
O177 C174 1.252 . S
O178 In169 2.326 . S
O178 C174 1.260 . S
C179 O170 1.240 . S
C179 O171 1.252 . S
O180 In169 2.294 . S
O180 C173 1.240 . S
O181 In169 2.326 . S
O181 C173 1.252 . S
In182 O183 2.294 . S
In182 O184 2.326 . S
In182 O188 2.266 1_655 S
In182 O189 2.326 . S
In182 O190 2.266 . S
In182 O191 2.326 1_655 S
In182 O193 2.294 . S
In182 O194 2.326 . S
O183 In182 2.294 . S
O183 C192 1.240 . S
O184 In182 2.326 . S
O184 C192 1.252 . S
C185 O188 1.252 . S
C185 O189 1.260 1_455 S
C186 O193 1.240 . S
C186 O194 1.252 . S
C187 O190 1.252 . S
C187 O191 1.260 1_655 S
O188 In182 2.266 1_455 S
O188 C185 1.252 . S
O189 In182 2.326 . S
O189 C185 1.260 1_655 S
O190 In182 2.266 . S
O190 C187 1.252 . S
O191 In182 2.326 1_455 S
O191 C187 1.260 1_455 S
C192 O183 1.240 . S
C192 O184 1.252 . S
O193 In182 2.294 . S
O193 C186 1.240 . S
O194 In182 2.326 . S
O194 C186 1.252 . S
In195 O196 2.294 . S
In195 O197 2.326 1_655 S
In195 O201 2.266 . S
In195 O202 2.326 . S
In195 O203 2.266 1_655 S
In195 O204 2.326 . S
In195 O206 2.294 1_655 S
In195 O207 2.326 . S
O196 In195 2.294 . S
O196 C205 1.240 . S
O197 In195 2.326 1_455 S
O197 C205 1.254 1_455 S
C198 O201 1.252 . S
C198 O202 1.260 . S
C199 O206 1.240 1_655 S
C199 O207 1.252 . S
C200 O203 1.252 1_655 S
C200 O204 1.260 . S
O201 In195 2.266 . S
O201 C198 1.252 . S
O202 In195 2.326 . S
O202 C198 1.260 . S
O203 In195 2.266 1_455 S
O203 C200 1.252 1_455 S
O204 In195 2.326 . S
O204 C200 1.260 . S
C205 O196 1.240 . S
C205 O197 1.254 1_655 S
O206 In195 2.294 1_455 S
O206 C199 1.240 1_455 S
O207 In195 2.326 . S
O207 C199 1.252 . S
In208 O209 2.294 . S
In208 O210 2.326 . S
In208 O214 2.266 . S
In208 O215 2.326 . S
In208 O216 2.266 . S
In208 O217 2.326 . S
In208 O219 2.294 . S
In208 O220 2.326 . S
O209 In208 2.294 . S
O209 C218 1.240 . S
O210 In208 2.326 . S
O210 C218 1.252 . S
C211 O214 1.252 . S
C211 O215 1.260 . S
C212 O219 1.240 . S
C212 O220 1.252 . S
C213 O216 1.252 . S
C213 O217 1.260 . S
O214 In208 2.266 . S
O214 C211 1.252 . S
O215 In208 2.326 . S
O215 C211 1.260 . S
O216 In208 2.266 . S
O216 C213 1.252 . S
O217 In208 2.326 . S
O217 C213 1.260 . S
C218 O209 1.240 . S
C218 O210 1.252 . S
O219 In208 2.294 . S
O219 C212 1.240 . S
O220 In208 2.326 . S
O220 C212 1.252 . S
In221 O222 2.294 . S
In221 O223 2.326 . S
In221 O227 2.266 . S
In221 O228 2.326 . S
In221 O229 2.266 . S
In221 O230 2.326 . S
In221 O232 2.294 . S
In221 O233 2.326 . S
O222 In221 2.294 . S
O222 C231 1.240 . S
O223 In221 2.326 . S
O223 C231 1.252 . S
C224 O227 1.252 . S
C224 O228 1.260 . S
C225 O232 1.240 . S
C225 O233 1.252 . S
C226 O229 1.252 . S
C226 O230 1.260 . S
O227 In221 2.266 . S
O227 C224 1.252 . S
O228 In221 2.326 . S
O228 C224 1.260 . S
O229 In221 2.266 . S
O229 C226 1.252 . S
O230 In221 2.326 . S
O230 C226 1.260 . S
C231 O222 1.240 . S
C231 O223 1.252 . S
O232 In221 2.294 . S
O232 C225 1.240 . S
O233 In221 2.326 . S
O233 C225 1.252 . S
In234 O235 2.294 . S
In234 O236 2.326 . S
In234 O240 2.266 . S
In234 O241 2.326 . S
In234 O242 2.266 . S
In234 O243 2.326 . S
In234 O245 2.294 . S
In234 O246 2.326 . S
O235 In234 2.294 . S
O235 C244 1.240 . S
O236 In234 2.326 . S
O236 C244 1.252 . S
C237 O240 1.252 . S
C237 O241 1.260 . S
C238 O245 1.240 . S
C238 O246 1.252 . S
C239 O242 1.252 . S
C239 O243 1.260 . S
O240 In234 2.266 . S
O240 C237 1.252 . S
O241 In234 2.326 . S
O241 C237 1.260 . S
O242 In234 2.266 . S
O242 C239 1.252 . S
O243 In234 2.326 . S
O243 C239 1.260 . S
C244 O235 1.240 . S
C244 O236 1.252 . S
O245 In234 2.294 . S
O245 C238 1.240 . S
O246 In234 2.326 . S
O246 C238 1.252 . S
In247 O248 2.294 . S
In247 O249 2.328 1_655 S
In247 O253 2.266 . S
In247 O254 2.326 . S
In247 O255 2.266 1_655 S
In247 O256 2.326 . S
In247 O258 2.294 1_655 S
In247 O259 2.326 . S
O248 In247 2.294 . S
O248 C257 1.240 . S
O249 In247 2.328 1_455 S
O249 C257 1.253 1_455 S
C250 O253 1.252 . S
C250 O254 1.260 . S
C251 O258 1.240 1_655 S
C251 O259 1.252 . S
C252 O255 1.252 1_655 S
C252 O256 1.260 . S
O253 In247 2.266 . S
O253 C250 1.252 . S
O254 In247 2.326 . S
O254 C250 1.260 . S
O255 In247 2.266 1_455 S
O255 C252 1.252 1_455 S
O256 In247 2.326 . S
O256 C252 1.260 . S
C257 O248 1.240 . S
C257 O249 1.253 1_655 S
O258 In247 2.294 1_455 S
O258 C251 1.240 1_455 S
O259 In247 2.326 . S
O259 C251 1.252 . S
In260 O261 2.294 . S
In260 O262 2.326 . S
In260 O266 2.266 . S
In260 O267 2.326 . S
In260 O268 2.266 . S
In260 O269 2.326 . S
In260 O271 2.294 . S
In260 O272 2.326 . S
O261 In260 2.294 . S
O261 C270 1.240 . S
O262 In260 2.326 . S
O262 C270 1.252 . S
C263 O266 1.252 . S
C263 O267 1.260 . S
C264 O271 1.240 . S
C264 O272 1.252 . S
C265 O268 1.252 . S
C265 O269 1.260 . S
O266 In260 2.266 . S
O266 C263 1.252 . S
O267 In260 2.326 . S
O267 C263 1.260 . S
O268 In260 2.266 . S
O268 C265 1.252 . S
O269 In260 2.326 . S
O269 C265 1.260 . S
C270 O261 1.240 . S
C270 O262 1.252 . S
O271 In260 2.294 . S
O271 C264 1.240 . S
O272 In260 2.326 . S
O272 C264 1.252 . S
In273 O274 2.294 . S
In273 O275 2.326 . S
In273 O279 2.266 . S
In273 O280 2.326 . S
In273 O281 2.266 . S
In273 O282 2.326 . S
In273 O284 2.294 . S
In273 O285 2.326 . S
O274 In273 2.294 . S
O274 C283 1.240 . S
O275 In273 2.326 . S
O275 C283 1.252 . S
C276 O279 1.252 . S
C276 O280 1.260 . S
C277 O284 1.240 . S
C277 O285 1.252 . S
C278 O281 1.252 . S
C278 O282 1.260 . S
O279 In273 2.266 . S
O279 C276 1.252 . S
O280 In273 2.326 . S
O280 C276 1.260 . S
O281 In273 2.266 . S
O281 C278 1.252 . S
O282 In273 2.326 . S
O282 C278 1.260 . S
C283 O274 1.240 . S
C283 O275 1.252 . S
O284 In273 2.294 . S
O284 C277 1.240 . S
O285 In273 2.326 . S
O285 C277 1.252 . S
In286 O287 2.294 . S
In286 O288 2.326 . S
In286 O292 2.266 . S
In286 O293 2.326 . S
In286 O294 2.266 . S
In286 O295 2.326 . S
In286 O297 2.294 . S
In286 O298 2.326 . S
O287 In286 2.294 . S
O287 C296 1.240 . S
O288 In286 2.326 . S
O288 C296 1.252 . S
C289 O292 1.252 . S
C289 O293 1.260 . S
C290 O297 1.240 . S
C290 O298 1.252 . S
C291 O294 1.252 . S
C291 O295 1.260 . S
O292 In286 2.266 . S
O292 C289 1.252 . S
O293 In286 2.326 . S
O293 C289 1.260 . S
O294 In286 2.266 . S
O294 C291 1.252 . S
O295 In286 2.326 . S
O295 C291 1.260 . S
C296 O287 1.240 . S
C296 O288 1.252 . S
O297 In286 2.294 . S
O297 C290 1.240 . S
O298 In286 2.326 . S
O298 C290 1.252 . S
In299 O300 2.294 . S
In299 O301 2.326 . S
In299 O305 2.266 1_655 S
In299 O306 2.326 . S
In299 O307 2.266 . S
In299 O308 2.326 1_655 S
In299 O310 2.294 . S
In299 O311 2.326 . S
O300 In299 2.294 . S
O300 C309 1.240 . S
O301 In299 2.326 . S
O301 C309 1.252 . S
C302 O305 1.252 . S
C302 O306 1.260 1_455 S
C303 O310 1.240 . S
C303 O311 1.252 . S
C304 O307 1.252 . S
C304 O308 1.260 1_655 S
O305 In299 2.266 1_455 S
O305 C302 1.252 . S
O306 In299 2.326 . S
O306 C302 1.260 1_655 S
O307 In299 2.266 . S
O307 C304 1.252 . S
O308 In299 2.326 1_455 S
O308 C304 1.260 1_455 S
C309 O300 1.240 . S
C309 O301 1.252 . S
O310 In299 2.294 . S
O310 C303 1.240 . S
O311 In299 2.326 . S
O311 C303 1.252 . S
In312 O313 2.294 1_565 S
In312 O314 2.326 . S
In312 O318 2.266 1_565 S
In312 O319 2.326 . S
In312 O320 2.266 . S
In312 O321 2.326 . S
In312 O323 2.294 . S
In312 O324 2.326 1_565 S
O313 In312 2.294 1_545 S
O313 C322 1.240 1_545 S
O314 In312 2.326 . S
O314 C322 1.252 . S
C315 O318 1.252 1_565 S
C315 O319 1.260 . S
C316 O323 1.240 . S
C316 O324 1.254 1_565 S
C317 O320 1.252 . S
C317 O321 1.260 . S
O318 In312 2.266 1_545 S
O318 C315 1.252 1_545 S
O319 In312 2.326 . S
O319 C315 1.260 . S
O320 In312 2.266 . S
O320 C317 1.252 . S
O321 In312 2.326 . S
O321 C317 1.260 . S
C322 O313 1.240 1_565 S
C322 O314 1.252 . S
O323 In312 2.294 . S
O323 C316 1.240 . S
O324 In312 2.326 1_545 S
O324 C316 1.254 1_545 S
In325 O326 2.294 . S
In325 O327 2.326 . S
In325 O331 2.266 . S
In325 O332 2.326 . S
In325 O333 2.266 . S
In325 O334 2.326 . S
In325 O336 2.294 . S
In325 O337 2.326 . S
O326 In325 2.294 . S
O326 C335 1.240 . S
O327 In325 2.326 . S
O327 C335 1.252 . S
C328 O331 1.252 . S
C328 O332 1.260 . S
C329 O336 1.240 . S
C329 O337 1.252 . S
C330 O333 1.252 . S
C330 O334 1.260 . S
O331 In325 2.266 . S
O331 C328 1.252 . S
O332 In325 2.326 . S
O332 C328 1.260 . S
O333 In325 2.266 . S
O333 C330 1.252 . S
O334 In325 2.326 . S
O334 C330 1.260 . S
C335 O326 1.240 . S
C335 O327 1.252 . S
O336 In325 2.294 . S
O336 C329 1.240 . S
O337 In325 2.326 . S
O337 C329 1.252 . S
In338 O339 2.294 . S
In338 O340 2.326 . S
In338 O344 2.266 . S
In338 O345 2.326 . S
In338 O346 2.266 . S
In338 O347 2.326 . S
In338 O349 2.294 . S
In338 O350 2.326 . S
O339 In338 2.294 . S
O339 C348 1.240 . S
O340 In338 2.326 . S
O340 C348 1.252 . S
C341 O344 1.252 . S
C341 O345 1.260 . S
C342 O349 1.240 . S
C342 O350 1.252 . S
C343 O346 1.252 . S
C343 O347 1.260 . S
O344 In338 2.266 . S
O344 C341 1.252 . S
O345 In338 2.326 . S
O345 C341 1.260 . S
O346 In338 2.266 . S
O346 C343 1.252 . S
O347 In338 2.326 . S
O347 C343 1.260 . S
C348 O339 1.240 . S
C348 O340 1.252 . S
O349 In338 2.294 . S
O349 C342 1.240 . S
O350 In338 2.326 . S
O350 C342 1.252 . S
In351 O352 2.294 . S
In351 O353 2.326 . S
In351 O357 2.266 . S
In351 O358 2.326 . S
In351 O359 2.266 . S
In351 O360 2.326 . S
In351 O362 2.294 . S
In351 O363 2.326 . S
O352 In351 2.294 . S
O352 C361 1.240 . S
O353 In351 2.326 . S
O353 C361 1.252 . S
C354 O357 1.252 . S
C354 O358 1.260 . S
C355 O362 1.240 . S
C355 O363 1.252 . S
C356 O359 1.252 . S
C356 O360 1.260 . S
O357 In351 2.266 . S
O357 C354 1.252 . S
O358 In351 2.326 . S
O358 C354 1.260 . S
O359 In351 2.266 . S
O359 C356 1.252 . S
O360 In351 2.326 . S
O360 C356 1.260 . S
C361 O352 1.240 . S
C361 O353 1.252 . S
O362 In351 2.294 . S
O362 C355 1.240 . S
O363 In351 2.326 . S
O363 C355 1.252 . S
In364 O365 2.294 . S
In364 O366 2.326 . S
In364 O370 2.266 1_565 S
In364 O371 2.326 . S
In364 O372 2.266 . S
In364 O373 2.326 1_565 S
In364 O375 2.294 . S
In364 O376 2.326 . S
O365 In364 2.294 . S
O365 C374 1.240 . S
O366 In364 2.326 . S
O366 C374 1.252 . S
C367 O370 1.252 . S
C367 O371 1.260 1_545 S
C368 O375 1.240 . S
C368 O376 1.252 . S
C369 O372 1.252 . S
C369 O373 1.260 1_565 S
O370 In364 2.266 1_545 S
O370 C367 1.252 . S
O371 In364 2.326 . S
O371 C367 1.260 1_565 S
O372 In364 2.266 . S
O372 C369 1.252 . S
O373 In364 2.326 1_545 S
O373 C369 1.260 1_545 S
C374 O365 1.240 . S
C374 O366 1.252 . S
O375 In364 2.294 . S
O375 C368 1.240 . S
O376 In364 2.326 . S
O376 C368 1.252 . S
In377 O378 2.294 . S
In377 O379 2.326 . S
In377 O383 2.266 . S
In377 O384 2.326 . S
In377 O385 2.266 . S
In377 O386 2.326 . S
In377 O388 2.294 . S
In377 O389 2.326 . S
O378 In377 2.294 . S
O378 C387 1.240 . S
O379 In377 2.326 . S
O379 C387 1.252 . S
C380 O383 1.252 . S
C380 O384 1.260 . S
C381 O388 1.240 . S
C381 O389 1.252 . S
C382 O385 1.252 . S
C382 O386 1.260 . S
O383 In377 2.266 . S
O383 C380 1.252 . S
O384 In377 2.326 . S
O384 C380 1.260 . S
O385 In377 2.266 . S
O385 C382 1.252 . S
O386 In377 2.326 . S
O386 C382 1.260 . S
C387 O378 1.240 . S
C387 O379 1.252 . S
O388 In377 2.294 . S
O388 C381 1.240 . S
O389 In377 2.326 . S
O389 C381 1.252 . S
In390 O391 2.294 . S
In390 O392 2.326 . S
In390 O396 2.266 . S
In390 O397 2.326 . S
In390 O398 2.266 . S
In390 O399 2.326 . S
In390 O401 2.294 . S
In390 O402 2.326 . S
O391 In390 2.294 . S
O391 C400 1.240 . S
O392 In390 2.326 . S
O392 C400 1.252 . S
C393 O396 1.252 . S
C393 O397 1.260 . S
C394 O401 1.240 . S
C394 O402 1.252 . S
C395 O398 1.252 . S
C395 O399 1.260 . S
O396 In390 2.266 . S
O396 C393 1.252 . S
O397 In390 2.326 . S
O397 C393 1.260 . S
O398 In390 2.266 . S
O398 C395 1.252 . S
O399 In390 2.326 . S
O399 C395 1.260 . S
C400 O391 1.240 . S
C400 O392 1.252 . S
O401 In390 2.294 . S
O401 C394 1.240 . S
O402 In390 2.326 . S
O402 C394 1.252 . S
In403 O404 2.294 . S
In403 O405 2.326 . S
In403 O409 2.266 . S
In403 O410 2.326 1_565 S
In403 O411 2.266 1_565 S
In403 O412 2.326 . S
In403 O414 2.294 . S
In403 O415 2.326 . S
O404 In403 2.294 . S
O404 C413 1.240 . S
O405 In403 2.326 . S
O405 C413 1.252 . S
C406 O409 1.252 . S
C406 O410 1.260 1_565 S
C407 O414 1.240 . S
C407 O415 1.252 . S
C408 O411 1.252 . S
C408 O412 1.260 1_545 S
O409 In403 2.266 . S
O409 C406 1.252 . S
O410 In403 2.326 1_545 S
O410 C406 1.260 1_545 S
O411 In403 2.266 1_545 S
O411 C408 1.252 . S
O412 In403 2.326 . S
O412 C408 1.260 1_565 S
C413 O404 1.240 . S
C413 O405 1.252 . S
O414 In403 2.294 . S
O414 C407 1.240 . S
O415 In403 2.326 . S
O415 C407 1.252 . S
In416 O417 2.294 . S
In416 O418 2.326 . S
In416 O422 2.266 . S
In416 O423 2.326 . S
In416 O424 2.266 . S
In416 O425 2.326 . S
In416 O427 2.294 . S
In416 O428 2.326 . S
O417 In416 2.294 . S
O417 C426 1.240 . S
O418 In416 2.326 . S
O418 C426 1.252 . S
C419 O422 1.252 . S
C419 O423 1.260 . S
C420 O427 1.240 . S
C420 O428 1.252 . S
C421 O424 1.252 . S
C421 O425 1.260 . S
O422 In416 2.266 . S
O422 C419 1.252 . S
O423 In416 2.326 . S
O423 C419 1.260 . S
O424 In416 2.266 . S
O424 C421 1.252 . S
O425 In416 2.326 . S
O425 C421 1.260 . S
C426 O417 1.240 . S
C426 O418 1.252 . S
O427 In416 2.294 . S
O427 C420 1.240 . S
O428 In416 2.326 . S
O428 C420 1.252 . S
In429 O430 2.294 . S
In429 O431 2.326 . S
In429 O435 2.266 . S
In429 O436 2.326 . S
In429 O437 2.266 . S
In429 O438 2.326 . S
In429 O440 2.294 . S
In429 O441 2.326 . S
O430 In429 2.294 . S
O430 C439 1.240 . S
O431 In429 2.326 . S
O431 C439 1.252 . S
C432 O435 1.252 . S
C432 O436 1.260 . S
C433 O440 1.240 . S
C433 O441 1.252 . S
C434 O437 1.252 . S
C434 O438 1.260 . S
O435 In429 2.266 . S
O435 C432 1.252 . S
O436 In429 2.326 . S
O436 C432 1.260 . S
O437 In429 2.266 . S
O437 C434 1.252 . S
O438 In429 2.326 . S
O438 C434 1.260 . S
C439 O430 1.240 . S
C439 O431 1.252 . S
O440 In429 2.294 . S
O440 C433 1.240 . S
O441 In429 2.326 . S
O441 C433 1.252 . S
In442 O443 2.294 . S
In442 O444 2.326 . S
In442 O448 2.266 . S
In442 O449 2.326 . S
In442 O450 2.266 . S
In442 O451 2.326 . S
In442 O453 2.294 . S
In442 O454 2.326 . S
O443 In442 2.294 . S
O443 C452 1.240 . S
O444 In442 2.326 . S
O444 C452 1.252 . S
C445 O448 1.252 . S
C445 O449 1.260 . S
C446 O453 1.240 . S
C446 O454 1.252 . S
C447 O450 1.252 . S
C447 O451 1.260 . S
O448 In442 2.266 . S
O448 C445 1.252 . S
O449 In442 2.326 . S
O449 C445 1.260 . S
O450 In442 2.266 . S
O450 C447 1.252 . S
O451 In442 2.326 . S
O451 C447 1.260 . S
C452 O443 1.240 . S
C452 O444 1.252 . S
O453 In442 2.294 . S
O453 C446 1.240 . S
O454 In442 2.326 . S
O454 C446 1.252 . S
In455 O456 2.294 . S
In455 O457 2.328 1_565 S
In455 O461 2.266 . S
In455 O462 2.326 . S
In455 O463 2.266 1_565 S
In455 O464 2.326 . S
In455 O466 2.294 1_565 S
In455 O467 2.326 . S
O456 In455 2.294 . S
O456 C465 1.240 . S
O457 In455 2.328 1_545 S
O457 C465 1.253 1_545 S
C458 O461 1.252 . S
C458 O462 1.260 . S
C459 O466 1.240 1_565 S
C459 O467 1.252 . S
C460 O463 1.252 1_565 S
C460 O464 1.260 . S
O461 In455 2.266 . S
O461 C458 1.252 . S
O462 In455 2.326 . S
O462 C458 1.260 . S
O463 In455 2.266 1_545 S
O463 C460 1.252 1_545 S
O464 In455 2.326 . S
O464 C460 1.260 . S
C465 O456 1.240 . S
C465 O457 1.253 1_565 S
O466 In455 2.294 1_545 S
O466 C459 1.240 1_545 S
O467 In455 2.326 . S
O467 C459 1.252 . S
C468 C469 1.387 . S
C468 H472 0.950 . S
C468 C477 1.390 . S
C469 C468 1.387 . S
C469 C471 1.387 . S
H470 C477 0.950 . S
C471 C469 1.387 . S
C471 C473 1.390 . S
C471 H475 0.950 . S
H472 C468 0.950 . S
C473 C471 1.390 . S
C473 C474 1.387 . S
C473 H476 0.950 . S
C474 C473 1.387 . S
C474 C477 1.387 . S
H475 C471 0.950 . S
H476 C473 0.950 . S
C477 C468 1.390 . S
C477 H470 0.950 . S
C477 C474 1.387 . S
C478 C479 1.387 . S
C478 H482 0.950 . S
C478 C487 1.390 . S
C479 C478 1.387 . S
C479 C481 1.387 . S
H480 C487 0.950 . S
C481 C479 1.387 . S
C481 C483 1.390 . S
C481 H485 0.950 . S
H482 C478 0.950 . S
C483 C481 1.390 . S
C483 C484 1.387 . S
C483 H486 0.950 . S
C484 C483 1.387 . S
C484 C487 1.387 . S
H485 C481 0.950 . S
H486 C483 0.950 . S
C487 C478 1.390 . S
C487 H480 0.950 . S
C487 C484 1.387 . S
C488 C489 1.387 . S
C488 H492 0.950 . S
C488 C497 1.390 . S
C489 C488 1.387 . S
C489 C491 1.387 . S
H490 C497 0.950 . S
C491 C489 1.387 . S
C491 C493 1.390 . S
C491 H495 0.950 . S
H492 C488 0.950 . S
C493 C491 1.390 . S
C493 C494 1.387 . S
C493 H496 0.950 . S
C494 C493 1.387 . S
C494 C497 1.387 . S
H495 C491 0.950 . S
H496 C493 0.950 . S
C497 C488 1.390 . S
C497 H490 0.950 . S
C497 C494 1.387 . S
C498 C499 1.387 . S
C498 H502 0.950 . S
C498 C507 1.390 . S
C499 C498 1.387 . S
C499 C501 1.387 . S
H500 C507 0.950 . S
C501 C499 1.387 . S
C501 C503 1.390 . S
C501 H505 0.950 . S
H502 C498 0.950 . S
C503 C501 1.390 . S
C503 C504 1.387 . S
C503 H506 0.950 . S
C504 C503 1.387 . S
C504 C507 1.387 . S
H505 C501 0.950 . S
H506 C503 0.950 . S
C507 C498 1.390 . S
C507 H500 0.950 . S
C507 C504 1.387 . S
C508 C509 1.387 . S
C508 H512 0.950 . S
C508 C517 1.390 . S
C509 C508 1.387 . S
C509 C511 1.387 . S
H510 C517 0.950 . S
C511 C509 1.387 . S
C511 C513 1.390 . S
C511 H515 0.950 . S
H512 C508 0.950 . S
C513 C511 1.390 . S
C513 C514 1.387 . S
C513 H516 0.950 . S
C514 C513 1.387 . S
C514 C517 1.387 . S
H515 C511 0.950 . S
H516 C513 0.950 . S
C517 C508 1.390 . S
C517 H510 0.950 . S
C517 C514 1.387 . S
C518 C519 1.387 . S
C518 H522 0.950 . S
C518 C527 1.390 . S
C519 C518 1.387 . S
C519 C521 1.387 . S
H520 C527 0.950 . S
C521 C519 1.387 . S
C521 C523 1.390 . S
C521 H525 0.950 . S
H522 C518 0.950 . S
C523 C521 1.390 . S
C523 C524 1.387 . S
C523 H526 0.950 . S
C524 C523 1.387 . S
C524 C527 1.387 . S
H525 C521 0.950 . S
H526 C523 0.950 . S
C527 C518 1.390 . S
C527 H520 0.950 . S
C527 C524 1.387 . S
C528 C529 1.387 . S
C528 H532 0.950 . S
C528 C537 1.390 . S
C529 C528 1.387 . S
C529 C531 1.387 . S
H530 C537 0.950 . S
C531 C529 1.387 . S
C531 C533 1.390 . S
C531 H535 0.950 . S
H532 C528 0.950 . S
C533 C531 1.390 . S
C533 C534 1.387 . S
C533 H536 0.950 . S
C534 C533 1.387 . S
C534 C537 1.387 . S
H535 C531 0.950 . S
H536 C533 0.950 . S
C537 C528 1.390 . S
C537 H530 0.950 . S
C537 C534 1.387 . S
C538 C539 1.387 . S
C538 H542 0.950 . S
C538 C547 1.390 . S
C539 C538 1.387 . S
C539 C541 1.387 . S
H540 C547 0.950 . S
C541 C539 1.387 . S
C541 C543 1.390 . S
C541 H545 0.950 . S
H542 C538 0.950 . S
C543 C541 1.390 . S
C543 C544 1.387 . S
C543 H546 0.950 . S
C544 C543 1.387 . S
C544 C547 1.387 . S
H545 C541 0.950 . S
H546 C543 0.950 . S
C547 C538 1.390 . S
C547 H540 0.950 . S
C547 C544 1.387 . S
C548 C549 1.387 . S
C548 H552 0.950 . S
C548 C557 1.390 . S
C549 C548 1.387 . S
C549 C551 1.387 . S
H550 C557 0.950 . S
C551 C549 1.387 . S
C551 C553 1.390 . S
C551 H555 0.950 . S
H552 C548 0.950 . S
C553 C551 1.390 . S
C553 C554 1.387 . S
C553 H556 0.950 . S
C554 C553 1.387 . S
C554 C557 1.387 . S
H555 C551 0.950 . S
H556 C553 0.950 . S
C557 C548 1.390 . S
C557 H550 0.950 . S
C557 C554 1.387 . S
C558 C559 1.387 . S
C558 H562 0.950 . S
C558 C567 1.390 . S
C559 C558 1.387 . S
C559 C561 1.387 . S
H560 C567 0.950 . S
C561 C559 1.387 . S
C561 C563 1.390 . S
C561 H565 0.950 . S
H562 C558 0.950 . S
C563 C561 1.390 . S
C563 C564 1.387 . S
C563 H566 0.950 . S
C564 C563 1.387 . S
C564 C567 1.387 . S
H565 C561 0.950 . S
H566 C563 0.950 . S
C567 C558 1.390 . S
C567 H560 0.950 . S
C567 C564 1.387 . S
C568 C569 1.387 . S
C568 H572 0.950 . S
C568 C577 1.390 . S
C569 C568 1.387 . S
C569 C571 1.387 . S
H570 C577 0.950 . S
C571 C569 1.387 . S
C571 C573 1.390 . S
C571 H575 0.950 . S
H572 C568 0.950 . S
C573 C571 1.390 . S
C573 C574 1.387 . S
C573 H576 0.950 . S
C574 C573 1.387 . S
C574 C577 1.387 . S
H575 C571 0.950 . S
H576 C573 0.950 . S
C577 C568 1.390 . S
C577 H570 0.950 . S
C577 C574 1.387 . S
C578 C579 1.387 . S
C578 H582 0.950 . S
C578 C587 1.390 . S
C579 C578 1.387 . S
C579 C581 1.387 . S
H580 C587 0.950 . S
C581 C579 1.387 . S
C581 C583 1.390 . S
C581 H585 0.950 . S
H582 C578 0.950 . S
C583 C581 1.390 . S
C583 C584 1.387 . S
C583 H586 0.950 . S
C584 C583 1.387 . S
C584 C587 1.387 . S
H585 C581 0.950 . S
H586 C583 0.950 . S
C587 C578 1.390 . S
C587 H580 0.950 . S
C587 C584 1.387 . S
C588 C589 1.387 1_545 S
C588 H592 0.950 . S
C588 C597 1.390 . S
C589 C588 1.387 1_565 S
C589 C591 1.387 . S
H590 C597 0.950 . S
C591 C589 1.387 . S
C591 C593 1.390 . S
C591 H595 0.950 . S
H592 C588 0.950 . S
C593 C591 1.390 . S
C593 C594 1.387 . S
C593 H596 0.950 . S
C594 C593 1.387 . S
C594 C597 1.387 1_565 S
H595 C591 0.950 . S
H596 C593 0.950 . S
C597 C588 1.390 . S
C597 H590 0.950 . S
C597 C594 1.387 1_545 S
C598 C599 1.387 . S
C598 H602 0.950 . S
C598 C607 1.390 . S
C599 C598 1.387 . S
C599 C601 1.387 . S
H600 C607 0.950 . S
C601 C599 1.387 . S
C601 C603 1.390 . S
C601 H605 0.950 . S
H602 C598 0.950 . S
C603 C601 1.390 . S
C603 C604 1.387 . S
C603 H606 0.950 . S
C604 C603 1.387 . S
C604 C607 1.387 . S
H605 C601 0.950 . S
H606 C603 0.950 . S
C607 C598 1.390 . S
C607 H600 0.950 . S
C607 C604 1.387 . S
C608 C609 1.387 . S
C608 H612 0.950 . S
C608 C617 1.390 . S
C609 C608 1.387 . S
C609 C611 1.387 . S
H610 C617 0.950 . S
C611 C609 1.387 . S
C611 C613 1.390 . S
C611 H615 0.950 . S
H612 C608 0.950 . S
C613 C611 1.390 . S
C613 C614 1.387 . S
C613 H616 0.950 . S
C614 C613 1.387 . S
C614 C617 1.387 . S
H615 C611 0.950 . S
H616 C613 0.950 . S
C617 C608 1.390 . S
C617 H610 0.950 . S
C617 C614 1.387 . S
C618 C619 1.387 . S
C618 H622 0.950 . S
C618 C627 1.390 . S
C619 C618 1.387 . S
C619 C621 1.387 . S
H620 C627 0.950 . S
C621 C619 1.387 . S
C621 C623 1.390 . S
C621 H625 0.950 . S
H622 C618 0.950 . S
C623 C621 1.390 . S
C623 C624 1.387 . S
C623 H626 0.950 . S
C624 C623 1.387 . S
C624 C627 1.387 . S
H625 C621 0.950 . S
H626 C623 0.950 . S
C627 C618 1.390 . S
C627 H620 0.950 . S
C627 C624 1.387 . S
C628 C629 1.387 . S
C628 H632 0.950 . S
C628 C637 1.390 . S
C629 C628 1.387 . S
C629 C631 1.387 . S
H630 C637 0.950 . S
C631 C629 1.387 . S
C631 C633 1.390 . S
C631 H635 0.950 . S
H632 C628 0.950 . S
C633 C631 1.390 . S
C633 C634 1.387 . S
C633 H636 0.950 . S
C634 C633 1.387 . S
C634 C637 1.387 . S
H635 C631 0.950 . S
H636 C633 0.950 . S
C637 C628 1.390 . S
C637 H630 0.950 . S
C637 C634 1.387 . S
C638 C639 1.387 . S
C638 H642 0.950 . S
C638 C647 1.390 . S
C639 C638 1.387 . S
C639 C641 1.387 . S
H640 C647 0.950 . S
C641 C639 1.387 . S
C641 C643 1.390 . S
C641 H645 0.950 . S
H642 C638 0.950 . S
C643 C641 1.390 . S
C643 C644 1.387 . S
C643 H646 0.950 . S
C644 C643 1.387 . S
C644 C647 1.387 . S
H645 C641 0.950 . S
H646 C643 0.950 . S
C647 C638 1.390 . S
C647 H640 0.950 . S
C647 C644 1.387 . S
C648 C649 1.389 1_655 S
C648 H652 0.946 . S
C648 C657 1.392 . S
C649 C648 1.389 1_455 S
C649 C651 1.387 . S
H650 C657 0.950 . S
C651 C649 1.387 . S
C651 C653 1.390 . S
C651 H655 0.950 . S
H652 C648 0.946 . S
C653 C651 1.390 . S
C653 C654 1.387 1_455 S
C653 H656 0.950 . S
C654 C653 1.387 1_655 S
C654 C657 1.387 . S
H655 C651 0.950 . S
H656 C653 0.950 . S
C657 C648 1.392 . S
C657 H650 0.950 . S
C657 C654 1.387 . S
C658 C659 1.387 . S
C658 H662 0.950 . S
C658 C667 1.390 . S
C659 C658 1.387 . S
C659 C661 1.387 . S
H660 C667 0.950 . S
C661 C659 1.387 . S
C661 C663 1.390 . S
C661 H665 0.950 . S
H662 C658 0.950 . S
C663 C661 1.390 . S
C663 C664 1.387 . S
C663 H666 0.950 . S
C664 C663 1.387 . S
C664 C667 1.387 . S
H665 C661 0.950 . S
H666 C663 0.950 . S
C667 C658 1.390 . S
C667 H660 0.950 . S
C667 C664 1.387 . S
C668 C669 1.387 . S
C668 H672 0.950 . S
C668 C677 1.390 . S
C669 C668 1.387 . S
C669 C671 1.387 . S
H670 C677 0.950 . S
C671 C669 1.387 . S
C671 C673 1.390 . S
C671 H675 0.950 . S
H672 C668 0.950 . S
C673 C671 1.390 . S
C673 C674 1.387 . S
C673 H676 0.950 . S
C674 C673 1.387 . S
C674 C677 1.387 . S
H675 C671 0.950 . S
H676 C673 0.950 . S
C677 C668 1.390 . S
C677 H670 0.950 . S
C677 C674 1.387 . S
C678 C679 1.387 . S
C678 H682 0.950 . S
C678 C687 1.390 . S
C679 C678 1.387 . S
C679 C681 1.387 1_545 S
H680 C687 0.950 . S
C681 C679 1.387 1_565 S
C681 C683 1.390 . S
C681 H685 0.950 . S
H682 C678 0.950 . S
C683 C681 1.390 . S
C683 C684 1.387 . S
C683 H686 0.950 . S
C684 C683 1.387 . S
C684 C687 1.387 1_565 S
H685 C681 0.950 . S
H686 C683 0.950 . S
C687 C678 1.390 . S
C687 H680 0.950 . S
C687 C684 1.387 1_545 S
C688 C689 1.387 . S
C688 H692 0.950 . S
C688 C697 1.390 . S
C689 C688 1.387 . S
C689 C691 1.387 . S
H690 C697 0.950 . S
C691 C689 1.387 . S
C691 C693 1.390 . S
C691 H695 0.950 . S
H692 C688 0.950 . S
C693 C691 1.390 . S
C693 C694 1.387 . S
C693 H696 0.950 . S
C694 C693 1.387 . S
C694 C697 1.387 . S
H695 C691 0.950 . S
H696 C693 0.950 . S
C697 C688 1.390 . S
C697 H690 0.950 . S
C697 C694 1.387 . S
C698 C699 1.387 . S
C698 H702 0.950 . S
C698 C707 1.390 . S
C699 C698 1.387 . S
C699 C701 1.387 . S
H700 C707 0.950 . S
C701 C699 1.387 . S
C701 C703 1.390 . S
C701 H705 0.950 . S
H702 C698 0.950 . S
C703 C701 1.390 . S
C703 C704 1.387 . S
C703 H706 0.950 . S
C704 C703 1.387 . S
C704 C707 1.387 . S
H705 C701 0.950 . S
H706 C703 0.950 . S
C707 C698 1.390 . S
C707 H700 0.950 . S
C707 C704 1.387 . S
C708 C709 1.387 . S
C708 H712 0.950 . S
C708 C717 1.390 . S
C709 C708 1.387 . S
C709 C711 1.387 . S
H710 C717 0.950 . S
C711 C709 1.387 . S
C711 C713 1.390 . S
C711 H715 0.950 . S
H712 C708 0.950 . S
C713 C711 1.390 . S
C713 C714 1.387 . S
C713 H716 0.950 . S
C714 C713 1.387 . S
C714 C717 1.387 . S
H715 C711 0.950 . S
H716 C713 0.950 . S
C717 C708 1.390 . S
C717 H710 0.950 . S
C717 C714 1.387 . S
C718 C719 1.387 . S
C718 H722 0.950 . S
C718 C727 1.390 . S
C719 C718 1.387 . S
C719 C721 1.387 . S
H720 C727 0.950 . S
C721 C719 1.387 . S
C721 C723 1.390 . S
C721 H725 0.950 . S
H722 C718 0.950 . S
C723 C721 1.390 . S
C723 C724 1.387 . S
C723 H726 0.950 . S
C724 C723 1.387 . S
C724 C727 1.387 . S
H725 C721 0.950 . S
H726 C723 0.950 . S
C727 C718 1.390 . S
C727 H720 0.950 . S
C727 C724 1.387 . S
C728 C729 1.387 . S
C728 H732 0.950 . S
C728 C737 1.390 . S
C729 C728 1.387 . S
C729 C731 1.387 1_545 S
H730 C737 0.950 . S
C731 C729 1.387 1_565 S
C731 C733 1.390 . S
C731 H735 0.950 . S
H732 C728 0.950 . S
C733 C731 1.390 . S
C733 C734 1.387 . S
C733 H736 0.950 . S
C734 C733 1.387 . S
C734 C737 1.387 1_565 S
H735 C731 0.950 . S
H736 C733 0.950 . S
C737 C728 1.390 . S
C737 H730 0.950 . S
C737 C734 1.387 1_545 S
C738 C739 1.387 . S
C738 H742 0.950 . S
C738 C747 1.390 . S
C739 C738 1.387 . S
C739 C741 1.387 . S
H740 C747 0.950 . S
C741 C739 1.387 . S
C741 C743 1.390 . S
C741 H745 0.950 . S
H742 C738 0.950 . S
C743 C741 1.390 . S
C743 C744 1.387 . S
C743 H746 0.950 . S
C744 C743 1.387 . S
C744 C747 1.387 . S
H745 C741 0.950 . S
H746 C743 0.950 . S
C747 C738 1.390 . S
C747 H740 0.950 . S
C747 C744 1.387 . S
C748 C749 1.387 1_655 S
C748 H752 0.950 . S
C748 C757 1.390 . S
C749 C748 1.387 1_455 S
C749 C751 1.387 . S
H750 C757 0.950 . S
C751 C749 1.387 . S
C751 C753 1.390 . S
C751 H755 0.950 . S
H752 C748 0.950 . S
C753 C751 1.390 . S
C753 C754 1.387 1_455 S
C753 H756 0.950 . S
C754 C753 1.387 1_655 S
C754 C757 1.387 . S
H755 C751 0.950 . S
H756 C753 0.950 . S
C757 C748 1.390 . S
C757 H750 0.950 . S
C757 C754 1.387 . S
C758 C759 1.387 . S
C758 H762 0.950 . S
C758 C767 1.390 . S
C759 C758 1.387 . S
C759 C761 1.387 . S
H760 C767 0.950 . S
C761 C759 1.387 . S
C761 C763 1.390 . S
C761 H765 0.950 . S
H762 C758 0.950 . S
C763 C761 1.390 . S
C763 C764 1.387 . S
C763 H766 0.950 . S
C764 C763 1.387 . S
C764 C767 1.387 . S
H765 C761 0.950 . S
H766 C763 0.950 . S
C767 C758 1.390 . S
C767 H760 0.950 . S
C767 C764 1.387 . S
C768 C769 1.387 . S
C768 H772 0.950 . S
C768 C777 1.390 . S
C769 C768 1.387 . S
C769 C771 1.387 . S
H770 C777 0.950 . S
C771 C769 1.387 . S
C771 C773 1.390 . S
C771 H775 0.950 . S
H772 C768 0.950 . S
C773 C771 1.390 . S
C773 C774 1.387 . S
C773 H776 0.950 . S
C774 C773 1.387 . S
C774 C777 1.387 . S
H775 C771 0.950 . S
H776 C773 0.950 . S
C777 C768 1.390 . S
C777 H770 0.950 . S
C777 C774 1.387 . S
C778 C779 1.387 . S
C778 H782 0.950 . S
C778 C787 1.390 . S
C779 C778 1.387 . S
C779 C781 1.387 . S
H780 C787 0.950 . S
C781 C779 1.387 . S
C781 C783 1.390 . S
C781 H785 0.950 . S
H782 C778 0.950 . S
C783 C781 1.390 . S
C783 C784 1.387 . S
C783 H786 0.950 . S
C784 C783 1.387 . S
C784 C787 1.387 . S
H785 C781 0.950 . S
H786 C783 0.950 . S
C787 C778 1.390 . S
C787 H780 0.950 . S
C787 C784 1.387 . S
C788 C789 1.387 1_655 S
C788 H792 0.950 . S
C788 C797 1.390 1_655 S
C789 C788 1.387 1_455 S
C789 C791 1.387 . S
H790 C797 0.950 1_655 S
C791 C789 1.387 . S
C791 C793 1.390 . S
C791 H795 0.950 . S
H792 C788 0.950 . S
C793 C791 1.390 . S
C793 C794 1.387 . S
C793 H796 0.950 . S
C794 C793 1.387 . S
C794 C797 1.387 . S
H795 C791 0.950 . S
H796 C793 0.950 . S
C797 C788 1.390 1_455 S
C797 H790 0.950 1_455 S
C797 C794 1.387 . S
C798 C799 1.387 . S
C798 H802 0.950 . S
C798 C807 1.390 . S
C799 C798 1.387 . S
C799 C801 1.387 . S
H800 C807 0.950 . S
C801 C799 1.387 . S
C801 C803 1.390 . S
C801 H805 0.950 . S
H802 C798 0.950 . S
C803 C801 1.390 . S
C803 C804 1.387 . S
C803 H806 0.950 . S
C804 C803 1.387 . S
C804 C807 1.387 . S
H805 C801 0.950 . S
H806 C803 0.950 . S
C807 C798 1.390 . S
C807 H800 0.950 . S
C807 C804 1.387 . S
C808 C809 1.387 . S
C808 H812 0.950 . S
C808 C817 1.390 . S
C809 C808 1.387 . S
C809 C811 1.387 . S
H810 C817 0.950 . S
C811 C809 1.387 . S
C811 C813 1.390 . S
C811 H815 0.950 . S
H812 C808 0.950 . S
C813 C811 1.390 . S
C813 C814 1.387 . S
C813 H816 0.950 . S
C814 C813 1.387 . S
C814 C817 1.387 . S
H815 C811 0.950 . S
H816 C813 0.950 . S
C817 C808 1.390 . S
C817 H810 0.950 . S
C817 C814 1.387 . S
C818 C819 1.387 . S
C818 H822 0.950 . S
C818 C827 1.390 . S
C819 C818 1.387 . S
C819 C821 1.387 . S
H820 C827 0.950 . S
C821 C819 1.387 . S
C821 C823 1.390 . S
C821 H825 0.950 . S
H822 C818 0.950 . S
C823 C821 1.390 . S
C823 C824 1.387 . S
C823 H826 0.950 . S
C824 C823 1.387 . S
C824 C827 1.387 . S
H825 C821 0.950 . S
H826 C823 0.950 . S
C827 C818 1.390 . S
C827 H820 0.950 . S
C827 C824 1.387 . S
C828 C829 1.387 . S
C828 H832 0.950 . S
C828 C837 1.390 1_554 S
C829 C828 1.387 . S
C829 C831 1.387 . S
H830 C837 0.950 1_655 S
C831 C829 1.387 . S
C831 C833 1.390 1_554 S
C831 H835 0.950 . S
H832 C828 0.950 . S
C833 C831 1.390 1_556 S
C833 C834 1.387 . S
C833 H836 0.950 . S
C834 C833 1.387 . S
C834 C837 1.387 . S
H835 C831 0.950 . S
H836 C833 0.950 . S
C837 C828 1.390 1_556 S
C837 H830 0.950 1_455 S
C837 C834 1.387 . S
C838 C839 1.387 . S
C838 H842 0.950 . S
C838 C847 1.390 1_556 S
C839 C838 1.387 . S
C839 C841 1.387 . S
H840 C847 0.950 . S
C841 C839 1.387 . S
C841 C843 1.390 1_556 S
C841 H845 0.950 . S
H842 C838 0.950 . S
C843 C841 1.390 1_554 S
C843 C844 1.387 . S
C843 H846 0.950 . S
C844 C843 1.387 . S
C844 C847 1.387 . S
H845 C841 0.950 . S
H846 C843 0.950 . S
C847 C838 1.390 1_554 S
C847 H840 0.950 . S
C847 C844 1.387 . S
C848 C849 1.387 . S
C848 H852 0.950 . S
C848 C857 1.390 1_556 S
C849 C848 1.387 . S
C849 C851 1.387 . S
H850 C857 0.950 . S
C851 C849 1.387 . S
C851 C853 1.390 1_556 S
C851 H855 0.950 . S
H852 C848 0.950 . S
C853 C851 1.390 1_554 S
C853 C854 1.387 . S
C853 H856 0.950 . S
C854 C853 1.387 . S
C854 C857 1.387 . S
H855 C851 0.950 . S
H856 C853 0.950 . S
C857 C848 1.390 1_554 S
C857 H850 0.950 . S
C857 C854 1.387 . S
C858 C859 1.387 . S
C858 H862 0.950 . S
C858 C867 1.390 1_556 S
C859 C858 1.387 . S
C859 C861 1.387 . S
H860 C867 0.950 . S
C861 C859 1.387 . S
C861 C863 1.390 1_556 S
C861 H865 0.950 . S
H862 C858 0.950 . S
C863 C861 1.390 1_554 S
C863 C864 1.387 . S
C863 H866 0.950 . S
C864 C863 1.387 . S
C864 C867 1.387 . S
H865 C861 0.950 . S
H866 C863 0.950 . S
C867 C858 1.390 1_554 S
C867 H860 0.950 . S
C867 C864 1.387 . S
C868 C869 1.387 . S
C868 H872 0.950 . S
C868 C877 1.390 1_554 S
C869 C868 1.387 . S
C869 C871 1.387 . S
H870 C877 0.950 . S
C871 C869 1.387 . S
C871 C873 1.390 1_554 S
C871 H875 0.950 . S
H872 C868 0.950 . S
C873 C871 1.390 1_556 S
C873 C874 1.387 . S
C873 H876 0.950 . S
C874 C873 1.387 . S
C874 C877 1.387 . S
H875 C871 0.950 . S
H876 C873 0.950 . S
C877 C868 1.390 1_556 S
C877 H870 0.950 . S
C877 C874 1.387 . S
C878 C879 1.387 . S
C878 H882 0.950 . S
C878 C887 1.390 1_556 S
C879 C878 1.387 . S
C879 C881 1.387 . S
H880 C887 0.950 . S
C881 C879 1.387 . S
C881 C883 1.390 1_556 S
C881 H885 0.950 . S
H882 C878 0.950 . S
C883 C881 1.390 1_554 S
C883 C884 1.387 . S
C883 H886 0.950 . S
C884 C883 1.387 . S
C884 C887 1.387 . S
H885 C881 0.950 . S
H886 C883 0.950 . S
C887 C878 1.390 1_554 S
C887 H880 0.950 . S
C887 C884 1.387 . S
C888 C889 1.387 . S
C888 H892 0.950 . S
C888 C897 1.390 . S
C889 C888 1.387 . S
C889 C891 1.387 . S
H890 C897 0.950 . S
C891 C889 1.387 . S
C891 C893 1.390 . S
C891 H895 0.950 . S
H892 C888 0.950 . S
C893 C891 1.390 . S
C893 C894 1.387 . S
C893 H896 0.950 . S
C894 C893 1.387 . S
C894 C897 1.387 . S
H895 C891 0.950 . S
H896 C893 0.950 . S
C897 C888 1.390 . S
C897 H890 0.950 . S
C897 C894 1.387 . S
C898 C899 1.387 . S
C898 H902 0.950 . S
C898 C907 1.390 . S
C899 C898 1.387 . S
C899 C901 1.387 . S
H900 C907 0.950 . S
C901 C899 1.387 . S
C901 C903 1.390 . S
C901 H905 0.950 . S
H902 C898 0.950 . S
C903 C901 1.390 . S
C903 C904 1.387 . S
C903 H906 0.950 . S
C904 C903 1.387 . S
C904 C907 1.387 . S
H905 C901 0.950 . S
H906 C903 0.950 . S
C907 C898 1.390 . S
C907 H900 0.950 . S
C907 C904 1.387 . S
C908 C909 1.387 1_455 S
C908 H912 0.950 . S
C908 C917 1.390 . S
C909 C908 1.387 1_655 S
C909 C911 1.387 . S
H910 C917 0.950 . S
C911 C909 1.387 . S
C911 C913 1.390 . S
C911 H915 0.950 . S
H912 C908 0.950 . S
C913 C911 1.390 . S
C913 C914 1.387 . S
C913 H916 0.950 . S
C914 C913 1.387 . S
C914 C917 1.387 1_655 S
H915 C911 0.950 . S
H916 C913 0.950 . S
C917 C908 1.390 . S
C917 H910 0.950 . S
C917 C914 1.387 1_455 S
C918 C919 1.387 . S
C918 H922 0.950 . S
C918 C927 1.390 . S
C919 C918 1.387 . S
C919 C921 1.387 . S
H920 C927 0.950 . S
C921 C919 1.387 . S
C921 C923 1.390 . S
C921 H925 0.950 . S
H922 C918 0.950 . S
C923 C921 1.390 . S
C923 C924 1.387 . S
C923 H926 0.950 . S
C924 C923 1.387 . S
C924 C927 1.387 . S
H925 C921 0.950 . S
H926 C923 0.950 . S
C927 C918 1.390 . S
C927 H920 0.950 . S
C927 C924 1.387 . S
C928 C929 1.387 . S
C928 H932 0.950 . S
C928 C937 1.390 . S
C929 C928 1.387 . S
C929 C931 1.387 1_655 S
H930 C937 0.950 . S
C931 C929 1.387 1_455 S
C931 C933 1.390 . S
C931 H935 0.950 . S
H932 C928 0.950 . S
C933 C931 1.390 . S
C933 C934 1.387 1_455 S
C933 H936 0.950 . S
C934 C933 1.387 1_655 S
C934 C937 1.387 . S
H935 C931 0.950 . S
H936 C933 0.950 . S
C937 C928 1.390 . S
C937 H930 0.950 . S
C937 C934 1.387 . S
C938 C939 1.387 . S
C938 H942 0.950 . S
C938 C947 1.390 . S
C939 C938 1.387 . S
C939 C941 1.387 . S
H940 C947 0.950 . S
C941 C939 1.387 . S
C941 C943 1.390 . S
C941 H945 0.950 . S
H942 C938 0.950 . S
C943 C941 1.390 . S
C943 C944 1.387 . S
C943 H946 0.950 . S
C944 C943 1.387 . S
C944 C947 1.387 . S
H945 C941 0.950 . S
H946 C943 0.950 . S
C947 C938 1.390 . S
C947 H940 0.950 . S
C947 C944 1.387 . S
C948 C949 1.387 1_545 S
C948 H952 0.950 . S
C948 C957 1.390 . S
C949 C948 1.387 1_565 S
C949 C951 1.387 . S
H950 C957 0.950 . S
C951 C949 1.387 . S
C951 C953 1.390 . S
C951 H955 0.950 . S
H952 C948 0.950 . S
C953 C951 1.390 . S
C953 C954 1.387 . S
C953 H956 0.950 . S
C954 C953 1.387 . S
C954 C957 1.387 1_565 S
H955 C951 0.950 . S
H956 C953 0.950 . S
C957 C948 1.390 . S
C957 H950 0.950 . S
C957 C954 1.387 1_545 S
C958 C959 1.387 . S
C958 H962 0.950 . S
C958 C967 1.390 . S
C959 C958 1.387 . S
C959 C961 1.387 . S
H960 C967 0.950 . S
C961 C959 1.387 . S
C961 C963 1.390 . S
C961 H965 0.950 . S
H962 C958 0.950 . S
C963 C961 1.390 . S
C963 C964 1.387 . S
C963 H966 0.950 . S
C964 C963 1.387 . S
C964 C967 1.387 . S
H965 C961 0.950 . S
H966 C963 0.950 . S
C967 C958 1.390 . S
C967 H960 0.950 . S
C967 C964 1.387 . S
C968 C969 1.387 . S
C968 H972 0.950 . S
C968 C977 1.390 . S
C969 C968 1.387 . S
C969 C971 1.387 . S
H970 C977 0.950 . S
C971 C969 1.387 . S
C971 C973 1.390 . S
C971 H975 0.950 . S
H972 C968 0.950 . S
C973 C971 1.390 . S
C973 C974 1.387 . S
C973 H976 0.950 . S
C974 C973 1.387 . S
C974 C977 1.387 . S
H975 C971 0.950 . S
H976 C973 0.950 . S
C977 C968 1.390 . S
C977 H970 0.950 . S
C977 C974 1.387 . S
C978 C979 1.387 . S
C978 H982 0.950 . S
C978 C987 1.390 . S
C979 C978 1.387 . S
C979 C981 1.387 . S
H980 C987 0.950 . S
C981 C979 1.387 . S
C981 C983 1.390 . S
C981 H985 0.950 . S
H982 C978 0.950 . S
C983 C981 1.390 . S
C983 C984 1.387 . S
C983 H986 0.950 . S
C984 C983 1.387 . S
C984 C987 1.387 . S
H985 C981 0.950 . S
H986 C983 0.950 . S
C987 C978 1.390 . S
C987 H980 0.950 . S
C987 C984 1.387 . S
C988 C989 1.387 . S
C988 H992 0.950 . S
C988 C997 1.390 . S
C989 C988 1.387 . S
C989 C991 1.387 . S
H990 C997 0.950 . S
C991 C989 1.387 . S
C991 C993 1.390 . S
C991 H995 0.950 . S
H992 C988 0.950 . S
C993 C991 1.390 . S
C993 C994 1.387 . S
C993 H996 0.950 . S
C994 C993 1.387 . S
C994 C997 1.387 . S
H995 C991 0.950 . S
H996 C993 0.950 . S
C997 C988 1.390 . S
C997 H990 0.950 . S
C997 C994 1.387 . S
C998 C999 1.387 . S
C998 H1002 0.950 . S
C998 C1007 1.390 . S
C999 C998 1.387 . S
C999 C1001 1.387 . S
H1000 C1007 0.950 . S
C1001 C999 1.387 . S
C1001 C1003 1.390 . S
C1001 H1005 0.950 . S
H1002 C998 0.950 . S
C1003 C1001 1.390 . S
C1003 C1004 1.387 . S
C1003 H1006 0.950 . S
C1004 C1003 1.387 . S
C1004 C1007 1.387 . S
H1005 C1001 0.950 . S
H1006 C1003 0.950 . S
C1007 C998 1.390 . S
C1007 H1000 0.950 . S
C1007 C1004 1.387 . S
C1008 C1009 1.387 . S
C1008 H1012 0.950 . S
C1008 C1017 1.390 . S
C1009 C1008 1.387 . S
C1009 C1011 1.387 . S
H1010 C1017 0.950 . S
C1011 C1009 1.387 . S
C1011 C1013 1.390 . S
C1011 H1015 0.950 . S
H1012 C1008 0.950 . S
C1013 C1011 1.390 . S
C1013 C1014 1.387 . S
C1013 H1016 0.950 . S
C1014 C1013 1.387 . S
C1014 C1017 1.387 . S
H1015 C1011 0.950 . S
H1016 C1013 0.950 . S
C1017 C1008 1.390 . S
C1017 H1010 0.950 . S
C1017 C1014 1.387 . S
C1018 C1019 1.387 . S
C1018 H1022 0.950 . S
C1018 C1027 1.390 . S
C1019 C1018 1.387 . S
C1019 C1021 1.387 . S
H1020 C1027 0.950 . S
C1021 C1019 1.387 . S
C1021 C1023 1.390 . S
C1021 H1025 0.950 . S
H1022 C1018 0.950 . S
C1023 C1021 1.390 . S
C1023 C1024 1.387 . S
C1023 H1026 0.950 . S
C1024 C1023 1.387 . S
C1024 C1027 1.387 . S
H1025 C1021 0.950 . S
H1026 C1023 0.950 . S
C1027 C1018 1.390 . S
C1027 H1020 0.950 . S
C1027 C1024 1.387 . S
C1028 C1029 1.387 . S
C1028 H1032 0.950 . S
C1028 C1037 1.390 . S
C1029 C1028 1.387 . S
C1029 C1031 1.387 . S
H1030 C1037 0.950 . S
C1031 C1029 1.387 . S
C1031 C1033 1.390 . S
C1031 H1035 0.950 . S
H1032 C1028 0.950 . S
C1033 C1031 1.390 . S
C1033 C1034 1.387 . S
C1033 H1036 0.950 . S
C1034 C1033 1.387 . S
C1034 C1037 1.387 . S
H1035 C1031 0.950 . S
H1036 C1033 0.950 . S
C1037 C1028 1.390 . S
C1037 H1030 0.950 . S
C1037 C1034 1.387 . S
C1038 C1039 1.387 . S
C1038 H1042 0.950 . S
C1038 C1047 1.390 . S
C1039 C1038 1.387 . S
C1039 C1041 1.387 . S
H1040 C1047 0.950 . S
C1041 C1039 1.387 . S
C1041 C1043 1.390 . S
C1041 H1045 0.950 . S
H1042 C1038 0.950 . S
C1043 C1041 1.390 . S
C1043 C1044 1.387 . S
C1043 H1046 0.950 . S
C1044 C1043 1.387 . S
C1044 C1047 1.387 . S
H1045 C1041 0.950 . S
H1046 C1043 0.950 . S
C1047 C1038 1.390 . S
C1047 H1040 0.950 . S
C1047 C1044 1.387 . S
C1048 C1049 1.387 . S
C1048 H1052 0.950 . S
C1048 C1057 1.390 . S
C1049 C1048 1.387 . S
C1049 C1051 1.387 . S
H1050 C1057 0.950 . S
C1051 C1049 1.387 . S
C1051 C1053 1.390 . S
C1051 H1055 0.950 . S
H1052 C1048 0.950 . S
C1053 C1051 1.390 . S
C1053 C1054 1.387 . S
C1053 H1056 0.950 . S
C1054 C1053 1.387 . S
C1054 C1057 1.387 . S
H1055 C1051 0.950 . S
H1056 C1053 0.950 . S
C1057 C1048 1.390 . S
C1057 H1050 0.950 . S
C1057 C1054 1.387 . S
C1058 C1059 1.387 . S
C1058 H1062 0.950 . S
C1058 C1067 1.390 . S
C1059 C1058 1.387 . S
C1059 C1061 1.387 . S
H1060 C1067 0.950 . S
C1061 C1059 1.387 . S
C1061 C1063 1.390 . S
C1061 H1065 0.950 . S
H1062 C1058 0.950 . S
C1063 C1061 1.390 . S
C1063 C1064 1.387 . S
C1063 H1066 0.950 . S
C1064 C1063 1.387 . S
C1064 C1067 1.387 . S
H1065 C1061 0.950 . S
H1066 C1063 0.950 . S
C1067 C1058 1.390 . S
C1067 H1060 0.950 . S
C1067 C1064 1.387 . S
C1068 C1069 1.387 . S
C1068 H1072 0.950 . S
C1068 C1077 1.390 . S
C1069 C1068 1.387 . S
C1069 C1071 1.387 . S
H1070 C1077 0.950 . S
C1071 C1069 1.387 . S
C1071 C1073 1.390 . S
C1071 H1075 0.950 . S
H1072 C1068 0.950 . S
C1073 C1071 1.390 . S
C1073 C1074 1.387 . S
C1073 H1076 0.950 . S
C1074 C1073 1.387 . S
C1074 C1077 1.387 . S
H1075 C1071 0.950 . S
H1076 C1073 0.950 . S
C1077 C1068 1.390 . S
C1077 H1070 0.950 . S
C1077 C1074 1.387 . S
C1078 C1079 1.387 . S
C1078 H1082 0.950 . S
C1078 C1087 1.390 . S
C1079 C1078 1.387 . S
C1079 C1081 1.387 . S
H1080 C1087 0.950 . S
C1081 C1079 1.387 . S
C1081 C1083 1.390 . S
C1081 H1085 0.950 . S
H1082 C1078 0.950 . S
C1083 C1081 1.390 . S
C1083 C1084 1.387 . S
C1083 H1086 0.950 . S
C1084 C1083 1.387 . S
C1084 C1087 1.387 . S
H1085 C1081 0.950 . S
H1086 C1083 0.950 . S
C1087 C1078 1.390 . S
C1087 H1080 0.950 . S
C1087 C1084 1.387 . S
C1088 C1089 1.387 . S
C1088 H1092 0.950 . S
C1088 C1097 1.390 . S
C1089 C1088 1.387 . S
C1089 C1091 1.387 . S
H1090 C1097 0.950 . S
C1091 C1089 1.387 . S
C1091 C1093 1.390 . S
C1091 H1095 0.950 . S
H1092 C1088 0.950 . S
C1093 C1091 1.390 . S
C1093 C1094 1.387 . S
C1093 H1096 0.950 . S
C1094 C1093 1.387 . S
C1094 C1097 1.387 . S
H1095 C1091 0.950 . S
H1096 C1093 0.950 . S
C1097 C1088 1.390 . S
C1097 H1090 0.950 . S
C1097 C1094 1.387 . S
C1098 C1099 1.387 . S
C1098 H1102 0.950 . S
C1098 C1107 1.390 . S
C1099 C1098 1.387 . S
C1099 C1101 1.387 . S
H1100 C1107 0.950 . S
C1101 C1099 1.387 . S
C1101 C1103 1.390 . S
C1101 H1105 0.950 . S
H1102 C1098 0.950 . S
C1103 C1101 1.390 . S
C1103 C1104 1.387 . S
C1103 H1106 0.950 . S
C1104 C1103 1.387 . S
C1104 C1107 1.387 . S
H1105 C1101 0.950 . S
H1106 C1103 0.950 . S
C1107 C1098 1.390 . S
C1107 H1100 0.950 . S
C1107 C1104 1.387 . S
C1108 C1109 1.387 . S
C1108 H1112 0.950 . S
C1108 C1117 1.390 . S
C1109 C1108 1.387 . S
C1109 C1111 1.387 . S
H1110 C1117 0.950 . S
C1111 C1109 1.387 . S
C1111 C1113 1.390 . S
C1111 H1115 0.950 . S
H1112 C1108 0.950 . S
C1113 C1111 1.390 . S
C1113 C1114 1.387 . S
C1113 H1116 0.950 . S
C1114 C1113 1.387 . S
C1114 C1117 1.387 . S
H1115 C1111 0.950 . S
H1116 C1113 0.950 . S
C1117 C1108 1.390 . S
C1117 H1110 0.950 . S
C1117 C1114 1.387 . S
C1118 C1119 1.387 . S
C1118 H1122 0.950 . S
C1118 C1127 1.390 . S
C1119 C1118 1.387 . S
C1119 C1121 1.387 . S
H1120 C1127 0.950 . S
C1121 C1119 1.387 . S
C1121 C1123 1.390 . S
C1121 H1125 0.950 . S
H1122 C1118 0.950 . S
C1123 C1121 1.390 . S
C1123 C1124 1.387 . S
C1123 H1126 0.950 . S
C1124 C1123 1.387 . S
C1124 C1127 1.387 . S
H1125 C1121 0.950 . S
H1126 C1123 0.950 . S
C1127 C1118 1.390 . S
C1127 H1120 0.950 . S
C1127 C1124 1.387 . S
C1128 C1129 1.387 . S
C1128 H1132 0.950 . S
C1128 C1137 1.390 . S
C1129 C1128 1.387 . S
C1129 C1131 1.387 . S
H1130 C1137 0.950 . S
C1131 C1129 1.387 . S
C1131 C1133 1.390 . S
C1131 H1135 0.950 . S
H1132 C1128 0.950 . S
C1133 C1131 1.390 . S
C1133 C1134 1.387 . S
C1133 H1136 0.950 . S
C1134 C1133 1.387 . S
C1134 C1137 1.387 . S
H1135 C1131 0.950 . S
H1136 C1133 0.950 . S
C1137 C1128 1.390 . S
C1137 H1130 0.950 . S
C1137 C1134 1.387 . S
C1138 C1139 1.387 . S
C1138 H1142 0.950 . S
C1138 C1147 1.390 . S
C1139 C1138 1.387 . S
C1139 C1141 1.387 . S
H1140 C1147 0.950 . S
C1141 C1139 1.387 . S
C1141 C1143 1.390 . S
C1141 H1145 0.950 . S
H1142 C1138 0.950 . S
C1143 C1141 1.390 . S
C1143 C1144 1.387 . S
C1143 H1146 0.950 . S
C1144 C1143 1.387 . S
C1144 C1147 1.387 . S
H1145 C1141 0.950 . S
H1146 C1143 0.950 . S
C1147 C1138 1.390 . S
C1147 H1140 0.950 . S
C1147 C1144 1.387 . S
C1148 C1149 1.387 . S
C1148 H1152 0.950 . S
C1148 C1157 1.390 . S
C1149 C1148 1.387 . S
C1149 C1151 1.387 . S
H1150 C1157 0.950 . S
C1151 C1149 1.387 . S
C1151 C1153 1.390 . S
C1151 H1155 0.950 . S
H1152 C1148 0.950 . S
C1153 C1151 1.390 . S
C1153 C1154 1.387 . S
C1153 H1156 0.950 . S
C1154 C1153 1.387 . S
C1154 C1157 1.387 . S
H1155 C1151 0.950 . S
H1156 C1153 0.950 . S
C1157 C1148 1.390 . S
C1157 H1150 0.950 . S
C1157 C1154 1.387 . S
C1158 C1159 1.387 . S
C1158 H1162 0.950 . S
C1158 C1167 1.390 . S
C1159 C1158 1.387 . S
C1159 C1161 1.387 . S
H1160 C1167 0.950 . S
C1161 C1159 1.387 . S
C1161 C1163 1.390 . S
C1161 H1165 0.950 . S
H1162 C1158 0.950 . S
C1163 C1161 1.390 . S
C1163 C1164 1.387 . S
C1163 H1166 0.950 . S
C1164 C1163 1.387 . S
C1164 C1167 1.387 . S
H1165 C1161 0.950 . S
H1166 C1163 0.950 . S
C1167 C1158 1.390 . S
C1167 H1160 0.950 . S
C1167 C1164 1.387 . S
C1168 C1169 1.387 . S
C1168 H1172 0.950 . S
C1168 C1177 1.390 . S
C1169 C1168 1.387 . S
C1169 C1171 1.387 1_565 S
H1170 C1177 0.950 . S
C1171 C1169 1.387 1_545 S
C1171 C1173 1.390 . S
C1171 H1175 0.950 . S
H1172 C1168 0.950 . S
C1173 C1171 1.390 . S
C1173 C1174 1.387 1_545 S
C1173 H1176 0.950 . S
C1174 C1173 1.387 1_565 S
C1174 C1177 1.387 . S
H1175 C1171 0.950 . S
H1176 C1173 0.950 . S
C1177 C1168 1.390 . S
C1177 H1170 0.950 . S
C1177 C1174 1.387 . S
C1178 C1179 1.387 . S
C1178 H1182 0.950 . S
C1178 C1187 1.390 . S
C1179 C1178 1.387 . S
C1179 C1181 1.387 . S
H1180 C1187 0.950 . S
C1181 C1179 1.387 . S
C1181 C1183 1.390 . S
C1181 H1185 0.950 . S
H1182 C1178 0.950 . S
C1183 C1181 1.390 . S
C1183 C1184 1.387 . S
C1183 H1186 0.950 . S
C1184 C1183 1.387 . S
C1184 C1187 1.387 . S
H1185 C1181 0.950 . S
H1186 C1183 0.950 . S
C1187 C1178 1.390 . S
C1187 H1180 0.950 . S
C1187 C1184 1.387 . S
C469 C4 1.804 . S
C474 C153 1.804 . S
C479 C127 1.805 . S
C484 C17 1.804 . S
C489 C134 1.805 . S
C494 C30 1.804 . S
C499 C49 1.805 . S
C504 C95 1.804 . S
C509 C56 1.805 . S
C514 C108 1.804 . S
C519 C69 1.805 . S
C524 C88 1.804 . S
C529 C160 1.804 . S
C534 C303 1.805 . S
C539 C277 1.805 . S
C544 C173 1.804 . S
C549 C186 1.804 . S
C554 C290 1.805 . S
C559 C205 1.805 . S
C564 C257 1.804 . S
C569 C218 1.804 . S
C574 C264 1.805 . S
C579 C225 1.804 . S
C584 C244 1.805 . S
C589 C316 1.804 . S
C594 C465 1.804 . S
C599 C329 1.805 . S
C604 C433 1.804 . S
C609 C452 1.805 . S
C614 C342 1.804 . S
C619 C361 1.804 . S
C624 C413 1.805 . S
C629 C420 1.805 . S
C634 C368 1.804 . S
C639 C400 1.804 . S
C644 C381 1.805 . S
C649 C3 1.357 . S
C654 C200 1.357 . S
C659 C16 1.358 . S
C664 C213 1.358 . S
C669 C29 1.356 . S
C674 C224 1.357 . S
C679 C44 1.355 . S
C684 C315 1.356 . S
C689 C328 1.358 . S
C694 C55 1.358 . S
C699 C341 1.358 . S
C704 C68 1.357 . S
C709 C83 1.356 . S
C714 C432 1.355 . S
C719 C447 1.355 . S
C724 C94 1.355 . S
C729 C107 1.358 . S
C734 C460 1.357 . S
C739 C122 1.357 . S
C744 C239 1.357 . S
C749 C133 1.356 . S
C754 C252 1.356 . S
C759 C148 1.356 . S
C764 C263 1.355 . S
C769 C356 1.358 . S
C774 C159 1.357 . S
C779 C172 1.355 . S
C784 C367 1.355 . S
C789 C185 1.356 . S
C794 C380 1.357 . S
C799 C395 1.357 . S
C804 C276 1.357 . S
C809 C408 1.358 . S
C814 C289 1.358 . S
C819 C302 1.356 . S
C824 C419 1.355 . S
C829 C10 1.456 . S
C834 C62 1.457 . S
C839 C75 1.456 . S
C844 C23 1.456 . S
C849 C43 1.456 . S
C854 C36 1.456 . S
C859 C82 1.456 . S
C864 C140 1.456 . S
C869 C147 1.456 . S
C874 C101 1.456 . S
C879 C114 1.455 . S
C884 C121 1.455 . S
C889 C212 1.455 . S
C894 C166 1.455 . S
C899 C179 1.455 . S
C904 C231 1.455 . S
C909 C192 1.455 . S
C914 C199 1.455 . S
C919 C296 1.455 . S
C924 C238 1.455 . S
C929 C309 1.454 . S
C934 C251 1.455 . S
C939 C283 1.455 . S
C944 C270 1.455 . S
C949 C322 1.455 . S
C954 C374 1.455 . S
C959 C335 1.454 . S
C964 C387 1.455 . S
C969 C348 1.455 . S
C974 C355 1.455 . S
C979 C446 1.456 . S
C984 C394 1.455 . S
C989 C459 1.454 . S
C994 C407 1.456 . S
C999 C439 1.456 . S
C1004 C426 1.456 . S
C1009 C120 1.520 . S
C1014 C5 1.520 . S
C1019 C135 1.520 . S
C1024 C18 1.520 . S
C1029 C31 1.520 . S
C1034 C146 1.520 . S
C1039 C42 1.520 . S
C1044 C81 1.520 . S
C1049 C96 1.520 . S
C1054 C57 1.520 . S
C1059 C70 1.520 . S
C1064 C109 1.520 . S
C1069 C278 1.520 . S
C1074 C161 1.520 . S
C1079 C291 1.520 . S
C1084 C174 1.520 . S
C1089 C187 1.520 . S
C1094 C304 1.520 . S
C1099 C237 1.520 . S
C1104 C198 1.520 . S
C1109 C250 1.520 . S
C1114 C211 1.520 . S
C1119 C265 1.520 . S
C1124 C226 1.520 . S
C1129 C317 1.520 . S
C1134 C434 1.520 . S
C1139 C445 1.520 . S
C1144 C330 1.520 . S
C1149 C343 1.520 . S
C1154 C458 1.520 . S
C1159 C354 1.520 . S
C1164 C393 1.520 . S
C1169 C369 1.520 . S
C1174 C406 1.520 . S
C1179 C421 1.520 . S
C1184 C382 1.520 . S
