# Generated by pormake.
# Topology vbm, (6)-cn, num edge types: 1
# Building blocks:
#     Node 0, Type 0, BuildingBlock: BETFEN_clean_sbu_0, # of connection points: 6
#     Node 1, Type 0, BuildingBlock: BETFEN_clean_sbu_0, # of connection points: 6
#     Node 2, Type 0, BuildingBlock: BETFEN_clean_sbu_0, # of connection points: 6
#     Node 3, Type 0, BuildingBlock: BETFEN_clean_sbu_0, # of connection points: 6
#     Node 4, Type 0, BuildingBlock: BETFEN_clean_sbu_0, # of connection points: 6
#     Node 5, Type 0, BuildingBlock: BETFEN_clean_sbu_0, # of connection points: 6
#     Node 6, Type 0, BuildingBlock: BETFEN_clean_sbu_0, # of connection points: 6
#     Node 7, Type 0, BuildingBlock: BETFEN_clean_sbu_0, # of connection points: 6
#     Node 8, Type 0, BuildingBlock: BETFEN_clean_sbu_0, # of connection points: 6
#     Node 9, Type 0, BuildingBlock: BETFEN_clean_sbu_0, # of connection points: 6
#     Node 10, Type 0, BuildingBlock: BETFEN_clean_sbu_0, # of connection points: 6
#     Node 11, Type 0, BuildingBlock: BETFEN_clean_sbu_0, # of connection points: 6
#     Node 12, Type 0, BuildingBlock: BETFEN_clean_sbu_0, # of connection points: 6
#     Node 13, Type 0, BuildingBlock: BETFEN_clean_sbu_0, # of connection points: 6
#     Node 14, Type 0, BuildingBlock: BETFEN_clean_sbu_0, # of connection points: 6
#     Node 15, Type 0, BuildingBlock: BETFEN_clean_sbu_0, # of connection points: 6
#     Edge 16, Type (0, 0), BuildingBlock: UVAHIK_clean_linker_0, # of connection points: 2
#     Edge 17, Type (0, 0), BuildingBlock: UVAHIK_clean_linker_0, # of connection points: 2
#     Edge 18, Type (0, 0), BuildingBlock: UVAHIK_clean_linker_0, # of connection points: 2
#     Edge 19, Type (0, 0), BuildingBlock: UVAHIK_clean_linker_0, # of connection points: 2
#     Edge 20, Type (0, 0), BuildingBlock: UVAHIK_clean_linker_0, # of connection points: 2
#     Edge 21, Type (0, 0), BuildingBlock: UVAHIK_clean_linker_0, # of connection points: 2
#     Edge 22, Type (0, 0), BuildingBlock: UVAHIK_clean_linker_0, # of connection points: 2
#     Edge 23, Type (0, 0), BuildingBlock: UVAHIK_clean_linker_0, # of connection points: 2
#     Edge 24, Type (0, 0), BuildingBlock: UVAHIK_clean_linker_0, # of connection points: 2
#     Edge 25, Type (0, 0), BuildingBlock: UVAHIK_clean_linker_0, # of connection points: 2
#     Edge 26, Type (0, 0), BuildingBlock: UVAHIK_clean_linker_0, # of connection points: 2
#     Edge 27, Type (0, 0), BuildingBlock: UVAHIK_clean_linker_0, # of connection points: 2
#     Edge 28, Type (0, 0), BuildingBlock: UVAHIK_clean_linker_0, # of connection points: 2
#     Edge 29, Type (0, 0), BuildingBlock: UVAHIK_clean_linker_0, # of connection points: 2
#     Edge 30, Type (0, 0), BuildingBlock: UVAHIK_clean_linker_0, # of connection points: 2
#     Edge 31, Type (0, 0), BuildingBlock: UVAHIK_clean_linker_0, # of connection points: 2
#     Edge 32, Type (0, 0), BuildingBlock: UVAHIK_clean_linker_0, # of connection points: 2
#     Edge 33, Type (0, 0), BuildingBlock: UVAHIK_clean_linker_0, # of connection points: 2
#     Edge 34, Type (0, 0), BuildingBlock: UVAHIK_clean_linker_0, # of connection points: 2
#     Edge 35, Type (0, 0), BuildingBlock: UVAHIK_clean_linker_0, # of connection points: 2
#     Edge 36, Type (0, 0), BuildingBlock: UVAHIK_clean_linker_0, # of connection points: 2
#     Edge 37, Type (0, 0), BuildingBlock: UVAHIK_clean_linker_0, # of connection points: 2
#     Edge 38, Type (0, 0), BuildingBlock: UVAHIK_clean_linker_0, # of connection points: 2
#     Edge 39, Type (0, 0), BuildingBlock: UVAHIK_clean_linker_0, # of connection points: 2
#     Edge 40, Type (0, 0), BuildingBlock: UVAHIK_clean_linker_0, # of connection points: 2
#     Edge 41, Type (0, 0), BuildingBlock: UVAHIK_clean_linker_0, # of connection points: 2
#     Edge 42, Type (0, 0), BuildingBlock: UVAHIK_clean_linker_0, # of connection points: 2
#     Edge 43, Type (0, 0), BuildingBlock: UVAHIK_clean_linker_0, # of connection points: 2
#     Edge 44, Type (0, 0), BuildingBlock: UVAHIK_clean_linker_0, # of connection points: 2
#     Edge 45, Type (0, 0), BuildingBlock: UVAHIK_clean_linker_0, # of connection points: 2
#     Edge 46, Type (0, 0), BuildingBlock: UVAHIK_clean_linker_0, # of connection points: 2
#     Edge 47, Type (0, 0), BuildingBlock: UVAHIK_clean_linker_0, # of connection points: 2
#     Edge 48, Type (0, 0), BuildingBlock: UVAHIK_clean_linker_0, # of connection points: 2
#     Edge 49, Type (0, 0), BuildingBlock: UVAHIK_clean_linker_0, # of connection points: 2
#     Edge 50, Type (0, 0), BuildingBlock: UVAHIK_clean_linker_0, # of connection points: 2
#     Edge 51, Type (0, 0), BuildingBlock: UVAHIK_clean_linker_0, # of connection points: 2
#     Edge 52, Type (0, 0), BuildingBlock: UVAHIK_clean_linker_0, # of connection points: 2
#     Edge 53, Type (0, 0), BuildingBlock: UVAHIK_clean_linker_0, # of connection points: 2
#     Edge 54, Type (0, 0), BuildingBlock: UVAHIK_clean_linker_0, # of connection points: 2
#     Edge 55, Type (0, 0), BuildingBlock: UVAHIK_clean_linker_0, # of connection points: 2
#     Edge 56, Type (0, 0), BuildingBlock: UVAHIK_clean_linker_0, # of connection points: 2
#     Edge 57, Type (0, 0), BuildingBlock: UVAHIK_clean_linker_0, # of connection points: 2
#     Edge 58, Type (0, 0), BuildingBlock: UVAHIK_clean_linker_0, # of connection points: 2
#     Edge 59, Type (0, 0), BuildingBlock: UVAHIK_clean_linker_0, # of connection points: 2
#     Edge 60, Type (0, 0), BuildingBlock: UVAHIK_clean_linker_0, # of connection points: 2
#     Edge 61, Type (0, 0), BuildingBlock: UVAHIK_clean_linker_0, # of connection points: 2
#     Edge 62, Type (0, 0), BuildingBlock: UVAHIK_clean_linker_0, # of connection points: 2
#     Edge 63, Type (0, 0), BuildingBlock: UVAHIK_clean_linker_0, # of connection points: 2
# Relax obj value: 0.072
# Max RMSD: 0.140
# Mean RMSD: 0.140
data_MOF--net-vbm--node1-BETFEN_clean_sbu_0--edge1-UVAHIK_clean_linker_0
_symmetry_space_group_name_H-M    P1
_symmetry_Int_Tables_number       1
_symmetry_cell_setting            triclinic
loop_
_symmetry_equiv_pos_as_xyz
'x, y, z'
_cell_length_a     73.27239
_cell_length_b     30.718123
_cell_length_c     74.034942
_cell_angle_alpha  89.972031
_cell_angle_beta   89.971582
_cell_angle_gamma 90.054249
loop_
_atom_site_label
_atom_site_type_symbol
_atom_site_fract_x
_atom_site_fract_y
_atom_site_fract_z
_atom_type_partial_charge
Pr0 Pr 0.13139 0.07749 0.14608 0.0
Pr1 Pr 0.11365 0.17331 0.1415 0.0
C2 C 0.14064 1.00014 0.1607 0.0
C3 C 0.13841 0.95277 0.15815 0.0
C4 C 0.13338 0.93498 0.14141 0.0
C5 C 0.13139 0.88977 0.13942 0.0
C6 C 0.13431 0.86153 0.15416 0.0
C7 C 0.13931 0.87978 0.1709 0.0
C8 C 0.14132 0.92485 0.17284 0.0
C9 C 0.12804 0.09614 0.10905 0.0
C10 C 0.08728 0.0906 0.13594 0.0
C11 C 0.10417 0.25568 0.13274 0.0
C12 C 0.10913 0.30213 0.13484 0.0
C13 C 0.11514 0.31928 0.15139 0.0
C14 C 0.1186 0.36402 0.15318 0.0
C15 C 0.11619 0.3925 0.13844 0.0
C16 C 0.11049 0.37488 0.12182 0.0
C17 C 0.107 0.33027 0.12007 0.0
C18 C 0.11249 0.13508 0.17593 0.0
C19 C 0.15843 0.16454 0.14916 0.0
O20 O 0.12606 0.02198 0.16553 0.0
O21 O 0.15096 0.02099 0.14906 0.0
O22 O 0.12351 0.12076 0.12195 0.0
O23 O 0.13499 0.06031 0.11534 0.0
O24 O 0.09095 0.12993 0.12985 0.0
O25 O 0.09947 0.06696 0.14484 0.0
O26 O 0.11467 0.23149 0.12255 0.0
O27 O 0.09779 0.2351 0.14689 0.0
O28 O 0.12574 0.13438 0.16511 0.0
O29 O 0.09909 0.15793 0.16937 0.0
O30 O 0.15704 0.12183 0.15142 0.0
O31 O 0.14442 0.18933 0.14475 0.0
H32 H 0.13096 0.95602 0.12991 0.0
H33 H 0.12733 0.877 0.1264 0.0
H34 H 0.14193 0.85918 0.18248 0.0
H35 H 0.14522 0.93794 0.18587 0.0
H36 H 0.11698 0.29822 0.16299 0.0
H37 H 0.1232 0.37629 0.16611 0.0
H38 H 0.10824 0.39573 0.11023 0.0
H39 H 0.10229 0.31782 0.10719 0.0
Pr40 Pr 0.85628 0.97104 0.14531 0.0
Pr41 Pr 0.87307 0.87458 0.14047 0.0
C42 C 0.84748 0.04829 0.1602 0.0
C43 C 0.84972 0.09562 0.15768 0.0
C44 C 0.85441 0.1135 0.14085 0.0
C45 C 0.8563 0.1587 0.13885 0.0
C46 C 0.85363 0.1868 0.15366 0.0
C47 C 0.84901 0.16847 0.17049 0.0
C48 C 0.84709 0.1234 0.17246 0.0
C49 C 0.85902 0.95259 0.10821 0.0
C50 C 0.90013 0.95615 0.13484 0.0
C51 C 0.8819 0.79218 0.13122 0.0
C52 C 0.87699 0.74582 0.13352 0.0
C53 C 0.87136 0.72885 0.15025 0.0
C54 C 0.86793 0.68415 0.1522 0.0
C55 C 0.87 0.65558 0.13744 0.0
C56 C 0.87531 0.67303 0.12066 0.0
C57 C 0.87876 0.71759 0.11875 0.0
C58 C 0.87491 0.91214 0.17495 0.0
C59 C 0.82848 0.88552 0.14878 0.0
O60 O 0.8621 0.02627 0.16473 0.0
O61 O 0.83693 0.02773 0.14871 0.0
O62 O 0.8635 0.92765 0.12103 0.0
O63 O 0.85256 0.98881 0.11463 0.0
O64 O 0.89608 0.91709 0.1287 0.0
O65 O 0.88822 0.98022 0.14388 0.0
O66 O 0.87092 0.81651 0.1216 0.0
O67 O 0.889 0.81256 0.14507 0.0
O68 O 0.86156 0.91373 0.16427 0.0
O69 O 0.88803 0.88867 0.16821 0.0
O70 O 0.83027 0.92823 0.15058 0.0
O71 O 0.84223 0.85968 0.14458 0.0
H72 H 0.85661 0.09253 0.12929 0.0
H73 H 0.86008 0.17159 0.12575 0.0
H74 H 0.84658 0.18901 0.18213 0.0
H75 H 0.84345 0.1102 0.18555 0.0
H76 H 0.8698 0.75002 0.16184 0.0
H77 H 0.86364 0.67196 0.16526 0.0
H78 H 0.87728 0.65208 0.10907 0.0
H79 H 0.88317 0.72995 0.10574 0.0
Pr80 Pr 0.13086 0.95802 0.38068 0.0
Pr81 Pr 0.1125 0.86958 0.38225 0.0
C82 C 0.141 0.04088 0.37322 0.0
C83 C 0.13618 0.0876 0.37516 0.0
C84 C 0.13642 0.10865 0.39203 0.0
C85 C 0.13347 0.15366 0.39325 0.0
C86 C 0.13021 0.17871 0.37763 0.0
C87 C 0.12963 0.15735 0.36083 0.0
C88 C 0.13263 0.11244 0.35962 0.0
C89 C 0.13138 0.92088 0.41522 0.0
C90 C 0.08601 0.95049 0.38893 0.0
C91 C 0.10188 0.78649 0.38846 0.0
C92 C 0.1069 0.73992 0.38634 0.0
C93 C 0.10681 0.71929 0.36937 0.0
C94 C 0.11 0.67439 0.36798 0.0
C95 C 0.11334 0.64905 0.38349 0.0
C96 C 0.11376 0.67 0.40038 0.0
C97 C 0.11052 0.71477 0.40178 0.0
C98 C 0.11191 0.90998 0.34822 0.0
C99 C 0.15691 0.87369 0.37449 0.0
O100 O 0.13113 1.01716 0.36227 0.0
O101 O 0.14651 0.01952 0.3875 0.0
O102 O 0.11779 0.92041 0.40467 0.0
O103 O 0.14507 0.9416 0.4081 0.0
O104 O 0.08869 0.90967 0.39344 0.0
O105 O 0.09928 0.97459 0.38205 0.0
O106 O 0.11114 0.80965 0.40011 0.0
O107 O 0.09709 0.80862 0.37411 0.0
O108 O 0.12551 0.90777 0.35859 0.0
O109 O 0.09792 0.8899 0.3551 0.0
O110 O 0.15536 0.91549 0.37065 0.0
O111 O 0.14324 0.85139 0.38137 0.0
H112 H 0.13917 0.09053 0.40429 0.0
H113 H 0.13378 0.16887 0.40644 0.0
H114 H 0.12743 0.17553 0.34849 0.0
H115 H 0.13259 0.09723 0.34642 0.0
H116 H 0.104 0.73762 0.35719 0.0
H117 H 0.10979 0.6595 0.35472 0.0
H118 H 0.11602 0.65156 0.41265 0.0
H119 H 0.11045 0.72961 0.41505 0.0
Pr120 Pr 0.85555 0.0697 0.37835 0.0
Pr121 Pr 0.8722 0.16655 0.38329 0.0
C122 C 0.84672 0.99244 0.36346 0.0
C123 C 0.84869 0.94514 0.36613 0.0
C124 C 0.85504 0.92777 0.3825 0.0
C125 C 0.85667 0.88257 0.38468 0.0
C126 C 0.85197 0.85396 0.37053 0.0
C127 C 0.84573 0.87181 0.35414 0.0
C128 C 0.84412 0.91689 0.35199 0.0
C129 C 0.85818 0.08835 0.41545 0.0
C130 C 0.89924 0.08527 0.38899 0.0
C131 C 0.88123 0.24861 0.39287 0.0
C132 C 0.87684 0.29524 0.39078 0.0
C133 C 0.87002 0.31237 0.37453 0.0
C134 C 0.86713 0.35732 0.37271 0.0
C135 C 0.87104 0.38592 0.38709 0.0
C136 C 0.87744 0.36825 0.40344 0.0
C137 C 0.88031 0.32347 0.40524 0.0
C138 C 0.87428 0.12893 0.34882 0.0
C139 C 0.82776 0.15514 0.37461 0.0
O140 O 0.86155 1.01409 0.3592 0.0
O141 O 0.83605 1.01329 0.37474 0.0
O142 O 0.86262 0.11321 0.4026 0.0
O143 O 0.85179 0.052 0.40908 0.0
O144 O 0.89496 0.12396 0.39535 0.0
O145 O 0.88751 0.06121 0.37971 0.0
O146 O 0.86986 0.22451 0.40217 0.0
O147 O 0.88841 0.22838 0.37902 0.0
O148 O 0.86091 0.12714 0.35947 0.0
O149 O 0.88731 0.15272 0.35556 0.0
O150 O 0.82963 0.11246 0.37281 0.0
O151 O 0.84141 0.18119 0.37898 0.0
H152 H 0.85866 0.94913 0.39357 0.0
H153 H 0.86136 0.87003 0.39754 0.0
H154 H 0.84229 0.85097 0.34285 0.0
H155 H 0.8393 0.92973 0.33922 0.0
H156 H 0.86722 0.29114 0.36319 0.0
H157 H 0.8623 0.36978 0.3599 0.0
H158 H 0.88027 0.38906 0.41491 0.0
H159 H 0.88551 0.31089 0.41791 0.0
Pr160 Pr 0.87154 0.87292 0.88275 0.0
Pr161 Pr 0.85411 0.96884 0.87796 0.0
C162 C 0.88082 0.79064 0.89183 0.0
C163 C 0.87605 0.74406 0.88984 0.0
C164 C 0.87129 0.72588 0.87307 0.0
C165 C 0.86819 0.68095 0.87145 0.0
C166 C 0.86983 0.65329 0.88656 0.0
C167 C 0.87414 0.67198 0.90339 0.0
C168 C 0.87723 0.71676 0.90498 0.0
C169 C 0.87328 0.91082 0.84832 0.0
C170 C 0.8269 0.88227 0.87454 0.0
C171 C 0.84503 0.04613 0.86322 0.0
C172 C 0.84703 0.0935 0.86589 0.0
C173 C 0.85106 0.11127 0.88289 0.0
C174 C 0.85271 0.1565 0.88504 0.0
C175 C 0.85036 0.18479 0.87022 0.0
C176 C 0.84647 0.16655 0.8532 0.0
C177 C 0.84483 0.12145 0.85109 0.0
C178 C 0.85697 0.9503 0.91504 0.0
C179 C 0.89802 0.95528 0.88856 0.0
O180 O 0.87008 0.8149 0.90175 0.0
O181 O 0.88747 0.81105 0.87776 0.0
O182 O 0.85986 0.91196 0.85894 0.0
O183 O 0.88653 0.88784 0.8551 0.0
O184 O 0.82842 0.92498 0.87244 0.0
O185 O 0.8408 0.85715 0.87898 0.0
O186 O 0.85978 0.02458 0.8587 0.0
O187 O 0.83449 0.02504 0.87458 0.0
O188 O 0.8616 0.92558 0.90221 0.0
O189 O 0.8502 0.98623 0.90864 0.0
O190 O 0.89417 0.91608 0.89468 0.0
O191 O 0.88602 0.97899 0.87947 0.0
H192 H 0.87027 0.74623 0.86116 0.0
H193 H 0.86503 0.66775 0.85826 0.0
H194 H 0.87517 0.65195 0.91539 0.0
H195 H 0.88084 0.73005 0.91806 0.0
H196 H 0.85286 0.09022 0.8945 0.0
H197 H 0.85555 0.16931 0.89837 0.0
H198 H 0.8449 0.1871 0.84142 0.0
H199 H 0.84184 0.10834 0.83783 0.0
Pr200 Pr 0.11205 0.1704 0.88351 0.0
Pr201 Pr 0.12939 0.07431 0.87911 0.0
C202 C 0.1027 0.25278 0.89233 0.0
C203 C 0.10762 0.29921 0.89017 0.0
C204 C 0.11355 0.31633 0.87357 0.0
C205 C 0.11699 0.36107 0.87174 0.0
C206 C 0.11462 0.38954 0.88648 0.0
C207 C 0.109 0.37194 0.90314 0.0
C208 C 0.10554 0.32735 0.90493 0.0
C209 C 0.11117 0.13272 0.84901 0.0
C210 C 0.15685 0.16062 0.87643 0.0
C211 C 0.13863 0.99701 0.86451 0.0
C212 C 0.13634 0.94965 0.86699 0.0
C213 C 0.1313 0.93176 0.88372 0.0
C214 C 0.12929 0.88656 0.88567 0.0
C215 C 0.13219 0.85845 0.87089 0.0
C216 C 0.13718 0.8768 0.85417 0.0
C217 C 0.13921 0.92186 0.85226 0.0
C218 C 0.12584 0.09294 0.91612 0.0
C219 C 0.08527 0.08839 0.88878 0.0
O220 O 0.11333 0.22861 0.90238 0.0
O221 O 0.09616 0.23222 0.87826 0.0
O222 O 0.12429 0.13133 0.85998 0.0
O223 O 0.09781 0.15587 0.85545 0.0
O224 O 0.15531 0.11794 0.87424 0.0
O225 O 0.14288 0.18584 0.88054 0.0
O226 O 0.12413 0.01897 0.85959 0.0
O227 O 0.14888 1.01767 0.87625 0.0
O228 O 0.12148 0.11767 0.90319 0.0
O229 O 0.1326 0.05686 0.90987 0.0
O230 O 0.08909 0.1275 0.89499 0.0
O231 O 0.09742 0.06448 0.87997 0.0
H232 H 0.11535 0.29525 0.86198 0.0
H233 H 0.12153 0.37335 0.85878 0.0
H234 H 0.10679 0.3928 0.91472 0.0
H235 H 0.10089 0.3149 0.91784 0.0
H236 H 0.1289 0.95272 0.89525 0.0
H237 H 0.12523 0.87369 0.89868 0.0
H238 H 0.13979 0.85627 0.84257 0.0
H239 H 0.14312 0.93505 0.83924 0.0
Pr240 Pr 0.8727 0.17006 0.64085 0.0
Pr241 Pr 0.85578 0.07386 0.64577 0.0
C242 C 0.88176 0.25239 0.6316 0.0
C243 C 0.87704 0.29894 0.63364 0.0
C244 C 0.87239 0.31709 0.65045 0.0
C245 C 0.86934 0.36201 0.65209 0.0
C246 C 0.87091 0.38967 0.63696 0.0
C247 C 0.87509 0.371 0.6201 0.0
C248 C 0.87814 0.32623 0.61849 0.0
C249 C 0.87428 0.13291 0.67544 0.0
C250 C 0.82808 0.15956 0.64878 0.0
C251 C 0.84685 0.99657 0.66062 0.0
C252 C 0.84888 0.94924 0.65795 0.0
C253 C 0.85287 0.93152 0.64092 0.0
C254 C 0.85449 0.88631 0.63875 0.0
C255 C 0.85215 0.85799 0.65357 0.0
C256 C 0.84832 0.87618 0.67062 0.0
C257 C 0.84671 0.92127 0.67275 0.0
C258 C 0.8587 0.09173 0.60864 0.0
C259 C 0.89969 0.08876 0.63542 0.0
O260 O 0.87087 0.22805 0.62188 0.0
O261 O 0.88864 0.23209 0.64558 0.0
O262 O 0.86098 0.13117 0.66471 0.0
O263 O 0.8875 0.1561 0.66869 0.0
O264 O 0.82981 0.11694 0.65097 0.0
O265 O 0.84188 0.18509 0.6444 0.0
O266 O 0.86159 1.0183 0.66506 0.0
O267 O 0.83624 1.0175 0.6493 0.0
O268 O 0.86317 0.11693 0.62138 0.0
O269 O 0.85212 0.0557 0.61515 0.0
O270 O 0.89559 0.12757 0.62908 0.0
O271 O 0.88778 0.06476 0.64453 0.0
H272 H 0.87144 0.29673 0.66236 0.0
H273 H 0.86627 0.37522 0.6653 0.0
H274 H 0.87608 0.39104 0.6081 0.0
H275 H 0.88166 0.31295 0.60539 0.0
H276 H 0.85464 0.95259 0.62932 0.0
H277 H 0.85728 0.87352 0.62541 0.0
H278 H 0.84676 0.8556 0.68239 0.0
H279 H 0.84374 0.93435 0.68602 0.0
Pr280 Pr 0.11215 0.86756 0.64268 0.0
Pr281 Pr 0.13054 0.9558 0.64347 0.0
C282 C 0.10121 0.78433 0.63747 0.0
C283 C 0.10577 0.73783 0.64044 0.0
C284 C 0.09259 0.71021 0.64809 0.0
C285 C 0.09575 0.66541 0.64956 0.0
C286 C 0.11217 0.64701 0.64332 0.0
C287 C 0.12555 0.67492 0.63601 0.0
C288 C 0.1224 0.71984 0.63461 0.0
C289 C 0.11154 0.90929 0.67642 0.0
C290 C 0.1566 0.8717 0.65015 0.0
C291 C 0.14099 0.03893 0.64991 0.0
C292 C 0.1366 0.08563 0.64722 0.0
C293 C 0.14969 0.11306 0.63931 0.0
C294 C 0.14671 0.15797 0.63804 0.0
C295 C 0.13054 0.17671 0.64475 0.0
C296 C 0.11726 0.14904 0.65237 0.0
C297 C 0.12024 0.10401 0.65359 0.0
C298 C 0.1311 0.91701 0.60927 0.0
C299 C 0.08573 0.94829 0.63505 0.0
O300 O 0.11098 0.8063 0.62579 0.0
O301 O 0.09618 0.80753 0.65141 0.0
O302 O 0.12518 0.90684 0.66608 0.0
O303 O 0.09757 0.88903 0.66963 0.0
O304 O 0.15502 0.91359 0.65378 0.0
O305 O 0.14288 0.84913 0.64355 0.0
O306 O 0.13082 1.0162 0.66097 0.0
O307 O 0.14661 1.01656 0.63596 0.0
O308 O 0.11744 0.91722 0.61975 0.0
O309 O 0.14483 0.93766 0.61632 0.0
O310 O 0.08843 0.90722 0.63096 0.0
O311 O 0.09899 0.97265 0.6418 0.0
H312 H 0.0796 0.72318 0.65254 0.0
H313 H 0.08505 0.64499 0.65506 0.0
H314 H 0.13845 0.662 0.63129 0.0
H315 H 0.13286 0.7403 0.62869 0.0
H316 H 0.1625 0.09984 0.63447 0.0
H317 H 0.15736 0.17817 0.63231 0.0
H318 H 0.10455 0.1622 0.65746 0.0
H319 H 0.10985 0.08377 0.65976 0.0
Pr320 Pr 0.63055 0.57958 0.14255 0.0
Pr321 Pr 0.61311 0.66836 0.14034 0.0
C322 C 0.64012 0.49663 0.15036 0.0
C323 C 0.63586 0.44993 0.14742 0.0
C324 C 0.64904 0.42293 0.13945 0.0
C325 C 0.64615 0.37804 0.13797 0.0
C326 C 0.63 0.3589 0.14455 0.0
C327 C 0.61664 0.3861 0.15225 0.0
C328 C 0.61952 0.43111 0.15367 0.0
C329 C 0.63183 0.615 0.10772 0.0
C330 C 0.58606 0.58857 0.13331 0.0
C331 C 0.60282 0.75156 0.13413 0.0
C332 C 0.60717 0.798 0.13749 0.0
C333 C 0.59382 0.825 0.14518 0.0
C334 C 0.59681 0.8698 0.14696 0.0
C335 C 0.61322 0.88879 0.14098 0.0
C336 C 0.62677 0.86153 0.13364 0.0
C337 C 0.6238 0.81662 0.13193 0.0
C338 C 0.61214 0.62946 0.17468 0.0
C339 C 0.65738 0.66272 0.1484 0.0
O340 O 0.62902 0.51973 0.16034 0.0
O341 O 0.64711 0.5186 0.13689 0.0
O342 O 0.61813 0.61692 0.1181 0.0
O343 O 0.64511 0.59355 0.11514 0.0
O344 O 0.58943 0.62884 0.12839 0.0
O345 O 0.59885 0.56431 0.1409 0.0
O346 O 0.61353 0.72951 0.12334 0.0
O347 O 0.59653 0.7284 0.14759 0.0
O348 O 0.62577 0.63077 0.16434 0.0
O349 O 0.59829 0.64949 0.16759 0.0
O350 O 0.65524 0.62134 0.15272 0.0
O351 O 0.64401 0.68546 0.14122 0.0
H352 H 0.66185 0.43646 0.13472 0.0
H353 H 0.65685 0.35815 0.13219 0.0
H354 H 0.60395 0.37258 0.15726 0.0
H355 H 0.60908 0.45097 0.15993 0.0
H356 H 0.58082 0.81157 0.14941 0.0
H357 H 0.58598 0.88977 0.15247 0.0
H358 H 0.63966 0.87495 0.12911 0.0
H359 H 0.6344 0.79668 0.12598 0.0
Pr360 Pr 0.35424 0.48222 0.14449 0.0
Pr361 Pr 0.36944 0.37801 0.13793 0.0
C362 C 0.34586 0.55921 0.15972 0.0
C363 C 0.34747 0.60634 0.15663 0.0
C364 C 0.35245 0.62313 0.1397 0.0
C365 C 0.35421 0.66818 0.13723 0.0
C366 C 0.35111 0.6971 0.15167 0.0
C367 C 0.34607 0.67987 0.16857 0.0
C368 C 0.34429 0.63495 0.17101 0.0
C369 C 0.35528 0.45935 0.10767 0.0
C370 C 0.39803 0.46153 0.13453 0.0
C371 C 0.37756 0.30053 0.12309 0.0
C372 C 0.37485 0.25362 0.12604 0.0
C373 C 0.36919 0.2373 0.14284 0.0
C374 C 0.36661 0.19247 0.14525 0.0
C375 C 0.36955 0.16329 0.13087 0.0
C376 C 0.37517 0.18004 0.11406 0.0
C377 C 0.37779 0.22475 0.1117 0.0
C378 C 0.36977 0.4062 0.17431 0.0
C379 C 0.32661 0.3952 0.15038 0.0
O380 O 0.36109 0.53832 0.16302 0.0
O381 O 0.33455 0.53766 0.14927 0.0
O382 O 0.35932 0.43575 0.12103 0.0
O383 O 0.34997 0.49731 0.1135 0.0
O384 O 0.39404 0.42115 0.1297 0.0
O385 O 0.38609 0.48905 0.14175 0.0
O386 O 0.36301 0.32302 0.11869 0.0
O387 O 0.38848 0.32085 0.13436 0.0
O388 O 0.36493 0.4256 0.1603 0.0
O389 O 0.3748 0.36692 0.16983 0.0
O390 O 0.32955 0.43732 0.15339 0.0
O391 O 0.33862 0.36863 0.14293 0.0
H392 H 0.35508 0.60142 0.12847 0.0
H393 H 0.35829 0.6803 0.12409 0.0
H394 H 0.34332 0.70115 0.17991 0.0
H395 H 0.34043 0.62251 0.18417 0.0
H396 H 0.36672 0.25922 0.15404 0.0
H397 H 0.36208 0.18072 0.1583 0.0
H398 H 0.37779 0.15851 0.10278 0.0
H399 H 0.38215 0.23682 0.09863 0.0
Pr400 Pr 0.63021 0.45964 0.37989 0.0
Pr401 Pr 0.61278 0.37074 0.38216 0.0
C402 C 0.63986 0.54262 0.37212 0.0
C403 C 0.63567 0.58931 0.37513 0.0
C404 C 0.64897 0.61627 0.38295 0.0
C405 C 0.64614 0.66116 0.38448 0.0
C406 C 0.62994 0.68034 0.37811 0.0
C407 C 0.61646 0.65317 0.37056 0.0
C408 C 0.61928 0.60816 0.36909 0.0
C409 C 0.63135 0.42441 0.41475 0.0
C410 C 0.58564 0.45033 0.38865 0.0
C411 C 0.60253 0.28752 0.38851 0.0
C412 C 0.60692 0.24109 0.38522 0.0
C413 C 0.59355 0.21385 0.37769 0.0
C414 C 0.5966 0.16908 0.37594 0.0
C415 C 0.61309 0.15035 0.3818 0.0
C416 C 0.62665 0.17785 0.389 0.0
C417 C 0.62362 0.22273 0.39067 0.0
C418 C 0.61195 0.40933 0.34775 0.0
C419 C 0.657 0.37664 0.37399 0.0
O420 O 0.62868 0.51962 0.36217 0.0
O421 O 0.64686 0.52054 0.38553 0.0
O422 O 0.61767 0.4224 0.40435 0.0
O423 O 0.64467 0.44581 0.40733 0.0
O424 O 0.58897 0.41023 0.39379 0.0
O425 O 0.59851 0.4746 0.38116 0.0
O426 O 0.61321 0.30976 0.39927 0.0
O427 O 0.59625 0.31049 0.37501 0.0
O428 O 0.62552 0.40825 0.35816 0.0
O429 O 0.59809 0.38914 0.35481 0.0
O430 O 0.65483 0.41795 0.36961 0.0
O431 O 0.64368 0.3539 0.3813 0.0
H432 H 0.66182 0.60272 0.38752 0.0
H433 H 0.65693 0.68103 0.39014 0.0
H434 H 0.60373 0.66671 0.36572 0.0
H435 H 0.60874 0.58832 0.36296 0.0
H436 H 0.5805 0.22708 0.37354 0.0
H437 H 0.58576 0.14893 0.37055 0.0
H438 H 0.63959 0.16463 0.39343 0.0
H439 H 0.63423 0.24287 0.3965 0.0
Pr440 Pr 0.35336 0.55682 0.3788 0.0
Pr441 Pr 0.36957 0.65473 0.38365 0.0
C442 C 0.34447 0.47944 0.36412 0.0
C443 C 0.34607 0.43216 0.36696 0.0
C444 C 0.34999 0.41461 0.38402 0.0
C445 C 0.35141 0.36942 0.38629 0.0
C446 C 0.34894 0.34105 0.37153 0.0
C447 C 0.34513 0.35908 0.35446 0.0
C448 C 0.34372 0.40415 0.35222 0.0
C449 C 0.35712 0.57525 0.41582 0.0
C450 C 0.39733 0.57428 0.38761 0.0
C451 C 0.3781 0.73645 0.39398 0.0
C452 C 0.3737 0.783 0.39173 0.0
C453 C 0.36913 0.80082 0.37486 0.0
C454 C 0.3662 0.84573 0.37306 0.0
C455 C 0.36781 0.87358 0.3881 0.0
C456 C 0.37195 0.85523 0.40502 0.0
C457 C 0.37487 0.81048 0.40679 0.0
C458 C 0.37031 0.61892 0.34876 0.0
C459 C 0.32505 0.64193 0.37599 0.0
O460 O 0.35954 0.5004 0.36014 0.0
O461 O 0.33364 0.50093 0.37506 0.0
O462 O 0.36094 0.60024 0.40283 0.0
O463 O 0.35074 0.53869 0.40963 0.0
O464 O 0.39297 0.61236 0.3945 0.0
O465 O 0.38544 0.54996 0.37864 0.0
O466 O 0.36626 0.71219 0.40261 0.0
O467 O 0.38609 0.71643 0.38051 0.0
O468 O 0.3577 0.61511 0.36019 0.0
O469 O 0.38297 0.64495 0.35474 0.0
O470 O 0.3271 0.59935 0.37381 0.0
O471 O 0.33863 0.66814 0.38036 0.0
H472 H 0.3519 0.4358 0.39556 0.0
H473 H 0.35419 0.35669 0.39965 0.0
H474 H 0.34348 0.33839 0.34273 0.0
H475 H 0.34082 0.41717 0.33892 0.0
H476 H 0.36812 0.7802 0.36304 0.0
H477 H 0.36315 0.85876 0.35981 0.0
H478 H 0.37295 0.87548 0.41695 0.0
H479 H 0.37831 0.79735 0.41995 0.0
Pr480 Pr 0.37182 0.37425 0.88334 0.0
Pr481 Pr 0.35538 0.47145 0.87804 0.0
C482 C 0.37984 0.29231 0.89375 0.0
C483 C 0.3753 0.24583 0.89112 0.0
C484 C 0.37477 0.22669 0.87389 0.0
C485 C 0.37174 0.18184 0.87201 0.0
C486 C 0.36919 0.15526 0.88732 0.0
C487 C 0.36927 0.17489 0.90449 0.0
C488 C 0.37232 0.21959 0.90635 0.0
C489 C 0.37365 0.40998 0.84851 0.0
C490 C 0.32747 0.3859 0.87434 0.0
C491 C 0.34698 0.54882 0.86307 0.0
C492 C 0.34864 0.59618 0.86586 0.0
C493 C 0.34844 0.61465 0.88321 0.0
C494 C 0.34978 0.65988 0.88537 0.0
C495 C 0.35139 0.68745 0.87022 0.0
C496 C 0.35177 0.66855 0.85291 0.0
C497 C 0.3504 0.62344 0.85078 0.0
C498 C 0.358 0.45333 0.91516 0.0
C499 C 0.39915 0.45526 0.88842 0.0
O500 O 0.3678 0.31659 0.90208 0.0
O501 O 0.38849 0.31267 0.88075 0.0
O502 O 0.36058 0.41355 0.85945 0.0
O503 O 0.38622 0.38444 0.85498 0.0
O504 O 0.32925 0.42867 0.87261 0.0
O505 O 0.34113 0.36002 0.87875 0.0
O506 O 0.36205 0.52766 0.85935 0.0
O507 O 0.33583 0.52734 0.87373 0.0
O508 O 0.36238 0.42828 0.90236 0.0
O509 O 0.35167 0.48964 0.9087 0.0
O510 O 0.39477 0.41683 0.89499 0.0
O511 O 0.38744 0.47941 0.87917 0.0
H512 H 0.37702 0.24617 0.86189 0.0
H513 H 0.37191 0.16783 0.85859 0.0
H514 H 0.36702 0.15566 0.91655 0.0
H515 H 0.37263 0.23363 0.91977 0.0
H516 H 0.34715 0.59417 0.89505 0.0
H517 H 0.34928 0.67327 0.89888 0.0
H518 H 0.35333 0.68858 0.84097 0.0
H519 H 0.35071 0.60978 0.83728 0.0
Pr520 Pr 0.61335 0.663 0.88324 0.0
Pr521 Pr 0.63111 0.56573 0.87841 0.0
C522 C 0.60477 0.74474 0.89346 0.0
C523 C 0.60951 0.79125 0.89136 0.0
C524 C 0.61263 0.81012 0.87434 0.0
C525 C 0.61584 0.85499 0.87279 0.0
C526 C 0.61599 0.88183 0.88822 0.0
C527 C 0.61332 0.86244 0.90525 0.0
C528 C 0.61009 0.81772 0.90677 0.0
C529 C 0.61105 0.62471 0.84898 0.0
C530 C 0.65762 0.65332 0.87288 0.0
C531 C 0.63994 0.488 0.86401 0.0
C532 C 0.63847 0.4407 0.86704 0.0
C533 C 0.63637 0.42313 0.88443 0.0
C534 C 0.63504 0.37794 0.88683 0.0
C535 C 0.63577 0.34955 0.87189 0.0
C536 C 0.63775 0.36758 0.85452 0.0
C537 C 0.63909 0.41263 0.85215 0.0
C538 C 0.62966 0.58824 0.91518 0.0
C539 C 0.58733 0.57963 0.88998 0.0
O540 O 0.61619 0.72013 0.90244 0.0
O541 O 0.59704 0.72487 0.87979 0.0
O542 O 0.62443 0.62257 0.85961 0.0
O543 O 0.59839 0.65011 0.85541 0.0
O544 O 0.65628 0.61038 0.87139 0.0
O545 O 0.64384 0.67854 0.87768 0.0
O546 O 0.62478 0.50862 0.86014 0.0
O547 O 0.65091 0.51005 0.87463 0.0
O548 O 0.62431 0.61047 0.90192 0.0
O549 O 0.63657 0.55182 0.90941 0.0
O550 O 0.59113 0.61926 0.89564 0.0
O551 O 0.59925 0.55547 0.88097 0.0
H552 H 0.61228 0.79039 0.86222 0.0
H553 H 0.61771 0.8688 0.85946 0.0
H554 H 0.61367 0.88185 0.91745 0.0
H555 H 0.60778 0.80385 0.92004 0.0
H556 H 0.6358 0.4443 0.89611 0.0
H557 H 0.63368 0.36523 0.90041 0.0
H558 H 0.63803 0.34691 0.84268 0.0
H559 H 0.64057 0.42562 0.83861 0.0
Pr560 Pr 0.37129 0.66121 0.64025 0.0
Pr561 Pr 0.35579 0.56324 0.64581 0.0
C562 C 0.37898 0.7432 0.62959 0.0
C563 C 0.37442 0.78948 0.63242 0.0
C564 C 0.37082 0.80639 0.64968 0.0
C565 C 0.36758 0.85103 0.65198 0.0
C566 C 0.36782 0.87951 0.63705 0.0
C567 C 0.37112 0.86212 0.61978 0.0
C568 C 0.37439 0.81763 0.61751 0.0
C569 C 0.37301 0.62661 0.67529 0.0
C570 C 0.32694 0.64716 0.64872 0.0
C571 C 0.34774 0.4859 0.66103 0.0
C572 C 0.34972 0.43864 0.65837 0.0
C573 C 0.35241 0.42064 0.64115 0.0
C574 C 0.35411 0.37547 0.63905 0.0
C575 C 0.35323 0.34757 0.65414 0.0
C576 C 0.35063 0.36601 0.67135 0.0
C577 C 0.3489 0.41105 0.67342 0.0
C578 C 0.35872 0.58043 0.60863 0.0
C579 C 0.39945 0.58157 0.63579 0.0
O580 O 0.36675 0.71882 0.62159 0.0
O581 O 0.38786 0.72304 0.64246 0.0
O582 O 0.36014 0.62189 0.6642 0.0
O583 O 0.38537 0.65284 0.66886 0.0
O584 O 0.32926 0.60465 0.65086 0.0
O585 O 0.34034 0.67381 0.64423 0.0
O586 O 0.36267 0.5077 0.66473 0.0
O587 O 0.33657 0.50663 0.65017 0.0
O588 O 0.36267 0.60615 0.62133 0.0
O589 O 0.35266 0.54396 0.61521 0.0
O590 O 0.39478 0.61958 0.62901 0.0
O591 O 0.38789 0.55701 0.64507 0.0
H592 H 0.37068 0.78523 0.66138 0.0
H593 H 0.36487 0.86322 0.66543 0.0
H594 H 0.37165 0.88308 0.60802 0.0
H595 H 0.37721 0.80527 0.60409 0.0
H596 H 0.3532 0.44149 0.62937 0.0
H597 H 0.35631 0.36245 0.62564 0.0
H598 H 0.34964 0.34556 0.68324 0.0
H599 H 0.34682 0.42438 0.68682 0.0
Pr600 Pr 0.61367 0.37524 0.63934 0.0
Pr601 Pr 0.63152 0.47253 0.64411 0.0
C602 C 0.60506 0.29338 0.62924 0.0
C603 C 0.60993 0.24695 0.63134 0.0
C604 C 0.61337 0.22832 0.64834 0.0
C605 C 0.61672 0.18352 0.64991 0.0
C606 C 0.61669 0.15651 0.63453 0.0
C607 C 0.61368 0.17567 0.61752 0.0
C608 C 0.61032 0.22032 0.61597 0.0
C609 C 0.61141 0.41359 0.67359 0.0
C610 C 0.65798 0.38496 0.64952 0.0
C611 C 0.64045 0.55025 0.6585 0.0
C612 C 0.63905 0.5976 0.65555 0.0
C613 C 0.63686 0.61538 0.63822 0.0
C614 C 0.63563 0.66061 0.6359 0.0
C615 C 0.63654 0.68885 0.65088 0.0
C616 C 0.63859 0.67061 0.66821 0.0
C617 C 0.63983 0.62552 0.67049 0.0
C618 C 0.62996 0.45001 0.60735 0.0
C619 C 0.58768 0.45867 0.6327 0.0
O620 O 0.61633 0.31812 0.6201 0.0
O621 O 0.59746 0.31321 0.64298 0.0
O622 O 0.6248 0.41571 0.66295 0.0
O623 O 0.59873 0.38819 0.66716 0.0
O624 O 0.65667 0.42789 0.65105 0.0
O625 O 0.64418 0.35975 0.64477 0.0
O626 O 0.62528 0.52963 0.66241 0.0
O627 O 0.65136 0.52824 0.64782 0.0
O628 O 0.62462 0.42777 0.62062 0.0
O629 O 0.63691 0.48643 0.6131 0.0
O630 O 0.59139 0.41896 0.62707 0.0
O631 O 0.59968 0.48283 0.64164 0.0
H632 H 0.61317 0.24817 0.66042 0.0
H633 H 0.61884 0.1699 0.66324 0.0
H634 H 0.6139 0.15614 0.60535 0.0
H635 H 0.60776 0.234 0.60272 0.0
H636 H 0.63617 0.59433 0.6265 0.0
H637 H 0.63421 0.67347 0.62235 0.0
H638 H 0.63901 0.69116 0.68008 0.0
H639 H 0.64137 0.61239 0.684 0.0
C640 C 0.17712 0.23235 0.15028 0.0
C641 C 0.17604 0.18685 0.15232 0.0
C642 C 0.19344 0.25431 0.15331 0.0
C643 C 0.24275 0.23828 0.15326 0.0
H644 H 0.24323 0.35193 0.17619 0.0
C645 C 0.30941 0.33129 0.16153 0.0
C646 C 0.30928 0.37501 0.15596 0.0
C647 C 0.29315 0.309 0.1644 0.0
C648 C 0.24327 0.32034 0.16969 0.0
H649 H 0.19134 0.12885 0.15932 0.0
H650 H 0.22008 0.16754 0.16461 0.0
H651 H 0.21491 0.30987 0.17515 0.0
H652 H 0.29217 0.43065 0.15013 0.0
H653 H 0.2634 0.39116 0.15481 0.0
H654 H 0.27092 0.24894 0.14742 0.0
C655 C 0.20817 0.18597 0.16057 0.0
C656 C 0.2271 0.29623 0.16912 0.0
C657 C 0.19173 0.16384 0.15756 0.0
C658 C 0.29258 0.39693 0.15439 0.0
C659 C 0.27617 0.37433 0.15711 0.0
C660 C 0.25888 0.26232 0.15384 0.0
C661 C 0.20916 0.23146 0.15845 0.0
C662 C 0.22663 0.25519 0.16068 0.0
C663 C 0.27635 0.32973 0.16158 0.0
C664 C 0.25929 0.30377 0.16192 0.0
H665 H 0.16536 0.25132 0.14625 0.0
H666 H 0.19383 0.2892 0.15121 0.0
H667 H 0.24276 0.20716 0.14639 0.0
H668 H 0.32215 0.31385 0.16321 0.0
H669 H 0.29375 0.27505 0.16833 0.0
C670 C 0.80933 0.81928 0.15336 0.0
C671 C 0.81056 0.86487 0.15198 0.0
C672 C 0.79248 0.79902 0.15567 0.0
C673 C 0.74432 0.81484 0.14605 0.0
H674 H 0.73761 0.71546 0.17776 0.0
C675 C 0.67496 0.73126 0.15219 0.0
C676 C 0.67471 0.68551 0.152 0.0
C677 C 0.69127 0.7538 0.15444 0.0
C678 C 0.73934 0.74293 0.16875 0.0
H679 H 0.79508 0.92501 0.15243 0.0
H680 H 0.76547 0.88934 0.15637 0.0
H681 H 0.76657 0.75509 0.17801 0.0
H682 H 0.69125 0.62743 0.15462 0.0
H683 H 0.72006 0.66706 0.15814 0.0
H684 H 0.71741 0.80224 0.13638 0.0
C685 C 0.77764 0.86945 0.15557 0.0
C686 C 0.75586 0.76569 0.16894 0.0
C687 C 0.79457 0.88985 0.15337 0.0
C688 C 0.69107 0.66268 0.15469 0.0
C689 C 0.70752 0.68539 0.15679 0.0
C690 C 0.72788 0.79203 0.14579 0.0
C691 C 0.77645 0.82381 0.15658 0.0
C692 C 0.75853 0.80169 0.1575 0.0
C693 C 0.70779 0.73122 0.15636 0.0
C694 C 0.72522 0.75571 0.15707 0.0
H695 H 0.82137 0.79897 0.15246 0.0
H696 H 0.79197 0.76379 0.15618 0.0
H697 H 0.74612 0.84192 0.13683 0.0
H698 H 0.66253 0.74989 0.15048 0.0
H699 H 0.69093 0.78906 0.15451 0.0
C700 C 0.29125 0.63754 0.3703 0.0
C701 C 0.30716 0.66246 0.37259 0.0
C702 C 0.27443 0.65809 0.36751 0.0
C703 C 0.25379 0.76315 0.354 0.0
H704 H 0.21366 0.72701 0.38465 0.0
C705 C 0.19069 0.871 0.3687 0.0
C706 C 0.17385 0.84968 0.37055 0.0
C707 C 0.2067 0.84677 0.36638 0.0
C708 C 0.22462 0.73712 0.37576 0.0
H709 H 0.31795 0.72848 0.37322 0.0
H710 H 0.28886 0.76373 0.36855 0.0
H711 H 0.24185 0.68527 0.3847 0.0
H712 H 0.16034 0.78665 0.37021 0.0
H713 H 0.18801 0.74493 0.36586 0.0
H714 H 0.23662 0.81553 0.34531 0.0
C715 C 0.28931 0.72848 0.36875 0.0
C716 C 0.24075 0.7131 0.37577 0.0
C717 C 0.30598 0.70812 0.37164 0.0
C718 C 0.17317 0.80407 0.36921 0.0
C719 C 0.18904 0.78004 0.36675 0.0
C720 C 0.23762 0.78716 0.35395 0.0
C721 C 0.27334 0.70379 0.36679 0.0
C722 C 0.25558 0.72625 0.36511 0.0
C723 C 0.20603 0.80096 0.36574 0.0
C724 C 0.22294 0.77467 0.365 0.0
H725 H 0.29172 0.60233 0.3709 0.0
H726 H 0.26229 0.6383 0.36596 0.0
H727 H 0.26498 0.77374 0.34549 0.0
H728 H 0.19156 0.90613 0.36965 0.0
H729 H 0.21963 0.86378 0.36574 0.0
C730 C 0.79399 0.15023 0.36936 0.0
C731 C 0.80987 0.1755 0.37112 0.0
C732 C 0.77707 0.17032 0.36683 0.0
C733 C 0.75531 0.27377 0.35325 0.0
H734 H 0.71652 0.23667 0.38538 0.0
C735 C 0.69065 0.37664 0.36761 0.0
C736 C 0.67426 0.35385 0.37021 0.0
C737 C 0.70704 0.35387 0.36538 0.0
C738 C 0.72709 0.24702 0.37608 0.0
H739 H 0.82055 0.24159 0.37093 0.0
H740 H 0.79115 0.27625 0.36665 0.0
H741 H 0.74524 0.19718 0.38514 0.0
H742 H 0.66191 0.28956 0.37135 0.0
H743 H 0.69022 0.25027 0.36708 0.0
H744 H 0.73716 0.32401 0.34435 0.0
C745 C 0.79174 0.24103 0.36712 0.0
C746 C 0.74353 0.22431 0.37594 0.0
C747 C 0.80858 0.22107 0.36977 0.0
C748 C 0.67438 0.30812 0.36973 0.0
C749 C 0.69063 0.28552 0.36733 0.0
C750 C 0.7388 0.29643 0.35332 0.0
C751 C 0.7758 0.21593 0.36585 0.0
C752 C 0.75787 0.23772 0.36468 0.0
C753 C 0.7072 0.30803 0.36556 0.0
C754 C 0.72456 0.28346 0.36485 0.0
H755 H 0.79456 0.11506 0.37028 0.0
H756 H 0.76497 0.15022 0.36576 0.0
H757 H 0.76613 0.28455 0.34432 0.0
H758 H 0.69091 0.41189 0.36789 0.0
H759 H 0.71963 0.37213 0.36414 0.0
C760 C 0.69173 0.65328 0.86934 0.0
C761 C 0.67499 0.6754 0.86867 0.0
C762 C 0.7081 0.67618 0.86706 0.0
C763 C 0.72619 0.78698 0.87256 0.0
H764 H 0.76854 0.74185 0.84743 0.0
C765 C 0.79337 0.8845 0.86732 0.0
C766 C 0.80919 0.86056 0.87129 0.0
C767 C 0.77673 0.8631 0.86459 0.0
C768 C 0.75681 0.75479 0.85453 0.0
H769 H 0.66217 0.7381 0.86379 0.0
H770 H 0.69052 0.77745 0.85958 0.0
H771 H 0.73998 0.70069 0.84698 0.0
H772 H 0.81997 0.79522 0.87517 0.0
H773 H 0.79112 0.75849 0.87067 0.0
H774 H 0.74303 0.84056 0.88043 0.0
C775 C 0.69112 0.74286 0.86238 0.0
C776 C 0.74051 0.73118 0.85431 0.0
C777 C 0.67486 0.72019 0.86476 0.0
C778 C 0.80808 0.81487 0.87218 0.0
C779 C 0.79154 0.79362 0.86942 0.0
C780 C 0.74246 0.81053 0.87278 0.0
C781 C 0.70792 0.72142 0.86397 0.0
C782 C 0.72508 0.74689 0.86346 0.0
C783 C 0.77567 0.81743 0.8657 0.0
C784 C 0.75799 0.79444 0.86396 0.0
H785 H 0.69221 0.61877 0.8723 0.0
H786 H 0.72089 0.65882 0.86843 0.0
H787 H 0.71462 0.79961 0.88 0.0
H788 H 0.79379 0.91969 0.86646 0.0
H789 H 0.76469 0.88225 0.86163 0.0
C790 C 0.30945 0.31985 0.86689 0.0
C791 C 0.30979 0.36467 0.87073 0.0
C792 C 0.29297 0.29791 0.86497 0.0
C793 C 0.24363 0.31155 0.85772 0.0
H794 H 0.24083 0.20178 0.88359 0.0
C795 C 0.17581 0.22791 0.87489 0.0
C796 C 0.17465 0.18227 0.87366 0.0
C797 C 0.19241 0.24915 0.87248 0.0
C798 C 0.24148 0.23195 0.87604 0.0
H799 H 0.29313 0.42209 0.87475 0.0
H800 H 0.26402 0.38328 0.87166 0.0
H801 H 0.26938 0.24224 0.88316 0.0
H802 H 0.19006 0.12323 0.86867 0.0
H803 H 0.21927 0.16067 0.86445 0.0
H804 H 0.21557 0.30145 0.85088 0.0
C805 C 0.27664 0.36536 0.87001 0.0
C806 C 0.25781 0.25522 0.87582 0.0
C807 C 0.29325 0.38754 0.87184 0.0
C808 C 0.19051 0.15836 0.86978 0.0
C809 C 0.20721 0.17977 0.86741 0.0
C810 C 0.22726 0.28823 0.85795 0.0
C811 C 0.27639 0.32011 0.86696 0.0
C812 C 0.25904 0.29537 0.86674 0.0
C813 C 0.20829 0.22539 0.86879 0.0
C814 C 0.22599 0.24838 0.86725 0.0
H815 H 0.32196 0.30136 0.86558 0.0
H816 H 0.29323 0.2633 0.86217 0.0
H817 H 0.24425 0.3421 0.85044 0.0
H818 H 0.16391 0.24754 0.87784 0.0
H819 H 0.19284 0.28423 0.87395 0.0
C820 C 0.67532 0.31795 0.6572 0.0
C821 C 0.67537 0.36292 0.65363 0.0
C822 C 0.6916 0.29547 0.65959 0.0
C823 C 0.74085 0.30795 0.66842 0.0
H824 H 0.74411 0.19926 0.6419 0.0
C825 C 0.80895 0.22639 0.6511 0.0
C826 C 0.81024 0.18072 0.65188 0.0
C827 C 0.79229 0.24714 0.6537 0.0
C828 C 0.74332 0.2291 0.64965 0.0
H829 H 0.69252 0.41997 0.65055 0.0
H830 H 0.72123 0.38027 0.65444 0.0
H831 H 0.71556 0.23958 0.64209 0.0
H832 H 0.795 0.12109 0.65633 0.0
H833 H 0.76568 0.15765 0.66088 0.0
H834 H 0.7688 0.29776 0.67564 0.0
C835 C 0.70848 0.36262 0.65554 0.0
C836 C 0.72698 0.25229 0.64974 0.0
C837 C 0.69208 0.38532 0.65326 0.0
C838 C 0.79445 0.15628 0.65557 0.0
C839 C 0.77769 0.17718 0.65813 0.0
C840 C 0.75722 0.28473 0.66832 0.0
C841 C 0.70838 0.31728 0.65835 0.0
C842 C 0.72561 0.29215 0.65899 0.0
C843 C 0.77646 0.22283 0.65715 0.0
C844 C 0.75868 0.24534 0.65875 0.0
H845 H 0.66266 0.29978 0.65793 0.0
H846 H 0.69106 0.26077 0.66216 0.0
H847 H 0.74011 0.33824 0.67587 0.0
H848 H 0.8208 0.24641 0.64832 0.0
H849 H 0.79175 0.28227 0.65255 0.0
C850 C 0.17356 0.80239 0.65428 0.0
C851 C 0.17376 0.84815 0.65375 0.0
C852 C 0.18966 0.77906 0.65649 0.0
C853 C 0.23796 0.78801 0.67024 0.0
H854 H 0.24377 0.68831 0.63857 0.0
C855 C 0.30744 0.71252 0.6535 0.0
C856 C 0.30889 0.66697 0.65212 0.0
C857 C 0.29056 0.73221 0.65616 0.0
C858 C 0.24224 0.71554 0.64774 0.0
H859 H 0.19092 0.90541 0.65574 0.0
H860 H 0.21936 0.86438 0.65924 0.0
H861 H 0.21521 0.72862 0.63846 0.0
H862 H 0.29375 0.60632 0.65285 0.0
H863 H 0.264 0.64107 0.65739 0.0
H864 H 0.26526 0.77544 0.67912 0.0
C865 C 0.20662 0.84667 0.65816 0.0
C866 C 0.22589 0.73874 0.64766 0.0
C867 C 0.19038 0.87018 0.65608 0.0
C868 C 0.29306 0.64146 0.65381 0.0
C869 C 0.27606 0.66132 0.65635 0.0
C870 C 0.25436 0.76485 0.67027 0.0
C871 C 0.20642 0.80082 0.65808 0.0
C872 C 0.22362 0.77547 0.65879 0.0
C873 C 0.27468 0.70694 0.65744 0.0
C874 C 0.25672 0.72871 0.65885 0.0
H875 H 0.16093 0.78434 0.65284 0.0
H876 H 0.18898 0.74384 0.6568 0.0
H877 H 0.23653 0.81573 0.67916 0.0
H878 H 0.31934 0.73329 0.6524 0.0
H879 H 0.28991 0.76742 0.65669 0.0
C880 C 0.09544 0.94092 0.32139 0.0
C881 C 0.11188 0.93284 0.33053 0.0
C882 C 0.09536 0.96303 0.3048 0.0
C883 C 0.12486 0.03282 0.27493 0.0
H884 H 0.08828 1.00436 0.23899 0.0
C885 C 0.12834 0.09433 0.20076 0.0
C886 C 0.11219 0.11187 0.19353 0.0
C887 C 0.12819 0.07278 0.21746 0.0
C888 C 0.09851 1.01289 0.24894 0.0
H889 H 0.14119 0.94133 0.32937 0.0
H890 H 0.14124 0.9782 0.30021 0.0
H891 H 0.08845 0.96585 0.26779 0.0
H892 H 0.08319 0.11996 0.19803 0.0
H893 H 0.08286 0.08155 0.22708 0.0
H894 H 0.1352 0.07897 0.2557 0.0
C895 C 0.12825 0.96874 0.30597 0.0
C896 C 0.09858 0.99093 0.26556 0.0
C897 C 0.12828 0.94718 0.32268 0.0
C898 C 0.09585 0.10691 0.20327 0.0
C899 C 0.09565 0.08473 0.21986 0.0
C900 C 0.12495 0.05426 0.2582 0.0
C901 C 0.11178 0.9772 0.29675 0.0
C902 C 0.11173 1.00058 0.27889 0.0
C903 C 0.11185 0.06764 0.22721 0.0
C904 C 0.11175 0.04467 0.24501 0.0
H905 H 0.08255 0.93062 0.32717 0.0
H906 H 0.08234 0.96952 0.29846 0.0
H907 H 0.13499 0.0421 0.28484 0.0
H908 H 0.14114 0.0975 0.19355 0.0
H909 H 0.14086 0.05964 0.22264 0.0
C910 C 0.89143 0.10175 0.32163 0.0
C911 C 0.87494 0.10631 0.33111 0.0
C912 C 0.89194 0.08001 0.30496 0.0
C913 C 0.86394 1.006 0.2753 0.0
H914 H 0.89869 0.04168 0.23865 0.0
C915 C 0.85934 0.95097 0.20044 0.0
C916 C 0.87544 0.93438 0.19274 0.0
C917 C 0.85967 0.97136 0.21737 0.0
C918 C 0.88899 0.03119 0.2488 0.0
H919 H 0.84601 0.09205 0.33048 0.0
H920 H 0.84663 0.05611 0.30123 0.0
H921 H 0.89836 0.07861 0.26782 0.0
H922 H 0.90457 0.92698 0.19659 0.0
H923 H 0.90522 0.96366 0.22603 0.0
H924 H 0.85419 0.95968 0.25587 0.0
C925 C 0.85938 0.06783 0.30676 0.0
C926 C 0.88883 0.05219 0.26564 0.0
C927 C 0.85896 0.0889 0.32353 0.0
C928 C 0.89194 0.93928 0.20221 0.0
C929 C 0.89233 0.96043 0.21901 0.0
C930 C 0.8639 0.98561 0.25837 0.0
C931 C 0.87589 0.06281 0.29718 0.0
C932 C 0.87629 0.04 0.2792 0.0
C933 C 0.87616 0.97638 0.22686 0.0
C934 C 0.87641 0.99793 0.24492 0.0
H935 H 0.90401 0.11453 0.3272 0.0
H936 H 0.90501 0.07627 0.29833 0.0
H937 H 0.85436 0.99463 0.28538 0.0
H938 H 0.84642 0.94782 0.19344 0.0
H939 H 0.84702 0.98364 0.22297 0.0
C940 C 0.89121 0.10543 0.70273 0.0
C941 C 0.87475 0.11041 0.6932 0.0
C942 C 0.89153 0.08383 0.71945 0.0
C943 C 0.86283 0.05672 0.75851 0.0
H944 H 0.89764 0.96445 0.76773 0.0
C945 C 0.85788 0.95095 0.82309 0.0
C946 C 0.87391 0.93394 0.8307 0.0
C947 C 0.85832 0.97258 0.80642 0.0
C948 C 0.88801 0.99064 0.76561 0.0
H949 H 0.84574 0.09668 0.69372 0.0
H950 H 0.84623 0.06006 0.72308 0.0
H951 H 0.89806 1.00242 0.73878 0.0
H952 H 0.90306 0.92698 0.82698 0.0
H953 H 0.90405 0.96614 0.7983 0.0
H954 H 0.85308 0.04637 0.78538 0.0
C955 C 0.85889 0.07264 0.7176 0.0
C956 C 0.88821 1.01226 0.7489 0.0
C957 C 0.85863 0.09349 0.70076 0.0
C958 C 0.89045 0.93943 0.82137 0.0
C959 C 0.89095 0.9617 0.80481 0.0
C960 C 0.86282 0.03569 0.77532 0.0
C961 C 0.87534 0.06748 0.72715 0.0
C962 C 0.87552 0.04529 0.7451 0.0
C963 C 0.87487 0.97853 0.79699 0.0
C964 C 0.87529 1.00195 0.77913 0.0
H965 H 0.90386 0.11796 0.69721 0.0
H966 H 0.9044 0.08052 0.72651 0.0
H967 H 0.85303 0.08244 0.75608 0.0
H968 H 0.8449 0.94709 0.82992 0.0
H969 H 0.84554 0.98402 0.80085 0.0
C970 C 0.12715 0.09196 0.82426 0.0
C971 C 0.111 0.10984 0.83133 0.0
C972 C 0.12712 0.07068 0.80751 0.0
C973 C 0.0976 1.01188 0.77562 0.0
H974 H 0.13458 0.04069 0.74012 0.0
C975 C 0.09499 0.94056 0.70311 0.0
C976 C 0.11147 0.93225 0.69408 0.0
C977 C 0.09485 0.96259 0.7197 0.0
C978 C 0.12431 0.03151 0.74992 0.0
H979 H 0.0821 0.1188 0.82651 0.0
H980 H 0.08197 0.08082 0.79737 0.0
H981 H 0.1346 0.07725 0.76932 0.0
H982 H 0.14079 0.94029 0.69542 0.0
H983 H 0.14073 0.977 0.72461 0.0
H984 H 0.08758 0.96522 0.75662 0.0
C985 C 0.09468 0.08356 0.80475 0.0
C986 C 0.12429 0.05279 0.76668 0.0
C987 C 0.09476 0.10548 0.82138 0.0
C988 C 0.12785 0.94633 0.70203 0.0
C989 C 0.12776 0.96779 0.71875 0.0
C990 C 0.09778 0.99008 0.75897 0.0
C991 C 0.11089 0.06612 0.79755 0.0
C992 C 0.1109 0.04335 0.77972 0.0
C993 C 0.11124 0.97642 0.72788 0.0
C994 C 0.1111 0.9996 0.74578 0.0
H995 H 0.13987 0.09466 0.83162 0.0
H996 H 0.1398 0.05726 0.80244 0.0
H997 H 0.08723 1.00347 0.78546 0.0
H998 H 0.08212 0.93048 0.69725 0.0
H999 H 0.08179 0.96925 0.72595 0.0
C1000 C 0.5954 0.4381 0.32057 0.0
C1001 C 0.61183 0.4315 0.32994 0.0
C1002 C 0.59528 0.45982 0.30391 0.0
C1003 C 0.62411 0.53181 0.27449 0.0
H1004 H 0.5891 0.4986 0.23773 0.0
C1005 C 0.6283 0.59239 0.20029 0.0
C1006 C 0.61197 0.60736 0.1925 0.0
C1007 C 0.62817 0.5714 0.2171 0.0
C1008 C 0.59888 0.50846 0.24791 0.0
H1009 H 0.64104 0.4421 0.32914 0.0
H1010 H 0.641 0.47839 0.29987 0.0
H1011 H 0.58926 0.46066 0.26666 0.0
H1012 H 0.58269 0.61156 0.19612 0.0
H1013 H 0.58243 0.57424 0.22537 0.0
H1014 H 0.634 0.57883 0.25541 0.0
C1015 C 0.62807 0.46803 0.3055 0.0
C1016 C 0.59894 0.48682 0.26459 0.0
C1017 C 0.62814 0.44682 0.32226 0.0
C1018 C 0.5955 0.60052 0.20181 0.0
C1019 C 0.59533 0.57895 0.2185 0.0
C1020 C 0.6242 0.553 0.25772 0.0
C1021 C 0.61162 0.47507 0.29606 0.0
C1022 C 0.61154 0.49818 0.27818 0.0
C1023 C 0.61168 0.56429 0.22639 0.0
C1024 C 0.61156 0.54166 0.24424 0.0
H1025 H 0.58259 0.42698 0.32624 0.0
H1026 H 0.58228 0.46518 0.29734 0.0
H1027 H 0.63378 0.54233 0.28463 0.0
H1028 H 0.64121 0.59705 0.19341 0.0
H1029 H 0.64098 0.56015 0.22272 0.0
C1030 C 0.384 0.60588 0.31807 0.0
C1031 C 0.37051 0.59656 0.33097 0.0
C1032 C 0.38406 0.58465 0.30129 0.0
C1033 C 0.35465 0.51379 0.27134 0.0
H1034 H 0.40025 0.49766 0.24564 0.0
C1035 C 0.36505 0.40207 0.20788 0.0
C1036 C 0.37049 0.42574 0.19256 0.0
C1037 C 0.3651 0.42176 0.225 0.0
C1038 C 0.38743 0.50193 0.25271 0.0
H1039 H 0.34638 0.55791 0.33631 0.0
H1040 H 0.34717 0.5187 0.30787 0.0
H1041 H 0.40035 0.53318 0.27508 0.0
H1042 H 0.38113 0.48739 0.18315 0.0
H1043 H 0.38175 0.52139 0.21312 0.0
H1044 H 0.34201 0.48055 0.24907 0.0
C1045 C 0.35741 0.54344 0.31019 0.0
C1046 C 0.38739 0.52278 0.26956 0.0
C1047 C 0.3571 0.56552 0.32674 0.0
C1048 C 0.3765 0.46884 0.19471 0.0
C1049 C 0.37702 0.48811 0.21184 0.0
C1050 C 0.35479 0.49197 0.25471 0.0
C1051 C 0.37084 0.55273 0.29707 0.0
C1052 C 0.37097 0.5295 0.27914 0.0
C1053 C 0.37114 0.46494 0.22713 0.0
C1054 C 0.37115 0.48617 0.24517 0.0
H1055 H 0.39442 0.62999 0.32086 0.0
H1056 H 0.3944 0.59387 0.29157 0.0
H1057 H 0.34161 0.51894 0.27785 0.0
H1058 H 0.36038 0.36876 0.20655 0.0
H1059 H 0.36056 0.40319 0.23661 0.0
C1060 C 0.38838 0.42284 0.81825 0.0
C1061 C 0.37436 0.43197 0.83065 0.0
C1062 C 0.38889 0.44367 0.80138 0.0
C1063 C 0.37584 0.54293 0.77791 0.0
H1064 H 0.37622 0.47491 0.73377 0.0
C1065 C 0.38762 0.61504 0.70567 0.0
C1066 C 0.37379 0.6049 0.6932 0.0
C1067 C 0.38824 0.59435 0.72257 0.0
C1068 C 0.37619 0.49428 0.746 0.0
H1069 H 0.34974 0.46966 0.83493 0.0
H1070 H 0.35114 0.50749 0.80587 0.0
H1071 H 0.37663 0.43787 0.76317 0.0
H1072 H 0.34962 0.56557 0.68882 0.0
H1073 H 0.35124 0.52801 0.71794 0.0
H1074 H 0.37572 0.59935 0.76074 0.0
C1075 C 0.36165 0.48402 0.80917 0.0
C1076 C 0.3765 0.47312 0.76279 0.0
C1077 C 0.36089 0.4624 0.82581 0.0
C1078 C 0.36061 0.57363 0.698 0.0
C1079 C 0.36151 0.55216 0.71467 0.0
C1080 C 0.37598 0.56411 0.76112 0.0
C1081 C 0.37561 0.47476 0.79673 0.0
C1082 C 0.37613 0.49722 0.77892 0.0
C1083 C 0.37528 0.5624 0.72717 0.0
C1084 C 0.37596 0.53999 0.74499 0.0
H1085 H 0.39891 0.39941 0.82155 0.0
H1086 H 0.3998 0.43595 0.79204 0.0
H1087 H 0.37559 0.56229 0.79014 0.0
H1088 H 0.39791 0.63913 0.70241 0.0
H1089 H 0.399 0.60283 0.73196 0.0
C1090 C 0.59613 0.61066 0.81894 0.0
C1091 C 0.61043 0.60276 0.83113 0.0
C1092 C 0.59589 0.59045 0.80194 0.0
C1093 C 0.59328 0.52925 0.76974 0.0
H1094 H 0.63933 0.50098 0.74688 0.0
C1095 C 0.59639 0.42777 0.70356 0.0
C1096 C 0.61075 0.43561 0.69142 0.0
C1097 C 0.59607 0.44807 0.72054 0.0
C1098 C 0.62628 0.5091 0.75283 0.0
H1099 H 0.63566 0.56735 0.83507 0.0
H1100 H 0.63475 0.53023 0.80613 0.0
H1101 H 0.63925 0.53775 0.77573 0.0
H1102 H 0.63602 0.47099 0.68754 0.0
H1103 H 0.635 0.50827 0.71645 0.0
H1104 H 0.58033 0.50279 0.74629 0.0
C1105 C 0.62396 0.55307 0.80924 0.0
C1106 C 0.62623 0.52961 0.76972 0.0
C1107 C 0.62438 0.57395 0.82603 0.0
C1108 C 0.6247 0.46444 0.69654 0.0
C1109 C 0.62421 0.48541 0.71332 0.0
C1110 C 0.59333 0.50941 0.75267 0.0
C1111 C 0.60981 0.56125 0.79679 0.0
C1112 C 0.60975 0.53982 0.77855 0.0
C1113 C 0.60999 0.47731 0.72571 0.0
C1114 C 0.60983 0.49884 0.74394 0.0
H1115 H 0.58525 0.63296 0.82243 0.0
H1116 H 0.58491 0.59844 0.79275 0.0
H1117 H 0.58026 0.53585 0.77606 0.0
H1118 H 0.5855 0.40545 0.70005 0.0
H1119 H 0.58504 0.44012 0.72969 0.0
C1120 C 0.11759 0.14182 0.94256 0.0
C1121 C 0.12346 0.10144 0.93573 0.0
C1122 C 0.1156 0.14805 0.96133 0.0
C1123 C 0.10871 0.08487 1.00345 0.0
H1124 H 0.13111 0.18152 0.02883 0.0
C1125 C 0.1293 0.07037 0.07728 0.0
C1126 C 0.12541 0.10421 0.08944 0.0
C1127 C 0.12672 0.07578 0.05876 0.0
C1128 C 0.1245 0.15475 0.02191 0.0
H1129 H 0.13188 0.03622 0.94322 0.0
H1130 H 0.12832 0.04685 0.97545 0.0
H1131 H 0.13066 0.18084 0.9956 0.0
H1132 H 0.11598 0.17081 0.09159 0.0
H1133 H 0.11168 0.18066 0.05875 0.0
H1134 H 0.10306 0.05794 0.0295 0.0
C1135 C 0.12511 0.07371 0.96651 0.0
C1136 C 0.12424 0.15435 1.00289 0.0
C1137 C 0.12726 0.0677 0.94797 0.0
C1138 C 0.11907 0.14413 0.08254 0.0
C1139 C 0.11666 0.14977 0.06378 0.0
C1140 C 0.10899 0.08524 0.02231 0.0
C1141 C 0.11916 0.11377 0.9735 0.0
C1142 C 0.11689 0.1186 0.99346 0.0
C1143 C 0.12026 0.11533 0.05171 0.0
C1144 C 0.11742 0.11939 0.0318 0.0
H1145 H 0.1146 0.16845 0.93345 0.0
H1146 H 0.111 0.17932 0.9663 0.0
H1147 H 0.10257 0.05731 0.99664 0.0
H1148 H 0.13426 0.03923 0.08208 0.0
H1149 H 0.12995 0.04884 0.04987 0.0
C1150 C 0.86583 0.90251 0.94165 0.0
C1151 C 0.85932 0.94221 0.93469 0.0
C1152 C 0.86807 0.89692 0.96043 0.0
C1153 C 0.87491 0.96182 1.00194 0.0
H1154 H 0.85413 0.86489 0.02852 0.0
C1155 C 0.85683 0.97784 0.0764 0.0
C1156 C 0.86107 0.94421 0.08856 0.0
C1157 C 0.85882 0.97205 0.05783 0.0
C1158 C 0.86029 0.89178 0.02126 0.0
H1159 H 0.84991 1.00679 0.94197 0.0
H1160 H 0.8539 0.99726 0.97422 0.0
H1161 H 0.85375 0.86438 0.99529 0.0
H1162 H 0.87049 0.8776 0.09066 0.0
H1163 H 0.87383 0.86713 0.05776 0.0
H1164 H 0.88104 0.98993 0.02765 0.0
C1165 C 0.85742 0.97047 0.96536 0.0
C1166 C 0.86007 0.89148 1.00224 0.0
C1167 C 0.85503 0.97584 0.94681 0.0
C1168 C 0.86715 0.90413 0.08161 0.0
C1169 C 0.86901 0.89813 0.06281 0.0
C1170 C 0.87515 0.9621 0.0208 0.0
C1171 C 0.8641 0.93119 0.97247 0.0
C1172 C 0.86684 0.92726 0.9924 0.0
C1173 C 0.86505 0.93234 0.05073 0.0
C1174 C 0.8673 0.92785 0.03075 0.0
H1175 H 0.86922 0.87599 0.93262 0.0
H1176 H 0.87323 0.86624 0.96549 0.0
H1177 H 0.88061 0.98945 0.99479 0.0
H1178 H 0.85203 1.00907 0.08124 0.0
H1179 H 0.85531 0.99882 0.04896 0.0
C1180 C 0.1138 0.89952 0.44316 0.0
C1181 C 0.13039 0.91087 0.43483 0.0
C1182 C 0.11286 0.89358 0.46196 0.0
C1183 C 0.14183 0.87455 0.50264 0.0
H1184 H 0.10174 0.92755 0.52877 0.0
C1185 C 0.14589 0.91118 0.57892 0.0
C1186 C 0.13014 0.90729 0.58964 0.0
C1187 C 0.14503 0.90581 0.56018 0.0
C1188 C 0.11289 0.9119 0.52171 0.0
H1189 H 0.15906 0.92372 0.43963 0.0
H1190 H 0.15746 0.91349 0.4722 0.0
H1191 H 0.10181 0.92843 0.49579 0.0
H1192 H 0.10114 0.8935 0.58908 0.0
H1193 H 0.09961 0.88379 0.55623 0.0
H1194 H 0.15307 0.85859 0.5285 0.0
C1195 C 0.14516 0.90883 0.46432 0.0
C1196 C 0.11293 0.91242 0.50275 0.0
C1197 C 0.14607 0.91497 0.44561 0.0
C1198 C 0.11353 0.89675 0.58119 0.0
C1199 C 0.11264 0.89151 0.56235 0.0
C1200 C 0.14178 0.87399 0.52156 0.0
C1201 C 0.12852 0.8985 0.47282 0.0
C1202 C 0.12758 0.89446 0.49295 0.0
C1203 C 0.12837 0.89639 0.55156 0.0
C1204 C 0.12749 0.89337 0.53139 0.0
H1205 H 0.10147 0.89608 0.43521 0.0
H1206 H 0.09986 0.8852 0.46799 0.0
H1207 H 0.15315 0.85958 0.49559 0.0
H1208 H 0.1589 0.91932 0.58499 0.0
H1209 H 0.15739 0.91042 0.55238 0.0
C1210 C 0.86702 0.13951 0.58184 0.0
C1211 C 0.8609 0.09959 0.58896 0.0
C1212 C 0.86902 0.14495 0.56303 0.0
C1213 C 0.87562 0.07982 0.52146 0.0
H1214 H 0.85405 0.17611 0.49518 0.0
C1215 C 0.85631 0.06321 0.44731 0.0
C1216 C 0.86038 0.09683 0.43508 0.0
C1217 C 0.85855 0.06909 0.46586 0.0
C1218 C 0.86042 0.1494 0.50235 0.0
H1219 H 0.85196 0.03443 0.58193 0.0
H1220 H 0.85551 0.04373 0.54963 0.0
H1221 H 0.85421 0.17675 0.52841 0.0
H1222 H 0.86976 0.16349 0.43281 0.0
H1223 H 0.8735 0.17412 0.46565 0.0
H1224 H 0.88138 0.05173 0.49566 0.0
C1225 C 0.85893 0.0708 0.55838 0.0
C1226 C 0.86052 0.14978 0.52137 0.0
C1227 C 0.85679 0.06557 0.57696 0.0
C1228 C 0.86653 0.13698 0.44192 0.0
C1229 C 0.86862 0.14307 0.46068 0.0
C1230 C 0.87552 0.07944 0.5026 0.0
C1231 C 0.86519 0.11034 0.55111 0.0
C1232 C 0.86758 0.11422 0.53112 0.0
C1233 C 0.86485 0.10887 0.47284 0.0
C1234 C 0.86739 0.11346 0.49277 0.0
H1235 H 0.87027 0.16633 0.59077 0.0
H1236 H 0.87386 0.17584 0.55783 0.0
H1237 H 0.88155 0.05238 0.52852 0.0
H1238 H 0.85147 0.03192 0.44255 0.0
H1239 H 0.85518 0.04232 0.4748 0.0
C1240 C 0.64587 0.61075 0.07706 0.0
C1241 C 0.63115 0.62342 0.08799 0.0
C1242 C 0.64507 0.61536 0.0583 0.0
C1243 C 0.61222 0.6282 0.02032 0.0
H1244 H 0.65698 0.64501 0.99321 0.0
C1245 C 0.6173 0.63316 0.94097 0.0
C1246 C 0.62939 0.60134 0.93441 0.0
C1247 C 0.61671 0.64289 0.95953 0.0
C1248 C 0.64434 0.64057 1.00061 0.0
H1249 H 0.60418 0.65218 0.08785 0.0
H1250 H 0.6029 0.66147 0.05498 0.0
H1251 H 0.65742 0.65097 0.02601 0.0
H1252 H 0.65055 0.55558 0.94195 0.0
H1253 H 0.64997 0.5736 0.97401 0.0
H1254 H 0.59925 0.61806 0.99461 0.0
C1255 C 0.61496 0.64698 0.06089 0.0
C1256 C 0.64459 0.64358 0.01945 0.0
C1257 C 0.61573 0.64198 0.07975 0.0
C1258 C 0.6411 0.58025 0.94661 0.0
C1259 C 0.64081 0.59065 0.96496 0.0
C1260 C 0.61193 0.6259 1.00138 0.0
C1261 C 0.62959 0.63336 0.04987 0.0
C1262 C 0.62867 0.63603 0.02967 0.0
C1263 C 0.62854 0.62176 0.97167 0.0
C1264 C 0.62811 0.63084 0.99139 0.0
H1265 H 0.65794 0.59617 0.08294 0.0
H1266 H 0.65647 0.60352 0.05041 0.0
H1267 H 0.59969 0.62185 0.02762 0.0
H1268 H 0.60806 0.64971 0.93185 0.0
H1269 H 0.60712 0.66702 0.96438 0.0
C1270 C 0.36573 0.40461 0.94179 0.0
C1271 C 0.36002 0.44498 0.9348 0.0
C1272 C 0.36755 0.39863 0.96058 0.0
C1273 C 0.37464 0.46242 1.00234 0.0
H1274 H 0.35122 0.36794 0.0283 0.0
C1275 C 0.35324 0.48168 0.07554 0.0
C1276 C 0.35738 0.44905 0.08819 0.0
C1277 C 0.35574 0.47472 0.05711 0.0
C1278 C 0.35812 0.39406 0.02121 0.0
H1279 H 0.35164 0.51039 0.94202 0.0
H1280 H 0.3549 0.50018 0.97432 0.0
H1281 H 0.35187 0.3673 0.99505 0.0
H1282 H 0.36707 0.38291 0.09131 0.0
H1283 H 0.37119 0.37024 0.05861 0.0
H1284 H 0.38033 0.49011 0.02823 0.0
C1285 C 0.35812 0.47316 0.96547 0.0
C1286 C 0.35849 0.3937 1.0022 0.0
C1287 C 0.35614 0.47892 0.9469 0.0
C1288 C 0.36374 0.40862 0.08187 0.0
C1289 C 0.36608 0.4014 0.0632 0.0
C1290 C 0.37425 0.46279 0.02119 0.0
C1291 C 0.36396 0.43316 0.97261 0.0
C1292 C 0.36619 0.42875 0.99257 0.0
C1293 C 0.36236 0.43478 0.05066 0.0
C1294 C 0.36544 0.42947 0.03087 0.0
H1295 H 0.36879 0.37784 0.93277 0.0
H1296 H 0.37206 0.3674 0.96569 0.0
H1297 H 0.38103 0.48943 0.99536 0.0
H1298 H 0.34823 0.51315 0.07988 0.0
H1299 H 0.35242 0.50083 0.04784 0.0
C1300 C 0.61524 0.39741 0.44276 0.0
C1301 C 0.63068 0.41593 0.43448 0.0
C1302 C 0.61452 0.39228 0.46162 0.0
C1303 C 0.64432 0.39513 0.50293 0.0
H1304 H 0.59914 0.4208 0.52805 0.0
C1305 C 0.64129 0.45802 0.57587 0.0
C1306 C 0.62959 0.43697 0.5881 0.0
C1307 C 0.6409 0.44772 0.55751 0.0
C1308 C 0.61178 0.41291 0.5212 0.0
H1309 H 0.65753 0.443 0.43947 0.0
H1310 H 0.65613 0.43543 0.472 0.0
H1311 H 0.59943 0.41724 0.49503 0.0
H1312 H 0.60817 0.38875 0.59074 0.0
H1313 H 0.60705 0.37162 0.5582 0.0
H1314 H 0.65681 0.39342 0.5291 0.0
C1315 C 0.64469 0.42371 0.46413 0.0
C1316 C 0.61197 0.41074 0.50225 0.0
C1317 C 0.64545 0.42845 0.44538 0.0
C1318 C 0.6174 0.40528 0.58158 0.0
C1319 C 0.61671 0.39565 0.56302 0.0
C1320 C 0.64416 0.398 0.52178 0.0
C1321 C 0.62921 0.40573 0.47261 0.0
C1322 C 0.62836 0.40287 0.49281 0.0
C1323 C 0.62853 0.41674 0.55083 0.0
C1324 C 0.62799 0.40779 0.5311 0.0
H1325 H 0.60365 0.38733 0.43469 0.0
H1326 H 0.60245 0.37783 0.46756 0.0
H1327 H 0.6571 0.38769 0.49629 0.0
H1328 H 0.65081 0.4826 0.58049 0.0
H1329 H 0.65005 0.46475 0.54842 0.0
C1330 C 0.36622 0.62885 0.58184 0.0
C1331 C 0.36095 0.58827 0.58897 0.0
C1332 C 0.36821 0.6344 0.56303 0.0
C1333 C 0.37643 0.5701 0.52155 0.0
H1334 H 0.35238 0.6629 0.49522 0.0
C1335 C 0.35667 0.55003 0.4477 0.0
C1336 C 0.35973 0.58401 0.43536 0.0
C1337 C 0.35913 0.55637 0.46618 0.0
C1338 C 0.35945 0.63723 0.5024 0.0
H1339 H 0.35357 0.52199 0.58201 0.0
H1340 H 0.35712 0.53146 0.5497 0.0
H1341 H 0.35264 0.66387 0.52844 0.0
H1342 H 0.36759 0.65172 0.43281 0.0
H1343 H 0.3717 0.66316 0.46555 0.0
H1344 H 0.38277 0.54261 0.49577 0.0
C1345 C 0.35986 0.559 0.55843 0.0
C1346 C 0.3596 0.63779 0.52141 0.0
C1347 C 0.35771 0.55364 0.57701 0.0
C1348 C 0.36516 0.62492 0.44201 0.0
C1349 C 0.36745 0.63147 0.46072 0.0
C1350 C 0.37627 0.56954 0.50269 0.0
C1351 C 0.36524 0.59925 0.55115 0.0
C1352 C 0.36756 0.60337 0.53118 0.0
C1353 C 0.36464 0.597 0.47299 0.0
C1354 C 0.36726 0.60224 0.49286 0.0
H1355 H 0.36879 0.65614 0.59074 0.0
H1356 H 0.37236 0.66583 0.55782 0.0
H1357 H 0.38304 0.54359 0.52864 0.0
H1358 H 0.35242 0.51815 0.44306 0.0
H1359 H 0.35652 0.52933 0.47522 0.0
C1360 C 0.92373 1.01522 0.13527 0.0
C1361 C 0.91909 0.97133 0.13276 0.0
C1362 C 0.94196 0.02843 0.13424 0.0
C1363 C 0.98802 0.99079 0.11938 0.0
H1364 H 0.00457 0.07913 0.153 0.0
C1365 C 0.06401 0.03058 0.13632 0.0
C1366 C 0.0684 0.07475 0.13399 0.0
C1367 C 0.04582 1.01685 0.13524 0.0
C1368 C 6e-05 0.05444 0.14354 0.0
H1369 H 0.92984 0.90683 0.1272 0.0
H1370 H 0.96143 0.92941 0.12611 0.0
H1371 H 0.97246 0.05842 0.15259 0.0
H1372 H 0.05727 0.1391 0.12869 0.0
H1373 H 0.0257 0.1151 0.12723 0.0
H1374 H 0.01595 0.98609 0.11087 0.0
C1375 C 0.95111 0.95406 0.12828 0.0
C1376 C 0.98167 0.04286 0.14316 0.0
C1377 C 0.93293 0.94104 0.12901 0.0
C1378 C 0.05437 0.10477 0.13045 0.0
C1379 C 0.03629 0.09121 0.12971 0.0
C1380 C 0.00649 1.00186 0.12001 0.0
C1381 C 0.95589 0.99785 0.13098 0.0
C1382 C 0.9754 1.011 0.13102 0.0
C1383 C 0.03186 0.04728 0.1322 0.0
C1384 C 0.01258 0.03391 0.13203 0.0
H1385 H 0.91331 0.03929 0.13807 0.0
H1386 H 0.94512 0.06259 0.13605 0.0
H1387 H 0.98365 0.96667 0.10964 0.0
H1388 H 0.07456 1.00679 0.13904 0.0
H1389 H 0.04261 0.98275 0.13722 0.0
C1390 C 0.92333 0.0276 0.38753 0.0
C1391 C 0.91827 0.07079 0.39105 0.0
C1392 C 0.94167 1.01533 0.38838 0.0
C1393 C 0.98718 0.05276 0.40465 0.0
H1394 H 0.00467 0.97065 0.36887 0.0
C1395 C 0.06365 1.01249 0.38898 0.0
C1396 C 0.06735 0.96779 0.39062 0.0
C1397 C 0.04562 0.02744 0.38965 0.0
C1398 C -0.0001 0.99372 0.37888 0.0
H1399 H 0.92838 0.13497 0.39834 0.0
H1400 H 0.96016 0.11402 0.39917 0.0
H1401 H 0.97251 0.99078 0.3692 0.0
H1402 H 0.05514 0.90382 0.39438 0.0
H1403 H 0.02394 0.92997 0.39518 0.0
H1404 H 0.01488 0.05617 0.41394 0.0
C1405 C 0.95007 0.0892 0.39628 0.0
C1406 C 0.98149 1.00488 0.37923 0.0
C1407 C 0.9318 0.10126 0.3957 0.0
C1408 C 0.05281 0.93851 0.39313 0.0
C1409 C 0.03492 0.95331 0.3935 0.0
C1410 C 0.00568 0.04208 0.40409 0.0
C1411 C 0.95527 0.0462 0.39249 0.0
C1412 C 0.97486 0.0342 0.39223 0.0
C1413 C 0.03118 0.99772 0.39162 0.0
C1414 C 0.01208 1.01216 0.39132 0.0
H1415 H 0.91318 1.0034 0.38402 0.0
H1416 H 0.94518 0.9817 0.38573 0.0
H1417 H 0.9825 0.07499 0.41501 0.0
H1418 H 0.07461 0.03572 0.38705 0.0
H1419 H 0.04291 0.06192 0.38819 0.0
C1420 C 0.05237 0.10373 0.89368 0.0
C1421 C 0.06629 0.07318 0.8905 0.0
C1422 C 0.03421 0.09073 0.89428 0.0
C1423 C 0.00401 1.00244 0.90434 0.0
H1424 H 0.97038 0.0583 0.87114 0.0
C1425 C 0.93079 0.94094 0.89471 0.0
C1426 C 0.9169 0.97092 0.89072 0.0
C1427 C 0.94891 0.95428 0.8956 0.0
C1428 C 0.97948 0.04297 0.88075 0.0
H1429 H 0.07216 1.00492 0.88587 0.0
H1430 H 0.04007 0.98186 0.88745 0.0
H1431 H 0.00255 0.07868 0.87089 0.0
H1432 H 0.91098 0.03866 0.88506 0.0
H1433 H 0.94271 0.06255 0.88733 0.0
H1434 H 0.98101 0.96781 0.91472 0.0
C1435 C 0.04344 1.01593 0.88927 0.0
C1436 C -0.0021 0.05435 0.88045 0.0
C1437 C 0.0617 0.02909 0.88833 0.0
C1438 C 0.92144 1.01484 0.88807 0.0
C1439 C 0.93962 0.02839 0.88925 0.0
C1440 C 0.98552 0.99159 0.90488 0.0
C1441 C 0.0296 0.04686 0.892 0.0
C1442 C 0.01027 0.03397 0.89216 0.0
C1443 C 0.95359 0.9981 0.89281 0.0
C1444 C 0.97305 1.01147 0.89298 0.0
H1445 H 0.05543 0.13802 0.89529 0.0
H1446 H 0.02372 0.11499 0.89652 0.0
H1447 H 0.01335 0.98684 0.91364 0.0
H1448 H 0.9278 0.90671 0.89662 0.0
H1449 H 0.95927 0.92984 0.89797 0.0
C1450 C 0.93243 0.10484 0.62975 0.0
C1451 C 0.9187 0.07404 0.63342 0.0
C1452 C 0.95063 0.09228 0.62877 0.0
C1453 C 0.98066 1.00312 0.61878 0.0
H1454 H 0.01533 0.06123 0.65023 0.0
C1455 C 0.05265 0.93698 0.62962 0.0
C1456 C 0.06718 0.96589 0.63272 0.0
C1457 C 0.03484 0.95214 0.6284 0.0
C1458 C 0.00593 0.04529 0.64109 0.0
H1459 H 0.91321 1.0058 0.63858 0.0
H1460 H 0.94532 0.98351 0.63637 0.0
H1461 H 0.9833 0.08281 0.65071 0.0
H1462 H 0.07451 0.03363 0.63655 0.0
H1463 H 0.04321 0.06063 0.6338 0.0
H1464 H 0.00318 0.96639 0.60872 0.0
C1465 C 0.9418 1.01744 0.63443 0.0
C1466 C 0.98759 0.05738 0.6415 0.0
C1467 C 0.92352 0.03016 0.63574 0.0
C1468 C 0.06355 1.0106 0.63421 0.0
C1469 C 0.04563 0.02596 0.63274 0.0
C1470 C -0.00096 0.99152 0.61811 0.0
C1471 C 0.95546 0.04859 0.63116 0.0
C1472 C 0.97482 0.036 0.63052 0.0
C1473 C 0.03106 0.99675 0.62998 0.0
C1474 C 0.01186 1.01198 0.62948 0.0
H1475 H 0.9292 0.139 0.62801 0.0
H1476 H 0.96096 0.11673 0.62612 0.0
H1477 H 0.97103 0.98674 0.60999 0.0
H1478 H 0.0549 0.90222 0.6286 0.0
H1479 H 0.02398 0.92854 0.62672 0.0
C1480 C 0.43087 0.44316 0.13089 0.0
C1481 C 0.41723 0.47507 0.13256 0.0
C1482 C 0.44918 0.45489 0.12995 0.0
C1483 C 0.48042 0.54562 0.1406 0.0
H1484 H 0.5144 0.47853 0.11156 0.0
C1485 C 0.55338 0.60142 0.12623 0.0
C1486 C 0.56728 0.57217 0.13116 0.0
C1487 C 0.53529 0.58798 0.12568 0.0
C1488 C 0.50503 0.49719 0.11981 0.0
H1489 H 0.41205 0.54441 0.13411 0.0
H1490 H 0.44416 0.56521 0.13181 0.0
H1491 H 0.48194 0.46034 0.11107 0.0
H1492 H 0.57316 0.50539 0.13869 0.0
H1493 H 0.54116 0.48151 0.13731 0.0
H1494 H 0.50355 0.58332 0.14881 0.0
C1495 C 0.44067 0.53095 0.13172 0.0
C1496 C 0.48648 0.48686 0.11959 0.0
C1497 C 0.42228 0.51913 0.13293 0.0
C1498 C 0.56273 0.52862 0.13488 0.0
C1499 C 0.54451 0.51498 0.13407 0.0
C1500 C 0.4989 0.55634 0.14058 0.0
C1501 C 0.45434 0.49888 0.1304 0.0
C1502 C 0.47396 0.51088 0.13004 0.0
C1503 C 0.53068 0.5449 0.12981 0.0
C1504 C 0.51132 0.53218 0.13022 0.0
H1505 H 0.42748 0.40883 0.1308 0.0
H1506 H 0.4593 0.42926 0.12935 0.0
H1507 H 0.47127 0.5642 0.14911 0.0
H1508 H 0.55636 0.63521 0.12324 0.0
H1509 H 0.52482 0.61142 0.12217 0.0
C1510 C 0.42186 0.51752 0.38613 0.0
C1511 C 0.41658 0.5609 0.38882 0.0
C1512 C 0.44031 0.50607 0.38683 0.0
C1513 C 0.4856 0.54787 0.40187 0.0
H1514 H 0.50381 0.46016 0.36885 0.0
C1515 C 0.56239 0.51031 0.38734 0.0
C1516 C 0.56676 0.4663 0.39017 0.0
C1517 C 0.54415 0.52381 0.38767 0.0
C1518 C 0.49884 0.48478 0.3781 0.0
H1519 H 0.42641 0.62647 0.39401 0.0
H1520 H 0.45833 0.60693 0.39452 0.0
H1521 H 0.47147 0.47876 0.36854 0.0
H1522 H 0.55551 0.40209 0.39573 0.0
H1523 H 0.52393 0.42569 0.39593 0.0
H1524 H 0.51325 0.55441 0.411 0.0
C1525 C 0.44837 0.58132 0.39254 0.0
C1526 C 0.48032 0.49512 0.37808 0.0
C1527 C 0.43001 0.59256 0.39215 0.0
C1528 C 0.55266 0.43629 0.39355 0.0
C1529 C 0.53455 0.44961 0.39357 0.0
C1530 C 0.50418 0.53802 0.40165 0.0
C1531 C 0.45378 0.53797 0.38992 0.0
C1532 C 0.47345 0.52659 0.39006 0.0
C1533 C 0.53015 0.49327 0.39048 0.0
C1534 C 0.51086 0.50617 0.38987 0.0
H1535 H 0.41176 0.49248 0.3836 0.0
H1536 H 0.44399 0.47222 0.38502 0.0
H1537 H 0.48075 0.57174 0.4115 0.0
H1538 H 0.57299 0.53408 0.3847 0.0
H1539 H 0.54094 0.55774 0.38527 0.0
C1540 C 0.4318 0.43762 0.89347 0.0
C1541 C 0.41829 0.46918 0.89027 0.0
C1542 C 0.4501 0.44939 0.89437 0.0
C1543 C 0.4811 0.53475 0.9057 0.0
H1544 H 0.51465 0.47946 0.87227 0.0
C1545 C 0.55473 0.59396 0.89709 0.0
C1546 C 0.56847 0.56402 0.89253 0.0
C1547 C 0.53658 0.58097 0.89803 0.0
C1548 C 0.50557 0.49456 0.88195 0.0
H1549 H 0.41327 0.5379 0.88586 0.0
H1550 H 0.44561 0.55879 0.88801 0.0
H1551 H 0.4823 0.46098 0.87134 0.0
H1552 H 0.57405 0.49652 0.88608 0.0
H1553 H 0.54224 0.47321 0.88843 0.0
H1554 H 0.50427 0.56721 0.91683 0.0
C1555 C 0.44181 0.52491 0.8896 0.0
C1556 C 0.48705 0.4843 0.88126 0.0
C1557 C 0.42342 0.51299 0.88833 0.0
C1558 C 0.56373 0.52035 0.88952 0.0
C1559 C 0.5455 0.50713 0.89074 0.0
C1560 C 0.49968 0.54443 0.90665 0.0
C1561 C 0.45524 0.493 0.89241 0.0
C1562 C 0.4747 0.50461 0.89302 0.0
C1563 C 0.53168 0.53751 0.89473 0.0
C1564 C 0.51213 0.5248 0.89464 0.0
H1565 H 0.42832 0.4035 0.89488 0.0
H1566 H 0.46027 0.42438 0.89664 0.0
H1567 H 0.47177 0.55021 0.91507 0.0
H1568 H 0.55785 0.628 0.89934 0.0
H1569 H 0.52635 0.60551 0.90075 0.0
C1570 C 0.43204 0.60043 0.63093 0.0
C1571 C 0.41867 0.56837 0.63396 0.0
C1572 C 0.45038 0.58918 0.62985 0.0
C1573 C 0.48146 0.50442 0.6177 0.0
H1574 H 0.51536 0.55943 0.65086 0.0
C1575 C 0.55502 0.44469 0.62568 0.0
C1576 C 0.56885 0.47446 0.63021 0.0
C1577 C 0.5369 0.45787 0.62484 0.0
C1578 C 0.50618 0.54443 0.64124 0.0
H1579 H 0.41393 0.49937 0.63793 0.0
H1580 H 0.44632 0.47942 0.63547 0.0
H1581 H 0.48302 0.57785 0.65217 0.0
H1582 H 0.57462 0.54188 0.63669 0.0
H1583 H 0.54287 0.56552 0.63452 0.0
H1584 H 0.5045 0.47205 0.60628 0.0
C1585 C 0.44241 0.51327 0.63415 0.0
C1586 C 0.48766 0.55466 0.64215 0.0
C1587 C 0.42398 0.52465 0.63561 0.0
C1588 C 0.56423 0.51817 0.63327 0.0
C1589 C 0.54603 0.53158 0.63216 0.0
C1590 C 0.50002 0.49477 0.61654 0.0
C1591 C 0.4557 0.54561 0.63145 0.0
C1592 C 0.47519 0.5344 0.63051 0.0
C1593 C 0.53211 0.50136 0.62822 0.0
C1594 C 0.51259 0.51425 0.62846 0.0
H1595 H 0.42839 0.63449 0.62975 0.0
H1596 H 0.46044 0.61454 0.62767 0.0
H1597 H 0.47203 0.48898 0.60841 0.0
H1598 H 0.55805 0.41063 0.62339 0.0
H1599 H 0.52659 0.43344 0.62215 0.0
C1600 C 0.1243 0.78833 0.16608 0.0
C1601 C 0.13224 0.81331 0.1522 0.0
C1602 C 0.1228 0.74303 0.16453 0.0
C1603 C 0.12321 0.6529 0.13104 0.0
H1604 H 0.13238 0.58114 0.17316 0.0
C1605 C 0.12724 0.46483 0.12643 0.0
C1606 C 0.11911 0.44047 0.1404 0.0
C1607 C 0.12925 0.51005 0.12792 0.0
C1608 C 0.12957 0.60065 0.1613 0.0
H1609 H 0.14487 0.80969 0.12575 0.0
H1610 H 0.14224 0.73076 0.12302 0.0
H1611 H 0.13486 0.66006 0.17549 0.0
H1612 H 0.1067 0.44509 0.16692 0.0
H1613 H 0.1102 0.52378 0.16953 0.0
H1614 H 0.11788 0.59348 0.11685 0.0
C1615 C 0.13695 0.74632 0.13505 0.0
C1616 C 0.13099 0.64602 0.16264 0.0
C1617 C 0.13845 0.79168 0.13661 0.0
C1618 C 0.11327 0.46259 0.15601 0.0
C1619 C 0.11527 0.50783 0.1575 0.0
C1620 C 0.12178 0.60751 0.1297 0.0
C1621 C 0.12918 0.72131 0.14903 0.0
C1622 C 0.1278 0.67284 0.14754 0.0
C1623 C 0.12319 0.53227 0.14342 0.0
C1624 C 0.12491 0.58071 0.14482 0.0
H1625 H 0.11905 0.80384 0.17814 0.0
H1626 H 0.11641 0.72507 0.17542 0.0
H1627 H 0.12038 0.67242 0.11918 0.0
H1628 H 0.13218 0.4489 0.11434 0.0
H1629 H 0.13572 0.52756 0.11695 0.0
C1630 C 0.84881 0.25655 0.13626 0.0
C1631 C 0.85552 0.23501 0.15166 0.0
C1632 C 0.85012 0.30192 0.13468 0.0
C1633 C 0.85639 0.40209 0.16212 0.0
H1634 H 0.86831 0.45501 0.11606 0.0
C1635 C 0.87348 0.58568 0.15501 0.0
C1636 C 0.86716 0.60767 0.13956 0.0
C1637 C 0.87161 0.54044 0.15658 0.0
C1638 C 0.86474 0.44085 0.12899 0.0
H1639 H 0.86937 0.24455 0.17724 0.0
H1640 H 0.87168 0.32339 0.17449 0.0
H1641 H 0.86616 0.37602 0.11844 0.0
H1642 H 0.85335 0.59912 0.11389 0.0
H1643 H 0.85004 0.52042 0.11665 0.0
H1644 H 0.85499 0.46691 0.17268 0.0
C1645 C 0.86506 0.30534 0.16376 0.0
C1646 C 0.86351 0.39546 0.13035 0.0
C1647 C 0.86375 0.26003 0.16534 0.0
C1648 C 0.85866 0.58325 0.12585 0.0
C1649 C 0.85678 0.53803 0.12742 0.0
C1650 C 0.85761 0.44748 0.16076 0.0
C1651 C 0.85818 0.32697 0.14846 0.0
C1652 C 0.85936 0.37542 0.14695 0.0
C1653 C 0.86335 0.51593 0.14275 0.0
C1654 C 0.86183 0.46751 0.14418 0.0
H1655 H 0.84216 0.23846 0.12557 0.0
H1656 H 0.84446 0.31744 0.12281 0.0
H1657 H 0.85285 0.38792 0.17506 0.0
H1658 H 0.88033 0.60327 0.16571 0.0
H1659 H 0.87706 0.52454 0.16846 0.0
C1660 C 0.139 0.25198 0.39037 0.0
C1661 C 0.128 0.22703 0.37873 0.0
C1662 C 0.13743 0.29742 0.39089 0.0
C1663 C 0.12068 0.39147 0.36403 0.0
H1664 H 0.12429 0.45306 0.40957 0.0
C1665 C 0.10488 0.57584 0.37049 0.0
C1666 C 0.11578 0.60083 0.38221 0.0
C1667 C 0.10659 0.53043 0.36987 0.0
C1668 C 0.12347 0.43648 0.39669 0.0
H1669 H 0.10633 0.23067 0.35884 0.0
H1670 H 0.10355 0.30973 0.35979 0.0
H1671 H 0.12655 0.37392 0.40911 0.0
H1672 H 0.13746 0.59734 0.40209 0.0
H1673 H 0.14049 0.51834 0.40097 0.0
H1674 H 0.1176 0.45404 0.35162 0.0
C1675 C 0.11366 0.29423 0.36829 0.0
C1676 C 0.12476 0.39098 0.39643 0.0
C1677 C 0.11524 0.24879 0.36777 0.0
C1678 C 0.12862 0.57916 0.39311 0.0
C1679 C 0.13034 0.53377 0.39249 0.0
C1680 C 0.1194 0.43697 0.36429 0.0
C1681 C 0.1248 0.31923 0.37979 0.0
C1682 C 0.12337 0.3678 0.3801 0.0
C1683 C 0.11927 0.50871 0.38095 0.0
C1684 C 0.12077 0.46015 0.38063 0.0
H1685 H 0.14918 0.2365 0.3988 0.0
H1686 H 0.14643 0.31554 0.39973 0.0
H1687 H 0.11986 0.37488 0.35115 0.0
H1688 H 0.09465 0.59125 0.3621 0.0
H1689 H 0.09764 0.51227 0.361 0.0
C1690 C 0.88191 0.46262 0.39245 0.0
C1691 C 0.8689 0.43403 0.38504 0.0
C1692 C 0.87994 0.50773 0.39077 0.0
C1693 C 0.8456 0.59365 0.38191 0.0
H1694 H 0.88821 0.66525 0.37266 0.0
C1695 C 0.8403 0.77771 0.36544 0.0
C1696 C 0.85358 0.80576 0.37274 0.0
C1697 C 0.84199 0.73248 0.36707 0.0
C1698 C 0.87619 0.64585 0.37547 0.0
H1699 H 0.84354 0.43089 0.37002 0.0
H1700 H 0.84023 0.50966 0.36684 0.0
H1701 H 0.89147 0.5865 0.37487 0.0
H1702 H 0.8791 0.80781 0.38755 0.0
H1703 H 0.88188 0.72904 0.39069 0.0
H1704 H 0.83032 0.65305 0.38252 0.0
C1705 C 0.85189 0.49708 0.37414 0.0
C1706 C 0.87806 0.60059 0.37672 0.0
C1707 C 0.85389 0.45186 0.37578 0.0
C1708 C 0.86852 0.7873 0.38188 0.0
C1709 C 0.87023 0.74204 0.38349 0.0
C1710 C 0.84373 0.63894 0.38066 0.0
C1711 C 0.86489 0.52563 0.38162 0.0
C1712 C 0.8628 0.57385 0.37999 0.0
C1713 C 0.85703 0.71399 0.37604 0.0
C1714 C 0.859 0.66569 0.37745 0.0
H1715 H 0.89378 0.45013 0.39946 0.0
H1716 H 0.89012 0.52861 0.39688 0.0
H1717 H 0.83359 0.57421 0.38471 0.0
H1718 H 0.82848 0.79069 0.35851 0.0
H1719 H 0.83164 0.71199 0.36101 0.0
C1720 C 0.84015 0.26129 0.86303 0.0
C1721 C 0.85195 0.23305 0.87239 0.0
C1722 C 0.84185 0.30652 0.86471 0.0
C1723 C 0.87483 0.39258 0.87797 0.0
H1724 H 0.83173 0.46555 0.88008 0.0
C1725 C 0.87906 0.57649 0.89431 0.0
C1726 C 0.86754 0.60509 0.8848 0.0
C1727 C 0.87703 0.53134 0.89275 0.0
C1728 C 0.84393 0.44574 0.87929 0.0
H1729 H 0.87485 0.23076 0.89091 0.0
H1730 H 0.8776 0.30953 0.89411 0.0
H1731 H 0.82839 0.38674 0.87777 0.0
H1732 H 0.84473 0.60809 0.86619 0.0
H1733 H 0.84138 0.52931 0.86322 0.0
H1734 H 0.89038 0.45152 0.87949 0.0
C1735 C 0.86713 0.29666 0.88527 0.0
C1736 C 0.84201 0.40045 0.87797 0.0
C1737 C 0.86541 0.25138 0.88361 0.0
C1738 C 0.85395 0.58716 0.87361 0.0
C1739 C 0.85189 0.54191 0.87207 0.0
C1740 C 0.87675 0.43784 0.87929 0.0
C1741 C 0.85542 0.32489 0.87579 0.0
C1742 C 0.85744 0.37321 0.87731 0.0
C1743 C 0.86342 0.51336 0.88161 0.0
C1744 C 0.86133 0.46508 0.88 0.0
H1745 H 0.82946 0.24845 0.85445 0.0
H1746 H 0.83269 0.32711 0.85706 0.0
H1747 H 0.88703 0.37281 0.87716 0.0
H1748 H 0.88984 0.58897 0.90287 0.0
H1749 H 0.88604 0.51049 0.90047 0.0
C1750 C 0.11155 0.45959 0.86892 0.0
C1751 C 0.11751 0.43749 0.88448 0.0
C1752 C 0.11349 0.50484 0.86742 0.0
C1753 C 0.11996 0.60436 0.89521 0.0
H1754 H 0.13286 0.65728 0.8494 0.0
C1755 C 0.13645 0.78854 0.88836 0.0
C1756 C 0.13015 0.81024 0.87283 0.0
C1757 C 0.13499 0.74318 0.88989 0.0
C1758 C 0.12904 0.64313 0.86226 0.0
H1759 H 0.13075 0.44589 0.91044 0.0
H1760 H 0.13419 0.52458 0.90781 0.0
H1761 H 0.1305 0.57832 0.85169 0.0
H1762 H 0.11685 0.80095 0.84695 0.0
H1763 H 0.11428 0.72214 0.84961 0.0
H1764 H 0.11848 0.66919 0.90576 0.0
C1765 C 0.12767 0.50705 0.89689 0.0
C1766 C 0.12769 0.59774 0.86358 0.0
C1767 C 0.12572 0.46183 0.89839 0.0
C1768 C 0.12216 0.78536 0.85896 0.0
C1769 C 0.1207 0.74005 0.86049 0.0
C1770 C 0.12132 0.64976 0.89389 0.0
C1771 C 0.12147 0.52927 0.88144 0.0
C1772 C 0.1231 0.57769 0.88006 0.0
C1773 C 0.12717 0.71826 0.87593 0.0
C1774 C 0.12584 0.6698 0.87739 0.0
H1775 H 0.10492 0.44208 0.85805 0.0
H1776 H 0.10832 0.52081 0.85543 0.0
H1777 H 0.11611 0.59022 0.90806 0.0
H1778 H 0.1429 0.8065 0.89921 0.0
H1779 H 0.14035 0.72755 0.90187 0.0
C1780 C 0.84183 0.78154 0.66073 0.0
C1781 C 0.85367 0.80976 0.65137 0.0
C1782 C 0.84346 0.73631 0.65902 0.0
C1783 C 0.8763 0.65022 0.64567 0.0
H1784 H 0.83309 0.57744 0.64354 0.0
C1785 C 0.88022 0.46641 0.6292 0.0
C1786 C 0.86869 0.43785 0.63875 0.0
C1787 C 0.87826 0.51156 0.63078 0.0
C1788 C 0.84531 0.5972 0.64433 0.0
H1789 H 0.87656 0.81204 0.63281 0.0
H1790 H 0.87918 0.73328 0.62955 0.0
H1791 H 0.82986 0.65625 0.64589 0.0
H1792 H 0.84593 0.43486 0.65744 0.0
H1793 H 0.84269 0.51366 0.66044 0.0
H1794 H 0.89175 0.59121 0.64411 0.0
C1795 C 0.86874 0.74616 0.63841 0.0
C1796 C 0.84346 0.64249 0.64567 0.0
C1797 C 0.86709 0.79143 0.64011 0.0
C1798 C 0.85515 0.45578 0.64999 0.0
C1799 C 0.85316 0.50103 0.65155 0.0
C1800 C 0.87815 0.60496 0.64433 0.0
C1801 C 0.85699 0.71795 0.6479 0.0
C1802 C 0.85893 0.66965 0.64635 0.0
C1803 C 0.86471 0.52954 0.64197 0.0
C1804 C 0.86269 0.5778 0.64361 0.0
H1805 H 0.83117 0.79438 0.66935 0.0
H1806 H 0.83428 0.71572 0.66667 0.0
H1807 H 0.88853 0.66993 0.64649 0.0
H1808 H 0.89097 0.4539 0.6206 0.0
H1809 H 0.88728 0.53239 0.62304 0.0
C1810 C 0.13362 0.24965 0.62929 0.0
C1811 C 0.1279 0.22498 0.64429 0.0
C1812 C 0.13185 0.29506 0.62917 0.0
C1813 C 0.12647 0.38984 0.65988 0.0
H1814 H 0.1125 0.45035 0.61606 0.0
C1815 C 0.1091 0.57413 0.65881 0.0
C1816 C 0.11498 0.59882 0.64388 0.0
C1817 C 0.11098 0.52874 0.65898 0.0
C1818 C 0.11664 0.43407 0.62837 0.0
H1819 H 0.11577 0.22925 0.67095 0.0
H1820 H 0.11237 0.3082 0.67061 0.0
H1821 H 0.11474 0.37117 0.61602 0.0
H1822 H 0.12751 0.59468 0.61739 0.0
H1823 H 0.13103 0.51572 0.6178 0.0
H1824 H 0.12832 0.45276 0.67223 0.0
C1825 C 0.11843 0.29246 0.65898 0.0
C1826 C 0.11792 0.38855 0.62835 0.0
C1827 C 0.12016 0.24702 0.65908 0.0
C1828 C 0.12299 0.57686 0.6292 0.0
C1829 C 0.1248 0.53144 0.62934 0.0
C1830 C 0.12517 0.43536 0.6599 0.0
C1831 C 0.12434 0.31717 0.64406 0.0
C1832 C 0.12285 0.36576 0.64411 0.0
C1833 C 0.11872 0.5067 0.64418 0.0
C1834 C 0.12025 0.45814 0.64414 0.0
H1835 H 0.13948 0.23384 0.61757 0.0
H1836 H 0.13671 0.31291 0.6175 0.0
H1837 H 0.13061 0.37358 0.67219 0.0
H1838 H 0.10303 0.58991 0.67043 0.0
H1839 H 0.106 0.51083 0.67059 0.0
C1840 C 0.60985 0.96098 0.15685 0.0
C1841 C 0.61583 0.93697 0.14179 0.0
C1842 C 0.61154 1.0064 0.15724 0.0
C1843 C 0.61666 0.10201 0.12711 0.0
H1844 H 0.63083 0.16155 0.17108 0.0
C1845 C 0.63319 0.28655 0.12874 0.0
C1846 C 0.62746 0.31066 0.14387 0.0
C1847 C 0.63153 0.24113 0.12843 0.0
C1848 C 0.62663 0.14553 0.15874 0.0
H1849 H 0.62833 0.94224 0.11533 0.0
H1850 H 0.63153 0.02127 0.11612 0.0
H1851 H 0.62882 0.0823 0.17078 0.0
H1852 H 0.61546 0.30547 0.17057 0.0
H1853 H 0.61225 0.22646 0.1699 0.0
H1854 H 0.61443 0.1652 0.11507 0.0
C1855 C 0.62537 1.005 0.12758 0.0
C1856 C 0.62549 0.1 0.15856 0.0
C1857 C 0.62374 0.95957 0.12722 0.0
C1858 C 0.61984 0.2881 0.15861 0.0
C1859 C 0.61821 0.24266 0.15832 0.0
C1860 C 0.61777 0.14753 0.12729 0.0
C1861 C 0.61919 0.02907 0.14255 0.0
C1862 C 0.62051 0.07761 0.14274 0.0
C1863 C 0.62413 0.2185 0.14327 0.0
C1864 C 0.62278 0.16995 0.14311 0.0
H1865 H 0.60384 0.94465 0.16838 0.0
H1866 H 0.60651 0.02382 0.16894 0.0
H1867 H 0.61247 0.08597 0.11476 0.0
H1868 H 0.63895 0.3028 0.11707 0.0
H1869 H 0.63638 0.22368 0.11667 0.0
C1870 C 0.34671 0.76573 0.13353 0.0
C1871 C 0.35314 0.74502 0.14923 0.0
C1872 C 0.34828 0.81089 0.1315 0.0
C1873 C 0.35467 0.91231 0.15787 0.0
H1874 H 0.36812 0.96167 0.11153 0.0
C1875 C 0.37294 0.09451 0.14907 0.0
C1876 C 0.36688 0.11556 0.13331 0.0
C1877 C 0.37094 0.04944 0.15107 0.0
C1878 C 0.36413 0.94848 0.12452 0.0
H1879 H 0.36675 0.75561 0.17487 0.0
H1880 H 0.36952 0.83418 0.17131 0.0
H1881 H 0.36539 0.88295 0.11475 0.0
H1882 H 0.35345 0.10575 0.10753 0.0
H1883 H 0.3499 0.02731 0.11105 0.0
H1884 H 0.35342 0.97783 0.16764 0.0
C1885 C 0.36293 0.81566 0.16071 0.0
C1886 C 0.36257 0.9033 0.12636 0.0
C1887 C 0.36135 0.77056 0.16275 0.0
C1888 C 0.35856 0.0905 0.11971 0.0
C1889 C 0.35654 0.04548 0.12172 0.0
C1890 C 0.35622 0.95749 0.15602 0.0
C1891 C 0.35634 0.83646 0.1451 0.0
C1892 C 0.35786 0.88461 0.14307 0.0
C1893 C 0.3628 0.0243 0.13738 0.0
C1894 C 0.361 0.97618 0.13933 0.0
H1895 H 0.3401 0.74714 0.12296 0.0
H1896 H 0.34285 0.82588 0.1194 0.0
H1897 H 0.35071 0.89911 0.17086 0.0
H1898 H 0.37963 0.11272 0.15971 0.0
H1899 H 0.37615 0.03417 0.16321 0.0
C1900 C 0.6097 0.07807 0.36599 0.0
C1901 C 0.61577 0.1022 0.38098 0.0
C1902 C 0.61145 0.03268 0.36561 0.0
C1903 C 0.61695 0.9372 0.39573 0.0
H1904 H 0.63068 0.87771 0.35161 0.0
C1905 C 0.63338 0.75266 0.39389 0.0
C1906 C 0.62746 0.72858 0.37883 0.0
C1907 C 0.63176 0.79808 0.39423 0.0
C1908 C 0.6266 0.89371 0.364 0.0
H1909 H 0.62852 0.09717 0.40733 0.0
H1910 H 0.63182 1.01817 0.40655 0.0
H1911 H 0.62866 0.95694 0.35193 0.0
H1912 H 0.61516 0.7338 0.35227 0.0
H1913 H 0.61203 0.81281 0.353 0.0
H1914 H 0.61485 0.87401 0.4078 0.0
C1915 C 0.62554 0.03433 0.39513 0.0
C1916 C 0.62547 0.93923 0.36418 0.0
C1917 C 0.62385 0.07975 0.39548 0.0
C1918 C 0.61969 0.75116 0.36419 0.0
C1919 C 0.61811 0.7966 0.36451 0.0
C1920 C 0.61807 0.89169 0.39555 0.0
C1921 C 0.61926 1.01014 0.38024 0.0
C1922 C 0.62063 0.96161 0.38006 0.0
C1923 C 0.62422 0.82073 0.37949 0.0
C1924 C 0.62291 0.86929 0.37968 0.0
H1925 H 0.60356 0.09429 0.35451 0.0
H1926 H 0.60633 1.01516 0.35397 0.0
H1927 H 0.61289 0.95323 0.40812 0.0
H1928 H 0.63926 0.73639 0.40549 0.0
H1929 H 0.63676 0.81552 0.40594 0.0
C1930 C 0.37732 0.95021 0.39553 0.0
C1931 C 0.36565 0.92165 0.38617 0.0
C1932 C 0.37534 0.99531 0.39391 0.0
C1933 C 0.34216 0.08062 0.38095 0.0
H1934 H 0.3853 0.15347 0.37782 0.0
C1935 C 0.33839 0.26479 0.36461 0.0
C1936 C 0.35039 0.29291 0.3738 0.0
C1937 C 0.34004 0.2196 0.36629 0.0
C1938 C 0.37311 0.13369 0.37891 0.0
H1939 H 0.34268 0.91846 0.36776 0.0
H1940 H 0.33941 0.99725 0.36469 0.0
H1941 H 0.38861 0.07474 0.38007 0.0
H1942 H 0.37351 0.29518 0.39205 0.0
H1943 H 0.37615 0.2164 0.39526 0.0
H1944 H 0.32666 0.13962 0.37979 0.0
C1945 C 0.34998 0.98465 0.37346 0.0
C1946 C 0.375 0.08848 0.38018 0.0
C1947 C 0.35199 0.93945 0.37506 0.0
C1948 C 0.36394 0.27458 0.38489 0.0
C1949 C 0.3656 0.22935 0.38656 0.0
C1950 C 0.34026 0.12587 0.37968 0.0
C1951 C 0.36164 1.01317 0.38287 0.0
C1952 C 0.35956 0.06133 0.38125 0.0
C1953 C 0.35372 0.20124 0.37721 0.0
C1954 C 0.35571 0.15302 0.37867 0.0
H1955 H 0.38815 0.93773 0.40402 0.0
H1956 H 0.38444 1.0162 0.4015 0.0
H1957 H 0.32998 0.0608 0.38202 0.0
H1958 H 0.32764 0.27771 0.35613 0.0
H1959 H 0.33075 0.19903 0.35876 0.0
C1960 C 0.36305 0.75416 0.8864 0.0
C1961 C 0.35267 0.73568 0.87238 0.0
C1962 C 0.36454 0.79942 0.88814 0.0
C1963 C 0.34253 0.9032 0.87439 0.0
H1964 H 0.38945 0.95323 0.88688 0.0
C1965 C 0.35645 0.08906 0.87151 0.0
C1966 C 0.36698 0.10715 0.88551 0.0
C1967 C 0.35451 0.04384 0.86988 0.0
C1968 C 0.37619 0.93982 0.88358 0.0
H1969 H 0.33537 0.7507 0.84944 0.0
H1970 H 0.33829 0.82938 0.85223 0.0
H1971 H 0.38632 0.87451 0.88435 0.0
H1972 H 0.38396 0.09148 0.90862 0.0
H1973 H 0.38028 1.013 0.90602 0.0
H1974 H 0.33242 0.96859 0.87359 0.0
C1975 C 0.34517 0.80892 0.862 0.0
C1976 C 0.37439 0.8946 0.88214 0.0
C1977 C 0.34368 0.7637 0.86026 0.0
C1978 C 0.37555 0.07882 0.89781 0.0
C1979 C 0.37363 0.03369 0.89617 0.0
C1980 C 0.34434 0.94846 0.87582 0.0
C1981 C 0.35568 0.82741 0.87591 0.0
C1982 C 0.35754 0.87565 0.87755 0.0
C1983 C 0.36311 1.01556 0.88219 0.0
C1984 C 0.36118 0.96737 0.88046 0.0
H1985 H 0.37029 0.73366 0.8959 0.0
H1986 H 0.37258 0.81247 0.89915 0.0
H1987 H 0.32928 0.88977 0.87108 0.0
H1988 H 0.34955 0.10986 0.86188 0.0
H1989 H 0.34645 0.03104 0.85884 0.0
C1990 C 0.62211 0.28322 0.88683 0.0
C1991 C 0.63439 0.30138 0.8743 0.0
C1992 C 0.62045 0.23799 0.88864 0.0
C1993 C 0.64427 0.13389 0.87868 0.0
H1994 H 0.59601 0.08396 0.88445 0.0
C1995 C 0.63094 0.94793 0.87428 0.0
C1996 C 0.61841 0.92995 0.88662 0.0
C1997 C 0.6331 0.99315 0.87287 0.0
C1998 C 0.60962 0.09734 0.88305 0.0
H1999 H 0.65489 0.28581 0.85416 0.0
H2000 H 0.65173 0.20719 0.85704 0.0
H2001 H 0.59948 0.16265 0.88217 0.0
H2002 H 0.59813 0.94583 0.90694 0.0
H2003 H 0.60216 0.02428 0.90474 0.0
H2004 H 0.65438 0.0685 0.87952 0.0
C2005 C 0.64347 0.22788 0.8656 0.0
C2006 C 0.61161 0.14255 0.88176 0.0
C2007 C 0.64512 0.27307 0.86379 0.0
C2008 C 0.60808 0.9584 0.89745 0.0
C2009 C 0.61022 1.00352 0.89603 0.0
C2010 C 0.64227 0.08864 0.87997 0.0
C2011 C 0.63104 0.20969 0.87797 0.0
C2012 C 0.62896 0.16147 0.87955 0.0
C2013 C 0.62274 0.02155 0.88371 0.0
C2014 C 0.62491 0.06975 0.88219 0.0
H2015 H 0.61351 0.30394 0.89505 0.0
H2016 H 0.6109 0.22519 0.89846 0.0
H2017 H 0.65787 0.14729 0.87725 0.0
H2018 H 0.63923 0.92706 0.86583 0.0
H2019 H 0.64274 1.00586 0.86311 0.0
C2020 C 0.37342 0.94947 0.65392 0.0
C2021 C 0.36518 0.9273 0.63944 0.0
C2022 C 0.3717 0.99467 0.65563 0.0
C2023 C 0.36137 0.09369 0.62891 0.0
H2024 H 0.35516 0.14707 0.67595 0.0
C2025 C 0.34627 0.2777 0.63767 0.0
C2026 C 0.3549 0.29944 0.65204 0.0
C2027 C 0.3474 0.23236 0.63605 0.0
C2028 C 0.3571 0.13275 0.66272 0.0
H2029 H 0.34813 0.93537 0.61573 0.0
H2030 H 0.34509 1.01406 0.61875 0.0
H2031 H 0.35701 0.06806 0.67351 0.0
H2032 H 0.37195 0.29041 0.67569 0.0
H2033 H 0.37395 0.21154 0.67286 0.0
H2034 H 0.36149 0.15839 0.61813 0.0
C2035 C 0.35319 0.99661 0.6286 0.0
C2036 C 0.35815 0.08738 0.66133 0.0
C2037 C 0.35492 0.95144 0.62689 0.0
C2038 C 0.36486 0.27471 0.66463 0.0
C2039 C 0.366 0.22942 0.66301 0.0
C2040 C 0.36031 0.13906 0.63031 0.0
C2041 C 0.36168 0.0189 0.64291 0.0
C2042 C 0.36032 0.06723 0.64441 0.0
C2043 C 0.35721 0.20759 0.64876 0.0
C2044 C 0.3582 0.15921 0.64724 0.0
H2045 H 0.38164 0.93205 0.66369 0.0
H2046 H 0.37863 1.01076 0.66669 0.0
H2047 H 0.36334 0.07939 0.61569 0.0
H2048 H 0.33828 0.29562 0.62787 0.0
H2049 H 0.34026 0.21663 0.62504 0.0
C2050 C 0.62304 0.75556 0.63612 0.0
C2051 C 0.6353 0.73708 0.64857 0.0
C2052 C 0.62156 0.80084 0.63438 0.0
C2053 C 0.6309 0.9037 0.65896 0.0
H2054 H 0.62463 0.95651 0.61181 0.0
C2055 C 0.63203 0.09088 0.64839 0.0
C2056 C 0.61931 0.10844 0.63617 0.0
C2057 C 0.6344 0.04574 0.64983 0.0
C2058 C 0.62618 0.94229 0.62511 0.0
H2059 H 0.65602 0.75213 0.66855 0.0
H2060 H 0.65341 0.83085 0.66553 0.0
H2061 H 0.62798 0.87777 0.61429 0.0
H2062 H 0.59879 0.09183 0.6162 0.0
H2063 H 0.60294 1.01348 0.61868 0.0
H2064 H 0.62904 0.96821 0.66978 0.0
C2065 C 0.64468 0.81035 0.65734 0.0
C2066 C 0.6281 0.89707 0.62653 0.0
C2067 C 0.64618 0.76512 0.65907 0.0
C2068 C 0.60898 0.07962 0.6255 0.0
C2069 C 0.61135 0.03457 0.62692 0.0
C2070 C 0.62898 0.94893 0.65754 0.0
C2071 C 0.63229 0.82886 0.64504 0.0
C2072 C 0.63044 0.87713 0.64348 0.0
C2073 C 0.62411 1.01697 0.63909 0.0
C2074 C 0.62653 0.96884 0.6406 0.0
H2075 H 0.61427 0.73505 0.62799 0.0
H2076 H 0.61169 0.81388 0.62494 0.0
H2077 H 0.63239 0.88948 0.67226 0.0
H2078 H 0.64039 0.11204 0.65667 0.0
H2079 H 0.64451 0.0334 0.65918 0.0
loop_
_geom_bond_atom_site_label_1
_geom_bond_atom_site_label_2
_geom_bond_distance
_geom_bond_site_symmetry_2
_ccdc_geom_bond_type
Pr0 C2 2.880 1_545 S
Pr0 O20 2.562 1_545 S
Pr0 O21 2.490 1_545 S
Pr0 O22 2.695 . S
Pr0 O23 2.512 . S
Pr0 O25 2.437 . S
Pr0 O28 2.436 . S
Pr0 O30 2.438 . S
Pr1 C11 2.880 . S
Pr1 O22 2.436 . S
Pr1 O24 2.438 . S
Pr1 O26 2.562 . S
Pr1 O27 2.490 . S
Pr1 O28 2.695 . S
Pr1 O29 2.512 . S
Pr1 O31 2.437 . S
C2 Pr0 2.880 1_565 S
C2 C3 1.491 . S
C2 O20 1.254 . S
C2 O21 1.225 . S
C3 C2 1.491 . S
C3 C4 1.392 . S
C3 C8 1.356 . S
C4 C3 1.392 . S
C4 C5 1.368 . S
C4 H32 0.929 . S
C5 C4 1.368 . S
C5 C6 1.386 . S
C5 H33 0.929 . S
C6 C5 1.386 . S
C6 C7 1.373 . S
C7 C6 1.373 . S
C7 C8 1.409 . S
C7 H34 0.931 . S
C8 C3 1.356 . S
C8 C7 1.409 . S
C8 H35 0.930 . S
C9 O22 1.270 . S
C9 O23 1.248 . S
C10 O24 1.267 . S
C10 O25 1.278 . S
C11 Pr1 2.880 . S
C11 C12 1.491 . S
C11 O26 1.254 . S
C11 O27 1.225 . S
C12 C11 1.491 . S
C12 C13 1.392 . S
C12 C17 1.356 . S
C13 C12 1.392 . S
C13 C14 1.368 . S
C13 H36 0.929 . S
C14 C13 1.368 . S
C14 C15 1.386 . S
C14 H37 0.929 . S
C15 C14 1.386 . S
C15 C16 1.373 . S
C16 C15 1.373 . S
C16 C17 1.409 . S
C16 H38 0.931 . S
C17 C12 1.356 . S
C17 C16 1.409 . S
C17 H39 0.930 . S
C18 O28 1.270 . S
C18 O29 1.248 . S
C19 O30 1.267 . S
C19 O31 1.278 . S
O20 Pr0 2.562 1_565 S
O20 C2 1.254 . S
O21 Pr0 2.490 1_565 S
O21 C2 1.225 . S
O22 Pr0 2.695 . S
O22 Pr1 2.436 . S
O22 C9 1.270 . S
O23 Pr0 2.512 . S
O23 C9 1.248 . S
O24 Pr1 2.438 . S
O24 C10 1.267 . S
O25 Pr0 2.437 . S
O25 C10 1.278 . S
O26 Pr1 2.562 . S
O26 C11 1.254 . S
O27 Pr1 2.490 . S
O27 C11 1.225 . S
O28 Pr0 2.436 . S
O28 Pr1 2.695 . S
O28 C18 1.270 . S
O29 Pr1 2.512 . S
O29 C18 1.248 . S
O30 Pr0 2.438 . S
O30 C19 1.267 . S
O31 Pr1 2.437 . S
O31 C19 1.278 . S
H32 C4 0.929 . S
H33 C5 0.929 . S
H34 C7 0.931 . S
H35 C8 0.930 . S
H36 C13 0.929 . S
H37 C14 0.929 . S
H38 C16 0.931 . S
H39 C17 0.930 . S
Pr40 C42 2.880 1_565 S
Pr40 O60 2.562 1_565 S
Pr40 O61 2.490 1_565 S
Pr40 O62 2.695 . S
Pr40 O63 2.512 . S
Pr40 O65 2.437 . S
Pr40 O68 2.436 . S
Pr40 O70 2.438 . S
Pr41 C51 2.880 . S
Pr41 O62 2.436 . S
Pr41 O64 2.438 . S
Pr41 O66 2.562 . S
Pr41 O67 2.490 . S
Pr41 O68 2.695 . S
Pr41 O69 2.512 . S
Pr41 O71 2.437 . S
C42 Pr40 2.880 1_545 S
C42 C43 1.491 . S
C42 O60 1.254 . S
C42 O61 1.225 . S
C43 C42 1.491 . S
C43 C44 1.392 . S
C43 C48 1.356 . S
C44 C43 1.392 . S
C44 C45 1.368 . S
C44 H72 0.929 . S
C45 C44 1.368 . S
C45 C46 1.386 . S
C45 H73 0.929 . S
C46 C45 1.386 . S
C46 C47 1.373 . S
C47 C46 1.373 . S
C47 C48 1.409 . S
C47 H74 0.931 . S
C48 C43 1.356 . S
C48 C47 1.409 . S
C48 H75 0.930 . S
C49 O62 1.270 . S
C49 O63 1.248 . S
C50 O64 1.267 . S
C50 O65 1.278 . S
C51 Pr41 2.880 . S
C51 C52 1.491 . S
C51 O66 1.254 . S
C51 O67 1.225 . S
C52 C51 1.491 . S
C52 C53 1.392 . S
C52 C57 1.356 . S
C53 C52 1.392 . S
C53 C54 1.368 . S
C53 H76 0.929 . S
C54 C53 1.368 . S
C54 C55 1.386 . S
C54 H77 0.929 . S
C55 C54 1.386 . S
C55 C56 1.373 . S
C56 C55 1.373 . S
C56 C57 1.409 . S
C56 H78 0.931 . S
C57 C52 1.356 . S
C57 C56 1.409 . S
C57 H79 0.930 . S
C58 O68 1.270 . S
C58 O69 1.248 . S
C59 O70 1.267 . S
C59 O71 1.278 . S
O60 Pr40 2.562 1_545 S
O60 C42 1.254 . S
O61 Pr40 2.490 1_545 S
O61 C42 1.225 . S
O62 Pr40 2.695 . S
O62 Pr41 2.436 . S
O62 C49 1.270 . S
O63 Pr40 2.512 . S
O63 C49 1.248 . S
O64 Pr41 2.438 . S
O64 C50 1.267 . S
O65 Pr40 2.437 . S
O65 C50 1.278 . S
O66 Pr41 2.562 . S
O66 C51 1.254 . S
O67 Pr41 2.490 . S
O67 C51 1.225 . S
O68 Pr40 2.436 . S
O68 Pr41 2.695 . S
O68 C58 1.270 . S
O69 Pr41 2.512 . S
O69 C58 1.248 . S
O70 Pr40 2.438 . S
O70 C59 1.267 . S
O71 Pr41 2.437 . S
O71 C59 1.278 . S
H72 C44 0.929 . S
H73 C45 0.929 . S
H74 C47 0.931 . S
H75 C48 0.930 . S
H76 C53 0.929 . S
H77 C54 0.929 . S
H78 C56 0.931 . S
H79 C57 0.930 . S
Pr80 C82 2.880 1_565 S
Pr80 O100 2.562 1_565 S
Pr80 O101 2.490 1_565 S
Pr80 O102 2.695 . S
Pr80 O103 2.512 . S
Pr80 O105 2.437 . S
Pr80 O108 2.436 . S
Pr80 O110 2.438 . S
Pr81 C91 2.880 . S
Pr81 O102 2.436 . S
Pr81 O104 2.438 . S
Pr81 O106 2.562 . S
Pr81 O107 2.490 . S
Pr81 O108 2.695 . S
Pr81 O109 2.512 . S
Pr81 O111 2.437 . S
C82 Pr80 2.880 1_545 S
C82 C83 1.491 . S
C82 O100 1.254 . S
C82 O101 1.225 . S
C83 C82 1.491 . S
C83 C84 1.392 . S
C83 C88 1.356 . S
C84 C83 1.392 . S
C84 C85 1.368 . S
C84 H112 0.929 . S
C85 C84 1.368 . S
C85 C86 1.386 . S
C85 H113 0.929 . S
C86 C85 1.386 . S
C86 C87 1.373 . S
C87 C86 1.373 . S
C87 C88 1.409 . S
C87 H114 0.931 . S
C88 C83 1.356 . S
C88 C87 1.409 . S
C88 H115 0.930 . S
C89 O102 1.270 . S
C89 O103 1.248 . S
C90 O104 1.267 . S
C90 O105 1.278 . S
C91 Pr81 2.880 . S
C91 C92 1.491 . S
C91 O106 1.254 . S
C91 O107 1.225 . S
C92 C91 1.491 . S
C92 C93 1.392 . S
C92 C97 1.356 . S
C93 C92 1.392 . S
C93 C94 1.368 . S
C93 H116 0.929 . S
C94 C93 1.368 . S
C94 C95 1.386 . S
C94 H117 0.929 . S
C95 C94 1.386 . S
C95 C96 1.373 . S
C96 C95 1.373 . S
C96 C97 1.409 . S
C96 H118 0.931 . S
C97 C92 1.356 . S
C97 C96 1.409 . S
C97 H119 0.930 . S
C98 O108 1.270 . S
C98 O109 1.248 . S
C99 O110 1.267 . S
C99 O111 1.278 . S
O100 Pr80 2.562 1_545 S
O100 C82 1.254 . S
O101 Pr80 2.490 1_545 S
O101 C82 1.225 . S
O102 Pr80 2.695 . S
O102 Pr81 2.436 . S
O102 C89 1.270 . S
O103 Pr80 2.512 . S
O103 C89 1.248 . S
O104 Pr81 2.438 . S
O104 C90 1.267 . S
O105 Pr80 2.437 . S
O105 C90 1.278 . S
O106 Pr81 2.562 . S
O106 C91 1.254 . S
O107 Pr81 2.490 . S
O107 C91 1.225 . S
O108 Pr80 2.436 . S
O108 Pr81 2.695 . S
O108 C98 1.270 . S
O109 Pr81 2.512 . S
O109 C98 1.248 . S
O110 Pr80 2.438 . S
O110 C99 1.267 . S
O111 Pr81 2.437 . S
O111 C99 1.278 . S
H112 C84 0.929 . S
H113 C85 0.929 . S
H114 C87 0.931 . S
H115 C88 0.930 . S
H116 C93 0.929 . S
H117 C94 0.929 . S
H118 C96 0.931 . S
H119 C97 0.930 . S
Pr120 C122 2.880 1_545 S
Pr120 O140 2.562 1_545 S
Pr120 O141 2.490 1_545 S
Pr120 O142 2.695 . S
Pr120 O143 2.512 . S
Pr120 O145 2.437 . S
Pr120 O148 2.436 . S
Pr120 O150 2.438 . S
Pr121 C131 2.880 . S
Pr121 O142 2.436 . S
Pr121 O144 2.438 . S
Pr121 O146 2.562 . S
Pr121 O147 2.490 . S
Pr121 O148 2.695 . S
Pr121 O149 2.512 . S
Pr121 O151 2.437 . S
C122 Pr120 2.880 1_565 S
C122 C123 1.491 . S
C122 O140 1.254 . S
C122 O141 1.225 . S
C123 C122 1.491 . S
C123 C124 1.392 . S
C123 C128 1.356 . S
C124 C123 1.392 . S
C124 C125 1.368 . S
C124 H152 0.929 . S
C125 C124 1.368 . S
C125 C126 1.386 . S
C125 H153 0.929 . S
C126 C125 1.386 . S
C126 C127 1.373 . S
C127 C126 1.373 . S
C127 C128 1.409 . S
C127 H154 0.931 . S
C128 C123 1.356 . S
C128 C127 1.409 . S
C128 H155 0.930 . S
C129 O142 1.270 . S
C129 O143 1.248 . S
C130 O144 1.267 . S
C130 O145 1.278 . S
C131 Pr121 2.880 . S
C131 C132 1.491 . S
C131 O146 1.254 . S
C131 O147 1.225 . S
C132 C131 1.491 . S
C132 C133 1.392 . S
C132 C137 1.356 . S
C133 C132 1.392 . S
C133 C134 1.368 . S
C133 H156 0.929 . S
C134 C133 1.368 . S
C134 C135 1.386 . S
C134 H157 0.929 . S
C135 C134 1.386 . S
C135 C136 1.373 . S
C136 C135 1.373 . S
C136 C137 1.409 . S
C136 H158 0.931 . S
C137 C132 1.356 . S
C137 C136 1.409 . S
C137 H159 0.930 . S
C138 O148 1.270 . S
C138 O149 1.248 . S
C139 O150 1.267 . S
C139 O151 1.278 . S
O140 Pr120 2.562 1_565 S
O140 C122 1.254 . S
O141 Pr120 2.490 1_565 S
O141 C122 1.225 . S
O142 Pr120 2.695 . S
O142 Pr121 2.436 . S
O142 C129 1.270 . S
O143 Pr120 2.512 . S
O143 C129 1.248 . S
O144 Pr121 2.438 . S
O144 C130 1.267 . S
O145 Pr120 2.437 . S
O145 C130 1.278 . S
O146 Pr121 2.562 . S
O146 C131 1.254 . S
O147 Pr121 2.490 . S
O147 C131 1.225 . S
O148 Pr120 2.436 . S
O148 Pr121 2.695 . S
O148 C138 1.270 . S
O149 Pr121 2.512 . S
O149 C138 1.248 . S
O150 Pr120 2.438 . S
O150 C139 1.267 . S
O151 Pr121 2.437 . S
O151 C139 1.278 . S
H152 C124 0.929 . S
H153 C125 0.929 . S
H154 C127 0.931 . S
H155 C128 0.930 . S
H156 C133 0.929 . S
H157 C134 0.929 . S
H158 C136 0.931 . S
H159 C137 0.930 . S
Pr160 C162 2.880 . S
Pr160 O180 2.562 . S
Pr160 O181 2.490 . S
Pr160 O182 2.695 . S
Pr160 O183 2.512 . S
Pr160 O185 2.437 . S
Pr160 O188 2.436 . S
Pr160 O190 2.438 . S
Pr161 C171 2.880 1_565 S
Pr161 O182 2.436 . S
Pr161 O184 2.438 . S
Pr161 O186 2.562 1_565 S
Pr161 O187 2.490 1_565 S
Pr161 O188 2.695 . S
Pr161 O189 2.512 . S
Pr161 O191 2.437 . S
C162 Pr160 2.880 . S
C162 C163 1.491 . S
C162 O180 1.254 . S
C162 O181 1.225 . S
C163 C162 1.491 . S
C163 C164 1.392 . S
C163 C168 1.356 . S
C164 C163 1.392 . S
C164 C165 1.368 . S
C164 H192 0.929 . S
C165 C164 1.368 . S
C165 C166 1.386 . S
C165 H193 0.929 . S
C166 C165 1.386 . S
C166 C167 1.373 . S
C167 C166 1.373 . S
C167 C168 1.409 . S
C167 H194 0.931 . S
C168 C163 1.356 . S
C168 C167 1.409 . S
C168 H195 0.930 . S
C169 O182 1.270 . S
C169 O183 1.248 . S
C170 O184 1.267 . S
C170 O185 1.278 . S
C171 Pr161 2.880 1_545 S
C171 C172 1.491 . S
C171 O186 1.254 . S
C171 O187 1.225 . S
C172 C171 1.491 . S
C172 C173 1.392 . S
C172 C177 1.356 . S
C173 C172 1.392 . S
C173 C174 1.368 . S
C173 H196 0.929 . S
C174 C173 1.368 . S
C174 C175 1.386 . S
C174 H197 0.929 . S
C175 C174 1.386 . S
C175 C176 1.373 . S
C176 C175 1.373 . S
C176 C177 1.409 . S
C176 H198 0.931 . S
C177 C172 1.356 . S
C177 C176 1.409 . S
C177 H199 0.930 . S
C178 O188 1.270 . S
C178 O189 1.248 . S
C179 O190 1.267 . S
C179 O191 1.278 . S
O180 Pr160 2.562 . S
O180 C162 1.254 . S
O181 Pr160 2.490 . S
O181 C162 1.225 . S
O182 Pr160 2.695 . S
O182 Pr161 2.436 . S
O182 C169 1.270 . S
O183 Pr160 2.512 . S
O183 C169 1.248 . S
O184 Pr161 2.438 . S
O184 C170 1.267 . S
O185 Pr160 2.437 . S
O185 C170 1.278 . S
O186 Pr161 2.562 1_545 S
O186 C171 1.254 . S
O187 Pr161 2.490 1_545 S
O187 C171 1.225 . S
O188 Pr160 2.436 . S
O188 Pr161 2.695 . S
O188 C178 1.270 . S
O189 Pr161 2.512 . S
O189 C178 1.248 . S
O190 Pr160 2.438 . S
O190 C179 1.267 . S
O191 Pr161 2.437 . S
O191 C179 1.278 . S
H192 C164 0.929 . S
H193 C165 0.929 . S
H194 C167 0.931 . S
H195 C168 0.930 . S
H196 C173 0.929 . S
H197 C174 0.929 . S
H198 C176 0.931 . S
H199 C177 0.930 . S
Pr200 C202 2.880 . S
Pr200 O220 2.562 . S
Pr200 O221 2.490 . S
Pr200 O222 2.695 . S
Pr200 O223 2.512 . S
Pr200 O225 2.437 . S
Pr200 O228 2.436 . S
Pr200 O230 2.438 . S
Pr201 C211 2.880 1_545 S
Pr201 O222 2.436 . S
Pr201 O224 2.438 . S
Pr201 O226 2.562 1_545 S
Pr201 O227 2.490 1_545 S
Pr201 O228 2.695 . S
Pr201 O229 2.512 . S
Pr201 O231 2.437 . S
C202 Pr200 2.880 . S
C202 C203 1.491 . S
C202 O220 1.254 . S
C202 O221 1.225 . S
C203 C202 1.491 . S
C203 C204 1.392 . S
C203 C208 1.356 . S
C204 C203 1.392 . S
C204 C205 1.368 . S
C204 H232 0.929 . S
C205 C204 1.368 . S
C205 C206 1.386 . S
C205 H233 0.929 . S
C206 C205 1.386 . S
C206 C207 1.373 . S
C207 C206 1.373 . S
C207 C208 1.409 . S
C207 H234 0.931 . S
C208 C203 1.356 . S
C208 C207 1.409 . S
C208 H235 0.930 . S
C209 O222 1.270 . S
C209 O223 1.248 . S
C210 O224 1.267 . S
C210 O225 1.278 . S
C211 Pr201 2.880 1_565 S
C211 C212 1.491 . S
C211 O226 1.254 . S
C211 O227 1.225 . S
C212 C211 1.491 . S
C212 C213 1.392 . S
C212 C217 1.356 . S
C213 C212 1.392 . S
C213 C214 1.368 . S
C213 H236 0.929 . S
C214 C213 1.368 . S
C214 C215 1.386 . S
C214 H237 0.929 . S
C215 C214 1.386 . S
C215 C216 1.373 . S
C216 C215 1.373 . S
C216 C217 1.409 . S
C216 H238 0.931 . S
C217 C212 1.356 . S
C217 C216 1.409 . S
C217 H239 0.930 . S
C218 O228 1.270 . S
C218 O229 1.248 . S
C219 O230 1.267 . S
C219 O231 1.278 . S
O220 Pr200 2.562 . S
O220 C202 1.254 . S
O221 Pr200 2.490 . S
O221 C202 1.225 . S
O222 Pr200 2.695 . S
O222 Pr201 2.436 . S
O222 C209 1.270 . S
O223 Pr200 2.512 . S
O223 C209 1.248 . S
O224 Pr201 2.438 . S
O224 C210 1.267 . S
O225 Pr200 2.437 . S
O225 C210 1.278 . S
O226 Pr201 2.562 1_565 S
O226 C211 1.254 . S
O227 Pr201 2.490 1_565 S
O227 C211 1.225 . S
O228 Pr200 2.436 . S
O228 Pr201 2.695 . S
O228 C218 1.270 . S
O229 Pr201 2.512 . S
O229 C218 1.248 . S
O230 Pr200 2.438 . S
O230 C219 1.267 . S
O231 Pr201 2.437 . S
O231 C219 1.278 . S
H232 C204 0.929 . S
H233 C205 0.929 . S
H234 C207 0.931 . S
H235 C208 0.930 . S
H236 C213 0.929 . S
H237 C214 0.929 . S
H238 C216 0.931 . S
H239 C217 0.930 . S
Pr240 C242 2.880 . S
Pr240 O260 2.562 . S
Pr240 O261 2.490 . S
Pr240 O262 2.695 . S
Pr240 O263 2.512 . S
Pr240 O265 2.437 . S
Pr240 O268 2.436 . S
Pr240 O270 2.438 . S
Pr241 C251 2.880 1_545 S
Pr241 O262 2.436 . S
Pr241 O264 2.438 . S
Pr241 O266 2.562 1_545 S
Pr241 O267 2.490 1_545 S
Pr241 O268 2.695 . S
Pr241 O269 2.512 . S
Pr241 O271 2.437 . S
C242 Pr240 2.880 . S
C242 C243 1.491 . S
C242 O260 1.254 . S
C242 O261 1.225 . S
C243 C242 1.491 . S
C243 C244 1.392 . S
C243 C248 1.356 . S
C244 C243 1.392 . S
C244 C245 1.368 . S
C244 H272 0.929 . S
C245 C244 1.368 . S
C245 C246 1.386 . S
C245 H273 0.929 . S
C246 C245 1.386 . S
C246 C247 1.373 . S
C247 C246 1.373 . S
C247 C248 1.409 . S
C247 H274 0.931 . S
C248 C243 1.356 . S
C248 C247 1.409 . S
C248 H275 0.930 . S
C249 O262 1.270 . S
C249 O263 1.248 . S
C250 O264 1.267 . S
C250 O265 1.278 . S
C251 Pr241 2.880 1_565 S
C251 C252 1.491 . S
C251 O266 1.254 . S
C251 O267 1.225 . S
C252 C251 1.491 . S
C252 C253 1.392 . S
C252 C257 1.356 . S
C253 C252 1.392 . S
C253 C254 1.368 . S
C253 H276 0.929 . S
C254 C253 1.368 . S
C254 C255 1.386 . S
C254 H277 0.929 . S
C255 C254 1.386 . S
C255 C256 1.373 . S
C256 C255 1.373 . S
C256 C257 1.409 . S
C256 H278 0.931 . S
C257 C252 1.356 . S
C257 C256 1.409 . S
C257 H279 0.930 . S
C258 O268 1.270 . S
C258 O269 1.248 . S
C259 O270 1.267 . S
C259 O271 1.278 . S
O260 Pr240 2.562 . S
O260 C242 1.254 . S
O261 Pr240 2.490 . S
O261 C242 1.225 . S
O262 Pr240 2.695 . S
O262 Pr241 2.436 . S
O262 C249 1.270 . S
O263 Pr240 2.512 . S
O263 C249 1.248 . S
O264 Pr241 2.438 . S
O264 C250 1.267 . S
O265 Pr240 2.437 . S
O265 C250 1.278 . S
O266 Pr241 2.562 1_565 S
O266 C251 1.254 . S
O267 Pr241 2.490 1_565 S
O267 C251 1.225 . S
O268 Pr240 2.436 . S
O268 Pr241 2.695 . S
O268 C258 1.270 . S
O269 Pr241 2.512 . S
O269 C258 1.248 . S
O270 Pr240 2.438 . S
O270 C259 1.267 . S
O271 Pr241 2.437 . S
O271 C259 1.278 . S
H272 C244 0.929 . S
H273 C245 0.929 . S
H274 C247 0.931 . S
H275 C248 0.930 . S
H276 C253 0.929 . S
H277 C254 0.929 . S
H278 C256 0.931 . S
H279 C257 0.930 . S
Pr280 C282 2.880 . S
Pr280 O300 2.562 . S
Pr280 O301 2.490 . S
Pr280 O302 2.695 . S
Pr280 O303 2.512 . S
Pr280 O305 2.437 . S
Pr280 O308 2.436 . S
Pr280 O310 2.438 . S
Pr281 C291 2.880 1_565 S
Pr281 O302 2.436 . S
Pr281 O304 2.438 . S
Pr281 O306 2.562 1_565 S
Pr281 O307 2.490 1_565 S
Pr281 O308 2.695 . S
Pr281 O309 2.512 . S
Pr281 O311 2.437 . S
C282 Pr280 2.880 . S
C282 C283 1.491 . S
C282 O300 1.254 . S
C282 O301 1.225 . S
C283 C282 1.491 . S
C283 C284 1.392 . S
C283 C288 1.356 . S
C284 C283 1.392 . S
C284 C285 1.368 . S
C284 H312 0.929 . S
C285 C284 1.368 . S
C285 C286 1.386 . S
C285 H313 0.929 . S
C286 C285 1.386 . S
C286 C287 1.373 . S
C287 C286 1.373 . S
C287 C288 1.409 . S
C287 H314 0.931 . S
C288 C283 1.356 . S
C288 C287 1.409 . S
C288 H315 0.930 . S
C289 O302 1.270 . S
C289 O303 1.248 . S
C290 O304 1.267 . S
C290 O305 1.278 . S
C291 Pr281 2.880 1_545 S
C291 C292 1.491 . S
C291 O306 1.254 . S
C291 O307 1.225 . S
C292 C291 1.491 . S
C292 C293 1.392 . S
C292 C297 1.356 . S
C293 C292 1.392 . S
C293 C294 1.368 . S
C293 H316 0.929 . S
C294 C293 1.368 . S
C294 C295 1.386 . S
C294 H317 0.929 . S
C295 C294 1.386 . S
C295 C296 1.373 . S
C296 C295 1.373 . S
C296 C297 1.409 . S
C296 H318 0.931 . S
C297 C292 1.356 . S
C297 C296 1.409 . S
C297 H319 0.930 . S
C298 O308 1.270 . S
C298 O309 1.248 . S
C299 O310 1.267 . S
C299 O311 1.278 . S
O300 Pr280 2.562 . S
O300 C282 1.254 . S
O301 Pr280 2.490 . S
O301 C282 1.225 . S
O302 Pr280 2.695 . S
O302 Pr281 2.436 . S
O302 C289 1.270 . S
O303 Pr280 2.512 . S
O303 C289 1.248 . S
O304 Pr281 2.438 . S
O304 C290 1.267 . S
O305 Pr280 2.437 . S
O305 C290 1.278 . S
O306 Pr281 2.562 1_545 S
O306 C291 1.254 . S
O307 Pr281 2.490 1_545 S
O307 C291 1.225 . S
O308 Pr280 2.436 . S
O308 Pr281 2.695 . S
O308 C298 1.270 . S
O309 Pr281 2.512 . S
O309 C298 1.248 . S
O310 Pr280 2.438 . S
O310 C299 1.267 . S
O311 Pr281 2.437 . S
O311 C299 1.278 . S
H312 C284 0.929 . S
H313 C285 0.929 . S
H314 C287 0.931 . S
H315 C288 0.930 . S
H316 C293 0.929 . S
H317 C294 0.929 . S
H318 C296 0.931 . S
H319 C297 0.930 . S
Pr320 C322 2.880 . S
Pr320 O340 2.562 . S
Pr320 O341 2.490 . S
Pr320 O342 2.695 . S
Pr320 O343 2.512 . S
Pr320 O345 2.437 . S
Pr320 O348 2.436 . S
Pr320 O350 2.438 . S
Pr321 C331 2.880 . S
Pr321 O342 2.436 . S
Pr321 O344 2.438 . S
Pr321 O346 2.562 . S
Pr321 O347 2.490 . S
Pr321 O348 2.695 . S
Pr321 O349 2.512 . S
Pr321 O351 2.437 . S
C322 Pr320 2.880 . S
C322 C323 1.491 . S
C322 O340 1.254 . S
C322 O341 1.225 . S
C323 C322 1.491 . S
C323 C324 1.392 . S
C323 C328 1.356 . S
C324 C323 1.392 . S
C324 C325 1.368 . S
C324 H352 0.929 . S
C325 C324 1.368 . S
C325 C326 1.386 . S
C325 H353 0.929 . S
C326 C325 1.386 . S
C326 C327 1.373 . S
C327 C326 1.373 . S
C327 C328 1.409 . S
C327 H354 0.931 . S
C328 C323 1.356 . S
C328 C327 1.409 . S
C328 H355 0.930 . S
C329 O342 1.270 . S
C329 O343 1.248 . S
C330 O344 1.267 . S
C330 O345 1.278 . S
C331 Pr321 2.880 . S
C331 C332 1.491 . S
C331 O346 1.254 . S
C331 O347 1.225 . S
C332 C331 1.491 . S
C332 C333 1.392 . S
C332 C337 1.356 . S
C333 C332 1.392 . S
C333 C334 1.368 . S
C333 H356 0.929 . S
C334 C333 1.368 . S
C334 C335 1.386 . S
C334 H357 0.929 . S
C335 C334 1.386 . S
C335 C336 1.373 . S
C336 C335 1.373 . S
C336 C337 1.409 . S
C336 H358 0.931 . S
C337 C332 1.356 . S
C337 C336 1.409 . S
C337 H359 0.930 . S
C338 O348 1.270 . S
C338 O349 1.248 . S
C339 O350 1.267 . S
C339 O351 1.278 . S
O340 Pr320 2.562 . S
O340 C322 1.254 . S
O341 Pr320 2.490 . S
O341 C322 1.225 . S
O342 Pr320 2.695 . S
O342 Pr321 2.436 . S
O342 C329 1.270 . S
O343 Pr320 2.512 . S
O343 C329 1.248 . S
O344 Pr321 2.438 . S
O344 C330 1.267 . S
O345 Pr320 2.437 . S
O345 C330 1.278 . S
O346 Pr321 2.562 . S
O346 C331 1.254 . S
O347 Pr321 2.490 . S
O347 C331 1.225 . S
O348 Pr320 2.436 . S
O348 Pr321 2.695 . S
O348 C338 1.270 . S
O349 Pr321 2.512 . S
O349 C338 1.248 . S
O350 Pr320 2.438 . S
O350 C339 1.267 . S
O351 Pr321 2.437 . S
O351 C339 1.278 . S
H352 C324 0.929 . S
H353 C325 0.929 . S
H354 C327 0.931 . S
H355 C328 0.930 . S
H356 C333 0.929 . S
H357 C334 0.929 . S
H358 C336 0.931 . S
H359 C337 0.930 . S
Pr360 C362 2.880 . S
Pr360 O380 2.562 . S
Pr360 O381 2.490 . S
Pr360 O382 2.695 . S
Pr360 O383 2.512 . S
Pr360 O385 2.437 . S
Pr360 O388 2.436 . S
Pr360 O390 2.438 . S
Pr361 C371 2.880 . S
Pr361 O382 2.436 . S
Pr361 O384 2.438 . S
Pr361 O386 2.562 . S
Pr361 O387 2.490 . S
Pr361 O388 2.695 . S
Pr361 O389 2.512 . S
Pr361 O391 2.437 . S
C362 Pr360 2.880 . S
C362 C363 1.491 . S
C362 O380 1.254 . S
C362 O381 1.225 . S
C363 C362 1.491 . S
C363 C364 1.392 . S
C363 C368 1.356 . S
C364 C363 1.392 . S
C364 C365 1.368 . S
C364 H392 0.929 . S
C365 C364 1.368 . S
C365 C366 1.386 . S
C365 H393 0.929 . S
C366 C365 1.386 . S
C366 C367 1.373 . S
C367 C366 1.373 . S
C367 C368 1.409 . S
C367 H394 0.931 . S
C368 C363 1.356 . S
C368 C367 1.409 . S
C368 H395 0.930 . S
C369 O382 1.270 . S
C369 O383 1.248 . S
C370 O384 1.267 . S
C370 O385 1.278 . S
C371 Pr361 2.880 . S
C371 C372 1.491 . S
C371 O386 1.254 . S
C371 O387 1.225 . S
C372 C371 1.491 . S
C372 C373 1.392 . S
C372 C377 1.356 . S
C373 C372 1.392 . S
C373 C374 1.368 . S
C373 H396 0.929 . S
C374 C373 1.368 . S
C374 C375 1.386 . S
C374 H397 0.929 . S
C375 C374 1.386 . S
C375 C376 1.373 . S
C376 C375 1.373 . S
C376 C377 1.409 . S
C376 H398 0.931 . S
C377 C372 1.356 . S
C377 C376 1.409 . S
C377 H399 0.930 . S
C378 O388 1.270 . S
C378 O389 1.248 . S
C379 O390 1.267 . S
C379 O391 1.278 . S
O380 Pr360 2.562 . S
O380 C362 1.254 . S
O381 Pr360 2.490 . S
O381 C362 1.225 . S
O382 Pr360 2.695 . S
O382 Pr361 2.436 . S
O382 C369 1.270 . S
O383 Pr360 2.512 . S
O383 C369 1.248 . S
O384 Pr361 2.438 . S
O384 C370 1.267 . S
O385 Pr360 2.437 . S
O385 C370 1.278 . S
O386 Pr361 2.562 . S
O386 C371 1.254 . S
O387 Pr361 2.490 . S
O387 C371 1.225 . S
O388 Pr360 2.436 . S
O388 Pr361 2.695 . S
O388 C378 1.270 . S
O389 Pr361 2.512 . S
O389 C378 1.248 . S
O390 Pr360 2.438 . S
O390 C379 1.267 . S
O391 Pr361 2.437 . S
O391 C379 1.278 . S
H392 C364 0.929 . S
H393 C365 0.929 . S
H394 C367 0.931 . S
H395 C368 0.930 . S
H396 C373 0.929 . S
H397 C374 0.929 . S
H398 C376 0.931 . S
H399 C377 0.930 . S
Pr400 C402 2.880 . S
Pr400 O420 2.562 . S
Pr400 O421 2.490 . S
Pr400 O422 2.695 . S
Pr400 O423 2.512 . S
Pr400 O425 2.437 . S
Pr400 O428 2.436 . S
Pr400 O430 2.438 . S
Pr401 C411 2.880 . S
Pr401 O422 2.436 . S
Pr401 O424 2.438 . S
Pr401 O426 2.562 . S
Pr401 O427 2.490 . S
Pr401 O428 2.695 . S
Pr401 O429 2.512 . S
Pr401 O431 2.437 . S
C402 Pr400 2.880 . S
C402 C403 1.491 . S
C402 O420 1.254 . S
C402 O421 1.225 . S
C403 C402 1.491 . S
C403 C404 1.392 . S
C403 C408 1.356 . S
C404 C403 1.392 . S
C404 C405 1.368 . S
C404 H432 0.929 . S
C405 C404 1.368 . S
C405 C406 1.386 . S
C405 H433 0.929 . S
C406 C405 1.386 . S
C406 C407 1.373 . S
C407 C406 1.373 . S
C407 C408 1.409 . S
C407 H434 0.931 . S
C408 C403 1.356 . S
C408 C407 1.409 . S
C408 H435 0.930 . S
C409 O422 1.270 . S
C409 O423 1.248 . S
C410 O424 1.267 . S
C410 O425 1.278 . S
C411 Pr401 2.880 . S
C411 C412 1.491 . S
C411 O426 1.254 . S
C411 O427 1.225 . S
C412 C411 1.491 . S
C412 C413 1.392 . S
C412 C417 1.356 . S
C413 C412 1.392 . S
C413 C414 1.368 . S
C413 H436 0.929 . S
C414 C413 1.368 . S
C414 C415 1.386 . S
C414 H437 0.929 . S
C415 C414 1.386 . S
C415 C416 1.373 . S
C416 C415 1.373 . S
C416 C417 1.409 . S
C416 H438 0.931 . S
C417 C412 1.356 . S
C417 C416 1.409 . S
C417 H439 0.930 . S
C418 O428 1.270 . S
C418 O429 1.248 . S
C419 O430 1.267 . S
C419 O431 1.278 . S
O420 Pr400 2.562 . S
O420 C402 1.254 . S
O421 Pr400 2.490 . S
O421 C402 1.225 . S
O422 Pr400 2.695 . S
O422 Pr401 2.436 . S
O422 C409 1.270 . S
O423 Pr400 2.512 . S
O423 C409 1.248 . S
O424 Pr401 2.438 . S
O424 C410 1.267 . S
O425 Pr400 2.437 . S
O425 C410 1.278 . S
O426 Pr401 2.562 . S
O426 C411 1.254 . S
O427 Pr401 2.490 . S
O427 C411 1.225 . S
O428 Pr400 2.436 . S
O428 Pr401 2.695 . S
O428 C418 1.270 . S
O429 Pr401 2.512 . S
O429 C418 1.248 . S
O430 Pr400 2.438 . S
O430 C419 1.267 . S
O431 Pr401 2.437 . S
O431 C419 1.278 . S
H432 C404 0.929 . S
H433 C405 0.929 . S
H434 C407 0.931 . S
H435 C408 0.930 . S
H436 C413 0.929 . S
H437 C414 0.929 . S
H438 C416 0.931 . S
H439 C417 0.930 . S
Pr440 C442 2.880 . S
Pr440 O460 2.562 . S
Pr440 O461 2.490 . S
Pr440 O462 2.695 . S
Pr440 O463 2.512 . S
Pr440 O465 2.437 . S
Pr440 O468 2.436 . S
Pr440 O470 2.438 . S
Pr441 C451 2.880 . S
Pr441 O462 2.436 . S
Pr441 O464 2.438 . S
Pr441 O466 2.562 . S
Pr441 O467 2.490 . S
Pr441 O468 2.695 . S
Pr441 O469 2.512 . S
Pr441 O471 2.437 . S
C442 Pr440 2.880 . S
C442 C443 1.491 . S
C442 O460 1.254 . S
C442 O461 1.225 . S
C443 C442 1.491 . S
C443 C444 1.392 . S
C443 C448 1.356 . S
C444 C443 1.392 . S
C444 C445 1.368 . S
C444 H472 0.929 . S
C445 C444 1.368 . S
C445 C446 1.386 . S
C445 H473 0.929 . S
C446 C445 1.386 . S
C446 C447 1.373 . S
C447 C446 1.373 . S
C447 C448 1.409 . S
C447 H474 0.931 . S
C448 C443 1.356 . S
C448 C447 1.409 . S
C448 H475 0.930 . S
C449 O462 1.270 . S
C449 O463 1.248 . S
C450 O464 1.267 . S
C450 O465 1.278 . S
C451 Pr441 2.880 . S
C451 C452 1.491 . S
C451 O466 1.254 . S
C451 O467 1.225 . S
C452 C451 1.491 . S
C452 C453 1.392 . S
C452 C457 1.356 . S
C453 C452 1.392 . S
C453 C454 1.368 . S
C453 H476 0.929 . S
C454 C453 1.368 . S
C454 C455 1.386 . S
C454 H477 0.929 . S
C455 C454 1.386 . S
C455 C456 1.373 . S
C456 C455 1.373 . S
C456 C457 1.409 . S
C456 H478 0.931 . S
C457 C452 1.356 . S
C457 C456 1.409 . S
C457 H479 0.930 . S
C458 O468 1.270 . S
C458 O469 1.248 . S
C459 O470 1.267 . S
C459 O471 1.278 . S
O460 Pr440 2.562 . S
O460 C442 1.254 . S
O461 Pr440 2.490 . S
O461 C442 1.225 . S
O462 Pr440 2.695 . S
O462 Pr441 2.436 . S
O462 C449 1.270 . S
O463 Pr440 2.512 . S
O463 C449 1.248 . S
O464 Pr441 2.438 . S
O464 C450 1.267 . S
O465 Pr440 2.437 . S
O465 C450 1.278 . S
O466 Pr441 2.562 . S
O466 C451 1.254 . S
O467 Pr441 2.490 . S
O467 C451 1.225 . S
O468 Pr440 2.436 . S
O468 Pr441 2.695 . S
O468 C458 1.270 . S
O469 Pr441 2.512 . S
O469 C458 1.248 . S
O470 Pr440 2.438 . S
O470 C459 1.267 . S
O471 Pr441 2.437 . S
O471 C459 1.278 . S
H472 C444 0.929 . S
H473 C445 0.929 . S
H474 C447 0.931 . S
H475 C448 0.930 . S
H476 C453 0.929 . S
H477 C454 0.929 . S
H478 C456 0.931 . S
H479 C457 0.930 . S
Pr480 C482 2.880 . S
Pr480 O500 2.562 . S
Pr480 O501 2.490 . S
Pr480 O502 2.695 . S
Pr480 O503 2.512 . S
Pr480 O505 2.437 . S
Pr480 O508 2.436 . S
Pr480 O510 2.438 . S
Pr481 C491 2.880 . S
Pr481 O502 2.436 . S
Pr481 O504 2.438 . S
Pr481 O506 2.562 . S
Pr481 O507 2.490 . S
Pr481 O508 2.695 . S
Pr481 O509 2.512 . S
Pr481 O511 2.437 . S
C482 Pr480 2.880 . S
C482 C483 1.491 . S
C482 O500 1.254 . S
C482 O501 1.225 . S
C483 C482 1.491 . S
C483 C484 1.392 . S
C483 C488 1.356 . S
C484 C483 1.392 . S
C484 C485 1.368 . S
C484 H512 0.929 . S
C485 C484 1.368 . S
C485 C486 1.386 . S
C485 H513 0.929 . S
C486 C485 1.386 . S
C486 C487 1.373 . S
C487 C486 1.373 . S
C487 C488 1.409 . S
C487 H514 0.931 . S
C488 C483 1.356 . S
C488 C487 1.409 . S
C488 H515 0.930 . S
C489 O502 1.270 . S
C489 O503 1.248 . S
C490 O504 1.267 . S
C490 O505 1.278 . S
C491 Pr481 2.880 . S
C491 C492 1.491 . S
C491 O506 1.254 . S
C491 O507 1.225 . S
C492 C491 1.491 . S
C492 C493 1.392 . S
C492 C497 1.356 . S
C493 C492 1.392 . S
C493 C494 1.368 . S
C493 H516 0.929 . S
C494 C493 1.368 . S
C494 C495 1.386 . S
C494 H517 0.929 . S
C495 C494 1.386 . S
C495 C496 1.373 . S
C496 C495 1.373 . S
C496 C497 1.409 . S
C496 H518 0.931 . S
C497 C492 1.356 . S
C497 C496 1.409 . S
C497 H519 0.930 . S
C498 O508 1.270 . S
C498 O509 1.248 . S
C499 O510 1.267 . S
C499 O511 1.278 . S
O500 Pr480 2.562 . S
O500 C482 1.254 . S
O501 Pr480 2.490 . S
O501 C482 1.225 . S
O502 Pr480 2.695 . S
O502 Pr481 2.436 . S
O502 C489 1.270 . S
O503 Pr480 2.512 . S
O503 C489 1.248 . S
O504 Pr481 2.438 . S
O504 C490 1.267 . S
O505 Pr480 2.437 . S
O505 C490 1.278 . S
O506 Pr481 2.562 . S
O506 C491 1.254 . S
O507 Pr481 2.490 . S
O507 C491 1.225 . S
O508 Pr480 2.436 . S
O508 Pr481 2.695 . S
O508 C498 1.270 . S
O509 Pr481 2.512 . S
O509 C498 1.248 . S
O510 Pr480 2.438 . S
O510 C499 1.267 . S
O511 Pr481 2.437 . S
O511 C499 1.278 . S
H512 C484 0.929 . S
H513 C485 0.929 . S
H514 C487 0.931 . S
H515 C488 0.930 . S
H516 C493 0.929 . S
H517 C494 0.929 . S
H518 C496 0.931 . S
H519 C497 0.930 . S
Pr520 C522 2.880 . S
Pr520 O540 2.562 . S
Pr520 O541 2.490 . S
Pr520 O542 2.695 . S
Pr520 O543 2.512 . S
Pr520 O545 2.437 . S
Pr520 O548 2.436 . S
Pr520 O550 2.438 . S
Pr521 C531 2.880 . S
Pr521 O542 2.436 . S
Pr521 O544 2.438 . S
Pr521 O546 2.562 . S
Pr521 O547 2.490 . S
Pr521 O548 2.695 . S
Pr521 O549 2.512 . S
Pr521 O551 2.437 . S
C522 Pr520 2.880 . S
C522 C523 1.491 . S
C522 O540 1.254 . S
C522 O541 1.225 . S
C523 C522 1.491 . S
C523 C524 1.392 . S
C523 C528 1.356 . S
C524 C523 1.392 . S
C524 C525 1.368 . S
C524 H552 0.929 . S
C525 C524 1.368 . S
C525 C526 1.386 . S
C525 H553 0.929 . S
C526 C525 1.386 . S
C526 C527 1.373 . S
C527 C526 1.373 . S
C527 C528 1.409 . S
C527 H554 0.931 . S
C528 C523 1.356 . S
C528 C527 1.409 . S
C528 H555 0.930 . S
C529 O542 1.270 . S
C529 O543 1.248 . S
C530 O544 1.267 . S
C530 O545 1.278 . S
C531 Pr521 2.880 . S
C531 C532 1.491 . S
C531 O546 1.254 . S
C531 O547 1.225 . S
C532 C531 1.491 . S
C532 C533 1.392 . S
C532 C537 1.356 . S
C533 C532 1.392 . S
C533 C534 1.368 . S
C533 H556 0.929 . S
C534 C533 1.368 . S
C534 C535 1.386 . S
C534 H557 0.929 . S
C535 C534 1.386 . S
C535 C536 1.373 . S
C536 C535 1.373 . S
C536 C537 1.409 . S
C536 H558 0.931 . S
C537 C532 1.356 . S
C537 C536 1.409 . S
C537 H559 0.930 . S
C538 O548 1.270 . S
C538 O549 1.248 . S
C539 O550 1.267 . S
C539 O551 1.278 . S
O540 Pr520 2.562 . S
O540 C522 1.254 . S
O541 Pr520 2.490 . S
O541 C522 1.225 . S
O542 Pr520 2.695 . S
O542 Pr521 2.436 . S
O542 C529 1.270 . S
O543 Pr520 2.512 . S
O543 C529 1.248 . S
O544 Pr521 2.438 . S
O544 C530 1.267 . S
O545 Pr520 2.437 . S
O545 C530 1.278 . S
O546 Pr521 2.562 . S
O546 C531 1.254 . S
O547 Pr521 2.490 . S
O547 C531 1.225 . S
O548 Pr520 2.436 . S
O548 Pr521 2.695 . S
O548 C538 1.270 . S
O549 Pr521 2.512 . S
O549 C538 1.248 . S
O550 Pr520 2.438 . S
O550 C539 1.267 . S
O551 Pr521 2.437 . S
O551 C539 1.278 . S
H552 C524 0.929 . S
H553 C525 0.929 . S
H554 C527 0.931 . S
H555 C528 0.930 . S
H556 C533 0.929 . S
H557 C534 0.929 . S
H558 C536 0.931 . S
H559 C537 0.930 . S
Pr560 C562 2.880 . S
Pr560 O580 2.562 . S
Pr560 O581 2.490 . S
Pr560 O582 2.695 . S
Pr560 O583 2.512 . S
Pr560 O585 2.437 . S
Pr560 O588 2.436 . S
Pr560 O590 2.438 . S
Pr561 C571 2.880 . S
Pr561 O582 2.436 . S
Pr561 O584 2.438 . S
Pr561 O586 2.562 . S
Pr561 O587 2.490 . S
Pr561 O588 2.695 . S
Pr561 O589 2.512 . S
Pr561 O591 2.437 . S
C562 Pr560 2.880 . S
C562 C563 1.491 . S
C562 O580 1.254 . S
C562 O581 1.225 . S
C563 C562 1.491 . S
C563 C564 1.392 . S
C563 C568 1.356 . S
C564 C563 1.392 . S
C564 C565 1.368 . S
C564 H592 0.929 . S
C565 C564 1.368 . S
C565 C566 1.386 . S
C565 H593 0.929 . S
C566 C565 1.386 . S
C566 C567 1.373 . S
C567 C566 1.373 . S
C567 C568 1.409 . S
C567 H594 0.931 . S
C568 C563 1.356 . S
C568 C567 1.409 . S
C568 H595 0.930 . S
C569 O582 1.270 . S
C569 O583 1.248 . S
C570 O584 1.267 . S
C570 O585 1.278 . S
C571 Pr561 2.880 . S
C571 C572 1.491 . S
C571 O586 1.254 . S
C571 O587 1.225 . S
C572 C571 1.491 . S
C572 C573 1.392 . S
C572 C577 1.356 . S
C573 C572 1.392 . S
C573 C574 1.368 . S
C573 H596 0.929 . S
C574 C573 1.368 . S
C574 C575 1.386 . S
C574 H597 0.929 . S
C575 C574 1.386 . S
C575 C576 1.373 . S
C576 C575 1.373 . S
C576 C577 1.409 . S
C576 H598 0.931 . S
C577 C572 1.356 . S
C577 C576 1.409 . S
C577 H599 0.930 . S
C578 O588 1.270 . S
C578 O589 1.248 . S
C579 O590 1.267 . S
C579 O591 1.278 . S
O580 Pr560 2.562 . S
O580 C562 1.254 . S
O581 Pr560 2.490 . S
O581 C562 1.225 . S
O582 Pr560 2.695 . S
O582 Pr561 2.436 . S
O582 C569 1.270 . S
O583 Pr560 2.512 . S
O583 C569 1.248 . S
O584 Pr561 2.438 . S
O584 C570 1.267 . S
O585 Pr560 2.437 . S
O585 C570 1.278 . S
O586 Pr561 2.562 . S
O586 C571 1.254 . S
O587 Pr561 2.490 . S
O587 C571 1.225 . S
O588 Pr560 2.436 . S
O588 Pr561 2.695 . S
O588 C578 1.270 . S
O589 Pr561 2.512 . S
O589 C578 1.248 . S
O590 Pr560 2.438 . S
O590 C579 1.267 . S
O591 Pr561 2.437 . S
O591 C579 1.278 . S
H592 C564 0.929 . S
H593 C565 0.929 . S
H594 C567 0.931 . S
H595 C568 0.930 . S
H596 C573 0.929 . S
H597 C574 0.929 . S
H598 C576 0.931 . S
H599 C577 0.930 . S
Pr600 C602 2.880 . S
Pr600 O620 2.562 . S
Pr600 O621 2.490 . S
Pr600 O622 2.695 . S
Pr600 O623 2.512 . S
Pr600 O625 2.437 . S
Pr600 O628 2.436 . S
Pr600 O630 2.438 . S
Pr601 C611 2.880 . S
Pr601 O622 2.436 . S
Pr601 O624 2.438 . S
Pr601 O626 2.562 . S
Pr601 O627 2.490 . S
Pr601 O628 2.695 . S
Pr601 O629 2.512 . S
Pr601 O631 2.437 . S
C602 Pr600 2.880 . S
C602 C603 1.491 . S
C602 O620 1.254 . S
C602 O621 1.225 . S
C603 C602 1.491 . S
C603 C604 1.392 . S
C603 C608 1.356 . S
C604 C603 1.392 . S
C604 C605 1.368 . S
C604 H632 0.929 . S
C605 C604 1.368 . S
C605 C606 1.386 . S
C605 H633 0.929 . S
C606 C605 1.386 . S
C606 C607 1.373 . S
C607 C606 1.373 . S
C607 C608 1.409 . S
C607 H634 0.931 . S
C608 C603 1.356 . S
C608 C607 1.409 . S
C608 H635 0.930 . S
C609 O622 1.270 . S
C609 O623 1.248 . S
C610 O624 1.267 . S
C610 O625 1.278 . S
C611 Pr601 2.880 . S
C611 C612 1.491 . S
C611 O626 1.254 . S
C611 O627 1.225 . S
C612 C611 1.491 . S
C612 C613 1.392 . S
C612 C617 1.356 . S
C613 C612 1.392 . S
C613 C614 1.368 . S
C613 H636 0.929 . S
C614 C613 1.368 . S
C614 C615 1.386 . S
C614 H637 0.929 . S
C615 C614 1.386 . S
C615 C616 1.373 . S
C616 C615 1.373 . S
C616 C617 1.409 . S
C616 H638 0.931 . S
C617 C612 1.356 . S
C617 C616 1.409 . S
C617 H639 0.930 . S
C618 O628 1.270 . S
C618 O629 1.248 . S
C619 O630 1.267 . S
C619 O631 1.278 . S
O620 Pr600 2.562 . S
O620 C602 1.254 . S
O621 Pr600 2.490 . S
O621 C602 1.225 . S
O622 Pr600 2.695 . S
O622 Pr601 2.436 . S
O622 C609 1.270 . S
O623 Pr600 2.512 . S
O623 C609 1.248 . S
O624 Pr601 2.438 . S
O624 C610 1.267 . S
O625 Pr600 2.437 . S
O625 C610 1.278 . S
O626 Pr601 2.562 . S
O626 C611 1.254 . S
O627 Pr601 2.490 . S
O627 C611 1.225 . S
O628 Pr600 2.436 . S
O628 Pr601 2.695 . S
O628 C618 1.270 . S
O629 Pr601 2.512 . S
O629 C618 1.248 . S
O630 Pr600 2.438 . S
O630 C619 1.267 . S
O631 Pr601 2.437 . S
O631 C619 1.278 . S
H632 C604 0.929 . S
H633 C605 0.929 . S
H634 C607 0.931 . S
H635 C608 0.930 . S
H636 C613 0.929 . S
H637 C614 0.929 . S
H638 C616 0.931 . S
H639 C617 0.930 . S
C640 C641 1.349 . S
C640 C642 1.327 . S
C640 H665 0.950 . S
C641 C640 1.349 . S
C641 C657 1.349 . S
C642 C640 1.327 . S
C642 C661 1.429 . S
C642 H666 0.950 . S
C643 C660 1.574 . S
C643 C662 1.368 . S
C643 H667 0.949 . S
H644 C648 0.949 . S
C645 C646 1.349 . S
C645 C647 1.327 . S
C645 H668 0.950 . S
C646 C645 1.349 . S
C646 C658 1.349 . S
C647 C645 1.327 . S
C647 C663 1.429 . S
C647 H669 0.950 . S
C648 H644 0.949 . S
C648 C656 1.574 . S
C648 C664 1.368 . S
H649 C657 0.950 . S
H650 C655 0.950 . S
H651 C656 0.949 . S
H652 C658 0.950 . S
H653 C659 0.950 . S
H654 C660 0.949 . S
C655 H650 0.950 . S
C655 C657 1.327 . S
C655 C661 1.429 . S
C656 C648 1.574 . S
C656 H651 0.949 . S
C656 C662 1.368 . S
C657 C641 1.349 . S
C657 H649 0.950 . S
C657 C655 1.327 . S
C658 C646 1.349 . S
C658 H652 0.950 . S
C658 C659 1.327 . S
C659 H653 0.950 . S
C659 C658 1.327 . S
C659 C663 1.429 . S
C660 C643 1.574 . S
C660 H654 0.949 . S
C660 C664 1.368 . S
C661 C642 1.429 . S
C661 C655 1.429 . S
C661 C662 1.523 . S
C662 C643 1.368 . S
C662 C656 1.368 . S
C662 C661 1.523 . S
C663 C647 1.429 . S
C663 C659 1.429 . S
C663 C664 1.523 . S
C664 C648 1.368 . S
C664 C660 1.368 . S
C664 C663 1.523 . S
H665 C640 0.950 . S
H666 C642 0.950 . S
H667 C643 0.949 . S
H668 C645 0.950 . S
H669 C647 0.950 . S
C670 C671 1.349 . S
C670 C672 1.327 . S
C670 H695 0.950 . S
C671 C670 1.349 . S
C671 C687 1.349 . S
C672 C670 1.327 . S
C672 C691 1.429 . S
C672 H696 0.950 . S
C673 C690 1.574 . S
C673 C692 1.368 . S
C673 H697 0.949 . S
H674 C678 0.949 . S
C675 C676 1.349 . S
C675 C677 1.327 . S
C675 H698 0.950 . S
C676 C675 1.349 . S
C676 C688 1.349 . S
C677 C675 1.327 . S
C677 C693 1.429 . S
C677 H699 0.950 . S
C678 H674 0.949 . S
C678 C686 1.574 . S
C678 C694 1.368 . S
H679 C687 0.950 . S
H680 C685 0.950 . S
H681 C686 0.949 . S
H682 C688 0.950 . S
H683 C689 0.950 . S
H684 C690 0.949 . S
C685 H680 0.950 . S
C685 C687 1.327 . S
C685 C691 1.429 . S
C686 C678 1.574 . S
C686 H681 0.949 . S
C686 C692 1.368 . S
C687 C671 1.349 . S
C687 H679 0.950 . S
C687 C685 1.327 . S
C688 C676 1.349 . S
C688 H682 0.950 . S
C688 C689 1.327 . S
C689 H683 0.950 . S
C689 C688 1.327 . S
C689 C693 1.429 . S
C690 C673 1.574 . S
C690 H684 0.949 . S
C690 C694 1.368 . S
C691 C672 1.429 . S
C691 C685 1.429 . S
C691 C692 1.523 . S
C692 C673 1.368 . S
C692 C686 1.368 . S
C692 C691 1.523 . S
C693 C677 1.429 . S
C693 C689 1.429 . S
C693 C694 1.523 . S
C694 C678 1.368 . S
C694 C690 1.368 . S
C694 C693 1.523 . S
H695 C670 0.950 . S
H696 C672 0.950 . S
H697 C673 0.949 . S
H698 C675 0.950 . S
H699 C677 0.950 . S
C700 C701 1.349 . S
C700 C702 1.327 . S
C700 H725 0.950 . S
C701 C700 1.349 . S
C701 C717 1.349 . S
C702 C700 1.327 . S
C702 C721 1.429 . S
C702 H726 0.950 . S
C703 C720 1.574 . S
C703 C722 1.368 . S
C703 H727 0.949 . S
H704 C708 0.949 . S
C705 C706 1.349 . S
C705 C707 1.327 . S
C705 H728 0.950 . S
C706 C705 1.349 . S
C706 C718 1.349 . S
C707 C705 1.327 . S
C707 C723 1.429 . S
C707 H729 0.950 . S
C708 H704 0.949 . S
C708 C716 1.574 . S
C708 C724 1.368 . S
H709 C717 0.950 . S
H710 C715 0.950 . S
H711 C716 0.949 . S
H712 C718 0.950 . S
H713 C719 0.950 . S
H714 C720 0.949 . S
C715 H710 0.950 . S
C715 C717 1.327 . S
C715 C721 1.429 . S
C716 C708 1.574 . S
C716 H711 0.949 . S
C716 C722 1.368 . S
C717 C701 1.349 . S
C717 H709 0.950 . S
C717 C715 1.327 . S
C718 C706 1.349 . S
C718 H712 0.950 . S
C718 C719 1.327 . S
C719 H713 0.950 . S
C719 C718 1.327 . S
C719 C723 1.429 . S
C720 C703 1.574 . S
C720 H714 0.949 . S
C720 C724 1.368 . S
C721 C702 1.429 . S
C721 C715 1.429 . S
C721 C722 1.523 . S
C722 C703 1.368 . S
C722 C716 1.368 . S
C722 C721 1.523 . S
C723 C707 1.429 . S
C723 C719 1.429 . S
C723 C724 1.523 . S
C724 C708 1.368 . S
C724 C720 1.368 . S
C724 C723 1.523 . S
H725 C700 0.950 . S
H726 C702 0.950 . S
H727 C703 0.949 . S
H728 C705 0.950 . S
H729 C707 0.950 . S
C730 C731 1.349 . S
C730 C732 1.327 . S
C730 H755 0.950 . S
C731 C730 1.349 . S
C731 C747 1.349 . S
C732 C730 1.327 . S
C732 C751 1.429 . S
C732 H756 0.950 . S
C733 C750 1.574 . S
C733 C752 1.368 . S
C733 H757 0.949 . S
H734 C738 0.949 . S
C735 C736 1.349 . S
C735 C737 1.327 . S
C735 H758 0.950 . S
C736 C735 1.349 . S
C736 C748 1.349 . S
C737 C735 1.327 . S
C737 C753 1.429 . S
C737 H759 0.950 . S
C738 H734 0.949 . S
C738 C746 1.574 . S
C738 C754 1.368 . S
H739 C747 0.950 . S
H740 C745 0.950 . S
H741 C746 0.949 . S
H742 C748 0.950 . S
H743 C749 0.950 . S
H744 C750 0.949 . S
C745 H740 0.950 . S
C745 C747 1.327 . S
C745 C751 1.429 . S
C746 C738 1.574 . S
C746 H741 0.949 . S
C746 C752 1.368 . S
C747 C731 1.349 . S
C747 H739 0.950 . S
C747 C745 1.327 . S
C748 C736 1.349 . S
C748 H742 0.950 . S
C748 C749 1.327 . S
C749 H743 0.950 . S
C749 C748 1.327 . S
C749 C753 1.429 . S
C750 C733 1.574 . S
C750 H744 0.949 . S
C750 C754 1.368 . S
C751 C732 1.429 . S
C751 C745 1.429 . S
C751 C752 1.523 . S
C752 C733 1.368 . S
C752 C746 1.368 . S
C752 C751 1.523 . S
C753 C737 1.429 . S
C753 C749 1.429 . S
C753 C754 1.523 . S
C754 C738 1.368 . S
C754 C750 1.368 . S
C754 C753 1.523 . S
H755 C730 0.950 . S
H756 C732 0.950 . S
H757 C733 0.949 . S
H758 C735 0.950 . S
H759 C737 0.950 . S
C760 C761 1.349 . S
C760 C762 1.327 . S
C760 H785 0.950 . S
C761 C760 1.349 . S
C761 C777 1.349 . S
C762 C760 1.327 . S
C762 C781 1.429 . S
C762 H786 0.950 . S
C763 C780 1.574 . S
C763 C782 1.368 . S
C763 H787 0.949 . S
H764 C768 0.949 . S
C765 C766 1.349 . S
C765 C767 1.327 . S
C765 H788 0.950 . S
C766 C765 1.349 . S
C766 C778 1.349 . S
C767 C765 1.327 . S
C767 C783 1.429 . S
C767 H789 0.950 . S
C768 H764 0.949 . S
C768 C776 1.574 . S
C768 C784 1.368 . S
H769 C777 0.950 . S
H770 C775 0.950 . S
H771 C776 0.949 . S
H772 C778 0.950 . S
H773 C779 0.950 . S
H774 C780 0.949 . S
C775 H770 0.950 . S
C775 C777 1.327 . S
C775 C781 1.429 . S
C776 C768 1.574 . S
C776 H771 0.949 . S
C776 C782 1.368 . S
C777 C761 1.349 . S
C777 H769 0.950 . S
C777 C775 1.327 . S
C778 C766 1.349 . S
C778 H772 0.950 . S
C778 C779 1.327 . S
C779 H773 0.950 . S
C779 C778 1.327 . S
C779 C783 1.429 . S
C780 C763 1.574 . S
C780 H774 0.949 . S
C780 C784 1.368 . S
C781 C762 1.429 . S
C781 C775 1.429 . S
C781 C782 1.523 . S
C782 C763 1.368 . S
C782 C776 1.368 . S
C782 C781 1.523 . S
C783 C767 1.429 . S
C783 C779 1.429 . S
C783 C784 1.523 . S
C784 C768 1.368 . S
C784 C780 1.368 . S
C784 C783 1.523 . S
H785 C760 0.950 . S
H786 C762 0.950 . S
H787 C763 0.949 . S
H788 C765 0.950 . S
H789 C767 0.950 . S
C790 C791 1.349 . S
C790 C792 1.327 . S
C790 H815 0.950 . S
C791 C790 1.349 . S
C791 C807 1.349 . S
C792 C790 1.327 . S
C792 C811 1.429 . S
C792 H816 0.950 . S
C793 C810 1.574 . S
C793 C812 1.368 . S
C793 H817 0.949 . S
H794 C798 0.949 . S
C795 C796 1.349 . S
C795 C797 1.327 . S
C795 H818 0.950 . S
C796 C795 1.349 . S
C796 C808 1.349 . S
C797 C795 1.327 . S
C797 C813 1.429 . S
C797 H819 0.950 . S
C798 H794 0.949 . S
C798 C806 1.574 . S
C798 C814 1.368 . S
H799 C807 0.950 . S
H800 C805 0.950 . S
H801 C806 0.949 . S
H802 C808 0.950 . S
H803 C809 0.950 . S
H804 C810 0.949 . S
C805 H800 0.950 . S
C805 C807 1.327 . S
C805 C811 1.429 . S
C806 C798 1.574 . S
C806 H801 0.949 . S
C806 C812 1.368 . S
C807 C791 1.349 . S
C807 H799 0.950 . S
C807 C805 1.327 . S
C808 C796 1.349 . S
C808 H802 0.950 . S
C808 C809 1.327 . S
C809 H803 0.950 . S
C809 C808 1.327 . S
C809 C813 1.429 . S
C810 C793 1.574 . S
C810 H804 0.949 . S
C810 C814 1.368 . S
C811 C792 1.429 . S
C811 C805 1.429 . S
C811 C812 1.523 . S
C812 C793 1.368 . S
C812 C806 1.368 . S
C812 C811 1.523 . S
C813 C797 1.429 . S
C813 C809 1.429 . S
C813 C814 1.523 . S
C814 C798 1.368 . S
C814 C810 1.368 . S
C814 C813 1.523 . S
H815 C790 0.950 . S
H816 C792 0.950 . S
H817 C793 0.949 . S
H818 C795 0.950 . S
H819 C797 0.950 . S
C820 C821 1.349 . S
C820 C822 1.327 . S
C820 H845 0.950 . S
C821 C820 1.349 . S
C821 C837 1.349 . S
C822 C820 1.327 . S
C822 C841 1.429 . S
C822 H846 0.950 . S
C823 C840 1.574 . S
C823 C842 1.368 . S
C823 H847 0.949 . S
H824 C828 0.949 . S
C825 C826 1.349 . S
C825 C827 1.327 . S
C825 H848 0.950 . S
C826 C825 1.349 . S
C826 C838 1.349 . S
C827 C825 1.327 . S
C827 C843 1.429 . S
C827 H849 0.950 . S
C828 H824 0.949 . S
C828 C836 1.574 . S
C828 C844 1.368 . S
H829 C837 0.950 . S
H830 C835 0.950 . S
H831 C836 0.949 . S
H832 C838 0.950 . S
H833 C839 0.950 . S
H834 C840 0.949 . S
C835 H830 0.950 . S
C835 C837 1.327 . S
C835 C841 1.429 . S
C836 C828 1.574 . S
C836 H831 0.949 . S
C836 C842 1.368 . S
C837 C821 1.349 . S
C837 H829 0.950 . S
C837 C835 1.327 . S
C838 C826 1.349 . S
C838 H832 0.950 . S
C838 C839 1.327 . S
C839 H833 0.950 . S
C839 C838 1.327 . S
C839 C843 1.429 . S
C840 C823 1.574 . S
C840 H834 0.949 . S
C840 C844 1.368 . S
C841 C822 1.429 . S
C841 C835 1.429 . S
C841 C842 1.523 . S
C842 C823 1.368 . S
C842 C836 1.368 . S
C842 C841 1.523 . S
C843 C827 1.429 . S
C843 C839 1.429 . S
C843 C844 1.523 . S
C844 C828 1.368 . S
C844 C840 1.368 . S
C844 C843 1.523 . S
H845 C820 0.950 . S
H846 C822 0.950 . S
H847 C823 0.949 . S
H848 C825 0.950 . S
H849 C827 0.950 . S
C850 C851 1.349 . S
C850 C852 1.327 . S
C850 H875 0.950 . S
C851 C850 1.349 . S
C851 C867 1.349 . S
C852 C850 1.327 . S
C852 C871 1.429 . S
C852 H876 0.950 . S
C853 C870 1.574 . S
C853 C872 1.368 . S
C853 H877 0.949 . S
H854 C858 0.949 . S
C855 C856 1.349 . S
C855 C857 1.327 . S
C855 H878 0.950 . S
C856 C855 1.349 . S
C856 C868 1.349 . S
C857 C855 1.327 . S
C857 C873 1.429 . S
C857 H879 0.950 . S
C858 H854 0.949 . S
C858 C866 1.574 . S
C858 C874 1.368 . S
H859 C867 0.950 . S
H860 C865 0.950 . S
H861 C866 0.949 . S
H862 C868 0.950 . S
H863 C869 0.950 . S
H864 C870 0.949 . S
C865 H860 0.950 . S
C865 C867 1.327 . S
C865 C871 1.429 . S
C866 C858 1.574 . S
C866 H861 0.949 . S
C866 C872 1.368 . S
C867 C851 1.349 . S
C867 H859 0.950 . S
C867 C865 1.327 . S
C868 C856 1.349 . S
C868 H862 0.950 . S
C868 C869 1.327 . S
C869 H863 0.950 . S
C869 C868 1.327 . S
C869 C873 1.429 . S
C870 C853 1.574 . S
C870 H864 0.949 . S
C870 C874 1.368 . S
C871 C852 1.429 . S
C871 C865 1.429 . S
C871 C872 1.523 . S
C872 C853 1.368 . S
C872 C866 1.368 . S
C872 C871 1.523 . S
C873 C857 1.429 . S
C873 C869 1.429 . S
C873 C874 1.523 . S
C874 C858 1.368 . S
C874 C870 1.368 . S
C874 C873 1.523 . S
H875 C850 0.950 . S
H876 C852 0.950 . S
H877 C853 0.949 . S
H878 C855 0.950 . S
H879 C857 0.950 . S
C880 C881 1.349 . S
C880 C882 1.327 . S
C880 H905 0.950 . S
C881 C880 1.349 . S
C881 C897 1.349 . S
C882 C880 1.327 . S
C882 C901 1.429 . S
C882 H906 0.950 . S
C883 C900 1.574 . S
C883 C902 1.368 1_545 S
C883 H907 0.949 . S
H884 C888 0.949 . S
C885 C886 1.349 . S
C885 C887 1.327 . S
C885 H908 0.950 . S
C886 C885 1.349 . S
C886 C898 1.349 . S
C887 C885 1.327 . S
C887 C903 1.429 . S
C887 H909 0.950 . S
C888 H884 0.949 . S
C888 C896 1.574 . S
C888 C904 1.368 1_565 S
H889 C897 0.950 . S
H890 C895 0.950 1_545 S
H891 C896 0.949 . S
H892 C898 0.950 . S
H893 C899 0.950 1_565 S
H894 C900 0.949 . S
C895 H890 0.950 1_565 S
C895 C897 1.327 . S
C895 C901 1.429 . S
C896 C888 1.574 . S
C896 H891 0.949 . S
C896 C902 1.368 . S
C897 C881 1.349 . S
C897 H889 0.950 . S
C897 C895 1.327 . S
C898 C886 1.349 . S
C898 H892 0.950 . S
C898 C899 1.327 . S
C899 H893 0.950 1_545 S
C899 C898 1.327 . S
C899 C903 1.429 . S
C900 C883 1.574 . S
C900 H894 0.949 . S
C900 C904 1.368 . S
C901 C882 1.429 . S
C901 C895 1.429 . S
C901 C902 1.523 . S
C902 C883 1.368 1_565 S
C902 C896 1.368 . S
C902 C901 1.523 . S
C903 C887 1.429 . S
C903 C899 1.429 . S
C903 C904 1.523 . S
C904 C888 1.368 1_545 S
C904 C900 1.368 . S
C904 C903 1.523 . S
H905 C880 0.950 . S
H906 C882 0.950 . S
H907 C883 0.949 . S
H908 C885 0.950 . S
H909 C887 0.950 . S
C910 C911 1.349 . S
C910 C912 1.327 . S
C910 H935 0.950 . S
C911 C910 1.349 . S
C911 C927 1.349 . S
C912 C910 1.327 . S
C912 C931 1.429 . S
C912 H936 0.950 . S
C913 C930 1.574 . S
C913 C932 1.368 1_565 S
C913 H937 0.949 . S
H914 C918 0.949 . S
C915 C916 1.349 . S
C915 C917 1.327 . S
C915 H938 0.950 . S
C916 C915 1.349 . S
C916 C928 1.349 . S
C917 C915 1.327 . S
C917 C933 1.429 . S
C917 H939 0.950 . S
C918 H914 0.949 . S
C918 C926 1.574 . S
C918 C934 1.368 1_545 S
H919 C927 0.950 . S
H920 C925 0.950 1_565 S
H921 C926 0.949 . S
H922 C928 0.950 . S
H923 C929 0.950 1_545 S
H924 C930 0.949 . S
C925 H920 0.950 1_545 S
C925 C927 1.327 . S
C925 C931 1.429 . S
C926 C918 1.574 . S
C926 H921 0.949 . S
C926 C932 1.368 . S
C927 C911 1.349 . S
C927 H919 0.950 . S
C927 C925 1.327 . S
C928 C916 1.349 . S
C928 H922 0.950 . S
C928 C929 1.327 . S
C929 H923 0.950 1_565 S
C929 C928 1.327 . S
C929 C933 1.429 . S
C930 C913 1.574 . S
C930 H924 0.949 . S
C930 C934 1.368 . S
C931 C912 1.429 . S
C931 C925 1.429 . S
C931 C932 1.523 . S
C932 C913 1.368 1_545 S
C932 C926 1.368 . S
C932 C931 1.523 . S
C933 C917 1.429 . S
C933 C929 1.429 . S
C933 C934 1.523 . S
C934 C918 1.368 1_565 S
C934 C930 1.368 . S
C934 C933 1.523 . S
H935 C910 0.950 . S
H936 C912 0.950 . S
H937 C913 0.949 . S
H938 C915 0.950 . S
H939 C917 0.950 . S
C940 C941 1.349 . S
C940 C942 1.327 . S
C940 H965 0.950 . S
C941 C940 1.349 . S
C941 C957 1.349 . S
C942 C940 1.327 . S
C942 C961 1.429 . S
C942 H966 0.950 1_545 S
C943 C960 1.574 . S
C943 C962 1.368 . S
C943 H967 0.949 . S
H944 C948 0.949 . S
C945 C946 1.349 . S
C945 C947 1.327 . S
C945 H968 0.950 . S
C946 C945 1.349 . S
C946 C958 1.349 . S
C947 C945 1.327 . S
C947 C963 1.429 . S
C947 H969 0.950 1_565 S
C948 H944 0.949 . S
C948 C956 1.574 . S
C948 C964 1.368 . S
H949 C957 0.950 . S
H950 C955 0.950 . S
H951 C956 0.949 . S
H952 C958 0.950 . S
H953 C959 0.950 . S
H954 C960 0.949 . S
C955 H950 0.950 . S
C955 C957 1.327 . S
C955 C961 1.429 . S
C956 C948 1.574 . S
C956 H951 0.949 . S
C956 C962 1.368 1_565 S
C957 C941 1.349 . S
C957 H949 0.950 . S
C957 C955 1.327 . S
C958 C946 1.349 . S
C958 H952 0.950 . S
C958 C959 1.327 . S
C959 H953 0.950 . S
C959 C958 1.327 . S
C959 C963 1.429 . S
C960 C943 1.574 . S
C960 H954 0.949 . S
C960 C964 1.368 1_545 S
C961 C942 1.429 . S
C961 C955 1.429 . S
C961 C962 1.523 . S
C962 C943 1.368 . S
C962 C956 1.368 1_545 S
C962 C961 1.523 . S
C963 C947 1.429 . S
C963 C959 1.429 . S
C963 C964 1.523 . S
C964 C948 1.368 . S
C964 C960 1.368 1_565 S
C964 C963 1.523 . S
H965 C940 0.950 . S
H966 C942 0.950 1_565 S
H967 C943 0.949 . S
H968 C945 0.950 . S
H969 C947 0.950 1_545 S
C970 C971 1.349 . S
C970 C972 1.327 . S
C970 H995 0.950 . S
C971 C970 1.349 . S
C971 C987 1.349 . S
C972 C970 1.327 . S
C972 C991 1.429 . S
C972 H996 0.950 . S
C973 C990 1.574 . S
C973 C992 1.368 1_565 S
C973 H997 0.949 . S
H974 C978 0.949 . S
C975 C976 1.349 . S
C975 C977 1.327 . S
C975 H998 0.950 . S
C976 C975 1.349 . S
C976 C988 1.349 . S
C977 C975 1.327 . S
C977 C993 1.429 . S
C977 H999 0.950 . S
C978 H974 0.949 . S
C978 C986 1.574 . S
C978 C994 1.368 1_545 S
H979 C987 0.950 . S
H980 C985 0.950 1_565 S
H981 C986 0.949 . S
H982 C988 0.950 . S
H983 C989 0.950 1_545 S
H984 C990 0.949 . S
C985 H980 0.950 1_545 S
C985 C987 1.327 . S
C985 C991 1.429 . S
C986 C978 1.574 . S
C986 H981 0.949 . S
C986 C992 1.368 . S
C987 C971 1.349 . S
C987 H979 0.950 . S
C987 C985 1.327 . S
C988 C976 1.349 . S
C988 H982 0.950 . S
C988 C989 1.327 . S
C989 H983 0.950 1_565 S
C989 C988 1.327 . S
C989 C993 1.429 . S
C990 C973 1.574 . S
C990 H984 0.949 . S
C990 C994 1.368 . S
C991 C972 1.429 . S
C991 C985 1.429 . S
C991 C992 1.523 . S
C992 C973 1.368 1_545 S
C992 C986 1.368 . S
C992 C991 1.523 . S
C993 C977 1.429 . S
C993 C989 1.429 . S
C993 C994 1.523 . S
C994 C978 1.368 1_565 S
C994 C990 1.368 . S
C994 C993 1.523 . S
H995 C970 0.950 . S
H996 C972 0.950 . S
H997 C973 0.949 . S
H998 C975 0.950 . S
H999 C977 0.950 . S
C1000 C1001 1.349 . S
C1000 C1002 1.327 . S
C1000 H1025 0.950 . S
C1001 C1000 1.349 . S
C1001 C1017 1.349 . S
C1002 C1000 1.327 . S
C1002 C1021 1.429 . S
C1002 H1026 0.950 . S
C1003 C1020 1.574 . S
C1003 C1022 1.368 . S
C1003 H1027 0.949 . S
H1004 C1008 0.949 . S
C1005 C1006 1.349 . S
C1005 C1007 1.327 . S
C1005 H1028 0.950 . S
C1006 C1005 1.349 . S
C1006 C1018 1.349 . S
C1007 C1005 1.327 . S
C1007 C1023 1.429 . S
C1007 H1029 0.950 . S
C1008 H1004 0.949 . S
C1008 C1016 1.574 . S
C1008 C1024 1.368 . S
H1009 C1017 0.950 . S
H1010 C1015 0.950 . S
H1011 C1016 0.949 . S
H1012 C1018 0.950 . S
H1013 C1019 0.950 . S
H1014 C1020 0.949 . S
C1015 H1010 0.950 . S
C1015 C1017 1.327 . S
C1015 C1021 1.429 . S
C1016 C1008 1.574 . S
C1016 H1011 0.949 . S
C1016 C1022 1.368 . S
C1017 C1001 1.349 . S
C1017 H1009 0.950 . S
C1017 C1015 1.327 . S
C1018 C1006 1.349 . S
C1018 H1012 0.950 . S
C1018 C1019 1.327 . S
C1019 H1013 0.950 . S
C1019 C1018 1.327 . S
C1019 C1023 1.429 . S
C1020 C1003 1.574 . S
C1020 H1014 0.949 . S
C1020 C1024 1.368 . S
C1021 C1002 1.429 . S
C1021 C1015 1.429 . S
C1021 C1022 1.523 . S
C1022 C1003 1.368 . S
C1022 C1016 1.368 . S
C1022 C1021 1.523 . S
C1023 C1007 1.429 . S
C1023 C1019 1.429 . S
C1023 C1024 1.523 . S
C1024 C1008 1.368 . S
C1024 C1020 1.368 . S
C1024 C1023 1.523 . S
H1025 C1000 0.950 . S
H1026 C1002 0.950 . S
H1027 C1003 0.949 . S
H1028 C1005 0.950 . S
H1029 C1007 0.950 . S
C1030 C1031 1.349 . S
C1030 C1032 1.327 . S
C1030 H1055 0.950 . S
C1031 C1030 1.349 . S
C1031 C1047 1.349 . S
C1032 C1030 1.327 . S
C1032 C1051 1.429 . S
C1032 H1056 0.950 . S
C1033 C1050 1.574 . S
C1033 C1052 1.368 . S
C1033 H1057 0.949 . S
H1034 C1038 0.949 . S
C1035 C1036 1.349 . S
C1035 C1037 1.327 . S
C1035 H1058 0.950 . S
C1036 C1035 1.349 . S
C1036 C1048 1.349 . S
C1037 C1035 1.327 . S
C1037 C1053 1.429 . S
C1037 H1059 0.950 . S
C1038 H1034 0.949 . S
C1038 C1046 1.574 . S
C1038 C1054 1.368 . S
H1039 C1047 0.950 . S
H1040 C1045 0.950 . S
H1041 C1046 0.949 . S
H1042 C1048 0.950 . S
H1043 C1049 0.950 . S
H1044 C1050 0.949 . S
C1045 H1040 0.950 . S
C1045 C1047 1.327 . S
C1045 C1051 1.429 . S
C1046 C1038 1.574 . S
C1046 H1041 0.949 . S
C1046 C1052 1.368 . S
C1047 C1031 1.349 . S
C1047 H1039 0.950 . S
C1047 C1045 1.327 . S
C1048 C1036 1.349 . S
C1048 H1042 0.950 . S
C1048 C1049 1.327 . S
C1049 H1043 0.950 . S
C1049 C1048 1.327 . S
C1049 C1053 1.429 . S
C1050 C1033 1.574 . S
C1050 H1044 0.949 . S
C1050 C1054 1.368 . S
C1051 C1032 1.429 . S
C1051 C1045 1.429 . S
C1051 C1052 1.523 . S
C1052 C1033 1.368 . S
C1052 C1046 1.368 . S
C1052 C1051 1.523 . S
C1053 C1037 1.429 . S
C1053 C1049 1.429 . S
C1053 C1054 1.523 . S
C1054 C1038 1.368 . S
C1054 C1050 1.368 . S
C1054 C1053 1.523 . S
H1055 C1030 0.950 . S
H1056 C1032 0.950 . S
H1057 C1033 0.949 . S
H1058 C1035 0.950 . S
H1059 C1037 0.950 . S
C1060 C1061 1.349 . S
C1060 C1062 1.327 . S
C1060 H1085 0.950 . S
C1061 C1060 1.349 . S
C1061 C1077 1.349 . S
C1062 C1060 1.327 . S
C1062 C1081 1.429 . S
C1062 H1086 0.950 . S
C1063 C1080 1.574 . S
C1063 C1082 1.368 . S
C1063 H1087 0.949 . S
H1064 C1068 0.949 . S
C1065 C1066 1.349 . S
C1065 C1067 1.327 . S
C1065 H1088 0.950 . S
C1066 C1065 1.349 . S
C1066 C1078 1.349 . S
C1067 C1065 1.327 . S
C1067 C1083 1.429 . S
C1067 H1089 0.950 . S
C1068 H1064 0.949 . S
C1068 C1076 1.574 . S
C1068 C1084 1.368 . S
H1069 C1077 0.950 . S
H1070 C1075 0.950 . S
H1071 C1076 0.949 . S
H1072 C1078 0.950 . S
H1073 C1079 0.950 . S
H1074 C1080 0.949 . S
C1075 H1070 0.950 . S
C1075 C1077 1.327 . S
C1075 C1081 1.429 . S
C1076 C1068 1.574 . S
C1076 H1071 0.949 . S
C1076 C1082 1.368 . S
C1077 C1061 1.349 . S
C1077 H1069 0.950 . S
C1077 C1075 1.327 . S
C1078 C1066 1.349 . S
C1078 H1072 0.950 . S
C1078 C1079 1.327 . S
C1079 H1073 0.950 . S
C1079 C1078 1.327 . S
C1079 C1083 1.429 . S
C1080 C1063 1.574 . S
C1080 H1074 0.949 . S
C1080 C1084 1.368 . S
C1081 C1062 1.429 . S
C1081 C1075 1.429 . S
C1081 C1082 1.523 . S
C1082 C1063 1.368 . S
C1082 C1076 1.368 . S
C1082 C1081 1.523 . S
C1083 C1067 1.429 . S
C1083 C1079 1.429 . S
C1083 C1084 1.523 . S
C1084 C1068 1.368 . S
C1084 C1080 1.368 . S
C1084 C1083 1.523 . S
H1085 C1060 0.950 . S
H1086 C1062 0.950 . S
H1087 C1063 0.949 . S
H1088 C1065 0.950 . S
H1089 C1067 0.950 . S
C1090 C1091 1.349 . S
C1090 C1092 1.327 . S
C1090 H1115 0.950 . S
C1091 C1090 1.349 . S
C1091 C1107 1.349 . S
C1092 C1090 1.327 . S
C1092 C1111 1.429 . S
C1092 H1116 0.950 . S
C1093 C1110 1.574 . S
C1093 C1112 1.368 . S
C1093 H1117 0.949 . S
H1094 C1098 0.949 . S
C1095 C1096 1.349 . S
C1095 C1097 1.327 . S
C1095 H1118 0.950 . S
C1096 C1095 1.349 . S
C1096 C1108 1.349 . S
C1097 C1095 1.327 . S
C1097 C1113 1.429 . S
C1097 H1119 0.950 . S
C1098 H1094 0.949 . S
C1098 C1106 1.574 . S
C1098 C1114 1.368 . S
H1099 C1107 0.950 . S
H1100 C1105 0.950 . S
H1101 C1106 0.949 . S
H1102 C1108 0.950 . S
H1103 C1109 0.950 . S
H1104 C1110 0.949 . S
C1105 H1100 0.950 . S
C1105 C1107 1.327 . S
C1105 C1111 1.429 . S
C1106 C1098 1.574 . S
C1106 H1101 0.949 . S
C1106 C1112 1.368 . S
C1107 C1091 1.349 . S
C1107 H1099 0.950 . S
C1107 C1105 1.327 . S
C1108 C1096 1.349 . S
C1108 H1102 0.950 . S
C1108 C1109 1.327 . S
C1109 H1103 0.950 . S
C1109 C1108 1.327 . S
C1109 C1113 1.429 . S
C1110 C1093 1.574 . S
C1110 H1104 0.949 . S
C1110 C1114 1.368 . S
C1111 C1092 1.429 . S
C1111 C1105 1.429 . S
C1111 C1112 1.523 . S
C1112 C1093 1.368 . S
C1112 C1106 1.368 . S
C1112 C1111 1.523 . S
C1113 C1097 1.429 . S
C1113 C1109 1.429 . S
C1113 C1114 1.523 . S
C1114 C1098 1.368 . S
C1114 C1110 1.368 . S
C1114 C1113 1.523 . S
H1115 C1090 0.950 . S
H1116 C1092 0.950 . S
H1117 C1093 0.949 . S
H1118 C1095 0.950 . S
H1119 C1097 0.950 . S
C1120 C1121 1.349 . S
C1120 C1122 1.327 . S
C1120 H1145 0.950 . S
C1121 C1120 1.349 . S
C1121 C1137 1.349 . S
C1122 C1120 1.327 . S
C1122 C1141 1.429 . S
C1122 H1146 0.950 . S
C1123 C1140 1.574 1_556 S
C1123 C1142 1.368 . S
C1123 H1147 0.949 . S
H1124 C1128 0.949 . S
C1125 C1126 1.349 . S
C1125 C1127 1.327 . S
C1125 H1148 0.950 . S
C1126 C1125 1.349 . S
C1126 C1138 1.349 . S
C1127 C1125 1.327 . S
C1127 C1143 1.429 . S
C1127 H1149 0.950 . S
C1128 H1124 0.949 . S
C1128 C1136 1.574 1_554 S
C1128 C1144 1.368 . S
H1129 C1137 0.950 . S
H1130 C1135 0.950 . S
H1131 C1136 0.949 . S
H1132 C1138 0.950 . S
H1133 C1139 0.950 . S
H1134 C1140 0.949 . S
C1135 H1130 0.950 . S
C1135 C1137 1.327 . S
C1135 C1141 1.429 . S
C1136 C1128 1.574 1_556 S
C1136 H1131 0.949 . S
C1136 C1142 1.368 . S
C1137 C1121 1.349 . S
C1137 H1129 0.950 . S
C1137 C1135 1.327 . S
C1138 C1126 1.349 . S
C1138 H1132 0.950 . S
C1138 C1139 1.327 . S
C1139 H1133 0.950 . S
C1139 C1138 1.327 . S
C1139 C1143 1.429 . S
C1140 C1123 1.574 1_554 S
C1140 H1134 0.949 . S
C1140 C1144 1.368 . S
C1141 C1122 1.429 . S
C1141 C1135 1.429 . S
C1141 C1142 1.523 . S
C1142 C1123 1.368 . S
C1142 C1136 1.368 . S
C1142 C1141 1.523 . S
C1143 C1127 1.429 . S
C1143 C1139 1.429 . S
C1143 C1144 1.523 . S
C1144 C1128 1.368 . S
C1144 C1140 1.368 . S
C1144 C1143 1.523 . S
H1145 C1120 0.950 . S
H1146 C1122 0.950 . S
H1147 C1123 0.949 . S
H1148 C1125 0.950 . S
H1149 C1127 0.950 . S
C1150 C1151 1.349 . S
C1150 C1152 1.327 . S
C1150 H1175 0.950 . S
C1151 C1150 1.349 . S
C1151 C1167 1.349 . S
C1152 C1150 1.327 . S
C1152 C1171 1.429 . S
C1152 H1176 0.950 . S
C1153 C1170 1.574 1_556 S
C1153 C1172 1.368 . S
C1153 H1177 0.949 . S
H1154 C1158 0.949 . S
C1155 C1156 1.349 . S
C1155 C1157 1.327 . S
C1155 H1178 0.950 . S
C1156 C1155 1.349 . S
C1156 C1168 1.349 . S
C1157 C1155 1.327 . S
C1157 C1173 1.429 . S
C1157 H1179 0.950 . S
C1158 H1154 0.949 . S
C1158 C1166 1.574 1_554 S
C1158 C1174 1.368 . S
H1159 C1167 0.950 . S
H1160 C1165 0.950 . S
H1161 C1166 0.949 . S
H1162 C1168 0.950 . S
H1163 C1169 0.950 . S
H1164 C1170 0.949 . S
C1165 H1160 0.950 . S
C1165 C1167 1.327 . S
C1165 C1171 1.429 . S
C1166 C1158 1.574 1_556 S
C1166 H1161 0.949 . S
C1166 C1172 1.368 . S
C1167 C1151 1.349 . S
C1167 H1159 0.950 . S
C1167 C1165 1.327 . S
C1168 C1156 1.349 . S
C1168 H1162 0.950 . S
C1168 C1169 1.327 . S
C1169 H1163 0.950 . S
C1169 C1168 1.327 . S
C1169 C1173 1.429 . S
C1170 C1153 1.574 1_554 S
C1170 H1164 0.949 . S
C1170 C1174 1.368 . S
C1171 C1152 1.429 . S
C1171 C1165 1.429 . S
C1171 C1172 1.523 . S
C1172 C1153 1.368 . S
C1172 C1166 1.368 . S
C1172 C1171 1.523 . S
C1173 C1157 1.429 . S
C1173 C1169 1.429 . S
C1173 C1174 1.523 . S
C1174 C1158 1.368 . S
C1174 C1170 1.368 . S
C1174 C1173 1.523 . S
H1175 C1150 0.950 . S
H1176 C1152 0.950 . S
H1177 C1153 0.949 . S
H1178 C1155 0.950 . S
H1179 C1157 0.950 . S
C1180 C1181 1.349 . S
C1180 C1182 1.327 . S
C1180 H1205 0.950 . S
C1181 C1180 1.349 . S
C1181 C1197 1.349 . S
C1182 C1180 1.327 . S
C1182 C1201 1.429 . S
C1182 H1206 0.950 . S
C1183 C1200 1.574 . S
C1183 C1202 1.368 . S
C1183 H1207 0.949 . S
H1184 C1188 0.949 . S
C1185 C1186 1.349 . S
C1185 C1187 1.327 . S
C1185 H1208 0.950 . S
C1186 C1185 1.349 . S
C1186 C1198 1.349 . S
C1187 C1185 1.327 . S
C1187 C1203 1.429 . S
C1187 H1209 0.950 . S
C1188 H1184 0.949 . S
C1188 C1196 1.574 . S
C1188 C1204 1.368 . S
H1189 C1197 0.950 . S
H1190 C1195 0.950 . S
H1191 C1196 0.949 . S
H1192 C1198 0.950 . S
H1193 C1199 0.950 . S
H1194 C1200 0.949 . S
C1195 H1190 0.950 . S
C1195 C1197 1.327 . S
C1195 C1201 1.429 . S
C1196 C1188 1.574 . S
C1196 H1191 0.949 . S
C1196 C1202 1.368 . S
C1197 C1181 1.349 . S
C1197 H1189 0.950 . S
C1197 C1195 1.327 . S
C1198 C1186 1.349 . S
C1198 H1192 0.950 . S
C1198 C1199 1.327 . S
C1199 H1193 0.950 . S
C1199 C1198 1.327 . S
C1199 C1203 1.429 . S
C1200 C1183 1.574 . S
C1200 H1194 0.949 . S
C1200 C1204 1.368 . S
C1201 C1182 1.429 . S
C1201 C1195 1.429 . S
C1201 C1202 1.523 . S
C1202 C1183 1.368 . S
C1202 C1196 1.368 . S
C1202 C1201 1.523 . S
C1203 C1187 1.429 . S
C1203 C1199 1.429 . S
C1203 C1204 1.523 . S
C1204 C1188 1.368 . S
C1204 C1200 1.368 . S
C1204 C1203 1.523 . S
H1205 C1180 0.950 . S
H1206 C1182 0.950 . S
H1207 C1183 0.949 . S
H1208 C1185 0.950 . S
H1209 C1187 0.950 . S
C1210 C1211 1.349 . S
C1210 C1212 1.327 . S
C1210 H1235 0.950 . S
C1211 C1210 1.349 . S
C1211 C1227 1.349 . S
C1212 C1210 1.327 . S
C1212 C1231 1.429 . S
C1212 H1236 0.950 . S
C1213 C1230 1.574 . S
C1213 C1232 1.368 . S
C1213 H1237 0.949 . S
H1214 C1218 0.949 . S
C1215 C1216 1.349 . S
C1215 C1217 1.327 . S
C1215 H1238 0.950 . S
C1216 C1215 1.349 . S
C1216 C1228 1.349 . S
C1217 C1215 1.327 . S
C1217 C1233 1.429 . S
C1217 H1239 0.950 . S
C1218 H1214 0.949 . S
C1218 C1226 1.574 . S
C1218 C1234 1.368 . S
H1219 C1227 0.950 . S
H1220 C1225 0.950 . S
H1221 C1226 0.949 . S
H1222 C1228 0.950 . S
H1223 C1229 0.950 . S
H1224 C1230 0.949 . S
C1225 H1220 0.950 . S
C1225 C1227 1.327 . S
C1225 C1231 1.429 . S
C1226 C1218 1.574 . S
C1226 H1221 0.949 . S
C1226 C1232 1.368 . S
C1227 C1211 1.349 . S
C1227 H1219 0.950 . S
C1227 C1225 1.327 . S
C1228 C1216 1.349 . S
C1228 H1222 0.950 . S
C1228 C1229 1.327 . S
C1229 H1223 0.950 . S
C1229 C1228 1.327 . S
C1229 C1233 1.429 . S
C1230 C1213 1.574 . S
C1230 H1224 0.949 . S
C1230 C1234 1.368 . S
C1231 C1212 1.429 . S
C1231 C1225 1.429 . S
C1231 C1232 1.523 . S
C1232 C1213 1.368 . S
C1232 C1226 1.368 . S
C1232 C1231 1.523 . S
C1233 C1217 1.429 . S
C1233 C1229 1.429 . S
C1233 C1234 1.523 . S
C1234 C1218 1.368 . S
C1234 C1230 1.368 . S
C1234 C1233 1.523 . S
H1235 C1210 0.950 . S
H1236 C1212 0.950 . S
H1237 C1213 0.949 . S
H1238 C1215 0.950 . S
H1239 C1217 0.950 . S
C1240 C1241 1.349 . S
C1240 C1242 1.327 . S
C1240 H1265 0.950 . S
C1241 C1240 1.349 . S
C1241 C1257 1.349 . S
C1242 C1240 1.327 . S
C1242 C1261 1.429 . S
C1242 H1266 0.950 . S
C1243 C1260 1.574 1_554 S
C1243 C1262 1.368 . S
C1243 H1267 0.949 . S
H1244 C1248 0.949 . S
C1245 C1246 1.349 . S
C1245 C1247 1.327 . S
C1245 H1268 0.950 . S
C1246 C1245 1.349 . S
C1246 C1258 1.349 . S
C1247 C1245 1.327 . S
C1247 C1263 1.429 . S
C1247 H1269 0.950 . S
C1248 H1244 0.949 . S
C1248 C1256 1.574 1_556 S
C1248 C1264 1.368 . S
H1249 C1257 0.950 . S
H1250 C1255 0.950 . S
H1251 C1256 0.949 . S
H1252 C1258 0.950 . S
H1253 C1259 0.950 . S
H1254 C1260 0.949 . S
C1255 H1250 0.950 . S
C1255 C1257 1.327 . S
C1255 C1261 1.429 . S
C1256 C1248 1.574 1_554 S
C1256 H1251 0.949 . S
C1256 C1262 1.368 . S
C1257 C1241 1.349 . S
C1257 H1249 0.950 . S
C1257 C1255 1.327 . S
C1258 C1246 1.349 . S
C1258 H1252 0.950 . S
C1258 C1259 1.327 . S
C1259 H1253 0.950 . S
C1259 C1258 1.327 . S
C1259 C1263 1.429 . S
C1260 C1243 1.574 1_556 S
C1260 H1254 0.949 . S
C1260 C1264 1.368 . S
C1261 C1242 1.429 . S
C1261 C1255 1.429 . S
C1261 C1262 1.523 . S
C1262 C1243 1.368 . S
C1262 C1256 1.368 . S
C1262 C1261 1.523 . S
C1263 C1247 1.429 . S
C1263 C1259 1.429 . S
C1263 C1264 1.523 . S
C1264 C1248 1.368 . S
C1264 C1260 1.368 . S
C1264 C1263 1.523 . S
H1265 C1240 0.950 . S
H1266 C1242 0.950 . S
H1267 C1243 0.949 . S
H1268 C1245 0.950 . S
H1269 C1247 0.950 . S
C1270 C1271 1.349 . S
C1270 C1272 1.327 . S
C1270 H1295 0.950 . S
C1271 C1270 1.349 . S
C1271 C1287 1.349 . S
C1272 C1270 1.327 . S
C1272 C1291 1.429 . S
C1272 H1296 0.950 . S
C1273 C1290 1.574 1_556 S
C1273 C1292 1.368 . S
C1273 H1297 0.949 . S
H1274 C1278 0.949 . S
C1275 C1276 1.349 . S
C1275 C1277 1.327 . S
C1275 H1298 0.950 . S
C1276 C1275 1.349 . S
C1276 C1288 1.349 . S
C1277 C1275 1.327 . S
C1277 C1293 1.429 . S
C1277 H1299 0.950 . S
C1278 H1274 0.949 . S
C1278 C1286 1.574 1_554 S
C1278 C1294 1.368 . S
H1279 C1287 0.950 . S
H1280 C1285 0.950 . S
H1281 C1286 0.949 . S
H1282 C1288 0.950 . S
H1283 C1289 0.950 . S
H1284 C1290 0.949 . S
C1285 H1280 0.950 . S
C1285 C1287 1.327 . S
C1285 C1291 1.429 . S
C1286 C1278 1.574 1_556 S
C1286 H1281 0.949 . S
C1286 C1292 1.368 . S
C1287 C1271 1.349 . S
C1287 H1279 0.950 . S
C1287 C1285 1.327 . S
C1288 C1276 1.349 . S
C1288 H1282 0.950 . S
C1288 C1289 1.327 . S
C1289 H1283 0.950 . S
C1289 C1288 1.327 . S
C1289 C1293 1.429 . S
C1290 C1273 1.574 1_554 S
C1290 H1284 0.949 . S
C1290 C1294 1.368 . S
C1291 C1272 1.429 . S
C1291 C1285 1.429 . S
C1291 C1292 1.523 . S
C1292 C1273 1.368 . S
C1292 C1286 1.368 . S
C1292 C1291 1.523 . S
C1293 C1277 1.429 . S
C1293 C1289 1.429 . S
C1293 C1294 1.523 . S
C1294 C1278 1.368 . S
C1294 C1290 1.368 . S
C1294 C1293 1.523 . S
H1295 C1270 0.950 . S
H1296 C1272 0.950 . S
H1297 C1273 0.949 . S
H1298 C1275 0.950 . S
H1299 C1277 0.950 . S
C1300 C1301 1.349 . S
C1300 C1302 1.327 . S
C1300 H1325 0.950 . S
C1301 C1300 1.349 . S
C1301 C1317 1.349 . S
C1302 C1300 1.327 . S
C1302 C1321 1.429 . S
C1302 H1326 0.950 . S
C1303 C1320 1.574 . S
C1303 C1322 1.368 . S
C1303 H1327 0.949 . S
H1304 C1308 0.949 . S
C1305 C1306 1.349 . S
C1305 C1307 1.327 . S
C1305 H1328 0.950 . S
C1306 C1305 1.349 . S
C1306 C1318 1.349 . S
C1307 C1305 1.327 . S
C1307 C1323 1.429 . S
C1307 H1329 0.950 . S
C1308 H1304 0.949 . S
C1308 C1316 1.574 . S
C1308 C1324 1.368 . S
H1309 C1317 0.950 . S
H1310 C1315 0.950 . S
H1311 C1316 0.949 . S
H1312 C1318 0.950 . S
H1313 C1319 0.950 . S
H1314 C1320 0.949 . S
C1315 H1310 0.950 . S
C1315 C1317 1.327 . S
C1315 C1321 1.429 . S
C1316 C1308 1.574 . S
C1316 H1311 0.949 . S
C1316 C1322 1.368 . S
C1317 C1301 1.349 . S
C1317 H1309 0.950 . S
C1317 C1315 1.327 . S
C1318 C1306 1.349 . S
C1318 H1312 0.950 . S
C1318 C1319 1.327 . S
C1319 H1313 0.950 . S
C1319 C1318 1.327 . S
C1319 C1323 1.429 . S
C1320 C1303 1.574 . S
C1320 H1314 0.949 . S
C1320 C1324 1.368 . S
C1321 C1302 1.429 . S
C1321 C1315 1.429 . S
C1321 C1322 1.523 . S
C1322 C1303 1.368 . S
C1322 C1316 1.368 . S
C1322 C1321 1.523 . S
C1323 C1307 1.429 . S
C1323 C1319 1.429 . S
C1323 C1324 1.523 . S
C1324 C1308 1.368 . S
C1324 C1320 1.368 . S
C1324 C1323 1.523 . S
H1325 C1300 0.950 . S
H1326 C1302 0.950 . S
H1327 C1303 0.949 . S
H1328 C1305 0.950 . S
H1329 C1307 0.950 . S
C1330 C1331 1.349 . S
C1330 C1332 1.327 . S
C1330 H1355 0.950 . S
C1331 C1330 1.349 . S
C1331 C1347 1.349 . S
C1332 C1330 1.327 . S
C1332 C1351 1.429 . S
C1332 H1356 0.950 . S
C1333 C1350 1.574 . S
C1333 C1352 1.368 . S
C1333 H1357 0.949 . S
H1334 C1338 0.949 . S
C1335 C1336 1.349 . S
C1335 C1337 1.327 . S
C1335 H1358 0.950 . S
C1336 C1335 1.349 . S
C1336 C1348 1.349 . S
C1337 C1335 1.327 . S
C1337 C1353 1.429 . S
C1337 H1359 0.950 . S
C1338 H1334 0.949 . S
C1338 C1346 1.574 . S
C1338 C1354 1.368 . S
H1339 C1347 0.950 . S
H1340 C1345 0.950 . S
H1341 C1346 0.949 . S
H1342 C1348 0.950 . S
H1343 C1349 0.950 . S
H1344 C1350 0.949 . S
C1345 H1340 0.950 . S
C1345 C1347 1.327 . S
C1345 C1351 1.429 . S
C1346 C1338 1.574 . S
C1346 H1341 0.949 . S
C1346 C1352 1.368 . S
C1347 C1331 1.349 . S
C1347 H1339 0.950 . S
C1347 C1345 1.327 . S
C1348 C1336 1.349 . S
C1348 H1342 0.950 . S
C1348 C1349 1.327 . S
C1349 H1343 0.950 . S
C1349 C1348 1.327 . S
C1349 C1353 1.429 . S
C1350 C1333 1.574 . S
C1350 H1344 0.949 . S
C1350 C1354 1.368 . S
C1351 C1332 1.429 . S
C1351 C1345 1.429 . S
C1351 C1352 1.523 . S
C1352 C1333 1.368 . S
C1352 C1346 1.368 . S
C1352 C1351 1.523 . S
C1353 C1337 1.429 . S
C1353 C1349 1.429 . S
C1353 C1354 1.523 . S
C1354 C1338 1.368 . S
C1354 C1350 1.368 . S
C1354 C1353 1.523 . S
H1355 C1330 0.950 . S
H1356 C1332 0.950 . S
H1357 C1333 0.949 . S
H1358 C1335 0.950 . S
H1359 C1337 0.950 . S
C1360 C1361 1.349 . S
C1360 C1362 1.327 1_565 S
C1360 H1385 0.950 1_565 S
C1361 C1360 1.349 . S
C1361 C1377 1.349 . S
C1362 C1360 1.327 1_545 S
C1362 C1381 1.429 1_545 S
C1362 H1386 0.950 . S
C1363 C1380 1.574 1_655 S
C1363 C1382 1.368 . S
C1363 H1387 0.949 . S
H1364 C1368 0.949 . S
C1365 C1366 1.349 . S
C1365 C1367 1.327 1_545 S
C1365 H1388 0.950 1_545 S
C1366 C1365 1.349 . S
C1366 C1378 1.349 . S
C1367 C1365 1.327 1_565 S
C1367 C1383 1.429 1_565 S
C1367 H1389 0.950 . S
C1368 H1364 0.949 . S
C1368 C1376 1.574 1_455 S
C1368 C1384 1.368 . S
H1369 C1377 0.950 . S
H1370 C1375 0.950 . S
H1371 C1376 0.949 . S
H1372 C1378 0.950 . S
H1373 C1379 0.950 . S
H1374 C1380 0.949 . S
C1375 H1370 0.950 . S
C1375 C1377 1.327 . S
C1375 C1381 1.429 . S
C1376 C1368 1.574 1_655 S
C1376 H1371 0.949 . S
C1376 C1382 1.368 1_545 S
C1377 C1361 1.349 . S
C1377 H1369 0.950 . S
C1377 C1375 1.327 . S
C1378 C1366 1.349 . S
C1378 H1372 0.950 . S
C1378 C1379 1.327 . S
C1379 H1373 0.950 . S
C1379 C1378 1.327 . S
C1379 C1383 1.429 . S
C1380 C1363 1.574 1_455 S
C1380 H1374 0.949 . S
C1380 C1384 1.368 1_565 S
C1381 C1362 1.429 1_565 S
C1381 C1375 1.429 . S
C1381 C1382 1.523 . S
C1382 C1363 1.368 . S
C1382 C1376 1.368 1_565 S
C1382 C1381 1.523 . S
C1383 C1367 1.429 1_545 S
C1383 C1379 1.429 . S
C1383 C1384 1.523 . S
C1384 C1368 1.368 . S
C1384 C1380 1.368 1_545 S
C1384 C1383 1.523 . S
H1385 C1360 0.950 1_545 S
H1386 C1362 0.950 . S
H1387 C1363 0.949 . S
H1388 C1365 0.950 1_565 S
H1389 C1367 0.950 . S
C1390 C1391 1.349 . S
C1390 C1392 1.327 1_545 S
C1390 H1415 0.950 1_545 S
C1391 C1390 1.349 . S
C1391 C1407 1.349 . S
C1392 C1390 1.327 1_565 S
C1392 C1411 1.429 1_565 S
C1392 H1416 0.950 . S
C1393 C1410 1.574 1_655 S
C1393 C1412 1.368 . S
C1393 H1417 0.949 . S
H1394 C1398 0.949 . S
C1395 C1396 1.349 . S
C1395 C1397 1.327 1_565 S
C1395 H1418 0.950 1_565 S
C1396 C1395 1.349 . S
C1396 C1408 1.349 . S
C1397 C1395 1.327 1_545 S
C1397 C1413 1.429 1_545 S
C1397 H1419 0.950 . S
C1398 H1394 0.949 . S
C1398 C1406 1.574 1_455 S
C1398 C1414 1.368 . S
H1399 C1407 0.950 . S
H1400 C1405 0.950 . S
H1401 C1406 0.949 . S
H1402 C1408 0.950 . S
H1403 C1409 0.950 . S
H1404 C1410 0.949 . S
C1405 H1400 0.950 . S
C1405 C1407 1.327 . S
C1405 C1411 1.429 . S
C1406 C1398 1.574 1_655 S
C1406 H1401 0.949 . S
C1406 C1412 1.368 1_565 S
C1407 C1391 1.349 . S
C1407 H1399 0.950 . S
C1407 C1405 1.327 . S
C1408 C1396 1.349 . S
C1408 H1402 0.950 . S
C1408 C1409 1.327 . S
C1409 H1403 0.950 . S
C1409 C1408 1.327 . S
C1409 C1413 1.429 . S
C1410 C1393 1.574 1_455 S
C1410 H1404 0.949 . S
C1410 C1414 1.368 1_545 S
C1411 C1392 1.429 1_545 S
C1411 C1405 1.429 . S
C1411 C1412 1.523 . S
C1412 C1393 1.368 . S
C1412 C1406 1.368 1_545 S
C1412 C1411 1.523 . S
C1413 C1397 1.429 1_565 S
C1413 C1409 1.429 . S
C1413 C1414 1.523 . S
C1414 C1398 1.368 . S
C1414 C1410 1.368 1_565 S
C1414 C1413 1.523 . S
H1415 C1390 0.950 1_565 S
H1416 C1392 0.950 . S
H1417 C1393 0.949 . S
H1418 C1395 0.950 1_545 S
H1419 C1397 0.950 . S
C1420 C1421 1.349 . S
C1420 C1422 1.327 . S
C1420 H1445 0.950 . S
C1421 C1420 1.349 . S
C1421 C1437 1.349 . S
C1422 C1420 1.327 . S
C1422 C1441 1.429 . S
C1422 H1446 0.950 . S
C1423 C1440 1.574 1_455 S
C1423 C1442 1.368 1_565 S
C1423 H1447 0.949 . S
H1424 C1428 0.949 . S
C1425 C1426 1.349 . S
C1425 C1427 1.327 . S
C1425 H1448 0.950 . S
C1426 C1425 1.349 . S
C1426 C1438 1.349 . S
C1427 C1425 1.327 . S
C1427 C1443 1.429 . S
C1427 H1449 0.950 . S
C1428 H1424 0.949 . S
C1428 C1436 1.574 1_655 S
C1428 C1444 1.368 1_545 S
H1429 C1437 0.950 1_565 S
H1430 C1435 0.950 . S
H1431 C1436 0.949 . S
H1432 C1438 0.950 1_545 S
H1433 C1439 0.950 . S
H1434 C1440 0.949 . S
C1435 H1430 0.950 . S
C1435 C1437 1.327 1_565 S
C1435 C1441 1.429 1_565 S
C1436 C1428 1.574 1_455 S
C1436 H1431 0.949 . S
C1436 C1442 1.368 . S
C1437 C1421 1.349 . S
C1437 H1429 0.950 1_545 S
C1437 C1435 1.327 1_545 S
C1438 C1426 1.349 . S
C1438 H1432 0.950 1_565 S
C1438 C1439 1.327 1_565 S
C1439 H1433 0.950 . S
C1439 C1438 1.327 1_545 S
C1439 C1443 1.429 1_545 S
C1440 C1423 1.574 1_655 S
C1440 H1434 0.949 . S
C1440 C1444 1.368 . S
C1441 C1422 1.429 . S
C1441 C1435 1.429 1_545 S
C1441 C1442 1.523 . S
C1442 C1423 1.368 1_545 S
C1442 C1436 1.368 . S
C1442 C1441 1.523 . S
C1443 C1427 1.429 . S
C1443 C1439 1.429 1_565 S
C1443 C1444 1.523 . S
C1444 C1428 1.368 1_565 S
C1444 C1440 1.368 . S
C1444 C1443 1.523 . S
H1445 C1420 0.950 . S
H1446 C1422 0.950 . S
H1447 C1423 0.949 . S
H1448 C1425 0.950 . S
H1449 C1427 0.950 . S
C1450 C1451 1.349 . S
C1450 C1452 1.327 . S
C1450 H1475 0.950 . S
C1451 C1450 1.349 . S
C1451 C1467 1.349 . S
C1452 C1450 1.327 . S
C1452 C1471 1.429 . S
C1452 H1476 0.950 . S
C1453 C1470 1.574 1_655 S
C1453 C1472 1.368 1_565 S
C1453 H1477 0.949 . S
H1454 C1458 0.949 . S
C1455 C1456 1.349 . S
C1455 C1457 1.327 . S
C1455 H1478 0.950 . S
C1456 C1455 1.349 . S
C1456 C1468 1.349 . S
C1457 C1455 1.327 . S
C1457 C1473 1.429 . S
C1457 H1479 0.950 . S
C1458 H1454 0.949 . S
C1458 C1466 1.574 1_455 S
C1458 C1474 1.368 1_545 S
H1459 C1467 0.950 1_565 S
H1460 C1465 0.950 . S
H1461 C1466 0.949 . S
H1462 C1468 0.950 1_545 S
H1463 C1469 0.950 . S
H1464 C1470 0.949 . S
C1465 H1460 0.950 . S
C1465 C1467 1.327 1_565 S
C1465 C1471 1.429 1_565 S
C1466 C1458 1.574 1_655 S
C1466 H1461 0.949 . S
C1466 C1472 1.368 . S
C1467 C1451 1.349 . S
C1467 H1459 0.950 1_545 S
C1467 C1465 1.327 1_545 S
C1468 C1456 1.349 . S
C1468 H1462 0.950 1_565 S
C1468 C1469 1.327 1_565 S
C1469 H1463 0.950 . S
C1469 C1468 1.327 1_545 S
C1469 C1473 1.429 1_545 S
C1470 C1453 1.574 1_455 S
C1470 H1464 0.949 . S
C1470 C1474 1.368 . S
C1471 C1452 1.429 . S
C1471 C1465 1.429 1_545 S
C1471 C1472 1.523 . S
C1472 C1453 1.368 1_545 S
C1472 C1466 1.368 . S
C1472 C1471 1.523 . S
C1473 C1457 1.429 . S
C1473 C1469 1.429 1_565 S
C1473 C1474 1.523 . S
C1474 C1458 1.368 1_565 S
C1474 C1470 1.368 . S
C1474 C1473 1.523 . S
H1475 C1450 0.950 . S
H1476 C1452 0.950 . S
H1477 C1453 0.949 . S
H1478 C1455 0.950 . S
H1479 C1457 0.950 . S
C1480 C1481 1.349 . S
C1480 C1482 1.327 . S
C1480 H1505 0.950 . S
C1481 C1480 1.349 . S
C1481 C1497 1.349 . S
C1482 C1480 1.327 . S
C1482 C1501 1.429 . S
C1482 H1506 0.950 . S
C1483 C1500 1.574 . S
C1483 C1502 1.368 . S
C1483 H1507 0.949 . S
H1484 C1488 0.949 . S
C1485 C1486 1.349 . S
C1485 C1487 1.327 . S
C1485 H1508 0.950 . S
C1486 C1485 1.349 . S
C1486 C1498 1.349 . S
C1487 C1485 1.327 . S
C1487 C1503 1.429 . S
C1487 H1509 0.950 . S
C1488 H1484 0.949 . S
C1488 C1496 1.574 . S
C1488 C1504 1.368 . S
H1489 C1497 0.950 . S
H1490 C1495 0.950 . S
H1491 C1496 0.949 . S
H1492 C1498 0.950 . S
H1493 C1499 0.950 . S
H1494 C1500 0.949 . S
C1495 H1490 0.950 . S
C1495 C1497 1.327 . S
C1495 C1501 1.429 . S
C1496 C1488 1.574 . S
C1496 H1491 0.949 . S
C1496 C1502 1.368 . S
C1497 C1481 1.349 . S
C1497 H1489 0.950 . S
C1497 C1495 1.327 . S
C1498 C1486 1.349 . S
C1498 H1492 0.950 . S
C1498 C1499 1.327 . S
C1499 H1493 0.950 . S
C1499 C1498 1.327 . S
C1499 C1503 1.429 . S
C1500 C1483 1.574 . S
C1500 H1494 0.949 . S
C1500 C1504 1.368 . S
C1501 C1482 1.429 . S
C1501 C1495 1.429 . S
C1501 C1502 1.523 . S
C1502 C1483 1.368 . S
C1502 C1496 1.368 . S
C1502 C1501 1.523 . S
C1503 C1487 1.429 . S
C1503 C1499 1.429 . S
C1503 C1504 1.523 . S
C1504 C1488 1.368 . S
C1504 C1500 1.368 . S
C1504 C1503 1.523 . S
H1505 C1480 0.950 . S
H1506 C1482 0.950 . S
H1507 C1483 0.949 . S
H1508 C1485 0.950 . S
H1509 C1487 0.950 . S
C1510 C1511 1.349 . S
C1510 C1512 1.327 . S
C1510 H1535 0.950 . S
C1511 C1510 1.349 . S
C1511 C1527 1.349 . S
C1512 C1510 1.327 . S
C1512 C1531 1.429 . S
C1512 H1536 0.950 . S
C1513 C1530 1.574 . S
C1513 C1532 1.368 . S
C1513 H1537 0.949 . S
H1514 C1518 0.949 . S
C1515 C1516 1.349 . S
C1515 C1517 1.327 . S
C1515 H1538 0.950 . S
C1516 C1515 1.349 . S
C1516 C1528 1.349 . S
C1517 C1515 1.327 . S
C1517 C1533 1.429 . S
C1517 H1539 0.950 . S
C1518 H1514 0.949 . S
C1518 C1526 1.574 . S
C1518 C1534 1.368 . S
H1519 C1527 0.950 . S
H1520 C1525 0.950 . S
H1521 C1526 0.949 . S
H1522 C1528 0.950 . S
H1523 C1529 0.950 . S
H1524 C1530 0.949 . S
C1525 H1520 0.950 . S
C1525 C1527 1.327 . S
C1525 C1531 1.429 . S
C1526 C1518 1.574 . S
C1526 H1521 0.949 . S
C1526 C1532 1.368 . S
C1527 C1511 1.349 . S
C1527 H1519 0.950 . S
C1527 C1525 1.327 . S
C1528 C1516 1.349 . S
C1528 H1522 0.950 . S
C1528 C1529 1.327 . S
C1529 H1523 0.950 . S
C1529 C1528 1.327 . S
C1529 C1533 1.429 . S
C1530 C1513 1.574 . S
C1530 H1524 0.949 . S
C1530 C1534 1.368 . S
C1531 C1512 1.429 . S
C1531 C1525 1.429 . S
C1531 C1532 1.523 . S
C1532 C1513 1.368 . S
C1532 C1526 1.368 . S
C1532 C1531 1.523 . S
C1533 C1517 1.429 . S
C1533 C1529 1.429 . S
C1533 C1534 1.523 . S
C1534 C1518 1.368 . S
C1534 C1530 1.368 . S
C1534 C1533 1.523 . S
H1535 C1510 0.950 . S
H1536 C1512 0.950 . S
H1537 C1513 0.949 . S
H1538 C1515 0.950 . S
H1539 C1517 0.950 . S
C1540 C1541 1.349 . S
C1540 C1542 1.327 . S
C1540 H1565 0.950 . S
C1541 C1540 1.349 . S
C1541 C1557 1.349 . S
C1542 C1540 1.327 . S
C1542 C1561 1.429 . S
C1542 H1566 0.950 . S
C1543 C1560 1.574 . S
C1543 C1562 1.368 . S
C1543 H1567 0.949 . S
H1544 C1548 0.949 . S
C1545 C1546 1.349 . S
C1545 C1547 1.327 . S
C1545 H1568 0.950 . S
C1546 C1545 1.349 . S
C1546 C1558 1.349 . S
C1547 C1545 1.327 . S
C1547 C1563 1.429 . S
C1547 H1569 0.950 . S
C1548 H1544 0.949 . S
C1548 C1556 1.574 . S
C1548 C1564 1.368 . S
H1549 C1557 0.950 . S
H1550 C1555 0.950 . S
H1551 C1556 0.949 . S
H1552 C1558 0.950 . S
H1553 C1559 0.950 . S
H1554 C1560 0.949 . S
C1555 H1550 0.950 . S
C1555 C1557 1.327 . S
C1555 C1561 1.429 . S
C1556 C1548 1.574 . S
C1556 H1551 0.949 . S
C1556 C1562 1.368 . S
C1557 C1541 1.349 . S
C1557 H1549 0.950 . S
C1557 C1555 1.327 . S
C1558 C1546 1.349 . S
C1558 H1552 0.950 . S
C1558 C1559 1.327 . S
C1559 H1553 0.950 . S
C1559 C1558 1.327 . S
C1559 C1563 1.429 . S
C1560 C1543 1.574 . S
C1560 H1554 0.949 . S
C1560 C1564 1.368 . S
C1561 C1542 1.429 . S
C1561 C1555 1.429 . S
C1561 C1562 1.523 . S
C1562 C1543 1.368 . S
C1562 C1556 1.368 . S
C1562 C1561 1.523 . S
C1563 C1547 1.429 . S
C1563 C1559 1.429 . S
C1563 C1564 1.523 . S
C1564 C1548 1.368 . S
C1564 C1560 1.368 . S
C1564 C1563 1.523 . S
H1565 C1540 0.950 . S
H1566 C1542 0.950 . S
H1567 C1543 0.949 . S
H1568 C1545 0.950 . S
H1569 C1547 0.950 . S
C1570 C1571 1.349 . S
C1570 C1572 1.327 . S
C1570 H1595 0.950 . S
C1571 C1570 1.349 . S
C1571 C1587 1.349 . S
C1572 C1570 1.327 . S
C1572 C1591 1.429 . S
C1572 H1596 0.950 . S
C1573 C1590 1.574 . S
C1573 C1592 1.368 . S
C1573 H1597 0.949 . S
H1574 C1578 0.949 . S
C1575 C1576 1.349 . S
C1575 C1577 1.327 . S
C1575 H1598 0.950 . S
C1576 C1575 1.349 . S
C1576 C1588 1.349 . S
C1577 C1575 1.327 . S
C1577 C1593 1.429 . S
C1577 H1599 0.950 . S
C1578 H1574 0.949 . S
C1578 C1586 1.574 . S
C1578 C1594 1.368 . S
H1579 C1587 0.950 . S
H1580 C1585 0.950 . S
H1581 C1586 0.949 . S
H1582 C1588 0.950 . S
H1583 C1589 0.950 . S
H1584 C1590 0.949 . S
C1585 H1580 0.950 . S
C1585 C1587 1.327 . S
C1585 C1591 1.429 . S
C1586 C1578 1.574 . S
C1586 H1581 0.949 . S
C1586 C1592 1.368 . S
C1587 C1571 1.349 . S
C1587 H1579 0.950 . S
C1587 C1585 1.327 . S
C1588 C1576 1.349 . S
C1588 H1582 0.950 . S
C1588 C1589 1.327 . S
C1589 H1583 0.950 . S
C1589 C1588 1.327 . S
C1589 C1593 1.429 . S
C1590 C1573 1.574 . S
C1590 H1584 0.949 . S
C1590 C1594 1.368 . S
C1591 C1572 1.429 . S
C1591 C1585 1.429 . S
C1591 C1592 1.523 . S
C1592 C1573 1.368 . S
C1592 C1586 1.368 . S
C1592 C1591 1.523 . S
C1593 C1577 1.429 . S
C1593 C1589 1.429 . S
C1593 C1594 1.523 . S
C1594 C1578 1.368 . S
C1594 C1590 1.368 . S
C1594 C1593 1.523 . S
H1595 C1570 0.950 . S
H1596 C1572 0.950 . S
H1597 C1573 0.949 . S
H1598 C1575 0.950 . S
H1599 C1577 0.950 . S
C1600 C1601 1.349 . S
C1600 C1602 1.327 . S
C1600 H1625 0.950 . S
C1601 C1600 1.349 . S
C1601 C1617 1.349 . S
C1602 C1600 1.327 . S
C1602 C1621 1.429 . S
C1602 H1626 0.950 . S
C1603 C1620 1.574 . S
C1603 C1622 1.368 . S
C1603 H1627 0.949 . S
H1604 C1608 0.949 . S
C1605 C1606 1.349 . S
C1605 C1607 1.327 . S
C1605 H1628 0.950 . S
C1606 C1605 1.349 . S
C1606 C1618 1.349 . S
C1607 C1605 1.327 . S
C1607 C1623 1.429 . S
C1607 H1629 0.950 . S
C1608 H1604 0.949 . S
C1608 C1616 1.574 . S
C1608 C1624 1.368 . S
H1609 C1617 0.950 . S
H1610 C1615 0.950 . S
H1611 C1616 0.949 . S
H1612 C1618 0.950 . S
H1613 C1619 0.950 . S
H1614 C1620 0.949 . S
C1615 H1610 0.950 . S
C1615 C1617 1.327 . S
C1615 C1621 1.429 . S
C1616 C1608 1.574 . S
C1616 H1611 0.949 . S
C1616 C1622 1.368 . S
C1617 C1601 1.349 . S
C1617 H1609 0.950 . S
C1617 C1615 1.327 . S
C1618 C1606 1.349 . S
C1618 H1612 0.950 . S
C1618 C1619 1.327 . S
C1619 H1613 0.950 . S
C1619 C1618 1.327 . S
C1619 C1623 1.429 . S
C1620 C1603 1.574 . S
C1620 H1614 0.949 . S
C1620 C1624 1.368 . S
C1621 C1602 1.429 . S
C1621 C1615 1.429 . S
C1621 C1622 1.523 . S
C1622 C1603 1.368 . S
C1622 C1616 1.368 . S
C1622 C1621 1.523 . S
C1623 C1607 1.429 . S
C1623 C1619 1.429 . S
C1623 C1624 1.523 . S
C1624 C1608 1.368 . S
C1624 C1620 1.368 . S
C1624 C1623 1.523 . S
H1625 C1600 0.950 . S
H1626 C1602 0.950 . S
H1627 C1603 0.949 . S
H1628 C1605 0.950 . S
H1629 C1607 0.950 . S
C1630 C1631 1.349 . S
C1630 C1632 1.327 . S
C1630 H1655 0.950 . S
C1631 C1630 1.349 . S
C1631 C1647 1.349 . S
C1632 C1630 1.327 . S
C1632 C1651 1.429 . S
C1632 H1656 0.950 . S
C1633 C1650 1.574 . S
C1633 C1652 1.368 . S
C1633 H1657 0.949 . S
H1634 C1638 0.949 . S
C1635 C1636 1.349 . S
C1635 C1637 1.327 . S
C1635 H1658 0.950 . S
C1636 C1635 1.349 . S
C1636 C1648 1.349 . S
C1637 C1635 1.327 . S
C1637 C1653 1.429 . S
C1637 H1659 0.950 . S
C1638 H1634 0.949 . S
C1638 C1646 1.574 . S
C1638 C1654 1.368 . S
H1639 C1647 0.950 . S
H1640 C1645 0.950 . S
H1641 C1646 0.949 . S
H1642 C1648 0.950 . S
H1643 C1649 0.950 . S
H1644 C1650 0.949 . S
C1645 H1640 0.950 . S
C1645 C1647 1.327 . S
C1645 C1651 1.429 . S
C1646 C1638 1.574 . S
C1646 H1641 0.949 . S
C1646 C1652 1.368 . S
C1647 C1631 1.349 . S
C1647 H1639 0.950 . S
C1647 C1645 1.327 . S
C1648 C1636 1.349 . S
C1648 H1642 0.950 . S
C1648 C1649 1.327 . S
C1649 H1643 0.950 . S
C1649 C1648 1.327 . S
C1649 C1653 1.429 . S
C1650 C1633 1.574 . S
C1650 H1644 0.949 . S
C1650 C1654 1.368 . S
C1651 C1632 1.429 . S
C1651 C1645 1.429 . S
C1651 C1652 1.523 . S
C1652 C1633 1.368 . S
C1652 C1646 1.368 . S
C1652 C1651 1.523 . S
C1653 C1637 1.429 . S
C1653 C1649 1.429 . S
C1653 C1654 1.523 . S
C1654 C1638 1.368 . S
C1654 C1650 1.368 . S
C1654 C1653 1.523 . S
H1655 C1630 0.950 . S
H1656 C1632 0.950 . S
H1657 C1633 0.949 . S
H1658 C1635 0.950 . S
H1659 C1637 0.950 . S
C1660 C1661 1.349 . S
C1660 C1662 1.327 . S
C1660 H1685 0.950 . S
C1661 C1660 1.349 . S
C1661 C1677 1.349 . S
C1662 C1660 1.327 . S
C1662 C1681 1.429 . S
C1662 H1686 0.950 . S
C1663 C1680 1.574 . S
C1663 C1682 1.368 . S
C1663 H1687 0.949 . S
H1664 C1668 0.949 . S
C1665 C1666 1.349 . S
C1665 C1667 1.327 . S
C1665 H1688 0.950 . S
C1666 C1665 1.349 . S
C1666 C1678 1.349 . S
C1667 C1665 1.327 . S
C1667 C1683 1.429 . S
C1667 H1689 0.950 . S
C1668 H1664 0.949 . S
C1668 C1676 1.574 . S
C1668 C1684 1.368 . S
H1669 C1677 0.950 . S
H1670 C1675 0.950 . S
H1671 C1676 0.949 . S
H1672 C1678 0.950 . S
H1673 C1679 0.950 . S
H1674 C1680 0.949 . S
C1675 H1670 0.950 . S
C1675 C1677 1.327 . S
C1675 C1681 1.429 . S
C1676 C1668 1.574 . S
C1676 H1671 0.949 . S
C1676 C1682 1.368 . S
C1677 C1661 1.349 . S
C1677 H1669 0.950 . S
C1677 C1675 1.327 . S
C1678 C1666 1.349 . S
C1678 H1672 0.950 . S
C1678 C1679 1.327 . S
C1679 H1673 0.950 . S
C1679 C1678 1.327 . S
C1679 C1683 1.429 . S
C1680 C1663 1.574 . S
C1680 H1674 0.949 . S
C1680 C1684 1.368 . S
C1681 C1662 1.429 . S
C1681 C1675 1.429 . S
C1681 C1682 1.523 . S
C1682 C1663 1.368 . S
C1682 C1676 1.368 . S
C1682 C1681 1.523 . S
C1683 C1667 1.429 . S
C1683 C1679 1.429 . S
C1683 C1684 1.523 . S
C1684 C1668 1.368 . S
C1684 C1680 1.368 . S
C1684 C1683 1.523 . S
H1685 C1660 0.950 . S
H1686 C1662 0.950 . S
H1687 C1663 0.949 . S
H1688 C1665 0.950 . S
H1689 C1667 0.950 . S
C1690 C1691 1.349 . S
C1690 C1692 1.327 . S
C1690 H1715 0.950 . S
C1691 C1690 1.349 . S
C1691 C1707 1.349 . S
C1692 C1690 1.327 . S
C1692 C1711 1.429 . S
C1692 H1716 0.950 . S
C1693 C1710 1.574 . S
C1693 C1712 1.368 . S
C1693 H1717 0.949 . S
H1694 C1698 0.949 . S
C1695 C1696 1.349 . S
C1695 C1697 1.327 . S
C1695 H1718 0.950 . S
C1696 C1695 1.349 . S
C1696 C1708 1.349 . S
C1697 C1695 1.327 . S
C1697 C1713 1.429 . S
C1697 H1719 0.950 . S
C1698 H1694 0.949 . S
C1698 C1706 1.574 . S
C1698 C1714 1.368 . S
H1699 C1707 0.950 . S
H1700 C1705 0.950 . S
H1701 C1706 0.949 . S
H1702 C1708 0.950 . S
H1703 C1709 0.950 . S
H1704 C1710 0.949 . S
C1705 H1700 0.950 . S
C1705 C1707 1.327 . S
C1705 C1711 1.429 . S
C1706 C1698 1.574 . S
C1706 H1701 0.949 . S
C1706 C1712 1.368 . S
C1707 C1691 1.349 . S
C1707 H1699 0.950 . S
C1707 C1705 1.327 . S
C1708 C1696 1.349 . S
C1708 H1702 0.950 . S
C1708 C1709 1.327 . S
C1709 H1703 0.950 . S
C1709 C1708 1.327 . S
C1709 C1713 1.429 . S
C1710 C1693 1.574 . S
C1710 H1704 0.949 . S
C1710 C1714 1.368 . S
C1711 C1692 1.429 . S
C1711 C1705 1.429 . S
C1711 C1712 1.523 . S
C1712 C1693 1.368 . S
C1712 C1706 1.368 . S
C1712 C1711 1.523 . S
C1713 C1697 1.429 . S
C1713 C1709 1.429 . S
C1713 C1714 1.523 . S
C1714 C1698 1.368 . S
C1714 C1710 1.368 . S
C1714 C1713 1.523 . S
H1715 C1690 0.950 . S
H1716 C1692 0.950 . S
H1717 C1693 0.949 . S
H1718 C1695 0.950 . S
H1719 C1697 0.950 . S
C1720 C1721 1.349 . S
C1720 C1722 1.327 . S
C1720 H1745 0.950 . S
C1721 C1720 1.349 . S
C1721 C1737 1.349 . S
C1722 C1720 1.327 . S
C1722 C1741 1.429 . S
C1722 H1746 0.950 . S
C1723 C1740 1.574 . S
C1723 C1742 1.368 . S
C1723 H1747 0.949 . S
H1724 C1728 0.949 . S
C1725 C1726 1.349 . S
C1725 C1727 1.327 . S
C1725 H1748 0.950 . S
C1726 C1725 1.349 . S
C1726 C1738 1.349 . S
C1727 C1725 1.327 . S
C1727 C1743 1.429 . S
C1727 H1749 0.950 . S
C1728 H1724 0.949 . S
C1728 C1736 1.574 . S
C1728 C1744 1.368 . S
H1729 C1737 0.950 . S
H1730 C1735 0.950 . S
H1731 C1736 0.949 . S
H1732 C1738 0.950 . S
H1733 C1739 0.950 . S
H1734 C1740 0.949 . S
C1735 H1730 0.950 . S
C1735 C1737 1.327 . S
C1735 C1741 1.429 . S
C1736 C1728 1.574 . S
C1736 H1731 0.949 . S
C1736 C1742 1.368 . S
C1737 C1721 1.349 . S
C1737 H1729 0.950 . S
C1737 C1735 1.327 . S
C1738 C1726 1.349 . S
C1738 H1732 0.950 . S
C1738 C1739 1.327 . S
C1739 H1733 0.950 . S
C1739 C1738 1.327 . S
C1739 C1743 1.429 . S
C1740 C1723 1.574 . S
C1740 H1734 0.949 . S
C1740 C1744 1.368 . S
C1741 C1722 1.429 . S
C1741 C1735 1.429 . S
C1741 C1742 1.523 . S
C1742 C1723 1.368 . S
C1742 C1736 1.368 . S
C1742 C1741 1.523 . S
C1743 C1727 1.429 . S
C1743 C1739 1.429 . S
C1743 C1744 1.523 . S
C1744 C1728 1.368 . S
C1744 C1740 1.368 . S
C1744 C1743 1.523 . S
H1745 C1720 0.950 . S
H1746 C1722 0.950 . S
H1747 C1723 0.949 . S
H1748 C1725 0.950 . S
H1749 C1727 0.950 . S
C1750 C1751 1.349 . S
C1750 C1752 1.327 . S
C1750 H1775 0.950 . S
C1751 C1750 1.349 . S
C1751 C1767 1.349 . S
C1752 C1750 1.327 . S
C1752 C1771 1.429 . S
C1752 H1776 0.950 . S
C1753 C1770 1.574 . S
C1753 C1772 1.368 . S
C1753 H1777 0.949 . S
H1754 C1758 0.949 . S
C1755 C1756 1.349 . S
C1755 C1757 1.327 . S
C1755 H1778 0.950 . S
C1756 C1755 1.349 . S
C1756 C1768 1.349 . S
C1757 C1755 1.327 . S
C1757 C1773 1.429 . S
C1757 H1779 0.950 . S
C1758 H1754 0.949 . S
C1758 C1766 1.574 . S
C1758 C1774 1.368 . S
H1759 C1767 0.950 . S
H1760 C1765 0.950 . S
H1761 C1766 0.949 . S
H1762 C1768 0.950 . S
H1763 C1769 0.950 . S
H1764 C1770 0.949 . S
C1765 H1760 0.950 . S
C1765 C1767 1.327 . S
C1765 C1771 1.429 . S
C1766 C1758 1.574 . S
C1766 H1761 0.949 . S
C1766 C1772 1.368 . S
C1767 C1751 1.349 . S
C1767 H1759 0.950 . S
C1767 C1765 1.327 . S
C1768 C1756 1.349 . S
C1768 H1762 0.950 . S
C1768 C1769 1.327 . S
C1769 H1763 0.950 . S
C1769 C1768 1.327 . S
C1769 C1773 1.429 . S
C1770 C1753 1.574 . S
C1770 H1764 0.949 . S
C1770 C1774 1.368 . S
C1771 C1752 1.429 . S
C1771 C1765 1.429 . S
C1771 C1772 1.523 . S
C1772 C1753 1.368 . S
C1772 C1766 1.368 . S
C1772 C1771 1.523 . S
C1773 C1757 1.429 . S
C1773 C1769 1.429 . S
C1773 C1774 1.523 . S
C1774 C1758 1.368 . S
C1774 C1770 1.368 . S
C1774 C1773 1.523 . S
H1775 C1750 0.950 . S
H1776 C1752 0.950 . S
H1777 C1753 0.949 . S
H1778 C1755 0.950 . S
H1779 C1757 0.950 . S
C1780 C1781 1.349 . S
C1780 C1782 1.327 . S
C1780 H1805 0.950 . S
C1781 C1780 1.349 . S
C1781 C1797 1.349 . S
C1782 C1780 1.327 . S
C1782 C1801 1.429 . S
C1782 H1806 0.950 . S
C1783 C1800 1.574 . S
C1783 C1802 1.368 . S
C1783 H1807 0.949 . S
H1784 C1788 0.949 . S
C1785 C1786 1.349 . S
C1785 C1787 1.327 . S
C1785 H1808 0.950 . S
C1786 C1785 1.349 . S
C1786 C1798 1.349 . S
C1787 C1785 1.327 . S
C1787 C1803 1.429 . S
C1787 H1809 0.950 . S
C1788 H1784 0.949 . S
C1788 C1796 1.574 . S
C1788 C1804 1.368 . S
H1789 C1797 0.950 . S
H1790 C1795 0.950 . S
H1791 C1796 0.949 . S
H1792 C1798 0.950 . S
H1793 C1799 0.950 . S
H1794 C1800 0.949 . S
C1795 H1790 0.950 . S
C1795 C1797 1.327 . S
C1795 C1801 1.429 . S
C1796 C1788 1.574 . S
C1796 H1791 0.949 . S
C1796 C1802 1.368 . S
C1797 C1781 1.349 . S
C1797 H1789 0.950 . S
C1797 C1795 1.327 . S
C1798 C1786 1.349 . S
C1798 H1792 0.950 . S
C1798 C1799 1.327 . S
C1799 H1793 0.950 . S
C1799 C1798 1.327 . S
C1799 C1803 1.429 . S
C1800 C1783 1.574 . S
C1800 H1794 0.949 . S
C1800 C1804 1.368 . S
C1801 C1782 1.429 . S
C1801 C1795 1.429 . S
C1801 C1802 1.523 . S
C1802 C1783 1.368 . S
C1802 C1796 1.368 . S
C1802 C1801 1.523 . S
C1803 C1787 1.429 . S
C1803 C1799 1.429 . S
C1803 C1804 1.523 . S
C1804 C1788 1.368 . S
C1804 C1800 1.368 . S
C1804 C1803 1.523 . S
H1805 C1780 0.950 . S
H1806 C1782 0.950 . S
H1807 C1783 0.949 . S
H1808 C1785 0.950 . S
H1809 C1787 0.950 . S
C1810 C1811 1.349 . S
C1810 C1812 1.327 . S
C1810 H1835 0.950 . S
C1811 C1810 1.349 . S
C1811 C1827 1.349 . S
C1812 C1810 1.327 . S
C1812 C1831 1.429 . S
C1812 H1836 0.950 . S
C1813 C1830 1.574 . S
C1813 C1832 1.368 . S
C1813 H1837 0.949 . S
H1814 C1818 0.949 . S
C1815 C1816 1.349 . S
C1815 C1817 1.327 . S
C1815 H1838 0.950 . S
C1816 C1815 1.349 . S
C1816 C1828 1.349 . S
C1817 C1815 1.327 . S
C1817 C1833 1.429 . S
C1817 H1839 0.950 . S
C1818 H1814 0.949 . S
C1818 C1826 1.574 . S
C1818 C1834 1.368 . S
H1819 C1827 0.950 . S
H1820 C1825 0.950 . S
H1821 C1826 0.949 . S
H1822 C1828 0.950 . S
H1823 C1829 0.950 . S
H1824 C1830 0.949 . S
C1825 H1820 0.950 . S
C1825 C1827 1.327 . S
C1825 C1831 1.429 . S
C1826 C1818 1.574 . S
C1826 H1821 0.949 . S
C1826 C1832 1.368 . S
C1827 C1811 1.349 . S
C1827 H1819 0.950 . S
C1827 C1825 1.327 . S
C1828 C1816 1.349 . S
C1828 H1822 0.950 . S
C1828 C1829 1.327 . S
C1829 H1823 0.950 . S
C1829 C1828 1.327 . S
C1829 C1833 1.429 . S
C1830 C1813 1.574 . S
C1830 H1824 0.949 . S
C1830 C1834 1.368 . S
C1831 C1812 1.429 . S
C1831 C1825 1.429 . S
C1831 C1832 1.523 . S
C1832 C1813 1.368 . S
C1832 C1826 1.368 . S
C1832 C1831 1.523 . S
C1833 C1817 1.429 . S
C1833 C1829 1.429 . S
C1833 C1834 1.523 . S
C1834 C1818 1.368 . S
C1834 C1830 1.368 . S
C1834 C1833 1.523 . S
H1835 C1810 0.950 . S
H1836 C1812 0.950 . S
H1837 C1813 0.949 . S
H1838 C1815 0.950 . S
H1839 C1817 0.950 . S
C1840 C1841 1.349 . S
C1840 C1842 1.327 . S
C1840 H1865 0.950 . S
C1841 C1840 1.349 . S
C1841 C1857 1.349 . S
C1842 C1840 1.327 . S
C1842 C1861 1.429 1_565 S
C1842 H1866 0.950 1_565 S
C1843 C1860 1.574 . S
C1843 C1862 1.368 . S
C1843 H1867 0.949 . S
H1844 C1848 0.949 . S
C1845 C1846 1.349 . S
C1845 C1847 1.327 . S
C1845 H1868 0.950 . S
C1846 C1845 1.349 . S
C1846 C1858 1.349 . S
C1847 C1845 1.327 . S
C1847 C1863 1.429 . S
C1847 H1869 0.950 . S
C1848 H1844 0.949 . S
C1848 C1856 1.574 . S
C1848 C1864 1.368 . S
H1849 C1857 0.950 . S
H1850 C1855 0.950 . S
H1851 C1856 0.949 . S
H1852 C1858 0.950 . S
H1853 C1859 0.950 . S
H1854 C1860 0.949 . S
C1855 H1850 0.950 . S
C1855 C1857 1.327 . S
C1855 C1861 1.429 1_565 S
C1856 C1848 1.574 . S
C1856 H1851 0.949 . S
C1856 C1862 1.368 . S
C1857 C1841 1.349 . S
C1857 H1849 0.950 . S
C1857 C1855 1.327 . S
C1858 C1846 1.349 . S
C1858 H1852 0.950 . S
C1858 C1859 1.327 . S
C1859 H1853 0.950 . S
C1859 C1858 1.327 . S
C1859 C1863 1.429 . S
C1860 C1843 1.574 . S
C1860 H1854 0.949 . S
C1860 C1864 1.368 . S
C1861 C1842 1.429 1_545 S
C1861 C1855 1.429 1_545 S
C1861 C1862 1.523 . S
C1862 C1843 1.368 . S
C1862 C1856 1.368 . S
C1862 C1861 1.523 . S
C1863 C1847 1.429 . S
C1863 C1859 1.429 . S
C1863 C1864 1.523 . S
C1864 C1848 1.368 . S
C1864 C1860 1.368 . S
C1864 C1863 1.523 . S
H1865 C1840 0.950 . S
H1866 C1842 0.950 1_545 S
H1867 C1843 0.949 . S
H1868 C1845 0.950 . S
H1869 C1847 0.950 . S
C1870 C1871 1.349 . S
C1870 C1872 1.327 . S
C1870 H1895 0.950 . S
C1871 C1870 1.349 . S
C1871 C1887 1.349 . S
C1872 C1870 1.327 . S
C1872 C1891 1.429 . S
C1872 H1896 0.950 . S
C1873 C1890 1.574 . S
C1873 C1892 1.368 . S
C1873 H1897 0.949 . S
H1874 C1878 0.949 . S
C1875 C1876 1.349 . S
C1875 C1877 1.327 . S
C1875 H1898 0.950 . S
C1876 C1875 1.349 . S
C1876 C1888 1.349 . S
C1877 C1875 1.327 . S
C1877 C1893 1.429 1_545 S
C1877 H1899 0.950 . S
C1878 H1874 0.949 . S
C1878 C1886 1.574 . S
C1878 C1894 1.368 . S
H1879 C1887 0.950 . S
H1880 C1885 0.950 . S
H1881 C1886 0.949 . S
H1882 C1888 0.950 . S
H1883 C1889 0.950 . S
H1884 C1890 0.949 . S
C1885 H1880 0.950 . S
C1885 C1887 1.327 . S
C1885 C1891 1.429 . S
C1886 C1878 1.574 . S
C1886 H1881 0.949 . S
C1886 C1892 1.368 . S
C1887 C1871 1.349 . S
C1887 H1879 0.950 . S
C1887 C1885 1.327 . S
C1888 C1876 1.349 . S
C1888 H1882 0.950 . S
C1888 C1889 1.327 . S
C1889 H1883 0.950 . S
C1889 C1888 1.327 . S
C1889 C1893 1.429 1_545 S
C1890 C1873 1.574 . S
C1890 H1884 0.949 . S
C1890 C1894 1.368 . S
C1891 C1872 1.429 . S
C1891 C1885 1.429 . S
C1891 C1892 1.523 . S
C1892 C1873 1.368 . S
C1892 C1886 1.368 . S
C1892 C1891 1.523 . S
C1893 C1877 1.429 1_565 S
C1893 C1889 1.429 1_565 S
C1893 C1894 1.523 . S
C1894 C1878 1.368 . S
C1894 C1890 1.368 . S
C1894 C1893 1.523 . S
H1895 C1870 0.950 . S
H1896 C1872 0.950 . S
H1897 C1873 0.949 . S
H1898 C1875 0.950 . S
H1899 C1877 0.950 . S
C1900 C1901 1.349 . S
C1900 C1902 1.327 . S
C1900 H1925 0.950 . S
C1901 C1900 1.349 . S
C1901 C1917 1.349 . S
C1902 C1900 1.327 . S
C1902 C1921 1.429 1_545 S
C1902 H1926 0.939 1_545 S
C1903 C1920 1.574 . S
C1903 C1922 1.368 . S
C1903 H1927 0.949 . S
H1904 C1908 0.949 . S
C1905 C1906 1.349 . S
C1905 C1907 1.327 . S
C1905 H1928 0.950 . S
C1906 C1905 1.349 . S
C1906 C1918 1.349 . S
C1907 C1905 1.327 . S
C1907 C1923 1.429 . S
C1907 H1929 0.950 . S
C1908 H1904 0.949 . S
C1908 C1916 1.574 . S
C1908 C1924 1.368 . S
H1909 C1917 0.950 . S
H1910 C1915 0.950 . S
H1911 C1916 0.949 . S
H1912 C1918 0.950 . S
H1913 C1919 0.950 . S
H1914 C1920 0.949 . S
C1915 H1910 0.950 . S
C1915 C1917 1.327 . S
C1915 C1921 1.429 1_545 S
C1916 C1908 1.574 . S
C1916 H1911 0.949 . S
C1916 C1922 1.368 . S
C1917 C1901 1.349 . S
C1917 H1909 0.950 . S
C1917 C1915 1.327 . S
C1918 C1906 1.349 . S
C1918 H1912 0.950 . S
C1918 C1919 1.327 . S
C1919 H1913 0.950 . S
C1919 C1918 1.327 . S
C1919 C1923 1.429 . S
C1920 C1903 1.574 . S
C1920 H1914 0.949 . S
C1920 C1924 1.368 . S
C1921 C1902 1.429 1_565 S
C1921 C1915 1.429 1_565 S
C1921 C1922 1.523 . S
C1922 C1903 1.368 . S
C1922 C1916 1.368 . S
C1922 C1921 1.523 . S
C1923 C1907 1.429 . S
C1923 C1919 1.429 . S
C1923 C1924 1.523 . S
C1924 C1908 1.368 . S
C1924 C1920 1.368 . S
C1924 C1923 1.523 . S
H1925 C1900 0.950 . S
H1926 C1902 0.939 1_565 S
H1927 C1903 0.949 . S
H1928 C1905 0.950 . S
H1929 C1907 0.950 . S
C1930 C1931 1.349 . S
C1930 C1932 1.327 . S
C1930 H1955 0.950 . S
C1931 C1930 1.349 . S
C1931 C1947 1.349 . S
C1932 C1930 1.327 . S
C1932 C1951 1.429 1_565 S
C1932 H1956 0.950 . S
C1933 C1950 1.574 . S
C1933 C1952 1.368 . S
C1933 H1957 0.949 . S
H1934 C1938 0.949 . S
C1935 C1936 1.349 . S
C1935 C1937 1.327 . S
C1935 H1958 0.950 . S
C1936 C1935 1.349 . S
C1936 C1948 1.349 . S
C1937 C1935 1.327 . S
C1937 C1953 1.429 . S
C1937 H1959 0.950 . S
C1938 H1934 0.949 . S
C1938 C1946 1.574 . S
C1938 C1954 1.368 . S
H1939 C1947 0.950 . S
H1940 C1945 0.950 1_545 S
H1941 C1946 0.949 . S
H1942 C1948 0.950 . S
H1943 C1949 0.950 . S
H1944 C1950 0.949 . S
C1945 H1940 0.950 1_565 S
C1945 C1947 1.327 . S
C1945 C1951 1.429 1_565 S
C1946 C1938 1.574 . S
C1946 H1941 0.949 . S
C1946 C1952 1.368 . S
C1947 C1931 1.349 . S
C1947 H1939 0.950 . S
C1947 C1945 1.327 . S
C1948 C1936 1.349 . S
C1948 H1942 0.950 . S
C1948 C1949 1.327 . S
C1949 H1943 0.950 . S
C1949 C1948 1.327 . S
C1949 C1953 1.429 . S
C1950 C1933 1.574 . S
C1950 H1944 0.949 . S
C1950 C1954 1.368 . S
C1951 C1932 1.429 1_545 S
C1951 C1945 1.429 1_545 S
C1951 C1952 1.523 . S
C1952 C1933 1.368 . S
C1952 C1946 1.368 . S
C1952 C1951 1.523 . S
C1953 C1937 1.429 . S
C1953 C1949 1.429 . S
C1953 C1954 1.523 . S
C1954 C1938 1.368 . S
C1954 C1950 1.368 . S
C1954 C1953 1.523 . S
H1955 C1930 0.950 . S
H1956 C1932 0.950 . S
H1957 C1933 0.949 . S
H1958 C1935 0.950 . S
H1959 C1937 0.950 . S
C1960 C1961 1.349 . S
C1960 C1962 1.327 . S
C1960 H1985 0.950 . S
C1961 C1960 1.349 . S
C1961 C1977 1.349 . S
C1962 C1960 1.327 . S
C1962 C1981 1.429 . S
C1962 H1986 0.950 . S
C1963 C1980 1.574 . S
C1963 C1982 1.368 . S
C1963 H1987 0.949 . S
H1964 C1968 0.949 . S
C1965 C1966 1.349 . S
C1965 C1967 1.327 . S
C1965 H1988 0.950 . S
C1966 C1965 1.349 . S
C1966 C1978 1.349 . S
C1967 C1965 1.327 . S
C1967 C1983 1.429 1_545 S
C1967 H1989 0.950 1_545 S
C1968 H1964 0.949 . S
C1968 C1976 1.574 . S
C1968 C1984 1.368 . S
H1969 C1977 0.950 . S
H1970 C1975 0.950 . S
H1971 C1976 0.949 . S
H1972 C1978 0.950 . S
H1973 C1979 0.950 . S
H1974 C1980 0.949 . S
C1975 H1970 0.950 . S
C1975 C1977 1.327 . S
C1975 C1981 1.429 . S
C1976 C1968 1.574 . S
C1976 H1971 0.949 . S
C1976 C1982 1.368 . S
C1977 C1961 1.349 . S
C1977 H1969 0.950 . S
C1977 C1975 1.327 . S
C1978 C1966 1.349 . S
C1978 H1972 0.950 . S
C1978 C1979 1.327 . S
C1979 H1973 0.950 . S
C1979 C1978 1.327 . S
C1979 C1983 1.429 1_545 S
C1980 C1963 1.574 . S
C1980 H1974 0.949 . S
C1980 C1984 1.368 . S
C1981 C1962 1.429 . S
C1981 C1975 1.429 . S
C1981 C1982 1.523 . S
C1982 C1963 1.368 . S
C1982 C1976 1.368 . S
C1982 C1981 1.523 . S
C1983 C1967 1.429 1_565 S
C1983 C1979 1.429 1_565 S
C1983 C1984 1.523 . S
C1984 C1968 1.368 . S
C1984 C1980 1.368 . S
C1984 C1983 1.523 . S
H1985 C1960 0.950 . S
H1986 C1962 0.950 . S
H1987 C1963 0.949 . S
H1988 C1965 0.950 . S
H1989 C1967 0.950 1_565 S
C1990 C1991 1.349 . S
C1990 C1992 1.327 . S
C1990 H2015 0.950 . S
C1991 C1990 1.349 . S
C1991 C2007 1.349 . S
C1992 C1990 1.327 . S
C1992 C2011 1.429 . S
C1992 H2016 0.950 . S
C1993 C2010 1.574 . S
C1993 C2012 1.368 . S
C1993 H2017 0.949 . S
H1994 C1998 0.949 . S
C1995 C1996 1.349 . S
C1995 C1997 1.327 . S
C1995 H2018 0.950 . S
C1996 C1995 1.349 . S
C1996 C2008 1.349 . S
C1997 C1995 1.327 . S
C1997 C2013 1.429 1_565 S
C1997 H2019 0.950 1_565 S
C1998 H1994 0.949 . S
C1998 C2006 1.574 . S
C1998 C2014 1.368 . S
H1999 C2007 0.950 . S
H2000 C2005 0.950 . S
H2001 C2006 0.949 . S
H2002 C2008 0.950 . S
H2003 C2009 0.950 . S
H2004 C2010 0.949 . S
C2005 H2000 0.950 . S
C2005 C2007 1.327 . S
C2005 C2011 1.429 . S
C2006 C1998 1.574 . S
C2006 H2001 0.949 . S
C2006 C2012 1.368 . S
C2007 C1991 1.349 . S
C2007 H1999 0.950 . S
C2007 C2005 1.327 . S
C2008 C1996 1.349 . S
C2008 H2002 0.950 . S
C2008 C2009 1.327 . S
C2009 H2003 0.950 . S
C2009 C2008 1.327 . S
C2009 C2013 1.429 1_565 S
C2010 C1993 1.574 . S
C2010 H2004 0.949 . S
C2010 C2014 1.368 . S
C2011 C1992 1.429 . S
C2011 C2005 1.429 . S
C2011 C2012 1.523 . S
C2012 C1993 1.368 . S
C2012 C2006 1.368 . S
C2012 C2011 1.523 . S
C2013 C1997 1.429 1_545 S
C2013 C2009 1.429 1_545 S
C2013 C2014 1.523 . S
C2014 C1998 1.368 . S
C2014 C2010 1.368 . S
C2014 C2013 1.523 . S
H2015 C1990 0.950 . S
H2016 C1992 0.950 . S
H2017 C1993 0.949 . S
H2018 C1995 0.950 . S
H2019 C1997 0.950 1_545 S
C2020 C2021 1.349 . S
C2020 C2022 1.327 . S
C2020 H2045 0.950 . S
C2021 C2020 1.349 . S
C2021 C2037 1.349 . S
C2022 C2020 1.327 . S
C2022 C2041 1.429 1_565 S
C2022 H2046 0.950 . S
C2023 C2040 1.574 . S
C2023 C2042 1.368 . S
C2023 H2047 0.949 . S
H2024 C2028 0.949 . S
C2025 C2026 1.349 . S
C2025 C2027 1.327 . S
C2025 H2048 0.950 . S
C2026 C2025 1.349 . S
C2026 C2038 1.349 . S
C2027 C2025 1.327 . S
C2027 C2043 1.429 . S
C2027 H2049 0.950 . S
C2028 H2024 0.949 . S
C2028 C2036 1.574 . S
C2028 C2044 1.368 . S
H2029 C2037 0.950 . S
H2030 C2035 0.950 . S
H2031 C2036 0.949 . S
H2032 C2038 0.950 . S
H2033 C2039 0.950 . S
H2034 C2040 0.949 . S
C2035 H2030 0.950 . S
C2035 C2037 1.327 . S
C2035 C2041 1.429 1_565 S
C2036 C2028 1.574 . S
C2036 H2031 0.949 . S
C2036 C2042 1.368 . S
C2037 C2021 1.349 . S
C2037 H2029 0.950 . S
C2037 C2035 1.327 . S
C2038 C2026 1.349 . S
C2038 H2032 0.950 . S
C2038 C2039 1.327 . S
C2039 H2033 0.950 . S
C2039 C2038 1.327 . S
C2039 C2043 1.429 . S
C2040 C2023 1.574 . S
C2040 H2034 0.949 . S
C2040 C2044 1.368 . S
C2041 C2022 1.429 1_545 S
C2041 C2035 1.429 1_545 S
C2041 C2042 1.523 . S
C2042 C2023 1.368 . S
C2042 C2036 1.368 . S
C2042 C2041 1.523 . S
C2043 C2027 1.429 . S
C2043 C2039 1.429 . S
C2043 C2044 1.523 . S
C2044 C2028 1.368 . S
C2044 C2040 1.368 . S
C2044 C2043 1.523 . S
H2045 C2020 0.950 . S
H2046 C2022 0.950 . S
H2047 C2023 0.949 . S
H2048 C2025 0.950 . S
H2049 C2027 0.950 . S
C2050 C2051 1.349 . S
C2050 C2052 1.327 . S
C2050 H2075 0.950 . S
C2051 C2050 1.349 . S
C2051 C2067 1.349 . S
C2052 C2050 1.327 . S
C2052 C2071 1.429 . S
C2052 H2076 0.950 . S
C2053 C2070 1.574 . S
C2053 C2072 1.368 . S
C2053 H2077 0.949 . S
H2054 C2058 0.949 . S
C2055 C2056 1.349 . S
C2055 C2057 1.327 . S
C2055 H2078 0.950 . S
C2056 C2055 1.349 . S
C2056 C2068 1.349 . S
C2057 C2055 1.327 . S
C2057 C2073 1.429 1_545 S
C2057 H2079 0.950 . S
C2058 H2054 0.949 . S
C2058 C2066 1.574 . S
C2058 C2074 1.368 . S
H2059 C2067 0.950 . S
H2060 C2065 0.950 . S
H2061 C2066 0.949 . S
H2062 C2068 0.950 . S
H2063 C2069 0.950 . S
H2064 C2070 0.949 . S
C2065 H2060 0.950 . S
C2065 C2067 1.327 . S
C2065 C2071 1.429 . S
C2066 C2058 1.574 . S
C2066 H2061 0.949 . S
C2066 C2072 1.368 . S
C2067 C2051 1.349 . S
C2067 H2059 0.950 . S
C2067 C2065 1.327 . S
C2068 C2056 1.349 . S
C2068 H2062 0.950 . S
C2068 C2069 1.327 . S
C2069 H2063 0.950 . S
C2069 C2068 1.327 . S
C2069 C2073 1.429 1_545 S
C2070 C2053 1.574 . S
C2070 H2064 0.949 . S
C2070 C2074 1.368 . S
C2071 C2052 1.429 . S
C2071 C2065 1.429 . S
C2071 C2072 1.523 . S
C2072 C2053 1.368 . S
C2072 C2066 1.368 . S
C2072 C2071 1.523 . S
C2073 C2057 1.429 1_565 S
C2073 C2069 1.429 1_565 S
C2073 C2074 1.523 . S
C2074 C2058 1.368 . S
C2074 C2070 1.368 . S
C2074 C2073 1.523 . S
H2075 C2050 0.950 . S
H2076 C2052 0.950 . S
H2077 C2053 0.949 . S
H2078 C2055 0.950 . S
H2079 C2057 0.950 . S
C641 C19 1.541 . S
C646 C379 1.541 . S
C671 C59 1.541 . S
C676 C339 1.541 . S
C701 C459 1.541 . S
C706 C99 1.541 . S
C731 C139 1.541 . S
C736 C419 1.541 . S
C761 C530 1.541 . S
C766 C170 1.541 . S
C791 C490 1.541 . S
C796 C210 1.541 . S
C821 C610 1.541 . S
C826 C250 1.541 . S
C851 C290 1.541 . S
C856 C570 1.541 . S
C881 C98 1.643 . S
C886 C18 1.643 . S
C911 C138 1.643 . S
C916 C58 1.643 . S
C941 C249 1.643 . S
C946 C169 1.643 . S
C971 C209 1.643 . S
C976 C289 1.643 . S
C1001 C418 1.643 . S
C1006 C338 1.643 . S
C1031 C458 1.643 . S
C1036 C378 1.643 . S
C1061 C489 1.643 . S
C1066 C569 1.643 . S
C1091 C529 1.643 . S
C1096 C609 1.643 . S
C1121 C218 1.520 . S
C1126 C9 1.520 . S
C1151 C178 1.520 . S
C1156 C49 1.520 . S
C1181 C89 1.520 . S
C1186 C298 1.520 . S
C1211 C258 1.520 . S
C1216 C129 1.520 . S
C1241 C329 1.520 . S
C1246 C538 1.520 . S
C1271 C498 1.520 . S
C1276 C369 1.520 . S
C1301 C409 1.520 . S
C1306 C618 1.520 . S
C1331 C578 1.520 . S
C1336 C449 1.520 . S
C1361 C50 1.622 . S
C1366 C10 1.622 . S
C1391 C130 1.622 . S
C1396 C90 1.622 . S
C1421 C219 1.622 . S
C1426 C179 1.622 . S
C1451 C259 1.622 . S
C1456 C299 1.622 . S
C1481 C370 1.622 . S
C1486 C330 1.622 . S
C1511 C450 1.622 . S
C1516 C410 1.622 . S
C1541 C499 1.622 . S
C1546 C539 1.622 . S
C1571 C579 1.622 . S
C1576 C619 1.622 . S
C1601 C6 1.731 . S
C1606 C15 1.731 . S
C1631 C46 1.731 . S
C1636 C55 1.731 . S
C1661 C86 1.731 . S
C1666 C95 1.731 . S
C1691 C135 1.731 . S
C1696 C126 1.731 . S
C1721 C175 1.731 . S
C1726 C166 1.731 . S
C1751 C206 1.731 . S
C1756 C215 1.731 . S
C1781 C255 1.731 . S
C1786 C246 1.731 . S
C1811 C295 1.731 . S
C1816 C286 1.731 . S
C1841 C335 1.731 . S
C1846 C326 1.731 . S
C1871 C366 1.731 . S
C1876 C375 1.731 . S
C1901 C415 1.731 . S
C1906 C406 1.731 . S
C1931 C455 1.731 . S
C1936 C446 1.731 . S
C1961 C495 1.731 . S
C1966 C486 1.731 . S
C1991 C535 1.731 . S
C1996 C526 1.731 . S
C2021 C566 1.731 . S
C2026 C575 1.731 . S
C2051 C615 1.731 . S
C2056 C606 1.731 . S
