# Generated by pormake.
# Topology ske, (6)-cn, num edge types: 1
# Building blocks:
#     Node 0, Type 0, BuildingBlock: HISSIN_clean_sbu_0, # of connection points: 6
#     Node 1, Type 0, BuildingBlock: HISSIN_clean_sbu_0, # of connection points: 6
#     Node 2, Type 0, BuildingBlock: HISSIN_clean_sbu_0, # of connection points: 6
#     Node 3, Type 0, BuildingBlock: HISSIN_clean_sbu_0, # of connection points: 6
#     Node 4, Type 0, BuildingBlock: HISSIN_clean_sbu_0, # of connection points: 6
#     Node 5, Type 0, BuildingBlock: HISSIN_clean_sbu_0, # of connection points: 6
#     Node 6, Type 0, BuildingBlock: HISSIN_clean_sbu_0, # of connection points: 6
#     Node 7, Type 0, BuildingBlock: HISSIN_clean_sbu_0, # of connection points: 6
#     Edge 8, Type (0, 0), BuildingBlock: ZUJKAS_clean_linker_0, # of connection points: 2
#     Edge 9, Type (0, 0), BuildingBlock: ZUJKAS_clean_linker_0, # of connection points: 2
#     Edge 10, Type (0, 0), BuildingBlock: ZUJKAS_clean_linker_0, # of connection points: 2
#     Edge 11, Type (0, 0), BuildingBlock: ZUJKAS_clean_linker_0, # of connection points: 2
#     Edge 12, Type (0, 0), BuildingBlock: ZUJKAS_clean_linker_0, # of connection points: 2
#     Edge 13, Type (0, 0), BuildingBlock: ZUJKAS_clean_linker_0, # of connection points: 2
#     Edge 14, Type (0, 0), BuildingBlock: ZUJKAS_clean_linker_0, # of connection points: 2
#     Edge 15, Type (0, 0), BuildingBlock: ZUJKAS_clean_linker_0, # of connection points: 2
#     Edge 16, Type (0, 0), BuildingBlock: ZUJKAS_clean_linker_0, # of connection points: 2
#     Edge 17, Type (0, 0), BuildingBlock: ZUJKAS_clean_linker_0, # of connection points: 2
#     Edge 18, Type (0, 0), BuildingBlock: ZUJKAS_clean_linker_0, # of connection points: 2
#     Edge 19, Type (0, 0), BuildingBlock: ZUJKAS_clean_linker_0, # of connection points: 2
#     Edge 20, Type (0, 0), BuildingBlock: ZUJKAS_clean_linker_0, # of connection points: 2
#     Edge 21, Type (0, 0), BuildingBlock: ZUJKAS_clean_linker_0, # of connection points: 2
#     Edge 22, Type (0, 0), BuildingBlock: ZUJKAS_clean_linker_0, # of connection points: 2
#     Edge 23, Type (0, 0), BuildingBlock: ZUJKAS_clean_linker_0, # of connection points: 2
#     Edge 24, Type (0, 0), BuildingBlock: ZUJKAS_clean_linker_0, # of connection points: 2
#     Edge 25, Type (0, 0), BuildingBlock: ZUJKAS_clean_linker_0, # of connection points: 2
#     Edge 26, Type (0, 0), BuildingBlock: ZUJKAS_clean_linker_0, # of connection points: 2
#     Edge 27, Type (0, 0), BuildingBlock: ZUJKAS_clean_linker_0, # of connection points: 2
#     Edge 28, Type (0, 0), BuildingBlock: ZUJKAS_clean_linker_0, # of connection points: 2
#     Edge 29, Type (0, 0), BuildingBlock: ZUJKAS_clean_linker_0, # of connection points: 2
#     Edge 30, Type (0, 0), BuildingBlock: ZUJKAS_clean_linker_0, # of connection points: 2
#     Edge 31, Type (0, 0), BuildingBlock: ZUJKAS_clean_linker_0, # of connection points: 2
# Relax obj value: 0.189
# Max RMSD: 0.197
# Mean RMSD: 0.191
data_MOF--net-ske--node1-HISSIN_clean_sbu_0--edge1-ZUJKAS_clean_linker_0
_symmetry_space_group_name_H-M    P1
_symmetry_Int_Tables_number       1
_symmetry_cell_setting            triclinic
loop_
_symmetry_equiv_pos_as_xyz
'x, y, z'
_cell_length_a     120.69631
_cell_length_b     39.411543
_cell_length_c     19.977982
_cell_angle_alpha  90.001518
_cell_angle_beta   89.974729
_cell_angle_gamma 98.051386
loop_
_atom_site_label
_atom_site_type_symbol
_atom_site_fract_x
_atom_site_fract_y
_atom_site_fract_z
_atom_type_partial_charge
Eu0 Eu 0.12523 0.23362 0.50988 0.0
Eu1 Eu 0.15321 0.24264 0.50619 0.0
C2 C 0.13989 0.30691 0.50945 0.0
C3 C 0.09278 0.23472 0.48686 0.0
C4 C 0.08784 0.2623 0.51232 0.0
C5 C 0.07586 0.21711 0.42194 0.0
C6 C 0.07697 0.26683 0.4939 0.0
C7 C 0.08674 0.21255 0.44045 0.0
C8 C 0.07072 0.24378 0.4498 0.0
C9 C 0.10335 0.22628 0.51632 0.0
O10 O 0.14885 0.23066 0.61417 0.0
O11 O 0.13089 0.24415 0.61633 0.0
C12 C 0.13994 0.23716 0.64701 0.0
O13 O 0.13065 0.18336 0.53844 0.0
O14 O 0.16967 0.27345 0.49228 0.0
O15 O 0.16839 0.21887 0.5111 0.0
O16 O 0.14624 0.18944 0.4731 0.0
C17 C 0.13837 0.16992 0.50578 0.0
O18 O 0.1296 0.2282 0.40073 0.0
O19 O 0.14815 0.25254 0.40027 0.0
O20 O 0.14806 0.2931 0.53712 0.0
O21 O 0.1089 0.20505 0.48457 0.0
O22 O 0.10992 0.25062 0.54665 0.0
O23 O 0.1314 0.28796 0.48082 0.0
C24 C 0.18532 0.25312 0.54518 0.0
C25 C 0.18786 0.22789 0.59022 0.0
C26 C 0.20366 0.28561 0.56691 0.0
C27 C 0.19826 0.23119 0.62223 0.0
C28 C 0.19327 0.28222 0.53464 0.0
C29 C 0.20639 0.25979 0.6101 0.0
C30 C 0.17509 0.24755 0.50327 0.0
C31 C 0.13883 0.24075 0.36878 0.0
H32 H 0.09217 0.27955 0.54901 0.0
H33 H 0.07136 0.19915 0.38711 0.0
H34 H 0.07326 0.28739 0.51709 0.0
H35 H 0.09024 0.19083 0.42037 0.0
H36 H 0.18199 0.20494 0.59912 0.0
H37 H 0.20963 0.30824 0.55714 0.0
H38 H 0.20008 0.21055 0.65437 0.0
H39 H 0.19158 0.30194 0.49983 0.0
Eu40 Eu 0.89687 0.23541 0.52513 0.0
Eu41 Eu 0.86888 0.22475 0.52191 0.0
C42 C 0.88244 0.16233 0.5233 0.0
C43 C 0.92972 0.24868 0.49785 0.0
C44 C 0.93297 0.22792 0.44618 0.0
C45 C 0.94887 0.27779 0.50387 0.0
C46 C 0.94413 0.23143 0.42501 0.0
C47 C 0.93772 0.27421 0.52515 0.0
C48 C 0.95228 0.25571 0.45505 0.0
C49 C 0.91871 0.2406 0.53128 0.0
O50 O 0.87332 0.21839 0.63058 0.0
O51 O 0.89164 0.24461 0.63101 0.0
C52 C 0.88243 0.23178 0.66255 0.0
O53 O 0.89157 0.28582 0.49576 0.0
O54 O 0.85301 0.19216 0.54128 0.0
O55 O 0.85308 0.24206 0.49495 0.0
O56 O 0.87478 0.27928 0.55132 0.0
C57 C 0.88323 0.29886 0.52342 0.0
O58 O 0.89254 0.22588 0.41618 0.0
O59 O 0.87422 0.2366 0.41542 0.0
O60 O 0.87483 0.17581 0.48987 0.0
O61 O 0.91316 0.26556 0.54749 0.0
O62 O 0.91219 0.21285 0.51334 0.0
O63 O 0.89012 0.18189 0.55722 0.0
C64 C 0.83677 0.21912 0.55666 0.0
C65 C 0.83516 0.25062 0.58533 0.0
C66 C 0.81799 0.19507 0.59146 0.0
C67 C 0.82496 0.25437 0.61622 0.0
C68 C 0.82814 0.19139 0.56054 0.0
C69 C 0.81622 0.22668 0.61915 0.0
C70 C 0.84698 0.21473 0.51883 0.0
C71 C 0.88344 0.23149 0.38411 0.0
H72 H 0.92701 0.20792 0.42413 0.0
H73 H 0.95492 0.29653 0.52859 0.0
H74 H 0.94645 0.21436 0.38657 0.0
H75 H 0.93548 0.29026 0.56562 0.0
H76 H 0.84169 0.27244 0.58312 0.0
H77 H 0.81141 0.17335 0.59187 0.0
H78 H 0.82392 0.27895 0.6377 0.0
H79 H 0.82917 0.16694 0.53828 0.0
Eu80 Eu 0.15309 0.74298 0.53165 0.0
Eu81 Eu 0.12507 0.73282 0.52808 0.0
C82 C 0.13853 0.66992 0.53289 0.0
C83 C 0.18528 0.75439 0.49409 0.0
C84 C 0.18659 0.73478 0.43658 0.0
C85 C 0.20482 0.7796 0.48535 0.0
C86 C 0.19701 0.73695 0.40482 0.0
C87 C 0.19442 0.77729 0.5173 0.0
C88 C 0.20632 0.75884 0.4297 0.0
C89 C 0.17497 0.74855 0.53505 0.0
O90 O 0.12948 0.7279 0.63728 0.0
O91 O 0.14797 0.75283 0.63752 0.0
C92 C 0.13867 0.74081 0.66911 0.0
O93 O 0.14772 0.79315 0.5008 0.0
O94 O 0.10894 0.70249 0.55214 0.0
O95 O 0.10954 0.74917 0.49351 0.0
O96 O 0.13097 0.78743 0.5565 0.0
C97 C 0.13944 0.80663 0.52809 0.0
O98 O 0.14874 0.73091 0.42367 0.0
O99 O 0.13067 0.74366 0.42161 0.0
O100 O 0.13083 0.68304 0.49948 0.0
O101 O 0.16948 0.77429 0.54582 0.0
O102 O 0.16836 0.71977 0.52626 0.0
O103 O 0.14631 0.68977 0.56555 0.0
C104 C 0.09246 0.73011 0.55202 0.0
C105 C 0.08932 0.76315 0.5543 0.0
C106 C 0.0737 0.70651 0.58834 0.0
C107 C 0.07838 0.76769 0.57212 0.0
C108 C 0.0846 0.70199 0.57061 0.0
C109 C 0.07036 0.7393 0.58758 0.0
C110 C 0.10319 0.72368 0.52195 0.0
C111 C 0.13978 0.73709 0.39089 0.0
H112 H 0.17968 0.71695 0.41738 0.0
H113 H 0.21182 0.79651 0.50617 0.0
H114 H 0.19784 0.72099 0.36147 0.0
H115 H 0.19364 0.79245 0.56185 0.0
H116 H 0.09515 0.78535 0.53982 0.0
H117 H 0.0678 0.68415 0.60107 0.0
H118 H 0.07608 0.79327 0.57061 0.0
H119 H 0.08677 0.67623 0.56886 0.0
Eu120 Eu 0.8691 0.72452 0.51802 0.0
Eu121 Eu 0.89713 0.73594 0.51377 0.0
C122 C 0.88329 0.79891 0.51601 0.0
C123 C 0.83689 0.71765 0.48534 0.0
C124 C 0.83558 0.74762 0.4499 0.0
C125 C 0.81773 0.69419 0.4577 0.0
C126 C 0.82535 0.75092 0.41908 0.0
C127 C 0.82791 0.69096 0.48849 0.0
C128 C 0.81627 0.72429 0.42301 0.0
C129 C 0.84721 0.71389 0.52247 0.0
O130 O 0.89289 0.72654 0.62291 0.0
O131 O 0.87449 0.73655 0.62429 0.0
C132 C 0.88377 0.73179 0.65527 0.0
O133 O 0.87526 0.67578 0.54954 0.0
O134 O 0.91322 0.76586 0.48687 0.0
O135 O 0.91266 0.71477 0.52897 0.0
O136 O 0.89056 0.68223 0.48211 0.0
C137 C 0.88292 0.66252 0.51597 0.0
O138 O 0.87341 0.71818 0.40918 0.0
O139 O 0.89174 0.74431 0.40789 0.0
O140 O 0.8917 0.78611 0.54339 0.0
O141 O 0.85328 0.69142 0.50008 0.0
O142 O 0.85326 0.74158 0.54509 0.0
O143 O 0.87487 0.77912 0.48835 0.0
C144 C 0.93013 0.75201 0.53731 0.0
C145 C 0.93426 0.73156 0.5866 0.0
C146 C 0.94872 0.78484 0.52771 0.0
C147 C 0.94557 0.73719 0.60496 0.0
C148 C 0.93743 0.77922 0.50938 0.0
C149 C 0.95301 0.76323 0.57416 0.0
C150 C 0.91898 0.74199 0.50654 0.0
C151 C 0.8825 0.73143 0.37682 0.0
H152 H 0.8424 0.76857 0.44664 0.0
H153 H 0.81089 0.67339 0.46269 0.0
H154 H 0.82454 0.7743 0.39215 0.0
H155 H 0.82872 0.66772 0.51598 0.0
H156 H 0.92889 0.71015 0.60869 0.0
H157 H 0.95418 0.80549 0.50382 0.0
H158 H 0.94859 0.71989 0.64053 0.0
H159 H 0.93453 0.79521 0.47086 0.0
Eu160 Eu 0.62597 0.75122 0.07192 0.0
Eu161 Eu 0.65386 0.75857 0.06785 0.0
C162 C 0.64111 0.82331 0.06399 0.0
C163 C 0.59297 0.74208 0.04875 0.0
C164 C 0.58873 0.76753 1.0111 0.0
C165 C 0.57437 0.70877 0.04871 0.0
C166 C 0.57738 0.76405 0.99398 0.0
C167 C 0.58571 0.7123 0.06597 0.0
C168 C 0.56998 0.73509 1.01433 0.0
C169 C 0.60422 0.74907 0.07987 0.0
O170 O 0.64956 0.76619 0.17627 0.0
O171 O 0.63118 0.741 0.17729 0.0
C172 C 0.64044 0.75335 0.20858 0.0
O173 O 0.6304 0.69987 0.04006 0.0
O174 O 0.66999 0.79004 0.08538 0.0
O175 O 0.66943 0.73897 0.04359 0.0
O176 O 0.64737 0.70361 0.09311 0.0
C177 C 0.6387 0.68535 0.06451 0.0
O178 O 0.63018 0.75896 0.96237 0.0
O179 O 0.6485 0.74806 0.96101 0.0
O180 O 0.64865 0.80827 0.03297 0.0
O181 O 0.60944 0.72352 0.09694 0.0
O182 O 0.61103 0.77575 0.05966 0.0
O183 O 0.6333 0.80516 0.09954 0.0
C184 C 0.68588 0.76192 0.10394 0.0
C185 C 0.68691 0.73164 0.13908 0.0
C186 C 0.70496 0.78454 0.13503 0.0
C187 C 0.69697 0.72776 0.17146 0.0
C188 C 0.69495 0.78834 0.10268 0.0
C189 C 0.70615 0.75412 0.16943 0.0
C190 C 0.67577 0.76635 0.06523 0.0
C191 C 0.63925 0.75318 0.93007 0.0
H192 H 0.59403 0.79105 0.99777 0.0
H193 H 0.56896 0.68586 0.06423 0.0
H194 H 0.57432 0.78502 0.96813 0.0
H195 H 0.58868 0.69239 0.09559 0.0
H196 H 0.68001 0.71088 0.14092 0.0
H197 H 0.71189 0.80515 0.13144 0.0
H198 H 0.69756 0.70415 0.19808 0.0
H199 H 0.69437 0.81181 0.07547 0.0
Eu200 Eu 0.39598 0.73481 0.0751 0.0
Eu201 Eu 0.36827 0.72645 0.06871 0.0
C202 C 0.38121 0.66219 0.0662 0.0
C203 C 0.4289 0.74418 0.05318 0.0
C204 C 0.43206 0.72114 1.00538 0.0
C205 C 0.44823 0.77191 0.05782 0.0
C206 C 0.44325 0.72294 0.98537 0.0
C207 C 0.43706 0.77004 0.07793 0.0
C208 C 0.45152 0.74778 1.01272 0.0
C209 C 0.41776 0.73854 0.08557 0.0
O210 O 0.37248 0.71753 0.17699 0.0
O211 O 0.39032 0.74675 0.17895 0.0
C212 C 0.38125 0.73249 0.20991 0.0
O213 O 0.39129 0.7855 0.04092 0.0
O214 O 0.35206 0.69515 0.08551 0.0
O215 O 0.35278 0.74583 0.042 0.0
O216 O 0.37451 0.78135 0.09583 0.0
C217 C 0.38302 0.79989 0.06618 0.0
O218 O 0.39199 0.72443 0.96584 0.0
O219 O 0.37409 0.73874 0.96298 0.0
O220 O 0.37369 0.67691 0.03418 0.0
O221 O 0.4124 0.76464 0.09565 0.0
O222 O 0.41107 0.71054 0.07138 0.0
O223 O 0.3888 0.68068 0.10272 0.0
C224 C 0.3362 0.7237 0.10092 0.0
C225 C 0.3361 0.7501 0.14802 0.0
C226 C 0.3163 0.7066 0.11947 0.0
C227 C 0.32611 0.75483 0.1804 0.0
C228 C 0.32625 0.70196 0.08725 0.0
C229 C 0.31607 0.73314 0.16634 0.0
C230 C 0.34636 0.71862 0.06352 0.0
C231 C 0.38322 0.73194 0.93271 0.0
H232 H 0.42599 0.70081 0.98544 0.0
H233 H 0.45438 0.79115 0.08048 0.0
H234 H 0.44547 0.70428 0.9498 0.0
H235 H 0.43489 0.78782 0.11551 0.0
H236 H 0.34371 0.76714 0.15941 0.0
H237 H 0.30873 0.68978 0.10647 0.0
H238 H 0.32626 0.7753 0.21668 0.0
H239 H 0.32614 0.68155 0.05079 0.0
Eu240 Eu 0.65362 0.25921 0.97307 0.0
Eu241 Eu 0.62586 0.24992 0.96885 0.0
C242 C 0.63916 0.18528 0.9756 0.0
C243 C 0.68562 0.26332 0.93658 0.0
C244 C 0.68706 0.2317 0.90776 0.0
C245 C 0.70432 0.28691 0.89957 0.0
C246 C 0.69714 0.22767 0.87569 0.0
C247 C 0.69429 0.29087 0.93167 0.0
C248 C 0.70592 0.25519 0.87169 0.0
C249 C 0.67553 0.26805 0.97541 0.0
O250 O 0.62997 0.26073 0.07778 0.0
O251 O 0.64803 0.24769 0.0795 0.0
C252 C 0.6389 0.25404 0.11049 0.0
O253 O 0.64822 0.30847 1.0089 0.0
O254 O 0.60935 0.21864 0.9608 0.0
O255 O 0.61077 0.27405 0.96161 0.0
O256 O 0.63274 0.30458 0.94329 0.0
C257 C 0.64049 0.32305 0.97876 0.0
O258 O 0.64906 0.26746 0.8651 0.0
O259 O 0.63127 0.23791 0.86463 0.0
O260 O 0.63084 0.1993 1.001 0.0
O261 O 0.66962 0.29115 0.95401 0.0
O262 O 0.66932 0.24088 0.99894 0.0
O263 O 0.64767 0.20409 0.94658 0.0
C264 C 0.59307 0.24348 0.99426 0.0
C265 C 0.58951 0.27315 0.02109 0.0
C266 C 0.57428 0.21301 1.0113 0.0
C267 C 0.5784 0.27297 0.04102 0.0
C268 C 0.5854 0.21323 0.991 0.0
C269 C 0.57057 0.24317 0.0346 0.0
C270 C 0.60401 0.24523 0.95972 0.0
C271 C 0.64024 0.25232 0.83278 0.0
H272 H 0.68049 0.21001 0.91073 0.0
H273 H 0.71094 0.3085 0.89839 0.0
H274 H 0.69805 0.20301 0.85412 0.0
H275 H 0.6934 0.3154 0.954 0.0
H276 H 0.59517 0.29699 0.02398 0.0
H277 H 0.56845 0.1897 1.00518 0.0
H278 H 0.57583 0.29649 0.05963 0.0
H279 H 0.58784 0.19012 0.96962 0.0
Eu280 Eu 0.36844 0.22723 0.97279 0.0
Eu281 Eu 0.39628 0.23399 0.96932 0.0
C282 C 0.38371 0.30025 0.97672 0.0
C283 C 0.33644 0.22612 0.93762 0.0
C284 C 0.33532 0.25782 0.90802 0.0
C285 C 0.3173 0.20481 0.90568 0.0
C286 C 0.32518 0.26305 0.87815 0.0
C287 C 0.3274 0.19962 0.93534 0.0
C288 C 0.31599 0.23674 0.87769 0.0
C289 C 0.34655 0.22032 0.97507 0.0
O290 O 0.39203 0.22545 0.0786 0.0
O291 O 0.3738 0.23713 0.07986 0.0
C292 C 0.38299 0.23144 0.11088 0.0
O293 O 0.37341 0.17713 1.00737 0.0
O294 O 0.41303 0.26182 0.9502 0.0
O295 O 0.41097 0.2078 0.97598 0.0
O296 O 0.38878 0.18024 0.94108 0.0
C297 C 0.38097 0.16207 0.97663 0.0
O298 O 0.37285 0.2199 0.86435 0.0
O299 O 0.39122 0.24524 0.86418 0.0
O300 O 0.39197 0.28554 1.00124 0.0
O301 O 0.35221 0.19684 0.95249 0.0
O302 O 0.35299 0.2469 0.99914 0.0
O303 O 0.37504 0.28214 0.94788 0.0
C304 C 0.42908 0.23924 0.99509 0.0
C305 C 0.43417 0.21002 1.00845 0.0
C306 C 0.44651 0.27484 0.02558 0.0
C307 C 0.44533 0.21307 0.02885 0.0
C308 C 0.43532 0.27175 1.00489 0.0
C309 C 0.45174 0.2455 0.03633 0.0
C310 C 0.41801 0.23504 0.96168 0.0
C311 C 0.382 0.23297 0.83242 0.0
H312 H 0.34219 0.27872 0.90915 0.0
H313 H 0.31048 0.18379 0.90506 0.0
H314 H 0.32443 0.28799 0.85729 0.0
H315 H 0.32808 0.17496 0.95779 0.0
H316 H 0.42967 0.18459 1.00013 0.0
H317 H 0.45115 0.30024 0.03167 0.0
H318 H 0.44906 0.18987 0.03541 0.0
H319 H 0.43169 0.2948 0.99437 0.0
H320 H 0.22655 0.28337 0.55097 0.0
H321 H 0.24533 0.28275 0.59657 0.0
H322 H 0.23106 0.23886 0.78015 0.0
H323 H 0.21223 0.24011 0.73581 0.0
H324 H 0.25548 0.31256 0.72074 0.0
H325 H 0.25207 0.17054 0.71082 0.0
H326 H 0.24284 0.19424 0.66454 0.0
H327 H 0.24079 0.18714 0.75274 0.0
C328 C 0.22737 0.27415 0.60153 0.0
C329 C 0.21783 0.26162 0.63953 0.0
C330 C 0.23812 0.27363 0.62732 0.0
C331 C 0.23957 0.26032 0.69131 0.0
C332 C 0.23011 0.24871 0.73016 0.0
H333 H 0.29527 0.21591 0.93063 0.0
H334 H 0.27707 0.22346 0.8842 0.0
C335 C 0.21935 0.24936 0.70461 0.0
C336 C 0.25097 0.25781 0.71691 0.0
H337 H 0.26811 0.20006 0.76375 0.0
C338 C 0.25829 0.28801 0.72993 0.0
C339 C 0.25459 0.22573 0.72861 0.0
C340 C 0.24722 0.19249 0.71302 0.0
C341 C 0.26905 0.28696 0.7562 0.0
C342 C 0.27264 0.25483 0.76839 0.0
C343 C 0.26534 0.22467 0.75456 0.0
C344 C 0.28382 0.2517 0.79705 0.0
C345 C 0.27634 0.32022 0.77254 0.0
C346 C 0.29371 0.265 0.76343 0.0
C347 C 0.30418 0.26065 0.78987 0.0
C348 C 0.30494 0.24257 0.85007 0.0
C349 C 0.295 0.22949 0.88365 0.0
C350 C 0.28458 0.23393 0.85736 0.0
H351 H 0.27139 0.34188 0.77632 0.0
H352 H 0.28088 0.3182 0.82039 0.0
H353 H 0.28263 0.3263 0.73221 0.0
H354 H 0.29334 0.27817 0.71609 0.0
H355 H 0.31166 0.27069 0.76237 0.0
H356 H 0.71912 0.29999 0.79016 0.0
H357 H 0.73771 0.29452 0.74625 0.0
H358 H 0.73621 0.19542 0.83986 0.0
H359 H 0.71765 0.20074 0.88433 0.0
H360 H 0.75679 0.28699 0.81996 0.0
H361 H 0.74575 0.17659 0.64859 0.0
H362 H 0.73541 0.20081 0.68246 0.0
H363 H 0.74081 0.16906 0.73282 0.0
C364 C 0.72273 0.27698 0.80133 0.0
C365 C 0.71687 0.25079 0.84081 0.0
C366 C 0.73335 0.27386 0.77599 0.0
C367 C 0.73831 0.24442 0.78914 0.0
C368 C 0.73245 0.21805 0.82786 0.0
H369 H 0.80286 0.18154 0.69922 0.0
H370 H 0.78416 0.18676 0.74181 0.0
C371 C 0.72182 0.22113 0.85321 0.0
C372 C 0.74982 0.24207 0.76489 0.0
H373 H 0.76511 0.19432 0.66785 0.0
C374 C 0.75861 0.26684 0.78641 0.0
C375 C 0.75218 0.21569 0.72131 0.0
C376 C 0.74304 0.18918 0.69437 0.0
C377 C 0.76971 0.26562 0.76649 0.0
C378 C 0.77207 0.23925 0.72291 0.0
C379 C 0.76329 0.21448 0.70137 0.0
C380 C 0.78359 0.23687 0.69887 0.0
C381 C 0.77885 0.29212 0.79351 0.0
C382 C 0.78949 0.26329 0.66046 0.0
C383 C 0.80018 0.26036 0.6359 0.0
C384 C 0.80515 0.23079 0.64879 0.0
C385 C 0.79924 0.20449 0.68773 0.0
C386 C 0.78856 0.20747 0.71231 0.0
H387 H 0.77613 0.30471 0.83926 0.0
H388 H 0.78648 0.28048 0.80548 0.0
H389 H 0.78109 0.31224 0.75508 0.0
H390 H 0.78573 0.2859 0.64824 0.0
H391 H 0.80441 0.28082 0.60513 0.0
H392 H 0.29956 0.6841 0.21341 0.0
H393 H 0.28133 0.69214 0.25894 0.0
H394 H 0.29003 0.80168 0.24161 0.0
H395 H 0.30817 0.79383 0.19352 0.0
H396 H 0.27564 0.72608 0.371 0.0
H397 H 0.26033 0.78494 0.1424 0.0
H398 H 0.27266 0.76382 0.14235 0.0
H399 H 0.2733 0.80662 0.17467 0.0
C400 C 0.29758 0.70993 0.21867 0.0
C401 C 0.30531 0.7383 0.19897 0.0
C402 C 0.28717 0.71448 0.24517 0.0
C403 C 0.28421 0.74747 0.25253 0.0
C404 C 0.29202 0.77594 0.23504 0.0
H405 H 0.22244 0.81359 0.40292 0.0
H406 H 0.24151 0.81213 0.36136 0.0
C407 C 0.30246 0.77141 0.20835 0.0
C408 C 0.27294 0.75177 0.27854 0.0
H409 H 0.24857 0.78182 0.23762 0.0
C410 C 0.26973 0.73829 0.34183 0.0
C411 C 0.26522 0.76773 0.24046 0.0
C412 C 0.26798 0.78136 0.17095 0.0
C413 C 0.25904 0.74032 0.36802 0.0
C414 C 0.25129 0.7559 0.32964 0.0
C415 C 0.25454 0.76992 0.26691 0.0
C416 C 0.23967 0.75691 0.3531 0.0
C417 C 0.25612 0.72596 0.43681 0.0
C418 C 0.23225 0.72641 0.36093 0.0
C419 C 0.22137 0.72715 0.38442 0.0
C420 C 0.21767 0.75846 0.40061 0.0
C421 C 0.22507 0.78905 0.39152 0.0
C422 C 0.23594 0.78828 0.36757 0.0
H423 H 0.26371 0.72238 0.46594 0.0
H424 H 0.25126 0.74304 0.4654 0.0
H425 H 0.25087 0.70062 0.43178 0.0
H426 H 0.23491 0.70195 0.34922 0.0
H427 H 0.21595 0.7031 0.39149 0.0
H428 H 0.71686 0.69713 0.16885 0.0
H429 H 0.73532 0.69143 0.2147 0.0
H430 H 0.73883 0.79597 0.28408 0.0
H431 H 0.72027 0.80156 0.24039 0.0
H432 H 0.75561 0.72961 0.17876 0.0
H433 H 0.74739 0.745 0.44949 0.0
H434 H 0.73629 0.73608 0.38877 0.0
H435 H 0.74351 0.7789 0.39836 0.0
C436 C 0.72145 0.71869 0.19508 0.0
C437 C 0.71705 0.74979 0.20099 0.0
C438 C 0.73205 0.71547 0.2208 0.0
C439 C 0.73842 0.74315 0.25346 0.0
C440 C 0.734 0.77408 0.26013 0.0
H441 H 0.80532 0.7808 0.42409 0.0
H442 H 0.78669 0.78571 0.37976 0.0
C443 C 0.72342 0.77733 0.23443 0.0
C444 C 0.74989 0.74026 0.27765 0.0
H445 H 0.76643 0.74697 0.41714 0.0
C446 C 0.75796 0.73317 0.23096 0.0
C447 C 0.75296 0.7451 0.34571 0.0
C448 C 0.74457 0.75138 0.39866 0.0
C449 C 0.76907 0.73142 0.25022 0.0
C450 C 0.77214 0.73632 0.31825 0.0
C451 C 0.76407 0.74336 0.36497 0.0
C452 C 0.78365 0.73374 0.34225 0.0
C453 C 0.77746 0.72512 0.19728 0.0
C454 C 0.78814 0.70291 0.33588 0.0
C455 C 0.7988 0.7001 0.36071 0.0
C456 C 0.8052 0.72801 0.39292 0.0
C457 C 0.80071 0.75897 0.39875 0.0
C458 C 0.79002 0.76174 0.37391 0.0
H459 H 0.7746 0.73116 0.14636 0.0
H460 H 0.78571 0.74069 0.20683 0.0
H461 H 0.77861 0.69768 0.1981 0.0
H462 H 0.78331 0.68079 0.31266 0.0
H463 H 0.80202 0.67597 0.35488 0.0
H464 H 0.12394 0.84349 0.58056 0.0
H465 H 0.12395 0.90541 0.57513 0.0
H466 H 0.15509 0.91664 0.46615 0.0
H467 H 0.15516 0.85467 0.47074 0.0
H468 H 0.14078 0.95799 0.62339 0.0
H469 H 0.13409 0.96637 0.34885 0.0
H470 H 0.13144 0.92645 0.39432 0.0
H471 H 0.14552 0.94448 0.3737 0.0
C472 C 0.13079 0.85906 0.55529 0.0
C473 C 0.13953 0.84412 0.52578 0.0
C474 C 0.13078 0.89442 0.55233 0.0
C475 C 0.13944 0.91539 0.5195 0.0
C476 C 0.14824 0.90071 0.4907 0.0
H477 H 0.15359 0.13372 0.44819 0.0
H478 H 0.15387 0.0719 0.45285 0.0
C479 C 0.14828 0.86534 0.49369 0.0
C480 C 0.13933 0.95274 0.51638 0.0
H481 H 0.13764 0.01876 0.40814 0.0
C482 C 0.14006 0.97134 0.57643 0.0
C483 C 0.13841 0.96988 0.45492 0.0
C484 C 0.13723 0.95082 0.38922 0.0
C485 C 0.14006 0.0069 0.57662 0.0
C486 C 0.13909 0.02403 0.51518 0.0
C487 C 0.13839 0.00544 0.4551 0.0
C488 C 0.13879 0.06132 0.51215 0.0
C489 C 0.14134 0.02591 0.64237 0.0
C490 C 0.1301 0.07565 0.5431 0.0
C491 C 0.12991 0.11096 0.54067 0.0
C492 C 0.13837 0.13247 0.50679 0.0
C493 C 0.14695 0.11789 0.47479 0.0
C494 C 0.14714 0.08259 0.47737 0.0
H495 H 0.14483 0.01067 0.68194 0.0
H496 H 0.14686 0.05076 0.63683 0.0
H497 H 0.133 0.03127 0.65938 0.0
H498 H 0.12345 0.05951 0.56901 0.0
H499 H 0.12314 0.12136 0.56547 0.0
H500 H 0.8989 0.34766 0.46784 0.0
H501 H 0.89894 0.40974 0.46775 0.0
H502 H 0.86785 0.39696 0.57732 0.0
H503 H 0.86773 0.33496 0.57823 0.0
H504 H 0.88193 0.44622 0.41516 0.0
H505 H 0.8888 0.4681 0.68777 0.0
H506 H 0.89154 0.42939 0.64635 0.0
H507 H 0.87744 0.43535 0.66661 0.0
C508 C 0.89209 0.35802 0.49218 0.0
C509 C 0.88333 0.33637 0.5233 0.0
C510 C 0.89213 0.39346 0.492 0.0
C511 C 0.88348 0.4078 0.52329 0.0
C512 C 0.8747 0.38632 0.55395 0.0
H513 H 0.86781 0.61363 0.57564 0.0
H514 H 0.86788 0.55162 0.57534 0.0
C515 C 0.87463 0.3509 0.5541 0.0
C516 C 0.88349 0.44522 0.52245 0.0
H517 H 0.88457 0.51526 0.62374 0.0
C518 C 0.88256 0.46142 0.46062 0.0
C519 C 0.88428 0.46474 0.58202 0.0
C520 C 0.88566 0.44865 0.64949 0.0
C521 C 0.88219 0.49675 0.45684 0.0
C522 C 0.883 0.51631 0.51642 0.0
C523 C 0.88394 0.50009 0.57824 0.0
C524 C 0.88293 0.55373 0.51571 0.0
C525 C 0.8807 0.51271 0.38935 0.0
C526 C 0.89145 0.57532 0.48288 0.0
C527 C 0.89142 0.61071 0.48277 0.0
C528 C 0.88292 0.62508 0.516 0.0
C529 C 0.87446 0.60335 0.54946 0.0
C530 C 0.87449 0.56795 0.5494 0.0
H531 H 0.87734 0.49322 0.35166 0.0
H532 H 0.87498 0.53238 0.39276 0.0
H533 H 0.88894 0.52542 0.37116 0.0
H534 H 0.89816 0.56482 0.4578 0.0
H535 H 0.8981 0.62676 0.45694 0.0
H536 H 0.86774 0.83465 0.46081 0.0
H537 H 0.86778 0.89665 0.46113 0.0
H538 H 0.89864 0.90987 0.57292 0.0
H539 H 0.89879 0.84795 0.57215 0.0
H540 H 0.86768 0.94012 0.57173 0.0
H541 H 0.90549 0.97552 0.41445 0.0
H542 H 0.89833 0.9322 0.41979 0.0
H543 H 0.90762 0.94935 0.48559 0.0
C544 C 0.87457 0.85071 0.48523 0.0
C545 C 0.8833 0.83637 0.51617 0.0
C546 C 0.87456 0.88611 0.48538 0.0
C547 C 0.88329 0.90775 0.51617 0.0
C548 C 0.89195 0.89357 0.5477 0.0
H549 H 0.89744 0.12611 0.58291 0.0
H550 H 0.89733 0.06405 0.58199 0.0
C551 C 0.89199 0.85817 0.54748 0.0
C552 C 0.88317 0.94515 0.51673 0.0
H553 H 0.89786 0.02119 0.46657 0.0
C554 C 0.87424 0.95788 0.5485 0.0
C555 C 0.89176 0.96811 0.48632 0.0
C556 C 0.9013 0.95568 0.44906 0.0
C557 C 0.87376 -0.00683 0.55171 0.0
C558 C 0.88237 0.01611 0.52156 0.0
C559 C 0.89129 0.0034 0.48973 0.0
C560 C 0.88228 0.05348 0.52251 0.0
C561 C 0.86418 0.0057 0.5884 0.0
C562 C 0.87389 0.06792 0.48876 0.0
C563 C 0.87392 0.10335 0.48911 0.0
C564 C 0.88237 0.12486 0.52306 0.0
C565 C 0.89079 0.11024 0.55649 0.0
C566 C 0.89076 0.07483 0.55599 0.0
H567 H 0.85972 0.98561 0.62152 0.0
H568 H 0.8672 0.02862 0.61912 0.0
H569 H 0.85808 0.01308 0.55144 0.0
H570 H 0.86738 0.05181 0.46171 0.0
H571 H 0.86734 0.11382 0.46265 0.0
H572 H 0.12347 0.62086 0.47339 0.0
H573 H 0.12383 0.55901 0.47179 0.0
H574 H 0.15393 0.57237 0.59082 0.0
H575 H 0.15372 0.6343 0.59235 0.0
H576 H 0.15469 0.53038 0.47527 0.0
H577 H 0.11667 0.49137 0.62907 0.0
H578 H 0.11474 0.51904 0.55982 0.0
H579 H 0.12383 0.53479 0.62749 0.0
C580 C 0.13014 0.61067 0.49954 0.0
C581 C 0.13855 0.63248 0.53317 0.0
C582 C 0.1303 0.57533 0.49882 0.0
C583 C 0.13883 0.56124 0.53191 0.0
C584 C 0.14725 0.58287 0.56532 0.0
H585 H 0.15554 0.3545 0.56852 0.0
H586 H 0.15557 0.41649 0.5738 0.0
C587 C 0.1471 0.61821 0.56618 0.0
C588 C 0.13916 0.52397 0.52986 0.0
H589 H 0.12466 0.44688 0.57542 0.0
C590 C 0.14818 0.51206 0.49745 0.0
C591 C 0.13061 0.50033 0.55881 0.0
C592 C 0.12095 0.51193 0.5963 0.0
C593 C 0.14876 0.47689 0.49192 0.0
C594 C 0.14019 0.45323 0.52065 0.0
C595 C 0.1312 0.46518 0.5534 0.0
C596 C 0.14031 0.41588 0.51675 0.0
C597 C 0.15838 0.46534 0.45395 0.0
C598 C 0.1316 0.39506 0.48402 0.0
C599 C 0.13151 0.35966 0.48126 0.0
C600 C 0.14011 0.34445 0.5115 0.0
C601 C 0.14882 0.36543 0.54441 0.0
C602 C 0.14889 0.40086 0.54721 0.0
H603 H 0.16266 0.48598 0.42134 0.0
H604 H 0.16461 0.45806 0.49012 0.0
H605 H 0.15546 0.44261 0.42248 0.0
H606 H 0.12488 0.40625 0.46047 0.0
H607 H 0.12467 0.34427 0.45559 0.0
H608 H 0.6541 0.64609 0.11073 0.0
H609 H 0.65408 0.58451 0.09549 0.0
H610 H 0.62283 0.57768 0.98859 0.0
H611 H 0.62278 0.63929 1.00303 0.0
H612 H 0.63781 0.52907 0.13565 0.0
H613 H 0.64337 0.53365 0.85954 0.0
H614 H 0.64593 0.57142 0.91148 0.0
H615 H 0.63185 0.55351 0.89038 0.0
C616 C 0.6472 0.63155 0.084 0.0
C617 C 0.63847 0.64775 0.05781 0.0
C618 C 0.64721 0.59633 0.07539 0.0
C619 C 0.63854 0.57664 0.04003 0.0
C620 C 0.62971 0.59253 1.01494 0.0
H621 H 0.62512 0.3614 0.92889 0.0
H622 H 0.62457 0.42269 0.94497 0.0
C623 C 0.62967 0.62775 0.02363 0.0
C624 C 0.63874 0.53943 0.02988 0.0
H625 H 0.64008 0.47866 0.90932 0.0
C626 C 0.63834 0.51803 0.08622 0.0
C627 C 0.6394 0.52511 0.96529 0.0
C628 C 0.64026 0.54708 0.90313 0.0
C629 C 0.63843 0.48257 0.07969 0.0
C630 C 0.63916 0.46826 1.01511 0.0
C631 C 0.63952 0.48967 0.95876 0.0
C632 C 0.63962 0.43116 1.00497 0.0
C633 C 0.63749 0.46065 0.14193 0.0
C634 C 0.64838 0.41567 0.03234 0.0
C635 C 0.64872 0.38064 0.02335 0.0
C636 C 0.64034 0.36042 0.9863 0.0
C637 C 0.6317 0.37617 0.95778 0.0
C638 C 0.63136 0.41121 0.96692 0.0
H639 H 0.63396 0.47372 0.18462 0.0
H640 H 0.63213 0.43578 0.13295 0.0
H641 H 0.64594 0.45532 0.15658 0.0
H642 H 0.65498 0.43072 0.06058 0.0
H643 H 0.65553 0.36943 0.04566 0.0
H644 H 0.36759 0.83879 0.11361 0.0
H645 H 0.36733 0.90021 0.09749 0.0
H646 H 0.39825 0.90753 0.98685 0.0
H647 H 0.39856 0.84611 1.00216 0.0
H648 H 0.38348 0.95631 0.13501 0.0
H649 H 0.37721 0.9504 0.85961 0.0
H650 H 0.37494 0.91281 0.91221 0.0
H651 H 0.38891 0.93107 0.8893 0.0
C652 C 0.37435 0.85341 0.08585 0.0
C653 C 0.38307 0.83741 0.05889 0.0
C654 C 0.37418 0.88854 0.07673 0.0
C655 C 0.38267 0.90833 0.04008 0.0
C656 C 0.3915 0.89262 1.01419 0.0
H657 H 0.39601 0.12289 0.92539 0.0
H658 H 0.39637 0.06154 0.94185 0.0
C659 C 0.39169 0.85751 0.02339 0.0
C660 C 0.38233 0.94547 0.02947 0.0
H661 H 0.38067 0.0057 0.90822 0.0
C662 C 0.38283 0.96713 0.08548 0.0
C663 C 0.38149 0.9595 0.96477 0.0
C664 C 0.38051 0.93727 0.90297 0.0
C665 C 0.38271 0.00256 0.07848 0.0
C666 C 0.38183 0.01659 1.01376 0.0
C667 C 0.38134 -0.00509 0.95776 0.0
C668 C 0.38144 0.05373 1.0031 0.0
C669 C 0.38378 0.02475 0.14034 0.0
C670 C 0.37281 0.06962 0.03099 0.0
C671 C 0.37258 0.10471 0.02177 0.0
C672 C 0.38094 0.12459 0.98398 0.0
C673 C 0.38944 0.10841 0.95485 0.0
C674 C 0.38967 0.07332 0.9642 0.0
H675 H 0.38735 0.01182 0.18302 0.0
H676 H 0.38916 0.04951 0.13066 0.0
H677 H 0.37537 0.0303 0.15538 0.0
H678 H 0.36623 0.05486 0.05991 0.0
H679 H 0.36587 0.11625 0.04459 0.0
H680 H 0.36847 0.33971 0.9293 0.0
H681 H 0.36852 0.40127 0.9441 0.0
H682 H 0.39929 0.40761 0.05594 0.0
H683 H 0.39942 0.34611 0.04051 0.0
H684 H 0.36782 0.43704 0.06199 0.0
H685 H 0.40649 0.48481 0.92093 0.0
H686 H 0.39968 0.44113 0.91468 0.0
H687 H 0.40844 0.45447 0.98537 0.0
C688 C 0.37532 0.35418 0.95656 0.0
C689 C 0.38398 0.33789 0.98346 0.0
C690 C 0.37531 0.38941 0.96506 0.0
C691 C 0.38398 0.40918 1.00036 0.0
C692 C 0.39264 0.39305 0.02727 0.0
H693 H 0.39634 0.62381 0.11888 0.0
H694 H 0.39681 0.56233 0.10482 0.0
C695 C 0.39267 0.3578 1.01866 0.0
C696 C 0.38368 0.44637 1.01113 0.0
H697 H 0.39824 0.52596 0.98357 0.0
C698 C 0.37444 0.45649 0.04458 0.0
C699 C 0.39235 0.47174 0.98857 0.0
C700 C 0.40226 0.46261 0.94984 0.0
C701 C 0.3737 0.49121 0.05682 0.0
C702 C 0.38236 0.51655 0.03417 0.0
C703 C 0.39162 0.50647 1.00101 0.0
C704 C 0.38189 0.5537 0.0437 0.0
C705 C 0.36376 0.50044 0.095 0.0
C706 C 0.37339 0.56932 1.01361 0.0
C707 C 0.37309 0.60446 0.02153 0.0
C708 C 0.38132 0.62473 0.05953 0.0
C709 C 0.38984 0.60897 0.08956 0.0
C710 C 0.39014 0.57384 0.08146 0.0
H711 H 0.3594 0.47821 0.12331 0.0
H712 H 0.36633 0.52173 0.1306 0.0
H713 H 0.35769 0.509 0.05918 0.0
H714 H 0.36706 0.55439 0.98324 0.0
H715 H 0.36645 0.61574 0.99737 0.0
H716 H 0.6548 0.14691 0.92889 0.0
H717 H 0.65495 0.08528 0.94243 0.0
H718 H 0.62387 0.07718 0.05168 0.0
H719 H 0.62354 0.13859 0.03756 0.0
H720 H 0.65532 0.0484 0.06007 0.0
H721 H 0.61728 0.0014 0.91298 0.0
H722 H 0.62407 0.04517 0.90862 0.0
H723 H 0.61498 0.03126 0.97763 0.0
C724 C 0.64794 0.13201 0.95532 0.0
C725 C 0.63913 0.14774 0.98184 0.0
C726 C 0.64805 0.09677 0.9631 0.0
C727 C 0.63935 0.07653 0.99722 0.0
C728 C 0.63056 0.09214 0.02389 0.0
H729 H 0.62601 0.86246 0.11449 0.0
H730 H 0.62591 0.92406 0.09983 0.0
C731 C 0.63042 0.12734 1.01604 0.0
C732 C 0.63966 0.03932 1.00701 0.0
H733 H 0.62511 0.95997 0.97743 0.0
C734 C 0.64876 0.02905 0.04166 0.0
C735 C 0.63107 0.0141 0.9831 0.0
C736 C 0.62135 0.02344 0.94296 0.0
C737 C 0.64939 -0.00572 0.05411 0.0
C738 C 0.64077 0.96911 0.03043 0.0
C739 C 0.63169 0.97935 0.99573 0.0
C740 C 0.64106 0.93195 0.04065 0.0
C741 C 0.65914 0.98482 0.09375 0.0
C742 C 0.64959 0.91593 1.0119 0.0
C743 C 0.64968 0.88073 1.02016 0.0
C744 C 0.64122 0.86083 0.05716 0.0
C745 C 0.63269 0.87701 0.08595 0.0
C746 C 0.63259 0.91221 0.07752 0.0
H747 H 0.66347 0.00702 0.12221 0.0
H748 H 0.65636 0.96371 0.12938 0.0
H749 H 0.66529 0.97589 0.0589 0.0
H750 H 0.65609 0.93057 0.98223 0.0
H751 H 0.65634 0.8691 0.997 0.0
H752 H 0.15687 0.25396 0.28501 0.0
H753 H 0.15697 0.25337 0.16264 0.0
H754 H 0.12108 0.22769 0.16114 0.0
H755 H 0.12085 0.228 0.28381 0.0
H756 H 0.14687 0.19398 0.07635 0.0
H757 H 0.12913 0.31539 0.03652 0.0
H758 H 0.13597 0.30622 0.11355 0.0
H759 H 0.12212 0.28531 0.09579 0.0
C760 C 0.14897 0.24833 0.25886 0.0
C761 C 0.13884 0.24111 0.29443 0.0
C762 C 0.14906 0.24792 0.18887 0.0
C763 C 0.13903 0.24071 0.153 0.0
C764 C 0.1289 0.2336 0.18805 0.0
H765 H 0.12215 0.23783 0.73151 0.0
H766 H 0.12218 0.2375 0.85364 0.0
C767 C 0.12879 0.2337 0.25815 0.0
C768 C 0.13922 0.24007 0.07883 0.0
H769 H 0.13228 0.28332 0.94049 0.0
C770 C 0.14371 0.2135 0.04646 0.0
C771 C 0.13504 0.26552 0.04029 0.0
C772 C 0.13034 0.29493 0.07295 0.0
C773 C 0.14396 0.21133 0.97625 0.0
C774 C 0.13989 0.23704 0.93744 0.0
C775 C 0.13542 0.26366 0.97011 0.0
C776 C 0.14 0.23657 0.86296 0.0
C777 C 0.14827 0.18099 0.94451 0.0
C778 C 0.15002 0.23643 0.82723 0.0
C779 C 0.15002 0.23626 0.75711 0.0
C780 C 0.14002 0.23684 0.72132 0.0
C781 C 0.13002 0.23743 0.75732 0.0
C782 C 0.13002 0.23726 0.82728 0.0
H783 H 0.14794 0.15913 0.9799 0.0
H784 H 0.14338 0.17223 0.89912 0.0
H785 H 0.15714 0.18848 0.92963 0.0
H786 H 0.15788 0.23682 0.85352 0.0
H787 H 0.15789 0.23615 0.73104 0.0
H788 H 0.9014 0.23305 0.29915 0.0
H789 H 0.90127 0.23453 0.17661 0.0
H790 H 0.8654 0.2313 0.17843 0.0
H791 H 0.86548 0.23074 0.30045 0.0
H792 H 0.8913 0.18888 0.08715 0.0
H793 H 0.87438 0.31156 0.05651 0.0
H794 H 0.87931 0.2979 0.13596 0.0
H795 H 0.86551 0.28129 0.10668 0.0
C796 C 0.89349 0.23283 0.2735 0.0
C797 C 0.88347 0.23206 0.3098 0.0
C798 C 0.89343 0.23368 0.20341 0.0
C799 C 0.88335 0.23374 0.16822 0.0
C800 C 0.87332 0.2323 0.20435 0.0
H801 H 0.86454 0.21713 0.74776 0.0
H802 H 0.8648 0.21735 0.8705 0.0
C803 C 0.87338 0.23176 0.27429 0.0
C804 C 0.88327 0.23425 0.09378 0.0
H805 H 0.87484 0.27722 0.95844 0.0
C806 C 0.88778 0.20835 0.05907 0.0
C807 C 0.87867 0.25969 0.05701 0.0
C808 C 0.8743 0.28937 0.09091 0.0
C809 C 0.88762 0.20685 0.98881 0.0
C810 C 0.88287 0.23193 0.95234 0.0
C811 C 0.87839 0.25788 0.98676 0.0
C812 C 0.8827 0.23202 0.8782 0.0
C813 C 0.89239 0.1782 0.95386 0.0
C814 C 0.89266 0.24059 0.84215 0.0
C815 C 0.89254 0.24074 0.7722 0.0
C816 C 0.88245 0.23215 0.73685 0.0
C817 C 0.87246 0.22373 0.77329 0.0
C818 C 0.87258 0.22388 0.84339 0.0
H819 H 0.89399 0.15764 0.98913 0.0
H820 H 0.88661 0.16683 0.91404 0.0
H821 H 0.90043 0.18864 0.92965 0.0
H822 H 0.90054 0.24726 0.86821 0.0
H823 H 0.9004 0.24733 0.74591 0.0
H824 H 0.12199 0.73757 0.30641 0.0
H825 H 0.12203 0.73736 0.1843 0.0
H826 H 0.15776 0.73719 0.18431 0.0
H827 H 0.15775 0.73643 0.30678 0.0
H828 H 0.1321 0.78339 0.09751 0.0
H829 H 0.14791 0.65943 0.05782 0.0
H830 H 0.14331 0.67243 0.13861 0.0
H831 H 0.15706 0.68884 0.10818 0.0
C832 C 0.12987 0.73731 0.28059 0.0
C833 C 0.13987 0.73684 0.31657 0.0
C834 C 0.12987 0.7372 0.21063 0.0
C835 C 0.13986 0.7367 0.17492 0.0
C836 C 0.14989 0.73667 0.21062 0.0
H837 H 0.15671 0.75446 0.75272 0.0
H838 H 0.15682 0.75391 0.8751 0.0
C839 C 0.14989 0.73645 0.28074 0.0
C840 C 0.13976 0.7372 0.10044 0.0
H841 H 0.14679 0.69427 0.96143 0.0
C842 C 0.13526 0.76378 0.06784 0.0
C843 C 0.14385 0.71156 0.06157 0.0
C844 C 0.1482 0.68127 0.09326 0.0
C845 C 0.13488 0.76566 0.99766 0.0
C846 C 0.13909 0.74028 0.95905 0.0
C847 C 0.1436 0.71375 0.99136 0.0
C848 C 0.1389 0.74093 0.88489 0.0
C849 C 0.13015 0.79502 0.96506 0.0
C850 C 0.12876 0.73362 0.84992 0.0
C851 C 0.12865 0.73369 0.77982 0.0
C852 C 0.13869 0.74126 0.74346 0.0
C853 C 0.14882 0.7487 0.77894 0.0
C854 C 0.14892 0.74832 0.84893 0.0
H855 H 0.1289 0.81543 1.00153 0.0
H856 H 0.13578 0.8064 0.92451 0.0
H857 H 0.12194 0.78532 0.94215 0.0
H858 H 0.12095 0.72757 0.87689 0.0
H859 H 0.12071 0.72783 0.75422 0.0
H860 H 0.86586 0.73125 0.73941 0.0
H861 H 0.86586 0.73148 0.86171 0.0
H862 H 0.90164 0.73331 0.86251 0.0
H863 H 0.90177 0.73292 0.73979 0.0
H864 H 0.87529 0.6807 0.94949 0.0
H865 H 0.89469 0.81622 0.98434 0.0
H866 H 0.88774 0.80112 0.90765 0.0
H867 H 0.90139 0.79059 0.92641 0.0
C868 C 0.87376 0.73182 0.76537 0.0
C869 C 0.88383 0.73216 0.72959 0.0
C870 C 0.87372 0.73187 0.83532 0.0
C871 C 0.88375 0.73268 0.87098 0.0
C872 C 0.89383 0.73301 0.83574 0.0
H873 H 0.90044 0.74544 0.29282 0.0
H874 H 0.90051 0.74472 0.17071 0.0
C875 C 0.89387 0.73266 0.76564 0.0
C876 C 0.8836 0.73263 0.94513 0.0
H877 H 0.89105 0.78269 0.08168 0.0
C878 C 0.87872 0.70296 0.97857 0.0
C879 C 0.88811 0.7617 0.98261 0.0
C880 C 0.89323 0.79438 0.94876 0.0
C881 C 0.87839 0.70137 0.04883 0.0
C882 C 0.88278 0.73063 0.08655 0.0
C883 C 0.88766 0.76031 0.05284 0.0
C884 C 0.88259 0.73087 0.16098 0.0
C885 C 0.87362 0.66806 0.08182 0.0
C886 C 0.87247 0.72373 0.19641 0.0
C887 C 0.8724 0.7238 0.2665 0.0
C888 C 0.88245 0.73157 0.30254 0.0
C889 C 0.89254 0.73936 0.26682 0.0
C890 C 0.8926 0.73897 0.19687 0.0
H891 H 0.87367 0.64595 0.04737 0.0
H892 H 0.87839 0.66333 0.12759 0.0
H893 H 0.86481 0.66924 0.09635 0.0
H894 H 0.8646 0.71832 0.16989 0.0
H895 H 0.86448 0.71803 0.29236 0.0
H896 H 0.62243 0.74072 0.29245 0.0
H897 H 0.62235 0.74135 0.41459 0.0
H898 H 0.65835 0.7647 0.41559 0.0
H899 H 0.65848 0.76511 0.29313 0.0
H900 H 0.63135 0.70246 0.50371 0.0
H901 H 0.65003 0.83806 0.53811 0.0
H902 H 0.64519 0.82106 0.45784 0.0
H903 H 0.65864 0.8139 0.48924 0.0
C904 C 0.63034 0.74611 0.31851 0.0
C905 C 0.64046 0.75311 0.28286 0.0
C906 C 0.63028 0.74644 0.38846 0.0
C907 C 0.64032 0.75369 0.42442 0.0
C908 C 0.65046 0.75998 0.38903 0.0
H909 H 0.65708 0.7522 0.84578 0.0
H910 H 0.65703 0.75177 0.7235 0.0
C911 C 0.65053 0.75999 0.31895 0.0
C912 C 0.64012 0.75392 0.49885 0.0
H913 H 0.64812 0.80327 0.63593 0.0
C914 C 0.63496 0.72459 0.53255 0.0
C915 C 0.6448 0.78286 0.53659 0.0
C916 C 0.64988 0.81587 0.50365 0.0
C917 C 0.63452 0.72321 0.60278 0.0
C918 C 0.63932 0.75194 0.64027 0.0
C919 C 0.64447 0.78126 0.60684 0.0
C920 C 0.63919 0.7519 0.71441 0.0
C921 C 0.62909 0.69088 0.63662 0.0
C922 C 0.62916 0.75237 0.74975 0.0
C923 C 0.62915 0.75282 0.81983 0.0
C924 C 0.63917 0.75265 0.85578 0.0
C925 C 0.64919 0.75217 0.81991 0.0
C926 C 0.6492 0.752 0.74996 0.0
H927 H 0.62744 0.66908 0.60105 0.0
H928 H 0.63447 0.68363 0.67784 0.0
H929 H 0.621 0.69544 0.65881 0.0
H930 H 0.62137 0.75264 0.72306 0.0
H931 H 0.62128 0.75319 0.84575 0.0
H932 H 0.39477 0.69501 0.84807 0.0
H933 H 0.3944 0.69484 0.72553 0.0
H934 H 0.37233 0.77207 0.72794 0.0
H935 H 0.37218 0.77078 0.85017 0.0
H936 H 0.36516 0.7274 0.64057 0.0
H937 H 0.41065 0.75958 0.59707 0.0
H938 H 0.40751 0.72095 0.64478 0.0
H939 H 0.40457 0.76104 0.67922 0.0
C940 C 0.38991 0.7121 0.82231 0.0
C941 C 0.38353 0.73296 0.85865 0.0
C942 C 0.38977 0.71219 0.75217 0.0
C943 C 0.38353 0.73399 0.71698 0.0
C944 C 0.37723 0.75503 0.75356 0.0
H945 H 0.39299 0.77942 0.29271 0.0
H946 H 0.39297 0.7802 0.41501 0.0
C947 C 0.37716 0.75432 0.82353 0.0
C948 C 0.38318 0.73412 0.64229 0.0
H949 H 0.39957 0.74023 0.50211 0.0
C950 C 0.3727 0.73048 0.61038 0.0
C951 C 0.393 0.73866 0.60244 0.0
C952 C 0.40455 0.74566 0.63266 0.0
C953 C 0.37174 0.73111 0.54029 0.0
C954 C 0.38154 0.73387 0.50042 0.0
C955 C 0.39203 0.73769 0.53232 0.0
C956 C 0.38118 0.73373 0.42573 0.0
C957 C 0.36023 0.72993 0.51016 0.0
C958 C 0.37458 0.70737 0.39041 0.0
C959 C 0.37437 0.70739 0.3203 0.0
C960 C 0.38104 0.73316 0.28403 0.0
C961 C 0.38778 0.75917 0.31927 0.0
C962 C 0.38778 0.75959 0.38927 0.0
H963 H 0.35431 0.73942 0.54595 0.0
H964 H 0.36044 0.74555 0.46382 0.0
H965 H 0.35688 0.70301 0.49771 0.0
H966 H 0.36971 0.68645 0.41694 0.0
H967 H 0.36922 0.68673 0.29451 0.0
H968 H 0.62263 0.27123 0.19549 0.0
H969 H 0.62278 0.27094 0.31816 0.0
H970 H 0.65501 0.23572 0.31669 0.0
H971 H 0.65495 0.23572 0.19453 0.0
H972 H 0.6393 0.19917 0.40544 0.0
H973 H 0.64244 0.34012 0.44003 0.0
H974 H 0.63121 0.32125 0.38696 0.0
H975 H 0.64545 0.32088 0.36123 0.0
C976 C 0.62976 0.26344 0.22119 0.0
C977 C 0.6388 0.25365 0.18491 0.0
C978 C 0.62985 0.26347 0.29135 0.0
C979 C 0.63897 0.25371 0.32654 0.0
C980 C 0.64792 0.24348 0.29055 0.0
H981 H 0.65643 0.28327 0.74738 0.0
H982 H 0.65619 0.28289 0.62477 0.0
C983 C 0.64786 0.24358 0.22058 0.0
C984 C 0.63919 0.25369 0.4009 0.0
H985 H 0.63996 0.30594 0.53786 0.0
C986 C 0.63944 0.22249 0.43443 0.0
C987 C 0.63952 0.28422 0.43856 0.0
C988 C 0.63974 0.31862 0.40508 0.0
C989 C 0.63985 0.22094 0.50466 0.0
C990 C 0.63993 0.25136 0.54238 0.0
C991 C 0.63983 0.28262 0.50884 0.0
C992 C 0.6401 0.25123 0.61674 0.0
C993 C 0.64039 0.18684 0.53793 0.0
C994 C 0.63109 0.23378 0.65292 0.0
C995 C 0.63118 0.23398 0.72294 0.0
C996 C 0.64028 0.25171 0.75837 0.0
C997 C 0.6493 0.26925 0.72187 0.0
C998 C 0.64917 0.26913 0.65175 0.0
H999 H 0.64296 0.16775 0.50228 0.0
H1000 H 0.64635 0.18968 0.58056 0.0
H1001 H 0.632 0.17662 0.55771 0.0
H1002 H 0.62392 0.22025 0.62695 0.0
H1003 H 0.62407 0.22029 0.74921 0.0
H1004 H 0.40089 0.23097 0.19557 0.0
H1005 H 0.40073 0.2313 0.31832 0.0
H1006 H 0.36509 0.23258 0.31711 0.0
H1007 H 0.36512 0.23242 0.19484 0.0
H1008 H 0.39122 0.28361 0.40549 0.0
H1009 H 0.37108 0.14884 0.43965 0.0
H1010 H 0.37843 0.16347 0.3639 0.0
H1011 H 0.36475 0.17446 0.37999 0.0
C1012 C 0.39301 0.23124 0.22134 0.0
C1013 C 0.38302 0.23161 0.1852 0.0
C1014 C 0.39295 0.23149 0.29145 0.0
C1015 C 0.38289 0.23166 0.32658 0.0
C1016 C 0.37292 0.23211 0.29082 0.0
H1017 H 0.36405 0.22047 0.74721 0.0
H1018 H 0.36429 0.22159 0.62467 0.0
C1019 C 0.37298 0.23215 0.22087 0.0
C1020 C 0.38278 0.23187 0.40072 0.0
H1021 H 0.37395 0.18303 0.53679 0.0
C1022 C 0.3875 0.26162 0.43439 0.0
C1023 C 0.37781 0.20324 0.43794 0.0
C1024 C 0.37277 0.17053 0.40386 0.0
C1025 C 0.38724 0.26372 0.50458 0.0
C1026 C 0.38239 0.23487 0.5421 0.0
C1027 C 0.37766 0.20511 0.50815 0.0
C1028 C 0.38226 0.23485 0.61655 0.0
C1029 C 0.39187 0.29714 0.53761 0.0
C1030 C 0.39228 0.24152 0.65285 0.0
C1031 C 0.39216 0.24122 0.72281 0.0
C1032 C 0.38202 0.23365 0.75813 0.0
C1033 C 0.372 0.22643 0.72168 0.0
C1034 C 0.37212 0.22705 0.65159 0.0
H1035 H 0.392 0.31909 0.50259 0.0
H1036 H 0.3869 0.30212 0.58243 0.0
H1037 H 0.40062 0.29599 0.55358 0.0
H1038 H 0.40023 0.24661 0.62708 0.0
H1039 H 0.40006 0.24649 0.74914 0.0
H1040 H 0.06056 0.30144 0.43159 0.0
H1041 H 0.04047 0.30467 0.42408 0.0
H1042 H 0.03346 0.19444 0.43145 0.0
H1043 H 0.05342 0.19095 0.44137 0.0
H1044 H 0.02373 0.27666 0.33277 0.0
H1045 H 0.0154 0.22464 0.58875 0.0
H1046 H 0.02935 0.23941 0.55874 0.0
H1047 H 0.0224 0.1977 0.53552 0.0
C1048 C 0.05474 0.27787 0.43171 0.0
C1049 C 0.05864 0.24594 0.43762 0.0
C1050 C 0.04327 0.27977 0.42698 0.0
C1051 C 0.03546 0.24983 0.42842 0.0
C1052 C 0.03933 0.21791 0.43144 0.0
H1053 H 0.96346 0.20049 0.44005 0.0
H1054 H 0.98358 0.20032 0.42738 0.0
C1055 C 0.05078 0.21597 0.43626 0.0
C1056 C 0.02326 0.25189 0.42898 0.0
H1057 H 0.99954 0.23048 0.52191 0.0
C1058 C 0.01844 0.26674 0.37421 0.0
C1059 C 0.01638 0.23911 0.48332 0.0
C1060 C 0.02114 0.22461 0.54523 0.0
C1061 C 1.00686 0.26826 0.37158 0.0
C1062 C 0.99998 0.25493 0.42544 0.0
C1063 C 1.00483 0.24045 0.48044 0.0
C1064 C 0.9877 0.25551 0.42617 0.0
C1065 C 1.00204 0.28334 0.31061 0.0
C1066 C 0.98331 0.28664 0.42909 0.0
C1067 C 0.97177 0.28685 0.43614 0.0
C1068 C 0.9644 0.25589 0.44042 0.0
C1069 C 0.96884 0.22479 0.43577 0.0
C1070 C 0.98036 0.22463 0.42901 0.0
H1071 H 1.00796 0.28555 0.26776 0.0
H1072 H 0.99411 0.2675 0.29509 0.0
H1073 H 1.00013 0.30938 0.32282 0.0
H1074 H 0.98884 0.31078 0.42799 0.0
H1075 H 0.96864 0.31123 0.4393 0.0
H1076 H 0.96412 0.75703 0.69302 0.0
H1077 H 0.98428 0.75774 0.70955 0.0
H1078 H 0.98978 0.77496 0.49825 0.0
H1079 H 0.96977 0.77436 0.4814 0.0
H1080 H 0.99768 0.71492 0.65779 0.0
H1081 H 0.01324 0.84705 0.57647 0.0
H1082 H 0.99866 0.83301 0.59462 0.0
H1083 H 1.00443 0.82421 0.51433 0.0
C1084 C 0.96964 0.76123 0.65018 0.0
C1085 C 0.96531 0.76596 0.58597 0.0
C1086 C 0.98117 0.76173 0.65974 0.0
C1087 C 0.9886 0.76706 0.60537 0.0
C1088 C 0.98429 0.77186 0.54135 0.0
H1089 H 0.05188 0.69907 0.53856 0.0
H1090 H 0.03229 0.70655 0.55158 0.0
C1091 C 0.97281 0.77148 0.53179 0.0
C1092 C 1.00075 0.76537 0.61427 0.0
H1093 H 0.02674 0.80749 0.57724 0.0
C1094 C 1.00404 0.73537 0.64103 0.0
C1095 C 1.00909 0.79224 0.59354 0.0
C1096 C 1.00618 0.82608 0.56882 0.0
C1097 C 0.01537 0.73085 0.64456 0.0
C1098 C 0.02364 0.75672 0.61933 0.0
C1099 C 0.0204 0.78742 0.5957 0.0
C1100 C 0.03561 0.75176 0.61388 0.0
C1101 C 0.01834 0.6983 0.6751 0.0
C1102 C 0.04408 0.77519 0.64308 0.0
C1103 C 0.05537 0.77105 0.63541 0.0
C1104 C 0.05839 0.74342 0.59825 0.0
C1105 C 0.04986 0.72014 0.56892 0.0
C1106 C 0.03863 0.72436 0.57637 0.0
H1107 H 0.01182 0.68695 0.71102 0.0
H1108 H 0.01893 0.67922 0.63487 0.0
H1109 H 0.0265 0.70291 0.70155 0.0
H1110 H 0.04197 0.79668 0.67184 0.0
H1111 H 0.06171 0.78939 0.65881 0.0
H1112 H 0.55872 0.75624 0.9055 0.0
H1113 H 0.53865 0.75942 0.89605 0.0
H1114 H 0.53325 0.71378 0.09153 0.0
H1115 H 0.55327 0.71164 0.10252 0.0
H1116 H 0.51979 0.70923 0.90193 0.0
H1117 H 0.51964 0.80269 0.10917 0.0
H1118 H 0.53239 0.79295 0.07114 0.0
H1119 H 0.52526 0.76459 0.13275 0.0
C1120 C 0.55327 0.74696 0.94658 0.0
C1121 C 0.55766 0.73387 1.00495 0.0
C1122 C 0.54179 0.74862 0.94092 0.0
C1123 C 0.53448 0.73743 0.9936 0.0
C1124 C 0.53876 0.72318 0.05076 0.0
H1125 H 0.46245 0.69157 1.00556 0.0
H1126 H 0.48251 0.69019 0.99357 0.0
C1127 C 0.55022 0.72154 0.05654 0.0
C1128 C 0.52241 0.74113 0.98955 0.0
H1129 H 0.50185 0.77679 0.06963 0.0
C1130 C 0.51587 0.72417 0.9383 0.0
C1131 C 0.51734 0.76115 0.03629 0.0
C1132 C 0.52403 0.78168 0.09006 0.0
C1133 C 0.50432 0.72577 0.93388 0.0
C1134 C 0.49915 0.74443 0.98263 0.0
C1135 C 0.50577 0.76225 0.03258 0.0
C1136 C 0.48686 0.74515 0.98415 0.0
C1137 C 0.49779 0.7077 0.87674 0.0
C1138 C 0.48259 0.77653 0.98357 0.0
C1139 C 0.47109 0.77741 0.99068 0.0
C1140 C 0.46362 0.74692 0.99875 0.0
C1141 C 0.46791 0.7155 0.99804 0.0
C1142 C 0.47941 0.71465 0.99115 0.0
H1143 H 0.50331 0.70384 0.83371 0.0
H1144 H 0.4938 0.68209 0.89383 0.0
H1145 H 0.49111 0.72231 0.85929 0.0
H1146 H 0.48818 0.80041 0.97848 0.0
H1147 H 0.46807 0.80202 0.99053 0.0
H1148 H 0.46268 0.20546 0.1194 0.0
H1149 H 0.48289 0.20597 0.13107 0.0
H1150 H 0.48883 0.29226 0.99701 0.0
H1151 H 0.46868 0.29142 0.98335 0.0
H1152 H 0.49774 0.19901 1.01809 0.0
H1153 H 0.50976 0.31949 0.16087 0.0
H1154 H 0.49562 0.29719 0.15959 0.0
H1155 H 0.50095 0.32283 0.0893 0.0
C1156 C 0.46827 0.22465 0.09247 0.0
C1157 C 0.464 0.24834 0.05022 0.0
C1158 C 0.47982 0.22499 0.09954 0.0
C1159 C 0.48735 0.24931 0.06534 0.0
C1160 C 0.48316 0.27363 0.02475 0.0
H1161 H 0.55824 0.2926 0.99498 0.0
H1162 H 0.53812 0.29288 1.00722 0.0
C1163 C 0.47161 0.27318 1.01725 0.0
C1164 C 0.49955 0.24778 0.0682 0.0
H1165 H 0.52456 0.29315 0.11468 0.0
C1166 C 0.50362 0.2194 0.03978 0.0
C1167 C 0.50717 0.27453 0.09611 0.0
C1168 C 0.5032 0.30517 0.12873 0.0
C1169 C 0.51515 0.21753 0.03651 0.0
C1170 C 0.52281 0.24439 0.0642 0.0
C1171 C 0.5187 0.27253 0.09363 0.0
C1172 C 0.53514 0.24458 0.06024 0.0
C1173 C 0.51901 0.18748 1.00091 0.0
C1174 C 0.54023 0.21769 0.08723 0.0
C1175 C 0.55177 0.21737 0.07999 0.0
C1176 C 0.55845 0.24427 0.04664 0.0
C1177 C 0.55337 0.27169 0.02167 0.0
C1178 C 0.54185 0.27183 0.02839 0.0
H1179 H 0.51241 0.17426 0.96752 0.0
H1180 H 0.52661 0.19576 0.9705 0.0
H1181 H 0.52107 0.16862 0.03852 0.0
H1182 H 0.53529 0.19681 0.11357 0.0
H1183 H 0.55545 0.19611 0.10048 0.0
loop_
_geom_bond_atom_site_label_1
_geom_bond_atom_site_label_2
_geom_bond_distance
_geom_bond_site_symmetry_2
_ccdc_geom_bond_type
Eu0 C9 2.828 . S
Eu0 O11 2.392 . S
Eu0 O13 2.418 . S
Eu0 O18 2.373 . S
Eu0 O21 2.488 . S
Eu0 O22 2.471 . S
Eu0 O23 2.349 . S
Eu1 O10 2.373 . S
Eu1 O14 2.488 . S
Eu1 O15 2.471 . S
Eu1 O16 2.349 . S
Eu1 O19 2.392 . S
Eu1 O20 2.418 . S
Eu1 C30 2.828 . S
C2 O20 1.244 . S
C2 O23 1.265 . S
C3 C4 1.379 . S
C3 C7 1.373 . S
C3 C9 1.505 . S
C4 C3 1.379 . S
C4 C6 1.369 . S
C4 H32 0.930 . S
C5 C7 1.383 . S
C5 C8 1.382 . S
C5 H33 0.930 . S
C6 C4 1.369 . S
C6 C8 1.392 . S
C6 H34 0.930 . S
C7 C3 1.373 . S
C7 C5 1.383 . S
C7 H35 0.931 . S
C8 C5 1.382 . S
C8 C6 1.392 . S
C9 Eu0 2.828 . S
C9 C3 1.505 . S
C9 O21 1.249 . S
C9 O22 1.244 . S
O10 Eu1 2.373 . S
O10 C12 1.258 . S
O11 Eu0 2.392 . S
O11 C12 1.242 . S
C12 O10 1.258 . S
C12 O11 1.242 . S
O13 Eu0 2.418 . S
O13 C17 1.244 . S
O14 Eu1 2.488 . S
O14 C30 1.249 . S
O15 Eu1 2.471 . S
O15 C30 1.244 . S
O16 Eu1 2.349 . S
O16 C17 1.265 . S
C17 O13 1.244 . S
C17 O16 1.265 . S
O18 Eu0 2.373 . S
O18 C31 1.258 . S
O19 Eu1 2.392 . S
O19 C31 1.242 . S
O20 Eu1 2.418 . S
O20 C2 1.244 . S
O21 Eu0 2.488 . S
O21 C9 1.249 . S
O22 Eu0 2.471 . S
O22 C9 1.244 . S
O23 Eu0 2.349 . S
O23 C2 1.265 . S
C24 C25 1.379 . S
C24 C28 1.373 . S
C24 C30 1.505 . S
C25 C24 1.379 . S
C25 C27 1.369 . S
C25 H36 0.930 . S
C26 C28 1.383 . S
C26 C29 1.382 . S
C26 H37 0.930 . S
C27 C25 1.369 . S
C27 C29 1.392 . S
C27 H38 0.930 . S
C28 C24 1.373 . S
C28 C26 1.383 . S
C28 H39 0.931 . S
C29 C26 1.382 . S
C29 C27 1.392 . S
C30 Eu1 2.828 . S
C30 O14 1.249 . S
C30 O15 1.244 . S
C30 C24 1.505 . S
C31 O18 1.258 . S
C31 O19 1.242 . S
H32 C4 0.930 . S
H33 C5 0.930 . S
H34 C6 0.930 . S
H35 C7 0.931 . S
H36 C25 0.930 . S
H37 C26 0.930 . S
H38 C27 0.930 . S
H39 C28 0.931 . S
Eu40 C49 2.828 . S
Eu40 O51 2.392 . S
Eu40 O53 2.418 . S
Eu40 O58 2.373 . S
Eu40 O61 2.488 . S
Eu40 O62 2.471 . S
Eu40 O63 2.349 . S
Eu41 O50 2.373 . S
Eu41 O54 2.488 . S
Eu41 O55 2.471 . S
Eu41 O56 2.349 . S
Eu41 O59 2.392 . S
Eu41 O60 2.418 . S
Eu41 C70 2.828 . S
C42 O60 1.244 . S
C42 O63 1.265 . S
C43 C44 1.379 . S
C43 C47 1.373 . S
C43 C49 1.505 . S
C44 C43 1.379 . S
C44 C46 1.369 . S
C44 H72 0.930 . S
C45 C47 1.383 . S
C45 C48 1.382 . S
C45 H73 0.930 . S
C46 C44 1.369 . S
C46 C48 1.392 . S
C46 H74 0.930 . S
C47 C43 1.373 . S
C47 C45 1.383 . S
C47 H75 0.931 . S
C48 C45 1.382 . S
C48 C46 1.392 . S
C49 Eu40 2.828 . S
C49 C43 1.505 . S
C49 O61 1.249 . S
C49 O62 1.244 . S
O50 Eu41 2.373 . S
O50 C52 1.258 . S
O51 Eu40 2.392 . S
O51 C52 1.242 . S
C52 O50 1.258 . S
C52 O51 1.242 . S
O53 Eu40 2.418 . S
O53 C57 1.244 . S
O54 Eu41 2.488 . S
O54 C70 1.249 . S
O55 Eu41 2.471 . S
O55 C70 1.244 . S
O56 Eu41 2.349 . S
O56 C57 1.265 . S
C57 O53 1.244 . S
C57 O56 1.265 . S
O58 Eu40 2.373 . S
O58 C71 1.258 . S
O59 Eu41 2.392 . S
O59 C71 1.242 . S
O60 Eu41 2.418 . S
O60 C42 1.244 . S
O61 Eu40 2.488 . S
O61 C49 1.249 . S
O62 Eu40 2.471 . S
O62 C49 1.244 . S
O63 Eu40 2.349 . S
O63 C42 1.265 . S
C64 C65 1.379 . S
C64 C68 1.373 . S
C64 C70 1.505 . S
C65 C64 1.379 . S
C65 C67 1.369 . S
C65 H76 0.930 . S
C66 C68 1.383 . S
C66 C69 1.382 . S
C66 H77 0.930 . S
C67 C65 1.369 . S
C67 C69 1.392 . S
C67 H78 0.930 . S
C68 C64 1.373 . S
C68 C66 1.383 . S
C68 H79 0.931 . S
C69 C66 1.382 . S
C69 C67 1.392 . S
C70 Eu41 2.828 . S
C70 O54 1.249 . S
C70 O55 1.244 . S
C70 C64 1.505 . S
C71 O58 1.258 . S
C71 O59 1.242 . S
H72 C44 0.930 . S
H73 C45 0.930 . S
H74 C46 0.930 . S
H75 C47 0.931 . S
H76 C65 0.930 . S
H77 C66 0.930 . S
H78 C67 0.930 . S
H79 C68 0.931 . S
Eu80 C89 2.828 . S
Eu80 O91 2.392 . S
Eu80 O93 2.418 . S
Eu80 O98 2.373 . S
Eu80 O101 2.488 . S
Eu80 O102 2.471 . S
Eu80 O103 2.349 . S
Eu81 O90 2.373 . S
Eu81 O94 2.488 . S
Eu81 O95 2.471 . S
Eu81 O96 2.349 . S
Eu81 O99 2.392 . S
Eu81 O100 2.418 . S
Eu81 C110 2.828 . S
C82 O100 1.244 . S
C82 O103 1.265 . S
C83 C84 1.379 . S
C83 C87 1.373 . S
C83 C89 1.505 . S
C84 C83 1.379 . S
C84 C86 1.369 . S
C84 H112 0.930 . S
C85 C87 1.383 . S
C85 C88 1.382 . S
C85 H113 0.930 . S
C86 C84 1.369 . S
C86 C88 1.392 . S
C86 H114 0.930 . S
C87 C83 1.373 . S
C87 C85 1.383 . S
C87 H115 0.931 . S
C88 C85 1.382 . S
C88 C86 1.392 . S
C89 Eu80 2.828 . S
C89 C83 1.505 . S
C89 O101 1.249 . S
C89 O102 1.244 . S
O90 Eu81 2.373 . S
O90 C92 1.258 . S
O91 Eu80 2.392 . S
O91 C92 1.242 . S
C92 O90 1.258 . S
C92 O91 1.242 . S
O93 Eu80 2.418 . S
O93 C97 1.244 . S
O94 Eu81 2.488 . S
O94 C110 1.249 . S
O95 Eu81 2.471 . S
O95 C110 1.244 . S
O96 Eu81 2.349 . S
O96 C97 1.265 . S
C97 O93 1.244 . S
C97 O96 1.265 . S
O98 Eu80 2.373 . S
O98 C111 1.258 . S
O99 Eu81 2.392 . S
O99 C111 1.242 . S
O100 Eu81 2.418 . S
O100 C82 1.244 . S
O101 Eu80 2.488 . S
O101 C89 1.249 . S
O102 Eu80 2.471 . S
O102 C89 1.244 . S
O103 Eu80 2.349 . S
O103 C82 1.265 . S
C104 C105 1.379 . S
C104 C108 1.373 . S
C104 C110 1.505 . S
C105 C104 1.379 . S
C105 C107 1.369 . S
C105 H116 0.930 . S
C106 C108 1.383 . S
C106 C109 1.382 . S
C106 H117 0.930 . S
C107 C105 1.369 . S
C107 C109 1.392 . S
C107 H118 0.930 . S
C108 C104 1.373 . S
C108 C106 1.383 . S
C108 H119 0.931 . S
C109 C106 1.382 . S
C109 C107 1.392 . S
C110 Eu81 2.828 . S
C110 O94 1.249 . S
C110 O95 1.244 . S
C110 C104 1.505 . S
C111 O98 1.258 . S
C111 O99 1.242 . S
H112 C84 0.930 . S
H113 C85 0.930 . S
H114 C86 0.930 . S
H115 C87 0.931 . S
H116 C105 0.930 . S
H117 C106 0.930 . S
H118 C107 0.930 . S
H119 C108 0.931 . S
Eu120 C129 2.828 . S
Eu120 O131 2.392 . S
Eu120 O133 2.418 . S
Eu120 O138 2.373 . S
Eu120 O141 2.488 . S
Eu120 O142 2.471 . S
Eu120 O143 2.349 . S
Eu121 O130 2.373 . S
Eu121 O134 2.488 . S
Eu121 O135 2.471 . S
Eu121 O136 2.349 . S
Eu121 O139 2.392 . S
Eu121 O140 2.418 . S
Eu121 C150 2.828 . S
C122 O140 1.244 . S
C122 O143 1.265 . S
C123 C124 1.379 . S
C123 C127 1.373 . S
C123 C129 1.505 . S
C124 C123 1.379 . S
C124 C126 1.369 . S
C124 H152 0.930 . S
C125 C127 1.383 . S
C125 C128 1.382 . S
C125 H153 0.930 . S
C126 C124 1.369 . S
C126 C128 1.392 . S
C126 H154 0.930 . S
C127 C123 1.373 . S
C127 C125 1.383 . S
C127 H155 0.931 . S
C128 C125 1.382 . S
C128 C126 1.392 . S
C129 Eu120 2.828 . S
C129 C123 1.505 . S
C129 O141 1.249 . S
C129 O142 1.244 . S
O130 Eu121 2.373 . S
O130 C132 1.258 . S
O131 Eu120 2.392 . S
O131 C132 1.242 . S
C132 O130 1.258 . S
C132 O131 1.242 . S
O133 Eu120 2.418 . S
O133 C137 1.244 . S
O134 Eu121 2.488 . S
O134 C150 1.249 . S
O135 Eu121 2.471 . S
O135 C150 1.244 . S
O136 Eu121 2.349 . S
O136 C137 1.265 . S
C137 O133 1.244 . S
C137 O136 1.265 . S
O138 Eu120 2.373 . S
O138 C151 1.258 . S
O139 Eu121 2.392 . S
O139 C151 1.242 . S
O140 Eu121 2.418 . S
O140 C122 1.244 . S
O141 Eu120 2.488 . S
O141 C129 1.249 . S
O142 Eu120 2.471 . S
O142 C129 1.244 . S
O143 Eu120 2.349 . S
O143 C122 1.265 . S
C144 C145 1.379 . S
C144 C148 1.373 . S
C144 C150 1.505 . S
C145 C144 1.379 . S
C145 C147 1.369 . S
C145 H156 0.930 . S
C146 C148 1.383 . S
C146 C149 1.382 . S
C146 H157 0.930 . S
C147 C145 1.369 . S
C147 C149 1.392 . S
C147 H158 0.930 . S
C148 C144 1.373 . S
C148 C146 1.383 . S
C148 H159 0.931 . S
C149 C146 1.382 . S
C149 C147 1.392 . S
C150 Eu121 2.828 . S
C150 O134 1.249 . S
C150 O135 1.244 . S
C150 C144 1.505 . S
C151 O138 1.258 . S
C151 O139 1.242 . S
H152 C124 0.930 . S
H153 C125 0.930 . S
H154 C126 0.930 . S
H155 C127 0.931 . S
H156 C145 0.930 . S
H157 C146 0.930 . S
H158 C147 0.930 . S
H159 C148 0.931 . S
Eu160 C169 2.828 1_554 S
Eu160 O171 2.392 . S
Eu160 O173 2.418 . S
Eu160 O178 2.373 1_554 S
Eu160 O181 2.488 1_554 S
Eu160 O182 2.471 1_554 S
Eu160 O183 2.351 . S
Eu161 O170 2.373 1_556 S
Eu161 O174 2.488 1_556 S
Eu161 O175 2.471 1_556 S
Eu161 O176 2.351 . S
Eu161 O179 2.392 . S
Eu161 O180 2.418 . S
Eu161 C190 2.828 1_556 S
C162 O180 1.244 1_554 S
C162 O183 1.265 . S
C163 C164 1.379 . S
C163 C167 1.373 . S
C163 C169 1.505 . S
C164 C163 1.379 . S
C164 C166 1.369 . S
C164 H192 0.930 . S
C165 C167 1.383 . S
C165 C168 1.382 . S
C165 H193 0.930 . S
C166 C164 1.369 . S
C166 C168 1.392 . S
C166 H194 0.930 . S
C167 C163 1.373 . S
C167 C165 1.383 . S
C167 H195 0.931 . S
C168 C165 1.382 . S
C168 C166 1.392 . S
C169 Eu160 2.828 1_556 S
C169 C163 1.505 . S
C169 O181 1.249 . S
C169 O182 1.244 . S
O170 Eu161 2.373 1_554 S
O170 C172 1.258 . S
O171 Eu160 2.392 . S
O171 C172 1.242 . S
C172 O170 1.258 . S
C172 O171 1.242 . S
O173 Eu160 2.418 . S
O173 C177 1.244 1_554 S
O174 Eu161 2.488 1_554 S
O174 C190 1.249 . S
O175 Eu161 2.471 1_554 S
O175 C190 1.244 . S
O176 Eu161 2.351 . S
O176 C177 1.265 . S
C177 O173 1.244 1_556 S
C177 O176 1.265 . S
O178 Eu160 2.373 1_556 S
O178 C191 1.258 . S
O179 Eu161 2.392 . S
O179 C191 1.242 . S
O180 Eu161 2.418 . S
O180 C162 1.244 1_556 S
O181 Eu160 2.488 1_556 S
O181 C169 1.249 . S
O182 Eu160 2.471 1_556 S
O182 C169 1.244 . S
O183 Eu160 2.351 . S
O183 C162 1.265 . S
C184 C185 1.379 . S
C184 C188 1.373 . S
C184 C190 1.505 . S
C185 C184 1.379 . S
C185 C187 1.369 . S
C185 H196 0.930 . S
C186 C188 1.383 . S
C186 C189 1.382 . S
C186 H197 0.930 . S
C187 C185 1.369 . S
C187 C189 1.392 . S
C187 H198 0.930 . S
C188 C184 1.373 . S
C188 C186 1.383 . S
C188 H199 0.931 . S
C189 C186 1.382 . S
C189 C187 1.392 . S
C190 Eu161 2.828 1_554 S
C190 O174 1.249 . S
C190 O175 1.244 . S
C190 C184 1.505 . S
C191 O178 1.258 . S
C191 O179 1.242 . S
H192 C164 0.930 . S
H193 C165 0.930 . S
H194 C166 0.930 . S
H195 C167 0.931 . S
H196 C185 0.930 . S
H197 C186 0.930 . S
H198 C187 0.930 . S
H199 C188 0.931 . S
Eu200 C209 2.828 1_554 S
Eu200 O211 2.392 . S
Eu200 O213 2.418 . S
Eu200 O218 2.373 1_554 S
Eu200 O221 2.488 1_554 S
Eu200 O222 2.471 1_554 S
Eu200 O223 2.351 . S
Eu201 O210 2.373 1_556 S
Eu201 O214 2.488 1_556 S
Eu201 O215 2.471 1_556 S
Eu201 O216 2.351 . S
Eu201 O219 2.392 . S
Eu201 O220 2.418 . S
Eu201 C230 2.828 1_556 S
C202 O220 1.244 1_554 S
C202 O223 1.265 . S
C203 C204 1.379 . S
C203 C207 1.373 . S
C203 C209 1.505 . S
C204 C203 1.379 . S
C204 C206 1.369 . S
C204 H232 0.930 . S
C205 C207 1.383 . S
C205 C208 1.382 . S
C205 H233 0.930 . S
C206 C204 1.369 . S
C206 C208 1.392 . S
C206 H234 0.930 . S
C207 C203 1.373 . S
C207 C205 1.383 . S
C207 H235 0.931 . S
C208 C205 1.382 . S
C208 C206 1.392 . S
C209 Eu200 2.828 1_556 S
C209 C203 1.505 . S
C209 O221 1.249 . S
C209 O222 1.244 . S
O210 Eu201 2.373 1_554 S
O210 C212 1.258 . S
O211 Eu200 2.392 . S
O211 C212 1.242 . S
C212 O210 1.258 . S
C212 O211 1.242 . S
O213 Eu200 2.418 . S
O213 C217 1.244 1_554 S
O214 Eu201 2.488 1_554 S
O214 C230 1.249 . S
O215 Eu201 2.471 1_554 S
O215 C230 1.244 . S
O216 Eu201 2.351 . S
O216 C217 1.265 . S
C217 O213 1.244 1_556 S
C217 O216 1.265 . S
O218 Eu200 2.373 1_556 S
O218 C231 1.258 . S
O219 Eu201 2.392 . S
O219 C231 1.242 . S
O220 Eu201 2.418 . S
O220 C202 1.244 1_556 S
O221 Eu200 2.488 1_556 S
O221 C209 1.249 . S
O222 Eu200 2.471 1_556 S
O222 C209 1.244 . S
O223 Eu200 2.351 . S
O223 C202 1.265 . S
C224 C225 1.379 . S
C224 C228 1.373 . S
C224 C230 1.505 . S
C225 C224 1.379 . S
C225 C227 1.369 . S
C225 H236 0.930 . S
C226 C228 1.383 . S
C226 C229 1.382 . S
C226 H237 0.930 . S
C227 C225 1.369 . S
C227 C229 1.392 . S
C227 H238 0.930 . S
C228 C224 1.373 . S
C228 C226 1.383 . S
C228 H239 0.931 . S
C229 C226 1.382 . S
C229 C227 1.392 . S
C230 Eu201 2.828 1_554 S
C230 O214 1.249 . S
C230 O215 1.244 . S
C230 C224 1.505 . S
C231 O218 1.258 . S
C231 O219 1.242 . S
H232 C204 0.930 . S
H233 C205 0.930 . S
H234 C206 0.930 . S
H235 C207 0.931 . S
H236 C225 0.930 . S
H237 C226 0.930 . S
H238 C227 0.930 . S
H239 C228 0.931 . S
Eu240 C249 2.828 1_554 S
Eu240 O251 2.392 . S
Eu240 O253 2.418 . S
Eu240 O258 2.373 1_554 S
Eu240 O261 2.488 1_554 S
Eu240 O262 2.471 1_554 S
Eu240 O263 2.351 . S
Eu241 O250 2.373 1_556 S
Eu241 O254 2.488 1_556 S
Eu241 O255 2.471 1_556 S
Eu241 O256 2.351 . S
Eu241 O259 2.392 . S
Eu241 O260 2.418 . S
Eu241 C270 2.828 1_556 S
C242 O260 1.244 1_554 S
C242 O263 1.265 . S
C243 C244 1.379 . S
C243 C247 1.373 . S
C243 C249 1.505 . S
C244 C243 1.379 . S
C244 C246 1.369 . S
C244 H272 0.930 . S
C245 C247 1.383 . S
C245 C248 1.382 . S
C245 H273 0.930 . S
C246 C244 1.369 . S
C246 C248 1.392 . S
C246 H274 0.930 . S
C247 C243 1.373 . S
C247 C245 1.383 . S
C247 H275 0.931 . S
C248 C245 1.382 . S
C248 C246 1.392 . S
C249 Eu240 2.828 1_556 S
C249 C243 1.505 . S
C249 O261 1.249 . S
C249 O262 1.244 . S
O250 Eu241 2.373 1_554 S
O250 C252 1.258 . S
O251 Eu240 2.392 . S
O251 C252 1.242 . S
C252 O250 1.258 . S
C252 O251 1.242 . S
O253 Eu240 2.418 . S
O253 C257 1.244 1_554 S
O254 Eu241 2.488 1_554 S
O254 C270 1.249 . S
O255 Eu241 2.471 1_554 S
O255 C270 1.244 . S
O256 Eu241 2.351 . S
O256 C257 1.265 . S
C257 O253 1.244 1_556 S
C257 O256 1.265 . S
O258 Eu240 2.373 1_556 S
O258 C271 1.258 . S
O259 Eu241 2.392 . S
O259 C271 1.242 . S
O260 Eu241 2.418 . S
O260 C242 1.244 1_556 S
O261 Eu240 2.488 1_556 S
O261 C249 1.249 . S
O262 Eu240 2.471 1_556 S
O262 C249 1.244 . S
O263 Eu240 2.351 . S
O263 C242 1.265 . S
C264 C265 1.379 . S
C264 C268 1.373 . S
C264 C270 1.505 . S
C265 C264 1.379 . S
C265 C267 1.369 . S
C265 H276 0.930 . S
C266 C268 1.383 . S
C266 C269 1.382 . S
C266 H277 0.930 . S
C267 C265 1.369 . S
C267 C269 1.392 . S
C267 H278 0.930 . S
C268 C264 1.373 . S
C268 C266 1.383 . S
C268 H279 0.931 . S
C269 C266 1.382 . S
C269 C267 1.392 . S
C270 Eu241 2.828 1_554 S
C270 O254 1.249 . S
C270 O255 1.244 . S
C270 C264 1.505 . S
C271 O258 1.258 . S
C271 O259 1.242 . S
H272 C244 0.930 . S
H273 C245 0.930 . S
H274 C246 0.930 . S
H275 C247 0.931 . S
H276 C265 0.930 . S
H277 C266 0.930 . S
H278 C267 0.930 . S
H279 C268 0.931 . S
Eu280 C289 2.828 1_554 S
Eu280 O291 2.392 . S
Eu280 O293 2.418 . S
Eu280 O298 2.373 1_554 S
Eu280 O301 2.488 1_554 S
Eu280 O302 2.471 1_554 S
Eu280 O303 2.351 . S
Eu281 O290 2.373 1_556 S
Eu281 O294 2.488 1_556 S
Eu281 O295 2.471 1_556 S
Eu281 O296 2.351 . S
Eu281 O299 2.392 . S
Eu281 O300 2.418 . S
Eu281 C310 2.828 1_556 S
C282 O300 1.244 1_554 S
C282 O303 1.265 . S
C283 C284 1.379 . S
C283 C287 1.373 . S
C283 C289 1.505 . S
C284 C283 1.379 . S
C284 C286 1.369 . S
C284 H312 0.930 . S
C285 C287 1.383 . S
C285 C288 1.382 . S
C285 H313 0.930 . S
C286 C284 1.369 . S
C286 C288 1.392 . S
C286 H314 0.930 . S
C287 C283 1.373 . S
C287 C285 1.383 . S
C287 H315 0.931 . S
C288 C285 1.382 . S
C288 C286 1.392 . S
C289 Eu280 2.828 1_556 S
C289 C283 1.505 . S
C289 O301 1.249 . S
C289 O302 1.244 . S
O290 Eu281 2.373 1_554 S
O290 C292 1.258 . S
O291 Eu280 2.392 . S
O291 C292 1.242 . S
C292 O290 1.258 . S
C292 O291 1.242 . S
O293 Eu280 2.418 . S
O293 C297 1.244 1_554 S
O294 Eu281 2.488 1_554 S
O294 C310 1.249 . S
O295 Eu281 2.471 1_554 S
O295 C310 1.244 . S
O296 Eu281 2.351 . S
O296 C297 1.265 . S
C297 O293 1.244 1_556 S
C297 O296 1.265 . S
O298 Eu280 2.373 1_556 S
O298 C311 1.258 . S
O299 Eu281 2.392 . S
O299 C311 1.242 . S
O300 Eu281 2.418 . S
O300 C282 1.244 1_556 S
O301 Eu280 2.488 1_556 S
O301 C289 1.249 . S
O302 Eu280 2.471 1_556 S
O302 C289 1.244 . S
O303 Eu280 2.351 . S
O303 C282 1.265 . S
C304 C305 1.379 . S
C304 C308 1.373 . S
C304 C310 1.505 . S
C305 C304 1.379 . S
C305 C307 1.369 . S
C305 H316 0.930 . S
C306 C308 1.383 . S
C306 C309 1.382 . S
C306 H317 0.930 . S
C307 C305 1.369 . S
C307 C309 1.392 . S
C307 H318 0.930 . S
C308 C304 1.373 . S
C308 C306 1.383 . S
C308 H319 0.931 . S
C309 C306 1.382 . S
C309 C307 1.392 . S
C310 Eu281 2.828 1_554 S
C310 O294 1.249 . S
C310 O295 1.244 . S
C310 C304 1.505 . S
C311 O298 1.258 . S
C311 O299 1.242 . S
H312 C284 0.930 . S
H313 C285 0.930 . S
H314 C286 0.930 . S
H315 C287 0.931 . S
H316 C305 0.930 . S
H317 C306 0.930 . S
H318 C307 0.930 . S
H319 C308 0.931 . S
H320 C328 0.929 . S
H321 C330 0.930 . S
H322 C332 0.930 . S
H323 C335 0.929 . S
H324 C338 0.930 . S
H325 C340 0.960 . S
H326 C340 0.960 . S
H327 C340 0.960 . S
C328 H320 0.929 . S
C328 C329 1.377 . S
C328 C330 1.384 . S
C329 C328 1.377 . S
C329 C335 1.390 . S
C330 H321 0.930 . S
C330 C328 1.384 . S
C330 C331 1.372 . S
C331 C330 1.372 . S
C331 C332 1.400 . S
C331 C336 1.490 . S
C332 H322 0.930 . S
C332 C331 1.400 . S
C332 C335 1.386 . S
H333 C349 0.930 . S
H334 C350 0.931 . S
C335 H323 0.929 . S
C335 C329 1.390 . S
C335 C332 1.386 . S
C336 C331 1.490 . S
C336 C338 1.395 . S
C336 C339 1.403 . S
H337 C343 0.930 . S
C338 H324 0.930 . S
C338 C336 1.395 . S
C338 C341 1.403 . S
C339 C336 1.403 . S
C339 C340 1.524 . S
C339 C343 1.400 . S
C340 H325 0.960 . S
C340 H326 0.960 . S
C340 H327 0.960 . S
C340 C339 1.524 . S
C341 C338 1.403 . S
C341 C342 1.392 . S
C341 C345 1.495 . S
C342 C341 1.392 . S
C342 C343 1.385 . S
C342 C344 1.478 . S
C343 H337 0.930 . S
C343 C339 1.400 . S
C343 C342 1.385 . S
C344 C342 1.478 . S
C344 C346 1.381 . S
C344 C350 1.383 . S
C345 C341 1.495 . S
C345 H351 0.959 . S
C345 H352 0.961 . S
C345 H353 0.960 . S
C346 C344 1.381 . S
C346 C347 1.394 . S
C346 H354 0.930 . S
C347 C346 1.394 . S
C347 C348 1.383 . S
C347 H355 0.929 . S
C348 C347 1.383 . S
C348 C349 1.377 . S
C349 H333 0.930 . S
C349 C348 1.377 . S
C349 C350 1.379 . S
C350 H334 0.931 . S
C350 C344 1.383 . S
C350 C349 1.379 . S
H351 C345 0.959 . S
H352 C345 0.961 . S
H353 C345 0.960 . S
H354 C346 0.930 . S
H355 C347 0.929 . S
H356 C364 0.929 . S
H357 C366 0.930 . S
H358 C368 0.930 . S
H359 C371 0.929 . S
H360 C374 0.930 . S
H361 C376 0.960 . S
H362 C376 0.960 . S
H363 C376 0.960 . S
C364 H356 0.929 . S
C364 C365 1.377 . S
C364 C366 1.384 . S
C365 C364 1.377 . S
C365 C371 1.390 . S
C366 H357 0.930 . S
C366 C364 1.384 . S
C366 C367 1.372 . S
C367 C366 1.372 . S
C367 C368 1.400 . S
C367 C372 1.490 . S
C368 H358 0.930 . S
C368 C367 1.400 . S
C368 C371 1.386 . S
H369 C385 0.930 . S
H370 C386 0.931 . S
C371 H359 0.929 . S
C371 C365 1.390 . S
C371 C368 1.386 . S
C372 C367 1.490 . S
C372 C374 1.395 . S
C372 C375 1.403 . S
H373 C379 0.930 . S
C374 H360 0.930 . S
C374 C372 1.395 . S
C374 C377 1.403 . S
C375 C372 1.403 . S
C375 C376 1.524 . S
C375 C379 1.400 . S
C376 H361 0.960 . S
C376 H362 0.960 . S
C376 H363 0.960 . S
C376 C375 1.524 . S
C377 C374 1.403 . S
C377 C378 1.392 . S
C377 C381 1.495 . S
C378 C377 1.392 . S
C378 C379 1.385 . S
C378 C380 1.478 . S
C379 H373 0.930 . S
C379 C375 1.400 . S
C379 C378 1.385 . S
C380 C378 1.478 . S
C380 C382 1.381 . S
C380 C386 1.383 . S
C381 C377 1.495 . S
C381 H387 0.959 . S
C381 H388 0.961 . S
C381 H389 0.960 . S
C382 C380 1.381 . S
C382 C383 1.394 . S
C382 H390 0.930 . S
C383 C382 1.394 . S
C383 C384 1.383 . S
C383 H391 0.929 . S
C384 C383 1.383 . S
C384 C385 1.377 . S
C385 H369 0.930 . S
C385 C384 1.377 . S
C385 C386 1.379 . S
C386 H370 0.931 . S
C386 C380 1.383 . S
C386 C385 1.379 . S
H387 C381 0.959 . S
H388 C381 0.961 . S
H389 C381 0.960 . S
H390 C382 0.930 . S
H391 C383 0.929 . S
H392 C400 0.929 . S
H393 C402 0.930 . S
H394 C404 0.930 . S
H395 C407 0.929 . S
H396 C410 0.930 . S
H397 C412 0.960 . S
H398 C412 0.960 . S
H399 C412 0.960 . S
C400 H392 0.929 . S
C400 C401 1.377 . S
C400 C402 1.384 . S
C401 C400 1.377 . S
C401 C407 1.390 . S
C402 H393 0.930 . S
C402 C400 1.384 . S
C402 C403 1.372 . S
C403 C402 1.372 . S
C403 C404 1.400 . S
C403 C408 1.490 . S
C404 H394 0.930 . S
C404 C403 1.400 . S
C404 C407 1.386 . S
H405 C421 0.930 . S
H406 C422 0.931 . S
C407 H395 0.929 . S
C407 C401 1.390 . S
C407 C404 1.386 . S
C408 C403 1.490 . S
C408 C410 1.395 . S
C408 C411 1.403 . S
H409 C415 0.930 . S
C410 H396 0.930 . S
C410 C408 1.395 . S
C410 C413 1.403 . S
C411 C408 1.403 . S
C411 C412 1.524 . S
C411 C415 1.400 . S
C412 H397 0.960 . S
C412 H398 0.960 . S
C412 H399 0.960 . S
C412 C411 1.524 . S
C413 C410 1.403 . S
C413 C414 1.392 . S
C413 C417 1.495 . S
C414 C413 1.392 . S
C414 C415 1.385 . S
C414 C416 1.478 . S
C415 H409 0.930 . S
C415 C411 1.400 . S
C415 C414 1.385 . S
C416 C414 1.478 . S
C416 C418 1.381 . S
C416 C422 1.383 . S
C417 C413 1.495 . S
C417 H423 0.959 . S
C417 H424 0.961 . S
C417 H425 0.960 . S
C418 C416 1.381 . S
C418 C419 1.394 . S
C418 H426 0.930 . S
C419 C418 1.394 . S
C419 C420 1.383 . S
C419 H427 0.929 . S
C420 C419 1.383 . S
C420 C421 1.377 . S
C421 H405 0.930 . S
C421 C420 1.377 . S
C421 C422 1.379 . S
C422 H406 0.931 . S
C422 C416 1.383 . S
C422 C421 1.379 . S
H423 C417 0.959 . S
H424 C417 0.961 . S
H425 C417 0.960 . S
H426 C418 0.930 . S
H427 C419 0.929 . S
H428 C436 0.929 . S
H429 C438 0.930 . S
H430 C440 0.930 . S
H431 C443 0.929 . S
H432 C446 0.930 . S
H433 C448 0.960 . S
H434 C448 0.960 . S
H435 C448 0.960 . S
C436 H428 0.929 . S
C436 C437 1.377 . S
C436 C438 1.384 . S
C437 C436 1.377 . S
C437 C443 1.390 . S
C438 H429 0.930 . S
C438 C436 1.384 . S
C438 C439 1.372 . S
C439 C438 1.372 . S
C439 C440 1.400 . S
C439 C444 1.490 . S
C440 H430 0.930 . S
C440 C439 1.400 . S
C440 C443 1.386 . S
H441 C457 0.930 . S
H442 C458 0.931 . S
C443 H431 0.929 . S
C443 C437 1.390 . S
C443 C440 1.386 . S
C444 C439 1.490 . S
C444 C446 1.395 . S
C444 C447 1.403 . S
H445 C451 0.930 . S
C446 H432 0.930 . S
C446 C444 1.395 . S
C446 C449 1.403 . S
C447 C444 1.403 . S
C447 C448 1.524 . S
C447 C451 1.400 . S
C448 H433 0.960 . S
C448 H434 0.960 . S
C448 H435 0.960 . S
C448 C447 1.524 . S
C449 C446 1.403 . S
C449 C450 1.392 . S
C449 C453 1.495 . S
C450 C449 1.392 . S
C450 C451 1.385 . S
C450 C452 1.478 . S
C451 H445 0.930 . S
C451 C447 1.400 . S
C451 C450 1.385 . S
C452 C450 1.478 . S
C452 C454 1.381 . S
C452 C458 1.383 . S
C453 C449 1.495 . S
C453 H459 0.959 . S
C453 H460 0.961 . S
C453 H461 0.960 . S
C454 C452 1.381 . S
C454 C455 1.394 . S
C454 H462 0.930 . S
C455 C454 1.394 . S
C455 C456 1.383 . S
C455 H463 0.929 . S
C456 C455 1.383 . S
C456 C457 1.377 . S
C457 H441 0.930 . S
C457 C456 1.377 . S
C457 C458 1.379 . S
C458 H442 0.931 . S
C458 C452 1.383 . S
C458 C457 1.379 . S
H459 C453 0.959 . S
H460 C453 0.961 . S
H461 C453 0.960 . S
H462 C454 0.930 . S
H463 C455 0.929 . S
H464 C472 0.929 . S
H465 C474 0.930 . S
H466 C476 0.930 . S
H467 C479 0.929 . S
H468 C482 0.930 . S
H469 C484 0.960 . S
H470 C484 0.960 . S
H471 C484 0.960 . S
C472 H464 0.929 . S
C472 C473 1.377 . S
C472 C474 1.384 . S
C473 C472 1.377 . S
C473 C479 1.390 . S
C474 H465 0.930 . S
C474 C472 1.384 . S
C474 C475 1.372 . S
C475 C474 1.372 . S
C475 C476 1.400 . S
C475 C480 1.490 . S
C476 H466 0.930 . S
C476 C475 1.400 . S
C476 C479 1.386 . S
H477 C493 0.930 . S
H478 C494 0.931 . S
C479 H467 0.929 . S
C479 C473 1.390 . S
C479 C476 1.386 . S
C480 C475 1.490 . S
C480 C482 1.395 . S
C480 C483 1.403 . S
H481 C487 0.930 . S
C482 H468 0.930 . S
C482 C480 1.395 . S
C482 C485 1.403 1_565 S
C483 C480 1.403 . S
C483 C484 1.524 . S
C483 C487 1.400 1_565 S
C484 H469 0.960 . S
C484 H470 0.960 . S
C484 H471 0.960 . S
C484 C483 1.524 . S
C485 C482 1.403 1_545 S
C485 C486 1.392 . S
C485 C489 1.495 . S
C486 C485 1.392 . S
C486 C487 1.385 . S
C486 C488 1.478 . S
C487 H481 0.930 . S
C487 C483 1.400 1_545 S
C487 C486 1.385 . S
C488 C486 1.478 . S
C488 C490 1.381 . S
C488 C494 1.383 . S
C489 C485 1.495 . S
C489 H495 0.959 . S
C489 H496 0.961 . S
C489 H497 0.960 . S
C490 C488 1.381 . S
C490 C491 1.394 . S
C490 H498 0.930 . S
C491 C490 1.394 . S
C491 C492 1.383 . S
C491 H499 0.929 . S
C492 C491 1.383 . S
C492 C493 1.377 . S
C493 H477 0.930 . S
C493 C492 1.377 . S
C493 C494 1.379 . S
C494 H478 0.931 . S
C494 C488 1.383 . S
C494 C493 1.379 . S
H495 C489 0.959 . S
H496 C489 0.961 . S
H497 C489 0.960 . S
H498 C490 0.930 . S
H499 C491 0.929 . S
H500 C508 0.929 . S
H501 C510 0.930 . S
H502 C512 0.930 . S
H503 C515 0.929 . S
H504 C518 0.930 . S
H505 C520 0.960 . S
H506 C520 0.960 . S
H507 C520 0.960 . S
C508 H500 0.929 . S
C508 C509 1.377 . S
C508 C510 1.384 . S
C509 C508 1.377 . S
C509 C515 1.390 . S
C510 H501 0.930 . S
C510 C508 1.384 . S
C510 C511 1.372 . S
C511 C510 1.372 . S
C511 C512 1.400 . S
C511 C516 1.490 . S
C512 H502 0.930 . S
C512 C511 1.400 . S
C512 C515 1.386 . S
H513 C529 0.930 . S
H514 C530 0.931 . S
C515 H503 0.929 . S
C515 C509 1.390 . S
C515 C512 1.386 . S
C516 C511 1.490 . S
C516 C518 1.395 . S
C516 C519 1.403 . S
H517 C523 0.930 . S
C518 H504 0.930 . S
C518 C516 1.395 . S
C518 C521 1.403 . S
C519 C516 1.403 . S
C519 C520 1.524 . S
C519 C523 1.400 . S
C520 H505 0.960 . S
C520 H506 0.960 . S
C520 H507 0.960 . S
C520 C519 1.524 . S
C521 C518 1.403 . S
C521 C522 1.392 . S
C521 C525 1.495 . S
C522 C521 1.392 . S
C522 C523 1.385 . S
C522 C524 1.478 . S
C523 H517 0.930 . S
C523 C519 1.400 . S
C523 C522 1.385 . S
C524 C522 1.478 . S
C524 C526 1.381 . S
C524 C530 1.383 . S
C525 C521 1.495 . S
C525 H531 0.959 . S
C525 H532 0.961 . S
C525 H533 0.960 . S
C526 C524 1.381 . S
C526 C527 1.394 . S
C526 H534 0.930 . S
C527 C526 1.394 . S
C527 C528 1.383 . S
C527 H535 0.929 . S
C528 C527 1.383 . S
C528 C529 1.377 . S
C529 H513 0.930 . S
C529 C528 1.377 . S
C529 C530 1.379 . S
C530 H514 0.931 . S
C530 C524 1.383 . S
C530 C529 1.379 . S
H531 C525 0.959 . S
H532 C525 0.961 . S
H533 C525 0.960 . S
H534 C526 0.930 . S
H535 C527 0.929 . S
H536 C544 0.929 . S
H537 C546 0.930 . S
H538 C548 0.930 . S
H539 C551 0.929 . S
H540 C554 0.930 . S
H541 C556 0.960 . S
H542 C556 0.960 . S
H543 C556 0.960 . S
C544 H536 0.929 . S
C544 C545 1.377 . S
C544 C546 1.384 . S
C545 C544 1.377 . S
C545 C551 1.390 . S
C546 H537 0.930 . S
C546 C544 1.384 . S
C546 C547 1.372 . S
C547 C546 1.372 . S
C547 C548 1.400 . S
C547 C552 1.490 . S
C548 H538 0.930 . S
C548 C547 1.400 . S
C548 C551 1.386 . S
H549 C565 0.930 . S
H550 C566 0.931 . S
C551 H539 0.929 . S
C551 C545 1.390 . S
C551 C548 1.386 . S
C552 C547 1.490 . S
C552 C554 1.395 . S
C552 C555 1.403 . S
H553 C559 0.930 . S
C554 H540 0.930 . S
C554 C552 1.395 . S
C554 C557 1.403 1_565 S
C555 C552 1.403 . S
C555 C556 1.524 . S
C555 C559 1.400 1_565 S
C556 H541 0.960 . S
C556 H542 0.960 . S
C556 H543 0.960 . S
C556 C555 1.524 . S
C557 C554 1.403 1_545 S
C557 C558 1.392 . S
C557 C561 1.495 . S
C558 C557 1.392 . S
C558 C559 1.385 . S
C558 C560 1.478 . S
C559 H553 0.930 . S
C559 C555 1.400 1_545 S
C559 C558 1.385 . S
C560 C558 1.478 . S
C560 C562 1.381 . S
C560 C566 1.383 . S
C561 C557 1.495 . S
C561 H567 0.959 . S
C561 H568 0.961 . S
C561 H569 0.960 . S
C562 C560 1.381 . S
C562 C563 1.394 . S
C562 H570 0.930 . S
C563 C562 1.394 . S
C563 C564 1.383 . S
C563 H571 0.929 . S
C564 C563 1.383 . S
C564 C565 1.377 . S
C565 H549 0.930 . S
C565 C564 1.377 . S
C565 C566 1.379 . S
C566 H550 0.931 . S
C566 C560 1.383 . S
C566 C565 1.379 . S
H567 C561 0.959 . S
H568 C561 0.961 . S
H569 C561 0.960 . S
H570 C562 0.930 . S
H571 C563 0.929 . S
H572 C580 0.929 . S
H573 C582 0.930 . S
H574 C584 0.930 . S
H575 C587 0.929 . S
H576 C590 0.930 . S
H577 C592 0.960 . S
H578 C592 0.960 . S
H579 C592 0.960 . S
C580 H572 0.929 . S
C580 C581 1.377 . S
C580 C582 1.384 . S
C581 C580 1.377 . S
C581 C587 1.390 . S
C582 H573 0.930 . S
C582 C580 1.384 . S
C582 C583 1.372 . S
C583 C582 1.372 . S
C583 C584 1.400 . S
C583 C588 1.490 . S
C584 H574 0.930 . S
C584 C583 1.400 . S
C584 C587 1.386 . S
H585 C601 0.930 . S
H586 C602 0.931 . S
C587 H575 0.929 . S
C587 C581 1.390 . S
C587 C584 1.386 . S
C588 C583 1.490 . S
C588 C590 1.395 . S
C588 C591 1.403 . S
H589 C595 0.930 . S
C590 H576 0.930 . S
C590 C588 1.395 . S
C590 C593 1.403 . S
C591 C588 1.403 . S
C591 C592 1.524 . S
C591 C595 1.400 . S
C592 H577 0.960 . S
C592 H578 0.960 . S
C592 H579 0.960 . S
C592 C591 1.524 . S
C593 C590 1.403 . S
C593 C594 1.392 . S
C593 C597 1.495 . S
C594 C593 1.392 . S
C594 C595 1.385 . S
C594 C596 1.478 . S
C595 H589 0.930 . S
C595 C591 1.400 . S
C595 C594 1.385 . S
C596 C594 1.478 . S
C596 C598 1.381 . S
C596 C602 1.383 . S
C597 C593 1.495 . S
C597 H603 0.959 . S
C597 H604 0.961 . S
C597 H605 0.960 . S
C598 C596 1.381 . S
C598 C599 1.394 . S
C598 H606 0.930 . S
C599 C598 1.394 . S
C599 C600 1.383 . S
C599 H607 0.929 . S
C600 C599 1.383 . S
C600 C601 1.377 . S
C601 H585 0.930 . S
C601 C600 1.377 . S
C601 C602 1.379 . S
C602 H586 0.931 . S
C602 C596 1.383 . S
C602 C601 1.379 . S
H603 C597 0.959 . S
H604 C597 0.961 . S
H605 C597 0.960 . S
H606 C598 0.930 . S
H607 C599 0.929 . S
H608 C616 0.929 . S
H609 C618 0.930 . S
H610 C620 0.930 . S
H611 C623 0.929 . S
H612 C626 0.930 . S
H613 C628 0.960 . S
H614 C628 0.960 . S
H615 C628 0.960 . S
C616 H608 0.929 . S
C616 C617 1.377 1_554 S
C616 C618 1.384 . S
C617 C616 1.377 1_556 S
C617 C623 1.390 . S
C618 H609 0.930 . S
C618 C616 1.384 . S
C618 C619 1.372 1_554 S
C619 C618 1.372 1_556 S
C619 C620 1.400 . S
C619 C624 1.490 . S
C620 H610 0.930 . S
C620 C619 1.400 . S
C620 C623 1.386 . S
H621 C637 0.930 . S
H622 C638 0.931 . S
C623 H611 0.929 . S
C623 C617 1.390 . S
C623 C620 1.386 . S
C624 C619 1.490 . S
C624 C626 1.395 1_556 S
C624 C627 1.403 . S
H625 C631 0.930 . S
C626 H612 0.930 . S
C626 C624 1.395 1_554 S
C626 C629 1.403 . S
C627 C624 1.403 . S
C627 C628 1.524 . S
C627 C631 1.400 . S
C628 H613 0.960 . S
C628 H614 0.960 . S
C628 H615 0.960 . S
C628 C627 1.524 . S
C629 C626 1.403 . S
C629 C630 1.392 . S
C629 C633 1.495 . S
C630 C629 1.392 . S
C630 C631 1.385 1_554 S
C630 C632 1.478 . S
C631 H625 0.930 . S
C631 C627 1.400 . S
C631 C630 1.385 1_556 S
C632 C630 1.478 . S
C632 C634 1.381 . S
C632 C638 1.383 1_554 S
C633 C629 1.495 . S
C633 H639 0.959 . S
C633 H640 0.961 . S
C633 H641 0.960 . S
C634 C632 1.381 . S
C634 C635 1.394 . S
C634 H642 0.930 . S
C635 C634 1.394 . S
C635 C636 1.387 . S
C635 H643 0.929 . S
C636 C635 1.387 . S
C636 C637 1.374 1_554 S
C637 H621 0.930 . S
C637 C636 1.374 1_556 S
C637 C638 1.379 . S
C638 H622 0.931 . S
C638 C632 1.383 1_556 S
C638 C637 1.379 . S
H639 C633 0.959 . S
H640 C633 0.961 . S
H641 C633 0.960 . S
H642 C634 0.930 . S
H643 C635 0.929 . S
H644 C652 0.929 . S
H645 C654 0.930 . S
H646 C656 0.930 . S
H647 C659 0.929 . S
H648 C662 0.930 . S
H649 C664 0.960 . S
H650 C664 0.960 . S
H651 C664 0.960 . S
C652 H644 0.929 . S
C652 C653 1.377 1_554 S
C652 C654 1.384 . S
C653 C652 1.377 1_556 S
C653 C659 1.390 . S
C654 H645 0.930 . S
C654 C652 1.384 . S
C654 C655 1.358 1_554 S
C655 C654 1.358 1_556 S
C655 C656 1.414 . S
C655 C660 1.489 1_556 S
C656 H646 0.930 . S
C656 C655 1.414 . S
C656 C659 1.386 . S
H657 C673 0.930 . S
H658 C674 0.931 . S
C659 H647 0.929 . S
C659 C653 1.390 . S
C659 C656 1.386 . S
C660 C655 1.489 1_554 S
C660 C662 1.407 . S
C660 C663 1.391 1_554 S
H661 C667 0.930 . S
C662 H648 0.930 . S
C662 C660 1.407 . S
C662 C665 1.403 1_565 S
C663 C660 1.391 1_556 S
C663 C664 1.524 . S
C663 C667 1.400 1_565 S
C664 H649 0.960 . S
C664 H650 0.960 . S
C664 H651 0.960 . S
C664 C663 1.524 . S
C665 C662 1.403 1_545 S
C665 C666 1.392 . S
C665 C669 1.495 . S
C666 C665 1.392 . S
C666 C667 1.385 1_554 S
C666 C668 1.478 . S
C667 H661 0.930 . S
C667 C663 1.400 1_545 S
C667 C666 1.385 1_556 S
C668 C666 1.478 . S
C668 C670 1.381 . S
C668 C674 1.383 1_554 S
C669 C665 1.495 . S
C669 H675 0.959 . S
C669 H676 0.961 . S
C669 H677 0.960 . S
C670 C668 1.381 . S
C670 C671 1.394 . S
C670 H678 0.930 . S
C671 C670 1.394 . S
C671 C672 1.381 1_554 S
C671 H679 0.929 . S
C672 C671 1.381 1_556 S
C672 C673 1.379 . S
C673 H657 0.930 . S
C673 C672 1.379 . S
C673 C674 1.379 . S
C674 H658 0.931 . S
C674 C668 1.383 1_556 S
C674 C673 1.379 . S
H675 C669 0.959 . S
H676 C669 0.961 . S
H677 C669 0.960 . S
H678 C670 0.930 . S
H679 C671 0.929 . S
H680 C688 0.929 . S
H681 C690 0.930 . S
H682 C692 0.930 . S
H683 C695 0.929 . S
H684 C698 0.930 . S
H685 C700 0.960 . S
H686 C700 0.960 . S
H687 C700 0.960 . S
C688 H680 0.929 . S
C688 C689 1.377 1_556 S
C688 C690 1.384 . S
C689 C688 1.377 1_554 S
C689 C695 1.390 . S
C690 H681 0.930 . S
C690 C688 1.384 . S
C690 C691 1.372 1_556 S
C691 C690 1.372 1_554 S
C691 C692 1.400 . S
C691 C696 1.490 . S
C692 H682 0.930 . S
C692 C691 1.400 . S
C692 C695 1.386 . S
H693 C709 0.930 . S
H694 C710 0.931 . S
C695 H683 0.929 . S
C695 C689 1.390 . S
C695 C692 1.386 . S
C696 C691 1.490 . S
C696 C698 1.395 . S
C696 C699 1.403 1_554 S
H697 C703 0.930 . S
C698 H684 0.930 . S
C698 C696 1.395 . S
C698 C701 1.403 . S
C699 C696 1.403 1_556 S
C699 C700 1.524 . S
C699 C703 1.400 . S
C700 H685 0.960 . S
C700 H686 0.960 . S
C700 H687 0.960 . S
C700 C699 1.524 . S
C701 C698 1.403 . S
C701 C702 1.392 . S
C701 C705 1.495 . S
C702 C701 1.392 . S
C702 C703 1.385 1_554 S
C702 C704 1.478 . S
C703 H697 0.930 . S
C703 C699 1.400 . S
C703 C702 1.385 1_556 S
C704 C702 1.478 . S
C704 C706 1.381 1_554 S
C704 C710 1.383 . S
C705 C701 1.495 . S
C705 H711 0.959 . S
C705 H712 0.961 . S
C705 H713 0.960 . S
C706 C704 1.381 1_556 S
C706 C707 1.394 . S
C706 H714 0.930 . S
C707 C706 1.394 . S
C707 C708 1.383 1_556 S
C707 H715 0.929 . S
C708 C707 1.383 1_554 S
C708 C709 1.377 . S
C709 H693 0.930 . S
C709 C708 1.377 . S
C709 C710 1.379 . S
C710 H694 0.931 . S
C710 C704 1.383 . S
C710 C709 1.379 . S
H711 C705 0.959 . S
H712 C705 0.961 . S
H713 C705 0.960 . S
H714 C706 0.930 . S
H715 C707 0.929 . S
H716 C724 0.929 . S
H717 C726 0.930 . S
H718 C728 0.930 . S
H719 C731 0.929 . S
H720 C734 0.930 . S
H721 C736 0.960 . S
H722 C736 0.960 . S
H723 C736 0.960 . S
C724 H716 0.929 . S
C724 C725 1.377 1_556 S
C724 C726 1.384 . S
C725 C724 1.377 1_554 S
C725 C731 1.390 . S
C726 H717 0.930 . S
C726 C724 1.384 . S
C726 C727 1.372 1_556 S
C727 C726 1.372 1_554 S
C727 C728 1.400 . S
C727 C732 1.490 . S
C728 H718 0.930 . S
C728 C727 1.400 . S
C728 C731 1.386 . S
H729 C745 0.930 . S
H730 C746 0.931 . S
C731 H719 0.929 . S
C731 C725 1.390 . S
C731 C728 1.386 . S
C732 C727 1.490 . S
C732 C734 1.395 . S
C732 C735 1.403 1_554 S
H733 C739 0.930 . S
C734 H720 0.930 . S
C734 C732 1.395 . S
C734 C737 1.403 1_545 S
C735 C732 1.403 1_556 S
C735 C736 1.524 . S
C735 C739 1.400 1_545 S
C736 H721 0.960 . S
C736 H722 0.960 . S
C736 H723 0.960 . S
C736 C735 1.524 . S
C737 C734 1.403 1_565 S
C737 C738 1.392 . S
C737 C741 1.495 . S
C738 C737 1.392 . S
C738 C739 1.385 1_554 S
C738 C740 1.478 . S
C739 H733 0.930 . S
C739 C735 1.400 1_565 S
C739 C738 1.385 1_556 S
C740 C738 1.478 . S
C740 C742 1.381 1_554 S
C740 C746 1.383 . S
C741 C737 1.495 . S
C741 H747 0.959 . S
C741 H748 0.961 . S
C741 H749 0.960 . S
C742 C740 1.381 1_556 S
C742 C743 1.394 . S
C742 H750 0.930 . S
C743 C742 1.394 . S
C743 C744 1.383 1_556 S
C743 H751 0.929 . S
C744 C743 1.383 1_554 S
C744 C745 1.377 . S
C745 H729 0.930 . S
C745 C744 1.377 . S
C745 C746 1.379 . S
C746 H730 0.931 . S
C746 C740 1.383 . S
C746 C745 1.379 . S
H747 C741 0.959 . S
H748 C741 0.961 . S
H749 C741 0.960 . S
H750 C742 0.930 . S
H751 C743 0.929 . S
H752 C760 0.929 . S
H753 C762 0.930 . S
H754 C764 0.930 . S
H755 C767 0.929 . S
H756 C770 0.930 1_554 S
H757 C772 0.960 . S
H758 C772 0.960 1_554 S
H759 C772 0.960 1_554 S
C760 H752 0.929 . S
C760 C761 1.377 . S
C760 C762 1.384 . S
C761 C760 1.377 . S
C761 C767 1.390 . S
C762 H753 0.930 . S
C762 C760 1.384 . S
C762 C763 1.372 . S
C763 C762 1.372 . S
C763 C764 1.400 . S
C763 C768 1.490 . S
C764 H754 0.930 . S
C764 C763 1.400 . S
C764 C767 1.386 . S
H765 C781 0.930 . S
H766 C782 0.931 . S
C767 H755 0.929 . S
C767 C761 1.390 . S
C767 C764 1.386 . S
C768 C763 1.490 . S
C768 C770 1.395 1_554 S
C768 C771 1.403 1_554 S
H769 C775 0.930 . S
C770 H756 0.930 1_556 S
C770 C768 1.395 1_556 S
C770 C773 1.403 . S
C771 C768 1.403 1_556 S
C771 C772 1.524 . S
C771 C775 1.400 . S
C772 H757 0.960 . S
C772 H758 0.960 1_556 S
C772 H759 0.960 1_556 S
C772 C771 1.524 . S
C773 C770 1.403 . S
C773 C774 1.392 . S
C773 C777 1.495 . S
C774 C773 1.392 . S
C774 C775 1.385 . S
C774 C776 1.478 . S
C775 H769 0.930 . S
C775 C771 1.400 . S
C775 C774 1.385 . S
C776 C774 1.478 . S
C776 C778 1.381 . S
C776 C782 1.383 . S
C777 C773 1.495 . S
C777 H783 0.959 . S
C777 H784 0.961 . S
C777 H785 0.960 . S
C778 C776 1.381 . S
C778 C779 1.394 . S
C778 H786 0.930 . S
C779 C778 1.394 . S
C779 C780 1.383 . S
C779 H787 0.929 . S
C780 C779 1.383 . S
C780 C781 1.377 . S
C781 H765 0.930 . S
C781 C780 1.377 . S
C781 C782 1.379 . S
C782 H766 0.931 . S
C782 C776 1.383 . S
C782 C781 1.379 . S
H783 C777 0.959 . S
H784 C777 0.961 . S
H785 C777 0.960 . S
H786 C778 0.930 . S
H787 C779 0.929 . S
H788 C796 0.929 . S
H789 C798 0.930 . S
H790 C800 0.930 . S
H791 C803 0.929 . S
H792 C806 0.937 . S
H793 C808 0.960 1_556 S
H794 C808 0.960 . S
H795 C808 0.960 . S
C796 H788 0.929 . S
C796 C797 1.377 . S
C796 C798 1.384 . S
C797 C796 1.377 . S
C797 C803 1.390 . S
C798 H789 0.930 . S
C798 C796 1.384 . S
C798 C799 1.372 . S
C799 C798 1.372 . S
C799 C800 1.400 . S
C799 C804 1.490 . S
C800 H790 0.930 . S
C800 C799 1.400 . S
C800 C803 1.386 . S
H801 C817 0.930 . S
H802 C818 0.931 . S
C803 H791 0.929 . S
C803 C797 1.390 . S
C803 C800 1.386 . S
C804 C799 1.490 . S
C804 C806 1.395 1_554 S
C804 C807 1.403 1_554 S
H805 C811 0.930 . S
C806 H792 0.937 . S
C806 C804 1.395 1_556 S
C806 C809 1.403 . S
C807 C804 1.403 1_556 S
C807 C808 1.524 1_556 S
C807 C811 1.400 . S
C808 H793 0.960 1_554 S
C808 H794 0.960 . S
C808 H795 0.960 . S
C808 C807 1.524 1_554 S
C809 C806 1.403 . S
C809 C810 1.392 . S
C809 C813 1.495 . S
C810 C809 1.392 . S
C810 C811 1.385 . S
C810 C812 1.478 . S
C811 H805 0.930 . S
C811 C807 1.400 . S
C811 C810 1.385 . S
C812 C810 1.478 . S
C812 C814 1.381 . S
C812 C818 1.383 . S
C813 C809 1.495 . S
C813 H819 0.959 . S
C813 H820 0.961 . S
C813 H821 0.960 . S
C814 C812 1.381 . S
C814 C815 1.394 . S
C814 H822 0.930 . S
C815 C814 1.394 . S
C815 C816 1.383 . S
C815 H823 0.929 . S
C816 C815 1.383 . S
C816 C817 1.377 . S
C817 H801 0.930 . S
C817 C816 1.377 . S
C817 C818 1.379 . S
C818 H802 0.931 . S
C818 C812 1.383 . S
C818 C817 1.379 . S
H819 C813 0.959 . S
H820 C813 0.961 . S
H821 C813 0.960 . S
H822 C814 0.930 . S
H823 C815 0.929 . S
H824 C832 0.929 . S
H825 C834 0.930 . S
H826 C836 0.930 . S
H827 C839 0.929 . S
H828 C842 0.930 . S
H829 C844 0.960 . S
H830 C844 0.960 . S
H831 C844 0.960 . S
C832 H824 0.929 . S
C832 C833 1.377 . S
C832 C834 1.384 . S
C833 C832 1.377 . S
C833 C839 1.390 . S
C834 H825 0.930 . S
C834 C832 1.384 . S
C834 C835 1.372 . S
C835 C834 1.372 . S
C835 C836 1.400 . S
C835 C840 1.490 . S
C836 H826 0.930 . S
C836 C835 1.400 . S
C836 C839 1.386 . S
H837 C853 0.930 . S
H838 C854 0.931 . S
C839 H827 0.929 . S
C839 C833 1.390 . S
C839 C836 1.386 . S
C840 C835 1.490 . S
C840 C842 1.395 . S
C840 C843 1.403 . S
H841 C847 0.930 1_556 S
C842 H828 0.930 . S
C842 C840 1.395 . S
C842 C845 1.403 . S
C843 C840 1.403 . S
C843 C844 1.524 . S
C843 C847 1.400 . S
C844 H829 0.960 . S
C844 H830 0.960 . S
C844 H831 0.960 . S
C844 C843 1.524 . S
C845 C842 1.403 . S
C845 C846 1.392 1_554 S
C845 C849 1.495 1_554 S
C846 C845 1.392 1_556 S
C846 C847 1.385 1_556 S
C846 C848 1.478 . S
C847 H841 0.930 1_554 S
C847 C843 1.400 . S
C847 C846 1.385 1_554 S
C848 C846 1.478 . S
C848 C850 1.381 . S
C848 C854 1.383 . S
C849 C845 1.495 1_556 S
C849 H855 0.959 1_556 S
C849 H856 0.961 . S
C849 H857 0.960 . S
C850 C848 1.381 . S
C850 C851 1.394 . S
C850 H858 0.930 . S
C851 C850 1.394 . S
C851 C852 1.383 . S
C851 H859 0.929 . S
C852 C851 1.383 . S
C852 C853 1.377 . S
C853 H837 0.930 . S
C853 C852 1.377 . S
C853 C854 1.379 . S
C854 H838 0.931 . S
C854 C848 1.383 . S
C854 C853 1.379 . S
H855 C849 0.959 1_554 S
H856 C849 0.961 . S
H857 C849 0.960 . S
H858 C850 0.930 . S
H859 C851 0.929 . S
H860 C868 0.929 . S
H861 C870 0.930 . S
H862 C872 0.930 . S
H863 C875 0.929 . S
H864 C878 0.930 1_556 S
H865 C880 0.960 1_554 S
H866 C880 0.960 . S
H867 C880 0.960 . S
C868 H860 0.929 . S
C868 C869 1.377 . S
C868 C870 1.384 . S
C869 C868 1.377 . S
C869 C875 1.390 . S
C870 H861 0.930 . S
C870 C868 1.384 . S
C870 C871 1.372 . S
C871 C870 1.372 . S
C871 C872 1.400 . S
C871 C876 1.490 . S
C872 H862 0.930 . S
C872 C871 1.400 . S
C872 C875 1.386 . S
H873 C889 0.930 . S
H874 C890 0.931 . S
C875 H863 0.929 . S
C875 C869 1.390 . S
C875 C872 1.386 . S
C876 C871 1.490 . S
C876 C878 1.395 1_556 S
C876 C879 1.403 1_556 S
H877 C883 0.930 . S
C878 H864 0.930 1_554 S
C878 C876 1.395 1_554 S
C878 C881 1.403 . S
C879 C876 1.403 1_554 S
C879 C880 1.524 1_554 S
C879 C883 1.400 . S
C880 H865 0.960 1_556 S
C880 H866 0.960 . S
C880 H867 0.960 . S
C880 C879 1.524 1_556 S
C881 C878 1.403 . S
C881 C882 1.392 . S
C881 C885 1.495 . S
C882 C881 1.392 . S
C882 C883 1.385 . S
C882 C884 1.478 . S
C883 H877 0.930 . S
C883 C879 1.400 . S
C883 C882 1.385 . S
C884 C882 1.478 . S
C884 C886 1.381 . S
C884 C890 1.383 . S
C885 C881 1.495 . S
C885 H891 0.959 . S
C885 H892 0.961 . S
C885 H893 0.960 . S
C886 C884 1.381 . S
C886 C887 1.394 . S
C886 H894 0.930 . S
C887 C886 1.394 . S
C887 C888 1.383 . S
C887 H895 0.929 . S
C888 C887 1.383 . S
C888 C889 1.377 . S
C889 H873 0.930 . S
C889 C888 1.377 . S
C889 C890 1.379 . S
C890 H874 0.931 . S
C890 C884 1.383 . S
C890 C889 1.379 . S
H891 C885 0.959 . S
H892 C885 0.961 . S
H893 C885 0.960 . S
H894 C886 0.930 . S
H895 C887 0.929 . S
H896 C904 0.929 . S
H897 C906 0.930 . S
H898 C908 0.930 . S
H899 C911 0.929 . S
H900 C914 0.930 . S
H901 C916 0.960 . S
H902 C916 0.960 . S
H903 C916 0.960 . S
C904 H896 0.929 . S
C904 C905 1.377 . S
C904 C906 1.384 . S
C905 C904 1.377 . S
C905 C911 1.390 . S
C906 H897 0.930 . S
C906 C904 1.384 . S
C906 C907 1.372 . S
C907 C906 1.372 . S
C907 C908 1.400 . S
C907 C912 1.490 . S
C908 H898 0.930 . S
C908 C907 1.400 . S
C908 C911 1.386 . S
H909 C925 0.930 . S
H910 C926 0.931 . S
C911 H899 0.929 . S
C911 C905 1.390 . S
C911 C908 1.386 . S
C912 C907 1.490 . S
C912 C914 1.395 . S
C912 C915 1.403 . S
H913 C919 0.930 . S
C914 H900 0.930 . S
C914 C912 1.395 . S
C914 C917 1.403 . S
C915 C912 1.403 . S
C915 C916 1.524 . S
C915 C919 1.400 . S
C916 H901 0.960 . S
C916 H902 0.960 . S
C916 H903 0.960 . S
C916 C915 1.524 . S
C917 C914 1.403 . S
C917 C918 1.392 . S
C917 C921 1.495 . S
C918 C917 1.392 . S
C918 C919 1.385 . S
C918 C920 1.478 . S
C919 H913 0.930 . S
C919 C915 1.400 . S
C919 C918 1.385 . S
C920 C918 1.478 . S
C920 C922 1.381 . S
C920 C926 1.383 . S
C921 C917 1.495 . S
C921 H927 0.959 . S
C921 H928 0.961 . S
C921 H929 0.960 . S
C922 C920 1.381 . S
C922 C923 1.394 . S
C922 H930 0.930 . S
C923 C922 1.394 . S
C923 C924 1.383 . S
C923 H931 0.929 . S
C924 C923 1.383 . S
C924 C925 1.377 . S
C925 H909 0.930 . S
C925 C924 1.377 . S
C925 C926 1.379 . S
C926 H910 0.931 . S
C926 C920 1.383 . S
C926 C925 1.379 . S
H927 C921 0.959 . S
H928 C921 0.961 . S
H929 C921 0.960 . S
H930 C922 0.930 . S
H931 C923 0.929 . S
H932 C940 0.929 . S
H933 C942 0.930 . S
H934 C944 0.930 . S
H935 C947 0.929 . S
H936 C950 0.930 . S
H937 C952 0.960 . S
H938 C952 0.960 . S
H939 C952 0.960 . S
C940 H932 0.929 . S
C940 C941 1.377 . S
C940 C942 1.384 . S
C941 C940 1.377 . S
C941 C947 1.390 . S
C942 H933 0.930 . S
C942 C940 1.384 . S
C942 C943 1.372 . S
C943 C942 1.372 . S
C943 C944 1.400 . S
C943 C948 1.490 . S
C944 H934 0.930 . S
C944 C943 1.400 . S
C944 C947 1.386 . S
H945 C961 0.930 . S
H946 C962 0.931 . S
C947 H935 0.929 . S
C947 C941 1.390 . S
C947 C944 1.386 . S
C948 C943 1.490 . S
C948 C950 1.395 . S
C948 C951 1.403 . S
H949 C955 0.930 . S
C950 H936 0.930 . S
C950 C948 1.395 . S
C950 C953 1.403 . S
C951 C948 1.403 . S
C951 C952 1.524 . S
C951 C955 1.400 . S
C952 H937 0.960 . S
C952 H938 0.960 . S
C952 H939 0.960 . S
C952 C951 1.524 . S
C953 C950 1.403 . S
C953 C954 1.392 . S
C953 C957 1.495 . S
C954 C953 1.392 . S
C954 C955 1.385 . S
C954 C956 1.478 . S
C955 H949 0.930 . S
C955 C951 1.400 . S
C955 C954 1.385 . S
C956 C954 1.478 . S
C956 C958 1.381 . S
C956 C962 1.383 . S
C957 C953 1.495 . S
C957 H963 0.959 . S
C957 H964 0.961 . S
C957 H965 0.960 . S
C958 C956 1.381 . S
C958 C959 1.394 . S
C958 H966 0.930 . S
C959 C958 1.394 . S
C959 C960 1.383 . S
C959 H967 0.929 . S
C960 C959 1.383 . S
C960 C961 1.377 . S
C961 H945 0.930 . S
C961 C960 1.377 . S
C961 C962 1.379 . S
C962 H946 0.931 . S
C962 C956 1.383 . S
C962 C961 1.379 . S
H963 C957 0.959 . S
H964 C957 0.961 . S
H965 C957 0.960 . S
H966 C958 0.930 . S
H967 C959 0.929 . S
H968 C976 0.929 . S
H969 C978 0.930 . S
H970 C980 0.930 . S
H971 C983 0.929 . S
H972 C986 0.930 . S
H973 C988 0.960 . S
H974 C988 0.960 . S
H975 C988 0.960 . S
C976 H968 0.929 . S
C976 C977 1.377 . S
C976 C978 1.384 . S
C977 C976 1.377 . S
C977 C983 1.390 . S
C978 H969 0.930 . S
C978 C976 1.384 . S
C978 C979 1.372 . S
C979 C978 1.372 . S
C979 C980 1.400 . S
C979 C984 1.490 . S
C980 H970 0.930 . S
C980 C979 1.400 . S
C980 C983 1.386 . S
H981 C997 0.930 . S
H982 C998 0.931 . S
C983 H971 0.929 . S
C983 C977 1.390 . S
C983 C980 1.386 . S
C984 C979 1.490 . S
C984 C986 1.395 . S
C984 C987 1.403 . S
H985 C991 0.930 . S
C986 H972 0.930 . S
C986 C984 1.395 . S
C986 C989 1.403 . S
C987 C984 1.403 . S
C987 C988 1.524 . S
C987 C991 1.400 . S
C988 H973 0.960 . S
C988 H974 0.960 . S
C988 H975 0.960 . S
C988 C987 1.524 . S
C989 C986 1.403 . S
C989 C990 1.392 . S
C989 C993 1.495 . S
C990 C989 1.392 . S
C990 C991 1.385 . S
C990 C992 1.478 . S
C991 H985 0.930 . S
C991 C987 1.400 . S
C991 C990 1.385 . S
C992 C990 1.478 . S
C992 C994 1.381 . S
C992 C998 1.383 . S
C993 C989 1.495 . S
C993 H999 0.959 . S
C993 H1000 0.961 . S
C993 H1001 0.960 . S
C994 C992 1.381 . S
C994 C995 1.394 . S
C994 H1002 0.930 . S
C995 C994 1.394 . S
C995 C996 1.383 . S
C995 H1003 0.929 . S
C996 C995 1.383 . S
C996 C997 1.377 . S
C997 H981 0.930 . S
C997 C996 1.377 . S
C997 C998 1.379 . S
C998 H982 0.931 . S
C998 C992 1.383 . S
C998 C997 1.379 . S
H999 C993 0.959 . S
H1000 C993 0.961 . S
H1001 C993 0.960 . S
H1002 C994 0.930 . S
H1003 C995 0.929 . S
H1004 C1012 0.929 . S
H1005 C1014 0.930 . S
H1006 C1016 0.930 . S
H1007 C1019 0.929 . S
H1008 C1022 0.930 . S
H1009 C1024 0.960 . S
H1010 C1024 0.960 . S
H1011 C1024 0.960 . S
C1012 H1004 0.929 . S
C1012 C1013 1.377 . S
C1012 C1014 1.384 . S
C1013 C1012 1.377 . S
C1013 C1019 1.390 . S
C1014 H1005 0.930 . S
C1014 C1012 1.384 . S
C1014 C1015 1.372 . S
C1015 C1014 1.372 . S
C1015 C1016 1.400 . S
C1015 C1020 1.490 . S
C1016 H1006 0.930 . S
C1016 C1015 1.400 . S
C1016 C1019 1.386 . S
H1017 C1033 0.930 . S
H1018 C1034 0.931 . S
C1019 H1007 0.929 . S
C1019 C1013 1.390 . S
C1019 C1016 1.386 . S
C1020 C1015 1.490 . S
C1020 C1022 1.395 . S
C1020 C1023 1.403 . S
H1021 C1027 0.930 . S
C1022 H1008 0.930 . S
C1022 C1020 1.395 . S
C1022 C1025 1.403 . S
C1023 C1020 1.403 . S
C1023 C1024 1.524 . S
C1023 C1027 1.400 . S
C1024 H1009 0.960 . S
C1024 H1010 0.960 . S
C1024 H1011 0.960 . S
C1024 C1023 1.524 . S
C1025 C1022 1.403 . S
C1025 C1026 1.392 . S
C1025 C1029 1.495 . S
C1026 C1025 1.392 . S
C1026 C1027 1.385 . S
C1026 C1028 1.478 . S
C1027 H1021 0.930 . S
C1027 C1023 1.400 . S
C1027 C1026 1.385 . S
C1028 C1026 1.478 . S
C1028 C1030 1.381 . S
C1028 C1034 1.383 . S
C1029 C1025 1.495 . S
C1029 H1035 0.959 . S
C1029 H1036 0.961 . S
C1029 H1037 0.960 . S
C1030 C1028 1.381 . S
C1030 C1031 1.394 . S
C1030 H1038 0.930 . S
C1031 C1030 1.394 . S
C1031 C1032 1.383 . S
C1031 H1039 0.929 . S
C1032 C1031 1.383 . S
C1032 C1033 1.377 . S
C1033 H1017 0.930 . S
C1033 C1032 1.377 . S
C1033 C1034 1.379 . S
C1034 H1018 0.931 . S
C1034 C1028 1.383 . S
C1034 C1033 1.379 . S
H1035 C1029 0.959 . S
H1036 C1029 0.961 . S
H1037 C1029 0.960 . S
H1038 C1030 0.930 . S
H1039 C1031 0.929 . S
H1040 C1048 0.929 . S
H1041 C1050 0.930 . S
H1042 C1052 0.930 . S
H1043 C1055 0.929 . S
H1044 C1058 0.930 . S
H1045 C1060 0.960 . S
H1046 C1060 0.960 . S
H1047 C1060 0.960 . S
C1048 H1040 0.929 . S
C1048 C1049 1.377 . S
C1048 C1050 1.384 . S
C1049 C1048 1.377 . S
C1049 C1055 1.390 . S
C1050 H1041 0.930 . S
C1050 C1048 1.384 . S
C1050 C1051 1.372 . S
C1051 C1050 1.372 . S
C1051 C1052 1.400 . S
C1051 C1056 1.490 . S
C1052 H1042 0.930 . S
C1052 C1051 1.400 . S
C1052 C1055 1.386 . S
H1053 C1069 0.930 . S
H1054 C1070 0.931 . S
C1055 H1043 0.929 . S
C1055 C1049 1.390 . S
C1055 C1052 1.386 . S
C1056 C1051 1.490 . S
C1056 C1058 1.395 . S
C1056 C1059 1.403 . S
H1057 C1063 0.930 . S
C1058 H1044 0.930 . S
C1058 C1056 1.395 . S
C1058 C1061 1.403 1_455 S
C1059 C1056 1.403 . S
C1059 C1060 1.524 . S
C1059 C1063 1.400 1_455 S
C1060 H1045 0.960 . S
C1060 H1046 0.960 . S
C1060 H1047 0.960 . S
C1060 C1059 1.524 . S
C1061 C1058 1.403 1_655 S
C1061 C1062 1.392 . S
C1061 C1065 1.495 . S
C1062 C1061 1.392 . S
C1062 C1063 1.385 . S
C1062 C1064 1.478 . S
C1063 H1057 0.930 . S
C1063 C1059 1.400 1_655 S
C1063 C1062 1.385 . S
C1064 C1062 1.478 . S
C1064 C1066 1.381 . S
C1064 C1070 1.383 . S
C1065 C1061 1.495 . S
C1065 H1071 0.959 . S
C1065 H1072 0.961 . S
C1065 H1073 0.960 . S
C1066 C1064 1.381 . S
C1066 C1067 1.394 . S
C1066 H1074 0.930 . S
C1067 C1066 1.394 . S
C1067 C1068 1.383 . S
C1067 H1075 0.929 . S
C1068 C1067 1.383 . S
C1068 C1069 1.377 . S
C1069 H1053 0.930 . S
C1069 C1068 1.377 . S
C1069 C1070 1.379 . S
C1070 H1054 0.931 . S
C1070 C1064 1.383 . S
C1070 C1069 1.379 . S
H1071 C1065 0.959 . S
H1072 C1065 0.961 . S
H1073 C1065 0.960 . S
H1074 C1066 0.930 . S
H1075 C1067 0.929 . S
H1076 C1084 0.929 . S
H1077 C1086 0.930 . S
H1078 C1088 0.930 . S
H1079 C1091 0.929 . S
H1080 C1094 0.930 . S
H1081 C1096 0.960 . S
H1082 C1096 0.960 . S
H1083 C1096 0.960 . S
C1084 H1076 0.929 . S
C1084 C1085 1.377 . S
C1084 C1086 1.384 . S
C1085 C1084 1.377 . S
C1085 C1091 1.390 . S
C1086 H1077 0.930 . S
C1086 C1084 1.384 . S
C1086 C1087 1.372 . S
C1087 C1086 1.372 . S
C1087 C1088 1.400 . S
C1087 C1092 1.490 . S
C1088 H1078 0.930 . S
C1088 C1087 1.400 . S
C1088 C1091 1.386 . S
H1089 C1105 0.930 . S
H1090 C1106 0.931 . S
C1091 H1079 0.929 . S
C1091 C1085 1.390 . S
C1091 C1088 1.386 . S
C1092 C1087 1.490 . S
C1092 C1094 1.395 . S
C1092 C1095 1.403 . S
H1093 C1099 0.930 . S
C1094 H1080 0.930 . S
C1094 C1092 1.395 . S
C1094 C1097 1.403 1_655 S
C1095 C1092 1.403 . S
C1095 C1096 1.524 . S
C1095 C1099 1.400 1_655 S
C1096 H1081 0.960 . S
C1096 H1082 0.960 . S
C1096 H1083 0.960 . S
C1096 C1095 1.524 . S
C1097 C1094 1.403 1_455 S
C1097 C1098 1.392 . S
C1097 C1101 1.495 . S
C1098 C1097 1.392 . S
C1098 C1099 1.385 . S
C1098 C1100 1.478 . S
C1099 H1093 0.930 . S
C1099 C1095 1.400 1_455 S
C1099 C1098 1.385 . S
C1100 C1098 1.478 . S
C1100 C1102 1.381 . S
C1100 C1106 1.383 . S
C1101 C1097 1.495 . S
C1101 H1107 0.959 . S
C1101 H1108 0.961 . S
C1101 H1109 0.960 . S
C1102 C1100 1.381 . S
C1102 C1103 1.394 . S
C1102 H1110 0.930 . S
C1103 C1102 1.394 . S
C1103 C1104 1.383 . S
C1103 H1111 0.929 . S
C1104 C1103 1.383 . S
C1104 C1105 1.377 . S
C1105 H1089 0.930 . S
C1105 C1104 1.377 . S
C1105 C1106 1.379 . S
C1106 H1090 0.931 . S
C1106 C1100 1.383 . S
C1106 C1105 1.379 . S
H1107 C1101 0.959 . S
H1108 C1101 0.961 . S
H1109 C1101 0.960 . S
H1110 C1102 0.930 . S
H1111 C1103 0.929 . S
H1112 C1120 0.929 . S
H1113 C1122 0.930 . S
H1114 C1124 0.930 . S
H1115 C1127 0.929 . S
H1116 C1130 0.930 . S
H1117 C1132 0.960 . S
H1118 C1132 0.960 . S
H1119 C1132 0.960 . S
C1120 H1112 0.929 . S
C1120 C1121 1.377 . S
C1120 C1122 1.384 . S
C1121 C1120 1.377 . S
C1121 C1127 1.390 . S
C1122 H1113 0.930 . S
C1122 C1120 1.384 . S
C1122 C1123 1.372 . S
C1123 C1122 1.372 . S
C1123 C1124 1.400 . S
C1123 C1128 1.490 . S
C1124 H1114 0.930 . S
C1124 C1123 1.400 . S
C1124 C1127 1.386 . S
H1125 C1141 0.930 . S
H1126 C1142 0.931 . S
C1127 H1115 0.929 . S
C1127 C1121 1.390 . S
C1127 C1124 1.386 . S
C1128 C1123 1.490 . S
C1128 C1130 1.395 . S
C1128 C1131 1.403 . S
H1129 C1135 0.930 . S
C1130 H1116 0.930 . S
C1130 C1128 1.395 . S
C1130 C1133 1.403 . S
C1131 C1128 1.403 . S
C1131 C1132 1.524 . S
C1131 C1135 1.400 . S
C1132 H1117 0.960 . S
C1132 H1118 0.960 . S
C1132 H1119 0.960 . S
C1132 C1131 1.524 . S
C1133 C1130 1.403 . S
C1133 C1134 1.392 . S
C1133 C1137 1.495 . S
C1134 C1133 1.392 . S
C1134 C1135 1.385 . S
C1134 C1136 1.478 . S
C1135 H1129 0.930 . S
C1135 C1131 1.400 . S
C1135 C1134 1.385 . S
C1136 C1134 1.478 . S
C1136 C1138 1.381 . S
C1136 C1142 1.383 . S
C1137 C1133 1.495 . S
C1137 H1143 0.959 . S
C1137 H1144 0.961 . S
C1137 H1145 0.960 . S
C1138 C1136 1.381 . S
C1138 C1139 1.394 . S
C1138 H1146 0.930 . S
C1139 C1138 1.394 . S
C1139 C1140 1.383 . S
C1139 H1147 0.929 . S
C1140 C1139 1.383 . S
C1140 C1141 1.377 . S
C1141 H1125 0.930 . S
C1141 C1140 1.377 . S
C1141 C1142 1.379 . S
C1142 H1126 0.931 . S
C1142 C1136 1.383 . S
C1142 C1141 1.379 . S
H1143 C1137 0.959 . S
H1144 C1137 0.961 . S
H1145 C1137 0.960 . S
H1146 C1138 0.930 . S
H1147 C1139 0.929 . S
H1148 C1156 0.929 . S
H1149 C1158 0.930 . S
H1150 C1160 0.930 . S
H1151 C1163 0.929 . S
H1152 C1166 0.930 . S
H1153 C1168 0.960 . S
H1154 C1168 0.960 . S
H1155 C1168 0.960 . S
C1156 H1148 0.929 . S
C1156 C1157 1.377 . S
C1156 C1158 1.384 . S
C1157 C1156 1.377 . S
C1157 C1163 1.390 . S
C1158 H1149 0.930 . S
C1158 C1156 1.384 . S
C1158 C1159 1.372 . S
C1159 C1158 1.372 . S
C1159 C1160 1.400 . S
C1159 C1164 1.490 . S
C1160 H1150 0.930 . S
C1160 C1159 1.400 . S
C1160 C1163 1.386 . S
H1161 C1177 0.930 . S
H1162 C1178 0.931 . S
C1163 H1151 0.929 . S
C1163 C1157 1.390 . S
C1163 C1160 1.386 . S
C1164 C1159 1.490 . S
C1164 C1166 1.395 . S
C1164 C1167 1.403 . S
H1165 C1171 0.930 . S
C1166 H1152 0.930 . S
C1166 C1164 1.395 . S
C1166 C1169 1.403 . S
C1167 C1164 1.403 . S
C1167 C1168 1.524 . S
C1167 C1171 1.400 . S
C1168 H1153 0.960 . S
C1168 H1154 0.960 . S
C1168 H1155 0.960 . S
C1168 C1167 1.524 . S
C1169 C1166 1.403 . S
C1169 C1170 1.392 . S
C1169 C1173 1.495 . S
C1170 C1169 1.392 . S
C1170 C1171 1.385 . S
C1170 C1172 1.478 . S
C1171 H1165 0.930 . S
C1171 C1167 1.400 . S
C1171 C1170 1.385 . S
C1172 C1170 1.478 . S
C1172 C1174 1.381 . S
C1172 C1178 1.383 . S
C1173 C1169 1.495 . S
C1173 H1179 0.959 . S
C1173 H1180 0.961 . S
C1173 H1181 0.960 . S
C1174 C1172 1.381 . S
C1174 C1175 1.394 . S
C1174 H1182 0.930 . S
C1175 C1174 1.394 . S
C1175 C1176 1.383 . S
C1175 H1183 0.929 . S
C1176 C1175 1.383 . S
C1176 C1177 1.377 . S
C1177 H1161 0.930 . S
C1177 C1176 1.377 . S
C1177 C1178 1.379 . S
C1178 H1162 0.931 . S
C1178 C1172 1.383 . S
C1178 C1177 1.379 . S
H1179 C1173 0.959 . S
H1180 C1173 0.961 . S
H1181 C1173 0.960 . S
H1182 C1174 0.930 . S
H1183 C1175 0.929 . S
C329 C29 1.685 . S
C348 C288 1.681 . S
C365 C248 1.688 . S
C384 C69 1.694 . S
C401 C229 1.685 . S
C420 C88 1.673 . S
C437 C189 1.690 . S
C456 C128 1.690 . S
C473 C97 1.546 . S
C492 C17 1.511 . S
C509 C57 1.530 . S
C528 C137 1.553 . S
C545 C122 1.529 . S
C564 C42 1.519 . S
C581 C82 1.527 . S
C600 C2 1.524 . S
C617 C177 1.458 . S
C636 C257 1.444 1_554 S
C653 C217 1.458 . S
C672 C297 1.462 . S
C689 C282 1.453 . S
C708 C202 1.433 . S
C725 C242 1.456 . S
C744 C162 1.442 . S
C761 C31 2.057 . S
C780 C12 2.063 . S
C797 C71 2.057 . S
C816 C52 2.043 . S
C833 C111 2.055 . S
C852 C92 2.055 . S
C869 C132 2.054 . S
C888 C151 2.050 . S
C905 C172 2.057 . S
C924 C191 2.064 . S
C941 C231 2.059 . S
C960 C212 2.064 . S
C977 C252 2.059 . S
C996 C271 2.060 . S
C1013 C292 2.058 . S
C1032 C311 2.046 . S
C1049 C8 2.314 . S
C1068 C48 2.328 . S
C1085 C149 2.316 . S
C1104 C109 2.312 . S
C1121 C168 2.316 . S
C1140 C208 2.328 . S
C1157 C309 2.319 . S
C1176 C269 2.304 . S
