# Generated by pormake.
# Topology umz, (4)-cn, num edge types: 1
# Building blocks:
#     Node 0, Type 0, BuildingBlock: QUQFOY_clean_sbu_1, # of connection points: 4
#     Node 1, Type 0, BuildingBlock: QUQFOY_clean_sbu_1, # of connection points: 4
#     Node 2, Type 0, BuildingBlock: QUQFOY_clean_sbu_1, # of connection points: 4
#     Node 3, Type 0, BuildingBlock: QUQFOY_clean_sbu_1, # of connection points: 4
#     Node 4, Type 0, BuildingBlock: QUQFOY_clean_sbu_1, # of connection points: 4
#     Node 5, Type 0, BuildingBlock: QUQFOY_clean_sbu_1, # of connection points: 4
#     Node 6, Type 0, BuildingBlock: QUQFOY_clean_sbu_1, # of connection points: 4
#     Node 7, Type 0, BuildingBlock: QUQFOY_clean_sbu_1, # of connection points: 4
#     Node 8, Type 0, BuildingBlock: QUQFOY_clean_sbu_1, # of connection points: 4
#     Node 9, Type 0, BuildingBlock: QUQFOY_clean_sbu_1, # of connection points: 4
#     Node 10, Type 0, BuildingBlock: QUQFOY_clean_sbu_1, # of connection points: 4
#     Node 11, Type 0, BuildingBlock: QUQFOY_clean_sbu_1, # of connection points: 4
#     Node 12, Type 0, BuildingBlock: QUQFOY_clean_sbu_1, # of connection points: 4
#     Node 13, Type 0, BuildingBlock: QUQFOY_clean_sbu_1, # of connection points: 4
#     Node 14, Type 0, BuildingBlock: QUQFOY_clean_sbu_1, # of connection points: 4
#     Node 15, Type 0, BuildingBlock: QUQFOY_clean_sbu_1, # of connection points: 4
#     Edge 16, Type (0, 0), BuildingBlock: XUDNAN_clean_linker_2, # of connection points: 2
#     Edge 17, Type (0, 0), BuildingBlock: XUDNAN_clean_linker_2, # of connection points: 2
#     Edge 18, Type (0, 0), BuildingBlock: XUDNAN_clean_linker_2, # of connection points: 2
#     Edge 19, Type (0, 0), BuildingBlock: XUDNAN_clean_linker_2, # of connection points: 2
#     Edge 20, Type (0, 0), BuildingBlock: XUDNAN_clean_linker_2, # of connection points: 2
#     Edge 21, Type (0, 0), BuildingBlock: XUDNAN_clean_linker_2, # of connection points: 2
#     Edge 22, Type (0, 0), BuildingBlock: XUDNAN_clean_linker_2, # of connection points: 2
#     Edge 23, Type (0, 0), BuildingBlock: XUDNAN_clean_linker_2, # of connection points: 2
#     Edge 24, Type (0, 0), BuildingBlock: XUDNAN_clean_linker_2, # of connection points: 2
#     Edge 25, Type (0, 0), BuildingBlock: XUDNAN_clean_linker_2, # of connection points: 2
#     Edge 26, Type (0, 0), BuildingBlock: XUDNAN_clean_linker_2, # of connection points: 2
#     Edge 27, Type (0, 0), BuildingBlock: XUDNAN_clean_linker_2, # of connection points: 2
#     Edge 28, Type (0, 0), BuildingBlock: XUDNAN_clean_linker_2, # of connection points: 2
#     Edge 29, Type (0, 0), BuildingBlock: XUDNAN_clean_linker_2, # of connection points: 2
#     Edge 30, Type (0, 0), BuildingBlock: XUDNAN_clean_linker_2, # of connection points: 2
#     Edge 31, Type (0, 0), BuildingBlock: XUDNAN_clean_linker_2, # of connection points: 2
#     Edge 32, Type (0, 0), BuildingBlock: XUDNAN_clean_linker_2, # of connection points: 2
#     Edge 33, Type (0, 0), BuildingBlock: XUDNAN_clean_linker_2, # of connection points: 2
#     Edge 34, Type (0, 0), BuildingBlock: XUDNAN_clean_linker_2, # of connection points: 2
#     Edge 35, Type (0, 0), BuildingBlock: XUDNAN_clean_linker_2, # of connection points: 2
#     Edge 36, Type (0, 0), BuildingBlock: XUDNAN_clean_linker_2, # of connection points: 2
#     Edge 37, Type (0, 0), BuildingBlock: XUDNAN_clean_linker_2, # of connection points: 2
#     Edge 38, Type (0, 0), BuildingBlock: XUDNAN_clean_linker_2, # of connection points: 2
#     Edge 39, Type (0, 0), BuildingBlock: XUDNAN_clean_linker_2, # of connection points: 2
#     Edge 40, Type (0, 0), BuildingBlock: XUDNAN_clean_linker_2, # of connection points: 2
#     Edge 41, Type (0, 0), BuildingBlock: XUDNAN_clean_linker_2, # of connection points: 2
#     Edge 42, Type (0, 0), BuildingBlock: XUDNAN_clean_linker_2, # of connection points: 2
#     Edge 43, Type (0, 0), BuildingBlock: XUDNAN_clean_linker_2, # of connection points: 2
#     Edge 44, Type (0, 0), BuildingBlock: XUDNAN_clean_linker_2, # of connection points: 2
#     Edge 45, Type (0, 0), BuildingBlock: XUDNAN_clean_linker_2, # of connection points: 2
#     Edge 46, Type (0, 0), BuildingBlock: XUDNAN_clean_linker_2, # of connection points: 2
#     Edge 47, Type (0, 0), BuildingBlock: XUDNAN_clean_linker_2, # of connection points: 2
# Relax obj value: 0.237
# Max RMSD: 0.190
# Mean RMSD: 0.190
data_MOF--net-umz--node1-QUQFOY_clean_sbu_1--edge1-XUDNAN_clean_linker_2
_symmetry_space_group_name_H-M    P1
_symmetry_Int_Tables_number       1
_symmetry_cell_setting            triclinic
loop_
_symmetry_equiv_pos_as_xyz
'x, y, z'
_cell_length_a     65.315458
_cell_length_b     65.276362
_cell_length_c     21.937932
_cell_angle_alpha  89.937348
_cell_angle_beta   89.983176
_cell_angle_gamma 89.990359
loop_
_atom_site_label
_atom_site_type_symbol
_atom_site_fract_x
_atom_site_fract_y
_atom_site_fract_z
_atom_type_partial_charge
O0 O 0.04028 0.62998 0.98774 0.0
Cd1 Cd 0.03548 0.64977 0.05901 0.0
Cd2 Cd 0.00644 0.62251 0.08659 0.0
O3 O 0.01201 0.61202 -0.00028 0.0
O4 O 0.04529 0.67692 0.03078 0.0
O5 O 0.01282 0.67046 0.05311 0.0
C6 C 0.02652 0.68309 0.03305 0.0
C7 C 0.97369 0.61773 0.12699 0.0
C8 C 0.02818 0.61602 0.96978 0.0
C9 C 0.0448 0.62525 0.16607 0.0
O10 O 0.02877 0.61571 0.14985 0.0
O11 O 0.04999 0.64162 0.13881 0.0
O12 O 0.98564 0.60264 0.1152 0.0
O13 O 0.9798 0.63597 0.11364 0.0
O14 O 0.86709 0.06237 0.54668 0.0
Cd15 Cd 0.85432 0.04646 0.618 0.0
Cd16 Cd 0.88547 0.02203 0.59369 0.0
O17 O 0.88794 0.03832 0.51299 0.0
O18 O 0.82514 0.05467 0.61916 0.0
O19 O 0.83551 0.02313 0.59787 0.0
C20 C 0.82074 0.03626 0.60217 0.0
C21 C 0.89406 0.98796 0.61108 0.0
C22 C 0.87991 0.05601 0.50745 0.0
C23 C 0.88609 0.04736 0.70933 0.0
O24 O 0.89564 0.03744 0.66868 0.0
O25 O 0.86729 0.0517 0.70228 0.0
O26 O 0.90739 0.00107 0.59245 0.0
O27 O 0.87505 0.99339 0.61147 0.0
O28 O 0.45746 0.86472 0.07385 0.0
Cd29 Cd 0.47471 0.8496 0.13783 0.0
Cd30 Cd 0.49571 0.88377 0.1316 0.0
O31 O 0.48 0.88855 0.05142 0.0
O32 O 0.4647 0.82114 0.12881 0.0
O33 O 0.49677 0.83001 0.11015 0.0
C34 C 0.48266 0.81614 0.10965 0.0
C35 C 0.53005 0.89319 0.13958 0.0
C36 C 0.46297 0.87982 0.04134 0.0
C37 C 0.46979 0.8765 0.24298 0.0
O38 O 0.47907 0.88945 0.2097 0.0
O39 O 0.4684 0.85794 0.22609 0.0
O40 O 0.51575 0.90647 0.13129 0.0
O41 O 0.52502 0.87407 0.14088 0.0
O42 O 0.63646 0.43605 0.56384 0.0
Cd43 Cd 0.65367 0.45027 0.62975 0.0
Cd44 Cd 0.61648 0.4737 0.62897 0.0
O45 O 0.61138 0.45812 0.54862 0.0
O46 O 0.67878 0.4333 0.62377 0.0
O47 O 0.67898 0.46642 0.60465 0.0
C48 C 0.68876 0.44926 0.60672 0.0
C49 C 0.6005 0.50529 0.64752 0.0
C50 C 0.62059 0.4416 0.5348 0.0
C51 C 0.62691 0.44614 0.7371 0.0
O52 O 0.61394 0.45618 0.70614 0.0
O53 O 0.64508 0.44383 0.71785 0.0
O54 O 0.5903 0.48875 0.63857 0.0
O55 O 0.62011 0.50445 0.6408 0.0
O56 O 0.04772 0.86582 0.92356 0.0
Cd57 Cd 0.03123 0.85536 0.85038 0.0
Cd58 Cd 0.00852 0.88729 0.88012 0.0
O59 O 0.02433 0.88649 0.96181 0.0
O60 O 0.03928 0.82617 0.84351 0.0
O61 O 0.00794 0.83618 0.86819 0.0
C62 C 0.02103 0.82149 0.86129 0.0
C63 C 0.97468 0.89777 0.8658 0.0
C64 C 0.04168 0.87769 0.96569 0.0
C65 C 0.03423 0.88954 0.76617 0.0
O66 O 0.025 0.89884 0.80877 0.0
O67 O 0.0369 0.87028 0.76899 0.0
O68 O 0.98828 0.90975 0.88888 0.0
O69 O 0.97962 0.87879 0.85799 0.0
O70 O 0.62798 0.05081 0.48202 0.0
Cd71 Cd 0.64812 0.04701 0.411 0.0
Cd72 Cd 0.6218 0.01736 0.38197 0.0
O73 O 0.61067 0.0222 0.46862 0.0
O74 O 0.67491 0.05729 0.44009 0.0
O75 O 0.66933 0.02481 0.41558 0.0
C76 C 0.68158 0.03872 0.43637 0.0
C77 C 0.61733 0.98516 0.33749 0.0
C78 C 0.61421 0.03834 0.49917 0.0
C79 C 0.62391 0.05635 0.30431 0.0
O80 O 0.61487 0.03997 0.31993 0.0
O81 O 0.64004 0.06193 0.33195 0.0
O82 O 0.60219 0.99697 0.34993 0.0
O83 O 0.63542 0.99093 0.35348 0.0
O84 O 0.43807 0.64028 0.92005 0.0
Cd85 Cd 0.45632 0.65507 0.85786 0.0
Cd86 Cd 0.47437 0.61805 0.85654 0.0
O87 O 0.45736 0.61305 0.93457 0.0
O88 O 0.45089 0.68428 0.87568 0.0
O89 O 0.48151 0.67016 0.88622 0.0
C90 C 0.46973 0.68593 0.89247 0.0
C91 C 0.50566 0.60126 0.84111 0.0
C92 C 0.44163 0.62361 0.94789 0.0
C93 C 0.44912 0.63189 0.74716 0.0
O94 O 0.45778 0.61769 0.77713 0.0
O95 O 0.44834 0.64994 0.76855 0.0
O96 O 0.48869 0.59148 0.84656 0.0
O97 O 0.50529 0.62084 0.84912 0.0
O98 O 0.8801 0.45518 0.46423 0.0
Cd99 Cd 0.85998 0.45906 0.39342 0.0
Cd100 Cd 0.88709 0.49109 0.37002 0.0
O101 O 0.89594 0.48485 0.4581 0.0
O102 O 0.83887 0.4387 0.41666 0.0
O103 O 0.83216 0.47174 0.40983 0.0
C104 C 0.82606 0.45348 0.42339 0.0
C105 C 0.89156 0.52518 0.33877 0.0
C106 C 0.89283 0.46799 0.48536 0.0
C107 C 0.88683 0.45401 0.28628 0.0
O108 O 0.89605 0.4699 0.30536 0.0
O109 O 0.87024 0.44822 0.31109 0.0
O110 O 0.90669 0.51357 0.3531 0.0
O111 O 0.87337 0.51758 0.34241 0.0
O112 O 0.96721 0.37348 0.94963 0.0
Cd113 Cd 0.98082 0.36326 0.87121 0.0
Cd114 Cd 0.00505 0.39319 0.89906 0.0
O115 O 0.99262 0.39207 0.98565 0.0
O116 O 0.96965 0.33506 0.86218 0.0
O117 O 0.00232 0.3415 0.88077 0.0
C118 C 0.98768 0.32832 0.87536 0.0
C119 C 0.03859 0.39206 0.86522 0.0
C120 C 0.97495 0.38414 0.99215 0.0
C121 C 0.97688 0.39972 0.79453 0.0
O122 O 0.98714 0.40808 0.83684 0.0
O123 O 0.9743 0.38038 0.79412 0.0
O124 O 0.03188 0.40758 0.89585 0.0
O125 O 0.02692 0.37611 0.86075 0.0
O126 O 0.13198 0.94675 0.44151 0.0
Cd127 Cd 0.15395 0.95066 0.37565 0.0
Cd128 Cd 0.12581 0.98305 0.34497 0.0
O129 O 0.11451 0.97539 0.42953 0.0
O130 O 0.17591 0.93247 0.40676 0.0
O131 O 0.18006 0.96586 0.39631 0.0
C132 C 0.18723 0.94841 0.41408 0.0
C133 C 0.11485 0.01511 0.30819 0.0
C134 C 0.11785 0.95883 0.45828 0.0
C135 C 0.13116 0.94509 0.26193 0.0
O136 O 0.12193 0.96132 0.27801 0.0
O137 O 0.14646 0.93862 0.29201 0.0
O138 O 0.10256 1.00012 0.31714 0.0
O139 O 0.13381 0.0125 0.32249 0.0
O140 O 0.54185 0.13313 0.9603 0.0
Cd141 Cd 0.52579 0.14206 0.88462 0.0
Cd142 Cd 0.50313 0.11159 0.91722 0.0
O143 O 0.51758 0.11407 0.00079 0.0
O144 O 0.53389 0.17113 0.87336 0.0
O145 O 0.50248 0.16151 0.8987 0.0
C146 C 0.51562 0.17605 0.89049 0.0
C147 C 0.46851 0.10957 0.89553 0.0
C148 C 0.53509 0.12254 0.00444 0.0
C149 C 0.52926 0.10569 0.80753 0.0
O150 O 0.51992 0.09706 0.85134 0.0
O151 O 0.5315 0.12507 0.80695 0.0
O152 O 0.47764 0.0951 0.92501 0.0
O153 O 0.47859 0.12612 0.88367 0.0
O154 O 0.35239 0.56173 0.41997 0.0
Cd155 Cd 0.33559 0.54515 0.35854 0.0
Cd156 Cd 0.37137 0.52365 0.35417 0.0
O157 O 0.37796 0.5401 0.43218 0.0
O158 O 0.30693 0.55202 0.37996 0.0
O159 O 0.31954 0.5206 0.38696 0.0
C160 C 0.30449 0.53313 0.39566 0.0
C161 C 0.38768 0.49216 0.33638 0.0
C162 C 0.36886 0.55663 0.44657 0.0
C163 C 0.35833 0.55059 0.24629 0.0
O164 O 0.37178 0.54038 0.27494 0.0
O165 O 0.34066 0.55319 0.26912 0.0
O166 O 0.39764 0.50905 0.34102 0.0
O167 O 0.36823 0.49269 0.34657 0.0
O168 O 0.95195 0.14135 0.02993 0.0
Cd169 Cd 0.96127 0.16148 0.09594 0.0
Cd170 Cd 0.98985 0.13142 0.1215 0.0
O171 O 0.97908 0.12153 0.03845 0.0
O172 O 0.95354 0.18919 0.06683 0.0
O173 O 0.98573 0.17922 0.07958 0.0
C174 C 0.97286 0.19308 0.06193 0.0
C175 C 0.02182 0.11672 0.14561 0.0
C176 C 0.96244 0.12617 0.01191 0.0
C177 C 0.95465 0.1399 0.2111 0.0
O178 O 0.96961 0.129 0.19326 0.0
O179 O 0.94936 0.15571 0.18113 0.0
O180 O 0.00547 0.10611 0.13919 0.0
O181 O 0.02037 0.13626 0.13837 0.0
O182 O 0.37375 0.94784 0.57085 0.0
Cd183 Cd 0.35634 0.962 0.63643 0.0
Cd184 Cd 0.3904 0.98533 0.63249 0.0
O185 O 0.39636 0.97176 0.54942 0.0
O186 O 0.3323 0.9434 0.63423 0.0
O187 O 0.32989 0.97609 0.61059 0.0
C188 C 0.32126 0.95838 0.61523 0.0
C189 C 0.39211 0.02006 0.65479 0.0
C190 C 0.38853 0.95432 0.5386 0.0
C191 C 0.38469 0.95811 0.74014 0.0
O192 O 0.39752 0.96731 0.70633 0.0
O193 O 0.366 0.957 0.72444 0.0
O194 O 0.40827 0.00981 0.6402 0.0
O195 O 0.37457 0.01093 0.65188 0.0
O196 O 0.54937 0.35579 0.06702 0.0
Cd197 Cd 0.53218 0.34027 0.12993 0.0
Cd198 Cd 0.51304 0.3772 0.13149 0.0
O199 O 0.52895 0.38211 0.0514 0.0
O200 O 0.5394 0.31144 0.11142 0.0
O201 O 0.50793 0.3236 0.10189 0.0
C202 C 0.52069 0.30867 0.09464 0.0
C203 C 0.48189 0.39407 0.14921 0.0
C204 C 0.54502 0.37206 0.03818 0.0
C205 C 0.53986 0.36419 0.2389 0.0
O206 O 0.53067 0.37806 0.20894 0.0
O207 O 0.54062 0.34598 0.21863 0.0
O208 O 0.49881 0.40381 0.14193 0.0
O209 O 0.48221 0.37445 0.14217 0.0
O210 O 0.12511 0.54544 0.50743 0.0
Cd211 Cd 0.13466 0.53069 0.58488 0.0
Cd212 Cd 0.10502 0.50626 0.55409 0.0
O213 O 0.10642 0.5204 0.46959 0.0
O214 O 0.16308 0.54092 0.59698 0.0
O215 O 0.15582 0.50868 0.57451 0.0
C216 C 0.16937 0.52281 0.5826 0.0
C217 C 0.10735 0.47198 0.58053 0.0
C218 C 0.11442 0.53811 0.46437 0.0
C219 C 0.09778 0.53286 0.6616 0.0
O220 O 0.08958 0.5226 0.61893 0.0
O221 O 0.117 0.53616 0.66151 0.0
O222 O 0.09178 0.47874 0.55031 0.0
O223 O 0.1225 0.48427 0.59028 0.0
H224 H 0.05138 0.71025 0.97424 0.0
H225 H 0.98902 0.70229 0.03839 0.0
H226 H 0.97986 0.73618 -0.0047 0.0
H227 H 0.05546 0.76363 0.00488 0.0
H228 H 0.07054 0.76883 0.9378 0.0
H229 H 0.07171 0.744 0.97332 0.0
H230 H 0.0618 0.72707 0.87057 0.0
H231 H 0.06035 0.7519 0.83492 0.0
H232 H 0.03863 0.7349 0.83247 0.0
H233 H 0.9781 0.77182 0.94716 0.0
H234 H 0.98421 0.80602 0.90163 0.0
H235 H 0.04741 0.78918 0.86669 0.0
C236 C 0.03578 0.71561 0.97953 0.0
C237 C 0.02093 0.70366 0.00995 0.0
C238 C 0.00067 0.71122 0.01541 0.0
C239 C 0.99532 0.73041 0.99088 0.0
C240 C 0.01035 0.74171 0.96063 0.0
C241 C 0.03017 0.73453 0.95498 0.0
C242 C 0.04361 0.74958 0.92116 0.0
C243 C 0.06137 0.75694 0.96172 0.0
C244 C 0.05156 0.7403 0.86123 0.0
C245 C 0.02837 0.76653 0.90925 0.0
C246 C 0.00923 0.76176 0.93208 0.0
C247 C 0.99299 0.77561 0.92867 0.0
C248 C 0.99658 0.79497 0.90254 0.0
C249 C 0.01623 0.80024 0.88012 0.0
C250 C 0.03213 0.78559 0.88257 0.0
H251 H 0.70848 0.06418 0.49347 0.0
H252 H 0.70157 0.00162 0.42995 0.0
H253 H 0.73595 0.99327 0.47075 0.0
H254 H 0.76146 0.06954 0.45898 0.0
H255 H 0.76678 0.08477 0.52562 0.0
H256 H 0.74169 0.08535 0.49181 0.0
H257 H 0.72574 0.07505 0.5957 0.0
H258 H 0.75083 0.07422 0.62968 0.0
H259 H 0.7344 0.05207 0.6334 0.0
H260 H 0.77186 0.99234 0.51703 0.0
H261 H 0.80604 0.99918 0.56144 0.0
H262 H 0.78803 0.0621 0.59623 0.0
C263 C 0.71416 0.04871 0.48786 0.0
C264 C 0.70237 0.03356 0.4583 0.0
C265 C 0.71037 0.01349 0.45232 0.0
C266 C 0.72984 0.00859 0.47552 0.0
C267 C 0.74098 0.02391 0.5049 0.0
C268 C 0.73338 0.04356 0.511 0.0
C269 C 0.74831 0.05739 0.54371 0.0
C270 C 0.75495 0.07531 0.50256 0.0
C271 C 0.73927 0.06513 0.60421 0.0
C272 C 0.76568 0.04256 0.55454 0.0
C273 C 0.76123 0.02329 0.53212 0.0
C274 C 0.77542 0.00734 0.53511 0.0
C275 C 0.79477 0.01135 0.56056 0.0
C276 C 0.79968 0.03114 0.58266 0.0
C277 C 0.78473 0.04674 0.5804 0.0
H278 H 0.45348 0.78877 0.07682 0.0
H279 H 0.51928 0.79781 0.07815 0.0
H280 H 0.52377 0.76479 0.02363 0.0
H281 H 0.45317 0.73367 0.09556 0.0
H282 H 0.43176 0.73047 0.0446 0.0
H283 H 0.43435 0.75373 0.08798 0.0
H284 H 0.43275 0.77488 0.98795 0.0
H285 H 0.4304 0.7517 0.9442 0.0
H286 H 0.45072 0.76954 0.92765 0.0
H287 H 0.52037 0.73037 0.96678 0.0
H288 H 0.50941 0.69902 0.91156 0.0
H289 H 0.44591 0.71524 0.9435 0.0
C290 C 0.46891 0.7837 0.06677 0.0
C291 C 0.48606 0.79572 0.08239 0.0
C292 C 0.50593 0.78872 0.06703 0.0
C293 C 0.50861 0.77002 0.03603 0.0
C294 C 0.49124 0.75873 0.02031 0.0
C295 C 0.47179 0.76543 0.03519 0.0
C296 C 0.45546 0.75132 0.01062 0.0
C297 C 0.44296 0.74173 0.0628 0.0
C298 C 0.44152 0.76254 0.96489 0.0
C299 C 0.46867 0.73558 0.97926 0.0
C300 C 0.48928 0.73986 0.98568 0.0
C301 C 0.50425 0.72697 0.9613 0.0
C302 C 0.49792 0.70925 0.92997 0.0
C303 C 0.47683 0.70486 0.92261 0.0
C304 C 0.46215 0.71832 0.94743 0.0
H305 H 0.71378 0.4785 0.55328 0.0
H306 H 0.71233 0.41513 0.61418 0.0
H307 H 0.7468 0.40977 0.57273 0.0
H308 H 0.73994 0.46944 0.41332 0.0
H309 H 0.75552 0.4922 0.41648 0.0
H310 H 0.73084 0.49181 0.45311 0.0
H311 H 0.74754 0.50202 0.55574 0.0
H312 H 0.77225 0.50269 0.51926 0.0
H313 H 0.76832 0.48685 0.58561 0.0
H314 H 0.77993 0.41015 0.52034 0.0
H315 H 0.81228 0.41715 0.46746 0.0
H316 H 0.79395 0.48058 0.44147 0.0
C317 C 0.72086 0.4636 0.55858 0.0
C318 C 0.7103 0.44722 0.5869 0.0
C319 C 0.72004 0.42791 0.5926 0.0
C320 C 0.73963 0.42467 0.5691 0.0
C321 C 0.74942 0.44091 0.54025 0.0
C322 C 0.74059 0.46008 0.53545 0.0
C323 C 0.75468 0.47474 0.50172 0.0
C324 C 0.74464 0.4825 0.44265 0.0
C325 C 0.76108 0.49263 0.54306 0.0
C326 C 0.77265 0.46069 0.48815 0.0
C327 C 0.7691 0.44124 0.51058 0.0
C328 C 0.78302 0.42535 0.50294 0.0
C329 C 0.80134 0.4295 0.4725 0.0
C330 C 0.80571 0.44943 0.45035 0.0
C331 C 0.79105 0.4652 0.45792 0.0
H332 H 0.95824 0.29901 0.88845 0.0
H333 H 0.02374 0.30881 0.90397 0.0
H334 H 0.02757 0.27431 0.94947 0.0
H335 H 0.95199 0.27582 0.02888 0.0
H336 H 0.93275 0.25778 0.00473 0.0
H337 H 0.93549 0.28183 0.96545 0.0
H338 H 0.94052 0.26283 0.86284 0.0
H339 H 0.93742 0.23868 0.90162 0.0
H340 H 0.96003 0.24341 0.85662 0.0
H341 H 0.02356 0.23973 0.00195 0.0
H342 H 0.01222 0.20782 0.05299 0.0
H343 H 0.94927 0.22198 0.0057 0.0
C344 C 0.9735 0.29372 0.89973 0.0
C345 C 0.99072 0.30655 0.89213 0.0
C346 C 0.01034 0.29917 0.90884 0.0
C347 C 0.01265 0.27962 0.93489 0.0
C348 C 0.9952 0.26768 0.94386 0.0
C349 C 0.97602 0.27441 0.92621 0.0
C350 C 0.95949 0.25939 0.94454 0.0
C351 C 0.94403 0.2693 0.98851 0.0
C352 C 0.94874 0.25055 0.88804 0.0
C353 C 0.97227 0.24332 0.9764 0.0
C354 C 0.99285 0.2482 0.97513 0.0
C355 C 0.00749 0.23571 0.0028 0.0
C356 C 0.00091 0.21767 0.03191 0.0
C357 C 0.97986 0.21245 0.03362 0.0
C358 C 0.96546 0.22555 0.00554 0.0
H359 H 0.29486 0.9846 0.55455 0.0
H360 H 0.29972 0.92315 0.62954 0.0
H361 H 0.26617 0.91447 0.58633 0.0
H362 H 0.2391 0.98982 0.57904 0.0
H363 H 0.23523 0.00373 0.50896 0.0
H364 H 0.25926 0.00574 0.54887 0.0
H365 H 0.2784 0.99444 0.45112 0.0
H366 H 0.25444 0.99213 0.41114 0.0
H367 H 0.27163 0.97057 0.41513 0.0
H368 H 0.23398 0.91117 0.52937 0.0
H369 H 0.20243 0.91442 0.46936 0.0
H370 H 0.2168 0.97822 0.43212 0.0
C371 C 0.28866 0.96947 0.56278 0.0
C372 C 0.29996 0.95455 0.59541 0.0
C373 C 0.29142 0.93484 0.60468 0.0
C374 C 0.27235 0.92972 0.58023 0.0
C375 C 0.26188 0.9445 0.54692 0.0
C376 C 0.26948 0.96406 0.53877 0.0
C377 C 0.25501 0.97682 0.49999 0.0
C378 C 0.24665 0.99511 0.5364 0.0
C379 C 0.2655 0.9839 0.44084 0.0
C380 C 0.23834 0.96121 0.48708 0.0
C381 C 0.24277 0.94268 0.51453 0.0
C382 C 0.23018 0.92565 0.50812 0.0
C383 C 0.21233 0.92765 0.47357 0.0
C384 C 0.20708 0.94658 0.44607 0.0
C385 C 0.22037 0.96357 0.4527 0.0
H386 H 0.543 0.20659 0.91111 0.0
H387 H 0.47802 0.19304 0.91634 0.0
H388 H 0.47156 0.22669 0.96491 0.0
H389 H 0.54545 0.22738 0.05542 0.0
H390 H 0.56427 0.24663 0.03719 0.0
H391 H 0.56338 0.22321 0.99417 0.0
H392 H 0.55942 0.24374 0.89363 0.0
H393 H 0.56069 0.26729 0.93622 0.0
H394 H 0.53919 0.2624 0.88682 0.0
H395 H 0.47289 0.26129 0.02005 0.0
H396 H 0.48197 0.29299 0.07637 0.0
H397 H 0.54624 0.28149 0.04019 0.0
C398 C 0.52732 0.21091 0.92062 0.0
C399 C 0.51097 0.19732 0.90912 0.0
C400 C 0.49075 0.20334 0.92409 0.0
C401 C 0.48695 0.2224 0.95181 0.0
C402 C 0.50357 0.23512 0.96457 0.0
C403 C 0.52335 0.22959 0.94915 0.0
C404 C 0.5388 0.24493 0.97234 0.0
C405 C 0.55385 0.23493 0.01745 0.0
C406 C 0.55019 0.2552 0.91908 0.0
C407 C 0.52473 0.25985 0.00414 0.0
C408 C 0.50443 0.2542 -0.00143 0.0
C409 C 0.48875 0.26584 0.02455 0.0
C410 C 0.49403 0.28375 0.05661 0.0
C411 C 0.5148 0.28954 0.06326 0.0
C412 C 0.53023 0.27733 0.03669 0.0
H413 H 0.27582 0.55775 0.44751 0.0
H414 H 0.29028 0.49387 0.41421 0.0
H415 H 0.25834 0.48365 0.4674 0.0
H416 H 0.25446 0.55035 0.59888 0.0
H417 H 0.23522 0.56982 0.58833 0.0
H418 H 0.25942 0.57183 0.54932 0.0
H419 H 0.2406 0.57431 0.44546 0.0
H420 H 0.2164 0.57256 0.48419 0.0
H421 H 0.22257 0.55463 0.42451 0.0
H422 H 0.22326 0.48095 0.51828 0.0
H423 H 0.18856 0.48601 0.56121 0.0
H424 H 0.19894 0.55163 0.56555 0.0
C425 C 0.2723 0.54159 0.45125 0.0
C426 C 0.28541 0.52659 0.42626 0.0
C427 C 0.28038 0.50561 0.43287 0.0
C428 C 0.26234 0.49968 0.46318 0.0
C429 C 0.24976 0.51493 0.48744 0.0
C430 C 0.25465 0.53544 0.48203 0.0
C431 C 0.23856 0.54895 0.5109 0.0
C432 C 0.24745 0.56094 0.56508 0.0
C433 C 0.22896 0.56345 0.46343 0.0
C434 C 0.22348 0.5329 0.53206 0.0
C435 C 0.23018 0.51334 0.51847 0.0
C436 C 0.21803 0.49618 0.52995 0.0
C437 C 0.19837 0.49919 0.55446 0.0
C438 C 0.19114 0.51919 0.56741 0.0
C439 C 0.20414 0.53612 0.55741 0.0
H440 H 0.06536 0.61465 0.91262 0.0
H441 H 0.00487 0.587 0.91199 0.0
H442 H 0.0164 0.56226 0.83408 0.0
H443 H 0.07588 0.6089 0.75091 0.0
H444 H 0.10255 0.60313 0.76322 0.0
H445 H 0.08904 0.61931 0.81613 0.0
H446 H 0.09956 0.59516 0.9046 0.0
H447 H 0.11283 0.57872 0.85186 0.0
H448 H 0.09315 0.56833 0.90054 0.0
H449 H 0.03479 0.53997 0.75909 0.0
H450 H 0.05828 0.52256 0.68801 0.0
H451 H 0.10704 0.56423 0.74014 0.0
C452 C 0.05439 0.60364 0.89541 0.0
C453 C 0.03416 0.60283 0.91813 0.0
C454 C 0.02041 0.58796 0.89504 0.0
C455 C 0.02684 0.57381 0.85098 0.0
C456 C 0.04705 0.57472 0.8308 0.0
C457 C 0.06058 0.58932 0.85194 0.0
C458 C 0.08162 0.58668 0.82405 0.0
C459 C 0.08762 0.60563 0.78632 0.0
C460 C 0.09773 0.58194 0.87321 0.0
C461 C 0.0778 0.56829 0.78378 0.0
C462 C 0.05776 0.56164 0.78837 0.0
C463 C 0.0505 0.54505 0.75501 0.0
C464 C 0.06398 0.53525 0.71487 0.0
C465 C 0.0845 0.54203 0.70864 0.0
C466 C 0.09152 0.55858 0.74433 0.0
H467 H 0.96029 0.10474 0.27668 0.0
H468 H 0.91937 0.15684 0.25799 0.0
H469 H 0.89536 0.14062 0.33069 0.0
H470 H 0.92221 0.06692 0.27896 0.0
H471 H 0.93487 0.05079 0.334 0.0
H472 H 0.94973 0.0672 0.28501 0.0
H473 H 0.96677 0.08415 0.37895 0.0
H474 H 0.9523 0.06749 0.42825 0.0
H475 H 0.95089 0.09487 0.4381 0.0
H476 H 0.87506 0.11772 0.40111 0.0
H477 H 0.86115 0.09124 0.46995 0.0
H478 H 0.91508 0.05377 0.43914 0.0
C479 C 0.94648 0.11301 0.28861 0.0
C480 C 0.94176 0.13215 0.26169 0.0
C481 C 0.9234 0.14225 0.27827 0.0
C482 C 0.90961 0.1331 0.31925 0.0
C483 C 0.91445 0.11388 0.34308 0.0
C484 C 0.93255 0.10406 0.32886 0.0
C485 C 0.93391 0.08324 0.35908 0.0
C486 C 0.93526 0.06603 0.3114 0.0
C487 C 0.95204 0.0824 0.40376 0.0
C488 C 0.91364 0.08276 0.39234 0.0
C489 C 0.90265 0.10057 0.3826 0.0
C490 C 0.88356 0.10375 0.40915 0.0
C491 C 0.87576 0.08857 0.44798 0.0
C492 C 0.88698 0.07038 0.4597 0.0
C493 C 0.906 0.06735 0.4305 0.0
H494 H 0.46956 0.91136 0.96042 0.0
H495 H 0.42326 0.86834 0.02256 0.0
H496 H 0.39772 0.88519 0.95696 0.0
H497 H 0.43722 0.95543 0.95242 0.0
H498 H 0.44874 0.96542 0.8839 0.0
H499 H 0.46367 0.94998 0.93548 0.0
H500 H 0.47255 0.92488 0.84783 0.0
H501 H 0.45794 0.94044 0.79582 0.0
H502 H 0.45215 0.91357 0.80393 0.0
H503 H 0.37689 0.9073 0.88774 0.0
H504 H 0.36313 0.93057 0.80916 0.0
H505 H 0.42308 0.95871 0.7904 0.0
C506 C 0.4541 0.90536 0.95986 0.0
C507 C 0.44842 0.88856 -0.00323 0.0
C508 C 0.42802 0.88117 0.99461 0.0
C509 C 0.41334 0.89072 0.95781 0.0
C510 C 0.41932 0.90754 0.92316 0.0
C511 C 0.43926 0.91462 0.92305 0.0
C512 C 0.44176 0.93264 0.88024 0.0
C513 C 0.44823 0.95201 0.91512 0.0
C514 C 0.45699 0.92757 0.82891 0.0
C515 C 0.42012 0.93452 0.85628 0.0
C516 C 0.40737 0.92006 0.88218 0.0
C517 C 0.38672 0.91868 0.86694 0.0
C518 C 0.37903 0.93205 0.82252 0.0
C519 C 0.39203 0.94644 0.79353 0.0
C520 C 0.41274 0.94791 0.81173 0.0
H521 H 0.53678 0.39998 0.30216 0.0
H522 H 0.57101 0.343 0.29467 0.0
H523 H 0.59547 0.35676 0.3703 0.0
H524 H 0.57863 0.43267 0.30785 0.0
H525 H 0.56738 0.45082 0.35992 0.0
H526 H 0.55122 0.43585 0.31069 0.0
H527 H 0.53108 0.42206 0.40386 0.0
H528 H 0.54686 0.43737 0.45341 0.0
H529 H 0.54477 0.41015 0.46583 0.0
H530 H 0.61808 0.37814 0.43758 0.0
H531 H 0.63497 0.40378 0.50261 0.0
H532 H 0.58564 0.44676 0.46623 0.0
C533 C 0.54915 0.39017 0.31741 0.0
C534 C 0.552 0.3704 0.29257 0.0
C535 C 0.56842 0.35811 0.31352 0.0
C536 C 0.58247 0.36586 0.35607 0.0
C537 C 0.57969 0.38578 0.37748 0.0
C538 C 0.56321 0.39762 0.35977 0.0
C539 C 0.56403 0.41877 0.38794 0.0
C540 C 0.5654 0.4355 0.33865 0.0
C541 C 0.54559 0.42228 0.43029 0.0
C542 C 0.58377 0.41713 0.42357 0.0
C543 C 0.59259 0.39802 0.41674 0.0
C544 C 0.61119 0.39306 0.44388 0.0
C545 C 0.62072 0.40783 0.48043 0.0
C546 C 0.61161 0.42732 0.48978 0.0
C547 C 0.59301 0.43204 0.46011 0.0
H548 H 0.09587 0.95285 0.19947 0.0
H549 H 0.14505 0.90836 0.21565 0.0
H550 H 0.12671 0.88548 0.1442 0.0
H551 H 0.05527 0.91714 0.19879 0.0
H552 H 0.03991 0.93118 0.14477 0.0
H553 H 0.05746 0.94462 0.19379 0.0
H554 H 0.07523 0.96094 0.09992 0.0
H555 H 0.05749 0.94788 0.05063 0.0
H556 H 0.08466 0.94463 0.03985 0.0
H557 H 0.10238 0.86722 0.07298 0.0
H558 H 0.07517 0.8559 0.00252 0.0
H559 H 0.04152 0.91201 0.03749 0.0
C560 C 0.10303 0.93845 0.18744 0.0
C561 C 0.12199 0.93245 0.21304 0.0
C562 C 0.13062 0.91335 0.19635 0.0
C563 C 0.12026 0.90021 0.15611 0.0
C564 C 0.10129 0.90639 0.13335 0.0
C565 C 0.09286 0.92514 0.14808 0.0
C566 C 0.07213 0.92809 0.11859 0.0
C567 C 0.0552 0.93038 0.16688 0.0
C568 C 0.0724 0.94647 0.07463 0.0
C569 C 0.07015 0.90805 0.08466 0.0
C570 C 0.08712 0.89573 0.09375 0.0
C571 C 0.08902 0.87672 0.06567 0.0
C572 C 0.07345 0.8704 0.02593 0.0
C573 C 0.05616 0.88301 0.01491 0.0
C574 C 0.05436 0.90188 0.04578 0.0
H575 H 0.56059 0.11571 0.72969 0.0
H576 H 0.51938 0.06625 0.77934 0.0
H577 H 0.53718 0.04325 0.70762 0.0
H578 H 0.56526 0.10257 0.56899 0.0
H579 H 0.59198 0.10939 0.56582 0.0
H580 H 0.57521 0.12214 0.61876 0.0
H581 H 0.59932 0.11185 0.70754 0.0
H582 H 0.61598 0.09878 0.65499 0.0
H583 H 0.60543 0.08521 0.71933 0.0
H584 H 0.55992 0.02539 0.6324 0.0
H585 H 0.58516 0.01444 0.55505 0.0
H586 H 0.6121 0.07527 0.55751 0.0
C587 C 0.55511 0.10014 0.72472 0.0
C588 C 0.53859 0.09277 0.75991 0.0
C589 C 0.53205 0.0722 0.75284 0.0
C590 C 0.54206 0.05901 0.71231 0.0
C591 C 0.55864 0.0666 0.67946 0.0
C592 C 0.56505 0.0867 0.68491 0.0
C593 C 0.58356 0.09087 0.64532 0.0
C594 C 0.5787 0.1072 0.59684 0.0
C595 C 0.60217 0.09704 0.68413 0.0
C596 C 0.58653 0.06997 0.61689 0.0
C597 C 0.572 0.05618 0.63708 0.0
C598 C 0.57142 0.03603 0.61625 0.0
C599 C 0.58585 0.02993 0.57254 0.0
C600 C 0.60068 0.04394 0.55049 0.0
C601 C 0.60114 0.0641 0.57389 0.0
H602 H 0.3924 0.54338 0.17822 0.0
H603 H 0.33957 0.58349 0.19137 0.0
H604 H 0.35481 0.60621 0.11322 0.0
H605 H 0.42884 0.58122 0.17012 0.0
H606 H 0.44538 0.56837 0.11663 0.0
H607 H 0.42915 0.55363 0.16633 0.0
H608 H 0.41273 0.5354 0.07362 0.0
H609 H 0.42927 0.54971 0.02347 0.0
H610 H 0.40192 0.5505 0.01275 0.0
H611 H 0.37791 0.62661 0.04404 0.0
H612 H 0.40515 0.64129 0.97965 0.0
H613 H 0.4429 0.58765 0.01309 0.0
C614 C 0.38373 0.55664 0.16355 0.0
C615 C 0.36477 0.56168 0.19081 0.0
C616 C 0.354 0.57924 0.17063 0.0
C617 C 0.36261 0.59229 0.12661 0.0
C618 C 0.38184 0.58738 0.10301 0.0
C619 C 0.39207 0.56975 0.11993 0.0
C620 C 0.41299 0.56846 0.09053 0.0
C621 C 0.43008 0.56789 0.1388 0.0
C622 C 0.4143 0.54992 0.04752 0.0
C623 C 0.4132 0.5884 0.05547 0.0
C624 C 0.39509 0.59907 0.06315 0.0
C625 C 0.39203 0.61826 0.03701 0.0
C626 C 0.40768 0.62652 0.00087 0.0
C627 C 0.42619 0.61561 0.99117 0.0
C628 C 0.42896 0.59638 0.01948 0.0
H629 H 0.94624 0.38961 0.71394 0.0
H630 H 0.98516 0.43992 0.77181 0.0
H631 H 0.96705 0.46315 0.70166 0.0
H632 H 0.94288 0.40462 0.55484 0.0
H633 H 0.91648 0.39691 0.54788 0.0
H634 H 0.93301 0.3841 0.60143 0.0
H635 H 0.90744 0.39243 0.68836 0.0
H636 H 0.89099 0.40552 0.63519 0.0
H637 H 0.90018 0.41868 0.702 0.0
H638 H 0.94454 0.4811 0.62679 0.0
H639 H 0.92008 0.49214 0.54748 0.0
H640 H 0.89537 0.43039 0.54013 0.0
C641 C 0.95111 0.40545 0.7113 0.0
C642 C 0.9671 0.41294 0.74834 0.0
C643 C 0.9729 0.43383 0.74398 0.0
C644 C 0.9627 0.44718 0.70436 0.0
C645 C 0.94671 0.43942 0.66952 0.0
C646 C 0.941 0.41904 0.67221 0.0
C647 C 0.92319 0.41472 0.63009 0.0
C648 C 0.92926 0.39917 0.58062 0.0
C649 C 0.90433 0.40741 0.66608 0.0
C650 C 0.91981 0.43584 0.60343 0.0
C651 C 0.93352 0.44988 0.6268 0.0
C652 C 0.93368 0.47028 0.60813 0.0
C653 C 0.91969 0.47642 0.56325 0.0
C654 C 0.90575 0.46218 0.5378 0.0
C655 C 0.90567 0.44173 0.55908 0.0
H656 H 0.9771 0.41818 0.0653 0.0
H657 H 0.94234 0.36248 0.03449 0.0
H658 H 0.916 0.37432 0.1068 0.0
H659 H 0.96403 0.42388 0.2293 0.0
H660 H 0.96241 0.45138 0.22332 0.0
H661 H 0.97963 0.43736 0.17457 0.0
H662 H 0.96249 0.45398 0.08015 0.0
H663 H 0.94491 0.46766 0.12846 0.0
H664 H 0.93528 0.45119 0.06913 0.0
H665 H 0.89188 0.39349 0.17406 0.0
H666 H 0.87319 0.41727 0.2414 0.0
H667 H 0.9234 0.46071 0.22785 0.0
C668 C 0.9643 0.40819 0.07537 0.0
C669 C 0.96182 0.38936 0.04465 0.0
C670 C 0.94457 0.37694 0.05776 0.0
C671 C 0.92949 0.38355 0.09857 0.0
C672 C 0.9319 0.4026 0.12599 0.0
C673 C 0.94899 0.41462 0.1158 0.0
C674 C 0.94731 0.43489 0.14897 0.0
C675 C 0.96435 0.43699 0.1969 0.0
C676 C 0.94751 0.45299 0.10397 0.0
C677 C 0.92651 0.43245 0.1786 0.0
C678 C 0.91788 0.41373 0.16471 0.0
C679 C 0.89855 0.40813 0.18582 0.0
C680 C 0.888 0.42182 0.22368 0.0
C681 C 0.89681 0.44087 0.24004 0.0
C682 C 0.9162 0.4463 0.21625 0.0
H683 H 0.06649 0.88001 0.69066 0.0
H684 H 0.02166 0.92731 0.73015 0.0
H685 H 0.03841 0.9503 0.6564 0.0
H686 H 0.10906 0.91306 0.67951 0.0
H687 H 0.12121 0.89957 0.61765 0.0
H688 H 0.10487 0.88595 0.66992 0.0
H689 H 0.08249 0.87317 0.58011 0.0
H690 H 0.09899 0.88646 0.52745 0.0
H691 H 0.07185 0.8915 0.52736 0.0
H692 H 0.06085 0.96884 0.58304 0.0
H693 H 0.08646 0.981 0.5086 0.0
H694 H 0.11712 0.92199 0.51817 0.0
C695 C 0.05997 0.89503 0.68273 0.0
C696 C 0.04278 0.90187 0.71594 0.0
C697 C 0.03487 0.92178 0.7052 0.0
C698 C 0.04427 0.93497 0.66349 0.0
C699 C 0.06158 0.92805 0.63294 0.0
C700 C 0.06927 0.90851 0.64147 0.0
C701 C 0.08846 0.90518 0.6041 0.0
C702 C 0.10699 0.90068 0.64527 0.0
C703 C 0.08525 0.88807 0.55695 0.0
C704 C 0.09037 0.92594 0.57374 0.0
C705 C 0.0747 0.93888 0.59097 0.0
C706 C 0.07318 0.95885 0.56892 0.0
C707 C 0.08785 0.96562 0.52691 0.0
C708 C 0.10383 0.95247 0.50762 0.0
C709 C 0.1052 0.93247 0.53219 0.0
H710 H 0.58778 0.04942 0.24581 0.0
H711 H 0.63743 0.09345 0.25919 0.0
H712 H 0.61889 0.11649 0.18833 0.0
H713 H 0.57668 0.05692 0.08767 0.0
H714 H 0.54947 0.05388 0.09801 0.0
H715 H 0.56701 0.0411 0.14863 0.0
H716 H 0.54911 0.05822 0.24098 0.0
H717 H 0.53173 0.07134 0.19056 0.0
H718 H 0.547 0.08574 0.24388 0.0
H719 H 0.59479 0.13436 0.11503 0.0
H720 H 0.56819 0.14486 0.04132 0.0
H721 H 0.53401 0.08942 0.08077 0.0
C722 C 0.59493 0.06383 0.2337 0.0
C723 C 0.61413 0.06961 0.25798 0.0
C724 C 0.62279 0.08866 0.24095 0.0
C725 C 0.61232 0.10188 0.20106 0.0
C726 C 0.5932 0.09582 0.17911 0.0
C727 C 0.58467 0.07719 0.19467 0.0
C728 C 0.56402 0.07411 0.16492 0.0
C729 C 0.56433 0.0554 0.12227 0.0
C730 C 0.54696 0.07225 0.21296 0.0
C731 C 0.56223 0.0939 0.12957 0.0
C732 C 0.57919 0.10625 0.1384 0.0
C733 C 0.5814 0.12488 0.10816 0.0
C734 C 0.56618 0.13073 0.06656 0.0
C735 C 0.54895 0.11804 0.05585 0.0
C736 C 0.54678 0.09964 0.08895 0.0
H737 H 0.40369 0.55104 0.51496 0.0
H738 H 0.35578 0.59525 0.47513 0.0
H739 H 0.37313 0.62068 0.5399 0.0
H740 H 0.40973 0.56489 0.67174 0.0
H741 H 0.43705 0.56094 0.67156 0.0
H742 H 0.42106 0.54657 0.62033 0.0
H743 H 0.44276 0.55956 0.52911 0.0
H744 H 0.45858 0.57428 0.58013 0.0
H745 H 0.44583 0.58673 0.51734 0.0
H746 H 0.3956 0.64137 0.60946 0.0
H747 H 0.41933 0.65416 0.68857 0.0
H748 H 0.45226 0.5964 0.68261 0.0
C749 C 0.3968 0.56603 0.51996 0.0
C750 C 0.3784 0.57112 0.4898 0.0
C751 C 0.36986 0.59093 0.49783 0.0
C752 C 0.37967 0.60557 0.53415 0.0
C753 C 0.39799 0.60018 0.56225 0.0
C754 C 0.40633 0.58082 0.55624 0.0
C755 C 0.42565 0.57862 0.59361 0.0
C756 C 0.42322 0.56176 0.6422 0.0
C757 C 0.4443 0.57456 0.55257 0.0
C758 C 0.4267 0.59969 0.62209 0.0
C759 C 0.41079 0.61202 0.60283 0.0
C760 C 0.4082 0.6319 0.62474 0.0
C761 C 0.42182 0.63909 0.66932 0.0
C762 C 0.43763 0.62629 0.69172 0.0
C763 C 0.44038 0.6066 0.66628 0.0
H764 H 0.87947 0.08187 0.7787 0.0
H765 H 0.91975 0.02942 0.75744 0.0
H766 H 0.94342 0.04399 0.83301 0.0
H767 H 0.91792 0.11881 0.78862 0.0
H768 H 0.90571 0.13441 0.84582 0.0
H769 H 0.8904 0.11907 0.79517 0.0
H770 H 0.87315 0.10113 0.88724 0.0
H771 H 0.88809 0.11674 0.93827 0.0
H772 H 0.88889 0.08922 0.94475 0.0
H773 H 0.96435 0.06538 0.90136 0.0
H774 H 0.97978 0.09084 0.96994 0.0
H775 H 0.92617 0.1297 0.94876 0.0
C776 C 0.89297 0.07323 0.79141 0.0
C777 C 0.89782 0.05456 0.76237 0.0
C778 C 0.91582 0.04381 0.77909 0.0
C779 C 0.92937 0.05195 0.82188 0.0
C780 C 0.92467 0.0708 0.84768 0.0
C781 C 0.90679 0.08119 0.83409 0.0
C782 C 0.90598 0.1016 0.86689 0.0
C783 C 0.90494 0.11952 0.82139 0.0
C784 C 0.88796 0.1022 0.91198 0.0
C785 C 0.92635 0.10113 0.8999 0.0
C786 C 0.93684 0.08322 0.888 0.0
C787 C 0.95621 0.07939 0.91176 0.0
C788 C 0.9649 0.09404 0.95032 0.0
C789 C 0.95419 0.11227 0.96489 0.0
C790 C 0.93477 0.11593 0.93852 0.0
H791 H 0.42113 0.9614 0.46073 0.0
H792 H 0.37758 0.91471 0.51709 0.0
H793 H 0.39537 0.88937 0.4537 0.0
H794 H 0.4252 0.94389 0.30404 0.0
H795 H 0.4521 0.94978 0.29849 0.0
H796 H 0.43595 0.96435 0.34892 0.0
H797 H 0.46015 0.95559 0.4389 0.0
H798 H 0.47615 0.94067 0.38889 0.0
H799 H 0.46549 0.92914 0.45651 0.0
H800 H 0.41827 0.86861 0.38791 0.0
H801 H 0.44212 0.85485 0.3111 0.0
H802 H 0.47033 0.91487 0.2941 0.0
C803 C 0.41522 0.94591 0.45926 0.0
C804 C 0.39799 0.9401 0.49422 0.0
C805 C 0.39075 0.91963 0.49086 0.0
C806 C 0.40082 0.90502 0.45527 0.0
C807 C 0.41804 0.91108 0.42275 0.0
C808 C 0.425 0.93108 0.42336 0.0
C809 C 0.44347 0.93359 0.3822 0.0
C810 C 0.4389 0.9488 0.33033 0.0
C811 C 0.46243 0.94013 0.41883 0.0
C812 C 0.44569 0.9119 0.35847 0.0
C813 C 0.43103 0.89912 0.38318 0.0
C814 C 0.42982 0.87845 0.36799 0.0
C815 C 0.44352 0.87074 0.32459 0.0
C816 C 0.45808 0.88376 0.29645 0.0
C817 C 0.45942 0.9045 0.31485 0.0
H818 H 0.54128 0.40615 0.96499 0.0
H819 H 0.58293 0.35672 0.01232 0.0
H820 H 0.60946 0.37201 0.94694 0.0
H821 H 0.55666 0.4097 0.80757 0.0
H822 H 0.55399 0.43717 0.8048 0.0
H823 H 0.53843 0.4224 0.85634 0.0
H824 H 0.55153 0.44447 0.94647 0.0
H825 H 0.56742 0.45906 0.89521 0.0
H826 H 0.57868 0.44643 0.96018 0.0
H827 H 0.63175 0.39281 0.87781 0.0
H828 H 0.64667 0.41545 0.7992 0.0
H829 H 0.59042 0.45096 0.7962 0.0
C830 C 0.55592 0.39848 0.96135 0.0
C831 C 0.56 0.38028 0.99398 0.0
C832 C 0.57938 0.37068 0.98775 0.0
C833 C 0.59465 0.37931 0.95105 0.0
C834 C 0.59029 0.39748 0.92063 0.0
C835 C 0.57132 0.40681 0.9246 0.0
C836 C 0.57037 0.42582 0.88524 0.0
C837 C 0.55389 0.42363 0.83554 0.0
C838 C 0.56679 0.44508 0.92412 0.0
C839 C 0.59171 0.42562 0.85838 0.0
C840 C 0.60305 0.4093 0.87994 0.0
C841 C 0.62305 0.40568 0.86056 0.0
C842 C 0.63144 0.41869 0.81622 0.0
C843 C 0.61972 0.43495 0.79154 0.0
C844 C 0.59981 0.4387 0.81424 0.0
H845 H 0.08048 0.53637 0.39126 0.0
H846 H 0.13605 0.57112 0.42343 0.0
H847 H 0.1245 0.59739 0.35001 0.0
H848 H 0.07505 0.54873 0.22802 0.0
H849 H 0.04757 0.55052 0.23343 0.0
H850 H 0.06141 0.53353 0.28339 0.0
H851 H 0.04477 0.55135 0.37662 0.0
H852 H 0.03123 0.56867 0.32704 0.0
H853 H 0.04763 0.57864 0.38603 0.0
H854 H 0.10566 0.62115 0.27835 0.0
H855 H 0.08194 0.63926 0.20873 0.0
H856 H 0.03842 0.58932 0.22715 0.0
C857 C 0.09049 0.54918 0.38145 0.0
C858 C 0.10924 0.55161 0.41252 0.0
C859 C 0.12166 0.56891 0.39977 0.0
C860 C 0.11521 0.58394 0.35832 0.0
C861 C 0.09627 0.5815 0.33019 0.0
C862 C 0.08418 0.56445 0.34076 0.0
C863 C 0.06401 0.56601 0.30719 0.0
C864 C 0.0619 0.54867 0.26021 0.0
C865 C 0.04585 0.56618 0.35191 0.0
C866 C 0.06661 0.58661 0.27648 0.0
C867 C 0.0853 0.59532 0.29011 0.0
C868 C 0.091 0.61443 0.26708 0.0
C869 C 0.07739 0.62466 0.22789 0.0
C870 C 0.0583 0.61577 0.21246 0.0
C871 C 0.05285 0.59662 0.238 0.0
H872 H 0.92348 0.54923 0.36871 0.0
H873 H 0.86966 0.54711 0.25382 0.0
H874 H 0.88199 0.57777 0.19799 0.0
H875 H 0.93071 0.60758 0.36576 0.0
H876 H 0.95811 0.60426 0.36423 0.0
H877 H 0.94227 0.58621 0.40488 0.0
H878 H 0.95821 0.55649 0.34251 0.0
H879 H 0.97391 0.57434 0.30177 0.0
H880 H 0.95715 0.55738 0.2604 0.0
H881 H 0.90436 0.60272 0.1398 0.0
H882 H 0.93383 0.61926 0.08779 0.0
H883 H 0.97239 0.60513 0.24226 0.0
C884 C 0.91389 0.55576 0.33341 0.0
C885 C 0.89565 0.54597 0.31551 0.0
C886 C 0.88356 0.55464 0.26867 0.0
C887 C 0.89048 0.57204 0.23678 0.0
C888 C 0.90921 0.58074 0.25346 0.0
C889 C 0.92052 0.57306 0.30172 0.0
C890 C 0.94139 0.58295 0.30563 0.0
C891 C 0.94321 0.59603 0.36356 0.0
C892 C 0.95865 0.56684 0.3023 0.0
C893 C 0.94078 0.59624 0.2493 0.0
C894 C 0.92195 0.5953 0.22046 0.0
C895 C 0.91889 0.60416 0.16309 0.0
C896 C 0.93563 0.61357 0.13388 0.0
C897 C 0.95504 0.6138 0.16215 0.0
C898 C 0.95742 0.60567 0.22105 0.0
H899 H 0.92112 0.98969 0.70171 0.0
H900 H 0.88247 0.94704 0.60392 0.0
H901 H 0.89596 0.91847 0.66817 0.0
H902 H 0.96418 0.95897 0.71886 0.0
H903 H 0.97004 0.96803 0.79444 0.0
H904 H 0.95642 0.98428 0.74223 0.0
H905 H 0.92719 0.98829 0.82133 0.0
H906 H 0.94062 0.97176 0.87362 0.0
H907 H 0.91475 0.96577 0.85133 0.0
H908 H 0.91754 0.89439 0.73752 0.0
H909 H 0.94357 0.87797 0.80381 0.0
H910 H 0.96444 0.938 0.86106 0.0
C911 C 0.91549 0.9743 0.69374 0.0
C912 C 0.90117 0.97033 0.64728 0.0
C913 C 0.89368 0.95021 0.63902 0.0
C914 C 0.90118 0.93401 0.67546 0.0
C915 C 0.91555 0.93848 0.72094 0.0
C916 C 0.9223 0.95829 0.73049 0.0
C917 C 0.93786 0.95947 0.78117 0.0
C918 C 0.95833 0.96819 0.75775 0.0
C919 C 0.9296 0.97207 0.83505 0.0
C920 C 0.93962 0.93708 0.79745 0.0
C921 C 0.92666 0.92508 0.76265 0.0
C922 C 0.92738 0.90371 0.76588 0.0
C923 C 0.94216 0.89449 0.80391 0.0
C924 C 0.95592 0.90666 0.83831 0.0
C925 C 0.95394 0.92818 0.83648 0.0
H926 H 0.54655 0.92974 0.10962 0.0
H927 H 0.55976 0.87334 0.20589 0.0
H928 H 0.5901 0.88962 0.25304 0.0
H929 H 0.60209 0.94857 0.09429 0.0
H930 H 0.59369 0.97454 0.10676 0.0
H931 H 0.57732 0.9567 0.06727 0.0
H932 H 0.54832 0.96422 0.14477 0.0
H933 H 0.56455 0.98177 0.18469 0.0
H934 H 0.55311 0.96059 0.22503 0.0
H935 H 0.61361 0.91453 0.30773 0.0
H936 H 0.62738 0.94498 0.36208 0.0
H937 H 0.59776 0.98464 0.23097 0.0
C938 C 0.55637 0.92054 0.13853 0.0
C939 C 0.55093 0.90032 0.15403 0.0
C940 C 0.56387 0.88879 0.19275 0.0
C941 C 0.58112 0.89796 0.21979 0.0
C942 C 0.58534 0.91847 0.20656 0.0
C943 C 0.57347 0.92947 0.16572 0.0
C944 C 0.57888 0.95196 0.16594 0.0
C945 C 0.58858 0.95831 0.10494 0.0
C946 C 0.56011 0.96539 0.18107 0.0
C947 C 0.59449 0.95226 0.21662 0.0
C948 C 0.59862 0.93279 0.23842 0.0
C949 C 0.61094 0.92975 0.28986 0.0
C950 C 0.6187 0.94705 0.32047 0.0
C951 C 0.61365 0.96694 0.29999 0.0
C952 C 0.602 0.96947 0.24664 0.0
H953 H 0.56143 0.50718 0.68831 0.0
H954 H 0.61587 0.54442 0.66463 0.0
H955 H 0.59819 0.57351 0.71538 0.0
H956 H 0.52395 0.54638 0.66443 0.0
H957 H 0.50703 0.5362 0.72187 0.0
H958 H 0.52395 0.51932 0.6811 0.0
H959 H 0.53888 0.50652 0.78393 0.0
H960 H 0.52223 0.52362 0.82498 0.0
H961 H 0.54952 0.52477 0.83677 0.0
H962 H 0.57338 0.59864 0.76972 0.0
H963 H 0.5444 0.61683 0.8192 0.0
H964 H 0.50833 0.56109 0.81094 0.0
C965 C 0.56965 0.52151 0.6928 0.0
C966 C 0.58996 0.52361 0.67183 0.0
C967 C 0.60021 0.54255 0.67987 0.0
C968 C 0.59032 0.55909 0.70887 0.0
C969 C 0.57034 0.55626 0.73012 0.0
C970 C 0.56023 0.53786 0.72228 0.0
C971 C 0.53914 0.53817 0.75032 0.0
C972 C 0.52254 0.53483 0.70152 0.0
C973 C 0.53735 0.52233 0.80207 0.0
C974 C 0.53872 0.55975 0.77475 0.0
C975 C 0.55674 0.57009 0.76284 0.0
C976 C 0.55928 0.59058 0.77957 0.0
C977 C 0.5428 0.60076 0.8079 0.0
C978 C 0.52415 0.59035 0.81941 0.0
C979 C 0.52241 0.56949 0.80352 0.0
H980 H 0.11174 0.46754 0.70126 0.0
H981 H 0.09629 0.43417 0.53752 0.0
H982 H 0.08529 0.40457 0.60024 0.0
H983 H 0.12402 0.42206 0.80637 0.0
H984 H 0.11095 0.43442 0.86867 0.0
H985 H 0.12431 0.44959 0.81255 0.0
H986 H 0.09111 0.4702 0.79187 0.0
H987 H 0.07774 0.45518 0.84749 0.0
H988 H 0.06811 0.4567 0.77061 0.0
H989 H 0.07022 0.38165 0.67931 0.0
H990 H 0.04772 0.37023 0.76276 0.0
H991 H 0.06922 0.42043 0.87491 0.0
C992 C 0.10716 0.4535 0.67882 0.0
C993 C 0.1056 0.45267 0.61477 0.0
C994 C 0.09819 0.43472 0.58654 0.0
C995 C 0.09198 0.41786 0.62191 0.0
C996 C 0.09286 0.41944 0.68541 0.0
C997 C 0.10014 0.43695 0.71361 0.0
C998 C 0.09514 0.43696 0.7811 0.0
C999 C 0.11478 0.43567 0.81943 0.0
C1000 C 0.08225 0.45586 0.79872 0.0
C1001 C 0.08286 0.41734 0.78594 0.0
C1002 C 0.08255 0.40697 0.73096 0.0
C1003 C 0.07067 0.38944 0.7228 0.0
C1004 C 0.05797 0.383 0.77073 0.0
C1005 C 0.05675 0.39445 0.82543 0.0
C1006 C 0.07007 0.41123 0.83394 0.0
H1007 H 0.02964 0.07638 0.13467 0.0
H1008 H 0.0571 0.13321 0.19583 0.0
H1009 H 0.08694 0.11365 0.23573 0.0
H1010 H 0.04114 0.04809 0.26083 0.0
H1011 H 0.04581 0.02453 0.2204 0.0
H1012 H 0.0288 0.04334 0.18873 0.0
H1013 H 0.05035 0.04437 0.08941 0.0
H1014 H 0.06741 0.02538 0.12068 0.0
H1015 H 0.07744 0.04946 0.09367 0.0
H1016 H 0.11208 0.08636 0.27898 0.0
H1017 H 0.12876 0.05503 0.32082 0.0
H1018 H 0.083 0.01759 0.23133 0.0
C1019 C 0.04209 0.08485 0.15535 0.0
C1020 C 0.04109 0.10628 0.16227 0.0
C1021 C 0.05768 0.11676 0.18971 0.0
C1022 C 0.07464 0.10577 0.21248 0.0
C1023 C 0.07476 0.08444 0.20659 0.0
C1024 C 0.05889 0.07422 0.17802 0.0
C1025 C 0.06138 0.0513 0.18139 0.0
C1026 C 0.04322 0.04124 0.21485 0.0
C1027 C 0.06433 0.0421 0.11748 0.0
C1028 C 0.08077 0.05001 0.21829 0.0
C1029 C 0.08863 0.06914 0.23177 0.0
C1030 C 0.10612 0.07134 0.26801 0.0
C1031 C 0.11549 0.05353 0.29156 0.0
C1032 C 0.10702 0.03399 0.27955 0.0
C1033 C 0.08973 0.03235 0.2416 0.0
H1034 H 0.42097 0.04902 0.63047 0.0
H1035 H 0.36949 0.03556 0.7482 0.0
H1036 H 0.37993 0.06357 0.81709 0.0
H1037 H 0.45583 0.05598 0.7358 0.0
H1038 H 0.46948 0.0771 0.70182 0.0
H1039 H 0.4552 0.05992 0.65443 0.0
H1040 H 0.43438 0.09032 0.61048 0.0
H1041 H 0.44883 0.10775 0.65747 0.0
H1042 H 0.42127 0.10752 0.66151 0.0
H1043 H 0.40184 0.08472 0.88663 0.0
H1044 H 0.4305 0.1011 0.94257 0.0
H1045 H 0.46537 0.1045 0.77539 0.0
C1046 C 0.41134 0.05271 0.66912 0.0
C1047 C 0.39438 0.0403 0.68393 0.0
C1048 C 0.38233 0.04516 0.73551 0.0
C1049 C 0.38822 0.06101 0.77505 0.0
C1050 C 0.40577 0.07226 0.76112 0.0
C1051 C 0.41674 0.06881 0.7081 0.0
C1052 C 0.43615 0.08147 0.70657 0.0
C1053 C 0.45527 0.0678 0.69929 0.0
C1054 C 0.43508 0.09773 0.65601 0.0
C1055 C 0.43527 0.09126 0.76903 0.0
C1056 C 0.41757 0.08592 0.79985 0.0
C1057 C 0.41525 0.08991 0.86211 0.0
C1058 C 0.43154 0.0992 0.89362 0.0
C1059 C 0.44959 0.1048 0.8624 0.0
C1060 C 0.45118 0.10134 0.79923 0.0
H1061 H 0.47919 0.43463 0.17462 0.0
H1062 H 0.44351 0.37857 0.1763 0.0
H1063 H 0.41478 0.39727 0.22532 0.0
H1064 H 0.46461 0.45158 0.31951 0.0
H1065 H 0.46425 0.47832 0.29895 0.0
H1066 H 0.48094 0.4609 0.25931 0.0
H1067 H 0.46487 0.47152 0.15585 0.0
H1068 H 0.44837 0.48924 0.19504 0.0
H1069 H 0.43752 0.46997 0.14595 0.0
H1070 H 0.39021 0.42297 0.278 0.0
H1071 H 0.37262 0.45266 0.32583 0.0
H1072 H 0.42641 0.49004 0.29267 0.0
C1073 C 0.46525 0.42624 0.18423 0.0
C1074 C 0.46355 0.40515 0.17121 0.0
C1075 C 0.44508 0.39479 0.18539 0.0
C1076 C 0.42874 0.40527 0.21346 0.0
C1077 C 0.43122 0.42602 0.22716 0.0
C1078 C 0.44906 0.43632 0.2126 0.0
C1079 C 0.44857 0.45828 0.23386 0.0
C1080 C 0.4656 0.4625 0.28069 0.0
C1081 C 0.4499 0.47312 0.17943 0.0
C1082 C 0.42769 0.45885 0.26315 0.0
C1083 C 0.41772 0.44024 0.25871 0.0
C1084 C 0.39796 0.43756 0.28179 0.0
C1085 C 0.38812 0.45445 0.30911 0.0
C1086 C 0.39821 0.47361 0.31358 0.0
C1087 C 0.41831 0.47558 0.29082 0.0
loop_
_geom_bond_atom_site_label_1
_geom_bond_atom_site_label_2
_geom_bond_distance
_geom_bond_site_symmetry_2
_ccdc_geom_bond_type
O0 Cd1 2.223 . S
O0 C8 1.315 . S
Cd1 O0 2.223 . S
Cd1 O4 2.297 . S
Cd1 O5 2.439 . S
Cd1 O11 2.240 . S
Cd2 O3 2.240 . S
Cd2 O10 2.223 . S
Cd2 O12 2.297 1_455 S
Cd2 O13 2.439 1_455 S
O3 Cd2 2.240 . S
O3 C8 1.279 . S
O4 Cd1 2.297 . S
O4 C6 1.247 . S
O5 Cd1 2.439 . S
O5 C6 1.208 . S
C6 O4 1.247 . S
C6 O5 1.208 . S
C7 O12 1.247 . S
C7 O13 1.208 . S
C8 O0 1.315 . S
C8 O3 1.279 . S
C9 O10 1.315 . S
C9 O11 1.279 . S
O10 Cd2 2.223 . S
O10 C9 1.315 . S
O11 Cd1 2.240 . S
O11 C9 1.279 . S
O12 Cd2 2.297 1_655 S
O12 C7 1.247 . S
O13 Cd2 2.439 1_655 S
O13 C7 1.208 . S
O14 Cd15 2.223 . S
O14 C22 1.315 . S
Cd15 O14 2.223 . S
Cd15 O18 2.297 . S
Cd15 O19 2.439 . S
Cd15 O25 2.240 . S
Cd16 O17 2.240 . S
Cd16 O24 2.223 . S
Cd16 O26 2.297 1_545 S
Cd16 O27 2.439 1_545 S
O17 Cd16 2.240 . S
O17 C22 1.279 . S
O18 Cd15 2.297 . S
O18 C20 1.247 . S
O19 Cd15 2.439 . S
O19 C20 1.208 . S
C20 O18 1.247 . S
C20 O19 1.208 . S
C21 O26 1.247 . S
C21 O27 1.208 . S
C22 O14 1.315 . S
C22 O17 1.279 . S
C23 O24 1.315 . S
C23 O25 1.279 . S
O24 Cd16 2.223 . S
O24 C23 1.315 . S
O25 Cd15 2.240 . S
O25 C23 1.279 . S
O26 Cd16 2.297 1_565 S
O26 C21 1.247 . S
O27 Cd16 2.439 1_565 S
O27 C21 1.208 . S
O28 Cd29 2.223 . S
O28 C36 1.315 . S
Cd29 O28 2.223 . S
Cd29 O32 2.297 . S
Cd29 O33 2.439 . S
Cd29 O39 2.240 . S
Cd30 O31 2.240 . S
Cd30 O38 2.223 . S
Cd30 O40 2.297 . S
Cd30 O41 2.439 . S
O31 Cd30 2.240 . S
O31 C36 1.279 . S
O32 Cd29 2.297 . S
O32 C34 1.247 . S
O33 Cd29 2.439 . S
O33 C34 1.208 . S
C34 O32 1.247 . S
C34 O33 1.208 . S
C35 O40 1.247 . S
C35 O41 1.208 . S
C36 O28 1.315 . S
C36 O31 1.279 . S
C37 O38 1.315 . S
C37 O39 1.279 . S
O38 Cd30 2.223 . S
O38 C37 1.315 . S
O39 Cd29 2.240 . S
O39 C37 1.279 . S
O40 Cd30 2.297 . S
O40 C35 1.247 . S
O41 Cd30 2.439 . S
O41 C35 1.208 . S
O42 Cd43 2.223 . S
O42 C50 1.315 . S
Cd43 O42 2.223 . S
Cd43 O46 2.297 . S
Cd43 O47 2.439 . S
Cd43 O53 2.240 . S
Cd44 O45 2.240 . S
Cd44 O52 2.223 . S
Cd44 O54 2.297 . S
Cd44 O55 2.439 . S
O45 Cd44 2.240 . S
O45 C50 1.279 . S
O46 Cd43 2.297 . S
O46 C48 1.247 . S
O47 Cd43 2.439 . S
O47 C48 1.208 . S
C48 O46 1.247 . S
C48 O47 1.208 . S
C49 O54 1.247 . S
C49 O55 1.208 . S
C50 O42 1.315 . S
C50 O45 1.279 . S
C51 O52 1.315 . S
C51 O53 1.279 . S
O52 Cd44 2.223 . S
O52 C51 1.315 . S
O53 Cd43 2.240 . S
O53 C51 1.279 . S
O54 Cd44 2.297 . S
O54 C49 1.247 . S
O55 Cd44 2.439 . S
O55 C49 1.208 . S
O56 Cd57 2.223 . S
O56 C64 1.315 . S
Cd57 O56 2.223 . S
Cd57 O60 2.297 . S
Cd57 O61 2.439 . S
Cd57 O67 2.240 . S
Cd58 O59 2.240 . S
Cd58 O66 2.223 . S
Cd58 O68 2.297 1_455 S
Cd58 O69 2.439 1_455 S
O59 Cd58 2.240 . S
O59 C64 1.279 . S
O60 Cd57 2.297 . S
O60 C62 1.247 . S
O61 Cd57 2.439 . S
O61 C62 1.208 . S
C62 O60 1.247 . S
C62 O61 1.208 . S
C63 O68 1.247 . S
C63 O69 1.208 . S
C64 O56 1.315 . S
C64 O59 1.279 . S
C65 O66 1.315 . S
C65 O67 1.279 . S
O66 Cd58 2.223 . S
O66 C65 1.315 . S
O67 Cd57 2.240 . S
O67 C65 1.279 . S
O68 Cd58 2.297 1_655 S
O68 C63 1.247 . S
O69 Cd58 2.439 1_655 S
O69 C63 1.208 . S
O70 Cd71 2.223 . S
O70 C78 1.315 . S
Cd71 O70 2.223 . S
Cd71 O74 2.297 . S
Cd71 O75 2.439 . S
Cd71 O81 2.240 . S
Cd72 O73 2.240 . S
Cd72 O80 2.223 . S
Cd72 O82 2.297 1_545 S
Cd72 O83 2.439 1_545 S
O73 Cd72 2.240 . S
O73 C78 1.279 . S
O74 Cd71 2.297 . S
O74 C76 1.247 . S
O75 Cd71 2.439 . S
O75 C76 1.208 . S
C76 O74 1.247 . S
C76 O75 1.208 . S
C77 O82 1.247 . S
C77 O83 1.208 . S
C78 O70 1.315 . S
C78 O73 1.279 . S
C79 O80 1.315 . S
C79 O81 1.279 . S
O80 Cd72 2.223 . S
O80 C79 1.315 . S
O81 Cd71 2.240 . S
O81 C79 1.279 . S
O82 Cd72 2.297 1_565 S
O82 C77 1.247 . S
O83 Cd72 2.439 1_565 S
O83 C77 1.208 . S
O84 Cd85 2.223 . S
O84 C92 1.315 . S
Cd85 O84 2.223 . S
Cd85 O88 2.297 . S
Cd85 O89 2.439 . S
Cd85 O95 2.240 . S
Cd86 O87 2.240 . S
Cd86 O94 2.223 . S
Cd86 O96 2.297 . S
Cd86 O97 2.439 . S
O87 Cd86 2.240 . S
O87 C92 1.279 . S
O88 Cd85 2.297 . S
O88 C90 1.247 . S
O89 Cd85 2.439 . S
O89 C90 1.208 . S
C90 O88 1.247 . S
C90 O89 1.208 . S
C91 O96 1.247 . S
C91 O97 1.208 . S
C92 O84 1.315 . S
C92 O87 1.279 . S
C93 O94 1.315 . S
C93 O95 1.279 . S
O94 Cd86 2.223 . S
O94 C93 1.315 . S
O95 Cd85 2.240 . S
O95 C93 1.279 . S
O96 Cd86 2.297 . S
O96 C91 1.247 . S
O97 Cd86 2.439 . S
O97 C91 1.208 . S
O98 Cd99 2.223 . S
O98 C106 1.315 . S
Cd99 O98 2.223 . S
Cd99 O102 2.297 . S
Cd99 O103 2.439 . S
Cd99 O109 2.240 . S
Cd100 O101 2.240 . S
Cd100 O108 2.223 . S
Cd100 O110 2.297 . S
Cd100 O111 2.439 . S
O101 Cd100 2.240 . S
O101 C106 1.279 . S
O102 Cd99 2.297 . S
O102 C104 1.247 . S
O103 Cd99 2.439 . S
O103 C104 1.208 . S
C104 O102 1.247 . S
C104 O103 1.208 . S
C105 O110 1.247 . S
C105 O111 1.208 . S
C106 O98 1.315 . S
C106 O101 1.279 . S
C107 O108 1.315 . S
C107 O109 1.279 . S
O108 Cd100 2.223 . S
O108 C107 1.315 . S
O109 Cd99 2.240 . S
O109 C107 1.279 . S
O110 Cd100 2.297 . S
O110 C105 1.247 . S
O111 Cd100 2.439 . S
O111 C105 1.208 . S
O112 Cd113 2.223 . S
O112 C120 1.315 . S
Cd113 O112 2.223 . S
Cd113 O116 2.297 . S
Cd113 O117 2.439 . S
Cd113 O123 2.240 . S
Cd114 O115 2.240 . S
Cd114 O122 2.223 . S
Cd114 O124 2.297 1_655 S
Cd114 O125 2.439 1_655 S
O115 Cd114 2.240 . S
O115 C120 1.279 . S
O116 Cd113 2.297 . S
O116 C118 1.247 . S
O117 Cd113 2.439 . S
O117 C118 1.208 . S
C118 O116 1.247 . S
C118 O117 1.208 . S
C119 O124 1.247 . S
C119 O125 1.208 . S
C120 O112 1.315 . S
C120 O115 1.279 . S
C121 O122 1.315 . S
C121 O123 1.279 . S
O122 Cd114 2.223 . S
O122 C121 1.315 . S
O123 Cd113 2.240 . S
O123 C121 1.279 . S
O124 Cd114 2.297 1_455 S
O124 C119 1.247 . S
O125 Cd114 2.439 1_455 S
O125 C119 1.208 . S
O126 Cd127 2.223 . S
O126 C134 1.315 . S
Cd127 O126 2.223 . S
Cd127 O130 2.297 . S
Cd127 O131 2.439 . S
Cd127 O137 2.240 . S
Cd128 O129 2.240 . S
Cd128 O136 2.223 . S
Cd128 O138 2.297 1_565 S
Cd128 O139 2.439 1_565 S
O129 Cd128 2.240 . S
O129 C134 1.279 . S
O130 Cd127 2.297 . S
O130 C132 1.247 . S
O131 Cd127 2.439 . S
O131 C132 1.208 . S
C132 O130 1.247 . S
C132 O131 1.208 . S
C133 O138 1.247 . S
C133 O139 1.208 . S
C134 O126 1.315 . S
C134 O129 1.279 . S
C135 O136 1.315 . S
C135 O137 1.279 . S
O136 Cd128 2.223 . S
O136 C135 1.315 . S
O137 Cd127 2.240 . S
O137 C135 1.279 . S
O138 Cd128 2.297 1_545 S
O138 C133 1.247 . S
O139 Cd128 2.439 1_545 S
O139 C133 1.208 . S
O140 Cd141 2.223 . S
O140 C148 1.315 . S
Cd141 O140 2.223 . S
Cd141 O144 2.297 . S
Cd141 O145 2.439 . S
Cd141 O151 2.240 . S
Cd142 O143 2.240 . S
Cd142 O150 2.223 . S
Cd142 O152 2.297 . S
Cd142 O153 2.439 . S
O143 Cd142 2.240 . S
O143 C148 1.279 . S
O144 Cd141 2.297 . S
O144 C146 1.247 . S
O145 Cd141 2.439 . S
O145 C146 1.208 . S
C146 O144 1.247 . S
C146 O145 1.208 . S
C147 O152 1.247 . S
C147 O153 1.208 . S
C148 O140 1.315 . S
C148 O143 1.279 . S
C149 O150 1.315 . S
C149 O151 1.279 . S
O150 Cd142 2.223 . S
O150 C149 1.315 . S
O151 Cd141 2.240 . S
O151 C149 1.279 . S
O152 Cd142 2.297 . S
O152 C147 1.247 . S
O153 Cd142 2.439 . S
O153 C147 1.208 . S
O154 Cd155 2.223 . S
O154 C162 1.315 . S
Cd155 O154 2.223 . S
Cd155 O158 2.297 . S
Cd155 O159 2.439 . S
Cd155 O165 2.240 . S
Cd156 O157 2.240 . S
Cd156 O164 2.223 . S
Cd156 O166 2.297 . S
Cd156 O167 2.439 . S
O157 Cd156 2.240 . S
O157 C162 1.279 . S
O158 Cd155 2.297 . S
O158 C160 1.247 . S
O159 Cd155 2.439 . S
O159 C160 1.208 . S
C160 O158 1.247 . S
C160 O159 1.208 . S
C161 O166 1.247 . S
C161 O167 1.208 . S
C162 O154 1.315 . S
C162 O157 1.279 . S
C163 O164 1.315 . S
C163 O165 1.279 . S
O164 Cd156 2.223 . S
O164 C163 1.315 . S
O165 Cd155 2.240 . S
O165 C163 1.279 . S
O166 Cd156 2.297 . S
O166 C161 1.247 . S
O167 Cd156 2.439 . S
O167 C161 1.208 . S
O168 Cd169 2.223 . S
O168 C176 1.315 . S
Cd169 O168 2.223 . S
Cd169 O172 2.297 . S
Cd169 O173 2.439 . S
Cd169 O179 2.240 . S
Cd170 O171 2.240 . S
Cd170 O178 2.223 . S
Cd170 O180 2.297 1_655 S
Cd170 O181 2.439 1_655 S
O171 Cd170 2.240 . S
O171 C176 1.279 . S
O172 Cd169 2.297 . S
O172 C174 1.247 . S
O173 Cd169 2.439 . S
O173 C174 1.208 . S
C174 O172 1.247 . S
C174 O173 1.208 . S
C175 O180 1.247 . S
C175 O181 1.208 . S
C176 O168 1.315 . S
C176 O171 1.279 . S
C177 O178 1.315 . S
C177 O179 1.279 . S
O178 Cd170 2.223 . S
O178 C177 1.315 . S
O179 Cd169 2.240 . S
O179 C177 1.279 . S
O180 Cd170 2.297 1_455 S
O180 C175 1.247 . S
O181 Cd170 2.439 1_455 S
O181 C175 1.208 . S
O182 Cd183 2.223 . S
O182 C190 1.315 . S
Cd183 O182 2.223 . S
Cd183 O186 2.297 . S
Cd183 O187 2.439 . S
Cd183 O193 2.240 . S
Cd184 O185 2.240 . S
Cd184 O192 2.223 . S
Cd184 O194 2.297 1_565 S
Cd184 O195 2.439 1_565 S
O185 Cd184 2.240 . S
O185 C190 1.279 . S
O186 Cd183 2.297 . S
O186 C188 1.247 . S
O187 Cd183 2.439 . S
O187 C188 1.208 . S
C188 O186 1.247 . S
C188 O187 1.208 . S
C189 O194 1.247 . S
C189 O195 1.208 . S
C190 O182 1.315 . S
C190 O185 1.279 . S
C191 O192 1.315 . S
C191 O193 1.279 . S
O192 Cd184 2.223 . S
O192 C191 1.315 . S
O193 Cd183 2.240 . S
O193 C191 1.279 . S
O194 Cd184 2.297 1_545 S
O194 C189 1.247 . S
O195 Cd184 2.439 1_545 S
O195 C189 1.208 . S
O196 Cd197 2.223 . S
O196 C204 1.315 . S
Cd197 O196 2.223 . S
Cd197 O200 2.297 . S
Cd197 O201 2.439 . S
Cd197 O207 2.240 . S
Cd198 O199 2.240 . S
Cd198 O206 2.223 . S
Cd198 O208 2.297 . S
Cd198 O209 2.439 . S
O199 Cd198 2.240 . S
O199 C204 1.279 . S
O200 Cd197 2.297 . S
O200 C202 1.247 . S
O201 Cd197 2.439 . S
O201 C202 1.208 . S
C202 O200 1.247 . S
C202 O201 1.208 . S
C203 O208 1.247 . S
C203 O209 1.208 . S
C204 O196 1.315 . S
C204 O199 1.279 . S
C205 O206 1.315 . S
C205 O207 1.279 . S
O206 Cd198 2.223 . S
O206 C205 1.315 . S
O207 Cd197 2.240 . S
O207 C205 1.279 . S
O208 Cd198 2.297 . S
O208 C203 1.247 . S
O209 Cd198 2.439 . S
O209 C203 1.208 . S
O210 Cd211 2.223 . S
O210 C218 1.315 . S
Cd211 O210 2.223 . S
Cd211 O214 2.297 . S
Cd211 O215 2.439 . S
Cd211 O221 2.240 . S
Cd212 O213 2.240 . S
Cd212 O220 2.223 . S
Cd212 O222 2.297 . S
Cd212 O223 2.439 . S
O213 Cd212 2.240 . S
O213 C218 1.279 . S
O214 Cd211 2.297 . S
O214 C216 1.247 . S
O215 Cd211 2.439 . S
O215 C216 1.208 . S
C216 O214 1.247 . S
C216 O215 1.208 . S
C217 O222 1.247 . S
C217 O223 1.208 . S
C218 O210 1.315 . S
C218 O213 1.279 . S
C219 O220 1.315 . S
C219 O221 1.279 . S
O220 Cd212 2.223 . S
O220 C219 1.315 . S
O221 Cd211 2.240 . S
O221 C219 1.279 . S
O222 Cd212 2.297 . S
O222 C217 1.247 . S
O223 Cd212 2.439 . S
O223 C217 1.208 . S
H224 C236 0.915 1_556 S
H225 C238 0.930 . S
H226 C239 0.930 . S
H227 C243 0.959 . S
H228 C243 0.959 . S
H229 C243 0.961 . S
H230 C244 0.960 . S
H231 C244 0.961 . S
H232 C244 0.959 . S
H233 C247 0.929 . S
H234 C248 0.931 . S
H235 C250 0.930 . S
C236 H224 0.915 1_554 S
C236 C237 1.417 . S
C236 C241 1.396 1_554 S
C237 C236 1.417 . S
C237 C238 1.376 . S
C238 H225 0.930 . S
C238 C237 1.376 . S
C238 C239 1.388 . S
C239 H226 0.930 . S
C239 C238 1.388 . S
C239 C240 1.390 . S
C240 C239 1.390 . S
C240 C241 1.394 1_554 S
C240 C246 1.465 . S
C241 C236 1.396 1_556 S
C241 C240 1.394 1_556 S
C241 C242 1.516 . S
C242 C241 1.516 . S
C242 C243 1.502 . S
C242 C244 1.561 1_455 S
C242 C245 1.526 . S
C243 H227 0.959 . S
C243 H228 0.959 . S
C243 H229 0.961 . S
C243 C242 1.502 . S
C244 H230 0.960 . S
C244 H231 0.961 . S
C244 H232 0.959 . S
C244 C242 1.561 1_655 S
C245 C242 1.526 . S
C245 C246 1.396 1_556 S
C245 C250 1.390 . S
C246 C240 1.465 . S
C246 C245 1.396 1_554 S
C246 C247 1.399 . S
C247 H233 0.929 . S
C247 C246 1.399 . S
C247 C248 1.385 . S
C248 H234 0.931 . S
C248 C247 1.385 . S
C248 C249 1.389 1_554 S
C249 C248 1.389 1_556 S
C249 C250 1.387 . S
C250 H235 0.930 . S
C250 C245 1.390 . S
C250 C249 1.387 . S
H251 C263 0.930 . S
H252 C265 0.930 . S
H253 C266 0.930 . S
H254 C270 0.959 . S
H255 C270 0.959 . S
H256 C270 0.961 . S
H257 C271 0.960 . S
H258 C271 0.961 . S
H259 C271 0.959 . S
H260 C274 0.929 . S
H261 C275 0.931 . S
H262 C277 0.930 . S
C263 H251 0.930 . S
C263 C264 1.399 . S
C263 C268 1.399 . S
C264 C263 1.399 . S
C264 C265 1.376 1_545 S
C265 H252 0.930 . S
C265 C264 1.376 1_565 S
C265 C266 1.388 . S
C266 H253 0.930 . S
C266 C265 1.388 . S
C266 C267 1.390 1_565 S
C267 C266 1.390 1_545 S
C267 C268 1.394 . S
C267 C273 1.465 . S
C268 C263 1.399 . S
C268 C267 1.394 . S
C268 C269 1.516 . S
C269 C268 1.516 . S
C269 C270 1.502 . S
C269 C271 1.561 . S
C269 C272 1.526 . S
C270 H254 0.959 . S
C270 H255 0.959 . S
C270 H256 0.961 . S
C270 C269 1.502 . S
C271 H257 0.960 . S
C271 H258 0.961 . S
C271 H259 0.959 . S
C271 C269 1.561 . S
C272 C269 1.526 . S
C272 C273 1.396 . S
C272 C277 1.390 . S
C273 C267 1.465 . S
C273 C272 1.396 . S
C273 C274 1.399 1_545 S
C274 H260 0.929 . S
C274 C273 1.399 1_565 S
C274 C275 1.385 . S
C275 H261 0.931 . S
C275 C274 1.385 . S
C275 C276 1.389 1_565 S
C276 C275 1.389 1_545 S
C276 C277 1.387 . S
C277 H262 0.930 . S
C277 C272 1.390 . S
C277 C276 1.387 . S
H278 C290 0.930 . S
H279 C292 0.930 . S
H280 C293 0.930 . S
H281 C297 0.959 . S
H282 C297 0.959 . S
H283 C297 0.961 . S
H284 C298 0.960 . S
H285 C298 0.961 . S
H286 C298 0.959 . S
H287 C301 0.929 . S
H288 C302 0.931 . S
H289 C304 0.930 1_554 S
C290 H278 0.930 . S
C290 C291 1.399 . S
C290 C295 1.399 . S
C291 C290 1.399 . S
C291 C292 1.376 1_554 S
C292 H279 0.930 . S
C292 C291 1.376 1_556 S
C292 C293 1.388 . S
C293 H280 0.930 . S
C293 C292 1.388 . S
C293 C294 1.390 . S
C294 C293 1.390 . S
C294 C295 1.394 1_556 S
C294 C300 1.465 . S
C295 C290 1.399 . S
C295 C294 1.394 1_554 S
C295 C296 1.516 . S
C296 C295 1.516 . S
C296 C297 1.502 . S
C296 C298 1.561 . S
C296 C299 1.526 . S
C297 H281 0.959 . S
C297 H282 0.959 . S
C297 H283 0.961 . S
C297 C296 1.502 . S
C298 H284 0.960 . S
C298 H285 0.961 . S
C298 H286 0.959 . S
C298 C296 1.561 . S
C299 C296 1.526 . S
C299 C300 1.396 1_554 S
C299 C304 1.390 1_554 S
C300 C294 1.465 . S
C300 C299 1.396 1_556 S
C300 C301 1.399 . S
C301 H287 0.929 . S
C301 C300 1.399 . S
C301 C302 1.385 . S
C302 H288 0.931 . S
C302 C301 1.385 . S
C302 C303 1.389 . S
C303 C302 1.389 . S
C303 C304 1.387 . S
C304 H289 0.930 1_556 S
C304 C299 1.390 1_556 S
C304 C303 1.387 . S
H305 C317 0.930 . S
H306 C319 0.930 . S
H307 C320 0.930 . S
H308 C324 0.959 . S
H309 C324 0.959 . S
H310 C324 0.961 . S
H311 C325 0.960 . S
H312 C325 0.961 . S
H313 C325 0.959 . S
H314 C328 0.929 . S
H315 C329 0.931 . S
H316 C331 0.930 . S
C317 H305 0.930 . S
C317 C318 1.399 . S
C317 C322 1.399 . S
C318 C317 1.399 . S
C318 C319 1.376 . S
C319 H306 0.930 . S
C319 C318 1.376 . S
C319 C320 1.388 . S
C320 H307 0.930 . S
C320 C319 1.388 . S
C320 C321 1.390 . S
C321 C320 1.390 . S
C321 C322 1.394 . S
C321 C327 1.465 . S
C322 C317 1.399 . S
C322 C321 1.394 . S
C322 C323 1.516 . S
C323 C322 1.516 . S
C323 C324 1.502 . S
C323 C325 1.561 . S
C323 C326 1.526 . S
C324 H308 0.959 . S
C324 H309 0.959 . S
C324 H310 0.961 . S
C324 C323 1.502 . S
C325 H311 0.960 . S
C325 H312 0.961 . S
C325 H313 0.959 . S
C325 C323 1.561 . S
C326 C323 1.526 . S
C326 C327 1.396 . S
C326 C331 1.390 . S
C327 C321 1.465 . S
C327 C326 1.396 . S
C327 C328 1.399 . S
C328 H314 0.929 . S
C328 C327 1.399 . S
C328 C329 1.385 . S
C329 H315 0.931 . S
C329 C328 1.385 . S
C329 C330 1.389 . S
C330 C329 1.389 . S
C330 C331 1.387 . S
C331 H316 0.930 . S
C331 C326 1.390 . S
C331 C330 1.387 . S
H332 C344 0.930 . S
H333 C346 0.930 . S
H334 C347 0.930 . S
H335 C351 0.959 . S
H336 C351 0.959 . S
H337 C351 0.961 . S
H338 C352 0.960 . S
H339 C352 0.963 . S
H340 C352 0.959 . S
H341 C355 0.929 . S
H342 C356 0.931 . S
H343 C358 0.930 1_556 S
C344 H332 0.930 . S
C344 C345 1.399 . S
C344 C349 1.399 . S
C345 C344 1.399 . S
C345 C346 1.376 1_556 S
C346 H333 0.930 . S
C346 C345 1.376 1_554 S
C346 C347 1.388 . S
C347 H334 0.930 . S
C347 C346 1.388 . S
C347 C348 1.390 . S
C348 C347 1.390 . S
C348 C349 1.394 1_554 S
C348 C354 1.465 . S
C349 C344 1.399 . S
C349 C348 1.394 1_556 S
C349 C350 1.516 . S
C350 C349 1.516 . S
C350 C351 1.502 . S
C350 C352 1.561 1_655 S
C350 C353 1.526 . S
C351 H335 0.959 . S
C351 H336 0.959 . S
C351 H337 0.961 . S
C351 C350 1.502 . S
C352 H338 0.960 . S
C352 H339 0.963 . S
C352 H340 0.959 . S
C352 C350 1.561 1_455 S
C353 C350 1.526 . S
C353 C354 1.396 1_556 S
C353 C358 1.390 1_556 S
C354 C348 1.465 . S
C354 C353 1.396 1_554 S
C354 C355 1.399 . S
C355 H341 0.929 . S
C355 C354 1.399 . S
C355 C356 1.385 . S
C356 H342 0.931 . S
C356 C355 1.385 . S
C356 C357 1.389 . S
C357 C356 1.389 . S
C357 C358 1.387 . S
C358 H343 0.930 1_554 S
C358 C353 1.390 1_554 S
C358 C357 1.387 . S
H359 C371 0.930 1_545 S
H360 C373 0.930 . S
H361 C374 0.930 . S
H362 C378 0.959 . S
H363 C378 0.959 . S
H364 C378 0.961 . S
H365 C379 0.960 . S
H366 C379 0.961 . S
H367 C379 0.959 . S
H368 C382 0.929 . S
H369 C383 0.931 . S
H370 C385 0.930 1_545 S
C371 H359 0.930 1_565 S
C371 C372 1.399 . S
C371 C376 1.399 . S
C372 C371 1.399 . S
C372 C373 1.376 . S
C373 H360 0.930 . S
C373 C372 1.376 . S
C373 C374 1.388 . S
C374 H361 0.930 . S
C374 C373 1.388 . S
C374 C375 1.390 . S
C375 C374 1.390 . S
C375 C376 1.394 . S
C375 C381 1.465 . S
C376 C371 1.399 . S
C376 C375 1.394 . S
C376 C377 1.516 1_565 S
C377 C376 1.516 1_545 S
C377 C378 1.502 . S
C377 C379 1.561 . S
C377 C380 1.526 1_545 S
C378 H362 0.959 . S
C378 H363 0.959 . S
C378 H364 0.961 . S
C378 C377 1.502 . S
C379 H365 0.960 . S
C379 H366 0.961 . S
C379 H367 0.959 . S
C379 C377 1.561 . S
C380 C377 1.526 1_565 S
C380 C381 1.396 . S
C380 C385 1.390 . S
C381 C375 1.465 . S
C381 C380 1.396 . S
C381 C382 1.399 . S
C382 H368 0.929 . S
C382 C381 1.399 . S
C382 C383 1.385 . S
C383 H369 0.931 . S
C383 C382 1.385 . S
C383 C384 1.389 . S
C384 C383 1.389 . S
C384 C385 1.387 . S
C385 H370 0.930 1_565 S
C385 C380 1.390 . S
C385 C384 1.387 . S
H386 C398 0.930 . S
H387 C400 0.930 . S
H388 C401 0.930 . S
H389 C405 0.959 . S
H390 C405 0.959 . S
H391 C405 0.961 . S
H392 C406 0.960 . S
H393 C406 0.961 . S
H394 C406 0.959 . S
H395 C409 0.929 . S
H396 C410 0.931 . S
H397 C412 0.930 1_556 S
C398 H386 0.930 . S
C398 C399 1.399 . S
C398 C403 1.399 . S
C399 C398 1.399 . S
C399 C400 1.376 1_556 S
C400 H387 0.930 . S
C400 C399 1.376 1_554 S
C400 C401 1.388 . S
C401 H388 0.930 . S
C401 C400 1.388 . S
C401 C402 1.390 . S
C402 C401 1.390 . S
C402 C403 1.394 1_554 S
C402 C408 1.465 . S
C403 C398 1.399 . S
C403 C402 1.394 1_556 S
C403 C404 1.516 . S
C404 C403 1.516 . S
C404 C405 1.502 . S
C404 C406 1.561 . S
C404 C407 1.526 . S
C405 H389 0.959 . S
C405 H390 0.959 . S
C405 H391 0.961 . S
C405 C404 1.502 . S
C406 H392 0.960 . S
C406 H393 0.961 . S
C406 H394 0.959 . S
C406 C404 1.561 . S
C407 C404 1.526 . S
C407 C408 1.396 1_556 S
C407 C412 1.390 1_556 S
C408 C402 1.465 . S
C408 C407 1.396 1_554 S
C408 C409 1.399 . S
C409 H395 0.929 . S
C409 C408 1.399 . S
C409 C410 1.385 . S
C410 H396 0.931 . S
C410 C409 1.385 . S
C410 C411 1.389 . S
C411 C410 1.389 . S
C411 C412 1.387 . S
C412 H397 0.930 1_554 S
C412 C407 1.390 1_554 S
C412 C411 1.387 . S
H413 C425 0.930 . S
H414 C427 0.930 . S
H415 C428 0.930 . S
H416 C432 0.959 . S
H417 C432 0.959 . S
H418 C432 0.961 . S
H419 C433 0.960 . S
H420 C433 0.961 . S
H421 C433 0.959 . S
H422 C436 0.929 . S
H423 C437 0.931 . S
H424 C439 0.930 . S
C425 H413 0.930 . S
C425 C426 1.399 . S
C425 C430 1.399 . S
C426 C425 1.399 . S
C426 C427 1.376 . S
C427 H414 0.930 . S
C427 C426 1.376 . S
C427 C428 1.388 . S
C428 H415 0.930 . S
C428 C427 1.388 . S
C428 C429 1.390 . S
C429 C428 1.390 . S
C429 C430 1.394 . S
C429 C435 1.465 . S
C430 C425 1.399 . S
C430 C429 1.394 . S
C430 C431 1.516 . S
C431 C430 1.516 . S
C431 C432 1.502 . S
C431 C433 1.561 . S
C431 C434 1.526 . S
C432 H416 0.959 . S
C432 H417 0.959 . S
C432 H418 0.961 . S
C432 C431 1.502 . S
C433 H419 0.960 . S
C433 H420 0.961 . S
C433 H421 0.959 . S
C433 C431 1.561 . S
C434 C431 1.526 . S
C434 C435 1.396 . S
C434 C439 1.390 . S
C435 C429 1.465 . S
C435 C434 1.396 . S
C435 C436 1.399 . S
C436 H422 0.929 . S
C436 C435 1.399 . S
C436 C437 1.385 . S
C437 H423 0.931 . S
C437 C436 1.385 . S
C437 C438 1.389 . S
C438 C437 1.389 . S
C438 C439 1.387 . S
C439 H424 0.930 . S
C439 C434 1.390 . S
C439 C438 1.387 . S
H440 C452 0.930 . S
H441 C454 0.926 1_554 S
H442 C455 0.930 . S
H443 C459 0.959 . S
H444 C459 0.959 . S
H445 C459 0.961 . S
H446 C460 0.960 . S
H447 C460 0.961 . S
H448 C460 0.959 . S
H449 C463 0.929 . S
H450 C464 0.931 . S
H451 C466 0.930 . S
C452 H440 0.930 . S
C452 C453 1.399 . S
C452 C457 1.399 . S
C453 C452 1.399 . S
C453 C454 1.376 . S
C454 H441 0.926 1_556 S
C454 C453 1.376 . S
C454 C455 1.388 . S
C455 H442 0.930 . S
C455 C454 1.388 . S
C455 C456 1.390 . S
C456 C455 1.390 . S
C456 C457 1.394 . S
C456 C462 1.465 . S
C457 C452 1.399 . S
C457 C456 1.394 . S
C457 C458 1.516 . S
C458 C457 1.516 . S
C458 C459 1.502 . S
C458 C460 1.561 . S
C458 C461 1.526 . S
C459 H443 0.959 . S
C459 H444 0.959 . S
C459 H445 0.961 . S
C459 C458 1.502 . S
C460 H446 0.960 . S
C460 H447 0.961 . S
C460 H448 0.959 . S
C460 C458 1.561 . S
C461 C458 1.526 . S
C461 C462 1.396 . S
C461 C466 1.390 . S
C462 C456 1.465 . S
C462 C461 1.396 . S
C462 C463 1.399 . S
C463 H449 0.929 . S
C463 C462 1.399 . S
C463 C464 1.385 . S
C464 H450 0.931 . S
C464 C463 1.385 . S
C464 C465 1.389 . S
C465 C464 1.389 . S
C465 C466 1.387 . S
C466 H451 0.930 . S
C466 C461 1.390 . S
C466 C465 1.387 . S
H467 C479 0.930 . S
H468 C481 0.930 . S
H469 C482 0.930 . S
H470 C486 0.959 . S
H471 C486 0.959 . S
H472 C486 0.961 . S
H473 C487 0.960 . S
H474 C487 0.961 . S
H475 C487 0.959 . S
H476 C490 0.929 . S
H477 C491 0.931 . S
H478 C493 0.930 . S
C479 H467 0.930 . S
C479 C480 1.399 . S
C479 C484 1.399 . S
C480 C479 1.399 . S
C480 C481 1.376 . S
C481 H468 0.930 . S
C481 C480 1.376 . S
C481 C482 1.388 . S
C482 H469 0.930 . S
C482 C481 1.388 . S
C482 C483 1.390 . S
C483 C482 1.390 . S
C483 C484 1.394 . S
C483 C489 1.465 . S
C484 C479 1.399 . S
C484 C483 1.394 . S
C484 C485 1.516 . S
C485 C484 1.516 . S
C485 C486 1.502 . S
C485 C487 1.561 . S
C485 C488 1.526 . S
C486 H470 0.959 . S
C486 H471 0.959 . S
C486 H472 0.961 . S
C486 C485 1.502 . S
C487 H473 0.960 . S
C487 H474 0.961 . S
C487 H475 0.959 . S
C487 C485 1.561 . S
C488 C485 1.526 . S
C488 C489 1.396 . S
C488 C493 1.390 . S
C489 C483 1.465 . S
C489 C488 1.396 . S
C489 C490 1.399 . S
C490 H476 0.929 . S
C490 C489 1.399 . S
C490 C491 1.385 . S
C491 H477 0.931 . S
C491 C490 1.385 . S
C491 C492 1.389 . S
C492 C491 1.389 . S
C492 C493 1.387 . S
C493 H478 0.930 . S
C493 C488 1.390 . S
C493 C492 1.387 . S
H494 C506 0.930 . S
H495 C508 0.930 . S
H496 C509 0.930 1_554 S
H497 C513 0.959 . S
H498 C513 0.959 . S
H499 C513 0.961 . S
H500 C514 0.960 . S
H501 C514 0.961 . S
H502 C514 0.959 . S
H503 C517 0.929 . S
H504 C518 0.931 . S
H505 C520 0.930 . S
C506 H494 0.930 . S
C506 C507 1.399 1_556 S
C506 C511 1.399 . S
C507 C506 1.399 1_554 S
C507 C508 1.376 . S
C508 H495 0.930 . S
C508 C507 1.376 . S
C508 C509 1.388 1_554 S
C509 H496 0.930 1_556 S
C509 C508 1.388 1_556 S
C509 C510 1.390 . S
C510 C509 1.390 . S
C510 C511 1.394 . S
C510 C516 1.465 . S
C511 C506 1.399 . S
C511 C510 1.394 . S
C511 C512 1.516 . S
C512 C511 1.516 . S
C512 C513 1.502 . S
C512 C514 1.561 . S
C512 C515 1.526 . S
C513 H497 0.959 . S
C513 H498 0.959 . S
C513 H499 0.961 . S
C513 C512 1.502 . S
C514 H500 0.960 . S
C514 H501 0.961 . S
C514 H502 0.959 . S
C514 C512 1.561 . S
C515 C512 1.526 . S
C515 C516 1.396 . S
C515 C520 1.390 . S
C516 C510 1.465 . S
C516 C515 1.396 . S
C516 C517 1.399 . S
C517 H503 0.929 . S
C517 C516 1.399 . S
C517 C518 1.385 . S
C518 H504 0.931 . S
C518 C517 1.385 . S
C518 C519 1.389 . S
C519 C518 1.389 . S
C519 C520 1.387 . S
C520 H505 0.930 . S
C520 C515 1.390 . S
C520 C519 1.387 . S
H521 C533 0.930 . S
H522 C535 0.930 . S
H523 C536 0.930 . S
H524 C540 0.959 . S
H525 C540 0.959 . S
H526 C540 0.961 . S
H527 C541 0.960 . S
H528 C541 0.961 . S
H529 C541 0.959 . S
H530 C544 0.929 . S
H531 C545 0.931 . S
H532 C547 0.930 . S
C533 H521 0.930 . S
C533 C534 1.399 . S
C533 C538 1.399 . S
C534 C533 1.399 . S
C534 C535 1.376 . S
C535 H522 0.930 . S
C535 C534 1.376 . S
C535 C536 1.388 . S
C536 H523 0.930 . S
C536 C535 1.388 . S
C536 C537 1.390 . S
C537 C536 1.390 . S
C537 C538 1.394 . S
C537 C543 1.465 . S
C538 C533 1.399 . S
C538 C537 1.394 . S
C538 C539 1.516 . S
C539 C538 1.516 . S
C539 C540 1.502 . S
C539 C541 1.561 . S
C539 C542 1.526 . S
C540 H524 0.959 . S
C540 H525 0.959 . S
C540 H526 0.961 . S
C540 C539 1.502 . S
C541 H527 0.960 . S
C541 H528 0.961 . S
C541 H529 0.959 . S
C541 C539 1.561 . S
C542 C539 1.526 . S
C542 C543 1.396 . S
C542 C547 1.390 . S
C543 C537 1.465 . S
C543 C542 1.396 . S
C543 C544 1.399 . S
C544 H530 0.929 . S
C544 C543 1.399 . S
C544 C545 1.385 . S
C545 H531 0.931 . S
C545 C544 1.385 . S
C545 C546 1.389 . S
C546 C545 1.389 . S
C546 C547 1.387 . S
C547 H532 0.930 . S
C547 C542 1.390 . S
C547 C546 1.387 . S
H548 C560 0.930 . S
H549 C562 0.930 . S
H550 C563 0.930 . S
H551 C567 0.959 . S
H552 C567 0.959 . S
H553 C567 0.961 . S
H554 C568 0.960 . S
H555 C568 0.961 1_556 S
H556 C568 0.959 . S
H557 C571 0.929 . S
H558 C572 0.931 . S
H559 C574 0.930 1_556 S
C560 H548 0.930 . S
C560 C561 1.399 . S
C560 C565 1.399 . S
C561 C560 1.399 . S
C561 C562 1.376 . S
C562 H549 0.930 . S
C562 C561 1.376 . S
C562 C563 1.388 . S
C563 H550 0.930 . S
C563 C562 1.388 . S
C563 C564 1.390 . S
C564 C563 1.390 . S
C564 C565 1.394 . S
C564 C570 1.465 . S
C565 C560 1.399 . S
C565 C564 1.394 . S
C565 C566 1.516 . S
C566 C565 1.516 . S
C566 C567 1.502 . S
C566 C568 1.561 . S
C566 C569 1.526 . S
C567 H551 0.959 . S
C567 H552 0.959 . S
C567 H553 0.961 . S
C567 C566 1.502 . S
C568 H554 0.960 . S
C568 H555 0.961 1_554 S
C568 H556 0.959 . S
C568 C566 1.561 . S
C569 C566 1.526 . S
C569 C570 1.396 . S
C569 C574 1.390 . S
C570 C564 1.465 . S
C570 C569 1.396 . S
C570 C571 1.399 . S
C571 H557 0.929 . S
C571 C570 1.399 . S
C571 C572 1.385 . S
C572 H558 0.931 . S
C572 C571 1.385 . S
C572 C573 1.389 . S
C573 C572 1.389 . S
C573 C574 1.387 . S
C574 H559 0.930 1_554 S
C574 C569 1.390 . S
C574 C573 1.387 . S
H575 C587 0.930 . S
H576 C589 0.930 . S
H577 C590 0.930 . S
H578 C594 0.959 . S
H579 C594 0.959 . S
H580 C594 0.961 . S
H581 C595 0.960 . S
H582 C595 0.961 . S
H583 C595 0.959 . S
H584 C598 0.929 . S
H585 C599 0.931 . S
H586 C601 0.930 . S
C587 H575 0.930 . S
C587 C588 1.399 . S
C587 C592 1.399 . S
C588 C587 1.399 . S
C588 C589 1.376 . S
C589 H576 0.930 . S
C589 C588 1.376 . S
C589 C590 1.388 . S
C590 H577 0.930 . S
C590 C589 1.388 . S
C590 C591 1.390 . S
C591 C590 1.390 . S
C591 C592 1.394 . S
C591 C597 1.465 . S
C592 C587 1.399 . S
C592 C591 1.394 . S
C592 C593 1.516 . S
C593 C592 1.516 . S
C593 C594 1.502 . S
C593 C595 1.561 . S
C593 C596 1.526 . S
C594 H578 0.959 . S
C594 H579 0.959 . S
C594 H580 0.961 . S
C594 C593 1.502 . S
C595 H581 0.960 . S
C595 H582 0.961 . S
C595 H583 0.959 . S
C595 C593 1.561 . S
C596 C593 1.526 . S
C596 C597 1.396 . S
C596 C601 1.390 . S
C597 C591 1.465 . S
C597 C596 1.396 . S
C597 C598 1.399 . S
C598 H584 0.929 . S
C598 C597 1.399 . S
C598 C599 1.385 . S
C599 H585 0.931 . S
C599 C598 1.385 . S
C599 C600 1.389 . S
C600 C599 1.389 . S
C600 C601 1.387 . S
C601 H586 0.930 . S
C601 C596 1.390 . S
C601 C600 1.387 . S
H602 C614 0.930 . S
H603 C616 0.930 . S
H604 C617 0.930 . S
H605 C621 0.959 . S
H606 C621 0.959 . S
H607 C621 0.961 . S
H608 C622 0.960 . S
H609 C622 0.961 . S
H610 C622 0.959 . S
H611 C625 0.929 . S
H612 C626 0.931 . S
H613 C628 0.930 1_556 S
C614 H602 0.930 . S
C614 C615 1.399 . S
C614 C619 1.399 . S
C615 C614 1.399 . S
C615 C616 1.376 . S
C616 H603 0.930 . S
C616 C615 1.376 . S
C616 C617 1.388 . S
C617 H604 0.930 . S
C617 C616 1.388 . S
C617 C618 1.390 . S
C618 C617 1.390 . S
C618 C619 1.394 . S
C618 C624 1.465 . S
C619 C614 1.399 . S
C619 C618 1.394 . S
C619 C620 1.516 . S
C620 C619 1.516 . S
C620 C621 1.502 . S
C620 C622 1.561 . S
C620 C623 1.526 . S
C621 H605 0.959 . S
C621 H606 0.959 . S
C621 H607 0.961 . S
C621 C620 1.502 . S
C622 H608 0.960 . S
C622 H609 0.961 . S
C622 H610 0.959 . S
C622 C620 1.561 . S
C623 C620 1.526 . S
C623 C624 1.396 . S
C623 C628 1.390 . S
C624 C618 1.465 . S
C624 C623 1.396 . S
C624 C625 1.399 . S
C625 H611 0.929 . S
C625 C624 1.399 . S
C625 C626 1.385 . S
C626 H612 0.931 . S
C626 C625 1.385 . S
C626 C627 1.389 . S
C627 C626 1.389 . S
C627 C628 1.387 . S
C628 H613 0.930 1_554 S
C628 C623 1.390 . S
C628 C627 1.387 . S
H629 C641 0.930 . S
H630 C643 0.930 . S
H631 C644 0.930 . S
H632 C648 0.959 . S
H633 C648 0.959 . S
H634 C648 0.961 . S
H635 C649 0.960 . S
H636 C649 0.961 . S
H637 C649 0.959 . S
H638 C652 0.929 . S
H639 C653 0.931 . S
H640 C655 0.930 . S
C641 H629 0.930 . S
C641 C642 1.399 . S
C641 C646 1.399 . S
C642 C641 1.399 . S
C642 C643 1.376 . S
C643 H630 0.930 . S
C643 C642 1.376 . S
C643 C644 1.388 . S
C644 H631 0.930 . S
C644 C643 1.388 . S
C644 C645 1.390 . S
C645 C644 1.390 . S
C645 C646 1.394 . S
C645 C651 1.465 . S
C646 C641 1.399 . S
C646 C645 1.394 . S
C646 C647 1.516 . S
C647 C646 1.516 . S
C647 C648 1.502 . S
C647 C649 1.561 . S
C647 C650 1.526 . S
C648 H632 0.959 . S
C648 H633 0.959 . S
C648 H634 0.961 . S
C648 C647 1.502 . S
C649 H635 0.960 . S
C649 H636 0.961 . S
C649 H637 0.959 . S
C649 C647 1.561 . S
C650 C647 1.526 . S
C650 C651 1.396 . S
C650 C655 1.390 . S
C651 C645 1.465 . S
C651 C650 1.396 . S
C651 C652 1.399 . S
C652 H638 0.929 . S
C652 C651 1.399 . S
C652 C653 1.385 . S
C653 H639 0.931 . S
C653 C652 1.385 . S
C653 C654 1.389 . S
C654 C653 1.389 . S
C654 C655 1.387 . S
C655 H640 0.930 . S
C655 C650 1.390 . S
C655 C654 1.387 . S
H656 C668 0.930 1_556 S
H657 C670 0.930 . S
H658 C671 0.930 . S
H659 C675 0.959 . S
H660 C675 0.959 . S
H661 C675 0.961 . S
H662 C676 0.960 . S
H663 C676 0.961 . S
H664 C676 0.959 . S
H665 C679 0.929 . S
H666 C680 0.931 . S
H667 C682 0.930 . S
C668 H656 0.930 1_554 S
C668 C669 1.399 . S
C668 C673 1.399 . S
C669 C668 1.399 . S
C669 C670 1.376 . S
C670 H657 0.930 . S
C670 C669 1.376 . S
C670 C671 1.388 . S
C671 H658 0.930 . S
C671 C670 1.388 . S
C671 C672 1.390 . S
C672 C671 1.390 . S
C672 C673 1.394 . S
C672 C678 1.465 . S
C673 C668 1.399 . S
C673 C672 1.394 . S
C673 C674 1.516 . S
C674 C673 1.516 . S
C674 C675 1.502 . S
C674 C676 1.561 . S
C674 C677 1.526 . S
C675 H659 0.959 . S
C675 H660 0.959 . S
C675 H661 0.961 . S
C675 C674 1.502 . S
C676 H662 0.960 . S
C676 H663 0.961 . S
C676 H664 0.959 . S
C676 C674 1.561 . S
C677 C674 1.526 . S
C677 C678 1.396 . S
C677 C682 1.390 . S
C678 C672 1.465 . S
C678 C677 1.396 . S
C678 C679 1.399 . S
C679 H665 0.929 . S
C679 C678 1.399 . S
C679 C680 1.385 . S
C680 H666 0.931 . S
C680 C679 1.385 . S
C680 C681 1.389 . S
C681 C680 1.389 . S
C681 C682 1.387 . S
C682 H667 0.930 . S
C682 C677 1.390 . S
C682 C681 1.387 . S
H683 C695 0.930 . S
H684 C697 0.930 . S
H685 C698 0.930 . S
H686 C702 0.959 . S
H687 C702 0.959 . S
H688 C702 0.961 . S
H689 C703 0.960 . S
H690 C703 0.961 . S
H691 C703 0.959 . S
H692 C706 0.929 . S
H693 C707 0.931 . S
H694 C709 0.930 . S
C695 H683 0.930 . S
C695 C696 1.399 . S
C695 C700 1.399 . S
C696 C695 1.399 . S
C696 C697 1.376 . S
C697 H684 0.930 . S
C697 C696 1.376 . S
C697 C698 1.388 . S
C698 H685 0.930 . S
C698 C697 1.388 . S
C698 C699 1.390 . S
C699 C698 1.390 . S
C699 C700 1.394 . S
C699 C705 1.465 . S
C700 C695 1.399 . S
C700 C699 1.394 . S
C700 C701 1.516 . S
C701 C700 1.516 . S
C701 C702 1.502 . S
C701 C703 1.561 . S
C701 C704 1.526 . S
C702 H686 0.959 . S
C702 H687 0.959 . S
C702 H688 0.961 . S
C702 C701 1.502 . S
C703 H689 0.960 . S
C703 H690 0.961 . S
C703 H691 0.959 . S
C703 C701 1.561 . S
C704 C701 1.526 . S
C704 C705 1.396 . S
C704 C709 1.390 . S
C705 C699 1.465 . S
C705 C704 1.396 . S
C705 C706 1.399 . S
C706 H692 0.929 . S
C706 C705 1.399 . S
C706 C707 1.385 . S
C707 H693 0.931 . S
C707 C706 1.385 . S
C707 C708 1.389 . S
C708 C707 1.389 . S
C708 C709 1.387 . S
C709 H694 0.930 . S
C709 C704 1.390 . S
C709 C708 1.387 . S
H710 C722 0.930 . S
H711 C724 0.930 . S
H712 C725 0.930 . S
H713 C729 0.959 . S
H714 C729 0.959 . S
H715 C729 0.961 . S
H716 C730 0.960 . S
H717 C730 0.961 . S
H718 C730 0.959 . S
H719 C733 0.929 . S
H720 C734 0.922 1_556 S
H721 C736 0.930 . S
C722 H710 0.930 . S
C722 C723 1.399 . S
C722 C727 1.399 . S
C723 C722 1.399 . S
C723 C724 1.376 . S
C724 H711 0.930 . S
C724 C723 1.376 . S
C724 C725 1.388 . S
C725 H712 0.930 . S
C725 C724 1.388 . S
C725 C726 1.390 . S
C726 C725 1.390 . S
C726 C727 1.394 . S
C726 C732 1.465 . S
C727 C722 1.399 . S
C727 C726 1.394 . S
C727 C728 1.516 . S
C728 C727 1.516 . S
C728 C729 1.502 . S
C728 C730 1.561 . S
C728 C731 1.526 . S
C729 H713 0.959 . S
C729 H714 0.959 . S
C729 H715 0.961 . S
C729 C728 1.502 . S
C730 H716 0.960 . S
C730 H717 0.961 . S
C730 H718 0.959 . S
C730 C728 1.561 . S
C731 C728 1.526 . S
C731 C732 1.396 . S
C731 C736 1.390 . S
C732 C726 1.465 . S
C732 C731 1.396 . S
C732 C733 1.399 . S
C733 H719 0.929 . S
C733 C732 1.399 . S
C733 C734 1.394 . S
C734 H720 0.922 1_554 S
C734 C733 1.394 . S
C734 C735 1.390 . S
C735 C734 1.390 . S
C735 C736 1.387 . S
C736 H721 0.930 . S
C736 C731 1.390 . S
C736 C735 1.387 . S
H737 C749 0.930 . S
H738 C751 0.930 . S
H739 C752 0.930 . S
H740 C756 0.959 . S
H741 C756 0.959 . S
H742 C756 0.961 . S
H743 C757 0.960 . S
H744 C757 0.961 . S
H745 C757 0.959 . S
H746 C760 0.929 . S
H747 C761 0.931 . S
H748 C763 0.930 . S
C749 H737 0.930 . S
C749 C750 1.399 . S
C749 C754 1.399 . S
C750 C749 1.399 . S
C750 C751 1.376 . S
C751 H738 0.930 . S
C751 C750 1.376 . S
C751 C752 1.388 . S
C752 H739 0.930 . S
C752 C751 1.388 . S
C752 C753 1.390 . S
C753 C752 1.390 . S
C753 C754 1.394 . S
C753 C759 1.465 . S
C754 C749 1.399 . S
C754 C753 1.394 . S
C754 C755 1.516 . S
C755 C754 1.516 . S
C755 C756 1.502 . S
C755 C757 1.561 . S
C755 C758 1.526 . S
C756 H740 0.959 . S
C756 H741 0.959 . S
C756 H742 0.961 . S
C756 C755 1.502 . S
C757 H743 0.960 . S
C757 H744 0.961 . S
C757 H745 0.959 . S
C757 C755 1.561 . S
C758 C755 1.526 . S
C758 C759 1.396 . S
C758 C763 1.390 . S
C759 C753 1.465 . S
C759 C758 1.396 . S
C759 C760 1.399 . S
C760 H746 0.929 . S
C760 C759 1.399 . S
C760 C761 1.385 . S
C761 H747 0.931 . S
C761 C760 1.385 . S
C761 C762 1.389 . S
C762 C761 1.389 . S
C762 C763 1.387 . S
C763 H748 0.930 . S
C763 C758 1.390 . S
C763 C762 1.387 . S
H764 C776 0.930 . S
H765 C778 0.930 . S
H766 C779 0.930 . S
H767 C783 0.959 . S
H768 C783 0.959 . S
H769 C783 0.961 . S
H770 C784 0.960 . S
H771 C784 0.961 . S
H772 C784 0.959 . S
H773 C787 0.932 . S
H774 C788 0.931 . S
H775 C790 0.930 . S
C776 H764 0.930 . S
C776 C777 1.399 . S
C776 C781 1.399 . S
C777 C776 1.399 . S
C777 C778 1.376 . S
C778 H765 0.930 . S
C778 C777 1.376 . S
C778 C779 1.388 . S
C779 H766 0.930 . S
C779 C778 1.388 . S
C779 C780 1.390 . S
C780 C779 1.390 . S
C780 C781 1.394 . S
C780 C786 1.465 . S
C781 C776 1.399 . S
C781 C780 1.394 . S
C781 C782 1.516 . S
C782 C781 1.516 . S
C782 C783 1.502 . S
C782 C784 1.561 . S
C782 C785 1.526 . S
C783 H767 0.959 . S
C783 H768 0.959 . S
C783 H769 0.961 . S
C783 C782 1.502 . S
C784 H770 0.960 . S
C784 H771 0.961 . S
C784 H772 0.959 . S
C784 C782 1.561 . S
C785 C782 1.526 . S
C785 C786 1.396 . S
C785 C790 1.390 . S
C786 C780 1.465 . S
C786 C785 1.396 . S
C786 C787 1.399 . S
C787 H773 0.932 . S
C787 C786 1.399 . S
C787 C788 1.385 1_556 S
C788 H774 0.931 . S
C788 C787 1.385 1_554 S
C788 C789 1.389 . S
C789 C788 1.389 . S
C789 C790 1.387 1_554 S
C790 H775 0.930 . S
C790 C785 1.390 . S
C790 C789 1.387 1_556 S
H791 C803 0.930 . S
H792 C805 0.930 . S
H793 C806 0.930 . S
H794 C810 0.959 . S
H795 C810 0.959 . S
H796 C810 0.961 . S
H797 C811 0.960 . S
H798 C811 0.961 . S
H799 C811 0.959 . S
H800 C814 0.929 . S
H801 C815 0.931 . S
H802 C817 0.930 . S
C803 H791 0.930 . S
C803 C804 1.399 . S
C803 C808 1.399 . S
C804 C803 1.399 . S
C804 C805 1.376 . S
C805 H792 0.930 . S
C805 C804 1.376 . S
C805 C806 1.388 . S
C806 H793 0.930 . S
C806 C805 1.388 . S
C806 C807 1.390 . S
C807 C806 1.390 . S
C807 C808 1.394 . S
C807 C813 1.465 . S
C808 C803 1.399 . S
C808 C807 1.394 . S
C808 C809 1.516 . S
C809 C808 1.516 . S
C809 C810 1.502 . S
C809 C811 1.561 . S
C809 C812 1.526 . S
C810 H794 0.959 . S
C810 H795 0.959 . S
C810 H796 0.961 . S
C810 C809 1.502 . S
C811 H797 0.960 . S
C811 H798 0.961 . S
C811 H799 0.959 . S
C811 C809 1.561 . S
C812 C809 1.526 . S
C812 C813 1.396 . S
C812 C817 1.390 . S
C813 C807 1.465 . S
C813 C812 1.396 . S
C813 C814 1.399 . S
C814 H800 0.929 . S
C814 C813 1.399 . S
C814 C815 1.385 . S
C815 H801 0.931 . S
C815 C814 1.385 . S
C815 C816 1.389 . S
C816 C815 1.389 . S
C816 C817 1.387 . S
C817 H802 0.930 . S
C817 C812 1.390 . S
C817 C816 1.387 . S
H818 C830 0.930 1_554 S
H819 C832 0.930 . S
H820 C833 0.930 . S
H821 C837 0.959 . S
H822 C837 0.959 . S
H823 C837 0.961 . S
H824 C838 0.960 1_554 S
H825 C838 0.961 . S
H826 C838 0.959 . S
H827 C841 0.929 . S
H828 C842 0.931 . S
H829 C844 0.930 . S
C830 H818 0.930 1_556 S
C830 C831 1.399 . S
C830 C835 1.399 . S
C831 C830 1.399 . S
C831 C832 1.376 . S
C832 H819 0.930 . S
C832 C831 1.376 . S
C832 C833 1.388 . S
C833 H820 0.930 . S
C833 C832 1.388 . S
C833 C834 1.390 . S
C834 C833 1.390 . S
C834 C835 1.394 . S
C834 C840 1.465 . S
C835 C830 1.399 . S
C835 C834 1.394 . S
C835 C836 1.516 . S
C836 C835 1.516 . S
C836 C837 1.502 . S
C836 C838 1.561 . S
C836 C839 1.526 . S
C837 H821 0.959 . S
C837 H822 0.959 . S
C837 H823 0.961 . S
C837 C836 1.502 . S
C838 H824 0.960 1_556 S
C838 H825 0.961 . S
C838 H826 0.959 . S
C838 C836 1.561 . S
C839 C836 1.526 . S
C839 C840 1.396 . S
C839 C844 1.390 . S
C840 C834 1.465 . S
C840 C839 1.396 . S
C840 C841 1.399 . S
C841 H827 0.929 . S
C841 C840 1.399 . S
C841 C842 1.385 . S
C842 H828 0.931 . S
C842 C841 1.385 . S
C842 C843 1.389 . S
C843 C842 1.389 . S
C843 C844 1.387 . S
C844 H829 0.930 . S
C844 C839 1.390 . S
C844 C843 1.387 . S
H845 C857 0.930 . S
H846 C859 0.930 . S
H847 C860 0.930 . S
H848 C864 0.959 . S
H849 C864 0.959 . S
H850 C864 0.961 . S
H851 C865 0.960 . S
H852 C865 0.961 . S
H853 C865 0.959 . S
H854 C868 0.929 . S
H855 C869 0.931 . S
H856 C871 0.930 . S
C857 H845 0.930 . S
C857 C858 1.399 . S
C857 C862 1.399 . S
C858 C857 1.399 . S
C858 C859 1.376 . S
C859 H846 0.930 . S
C859 C858 1.376 . S
C859 C860 1.388 . S
C860 H847 0.930 . S
C860 C859 1.388 . S
C860 C861 1.390 . S
C861 C860 1.390 . S
C861 C862 1.394 . S
C861 C867 1.465 . S
C862 C857 1.399 . S
C862 C861 1.394 . S
C862 C863 1.516 . S
C863 C862 1.516 . S
C863 C864 1.502 . S
C863 C865 1.561 . S
C863 C866 1.526 . S
C864 H848 0.959 . S
C864 H849 0.959 . S
C864 H850 0.961 . S
C864 C863 1.502 . S
C865 H851 0.960 . S
C865 H852 0.961 . S
C865 H853 0.959 . S
C865 C863 1.561 . S
C866 C863 1.526 . S
C866 C867 1.396 . S
C866 C871 1.390 . S
C867 C861 1.465 . S
C867 C866 1.396 . S
C867 C868 1.399 . S
C868 H854 0.929 . S
C868 C867 1.399 . S
C868 C869 1.385 . S
C869 H855 0.931 . S
C869 C868 1.385 . S
C869 C870 1.389 . S
C870 C869 1.389 . S
C870 C871 1.387 . S
C871 H856 0.930 . S
C871 C866 1.390 . S
C871 C870 1.387 . S
H872 C884 0.930 . S
H873 C886 0.930 . S
H874 C887 0.930 . S
H875 C891 0.959 . S
H876 C891 0.959 . S
H877 C891 0.961 . S
H878 C892 0.960 . S
H879 C892 0.961 . S
H880 C892 0.959 . S
H881 C895 0.929 . S
H882 C896 0.931 . S
H883 C898 0.930 . S
C884 H872 0.930 . S
C884 C885 1.399 . S
C884 C889 1.399 . S
C885 C884 1.399 . S
C885 C886 1.376 . S
C886 H873 0.930 . S
C886 C885 1.376 . S
C886 C887 1.388 . S
C887 H874 0.930 . S
C887 C886 1.388 . S
C887 C888 1.390 . S
C888 C887 1.390 . S
C888 C889 1.394 . S
C888 C894 1.465 . S
C889 C884 1.399 . S
C889 C888 1.394 . S
C889 C890 1.516 . S
C890 C889 1.516 . S
C890 C891 1.502 . S
C890 C892 1.561 . S
C890 C893 1.526 . S
C891 H875 0.959 . S
C891 H876 0.959 . S
C891 H877 0.961 . S
C891 C890 1.502 . S
C892 H878 0.960 . S
C892 H879 0.961 . S
C892 H880 0.959 . S
C892 C890 1.561 . S
C893 C890 1.526 . S
C893 C894 1.396 . S
C893 C898 1.390 . S
C894 C888 1.465 . S
C894 C893 1.396 . S
C894 C895 1.399 . S
C895 H881 0.929 . S
C895 C894 1.399 . S
C895 C896 1.385 . S
C896 H882 0.931 . S
C896 C895 1.385 . S
C896 C897 1.389 . S
C897 C896 1.389 . S
C897 C898 1.387 . S
C898 H883 0.930 . S
C898 C893 1.390 . S
C898 C897 1.387 . S
H899 C911 0.930 . S
H900 C913 0.930 . S
H901 C914 0.930 . S
H902 C918 0.959 . S
H903 C918 0.959 . S
H904 C918 0.961 . S
H905 C919 0.960 . S
H906 C919 0.961 . S
H907 C919 0.959 . S
H908 C922 0.929 . S
H909 C923 0.931 . S
H910 C925 0.930 . S
C911 H899 0.930 . S
C911 C912 1.399 . S
C911 C916 1.399 . S
C912 C911 1.399 . S
C912 C913 1.376 . S
C913 H900 0.930 . S
C913 C912 1.376 . S
C913 C914 1.388 . S
C914 H901 0.930 . S
C914 C913 1.388 . S
C914 C915 1.390 . S
C915 C914 1.390 . S
C915 C916 1.394 . S
C915 C921 1.465 . S
C916 C911 1.399 . S
C916 C915 1.394 . S
C916 C917 1.516 . S
C917 C916 1.516 . S
C917 C918 1.502 . S
C917 C919 1.561 . S
C917 C920 1.526 . S
C918 H902 0.959 . S
C918 H903 0.959 . S
C918 H904 0.961 . S
C918 C917 1.502 . S
C919 H905 0.960 . S
C919 H906 0.961 . S
C919 H907 0.959 . S
C919 C917 1.561 . S
C920 C917 1.526 . S
C920 C921 1.396 . S
C920 C925 1.390 . S
C921 C915 1.465 . S
C921 C920 1.396 . S
C921 C922 1.399 . S
C922 H908 0.929 . S
C922 C921 1.399 . S
C922 C923 1.385 . S
C923 H909 0.931 . S
C923 C922 1.385 . S
C923 C924 1.389 . S
C924 C923 1.389 . S
C924 C925 1.387 . S
C925 H910 0.930 . S
C925 C920 1.390 . S
C925 C924 1.387 . S
H926 C938 0.930 . S
H927 C940 0.930 . S
H928 C941 0.930 . S
H929 C945 0.959 . S
H930 C945 0.959 . S
H931 C945 0.961 . S
H932 C946 0.960 . S
H933 C946 0.961 . S
H934 C946 0.959 . S
H935 C949 0.929 . S
H936 C950 0.931 . S
H937 C952 0.930 . S
C938 H926 0.930 . S
C938 C939 1.399 . S
C938 C943 1.399 . S
C939 C938 1.399 . S
C939 C940 1.376 . S
C940 H927 0.930 . S
C940 C939 1.376 . S
C940 C941 1.388 . S
C941 H928 0.930 . S
C941 C940 1.388 . S
C941 C942 1.390 . S
C942 C941 1.390 . S
C942 C943 1.394 . S
C942 C948 1.465 . S
C943 C938 1.399 . S
C943 C942 1.394 . S
C943 C944 1.516 . S
C944 C943 1.516 . S
C944 C945 1.502 . S
C944 C946 1.561 . S
C944 C947 1.526 . S
C945 H929 0.959 . S
C945 H930 0.959 . S
C945 H931 0.961 . S
C945 C944 1.502 . S
C946 H932 0.960 . S
C946 H933 0.961 . S
C946 H934 0.959 . S
C946 C944 1.561 . S
C947 C944 1.526 . S
C947 C948 1.396 . S
C947 C952 1.390 . S
C948 C942 1.465 . S
C948 C947 1.396 . S
C948 C949 1.399 . S
C949 H935 0.929 . S
C949 C948 1.399 . S
C949 C950 1.385 . S
C950 H936 0.931 . S
C950 C949 1.385 . S
C950 C951 1.389 . S
C951 C950 1.389 . S
C951 C952 1.387 . S
C952 H937 0.930 . S
C952 C947 1.390 . S
C952 C951 1.387 . S
H953 C965 0.930 . S
H954 C967 0.930 . S
H955 C968 0.930 . S
H956 C972 0.959 . S
H957 C972 0.959 . S
H958 C972 0.961 . S
H959 C973 0.960 . S
H960 C973 0.961 . S
H961 C973 0.959 . S
H962 C976 0.929 . S
H963 C977 0.931 . S
H964 C979 0.930 . S
C965 H953 0.930 . S
C965 C966 1.399 . S
C965 C970 1.399 . S
C966 C965 1.399 . S
C966 C967 1.376 . S
C967 H954 0.930 . S
C967 C966 1.376 . S
C967 C968 1.388 . S
C968 H955 0.930 . S
C968 C967 1.388 . S
C968 C969 1.390 . S
C969 C968 1.390 . S
C969 C970 1.394 . S
C969 C975 1.465 . S
C970 C965 1.399 . S
C970 C969 1.394 . S
C970 C971 1.516 . S
C971 C970 1.516 . S
C971 C972 1.502 . S
C971 C973 1.561 . S
C971 C974 1.526 . S
C972 H956 0.959 . S
C972 H957 0.959 . S
C972 H958 0.961 . S
C972 C971 1.502 . S
C973 H959 0.960 . S
C973 H960 0.961 . S
C973 H961 0.959 . S
C973 C971 1.561 . S
C974 C971 1.526 . S
C974 C975 1.396 . S
C974 C979 1.390 . S
C975 C969 1.465 . S
C975 C974 1.396 . S
C975 C976 1.399 . S
C976 H962 0.929 . S
C976 C975 1.399 . S
C976 C977 1.385 . S
C977 H963 0.931 . S
C977 C976 1.385 . S
C977 C978 1.389 . S
C978 C977 1.389 . S
C978 C979 1.387 . S
C979 H964 0.930 . S
C979 C974 1.390 . S
C979 C978 1.387 . S
H980 C992 0.930 . S
H981 C994 0.930 . S
H982 C995 0.930 . S
H983 C999 0.959 . S
H984 C999 0.959 . S
H985 C999 0.961 . S
H986 C1000 0.960 . S
H987 C1000 0.961 . S
H988 C1000 0.959 . S
H989 C1003 0.929 . S
H990 C1004 0.931 . S
H991 C1006 0.930 . S
C992 H980 0.930 . S
C992 C993 1.399 . S
C992 C997 1.399 . S
C993 C992 1.399 . S
C993 C994 1.376 . S
C994 H981 0.930 . S
C994 C993 1.376 . S
C994 C995 1.388 . S
C995 H982 0.930 . S
C995 C994 1.388 . S
C995 C996 1.390 . S
C996 C995 1.390 . S
C996 C997 1.394 . S
C996 C1002 1.465 . S
C997 C992 1.399 . S
C997 C996 1.394 . S
C997 C998 1.516 . S
C998 C997 1.516 . S
C998 C999 1.502 . S
C998 C1000 1.561 . S
C998 C1001 1.526 . S
C999 H983 0.959 . S
C999 H984 0.959 . S
C999 H985 0.961 . S
C999 C998 1.502 . S
C1000 H986 0.960 . S
C1000 H987 0.961 . S
C1000 H988 0.959 . S
C1000 C998 1.561 . S
C1001 C998 1.526 . S
C1001 C1002 1.396 . S
C1001 C1006 1.390 . S
C1002 C996 1.465 . S
C1002 C1001 1.396 . S
C1002 C1003 1.399 . S
C1003 H989 0.929 . S
C1003 C1002 1.399 . S
C1003 C1004 1.385 . S
C1004 H990 0.931 . S
C1004 C1003 1.385 . S
C1004 C1005 1.389 . S
C1005 C1004 1.389 . S
C1005 C1006 1.387 . S
C1006 H991 0.930 . S
C1006 C1001 1.390 . S
C1006 C1005 1.387 . S
H1007 C1019 0.930 . S
H1008 C1021 0.930 . S
H1009 C1022 0.930 . S
H1010 C1026 0.959 . S
H1011 C1026 0.959 . S
H1012 C1026 0.961 . S
H1013 C1027 0.960 . S
H1014 C1027 0.961 . S
H1015 C1027 0.959 . S
H1016 C1030 0.929 . S
H1017 C1031 0.931 . S
H1018 C1033 0.930 . S
C1019 H1007 0.930 . S
C1019 C1020 1.399 . S
C1019 C1024 1.399 . S
C1020 C1019 1.399 . S
C1020 C1021 1.376 . S
C1021 H1008 0.930 . S
C1021 C1020 1.376 . S
C1021 C1022 1.388 . S
C1022 H1009 0.930 . S
C1022 C1021 1.388 . S
C1022 C1023 1.390 . S
C1023 C1022 1.390 . S
C1023 C1024 1.394 . S
C1023 C1029 1.465 . S
C1024 C1019 1.399 . S
C1024 C1023 1.394 . S
C1024 C1025 1.516 . S
C1025 C1024 1.516 . S
C1025 C1026 1.502 . S
C1025 C1027 1.561 . S
C1025 C1028 1.526 . S
C1026 H1010 0.959 . S
C1026 H1011 0.959 . S
C1026 H1012 0.961 . S
C1026 C1025 1.502 . S
C1027 H1013 0.960 . S
C1027 H1014 0.961 . S
C1027 H1015 0.959 . S
C1027 C1025 1.561 . S
C1028 C1025 1.526 . S
C1028 C1029 1.396 . S
C1028 C1033 1.390 . S
C1029 C1023 1.465 . S
C1029 C1028 1.396 . S
C1029 C1030 1.399 . S
C1030 H1016 0.929 . S
C1030 C1029 1.399 . S
C1030 C1031 1.385 . S
C1031 H1017 0.931 . S
C1031 C1030 1.385 . S
C1031 C1032 1.389 . S
C1032 C1031 1.389 . S
C1032 C1033 1.387 . S
C1033 H1018 0.930 . S
C1033 C1028 1.390 . S
C1033 C1032 1.387 . S
H1034 C1046 0.930 . S
H1035 C1048 0.930 . S
H1036 C1049 0.930 . S
H1037 C1053 0.959 . S
H1038 C1053 0.959 . S
H1039 C1053 0.961 . S
H1040 C1054 0.960 . S
H1041 C1054 0.961 . S
H1042 C1054 0.959 . S
H1043 C1057 0.929 . S
H1044 C1058 0.931 . S
H1045 C1060 0.930 . S
C1046 H1034 0.930 . S
C1046 C1047 1.399 . S
C1046 C1051 1.399 . S
C1047 C1046 1.399 . S
C1047 C1048 1.376 . S
C1048 H1035 0.930 . S
C1048 C1047 1.376 . S
C1048 C1049 1.388 . S
C1049 H1036 0.930 . S
C1049 C1048 1.388 . S
C1049 C1050 1.390 . S
C1050 C1049 1.390 . S
C1050 C1051 1.394 . S
C1050 C1056 1.465 . S
C1051 C1046 1.399 . S
C1051 C1050 1.394 . S
C1051 C1052 1.516 . S
C1052 C1051 1.516 . S
C1052 C1053 1.502 . S
C1052 C1054 1.561 . S
C1052 C1055 1.526 . S
C1053 H1037 0.959 . S
C1053 H1038 0.959 . S
C1053 H1039 0.961 . S
C1053 C1052 1.502 . S
C1054 H1040 0.960 . S
C1054 H1041 0.961 . S
C1054 H1042 0.959 . S
C1054 C1052 1.561 . S
C1055 C1052 1.526 . S
C1055 C1056 1.396 . S
C1055 C1060 1.390 . S
C1056 C1050 1.465 . S
C1056 C1055 1.396 . S
C1056 C1057 1.399 . S
C1057 H1043 0.929 . S
C1057 C1056 1.399 . S
C1057 C1058 1.385 . S
C1058 H1044 0.931 . S
C1058 C1057 1.385 . S
C1058 C1059 1.389 . S
C1059 C1058 1.389 . S
C1059 C1060 1.387 . S
C1060 H1045 0.930 . S
C1060 C1055 1.390 . S
C1060 C1059 1.387 . S
H1061 C1073 0.930 . S
H1062 C1075 0.930 . S
H1063 C1076 0.930 . S
H1064 C1080 0.959 . S
H1065 C1080 0.959 . S
H1066 C1080 0.961 . S
H1067 C1081 0.960 . S
H1068 C1081 0.961 . S
H1069 C1081 0.959 . S
H1070 C1084 0.929 . S
H1071 C1085 0.931 . S
H1072 C1087 0.930 . S
C1073 H1061 0.930 . S
C1073 C1074 1.399 . S
C1073 C1078 1.399 . S
C1074 C1073 1.399 . S
C1074 C1075 1.376 . S
C1075 H1062 0.930 . S
C1075 C1074 1.376 . S
C1075 C1076 1.388 . S
C1076 H1063 0.930 . S
C1076 C1075 1.388 . S
C1076 C1077 1.390 . S
C1077 C1076 1.390 . S
C1077 C1078 1.394 . S
C1077 C1083 1.465 . S
C1078 C1073 1.399 . S
C1078 C1077 1.394 . S
C1078 C1079 1.516 . S
C1079 C1078 1.516 . S
C1079 C1080 1.502 . S
C1079 C1081 1.561 . S
C1079 C1082 1.526 . S
C1080 H1064 0.959 . S
C1080 H1065 0.959 . S
C1080 H1066 0.961 . S
C1080 C1079 1.502 . S
C1081 H1067 0.960 . S
C1081 H1068 0.961 . S
C1081 H1069 0.959 . S
C1081 C1079 1.561 . S
C1082 C1079 1.526 . S
C1082 C1083 1.396 . S
C1082 C1087 1.390 . S
C1083 C1077 1.465 . S
C1083 C1082 1.396 . S
C1083 C1084 1.399 . S
C1084 H1070 0.929 . S
C1084 C1083 1.399 . S
C1084 C1085 1.385 . S
C1085 H1071 0.931 . S
C1085 C1084 1.385 . S
C1085 C1086 1.389 . S
C1086 C1085 1.389 . S
C1086 C1087 1.387 . S
C1087 H1072 0.930 . S
C1087 C1082 1.390 . S
C1087 C1086 1.387 . S
C237 C6 1.015 . S
C249 C62 1.034 . S
C264 C76 1.055 . S
C276 C20 1.055 . S
C291 C34 0.990 . S
C303 C90 0.972 . S
C318 C48 0.972 . S
C330 C104 0.991 . S
C345 C118 1.046 . S
C357 C174 1.000 . S
C372 C188 0.986 . S
C384 C132 0.952 . S
C399 C146 1.047 . S
C411 C202 1.001 . S
C426 C160 1.023 . S
C438 C216 1.054 . S
C453 C8 1.707 1_556 S
C465 C219 1.646 . S
C480 C177 1.666 . S
C492 C22 1.709 . S
C507 C36 1.709 . S
C519 C191 1.666 . S
C534 C205 1.691 . S
C546 C50 1.704 . S
C561 C135 1.694 . S
C573 C64 1.699 1_554 S
C588 C149 1.650 . S
C600 C78 1.705 . S
C615 C163 1.697 . S
C627 C92 1.701 1_554 S
C642 C121 1.682 . S
C654 C106 1.699 . S
C669 C120 1.702 1_554 S
C681 C107 1.696 . S
C696 C65 1.646 . S
C708 C134 1.703 . S
C723 C79 1.697 . S
C735 C148 1.704 1_554 S
C750 C162 1.709 . S
C762 C93 1.673 . S
C777 C23 1.668 . S
C789 C176 1.709 . S
C804 C190 1.709 . S
C816 C37 1.669 . S
C831 C204 1.701 1_556 S
C843 C51 1.693 . S
C858 C218 1.709 . S
C870 C9 1.671 . S
C885 C105 1.232 . S
C897 C7 1.207 . S
C912 C21 1.277 . S
C924 C63 1.312 . S
C939 C35 1.228 . S
C951 C77 1.206 . S
C966 C49 1.292 . S
C978 C91 1.320 . S
C993 C217 1.210 . S
C1005 C119 1.279 . S
C1020 C175 1.325 . S
C1032 C133 1.291 . S
C1047 C189 1.302 . S
C1059 C147 1.227 . S
C1074 C203 1.292 . S
C1086 C161 1.219 . S
