# Generated by pormake.
# Topology sin, (3)-cn, num edge types: 1
# Building blocks:
#     Node 0, Type 0, BuildingBlock: OLANEW_clean_sbu_2, # of connection points: 3
#     Node 1, Type 0, BuildingBlock: OLANEW_clean_sbu_2, # of connection points: 3
#     Node 2, Type 0, BuildingBlock: OLANEW_clean_sbu_2, # of connection points: 3
#     Node 3, Type 0, BuildingBlock: OLANEW_clean_sbu_2, # of connection points: 3
#     Node 4, Type 0, BuildingBlock: OLANEW_clean_sbu_2, # of connection points: 3
#     Node 5, Type 0, BuildingBlock: OLANEW_clean_sbu_2, # of connection points: 3
#     Node 6, Type 0, BuildingBlock: OLANEW_clean_sbu_2, # of connection points: 3
#     Node 7, Type 0, BuildingBlock: OLANEW_clean_sbu_2, # of connection points: 3
#     Node 8, Type 0, BuildingBlock: OLANEW_clean_sbu_2, # of connection points: 3
#     Node 9, Type 0, BuildingBlock: OLANEW_clean_sbu_2, # of connection points: 3
#     Node 10, Type 0, BuildingBlock: OLANEW_clean_sbu_2, # of connection points: 3
#     Node 11, Type 0, BuildingBlock: OLANEW_clean_sbu_2, # of connection points: 3
#     Node 12, Type 0, BuildingBlock: OLANEW_clean_sbu_2, # of connection points: 3
#     Node 13, Type 0, BuildingBlock: OLANEW_clean_sbu_2, # of connection points: 3
#     Node 14, Type 0, BuildingBlock: OLANEW_clean_sbu_2, # of connection points: 3
#     Node 15, Type 0, BuildingBlock: OLANEW_clean_sbu_2, # of connection points: 3
#     Node 16, Type 0, BuildingBlock: OLANEW_clean_sbu_2, # of connection points: 3
#     Node 17, Type 0, BuildingBlock: OLANEW_clean_sbu_2, # of connection points: 3
#     Node 18, Type 0, BuildingBlock: OLANEW_clean_sbu_2, # of connection points: 3
#     Node 19, Type 0, BuildingBlock: OLANEW_clean_sbu_2, # of connection points: 3
#     Node 20, Type 0, BuildingBlock: OLANEW_clean_sbu_2, # of connection points: 3
#     Node 21, Type 0, BuildingBlock: OLANEW_clean_sbu_2, # of connection points: 3
#     Node 22, Type 0, BuildingBlock: OLANEW_clean_sbu_2, # of connection points: 3
#     Node 23, Type 0, BuildingBlock: OLANEW_clean_sbu_2, # of connection points: 3
#     Node 24, Type 0, BuildingBlock: OLANEW_clean_sbu_2, # of connection points: 3
#     Node 25, Type 0, BuildingBlock: OLANEW_clean_sbu_2, # of connection points: 3
#     Node 26, Type 0, BuildingBlock: OLANEW_clean_sbu_2, # of connection points: 3
#     Node 27, Type 0, BuildingBlock: OLANEW_clean_sbu_2, # of connection points: 3
#     Node 28, Type 0, BuildingBlock: OLANEW_clean_sbu_2, # of connection points: 3
#     Node 29, Type 0, BuildingBlock: OLANEW_clean_sbu_2, # of connection points: 3
#     Node 30, Type 0, BuildingBlock: OLANEW_clean_sbu_2, # of connection points: 3
#     Node 31, Type 0, BuildingBlock: OLANEW_clean_sbu_2, # of connection points: 3
#     Node 32, Type 0, BuildingBlock: OLANEW_clean_sbu_2, # of connection points: 3
#     Node 33, Type 0, BuildingBlock: OLANEW_clean_sbu_2, # of connection points: 3
#     Node 34, Type 0, BuildingBlock: OLANEW_clean_sbu_2, # of connection points: 3
#     Node 35, Type 0, BuildingBlock: OLANEW_clean_sbu_2, # of connection points: 3
#     Node 36, Type 0, BuildingBlock: OLANEW_clean_sbu_2, # of connection points: 3
#     Node 37, Type 0, BuildingBlock: OLANEW_clean_sbu_2, # of connection points: 3
#     Node 38, Type 0, BuildingBlock: OLANEW_clean_sbu_2, # of connection points: 3
#     Node 39, Type 0, BuildingBlock: OLANEW_clean_sbu_2, # of connection points: 3
#     Node 40, Type 0, BuildingBlock: OLANEW_clean_sbu_2, # of connection points: 3
#     Node 41, Type 0, BuildingBlock: OLANEW_clean_sbu_2, # of connection points: 3
#     Node 42, Type 0, BuildingBlock: OLANEW_clean_sbu_2, # of connection points: 3
#     Node 43, Type 0, BuildingBlock: OLANEW_clean_sbu_2, # of connection points: 3
#     Node 44, Type 0, BuildingBlock: OLANEW_clean_sbu_2, # of connection points: 3
#     Node 45, Type 0, BuildingBlock: OLANEW_clean_sbu_2, # of connection points: 3
#     Node 46, Type 0, BuildingBlock: OLANEW_clean_sbu_2, # of connection points: 3
#     Node 47, Type 0, BuildingBlock: OLANEW_clean_sbu_2, # of connection points: 3
#     Edge 48, Type (0, 0), BuildingBlock: AJUNOK_clean_linker_0, # of connection points: 2
#     Edge 49, Type (0, 0), BuildingBlock: AJUNOK_clean_linker_0, # of connection points: 2
#     Edge 50, Type (0, 0), BuildingBlock: AJUNOK_clean_linker_0, # of connection points: 2
#     Edge 51, Type (0, 0), BuildingBlock: AJUNOK_clean_linker_0, # of connection points: 2
#     Edge 52, Type (0, 0), BuildingBlock: AJUNOK_clean_linker_0, # of connection points: 2
#     Edge 53, Type (0, 0), BuildingBlock: AJUNOK_clean_linker_0, # of connection points: 2
#     Edge 54, Type (0, 0), BuildingBlock: AJUNOK_clean_linker_0, # of connection points: 2
#     Edge 55, Type (0, 0), BuildingBlock: AJUNOK_clean_linker_0, # of connection points: 2
#     Edge 56, Type (0, 0), BuildingBlock: AJUNOK_clean_linker_0, # of connection points: 2
#     Edge 57, Type (0, 0), BuildingBlock: AJUNOK_clean_linker_0, # of connection points: 2
#     Edge 58, Type (0, 0), BuildingBlock: AJUNOK_clean_linker_0, # of connection points: 2
#     Edge 59, Type (0, 0), BuildingBlock: AJUNOK_clean_linker_0, # of connection points: 2
#     Edge 60, Type (0, 0), BuildingBlock: AJUNOK_clean_linker_0, # of connection points: 2
#     Edge 61, Type (0, 0), BuildingBlock: AJUNOK_clean_linker_0, # of connection points: 2
#     Edge 62, Type (0, 0), BuildingBlock: AJUNOK_clean_linker_0, # of connection points: 2
#     Edge 63, Type (0, 0), BuildingBlock: AJUNOK_clean_linker_0, # of connection points: 2
#     Edge 64, Type (0, 0), BuildingBlock: AJUNOK_clean_linker_0, # of connection points: 2
#     Edge 65, Type (0, 0), BuildingBlock: AJUNOK_clean_linker_0, # of connection points: 2
#     Edge 66, Type (0, 0), BuildingBlock: AJUNOK_clean_linker_0, # of connection points: 2
#     Edge 67, Type (0, 0), BuildingBlock: AJUNOK_clean_linker_0, # of connection points: 2
#     Edge 68, Type (0, 0), BuildingBlock: AJUNOK_clean_linker_0, # of connection points: 2
#     Edge 69, Type (0, 0), BuildingBlock: AJUNOK_clean_linker_0, # of connection points: 2
#     Edge 70, Type (0, 0), BuildingBlock: AJUNOK_clean_linker_0, # of connection points: 2
#     Edge 71, Type (0, 0), BuildingBlock: AJUNOK_clean_linker_0, # of connection points: 2
#     Edge 72, Type (0, 0), BuildingBlock: AJUNOK_clean_linker_0, # of connection points: 2
#     Edge 73, Type (0, 0), BuildingBlock: AJUNOK_clean_linker_0, # of connection points: 2
#     Edge 74, Type (0, 0), BuildingBlock: AJUNOK_clean_linker_0, # of connection points: 2
#     Edge 75, Type (0, 0), BuildingBlock: AJUNOK_clean_linker_0, # of connection points: 2
#     Edge 76, Type (0, 0), BuildingBlock: AJUNOK_clean_linker_0, # of connection points: 2
#     Edge 77, Type (0, 0), BuildingBlock: AJUNOK_clean_linker_0, # of connection points: 2
#     Edge 78, Type (0, 0), BuildingBlock: AJUNOK_clean_linker_0, # of connection points: 2
#     Edge 79, Type (0, 0), BuildingBlock: AJUNOK_clean_linker_0, # of connection points: 2
#     Edge 80, Type (0, 0), BuildingBlock: AJUNOK_clean_linker_0, # of connection points: 2
#     Edge 81, Type (0, 0), BuildingBlock: AJUNOK_clean_linker_0, # of connection points: 2
#     Edge 82, Type (0, 0), BuildingBlock: AJUNOK_clean_linker_0, # of connection points: 2
#     Edge 83, Type (0, 0), BuildingBlock: AJUNOK_clean_linker_0, # of connection points: 2
#     Edge 84, Type (0, 0), BuildingBlock: AJUNOK_clean_linker_0, # of connection points: 2
#     Edge 85, Type (0, 0), BuildingBlock: AJUNOK_clean_linker_0, # of connection points: 2
#     Edge 86, Type (0, 0), BuildingBlock: AJUNOK_clean_linker_0, # of connection points: 2
#     Edge 87, Type (0, 0), BuildingBlock: AJUNOK_clean_linker_0, # of connection points: 2
#     Edge 88, Type (0, 0), BuildingBlock: AJUNOK_clean_linker_0, # of connection points: 2
#     Edge 89, Type (0, 0), BuildingBlock: AJUNOK_clean_linker_0, # of connection points: 2
#     Edge 90, Type (0, 0), BuildingBlock: AJUNOK_clean_linker_0, # of connection points: 2
#     Edge 91, Type (0, 0), BuildingBlock: AJUNOK_clean_linker_0, # of connection points: 2
#     Edge 92, Type (0, 0), BuildingBlock: AJUNOK_clean_linker_0, # of connection points: 2
#     Edge 93, Type (0, 0), BuildingBlock: AJUNOK_clean_linker_0, # of connection points: 2
#     Edge 94, Type (0, 0), BuildingBlock: AJUNOK_clean_linker_0, # of connection points: 2
#     Edge 95, Type (0, 0), BuildingBlock: AJUNOK_clean_linker_0, # of connection points: 2
#     Edge 96, Type (0, 0), BuildingBlock: AJUNOK_clean_linker_0, # of connection points: 2
#     Edge 97, Type (0, 0), BuildingBlock: AJUNOK_clean_linker_0, # of connection points: 2
#     Edge 98, Type (0, 0), BuildingBlock: AJUNOK_clean_linker_0, # of connection points: 2
#     Edge 99, Type (0, 0), BuildingBlock: AJUNOK_clean_linker_0, # of connection points: 2
#     Edge 100, Type (0, 0), BuildingBlock: AJUNOK_clean_linker_0, # of connection points: 2
#     Edge 101, Type (0, 0), BuildingBlock: AJUNOK_clean_linker_0, # of connection points: 2
#     Edge 102, Type (0, 0), BuildingBlock: AJUNOK_clean_linker_0, # of connection points: 2
#     Edge 103, Type (0, 0), BuildingBlock: AJUNOK_clean_linker_0, # of connection points: 2
#     Edge 104, Type (0, 0), BuildingBlock: AJUNOK_clean_linker_0, # of connection points: 2
#     Edge 105, Type (0, 0), BuildingBlock: AJUNOK_clean_linker_0, # of connection points: 2
#     Edge 106, Type (0, 0), BuildingBlock: AJUNOK_clean_linker_0, # of connection points: 2
#     Edge 107, Type (0, 0), BuildingBlock: AJUNOK_clean_linker_0, # of connection points: 2
#     Edge 108, Type (0, 0), BuildingBlock: AJUNOK_clean_linker_0, # of connection points: 2
#     Edge 109, Type (0, 0), BuildingBlock: AJUNOK_clean_linker_0, # of connection points: 2
#     Edge 110, Type (0, 0), BuildingBlock: AJUNOK_clean_linker_0, # of connection points: 2
#     Edge 111, Type (0, 0), BuildingBlock: AJUNOK_clean_linker_0, # of connection points: 2
#     Edge 112, Type (0, 0), BuildingBlock: AJUNOK_clean_linker_0, # of connection points: 2
#     Edge 113, Type (0, 0), BuildingBlock: AJUNOK_clean_linker_0, # of connection points: 2
#     Edge 114, Type (0, 0), BuildingBlock: AJUNOK_clean_linker_0, # of connection points: 2
#     Edge 115, Type (0, 0), BuildingBlock: AJUNOK_clean_linker_0, # of connection points: 2
#     Edge 116, Type (0, 0), BuildingBlock: AJUNOK_clean_linker_0, # of connection points: 2
#     Edge 117, Type (0, 0), BuildingBlock: AJUNOK_clean_linker_0, # of connection points: 2
#     Edge 118, Type (0, 0), BuildingBlock: AJUNOK_clean_linker_0, # of connection points: 2
#     Edge 119, Type (0, 0), BuildingBlock: AJUNOK_clean_linker_0, # of connection points: 2
# Relax obj value: 0.030
# Max RMSD: 0.041
# Mean RMSD: 0.024
data_MOF--net-sin--node1-OLANEW_clean_sbu_2--edge1-AJUNOK_clean_linker_0
_symmetry_space_group_name_H-M    P1
_symmetry_Int_Tables_number       1
_symmetry_cell_setting            triclinic
loop_
_symmetry_equiv_pos_as_xyz
'x, y, z'
_cell_length_a     64.353265
_cell_length_b     64.474381
_cell_length_c     64.124597
_cell_angle_alpha  89.316393
_cell_angle_beta   89.827067
_cell_angle_gamma 89.458332
loop_
_atom_site_label
_atom_site_type_symbol
_atom_site_fract_x
_atom_site_fract_y
_atom_site_fract_z
_atom_type_partial_charge
O0 O 0.9574 0.36834 0.42693 0.0
Cd1 Cd 0.96219 0.40352 0.44 0.0
O2 O 0.98053 0.35407 0.4479 0.0
Cd3 Cd -0.00618 0.38358 0.45695 0.0
O4 O 0.02276 0.40051 0.45294 0.0
C5 C 0.03048 0.39948 0.4347 0.0
O6 O 0.01994 0.3898 0.42031 0.0
C7 C 0.96652 0.3522 0.43415 0.0
C8 C 0.92435 0.42533 0.44059 0.0
O9 O 0.93671 0.4267 0.42494 0.0
O10 O 0.93 0.41384 0.45603 0.0
O11 O 0.93756 0.89992 0.27772 0.0
Cd12 Cd 0.93227 0.9361 0.28741 0.0
O13 O 0.96972 0.90891 0.27154 0.0
Cd14 Cd 0.00194 0.90397 0.26159 0.0
O15 O 0.03472 0.89741 0.25551 0.0
C16 C 0.04738 0.91155 0.25023 0.0
O17 O 0.04044 0.93068 0.24803 0.0
C18 C 0.95597 0.89487 0.27256 0.0
C19 C 0.92418 0.93913 0.33001 0.0
O20 O 0.90934 0.93946 0.31672 0.0
O21 O 0.94284 0.93745 0.32317 0.0
O22 O 0.69978 0.78782 0.9098 0.0
Cd23 Cd 0.69985 0.75342 0.92622 0.0
O24 O 0.69921 0.80333 0.94011 0.0
Cd25 Cd 0.68635 0.77557 0.95471 0.0
O26 O 0.65538 0.76199 0.95379 0.0
C27 C 0.64359 0.77072 0.94037 0.0
O28 O 0.65122 0.7859 0.92892 0.0
C29 C 0.70112 0.80433 0.92038 0.0
C30 C 0.74086 0.74148 0.93421 0.0
O31 O 0.73158 0.73564 0.91766 0.0
O32 O 0.73057 0.75254 0.94719 0.0
O33 O 0.70557 0.26975 0.7827 0.0
Cd34 Cd 0.70162 0.23514 0.79799 0.0
O35 O 0.67159 0.27307 0.78198 0.0
Cd36 Cd 0.66191 0.24166 0.78997 0.0
O37 O 0.63071 0.23124 0.78233 0.0
C38 C 0.6246 0.23739 0.76443 0.0
O39 O 0.63793 0.24716 0.75236 0.0
C40 C 0.68947 0.28077 0.7791 0.0
C41 C 0.71154 0.23654 0.84024 0.0
O42 O 0.72503 0.23067 0.82674 0.0
O43 O 0.69325 0.24127 0.8338 0.0
O44 O 0.96143 0.79764 0.24471 0.0
Cd45 Cd 0.96604 0.76116 0.23537 0.0
O46 O 0.99128 0.79965 0.26115 0.0
Cd47 Cd 0.00283 0.76812 0.25615 0.0
O48 O 0.0306 0.74838 0.25798 0.0
C49 C 0.04334 0.74883 0.24281 0.0
O50 O 0.03828 0.75962 0.22603 0.0
C51 C 0.97443 0.80813 0.25502 0.0
C52 C 0.92806 0.74033 0.23476 0.0
O53 O 0.93953 0.74008 0.25108 0.0
O54 O 0.93463 0.75034 0.2187 0.0
O55 O 0.69409 0.90157 0.88809 0.0
Cd56 Cd 0.68329 0.93386 0.87075 0.0
O57 O 0.67403 0.8841 0.86709 0.0
Cd58 Cd 0.65337 0.91066 0.86198 0.0
O59 O 0.62394 0.91674 0.87797 0.0
C60 C 0.62414 0.91225 0.89734 0.0
O61 O 0.64185 0.90631 0.90575 0.0
C62 C 0.68819 0.88432 0.88088 0.0
C63 C 0.70239 0.93672 0.8316 0.0
O64 O 0.71043 0.94519 0.84761 0.0
O65 O 0.68521 0.92711 0.83407 0.0
O66 O 0.71476 0.37577 0.75159 0.0
Cd67 Cd 0.71925 0.41151 0.73948 0.0
O68 O 0.68077 0.37838 0.74945 0.0
Cd69 Cd 0.67711 0.41167 0.74401 0.0
O70 O 0.64961 0.43017 0.75178 0.0
C71 C 0.63338 0.4269 0.74111 0.0
O72 O 0.63499 0.41486 0.72478 0.0
C73 C 0.69697 0.36746 0.75286 0.0
C74 C 0.76107 0.41856 0.73078 0.0
O75 O 0.75305 0.42401 0.74822 0.0
O76 O 0.74923 0.41015 0.71733 0.0
O77 O 0.93007 0.26874 0.3912 0.0
Cd78 Cd 0.92135 0.23814 0.37107 0.0
O79 O 0.96296 0.25964 0.39246 0.0
Cd80 Cd -0.00398 0.26491 0.39817 0.0
O81 O 0.02894 0.27118 0.40292 0.0
C82 C 0.03906 0.26313 0.41803 0.0
O83 O 0.02937 0.25068 0.4311 0.0
C84 C 0.94852 0.27247 0.39693 0.0
C85 C 0.9251 0.24698 0.32857 0.0
O86 O 0.90891 0.25243 0.33889 0.0
O87 O 0.93952 0.23697 0.33821 0.0
O88 O 0.41158 0.9699 0.37487 0.0
Cd89 Cd 0.42393 0.97399 0.4107 0.0
O90 O 0.44316 0.96912 0.36165 0.0
Cd91 Cd 0.45419 0.98516 0.38916 0.0
O92 O 0.44979 0.01646 0.40128 0.0
C93 C 0.43826 0.02788 0.38976 0.0
O94 O 0.43067 0.01985 0.37269 0.0
C95 C 0.42367 0.96704 0.3594 0.0
C96 C 0.42684 0.93557 0.4314 0.0
O97 O 0.41044 0.94692 0.43286 0.0
O98 O 0.4419 0.9425 0.4203 0.0
O99 O 0.25754 0.79894 0.72434 0.0
Cd100 Cd 0.2239 0.81679 0.72359 0.0
O101 O 0.25149 0.79099 0.69191 0.0
Cd102 Cd 0.25819 0.78033 0.66026 0.0
O103 O 0.26281 0.77413 0.62713 0.0
C104 C 0.25519 0.75841 0.61825 0.0
O105 O 0.2445 0.74504 0.62946 0.0
C106 C 0.26363 0.79052 0.70755 0.0
C107 C 0.22756 0.85812 0.73541 0.0
O108 O 0.222 0.84411 0.74857 0.0
O109 O 0.23142 0.8526 0.71666 0.0
O110 O 0.26681 0.18859 0.86008 0.0
Cd111 Cd 0.25741 0.18807 0.89707 0.0
O112 O 0.23451 0.19544 0.85093 0.0
Cd113 Cd 0.22426 0.18091 0.87998 0.0
O114 O 0.22819 0.1511 0.89609 0.0
C115 C 0.22512 0.13509 0.88516 0.0
O116 O 0.2187 0.13765 0.86586 0.0
C117 C 0.25368 0.19408 0.84622 0.0
C118 C 0.25171 0.2291 0.90956 0.0
O119 O 0.26891 0.2195 0.91305 0.0
O120 O 0.23708 0.21912 0.90078 0.0
O121 O 0.39755 0.36997 0.19132 0.0
Cd122 Cd 0.42831 0.34956 0.18204 0.0
O123 O 0.41051 0.40043 0.18312 0.0
Cd124 Cd 0.4369 0.38796 0.16576 0.0
O125 O 0.44323 0.39011 0.13231 0.0
C126 C 0.44248 0.40827 0.12437 0.0
O127 O 0.44005 0.42406 0.13693 0.0
C128 C 0.39583 0.38963 0.19071 0.0
C129 C 0.42881 0.31237 0.20497 0.0
O130 O 0.43845 0.32836 0.21143 0.0
O131 O 0.41923 0.31391 0.18753 0.0
O132 O 0.4191 0.20523 0.31559 0.0
Cd133 Cd 0.43175 0.20023 0.27988 0.0
O134 O 0.44175 0.18288 0.32852 0.0
Cd135 Cd 0.44996 0.16981 0.29843 0.0
O136 O 0.44452 0.14015 0.28351 0.0
C137 C 0.43348 0.12802 0.29461 0.0
O138 O 0.42686 0.13458 0.31281 0.0
C139 C 0.42744 0.19629 0.33131 0.0
C140 C 0.42994 0.23641 0.25538 0.0
O141 O 0.41498 0.22343 0.25552 0.0
O142 O 0.44567 0.23236 0.267 0.0
O143 O 0.39882 0.79634 0.482 0.0
Cd144 Cd 0.42839 0.81634 0.49427 0.0
O145 O 0.41127 0.76546 0.49028 0.0
Cd146 Cd 0.43652 0.77645 0.50971 0.0
O147 O 0.4392 0.76841 0.54281 0.0
C148 C 0.4347 0.74967 0.54713 0.0
O149 O 0.43082 0.73715 0.53164 0.0
C150 C 0.39716 0.77669 0.48198 0.0
C151 C 0.4295 0.85515 0.47418 0.0
O152 O 0.43978 0.83963 0.4671 0.0
O153 O 0.41879 0.85235 0.49084 0.0
O154 O 0.25908 0.98178 0.81021 0.0
Cd155 Cd 0.24722 0.98385 0.774 0.0
O156 O 0.22755 0.9757 0.82205 0.0
Cd157 Cd 0.2156 0.99124 0.79417 0.0
O158 O 0.22094 0.02186 0.78031 0.0
C159 C 0.22967 0.03441 0.7926 0.0
O160 O 0.2339 0.028 0.81166 0.0
C161 C 0.24704 0.97656 0.82512 0.0
C162 C 0.23939 0.94373 0.76024 0.0
O163 O 0.25676 0.95252 0.75626 0.0
O164 O 0.22559 0.95409 0.77023 0.0
O165 O 0.27302 0.3756 0.94369 0.0
Cd166 Cd 0.2397 0.35769 0.94266 0.0
O167 O 0.26423 0.38272 0.97577 0.0
Cd168 Cd 0.26833 0.39256 0.00806 0.0
O169 O 0.2696 0.39864 0.04147 0.0
C170 C 0.26287 0.41546 0.04928 0.0
O171 O 0.25529 0.42995 0.03681 0.0
C172 C 0.27733 0.38407 0.96091 0.0
C173 C 0.2434 0.31609 0.93152 0.0
O174 O 0.23873 0.33011 0.91795 0.0
O175 O 0.24658 0.32175 0.95032 0.0
O176 O 0.37459 0.41294 0.96371 0.0
Cd177 Cd 0.40984 0.42606 0.96853 0.0
O178 O 0.36247 0.42937 0.99109 0.0
Cd179 Cd 0.39299 0.43696 0.00355 0.0
O180 O 0.4136 0.43613 0.03058 0.0
C181 C 0.41983 0.41856 0.03741 0.0
O182 O 0.41501 0.40192 0.02689 0.0
C183 C 0.35932 0.41835 0.97513 0.0
C184 C 0.43066 0.43073 0.93044 0.0
O185 O 0.43287 0.41422 0.94157 0.0
O186 O 0.41861 0.44504 0.93733 0.0
O187 O 0.88845 0.28153 0.19182 0.0
Cd188 Cd 0.92495 0.27216 0.19704 0.0
O189 O 0.87819 0.24919 0.193 0.0
Cd190 Cd 0.90917 0.23993 0.18249 0.0
O191 O 0.92575 0.2422 0.15274 0.0
C192 C 0.91958 0.23053 0.13822 0.0
O193 O 0.90537 0.21663 0.14263 0.0
C194 C 0.87381 0.26846 0.19306 0.0
C195 C 0.92922 0.26451 0.23967 0.0
O196 O 0.93037 0.28293 0.23208 0.0
O197 O 0.92698 0.24947 0.22701 0.0
O198 O 0.79266 0.69056 0.27246 0.0
Cd199 Cd 0.8103 0.67764 0.24135 0.0
O200 O 0.76174 0.6776 0.2666 0.0
Cd201 Cd 0.77023 0.65716 0.24101 0.0
O202 O 0.76241 0.62418 0.24076 0.0
C203 C 0.74989 0.61947 0.25544 0.0
O204 O 0.74315 0.6344 0.26755 0.0
C205 C 0.77369 0.6885 0.27766 0.0
C206 C 0.84876 0.69724 0.23705 0.0
O207 O 0.83258 0.70427 0.22763 0.0
O208 O 0.84679 0.6808 0.24829 0.0
O209 O 0.79797 0.92388 0.71238 0.0
Cd210 Cd 0.76178 0.93592 0.71075 0.0
O211 O 0.79657 0.90809 0.68222 0.0
Cd212 Cd 0.76443 0.91535 0.67378 0.0
O213 O 0.74316 0.91484 0.64728 0.0
C214 C 0.74256 0.93044 0.63501 0.0
O215 O 0.75318 0.94697 0.63994 0.0
C216 C 0.80677 0.9132 0.69826 0.0
C217 C 0.743 0.937 0.75015 0.0
O218 O 0.74131 0.92113 0.73844 0.0
O219 O 0.75355 0.95237 0.7432 0.0
O220 O 0.39096 0.93609 0.26829 0.0
Cd221 Cd 0.37659 0.93577 0.2331 0.0
O222 O 0.38784 0.96977 0.26451 0.0
Cd223 Cd 0.39267 0.00152 0.27487 0.0
O224 O 0.40064 0.03327 0.28288 0.0
C225 C 0.41176 0.044 0.27048 0.0
O226 O 0.41813 0.03563 0.25299 0.0
C227 C 0.39265 0.95412 0.2758 0.0
C228 C 0.3336 0.93104 0.23461 0.0
O229 O 0.34567 0.91551 0.23124 0.0
O230 O 0.34182 0.94884 0.23718 0.0
O231 O 0.29987 0.75735 0.46909 0.0
Cd232 Cd 0.26256 0.75114 0.47216 0.0
O233 O 0.31016 0.7263 0.47921 0.0
Cd234 Cd 0.27939 0.71961 0.49172 0.0
O235 O 0.26521 0.72544 0.5221 0.0
C236 C 0.27158 0.74199 0.53045 0.0
O237 O 0.28454 0.7537 0.51982 0.0
C238 C 0.31447 0.74425 0.47213 0.0
C239 C 0.24522 0.74462 0.43303 0.0
O240 O 0.24936 0.76292 0.43924 0.0
O241 O 0.24914 0.72927 0.44532 0.0
O242 O 0.78992 0.4773 0.40012 0.0
Cd243 Cd 0.80596 0.4888 0.43247 0.0
O244 O 0.81138 0.49704 0.38225 0.0
Cd245 Cd 0.8152 0.51825 0.40825 0.0
O246 O 0.80124 0.54774 0.41784 0.0
C247 C 0.78213 0.54982 0.41316 0.0
O248 O 0.77274 0.53408 0.40455 0.0
C249 C 0.79794 0.48271 0.38277 0.0
C250 C 0.84458 0.46901 0.43739 0.0
O251 O 0.82812 0.46157 0.44579 0.0
O252 O 0.84281 0.48596 0.42687 0.0
O253 O 0.88765 0.71124 0.91521 0.0
Cd254 Cd 0.87004 0.7088 0.94894 0.0
O255 O 0.89609 0.67851 0.91974 0.0
Cd256 Cd 0.90754 0.64818 0.90949 0.0
O257 O 0.91663 0.61704 0.89968 0.0
C258 C 0.93054 0.60666 0.90937 0.0
O259 O 0.93974 0.6151 0.9254 0.0
C260 C 0.89655 0.69493 0.90856 0.0
C261 C 0.82806 0.71946 0.94561 0.0
O262 O 0.84153 0.73285 0.95108 0.0
O263 O 0.83446 0.70103 0.94169 0.0
O264 O 0.46568 0.85265 0.91803 0.0
Cd265 Cd 0.46744 0.88898 0.92825 0.0
O266 O 0.49258 0.84335 0.93708 0.0
Cd267 Cd 0.50377 0.87509 0.93958 0.0
O268 O 0.52957 0.89464 0.92951 0.0
C269 C 0.54663 0.89271 0.93929 0.0
O270 O 0.54721 0.88058 0.9559 0.0
C271 C 0.47728 0.83845 0.92572 0.0
C272 C 0.42717 0.9035 0.93592 0.0
O273 O 0.4361 0.90702 0.91836 0.0
O274 O 0.43744 0.89359 0.94999 0.0
O275 O 0.47684 0.40604 0.79191 0.0
Cd276 Cd 0.48383 0.43973 0.80728 0.0
O277 O 0.50506 0.39366 0.80691 0.0
Cd278 Cd 0.52013 0.4237 0.8097 0.0
O279 O 0.54878 0.4363 0.79647 0.0
C280 C 0.551 0.43418 0.7769 0.0
O281 O 0.53543 0.42665 0.76625 0.0
C282 C 0.48825 0.39064 0.79704 0.0
C283 C 0.4686 0.4388 0.84815 0.0
O284 O 0.45764 0.44635 0.83317 0.0
O285 O 0.48697 0.43228 0.84388 0.0
O286 O 0.19852 0.31754 0.41343 0.0
Cd287 Cd 0.19467 0.28155 0.42509 0.0
O288 O 0.1788 0.32963 0.4386 0.0
Cd289 Cd 0.1655 0.2995 0.44629 0.0
O290 O 0.13637 0.28257 0.44422 0.0
C291 C 0.12541 0.2876 0.42847 0.0
O292 O 0.133 0.30109 0.415 0.0
C293 C 0.19098 0.33288 0.42329 0.0
C294 C 0.23403 0.26465 0.43291 0.0
O295 O 0.22498 0.26182 0.41541 0.0
O296 O 0.22425 0.27501 0.44682 0.0
O297 O 0.19696 0.76883 0.29445 0.0
Cd298 Cd 0.19521 0.73404 0.30981 0.0
O299 O 0.18555 0.75971 0.26366 0.0
Cd300 Cd 0.17154 0.73075 0.2742 0.0
O301 O 0.13845 0.72399 0.27131 0.0
C302 C 0.13078 0.72864 0.2536 0.0
O303 O 0.14346 0.7349 0.23874 0.0
C304 C 0.19334 0.77329 0.27543 0.0
C305 C 0.2113 0.7348 0.35012 0.0
O306 O 0.22332 0.73451 0.33417 0.0
O307 O 0.19163 0.73443 0.34714 0.0
O308 O 0.47084 0.30351 0.74911 0.0
Cd309 Cd 0.46976 0.26993 0.73202 0.0
O310 O 0.4864 0.29183 0.77744 0.0
Cd311 Cd 0.4944 0.2612 0.76556 0.0
O312 O 0.52348 0.24355 0.76373 0.0
C313 C 0.5365 0.24916 0.7499 0.0
O314 O 0.53086 0.26357 0.73634 0.0
C315 C 0.47781 0.30663 0.76733 0.0
C316 C 0.42844 0.25854 0.72662 0.0
O317 O 0.439 0.25164 0.74219 0.0
O318 O 0.43756 0.27045 0.71342 0.0
O319 O 0.22388 0.4212 0.38413 0.0
Cd320 Cd 0.22512 0.45504 0.3667 0.0
O321 O 0.19121 0.42908 0.3896 0.0
Cd322 Cd 0.15892 0.42264 0.39795 0.0
O323 O 0.12587 0.41724 0.40303 0.0
C324 C 0.11696 0.42146 0.42019 0.0
O325 O 0.12804 0.42903 0.43545 0.0
C326 C 0.20625 0.41625 0.39148 0.0
C327 C 0.23304 0.45098 0.32419 0.0
O328 O 0.2477 0.45493 0.33699 0.0
O329 O 0.21461 0.44893 0.33149 0.0
O330 O 0.20143 0.87335 0.26269 0.0
Cd331 Cd 0.20326 0.9101 0.25319 0.0
O332 O 0.19143 0.86568 0.23105 0.0
Cd333 Cd 0.17931 0.89688 0.22531 0.0
O334 O 0.14744 0.90811 0.22936 0.0
C335 C 0.1355 0.894 0.2363 0.0
O336 O 0.14355 0.87553 0.24005 0.0
C337 C 0.19768 0.85981 0.24897 0.0
C338 C 0.24478 0.91922 0.24504 0.0
O339 O 0.23661 0.92323 0.26281 0.0
O340 O 0.23316 0.91153 0.23097 0.0
O341 O 0.45 0.74743 0.89125 0.0
Cd342 Cd 0.44958 0.71437 0.87307 0.0
O343 O 0.48309 0.74174 0.89697 0.0
Cd344 Cd 0.51488 0.75021 0.90523 0.0
O345 O 0.54711 0.75774 0.91232 0.0
C346 C 0.55682 0.74883 0.92722 0.0
O347 O 0.54706 0.73498 0.93869 0.0
C348 C 0.46717 0.75347 0.89864 0.0
C349 C 0.43908 0.72095 0.83131 0.0
O350 O 0.42532 0.71562 0.84477 0.0
O351 O 0.45786 0.72284 0.83753 0.0
O352 O 0.92326 0.46422 0.85908 0.0
Cd353 Cd 0.93476 0.46695 0.8954 0.0
O354 O 0.955 0.46642 0.84642 0.0
Cd355 Cd 0.96526 0.48037 0.87537 0.0
O356 O 0.96176 0.51027 0.89074 0.0
C357 C 0.94877 0.5224 0.88183 0.0
O358 O 0.93901 0.51575 0.86525 0.0
C359 C 0.93572 0.46335 0.84366 0.0
C360 C 0.93161 0.42944 0.91773 0.0
O361 O 0.9169 0.44298 0.91803 0.0
O362 O 0.94773 0.43355 0.90671 0.0
O363 O 0.77255 0.28368 0.19633 0.0
Cd364 Cd 0.73755 0.29816 0.19232 0.0
O365 O 0.78235 0.30467 0.17096 0.0
Cd366 Cd 0.75192 0.30505 0.15599 0.0
O367 O 0.74 0.29106 0.12762 0.0
C368 C 0.74294 0.27161 0.12609 0.0
O369 O 0.75082 0.26149 0.14218 0.0
C370 C 0.78696 0.29249 0.18602 0.0
C371 C 0.73912 0.33942 0.20521 0.0
O372 O 0.73334 0.32501 0.21782 0.0
O373 O 0.7434 0.33443 0.18641 0.0
O374 O 0.76739 0.71172 0.37575 0.0
Cd375 Cd 0.76748 0.71112 0.41386 0.0
O376 O 0.74241 0.68898 0.37268 0.0
Cd377 Cd 0.74481 0.67798 0.4049 0.0
O378 O 0.75456 0.64787 0.41776 0.0
C379 C 0.74496 0.6324 0.41053 0.0
O380 O 0.72941 0.63594 0.3977 0.0
C381 C 0.75484 0.70186 0.36434 0.0
C382 C 0.75486 0.7494 0.42959 0.0
O383 O 0.77346 0.7464 0.42304 0.0
O384 O 0.7421 0.73429 0.42879 0.0
O385 O 0.89946 0.88149 0.72576 0.0
Cd386 Cd 0.93523 0.86848 0.72699 0.0
O387 O 0.90678 0.88941 0.69333 0.0
Cd388 Cd 0.90126 0.90163 0.6618 0.0
O389 O 0.89692 0.90782 0.62853 0.0
C390 C 0.9075 0.92122 0.61854 0.0
O391 O 0.92121 0.93221 0.62864 0.0
C392 C 0.89359 0.8885 0.70813 0.0
C393 C 0.93663 0.82626 0.73698 0.0
O394 O 0.93956 0.83998 0.75094 0.0
O395 O 0.93302 0.83248 0.71828 0.0
O396 O 0.91781 0.69751 0.80918 0.0
Cd397 Cd 0.92922 0.69761 0.77276 0.0
O398 O 0.94565 0.68059 0.81985 0.0
Cd399 Cd 0.95278 0.66951 0.78865 0.0
O400 O 0.94737 0.64047 0.77254 0.0
C401 C 0.9309 0.63131 0.77842 0.0
O402 O 0.91886 0.64056 0.79211 0.0
C403 C 0.929 0.69047 0.82403 0.0
C404 C 0.93362 0.73867 0.75932 0.0
O405 O 0.91698 0.72864 0.75553 0.0
O406 O 0.94834 0.72911 0.76894 0.0
O407 O 0.89415 0.29455 0.97663 0.0
Cd408 Cd 0.92618 0.31271 0.98512 0.0
O409 O 0.90032 0.26611 -0.00494 0.0
Cd410 Cd 0.92845 0.2749 0.01154 0.0
O411 O 0.93685 0.2677 0.04392 0.0
C412 C 0.93117 0.24985 0.05023 0.0
O413 O 0.92261 0.2374 0.0367 0.0
C414 C 0.88879 0.27651 0.98262 0.0
C415 C 0.92768 0.3509 0.96382 0.0
O416 O 0.9364 0.33466 0.95629 0.0
O417 O 0.9185 0.34911 0.9815 0.0
O418 O 0.77086 0.46278 0.28622 0.0
Cd419 Cd 0.75362 0.46318 0.25221 0.0
O420 O 0.74269 0.47475 0.30151 0.0
Cd421 Cd 0.73074 0.48752 0.27221 0.0
O422 O 0.7322 0.519 0.25923 0.0
C423 C 0.7306 0.53282 0.27314 0.0
O424 O 0.72748 0.5268 0.29253 0.0
C425 C 0.76101 0.46731 0.3028 0.0
C426 C 0.74887 0.4234 0.23614 0.0
O427 O 0.76453 0.43458 0.23118 0.0
O428 O 0.73549 0.43099 0.24885 0.0
O429 O 0.76037 0.889 0.47466 0.0
Cd430 Cd 0.7274 0.87061 0.47677 0.0
O431 O 0.75066 0.91599 0.49308 0.0
Cd432 Cd 0.72253 0.90294 0.50671 0.0
O433 O 0.71619 0.90463 0.54016 0.0
C434 C 0.71994 0.9222 0.54804 0.0
O435 O 0.72507 0.93752 0.53538 0.0
C436 C 0.76413 0.90687 0.48182 0.0
C437 C 0.73311 0.83066 0.46141 0.0
O438 O 0.73085 0.84625 0.44903 0.0
O439 O 0.73235 0.83381 0.48109 0.0
O440 O 0.86208 0.92678 0.46572 0.0
Cd441 Cd 0.89803 0.93796 0.46156 0.0
O442 O 0.85377 0.95518 0.48246 0.0
Cd443 Cd 0.88579 0.96118 0.49131 0.0
O444 O 0.90001 0.95403 0.52145 0.0
C445 C 0.89174 0.93849 0.53051 0.0
O446 O 0.87718 0.92848 0.52057 0.0
C447 C 0.84829 0.93854 0.47369 0.0
C448 C 0.90758 0.93988 0.41913 0.0
O449 O 0.91296 0.9241 0.43026 0.0
O450 O 0.89815 0.95491 0.42814 0.0
O451 O 0.36224 0.76133 0.70947 0.0
Cd452 Cd 0.39731 0.74678 0.70625 0.0
O453 O 0.35106 0.74641 0.68106 0.0
Cd454 Cd 0.38219 0.73886 0.66962 0.0
O455 O 0.40435 0.74216 0.64392 0.0
C456 C 0.4054 0.72815 0.63019 0.0
O457 O 0.39432 0.71131 0.63289 0.0
C458 C 0.3474 0.75703 0.69726 0.0
C459 C 0.41316 0.73764 0.74583 0.0
O460 O 0.41757 0.75471 0.73646 0.0
O461 O 0.40147 0.72482 0.7364 0.0
O462 O 0.28505 0.22283 0.75312 0.0
Cd463 Cd 0.29974 0.2246 0.71802 0.0
O464 O 0.28448 0.18904 0.74959 0.0
Cd465 Cd 0.27648 0.15802 0.76111 0.0
O466 O 0.26594 0.12818 0.7735 0.0
C467 C 0.25609 0.11568 0.76207 0.0
O468 O 0.25254 0.12089 0.74252 0.0
C469 C 0.28129 0.20497 0.76069 0.0
C470 C 0.34143 0.23598 0.71938 0.0
O471 O 0.32708 0.24955 0.7162 0.0
O472 O 0.33606 0.21701 0.72185 0.0
O473 O 0.29798 0.41389 0.19738 0.0
Cd474 Cd 0.26225 0.42689 0.19596 0.0
O475 O 0.31046 0.44476 0.19033 0.0
Cd476 Cd 0.28117 0.45459 0.17618 0.0
O477 O 0.26833 0.44963 0.14516 0.0
C478 C 0.27236 0.43175 0.13794 0.0
O479 O 0.28226 0.41833 0.14996 0.0
C480 C 0.31343 0.42599 0.19594 0.0
C481 C 0.25061 0.4369 0.23652 0.0
O482 O 0.24567 0.41943 0.2287 0.0
O483 O 0.2604 0.44986 0.22491 0.0
O484 O 0.90701 0.43578 0.75047 0.0
Cd485 Cd 0.89254 0.43506 0.71536 0.0
O486 O 0.90027 0.46906 0.74817 0.0
Cd487 Cd 0.9012 0.50108 0.75898 0.0
O488 O 0.90375 0.53412 0.76558 0.0
C489 C 0.918 0.54478 0.75699 0.0
O490 O 0.93117 0.5355 0.74439 0.0
C491 C 0.90677 0.45355 0.75879 0.0
C492 C 0.84963 0.43002 0.71778 0.0
O493 O 0.86176 0.4145 0.71454 0.0
O494 O 0.85778 0.44796 0.71966 0.0
O495 O 0.78964 0.25936 0.96524 0.0
Cd496 Cd 0.75309 0.24945 0.96669 0.0
O497 O 0.7977 0.23643 0.98955 0.0
Cd498 Cd 0.7658 0.23349 0.00082 0.0
O499 O 0.74846 0.24341 0.02837 0.0
C500 C 0.75119 0.23318 0.04521 0.0
O501 O 0.7624 0.21605 0.04458 0.0
C502 C 0.80336 0.24968 0.97587 0.0
C503 C 0.73745 0.24456 0.92656 0.0
O504 O 0.73476 0.26157 0.93639 0.0
O505 O 0.74744 0.22982 0.93576 0.0
O506 O 0.28433 0.9449 0.91479 0.0
Cd507 Cd 0.2997 0.94235 0.94949 0.0
O508 O 0.2794 0.97791 0.92132 0.0
Cd509 Cd 0.26739 0.00858 0.91231 0.0
O510 O 0.25335 0.03807 0.90246 0.0
C511 C 0.25511 0.0541 0.91364 0.0
O512 O 0.26569 0.05264 0.9311 0.0
C513 C 0.27831 0.96281 0.90882 0.0
C514 C 0.34123 0.92986 0.94694 0.0
O515 O 0.3269 0.91674 0.95104 0.0
O516 O 0.33594 0.94889 0.94413 0.0
O517 O 0.37885 0.21914 0.41856 0.0
Cd518 Cd 0.35808 0.21633 0.45044 0.0
O519 O 0.38618 0.18619 0.42334 0.0
Cd520 Cd 0.39785 0.15569 0.41368 0.0
O521 O 0.40655 0.12452 0.40351 0.0
C522 C 0.41906 0.11307 0.41388 0.0
O523 O 0.42719 0.12034 0.43106 0.0
C524 C 0.38809 0.20277 0.41256 0.0
C525 C 0.3179 0.23226 0.44545 0.0
O526 O 0.33244 0.24338 0.45293 0.0
O527 O 0.3224 0.21364 0.44017 0.0
C528 C 0.90028 0.45252 0.42592 0.0
C529 C 0.90408 0.43658 0.44065 0.0
C530 C 0.88116 0.46314 0.42528 0.0
C531 C 0.86494 0.45809 0.43915 0.0
H532 H 0.91216 0.45689 0.41475 0.0
H533 H 0.87901 0.47518 0.41353 0.0
S534 S 0.86697 0.41778 0.48096 0.0
N535 N 0.89005 0.4165 0.46973 0.0
N536 N 0.85409 0.43628 0.46835 0.0
C537 C 0.86855 0.44227 0.45406 0.0
C538 C 0.88811 0.4316 0.45487 0.0
C539 C 0.92923 0.92998 0.38833 0.0
C540 C 0.91182 0.9405 0.39645 0.0
C541 C 0.93336 0.93002 0.36684 0.0
C542 C 0.91991 0.94012 0.35266 0.0
H543 H 0.93983 0.92175 0.39866 0.0
H544 H 0.94694 0.9217 0.36127 0.0
S545 S 0.87215 0.96985 0.36596 0.0
N546 N 0.88117 0.96152 0.38867 0.0
N547 N 0.88859 0.96106 0.34824 0.0
C548 C 0.90242 0.95066 0.36056 0.0
C549 C 0.89848 0.95101 0.38248 0.0
C550 C 0.77191 0.71882 0.92767 0.0
C551 C 0.76293 0.73587 0.93797 0.0
C552 C 0.79287 0.71344 0.93053 0.0
C553 C 0.80579 0.72514 0.94348 0.0
H554 H 0.76265 0.70949 0.91735 0.0
H555 H 0.79907 0.70022 0.92222 0.0
S556 S 0.78991 0.77118 0.97408 0.0
N557 N 0.76856 0.76429 0.96187 0.0
N558 N 0.80803 0.7544 0.96693 0.0
C559 C 0.79703 0.74221 0.9539 0.0
C560 C 0.77559 0.74749 0.95125 0.0
C561 C 0.73388 0.22646 0.87061 0.0
C562 C 0.71715 0.23821 0.86254 0.0
C563 C 0.73999 0.22825 0.89148 0.0
C564 C 0.72989 0.2422 0.90494 0.0
H565 H 0.74234 0.21577 0.86075 0.0
H566 H 0.75304 0.21898 0.89695 0.0
S567 S 0.685 0.27632 0.8916 0.0
N568 N 0.69028 0.26395 0.86979 0.0
N569 N 0.70208 0.26765 0.90886 0.0
C570 C 0.71306 0.25395 0.89712 0.0
C571 C 0.7066 0.25185 0.87597 0.0
C572 C 0.88453 0.70386 0.25052 0.0
C573 C 0.86899 0.70808 0.23562 0.0
C574 C 0.9035 0.71437 0.2501 0.0
C575 C 0.90787 0.72935 0.23459 0.0
H576 H 0.88193 0.69255 0.26286 0.0
H577 H 0.91486 0.71064 0.26204 0.0
S578 S 0.87265 0.7458 0.19157 0.0
N579 N 0.85937 0.72814 0.20469 0.0
N580 N 0.89511 0.74769 0.20374 0.0
C581 C 0.8926 0.73353 0.21939 0.0
C582 C 0.87315 0.72298 0.21996 0.0
C583 C 0.70726 0.92329 0.79545 0.0
C584 C 0.71282 0.9375 0.81092 0.0
C585 C 0.71718 0.92321 0.77596 0.0
C586 C 0.73287 0.93752 0.77099 0.0
H587 H 0.69532 0.91191 0.79848 0.0
H588 H 0.71238 0.91187 0.76465 0.0
S589 S 0.75294 0.97827 0.80587 0.0
N590 N 0.73497 0.96641 0.81989 0.0
N591 N 0.75341 0.96645 0.78318 0.0
C592 C 0.73844 0.95198 0.78623 0.0
C593 C 0.7285 0.9519 0.8062 0.0
C594 C 0.81542 0.44069 0.7329 0.0
C595 C 0.82695 0.42726 0.72006 0.0
C596 C 0.79411 0.43776 0.73627 0.0
C597 C 0.78344 0.42162 0.7265 0.0
H598 H 0.82302 0.45326 0.74083 0.0
H599 H 0.78592 0.44827 0.74655 0.0
S600 S 0.80635 0.38268 0.69077 0.0
N601 N 0.8261 0.39742 0.69727 0.0
N602 N 0.78592 0.39226 0.70312 0.0
C603 C 0.79469 0.40837 0.71323 0.0
C604 C 0.81648 0.41109 0.71016 0.0
C605 C 0.93691 0.24197 0.27083 0.0
C606 C 0.92926 0.26081 0.26248 0.0
C607 C 0.93608 0.23781 0.29236 0.0
C608 C 0.92698 0.25209 0.30615 0.0
H609 H 0.94358 0.23036 0.26067 0.0
H610 H 0.94206 0.22309 0.29818 0.0
S611 S 0.90493 0.30374 0.29222 0.0
N612 N 0.9128 0.29407 0.26978 0.0
N613 N 0.91062 0.28593 0.31008 0.0
C614 C 0.91938 0.271 0.29802 0.0
C615 C 0.9207 0.27545 0.27622 0.0
C616 C 0.41448 0.89073 0.46832 0.0
C617 C 0.42956 0.87563 0.46327 0.0
C618 C 0.41374 0.90999 0.45793 0.0
C619 C 0.42821 0.91509 0.44223 0.0
H620 H 0.40292 0.88758 0.48023 0.0
H621 H 0.40172 0.92098 0.46233 0.0
S622 S 0.47116 0.88122 0.42338 0.0
N623 N 0.4595 0.86722 0.4416 0.0
N624 N 0.45826 0.90345 0.42226 0.0
C625 C 0.44355 0.90024 0.43718 0.0
C626 C 0.44418 0.88052 0.44763 0.0
C627 C 0.24673 0.9136 0.737 0.0
C628 C 0.23559 0.92208 0.75383 0.0
C629 C 0.24373 0.89302 0.73091 0.0
C630 C 0.22985 0.88 0.74173 0.0
H631 H 0.25778 0.92295 0.72838 0.0
H632 H 0.25268 0.88715 0.71787 0.0
S633 S 0.19688 0.89467 0.78688 0.0
N634 N 0.20991 0.91592 0.78107 0.0
N635 N 0.20466 0.87714 0.76993 0.0
C636 C 0.21862 0.88828 0.75859 0.0
C637 C 0.22138 0.90934 0.76454 0.0
C638 C 0.26027 0.25947 0.93178 0.0
C639 C 0.24902 0.25119 0.91511 0.0
C640 C 0.25815 0.28042 0.93716 0.0
C641 C 0.2451 0.29397 0.92571 0.0
H642 H 0.27067 0.24966 0.94088 0.0
H643 H 0.26705 0.28611 0.95018 0.0
S644 S 0.21248 0.28002 0.88046 0.0
N645 N 0.22431 0.25813 0.88721 0.0
N646 N 0.22073 0.29758 0.89696 0.0
C647 C 0.23388 0.28591 0.90891 0.0
C648 C 0.23571 0.26449 0.90372 0.0
C649 C 0.44301 0.28992 0.23381 0.0
C650 C 0.42874 0.29278 0.21741 0.0
C651 C 0.44332 0.27164 0.24588 0.0
C652 C 0.42919 0.25555 0.24225 0.0
H653 H 0.45418 0.30184 0.23731 0.0
H654 H 0.45466 0.27021 0.25827 0.0
S655 S 0.3885 0.25533 0.2013 0.0
N656 N 0.40005 0.27792 0.19819 0.0
N657 N 0.40048 0.2437 0.22099 0.0
C658 C 0.41475 0.25823 0.22596 0.0
C659 C 0.41458 0.27678 0.21351 0.0
C660 C 0.44246 0.44912 0.87519 0.0
C661 C 0.45996 0.43714 0.86958 0.0
C662 C 0.4334 0.44725 0.89503 0.0
C663 C 0.44123 0.43305 0.90995 0.0
H664 H 0.43564 0.46004 0.86414 0.0
H665 H 0.41986 0.45671 0.89852 0.0
S666 S 0.48705 0.39831 0.9033 0.0
N667 N 0.48509 0.4109 0.88081 0.0
N668 N 0.46786 0.40715 0.91794 0.0
C669 C 0.45884 0.4211 0.90465 0.0
C670 C 0.46826 0.42322 0.88453 0.0
C671 C 0.27771 0.93808 0.25228 0.0
C672 C 0.26717 0.9227 0.24122 0.0
C673 C 0.29912 0.94107 0.24958 0.0
C674 C 0.31085 0.9284 0.23616 0.0
H675 H 0.26936 0.94791 0.2631 0.0
H676 H 0.30662 0.95301 0.25852 0.0
S677 S 0.29066 0.88611 0.2034 0.0
N678 N 0.27001 0.89499 0.21592 0.0
N679 N 0.31033 0.90021 0.21135 0.0
C680 C 0.3005 0.91305 0.22492 0.0
C681 C 0.27863 0.91032 0.2273 0.0
C682 C 0.23606 0.75056 0.37497 0.0
C683 C 0.21994 0.73651 0.37129 0.0
C684 C 0.24398 0.75322 0.39509 0.0
C685 C 0.23655 0.74141 0.41206 0.0
H686 H 0.24225 0.75991 0.36229 0.0
H687 H 0.25618 0.76444 0.39733 0.0
S688 S 0.19501 0.70203 0.41044 0.0
N689 N 0.19687 0.71062 0.38613 0.0
N690 N 0.21249 0.71489 0.42384 0.0
C691 C 0.22078 0.72697 0.4085 0.0
C692 C 0.21226 0.72473 0.38812 0.0
C693 C 0.39736 0.92769 0.92879 0.0
C694 C 0.40546 0.91033 0.93961 0.0
C695 C 0.37669 0.93416 0.93163 0.0
C696 C 0.36321 0.9232 0.94499 0.0
H697 H 0.4071 0.93641 0.9181 0.0
H698 H 0.37112 0.9476 0.92293 0.0
S699 S 0.37673 0.87672 0.97697 0.0
N700 N 0.39844 0.88246 0.96448 0.0
N701 N 0.35945 0.8943 0.96935 0.0
C702 C 0.37108 0.90582 0.95591 0.0
C703 C 0.39225 0.89948 0.95336 0.0
C704 C 0.26287 0.23955 0.42521 0.0
C705 C 0.25528 0.25644 0.43675 0.0
C706 C 0.28302 0.23168 0.42833 0.0
C707 C 0.29654 0.24067 0.4428 0.0
H708 H 0.25311 0.23224 0.41374 0.0
H709 H 0.28815 0.21863 0.41908 0.0
S710 S 0.28429 0.2853 0.4769 0.0
N711 N 0.26285 0.28186 0.46334 0.0
N712 N 0.30084 0.26735 0.4689 0.0
C713 C 0.28918 0.25762 0.45441 0.0
C714 C 0.26853 0.26541 0.45148 0.0
C715 C 0.39877 0.23455 0.73313 0.0
C716 C 0.40632 0.25301 0.72414 0.0
C717 C 0.37785 0.22903 0.73121 0.0
C718 C 0.36357 0.24198 0.7206 0.0
H719 H 0.40915 0.22417 0.74161 0.0
H720 H 0.37279 0.21464 0.7384 0.0
S721 S 0.37539 0.2922 0.69447 0.0
N722 N 0.39787 0.28426 0.70417 0.0
N723 N 0.35847 0.27412 0.70094 0.0
C724 C 0.37088 0.26055 0.71161 0.0
C725 C 0.39227 0.26599 0.71326 0.0
C726 C 0.22481 0.43522 0.28981 0.0
C727 C 0.23731 0.44837 0.30169 0.0
C728 C 0.22913 0.43169 0.26869 0.0
C729 C 0.2458 0.44159 0.25856 0.0
H730 H 0.21188 0.42717 0.297 0.0
H731 H 0.21933 0.42112 0.26025 0.0
S732 S 0.28266 0.47822 0.28252 0.0
N733 N 0.26678 0.47168 0.30171 0.0
N734 N 0.2746 0.46549 0.26192 0.0
C735 C 0.2581 0.45519 0.27014 0.0
C736 C 0.25395 0.45845 0.29174 0.0
C737 C 0.41544 0.71579 0.801 0.0
C738 C 0.43332 0.72496 0.80926 0.0
C739 C 0.40935 0.71962 0.78032 0.0
C740 C 0.42065 0.73312 0.76725 0.0
H741 H 0.40608 0.7055 0.81054 0.0
H742 H 0.39541 0.71227 0.7747 0.0
S743 S 0.46874 0.76096 0.78128 0.0
N744 N 0.46248 0.74788 0.80265 0.0
N745 N 0.45076 0.75544 0.76395 0.0
C746 C 0.4386 0.74236 0.77529 0.0
C747 C 0.44502 0.73817 0.79624 0.0
C748 C 0.94278 0.37416 0.93621 0.0
C749 C 0.92826 0.37108 0.95238 0.0
C750 C 0.94379 0.39307 0.92521 0.0
C751 C 0.93012 0.4096 0.9297 0.0
H752 H 0.95364 0.36192 0.93209 0.0
H753 H 0.95532 0.39464 0.91296 0.0
S754 S 0.88891 0.40944 0.97039 0.0
N755 N 0.89977 0.38619 0.97226 0.0
N756 N 0.90148 0.42158 0.95145 0.0
C757 C 0.91539 0.40669 0.94573 0.0
C758 C 0.91452 0.3875 0.95711 0.0
C759 C 0.73308 0.38804 0.23771 0.0
C760 C 0.74635 0.40226 0.22764 0.0
C761 C 0.73079 0.3678 0.23033 0.0
C762 C 0.74136 0.36108 0.21236 0.0
H763 H 0.72463 0.39246 0.25163 0.0
H764 H 0.72059 0.35736 0.23875 0.0
S765 S 0.77768 0.39234 0.18001 0.0
N766 N 0.77009 0.40819 0.19863 0.0
N767 N 0.76554 0.37031 0.1846 0.0
C768 C 0.75445 0.37522 0.20196 0.0
C769 C 0.75702 0.39574 0.20965 0.0
C770 C 0.75125 0.80765 0.43614 0.0
C771 C 0.7376 0.80982 0.45315 0.0
C772 C 0.75681 0.788 0.42871 0.0
C773 C 0.7484 0.76988 0.43759 0.0
H774 H 0.75813 0.82121 0.42888 0.0
H775 H 0.76766 0.78701 0.4158 0.0
S776 S 0.7112 0.76728 0.48181 0.0
N777 N 0.71555 0.79232 0.47849 0.0
N778 N 0.72529 0.75536 0.46393 0.0
C779 C 0.73428 0.77186 0.45424 0.0
C780 C 0.72909 0.79185 0.46219 0.0
C781 C 0.92338 0.76905 0.73683 0.0
C782 C 0.93547 0.76083 0.75327 0.0
C783 C 0.92426 0.79014 0.73132 0.0
C784 C 0.93686 0.80389 0.74238 0.0
H785 H 0.91316 0.75911 0.72813 0.0
H786 H 0.91459 0.79581 0.71863 0.0
S787 S 0.97185 0.79018 0.78639 0.0
N788 N 0.96089 0.76805 0.78017 0.0
N789 N 0.96209 0.80777 0.77015 0.0
C790 C 0.94913 0.79588 0.75874 0.0
C791 C 0.94857 0.77433 0.76408 0.0
C792 C 0.94738 0.32976 0.40917 0.0
C793 C 0.96156 0.33143 0.42575 0.0
C794 C 0.94315 0.31058 0.40016 0.0
C795 C 0.95303 0.29229 0.40724 0.0
H796 H 0.93963 0.34342 0.40284 0.0
H797 H 0.93235 0.31012 0.38726 0.0
S798 S 0.98972 0.28754 0.45152 0.0
N799 N 0.98451 0.31262 0.44971 0.0
N800 N 0.97612 0.27658 0.43291 0.0
C801 C 0.96672 0.29351 0.42416 0.0
C802 C 0.97108 0.31305 0.43339 0.0
C803 C 0.95188 0.84007 0.25216 0.0
C804 C 0.97009 0.83032 0.25974 0.0
C805 C 0.94745 0.86097 0.25634 0.0
C806 C 0.96116 0.873 0.26806 0.0
H807 H 0.9409 0.83154 0.24289 0.0
H808 H 0.93327 0.86783 0.25019 0.0
S809 S 0.01003 0.85481 0.29302 0.0
N810 N 0.00149 0.8344 0.28045 0.0
N811 N -0.00721 0.87343 0.28855 0.0
C812 C 0.97919 0.86347 0.27606 0.0
C813 C 0.98375 0.84221 0.27184 0.0
C814 C 0.69577 0.82649 0.88863 0.0
C815 C 0.70193 0.8248 0.90963 0.0
C816 C 0.69254 0.84588 0.87908 0.0
C817 C 0.69562 0.86438 0.89003 0.0
H818 H 0.69224 0.81276 0.87979 0.0
H819 H 0.68677 0.84635 0.86322 0.0
S820 S 0.71475 0.86847 0.94438 0.0
N821 N 0.71318 0.84329 0.9404 0.0
N822 N 0.70732 0.87978 0.92237 0.0
C823 C 0.70335 0.86294 0.91052 0.0
C824 C 0.70642 0.84314 0.92034 0.0
C825 C 0.71067 0.31247 0.77097 0.0
C826 C 0.69123 0.30264 0.7717 0.0
C827 C 0.71246 0.33332 0.76463 0.0
C828 C 0.69488 0.34518 0.75875 0.0
H829 H 0.72463 0.30411 0.77556 0.0
H830 H 0.72774 0.34021 0.76459 0.0
S831 S 0.64043 0.32647 0.75685 0.0
N832 N 0.65407 0.30627 0.76519 0.0
N833 N 0.65742 0.34519 0.75338 0.0
C834 C 0.67538 0.3354 0.75905 0.0
C835 C 0.67356 0.31424 0.76549 0.0
C836 C 0.42604 0.95047 0.32434 0.0
C837 C 0.41503 0.96295 0.33854 0.0
C838 C 0.41848 0.94723 0.30413 0.0
C839 C 0.40002 0.95691 0.2973 0.0
H840 H 0.44057 0.94313 0.3289 0.0
H841 H 0.42736 0.93753 0.29362 0.0
S842 S 0.36534 0.9909 0.32835 0.0
N843 N 0.38452 0.98471 0.34438 0.0
N844 N 0.37064 0.97898 0.30628 0.0
C845 C 0.38884 0.96932 0.31132 0.0
C846 C 0.39625 0.97225 0.33199 0.0
C847 C 0.289 0.76503 0.69241 0.0
C848 C 0.28485 0.78145 0.70607 0.0
C849 C 0.30918 0.75704 0.68995 0.0
C850 C 0.32602 0.76495 0.70127 0.0
H851 H 0.27658 0.75811 0.68365 0.0
H852 H 0.31157 0.74455 0.67901 0.0
S853 S 0.32318 0.80731 0.73997 0.0
N854 N 0.29908 0.80492 0.73166 0.0
N855 N 0.33693 0.78972 0.72733 0.0
C856 C 0.32194 0.78091 0.71556 0.0
C857 C 0.30139 0.78915 0.71793 0.0
C858 C 0.28326 0.18779 0.79557 0.0
C859 C 0.27388 0.20266 0.78236 0.0
C860 C 0.27687 0.18545 0.81635 0.0
C861 C 0.26058 0.1976 0.82451 0.0
H862 H 0.29584 0.17809 0.78989 0.0
H863 H 0.2845 0.17376 0.82598 0.0
S864 S 0.23123 0.23896 0.79636 0.0
N865 N 0.24795 0.2301 0.77892 0.0
N866 N 0.23543 0.22525 0.81789 0.0
C867 C 0.25107 0.21254 0.81145 0.0
C868 C 0.2579 0.21523 0.7904 0.0
C869 C 0.33812 0.39613 0.20093 0.0
C870 C 0.3349 0.41765 0.19845 0.0
C871 C 0.35807 0.38735 0.19978 0.0
C872 C 0.37567 0.39969 0.19609 0.0
H873 H 0.32506 0.3858 0.20277 0.0
H874 H 0.3595 0.37061 0.20075 0.0
S875 S 0.37612 0.45723 0.19224 0.0
N876 N 0.35134 0.45138 0.1949 0.0
N877 N 0.38881 0.43487 0.19273 0.0
C878 C 0.37286 0.42138 0.19525 0.0
C879 C 0.35251 0.43035 0.19643 0.0
C880 C 0.40068 0.21143 0.35539 0.0
C881 C 0.41916 0.19986 0.35266 0.0
C882 C 0.3911 0.21287 0.375 0.0
C883 C 0.39955 0.20269 0.39257 0.0
H884 H 0.39312 0.21889 0.34218 0.0
H885 H 0.37655 0.22136 0.37626 0.0
S886 S 0.44927 0.17329 0.39474 0.0
N887 N 0.44666 0.17992 0.36993 0.0
N888 N 0.42868 0.18299 0.40671 0.0
C889 C 0.41857 0.19213 0.39039 0.0
C890 C 0.42837 0.19063 0.37046 0.0
C891 C 0.36081 0.77991 0.46849 0.0
C892 C 0.37742 0.76711 0.47509 0.0
C893 C 0.34076 0.77202 0.46611 0.0
C894 C 0.33644 0.751 0.47028 0.0
H895 H 0.36298 0.79642 0.4662 0.0
H896 H 0.32838 0.78283 0.46209 0.0
S897 S 0.37521 0.71011 0.48412 0.0
N898 N 0.38876 0.73169 0.48285 0.0
N899 N 0.35108 0.71692 0.47844 0.0
C900 C 0.35324 0.73765 0.47508 0.0
C901 C 0.37372 0.74569 0.47746 0.0
C902 C 0.24696 0.95739 0.85927 0.0
C903 C 0.25551 0.97279 0.84619 0.0
C904 C 0.25466 0.95392 0.8795 0.0
C905 C 0.27066 0.96619 0.88743 0.0
H906 H 0.23438 0.94785 0.85377 0.0
H907 H 0.2478 0.94185 0.88912 0.0
S908 S 0.29817 0.00852 0.85957 0.0
N909 N 0.28097 0.00025 0.84259 0.0
N910 N 0.29503 -0.00597 0.88073 0.0
C911 C 0.27928 0.98162 0.87455 0.0
C912 C 0.27181 0.98485 0.85387 0.0
C913 C 0.33536 0.39343 0.9579 0.0
C914 C 0.33806 0.41087 0.97058 0.0
C915 C 0.31559 0.38512 0.95459 0.0
C916 C 0.29778 0.3939 0.96384 0.0
H917 H 0.34865 0.38577 0.95089 0.0
H918 H 0.31433 0.37137 0.94515 0.0
S919 S 0.29591 0.44158 -0.00441 0.0
N920 N 0.32087 0.43782 0.99079 0.0
N921 N 0.28375 0.42249 0.98398 0.0
C922 C 0.30009 0.41192 0.97569 0.0
C923 C 0.32022 0.42032 0.97921 0.0
C924 C 0.81486 0.26751 0.19715 0.0
C925 C 0.80903 0.28748 0.19019 0.0
C926 C 0.83587 0.26161 0.1985 0.0
C927 C 0.85181 0.27559 0.19329 0.0
H928 H 0.80313 0.25605 0.20072 0.0
H929 H 0.8396 0.24585 0.20331 0.0
S930 S 0.84455 0.33051 0.17635 0.0
N931 N 0.82073 0.32171 0.17947 0.0
N932 N 0.86014 0.31087 0.18231 0.0
C933 C 0.84612 0.29597 0.18733 0.0
C934 C 0.82475 0.30184 0.18569 0.0
C935 C 0.77561 0.71003 0.33232 0.0
C936 C 0.75701 0.70279 0.34129 0.0
C937 C 0.78024 0.70671 0.31125 0.0
C938 C 0.76639 0.69614 0.29825 0.0
H939 H 0.78736 0.7171 0.34191 0.0
H940 H 0.79532 0.71146 0.30548 0.0
S941 S 0.71364 0.67804 0.31312 0.0
N942 N 0.72328 0.68746 0.33483 0.0
N943 N 0.73182 0.68137 0.29521 0.0
C944 C 0.74684 0.69069 0.30654 0.0
C945 C 0.7422 0.69395 0.32806 0.0
C946 C 0.86126 0.90626 0.72057 0.0
C947 C 0.87173 0.89503 0.70502 0.0
C948 C 0.84034 0.91216 0.71822 0.0
C949 C 0.82899 0.90682 0.70033 0.0
H950 H 0.86936 0.91064 0.73461 0.0
H951 H 0.83303 0.92092 0.7306 0.0
S952 S 0.84905 0.87583 0.65589 0.0
N953 N 0.869 0.87754 0.67186 0.0
N954 N 0.82991 0.88883 0.66708 0.0
C955 C 0.83932 0.89528 0.68479 0.0
C956 C 0.86062 0.88933 0.68722 0.0
C957 C 0.76858 0.46993 0.36125 0.0
C958 C 0.78981 0.47458 0.36296 0.0
C959 C 0.75956 0.46633 0.34176 0.0
C960 C 0.77152 0.46682 0.32334 0.0
H961 H 0.75858 0.47039 0.37486 0.0
H962 H 0.74293 0.46401 0.34104 0.0
S963 S 0.82842 0.47531 0.31993 0.0
N964 N 0.82296 0.47744 0.34499 0.0
N965 N 0.80617 0.47018 0.30841 0.0
C966 C 0.79309 0.4698 0.32509 0.0
C967 C 0.80218 0.47385 0.34489 0.0
C968 C 0.90328 0.70335 0.85042 0.0
C969 C 0.922 0.69274 0.84601 0.0
C970 C 0.89546 0.70444 0.8708 0.0
C971 C 0.90593 0.69478 0.88753 0.0
H972 H 0.89433 0.7106 0.83799 0.0
H973 H 0.88078 0.71238 0.87339 0.0
S974 S 0.95664 0.66719 0.8851 0.0
N975 N 0.9516 0.67374 0.86065 0.0
N976 N 0.93688 0.67611 0.89891 0.0
C977 C 0.92502 0.68487 0.8836 0.0
C978 C 0.93307 0.68378 0.86286 0.0
C979 C 0.45817 0.79109 0.89713 0.0
C980 C 0.46884 0.77463 0.90705 0.0
C981 C 0.46059 0.81159 0.90365 0.0
C982 C 0.47375 0.81642 0.92038 0.0
H983 H 0.44836 0.7882 0.8838 0.0
H984 H 0.45248 0.82377 0.89509 0.0
S985 S 0.50252 0.77836 0.95363 0.0
N986 N 0.49092 0.76407 0.93601 0.0
N987 N 0.49601 0.80263 0.94801 0.0
C988 C 0.48376 0.79992 0.93104 0.0
C989 C 0.48117 0.77902 0.92444 0.0
C990 C 0.49338 0.35234 0.80021 0.0
C991 C 0.48307 0.36925 0.79068 0.0
C992 C 0.49079 0.33209 0.79315 0.0
C993 C 0.47788 0.32788 0.77604 0.0
H994 H 0.50405 0.35475 0.81306 0.0
H995 H 0.4996 0.31983 0.80068 0.0
S996 S 0.44578 0.36642 0.74674 0.0
N997 N 0.45819 0.38027 0.76417 0.0
N998 N 0.45339 0.34218 0.75071 0.0
C999 C 0.46671 0.34451 0.76694 0.0
C1000 C 0.46922 0.3652 0.77426 0.0
C1001 C 0.2083 0.35788 0.39871 0.0
C1002 C 0.19563 0.35445 0.41635 0.0
C1003 C 0.21201 0.37798 0.39107 0.0
C1004 C 0.20305 0.3954 0.40065 0.0
H1005 H 0.2152 0.34495 0.39047 0.0
H1006 H 0.22154 0.37984 0.37723 0.0
S1007 S 0.17073 0.39537 0.44857 0.0
N1008 N 0.17538 0.3706 0.44408 0.0
N1009 N 0.18268 0.40827 0.42974 0.0
C1010 C 0.19101 0.39236 0.41868 0.0
C1011 C 0.18723 0.37192 0.42654 0.0
C1012 C 0.20484 0.83101 0.27461 0.0
C1013 C 0.19884 0.83735 0.25441 0.0
C1014 C 0.20378 0.81017 0.28099 0.0
C1015 C 0.19666 0.79476 0.26744 0.0
H1016 H 0.20985 0.84229 0.28588 0.0
H1017 H 0.20802 0.80628 0.2969 0.0
S1018 S 0.18087 0.80286 0.2122 0.0
N1019 N 0.18687 0.82621 0.22036 0.0
N1020 N 0.18489 0.78715 0.23231 0.0
C1021 C 0.19153 0.80073 0.24686 0.0
C1022 C 0.19262 0.82196 0.24036 0.0
C1023 C 0.93275 0.44713 0.78703 0.0
C1024 C 0.91383 0.45603 0.78045 0.0
C1025 C 0.93975 0.4495 0.80757 0.0
C1026 C 0.92772 0.46027 0.82235 0.0
H1027 H 0.94237 0.43861 0.77613 0.0
H1028 H 0.95462 0.44275 0.81195 0.0
S1029 S 0.87656 0.48567 0.81298 0.0
N1030 N 0.88297 0.4756 0.79026 0.0
N1031 N 0.89583 0.47968 0.82897 0.0
C1032 C 0.90855 0.46885 0.81601 0.0
C1033 C 0.90168 0.46683 0.79501 0.0
C1034 C 0.86115 0.24979 0.9869 0.0
C1035 C 0.86793 0.26832 0.97734 0.0
C1036 C 0.84052 0.24336 0.98535 0.0
C1037 C 0.82571 0.2551 0.97409 0.0
H1038 H 0.8716 0.24054 -0.00348 0.0
H1039 H 0.83602 0.22945 0.99377 0.0
S1040 S 0.83609 0.30315 0.94339 0.0
N1041 N 0.85865 0.29711 0.95417 0.0
N1042 N 0.81983 0.28497 0.95119 0.0
C1043 C 0.83258 0.27284 0.96313 0.0
C1044 C 0.85366 0.27946 0.96478 0.0
C1045 C 0.82013 0.9138 0.46416 0.0
C1046 C 0.82617 0.93208 0.47419 0.0
C1047 C 0.79988 0.90617 0.46612 0.0
C1048 C 0.78478 0.91648 0.47823 0.0
H1049 H 0.83125 0.90497 0.45507 0.0
H1050 H 0.79623 0.89178 0.45847 0.0
S1051 S 0.79223 0.96573 0.50672 0.0
N1052 N 0.81502 0.96089 0.4959 0.0
N1053 N 0.77708 0.9466 0.4996 0.0
C1054 C 0.79039 0.93521 0.48773 0.0
C1055 C 0.81102 0.94299 0.48571 0.0
C1056 C 0.08575 0.41775 0.44336 0.0
C1057 C 0.0945 0.4172 0.42322 0.0
C1058 C 0.06487 0.41266 0.44685 0.0
C1059 C 0.05187 0.40684 0.43033 0.0
H1060 H 0.09519 0.42167 0.45668 0.0
H1061 H 0.05907 0.41278 0.46272 0.0
S1062 S 0.06657 0.40507 0.3743 0.0
N1063 N 0.08807 0.41184 0.3863 0.0
N1064 N 0.04892 0.40236 0.39282 0.0
C1065 C 0.06021 0.40702 0.41 0.0
C1066 C 0.08148 0.41216 0.40646 0.0
C1067 C 0.10452 0.91796 0.23626 0.0
C1068 C 0.11301 0.89807 0.23999 0.0
C1069 C 0.08335 0.92215 0.2396 0.0
C1070 C 0.06974 0.90661 0.24677 0.0
H1071 H 0.11429 0.93047 0.23072 0.0
H1072 H 0.07763 0.93773 0.23648 0.0
S1073 S 0.08412 0.85187 0.25908 0.0
N1074 N 0.10605 0.86262 0.25139 0.0
N1075 N 0.0664 0.87048 0.25762 0.0
C1076 C 0.07802 0.88663 0.25058 0.0
C1077 C 0.09959 0.88237 0.24721 0.0
C1078 C 0.58886 0.76889 0.91864 0.0
C1079 C 0.57894 0.75392 0.93122 0.0
C1080 C 0.60968 0.77405 0.92175 0.0
C1081 C 0.62161 0.76447 0.93758 0.0
H1082 H 0.5805 0.77679 0.90619 0.0
H1083 H 0.61643 0.78571 0.91156 0.0
S1084 S 0.60315 0.72425 0.97502 0.0
N1085 N 0.58273 0.72954 0.9603 0.0
N1086 N 0.62192 0.73926 0.96612 0.0
C1087 C 0.61196 0.74944 0.95033 0.0
C1088 C 0.59065 0.74418 0.94717 0.0
C1089 C 0.56604 0.23328 0.77008 0.0
C1090 C 0.55867 0.2427 0.75157 0.0
C1091 C 0.58738 0.23049 0.77365 0.0
C1092 C 0.60222 0.23694 0.75881 0.0
H1093 H 0.55534 0.22898 0.78244 0.0
H1094 H 0.59225 0.22412 0.78857 0.0
S1095 S 0.59086 0.25909 0.70625 0.0
N1096 N 0.56781 0.25605 0.71714 0.0
N1097 N 0.60784 0.25073 0.72374 0.0
C1098 C 0.59498 0.24488 0.73956 0.0
C1099 C 0.57324 0.24779 0.73598 0.0
C1100 C 0.07917 0.74305 0.22876 0.0
C1101 C 0.06478 0.74029 0.2451 0.0
C1102 C 0.10025 0.73817 0.23137 0.0
C1103 C 0.10793 0.73032 0.25046 0.0
H1104 H 0.07433 0.74982 0.21399 0.0
H1105 H 0.1107 0.74141 0.21849 0.0
S1106 S 0.0763 0.71733 0.29727 0.0
N1107 N 0.05937 0.72702 0.2804 0.0
N1108 N 0.09904 0.7179 0.28531 0.0
C1109 C 0.09353 0.72616 0.26651 0.0
C1110 C 0.07197 0.73112 0.26383 0.0
C1111 C 0.5852 0.91295 0.89918 0.0
C1112 C 0.60443 0.91052 0.90937 0.0
C1113 C 0.56645 0.90829 0.90935 0.0
C1114 C 0.56617 0.90093 0.93012 0.0
H1115 H 0.5846 0.91766 0.88292 0.0
H1116 H 0.55219 0.90955 0.90049 0.0
S1117 S 0.61196 0.89495 0.96485 0.0
N1118 N 0.62177 0.90258 0.94226 0.0
N1119 N 0.58662 0.89377 0.96127 0.0
C1120 C 0.58515 0.89979 0.94093 0.0
C1121 C 0.60424 0.90459 0.9306 0.0
C1122 C 0.59471 0.42717 0.73784 0.0
C1123 C 0.61247 0.4329 0.74907 0.0
C1124 C 0.57479 0.42889 0.74652 0.0
C1125 C 0.57173 0.43635 0.76685 0.0
H1126 H 0.59619 0.42037 0.72253 0.0
H1127 H 0.56181 0.42332 0.73751 0.0
S1128 S 0.61266 0.4569 0.80145 0.0
N1129 N 0.62541 0.44896 0.7806 0.0
N1130 N 0.58794 0.4521 0.79694 0.0
C1131 C 0.58916 0.44369 0.77764 0.0
C1132 C 0.60951 0.442 0.76874 0.0
C1133 C 0.09216 0.28666 0.40855 0.0
C1134 C 0.10389 0.2799 0.42588 0.0
C1135 C 0.0714 0.28095 0.40612 0.0
C1136 C 0.06137 0.26815 0.42087 0.0
H1137 H 0.09893 0.29676 0.3968 0.0
H1138 H 0.06312 0.28684 0.39257 0.0
S1139 S 0.08533 0.24541 0.4687 0.0
N1140 N 0.10409 0.25908 0.45779 0.0
N1141 N 0.06503 0.24829 0.45322 0.0
C1142 C 0.07301 0.26085 0.43809 0.0
C1143 C 0.09424 0.26672 0.44058 0.0
C1144 C 0.44156 0.05823 0.41367 0.0
C1145 C 0.43336 0.04972 0.39536 0.0
C1146 C 0.43699 0.07872 0.41939 0.0
C1147 C 0.424 0.09159 0.40708 0.0
H1148 H 0.45155 0.049 0.42376 0.0
H1149 H 0.44363 0.08442 0.4337 0.0
S1150 S 0.39875 0.07695 0.3574 0.0
N1151 N 0.41175 0.05595 0.36476 0.0
N1152 N 0.40321 0.09431 0.37549 0.0
C1153 C 0.41582 0.08333 0.38863 0.0
C1154 C 0.42047 0.06247 0.38279 0.0
C1155 C 0.25305 0.73604 0.58658 0.0
C1156 C 0.25858 0.75502 0.59559 0.0
C1157 C 0.25677 0.73215 0.5654 0.0
C1158 C 0.26618 0.74707 0.55236 0.0
H1159 H 0.2461 0.72389 0.59601 0.0
H1160 H 0.25264 0.71712 0.55936 0.0
S1161 S 0.28199 0.8 0.56776 0.0
N1162 N 0.27283 0.7894 0.58941 0.0
N1163 N 0.27976 0.78212 0.54974 0.0
C1164 C 0.27121 0.76636 0.56101 0.0
C1165 C 0.26744 0.77032 0.58257 0.0
C1166 C 0.24403 0.11206 0.91062 0.0
C1167 C 0.23102 0.11414 0.8931 0.0
C1168 C 0.25142 0.09258 0.9173 0.0
C1169 C 0.2461 0.07435 0.90677 0.0
H1170 H 0.24904 0.12564 0.91895 0.0
H1171 H 0.26176 0.09192 0.9306 0.0
S1172 S 0.21052 0.07106 0.86143 0.0
N1173 N 0.21178 0.0961 0.86633 0.0
N1174 N 0.22566 0.05952 0.87885 0.0
C1175 C 0.23248 0.07612 0.88968 0.0
C1176 C 0.22494 0.09598 0.88287 0.0
C1177 C 0.43181 0.39659 0.06757 0.0
C1178 C 0.42919 0.41645 0.05852 0.0
C1179 C 0.43734 0.39406 0.08858 0.0
C1180 C 0.44049 0.41128 0.10144 0.0
H1181 H 0.42865 0.3828 0.05868 0.0
H1182 H 0.43816 0.37845 0.09498 0.0
S1183 S 0.43914 0.46658 0.08445 0.0
N1184 N 0.43278 0.45362 0.0634 0.0
N1185 N 0.44319 0.44888 0.10284 0.0
C1186 C 0.43947 0.4312 0.09219 0.0
C1187 C 0.43382 0.43378 0.07076 0.0
C1188 C 0.41616 0.094 0.30077 0.0
C1189 C 0.42819 0.10682 0.28766 0.0
C1190 C 0.41096 0.07384 0.29504 0.0
C1191 C 0.41752 0.06555 0.2759 0.0
H1192 H 0.41068 0.09953 0.31571 0.0
H1193 H 0.40172 0.06469 0.30582 0.0
S1194 S 0.44917 0.09277 0.23565 0.0
N1195 N 0.44643 0.10982 0.25448 0.0
N1196 N 0.43663 0.07191 0.24363 0.0
C1197 C 0.4295 0.07822 0.26252 0.0
C1198 C 0.43483 0.09883 0.2684 0.0
C1199 C 0.42297 0.75247 0.60511 0.0
C1200 C 0.41606 0.73231 0.60999 0.0
C1201 C 0.43004 0.75769 0.58504 0.0
C1202 C 0.43054 0.74297 0.56901 0.0
H1203 H 0.42204 0.76463 0.6166 0.0
H1204 H 0.43428 0.77365 0.58189 0.0
S1205 S 0.41737 0.68717 0.57455 0.0
N1206 N 0.41252 0.69694 0.59775 0.0
N1207 N 0.42585 0.7067 0.56011 0.0
C1208 C 0.42508 0.7224 0.57407 0.0
C1209 C 0.41784 0.71708 0.59452 0.0
C1210 C 0.23396 0.06118 0.76425 0.0
C1211 C 0.23582 0.0555 0.78543 0.0
C1212 C 0.24039 0.08068 0.75693 0.0
C1213 C 0.24896 0.09535 0.77047 0.0
H1214 H 0.22771 0.0504 0.75312 0.0
H1215 H 0.23881 0.08415 0.74045 0.0
S1216 S 0.25625 0.08863 0.82763 0.0
N1217 N 0.24625 0.0665 0.82004 0.0
N1218 N 0.25822 0.10308 0.80632 0.0
C1219 C 0.25058 0.09002 0.79177 0.0
C1220 C 0.24405 0.07015 0.79923 0.0
C1221 C 0.26258 0.44275 0.10158 0.0
C1222 C 0.26821 0.42686 0.11576 0.0
C1223 C 0.26054 0.43885 0.0802 0.0
C1224 C 0.26405 0.4189 0.07213 0.0
H1225 H 0.26025 0.45849 0.10689 0.0
H1226 H 0.25661 0.45172 0.06989 0.0
S1227 S 0.27701 0.3714 0.10298 0.0
N1228 N 0.27573 0.39002 0.12037 0.0
N1229 N 0.27195 0.38272 0.08032 0.0
C1230 C 0.26894 0.4027 0.08626 0.0
C1231 C 0.27099 0.40667 0.10802 0.0
C1232 C 0.92122 0.22583 0.07937 0.0
C1233 C 0.93129 0.24406 0.07276 0.0
C1234 C 0.91845 0.22115 0.10057 0.0
C1235 C 0.92571 0.23442 0.11615 0.0
H1236 H 0.91465 0.21537 0.06812 0.0
H1237 H 0.90989 0.20729 0.1047 0.0
S1238 S 0.95558 0.28277 0.10724 0.0
N1239 N 0.95036 0.27449 0.08358 0.0
N1240 N 0.94524 0.26565 0.12347 0.0
C1241 C 0.93698 0.25206 0.10982 0.0
C1242 C 0.93973 0.25689 0.08814 0.0
C1243 C 0.74395 0.56108 0.24947 0.0
C1244 C 0.73394 0.5551 0.26813 0.0
C1245 C 0.74887 0.58192 0.24535 0.0
C1246 C 0.74377 0.59762 0.25961 0.0
H1247 H 0.74854 0.54952 0.23819 0.0
H1248 H 0.7569 0.58569 0.23095 0.0
S1249 S 0.71633 0.59026 0.31025 0.0
N1250 N 0.7183 0.56673 0.30059 0.0
N1251 N 0.72737 0.60571 0.29287 0.0
C1252 C 0.73321 0.59189 0.27806 0.0
C1253 C 0.72835 0.5707 0.2823 0.0
C1254 C 0.73513 0.94554 0.59971 0.0
C1255 C 0.73319 0.92886 0.61391 0.0
C1256 C 0.72968 0.94353 0.57871 0.0
C1257 C 0.72207 0.92474 0.57095 0.0
H1258 H 0.74175 0.96008 0.60457 0.0
H1259 H 0.73235 0.95663 0.56835 0.0
S1260 S 0.71088 0.87733 0.60231 0.0
N1261 N 0.72074 0.89363 0.61921 0.0
N1262 N 0.71056 0.88985 0.5797 0.0
C1263 C 0.71862 0.90838 0.58526 0.0
C1264 C 0.72416 0.91044 0.60673 0.0
C1265 C 0.78218 0.58764 0.42218 0.0
C1266 C 0.77135 0.57026 0.41496 0.0
C1267 C 0.77317 0.60755 0.42169 0.0
C1268 C 0.75298 0.61092 0.41386 0.0
H1269 H 0.79803 0.58601 0.42764 0.0
H1270 H 0.78246 0.62048 0.4267 0.0
S1271 S 0.717 0.57037 0.39545 0.0
N1272 N 0.73851 0.55758 0.40154 0.0
N1273 N 0.7217 0.5949 0.40055 0.0
C1274 C 0.74156 0.59355 0.40765 0.0
C1275 C 0.7507 0.57327 0.40822 0.0
C1276 C 0.9255 0.57656 0.88571 0.0
C1277 C 0.93583 0.58519 0.90281 0.0
C1278 C 0.92982 0.55633 0.8792 0.0
C1279 C 0.94467 0.54374 0.88947 0.0
H1280 H 0.91388 0.58547 0.8772 0.0
H1281 H 0.92134 0.55056 0.86593 0.0
S1282 S 0.97633 0.55886 0.93507 0.0
N1283 N 0.9618 0.57951 0.9299 0.0
N1284 N 0.96988 0.54145 0.91762 0.0
C1285 C 0.9552 0.55213 0.90659 0.0
C1286 C 0.95081 0.57282 0.91325 0.0
C1287 C 0.74845 0.24058 0.10369 0.0
C1288 C 0.7412 0.26114 0.10565 0.0
C1289 C 0.75044 0.23129 0.08416 0.0
C1290 C 0.74523 0.24211 0.06568 0.0
H1291 H 0.75358 0.2318 0.11727 0.0
H1292 H 0.757 0.21577 0.08355 0.0
S1293 S 0.72222 0.29512 0.06244 0.0
N1294 N 0.72637 0.29118 0.08758 0.0
N1295 N 0.73006 0.2737 0.05083 0.0
C1296 C 0.73644 0.26212 0.0675 0.0
C1297 C 0.73445 0.27163 0.08747 0.0
C1298 C 0.91272 0.94214 0.58574 0.0
C1299 C 0.90417 0.92467 0.59584 0.0
C1300 C 0.90912 0.94621 0.5645 0.0
C1301 C 0.89684 0.93295 0.55248 0.0
H1302 H 0.92198 0.95303 0.59436 0.0
H1303 H 0.91566 0.96012 0.55761 0.0
S1304 S 0.87242 0.88403 0.57097 0.0
N1305 N 0.88393 0.89327 0.5918 0.0
N1306 N 0.87724 0.90083 0.552 0.0
C1307 C 0.88876 0.91504 0.56222 0.0
C1308 C 0.89239 0.91094 0.58384 0.0
C1309 C 0.94133 0.59861 0.7602 0.0
C1310 C 0.92645 0.60982 0.77173 0.0
C1311 C 0.93827 0.57774 0.75521 0.0
C1312 C 0.92024 0.56718 0.76159 0.0
H1313 H 0.9557 0.60584 0.75533 0.0
H1314 H 0.9504 0.56975 0.74665 0.0
S1315 S 0.8756 0.58996 0.79051 0.0
N1316 N 0.89231 0.60911 0.78821 0.0
N1317 N 0.88665 0.56995 0.77893 0.0
C1318 C 0.90492 0.57838 0.77256 0.0
C1319 C 0.908 0.59966 0.77758 0.0
loop_
_geom_bond_atom_site_label_1
_geom_bond_atom_site_label_2
_geom_bond_distance
_geom_bond_site_symmetry_2
_ccdc_geom_bond_type
O0 Cd1 2.300 . S
O0 C7 1.275 . S
Cd1 O0 2.300 . S
Cd1 O9 2.381 . S
Cd1 O10 2.378 . S
O2 Cd3 2.385 . S
O2 C7 1.255 1_455 S
Cd3 O2 2.385 . S
Cd3 O4 2.317 . S
O4 Cd3 2.317 . S
O4 C5 1.232 . S
C5 O4 1.232 . S
C5 O6 1.218 . S
O6 C5 1.218 . S
C7 O0 1.275 . S
C7 O2 1.255 1_655 S
C8 O9 1.258 . S
C8 O10 1.256 . S
O9 Cd1 2.381 . S
O9 C8 1.258 . S
O10 Cd1 2.378 . S
O10 C8 1.256 . S
O11 Cd12 2.300 . S
O11 C18 1.275 . S
Cd12 O11 2.300 . S
Cd12 O20 2.381 . S
Cd12 O21 2.378 . S
O13 Cd14 2.385 . S
O13 C18 1.255 1_455 S
Cd14 O13 2.385 . S
Cd14 O15 2.317 . S
O15 Cd14 2.317 . S
O15 C16 1.232 . S
C16 O15 1.232 . S
C16 O17 1.218 . S
O17 C16 1.218 . S
C18 O11 1.275 . S
C18 O13 1.255 1_655 S
C19 O20 1.258 . S
C19 O21 1.256 . S
O20 Cd12 2.381 . S
O20 C19 1.258 . S
O21 Cd12 2.378 . S
O21 C19 1.256 . S
O22 Cd23 2.300 . S
O22 C29 1.275 . S
Cd23 O22 2.300 . S
Cd23 O31 2.381 . S
Cd23 O32 2.378 . S
O24 Cd25 2.385 . S
O24 C29 1.255 . S
Cd25 O24 2.385 . S
Cd25 O26 2.317 . S
O26 Cd25 2.317 . S
O26 C27 1.232 . S
C27 O26 1.232 . S
C27 O28 1.218 . S
O28 C27 1.218 . S
C29 O22 1.275 . S
C29 O24 1.255 . S
C30 O31 1.258 . S
C30 O32 1.256 . S
O31 Cd23 2.381 . S
O31 C30 1.258 . S
O32 Cd23 2.378 . S
O32 C30 1.256 . S
O33 Cd34 2.300 . S
O33 C40 1.275 . S
Cd34 O33 2.300 . S
Cd34 O42 2.381 . S
Cd34 O43 2.378 . S
O35 Cd36 2.385 . S
O35 C40 1.255 . S
Cd36 O35 2.385 . S
Cd36 O37 2.317 . S
O37 Cd36 2.317 . S
O37 C38 1.232 . S
C38 O37 1.232 . S
C38 O39 1.218 . S
O39 C38 1.218 . S
C40 O33 1.275 . S
C40 O35 1.255 . S
C41 O42 1.258 . S
C41 O43 1.256 . S
O42 Cd34 2.381 . S
O42 C41 1.258 . S
O43 Cd34 2.378 . S
O43 C41 1.256 . S
O44 Cd45 2.300 . S
O44 C51 1.275 . S
Cd45 O44 2.300 . S
Cd45 O53 2.381 . S
Cd45 O54 2.378 . S
O46 Cd47 2.385 . S
O46 C51 1.255 1_455 S
Cd47 O46 2.385 . S
Cd47 O48 2.317 . S
O48 Cd47 2.317 . S
O48 C49 1.232 . S
C49 O48 1.232 . S
C49 O50 1.218 . S
O50 C49 1.218 . S
C51 O44 1.275 . S
C51 O46 1.255 1_655 S
C52 O53 1.258 . S
C52 O54 1.256 . S
O53 Cd45 2.381 . S
O53 C52 1.258 . S
O54 Cd45 2.378 . S
O54 C52 1.256 . S
O55 Cd56 2.300 . S
O55 C62 1.275 . S
Cd56 O55 2.300 . S
Cd56 O64 2.381 . S
Cd56 O65 2.378 . S
O57 Cd58 2.385 . S
O57 C62 1.255 . S
Cd58 O57 2.385 . S
Cd58 O59 2.317 . S
O59 Cd58 2.317 . S
O59 C60 1.232 . S
C60 O59 1.232 . S
C60 O61 1.218 . S
O61 C60 1.218 . S
C62 O55 1.275 . S
C62 O57 1.255 . S
C63 O64 1.258 . S
C63 O65 1.256 . S
O64 Cd56 2.381 . S
O64 C63 1.258 . S
O65 Cd56 2.378 . S
O65 C63 1.256 . S
O66 Cd67 2.300 . S
O66 C73 1.275 . S
Cd67 O66 2.300 . S
Cd67 O75 2.381 . S
Cd67 O76 2.378 . S
O68 Cd69 2.385 . S
O68 C73 1.255 . S
Cd69 O68 2.385 . S
Cd69 O70 2.317 . S
O70 Cd69 2.317 . S
O70 C71 1.232 . S
C71 O70 1.232 . S
C71 O72 1.218 . S
O72 C71 1.218 . S
C73 O66 1.275 . S
C73 O68 1.255 . S
C74 O75 1.258 . S
C74 O76 1.256 . S
O75 Cd67 2.381 . S
O75 C74 1.258 . S
O76 Cd67 2.378 . S
O76 C74 1.256 . S
O77 Cd78 2.300 . S
O77 C84 1.275 . S
Cd78 O77 2.300 . S
Cd78 O86 2.381 . S
Cd78 O87 2.378 . S
O79 Cd80 2.385 . S
O79 C84 1.255 1_455 S
Cd80 O79 2.385 . S
Cd80 O81 2.317 . S
O81 Cd80 2.317 . S
O81 C82 1.232 . S
C82 O81 1.232 . S
C82 O83 1.218 . S
O83 C82 1.218 . S
C84 O77 1.275 . S
C84 O79 1.255 1_655 S
C85 O86 1.258 . S
C85 O87 1.256 . S
O86 Cd78 2.381 . S
O86 C85 1.258 . S
O87 Cd78 2.378 . S
O87 C85 1.256 . S
O88 Cd89 2.300 . S
O88 C95 1.275 . S
Cd89 O88 2.300 . S
Cd89 O97 2.381 . S
Cd89 O98 2.378 . S
O90 Cd91 2.385 . S
O90 C95 1.255 1_545 S
Cd91 O90 2.385 . S
Cd91 O92 2.317 . S
O92 Cd91 2.317 . S
O92 C93 1.232 . S
C93 O92 1.232 . S
C93 O94 1.218 . S
O94 C93 1.218 . S
C95 O88 1.275 . S
C95 O90 1.255 1_565 S
C96 O97 1.258 . S
C96 O98 1.256 . S
O97 Cd89 2.381 . S
O97 C96 1.258 . S
O98 Cd89 2.378 . S
O98 C96 1.256 . S
O99 Cd100 2.300 . S
O99 C106 1.275 . S
Cd100 O99 2.300 . S
Cd100 O108 2.381 . S
Cd100 O109 2.378 . S
O101 Cd102 2.385 . S
O101 C106 1.255 . S
Cd102 O101 2.385 . S
Cd102 O103 2.317 . S
O103 Cd102 2.317 . S
O103 C104 1.232 . S
C104 O103 1.232 . S
C104 O105 1.218 . S
O105 C104 1.218 . S
C106 O99 1.275 . S
C106 O101 1.255 . S
C107 O108 1.258 . S
C107 O109 1.256 . S
O108 Cd100 2.381 . S
O108 C107 1.258 . S
O109 Cd100 2.378 . S
O109 C107 1.256 . S
O110 Cd111 2.300 . S
O110 C117 1.275 . S
Cd111 O110 2.300 . S
Cd111 O119 2.381 . S
Cd111 O120 2.378 . S
O112 Cd113 2.385 . S
O112 C117 1.255 . S
Cd113 O112 2.385 . S
Cd113 O114 2.317 . S
O114 Cd113 2.317 . S
O114 C115 1.232 . S
C115 O114 1.232 . S
C115 O116 1.218 . S
O116 C115 1.218 . S
C117 O110 1.275 . S
C117 O112 1.255 . S
C118 O119 1.258 . S
C118 O120 1.256 . S
O119 Cd111 2.381 . S
O119 C118 1.258 . S
O120 Cd111 2.378 . S
O120 C118 1.256 . S
O121 Cd122 2.300 . S
O121 C128 1.275 . S
Cd122 O121 2.300 . S
Cd122 O130 2.381 . S
Cd122 O131 2.378 . S
O123 Cd124 2.385 . S
O123 C128 1.255 . S
Cd124 O123 2.385 . S
Cd124 O125 2.317 . S
O125 Cd124 2.317 . S
O125 C126 1.232 . S
C126 O125 1.232 . S
C126 O127 1.218 . S
O127 C126 1.218 . S
C128 O121 1.275 . S
C128 O123 1.255 . S
C129 O130 1.258 . S
C129 O131 1.256 . S
O130 Cd122 2.381 . S
O130 C129 1.258 . S
O131 Cd122 2.378 . S
O131 C129 1.256 . S
O132 Cd133 2.300 . S
O132 C139 1.275 . S
Cd133 O132 2.300 . S
Cd133 O141 2.381 . S
Cd133 O142 2.378 . S
O134 Cd135 2.385 . S
O134 C139 1.255 . S
Cd135 O134 2.385 . S
Cd135 O136 2.317 . S
O136 Cd135 2.317 . S
O136 C137 1.232 . S
C137 O136 1.232 . S
C137 O138 1.218 . S
O138 C137 1.218 . S
C139 O132 1.275 . S
C139 O134 1.255 . S
C140 O141 1.258 . S
C140 O142 1.256 . S
O141 Cd133 2.381 . S
O141 C140 1.258 . S
O142 Cd133 2.378 . S
O142 C140 1.256 . S
O143 Cd144 2.300 . S
O143 C150 1.275 . S
Cd144 O143 2.300 . S
Cd144 O152 2.381 . S
Cd144 O153 2.378 . S
O145 Cd146 2.385 . S
O145 C150 1.255 . S
Cd146 O145 2.385 . S
Cd146 O147 2.317 . S
O147 Cd146 2.317 . S
O147 C148 1.232 . S
C148 O147 1.232 . S
C148 O149 1.218 . S
O149 C148 1.218 . S
C150 O143 1.275 . S
C150 O145 1.255 . S
C151 O152 1.258 . S
C151 O153 1.256 . S
O152 Cd144 2.381 . S
O152 C151 1.258 . S
O153 Cd144 2.378 . S
O153 C151 1.256 . S
O154 Cd155 2.300 . S
O154 C161 1.275 . S
Cd155 O154 2.300 . S
Cd155 O163 2.381 . S
Cd155 O164 2.378 . S
O156 Cd157 2.385 . S
O156 C161 1.255 1_545 S
Cd157 O156 2.385 . S
Cd157 O158 2.317 . S
O158 Cd157 2.317 . S
O158 C159 1.232 . S
C159 O158 1.232 . S
C159 O160 1.218 . S
O160 C159 1.218 . S
C161 O154 1.275 . S
C161 O156 1.255 1_565 S
C162 O163 1.258 . S
C162 O164 1.256 . S
O163 Cd155 2.381 . S
O163 C162 1.258 . S
O164 Cd155 2.378 . S
O164 C162 1.256 . S
O165 Cd166 2.300 . S
O165 C172 1.275 . S
Cd166 O165 2.300 . S
Cd166 O174 2.381 . S
Cd166 O175 2.378 . S
O167 Cd168 2.385 . S
O167 C172 1.255 1_554 S
Cd168 O167 2.385 . S
Cd168 O169 2.317 . S
O169 Cd168 2.317 . S
O169 C170 1.232 . S
C170 O169 1.232 . S
C170 O171 1.218 . S
O171 C170 1.218 . S
C172 O165 1.275 . S
C172 O167 1.255 1_556 S
C173 O174 1.258 . S
C173 O175 1.256 . S
O174 Cd166 2.381 . S
O174 C173 1.258 . S
O175 Cd166 2.378 . S
O175 C173 1.256 . S
O176 Cd177 2.300 . S
O176 C183 1.275 . S
Cd177 O176 2.300 . S
Cd177 O185 2.381 . S
Cd177 O186 2.378 . S
O178 Cd179 2.385 . S
O178 C183 1.255 1_554 S
Cd179 O178 2.385 . S
Cd179 O180 2.317 . S
O180 Cd179 2.317 . S
O180 C181 1.232 . S
C181 O180 1.232 . S
C181 O182 1.218 . S
O182 C181 1.218 . S
C183 O176 1.275 . S
C183 O178 1.255 1_556 S
C184 O185 1.258 . S
C184 O186 1.256 . S
O185 Cd177 2.381 . S
O185 C184 1.258 . S
O186 Cd177 2.378 . S
O186 C184 1.256 . S
O187 Cd188 2.300 . S
O187 C194 1.275 . S
Cd188 O187 2.300 . S
Cd188 O196 2.381 . S
Cd188 O197 2.378 . S
O189 Cd190 2.385 . S
O189 C194 1.255 . S
Cd190 O189 2.385 . S
Cd190 O191 2.317 . S
O191 Cd190 2.317 . S
O191 C192 1.232 . S
C192 O191 1.232 . S
C192 O193 1.218 . S
O193 C192 1.218 . S
C194 O187 1.275 . S
C194 O189 1.255 . S
C195 O196 1.258 . S
C195 O197 1.256 . S
O196 Cd188 2.381 . S
O196 C195 1.258 . S
O197 Cd188 2.378 . S
O197 C195 1.256 . S
O198 Cd199 2.300 . S
O198 C205 1.275 . S
Cd199 O198 2.300 . S
Cd199 O207 2.381 . S
Cd199 O208 2.378 . S
O200 Cd201 2.385 . S
O200 C205 1.255 . S
Cd201 O200 2.385 . S
Cd201 O202 2.317 . S
O202 Cd201 2.317 . S
O202 C203 1.232 . S
C203 O202 1.232 . S
C203 O204 1.218 . S
O204 C203 1.218 . S
C205 O198 1.275 . S
C205 O200 1.255 . S
C206 O207 1.258 . S
C206 O208 1.256 . S
O207 Cd199 2.381 . S
O207 C206 1.258 . S
O208 Cd199 2.378 . S
O208 C206 1.256 . S
O209 Cd210 2.300 . S
O209 C216 1.275 . S
Cd210 O209 2.300 . S
Cd210 O218 2.381 . S
Cd210 O219 2.378 . S
O211 Cd212 2.385 . S
O211 C216 1.255 . S
Cd212 O211 2.385 . S
Cd212 O213 2.317 . S
O213 Cd212 2.317 . S
O213 C214 1.232 . S
C214 O213 1.232 . S
C214 O215 1.218 . S
O215 C214 1.218 . S
C216 O209 1.275 . S
C216 O211 1.255 . S
C217 O218 1.258 . S
C217 O219 1.256 . S
O218 Cd210 2.381 . S
O218 C217 1.258 . S
O219 Cd210 2.378 . S
O219 C217 1.256 . S
O220 Cd221 2.300 . S
O220 C227 1.275 . S
Cd221 O220 2.300 . S
Cd221 O229 2.381 . S
Cd221 O230 2.378 . S
O222 Cd223 2.385 . S
O222 C227 1.255 1_545 S
Cd223 O222 2.385 . S
Cd223 O224 2.317 . S
O224 Cd223 2.317 . S
O224 C225 1.232 . S
C225 O224 1.232 . S
C225 O226 1.218 . S
O226 C225 1.218 . S
C227 O220 1.275 . S
C227 O222 1.255 1_565 S
C228 O229 1.258 . S
C228 O230 1.256 . S
O229 Cd221 2.381 . S
O229 C228 1.258 . S
O230 Cd221 2.378 . S
O230 C228 1.256 . S
O231 Cd232 2.300 . S
O231 C238 1.275 . S
Cd232 O231 2.300 . S
Cd232 O240 2.381 . S
Cd232 O241 2.378 . S
O233 Cd234 2.385 . S
O233 C238 1.255 . S
Cd234 O233 2.385 . S
Cd234 O235 2.317 . S
O235 Cd234 2.317 . S
O235 C236 1.232 . S
C236 O235 1.232 . S
C236 O237 1.218 . S
O237 C236 1.218 . S
C238 O231 1.275 . S
C238 O233 1.255 . S
C239 O240 1.258 . S
C239 O241 1.256 . S
O240 Cd232 2.381 . S
O240 C239 1.258 . S
O241 Cd232 2.378 . S
O241 C239 1.256 . S
O242 Cd243 2.300 . S
O242 C249 1.275 . S
Cd243 O242 2.300 . S
Cd243 O251 2.381 . S
Cd243 O252 2.378 . S
O244 Cd245 2.385 . S
O244 C249 1.255 . S
Cd245 O244 2.385 . S
Cd245 O246 2.317 . S
O246 Cd245 2.317 . S
O246 C247 1.232 . S
C247 O246 1.232 . S
C247 O248 1.218 . S
O248 C247 1.218 . S
C249 O242 1.275 . S
C249 O244 1.255 . S
C250 O251 1.258 . S
C250 O252 1.256 . S
O251 Cd243 2.381 . S
O251 C250 1.258 . S
O252 Cd243 2.378 . S
O252 C250 1.256 . S
O253 Cd254 2.300 . S
O253 C260 1.275 . S
Cd254 O253 2.300 . S
Cd254 O262 2.381 . S
Cd254 O263 2.378 . S
O255 Cd256 2.385 . S
O255 C260 1.255 . S
Cd256 O255 2.385 . S
Cd256 O257 2.317 . S
O257 Cd256 2.317 . S
O257 C258 1.232 . S
C258 O257 1.232 . S
C258 O259 1.218 . S
O259 C258 1.218 . S
C260 O253 1.275 . S
C260 O255 1.255 . S
C261 O262 1.258 . S
C261 O263 1.256 . S
O262 Cd254 2.381 . S
O262 C261 1.258 . S
O263 Cd254 2.378 . S
O263 C261 1.256 . S
O264 Cd265 2.300 . S
O264 C271 1.275 . S
Cd265 O264 2.300 . S
Cd265 O273 2.381 . S
Cd265 O274 2.378 . S
O266 Cd267 2.385 . S
O266 C271 1.255 . S
Cd267 O266 2.385 . S
Cd267 O268 2.317 . S
O268 Cd267 2.317 . S
O268 C269 1.232 . S
C269 O268 1.232 . S
C269 O270 1.218 . S
O270 C269 1.218 . S
C271 O264 1.275 . S
C271 O266 1.255 . S
C272 O273 1.258 . S
C272 O274 1.256 . S
O273 Cd265 2.381 . S
O273 C272 1.258 . S
O274 Cd265 2.378 . S
O274 C272 1.256 . S
O275 Cd276 2.300 . S
O275 C282 1.275 . S
Cd276 O275 2.300 . S
Cd276 O284 2.381 . S
Cd276 O285 2.378 . S
O277 Cd278 2.385 . S
O277 C282 1.255 . S
Cd278 O277 2.385 . S
Cd278 O279 2.317 . S
O279 Cd278 2.317 . S
O279 C280 1.232 . S
C280 O279 1.232 . S
C280 O281 1.218 . S
O281 C280 1.218 . S
C282 O275 1.275 . S
C282 O277 1.255 . S
C283 O284 1.258 . S
C283 O285 1.256 . S
O284 Cd276 2.381 . S
O284 C283 1.258 . S
O285 Cd276 2.378 . S
O285 C283 1.256 . S
O286 Cd287 2.300 . S
O286 C293 1.275 . S
Cd287 O286 2.300 . S
Cd287 O295 2.381 . S
Cd287 O296 2.378 . S
O288 Cd289 2.385 . S
O288 C293 1.255 . S
Cd289 O288 2.385 . S
Cd289 O290 2.317 . S
O290 Cd289 2.317 . S
O290 C291 1.232 . S
C291 O290 1.232 . S
C291 O292 1.218 . S
O292 C291 1.218 . S
C293 O286 1.275 . S
C293 O288 1.255 . S
C294 O295 1.258 . S
C294 O296 1.256 . S
O295 Cd287 2.381 . S
O295 C294 1.258 . S
O296 Cd287 2.378 . S
O296 C294 1.256 . S
O297 Cd298 2.300 . S
O297 C304 1.275 . S
Cd298 O297 2.300 . S
Cd298 O306 2.381 . S
Cd298 O307 2.378 . S
O299 Cd300 2.385 . S
O299 C304 1.255 . S
Cd300 O299 2.385 . S
Cd300 O301 2.317 . S
O301 Cd300 2.317 . S
O301 C302 1.232 . S
C302 O301 1.232 . S
C302 O303 1.218 . S
O303 C302 1.218 . S
C304 O297 1.275 . S
C304 O299 1.255 . S
C305 O306 1.258 . S
C305 O307 1.256 . S
O306 Cd298 2.381 . S
O306 C305 1.258 . S
O307 Cd298 2.378 . S
O307 C305 1.256 . S
O308 Cd309 2.300 . S
O308 C315 1.275 . S
Cd309 O308 2.300 . S
Cd309 O317 2.381 . S
Cd309 O318 2.378 . S
O310 Cd311 2.385 . S
O310 C315 1.255 . S
Cd311 O310 2.385 . S
Cd311 O312 2.317 . S
O312 Cd311 2.317 . S
O312 C313 1.232 . S
C313 O312 1.232 . S
C313 O314 1.218 . S
O314 C313 1.218 . S
C315 O308 1.275 . S
C315 O310 1.255 . S
C316 O317 1.258 . S
C316 O318 1.256 . S
O317 Cd309 2.381 . S
O317 C316 1.258 . S
O318 Cd309 2.378 . S
O318 C316 1.256 . S
O319 Cd320 2.300 . S
O319 C326 1.275 . S
Cd320 O319 2.300 . S
Cd320 O328 2.381 . S
Cd320 O329 2.378 . S
O321 Cd322 2.385 . S
O321 C326 1.255 . S
Cd322 O321 2.385 . S
Cd322 O323 2.317 . S
O323 Cd322 2.317 . S
O323 C324 1.232 . S
C324 O323 1.232 . S
C324 O325 1.218 . S
O325 C324 1.218 . S
C326 O319 1.275 . S
C326 O321 1.255 . S
C327 O328 1.258 . S
C327 O329 1.256 . S
O328 Cd320 2.381 . S
O328 C327 1.258 . S
O329 Cd320 2.378 . S
O329 C327 1.256 . S
O330 Cd331 2.300 . S
O330 C337 1.275 . S
Cd331 O330 2.300 . S
Cd331 O339 2.381 . S
Cd331 O340 2.378 . S
O332 Cd333 2.385 . S
O332 C337 1.255 . S
Cd333 O332 2.385 . S
Cd333 O334 2.317 . S
O334 Cd333 2.317 . S
O334 C335 1.232 . S
C335 O334 1.232 . S
C335 O336 1.218 . S
O336 C335 1.218 . S
C337 O330 1.275 . S
C337 O332 1.255 . S
C338 O339 1.258 . S
C338 O340 1.256 . S
O339 Cd331 2.381 . S
O339 C338 1.258 . S
O340 Cd331 2.378 . S
O340 C338 1.256 . S
O341 Cd342 2.300 . S
O341 C348 1.275 . S
Cd342 O341 2.300 . S
Cd342 O350 2.381 . S
Cd342 O351 2.378 . S
O343 Cd344 2.385 . S
O343 C348 1.255 . S
Cd344 O343 2.385 . S
Cd344 O345 2.317 . S
O345 Cd344 2.317 . S
O345 C346 1.232 . S
C346 O345 1.232 . S
C346 O347 1.218 . S
O347 C346 1.218 . S
C348 O341 1.275 . S
C348 O343 1.255 . S
C349 O350 1.258 . S
C349 O351 1.256 . S
O350 Cd342 2.381 . S
O350 C349 1.258 . S
O351 Cd342 2.378 . S
O351 C349 1.256 . S
O352 Cd353 2.300 . S
O352 C359 1.275 . S
Cd353 O352 2.300 . S
Cd353 O361 2.381 . S
Cd353 O362 2.378 . S
O354 Cd355 2.385 . S
O354 C359 1.255 . S
Cd355 O354 2.385 . S
Cd355 O356 2.317 . S
O356 Cd355 2.317 . S
O356 C357 1.232 . S
C357 O356 1.232 . S
C357 O358 1.218 . S
O358 C357 1.218 . S
C359 O352 1.275 . S
C359 O354 1.255 . S
C360 O361 1.258 . S
C360 O362 1.256 . S
O361 Cd353 2.381 . S
O361 C360 1.258 . S
O362 Cd353 2.378 . S
O362 C360 1.256 . S
O363 Cd364 2.300 . S
O363 C370 1.275 . S
Cd364 O363 2.300 . S
Cd364 O372 2.381 . S
Cd364 O373 2.378 . S
O365 Cd366 2.385 . S
O365 C370 1.255 . S
Cd366 O365 2.385 . S
Cd366 O367 2.317 . S
O367 Cd366 2.317 . S
O367 C368 1.232 . S
C368 O367 1.232 . S
C368 O369 1.218 . S
O369 C368 1.218 . S
C370 O363 1.275 . S
C370 O365 1.255 . S
C371 O372 1.258 . S
C371 O373 1.256 . S
O372 Cd364 2.381 . S
O372 C371 1.258 . S
O373 Cd364 2.378 . S
O373 C371 1.256 . S
O374 Cd375 2.300 . S
O374 C381 1.275 . S
Cd375 O374 2.300 . S
Cd375 O383 2.381 . S
Cd375 O384 2.378 . S
O376 Cd377 2.385 . S
O376 C381 1.255 . S
Cd377 O376 2.385 . S
Cd377 O378 2.317 . S
O378 Cd377 2.317 . S
O378 C379 1.232 . S
C379 O378 1.232 . S
C379 O380 1.218 . S
O380 C379 1.218 . S
C381 O374 1.275 . S
C381 O376 1.255 . S
C382 O383 1.258 . S
C382 O384 1.256 . S
O383 Cd375 2.381 . S
O383 C382 1.258 . S
O384 Cd375 2.378 . S
O384 C382 1.256 . S
O385 Cd386 2.300 . S
O385 C392 1.275 . S
Cd386 O385 2.300 . S
Cd386 O394 2.381 . S
Cd386 O395 2.378 . S
O387 Cd388 2.385 . S
O387 C392 1.255 . S
Cd388 O387 2.385 . S
Cd388 O389 2.317 . S
O389 Cd388 2.317 . S
O389 C390 1.232 . S
C390 O389 1.232 . S
C390 O391 1.218 . S
O391 C390 1.218 . S
C392 O385 1.275 . S
C392 O387 1.255 . S
C393 O394 1.258 . S
C393 O395 1.256 . S
O394 Cd386 2.381 . S
O394 C393 1.258 . S
O395 Cd386 2.378 . S
O395 C393 1.256 . S
O396 Cd397 2.300 . S
O396 C403 1.275 . S
Cd397 O396 2.300 . S
Cd397 O405 2.381 . S
Cd397 O406 2.378 . S
O398 Cd399 2.385 . S
O398 C403 1.255 . S
Cd399 O398 2.385 . S
Cd399 O400 2.317 . S
O400 Cd399 2.317 . S
O400 C401 1.232 . S
C401 O400 1.232 . S
C401 O402 1.218 . S
O402 C401 1.218 . S
C403 O396 1.275 . S
C403 O398 1.255 . S
C404 O405 1.258 . S
C404 O406 1.256 . S
O405 Cd397 2.381 . S
O405 C404 1.258 . S
O406 Cd397 2.378 . S
O406 C404 1.256 . S
O407 Cd408 2.300 . S
O407 C414 1.275 . S
Cd408 O407 2.300 . S
Cd408 O416 2.381 . S
Cd408 O417 2.378 . S
O409 Cd410 2.385 . S
O409 C414 1.255 1_554 S
Cd410 O409 2.385 . S
Cd410 O411 2.317 . S
O411 Cd410 2.317 . S
O411 C412 1.232 . S
C412 O411 1.232 . S
C412 O413 1.218 . S
O413 C412 1.218 . S
C414 O407 1.275 . S
C414 O409 1.255 1_556 S
C415 O416 1.258 . S
C415 O417 1.256 . S
O416 Cd408 2.381 . S
O416 C415 1.258 . S
O417 Cd408 2.378 . S
O417 C415 1.256 . S
O418 Cd419 2.300 . S
O418 C425 1.275 . S
Cd419 O418 2.300 . S
Cd419 O427 2.381 . S
Cd419 O428 2.378 . S
O420 Cd421 2.385 . S
O420 C425 1.255 . S
Cd421 O420 2.385 . S
Cd421 O422 2.317 . S
O422 Cd421 2.317 . S
O422 C423 1.232 . S
C423 O422 1.232 . S
C423 O424 1.218 . S
O424 C423 1.218 . S
C425 O418 1.275 . S
C425 O420 1.255 . S
C426 O427 1.258 . S
C426 O428 1.256 . S
O427 Cd419 2.381 . S
O427 C426 1.258 . S
O428 Cd419 2.378 . S
O428 C426 1.256 . S
O429 Cd430 2.300 . S
O429 C436 1.275 . S
Cd430 O429 2.300 . S
Cd430 O438 2.381 . S
Cd430 O439 2.378 . S
O431 Cd432 2.385 . S
O431 C436 1.255 . S
Cd432 O431 2.385 . S
Cd432 O433 2.317 . S
O433 Cd432 2.317 . S
O433 C434 1.232 . S
C434 O433 1.232 . S
C434 O435 1.218 . S
O435 C434 1.218 . S
C436 O429 1.275 . S
C436 O431 1.255 . S
C437 O438 1.258 . S
C437 O439 1.256 . S
O438 Cd430 2.381 . S
O438 C437 1.258 . S
O439 Cd430 2.378 . S
O439 C437 1.256 . S
O440 Cd441 2.300 . S
O440 C447 1.275 . S
Cd441 O440 2.300 . S
Cd441 O449 2.381 . S
Cd441 O450 2.378 . S
O442 Cd443 2.385 . S
O442 C447 1.255 . S
Cd443 O442 2.385 . S
Cd443 O444 2.317 . S
O444 Cd443 2.317 . S
O444 C445 1.232 . S
C445 O444 1.232 . S
C445 O446 1.218 . S
O446 C445 1.218 . S
C447 O440 1.275 . S
C447 O442 1.255 . S
C448 O449 1.258 . S
C448 O450 1.256 . S
O449 Cd441 2.381 . S
O449 C448 1.258 . S
O450 Cd441 2.378 . S
O450 C448 1.256 . S
O451 Cd452 2.300 . S
O451 C458 1.275 . S
Cd452 O451 2.300 . S
Cd452 O460 2.381 . S
Cd452 O461 2.378 . S
O453 Cd454 2.385 . S
O453 C458 1.255 . S
Cd454 O453 2.385 . S
Cd454 O455 2.317 . S
O455 Cd454 2.317 . S
O455 C456 1.232 . S
C456 O455 1.232 . S
C456 O457 1.218 . S
O457 C456 1.218 . S
C458 O451 1.275 . S
C458 O453 1.255 . S
C459 O460 1.258 . S
C459 O461 1.256 . S
O460 Cd452 2.381 . S
O460 C459 1.258 . S
O461 Cd452 2.378 . S
O461 C459 1.256 . S
O462 Cd463 2.300 . S
O462 C469 1.275 . S
Cd463 O462 2.300 . S
Cd463 O471 2.381 . S
Cd463 O472 2.378 . S
O464 Cd465 2.385 . S
O464 C469 1.255 . S
Cd465 O464 2.385 . S
Cd465 O466 2.317 . S
O466 Cd465 2.317 . S
O466 C467 1.232 . S
C467 O466 1.232 . S
C467 O468 1.218 . S
O468 C467 1.218 . S
C469 O462 1.275 . S
C469 O464 1.255 . S
C470 O471 1.258 . S
C470 O472 1.256 . S
O471 Cd463 2.381 . S
O471 C470 1.258 . S
O472 Cd463 2.378 . S
O472 C470 1.256 . S
O473 Cd474 2.300 . S
O473 C480 1.275 . S
Cd474 O473 2.300 . S
Cd474 O482 2.381 . S
Cd474 O483 2.378 . S
O475 Cd476 2.385 . S
O475 C480 1.255 . S
Cd476 O475 2.385 . S
Cd476 O477 2.317 . S
O477 Cd476 2.317 . S
O477 C478 1.232 . S
C478 O477 1.232 . S
C478 O479 1.218 . S
O479 C478 1.218 . S
C480 O473 1.275 . S
C480 O475 1.255 . S
C481 O482 1.258 . S
C481 O483 1.256 . S
O482 Cd474 2.381 . S
O482 C481 1.258 . S
O483 Cd474 2.378 . S
O483 C481 1.256 . S
O484 Cd485 2.300 . S
O484 C491 1.275 . S
Cd485 O484 2.300 . S
Cd485 O493 2.381 . S
Cd485 O494 2.378 . S
O486 Cd487 2.385 . S
O486 C491 1.255 . S
Cd487 O486 2.385 . S
Cd487 O488 2.317 . S
O488 Cd487 2.317 . S
O488 C489 1.232 . S
C489 O488 1.232 . S
C489 O490 1.218 . S
O490 C489 1.218 . S
C491 O484 1.275 . S
C491 O486 1.255 . S
C492 O493 1.258 . S
C492 O494 1.256 . S
O493 Cd485 2.381 . S
O493 C492 1.258 . S
O494 Cd485 2.378 . S
O494 C492 1.256 . S
O495 Cd496 2.300 . S
O495 C502 1.275 . S
Cd496 O495 2.300 . S
Cd496 O504 2.381 . S
Cd496 O505 2.378 . S
O497 Cd498 2.385 . S
O497 C502 1.255 1_554 S
Cd498 O497 2.385 . S
Cd498 O499 2.317 . S
O499 Cd498 2.317 . S
O499 C500 1.232 . S
C500 O499 1.232 . S
C500 O501 1.218 . S
O501 C500 1.218 . S
C502 O495 1.275 . S
C502 O497 1.255 1_556 S
C503 O504 1.258 . S
C503 O505 1.256 . S
O504 Cd496 2.381 . S
O504 C503 1.258 . S
O505 Cd496 2.378 . S
O505 C503 1.256 . S
O506 Cd507 2.300 . S
O506 C513 1.275 . S
Cd507 O506 2.300 . S
Cd507 O515 2.381 . S
Cd507 O516 2.378 . S
O508 Cd509 2.385 . S
O508 C513 1.255 1_545 S
Cd509 O508 2.385 . S
Cd509 O510 2.317 . S
O510 Cd509 2.317 . S
O510 C511 1.232 . S
C511 O510 1.232 . S
C511 O512 1.218 . S
O512 C511 1.218 . S
C513 O506 1.275 . S
C513 O508 1.255 1_565 S
C514 O515 1.258 . S
C514 O516 1.256 . S
O515 Cd507 2.381 . S
O515 C514 1.258 . S
O516 Cd507 2.378 . S
O516 C514 1.256 . S
O517 Cd518 2.300 . S
O517 C524 1.275 . S
Cd518 O517 2.300 . S
Cd518 O526 2.381 . S
Cd518 O527 2.378 . S
O519 Cd520 2.385 . S
O519 C524 1.255 . S
Cd520 O519 2.385 . S
Cd520 O521 2.317 . S
O521 Cd520 2.317 . S
O521 C522 1.232 . S
C522 O521 1.232 . S
C522 O523 1.218 . S
O523 C522 1.218 . S
C524 O517 1.275 . S
C524 O519 1.255 . S
C525 O526 1.258 . S
C525 O527 1.256 . S
O526 Cd518 2.381 . S
O526 C525 1.258 . S
O527 Cd518 2.378 . S
O527 C525 1.256 . S
C528 C529 1.369 . S
C528 C530 1.419 . S
C528 H532 0.930 . S
C529 C528 1.369 . S
C529 C538 1.429 . S
C530 C528 1.419 . S
C530 C531 1.363 . S
C530 H533 0.929 . S
C531 C530 1.363 . S
C531 C537 1.428 . S
H532 C528 0.930 . S
H533 C530 0.929 . S
S534 N535 1.613 . S
S534 N536 1.610 . S
N535 S534 1.613 . S
N535 C538 1.350 . S
N536 S534 1.610 . S
N536 C537 1.351 . S
C537 C531 1.428 . S
C537 N536 1.351 . S
C537 C538 1.434 . S
C538 C529 1.429 . S
C538 N535 1.350 . S
C538 C537 1.434 . S
C539 C540 1.369 . S
C539 C541 1.419 . S
C539 H543 0.930 . S
C540 C539 1.369 . S
C540 C549 1.429 . S
C541 C539 1.419 . S
C541 C542 1.363 . S
C541 H544 0.929 . S
C542 C541 1.363 . S
C542 C548 1.428 . S
H543 C539 0.930 . S
H544 C541 0.929 . S
S545 N546 1.613 . S
S545 N547 1.610 . S
N546 S545 1.613 . S
N546 C549 1.350 . S
N547 S545 1.610 . S
N547 C548 1.351 . S
C548 C542 1.428 . S
C548 N547 1.351 . S
C548 C549 1.434 . S
C549 C540 1.429 . S
C549 N546 1.350 . S
C549 C548 1.434 . S
C550 C551 1.369 . S
C550 C552 1.419 . S
C550 H554 0.930 . S
C551 C550 1.369 . S
C551 C560 1.429 . S
C552 C550 1.419 . S
C552 C553 1.363 . S
C552 H555 0.929 . S
C553 C552 1.363 . S
C553 C559 1.428 . S
H554 C550 0.930 . S
H555 C552 0.929 . S
S556 N557 1.598 1_554 S
S556 N558 1.589 1_554 S
N557 S556 1.598 1_556 S
N557 C560 1.350 . S
N558 S556 1.589 1_556 S
N558 C559 1.351 . S
C559 C553 1.428 . S
C559 N558 1.351 . S
C559 C560 1.434 . S
C560 C551 1.429 . S
C560 N557 1.350 . S
C560 C559 1.434 . S
C561 C562 1.369 . S
C561 C563 1.419 . S
C561 H565 0.930 . S
C562 C561 1.369 . S
C562 C571 1.429 . S
C563 C561 1.419 . S
C563 C564 1.363 . S
C563 H566 0.929 . S
C564 C563 1.363 . S
C564 C570 1.428 . S
H565 C561 0.930 . S
H566 C563 0.929 . S
S567 N568 1.613 . S
S567 N569 1.610 . S
N568 S567 1.613 . S
N568 C571 1.350 . S
N569 S567 1.610 . S
N569 C570 1.351 . S
C570 C564 1.428 . S
C570 N569 1.351 . S
C570 C571 1.434 . S
C571 C562 1.429 . S
C571 N568 1.350 . S
C571 C570 1.434 . S
C572 C573 1.369 . S
C572 C574 1.419 . S
C572 H576 0.930 . S
C573 C572 1.369 . S
C573 C582 1.429 . S
C574 C572 1.419 . S
C574 C575 1.363 . S
C574 H577 0.929 . S
C575 C574 1.363 . S
C575 C581 1.428 . S
H576 C572 0.930 . S
H577 C574 0.929 . S
S578 N579 1.613 . S
S578 N580 1.610 . S
N579 S578 1.613 . S
N579 C582 1.350 . S
N580 S578 1.610 . S
N580 C581 1.351 . S
C581 C575 1.428 . S
C581 N580 1.351 . S
C581 C582 1.434 . S
C582 C573 1.429 . S
C582 N579 1.350 . S
C582 C581 1.434 . S
C583 C584 1.369 . S
C583 C585 1.419 . S
C583 H587 0.930 . S
C584 C583 1.369 . S
C584 C593 1.429 . S
C585 C583 1.419 . S
C585 C586 1.363 . S
C585 H588 0.929 . S
C586 C585 1.363 . S
C586 C592 1.428 . S
H587 C583 0.930 . S
H588 C585 0.929 . S
S589 N590 1.649 . S
S589 N591 1.637 . S
N590 S589 1.649 . S
N590 C593 1.350 . S
N591 S589 1.637 . S
N591 C592 1.351 . S
C592 C586 1.428 . S
C592 N591 1.351 . S
C592 C593 1.434 . S
C593 C584 1.429 . S
C593 N590 1.350 . S
C593 C592 1.434 . S
C594 C595 1.369 . S
C594 C596 1.419 . S
C594 H598 0.930 . S
C595 C594 1.369 . S
C595 C604 1.429 . S
C596 C594 1.419 . S
C596 C597 1.363 . S
C596 H599 0.929 . S
C597 C596 1.363 . S
C597 C603 1.428 . S
H598 C594 0.930 . S
H599 C596 0.929 . S
S600 N601 1.613 . S
S600 N602 1.610 . S
N601 S600 1.613 . S
N601 C604 1.350 . S
N602 S600 1.610 . S
N602 C603 1.351 . S
C603 C597 1.428 . S
C603 N602 1.351 . S
C603 C604 1.434 . S
C604 C595 1.429 . S
C604 N601 1.350 . S
C604 C603 1.434 . S
C605 C606 1.369 . S
C605 C607 1.419 . S
C605 H609 0.930 . S
C606 C605 1.369 . S
C606 C615 1.429 . S
C607 C605 1.419 . S
C607 C608 1.363 . S
C607 H610 0.929 . S
C608 C607 1.363 . S
C608 C614 1.428 . S
H609 C605 0.930 . S
H610 C607 0.929 . S
S611 N612 1.613 . S
S611 N613 1.610 . S
N612 S611 1.613 . S
N612 C615 1.350 . S
N613 S611 1.610 . S
N613 C614 1.351 . S
C614 C608 1.428 . S
C614 N613 1.351 . S
C614 C615 1.434 . S
C615 C606 1.429 . S
C615 N612 1.350 . S
C615 C614 1.434 . S
C616 C617 1.369 . S
C616 C618 1.419 . S
C616 H620 0.930 . S
C617 C616 1.369 . S
C617 C626 1.429 . S
C618 C616 1.419 . S
C618 C619 1.363 . S
C618 H621 0.929 . S
C619 C618 1.363 . S
C619 C625 1.428 . S
H620 C616 0.930 . S
H621 C618 0.929 . S
S622 N623 1.613 . S
S622 N624 1.610 . S
N623 S622 1.613 . S
N623 C626 1.350 . S
N624 S622 1.610 . S
N624 C625 1.351 . S
C625 C619 1.428 . S
C625 N624 1.351 . S
C625 C626 1.434 . S
C626 C617 1.429 . S
C626 N623 1.350 . S
C626 C625 1.434 . S
C627 C628 1.369 . S
C627 C629 1.419 . S
C627 H631 0.930 . S
C628 C627 1.369 . S
C628 C637 1.429 . S
C629 C627 1.419 . S
C629 C630 1.363 . S
C629 H632 0.929 . S
C630 C629 1.363 . S
C630 C636 1.428 . S
H631 C627 0.930 . S
H632 C629 0.929 . S
S633 N634 1.613 . S
S633 N635 1.610 . S
N634 S633 1.613 . S
N634 C637 1.350 . S
N635 S633 1.610 . S
N635 C636 1.351 . S
C636 C630 1.428 . S
C636 N635 1.351 . S
C636 C637 1.434 . S
C637 C628 1.429 . S
C637 N634 1.350 . S
C637 C636 1.434 . S
C638 C639 1.369 . S
C638 C640 1.419 . S
C638 H642 0.930 . S
C639 C638 1.369 . S
C639 C648 1.429 . S
C640 C638 1.419 . S
C640 C641 1.363 . S
C640 H643 0.929 . S
C641 C640 1.363 . S
C641 C647 1.428 . S
H642 C638 0.930 . S
H643 C640 0.929 . S
S644 N645 1.613 . S
S644 N646 1.610 . S
N645 S644 1.613 . S
N645 C648 1.350 . S
N646 S644 1.610 . S
N646 C647 1.351 . S
C647 C641 1.428 . S
C647 N646 1.351 . S
C647 C648 1.434 . S
C648 C639 1.429 . S
C648 N645 1.350 . S
C648 C647 1.434 . S
C649 C650 1.369 . S
C649 C651 1.419 . S
C649 H653 0.930 . S
C650 C649 1.369 . S
C650 C659 1.429 . S
C651 C649 1.419 . S
C651 C652 1.363 . S
C651 H654 0.929 . S
C652 C651 1.363 . S
C652 C658 1.428 . S
H653 C649 0.930 . S
H654 C651 0.929 . S
S655 N656 1.613 . S
S655 N657 1.610 . S
N656 S655 1.613 . S
N656 C659 1.350 . S
N657 S655 1.610 . S
N657 C658 1.351 . S
C658 C652 1.428 . S
C658 N657 1.351 . S
C658 C659 1.434 . S
C659 C650 1.429 . S
C659 N656 1.350 . S
C659 C658 1.434 . S
C660 C661 1.369 . S
C660 C662 1.419 . S
C660 H664 0.930 . S
C661 C660 1.369 . S
C661 C670 1.429 . S
C662 C660 1.419 . S
C662 C663 1.363 . S
C662 H665 0.929 . S
C663 C662 1.363 . S
C663 C669 1.428 . S
H664 C660 0.930 . S
H665 C662 0.929 . S
S666 N667 1.613 . S
S666 N668 1.610 . S
N667 S666 1.613 . S
N667 C670 1.350 . S
N668 S666 1.610 . S
N668 C669 1.351 . S
C669 C663 1.428 . S
C669 N668 1.351 . S
C669 C670 1.434 . S
C670 C661 1.429 . S
C670 N667 1.350 . S
C670 C669 1.434 . S
C671 C672 1.369 . S
C671 C673 1.419 . S
C671 H675 0.930 . S
C672 C671 1.369 . S
C672 C681 1.429 . S
C673 C671 1.419 . S
C673 C674 1.363 . S
C673 H676 0.929 . S
C674 C673 1.363 . S
C674 C680 1.428 . S
H675 C671 0.930 . S
H676 C673 0.929 . S
S677 N678 1.613 . S
S677 N679 1.610 . S
N678 S677 1.613 . S
N678 C681 1.350 . S
N679 S677 1.610 . S
N679 C680 1.351 . S
C680 C674 1.428 . S
C680 N679 1.351 . S
C680 C681 1.434 . S
C681 C672 1.429 . S
C681 N678 1.350 . S
C681 C680 1.434 . S
C682 C683 1.369 . S
C682 C684 1.419 . S
C682 H686 0.930 . S
C683 C682 1.369 . S
C683 C692 1.429 . S
C684 C682 1.419 . S
C684 C685 1.363 . S
C684 H687 0.929 . S
C685 C684 1.363 . S
C685 C691 1.428 . S
H686 C682 0.930 . S
H687 C684 0.929 . S
S688 N689 1.613 . S
S688 N690 1.610 . S
N689 S688 1.613 . S
N689 C692 1.350 . S
N690 S688 1.610 . S
N690 C691 1.351 . S
C691 C685 1.428 . S
C691 N690 1.351 . S
C691 C692 1.434 . S
C692 C683 1.429 . S
C692 N689 1.350 . S
C692 C691 1.434 . S
C693 C694 1.369 . S
C693 C695 1.419 . S
C693 H697 0.930 . S
C694 C693 1.369 . S
C694 C703 1.429 . S
C695 C693 1.419 . S
C695 C696 1.363 . S
C695 H698 0.929 . S
C696 C695 1.363 . S
C696 C702 1.428 . S
H697 C693 0.930 . S
H698 C695 0.929 . S
S699 N700 1.613 . S
S699 N701 1.610 . S
N700 S699 1.613 . S
N700 C703 1.350 . S
N701 S699 1.610 . S
N701 C702 1.351 . S
C702 C696 1.428 . S
C702 N701 1.351 . S
C702 C703 1.434 . S
C703 C694 1.429 . S
C703 N700 1.350 . S
C703 C702 1.434 . S
C704 C705 1.369 . S
C704 C706 1.419 . S
C704 H708 0.930 . S
C705 C704 1.369 . S
C705 C714 1.429 . S
C706 C704 1.419 . S
C706 C707 1.363 . S
C706 H709 0.929 . S
C707 C706 1.363 . S
C707 C713 1.428 . S
H708 C704 0.930 . S
H709 C706 0.929 . S
S710 N711 1.613 . S
S710 N712 1.610 . S
N711 S710 1.613 . S
N711 C714 1.350 . S
N712 S710 1.610 . S
N712 C713 1.351 . S
C713 C707 1.428 . S
C713 N712 1.351 . S
C713 C714 1.434 . S
C714 C705 1.429 . S
C714 N711 1.350 . S
C714 C713 1.434 . S
C715 C716 1.369 . S
C715 C717 1.419 . S
C715 H719 0.930 . S
C716 C715 1.369 . S
C716 C725 1.429 . S
C717 C715 1.419 . S
C717 C718 1.363 . S
C717 H720 0.929 . S
C718 C717 1.363 . S
C718 C724 1.428 . S
H719 C715 0.930 . S
H720 C717 0.929 . S
S721 N722 1.613 . S
S721 N723 1.610 . S
N722 S721 1.613 . S
N722 C725 1.350 . S
N723 S721 1.610 . S
N723 C724 1.351 . S
C724 C718 1.428 . S
C724 N723 1.351 . S
C724 C725 1.434 . S
C725 C716 1.429 . S
C725 N722 1.350 . S
C725 C724 1.434 . S
C726 C727 1.369 . S
C726 C728 1.419 . S
C726 H730 0.930 . S
C727 C726 1.369 . S
C727 C736 1.429 . S
C728 C726 1.419 . S
C728 C729 1.363 . S
C728 H731 0.929 . S
C729 C728 1.363 . S
C729 C735 1.428 . S
H730 C726 0.930 . S
H731 C728 0.929 . S
S732 N733 1.613 . S
S732 N734 1.610 . S
N733 S732 1.613 . S
N733 C736 1.350 . S
N734 S732 1.610 . S
N734 C735 1.351 . S
C735 C729 1.428 . S
C735 N734 1.351 . S
C735 C736 1.434 . S
C736 C727 1.429 . S
C736 N733 1.350 . S
C736 C735 1.434 . S
C737 C738 1.369 . S
C737 C739 1.419 . S
C737 H741 0.930 . S
C738 C737 1.369 . S
C738 C747 1.429 . S
C739 C737 1.419 . S
C739 C740 1.363 . S
C739 H742 0.929 . S
C740 C739 1.363 . S
C740 C746 1.428 . S
H741 C737 0.930 . S
H742 C739 0.929 . S
S743 N744 1.613 . S
S743 N745 1.610 . S
N744 S743 1.613 . S
N744 C747 1.350 . S
N745 S743 1.610 . S
N745 C746 1.351 . S
C746 C740 1.428 . S
C746 N745 1.351 . S
C746 C747 1.434 . S
C747 C738 1.429 . S
C747 N744 1.350 . S
C747 C746 1.434 . S
C748 C749 1.369 . S
C748 C750 1.419 . S
C748 H752 0.930 . S
C749 C748 1.369 . S
C749 C758 1.429 . S
C750 C748 1.419 . S
C750 C751 1.363 . S
C750 H753 0.929 . S
C751 C750 1.363 . S
C751 C757 1.428 . S
H752 C748 0.930 . S
H753 C750 0.929 . S
S754 N755 1.613 . S
S754 N756 1.610 . S
N755 S754 1.613 . S
N755 C758 1.350 . S
N756 S754 1.610 . S
N756 C757 1.351 . S
C757 C751 1.428 . S
C757 N756 1.351 . S
C757 C758 1.434 . S
C758 C749 1.429 . S
C758 N755 1.350 . S
C758 C757 1.434 . S
C759 C760 1.369 . S
C759 C761 1.419 . S
C759 H763 0.930 . S
C760 C759 1.369 . S
C760 C769 1.429 . S
C761 C759 1.419 . S
C761 C762 1.363 . S
C761 H764 0.929 . S
C762 C761 1.363 . S
C762 C768 1.428 . S
H763 C759 0.930 . S
H764 C761 0.929 . S
S765 N766 1.613 . S
S765 N767 1.610 . S
N766 S765 1.613 . S
N766 C769 1.350 . S
N767 S765 1.610 . S
N767 C768 1.351 . S
C768 C762 1.428 . S
C768 N767 1.351 . S
C768 C769 1.434 . S
C769 C760 1.429 . S
C769 N766 1.350 . S
C769 C768 1.434 . S
C770 C771 1.369 . S
C770 C772 1.419 . S
C770 H774 0.930 . S
C771 C770 1.369 . S
C771 C780 1.429 . S
C772 C770 1.419 . S
C772 C773 1.363 . S
C772 H775 0.929 . S
C773 C772 1.363 . S
C773 C779 1.428 . S
H774 C770 0.930 . S
H775 C772 0.929 . S
S776 N777 1.613 . S
S776 N778 1.610 . S
N777 S776 1.613 . S
N777 C780 1.350 . S
N778 S776 1.610 . S
N778 C779 1.351 . S
C779 C773 1.428 . S
C779 N778 1.351 . S
C779 C780 1.434 . S
C780 C771 1.429 . S
C780 N777 1.350 . S
C780 C779 1.434 . S
C781 C782 1.369 . S
C781 C783 1.419 . S
C781 H785 0.930 . S
C782 C781 1.369 . S
C782 C791 1.429 . S
C783 C781 1.419 . S
C783 C784 1.363 . S
C783 H786 0.929 . S
C784 C783 1.363 . S
C784 C790 1.428 . S
H785 C781 0.930 . S
H786 C783 0.929 . S
S787 N788 1.613 1_455 S
S787 N789 1.610 1_455 S
N788 S787 1.613 1_655 S
N788 C791 1.350 . S
N789 S787 1.610 1_655 S
N789 C790 1.351 . S
C790 C784 1.428 . S
C790 N789 1.351 . S
C790 C791 1.434 . S
C791 C782 1.429 . S
C791 N788 1.350 . S
C791 C790 1.434 . S
C792 C793 1.369 . S
C792 C794 1.419 . S
C792 H796 0.930 . S
C793 C792 1.369 . S
C793 C802 1.429 1_655 S
C794 C792 1.419 . S
C794 C795 1.363 . S
C794 H797 0.929 . S
C795 C794 1.363 . S
C795 C801 1.428 1_655 S
H796 C792 0.930 . S
H797 C794 0.929 . S
S798 N799 1.613 . S
S798 N800 1.610 . S
N799 S798 1.613 . S
N799 C802 1.350 . S
N800 S798 1.610 . S
N800 C801 1.351 . S
C801 C795 1.428 1_455 S
C801 N800 1.351 . S
C801 C802 1.434 . S
C802 C793 1.429 1_455 S
C802 N799 1.350 . S
C802 C801 1.434 . S
C803 C804 1.369 . S
C803 C805 1.419 . S
C803 H807 0.930 . S
C804 C803 1.369 . S
C804 C813 1.429 1_655 S
C805 C803 1.419 . S
C805 C806 1.363 . S
C805 H808 0.929 . S
C806 C805 1.363 . S
C806 C812 1.428 1_655 S
H807 C803 0.930 . S
H808 C805 0.929 . S
S809 N810 1.613 . S
S809 N811 1.610 . S
N810 S809 1.613 . S
N810 C813 1.350 . S
N811 S809 1.610 . S
N811 C812 1.351 . S
C812 C806 1.428 1_455 S
C812 N811 1.351 . S
C812 C813 1.434 . S
C813 C804 1.429 1_455 S
C813 N810 1.350 . S
C813 C812 1.434 . S
C814 C815 1.369 . S
C814 C816 1.419 . S
C814 H818 0.930 . S
C815 C814 1.369 . S
C815 C824 1.429 . S
C816 C814 1.419 . S
C816 C817 1.363 . S
C816 H819 0.929 . S
C817 C816 1.363 . S
C817 C823 1.428 . S
H818 C814 0.930 . S
H819 C816 0.929 . S
S820 N821 1.613 . S
S820 N822 1.610 . S
N821 S820 1.613 . S
N821 C824 1.350 . S
N822 S820 1.610 . S
N822 C823 1.351 . S
C823 C817 1.428 . S
C823 N822 1.351 . S
C823 C824 1.434 . S
C824 C815 1.429 . S
C824 N821 1.350 . S
C824 C823 1.434 . S
C825 C826 1.369 . S
C825 C827 1.419 . S
C825 H829 0.930 . S
C826 C825 1.369 . S
C826 C835 1.429 . S
C827 C825 1.419 . S
C827 C828 1.363 . S
C827 H830 0.929 . S
C828 C827 1.363 . S
C828 C834 1.428 . S
H829 C825 0.930 . S
H830 C827 0.929 . S
S831 N832 1.613 . S
S831 N833 1.610 . S
N832 S831 1.613 . S
N832 C835 1.350 . S
N833 S831 1.610 . S
N833 C834 1.351 . S
C834 C828 1.428 . S
C834 N833 1.351 . S
C834 C835 1.434 . S
C835 C826 1.429 . S
C835 N832 1.350 . S
C835 C834 1.434 . S
C836 C837 1.369 . S
C836 C838 1.419 . S
C836 H840 0.930 . S
C837 C836 1.369 . S
C837 C846 1.429 . S
C838 C836 1.419 . S
C838 C839 1.363 . S
C838 H841 0.929 . S
C839 C838 1.363 . S
C839 C845 1.428 . S
H840 C836 0.930 . S
H841 C838 0.929 . S
S842 N843 1.613 . S
S842 N844 1.610 1_545 S
N843 S842 1.613 . S
N843 C846 1.350 1_545 S
N844 S842 1.610 1_565 S
N844 C845 1.351 . S
C845 C839 1.428 . S
C845 N844 1.351 . S
C845 C846 1.434 . S
C846 C837 1.429 . S
C846 N843 1.350 1_565 S
C846 C845 1.434 . S
C847 C848 1.369 . S
C847 C849 1.419 . S
C847 H851 0.930 . S
C848 C847 1.369 . S
C848 C857 1.429 . S
C849 C847 1.419 . S
C849 C850 1.363 . S
C849 H852 0.929 . S
C850 C849 1.363 . S
C850 C856 1.428 . S
H851 C847 0.930 . S
H852 C849 0.929 . S
S853 N854 1.613 . S
S853 N855 1.610 . S
N854 S853 1.613 . S
N854 C857 1.350 . S
N855 S853 1.610 . S
N855 C856 1.351 . S
C856 C850 1.428 . S
C856 N855 1.351 . S
C856 C857 1.434 . S
C857 C848 1.429 . S
C857 N854 1.350 . S
C857 C856 1.434 . S
C858 C859 1.369 . S
C858 C860 1.419 . S
C858 H862 0.930 . S
C859 C858 1.369 . S
C859 C868 1.429 . S
C860 C858 1.419 . S
C860 C861 1.363 . S
C860 H863 0.929 . S
C861 C860 1.363 . S
C861 C867 1.428 . S
H862 C858 0.930 . S
H863 C860 0.929 . S
S864 N865 1.613 . S
S864 N866 1.610 . S
N865 S864 1.613 . S
N865 C868 1.350 . S
N866 S864 1.610 . S
N866 C867 1.351 . S
C867 C861 1.428 . S
C867 N866 1.351 . S
C867 C868 1.434 . S
C868 C859 1.429 . S
C868 N865 1.350 . S
C868 C867 1.434 . S
C869 C870 1.369 . S
C869 C871 1.419 . S
C869 H873 0.930 . S
C870 C869 1.369 . S
C870 C879 1.429 . S
C871 C869 1.419 . S
C871 C872 1.363 . S
C871 H874 0.929 . S
C872 C871 1.363 . S
C872 C878 1.428 . S
H873 C869 0.930 . S
H874 C871 0.929 . S
S875 N876 1.613 . S
S875 N877 1.610 . S
N876 S875 1.613 . S
N876 C879 1.350 . S
N877 S875 1.610 . S
N877 C878 1.351 . S
C878 C872 1.428 . S
C878 N877 1.351 . S
C878 C879 1.434 . S
C879 C870 1.429 . S
C879 N876 1.350 . S
C879 C878 1.434 . S
C880 C881 1.369 . S
C880 C882 1.419 . S
C880 H884 0.930 . S
C881 C880 1.369 . S
C881 C890 1.429 . S
C882 C880 1.419 . S
C882 C883 1.363 . S
C882 H885 0.929 . S
C883 C882 1.363 . S
C883 C889 1.428 . S
H884 C880 0.930 . S
H885 C882 0.929 . S
S886 N887 1.613 . S
S886 N888 1.610 . S
N887 S886 1.613 . S
N887 C890 1.350 . S
N888 S886 1.610 . S
N888 C889 1.351 . S
C889 C883 1.428 . S
C889 N888 1.351 . S
C889 C890 1.434 . S
C890 C881 1.429 . S
C890 N887 1.350 . S
C890 C889 1.434 . S
C891 C892 1.369 . S
C891 C893 1.419 . S
C891 H895 0.930 . S
C892 C891 1.369 . S
C892 C901 1.429 . S
C893 C891 1.419 . S
C893 C894 1.363 . S
C893 H896 0.929 . S
C894 C893 1.363 . S
C894 C900 1.428 . S
H895 C891 0.930 . S
H896 C893 0.929 . S
S897 N898 1.613 . S
S897 N899 1.610 . S
N898 S897 1.613 . S
N898 C901 1.350 . S
N899 S897 1.610 . S
N899 C900 1.351 . S
C900 C894 1.428 . S
C900 N899 1.351 . S
C900 C901 1.434 . S
C901 C892 1.429 . S
C901 N898 1.350 . S
C901 C900 1.434 . S
C902 C903 1.369 . S
C902 C904 1.419 . S
C902 H906 0.930 . S
C903 C902 1.369 . S
C903 C912 1.429 . S
C904 C902 1.419 . S
C904 C905 1.363 . S
C904 H907 0.929 . S
C905 C904 1.363 . S
C905 C911 1.428 . S
H906 C902 0.930 . S
H907 C904 0.929 . S
S908 N909 1.613 . S
S908 N910 1.610 . S
N909 S908 1.613 . S
N909 C912 1.350 . S
N910 S908 1.610 . S
N910 C911 1.351 . S
C911 C905 1.428 . S
C911 N910 1.351 . S
C911 C912 1.434 . S
C912 C903 1.429 . S
C912 N909 1.350 . S
C912 C911 1.434 . S
C913 C914 1.369 . S
C913 C915 1.419 . S
C913 H917 0.930 . S
C914 C913 1.369 . S
C914 C923 1.429 1_556 S
C915 C913 1.419 . S
C915 C916 1.363 . S
C915 H918 0.929 . S
C916 C915 1.363 . S
C916 C922 1.428 1_556 S
H917 C913 0.930 . S
H918 C915 0.929 . S
S919 N920 1.613 . S
S919 N921 1.610 . S
N920 S919 1.613 . S
N920 C923 1.350 . S
N921 S919 1.610 . S
N921 C922 1.351 . S
C922 C916 1.428 1_554 S
C922 N921 1.351 . S
C922 C923 1.434 . S
C923 C914 1.429 1_554 S
C923 N920 1.350 . S
C923 C922 1.434 . S
C924 C925 1.369 . S
C924 C926 1.419 . S
C924 H928 0.930 . S
C925 C924 1.369 . S
C925 C934 1.429 . S
C926 C924 1.419 . S
C926 C927 1.363 . S
C926 H929 0.929 . S
C927 C926 1.363 . S
C927 C933 1.428 . S
H928 C924 0.930 . S
H929 C926 0.929 . S
S930 N931 1.613 . S
S930 N932 1.610 . S
N931 S930 1.613 . S
N931 C934 1.350 . S
N932 S930 1.610 . S
N932 C933 1.351 . S
C933 C927 1.428 . S
C933 N932 1.351 . S
C933 C934 1.434 . S
C934 C925 1.429 . S
C934 N931 1.350 . S
C934 C933 1.434 . S
C935 C936 1.369 . S
C935 C937 1.419 . S
C935 H939 0.930 . S
C936 C935 1.369 . S
C936 C945 1.429 . S
C937 C935 1.419 . S
C937 C938 1.363 . S
C937 H940 0.929 . S
C938 C937 1.363 . S
C938 C944 1.428 . S
H939 C935 0.930 . S
H940 C937 0.929 . S
S941 N942 1.613 . S
S941 N943 1.610 . S
N942 S941 1.613 . S
N942 C945 1.350 . S
N943 S941 1.610 . S
N943 C944 1.351 . S
C944 C938 1.428 . S
C944 N943 1.351 . S
C944 C945 1.434 . S
C945 C936 1.429 . S
C945 N942 1.350 . S
C945 C944 1.434 . S
C946 C947 1.369 . S
C946 C948 1.419 . S
C946 H950 0.930 . S
C947 C946 1.369 . S
C947 C956 1.429 . S
C948 C946 1.419 . S
C948 C949 1.363 . S
C948 H951 0.929 . S
C949 C948 1.363 . S
C949 C955 1.428 . S
H950 C946 0.930 . S
H951 C948 0.929 . S
S952 N953 1.613 . S
S952 N954 1.610 . S
N953 S952 1.613 . S
N953 C956 1.350 . S
N954 S952 1.610 . S
N954 C955 1.351 . S
C955 C949 1.428 . S
C955 N954 1.351 . S
C955 C956 1.434 . S
C956 C947 1.429 . S
C956 N953 1.350 . S
C956 C955 1.434 . S
C957 C958 1.369 . S
C957 C959 1.419 . S
C957 H961 0.930 . S
C958 C957 1.369 . S
C958 C967 1.429 . S
C959 C957 1.419 . S
C959 C960 1.363 . S
C959 H962 0.929 . S
C960 C959 1.363 . S
C960 C966 1.428 . S
H961 C957 0.930 . S
H962 C959 0.929 . S
S963 N964 1.613 . S
S963 N965 1.610 . S
N964 S963 1.613 . S
N964 C967 1.350 . S
N965 S963 1.610 . S
N965 C966 1.351 . S
C966 C960 1.428 . S
C966 N965 1.351 . S
C966 C967 1.434 . S
C967 C958 1.429 . S
C967 N964 1.350 . S
C967 C966 1.434 . S
C968 C969 1.369 . S
C968 C970 1.419 . S
C968 H972 0.930 . S
C969 C968 1.369 . S
C969 C978 1.429 . S
C970 C968 1.419 . S
C970 C971 1.363 . S
C970 H973 0.929 . S
C971 C970 1.363 . S
C971 C977 1.428 . S
H972 C968 0.930 . S
H973 C970 0.929 . S
S974 N975 1.613 . S
S974 N976 1.610 . S
N975 S974 1.613 . S
N975 C978 1.350 . S
N976 S974 1.610 . S
N976 C977 1.351 . S
C977 C971 1.428 . S
C977 N976 1.351 . S
C977 C978 1.434 . S
C978 C969 1.429 . S
C978 N975 1.350 . S
C978 C977 1.434 . S
C979 C980 1.369 . S
C979 C981 1.419 . S
C979 H983 0.930 . S
C980 C979 1.369 . S
C980 C989 1.429 . S
C981 C979 1.419 . S
C981 C982 1.363 . S
C981 H984 0.929 . S
C982 C981 1.363 . S
C982 C988 1.428 . S
H983 C979 0.930 . S
H984 C981 0.929 . S
S985 N986 1.613 . S
S985 N987 1.610 . S
N986 S985 1.613 . S
N986 C989 1.350 . S
N987 S985 1.610 . S
N987 C988 1.351 . S
C988 C982 1.428 . S
C988 N987 1.351 . S
C988 C989 1.434 . S
C989 C980 1.429 . S
C989 N986 1.350 . S
C989 C988 1.434 . S
C990 C991 1.369 . S
C990 C992 1.419 . S
C990 H994 0.930 . S
C991 C990 1.369 . S
C991 C1000 1.429 . S
C992 C990 1.419 . S
C992 C993 1.363 . S
C992 H995 0.929 . S
C993 C992 1.363 . S
C993 C999 1.428 . S
H994 C990 0.930 . S
H995 C992 0.929 . S
S996 N997 1.613 . S
S996 N998 1.610 . S
N997 S996 1.613 . S
N997 C1000 1.350 . S
N998 S996 1.610 . S
N998 C999 1.351 . S
C999 C993 1.428 . S
C999 N998 1.351 . S
C999 C1000 1.434 . S
C1000 C991 1.429 . S
C1000 N997 1.350 . S
C1000 C999 1.434 . S
C1001 C1002 1.369 . S
C1001 C1003 1.419 . S
C1001 H1005 0.930 . S
C1002 C1001 1.369 . S
C1002 C1011 1.429 . S
C1003 C1001 1.419 . S
C1003 C1004 1.363 . S
C1003 H1006 0.929 . S
C1004 C1003 1.363 . S
C1004 C1010 1.428 . S
H1005 C1001 0.930 . S
H1006 C1003 0.929 . S
S1007 N1008 1.613 . S
S1007 N1009 1.610 . S
N1008 S1007 1.613 . S
N1008 C1011 1.350 . S
N1009 S1007 1.610 . S
N1009 C1010 1.351 . S
C1010 C1004 1.428 . S
C1010 N1009 1.351 . S
C1010 C1011 1.434 . S
C1011 C1002 1.429 . S
C1011 N1008 1.350 . S
C1011 C1010 1.434 . S
C1012 C1013 1.369 . S
C1012 C1014 1.419 . S
C1012 H1016 0.930 . S
C1013 C1012 1.369 . S
C1013 C1022 1.429 . S
C1014 C1012 1.419 . S
C1014 C1015 1.363 . S
C1014 H1017 0.929 . S
C1015 C1014 1.363 . S
C1015 C1021 1.428 . S
H1016 C1012 0.930 . S
H1017 C1014 0.929 . S
S1018 N1019 1.613 . S
S1018 N1020 1.610 . S
N1019 S1018 1.613 . S
N1019 C1022 1.350 . S
N1020 S1018 1.610 . S
N1020 C1021 1.351 . S
C1021 C1015 1.428 . S
C1021 N1020 1.351 . S
C1021 C1022 1.434 . S
C1022 C1013 1.429 . S
C1022 N1019 1.350 . S
C1022 C1021 1.434 . S
C1023 C1024 1.369 . S
C1023 C1025 1.419 . S
C1023 H1027 0.930 . S
C1024 C1023 1.369 . S
C1024 C1033 1.429 . S
C1025 C1023 1.419 . S
C1025 C1026 1.363 . S
C1025 H1028 0.929 . S
C1026 C1025 1.363 . S
C1026 C1032 1.428 . S
H1027 C1023 0.930 . S
H1028 C1025 0.929 . S
S1029 N1030 1.613 . S
S1029 N1031 1.610 . S
N1030 S1029 1.613 . S
N1030 C1033 1.350 . S
N1031 S1029 1.610 . S
N1031 C1032 1.351 . S
C1032 C1026 1.428 . S
C1032 N1031 1.351 . S
C1032 C1033 1.434 . S
C1033 C1024 1.429 . S
C1033 N1030 1.350 . S
C1033 C1032 1.434 . S
C1034 C1035 1.350 1_554 S
C1034 C1036 1.426 . S
C1034 H1038 0.944 . S
C1035 C1034 1.350 1_556 S
C1035 C1044 1.429 . S
C1036 C1034 1.426 . S
C1036 C1037 1.363 1_554 S
C1036 H1039 0.929 . S
C1037 C1036 1.363 1_556 S
C1037 C1043 1.428 . S
H1038 C1034 0.944 . S
H1039 C1036 0.929 . S
S1040 N1041 1.613 . S
S1040 N1042 1.610 . S
N1041 S1040 1.613 . S
N1041 C1044 1.350 . S
N1042 S1040 1.610 . S
N1042 C1043 1.351 . S
C1043 C1037 1.428 . S
C1043 N1042 1.351 . S
C1043 C1044 1.434 . S
C1044 C1035 1.429 . S
C1044 N1041 1.350 . S
C1044 C1043 1.434 . S
C1045 C1046 1.369 . S
C1045 C1047 1.419 . S
C1045 H1049 0.930 . S
C1046 C1045 1.369 . S
C1046 C1055 1.429 . S
C1047 C1045 1.419 . S
C1047 C1048 1.363 . S
C1047 H1050 0.929 . S
C1048 C1047 1.363 . S
C1048 C1054 1.428 . S
H1049 C1045 0.930 . S
H1050 C1047 0.929 . S
S1051 N1052 1.613 . S
S1051 N1053 1.610 . S
N1052 S1051 1.613 . S
N1052 C1055 1.350 . S
N1053 S1051 1.610 . S
N1053 C1054 1.351 . S
C1054 C1048 1.428 . S
C1054 N1053 1.351 . S
C1054 C1055 1.434 . S
C1055 C1046 1.429 . S
C1055 N1052 1.350 . S
C1055 C1054 1.434 . S
C1056 C1057 1.369 . S
C1056 C1058 1.419 . S
C1056 H1060 0.930 . S
C1057 C1056 1.369 . S
C1057 C1066 1.429 . S
C1058 C1056 1.419 . S
C1058 C1059 1.363 . S
C1058 H1061 0.929 . S
C1059 C1058 1.363 . S
C1059 C1065 1.428 . S
H1060 C1056 0.930 . S
H1061 C1058 0.929 . S
S1062 N1063 1.613 . S
S1062 N1064 1.610 . S
N1063 S1062 1.613 . S
N1063 C1066 1.350 . S
N1064 S1062 1.610 . S
N1064 C1065 1.351 . S
C1065 C1059 1.428 . S
C1065 N1064 1.351 . S
C1065 C1066 1.434 . S
C1066 C1057 1.429 . S
C1066 N1063 1.350 . S
C1066 C1065 1.434 . S
C1067 C1068 1.369 . S
C1067 C1069 1.419 . S
C1067 H1071 0.930 . S
C1068 C1067 1.369 . S
C1068 C1077 1.429 . S
C1069 C1067 1.419 . S
C1069 C1070 1.363 . S
C1069 H1072 0.929 . S
C1070 C1069 1.363 . S
C1070 C1076 1.428 . S
H1071 C1067 0.930 . S
H1072 C1069 0.929 . S
S1073 N1074 1.613 . S
S1073 N1075 1.610 . S
N1074 S1073 1.613 . S
N1074 C1077 1.350 . S
N1075 S1073 1.610 . S
N1075 C1076 1.351 . S
C1076 C1070 1.428 . S
C1076 N1075 1.351 . S
C1076 C1077 1.434 . S
C1077 C1068 1.429 . S
C1077 N1074 1.350 . S
C1077 C1076 1.434 . S
C1078 C1079 1.369 . S
C1078 C1080 1.419 . S
C1078 H1082 0.930 . S
C1079 C1078 1.369 . S
C1079 C1088 1.429 . S
C1080 C1078 1.419 . S
C1080 C1081 1.363 . S
C1080 H1083 0.929 . S
C1081 C1080 1.363 . S
C1081 C1087 1.428 . S
H1082 C1078 0.930 . S
H1083 C1080 0.929 . S
S1084 N1085 1.613 . S
S1084 N1086 1.610 . S
N1085 S1084 1.613 . S
N1085 C1088 1.350 . S
N1086 S1084 1.610 . S
N1086 C1087 1.351 . S
C1087 C1081 1.428 . S
C1087 N1086 1.351 . S
C1087 C1088 1.434 . S
C1088 C1079 1.429 . S
C1088 N1085 1.350 . S
C1088 C1087 1.434 . S
C1089 C1090 1.369 . S
C1089 C1091 1.419 . S
C1089 H1093 0.930 . S
C1090 C1089 1.369 . S
C1090 C1099 1.429 . S
C1091 C1089 1.419 . S
C1091 C1092 1.363 . S
C1091 H1094 0.929 . S
C1092 C1091 1.363 . S
C1092 C1098 1.428 . S
H1093 C1089 0.930 . S
H1094 C1091 0.929 . S
S1095 N1096 1.613 . S
S1095 N1097 1.610 . S
N1096 S1095 1.613 . S
N1096 C1099 1.350 . S
N1097 S1095 1.610 . S
N1097 C1098 1.351 . S
C1098 C1092 1.428 . S
C1098 N1097 1.351 . S
C1098 C1099 1.434 . S
C1099 C1090 1.429 . S
C1099 N1096 1.350 . S
C1099 C1098 1.434 . S
C1100 C1101 1.369 . S
C1100 C1102 1.419 . S
C1100 H1104 0.930 . S
C1101 C1100 1.369 . S
C1101 C1110 1.429 . S
C1102 C1100 1.419 . S
C1102 C1103 1.363 . S
C1102 H1105 0.929 . S
C1103 C1102 1.363 . S
C1103 C1109 1.428 . S
H1104 C1100 0.930 . S
H1105 C1102 0.929 . S
S1106 N1107 1.613 . S
S1106 N1108 1.610 . S
N1107 S1106 1.613 . S
N1107 C1110 1.350 . S
N1108 S1106 1.610 . S
N1108 C1109 1.351 . S
C1109 C1103 1.428 . S
C1109 N1108 1.351 . S
C1109 C1110 1.434 . S
C1110 C1101 1.429 . S
C1110 N1107 1.350 . S
C1110 C1109 1.434 . S
C1111 C1112 1.369 . S
C1111 C1113 1.419 . S
C1111 H1115 0.930 . S
C1112 C1111 1.369 . S
C1112 C1121 1.429 . S
C1113 C1111 1.419 . S
C1113 C1114 1.363 . S
C1113 H1116 0.929 . S
C1114 C1113 1.363 . S
C1114 C1120 1.428 . S
H1115 C1111 0.930 . S
H1116 C1113 0.929 . S
S1117 N1118 1.613 . S
S1117 N1119 1.610 . S
N1118 S1117 1.613 . S
N1118 C1121 1.350 . S
N1119 S1117 1.610 . S
N1119 C1120 1.351 . S
C1120 C1114 1.428 . S
C1120 N1119 1.351 . S
C1120 C1121 1.434 . S
C1121 C1112 1.429 . S
C1121 N1118 1.350 . S
C1121 C1120 1.434 . S
C1122 C1123 1.369 . S
C1122 C1124 1.419 . S
C1122 H1126 0.930 . S
C1123 C1122 1.369 . S
C1123 C1132 1.429 . S
C1124 C1122 1.419 . S
C1124 C1125 1.363 . S
C1124 H1127 0.929 . S
C1125 C1124 1.363 . S
C1125 C1131 1.428 . S
H1126 C1122 0.930 . S
H1127 C1124 0.929 . S
S1128 N1129 1.613 . S
S1128 N1130 1.610 . S
N1129 S1128 1.613 . S
N1129 C1132 1.350 . S
N1130 S1128 1.610 . S
N1130 C1131 1.351 . S
C1131 C1125 1.428 . S
C1131 N1130 1.351 . S
C1131 C1132 1.434 . S
C1132 C1123 1.429 . S
C1132 N1129 1.350 . S
C1132 C1131 1.434 . S
C1133 C1134 1.369 . S
C1133 C1135 1.419 . S
C1133 H1137 0.930 . S
C1134 C1133 1.369 . S
C1134 C1143 1.429 . S
C1135 C1133 1.419 . S
C1135 C1136 1.363 . S
C1135 H1138 0.929 . S
C1136 C1135 1.363 . S
C1136 C1142 1.428 . S
H1137 C1133 0.930 . S
H1138 C1135 0.929 . S
S1139 N1140 1.613 . S
S1139 N1141 1.610 . S
N1140 S1139 1.613 . S
N1140 C1143 1.350 . S
N1141 S1139 1.610 . S
N1141 C1142 1.351 . S
C1142 C1136 1.428 . S
C1142 N1141 1.351 . S
C1142 C1143 1.434 . S
C1143 C1134 1.429 . S
C1143 N1140 1.350 . S
C1143 C1142 1.434 . S
C1144 C1145 1.369 . S
C1144 C1146 1.419 . S
C1144 H1148 0.930 . S
C1145 C1144 1.369 . S
C1145 C1154 1.429 . S
C1146 C1144 1.419 . S
C1146 C1147 1.363 . S
C1146 H1149 0.929 . S
C1147 C1146 1.363 . S
C1147 C1153 1.428 . S
H1148 C1144 0.930 . S
H1149 C1146 0.929 . S
S1150 N1151 1.613 . S
S1150 N1152 1.610 . S
N1151 S1150 1.613 . S
N1151 C1154 1.350 . S
N1152 S1150 1.610 . S
N1152 C1153 1.351 . S
C1153 C1147 1.428 . S
C1153 N1152 1.351 . S
C1153 C1154 1.434 . S
C1154 C1145 1.429 . S
C1154 N1151 1.350 . S
C1154 C1153 1.434 . S
C1155 C1156 1.369 . S
C1155 C1157 1.419 . S
C1155 H1159 0.930 . S
C1156 C1155 1.369 . S
C1156 C1165 1.429 . S
C1157 C1155 1.419 . S
C1157 C1158 1.363 . S
C1157 H1160 0.929 . S
C1158 C1157 1.363 . S
C1158 C1164 1.428 . S
H1159 C1155 0.930 . S
H1160 C1157 0.929 . S
S1161 N1162 1.613 . S
S1161 N1163 1.610 . S
N1162 S1161 1.613 . S
N1162 C1165 1.350 . S
N1163 S1161 1.610 . S
N1163 C1164 1.351 . S
C1164 C1158 1.428 . S
C1164 N1163 1.351 . S
C1164 C1165 1.434 . S
C1165 C1156 1.429 . S
C1165 N1162 1.350 . S
C1165 C1164 1.434 . S
C1166 C1167 1.369 . S
C1166 C1168 1.419 . S
C1166 H1170 0.930 . S
C1167 C1166 1.369 . S
C1167 C1176 1.429 . S
C1168 C1166 1.419 . S
C1168 C1169 1.363 . S
C1168 H1171 0.929 . S
C1169 C1168 1.363 . S
C1169 C1175 1.428 . S
H1170 C1166 0.930 . S
H1171 C1168 0.929 . S
S1172 N1173 1.613 . S
S1172 N1174 1.610 . S
N1173 S1172 1.613 . S
N1173 C1176 1.350 . S
N1174 S1172 1.610 . S
N1174 C1175 1.351 . S
C1175 C1169 1.428 . S
C1175 N1174 1.351 . S
C1175 C1176 1.434 . S
C1176 C1167 1.429 . S
C1176 N1173 1.350 . S
C1176 C1175 1.434 . S
C1177 C1178 1.369 . S
C1177 C1179 1.419 . S
C1177 H1181 0.930 . S
C1178 C1177 1.369 . S
C1178 C1187 1.429 . S
C1179 C1177 1.419 . S
C1179 C1180 1.363 . S
C1179 H1182 0.929 . S
C1180 C1179 1.363 . S
C1180 C1186 1.428 . S
H1181 C1177 0.930 . S
H1182 C1179 0.929 . S
S1183 N1184 1.613 . S
S1183 N1185 1.610 . S
N1184 S1183 1.613 . S
N1184 C1187 1.350 . S
N1185 S1183 1.610 . S
N1185 C1186 1.351 . S
C1186 C1180 1.428 . S
C1186 N1185 1.351 . S
C1186 C1187 1.434 . S
C1187 C1178 1.429 . S
C1187 N1184 1.350 . S
C1187 C1186 1.434 . S
C1188 C1189 1.369 . S
C1188 C1190 1.419 . S
C1188 H1192 0.930 . S
C1189 C1188 1.369 . S
C1189 C1198 1.429 . S
C1190 C1188 1.419 . S
C1190 C1191 1.363 . S
C1190 H1193 0.929 . S
C1191 C1190 1.363 . S
C1191 C1197 1.428 . S
H1192 C1188 0.930 . S
H1193 C1190 0.929 . S
S1194 N1195 1.613 . S
S1194 N1196 1.610 . S
N1195 S1194 1.613 . S
N1195 C1198 1.350 . S
N1196 S1194 1.610 . S
N1196 C1197 1.351 . S
C1197 C1191 1.428 . S
C1197 N1196 1.351 . S
C1197 C1198 1.434 . S
C1198 C1189 1.429 . S
C1198 N1195 1.350 . S
C1198 C1197 1.434 . S
C1199 C1200 1.369 . S
C1199 C1201 1.419 . S
C1199 H1203 0.930 . S
C1200 C1199 1.369 . S
C1200 C1209 1.429 . S
C1201 C1199 1.419 . S
C1201 C1202 1.363 . S
C1201 H1204 0.929 . S
C1202 C1201 1.363 . S
C1202 C1208 1.428 . S
H1203 C1199 0.930 . S
H1204 C1201 0.929 . S
S1205 N1206 1.613 . S
S1205 N1207 1.610 . S
N1206 S1205 1.613 . S
N1206 C1209 1.350 . S
N1207 S1205 1.610 . S
N1207 C1208 1.351 . S
C1208 C1202 1.428 . S
C1208 N1207 1.351 . S
C1208 C1209 1.434 . S
C1209 C1200 1.429 . S
C1209 N1206 1.350 . S
C1209 C1208 1.434 . S
C1210 C1211 1.369 . S
C1210 C1212 1.419 . S
C1210 H1214 0.930 . S
C1211 C1210 1.369 . S
C1211 C1220 1.429 . S
C1212 C1210 1.419 . S
C1212 C1213 1.363 . S
C1212 H1215 0.929 . S
C1213 C1212 1.363 . S
C1213 C1219 1.428 . S
H1214 C1210 0.930 . S
H1215 C1212 0.929 . S
S1216 N1217 1.613 . S
S1216 N1218 1.610 . S
N1217 S1216 1.613 . S
N1217 C1220 1.350 . S
N1218 S1216 1.610 . S
N1218 C1219 1.351 . S
C1219 C1213 1.428 . S
C1219 N1218 1.351 . S
C1219 C1220 1.434 . S
C1220 C1211 1.429 . S
C1220 N1217 1.350 . S
C1220 C1219 1.434 . S
C1221 C1222 1.369 . S
C1221 C1223 1.419 . S
C1221 H1225 0.930 . S
C1222 C1221 1.369 . S
C1222 C1231 1.429 . S
C1223 C1221 1.419 . S
C1223 C1224 1.363 . S
C1223 H1226 0.929 . S
C1224 C1223 1.363 . S
C1224 C1230 1.428 . S
H1225 C1221 0.930 . S
H1226 C1223 0.929 . S
S1227 N1228 1.613 . S
S1227 N1229 1.610 . S
N1228 S1227 1.613 . S
N1228 C1231 1.350 . S
N1229 S1227 1.610 . S
N1229 C1230 1.351 . S
C1230 C1224 1.428 . S
C1230 N1229 1.351 . S
C1230 C1231 1.434 . S
C1231 C1222 1.429 . S
C1231 N1228 1.350 . S
C1231 C1230 1.434 . S
C1232 C1233 1.369 . S
C1232 C1234 1.419 . S
C1232 H1236 0.930 . S
C1233 C1232 1.369 . S
C1233 C1242 1.429 . S
C1234 C1232 1.419 . S
C1234 C1235 1.363 . S
C1234 H1237 0.929 . S
C1235 C1234 1.363 . S
C1235 C1241 1.428 . S
H1236 C1232 0.930 . S
H1237 C1234 0.929 . S
S1238 N1239 1.613 . S
S1238 N1240 1.610 . S
N1239 S1238 1.613 . S
N1239 C1242 1.350 . S
N1240 S1238 1.610 . S
N1240 C1241 1.351 . S
C1241 C1235 1.428 . S
C1241 N1240 1.351 . S
C1241 C1242 1.434 . S
C1242 C1233 1.429 . S
C1242 N1239 1.350 . S
C1242 C1241 1.434 . S
C1243 C1244 1.369 . S
C1243 C1245 1.419 . S
C1243 H1247 0.930 . S
C1244 C1243 1.369 . S
C1244 C1253 1.429 . S
C1245 C1243 1.419 . S
C1245 C1246 1.363 . S
C1245 H1248 0.929 . S
C1246 C1245 1.363 . S
C1246 C1252 1.428 . S
H1247 C1243 0.930 . S
H1248 C1245 0.929 . S
S1249 N1250 1.613 . S
S1249 N1251 1.610 . S
N1250 S1249 1.613 . S
N1250 C1253 1.350 . S
N1251 S1249 1.610 . S
N1251 C1252 1.351 . S
C1252 C1246 1.428 . S
C1252 N1251 1.351 . S
C1252 C1253 1.434 . S
C1253 C1244 1.429 . S
C1253 N1250 1.350 . S
C1253 C1252 1.434 . S
C1254 C1255 1.369 . S
C1254 C1256 1.419 . S
C1254 H1258 0.930 . S
C1255 C1254 1.369 . S
C1255 C1264 1.429 . S
C1256 C1254 1.419 . S
C1256 C1257 1.363 . S
C1256 H1259 0.929 . S
C1257 C1256 1.363 . S
C1257 C1263 1.428 . S
H1258 C1254 0.930 . S
H1259 C1256 0.929 . S
S1260 N1261 1.613 . S
S1260 N1262 1.610 . S
N1261 S1260 1.613 . S
N1261 C1264 1.350 . S
N1262 S1260 1.610 . S
N1262 C1263 1.351 . S
C1263 C1257 1.428 . S
C1263 N1262 1.351 . S
C1263 C1264 1.434 . S
C1264 C1255 1.429 . S
C1264 N1261 1.350 . S
C1264 C1263 1.434 . S
C1265 C1266 1.369 . S
C1265 C1267 1.419 . S
C1265 H1269 0.930 . S
C1266 C1265 1.369 . S
C1266 C1275 1.429 . S
C1267 C1265 1.419 . S
C1267 C1268 1.363 . S
C1267 H1270 0.929 . S
C1268 C1267 1.363 . S
C1268 C1274 1.428 . S
H1269 C1265 0.930 . S
H1270 C1267 0.929 . S
S1271 N1272 1.613 . S
S1271 N1273 1.610 . S
N1272 S1271 1.613 . S
N1272 C1275 1.350 . S
N1273 S1271 1.610 . S
N1273 C1274 1.351 . S
C1274 C1268 1.428 . S
C1274 N1273 1.351 . S
C1274 C1275 1.434 . S
C1275 C1266 1.429 . S
C1275 N1272 1.350 . S
C1275 C1274 1.434 . S
C1276 C1277 1.369 . S
C1276 C1278 1.419 . S
C1276 H1280 0.930 . S
C1277 C1276 1.369 . S
C1277 C1286 1.429 . S
C1278 C1276 1.419 . S
C1278 C1279 1.363 . S
C1278 H1281 0.929 . S
C1279 C1278 1.363 . S
C1279 C1285 1.428 . S
H1280 C1276 0.930 . S
H1281 C1278 0.929 . S
S1282 N1283 1.613 . S
S1282 N1284 1.610 . S
N1283 S1282 1.613 . S
N1283 C1286 1.350 . S
N1284 S1282 1.610 . S
N1284 C1285 1.351 . S
C1285 C1279 1.428 . S
C1285 N1284 1.351 . S
C1285 C1286 1.434 . S
C1286 C1277 1.429 . S
C1286 N1283 1.350 . S
C1286 C1285 1.434 . S
C1287 C1288 1.369 . S
C1287 C1289 1.419 . S
C1287 H1291 0.930 . S
C1288 C1287 1.369 . S
C1288 C1297 1.429 . S
C1289 C1287 1.419 . S
C1289 C1290 1.363 . S
C1289 H1292 0.929 . S
C1290 C1289 1.363 . S
C1290 C1296 1.428 . S
H1291 C1287 0.930 . S
H1292 C1289 0.929 . S
S1293 N1294 1.613 . S
S1293 N1295 1.610 . S
N1294 S1293 1.613 . S
N1294 C1297 1.350 . S
N1295 S1293 1.610 . S
N1295 C1296 1.351 . S
C1296 C1290 1.428 . S
C1296 N1295 1.351 . S
C1296 C1297 1.434 . S
C1297 C1288 1.429 . S
C1297 N1294 1.350 . S
C1297 C1296 1.434 . S
C1298 C1299 1.369 . S
C1298 C1300 1.419 . S
C1298 H1302 0.930 . S
C1299 C1298 1.369 . S
C1299 C1308 1.429 . S
C1300 C1298 1.419 . S
C1300 C1301 1.363 . S
C1300 H1303 0.929 . S
C1301 C1300 1.363 . S
C1301 C1307 1.428 . S
H1302 C1298 0.930 . S
H1303 C1300 0.929 . S
S1304 N1305 1.613 . S
S1304 N1306 1.610 . S
N1305 S1304 1.613 . S
N1305 C1308 1.350 . S
N1306 S1304 1.610 . S
N1306 C1307 1.351 . S
C1307 C1301 1.428 . S
C1307 N1306 1.351 . S
C1307 C1308 1.434 . S
C1308 C1299 1.429 . S
C1308 N1305 1.350 . S
C1308 C1307 1.434 . S
C1309 C1310 1.369 . S
C1309 C1311 1.419 . S
C1309 H1313 0.930 . S
C1310 C1309 1.369 . S
C1310 C1319 1.429 . S
C1311 C1309 1.419 . S
C1311 C1312 1.363 . S
C1311 H1314 0.929 . S
C1312 C1311 1.363 . S
C1312 C1318 1.428 . S
H1313 C1309 0.930 . S
H1314 C1311 0.929 . S
S1315 N1316 1.613 . S
S1315 N1317 1.610 . S
N1316 S1315 1.613 . S
N1316 C1319 1.350 . S
N1317 S1315 1.610 . S
N1317 C1318 1.351 . S
C1318 C1312 1.428 . S
C1318 N1317 1.351 . S
C1318 C1319 1.434 . S
C1319 C1310 1.429 . S
C1319 N1316 1.350 . S
C1319 C1318 1.434 . S
C529 C8 1.755 . S
C531 C250 1.710 . S
C540 C448 1.782 . S
C542 C19 1.715 . S
C551 C30 1.741 . S
C553 C261 1.689 . S
C562 C41 1.699 . S
C564 C503 1.762 . S
C573 C206 1.703 . S
C575 C52 1.763 . S
C584 C63 1.686 . S
C586 C217 1.743 . S
C595 C492 1.674 . S
C597 C74 1.731 . S
C606 C195 1.756 . S
C608 C85 1.689 . S
C617 C151 1.706 . S
C619 C96 1.761 . S
C628 C162 1.754 . S
C630 C107 1.710 . S
C639 C118 1.753 . S
C641 C173 1.693 . S
C650 C129 1.629 . S
C652 C140 1.684 . S
C661 C283 1.698 . S
C663 C184 1.764 . S
C672 C338 1.754 . S
C674 C228 1.695 . S
C683 C305 1.651 . S
C685 C239 1.709 . S
C694 C272 1.782 . S
C696 C514 1.718 . S
C705 C294 1.682 . S
C707 C525 1.632 . S
C716 C316 1.706 . S
C718 C470 1.652 . S
C727 C327 1.632 . S
C729 C481 1.685 . S
C738 C349 1.665 . S
C740 C459 1.733 . S
C749 C415 1.717 . S
C751 C360 1.780 . S
C760 C426 1.709 . S
C762 C371 1.648 . S
C771 C437 1.668 . S
C773 C382 1.733 . S
C782 C404 1.742 . S
C784 C393 1.689 . S
C793 C7 1.660 . S
C795 C84 1.571 . S
C804 C51 1.652 . S
C806 C18 1.556 . S
C815 C29 1.628 . S
C817 C62 1.541 . S
C826 C40 1.545 . S
C828 C73 1.646 . S
C837 C95 1.656 . S
C839 C227 1.567 . S
C848 C106 1.542 . S
C850 C458 1.645 . S
C859 C469 1.503 . S
C861 C117 1.579 . S
C870 C480 1.606 . S
C872 C128 1.522 . S
C881 C139 1.606 . S
C883 C524 1.523 . S
C892 C150 1.550 . S
C894 C238 1.641 . S
C903 C161 1.650 . S
C905 C513 1.556 . S
C914 C183 1.659 . S
C916 C172 1.573 . S
C925 C370 1.493 . S
C927 C194 1.583 . S
C936 C381 1.647 . S
C938 C205 1.548 . S
C947 C392 1.535 . S
C949 C216 1.632 . S
C958 C249 1.539 . S
C960 C425 1.642 . S
C969 C403 1.631 . S
C971 C260 1.539 . S
C980 C348 1.528 . S
C982 C271 1.628 . S
C991 C282 1.549 . S
C993 C315 1.639 . S
C1002 C293 1.604 . S
C1004 C326 1.525 . S
C1013 C337 1.584 . S
C1015 C304 1.499 . S
C1024 C491 1.520 . S
C1026 C359 1.627 . S
C1035 C414 1.554 . S
C1037 C502 1.650 . S
C1046 C447 1.629 . S
C1048 C436 1.524 . S
C1057 C324 1.194 . S
C1059 C5 1.486 . S
C1068 C335 1.663 . S
C1070 C16 1.348 . S
C1079 C346 1.315 . S
C1081 C27 1.615 . S
C1090 C313 1.586 . S
C1092 C38 1.275 . S
C1101 C49 1.539 . S
C1103 C302 1.230 . S
C1112 C60 1.311 . S
C1114 C269 1.624 . S
C1123 C71 1.602 . S
C1125 C280 1.283 . S
C1134 C291 1.621 . S
C1136 C82 1.318 . S
C1145 C93 1.483 . S
C1147 C522 1.180 . S
C1156 C104 1.276 . S
C1158 C236 1.596 . S
C1167 C115 1.661 . S
C1169 C511 1.350 . S
C1178 C181 1.480 . S
C1180 C126 1.190 . S
C1189 C137 1.626 . S
C1191 C225 1.318 . S
C1200 C456 1.592 . S
C1202 C148 1.280 . S
C1211 C159 1.528 . S
C1213 C467 1.221 . S
C1222 C478 1.628 . S
C1224 C170 1.307 . S
C1233 C412 1.358 . S
C1235 C192 1.672 . S
C1244 C423 1.586 . S
C1246 C203 1.272 . S
C1255 C214 1.623 . S
C1257 C434 1.310 . S
C1266 C247 1.270 . S
C1268 C379 1.594 . S
C1277 C258 1.327 . S
C1279 C357 1.623 . S
C1288 C368 1.240 . S
C1290 C500 1.531 . S
C1299 C390 1.314 . S
C1301 C445 1.629 . S
C1310 C401 1.619 . S
C1312 C489 1.302 . S
