# Generated by pormake.
# Topology wji, (4)-cn, num edge types: 1
# Building blocks:
#     Node 0, Type 0, BuildingBlock: TATPOV_clean_sbu_0, # of connection points: 4
#     Node 1, Type 0, BuildingBlock: TATPOV_clean_sbu_0, # of connection points: 4
#     Node 2, Type 0, BuildingBlock: TATPOV_clean_sbu_0, # of connection points: 4
#     Node 3, Type 0, BuildingBlock: TATPOV_clean_sbu_0, # of connection points: 4
#     Node 4, Type 0, BuildingBlock: TATPOV_clean_sbu_0, # of connection points: 4
#     Node 5, Type 0, BuildingBlock: TATPOV_clean_sbu_0, # of connection points: 4
#     Node 6, Type 0, BuildingBlock: TATPOV_clean_sbu_0, # of connection points: 4
#     Node 7, Type 0, BuildingBlock: TATPOV_clean_sbu_0, # of connection points: 4
#     Node 8, Type 0, BuildingBlock: TATPOV_clean_sbu_0, # of connection points: 4
#     Node 9, Type 0, BuildingBlock: TATPOV_clean_sbu_0, # of connection points: 4
#     Node 10, Type 0, BuildingBlock: TATPOV_clean_sbu_0, # of connection points: 4
#     Node 11, Type 0, BuildingBlock: TATPOV_clean_sbu_0, # of connection points: 4
#     Edge 12, Type (0, 0), BuildingBlock: EZIPEK_clean_linker_0, # of connection points: 2
#     Edge 13, Type (0, 0), BuildingBlock: EZIPEK_clean_linker_0, # of connection points: 2
#     Edge 14, Type (0, 0), BuildingBlock: EZIPEK_clean_linker_0, # of connection points: 2
#     Edge 15, Type (0, 0), BuildingBlock: EZIPEK_clean_linker_0, # of connection points: 2
#     Edge 16, Type (0, 0), BuildingBlock: EZIPEK_clean_linker_0, # of connection points: 2
#     Edge 17, Type (0, 0), BuildingBlock: EZIPEK_clean_linker_0, # of connection points: 2
#     Edge 18, Type (0, 0), BuildingBlock: EZIPEK_clean_linker_0, # of connection points: 2
#     Edge 19, Type (0, 0), BuildingBlock: EZIPEK_clean_linker_0, # of connection points: 2
#     Edge 20, Type (0, 0), BuildingBlock: EZIPEK_clean_linker_0, # of connection points: 2
#     Edge 21, Type (0, 0), BuildingBlock: EZIPEK_clean_linker_0, # of connection points: 2
#     Edge 22, Type (0, 0), BuildingBlock: EZIPEK_clean_linker_0, # of connection points: 2
#     Edge 23, Type (0, 0), BuildingBlock: EZIPEK_clean_linker_0, # of connection points: 2
#     Edge 24, Type (0, 0), BuildingBlock: EZIPEK_clean_linker_0, # of connection points: 2
#     Edge 25, Type (0, 0), BuildingBlock: EZIPEK_clean_linker_0, # of connection points: 2
#     Edge 26, Type (0, 0), BuildingBlock: EZIPEK_clean_linker_0, # of connection points: 2
#     Edge 27, Type (0, 0), BuildingBlock: EZIPEK_clean_linker_0, # of connection points: 2
#     Edge 28, Type (0, 0), BuildingBlock: EZIPEK_clean_linker_0, # of connection points: 2
#     Edge 29, Type (0, 0), BuildingBlock: EZIPEK_clean_linker_0, # of connection points: 2
#     Edge 30, Type (0, 0), BuildingBlock: EZIPEK_clean_linker_0, # of connection points: 2
#     Edge 31, Type (0, 0), BuildingBlock: EZIPEK_clean_linker_0, # of connection points: 2
#     Edge 32, Type (0, 0), BuildingBlock: EZIPEK_clean_linker_0, # of connection points: 2
#     Edge 33, Type (0, 0), BuildingBlock: EZIPEK_clean_linker_0, # of connection points: 2
#     Edge 34, Type (0, 0), BuildingBlock: EZIPEK_clean_linker_0, # of connection points: 2
#     Edge 35, Type (0, 0), BuildingBlock: EZIPEK_clean_linker_0, # of connection points: 2
# Relax obj value: 0.216
# Max RMSD: 0.097
# Mean RMSD: 0.097
data_MOF--net-wji--node1-TATPOV_clean_sbu_0--edge1-EZIPEK_clean_linker_0
_symmetry_space_group_name_H-M    P1
_symmetry_Int_Tables_number       1
_symmetry_cell_setting            triclinic
loop_
_symmetry_equiv_pos_as_xyz
'x, y, z'
_cell_length_a     43.157052
_cell_length_b     42.963636
_cell_length_c     16.94611
_cell_angle_alpha  90.112455
_cell_angle_beta   89.547488
_cell_angle_gamma 119.53195
loop_
_atom_site_label
_atom_site_type_symbol
_atom_site_fract_x
_atom_site_fract_y
_atom_site_fract_z
_atom_type_partial_charge
Zn0 Zn 0.41419 0.37495 0.39573 0.0
Zn1 Zn 0.40254 0.31194 0.381 0.0
O2 O 0.45725 0.3457 0.4075 0.0
O3 O 0.46417 0.3991 0.43079 0.0
O4 O 0.39635 0.26222 0.4061 0.0
O5 O 0.37481 0.36446 0.46803 0.0
O6 O 0.36178 0.30858 0.45244 0.0
C7 C 0.47711 0.37847 0.42665 0.0
C8 C 0.3909 0.34782 0.23956 0.0
O9 O 0.38957 0.319 0.26473 0.0
O10 O 0.40219 0.37495 0.28368 0.0
C11 C 0.40903 0.26108 0.47341 0.0
O12 O 0.42541 0.29081 0.51433 0.0
C13 C 0.35401 0.33152 0.47958 0.0
Zn14 Zn 0.01853 0.42479 0.60094 0.0
Zn15 Zn 0.06859 0.40928 0.58941 0.0
O16 O 0.09482 0.46394 0.56325 0.0
O17 O 0.04916 0.47348 0.55663 0.0
O18 O 0.10826 0.39704 0.61005 0.0
O19 O 0.0117 0.41938 0.71529 0.0
O20 O 0.04885 0.39858 0.70192 0.0
C21 C 0.08223 0.48485 0.55079 0.0
C22 C -0.00136 0.36727 0.49513 0.0
O23 O 0.03131 0.37518 0.50334 0.0
O24 O 0.98633 0.38314 0.5367 0.0
C25 C 0.12863 0.41503 0.66689 0.0
O26 O 0.12522 0.44135 0.69731 0.0
C27 C 0.02796 0.40452 0.74426 0.0
Zn28 Zn 0.60422 0.05307 0.71099 0.0
Zn29 Zn 0.67035 0.09381 0.72151 0.0
O30 O 0.64744 0.12703 0.71378 0.0
O31 O 0.59193 0.09004 0.68127 0.0
O32 O 0.72079 0.12798 0.76212 0.0
O33 O 0.59538 0.0345 0.81897 0.0
O34 O 0.65394 0.06343 0.82102 0.0
C35 C 0.6164 0.1214 0.69599 0.0
C36 C 0.63995 0.03134 0.60302 0.0
O37 O 0.66754 0.06079 0.62342 0.0
O38 O 0.61031 0.02234 0.63548 0.0
C39 C 0.73695 0.16188 0.75395 0.0
O40 O 0.72647 0.17597 0.6987 0.0
C41 C 0.62416 0.04223 0.853 0.0
Zn42 Zn 0.56234 0.60469 0.81128 0.0
Zn43 Zn 0.57734 0.66701 0.8758 0.0
O44 O 0.52294 0.64215 0.84761 0.0
O45 O 0.51203 0.59129 0.79248 0.0
O46 O 0.58514 0.71079 0.94036 0.0
O47 O 0.57562 0.58784 0.90799 0.0
O48 O 0.58756 0.63955 0.96061 0.0
C49 C 0.50122 0.61222 0.81612 0.0
C50 C 0.62103 0.66328 0.73447 0.0
O51 O 0.61629 0.68271 0.78527 0.0
O52 O 0.60017 0.62991 0.73193 0.0
C53 C 0.57412 0.73241 0.92226 0.0
O54 O 0.55946 0.72958 0.85303 0.0
C55 C 0.5861 0.60928 0.9655 0.0
Zn56 Zn 0.94051 0.55022 -0.01218 0.0
Zn57 Zn 0.89738 0.56475 0.04533 0.0
O58 O 0.87614 0.50963 0.06741 0.0
O59 O 0.92171 0.50211 0.03742 0.0
O60 O 0.85894 0.57526 0.08918 0.0
O61 O 0.98073 0.59418 0.03484 0.0
O62 O 0.94077 0.59418 0.11536 0.0
C63 C 0.8907 0.48995 0.0656 0.0
C64 C 0.92433 0.57945 0.87013 0.0
O65 O 0.91046 0.58668 0.92953 0.0
O66 O 0.93322 0.55563 0.87632 0.0
C67 C 0.84773 0.56643 0.15998 0.0
O68 O 0.86131 0.551 0.20381 0.0
C69 C 0.97329 0.60573 0.09643 0.0
Zn70 Zn 0.37518 0.96207 0.12743 0.0
Zn71 Zn 0.32002 0.8966 0.20744 0.0
O72 O 0.35691 0.88107 0.21112 0.0
O73 O 0.39741 0.92864 0.14602 0.0
O74 O 0.27572 0.85774 0.26526 0.0
O75 O 0.38577 0.99147 0.21931 0.0
O76 O 0.34287 0.94256 0.27784 0.0
C77 C 0.38819 0.89945 0.18268 0.0
C78 C 0.31181 0.92887 0.06763 0.0
O79 O 0.30838 0.89913 0.08902 0.0
O80 O 0.32378 0.95256 0.11936 0.0
C81 C 0.26598 0.86149 0.3343 0.0
O82 O 0.28379 0.89226 0.37083 0.0
C83 C 0.36709 0.9756 0.27943 0.0
Zn84 Zn 0.60749 0.56011 0.42483 0.0
Zn85 Zn 0.66885 0.56583 0.38893 0.0
O86 O 0.63553 0.51203 0.42247 0.0
O87 O 0.58549 0.5098 0.45996 0.0
O88 O 0.71524 0.56682 0.35461 0.0
O89 O 0.59921 0.56974 0.31512 0.0
O90 O 0.65161 0.57573 0.28414 0.0
C91 C 0.60343 0.49425 0.4479 0.0
C92 C 0.66179 0.61752 0.50792 0.0
O93 O 0.68176 0.60758 0.47216 0.0
O94 O 0.62848 0.60049 0.4985 0.0
C95 C 0.7351 0.58694 0.29905 0.0
O96 O 0.72763 0.61011 0.2663 0.0
C97 C 0.62334 0.57609 0.26476 0.0
Zn98 Zn 0.03669 0.62268 0.48461 0.0
Zn99 Zn 0.08302 0.67784 0.51703 0.0
O100 O 0.10571 0.64453 0.51499 0.0
O101 O 0.05607 0.59424 0.53622 0.0
O102 O 0.12609 0.72826 0.52431 0.0
O103 O 0.04253 0.62794 0.37021 0.0
O104 O 0.06467 0.68357 0.40777 0.0
C105 C 0.08963 0.61115 0.53077 0.0
C106 C 0.01111 0.64465 0.60146 0.0
O107 O 0.04495 0.66317 0.61094 0.0
O108 O -0.00043 0.63135 0.53451 0.0
C109 C 0.14656 0.73449 0.46445 0.0
O110 O 0.13904 0.70872 0.41347 0.0
C111 C 0.05251 0.66011 0.35368 0.0
Zn112 Zn 0.44904 0.05198 0.71596 0.0
Zn113 Zn 0.42299 0.093 0.71482 0.0
O114 O 0.47834 0.12672 0.7272 0.0
O115 O 0.49749 0.08851 0.74735 0.0
O116 O 0.40497 0.12795 0.68787 0.0
O117 O 0.43918 0.03667 0.60602 0.0
O118 O 0.4094 0.06596 0.61055 0.0
C119 C 0.50372 0.12038 0.74143 0.0
C120 C 0.39282 0.0276 0.82617 0.0
O121 O 0.39399 0.05737 0.80957 0.0
O122 O 0.41339 0.01916 0.79063 0.0
C123 C 0.42111 0.14725 0.62765 0.0
O124 O 0.44727 0.14407 0.59585 0.0
C125 C 0.41813 0.04541 0.57482 0.0
Zn126 Zn 0.37176 0.42673 0.80736 0.0
Zn127 Zn 0.31103 0.41978 0.85141 0.0
O128 O 0.34594 0.47525 0.83834 0.0
O129 O 0.39684 0.47955 0.8003 0.0
O130 O 0.26207 0.41738 0.84855 0.0
O131 O 0.35528 0.39729 0.71223 0.0
O132 O 0.30286 0.38623 0.7572 0.0
C133 C 0.37868 0.49428 0.81831 0.0
C134 C 0.34887 0.39357 0.9614 0.0
O135 O 0.32231 0.39903 0.95376 0.0
O136 O 0.3718 0.40236 0.90667 0.0
C137 C 0.23409 0.3898 0.82385 0.0
O138 O 0.23374 0.35911 0.81899 0.0
C139 C 0.32179 0.38048 0.70801 0.0
Zn140 Zn 0.9465 0.35667 0.19905 0.0
Zn141 Zn 0.88964 0.30303 0.09878 0.0
O142 O 0.86961 0.33643 0.10991 0.0
O143 O 0.90643 0.37094 0.20157 0.0
O144 O 0.85904 0.26516 0.01585 0.0
O145 O 0.97949 0.37918 0.11164 0.0
O146 O 0.93847 0.33342 0.0428 0.0
C147 C 0.87932 0.36221 0.1583 0.0
C148 C 0.91748 0.28777 0.23809 0.0
O149 O 0.88773 0.28117 0.20983 0.0
O150 O 0.94402 0.30773 0.19671 0.0
C151 C 0.82511 0.24787 0.01635 0.0
O152 O 0.80791 0.25196 0.07621 0.0
C153 C 0.9692 0.36138 0.04839 0.0
Zn154 Zn 0.59231 0.96429 0.30538 0.0
Zn155 Zn 0.58314 0.89721 0.22897 0.0
O156 O 0.53059 0.88031 0.23128 0.0
O157 O 0.53746 0.92975 0.28837 0.0
O158 O 0.59055 0.86125 0.16245 0.0
O159 O 0.6084 0.99263 0.21114 0.0
O160 O 0.60229 0.94255 0.15728 0.0
C161 C 0.51763 0.89944 0.2566 0.0
C162 C 0.62563 0.93222 0.36349 0.0
O163 O 0.60083 0.90133 0.3453 0.0
O164 O 0.63456 0.95501 0.30989 0.0
C165 C 0.56869 0.82775 0.16161 0.0
O166 O 0.5415 0.81449 0.21088 0.0
C167 C 0.61018 0.97541 0.15222 0.0
C168 C 0.39222 0.39983 0.06448 0.0
C169 C 0.35685 0.38041 0.03573 0.0
C170 C 0.34367 0.33406 0.1362 0.0
C171 C 0.38005 0.35224 0.15909 0.0
N172 N 0.44042 0.39686 0.12918 0.0
N173 N 0.30053 0.32548 0.03502 0.0
C174 C 0.40476 0.38316 0.1173 0.0
C175 C 0.33292 0.34641 0.06888 0.0
N176 N 0.41346 0.43495 0.04404 0.0
N177 N 0.31916 0.30611 0.18048 0.0
H178 H 0.29176 0.33373 -0.01362 0.0
H179 H 0.28358 0.29901 0.05161 0.0
H180 H 0.32617 0.29577 0.22841 0.0
H181 H 0.29179 0.2946 0.17226 0.0
H182 H 0.43838 0.45119 0.06887 0.0
H183 H 0.40452 0.44896 0.00939 0.0
H184 H 0.45988 0.41774 0.09553 0.0
H185 H 0.45032 0.3847 0.16696 0.0
C186 C 0.9483 0.3483 0.39932 0.0
C187 C 0.97416 0.34135 0.43489 0.0
C188 C 0.95044 0.28619 0.35649 0.0
C189 C 0.92433 0.29337 0.32419 0.0
N190 N 0.8887 0.32134 0.34751 0.0
N191 N -0.00812 0.2971 0.463 0.0
C192 C 0.91962 0.32067 0.35808 0.0
C193 C 0.97285 0.30817 0.41862 0.0
N194 N 0.95239 0.38193 0.39879 0.0
N195 N 0.95467 0.25925 0.32514 0.0
H196 H 0.00728 0.3116 0.51082 0.0
H197 H 0.98948 0.27187 0.45718 0.0
H198 H 0.93737 0.24203 0.28237 0.0
H199 H 0.97585 0.25515 0.33917 0.0
H200 H 0.93509 0.38808 0.36868 0.0
H201 H 0.97543 0.40441 0.41824 0.0
H202 H 0.88371 0.34013 0.37529 0.0
H203 H 0.86673 0.30046 0.31999 0.0
C204 C 0.59918 0.95338 0.46456 0.0
C205 C 0.62724 0.94699 0.44384 0.0
C206 C 0.66577 -0.00492 0.53584 0.0
C207 C 0.63961 0.00611 0.54122 0.0
N208 N 0.58562 0.00068 0.48537 0.0
N209 N 0.68874 0.96312 0.45792 0.0
C210 C 0.60754 0.98667 0.49793 0.0
C211 C 0.66103 0.9682 0.47943 0.0
N212 N 0.56469 0.92846 0.4498 0.0
N213 N 0.6942 0.00892 0.58546 0.0
H214 H 0.68529 0.94239 0.42027 0.0
H215 H 0.71495 0.98027 0.47471 0.0
H216 H 0.69841 0.02801 0.62819 0.0
H217 H 0.712 -0.00083 0.58837 0.0
H218 H 0.54333 0.93178 0.46784 0.0
H219 H 0.55748 0.90301 0.42862 0.0
H220 H 0.56323 0.98822 0.44944 0.0
H221 H 0.5924 0.02664 0.50223 0.0
C222 C 0.66336 0.67395 0.54223 0.0
C223 C 0.67553 0.64951 0.55951 0.0
C224 C 0.67606 0.66319 0.69943 0.0
C225 C 0.65291 0.67685 0.68288 0.0
N226 N 0.63148 0.70382 0.59114 0.0
N227 N 0.70217 0.62762 0.65157 0.0
C228 C 0.64998 0.68626 0.6048 0.0
C229 C 0.68593 0.64735 0.63722 0.0
N230 N 0.66237 0.6828 0.46542 0.0
N231 N 0.68578 0.66299 0.77571 0.0
H232 H 0.71019 0.61686 0.60571 0.0
H233 H 0.70749 0.62182 0.70778 0.0
H234 H 0.67759 0.67404 0.82075 0.0
H235 H 0.70354 0.65456 0.79309 0.0
H236 H 0.65497 0.70137 0.44768 0.0
H237 H 0.67173 0.67303 0.42001 0.0
H238 H 0.6251 0.70879 0.53519 0.0
H239 H 0.62217 0.71304 0.63774 0.0
C240 C 0.98626 0.65361 0.73156 0.0
C241 C 0.98525 0.63103 0.66914 0.0
C242 C 0.93044 0.58231 0.72651 0.0
C243 C 0.93638 0.60162 0.7971 0.0
N244 N 0.97086 0.65701 0.86808 0.0
N245 N 0.96041 0.56979 0.6221 0.0
C246 C 0.96415 0.63798 0.79973 0.0
C247 C 0.95807 0.59431 0.66968 0.0
N248 N 0.00777 0.68977 0.72556 0.0
N249 N 0.89937 0.55095 0.71691 0.0
H250 H 0.98284 0.57556 0.58811 0.0
H251 H 0.94235 0.54245 0.62536 0.0
H252 H 0.87909 0.5416 0.75947 0.0
H253 H 0.89266 0.53674 0.664 0.0
H254 H 0.0072 0.70774 0.76614 0.0
H255 H 0.02372 0.70194 0.67609 0.0
H256 H -0.0064 0.68174 0.87639 0.0
H257 H 0.95437 0.64752 0.91762 0.0
C258 C 0.38253 0.98267 0.93033 0.0
C259 C 0.36888 0.00166 0.88742 0.0
C260 C 0.31055 0.9632 0.94988 0.0
C261 C 0.32425 0.94281 -0.01347 0.0
N262 N 0.36919 0.92503 -0.01879 0.0
N263 N 0.31652 0.00334 0.84292 0.0
C264 C 0.35869 0.94954 0.96549 0.0
C265 C 0.3318 0.99005 0.89297 0.0
N266 N 0.41835 -0.00302 0.94096 0.0
N267 N 0.27758 0.95744 -0.02886 0.0
H268 H 0.33078 0.0223 0.79955 0.0
H269 H 0.28909 0.99319 0.84013 0.0
H270 H 0.26097 0.93666 0.0092 0.0
H271 H 0.26765 0.97407 0.9537 0.0
H272 H 0.42904 0.98499 -0.02318 0.0
H273 H 0.43679 0.02282 0.9225 0.0
H274 H 0.39384 0.9285 0.96297 0.0
H275 H 0.35169 0.89958 0.00304 0.0
C276 C 0.56399 0.43903 0.52186 0.0
C277 C 0.58363 0.45454 0.45192 0.0
C278 C 0.53931 0.40358 0.37573 0.0
C279 C 0.51582 0.39413 0.44124 0.0
N280 N 0.50695 0.39623 0.58053 0.0
N281 N 0.59496 0.44821 0.31524 0.0
C282 C 0.52898 0.40924 0.51626 0.0
C283 C 0.5734 0.435 0.38018 0.0
N284 N 0.57859 0.45435 0.59247 0.0
N285 N 0.52831 0.38324 0.30896 0.0
H286 H 0.62078 0.46974 0.31845 0.0
H287 H 0.58757 0.43812 0.25849 0.0
H288 H 0.50343 0.36025 0.30539 0.0
H289 H 0.54445 0.38723 0.25984 0.0
H290 H 0.5667 0.44429 0.64707 0.0
H291 H 0.60431 0.47628 0.59561 0.0
H292 H 0.51323 0.40759 0.63645 0.0
H293 H 0.48177 0.37354 0.57692 0.0
C294 C 0.10609 0.53855 0.46513 0.0
C295 C 0.10534 0.52379 0.54001 0.0
C296 C 0.11409 0.57834 0.60509 0.0
C297 C 0.10827 0.59011 0.53172 0.0
N298 N 0.11064 0.58904 0.39029 0.0
N299 N 0.12053 0.53282 0.6771 0.0
C300 C 0.10899 0.57296 0.46083 0.0
C301 C 0.11415 0.54528 0.60856 0.0
N302 N 0.10143 0.51831 0.39942 0.0
N303 N 0.11707 0.59774 0.67134 0.0
H304 H 0.12044 0.5085 0.67945 0.0
H305 H 0.12827 0.54728 0.72942 0.0
H306 H 0.11816 0.62255 0.66831 0.0
H307 H 0.11817 0.5895 0.72841 0.0
H308 H 0.09842 0.52559 0.34271 0.0
H309 H 0.10037 0.49352 0.40281 0.0
H310 H 0.11246 0.5789 0.33573 0.0
H311 H 0.1127 0.61427 0.38719 0.0
C312 C 0.56286 0.15065 0.80252 0.0
C313 C 0.54161 0.14845 0.73758 0.0
C314 C 0.58862 0.15571 0.64622 0.0
C315 C 0.60521 0.14845 0.70955 0.0
N316 N 0.61771 0.15382 0.84821 0.0
N317 N 0.54009 0.16524 0.60371 0.0
C318 C 0.59606 0.15206 0.78817 0.0
C319 C 0.5571 0.15755 0.66144 0.0
N320 N 0.54924 0.14777 0.87674 0.0
N321 N 0.60146 0.15746 0.57161 0.0
H322 H 0.51709 0.16663 0.61606 0.0
H323 H 0.55005 0.17292 0.54668 0.0
H324 H 0.62491 0.15651 0.56158 0.0
H325 H 0.58911 0.15943 0.52088 0.0
H326 H 0.56146 0.14602 0.92789 0.0
H327 H 0.52488 0.14699 0.88593 0.0
H328 H 0.61327 0.1572 0.90722 0.0
H329 H 0.64175 0.15428 0.83744 0.0
C330 C 0.4434 0.58611 0.8877 0.0
C331 C 0.46215 0.59812 0.8153 0.0
C332 C 0.41075 0.55156 0.74535 0.0
C333 C 0.39736 0.53391 0.81837 0.0
N334 N 0.3963 0.53605 0.95999 0.0
N335 N 0.46108 0.5992 0.67429 0.0
C336 C 0.41158 0.55231 0.89007 0.0
C337 C 0.4443 0.58357 0.74353 0.0
N338 N 0.45695 0.60637 0.95385 0.0
N339 N 0.39194 0.53641 0.67833 0.0
H340 H 0.48529 0.62319 0.6737 0.0
H341 H 0.45152 0.58878 0.61866 0.0
H342 H 0.36732 0.51291 0.68032 0.0
H343 H 0.39922 0.54798 0.62257 0.0
H344 H 0.44386 0.6002 0.00821 0.0
H345 H 0.47987 0.63141 0.95187 0.0
H346 H 0.4075 0.5459 0.01491 0.0
H347 H 0.37238 0.51187 0.96244 0.0
C348 C 0.87617 0.41611 0.20697 0.0
C349 C 0.86493 0.38771 0.15212 0.0
C350 C 0.85451 0.42319 0.05378 0.0
C351 C 0.8734 0.45381 0.10188 0.0
N352 N 0.89765 0.47948 0.22835 0.0
N353 N 0.82419 0.35832 0.04574 0.0
C354 C 0.88198 0.45007 0.18072 0.0
C355 C 0.84786 0.38925 0.08224 0.0
N356 N 0.88024 0.40991 0.28413 0.0
N357 N 0.84463 0.42695 -0.02038 0.0
H358 H 0.81586 0.33336 0.07142 0.0
H359 H 0.80931 0.35744 -0.00313 0.0
H360 H 0.84785 0.45125 0.95896 0.0
H361 H 0.83467 0.40652 0.93793 0.0
H362 H 0.8865 0.42857 0.32903 0.0
H363 H 0.87345 0.38434 0.30408 0.0
H364 H 0.90839 0.47977 0.28327 0.0
H365 H 0.90075 0.50422 0.21143 0.0
C366 C 0.43634 0.88617 0.14104 0.0
C367 C 0.41643 0.89047 0.20267 0.0
C368 C 0.45725 0.8879 0.29967 0.0
C369 C 0.48036 0.88998 0.23766 0.0
N370 N 0.49375 0.89527 0.09762 0.0
N371 N 0.41042 0.89982 0.34168 0.0
C372 C 0.47019 0.88961 0.1577 0.0
C373 C 0.42714 0.8919 0.28253 0.0
N374 N 0.42283 0.87885 0.06643 0.0
N375 N 0.46424 0.88222 0.37515 0.0
H376 H 0.38877 0.90378 0.33256 0.0
H377 H 0.41992 0.90551 0.39921 0.0
H378 H 0.48604 0.87902 0.38901 0.0
H379 H 0.44667 0.8771 0.42217 0.0
H380 H 0.43443 0.87205 0.02026 0.0
H381 H 0.39804 0.87607 0.05284 0.0
H382 H 0.48936 0.89974 0.03943 0.0
H383 H 0.51902 0.89847 0.10617 0.0
C384 C 0.30772 0.32076 0.66299 0.0
C385 C 0.30553 0.35211 0.64922 0.0
C386 C 0.30511 0.34256 0.50837 0.0
C387 C 0.32076 0.32117 0.52362 0.0
N388 N 0.32288 0.27751 0.60718 0.0
N389 N 0.29673 0.39051 0.55996 0.0
C390 C 0.31637 0.30528 0.59839 0.0
C391 C 0.3008 0.36135 0.57209 0.0
N392 N 0.30414 0.30806 0.73819 0.0
N393 N 0.29873 0.34775 0.43226 0.0
H394 H 0.29509 0.4055 0.60668 0.0
H395 H 0.29664 0.40067 0.50428 0.0
H396 H 0.3038 0.33479 0.38584 0.0
H397 H 0.28602 0.36207 0.41662 0.0
H398 H 0.30555 0.28536 0.75347 0.0
H399 H 0.29787 0.31985 0.78511 0.0
H400 H 0.32255 0.26579 0.66104 0.0
H401 H 0.32744 0.26549 0.55825 0.0
C402 C 0.00527 0.41035 0.95214 0.0
C403 C -0.00811 0.37449 -0.02217 0.0
C404 C 0.00937 0.35914 0.85302 0.0
C405 C 0.0228 0.39505 0.82808 0.0
N406 N 0.04608 0.45684 0.86373 0.0
N407 N -0.00796 0.31865 0.96443 0.0
C408 C 0.02525 0.42139 0.88153 0.0
C409 C -0.00234 0.35015 0.93214 0.0
N410 N -0.00355 0.43299 -0.00955 0.0
N411 N 0.00534 0.33319 0.80068 0.0
H412 H 0.98418 0.31175 0.02315 0.0
H413 H -0.00119 0.30134 0.93568 0.0
H414 H 0.01327 0.33828 0.74177 0.0
H415 H -0.00831 0.30602 0.81453 0.0
H416 H 0.00286 0.45809 -0.03171 0.0
H417 H 0.97958 0.42569 0.03943 0.0
H418 H 0.05098 0.47718 0.90379 0.0
H419 H 0.0615 0.46553 0.81222 0.0
C420 C 0.59149 0.00547 0.05504 0.0
C421 C 0.61431 0.9917 0.07454 0.0
C422 C 0.64221 0.0084 0.94467 0.0
C423 C 0.62286 0.02666 0.93042 0.0
N424 N 0.58631 0.05049 -0.01856 0.0
N425 N 0.66529 0.98482 0.0437 0.0
C426 C 0.59969 0.02766 -0.01151 0.0
C427 C 0.64091 -0.00548 0.02111 0.0
N428 N 0.56106 -0.00396 0.09766 0.0
N429 N 0.66017 0.00259 0.88481 0.0
H430 H 0.66515 0.97467 0.09965 0.0
H431 H 0.6874 0.9898 0.00935 0.0
H432 H 0.66059 0.01089 0.82688 0.0
H433 H 0.67168 0.98638 0.89101 0.0
H434 H 0.54218 0.0031 0.08067 0.0
H435 H 0.55255 0.97773 0.14418 0.0
H436 H 0.57169 0.05409 0.02627 0.0
H437 H 0.5932 0.06874 0.93509 0.0
C438 C 0.63184 0.62228 0.06885 0.0
C439 C 0.59735 0.59934 0.0385 0.0
C440 C 0.58572 0.55693 0.14537 0.0
C441 C 0.61733 0.58263 0.1827 0.0
N442 N 0.66899 0.64176 0.18472 0.0
N443 N 0.53917 0.54702 0.05384 0.0
C444 C 0.64028 0.61578 0.14554 0.0
C445 C 0.57369 0.56704 0.07789 0.0
N446 N 0.65682 0.64959 0.02364 0.0
N447 N 0.56752 0.52272 0.17387 0.0
H448 H 0.52869 0.5541 0.00633 0.0
H449 H 0.51994 0.52525 0.08575 0.0
H450 H 0.5762 0.51419 0.22233 0.0
H451 H 0.54612 0.50201 0.1446 0.0
H452 H 0.68339 0.66487 0.04001 0.0
H453 H 0.65191 0.65464 0.96622 0.0
H454 H 0.68412 0.66782 0.16356 0.0
H455 H 0.67607 0.63827 0.24132 0.0
C456 C 0.0189 0.67425 0.25616 0.0
C457 C 0.04751 0.66822 0.27231 0.0
C458 C 0.0335 0.6287 0.16071 0.0
C459 C 0.0023 0.63151 0.14766 0.0
N460 N 0.97485 0.66865 0.16087 0.0
N461 N 0.09216 0.65649 0.21968 0.0
C462 C -0.00185 0.65835 0.18795 0.0
C463 C 0.05882 0.65236 0.21494 0.0
N464 N 0.0102 0.6929 0.30852 0.0
N465 N 0.03735 0.60129 0.13017 0.0
H466 H 0.10992 0.67266 0.26307 0.0
H467 H 0.1028 0.64698 0.17671 0.0
H468 H 0.01781 0.57989 0.09885 0.0
H469 H 0.05856 0.5973 0.14459 0.0
H470 H 0.98682 0.69429 0.3052 0.0
H471 H 0.02635 0.70624 0.35649 0.0
H472 H 0.97255 0.68968 0.18538 0.0
H473 H 0.96081 0.65879 0.10847 0.0
C474 C 0.35464 -0.003 0.40712 0.0
C475 C 0.37882 0.99399 0.35509 0.0
C476 C 0.42847 0.03309 0.43838 0.0
C477 C 0.40412 0.03148 0.49649 0.0
N478 N 0.34302 0.0067 0.54203 0.0
N479 N 0.43744 0.00061 0.33362 0.0
C480 C 0.36681 0.01227 0.4826 0.0
C481 C 0.41545 0.00968 0.37395 0.0
N482 N 0.3205 0.98598 0.38422 0.0
N483 N 0.46399 0.05717 0.44437 0.0
H484 H 0.42848 0.98108 0.28977 0.0
H485 H 0.46362 0.00929 0.35052 0.0
H486 H 0.47436 0.07593 0.48978 0.0
H487 H 0.48227 0.06107 0.39957 0.0
H488 H 0.30289 0.99086 0.41732 0.0
H489 H 0.31083 0.97485 0.32894 0.0
H490 H 0.3157 0.98967 0.53642 0.0
H491 H 0.35055 0.01632 0.59915 0.0
C492 C 0.39753 0.2214 0.59195 0.0
C493 C 0.40483 0.22727 0.50946 0.0
C494 C 0.40931 0.1725 0.50502 0.0
C495 C 0.41037 0.17179 0.58892 0.0
N496 N 0.40946 0.19946 0.71271 0.0
N497 N 0.42233 0.20956 0.38883 0.0
C498 C 0.40514 0.19702 0.63276 0.0
C499 C 0.41156 0.2029 0.46592 0.0
N500 N 0.38254 0.23852 0.63131 0.0
N501 N 0.40543 0.14377 0.46247 0.0
H502 H 0.42583 0.23201 0.35806 0.0
H503 H 0.43116 0.19443 0.35764 0.0
H504 H 0.40183 0.12032 0.48912 0.0
H505 H 0.40147 0.14163 0.40165 0.0
H506 H 0.3738 0.2328 0.68973 0.0
H507 H 0.37497 0.25518 0.6029 0.0
H508 H 0.40976 0.2201 0.74573 0.0
H509 H 0.41605 0.18307 0.74531 0.0
C510 C 0.18044 0.39882 0.82828 0.0
C511 C 0.20563 0.39402 0.78357 0.0
C512 C 0.18013 0.40232 0.66077 0.0
C513 C 0.15354 0.40489 0.70533 0.0
N514 N 0.12294 0.39603 0.83025 0.0
N515 N 0.22454 0.38352 0.65635 0.0
C516 C 0.15218 0.40047 0.78886 0.0
C517 C 0.2038 0.3932 0.69956 0.0
N518 N 0.18348 0.40189 0.90848 0.0
N519 N 0.18426 0.41058 0.58215 0.0
H520 H 0.24296 0.37766 0.68161 0.0
H521 H 0.22134 0.37836 0.59601 0.0
H522 H 0.16793 0.41786 0.55161 0.0
H523 H 0.20582 0.41335 0.54865 0.0
H524 H 0.16842 0.4095 0.94354 0.0
H525 H 0.20288 0.3993 0.9395 0.0
H526 H 0.1188 0.38935 0.88992 0.0
H527 H 0.10085 0.39507 0.80325 0.0
C528 C 0.80961 0.19925 0.91286 0.0
C529 C 0.80485 0.22721 0.94527 0.0
C530 C 0.75462 0.21084 0.85592 0.0
C531 C 0.76134 0.18513 0.81792 0.0
N532 N 0.79985 0.1597 0.80166 0.0
N533 N 0.77953 0.26593 0.92999 0.0
C534 C 0.79023 0.18075 0.84394 0.0
C535 C 0.7794 0.23489 0.9114 0.0
N536 N 0.83141 0.18926 0.94962 0.0
N537 N 0.7235 0.21109 0.84331 0.0
H538 H 0.7983 0.2852 0.96734 0.0
H539 H 0.76375 0.2744 0.90107 0.0
H540 H 0.70329 0.19275 0.80735 0.0
H541 H 0.71596 0.22688 0.87599 0.0
H542 H 0.833 0.16665 0.93382 0.0
H543 H 0.84564 0.20177 0.00038 0.0
H544 H 0.8228 0.15826 0.81295 0.0
H545 H 0.78672 0.14631 0.7505 0.0
C546 C 0.60277 0.80246 0.08736 0.0
C547 C 0.57109 0.80441 0.09887 0.0
C548 C 0.54087 0.75673 0.00094 0.0
C549 C 0.57344 0.75745 -0.01701 0.0
N550 N 0.63707 0.78587 -4e-05 0.0
N551 N 0.51297 0.78982 0.05037 0.0
C552 C 0.60491 0.78169 0.02372 0.0
C553 C 0.541 0.78339 0.05096 0.0
N554 N 0.63032 0.81923 0.13895 0.0
N555 N 0.50936 0.72953 -0.02631 0.0
H556 H 0.51256 0.81022 0.083 0.0
H557 H 0.49202 0.77763 0.01066 0.0
H558 H 0.50756 0.70829 0.94039 0.0
H559 H 0.48465 0.72591 -0.00823 0.0
H560 H 0.6525 0.81564 0.13857 0.0
H561 H 0.62959 0.83417 0.18679 0.0
H562 H 0.66129 0.80574 0.02192 0.0
H563 H 0.63982 0.7717 0.95293 0.0
C564 C 0.7967 0.59403 0.30355 0.0
C565 C 0.76379 0.5813 0.26406 0.0
C566 C 0.78521 0.55743 0.15745 0.0
C567 C 0.8192 0.57281 0.19361 0.0
N568 N 0.85929 0.61127 0.29371 0.0
N569 N 0.7278 0.55464 0.14878 0.0
C570 C 0.82544 0.59251 0.26491 0.0
C571 C 0.75849 0.56431 0.18939 0.0
N572 N 0.80048 0.60747 0.37822 0.0
N573 N 0.77768 0.5345 0.09531 0.0
H574 H 0.70651 0.55683 0.17205 0.0
H575 H 0.72427 0.54651 0.09005 0.0
H576 H 0.7961 0.52809 0.07106 0.0
H577 H 0.75227 0.51926 0.0721 0.0
H578 H 0.82224 0.61337 0.4138 0.0
H579 H 0.78054 0.61026 0.40706 0.0
H580 H 0.86635 0.62905 0.34074 0.0
H581 H 0.88118 0.61178 0.26589 0.0
C582 C 0.2103 0.78353 0.47499 0.0
C583 C 0.17575 0.77097 0.44399 0.0
C584 C 0.19995 0.81867 0.34364 0.0
C585 C 0.2347 0.83115 0.374 0.0
N586 N 0.27276 0.82926 0.47536 0.0
N587 N 0.13604 0.77995 0.36058 0.0
C588 C 0.23973 0.81491 0.44231 0.0
C589 C 0.17014 0.78969 0.38185 0.0
N590 N 0.21512 0.76432 0.5331 0.0
N591 N 0.19554 0.83428 0.27757 0.0
H592 H 0.11379 0.75913 0.38822 0.0
H593 H 0.12946 0.7941 0.32068 0.0
H594 H 0.21625 0.85697 0.25105 0.0
H595 H 0.17182 0.82395 0.24647 0.0
H596 H 0.23992 0.76907 0.55221 0.0
H597 H 0.19392 0.74223 0.5603 0.0
H598 H 0.27758 0.82149 0.52993 0.0
H599 H 0.29546 0.85046 0.45022 0.0
loop_
_geom_bond_atom_site_label_1
_geom_bond_atom_site_label_2
_geom_bond_distance
_geom_bond_site_symmetry_2
_ccdc_geom_bond_type
Zn0 O3 2.031 . S
Zn0 O5 2.049 . S
Zn0 O10 2.067 . S
Zn1 O2 1.962 . S
Zn1 O4 1.986 . S
Zn1 O6 1.996 . S
Zn1 O9 1.943 . S
O2 Zn1 1.962 . S
O2 C7 1.254 . S
O3 Zn0 2.031 . S
O3 C7 1.269 . S
O4 Zn1 1.986 . S
O4 C11 1.262 . S
O5 Zn0 2.049 . S
O5 C13 1.260 . S
O6 Zn1 1.996 . S
O6 C13 1.257 . S
C7 O2 1.254 . S
C7 O3 1.269 . S
C8 O9 1.249 . S
C8 O10 1.270 . S
O9 Zn1 1.943 . S
O9 C8 1.249 . S
O10 Zn0 2.067 . S
O10 C8 1.270 . S
C11 O4 1.262 . S
C11 O12 1.232 . S
O12 C11 1.232 . S
C13 O5 1.260 . S
C13 O6 1.257 . S
Zn14 O17 2.031 . S
Zn14 O19 2.047 1_455 S
Zn14 O24 2.067 . S
Zn15 O16 1.962 . S
Zn15 O18 1.986 . S
Zn15 O20 1.996 . S
Zn15 O23 1.943 . S
O16 Zn15 1.962 . S
O16 C21 1.254 . S
O17 Zn14 2.031 . S
O17 C21 1.269 . S
O18 Zn15 1.986 . S
O18 C25 1.262 . S
O19 Zn14 2.047 1_655 S
O19 C27 1.226 1_655 S
O20 Zn15 1.996 . S
O20 C27 1.257 . S
C21 O16 1.254 . S
C21 O17 1.269 . S
C22 O23 1.249 . S
C22 O24 1.270 . S
O23 Zn15 1.943 . S
O23 C22 1.249 . S
O24 Zn14 2.067 . S
O24 C22 1.270 . S
C25 O18 1.262 . S
C25 O26 1.232 . S
O26 C25 1.232 . S
C27 O19 1.226 1_455 S
C27 O20 1.257 . S
Zn28 O31 2.031 . S
Zn28 O33 2.025 1_545 S
Zn28 O38 2.067 . S
Zn29 O30 1.962 . S
Zn29 O32 1.986 . S
Zn29 O34 1.996 . S
Zn29 O37 1.943 . S
O30 Zn29 1.962 . S
O30 C35 1.254 . S
O31 Zn28 2.031 . S
O31 C35 1.269 . S
O32 Zn29 1.986 . S
O32 C39 1.262 . S
O33 Zn28 2.025 1_565 S
O33 C41 1.243 1_565 S
O34 Zn29 1.996 . S
O34 C41 1.257 . S
C35 O30 1.254 . S
C35 O31 1.269 . S
C36 O37 1.249 . S
C36 O38 1.270 . S
O37 Zn29 1.943 . S
O37 C36 1.249 . S
O38 Zn28 2.067 . S
O38 C36 1.270 . S
C39 O32 1.262 . S
C39 O40 1.232 . S
O40 C39 1.232 . S
C41 O33 1.243 1_545 S
C41 O34 1.257 . S
Zn42 O45 2.031 . S
Zn42 O47 2.049 1_556 S
Zn42 O52 2.067 . S
Zn43 O44 1.962 . S
Zn43 O46 1.986 1_556 S
Zn43 O48 1.996 1_556 S
Zn43 O51 1.943 . S
O44 Zn43 1.962 . S
O44 C49 1.254 . S
O45 Zn42 2.031 . S
O45 C49 1.269 . S
O46 Zn43 1.986 1_554 S
O46 C53 1.262 1_554 S
O47 Zn42 2.049 1_554 S
O47 C55 1.260 . S
O48 Zn43 1.996 1_554 S
O48 C55 1.257 . S
C49 O44 1.254 . S
C49 O45 1.269 . S
C50 O51 1.249 . S
C50 O52 1.270 . S
O51 Zn43 1.943 . S
O51 C50 1.249 . S
O52 Zn42 2.067 . S
O52 C50 1.270 . S
C53 O46 1.262 1_556 S
C53 O54 1.232 . S
O54 C53 1.232 . S
C55 O47 1.260 . S
C55 O48 1.257 . S
Zn56 O59 2.031 . S
Zn56 O61 2.047 1_655 S
Zn56 O66 2.067 . S
Zn57 O58 1.962 . S
Zn57 O60 1.986 . S
Zn57 O62 1.996 . S
Zn57 O65 1.943 . S
O58 Zn57 1.962 . S
O58 C63 1.254 . S
O59 Zn56 2.031 . S
O59 C63 1.269 . S
O60 Zn57 1.986 . S
O60 C67 1.262 . S
O61 Zn56 2.047 1_455 S
O61 C69 1.226 1_455 S
O62 Zn57 1.996 . S
O62 C69 1.257 . S
C63 O58 1.254 . S
C63 O59 1.269 . S
C64 O65 1.249 1_556 S
C64 O66 1.270 1_556 S
O65 Zn57 1.943 . S
O65 C64 1.249 1_554 S
O66 Zn56 2.067 . S
O66 C64 1.270 1_554 S
C67 O60 1.262 . S
C67 O68 1.232 . S
O68 C67 1.232 . S
C69 O61 1.226 1_655 S
C69 O62 1.257 . S
Zn70 O73 2.031 . S
Zn70 O75 2.025 1_565 S
Zn70 O80 2.067 . S
Zn71 O72 1.962 . S
Zn71 O74 1.986 . S
Zn71 O76 1.996 . S
Zn71 O79 1.943 . S
O72 Zn71 1.962 . S
O72 C77 1.254 . S
O73 Zn70 2.031 . S
O73 C77 1.269 . S
O74 Zn71 1.986 . S
O74 C81 1.262 . S
O75 Zn70 2.025 1_545 S
O75 C83 1.243 1_545 S
O76 Zn71 1.996 . S
O76 C83 1.257 . S
C77 O72 1.254 . S
C77 O73 1.269 . S
C78 O79 1.249 . S
C78 O80 1.270 . S
O79 Zn71 1.943 . S
O79 C78 1.249 . S
O80 Zn70 2.067 . S
O80 C78 1.270 . S
C81 O74 1.262 . S
C81 O82 1.232 . S
O82 C81 1.232 . S
C83 O75 1.243 1_565 S
C83 O76 1.257 . S
Zn84 O87 2.031 . S
Zn84 O89 2.049 . S
Zn84 O94 2.067 . S
Zn85 O86 1.962 . S
Zn85 O88 1.986 . S
Zn85 O90 1.996 . S
Zn85 O93 1.943 . S
O86 Zn85 1.962 . S
O86 C91 1.254 . S
O87 Zn84 2.031 . S
O87 C91 1.269 . S
O88 Zn85 1.986 . S
O88 C95 1.262 . S
O89 Zn84 2.049 . S
O89 C97 1.260 . S
O90 Zn85 1.996 . S
O90 C97 1.257 . S
C91 O86 1.254 . S
C91 O87 1.269 . S
C92 O93 1.249 . S
C92 O94 1.270 . S
O93 Zn85 1.943 . S
O93 C92 1.249 . S
O94 Zn84 2.067 . S
O94 C92 1.270 . S
C95 O88 1.262 . S
C95 O96 1.232 . S
O96 C95 1.232 . S
C97 O89 1.260 . S
C97 O90 1.257 . S
Zn98 O101 2.031 . S
Zn98 O103 2.025 1_455 S
Zn98 O108 2.067 . S
Zn99 O100 1.962 . S
Zn99 O102 1.986 . S
Zn99 O104 1.996 . S
Zn99 O107 1.943 . S
O100 Zn99 1.962 . S
O100 C105 1.254 . S
O101 Zn98 2.031 . S
O101 C105 1.269 . S
O102 Zn99 1.986 . S
O102 C109 1.262 . S
O103 Zn98 2.025 1_655 S
O103 C111 1.243 1_655 S
O104 Zn99 1.996 . S
O104 C111 1.257 . S
C105 O100 1.254 . S
C105 O101 1.269 . S
C106 O107 1.249 . S
C106 O108 1.270 . S
O107 Zn99 1.943 . S
O107 C106 1.249 . S
O108 Zn98 2.067 . S
O108 C106 1.270 . S
C109 O102 1.262 . S
C109 O110 1.232 . S
O110 C109 1.232 . S
C111 O103 1.243 1_455 S
C111 O104 1.257 . S
Zn112 O115 2.031 . S
Zn112 O117 2.047 1_545 S
Zn112 O122 2.067 . S
Zn113 O114 1.962 . S
Zn113 O116 1.986 . S
Zn113 O118 1.996 . S
Zn113 O121 1.943 . S
O114 Zn113 1.962 . S
O114 C119 1.254 . S
O115 Zn112 2.031 . S
O115 C119 1.269 . S
O116 Zn113 1.986 . S
O116 C123 1.262 . S
O117 Zn112 2.047 1_565 S
O117 C125 1.226 1_565 S
O118 Zn113 1.996 . S
O118 C125 1.257 . S
C119 O114 1.254 . S
C119 O115 1.269 . S
C120 O121 1.249 . S
C120 O122 1.270 . S
O121 Zn113 1.943 . S
O121 C120 1.249 . S
O122 Zn112 2.067 . S
O122 C120 1.270 . S
C123 O116 1.262 . S
C123 O124 1.232 . S
O124 C123 1.232 . S
C125 O117 1.226 1_545 S
C125 O118 1.257 . S
Zn126 O129 2.031 . S
Zn126 O131 2.049 . S
Zn126 O136 2.067 . S
Zn127 O128 1.962 . S
Zn127 O130 1.986 . S
Zn127 O132 1.996 . S
Zn127 O135 1.943 . S
O128 Zn127 1.962 . S
O128 C133 1.254 . S
O129 Zn126 2.031 . S
O129 C133 1.269 . S
O130 Zn127 1.986 . S
O130 C137 1.262 . S
O131 Zn126 2.049 . S
O131 C139 1.260 . S
O132 Zn127 1.996 . S
O132 C139 1.257 . S
C133 O128 1.254 . S
C133 O129 1.269 . S
C134 O135 1.249 1_554 S
C134 O136 1.270 1_554 S
O135 Zn127 1.943 . S
O135 C134 1.249 1_556 S
O136 Zn126 2.067 . S
O136 C134 1.270 1_556 S
C137 O130 1.262 . S
C137 O138 1.232 . S
O138 C137 1.232 . S
C139 O131 1.260 . S
C139 O132 1.257 . S
Zn140 O143 2.031 . S
Zn140 O145 2.025 1_654 S
Zn140 O150 2.067 . S
Zn141 O142 1.962 . S
Zn141 O144 1.986 1_554 S
Zn141 O146 1.996 1_554 S
Zn141 O149 1.943 . S
O142 Zn141 1.962 . S
O142 C147 1.254 . S
O143 Zn140 2.031 . S
O143 C147 1.269 . S
O144 Zn141 1.986 1_556 S
O144 C151 1.262 1_556 S
O145 Zn140 2.025 1_456 S
O145 C153 1.243 1_455 S
O146 Zn141 1.996 1_556 S
O146 C153 1.257 . S
C147 O142 1.254 . S
C147 O143 1.269 . S
C148 O149 1.249 . S
C148 O150 1.270 . S
O149 Zn141 1.943 . S
O149 C148 1.249 . S
O150 Zn140 2.067 . S
O150 C148 1.270 . S
C151 O144 1.262 1_554 S
C151 O152 1.232 . S
O152 C151 1.232 . S
C153 O145 1.243 1_655 S
C153 O146 1.257 . S
Zn154 O157 2.031 . S
Zn154 O159 2.047 1_565 S
Zn154 O164 2.067 . S
Zn155 O156 1.962 . S
Zn155 O158 1.986 . S
Zn155 O160 1.996 . S
Zn155 O163 1.943 . S
O156 Zn155 1.962 . S
O156 C161 1.254 . S
O157 Zn154 2.031 . S
O157 C161 1.269 . S
O158 Zn155 1.986 . S
O158 C165 1.262 . S
O159 Zn154 2.047 1_545 S
O159 C167 1.226 1_545 S
O160 Zn155 1.996 . S
O160 C167 1.257 . S
C161 O156 1.254 . S
C161 O157 1.269 . S
C162 O163 1.249 . S
C162 O164 1.270 . S
O163 Zn155 1.943 . S
O163 C162 1.249 . S
O164 Zn154 2.067 . S
O164 C162 1.270 . S
C165 O158 1.262 . S
C165 O166 1.232 . S
O166 C165 1.232 . S
C167 O159 1.226 1_565 S
C167 O160 1.257 . S
C168 C169 1.363 . S
C168 C174 1.379 . S
C168 N176 1.356 . S
C169 C168 1.363 . S
C169 C175 1.363 . S
C170 C171 1.363 . S
C170 C175 1.379 . S
C170 N177 1.356 . S
C171 C170 1.363 . S
C171 C174 1.363 . S
N172 C174 1.356 . S
N172 H184 0.984 . S
N172 H185 0.985 . S
N173 C175 1.356 . S
N173 H178 0.984 . S
N173 H179 0.985 . S
C174 C168 1.379 . S
C174 C171 1.363 . S
C174 N172 1.356 . S
C175 C169 1.363 . S
C175 C170 1.379 . S
C175 N173 1.356 . S
N176 C168 1.356 . S
N176 H182 0.984 . S
N176 H183 0.984 . S
N177 C170 1.356 . S
N177 H180 0.984 . S
N177 H181 0.985 . S
H178 N173 0.984 . S
H179 N173 0.985 . S
H180 N177 0.984 . S
H181 N177 0.985 . S
H182 N176 0.984 . S
H183 N176 0.984 . S
H184 N172 0.984 . S
H185 N172 0.985 . S
C186 C187 1.363 . S
C186 C192 1.379 1_455 S
C186 N194 1.356 . S
C187 C186 1.363 . S
C187 C193 1.363 . S
C188 C189 1.363 . S
C188 C193 1.379 1_655 S
C188 N195 1.356 . S
C189 C188 1.363 . S
C189 C192 1.363 . S
N190 C192 1.356 . S
N190 H202 0.984 . S
N190 H203 0.985 . S
N191 C193 1.356 . S
N191 H196 0.984 . S
N191 H197 0.985 . S
C192 C186 1.379 1_655 S
C192 C189 1.363 . S
C192 N190 1.356 . S
C193 C187 1.363 . S
C193 C188 1.379 1_455 S
C193 N191 1.356 . S
N194 C186 1.356 . S
N194 H200 0.984 . S
N194 H201 0.984 . S
N195 C188 1.356 . S
N195 H198 0.984 . S
N195 H199 0.985 . S
H196 N191 0.984 . S
H197 N191 0.985 . S
H198 N195 0.984 . S
H199 N195 0.985 . S
H200 N194 0.984 . S
H201 N194 0.984 . S
H202 N190 0.984 . S
H203 N190 0.985 . S
C204 C205 1.363 . S
C204 C210 1.374 1_565 S
C204 N212 1.356 . S
C205 C204 1.363 . S
C205 C211 1.366 . S
C206 C207 1.363 . S
C206 C211 1.374 1_545 S
C206 N213 1.356 . S
C207 C206 1.363 . S
C207 C210 1.366 . S
N208 C210 1.359 . S
N208 H220 0.984 1_545 S
N208 H221 0.985 . S
N209 C211 1.359 . S
N209 H214 0.984 . S
N209 H215 0.985 1_565 S
C210 C204 1.374 1_545 S
C210 C207 1.366 . S
C210 N208 1.359 . S
C211 C205 1.366 . S
C211 C206 1.374 1_565 S
C211 N209 1.359 . S
N212 C204 1.356 . S
N212 H218 0.984 . S
N212 H219 0.984 . S
N213 C206 1.356 . S
N213 H216 0.984 . S
N213 H217 0.985 . S
H214 N209 0.984 . S
H215 N209 0.985 1_545 S
H216 N213 0.984 . S
H217 N213 0.985 . S
H218 N212 0.984 . S
H219 N212 0.984 . S
H220 N208 0.984 1_565 S
H221 N208 0.985 . S
C222 C223 1.363 . S
C222 C228 1.379 . S
C222 N230 1.356 . S
C223 C222 1.363 . S
C223 C229 1.363 . S
C224 C225 1.363 . S
C224 C229 1.379 . S
C224 N231 1.356 . S
C225 C224 1.363 . S
C225 C228 1.363 . S
N226 C228 1.356 . S
N226 H238 0.984 . S
N226 H239 0.985 . S
N227 C229 1.356 . S
N227 H232 0.984 . S
N227 H233 0.985 . S
C228 C222 1.379 . S
C228 C225 1.363 . S
C228 N226 1.356 . S
C229 C223 1.363 . S
C229 C224 1.379 . S
C229 N227 1.356 . S
N230 C222 1.356 . S
N230 H236 0.984 . S
N230 H237 0.984 . S
N231 C224 1.356 . S
N231 H234 0.984 . S
N231 H235 0.985 . S
H232 N227 0.984 . S
H233 N227 0.985 . S
H234 N231 0.984 . S
H235 N231 0.985 . S
H236 N230 0.984 . S
H237 N230 0.984 . S
H238 N226 0.984 . S
H239 N226 0.985 . S
C240 C241 1.363 . S
C240 C246 1.401 . S
C240 N248 1.356 . S
C241 C240 1.363 . S
C241 C247 1.349 1_455 S
C242 C243 1.363 . S
C242 C247 1.400 . S
C242 N249 1.356 . S
C243 C242 1.363 . S
C243 C246 1.349 1_655 S
N244 C246 1.343 1_655 S
N244 H256 0.984 1_656 S
N244 H257 0.985 1_556 S
N245 C247 1.343 1_455 S
N245 H250 0.984 . S
N245 H251 0.985 1_455 S
C246 C240 1.401 . S
C246 C243 1.349 1_455 S
C246 N244 1.343 1_455 S
C247 C241 1.349 1_655 S
C247 C242 1.400 . S
C247 N245 1.343 1_655 S
N248 C240 1.356 . S
N248 H254 0.984 . S
N248 H255 0.984 . S
N249 C242 1.356 . S
N249 H252 0.984 . S
N249 H253 0.985 . S
H250 N245 0.984 . S
H251 N245 0.985 1_655 S
H252 N249 0.984 . S
H253 N249 0.985 . S
H254 N248 0.984 . S
H255 N248 0.984 . S
H256 N244 0.984 1_454 S
H257 N244 0.985 1_554 S
C258 C259 1.363 1_554 S
C258 C264 1.379 1_545 S
C258 N266 1.356 1_554 S
C259 C258 1.363 1_556 S
C259 C265 1.363 . S
C260 C261 1.363 1_556 S
C260 C265 1.379 1_565 S
C260 N267 1.356 1_556 S
C261 C260 1.363 1_554 S
C261 C264 1.363 . S
N262 C264 1.356 . S
N262 H274 0.984 . S
N262 H275 0.985 . S
N263 C265 1.356 . S
N263 H268 0.984 . S
N263 H269 0.985 . S
C264 C258 1.379 1_565 S
C264 C261 1.363 . S
C264 N262 1.356 . S
C265 C259 1.363 . S
C265 C260 1.379 1_545 S
C265 N263 1.356 . S
N266 C258 1.356 1_556 S
N266 H272 0.984 1_556 S
N266 H273 0.984 . S
N267 C260 1.356 1_554 S
N267 H270 0.984 . S
N267 H271 0.985 1_554 S
H268 N263 0.984 . S
H269 N263 0.985 . S
H270 N267 0.984 . S
H271 N267 0.985 1_556 S
H272 N266 0.984 1_554 S
H273 N266 0.984 . S
H274 N262 0.984 . S
H275 N262 0.985 . S
C276 C277 1.363 . S
C276 C282 1.379 . S
C276 N284 1.356 . S
C277 C276 1.363 . S
C277 C283 1.363 . S
C278 C279 1.363 . S
C278 C283 1.379 . S
C278 N285 1.356 . S
C279 C278 1.363 . S
C279 C282 1.363 . S
N280 C282 1.356 . S
N280 H292 0.984 . S
N280 H293 0.985 . S
N281 C283 1.356 . S
N281 H286 0.984 . S
N281 H287 0.985 . S
C282 C276 1.379 . S
C282 C279 1.363 . S
C282 N280 1.356 . S
C283 C277 1.363 . S
C283 C278 1.379 . S
C283 N281 1.356 . S
N284 C276 1.356 . S
N284 H290 0.984 . S
N284 H291 0.984 . S
N285 C278 1.356 . S
N285 H288 0.984 . S
N285 H289 0.985 . S
H286 N281 0.984 . S
H287 N281 0.985 . S
H288 N285 0.984 . S
H289 N285 0.985 . S
H290 N284 0.984 . S
H291 N284 0.984 . S
H292 N280 0.984 . S
H293 N280 0.985 . S
C294 C295 1.363 . S
C294 C300 1.379 . S
C294 N302 1.356 . S
C295 C294 1.363 . S
C295 C301 1.363 . S
C296 C297 1.363 . S
C296 C301 1.379 . S
C296 N303 1.356 . S
C297 C296 1.363 . S
C297 C300 1.363 . S
N298 C300 1.356 . S
N298 H310 0.984 . S
N298 H311 0.985 . S
N299 C301 1.356 . S
N299 H304 0.984 . S
N299 H305 0.985 . S
C300 C294 1.379 . S
C300 C297 1.363 . S
C300 N298 1.356 . S
C301 C295 1.363 . S
C301 C296 1.379 . S
C301 N299 1.356 . S
N302 C294 1.356 . S
N302 H308 0.984 . S
N302 H309 0.984 . S
N303 C296 1.356 . S
N303 H306 0.984 . S
N303 H307 0.985 . S
H304 N299 0.984 . S
H305 N299 0.985 . S
H306 N303 0.984 . S
H307 N303 0.985 . S
H308 N302 0.984 . S
H309 N302 0.984 . S
H310 N298 0.984 . S
H311 N298 0.985 . S
C312 C313 1.363 . S
C312 C318 1.379 . S
C312 N320 1.356 . S
C313 C312 1.363 . S
C313 C319 1.363 . S
C314 C315 1.363 . S
C314 C319 1.379 . S
C314 N321 1.356 . S
C315 C314 1.363 . S
C315 C318 1.363 . S
N316 C318 1.356 . S
N316 H328 0.984 . S
N316 H329 0.985 . S
N317 C319 1.356 . S
N317 H322 0.984 . S
N317 H323 0.985 . S
C318 C312 1.379 . S
C318 C315 1.363 . S
C318 N316 1.356 . S
C319 C313 1.363 . S
C319 C314 1.379 . S
C319 N317 1.356 . S
N320 C312 1.356 . S
N320 H326 0.984 . S
N320 H327 0.984 . S
N321 C314 1.356 . S
N321 H324 0.984 . S
N321 H325 0.985 . S
H322 N317 0.984 . S
H323 N317 0.985 . S
H324 N321 0.984 . S
H325 N321 0.985 . S
H326 N320 0.984 . S
H327 N320 0.984 . S
H328 N316 0.984 . S
H329 N316 0.985 . S
C330 C331 1.363 . S
C330 C336 1.379 . S
C330 N338 1.356 1_556 S
C331 C330 1.363 . S
C331 C337 1.363 . S
C332 C333 1.363 . S
C332 C337 1.379 . S
C332 N339 1.356 . S
C333 C332 1.363 . S
C333 C336 1.363 . S
N334 C336 1.356 1_554 S
N334 H346 0.984 . S
N334 H347 0.985 . S
N335 C337 1.356 . S
N335 H340 0.984 . S
N335 H341 0.985 . S
C336 C330 1.379 . S
C336 C333 1.363 . S
C336 N334 1.356 1_556 S
C337 C331 1.363 . S
C337 C332 1.379 . S
C337 N335 1.356 . S
N338 C330 1.356 1_554 S
N338 H344 0.984 . S
N338 H345 0.984 1_554 S
N339 C332 1.356 . S
N339 H342 0.984 . S
N339 H343 0.985 . S
H340 N335 0.984 . S
H341 N335 0.985 . S
H342 N339 0.984 . S
H343 N339 0.985 . S
H344 N338 0.984 . S
H345 N338 0.984 1_556 S
H346 N334 0.984 . S
H347 N334 0.985 . S
C348 C349 1.363 . S
C348 C354 1.379 . S
C348 N356 1.356 . S
C349 C348 1.363 . S
C349 C355 1.363 . S
C350 C351 1.363 . S
C350 C355 1.379 . S
C350 N357 1.356 1_554 S
C351 C350 1.363 . S
C351 C354 1.363 . S
N352 C354 1.356 . S
N352 H364 0.984 . S
N352 H365 0.985 . S
N353 C355 1.356 1_556 S
N353 H358 0.984 1_556 S
N353 H359 0.985 . S
C354 C348 1.379 . S
C354 C351 1.363 . S
C354 N352 1.356 . S
C355 C349 1.363 . S
C355 C350 1.379 . S
C355 N353 1.356 1_554 S
N356 C348 1.356 . S
N356 H362 0.984 . S
N356 H363 0.984 . S
N357 C350 1.356 1_556 S
N357 H360 0.984 . S
N357 H361 0.985 . S
H358 N353 0.984 1_554 S
H359 N353 0.985 . S
H360 N357 0.984 . S
H361 N357 0.985 . S
H362 N356 0.984 . S
H363 N356 0.984 . S
H364 N352 0.984 . S
H365 N352 0.985 . S
C366 C367 1.363 . S
C366 C372 1.379 . S
C366 N374 1.356 . S
C367 C366 1.363 . S
C367 C373 1.363 . S
C368 C369 1.363 . S
C368 C373 1.379 . S
C368 N375 1.356 . S
C369 C368 1.363 . S
C369 C372 1.363 . S
N370 C372 1.356 . S
N370 H382 0.984 . S
N370 H383 0.985 . S
N371 C373 1.356 . S
N371 H376 0.984 . S
N371 H377 0.985 . S
C372 C366 1.379 . S
C372 C369 1.363 . S
C372 N370 1.356 . S
C373 C367 1.363 . S
C373 C368 1.379 . S
C373 N371 1.356 . S
N374 C366 1.356 . S
N374 H380 0.984 . S
N374 H381 0.984 . S
N375 C368 1.356 . S
N375 H378 0.984 . S
N375 H379 0.985 . S
H376 N371 0.984 . S
H377 N371 0.985 . S
H378 N375 0.984 . S
H379 N375 0.985 . S
H380 N374 0.984 . S
H381 N374 0.984 . S
H382 N370 0.984 . S
H383 N370 0.985 . S
C384 C385 1.363 . S
C384 C390 1.379 . S
C384 N392 1.356 . S
C385 C384 1.363 . S
C385 C391 1.363 . S
C386 C387 1.363 . S
C386 C391 1.379 . S
C386 N393 1.356 . S
C387 C386 1.363 . S
C387 C390 1.363 . S
N388 C390 1.356 . S
N388 H400 0.984 . S
N388 H401 0.985 . S
N389 C391 1.356 . S
N389 H394 0.984 . S
N389 H395 0.985 . S
C390 C384 1.379 . S
C390 C387 1.363 . S
C390 N388 1.356 . S
C391 C385 1.363 . S
C391 C386 1.379 . S
C391 N389 1.356 . S
N392 C384 1.356 . S
N392 H398 0.984 . S
N392 H399 0.984 . S
N393 C386 1.356 . S
N393 H396 0.984 . S
N393 H397 0.985 . S
H394 N389 0.984 . S
H395 N389 0.985 . S
H396 N393 0.984 . S
H397 N393 0.985 . S
H398 N392 0.984 . S
H399 N392 0.984 . S
H400 N388 0.984 . S
H401 N388 0.985 . S
C402 C403 1.363 . S
C402 C408 1.379 1_655 S
C402 N410 1.356 . S
C403 C402 1.363 . S
C403 C409 1.363 . S
C404 C405 1.363 . S
C404 C409 1.379 1_455 S
C404 N411 1.356 . S
C405 C404 1.363 . S
C405 C408 1.363 . S
N406 C408 1.356 . S
N406 H418 0.984 . S
N406 H419 0.985 . S
N407 C409 1.356 . S
N407 H412 0.984 . S
N407 H413 0.985 . S
C408 C402 1.379 1_455 S
C408 C405 1.363 . S
C408 N406 1.356 . S
C409 C403 1.363 . S
C409 C404 1.379 1_655 S
C409 N407 1.356 . S
N410 C402 1.356 . S
N410 H416 0.984 . S
N410 H417 0.984 . S
N411 C404 1.356 . S
N411 H414 0.984 . S
N411 H415 0.985 . S
H412 N407 0.984 . S
H413 N407 0.985 . S
H414 N411 0.984 . S
H415 N411 0.985 . S
H416 N410 0.984 . S
H417 N410 0.984 . S
H418 N406 0.984 . S
H419 N406 0.985 . S
C420 C421 1.363 1_545 S
C420 C426 1.379 1_554 S
C420 N428 1.356 . S
C421 C420 1.363 1_565 S
C421 C427 1.363 . S
C422 C423 1.363 1_565 S
C422 C427 1.379 1_556 S
C422 N429 1.356 . S
C423 C422 1.363 1_545 S
C423 C426 1.363 . S
N424 C426 1.356 . S
N424 H436 0.984 1_556 S
N424 H437 0.985 . S
N425 C427 1.356 . S
N425 H430 0.984 . S
N425 H431 0.985 1_554 S
C426 C420 1.379 1_556 S
C426 C423 1.363 . S
C426 N424 1.356 . S
C427 C421 1.363 . S
C427 C422 1.379 1_554 S
C427 N425 1.356 . S
N428 C420 1.356 . S
N428 H434 0.984 . S
N428 H435 0.984 1_545 S
N429 C422 1.356 . S
N429 H432 0.984 1_565 S
N429 H433 0.985 . S
H430 N425 0.984 . S
H431 N425 0.985 1_556 S
H432 N429 0.984 1_545 S
H433 N429 0.985 . S
H434 N428 0.984 . S
H435 N428 0.984 1_565 S
H436 N424 0.984 1_554 S
H437 N424 0.985 . S
C438 C439 1.363 . S
C438 C444 1.379 . S
C438 N446 1.356 . S
C439 C438 1.363 . S
C439 C445 1.363 . S
C440 C441 1.363 . S
C440 C445 1.379 . S
C440 N447 1.356 . S
C441 C440 1.363 . S
C441 C444 1.363 . S
N442 C444 1.356 . S
N442 H454 0.984 . S
N442 H455 0.985 . S
N443 C445 1.356 . S
N443 H448 0.984 . S
N443 H449 0.985 . S
C444 C438 1.379 . S
C444 C441 1.363 . S
C444 N442 1.356 . S
C445 C439 1.363 . S
C445 C440 1.379 . S
C445 N443 1.356 . S
N446 C438 1.356 . S
N446 H452 0.984 . S
N446 H453 0.984 . S
N447 C440 1.356 . S
N447 H450 0.984 . S
N447 H451 0.985 . S
H448 N443 0.984 . S
H449 N443 0.985 . S
H450 N447 0.984 . S
H451 N447 0.985 . S
H452 N446 0.984 . S
H453 N446 0.984 . S
H454 N442 0.984 . S
H455 N442 0.985 . S
C456 C457 1.363 . S
C456 C462 1.379 1_455 S
C456 N464 1.356 . S
C457 C456 1.363 . S
C457 C463 1.363 . S
C458 C459 1.363 . S
C458 C463 1.379 1_655 S
C458 N465 1.356 . S
C459 C458 1.363 . S
C459 C462 1.363 . S
N460 C462 1.356 . S
N460 H472 0.984 . S
N460 H473 0.985 . S
N461 C463 1.356 . S
N461 H466 0.984 . S
N461 H467 0.985 . S
C462 C456 1.379 1_655 S
C462 C459 1.363 . S
C462 N460 1.356 . S
C463 C457 1.363 . S
C463 C458 1.379 1_455 S
C463 N461 1.356 . S
N464 C456 1.356 . S
N464 H470 0.984 . S
N464 H471 0.984 . S
N465 C458 1.356 . S
N465 H468 0.984 . S
N465 H469 0.985 . S
H466 N461 0.984 . S
H467 N461 0.985 . S
H468 N465 0.984 . S
H469 N465 0.985 . S
H470 N464 0.984 . S
H471 N464 0.984 . S
H472 N460 0.984 . S
H473 N460 0.985 . S
C474 C475 1.363 . S
C474 C480 1.379 . S
C474 N482 1.356 . S
C475 C474 1.363 . S
C475 C481 1.363 1_565 S
C476 C477 1.363 . S
C476 C481 1.379 . S
C476 N483 1.356 . S
C477 C476 1.363 . S
C477 C480 1.363 1_545 S
N478 C480 1.343 1_545 S
N478 H490 0.982 1_545 S
N478 H491 1.002 . S
N479 C481 1.343 1_565 S
N479 H484 1.002 . S
N479 H485 0.982 1_565 S
C480 C474 1.379 . S
C480 C477 1.363 1_565 S
C480 N478 1.343 1_565 S
C481 C475 1.363 1_545 S
C481 C476 1.379 . S
C481 N479 1.343 1_545 S
N482 C474 1.356 . S
N482 H488 0.984 . S
N482 H489 0.984 . S
N483 C476 1.356 . S
N483 H486 0.984 . S
N483 H487 0.985 . S
H484 N479 1.002 . S
H485 N479 0.982 1_545 S
H486 N483 0.984 . S
H487 N483 0.985 . S
H488 N482 0.984 . S
H489 N482 0.984 . S
H490 N478 0.982 1_565 S
H491 N478 1.002 . S
C492 C493 1.363 . S
C492 C498 1.379 . S
C492 N500 1.356 . S
C493 C492 1.363 . S
C493 C499 1.363 . S
C494 C495 1.363 . S
C494 C499 1.379 . S
C494 N501 1.356 . S
C495 C494 1.363 . S
C495 C498 1.363 . S
N496 C498 1.356 . S
N496 H508 0.984 . S
N496 H509 0.985 . S
N497 C499 1.356 . S
N497 H502 0.984 . S
N497 H503 0.985 . S
C498 C492 1.379 . S
C498 C495 1.363 . S
C498 N496 1.356 . S
C499 C493 1.363 . S
C499 C494 1.379 . S
C499 N497 1.356 . S
N500 C492 1.356 . S
N500 H506 0.984 . S
N500 H507 0.984 . S
N501 C494 1.356 . S
N501 H504 0.984 . S
N501 H505 0.985 . S
H502 N497 0.984 . S
H503 N497 0.985 . S
H504 N501 0.984 . S
H505 N501 0.985 . S
H506 N500 0.984 . S
H507 N500 0.984 . S
H508 N496 0.984 . S
H509 N496 0.985 . S
C510 C511 1.363 . S
C510 C516 1.379 . S
C510 N518 1.356 . S
C511 C510 1.363 . S
C511 C517 1.363 . S
C512 C513 1.363 . S
C512 C517 1.379 . S
C512 N519 1.356 . S
C513 C512 1.363 . S
C513 C516 1.363 . S
N514 C516 1.356 . S
N514 H526 0.984 . S
N514 H527 0.985 . S
N515 C517 1.356 . S
N515 H520 0.984 . S
N515 H521 0.985 . S
C516 C510 1.379 . S
C516 C513 1.363 . S
C516 N514 1.356 . S
C517 C511 1.363 . S
C517 C512 1.379 . S
C517 N515 1.356 . S
N518 C510 1.356 . S
N518 H524 0.984 . S
N518 H525 0.984 . S
N519 C512 1.356 . S
N519 H522 0.984 . S
N519 H523 0.985 . S
H520 N515 0.984 . S
H521 N515 0.985 . S
H522 N519 0.984 . S
H523 N519 0.985 . S
H524 N518 0.984 . S
H525 N518 0.984 . S
H526 N514 0.984 . S
H527 N514 0.985 . S
C528 C529 1.363 . S
C528 C534 1.379 . S
C528 N536 1.356 1_556 S
C529 C528 1.363 . S
C529 C535 1.363 . S
C530 C531 1.363 . S
C530 C535 1.379 . S
C530 N537 1.356 . S
C531 C530 1.363 . S
C531 C534 1.363 . S
N532 C534 1.356 . S
N532 H544 0.984 . S
N532 H545 0.985 . S
N533 C535 1.356 . S
N533 H538 0.984 1_556 S
N533 H539 0.985 . S
C534 C528 1.379 . S
C534 C531 1.363 . S
C534 N532 1.356 . S
C535 C529 1.363 . S
C535 C530 1.379 . S
C535 N533 1.356 . S
N536 C528 1.356 1_554 S
N536 H542 0.984 . S
N536 H543 0.984 . S
N537 C530 1.356 . S
N537 H540 0.984 . S
N537 H541 0.985 . S
H538 N533 0.984 1_554 S
H539 N533 0.985 . S
H540 N537 0.984 . S
H541 N537 0.985 . S
H542 N536 0.984 . S
H543 N536 0.984 . S
H544 N532 0.984 . S
H545 N532 0.985 . S
C546 C547 1.363 . S
C546 C552 1.379 . S
C546 N554 1.356 . S
C547 C546 1.363 . S
C547 C553 1.363 . S
C548 C549 1.363 . S
C548 C553 1.379 . S
C548 N555 1.356 1_554 S
C549 C548 1.363 . S
C549 C552 1.363 . S
N550 C552 1.356 . S
N550 H562 0.984 . S
N550 H563 0.985 1_554 S
N551 C553 1.356 . S
N551 H556 0.984 . S
N551 H557 0.985 . S
C552 C546 1.379 . S
C552 C549 1.363 . S
C552 N550 1.356 . S
C553 C547 1.363 . S
C553 C548 1.379 . S
C553 N551 1.356 . S
N554 C546 1.356 . S
N554 H560 0.984 . S
N554 H561 0.984 . S
N555 C548 1.356 1_556 S
N555 H558 0.984 . S
N555 H559 0.985 . S
H556 N551 0.984 . S
H557 N551 0.985 . S
H558 N555 0.984 . S
H559 N555 0.985 . S
H560 N554 0.984 . S
H561 N554 0.984 . S
H562 N550 0.984 . S
H563 N550 0.985 1_556 S
C564 C565 1.363 . S
C564 C570 1.379 . S
C564 N572 1.356 . S
C565 C564 1.363 . S
C565 C571 1.363 . S
C566 C567 1.363 . S
C566 C571 1.379 . S
C566 N573 1.356 . S
C567 C566 1.363 . S
C567 C570 1.363 . S
N568 C570 1.356 . S
N568 H580 0.984 . S
N568 H581 0.985 . S
N569 C571 1.356 . S
N569 H574 0.984 . S
N569 H575 0.985 . S
C570 C564 1.379 . S
C570 C567 1.363 . S
C570 N568 1.356 . S
C571 C565 1.363 . S
C571 C566 1.379 . S
C571 N569 1.356 . S
N572 C564 1.356 . S
N572 H578 0.984 . S
N572 H579 0.984 . S
N573 C566 1.356 . S
N573 H576 0.984 . S
N573 H577 0.985 . S
H574 N569 0.984 . S
H575 N569 0.985 . S
H576 N573 0.984 . S
H577 N573 0.985 . S
H578 N572 0.984 . S
H579 N572 0.984 . S
H580 N568 0.984 . S
H581 N568 0.985 . S
C582 C583 1.363 . S
C582 C588 1.379 . S
C582 N590 1.356 . S
C583 C582 1.363 . S
C583 C589 1.363 . S
C584 C585 1.363 . S
C584 C589 1.379 . S
C584 N591 1.356 . S
C585 C584 1.363 . S
C585 C588 1.363 . S
N586 C588 1.356 . S
N586 H598 0.984 . S
N586 H599 0.985 . S
N587 C589 1.356 . S
N587 H592 0.984 . S
N587 H593 0.985 . S
C588 C582 1.379 . S
C588 C585 1.363 . S
C588 N586 1.356 . S
C589 C583 1.363 . S
C589 C584 1.379 . S
C589 N587 1.356 . S
N590 C582 1.356 . S
N590 H596 0.984 . S
N590 H597 0.984 . S
N591 C584 1.356 . S
N591 H594 0.984 . S
N591 H595 0.985 . S
H592 N587 0.984 . S
H593 N587 0.985 . S
H594 N591 0.984 . S
H595 N591 0.985 . S
H596 N590 0.984 . S
H597 N590 0.984 . S
H598 N586 0.984 . S
H599 N586 0.985 . S
C169 C134 1.557 . S
C171 C8 1.557 . S
C187 C22 1.557 . S
C189 C148 1.557 . S
C205 C162 1.557 . S
C207 C36 1.557 . S
C223 C92 1.557 . S
C225 C50 1.557 . S
C241 C106 1.557 . S
C243 C64 1.557 . S
C259 C120 1.557 . S
C261 C78 1.557 . S
C277 C91 1.528 . S
C279 C7 1.528 . S
C295 C21 1.528 . S
C297 C105 1.528 . S
C313 C119 1.528 . S
C315 C35 1.528 . S
C331 C49 1.528 . S
C333 C133 1.528 . S
C349 C147 1.528 . S
C351 C63 1.528 . S
C367 C77 1.528 . S
C369 C161 1.528 . S
C385 C139 0.842 . S
C387 C13 0.842 . S
C403 C153 0.842 . S
C405 C27 0.842 . S
C421 C167 0.842 . S
C423 C41 0.842 . S
C439 C55 0.842 . S
C441 C97 0.842 . S
C457 C111 0.842 . S
C459 C69 0.842 . S
C475 C83 0.842 . S
C477 C125 0.842 . S
C493 C11 1.535 . S
C495 C123 1.535 . S
C511 C137 1.535 . S
C513 C25 1.535 . S
C529 C151 1.535 1_556 S
C531 C39 1.535 . S
C547 C165 1.535 . S
C549 C53 1.535 1_554 S
C565 C95 1.535 . S
C567 C67 1.535 . S
C583 C109 1.535 . S
C585 C81 1.535 . S
