# Generated by pormake.
# Topology sml, (6)-cn, num edge types: 1
# Building blocks:
#     Node 0, Type 0, BuildingBlock: HISSIN_clean_sbu_0, # of connection points: 6
#     Node 1, Type 0, BuildingBlock: HISSIN_clean_sbu_0, # of connection points: 6
#     Node 2, Type 0, BuildingBlock: HISSIN_clean_sbu_0, # of connection points: 6
#     Node 3, Type 0, BuildingBlock: HISSIN_clean_sbu_0, # of connection points: 6
#     Node 4, Type 0, BuildingBlock: HISSIN_clean_sbu_0, # of connection points: 6
#     Node 5, Type 0, BuildingBlock: HISSIN_clean_sbu_0, # of connection points: 6
#     Edge 6, Type (0, 0), BuildingBlock: MIFKUJ_clean_linker_0, # of connection points: 2
#     Edge 7, Type (0, 0), BuildingBlock: MIFKUJ_clean_linker_0, # of connection points: 2
#     Edge 8, Type (0, 0), BuildingBlock: MIFKUJ_clean_linker_0, # of connection points: 2
#     Edge 9, Type (0, 0), BuildingBlock: MIFKUJ_clean_linker_0, # of connection points: 2
#     Edge 10, Type (0, 0), BuildingBlock: MIFKUJ_clean_linker_0, # of connection points: 2
#     Edge 11, Type (0, 0), BuildingBlock: MIFKUJ_clean_linker_0, # of connection points: 2
#     Edge 12, Type (0, 0), BuildingBlock: MIFKUJ_clean_linker_0, # of connection points: 2
#     Edge 13, Type (0, 0), BuildingBlock: MIFKUJ_clean_linker_0, # of connection points: 2
#     Edge 14, Type (0, 0), BuildingBlock: MIFKUJ_clean_linker_0, # of connection points: 2
#     Edge 15, Type (0, 0), BuildingBlock: MIFKUJ_clean_linker_0, # of connection points: 2
#     Edge 16, Type (0, 0), BuildingBlock: MIFKUJ_clean_linker_0, # of connection points: 2
#     Edge 17, Type (0, 0), BuildingBlock: MIFKUJ_clean_linker_0, # of connection points: 2
#     Edge 18, Type (0, 0), BuildingBlock: MIFKUJ_clean_linker_0, # of connection points: 2
#     Edge 19, Type (0, 0), BuildingBlock: MIFKUJ_clean_linker_0, # of connection points: 2
#     Edge 20, Type (0, 0), BuildingBlock: MIFKUJ_clean_linker_0, # of connection points: 2
#     Edge 21, Type (0, 0), BuildingBlock: MIFKUJ_clean_linker_0, # of connection points: 2
#     Edge 22, Type (0, 0), BuildingBlock: MIFKUJ_clean_linker_0, # of connection points: 2
#     Edge 23, Type (0, 0), BuildingBlock: MIFKUJ_clean_linker_0, # of connection points: 2
# Relax obj value: 0.144
# Max RMSD: 0.196
# Mean RMSD: 0.196
data_MOF--net-sml--node1-HISSIN_clean_sbu_0--edge1-MIFKUJ_clean_linker_0
_symmetry_space_group_name_H-M    P1
_symmetry_Int_Tables_number       1
_symmetry_cell_setting            triclinic
loop_
_symmetry_equiv_pos_as_xyz
'x, y, z'
_cell_length_a     43.870427
_cell_length_b     43.871513
_cell_length_c     29.750967
_cell_angle_alpha  89.970607
_cell_angle_beta   89.986959
_cell_angle_gamma 119.93621
loop_
_atom_site_label
_atom_site_type_symbol
_atom_site_fract_x
_atom_site_fract_y
_atom_site_fract_z
_atom_type_partial_charge
Eu0 Eu 0.19936 0.40234 0.08798 0.0
Eu1 Eu 0.16178 0.41265 0.9957 0.0
C2 C 0.18383 0.46553 0.07953 0.0
C3 C 0.21425 0.39467 0.21217 0.0
C4 C 0.18224 0.39264 0.2238 0.0
C5 C 0.22839 0.39673 0.29138 0.0
C6 C 0.17328 0.39245 0.26907 0.0
C7 C 0.23726 0.39685 0.24621 0.0
C8 C 0.19621 0.39435 0.30349 0.0
C9 C 0.22417 0.39524 0.16476 0.0
O10 O 0.21633 0.42636 0.97511 0.0
O11 O 0.244 0.44079 0.04388 0.0
C12 C 0.245 0.4415 0.99965 0.0
O13 O 0.2035 0.3675 0.03691 0.0
O14 O 0.16138 0.44497 0.94039 0.0
O15 O 0.11847 0.39134 0.94727 0.0
O16 O 0.15798 0.35938 0.99043 0.0
C17 C 0.18042 0.35005 1.00535 0.0
O18 O 0.14142 0.36366 0.08922 0.0
O19 O 0.12231 0.39639 0.05183 0.0
O20 O 0.18308 0.46321 0.03545 0.0
O21 O 0.20212 0.36877 0.14009 0.0
O22 O 0.23605 0.42525 0.144 0.0
O23 O 0.1811 0.44007 0.10519 0.0
C24 C 0.13533 0.41389 0.87359 0.0
C25 C 0.16434 0.41277 0.85559 0.0
C26 C 0.11091 0.40658 0.79846 0.0
C27 C 0.16682 0.40902 0.80921 0.0
C28 C 0.10855 0.41048 0.8448 0.0
C29 C 0.14025 0.40614 0.77995 0.0
C30 C 0.13313 0.41944 0.92205 0.0
C31 C 0.11725 0.37219 0.08144 0.0
H32 H 0.16418 0.39111 0.19787 0.0
H33 H 0.24703 0.39897 0.31685 0.0
H34 H 0.1482 0.39033 0.27706 0.0
H35 H 0.26221 0.39879 0.23784 0.0
H36 H 0.1853 0.41529 0.87731 0.0
H37 H 0.08966 0.40379 0.77717 0.0
H38 H 0.18998 0.4092 0.79626 0.0
H39 H 0.08587 0.41109 0.85814 0.0
Eu40 Eu 0.79306 0.20833 0.44246 0.0
Eu41 Eu 0.8361 0.2535 0.53457 0.0
C42 C 0.81864 0.28957 0.45256 0.0
C43 C 0.77098 0.18391 0.31861 0.0
C44 C 0.80552 0.20577 0.30333 0.0
C45 C 0.7504 0.17449 0.24134 0.0
C46 C 0.81247 0.21178 0.25724 0.0
C47 C 0.74353 0.16841 0.28736 0.0
C48 C 0.78497 0.19619 0.22561 0.0
C49 C 0.76303 0.17749 0.36691 0.0
O50 O 0.7806 0.21921 0.55665 0.0
O51 O 0.75118 0.20637 0.48886 0.0
C52 C 0.75174 0.20802 0.53307 0.0
O53 O 0.78503 0.16703 0.49207 0.0
O54 O 0.84333 0.29036 0.58805 0.0
O55 O 0.87799 0.26853 0.58434 0.0
O56 O 0.83124 0.19979 0.54035 0.0
C57 C 0.80656 0.16951 0.52421 0.0
O58 O 0.84953 0.22136 0.43768 0.0
O59 O 0.8753 0.27256 0.47807 0.0
O60 O 0.8181 0.28636 0.49651 0.0
O61 O 0.78315 0.16945 0.39044 0.0
O62 O 0.75647 0.19976 0.38772 0.0
O63 O 0.81834 0.26559 0.42616 0.0
C64 C 0.86159 0.27772 0.65659 0.0
C65 C 0.82804 0.25298 0.6725 0.0
C66 C 0.88378 0.28673 0.73312 0.0
C67 C 0.82231 0.24549 0.71844 0.0
C68 C 0.88943 0.29434 0.68714 0.0
C69 C 0.85008 0.26236 0.74943 0.0
C70 C 0.86755 0.28651 0.60838 0.0
C71 C 0.87672 0.25229 0.44675 0.0
H72 H 0.82709 0.21812 0.32702 0.0
H73 H 0.7285 0.16256 0.21814 0.0
H74 H 0.83944 0.22831 0.2464 0.0
H75 H 0.71668 0.15171 0.29858 0.0
H76 H 0.80615 0.23973 0.64945 0.0
H77 H 0.9059 0.2998 0.75583 0.0
H78 H 0.79595 0.22698 0.72971 0.0
H79 H 0.91555 0.31332 0.67546 0.0
Eu80 Eu 0.57177 0.77916 0.77204 0.0
Eu81 Eu 0.58676 0.74329 0.68106 0.0
C82 C 0.53605 0.697 0.75994 0.0
C83 C 0.55762 0.79271 0.89484 0.0
C84 C 0.56768 0.76844 0.90885 0.0
C85 C 0.54995 0.80354 0.97299 0.0
C86 C 0.56904 0.76189 0.95469 0.0
C87 C 0.54854 0.81 0.92717 0.0
C88 C 0.56053 0.77965 0.98746 0.0
C89 C 0.55678 0.80034 0.84675 0.0
O90 O 0.56403 0.77586 0.65632 0.0
O91 O 0.53272 0.77415 0.71885 0.0
C92 C 0.53952 0.77998 0.67565 0.0
O93 O 0.6079 0.8254 0.72967 0.0
O94 O 0.56261 0.70521 0.62678 0.0
O95 O 0.6194 0.7364 0.63092 0.0
O96 O 0.631 0.79955 0.6833 0.0
C97 C 0.6317 0.8274 0.70106 0.0
O98 O 0.62152 0.77825 0.78531 0.0
O99 O 0.61496 0.73361 0.73796 0.0
O100 O 0.53761 0.70203 0.71637 0.0
O101 O 0.58723 0.81731 0.82662 0.0
O102 O 0.53344 0.77442 0.82241 0.0
O103 O 0.55465 0.72305 0.7872 0.0
C104 C 0.59323 0.72074 0.55767 0.0
C105 C 0.61697 0.75327 0.53807 0.0
C106 C 0.56802 0.69882 0.48368 0.0
C107 C 0.61629 0.75843 0.4916 0.0
C108 C 0.5689 0.69362 0.52995 0.0
C109 C 0.59171 0.73128 0.4637 0.0
C110 C 0.59242 0.71446 0.60676 0.0
C111 C 0.62965 0.75455 0.77263 0.0
H112 H 0.57478 0.7548 0.88431 0.0
H113 H 0.54258 0.81722 0.99709 0.0
H114 H 0.57763 0.74359 0.96441 0.0
H115 H 0.54049 0.82864 0.91698 0.0
H116 H 0.63597 0.77477 0.55859 0.0
H117 H 0.54823 0.67747 0.46375 0.0
H118 H 0.63526 0.78365 0.47755 0.0
H119 H 0.55017 0.66836 0.54424 0.0
Eu120 Eu 0.76494 0.57607 0.11998 0.0
Eu121 Eu 0.73239 0.59375 0.21141 0.0
C122 C 0.68418 0.54635 0.13082 0.0
C123 C 0.77816 0.55946 0.99635 0.0
C124 C 0.74459 0.54971 0.9795 0.0
C125 C 0.80061 0.56961 0.91973 0.0
C126 C 0.73917 0.55018 0.93315 0.0
C127 C 0.806 0.56912 0.96605 0.0
C128 C 0.76722 0.56057 0.9027 0.0
C129 C 0.78465 0.55951 0.04514 0.0
O130 O 0.75512 0.56105 0.235 0.0
O131 O 0.75034 0.5316 0.16936 0.0
C132 C 0.75417 0.53464 0.21328 0.0
O133 O 0.80987 0.59991 0.16832 0.0
O134 O 0.69337 0.57381 0.26528 0.0
O135 O 0.73125 0.62943 0.26184 0.0
O136 O 0.7912 0.63124 0.21126 0.0
C137 C 0.81608 0.62517 0.19689 0.0
O138 O 0.77403 0.63111 0.11249 0.0
O139 O 0.72813 0.62594 0.15549 0.0
O140 O 0.68851 0.54733 0.17455 0.0
O141 O 0.80256 0.59016 0.06456 0.0
O142 O 0.75828 0.53711 0.06975 0.0
O143 O 0.7108 0.56571 0.10462 0.0
C144 C 0.71344 0.60359 0.33415 0.0
C145 C 0.74529 0.60717 0.34966 0.0
C146 C 0.69224 0.59509 0.41124 0.0
C147 C 0.75061 0.60482 0.3957 0.0
C148 C 0.68705 0.59762 0.36526 0.0
C149 C 0.72407 0.59855 0.42719 0.0
C150 C 0.70665 0.60407 0.28564 0.0
C151 C 0.75204 0.64189 0.12405 0.0
H152 H 0.72258 0.54201 1.00213 0.0
H153 H 0.82287 0.57806 0.89735 0.0
H154 H 0.71302 0.54262 0.92119 0.0
H155 H 0.83208 0.57663 0.97828 0.0
H156 H 0.76594 0.6115 0.32614 0.0
H157 H 0.67093 0.58963 0.43416 0.0
H158 H 0.77562 0.60809 0.40659 0.0
H159 H 0.66213 0.59438 0.35391 0.0
Eu160 Eu 0.21235 0.7895 0.43261 0.0
Eu161 Eu 0.25164 0.8384 0.34247 0.0
C162 C 0.29506 0.83142 0.4242 0.0
C163 C 0.19347 0.76634 0.55698 0.0
C164 C 0.22227 0.76731 0.57919 0.0
C165 C 0.17743 0.78361 0.62705 0.0
C166 C 0.22853 0.77629 0.62474 0.0
C167 C 0.17108 0.77448 0.58154 0.0
C168 C 0.20622 0.78458 0.64929 0.0
C169 C 0.18655 0.75677 0.50862 0.0
O170 O 0.22319 0.78243 0.31925 0.0
O171 O 0.22264 0.75518 0.38539 0.0
C172 C 0.2199 0.7551 0.34135 0.0
O173 O 0.16967 0.77325 0.38144 0.0
O174 O 0.29026 0.85218 0.28889 0.0
O175 O 0.25952 0.87835 0.29254 0.0
O176 O 0.19465 0.82487 0.3409 0.0
C177 C 0.16725 0.79467 0.3527 0.0
O178 O 0.2118 0.84031 0.43768 0.0
O179 O 0.26259 0.87612 0.3996 0.0
O180 O 0.2917 0.83006 0.38027 0.0
O181 O 0.17232 0.77168 0.4853 0.0
O182 O 0.21107 0.75483 0.48606 0.0
O183 O 0.26869 0.82561 0.45023 0.0
C184 C 0.27453 0.86686 0.21944 0.0
C185 C 0.24533 0.86622 0.19893 0.0
C186 C 0.29197 0.85537 0.14646 0.0
C187 C 0.23959 0.86027 0.15262 0.0
C188 C 0.29779 0.86148 0.19262 0.0
C189 C 0.26285 0.85479 0.12574 0.0
C190 C 0.28119 0.87276 0.26846 0.0
C191 C 0.23926 0.87142 0.43054 0.0
H192 H 0.24001 0.76103 0.5615 0.0
H193 H 0.15991 0.7902 0.64471 0.0
H194 H 0.25067 0.7763 0.64085 0.0
H195 H 0.14861 0.77388 0.56552 0.0
H196 H 0.22689 0.87031 0.21856 0.0
H197 H 0.31013 0.85067 0.1271 0.0
H198 H 0.21713 0.86045 0.1378 0.0
H199 H 0.3205 0.86179 0.20747 0.0
Eu200 Eu 0.42855 0.21329 0.7748 0.0
Eu201 Eu 0.41205 0.16296 0.86594 0.0
C202 C 0.47304 0.17691 0.79861 0.0
C203 C 0.43781 0.23977 0.65144 0.0
C204 C 0.42972 0.206 0.63746 0.0
C205 C 0.43831 0.2563 0.5733 0.0
C206 C 0.42602 0.19745 0.5917 0.0
C207 C 0.44195 0.2648 0.6191 0.0
C208 C 0.43047 0.22256 0.55903 0.0
C209 C 0.44164 0.24894 0.69957 0.0
O210 O 0.456 0.21752 0.88256 0.0
O211 O 0.44459 0.25077 0.83298 0.0
C212 C 0.45883 0.24763 0.87027 0.0
O213 O 0.37373 0.19705 0.79774 0.0
O214 O 0.43224 0.14394 0.91958 0.0
O215 O 0.37685 0.12779 0.91789 0.0
O216 O 0.38111 0.19097 0.87268 0.0
C217 C 0.36421 0.19602 0.83975 0.0
O218 O 0.4035 0.15787 0.74999 0.0
O219 O 0.37383 0.12709 0.81336 0.0
O220 O 0.44568 0.15172 0.81928 0.0
O221 O 0.41252 0.23727 0.72224 0.0
O222 O 0.46505 0.24491 0.72159 0.0
O223 O 0.47543 0.20752 0.79164 0.0
C224 C 0.40341 0.13522 0.98929 0.0
C225 C 0.40803 0.1675 1.00473 0.0
C226 C 0.40246 0.11699 0.0667 0.0
C227 C 0.4098 0.17444 0.05093 0.0
C228 C 0.4006 0.11005 0.02055 0.0
C229 C 0.40716 0.1493 0.08255 0.0
C230 C 0.40222 0.12778 0.9408 0.0
C231 C 0.37872 0.1294 0.76954 0.0
H232 H 0.42635 0.18628 0.66194 0.0
H233 H 0.44216 0.27631 0.54901 0.0
H234 H 0.4193 0.17108 0.58189 0.0
H235 H 0.44815 0.29099 0.62926 0.0
H236 H 0.4105 0.18738 0.98103 0.0
H237 H 0.39987 0.09686 0.09001 0.0
H238 H 0.41385 0.19975 0.06186 0.0
H239 H 0.39704 0.085 0.00926 0.0
H240 H 0.33822 0.19789 0.9225 0.0
H241 H 0.29244 0.21209 0.93994 0.0
H242 H 0.27799 0.22276 0.79855 0.0
H243 H 0.32418 0.20898 0.78066 0.0
H244 H 0.28456 0.27807 0.84612 0.0
H245 H 0.21477 0.15338 0.85618 0.0
H246 H 0.20011 0.09364 0.87945 0.0
H247 H 0.20177 0.12177 0.018 0.0
H248 H 0.21694 0.18185 0.99564 0.0
H249 H 0.1611 0.32487 0.91979 0.0
H250 H 0.17532 0.28414 0.88111 0.0
H251 H 0.21741 0.26859 1.00455 0.0
H252 H 0.20333 0.30897 0.04317 0.0
H253 H 0.1853 0.20799 0.95036 0.0
H254 H 0.27055 0.33405 0.94064 0.0
H255 H 0.2839 0.39425 0.92206 0.0
H256 H 0.25344 0.36341 0.78502 0.0
H257 H 0.23923 0.30273 0.80313 0.0
C258 C 0.32511 0.2029 0.89502 0.0
C259 C 0.33491 0.20235 0.85019 0.0
C260 C 0.29878 0.21081 0.90505 0.0
C261 C 0.28152 0.21803 0.87047 0.0
C262 C 0.29089 0.21709 0.82566 0.0
C263 C 0.31727 0.20918 0.81556 0.0
C264 C 0.25544 0.22886 0.8817 0.0
C265 C 0.26225 0.26228 0.86782 0.0
C266 C 0.22661 0.20845 0.91051 0.0
C267 C 0.21713 0.1722 0.92419 0.0
C268 C 0.21221 0.1469 0.89163 0.0
C269 C 0.20378 0.11296 0.90466 0.0
C270 C 0.20004 0.10392 0.95018 0.0
C271 C 0.20465 0.1288 0.98275 0.0
C272 C 0.2131 0.16279 0.96991 0.0
C273 C 0.17236 0.31187 0.93889 0.0
C274 C 0.18177 0.32048 0.98417 0.0
C275 C 0.18042 0.28864 0.91682 0.0
C276 C 0.19774 0.27376 0.93997 0.0
C277 C 0.20401 0.2798 0.98616 0.0
C278 C 0.19629 0.30315 0.00804 0.0
C279 C 0.21501 0.25724 0.91554 0.0
C280 C 0.2068 0.22303 0.92722 0.0
C281 C 0.24271 0.27693 0.88497 0.0
C282 C 0.25345 0.31383 0.87332 0.0
C283 C 0.2666 0.34011 0.90658 0.0
C284 C 0.27412 0.37424 0.89621 0.0
C285 C 0.26915 0.38257 0.85248 0.0
C286 C 0.25703 0.35684 0.81894 0.0
C287 C 0.24923 0.32257 0.82924 0.0
H288 H 0.27507 0.40904 0.84447 0.0
H289 H 0.19354 0.07764 0.9602 0.0
H290 H 0.08547 0.30876 0.12299 0.0
H291 H 0.04256 0.28995 0.18413 0.0
H292 H 0.04003 0.38668 0.17257 0.0
H293 H 0.08261 0.40545 0.11064 0.0
H294 H 0.05626 0.369 0.26167 0.0
H295 H 0.9692 0.31898 0.14349 0.0
H296 H 0.94566 0.28424 0.07406 0.0
H297 H 0.93592 0.19301 0.14086 0.0
H298 H 0.95945 0.22722 0.21065 0.0
H299 H 0.91996 0.32083 0.42423 0.0
H300 H 0.9619 0.34307 0.36215 0.0
H301 H 0.94358 0.23821 0.33759 0.0
H302 H 0.90023 0.21564 0.39822 0.0
H303 H 0.9374 0.26311 0.26398 0.0
H304 H 0.023 0.3095 0.38153 0.0
H305 H 0.05409 0.34314 0.44907 0.0
H306 H 0.07405 0.43906 0.38485 0.0
H307 H 0.04201 0.40586 0.31749 0.0
C308 C 0.0751 0.3256 0.13279 0.0
C309 C 0.08706 0.35839 0.11209 0.0
C310 C 0.05071 0.31489 0.16764 0.0
C311 C 0.03831 0.33701 0.18261 0.0
C312 C 0.04934 0.36932 0.16115 0.0
C313 C 0.07332 0.3798 0.12565 0.0
C314 C 0.01573 0.32713 0.22274 0.0
C315 C 0.02993 0.3463 0.26233 0.0
C316 C 0.98216 0.29677 0.22334 0.0
C317 C 0.96631 0.27572 0.18215 0.0
C318 C 0.96204 0.29151 0.14333 0.0
C319 C 0.94869 0.27192 0.10394 0.0
C320 C 0.93952 0.23651 0.10299 0.0
C321 C 0.9431 0.22046 0.14163 0.0
C322 C 0.95631 0.2399 0.18116 0.0
C323 C 0.92556 0.30269 0.40626 0.0
C324 C 0.90689 0.26652 0.41585 0.0
C325 C 0.9496 0.31545 0.3708 0.0
C326 C 0.95602 0.29235 0.34518 0.0
C327 C 0.93886 0.2565 0.35663 0.0
C328 C 0.91427 0.24364 0.39139 0.0
C329 C 0.9779 0.30476 0.30398 0.0
C330 C 0.96356 0.28605 0.26387 0.0
C331 C 0.01171 0.33528 0.30324 0.0
C332 C 0.0297 0.35508 0.34457 0.0
C333 C 0.03352 0.33769 0.38204 0.0
C334 C 0.0514 0.35671 0.42029 0.0
C335 C 0.06602 0.39322 0.42125 0.0
C336 C 0.06262 0.41077 0.38411 0.0
C337 C 0.04451 0.39184 0.34594 0.0
H338 H 0.08012 0.40798 0.45067 0.0
H339 H 0.92965 0.22152 0.07229 0.0
H340 H 0.80973 0.15473 0.61254 0.0
H341 H 0.7898 0.09636 0.64489 0.0
H342 H 0.77233 0.05215 0.51134 0.0
H343 H 0.79051 0.10996 0.47931 0.0
H344 H 0.71676 0.01673 0.55759 0.0
H345 H 0.83874 0.05784 0.58435 0.0
H346 H 0.89866 0.09826 0.61198 0.0
H347 H 0.85983 0.08407 0.74731 0.0
H348 H 0.79957 0.04391 0.72043 0.0
H349 H 0.66946 0.84496 0.6232 0.0
H350 H 0.71055 0.90431 0.5961 0.0
H351 H 0.69825 0.94807 0.71996 0.0
H352 H 0.6567 0.88889 0.74713 0.0
H353 H 0.77127 0.98227 0.67888 0.0
H354 H 0.64827 0.94351 0.64817 0.0
H355 H 0.58989 0.8996 0.61946 0.0
H356 H 0.63323 0.90893 0.48745 0.0
H357 H 0.69223 0.95187 0.5158 0.0
C358 C 0.8024 0.1326 0.59027 0.0
C359 C 0.80137 0.13653 0.54361 0.0
C360 C 0.79111 0.09931 0.60869 0.0
C361 C 0.77959 0.06984 0.58051 0.0
C362 C 0.78082 0.07442 0.53373 0.0
C363 C 0.79129 0.1074 0.51547 0.0
C364 C 0.76273 0.0338 0.5994 0.0
C365 C 0.72912 0.00918 0.58351 0.0
C366 C 0.77836 0.02402 0.634 0.0
C367 C 0.81458 0.0481 0.65031 0.0
C368 C 0.84293 0.06355 0.61997 0.0
C369 C 0.87696 0.08637 0.6355 0.0
C370 C 0.88303 0.09379 0.68136 0.0
C371 C 0.85508 0.07832 0.71179 0.0
C372 C 0.82099 0.05549 0.69643 0.0
C373 C 0.67603 0.86717 0.645 0.0
C374 C 0.65955 0.86248 0.68694 0.0
C375 C 0.69957 0.90094 0.62957 0.0
C376 C 0.70721 0.9303 0.65614 0.0
C377 C 0.6927 0.92558 0.69924 0.0
C378 C 0.66872 0.89187 0.71441 0.0
C379 C 0.72599 0.96578 0.63648 0.0
C380 C 0.75949 0.99011 0.65253 0.0
C381 C 0.71052 0.97535 0.6017 0.0
C382 C 0.67477 0.9506 0.58424 0.0
C383 C 0.64544 0.93598 0.61311 0.0
C384 C 0.61222 0.91128 0.5969 0.0
C385 C 0.60783 0.90154 0.55165 0.0
C386 C 0.63668 0.91649 0.52251 0.0
C387 C 0.67004 0.94093 0.53866 0.0
H388 H 0.58208 0.88243 0.53918 0.0
H389 H 0.9094 0.11147 0.69331 0.0
H390 H 0.60656 0.72108 0.85076 0.0
H391 H 0.64185 0.71789 0.91202 0.0
H392 H 0.73507 0.77144 0.82963 0.0
H393 H 0.69917 0.77413 0.76758 0.0
H394 H 0.73253 0.71708 0.87577 0.0
H395 H 0.71916 0.81479 0.90972 0.0
H396 H 0.6893 0.84906 0.92168 0.0
H397 H 0.633 0.78332 0.0338 0.0
H398 H 0.6609 0.74749 0.02116 0.0
H399 H 0.80508 0.69168 0.07253 0.0
H400 H 0.8 0.72937 0.01591 0.0
H401 H 0.69219 0.69076 0.05561 0.0
H402 H 0.69755 0.6543 0.11327 0.0
H403 H 0.72069 0.75666 0.02774 0.0
H404 H 0.71836 0.64966 0.97498 0.0
H405 H 0.74604 0.61334 0.9655 0.0
H406 H 0.8297 0.69561 0.88898 0.0
H407 H 0.80299 0.7331 0.89955 0.0
C408 C 0.63446 0.73141 0.84551 0.0
C409 C 0.65031 0.74727 0.80467 0.0
C410 C 0.65466 0.73012 0.88062 0.0
C411 C 0.69118 0.74529 0.87569 0.0
C412 C 0.70695 0.75996 0.83412 0.0
C413 C 0.68655 0.76116 0.79872 0.0
C414 C 0.71223 0.74469 0.91405 0.0
C415 C 0.73075 0.72659 0.90879 0.0
C416 C 0.70972 0.75706 0.95713 0.0
C417 C 0.69217 0.77826 0.9643 0.0
C418 C 0.7 0.80725 0.93651 0.0
C419 C 0.6833 0.82694 0.94335 0.0
C420 C 0.6591 0.81829 0.97834 0.0
C421 C 0.6515 0.78988 1.00648 0.0
C422 C 0.66769 0.76978 0.99939 0.0
C423 C 0.78059 0.69196 0.06988 0.0
C424 C 0.75145 0.66956 0.09662 0.0
C425 C 0.77775 0.7135 0.03756 0.0
C426 C 0.74545 0.71214 0.03073 0.0
C427 C 0.71735 0.69212 0.06011 0.0
C428 C 0.72038 0.67113 0.09299 0.0
C429 C 0.73881 0.72712 0.98974 0.0
C430 C 0.72328 0.74816 0.99443 0.0
C431 C 0.74359 0.71715 0.94615 0.0
C432 C 0.75901 0.69431 0.93864 0.0
C433 C 0.74275 0.66006 0.95632 0.0
C434 C 0.75831 0.63927 0.95076 0.0
C435 C 0.78968 0.65209 0.92661 0.0
C436 C 0.80547 0.68575 0.90782 0.0
C437 C 0.79022 0.70685 0.91374 0.0
H438 H 0.80181 0.63606 0.92249 0.0
H439 H 0.64629 0.83363 0.98371 0.0
H440 H 0.14142 0.83644 0.32338 0.0
H441 H 0.08278 0.81684 0.29135 0.0
H442 H 0.05824 0.7089 0.30213 0.0
H443 H 0.11602 0.72805 0.33512 0.0
H444 H 0.0434 0.73501 0.21329 0.0
H445 H 0.02707 0.72931 0.37794 0.0
H446 H 0.04024 0.75698 0.4529 0.0
H447 H 0.01074 0.83159 0.40742 0.0
H448 H -0.00211 0.8046 0.33194 0.0
H449 H 0.86784 0.60853 0.20093 0.0
H450 H 0.92901 0.64668 0.22228 0.0
H451 H 0.90828 0.73163 0.24711 0.0
H452 H 0.84633 0.69287 0.2273 0.0
H453 H 0.9491 0.73102 0.30972 0.0
H454 H 0.95301 0.73049 0.15123 0.0
H455 H 0.94051 0.70595 0.07456 0.0
H456 H 0.99488 0.64944 0.1027 0.0
H457 H 0.00726 0.67321 0.17978 0.0
C458 C 0.12346 0.80857 0.31871 0.0
C459 C 0.13294 0.78367 0.33196 0.0
C460 C 0.09016 0.7975 0.30051 0.0
C461 C 0.06651 0.76153 0.29453 0.0
C462 C 0.07634 0.73677 0.30656 0.0
C463 C 0.10916 0.74772 0.32561 0.0
C464 C 0.03084 0.749 0.2771 0.0
C465 C 0.02265 0.73411 0.23412 0.0
C466 C 0.00443 0.74927 0.30388 0.0
C467 C 0.01201 0.76529 0.34922 0.0
C468 C 0.02376 0.75184 0.38382 0.0
C469 C 0.03108 0.76734 0.42641 0.0
C470 C 0.02646 0.79611 0.43488 0.0
C471 C 0.0144 0.80936 0.40079 0.0
C472 C 0.00709 0.79398 0.35811 0.0
C473 C 0.87629 0.63533 0.21095 0.0
C474 C 0.85249 0.64789 0.21213 0.0
C475 C 0.91131 0.6572 0.22284 0.0
C476 C 0.92345 0.69233 0.23502 0.0
C477 C 0.89952 0.70471 0.23738 0.0
C478 C 0.8642 0.68257 0.22618 0.0
C479 C 0.96103 0.71551 0.24624 0.0
C480 C 0.96973 0.73256 0.28808 0.0
C481 C 0.98808 0.71782 0.21792 0.0
C482 C 0.98093 0.70355 0.17143 0.0
C483 C 0.96213 0.71267 0.14118 0.0
C484 C 0.95508 0.6989 0.09762 0.0
C485 C 0.96686 0.67612 0.08379 0.0
C486 C 0.98578 0.6671 0.11346 0.0
C487 C 0.99287 0.68077 0.15708 0.0
H488 H 0.96137 0.66549 0.05005 0.0
H489 H 0.03213 0.80806 0.46788 0.0
H490 H 0.36919 0.13093 0.67976 0.0
H491 H 0.33442 0.08175 0.63002 0.0
H492 H 0.30187 0.01032 0.74268 0.0
H493 H 0.33715 0.05995 0.79335 0.0
H494 H 0.32597 0.98835 0.6706 0.0
H495 H 0.24181 0.02367 0.696 0.0
H496 H 0.21916 0.0647 0.70431 0.0
H497 H 0.24468 0.09639 0.56648 0.0
H498 H 0.26798 0.05593 0.55749 0.0
H499 H 0.19286 0.87552 0.48761 0.0
H500 H 0.2071 0.91509 0.5519 0.0
H501 H 0.31651 0.96871 0.51352 0.0
H502 H 0.30256 0.9294 0.44903 0.0
H503 H 0.24081 0.98876 0.56101 0.0
H504 H 0.36266 0.97671 0.61074 0.0
H505 H 0.3824 0.9331 0.60554 0.0
H506 H 0.27507 0.84949 0.59947 0.0
H507 H 0.25462 0.89241 0.60565 0.0
C508 C 0.35464 0.10483 0.69419 0.0
C509 C 0.3561 0.09926 0.74048 0.0
C510 C 0.33449 0.07678 0.6657 0.0
C511 C 0.31531 0.04253 0.6828 0.0
C512 C 0.31639 0.03669 0.72903 0.0
C513 C 0.33644 0.06498 0.75784 0.0
C514 C 0.29611 0.01306 0.65123 0.0
C515 C 0.30702 0.98812 0.64698 0.0
C516 C 0.27088 0.01246 0.62108 0.0
C517 C 0.25678 0.03682 0.62614 0.0
C518 C 0.24282 0.03955 0.66753 0.0
C519 C 0.22982 0.06269 0.67235 0.0
C520 C 0.2305 0.08316 0.63596 0.0
C521 C 0.24414 0.0805 0.59464 0.0
C522 C 0.2572 0.05741 0.58964 0.0
C523 C 0.21986 0.8962 0.49236 0.0
C524 C 0.24666 0.89931 0.46346 0.0
C525 C 0.22789 0.9187 0.52907 0.0
C526 C 0.26286 0.94425 0.53769 0.0
C527 C 0.28939 0.94873 0.50755 0.0
C528 C 0.28135 0.9265 0.47055 0.0
C529 C 0.27206 0.96535 0.57919 0.0
C530 C 0.25925 0.98862 0.58518 0.0
C531 C 0.29505 0.96399 0.61141 0.0
C532 C 0.30713 0.93788 0.6083 0.0
C533 C 0.34325 0.949 0.60857 0.0
C534 C 0.35457 0.92438 0.60546 0.0
C535 C 0.32999 0.88855 0.6022 0.0
C536 C 0.29405 0.87724 0.60202 0.0
C537 C 0.28259 0.90171 0.60527 0.0
H538 H 0.33878 0.86954 0.59996 0.0
H539 H 0.22043 0.10106 0.63977 0.0
H540 H 0.12168 0.43673 0.7128 0.0
H541 H 0.12793 0.43311 0.63171 0.0
H542 H 0.17307 0.36666 0.65317 0.0
H543 H 0.16632 0.36955 0.73437 0.0
H544 H 0.21147 0.41912 0.59407 0.0
H545 H 0.08937 0.33178 0.61305 0.0
H546 H 0.02802 0.3088 0.63762 0.0
H547 H 0.02115 0.38643 0.55714 0.0
H548 H 0.08271 0.41033 0.53288 0.0
H549 H 0.20775 0.36052 0.37309 0.0
H550 H 0.19599 0.36244 0.45282 0.0
H551 H 0.15097 0.42803 0.42377 0.0
H552 H 0.16307 0.42663 0.34362 0.0
H553 H 0.11243 0.37794 0.48631 0.0
H554 H 0.23336 0.46424 0.46516 0.0
H555 H 0.29443 0.4872 0.43955 0.0
H556 H 0.30381 0.41298 0.52416 0.0
H557 H 0.24258 0.38921 0.54979 0.0
C558 C 0.13241 0.42085 0.70037 0.0
C559 C 0.14342 0.40337 0.73033 0.0
C560 C 0.13605 0.41889 0.65389 0.0
C561 C 0.15072 0.39939 0.63627 0.0
C562 C 0.16174 0.38192 0.66599 0.0
C563 C 0.158 0.38375 0.71247 0.0
C564 C 0.15566 0.39814 0.58697 0.0
C565 C 0.18971 0.40967 0.57057 0.0
C566 C 0.12749 0.38688 0.55611 0.0
C567 C 0.09068 0.37292 0.57127 0.0
C568 C 0.07487 0.34413 0.6009 0.0
C569 C 0.04005 0.33093 0.61476 0.0
C570 C 0.0207 0.34616 0.59898 0.0
C571 C 0.03615 0.37464 0.56933 0.0
C572 C 0.07099 0.388 0.55548 0.0
C573 C 0.19561 0.37563 0.38355 0.0
C574 C 0.1869 0.39387 0.35184 0.0
C575 C 0.18878 0.37659 0.42923 0.0
C576 C 0.17321 0.39592 0.44445 0.0
C577 C 0.16319 0.41308 0.41284 0.0
C578 C 0.17005 0.41216 0.36699 0.0
C579 C 0.16812 0.39862 0.49345 0.0
C580 C 0.13414 0.38749 0.50979 0.0
C581 C 0.19638 0.41042 0.52429 0.0
C582 C 0.23326 0.42473 0.50908 0.0
C583 C 0.24835 0.45263 0.47804 0.0
C584 C 0.28301 0.46582 0.46356 0.0
C585 C 0.30296 0.4515 0.48014 0.0
C586 C 0.28831 0.42401 0.51131 0.0
C587 C 0.25363 0.41069 0.52585 0.0
H588 H 0.3298 0.46176 0.46889 0.0
H589 H 0.99373 0.33586 0.6097 0.0
H590 H 0.75466 0.14912 0.15643 0.0
H591 H 0.76525 0.16002 0.07589 0.0
H592 H 0.84283 0.26811 0.10261 0.0
H593 H 0.83139 0.25782 0.18323 0.0
H594 H 0.7996 0.26291 0.03438 0.0
H595 H 0.86432 0.20582 0.07739 0.0
H596 H 0.87199 0.15836 0.10986 0.0
H597 H 0.80062 0.08576 0.01237 0.0
H598 H 0.79185 0.13256 0.97995 0.0
H599 H 0.87818 0.30895 0.81952 0.0
H600 H 0.86747 0.29688 0.89978 0.0
H601 H 0.79573 0.18742 0.87118 0.0
H602 H 0.80782 0.19896 0.79089 0.0
H603 H 0.83511 0.19251 0.9403 0.0
H604 H 0.76627 0.24482 0.89998 0.0
H605 H 0.75427 0.28937 0.86714 0.0
H606 H 0.82804 0.36711 0.95818 0.0
H607 H 0.84086 0.32312 0.99117 0.0
C608 C 0.77374 0.17533 0.14525 0.0
C609 C 0.79214 0.20259 0.17648 0.0
C610 C 0.78001 0.18142 0.09913 0.0
C611 C 0.80508 0.2148 0.08316 0.0
C612 C 0.82341 0.24212 0.11414 0.0
C613 C 0.81708 0.23608 0.16029 0.0
C614 C 0.81212 0.2213 0.03416 0.0
C615 C 0.80785 0.24784 0.01393 0.0
C616 C 0.82172 0.20082 1.00714 0.0
C617 C 0.82725 0.17271 0.02642 0.0
C618 C 0.85009 0.1797 0.06304 0.0
C619 C 0.85464 0.15291 0.08144 0.0
C620 C 0.83683 0.11909 0.06318 0.0
C621 C 0.81441 0.11198 0.02649 0.0
C622 C 0.80962 0.13863 0.0081 0.0
C623 C 0.86047 0.2822 0.83023 0.0
C624 C 0.84375 0.25496 0.79855 0.0
C625 C 0.85402 0.2754 0.87622 0.0
C626 C 0.83033 0.24133 0.89163 0.0
C627 C 0.81397 0.21397 0.86018 0.0
C628 C 0.82062 0.2207 0.81418 0.0
C629 C 0.82273 0.23423 0.94053 0.0
C630 C 0.82687 0.20759 0.96074 0.0
C631 C 0.81245 0.25421 0.96745 0.0
C632 C 0.80478 0.28074 0.94775 0.0
C633 C 0.78014 0.27148 0.91277 0.0
C634 C 0.77315 0.29662 0.89416 0.0
C635 C 0.79045 0.33107 0.91049 0.0
C636 C 0.8147 0.34043 0.94553 0.0
C637 C 0.82182 0.31539 0.96422 0.0
H638 H 0.78499 0.3505 0.89605 0.0
H639 H 0.84043 0.0984 0.07745 0.0
H640 H 0.57722 0.6837 0.3953 0.0
H641 H 0.57208 0.69161 0.31516 0.0
H642 H 0.59969 0.79941 0.33855 0.0
H643 H 0.60276 0.79108 0.41924 0.0
H644 H 0.54803 0.77174 0.2821 0.0
H645 H 0.65826 0.77415 0.2916 0.0
H646 H 0.69867 0.75258 0.31197 0.0
H647 H 0.63855 0.66013 0.23177 0.0
H648 H 0.59746 0.6809 0.21142 0.0
H649 H 0.5848 0.82887 0.05483 0.0
H650 H 0.59006 0.82005 0.13485 0.0
H651 H 0.54997 0.70951 0.11152 0.0
H652 H 0.54393 0.71794 0.03133 0.0
H653 H 0.6078 0.73814 0.16713 0.0
H654 H 0.49783 0.73669 0.15786 0.0
H655 H 0.45854 0.75946 0.13683 0.0
H656 H 0.52016 0.85196 0.21636 0.0
H657 H 0.56015 0.82996 0.23736 0.0
C658 C 0.58189 0.70905 0.38364 0.0
C659 C 0.59037 0.73671 0.41417 0.0
C660 C 0.57942 0.71369 0.33749 0.0
C661 C 0.58601 0.74629 0.32039 0.0
C662 C 0.59461 0.77401 0.35069 0.0
C663 C 0.59675 0.7693 0.39695 0.0
C664 C 0.58298 0.75122 0.27119 0.0
C665 C 0.56158 0.76487 0.2571 0.0
C666 C 0.59988 0.74149 0.23816 0.0
C667 C 0.62456 0.72893 0.25036 0.0
C668 C 0.65348 0.74908 0.27859 0.0
C669 C 0.67654 0.73702 0.29009 0.0
C670 C 0.67112 0.70495 0.27328 0.0
C671 C 0.64268 0.68493 0.24483 0.0
C672 C 0.61951 0.69685 0.23328 0.0
C673 C 0.57652 0.80253 0.06668 0.0
C674 C 0.56353 0.77406 0.03647 0.0
C675 C 0.57975 0.79758 0.11252 0.0
C676 C 0.57008 0.76405 0.12938 0.0
C677 C 0.55761 0.73563 0.09933 0.0
C678 C 0.55421 0.74053 0.05343 0.0
C679 C 0.57305 0.75876 0.17835 0.0
C680 C 0.59436 0.74502 0.1923 0.0
C681 C 0.55627 0.7686 0.21127 0.0
C682 C 0.53218 0.78182 0.19883 0.0
C683 C 0.50317 0.76202 0.17057 0.0
C684 C 0.48075 0.77476 0.15871 0.0
C685 C 0.4869 0.80718 0.17516 0.0
C686 C 0.51545 0.82688 0.2036 0.0
C687 C 0.53799 0.81427 0.21552 0.0
H688 H 0.46951 0.817 0.16594 0.0
H689 H 0.68901 0.69566 0.28221 0.0
H690 H 0.72965 0.5874 0.86192 0.0
H691 H 0.72231 0.59313 0.78146 0.0
H692 H 0.78616 0.54627 0.7517 0.0
H693 H 0.79366 0.54052 0.83221 0.0
H694 H 0.80469 0.60175 0.69921 0.0
H695 H 0.69605 0.49993 0.73956 0.0
H696 H 0.64161 0.46532 0.78328 0.0
H697 H 0.60553 0.53619 0.74416 0.0
H698 H 0.66002 0.57156 0.70071 0.0
H699 H 0.75824 0.56737 0.46715 0.0
H700 H 0.76606 0.56129 0.54734 0.0
H701 H 0.70867 0.61461 0.57905 0.0
H702 H 0.70143 0.62163 0.49895 0.0
H703 H 0.6868 0.55511 0.63007 0.0
H704 H 0.7965 0.65691 0.58968 0.0
H705 H 0.85094 0.69043 0.54556 0.0
H706 H 0.88472 0.61764 0.58418 0.0
H707 H 0.83022 0.58337 0.62804 0.0
C708 C 0.74176 0.57788 0.83827 0.0
C709 C 0.76205 0.56326 0.85359 0.0
C710 C 0.73761 0.58125 0.7922 0.0
C711 C 0.75334 0.56977 0.76032 0.0
C712 C 0.77378 0.55537 0.77553 0.0
C713 C 0.77807 0.55211 0.82162 0.0
C714 C 0.7488 0.57315 0.71118 0.0
C715 C 0.77887 0.59109 0.68404 0.0
C716 C 0.71517 0.55987 0.6913 0.0
C717 C 0.68229 0.53859 0.71724 0.0
C718 C 0.67664 0.5083 0.74056 0.0
C719 C 0.64575 0.48852 0.76525 0.0
C720 C 0.62017 0.4986 0.76659 0.0
C721 C 0.62539 0.52844 0.74315 0.0
C722 C 0.65626 0.54835 0.71845 0.0
C723 C 0.74769 0.57831 0.49105 0.0
C724 C 0.72925 0.5951 0.47626 0.0
C725 C 0.75206 0.57464 0.537 0.0
C726 C 0.73812 0.58765 0.56932 0.0
C727 C 0.71954 0.60422 0.55479 0.0
C728 C 0.71532 0.60808 0.50886 0.0
C729 C 0.74266 0.58377 0.61825 0.0
C730 C 0.71258 0.56572 0.64531 0.0
C731 C 0.77627 0.59675 0.638 0.0
C732 C 0.80911 0.61737 0.61177 0.0
C733 C 0.8154 0.64788 0.58846 0.0
C734 C 0.84629 0.66705 0.56355 0.0
C735 C 0.87123 0.65612 0.56196 0.0
C736 C 0.86536 0.62604 0.58538 0.0
C737 C 0.83449 0.60675 0.6103 0.0
H738 H 0.89513 0.671 0.54267 0.0
H739 H 0.59627 0.48325 0.78572 0.0
H740 H 0.15751 0.76421 0.71707 0.0
H741 H 0.16791 0.7782 0.79702 0.0
H742 H 0.27958 0.83868 0.7725 0.0
H743 H 0.26938 0.82519 0.69219 0.0
H744 H 0.26482 0.79585 0.84501 0.0
H745 H 0.23362 0.8799 0.79351 0.0
H746 H 0.19737 0.90033 0.75484 0.0
H747 H 0.1109 0.83752 0.84314 0.0
H748 H 0.1465 0.81633 0.88198 0.0
H749 H 0.31215 0.87982 0.0583 0.0
H750 H 0.30271 0.8687 0.97767 0.0
H751 H 0.19098 0.80546 0.99999 0.0
H752 H 0.20021 0.8159 0.08094 0.0
H753 H 0.20658 0.85073 0.92842 0.0
H754 H 0.23844 0.76657 0.97964 0.0
H755 H 0.27556 0.74731 0.01857 0.0
H756 H 0.36175 0.81152 0.93064 0.0
H757 H 0.32531 0.83159 0.89158 0.0
C758 C 0.18428 0.78088 0.72849 0.0
C759 C 0.21259 0.79361 0.69804 0.0
C760 C 0.19019 0.78878 0.77432 0.0
C761 C 0.22452 0.80972 0.79081 0.0
C762 C 0.25287 0.82239 0.7606 0.0
C763 C 0.24698 0.81455 0.7147 0.0
C764 C 0.23075 0.81791 0.83967 0.0
C765 C 0.25249 0.80832 0.8631 0.0
C766 C 0.2141 0.83351 0.86356 0.0
C767 C 0.19263 0.84626 0.84037 0.0
C768 C 0.20678 0.87022 0.80445 0.0
C769 C 0.18637 0.88198 0.78254 0.0
C770 C 0.15182 0.87016 0.79645 0.0
C771 C 0.13765 0.84662 0.83237 0.0
C772 C 0.15795 0.83475 0.85437 0.0
C773 C 0.28556 0.86322 0.04624 0.0
C774 C 0.25697 0.84861 0.07635 0.0
C775 C 0.28021 0.85702 1.00002 0.0
C776 C 0.24616 0.83599 0.98277 0.0
C777 C 0.21748 0.82184 0.01252 0.0
C778 C 0.22282 0.82794 0.05882 0.0
C779 C 0.24055 0.82858 0.93372 0.0
C780 C 0.21893 0.8383 0.91029 0.0
C781 C 0.25738 0.81318 0.9098 0.0
C782 C 0.27923 0.80085 0.93295 0.0
C783 C 0.26539 0.77679 0.96881 0.0
C784 C 0.28629 0.7657 0.99089 0.0
C785 C 0.32101 0.77826 0.97717 0.0
C786 C 0.33487 0.80185 0.94126 0.0
C787 C 0.31409 0.81308 0.91912 0.0
H788 H 0.33716 0.76965 0.99431 0.0
H789 H 0.13605 0.87929 0.77945 0.0
H790 H 0.39617 0.23813 0.49395 0.0
H791 H 0.39178 0.22442 0.41363 0.0
H792 H 0.45288 0.17319 0.43339 0.0
H793 H 0.45772 0.18719 0.51373 0.0
H794 H 0.47538 0.21721 0.36016 0.0
H795 H 0.36656 0.12457 0.41738 0.0
H796 H 0.31068 0.09865 0.4594 0.0
H797 H 0.274 0.15245 0.37378 0.0
H798 H 0.32991 0.17915 0.33165 0.0
H799 H 0.44199 0.13359 0.14688 0.0
H800 H 0.44522 0.14505 0.22763 0.0
H801 H 0.38162 0.19389 0.21071 0.0
H802 H 0.37752 0.1817 0.12993 0.0
H803 H 0.36026 0.15025 0.28293 0.0
H804 H 0.46981 0.24349 0.22639 0.0
H805 H 0.52596 0.26948 0.18498 0.0
H806 H 0.56142 0.2142 0.26983 0.0
H807 H 0.50525 0.18747 0.31138 0.0
C808 C 0.40878 0.22405 0.48117 0.0
C809 C 0.42725 0.2137 0.51027 0.0
C810 C 0.40603 0.21601 0.4353 0.0
C811 C 0.42178 0.19754 0.41748 0.0
C812 C 0.44044 0.18738 0.44638 0.0
C813 C 0.44296 0.19517 0.49234 0.0
C814 C 0.41914 0.18928 0.3686 0.0
C815 C 0.45022 0.20213 0.34339 0.0
C816 C 0.3863 0.17025 0.34649 0.0
C817 C 0.35259 0.15416 0.37164 0.0
C818 C 0.34671 0.13113 0.40775 0.0
C819 C 0.315 0.11625 0.43155 0.0
C820 C 0.28885 0.12397 0.41934 0.0
C821 C 0.29431 0.14653 0.38323 0.0
C822 C 0.32599 0.16153 0.35936 0.0
C823 C 0.42843 0.14653 0.16032 0.0
C824 C 0.4095 0.15673 0.13179 0.0
C825 C 0.43057 0.15335 0.20651 0.0
C826 C 0.41395 0.17066 0.2253 0.0
C827 C 0.39475 0.18059 0.19702 0.0
C828 C 0.39268 0.17387 0.15076 0.0
C829 C 0.41653 0.17829 0.27441 0.0
C830 C 0.38544 0.16531 0.29968 0.0
C831 C 0.44937 0.19716 0.29662 0.0
C832 C 0.48317 0.21319 0.27169 0.0
C833 C 0.48946 0.23664 0.23598 0.0
C834 C 0.52131 0.25155 0.21252 0.0
C835 C 0.5472 0.24342 0.22468 0.0
C836 C 0.54132 0.22043 0.2604 0.0
C837 C 0.50949 0.20541 0.28394 0.0
H838 H 0.57185 0.25501 0.2065 0.0
H839 H 0.26432 0.11242 0.4378 0.0
H840 H 0.21265 0.49032 0.16093 0.0
H841 H 0.21532 0.53945 0.20207 0.0
H842 H 0.16489 0.56061 0.09148 0.0
H843 H 0.16335 0.51173 0.04901 0.0
H844 H 0.21594 0.62036 0.12684 0.0
H845 H 0.11811 0.51599 0.18568 0.0
H846 H 0.08831 0.45553 0.21586 0.0
H847 H 0.15689 0.49026 0.33044 0.0
H848 H 0.18752 0.55085 0.30062 0.0
H849 H 0.18624 0.73543 0.26117 0.0
H850 H 0.17524 0.68497 0.21521 0.0
H851 H 0.22447 0.65297 0.3159 0.0
H852 H 0.23438 0.70297 0.36305 0.0
H853 H 0.16812 0.5974 0.28217 0.0
H854 H 0.26875 0.70069 0.21907 0.0
H855 H 0.29917 0.76071 0.18744 0.0
H856 H 0.22402 0.72732 0.07993 0.0
H857 H 0.1929 0.66719 0.11122 0.0
C858 C 0.20222 0.50549 0.1452 0.0
C859 C 0.18737 0.49701 0.10201 0.0
C860 C 0.20363 0.53347 0.16886 0.0
C861 C 0.18936 0.55301 0.1504 0.0
C862 C 0.17572 0.54556 0.10649 0.0
C863 C 0.17486 0.51775 0.0823 0.0
C864 C 0.18861 0.5809 0.17759 0.0
C865 C 0.20491 0.61526 0.16048 0.0
C866 C 0.17459 0.57421 0.22175 0.0
C867 C 0.15528 0.538 0.24072 0.0
C868 C 0.12692 0.51075 0.21726 0.0
C869 C 0.10989 0.47644 0.23429 0.0
C870 C 0.12077 0.46907 0.27498 0.0
C871 C 0.14852 0.49603 0.29891 0.0
C872 C 0.16569 0.53038 0.28198 0.0
C873 C 0.19463 0.71757 0.27362 0.0
C874 C 0.2116 0.7233 0.3154 0.0
C875 C 0.18839 0.6888 0.24725 0.0
C876 C 0.1998 0.6657 0.26159 0.0
C877 C 0.21563 0.67063 0.30407 0.0
C878 C 0.22133 0.69916 0.33094 0.0
C879 C 0.19611 0.63699 0.23177 0.0
C880 C 0.17886 0.60244 0.24837 0.0
C881 C 0.2091 0.64349 0.18707 0.0
C882 C 0.22831 0.6795 0.16774 0.0
C883 C 0.25862 0.70619 0.1888 0.0
C884 C 0.276 0.74022 0.17091 0.0
C885 C 0.26349 0.74784 0.13174 0.0
C886 C 0.23367 0.72139 0.11028 0.0
C887 C 0.21618 0.68732 0.12804 0.0
H888 H 0.27694 0.77421 0.11798 0.0
H889 H 0.10773 0.44247 0.28796 0.0
H890 H 0.74544 0.2389 0.60783 0.0
H891 H 0.69343 0.22065 0.65391 0.0
H892 H 0.6328 0.13414 0.56348 0.0
H893 H 0.68505 0.15386 0.51543 0.0
H894 H 0.59415 0.15927 0.58861 0.0
H895 H 0.66062 0.12138 0.67013 0.0
H896 H 0.71278 0.12356 0.70452 0.0
H897 H 0.72447 0.20598 0.79302 0.0
H898 H 0.67263 0.20468 0.75876 0.0
H899 H 0.46396 0.11508 0.76483 0.0
H900 H 0.50703 0.10677 0.72151 0.0
H901 H 0.58512 0.21534 0.74417 0.0
H902 H 0.54214 0.22405 0.78619 0.0
H903 H 0.60731 0.16009 0.75441 0.0
H904 H 0.54548 0.20204 0.65334 0.0
H905 H 0.49133 0.19461 0.61801 0.0
H906 H 0.46763 0.09334 0.56786 0.0
H907 H 0.52161 0.10014 0.60321 0.0
C908 C 0.72098 0.21605 0.59765 0.0
C909 C 0.71919 0.19758 0.55835 0.0
C910 C 0.69132 0.20537 0.62428 0.0
C911 C 0.65943 0.17521 0.61317 0.0
C912 C 0.65724 0.15722 0.57307 0.0
C913 C 0.68695 0.16851 0.54561 0.0
C914 C 0.62853 0.1637 0.6432 0.0
C915 C 0.59683 0.15852 0.62478 0.0
C916 C 0.6316 0.16216 0.69052 0.0
C917 C 0.66269 0.16295 0.71174 0.0
C918 C 0.67438 0.14009 0.69679 0.0
C919 C 0.70389 0.14116 0.71628 0.0
C920 C 0.72187 0.16485 0.75097 0.0
C921 C 0.71042 0.18757 0.76622 0.0
C922 C 0.68092 0.18662 0.74684 0.0
C923 C 0.49055 0.13692 0.76128 0.0
C924 C 0.49986 0.17022 0.77873 0.0
C925 C 0.51497 0.13215 0.73648 0.0
C926 C 0.54909 0.16047 0.72978 0.0
C927 C 0.55889 0.19319 0.74923 0.0
C928 C 0.53436 0.19815 0.77306 0.0
C929 C 0.57413 0.1574 0.69964 0.0
C930 C 0.60458 0.15978 0.71815 0.0
C931 C 0.56954 0.15529 0.65252 0.0
C932 C 0.53727 0.1514 0.63131 0.0
C933 C 0.52854 0.17807 0.6351 0.0
C934 C 0.49792 0.174 0.615 0.0
C935 C 0.47595 0.14343 0.59086 0.0
C936 C 0.48463 0.11695 0.58664 0.0
C937 C 0.51524 0.12092 0.60664 0.0
H938 H 0.45228 0.14026 0.57527 0.0
H939 H 0.74465 0.16556 0.76606 0.0
H940 H 0.25705 0.44567 0.9092 0.0
H941 H 0.31252 0.4812 0.87012 0.0
H942 H 0.3663 0.51592 0.99727 0.0
H943 H 0.31057 0.48062 0.03692 0.0
H944 H 0.38237 0.57004 0.94559 0.0
H945 H 0.38295 0.46376 0.92774 0.0
H946 H 0.36263 0.40165 0.90999 0.0
H947 H 0.34666 0.41947 0.7723 0.0
H948 H 0.3666 0.48168 0.78926 0.0
H949 H 0.5434 0.67278 0.84051 0.0
H950 H 0.49957 0.62083 0.88054 0.0
H951 H 0.43039 0.59146 0.76593 0.0
H952 H 0.4748 0.64342 0.72495 0.0
H953 H 0.42719 0.53284 0.81578 0.0
H954 H 0.42359 0.64117 0.84235 0.0
H955 H 0.45303 0.70403 0.86279 0.0
H956 H 0.4812 0.68063 0.99116 0.0
H957 H 0.45237 0.61766 0.97119 0.0
C958 C 0.28067 0.46056 0.92902 0.0
C959 C 0.27928 0.46057 0.97627 0.0
C960 C 0.31249 0.48063 0.90653 0.0
C961 C 0.34363 0.50106 0.93074 0.0
C962 C 0.34256 0.50029 0.97793 0.0
C963 C 0.31069 0.48012 1.00053 0.0
C964 C 0.37632 0.52587 0.90662 0.0
C965 C 0.3925 0.56169 0.91781 0.0
C966 C 0.38944 0.51513 0.87005 0.0
C967 C 0.37611 0.47741 0.85986 0.0
C968 C 0.3748 0.4544 0.89375 0.0
C969 C 0.36357 0.41922 0.88377 0.0
C970 C 0.35358 0.40669 0.83999 0.0
C971 C 0.35462 0.42928 0.80614 0.0
C972 C 0.36592 0.46452 0.81591 0.0
C973 C 0.51917 0.65489 0.82339 0.0
C974 C 0.51213 0.6624 0.77995 0.0
C975 C 0.49425 0.62517 0.84628 0.0
C976 C 0.46158 0.60279 0.82646 0.0
C977 C 0.4555 0.60858 0.78174 0.0
C978 C 0.48076 0.63825 0.75846 0.0
C979 C 0.43243 0.57659 0.85447 0.0
C980 C 0.41699 0.54079 0.84388 0.0
C981 C 0.42037 0.58717 0.89224 0.0
C982 C 0.43602 0.62475 0.90516 0.0
C983 C 0.43609 0.64944 0.87492 0.0
C984 C 0.45271 0.68509 0.88639 0.0
C985 C 0.46904 0.69632 0.92821 0.0
C986 C 0.46857 0.67189 0.95877 0.0
C987 C 0.45205 0.63621 0.94741 0.0
H988 H 0.48201 0.72394 0.93697 0.0
H989 H 0.34475 0.3794 0.83238 0.0
H990 H 0.81022 0.34103 0.49347 0.0
H991 H 0.80322 0.38707 0.45634 0.0
H992 H 0.81783 0.35154 0.32714 0.0
H993 H 0.82552 0.30626 0.36364 0.0
H994 H 0.8504 0.42174 0.32971 0.0
H995 H 0.73572 0.32445 0.3685 0.0
H996 H 0.69059 0.2821 0.42043 0.0
H997 H 0.69398 0.36724 0.49568 0.0
H998 H 0.7395 0.41013 0.44449 0.0
H999 H 0.76677 0.48339 0.18106 0.0
H1000 H 0.78033 0.44445 0.22511 0.0
H1001 H 0.76818 0.48972 0.34777 0.0
H1002 H 0.7544 0.52841 0.30434 0.0
H1003 H 0.73662 0.41822 0.3526 0.0
H1004 H 0.84819 0.5155 0.30936 0.0
H1005 H 0.89233 0.55729 0.25604 0.0
H1006 H 0.89445 0.472 0.1882 0.0
H1007 H 0.84983 0.42961 0.24065 0.0
C1008 C 0.81242 0.34338 0.45722 0.0
C1009 C 0.81799 0.31973 0.4315 0.0
C1010 C 0.80829 0.36958 0.43606 0.0
C1011 C 0.80948 0.37232 0.38895 0.0
C1012 C 0.81673 0.34984 0.3635 0.0
C1013 C 0.82092 0.3238 0.38451 0.0
C1014 C 0.80113 0.39704 0.36558 0.0
C1015 C 0.82545 0.42085 0.3345 0.0
C1016 C 0.76881 0.39623 0.37242 0.0
C1017 C 0.74128 0.37048 0.40299 0.0
C1018 C 0.72701 0.33414 0.39631 0.0
C1019 C 0.70134 0.31004 0.42558 0.0
C1020 C 0.6895 0.32198 0.46141 0.0
C1021 C 0.70323 0.35804 0.46796 0.0
C1022 C 0.72895 0.38225 0.43883 0.0
C1023 C 0.76668 0.48482 0.2174 0.0
C1024 C 0.75972 0.50911 0.23918 0.0
C1025 C 0.77461 0.46273 0.24248 0.0
C1026 C 0.77567 0.46461 0.28963 0.0
C1027 C 0.7676 0.48799 0.31142 0.0
C1028 C 0.75984 0.51013 0.28646 0.0
C1029 C 0.78569 0.44259 0.31639 0.0
C1030 C 0.76169 0.41932 0.34808 0.0
C1031 C 0.81826 0.44385 0.31 0.0
C1032 C 0.84541 0.46933 0.2787 0.0
C1033 C 0.85786 0.50562 0.28287 0.0
C1034 C 0.883 0.52942 0.25283 0.0
C1035 C 0.89613 0.5173 0.2187 0.0
C1036 C 0.88422 0.48135 0.21462 0.0
C1037 C 0.85902 0.45742 0.24451 0.0
H1038 H 0.9156 0.53576 0.19548 0.0
H1039 H 0.66962 0.30328 0.48404 0.0
H1040 H 0.35453 0.83845 0.38355 0.0
H1041 H 0.40541 0.84059 0.42084 0.0
H1042 H 0.35974 0.83799 0.5502 0.0
H1043 H 0.30971 0.83693 0.51369 0.0
H1044 H 0.42906 0.88047 0.55294 0.0
H1045 H 0.34782 0.76278 0.49903 0.0
H1046 H 0.31367 0.71888 0.44075 0.0
H1047 H 0.40906 0.74446 0.37055 0.0
H1048 H 0.44374 0.78889 0.42815 0.0
H1049 H 0.48656 0.79241 0.70135 0.0
H1050 H 0.45399 0.81179 0.65359 0.0
H1051 H 0.51627 0.81562 0.53924 0.0
H1052 H 0.54872 0.79616 0.5863 0.0
H1053 H 0.44663 0.77927 0.52127 0.0
H1054 H 0.52831 0.89135 0.5832 0.0
H1055 H 0.56122 0.93477 0.64256 0.0
H1056 H 0.46437 0.91862 0.69957 0.0
H1057 H 0.43083 0.87498 0.64077 0.0
C1058 C 0.35567 0.83898 0.41992 0.0
C1059 C 0.32786 0.83704 0.4456 0.0
C1060 C 0.38468 0.84011 0.44116 0.0
C1061 C 0.38606 0.83897 0.4883 0.0
C1062 C 0.35924 0.83898 0.51384 0.0
C1063 C 0.33049 0.83809 0.49278 0.0
C1064 C 0.41362 0.8348 0.51152 0.0
C1065 C 0.43293 0.85834 0.54611 0.0
C1066 C 0.41911 0.8063 0.50197 0.0
C1067 C 0.39831 0.77943 0.46755 0.0
C1068 C 0.36147 0.75921 0.47099 0.0
C1069 C 0.34203 0.73422 0.43811 0.0
C1070 C 0.35917 0.72897 0.40189 0.0
C1071 C 0.39581 0.74862 0.39856 0.0
C1072 C 0.41537 0.7737 0.43131 0.0
C1073 C 0.49341 0.79751 0.6661 0.0
C1074 C 0.52001 0.79239 0.64763 0.0
C1075 C 0.47498 0.80885 0.63893 0.0
C1076 C 0.48293 0.81535 0.59295 0.0
C1077 C 0.50975 0.81074 0.57462 0.0
C1078 C 0.5282 0.79951 0.60167 0.0
C1079 C 0.46159 0.82454 0.56336 0.0
C1080 C 0.44337 0.80184 0.52761 0.0
C1081 C 0.45697 0.85365 0.5721 0.0
C1082 C 0.47705 0.87965 0.60778 0.0
C1083 C 0.51401 0.89682 0.60863 0.0
C1084 C 0.53278 0.92152 0.64211 0.0
C1085 C 0.5149 0.92931 0.6749 0.0
C1086 C 0.47819 0.91252 0.67419 0.0
C1087 C 0.45929 0.88786 0.64074 0.0
H1088 H 0.52948 0.94844 0.70078 0.0
H1089 H 0.34408 0.70961 0.37647 0.0
H1090 H 0.62993 0.48711 0.16912 0.0
H1091 H 0.58378 0.4363 0.12855 0.0
H1092 H 0.61908 0.49349 1.00376 0.0
H1093 H 0.66484 0.54415 0.04365 0.0
H1094 H 0.52799 0.42253 0.06075 0.0
H1095 H 0.63499 0.43947 0.9357 0.0
H1096 H 0.69958 0.46671 0.93171 0.0
H1097 H 0.70389 0.45325 0.07408 0.0
H1098 H 0.6393 0.42525 0.07875 0.0
H1099 H 0.45985 0.31051 0.86704 0.0
H1100 H 0.49219 0.36132 0.91656 0.0
H1101 H 0.53452 0.30557 0.98894 0.0
H1102 H 0.50224 0.25466 0.94 0.0
H1103 H 0.5851 0.37372 0.96303 0.0
H1104 H 0.4727 0.31355 0.03716 0.0
H1105 H 0.40807 0.28532 0.04064 0.0
H1106 H 0.41407 0.38258 1.00243 0.0
H1107 H 0.47876 0.41128 0.99811 0.0
C1108 C 0.62708 0.48924 0.13328 0.0
C1109 C 0.65139 0.51933 0.10945 0.0
C1110 C 0.60071 0.46024 0.1102 0.0
C1111 C 0.59853 0.46114 0.0632 0.0
C1112 C 0.62063 0.4923 0.04002 0.0
C1113 C 0.64683 0.52116 0.06292 0.0
C1114 C 0.57715 0.42842 0.03758 0.0
C1115 C 0.54036 0.41177 0.03938 0.0
C1116 C 0.59349 0.41438 0.0101 0.0
C1117 C 0.63233 0.43056 1.0076 0.0
C1118 C 0.64972 0.44215 0.9661 0.0
C1119 C 0.68631 0.45767 0.96371 0.0
C1120 C 0.70581 0.46169 1.00261 0.0
C1121 C 0.68875 0.45014 0.04398 0.0
C1122 C 0.65215 0.43445 0.04652 0.0
C1123 C 0.47609 0.30908 0.89345 0.0
C1124 C 0.4786 0.27862 0.8995 0.0
C1125 C 0.49433 0.33803 0.92184 0.0
C1126 C 0.5155 0.337 0.95646 0.0
C1127 C 0.51822 0.30676 0.96241 0.0
C1128 C 0.49973 0.27771 0.93441 0.0
C1129 C 0.53584 0.3679 0.98565 0.0
C1130 C 0.5726 0.38434 0.98441 0.0
C1131 C 0.5194 0.38152 0.01368 0.0
C1132 C 0.48056 0.36448 0.01695 0.0
C1133 C 0.46023 0.32886 0.0292 0.0
C1134 C 0.42358 0.31278 0.03138 0.0
C1135 C 0.40696 0.33213 0.02167 0.0
C1136 C 0.42697 0.36763 0.00992 0.0
C1137 C 0.46364 0.38382 1.00766 0.0
H1138 H 0.37859 0.31963 0.02333 0.0
H1139 H 0.73415 0.47379 1.0007 0.0
loop_
_geom_bond_atom_site_label_1
_geom_bond_atom_site_label_2
_geom_bond_distance
_geom_bond_site_symmetry_2
_ccdc_geom_bond_type
Eu0 C9 2.828 . S
Eu0 O11 2.392 1_554 S
Eu0 O13 2.418 . S
Eu0 O18 2.373 . S
Eu0 O21 2.488 . S
Eu0 O22 2.471 . S
Eu0 O23 2.349 . S
Eu1 O10 2.373 . S
Eu1 O14 2.488 . S
Eu1 O15 2.471 . S
Eu1 O16 2.349 . S
Eu1 O19 2.392 1_556 S
Eu1 O20 2.418 . S
Eu1 C30 2.828 . S
C2 O20 1.244 1_554 S
C2 O23 1.265 . S
C3 C4 1.379 . S
C3 C7 1.373 . S
C3 C9 1.505 . S
C4 C3 1.379 . S
C4 C6 1.369 . S
C4 H32 0.930 . S
C5 C7 1.383 . S
C5 C8 1.382 . S
C5 H33 0.930 . S
C6 C4 1.369 . S
C6 C8 1.392 . S
C6 H34 0.930 . S
C7 C3 1.373 . S
C7 C5 1.383 . S
C7 H35 0.931 . S
C8 C5 1.382 . S
C8 C6 1.392 . S
C9 Eu0 2.828 . S
C9 C3 1.505 . S
C9 O21 1.249 . S
C9 O22 1.244 . S
O10 Eu1 2.373 . S
O10 C12 1.258 . S
O11 Eu0 2.392 1_556 S
O11 C12 1.242 . S
C12 O10 1.258 . S
C12 O11 1.242 . S
O13 Eu0 2.418 . S
O13 C17 1.244 . S
O14 Eu1 2.488 . S
O14 C30 1.249 . S
O15 Eu1 2.471 . S
O15 C30 1.244 . S
O16 Eu1 2.349 . S
O16 C17 1.265 1_556 S
C17 O13 1.244 . S
C17 O16 1.265 1_554 S
O18 Eu0 2.373 . S
O18 C31 1.258 . S
O19 Eu1 2.392 1_554 S
O19 C31 1.242 . S
O20 Eu1 2.418 . S
O20 C2 1.244 1_556 S
O21 Eu0 2.488 . S
O21 C9 1.249 . S
O22 Eu0 2.471 . S
O22 C9 1.244 . S
O23 Eu0 2.349 . S
O23 C2 1.265 . S
C24 C25 1.379 . S
C24 C28 1.373 . S
C24 C30 1.505 . S
C25 C24 1.379 . S
C25 C27 1.369 . S
C25 H36 0.930 . S
C26 C28 1.383 . S
C26 C29 1.382 . S
C26 H37 0.930 . S
C27 C25 1.369 . S
C27 C29 1.392 . S
C27 H38 0.930 . S
C28 C24 1.373 . S
C28 C26 1.383 . S
C28 H39 0.931 . S
C29 C26 1.382 . S
C29 C27 1.392 . S
C30 Eu1 2.828 . S
C30 O14 1.249 . S
C30 O15 1.244 . S
C30 C24 1.505 . S
C31 O18 1.258 . S
C31 O19 1.242 . S
H32 C4 0.930 . S
H33 C5 0.930 . S
H34 C6 0.930 . S
H35 C7 0.931 . S
H36 C25 0.930 . S
H37 C26 0.930 . S
H38 C27 0.930 . S
H39 C28 0.931 . S
Eu40 C49 2.828 . S
Eu40 O51 2.392 . S
Eu40 O53 2.418 . S
Eu40 O58 2.373 . S
Eu40 O61 2.488 . S
Eu40 O62 2.471 . S
Eu40 O63 2.349 . S
Eu41 O50 2.373 . S
Eu41 O54 2.488 . S
Eu41 O55 2.471 . S
Eu41 O56 2.349 . S
Eu41 O59 2.392 . S
Eu41 O60 2.418 . S
Eu41 C70 2.828 . S
C42 O60 1.244 . S
C42 O63 1.265 . S
C43 C44 1.379 . S
C43 C47 1.373 . S
C43 C49 1.505 . S
C44 C43 1.379 . S
C44 C46 1.369 . S
C44 H72 0.930 . S
C45 C47 1.383 . S
C45 C48 1.382 . S
C45 H73 0.930 . S
C46 C44 1.369 . S
C46 C48 1.392 . S
C46 H74 0.930 . S
C47 C43 1.373 . S
C47 C45 1.383 . S
C47 H75 0.931 . S
C48 C45 1.382 . S
C48 C46 1.392 . S
C49 Eu40 2.828 . S
C49 C43 1.505 . S
C49 O61 1.249 . S
C49 O62 1.244 . S
O50 Eu41 2.373 . S
O50 C52 1.258 . S
O51 Eu40 2.392 . S
O51 C52 1.242 . S
C52 O50 1.258 . S
C52 O51 1.242 . S
O53 Eu40 2.418 . S
O53 C57 1.244 . S
O54 Eu41 2.488 . S
O54 C70 1.249 . S
O55 Eu41 2.471 . S
O55 C70 1.244 . S
O56 Eu41 2.349 . S
O56 C57 1.265 . S
C57 O53 1.244 . S
C57 O56 1.265 . S
O58 Eu40 2.373 . S
O58 C71 1.258 . S
O59 Eu41 2.392 . S
O59 C71 1.242 . S
O60 Eu41 2.418 . S
O60 C42 1.244 . S
O61 Eu40 2.488 . S
O61 C49 1.249 . S
O62 Eu40 2.471 . S
O62 C49 1.244 . S
O63 Eu40 2.349 . S
O63 C42 1.265 . S
C64 C65 1.379 . S
C64 C68 1.373 . S
C64 C70 1.505 . S
C65 C64 1.379 . S
C65 C67 1.369 . S
C65 H76 0.930 . S
C66 C68 1.383 . S
C66 C69 1.382 . S
C66 H77 0.930 . S
C67 C65 1.369 . S
C67 C69 1.392 . S
C67 H78 0.930 . S
C68 C64 1.373 . S
C68 C66 1.383 . S
C68 H79 0.931 . S
C69 C66 1.382 . S
C69 C67 1.392 . S
C70 Eu41 2.828 . S
C70 O54 1.249 . S
C70 O55 1.244 . S
C70 C64 1.505 . S
C71 O58 1.258 . S
C71 O59 1.242 . S
H72 C44 0.930 . S
H73 C45 0.930 . S
H74 C46 0.930 . S
H75 C47 0.931 . S
H76 C65 0.930 . S
H77 C66 0.930 . S
H78 C67 0.930 . S
H79 C68 0.931 . S
Eu80 C89 2.828 . S
Eu80 O91 2.392 . S
Eu80 O93 2.418 . S
Eu80 O98 2.373 . S
Eu80 O101 2.488 . S
Eu80 O102 2.471 . S
Eu80 O103 2.349 . S
Eu81 O90 2.373 . S
Eu81 O94 2.488 . S
Eu81 O95 2.471 . S
Eu81 O96 2.349 . S
Eu81 O99 2.392 . S
Eu81 O100 2.418 . S
Eu81 C110 2.828 . S
C82 O100 1.244 . S
C82 O103 1.265 . S
C83 C84 1.379 . S
C83 C87 1.373 . S
C83 C89 1.505 . S
C84 C83 1.379 . S
C84 C86 1.369 . S
C84 H112 0.930 . S
C85 C87 1.383 . S
C85 C88 1.382 . S
C85 H113 0.930 . S
C86 C84 1.369 . S
C86 C88 1.392 . S
C86 H114 0.930 . S
C87 C83 1.373 . S
C87 C85 1.383 . S
C87 H115 0.931 . S
C88 C85 1.382 . S
C88 C86 1.392 . S
C89 Eu80 2.828 . S
C89 C83 1.505 . S
C89 O101 1.249 . S
C89 O102 1.244 . S
O90 Eu81 2.373 . S
O90 C92 1.258 . S
O91 Eu80 2.392 . S
O91 C92 1.242 . S
C92 O90 1.258 . S
C92 O91 1.242 . S
O93 Eu80 2.418 . S
O93 C97 1.244 . S
O94 Eu81 2.488 . S
O94 C110 1.249 . S
O95 Eu81 2.471 . S
O95 C110 1.244 . S
O96 Eu81 2.349 . S
O96 C97 1.265 . S
C97 O93 1.244 . S
C97 O96 1.265 . S
O98 Eu80 2.373 . S
O98 C111 1.258 . S
O99 Eu81 2.392 . S
O99 C111 1.242 . S
O100 Eu81 2.418 . S
O100 C82 1.244 . S
O101 Eu80 2.488 . S
O101 C89 1.249 . S
O102 Eu80 2.471 . S
O102 C89 1.244 . S
O103 Eu80 2.349 . S
O103 C82 1.265 . S
C104 C105 1.379 . S
C104 C108 1.373 . S
C104 C110 1.505 . S
C105 C104 1.379 . S
C105 C107 1.369 . S
C105 H116 0.930 . S
C106 C108 1.383 . S
C106 C109 1.382 . S
C106 H117 0.930 . S
C107 C105 1.369 . S
C107 C109 1.392 . S
C107 H118 0.930 . S
C108 C104 1.373 . S
C108 C106 1.383 . S
C108 H119 0.931 . S
C109 C106 1.382 . S
C109 C107 1.392 . S
C110 Eu81 2.828 . S
C110 O94 1.249 . S
C110 O95 1.244 . S
C110 C104 1.505 . S
C111 O98 1.258 . S
C111 O99 1.242 . S
H112 C84 0.930 . S
H113 C85 0.930 . S
H114 C86 0.930 . S
H115 C87 0.931 . S
H116 C105 0.930 . S
H117 C106 0.930 . S
H118 C107 0.930 . S
H119 C108 0.931 . S
Eu120 C129 2.828 . S
Eu120 O131 2.392 . S
Eu120 O133 2.418 . S
Eu120 O138 2.373 . S
Eu120 O141 2.488 . S
Eu120 O142 2.471 . S
Eu120 O143 2.349 . S
Eu121 O130 2.373 . S
Eu121 O134 2.488 . S
Eu121 O135 2.471 . S
Eu121 O136 2.349 . S
Eu121 O139 2.392 . S
Eu121 O140 2.418 . S
Eu121 C150 2.828 . S
C122 O140 1.244 . S
C122 O143 1.265 . S
C123 C124 1.379 . S
C123 C127 1.373 . S
C123 C129 1.505 1_556 S
C124 C123 1.379 . S
C124 C126 1.369 . S
C124 H152 0.930 . S
C125 C127 1.383 . S
C125 C128 1.382 . S
C125 H153 0.930 . S
C126 C124 1.369 . S
C126 C128 1.392 . S
C126 H154 0.930 . S
C127 C123 1.373 . S
C127 C125 1.383 . S
C127 H155 0.931 . S
C128 C125 1.382 . S
C128 C126 1.392 . S
C129 Eu120 2.828 . S
C129 C123 1.505 1_554 S
C129 O141 1.249 . S
C129 O142 1.244 . S
O130 Eu121 2.373 . S
O130 C132 1.258 . S
O131 Eu120 2.392 . S
O131 C132 1.242 . S
C132 O130 1.258 . S
C132 O131 1.242 . S
O133 Eu120 2.418 . S
O133 C137 1.244 . S
O134 Eu121 2.488 . S
O134 C150 1.249 . S
O135 Eu121 2.471 . S
O135 C150 1.244 . S
O136 Eu121 2.349 . S
O136 C137 1.265 . S
C137 O133 1.244 . S
C137 O136 1.265 . S
O138 Eu120 2.373 . S
O138 C151 1.258 . S
O139 Eu121 2.392 . S
O139 C151 1.242 . S
O140 Eu121 2.418 . S
O140 C122 1.244 . S
O141 Eu120 2.488 . S
O141 C129 1.249 . S
O142 Eu120 2.471 . S
O142 C129 1.244 . S
O143 Eu120 2.349 . S
O143 C122 1.265 . S
C144 C145 1.379 . S
C144 C148 1.373 . S
C144 C150 1.505 . S
C145 C144 1.379 . S
C145 C147 1.369 . S
C145 H156 0.930 . S
C146 C148 1.383 . S
C146 C149 1.382 . S
C146 H157 0.930 . S
C147 C145 1.369 . S
C147 C149 1.392 . S
C147 H158 0.930 . S
C148 C144 1.373 . S
C148 C146 1.383 . S
C148 H159 0.931 . S
C149 C146 1.382 . S
C149 C147 1.392 . S
C150 Eu121 2.828 . S
C150 O134 1.249 . S
C150 O135 1.244 . S
C150 C144 1.505 . S
C151 O138 1.258 . S
C151 O139 1.242 . S
H152 C124 0.930 . S
H153 C125 0.930 . S
H154 C126 0.930 . S
H155 C127 0.931 . S
H156 C145 0.930 . S
H157 C146 0.930 . S
H158 C147 0.930 . S
H159 C148 0.931 . S
Eu160 C169 2.828 . S
Eu160 O171 2.392 . S
Eu160 O173 2.418 . S
Eu160 O178 2.373 . S
Eu160 O181 2.488 . S
Eu160 O182 2.471 . S
Eu160 O183 2.349 . S
Eu161 O170 2.373 . S
Eu161 O174 2.488 . S
Eu161 O175 2.471 . S
Eu161 O176 2.349 . S
Eu161 O179 2.392 . S
Eu161 O180 2.418 . S
Eu161 C190 2.828 . S
C162 O180 1.244 . S
C162 O183 1.265 . S
C163 C164 1.379 . S
C163 C167 1.373 . S
C163 C169 1.505 . S
C164 C163 1.379 . S
C164 C166 1.369 . S
C164 H192 0.930 . S
C165 C167 1.383 . S
C165 C168 1.382 . S
C165 H193 0.930 . S
C166 C164 1.369 . S
C166 C168 1.392 . S
C166 H194 0.930 . S
C167 C163 1.373 . S
C167 C165 1.383 . S
C167 H195 0.931 . S
C168 C165 1.382 . S
C168 C166 1.392 . S
C169 Eu160 2.828 . S
C169 C163 1.505 . S
C169 O181 1.249 . S
C169 O182 1.244 . S
O170 Eu161 2.373 . S
O170 C172 1.258 . S
O171 Eu160 2.392 . S
O171 C172 1.242 . S
C172 O170 1.258 . S
C172 O171 1.242 . S
O173 Eu160 2.418 . S
O173 C177 1.244 . S
O174 Eu161 2.488 . S
O174 C190 1.249 . S
O175 Eu161 2.471 . S
O175 C190 1.244 . S
O176 Eu161 2.349 . S
O176 C177 1.265 . S
C177 O173 1.244 . S
C177 O176 1.265 . S
O178 Eu160 2.373 . S
O178 C191 1.258 . S
O179 Eu161 2.392 . S
O179 C191 1.242 . S
O180 Eu161 2.418 . S
O180 C162 1.244 . S
O181 Eu160 2.488 . S
O181 C169 1.249 . S
O182 Eu160 2.471 . S
O182 C169 1.244 . S
O183 Eu160 2.349 . S
O183 C162 1.265 . S
C184 C185 1.379 . S
C184 C188 1.373 . S
C184 C190 1.505 . S
C185 C184 1.379 . S
C185 C187 1.369 . S
C185 H196 0.930 . S
C186 C188 1.383 . S
C186 C189 1.382 . S
C186 H197 0.930 . S
C187 C185 1.369 . S
C187 C189 1.392 . S
C187 H198 0.930 . S
C188 C184 1.373 . S
C188 C186 1.383 . S
C188 H199 0.931 . S
C189 C186 1.382 . S
C189 C187 1.392 . S
C190 Eu161 2.828 . S
C190 O174 1.249 . S
C190 O175 1.244 . S
C190 C184 1.505 . S
C191 O178 1.258 . S
C191 O179 1.242 . S
H192 C164 0.930 . S
H193 C165 0.930 . S
H194 C166 0.930 . S
H195 C167 0.931 . S
H196 C185 0.930 . S
H197 C186 0.930 . S
H198 C187 0.930 . S
H199 C188 0.931 . S
Eu200 C209 2.828 . S
Eu200 O211 2.392 . S
Eu200 O213 2.418 . S
Eu200 O218 2.373 . S
Eu200 O221 2.488 . S
Eu200 O222 2.471 . S
Eu200 O223 2.349 . S
Eu201 O210 2.373 . S
Eu201 O214 2.488 . S
Eu201 O215 2.471 . S
Eu201 O216 2.349 . S
Eu201 O219 2.392 . S
Eu201 O220 2.418 . S
Eu201 C230 2.828 . S
C202 O220 1.244 . S
C202 O223 1.265 . S
C203 C204 1.379 . S
C203 C207 1.373 . S
C203 C209 1.505 . S
C204 C203 1.379 . S
C204 C206 1.369 . S
C204 H232 0.930 . S
C205 C207 1.383 . S
C205 C208 1.382 . S
C205 H233 0.930 . S
C206 C204 1.369 . S
C206 C208 1.392 . S
C206 H234 0.930 . S
C207 C203 1.373 . S
C207 C205 1.383 . S
C207 H235 0.931 . S
C208 C205 1.382 . S
C208 C206 1.392 . S
C209 Eu200 2.828 . S
C209 C203 1.505 . S
C209 O221 1.249 . S
C209 O222 1.244 . S
O210 Eu201 2.373 . S
O210 C212 1.258 . S
O211 Eu200 2.392 . S
O211 C212 1.242 . S
C212 O210 1.258 . S
C212 O211 1.242 . S
O213 Eu200 2.418 . S
O213 C217 1.244 . S
O214 Eu201 2.488 . S
O214 C230 1.249 . S
O215 Eu201 2.471 . S
O215 C230 1.244 . S
O216 Eu201 2.349 . S
O216 C217 1.265 . S
C217 O213 1.244 . S
C217 O216 1.265 . S
O218 Eu200 2.373 . S
O218 C231 1.258 . S
O219 Eu201 2.392 . S
O219 C231 1.242 . S
O220 Eu201 2.418 . S
O220 C202 1.244 . S
O221 Eu200 2.488 . S
O221 C209 1.249 . S
O222 Eu200 2.471 . S
O222 C209 1.244 . S
O223 Eu200 2.349 . S
O223 C202 1.265 . S
C224 C225 1.379 . S
C224 C228 1.373 . S
C224 C230 1.505 1_554 S
C225 C224 1.379 . S
C225 C227 1.369 . S
C225 H236 0.930 . S
C226 C228 1.383 . S
C226 C229 1.382 . S
C226 H237 0.930 . S
C227 C225 1.369 . S
C227 C229 1.392 . S
C227 H238 0.930 . S
C228 C224 1.373 . S
C228 C226 1.383 . S
C228 H239 0.931 . S
C229 C226 1.382 . S
C229 C227 1.392 . S
C230 Eu201 2.828 . S
C230 O214 1.249 . S
C230 O215 1.244 . S
C230 C224 1.505 1_556 S
C231 O218 1.258 . S
C231 O219 1.242 . S
H232 C204 0.930 . S
H233 C205 0.930 . S
H234 C206 0.930 . S
H235 C207 0.931 . S
H236 C225 0.930 . S
H237 C226 0.930 . S
H238 C227 0.930 . S
H239 C228 0.931 . S
H240 C258 0.951 . S
H241 C260 0.951 . S
H242 C262 0.950 . S
H243 C263 0.950 . S
H244 C265 0.950 . S
H245 C268 0.950 . S
H246 C269 0.950 . S
H247 C271 0.950 . S
H248 C272 0.950 . S
H249 C273 0.951 . S
H250 C275 0.951 . S
H251 C277 0.950 . S
H252 C278 0.950 . S
H253 C280 0.950 . S
H254 C283 0.950 . S
H255 C284 0.950 . S
H256 C286 0.950 . S
H257 C287 0.950 . S
C258 H240 0.951 . S
C258 C259 1.366 . S
C258 C260 1.388 . S
C259 C258 1.366 . S
C259 C263 1.385 . S
C260 H241 0.951 . S
C260 C258 1.388 . S
C260 C261 1.366 . S
C261 C260 1.366 . S
C261 C262 1.414 . S
C261 C264 1.499 . S
C262 H242 0.950 . S
C262 C261 1.414 . S
C262 C263 1.374 . S
C263 H243 0.950 . S
C263 C259 1.385 . S
C263 C262 1.374 . S
C264 C261 1.499 . S
C264 C265 1.373 . S
C264 C266 1.389 . S
C265 H244 0.950 . S
C265 C264 1.373 . S
C265 C281 1.377 . S
C266 C264 1.389 . S
C266 C267 1.524 . S
C266 C280 1.377 . S
C267 C266 1.524 . S
C267 C268 1.397 . S
C267 C272 1.363 1_556 S
C268 H245 0.950 . S
C268 C267 1.397 . S
C268 C269 1.334 . S
C269 H246 0.950 . S
C269 C268 1.334 . S
C269 C270 1.287 1_556 S
C270 C269 1.287 1_554 S
C270 C271 1.524 . S
C270 H289 0.913 . S
C271 H247 0.950 . S
C271 C270 1.524 . S
C271 C272 1.415 . S
C272 H248 0.950 . S
C272 C267 1.363 1_554 S
C272 C271 1.415 . S
C273 H249 0.951 . S
C273 C274 1.366 . S
C273 C275 1.388 . S
C274 C273 1.366 . S
C274 C278 1.385 1_556 S
C275 H250 0.951 . S
C275 C273 1.388 . S
C275 C276 1.366 . S
C276 C275 1.366 . S
C276 C277 1.414 1_556 S
C276 C279 1.499 . S
C277 H251 0.950 . S
C277 C276 1.414 1_554 S
C277 C278 1.374 . S
C278 H252 0.950 . S
C278 C274 1.385 1_554 S
C278 C277 1.374 . S
C279 C276 1.499 . S
C279 C280 1.373 . S
C279 C281 1.389 . S
C280 H253 0.950 . S
C280 C266 1.377 . S
C280 C279 1.373 . S
C281 C265 1.377 . S
C281 C279 1.389 . S
C281 C282 1.524 . S
C282 C281 1.524 . S
C282 C283 1.397 . S
C282 C287 1.363 . S
C283 H254 0.950 . S
C283 C282 1.397 . S
C283 C284 1.334 . S
C284 H255 0.950 . S
C284 C283 1.334 . S
C284 C285 1.287 . S
C285 C284 1.287 . S
C285 C286 1.524 . S
C285 H288 0.999 . S
C286 H256 0.950 . S
C286 C285 1.524 . S
C286 C287 1.415 . S
C287 H257 0.950 . S
C287 C282 1.363 . S
C287 C286 1.415 . S
H288 C285 0.999 . S
H289 C270 0.913 . S
H290 C308 0.951 . S
H291 C310 0.951 . S
H292 C312 0.950 . S
H293 C313 0.950 . S
H294 C315 0.950 . S
H295 C318 0.950 . S
H296 C319 0.950 . S
H297 C321 0.950 . S
H298 C322 0.950 . S
H299 C323 0.951 . S
H300 C325 0.951 . S
H301 C327 0.950 . S
H302 C328 0.950 . S
H303 C330 0.950 . S
H304 C333 0.950 . S
H305 C334 0.950 . S
H306 C336 0.950 . S
H307 C337 0.950 . S
C308 H290 0.951 . S
C308 C309 1.366 . S
C308 C310 1.388 . S
C309 C308 1.366 . S
C309 C313 1.385 . S
C310 H291 0.951 . S
C310 C308 1.388 . S
C310 C311 1.366 . S
C311 C310 1.366 . S
C311 C312 1.414 . S
C311 C314 1.499 . S
C312 H292 0.950 . S
C312 C311 1.414 . S
C312 C313 1.374 . S
C313 H293 0.950 . S
C313 C309 1.385 . S
C313 C312 1.374 . S
C314 C311 1.499 . S
C314 C315 1.373 . S
C314 C316 1.389 1_455 S
C315 H294 0.950 . S
C315 C314 1.373 . S
C315 C331 1.377 . S
C316 C314 1.389 1_655 S
C316 C317 1.524 . S
C316 C330 1.377 . S
C317 C316 1.524 . S
C317 C318 1.397 . S
C317 C322 1.363 . S
C318 H295 0.950 . S
C318 C317 1.397 . S
C318 C319 1.334 . S
C319 H296 0.950 . S
C319 C318 1.334 . S
C319 C320 1.287 . S
C320 C319 1.287 . S
C320 C321 1.524 . S
C320 H339 0.913 . S
C321 H297 0.950 . S
C321 C320 1.524 . S
C321 C322 1.415 . S
C322 H298 0.950 . S
C322 C317 1.363 . S
C322 C321 1.415 . S
C323 H299 0.951 . S
C323 C324 1.366 . S
C323 C325 1.388 . S
C324 C323 1.366 . S
C324 C328 1.385 . S
C325 H300 0.951 . S
C325 C323 1.388 . S
C325 C326 1.366 . S
C326 C325 1.366 . S
C326 C327 1.414 . S
C326 C329 1.499 . S
C327 H301 0.950 . S
C327 C326 1.414 . S
C327 C328 1.374 . S
C328 H302 0.950 . S
C328 C324 1.385 . S
C328 C327 1.374 . S
C329 C326 1.499 . S
C329 C330 1.373 . S
C329 C331 1.389 1_655 S
C330 H303 0.950 . S
C330 C316 1.377 . S
C330 C329 1.373 . S
C331 C315 1.377 . S
C331 C329 1.389 1_455 S
C331 C332 1.524 . S
C332 C331 1.524 . S
C332 C333 1.397 . S
C332 C337 1.363 . S
C333 H304 0.950 . S
C333 C332 1.397 . S
C333 C334 1.334 . S
C334 H305 0.950 . S
C334 C333 1.334 . S
C334 C335 1.287 . S
C335 C334 1.287 . S
C335 C336 1.524 . S
C335 H338 0.999 . S
C336 H306 0.950 . S
C336 C335 1.524 . S
C336 C337 1.415 . S
C337 H307 0.950 . S
C337 C332 1.363 . S
C337 C336 1.415 . S
H338 C335 0.999 . S
H339 C320 0.913 . S
H340 C358 0.951 . S
H341 C360 0.951 . S
H342 C362 0.950 . S
H343 C363 0.950 . S
H344 C365 0.950 . S
H345 C368 0.950 . S
H346 C369 0.950 . S
H347 C371 0.950 . S
H348 C372 0.950 . S
H349 C373 0.951 . S
H350 C375 0.951 . S
H351 C377 0.950 . S
H352 C378 0.950 . S
H353 C380 0.950 . S
H354 C383 0.950 . S
H355 C384 0.950 . S
H356 C386 0.950 . S
H357 C387 0.950 . S
C358 H340 0.951 . S
C358 C359 1.366 . S
C358 C360 1.388 . S
C359 C358 1.366 . S
C359 C363 1.385 . S
C360 H341 0.951 . S
C360 C358 1.388 . S
C360 C361 1.366 . S
C361 C360 1.366 . S
C361 C362 1.414 . S
C361 C364 1.499 . S
C362 H342 0.950 . S
C362 C361 1.414 . S
C362 C363 1.374 . S
C363 H343 0.950 . S
C363 C359 1.385 . S
C363 C362 1.374 . S
C364 C361 1.499 . S
C364 C365 1.373 . S
C364 C366 1.389 . S
C365 H344 0.950 . S
C365 C364 1.373 . S
C365 C381 1.377 1_545 S
C366 C364 1.389 . S
C366 C367 1.524 . S
C366 C380 1.377 1_545 S
C367 C366 1.524 . S
C367 C368 1.397 . S
C367 C372 1.363 . S
C368 H345 0.950 . S
C368 C367 1.397 . S
C368 C369 1.334 . S
C369 H346 0.950 . S
C369 C368 1.334 . S
C369 C370 1.287 . S
C370 C369 1.287 . S
C370 C371 1.524 . S
C370 H389 0.913 . S
C371 H347 0.950 . S
C371 C370 1.524 . S
C371 C372 1.415 . S
C372 H348 0.950 . S
C372 C367 1.363 . S
C372 C371 1.415 . S
C373 H349 0.951 . S
C373 C374 1.366 . S
C373 C375 1.388 . S
C374 C373 1.366 . S
C374 C378 1.385 . S
C375 H350 0.951 . S
C375 C373 1.388 . S
C375 C376 1.366 . S
C376 C375 1.366 . S
C376 C377 1.414 . S
C376 C379 1.499 . S
C377 H351 0.950 . S
C377 C376 1.414 . S
C377 C378 1.374 . S
C378 H352 0.950 . S
C378 C374 1.385 . S
C378 C377 1.374 . S
C379 C376 1.499 . S
C379 C380 1.373 . S
C379 C381 1.389 . S
C380 H353 0.950 . S
C380 C366 1.377 1_565 S
C380 C379 1.373 . S
C381 C365 1.377 1_565 S
C381 C379 1.389 . S
C381 C382 1.524 . S
C382 C381 1.524 . S
C382 C383 1.397 . S
C382 C387 1.363 . S
C383 H354 0.950 . S
C383 C382 1.397 . S
C383 C384 1.334 . S
C384 H355 0.950 . S
C384 C383 1.334 . S
C384 C385 1.287 . S
C385 C384 1.287 . S
C385 C386 1.524 . S
C385 H388 0.999 . S
C386 H356 0.950 . S
C386 C385 1.524 . S
C386 C387 1.415 . S
C387 H357 0.950 . S
C387 C382 1.363 . S
C387 C386 1.415 . S
H388 C385 0.999 . S
H389 C370 0.913 . S
H390 C408 0.951 . S
H391 C410 0.951 . S
H392 C412 0.950 . S
H393 C413 0.950 . S
H394 C415 0.950 . S
H395 C418 0.950 . S
H396 C419 0.950 . S
H397 C421 0.950 . S
H398 C422 0.950 . S
H399 C423 0.951 . S
H400 C425 0.951 1_556 S
H401 C427 0.950 . S
H402 C428 0.950 . S
H403 C430 0.947 1_554 S
H404 C433 0.950 . S
H405 C434 0.950 . S
H406 C436 0.950 . S
H407 C437 0.950 . S
C408 H390 0.951 . S
C408 C409 1.366 . S
C408 C410 1.388 . S
C409 C408 1.366 . S
C409 C413 1.385 . S
C410 H391 0.951 . S
C410 C408 1.388 . S
C410 C411 1.366 . S
C411 C410 1.366 . S
C411 C412 1.414 . S
C411 C414 1.499 . S
C412 H392 0.950 . S
C412 C411 1.414 . S
C412 C413 1.374 . S
C413 H393 0.950 . S
C413 C409 1.385 . S
C413 C412 1.374 . S
C414 C411 1.499 . S
C414 C415 1.373 . S
C414 C416 1.389 . S
C415 H394 0.950 . S
C415 C414 1.373 . S
C415 C431 1.377 . S
C416 C414 1.389 . S
C416 C417 1.524 . S
C416 C430 1.377 . S
C417 C416 1.524 . S
C417 C418 1.397 . S
C417 C422 1.363 . S
C418 H395 0.950 . S
C418 C417 1.397 . S
C418 C419 1.334 . S
C419 H396 0.950 . S
C419 C418 1.334 . S
C419 C420 1.287 . S
C420 C419 1.287 . S
C420 C421 1.524 . S
C420 H439 0.913 . S
C421 H397 0.950 . S
C421 C420 1.524 . S
C421 C422 1.415 . S
C422 H398 0.950 . S
C422 C417 1.363 . S
C422 C421 1.415 . S
C423 H399 0.951 . S
C423 C424 1.366 . S
C423 C425 1.388 . S
C424 C423 1.366 . S
C424 C428 1.385 . S
C425 H400 0.951 1_554 S
C425 C423 1.388 . S
C425 C426 1.366 . S
C426 C425 1.366 . S
C426 C427 1.414 . S
C426 C429 1.499 1_554 S
C427 H401 0.950 . S
C427 C426 1.414 . S
C427 C428 1.374 . S
C428 H402 0.950 . S
C428 C424 1.385 . S
C428 C427 1.374 . S
C429 C426 1.499 1_556 S
C429 C430 1.373 . S
C429 C431 1.389 . S
C430 H403 0.947 1_556 S
C430 C416 1.377 . S
C430 C429 1.373 . S
C431 C415 1.377 . S
C431 C429 1.389 . S
C431 C432 1.524 . S
C432 C431 1.524 . S
C432 C433 1.397 . S
C432 C437 1.363 . S
C433 H404 0.950 . S
C433 C432 1.397 . S
C433 C434 1.334 . S
C434 H405 0.950 . S
C434 C433 1.334 . S
C434 C435 1.287 . S
C435 C434 1.287 . S
C435 C436 1.524 . S
C435 H438 0.999 . S
C436 H406 0.950 . S
C436 C435 1.524 . S
C436 C437 1.415 . S
C437 H407 0.950 . S
C437 C432 1.363 . S
C437 C436 1.415 . S
H438 C435 0.999 . S
H439 C420 0.913 . S
H440 C458 0.951 . S
H441 C460 0.951 . S
H442 C462 0.950 . S
H443 C463 0.950 . S
H444 C465 0.950 . S
H445 C468 0.950 . S
H446 C469 0.950 . S
H447 C471 0.950 . S
H448 C472 0.950 1_655 S
H449 C473 0.951 . S
H450 C475 0.951 . S
H451 C477 0.950 . S
H452 C478 0.950 . S
H453 C480 0.950 . S
H454 C483 0.950 . S
H455 C484 0.950 . S
H456 C486 0.950 . S
H457 C487 0.950 1_455 S
C458 H440 0.951 . S
C458 C459 1.366 . S
C458 C460 1.388 . S
C459 C458 1.366 . S
C459 C463 1.385 . S
C460 H441 0.951 . S
C460 C458 1.388 . S
C460 C461 1.366 . S
C461 C460 1.366 . S
C461 C462 1.414 . S
C461 C464 1.499 . S
C462 H442 0.950 . S
C462 C461 1.414 . S
C462 C463 1.374 . S
C463 H443 0.950 . S
C463 C459 1.385 . S
C463 C462 1.374 . S
C464 C461 1.499 . S
C464 C465 1.373 . S
C464 C466 1.389 . S
C465 H444 0.950 . S
C465 C464 1.373 . S
C465 C481 1.377 1_455 S
C466 C464 1.389 . S
C466 C467 1.524 . S
C466 C480 1.377 1_455 S
C467 C466 1.524 . S
C467 C468 1.397 . S
C467 C472 1.363 . S
C468 H445 0.950 . S
C468 C467 1.397 . S
C468 C469 1.334 . S
C469 H446 0.950 . S
C469 C468 1.334 . S
C469 C470 1.287 . S
C470 C469 1.287 . S
C470 C471 1.524 . S
C470 H489 0.913 . S
C471 H447 0.950 . S
C471 C470 1.524 . S
C471 C472 1.415 . S
C472 H448 0.950 1_455 S
C472 C467 1.363 . S
C472 C471 1.415 . S
C473 H449 0.951 . S
C473 C474 1.366 . S
C473 C475 1.388 . S
C474 C473 1.366 . S
C474 C478 1.385 . S
C475 H450 0.951 . S
C475 C473 1.388 . S
C475 C476 1.366 . S
C476 C475 1.366 . S
C476 C477 1.414 . S
C476 C479 1.499 . S
C477 H451 0.950 . S
C477 C476 1.414 . S
C477 C478 1.374 . S
C478 H452 0.950 . S
C478 C474 1.385 . S
C478 C477 1.374 . S
C479 C476 1.499 . S
C479 C480 1.373 . S
C479 C481 1.389 . S
C480 H453 0.950 . S
C480 C466 1.377 1_655 S
C480 C479 1.373 . S
C481 C465 1.377 1_655 S
C481 C479 1.389 . S
C481 C482 1.524 . S
C482 C481 1.524 . S
C482 C483 1.397 . S
C482 C487 1.363 . S
C483 H454 0.950 . S
C483 C482 1.397 . S
C483 C484 1.334 . S
C484 H455 0.950 . S
C484 C483 1.334 . S
C484 C485 1.287 . S
C485 C484 1.287 . S
C485 C486 1.524 . S
C485 H488 0.999 . S
C486 H456 0.950 . S
C486 C485 1.524 . S
C486 C487 1.415 . S
C487 H457 0.950 1_655 S
C487 C482 1.363 . S
C487 C486 1.415 . S
H488 C485 0.999 . S
H489 C470 0.913 . S
H490 C508 0.951 . S
H491 C510 0.951 . S
H492 C512 0.950 . S
H493 C513 0.950 . S
H494 C515 0.950 . S
H495 C518 0.950 1_565 S
H496 C519 0.950 . S
H497 C521 0.950 . S
H498 C522 0.950 . S
H499 C523 0.951 . S
H500 C525 0.951 . S
H501 C527 0.950 . S
H502 C528 0.950 . S
H503 C530 0.950 . S
H504 C533 0.950 1_545 S
H505 C534 0.950 . S
H506 C536 0.950 . S
H507 C537 0.950 . S
C508 H490 0.951 . S
C508 C509 1.366 . S
C508 C510 1.388 . S
C509 C508 1.366 . S
C509 C513 1.385 . S
C510 H491 0.951 . S
C510 C508 1.388 . S
C510 C511 1.366 . S
C511 C510 1.366 . S
C511 C512 1.414 . S
C511 C514 1.499 . S
C512 H492 0.950 . S
C512 C511 1.414 . S
C512 C513 1.374 . S
C513 H493 0.950 . S
C513 C509 1.385 . S
C513 C512 1.374 . S
C514 C511 1.499 . S
C514 C515 1.373 . S
C514 C516 1.389 . S
C515 H494 0.950 . S
C515 C514 1.373 . S
C515 C531 1.377 1_545 S
C516 C514 1.389 . S
C516 C517 1.524 . S
C516 C530 1.377 1_545 S
C517 C516 1.524 . S
C517 C518 1.397 . S
C517 C522 1.363 . S
C518 H495 0.950 1_545 S
C518 C517 1.397 . S
C518 C519 1.334 . S
C519 H496 0.950 . S
C519 C518 1.334 . S
C519 C520 1.287 . S
C520 C519 1.287 . S
C520 C521 1.524 . S
C520 H539 0.913 . S
C521 H497 0.950 . S
C521 C520 1.524 . S
C521 C522 1.415 . S
C522 H498 0.950 . S
C522 C517 1.363 . S
C522 C521 1.415 . S
C523 H499 0.951 . S
C523 C524 1.366 . S
C523 C525 1.388 . S
C524 C523 1.366 . S
C524 C528 1.385 . S
C525 H500 0.951 . S
C525 C523 1.388 . S
C525 C526 1.366 . S
C526 C525 1.366 . S
C526 C527 1.414 . S
C526 C529 1.499 . S
C527 H501 0.950 . S
C527 C526 1.414 . S
C527 C528 1.374 . S
C528 H502 0.950 . S
C528 C524 1.385 . S
C528 C527 1.374 . S
C529 C526 1.499 . S
C529 C530 1.373 . S
C529 C531 1.389 . S
C530 H503 0.950 . S
C530 C516 1.377 1_565 S
C530 C529 1.373 . S
C531 C515 1.377 1_565 S
C531 C529 1.389 . S
C531 C532 1.524 . S
C532 C531 1.524 . S
C532 C533 1.397 . S
C532 C537 1.363 . S
C533 H504 0.950 1_565 S
C533 C532 1.397 . S
C533 C534 1.334 . S
C534 H505 0.950 . S
C534 C533 1.334 . S
C534 C535 1.287 . S
C535 C534 1.287 . S
C535 C536 1.524 . S
C535 H538 0.999 . S
C536 H506 0.950 . S
C536 C535 1.524 . S
C536 C537 1.415 . S
C537 H507 0.950 . S
C537 C532 1.363 . S
C537 C536 1.415 . S
H538 C535 0.999 . S
H539 C520 0.913 . S
H540 C558 0.951 . S
H541 C560 0.951 . S
H542 C562 0.950 . S
H543 C563 0.950 . S
H544 C565 0.950 . S
H545 C568 0.950 . S
H546 C569 0.950 . S
H547 C571 0.950 . S
H548 C572 0.950 . S
H549 C573 0.951 . S
H550 C575 0.951 . S
H551 C577 0.950 . S
H552 C578 0.950 . S
H553 C580 0.950 . S
H554 C583 0.950 . S
H555 C584 0.950 . S
H556 C586 0.950 . S
H557 C587 0.950 . S
C558 H540 0.951 . S
C558 C559 1.366 . S
C558 C560 1.388 . S
C559 C558 1.366 . S
C559 C563 1.385 . S
C560 H541 0.951 . S
C560 C558 1.388 . S
C560 C561 1.366 . S
C561 C560 1.366 . S
C561 C562 1.414 . S
C561 C564 1.499 . S
C562 H542 0.950 . S
C562 C561 1.414 . S
C562 C563 1.374 . S
C563 H543 0.950 . S
C563 C559 1.385 . S
C563 C562 1.374 . S
C564 C561 1.499 . S
C564 C565 1.373 . S
C564 C566 1.389 . S
C565 H544 0.950 . S
C565 C564 1.373 . S
C565 C581 1.377 . S
C566 C564 1.389 . S
C566 C567 1.524 . S
C566 C580 1.377 . S
C567 C566 1.524 . S
C567 C568 1.397 . S
C567 C572 1.363 . S
C568 H545 0.950 . S
C568 C567 1.397 . S
C568 C569 1.334 . S
C569 H546 0.950 . S
C569 C568 1.334 . S
C569 C570 1.287 . S
C570 C569 1.287 . S
C570 C571 1.524 . S
C570 H589 0.913 . S
C571 H547 0.950 . S
C571 C570 1.524 . S
C571 C572 1.415 . S
C572 H548 0.950 . S
C572 C567 1.363 . S
C572 C571 1.415 . S
C573 H549 0.951 . S
C573 C574 1.366 . S
C573 C575 1.388 . S
C574 C573 1.366 . S
C574 C578 1.385 . S
C575 H550 0.951 . S
C575 C573 1.388 . S
C575 C576 1.366 . S
C576 C575 1.366 . S
C576 C577 1.414 . S
C576 C579 1.499 . S
C577 H551 0.950 . S
C577 C576 1.414 . S
C577 C578 1.374 . S
C578 H552 0.950 . S
C578 C574 1.385 . S
C578 C577 1.374 . S
C579 C576 1.499 . S
C579 C580 1.373 . S
C579 C581 1.389 . S
C580 H553 0.950 . S
C580 C566 1.377 . S
C580 C579 1.373 . S
C581 C565 1.377 . S
C581 C579 1.389 . S
C581 C582 1.524 . S
C582 C581 1.524 . S
C582 C583 1.397 . S
C582 C587 1.363 . S
C583 H554 0.950 . S
C583 C582 1.397 . S
C583 C584 1.334 . S
C584 H555 0.950 . S
C584 C583 1.334 . S
C584 C585 1.287 . S
C585 C584 1.287 . S
C585 C586 1.524 . S
C585 H588 0.999 . S
C586 H556 0.950 . S
C586 C585 1.524 . S
C586 C587 1.415 . S
C587 H557 0.950 . S
C587 C582 1.363 . S
C587 C586 1.415 . S
H588 C585 0.999 . S
H589 C570 0.913 . S
H590 C608 0.951 . S
H591 C610 0.951 . S
H592 C612 0.950 . S
H593 C613 0.950 . S
H594 C615 0.950 . S
H595 C618 0.950 . S
H596 C619 0.950 . S
H597 C621 0.950 . S
H598 C622 0.950 . S
H599 C623 0.951 . S
H600 C625 0.951 . S
H601 C627 0.950 . S
H602 C628 0.950 . S
H603 C630 0.950 . S
H604 C633 0.950 . S
H605 C634 0.950 . S
H606 C636 0.950 . S
H607 C637 0.950 1_554 S
C608 H590 0.951 . S
C608 C609 1.366 . S
C608 C610 1.388 . S
C609 C608 1.366 . S
C609 C613 1.385 . S
C610 H591 0.951 . S
C610 C608 1.388 . S
C610 C611 1.366 . S
C611 C610 1.366 . S
C611 C612 1.414 . S
C611 C614 1.499 . S
C612 H592 0.950 . S
C612 C611 1.414 . S
C612 C613 1.374 . S
C613 H593 0.950 . S
C613 C609 1.385 . S
C613 C612 1.374 . S
C614 C611 1.499 . S
C614 C615 1.373 . S
C614 C616 1.389 . S
C615 H594 0.950 . S
C615 C614 1.373 . S
C615 C631 1.377 1_554 S
C616 C614 1.389 . S
C616 C617 1.524 . S
C616 C630 1.377 1_554 S
C617 C616 1.524 . S
C617 C618 1.397 . S
C617 C622 1.363 . S
C618 H595 0.950 . S
C618 C617 1.397 . S
C618 C619 1.334 . S
C619 H596 0.950 . S
C619 C618 1.334 . S
C619 C620 1.287 . S
C620 C619 1.287 . S
C620 C621 1.524 . S
C620 H639 0.913 . S
C621 H597 0.950 . S
C621 C620 1.524 . S
C621 C622 1.415 . S
C622 H598 0.950 . S
C622 C617 1.363 . S
C622 C621 1.415 . S
C623 H599 0.951 . S
C623 C624 1.366 . S
C623 C625 1.388 . S
C624 C623 1.366 . S
C624 C628 1.385 . S
C625 H600 0.951 . S
C625 C623 1.388 . S
C625 C626 1.366 . S
C626 C625 1.366 . S
C626 C627 1.414 . S
C626 C629 1.499 . S
C627 H601 0.950 . S
C627 C626 1.414 . S
C627 C628 1.374 . S
C628 H602 0.950 . S
C628 C624 1.385 . S
C628 C627 1.374 . S
C629 C626 1.499 . S
C629 C630 1.373 . S
C629 C631 1.389 . S
C630 H603 0.950 . S
C630 C616 1.377 1_556 S
C630 C629 1.373 . S
C631 C615 1.377 1_556 S
C631 C629 1.389 . S
C631 C632 1.524 . S
C632 C631 1.524 . S
C632 C633 1.397 . S
C632 C637 1.363 . S
C633 H604 0.950 . S
C633 C632 1.397 . S
C633 C634 1.334 . S
C634 H605 0.950 . S
C634 C633 1.334 . S
C634 C635 1.287 . S
C635 C634 1.287 . S
C635 C636 1.524 . S
C635 H638 0.999 . S
C636 H606 0.950 . S
C636 C635 1.524 . S
C636 C637 1.415 . S
C637 H607 0.950 1_556 S
C637 C632 1.363 . S
C637 C636 1.415 . S
H638 C635 0.999 . S
H639 C620 0.913 . S
H640 C658 0.951 . S
H641 C660 0.951 . S
H642 C662 0.950 . S
H643 C663 0.950 . S
H644 C665 0.950 . S
H645 C668 0.950 . S
H646 C669 0.950 . S
H647 C671 0.950 . S
H648 C672 0.950 . S
H649 C673 0.951 . S
H650 C675 0.951 . S
H651 C677 0.950 . S
H652 C678 0.950 1_556 S
H653 C680 0.950 . S
H654 C683 0.950 . S
H655 C684 0.950 . S
H656 C686 0.950 . S
H657 C687 0.950 . S
C658 H640 0.951 . S
C658 C659 1.366 . S
C658 C660 1.388 . S
C659 C658 1.366 . S
C659 C663 1.385 . S
C660 H641 0.951 . S
C660 C658 1.388 . S
C660 C661 1.366 . S
C661 C660 1.366 . S
C661 C662 1.414 . S
C661 C664 1.499 . S
C662 H642 0.950 . S
C662 C661 1.414 . S
C662 C663 1.374 . S
C663 H643 0.950 . S
C663 C659 1.385 . S
C663 C662 1.374 . S
C664 C661 1.499 . S
C664 C665 1.373 . S
C664 C666 1.389 . S
C665 H644 0.950 . S
C665 C664 1.373 . S
C665 C681 1.377 . S
C666 C664 1.389 . S
C666 C667 1.524 . S
C666 C680 1.377 . S
C667 C666 1.524 . S
C667 C668 1.397 . S
C667 C672 1.363 . S
C668 H645 0.950 . S
C668 C667 1.397 . S
C668 C669 1.334 . S
C669 H646 0.950 . S
C669 C668 1.334 . S
C669 C670 1.287 . S
C670 C669 1.287 . S
C670 C671 1.524 . S
C670 H689 0.913 . S
C671 H647 0.950 . S
C671 C670 1.524 . S
C671 C672 1.415 . S
C672 H648 0.950 . S
C672 C667 1.363 . S
C672 C671 1.415 . S
C673 H649 0.951 . S
C673 C674 1.366 1_554 S
C673 C675 1.388 . S
C674 C673 1.366 1_556 S
C674 C678 1.385 1_556 S
C675 H650 0.951 . S
C675 C673 1.388 . S
C675 C676 1.366 . S
C676 C675 1.366 . S
C676 C677 1.414 . S
C676 C679 1.499 . S
C677 H651 0.950 . S
C677 C676 1.414 . S
C677 C678 1.374 . S
C678 H652 0.950 1_554 S
C678 C674 1.385 1_554 S
C678 C677 1.374 . S
C679 C676 1.499 . S
C679 C680 1.373 . S
C679 C681 1.389 . S
C680 H653 0.950 . S
C680 C666 1.377 . S
C680 C679 1.373 . S
C681 C665 1.377 . S
C681 C679 1.389 . S
C681 C682 1.524 . S
C682 C681 1.524 . S
C682 C683 1.397 . S
C682 C687 1.363 . S
C683 H654 0.950 . S
C683 C682 1.397 . S
C683 C684 1.334 . S
C684 H655 0.950 . S
C684 C683 1.334 . S
C684 C685 1.287 . S
C685 C684 1.287 . S
C685 C686 1.524 . S
C685 H688 0.999 . S
C686 H656 0.950 . S
C686 C685 1.524 . S
C686 C687 1.415 . S
C687 H657 0.950 . S
C687 C682 1.363 . S
C687 C686 1.415 . S
H688 C685 0.999 . S
H689 C670 0.913 . S
H690 C708 0.951 . S
H691 C710 0.951 . S
H692 C712 0.950 . S
H693 C713 0.950 . S
H694 C715 0.950 . S
H695 C718 0.950 . S
H696 C719 0.950 . S
H697 C721 0.950 . S
H698 C722 0.950 . S
H699 C723 0.951 . S
H700 C725 0.951 . S
H701 C727 0.950 . S
H702 C728 0.950 . S
H703 C730 0.950 . S
H704 C733 0.950 . S
H705 C734 0.950 . S
H706 C736 0.950 . S
H707 C737 0.950 . S
C708 H690 0.951 . S
C708 C709 1.366 . S
C708 C710 1.388 . S
C709 C708 1.366 . S
C709 C713 1.385 . S
C710 H691 0.951 . S
C710 C708 1.388 . S
C710 C711 1.366 . S
C711 C710 1.366 . S
C711 C712 1.414 . S
C711 C714 1.499 . S
C712 H692 0.950 . S
C712 C711 1.414 . S
C712 C713 1.374 . S
C713 H693 0.950 . S
C713 C709 1.385 . S
C713 C712 1.374 . S
C714 C711 1.499 . S
C714 C715 1.373 . S
C714 C716 1.389 . S
C715 H694 0.950 . S
C715 C714 1.373 . S
C715 C731 1.377 . S
C716 C714 1.389 . S
C716 C717 1.524 . S
C716 C730 1.377 . S
C717 C716 1.524 . S
C717 C718 1.397 . S
C717 C722 1.363 . S
C718 H695 0.950 . S
C718 C717 1.397 . S
C718 C719 1.334 . S
C719 H696 0.950 . S
C719 C718 1.334 . S
C719 C720 1.287 . S
C720 C719 1.287 . S
C720 C721 1.524 . S
C720 H739 0.913 . S
C721 H697 0.950 . S
C721 C720 1.524 . S
C721 C722 1.415 . S
C722 H698 0.950 . S
C722 C717 1.363 . S
C722 C721 1.415 . S
C723 H699 0.951 . S
C723 C724 1.366 . S
C723 C725 1.388 . S
C724 C723 1.366 . S
C724 C728 1.385 . S
C725 H700 0.951 . S
C725 C723 1.388 . S
C725 C726 1.366 . S
C726 C725 1.366 . S
C726 C727 1.414 . S
C726 C729 1.499 . S
C727 H701 0.950 . S
C727 C726 1.414 . S
C727 C728 1.374 . S
C728 H702 0.950 . S
C728 C724 1.385 . S
C728 C727 1.374 . S
C729 C726 1.499 . S
C729 C730 1.373 . S
C729 C731 1.389 . S
C730 H703 0.950 . S
C730 C716 1.377 . S
C730 C729 1.373 . S
C731 C715 1.377 . S
C731 C729 1.389 . S
C731 C732 1.524 . S
C732 C731 1.524 . S
C732 C733 1.397 . S
C732 C737 1.363 . S
C733 H704 0.950 . S
C733 C732 1.397 . S
C733 C734 1.334 . S
C734 H705 0.950 . S
C734 C733 1.334 . S
C734 C735 1.287 . S
C735 C734 1.287 . S
C735 C736 1.524 . S
C735 H738 0.999 . S
C736 H706 0.950 . S
C736 C735 1.524 . S
C736 C737 1.415 . S
C737 H707 0.950 . S
C737 C732 1.363 . S
C737 C736 1.415 . S
H738 C735 0.999 . S
H739 C720 0.913 . S
H740 C758 0.951 . S
H741 C760 0.951 . S
H742 C762 0.950 . S
H743 C763 0.950 . S
H744 C765 0.950 . S
H745 C768 0.950 . S
H746 C769 0.950 . S
H747 C771 0.950 . S
H748 C772 0.950 . S
H749 C773 0.951 . S
H750 C775 0.951 . S
H751 C777 0.950 . S
H752 C778 0.950 . S
H753 C780 0.950 . S
H754 C783 0.950 . S
H755 C784 0.950 . S
H756 C786 0.950 . S
H757 C787 0.950 . S
C758 H740 0.951 . S
C758 C759 1.366 . S
C758 C760 1.388 . S
C759 C758 1.366 . S
C759 C763 1.385 . S
C760 H741 0.951 . S
C760 C758 1.388 . S
C760 C761 1.366 . S
C761 C760 1.366 . S
C761 C762 1.414 . S
C761 C764 1.499 . S
C762 H742 0.950 . S
C762 C761 1.414 . S
C762 C763 1.374 . S
C763 H743 0.950 . S
C763 C759 1.385 . S
C763 C762 1.374 . S
C764 C761 1.499 . S
C764 C765 1.373 . S
C764 C766 1.389 . S
C765 H744 0.950 . S
C765 C764 1.373 . S
C765 C781 1.377 . S
C766 C764 1.389 . S
C766 C767 1.524 . S
C766 C780 1.377 . S
C767 C766 1.524 . S
C767 C768 1.397 . S
C767 C772 1.363 . S
C768 H745 0.950 . S
C768 C767 1.397 . S
C768 C769 1.334 . S
C769 H746 0.950 . S
C769 C768 1.334 . S
C769 C770 1.287 . S
C770 C769 1.287 . S
C770 C771 1.524 . S
C770 H789 0.913 . S
C771 H747 0.950 . S
C771 C770 1.524 . S
C771 C772 1.415 . S
C772 H748 0.950 . S
C772 C767 1.363 . S
C772 C771 1.415 . S
C773 H749 0.951 . S
C773 C774 1.366 . S
C773 C775 1.388 1_554 S
C774 C773 1.366 . S
C774 C778 1.385 . S
C775 H750 0.951 . S
C775 C773 1.388 1_556 S
C775 C776 1.366 . S
C776 C775 1.366 . S
C776 C777 1.414 . S
C776 C779 1.499 . S
C777 H751 0.950 . S
C777 C776 1.414 . S
C777 C778 1.374 1_556 S
C778 H752 0.950 . S
C778 C774 1.385 . S
C778 C777 1.374 1_554 S
C779 C776 1.499 . S
C779 C780 1.373 . S
C779 C781 1.389 . S
C780 H753 0.950 . S
C780 C766 1.377 . S
C780 C779 1.373 . S
C781 C765 1.377 . S
C781 C779 1.389 . S
C781 C782 1.524 . S
C782 C781 1.524 . S
C782 C783 1.397 . S
C782 C787 1.363 . S
C783 H754 0.950 . S
C783 C782 1.397 . S
C783 C784 1.334 . S
C784 H755 0.950 . S
C784 C783 1.334 . S
C784 C785 1.287 . S
C785 C784 1.287 . S
C785 C786 1.524 . S
C785 H788 0.999 . S
C786 H756 0.950 . S
C786 C785 1.524 . S
C786 C787 1.415 . S
C787 H757 0.950 . S
C787 C782 1.363 . S
C787 C786 1.415 . S
H788 C785 0.999 . S
H789 C770 0.913 . S
H790 C808 0.951 . S
H791 C810 0.951 . S
H792 C812 0.950 . S
H793 C813 0.950 . S
H794 C815 0.950 . S
H795 C818 0.950 . S
H796 C819 0.950 . S
H797 C821 0.950 . S
H798 C822 0.950 . S
H799 C823 0.951 . S
H800 C825 0.951 . S
H801 C827 0.950 . S
H802 C828 0.950 . S
H803 C830 0.950 . S
H804 C833 0.950 . S
H805 C834 0.950 . S
H806 C836 0.950 . S
H807 C837 0.950 . S
C808 H790 0.951 . S
C808 C809 1.366 . S
C808 C810 1.388 . S
C809 C808 1.366 . S
C809 C813 1.385 . S
C810 H791 0.951 . S
C810 C808 1.388 . S
C810 C811 1.366 . S
C811 C810 1.366 . S
C811 C812 1.414 . S
C811 C814 1.499 . S
C812 H792 0.950 . S
C812 C811 1.414 . S
C812 C813 1.374 . S
C813 H793 0.950 . S
C813 C809 1.385 . S
C813 C812 1.374 . S
C814 C811 1.499 . S
C814 C815 1.373 . S
C814 C816 1.389 . S
C815 H794 0.950 . S
C815 C814 1.373 . S
C815 C831 1.377 . S
C816 C814 1.389 . S
C816 C817 1.524 . S
C816 C830 1.377 . S
C817 C816 1.524 . S
C817 C818 1.397 . S
C817 C822 1.363 . S
C818 H795 0.950 . S
C818 C817 1.397 . S
C818 C819 1.334 . S
C819 H796 0.950 . S
C819 C818 1.334 . S
C819 C820 1.287 . S
C820 C819 1.287 . S
C820 C821 1.524 . S
C820 H839 0.913 . S
C821 H797 0.950 . S
C821 C820 1.524 . S
C821 C822 1.415 . S
C822 H798 0.950 . S
C822 C817 1.363 . S
C822 C821 1.415 . S
C823 H799 0.951 . S
C823 C824 1.366 . S
C823 C825 1.388 . S
C824 C823 1.366 . S
C824 C828 1.385 . S
C825 H800 0.951 . S
C825 C823 1.388 . S
C825 C826 1.366 . S
C826 C825 1.366 . S
C826 C827 1.414 . S
C826 C829 1.499 . S
C827 H801 0.950 . S
C827 C826 1.414 . S
C827 C828 1.374 . S
C828 H802 0.950 . S
C828 C824 1.385 . S
C828 C827 1.374 . S
C829 C826 1.499 . S
C829 C830 1.373 . S
C829 C831 1.389 . S
C830 H803 0.950 . S
C830 C816 1.377 . S
C830 C829 1.373 . S
C831 C815 1.377 . S
C831 C829 1.389 . S
C831 C832 1.524 . S
C832 C831 1.524 . S
C832 C833 1.397 . S
C832 C837 1.363 . S
C833 H804 0.950 . S
C833 C832 1.397 . S
C833 C834 1.334 . S
C834 H805 0.950 . S
C834 C833 1.334 . S
C834 C835 1.287 . S
C835 C834 1.287 . S
C835 C836 1.524 . S
C835 H838 0.999 . S
C836 H806 0.950 . S
C836 C835 1.524 . S
C836 C837 1.415 . S
C837 H807 0.950 . S
C837 C832 1.363 . S
C837 C836 1.415 . S
H838 C835 0.999 . S
H839 C820 0.913 . S
H840 C858 0.951 . S
H841 C860 0.951 . S
H842 C862 0.950 . S
H843 C863 0.950 . S
H844 C865 0.950 . S
H845 C868 0.950 . S
H846 C869 0.950 . S
H847 C871 0.950 . S
H848 C872 0.950 . S
H849 C873 0.951 . S
H850 C875 0.951 . S
H851 C877 0.950 . S
H852 C878 0.950 . S
H853 C880 0.950 . S
H854 C883 0.950 . S
H855 C884 0.950 . S
H856 C886 0.950 . S
H857 C887 0.950 . S
C858 H840 0.951 . S
C858 C859 1.366 . S
C858 C860 1.388 . S
C859 C858 1.366 . S
C859 C863 1.385 . S
C860 H841 0.951 . S
C860 C858 1.388 . S
C860 C861 1.366 . S
C861 C860 1.366 . S
C861 C862 1.414 . S
C861 C864 1.499 . S
C862 H842 0.950 . S
C862 C861 1.414 . S
C862 C863 1.374 . S
C863 H843 0.950 . S
C863 C859 1.385 . S
C863 C862 1.374 . S
C864 C861 1.499 . S
C864 C865 1.373 . S
C864 C866 1.389 . S
C865 H844 0.950 . S
C865 C864 1.373 . S
C865 C881 1.377 . S
C866 C864 1.389 . S
C866 C867 1.524 . S
C866 C880 1.377 . S
C867 C866 1.524 . S
C867 C868 1.397 . S
C867 C872 1.363 . S
C868 H845 0.950 . S
C868 C867 1.397 . S
C868 C869 1.334 . S
C869 H846 0.950 . S
C869 C868 1.334 . S
C869 C870 1.287 . S
C870 C869 1.287 . S
C870 C871 1.524 . S
C870 H889 0.913 . S
C871 H847 0.950 . S
C871 C870 1.524 . S
C871 C872 1.415 . S
C872 H848 0.950 . S
C872 C867 1.363 . S
C872 C871 1.415 . S
C873 H849 0.951 . S
C873 C874 1.366 . S
C873 C875 1.388 . S
C874 C873 1.366 . S
C874 C878 1.385 . S
C875 H850 0.951 . S
C875 C873 1.388 . S
C875 C876 1.366 . S
C876 C875 1.366 . S
C876 C877 1.414 . S
C876 C879 1.499 . S
C877 H851 0.950 . S
C877 C876 1.414 . S
C877 C878 1.374 . S
C878 H852 0.950 . S
C878 C874 1.385 . S
C878 C877 1.374 . S
C879 C876 1.499 . S
C879 C880 1.373 . S
C879 C881 1.389 . S
C880 H853 0.950 . S
C880 C866 1.377 . S
C880 C879 1.373 . S
C881 C865 1.377 . S
C881 C879 1.389 . S
C881 C882 1.524 . S
C882 C881 1.524 . S
C882 C883 1.397 . S
C882 C887 1.363 . S
C883 H854 0.950 . S
C883 C882 1.397 . S
C883 C884 1.334 . S
C884 H855 0.950 . S
C884 C883 1.334 . S
C884 C885 1.287 . S
C885 C884 1.287 . S
C885 C886 1.524 . S
C885 H888 0.999 . S
C886 H856 0.950 . S
C886 C885 1.524 . S
C886 C887 1.415 . S
C887 H857 0.950 . S
C887 C882 1.363 . S
C887 C886 1.415 . S
H888 C885 0.999 . S
H889 C870 0.913 . S
H890 C908 0.951 . S
H891 C910 0.951 . S
H892 C912 0.950 . S
H893 C913 0.950 . S
H894 C915 0.950 . S
H895 C918 0.950 . S
H896 C919 0.950 . S
H897 C921 0.950 . S
H898 C922 0.950 . S
H899 C923 0.951 . S
H900 C925 0.951 . S
H901 C927 0.950 . S
H902 C928 0.950 . S
H903 C930 0.950 . S
H904 C933 0.950 . S
H905 C934 0.950 . S
H906 C936 0.950 . S
H907 C937 0.950 . S
C908 H890 0.951 . S
C908 C909 1.366 . S
C908 C910 1.388 . S
C909 C908 1.366 . S
C909 C913 1.385 . S
C910 H891 0.951 . S
C910 C908 1.388 . S
C910 C911 1.366 . S
C911 C910 1.366 . S
C911 C912 1.414 . S
C911 C914 1.499 . S
C912 H892 0.950 . S
C912 C911 1.414 . S
C912 C913 1.374 . S
C913 H893 0.950 . S
C913 C909 1.385 . S
C913 C912 1.374 . S
C914 C911 1.499 . S
C914 C915 1.373 . S
C914 C916 1.389 . S
C915 H894 0.950 . S
C915 C914 1.373 . S
C915 C931 1.377 . S
C916 C914 1.389 . S
C916 C917 1.524 . S
C916 C930 1.377 . S
C917 C916 1.524 . S
C917 C918 1.397 . S
C917 C922 1.363 . S
C918 H895 0.950 . S
C918 C917 1.397 . S
C918 C919 1.334 . S
C919 H896 0.950 . S
C919 C918 1.334 . S
C919 C920 1.287 . S
C920 C919 1.287 . S
C920 C921 1.524 . S
C920 H939 0.913 . S
C921 H897 0.950 . S
C921 C920 1.524 . S
C921 C922 1.415 . S
C922 H898 0.950 . S
C922 C917 1.363 . S
C922 C921 1.415 . S
C923 H899 0.951 . S
C923 C924 1.366 . S
C923 C925 1.388 . S
C924 C923 1.366 . S
C924 C928 1.385 . S
C925 H900 0.951 . S
C925 C923 1.388 . S
C925 C926 1.366 . S
C926 C925 1.366 . S
C926 C927 1.414 . S
C926 C929 1.499 . S
C927 H901 0.950 . S
C927 C926 1.414 . S
C927 C928 1.374 . S
C928 H902 0.950 . S
C928 C924 1.385 . S
C928 C927 1.374 . S
C929 C926 1.499 . S
C929 C930 1.373 . S
C929 C931 1.389 . S
C930 H903 0.950 . S
C930 C916 1.377 . S
C930 C929 1.373 . S
C931 C915 1.377 . S
C931 C929 1.389 . S
C931 C932 1.524 . S
C932 C931 1.524 . S
C932 C933 1.397 . S
C932 C937 1.363 . S
C933 H904 0.950 . S
C933 C932 1.397 . S
C933 C934 1.334 . S
C934 H905 0.950 . S
C934 C933 1.334 . S
C934 C935 1.287 . S
C935 C934 1.287 . S
C935 C936 1.524 . S
C935 H938 0.999 . S
C936 H906 0.950 . S
C936 C935 1.524 . S
C936 C937 1.415 . S
C937 H907 0.950 . S
C937 C932 1.363 . S
C937 C936 1.415 . S
H938 C935 0.999 . S
H939 C920 0.913 . S
H940 C958 0.951 . S
H941 C960 0.951 . S
H942 C962 0.950 . S
H943 C963 0.950 . S
H944 C965 0.950 . S
H945 C968 0.950 . S
H946 C969 0.964 . S
H947 C971 0.950 . S
H948 C972 0.950 . S
H949 C973 0.951 . S
H950 C975 0.951 . S
H951 C977 0.950 . S
H952 C978 0.950 . S
H953 C980 0.950 . S
H954 C983 0.950 . S
H955 C984 0.950 . S
H956 C986 0.950 . S
H957 C987 0.950 . S
C958 H940 0.951 . S
C958 C959 1.366 . S
C958 C960 1.388 . S
C959 C958 1.366 . S
C959 C963 1.385 . S
C960 H941 0.951 . S
C960 C958 1.388 . S
C960 C961 1.366 . S
C961 C960 1.366 . S
C961 C962 1.414 . S
C961 C964 1.499 . S
C962 H942 0.950 . S
C962 C961 1.414 . S
C962 C963 1.374 . S
C963 H943 0.950 . S
C963 C959 1.385 . S
C963 C962 1.374 . S
C964 C961 1.499 . S
C964 C965 1.373 . S
C964 C966 1.389 . S
C965 H944 0.950 . S
C965 C964 1.373 . S
C965 C981 1.377 . S
C966 C964 1.389 . S
C966 C967 1.524 . S
C966 C980 1.377 . S
C967 C966 1.524 . S
C967 C968 1.397 . S
C967 C972 1.363 . S
C968 H945 0.950 . S
C968 C967 1.397 . S
C968 C969 1.334 . S
C969 H946 0.964 . S
C969 C968 1.334 . S
C969 C970 1.287 . S
C970 C969 1.287 . S
C970 C971 1.524 . S
C970 H989 0.913 . S
C971 H947 0.950 . S
C971 C970 1.524 . S
C971 C972 1.415 . S
C972 H948 0.950 . S
C972 C967 1.363 . S
C972 C971 1.415 . S
C973 H949 0.951 . S
C973 C974 1.366 . S
C973 C975 1.388 . S
C974 C973 1.366 . S
C974 C978 1.385 . S
C975 H950 0.951 . S
C975 C973 1.388 . S
C975 C976 1.366 . S
C976 C975 1.366 . S
C976 C977 1.414 . S
C976 C979 1.499 . S
C977 H951 0.950 . S
C977 C976 1.414 . S
C977 C978 1.374 . S
C978 H952 0.950 . S
C978 C974 1.385 . S
C978 C977 1.374 . S
C979 C976 1.499 . S
C979 C980 1.373 . S
C979 C981 1.389 . S
C980 H953 0.950 . S
C980 C966 1.377 . S
C980 C979 1.373 . S
C981 C965 1.377 . S
C981 C979 1.389 . S
C981 C982 1.524 . S
C982 C981 1.524 . S
C982 C983 1.397 . S
C982 C987 1.363 . S
C983 H954 0.950 . S
C983 C982 1.397 . S
C983 C984 1.334 . S
C984 H955 0.950 . S
C984 C983 1.334 . S
C984 C985 1.287 . S
C985 C984 1.287 . S
C985 C986 1.524 . S
C985 H988 0.999 . S
C986 H956 0.950 . S
C986 C985 1.524 . S
C986 C987 1.415 . S
C987 H957 0.950 . S
C987 C982 1.363 . S
C987 C986 1.415 . S
H988 C985 0.999 . S
H989 C970 0.913 . S
H990 C1008 0.951 . S
H991 C1010 0.951 . S
H992 C1012 0.950 . S
H993 C1013 0.950 . S
H994 C1015 0.950 . S
H995 C1018 0.950 . S
H996 C1019 0.950 . S
H997 C1021 0.950 . S
H998 C1022 0.950 . S
H999 C1023 0.951 . S
H1000 C1025 0.951 . S
H1001 C1027 0.950 . S
H1002 C1028 0.950 . S
H1003 C1030 0.950 . S
H1004 C1033 0.950 . S
H1005 C1034 0.950 . S
H1006 C1036 0.950 . S
H1007 C1037 0.950 . S
C1008 H990 0.951 . S
C1008 C1009 1.366 . S
C1008 C1010 1.388 . S
C1009 C1008 1.366 . S
C1009 C1013 1.385 . S
C1010 H991 0.951 . S
C1010 C1008 1.388 . S
C1010 C1011 1.366 . S
C1011 C1010 1.366 . S
C1011 C1012 1.414 . S
C1011 C1014 1.499 . S
C1012 H992 0.950 . S
C1012 C1011 1.414 . S
C1012 C1013 1.374 . S
C1013 H993 0.950 . S
C1013 C1009 1.385 . S
C1013 C1012 1.374 . S
C1014 C1011 1.499 . S
C1014 C1015 1.373 . S
C1014 C1016 1.389 . S
C1015 H994 0.950 . S
C1015 C1014 1.373 . S
C1015 C1031 1.377 . S
C1016 C1014 1.389 . S
C1016 C1017 1.524 . S
C1016 C1030 1.377 . S
C1017 C1016 1.524 . S
C1017 C1018 1.397 . S
C1017 C1022 1.363 . S
C1018 H995 0.950 . S
C1018 C1017 1.397 . S
C1018 C1019 1.334 . S
C1019 H996 0.950 . S
C1019 C1018 1.334 . S
C1019 C1020 1.287 . S
C1020 C1019 1.287 . S
C1020 C1021 1.524 . S
C1020 H1039 0.913 . S
C1021 H997 0.950 . S
C1021 C1020 1.524 . S
C1021 C1022 1.415 . S
C1022 H998 0.950 . S
C1022 C1017 1.363 . S
C1022 C1021 1.415 . S
C1023 H999 0.951 . S
C1023 C1024 1.366 . S
C1023 C1025 1.388 . S
C1024 C1023 1.366 . S
C1024 C1028 1.385 . S
C1025 H1000 0.951 . S
C1025 C1023 1.388 . S
C1025 C1026 1.366 . S
C1026 C1025 1.366 . S
C1026 C1027 1.414 . S
C1026 C1029 1.499 . S
C1027 H1001 0.950 . S
C1027 C1026 1.414 . S
C1027 C1028 1.374 . S
C1028 H1002 0.950 . S
C1028 C1024 1.385 . S
C1028 C1027 1.374 . S
C1029 C1026 1.499 . S
C1029 C1030 1.373 . S
C1029 C1031 1.389 . S
C1030 H1003 0.950 . S
C1030 C1016 1.377 . S
C1030 C1029 1.373 . S
C1031 C1015 1.377 . S
C1031 C1029 1.389 . S
C1031 C1032 1.524 . S
C1032 C1031 1.524 . S
C1032 C1033 1.397 . S
C1032 C1037 1.363 . S
C1033 H1004 0.950 . S
C1033 C1032 1.397 . S
C1033 C1034 1.334 . S
C1034 H1005 0.950 . S
C1034 C1033 1.334 . S
C1034 C1035 1.287 . S
C1035 C1034 1.287 . S
C1035 C1036 1.524 . S
C1035 H1038 0.999 . S
C1036 H1006 0.950 . S
C1036 C1035 1.524 . S
C1036 C1037 1.415 . S
C1037 H1007 0.950 . S
C1037 C1032 1.363 . S
C1037 C1036 1.415 . S
H1038 C1035 0.999 . S
H1039 C1020 0.913 . S
H1040 C1058 0.951 . S
H1041 C1060 0.951 . S
H1042 C1062 0.950 . S
H1043 C1063 0.950 . S
H1044 C1065 0.950 . S
H1045 C1068 0.950 . S
H1046 C1069 0.950 . S
H1047 C1071 0.950 . S
H1048 C1072 0.950 . S
H1049 C1073 0.951 . S
H1050 C1075 0.951 . S
H1051 C1077 0.950 . S
H1052 C1078 0.950 . S
H1053 C1080 0.950 . S
H1054 C1083 0.950 . S
H1055 C1084 0.950 . S
H1056 C1086 0.950 . S
H1057 C1087 0.950 . S
C1058 H1040 0.951 . S
C1058 C1059 1.366 . S
C1058 C1060 1.388 . S
C1059 C1058 1.366 . S
C1059 C1063 1.385 . S
C1060 H1041 0.951 . S
C1060 C1058 1.388 . S
C1060 C1061 1.366 . S
C1061 C1060 1.366 . S
C1061 C1062 1.414 . S
C1061 C1064 1.499 . S
C1062 H1042 0.950 . S
C1062 C1061 1.414 . S
C1062 C1063 1.374 . S
C1063 H1043 0.950 . S
C1063 C1059 1.385 . S
C1063 C1062 1.374 . S
C1064 C1061 1.499 . S
C1064 C1065 1.373 . S
C1064 C1066 1.389 . S
C1065 H1044 0.950 . S
C1065 C1064 1.373 . S
C1065 C1081 1.377 . S
C1066 C1064 1.389 . S
C1066 C1067 1.524 . S
C1066 C1080 1.377 . S
C1067 C1066 1.524 . S
C1067 C1068 1.397 . S
C1067 C1072 1.363 . S
C1068 H1045 0.950 . S
C1068 C1067 1.397 . S
C1068 C1069 1.334 . S
C1069 H1046 0.950 . S
C1069 C1068 1.334 . S
C1069 C1070 1.287 . S
C1070 C1069 1.287 . S
C1070 C1071 1.524 . S
C1070 H1089 0.913 . S
C1071 H1047 0.950 . S
C1071 C1070 1.524 . S
C1071 C1072 1.415 . S
C1072 H1048 0.950 . S
C1072 C1067 1.363 . S
C1072 C1071 1.415 . S
C1073 H1049 0.951 . S
C1073 C1074 1.366 . S
C1073 C1075 1.388 . S
C1074 C1073 1.366 . S
C1074 C1078 1.385 . S
C1075 H1050 0.951 . S
C1075 C1073 1.388 . S
C1075 C1076 1.366 . S
C1076 C1075 1.366 . S
C1076 C1077 1.414 . S
C1076 C1079 1.499 . S
C1077 H1051 0.950 . S
C1077 C1076 1.414 . S
C1077 C1078 1.374 . S
C1078 H1052 0.950 . S
C1078 C1074 1.385 . S
C1078 C1077 1.374 . S
C1079 C1076 1.499 . S
C1079 C1080 1.373 . S
C1079 C1081 1.389 . S
C1080 H1053 0.950 . S
C1080 C1066 1.377 . S
C1080 C1079 1.373 . S
C1081 C1065 1.377 . S
C1081 C1079 1.389 . S
C1081 C1082 1.524 . S
C1082 C1081 1.524 . S
C1082 C1083 1.397 . S
C1082 C1087 1.363 . S
C1083 H1054 0.950 . S
C1083 C1082 1.397 . S
C1083 C1084 1.334 . S
C1084 H1055 0.950 . S
C1084 C1083 1.334 . S
C1084 C1085 1.287 . S
C1085 C1084 1.287 . S
C1085 C1086 1.524 . S
C1085 H1088 0.999 . S
C1086 H1056 0.950 . S
C1086 C1085 1.524 . S
C1086 C1087 1.415 . S
C1087 H1057 0.950 . S
C1087 C1082 1.363 . S
C1087 C1086 1.415 . S
H1088 C1085 0.999 . S
H1089 C1070 0.913 . S
H1090 C1108 0.951 . S
H1091 C1110 0.951 . S
H1092 C1112 0.950 . S
H1093 C1113 0.950 . S
H1094 C1115 0.950 . S
H1095 C1118 0.950 . S
H1096 C1119 0.950 . S
H1097 C1121 0.950 . S
H1098 C1122 0.950 1_554 S
H1099 C1123 0.951 . S
H1100 C1125 0.951 . S
H1101 C1127 0.950 . S
H1102 C1128 0.950 . S
H1103 C1130 0.950 . S
H1104 C1133 0.950 . S
H1105 C1134 0.950 . S
H1106 C1136 0.950 . S
H1107 C1137 0.950 . S
C1108 H1090 0.951 . S
C1108 C1109 1.366 . S
C1108 C1110 1.388 . S
C1109 C1108 1.366 . S
C1109 C1113 1.385 . S
C1110 H1091 0.951 . S
C1110 C1108 1.388 . S
C1110 C1111 1.366 . S
C1111 C1110 1.366 . S
C1111 C1112 1.414 . S
C1111 C1114 1.499 . S
C1112 H1092 0.950 . S
C1112 C1111 1.414 . S
C1112 C1113 1.374 . S
C1113 H1093 0.950 . S
C1113 C1109 1.385 . S
C1113 C1112 1.374 . S
C1114 C1111 1.499 . S
C1114 C1115 1.373 . S
C1114 C1116 1.389 . S
C1115 H1094 0.950 . S
C1115 C1114 1.373 . S
C1115 C1131 1.377 . S
C1116 C1114 1.389 . S
C1116 C1117 1.524 . S
C1116 C1130 1.377 1_554 S
C1117 C1116 1.524 . S
C1117 C1118 1.397 1_554 S
C1117 C1122 1.363 1_554 S
C1118 H1095 0.950 . S
C1118 C1117 1.397 1_556 S
C1118 C1119 1.334 . S
C1119 H1096 0.950 . S
C1119 C1118 1.334 . S
C1119 C1120 1.287 . S
C1120 C1119 1.287 . S
C1120 C1121 1.524 . S
C1120 H1139 0.913 . S
C1121 H1097 0.950 . S
C1121 C1120 1.524 . S
C1121 C1122 1.415 . S
C1122 H1098 0.950 1_556 S
C1122 C1117 1.363 1_556 S
C1122 C1121 1.415 . S
C1123 H1099 0.951 . S
C1123 C1124 1.366 . S
C1123 C1125 1.388 . S
C1124 C1123 1.366 . S
C1124 C1128 1.385 . S
C1125 H1100 0.951 . S
C1125 C1123 1.388 . S
C1125 C1126 1.366 . S
C1126 C1125 1.366 . S
C1126 C1127 1.414 . S
C1126 C1129 1.499 1_556 S
C1127 H1101 0.950 . S
C1127 C1126 1.414 . S
C1127 C1128 1.374 . S
C1128 H1102 0.950 . S
C1128 C1124 1.385 . S
C1128 C1127 1.374 . S
C1129 C1126 1.499 1_554 S
C1129 C1130 1.373 1_554 S
C1129 C1131 1.389 . S
C1130 H1103 0.950 . S
C1130 C1116 1.377 1_556 S
C1130 C1129 1.373 1_556 S
C1131 C1115 1.377 . S
C1131 C1129 1.389 . S
C1131 C1132 1.524 . S
C1132 C1131 1.524 . S
C1132 C1133 1.397 . S
C1132 C1137 1.363 . S
C1133 H1104 0.950 . S
C1133 C1132 1.397 . S
C1133 C1134 1.334 . S
C1134 H1105 0.950 . S
C1134 C1133 1.334 . S
C1134 C1135 1.287 . S
C1135 C1134 1.287 . S
C1135 C1136 1.524 . S
C1135 H1138 0.999 . S
C1136 H1106 0.950 . S
C1136 C1135 1.524 . S
C1136 C1137 1.415 . S
C1137 H1107 0.950 . S
C1137 C1132 1.363 . S
C1137 C1136 1.415 . S
H1138 C1135 0.999 . S
H1139 C1120 0.913 . S
C259 C217 1.323 . S
C274 C17 1.324 1_556 S
C309 C31 1.566 . S
C324 C71 1.566 . S
C359 C57 1.323 . S
C374 C97 1.324 . S
C409 C111 1.567 . S
C424 C151 1.567 . S
C459 C177 1.324 . S
C474 C137 1.324 . S
C509 C231 1.566 . S
C524 C191 1.567 . S
C559 C29 0.984 . S
C574 C8 0.984 . S
C609 C48 0.984 . S
C624 C69 0.984 . S
C659 C109 0.984 . S
C674 C88 0.984 . S
C709 C128 0.985 . S
C724 C149 0.985 . S
C759 C168 0.984 . S
C774 C189 0.984 . S
C809 C208 0.984 . S
C824 C229 0.984 . S
C859 C2 1.824 . S
C874 C172 1.822 . S
C909 C52 1.822 . S
C924 C202 1.824 . S
C959 C12 1.822 . S
C974 C82 1.824 . S
C1009 C42 1.825 . S
C1024 C132 1.823 . S
C1059 C162 1.824 . S
C1074 C92 1.822 . S
C1109 C122 1.824 . S
C1124 C212 1.822 . S
