# Generated by pormake.
# Topology qtz-x, (6)-cn, num edge types: 1
# Building blocks:
#     Node 0, Type 0, BuildingBlock: PAMTUU_clean_sbu_0, # of connection points: 6
#     Node 1, Type 0, BuildingBlock: PAMTUU_clean_sbu_0, # of connection points: 6
#     Node 2, Type 0, BuildingBlock: PAMTUU_clean_sbu_0, # of connection points: 6
#     Edge 3, Type (0, 0), BuildingBlock: TEMPAE_clean_linker_10, # of connection points: 2
#     Edge 4, Type (0, 0), BuildingBlock: TEMPAE_clean_linker_10, # of connection points: 2
#     Edge 5, Type (0, 0), BuildingBlock: TEMPAE_clean_linker_10, # of connection points: 2
#     Edge 6, Type (0, 0), BuildingBlock: TEMPAE_clean_linker_10, # of connection points: 2
#     Edge 7, Type (0, 0), BuildingBlock: TEMPAE_clean_linker_10, # of connection points: 2
#     Edge 8, Type (0, 0), BuildingBlock: TEMPAE_clean_linker_10, # of connection points: 2
#     Edge 9, Type (0, 0), BuildingBlock: TEMPAE_clean_linker_10, # of connection points: 2
#     Edge 10, Type (0, 0), BuildingBlock: TEMPAE_clean_linker_10, # of connection points: 2
#     Edge 11, Type (0, 0), BuildingBlock: TEMPAE_clean_linker_10, # of connection points: 2
# Relax obj value: 0.125
# Max RMSD: 0.230
# Mean RMSD: 0.230
data_MOF--net-qtz-x--node1-PAMTUU_clean_sbu_0--edge1-TEMPAE_clean_linker_10
_symmetry_space_group_name_H-M    P1
_symmetry_Int_Tables_number       1
_symmetry_cell_setting            triclinic
loop_
_symmetry_equiv_pos_as_xyz
'x, y, z'
_cell_length_a     15.298027
_cell_length_b     15.300784
_cell_length_c     54.87364
_cell_angle_alpha  90.067305
_cell_angle_beta   89.851382
_cell_angle_gamma 119.96299
loop_
_atom_site_label
_atom_site_type_symbol
_atom_site_fract_x
_atom_site_fract_y
_atom_site_fract_z
_atom_type_partial_charge
Tb0 Tb 0.08614 0.66179 0.16547 0.0
Tb1 Tb 0.86443 0.5525 0.19254 0.0
C2 C 0.97345 0.43648 0.17859 0.0
C3 C 0.268 0.73314 0.11478 0.0
C4 C 0.30503 0.71594 0.06497 0.0
C5 C 0.35216 0.6898 0.08325 0.0
C6 C 0.33419 0.69883 0.10791 0.0
C7 C 0.22027 0.75857 0.09647 0.0
C8 C 0.23905 0.75056 0.07186 0.0
C9 C 0.24729 0.73946 0.14093 0.0
O10 O 0.97662 0.63652 0.1373 0.0
O11 O 0.82881 0.51131 0.15428 0.0
O12 O 0.88951 0.69322 0.1768 0.0
O13 O 0.06084 0.77825 0.18088 0.0
O14 O 0.73313 0.42064 0.20371 0.0
O15 O 0.75829 0.56771 0.21367 0.0
O16 O 0.97587 0.63806 0.22019 0.0
O17 O 0.11945 0.64986 0.20361 0.0
O18 O 0.01472 0.49985 0.16049 0.0
O19 O 0.93272 0.45867 0.19684 0.0
C20 C 0.88213 0.56405 0.13533 0.0
O21 O 0.19759 0.78581 0.14614 0.0
O22 O 0.21484 0.65688 0.15362 0.0
C23 C 0.97537 0.77821 0.1787 0.0
C24 C 0.69004 0.44225 0.24359 0.0
C25 C 0.66562 0.39652 0.2939 0.0
C26 C 0.58183 0.37537 0.27919 0.0
C27 C 0.59411 0.39857 0.25427 0.0
C28 C 0.77346 0.46211 0.25806 0.0
C29 C 0.76167 0.44043 0.28296 0.0
C30 C 0.70478 0.47103 0.21769 0.0
C31 C 0.06742 0.65216 0.22252 0.0
H32 H 0.40387 0.66349 0.07845 0.0
H33 H 0.37167 0.67853 0.12165 0.0
H34 H 0.16785 0.78417 0.10109 0.0
H35 H 0.20074 0.77006 0.05817 0.0
H36 H 0.5065 0.33996 0.28684 0.0
H37 H 0.52882 0.38256 0.24337 0.0
H38 H 0.84807 0.49526 0.2501 0.0
H39 H 0.82822 0.45931 0.29365 0.0
Tb40 Tb 0.45268 0.95212 0.49865 0.0
Tb41 Tb 0.56629 0.17475 0.5257 0.0
C42 C 0.34016 0.06653 0.512 0.0
C43 C 0.35091 0.77278 0.44773 0.0
C44 C 0.30392 0.74148 0.39745 0.0
C45 C 0.2352 0.67623 0.41509 0.0
C46 C 0.25861 0.69173 0.43996 0.0
C47 C 0.41988 0.83769 0.43018 0.0
C48 C 0.39689 0.82196 0.40537 0.0
C49 C 0.37354 0.79135 0.47404 0.0
O50 O 0.52998 0.06193 0.46997 0.0
O51 O 0.55999 0.21166 0.48764 0.0
O52 O 0.67969 0.14896 0.50885 0.0
O53 O 0.59454 0.97873 0.51413 0.0
O54 O 0.57244 0.30971 0.5365 0.0
O55 O 0.68909 0.27699 0.54688 0.0
O56 O 0.53524 0.06229 0.55358 0.0
O57 O 0.40521 0.91844 0.53663 0.0
O58 O 0.35991 0.02146 0.49429 0.0
O59 O 0.40446 0.11047 0.52982 0.0
C60 C 0.55286 0.15683 0.46843 0.0
O61 O 0.46885 0.84175 0.47981 0.0
O62 O 0.32123 0.82281 0.48625 0.0
C63 C 0.67961 0.06378 0.51129 0.0
C64 C 0.64134 0.35738 0.57652 0.0
C65 C 0.62322 0.39177 0.62655 0.0
C66 C 0.70816 0.38862 0.61785 0.0
C67 C 0.7173 0.37217 0.59314 0.0
C68 C 0.55683 0.3616 0.58511 0.0
C69 C 0.54799 0.37873 0.60982 0.0
C70 C 0.65 0.33454 0.55063 0.0
C71 C 0.45771 0.9705 0.55567 0.0
H72 H 0.16224 0.61447 0.40974 0.0
H73 H 0.204 0.64117 0.45317 0.0
H74 H 0.49161 0.90124 0.43559 0.0
H75 H 0.45233 0.87302 0.3924 0.0
H76 H 0.76707 0.39725 0.63019 0.0
H77 H 0.78343 0.36958 0.58707 0.0
H78 H 0.49706 0.35111 0.57282 0.0
H79 H 0.48244 0.38257 0.61576 0.0
Tb80 Tb 0.43874 0.65739 0.83178 0.0
Tb81 Tb 0.55102 0.5461 0.85757 0.0
C82 C 0.66586 0.77228 0.84409 0.0
C83 C 0.33527 0.73976 0.78236 0.0
C84 C 0.31882 0.75191 0.73132 0.0
C85 C 0.32263 0.82726 0.74682 0.0
C86 C 0.33079 0.82115 0.77207 0.0
C87 C 0.32841 0.66276 0.76713 0.0
C88 C 0.31976 0.66849 0.74188 0.0
C89 C 0.35917 0.74176 0.8084 0.0
O90 O 0.51864 0.62773 0.80304 0.0
O91 O 0.53675 0.49927 0.8196 0.0
O92 O 0.38872 0.45176 0.86188 0.0
O93 O 0.34428 0.49627 0.8265 0.0
O94 O 0.68214 0.55628 0.87235 0.0
O95 O 0.54091 0.41656 0.87386 0.0
O96 O 0.53181 0.63558 0.8855 0.0
O97 O 0.39585 0.64285 0.87025 0.0
O98 O 0.58098 0.77273 0.84692 0.0
O99 O 0.66579 0.68702 0.8416 0.0
C100 C 0.53565 0.55184 0.80071 0.0
O101 O 0.30747 0.65775 0.82051 0.0
O102 O 0.45515 0.7844 0.81316 0.0
C103 C 0.32446 0.43116 0.84407 0.0
C104 C 0.64288 0.46384 0.90897 0.0
C105 C 0.65849 0.45658 0.96019 0.0
C106 C 0.6415 0.37372 0.94558 0.0
C107 C 0.63381 0.37743 0.9202 0.0
C108 C 0.65842 0.546 0.92352 0.0
C109 C 0.66654 0.54261 0.94878 0.0
C110 C 0.63248 0.46725 0.8823 0.0
C111 C 0.4537 0.64818 0.88861 0.0
H112 H 0.32399 0.89347 0.7394 0.0
H113 H 0.33752 0.88201 0.7835 0.0
H114 H 0.33292 0.59974 0.7747 0.0
H115 H 0.31591 0.60853 0.73061 0.0
H116 H 0.63356 0.30575 0.95375 0.0
H117 H 0.62051 0.31274 0.90934 0.0
H118 H 0.66508 0.61347 0.91537 0.0
H119 H 0.68129 0.60853 0.95929 0.0
C120 C 0.06341 0.96531 0.18452 0.0
C121 C 0.9756 0.87502 0.17856 0.0
C122 C 0.06429 0.05746 0.18466 0.0
C123 C 0.97551 0.05938 0.17846 0.0
C124 C 0.88685 0.96866 0.17227 0.0
C125 C 0.88783 0.87748 0.1725 0.0
C126 C 0.16005 0.15266 0.19155 0.0
C127 C 0.79098 0.96793 0.16535 0.0
C128 C 0.9465 0.27992 0.19957 0.0
C129 C 0.97382 0.34001 0.17854 0.0
C130 C 0.94738 0.18869 0.19984 0.0
C131 C 0.97525 0.15636 0.17851 0.0
C132 C 0.00244 0.2164 0.15719 0.0
C133 C 0.00189 0.30781 0.1575 0.0
C134 C 0.91882 0.12705 0.22298 0.0
C135 C 0.03167 0.18386 0.13403 0.0
H136 H 0.13146 0.96403 0.18931 0.0
H137 H 0.81977 0.80813 0.16775 0.0
H138 H 0.1848 0.20768 0.17634 0.0
H139 H 0.14591 0.18843 0.20753 0.0
H140 H 0.22246 0.13818 0.19606 0.0
H141 H 0.72886 0.8911 0.16071 0.0
H142 H 0.76577 -0.00231 0.18062 0.0
H143 H 0.80516 0.0181 0.14946 0.0
H144 H 0.92519 0.30455 0.21593 0.0
H145 H 0.02275 0.35367 0.14116 0.0
H146 H 0.98181 0.11572 0.22885 0.0
H147 H 0.85261 0.0513 0.21964 0.0
H148 H 0.90025 0.16344 0.2381 0.0
H149 H 0.09808 0.17461 0.13738 0.0
H150 H 0.05017 0.2389 0.11898 0.0
H151 H 0.96902 0.10953 0.12807 0.0
C152 C 0.18275 0.0367 0.49105 0.0
C153 C 0.24382 0.06716 0.51189 0.0
C154 C 0.09099 0.03649 0.49067 0.0
C155 C 0.0591 0.06648 0.51172 0.0
C156 C 0.12023 0.09711 0.53284 0.0
C157 C 0.21219 0.0976 0.53263 0.0
C158 C 0.02828 0.00438 0.46772 0.0
C159 C 0.0882 0.12878 0.5557 0.0
C160 C 0.86615 0.15149 0.50463 0.0
C161 C 0.77647 0.06415 0.51127 0.0
C162 C 0.95867 0.15319 0.50462 0.0
C163 C 0.96165 0.06575 0.51163 0.0
C164 C 0.87151 0.97745 0.51843 0.0
C165 C 0.77986 0.97755 0.51806 0.0
C166 C 0.05317 0.24845 0.49702 0.0
C167 C 0.87196 0.88301 0.5262 0.0
H168 H 0.20691 0.01357 0.4749 0.0
H169 H 0.25879 0.12086 0.54884 0.0
H170 H 0.95304 0.93811 0.47155 0.0
H171 H 0.0158 0.06603 0.4613 0.0
H172 H 0.06445 0.98448 0.4528 0.0
H173 H 0.1441 0.14989 0.57063 0.0
H174 H 0.07782 0.19411 0.55176 0.0
H175 H 0.01449 0.06639 0.56214 0.0
H176 H 0.86412 0.21862 0.49927 0.0
H177 H 0.71095 0.9099 0.52331 0.0
H178 H 0.08877 0.23263 0.48127 0.0
H179 H 0.10871 0.27569 0.51211 0.0
H180 H 0.03782 0.30972 0.49189 0.0
H181 H 0.9017 0.85636 0.51123 0.0
H182 H 0.79551 0.82105 0.53123 0.0
H183 H 0.92273 0.89963 0.54206 0.0
C184 C 0.85233 0.87132 0.83719 0.0
C185 C 0.7626 0.86878 0.84395 0.0
C186 C 0.94454 0.96239 0.83693 0.0
C187 C 0.94711 0.05281 0.84382 0.0
C188 C 0.85691 0.05073 0.85074 0.0
C189 C 0.76562 0.95877 0.85061 0.0
C190 C 0.03916 0.96191 0.82923 0.0
C191 C 0.85691 0.14559 0.8584 0.0
C192 C 0.19693 0.2725 0.86472 0.0
C193 C 0.22819 0.33428 0.84397 0.0
C194 C 0.10539 0.18079 0.86495 0.0
C195 C 0.04428 0.14971 0.84383 0.0
C196 C 0.07573 0.21135 0.82277 0.0
C197 C 0.16711 0.30322 0.82313 0.0
C198 C 0.07378 0.11742 0.88783 0.0
C199 C 0.01294 0.18016 0.79983 0.0
H200 H 0.85057 0.80216 0.83192 0.0
H201 H 0.69669 0.9574 0.85596 0.0
H202 H 0.07427 0.01303 0.81343 0.0
H203 H 0.09497 0.99068 0.84426 0.0
H204 H 0.0241 0.88533 0.82413 0.0
H205 H 0.78038 0.13096 0.86345 0.0
H206 H 0.90778 0.18029 0.87422 0.0
H207 H 0.88627 0.20155 0.84337 0.0
H208 H 0.24354 0.29621 0.88093 0.0
H209 H 0.19103 0.35034 0.80699 0.0
H210 H 0.06398 0.0419 0.8839 0.0
H211 H -0.00011 0.10573 0.89427 0.0
H212 H 0.12965 0.15264 0.90275 0.0
H213 H 0.00091 0.10613 0.79344 0.0
H214 H 0.0488 0.23605 0.7849 0.0
H215 H 0.93751 0.17086 0.80367 0.0
C216 C 0.5065 0.70156 0.93159 0.0
C217 C 0.43078 0.66631 0.91376 0.0
C218 C 0.48559 0.71183 0.95599 0.0
C219 C 0.38607 0.68501 0.96288 0.0
C220 C 0.30937 0.65047 0.94494 0.0
C221 C 0.33286 0.64237 0.92051 0.0
C222 C 0.56995 0.75024 0.97444 0.0
C223 C 0.20196 0.61931 0.95166 0.0
C224 C 0.31984 0.61934 0.02979 0.0
C225 C 0.32464 0.70744 0.03878 0.0
C226 C 0.33758 0.6102 1.00502 0.0
C227 C 0.36241 0.69183 0.98896 0.0
C228 C 0.36789 0.78118 0.998 0.0
C229 C 0.34807 0.78754 0.02275 0.0
C230 C 0.32999 0.51327 0.99608 0.0
C231 C 0.39667 0.87082 0.98162 0.0
H232 H 0.58259 0.72089 0.92651 0.0
H233 H 0.27383 0.61411 0.90688 0.0
H234 H 0.57546 0.81615 0.98431 0.0
H235 H 0.55381 0.69091 0.98818 0.0
H236 H 0.64415 0.77279 0.96588 0.0
H237 H 0.15137 0.5952 0.93555 0.0
H238 H 0.17256 0.556 0.96489 0.0
H239 H 0.19906 0.6827 0.9607 0.0
H240 H 0.30084 0.55694 0.04209 0.0
H241 H 0.3529 0.85617 0.02971 0.0
H242 H 0.40458 0.52805 0.98934 0.0
H243 H 0.2766 0.4827 0.98056 0.0
H244 H 0.30427 0.45494 1.01058 0.0
H245 H 0.47297 0.89756 0.97387 0.0
H246 H 0.39684 0.93445 0.99144 0.0
H247 H 0.34341 0.84867 0.96611 0.0
C248 C 0.51731 0.13851 0.42399 0.0
C249 C 0.56884 0.20117 0.44376 0.0
C250 C 0.53213 0.17656 0.40021 0.0
C251 C 0.60264 0.2795 0.3959 0.0
C252 C 0.65416 0.34374 0.41583 0.0
C253 C 0.63567 0.30398 0.43963 0.0
C254 C 0.47368 0.10523 0.37974 0.0
C255 C 0.73068 0.45364 0.41193 0.0
C256 C 0.71031 0.33467 0.33171 0.0
C257 C 0.65299 0.37173 0.32044 0.0
C258 C 0.69757 0.30843 0.3565 0.0
C259 C 0.62473 0.31802 0.37039 0.0
C260 C 0.56771 0.35684 0.35931 0.0
C261 C 0.58292 0.38376 0.33454 0.0
C262 C 0.76004 0.26748 0.36762 0.0
C263 C 0.48801 0.36644 0.37339 0.0
H264 H 0.46441 0.05921 0.42712 0.0
H265 H 0.67574 0.35255 0.45489 0.0
H266 H 0.4487 0.14174 0.36614 0.0
H267 H 0.52272 0.08173 0.37023 0.0
H268 H 0.40608 0.03658 0.3867 0.0
H269 H 0.76136 0.49441 0.42937 0.0
H270 H 0.79419 0.46022 0.40072 0.0
H271 H 0.69618 0.49134 0.40174 0.0
H272 H 0.76362 0.32355 0.32102 0.0
H273 H 0.53946 0.41396 0.32619 0.0
H274 H 0.71053 0.18675 0.37231 0.0
H275 H 0.79568 0.30818 0.38475 0.0
H276 H 0.82017 0.27403 0.35508 0.0
H277 H 0.427 0.29038 0.37892 0.0
H278 H 0.45422 0.40339 0.36257 0.0
H279 H 0.52058 0.41056 0.39031 0.0
C280 C 0.38191 0.73922 0.68988 0.0
C281 C 0.32192 0.76465 0.7043 0.0
C282 C 0.39533 0.76124 0.66487 0.0
C283 C 0.34801 0.81052 0.6539 0.0
C284 C 0.28333 0.83196 0.66802 0.0
C285 C 0.27092 0.80861 0.69301 0.0
C286 C 0.46483 0.73685 0.65052 0.0
C287 C 0.23113 0.88412 0.65702 0.0
C288 C 0.48446 0.98457 0.60075 0.0
C289 C 0.42954 0.92676 0.58057 0.0
C290 C 0.45836 0.94747 0.62457 0.0
C291 C 0.37516 0.84969 0.62851 0.0
C292 C 0.31936 0.79045 0.60831 0.0
C293 C 0.34715 0.82971 0.58455 0.0
C294 C 0.51989 0.01343 0.64556 0.0
C295 C 0.23014 0.6859 0.61183 0.0
H296 H 0.42239 0.70619 0.69834 0.0
H297 H 0.22275 0.82677 0.70383 0.0
H298 H 0.42871 0.69839 0.63321 0.0
H299 H 0.53471 0.80786 0.64574 0.0
H300 H 0.48617 0.68808 0.66092 0.0
H301 H 0.17515 0.88568 0.66968 0.0
H302 H 0.28804 0.96299 0.65229 0.0
H303 H 0.19218 0.846 0.63992 0.0
H304 H 0.54804 0.05982 0.59803 0.0
H305 H 0.30399 0.78455 0.56914 0.0
H306 H 0.55283 0.97501 0.65608 0.0
H307 H 0.47067 0.02638 0.65816 0.0
H308 H 0.58216 0.08787 0.63939 0.0
H309 H 0.25407 0.63776 0.62152 0.0
H310 H 0.19482 0.64924 0.59426 0.0
H311 H 0.17239 0.68956 0.62336 0.0
C312 C 0.63541 0.50273 1.00281 0.0
C313 C 0.67223 0.4559 0.98708 0.0
C314 C 0.65814 0.51329 0.02779 0.0
C315 C 0.71814 0.47497 0.0374 0.0
C316 C 0.75051 0.42244 0.02193 0.0
C317 C 0.72773 0.41408 0.99696 0.0
C318 C 0.62223 0.57001 0.04361 0.0
C319 C 0.81379 0.37954 0.03148 0.0
C320 C 0.88863 0.60739 0.09124 0.0
C321 C 0.83612 0.54237 0.11067 0.0
C322 C 0.84994 0.58704 0.0675 0.0
C323 C 0.75631 0.49906 0.06289 0.0
C324 C 0.70191 0.43364 0.08242 0.0
C325 C 0.74232 0.45623 0.10613 0.0
C326 C 0.91033 0.6592 0.04726 0.0
C327 C 0.60226 0.33871 0.07816 0.0
H328 H 0.59046 0.53325 0.99549 0.0
H329 H 0.75733 0.37851 0.98503 0.0
H330 H 0.58614 0.52683 0.06045 0.0
H331 H 0.68789 0.64299 0.04924 0.0
H332 H 0.56764 0.58563 0.03399 0.0
H333 H 0.82271 0.3308 0.01785 0.0
H334 H 0.88984 0.44207 0.03641 0.0
H335 H 0.77942 0.33471 0.04824 0.0
H336 H 0.9609 0.67449 0.09447 0.0
H337 H 0.70132 0.40538 0.12098 0.0
H338 H 0.86385 0.68577 0.03781 0.0
H339 H 0.93186 0.61994 0.03355 0.0
H340 H 0.98021 0.72595 0.05404 0.0
H341 H 0.54894 0.35704 0.06894 0.0
H342 H 0.56721 0.29802 0.09539 0.0
H343 H 0.61352 0.28739 0.06591 0.0
C344 C 0.20369 0.67555 0.252 0.0
C345 C 0.11022 0.66873 0.24751 0.0
C346 C 0.24115 0.68657 0.27591 0.0
C347 C 0.18361 0.69049 0.29573 0.0
C348 C 0.08948 0.68389 0.29127 0.0
C349 C 0.05439 0.67373 0.2673 0.0
C350 C 0.34195 0.69351 0.27998 0.0
C351 C 0.02533 0.6872 0.31185 0.0
C352 C 0.22366 0.63101 0.3607 0.0
C353 C 0.27774 0.72779 0.37099 0.0
C354 C 0.19518 0.6177 0.33603 0.0
C355 C 0.22171 0.70319 0.32121 0.0
C356 C 0.27841 0.801 0.3313 0.0
C357 C 0.30531 0.81199 0.356 0.0
C358 C 0.13446 0.51209 0.32598 0.0
C359 C 0.30789 0.89423 0.31621 0.0
H360 H 0.24725 0.67143 0.23689 0.0
H361 H 0.98229 0.66908 0.26417 0.0
H362 H 0.39403 0.76554 0.28924 0.0
H363 H 0.33262 0.63148 0.29213 0.0
H364 H 0.37744 0.6892 0.26267 0.0
H365 H 0.95343 0.68018 0.30529 0.0
H366 H 0.00719 0.62507 0.32491 0.0
H367 H 0.06767 0.75918 0.322 0.0
H368 H 0.20337 0.56541 0.37195 0.0
H369 H 0.34574 0.88691 0.36371 0.0
H370 H 0.17113 0.50396 0.30933 0.0
H371 H 0.05834 0.49733 0.32065 0.0
H372 H 0.12557 0.45386 0.33939 0.0
H373 H 0.34668 0.89243 0.29927 0.0
H374 H 0.35832 0.9648 0.32628 0.0
H375 H 0.23913 0.89619 0.31073 0.0
C376 C 0.57542 0.44824 0.77181 0.0
C377 C 0.5532 0.52573 0.77577 0.0
C378 C 0.58959 0.42247 0.74807 0.0
C379 C 0.58115 0.47528 0.72784 0.0
C380 C 0.55985 0.55417 0.73177 0.0
C381 C 0.54576 0.57804 0.75559 0.0
C382 C 0.61318 0.33852 0.7446 0.0
C383 C 0.54968 0.6124 0.71081 0.0
C384 C 0.6978 0.47906 0.66631 0.0
C385 C 0.61341 0.40932 0.65291 0.0
C386 C 0.68905 0.4986 0.69094 0.0
C387 C 0.59343 0.44799 0.70248 0.0
C388 C 0.50831 0.37625 0.68923 0.0
C389 C 0.51939 0.35744 0.66468 0.0
C390 C 0.78154 0.57607 0.7044 0.0
C391 C 0.40496 0.32109 0.70082 0.0
H392 H 0.58138 0.40736 0.78723 0.0
H393 H 0.52802 0.63767 0.7583 0.0
H394 H 0.55342 0.27736 0.73348 0.0
H395 H 0.68529 0.367 0.7345 0.0
H396 H 0.61915 0.30609 0.7622 0.0
H397 H 0.55058 0.68185 0.71711 0.0
H398 H 0.61147 0.63433 0.69738 0.0
H399 H 0.47738 0.56399 0.70125 0.0
H400 H 0.77053 0.52056 0.65736 0.0
H401 H 0.4541 0.30202 0.65466 0.0
H402 H 0.79025 0.544 0.72174 0.0
H403 H 0.77277 0.64184 0.70911 0.0
H404 H 0.85156 0.60311 0.69344 0.0
H405 H 0.40743 0.28326 0.71783 0.0
H406 H 0.34752 0.26358 0.68848 0.0
H407 H 0.38052 0.37588 0.70588 0.0
loop_
_geom_bond_atom_site_label_1
_geom_bond_atom_site_label_2
_geom_bond_distance
_geom_bond_site_symmetry_2
_ccdc_geom_bond_type
Tb0 C9 2.764 . S
Tb0 O10 2.325 . S
Tb0 O13 2.303 . S
Tb0 O17 2.322 . S
Tb0 O18 2.349 . S
Tb0 O21 2.415 . S
Tb0 O22 2.399 . S
Tb1 O11 2.322 . S
Tb1 O12 2.349 . S
Tb1 O14 2.415 . S
Tb1 O15 2.399 . S
Tb1 O16 2.325 1_655 S
Tb1 O19 2.303 1_655 S
Tb1 C30 2.764 . S
C2 O18 1.261 . S
C2 O19 1.257 . S
C3 C6 1.358 . S
C3 C7 1.332 . S
C3 C9 1.504 . S
C4 C5 1.373 . S
C4 C8 1.308 . S
C5 C4 1.373 . S
C5 C6 1.429 . S
C5 H32 0.932 . S
C6 C3 1.358 . S
C6 C5 1.429 . S
C6 H33 0.930 . S
C7 C3 1.332 . S
C7 C8 1.394 . S
C7 H34 0.932 . S
C8 C4 1.308 . S
C8 C7 1.394 . S
C8 H35 0.929 . S
C9 Tb0 2.764 . S
C9 C3 1.504 . S
C9 O21 1.239 . S
C9 O22 1.263 . S
O10 Tb0 2.325 . S
O10 C20 1.236 1_455 S
O11 Tb1 2.322 . S
O11 C20 1.257 . S
O12 Tb1 2.349 . S
O12 C23 1.261 1_655 S
O13 Tb0 2.303 . S
O13 C23 1.257 . S
O14 Tb1 2.415 . S
O14 C30 1.239 . S
O15 Tb1 2.399 . S
O15 C30 1.263 . S
O16 Tb1 2.325 1_455 S
O16 C31 1.236 . S
O17 Tb0 2.322 . S
O17 C31 1.257 . S
O18 Tb0 2.349 . S
O18 C2 1.261 . S
O19 Tb1 2.303 1_455 S
O19 C2 1.257 . S
C20 O10 1.236 1_655 S
C20 O11 1.257 . S
O21 Tb0 2.415 . S
O21 C9 1.239 . S
O22 Tb0 2.399 . S
O22 C9 1.263 . S
C23 O12 1.261 1_455 S
C23 O13 1.257 . S
C24 C27 1.358 . S
C24 C28 1.332 . S
C24 C30 1.504 . S
C25 C26 1.373 . S
C25 C29 1.308 . S
C26 C25 1.373 . S
C26 C27 1.429 . S
C26 H36 0.932 . S
C27 C24 1.358 . S
C27 C26 1.429 . S
C27 H37 0.930 . S
C28 C24 1.332 . S
C28 C29 1.394 . S
C28 H38 0.932 . S
C29 C25 1.308 . S
C29 C28 1.394 . S
C29 H39 0.929 . S
C30 Tb1 2.764 . S
C30 O14 1.239 . S
C30 O15 1.263 . S
C30 C24 1.504 . S
C31 O16 1.236 . S
C31 O17 1.257 . S
H32 C5 0.932 . S
H33 C6 0.930 . S
H34 C7 0.932 . S
H35 C8 0.929 . S
H36 C26 0.932 . S
H37 C27 0.930 . S
H38 C28 0.932 . S
H39 C29 0.929 . S
Tb40 C49 2.764 . S
Tb40 O50 2.325 1_565 S
Tb40 O53 2.303 . S
Tb40 O57 2.322 . S
Tb40 O58 2.349 . S
Tb40 O61 2.415 . S
Tb40 O62 2.399 . S
Tb41 O51 2.322 . S
Tb41 O52 2.349 . S
Tb41 O54 2.415 . S
Tb41 O55 2.399 . S
Tb41 O56 2.325 1_545 S
Tb41 O59 2.303 . S
Tb41 C70 2.764 . S
C42 O58 1.261 . S
C42 O59 1.257 1_565 S
C43 C46 1.358 . S
C43 C47 1.332 . S
C43 C49 1.504 . S
C44 C45 1.373 . S
C44 C48 1.308 . S
C45 C44 1.373 . S
C45 C46 1.429 . S
C45 H72 0.932 . S
C46 C43 1.358 . S
C46 C45 1.429 . S
C46 H73 0.930 . S
C47 C43 1.332 . S
C47 C48 1.394 . S
C47 H74 0.932 . S
C48 C44 1.308 . S
C48 C47 1.394 . S
C48 H75 0.929 . S
C49 Tb40 2.764 . S
C49 C43 1.504 . S
C49 O61 1.239 . S
C49 O62 1.263 . S
O50 Tb40 2.325 1_545 S
O50 C60 1.236 . S
O51 Tb41 2.322 . S
O51 C60 1.257 . S
O52 Tb41 2.349 . S
O52 C63 1.261 . S
O53 Tb40 2.303 . S
O53 C63 1.257 1_565 S
O54 Tb41 2.415 . S
O54 C70 1.239 . S
O55 Tb41 2.399 . S
O55 C70 1.263 . S
O56 Tb41 2.325 1_565 S
O56 C71 1.236 . S
O57 Tb40 2.322 . S
O57 C71 1.257 . S
O58 Tb40 2.349 . S
O58 C42 1.261 . S
O59 Tb41 2.303 . S
O59 C42 1.257 1_545 S
C60 O50 1.236 . S
C60 O51 1.257 . S
O61 Tb40 2.415 . S
O61 C49 1.239 . S
O62 Tb40 2.399 . S
O62 C49 1.263 . S
C63 O52 1.261 . S
C63 O53 1.257 1_545 S
C64 C67 1.358 . S
C64 C68 1.332 . S
C64 C70 1.504 . S
C65 C66 1.373 . S
C65 C69 1.308 . S
C66 C65 1.373 . S
C66 C67 1.429 . S
C66 H76 0.932 . S
C67 C64 1.358 . S
C67 C66 1.429 . S
C67 H77 0.930 . S
C68 C64 1.332 . S
C68 C69 1.394 . S
C68 H78 0.932 . S
C69 C65 1.308 . S
C69 C68 1.394 . S
C69 H79 0.929 . S
C70 Tb41 2.764 . S
C70 O54 1.239 . S
C70 O55 1.263 . S
C70 C64 1.504 . S
C71 O56 1.236 . S
C71 O57 1.257 . S
H72 C45 0.932 . S
H73 C46 0.930 . S
H74 C47 0.932 . S
H75 C48 0.929 . S
H76 C66 0.932 . S
H77 C67 0.930 . S
H78 C68 0.932 . S
H79 C69 0.929 . S
Tb80 C89 2.764 . S
Tb80 O90 2.325 . S
Tb80 O93 2.303 . S
Tb80 O97 2.322 . S
Tb80 O98 2.349 . S
Tb80 O101 2.415 . S
Tb80 O102 2.399 . S
Tb81 O91 2.322 . S
Tb81 O92 2.349 . S
Tb81 O94 2.415 . S
Tb81 O95 2.399 . S
Tb81 O96 2.325 . S
Tb81 O99 2.303 . S
Tb81 C110 2.764 . S
C82 O98 1.261 . S
C82 O99 1.257 . S
C83 C86 1.358 . S
C83 C87 1.332 . S
C83 C89 1.504 . S
C84 C85 1.373 . S
C84 C88 1.308 . S
C85 C84 1.373 . S
C85 C86 1.429 . S
C85 H112 0.932 . S
C86 C83 1.358 . S
C86 C85 1.429 . S
C86 H113 0.930 . S
C87 C83 1.332 . S
C87 C88 1.394 . S
C87 H114 0.932 . S
C88 C84 1.308 . S
C88 C87 1.394 . S
C88 H115 0.929 . S
C89 Tb80 2.764 . S
C89 C83 1.504 . S
C89 O101 1.239 . S
C89 O102 1.263 . S
O90 Tb80 2.325 . S
O90 C100 1.236 . S
O91 Tb81 2.322 . S
O91 C100 1.257 . S
O92 Tb81 2.349 . S
O92 C103 1.261 . S
O93 Tb80 2.303 . S
O93 C103 1.257 . S
O94 Tb81 2.415 . S
O94 C110 1.239 . S
O95 Tb81 2.399 . S
O95 C110 1.263 . S
O96 Tb81 2.325 . S
O96 C111 1.236 . S
O97 Tb80 2.322 . S
O97 C111 1.257 . S
O98 Tb80 2.349 . S
O98 C82 1.261 . S
O99 Tb81 2.303 . S
O99 C82 1.257 . S
C100 O90 1.236 . S
C100 O91 1.257 . S
O101 Tb80 2.415 . S
O101 C89 1.239 . S
O102 Tb80 2.399 . S
O102 C89 1.263 . S
C103 O92 1.261 . S
C103 O93 1.257 . S
C104 C107 1.358 . S
C104 C108 1.332 . S
C104 C110 1.504 . S
C105 C106 1.373 . S
C105 C109 1.308 . S
C106 C105 1.373 . S
C106 C107 1.429 . S
C106 H116 0.932 . S
C107 C104 1.358 . S
C107 C106 1.429 . S
C107 H117 0.930 . S
C108 C104 1.332 . S
C108 C109 1.394 . S
C108 H118 0.932 . S
C109 C105 1.308 . S
C109 C108 1.394 . S
C109 H119 0.929 . S
C110 Tb81 2.764 . S
C110 O94 1.239 . S
C110 O95 1.263 . S
C110 C104 1.504 . S
C111 O96 1.236 . S
C111 O97 1.257 . S
H112 C85 0.932 . S
H113 C86 0.930 . S
H114 C87 0.932 . S
H115 C88 0.929 . S
H116 C106 0.932 . S
H117 C107 0.930 . S
H118 C108 0.932 . S
H119 C109 0.929 . S
C120 C121 1.391 . S
C120 C122 1.394 1_565 S
C120 H136 0.931 . S
C121 C120 1.391 . S
C121 C125 1.376 . S
C122 C120 1.394 1_545 S
C122 C123 1.369 . S
C122 C126 1.531 . S
C123 C122 1.369 . S
C123 C124 1.410 1_445 S
C123 C131 1.503 . S
C124 C123 1.410 1_665 S
C124 C125 1.392 1_655 S
C124 C127 1.511 . S
C125 C121 1.376 . S
C125 C124 1.392 1_455 S
C125 H137 0.929 1_455 S
C126 C122 1.531 . S
C126 H138 0.960 . S
C126 H139 0.962 . S
C126 H140 0.960 . S
C127 C124 1.511 . S
C127 H141 0.961 . S
C127 H142 0.961 1_565 S
C127 H143 0.961 . S
C128 C129 1.370 . S
C128 C130 1.363 . S
C128 H144 0.931 . S
C129 C128 1.370 . S
C129 C133 1.408 . S
C130 C128 1.363 . S
C130 C131 1.370 . S
C130 C134 1.524 . S
C131 C123 1.503 . S
C131 C130 1.370 . S
C131 C132 1.403 . S
C132 C131 1.403 . S
C132 C133 1.404 . S
C132 C135 1.539 1_455 S
C133 C129 1.408 . S
C133 C132 1.404 . S
C133 H145 0.930 . S
C134 C130 1.524 . S
C134 H146 0.956 . S
C134 H147 0.961 . S
C134 H148 0.961 . S
C135 C132 1.539 1_655 S
C135 H149 0.958 1_655 S
C135 H150 0.961 . S
C135 H151 0.960 . S
H136 C120 0.931 . S
H137 C125 0.929 1_655 S
H138 C126 0.960 . S
H139 C126 0.962 . S
H140 C126 0.960 . S
H141 C127 0.961 . S
H142 C127 0.961 1_545 S
H143 C127 0.961 . S
H144 C128 0.931 . S
H145 C133 0.930 . S
H146 C134 0.956 . S
H147 C134 0.961 . S
H148 C134 0.961 . S
H149 C135 0.958 1_455 S
H150 C135 0.961 . S
H151 C135 0.960 . S
C152 C153 1.391 . S
C152 C154 1.394 . S
C152 H168 0.931 . S
C153 C152 1.391 . S
C153 C157 1.376 1_565 S
C154 C152 1.394 . S
C154 C155 1.369 1_455 S
C154 C158 1.531 1_455 S
C155 C154 1.369 1_655 S
C155 C156 1.410 1_665 S
C155 C163 1.503 . S
C156 C155 1.410 1_445 S
C156 C157 1.392 . S
C156 C159 1.511 . S
C157 C153 1.376 1_545 S
C157 C156 1.392 . S
C157 H169 0.929 . S
C158 C154 1.531 1_655 S
C158 H170 0.960 . S
C158 H171 0.962 . S
C158 H172 0.960 . S
C159 C156 1.511 . S
C159 H173 0.961 . S
C159 H174 0.961 1_455 S
C159 H175 0.961 . S
C160 C161 1.370 1_545 S
C160 C162 1.363 . S
C160 H176 0.931 . S
C161 C160 1.370 1_565 S
C161 C165 1.408 . S
C162 C160 1.363 . S
C162 C163 1.370 1_545 S
C162 C166 1.524 . S
C163 C155 1.503 . S
C163 C162 1.370 1_565 S
C163 C164 1.403 . S
C164 C163 1.403 . S
C164 C165 1.404 . S
C164 C167 1.539 . S
C165 C161 1.408 . S
C165 C164 1.404 . S
C165 H177 0.930 . S
C166 C162 1.524 . S
C166 H178 0.956 1_655 S
C166 H179 0.961 1_655 S
C166 H180 0.961 . S
C167 C164 1.539 . S
C167 H181 0.958 . S
C167 H182 0.961 . S
C167 H183 0.960 . S
H168 C152 0.931 . S
H169 C157 0.929 . S
H170 C158 0.960 . S
H171 C158 0.962 . S
H172 C158 0.960 . S
H173 C159 0.961 . S
H174 C159 0.961 1_655 S
H175 C159 0.961 . S
H176 C160 0.931 . S
H177 C165 0.930 . S
H178 C166 0.956 1_455 S
H179 C166 0.961 1_455 S
H180 C166 0.961 . S
H181 C167 0.958 . S
H182 C167 0.961 . S
H183 C167 0.960 . S
C184 C185 1.391 . S
C184 C186 1.394 . S
C184 H200 0.931 . S
C185 C184 1.391 . S
C185 C189 1.376 . S
C186 C184 1.394 . S
C186 C187 1.369 1_565 S
C186 C190 1.531 1_565 S
C187 C186 1.369 1_545 S
C187 C188 1.410 . S
C187 C195 1.499 1_655 S
C188 C187 1.410 . S
C188 C189 1.392 1_545 S
C188 C191 1.511 . S
C189 C185 1.376 . S
C189 C188 1.392 1_565 S
C189 H201 0.929 . S
C190 C186 1.531 1_545 S
C190 H202 0.960 1_655 S
C190 H203 0.962 1_645 S
C190 H204 0.960 1_545 S
C191 C188 1.511 . S
C191 H205 0.961 . S
C191 H206 0.961 . S
C191 H207 0.961 . S
C192 C193 1.370 . S
C192 C194 1.363 . S
C192 H208 0.931 . S
C193 C192 1.370 . S
C193 C197 1.408 . S
C194 C192 1.363 . S
C194 C195 1.376 . S
C194 C198 1.524 . S
C195 C187 1.499 1_455 S
C195 C194 1.376 . S
C195 C196 1.402 . S
C196 C195 1.402 . S
C196 C197 1.404 . S
C196 C199 1.539 1_455 S
C197 C193 1.408 . S
C197 C196 1.404 . S
C197 H209 0.930 . S
C198 C194 1.524 . S
C198 H210 0.956 . S
C198 H211 0.961 1_455 S
C198 H212 0.961 . S
C199 C196 1.539 1_655 S
C199 H213 0.958 . S
C199 H214 0.961 . S
C199 H215 0.960 . S
H200 C184 0.931 . S
H201 C189 0.929 . S
H202 C190 0.960 1_455 S
H203 C190 0.962 1_465 S
H204 C190 0.960 1_565 S
H205 C191 0.961 . S
H206 C191 0.961 . S
H207 C191 0.961 . S
H208 C192 0.931 . S
H209 C197 0.930 . S
H210 C198 0.956 . S
H211 C198 0.961 1_655 S
H212 C198 0.961 . S
H213 C199 0.958 . S
H214 C199 0.961 . S
H215 C199 0.960 . S
C216 C217 1.391 . S
C216 C218 1.394 . S
C216 H232 0.931 . S
C217 C216 1.391 . S
C217 C221 1.376 . S
C218 C216 1.394 . S
C218 C219 1.369 . S
C218 C222 1.531 . S
C219 C218 1.369 . S
C219 C220 1.410 . S
C219 C227 1.503 . S
C220 C219 1.410 . S
C220 C221 1.392 . S
C220 C223 1.511 . S
C221 C217 1.376 . S
C221 C220 1.392 . S
C221 H233 0.929 . S
C222 C218 1.531 . S
C222 H234 0.960 . S
C222 H235 0.962 . S
C222 H236 0.960 . S
C223 C220 1.511 . S
C223 H237 0.961 . S
C223 H238 0.961 . S
C223 H239 0.961 . S
C224 C225 1.370 . S
C224 C226 1.363 1_554 S
C224 H240 0.931 . S
C225 C224 1.370 . S
C225 C229 1.408 1_554 S
C226 C224 1.363 1_556 S
C226 C227 1.370 . S
C226 C230 1.524 . S
C227 C219 1.503 . S
C227 C226 1.370 . S
C227 C228 1.403 . S
C228 C227 1.403 . S
C228 C229 1.404 . S
C228 C231 1.539 . S
C229 C225 1.408 1_556 S
C229 C228 1.404 . S
C229 H241 0.930 1_556 S
C230 C226 1.524 . S
C230 H242 0.956 . S
C230 H243 0.961 . S
C230 H244 0.961 . S
C231 C228 1.539 . S
C231 H245 0.958 1_565 S
C231 H246 0.961 . S
C231 H247 0.960 . S
H232 C216 0.931 . S
H233 C221 0.929 . S
H234 C222 0.960 . S
H235 C222 0.962 . S
H236 C222 0.960 . S
H237 C223 0.961 . S
H238 C223 0.961 . S
H239 C223 0.961 . S
H240 C224 0.931 . S
H241 C229 0.930 1_554 S
H242 C230 0.956 . S
H243 C230 0.961 . S
H244 C230 0.961 . S
H245 C231 0.958 1_545 S
H246 C231 0.961 . S
H247 C231 0.960 . S
C248 C249 1.391 . S
C248 C250 1.394 . S
C248 H264 0.931 . S
C249 C248 1.391 . S
C249 C253 1.376 . S
C250 C248 1.394 . S
C250 C251 1.369 . S
C250 C254 1.531 . S
C251 C250 1.369 . S
C251 C252 1.410 . S
C251 C259 1.503 . S
C252 C251 1.410 . S
C252 C253 1.392 . S
C252 C255 1.511 . S
C253 C249 1.376 . S
C253 C252 1.392 . S
C253 H265 0.929 . S
C254 C250 1.531 . S
C254 H266 0.960 . S
C254 H267 0.962 . S
C254 H268 0.960 . S
C255 C252 1.511 . S
C255 H269 0.961 . S
C255 H270 0.961 . S
C255 H271 0.961 . S
C256 C257 1.370 . S
C256 C258 1.363 . S
C256 H272 0.931 . S
C257 C256 1.370 . S
C257 C261 1.408 . S
C258 C256 1.363 . S
C258 C259 1.370 . S
C258 C262 1.524 . S
C259 C251 1.503 . S
C259 C258 1.370 . S
C259 C260 1.403 . S
C260 C259 1.403 . S
C260 C261 1.404 . S
C260 C263 1.539 . S
C261 C257 1.408 . S
C261 C260 1.404 . S
C261 H273 0.930 . S
C262 C258 1.524 . S
C262 H274 0.956 . S
C262 H275 0.961 . S
C262 H276 0.961 . S
C263 C260 1.539 . S
C263 H277 0.958 . S
C263 H278 0.961 . S
C263 H279 0.960 . S
H264 C248 0.931 . S
H265 C253 0.929 . S
H266 C254 0.960 . S
H267 C254 0.962 . S
H268 C254 0.960 . S
H269 C255 0.961 . S
H270 C255 0.961 . S
H271 C255 0.961 . S
H272 C256 0.931 . S
H273 C261 0.930 . S
H274 C262 0.956 . S
H275 C262 0.961 . S
H276 C262 0.961 . S
H277 C263 0.958 . S
H278 C263 0.961 . S
H279 C263 0.960 . S
C280 C281 1.391 . S
C280 C282 1.394 . S
C280 H296 0.931 . S
C281 C280 1.391 . S
C281 C285 1.376 . S
C282 C280 1.394 . S
C282 C283 1.369 . S
C282 C286 1.531 . S
C283 C282 1.369 . S
C283 C284 1.410 . S
C283 C291 1.503 . S
C284 C283 1.410 . S
C284 C285 1.392 . S
C284 C287 1.511 . S
C285 C281 1.376 . S
C285 C284 1.392 . S
C285 H297 0.929 . S
C286 C282 1.531 . S
C286 H298 0.960 . S
C286 H299 0.962 . S
C286 H300 0.960 . S
C287 C284 1.511 . S
C287 H301 0.961 1_565 S
C287 H302 0.961 . S
C287 H303 0.961 . S
C288 C289 1.370 . S
C288 C290 1.363 . S
C288 H304 0.931 . S
C289 C288 1.370 . S
C289 C293 1.408 . S
C290 C288 1.363 . S
C290 C291 1.370 . S
C290 C294 1.524 . S
C291 C283 1.503 . S
C291 C290 1.370 . S
C291 C292 1.403 . S
C292 C291 1.403 . S
C292 C293 1.404 . S
C292 C295 1.539 . S
C293 C289 1.408 . S
C293 C292 1.404 . S
C293 H305 0.930 . S
C294 C290 1.524 . S
C294 H306 0.956 . S
C294 H307 0.961 . S
C294 H308 0.961 . S
C295 C292 1.539 . S
C295 H309 0.958 . S
C295 H310 0.961 . S
C295 H311 0.960 . S
H296 C280 0.931 . S
H297 C285 0.929 . S
H298 C286 0.960 . S
H299 C286 0.962 . S
H300 C286 0.960 . S
H301 C287 0.961 1_545 S
H302 C287 0.961 . S
H303 C287 0.961 . S
H304 C288 0.931 . S
H305 C293 0.930 . S
H306 C294 0.956 . S
H307 C294 0.961 . S
H308 C294 0.961 . S
H309 C295 0.958 . S
H310 C295 0.961 . S
H311 C295 0.960 . S
C312 C313 1.391 1_554 S
C312 C314 1.394 . S
C312 H328 0.931 1_554 S
C313 C312 1.391 1_556 S
C313 C317 1.376 1_556 S
C314 C312 1.394 . S
C314 C315 1.369 . S
C314 C318 1.531 . S
C315 C314 1.369 . S
C315 C316 1.410 . S
C315 C323 1.503 . S
C316 C315 1.410 . S
C316 C317 1.392 . S
C316 C319 1.511 . S
C317 C313 1.376 1_554 S
C317 C316 1.392 . S
C317 H329 0.929 1_554 S
C318 C314 1.531 . S
C318 H330 0.960 . S
C318 H331 0.962 . S
C318 H332 0.960 . S
C319 C316 1.511 . S
C319 H333 0.961 . S
C319 H334 0.961 . S
C319 H335 0.961 . S
C320 C321 1.370 . S
C320 C322 1.363 . S
C320 H336 0.931 1_655 S
C321 C320 1.370 . S
C321 C325 1.408 . S
C322 C320 1.363 . S
C322 C323 1.370 . S
C322 C326 1.524 . S
C323 C315 1.503 . S
C323 C322 1.370 . S
C323 C324 1.403 . S
C324 C323 1.403 . S
C324 C325 1.404 . S
C324 C327 1.539 . S
C325 C321 1.408 . S
C325 C324 1.404 . S
C325 H337 0.930 . S
C326 C322 1.524 . S
C326 H338 0.956 1_655 S
C326 H339 0.961 . S
C326 H340 0.961 1_655 S
C327 C324 1.539 . S
C327 H341 0.958 . S
C327 H342 0.961 . S
C327 H343 0.960 . S
H328 C312 0.931 1_556 S
H329 C317 0.929 1_556 S
H330 C318 0.960 . S
H331 C318 0.962 . S
H332 C318 0.960 . S
H333 C319 0.961 . S
H334 C319 0.961 . S
H335 C319 0.961 . S
H336 C320 0.931 1_455 S
H337 C325 0.930 . S
H338 C326 0.956 1_455 S
H339 C326 0.961 . S
H340 C326 0.961 1_455 S
H341 C327 0.958 . S
H342 C327 0.961 . S
H343 C327 0.960 . S
C344 C345 1.391 . S
C344 C346 1.394 . S
C344 H360 0.931 . S
C345 C344 1.391 . S
C345 C349 1.376 . S
C346 C344 1.394 . S
C346 C347 1.369 . S
C346 C350 1.531 . S
C347 C346 1.369 . S
C347 C348 1.410 . S
C347 C355 1.503 . S
C348 C347 1.410 . S
C348 C349 1.392 . S
C348 C351 1.511 . S
C349 C345 1.376 . S
C349 C348 1.392 . S
C349 H361 0.929 . S
C350 C346 1.531 . S
C350 H362 0.960 . S
C350 H363 0.962 . S
C350 H364 0.960 . S
C351 C348 1.511 . S
C351 H365 0.961 . S
C351 H366 0.961 . S
C351 H367 0.961 . S
C352 C353 1.370 . S
C352 C354 1.363 . S
C352 H368 0.931 . S
C353 C352 1.370 . S
C353 C357 1.408 . S
C354 C352 1.363 . S
C354 C355 1.370 . S
C354 C358 1.524 . S
C355 C347 1.503 . S
C355 C354 1.370 . S
C355 C356 1.403 . S
C356 C355 1.403 . S
C356 C357 1.404 . S
C356 C359 1.539 . S
C357 C353 1.408 . S
C357 C356 1.404 . S
C357 H369 0.930 . S
C358 C354 1.524 . S
C358 H370 0.956 . S
C358 H371 0.961 . S
C358 H372 0.961 . S
C359 C356 1.539 . S
C359 H373 0.958 . S
C359 H374 0.961 . S
C359 H375 0.960 . S
H360 C344 0.931 . S
H361 C349 0.929 . S
H362 C350 0.960 . S
H363 C350 0.962 . S
H364 C350 0.960 . S
H365 C351 0.961 . S
H366 C351 0.961 . S
H367 C351 0.961 . S
H368 C352 0.931 . S
H369 C357 0.930 . S
H370 C358 0.956 . S
H371 C358 0.961 . S
H372 C358 0.961 . S
H373 C359 0.958 . S
H374 C359 0.961 . S
H375 C359 0.960 . S
C376 C377 1.391 . S
C376 C378 1.394 . S
C376 H392 0.931 . S
C377 C376 1.391 . S
C377 C381 1.376 . S
C378 C376 1.394 . S
C378 C379 1.369 . S
C378 C382 1.531 . S
C379 C378 1.369 . S
C379 C380 1.410 . S
C379 C387 1.503 . S
C380 C379 1.410 . S
C380 C381 1.392 . S
C380 C383 1.511 . S
C381 C377 1.376 . S
C381 C380 1.392 . S
C381 H393 0.929 . S
C382 C378 1.531 . S
C382 H394 0.960 . S
C382 H395 0.962 . S
C382 H396 0.960 . S
C383 C380 1.511 . S
C383 H397 0.961 . S
C383 H398 0.961 . S
C383 H399 0.961 . S
C384 C385 1.370 . S
C384 C386 1.363 . S
C384 H400 0.931 . S
C385 C384 1.370 . S
C385 C389 1.408 . S
C386 C384 1.363 . S
C386 C387 1.370 . S
C386 C390 1.524 . S
C387 C379 1.503 . S
C387 C386 1.370 . S
C387 C388 1.403 . S
C388 C387 1.403 . S
C388 C389 1.404 . S
C388 C391 1.539 . S
C389 C385 1.408 . S
C389 C388 1.404 . S
C389 H401 0.930 . S
C390 C386 1.524 . S
C390 H402 0.956 . S
C390 H403 0.961 . S
C390 H404 0.961 . S
C391 C388 1.539 . S
C391 H405 0.958 . S
C391 H406 0.961 . S
C391 H407 0.960 . S
H392 C376 0.931 . S
H393 C381 0.929 . S
H394 C382 0.960 . S
H395 C382 0.962 . S
H396 C382 0.960 . S
H397 C383 0.961 . S
H398 C383 0.961 . S
H399 C383 0.961 . S
H400 C384 0.931 . S
H401 C389 0.930 . S
H402 C390 0.956 . S
H403 C390 0.961 . S
H404 C390 0.961 . S
H405 C391 0.958 . S
H406 C391 0.961 . S
H407 C391 0.960 . S
C121 C23 1.522 . S
C129 C2 1.509 . S
C153 C42 1.509 . S
C161 C63 1.510 1_565 S
C185 C82 1.479 . S
C193 C103 1.525 . S
C217 C111 1.233 . S
C225 C4 1.157 . S
C249 C60 1.463 . S
C257 C25 1.455 . S
C281 C84 1.198 . S
C289 C71 1.217 . S
C313 C105 1.442 . S
C321 C20 1.470 . S
C345 C31 1.228 . S
C353 C44 1.137 . S
C377 C100 1.468 . S
C385 C65 1.439 . S
