# Generated by pormake.
# Topology wmt, (6)-cn, num edge types: 1
# Building blocks:
#     Node 0, Type 0, BuildingBlock: BETFAJ_clean_sbu_0, # of connection points: 6
#     Node 1, Type 0, BuildingBlock: BETFAJ_clean_sbu_0, # of connection points: 6
#     Node 2, Type 0, BuildingBlock: BETFAJ_clean_sbu_0, # of connection points: 6
#     Node 3, Type 0, BuildingBlock: BETFAJ_clean_sbu_0, # of connection points: 6
#     Node 4, Type 0, BuildingBlock: BETFAJ_clean_sbu_0, # of connection points: 6
#     Node 5, Type 0, BuildingBlock: BETFAJ_clean_sbu_0, # of connection points: 6
#     Node 6, Type 0, BuildingBlock: BETFAJ_clean_sbu_0, # of connection points: 6
#     Node 7, Type 0, BuildingBlock: BETFAJ_clean_sbu_0, # of connection points: 6
#     Node 8, Type 0, BuildingBlock: BETFAJ_clean_sbu_0, # of connection points: 6
#     Node 9, Type 0, BuildingBlock: BETFAJ_clean_sbu_0, # of connection points: 6
#     Node 10, Type 0, BuildingBlock: BETFAJ_clean_sbu_0, # of connection points: 6
#     Node 11, Type 0, BuildingBlock: BETFAJ_clean_sbu_0, # of connection points: 6
#     Node 12, Type 0, BuildingBlock: BETFAJ_clean_sbu_0, # of connection points: 6
#     Node 13, Type 0, BuildingBlock: BETFAJ_clean_sbu_0, # of connection points: 6
#     Node 14, Type 0, BuildingBlock: BETFAJ_clean_sbu_0, # of connection points: 6
#     Node 15, Type 0, BuildingBlock: BETFAJ_clean_sbu_0, # of connection points: 6
#     Node 16, Type 0, BuildingBlock: BETFAJ_clean_sbu_0, # of connection points: 6
#     Node 17, Type 0, BuildingBlock: BETFAJ_clean_sbu_0, # of connection points: 6
#     Node 18, Type 0, BuildingBlock: BETFAJ_clean_sbu_0, # of connection points: 6
#     Node 19, Type 0, BuildingBlock: BETFAJ_clean_sbu_0, # of connection points: 6
#     Node 20, Type 0, BuildingBlock: BETFAJ_clean_sbu_0, # of connection points: 6
#     Node 21, Type 0, BuildingBlock: BETFAJ_clean_sbu_0, # of connection points: 6
#     Node 22, Type 0, BuildingBlock: BETFAJ_clean_sbu_0, # of connection points: 6
#     Node 23, Type 0, BuildingBlock: BETFAJ_clean_sbu_0, # of connection points: 6
#     Node 24, Type 0, BuildingBlock: BETFAJ_clean_sbu_0, # of connection points: 6
#     Node 25, Type 0, BuildingBlock: BETFAJ_clean_sbu_0, # of connection points: 6
#     Node 26, Type 0, BuildingBlock: BETFAJ_clean_sbu_0, # of connection points: 6
#     Node 27, Type 0, BuildingBlock: BETFAJ_clean_sbu_0, # of connection points: 6
#     Node 28, Type 0, BuildingBlock: BETFAJ_clean_sbu_0, # of connection points: 6
#     Node 29, Type 0, BuildingBlock: BETFAJ_clean_sbu_0, # of connection points: 6
#     Node 30, Type 0, BuildingBlock: BETFAJ_clean_sbu_0, # of connection points: 6
#     Node 31, Type 0, BuildingBlock: BETFAJ_clean_sbu_0, # of connection points: 6
#     Node 32, Type 0, BuildingBlock: BETFAJ_clean_sbu_0, # of connection points: 6
#     Node 33, Type 0, BuildingBlock: BETFAJ_clean_sbu_0, # of connection points: 6
#     Node 34, Type 0, BuildingBlock: BETFAJ_clean_sbu_0, # of connection points: 6
#     Node 35, Type 0, BuildingBlock: BETFAJ_clean_sbu_0, # of connection points: 6
#     Edge 36, Type (0, 0), BuildingBlock: OJICUG_clean_linker_0, # of connection points: 2
#     Edge 37, Type (0, 0), BuildingBlock: OJICUG_clean_linker_0, # of connection points: 2
#     Edge 38, Type (0, 0), BuildingBlock: OJICUG_clean_linker_0, # of connection points: 2
#     Edge 39, Type (0, 0), BuildingBlock: OJICUG_clean_linker_0, # of connection points: 2
#     Edge 40, Type (0, 0), BuildingBlock: OJICUG_clean_linker_0, # of connection points: 2
#     Edge 41, Type (0, 0), BuildingBlock: OJICUG_clean_linker_0, # of connection points: 2
#     Edge 42, Type (0, 0), BuildingBlock: OJICUG_clean_linker_0, # of connection points: 2
#     Edge 43, Type (0, 0), BuildingBlock: OJICUG_clean_linker_0, # of connection points: 2
#     Edge 44, Type (0, 0), BuildingBlock: OJICUG_clean_linker_0, # of connection points: 2
#     Edge 45, Type (0, 0), BuildingBlock: OJICUG_clean_linker_0, # of connection points: 2
#     Edge 46, Type (0, 0), BuildingBlock: OJICUG_clean_linker_0, # of connection points: 2
#     Edge 47, Type (0, 0), BuildingBlock: OJICUG_clean_linker_0, # of connection points: 2
#     Edge 48, Type (0, 0), BuildingBlock: OJICUG_clean_linker_0, # of connection points: 2
#     Edge 49, Type (0, 0), BuildingBlock: OJICUG_clean_linker_0, # of connection points: 2
#     Edge 50, Type (0, 0), BuildingBlock: OJICUG_clean_linker_0, # of connection points: 2
#     Edge 51, Type (0, 0), BuildingBlock: OJICUG_clean_linker_0, # of connection points: 2
#     Edge 52, Type (0, 0), BuildingBlock: OJICUG_clean_linker_0, # of connection points: 2
#     Edge 53, Type (0, 0), BuildingBlock: OJICUG_clean_linker_0, # of connection points: 2
#     Edge 54, Type (0, 0), BuildingBlock: OJICUG_clean_linker_0, # of connection points: 2
#     Edge 55, Type (0, 0), BuildingBlock: OJICUG_clean_linker_0, # of connection points: 2
#     Edge 56, Type (0, 0), BuildingBlock: OJICUG_clean_linker_0, # of connection points: 2
#     Edge 57, Type (0, 0), BuildingBlock: OJICUG_clean_linker_0, # of connection points: 2
#     Edge 58, Type (0, 0), BuildingBlock: OJICUG_clean_linker_0, # of connection points: 2
#     Edge 59, Type (0, 0), BuildingBlock: OJICUG_clean_linker_0, # of connection points: 2
#     Edge 60, Type (0, 0), BuildingBlock: OJICUG_clean_linker_0, # of connection points: 2
#     Edge 61, Type (0, 0), BuildingBlock: OJICUG_clean_linker_0, # of connection points: 2
#     Edge 62, Type (0, 0), BuildingBlock: OJICUG_clean_linker_0, # of connection points: 2
#     Edge 63, Type (0, 0), BuildingBlock: OJICUG_clean_linker_0, # of connection points: 2
#     Edge 64, Type (0, 0), BuildingBlock: OJICUG_clean_linker_0, # of connection points: 2
#     Edge 65, Type (0, 0), BuildingBlock: OJICUG_clean_linker_0, # of connection points: 2
#     Edge 66, Type (0, 0), BuildingBlock: OJICUG_clean_linker_0, # of connection points: 2
#     Edge 67, Type (0, 0), BuildingBlock: OJICUG_clean_linker_0, # of connection points: 2
#     Edge 68, Type (0, 0), BuildingBlock: OJICUG_clean_linker_0, # of connection points: 2
#     Edge 69, Type (0, 0), BuildingBlock: OJICUG_clean_linker_0, # of connection points: 2
#     Edge 70, Type (0, 0), BuildingBlock: OJICUG_clean_linker_0, # of connection points: 2
#     Edge 71, Type (0, 0), BuildingBlock: OJICUG_clean_linker_0, # of connection points: 2
#     Edge 72, Type (0, 0), BuildingBlock: OJICUG_clean_linker_0, # of connection points: 2
#     Edge 73, Type (0, 0), BuildingBlock: OJICUG_clean_linker_0, # of connection points: 2
#     Edge 74, Type (0, 0), BuildingBlock: OJICUG_clean_linker_0, # of connection points: 2
#     Edge 75, Type (0, 0), BuildingBlock: OJICUG_clean_linker_0, # of connection points: 2
#     Edge 76, Type (0, 0), BuildingBlock: OJICUG_clean_linker_0, # of connection points: 2
#     Edge 77, Type (0, 0), BuildingBlock: OJICUG_clean_linker_0, # of connection points: 2
#     Edge 78, Type (0, 0), BuildingBlock: OJICUG_clean_linker_0, # of connection points: 2
#     Edge 79, Type (0, 0), BuildingBlock: OJICUG_clean_linker_0, # of connection points: 2
#     Edge 80, Type (0, 0), BuildingBlock: OJICUG_clean_linker_0, # of connection points: 2
#     Edge 81, Type (0, 0), BuildingBlock: OJICUG_clean_linker_0, # of connection points: 2
#     Edge 82, Type (0, 0), BuildingBlock: OJICUG_clean_linker_0, # of connection points: 2
#     Edge 83, Type (0, 0), BuildingBlock: OJICUG_clean_linker_0, # of connection points: 2
#     Edge 84, Type (0, 0), BuildingBlock: OJICUG_clean_linker_0, # of connection points: 2
#     Edge 85, Type (0, 0), BuildingBlock: OJICUG_clean_linker_0, # of connection points: 2
#     Edge 86, Type (0, 0), BuildingBlock: OJICUG_clean_linker_0, # of connection points: 2
#     Edge 87, Type (0, 0), BuildingBlock: OJICUG_clean_linker_0, # of connection points: 2
#     Edge 88, Type (0, 0), BuildingBlock: OJICUG_clean_linker_0, # of connection points: 2
#     Edge 89, Type (0, 0), BuildingBlock: OJICUG_clean_linker_0, # of connection points: 2
#     Edge 90, Type (0, 0), BuildingBlock: OJICUG_clean_linker_0, # of connection points: 2
#     Edge 91, Type (0, 0), BuildingBlock: OJICUG_clean_linker_0, # of connection points: 2
#     Edge 92, Type (0, 0), BuildingBlock: OJICUG_clean_linker_0, # of connection points: 2
#     Edge 93, Type (0, 0), BuildingBlock: OJICUG_clean_linker_0, # of connection points: 2
#     Edge 94, Type (0, 0), BuildingBlock: OJICUG_clean_linker_0, # of connection points: 2
#     Edge 95, Type (0, 0), BuildingBlock: OJICUG_clean_linker_0, # of connection points: 2
#     Edge 96, Type (0, 0), BuildingBlock: OJICUG_clean_linker_0, # of connection points: 2
#     Edge 97, Type (0, 0), BuildingBlock: OJICUG_clean_linker_0, # of connection points: 2
#     Edge 98, Type (0, 0), BuildingBlock: OJICUG_clean_linker_0, # of connection points: 2
#     Edge 99, Type (0, 0), BuildingBlock: OJICUG_clean_linker_0, # of connection points: 2
#     Edge 100, Type (0, 0), BuildingBlock: OJICUG_clean_linker_0, # of connection points: 2
#     Edge 101, Type (0, 0), BuildingBlock: OJICUG_clean_linker_0, # of connection points: 2
#     Edge 102, Type (0, 0), BuildingBlock: OJICUG_clean_linker_0, # of connection points: 2
#     Edge 103, Type (0, 0), BuildingBlock: OJICUG_clean_linker_0, # of connection points: 2
#     Edge 104, Type (0, 0), BuildingBlock: OJICUG_clean_linker_0, # of connection points: 2
#     Edge 105, Type (0, 0), BuildingBlock: OJICUG_clean_linker_0, # of connection points: 2
#     Edge 106, Type (0, 0), BuildingBlock: OJICUG_clean_linker_0, # of connection points: 2
#     Edge 107, Type (0, 0), BuildingBlock: OJICUG_clean_linker_0, # of connection points: 2
#     Edge 108, Type (0, 0), BuildingBlock: OJICUG_clean_linker_0, # of connection points: 2
#     Edge 109, Type (0, 0), BuildingBlock: OJICUG_clean_linker_0, # of connection points: 2
#     Edge 110, Type (0, 0), BuildingBlock: OJICUG_clean_linker_0, # of connection points: 2
#     Edge 111, Type (0, 0), BuildingBlock: OJICUG_clean_linker_0, # of connection points: 2
#     Edge 112, Type (0, 0), BuildingBlock: OJICUG_clean_linker_0, # of connection points: 2
#     Edge 113, Type (0, 0), BuildingBlock: OJICUG_clean_linker_0, # of connection points: 2
#     Edge 114, Type (0, 0), BuildingBlock: OJICUG_clean_linker_0, # of connection points: 2
#     Edge 115, Type (0, 0), BuildingBlock: OJICUG_clean_linker_0, # of connection points: 2
#     Edge 116, Type (0, 0), BuildingBlock: OJICUG_clean_linker_0, # of connection points: 2
#     Edge 117, Type (0, 0), BuildingBlock: OJICUG_clean_linker_0, # of connection points: 2
#     Edge 118, Type (0, 0), BuildingBlock: OJICUG_clean_linker_0, # of connection points: 2
#     Edge 119, Type (0, 0), BuildingBlock: OJICUG_clean_linker_0, # of connection points: 2
#     Edge 120, Type (0, 0), BuildingBlock: OJICUG_clean_linker_0, # of connection points: 2
#     Edge 121, Type (0, 0), BuildingBlock: OJICUG_clean_linker_0, # of connection points: 2
#     Edge 122, Type (0, 0), BuildingBlock: OJICUG_clean_linker_0, # of connection points: 2
#     Edge 123, Type (0, 0), BuildingBlock: OJICUG_clean_linker_0, # of connection points: 2
#     Edge 124, Type (0, 0), BuildingBlock: OJICUG_clean_linker_0, # of connection points: 2
#     Edge 125, Type (0, 0), BuildingBlock: OJICUG_clean_linker_0, # of connection points: 2
#     Edge 126, Type (0, 0), BuildingBlock: OJICUG_clean_linker_0, # of connection points: 2
#     Edge 127, Type (0, 0), BuildingBlock: OJICUG_clean_linker_0, # of connection points: 2
#     Edge 128, Type (0, 0), BuildingBlock: OJICUG_clean_linker_0, # of connection points: 2
#     Edge 129, Type (0, 0), BuildingBlock: OJICUG_clean_linker_0, # of connection points: 2
#     Edge 130, Type (0, 0), BuildingBlock: OJICUG_clean_linker_0, # of connection points: 2
#     Edge 131, Type (0, 0), BuildingBlock: OJICUG_clean_linker_0, # of connection points: 2
#     Edge 132, Type (0, 0), BuildingBlock: OJICUG_clean_linker_0, # of connection points: 2
#     Edge 133, Type (0, 0), BuildingBlock: OJICUG_clean_linker_0, # of connection points: 2
#     Edge 134, Type (0, 0), BuildingBlock: OJICUG_clean_linker_0, # of connection points: 2
#     Edge 135, Type (0, 0), BuildingBlock: OJICUG_clean_linker_0, # of connection points: 2
#     Edge 136, Type (0, 0), BuildingBlock: OJICUG_clean_linker_0, # of connection points: 2
#     Edge 137, Type (0, 0), BuildingBlock: OJICUG_clean_linker_0, # of connection points: 2
#     Edge 138, Type (0, 0), BuildingBlock: OJICUG_clean_linker_0, # of connection points: 2
#     Edge 139, Type (0, 0), BuildingBlock: OJICUG_clean_linker_0, # of connection points: 2
#     Edge 140, Type (0, 0), BuildingBlock: OJICUG_clean_linker_0, # of connection points: 2
#     Edge 141, Type (0, 0), BuildingBlock: OJICUG_clean_linker_0, # of connection points: 2
#     Edge 142, Type (0, 0), BuildingBlock: OJICUG_clean_linker_0, # of connection points: 2
#     Edge 143, Type (0, 0), BuildingBlock: OJICUG_clean_linker_0, # of connection points: 2
# Relax obj value: 0.474
# Max RMSD: 0.204
# Mean RMSD: 0.204
data_MOF--net-wmt--node1-BETFAJ_clean_sbu_0--edge1-OJICUG_clean_linker_0
_symmetry_space_group_name_H-M    P1
_symmetry_Int_Tables_number       1
_symmetry_cell_setting            triclinic
loop_
_symmetry_equiv_pos_as_xyz
'x, y, z'
_cell_length_a     58.605755
_cell_length_b     58.586867
_cell_length_c     27.207903
_cell_angle_alpha  89.939289
_cell_angle_beta   90.036343
_cell_angle_gamma 119.98731
loop_
_atom_site_label
_atom_site_type_symbol
_atom_site_fract_x
_atom_site_fract_y
_atom_site_fract_z
_atom_type_partial_charge
Sm0 Sm 0.06835 0.4739 0.20458 0.0
Sm1 Sm 0.02064 0.428 0.15687 0.0
C2 C 0.09681 0.51348 0.26589 0.0
C3 C 0.0912 0.5223 0.3137 0.0
C4 C 0.06559 0.51686 0.3257 0.0
C5 C 0.06058 0.52604 0.36992 0.0
C6 C 0.08099 0.54081 0.40374 0.0
C7 C 0.10655 0.54585 0.39183 0.0
C8 C 0.11156 0.53677 0.34744 0.0
C9 C 0.08231 0.44546 0.14097 0.0
C10 C 0.02079 0.42764 0.27727 0.0
C11 C 0.98883 0.38682 0.10322 0.0
C12 C 0.99161 0.37881 1.0539 0.0
C13 C 0.00458 0.39806 1.01779 0.0
C14 C 0.01187 0.39158 0.9739 0.0
C15 C 0.00682 0.36578 0.96557 0.0
C16 C 0.99231 0.34612 1.00056 0.0
C17 C 0.98471 0.35264 1.04455 0.0
C18 C 0.01099 0.46726 0.18719 0.0
C19 C 0.05948 0.48114 0.08821 0.0
O20 O 0.0847 0.51563 0.2272 0.0
O21 O 0.09754 0.49144 0.26599 0.0
O22 O 0.06196 0.43526 0.16912 0.0
O23 O 0.09789 0.46967 0.155 0.0
O24 O 0.04275 0.45055 0.27277 0.0
O25 O 0.00904 0.41347 0.23775 0.0
O26 O 0.00529 0.38656 0.13543 0.0
O27 O 0.98675 0.40801 0.10599 0.0
O28 O 0.03194 0.46964 0.17052 0.0
O29 O 0.99419 0.44228 0.19241 0.0
O30 O 0.04177 0.45545 0.08889 0.0
O31 O 0.07068 0.49394 0.12961 0.0
H32 H 0.04939 0.50558 0.30069 0.0
H33 H 0.04058 0.5213 0.3778 0.0
H34 H 0.12289 0.5573 0.4164 0.0
H35 H 0.13148 0.54131 0.33924 0.0
H36 H 0.00985 0.41834 1.02399 0.0
H37 H 0.02175 0.407 0.94678 0.0
H38 H 0.98748 0.32595 0.99474 0.0
H39 H 0.97435 0.33747 0.07189 0.0
Sm40 Sm 0.51876 0.59647 0.20337 0.0
Sm41 Sm 0.56603 0.59666 0.15665 0.0
C42 C 0.47762 0.58299 0.26185 0.0
C43 C 0.46854 0.56833 0.30942 0.0
C44 C 0.47349 0.54776 0.3211 0.0
C45 C 0.46424 0.53356 0.36532 0.0
C46 C 0.44993 0.53961 0.39947 0.0
C47 C 0.44531 0.56045 0.38781 0.0
C48 C 0.45444 0.57454 0.34343 0.0
C49 C 0.54649 0.63958 0.14103 0.0
C50 C 0.56443 0.59536 0.27782 0.0
C51 C 0.61054 0.60747 0.11327 0.0
C52 C 0.62691 0.62045 0.07076 0.0
C53 C 0.61754 0.6298 1.03317 0.0
C54 C 0.63275 0.64102 0.99154 0.0
C55 C 0.6569 0.6417 0.98592 0.0
C56 C 0.66645 0.63267 1.02396 0.0
C57 C 0.65167 0.62243 0.06668 0.0
C58 C 0.52689 0.54675 0.18423 0.0
C59 C 0.51428 0.58234 0.08547 0.0
O60 O 0.47701 0.56921 0.22347 0.0
O61 O 0.49884 0.6064 0.26296 0.0
O62 O 0.55713 0.62972 0.16895 0.0
O63 O 0.52218 0.63031 0.15505 0.0
O64 O 0.54177 0.59488 0.27291 0.0
O65 O 0.57866 0.59769 0.2385 0.0
O66 O 0.60866 0.62295 0.14568 0.0
O67 O 0.58815 0.58593 0.10463 0.0
O68 O 0.52449 0.56546 0.1685 0.0
O69 O 0.55189 0.55508 0.18895 0.0
O70 O 0.54012 0.59103 0.08687 0.0
O71 O 0.50079 0.57971 0.12654 0.0
H72 H 0.48449 0.5426 0.29591 0.0
H73 H 0.46862 0.51802 0.37302 0.0
H74 H 0.4342 0.56564 0.41266 0.0
H75 H 0.45029 0.59023 0.3355 0.0
H76 H 0.59789 0.62702 1.03475 0.0
H77 H 0.6244 0.64671 0.96161 0.0
H78 H 0.68433 0.6319 1.01915 0.0
H79 H 0.65893 0.61488 0.0954 0.0
Sm80 Sm 0.40041 0.92538 0.20163 0.0
Sm81 Sm 0.40368 0.97446 0.15723 0.0
C82 C 0.41084 0.89609 0.26198 0.0
C83 C 0.42539 0.90194 0.30965 0.0
C84 C 0.44484 0.92783 0.32187 0.0
C85 C 0.459 0.93325 0.3662 0.0
C86 C 0.45406 0.91295 0.39987 0.0
C87 C 0.43431 0.88708 0.38766 0.0
C88 C 0.42023 0.88167 0.34318 0.0
C89 C 0.35865 0.913 0.1377 0.0
C90 C 0.40128 0.97174 0.27714 0.0
C91 C 0.39672 0.00991 0.11014 0.0
C92 C 0.38542 0.01054 0.06294 0.0
C93 C 0.38811 0.9969 1.02332 0.0
C94 C 0.37372 0.99326 0.98094 0.0
C95 C 0.35654 0.00333 0.97729 0.0
C96 C 0.35504 0.01852 1.01558 0.0
C97 C 0.36932 0.02189 0.05876 0.0
C98 C 0.4519 0.98264 0.18902 0.0
C99 C 0.41796 0.93655 0.08591 0.0
O100 O 0.42507 0.90801 0.22315 0.0
O101 O 0.38823 0.89567 0.26218 0.0
O102 O 0.36893 0.93304 0.16663 0.0
O103 O 0.36662 0.89673 0.15058 0.0
O104 O 0.40245 0.94996 0.2714 0.0
O105 O 0.39914 0.98403 0.2383 0.0
O106 O 0.37976 0.99316 0.1416 0.0
O107 O 0.41876 0.00934 0.10858 0.0
O108 O 0.43332 0.96226 0.17075 0.0
O109 O 0.44376 -0.00068 0.19625 0.0
O110 O 0.41078 0.95489 0.08764 0.0
O111 O 0.41854 0.92417 0.12654 0.0
H112 H 0.44916 0.94395 0.29699 0.0
H113 H 0.47366 0.95346 0.3743 0.0
H114 H 0.43 0.87083 0.41213 0.0
H115 H 0.4054 0.86155 0.3348 0.0
H116 H 0.40065 0.98825 1.02561 0.0
H117 H 0.37603 0.98248 0.95082 0.0
H118 H 0.34235 0.02699 1.01262 0.0
H119 H 0.36709 0.03244 0.08935 0.0
Sm120 Sm 0.46983 0.06635 0.54883 0.0
Sm121 Sm 0.42423 0.01841 0.59665 0.0
C122 C 0.50948 0.09429 0.4871 0.0
C123 C 0.51829 0.08849 0.43933 0.0
C124 C 0.51241 0.06275 0.4271 0.0
C125 C 0.52162 0.05762 0.38296 0.0
C126 C 0.5369 0.07805 0.34941 0.0
C127 C 0.54245 0.10375 0.36167 0.0
C128 C 0.53332 0.10887 0.40593 0.0
C129 C 0.44103 0.08021 0.61155 0.0
C130 C 0.42361 0.01894 0.47635 0.0
C131 C 0.38295 0.984 0.64758 0.0
C132 C 0.37196 0.98475 0.69492 0.0
C133 C 0.34519 0.96784 0.70497 0.0
C134 C 0.33434 0.97089 0.74845 0.0
C135 C 0.35028 0.99095 0.78169 0.0
C136 C 0.37722 0.00721 0.77177 0.0
C137 C 0.38794 0.00417 0.72871 0.0
C138 C 0.46377 0.00936 0.56535 0.0
C139 C 0.47702 0.05765 0.66561 0.0
O140 O 0.51149 0.08221 0.52598 0.0
O141 O 0.48759 0.09528 0.48694 0.0
O142 O 0.43087 0.05962 0.58399 0.0
O143 O 0.46526 0.09587 0.5976 0.0
O144 O 0.44637 0.04101 0.48073 0.0
O145 O 0.40966 0.00698 0.51591 0.0
O146 O 0.38178 -0.0005 0.61428 0.0
O147 O 0.40584 0.98521 0.64921 0.0
O148 O 0.46587 0.03006 0.58259 0.0
O149 O 0.43888 0.9926 0.55953 0.0
O150 O 0.45134 0.03985 0.66496 0.0
O151 O 0.48976 0.06891 0.62413 0.0
H152 H 0.50073 0.04654 0.45187 0.0
H153 H 0.51647 0.03752 0.37491 0.0
H154 H 0.55433 0.12014 0.33746 0.0
H155 H 0.53827 0.1289 0.41428 0.0
H156 H 0.33265 0.95286 0.67877 0.0
H157 H 0.3136 0.9579 0.75586 0.0
H158 H 0.3902 0.02213 0.79764 0.0
H159 H 0.40865 0.01733 0.72145 0.0
Sm160 Sm 0.92609 0.4027 0.55172 0.0
Sm161 Sm 0.97393 0.40487 0.59727 0.0
C162 C 0.89753 0.41422 0.49131 0.0
C163 C 0.90339 0.4291 0.44381 0.0
C164 C 0.92907 0.44937 0.43232 0.0
C165 C 0.93433 0.46377 0.38819 0.0
C166 C 0.91413 0.45826 0.35391 0.0
C167 C 0.8885 0.43771 0.36542 0.0
C168 C 0.88324 0.42341 0.40968 0.0
C169 C 0.912 0.36001 0.61491 0.0
C170 C 0.97294 0.40476 0.47667 0.0
C171 C 0.01028 0.39844 0.64231 0.0
C172 C 0.01317 0.38507 0.6847 0.0
C173 C 0.99239 0.37242 0.71789 0.0
C174 C 0.99544 0.36058 0.75958 0.0
C175 C 0.01969 0.36196 0.76938 0.0
C176 C 0.04038 0.37432 0.73549 0.0
C177 C 0.037 0.38557 0.69288 0.0
C178 C 0.9829 0.45388 0.56736 0.0
C179 C 0.93568 0.41804 0.66858 0.0
O180 O 0.90948 0.4281 0.53043 0.0
O181 O 0.89677 0.39145 0.4906 0.0
O182 O 0.93244 0.37001 0.58678 0.0
O183 O 0.89667 0.369 0.6012 0.0
O184 O 0.95101 0.40559 0.4822 0.0
O185 O 0.98477 0.40209 0.51574 0.0
O186 O 0.99523 0.38302 0.60731 0.0
O187 O 0.0062 0.418 0.65173 0.0
O188 O 0.96238 0.43521 0.58485 0.0
O189 O -0.00033 0.44582 0.56128 0.0
O190 O 0.95314 0.40974 0.66718 0.0
O191 O 0.92452 0.42015 0.62745 0.0
H192 H 0.94513 0.45415 0.45761 0.0
H193 H 0.95439 0.47904 0.3807 0.0
H194 H 0.87229 0.43291 0.34056 0.0
H195 H 0.86327 0.40797 0.41742 0.0
H196 H 0.97428 0.37277 0.71263 0.0
H197 H 0.97944 0.35207 0.78591 0.0
H198 H 0.05943 0.37647 0.74329 0.0
H199 H 0.05325 0.39549 0.66734 0.0
Sm200 Sm 0.58995 0.52374 0.5493 0.0
Sm201 Sm 0.58768 0.56886 0.5968 0.0
C202 C 0.58021 0.48508 0.48667 0.0
C203 C 0.56568 0.47638 0.43896 0.0
C204 C 0.54534 0.48169 0.42756 0.0
C205 C 0.53104 0.47263 0.38343 0.0
C206 C 0.53674 0.45812 0.34911 0.0
C207 C 0.55743 0.45323 0.3604 0.0
C208 C 0.57163 0.46218 0.40472 0.0
C209 C 0.63203 0.55127 0.61456 0.0
C210 C 0.58815 0.56993 0.47669 0.0
C211 C 0.59564 0.60888 0.65296 0.0
C212 C 0.60874 0.61612 0.70038 0.0
C213 C 0.61784 0.60009 0.71949 0.0
C214 C 0.63159 0.60642 0.76316 0.0
C215 C 0.63666 0.62906 0.78939 0.0
C216 C 0.62662 0.64486 0.77075 0.0
C217 C 0.61286 0.63849 0.72615 0.0
C218 C 0.53877 0.52987 0.56531 0.0
C219 C 0.57285 0.51517 0.66435 0.0
O220 O 0.56587 0.48201 0.5257 0.0
O221 O 0.60247 0.5076 0.4869 0.0
O222 O 0.62248 0.56207 0.58619 0.0
O223 O 0.6227 0.52696 0.60065 0.0
O224 O 0.58694 0.54689 0.48133 0.0
O225 O 0.59103 0.58418 0.51631 0.0
O226 O 0.61115 0.61105 0.61654 0.0
O227 O 0.57355 0.58637 0.65284 0.0
O228 O 0.55715 0.52727 0.58233 0.0
O229 O 0.5472 0.55491 0.56031 0.0
O230 O 0.58097 0.54084 0.66393 0.0
O231 O 0.5713 0.50257 0.6228 0.0
H232 H 0.54038 0.49276 0.453 0.0
H233 H 0.51564 0.47725 0.37602 0.0
H234 H 0.56236 0.44199 0.33539 0.0
H235 H 0.58715 0.45776 0.41245 0.0
H236 H 0.61457 0.58266 0.70015 0.0
H237 H 0.63814 0.59324 0.77572 0.0
H238 H 0.62896 0.66188 0.79059 0.0
H239 H 0.60564 0.65096 0.71183 0.0
Sm240 Sm 0.97411 0.5695 0.09731 0.0
Sm241 Sm 0.9263 0.52322 1.05135 0.0
C242 C 0.00978 0.61269 0.14219 0.0
C243 C 0.01244 0.62882 0.18461 0.0
C244 C 0.99192 0.62009 0.21854 0.0
C245 C 0.99476 0.635 0.26004 0.0
C246 C 0.01856 0.6585 0.26893 0.0
C247 C 0.03901 0.66737 0.23441 0.0
C248 C 0.03582 0.65272 0.19197 0.0
C249 C 0.98374 0.53 0.06742 0.0
C250 C 0.9362 0.51766 0.16841 0.0
C251 C 0.89793 0.48286 0.99157 0.0
C252 C 0.90363 0.47391 0.94394 0.0
C253 C 0.92933 0.47962 0.93184 0.0
C254 C 0.93444 0.47047 0.88767 0.0
C255 C 0.91405 0.45545 0.85396 0.0
C256 C 0.88839 0.45008 0.86605 0.0
C257 C 0.88328 0.45913 0.91037 0.0
C258 C 0.9121 0.55145 0.11473 0.0
C259 C 0.97268 0.56873 0.97645 0.0
O260 O 0.99437 0.61262 0.10739 0.0
O261 O 0.00639 0.58928 0.15153 0.0
O262 O 0.96294 0.52775 0.08439 0.0
O263 O 0.00039 0.55492 0.06186 0.0
O264 O 0.95353 0.54347 0.1671 0.0
O265 O 0.92507 0.50441 0.12728 0.0
O266 O 0.9104 0.48133 1.03029 0.0
O267 O 0.89668 0.50461 0.99089 0.0
O268 O 0.93244 0.56202 0.0864 0.0
O269 O 0.89676 0.52717 0.10087 0.0
O270 O 0.95084 0.54586 0.98183 0.0
O271 O 0.98463 0.58308 1.0156 0.0
H272 H 0.9742 0.60122 0.21393 0.0
H273 H 0.97901 0.62712 0.28693 0.0
H274 H 0.05776 0.6848 0.24153 0.0
H275 H 0.05188 0.65953 0.16588 0.0
H276 H 0.94552 0.49115 0.9567 0.0
H277 H 0.95451 0.47546 0.87968 0.0
H278 H 0.87205 0.43841 0.84162 0.0
H279 H 0.8633 0.45437 0.91861 0.0
Sm280 Sm 0.4236 0.40676 0.09738 0.0
Sm281 Sm 0.46838 0.40409 1.04944 0.0
C282 C 0.38296 0.39944 0.15147 0.0
C283 C 0.37122 0.38187 0.19325 0.0
C284 C 0.38126 0.36549 0.2054 0.0
C285 C 0.37324 0.35061 0.24794 0.0
C286 C 0.35538 0.35212 0.27983 0.0
C287 C 0.34401 0.36748 0.26631 0.0
C288 C 0.35197 0.38239 0.22293 0.0
C289 C 0.46296 0.45583 0.06675 0.0
C290 C 0.47642 0.42055 0.1653 0.0
C291 C 0.50745 0.41383 0.98778 0.0
C292 C 0.5162 0.42786 0.93962 0.0
C293 C 0.51071 0.44792 0.92688 0.0
C294 C 0.51987 0.4618 0.88237 0.0
C295 C 0.53466 0.45595 0.84902 0.0
C296 C 0.53971 0.43551 0.86161 0.0
C297 C 0.53066 0.42172 0.90632 0.0
C298 C 0.44079 0.36181 0.11392 0.0
C299 C 0.42234 0.40568 0.97671 0.0
O300 O 0.3806 0.38738 0.10988 0.0
O301 O 0.40697 0.41871 0.159 0.0
O302 O 0.46538 0.43718 0.08282 0.0
O303 O 0.438 0.44771 0.06251 0.0
O304 O 0.45064 0.41194 0.1652 0.0
O305 O 0.48904 0.42254 0.12351 0.0
O306 O 0.51009 0.42852 1.02599 0.0
O307 O 0.48512 0.39138 0.98836 0.0
O308 O 0.42992 0.37153 0.08597 0.0
O309 O 0.4652 0.37141 0.10059 0.0
O310 O 0.44505 0.40621 0.981 0.0
O311 O 0.40866 0.40385 1.01661 0.0
H312 H 0.3963 0.36529 0.18283 0.0
H313 H 0.38201 0.33894 0.25757 0.0
H314 H 0.33025 0.3692 0.29043 0.0
H315 H 0.34402 0.39504 0.21375 0.0
H316 H 0.49944 0.45299 0.95158 0.0
H317 H 0.51513 0.47702 0.87392 0.0
H318 H 0.55116 0.43048 0.83734 0.0
H319 H 0.53521 0.4064 0.91512 0.0
Sm320 Sm 0.58726 0.01833 0.09174 0.0
Sm321 Sm 0.59194 0.06722 1.04808 0.0
C322 C 0.59157 0.98053 0.13557 0.0
C323 C 0.60687 0.97955 0.17657 0.0
C324 C 0.63281 -0.0 0.18277 0.0
C325 C 0.64504 0.0037 0.22779 0.0
C326 C 0.6317 0.98674 0.26697 0.0
C327 C 0.60678 0.96446 0.25902 0.0
C328 C 0.59433 0.96096 0.21385 0.0
C329 C 0.539 0.01094 0.06129 0.0
C330 C 0.57499 0.05672 0.16419 0.0
C331 C 0.58202 0.09685 0.98725 0.0
C332 C 0.56716 0.09103 0.93964 0.0
C333 C 0.5469 0.06534 0.92819 0.0
C334 C 0.53237 0.06005 0.88421 0.0
C335 C 0.53769 0.08025 0.84996 0.0
C336 C 0.55826 0.1059 0.8614 0.0
C337 C 0.5727 0.11118 0.90553 0.0
C338 C 0.63356 0.07891 0.11282 0.0
C339 C 0.58985 0.02071 0.97234 0.0
O340 O 0.60516 0.99308 0.09662 0.0
O341 O 0.57358 0.98657 0.1474 0.0
O342 O 0.55788 0.03124 0.07898 0.0
O343 O 0.54683 0.99414 1.05356 0.0
O344 O 0.58257 0.03871 0.16247 0.0
O345 O 0.57388 0.06865 0.1233 0.0
O346 O 0.56795 0.08537 1.02645 0.0
O347 O 0.6044 0.09681 0.98701 0.0
O348 O 0.62351 0.05913 0.08309 0.0
O349 O 0.62511 0.09493 0.10067 0.0
O350 O 0.58955 0.04291 0.97786 0.0
O351 O 0.59128 0.00817 1.01122 0.0
H352 H 0.64296 0.01419 0.15393 0.0
H353 H 0.66427 0.02072 0.23247 0.0
H354 H 0.59593 0.95113 0.28879 0.0
H355 H 0.57423 0.94503 0.20935 0.0
H356 H 0.54219 0.04927 0.95345 0.0
H357 H 0.51712 0.03998 0.87685 0.0
H358 H 0.56294 0.12213 0.83662 0.0
H359 H 0.58811 0.13117 0.9132 0.0
Sm360 Sm 0.56565 0.97481 0.65501 0.0
Sm361 Sm 0.52032 0.92562 0.70092 0.0
C362 C 0.60703 0.0105 0.60597 0.0
C363 C 0.61751 0.01198 0.55697 0.0
C364 C 0.60012 -0.00196 0.51874 0.0
C365 C 0.60984 0.99636 0.47349 0.0
C366 C 0.63705 0.00882 0.4657 0.0
C367 C 0.65467 0.02371 0.50306 0.0
C368 C 0.64483 0.02515 0.54902 0.0
C369 C 0.52551 0.98246 0.68777 0.0
C370 C 0.51328 0.93582 0.58507 0.0
C371 C 0.48113 0.8968 0.7627 0.0
C372 C 0.47242 0.90287 0.81025 0.0
C373 C 0.47823 0.92868 0.82167 0.0
C374 C 0.46942 0.93419 0.86587 0.0
C375 C 0.45463 0.91409 0.90029 0.0
C376 C 0.44909 0.88831 0.88879 0.0
C377 C 0.45783 0.88281 0.84447 0.0
C378 C 0.55017 0.91362 0.63744 0.0
C379 C 0.56618 0.97286 0.77441 0.0
O380 O 0.6077 0.99299 0.63482 0.0
O381 O 0.58464 0.01033 0.608 0.0
O382 O 0.52371 0.96211 0.66936 0.0
O383 O 0.5503 -0.00061 0.69438 0.0
O384 O 0.5387 0.95433 0.58632 0.0
O385 O 0.50052 0.92361 0.62595 0.0
O386 O 0.47841 0.90817 0.7234 0.0
O387 O 0.50346 0.89667 0.76286 0.0
O388 O 0.55957 0.93374 0.66608 0.0
O389 O 0.52602 0.89706 0.65053 0.0
O390 O 0.54316 0.95112 0.76937 0.0
O391 O 0.58054 0.9848 0.73536 0.0
H392 H 0.579 0.98781 0.52421 0.0
H393 H 0.59609 0.98514 0.44446 0.0
H394 H 0.67575 0.03357 0.49701 0.0
H395 H 0.65842 0.03581 0.57858 0.0
H396 H 0.48959 0.94466 0.79626 0.0
H397 H 0.47453 0.95435 0.87332 0.0
H398 H 0.43757 0.87216 0.91373 0.0
H399 H 0.45298 0.86274 0.83676 0.0
Sm400 Sm 0.0204 0.59325 0.65638 0.0
Sm401 Sm 0.06783 0.59494 0.70433 0.0
C402 C 0.98885 0.60298 0.6025 0.0
C403 C 0.99181 0.6141 0.55338 0.0
C404 C 0.00524 0.60838 0.51739 0.0
C405 C 0.0124 0.62229 0.47362 0.0
C406 C 0.00678 0.64266 0.46525 0.0
C407 C 0.9919 0.6473 0.50019 0.0
C408 C 0.98443 0.63303 0.54407 0.0
C409 C 0.01037 0.54417 0.68625 0.0
C410 C 0.05929 0.57903 0.58795 0.0
C411 C 0.09641 0.58399 0.76576 0.0
C412 C 0.09089 0.56961 0.81365 0.0
C413 C 0.06529 0.54947 0.82586 0.0
C414 C 0.06037 0.53532 0.87015 0.0
C415 C 0.08085 0.54096 0.90381 0.0
C416 C 0.10639 0.56145 0.8917 0.0
C417 C 0.11132 0.5755 0.84724 0.0
C418 C 0.08195 0.63747 0.64081 0.0
C419 C 0.02025 0.59358 0.77683 0.0
O420 O 0.00514 0.61948 0.63511 0.0
O421 O 0.98681 0.57971 0.60484 0.0
O422 O 0.03154 0.56271 0.67007 0.0
O423 O 0.99365 0.55246 0.69127 0.0
O424 O 0.04163 0.58706 0.58849 0.0
O425 O 0.07038 0.57734 0.62946 0.0
O426 O 0.08428 0.56966 0.72719 0.0
O427 O 0.09705 0.6067 0.76572 0.0
O428 O 0.06165 0.62738 0.66903 0.0
O429 O 0.09742 0.62866 0.65465 0.0
O430 O 0.04219 0.59261 0.77244 0.0
O431 O 0.00856 0.59603 0.73719 0.0
H432 H 0.01091 0.59365 0.52359 0.0
H433 H 0.0226 0.61713 0.44655 0.0
H434 H 0.98662 0.66233 0.49434 0.0
H435 H 0.97372 0.63741 0.57133 0.0
H436 H 0.04905 0.54456 0.80096 0.0
H437 H 0.04037 0.52007 0.87819 0.0
H438 H 0.12278 0.56633 0.91616 0.0
H439 H 0.13123 0.59086 0.83888 0.0
Sm440 Sm 0.39753 0.42878 0.65575 0.0
Sm441 Sm 0.39877 0.47653 0.70316 0.0
C442 C 0.38594 0.38448 0.61027 0.0
C443 C 0.37342 0.3689 0.56657 0.0
C444 C 0.36477 0.37912 0.52928 0.0
C445 C 0.35366 0.36455 0.48692 0.0
C446 C 0.35221 0.34008 0.48041 0.0
C447 C 0.36069 0.3297 0.51794 0.0
C448 C 0.37091 0.34392 0.56132 0.0
C449 C 0.44769 0.46712 0.68309 0.0
C450 C 0.41259 0.48111 0.58524 0.0
C451 C 0.41274 0.51768 0.76191 0.0
C452 C 0.42731 0.52662 0.80956 0.0
C453 C 0.44769 0.52144 0.82144 0.0
C454 C 0.46185 0.53064 0.86569 0.0
C455 C 0.45595 0.54514 0.89965 0.0
C456 C 0.43529 0.54999 0.88779 0.0
C457 C 0.42124 0.54091 0.84338 0.0
C458 C 0.35538 0.44912 0.64141 0.0
C459 C 0.3984 0.42987 0.77705 0.0
O460 O 0.37026 0.38666 0.64175 0.0
O461 O 0.40815 0.40651 0.60362 0.0
O462 O 0.42928 0.47016 0.66778 0.0
O463 O 0.43888 0.44201 0.68779 0.0
O464 O 0.4035 0.45519 0.58646 0.0
O465 O 0.41553 0.49461 0.62642 0.0
O466 O 0.4265 0.51811 0.72364 0.0
O467 O 0.38919 0.49665 0.7629 0.0
O468 O 0.36512 0.4384 0.6693 0.0
O469 O 0.36501 0.47354 0.65511 0.0
O470 O 0.4 0.45307 0.77217 0.0
O471 O 0.39546 0.41544 0.73762 0.0
H472 H 0.36782 0.39886 0.53187 0.0
H473 H 0.34829 0.3734 0.4574 0.0
H474 H 0.36059 0.31138 0.51262 0.0
H475 H 0.37784 0.33594 0.58984 0.0
H476 H 0.45274 0.51029 0.79638 0.0
H477 H 0.47725 0.52608 0.87355 0.0
H478 H 0.43022 0.56125 0.91248 0.0
H479 H 0.40571 0.54525 0.83529 0.0
Sm480 Sm 0.73592 0.8085 0.5373 0.0
Sm481 Sm 0.68964 0.76085 0.49265 0.0
C482 C 0.76511 0.84801 0.59781 0.0
C483 C 0.75929 0.85773 0.64413 0.0
C484 C 0.73363 0.85249 0.65494 0.0
C485 C 0.72827 0.86173 0.69869 0.0
C486 C 0.74841 0.87635 0.73304 0.0
C487 C 0.77407 0.88144 0.72202 0.0
C488 C 0.77941 0.87227 0.67818 0.0
C489 C 0.75187 0.7809 0.47485 0.0
C490 C 0.68871 0.76349 0.61182 0.0
C491 C 0.65861 0.71803 0.4418 0.0
C492 C 0.66347 0.7095 0.39494 0.0
C493 C 0.688 0.7252 0.37345 0.0
C494 C 0.69387 0.7185 0.3286 0.0
C495 C 0.67493 0.69642 0.30276 0.0
C496 C 0.65002 0.6804 0.32474 0.0
C497 C 0.64443 0.6868 0.37104 0.0
C498 C 0.67773 0.79926 0.51978 0.0
C499 C 0.7262 0.81373 0.42141 0.0
O500 O 0.75439 0.85078 0.55759 0.0
O501 O 0.76411 0.82513 0.60007 0.0
O502 O 0.73189 0.77017 0.504 0.0
O503 O 0.76593 0.80563 0.48663 0.0
O504 O 0.70735 0.78816 0.60423 0.0
O505 O 0.68064 0.74679 0.5746 0.0
O506 O 0.6741 0.71872 0.47712 0.0
O507 O 0.657 0.73947 0.43952 0.0
O508 O 0.69888 0.80216 0.50331 0.0
O509 O 0.66141 0.77414 0.52471 0.0
O510 O 0.71009 0.78766 0.42326 0.0
O511 O 0.73638 0.82748 0.4624 0.0
H512 H 0.71764 0.84116 0.62956 0.0
H513 H 0.70821 0.85701 0.70594 0.0
H514 H 0.7902 0.89283 0.74704 0.0
H515 H 0.79935 0.8766 0.67084 0.0
H516 H 0.70257 0.74303 0.39127 0.0
H517 H 0.7132 0.73128 0.31396 0.0
H518 H 0.63454 0.66347 0.30592 0.0
H519 H 0.62524 0.67451 0.38749 0.0
Sm520 Sm 0.19108 0.92837 0.53576 0.0
Sm521 Sm 0.23638 0.92539 0.48829 0.0
C522 C 0.1513 0.9171 0.59677 0.0
C523 C 0.14231 0.90267 0.6447 0.0
C524 C 0.14731 0.88219 0.65684 0.0
C525 C 0.13792 0.86802 0.70112 0.0
C526 C 0.12336 0.87397 0.7349 0.0
C527 C 0.11877 0.8948 0.72284 0.0
C528 C 0.12806 0.90886 0.67841 0.0
C529 C 0.21995 0.97084 0.47281 0.0
C530 C 0.23698 0.92703 0.6089 0.0
C531 C 0.27772 0.93096 0.43907 0.0
C532 C 0.29113 0.94236 0.39299 0.0
C533 C 0.2787 0.94948 0.35718 0.0
C534 C 0.29183 0.96126 0.31388 0.0
C535 C 0.31734 0.96562 0.30553 0.0
C536 C 0.32965 0.95813 0.34102 0.0
C537 C 0.31668 0.94683 0.38509 0.0
C538 C 0.19611 0.87688 0.51922 0.0
C539 C 0.18439 0.91293 0.41877 0.0
O540 O 0.14933 0.90285 0.55821 0.0
O541 O 0.17326 0.9399 0.59687 0.0
O542 O 0.23013 0.96032 0.50022 0.0
O543 O 0.19586 0.96255 0.48721 0.0
O544 O 0.2143 0.92648 0.60425 0.0
O545 O 0.25084 0.92872 0.56938 0.0
O546 O 0.27906 0.94785 0.47196 0.0
O547 O 0.25421 0.91027 0.4352 0.0
O548 O 0.19448 0.89575 0.50197 0.0
O549 O 0.22091 0.88458 0.52497 0.0
O550 O 0.21003 0.92074 0.41958 0.0
O551 O 0.17151 0.91126 0.46015 0.0
H552 H 0.1584 0.87702 0.63188 0.0
H553 H 0.14232 0.85252 0.70906 0.0
H554 H 0.10749 0.89994 0.74733 0.0
H555 H 0.12384 0.92447 0.67015 0.0
H556 H 0.25882 0.94577 0.3626 0.0
H557 H 0.28169 0.96609 0.28601 0.0
H558 H 0.34887 0.96051 0.33412 0.0
H559 H 0.32641 0.9413 0.41262 0.0
Sm560 Sm 0.06855 0.26234 0.53569 0.0
Sm561 Sm 0.0702 0.30978 0.48762 0.0
C562 C 0.0799 0.2342 0.59761 0.0
C563 C 0.09461 0.2402 0.64522 0.0
C564 C 0.11508 0.26584 0.6562 0.0
C565 C 0.12946 0.27119 0.70031 0.0
C566 C 0.12372 0.25112 0.73505 0.0
C567 C 0.10293 0.22553 0.72412 0.0
C568 C 0.08866 0.22017 0.67984 0.0
C569 C 0.02563 0.24824 0.47321 0.0
C570 C 0.0695 0.30984 0.60792 0.0
C571 C 0.06089 0.34148 0.43331 0.0
C572 C 0.04959 0.33833 0.38434 0.0
C573 C 0.05505 0.32465 0.34843 0.0
C574 C 0.04075 0.31713 0.3051 0.0
C575 C 0.02033 0.32271 0.29709 0.0
C576 C 0.01598 0.33786 0.33187 0.0
C577 C 0.03057 0.34562 0.37534 0.0
C578 C 0.11926 0.31958 0.51771 0.0
C579 C 0.08419 0.27077 0.41933 0.0
O580 O 0.09392 0.24598 0.55852 0.0
O581 O 0.05718 0.23353 0.5978 0.0
O582 O 0.03604 0.26865 0.50111 0.0
O583 O 0.0345 0.23273 0.48648 0.0
O584 O 0.07078 0.28806 0.6036 0.0
O585 O 0.06702 0.32148 0.56825 0.0
O586 O 0.04441 0.32554 0.46635 0.0
O587 O 0.08401 0.3432 0.43551 0.0
O588 O 0.1007 0.29861 0.50112 0.0
O589 O 0.11106 0.33638 0.52268 0.0
O590 O 0.07556 0.28795 0.41978 0.0
O591 O 0.08646 0.26013 0.46096 0.0
H592 H 0.12007 0.28179 0.6305 0.0
H593 H 0.14493 0.29121 0.70739 0.0
H594 H 0.09795 0.20943 0.7494 0.0
H595 H 0.07305 0.20023 0.67246 0.0
H596 H 0.06983 0.31901 0.35438 0.0
H597 H 0.04565 0.3067 0.2781 0.0
H598 H 0.00089 0.34308 0.32628 0.0
H599 H 0.02634 0.35644 0.40261 0.0
Sm600 Sm 0.13817 0.40369 0.88265 0.0
Sm601 Sm 0.092 0.35528 0.92844 0.0
C602 C 0.17866 0.43236 0.8233 0.0
C603 C 0.18791 0.42691 0.77577 0.0
C604 C 0.18342 0.40153 0.76439 0.0
C605 C 0.19285 0.3967 0.72026 0.0
C606 C 0.2069 0.41705 0.68587 0.0
C607 C 0.21105 0.44236 0.69723 0.0
C608 C 0.20174 0.4472 0.74151 0.0
C609 C 0.10973 0.41742 0.94659 0.0
C610 C 0.09302 0.35711 0.8076 0.0
C611 C 0.04903 0.31921 0.97336 0.0
C612 C 0.03311 0.31646 1.01619 0.0
C613 C 0.042 0.33698 1.05014 0.0
C614 C 0.0273 0.33412 0.09199 0.0
C615 C 0.00388 0.3103 0.10123 0.0
C616 C 0.9949 0.28981 0.06679 0.0
C617 C 0.00931 0.29302 1.02397 0.0
C618 C 0.13225 0.34669 0.89842 0.0
C619 C 0.14345 0.3936 0.99965 0.0
O620 O 0.18016 0.4199 0.86208 0.0
O621 O 0.15682 0.43345 0.82234 0.0
O622 O 0.09932 0.39702 0.91839 0.0
O623 O 0.13384 0.43306 0.93206 0.0
O624 O 0.1157 0.37914 0.81311 0.0
O625 O 0.07865 0.34492 0.84664 0.0
O626 O 0.0489 0.33465 0.93882 0.0
O627 O 0.07252 0.3227 0.98222 0.0
O628 O 0.13383 0.36714 0.91559 0.0
O629 O 0.10743 0.32957 0.89313 0.0
O630 O 0.11772 0.37605 0.99821 0.0
O631 O 0.15679 0.40486 0.95864 0.0
H632 H 0.17264 0.38536 0.78976 0.0
H633 H 0.1888 0.37686 0.71285 0.0
H634 H 0.22194 0.45867 0.67224 0.0
H635 H 0.20554 0.46694 0.74917 0.0
H636 H 0.06081 0.35473 1.04523 0.0
H637 H 0.03529 0.3499 0.1188 0.0
H638 H 0.97755 0.27104 0.07419 0.0
H639 H 0.00239 0.27695 0.9979 0.0
Sm640 Sm 0.59012 0.73686 0.88323 0.0
Sm641 Sm 0.63587 0.73395 0.92781 0.0
C642 C 0.56187 0.74885 0.82342 0.0
C643 C 0.56808 0.76438 0.7769 0.0
C644 C 0.59382 0.78483 0.76661 0.0
C645 C 0.59956 0.79925 0.72253 0.0
C646 C 0.57976 0.79353 0.68726 0.0
C647 C 0.55403 0.77293 0.69773 0.0
C648 C 0.54829 0.7586 0.74193 0.0
C649 C 0.57331 0.69297 0.94465 0.0
C650 C 0.63636 0.7379 0.80815 0.0
C651 C 0.66873 0.72179 0.97102 0.0
C652 C 0.67132 0.70887 1.01441 0.0
C653 C 0.65242 0.70057 1.05157 0.0
C654 C 0.65549 0.68918 0.09391 0.0
C655 C 0.67825 0.68731 0.10054 0.0
C656 C 0.69701 0.69531 0.06301 0.0
C657 C 0.69337 0.70574 1.01963 0.0
C658 C 0.64863 0.7847 0.90109 0.0
C659 C 0.60035 0.75063 1.00024 0.0
O660 O 0.57316 0.76215 0.86353 0.0
O661 O 0.56169 0.72637 0.82111 0.0
O662 O 0.59346 0.70208 0.91603 0.0
O663 O 0.55931 0.70361 0.93206 0.0
O664 O 0.61816 0.74448 0.81588 0.0
O665 O 0.6441 0.72886 0.84528 0.0
O666 O 0.65074 0.70641 0.9395 0.0
O667 O 0.66919 0.74407 0.9784 0.0
O668 O 0.62742 0.76665 0.91766 0.0
O669 O 0.66453 0.77545 0.89579 0.0
O670 O 0.61604 0.74015 0.99822 0.0
O671 O 0.59036 0.75471 0.95934 0.0
H672 H 0.60959 0.78961 0.79263 0.0
H673 H 0.61967 0.81461 0.71574 0.0
H674 H 0.53815 0.76803 0.67197 0.0
H675 H 0.52831 0.74294 0.74879 0.0
H676 H 0.63613 0.70423 1.049 0.0
H677 H 0.64142 0.68427 0.12352 0.0
H678 H 0.71507 0.695 0.06865 0.0
H679 H 0.70831 0.71245 0.99122 0.0
Sm680 Sm 0.25833 0.85588 0.88324 0.0
Sm681 Sm 0.25592 0.90145 0.92916 0.0
C682 C 0.24732 0.81612 0.82246 0.0
C683 C 0.23268 0.80729 0.77482 0.0
C684 C 0.21269 0.81304 0.76294 0.0
C685 C 0.19831 0.80389 0.71888 0.0
C686 C 0.20357 0.78884 0.68508 0.0
C687 C 0.22387 0.78344 0.69693 0.0
C688 C 0.23815 0.79248 0.74116 0.0
C689 C 0.3005 0.88407 0.94773 0.0
C690 C 0.25877 0.90237 0.80899 0.0
C691 C 0.26244 0.94257 0.98054 0.0
C692 C 0.28046 0.95632 1.02076 0.0
C693 C 0.30122 0.95152 1.02841 0.0
C694 C 0.31695 0.96131 0.06958 0.0
C695 C 0.31113 0.97451 0.10563 0.0
C696 C 0.29117 0.98076 0.0969 0.0
C697 C 0.2759 0.97175 1.05417 0.0
C698 C 0.20714 0.86206 0.89707 0.0
C699 C 0.2414 0.84899 0.9989 0.0
O700 O 0.23319 0.81401 0.86127 0.0
O701 O 0.27003 0.83818 0.82218 0.0
O702 O 0.29083 0.89463 0.91901 0.0
O703 O 0.29099 0.85952 0.93523 0.0
O704 O 0.25726 0.87925 0.81404 0.0
O705 O 0.26073 0.91642 0.84833 0.0
O706 O 0.27394 0.94452 0.93839 0.0
O707 O 0.24426 0.9184 0.99065 0.0
O708 O 0.22559 0.85989 0.9147 0.0
O709 O 0.21538 0.88701 0.89217 0.0
O710 O 0.2503 0.87485 0.99798 0.0
O711 O 0.23947 0.83599 0.95763 0.0
H712 H 0.20808 0.82455 0.78793 0.0
H713 H 0.18322 0.80891 0.71107 0.0
H714 H 0.22846 0.77175 0.6724 0.0
H715 H 0.25337 0.78768 0.74926 0.0
H716 H 0.30433 0.93901 1.00362 0.0
H717 H 0.33272 0.95723 0.07516 0.0
H718 H 0.2861 0.99079 0.12447 0.0
H719 H 0.2597 0.97542 1.04876 0.0
Sm720 Sm 0.64221 0.90422 0.43122 0.0
Sm721 Sm 0.59463 0.85758 0.3844 0.0
C722 C 0.67544 0.94689 0.48107 0.0
C723 C 0.6717 0.96136 0.52092 0.0
C724 C 0.64671 0.95827 0.52786 0.0
C725 C 0.64098 0.96755 0.57014 0.0
C726 C 0.65989 0.97939 0.60698 0.0
C727 C 0.68574 0.98457 0.59849 0.0
C728 C 0.69162 0.97551 0.5554 0.0
C729 C 0.65234 0.86468 0.40344 0.0
C730 C 0.60395 0.85196 0.50121 0.0
C731 C 0.56636 0.81704 0.32487 0.0
C732 C 0.57166 0.8078 0.27719 0.0
C733 C 0.59668 0.8112 0.2663 0.0
C734 C 0.60127 0.8017 0.22203 0.0
C735 C 0.58105 0.78868 0.18701 0.0
C736 C 0.5561 0.7856 0.19791 0.0
C737 C 0.55149 0.79497 0.24233 0.0
C738 C 0.57989 0.88589 0.44676 0.0
C739 C 0.64152 0.90304 0.31018 0.0
O740 O 0.66502 0.94758 0.43897 0.0
O741 O 0.67058 0.9232 0.49261 0.0
O742 O 0.63125 0.86246 0.41869 0.0
O743 O 0.66932 0.88964 0.39952 0.0
O744 O 0.62092 0.87783 0.50009 0.0
O745 O 0.59326 0.83865 0.46 0.0
O746 O 0.57909 0.81575 0.36338 0.0
O747 O 0.56491 0.83869 0.32411 0.0
O748 O 0.60034 0.89638 0.41857 0.0
O749 O 0.56498 0.86132 0.43421 0.0
O750 O 0.61931 0.88047 0.31528 0.0
O751 O 0.65372 0.91725 0.3494 0.0
H752 H 0.63122 0.94712 0.50192 0.0
H753 H 0.62126 0.96386 0.57593 0.0
H754 H 0.70069 0.99354 0.62672 0.0
H755 H 0.71109 0.97801 0.55054 0.0
H756 H 0.61276 0.82119 0.29215 0.0
H757 H 0.62084 0.80491 0.21498 0.0
H758 H 0.53988 0.77551 0.17242 0.0
H759 H 0.53201 0.79199 0.2496 0.0
Sm760 Sm 0.09226 0.73826 0.42949 0.0
Sm761 Sm 0.1381 0.73598 0.38332 0.0
C762 C 0.04925 0.7311 0.47453 0.0
C763 C 0.03307 0.71758 0.51692 0.0
C764 C 0.04186 0.70592 0.55108 0.0
C765 C 0.0269 0.69379 0.59254 0.0
C766 C 0.00328 0.6939 0.60114 0.0
C767 C 0.99434 0.70533 0.56639 0.0
C768 C 0.00905 0.71685 0.524 0.0
C769 C 0.13221 0.78723 0.39963 0.0
C770 C 0.144 0.75159 0.50021 0.0
C771 C 0.17808 0.74726 0.32306 0.0
C772 C 0.18677 0.76172 0.27519 0.0
C773 C 0.18144 0.78201 0.26349 0.0
C774 C 0.19027 0.79606 0.21901 0.0
C775 C 0.20457 0.79013 0.1846 0.0
C776 C 0.20953 0.76951 0.19624 0.0
C777 C 0.20081 0.75557 0.2409 0.0
C778 C 0.1098 0.69385 0.44734 0.0
C779 C 0.09292 0.73758 0.30861 0.0
O780 O 0.04914 0.7158 0.43951 0.0
O781 O 0.07275 0.75093 0.48394 0.0
O782 O 0.13415 0.76844 0.41634 0.0
O783 O 0.10735 0.77934 0.39436 0.0
O784 O 0.11826 0.7434 0.49907 0.0
O785 O 0.15714 0.75353 0.45902 0.0
O786 O 0.17999 0.76145 0.36169 0.0
O787 O 0.15619 0.72438 0.32291 0.0
O788 O 0.0993 0.70373 0.41904 0.0
O789 O 0.13395 0.70244 0.43301 0.0
O790 O 0.11558 0.73817 0.31393 0.0
O791 O 0.07871 0.73547 0.34781 0.0
H792 H 0.06082 0.70722 0.54669 0.0
H793 H 0.03482 0.68603 0.61961 0.0
H794 H 0.97679 0.70647 0.57326 0.0
H795 H 0.00218 0.72598 0.49771 0.0
H796 H 0.17045 0.78711 0.28889 0.0
H797 H 0.18561 0.81141 0.21137 0.0
H798 H 0.22063 0.76441 0.17119 0.0
H799 H 0.20523 0.74007 0.2488 0.0
Sm800 Sm 0.26111 0.35967 0.43043 0.0
Sm801 Sm 0.25949 0.40605 0.38266 0.0
C802 C 0.27309 0.32729 0.47638 0.0
C803 C 0.28549 0.32446 0.52055 0.0
C804 C 0.29361 0.34331 0.55778 0.0
C805 C 0.30464 0.3401 0.60053 0.0
C806 C 0.30657 0.31737 0.60747 0.0
C807 C 0.2985 0.29848 0.57015 0.0
C808 C 0.28839 0.30225 0.52634 0.0
C809 C 0.21096 0.34754 0.40218 0.0
C810 C 0.24524 0.3965 0.50053 0.0
C811 C 0.24525 0.43288 0.3234 0.0
C812 C 0.23067 0.42693 0.27571 0.0
C813 C 0.21083 0.40114 0.26383 0.0
C814 C 0.19664 0.39583 0.21953 0.0
C815 C 0.20198 0.4161 0.18553 0.0
C816 C 0.22212 0.44185 0.1974 0.0
C817 C 0.2362 0.44717 0.24186 0.0
C818 C 0.30274 0.42236 0.44487 0.0
C819 C 0.26044 0.36 0.309 0.0
O820 O 0.28877 0.34531 0.44508 0.0
O821 O 0.25066 0.32674 0.48245 0.0
O822 O 0.22922 0.36899 0.41774 0.0
O823 O 0.21986 0.33128 0.3982 0.0
O824 O 0.25453 0.37982 0.49952 0.0
O825 O 0.24238 0.40708 0.45923 0.0
O826 O 0.23153 0.41958 0.36178 0.0
O827 O 0.26889 0.43562 0.32262 0.0
O828 O 0.29324 0.40189 0.41707 0.0
O829 O 0.29299 0.437 0.43082 0.0
O830 O 0.2587 0.38153 0.31379 0.0
O831 O 0.26339 0.34853 0.34853 0.0
H832 H 0.29029 0.35982 0.55472 0.0
H833 H 0.30977 0.35436 0.62985 0.0
H834 H 0.29903 0.28049 0.57578 0.0
H835 H 0.2819 0.28738 0.49785 0.0
H836 H 0.20621 0.38503 0.28892 0.0
H837 H 0.18166 0.3757 0.21167 0.0
H838 H 0.22675 0.45809 0.17267 0.0
H839 H 0.25132 0.46721 0.24996 0.0
Sm840 Sm 0.23661 0.31269 0.98792 0.0
Sm841 Sm 0.1913 0.26496 1.03555 0.0
C842 C 0.27769 0.34632 0.93504 0.0
C843 C 0.29061 0.34121 0.89433 0.0
C844 C 0.28334 0.31506 0.88479 0.0
C845 C 0.29176 0.30856 0.84233 0.0
C846 C 0.30711 0.32794 0.80808 0.0
C847 C 0.31607 0.35458 0.81911 0.0
C848 C 0.30775 0.36121 0.86233 0.0
C849 C 0.19711 0.32225 1.01812 0.0
C850 C 0.18385 0.27407 0.91939 0.0
C851 C 0.15147 0.23606 0.09618 0.0
C852 C 0.14185 0.24057 0.14435 0.0
C853 C 0.15773 0.24876 0.18685 0.0
C854 C 0.14835 0.25343 0.23125 0.0
C855 C 0.12285 0.25022 0.23455 0.0
C856 C 0.10706 0.24202 0.19191 0.0
C857 C 0.11639 0.23722 0.14768 0.0
C858 C 0.219 0.25049 0.97078 0.0
C859 C 0.23726 0.31228 0.10891 0.0
O860 O 0.27969 0.33684 0.97723 0.0
O861 O 0.25362 0.34096 0.9258 0.0
O862 O 0.19493 0.30127 1.00229 0.0
O863 O 0.22203 0.33927 1.02204 0.0
O864 O 0.20965 0.29126 0.91974 0.0
O865 O 0.17111 0.26322 0.96103 0.0
O866 O 0.14946 0.24868 0.05819 0.0
O867 O 0.1734 0.23512 0.0957 0.0
O868 O 0.22983 0.27094 0.99904 0.0
O869 O 0.19457 0.2356 0.98403 0.0
O870 O 0.21471 0.28994 0.10437 0.0
O871 O 0.25095 0.32442 0.06913 0.0
H872 H 0.27005 0.29963 0.90927 0.0
H873 H 0.28528 0.28826 0.83452 0.0
H874 H 0.32791 0.36997 0.79299 0.0
H875 H 0.31351 0.38158 0.86942 0.0
H876 H 0.17752 0.25179 0.1858 0.0
H877 H 0.16133 0.26003 0.26284 0.0
H878 H 0.08725 0.23895 0.19276 0.0
H879 H 0.10361 0.23093 0.11578 0.0
Sm880 Sm 0.68732 0.92609 0.98853 0.0
Sm881 Sm 0.7346 0.926 1.03569 0.0
C882 C 0.65348 0.93569 0.94132 0.0
C883 C 0.65129 0.94808 0.8965 0.0
C884 C 0.67185 0.95838 0.86238 0.0
C885 C 0.66951 0.96961 0.81905 0.0
C886 C 0.64616 0.96985 0.80856 0.0
C887 C 0.62549 0.95948 0.84269 0.0
C888 C 0.62822 0.94895 0.88696 0.0
C889 C 0.67679 0.87636 1.01662 0.0
C890 C 0.72553 0.91217 0.91827 0.0
C891 C 0.76239 0.91311 0.09515 0.0
C892 C 0.75684 0.89868 0.14302 0.0
C893 C 0.73174 0.87715 0.15373 0.0
C894 C 0.72687 0.8633 0.19838 0.0
C895 C 0.74688 0.87068 0.23392 0.0
C896 C 0.7719 0.89247 0.22322 0.0
C897 C 0.7768 0.9062 0.17842 0.0
C898 C 0.7497 0.96917 0.97382 0.0
C899 C 0.68804 0.92522 0.10966 0.0
O900 O 0.67009 0.95157 0.97428 0.0
O901 O 0.65466 0.91415 0.93536 0.0
O902 O 0.6979 0.89495 1.00064 0.0
O903 O 0.66019 0.88476 1.02166 0.0
O904 O 0.70842 0.92092 0.91947 0.0
O905 O 0.73613 0.90926 0.95941 0.0
O906 O 0.74946 0.89913 0.05675 0.0
O907 O 0.76435 0.93643 0.09569 0.0
O908 O 0.7292 0.95914 1.00161 0.0
O909 O 0.76484 0.95997 0.98765 0.0
O910 O 0.70975 0.92396 0.10449 0.0
O911 O 0.67634 0.9282 0.07052 0.0
H912 H 0.68927 0.95686 0.86851 0.0
H913 H 0.68533 0.97671 0.79236 0.0
H914 H 0.60712 0.95882 0.8344 0.0
H915 H 0.61208 0.94082 0.91303 0.0
H916 H 0.71581 0.87096 0.1275 0.0
H917 H 0.70725 0.84698 0.20529 0.0
H918 H 0.78794 0.8987 0.24919 0.0
H919 H 0.79632 0.92267 0.17131 0.0
Sm920 Sm 0.06867 0.76075 0.98831 0.0
Sm921 Sm 0.06813 0.80741 1.03612 0.0
C922 C 0.05798 0.71908 0.93494 0.0
C923 C 0.04682 0.71101 0.88588 0.0
C924 C 0.0525 0.73024 0.85001 0.0
C925 C 0.03866 0.72356 0.80619 0.0
C926 C 0.01838 0.69756 0.79768 0.0
C927 C 0.01376 0.67798 0.83254 0.0
C928 C 0.02796 0.68471 0.87648 0.0
C929 C 0.11799 0.7993 1.01786 0.0
C930 C 0.08396 0.81419 0.91949 0.0
C931 C 0.08046 0.84742 0.09714 0.0
C932 C 0.09513 0.85626 0.14479 0.0
C933 C 0.11516 0.85058 0.15672 0.0
C934 C 0.12958 0.85984 0.20074 0.0
C935 C 0.12432 0.87494 0.23445 0.0
C936 C 0.10397 0.88026 0.22255 0.0
C937 C 0.08966 0.8711 0.17838 0.0
C938 C 0.02531 0.77925 0.97313 0.0
C939 C 0.06853 0.76065 0.10884 0.0
O940 O 0.04169 0.71939 0.96745 0.0
O941 O 0.08148 0.73997 0.93707 0.0
O942 O 0.09957 0.80216 1.00186 0.0
O943 O 0.10948 0.77422 1.02265 0.0
O944 O 0.07548 0.78838 0.92025 0.0
O945 O 0.08583 0.82712 0.96087 0.0
O946 O 0.09442 0.84905 0.05835 0.0
O947 O 0.05742 0.82572 0.09761 0.0
O948 O 0.03528 0.76893 1.0014 0.0
O949 O 0.03441 0.80362 0.98668 0.0
O950 O 0.06986 0.78374 0.10429 0.0
O951 O 0.06585 0.74636 0.06934 0.0
H952 H 0.06717 0.75063 0.85631 0.0
H953 H 0.04381 0.73897 0.77919 0.0
H954 H -0.0012 0.65766 0.82658 0.0
H955 H 0.02362 0.66957 0.90368 0.0
H956 H 0.11978 0.83904 0.13181 0.0
H957 H 0.1447 0.85488 0.20858 0.0
H958 H 0.09938 0.89198 0.24697 0.0
H959 H 0.07442 0.87586 0.17024 0.0
Sm960 Sm 0.3985 0.13812 0.86686 0.0
Sm961 Sm 0.34974 0.09374 0.82059 0.0
C962 C 0.42705 0.17796 0.92758 0.0
C963 C 0.42179 0.18717 0.97562 0.0
C964 C 0.41502 0.1717 1.01863 0.0
C965 C 0.40957 0.18055 0.0629 0.0
C966 C 0.41055 0.20511 0.06565 0.0
C967 C 0.41728 0.22049 1.02249 0.0
C968 C 0.42286 0.2117 0.97836 0.0
C969 C 0.41144 0.10945 0.80204 0.0
C970 C 0.35204 0.09234 0.94094 0.0
C971 C 0.31237 0.05345 0.77148 0.0
C972 C 0.31081 0.03787 0.72841 0.0
C973 C 0.32813 0.02815 0.72356 0.0
C974 C 0.33049 0.01798 0.67926 0.0
C975 C 0.31554 0.01734 0.63876 0.0
C976 C 0.2964 0.02497 0.64468 0.0
C977 C 0.29407 0.0352 0.68943 0.0
C978 C 0.34248 0.1344 0.85295 0.0
C979 C 0.38934 0.14518 0.75034 0.0
O980 O 0.41482 0.18004 0.88904 0.0
O981 O 0.42822 0.15614 0.92714 0.0
O982 O 0.39086 0.09901 0.8299 0.0
O983 O 0.42737 0.13343 0.81695 0.0
O984 O 0.37431 0.11483 0.93604 0.0
O985 O 0.33936 0.07884 0.90149 0.0
O986 O 0.32425 0.05089 0.81005 0.0
O987 O 0.31894 0.07792 0.76268 0.0
O988 O 0.3626 0.13569 0.83479 0.0
O989 O 0.3254 0.10971 0.8594 0.0
O990 O 0.37134 0.1196 0.75138 0.0
O991 O 0.40082 0.15799 0.79159 0.0
H992 H 0.41374 0.15262 1.01813 0.0
H993 H 0.40415 0.16787 0.09486 0.0
H994 H 0.41863 0.2396 1.02287 0.0
H995 H 0.428 0.22417 0.94611 0.0
H996 H 0.34111 0.02996 0.75295 0.0
H997 H 0.34544 0.0125 0.67565 0.0
H998 H 0.28475 0.02511 0.6139 0.0
H999 H 0.28046 0.04258 0.69257 0.0
Sm1000 Sm 0.85347 0.25481 0.86433 0.0
Sm1001 Sm 0.90347 0.25769 0.81931 0.0
C1002 C 0.81171 0.23686 0.92309 0.0
C1003 C 0.80304 0.22024 0.96899 0.0
C1004 C 0.80118 0.19526 0.97109 0.0
C1005 C 0.79276 0.1798 1.01421 0.0
C1006 C 0.78611 0.18884 0.05689 0.0
C1007 C 0.78796 0.21382 1.05454 0.0
C1008 C 0.79623 0.22918 1.01139 0.0
C1009 C 0.88118 0.29858 0.80342 0.0
C1010 C 0.9013 0.25836 0.93998 0.0
C1011 C 0.94676 0.27111 0.76899 0.0
C1012 C 0.95493 0.28218 0.71989 0.0
C1013 C 0.93575 0.27573 0.68364 0.0
C1014 C 0.94214 0.28963 0.6399 0.0
C1015 C 0.96781 0.3106 0.63175 0.0
C1016 C 0.9875 0.31582 0.66671 0.0
C1017 C 0.98104 0.30166 0.71074 0.0
C1018 C 0.86522 0.20769 0.84769 0.0
C1019 C 0.85079 0.24066 0.74686 0.0
O1020 O 0.81199 0.22519 0.88226 0.0
O1021 O 0.83188 0.26092 0.92639 0.0
O1022 O 0.89179 0.28884 0.83168 0.0
O1023 O 0.85657 0.2888 0.81648 0.0
O1024 O 0.87776 0.25586 0.93387 0.0
O1025 O 0.91631 0.26119 0.90148 0.0
O1026 O 0.94455 0.28682 0.80035 0.0
O1027 O 0.92697 0.24691 0.77087 0.0
O1028 O 0.86264 0.22608 0.83105 0.0
O1029 O 0.89035 0.21606 0.85101 0.0
O1030 O 0.8768 0.25044 0.74962 0.0
O1031 O 0.83655 0.23754 0.78711 0.0
H1032 H 0.80636 0.18762 0.9394 0.0
H1033 H 0.79196 0.16093 1.01434 0.0
H1034 H 0.78272 0.2215 0.08608 0.0
H1035 H 0.79725 0.24816 1.01118 0.0
H1036 H 0.91558 0.26047 0.68968 0.0
H1037 H 0.92674 0.28403 0.61271 0.0
H1038 H 0.00762 0.3313 0.66083 0.0
H1039 H 0.99615 0.30656 0.73824 0.0
Sm1040 Sm 0.73418 0.59595 0.86763 0.0
Sm1041 Sm 0.73395 0.64329 0.81916 0.0
C1042 C 0.74641 0.56819 0.92871 0.0
C1043 C 0.76074 0.57368 0.97668 0.0
C1044 C 0.7811 0.59918 0.98885 0.0
C1045 C 0.79509 0.60398 1.03331 0.0
C1046 C 0.78908 0.58348 0.06721 0.0
C1047 C 0.76838 0.55805 0.05512 0.0
C1048 C 0.75449 0.55324 1.01051 0.0
C1049 C 0.69118 0.58087 0.80517 0.0
C1050 C 0.73608 0.64398 0.94041 0.0
C1051 C 0.72206 0.67313 0.76434 0.0
C1052 C 0.71008 0.66972 0.71552 0.0
C1053 C 0.6879 0.67265 0.70932 0.0
C1054 C 0.6739 0.66536 0.66505 0.0
C1055 C 0.68191 0.65498 0.6266 0.0
C1056 C 0.70511 0.65371 0.63201 0.0
C1057 C 0.71895 0.66084 0.67605 0.0
C1058 C 0.78353 0.65407 0.84772 0.0
C1059 C 0.74929 0.60489 0.75089 0.0
O1060 O 0.76059 0.58077 0.89021 0.0
O1061 O 0.72333 0.56678 0.9289 0.0
O1062 O 0.7013 0.60139 0.83291 0.0
O1063 O 0.70014 0.56555 0.81906 0.0
O1064 O 0.73713 0.62207 0.93543 0.0
O1065 O 0.73261 0.65536 0.90109 0.0
O1066 O 0.70641 0.65724 0.7984 0.0
O1067 O 0.74562 0.67583 0.76572 0.0
O1068 O 0.76486 0.63281 0.83228 0.0
O1069 O 0.77537 0.671 0.85118 0.0
O1070 O 0.74069 0.62215 0.75155 0.0
O1071 O 0.75162 0.59409 0.79229 0.0
H1072 H 0.78629 0.61545 0.96381 0.0
H1073 H 0.81051 0.62391 1.0413 0.0
H1074 H 0.7632 0.54163 0.07973 0.0
H1075 H 0.73895 0.53339 1.00222 0.0
H1076 H 0.68099 0.67979 0.73924 0.0
H1077 H 0.65648 0.66716 0.66138 0.0
H1078 H 0.71239 0.64674 0.60239 0.0
H1079 H 0.73605 0.65846 0.67964 0.0
Sm1080 Sm 0.80681 0.73783 0.21721 0.0
Sm1081 Sm 0.7596 0.68981 0.26301 0.0
C1082 C 0.8475 0.76572 0.15787 0.0
C1083 C 0.85623 0.75982 0.11021 0.0
C1084 C 0.8504 0.73405 0.09841 0.0
C1085 C 0.85929 0.72872 1.05414 0.0
C1086 C 0.87414 0.74896 1.02003 0.0
C1087 C 0.87964 0.7747 1.03182 0.0
C1088 C 0.87086 0.78003 0.07625 0.0
C1089 C 0.77883 0.75214 0.2811 0.0
C1090 C 0.76137 0.69143 0.14149 0.0
C1091 C 0.7155 0.65583 0.30789 0.0
C1092 C 0.69911 0.65326 0.35029 0.0
C1093 C 0.71053 0.66753 0.3932 0.0
C1094 C 0.69492 0.6644 0.43378 0.0
C1095 C 0.66784 0.64601 0.43291 0.0
C1096 C 0.65624 0.63186 0.38991 0.0
C1097 C 0.67182 0.63575 0.34839 0.0
C1098 C 0.79877 0.67973 0.23301 0.0
C1099 C 0.81203 0.72692 0.33394 0.0
O1100 O 0.84861 0.75294 0.19651 0.0
O1101 O 0.8261 0.76761 0.15717 0.0
O1102 O 0.76836 0.73189 0.2526 0.0
O1103 O 0.80308 0.7677 0.26725 0.0
O1104 O 0.78388 0.71371 0.14714 0.0
O1105 O 0.74707 0.67903 0.1806 0.0
O1106 O 0.71669 0.67193 0.27342 0.0
O1107 O 0.73827 0.65751 0.31679 0.0
O1108 O 0.80108 0.70059 0.24986 0.0
O1109 O 0.77377 0.66296 0.22842 0.0
O1110 O 0.78627 0.7094 0.33247 0.0
O1111 O 0.82533 0.73851 0.29307 0.0
H1112 H 0.83898 0.71795 0.12356 0.0
H1113 H 0.8542 0.7086 1.04639 0.0
H1114 H 0.89118 0.79093 1.00706 0.0
H1115 H 0.8757 0.80006 0.08425 0.0
H1116 H 0.73163 0.6801 0.39631 0.0
H1117 H 0.70436 0.67486 0.46732 0.0
H1118 H 0.63553 0.61734 0.38905 0.0
H1119 H 0.66278 0.62439 0.31549 0.0
Sm1120 Sm 0.26005 0.06948 0.21587 0.0
Sm1121 Sm 0.30867 0.07338 0.26172 0.0
C1122 C 0.23123 0.0804 0.15502 0.0
C1123 C 0.23718 0.09505 0.10731 0.0
C1124 C 0.26294 0.11509 0.09572 0.0
C1125 C 0.26834 0.12939 1.05149 0.0
C1126 C 0.24818 0.12402 1.01721 0.0
C1127 C 0.22246 0.10369 1.02881 0.0
C1128 C 0.21706 0.08948 0.07319 0.0
C1129 C 0.24722 0.02773 0.28041 0.0
C1130 C 0.30635 0.0701 0.1414 0.0
C1131 C 0.34575 0.06906 0.30885 0.0
C1132 C 0.34827 0.05531 0.35146 0.0
C1133 C 0.33151 0.02815 0.35718 0.0
C1134 C 0.331 0.01594 0.40104 0.0
C1135 C 0.34647 0.0308 0.44066 0.0
C1136 C 0.36507 0.05762 0.43352 0.0
C1137 C 0.36603 0.06976 0.38891 0.0
C1138 C 0.31639 0.12154 0.22947 0.0
C1139 C 0.26968 0.08587 0.33238 0.0
O1140 O 0.24315 0.09452 0.19391 0.0
O1141 O 0.23056 0.05766 0.15491 0.0
O1142 O 0.26759 0.03787 0.25216 0.0
O1143 O 0.23127 0.03587 0.26604 0.0
O1144 O 0.28427 0.07069 0.14648 0.0
O1145 O 0.31889 0.06893 0.18075 0.0
O1146 O 0.33263 0.05439 0.27134 0.0
O1147 O 0.34016 0.08762 0.31832 0.0
O1148 O 0.29617 0.10281 0.24761 0.0
O1149 O 0.33337 0.11376 0.22322 0.0
O1150 O 0.28758 0.07813 0.33125 0.0
O1151 O 0.25812 0.08721 0.29118 0.0
H1152 H 0.27897 0.11978 0.12104 0.0
H1153 H 0.28846 0.1445 1.04393 0.0
H1154 H 0.20628 0.09902 1.00394 0.0
H1155 H 0.19703 0.07423 0.08104 0.0
H1156 H 0.31752 0.01658 0.32914 0.0
H1157 H 0.31673 0.99538 0.40557 0.0
H1158 H 0.3772 0.0698 0.46347 0.0
H1159 H 0.37931 0.09077 0.38492 0.0
Sm1160 Sm 0.92321 0.19201 0.21923 0.0
Sm1161 Sm 0.9227 0.23955 0.26442 0.0
C1162 C 0.91116 0.15128 0.16037 0.0
C1163 C 0.89741 0.14236 0.11193 0.0
C1164 C 0.8792 0.14984 0.0962 0.0
C1165 C 0.8655 0.14049 1.05152 0.0
C1166 C 0.86979 0.12357 1.02089 0.0
C1167 C 0.88846 0.11655 1.03641 0.0
C1168 C 0.90198 0.12574 0.08133 0.0
C1169 C 0.96524 0.21942 0.2841 0.0
C1170 C 0.92376 0.23761 0.143 0.0
C1171 C 0.93206 0.2835 0.3085 0.0
C1172 C 0.94611 0.29929 0.35085 0.0
C1173 C 0.95793 0.29003 0.38369 0.0
C1174 C 0.9704 0.3045 0.42541 0.0
C1175 C 0.97032 0.32798 0.43574 0.0
C1176 C 0.9586 0.3373 0.40243 0.0
C1177 C 0.94689 0.32321 0.35961 0.0
C1178 C 0.87402 0.20149 0.2301 0.0
C1179 C 0.90654 0.18694 0.33521 0.0
O1180 O 0.89659 0.1503 0.19772 0.0
O1181 O 0.93443 0.1727 0.16055 0.0
O1182 O 0.95609 0.23044 0.25528 0.0
O1183 O 0.95572 0.19502 0.27045 0.0
O1184 O 0.92287 0.21486 0.14917 0.0
O1185 O 0.92577 0.25219 0.18169 0.0
O1186 O 0.94687 0.28264 0.27348 0.0
O1187 O 0.91146 0.26052 0.31819 0.0
O1188 O 0.89174 0.19853 0.24912 0.0
O1189 O 0.88169 0.22642 0.23028 0.0
O1190 O 0.91579 0.21292 0.33405 0.0
O1191 O 0.90423 0.17357 0.29422 0.0
H1192 H 0.87543 0.16287 0.11864 0.0
H1193 H 0.85169 0.14676 1.04075 0.0
H1194 H 0.89224 0.10344 1.01431 0.0
H1195 H 0.91587 0.11963 0.09241 0.0
H1196 H 0.9564 0.27106 0.37815 0.0
H1197 H 0.9783 0.29623 0.45146 0.0
H1198 H 0.95719 0.35452 0.41093 0.0
H1199 H 0.9375 0.33036 0.33451 0.0
Sm1200 Sm 0.30803 0.23637 0.76161 0.0
Sm1201 Sm 0.25918 0.19007 0.71621 0.0
C1202 C 0.34208 0.27912 0.80952 0.0
C1203 C 0.34232 0.29101 0.85661 0.0
C1204 C 0.32949 0.27476 0.89687 0.0
C1205 C 0.32641 0.28553 0.93977 0.0
C1206 C 0.33632 0.31275 0.94333 0.0
C1207 C 0.35041 0.32936 0.90411 0.0
C1208 C 0.35323 0.31842 0.86051 0.0
C1209 C 0.3169 0.19685 0.72983 0.0
C1210 C 0.27033 0.18348 0.83197 0.0
C1211 C 0.23067 0.15029 0.65528 0.0
C1212 C 0.23654 0.14146 0.60758 0.0
C1213 C 0.26232 0.1474 0.59555 0.0
C1214 C 0.2676 0.13834 0.55138 0.0
C1215 C 0.24731 0.12316 0.51758 0.0
C1216 C 0.22156 0.11756 0.52963 0.0
C1217 C 0.21628 0.12652 0.57393 0.0
C1218 C 0.24654 0.21927 0.78062 0.0
C1219 C 0.30621 0.2356 0.64133 0.0
O1220 O 0.32521 0.27877 0.77763 0.0
O1221 O 0.3423 0.25689 0.81135 0.0
O1222 O 0.29623 0.1947 0.74743 0.0
O1223 O 0.33379 0.22178 0.72433 0.0
O1224 O 0.28853 0.20904 0.83056 0.0
O1225 O 0.25806 0.17061 0.79122 0.0
O1226 O 0.24263 0.14818 0.69428 0.0
O1227 O 0.22988 0.1723 0.65497 0.0
O1228 O 0.26645 0.22899 0.75137 0.0
O1229 O 0.23035 0.19499 0.76767 0.0
O1230 O 0.28405 0.21295 0.64686 0.0
O1231 O 0.31854 0.24996 0.68023 0.0
H1232 H 0.32128 0.25361 0.89488 0.0
H1233 H 0.31638 0.27256 0.97052 0.0
H1234 H 0.3587 0.35049 0.90696 0.0
H1235 H 0.36329 0.33118 0.82959 0.0
H1236 H 0.27845 0.15902 0.62048 0.0
H1237 H 0.28774 0.14354 0.54351 0.0
H1238 H 0.20527 0.10576 0.50519 0.0
H1239 H 0.19623 0.12156 0.58209 0.0
Sm1240 Sm 0.75758 0.06799 0.76655 0.0
Sm1241 Sm 0.80553 0.06843 0.71855 0.0
C1242 C 0.71634 0.0568 0.82187 0.0
C1243 C 0.71031 0.0481 0.87297 0.0
C1244 C 0.73068 0.05802 0.90764 0.0
C1245 C 0.72685 0.04603 0.95318 0.0
C1246 C 0.70259 0.02376 0.96485 0.0
C1247 C 0.68147 0.01514 0.93174 0.0
C1248 C 0.68538 0.02722 0.88576 0.0
C1249 C 0.79623 0.1172 0.73595 0.0
C1250 C 0.81136 0.084 0.83542 0.0
C1251 C 0.84582 0.0827 0.6574 0.0
C1252 C 0.85402 0.09775 0.61006 0.0
C1253 C 0.84811 0.11782 0.59979 0.0
C1254 C 0.85661 0.13244 0.55581 0.0
C1255 C 0.87114 0.12734 0.52053 0.0
C1256 C 0.87677 0.10703 0.53089 0.0
C1257 C 0.86837 0.09252 0.57497 0.0
C1258 C 0.77767 0.02553 0.78094 0.0
C1259 C 0.75732 0.06637 0.64603 0.0
O1260 O 0.71747 0.03977 0.79239 0.0
O1261 O 0.73573 0.08087 0.81504 0.0
O1262 O 0.79881 0.09876 0.75261 0.0
O1263 O 0.77116 0.10914 0.73288 0.0
O1264 O 0.78555 0.0755 0.8343 0.0
O1265 O 0.82455 0.08583 0.79437 0.0
O1266 O 0.84689 0.09613 0.69665 0.0
O1267 O 0.82476 0.05915 0.65664 0.0
O1268 O 0.76726 0.03559 0.75309 0.0
O1269 O 0.80197 0.03448 0.76685 0.0
O1270 O 0.78084 0.06869 0.65093 0.0
O1271 O 0.74282 0.06361 0.68535 0.0
H1272 H 0.74994 0.07437 0.89881 0.0
H1273 H 0.7432 0.05377 0.97878 0.0
H1274 H 0.6624 -0.00159 0.94047 0.0
H1275 H 0.66937 0.01957 0.85949 0.0
H1276 H 0.83693 0.12227 0.6259 0.0
H1277 H 0.85147 0.14755 0.54921 0.0
H1278 H 0.88812 0.10258 0.50523 0.0
H1279 H 0.87331 0.07728 0.58181 0.0
Sm1280 Sm 0.92344 0.68807 0.763 0.0
Sm1281 Sm 0.92564 0.73626 0.71712 0.0
C1282 C 0.93051 0.65208 0.80797 0.0
C1283 C 0.94398 0.64936 0.8504 0.0
C1284 C 0.95575 0.66984 0.88442 0.0
C1285 C 0.96783 0.66696 0.92591 0.0
C1286 C 0.96759 0.64316 0.9347 0.0
C1287 C 0.95604 0.62275 0.90011 0.0
C1288 C 0.94455 0.62598 0.85768 0.0
C1289 C 0.87456 0.67922 0.73283 0.0
C1290 C 0.91026 0.72638 0.83414 0.0
C1291 C 0.91406 0.76498 0.65742 0.0
C1292 C 0.89939 0.75923 0.60985 0.0
C1293 C 0.87935 0.73351 0.59804 0.0
C1294 C 0.86515 0.72829 0.55377 0.0
C1295 C 0.87065 0.74859 0.51972 0.0
C1296 C 0.89096 0.77427 0.53156 0.0
C1297 C 0.90507 0.77949 0.57598 0.0
C1298 C 0.96786 0.7501 0.78081 0.0
C1299 C 0.92407 0.68961 0.64208 0.0
O1300 O 0.94583 0.6673 0.77298 0.0
O1301 O 0.91068 0.65577 0.81735 0.0
O1302 O 0.89326 0.69981 0.75003 0.0
O1303 O 0.88235 0.66215 0.72787 0.0
O1304 O 0.91847 0.70883 0.83277 0.0
O1305 O 0.9082 0.7376 0.79305 0.0
O1306 O 0.90005 0.75267 0.69622 0.0
O1307 O 0.93694 0.76599 0.65676 0.0
O1308 O 0.95796 0.7297 0.7526 0.0
O1309 O 0.95921 0.76565 0.76655 0.0
O1310 O 0.92346 0.71167 0.64752 0.0
O1311 O 0.92624 0.67746 0.68122 0.0
H1312 H 0.95458 0.68756 0.87987 0.0
H1313 H 0.97569 0.68267 0.95285 0.0
H1314 H 0.9548 0.60401 0.90711 0.0
H1315 H 0.93533 0.60995 0.83152 0.0
H1316 H 0.87461 0.71738 0.62316 0.0
H1317 H 0.85003 0.70821 0.54597 0.0
H1318 H 0.89572 0.79053 0.50681 0.0
H1319 H 0.92035 0.79948 0.58401 0.0
Sm1320 Sm 0.90125 0.64229 0.32158 0.0
Sm1321 Sm 0.85484 0.59504 0.369 0.0
C1322 C 0.9429 0.67338 0.26821 0.0
C1323 C 0.95096 0.67025 0.21915 0.0
C1324 C 0.93173 0.65689 0.18323 0.0
C1325 C 0.93832 0.64955 0.13952 0.0
C1326 C 0.96423 0.65499 0.1311 0.0
C1327 C 0.98384 0.66982 0.16596 0.0
C1328 C 0.97719 0.6774 0.20985 0.0
C1329 C 0.86245 0.65282 0.35075 0.0
C1330 C 0.84819 0.60403 0.25238 0.0
C1331 C 0.81482 0.56689 0.42962 0.0
C1332 C 0.80583 0.57266 0.47704 0.0
C1333 C 0.81068 0.59819 0.48807 0.0
C1334 C 0.80141 0.60331 0.53205 0.0
C1335 C 0.78717 0.58311 0.56657 0.0
C1336 C 0.78268 0.55764 0.55558 0.0
C1337 C 0.79183 0.55251 0.51143 0.0
C1338 C 0.88308 0.58044 0.30628 0.0
C1339 C 0.90115 0.64226 0.44212 0.0
O1340 O 0.94266 0.65684 0.30083 0.0
O1341 O 0.92198 0.67594 0.27035 0.0
O1342 O 0.85971 0.63161 0.33463 0.0
O1343 O 0.88749 0.66948 0.35557 0.0
O1344 O 0.87395 0.62142 0.25331 0.0
O1345 O 0.83519 0.59298 0.29371 0.0
O1346 O 0.81305 0.57907 0.39066 0.0
O1347 O 0.83671 0.56591 0.43039 0.0
O1348 O 0.89341 0.60075 0.33447 0.0
O1349 O 0.85872 0.56518 0.31978 0.0
O1350 O 0.87812 0.62047 0.43742 0.0
O1351 O 0.91551 0.65389 0.40267 0.0
H1352 H 0.91141 0.65142 0.18943 0.0
H1353 H 0.92291 0.6394 0.11251 0.0
H1354 H 0.0041 0.67497 0.16003 0.0
H1355 H 0.99232 0.68802 0.23712 0.0
H1356 H 0.82159 0.61423 0.46252 0.0
H1357 H 0.80571 0.62325 0.53924 0.0
H1358 H 0.77163 0.54146 0.58073 0.0
H1359 H 0.78775 0.53265 0.50398 0.0
Sm1360 Sm 0.3519 0.25851 0.32135 0.0
Sm1361 Sm 0.40038 0.26012 0.36685 0.0
C1362 C 0.31864 0.26842 0.27352 0.0
C1363 C 0.31884 0.28035 0.22643 0.0
C1364 C 0.33082 0.27601 0.18588 0.0
C1365 C 0.33426 0.28994 0.14288 0.0
C1366 C 0.32559 0.30825 0.13955 0.0
C1367 C 0.31238 0.31178 0.17909 0.0
C1368 C 0.30918 0.29792 0.22277 0.0
C1369 C 0.34233 0.2097 0.35232 0.0
C1370 C 0.38914 0.2428 0.25097 0.0
C1371 C 0.42888 0.24865 0.42748 0.0
C1372 C 0.42301 0.23394 0.47515 0.0
C1373 C 0.39719 0.21428 0.48732 0.0
C1374 C 0.39187 0.19995 0.53153 0.0
C1375 C 0.41218 0.20491 0.56519 0.0
C1376 C 0.43798 0.22489 0.55302 0.0
C1377 C 0.44329 0.23913 0.50867 0.0
C1378 C 0.41345 0.30232 0.30311 0.0
C1379 C 0.35357 0.25902 0.44166 0.0
O1380 O 0.33571 0.28462 0.30549 0.0
O1381 O 0.31772 0.24563 0.27169 0.0
O1382 O 0.36318 0.2282 0.33519 0.0
O1383 O 0.32557 0.21792 0.35758 0.0
O1384 O 0.37151 0.25091 0.25227 0.0
O1385 O 0.40095 0.24151 0.29187 0.0
O1386 O 0.4168 0.23463 0.38855 0.0
O1387 O 0.42975 0.27148 0.42788 0.0
O1388 O 0.39358 0.29219 0.33236 0.0
O1389 O 0.42942 0.29389 0.3156 0.0
O1390 O 0.37545 0.258 0.43613 0.0
O1391 O 0.34149 0.26154 0.4028 0.0
H1392 H 0.33817 0.26234 0.18772 0.0
H1393 H 0.34361 0.28627 0.11188 0.0
H1394 H 0.30494 0.32535 0.17634 0.0
H1395 H 0.29971 0.30129 0.25387 0.0
H1396 H 0.38105 0.2099 0.46249 0.0
H1397 H 0.3717 0.18514 0.53954 0.0
H1398 H 0.45426 0.22925 0.5774 0.0
H1399 H 0.46337 0.2541 0.50038 0.0
Sm1400 Sm 0.73201 0.07879 0.32095 0.0
Sm1401 Sm 0.74081 0.13032 0.35999 0.0
C1402 C 0.71239 0.02834 0.29927 0.0
C1403 C 0.71373 0.01401 0.25674 0.0
C1404 C 0.69148 0.9902 0.24355 0.0
C1405 C 0.68798 0.98185 0.1948 0.0
C1406 C 0.70766 0.99624 0.15996 0.0
C1407 C 0.73167 0.01784 0.17552 0.0
C1408 C 0.73451 0.02694 0.22345 0.0
C1409 C 0.78328 0.11494 0.3141 0.0
C1410 C 0.75247 0.12962 0.24327 0.0
C1411 C 0.7574 0.17327 0.4153 0.0
C1412 C 0.7709 0.18255 0.46411 0.0
C1413 C 0.79302 0.18031 0.47693 0.0
C1414 C 0.80581 0.18969 0.52245 0.0
C1415 C 0.79684 0.20148 0.55686 0.0
C1416 C 0.7745 0.20338 0.54404 0.0
C1417 C 0.76181 0.19411 0.49842 0.0
C1418 C 0.69641 0.10538 0.2983 0.0
C1419 C 0.73434 0.08585 0.44253 0.0
O1420 O 0.70031 0.04159 0.29099 0.0
O1421 O 0.73417 0.04194 0.32404 0.0
O1422 O 0.76869 0.11413 0.35011 0.0
O1423 O 0.77132 0.09436 0.28593 0.0
O1424 O 0.73968 0.10324 0.24688 0.0
O1425 O 0.7583 0.14458 0.28308 0.0
O1426 O 0.77117 0.17142 0.37917 0.0
O1427 O 0.73295 0.15379 0.4155 0.0
O1428 O 0.70337 0.0937 0.32987 0.0
O1429 O 0.71035 0.13063 0.30571 0.0
O1430 O 0.73302 0.10731 0.43413 0.0
O1431 O 0.73505 0.072 0.40497 0.0
H1432 H 0.67564 0.97964 0.26951 0.0
H1433 H 0.6692 0.96541 0.18371 0.0
H1434 H 0.74713 0.02964 0.14951 0.0
H1435 H 0.75188 0.0454 0.23306 0.0
H1436 H 0.8005 0.17131 0.45172 0.0
H1437 H 0.82261 0.18739 0.53088 0.0
H1438 H 0.76703 0.21251 0.56894 0.0
H1439 H 0.74488 0.19618 0.48977 0.0
C1440 C 0.11822 0.44495 1.02308 0.0
C1441 C 0.10028 0.42248 0.9961 0.0
H1442 H 0.127 0.46887 0.08727 0.0
C1443 C 0.07545 0.40629 1.01866 0.0
H1444 H 0.13763 0.45819 1.00842 0.0
C1445 C 0.06911 0.41261 0.06596 0.0
C1446 C 0.08745 0.4354 0.09233 0.0
H1447 H 0.06094 0.38879 0.99987 0.0
H1448 H 0.04984 0.39982 0.08145 0.0
C1449 C 0.11206 0.45114 0.06939 0.0
C1450 C 0.58499 0.67122 1.01803 0.0
C1451 C 0.56792 0.67822 0.99389 0.0
H1452 H 0.59315 0.65551 0.08441 0.0
C1453 C 0.54476 0.67255 1.01964 0.0
H1454 H 0.60277 0.6747 0.99956 0.0
C1455 C 0.53885 0.66077 0.06656 0.0
C1456 C 0.55579 0.65404 0.09152 0.0
H1457 H 0.53078 0.67734 1.00346 0.0
H1458 H 0.5205 0.65688 0.0834 0.0
C1459 C 0.57929 0.65985 0.0665 0.0
C1460 C 0.34985 0.92613 1.05168 0.0
C1461 C 0.34197 0.90818 0.09148 0.0
H1462 H 0.34357 0.93344 0.97597 0.0
C1463 C 0.32031 0.88288 0.08273 0.0
H1464 H 0.36685 0.94545 0.05576 0.0
C1465 C 0.30694 0.87594 1.0371 0.0
C1466 C 0.31436 0.89391 0.99742 0.0
H1467 H 0.31401 0.86795 0.11112 0.0
H1468 H 0.29088 0.85594 1.03264 0.0
C1469 C 0.33633 0.91921 1.00558 0.0
C1470 C 0.44536 0.11127 0.67977 0.0
C1471 C 0.43039 0.08605 0.65863 0.0
H1472 H 0.45144 0.13775 0.7387 0.0
C1473 C 0.40791 0.06769 0.68561 0.0
H1474 H 0.4628 0.12626 0.66123 0.0
C1475 C 0.40122 0.07451 0.73202 0.0
C1476 C 0.41672 0.09985 0.75302 0.0
H1477 H 0.39587 0.04797 0.67148 0.0
H1478 H 0.38428 0.05992 0.75184 0.0
C1479 C 0.43878 0.11792 0.72523 0.0
C1480 C 0.92236 0.33522 0.68513 0.0
C1481 C 0.90603 0.34371 0.66256 0.0
H1482 H 0.9284 0.31506 0.74676 0.0
C1483 C 0.88263 0.33746 0.6881 0.0
H1484 H 0.94053 0.33941 0.66741 0.0
C1485 C 0.87573 0.32369 0.7331 0.0
C1486 C 0.89171 0.31512 0.75616 0.0
H1487 H 0.8692 0.34337 0.67329 0.0
H1488 H 0.85732 0.31962 0.74991 0.0
C1489 C 0.91538 0.32124 0.73116 0.0
C1490 C 0.64576 0.54178 0.6972 0.0
C1491 C 0.64696 0.56085 0.66372 0.0
H1492 H 0.65754 0.53292 0.76609 0.0
C1493 C 0.66256 0.58745 0.6787 0.0
H1494 H 0.63416 0.52103 0.68832 0.0
C1495 C 0.67655 0.59444 0.72451 0.0
C1496 C 0.67491 0.57508 0.75784 0.0
H1497 H 0.66378 0.60285 0.65542 0.0
H1498 H 0.68851 0.61497 0.73402 0.0
C1499 C 0.65925 0.54866 0.74266 0.0
C1500 C 0.91635 0.59297 0.23218 0.0
C1501 C 0.89338 0.57487 0.25842 0.0
H1502 H 0.94047 0.60062 0.16663 0.0
C1503 C 0.87767 0.55012 0.23597 0.0
H1504 H 0.92911 0.61233 0.24734 0.0
C1505 C 0.88408 0.54359 0.19024 0.0
C1506 C 0.90671 0.5613 0.16339 0.0
H1507 H 0.85982 0.53536 0.2538 0.0
H1508 H 0.87087 0.52409 0.17591 0.0
C1509 C 0.92285 0.58628 0.18541 0.0
C1510 C 0.39957 0.31168 0.21794 0.0
C1511 C 0.41812 0.31892 0.25667 0.0
H1512 H 0.39128 0.31909 0.14355 0.0
C1513 C 0.4435 0.34024 0.24702 0.0
H1514 H 0.38007 0.29512 0.22297 0.0
C1515 C 0.44994 0.354 0.20177 0.0
C1516 C 0.43142 0.3473 0.16324 0.0
H1517 H 0.45881 0.34611 0.27451 0.0
H1518 H 0.46997 0.36991 0.19673 0.0
C1519 C 0.406 0.32562 0.1722 0.0
C1520 C 0.64753 0.09956 0.19768 0.0
C1521 C 0.64832 0.08253 0.16169 0.0
H1522 H 0.66104 0.1194 0.26723 0.0
C1523 C 0.66392 0.07105 0.17345 0.0
H1524 H 0.63598 0.10907 0.19106 0.0
C1525 C 0.67814 0.07663 0.21892 0.0
C1526 C 0.67755 0.09417 0.25427 0.0
H1527 H 0.66619 0.05875 0.14656 0.0
H1528 H 0.69071 0.06835 0.22495 0.0
C1529 C 0.66185 0.10534 0.24218 0.0
C1530 C 0.56431 0.87699 0.53542 0.0
C1531 C 0.57572 0.89544 0.49666 0.0
H1532 H 0.54846 0.86831 0.60875 0.0
C1533 C 0.57974 0.92094 0.50592 0.0
H1534 H 0.55975 0.85684 0.5301 0.0
C1535 C 0.57313 0.9276 0.5523 0.0
C1536 C 0.56211 0.90908 0.59107 0.0
H1537 H 0.58728 0.93556 0.47693 0.0
H1538 H 0.57587 0.94707 0.55722 0.0
C1539 C 0.55774 0.88361 0.58118 0.0
C1540 C 0.06896 0.65757 0.56618 0.0
C1541 C 0.0872 0.65289 0.5924 0.0
H1542 H 0.06096 0.67359 0.50029 0.0
C1543 C 0.11181 0.66174 0.56951 0.0
H1544 H 0.04969 0.65113 0.58167 0.0
C1545 C 0.11807 0.6743 0.52337 0.0
C1546 C 0.10022 0.67905 0.49653 0.0
H1547 H 0.12667 0.65877 0.58729 0.0
H1548 H 0.13747 0.68044 0.50873 0.0
C1549 C 0.07539 0.67042 0.51902 0.0
C1550 C 0.33481 0.41608 0.56756 0.0
C1551 C 0.34103 0.43985 0.59196 0.0
H1552 H 0.31947 0.39221 0.50129 0.0
C1553 C 0.33481 0.45703 0.56646 0.0
H1554 H 0.33888 0.4021 0.58578 0.0
C1555 C 0.32318 0.45111 0.51947 0.0
C1556 C 0.31711 0.42767 0.49437 0.0
H1557 H 0.33904 0.47557 0.58288 0.0
H1558 H 0.31884 0.46529 0.50273 0.0
C1559 C 0.32344 0.41029 0.51918 0.0
C1560 C 0.77631 0.78368 0.34178 0.0
C1561 C 0.76834 0.75747 0.32887 0.0
H1562 H 0.77719 0.811 0.3951 0.0
C1563 C 0.7542 0.73819 0.36528 0.0
H1564 H 0.7877 0.79942 0.31595 0.0
C1565 C 0.74819 0.74488 0.41239 0.0
C1566 C 0.75615 0.77133 0.42478 0.0
H1567 H 0.74801 0.71796 0.3571 0.0
H1568 H 0.73749 0.7294 0.43902 0.0
C1569 C 0.77032 0.79038 0.38804 0.0
C1570 C 0.25223 0.99062 0.39735 0.0
C1571 C 0.23022 0.98697 0.42529 0.0
H1572 H 0.27477 0.00539 0.32957 0.0
C1573 C 0.21514 0.99727 0.40466 0.0
H1574 H 0.26438 0.98299 0.4112 0.0
C1575 C 0.22112 0.01 0.35873 0.0
C1576 C 0.24263 0.01342 0.32991 0.0
H1577 H 0.19805 0.9952 0.42396 0.0
H1578 H 0.20841 0.01721 0.34571 0.0
C1579 C 0.25827 0.00356 0.35033 0.0
C1580 C 0.98464 0.21083 0.36009 0.0
C1581 C 0.98092 0.22913 0.33239 0.0
H1582 H 0.00041 0.20219 0.42373 0.0
C1583 C 0.9916 0.25467 0.35302 0.0
H1584 H 0.97694 0.19089 0.34685 0.0
C1585 C 0.00535 0.26133 0.39923 0.0
C1586 C 0.00907 0.24268 0.42623 0.0
H1587 H 0.98939 0.2695 0.3335 0.0
H1588 H 0.01337 0.28113 0.41326 0.0
C1589 C -0.00177 0.21737 0.40522 0.0
C1590 C 0.21672 0.2277 0.83648 0.0
C1591 C 0.24191 0.23112 0.82725 0.0
H1592 H 0.19029 0.23101 0.88672 0.0
C1593 C 0.26008 0.24139 0.86673 0.0
H1594 H 0.2016 0.21893 0.80851 0.0
C1595 C 0.2536 0.24865 0.91266 0.0
C1596 C 0.22846 0.2457 0.92116 0.0
H1597 H 0.27934 0.24365 0.86225 0.0
H1598 H 0.26808 0.25602 0.94181 0.0
C1599 C 0.2102 0.23474 0.88198 0.0
C1600 C 0.78354 0.00118 0.85171 0.0
C1601 C 0.76775 0.01014 0.82928 0.0
H1602 H 0.7906 0.98234 0.91221 0.0
C1603 C 0.74502 0.00562 0.85584 0.0
H1604 H 0.80124 0.00404 0.83361 0.0
C1605 C 0.73873 0.99278 0.90287 0.0
C1606 C 0.75493 0.98401 0.92486 0.0
H1607 H 0.73222 0.01214 0.84072 0.0
H1608 H 0.72121 0.98969 0.92182 0.0
C1609 C 0.77738 0.98861 0.8978 0.0
C1610 C 0.00457 0.74581 0.89925 0.0
C1611 C 0.00967 0.76899 0.92497 0.0
H1612 H 0.98807 0.72149 0.83392 0.0
C1613 C 0.00101 0.78487 0.90182 0.0
H1614 H 0.01085 0.7329 0.91496 0.0
C1615 C 0.98819 0.7784 0.85595 0.0
C1616 C 0.98301 0.75554 0.82962 0.0
H1617 H 0.0043 0.80289 0.91921 0.0
H1618 H 0.98219 0.79175 0.8411 0.0
C1619 C 0.9915 0.73925 0.85232 0.0
C1620 C -0.00014 0.33625 0.89385 0.0
C1621 C 0.0159 0.3598 0.91928 0.0
H1622 H 0.99053 0.31745 0.82377 0.0
C1623 C 0.03916 0.37929 0.89678 0.0
H1624 H 0.98215 0.32046 0.91026 0.0
C1625 C 0.04352 0.37755 0.84715 0.0
C1626 C 0.02453 0.35636 0.8197 0.0
H1627 H 0.05262 0.39719 0.916 0.0
H1628 H 0.05953 0.39455 0.82926 0.0
C1629 C 0.00461 0.33439 0.8443 0.0
C1630 C 0.65876 0.61883 0.91386 0.0
C1631 C 0.66623 0.64311 0.93567 0.0
H1632 H 0.641 0.59434 0.85301 0.0
C1633 C 0.67107 0.66462 0.90606 0.0
H1634 H 0.65509 0.60197 0.93615 0.0
C1635 C 0.66346 0.66061 0.85685 0.0
C1636 C 0.65079 0.63495 0.83719 0.0
H1637 H 0.67793 0.68378 0.92209 0.0
H1638 H 0.666 0.67731 0.83551 0.0
C1639 C 0.65031 0.61449 0.86549 0.0
C1640 C 0.32965 0.9742 0.91014 0.0
C1641 C 0.34256 -0.00048 0.93089 0.0
H1642 H 0.32078 0.95156 0.84462 0.0
C1643 C 0.35004 0.02153 0.90102 0.0
H1644 H 0.32443 0.95702 0.93236 0.0
C1645 C 0.34943 0.01856 0.85032 0.0
C1646 C 0.34023 0.99344 0.82956 0.0
H1647 H 0.36028 0.04123 0.91637 0.0
H1648 H 0.35944 0.03621 0.82818 0.0
C1649 C 0.32789 0.97111 0.85955 0.0
C1650 C 0.04289 0.66779 0.34633 0.0
C1651 C 0.02346 0.66927 0.31896 0.0
H1652 H 0.05268 0.65799 0.41534 0.0
C1653 C 0.00334 0.67092 0.34364 0.0
H1654 H 0.05904 0.66712 0.32832 0.0
C1655 C -0.00104 0.6646 0.39338 0.0
C1656 C 0.01549 0.65772 0.41884 0.0
H1657 H 0.9889 0.67322 0.32311 0.0
H1658 H 0.98114 0.66232 0.4099 0.0
C1659 C 0.03886 0.66194 0.39613 0.0
C1660 C 0.37389 0.34285 0.3547 0.0
C1661 C 0.35187 0.34072 0.32954 0.0
H1662 H 0.39038 0.34221 0.42415 0.0
C1663 C 0.32754 0.32972 0.35385 0.0
H1664 H 0.39303 0.35122 0.33734 0.0
C1665 C 0.32615 0.3241 0.40395 0.0
C1666 C 0.34912 0.33028 0.43009 0.0
H1667 H 0.31004 0.32688 0.33496 0.0
H1668 H 0.3078 0.31733 0.42308 0.0
C1669 C 0.37239 0.33732 0.40454 0.0
C1670 C 0.64903 0.02029 0.33313 0.0
C1671 C 0.64136 0.99458 0.31733 0.0
H1672 H 0.6557 0.04555 0.39468 0.0
C1673 C 0.63846 0.97552 0.35168 0.0
H1674 H 0.65082 0.03521 0.30737 0.0
C1675 C 0.64014 0.98124 0.40145 0.0
C1676 C 0.64597 0.00633 0.41722 0.0
H1677 H 0.63245 0.95557 0.3403 0.0
H1678 H 0.63398 0.96532 0.42737 0.0
C1679 C 0.65194 0.0263 0.38295 0.0
C1680 C 0.6991 0.71326 0.22298 0.0
C1681 C 0.68069 0.69187 0.25173 0.0
H1682 H 0.71436 0.72744 0.15162 0.0
C1683 C 0.66712 0.66671 0.23008 0.0
H1684 H 0.70978 0.73319 0.23674 0.0
C1685 C 0.66962 0.6638 0.17988 0.0
C1686 C 0.68564 0.68589 0.15106 0.0
H1687 H 0.65371 0.64949 0.25106 0.0
H1688 H 0.65748 0.64484 0.16304 0.0
C1689 C 0.70204 0.71006 0.17351 0.0
C1690 C 0.32254 0.95461 0.17509 0.0
C1691 C 0.32198 0.97654 0.15518 0.0
H1692 H 0.32314 0.93477 0.24043 0.0
C1693 C 0.32825 -0.00169 0.18512 0.0
H1694 H 0.3178 0.93744 0.15297 0.0
C1695 C 0.33148 0.99662 0.23542 0.0
C1696 C 0.32807 0.97315 0.25594 0.0
H1697 H 0.32869 0.0157 0.17034 0.0
H1698 H 0.33404 0.01256 0.25858 0.0
C1699 C 0.32586 0.95307 0.22522 0.0
C1700 C 0.00048 0.2902 0.2287 0.0
C1701 C 0.00497 0.31375 0.25107 0.0
H1702 H 0.99508 0.2698 0.1611 0.0
C1703 C -0.00183 0.33031 0.22546 0.0
H1704 H 0.00431 0.27634 0.24813 0.0
C1705 C 0.9917 0.32576 0.17584 0.0
C1706 C 0.9932 0.30552 0.15136 0.0
H1707 H 0.00064 0.34826 0.24174 0.0
H1708 H 0.98948 0.34022 0.15521 0.0
C1709 C 0.99455 0.28606 0.17893 0.0
C1710 C 0.6298 0.95762 0.67717 0.0
C1711 C 0.65113 0.98051 0.6571 0.0
H1712 H 0.61092 0.93671 0.74285 0.0
C1713 C 0.66568 0.00251 0.68715 0.0
H1714 H 0.61812 0.94037 0.65466 0.0
C1715 C 0.66087 0.00049 0.73761 0.0
C1716 C 0.64232 0.97631 0.75829 0.0
H1717 H 0.68173 0.02056 0.67216 0.0
H1718 H 0.67304 0.01696 0.76101 0.0
C1719 C 0.62541 0.95555 0.72758 0.0
C1720 C 0.99076 0.66614 0.67577 0.0
C1721 C 0.99237 0.68791 0.65108 0.0
H1722 H -0.00083 0.65244 0.74215 0.0
C1723 C 0.99361 0.7087 0.67844 0.0
H1724 H 0.98868 0.6495 0.65525 0.0
C1725 C -0.00077 0.71041 0.72833 0.0
C1726 C 0.00349 0.69127 0.75112 0.0
H1727 H 0.99425 0.72552 0.66041 0.0
H1728 H 0.00298 0.72808 0.74763 0.0
C1729 C -0.00316 0.66796 0.72559 0.0
C1730 C 0.28734 0.29944 0.73496 0.0
C1731 C 0.30976 0.3197 0.75837 0.0
H1732 H 0.26945 0.28178 0.66656 0.0
C1733 C 0.33352 0.33308 0.7324 0.0
H1734 H 0.26872 0.28857 0.75415 0.0
C1735 C 0.33394 0.32834 0.6823 0.0
C1736 C 0.3105 0.31123 0.65775 0.0
H1737 H 0.35127 0.34811 0.7501 0.0
H1738 H 0.35189 0.33973 0.66196 0.0
C1739 C 0.28778 0.29514 0.68491 0.0
C1740 C 0.30431 0.00213 0.55225 0.0
C1741 C 0.32327 0.01367 0.58926 0.0
H1742 H 0.29685 -0.00044 0.47577 0.0
C1743 C 0.35017 0.02587 0.5769 0.0
H1744 H 0.28347 0.99221 0.56078 0.0
C1745 C 0.35795 0.02864 0.52804 0.0
C1746 C 0.33897 0.02022 0.49082 0.0
H1747 H 0.36536 0.03541 0.6044 0.0
H1748 H 0.37879 0.03941 0.51943 0.0
C1749 C 0.31208 0.00586 0.50338 0.0
C1750 C -0.00164 0.33974 0.50991 0.0
C1751 C 0.97633 0.33806 0.48621 0.0
H1752 H 0.01269 0.33103 0.57528 0.0
C1753 C 0.95542 0.33595 0.51442 0.0
H1754 H 0.01506 0.34248 0.48871 0.0
C1755 C 0.95399 0.3297 0.56394 0.0
C1756 C 0.97358 0.32577 0.58563 0.0
H1757 H 0.93837 0.33516 0.49716 0.0
H1758 H 0.93625 0.32528 0.58371 0.0
C1759 C -0.00312 0.33313 0.55946 0.0
C1760 C 0.6577 0.66106 0.5564 0.0
C1761 C 0.66686 0.64588 0.58016 0.0
H1762 H 0.6469 0.67034 0.4871 0.0
C1763 C 0.66469 0.62367 0.5559 0.0
H1764 H 0.65837 0.67785 0.57444 0.0
C1765 C 0.65802 0.61956 0.5064 0.0
C1766 C 0.65447 0.63817 0.48047 0.0
H1767 H 0.67083 0.61104 0.57341 0.0
H1768 H 0.66027 0.60467 0.48692 0.0
C1769 C 0.65106 0.65682 0.50662 0.0
C1770 C 0.30859 0.31193 1.01188 0.0
C1771 C 0.33369 0.32302 0.99052 0.0
H1772 H 0.2864 0.30045 0.07854 0.0
C1773 C 0.35615 0.33633 1.01991 0.0
H1774 H 0.2911 0.30058 0.9898 0.0
C1775 C 0.35347 0.33461 0.07075 0.0
C1776 C 0.32835 0.32101 0.09215 0.0
H1777 H 0.37565 0.34434 1.00409 0.0
H1778 H 0.37092 0.34088 0.09305 0.0
C1779 C 0.30591 0.31165 0.06265 0.0
C1780 C 0.67837 0.00156 1.04205 0.0
C1781 C 0.70016 0.00955 1.01102 0.0
H1782 H 0.66333 0.98986 0.11473 0.0
C1783 C 0.7211 0.00605 1.02631 0.0
H1784 H 0.66182 0.00376 1.03093 0.0
C1785 C 0.7217 0.99756 0.07368 0.0
C1786 C 0.70173 0.99322 0.10698 0.0
H1787 H 0.73792 0.01151 1.00273 0.0
H1788 H 0.73903 0.99698 0.08571 0.0
C1789 C 0.67914 0.99336 0.08989 0.0
C1790 C 0.95279 0.61882 1.0122 0.0
C1791 C 0.97361 0.63826 0.98466 0.0
H1792 H 0.93348 0.60902 0.08147 0.0
C1793 C 0.99546 0.65837 1.00917 0.0
H1794 H 0.93592 0.60268 0.99431 0.0
C1795 C 0.99372 0.66275 0.05896 0.0
C1796 C 0.9704 0.64621 0.08464 0.0
H1797 H 0.01212 0.67283 0.98851 0.0
H1798 H 0.00931 0.68057 0.07538 0.0
C1799 C 0.95117 0.62284 0.06206 0.0
C1800 C 0.05782 0.49814 0.95253 0.0
C1801 C 0.07562 0.52552 0.95103 0.0
H1802 H 0.03908 0.4628 0.99582 0.0
C1803 C 0.08835 0.53796 0.9952 0.0
H1804 H 0.04784 0.48765 0.91941 0.0
C1805 C 0.0833 0.5236 1.03927 0.0
C1806 C 0.06545 0.49625 1.04075 0.0
H1807 H 0.10195 0.55899 0.99601 0.0
H1808 H 0.09332 0.53408 0.07236 0.0
C1809 C 0.05289 0.48376 0.99655 0.0
C1810 C 0.5126 0.57408 0.99353 0.0
C1811 C 0.49967 0.57353 1.03754 0.0
H1812 H 0.50929 0.56586 0.91611 0.0
C1813 C 0.47228 0.56371 1.03554 0.0
H1814 H 0.53363 0.58148 0.99334 0.0
C1815 C 0.45828 0.5547 0.99116 0.0
C1816 C 0.47111 0.55504 0.94714 0.0
H1817 H 0.46148 0.56277 0.06848 0.0
H1818 H 0.4372 0.54698 0.99161 0.0
C1819 C 0.49854 0.56491 0.94911 0.0
C1820 C 0.43582 0.91236 1.03617 0.0
C1821 C 0.42701 0.93076 1.03814 0.0
H1822 H 0.45153 0.89298 0.99247 0.0
C1823 C 0.4274 0.94369 0.99417 0.0
H1824 H 0.43604 0.90205 0.06906 0.0
C1825 C 0.43636 0.93842 0.94982 0.0
C1826 C 0.44512 0.91994 0.94782 0.0
H1827 H 0.42077 0.95795 0.99389 0.0
H1828 H 0.43604 0.94863 0.91685 0.0
C1829 C 0.44465 0.90702 0.99188 0.0
C1830 C 0.51949 0.08218 0.71451 0.0
C1831 C 0.49226 0.06382 0.71312 0.0
H1832 H 0.55495 0.10151 0.75739 0.0
C1833 C 0.48009 0.05099 0.7574 0.0
H1834 H 0.52977 0.09242 0.6814 0.0
C1835 C 0.49467 0.05623 0.80136 0.0
C1836 C 0.52195 0.07461 0.80278 0.0
H1837 H 0.45922 0.03673 0.75818 0.0
H1838 H 0.48439 0.04603 0.83449 0.0
C1839 C 0.53403 0.08752 0.75846 0.0
C1840 C 0.91156 0.43595 0.71839 0.0
C1841 C 0.92978 0.42691 0.71641 0.0
H1842 H 0.89256 0.45209 0.7621 0.0
C1843 C 0.94271 0.42724 0.76032 0.0
H1844 H 0.90126 0.43622 0.68554 0.0
C1845 C 0.9377 0.43646 0.80459 0.0
C1846 C 0.91947 0.44552 0.80657 0.0
H1847 H 0.95687 0.4205 0.76054 0.0
H1848 H 0.94796 0.43617 0.83749 0.0
C1849 C 0.90645 0.44501 0.76263 0.0
C1850 C 0.55459 0.49859 0.79997 0.0
C1851 C 0.54485 0.47119 0.80167 0.0
H1852 H 0.57124 0.53383 0.75632 0.0
C1853 C 0.54492 0.45855 0.75764 0.0
H1854 H 0.55527 0.5092 0.83301 0.0
C1855 C 0.55414 0.47275 0.71341 0.0
C1856 C 0.56374 0.5001 0.71175 0.0
H1857 H 0.53738 0.43749 0.75708 0.0
H1858 H 0.55353 0.46217 0.68037 0.0
C1859 C 0.56394 0.51281 0.75583 0.0
C1860 C 0.91222 0.47549 0.21809 0.0
C1861 C 0.93027 0.50279 0.21626 0.0
H1862 H 0.89325 0.44025 0.26163 0.0
C1863 C 0.94293 0.51536 0.26036 0.0
H1864 H 0.90212 0.46493 0.18511 0.0
C1865 C 0.93781 0.50106 0.30465 0.0
C1866 C 0.91972 0.47371 0.30648 0.0
H1867 H 0.95694 0.5363 0.26074 0.0
H1868 H 0.94784 0.51158 0.33769 0.0
C1869 C 0.907 0.46125 0.26233 0.0
C1870 C 0.49373 0.43828 0.30106 0.0
C1871 C 0.52116 0.44812 0.30203 0.0
H1872 H 0.45821 0.42168 0.25817 0.0
C1873 C 0.53353 0.44832 0.25747 0.0
H1874 H 0.48331 0.4374 0.3345 0.0
C1875 C 0.51906 0.43926 0.21351 0.0
C1876 C 0.49168 0.42952 0.21256 0.0
H1877 H 0.55459 0.45597 0.25627 0.0
H1878 H 0.52948 0.44008 0.18009 0.0
C1879 C 0.47923 0.42907 0.25714 0.0
C1880 C 0.56489 0.04908 0.2557 0.0
C1881 C 0.5659 0.06249 0.21199 0.0
H1882 H 0.55531 0.04339 0.33263 0.0
C1883 C 0.55734 0.08108 0.21412 0.0
H1884 H 0.57125 0.03461 0.25584 0.0
C1885 C 0.54811 0.0861 0.25827 0.0
C1886 C 0.54694 0.07264 0.30204 0.0
H1887 H 0.55758 0.09176 0.18143 0.0
H1888 H 0.54142 0.1003 0.25777 0.0
C1889 C 0.55552 0.05401 0.2999 0.0
C1890 C 0.51077 0.9428 0.49355 0.0
C1891 C 0.49835 0.92972 0.53745 0.0
H1892 H 0.50694 0.9478 0.41635 0.0
C1893 C 0.47124 0.91102 0.53551 0.0
H1894 H 0.53158 0.95728 0.49326 0.0
C1895 C 0.45704 0.90558 0.49124 0.0
C1896 C 0.46939 0.91873 0.44731 0.0
H1897 H 0.46083 0.90059 0.56838 0.0
H1898 H 0.43618 0.89131 0.49171 0.0
C1899 C 0.49653 0.93745 0.44928 0.0
C1900 C 0.08836 0.55124 0.49517 0.0
C1901 C 0.07567 0.55096 0.45092 0.0
H1902 H 0.09322 0.56002 0.57234 0.0
C1903 C 0.05783 0.56048 0.4523 0.0
H1904 H 0.10199 0.54384 0.4961 0.0
C1905 C 0.05281 0.56987 0.49627 0.0
C1906 C 0.06534 0.56993 0.54054 0.0
H1907 H 0.04788 0.561 0.41913 0.0
H1908 H 0.03897 0.57698 0.49545 0.0
C1909 C 0.08323 0.56049 0.53919 0.0
C1910 C 0.44055 0.53725 0.49108 0.0
C1911 C 0.43999 0.5244 0.44695 0.0
H1912 H 0.43261 0.53403 0.56847 0.0
C1913 C 0.42989 0.49692 0.44882 0.0
H1914 H 0.44844 0.55837 0.49161 0.0
C1915 C 0.42069 0.48283 0.49323 0.0
C1916 C 0.42144 0.49578 0.53734 0.0
H1917 H 0.42878 0.48616 0.41574 0.0
H1918 H 0.4131 0.46176 0.49294 0.0
C1919 C 0.43151 0.52322 0.53545 0.0
C1920 C 0.75268 0.86933 0.32624 0.0
C1921 C 0.74168 0.85588 0.28189 0.0
H1922 H 0.75646 0.86693 0.4042 0.0
C1923 C 0.72567 0.8282 0.28399 0.0
H1924 H 0.76481 0.8906 0.32657 0.0
C1925 C 0.72086 0.8145 0.32885 0.0
C1926 C 0.73176 0.82804 0.37316 0.0
H1927 H 0.71706 0.817 0.25076 0.0
H1928 H 0.70852 0.79324 0.32874 0.0
C1929 C 0.74777 0.85567 0.37104 0.0
C1930 C 0.1672 0.8941 0.28313 0.0
C1931 C 0.13991 0.88506 0.28159 0.0
H1932 H 0.20255 0.91017 0.32655 0.0
C1933 C 0.12767 0.8858 0.32569 0.0
H1934 H 0.17756 0.89424 0.2501 0.0
C1935 C 0.14208 0.89502 0.36968 0.0
C1936 C 0.16932 0.904 0.37123 0.0
H1937 H 0.10672 0.87876 0.32655 0.0
H1938 H 0.13171 0.8949 0.4027 0.0
C1939 C 0.18166 0.90347 0.32713 0.0
C1940 C 0.1186 0.24821 0.32781 0.0
C1941 C 0.11275 0.25536 0.282 0.0
H1942 H 0.11416 0.2471 0.40626 0.0
C1943 C 0.09703 0.26737 0.28205 0.0
H1944 H 0.13035 0.23868 0.32963 0.0
C1945 C 0.08766 0.2722 0.32626 0.0
C1946 C 0.0935 0.26499 0.37196 0.0
H1947 H 0.09224 0.27348 0.24784 0.0
H1948 H 0.07576 0.28157 0.32452 0.0
C1949 C 0.10905 0.25283 0.37196 0.0
C1950 C 0.19941 0.42318 0.09399 0.0
C1951 C 0.18677 0.41044 0.13801 0.0
H1952 H 0.19602 0.42793 1.01666 0.0
C1953 C 0.15948 0.39226 0.136 0.0
H1954 H 0.22038 0.43702 0.09357 0.0
C1955 C 0.14538 0.38702 0.09155 0.0
C1956 C 0.15811 0.39967 1.04756 0.0
H1957 H 0.14887 0.38224 0.169 0.0
H1958 H 0.12446 0.37293 0.09172 0.0
C1959 C 0.18536 0.41784 1.04959 0.0
C1960 C 0.57901 0.77122 1.05051 0.0
C1961 C 0.59513 0.7597 1.04848 0.0
H1962 H 0.56222 0.78944 0.09454 0.0
C1963 C 0.60654 0.75769 0.09269 0.0
H1964 H 0.56993 0.77334 1.01745 0.0
C1965 C 0.60208 0.76706 0.13735 0.0
C1966 C 0.58593 0.77859 0.13933 0.0
H1967 H 0.61905 0.74897 0.09287 0.0
H1968 H 0.61109 0.76496 0.17051 0.0
C1969 C 0.57445 0.78042 0.09506 0.0
C1970 C 0.22401 0.83277 0.13519 0.0
C1971 C 0.21423 0.80534 0.137 0.0
H1972 H 0.24041 0.86795 0.09122 0.0
C1973 C 0.21379 0.79261 0.09277 0.0
H1974 H 0.22506 0.84347 0.16833 0.0
C1975 C 0.22263 0.80671 1.04837 0.0
C1976 C 0.23239 0.8341 1.0466 0.0
H1977 H 0.20616 0.77154 0.09218 0.0
H1978 H 0.22168 0.79602 1.01528 0.0
C1979 C 0.23301 0.84691 0.09081 0.0
C1980 C 0.57424 0.79588 0.5952 0.0
C1981 C 0.58591 0.80872 0.63968 0.0
H1982 H 0.57072 0.79911 0.51742 0.0
C1983 C 0.60351 0.83615 0.63808 0.0
H1984 H 0.56088 0.7748 0.59451 0.0
C1985 C 0.6092 0.85022 0.59353 0.0
C1986 C 0.5976 0.83728 0.54908 0.0
H1987 H 0.61271 0.84688 0.67146 0.0
H1988 H 0.62277 0.87126 0.59399 0.0
C1989 C 0.58002 0.8099 0.5507 0.0
C1990 C 0.18616 0.76942 0.54961 0.0
C1991 C 0.15891 0.76043 0.54791 0.0
H1992 H 0.22141 0.78549 0.59301 0.0
C1993 C 0.14644 0.76072 0.59198 0.0
H1994 H 0.19662 0.7697 0.51663 0.0
C1995 C 0.16079 0.76989 0.63614 0.0
C1996 C 0.18808 0.77893 0.63783 0.0
H1997 H 0.12554 0.75399 0.59242 0.0
H1998 H 0.15036 0.76959 0.66918 0.0
C1999 C 0.20045 0.77843 0.59374 0.0
C2000 C 0.23687 0.39001 0.59257 0.0
C2001 C 0.2361 0.40214 0.54831 0.0
H2002 H 0.22858 0.38514 0.67001 0.0
C2003 C 0.22578 0.4193 0.54996 0.0
H2004 H 0.24465 0.37669 0.59308 0.0
C2005 C 0.2165 0.42415 0.5942 0.0
C2006 C 0.21707 0.41192 0.63848 0.0
H2007 H 0.22465 0.42896 0.51685 0.0
H2008 H 0.20842 0.4372 0.59342 0.0
C2009 C 0.22744 0.39475 0.63684 0.0
C2010 C 0.1667 0.27448 0.78335 0.0
C2011 C 0.13927 0.25683 0.78226 0.0
H2012 H 0.20217 0.2935 0.82644 0.0
C2013 C 0.12687 0.24472 0.82687 0.0
H2014 H 0.17716 0.284 0.74992 0.0
C2015 C 0.14128 0.25019 0.87093 0.0
C2016 C 0.16866 0.26787 0.87199 0.0
H2017 H 0.10582 0.23128 0.82803 0.0
H2018 H 0.13082 0.2406 0.90432 0.0
C2019 C 0.18115 0.27984 0.8274 0.0
C2020 C 0.71958 0.90441 0.8262 0.0
C2021 C 0.73174 0.90375 0.87044 0.0
H2022 H 0.71526 0.89655 0.74862 0.0
C2023 C 0.74953 0.8942 0.86883 0.0
H2024 H 0.70579 0.91161 0.82577 0.0
C2025 C 0.75494 0.88551 0.82456 0.0
C2026 C 0.74269 0.88596 0.7803 0.0
H2027 H 0.75924 0.89321 0.90197 0.0
H2028 H 0.76845 0.87796 0.82531 0.0
C2029 C 0.72491 0.89557 0.78186 0.0
C2030 C 0.10315 0.85669 0.87036 0.0
C2031 C 0.09338 0.82929 0.87196 0.0
H2032 H 0.1203 0.89209 0.82709 0.0
C2033 C 0.09348 0.81674 0.82785 0.0
H2034 H 0.10363 0.86723 0.90337 0.0
C2035 C 0.10315 0.8311 0.78382 0.0
C2036 C 0.11296 0.85854 0.78219 0.0
H2037 H 0.08618 0.79575 0.8272 0.0
H2038 H 0.10262 0.82055 0.7508 0.0
C2039 C 0.11269 0.87103 0.8263 0.0
C2040 C 0.41436 0.1873 0.70073 0.0
C2041 C 0.39561 0.16019 0.70264 0.0
H2042 H 0.43405 0.22248 0.65712 0.0
C2043 C 0.38248 0.14789 0.65869 0.0
H2044 H 0.42484 0.19763 0.7336 0.0
C2045 C 0.38778 0.16226 0.6145 0.0
C2046 C 0.40651 0.18942 0.61257 0.0
H2047 H 0.36792 0.1271 0.65838 0.0
H2048 H 0.37734 0.15193 0.58161 0.0
C2049 C 0.41975 0.20162 0.65653 0.0
C2050 C 0.80941 0.21885 0.69435 0.0
C2051 C 0.83707 0.23127 0.69804 0.0
H2052 H 0.77519 0.19961 0.64816 0.0
C2053 C 0.85132 0.2339 0.65465 0.0
H2054 H 0.79758 0.2162 0.72671 0.0
C2055 C 0.8384 0.22429 0.60932 0.0
C2056 C 0.81072 0.2118 0.60559 0.0
H2057 H 0.87258 0.24337 0.65552 0.0
H2058 H 0.85025 0.227 0.57697 0.0
C2059 C 0.79648 0.20934 0.64898 0.0
C2060 C 0.76694 0.60586 0.61484 0.0
C2061 C 0.77714 0.58856 0.61371 0.0
H2062 H 0.74993 0.62429 0.65801 0.0
C2063 C 0.77768 0.5765 0.65822 0.0
H2064 H 0.76582 0.61532 0.58145 0.0
C2065 C 0.76852 0.58165 0.70225 0.0
C2066 C 0.75835 0.59895 0.70339 0.0
H2067 H 0.78565 0.56335 0.65932 0.0
H2068 H 0.76961 0.57213 0.73558 0.0
C2069 C 0.75762 0.6109 0.6589 0.0
C2070 C 0.8281 0.72499 0.47015 0.0
C2071 C 0.85543 0.74304 0.47218 0.0
H2072 H 0.79303 0.70599 0.42591 0.0
C2073 C 0.8681 0.75576 0.42818 0.0
H2074 H 0.81746 0.71497 0.50312 0.0
C2075 C 0.85404 0.75061 0.3838 0.0
C2076 C 0.82675 0.73262 0.38177 0.0
H2077 H 0.8891 0.76949 0.42774 0.0
H2078 H 0.86472 0.76073 0.35092 0.0
C2079 C 0.81398 0.71994 0.42573 0.0
C2080 C 0.24496 0.10327 0.38204 0.0
C2081 C 0.26359 0.09476 0.38011 0.0
H2082 H 0.22545 0.11894 0.42559 0.0
C2083 C 0.27676 0.09559 0.42404 0.0
H2084 H 0.23445 0.10315 0.34919 0.0
C2085 C 0.27157 0.10475 0.46822 0.0
C2086 C 0.25292 0.11329 0.47018 0.0
H2087 H 0.29124 0.08926 0.42436 0.0
H2088 H 0.28203 0.10483 0.50109 0.0
C2089 C 0.23967 0.11229 0.42621 0.0
C2090 C 0.88921 0.17018 0.47166 0.0
C2091 C 0.88021 0.14287 0.47315 0.0
H2092 H 0.90474 0.20547 0.42794 0.0
C2093 C 0.88005 0.13048 0.42868 0.0
H2094 H 0.88995 0.18061 0.50498 0.0
C2095 C 0.88856 0.14477 0.38448 0.0
C2096 C 0.89768 0.17205 0.38297 0.0
H2097 H 0.87295 0.10951 0.42774 0.0
H2098 H 0.88791 0.13426 0.35131 0.0
C2099 C 0.89789 0.18455 0.42735 0.0
C2100 C 0.2464 0.14124 0.8814 0.0
C2101 C 0.2646 0.1685 0.87959 0.0
H2102 H 0.22723 0.10603 0.92499 0.0
C2103 C 0.2774 0.18101 0.92363 0.0
H2104 H 0.2362 0.13073 0.84845 0.0
C2105 C 0.2722 0.16672 0.9679 0.0
C2106 C 0.25392 0.13943 0.96975 0.0
H2107 H 0.29149 0.20194 0.92402 0.0
H2108 H 0.28229 0.17721 1.00092 0.0
C2109 C 0.24113 0.12699 0.92563 0.0
C2110 C 0.86712 0.11085 0.9307 0.0
C2111 C 0.85476 0.11316 0.97336 0.0
H2112 H 0.8635 0.10016 0.8544 0.0
C2113 C 0.82781 0.10533 0.97014 0.0
H2114 H 0.88785 0.11687 0.93128 0.0
C2115 C 0.81375 0.09555 0.92594 0.0
C2116 C 0.82615 0.09347 0.88317 0.0
H2117 H 0.8174 0.10643 1.00209 0.0
H2118 H 0.79314 0.08984 0.92537 0.0
C2119 C 0.8531 0.1013 0.88634 0.0
C2120 C 0.89267 0.75073 0.88406 0.0
C2121 C 0.90165 0.73247 0.88205 0.0
H2122 H 0.87689 0.77 0.92795 0.0
C2123 C 0.90162 0.71976 0.92608 0.0
H2124 H 0.89219 0.76088 0.85114 0.0
C2125 C 0.89274 0.72502 0.97049 0.0
C2126 C 0.88372 0.74329 0.9725 0.0
H2127 H 0.90836 0.70559 0.9263 0.0
H2128 H 0.89324 0.71493 1.00348 0.0
C2129 C 0.88394 0.75609 0.92845 0.0
C2130 C 0.80585 0.58071 0.20298 0.0
C2131 C 0.83325 0.5983 0.20473 0.0
H2132 H 0.7706 0.56247 0.15937 0.0
C2133 C 0.84595 0.61083 0.16062 0.0
H2134 H 0.7952 0.57073 0.23598 0.0
C2135 C 0.83175 0.60611 0.11643 0.0
C2136 C 0.80433 0.58855 0.11465 0.0
H2137 H 0.86695 0.62446 0.1601 0.0
H2138 H 0.84241 0.61605 0.08342 0.0
C2139 C 0.79167 0.57587 0.15874 0.0
C2140 C 0.41332 0.21012 0.15874 0.0
C2141 C 0.40485 0.21472 0.11318 0.0
H2142 H 0.4153 0.21531 0.23701 0.0
C2143 C 0.39108 0.22878 0.11363 0.0
H2144 H 0.42421 0.19969 0.1603 0.0
C2145 C 0.38593 0.23783 0.15799 0.0
C2146 C 0.39459 0.23333 0.2034 0.0
H2147 H 0.38391 0.23255 0.07964 0.0
H2148 H 0.37523 0.24847 0.15659 0.0
C2149 C 0.40838 0.21934 0.20297 0.0
C2150 C 0.78632 0.18553 0.14976 0.0
C2151 C 0.77792 0.17286 0.104 0.0
H2152 H 0.78544 0.18223 0.22795 0.0
C2153 C 0.76164 0.14509 0.10428 0.0
H2154 H 0.79934 0.20666 0.15162 0.0
C2155 C 0.7535 0.13073 0.14893 0.0
C2156 C 0.76151 0.14371 0.19459 0.0
H2157 H 0.75464 0.13447 0.06997 0.0
H2158 H 0.74061 0.10957 0.14764 0.0
C2159 C 0.77833 0.17131 0.19396 0.0
C2160 C 0.98098 0.40918 0.33487 0.0
C2161 C 0.00822 0.41921 0.32794 0.0
H2162 H 0.94886 0.39762 0.38581 0.0
C2163 C 0.02356 0.42344 0.3707 0.0
H2164 H 0.96844 0.40598 0.30335 0.0
C2165 C 0.01211 0.41773 0.41835 0.0
C2166 C 0.985 0.40857 0.42543 0.0
H2167 H 0.0446 0.43134 0.36734 0.0
H2168 H 0.02477 0.42142 0.44988 0.0
C2169 C 0.96973 0.40452 0.38256 0.0
C2170 C 0.57381 0.5955 0.41928 0.0
C2171 C 0.58429 0.57857 0.42576 0.0
H2172 H 0.55888 0.61353 0.36895 0.0
C2173 C 0.58926 0.56839 0.38247 0.0
H2174 H 0.56934 0.60363 0.45114 0.0
C2175 C 0.58416 0.57492 0.33501 0.0
C2176 C 0.57281 0.59106 0.3286 0.0
H2177 H 0.59717 0.55522 0.38522 0.0
H2178 H 0.58817 0.56639 0.30319 0.0
C2179 C 0.56773 0.60119 0.37181 0.0
C2180 C 0.39842 0.96783 0.37113 0.0
C2181 C 0.40457 0.98353 0.32831 0.0
H2182 H 0.39841 0.96621 0.45042 0.0
C2183 C 0.41553 0.01093 0.3353 0.0
H2184 H 0.39003 0.94671 0.3678 0.0
C2185 C 0.42111 0.02224 0.38293 0.0
C2186 C 0.41507 0.00656 0.42569 0.0
H2187 H 0.42081 0.02388 0.30373 0.0
H2188 H 0.43046 0.04346 0.38627 0.0
C2189 C 0.40311 0.97905 0.41882 0.0
C2190 C 0.01189 0.59442 0.91804 0.0
C2191 C 0.98462 0.57724 0.92517 0.0
H2192 H 0.04441 0.61254 0.86697 0.0
C2193 C 0.96914 0.56679 0.88229 0.0
H2194 H 0.02472 0.60276 0.94957 0.0
C2195 C 0.98037 0.57328 0.83454 0.0
C2196 C 0.00775 0.58964 0.82755 0.0
H2197 H 0.94814 0.55341 0.88559 0.0
H2198 H 0.96765 0.56449 0.80302 0.0
C2199 C 0.02327 0.60007 0.87034 0.0
C2200 C 0.39478 0.4296 0.87125 0.0
C2201 C 0.40181 0.42104 0.82816 0.0
H2202 H 0.39462 0.43087 0.95063 0.0
C2203 C 0.41414 0.40581 0.83504 0.0
H2204 H 0.38537 0.44142 0.86813 0.0
C2205 C 0.42024 0.40044 0.88273 0.0
C2206 C 0.41344 0.40922 0.9258 0.0
H2207 H 0.42016 0.39894 0.80336 0.0
H2208 H 0.43062 0.38954 0.88584 0.0
C2209 C 0.40005 0.42343 0.91896 0.0
C2210 C 0.57208 0.98096 0.91531 0.0
C2211 C 0.58613 0.00857 0.92167 0.0
H2212 H 0.55437 0.94823 0.86495 0.0
C2213 C 0.5948 0.02421 0.87877 0.0
H2214 H 0.56478 0.96814 0.9471 0.0
C2215 C 0.58957 0.01268 0.83137 0.0
C2216 C 0.57463 0.9851 0.82502 0.0
H2217 H 0.60553 0.04549 0.88181 0.0
H2218 H 0.59634 0.0255 0.79953 0.0
C2219 C 0.56601 0.96948 0.86795 0.0
C2220 C 0.65715 0.7266 0.73458 0.0
C2221 C 0.64983 0.7436 0.75789 0.0
H2222 H 0.67401 0.71868 0.67034 0.0
C2223 C 0.6554 0.76676 0.73208 0.0
H2224 H 0.65329 0.70856 0.75271 0.0
C2225 C 0.66816 0.77302 0.68579 0.0
C2226 C 0.67503 0.75592 0.66186 0.0
H2227 H 0.65029 0.78051 0.74823 0.0
H2228 H 0.67231 0.7913 0.66818 0.0
C2229 C 0.66901 0.73238 0.68699 0.0
C2230 C 0.26379 0.90317 0.71525 0.0
C2231 C 0.25606 0.91141 0.75784 0.0
H2232 H 0.26492 0.90227 0.63596 0.0
C2233 C 0.24368 0.92652 0.75041 0.0
H2234 H 0.27329 0.89145 0.71893 0.0
C2235 C 0.23814 0.93208 0.70252 0.0
C2236 C 0.24557 0.92356 0.65994 0.0
H2237 H 0.23715 0.93312 0.78177 0.0
H2238 H 0.22764 0.94284 0.69886 0.0
C2239 C 0.25905 0.90949 0.66734 0.0
C2240 C 0.06801 0.31787 0.74905 0.0
C2241 C 0.08477 0.34521 0.75629 0.0
H2242 H 0.05057 0.28539 0.69785 0.0
C2243 C 0.09512 0.36082 0.71351 0.0
H2244 H 0.05976 0.30495 0.78051 0.0
C2245 C 0.08896 0.34965 0.66573 0.0
C2246 C 0.07307 0.32221 0.65864 0.0
H2247 H 0.10817 0.38188 0.71692 0.0
H2248 H 0.09767 0.36246 0.63427 0.0
C2249 C 0.06271 0.30657 0.70132 0.0
C2250 C 0.69205 0.92823 0.20358 0.0
C2251 C 0.67614 0.92161 0.16093 0.0
H2252 H 0.69412 0.92883 0.28287 0.0
C2253 C 0.64871 0.90995 0.16842 0.0
H2254 H 0.7132 0.93713 0.19994 0.0
C2255 C 0.63765 0.90447 0.21639 0.0
C2256 C 0.65358 0.91118 0.259 0.0
H2257 H 0.63561 0.90422 0.13706 0.0
H2258 H 0.61643 0.89473 0.2201 0.0
C2259 C 0.68105 0.92358 0.25152 0.0
C2260 C 0.09482 0.73589 0.2145 0.0
C2261 C 0.08451 0.74114 0.25732 0.0
H2262 H 0.09709 0.7366 0.13524 0.0
C2263 C 0.06759 0.75154 0.25011 0.0
H2264 H 0.108 0.72803 0.21787 0.0
C2265 C 0.06205 0.75735 0.20236 0.0
C2266 C 0.07232 0.75203 0.15963 0.0
H2267 H 0.05938 0.7562 0.2816 0.0
H2268 H 0.04979 0.76626 0.1989 0.0
C2269 C 0.08842 0.7407 0.16672 0.0
C2270 C 0.25923 0.35219 0.167 0.0
C2271 C 0.24597 0.3246 0.15999 0.0
H2272 H 0.27364 0.38474 0.21795 0.0
C2273 C 0.2391 0.30894 0.20304 0.0
H2274 H 0.26471 0.36512 0.13539 0.0
C2275 C 0.245 0.32031 0.25081 0.0
C2276 C 0.25722 0.34786 0.25783 0.0
H2277 H 0.22882 0.28767 0.19985 0.0
H2278 H 0.23892 0.30735 0.28243 0.0
C2279 C 0.26432 0.36352 0.21477 0.0
C2280 C 0.34547 0.08548 0.08249 0.0
C2281 C 0.31798 0.07291 0.09018 0.0
H2282 H 0.37761 0.10171 1.0306 0.0
C2283 C 0.30187 0.0651 1.04778 0.0
H2284 H 0.3587 0.09207 0.11371 0.0
C2285 C 0.31276 0.06998 0.99978 0.0
C2286 C 0.34027 0.08364 0.9921 0.0
H2287 H 0.28067 0.05547 1.05165 0.0
H2288 H 0.29956 0.06407 0.96856 0.0
C2289 C 0.35638 0.0911 1.03449 0.0
C2290 C 0.92169 0.24031 1.00082 0.0
C2291 C 0.90978 0.2557 0.99167 0.0
H2292 H 0.93468 0.22209 1.05429 0.0
C2293 C 0.90385 0.26633 1.03318 0.0
H2294 H 0.92628 0.2314 0.97037 0.0
C2295 C 0.90963 0.26178 0.08176 0.0
C2296 C 0.9206 0.24551 0.09099 0.0
H2297 H 0.89448 0.27809 1.02811 0.0
H2298 H 0.90443 0.27015 0.11227 0.0
C2299 C 0.92643 0.23486 1.04936 0.0
C2300 C 0.75398 0.68396 0.99903 0.0
C2301 C 0.74064 0.65638 0.99173 0.0
H2302 H 0.77164 0.71647 1.05033 0.0
C2303 C 0.73374 0.64065 1.03473 0.0
H2304 H 0.76019 0.69699 0.9675 0.0
C2305 C 0.73922 0.65186 0.08261 0.0
C2306 C 0.75318 0.67942 0.08995 0.0
H2307 H 0.72377 0.6194 1.0314 0.0
H2308 H 0.73332 0.63879 0.11406 0.0
C2309 C 0.7607 0.69521 1.04695 0.0
C2310 C 0.31391 0.24203 0.49969 0.0
C2311 C 0.34148 0.25513 0.49275 0.0
H2312 H 0.28132 0.22505 0.55066 0.0
C2313 C 0.35722 0.26268 0.53562 0.0
H2314 H 0.30094 0.23552 0.46808 0.0
C2315 C 0.34591 0.25761 0.5833 0.0
C2316 C 0.31833 0.2437 0.59024 0.0
H2317 H 0.37847 0.27264 0.53233 0.0
H2318 H 0.35887 0.26373 0.61491 0.0
C2319 C 0.30258 0.23591 0.54737 0.0
C2320 C 0.75663 0.06016 0.55299 0.0
C2321 C 0.74834 0.0686 0.59447 0.0
H2322 H 0.75817 0.05803 0.4741 0.0
C2323 C 0.73376 0.08143 0.5852 0.0
H2324 H 0.76795 0.05033 0.55801 0.0
C2325 C 0.7288 0.08664 0.53645 0.0
C2326 C 0.73745 0.07847 0.49497 0.0
H2327 H 0.72718 0.08853 0.61569 0.0
H2328 H 0.71838 0.09738 0.53125 0.0
C2329 C 0.75095 0.06459 0.50444 0.0
C2330 C 0.91014 0.65036 0.5835 0.0
C2331 C 0.92049 0.67768 0.59073 0.0
H2332 H 0.89551 0.61788 0.5323 0.0
C2333 C 0.92568 0.69325 0.54787 0.0
H2334 H 0.90551 0.63746 0.61498 0.0
C2335 C 0.9209 0.68207 0.50008 0.0
C2336 C 0.90965 0.65466 0.49297 0.0
H2337 H 0.93351 0.71428 0.55123 0.0
H2338 H 0.92499 0.69486 0.46859 0.0
C2339 C 0.90436 0.63905 0.53574 0.0
C2340 C 0.97799 0.47287 0.13902 0.0
C2341 C 0.00255 0.48421 0.16269 0.0
H2342 H 0.95363 0.47813 0.087 0.0
C2343 C 0.02181 0.5102 0.15073 0.0
H2344 H 0.96297 0.45266 0.14624 0.0
C2345 C 0.0168 0.52443 0.11545 0.0
C2346 C 0.99224 0.51309 0.0918 0.0
H2347 H 0.04117 0.51917 0.16748 0.0
H2348 H 0.0318 0.54465 0.10824 0.0
C2349 C 0.97299 0.4871 0.10374 0.0
C2350 C 0.5207 0.5075 0.13725 0.0
C2351 C 0.50975 0.52135 0.15986 0.0
H2352 H 0.51482 0.47696 0.08696 0.0
C2353 C 0.48386 0.51487 0.14769 0.0
H2354 H 0.54083 0.51246 0.14468 0.0
C2355 C 0.46933 0.49523 0.11329 0.0
C2356 C 0.48023 0.48132 0.09076 0.0
H2357 H 0.47515 0.52567 0.16369 0.0
H2358 H 0.44921 0.4903 0.10589 0.0
C2359 C 0.50614 0.48781 0.10289 0.0
C2360 C 0.50182 0.97767 0.11179 0.0
C2361 C 0.51418 0.00225 0.08799 0.0
H2362 H 0.47381 0.9531 0.16593 0.0
C2363 C 0.5077 0.02139 0.10221 0.0
H2364 H 0.50693 0.96275 0.10293 0.0
C2365 C 0.48946 0.0162 0.13962 0.0
C2366 C 0.47702 0.99158 0.16326 0.0
H2367 H 0.51755 0.04079 0.08553 0.0
H2368 H 0.4843 0.03109 0.1484 0.0
C2369 C 0.48365 0.97251 0.14927 0.0
C2370 C 0.48276 0.97176 0.6513 0.0
C2371 C 0.50872 0.99102 0.66326 0.0
H2372 H 0.44862 0.96155 0.60782 0.0
C2373 C 0.52034 0.01536 0.63869 0.0
H2374 H 0.47365 0.95253 0.66865 0.0
C2375 C 0.50642 0.02012 0.60241 0.0
C2376 C 0.48047 0.00086 0.59042 0.0
H2377 H 0.54057 0.03033 0.64585 0.0
H2378 H 0.51558 0.03932 0.58496 0.0
C2379 C 0.46884 0.97653 0.61504 0.0
C2380 C 0.01605 0.49274 0.61464 0.0
C2381 C 0.99134 0.4793 0.59158 0.0
H2382 H 0.04063 0.52262 0.66599 0.0
C2383 C 0.97204 0.48591 0.60387 0.0
H2384 H 0.03109 0.48762 0.60719 0.0
C2385 C 0.97719 0.50531 0.63882 0.0
C2386 C 0.0019 0.51876 0.66187 0.0
H2387 H 0.95257 0.47532 0.58762 0.0
H2388 H 0.96213 0.51042 0.6463 0.0
C2389 C 0.02118 0.51211 0.64965 0.0
C2390 C 0.49979 0.52428 0.61213 0.0
C2391 C 0.51315 0.51293 0.58907 0.0
H2392 H 0.46979 0.51904 0.66313 0.0
C2393 C 0.50611 0.48682 0.60083 0.0
H2394 H 0.50519 0.54457 0.60508 0.0
C2395 C 0.48641 0.47247 0.63534 0.0
C2396 C 0.47312 0.48387 0.6585 0.0
H2397 H 0.51657 0.47781 0.58455 0.0
H2398 H 0.48101 0.4522 0.64249 0.0
C2399 C 0.48015 0.50997 0.64669 0.0
C2400 C 0.68411 0.85801 0.4535 0.0
C2401 C 0.6601 0.84719 0.428 0.0
H2402 H 0.70749 0.85158 0.50595 0.0
C2403 C 0.64069 0.82088 0.43744 0.0
H2404 H 0.69917 0.87842 0.44835 0.0
C2405 C 0.64519 0.8057 0.47153 0.0
C2406 C 0.66926 0.81655 0.49682 0.0
H2407 H 0.62171 0.81229 0.41931 0.0
H2408 H 0.63027 0.78523 0.4765 0.0
C2409 C 0.6885 0.84293 0.48781 0.0
C2410 C 0.18976 0.83795 0.4713 0.0
C2411 C 0.17883 0.85159 0.49478 0.0
H2412 H 0.18395 0.80807 0.4195 0.0
C2413 C 0.15301 0.84539 0.48268 0.0
H2414 H 0.20985 0.84276 0.47859 0.0
C2415 C 0.13852 0.82619 0.44752 0.0
C2416 C 0.14946 0.81254 0.42406 0.0
H2417 H 0.14437 0.85613 0.49924 0.0
H2418 H 0.11843 0.82138 0.44022 0.0
C2419 C 0.17529 0.81878 0.4361 0.0
C2420 C 0.17831 0.35802 0.43703 0.0
C2421 C 0.18529 0.33887 0.4257 0.0
H2422 H 0.15321 0.36774 0.47792 0.0
C2423 C 0.17162 0.31409 0.44852 0.0
H2424 H 0.1889 0.37749 0.42076 0.0
C2425 C 0.15169 0.30878 0.48243 0.0
C2426 C 0.14483 0.328 0.49398 0.0
H2427 H 0.17694 0.29914 0.44164 0.0
H2428 H 0.14098 0.28927 0.49857 0.0
C2429 C 0.15848 0.35275 0.47107 0.0
C2430 C 0.1537 0.31033 0.98263 0.0
C2431 C 0.17966 0.33003 0.99354 0.0
H2432 H 0.11876 0.29928 0.94099 0.0
C2433 C 0.19042 0.35429 0.96883 0.0
H2434 H 0.14514 0.29119 1.00021 0.0
C2435 C 0.17566 0.35856 0.93358 0.0
C2436 C 0.14971 0.33885 0.92265 0.0
H2437 H 0.21059 0.36963 0.97524 0.0
H2438 H 0.18417 0.37772 0.91608 0.0
C2439 C 0.13894 0.31459 0.94735 0.0
C2440 C 0.64395 0.83783 0.9682 0.0
C2441 C 0.66834 0.85091 0.9924 0.0
H2442 H 0.61953 0.80782 0.91696 0.0
C2443 C 0.68736 0.84361 0.98196 0.0
H2444 H 0.62916 0.84348 0.97414 0.0
C2445 C 0.6821 0.82365 0.94811 0.0
C2446 C 0.65765 0.81053 0.9241 0.0
H2447 H 0.70662 0.85391 0.99908 0.0
H2448 H 0.69677 0.81783 0.9423 0.0
C2449 C 0.63878 0.81805 0.93414 0.0
C2450 C 0.15577 0.80456 0.96754 0.0
C2451 C 0.14324 0.81608 0.99301 0.0
H2452 H 0.18468 0.80985 0.91384 0.0
C2453 C 0.15028 0.84229 0.98238 0.0
H2454 H 0.15027 0.78418 0.9737 0.0
C2455 C 0.16912 0.85658 0.94661 0.0
C2456 C 0.18172 0.84511 0.92123 0.0
H2457 H 0.14039 0.85141 1.00053 0.0
H2458 H 0.17461 0.87697 0.94049 0.0
C2459 C 0.1747 0.8189 0.93185 0.0
C2460 C 0.34939 0.1914 0.77971 0.0
C2461 C 0.32527 0.17993 0.75442 0.0
H2462 H 0.37284 0.18628 0.8341 0.0
C2463 C 0.3059 0.15392 0.76578 0.0
H2464 H 0.36445 0.21164 0.77295 0.0
C2465 C 0.31025 0.13985 0.80235 0.0
C2466 C 0.33433 0.15134 0.82777 0.0
H2467 H 0.28686 0.14488 0.74778 0.0
H2468 H 0.29517 0.11961 0.80914 0.0
C2469 C 0.35378 0.17728 0.81617 0.0
C2470 C 0.8205 0.17447 0.82151 0.0
C2471 C 0.84727 0.182 0.8256 0.0
H2472 H 0.78349 0.14929 0.78696 0.0
C2473 C 0.85739 0.16962 0.79574 0.0
H2474 H 0.81239 0.18423 0.84312 0.0
C2475 C 0.84107 0.1503 0.76221 0.0
C2476 C 0.81431 0.14284 0.75806 0.0
H2477 H 0.87812 0.17562 0.79671 0.0
H2478 H 0.84912 0.14043 0.74067 0.0
C2479 C 0.80421 0.15523 0.78792 0.0
C2480 C 0.83514 0.64688 0.77993 0.0
C2481 C 0.84899 0.6713 0.75594 0.0
H2482 H 0.80471 0.62311 0.8311 0.0
C2483 C 0.84254 0.69093 0.76626 0.0
H2484 H 0.84014 0.63162 0.77403 0.0
C2485 C 0.82287 0.68638 0.80019 0.0
C2486 C 0.80901 0.66195 0.8242 0.0
H2487 H 0.85344 0.71019 0.74926 0.0
H2488 H 0.8179 0.70165 0.80617 0.0
C2489 C 0.81551 0.64235 0.81394 0.0
C2490 C 0.85658 0.68572 0.30264 0.0
C2491 C 0.84541 0.66126 0.32669 0.0
H2492 H 0.85086 0.70993 0.25088 0.0
C2493 C 0.81929 0.642 0.31567 0.0
H2494 H 0.87688 0.70071 0.30914 0.0
C2495 C 0.80477 0.64689 0.28089 0.0
C2496 C 0.81592 0.67136 0.25687 0.0
H2497 H 0.81043 0.62272 0.33277 0.0
H2498 H 0.78448 0.63188 0.2744 0.0
C2499 C 0.84203 0.69063 0.26791 0.0
C2500 C 0.3098 0.17191 0.30217 0.0
C2501 C 0.33389 0.18445 0.32755 0.0
H2502 H 0.28627 0.14337 0.24787 0.0
C2503 C 0.35318 0.17768 0.3163 0.0
H2504 H 0.2948 0.1772 0.30883 0.0
C2505 C 0.34876 0.15922 0.27984 0.0
C2506 C 0.32468 0.1467 0.25442 0.0
H2507 H 0.37221 0.18759 0.33436 0.0
H2508 H 0.36377 0.15396 0.27317 0.0
C2509 C 0.30533 0.15336 0.26583 0.0
C2510 C 0.83733 0.18536 0.2897 0.0
C2511 C 0.84733 0.18206 0.24477 0.0
H2512 H 0.80992 0.16635 0.34898 0.0
C2513 C 0.83641 0.15708 0.22396 0.0
H2514 H 0.8465 0.20442 0.3076 0.0
C2515 C 0.81622 0.13555 0.24791 0.0
C2516 C 0.80635 0.13844 0.29338 0.0
H2517 H 0.84455 0.15394 0.19061 0.0
H2518 H 0.80854 0.11645 0.23063 0.0
C2519 C 0.81696 0.1636 0.31401 0.0
loop_
_geom_bond_atom_site_label_1
_geom_bond_atom_site_label_2
_geom_bond_distance
_geom_bond_site_symmetry_2
_ccdc_geom_bond_type
Sm0 C2 2.846 . S
Sm0 O20 2.543 . S
Sm0 O21 2.450 . S
Sm0 O22 2.681 . S
Sm0 O23 2.464 . S
Sm0 O24 2.396 . S
Sm0 O28 2.386 . S
Sm0 O31 2.408 . S
Sm1 C11 2.846 1_554 S
Sm1 O22 2.386 . S
Sm1 O25 2.408 . S
Sm1 O26 2.543 . S
Sm1 O27 2.450 . S
Sm1 O28 2.681 . S
Sm1 O29 2.464 . S
Sm1 O30 2.396 . S
C2 Sm0 2.846 . S
C2 C3 1.506 . S
C2 O20 1.261 . S
C2 O21 1.242 . S
C3 C2 1.506 . S
C3 C4 1.358 . S
C3 C8 1.382 . S
C4 C3 1.358 . S
C4 C5 1.385 . S
C4 H32 0.930 . S
C5 C4 1.385 . S
C5 C6 1.395 . S
C5 H33 0.929 . S
C6 C5 1.395 . S
C6 C7 1.335 . S
C7 C6 1.335 . S
C7 C8 1.398 . S
C7 H34 0.930 . S
C8 C3 1.382 . S
C8 C7 1.398 . S
C8 H35 0.929 . S
C9 O22 1.271 . S
C9 O23 1.251 . S
C10 O24 1.252 . S
C10 O25 1.272 . S
C11 Sm1 2.846 1_556 S
C11 C12 1.506 . S
C11 O26 1.261 1_556 S
C11 O27 1.242 1_556 S
C12 C11 1.506 . S
C12 C13 1.358 . S
C12 C17 1.386 . S
C13 C12 1.358 . S
C13 C14 1.385 . S
C13 H36 0.930 . S
C14 C13 1.385 . S
C14 C15 1.395 . S
C14 H37 0.929 . S
C15 C14 1.395 . S
C15 C16 1.335 1_455 S
C16 C15 1.335 1_655 S
C16 C17 1.398 1_655 S
C16 H38 0.930 . S
C17 C12 1.386 . S
C17 C16 1.398 1_455 S
C17 H39 0.925 1_455 S
C18 O28 1.271 . S
C18 O29 1.251 . S
C19 O30 1.252 . S
C19 O31 1.272 . S
O20 Sm0 2.543 . S
O20 C2 1.261 . S
O21 Sm0 2.450 . S
O21 C2 1.242 . S
O22 Sm0 2.681 . S
O22 Sm1 2.386 . S
O22 C9 1.271 . S
O23 Sm0 2.464 . S
O23 C9 1.251 . S
O24 Sm0 2.396 . S
O24 C10 1.252 . S
O25 Sm1 2.408 . S
O25 C10 1.272 . S
O26 Sm1 2.543 . S
O26 C11 1.261 1_554 S
O27 Sm1 2.450 . S
O27 C11 1.242 1_554 S
O28 Sm0 2.386 . S
O28 Sm1 2.681 . S
O28 C18 1.271 . S
O29 Sm1 2.464 . S
O29 C18 1.251 . S
O30 Sm1 2.396 . S
O30 C19 1.252 . S
O31 Sm0 2.408 . S
O31 C19 1.272 . S
H32 C4 0.930 . S
H33 C5 0.929 . S
H34 C7 0.930 . S
H35 C8 0.929 . S
H36 C13 0.930 . S
H37 C14 0.929 . S
H38 C16 0.930 . S
H39 C17 0.925 1_655 S
Sm40 C42 2.846 . S
Sm40 O60 2.543 . S
Sm40 O61 2.450 . S
Sm40 O62 2.681 . S
Sm40 O63 2.464 . S
Sm40 O64 2.396 . S
Sm40 O68 2.386 . S
Sm40 O71 2.408 . S
Sm41 C51 2.846 1_554 S
Sm41 O62 2.386 . S
Sm41 O65 2.408 . S
Sm41 O66 2.543 . S
Sm41 O67 2.450 . S
Sm41 O68 2.681 . S
Sm41 O69 2.464 . S
Sm41 O70 2.396 . S
C42 Sm40 2.846 . S
C42 C43 1.506 . S
C42 O60 1.261 . S
C42 O61 1.242 . S
C43 C42 1.506 . S
C43 C44 1.358 . S
C43 C48 1.382 . S
C44 C43 1.358 . S
C44 C45 1.385 . S
C44 H72 0.930 . S
C45 C44 1.385 . S
C45 C46 1.395 . S
C45 H73 0.929 . S
C46 C45 1.395 . S
C46 C47 1.335 . S
C47 C46 1.335 . S
C47 C48 1.398 . S
C47 H74 0.930 . S
C48 C43 1.382 . S
C48 C47 1.398 . S
C48 H75 0.929 . S
C49 O62 1.271 . S
C49 O63 1.251 . S
C50 O64 1.252 . S
C50 O65 1.272 . S
C51 Sm41 2.846 1_556 S
C51 C52 1.506 . S
C51 O66 1.261 1_556 S
C51 O67 1.242 1_556 S
C52 C51 1.506 . S
C52 C53 1.358 . S
C52 C57 1.382 . S
C53 C52 1.358 . S
C53 C54 1.385 . S
C53 H76 0.930 . S
C54 C53 1.385 . S
C54 C55 1.395 . S
C54 H77 0.929 . S
C55 C54 1.395 . S
C55 C56 1.335 . S
C56 C55 1.335 . S
C56 C57 1.398 . S
C56 H78 0.930 . S
C57 C52 1.382 . S
C57 C56 1.398 . S
C57 H79 0.929 . S
C58 O68 1.271 . S
C58 O69 1.251 . S
C59 O70 1.252 . S
C59 O71 1.272 . S
O60 Sm40 2.543 . S
O60 C42 1.261 . S
O61 Sm40 2.450 . S
O61 C42 1.242 . S
O62 Sm40 2.681 . S
O62 Sm41 2.386 . S
O62 C49 1.271 . S
O63 Sm40 2.464 . S
O63 C49 1.251 . S
O64 Sm40 2.396 . S
O64 C50 1.252 . S
O65 Sm41 2.408 . S
O65 C50 1.272 . S
O66 Sm41 2.543 . S
O66 C51 1.261 1_554 S
O67 Sm41 2.450 . S
O67 C51 1.242 1_554 S
O68 Sm40 2.386 . S
O68 Sm41 2.681 . S
O68 C58 1.271 . S
O69 Sm41 2.464 . S
O69 C58 1.251 . S
O70 Sm41 2.396 . S
O70 C59 1.252 . S
O71 Sm40 2.408 . S
O71 C59 1.272 . S
H72 C44 0.930 . S
H73 C45 0.929 . S
H74 C47 0.930 . S
H75 C48 0.929 . S
H76 C53 0.930 . S
H77 C54 0.929 . S
H78 C56 0.930 . S
H79 C57 0.929 . S
Sm80 C82 2.846 . S
Sm80 O100 2.543 . S
Sm80 O101 2.450 . S
Sm80 O102 2.681 . S
Sm80 O103 2.464 . S
Sm80 O104 2.396 . S
Sm80 O108 2.386 . S
Sm80 O111 2.408 . S
Sm81 C91 2.846 1_554 S
Sm81 O102 2.386 . S
Sm81 O105 2.408 . S
Sm81 O106 2.543 . S
Sm81 O107 2.450 . S
Sm81 O108 2.681 . S
Sm81 O109 2.464 . S
Sm81 O110 2.396 . S
C82 Sm80 2.846 . S
C82 C83 1.506 . S
C82 O100 1.261 . S
C82 O101 1.242 . S
C83 C82 1.506 . S
C83 C84 1.358 . S
C83 C88 1.382 . S
C84 C83 1.358 . S
C84 C85 1.385 . S
C84 H112 0.930 . S
C85 C84 1.385 . S
C85 C86 1.395 . S
C85 H113 0.929 . S
C86 C85 1.395 . S
C86 C87 1.335 . S
C87 C86 1.335 . S
C87 C88 1.398 . S
C87 H114 0.930 . S
C88 C83 1.382 . S
C88 C87 1.398 . S
C88 H115 0.929 . S
C89 O102 1.271 . S
C89 O103 1.251 . S
C90 O104 1.252 . S
C90 O105 1.272 . S
C91 Sm81 2.846 1_556 S
C91 C92 1.506 . S
C91 O106 1.261 1_556 S
C91 O107 1.242 1_556 S
C92 C91 1.506 . S
C92 C93 1.358 . S
C92 C97 1.384 . S
C93 C92 1.358 . S
C93 C94 1.385 . S
C93 H116 0.930 . S
C94 C93 1.385 . S
C94 C95 1.395 . S
C94 H117 0.929 . S
C95 C94 1.395 . S
C95 C96 1.335 1_565 S
C96 C95 1.335 1_545 S
C96 C97 1.397 1_545 S
C96 H118 0.930 . S
C97 C92 1.384 . S
C97 C96 1.397 1_565 S
C97 H119 0.928 1_565 S
C98 O108 1.271 . S
C98 O109 1.251 . S
C99 O110 1.252 . S
C99 O111 1.272 . S
O100 Sm80 2.543 . S
O100 C82 1.261 . S
O101 Sm80 2.450 . S
O101 C82 1.242 . S
O102 Sm80 2.681 . S
O102 Sm81 2.386 . S
O102 C89 1.271 . S
O103 Sm80 2.464 . S
O103 C89 1.251 . S
O104 Sm80 2.396 . S
O104 C90 1.252 . S
O105 Sm81 2.408 . S
O105 C90 1.272 . S
O106 Sm81 2.543 . S
O106 C91 1.261 1_554 S
O107 Sm81 2.450 . S
O107 C91 1.242 1_554 S
O108 Sm80 2.386 . S
O108 Sm81 2.681 . S
O108 C98 1.271 . S
O109 Sm81 2.464 . S
O109 C98 1.251 . S
O110 Sm81 2.396 . S
O110 C99 1.252 . S
O111 Sm80 2.408 . S
O111 C99 1.272 . S
H112 C84 0.930 . S
H113 C85 0.929 . S
H114 C87 0.930 . S
H115 C88 0.929 . S
H116 C93 0.930 . S
H117 C94 0.929 . S
H118 C96 0.930 . S
H119 C97 0.928 1_545 S
Sm120 C122 2.846 . S
Sm120 O140 2.543 . S
Sm120 O141 2.450 . S
Sm120 O142 2.681 . S
Sm120 O143 2.464 . S
Sm120 O144 2.396 . S
Sm120 O148 2.386 . S
Sm120 O151 2.408 . S
Sm121 C131 2.846 . S
Sm121 O142 2.386 . S
Sm121 O145 2.408 . S
Sm121 O146 2.543 . S
Sm121 O147 2.450 . S
Sm121 O148 2.681 . S
Sm121 O149 2.464 . S
Sm121 O150 2.396 . S
C122 Sm120 2.846 . S
C122 C123 1.506 . S
C122 O140 1.261 . S
C122 O141 1.242 . S
C123 C122 1.506 . S
C123 C124 1.358 . S
C123 C128 1.382 . S
C124 C123 1.358 . S
C124 C125 1.385 . S
C124 H152 0.930 . S
C125 C124 1.385 . S
C125 C126 1.395 . S
C125 H153 0.929 . S
C126 C125 1.395 . S
C126 C127 1.335 . S
C127 C126 1.335 . S
C127 C128 1.398 . S
C127 H154 0.930 . S
C128 C123 1.382 . S
C128 C127 1.398 . S
C128 H155 0.929 . S
C129 O142 1.271 . S
C129 O143 1.251 . S
C130 O144 1.252 . S
C130 O145 1.272 . S
C131 Sm121 2.846 . S
C131 C132 1.506 . S
C131 O146 1.261 . S
C131 O147 1.242 . S
C132 C131 1.506 . S
C132 C133 1.358 . S
C132 C137 1.383 . S
C133 C132 1.358 . S
C133 C134 1.385 . S
C133 H156 0.930 . S
C134 C133 1.385 . S
C134 C135 1.395 . S
C134 H157 0.929 . S
C135 C134 1.395 . S
C135 C136 1.335 1_545 S
C136 C135 1.335 1_565 S
C136 C137 1.398 1_565 S
C136 H158 0.930 . S
C137 C132 1.383 . S
C137 C136 1.398 1_545 S
C137 H159 0.928 1_545 S
C138 O148 1.271 . S
C138 O149 1.251 . S
C139 O150 1.252 . S
C139 O151 1.272 . S
O140 Sm120 2.543 . S
O140 C122 1.261 . S
O141 Sm120 2.450 . S
O141 C122 1.242 . S
O142 Sm120 2.681 . S
O142 Sm121 2.386 . S
O142 C129 1.271 . S
O143 Sm120 2.464 . S
O143 C129 1.251 . S
O144 Sm120 2.396 . S
O144 C130 1.252 . S
O145 Sm121 2.408 . S
O145 C130 1.272 . S
O146 Sm121 2.543 . S
O146 C131 1.261 . S
O147 Sm121 2.450 . S
O147 C131 1.242 . S
O148 Sm120 2.386 . S
O148 Sm121 2.681 . S
O148 C138 1.271 . S
O149 Sm121 2.464 . S
O149 C138 1.251 . S
O150 Sm121 2.396 . S
O150 C139 1.252 . S
O151 Sm120 2.408 . S
O151 C139 1.272 . S
H152 C124 0.930 . S
H153 C125 0.929 . S
H154 C127 0.930 . S
H155 C128 0.929 . S
H156 C133 0.930 . S
H157 C134 0.929 . S
H158 C136 0.930 . S
H159 C137 0.928 1_565 S
Sm160 C162 2.846 . S
Sm160 O180 2.543 . S
Sm160 O181 2.450 . S
Sm160 O182 2.681 . S
Sm160 O183 2.464 . S
Sm160 O184 2.396 . S
Sm160 O188 2.386 . S
Sm160 O191 2.408 . S
Sm161 C171 2.846 . S
Sm161 O182 2.386 . S
Sm161 O185 2.408 . S
Sm161 O186 2.543 . S
Sm161 O187 2.450 . S
Sm161 O188 2.681 . S
Sm161 O189 2.464 . S
Sm161 O190 2.396 . S
C162 Sm160 2.846 . S
C162 C163 1.506 . S
C162 O180 1.261 . S
C162 O181 1.242 . S
C163 C162 1.506 . S
C163 C164 1.358 . S
C163 C168 1.382 . S
C164 C163 1.358 . S
C164 C165 1.385 . S
C164 H192 0.930 . S
C165 C164 1.385 . S
C165 C166 1.395 . S
C165 H193 0.929 . S
C166 C165 1.395 . S
C166 C167 1.335 . S
C167 C166 1.335 . S
C167 C168 1.398 . S
C167 H194 0.930 . S
C168 C163 1.382 . S
C168 C167 1.398 . S
C168 H195 0.929 . S
C169 O182 1.271 . S
C169 O183 1.251 . S
C170 O184 1.252 . S
C170 O185 1.272 . S
C171 Sm161 2.846 . S
C171 C172 1.506 . S
C171 O186 1.261 . S
C171 O187 1.242 . S
C172 C171 1.506 . S
C172 C173 1.358 . S
C172 C177 1.382 . S
C173 C172 1.358 . S
C173 C174 1.385 . S
C173 H196 0.930 . S
C174 C173 1.385 . S
C174 C175 1.395 . S
C174 H197 0.929 . S
C175 C174 1.395 . S
C175 C176 1.335 1_655 S
C176 C175 1.335 1_455 S
C176 C177 1.398 1_455 S
C176 H198 0.930 . S
C177 C172 1.382 . S
C177 C176 1.398 1_655 S
C177 H199 0.929 1_655 S
C178 O188 1.271 . S
C178 O189 1.251 . S
C179 O190 1.252 . S
C179 O191 1.272 . S
O180 Sm160 2.543 . S
O180 C162 1.261 . S
O181 Sm160 2.450 . S
O181 C162 1.242 . S
O182 Sm160 2.681 . S
O182 Sm161 2.386 . S
O182 C169 1.271 . S
O183 Sm160 2.464 . S
O183 C169 1.251 . S
O184 Sm160 2.396 . S
O184 C170 1.252 . S
O185 Sm161 2.408 . S
O185 C170 1.272 . S
O186 Sm161 2.543 . S
O186 C171 1.261 . S
O187 Sm161 2.450 . S
O187 C171 1.242 . S
O188 Sm160 2.386 . S
O188 Sm161 2.681 . S
O188 C178 1.271 . S
O189 Sm161 2.464 . S
O189 C178 1.251 . S
O190 Sm161 2.396 . S
O190 C179 1.252 . S
O191 Sm160 2.408 . S
O191 C179 1.272 . S
H192 C164 0.930 . S
H193 C165 0.929 . S
H194 C167 0.930 . S
H195 C168 0.929 . S
H196 C173 0.930 . S
H197 C174 0.929 . S
H198 C176 0.930 . S
H199 C177 0.929 1_455 S
Sm200 C202 2.846 . S
Sm200 O220 2.543 . S
Sm200 O221 2.450 . S
Sm200 O222 2.681 . S
Sm200 O223 2.464 . S
Sm200 O224 2.396 . S
Sm200 O228 2.386 . S
Sm200 O231 2.408 . S
Sm201 C211 2.846 . S
Sm201 O222 2.386 . S
Sm201 O225 2.408 . S
Sm201 O226 2.543 . S
Sm201 O227 2.450 . S
Sm201 O228 2.681 . S
Sm201 O229 2.464 . S
Sm201 O230 2.396 . S
C202 Sm200 2.846 . S
C202 C203 1.506 . S
C202 O220 1.261 . S
C202 O221 1.242 . S
C203 C202 1.506 . S
C203 C204 1.358 . S
C203 C208 1.382 . S
C204 C203 1.358 . S
C204 C205 1.385 . S
C204 H232 0.930 . S
C205 C204 1.385 . S
C205 C206 1.395 . S
C205 H233 0.929 . S
C206 C205 1.395 . S
C206 C207 1.335 . S
C207 C206 1.335 . S
C207 C208 1.398 . S
C207 H234 0.930 . S
C208 C203 1.382 . S
C208 C207 1.398 . S
C208 H235 0.929 . S
C209 O222 1.271 . S
C209 O223 1.251 . S
C210 O224 1.252 . S
C210 O225 1.272 . S
C211 Sm201 2.846 . S
C211 C212 1.506 . S
C211 O226 1.261 . S
C211 O227 1.242 . S
C212 C211 1.506 . S
C212 C213 1.358 . S
C212 C217 1.382 . S
C213 C212 1.358 . S
C213 C214 1.385 . S
C213 H236 0.930 . S
C214 C213 1.385 . S
C214 C215 1.395 . S
C214 H237 0.929 . S
C215 C214 1.395 . S
C215 C216 1.335 . S
C216 C215 1.335 . S
C216 C217 1.398 . S
C216 H238 0.930 . S
C217 C212 1.382 . S
C217 C216 1.398 . S
C217 H239 0.929 . S
C218 O228 1.271 . S
C218 O229 1.251 . S
C219 O230 1.252 . S
C219 O231 1.272 . S
O220 Sm200 2.543 . S
O220 C202 1.261 . S
O221 Sm200 2.450 . S
O221 C202 1.242 . S
O222 Sm200 2.681 . S
O222 Sm201 2.386 . S
O222 C209 1.271 . S
O223 Sm200 2.464 . S
O223 C209 1.251 . S
O224 Sm200 2.396 . S
O224 C210 1.252 . S
O225 Sm201 2.408 . S
O225 C210 1.272 . S
O226 Sm201 2.543 . S
O226 C211 1.261 . S
O227 Sm201 2.450 . S
O227 C211 1.242 . S
O228 Sm200 2.386 . S
O228 Sm201 2.681 . S
O228 C218 1.271 . S
O229 Sm201 2.464 . S
O229 C218 1.251 . S
O230 Sm201 2.396 . S
O230 C219 1.252 . S
O231 Sm200 2.408 . S
O231 C219 1.272 . S
H232 C204 0.930 . S
H233 C205 0.929 . S
H234 C207 0.930 . S
H235 C208 0.929 . S
H236 C213 0.930 . S
H237 C214 0.929 . S
H238 C216 0.930 . S
H239 C217 0.929 . S
Sm240 C242 2.846 . S
Sm240 O260 2.543 . S
Sm240 O261 2.450 . S
Sm240 O262 2.681 . S
Sm240 O263 2.464 . S
Sm240 O264 2.396 . S
Sm240 O268 2.386 . S
Sm240 O271 2.408 1_554 S
Sm241 C251 2.846 . S
Sm241 O262 2.386 1_556 S
Sm241 O265 2.408 1_556 S
Sm241 O266 2.543 . S
Sm241 O267 2.450 . S
Sm241 O268 2.681 1_556 S
Sm241 O269 2.464 1_556 S
Sm241 O270 2.396 . S
C242 Sm240 2.846 . S
C242 C243 1.506 . S
C242 O260 1.261 . S
C242 O261 1.242 . S
C243 C242 1.506 . S
C243 C244 1.358 . S
C243 C248 1.384 . S
C244 C243 1.358 . S
C244 C245 1.385 . S
C244 H272 0.930 . S
C245 C244 1.385 . S
C245 C246 1.395 . S
C245 H273 0.929 . S
C246 C245 1.395 . S
C246 C247 1.335 1_655 S
C247 C246 1.335 1_455 S
C247 C248 1.398 1_455 S
C247 H274 0.930 . S
C248 C243 1.384 . S
C248 C247 1.398 1_655 S
C248 H275 0.927 1_655 S
C249 O262 1.271 . S
C249 O263 1.251 . S
C250 O264 1.252 . S
C250 O265 1.272 . S
C251 Sm241 2.846 . S
C251 C252 1.506 . S
C251 O266 1.261 . S
C251 O267 1.242 . S
C252 C251 1.506 . S
C252 C253 1.358 . S
C252 C257 1.382 . S
C253 C252 1.358 . S
C253 C254 1.385 . S
C253 H276 0.930 . S
C254 C253 1.385 . S
C254 C255 1.395 . S
C254 H277 0.929 . S
C255 C254 1.395 . S
C255 C256 1.335 . S
C256 C255 1.335 . S
C256 C257 1.398 . S
C256 H278 0.930 . S
C257 C252 1.382 . S
C257 C256 1.398 . S
C257 H279 0.929 . S
C258 O268 1.271 . S
C258 O269 1.251 . S
C259 O270 1.252 . S
C259 O271 1.272 . S
O260 Sm240 2.543 . S
O260 C242 1.261 . S
O261 Sm240 2.450 . S
O261 C242 1.242 . S
O262 Sm240 2.681 . S
O262 Sm241 2.386 1_554 S
O262 C249 1.271 . S
O263 Sm240 2.464 . S
O263 C249 1.251 . S
O264 Sm240 2.396 . S
O264 C250 1.252 . S
O265 Sm241 2.408 1_554 S
O265 C250 1.272 . S
O266 Sm241 2.543 . S
O266 C251 1.261 . S
O267 Sm241 2.450 . S
O267 C251 1.242 . S
O268 Sm240 2.386 . S
O268 Sm241 2.681 1_554 S
O268 C258 1.271 . S
O269 Sm241 2.464 1_554 S
O269 C258 1.251 . S
O270 Sm241 2.396 . S
O270 C259 1.252 . S
O271 Sm240 2.408 1_556 S
O271 C259 1.272 . S
H272 C244 0.930 . S
H273 C245 0.929 . S
H274 C247 0.930 . S
H275 C248 0.927 1_455 S
H276 C253 0.930 . S
H277 C254 0.929 . S
H278 C256 0.930 . S
H279 C257 0.929 . S
Sm280 C282 2.846 . S
Sm280 O300 2.543 . S
Sm280 O301 2.450 . S
Sm280 O302 2.681 . S
Sm280 O303 2.464 . S
Sm280 O304 2.396 . S
Sm280 O308 2.386 . S
Sm280 O311 2.408 1_554 S
Sm281 C291 2.846 . S
Sm281 O302 2.386 1_556 S
Sm281 O305 2.408 1_556 S
Sm281 O306 2.543 . S
Sm281 O307 2.450 . S
Sm281 O308 2.681 1_556 S
Sm281 O309 2.464 1_556 S
Sm281 O310 2.396 . S
C282 Sm280 2.846 . S
C282 C283 1.506 . S
C282 O300 1.261 . S
C282 O301 1.242 . S
C283 C282 1.506 . S
C283 C284 1.358 . S
C283 C288 1.382 . S
C284 C283 1.358 . S
C284 C285 1.385 . S
C284 H312 0.930 . S
C285 C284 1.385 . S
C285 C286 1.395 . S
C285 H313 0.929 . S
C286 C285 1.395 . S
C286 C287 1.335 . S
C287 C286 1.335 . S
C287 C288 1.398 . S
C287 H314 0.930 . S
C288 C283 1.382 . S
C288 C287 1.398 . S
C288 H315 0.929 . S
C289 O302 1.271 . S
C289 O303 1.251 . S
C290 O304 1.252 . S
C290 O305 1.272 . S
C291 Sm281 2.846 . S
C291 C292 1.506 . S
C291 O306 1.261 . S
C291 O307 1.242 . S
C292 C291 1.506 . S
C292 C293 1.358 . S
C292 C297 1.382 . S
C293 C292 1.358 . S
C293 C294 1.385 . S
C293 H316 0.930 . S
C294 C293 1.385 . S
C294 C295 1.395 . S
C294 H317 0.929 . S
C295 C294 1.395 . S
C295 C296 1.335 . S
C296 C295 1.335 . S
C296 C297 1.398 . S
C296 H318 0.930 . S
C297 C292 1.382 . S
C297 C296 1.398 . S
C297 H319 0.929 . S
C298 O308 1.271 . S
C298 O309 1.251 . S
C299 O310 1.252 . S
C299 O311 1.272 . S
O300 Sm280 2.543 . S
O300 C282 1.261 . S
O301 Sm280 2.450 . S
O301 C282 1.242 . S
O302 Sm280 2.681 . S
O302 Sm281 2.386 1_554 S
O302 C289 1.271 . S
O303 Sm280 2.464 . S
O303 C289 1.251 . S
O304 Sm280 2.396 . S
O304 C290 1.252 . S
O305 Sm281 2.408 1_554 S
O305 C290 1.272 . S
O306 Sm281 2.543 . S
O306 C291 1.261 . S
O307 Sm281 2.450 . S
O307 C291 1.242 . S
O308 Sm280 2.386 . S
O308 Sm281 2.681 1_554 S
O308 C298 1.271 . S
O309 Sm281 2.464 1_554 S
O309 C298 1.251 . S
O310 Sm281 2.396 . S
O310 C299 1.252 . S
O311 Sm280 2.408 1_556 S
O311 C299 1.272 . S
H312 C284 0.930 . S
H313 C285 0.929 . S
H314 C287 0.930 . S
H315 C288 0.929 . S
H316 C293 0.930 . S
H317 C294 0.929 . S
H318 C296 0.930 . S
H319 C297 0.929 . S
Sm320 C322 2.846 . S
Sm320 O340 2.543 . S
Sm320 O341 2.450 . S
Sm320 O342 2.681 . S
Sm320 O343 2.464 . S
Sm320 O344 2.396 . S
Sm320 O348 2.386 . S
Sm320 O351 2.408 1_554 S
Sm321 C331 2.846 . S
Sm321 O342 2.386 1_556 S
Sm321 O345 2.408 1_556 S
Sm321 O346 2.543 . S
Sm321 O347 2.450 . S
Sm321 O348 2.681 1_556 S
Sm321 O349 2.464 1_556 S
Sm321 O350 2.396 . S
C322 Sm320 2.846 . S
C322 C323 1.506 . S
C322 O340 1.261 . S
C322 O341 1.242 . S
C323 C322 1.506 . S
C323 C324 1.358 . S
C323 C328 1.382 . S
C324 C323 1.358 . S
C324 C325 1.385 . S
C324 H352 0.930 . S
C325 C324 1.385 . S
C325 C326 1.395 . S
C325 H353 0.929 . S
C326 C325 1.395 . S
C326 C327 1.335 1_545 S
C327 C326 1.335 1_565 S
C327 C328 1.398 1_565 S
C327 H354 0.930 . S
C328 C323 1.382 . S
C328 C327 1.398 1_545 S
C328 H355 0.929 1_545 S
C329 O342 1.271 . S
C329 O343 1.251 . S
C330 O344 1.252 . S
C330 O345 1.272 . S
C331 Sm321 2.846 . S
C331 C332 1.506 . S
C331 O346 1.261 . S
C331 O347 1.242 . S
C332 C331 1.506 . S
C332 C333 1.358 . S
C332 C337 1.382 . S
C333 C332 1.358 . S
C333 C334 1.385 . S
C333 H356 0.930 . S
C334 C333 1.385 . S
C334 C335 1.395 . S
C334 H357 0.929 . S
C335 C334 1.395 . S
C335 C336 1.335 . S
C336 C335 1.335 . S
C336 C337 1.398 . S
C336 H358 0.930 . S
C337 C332 1.382 . S
C337 C336 1.398 . S
C337 H359 0.929 . S
C338 O348 1.271 . S
C338 O349 1.251 . S
C339 O350 1.252 . S
C339 O351 1.272 . S
O340 Sm320 2.543 . S
O340 C322 1.261 . S
O341 Sm320 2.450 . S
O341 C322 1.242 . S
O342 Sm320 2.681 . S
O342 Sm321 2.386 1_554 S
O342 C329 1.271 . S
O343 Sm320 2.464 . S
O343 C329 1.251 . S
O344 Sm320 2.396 . S
O344 C330 1.252 . S
O345 Sm321 2.408 1_554 S
O345 C330 1.272 . S
O346 Sm321 2.543 . S
O346 C331 1.261 . S
O347 Sm321 2.450 . S
O347 C331 1.242 . S
O348 Sm320 2.386 . S
O348 Sm321 2.681 1_554 S
O348 C338 1.271 . S
O349 Sm321 2.464 1_554 S
O349 C338 1.251 . S
O350 Sm321 2.396 . S
O350 C339 1.252 . S
O351 Sm320 2.408 1_556 S
O351 C339 1.272 . S
H352 C324 0.930 . S
H353 C325 0.929 . S
H354 C327 0.930 . S
H355 C328 0.929 1_565 S
H356 C333 0.930 . S
H357 C334 0.929 . S
H358 C336 0.930 . S
H359 C337 0.929 . S
Sm360 C362 2.846 . S
Sm360 O380 2.543 . S
Sm360 O381 2.450 . S
Sm360 O382 2.681 . S
Sm360 O383 2.464 . S
Sm360 O384 2.396 . S
Sm360 O388 2.386 . S
Sm360 O391 2.408 . S
Sm361 C371 2.846 . S
Sm361 O382 2.386 . S
Sm361 O385 2.408 . S
Sm361 O386 2.543 . S
Sm361 O387 2.450 . S
Sm361 O388 2.681 . S
Sm361 O389 2.464 . S
Sm361 O390 2.396 . S
C362 Sm360 2.846 . S
C362 C363 1.506 . S
C362 O380 1.261 . S
C362 O381 1.242 . S
C363 C362 1.506 . S
C363 C364 1.358 . S
C363 C368 1.386 . S
C364 C363 1.358 . S
C364 C365 1.385 . S
C364 H392 0.930 . S
C365 C364 1.385 . S
C365 C366 1.395 . S
C365 H393 0.929 . S
C366 C365 1.395 . S
C366 C367 1.335 1_565 S
C367 C366 1.335 1_545 S
C367 C368 1.398 1_545 S
C367 H394 0.930 . S
C368 C363 1.386 . S
C368 C367 1.398 1_565 S
C368 H395 0.925 1_565 S
C369 O382 1.271 . S
C369 O383 1.251 . S
C370 O384 1.252 . S
C370 O385 1.272 . S
C371 Sm361 2.846 . S
C371 C372 1.506 . S
C371 O386 1.261 . S
C371 O387 1.242 . S
C372 C371 1.506 . S
C372 C373 1.358 . S
C372 C377 1.382 . S
C373 C372 1.358 . S
C373 C374 1.385 . S
C373 H396 0.930 . S
C374 C373 1.385 . S
C374 C375 1.395 . S
C374 H397 0.929 . S
C375 C374 1.395 . S
C375 C376 1.335 . S
C376 C375 1.335 . S
C376 C377 1.398 . S
C376 H398 0.930 . S
C377 C372 1.382 . S
C377 C376 1.398 . S
C377 H399 0.929 . S
C378 O388 1.271 . S
C378 O389 1.251 . S
C379 O390 1.252 . S
C379 O391 1.272 . S
O380 Sm360 2.543 . S
O380 C362 1.261 . S
O381 Sm360 2.450 . S
O381 C362 1.242 . S
O382 Sm360 2.681 . S
O382 Sm361 2.386 . S
O382 C369 1.271 . S
O383 Sm360 2.464 . S
O383 C369 1.251 . S
O384 Sm360 2.396 . S
O384 C370 1.252 . S
O385 Sm361 2.408 . S
O385 C370 1.272 . S
O386 Sm361 2.543 . S
O386 C371 1.261 . S
O387 Sm361 2.450 . S
O387 C371 1.242 . S
O388 Sm360 2.386 . S
O388 Sm361 2.681 . S
O388 C378 1.271 . S
O389 Sm361 2.464 . S
O389 C378 1.251 . S
O390 Sm361 2.396 . S
O390 C379 1.252 . S
O391 Sm360 2.408 . S
O391 C379 1.272 . S
H392 C364 0.930 . S
H393 C365 0.929 . S
H394 C367 0.930 . S
H395 C368 0.925 1_545 S
H396 C373 0.930 . S
H397 C374 0.929 . S
H398 C376 0.930 . S
H399 C377 0.929 . S
Sm400 C402 2.846 . S
Sm400 O420 2.543 . S
Sm400 O421 2.450 . S
Sm400 O422 2.681 . S
Sm400 O423 2.464 . S
Sm400 O424 2.396 . S
Sm400 O428 2.386 . S
Sm400 O431 2.408 . S
Sm401 C411 2.846 . S
Sm401 O422 2.386 . S
Sm401 O425 2.408 . S
Sm401 O426 2.543 . S
Sm401 O427 2.450 . S
Sm401 O428 2.681 . S
Sm401 O429 2.464 . S
Sm401 O430 2.396 . S
C402 Sm400 2.846 . S
C402 C403 1.506 . S
C402 O420 1.261 . S
C402 O421 1.242 . S
C403 C402 1.506 . S
C403 C404 1.358 . S
C403 C408 1.384 . S
C404 C403 1.358 . S
C404 C405 1.385 . S
C404 H432 0.930 . S
C405 C404 1.385 . S
C405 C406 1.395 . S
C405 H433 0.929 . S
C406 C405 1.395 . S
C406 C407 1.335 1_455 S
C407 C406 1.335 1_655 S
C407 C408 1.397 1_655 S
C407 H434 0.930 . S
C408 C403 1.384 . S
C408 C407 1.397 1_455 S
C408 H435 0.928 1_455 S
C409 O422 1.271 . S
C409 O423 1.251 . S
C410 O424 1.252 . S
C410 O425 1.272 . S
C411 Sm401 2.846 . S
C411 C412 1.506 . S
C411 O426 1.261 . S
C411 O427 1.242 . S
C412 C411 1.506 . S
C412 C413 1.358 . S
C412 C417 1.382 . S
C413 C412 1.358 . S
C413 C414 1.385 . S
C413 H436 0.930 . S
C414 C413 1.385 . S
C414 C415 1.395 . S
C414 H437 0.929 . S
C415 C414 1.395 . S
C415 C416 1.335 . S
C416 C415 1.335 . S
C416 C417 1.398 . S
C416 H438 0.930 . S
C417 C412 1.382 . S
C417 C416 1.398 . S
C417 H439 0.929 . S
C418 O428 1.271 . S
C418 O429 1.251 . S
C419 O430 1.252 . S
C419 O431 1.272 . S
O420 Sm400 2.543 . S
O420 C402 1.261 . S
O421 Sm400 2.450 . S
O421 C402 1.242 . S
O422 Sm400 2.681 . S
O422 Sm401 2.386 . S
O422 C409 1.271 . S
O423 Sm400 2.464 . S
O423 C409 1.251 . S
O424 Sm400 2.396 . S
O424 C410 1.252 . S
O425 Sm401 2.408 . S
O425 C410 1.272 . S
O426 Sm401 2.543 . S
O426 C411 1.261 . S
O427 Sm401 2.450 . S
O427 C411 1.242 . S
O428 Sm400 2.386 . S
O428 Sm401 2.681 . S
O428 C418 1.271 . S
O429 Sm401 2.464 . S
O429 C418 1.251 . S
O430 Sm401 2.396 . S
O430 C419 1.252 . S
O431 Sm400 2.408 . S
O431 C419 1.272 . S
H432 C404 0.930 . S
H433 C405 0.929 . S
H434 C407 0.930 . S
H435 C408 0.928 1_655 S
H436 C413 0.930 . S
H437 C414 0.929 . S
H438 C416 0.930 . S
H439 C417 0.929 . S
Sm440 C442 2.846 . S
Sm440 O460 2.543 . S
Sm440 O461 2.450 . S
Sm440 O462 2.681 . S
Sm440 O463 2.464 . S
Sm440 O464 2.396 . S
Sm440 O468 2.386 . S
Sm440 O471 2.408 . S
Sm441 C451 2.846 . S
Sm441 O462 2.386 . S
Sm441 O465 2.408 . S
Sm441 O466 2.543 . S
Sm441 O467 2.450 . S
Sm441 O468 2.681 . S
Sm441 O469 2.464 . S
Sm441 O470 2.396 . S
C442 Sm440 2.846 . S
C442 C443 1.506 . S
C442 O460 1.261 . S
C442 O461 1.242 . S
C443 C442 1.506 . S
C443 C444 1.358 . S
C443 C448 1.382 . S
C444 C443 1.358 . S
C444 C445 1.385 . S
C444 H472 0.930 . S
C445 C444 1.385 . S
C445 C446 1.395 . S
C445 H473 0.929 . S
C446 C445 1.395 . S
C446 C447 1.335 . S
C447 C446 1.335 . S
C447 C448 1.398 . S
C447 H474 0.930 . S
C448 C443 1.382 . S
C448 C447 1.398 . S
C448 H475 0.929 . S
C449 O462 1.271 . S
C449 O463 1.251 . S
C450 O464 1.252 . S
C450 O465 1.272 . S
C451 Sm441 2.846 . S
C451 C452 1.506 . S
C451 O466 1.261 . S
C451 O467 1.242 . S
C452 C451 1.506 . S
C452 C453 1.358 . S
C452 C457 1.382 . S
C453 C452 1.358 . S
C453 C454 1.385 . S
C453 H476 0.930 . S
C454 C453 1.385 . S
C454 C455 1.395 . S
C454 H477 0.929 . S
C455 C454 1.395 . S
C455 C456 1.335 . S
C456 C455 1.335 . S
C456 C457 1.398 . S
C456 H478 0.930 . S
C457 C452 1.382 . S
C457 C456 1.398 . S
C457 H479 0.929 . S
C458 O468 1.271 . S
C458 O469 1.251 . S
C459 O470 1.252 . S
C459 O471 1.272 . S
O460 Sm440 2.543 . S
O460 C442 1.261 . S
O461 Sm440 2.450 . S
O461 C442 1.242 . S
O462 Sm440 2.681 . S
O462 Sm441 2.386 . S
O462 C449 1.271 . S
O463 Sm440 2.464 . S
O463 C449 1.251 . S
O464 Sm440 2.396 . S
O464 C450 1.252 . S
O465 Sm441 2.408 . S
O465 C450 1.272 . S
O466 Sm441 2.543 . S
O466 C451 1.261 . S
O467 Sm441 2.450 . S
O467 C451 1.242 . S
O468 Sm440 2.386 . S
O468 Sm441 2.681 . S
O468 C458 1.271 . S
O469 Sm441 2.464 . S
O469 C458 1.251 . S
O470 Sm441 2.396 . S
O470 C459 1.252 . S
O471 Sm440 2.408 . S
O471 C459 1.272 . S
H472 C444 0.930 . S
H473 C445 0.929 . S
H474 C447 0.930 . S
H475 C448 0.929 . S
H476 C453 0.930 . S
H477 C454 0.929 . S
H478 C456 0.930 . S
H479 C457 0.929 . S
Sm480 C482 2.846 . S
Sm480 O500 2.543 . S
Sm480 O501 2.450 . S
Sm480 O502 2.681 . S
Sm480 O503 2.464 . S
Sm480 O504 2.396 . S
Sm480 O508 2.386 . S
Sm480 O511 2.408 . S
Sm481 C491 2.846 . S
Sm481 O502 2.386 . S
Sm481 O505 2.408 . S
Sm481 O506 2.543 . S
Sm481 O507 2.450 . S
Sm481 O508 2.681 . S
Sm481 O509 2.464 . S
Sm481 O510 2.396 . S
C482 Sm480 2.846 . S
C482 C483 1.506 . S
C482 O500 1.261 . S
C482 O501 1.242 . S
C483 C482 1.506 . S
C483 C484 1.358 . S
C483 C488 1.382 . S
C484 C483 1.358 . S
C484 C485 1.385 . S
C484 H512 0.930 . S
C485 C484 1.385 . S
C485 C486 1.395 . S
C485 H513 0.929 . S
C486 C485 1.395 . S
C486 C487 1.335 . S
C487 C486 1.335 . S
C487 C488 1.398 . S
C487 H514 0.930 . S
C488 C483 1.382 . S
C488 C487 1.398 . S
C488 H515 0.929 . S
C489 O502 1.271 . S
C489 O503 1.251 . S
C490 O504 1.252 . S
C490 O505 1.272 . S
C491 Sm481 2.846 . S
C491 C492 1.506 . S
C491 O506 1.261 . S
C491 O507 1.242 . S
C492 C491 1.506 . S
C492 C493 1.358 . S
C492 C497 1.382 . S
C493 C492 1.358 . S
C493 C494 1.385 . S
C493 H516 0.930 . S
C494 C493 1.385 . S
C494 C495 1.395 . S
C494 H517 0.929 . S
C495 C494 1.395 . S
C495 C496 1.335 . S
C496 C495 1.335 . S
C496 C497 1.398 . S
C496 H518 0.930 . S
C497 C492 1.382 . S
C497 C496 1.398 . S
C497 H519 0.929 . S
C498 O508 1.271 . S
C498 O509 1.251 . S
C499 O510 1.252 . S
C499 O511 1.272 . S
O500 Sm480 2.543 . S
O500 C482 1.261 . S
O501 Sm480 2.450 . S
O501 C482 1.242 . S
O502 Sm480 2.681 . S
O502 Sm481 2.386 . S
O502 C489 1.271 . S
O503 Sm480 2.464 . S
O503 C489 1.251 . S
O504 Sm480 2.396 . S
O504 C490 1.252 . S
O505 Sm481 2.408 . S
O505 C490 1.272 . S
O506 Sm481 2.543 . S
O506 C491 1.261 . S
O507 Sm481 2.450 . S
O507 C491 1.242 . S
O508 Sm480 2.386 . S
O508 Sm481 2.681 . S
O508 C498 1.271 . S
O509 Sm481 2.464 . S
O509 C498 1.251 . S
O510 Sm481 2.396 . S
O510 C499 1.252 . S
O511 Sm480 2.408 . S
O511 C499 1.272 . S
H512 C484 0.930 . S
H513 C485 0.929 . S
H514 C487 0.930 . S
H515 C488 0.929 . S
H516 C493 0.930 . S
H517 C494 0.929 . S
H518 C496 0.930 . S
H519 C497 0.929 . S
Sm520 C522 2.846 . S
Sm520 O540 2.543 . S
Sm520 O541 2.450 . S
Sm520 O542 2.681 . S
Sm520 O543 2.464 . S
Sm520 O544 2.396 . S
Sm520 O548 2.386 . S
Sm520 O551 2.408 . S
Sm521 C531 2.846 . S
Sm521 O542 2.386 . S
Sm521 O545 2.408 . S
Sm521 O546 2.543 . S
Sm521 O547 2.450 . S
Sm521 O548 2.681 . S
Sm521 O549 2.464 . S
Sm521 O550 2.396 . S
C522 Sm520 2.846 . S
C522 C523 1.506 . S
C522 O540 1.261 . S
C522 O541 1.242 . S
C523 C522 1.506 . S
C523 C524 1.358 . S
C523 C528 1.382 . S
C524 C523 1.358 . S
C524 C525 1.385 . S
C524 H552 0.930 . S
C525 C524 1.385 . S
C525 C526 1.395 . S
C525 H553 0.929 . S
C526 C525 1.395 . S
C526 C527 1.335 . S
C527 C526 1.335 . S
C527 C528 1.398 . S
C527 H554 0.930 . S
C528 C523 1.382 . S
C528 C527 1.398 . S
C528 H555 0.929 . S
C529 O542 1.271 . S
C529 O543 1.251 . S
C530 O544 1.252 . S
C530 O545 1.272 . S
C531 Sm521 2.846 . S
C531 C532 1.506 . S
C531 O546 1.261 . S
C531 O547 1.242 . S
C532 C531 1.506 . S
C532 C533 1.358 . S
C532 C537 1.382 . S
C533 C532 1.358 . S
C533 C534 1.385 . S
C533 H556 0.930 . S
C534 C533 1.385 . S
C534 C535 1.395 . S
C534 H557 0.929 . S
C535 C534 1.395 . S
C535 C536 1.335 . S
C536 C535 1.335 . S
C536 C537 1.398 . S
C536 H558 0.930 . S
C537 C532 1.382 . S
C537 C536 1.398 . S
C537 H559 0.929 . S
C538 O548 1.271 . S
C538 O549 1.251 . S
C539 O550 1.252 . S
C539 O551 1.272 . S
O540 Sm520 2.543 . S
O540 C522 1.261 . S
O541 Sm520 2.450 . S
O541 C522 1.242 . S
O542 Sm520 2.681 . S
O542 Sm521 2.386 . S
O542 C529 1.271 . S
O543 Sm520 2.464 . S
O543 C529 1.251 . S
O544 Sm520 2.396 . S
O544 C530 1.252 . S
O545 Sm521 2.408 . S
O545 C530 1.272 . S
O546 Sm521 2.543 . S
O546 C531 1.261 . S
O547 Sm521 2.450 . S
O547 C531 1.242 . S
O548 Sm520 2.386 . S
O548 Sm521 2.681 . S
O548 C538 1.271 . S
O549 Sm521 2.464 . S
O549 C538 1.251 . S
O550 Sm521 2.396 . S
O550 C539 1.252 . S
O551 Sm520 2.408 . S
O551 C539 1.272 . S
H552 C524 0.930 . S
H553 C525 0.929 . S
H554 C527 0.930 . S
H555 C528 0.929 . S
H556 C533 0.930 . S
H557 C534 0.929 . S
H558 C536 0.930 . S
H559 C537 0.929 . S
Sm560 C562 2.846 . S
Sm560 O580 2.543 . S
Sm560 O581 2.450 . S
Sm560 O582 2.681 . S
Sm560 O583 2.464 . S
Sm560 O584 2.396 . S
Sm560 O588 2.386 . S
Sm560 O591 2.408 . S
Sm561 C571 2.846 . S
Sm561 O582 2.386 . S
Sm561 O585 2.408 . S
Sm561 O586 2.543 . S
Sm561 O587 2.450 . S
Sm561 O588 2.681 . S
Sm561 O589 2.464 . S
Sm561 O590 2.396 . S
C562 Sm560 2.846 . S
C562 C563 1.506 . S
C562 O580 1.261 . S
C562 O581 1.242 . S
C563 C562 1.506 . S
C563 C564 1.358 . S
C563 C568 1.382 . S
C564 C563 1.358 . S
C564 C565 1.385 . S
C564 H592 0.930 . S
C565 C564 1.385 . S
C565 C566 1.395 . S
C565 H593 0.929 . S
C566 C565 1.395 . S
C566 C567 1.335 . S
C567 C566 1.335 . S
C567 C568 1.398 . S
C567 H594 0.930 . S
C568 C563 1.382 . S
C568 C567 1.398 . S
C568 H595 0.929 . S
C569 O582 1.271 . S
C569 O583 1.251 . S
C570 O584 1.252 . S
C570 O585 1.272 . S
C571 Sm561 2.846 . S
C571 C572 1.506 . S
C571 O586 1.261 . S
C571 O587 1.242 . S
C572 C571 1.506 . S
C572 C573 1.358 . S
C572 C577 1.382 . S
C573 C572 1.358 . S
C573 C574 1.385 . S
C573 H596 0.930 . S
C574 C573 1.385 . S
C574 C575 1.395 . S
C574 H597 0.929 . S
C575 C574 1.395 . S
C575 C576 1.335 . S
C576 C575 1.335 . S
C576 C577 1.398 . S
C576 H598 0.930 . S
C577 C572 1.382 . S
C577 C576 1.398 . S
C577 H599 0.929 . S
C578 O588 1.271 . S
C578 O589 1.251 . S
C579 O590 1.252 . S
C579 O591 1.272 . S
O580 Sm560 2.543 . S
O580 C562 1.261 . S
O581 Sm560 2.450 . S
O581 C562 1.242 . S
O582 Sm560 2.681 . S
O582 Sm561 2.386 . S
O582 C569 1.271 . S
O583 Sm560 2.464 . S
O583 C569 1.251 . S
O584 Sm560 2.396 . S
O584 C570 1.252 . S
O585 Sm561 2.408 . S
O585 C570 1.272 . S
O586 Sm561 2.543 . S
O586 C571 1.261 . S
O587 Sm561 2.450 . S
O587 C571 1.242 . S
O588 Sm560 2.386 . S
O588 Sm561 2.681 . S
O588 C578 1.271 . S
O589 Sm561 2.464 . S
O589 C578 1.251 . S
O590 Sm561 2.396 . S
O590 C579 1.252 . S
O591 Sm560 2.408 . S
O591 C579 1.272 . S
H592 C564 0.930 . S
H593 C565 0.929 . S
H594 C567 0.930 . S
H595 C568 0.929 . S
H596 C573 0.930 . S
H597 C574 0.929 . S
H598 C576 0.930 . S
H599 C577 0.929 . S
Sm600 C602 2.846 . S
Sm600 O620 2.543 . S
Sm600 O621 2.450 . S
Sm600 O622 2.681 . S
Sm600 O623 2.464 . S
Sm600 O624 2.396 . S
Sm600 O628 2.386 . S
Sm600 O631 2.408 . S
Sm601 C611 2.846 . S
Sm601 O622 2.386 . S
Sm601 O625 2.408 . S
Sm601 O626 2.543 . S
Sm601 O627 2.450 . S
Sm601 O628 2.681 . S
Sm601 O629 2.464 . S
Sm601 O630 2.396 . S
C602 Sm600 2.846 . S
C602 C603 1.506 . S
C602 O620 1.261 . S
C602 O621 1.242 . S
C603 C602 1.506 . S
C603 C604 1.358 . S
C603 C608 1.382 . S
C604 C603 1.358 . S
C604 C605 1.385 . S
C604 H632 0.930 . S
C605 C604 1.385 . S
C605 C606 1.395 . S
C605 H633 0.929 . S
C606 C605 1.395 . S
C606 C607 1.335 . S
C607 C606 1.335 . S
C607 C608 1.398 . S
C607 H634 0.930 . S
C608 C603 1.382 . S
C608 C607 1.398 . S
C608 H635 0.929 . S
C609 O622 1.271 . S
C609 O623 1.251 . S
C610 O624 1.252 . S
C610 O625 1.272 . S
C611 Sm601 2.846 . S
C611 C612 1.506 1_556 S
C611 O626 1.261 . S
C611 O627 1.242 . S
C612 C611 1.506 1_554 S
C612 C613 1.358 . S
C612 C617 1.382 . S
C613 C612 1.358 . S
C613 C614 1.385 . S
C613 H636 0.930 . S
C614 C613 1.385 . S
C614 C615 1.395 . S
C614 H637 0.929 . S
C615 C614 1.395 . S
C615 C616 1.335 . S
C616 C615 1.335 . S
C616 C617 1.398 . S
C616 H638 0.930 . S
C617 C612 1.382 . S
C617 C616 1.398 . S
C617 H639 0.929 . S
C618 O628 1.271 . S
C618 O629 1.251 . S
C619 O630 1.252 . S
C619 O631 1.272 . S
O620 Sm600 2.543 . S
O620 C602 1.261 . S
O621 Sm600 2.450 . S
O621 C602 1.242 . S
O622 Sm600 2.681 . S
O622 Sm601 2.386 . S
O622 C609 1.271 . S
O623 Sm600 2.464 . S
O623 C609 1.251 . S
O624 Sm600 2.396 . S
O624 C610 1.252 . S
O625 Sm601 2.408 . S
O625 C610 1.272 . S
O626 Sm601 2.543 . S
O626 C611 1.261 . S
O627 Sm601 2.450 . S
O627 C611 1.242 . S
O628 Sm600 2.386 . S
O628 Sm601 2.681 . S
O628 C618 1.271 . S
O629 Sm601 2.464 . S
O629 C618 1.251 . S
O630 Sm601 2.396 . S
O630 C619 1.252 . S
O631 Sm600 2.408 . S
O631 C619 1.272 . S
H632 C604 0.930 . S
H633 C605 0.929 . S
H634 C607 0.930 . S
H635 C608 0.929 . S
H636 C613 0.930 . S
H637 C614 0.929 . S
H638 C616 0.930 . S
H639 C617 0.929 . S
Sm640 C642 2.846 . S
Sm640 O660 2.543 . S
Sm640 O661 2.450 . S
Sm640 O662 2.681 . S
Sm640 O663 2.464 . S
Sm640 O664 2.396 . S
Sm640 O668 2.386 . S
Sm640 O671 2.408 . S
Sm641 C651 2.846 . S
Sm641 O662 2.386 . S
Sm641 O665 2.408 . S
Sm641 O666 2.543 . S
Sm641 O667 2.450 . S
Sm641 O668 2.681 . S
Sm641 O669 2.464 . S
Sm641 O670 2.396 . S
C642 Sm640 2.846 . S
C642 C643 1.506 . S
C642 O660 1.261 . S
C642 O661 1.242 . S
C643 C642 1.506 . S
C643 C644 1.358 . S
C643 C648 1.382 . S
C644 C643 1.358 . S
C644 C645 1.385 . S
C644 H672 0.930 . S
C645 C644 1.385 . S
C645 C646 1.395 . S
C645 H673 0.929 . S
C646 C645 1.395 . S
C646 C647 1.335 . S
C647 C646 1.335 . S
C647 C648 1.398 . S
C647 H674 0.930 . S
C648 C643 1.382 . S
C648 C647 1.398 . S
C648 H675 0.929 . S
C649 O662 1.271 . S
C649 O663 1.251 . S
C650 O664 1.252 . S
C650 O665 1.272 . S
C651 Sm641 2.846 . S
C651 C652 1.506 1_556 S
C651 O666 1.261 . S
C651 O667 1.242 . S
C652 C651 1.506 1_554 S
C652 C653 1.358 . S
C652 C657 1.382 . S
C653 C652 1.358 . S
C653 C654 1.385 . S
C653 H676 0.930 . S
C654 C653 1.385 . S
C654 C655 1.395 . S
C654 H677 0.929 . S
C655 C654 1.395 . S
C655 C656 1.335 . S
C656 C655 1.335 . S
C656 C657 1.398 . S
C656 H678 0.930 . S
C657 C652 1.382 . S
C657 C656 1.398 . S
C657 H679 0.929 . S
C658 O668 1.271 . S
C658 O669 1.251 . S
C659 O670 1.252 . S
C659 O671 1.272 . S
O660 Sm640 2.543 . S
O660 C642 1.261 . S
O661 Sm640 2.450 . S
O661 C642 1.242 . S
O662 Sm640 2.681 . S
O662 Sm641 2.386 . S
O662 C649 1.271 . S
O663 Sm640 2.464 . S
O663 C649 1.251 . S
O664 Sm640 2.396 . S
O664 C650 1.252 . S
O665 Sm641 2.408 . S
O665 C650 1.272 . S
O666 Sm641 2.543 . S
O666 C651 1.261 . S
O667 Sm641 2.450 . S
O667 C651 1.242 . S
O668 Sm640 2.386 . S
O668 Sm641 2.681 . S
O668 C658 1.271 . S
O669 Sm641 2.464 . S
O669 C658 1.251 . S
O670 Sm641 2.396 . S
O670 C659 1.252 . S
O671 Sm640 2.408 . S
O671 C659 1.272 . S
H672 C644 0.930 . S
H673 C645 0.929 . S
H674 C647 0.930 . S
H675 C648 0.929 . S
H676 C653 0.930 . S
H677 C654 0.929 . S
H678 C656 0.930 . S
H679 C657 0.929 . S
Sm680 C682 2.846 . S
Sm680 O700 2.543 . S
Sm680 O701 2.450 . S
Sm680 O702 2.681 . S
Sm680 O703 2.464 . S
Sm680 O704 2.396 . S
Sm680 O708 2.386 . S
Sm680 O711 2.408 . S
Sm681 C691 2.846 . S
Sm681 O702 2.386 . S
Sm681 O705 2.408 . S
Sm681 O706 2.543 . S
Sm681 O707 2.450 . S
Sm681 O708 2.681 . S
Sm681 O709 2.464 . S
Sm681 O710 2.396 . S
C682 Sm680 2.846 . S
C682 C683 1.506 . S
C682 O700 1.261 . S
C682 O701 1.242 . S
C683 C682 1.506 . S
C683 C684 1.358 . S
C683 C688 1.382 . S
C684 C683 1.358 . S
C684 C685 1.385 . S
C684 H712 0.930 . S
C685 C684 1.385 . S
C685 C686 1.395 . S
C685 H713 0.929 . S
C686 C685 1.395 . S
C686 C687 1.335 . S
C687 C686 1.335 . S
C687 C688 1.398 . S
C687 H714 0.930 . S
C688 C683 1.382 . S
C688 C687 1.398 . S
C688 H715 0.929 . S
C689 O702 1.271 . S
C689 O703 1.251 . S
C690 O704 1.252 . S
C690 O705 1.272 . S
C691 Sm681 2.846 . S
C691 C692 1.506 1_556 S
C691 O706 1.261 . S
C691 O707 1.242 . S
C692 C691 1.506 1_554 S
C692 C693 1.358 . S
C692 C697 1.382 . S
C693 C692 1.358 . S
C693 C694 1.385 . S
C693 H716 0.930 . S
C694 C693 1.385 . S
C694 C695 1.395 . S
C694 H717 0.929 . S
C695 C694 1.395 . S
C695 C696 1.335 . S
C696 C695 1.335 . S
C696 C697 1.398 . S
C696 H718 0.930 . S
C697 C692 1.382 . S
C697 C696 1.398 . S
C697 H719 0.929 . S
C698 O708 1.271 . S
C698 O709 1.251 . S
C699 O710 1.252 . S
C699 O711 1.272 . S
O700 Sm680 2.543 . S
O700 C682 1.261 . S
O701 Sm680 2.450 . S
O701 C682 1.242 . S
O702 Sm680 2.681 . S
O702 Sm681 2.386 . S
O702 C689 1.271 . S
O703 Sm680 2.464 . S
O703 C689 1.251 . S
O704 Sm680 2.396 . S
O704 C690 1.252 . S
O705 Sm681 2.408 . S
O705 C690 1.272 . S
O706 Sm681 2.543 . S
O706 C691 1.261 . S
O707 Sm681 2.450 . S
O707 C691 1.242 . S
O708 Sm680 2.386 . S
O708 Sm681 2.681 . S
O708 C698 1.271 . S
O709 Sm681 2.464 . S
O709 C698 1.251 . S
O710 Sm681 2.396 . S
O710 C699 1.252 . S
O711 Sm680 2.408 . S
O711 C699 1.272 . S
H712 C684 0.930 . S
H713 C685 0.929 . S
H714 C687 0.930 . S
H715 C688 0.929 . S
H716 C693 0.930 . S
H717 C694 0.929 . S
H718 C696 0.930 . S
H719 C697 0.929 . S
Sm720 C722 2.846 . S
Sm720 O740 2.543 . S
Sm720 O741 2.450 . S
Sm720 O742 2.681 . S
Sm720 O743 2.464 . S
Sm720 O744 2.396 . S
Sm720 O748 2.386 . S
Sm720 O751 2.408 . S
Sm721 C731 2.846 . S
Sm721 O742 2.386 . S
Sm721 O745 2.408 . S
Sm721 O746 2.543 . S
Sm721 O747 2.450 . S
Sm721 O748 2.681 . S
Sm721 O749 2.464 . S
Sm721 O750 2.396 . S
C722 Sm720 2.846 . S
C722 C723 1.506 . S
C722 O740 1.261 . S
C722 O741 1.242 . S
C723 C722 1.506 . S
C723 C724 1.358 . S
C723 C728 1.382 . S
C724 C723 1.358 . S
C724 C725 1.385 . S
C724 H752 0.930 . S
C725 C724 1.385 . S
C725 C726 1.395 . S
C725 H753 0.929 . S
C726 C725 1.395 . S
C726 C727 1.335 . S
C727 C726 1.335 . S
C727 C728 1.398 . S
C727 H754 0.930 . S
C728 C723 1.382 . S
C728 C727 1.398 . S
C728 H755 0.929 . S
C729 O742 1.271 . S
C729 O743 1.251 . S
C730 O744 1.252 . S
C730 O745 1.272 . S
C731 Sm721 2.846 . S
C731 C732 1.506 . S
C731 O746 1.261 . S
C731 O747 1.242 . S
C732 C731 1.506 . S
C732 C733 1.358 . S
C732 C737 1.382 . S
C733 C732 1.358 . S
C733 C734 1.385 . S
C733 H756 0.930 . S
C734 C733 1.385 . S
C734 C735 1.395 . S
C734 H757 0.929 . S
C735 C734 1.395 . S
C735 C736 1.335 . S
C736 C735 1.335 . S
C736 C737 1.398 . S
C736 H758 0.930 . S
C737 C732 1.382 . S
C737 C736 1.398 . S
C737 H759 0.929 . S
C738 O748 1.271 . S
C738 O749 1.251 . S
C739 O750 1.252 . S
C739 O751 1.272 . S
O740 Sm720 2.543 . S
O740 C722 1.261 . S
O741 Sm720 2.450 . S
O741 C722 1.242 . S
O742 Sm720 2.681 . S
O742 Sm721 2.386 . S
O742 C729 1.271 . S
O743 Sm720 2.464 . S
O743 C729 1.251 . S
O744 Sm720 2.396 . S
O744 C730 1.252 . S
O745 Sm721 2.408 . S
O745 C730 1.272 . S
O746 Sm721 2.543 . S
O746 C731 1.261 . S
O747 Sm721 2.450 . S
O747 C731 1.242 . S
O748 Sm720 2.386 . S
O748 Sm721 2.681 . S
O748 C738 1.271 . S
O749 Sm721 2.464 . S
O749 C738 1.251 . S
O750 Sm721 2.396 . S
O750 C739 1.252 . S
O751 Sm720 2.408 . S
O751 C739 1.272 . S
H752 C724 0.930 . S
H753 C725 0.929 . S
H754 C727 0.930 . S
H755 C728 0.929 . S
H756 C733 0.930 . S
H757 C734 0.929 . S
H758 C736 0.930 . S
H759 C737 0.929 . S
Sm760 C762 2.846 . S
Sm760 O780 2.543 . S
Sm760 O781 2.450 . S
Sm760 O782 2.681 . S
Sm760 O783 2.464 . S
Sm760 O784 2.396 . S
Sm760 O788 2.386 . S
Sm760 O791 2.408 . S
Sm761 C771 2.846 . S
Sm761 O782 2.386 . S
Sm761 O785 2.408 . S
Sm761 O786 2.543 . S
Sm761 O787 2.450 . S
Sm761 O788 2.681 . S
Sm761 O789 2.464 . S
Sm761 O790 2.396 . S
C762 Sm760 2.846 . S
C762 C763 1.506 . S
C762 O780 1.261 . S
C762 O781 1.242 . S
C763 C762 1.506 . S
C763 C764 1.358 . S
C763 C768 1.382 . S
C764 C763 1.358 . S
C764 C765 1.385 . S
C764 H792 0.930 . S
C765 C764 1.385 . S
C765 C766 1.395 . S
C765 H793 0.929 . S
C766 C765 1.395 . S
C766 C767 1.335 . S
C767 C766 1.335 . S
C767 C768 1.398 . S
C767 H794 0.930 . S
C768 C763 1.382 . S
C768 C767 1.398 . S
C768 H795 0.929 . S
C769 O782 1.271 . S
C769 O783 1.251 . S
C770 O784 1.252 . S
C770 O785 1.272 . S
C771 Sm761 2.846 . S
C771 C772 1.506 . S
C771 O786 1.261 . S
C771 O787 1.242 . S
C772 C771 1.506 . S
C772 C773 1.358 . S
C772 C777 1.382 . S
C773 C772 1.358 . S
C773 C774 1.385 . S
C773 H796 0.930 . S
C774 C773 1.385 . S
C774 C775 1.395 . S
C774 H797 0.929 . S
C775 C774 1.395 . S
C775 C776 1.335 . S
C776 C775 1.335 . S
C776 C777 1.398 . S
C776 H798 0.930 . S
C777 C772 1.382 . S
C777 C776 1.398 . S
C777 H799 0.929 . S
C778 O788 1.271 . S
C778 O789 1.251 . S
C779 O790 1.252 . S
C779 O791 1.272 . S
O780 Sm760 2.543 . S
O780 C762 1.261 . S
O781 Sm760 2.450 . S
O781 C762 1.242 . S
O782 Sm760 2.681 . S
O782 Sm761 2.386 . S
O782 C769 1.271 . S
O783 Sm760 2.464 . S
O783 C769 1.251 . S
O784 Sm760 2.396 . S
O784 C770 1.252 . S
O785 Sm761 2.408 . S
O785 C770 1.272 . S
O786 Sm761 2.543 . S
O786 C771 1.261 . S
O787 Sm761 2.450 . S
O787 C771 1.242 . S
O788 Sm760 2.386 . S
O788 Sm761 2.681 . S
O788 C778 1.271 . S
O789 Sm761 2.464 . S
O789 C778 1.251 . S
O790 Sm761 2.396 . S
O790 C779 1.252 . S
O791 Sm760 2.408 . S
O791 C779 1.272 . S
H792 C764 0.930 . S
H793 C765 0.929 . S
H794 C767 0.930 . S
H795 C768 0.929 . S
H796 C773 0.930 . S
H797 C774 0.929 . S
H798 C776 0.930 . S
H799 C777 0.929 . S
Sm800 C802 2.846 . S
Sm800 O820 2.543 . S
Sm800 O821 2.450 . S
Sm800 O822 2.681 . S
Sm800 O823 2.464 . S
Sm800 O824 2.396 . S
Sm800 O828 2.386 . S
Sm800 O831 2.408 . S
Sm801 C811 2.846 . S
Sm801 O822 2.386 . S
Sm801 O825 2.408 . S
Sm801 O826 2.543 . S
Sm801 O827 2.450 . S
Sm801 O828 2.681 . S
Sm801 O829 2.464 . S
Sm801 O830 2.396 . S
C802 Sm800 2.846 . S
C802 C803 1.506 . S
C802 O820 1.261 . S
C802 O821 1.242 . S
C803 C802 1.506 . S
C803 C804 1.358 . S
C803 C808 1.382 . S
C804 C803 1.358 . S
C804 C805 1.385 . S
C804 H832 0.930 . S
C805 C804 1.385 . S
C805 C806 1.395 . S
C805 H833 0.929 . S
C806 C805 1.395 . S
C806 C807 1.335 . S
C807 C806 1.335 . S
C807 C808 1.398 . S
C807 H834 0.930 . S
C808 C803 1.382 . S
C808 C807 1.398 . S
C808 H835 0.929 . S
C809 O822 1.271 . S
C809 O823 1.251 . S
C810 O824 1.252 . S
C810 O825 1.272 . S
C811 Sm801 2.846 . S
C811 C812 1.506 . S
C811 O826 1.261 . S
C811 O827 1.242 . S
C812 C811 1.506 . S
C812 C813 1.358 . S
C812 C817 1.382 . S
C813 C812 1.358 . S
C813 C814 1.385 . S
C813 H836 0.930 . S
C814 C813 1.385 . S
C814 C815 1.395 . S
C814 H837 0.929 . S
C815 C814 1.395 . S
C815 C816 1.335 . S
C816 C815 1.335 . S
C816 C817 1.398 . S
C816 H838 0.930 . S
C817 C812 1.382 . S
C817 C816 1.398 . S
C817 H839 0.929 . S
C818 O828 1.271 . S
C818 O829 1.251 . S
C819 O830 1.252 . S
C819 O831 1.272 . S
O820 Sm800 2.543 . S
O820 C802 1.261 . S
O821 Sm800 2.450 . S
O821 C802 1.242 . S
O822 Sm800 2.681 . S
O822 Sm801 2.386 . S
O822 C809 1.271 . S
O823 Sm800 2.464 . S
O823 C809 1.251 . S
O824 Sm800 2.396 . S
O824 C810 1.252 . S
O825 Sm801 2.408 . S
O825 C810 1.272 . S
O826 Sm801 2.543 . S
O826 C811 1.261 . S
O827 Sm801 2.450 . S
O827 C811 1.242 . S
O828 Sm800 2.386 . S
O828 Sm801 2.681 . S
O828 C818 1.271 . S
O829 Sm801 2.464 . S
O829 C818 1.251 . S
O830 Sm801 2.396 . S
O830 C819 1.252 . S
O831 Sm800 2.408 . S
O831 C819 1.272 . S
H832 C804 0.930 . S
H833 C805 0.929 . S
H834 C807 0.930 . S
H835 C808 0.929 . S
H836 C813 0.930 . S
H837 C814 0.929 . S
H838 C816 0.930 . S
H839 C817 0.929 . S
Sm840 C842 2.846 . S
Sm840 O860 2.543 . S
Sm840 O861 2.450 . S
Sm840 O862 2.681 . S
Sm840 O863 2.464 . S
Sm840 O864 2.396 . S
Sm840 O868 2.386 . S
Sm840 O871 2.408 . S
Sm841 C851 2.846 1_556 S
Sm841 O862 2.386 . S
Sm841 O865 2.408 . S
Sm841 O866 2.543 1_556 S
Sm841 O867 2.450 1_556 S
Sm841 O868 2.681 . S
Sm841 O869 2.464 . S
Sm841 O870 2.396 1_556 S
C842 Sm840 2.846 . S
C842 C843 1.506 . S
C842 O860 1.261 . S
C842 O861 1.242 . S
C843 C842 1.506 . S
C843 C844 1.358 . S
C843 C848 1.382 . S
C844 C843 1.358 . S
C844 C845 1.385 . S
C844 H872 0.930 . S
C845 C844 1.385 . S
C845 C846 1.395 . S
C845 H873 0.929 . S
C846 C845 1.395 . S
C846 C847 1.335 . S
C847 C846 1.335 . S
C847 C848 1.398 . S
C847 H874 0.930 . S
C848 C843 1.382 . S
C848 C847 1.398 . S
C848 H875 0.929 . S
C849 O862 1.271 . S
C849 O863 1.251 . S
C850 O864 1.252 . S
C850 O865 1.272 . S
C851 Sm841 2.846 1_554 S
C851 C852 1.506 . S
C851 O866 1.261 . S
C851 O867 1.242 . S
C852 C851 1.506 . S
C852 C853 1.358 . S
C852 C857 1.382 . S
C853 C852 1.358 . S
C853 C854 1.385 . S
C853 H876 0.930 . S
C854 C853 1.385 . S
C854 C855 1.395 . S
C854 H877 0.929 . S
C855 C854 1.395 . S
C855 C856 1.335 . S
C856 C855 1.335 . S
C856 C857 1.398 . S
C856 H878 0.930 . S
C857 C852 1.382 . S
C857 C856 1.398 . S
C857 H879 0.929 . S
C858 O868 1.271 . S
C858 O869 1.251 . S
C859 O870 1.252 . S
C859 O871 1.272 1_554 S
O860 Sm840 2.543 . S
O860 C842 1.261 . S
O861 Sm840 2.450 . S
O861 C842 1.242 . S
O862 Sm840 2.681 . S
O862 Sm841 2.386 . S
O862 C849 1.271 . S
O863 Sm840 2.464 . S
O863 C849 1.251 . S
O864 Sm840 2.396 . S
O864 C850 1.252 . S
O865 Sm841 2.408 . S
O865 C850 1.272 . S
O866 Sm841 2.543 1_554 S
O866 C851 1.261 . S
O867 Sm841 2.450 1_554 S
O867 C851 1.242 . S
O868 Sm840 2.386 . S
O868 Sm841 2.681 . S
O868 C858 1.271 . S
O869 Sm841 2.464 . S
O869 C858 1.251 . S
O870 Sm841 2.396 1_554 S
O870 C859 1.252 . S
O871 Sm840 2.408 . S
O871 C859 1.272 1_556 S
H872 C844 0.930 . S
H873 C845 0.929 . S
H874 C847 0.930 . S
H875 C848 0.929 . S
H876 C853 0.930 . S
H877 C854 0.929 . S
H878 C856 0.930 . S
H879 C857 0.929 . S
Sm880 C882 2.846 . S
Sm880 O900 2.543 . S
Sm880 O901 2.450 . S
Sm880 O902 2.681 . S
Sm880 O903 2.464 . S
Sm880 O904 2.396 . S
Sm880 O908 2.386 . S
Sm880 O911 2.408 . S
Sm881 C891 2.846 1_556 S
Sm881 O902 2.386 . S
Sm881 O905 2.408 . S
Sm881 O906 2.543 1_556 S
Sm881 O907 2.450 1_556 S
Sm881 O908 2.681 . S
Sm881 O909 2.464 . S
Sm881 O910 2.396 1_556 S
C882 Sm880 2.846 . S
C882 C883 1.506 . S
C882 O900 1.261 . S
C882 O901 1.242 . S
C883 C882 1.506 . S
C883 C884 1.358 . S
C883 C888 1.382 . S
C884 C883 1.358 . S
C884 C885 1.385 . S
C884 H912 0.930 . S
C885 C884 1.385 . S
C885 C886 1.395 . S
C885 H913 0.929 . S
C886 C885 1.395 . S
C886 C887 1.335 . S
C887 C886 1.335 . S
C887 C888 1.398 . S
C887 H914 0.930 . S
C888 C883 1.382 . S
C888 C887 1.398 . S
C888 H915 0.929 . S
C889 O902 1.271 . S
C889 O903 1.251 . S
C890 O904 1.252 . S
C890 O905 1.272 . S
C891 Sm881 2.846 1_554 S
C891 C892 1.506 . S
C891 O906 1.261 . S
C891 O907 1.242 . S
C892 C891 1.506 . S
C892 C893 1.358 . S
C892 C897 1.382 . S
C893 C892 1.358 . S
C893 C894 1.385 . S
C893 H916 0.930 . S
C894 C893 1.385 . S
C894 C895 1.395 . S
C894 H917 0.929 . S
C895 C894 1.395 . S
C895 C896 1.335 . S
C896 C895 1.335 . S
C896 C897 1.398 . S
C896 H918 0.930 . S
C897 C892 1.382 . S
C897 C896 1.398 . S
C897 H919 0.929 . S
C898 O908 1.271 . S
C898 O909 1.251 . S
C899 O910 1.252 . S
C899 O911 1.272 1_554 S
O900 Sm880 2.543 . S
O900 C882 1.261 . S
O901 Sm880 2.450 . S
O901 C882 1.242 . S
O902 Sm880 2.681 . S
O902 Sm881 2.386 . S
O902 C889 1.271 . S
O903 Sm880 2.464 . S
O903 C889 1.251 . S
O904 Sm880 2.396 . S
O904 C890 1.252 . S
O905 Sm881 2.408 . S
O905 C890 1.272 . S
O906 Sm881 2.543 1_554 S
O906 C891 1.261 . S
O907 Sm881 2.450 1_554 S
O907 C891 1.242 . S
O908 Sm880 2.386 . S
O908 Sm881 2.681 . S
O908 C898 1.271 . S
O909 Sm881 2.464 . S
O909 C898 1.251 . S
O910 Sm881 2.396 1_554 S
O910 C899 1.252 . S
O911 Sm880 2.408 . S
O911 C899 1.272 1_556 S
H912 C884 0.930 . S
H913 C885 0.929 . S
H914 C887 0.930 . S
H915 C888 0.929 . S
H916 C893 0.930 . S
H917 C894 0.929 . S
H918 C896 0.930 . S
H919 C897 0.929 . S
Sm920 C922 2.846 . S
Sm920 O940 2.543 . S
Sm920 O941 2.450 . S
Sm920 O942 2.681 . S
Sm920 O943 2.464 . S
Sm920 O944 2.396 . S
Sm920 O948 2.386 . S
Sm920 O951 2.408 . S
Sm921 C931 2.846 1_556 S
Sm921 O942 2.386 . S
Sm921 O945 2.408 . S
Sm921 O946 2.543 1_556 S
Sm921 O947 2.450 1_556 S
Sm921 O948 2.681 . S
Sm921 O949 2.464 . S
Sm921 O950 2.396 1_556 S
C922 Sm920 2.846 . S
C922 C923 1.506 . S
C922 O940 1.261 . S
C922 O941 1.242 . S
C923 C922 1.506 . S
C923 C924 1.358 . S
C923 C928 1.382 . S
C924 C923 1.358 . S
C924 C925 1.385 . S
C924 H952 0.930 . S
C925 C924 1.385 . S
C925 C926 1.395 . S
C925 H953 0.929 . S
C926 C925 1.395 . S
C926 C927 1.335 . S
C927 C926 1.335 . S
C927 C928 1.398 . S
C927 H954 0.930 . S
C928 C923 1.382 . S
C928 C927 1.398 . S
C928 H955 0.929 . S
C929 O942 1.271 . S
C929 O943 1.251 . S
C930 O944 1.252 . S
C930 O945 1.272 . S
C931 Sm921 2.846 1_554 S
C931 C932 1.506 . S
C931 O946 1.261 . S
C931 O947 1.242 . S
C932 C931 1.506 . S
C932 C933 1.358 . S
C932 C937 1.382 . S
C933 C932 1.358 . S
C933 C934 1.385 . S
C933 H956 0.930 . S
C934 C933 1.385 . S
C934 C935 1.395 . S
C934 H957 0.929 . S
C935 C934 1.395 . S
C935 C936 1.335 . S
C936 C935 1.335 . S
C936 C937 1.398 . S
C936 H958 0.930 . S
C937 C932 1.382 . S
C937 C936 1.398 . S
C937 H959 0.929 . S
C938 O948 1.271 . S
C938 O949 1.251 . S
C939 O950 1.252 . S
C939 O951 1.272 1_554 S
O940 Sm920 2.543 . S
O940 C922 1.261 . S
O941 Sm920 2.450 . S
O941 C922 1.242 . S
O942 Sm920 2.681 . S
O942 Sm921 2.386 . S
O942 C929 1.271 . S
O943 Sm920 2.464 . S
O943 C929 1.251 . S
O944 Sm920 2.396 . S
O944 C930 1.252 . S
O945 Sm921 2.408 . S
O945 C930 1.272 . S
O946 Sm921 2.543 1_554 S
O946 C931 1.261 . S
O947 Sm921 2.450 1_554 S
O947 C931 1.242 . S
O948 Sm920 2.386 . S
O948 Sm921 2.681 . S
O948 C938 1.271 . S
O949 Sm921 2.464 . S
O949 C938 1.251 . S
O950 Sm921 2.396 1_554 S
O950 C939 1.252 . S
O951 Sm920 2.408 . S
O951 C939 1.272 1_556 S
H952 C924 0.930 . S
H953 C925 0.929 . S
H954 C927 0.930 . S
H955 C928 0.929 . S
H956 C933 0.930 . S
H957 C934 0.929 . S
H958 C936 0.930 . S
H959 C937 0.929 . S
Sm960 C962 2.846 . S
Sm960 O980 2.543 . S
Sm960 O981 2.450 . S
Sm960 O982 2.681 . S
Sm960 O983 2.464 . S
Sm960 O984 2.396 . S
Sm960 O988 2.386 . S
Sm960 O991 2.408 . S
Sm961 C971 2.846 . S
Sm961 O982 2.386 . S
Sm961 O985 2.408 . S
Sm961 O986 2.543 . S
Sm961 O987 2.450 . S
Sm961 O988 2.681 . S
Sm961 O989 2.464 . S
Sm961 O990 2.396 . S
C962 Sm960 2.846 . S
C962 C963 1.506 . S
C962 O980 1.261 . S
C962 O981 1.242 . S
C963 C962 1.506 . S
C963 C964 1.358 . S
C963 C968 1.382 . S
C964 C963 1.358 . S
C964 C965 1.385 1_556 S
C964 H992 0.930 . S
C965 C964 1.385 1_554 S
C965 C966 1.395 . S
C965 H993 0.929 . S
C966 C965 1.395 . S
C966 C967 1.335 . S
C967 C966 1.335 . S
C967 C968 1.398 1_554 S
C967 H994 0.930 . S
C968 C963 1.382 . S
C968 C967 1.398 1_556 S
C968 H995 0.929 . S
C969 O982 1.271 . S
C969 O983 1.251 . S
C970 O984 1.252 . S
C970 O985 1.272 . S
C971 Sm961 2.846 . S
C971 C972 1.506 . S
C971 O986 1.261 . S
C971 O987 1.242 . S
C972 C971 1.506 . S
C972 C973 1.358 . S
C972 C977 1.382 . S
C973 C972 1.358 . S
C973 C974 1.385 . S
C973 H996 0.930 . S
C974 C973 1.385 . S
C974 C975 1.395 . S
C974 H997 0.929 . S
C975 C974 1.395 . S
C975 C976 1.335 . S
C976 C975 1.335 . S
C976 C977 1.398 . S
C976 H998 0.930 . S
C977 C972 1.382 . S
C977 C976 1.398 . S
C977 H999 0.929 . S
C978 O988 1.271 . S
C978 O989 1.251 . S
C979 O990 1.252 . S
C979 O991 1.272 . S
O980 Sm960 2.543 . S
O980 C962 1.261 . S
O981 Sm960 2.450 . S
O981 C962 1.242 . S
O982 Sm960 2.681 . S
O982 Sm961 2.386 . S
O982 C969 1.271 . S
O983 Sm960 2.464 . S
O983 C969 1.251 . S
O984 Sm960 2.396 . S
O984 C970 1.252 . S
O985 Sm961 2.408 . S
O985 C970 1.272 . S
O986 Sm961 2.543 . S
O986 C971 1.261 . S
O987 Sm961 2.450 . S
O987 C971 1.242 . S
O988 Sm960 2.386 . S
O988 Sm961 2.681 . S
O988 C978 1.271 . S
O989 Sm961 2.464 . S
O989 C978 1.251 . S
O990 Sm961 2.396 . S
O990 C979 1.252 . S
O991 Sm960 2.408 . S
O991 C979 1.272 . S
H992 C964 0.930 . S
H993 C965 0.929 . S
H994 C967 0.930 . S
H995 C968 0.929 . S
H996 C973 0.930 . S
H997 C974 0.929 . S
H998 C976 0.930 . S
H999 C977 0.929 . S
Sm1000 C1002 2.846 . S
Sm1000 O1020 2.543 . S
Sm1000 O1021 2.450 . S
Sm1000 O1022 2.681 . S
Sm1000 O1023 2.464 . S
Sm1000 O1024 2.396 . S
Sm1000 O1028 2.386 . S
Sm1000 O1031 2.408 . S
Sm1001 C1011 2.846 . S
Sm1001 O1022 2.386 . S
Sm1001 O1025 2.408 . S
Sm1001 O1026 2.543 . S
Sm1001 O1027 2.450 . S
Sm1001 O1028 2.681 . S
Sm1001 O1029 2.464 . S
Sm1001 O1030 2.396 . S
C1002 Sm1000 2.846 . S
C1002 C1003 1.506 . S
C1002 O1020 1.261 . S
C1002 O1021 1.242 . S
C1003 C1002 1.506 . S
C1003 C1004 1.358 . S
C1003 C1008 1.382 . S
C1004 C1003 1.358 . S
C1004 C1005 1.385 1_556 S
C1004 H1032 0.930 . S
C1005 C1004 1.385 1_554 S
C1005 C1006 1.395 . S
C1005 H1033 0.929 . S
C1006 C1005 1.395 . S
C1006 C1007 1.335 . S
C1007 C1006 1.335 . S
C1007 C1008 1.398 1_554 S
C1007 H1034 0.930 . S
C1008 C1003 1.382 . S
C1008 C1007 1.398 1_556 S
C1008 H1035 0.929 . S
C1009 O1022 1.271 . S
C1009 O1023 1.251 . S
C1010 O1024 1.252 . S
C1010 O1025 1.272 . S
C1011 Sm1001 2.846 . S
C1011 C1012 1.506 . S
C1011 O1026 1.261 . S
C1011 O1027 1.242 . S
C1012 C1011 1.506 . S
C1012 C1013 1.358 . S
C1012 C1017 1.382 . S
C1013 C1012 1.358 . S
C1013 C1014 1.385 . S
C1013 H1036 0.930 . S
C1014 C1013 1.385 . S
C1014 C1015 1.395 . S
C1014 H1037 0.929 . S
C1015 C1014 1.395 . S
C1015 C1016 1.335 . S
C1016 C1015 1.335 . S
C1016 C1017 1.398 . S
C1016 H1038 0.930 . S
C1017 C1012 1.382 . S
C1017 C1016 1.398 . S
C1017 H1039 0.929 . S
C1018 O1028 1.271 . S
C1018 O1029 1.251 . S
C1019 O1030 1.252 . S
C1019 O1031 1.272 . S
O1020 Sm1000 2.543 . S
O1020 C1002 1.261 . S
O1021 Sm1000 2.450 . S
O1021 C1002 1.242 . S
O1022 Sm1000 2.681 . S
O1022 Sm1001 2.386 . S
O1022 C1009 1.271 . S
O1023 Sm1000 2.464 . S
O1023 C1009 1.251 . S
O1024 Sm1000 2.396 . S
O1024 C1010 1.252 . S
O1025 Sm1001 2.408 . S
O1025 C1010 1.272 . S
O1026 Sm1001 2.543 . S
O1026 C1011 1.261 . S
O1027 Sm1001 2.450 . S
O1027 C1011 1.242 . S
O1028 Sm1000 2.386 . S
O1028 Sm1001 2.681 . S
O1028 C1018 1.271 . S
O1029 Sm1001 2.464 . S
O1029 C1018 1.251 . S
O1030 Sm1001 2.396 . S
O1030 C1019 1.252 . S
O1031 Sm1000 2.408 . S
O1031 C1019 1.272 . S
H1032 C1004 0.930 . S
H1033 C1005 0.929 . S
H1034 C1007 0.930 . S
H1035 C1008 0.929 . S
H1036 C1013 0.930 . S
H1037 C1014 0.929 . S
H1038 C1016 0.930 . S
H1039 C1017 0.929 . S
Sm1040 C1042 2.846 . S
Sm1040 O1060 2.543 . S
Sm1040 O1061 2.450 . S
Sm1040 O1062 2.681 . S
Sm1040 O1063 2.464 . S
Sm1040 O1064 2.396 . S
Sm1040 O1068 2.386 . S
Sm1040 O1071 2.408 . S
Sm1041 C1051 2.846 . S
Sm1041 O1062 2.386 . S
Sm1041 O1065 2.408 . S
Sm1041 O1066 2.543 . S
Sm1041 O1067 2.450 . S
Sm1041 O1068 2.681 . S
Sm1041 O1069 2.464 . S
Sm1041 O1070 2.396 . S
C1042 Sm1040 2.846 . S
C1042 C1043 1.506 . S
C1042 O1060 1.261 . S
C1042 O1061 1.242 . S
C1043 C1042 1.506 . S
C1043 C1044 1.358 . S
C1043 C1048 1.382 . S
C1044 C1043 1.358 . S
C1044 C1045 1.385 1_556 S
C1044 H1072 0.930 . S
C1045 C1044 1.385 1_554 S
C1045 C1046 1.395 . S
C1045 H1073 0.929 . S
C1046 C1045 1.395 . S
C1046 C1047 1.335 . S
C1047 C1046 1.335 . S
C1047 C1048 1.398 1_554 S
C1047 H1074 0.930 . S
C1048 C1043 1.382 . S
C1048 C1047 1.398 1_556 S
C1048 H1075 0.929 . S
C1049 O1062 1.271 . S
C1049 O1063 1.251 . S
C1050 O1064 1.252 . S
C1050 O1065 1.272 . S
C1051 Sm1041 2.846 . S
C1051 C1052 1.506 . S
C1051 O1066 1.261 . S
C1051 O1067 1.242 . S
C1052 C1051 1.506 . S
C1052 C1053 1.358 . S
C1052 C1057 1.382 . S
C1053 C1052 1.358 . S
C1053 C1054 1.385 . S
C1053 H1076 0.930 . S
C1054 C1053 1.385 . S
C1054 C1055 1.395 . S
C1054 H1077 0.929 . S
C1055 C1054 1.395 . S
C1055 C1056 1.335 . S
C1056 C1055 1.335 . S
C1056 C1057 1.398 . S
C1056 H1078 0.930 . S
C1057 C1052 1.382 . S
C1057 C1056 1.398 . S
C1057 H1079 0.929 . S
C1058 O1068 1.271 . S
C1058 O1069 1.251 . S
C1059 O1070 1.252 . S
C1059 O1071 1.272 . S
O1060 Sm1040 2.543 . S
O1060 C1042 1.261 . S
O1061 Sm1040 2.450 . S
O1061 C1042 1.242 . S
O1062 Sm1040 2.681 . S
O1062 Sm1041 2.386 . S
O1062 C1049 1.271 . S
O1063 Sm1040 2.464 . S
O1063 C1049 1.251 . S
O1064 Sm1040 2.396 . S
O1064 C1050 1.252 . S
O1065 Sm1041 2.408 . S
O1065 C1050 1.272 . S
O1066 Sm1041 2.543 . S
O1066 C1051 1.261 . S
O1067 Sm1041 2.450 . S
O1067 C1051 1.242 . S
O1068 Sm1040 2.386 . S
O1068 Sm1041 2.681 . S
O1068 C1058 1.271 . S
O1069 Sm1041 2.464 . S
O1069 C1058 1.251 . S
O1070 Sm1041 2.396 . S
O1070 C1059 1.252 . S
O1071 Sm1040 2.408 . S
O1071 C1059 1.272 . S
H1072 C1044 0.930 . S
H1073 C1045 0.929 . S
H1074 C1047 0.930 . S
H1075 C1048 0.929 . S
H1076 C1053 0.930 . S
H1077 C1054 0.929 . S
H1078 C1056 0.930 . S
H1079 C1057 0.929 . S
Sm1080 C1082 2.846 . S
Sm1080 O1100 2.543 . S
Sm1080 O1101 2.450 . S
Sm1080 O1102 2.681 . S
Sm1080 O1103 2.464 . S
Sm1080 O1104 2.396 . S
Sm1080 O1108 2.386 . S
Sm1080 O1111 2.408 . S
Sm1081 C1091 2.846 . S
Sm1081 O1102 2.386 . S
Sm1081 O1105 2.408 . S
Sm1081 O1106 2.543 . S
Sm1081 O1107 2.450 . S
Sm1081 O1108 2.681 . S
Sm1081 O1109 2.464 . S
Sm1081 O1110 2.396 . S
C1082 Sm1080 2.846 . S
C1082 C1083 1.506 . S
C1082 O1100 1.261 . S
C1082 O1101 1.242 . S
C1083 C1082 1.506 . S
C1083 C1084 1.358 1_554 S
C1083 C1088 1.382 . S
C1084 C1083 1.358 1_556 S
C1084 C1085 1.385 . S
C1084 H1112 0.930 1_556 S
C1085 C1084 1.385 . S
C1085 C1086 1.395 . S
C1085 H1113 0.929 . S
C1086 C1085 1.395 . S
C1086 C1087 1.335 . S
C1087 C1086 1.335 . S
C1087 C1088 1.398 1_556 S
C1087 H1114 0.930 . S
C1088 C1083 1.382 . S
C1088 C1087 1.398 1_554 S
C1088 H1115 0.929 . S
C1089 O1102 1.271 . S
C1089 O1103 1.251 . S
C1090 O1104 1.252 . S
C1090 O1105 1.272 . S
C1091 Sm1081 2.846 . S
C1091 C1092 1.506 . S
C1091 O1106 1.261 . S
C1091 O1107 1.242 . S
C1092 C1091 1.506 . S
C1092 C1093 1.358 . S
C1092 C1097 1.382 . S
C1093 C1092 1.358 . S
C1093 C1094 1.385 . S
C1093 H1116 0.930 . S
C1094 C1093 1.385 . S
C1094 C1095 1.395 . S
C1094 H1117 0.929 . S
C1095 C1094 1.395 . S
C1095 C1096 1.335 . S
C1096 C1095 1.335 . S
C1096 C1097 1.398 . S
C1096 H1118 0.930 . S
C1097 C1092 1.382 . S
C1097 C1096 1.398 . S
C1097 H1119 0.929 . S
C1098 O1108 1.271 . S
C1098 O1109 1.251 . S
C1099 O1110 1.252 . S
C1099 O1111 1.272 . S
O1100 Sm1080 2.543 . S
O1100 C1082 1.261 . S
O1101 Sm1080 2.450 . S
O1101 C1082 1.242 . S
O1102 Sm1080 2.681 . S
O1102 Sm1081 2.386 . S
O1102 C1089 1.271 . S
O1103 Sm1080 2.464 . S
O1103 C1089 1.251 . S
O1104 Sm1080 2.396 . S
O1104 C1090 1.252 . S
O1105 Sm1081 2.408 . S
O1105 C1090 1.272 . S
O1106 Sm1081 2.543 . S
O1106 C1091 1.261 . S
O1107 Sm1081 2.450 . S
O1107 C1091 1.242 . S
O1108 Sm1080 2.386 . S
O1108 Sm1081 2.681 . S
O1108 C1098 1.271 . S
O1109 Sm1081 2.464 . S
O1109 C1098 1.251 . S
O1110 Sm1081 2.396 . S
O1110 C1099 1.252 . S
O1111 Sm1080 2.408 . S
O1111 C1099 1.272 . S
H1112 C1084 0.930 1_554 S
H1113 C1085 0.929 . S
H1114 C1087 0.930 . S
H1115 C1088 0.929 . S
H1116 C1093 0.930 . S
H1117 C1094 0.929 . S
H1118 C1096 0.930 . S
H1119 C1097 0.929 . S
Sm1120 C1122 2.846 . S
Sm1120 O1140 2.543 . S
Sm1120 O1141 2.450 . S
Sm1120 O1142 2.681 . S
Sm1120 O1143 2.464 . S
Sm1120 O1144 2.396 . S
Sm1120 O1148 2.386 . S
Sm1120 O1151 2.408 . S
Sm1121 C1131 2.846 . S
Sm1121 O1142 2.386 . S
Sm1121 O1145 2.408 . S
Sm1121 O1146 2.543 . S
Sm1121 O1147 2.450 . S
Sm1121 O1148 2.681 . S
Sm1121 O1149 2.464 . S
Sm1121 O1150 2.396 . S
C1122 Sm1120 2.846 . S
C1122 C1123 1.506 . S
C1122 O1140 1.261 . S
C1122 O1141 1.242 . S
C1123 C1122 1.506 . S
C1123 C1124 1.358 1_554 S
C1123 C1128 1.382 . S
C1124 C1123 1.358 1_556 S
C1124 C1125 1.385 . S
C1124 H1152 0.930 1_556 S
C1125 C1124 1.385 . S
C1125 C1126 1.395 . S
C1125 H1153 0.929 . S
C1126 C1125 1.395 . S
C1126 C1127 1.335 . S
C1127 C1126 1.335 . S
C1127 C1128 1.398 1_556 S
C1127 H1154 0.930 . S
C1128 C1123 1.382 . S
C1128 C1127 1.398 1_554 S
C1128 H1155 0.929 . S
C1129 O1142 1.271 . S
C1129 O1143 1.251 . S
C1130 O1144 1.252 . S
C1130 O1145 1.272 . S
C1131 Sm1121 2.846 . S
C1131 C1132 1.506 . S
C1131 O1146 1.261 . S
C1131 O1147 1.242 . S
C1132 C1131 1.506 . S
C1132 C1133 1.358 . S
C1132 C1137 1.382 . S
C1133 C1132 1.358 . S
C1133 C1134 1.385 . S
C1133 H1156 0.930 . S
C1134 C1133 1.385 . S
C1134 C1135 1.395 . S
C1134 H1157 0.929 . S
C1135 C1134 1.395 . S
C1135 C1136 1.335 . S
C1136 C1135 1.335 . S
C1136 C1137 1.398 . S
C1136 H1158 0.930 . S
C1137 C1132 1.382 . S
C1137 C1136 1.398 . S
C1137 H1159 0.929 . S
C1138 O1148 1.271 . S
C1138 O1149 1.251 . S
C1139 O1150 1.252 . S
C1139 O1151 1.272 . S
O1140 Sm1120 2.543 . S
O1140 C1122 1.261 . S
O1141 Sm1120 2.450 . S
O1141 C1122 1.242 . S
O1142 Sm1120 2.681 . S
O1142 Sm1121 2.386 . S
O1142 C1129 1.271 . S
O1143 Sm1120 2.464 . S
O1143 C1129 1.251 . S
O1144 Sm1120 2.396 . S
O1144 C1130 1.252 . S
O1145 Sm1121 2.408 . S
O1145 C1130 1.272 . S
O1146 Sm1121 2.543 . S
O1146 C1131 1.261 . S
O1147 Sm1121 2.450 . S
O1147 C1131 1.242 . S
O1148 Sm1120 2.386 . S
O1148 Sm1121 2.681 . S
O1148 C1138 1.271 . S
O1149 Sm1121 2.464 . S
O1149 C1138 1.251 . S
O1150 Sm1121 2.396 . S
O1150 C1139 1.252 . S
O1151 Sm1120 2.408 . S
O1151 C1139 1.272 . S
H1152 C1124 0.930 1_554 S
H1153 C1125 0.929 . S
H1154 C1127 0.930 . S
H1155 C1128 0.929 . S
H1156 C1133 0.930 . S
H1157 C1134 0.929 . S
H1158 C1136 0.930 . S
H1159 C1137 0.929 . S
Sm1160 C1162 2.846 . S
Sm1160 O1180 2.543 . S
Sm1160 O1181 2.450 . S
Sm1160 O1182 2.681 . S
Sm1160 O1183 2.464 . S
Sm1160 O1184 2.396 . S
Sm1160 O1188 2.386 . S
Sm1160 O1191 2.408 . S
Sm1161 C1171 2.846 . S
Sm1161 O1182 2.386 . S
Sm1161 O1185 2.408 . S
Sm1161 O1186 2.543 . S
Sm1161 O1187 2.450 . S
Sm1161 O1188 2.681 . S
Sm1161 O1189 2.464 . S
Sm1161 O1190 2.396 . S
C1162 Sm1160 2.846 . S
C1162 C1163 1.506 . S
C1162 O1180 1.261 . S
C1162 O1181 1.242 . S
C1163 C1162 1.506 . S
C1163 C1164 1.358 1_554 S
C1163 C1168 1.382 . S
C1164 C1163 1.358 1_556 S
C1164 C1165 1.385 . S
C1164 H1192 0.930 1_556 S
C1165 C1164 1.385 . S
C1165 C1166 1.395 . S
C1165 H1193 0.929 . S
C1166 C1165 1.395 . S
C1166 C1167 1.335 . S
C1167 C1166 1.335 . S
C1167 C1168 1.398 1_556 S
C1167 H1194 0.930 . S
C1168 C1163 1.382 . S
C1168 C1167 1.398 1_554 S
C1168 H1195 0.929 . S
C1169 O1182 1.271 . S
C1169 O1183 1.251 . S
C1170 O1184 1.252 . S
C1170 O1185 1.272 . S
C1171 Sm1161 2.846 . S
C1171 C1172 1.506 . S
C1171 O1186 1.261 . S
C1171 O1187 1.242 . S
C1172 C1171 1.506 . S
C1172 C1173 1.358 . S
C1172 C1177 1.382 . S
C1173 C1172 1.358 . S
C1173 C1174 1.385 . S
C1173 H1196 0.930 . S
C1174 C1173 1.385 . S
C1174 C1175 1.395 . S
C1174 H1197 0.929 . S
C1175 C1174 1.395 . S
C1175 C1176 1.335 . S
C1176 C1175 1.335 . S
C1176 C1177 1.398 . S
C1176 H1198 0.930 . S
C1177 C1172 1.382 . S
C1177 C1176 1.398 . S
C1177 H1199 0.929 . S
C1178 O1188 1.271 . S
C1178 O1189 1.251 . S
C1179 O1190 1.252 . S
C1179 O1191 1.272 . S
O1180 Sm1160 2.543 . S
O1180 C1162 1.261 . S
O1181 Sm1160 2.450 . S
O1181 C1162 1.242 . S
O1182 Sm1160 2.681 . S
O1182 Sm1161 2.386 . S
O1182 C1169 1.271 . S
O1183 Sm1160 2.464 . S
O1183 C1169 1.251 . S
O1184 Sm1160 2.396 . S
O1184 C1170 1.252 . S
O1185 Sm1161 2.408 . S
O1185 C1170 1.272 . S
O1186 Sm1161 2.543 . S
O1186 C1171 1.261 . S
O1187 Sm1161 2.450 . S
O1187 C1171 1.242 . S
O1188 Sm1160 2.386 . S
O1188 Sm1161 2.681 . S
O1188 C1178 1.271 . S
O1189 Sm1161 2.464 . S
O1189 C1178 1.251 . S
O1190 Sm1161 2.396 . S
O1190 C1179 1.252 . S
O1191 Sm1160 2.408 . S
O1191 C1179 1.272 . S
H1192 C1164 0.930 1_554 S
H1193 C1165 0.929 . S
H1194 C1167 0.930 . S
H1195 C1168 0.929 . S
H1196 C1173 0.930 . S
H1197 C1174 0.929 . S
H1198 C1176 0.930 . S
H1199 C1177 0.929 . S
Sm1200 C1202 2.846 . S
Sm1200 O1220 2.543 . S
Sm1200 O1221 2.450 . S
Sm1200 O1222 2.681 . S
Sm1200 O1223 2.464 . S
Sm1200 O1224 2.396 . S
Sm1200 O1228 2.386 . S
Sm1200 O1231 2.408 . S
Sm1201 C1211 2.846 . S
Sm1201 O1222 2.386 . S
Sm1201 O1225 2.408 . S
Sm1201 O1226 2.543 . S
Sm1201 O1227 2.450 . S
Sm1201 O1228 2.681 . S
Sm1201 O1229 2.464 . S
Sm1201 O1230 2.396 . S
C1202 Sm1200 2.846 . S
C1202 C1203 1.506 . S
C1202 O1220 1.261 . S
C1202 O1221 1.242 . S
C1203 C1202 1.506 . S
C1203 C1204 1.358 . S
C1203 C1208 1.382 . S
C1204 C1203 1.358 . S
C1204 C1205 1.385 . S
C1204 H1232 0.930 . S
C1205 C1204 1.385 . S
C1205 C1206 1.395 . S
C1205 H1233 0.929 . S
C1206 C1205 1.395 . S
C1206 C1207 1.335 . S
C1207 C1206 1.335 . S
C1207 C1208 1.398 . S
C1207 H1234 0.930 . S
C1208 C1203 1.382 . S
C1208 C1207 1.398 . S
C1208 H1235 0.929 . S
C1209 O1222 1.271 . S
C1209 O1223 1.251 . S
C1210 O1224 1.252 . S
C1210 O1225 1.272 . S
C1211 Sm1201 2.846 . S
C1211 C1212 1.506 . S
C1211 O1226 1.261 . S
C1211 O1227 1.242 . S
C1212 C1211 1.506 . S
C1212 C1213 1.358 . S
C1212 C1217 1.382 . S
C1213 C1212 1.358 . S
C1213 C1214 1.385 . S
C1213 H1236 0.930 . S
C1214 C1213 1.385 . S
C1214 C1215 1.395 . S
C1214 H1237 0.929 . S
C1215 C1214 1.395 . S
C1215 C1216 1.335 . S
C1216 C1215 1.335 . S
C1216 C1217 1.398 . S
C1216 H1238 0.930 . S
C1217 C1212 1.382 . S
C1217 C1216 1.398 . S
C1217 H1239 0.929 . S
C1218 O1228 1.271 . S
C1218 O1229 1.251 . S
C1219 O1230 1.252 . S
C1219 O1231 1.272 . S
O1220 Sm1200 2.543 . S
O1220 C1202 1.261 . S
O1221 Sm1200 2.450 . S
O1221 C1202 1.242 . S
O1222 Sm1200 2.681 . S
O1222 Sm1201 2.386 . S
O1222 C1209 1.271 . S
O1223 Sm1200 2.464 . S
O1223 C1209 1.251 . S
O1224 Sm1200 2.396 . S
O1224 C1210 1.252 . S
O1225 Sm1201 2.408 . S
O1225 C1210 1.272 . S
O1226 Sm1201 2.543 . S
O1226 C1211 1.261 . S
O1227 Sm1201 2.450 . S
O1227 C1211 1.242 . S
O1228 Sm1200 2.386 . S
O1228 Sm1201 2.681 . S
O1228 C1218 1.271 . S
O1229 Sm1201 2.464 . S
O1229 C1218 1.251 . S
O1230 Sm1201 2.396 . S
O1230 C1219 1.252 . S
O1231 Sm1200 2.408 . S
O1231 C1219 1.272 . S
H1232 C1204 0.930 . S
H1233 C1205 0.929 . S
H1234 C1207 0.930 . S
H1235 C1208 0.929 . S
H1236 C1213 0.930 . S
H1237 C1214 0.929 . S
H1238 C1216 0.930 . S
H1239 C1217 0.929 . S
Sm1240 C1242 2.846 . S
Sm1240 O1260 2.543 . S
Sm1240 O1261 2.450 . S
Sm1240 O1262 2.681 . S
Sm1240 O1263 2.464 . S
Sm1240 O1264 2.396 . S
Sm1240 O1268 2.386 . S
Sm1240 O1271 2.408 . S
Sm1241 C1251 2.846 . S
Sm1241 O1262 2.386 . S
Sm1241 O1265 2.408 . S
Sm1241 O1266 2.543 . S
Sm1241 O1267 2.450 . S
Sm1241 O1268 2.681 . S
Sm1241 O1269 2.464 . S
Sm1241 O1270 2.396 . S
C1242 Sm1240 2.846 . S
C1242 C1243 1.506 . S
C1242 O1260 1.261 . S
C1242 O1261 1.242 . S
C1243 C1242 1.506 . S
C1243 C1244 1.358 . S
C1243 C1248 1.382 . S
C1244 C1243 1.358 . S
C1244 C1245 1.385 . S
C1244 H1272 0.930 . S
C1245 C1244 1.385 . S
C1245 C1246 1.395 . S
C1245 H1273 0.929 . S
C1246 C1245 1.395 . S
C1246 C1247 1.335 . S
C1247 C1246 1.335 . S
C1247 C1248 1.398 . S
C1247 H1274 0.930 . S
C1248 C1243 1.382 . S
C1248 C1247 1.398 . S
C1248 H1275 0.929 . S
C1249 O1262 1.271 . S
C1249 O1263 1.251 . S
C1250 O1264 1.252 . S
C1250 O1265 1.272 . S
C1251 Sm1241 2.846 . S
C1251 C1252 1.506 . S
C1251 O1266 1.261 . S
C1251 O1267 1.242 . S
C1252 C1251 1.506 . S
C1252 C1253 1.358 . S
C1252 C1257 1.382 . S
C1253 C1252 1.358 . S
C1253 C1254 1.385 . S
C1253 H1276 0.930 . S
C1254 C1253 1.385 . S
C1254 C1255 1.395 . S
C1254 H1277 0.929 . S
C1255 C1254 1.395 . S
C1255 C1256 1.335 . S
C1256 C1255 1.335 . S
C1256 C1257 1.398 . S
C1256 H1278 0.930 . S
C1257 C1252 1.382 . S
C1257 C1256 1.398 . S
C1257 H1279 0.929 . S
C1258 O1268 1.271 . S
C1258 O1269 1.251 . S
C1259 O1270 1.252 . S
C1259 O1271 1.272 . S
O1260 Sm1240 2.543 . S
O1260 C1242 1.261 . S
O1261 Sm1240 2.450 . S
O1261 C1242 1.242 . S
O1262 Sm1240 2.681 . S
O1262 Sm1241 2.386 . S
O1262 C1249 1.271 . S
O1263 Sm1240 2.464 . S
O1263 C1249 1.251 . S
O1264 Sm1240 2.396 . S
O1264 C1250 1.252 . S
O1265 Sm1241 2.408 . S
O1265 C1250 1.272 . S
O1266 Sm1241 2.543 . S
O1266 C1251 1.261 . S
O1267 Sm1241 2.450 . S
O1267 C1251 1.242 . S
O1268 Sm1240 2.386 . S
O1268 Sm1241 2.681 . S
O1268 C1258 1.271 . S
O1269 Sm1241 2.464 . S
O1269 C1258 1.251 . S
O1270 Sm1241 2.396 . S
O1270 C1259 1.252 . S
O1271 Sm1240 2.408 . S
O1271 C1259 1.272 . S
H1272 C1244 0.930 . S
H1273 C1245 0.929 . S
H1274 C1247 0.930 . S
H1275 C1248 0.929 . S
H1276 C1253 0.930 . S
H1277 C1254 0.929 . S
H1278 C1256 0.930 . S
H1279 C1257 0.929 . S
Sm1280 C1282 2.846 . S
Sm1280 O1300 2.543 . S
Sm1280 O1301 2.450 . S
Sm1280 O1302 2.681 . S
Sm1280 O1303 2.464 . S
Sm1280 O1304 2.396 . S
Sm1280 O1308 2.386 . S
Sm1280 O1311 2.408 . S
Sm1281 C1291 2.846 . S
Sm1281 O1302 2.386 . S
Sm1281 O1305 2.408 . S
Sm1281 O1306 2.543 . S
Sm1281 O1307 2.450 . S
Sm1281 O1308 2.681 . S
Sm1281 O1309 2.464 . S
Sm1281 O1310 2.396 . S
C1282 Sm1280 2.846 . S
C1282 C1283 1.506 . S
C1282 O1300 1.261 . S
C1282 O1301 1.242 . S
C1283 C1282 1.506 . S
C1283 C1284 1.358 . S
C1283 C1288 1.382 . S
C1284 C1283 1.358 . S
C1284 C1285 1.385 . S
C1284 H1312 0.930 . S
C1285 C1284 1.385 . S
C1285 C1286 1.395 . S
C1285 H1313 0.929 . S
C1286 C1285 1.395 . S
C1286 C1287 1.335 . S
C1287 C1286 1.335 . S
C1287 C1288 1.398 . S
C1287 H1314 0.930 . S
C1288 C1283 1.382 . S
C1288 C1287 1.398 . S
C1288 H1315 0.929 . S
C1289 O1302 1.271 . S
C1289 O1303 1.251 . S
C1290 O1304 1.252 . S
C1290 O1305 1.272 . S
C1291 Sm1281 2.846 . S
C1291 C1292 1.506 . S
C1291 O1306 1.261 . S
C1291 O1307 1.242 . S
C1292 C1291 1.506 . S
C1292 C1293 1.358 . S
C1292 C1297 1.382 . S
C1293 C1292 1.358 . S
C1293 C1294 1.385 . S
C1293 H1316 0.930 . S
C1294 C1293 1.385 . S
C1294 C1295 1.395 . S
C1294 H1317 0.929 . S
C1295 C1294 1.395 . S
C1295 C1296 1.335 . S
C1296 C1295 1.335 . S
C1296 C1297 1.398 . S
C1296 H1318 0.930 . S
C1297 C1292 1.382 . S
C1297 C1296 1.398 . S
C1297 H1319 0.929 . S
C1298 O1308 1.271 . S
C1298 O1309 1.251 . S
C1299 O1310 1.252 . S
C1299 O1311 1.272 . S
O1300 Sm1280 2.543 . S
O1300 C1282 1.261 . S
O1301 Sm1280 2.450 . S
O1301 C1282 1.242 . S
O1302 Sm1280 2.681 . S
O1302 Sm1281 2.386 . S
O1302 C1289 1.271 . S
O1303 Sm1280 2.464 . S
O1303 C1289 1.251 . S
O1304 Sm1280 2.396 . S
O1304 C1290 1.252 . S
O1305 Sm1281 2.408 . S
O1305 C1290 1.272 . S
O1306 Sm1281 2.543 . S
O1306 C1291 1.261 . S
O1307 Sm1281 2.450 . S
O1307 C1291 1.242 . S
O1308 Sm1280 2.386 . S
O1308 Sm1281 2.681 . S
O1308 C1298 1.271 . S
O1309 Sm1281 2.464 . S
O1309 C1298 1.251 . S
O1310 Sm1281 2.396 . S
O1310 C1299 1.252 . S
O1311 Sm1280 2.408 . S
O1311 C1299 1.272 . S
H1312 C1284 0.930 . S
H1313 C1285 0.929 . S
H1314 C1287 0.930 . S
H1315 C1288 0.929 . S
H1316 C1293 0.930 . S
H1317 C1294 0.929 . S
H1318 C1296 0.930 . S
H1319 C1297 0.929 . S
Sm1320 C1322 2.846 . S
Sm1320 O1340 2.543 . S
Sm1320 O1341 2.450 . S
Sm1320 O1342 2.681 . S
Sm1320 O1343 2.464 . S
Sm1320 O1344 2.396 . S
Sm1320 O1348 2.386 . S
Sm1320 O1351 2.408 . S
Sm1321 C1331 2.846 . S
Sm1321 O1342 2.386 . S
Sm1321 O1345 2.408 . S
Sm1321 O1346 2.543 . S
Sm1321 O1347 2.450 . S
Sm1321 O1348 2.681 . S
Sm1321 O1349 2.464 . S
Sm1321 O1350 2.396 . S
C1322 Sm1320 2.846 . S
C1322 C1323 1.506 . S
C1322 O1340 1.261 . S
C1322 O1341 1.242 . S
C1323 C1322 1.506 . S
C1323 C1324 1.358 . S
C1323 C1328 1.382 . S
C1324 C1323 1.358 . S
C1324 C1325 1.385 . S
C1324 H1352 0.930 . S
C1325 C1324 1.385 . S
C1325 C1326 1.395 . S
C1325 H1353 0.929 . S
C1326 C1325 1.395 . S
C1326 C1327 1.335 . S
C1327 C1326 1.335 . S
C1327 C1328 1.398 . S
C1327 H1354 0.930 . S
C1328 C1323 1.382 . S
C1328 C1327 1.398 . S
C1328 H1355 0.929 . S
C1329 O1342 1.271 . S
C1329 O1343 1.251 . S
C1330 O1344 1.252 . S
C1330 O1345 1.272 . S
C1331 Sm1321 2.846 . S
C1331 C1332 1.506 . S
C1331 O1346 1.261 . S
C1331 O1347 1.242 . S
C1332 C1331 1.506 . S
C1332 C1333 1.358 . S
C1332 C1337 1.382 . S
C1333 C1332 1.358 . S
C1333 C1334 1.385 . S
C1333 H1356 0.930 . S
C1334 C1333 1.385 . S
C1334 C1335 1.395 . S
C1334 H1357 0.929 . S
C1335 C1334 1.395 . S
C1335 C1336 1.335 . S
C1336 C1335 1.335 . S
C1336 C1337 1.398 . S
C1336 H1358 0.930 . S
C1337 C1332 1.382 . S
C1337 C1336 1.398 . S
C1337 H1359 0.929 . S
C1338 O1348 1.271 . S
C1338 O1349 1.251 . S
C1339 O1350 1.252 . S
C1339 O1351 1.272 . S
O1340 Sm1320 2.543 . S
O1340 C1322 1.261 . S
O1341 Sm1320 2.450 . S
O1341 C1322 1.242 . S
O1342 Sm1320 2.681 . S
O1342 Sm1321 2.386 . S
O1342 C1329 1.271 . S
O1343 Sm1320 2.464 . S
O1343 C1329 1.251 . S
O1344 Sm1320 2.396 . S
O1344 C1330 1.252 . S
O1345 Sm1321 2.408 . S
O1345 C1330 1.272 . S
O1346 Sm1321 2.543 . S
O1346 C1331 1.261 . S
O1347 Sm1321 2.450 . S
O1347 C1331 1.242 . S
O1348 Sm1320 2.386 . S
O1348 Sm1321 2.681 . S
O1348 C1338 1.271 . S
O1349 Sm1321 2.464 . S
O1349 C1338 1.251 . S
O1350 Sm1321 2.396 . S
O1350 C1339 1.252 . S
O1351 Sm1320 2.408 . S
O1351 C1339 1.272 . S
H1352 C1324 0.930 . S
H1353 C1325 0.929 . S
H1354 C1327 0.930 . S
H1355 C1328 0.929 . S
H1356 C1333 0.930 . S
H1357 C1334 0.929 . S
H1358 C1336 0.930 . S
H1359 C1337 0.929 . S
Sm1360 C1362 2.846 . S
Sm1360 O1380 2.543 . S
Sm1360 O1381 2.450 . S
Sm1360 O1382 2.681 . S
Sm1360 O1383 2.464 . S
Sm1360 O1384 2.396 . S
Sm1360 O1388 2.386 . S
Sm1360 O1391 2.408 . S
Sm1361 C1371 2.846 . S
Sm1361 O1382 2.386 . S
Sm1361 O1385 2.408 . S
Sm1361 O1386 2.543 . S
Sm1361 O1387 2.450 . S
Sm1361 O1388 2.681 . S
Sm1361 O1389 2.464 . S
Sm1361 O1390 2.396 . S
C1362 Sm1360 2.846 . S
C1362 C1363 1.506 . S
C1362 O1380 1.261 . S
C1362 O1381 1.242 . S
C1363 C1362 1.506 . S
C1363 C1364 1.358 . S
C1363 C1368 1.382 . S
C1364 C1363 1.358 . S
C1364 C1365 1.385 . S
C1364 H1392 0.930 . S
C1365 C1364 1.385 . S
C1365 C1366 1.395 . S
C1365 H1393 0.929 . S
C1366 C1365 1.395 . S
C1366 C1367 1.335 . S
C1367 C1366 1.335 . S
C1367 C1368 1.398 . S
C1367 H1394 0.930 . S
C1368 C1363 1.382 . S
C1368 C1367 1.398 . S
C1368 H1395 0.929 . S
C1369 O1382 1.271 . S
C1369 O1383 1.251 . S
C1370 O1384 1.252 . S
C1370 O1385 1.272 . S
C1371 Sm1361 2.846 . S
C1371 C1372 1.506 . S
C1371 O1386 1.261 . S
C1371 O1387 1.242 . S
C1372 C1371 1.506 . S
C1372 C1373 1.358 . S
C1372 C1377 1.382 . S
C1373 C1372 1.358 . S
C1373 C1374 1.385 . S
C1373 H1396 0.930 . S
C1374 C1373 1.385 . S
C1374 C1375 1.395 . S
C1374 H1397 0.929 . S
C1375 C1374 1.395 . S
C1375 C1376 1.335 . S
C1376 C1375 1.335 . S
C1376 C1377 1.398 . S
C1376 H1398 0.930 . S
C1377 C1372 1.382 . S
C1377 C1376 1.398 . S
C1377 H1399 0.929 . S
C1378 O1388 1.271 . S
C1378 O1389 1.251 . S
C1379 O1390 1.252 . S
C1379 O1391 1.272 . S
O1380 Sm1360 2.543 . S
O1380 C1362 1.261 . S
O1381 Sm1360 2.450 . S
O1381 C1362 1.242 . S
O1382 Sm1360 2.681 . S
O1382 Sm1361 2.386 . S
O1382 C1369 1.271 . S
O1383 Sm1360 2.464 . S
O1383 C1369 1.251 . S
O1384 Sm1360 2.396 . S
O1384 C1370 1.252 . S
O1385 Sm1361 2.408 . S
O1385 C1370 1.272 . S
O1386 Sm1361 2.543 . S
O1386 C1371 1.261 . S
O1387 Sm1361 2.450 . S
O1387 C1371 1.242 . S
O1388 Sm1360 2.386 . S
O1388 Sm1361 2.681 . S
O1388 C1378 1.271 . S
O1389 Sm1361 2.464 . S
O1389 C1378 1.251 . S
O1390 Sm1361 2.396 . S
O1390 C1379 1.252 . S
O1391 Sm1360 2.408 . S
O1391 C1379 1.272 . S
H1392 C1364 0.930 . S
H1393 C1365 0.929 . S
H1394 C1367 0.930 . S
H1395 C1368 0.929 . S
H1396 C1373 0.930 . S
H1397 C1374 0.929 . S
H1398 C1376 0.930 . S
H1399 C1377 0.929 . S
Sm1400 C1402 2.846 . S
Sm1400 O1420 2.543 . S
Sm1400 O1421 2.450 . S
Sm1400 O1422 2.681 . S
Sm1400 O1423 2.464 . S
Sm1400 O1424 2.396 . S
Sm1400 O1428 2.386 . S
Sm1400 O1431 2.408 . S
Sm1401 C1411 2.846 . S
Sm1401 O1422 2.386 . S
Sm1401 O1425 2.408 . S
Sm1401 O1426 2.543 . S
Sm1401 O1427 2.450 . S
Sm1401 O1428 2.681 . S
Sm1401 O1429 2.464 . S
Sm1401 O1430 2.396 . S
C1402 Sm1400 2.846 . S
C1402 C1403 1.506 . S
C1402 O1420 1.261 . S
C1402 O1421 1.242 . S
C1403 C1402 1.506 . S
C1403 C1404 1.358 . S
C1403 C1408 1.382 . S
C1404 C1403 1.358 . S
C1404 C1405 1.385 . S
C1404 H1432 0.930 . S
C1405 C1404 1.385 . S
C1405 C1406 1.395 . S
C1405 H1433 0.929 . S
C1406 C1405 1.395 . S
C1406 C1407 1.335 . S
C1407 C1406 1.335 . S
C1407 C1408 1.398 . S
C1407 H1434 0.930 . S
C1408 C1403 1.382 . S
C1408 C1407 1.398 . S
C1408 H1435 0.929 . S
C1409 O1422 1.271 . S
C1409 O1423 1.251 . S
C1410 O1424 1.252 . S
C1410 O1425 1.272 . S
C1411 Sm1401 2.846 . S
C1411 C1412 1.506 . S
C1411 O1426 1.261 . S
C1411 O1427 1.242 . S
C1412 C1411 1.506 . S
C1412 C1413 1.358 . S
C1412 C1417 1.382 . S
C1413 C1412 1.358 . S
C1413 C1414 1.385 . S
C1413 H1436 0.930 . S
C1414 C1413 1.385 . S
C1414 C1415 1.395 . S
C1414 H1437 0.929 . S
C1415 C1414 1.395 . S
C1415 C1416 1.335 . S
C1416 C1415 1.335 . S
C1416 C1417 1.398 . S
C1416 H1438 0.930 . S
C1417 C1412 1.382 . S
C1417 C1416 1.398 . S
C1417 H1439 0.929 . S
C1418 O1428 1.271 . S
C1418 O1429 1.251 . S
C1419 O1430 1.252 . S
C1419 O1431 1.272 . S
O1420 Sm1400 2.543 . S
O1420 C1402 1.261 . S
O1421 Sm1400 2.450 . S
O1421 C1402 1.242 . S
O1422 Sm1400 2.681 . S
O1422 Sm1401 2.386 . S
O1422 C1409 1.271 . S
O1423 Sm1400 2.464 . S
O1423 C1409 1.251 . S
O1424 Sm1400 2.396 . S
O1424 C1410 1.252 . S
O1425 Sm1401 2.408 . S
O1425 C1410 1.272 . S
O1426 Sm1401 2.543 . S
O1426 C1411 1.261 . S
O1427 Sm1401 2.450 . S
O1427 C1411 1.242 . S
O1428 Sm1400 2.386 . S
O1428 Sm1401 2.681 . S
O1428 C1418 1.271 . S
O1429 Sm1401 2.464 . S
O1429 C1418 1.251 . S
O1430 Sm1401 2.396 . S
O1430 C1419 1.252 . S
O1431 Sm1400 2.408 . S
O1431 C1419 1.272 . S
H1432 C1404 0.930 . S
H1433 C1405 0.929 . S
H1434 C1407 0.930 . S
H1435 C1408 0.929 . S
H1436 C1413 0.930 . S
H1437 C1414 0.929 . S
H1438 C1416 0.930 . S
H1439 C1417 0.929 . S
C1440 C1441 1.387 . S
C1440 H1444 0.950 . S
C1440 C1449 1.390 1_556 S
C1441 C1440 1.387 . S
C1441 C1443 1.387 . S
H1442 C1449 0.950 . S
C1443 C1441 1.387 . S
C1443 C1445 1.390 1_556 S
C1443 H1447 0.950 . S
H1444 C1440 0.950 . S
C1445 C1443 1.390 1_554 S
C1445 C1446 1.387 . S
C1445 H1448 0.950 . S
C1446 C1445 1.387 . S
C1446 C1449 1.387 . S
H1447 C1443 0.950 . S
H1448 C1445 0.950 . S
C1449 C1440 1.390 1_554 S
C1449 H1442 0.950 . S
C1449 C1446 1.387 . S
C1450 C1451 1.387 . S
C1450 H1454 0.950 . S
C1450 C1459 1.390 1_556 S
C1451 C1450 1.387 . S
C1451 C1453 1.387 . S
H1452 C1459 0.950 . S
C1453 C1451 1.387 . S
C1453 C1455 1.390 1_556 S
C1453 H1457 0.950 . S
H1454 C1450 0.950 . S
C1455 C1453 1.390 1_554 S
C1455 C1456 1.387 . S
C1455 H1458 0.950 . S
C1456 C1455 1.387 . S
C1456 C1459 1.387 . S
H1457 C1453 0.950 . S
H1458 C1455 0.950 . S
C1459 C1450 1.390 1_554 S
C1459 H1452 0.950 . S
C1459 C1456 1.387 . S
C1460 C1461 1.387 . S
C1460 H1464 0.950 . S
C1460 C1469 1.390 1_554 S
C1461 C1460 1.387 . S
C1461 C1463 1.387 . S
H1462 C1469 0.950 . S
C1463 C1461 1.387 . S
C1463 C1465 1.390 1_554 S
C1463 H1467 0.950 . S
H1464 C1460 0.950 . S
C1465 C1463 1.390 1_556 S
C1465 C1466 1.387 . S
C1465 H1468 0.950 . S
C1466 C1465 1.387 . S
C1466 C1469 1.387 . S
H1467 C1463 0.950 . S
H1468 C1465 0.950 . S
C1469 C1460 1.390 1_556 S
C1469 H1462 0.950 . S
C1469 C1466 1.387 . S
C1470 C1471 1.387 . S
C1470 H1474 0.950 . S
C1470 C1479 1.390 . S
C1471 C1470 1.387 . S
C1471 C1473 1.387 . S
H1472 C1479 0.950 . S
C1473 C1471 1.387 . S
C1473 C1475 1.390 . S
C1473 H1477 0.950 . S
H1474 C1470 0.950 . S
C1475 C1473 1.390 . S
C1475 C1476 1.387 . S
C1475 H1478 0.950 . S
C1476 C1475 1.387 . S
C1476 C1479 1.387 . S
H1477 C1473 0.950 . S
H1478 C1475 0.950 . S
C1479 C1470 1.390 . S
C1479 H1472 0.950 . S
C1479 C1476 1.387 . S
C1480 C1481 1.387 . S
C1480 H1484 0.950 . S
C1480 C1489 1.390 . S
C1481 C1480 1.387 . S
C1481 C1483 1.387 . S
H1482 C1489 0.950 . S
C1483 C1481 1.387 . S
C1483 C1485 1.390 . S
C1483 H1487 0.950 . S
H1484 C1480 0.950 . S
C1485 C1483 1.390 . S
C1485 C1486 1.387 . S
C1485 H1488 0.950 . S
C1486 C1485 1.387 . S
C1486 C1489 1.387 . S
H1487 C1483 0.950 . S
H1488 C1485 0.950 . S
C1489 C1480 1.390 . S
C1489 H1482 0.950 . S
C1489 C1486 1.387 . S
C1490 C1491 1.387 . S
C1490 H1494 0.950 . S
C1490 C1499 1.390 . S
C1491 C1490 1.387 . S
C1491 C1493 1.387 . S
H1492 C1499 0.950 . S
C1493 C1491 1.387 . S
C1493 C1495 1.390 . S
C1493 H1497 0.950 . S
H1494 C1490 0.950 . S
C1495 C1493 1.390 . S
C1495 C1496 1.387 . S
C1495 H1498 0.950 . S
C1496 C1495 1.387 . S
C1496 C1499 1.387 . S
H1497 C1493 0.950 . S
H1498 C1495 0.950 . S
C1499 C1490 1.390 . S
C1499 H1492 0.950 . S
C1499 C1496 1.387 . S
C1500 C1501 1.387 . S
C1500 H1504 0.950 . S
C1500 C1509 1.390 . S
C1501 C1500 1.387 . S
C1501 C1503 1.387 . S
H1502 C1509 0.950 . S
C1503 C1501 1.387 . S
C1503 C1505 1.390 . S
C1503 H1507 0.950 . S
H1504 C1500 0.950 . S
C1505 C1503 1.390 . S
C1505 C1506 1.387 . S
C1505 H1508 0.950 . S
C1506 C1505 1.387 . S
C1506 C1509 1.387 . S
H1507 C1503 0.950 . S
H1508 C1505 0.950 . S
C1509 C1500 1.390 . S
C1509 H1502 0.950 . S
C1509 C1506 1.387 . S
C1510 C1511 1.387 . S
C1510 H1514 0.950 . S
C1510 C1519 1.390 . S
C1511 C1510 1.387 . S
C1511 C1513 1.387 . S
H1512 C1519 0.950 . S
C1513 C1511 1.387 . S
C1513 C1515 1.390 . S
C1513 H1517 0.950 . S
H1514 C1510 0.950 . S
C1515 C1513 1.390 . S
C1515 C1516 1.387 . S
C1515 H1518 0.950 . S
C1516 C1515 1.387 . S
C1516 C1519 1.387 . S
H1517 C1513 0.950 . S
H1518 C1515 0.950 . S
C1519 C1510 1.390 . S
C1519 H1512 0.950 . S
C1519 C1516 1.387 . S
C1520 C1521 1.387 . S
C1520 H1524 0.950 . S
C1520 C1529 1.390 . S
C1521 C1520 1.387 . S
C1521 C1523 1.387 . S
H1522 C1529 0.950 . S
C1523 C1521 1.387 . S
C1523 C1525 1.390 . S
C1523 H1527 0.950 . S
H1524 C1520 0.950 . S
C1525 C1523 1.390 . S
C1525 C1526 1.387 . S
C1525 H1528 0.950 . S
C1526 C1525 1.387 . S
C1526 C1529 1.387 . S
H1527 C1523 0.950 . S
H1528 C1525 0.950 . S
C1529 C1520 1.390 . S
C1529 H1522 0.950 . S
C1529 C1526 1.387 . S
C1530 C1531 1.387 . S
C1530 H1534 0.950 . S
C1530 C1539 1.390 . S
C1531 C1530 1.387 . S
C1531 C1533 1.387 . S
H1532 C1539 0.950 . S
C1533 C1531 1.387 . S
C1533 C1535 1.390 . S
C1533 H1537 0.950 . S
H1534 C1530 0.950 . S
C1535 C1533 1.390 . S
C1535 C1536 1.387 . S
C1535 H1538 0.950 . S
C1536 C1535 1.387 . S
C1536 C1539 1.387 . S
H1537 C1533 0.950 . S
H1538 C1535 0.950 . S
C1539 C1530 1.390 . S
C1539 H1532 0.950 . S
C1539 C1536 1.387 . S
C1540 C1541 1.387 . S
C1540 H1544 0.950 . S
C1540 C1549 1.390 . S
C1541 C1540 1.387 . S
C1541 C1543 1.387 . S
H1542 C1549 0.950 . S
C1543 C1541 1.387 . S
C1543 C1545 1.390 . S
C1543 H1547 0.950 . S
H1544 C1540 0.950 . S
C1545 C1543 1.390 . S
C1545 C1546 1.387 . S
C1545 H1548 0.950 . S
C1546 C1545 1.387 . S
C1546 C1549 1.387 . S
H1547 C1543 0.950 . S
H1548 C1545 0.950 . S
C1549 C1540 1.390 . S
C1549 H1542 0.950 . S
C1549 C1546 1.387 . S
C1550 C1551 1.387 . S
C1550 H1554 0.950 . S
C1550 C1559 1.390 . S
C1551 C1550 1.387 . S
C1551 C1553 1.387 . S
H1552 C1559 0.950 . S
C1553 C1551 1.387 . S
C1553 C1555 1.390 . S
C1553 H1557 0.950 . S
H1554 C1550 0.950 . S
C1555 C1553 1.390 . S
C1555 C1556 1.387 . S
C1555 H1558 0.950 . S
C1556 C1555 1.387 . S
C1556 C1559 1.387 . S
H1557 C1553 0.950 . S
H1558 C1555 0.950 . S
C1559 C1550 1.390 . S
C1559 H1552 0.950 . S
C1559 C1556 1.387 . S
C1560 C1561 1.387 . S
C1560 H1564 0.950 . S
C1560 C1569 1.390 . S
C1561 C1560 1.387 . S
C1561 C1563 1.387 . S
H1562 C1569 0.950 . S
C1563 C1561 1.387 . S
C1563 C1565 1.390 . S
C1563 H1567 0.950 . S
H1564 C1560 0.950 . S
C1565 C1563 1.390 . S
C1565 C1566 1.387 . S
C1565 H1568 0.950 . S
C1566 C1565 1.387 . S
C1566 C1569 1.387 . S
H1567 C1563 0.950 . S
H1568 C1565 0.950 . S
C1569 C1560 1.390 . S
C1569 H1562 0.950 . S
C1569 C1566 1.387 . S
C1570 C1571 1.387 . S
C1570 H1574 0.950 . S
C1570 C1579 1.390 1_565 S
C1571 C1570 1.387 . S
C1571 C1573 1.387 . S
H1572 C1579 0.950 . S
C1573 C1571 1.387 . S
C1573 C1575 1.390 1_565 S
C1573 H1577 0.950 . S
H1574 C1570 0.950 . S
C1575 C1573 1.390 1_545 S
C1575 C1576 1.387 . S
C1575 H1578 0.950 . S
C1576 C1575 1.387 . S
C1576 C1579 1.387 . S
H1577 C1573 0.950 . S
H1578 C1575 0.950 . S
C1579 C1570 1.390 1_545 S
C1579 H1572 0.950 . S
C1579 C1576 1.387 . S
C1580 C1581 1.387 . S
C1580 H1584 0.950 . S
C1580 C1589 1.390 . S
C1581 C1580 1.387 . S
C1581 C1583 1.387 1_655 S
H1582 C1589 0.950 . S
C1583 C1581 1.387 1_455 S
C1583 C1585 1.390 . S
C1583 H1587 0.950 . S
H1584 C1580 0.950 . S
C1585 C1583 1.390 . S
C1585 C1586 1.387 . S
C1585 H1588 0.950 . S
C1586 C1585 1.387 . S
C1586 C1589 1.387 1_455 S
H1587 C1583 0.950 . S
H1588 C1585 0.950 . S
C1589 C1580 1.390 . S
C1589 H1582 0.950 . S
C1589 C1586 1.387 1_655 S
C1590 C1591 1.387 . S
C1590 H1594 0.950 . S
C1590 C1599 1.390 . S
C1591 C1590 1.387 . S
C1591 C1593 1.387 . S
H1592 C1599 0.950 . S
C1593 C1591 1.387 . S
C1593 C1595 1.390 . S
C1593 H1597 0.950 . S
H1594 C1590 0.950 . S
C1595 C1593 1.390 . S
C1595 C1596 1.387 . S
C1595 H1598 0.950 . S
C1596 C1595 1.387 . S
C1596 C1599 1.387 . S
H1597 C1593 0.950 . S
H1598 C1595 0.950 . S
C1599 C1590 1.390 . S
C1599 H1592 0.950 . S
C1599 C1596 1.387 . S
C1600 C1601 1.387 . S
C1600 H1604 0.950 . S
C1600 C1609 1.390 1_545 S
C1601 C1600 1.387 . S
C1601 C1603 1.387 . S
H1602 C1609 0.950 . S
C1603 C1601 1.387 . S
C1603 C1605 1.390 1_545 S
C1603 H1607 0.950 . S
H1604 C1600 0.950 . S
C1605 C1603 1.390 1_565 S
C1605 C1606 1.387 . S
C1605 H1608 0.950 . S
C1606 C1605 1.387 . S
C1606 C1609 1.387 . S
H1607 C1603 0.950 . S
H1608 C1605 0.950 . S
C1609 C1600 1.390 1_565 S
C1609 H1602 0.950 . S
C1609 C1606 1.387 . S
C1610 C1611 1.387 1_655 S
C1610 H1614 0.950 . S
C1610 C1619 1.390 . S
C1611 C1610 1.387 1_455 S
C1611 C1613 1.387 . S
H1612 C1619 0.950 . S
C1613 C1611 1.387 . S
C1613 C1615 1.390 . S
C1613 H1617 0.950 . S
H1614 C1610 0.950 . S
C1615 C1613 1.390 . S
C1615 C1616 1.387 1_455 S
C1615 H1618 0.950 . S
C1616 C1615 1.387 1_655 S
C1616 C1619 1.387 . S
H1617 C1613 0.950 . S
H1618 C1615 0.950 . S
C1619 C1610 1.390 . S
C1619 H1612 0.950 . S
C1619 C1616 1.387 . S
C1620 C1621 1.387 1_655 S
C1620 H1624 0.950 . S
C1620 C1629 1.390 . S
C1621 C1620 1.387 1_455 S
C1621 C1623 1.387 . S
H1622 C1629 0.950 . S
C1623 C1621 1.387 . S
C1623 C1625 1.390 . S
C1623 H1627 0.950 . S
H1624 C1620 0.950 . S
C1625 C1623 1.390 . S
C1625 C1626 1.387 1_455 S
C1625 H1628 0.950 . S
C1626 C1625 1.387 1_655 S
C1626 C1629 1.387 . S
H1627 C1623 0.950 . S
H1628 C1625 0.950 . S
C1629 C1620 1.390 . S
C1629 H1622 0.950 . S
C1629 C1626 1.387 . S
C1630 C1631 1.387 . S
C1630 H1634 0.950 . S
C1630 C1639 1.390 . S
C1631 C1630 1.387 . S
C1631 C1633 1.387 . S
H1632 C1639 0.950 . S
C1633 C1631 1.387 . S
C1633 C1635 1.390 . S
C1633 H1637 0.950 . S
H1634 C1630 0.950 . S
C1635 C1633 1.390 . S
C1635 C1636 1.387 . S
C1635 H1638 0.950 . S
C1636 C1635 1.387 . S
C1636 C1639 1.387 . S
H1637 C1633 0.950 . S
H1638 C1635 0.950 . S
C1639 C1630 1.390 . S
C1639 H1632 0.950 . S
C1639 C1636 1.387 . S
C1640 C1641 1.387 . S
C1640 H1644 0.950 . S
C1640 C1649 1.390 1_565 S
C1641 C1640 1.387 . S
C1641 C1643 1.387 . S
H1642 C1649 0.950 . S
C1643 C1641 1.387 . S
C1643 C1645 1.390 1_565 S
C1643 H1647 0.950 . S
H1644 C1640 0.950 . S
C1645 C1643 1.390 1_545 S
C1645 C1646 1.387 . S
C1645 H1648 0.950 . S
C1646 C1645 1.387 . S
C1646 C1649 1.387 . S
H1647 C1643 0.950 . S
H1648 C1645 0.950 . S
C1649 C1640 1.390 1_545 S
C1649 H1642 0.950 . S
C1649 C1646 1.387 . S
C1650 C1651 1.387 . S
C1650 H1654 0.950 . S
C1650 C1659 1.390 1_655 S
C1651 C1650 1.387 . S
C1651 C1653 1.387 . S
H1652 C1659 0.950 . S
C1653 C1651 1.387 . S
C1653 C1655 1.390 1_655 S
C1653 H1657 0.950 . S
H1654 C1650 0.950 . S
C1655 C1653 1.390 1_455 S
C1655 C1656 1.387 . S
C1655 H1658 0.950 . S
C1656 C1655 1.387 . S
C1656 C1659 1.387 . S
H1657 C1653 0.950 . S
H1658 C1655 0.950 . S
C1659 C1650 1.390 1_455 S
C1659 H1652 0.950 . S
C1659 C1656 1.387 . S
C1660 C1661 1.387 . S
C1660 H1664 0.950 . S
C1660 C1669 1.390 . S
C1661 C1660 1.387 . S
C1661 C1663 1.387 . S
H1662 C1669 0.950 . S
C1663 C1661 1.387 . S
C1663 C1665 1.390 . S
C1663 H1667 0.950 . S
H1664 C1660 0.950 . S
C1665 C1663 1.390 . S
C1665 C1666 1.387 . S
C1665 H1668 0.950 . S
C1666 C1665 1.387 . S
C1666 C1669 1.387 . S
H1667 C1663 0.950 . S
H1668 C1665 0.950 . S
C1669 C1660 1.390 . S
C1669 H1662 0.950 . S
C1669 C1666 1.387 . S
C1670 C1671 1.387 . S
C1670 H1674 0.950 . S
C1670 C1679 1.390 1_545 S
C1671 C1670 1.387 . S
C1671 C1673 1.387 . S
H1672 C1679 0.950 . S
C1673 C1671 1.387 . S
C1673 C1675 1.390 1_545 S
C1673 H1677 0.950 . S
H1674 C1670 0.950 . S
C1675 C1673 1.390 1_565 S
C1675 C1676 1.387 . S
C1675 H1678 0.950 . S
C1676 C1675 1.387 . S
C1676 C1679 1.387 . S
H1677 C1673 0.950 . S
H1678 C1675 0.950 . S
C1679 C1670 1.390 1_565 S
C1679 H1672 0.950 . S
C1679 C1676 1.387 . S
C1680 C1681 1.387 . S
C1680 H1684 0.950 . S
C1680 C1689 1.390 . S
C1681 C1680 1.387 . S
C1681 C1683 1.387 . S
H1682 C1689 0.950 . S
C1683 C1681 1.387 . S
C1683 C1685 1.390 . S
C1683 H1687 0.950 . S
H1684 C1680 0.950 . S
C1685 C1683 1.390 . S
C1685 C1686 1.387 . S
C1685 H1688 0.950 . S
C1686 C1685 1.387 . S
C1686 C1689 1.387 . S
H1687 C1683 0.950 . S
H1688 C1685 0.950 . S
C1689 C1680 1.390 . S
C1689 H1682 0.950 . S
C1689 C1686 1.387 . S
C1690 C1691 1.387 . S
C1690 H1694 0.950 . S
C1690 C1699 1.390 . S
C1691 C1690 1.387 . S
C1691 C1693 1.387 . S
H1692 C1699 0.950 . S
C1693 C1691 1.387 . S
C1693 C1695 1.390 . S
C1693 H1697 0.950 . S
H1694 C1690 0.950 . S
C1695 C1693 1.390 . S
C1695 C1696 1.387 . S
C1695 H1698 0.950 . S
C1696 C1695 1.387 . S
C1696 C1699 1.387 . S
H1697 C1693 0.950 . S
H1698 C1695 0.950 . S
C1699 C1690 1.390 . S
C1699 H1692 0.950 . S
C1699 C1696 1.387 . S
C1700 C1701 1.387 . S
C1700 H1704 0.950 . S
C1700 C1709 1.390 . S
C1701 C1700 1.387 . S
C1701 C1703 1.387 . S
H1702 C1709 0.950 . S
C1703 C1701 1.387 . S
C1703 C1705 1.390 . S
C1703 H1707 0.950 . S
H1704 C1700 0.950 . S
C1705 C1703 1.390 . S
C1705 C1706 1.387 . S
C1705 H1708 0.950 . S
C1706 C1705 1.387 . S
C1706 C1709 1.387 . S
H1707 C1703 0.950 . S
H1708 C1705 0.950 . S
C1709 C1700 1.390 . S
C1709 H1702 0.950 . S
C1709 C1706 1.387 . S
C1710 C1711 1.387 . S
C1710 H1714 0.950 . S
C1710 C1719 1.390 . S
C1711 C1710 1.387 . S
C1711 C1713 1.387 . S
H1712 C1719 0.950 . S
C1713 C1711 1.387 . S
C1713 C1715 1.390 . S
C1713 H1717 0.950 . S
H1714 C1710 0.950 . S
C1715 C1713 1.390 . S
C1715 C1716 1.387 . S
C1715 H1718 0.950 . S
C1716 C1715 1.387 . S
C1716 C1719 1.387 . S
H1717 C1713 0.950 . S
H1718 C1715 0.950 . S
C1719 C1710 1.390 . S
C1719 H1712 0.950 . S
C1719 C1716 1.387 . S
C1720 C1721 1.387 . S
C1720 H1724 0.950 . S
C1720 C1729 1.390 . S
C1721 C1720 1.387 . S
C1721 C1723 1.387 . S
H1722 C1729 0.950 . S
C1723 C1721 1.387 . S
C1723 C1725 1.390 . S
C1723 H1727 0.950 . S
H1724 C1720 0.950 . S
C1725 C1723 1.390 . S
C1725 C1726 1.387 . S
C1725 H1728 0.950 . S
C1726 C1725 1.387 . S
C1726 C1729 1.387 . S
H1727 C1723 0.950 . S
H1728 C1725 0.950 . S
C1729 C1720 1.390 . S
C1729 H1722 0.950 . S
C1729 C1726 1.387 . S
C1730 C1731 1.387 . S
C1730 H1734 0.950 . S
C1730 C1739 1.390 . S
C1731 C1730 1.387 . S
C1731 C1733 1.387 . S
H1732 C1739 0.950 . S
C1733 C1731 1.387 . S
C1733 C1735 1.390 . S
C1733 H1737 0.950 . S
H1734 C1730 0.950 . S
C1735 C1733 1.390 . S
C1735 C1736 1.387 . S
C1735 H1738 0.950 . S
C1736 C1735 1.387 . S
C1736 C1739 1.387 . S
H1737 C1733 0.950 . S
H1738 C1735 0.950 . S
C1739 C1730 1.390 . S
C1739 H1732 0.950 . S
C1739 C1736 1.387 . S
C1740 C1741 1.387 . S
C1740 H1744 0.950 . S
C1740 C1749 1.390 . S
C1741 C1740 1.387 . S
C1741 C1743 1.387 . S
H1742 C1749 0.950 . S
C1743 C1741 1.387 . S
C1743 C1745 1.390 . S
C1743 H1747 0.950 . S
H1744 C1740 0.950 . S
C1745 C1743 1.390 . S
C1745 C1746 1.387 . S
C1745 H1748 0.950 . S
C1746 C1745 1.387 . S
C1746 C1749 1.387 . S
H1747 C1743 0.950 . S
H1748 C1745 0.950 . S
C1749 C1740 1.390 . S
C1749 H1742 0.950 . S
C1749 C1746 1.387 . S
C1750 C1751 1.387 . S
C1750 H1754 0.950 . S
C1750 C1759 1.390 . S
C1751 C1750 1.387 . S
C1751 C1753 1.387 . S
H1752 C1759 0.950 . S
C1753 C1751 1.387 . S
C1753 C1755 1.390 . S
C1753 H1757 0.950 . S
H1754 C1750 0.950 . S
C1755 C1753 1.390 . S
C1755 C1756 1.387 . S
C1755 H1758 0.950 . S
C1756 C1755 1.387 . S
C1756 C1759 1.387 . S
H1757 C1753 0.950 . S
H1758 C1755 0.950 . S
C1759 C1750 1.390 . S
C1759 H1752 0.950 . S
C1759 C1756 1.387 . S
C1760 C1761 1.387 . S
C1760 H1764 0.950 . S
C1760 C1769 1.390 . S
C1761 C1760 1.387 . S
C1761 C1763 1.387 . S
H1762 C1769 0.950 . S
C1763 C1761 1.387 . S
C1763 C1765 1.390 . S
C1763 H1767 0.950 . S
H1764 C1760 0.950 . S
C1765 C1763 1.390 . S
C1765 C1766 1.387 . S
C1765 H1768 0.950 . S
C1766 C1765 1.387 . S
C1766 C1769 1.387 . S
H1767 C1763 0.950 . S
H1768 C1765 0.950 . S
C1769 C1760 1.390 . S
C1769 H1762 0.950 . S
C1769 C1766 1.387 . S
C1770 C1771 1.387 . S
C1770 H1774 0.950 . S
C1770 C1779 1.390 1_556 S
C1771 C1770 1.387 . S
C1771 C1773 1.387 . S
H1772 C1779 0.950 . S
C1773 C1771 1.387 . S
C1773 C1775 1.390 . S
C1773 H1777 0.950 . S
H1774 C1770 0.950 . S
C1775 C1773 1.390 . S
C1775 C1776 1.387 1_556 S
C1775 H1778 0.950 . S
C1776 C1775 1.387 1_554 S
C1776 C1779 1.387 . S
H1777 C1773 0.950 . S
H1778 C1775 0.950 . S
C1779 C1770 1.390 1_554 S
C1779 H1772 0.950 . S
C1779 C1776 1.387 . S
C1780 C1781 1.387 . S
C1780 H1784 0.950 . S
C1780 C1789 1.390 . S
C1781 C1780 1.387 . S
C1781 C1783 1.387 . S
H1782 C1789 0.950 . S
C1783 C1781 1.387 . S
C1783 C1785 1.390 1_556 S
C1783 H1787 0.950 . S
H1784 C1780 0.950 . S
C1785 C1783 1.390 1_554 S
C1785 C1786 1.387 . S
C1785 H1788 0.950 . S
C1786 C1785 1.387 . S
C1786 C1789 1.387 1_554 S
H1787 C1783 0.950 . S
H1788 C1785 0.950 . S
C1789 C1780 1.390 . S
C1789 H1782 0.950 . S
C1789 C1786 1.387 1_556 S
C1790 C1791 1.387 . S
C1790 H1794 0.950 . S
C1790 C1799 1.390 1_556 S
C1791 C1790 1.387 . S
C1791 C1793 1.387 . S
H1792 C1799 0.950 . S
C1793 C1791 1.387 . S
C1793 C1795 1.390 1_556 S
C1793 H1797 0.950 . S
H1794 C1790 0.950 . S
C1795 C1793 1.390 1_554 S
C1795 C1796 1.387 . S
C1795 H1798 0.950 . S
C1796 C1795 1.387 . S
C1796 C1799 1.387 . S
H1797 C1793 0.950 . S
H1798 C1795 0.950 . S
C1799 C1790 1.390 1_554 S
C1799 H1792 0.950 . S
C1799 C1796 1.387 . S
C1800 C1801 1.387 . S
C1800 H1804 0.950 . S
C1800 C1809 1.390 . S
C1801 C1800 1.387 . S
C1801 C1803 1.387 . S
H1802 C1809 0.950 . S
C1803 C1801 1.387 . S
C1803 C1805 1.390 . S
C1803 H1807 0.950 . S
H1804 C1800 0.950 . S
C1805 C1803 1.390 . S
C1805 C1806 1.387 . S
C1805 H1808 0.950 . S
C1806 C1805 1.387 . S
C1806 C1809 1.387 . S
H1807 C1803 0.950 . S
H1808 C1805 0.950 . S
C1809 C1800 1.390 . S
C1809 H1802 0.950 . S
C1809 C1806 1.387 . S
C1810 C1811 1.387 . S
C1810 H1814 0.950 . S
C1810 C1819 1.390 . S
C1811 C1810 1.387 . S
C1811 C1813 1.387 . S
H1812 C1819 0.950 . S
C1813 C1811 1.387 . S
C1813 C1815 1.390 . S
C1813 H1817 0.950 1_556 S
H1814 C1810 0.950 . S
C1815 C1813 1.390 . S
C1815 C1816 1.387 . S
C1815 H1818 0.950 . S
C1816 C1815 1.387 . S
C1816 C1819 1.387 . S
H1817 C1813 0.950 1_554 S
H1818 C1815 0.950 . S
C1819 C1810 1.390 . S
C1819 H1812 0.950 . S
C1819 C1816 1.387 . S
C1820 C1821 1.387 . S
C1820 H1824 0.950 . S
C1820 C1829 1.390 . S
C1821 C1820 1.387 . S
C1821 C1823 1.387 . S
H1822 C1829 0.950 . S
C1823 C1821 1.387 . S
C1823 C1825 1.390 . S
C1823 H1827 0.950 . S
H1824 C1820 0.950 . S
C1825 C1823 1.390 . S
C1825 C1826 1.387 . S
C1825 H1828 0.950 . S
C1826 C1825 1.387 . S
C1826 C1829 1.387 . S
H1827 C1823 0.950 . S
H1828 C1825 0.950 . S
C1829 C1820 1.390 . S
C1829 H1822 0.950 . S
C1829 C1826 1.387 . S
C1830 C1831 1.387 . S
C1830 H1834 0.950 . S
C1830 C1839 1.390 . S
C1831 C1830 1.387 . S
C1831 C1833 1.387 . S
H1832 C1839 0.950 . S
C1833 C1831 1.387 . S
C1833 C1835 1.390 . S
C1833 H1837 0.950 . S
H1834 C1830 0.950 . S
C1835 C1833 1.390 . S
C1835 C1836 1.387 . S
C1835 H1838 0.950 . S
C1836 C1835 1.387 . S
C1836 C1839 1.387 . S
H1837 C1833 0.950 . S
H1838 C1835 0.950 . S
C1839 C1830 1.390 . S
C1839 H1832 0.950 . S
C1839 C1836 1.387 . S
C1840 C1841 1.387 . S
C1840 H1844 0.950 . S
C1840 C1849 1.390 . S
C1841 C1840 1.387 . S
C1841 C1843 1.387 . S
H1842 C1849 0.950 . S
C1843 C1841 1.387 . S
C1843 C1845 1.390 . S
C1843 H1847 0.950 . S
H1844 C1840 0.950 . S
C1845 C1843 1.390 . S
C1845 C1846 1.387 . S
C1845 H1848 0.950 . S
C1846 C1845 1.387 . S
C1846 C1849 1.387 . S
H1847 C1843 0.950 . S
H1848 C1845 0.950 . S
C1849 C1840 1.390 . S
C1849 H1842 0.950 . S
C1849 C1846 1.387 . S
C1850 C1851 1.387 . S
C1850 H1854 0.950 . S
C1850 C1859 1.390 . S
C1851 C1850 1.387 . S
C1851 C1853 1.387 . S
H1852 C1859 0.950 . S
C1853 C1851 1.387 . S
C1853 C1855 1.390 . S
C1853 H1857 0.950 . S
H1854 C1850 0.950 . S
C1855 C1853 1.390 . S
C1855 C1856 1.387 . S
C1855 H1858 0.950 . S
C1856 C1855 1.387 . S
C1856 C1859 1.387 . S
H1857 C1853 0.950 . S
H1858 C1855 0.950 . S
C1859 C1850 1.390 . S
C1859 H1852 0.950 . S
C1859 C1856 1.387 . S
C1860 C1861 1.387 . S
C1860 H1864 0.950 . S
C1860 C1869 1.390 . S
C1861 C1860 1.387 . S
C1861 C1863 1.387 . S
H1862 C1869 0.950 . S
C1863 C1861 1.387 . S
C1863 C1865 1.390 . S
C1863 H1867 0.950 . S
H1864 C1860 0.950 . S
C1865 C1863 1.390 . S
C1865 C1866 1.387 . S
C1865 H1868 0.950 . S
C1866 C1865 1.387 . S
C1866 C1869 1.387 . S
H1867 C1863 0.950 . S
H1868 C1865 0.950 . S
C1869 C1860 1.390 . S
C1869 H1862 0.950 . S
C1869 C1866 1.387 . S
C1870 C1871 1.387 . S
C1870 H1874 0.950 . S
C1870 C1879 1.390 . S
C1871 C1870 1.387 . S
C1871 C1873 1.387 . S
H1872 C1879 0.950 . S
C1873 C1871 1.387 . S
C1873 C1875 1.390 . S
C1873 H1877 0.950 . S
H1874 C1870 0.950 . S
C1875 C1873 1.390 . S
C1875 C1876 1.387 . S
C1875 H1878 0.950 . S
C1876 C1875 1.387 . S
C1876 C1879 1.387 . S
H1877 C1873 0.950 . S
H1878 C1875 0.950 . S
C1879 C1870 1.390 . S
C1879 H1872 0.950 . S
C1879 C1876 1.387 . S
C1880 C1881 1.387 . S
C1880 H1884 0.950 . S
C1880 C1889 1.390 . S
C1881 C1880 1.387 . S
C1881 C1883 1.387 . S
H1882 C1889 0.950 . S
C1883 C1881 1.387 . S
C1883 C1885 1.390 . S
C1883 H1887 0.950 . S
H1884 C1880 0.950 . S
C1885 C1883 1.390 . S
C1885 C1886 1.387 . S
C1885 H1888 0.950 . S
C1886 C1885 1.387 . S
C1886 C1889 1.387 . S
H1887 C1883 0.950 . S
H1888 C1885 0.950 . S
C1889 C1880 1.390 . S
C1889 H1882 0.950 . S
C1889 C1886 1.387 . S
C1890 C1891 1.387 . S
C1890 H1894 0.950 . S
C1890 C1899 1.390 . S
C1891 C1890 1.387 . S
C1891 C1893 1.387 . S
H1892 C1899 0.950 . S
C1893 C1891 1.387 . S
C1893 C1895 1.390 . S
C1893 H1897 0.950 . S
H1894 C1890 0.950 . S
C1895 C1893 1.390 . S
C1895 C1896 1.387 . S
C1895 H1898 0.950 . S
C1896 C1895 1.387 . S
C1896 C1899 1.387 . S
H1897 C1893 0.950 . S
H1898 C1895 0.950 . S
C1899 C1890 1.390 . S
C1899 H1892 0.950 . S
C1899 C1896 1.387 . S
C1900 C1901 1.387 . S
C1900 H1904 0.950 . S
C1900 C1909 1.390 . S
C1901 C1900 1.387 . S
C1901 C1903 1.387 . S
H1902 C1909 0.950 . S
C1903 C1901 1.387 . S
C1903 C1905 1.390 . S
C1903 H1907 0.950 . S
H1904 C1900 0.950 . S
C1905 C1903 1.390 . S
C1905 C1906 1.387 . S
C1905 H1908 0.950 . S
C1906 C1905 1.387 . S
C1906 C1909 1.387 . S
H1907 C1903 0.950 . S
H1908 C1905 0.950 . S
C1909 C1900 1.390 . S
C1909 H1902 0.950 . S
C1909 C1906 1.387 . S
C1910 C1911 1.387 . S
C1910 H1914 0.950 . S
C1910 C1919 1.390 . S
C1911 C1910 1.387 . S
C1911 C1913 1.387 . S
H1912 C1919 0.950 . S
C1913 C1911 1.387 . S
C1913 C1915 1.390 . S
C1913 H1917 0.950 . S
H1914 C1910 0.950 . S
C1915 C1913 1.390 . S
C1915 C1916 1.387 . S
C1915 H1918 0.950 . S
C1916 C1915 1.387 . S
C1916 C1919 1.387 . S
H1917 C1913 0.950 . S
H1918 C1915 0.950 . S
C1919 C1910 1.390 . S
C1919 H1912 0.950 . S
C1919 C1916 1.387 . S
C1920 C1921 1.387 . S
C1920 H1924 0.950 . S
C1920 C1929 1.390 . S
C1921 C1920 1.387 . S
C1921 C1923 1.387 . S
H1922 C1929 0.950 . S
C1923 C1921 1.387 . S
C1923 C1925 1.390 . S
C1923 H1927 0.950 . S
H1924 C1920 0.950 . S
C1925 C1923 1.390 . S
C1925 C1926 1.387 . S
C1925 H1928 0.950 . S
C1926 C1925 1.387 . S
C1926 C1929 1.387 . S
H1927 C1923 0.950 . S
H1928 C1925 0.950 . S
C1929 C1920 1.390 . S
C1929 H1922 0.950 . S
C1929 C1926 1.387 . S
C1930 C1931 1.387 . S
C1930 H1934 0.950 . S
C1930 C1939 1.390 . S
C1931 C1930 1.387 . S
C1931 C1933 1.387 . S
H1932 C1939 0.950 . S
C1933 C1931 1.387 . S
C1933 C1935 1.390 . S
C1933 H1937 0.950 . S
H1934 C1930 0.950 . S
C1935 C1933 1.390 . S
C1935 C1936 1.387 . S
C1935 H1938 0.950 . S
C1936 C1935 1.387 . S
C1936 C1939 1.387 . S
H1937 C1933 0.950 . S
H1938 C1935 0.950 . S
C1939 C1930 1.390 . S
C1939 H1932 0.950 . S
C1939 C1936 1.387 . S
C1940 C1941 1.387 . S
C1940 H1944 0.950 . S
C1940 C1949 1.390 . S
C1941 C1940 1.387 . S
C1941 C1943 1.387 . S
H1942 C1949 0.950 . S
C1943 C1941 1.387 . S
C1943 C1945 1.390 . S
C1943 H1947 0.950 . S
H1944 C1940 0.950 . S
C1945 C1943 1.390 . S
C1945 C1946 1.387 . S
C1945 H1948 0.950 . S
C1946 C1945 1.387 . S
C1946 C1949 1.387 . S
H1947 C1943 0.950 . S
H1948 C1945 0.950 . S
C1949 C1940 1.390 . S
C1949 H1942 0.950 . S
C1949 C1946 1.387 . S
C1950 C1951 1.387 . S
C1950 H1954 0.950 . S
C1950 C1959 1.390 1_554 S
C1951 C1950 1.387 . S
C1951 C1953 1.387 . S
H1952 C1959 0.950 . S
C1953 C1951 1.387 . S
C1953 C1955 1.390 . S
C1953 H1957 0.950 . S
H1954 C1950 0.950 . S
C1955 C1953 1.390 . S
C1955 C1956 1.387 1_554 S
C1955 H1958 0.950 . S
C1956 C1955 1.387 1_556 S
C1956 C1959 1.387 . S
H1957 C1953 0.950 . S
H1958 C1955 0.950 . S
C1959 C1950 1.390 1_556 S
C1959 H1952 0.950 . S
C1959 C1956 1.387 . S
C1960 C1961 1.387 . S
C1960 H1964 0.950 . S
C1960 C1969 1.390 1_556 S
C1961 C1960 1.387 . S
C1961 C1963 1.387 1_556 S
H1962 C1969 0.950 . S
C1963 C1961 1.387 1_554 S
C1963 C1965 1.390 . S
C1963 H1967 0.950 . S
H1964 C1960 0.950 . S
C1965 C1963 1.390 . S
C1965 C1966 1.387 . S
C1965 H1968 0.950 . S
C1966 C1965 1.387 . S
C1966 C1969 1.387 . S
H1967 C1963 0.950 . S
H1968 C1965 0.950 . S
C1969 C1960 1.390 1_554 S
C1969 H1962 0.950 . S
C1969 C1966 1.387 . S
C1970 C1971 1.387 . S
C1970 H1974 0.950 . S
C1970 C1979 1.390 . S
C1971 C1970 1.387 . S
C1971 C1973 1.387 . S
H1972 C1979 0.950 1_556 S
C1973 C1971 1.387 . S
C1973 C1975 1.406 . S
C1973 H1977 0.950 . S
H1974 C1970 0.950 . S
C1975 C1973 1.406 . S
C1975 C1976 1.381 1_554 S
C1975 H1978 0.941 1_554 S
C1976 C1975 1.381 1_556 S
C1976 C1979 1.387 1_556 S
H1977 C1973 0.950 . S
H1978 C1975 0.941 1_556 S
C1979 C1970 1.390 . S
C1979 H1972 0.950 1_554 S
C1979 C1976 1.387 1_554 S
C1980 C1981 1.387 . S
C1980 H1984 0.950 . S
C1980 C1989 1.390 . S
C1981 C1980 1.387 . S
C1981 C1983 1.387 . S
H1982 C1989 0.950 . S
C1983 C1981 1.387 . S
C1983 C1985 1.390 . S
C1983 H1987 0.950 . S
H1984 C1980 0.950 . S
C1985 C1983 1.390 . S
C1985 C1986 1.387 . S
C1985 H1988 0.950 . S
C1986 C1985 1.387 . S
C1986 C1989 1.387 . S
H1987 C1983 0.950 . S
H1988 C1985 0.950 . S
C1989 C1980 1.390 . S
C1989 H1982 0.950 . S
C1989 C1986 1.387 . S
C1990 C1991 1.387 . S
C1990 H1994 0.950 . S
C1990 C1999 1.390 . S
C1991 C1990 1.387 . S
C1991 C1993 1.387 . S
H1992 C1999 0.950 . S
C1993 C1991 1.387 . S
C1993 C1995 1.390 . S
C1993 H1997 0.950 . S
H1994 C1990 0.950 . S
C1995 C1993 1.390 . S
C1995 C1996 1.387 . S
C1995 H1998 0.950 . S
C1996 C1995 1.387 . S
C1996 C1999 1.387 . S
H1997 C1993 0.950 . S
H1998 C1995 0.950 . S
C1999 C1990 1.390 . S
C1999 H1992 0.950 . S
C1999 C1996 1.387 . S
C2000 C2001 1.387 . S
C2000 H2004 0.950 . S
C2000 C2009 1.390 . S
C2001 C2000 1.387 . S
C2001 C2003 1.387 . S
H2002 C2009 0.950 . S
C2003 C2001 1.387 . S
C2003 C2005 1.390 . S
C2003 H2007 0.950 . S
H2004 C2000 0.950 . S
C2005 C2003 1.390 . S
C2005 C2006 1.387 . S
C2005 H2008 0.950 . S
C2006 C2005 1.387 . S
C2006 C2009 1.387 . S
H2007 C2003 0.950 . S
H2008 C2005 0.950 . S
C2009 C2000 1.390 . S
C2009 H2002 0.950 . S
C2009 C2006 1.387 . S
C2010 C2011 1.387 . S
C2010 H2014 0.950 . S
C2010 C2019 1.390 . S
C2011 C2010 1.387 . S
C2011 C2013 1.387 . S
H2012 C2019 0.950 . S
C2013 C2011 1.387 . S
C2013 C2015 1.390 . S
C2013 H2017 0.950 . S
H2014 C2010 0.950 . S
C2015 C2013 1.390 . S
C2015 C2016 1.387 . S
C2015 H2018 0.950 . S
C2016 C2015 1.387 . S
C2016 C2019 1.387 . S
H2017 C2013 0.950 . S
H2018 C2015 0.950 . S
C2019 C2010 1.390 . S
C2019 H2012 0.950 . S
C2019 C2016 1.387 . S
C2020 C2021 1.387 . S
C2020 H2024 0.950 . S
C2020 C2029 1.390 . S
C2021 C2020 1.387 . S
C2021 C2023 1.387 . S
H2022 C2029 0.950 . S
C2023 C2021 1.387 . S
C2023 C2025 1.390 . S
C2023 H2027 0.950 . S
H2024 C2020 0.950 . S
C2025 C2023 1.390 . S
C2025 C2026 1.387 . S
C2025 H2028 0.950 . S
C2026 C2025 1.387 . S
C2026 C2029 1.387 . S
H2027 C2023 0.950 . S
H2028 C2025 0.950 . S
C2029 C2020 1.390 . S
C2029 H2022 0.950 . S
C2029 C2026 1.387 . S
C2030 C2031 1.387 . S
C2030 H2034 0.950 . S
C2030 C2039 1.390 . S
C2031 C2030 1.387 . S
C2031 C2033 1.387 . S
H2032 C2039 0.950 . S
C2033 C2031 1.387 . S
C2033 C2035 1.390 . S
C2033 H2037 0.950 . S
H2034 C2030 0.950 . S
C2035 C2033 1.390 . S
C2035 C2036 1.387 . S
C2035 H2038 0.950 . S
C2036 C2035 1.387 . S
C2036 C2039 1.387 . S
H2037 C2033 0.950 . S
H2038 C2035 0.950 . S
C2039 C2030 1.390 . S
C2039 H2032 0.950 . S
C2039 C2036 1.387 . S
C2040 C2041 1.387 . S
C2040 H2044 0.950 . S
C2040 C2049 1.390 . S
C2041 C2040 1.387 . S
C2041 C2043 1.387 . S
H2042 C2049 0.950 . S
C2043 C2041 1.387 . S
C2043 C2045 1.390 . S
C2043 H2047 0.950 . S
H2044 C2040 0.950 . S
C2045 C2043 1.390 . S
C2045 C2046 1.387 . S
C2045 H2048 0.950 . S
C2046 C2045 1.387 . S
C2046 C2049 1.387 . S
H2047 C2043 0.950 . S
H2048 C2045 0.950 . S
C2049 C2040 1.390 . S
C2049 H2042 0.950 . S
C2049 C2046 1.387 . S
C2050 C2051 1.387 . S
C2050 H2054 0.950 . S
C2050 C2059 1.390 . S
C2051 C2050 1.387 . S
C2051 C2053 1.387 . S
H2052 C2059 0.950 . S
C2053 C2051 1.387 . S
C2053 C2055 1.390 . S
C2053 H2057 0.950 . S
H2054 C2050 0.950 . S
C2055 C2053 1.390 . S
C2055 C2056 1.387 . S
C2055 H2058 0.950 . S
C2056 C2055 1.387 . S
C2056 C2059 1.387 . S
H2057 C2053 0.950 . S
H2058 C2055 0.950 . S
C2059 C2050 1.390 . S
C2059 H2052 0.950 . S
C2059 C2056 1.387 . S
C2060 C2061 1.387 . S
C2060 H2064 0.950 . S
C2060 C2069 1.390 . S
C2061 C2060 1.387 . S
C2061 C2063 1.387 . S
H2062 C2069 0.950 . S
C2063 C2061 1.387 . S
C2063 C2065 1.390 . S
C2063 H2067 0.950 . S
H2064 C2060 0.950 . S
C2065 C2063 1.390 . S
C2065 C2066 1.387 . S
C2065 H2068 0.950 . S
C2066 C2065 1.387 . S
C2066 C2069 1.387 . S
H2067 C2063 0.950 . S
H2068 C2065 0.950 . S
C2069 C2060 1.390 . S
C2069 H2062 0.950 . S
C2069 C2066 1.387 . S
C2070 C2071 1.387 . S
C2070 H2074 0.950 . S
C2070 C2079 1.390 . S
C2071 C2070 1.387 . S
C2071 C2073 1.387 . S
H2072 C2079 0.950 . S
C2073 C2071 1.387 . S
C2073 C2075 1.390 . S
C2073 H2077 0.950 . S
H2074 C2070 0.950 . S
C2075 C2073 1.390 . S
C2075 C2076 1.387 . S
C2075 H2078 0.950 . S
C2076 C2075 1.387 . S
C2076 C2079 1.387 . S
H2077 C2073 0.950 . S
H2078 C2075 0.950 . S
C2079 C2070 1.390 . S
C2079 H2072 0.950 . S
C2079 C2076 1.387 . S
C2080 C2081 1.387 . S
C2080 H2084 0.950 . S
C2080 C2089 1.390 . S
C2081 C2080 1.387 . S
C2081 C2083 1.387 . S
H2082 C2089 0.950 . S
C2083 C2081 1.387 . S
C2083 C2085 1.390 . S
C2083 H2087 0.950 . S
H2084 C2080 0.950 . S
C2085 C2083 1.390 . S
C2085 C2086 1.387 . S
C2085 H2088 0.950 . S
C2086 C2085 1.387 . S
C2086 C2089 1.387 . S
H2087 C2083 0.950 . S
H2088 C2085 0.950 . S
C2089 C2080 1.390 . S
C2089 H2082 0.950 . S
C2089 C2086 1.387 . S
C2090 C2091 1.387 . S
C2090 H2094 0.950 . S
C2090 C2099 1.390 . S
C2091 C2090 1.387 . S
C2091 C2093 1.387 . S
H2092 C2099 0.950 . S
C2093 C2091 1.387 . S
C2093 C2095 1.390 . S
C2093 H2097 0.950 . S
H2094 C2090 0.950 . S
C2095 C2093 1.390 . S
C2095 C2096 1.387 . S
C2095 H2098 0.950 . S
C2096 C2095 1.387 . S
C2096 C2099 1.387 . S
H2097 C2093 0.950 . S
H2098 C2095 0.950 . S
C2099 C2090 1.390 . S
C2099 H2092 0.950 . S
C2099 C2096 1.387 . S
C2100 C2101 1.387 . S
C2100 H2104 0.950 . S
C2100 C2109 1.390 . S
C2101 C2100 1.387 . S
C2101 C2103 1.387 . S
H2102 C2109 0.950 . S
C2103 C2101 1.387 . S
C2103 C2105 1.390 . S
C2103 H2107 0.950 . S
H2104 C2100 0.950 . S
C2105 C2103 1.390 . S
C2105 C2106 1.387 . S
C2105 H2108 0.950 . S
C2106 C2105 1.387 . S
C2106 C2109 1.387 . S
H2107 C2103 0.950 . S
H2108 C2105 0.950 . S
C2109 C2100 1.390 . S
C2109 H2102 0.950 . S
C2109 C2106 1.387 . S
C2110 C2111 1.387 . S
C2110 H2114 0.950 . S
C2110 C2119 1.390 . S
C2111 C2110 1.387 . S
C2111 C2113 1.387 . S
H2112 C2119 0.950 . S
C2113 C2111 1.387 . S
C2113 C2115 1.390 . S
C2113 H2117 0.950 . S
H2114 C2110 0.950 . S
C2115 C2113 1.390 . S
C2115 C2116 1.387 . S
C2115 H2118 0.950 . S
C2116 C2115 1.387 . S
C2116 C2119 1.387 . S
H2117 C2113 0.950 . S
H2118 C2115 0.950 . S
C2119 C2110 1.390 . S
C2119 H2112 0.950 . S
C2119 C2116 1.387 . S
C2120 C2121 1.387 . S
C2120 H2124 0.950 . S
C2120 C2129 1.390 . S
C2121 C2120 1.387 . S
C2121 C2123 1.387 . S
H2122 C2129 0.950 . S
C2123 C2121 1.387 . S
C2123 C2125 1.390 . S
C2123 H2127 0.950 . S
H2124 C2120 0.950 . S
C2125 C2123 1.390 . S
C2125 C2126 1.387 . S
C2125 H2128 0.950 . S
C2126 C2125 1.387 . S
C2126 C2129 1.387 . S
H2127 C2123 0.950 . S
H2128 C2125 0.950 . S
C2129 C2120 1.390 . S
C2129 H2122 0.950 . S
C2129 C2126 1.387 . S
C2130 C2131 1.387 . S
C2130 H2134 0.950 . S
C2130 C2139 1.390 . S
C2131 C2130 1.387 . S
C2131 C2133 1.387 . S
H2132 C2139 0.950 . S
C2133 C2131 1.387 . S
C2133 C2135 1.390 . S
C2133 H2137 0.950 . S
H2134 C2130 0.950 . S
C2135 C2133 1.390 . S
C2135 C2136 1.387 . S
C2135 H2138 0.950 . S
C2136 C2135 1.387 . S
C2136 C2139 1.387 . S
H2137 C2133 0.950 . S
H2138 C2135 0.950 . S
C2139 C2130 1.390 . S
C2139 H2132 0.950 . S
C2139 C2136 1.387 . S
C2140 C2141 1.387 . S
C2140 H2144 0.950 . S
C2140 C2149 1.390 . S
C2141 C2140 1.387 . S
C2141 C2143 1.387 . S
H2142 C2149 0.950 . S
C2143 C2141 1.387 . S
C2143 C2145 1.390 . S
C2143 H2147 0.950 . S
H2144 C2140 0.950 . S
C2145 C2143 1.390 . S
C2145 C2146 1.387 . S
C2145 H2148 0.950 . S
C2146 C2145 1.387 . S
C2146 C2149 1.387 . S
H2147 C2143 0.950 . S
H2148 C2145 0.950 . S
C2149 C2140 1.390 . S
C2149 H2142 0.950 . S
C2149 C2146 1.387 . S
C2150 C2151 1.387 . S
C2150 H2154 0.950 . S
C2150 C2159 1.390 . S
C2151 C2150 1.387 . S
C2151 C2153 1.387 . S
H2152 C2159 0.950 . S
C2153 C2151 1.387 . S
C2153 C2155 1.390 . S
C2153 H2157 0.950 . S
H2154 C2150 0.950 . S
C2155 C2153 1.390 . S
C2155 C2156 1.387 . S
C2155 H2158 0.950 . S
C2156 C2155 1.387 . S
C2156 C2159 1.387 . S
H2157 C2153 0.950 . S
H2158 C2155 0.950 . S
C2159 C2150 1.390 . S
C2159 H2152 0.950 . S
C2159 C2156 1.387 . S
C2160 C2161 1.387 . S
C2160 H2164 0.950 . S
C2160 C2169 1.390 1_455 S
C2161 C2160 1.387 . S
C2161 C2163 1.387 . S
H2162 C2169 0.950 . S
C2163 C2161 1.387 . S
C2163 C2165 1.390 1_455 S
C2163 H2167 0.950 . S
H2164 C2160 0.950 . S
C2165 C2163 1.390 1_655 S
C2165 C2166 1.387 . S
C2165 H2168 0.950 . S
C2166 C2165 1.387 . S
C2166 C2169 1.387 . S
H2167 C2163 0.950 . S
H2168 C2165 0.950 . S
C2169 C2160 1.390 1_655 S
C2169 H2162 0.950 . S
C2169 C2166 1.387 . S
C2170 C2171 1.387 . S
C2170 H2174 0.950 . S
C2170 C2179 1.390 . S
C2171 C2170 1.387 . S
C2171 C2173 1.387 . S
H2172 C2179 0.950 . S
C2173 C2171 1.387 . S
C2173 C2175 1.390 . S
C2173 H2177 0.950 . S
H2174 C2170 0.950 . S
C2175 C2173 1.390 . S
C2175 C2176 1.387 . S
C2175 H2178 0.950 . S
C2176 C2175 1.387 . S
C2176 C2179 1.387 . S
H2177 C2173 0.950 . S
H2178 C2175 0.950 . S
C2179 C2170 1.390 . S
C2179 H2172 0.950 . S
C2179 C2176 1.387 . S
C2180 C2181 1.387 . S
C2180 H2184 0.950 . S
C2180 C2189 1.390 1_565 S
C2181 C2180 1.387 . S
C2181 C2183 1.387 . S
H2182 C2189 0.950 . S
C2183 C2181 1.387 . S
C2183 C2185 1.390 1_565 S
C2183 H2187 0.950 . S
H2184 C2180 0.950 . S
C2185 C2183 1.390 1_545 S
C2185 C2186 1.387 . S
C2185 H2188 0.950 . S
C2186 C2185 1.387 . S
C2186 C2189 1.387 . S
H2187 C2183 0.950 . S
H2188 C2185 0.950 . S
C2189 C2180 1.390 1_545 S
C2189 H2182 0.950 . S
C2189 C2186 1.387 . S
C2190 C2191 1.382 1_455 S
C2190 H2194 0.938 . S
C2190 C2199 1.409 . S
C2191 C2190 1.382 1_655 S
C2191 C2193 1.387 . S
H2192 C2199 0.950 . S
C2193 C2191 1.387 . S
C2193 C2195 1.408 . S
C2193 H2197 0.950 . S
H2194 C2190 0.938 . S
C2195 C2193 1.408 . S
C2195 C2196 1.382 1_655 S
C2195 H2198 0.938 . S
C2196 C2195 1.382 1_455 S
C2196 C2199 1.387 . S
H2197 C2193 0.950 . S
H2198 C2195 0.938 . S
C2199 C2190 1.409 . S
C2199 H2192 0.950 . S
C2199 C2196 1.387 . S
C2200 C2201 1.387 . S
C2200 H2204 0.950 . S
C2200 C2209 1.390 . S
C2201 C2200 1.387 . S
C2201 C2203 1.387 . S
H2202 C2209 0.950 . S
C2203 C2201 1.387 . S
C2203 C2205 1.390 . S
C2203 H2207 0.950 . S
H2204 C2200 0.950 . S
C2205 C2203 1.390 . S
C2205 C2206 1.387 . S
C2205 H2208 0.950 . S
C2206 C2205 1.387 . S
C2206 C2209 1.387 . S
H2207 C2203 0.950 . S
H2208 C2205 0.950 . S
C2209 C2200 1.390 . S
C2209 H2202 0.950 . S
C2209 C2206 1.387 . S
C2210 C2211 1.387 . S
C2210 H2214 0.950 . S
C2210 C2219 1.390 1_545 S
C2211 C2210 1.387 . S
C2211 C2213 1.387 . S
H2212 C2219 0.950 . S
C2213 C2211 1.387 . S
C2213 C2215 1.390 1_545 S
C2213 H2217 0.950 . S
H2214 C2210 0.950 . S
C2215 C2213 1.390 1_565 S
C2215 C2216 1.387 . S
C2215 H2218 0.950 . S
C2216 C2215 1.387 . S
C2216 C2219 1.387 . S
H2217 C2213 0.950 . S
H2218 C2215 0.950 . S
C2219 C2210 1.390 1_565 S
C2219 H2212 0.950 . S
C2219 C2216 1.387 . S
C2220 C2221 1.387 . S
C2220 H2224 0.950 . S
C2220 C2229 1.390 . S
C2221 C2220 1.387 . S
C2221 C2223 1.387 . S
H2222 C2229 0.950 . S
C2223 C2221 1.387 . S
C2223 C2225 1.390 . S
C2223 H2227 0.950 . S
H2224 C2220 0.950 . S
C2225 C2223 1.390 . S
C2225 C2226 1.387 . S
C2225 H2228 0.950 . S
C2226 C2225 1.387 . S
C2226 C2229 1.387 . S
H2227 C2223 0.950 . S
H2228 C2225 0.950 . S
C2229 C2220 1.390 . S
C2229 H2222 0.950 . S
C2229 C2226 1.387 . S
C2230 C2231 1.387 . S
C2230 H2234 0.950 . S
C2230 C2239 1.390 . S
C2231 C2230 1.387 . S
C2231 C2233 1.387 . S
H2232 C2239 0.950 . S
C2233 C2231 1.387 . S
C2233 C2235 1.390 . S
C2233 H2237 0.950 . S
H2234 C2230 0.950 . S
C2235 C2233 1.390 . S
C2235 C2236 1.387 . S
C2235 H2238 0.950 . S
C2236 C2235 1.387 . S
C2236 C2239 1.387 . S
H2237 C2233 0.950 . S
H2238 C2235 0.950 . S
C2239 C2230 1.390 . S
C2239 H2232 0.950 . S
C2239 C2236 1.387 . S
C2240 C2241 1.387 . S
C2240 H2244 0.950 . S
C2240 C2249 1.390 . S
C2241 C2240 1.387 . S
C2241 C2243 1.387 . S
H2242 C2249 0.950 . S
C2243 C2241 1.387 . S
C2243 C2245 1.390 . S
C2243 H2247 0.950 . S
H2244 C2240 0.950 . S
C2245 C2243 1.390 . S
C2245 C2246 1.387 . S
C2245 H2248 0.950 . S
C2246 C2245 1.387 . S
C2246 C2249 1.387 . S
H2247 C2243 0.950 . S
H2248 C2245 0.950 . S
C2249 C2240 1.390 . S
C2249 H2242 0.950 . S
C2249 C2246 1.387 . S
C2250 C2251 1.387 . S
C2250 H2254 0.950 . S
C2250 C2259 1.390 . S
C2251 C2250 1.387 . S
C2251 C2253 1.387 . S
H2252 C2259 0.950 . S
C2253 C2251 1.387 . S
C2253 C2255 1.390 . S
C2253 H2257 0.950 . S
H2254 C2250 0.950 . S
C2255 C2253 1.390 . S
C2255 C2256 1.387 . S
C2255 H2258 0.950 . S
C2256 C2255 1.387 . S
C2256 C2259 1.387 . S
H2257 C2253 0.950 . S
H2258 C2255 0.950 . S
C2259 C2250 1.390 . S
C2259 H2252 0.950 . S
C2259 C2256 1.387 . S
C2260 C2261 1.387 . S
C2260 H2264 0.950 . S
C2260 C2269 1.390 . S
C2261 C2260 1.387 . S
C2261 C2263 1.387 . S
H2262 C2269 0.950 . S
C2263 C2261 1.387 . S
C2263 C2265 1.390 . S
C2263 H2267 0.950 . S
H2264 C2260 0.950 . S
C2265 C2263 1.390 . S
C2265 C2266 1.387 . S
C2265 H2268 0.950 . S
C2266 C2265 1.387 . S
C2266 C2269 1.387 . S
H2267 C2263 0.950 . S
H2268 C2265 0.950 . S
C2269 C2260 1.390 . S
C2269 H2262 0.950 . S
C2269 C2266 1.387 . S
C2270 C2271 1.387 . S
C2270 H2274 0.950 . S
C2270 C2279 1.390 . S
C2271 C2270 1.387 . S
C2271 C2273 1.387 . S
H2272 C2279 0.950 . S
C2273 C2271 1.387 . S
C2273 C2275 1.390 . S
C2273 H2277 0.950 . S
H2274 C2270 0.950 . S
C2275 C2273 1.390 . S
C2275 C2276 1.387 . S
C2275 H2278 0.950 . S
C2276 C2275 1.387 . S
C2276 C2279 1.387 . S
H2277 C2273 0.950 . S
H2278 C2275 0.950 . S
C2279 C2270 1.390 . S
C2279 H2272 0.950 . S
C2279 C2276 1.387 . S
C2280 C2281 1.387 . S
C2280 H2284 0.950 . S
C2280 C2289 1.390 1_554 S
C2281 C2280 1.387 . S
C2281 C2283 1.387 1_554 S
H2282 C2289 0.950 . S
C2283 C2281 1.387 1_556 S
C2283 C2285 1.390 . S
C2283 H2287 0.950 . S
H2284 C2280 0.950 . S
C2285 C2283 1.390 . S
C2285 C2286 1.387 . S
C2285 H2288 0.950 . S
C2286 C2285 1.387 . S
C2286 C2289 1.387 . S
H2287 C2283 0.950 . S
H2288 C2285 0.950 . S
C2289 C2280 1.390 1_556 S
C2289 H2282 0.950 . S
C2289 C2286 1.387 . S
C2290 C2291 1.387 . S
C2290 H2294 0.950 . S
C2290 C2299 1.390 . S
C2291 C2290 1.387 . S
C2291 C2293 1.387 . S
H2292 C2299 0.950 . S
C2293 C2291 1.387 . S
C2293 C2295 1.390 1_556 S
C2293 H2297 0.950 . S
H2294 C2290 0.950 . S
C2295 C2293 1.390 1_554 S
C2295 C2296 1.387 . S
C2295 H2298 0.950 . S
C2296 C2295 1.387 . S
C2296 C2299 1.387 1_554 S
H2297 C2293 0.950 . S
H2298 C2295 0.950 . S
C2299 C2290 1.390 . S
C2299 H2292 0.950 . S
C2299 C2296 1.387 1_556 S
C2300 C2301 1.387 . S
C2300 H2304 0.950 . S
C2300 C2309 1.390 1_556 S
C2301 C2300 1.387 . S
C2301 C2303 1.387 . S
H2302 C2309 0.950 . S
C2303 C2301 1.387 . S
C2303 C2305 1.390 1_556 S
C2303 H2307 0.950 . S
H2304 C2300 0.950 . S
C2305 C2303 1.390 1_554 S
C2305 C2306 1.387 . S
C2305 H2308 0.950 . S
C2306 C2305 1.387 . S
C2306 C2309 1.387 . S
H2307 C2303 0.950 . S
H2308 C2305 0.950 . S
C2309 C2300 1.390 1_554 S
C2309 H2302 0.950 . S
C2309 C2306 1.387 . S
C2310 C2311 1.387 . S
C2310 H2314 0.950 . S
C2310 C2319 1.390 . S
C2311 C2310 1.387 . S
C2311 C2313 1.387 . S
H2312 C2319 0.950 . S
C2313 C2311 1.387 . S
C2313 C2315 1.390 . S
C2313 H2317 0.950 . S
H2314 C2310 0.950 . S
C2315 C2313 1.390 . S
C2315 C2316 1.387 . S
C2315 H2318 0.950 . S
C2316 C2315 1.387 . S
C2316 C2319 1.387 . S
H2317 C2313 0.950 . S
H2318 C2315 0.950 . S
C2319 C2310 1.390 . S
C2319 H2312 0.950 . S
C2319 C2316 1.387 . S
C2320 C2321 1.387 . S
C2320 H2324 0.950 . S
C2320 C2329 1.390 . S
C2321 C2320 1.387 . S
C2321 C2323 1.387 . S
H2322 C2329 0.950 . S
C2323 C2321 1.387 . S
C2323 C2325 1.390 . S
C2323 H2327 0.950 . S
H2324 C2320 0.950 . S
C2325 C2323 1.390 . S
C2325 C2326 1.387 . S
C2325 H2328 0.950 . S
C2326 C2325 1.387 . S
C2326 C2329 1.387 . S
H2327 C2323 0.950 . S
H2328 C2325 0.950 . S
C2329 C2320 1.390 . S
C2329 H2322 0.950 . S
C2329 C2326 1.387 . S
C2330 C2331 1.387 . S
C2330 H2334 0.950 . S
C2330 C2339 1.390 . S
C2331 C2330 1.387 . S
C2331 C2333 1.387 . S
H2332 C2339 0.950 . S
C2333 C2331 1.387 . S
C2333 C2335 1.390 . S
C2333 H2337 0.950 . S
H2334 C2330 0.950 . S
C2335 C2333 1.390 . S
C2335 C2336 1.387 . S
C2335 H2338 0.950 . S
C2336 C2335 1.387 . S
C2336 C2339 1.387 . S
H2337 C2333 0.950 . S
H2338 C2335 0.950 . S
C2339 C2330 1.390 . S
C2339 H2332 0.950 . S
C2339 C2336 1.387 . S
C2340 C2341 1.387 1_655 S
C2340 H2344 0.950 . S
C2340 C2349 1.390 . S
C2341 C2340 1.387 1_455 S
C2341 C2343 1.387 . S
H2342 C2349 0.950 . S
C2343 C2341 1.387 . S
C2343 C2345 1.390 . S
C2343 H2347 0.950 . S
H2344 C2340 0.950 . S
C2345 C2343 1.390 . S
C2345 C2346 1.387 1_455 S
C2345 H2348 0.950 . S
C2346 C2345 1.387 1_655 S
C2346 C2349 1.387 . S
H2347 C2343 0.950 . S
H2348 C2345 0.950 . S
C2349 C2340 1.390 . S
C2349 H2342 0.950 . S
C2349 C2346 1.387 . S
C2350 C2351 1.387 . S
C2350 H2354 0.950 . S
C2350 C2359 1.390 . S
C2351 C2350 1.387 . S
C2351 C2353 1.387 . S
H2352 C2359 0.950 . S
C2353 C2351 1.387 . S
C2353 C2355 1.390 . S
C2353 H2357 0.950 . S
H2354 C2350 0.950 . S
C2355 C2353 1.390 . S
C2355 C2356 1.387 . S
C2355 H2358 0.950 . S
C2356 C2355 1.387 . S
C2356 C2359 1.387 . S
H2357 C2353 0.950 . S
H2358 C2355 0.950 . S
C2359 C2350 1.390 . S
C2359 H2352 0.950 . S
C2359 C2356 1.387 . S
C2360 C2361 1.387 1_565 S
C2360 H2364 0.950 . S
C2360 C2369 1.390 . S
C2361 C2360 1.387 1_545 S
C2361 C2363 1.387 . S
H2362 C2369 0.950 . S
C2363 C2361 1.387 . S
C2363 C2365 1.390 . S
C2363 H2367 0.950 . S
H2364 C2360 0.950 . S
C2365 C2363 1.390 . S
C2365 C2366 1.387 1_545 S
C2365 H2368 0.950 . S
C2366 C2365 1.387 1_565 S
C2366 C2369 1.387 . S
H2367 C2363 0.950 . S
H2368 C2365 0.950 . S
C2369 C2360 1.390 . S
C2369 H2362 0.950 . S
C2369 C2366 1.387 . S
C2370 C2371 1.387 . S
C2370 H2374 0.950 . S
C2370 C2379 1.390 . S
C2371 C2370 1.387 . S
C2371 C2373 1.387 1_565 S
H2372 C2379 0.950 . S
C2373 C2371 1.387 1_545 S
C2373 C2375 1.390 . S
C2373 H2377 0.950 . S
H2374 C2370 0.950 . S
C2375 C2373 1.390 . S
C2375 C2376 1.387 . S
C2375 H2378 0.950 . S
C2376 C2375 1.387 . S
C2376 C2379 1.387 1_545 S
H2377 C2373 0.950 . S
H2378 C2375 0.950 . S
C2379 C2370 1.390 . S
C2379 H2372 0.950 . S
C2379 C2376 1.387 1_565 S
C2380 C2381 1.387 1_455 S
C2380 H2384 0.950 . S
C2380 C2389 1.390 . S
C2381 C2380 1.387 1_655 S
C2381 C2383 1.387 . S
H2382 C2389 0.950 . S
C2383 C2381 1.387 . S
C2383 C2385 1.390 . S
C2383 H2387 0.950 . S
H2384 C2380 0.950 . S
C2385 C2383 1.390 . S
C2385 C2386 1.387 1_655 S
C2385 H2388 0.950 . S
C2386 C2385 1.387 1_455 S
C2386 C2389 1.387 . S
H2387 C2383 0.950 . S
H2388 C2385 0.950 . S
C2389 C2380 1.390 . S
C2389 H2382 0.950 . S
C2389 C2386 1.387 . S
C2390 C2391 1.387 . S
C2390 H2394 0.950 . S
C2390 C2399 1.390 . S
C2391 C2390 1.387 . S
C2391 C2393 1.387 . S
H2392 C2399 0.950 . S
C2393 C2391 1.387 . S
C2393 C2395 1.390 . S
C2393 H2397 0.950 . S
H2394 C2390 0.950 . S
C2395 C2393 1.390 . S
C2395 C2396 1.387 . S
C2395 H2398 0.950 . S
C2396 C2395 1.387 . S
C2396 C2399 1.387 . S
H2397 C2393 0.950 . S
H2398 C2395 0.950 . S
C2399 C2390 1.390 . S
C2399 H2392 0.950 . S
C2399 C2396 1.387 . S
C2400 C2401 1.387 . S
C2400 H2404 0.950 . S
C2400 C2409 1.390 . S
C2401 C2400 1.387 . S
C2401 C2403 1.387 . S
H2402 C2409 0.950 . S
C2403 C2401 1.387 . S
C2403 C2405 1.390 . S
C2403 H2407 0.950 . S
H2404 C2400 0.950 . S
C2405 C2403 1.390 . S
C2405 C2406 1.387 . S
C2405 H2408 0.950 . S
C2406 C2405 1.387 . S
C2406 C2409 1.387 . S
H2407 C2403 0.950 . S
H2408 C2405 0.950 . S
C2409 C2400 1.390 . S
C2409 H2402 0.950 . S
C2409 C2406 1.387 . S
C2410 C2411 1.387 . S
C2410 H2414 0.950 . S
C2410 C2419 1.390 . S
C2411 C2410 1.387 . S
C2411 C2413 1.387 . S
H2412 C2419 0.950 . S
C2413 C2411 1.387 . S
C2413 C2415 1.390 . S
C2413 H2417 0.950 . S
H2414 C2410 0.950 . S
C2415 C2413 1.390 . S
C2415 C2416 1.387 . S
C2415 H2418 0.950 . S
C2416 C2415 1.387 . S
C2416 C2419 1.387 . S
H2417 C2413 0.950 . S
H2418 C2415 0.950 . S
C2419 C2410 1.390 . S
C2419 H2412 0.950 . S
C2419 C2416 1.387 . S
C2420 C2421 1.387 . S
C2420 H2424 0.950 . S
C2420 C2429 1.390 . S
C2421 C2420 1.387 . S
C2421 C2423 1.387 . S
H2422 C2429 0.950 . S
C2423 C2421 1.387 . S
C2423 C2425 1.390 . S
C2423 H2427 0.950 . S
H2424 C2420 0.950 . S
C2425 C2423 1.390 . S
C2425 C2426 1.387 . S
C2425 H2428 0.950 . S
C2426 C2425 1.387 . S
C2426 C2429 1.387 . S
H2427 C2423 0.950 . S
H2428 C2425 0.950 . S
C2429 C2420 1.390 . S
C2429 H2422 0.950 . S
C2429 C2426 1.387 . S
C2430 C2431 1.387 . S
C2430 H2434 0.950 . S
C2430 C2439 1.390 . S
C2431 C2430 1.387 . S
C2431 C2433 1.387 . S
H2432 C2439 0.950 . S
C2433 C2431 1.387 . S
C2433 C2435 1.390 . S
C2433 H2437 0.950 . S
H2434 C2430 0.950 . S
C2435 C2433 1.390 . S
C2435 C2436 1.387 . S
C2435 H2438 0.950 . S
C2436 C2435 1.387 . S
C2436 C2439 1.387 . S
H2437 C2433 0.950 . S
H2438 C2435 0.950 . S
C2439 C2430 1.390 . S
C2439 H2432 0.950 . S
C2439 C2436 1.387 . S
C2440 C2441 1.387 . S
C2440 H2444 0.950 . S
C2440 C2449 1.390 . S
C2441 C2440 1.387 . S
C2441 C2443 1.387 . S
H2442 C2449 0.950 . S
C2443 C2441 1.387 . S
C2443 C2445 1.390 . S
C2443 H2447 0.950 . S
H2444 C2440 0.950 . S
C2445 C2443 1.390 . S
C2445 C2446 1.387 . S
C2445 H2448 0.950 . S
C2446 C2445 1.387 . S
C2446 C2449 1.387 . S
H2447 C2443 0.950 . S
H2448 C2445 0.950 . S
C2449 C2440 1.390 . S
C2449 H2442 0.950 . S
C2449 C2446 1.387 . S
C2450 C2451 1.387 . S
C2450 H2454 0.950 . S
C2450 C2459 1.390 . S
C2451 C2450 1.387 . S
C2451 C2453 1.387 . S
H2452 C2459 0.950 . S
C2453 C2451 1.387 . S
C2453 C2455 1.390 . S
C2453 H2457 0.950 . S
H2454 C2450 0.950 . S
C2455 C2453 1.390 . S
C2455 C2456 1.387 . S
C2455 H2458 0.950 . S
C2456 C2455 1.387 . S
C2456 C2459 1.387 . S
H2457 C2453 0.950 . S
H2458 C2455 0.950 . S
C2459 C2450 1.390 . S
C2459 H2452 0.950 . S
C2459 C2456 1.387 . S
C2460 C2461 1.387 . S
C2460 H2464 0.950 . S
C2460 C2469 1.390 . S
C2461 C2460 1.387 . S
C2461 C2463 1.387 . S
H2462 C2469 0.950 . S
C2463 C2461 1.387 . S
C2463 C2465 1.390 . S
C2463 H2467 0.950 . S
H2464 C2460 0.950 . S
C2465 C2463 1.390 . S
C2465 C2466 1.387 . S
C2465 H2468 0.950 . S
C2466 C2465 1.387 . S
C2466 C2469 1.387 . S
H2467 C2463 0.950 . S
H2468 C2465 0.950 . S
C2469 C2460 1.390 . S
C2469 H2462 0.950 . S
C2469 C2466 1.387 . S
C2470 C2471 1.387 . S
C2470 H2474 0.950 . S
C2470 C2479 1.390 . S
C2471 C2470 1.387 . S
C2471 C2473 1.387 . S
H2472 C2479 0.950 . S
C2473 C2471 1.387 . S
C2473 C2475 1.390 . S
C2473 H2477 0.950 . S
H2474 C2470 0.950 . S
C2475 C2473 1.390 . S
C2475 C2476 1.387 . S
C2475 H2478 0.950 . S
C2476 C2475 1.387 . S
C2476 C2479 1.387 . S
H2477 C2473 0.950 . S
H2478 C2475 0.950 . S
C2479 C2470 1.390 . S
C2479 H2472 0.950 . S
C2479 C2476 1.387 . S
C2480 C2481 1.387 . S
C2480 H2484 0.950 . S
C2480 C2489 1.390 . S
C2481 C2480 1.387 . S
C2481 C2483 1.387 . S
H2482 C2489 0.950 . S
C2483 C2481 1.387 . S
C2483 C2485 1.390 . S
C2483 H2487 0.950 . S
H2484 C2480 0.950 . S
C2485 C2483 1.390 . S
C2485 C2486 1.387 . S
C2485 H2488 0.950 . S
C2486 C2485 1.387 . S
C2486 C2489 1.387 . S
H2487 C2483 0.950 . S
H2488 C2485 0.950 . S
C2489 C2480 1.390 . S
C2489 H2482 0.950 . S
C2489 C2486 1.387 . S
C2490 C2491 1.387 . S
C2490 H2494 0.950 . S
C2490 C2499 1.390 . S
C2491 C2490 1.387 . S
C2491 C2493 1.387 . S
H2492 C2499 0.950 . S
C2493 C2491 1.387 . S
C2493 C2495 1.390 . S
C2493 H2497 0.950 . S
H2494 C2490 0.950 . S
C2495 C2493 1.390 . S
C2495 C2496 1.387 . S
C2495 H2498 0.950 . S
C2496 C2495 1.387 . S
C2496 C2499 1.387 . S
H2497 C2493 0.950 . S
H2498 C2495 0.950 . S
C2499 C2490 1.390 . S
C2499 H2492 0.950 . S
C2499 C2496 1.387 . S
C2500 C2501 1.387 . S
C2500 H2504 0.950 . S
C2500 C2509 1.390 . S
C2501 C2500 1.387 . S
C2501 C2503 1.387 . S
H2502 C2509 0.950 . S
C2503 C2501 1.387 . S
C2503 C2505 1.390 . S
C2503 H2507 0.950 . S
H2504 C2500 0.950 . S
C2505 C2503 1.390 . S
C2505 C2506 1.387 . S
C2505 H2508 0.950 . S
C2506 C2505 1.387 . S
C2506 C2509 1.387 . S
H2507 C2503 0.950 . S
H2508 C2505 0.950 . S
C2509 C2500 1.390 . S
C2509 H2502 0.950 . S
C2509 C2506 1.387 . S
C2510 C2511 1.387 . S
C2510 H2514 0.950 . S
C2510 C2519 1.390 . S
C2511 C2510 1.387 . S
C2511 C2513 1.387 . S
H2512 C2519 0.950 . S
C2513 C2511 1.387 . S
C2513 C2515 1.390 . S
C2513 H2517 0.950 . S
H2514 C2510 0.950 . S
C2515 C2513 1.390 . S
C2515 C2516 1.387 . S
C2515 H2518 0.950 . S
C2516 C2515 1.387 . S
C2516 C2519 1.387 . S
H2517 C2513 0.950 . S
H2518 C2515 0.950 . S
C2519 C2510 1.390 . S
C2519 H2512 0.950 . S
C2519 C2516 1.387 . S
C1441 C609 2.566 . S
C1446 C9 2.566 . S
C1451 C649 2.569 . S
C1456 C49 2.569 . S
C1461 C89 2.569 . S
C1466 C689 2.568 . S
C1471 C129 2.566 . S
C1476 C969 2.567 . S
C1481 C169 2.569 . S
C1486 C1009 2.569 . S
C1491 C209 2.567 . S
C1496 C1049 2.566 . S
C1501 C1338 2.566 . S
C1506 C258 2.566 . S
C1511 C1378 2.566 . S
C1516 C298 2.566 . S
C1521 C338 2.569 . S
C1526 C1418 2.568 . S
C1531 C738 2.569 . S
C1536 C378 2.569 . S
C1541 C418 2.566 . S
C1546 C778 2.566 . S
C1551 C458 2.566 . S
C1556 C818 2.566 . S
C1561 C1089 2.566 . S
C1566 C489 2.567 . S
C1571 C529 2.569 . S
C1576 C1129 2.569 . S
C1581 C1169 2.566 . S
C1586 C569 2.566 . S
C1591 C1218 2.569 . S
C1596 C858 2.569 . S
C1601 C1258 2.569 . S
C1606 C898 2.569 . S
C1611 C938 2.566 . S
C1616 C1298 2.566 . S
C1621 C15 0.419 . S
C1626 C175 0.416 . S
C1631 C55 0.409 . S
C1636 C215 0.411 . S
C1641 C95 0.419 . S
C1646 C135 0.418 . S
C1651 C246 0.419 . S
C1656 C406 0.418 . S
C1661 C286 0.419 . S
C1666 C446 0.418 . S
C1671 C326 0.419 . S
C1676 C366 0.418 . S
C1681 C495 0.409 . S
C1686 C655 0.413 . S
C1691 C695 0.410 . S
C1696 C535 0.414 . S
C1701 C575 0.410 . S
C1706 C615 0.410 . S
C1711 C726 0.419 . S
C1716 C886 0.417 . S
C1721 C766 0.413 . S
C1726 C926 0.409 . S
C1731 C846 0.418 . S
C1736 C806 0.419 . S
C1741 C975 0.418 . S
C1746 C1135 0.412 . S
C1751 C1175 0.417 . S
C1756 C1015 0.419 . S
C1761 C1055 0.419 . S
C1766 C1095 0.419 . S
C1771 C1206 0.419 . S
C1776 C1366 0.416 . S
C1781 C1246 0.415 . S
C1786 C1406 0.419 . S
C1791 C1286 0.419 . S
C1796 C1326 0.419 . S
C1801 C415 1.687 . S
C1806 C19 1.787 1_556 S
C1811 C59 1.785 1_556 S
C1816 C455 1.684 . S
C1821 C99 1.785 1_556 S
C1826 C375 1.684 . S
C1831 C139 1.785 . S
C1836 C335 1.684 . S
C1841 C179 1.787 . S
C1846 C255 1.688 . S
C1851 C295 1.687 . S
C1856 C219 1.787 . S
C1861 C250 1.787 . S
C1866 C166 1.686 . S
C1871 C206 1.687 . S
C1876 C290 1.786 . S
C1881 C330 1.785 . S
C1886 C126 1.685 . S
C1891 C370 1.785 . S
C1896 C86 1.685 . S
C1901 C6 1.684 . S
C1906 C410 1.785 . S
C1911 C46 1.686 . S
C1916 C450 1.787 . S
C1921 C895 1.684 . S
C1926 C499 1.785 . S
C1931 C935 1.683 . S
C1936 C539 1.785 . S
C1941 C855 1.687 . S
C1946 C579 1.787 . S
C1951 C815 1.686 . S
C1956 C619 1.785 . S
C1961 C659 1.787 . S
C1966 C735 1.688 . S
C1971 C775 1.687 . S
C1976 C699 1.787 . S
C1981 C646 1.687 . S
C1986 C730 1.787 . S
C1991 C770 1.787 . S
C1996 C686 1.687 . S
C2001 C810 1.786 . S
C2006 C606 1.687 . S
C2011 C566 1.684 . S
C2016 C850 1.785 . S
C2021 C890 1.785 . S
C2026 C486 1.684 . S
C2031 C930 1.787 . S
C2036 C526 1.687 . S
C2041 C979 1.785 . S
C2046 C1375 1.683 . S
C2051 C1019 1.787 . S
C2056 C1415 1.687 . S
C2061 C1335 1.685 . S
C2066 C1059 1.787 . S
C2071 C1295 1.685 . S
C2076 C1099 1.786 . S
C2081 C1139 1.785 . S
C2086 C1215 1.685 . S
C2091 C1255 1.684 . S
C2096 C1179 1.785 . S
C2101 C1210 1.787 . S
C2106 C1126 1.687 . S
C2111 C1166 1.686 . S
C2116 C1250 1.787 . S
C2121 C1290 1.786 . S
C2126 C1086 1.684 . S
C2131 C1330 1.787 . S
C2136 C1046 1.687 . S
C2141 C966 1.684 . S
C2146 C1370 1.785 . S
C2151 C1006 1.684 . S
C2156 C1410 1.785 . S
C2161 C10 3.340 . S
C2166 C170 3.340 . S
C2171 C210 3.340 . S
C2176 C50 3.340 . S
C2181 C90 3.341 . S
C2186 C130 3.341 . S
C2191 C259 3.341 . S
C2196 C419 3.341 . S
C2201 C459 3.340 . S
C2206 C299 3.340 . S
C2211 C339 3.340 . S
C2216 C379 3.340 . S
C2221 C650 3.340 . S
C2226 C490 3.340 . S
C2231 C690 3.341 . S
C2236 C530 3.340 . S
C2241 C610 3.340 . S
C2246 C570 3.340 . S
C2251 C899 3.341 . S
C2256 C739 3.341 . S
C2261 C779 3.340 . S
C2266 C939 3.341 . S
C2271 C859 3.340 . S
C2276 C819 3.340 . S
C2281 C1130 3.340 . S
C2286 C970 3.341 . S
C2291 C1010 3.340 . S
C2296 C1170 3.340 . S
C2301 C1050 3.341 . S
C2306 C1090 3.341 . S
C2311 C1379 3.340 . S
C2316 C1219 3.340 . S
C2321 C1259 3.340 . S
C2326 C1419 3.340 . S
C2331 C1299 3.341 . S
C2336 C1339 3.341 . S
C2341 C18 1.368 . S
C2346 C249 1.368 . S
C2351 C58 1.368 . S
C2356 C289 1.368 . S
C2361 C329 1.373 . S
C2366 C98 1.373 . S
C2371 C369 1.368 . S
C2376 C138 1.368 . S
C2381 C178 1.367 . S
C2386 C409 1.367 . S
C2391 C218 1.367 . S
C2396 C449 1.367 . S
C2401 C729 1.373 . S
C2406 C498 1.373 . S
C2411 C538 1.367 . S
C2416 C769 1.367 . S
C2421 C809 1.368 . S
C2426 C578 1.368 . S
C2431 C849 1.368 . S
C2436 C618 1.368 . S
C2441 C889 1.371 . S
C2446 C658 1.371 . S
C2451 C929 1.371 . S
C2456 C698 1.371 . S
C2461 C1209 1.373 . S
C2466 C978 1.373 . S
C2471 C1018 1.373 . S
C2476 C1249 1.373 . S
C2481 C1289 1.373 . S
C2486 C1058 1.373 . S
C2491 C1329 1.373 . S
C2496 C1098 1.373 . S
C2501 C1369 1.369 . S
C2506 C1138 1.369 . S
C2511 C1178 1.368 . S
C2516 C1409 1.368 . S
