# Generated by pormake.
# Topology ukh, (4)-cn, num edge types: 1
# Building blocks:
#     Node 0, Type 0, BuildingBlock: QUQFOY_clean_sbu_3, # of connection points: 4
#     Node 1, Type 0, BuildingBlock: QUQFOY_clean_sbu_3, # of connection points: 4
#     Node 2, Type 0, BuildingBlock: QUQFOY_clean_sbu_3, # of connection points: 4
#     Node 3, Type 0, BuildingBlock: QUQFOY_clean_sbu_3, # of connection points: 4
#     Node 4, Type 0, BuildingBlock: QUQFOY_clean_sbu_3, # of connection points: 4
#     Node 5, Type 0, BuildingBlock: QUQFOY_clean_sbu_3, # of connection points: 4
#     Node 6, Type 0, BuildingBlock: QUQFOY_clean_sbu_3, # of connection points: 4
#     Node 7, Type 0, BuildingBlock: QUQFOY_clean_sbu_3, # of connection points: 4
#     Node 8, Type 0, BuildingBlock: QUQFOY_clean_sbu_3, # of connection points: 4
#     Node 9, Type 0, BuildingBlock: QUQFOY_clean_sbu_3, # of connection points: 4
#     Node 10, Type 0, BuildingBlock: QUQFOY_clean_sbu_3, # of connection points: 4
#     Node 11, Type 0, BuildingBlock: QUQFOY_clean_sbu_3, # of connection points: 4
#     Edge 12, Type (0, 0), BuildingBlock: ZUJKAS_clean_linker_0, # of connection points: 2
#     Edge 13, Type (0, 0), BuildingBlock: ZUJKAS_clean_linker_0, # of connection points: 2
#     Edge 14, Type (0, 0), BuildingBlock: ZUJKAS_clean_linker_0, # of connection points: 2
#     Edge 15, Type (0, 0), BuildingBlock: ZUJKAS_clean_linker_0, # of connection points: 2
#     Edge 16, Type (0, 0), BuildingBlock: ZUJKAS_clean_linker_0, # of connection points: 2
#     Edge 17, Type (0, 0), BuildingBlock: ZUJKAS_clean_linker_0, # of connection points: 2
#     Edge 18, Type (0, 0), BuildingBlock: ZUJKAS_clean_linker_0, # of connection points: 2
#     Edge 19, Type (0, 0), BuildingBlock: ZUJKAS_clean_linker_0, # of connection points: 2
#     Edge 20, Type (0, 0), BuildingBlock: ZUJKAS_clean_linker_0, # of connection points: 2
#     Edge 21, Type (0, 0), BuildingBlock: ZUJKAS_clean_linker_0, # of connection points: 2
#     Edge 22, Type (0, 0), BuildingBlock: ZUJKAS_clean_linker_0, # of connection points: 2
#     Edge 23, Type (0, 0), BuildingBlock: ZUJKAS_clean_linker_0, # of connection points: 2
#     Edge 24, Type (0, 0), BuildingBlock: ZUJKAS_clean_linker_0, # of connection points: 2
#     Edge 25, Type (0, 0), BuildingBlock: ZUJKAS_clean_linker_0, # of connection points: 2
#     Edge 26, Type (0, 0), BuildingBlock: ZUJKAS_clean_linker_0, # of connection points: 2
#     Edge 27, Type (0, 0), BuildingBlock: ZUJKAS_clean_linker_0, # of connection points: 2
#     Edge 28, Type (0, 0), BuildingBlock: ZUJKAS_clean_linker_0, # of connection points: 2
#     Edge 29, Type (0, 0), BuildingBlock: ZUJKAS_clean_linker_0, # of connection points: 2
#     Edge 30, Type (0, 0), BuildingBlock: ZUJKAS_clean_linker_0, # of connection points: 2
#     Edge 31, Type (0, 0), BuildingBlock: ZUJKAS_clean_linker_0, # of connection points: 2
#     Edge 32, Type (0, 0), BuildingBlock: ZUJKAS_clean_linker_0, # of connection points: 2
#     Edge 33, Type (0, 0), BuildingBlock: ZUJKAS_clean_linker_0, # of connection points: 2
#     Edge 34, Type (0, 0), BuildingBlock: ZUJKAS_clean_linker_0, # of connection points: 2
#     Edge 35, Type (0, 0), BuildingBlock: ZUJKAS_clean_linker_0, # of connection points: 2
# Relax obj value: 0.081
# Max RMSD: 0.103
# Mean RMSD: 0.098
data_MOF--net-ukh--node1-QUQFOY_clean_sbu_3--edge1-ZUJKAS_clean_linker_0
_symmetry_space_group_name_H-M    P1
_symmetry_Int_Tables_number       1
_symmetry_cell_setting            triclinic
loop_
_symmetry_equiv_pos_as_xyz
'x, y, z'
_cell_length_a     41.634337
_cell_length_b     42.297758
_cell_length_c     83.473103
_cell_angle_alpha  89.968209
_cell_angle_beta   90.02667
_cell_angle_gamma 119.49969
loop_
_atom_site_label
_atom_site_type_symbol
_atom_site_fract_x
_atom_site_fract_y
_atom_site_fract_z
_atom_type_partial_charge
C0 C 0.22812 0.18686 0.04256 0.0
O1 O 0.21949 0.16516 0.05434 0.0
Cd2 Cd 0.26423 0.16352 0.07187 0.0
O3 O 0.26182 0.20952 0.03958 0.0
Cd4 Cd 0.32463 0.22919 0.05003 0.0
C5 C 0.31269 0.14505 0.04335 0.0
O6 O 0.3067 0.22534 0.0778 0.0
O7 O 0.36138 0.23361 0.07409 0.0
O8 O 0.33399 0.28843 0.04226 0.0
C9 C 0.33674 0.23054 0.08388 0.0
O10 O 0.29251 0.13561 0.05585 0.0
C11 C 0.36624 0.30042 0.03666 0.0
O12 O 0.32612 0.17709 0.03766 0.0
O13 O 0.37935 0.27888 0.03692 0.0
C14 C 0.16798 0.35738 0.35175 0.0
O15 O 0.15437 0.37106 0.34219 0.0
Cd16 Cd 0.09634 0.36874 0.34701 0.0
O17 O 0.1514 0.34229 0.36472 0.0
Cd18 Cd 0.09589 0.32971 0.38017 0.0
C19 C 0.03957 0.27633 0.3504 0.0
O20 O 0.09882 0.38762 0.37425 0.0
O21 O 0.05111 0.34833 0.38742 0.0
O22 O 0.13486 0.34145 0.40371 0.0
C23 C 0.0691 0.37989 0.38151 0.0
O24 O 0.04901 0.30541 0.34252 0.0
C25 C 0.11099 0.31457 0.41171 0.0
O26 O 0.05383 0.27738 0.36403 0.0
O27 O 0.08039 0.29415 0.40486 0.0
C28 C 0.81055 0.17013 0.68236 0.0
O29 O 0.78658 0.15455 0.67144 0.0
Cd30 Cd 0.73022 0.09863 0.67615 0.0
O31 O 0.80566 0.15631 0.6963 0.0
Cd32 Cd 0.76071 0.10428 0.71212 0.0
C33 C 0.76492 0.04279 0.6874 0.0
O34 O 0.70645 0.10489 0.70137 0.0
O35 O 0.69671 0.06112 0.71754 0.0
O36 O 0.78162 0.14926 0.73341 0.0
C37 C 0.68359 0.0768 0.709 0.0
O38 O 0.7474 0.0513 0.67735 0.0
C39 C 0.78395 0.12898 0.74401 0.0
O40 O 0.77534 0.05926 0.70079 0.0
O41 O 0.77602 0.09713 0.73972 0.0
C42 C 0.74294 0.78387 0.0438 0.0
O43 O 0.75249 0.80524 0.05572 0.0
Cd44 Cd 0.70926 0.8119 0.07224 0.0
O45 O 0.70897 0.76414 0.0402 0.0
Cd46 Cd 0.64719 0.75097 0.04985 0.0
C47 C 0.66863 0.83783 0.04287 0.0
O48 O 0.66105 0.75209 0.07806 0.0
O49 O 0.61139 0.75388 0.07291 0.0
O50 O 0.63023 0.68884 0.04335 0.0
C51 C 0.6326 0.75212 0.08334 0.0
O52 O 0.68746 0.8451 0.05573 0.0
C53 C 0.59978 0.68062 0.03664 0.0
O54 O 0.65299 0.80588 0.03696 0.0
O55 O 0.59118 0.70556 0.03573 0.0
C56 C 0.80918 0.6313 0.35138 0.0
O57 O 0.82341 0.61795 0.34199 0.0
Cd58 Cd 0.88229 0.6221 0.34685 0.0
O59 O 0.82559 0.64714 0.36427 0.0
Cd60 Cd 0.88167 0.66213 0.3798 0.0
C61 C 0.93693 0.71488 0.34953 0.0
O62 O 0.88144 0.60552 0.37434 0.0
O63 O 0.92866 0.64644 0.38723 0.0
O64 O 0.84474 0.64892 0.40408 0.0
C65 C 0.91171 0.61468 0.38143 0.0
O66 O 0.92817 0.68569 0.34187 0.0
C67 C 0.8664 0.67861 0.41105 0.0
O68 O 0.92266 0.71393 0.36314 0.0
O69 O 0.89489 0.70098 0.40332 0.0
C70 C 0.16535 0.8102 0.67822 0.0
O71 O 0.1892 0.82642 0.66733 0.0
Cd72 Cd 0.24361 0.88427 0.67181 0.0
O73 O 0.16928 0.82439 0.69202 0.0
Cd74 Cd 0.21218 0.87832 0.70741 0.0
C75 C 0.20582 0.93784 0.6821 0.0
O76 O 0.26885 0.88181 0.6973 0.0
O77 O 0.27475 0.92555 0.71265 0.0
O78 O 0.19908 0.8374 0.72995 0.0
C79 C 0.28996 0.91109 0.70464 0.0
O80 O 0.22408 0.9299 0.67222 0.0
C81 C 0.18983 0.85477 0.73954 0.0
O82 O 0.19566 0.92158 0.69555 0.0
O83 O 0.19055 0.8832 0.73413 0.0
C84 C 0.80549 0.63294 0.63622 0.0
O85 O 0.77797 0.61885 0.64563 0.0
Cd86 Cd 0.72387 0.62427 0.64133 0.0
O87 O 0.80483 0.64986 0.6237 0.0
Cd88 Cd 0.76321 0.66563 0.60901 0.0
C89 C 0.76228 0.71728 0.63987 0.0
O90 O 0.70656 0.60878 0.61383 0.0
O91 O 0.70029 0.65206 0.60331 0.0
O92 O 0.78498 0.65185 0.58436 0.0
C93 C 0.68541 0.61922 0.60779 0.0
O94 O 0.74176 0.68762 0.64721 0.0
C95 C 0.79287 0.68144 0.57735 0.0
O96 O 0.77558 0.71714 0.62615 0.0
O97 O 0.78759 0.70418 0.58521 0.0
C98 C 0.03069 0.79072 0.94656 0.0
O99 O 0.04305 0.81372 0.93522 0.0
Cd100 Cd 0.09285 0.82201 0.9182 0.0
O101 O 0.04431 0.77006 0.94931 0.0
Cd102 Cd 0.09211 0.75655 0.93885 0.0
C103 C 0.15897 0.84267 0.94745 0.0
O104 O 0.0791 0.76206 0.91117 0.0
O105 O 0.12736 0.75681 0.91488 0.0
O106 O 0.04588 0.69431 0.94467 0.0
C107 C 0.10547 0.7594 0.90509 0.0
O108 O 0.14707 0.85229 0.93539 0.0
C109 C 0.06755 0.6853 0.95136 0.0
O110 O 0.14296 0.80961 0.95203 0.0
O111 O 0.10124 0.70978 0.95248 0.0
C112 C 0.34412 0.17161 0.30957 0.0
O113 O 0.35166 0.1556 0.3206 0.0
Cd114 Cd 0.34949 0.09825 0.31644 0.0
O115 O 0.33463 0.15751 0.29571 0.0
Cd116 Cd 0.32515 0.10432 0.28014 0.0
C117 C 0.25869 0.04404 0.30511 0.0
O118 O 0.37809 0.10202 0.29112 0.0
O119 O 0.34282 0.05852 0.27507 0.0
O120 O 0.35309 0.14648 0.25805 0.0
C121 C 0.3714 0.07312 0.28381 0.0
O122 O 0.28447 0.05218 0.31526 0.0
C123 C 0.32723 0.12884 0.24813 0.0
O124 O 0.26524 0.06037 0.29166 0.0
O125 O 0.2999 0.09955 0.25313 0.0
C126 C 0.17397 0.3537 0.63927 0.0
O127 O 0.20126 0.36658 0.64881 0.0
Cd128 Cd 0.25641 0.36401 0.64324 0.0
O129 O 0.17524 0.33919 0.62609 0.0
Cd130 Cd 0.21809 0.32681 0.6104 0.0
C131 C 0.22028 0.27181 0.63942 0.0
O132 O 0.27271 0.38493 0.61612 0.0
O133 O 0.28207 0.34534 0.60384 0.0
O134 O 0.19031 0.33888 0.58713 0.0
C135 C 0.29509 0.37742 0.6091 0.0
O136 O 0.24057 0.30053 0.6474 0.0
C137 C 0.18785 0.31263 0.57884 0.0
O138 O 0.20678 0.2736 0.62599 0.0
O139 O 0.19885 0.29251 0.58534 0.0
C140 C 0.94412 0.19304 0.94693 0.0
O141 O 0.93103 0.17243 0.93482 0.0
Cd142 Cd 0.8824 0.17048 0.91894 0.0
O143 O 0.93231 0.21466 0.95081 0.0
Cd144 Cd 0.88768 0.23382 0.9416 0.0
C145 C 0.81853 0.14892 0.94928 0.0
O146 O 0.90003 0.23229 0.91346 0.0
O147 O 0.85088 0.2351 0.91851 0.0
O148 O 0.93735 0.29337 0.94902 0.0
C149 C 0.87331 0.23545 0.90815 0.0
O150 O 0.82854 0.14008 0.9364 0.0
C151 C 0.91713 0.30483 0.95515 0.0
O152 O 0.83646 0.18124 0.9547 0.0
O153 O 0.88257 0.28287 0.95534 0.0
C154 C 0.63577 0.81867 0.30828 0.0
O155 O 0.62731 0.83377 0.31938 0.0
Cd156 Cd 0.62748 0.89021 0.31545 0.0
O157 O 0.64518 0.83333 0.29451 0.0
Cd158 Cd 0.65309 0.88646 0.27927 0.0
C159 C 0.71816 0.94696 0.30457 0.0
O160 O 0.59818 0.88527 0.29018 0.0
O161 O 0.63215 0.92985 0.27439 0.0
O162 O 0.6293 0.84266 0.25754 0.0
C163 C 0.60341 0.91378 0.28294 0.0
O164 O 0.69197 0.93788 0.31459 0.0
C165 C 0.65227 0.86328 0.24713 0.0
O166 O 0.7124 0.93102 0.29106 0.0
O167 O 0.67626 0.89488 0.2517 0.0
H168 H 0.61575 0.62577 0.03358 0.0
H169 H 0.57301 0.56195 0.02785 0.0
H170 H 0.48451 0.58615 0.02181 0.0
H171 H 0.52728 0.6504 0.02758 0.0
H172 H 0.47119 0.5314 0.04457 0.0
H173 H 0.52026 0.50464 0.98714 0.0
H174 H 0.5562 0.52826 0.00163 0.0
H175 H 0.53177 0.54982 0.99356 0.0
C176 C 0.58735 0.6177 0.03074 0.0
C177 C 0.57483 0.64309 0.03111 0.0
C178 C 0.56302 0.58122 0.02733 0.0
C179 C 0.52571 0.5694 0.02422 0.0
C180 C 0.51331 0.59485 0.02404 0.0
H181 H 0.341 0.34711 0.02934 0.0
H182 H 0.37762 0.41216 0.02384 0.0
C183 C 0.53775 0.63149 0.02734 0.0
C184 C 0.49915 0.53 0.02314 0.0
H185 H 0.48064 0.45257 0.003 0.0
C186 C 0.47277 0.51418 0.03533 0.0
C187 C 0.50166 0.50767 0.01118 0.0
C188 C 0.52878 0.52345 -0.00246 0.0
C189 C 0.44985 0.47643 0.0363 0.0
C190 C 0.45269 0.45393 0.02447 0.0
C191 C 0.47847 0.46984 0.01203 0.0
C192 C 0.43029 0.41377 0.02536 0.0
C193 C 0.4241 0.46097 0.05045 0.0
C194 C 0.44765 0.39268 0.02707 0.0
C195 C 0.42673 0.35531 0.02995 0.0
C196 C 0.38813 0.33854 0.03126 0.0
C197 C 0.37074 0.35937 0.02862 0.0
C198 C 0.39162 0.39657 0.02555 0.0
H199 H 0.432 0.48093 0.06038 0.0
H200 H 0.39569 0.45348 0.04665 0.0
H201 H 0.42374 0.43621 0.05512 0.0
H202 H 0.47748 0.40538 0.02687 0.0
H203 H 0.44088 0.33993 0.03189 0.0
H204 H 0.08533 0.437 0.36165 0.0
H205 H 0.05923 0.47766 0.36238 0.0
H206 H -0.00368 0.42232 0.40447 0.0
H207 H 0.02084 0.38044 0.40324 0.0
H208 H 0.9545 0.43181 0.38451 0.0
H209 H 0.08421 0.56269 0.39025 0.0
H210 H 0.08437 0.53844 0.37268 0.0
H211 H 0.08285 0.5196 0.39222 0.0
C212 C 0.06615 0.43377 0.37112 0.0
C213 C 0.0551 0.4057 0.38241 0.0
C214 C 0.05148 0.45717 0.37161 0.0
C215 C 0.02639 0.45355 0.38368 0.0
C216 C 0.01571 0.42571 0.39507 0.0
H217 H 0.96312 0.61753 0.40239 0.0
H218 H -0.01051 0.57714 0.40356 0.0
C219 C 0.02974 0.40184 0.39437 0.0
C220 C 0.00974 0.47747 0.38401 0.0
H221 H 0.03028 0.56611 0.3833 0.0
C222 C 0.97111 0.4612 0.3844 0.0
C223 C 0.03138 0.51581 0.3841 0.0
C224 C 0.07298 0.53514 0.38497 0.0
C225 C 0.95348 0.48213 0.38469 0.0
C226 C 0.97507 0.52042 0.38389 0.0
C227 C 0.01372 0.53673 0.38371 0.0
C228 C 0.95824 0.54417 0.38336 0.0
C229 C 0.91198 0.46288 0.38623 0.0
C230 C 0.93209 0.53921 0.37157 0.0
C231 C 0.91641 0.56174 0.37112 0.0
C232 C 0.92744 0.59027 0.38216 0.0
C233 C 0.95415 0.59571 0.39374 0.0
C234 C 0.96925 0.5727 0.3944 0.0
H235 H 0.90125 0.43581 0.39197 0.0
H236 H 0.90273 0.47903 0.3934 0.0
H237 H 0.8995 0.45848 0.37412 0.0
H238 H 0.92405 0.51816 0.36261 0.0
H239 H 0.89625 0.55732 0.36193 0.0
H240 H 0.33073 0.8981 0.68271 0.0
H241 H 0.39812 0.92762 0.68106 0.0
H242 H 0.40739 0.9913 0.72297 0.0
H243 H 0.3403 0.96304 0.72428 0.0
H244 H 0.455 0.03216 0.7005 0.0
H245 H 0.46366 0.90637 0.70898 0.0
H246 H 0.43651 0.90477 0.69198 0.0
H247 H 0.42137 0.90759 0.71186 0.0
C248 C 0.34722 0.91832 0.69158 0.0
C249 C 0.3304 0.92817 0.70368 0.0
C250 C 0.38565 0.93503 0.69067 0.0
C251 C 0.40771 0.96117 0.70206 0.0
C252 C 0.39086 0.97115 0.71407 0.0
H253 H 0.63048 0.02897 0.72899 0.0
H254 H 0.5638 0.00268 0.72632 0.0
C255 C 0.35256 0.95492 0.71483 0.0
C256 C 0.44839 0.97839 0.70159 0.0
H257 H 0.51948 0.96018 0.70349 0.0
C258 C 0.46917 0.01647 0.70114 0.0
C259 C 0.46669 0.95779 0.70257 0.0
C260 C 0.44596 0.9169 0.70403 0.0
C261 C 0.50779 0.0346 0.70196 0.0
C262 C 0.52609 0.01397 0.7027 0.0
C263 C 0.50533 0.97589 0.70283 0.0
C264 C 0.56662 0.03114 0.70433 0.0
C265 C 0.52842 0.07558 0.70266 0.0
C266 C 0.59034 0.05593 0.69286 0.0
C267 C 0.62856 0.07153 0.69453 0.0
C268 C 0.64348 0.06187 0.7075 0.0
C269 C 0.61969 0.03684 0.71887 0.0
C270 C 0.58162 0.02176 0.71734 0.0
H271 H 0.51016 0.08654 0.70634 0.0
H272 H 0.55192 0.08564 0.71117 0.0
H273 H 0.53948 0.08655 0.6906 0.0
H274 H 0.57933 0.06285 0.68252 0.0
H275 H 0.64635 0.09046 0.6855 0.0
H276 H 0.63376 0.63499 0.596 0.0
H277 H 0.56671 0.59556 0.59576 0.0
H278 H 0.579 0.50973 0.61764 0.0
H279 H 0.64603 0.54902 0.61808 0.0
H280 H 0.52432 0.52645 0.58125 0.0
H281 H 0.50611 0.52143 0.64728 0.0
H282 H 0.54778 0.55486 0.63749 0.0
H283 H 0.53962 0.50941 0.64048 0.0
C284 C 0.62219 0.60773 0.60077 0.0
C285 C 0.64509 0.59514 0.60716 0.0
C286 C 0.58394 0.58527 0.6006 0.0
C287 C 0.56804 0.55003 0.60689 0.0
C288 C 0.59083 0.53713 0.61299 0.0
H289 H 0.34903 0.36814 0.59505 0.0
H290 H 0.41507 0.41174 0.59389 0.0
C291 C 0.62907 0.55953 0.61316 0.0
C292 C 0.52757 0.52661 0.607 0.0
H293 H 0.45393 0.48073 0.6319 0.0
C294 C 0.50883 0.51655 0.5923 0.0
C295 C 0.50756 0.51428 0.62147 0.0
C296 C 0.52617 0.52576 0.63759 0.0
C297 C 0.4705 0.49358 0.59169 0.0
C298 C 0.4507 0.48012 0.60614 0.0
C299 C 0.46934 0.49093 0.62084 0.0
C300 C 0.41066 0.45433 0.60632 0.0
C301 C 0.45149 0.48415 0.5756 0.0
C302 C 0.38652 0.46373 0.61393 0.0
C303 C 0.34883 0.43884 0.6147 0.0
C304 C 0.33476 0.40406 0.60796 0.0
C305 C 0.35905 0.39478 0.60031 0.0
C306 C 0.39672 0.4197 0.59954 0.0
H307 H 0.46865 0.50386 0.5662 0.0
H308 H 0.44636 0.45684 0.57193 0.0
H309 H 0.42449 0.48343 0.57621 0.0
H310 H 0.3969 0.49031 0.61931 0.0
H311 H 0.33079 0.44674 0.62068 0.0
H312 H -0.01069 0.35202 0.9617 0.0
H313 H 0.01757 0.41702 0.96713 0.0
H314 H 0.91025 0.4091 0.96556 0.0
H315 H 0.88168 0.34375 0.96064 0.0
H316 H 0.01654 0.46368 0.94647 0.0
H317 H 0.95487 0.47593 0.00318 0.0
H318 H 0.95155 0.43367 -0.00326 0.0
H319 H 0.92039 0.4479 0.98888 0.0
C320 C 0.97163 0.36398 0.96287 0.0
C321 C 0.93329 0.34284 0.96067 0.0
C322 C 0.98783 0.40113 0.96599 0.0
C323 C 0.96607 0.41798 0.96689 0.0
C324 C 0.92757 0.39664 0.96532 0.0
H325 H -0.00353 0.62992 0.95212 0.0
H326 H 0.97464 0.56606 0.95825 0.0
C327 C 0.91127 0.3593 0.96239 0.0
C328 C 0.98402 0.45823 0.96744 0.0
H329 H 0.98306 0.52931 0.98643 0.0
C330 C 0.00969 0.47805 0.9554 0.0
C331 C 0.975 0.47699 0.97904 0.0
C332 C 0.94922 0.45753 0.99278 0.0
C333 C 0.02546 0.51587 0.95424 0.0
C334 C 0.01557 0.53447 0.96553 0.0
C335 C -0.00941 0.51489 0.97781 0.0
C336 C 0.02875 0.57382 0.96389 0.0
C337 C 0.05138 0.53546 0.94053 0.0
C338 C 0.06634 0.59947 0.96546 0.0
C339 C 0.07898 0.6361 0.96193 0.0
C340 C 0.05418 0.64753 0.95677 0.0
C341 C 0.01634 0.62195 0.95594 0.0
C342 C 0.00375 0.58547 0.95951 0.0
H343 H 0.05122 0.51638 0.93135 0.0
H344 H 0.04386 0.5545 0.93467 0.0
H345 H 0.07991 0.55161 0.94521 0.0
H346 H 0.08598 0.59098 0.96898 0.0
H347 H 0.10826 0.65518 0.96277 0.0
H348 H 0.37288 0.02113 0.26521 0.0
H349 H 0.41132 0.99292 0.26871 0.0
H350 H 0.45963 0.05739 0.31114 0.0
H351 H 0.42218 0.08684 0.30733 0.0
H352 H 0.51099 0.05792 0.29293 0.0
H353 H 0.4001 0.91563 0.29934 0.0
H354 H 0.3946 0.93473 0.28108 0.0
H355 H 0.39115 0.95323 0.30005 0.0
C356 C 0.39158 0.02917 0.27533 0.0
C357 C 0.39455 0.05609 0.28602 0.0
C358 C 0.41325 0.01277 0.27741 0.0
C359 C 0.43763 0.02236 0.29043 0.0
C360 C 0.44074 0.04936 0.3011 0.0
H361 H 0.55079 0.89649 0.306 0.0
H362 H 0.51148 0.9239 0.31002 0.0
C363 C 0.41944 0.0662 0.29889 0.0
C364 C 0.46144 0.00572 0.29226 0.0
H365 H 0.45992 0.92438 0.29166 0.0
C366 C 0.49979 0.02871 0.29291 0.0
C367 C 0.44683 0.96762 0.29262 0.0
C368 C 0.40589 0.94144 0.29342 0.0
C369 C 0.524 0.01464 0.29304 0.0
C370 C 0.50943 0.97662 0.29194 0.0
C371 C 0.47107 0.95357 0.29218 0.0
C372 C 0.53345 0.96035 0.28974 0.0
C373 C 0.5649 0.04072 0.29432 0.0
C374 C 0.55823 0.97127 0.27684 0.0
C375 C 0.58091 0.95602 0.27465 0.0
C376 C 0.57862 0.92899 0.28511 0.0
C377 C 0.55308 0.91729 0.29776 0.0
C378 C 0.53071 0.93295 0.30009 0.0
H379 H 0.57044 0.06601 0.30066 0.0
H380 H 0.57931 0.02834 0.30077 0.0
H381 H 0.57677 0.04847 0.28211 0.0
H382 H 0.55991 0.99147 0.2684 0.0
H383 H 0.60005 0.96524 0.26468 0.0
H384 H 0.27781 0.09546 0.2238 0.0
H385 H 0.28259 0.11644 0.1961 0.0
H386 H 0.38613 0.2119 0.20715 0.0
H387 H 0.3815 0.19136 0.23487 0.0
H388 H 0.33641 0.22596 0.18947 0.0
H389 H 0.35506 0.11621 0.16231 0.0
H390 H 0.31525 0.10058 0.175 0.0
H391 H 0.36064 0.12611 0.18349 0.0
C392 C 0.30157 0.12093 0.22034 0.0
C393 C 0.32937 0.14167 0.23149 0.0
C394 C 0.30434 0.13276 0.2045 0.0
C395 C 0.33497 0.16543 0.19957 0.0
C396 C 0.36238 0.18651 0.21074 0.0
H397 H 0.3939 0.23036 0.10002 0.0
H398 H 0.39633 0.21819 0.12858 0.0
C399 C 0.35969 0.17469 0.22655 0.0
C400 C 0.33838 0.17778 0.18277 0.0
H401 H 0.34559 0.15446 0.14436 0.0
C402 C 0.33859 0.21046 0.17959 0.0
C403 C 0.34181 0.15774 0.16998 0.0
C404 C 0.34353 0.12337 0.17281 0.0
C405 C 0.34113 0.22317 0.16386 0.0
C406 C 0.34312 0.20239 0.15102 0.0
C407 C 0.34389 0.17021 0.15425 0.0
C408 C 0.34308 0.21278 0.13411 0.0
C409 C 0.34185 0.25877 0.1611 0.0
C410 C 0.31242 0.2139 0.12783 0.0
C411 C 0.31094 0.22081 0.11158 0.0
C412 C 0.34003 0.2265 0.10128 0.0
C413 C 0.3711 0.22614 0.10766 0.0
C414 C 0.37251 0.21915 0.12395 0.0
H415 H 0.35036 0.27589 0.17206 0.0
H416 H 0.36097 0.27428 0.15119 0.0
H417 H 0.31377 0.25328 0.15776 0.0
H418 H 0.28912 0.20838 0.13542 0.0
H419 H 0.28658 0.22081 0.10702 0.0
H420 H 0.06004 0.27249 0.4341 0.0
H421 H 0.07044 0.26838 0.46268 0.0
H422 H 0.18744 0.33824 0.45579 0.0
H423 H 0.17704 0.34369 0.42733 0.0
H424 H 0.10829 0.2449 0.47983 0.0
H425 H 0.16712 0.39258 0.4899 0.0
H426 H 0.14537 0.37102 0.4713 0.0
H427 H 0.19258 0.383 0.47522 0.0
C428 C 0.08801 0.28681 0.43867 0.0
C429 C 0.1177 0.30879 0.42854 0.0
C430 C 0.0939 0.28443 0.455 0.0
C431 C 0.12961 0.30375 0.46145 0.0
C432 C 0.15953 0.32405 0.45117 0.0
H433 H 0.19819 0.27308 0.55567 0.0
H434 H 0.18146 0.26869 0.52737 0.0
C435 C 0.15359 0.32693 0.43489 0.0
C436 C 0.13539 0.30333 0.47896 0.0
H437 H 0.17311 0.35877 0.51132 0.0
C438 C 0.12228 0.26977 0.48675 0.0
C439 C 0.15289 0.33576 0.48805 0.0
C440 C 0.16493 0.37258 0.48072 0.0
C441 C 0.12687 0.26779 0.50333 0.0
C442 C 0.14612 0.30032 0.51224 0.0
C443 C 0.15864 0.33382 0.50448 0.0
C444 C 0.15395 0.30062 0.52961 0.0
C445 C 0.11034 0.23085 0.51111 0.0
C446 C 0.14476 0.32061 0.54027 0.0
C447 C 0.15511 0.32391 0.55636 0.0
C448 C 0.17454 0.30694 0.56213 0.0
C449 C 0.18288 0.28613 0.55158 0.0
C450 C 0.17308 0.28337 0.53541 0.0
H451 H 0.08679 0.21008 0.50402 0.0
H452 H 0.13158 0.22228 0.51176 0.0
H453 H 0.10057 0.23129 0.52344 0.0
H454 H 0.13009 0.33424 0.53607 0.0
H455 H 0.14826 0.34006 0.56424 0.0
H456 H 0.77217 0.08764 0.77076 0.0
H457 H 0.78619 0.10857 0.79851 0.0
H458 H 0.8344 0.21972 0.78248 0.0
H459 H 0.8189 0.19884 0.7548 0.0
H460 H 0.84839 0.14851 0.81325 0.0
H461 H 0.76684 0.21946 0.81635 0.0
H462 H 0.76326 0.19061 0.79976 0.0
H463 H 0.80043 0.23687 0.8006 0.0
C464 C 0.78569 0.11653 0.77318 0.0
C465 C 0.79422 0.14161 0.76066 0.0
C466 C 0.79363 0.12846 0.78903 0.0
C467 C 0.81059 0.16569 0.79263 0.0
C468 C 0.82019 0.19083 0.78007 0.0
H469 H 0.92128 0.25079 0.88352 0.0
H470 H 0.90643 0.23676 0.85516 0.0
C471 C 0.81165 0.17888 0.76424 0.0
C472 C 0.81923 0.17813 0.80949 0.0
H473 H 0.80875 0.23042 0.83791 0.0
C474 C 0.83954 0.16627 0.81866 0.0
C475 C 0.80717 0.20084 0.81663 0.0
C476 C 0.78288 0.21236 0.80787 0.0
C477 C 0.84842 0.17669 0.8347 0.0
C478 C 0.83798 0.20087 0.8416 0.0
C479 C 0.81727 0.21239 0.83251 0.0
C480 C 0.84747 0.21361 0.85837 0.0
C481 C 0.86802 0.1608 0.84416 0.0
C482 C 0.81954 0.2076 0.86939 0.0
C483 C 0.8281 0.21653 0.88554 0.0
C484 C 0.86468 0.23124 0.8909 0.0
C485 C 0.89279 0.23899 0.87971 0.0
C486 C 0.88431 0.23071 0.86355 0.0
H487 H 0.86382 0.135 0.8388 0.0
H488 H 0.8981 0.18026 0.84417 0.0
H489 H 0.85827 0.15541 0.85677 0.0
H490 H 0.79096 0.19475 0.86562 0.0
H491 H 0.80591 0.2103 0.89393 0.0
H492 H 0.59306 0.78099 0.09696 0.0
H493 H 0.59512 0.79916 0.12495 0.0
H494 H 0.66611 0.75484 0.13643 0.0
H495 H 0.66541 0.73804 0.10837 0.0
H496 H 0.5762 0.7648 0.15284 0.0
H497 H 0.72737 0.85686 0.15224 0.0
H498 H 0.70143 0.83628 0.13427 0.0
H499 H 0.71529 0.81111 0.14726 0.0
C500 C 0.60885 0.77487 0.10549 0.0
C501 C 0.62946 0.75853 0.10048 0.0
C502 C 0.61007 0.78532 0.12146 0.0
C503 C 0.63163 0.77929 0.13269 0.0
C504 C 0.65033 0.7609 0.12788 0.0
H505 H 0.6165 0.79389 0.23584 0.0
H506 H 0.61151 0.77386 0.20806 0.0
C507 C 0.64964 0.75101 0.11188 0.0
C508 C 0.63508 0.79278 0.14934 0.0
H509 H 0.69816 0.84429 0.17779 0.0
C510 C 0.60285 0.78234 0.15828 0.0
C511 C 0.66984 0.81636 0.15631 0.0
C512 C 0.7054 0.83114 0.14696 0.0
C513 C 0.60444 0.7942 0.17411 0.0
C514 C 0.6393 0.81609 0.18136 0.0
C515 C 0.67148 0.82711 0.17231 0.0
C516 C 0.6431 0.82812 0.19829 0.0
C517 C 0.56871 0.78378 0.18271 0.0
C518 C 0.66404 0.86517 0.20214 0.0
C519 C 0.66774 0.87662 0.21807 0.0
C520 C 0.65028 0.85122 0.2304 0.0
C521 C 0.62989 0.81412 0.22656 0.0
C522 C 0.62672 0.80265 0.21067 0.0
H523 H 0.54595 0.7776 0.17413 0.0
H524 H 0.56069 0.75896 0.18994 0.0
H525 H 0.57152 0.80575 0.19086 0.0
H526 H 0.67717 0.8853 0.19279 0.0
H527 H 0.6836 0.90539 0.22068 0.0
H528 H 0.80802 0.63812 0.55828 0.0
H529 H 0.82555 0.64707 0.53004 0.0
H530 H 0.82478 0.74865 0.53015 0.0
H531 H 0.80686 0.73977 0.55846 0.0
H532 H 0.78465 0.70247 0.50498 0.0
H533 H 0.92425 0.71735 0.50898 0.0
H534 H 0.88974 0.67775 0.51916 0.0
H535 H 0.90063 0.72215 0.52616 0.0
C536 C 0.81198 0.66259 0.55236 0.0
C537 C 0.80609 0.68826 0.5606 0.0
C538 C 0.82221 0.66775 0.53625 0.0
C539 C 0.82694 0.69875 0.52808 0.0
C540 C 0.82149 0.72467 0.53629 0.0
H541 H 0.91003 0.73784 0.42954 0.0
H542 H 0.90072 0.74766 0.45768 0.0
C543 C 0.81132 0.71956 0.55245 0.0
C544 C 0.83522 0.70271 0.51072 0.0
H545 H 0.89566 0.70301 0.48306 0.0
C546 C 0.80916 0.70311 0.50018 0.0
C547 C 0.86743 0.70401 0.50451 0.0
C548 C 0.89731 0.70567 0.5153 0.0
C549 C 0.81363 0.70302 0.48352 0.0
C550 C 0.84471 0.70201 0.47732 0.0
C551 C 0.87165 0.7034 0.48786 0.0
C552 C 0.84891 0.69755 0.45999 0.0
C553 C 0.78489 0.70365 0.47272 0.0
C554 C 0.82283 0.66614 0.452 0.0
C555 C 0.82805 0.66044 0.43596 0.0
C556 C 0.8596 0.68597 0.42765 0.0
C557 C 0.88541 0.71771 0.43561 0.0
C558 C 0.88017 0.72336 0.45168 0.0
H559 H 0.76944 0.71525 0.47893 0.0
H560 H 0.79762 0.7197 0.4617 0.0
H561 H 0.76477 0.67544 0.46912 0.0
H562 H 0.79891 0.64553 0.45829 0.0
H563 H 0.80775 0.63565 0.43019 0.0
H564 H 0.16443 0.76313 0.88884 0.0
H565 H 0.17867 0.77622 0.86029 0.0
H566 H 0.07852 0.78122 0.85374 0.0
H567 H 0.06389 0.76784 0.88211 0.0
H568 H 0.09143 0.74183 0.82969 0.0
H569 H 0.21363 0.87769 0.84054 0.0
H570 H 0.2141 0.8404 0.85067 0.0
H571 H 0.18 0.85289 0.8559 0.0
C572 C 0.14535 0.76679 0.88128 0.0
C573 C 0.11319 0.76474 0.88773 0.0
C574 C 0.15362 0.77444 0.86502 0.0
C575 C 0.1299 0.78022 0.855 0.0
C576 C 0.09723 0.777 0.86131 0.0
H577 H 0.17149 0.8878 0.76317 0.0
H578 H 0.15607 0.86832 0.79109 0.0
C579 C 0.08897 0.76941 0.87753 0.0
C580 C 0.13925 0.79036 0.838 0.0
H581 H 0.20085 0.85791 0.81366 0.0
C582 C 0.11541 0.76712 0.82615 0.0
C583 C 0.17026 0.82365 0.8335 0.0
C584 C 0.19587 0.85032 0.84579 0.0
C585 C 0.12185 0.77624 0.80986 0.0
C586 C 0.15319 0.80925 0.80535 0.0
C587 C 0.17695 0.83254 0.8172 0.0
C588 C 0.16163 0.82037 0.78839 0.0
C589 C 0.09468 0.75089 0.79763 0.0
C590 C 0.17002 0.79991 0.7777 0.0
C591 C 0.17879 0.81092 0.76178 0.0
C592 C 0.1795 0.8427 0.75629 0.0
C593 C 0.17107 0.86314 0.76703 0.0
C594 C 0.16233 0.85211 0.78297 0.0
H595 H 0.06792 0.73131 0.8032 0.0
H596 H 0.08949 0.76636 0.7882 0.0
H597 H 0.10626 0.73515 0.79178 0.0
H598 H 0.17023 0.77567 0.78173 0.0
H599 H 0.18533 0.79467 0.75382 0.0
H600 H 0.18634 0.83543 0.97638 0.0
H601 H 0.22913 0.88457 0.99398 0.0
H602 H 0.24248 0.96338 0.95804 0.0
H603 H 0.20054 0.91476 0.94031 0.0
H604 H 0.30848 0.98177 0.97549 0.0
H605 H 0.18691 0.94448 0.01487 0.0
H606 H 0.19831 0.90937 0.01105 0.0
H607 H 0.18228 0.92623 0.99496 0.0
C608 C 0.19899 0.86316 0.97208 0.0
C609 C 0.18942 0.87118 0.95705 0.0
C610 C 0.22337 0.8912 0.98217 0.0
C611 C 0.23838 0.92761 0.9774 0.0
C612 C 0.23109 0.93547 0.96196 0.0
H613 H 0.3246 0.14246 0.01127 0.0
H614 H 0.31522 0.08912 -0.00386 0.0
C615 C 0.20687 0.90757 0.95188 0.0
C616 C 0.25781 0.95771 0.98897 0.0
H617 H 0.24165 -0.00317 0.02139 0.0
C618 C 0.29416 0.98489 0.98569 0.0
C619 C 0.23896 0.96174 0.00222 0.0
C620 C 0.19939 0.93414 0.00599 0.0
C621 C 0.3119 0.01642 -0.00485 0.0
C622 C 0.29245 0.02108 0.00799 0.0
C623 C 0.25665 0.9932 0.0116 0.0
C624 C 0.30676 0.05559 0.01707 0.0
C625 C 0.35109 0.04451 0.9912 0.0
C626 C 0.30587 0.05485 0.03388 0.0
C627 C 0.31047 0.08505 0.04251 0.0
C628 C 0.31634 0.11671 0.03451 0.0
C629 C 0.32035 0.11853 0.01777 0.0
C630 C 0.31521 0.08806 0.0091 0.0
H631 H 0.36594 0.03191 0.98529 0.0
H632 H 0.35082 0.06464 0.98275 0.0
H633 H 0.36658 0.0591 0.0021 0.0
H634 H 0.29939 0.03013 0.04029 0.0
H635 H 0.30754 0.08295 0.05543 0.0
H636 H 0.20935 0.38358 0.32439 0.0
H637 H 0.25835 0.37187 0.31519 0.0
H638 H 0.25117 0.31608 0.35943 0.0
H639 H 0.20287 0.32812 0.36886 0.0
H640 H 0.32493 0.35727 0.34659 0.0
H641 H 0.22075 0.26525 0.3021 0.0
H642 H 0.23274 0.31226 0.30164 0.0
H643 H 0.20848 0.28469 0.3186 0.0
C644 C 0.21873 0.36948 0.3323 0.0
C645 C 0.20163 0.35606 0.34721 0.0
C646 C 0.24674 0.36287 0.32702 0.0
C647 C 0.25781 0.34259 0.33653 0.0
C648 C 0.2429 0.33173 0.35191 0.0
H649 H 0.3406 0.19902 0.33875 0.0
H650 H 0.32974 0.24981 0.34381 0.0
C651 C 0.21508 0.33843 0.35723 0.0
C652 C 0.28065 0.32796 0.32984 0.0
H653 H 0.27444 0.2617 0.30476 0.0
C654 C 0.31436 0.33687 0.33722 0.0
C655 C 0.26671 0.3014 0.31761 0.0
C656 C 0.23011 0.29002 0.30955 0.0
C657 C 0.33383 0.31878 0.33311 0.0
C658 C 0.31867 0.29064 0.32159 0.0
C659 C 0.28608 0.28332 0.31358 0.0
C660 C 0.33316 0.26538 0.31886 0.0
C661 C 0.36999 0.32948 0.34136 0.0
C662 C 0.33889 0.25729 0.30318 0.0
C663 C 0.34419 0.22772 0.30024 0.0
C664 C 0.34409 0.20585 0.31294 0.0
C665 C 0.34088 0.21544 0.32873 0.0
C666 C 0.33508 0.24476 0.33165 0.0
H667 H 0.38422 0.35865 0.34477 0.0
H668 H 0.36459 0.31339 0.35252 0.0
H669 H 0.38867 0.3244 0.33363 0.0
H670 H 0.33737 0.27274 0.29314 0.0
H671 H 0.347 0.22122 0.28795 0.0
H672 H 0.84308 0.19404 0.65313 0.0
H673 H 0.90593 0.24302 0.64799 0.0
H674 H 0.91947 0.2709 0.69819 0.0
H675 H 0.85719 0.22112 0.70352 0.0
H676 H 0.94807 0.31782 0.65328 0.0
H677 H -0.0036 0.24021 0.69064 0.0
H678 H 0.94891 0.22148 0.68463 0.0
H679 H 0.96716 0.25391 0.7007 0.0
C680 C 0.85924 0.21099 0.66303 0.0
C681 C 0.84562 0.20331 0.67877 0.0
C682 C 0.89506 0.23904 0.66007 0.0
C683 C 0.91755 0.25998 0.67278 0.0
C684 C 0.90282 0.25443 0.68829 0.0
H685 H 0.15771 0.37399 0.66796 0.0
H686 H 0.0971 0.36252 0.67709 0.0
C687 C 0.86727 0.22603 0.6913 0.0
C688 C 0.9574 0.28437 0.67001 0.0
H689 H 0.04138 0.29218 0.67782 0.0
C690 C 0.96861 0.31261 0.6588 0.0
C691 C 0.98409 0.27746 0.67726 0.0
C692 C 0.97367 0.24648 0.68887 0.0
C693 C 0.00575 0.33336 0.65422 0.0
C694 C 0.03205 0.32531 0.66095 0.0
C695 C 0.02112 0.29842 0.67278 0.0
C696 C 0.06981 0.34037 0.65449 0.0
C697 C 0.01638 0.3631 0.64198 0.0
C698 C 0.07465 0.33249 0.63865 0.0
C699 C 0.10911 0.33877 0.63342 0.0
C700 C 0.13932 0.35283 0.64399 0.0
C701 C 0.13496 0.36294 0.65955 0.0
C702 C 0.1004 0.35657 0.66477 0.0
H703 H -0.00294 0.37412 0.64222 0.0
H704 H 0.04489 0.38567 0.64403 0.0
H705 H 0.01508 0.35182 0.62985 0.0
H706 H 0.05128 0.31921 0.63062 0.0
H707 H 0.11157 0.33089 0.62133 0.0
H708 H 0.65874 0.84285 0.0107 0.0
H709 H 0.67093 0.89781 -0.00405 0.0
H710 H 0.68942 0.95577 0.04052 0.0
H711 H 0.67841 0.90145 0.05529 0.0
H712 H 0.64488 0.94852 -0.00419 0.0
H713 H 0.78919 0.00962 0.01804 0.0
H714 H 0.75638 0.962 0.02028 0.0
H715 H 0.75487 -0.00521 0.03351 0.0
C716 C 0.66464 0.8671 0.01736 0.0
C717 C 0.66834 0.86809 0.03412 0.0
C718 C 0.67158 0.89846 0.00892 0.0
C719 C 0.68194 0.93105 0.01715 0.0
C720 C 0.68233 0.93112 0.03394 0.0
H721 H 0.7992 0.15242 0.98038 0.0
H722 H 0.75844 0.10121 -0.00251 0.0
C723 C 0.67596 0.90004 0.04235 0.0
C724 C 0.69624 0.96565 0.00819 0.0
H725 H 0.7749 0.04631 0.00186 0.0
C726 C 0.67321 0.97005 -0.00281 0.0
C727 C 0.73329 0.99364 0.00998 0.0
C728 C 0.76002 0.9898 0.02097 0.0
C729 C 0.68642 0.00173 0.98785 0.0
C730 C 0.72361 0.02937 0.98949 0.0
C731 C 0.74626 0.02527 0.00077 0.0
C732 C 0.74119 0.06111 0.9786 0.0
C733 C 0.66055 0.00527 0.97627 0.0
C734 C 0.74419 0.05569 0.96222 0.0
C735 C 0.7675 0.08482 0.95244 0.0
C736 C 0.78849 0.11994 0.95887 0.0
C737 C 0.78348 0.12574 0.97504 0.0
C738 C 0.76019 0.0965 0.98484 0.0
H739 H 0.63131 0.98823 0.98 0.0
H740 H 0.66685 0.03393 0.97523 0.0
H741 H 0.66372 -0.00409 0.96426 0.0
H742 H 0.73041 0.02857 0.95719 0.0
H743 H 0.77054 0.07939 0.94001 0.0
H744 H 0.63538 0.77088 0.28629 0.0
H745 H 0.64468 0.71905 0.29124 0.0
H746 H 0.64854 0.73872 0.34211 0.0
H747 H 0.63801 0.7898 0.33728 0.0
H748 H 0.70624 0.72831 0.30363 0.0
H749 H 0.59283 0.62991 0.34175 0.0
H750 H 0.58979 0.66519 0.33078 0.0
H751 H 0.61235 0.67469 0.35003 0.0
C752 C 0.63738 0.76365 0.29856 0.0
C753 C 0.63639 0.78463 0.31141 0.0
C754 C 0.64247 0.73389 0.30136 0.0
C755 C 0.64691 0.72471 0.31704 0.0
C756 C 0.64417 0.74459 0.32993 0.0
H757 H 0.77247 0.65891 0.36826 0.0
H758 H 0.72447 0.67085 0.35831 0.0
C759 C 0.63857 0.77409 0.32715 0.0
C760 C 0.66068 0.69887 0.31978 0.0
H761 H 0.65163 0.63047 0.34439 0.0
C762 C 0.69371 0.7062 0.31219 0.0
C763 C 0.64433 0.67007 0.33096 0.0
C764 C 0.60764 0.65929 0.3387 0.0
C765 C 0.71237 0.68749 0.31637 0.0
C766 C 0.69726 0.6603 0.32832 0.0
C767 C 0.6631 0.65136 0.33523 0.0
C768 C 0.71939 0.64517 0.33533 0.0
C769 C 0.74947 0.69889 0.30881 0.0
C770 C 0.73111 0.62524 0.32596 0.0
C771 C 0.75895 0.61868 0.33154 0.0
C772 C 0.77523 0.63183 0.34662 0.0
C773 C 0.76093 0.64886 0.35651 0.0
C774 C 0.73327 0.65549 0.35089 0.0
H775 H 0.75955 0.72397 0.30151 0.0
H776 H 0.77039 0.70371 0.31816 0.0
H777 H 0.74723 0.67687 0.30086 0.0
H778 H 0.72027 0.61664 0.31398 0.0
H779 H 0.76899 0.60504 0.32372 0.0
H780 H 0.11928 0.7595 0.69962 0.0
H781 H 0.05814 0.70797 0.69431 0.0
H782 H 0.07283 0.73285 0.64379 0.0
H783 H 0.13447 0.78352 0.64897 0.0
H784 H 0.00642 0.71951 0.68349 0.0
H785 H 0.01727 0.62443 0.64171 0.0
H786 H 0.0565 0.65799 0.65285 0.0
H787 H 0.04308 0.66994 0.63426 0.0
C788 C 0.10984 0.75336 0.68733 0.0
C789 C 0.13141 0.77577 0.67471 0.0
C790 C 0.07499 0.72379 0.68431 0.0
C791 C 0.06094 0.7163 0.66865 0.0
C792 C 0.08336 0.7374 0.65593 0.0
H793 H 0.86988 0.66231 0.61929 0.0
H794 H 0.92941 0.67153 0.62851 0.0
C795 C 0.1185 0.76666 0.65892 0.0
C796 C 0.02105 0.69143 0.66594 0.0
H797 H 0.95996 0.62737 0.64018 0.0
C798 C -0.00387 0.69857 0.67436 0.0
C799 C 0.00763 0.66415 0.65402 0.0
C800 C 0.03259 0.65346 0.64534 0.0
C801 C 0.95868 0.68135 0.67031 0.0
C802 C 0.94571 0.65589 0.65763 0.0
C803 C 0.97008 0.64697 0.64988 0.0
C804 C 0.90849 0.64279 0.65087 0.0
C805 C 0.93392 0.69264 0.67885 0.0
C806 C 0.87677 0.62219 0.66013 0.0
C807 C 0.84262 0.61718 0.65498 0.0
C808 C 0.83979 0.63257 0.64046 0.0
C809 C 0.87115 0.6505 0.63064 0.0
C810 C 0.9052 0.65559 0.63582 0.0
H811 H 0.94962 0.7165 0.68677 0.0
H812 H 0.9182 0.69943 0.67006 0.0
H813 H 0.91377 0.66979 0.68635 0.0
H814 H 0.87879 0.61171 0.6717 0.0
H815 H 0.8189 0.6028 0.66273 0.0
H816 H 0.96787 0.14331 0.94522 0.0
H817 H 0.01505 0.14059 0.96162 0.0
H818 H 0.03399 0.23746 0.98667 0.0
H819 H 0.98615 0.23988 0.97062 0.0
H820 H 0.08759 0.18834 0.96451 0.0
H821 H 0.01895 0.16927 0.02339 0.0
H822 H -0.00463 0.16489 0.00469 0.0
H823 H 0.0252 0.2091 0.01305 0.0
C824 C 0.98197 0.16399 0.95426 0.0
C825 C 0.97309 0.1917 0.95669 0.0
C826 C 0.00892 0.16238 0.96361 0.0
C827 C 0.02756 0.18844 0.97555 0.0
C828 C 0.01927 0.21652 0.97781 0.0
H829 H 0.23498 0.23634 0.01981 0.0
H830 H 0.18625 0.23579 0.00332 0.0
C831 C -0.00793 0.21799 0.96856 0.0
C832 C 0.0563 0.18668 0.98535 0.0
H833 H 0.08172 0.18299 0.02386 0.0
C834 C 0.08624 0.18697 0.97749 0.0
C835 C 0.05414 0.1843 0.00226 0.0
C836 C 0.0215 0.18149 0.01135 0.0
C837 C 0.11448 0.18562 0.98609 0.0
C838 C 0.11316 0.18491 0.00303 0.0
C839 C 0.08287 0.18393 0.01088 0.0
C840 C 0.14283 0.18507 0.01289 0.0
C841 C 0.14506 0.18434 0.97693 0.0
C842 C 0.13443 0.15728 0.02406 0.0
C843 C 0.16213 0.15779 0.03369 0.0
C844 C 0.19879 0.18611 0.03228 0.0
C845 C 0.2071 0.21395 0.02108 0.0
C846 C 0.17931 0.21357 0.01157 0.0
H847 H 0.13636 0.1741 0.96454 0.0
H848 H 0.16906 0.21217 0.97609 0.0
H849 H 0.15412 0.16673 0.98305 0.0
H850 H 0.10641 0.13512 0.02532 0.0
H851 H 0.15481 0.13592 0.04219 0.0
H852 H 0.73993 0.98542 0.33249 0.0
H853 H 0.79848 0.03988 0.33816 0.0
H854 H 0.83872 0.03377 0.29134 0.0
H855 H 0.77999 0.97885 0.28549 0.0
H856 H 0.89105 0.05115 0.31806 0.0
H857 H 0.82592 0.13831 0.31578 0.0
H858 H 0.80305 0.09953 0.32874 0.0
H859 H 0.80422 0.09299 0.30752 0.0
C860 C 0.76122 -0.00463 0.3234 0.0
C861 C 0.75506 0.97791 0.30846 0.0
C862 C 0.79466 0.02658 0.32666 0.0
C863 C 0.82259 0.04108 0.31507 0.0
C864 C 0.81732 0.02301 0.3004 0.0
H865 H 0.00338 0.26377 0.32172 0.0
H866 H 0.95367 0.20615 0.31161 0.0
C867 C 0.78376 0.99168 0.29709 0.0
C868 C 0.85659 0.0759 0.31818 0.0
H869 H 0.88676 0.16519 0.32631 0.0
C870 C 0.89029 0.07619 0.31973 0.0
C871 C 0.85549 0.10855 0.32011 0.0
C872 C 0.82032 0.11008 0.31781 0.0
C873 C 0.92281 0.10822 0.32378 0.0
C874 C 0.92129 0.14048 0.32649 0.0
C875 C 0.88781 0.14036 0.32435 0.0
C876 C 0.95372 0.17456 0.33199 0.0
C877 C 0.95845 0.10726 0.3251 0.0
C878 C 0.97028 0.17588 0.3468 0.0
C879 C -0.00128 0.20879 0.35264 0.0
C880 C 0.01094 0.24106 0.34382 0.0
C881 C -0.00535 0.23948 0.32885 0.0
C882 C 0.96625 0.20656 0.32303 0.0
H883 H 0.95718 0.08406 0.31834 0.0
H884 H 0.98207 0.13286 0.32059 0.0
H885 H 0.96368 0.10405 0.33788 0.0
H886 H 0.96048 0.15165 0.35408 0.0
H887 H 0.01054 0.20901 0.36423 0.0
H888 H 0.73885 0.72813 0.66896 0.0
H889 H 0.74536 0.78487 0.67955 0.0
H890 H 0.80713 0.84196 0.63761 0.0
H891 H 0.80121 0.7855 0.62696 0.0
H892 H 0.83551 0.88047 0.66724 0.0
H893 H 0.68499 0.82846 0.65948 0.0
H894 H 0.69709 0.80048 0.67139 0.0
H895 H 0.70841 0.80668 0.65044 0.0
C896 C 0.75413 0.75278 0.66203 0.0
C897 C 0.76912 0.75215 0.647 0.0
C898 C 0.75775 0.78516 0.66811 0.0
C899 C 0.77623 0.81742 0.65924 0.0
C900 C 0.79267 0.81728 0.6446 0.0
H901 H 0.75045 0.00542 0.65928 0.0
H902 H 0.75646 0.95214 0.65347 0.0
C903 C 0.78914 0.78494 0.63852 0.0
C904 C 0.77641 0.85081 0.66467 0.0
H905 H 0.71981 0.88671 0.67072 0.0
C906 C 0.81026 0.88188 0.6681 0.0
C907 C 0.74339 0.85253 0.66561 0.0
C908 C 0.70639 0.82041 0.66142 0.0
C909 C 0.81194 0.91481 0.67238 0.0
C910 C 0.77889 0.91644 0.67332 0.0
C911 C 0.74507 0.88526 0.67005 0.0
C912 C 0.77859 0.95064 0.67673 0.0
C913 C 0.84904 0.94785 0.67536 0.0
C914 C 0.78944 0.96771 0.69171 0.0
C915 C 0.78607 -0.00161 0.69511 0.0
C916 C 0.77157 0.01226 0.68359 0.0
C917 C 0.76158 -0.00454 0.66847 0.0
C918 C 0.765 0.96496 0.66511 0.0
H919 H 0.87212 0.94382 0.67122 0.0
H920 H 0.85091 0.97198 0.66919 0.0
H921 H 0.85249 0.9537 0.6884 0.0
H922 H 0.79949 0.95673 0.70092 0.0
H923 H 0.7939 0.01059 0.70688 0.0
H924 H 0.73305 0.73384 0.02077 0.0
H925 H 0.78051 0.73071 0.0047 0.0
H926 H 0.86454 0.82688 0.02817 0.0
H927 H 0.81749 0.82965 0.04458 0.0
H928 H 0.828 0.7782 0.98352 0.0
H929 H 0.90631 0.75937 0.03265 0.0
H930 H 0.86132 0.75484 0.03565 0.0
H931 H 0.9019 0.79908 0.03547 0.0
C932 C 0.76166 0.75421 0.02258 0.0
C933 C 0.77152 0.78187 0.03403 0.0
C934 C 0.78874 0.75236 0.01339 0.0
C935 C 0.82612 0.77815 0.01545 0.0
C936 C 0.83597 0.80609 0.0267 0.0
H937 H 0.0027 0.83713 0.94758 0.0
H938 H 0.95209 0.83213 0.96413 0.0
C939 C 0.80899 0.80777 0.03599 0.0
C940 C 0.8547 0.77674 0.0054 0.0
H941 H 0.93646 0.77648 0.00717 0.0
C942 C 0.85156 0.77749 0.98868 0.0
C943 C 0.88507 0.77517 0.01214 0.0
C944 C 0.8887 0.77167 0.02996 0.0
C945 C 0.87854 0.77784 0.97852 0.0
C946 C 0.91001 0.77844 0.98529 0.0
C947 C 0.91258 0.77654 0.002 0.0
C948 C 0.94078 0.78146 0.97529 0.0
C949 C 0.87283 0.77716 0.96064 0.0
C950 C 0.95209 0.7553 0.97647 0.0
C951 C 0.98144 0.75837 0.96721 0.0
C952 C -4e-05 0.78768 0.95656 0.0
C953 C -0.01123 0.81402 0.95553 0.0
C954 C 0.95966 0.81108 0.9649 0.0
H955 H 0.84314 0.76533 0.95757 0.0
H956 H 0.88749 0.80537 0.95596 0.0
H957 H 0.88382 0.76124 0.95445 0.0
H958 H 0.93804 0.73235 0.9845 0.0
H959 H -0.01062 0.73763 0.9683 0.0
H960 H 0.96455 0.78244 0.36292 0.0
H961 H 0.01419 0.8399 0.35266 0.0
H962 H 0.02255 0.78509 0.31066 0.0
H963 H 0.97325 0.72735 0.32089 0.0
H964 H 0.08887 0.82639 0.32562 0.0
H965 H 0.01833 0.90708 0.31656 0.0
H966 H 0.01125 0.88731 0.33618 0.0
H967 H -0.00651 0.8583 0.31892 0.0
C968 C 0.97659 0.78262 0.35141 0.0
C969 C 0.96499 0.75021 0.34277 0.0
C970 C 0.00478 0.81558 0.34549 0.0
C971 C 0.02169 0.81684 0.33079 0.0
C972 C 0.00967 0.78472 0.32198 0.0
H973 H 0.19789 0.01295 0.28541 0.0
H974 H 0.13862 0.95822 0.29075 0.0
C975 C 0.98152 0.75174 0.32788 0.0
C976 C 0.05419 0.85094 0.32536 0.0
H977 H 0.08454 0.94032 0.31696 0.0
C978 C 0.08781 0.85118 0.32355 0.0
C979 C 0.05267 0.88316 0.32252 0.0
C980 C 0.01692 0.88398 0.32348 0.0
C981 C 0.12025 0.88309 0.31955 0.0
C982 C 0.11912 0.91572 0.31752 0.0
C983 C 0.08531 0.91529 0.31871 0.0
C984 C 0.15324 0.95062 0.31475 0.0
C985 C 0.15559 0.88172 0.31763 0.0
C986 C 0.18044 0.96493 0.32666 0.0
C987 C 0.21418 -0.00398 0.32369 0.0
C988 C 0.22135 0.01353 0.30872 0.0
C989 C 0.19331 6e-05 0.29704 0.0
C990 C 0.15946 0.96883 0.30006 0.0
H991 H 0.15018 0.85355 0.31561 0.0
H992 H 0.17216 0.899 0.30747 0.0
H993 H 0.17231 0.89214 0.32871 0.0
H994 H 0.17587 0.9515 0.33817 0.0
H995 H 0.23493 0.00576 0.33302 0.0
H996 H 0.1779 0.97071 0.70171 0.0
H997 H 0.17402 0.02557 0.69596 0.0
H998 H 0.21454 0.02856 0.64814 0.0
H999 H 0.21883 0.97422 0.65375 0.0
H1000 H 0.2545 0.09337 0.66553 0.0
H1001 H 0.10349 0.04367 0.66712 0.0
H1002 H 0.12228 0.03184 0.68402 0.0
H1003 H 0.12228 0.01352 0.66463 0.0
C1004 C 0.18538 0.98268 0.68988 0.0
C1005 C 0.19889 0.96817 0.67822 0.0
C1006 C 0.18301 0.01395 0.6866 0.0
C1007 C 0.19385 0.03098 0.6716 0.0
C1008 C 0.20605 0.0158 0.65979 0.0
H1009 H 0.17969 0.20516 0.62532 0.0
H1010 H 0.17184 0.14693 0.63458 0.0
C1011 C 0.20848 0.9847 0.66304 0.0
C1012 C 0.19551 0.06621 0.66848 0.0
H1013 H 0.14279 0.10696 0.66382 0.0
C1014 C 0.2301 0.09641 0.66521 0.0
C1015 C 0.16359 0.06992 0.66802 0.0
C1016 C 0.1257 0.03803 0.67101 0.0
C1017 C 0.23367 0.13021 0.66131 0.0
C1018 C 0.2018 0.13404 0.66091 0.0
C1019 C 0.16717 0.10392 0.66427 0.0
C1020 C 0.20392 0.16876 0.65619 0.0
C1021 C 0.27138 0.16128 0.65717 0.0
C1022 C 0.22391 0.20013 0.66548 0.0
C1023 C 0.22862 0.23353 0.66021 0.0
C1024 C 0.21328 0.23608 0.64556 0.0
C1025 C 0.19209 0.20425 0.6366 0.0
C1026 C 0.18742 0.1709 0.64189 0.0
H1027 H 0.29151 0.15182 0.65472 0.0
H1028 H 0.26996 0.17626 0.64651 0.0
H1029 H 0.28195 0.18054 0.66738 0.0
H1030 H 0.23641 0.19889 0.67668 0.0
H1031 H 0.24483 0.2574 0.66748 0.0
loop_
_geom_bond_atom_site_label_1
_geom_bond_atom_site_label_2
_geom_bond_distance
_geom_bond_site_symmetry_2
_ccdc_geom_bond_type
C0 O1 1.306 . S
C0 O3 1.160 . S
O1 C0 1.306 . S
O1 Cd2 2.228 . S
Cd2 O1 2.228 . S
Cd2 O6 2.273 . S
Cd2 O10 2.277 . S
O3 C0 1.160 . S
O3 Cd4 2.203 . S
Cd4 O3 2.203 . S
Cd4 O6 2.411 . S
Cd4 O7 2.333 . S
Cd4 O8 2.352 . S
Cd4 O12 2.277 . S
Cd4 O13 2.356 . S
C5 O10 1.209 . S
C5 O12 1.226 . S
O6 Cd2 2.273 . S
O6 Cd4 2.411 . S
O6 C9 1.320 . S
O7 Cd4 2.333 . S
O7 C9 1.214 . S
O8 Cd4 2.352 . S
O8 C11 1.258 . S
C9 O6 1.320 . S
C9 O7 1.214 . S
O10 Cd2 2.277 . S
O10 C5 1.209 . S
C11 O8 1.258 . S
C11 O13 1.282 . S
O12 Cd4 2.277 . S
O12 C5 1.226 . S
O13 Cd4 2.356 . S
O13 C11 1.282 . S
C14 O15 1.306 . S
C14 O17 1.160 . S
O15 C14 1.306 . S
O15 Cd16 2.228 . S
Cd16 O15 2.228 . S
Cd16 O20 2.273 . S
Cd16 O24 2.277 . S
O17 C14 1.160 . S
O17 Cd18 2.203 . S
Cd18 O17 2.203 . S
Cd18 O20 2.411 . S
Cd18 O21 2.333 . S
Cd18 O22 2.352 . S
Cd18 O26 2.277 . S
Cd18 O27 2.356 . S
C19 O24 1.209 . S
C19 O26 1.226 . S
O20 Cd16 2.273 . S
O20 Cd18 2.411 . S
O20 C23 1.320 . S
O21 Cd18 2.333 . S
O21 C23 1.214 . S
O22 Cd18 2.352 . S
O22 C25 1.258 . S
C23 O20 1.320 . S
C23 O21 1.214 . S
O24 Cd16 2.277 . S
O24 C19 1.209 . S
C25 O22 1.258 . S
C25 O27 1.282 . S
O26 Cd18 2.277 . S
O26 C19 1.226 . S
O27 Cd18 2.356 . S
O27 C25 1.282 . S
C28 O29 1.306 . S
C28 O31 1.160 . S
O29 C28 1.306 . S
O29 Cd30 2.228 . S
Cd30 O29 2.228 . S
Cd30 O34 2.273 . S
Cd30 O38 2.277 . S
O31 C28 1.160 . S
O31 Cd32 2.203 . S
Cd32 O31 2.203 . S
Cd32 O34 2.411 . S
Cd32 O35 2.333 . S
Cd32 O36 2.352 . S
Cd32 O40 2.277 . S
Cd32 O41 2.356 . S
C33 O38 1.209 . S
C33 O40 1.226 . S
O34 Cd30 2.273 . S
O34 Cd32 2.411 . S
O34 C37 1.320 . S
O35 Cd32 2.333 . S
O35 C37 1.214 . S
O36 Cd32 2.352 . S
O36 C39 1.258 . S
C37 O34 1.320 . S
C37 O35 1.214 . S
O38 Cd30 2.277 . S
O38 C33 1.209 . S
C39 O36 1.258 . S
C39 O41 1.282 . S
O40 Cd32 2.277 . S
O40 C33 1.226 . S
O41 Cd32 2.356 . S
O41 C39 1.282 . S
C42 O43 1.306 . S
C42 O45 1.160 . S
O43 C42 1.306 . S
O43 Cd44 2.228 . S
Cd44 O43 2.228 . S
Cd44 O48 2.273 . S
Cd44 O52 2.277 . S
O45 C42 1.160 . S
O45 Cd46 2.203 . S
Cd46 O45 2.203 . S
Cd46 O48 2.411 . S
Cd46 O49 2.333 . S
Cd46 O50 2.352 . S
Cd46 O54 2.277 . S
Cd46 O55 2.356 . S
C47 O52 1.209 . S
C47 O54 1.226 . S
O48 Cd44 2.273 . S
O48 Cd46 2.411 . S
O48 C51 1.320 . S
O49 Cd46 2.333 . S
O49 C51 1.214 . S
O50 Cd46 2.352 . S
O50 C53 1.258 . S
C51 O48 1.320 . S
C51 O49 1.214 . S
O52 Cd44 2.277 . S
O52 C47 1.209 . S
C53 O50 1.258 . S
C53 O55 1.282 . S
O54 Cd46 2.277 . S
O54 C47 1.226 . S
O55 Cd46 2.356 . S
O55 C53 1.282 . S
C56 O57 1.306 . S
C56 O59 1.160 . S
O57 C56 1.306 . S
O57 Cd58 2.228 . S
Cd58 O57 2.228 . S
Cd58 O62 2.273 . S
Cd58 O66 2.277 . S
O59 C56 1.160 . S
O59 Cd60 2.203 . S
Cd60 O59 2.203 . S
Cd60 O62 2.411 . S
Cd60 O63 2.333 . S
Cd60 O64 2.352 . S
Cd60 O68 2.277 . S
Cd60 O69 2.356 . S
C61 O66 1.209 . S
C61 O68 1.226 . S
O62 Cd58 2.273 . S
O62 Cd60 2.411 . S
O62 C65 1.320 . S
O63 Cd60 2.333 . S
O63 C65 1.214 . S
O64 Cd60 2.352 . S
O64 C67 1.258 . S
C65 O62 1.320 . S
C65 O63 1.214 . S
O66 Cd58 2.277 . S
O66 C61 1.209 . S
C67 O64 1.258 . S
C67 O69 1.282 . S
O68 Cd60 2.277 . S
O68 C61 1.226 . S
O69 Cd60 2.356 . S
O69 C67 1.282 . S
C70 O71 1.306 . S
C70 O73 1.160 . S
O71 C70 1.306 . S
O71 Cd72 2.228 . S
Cd72 O71 2.228 . S
Cd72 O76 2.273 . S
Cd72 O80 2.277 . S
O73 C70 1.160 . S
O73 Cd74 2.203 . S
Cd74 O73 2.203 . S
Cd74 O76 2.411 . S
Cd74 O77 2.333 . S
Cd74 O78 2.352 . S
Cd74 O82 2.277 . S
Cd74 O83 2.356 . S
C75 O80 1.209 . S
C75 O82 1.226 . S
O76 Cd72 2.273 . S
O76 Cd74 2.411 . S
O76 C79 1.320 . S
O77 Cd74 2.333 . S
O77 C79 1.214 . S
O78 Cd74 2.352 . S
O78 C81 1.258 . S
C79 O76 1.320 . S
C79 O77 1.214 . S
O80 Cd72 2.277 . S
O80 C75 1.209 . S
C81 O78 1.258 . S
C81 O83 1.282 . S
O82 Cd74 2.277 . S
O82 C75 1.226 . S
O83 Cd74 2.356 . S
O83 C81 1.282 . S
C84 O85 1.306 . S
C84 O87 1.160 . S
O85 C84 1.306 . S
O85 Cd86 2.228 . S
Cd86 O85 2.228 . S
Cd86 O90 2.273 . S
Cd86 O94 2.277 . S
O87 C84 1.160 . S
O87 Cd88 2.203 . S
Cd88 O87 2.203 . S
Cd88 O90 2.411 . S
Cd88 O91 2.333 . S
Cd88 O92 2.352 . S
Cd88 O96 2.277 . S
Cd88 O97 2.356 . S
C89 O94 1.209 . S
C89 O96 1.226 . S
O90 Cd86 2.273 . S
O90 Cd88 2.411 . S
O90 C93 1.320 . S
O91 Cd88 2.333 . S
O91 C93 1.214 . S
O92 Cd88 2.352 . S
O92 C95 1.258 . S
C93 O90 1.320 . S
C93 O91 1.214 . S
O94 Cd86 2.277 . S
O94 C89 1.209 . S
C95 O92 1.258 . S
C95 O97 1.282 . S
O96 Cd88 2.277 . S
O96 C89 1.226 . S
O97 Cd88 2.356 . S
O97 C95 1.282 . S
C98 O99 1.306 . S
C98 O101 1.160 . S
O99 C98 1.306 . S
O99 Cd100 2.228 . S
Cd100 O99 2.228 . S
Cd100 O104 2.273 . S
Cd100 O108 2.277 . S
O101 C98 1.160 . S
O101 Cd102 2.203 . S
Cd102 O101 2.203 . S
Cd102 O104 2.411 . S
Cd102 O105 2.333 . S
Cd102 O106 2.352 . S
Cd102 O110 2.277 . S
Cd102 O111 2.356 . S
C103 O108 1.209 . S
C103 O110 1.226 . S
O104 Cd100 2.273 . S
O104 Cd102 2.411 . S
O104 C107 1.320 . S
O105 Cd102 2.333 . S
O105 C107 1.214 . S
O106 Cd102 2.352 . S
O106 C109 1.258 . S
C107 O104 1.320 . S
C107 O105 1.214 . S
O108 Cd100 2.277 . S
O108 C103 1.209 . S
C109 O106 1.258 . S
C109 O111 1.282 . S
O110 Cd102 2.277 . S
O110 C103 1.226 . S
O111 Cd102 2.356 . S
O111 C109 1.282 . S
C112 O113 1.306 . S
C112 O115 1.160 . S
O113 C112 1.306 . S
O113 Cd114 2.228 . S
Cd114 O113 2.228 . S
Cd114 O118 2.273 . S
Cd114 O122 2.277 . S
O115 C112 1.160 . S
O115 Cd116 2.203 . S
Cd116 O115 2.203 . S
Cd116 O118 2.411 . S
Cd116 O119 2.333 . S
Cd116 O120 2.352 . S
Cd116 O124 2.277 . S
Cd116 O125 2.356 . S
C117 O122 1.209 . S
C117 O124 1.226 . S
O118 Cd114 2.273 . S
O118 Cd116 2.411 . S
O118 C121 1.320 . S
O119 Cd116 2.333 . S
O119 C121 1.214 . S
O120 Cd116 2.352 . S
O120 C123 1.258 . S
C121 O118 1.320 . S
C121 O119 1.214 . S
O122 Cd114 2.277 . S
O122 C117 1.209 . S
C123 O120 1.258 . S
C123 O125 1.282 . S
O124 Cd116 2.277 . S
O124 C117 1.226 . S
O125 Cd116 2.356 . S
O125 C123 1.282 . S
C126 O127 1.306 . S
C126 O129 1.160 . S
O127 C126 1.306 . S
O127 Cd128 2.228 . S
Cd128 O127 2.228 . S
Cd128 O132 2.273 . S
Cd128 O136 2.277 . S
O129 C126 1.160 . S
O129 Cd130 2.203 . S
Cd130 O129 2.203 . S
Cd130 O132 2.411 . S
Cd130 O133 2.333 . S
Cd130 O134 2.352 . S
Cd130 O138 2.277 . S
Cd130 O139 2.356 . S
C131 O136 1.209 . S
C131 O138 1.226 . S
O132 Cd128 2.273 . S
O132 Cd130 2.411 . S
O132 C135 1.320 . S
O133 Cd130 2.333 . S
O133 C135 1.214 . S
O134 Cd130 2.352 . S
O134 C137 1.258 . S
C135 O132 1.320 . S
C135 O133 1.214 . S
O136 Cd128 2.277 . S
O136 C131 1.209 . S
C137 O134 1.258 . S
C137 O139 1.282 . S
O138 Cd130 2.277 . S
O138 C131 1.226 . S
O139 Cd130 2.356 . S
O139 C137 1.282 . S
C140 O141 1.306 . S
C140 O143 1.160 . S
O141 C140 1.306 . S
O141 Cd142 2.228 . S
Cd142 O141 2.228 . S
Cd142 O146 2.273 . S
Cd142 O150 2.277 . S
O143 C140 1.160 . S
O143 Cd144 2.203 . S
Cd144 O143 2.203 . S
Cd144 O146 2.411 . S
Cd144 O147 2.333 . S
Cd144 O148 2.352 . S
Cd144 O152 2.277 . S
Cd144 O153 2.356 . S
C145 O150 1.209 . S
C145 O152 1.226 . S
O146 Cd142 2.273 . S
O146 Cd144 2.411 . S
O146 C149 1.320 . S
O147 Cd144 2.333 . S
O147 C149 1.214 . S
O148 Cd144 2.352 . S
O148 C151 1.258 . S
C149 O146 1.320 . S
C149 O147 1.214 . S
O150 Cd142 2.277 . S
O150 C145 1.209 . S
C151 O148 1.258 . S
C151 O153 1.282 . S
O152 Cd144 2.277 . S
O152 C145 1.226 . S
O153 Cd144 2.356 . S
O153 C151 1.282 . S
C154 O155 1.306 . S
C154 O157 1.160 . S
O155 C154 1.306 . S
O155 Cd156 2.228 . S
Cd156 O155 2.228 . S
Cd156 O160 2.273 . S
Cd156 O164 2.277 . S
O157 C154 1.160 . S
O157 Cd158 2.203 . S
Cd158 O157 2.203 . S
Cd158 O160 2.411 . S
Cd158 O161 2.333 . S
Cd158 O162 2.352 . S
Cd158 O166 2.277 . S
Cd158 O167 2.356 . S
C159 O164 1.209 . S
C159 O166 1.226 . S
O160 Cd156 2.273 . S
O160 Cd158 2.411 . S
O160 C163 1.320 . S
O161 Cd158 2.333 . S
O161 C163 1.214 . S
O162 Cd158 2.352 . S
O162 C165 1.258 . S
C163 O160 1.320 . S
C163 O161 1.214 . S
O164 Cd156 2.277 . S
O164 C159 1.209 . S
C165 O162 1.258 . S
C165 O167 1.282 . S
O166 Cd158 2.277 . S
O166 C159 1.226 . S
O167 Cd158 2.356 . S
O167 C165 1.282 . S
H168 C176 0.929 . S
H169 C178 0.930 . S
H170 C180 0.930 . S
H171 C183 0.929 . S
H172 C186 0.930 . S
H173 C188 0.960 . S
H174 C188 0.960 . S
H175 C188 0.960 . S
C176 H168 0.929 . S
C176 C177 1.377 . S
C176 C178 1.384 . S
C177 C176 1.377 . S
C177 C183 1.390 . S
C178 H169 0.930 . S
C178 C176 1.384 . S
C178 C179 1.372 . S
C179 C178 1.372 . S
C179 C180 1.400 . S
C179 C184 1.490 . S
C180 H170 0.930 . S
C180 C179 1.400 . S
C180 C183 1.386 . S
H181 C197 0.930 . S
H182 C198 0.931 . S
C183 H171 0.929 . S
C183 C177 1.390 . S
C183 C180 1.386 . S
C184 C179 1.490 . S
C184 C186 1.395 . S
C184 C187 1.403 . S
H185 C191 0.930 . S
C186 H172 0.930 . S
C186 C184 1.395 . S
C186 C189 1.403 . S
C187 C184 1.403 . S
C187 C188 1.524 . S
C187 C191 1.400 . S
C188 H173 0.960 . S
C188 H174 0.960 . S
C188 H175 0.960 . S
C188 C187 1.524 . S
C189 C186 1.403 . S
C189 C190 1.392 . S
C189 C193 1.495 . S
C190 C189 1.392 . S
C190 C191 1.385 . S
C190 C192 1.478 . S
C191 H185 0.930 . S
C191 C187 1.400 . S
C191 C190 1.385 . S
C192 C190 1.478 . S
C192 C194 1.381 . S
C192 C198 1.383 . S
C193 C189 1.495 . S
C193 H199 0.959 . S
C193 H200 0.961 . S
C193 H201 0.960 . S
C194 C192 1.381 . S
C194 C195 1.394 . S
C194 H202 0.930 . S
C195 C194 1.394 . S
C195 C196 1.383 . S
C195 H203 0.929 . S
C196 C195 1.383 . S
C196 C197 1.377 . S
C197 H181 0.930 . S
C197 C196 1.377 . S
C197 C198 1.379 . S
C198 H182 0.931 . S
C198 C192 1.383 . S
C198 C197 1.379 . S
H199 C193 0.959 . S
H200 C193 0.961 . S
H201 C193 0.960 . S
H202 C194 0.930 . S
H203 C195 0.929 . S
H204 C212 0.929 . S
H205 C214 0.930 . S
H206 C216 0.930 . S
H207 C219 0.929 . S
H208 C222 0.930 . S
H209 C224 0.960 . S
H210 C224 0.960 . S
H211 C224 0.960 . S
C212 H204 0.929 . S
C212 C213 1.377 . S
C212 C214 1.384 . S
C213 C212 1.377 . S
C213 C219 1.390 . S
C214 H205 0.930 . S
C214 C212 1.384 . S
C214 C215 1.372 . S
C215 C214 1.372 . S
C215 C216 1.400 . S
C215 C220 1.490 . S
C216 H206 0.930 . S
C216 C215 1.400 . S
C216 C219 1.386 . S
H217 C233 0.930 . S
H218 C234 0.931 . S
C219 H207 0.929 . S
C219 C213 1.390 . S
C219 C216 1.386 . S
C220 C215 1.490 . S
C220 C222 1.395 1_455 S
C220 C223 1.403 . S
H221 C227 0.930 . S
C222 H208 0.930 . S
C222 C220 1.395 1_655 S
C222 C225 1.403 . S
C223 C220 1.403 . S
C223 C224 1.524 . S
C223 C227 1.400 . S
C224 H209 0.960 . S
C224 H210 0.960 . S
C224 H211 0.960 . S
C224 C223 1.524 . S
C225 C222 1.403 . S
C225 C226 1.392 . S
C225 C229 1.495 . S
C226 C225 1.392 . S
C226 C227 1.385 1_655 S
C226 C228 1.478 . S
C227 H221 0.930 . S
C227 C223 1.400 . S
C227 C226 1.385 1_455 S
C228 C226 1.478 . S
C228 C230 1.381 . S
C228 C234 1.383 . S
C229 C225 1.495 . S
C229 H235 0.959 . S
C229 H236 0.961 . S
C229 H237 0.960 . S
C230 C228 1.381 . S
C230 C231 1.394 . S
C230 H238 0.930 . S
C231 C230 1.394 . S
C231 C232 1.383 . S
C231 H239 0.929 . S
C232 C231 1.383 . S
C232 C233 1.377 . S
C233 H217 0.930 . S
C233 C232 1.377 . S
C233 C234 1.379 . S
C234 H218 0.931 . S
C234 C228 1.383 . S
C234 C233 1.379 . S
H235 C229 0.959 . S
H236 C229 0.961 . S
H237 C229 0.960 . S
H238 C230 0.930 . S
H239 C231 0.929 . S
H240 C248 0.929 . S
H241 C250 0.930 . S
H242 C252 0.930 . S
H243 C255 0.929 . S
H244 C258 0.930 . S
H245 C260 0.960 . S
H246 C260 0.960 . S
H247 C260 0.960 . S
C248 H240 0.929 . S
C248 C249 1.377 . S
C248 C250 1.384 . S
C249 C248 1.377 . S
C249 C255 1.390 . S
C250 H241 0.930 . S
C250 C248 1.384 . S
C250 C251 1.372 . S
C251 C250 1.372 . S
C251 C252 1.400 . S
C251 C256 1.490 . S
C252 H242 0.930 . S
C252 C251 1.400 . S
C252 C255 1.386 . S
H253 C269 0.930 . S
H254 C270 0.931 . S
C255 H243 0.929 . S
C255 C249 1.390 . S
C255 C252 1.386 . S
C256 C251 1.490 . S
C256 C258 1.395 1_565 S
C256 C259 1.403 . S
H257 C263 0.930 . S
C258 H244 0.930 . S
C258 C256 1.395 1_545 S
C258 C261 1.403 . S
C259 C256 1.403 . S
C259 C260 1.524 . S
C259 C263 1.400 . S
C260 H245 0.960 . S
C260 H246 0.960 . S
C260 H247 0.960 . S
C260 C259 1.524 . S
C261 C258 1.403 . S
C261 C262 1.392 . S
C261 C265 1.495 . S
C262 C261 1.392 . S
C262 C263 1.385 1_545 S
C262 C264 1.478 . S
C263 H257 0.930 . S
C263 C259 1.400 . S
C263 C262 1.385 1_565 S
C264 C262 1.478 . S
C264 C266 1.381 . S
C264 C270 1.383 . S
C265 C261 1.495 . S
C265 H271 0.959 . S
C265 H272 0.961 . S
C265 H273 0.960 . S
C266 C264 1.381 . S
C266 C267 1.394 . S
C266 H274 0.930 . S
C267 C266 1.394 . S
C267 C268 1.383 . S
C267 H275 0.929 . S
C268 C267 1.383 . S
C268 C269 1.377 . S
C269 H253 0.930 . S
C269 C268 1.377 . S
C269 C270 1.379 . S
C270 H254 0.931 . S
C270 C264 1.383 . S
C270 C269 1.379 . S
H271 C265 0.959 . S
H272 C265 0.961 . S
H273 C265 0.960 . S
H274 C266 0.930 . S
H275 C267 0.929 . S
H276 C284 0.929 . S
H277 C286 0.930 . S
H278 C288 0.930 . S
H279 C291 0.929 . S
H280 C294 0.930 . S
H281 C296 0.960 . S
H282 C296 0.960 . S
H283 C296 0.960 . S
C284 H276 0.929 . S
C284 C285 1.377 . S
C284 C286 1.384 . S
C285 C284 1.377 . S
C285 C291 1.390 . S
C286 H277 0.930 . S
C286 C284 1.384 . S
C286 C287 1.372 . S
C287 C286 1.372 . S
C287 C288 1.400 . S
C287 C292 1.490 . S
C288 H278 0.930 . S
C288 C287 1.400 . S
C288 C291 1.386 . S
H289 C305 0.930 . S
H290 C306 0.931 . S
C291 H279 0.929 . S
C291 C285 1.390 . S
C291 C288 1.386 . S
C292 C287 1.490 . S
C292 C294 1.395 . S
C292 C295 1.403 . S
H293 C299 0.930 . S
C294 H280 0.930 . S
C294 C292 1.395 . S
C294 C297 1.403 . S
C295 C292 1.403 . S
C295 C296 1.524 . S
C295 C299 1.400 . S
C296 H281 0.960 . S
C296 H282 0.960 . S
C296 H283 0.960 . S
C296 C295 1.524 . S
C297 C294 1.403 . S
C297 C298 1.392 . S
C297 C301 1.495 . S
C298 C297 1.392 . S
C298 C299 1.385 . S
C298 C300 1.478 . S
C299 H293 0.930 . S
C299 C295 1.400 . S
C299 C298 1.385 . S
C300 C298 1.478 . S
C300 C302 1.381 . S
C300 C306 1.383 . S
C301 C297 1.495 . S
C301 H307 0.959 . S
C301 H308 0.961 . S
C301 H309 0.960 . S
C302 C300 1.381 . S
C302 C303 1.394 . S
C302 H310 0.930 . S
C303 C302 1.394 . S
C303 C304 1.383 . S
C303 H311 0.929 . S
C304 C303 1.383 . S
C304 C305 1.377 . S
C305 H289 0.930 . S
C305 C304 1.377 . S
C305 C306 1.379 . S
C306 H290 0.931 . S
C306 C300 1.383 . S
C306 C305 1.379 . S
H307 C301 0.959 . S
H308 C301 0.961 . S
H309 C301 0.960 . S
H310 C302 0.930 . S
H311 C303 0.929 . S
H312 C320 0.929 . S
H313 C322 0.930 . S
H314 C324 0.930 . S
H315 C327 0.929 . S
H316 C330 0.930 . S
H317 C332 0.960 . S
H318 C332 0.960 . S
H319 C332 0.960 . S
C320 H312 0.929 . S
C320 C321 1.377 . S
C320 C322 1.384 . S
C321 C320 1.377 . S
C321 C327 1.390 . S
C322 H313 0.930 . S
C322 C320 1.384 . S
C322 C323 1.372 . S
C323 C322 1.372 . S
C323 C324 1.400 . S
C323 C328 1.490 . S
C324 H314 0.930 . S
C324 C323 1.400 . S
C324 C327 1.386 . S
H325 C341 0.930 . S
H326 C342 0.931 . S
C327 H315 0.929 . S
C327 C321 1.390 . S
C327 C324 1.386 . S
C328 C323 1.490 . S
C328 C330 1.395 1_655 S
C328 C331 1.403 . S
H329 C335 0.930 . S
C330 H316 0.930 . S
C330 C328 1.395 1_455 S
C330 C333 1.403 . S
C331 C328 1.403 . S
C331 C332 1.524 . S
C331 C335 1.400 . S
C332 H317 0.960 . S
C332 H318 0.960 . S
C332 H319 0.960 . S
C332 C331 1.524 . S
C333 C330 1.403 . S
C333 C334 1.392 . S
C333 C337 1.495 . S
C334 C333 1.392 . S
C334 C335 1.385 1_455 S
C334 C336 1.478 . S
C335 H329 0.930 . S
C335 C331 1.400 . S
C335 C334 1.385 1_655 S
C336 C334 1.478 . S
C336 C338 1.381 . S
C336 C342 1.383 . S
C337 C333 1.495 . S
C337 H343 0.959 . S
C337 H344 0.961 . S
C337 H345 0.960 . S
C338 C336 1.381 . S
C338 C339 1.394 . S
C338 H346 0.930 . S
C339 C338 1.394 . S
C339 C340 1.383 . S
C339 H347 0.929 . S
C340 C339 1.383 . S
C340 C341 1.377 . S
C341 H325 0.930 . S
C341 C340 1.377 . S
C341 C342 1.379 . S
C342 H326 0.931 . S
C342 C336 1.383 . S
C342 C341 1.379 . S
H343 C337 0.959 . S
H344 C337 0.961 . S
H345 C337 0.960 . S
H346 C338 0.930 . S
H347 C339 0.929 . S
H348 C356 0.929 . S
H349 C358 0.930 . S
H350 C360 0.930 . S
H351 C363 0.929 . S
H352 C366 0.930 . S
H353 C368 0.960 . S
H354 C368 0.960 . S
H355 C368 0.960 . S
C356 H348 0.929 . S
C356 C357 1.377 . S
C356 C358 1.384 . S
C357 C356 1.377 . S
C357 C363 1.390 . S
C358 H349 0.930 . S
C358 C356 1.384 . S
C358 C359 1.372 . S
C359 C358 1.372 . S
C359 C360 1.400 . S
C359 C364 1.490 . S
C360 H350 0.930 . S
C360 C359 1.400 . S
C360 C363 1.386 . S
H361 C377 0.930 . S
H362 C378 0.931 . S
C363 H351 0.929 . S
C363 C357 1.390 . S
C363 C360 1.386 . S
C364 C359 1.490 . S
C364 C366 1.395 . S
C364 C367 1.403 1_545 S
H365 C371 0.930 . S
C366 H352 0.930 . S
C366 C364 1.395 . S
C366 C369 1.403 . S
C367 C364 1.403 1_565 S
C367 C368 1.524 . S
C367 C371 1.400 . S
C368 H353 0.960 . S
C368 H354 0.960 . S
C368 H355 0.960 . S
C368 C367 1.524 . S
C369 C366 1.403 . S
C369 C370 1.392 1_545 S
C369 C373 1.495 . S
C370 C369 1.392 1_565 S
C370 C371 1.385 . S
C370 C372 1.478 . S
C371 H365 0.930 . S
C371 C367 1.400 . S
C371 C370 1.385 . S
C372 C370 1.478 . S
C372 C374 1.381 . S
C372 C378 1.383 . S
C373 C369 1.495 . S
C373 H379 0.959 . S
C373 H380 0.961 . S
C373 H381 0.960 . S
C374 C372 1.381 . S
C374 C375 1.394 . S
C374 H382 0.930 . S
C375 C374 1.394 . S
C375 C376 1.383 . S
C375 H383 0.929 . S
C376 C375 1.383 . S
C376 C377 1.377 . S
C377 H361 0.930 . S
C377 C376 1.377 . S
C377 C378 1.379 . S
C378 H362 0.931 . S
C378 C372 1.383 . S
C378 C377 1.379 . S
H379 C373 0.959 . S
H380 C373 0.961 . S
H381 C373 0.960 . S
H382 C374 0.930 . S
H383 C375 0.929 . S
H384 C392 0.929 . S
H385 C394 0.930 . S
H386 C396 0.930 . S
H387 C399 0.929 . S
H388 C402 0.930 . S
H389 C404 0.960 . S
H390 C404 0.960 . S
H391 C404 0.960 . S
C392 H384 0.929 . S
C392 C393 1.377 . S
C392 C394 1.384 . S
C393 C392 1.377 . S
C393 C399 1.390 . S
C394 H385 0.930 . S
C394 C392 1.384 . S
C394 C395 1.372 . S
C395 C394 1.372 . S
C395 C396 1.400 . S
C395 C400 1.490 . S
C396 H386 0.930 . S
C396 C395 1.400 . S
C396 C399 1.386 . S
H397 C413 0.930 . S
H398 C414 0.931 . S
C399 H387 0.929 . S
C399 C393 1.390 . S
C399 C396 1.386 . S
C400 C395 1.490 . S
C400 C402 1.395 . S
C400 C403 1.403 . S
H401 C407 0.930 . S
C402 H388 0.930 . S
C402 C400 1.395 . S
C402 C405 1.403 . S
C403 C400 1.403 . S
C403 C404 1.524 . S
C403 C407 1.400 . S
C404 H389 0.960 . S
C404 H390 0.960 . S
C404 H391 0.960 . S
C404 C403 1.524 . S
C405 C402 1.403 . S
C405 C406 1.392 . S
C405 C409 1.495 . S
C406 C405 1.392 . S
C406 C407 1.385 . S
C406 C408 1.478 . S
C407 H401 0.930 . S
C407 C403 1.400 . S
C407 C406 1.385 . S
C408 C406 1.478 . S
C408 C410 1.381 . S
C408 C414 1.383 . S
C409 C405 1.495 . S
C409 H415 0.959 . S
C409 H416 0.961 . S
C409 H417 0.960 . S
C410 C408 1.381 . S
C410 C411 1.394 . S
C410 H418 0.930 . S
C411 C410 1.394 . S
C411 C412 1.383 . S
C411 H419 0.929 . S
C412 C411 1.383 . S
C412 C413 1.377 . S
C413 H397 0.930 . S
C413 C412 1.377 . S
C413 C414 1.379 . S
C414 H398 0.931 . S
C414 C408 1.383 . S
C414 C413 1.379 . S
H415 C409 0.959 . S
H416 C409 0.961 . S
H417 C409 0.960 . S
H418 C410 0.930 . S
H419 C411 0.929 . S
H420 C428 0.929 . S
H421 C430 0.930 . S
H422 C432 0.930 . S
H423 C435 0.929 . S
H424 C438 0.930 . S
H425 C440 0.960 . S
H426 C440 0.960 . S
H427 C440 0.960 . S
C428 H420 0.929 . S
C428 C429 1.377 . S
C428 C430 1.384 . S
C429 C428 1.377 . S
C429 C435 1.390 . S
C430 H421 0.930 . S
C430 C428 1.384 . S
C430 C431 1.372 . S
C431 C430 1.372 . S
C431 C432 1.400 . S
C431 C436 1.490 . S
C432 H422 0.930 . S
C432 C431 1.400 . S
C432 C435 1.386 . S
H433 C449 0.930 . S
H434 C450 0.931 . S
C435 H423 0.929 . S
C435 C429 1.390 . S
C435 C432 1.386 . S
C436 C431 1.490 . S
C436 C438 1.395 . S
C436 C439 1.403 . S
H437 C443 0.930 . S
C438 H424 0.930 . S
C438 C436 1.395 . S
C438 C441 1.403 . S
C439 C436 1.403 . S
C439 C440 1.524 . S
C439 C443 1.400 . S
C440 H425 0.960 . S
C440 H426 0.960 . S
C440 H427 0.960 . S
C440 C439 1.524 . S
C441 C438 1.403 . S
C441 C442 1.392 . S
C441 C445 1.495 . S
C442 C441 1.392 . S
C442 C443 1.385 . S
C442 C444 1.478 . S
C443 H437 0.930 . S
C443 C439 1.400 . S
C443 C442 1.385 . S
C444 C442 1.478 . S
C444 C446 1.381 . S
C444 C450 1.383 . S
C445 C441 1.495 . S
C445 H451 0.959 . S
C445 H452 0.961 . S
C445 H453 0.960 . S
C446 C444 1.381 . S
C446 C447 1.394 . S
C446 H454 0.930 . S
C447 C446 1.394 . S
C447 C448 1.383 . S
C447 H455 0.929 . S
C448 C447 1.383 . S
C448 C449 1.377 . S
C449 H433 0.930 . S
C449 C448 1.377 . S
C449 C450 1.379 . S
C450 H434 0.931 . S
C450 C444 1.383 . S
C450 C449 1.379 . S
H451 C445 0.959 . S
H452 C445 0.961 . S
H453 C445 0.960 . S
H454 C446 0.930 . S
H455 C447 0.929 . S
H456 C464 0.929 . S
H457 C466 0.930 . S
H458 C468 0.930 . S
H459 C471 0.929 . S
H460 C474 0.930 . S
H461 C476 0.960 . S
H462 C476 0.960 . S
H463 C476 0.960 . S
C464 H456 0.929 . S
C464 C465 1.377 . S
C464 C466 1.384 . S
C465 C464 1.377 . S
C465 C471 1.390 . S
C466 H457 0.930 . S
C466 C464 1.384 . S
C466 C467 1.372 . S
C467 C466 1.372 . S
C467 C468 1.400 . S
C467 C472 1.490 . S
C468 H458 0.930 . S
C468 C467 1.400 . S
C468 C471 1.386 . S
H469 C485 0.930 . S
H470 C486 0.931 . S
C471 H459 0.929 . S
C471 C465 1.390 . S
C471 C468 1.386 . S
C472 C467 1.490 . S
C472 C474 1.395 . S
C472 C475 1.403 . S
H473 C479 0.930 . S
C474 H460 0.930 . S
C474 C472 1.395 . S
C474 C477 1.403 . S
C475 C472 1.403 . S
C475 C476 1.524 . S
C475 C479 1.400 . S
C476 H461 0.960 . S
C476 H462 0.960 . S
C476 H463 0.960 . S
C476 C475 1.524 . S
C477 C474 1.403 . S
C477 C478 1.392 . S
C477 C481 1.495 . S
C478 C477 1.392 . S
C478 C479 1.385 . S
C478 C480 1.478 . S
C479 H473 0.930 . S
C479 C475 1.400 . S
C479 C478 1.385 . S
C480 C478 1.478 . S
C480 C482 1.381 . S
C480 C486 1.383 . S
C481 C477 1.495 . S
C481 H487 0.959 . S
C481 H488 0.961 . S
C481 H489 0.960 . S
C482 C480 1.381 . S
C482 C483 1.394 . S
C482 H490 0.930 . S
C483 C482 1.394 . S
C483 C484 1.383 . S
C483 H491 0.929 . S
C484 C483 1.383 . S
C484 C485 1.377 . S
C485 H469 0.930 . S
C485 C484 1.377 . S
C485 C486 1.379 . S
C486 H470 0.931 . S
C486 C480 1.383 . S
C486 C485 1.379 . S
H487 C481 0.959 . S
H488 C481 0.961 . S
H489 C481 0.960 . S
H490 C482 0.930 . S
H491 C483 0.929 . S
H492 C500 0.929 . S
H493 C502 0.930 . S
H494 C504 0.930 . S
H495 C507 0.929 . S
H496 C510 0.930 . S
H497 C512 0.960 . S
H498 C512 0.960 . S
H499 C512 0.960 . S
C500 H492 0.929 . S
C500 C501 1.377 . S
C500 C502 1.384 . S
C501 C500 1.377 . S
C501 C507 1.390 . S
C502 H493 0.930 . S
C502 C500 1.384 . S
C502 C503 1.372 . S
C503 C502 1.372 . S
C503 C504 1.400 . S
C503 C508 1.490 . S
C504 H494 0.930 . S
C504 C503 1.400 . S
C504 C507 1.386 . S
H505 C521 0.930 . S
H506 C522 0.931 . S
C507 H495 0.929 . S
C507 C501 1.390 . S
C507 C504 1.386 . S
C508 C503 1.490 . S
C508 C510 1.395 . S
C508 C511 1.403 . S
H509 C515 0.930 . S
C510 H496 0.930 . S
C510 C508 1.395 . S
C510 C513 1.403 . S
C511 C508 1.403 . S
C511 C512 1.524 . S
C511 C515 1.400 . S
C512 H497 0.960 . S
C512 H498 0.960 . S
C512 H499 0.960 . S
C512 C511 1.524 . S
C513 C510 1.403 . S
C513 C514 1.392 . S
C513 C517 1.495 . S
C514 C513 1.392 . S
C514 C515 1.385 . S
C514 C516 1.478 . S
C515 H509 0.930 . S
C515 C511 1.400 . S
C515 C514 1.385 . S
C516 C514 1.478 . S
C516 C518 1.381 . S
C516 C522 1.383 . S
C517 C513 1.495 . S
C517 H523 0.959 . S
C517 H524 0.961 . S
C517 H525 0.960 . S
C518 C516 1.381 . S
C518 C519 1.394 . S
C518 H526 0.930 . S
C519 C518 1.394 . S
C519 C520 1.383 . S
C519 H527 0.929 . S
C520 C519 1.383 . S
C520 C521 1.377 . S
C521 H505 0.930 . S
C521 C520 1.377 . S
C521 C522 1.379 . S
C522 H506 0.931 . S
C522 C516 1.383 . S
C522 C521 1.379 . S
H523 C517 0.959 . S
H524 C517 0.961 . S
H525 C517 0.960 . S
H526 C518 0.930 . S
H527 C519 0.929 . S
H528 C536 0.929 . S
H529 C538 0.930 . S
H530 C540 0.930 . S
H531 C543 0.929 . S
H532 C546 0.930 . S
H533 C548 0.960 . S
H534 C548 0.960 . S
H535 C548 0.960 . S
C536 H528 0.929 . S
C536 C537 1.377 . S
C536 C538 1.384 . S
C537 C536 1.377 . S
C537 C543 1.390 . S
C538 H529 0.930 . S
C538 C536 1.384 . S
C538 C539 1.372 . S
C539 C538 1.372 . S
C539 C540 1.400 . S
C539 C544 1.490 . S
C540 H530 0.930 . S
C540 C539 1.400 . S
C540 C543 1.386 . S
H541 C557 0.930 . S
H542 C558 0.931 . S
C543 H531 0.929 . S
C543 C537 1.390 . S
C543 C540 1.386 . S
C544 C539 1.490 . S
C544 C546 1.395 . S
C544 C547 1.403 . S
H545 C551 0.930 . S
C546 H532 0.930 . S
C546 C544 1.395 . S
C546 C549 1.403 . S
C547 C544 1.403 . S
C547 C548 1.524 . S
C547 C551 1.400 . S
C548 H533 0.960 . S
C548 H534 0.960 . S
C548 H535 0.960 . S
C548 C547 1.524 . S
C549 C546 1.403 . S
C549 C550 1.392 . S
C549 C553 1.495 . S
C550 C549 1.392 . S
C550 C551 1.385 . S
C550 C552 1.478 . S
C551 H545 0.930 . S
C551 C547 1.400 . S
C551 C550 1.385 . S
C552 C550 1.478 . S
C552 C554 1.381 . S
C552 C558 1.383 . S
C553 C549 1.495 . S
C553 H559 0.959 . S
C553 H560 0.961 . S
C553 H561 0.960 . S
C554 C552 1.381 . S
C554 C555 1.394 . S
C554 H562 0.930 . S
C555 C554 1.394 . S
C555 C556 1.383 . S
C555 H563 0.929 . S
C556 C555 1.383 . S
C556 C557 1.377 . S
C557 H541 0.930 . S
C557 C556 1.377 . S
C557 C558 1.379 . S
C558 H542 0.931 . S
C558 C552 1.383 . S
C558 C557 1.379 . S
H559 C553 0.959 . S
H560 C553 0.961 . S
H561 C553 0.960 . S
H562 C554 0.930 . S
H563 C555 0.929 . S
H564 C572 0.929 . S
H565 C574 0.930 . S
H566 C576 0.930 . S
H567 C579 0.929 . S
H568 C582 0.930 . S
H569 C584 0.960 . S
H570 C584 0.960 . S
H571 C584 0.960 . S
C572 H564 0.929 . S
C572 C573 1.377 . S
C572 C574 1.384 . S
C573 C572 1.377 . S
C573 C579 1.390 . S
C574 H565 0.930 . S
C574 C572 1.384 . S
C574 C575 1.372 . S
C575 C574 1.372 . S
C575 C576 1.400 . S
C575 C580 1.490 . S
C576 H566 0.930 . S
C576 C575 1.400 . S
C576 C579 1.386 . S
H577 C593 0.930 . S
H578 C594 0.931 . S
C579 H567 0.929 . S
C579 C573 1.390 . S
C579 C576 1.386 . S
C580 C575 1.490 . S
C580 C582 1.395 . S
C580 C583 1.403 . S
H581 C587 0.930 . S
C582 H568 0.930 . S
C582 C580 1.395 . S
C582 C585 1.403 . S
C583 C580 1.403 . S
C583 C584 1.524 . S
C583 C587 1.400 . S
C584 H569 0.960 . S
C584 H570 0.960 . S
C584 H571 0.960 . S
C584 C583 1.524 . S
C585 C582 1.403 . S
C585 C586 1.392 . S
C585 C589 1.495 . S
C586 C585 1.392 . S
C586 C587 1.385 . S
C586 C588 1.478 . S
C587 H581 0.930 . S
C587 C583 1.400 . S
C587 C586 1.385 . S
C588 C586 1.478 . S
C588 C590 1.381 . S
C588 C594 1.383 . S
C589 C585 1.495 . S
C589 H595 0.959 . S
C589 H596 0.961 . S
C589 H597 0.960 . S
C590 C588 1.381 . S
C590 C591 1.394 . S
C590 H598 0.930 . S
C591 C590 1.394 . S
C591 C592 1.383 . S
C591 H599 0.929 . S
C592 C591 1.383 . S
C592 C593 1.377 . S
C593 H577 0.930 . S
C593 C592 1.377 . S
C593 C594 1.379 . S
C594 H578 0.931 . S
C594 C588 1.383 . S
C594 C593 1.379 . S
H595 C589 0.959 . S
H596 C589 0.961 . S
H597 C589 0.960 . S
H598 C590 0.930 . S
H599 C591 0.929 . S
H600 C608 0.929 . S
H601 C610 0.930 . S
H602 C612 0.930 . S
H603 C615 0.929 . S
H604 C618 0.930 . S
H605 C620 0.960 . S
H606 C620 0.960 . S
H607 C620 0.960 . S
C608 H600 0.929 . S
C608 C609 1.377 . S
C608 C610 1.384 . S
C609 C608 1.377 . S
C609 C615 1.390 . S
C610 H601 0.930 . S
C610 C608 1.384 . S
C610 C611 1.372 . S
C611 C610 1.372 . S
C611 C612 1.400 . S
C611 C616 1.490 . S
C612 H602 0.930 . S
C612 C611 1.400 . S
C612 C615 1.386 . S
H613 C629 0.930 . S
H614 C630 0.931 . S
C615 H603 0.929 . S
C615 C609 1.390 . S
C615 C612 1.386 . S
C616 C611 1.490 . S
C616 C618 1.395 . S
C616 C619 1.403 1_556 S
H617 C623 0.930 . S
C618 H604 0.930 . S
C618 C616 1.395 . S
C618 C621 1.403 1_565 S
C619 C616 1.403 1_554 S
C619 C620 1.524 . S
C619 C623 1.400 1_565 S
C620 H605 0.960 . S
C620 H606 0.960 . S
C620 H607 0.960 . S
C620 C619 1.524 . S
C621 C618 1.403 1_545 S
C621 C622 1.392 1_556 S
C621 C625 1.495 . S
C622 C621 1.392 1_554 S
C622 C623 1.385 . S
C622 C624 1.478 . S
C623 H617 0.930 . S
C623 C619 1.400 1_545 S
C623 C622 1.385 . S
C624 C622 1.478 . S
C624 C626 1.381 . S
C624 C630 1.383 . S
C625 C621 1.495 . S
C625 H631 0.959 . S
C625 H632 0.961 . S
C625 H633 0.960 . S
C626 C624 1.381 . S
C626 C627 1.394 . S
C626 H634 0.930 . S
C627 C626 1.394 . S
C627 C628 1.383 . S
C627 H635 0.929 . S
C628 C627 1.383 . S
C628 C629 1.377 . S
C629 H613 0.930 . S
C629 C628 1.377 . S
C629 C630 1.379 . S
C630 H614 0.931 . S
C630 C624 1.383 . S
C630 C629 1.379 . S
H631 C625 0.959 . S
H632 C625 0.961 . S
H633 C625 0.960 . S
H634 C626 0.930 . S
H635 C627 0.929 . S
H636 C644 0.929 . S
H637 C646 0.930 . S
H638 C648 0.930 . S
H639 C651 0.929 . S
H640 C654 0.930 . S
H641 C656 0.960 . S
H642 C656 0.960 . S
H643 C656 0.960 . S
C644 H636 0.929 . S
C644 C645 1.377 . S
C644 C646 1.384 . S
C645 C644 1.377 . S
C645 C651 1.390 . S
C646 H637 0.930 . S
C646 C644 1.384 . S
C646 C647 1.372 . S
C647 C646 1.372 . S
C647 C648 1.400 . S
C647 C652 1.490 . S
C648 H638 0.930 . S
C648 C647 1.400 . S
C648 C651 1.386 . S
H649 C665 0.930 . S
H650 C666 0.931 . S
C651 H639 0.929 . S
C651 C645 1.390 . S
C651 C648 1.386 . S
C652 C647 1.490 . S
C652 C654 1.395 . S
C652 C655 1.403 . S
H653 C659 0.930 . S
C654 H640 0.930 . S
C654 C652 1.395 . S
C654 C657 1.403 . S
C655 C652 1.403 . S
C655 C656 1.524 . S
C655 C659 1.400 . S
C656 H641 0.960 . S
C656 H642 0.960 . S
C656 H643 0.960 . S
C656 C655 1.524 . S
C657 C654 1.403 . S
C657 C658 1.392 . S
C657 C661 1.495 . S
C658 C657 1.392 . S
C658 C659 1.385 . S
C658 C660 1.478 . S
C659 H653 0.930 . S
C659 C655 1.400 . S
C659 C658 1.385 . S
C660 C658 1.478 . S
C660 C662 1.381 . S
C660 C666 1.383 . S
C661 C657 1.495 . S
C661 H667 0.959 . S
C661 H668 0.961 . S
C661 H669 0.960 . S
C662 C660 1.381 . S
C662 C663 1.394 . S
C662 H670 0.930 . S
C663 C662 1.394 . S
C663 C664 1.383 . S
C663 H671 0.929 . S
C664 C663 1.383 . S
C664 C665 1.377 . S
C665 H649 0.930 . S
C665 C664 1.377 . S
C665 C666 1.379 . S
C666 H650 0.931 . S
C666 C660 1.383 . S
C666 C665 1.379 . S
H667 C661 0.959 . S
H668 C661 0.961 . S
H669 C661 0.960 . S
H670 C662 0.930 . S
H671 C663 0.929 . S
H672 C680 0.929 . S
H673 C682 0.930 . S
H674 C684 0.930 . S
H675 C687 0.929 . S
H676 C690 0.930 . S
H677 C692 0.960 . S
H678 C692 0.960 . S
H679 C692 0.960 . S
C680 H672 0.929 . S
C680 C681 1.377 . S
C680 C682 1.384 . S
C681 C680 1.377 . S
C681 C687 1.390 . S
C682 H673 0.930 . S
C682 C680 1.384 . S
C682 C683 1.372 . S
C683 C682 1.372 . S
C683 C684 1.400 . S
C683 C688 1.490 . S
C684 H674 0.930 . S
C684 C683 1.400 . S
C684 C687 1.386 . S
H685 C701 0.930 . S
H686 C702 0.931 . S
C687 H675 0.929 . S
C687 C681 1.390 . S
C687 C684 1.386 . S
C688 C683 1.490 . S
C688 C690 1.395 . S
C688 C691 1.403 . S
H689 C695 0.930 . S
C690 H676 0.930 . S
C690 C688 1.395 . S
C690 C693 1.403 1_655 S
C691 C688 1.403 . S
C691 C692 1.524 . S
C691 C695 1.400 1_655 S
C692 H677 0.960 . S
C692 H678 0.960 . S
C692 H679 0.960 . S
C692 C691 1.524 . S
C693 C690 1.403 1_455 S
C693 C694 1.392 . S
C693 C697 1.495 . S
C694 C693 1.392 . S
C694 C695 1.385 . S
C694 C696 1.478 . S
C695 H689 0.930 . S
C695 C691 1.400 1_455 S
C695 C694 1.385 . S
C696 C694 1.478 . S
C696 C698 1.381 . S
C696 C702 1.383 . S
C697 C693 1.495 . S
C697 H703 0.959 . S
C697 H704 0.961 . S
C697 H705 0.960 . S
C698 C696 1.381 . S
C698 C699 1.394 . S
C698 H706 0.930 . S
C699 C698 1.394 . S
C699 C700 1.383 . S
C699 H707 0.929 . S
C700 C699 1.383 . S
C700 C701 1.377 . S
C701 H685 0.930 . S
C701 C700 1.377 . S
C701 C702 1.379 . S
C702 H686 0.931 . S
C702 C696 1.383 . S
C702 C701 1.379 . S
H703 C697 0.959 . S
H704 C697 0.961 . S
H705 C697 0.960 . S
H706 C698 0.930 . S
H707 C699 0.929 . S
H708 C716 0.929 . S
H709 C718 0.930 1_556 S
H710 C720 0.930 . S
H711 C723 0.929 . S
H712 C726 0.930 . S
H713 C728 0.960 . S
H714 C728 0.960 . S
H715 C728 0.960 . S
C716 H708 0.929 . S
C716 C717 1.377 . S
C716 C718 1.384 . S
C717 C716 1.377 . S
C717 C723 1.390 . S
C718 H709 0.930 1_554 S
C718 C716 1.384 . S
C718 C719 1.372 . S
C719 C718 1.372 . S
C719 C720 1.400 . S
C719 C724 1.490 . S
C720 H710 0.930 . S
C720 C719 1.400 . S
C720 C723 1.386 . S
H721 C737 0.930 . S
H722 C738 0.931 1_554 S
C723 H711 0.929 . S
C723 C717 1.390 . S
C723 C720 1.386 . S
C724 C719 1.490 . S
C724 C726 1.395 1_554 S
C724 C727 1.403 . S
H725 C731 0.929 1_554 S
C726 H712 0.930 . S
C726 C724 1.395 1_556 S
C726 C729 1.403 1_565 S
C727 C724 1.403 . S
C727 C728 1.524 . S
C727 C731 1.389 1_564 S
C728 H713 0.960 . S
C728 H714 0.960 . S
C728 H715 0.960 . S
C728 C727 1.524 . S
C729 C726 1.403 1_545 S
C729 C730 1.392 . S
C729 C733 1.495 . S
C730 C729 1.392 . S
C730 C731 1.398 . S
C730 C732 1.478 . S
C731 H725 0.929 1_556 S
C731 C727 1.389 1_546 S
C731 C730 1.398 . S
C732 C730 1.478 . S
C732 C734 1.381 . S
C732 C738 1.383 . S
C733 C729 1.495 . S
C733 H739 0.959 . S
C733 H740 0.961 . S
C733 H741 0.960 . S
C734 C732 1.381 . S
C734 C735 1.394 . S
C734 H742 0.930 . S
C735 C734 1.394 . S
C735 C736 1.383 . S
C735 H743 0.929 . S
C736 C735 1.383 . S
C736 C737 1.377 . S
C737 H721 0.930 . S
C737 C736 1.377 . S
C737 C738 1.379 . S
C738 H722 0.931 1_556 S
C738 C732 1.383 . S
C738 C737 1.379 . S
H739 C733 0.959 . S
H740 C733 0.961 . S
H741 C733 0.960 . S
H742 C734 0.930 . S
H743 C735 0.929 . S
H744 C752 0.929 . S
H745 C754 0.930 . S
H746 C756 0.930 . S
H747 C759 0.929 . S
H748 C762 0.930 . S
H749 C764 0.960 . S
H750 C764 0.960 . S
H751 C764 0.960 . S
C752 H744 0.929 . S
C752 C753 1.377 . S
C752 C754 1.384 . S
C753 C752 1.377 . S
C753 C759 1.390 . S
C754 H745 0.930 . S
C754 C752 1.384 . S
C754 C755 1.372 . S
C755 C754 1.372 . S
C755 C756 1.400 . S
C755 C760 1.490 . S
C756 H746 0.930 . S
C756 C755 1.400 . S
C756 C759 1.386 . S
H757 C773 0.930 . S
H758 C774 0.931 . S
C759 H747 0.929 . S
C759 C753 1.390 . S
C759 C756 1.386 . S
C760 C755 1.490 . S
C760 C762 1.395 . S
C760 C763 1.403 . S
H761 C767 0.930 . S
C762 H748 0.930 . S
C762 C760 1.395 . S
C762 C765 1.403 . S
C763 C760 1.403 . S
C763 C764 1.524 . S
C763 C767 1.400 . S
C764 H749 0.960 . S
C764 H750 0.960 . S
C764 H751 0.960 . S
C764 C763 1.524 . S
C765 C762 1.403 . S
C765 C766 1.392 . S
C765 C769 1.495 . S
C766 C765 1.392 . S
C766 C767 1.385 . S
C766 C768 1.478 . S
C767 H761 0.930 . S
C767 C763 1.400 . S
C767 C766 1.385 . S
C768 C766 1.478 . S
C768 C770 1.381 . S
C768 C774 1.383 . S
C769 C765 1.495 . S
C769 H775 0.959 . S
C769 H776 0.961 . S
C769 H777 0.960 . S
C770 C768 1.381 . S
C770 C771 1.394 . S
C770 H778 0.930 . S
C771 C770 1.394 . S
C771 C772 1.383 . S
C771 H779 0.929 . S
C772 C771 1.383 . S
C772 C773 1.377 . S
C773 H757 0.930 . S
C773 C772 1.377 . S
C773 C774 1.379 . S
C774 H758 0.931 . S
C774 C768 1.383 . S
C774 C773 1.379 . S
H775 C769 0.959 . S
H776 C769 0.961 . S
H777 C769 0.960 . S
H778 C770 0.930 . S
H779 C771 0.929 . S
H780 C788 0.929 . S
H781 C790 0.930 . S
H782 C792 0.930 . S
H783 C795 0.929 . S
H784 C798 0.930 . S
H785 C800 0.960 . S
H786 C800 0.960 . S
H787 C800 0.960 . S
C788 H780 0.929 . S
C788 C789 1.377 . S
C788 C790 1.384 . S
C789 C788 1.377 . S
C789 C795 1.390 . S
C790 H781 0.930 . S
C790 C788 1.384 . S
C790 C791 1.372 . S
C791 C790 1.372 . S
C791 C792 1.400 . S
C791 C796 1.490 . S
C792 H782 0.930 . S
C792 C791 1.400 . S
C792 C795 1.386 . S
H793 C809 0.930 . S
H794 C810 0.931 . S
C795 H783 0.929 . S
C795 C789 1.390 . S
C795 C792 1.386 . S
C796 C791 1.490 . S
C796 C798 1.395 . S
C796 C799 1.403 . S
H797 C803 0.930 . S
C798 H784 0.930 . S
C798 C796 1.395 . S
C798 C801 1.403 1_455 S
C799 C796 1.403 . S
C799 C800 1.524 . S
C799 C803 1.400 1_455 S
C800 H785 0.960 . S
C800 H786 0.960 . S
C800 H787 0.960 . S
C800 C799 1.524 . S
C801 C798 1.403 1_655 S
C801 C802 1.392 . S
C801 C805 1.495 . S
C802 C801 1.392 . S
C802 C803 1.385 . S
C802 C804 1.478 . S
C803 H797 0.930 . S
C803 C799 1.400 1_655 S
C803 C802 1.385 . S
C804 C802 1.478 . S
C804 C806 1.381 . S
C804 C810 1.383 . S
C805 C801 1.495 . S
C805 H811 0.959 . S
C805 H812 0.961 . S
C805 H813 0.960 . S
C806 C804 1.381 . S
C806 C807 1.394 . S
C806 H814 0.930 . S
C807 C806 1.394 . S
C807 C808 1.383 . S
C807 H815 0.929 . S
C808 C807 1.383 . S
C808 C809 1.377 . S
C809 H793 0.930 . S
C809 C808 1.377 . S
C809 C810 1.379 . S
C810 H794 0.931 . S
C810 C804 1.383 . S
C810 C809 1.379 . S
H811 C805 0.959 . S
H812 C805 0.961 . S
H813 C805 0.960 . S
H814 C806 0.930 . S
H815 C807 0.929 . S
H816 C824 0.929 . S
H817 C826 0.930 . S
H818 C828 0.930 . S
H819 C831 0.929 . S
H820 C834 0.930 . S
H821 C836 0.960 . S
H822 C836 0.960 . S
H823 C836 0.960 . S
C824 H816 0.929 . S
C824 C825 1.377 . S
C824 C826 1.384 1_655 S
C825 C824 1.377 . S
C825 C831 1.390 1_655 S
C826 H817 0.930 . S
C826 C824 1.384 1_455 S
C826 C827 1.372 . S
C827 C826 1.372 . S
C827 C828 1.400 . S
C827 C832 1.490 . S
C828 H818 0.930 . S
C828 C827 1.400 . S
C828 C831 1.386 . S
H829 C845 0.930 . S
H830 C846 0.931 . S
C831 H819 0.929 . S
C831 C825 1.390 1_455 S
C831 C828 1.386 . S
C832 C827 1.490 . S
C832 C834 1.395 . S
C832 C835 1.403 1_556 S
H833 C839 0.930 . S
C834 H820 0.930 . S
C834 C832 1.395 . S
C834 C837 1.403 . S
C835 C832 1.403 1_554 S
C835 C836 1.524 . S
C835 C839 1.400 . S
C836 H821 0.960 . S
C836 H822 0.960 . S
C836 H823 0.960 . S
C836 C835 1.524 . S
C837 C834 1.403 . S
C837 C838 1.392 1_556 S
C837 C841 1.495 . S
C838 C837 1.392 1_554 S
C838 C839 1.385 . S
C838 C840 1.478 . S
C839 H833 0.930 . S
C839 C835 1.400 . S
C839 C838 1.385 . S
C840 C838 1.478 . S
C840 C842 1.381 . S
C840 C846 1.383 . S
C841 C837 1.495 . S
C841 H847 0.959 . S
C841 H848 0.961 . S
C841 H849 0.960 . S
C842 C840 1.381 . S
C842 C843 1.394 . S
C842 H850 0.930 . S
C843 C842 1.394 . S
C843 C844 1.383 . S
C843 H851 0.929 . S
C844 C843 1.383 . S
C844 C845 1.377 . S
C845 H829 0.930 . S
C845 C844 1.377 . S
C845 C846 1.379 . S
C846 H830 0.931 . S
C846 C840 1.383 . S
C846 C845 1.379 . S
H847 C841 0.959 . S
H848 C841 0.961 . S
H849 C841 0.960 . S
H850 C842 0.930 . S
H851 C843 0.929 . S
H852 C860 0.929 1_565 S
H853 C862 0.930 . S
H854 C864 0.930 . S
H855 C867 0.929 . S
H856 C870 0.930 . S
H857 C872 0.960 . S
H858 C872 0.960 . S
H859 C872 0.960 . S
C860 H852 0.929 1_545 S
C860 C861 1.377 . S
C860 C862 1.384 . S
C861 C860 1.377 . S
C861 C867 1.390 . S
C862 H853 0.930 . S
C862 C860 1.384 . S
C862 C863 1.372 . S
C863 C862 1.372 . S
C863 C864 1.400 . S
C863 C868 1.490 . S
C864 H854 0.930 . S
C864 C863 1.400 . S
C864 C867 1.386 . S
H865 C881 0.930 1_455 S
H866 C882 0.931 . S
C867 H855 0.929 . S
C867 C861 1.390 . S
C867 C864 1.386 . S
C868 C863 1.490 . S
C868 C870 1.395 . S
C868 C871 1.403 . S
H869 C875 0.930 . S
C870 H856 0.930 . S
C870 C868 1.395 . S
C870 C873 1.403 . S
C871 C868 1.403 . S
C871 C872 1.524 . S
C871 C875 1.400 . S
C872 H857 0.960 . S
C872 H858 0.960 . S
C872 H859 0.960 . S
C872 C871 1.524 . S
C873 C870 1.403 . S
C873 C874 1.392 . S
C873 C877 1.495 . S
C874 C873 1.392 . S
C874 C875 1.385 . S
C874 C876 1.478 . S
C875 H869 0.930 . S
C875 C871 1.400 . S
C875 C874 1.385 . S
C876 C874 1.478 . S
C876 C878 1.381 . S
C876 C882 1.383 . S
C877 C873 1.495 . S
C877 H883 0.959 . S
C877 H884 0.961 . S
C877 H885 0.960 . S
C878 C876 1.381 . S
C878 C879 1.394 . S
C878 H886 0.930 . S
C879 C878 1.394 . S
C879 C880 1.383 1_655 S
C879 H887 0.929 . S
C880 C879 1.383 1_455 S
C880 C881 1.377 1_455 S
C881 H865 0.930 1_655 S
C881 C880 1.377 1_655 S
C881 C882 1.379 . S
C882 H866 0.931 . S
C882 C876 1.383 . S
C882 C881 1.379 . S
H883 C877 0.959 . S
H884 C877 0.961 . S
H885 C877 0.960 . S
H886 C878 0.930 . S
H887 C879 0.929 . S
H888 C896 0.929 . S
H889 C898 0.930 . S
H890 C900 0.930 . S
H891 C903 0.929 . S
H892 C906 0.930 . S
H893 C908 0.960 . S
H894 C908 0.960 . S
H895 C908 0.960 . S
C896 H888 0.929 . S
C896 C897 1.377 . S
C896 C898 1.384 . S
C897 C896 1.377 . S
C897 C903 1.390 . S
C898 H889 0.930 . S
C898 C896 1.384 . S
C898 C899 1.372 . S
C899 C898 1.372 . S
C899 C900 1.400 . S
C899 C904 1.490 . S
C900 H890 0.930 . S
C900 C899 1.400 . S
C900 C903 1.386 . S
H901 C917 0.930 1_545 S
H902 C918 0.931 . S
C903 H891 0.929 . S
C903 C897 1.390 . S
C903 C900 1.386 . S
C904 C899 1.490 . S
C904 C906 1.395 . S
C904 C907 1.403 . S
H905 C911 0.930 . S
C906 H892 0.930 . S
C906 C904 1.395 . S
C906 C909 1.403 . S
C907 C904 1.403 . S
C907 C908 1.524 . S
C907 C911 1.400 . S
C908 H893 0.960 . S
C908 H894 0.960 . S
C908 H895 0.960 . S
C908 C907 1.524 . S
C909 C906 1.403 . S
C909 C910 1.392 . S
C909 C913 1.495 . S
C910 C909 1.392 . S
C910 C911 1.385 . S
C910 C912 1.478 . S
C911 H905 0.930 . S
C911 C907 1.400 . S
C911 C910 1.385 . S
C912 C910 1.478 . S
C912 C914 1.381 . S
C912 C918 1.383 . S
C913 C909 1.495 . S
C913 H919 0.959 . S
C913 H920 0.961 . S
C913 H921 0.960 . S
C914 C912 1.381 . S
C914 C915 1.394 . S
C914 H922 0.930 . S
C915 C914 1.394 . S
C915 C916 1.412 . S
C915 H923 0.929 . S
C916 C915 1.412 . S
C916 C917 1.384 . S
C917 H901 0.930 1_565 S
C917 C916 1.384 . S
C917 C918 1.379 . S
C918 H902 0.931 . S
C918 C912 1.383 . S
C918 C917 1.379 . S
H919 C913 0.959 . S
H920 C913 0.961 . S
H921 C913 0.960 . S
H922 C914 0.930 . S
H923 C915 0.929 . S
H924 C932 0.929 . S
H925 C934 0.930 . S
H926 C936 0.930 . S
H927 C939 0.929 . S
H928 C942 0.930 . S
H929 C944 0.960 . S
H930 C944 0.960 . S
H931 C944 0.960 . S
C932 H924 0.929 . S
C932 C933 1.377 . S
C932 C934 1.384 . S
C933 C932 1.377 . S
C933 C939 1.390 . S
C934 H925 0.930 . S
C934 C932 1.384 . S
C934 C935 1.372 . S
C935 C934 1.372 . S
C935 C936 1.400 . S
C935 C940 1.490 . S
C936 H926 0.930 . S
C936 C935 1.400 . S
C936 C939 1.386 . S
H937 C953 0.930 . S
H938 C954 0.931 . S
C939 H927 0.929 . S
C939 C933 1.390 . S
C939 C936 1.386 . S
C940 C935 1.490 . S
C940 C942 1.395 1_554 S
C940 C943 1.403 . S
H941 C947 0.930 . S
C942 H928 0.930 . S
C942 C940 1.395 1_556 S
C942 C945 1.403 . S
C943 C940 1.403 . S
C943 C944 1.524 . S
C943 C947 1.400 . S
C944 H929 0.960 . S
C944 H930 0.960 . S
C944 H931 0.960 . S
C944 C943 1.524 . S
C945 C942 1.403 . S
C945 C946 1.392 . S
C945 C949 1.495 . S
C946 C945 1.392 . S
C946 C947 1.385 1_556 S
C946 C948 1.478 . S
C947 H941 0.930 . S
C947 C943 1.400 . S
C947 C946 1.385 1_554 S
C948 C946 1.478 . S
C948 C950 1.381 . S
C948 C954 1.383 . S
C949 C945 1.495 . S
C949 H955 0.959 . S
C949 H956 0.961 . S
C949 H957 0.960 . S
C950 C948 1.381 . S
C950 C951 1.394 . S
C950 H958 0.930 . S
C951 C950 1.394 . S
C951 C952 1.383 1_655 S
C951 H959 0.929 . S
C952 C951 1.383 1_455 S
C952 C953 1.377 . S
C953 H937 0.930 . S
C953 C952 1.377 . S
C953 C954 1.379 1_455 S
C954 H938 0.931 . S
C954 C948 1.383 . S
C954 C953 1.379 1_655 S
H955 C949 0.959 . S
H956 C949 0.961 . S
H957 C949 0.960 . S
H958 C950 0.930 . S
H959 C951 0.929 . S
H960 C968 0.929 1_655 S
H961 C970 0.930 . S
H962 C972 0.930 . S
H963 C975 0.929 . S
H964 C978 0.930 . S
H965 C980 0.960 . S
H966 C980 0.960 . S
H967 C980 0.960 . S
C968 H960 0.929 1_455 S
C968 C969 1.377 1_455 S
C968 C970 1.384 . S
C969 C968 1.377 1_655 S
C969 C975 1.390 1_655 S
C970 H961 0.930 . S
C970 C968 1.384 . S
C970 C971 1.372 . S
C971 C970 1.372 . S
C971 C972 1.400 . S
C971 C976 1.490 . S
C972 H962 0.930 . S
C972 C971 1.400 . S
C972 C975 1.386 . S
H973 C989 0.930 . S
H974 C990 0.931 . S
C975 H963 0.929 . S
C975 C969 1.390 1_455 S
C975 C972 1.386 . S
C976 C971 1.490 . S
C976 C978 1.395 . S
C976 C979 1.403 . S
H977 C983 0.930 . S
C978 H964 0.930 . S
C978 C976 1.395 . S
C978 C981 1.403 . S
C979 C976 1.403 . S
C979 C980 1.524 . S
C979 C983 1.400 . S
C980 H965 0.960 . S
C980 H966 0.960 . S
C980 H967 0.960 . S
C980 C979 1.524 . S
C981 C978 1.403 . S
C981 C982 1.392 . S
C981 C985 1.495 . S
C982 C981 1.392 . S
C982 C983 1.385 . S
C982 C984 1.478 . S
C983 H977 0.930 . S
C983 C979 1.400 . S
C983 C982 1.385 . S
C984 C982 1.478 . S
C984 C986 1.381 . S
C984 C990 1.383 . S
C985 C981 1.495 . S
C985 H991 0.959 . S
C985 H992 0.961 . S
C985 H993 0.960 . S
C986 C984 1.381 . S
C986 C987 1.394 1_565 S
C986 H994 0.930 . S
C987 C986 1.394 1_545 S
C987 C988 1.383 1_545 S
C987 H995 0.929 . S
C988 C987 1.383 1_565 S
C988 C989 1.377 . S
C989 H973 0.930 . S
C989 C988 1.377 . S
C989 C990 1.379 . S
C990 H974 0.931 . S
C990 C984 1.383 . S
C990 C989 1.379 . S
H991 C985 0.959 . S
H992 C985 0.961 . S
H993 C985 0.960 . S
H994 C986 0.930 . S
H995 C987 0.929 . S
H996 C1004 0.929 . S
H997 C1006 0.930 . S
H998 C1008 0.930 . S
H999 C1011 0.929 . S
H1000 C1014 0.930 . S
H1001 C1016 0.960 . S
H1002 C1016 0.960 . S
H1003 C1016 0.960 . S
C1004 H996 0.929 . S
C1004 C1005 1.377 . S
C1004 C1006 1.384 . S
C1005 C1004 1.377 . S
C1005 C1011 1.390 . S
C1006 H997 0.930 . S
C1006 C1004 1.384 . S
C1006 C1007 1.372 . S
C1007 C1006 1.372 . S
C1007 C1008 1.400 . S
C1007 C1012 1.490 . S
C1008 H998 0.930 . S
C1008 C1007 1.400 . S
C1008 C1011 1.386 . S
H1009 C1025 0.930 . S
H1010 C1026 0.931 . S
C1011 H999 0.929 . S
C1011 C1005 1.390 . S
C1011 C1008 1.386 . S
C1012 C1007 1.490 . S
C1012 C1014 1.395 . S
C1012 C1015 1.403 . S
H1013 C1019 0.930 . S
C1014 H1000 0.930 . S
C1014 C1012 1.395 . S
C1014 C1017 1.403 . S
C1015 C1012 1.403 . S
C1015 C1016 1.524 . S
C1015 C1019 1.400 . S
C1016 H1001 0.960 . S
C1016 H1002 0.960 . S
C1016 H1003 0.960 . S
C1016 C1015 1.524 . S
C1017 C1014 1.403 . S
C1017 C1018 1.392 . S
C1017 C1021 1.495 . S
C1018 C1017 1.392 . S
C1018 C1019 1.385 . S
C1018 C1020 1.478 . S
C1019 H1013 0.930 . S
C1019 C1015 1.400 . S
C1019 C1018 1.385 . S
C1020 C1018 1.478 . S
C1020 C1022 1.381 . S
C1020 C1026 1.383 . S
C1021 C1017 1.495 . S
C1021 H1027 0.959 . S
C1021 H1028 0.961 . S
C1021 H1029 0.960 . S
C1022 C1020 1.381 . S
C1022 C1023 1.394 . S
C1022 H1030 0.930 . S
C1023 C1022 1.394 . S
C1023 C1024 1.383 . S
C1023 H1031 0.929 . S
C1024 C1023 1.383 . S
C1024 C1025 1.377 . S
C1025 H1009 0.930 . S
C1025 C1024 1.377 . S
C1025 C1026 1.379 . S
C1026 H1010 0.931 . S
C1026 C1020 1.383 . S
C1026 C1025 1.379 . S
H1027 C1021 0.959 . S
H1028 C1021 0.961 . S
H1029 C1021 0.960 . S
H1030 C1022 0.930 . S
H1031 C1023 0.929 . S
C177 C53 1.202 . S
C196 C11 1.195 . S
C213 C23 1.343 . S
C232 C65 1.356 . S
C249 C79 1.249 . S
C268 C37 1.264 . S
C285 C93 1.338 . S
C304 C135 1.327 . S
C321 C151 1.206 . S
C340 C109 1.215 . S
C357 C121 1.240 . S
C376 C163 1.226 . S
C393 C123 1.661 . S
C412 C9 1.666 . S
C429 C25 1.699 . S
C448 C137 1.693 . S
C465 C39 1.664 . S
C484 C149 1.671 . S
C501 C51 1.672 . S
C520 C165 1.668 . S
C537 C95 1.699 . S
C556 C67 1.698 . S
C573 C107 1.670 . S
C592 C81 1.661 . S
C609 C103 1.115 . S
C628 C5 1.124 . S
C645 C14 1.232 . S
C664 C112 1.251 . S
C681 C28 1.236 . S
C700 C126 1.251 . S
C717 C47 1.109 . S
C736 C145 1.127 . S
C753 C154 1.241 . S
C772 C56 1.213 . S
C789 C70 1.242 . S
C808 C84 1.217 . S
C825 C140 1.278 . S
C844 C0 1.272 . S
C861 C159 1.475 1_545 S
C880 C19 1.464 . S
C897 C89 1.475 . S
C916 C33 1.433 1_565 S
C933 C42 1.280 . S
C952 C98 1.276 . S
C969 C61 1.472 . S
C988 C117 1.473 1_565 S
C1005 C75 1.474 1_545 S
C1024 C131 1.474 . S
