# Generated by pormake.
# Topology whw, (6)-cn, num edge types: 1
# Building blocks:
#     Node 0, Type 0, BuildingBlock: KUMBOL_clean_sbu_0, # of connection points: 6
#     Node 1, Type 0, BuildingBlock: KUMBOL_clean_sbu_0, # of connection points: 6
#     Node 2, Type 0, BuildingBlock: KUMBOL_clean_sbu_0, # of connection points: 6
#     Node 3, Type 0, BuildingBlock: KUMBOL_clean_sbu_0, # of connection points: 6
#     Node 4, Type 0, BuildingBlock: KUMBOL_clean_sbu_0, # of connection points: 6
#     Node 5, Type 0, BuildingBlock: KUMBOL_clean_sbu_0, # of connection points: 6
#     Node 6, Type 0, BuildingBlock: KUMBOL_clean_sbu_0, # of connection points: 6
#     Node 7, Type 0, BuildingBlock: KUMBOL_clean_sbu_0, # of connection points: 6
#     Node 8, Type 0, BuildingBlock: KUMBOL_clean_sbu_0, # of connection points: 6
#     Node 9, Type 0, BuildingBlock: KUMBOL_clean_sbu_0, # of connection points: 6
#     Node 10, Type 0, BuildingBlock: KUMBOL_clean_sbu_0, # of connection points: 6
#     Node 11, Type 0, BuildingBlock: KUMBOL_clean_sbu_0, # of connection points: 6
#     Node 12, Type 0, BuildingBlock: KUMBOL_clean_sbu_0, # of connection points: 6
#     Node 13, Type 0, BuildingBlock: KUMBOL_clean_sbu_0, # of connection points: 6
#     Node 14, Type 0, BuildingBlock: KUMBOL_clean_sbu_0, # of connection points: 6
#     Node 15, Type 0, BuildingBlock: KUMBOL_clean_sbu_0, # of connection points: 6
#     Edge 16, Type (0, 0), BuildingBlock: CIFDUS_clean_linker_0, # of connection points: 2
#     Edge 17, Type (0, 0), BuildingBlock: CIFDUS_clean_linker_0, # of connection points: 2
#     Edge 18, Type (0, 0), BuildingBlock: CIFDUS_clean_linker_0, # of connection points: 2
#     Edge 19, Type (0, 0), BuildingBlock: CIFDUS_clean_linker_0, # of connection points: 2
#     Edge 20, Type (0, 0), BuildingBlock: CIFDUS_clean_linker_0, # of connection points: 2
#     Edge 21, Type (0, 0), BuildingBlock: CIFDUS_clean_linker_0, # of connection points: 2
#     Edge 22, Type (0, 0), BuildingBlock: CIFDUS_clean_linker_0, # of connection points: 2
#     Edge 23, Type (0, 0), BuildingBlock: CIFDUS_clean_linker_0, # of connection points: 2
#     Edge 24, Type (0, 0), BuildingBlock: CIFDUS_clean_linker_0, # of connection points: 2
#     Edge 25, Type (0, 0), BuildingBlock: CIFDUS_clean_linker_0, # of connection points: 2
#     Edge 26, Type (0, 0), BuildingBlock: CIFDUS_clean_linker_0, # of connection points: 2
#     Edge 27, Type (0, 0), BuildingBlock: CIFDUS_clean_linker_0, # of connection points: 2
#     Edge 28, Type (0, 0), BuildingBlock: CIFDUS_clean_linker_0, # of connection points: 2
#     Edge 29, Type (0, 0), BuildingBlock: CIFDUS_clean_linker_0, # of connection points: 2
#     Edge 30, Type (0, 0), BuildingBlock: CIFDUS_clean_linker_0, # of connection points: 2
#     Edge 31, Type (0, 0), BuildingBlock: CIFDUS_clean_linker_0, # of connection points: 2
#     Edge 32, Type (0, 0), BuildingBlock: CIFDUS_clean_linker_0, # of connection points: 2
#     Edge 33, Type (0, 0), BuildingBlock: CIFDUS_clean_linker_0, # of connection points: 2
#     Edge 34, Type (0, 0), BuildingBlock: CIFDUS_clean_linker_0, # of connection points: 2
#     Edge 35, Type (0, 0), BuildingBlock: CIFDUS_clean_linker_0, # of connection points: 2
#     Edge 36, Type (0, 0), BuildingBlock: CIFDUS_clean_linker_0, # of connection points: 2
#     Edge 37, Type (0, 0), BuildingBlock: CIFDUS_clean_linker_0, # of connection points: 2
#     Edge 38, Type (0, 0), BuildingBlock: CIFDUS_clean_linker_0, # of connection points: 2
#     Edge 39, Type (0, 0), BuildingBlock: CIFDUS_clean_linker_0, # of connection points: 2
#     Edge 40, Type (0, 0), BuildingBlock: CIFDUS_clean_linker_0, # of connection points: 2
#     Edge 41, Type (0, 0), BuildingBlock: CIFDUS_clean_linker_0, # of connection points: 2
#     Edge 42, Type (0, 0), BuildingBlock: CIFDUS_clean_linker_0, # of connection points: 2
#     Edge 43, Type (0, 0), BuildingBlock: CIFDUS_clean_linker_0, # of connection points: 2
#     Edge 44, Type (0, 0), BuildingBlock: CIFDUS_clean_linker_0, # of connection points: 2
#     Edge 45, Type (0, 0), BuildingBlock: CIFDUS_clean_linker_0, # of connection points: 2
#     Edge 46, Type (0, 0), BuildingBlock: CIFDUS_clean_linker_0, # of connection points: 2
#     Edge 47, Type (0, 0), BuildingBlock: CIFDUS_clean_linker_0, # of connection points: 2
#     Edge 48, Type (0, 0), BuildingBlock: CIFDUS_clean_linker_0, # of connection points: 2
#     Edge 49, Type (0, 0), BuildingBlock: CIFDUS_clean_linker_0, # of connection points: 2
#     Edge 50, Type (0, 0), BuildingBlock: CIFDUS_clean_linker_0, # of connection points: 2
#     Edge 51, Type (0, 0), BuildingBlock: CIFDUS_clean_linker_0, # of connection points: 2
#     Edge 52, Type (0, 0), BuildingBlock: CIFDUS_clean_linker_0, # of connection points: 2
#     Edge 53, Type (0, 0), BuildingBlock: CIFDUS_clean_linker_0, # of connection points: 2
#     Edge 54, Type (0, 0), BuildingBlock: CIFDUS_clean_linker_0, # of connection points: 2
#     Edge 55, Type (0, 0), BuildingBlock: CIFDUS_clean_linker_0, # of connection points: 2
#     Edge 56, Type (0, 0), BuildingBlock: CIFDUS_clean_linker_0, # of connection points: 2
#     Edge 57, Type (0, 0), BuildingBlock: CIFDUS_clean_linker_0, # of connection points: 2
#     Edge 58, Type (0, 0), BuildingBlock: CIFDUS_clean_linker_0, # of connection points: 2
#     Edge 59, Type (0, 0), BuildingBlock: CIFDUS_clean_linker_0, # of connection points: 2
#     Edge 60, Type (0, 0), BuildingBlock: CIFDUS_clean_linker_0, # of connection points: 2
#     Edge 61, Type (0, 0), BuildingBlock: CIFDUS_clean_linker_0, # of connection points: 2
#     Edge 62, Type (0, 0), BuildingBlock: CIFDUS_clean_linker_0, # of connection points: 2
#     Edge 63, Type (0, 0), BuildingBlock: CIFDUS_clean_linker_0, # of connection points: 2
# Relax obj value: 0.350
# Max RMSD: 0.275
# Mean RMSD: 0.228
data_MOF--net-whw--node1-KUMBOL_clean_sbu_0--edge1-CIFDUS_clean_linker_0
_symmetry_space_group_name_H-M    P1
_symmetry_Int_Tables_number       1
_symmetry_cell_setting            triclinic
loop_
_symmetry_equiv_pos_as_xyz
'x, y, z'
_cell_length_a     41.821776
_cell_length_b     41.74399
_cell_length_c     28.363098
_cell_angle_alpha  102.75037
_cell_angle_beta   88.711484
_cell_angle_gamma 118.33492
loop_
_atom_site_label
_atom_site_type_symbol
_atom_site_fract_x
_atom_site_fract_y
_atom_site_fract_z
_atom_type_partial_charge
Gd0 Gd 0.01965 0.11824 0.25531 0.0
Gd1 Gd 0.11127 0.17219 0.22914 0.0
C2 C 0.17686 0.14795 0.3294 0.0
C3 C 0.21919 0.21058 0.37579 0.0
C4 C 0.17311 0.20145 0.31562 0.0
C5 C 0.16075 0.16301 0.30387 0.0
C6 C 0.20269 0.22555 0.35145 0.0
C7 C 0.2062 0.1719 0.36499 0.0
C8 C 0.16259 0.10912 0.31924 0.0
C9 C 0.13261 0.08619 0.28504 0.0
N10 N 0.13208 0.14026 0.26929 0.0
C11 C 0.1176 0.10222 0.2605 0.0
H12 H 0.09397 0.08353 0.23588 0.0
C13 C 0.16904 0.25316 0.30135 0.0
N14 N 0.15596 0.2153 0.29282 0.0
C15 C 0.19815 0.27799 0.33643 0.0
C16 C 0.21494 0.26413 0.36184 0.0
H17 H 0.15756 0.26445 0.28027 0.0
H18 H 0.2189 0.16072 0.38464 0.0
H19 H -0.00144 0.17782 0.21601 0.0
H20 H 0.17407 0.09653 0.33826 0.0
H21 H 0.1208 0.05602 0.27771 0.0
H22 H 0.24188 0.22868 0.40335 0.0
H23 H -0.00393 0.02883 0.25256 0.0
H24 H 0.89623 0.11362 0.13081 0.0
H25 H 0.9484 0.17487 0.17041 0.0
H26 H 0.86625 0.98696 0.12413 0.0
H27 H 0.20793 0.30782 0.34332 0.0
H28 H 0.2376 0.28348 0.38896 0.0
H29 H 0.86625 0.04373 0.11331 0.0
H30 H 0.94547 0.96545 0.21633 0.0
N31 N 0.97584 0.119 0.20531 0.0
C32 C 0.91835 0.1147 0.1515 0.0
C33 C 0.94752 0.14931 0.17391 0.0
C34 C 0.91815 0.08191 0.15592 0.0
C35 C 0.94772 0.08489 0.18329 0.0
C36 C 0.976 0.15093 0.20071 0.0
N37 N 0.97643 0.05634 0.21609 0.0
C38 C 0.9481 0.05277 0.18865 0.0
C39 C 0.94625 0.98966 0.20746 0.0
C40 C 0.91811 0.98536 0.17691 0.0
C41 C 0.97488 0.02552 0.22769 0.0
C42 C 0.91839 0.01708 0.16786 0.0
H43 H 0.89572 0.95755 0.16182 0.0
O44 O -0.00101 0.0913 0.31384 0.0
O45 O 0.07703 0.15719 0.28883 0.0
O46 O 0.08826 0.11532 0.17284 0.0
O47 O 0.03231 0.07826 0.19968 0.0
O48 O 0.05021 0.11419 0.32001 0.0
O49 O 0.9766 0.12512 0.29402 0.0
O50 O 0.14964 0.21846 0.19992 0.0
O51 O 0.05321 0.14389 0.19477 0.0
O52 O 0.03219 0.17805 0.28035 0.0
O53 O 0.09477 0.21265 0.27483 0.0
O54 O 0.08938 0.19467 0.18001 0.0
O55 O 0.1574 0.17008 0.1959 0.0
C56 C 0.0801 0.14558 0.32523 0.0
C57 C 0.88922 0.01413 0.14028 0.0
C58 C 0.88914 0.04645 0.13427 0.0
C59 C 0.97508 0.10318 0.32171 0.0
C60 C 0.93971 0.07771 0.33674 0.0
C61 C 0.92926 0.03986 0.33338 0.0
C62 C 0.92163 0.094 0.36651 0.0
C63 C 0.89675 0.07456 0.39754 0.0
C64 C 0.9025 0.01956 0.36126 0.0
C65 C 0.88625 0.03672 0.39331 0.0
C66 C 0.05783 0.08275 0.16922 0.0
C67 C 0.05592 0.1681 0.17073 0.0
C68 C 0.17023 0.20309 0.1867 0.0
C69 C 0.18419 0.20639 0.13974 0.0
C70 C 0.21909 0.23528 0.13666 0.0
C71 C 0.16268 0.18074 0.09791 0.0
C72 C 0.17556 0.18388 1.05237 0.0
C73 C 0.23232 0.23846 0.09136 0.0
C74 C 0.21066 0.21293 1.04924 0.0
C75 C 0.06304 0.21 0.28829 0.0
H76 H 0.94349 0.0267 0.31224 0.0
H77 H 0.93054 0.12354 0.37035 0.0
H78 H 0.89662 0.99138 0.36112 0.0
H79 H 0.86794 0.0214 0.41755 0.0
H80 H 0.23595 0.25531 0.16915 0.0
H81 H 0.13586 0.15833 0.101 0.0
H82 H 0.25919 0.26089 0.08885 0.0
H83 H 0.22102 0.21638 1.01434 0.0
Gd84 Gd 0.16352 0.71081 0.47026 0.0
Gd85 Gd 0.15946 0.774 0.39066 0.0
C86 C 0.23483 0.89666 0.46597 0.0
C87 C 0.19326 0.92252 0.47408 0.0
C88 C 0.17175 0.85715 0.43309 0.0
C89 C 0.20686 0.8622 0.4384 0.0
C90 C 0.1648 0.88748 0.44997 0.0
C91 C 0.22795 0.9268 0.48324 0.0
C92 C 0.26819 0.89905 0.47818 0.0
C93 C 0.27445 0.86913 0.45907 0.0
N94 N 0.21252 0.83218 0.42261 0.0
C95 C 0.24655 0.83613 0.43046 0.0
H96 H 0.25242 0.81355 0.41825 0.0
C97 C 0.10908 0.81585 0.40819 0.0
N98 N 0.14384 0.82187 0.41539 0.0
C99 C 0.10125 0.84528 0.42303 0.0
C100 C 0.12906 0.88121 0.44423 0.0
H101 H 0.08728 0.78805 0.39182 0.0
H102 H 0.2491 0.95335 0.5045 0.0
H103 H 0.0757 0.64461 0.43693 0.0
H104 H 0.28933 0.92384 0.5025 0.0
H105 H 0.30051 0.87104 0.46752 0.0
H106 H 0.18832 0.94599 0.48777 0.0
H107 H 0.24563 0.72571 0.50547 0.0
H108 H 0.07186 0.53909 0.37986 0.0
H109 H 0.0405 0.57719 0.39983 0.0
H110 H 0.19598 0.5669 0.40821 0.0
H111 H 0.07365 0.84004 0.41899 0.0
H112 H 0.12257 0.90372 0.45679 0.0
H113 H 0.13024 0.53563 0.38232 0.0
H114 H 0.28134 0.6917 0.49585 0.0
N115 N 0.12719 0.64564 0.43717 0.0
C116 C 0.08757 0.56883 0.39632 0.0
C117 C 0.06979 0.59023 0.40755 0.0
C118 C 0.12531 0.58591 0.40763 0.0
C119 C 0.14446 0.62476 0.42886 0.0
C120 C 0.09002 0.62865 0.42865 0.0
N121 N 0.19813 0.67935 0.46444 0.0
C122 C 0.1813 0.64233 0.44253 0.0
C123 C 0.25326 0.6775 0.48037 0.0
C124 C 0.23703 0.63999 0.45469 0.0
C125 C 0.23302 0.69664 0.48579 0.0
C126 C 0.20033 0.62165 0.43634 0.0
H127 H 0.25269 0.62517 0.45056 0.0
O128 O 0.17769 0.72233 0.54891 0.0
O129 O 0.17619 0.76777 0.46335 0.0
O130 O 0.20482 0.7596 0.37085 0.0
O131 O 0.20996 0.72353 0.42186 0.0
O132 O 0.20907 0.76492 0.51377 0.0
O133 O 0.12219 0.68973 0.51956 0.0
O134 O 0.123 0.76292 0.32745 0.0
O135 O 0.14979 0.71809 0.39877 0.0
O136 O 0.11108 0.71144 0.4577 0.0
O137 O 0.11941 0.76771 0.44732 0.0
O138 O 0.11422 0.71726 0.34932 0.0
O139 O 0.18067 0.79602 0.32601 0.0
C140 C 0.20156 0.78756 0.49794 0.0
C141 C 0.18182 0.58324 0.41356 0.0
C142 C 0.14436 0.5654 0.39907 0.0
C143 C 0.14416 0.70322 0.55881 0.0
C144 C 0.13645 0.67684 0.59116 0.0
C145 C 0.1423 0.64604 0.57475 0.0
C146 C 0.12109 0.68038 0.63651 0.0
C147 C 0.11148 0.65286 0.66444 0.0
C148 C 0.13339 0.61939 0.60189 0.0
C149 C 0.11828 0.62268 0.64593 0.0
C150 C 0.22064 0.74208 0.3867 0.0
C151 C 0.12365 0.69668 0.36687 0.0
C152 C 0.14849 0.78289 0.3027 0.0
C153 C 0.14108 0.80858 0.27859 0.0
C154 C 0.14769 0.84346 0.30716 0.0
C155 C 0.12665 0.79913 0.22849 0.0
C156 C 0.11747 0.82371 0.20987 0.0
C157 C 0.13761 0.86651 0.28999 0.0
C158 C 0.12228 0.8566 0.24248 0.0
C159 C 0.10678 0.74117 0.47159 0.0
H160 H 0.15353 0.64237 0.54045 0.0
H161 H 0.11596 0.7038 0.64928 0.0
H162 H 0.13817 0.5958 0.58858 0.0
H163 H 0.11238 0.60152 0.66596 0.0
H164 H 0.16102 0.85335 0.34317 0.0
H165 H 0.12262 0.77318 0.20447 0.0
H166 H 0.14239 0.89285 0.3137 0.0
H167 H 0.11571 0.87586 0.2304 0.0
Gd168 Gd 0.63445 0.90689 0.63332 0.0
Gd169 Gd 0.53768 0.8627 0.59911 0.0
C170 C 0.45799 0.82262 0.71239 0.0
C171 C 0.42691 0.75511 0.68102 0.0
C172 C 0.47389 0.79538 0.6369 0.0
C173 C 0.47966 0.82653 0.67293 0.0
C174 C 0.44696 0.75934 0.64029 0.0
C175 C 0.43225 0.7867 0.71683 0.0
C176 C 0.46237 0.85496 0.74574 0.0
C177 C 0.48742 0.89011 0.73891 0.0
N178 N 0.50512 0.86089 0.66812 0.0
C179 C 0.50848 0.89261 0.69954 0.0
H180 H 0.5273 0.92 0.69442 0.0
C181 C 0.4849 0.77093 0.55842 0.0
N182 N 0.49323 0.80045 0.5974 0.0
C183 C 0.45869 0.73465 0.56049 0.0
C184 C 0.44016 0.72872 0.60192 0.0
H185 H 0.49918 0.77521 0.52629 0.0
H186 H 0.41586 0.78312 0.74735 0.0
H187 H 0.65532 0.84021 0.56157 0.0
H188 H 0.44618 0.85311 0.77639 0.0
H189 H 0.49054 0.91531 0.76392 0.0
H190 H 0.40647 0.72759 0.68449 0.0
H191 H 0.65481 0.99845 0.65173 0.0
H192 H 0.77012 0.89763 0.55405 0.0
H193 H 0.71105 0.83918 0.53761 0.0
H194 H 0.80445 0.02609 0.62258 0.0
H195 H 0.4525 0.71125 0.53002 0.0
H196 H 0.41984 0.70057 0.60324 0.0
H197 H 0.80481 0.96714 0.58705 0.0
H198 H 0.71027 0.05827 0.6648 0.0
N199 N 0.68138 0.89962 0.5919 0.0
C200 C 0.74537 0.8986 0.564 0.0
C201 C 0.71211 0.86556 0.55489 0.0
C202 C 0.74621 0.9326 0.58489 0.0
C203 C 0.71316 0.9324 0.59678 0.0
C204 C 0.68025 0.86647 0.56917 0.0
N205 N 0.68057 0.96531 0.62331 0.0
C206 C 0.71282 0.96609 0.6138 0.0
C207 C 0.71132 0.03266 0.64966 0.0
C208 C 0.7446 0.03364 0.64204 0.0
C209 C 0.67957 0.99828 0.64064 0.0
C210 C 0.74577 1.00036 0.62296 0.0
H211 H 0.76905 0.06024 0.65212 0.0
O212 O 0.64151 0.94974 0.6976 0.0
O213 O 0.5797 0.89315 0.66249 0.0
O214 O 0.57016 0.92357 0.63537 0.0
O215 O 0.61796 0.93777 0.59205 0.0
O216 O 0.61191 0.87633 0.69313 0.0
O217 O 0.67456 0.92025 0.69193 0.0
O218 O 0.4885 0.86753 0.59767 0.0
O219 O 0.59219 0.87836 0.56997 0.0
O220 O 0.61394 0.84464 0.61178 0.0
O221 O 0.55027 0.81828 0.61066 0.0
O222 O 0.54828 0.83951 0.52258 0.0
O223 O 0.5257 0.88488 0.54324 0.0
C224 C 0.5817 0.87775 0.69593 0.0
C225 C 0.77887 1.00028 0.61436 0.0
C226 C 0.77906 0.9666 0.59454 0.0
C227 C 0.66666 0.94548 0.71767 0.0
C228 C 0.68513 0.96793 0.76572 0.0
C229 C 0.69724 0.00657 0.7783 0.0
C230 C 0.68796 0.95013 0.80055 0.0
C231 C 0.70275 0.97072 0.84821 0.0
C232 C 0.71253 0.02734 0.82541 0.0
C233 C 0.71511 0.00956 0.86038 0.0
C234 C 0.59205 0.945 0.60869 0.0
C235 C 0.58377 0.85801 0.52619 0.0
C236 C 0.49588 0.88247 0.5609 0.0
C237 C 0.46546 0.87352 0.52722 0.0
C238 C 0.43103 0.84186 0.52319 0.0
C239 C 0.47232 0.89764 0.49701 0.0
C240 C 0.44833 0.8871 0.45637 0.0
C241 C 0.40453 0.83377 0.48676 0.0
C242 C 0.41333 0.8556 0.45262 0.0
C243 C 0.5811 0.81675 0.61458 0.0
H244 H 0.69481 0.02061 0.7518 0.0
H245 H 0.67767 0.92005 0.79086 0.0
H246 H 0.72232 0.05726 0.83482 0.0
H247 H 0.72735 0.02624 0.89663 0.0
H248 H 0.42491 0.82326 0.5473 0.0
H249 H 0.49866 0.92238 0.50165 0.0
H250 H 0.378 0.80917 0.483 0.0
H251 H 0.39371 0.84591 0.4216 0.0
Gd252 Gd 0.45034 0.25813 0.9284 0.0
Gd253 Gd 0.36732 0.17548 0.93054 0.0
C254 C 0.35137 0.07591 0.8088 0.0
C255 C 0.29509 0.06055 0.7646 0.0
C256 C 0.32429 0.11669 0.83086 0.0
C257 C 0.35159 0.10802 0.83872 0.0
C258 C 0.29551 0.09261 0.79386 0.0
C259 C 0.32299 0.05228 0.77193 0.0
C260 C 0.37937 0.06803 0.8172 0.0
C261 C 0.40703 0.09212 0.85409 0.0
N262 N 0.37802 0.1305 0.87588 0.0
C263 C 0.40616 0.12355 0.88265 0.0
H264 H 0.42922 0.14324 0.9079 0.0
C265 C 0.29601 0.1541 0.85626 0.0
N266 N 0.32474 0.14736 0.86069 0.0
C267 C 0.26735 0.1314 0.81982 0.0
C268 C 0.26714 0.1006 0.78834 0.0
H269 H 0.29341 0.17542 0.88258 0.0
H270 H 0.3222 0.02733 0.74915 0.0
H271 H 0.3896 0.28935 0.96747 0.0
H272 H 0.38017 0.04374 0.79501 0.0
H273 H 0.42946 0.08692 0.8598 0.0
H274 H 0.27311 0.04178 0.73637 0.0
H275 H 0.52847 0.26075 0.95215 0.0
H276 H 0.44799 0.39157 0.07472 0.0
H277 H 0.39125 0.34404 1.02326 0.0
H278 H 0.56657 0.40303 0.09492 0.0
H279 H 0.24473 0.13693 0.81719 0.0
H280 H 0.24446 0.08261 0.76077 0.0
H281 H 0.51348 0.41373 0.10033 0.0
H282 H 0.58693 0.30429 1.00332 0.0
N283 N 0.4444 0.30398 0.98785 0.0
C284 C 0.4473 0.36715 1.05057 0.0
C285 C 0.41524 0.34038 1.02165 0.0
C286 C 0.47813 0.36216 1.04791 0.0
C287 C 0.47581 0.32982 1.01595 0.0
C288 C 0.41438 0.30913 0.98994 0.0
N289 N 0.50238 0.2917 0.98317 0.0
C290 C 0.50568 0.3236 1.01332 0.0
C291 C 0.56391 0.30939 1.00772 0.0
C292 C 0.56793 0.34242 1.03865 0.0
C293 C 0.5309 0.2845 0.97939 0.0
C294 C 0.53859 0.34976 1.04208 0.0
H295 H 0.594 0.36262 0.05878 0.0
O296 O 0.50036 0.29439 0.90072 0.0
O297 O 0.41564 0.19939 0.88283 0.0
O298 O 0.40176 0.16625 0.97461 0.0
O299 O 0.45841 0.21855 0.97089 0.0
O300 O 0.4675 0.23032 0.86317 0.0
O301 O 0.45179 0.30281 0.89969 0.0
O302 O 0.31401 0.16171 0.95527 0.0
O303 O 0.40577 0.23481 0.97248 0.0
O304 O 0.40369 0.2533 0.8807 0.0
O305 O 0.35386 0.21804 0.91755 0.0
O306 O 0.37761 0.2009 1.01504 0.0
O307 O 0.33544 0.12286 0.95084 0.0
C308 C 0.43752 0.19932 0.84867 0.0
C309 C 0.54131 0.38244 0.07296 0.0
C310 C 0.5111 0.38854 0.07602 0.0
C311 C 0.48644 0.3154 0.89357 0.0
C312 C 0.50703 0.34809 0.87366 0.0
C313 C 0.53758 0.3803 0.90018 0.0
C314 C 0.49273 0.34899 0.83057 0.0
C315 C 0.50893 0.38145 0.81321 0.0
C316 C 0.55492 0.41232 0.88162 0.0
C317 C 0.54066 0.41294 0.83789 0.0
C318 C 0.43623 0.18794 0.98843 0.0
C319 C 0.40218 0.23522 1.0177 0.0
C320 C 0.31023 0.1315 0.96651 0.0
C321 C 0.30034 0.12808 1.01598 0.0
C322 C 0.27163 0.13446 1.03324 0.0
C323 C 0.31949 0.1192 1.04651 0.0
C324 C 0.30936 0.11595 0.09335 0.0
C325 C 0.2622 0.13218 0.08031 0.0
C326 C 0.28084 0.12284 0.1102 0.0
C327 C 0.36883 0.24017 0.88821 0.0
H328 H 0.54715 0.38125 0.93584 0.0
H329 H 0.46823 0.32459 0.81101 0.0
H330 H 0.57873 0.43697 0.90181 0.0
H331 H 0.55361 0.43801 0.82414 0.0
H332 H 0.2566 0.14139 1.01034 0.0
H333 H 0.34151 0.11384 1.03368 0.0
H334 H 0.24015 0.1373 0.09348 0.0
H335 H 0.27275 0.12058 0.1464 0.0
Gd336 Gd 0.98541 0.82707 0.89271 0.0
Gd337 Gd 0.07724 0.88175 0.87084 0.0
C338 C 0.16861 0.89784 0.97568 0.0
C339 C 0.19159 0.96195 1.02143 0.0
C340 C 0.13863 0.93285 0.96134 0.0
C341 C 0.14016 0.89947 0.95161 0.0
C342 C 0.1654 0.96476 0.99522 0.0
C343 C 0.19318 0.92858 1.01168 0.0
C344 C 0.1735 0.86646 0.96045 0.0
C345 C 0.15158 0.83838 0.92084 0.0
N346 N 0.11721 0.87044 0.91468 0.0
C347 C 0.12381 0.84097 0.89819 0.0
H348 H 0.10947 0.82029 0.86592 0.0
C349 C 0.12003 0.97096 0.933 0.0
N350 N 0.11474 0.93586 0.93309 0.0
C351 C 0.14504 0.00278 0.96685 0.0
C352 C 0.16734 0.99956 0.99889 0.0
H353 H 0.10586 0.97515 0.90566 0.0
H354 H 0.21486 0.92749 1.03035 0.0
H355 H 0.98691 0.89735 0.85123 0.0
H356 H 0.19521 0.86446 0.97751 0.0
H357 H 0.15675 0.81511 0.90696 0.0
H358 H 0.21216 0.98615 1.04733 0.0
H359 H 0.94743 0.73516 0.88744 0.0
H360 H 0.89167 0.84952 0.75153 0.0
H361 H 0.94753 0.90497 0.79595 0.0
H362 H 0.83471 0.71868 0.7478 0.0
H363 H 0.14808 0.03002 0.96683 0.0
H364 H 0.18772 0.02457 1.02392 0.0
H365 H 0.84962 0.78026 0.73437 0.0
H366 H 0.89219 0.67703 0.84624 0.0
N367 N 0.95516 0.83794 0.83498 0.0
C368 C 0.90925 0.84591 0.7749 0.0
C369 C 0.94083 0.8773 0.79978 0.0
C370 C 0.90027 0.81035 0.78121 0.0
C371 C 0.92393 0.80712 0.8122 0.0
C372 C 0.9633 0.87289 0.83052 0.0
N373 N 0.93829 0.76957 0.85045 0.0
C374 C 0.91527 0.77211 0.82016 0.0
C375 C 0.89853 0.70351 0.8383 0.0
C376 C 0.87508 0.70528 0.8059 0.0
C377 C 0.92992 0.73625 0.86105 0.0
C378 C 0.88307 0.73987 0.79686 0.0
H379 H 0.85063 0.67989 0.7886 0.0
O380 O 0.94501 0.80014 0.94071 0.0
O381 O 0.04293 0.85512 0.93036 0.0
O382 O 0.06109 0.82142 0.8328 0.0
O383 O -0.00091 0.78628 0.84293 0.0
O384 O 0.00778 0.80018 0.93295 0.0
O385 O 0.94937 0.84951 0.91964 0.0
O386 O 0.10176 0.92727 0.83362 0.0
O387 O 0.0194 0.85578 0.83866 0.0
O388 O 0.01091 0.88285 0.94809 0.0
O389 O 0.0513 0.91857 0.90144 0.0
O390 O 0.05677 0.86118 0.78951 0.0
O391 O 0.12913 0.89501 0.8425 0.0
C392 C 0.04015 0.82813 0.94867 0.0
C393 C 0.85965 0.74313 0.76581 0.0
C394 C 0.86818 0.77823 0.75811 0.0
C395 C 0.9305 0.82176 0.93973 0.0
C396 C 0.90575 0.82477 0.97522 0.0
C397 C 0.87229 0.82114 0.95965 0.0
C398 C 0.91571 0.83267 1.02438 0.0
C399 C 0.89218 0.83636 0.05838 0.0
C400 C 0.84882 0.82504 0.99368 0.0
C401 C 0.85866 0.83247 1.04325 0.0
C402 C 0.0293 0.78991 0.82296 0.0
C403 C 0.02224 0.84876 0.7925 0.0
C404 C 0.13097 0.92339 0.82802 0.0
C405 C 0.15444 0.93664 0.78976 0.0
C406 C 0.16524 0.97299 0.78474 0.0
C407 C 0.16879 0.91526 0.76128 0.0
C408 C 0.19326 0.93011 0.72746 0.0
C409 C 0.18965 0.98774 0.75125 0.0
C410 C 0.20349 0.96639 0.72255 0.0
C411 C 0.03207 0.91588 0.93937 0.0
H412 H 0.86441 0.81537 0.92131 0.0
H413 H 0.94178 0.83589 1.03632 0.0
H414 H 0.823 0.82213 0.98162 0.0
H415 H 0.84018 0.83466 0.0695 0.0
H416 H 0.15501 0.99013 0.80709 0.0
H417 H 0.16024 0.88693 0.7643 0.0
H418 H 0.19751 0.0156 0.74715 0.0
H419 H 0.22146 0.97773 0.69551 0.0
Gd420 Gd 0.44291 0.72805 0.21569 0.0
Gd421 Gd 0.44129 0.79603 0.14388 0.0
C422 C 0.49147 0.92133 0.21509 0.0
C423 C 0.43825 0.93068 0.2183 0.0
C424 C 0.43214 0.86939 0.18171 0.0
C425 C 0.46899 0.8833 0.1919 0.0
C426 C 0.41644 0.89313 0.19321 0.0
C427 C 0.47575 0.94476 0.22929 0.0
C428 C 0.52904 0.93465 0.22273 0.0
C429 C 0.54332 0.91042 0.20607 0.0
N430 N 0.48293 0.85955 0.17857 0.0
C431 C 0.51979 0.87287 0.18332 0.0
H432 H 0.53108 0.85431 0.17094 0.0
C433 C 0.37706 0.81966 0.13904 0.0
N434 N 0.412 0.83297 0.15799 0.0
C435 C 0.36006 0.84198 0.14955 0.0
C436 C 0.37961 0.87866 0.17773 0.0
H437 H 0.36191 0.79124 0.11738 0.0
H438 H 0.49245 0.97395 0.24779 0.0
H439 H 0.35031 0.68889 0.20363 0.0
H440 H 0.54728 0.96366 0.24054 0.0
H441 H 0.57242 0.92058 0.21098 0.0
H442 H 0.42659 0.94925 0.22826 0.0
H443 H 0.51258 0.71039 0.22057 0.0
H444 H 0.30861 0.5781 0.11789 0.0
H445 H 0.29844 0.62978 0.16165 0.0
H446 H 0.4121 0.55825 0.10393 0.0
H447 H 0.33191 0.83084 0.13602 0.0
H448 H 0.36644 0.89593 0.18586 0.0
H449 H 0.35105 0.55172 0.09352 0.0
H450 H 0.52304 0.65551 0.19716 0.0
N451 N 0.39004 0.67119 0.18344 0.0
C452 C 0.33135 0.6036 0.13679 0.0
C453 C 0.32566 0.6329 0.16162 0.0
C454 C 0.3664 0.60767 0.13657 0.0
C455 C 0.39565 0.64228 0.16074 0.0
C456 C 0.35547 0.66663 0.18528 0.0
N457 N 0.45806 0.68032 0.18735 0.0
C458 C 0.43048 0.64666 0.16377 0.0
C459 C 0.49741 0.65318 0.18615 0.0
C460 C 0.47037 0.61932 0.15782 0.0
C461 C 0.49119 0.68393 0.19968 0.0
C462 C 0.43641 0.61578 0.14603 0.0
H463 H 0.47566 0.59587 0.14644 0.0
O464 O 0.47636 0.73365 0.2794 0.0
O465 O 0.45957 0.78619 0.21079 0.0
O466 O 0.48922 0.78488 0.14206 0.0
O467 O 0.47289 0.72502 0.14897 0.0
O468 O 0.4971 0.77956 0.24699 0.0
O469 O 0.41858 0.71012 0.28116 0.0
O470 O 0.42366 0.78938 0.06772 0.0
O471 O 0.42285 0.73755 0.14853 0.0
O472 O 0.40047 0.746 0.23988 0.0
O473 O 0.39899 0.7882 0.19697 0.0
O474 O 0.38958 0.74456 0.10613 0.0
O475 O 0.48015 0.81718 0.09235 0.0
C476 C 0.4898 0.80401 0.23622 0.0
C477 C 0.4078 0.58193 0.11929 0.0
C478 C 0.37294 0.57813 0.11375 0.0
C479 C 0.44912 0.71825 0.30478 0.0
C480 C 0.44891 0.68998 0.33164 0.0
C481 C 0.4299 0.65196 0.30789 0.0
C482 C 0.46612 0.6995 0.38041 0.0
C483 C 0.46363 0.67097 0.40431 0.0
C484 C 0.42751 0.62442 0.33024 0.0
C485 C 0.44398 0.63359 0.3771 0.0
C486 C 0.48827 0.75227 0.12577 0.0
C487 C 0.3955 0.71909 0.11671 0.0
C488 C 0.45682 0.8067 1.05554 0.0
C489 C 0.46578 0.83439 1.02513 0.0
C490 C 0.46326 0.86697 1.04387 0.0
C491 C 0.47978 0.83011 0.97908 0.0
C492 C 0.49115 0.8584 0.95228 0.0
C493 C 0.47403 0.8946 1.01786 0.0
C494 C 0.48771 0.89044 0.97281 0.0
C495 C 0.38729 0.76735 0.22933 0.0
H496 H 0.41661 0.64335 0.27153 0.0
H497 H 0.48084 0.72871 0.39958 0.0
H498 H 0.41275 0.59529 0.3107 0.0
H499 H 0.44186 0.61075 0.39136 0.0
H500 H 0.45328 0.87123 0.07901 0.0
H501 H 0.48251 0.80531 0.96483 0.0
H502 H 0.47181 0.9196 1.03282 0.0
H503 H 0.49504 0.91235 0.95364 0.0
Gd504 Gd 0.56079 0.13735 0.52618 0.0
Gd505 Gd 0.46854 0.08724 0.46814 0.0
C506 C 0.35096 0.05093 0.49461 0.0
C507 C 0.32408 0.98425 0.46014 0.0
C508 C 0.39002 0.02231 0.47543 0.0
C509 C 0.38615 0.05426 0.49099 0.0
C510 C 0.35872 0.98681 0.461 0.0
C511 C 0.32005 0.01584 0.47865 0.0
C512 C 0.34775 0.08332 0.5106 0.0
C513 C 0.37897 0.11818 0.51978 0.0
N514 N 0.4163 0.08857 0.49871 0.0
C515 C 0.41294 0.12032 0.51193 0.0
H516 H 0.43587 0.14761 0.51456 0.0
C517 C 0.42826 0.99523 0.45185 0.0
N518 N 0.42398 0.02612 0.46988 0.0
C519 C 0.39815 0.95934 0.44174 0.0
C520 C 0.36316 0.95515 0.44485 0.0
H521 H 0.45475 0.99839 0.44314 0.0
H522 H 0.29295 0.01311 0.47836 0.0
H523 H 0.58505 0.06955 0.48014 0.0
H524 H 0.32123 0.08177 0.5142 0.0
H525 H 0.37671 0.14352 0.53051 0.0
H526 H 0.30027 0.95824 0.4436 0.0
H527 H 0.6089 0.23265 0.56525 0.0
H528 H 0.64774 0.09949 0.36143 0.0
H529 H 0.61496 0.05357 0.41078 0.0
H530 H 0.68271 0.2292 0.38542 0.0
H531 H 0.40173 0.93512 0.4287 0.0
H532 H 0.33983 0.92749 0.43338 0.0
H533 H 0.67196 0.16502 0.35128 0.0
H534 H 0.65276 0.28616 0.53333 0.0
N535 N 0.59522 0.12166 0.46654 0.0
C536 C 0.63347 0.10615 0.39112 0.0
C537 C 0.61486 0.08011 0.41865 0.0
C538 C 0.63572 0.14152 0.40467 0.0
C539 C 0.61667 0.14878 0.44376 0.0
C540 C 0.59679 0.08886 0.45728 0.0
N541 N 0.60698 0.1913 0.50395 0.0
C542 C 0.62273 0.1848 0.46307 0.0
C543 C 0.64435 0.25779 0.51302 0.0
C544 C 0.65776 0.25132 0.46838 0.0
C545 C 0.61954 0.22736 0.53096 0.0
C546 C 0.64794 0.21455 0.44359 0.0
H547 H 0.67691 0.27491 0.45451 0.0
O548 O 0.60874 0.17023 0.57659 0.0
O549 O 0.50186 0.11923 0.54182 0.0
O550 O 0.48811 0.14873 0.48382 0.0
O551 O 0.54808 0.18232 0.52129 0.0
O552 O 0.53986 0.14981 0.59996 0.0
O553 O 0.57912 0.10891 0.56658 0.0
O554 O 0.45746 0.05932 0.39247 0.0
O555 O 0.52786 0.12153 0.45496 0.0
O556 O 0.53286 0.07506 0.49784 0.0
O557 O 0.47493 0.05491 0.51757 0.0
O558 O 0.50058 0.0701 0.40998 0.0
O559 O 0.43442 0.0961 0.41999 0.0
C560 C 0.50508 0.13321 0.58839 0.0
C561 C 0.66401 0.20683 0.40159 0.0
C562 C 0.65791 0.17031 0.38214 0.0
C563 C 0.60805 0.14073 0.58582 0.0
C564 C 0.6364 0.14479 0.61972 0.0
C565 C 0.66756 0.17978 0.63609 0.0
C566 C 0.63287 0.1137 0.63511 0.0
C567 C 0.65821 0.11794 0.67106 0.0
C568 C 0.6945 0.18379 0.66827 0.0
C569 C 0.68998 0.15339 0.6859 0.0
C570 C 0.5191 0.17996 0.50019 0.0
C571 C 0.53013 0.10189 0.41492 0.0
C572 C 0.43605 0.07212 0.3827 0.0
C573 C 0.40249 0.04392 0.35095 0.0
C574 C 0.38859 0.0055 0.34821 0.0
C575 C 0.3878 0.05471 0.31738 0.0
C576 C 0.35993 0.02741 0.28108 0.0
C577 C 0.36021 0.97846 0.31371 0.0
C578 C 0.34611 0.98923 0.28 0.0
C579 C 0.5048 0.05209 0.51643 0.0
H580 H 0.67116 0.20409 0.62405 0.0
H581 H 0.60891 0.08673 0.62172 0.0
H582 H 0.71833 0.21093 0.68112 0.0
H583 H 0.71046 0.15883 0.71362 0.0
H584 H 0.40076 0.99609 0.37103 0.0
H585 H 0.39885 0.08424 0.31867 0.0
H586 H 0.35008 0.94901 0.31195 0.0
H587 H 0.32518 0.96755 0.25216 0.0
Gd588 Gd 0.21598 0.32105 0.68021 0.0
Gd589 Gd 0.14726 0.23368 0.69226 0.0
C590 C 0.12415 0.12026 0.59868 0.0
C591 C 0.06156 0.09442 0.56534 0.0
C592 C 0.09369 0.15803 0.61591 0.0
C593 C 0.12441 0.1541 0.62154 0.0
C594 C 0.06205 0.12826 0.58731 0.0
C595 C 0.09248 0.09039 0.57113 0.0
C596 C 0.15598 0.11762 0.60341 0.0
C597 C 0.1872 0.14836 0.62983 0.0
N598 N 0.15499 0.1837 0.64772 0.0
C599 C 0.18618 0.18121 0.65199 0.0
H600 H 0.21057 0.20422 0.67205 0.0
C601 C 0.06395 0.19463 0.63609 0.0
N602 N 0.09444 0.19057 0.63904 0.0
C603 C 0.03277 0.1667 0.60606 0.0
C604 C 0.03162 0.13319 0.58204 0.0
H605 H 0.0641 0.21992 0.65638 0.0
H606 H 0.09177 0.06417 0.55367 0.0
H607 H 0.14171 0.33797 0.68174 0.0
H608 H 0.15689 0.0922 0.58625 0.0
H609 H 0.21211 0.14678 0.63323 0.0
H610 H 0.03737 0.07116 0.54375 0.0
H611 H 0.29482 0.34136 0.74251 0.0
H612 H 0.17218 0.43989 0.78702 0.0
H613 H 0.12857 0.38753 0.72209 0.0
H614 H 0.28525 0.46865 0.86586 0.0
H615 H 0.00918 0.17057 0.60266 0.0
H616 H 0.00695 0.11112 0.56009 0.0
H617 H 0.23018 0.46959 0.84026 0.0
H618 H 0.33692 0.38861 0.81023 0.0
N619 N 0.19374 0.36128 0.72222 0.0
C620 C 0.17845 0.41801 0.76929 0.0
C621 C 0.15382 0.38855 0.7326 0.0
C622 C 0.2103 0.41828 0.78383 0.0
C623 C 0.21702 0.38873 0.76017 0.0
C624 C 0.16186 0.36042 0.70927 0.0
N625 N 0.25435 0.35934 0.75237 0.0
C626 C 0.24781 0.3876 0.77572 0.0
C627 C 0.31157 0.38818 0.80181 0.0
C628 C 0.30465 0.41642 0.8271 0.0
C629 C 0.28653 0.3603 0.76397 0.0
C630 C 0.27282 0.41672 0.81393 0.0
H631 H 0.32462 0.43853 0.85569 0.0
O632 O 0.27145 0.34506 0.65939 0.0
O633 O 0.18993 0.25914 0.64324 0.0
O634 O 0.2001 0.249 0.73521 0.0
O635 O 0.24403 0.29043 0.6967 0.0
O636 O 0.21217 0.29468 0.59899 0.0
O637 O 0.23939 0.37335 0.65853 0.0
O638 O 0.10013 0.20407 0.72975 0.0
O639 O 0.17935 0.29338 0.73801 0.0
O640 O 0.16955 0.31051 0.63023 0.0
O641 O 0.12901 0.24814 0.62935 0.0
O642 O 0.12397 0.27026 0.73201 0.0
O643 O 0.15093 0.2036 0.74292 0.0
C644 C 0.19479 0.25924 0.5977 0.0
C645 C 0.26619 0.4461 0.8368 0.0
C646 C 0.23499 0.44679 0.82196 0.0
C647 C 0.26911 0.37205 0.64648 0.0
C648 C 0.28002 0.37795 0.59809 0.0
C649 C 0.31152 0.37686 0.58189 0.0
C650 C 0.25932 0.38532 0.56805 0.0
C651 C 0.27016 0.39235 0.5227 0.0
C652 C 0.32207 0.383 0.53625 0.0
C653 C 0.30166 0.39087 0.50683 0.0
C654 C 0.23447 0.26847 0.72675 0.0
C655 C 0.15301 0.29803 0.75759 0.0
C656 C 0.11659 0.19017 0.75039 0.0
C657 C 0.09713 0.15029 0.75077 0.0
C658 C 0.06562 0.12355 0.71993 0.0
C659 C 0.11049 0.13937 0.78527 0.0
C660 C 0.09237 0.10254 0.79061 0.0
C661 C 0.04768 0.08638 0.72454 0.0
C662 C 0.06066 0.07593 0.76038 0.0
C663 C 0.13993 0.27844 0.6123 0.0
H664 H 0.32796 0.37134 0.60452 0.0
H665 H 0.23468 0.38575 0.57992 0.0
H666 H 0.34641 0.38218 0.52393 0.0
H667 H 0.31107 0.39672 0.47227 0.0
H668 H 0.0546 0.1313 0.69303 0.0
H669 H 0.13427 0.16026 0.81004 0.0
H670 H 0.02317 0.06591 0.70111 0.0
H671 H 0.04574 0.04759 0.76516 0.0
Gd672 Gd 0.94801 0.24228 0.73432 0.0
Gd673 Gd 0.94431 0.30421 0.65161 0.0
C674 C 0.96567 0.42512 0.7068 0.0
C675 C 0.90659 0.41933 0.68776 0.0
C676 C 0.91545 0.36449 0.66773 0.0
C677 C 0.95136 0.38628 0.68692 0.0
C678 C 0.89283 0.38093 0.66694 0.0
C679 C 0.94291 0.44137 0.70793 0.0
C680 C 0.00263 0.44663 0.72394 0.0
C681 C 0.02459 0.42958 0.7195 0.0
N682 N 0.97262 0.3697 0.68488 0.0
C683 C 0.00922 0.39109 0.69915 0.0
H684 H 0.02677 0.37868 0.69637 0.0
C685 C 0.86945 0.30623 0.6221 0.0
N686 N 0.90316 0.32756 0.64753 0.0
C687 C 0.84594 0.32121 0.6205 0.0
C688 C 0.85745 0.35856 0.64377 0.0
H689 H 0.86026 0.27734 0.60384 0.0
H690 H 0.95337 0.47109 0.72322 0.0
H691 H 0.85259 0.19465 0.71853 0.0
H692 H 0.01461 0.47648 0.73965 0.0
H693 H 0.05338 0.44602 0.73181 0.0
H694 H 0.88959 0.43238 0.68737 0.0
H695 H 0.02048 0.22973 0.74263 0.0
H696 H 0.82115 0.08839 0.62368 0.0
H697 H 0.80526 0.1357 0.67016 0.0
H698 H 0.92742 0.07465 0.62953 0.0
H699 H 0.81894 0.30389 0.6014 0.0
H700 H 0.83922 0.37012 0.64244 0.0
H701 H 0.86603 0.0649 0.61061 0.0
H702 H 0.03276 0.17648 0.72883 0.0
N703 N 0.8967 0.18306 0.69946 0.0
C704 C 0.84193 0.11399 0.64679 0.0
C705 C 0.83322 0.14096 0.67206 0.0
C706 C 0.87764 0.12033 0.65138 0.0
C707 C 0.905 0.15584 0.67735 0.0
C708 C 0.86086 0.17513 0.69913 0.0
N709 N 0.96691 0.19731 0.7061 0.0
C710 C 0.94064 0.16262 0.6827 0.0
C711 C 0.00736 0.17257 0.71391 0.0
C712 C 0.98189 0.13765 0.68599 0.0
C713 C 8e-05 0.2026 0.72191 0.0
C714 C 0.94836 0.13253 0.66898 0.0
H715 H 0.9881 0.1147 0.67854 0.0
O716 O 0.98298 0.24952 0.79752 0.0
O717 O 0.95836 0.2976 0.72321 0.0
O718 O -0.00243 0.31241 0.68074 0.0
O719 O -0.00602 0.25661 0.68487 0.0
O720 O 0.97925 0.29877 0.78863 0.0
O721 O 0.92469 0.21926 0.79708 0.0
O722 O 0.94056 0.28283 0.57279 0.0
O723 O 0.93464 0.24821 0.66041 0.0
O724 O 0.90013 0.25321 0.7459 0.0
O725 O 0.89699 0.29163 0.69702 0.0
O726 O 0.89785 0.24819 0.61367 0.0
O727 O 0.98427 0.33633 0.60512 0.0
C728 C 0.97386 0.31849 0.76402 0.0
C729 C 0.92157 0.09766 0.64176 0.0
C730 C 0.88653 0.09199 0.63152 0.0
C731 C 0.95605 0.22978 0.8209 0.0
C732 C 0.95914 0.20128 0.84431 0.0
C733 C 0.94395 0.16424 0.81682 0.0
C734 C 0.97518 0.20921 0.89341 0.0
C735 C 0.97522 0.17999 0.91366 0.0
C736 C 0.94441 0.13625 0.83548 0.0
C737 C 0.95965 0.14385 0.88256 0.0
C738 C 0.00855 0.28751 0.66826 0.0
C739 C 0.90713 0.22671 0.62958 0.0
C740 C 0.96809 0.3125 0.56418 0.0
C741 C 0.96151 0.32731 0.52326 0.0
C742 C 0.92902 0.32916 0.521 0.0
C743 C 0.98575 0.33865 0.48601 0.0
C744 C 0.97687 0.35185 0.44799 0.0
C745 C 0.91991 0.34095 0.48374 0.0
C746 C 0.94321 0.35188 0.44781 0.0
C747 C 0.88488 0.27104 0.72977 0.0
H748 H 0.93128 0.15665 0.78038 0.0
H749 H 0.9869 0.23753 0.91568 0.0
H750 H 0.9327 0.108 0.81294 0.0
H751 H 0.9598 0.12087 0.89407 0.0
H752 H 0.91009 0.32085 0.54797 0.0
H753 H 0.01117 0.33775 0.48706 0.0
H754 H 0.89437 0.34159 0.48264 0.0
H755 H 0.93464 0.36052 0.41936 0.0
Gd756 Gd 0.71139 0.82479 0.1834 0.0
Gd757 Gd 0.64253 0.73045 0.18426 0.0
C758 C 0.65269 0.64142 0.07252 0.0
C759 C 0.5903 0.60258 1.03531 0.0
C760 C 0.60736 0.66163 0.094 0.0
C761 C 0.64277 0.66712 0.10071 0.0
C762 C 0.5809 0.62919 0.06116 0.0
C763 C 0.62613 0.60881 1.04065 0.0
C764 C 0.68936 0.65001 0.07567 0.0
C765 C 0.71527 0.68393 0.10539 0.0
N766 N 0.66809 0.69896 0.13173 0.0
C767 C 0.70414 0.70826 0.13333 0.0
H768 H 0.72458 0.73445 0.15566 0.0
C769 C 0.56413 0.68268 0.11445 0.0
N770 N 0.59897 0.68803 0.11913 0.0
C771 C 0.53721 0.65101 0.08218 0.0
C772 C 0.54559 0.62419 1.05543 0.0
H773 H 0.55678 0.70235 0.13672 0.0
H774 H 0.6332 0.58857 1.01919 0.0
H775 H 0.64129 0.84542 0.21475 0.0
H776 H 0.6981 0.63119 1.05418 0.0
H777 H 0.74383 0.6913 0.10699 0.0
H778 H 0.57022 0.5774 1.01026 0.0
H779 H 0.79581 0.84168 0.22088 0.0
H780 H 0.69156 0.95748 0.30168 0.0
H781 H 0.63668 0.90036 0.25839 0.0
H782 H 0.8164 0.98876 0.32908 0.0
H783 H 0.50976 0.64688 0.07859 0.0
H784 H 0.52449 0.59954 1.03079 0.0
H785 H 0.75847 0.99026 0.32742 0.0
H786 H 0.85175 0.8959 0.26344 0.0
N787 N 0.69917 0.87119 0.23072 0.0
C788 C 0.69399 0.93341 0.28222 0.0
C789 C 0.66298 0.90127 0.2576 0.0
C790 C 0.72753 0.9337 0.28287 0.0
C791 C 0.72918 0.90138 0.25771 0.0
C792 C 0.66596 0.87022 0.23204 0.0
N793 N 0.76192 0.8673 0.24045 0.0
C794 C 0.76133 0.89946 0.26228 0.0
C795 C 0.82639 0.897 0.26441 0.0
C796 C 0.82593 0.92978 0.28733 0.0
C797 C 0.7942 0.86604 0.24092 0.0
C798 C 0.79327 0.93129 0.28727 0.0
H799 H 0.85112 0.95405 0.30375 0.0
O800 O 0.76014 0.83407 0.14713 0.0
O801 O 0.68084 0.76468 0.13706 0.0
O802 O 0.69144 0.73911 0.22852 0.0
O803 O 0.73273 0.80136 0.23115 0.0
O804 O 0.70679 0.80468 0.10126 0.0
O805 O 0.73991 0.87506 0.15725 0.0
O806 O 0.59048 0.6962 0.20899 0.0
O807 O 0.66943 0.79063 0.23015 0.0
O808 O 0.662 0.81965 0.14755 0.0
O809 O 0.61931 0.75635 0.143 0.0
O810 O 0.62675 0.75181 0.25657 0.0
O811 O 0.63322 0.67958 0.2036 0.0
C812 C 0.6855 0.76918 0.0929 0.0
C813 C 0.79207 0.96407 0.30998 0.0
C814 C 0.75915 0.96504 0.30859 0.0
C815 C 0.76523 0.86645 0.1411 0.0
C816 C 0.7809 0.87759 0.09705 0.0
C817 C 0.81846 0.8909 0.09486 0.0
C818 C 0.75998 0.87755 0.05901 0.0
C819 C 0.77666 0.89028 1.01847 0.0
C820 C 0.83507 0.90348 1.05468 0.0
C821 C 0.81432 0.90304 1.01654 0.0
C822 C 0.72303 0.7697 0.24369 0.0
C823 C 0.65091 0.78664 0.26805 0.0
C824 C 0.59907 0.67002 0.21029 0.0
C825 C 0.58146 0.64521 0.24258 0.0
C826 C 0.55803 0.60704 0.22229 0.0
C827 C 0.59007 0.65822 0.29266 0.0
C828 C 0.57629 0.63291 0.32253 0.0
C829 C 0.5439 0.58184 0.25212 0.0
C830 C 0.55336 0.59463 0.30219 0.0
C831 C 0.63072 0.78898 0.13119 0.0
H832 H 0.83502 0.89184 0.12452 0.0
H833 H 0.73108 0.86813 0.06115 0.0
H834 H 0.86414 0.91395 1.05334 0.0
H835 H 0.82795 0.91376 0.98616 0.0
H836 H 0.5514 0.59664 0.18331 0.0
H837 H 0.60889 0.68761 0.30808 0.0
H838 H 0.52631 0.55231 0.23631 0.0
H839 H 0.54323 0.57477 0.32495 0.0
Gd840 Gd 0.65931 0.21391 0.96228 0.0
Gd841 Gd 0.65511 0.27517 0.87645 0.0
C842 C 0.73543 0.39556 0.95707 0.0
C843 C 0.69459 0.41997 0.98708 0.0
C844 C 0.67004 0.35587 0.93853 0.0
C845 C 0.70511 0.36092 0.93415 0.0
C846 C 0.66471 0.38625 0.96237 0.0
C847 C 0.72987 0.42447 0.98489 0.0
C848 C 0.77054 0.40028 0.95126 0.0
C849 C 0.77491 0.37157 0.92145 0.0
N850 N 0.70969 0.33248 0.90666 0.0
C851 C 0.7442 0.3381 0.89862 0.0
H852 H 0.74896 0.31741 0.87445 0.0
C853 C 0.60797 0.32012 0.90825 0.0
N854 N 0.64136 0.32254 0.91572 0.0
C855 C 0.60184 0.34991 0.92927 0.0
C856 C 0.62986 0.38263 0.95815 0.0
H857 H 0.586 0.29524 0.88523 0.0
H858 H 0.75279 0.45089 1.00344 0.0
H859 H 0.57094 0.14694 0.92934 0.0
H860 H 0.79442 0.4262 0.96881 0.0
H861 H 0.80201 0.37529 0.91568 0.0
H862 H 0.69083 0.44318 1.00662 0.0
H863 H 0.74094 0.22886 1.00054 0.0
H864 H 0.56729 0.04147 0.87587 0.0
H865 H 0.53592 0.07963 0.89392 0.0
H866 H 0.6909 0.0693 0.90744 0.0
H867 H 0.57513 0.3469 0.92383 0.0
H868 H 0.62469 0.40545 0.97511 0.0
H869 H 0.62545 0.03801 0.88013 0.0
H870 H 0.7761 0.19437 0.99381 0.0
N871 N 0.62268 0.14853 0.93012 0.0
C872 C 0.58301 0.07134 0.8915 0.0
C873 C 0.56523 0.09275 0.90156 0.0
C874 C 0.62071 0.08855 0.90322 0.0
C875 C 0.6399 0.12758 0.9235 0.0
C876 C 0.58546 0.1313 0.92154 0.0
N877 N 0.69372 0.18245 0.95905 0.0
C878 C 0.67671 0.1452 0.93797 0.0
C879 C 0.74823 0.18025 0.97757 0.0
C880 C 0.73196 0.14258 0.95259 0.0
C881 C 0.72832 0.19968 0.98132 0.0
C882 C 0.69547 0.12432 0.93339 0.0
H883 H 0.74739 0.12757 0.94971 0.0
O884 O 0.67071 0.23503 1.04176 0.0
O885 O 0.66881 0.26926 0.9507 0.0
O886 O 0.6993 0.2586 0.86021 0.0
O887 O 0.70483 0.22438 0.91411 0.0
O888 O 0.70737 0.26918 0.99592 0.0
O889 O 0.62126 0.18549 1.0138 0.0
O890 O 0.61855 0.26808 0.81536 0.0
O891 O 0.64347 0.21964 0.89016 0.0
O892 O 0.60728 0.21214 0.95189 0.0
O893 O 0.60668 0.25887 0.91872 0.0
O894 O 0.61727 0.21783 0.82839 0.0
O895 O 0.67541 0.30096 0.81344 0.0
C896 C 0.69764 0.29016 0.97935 0.0
C897 C 0.67692 0.08576 0.91141 0.0
C898 C 0.63961 0.06791 0.89616 0.0
C899 C 0.64149 0.20815 1.05336 0.0
C900 C 0.64583 0.19182 0.09495 0.0
C901 C 0.67899 0.1918 0.1009 0.0
C902 C 0.6194 0.17808 0.13002 0.0
C903 C 0.6273 0.1652 0.16978 0.0
C904 C 0.68703 0.18045 0.13951 0.0
C905 C 0.66209 0.16792 0.17331 0.0
C906 C 0.7151 0.24182 0.87798 0.0
C907 C 0.62164 0.19768 0.85345 0.0
C908 C 0.64334 0.28925 0.79088 0.0
C909 C 0.63539 0.31727 0.77148 0.0
C910 C 0.63621 0.34654 0.80736 0.0
C911 C 0.62489 0.31555 0.72103 0.0
C912 C 0.61291 0.3414 0.71003 0.0
C913 C 0.62088 0.36783 0.79826 0.0
C914 C 0.60795 0.36397 0.75154 0.0
C915 C 0.59287 0.23178 0.94168 0.0
H916 H 0.69946 0.20134 0.0758 0.0
H917 H 0.5932 0.17699 0.12599 0.0
H918 H 0.71316 0.18134 0.14333 0.0
H919 H 0.6701 0.15948 0.2025 0.0
H920 H 0.6477 0.35228 0.84366 0.0
H921 H 0.62629 0.295 0.69147 0.0
H922 H 0.61894 0.38785 0.82817 0.0
H923 H 0.59475 0.38038 0.74842 0.0
Gd924 Gd 0.95294 0.777 0.43052 0.0
Gd925 Gd 0.88057 0.68419 0.43315 0.0
C926 C 0.86362 0.57403 0.33415 0.0
C927 C 0.79897 0.54369 0.30758 0.0
C928 C 0.83 0.60824 0.35544 0.0
C929 C 0.86207 0.60641 0.35941 0.0
C930 C 0.79797 0.57659 0.33029 0.0
C931 C 0.83185 0.54259 0.30886 0.0
C932 C 0.89724 0.57448 0.33396 0.0
C933 C 0.92843 0.60699 0.35731 0.0
N934 N 0.89216 0.63688 0.38559 0.0
C935 C 0.92552 0.63818 0.38261 0.0
H936 H 0.95039 0.66332 0.39853 0.0
C937 C 0.79802 0.64257 0.37571 0.0
N938 N 0.82982 0.64058 0.37704 0.0
C939 C 0.76568 0.61184 0.35196 0.0
C940 C 0.76558 0.57862 0.32961 0.0
H941 H 0.79692 0.66742 0.39484 0.0
H942 H 0.83246 0.51735 0.28993 0.0
H943 H 0.87434 0.78179 0.45877 0.0
H944 H 0.89961 0.55037 0.31452 0.0
H945 H 0.95483 0.60815 0.35556 0.0
H946 H 0.77458 0.51912 0.28831 0.0
H947 H 0.03446 0.80123 0.48843 0.0
H948 H 0.90876 0.89476 0.53625 0.0
H949 H 0.85944 0.83121 0.49766 0.0
H950 H 0.03675 0.94469 0.57519 0.0
H951 H 0.74062 0.61352 0.35211 0.0
H952 H 0.74024 0.55455 0.31276 0.0
H953 H 0.97547 0.93759 0.56312 0.0
H954 H 0.08487 0.85912 0.53764 0.0
N955 N 0.93189 0.81737 0.4729 0.0
C956 C 0.91562 0.87335 0.51846 0.0
C957 C 0.88767 0.83746 0.49677 0.0
C958 C 0.95187 0.88039 0.52003 0.0
C959 C 0.95919 0.85119 0.4976 0.0
C960 C 0.89629 0.80956 0.47422 0.0
N961 N -0.00288 0.82292 0.4933 0.0
C962 C -0.00706 0.85398 0.50818 0.0
C963 C 0.05888 0.85777 0.53054 0.0
C964 C 0.0547 0.88951 0.54675 0.0
C965 C 0.02978 0.82459 0.50367 0.0
C966 C 0.02129 0.88776 0.5363 0.0
H967 H 0.07734 0.91516 0.56751 0.0
O968 O 0.00687 0.8019 0.40506 0.0
O969 O 0.92305 0.71645 0.38581 0.0
O970 O 0.92842 0.68594 0.46693 0.0
O971 O 0.97203 0.74972 0.47692 0.0
O972 O 0.96682 0.75345 0.35934 0.0
O973 O 0.97042 0.82571 0.40182 0.0
O974 O 0.8341 0.68216 0.47058 0.0
O975 O 0.91087 0.74507 0.47625 0.0
O976 O 0.90467 0.7699 0.38582 0.0
O977 O 0.86081 0.70868 0.38547 0.0
O978 O 0.89307 0.70544 0.51561 0.0
O979 O 0.84742 0.63642 0.46285 0.0
C980 C 0.94139 0.71938 0.34776 0.0
C981 C 0.01519 0.91841 0.55389 0.0
C982 C 0.98039 0.91453 0.54653 0.0
C983 C 0.00302 0.82931 0.39561 0.0
C984 C 0.02016 0.84474 0.35474 0.0
C985 C 0.05438 0.87716 0.363 0.0
C986 C 4e-05 0.83151 0.30977 0.0
C987 C 0.01319 0.85136 0.27365 0.0
C988 C 0.06865 0.89563 0.32594 0.0
C989 C 0.04796 0.88304 0.28139 0.0
C990 C 0.95953 0.71581 0.48594 0.0
C991 C 0.90992 0.7412 0.52055 0.0
C992 C 0.82653 0.65053 0.48163 0.0
C993 C 0.8166 0.64735 0.53126 0.0
C994 C 0.78658 0.65185 0.54677 0.0
C995 C 0.83509 0.63808 0.5623 0.0
C996 C 0.82312 0.63272 0.60811 0.0
C997 C 0.77505 0.64719 0.59245 0.0
C998 C 0.79307 0.63758 0.62291 0.0
C999 C 0.87201 0.74029 0.37209 0.0
H1000 H 0.06932 0.88916 0.39861 0.0
H1001 H 0.97267 0.80786 0.30459 0.0
H1002 H 0.09496 0.92072 0.33254 0.0
H1003 H 0.05838 0.89876 0.25377 0.0
H1004 H 0.7718 0.65863 0.52326 0.0
H1005 H 0.85797 0.63395 0.55039 0.0
H1006 H 0.75181 0.65066 0.60408 0.0
H1007 H 0.78345 0.63385 0.65811 0.0
Gd1008 Gd 0.50774 0.62002 0.74572 0.0
Gd1009 Gd 0.60312 0.68212 0.7376 0.0
C1010 C 0.66746 0.66156 0.84279 0.0
C1011 C 0.70557 0.72454 0.89192 0.0
C1012 C 0.65941 0.71313 0.83017 0.0
C1013 C 0.64991 0.67525 0.81727 0.0
C1014 C 0.68755 0.73807 0.86749 0.0
C1015 C 0.69545 0.68642 0.87977 0.0
C1016 C 0.65596 0.62312 0.83104 0.0
C1017 C 0.6273 0.59917 0.7951 0.0
N1018 N 0.62272 0.65162 0.7812 0.0
C1019 C 0.61096 0.6139 0.77036 0.0
H1020 H 0.58848 0.5947 0.74347 0.0
C1021 C 0.65127 0.76287 0.81679 0.0
N1022 N 0.64096 0.72554 0.80686 0.0
C1023 C 0.67868 0.78844 0.85365 0.0
C1024 C 0.69687 0.77601 0.87924 0.0
H1025 H 0.63974 0.7733 0.79454 0.0
H1026 H 0.70931 0.67636 0.89947 0.0
H1027 H 0.46925 0.67139 0.71726 0.0
H1028 H 0.66863 0.61156 0.85003 0.0
H1029 H 0.61778 0.5693 0.78637 0.0
H1030 H 0.72722 0.74334 0.9206 0.0
H1031 H 0.50601 0.53555 0.72257 0.0
H1032 H 0.37499 0.59679 0.61945 0.0
H1033 H 0.41617 0.66016 0.66902 0.0
H1034 H 0.37381 0.47939 0.59095 0.0
H1035 H 0.68631 0.81784 0.86139 0.0
H1036 H 0.71833 0.79595 0.90761 0.0
H1037 H 0.35963 0.52997 0.59071 0.0
H1038 H 0.46667 0.47128 0.67418 0.0
N1039 N 0.45995 0.61534 0.69678 0.0
C1040 C 0.39869 0.6016 0.64081 0.0
C1041 C 0.42184 0.63736 0.66871 0.0
C1042 C 0.40645 0.57248 0.64047 0.0
C1043 C 0.43776 0.5801 0.66893 0.0
C1044 C 0.4523 0.6437 0.69654 0.0
N1045 N 0.47681 0.55883 0.69485 0.0
C1046 C 0.44644 0.5514 0.66784 0.0
C1047 C 0.46091 0.49357 0.67165 0.0
C1048 C 0.43096 0.48593 0.64177 0.0
C1049 C 0.48311 0.53001 0.69891 0.0
C1050 C 0.42306 0.5147 0.64005 0.0
H1051 H 0.41356 0.4575 0.62105 0.0
O1052 O 0.49518 0.57947 0.79011 0.0
O1053 O 0.56507 0.64589 0.78323 0.0
O1054 O 0.59264 0.63003 0.68282 0.0
O1055 O 0.52985 0.59372 0.68315 0.0
O1056 O 0.52593 0.6492 0.82637 0.0
O1057 O 0.45626 0.59906 0.77616 0.0
O1058 O 0.64436 0.73174 0.71651 0.0
O1059 O 0.54644 0.65634 0.70034 0.0
O1060 O 0.51479 0.67809 0.76812 0.0
O1061 O 0.57866 0.71642 0.77987 0.0
O1062 O 0.58609 0.69549 0.67084 0.0
O1063 O 0.65261 0.68347 0.71215 0.0
C1064 C 0.5598 0.65759 0.82699 0.0
C1065 C 0.39195 0.50739 0.61234 0.0
C1066 C 0.38378 0.53617 0.6124 0.0
C1067 C 0.46248 0.57619 0.79492 0.0
C1068 C 0.44099 0.56125 0.8342 0.0
C1069 C 0.43351 0.52572 0.83901 0.0
C1070 C 0.4256 0.58058 0.86447 0.0
C1071 C 0.40425 0.56557 0.9013 0.0
C1072 C 0.41136 0.50997 0.87409 0.0
C1073 C 0.39703 0.52979 0.90532 0.0
C1074 C 0.56144 0.59969 0.66603 0.0
C1075 C 0.55159 0.67217 0.66463 0.0
C1076 C 0.66646 0.71767 0.70672 0.0
C1077 C 0.68679 0.72491 0.66446 0.0
C1078 C 0.72461 0.74893 0.67104 0.0
C1079 C 0.66934 0.70601 0.61781 0.0
C1080 C 0.68968 0.71051 0.57766 0.0
C1081 C 0.74494 0.75349 0.6309 0.0
C1082 C 0.72758 0.73407 0.58417 0.0
C1083 C 0.54469 0.71103 0.78329 0.0
H1084 H 0.44441 0.50993 0.81515 0.0
H1085 H 0.43044 0.60739 0.85924 0.0
H1086 H 0.40565 0.48247 0.8775 0.0
H1087 H 0.38125 0.51745 0.93343 0.0
H1088 H 0.73843 0.76361 0.7072 0.0
H1089 H 0.6401 0.68731 0.61277 0.0
H1090 H 0.77415 0.77192 0.63604 0.0
H1091 H 0.74349 0.73784 0.55321 0.0
Gd1092 Gd 0.13048 0.41592 0.1351 0.0
Gd1093 Gd 0.03802 0.35073 0.09382 0.0
C1094 C 0.96219 0.34048 0.21371 0.0
C1095 C 0.93128 0.27352 0.20781 0.0
C1096 C 0.98008 0.30038 0.15669 0.0
C1097 C 0.98476 0.33593 0.17796 0.0
C1098 C 0.95219 0.26875 0.1702 0.0
C1099 C 0.93634 0.30931 0.2296 0.0
C1100 C 0.9649 0.3759 0.23072 0.0
C1101 C 0.98937 0.4057 0.21183 0.0
N1102 N 0.00915 0.36557 0.16085 0.0
C1103 C 0.01151 0.40003 0.17705 0.0
H1104 H 0.03091 0.42322 0.16369 0.0
C1105 C 0.99035 0.26156 0.09072 0.0
N1106 N -0.00023 0.29626 0.11917 0.0
C1107 C 0.96325 0.22941 0.10303 0.0
C1108 C 0.94425 0.23307 0.14317 0.0
H1109 H 0.00359 0.25912 0.05816 0.0
H1110 H 0.91905 0.31238 0.25729 0.0
H1111 H 0.14343 0.34037 0.07233 0.0
H1112 H 0.94786 0.38039 0.25785 0.0
H1113 H -0.00839 0.43318 0.22453 0.0
H1114 H 0.91 0.24952 0.21888 0.0
H1115 H 0.14263 0.50101 0.11788 0.0
H1116 H 0.25589 0.39341 1.04887 0.0
H1117 H 0.19775 0.33603 1.04828 0.0
H1118 H 0.2885 0.52209 0.07556 0.0
H1119 H 0.95624 0.20192 0.08074 0.0
H1120 H 0.92208 0.20826 0.15141 0.0
H1121 H 0.28993 0.46323 0.06263 0.0
H1122 H 0.19522 0.55756 0.10985 0.0
N1123 N 0.16901 0.4002 0.08401 0.0
C1124 C 0.23148 0.39548 1.05758 0.0
C1125 C 0.19881 0.36311 1.05746 0.0
C1126 C 0.23212 0.43009 0.06813 0.0
C1127 C 0.19958 0.43132 0.07892 0.0
C1128 C 0.16782 0.36595 0.07139 0.0
N1129 N 0.16723 0.46537 0.09824 0.0
C1130 C 0.19878 0.46496 0.0867 0.0
C1131 C 0.19648 0.53161 0.10247 0.0
C1132 C 0.22925 0.53177 0.09317 0.0
C1133 C 0.16577 0.49831 0.10519 0.0
C1134 C 0.23087 0.4983 0.08522 0.0
H1135 H 0.2528 0.55798 0.09196 0.0
O1136 O 0.15681 0.47 0.1867 0.0
O1137 O 0.07417 0.39329 0.16037 0.0
O1138 O 0.05498 0.40305 0.06924 0.0
O1139 O 0.09846 0.44608 0.13054 0.0
O1140 O 0.11606 0.40081 0.2069 0.0
O1141 O 0.17982 0.43222 0.17916 0.0
O1142 O 0.00284 0.31924 1.02536 0.0
O1143 O 0.0934 0.38097 0.06472 0.0
O1144 O 0.12174 0.36022 0.14265 0.0
O1145 O 0.05945 0.31843 0.12219 0.0
O1146 O 0.062 0.32348 1.0359 0.0
O1147 O 0.98748 0.35096 0.08265 0.0
C1148 C 0.082 0.39119 0.2031 0.0
C1149 C 0.26363 0.49725 0.07708 0.0
C1150 C 0.26435 0.46339 0.06894 0.0
C1151 C 0.18247 0.46435 0.20187 0.0
C1152 C 0.19367 0.47723 0.25419 0.0
C1153 C 0.2089 0.51563 0.2756 0.0
C1154 C 0.19192 0.45266 0.28215 0.0
C1155 C 0.20639 0.46656 0.33111 0.0
C1156 C 0.22241 0.5295 0.32435 0.0
C1157 C 0.22141 0.50529 0.35194 0.0
C1158 C 0.0745 0.43738 0.09453 0.0
C1159 C 0.09227 0.35295 1.03254 0.0
C1160 C 0.97841 0.32937 1.03945 0.0
C1161 C 0.96287 0.34142 1.00587 0.0
C1162 C 0.92581 0.32013 0.98939 0.0
C1163 C 0.98368 0.37631 0.99521 0.0
C1164 C 0.96899 0.38977 0.96532 0.0
C1165 C 0.90992 0.33365 0.96196 0.0
C1166 C 0.93111 0.36797 0.94984 0.0
C1167 C 0.09268 0.32695 0.13786 0.0
H1168 H 0.21091 0.535 0.2543 0.0
H1169 H 0.18008 0.42296 0.26555 0.0
H1170 H 0.2346 0.55927 0.34045 0.0
H1171 H 0.23372 0.51728 0.38907 0.0
H1172 H 0.90907 0.29352 0.99863 0.0
H1173 H 0.01166 0.39239 1.0094 0.0
H1174 H 0.88118 0.31719 0.94927 0.0
H1175 H 0.91759 0.37602 0.92651 0.0
Gd1176 Gd 0.47338 0.3445 0.3827 0.0
Gd1177 Gd 0.56986 0.39176 0.3664 0.0
C1178 C 0.66642 0.42604 0.4739 0.0
C1179 C 0.69308 0.49377 0.49587 0.0
C1180 C 0.63707 0.45585 0.44114 0.0
C1181 C 0.63774 0.42318 0.4446 0.0
C1182 C 0.66545 0.49137 0.4659 0.0
C1183 C 0.69348 0.46126 0.50001 0.0
C1184 C 0.66821 0.39358 0.47467 0.0
C1185 C 0.64283 0.35943 0.44531 0.0
N1186 N 0.61236 0.38918 0.417 0.0
C1187 C 0.6155 0.35779 0.41593 0.0
H1188 H 0.59782 0.33116 0.39209 0.0
C1189 C 0.61323 0.48522 0.40087 0.0
N1190 N 0.61057 0.45331 0.41106 0.0
C1191 C 0.64045 0.52066 0.42511 0.0
C1192 C 0.66642 0.52378 0.45819 0.0
H1193 H 0.59345 0.48316 0.37477 0.0
H1194 H 0.7156 0.46376 0.52237 0.0
H1195 H 0.49803 0.43243 0.36334 0.0
H1196 H 0.68983 0.39478 0.49659 0.0
H1197 H 0.64474 0.33433 0.44448 0.0
H1198 H 0.71493 0.52079 0.51502 0.0
H1199 H 0.43392 0.25408 0.29866 0.0
H1200 H 0.39886 0.42369 0.30961 0.0
H1201 H 0.46408 0.46218 0.3406 0.0
H1202 H 0.31981 0.29141 0.25946 0.0
H1203 H 0.64165 0.54555 0.41775 0.0
H1204 H 0.68789 0.55137 0.47636 0.0
H1205 H 0.34443 0.35974 0.2817 0.0
H1206 H 0.37372 0.21268 0.25728 0.0
N1207 N 0.45222 0.37746 0.34696 0.0
C1208 C 0.4136 0.41039 0.31971 0.0
C1209 C 0.45044 0.4322 0.33712 0.0
C1210 C 0.39685 0.37143 0.3127 0.0
C1211 C 0.41742 0.35549 0.32575 0.0
C1212 C 0.46956 0.4152 0.35042 0.0
N1213 N 0.42691 0.3031 0.31803 0.0
C1214 C 0.40428 0.31701 0.31092 0.0
C1215 C 0.38186 0.24194 0.27242 0.0
C1216 C 0.35772 0.25546 0.26791 0.0
C1217 C 0.4165 0.26614 0.29695 0.0
C1218 C 0.3692 0.29359 0.28575 0.0
H1219 H 0.33084 0.23653 0.24894 0.0
O1220 O 0.42721 0.29717 0.40045 0.0
O1221 O 0.53031 0.36479 0.41724 0.0
O1222 O 0.54851 0.32944 0.35729 0.0
O1223 O 0.48861 0.30715 0.33055 0.0
O1224 O 0.49064 0.32722 0.44686 0.0
O1225 O 0.43385 0.35337 0.42623 0.0
O1226 O 0.59249 0.42766 0.31665 0.0
O1227 O 0.51286 0.3744 0.33211 0.0
O1228 O 0.4939 0.40134 0.43143 0.0
O1229 O 0.55615 0.43116 0.4219 0.0
O1230 O 0.54784 0.365 0.28693 0.0
O1231 O 0.61637 0.39226 0.33004 0.0
C1232 C 0.5256 0.34897 0.45271 0.0
C1233 C 0.34709 0.3091 0.27776 0.0
C1234 C 0.36104 0.348 0.29068 0.0
C1235 C 0.41356 0.31761 0.42423 0.0
C1236 C 0.39826 0.30784 0.46853 0.0
C1237 C 0.36096 0.28309 0.46759 0.0
C1238 C 0.42099 0.32195 0.51135 0.0
C1239 C 0.40697 0.31066 0.55346 0.0
C1240 C 0.34661 0.2721 0.50975 0.0
C1241 C 0.36953 0.28566 0.55263 0.0
C1242 C 0.51553 0.30133 0.33979 0.0
C1243 C 0.51598 0.36244 0.28709 0.0
C1244 C 0.61824 0.41816 0.30905 0.0
C1245 C 0.6462 0.43449 0.27696 0.0
C1246 C 0.66454 0.47321 0.28036 0.0
C1247 C 0.65196 0.41055 0.23945 0.0
C1248 C 0.6743 0.42461 0.20343 0.0
C1249 C 0.68816 0.48752 0.24565 0.0
C1250 C 0.69317 0.46338 0.20731 0.0
C1251 C 0.52687 0.43036 0.44164 0.0
H1252 H 0.34313 0.27208 0.43427 0.0
H1253 H 0.44962 0.34188 0.51184 0.0
H1254 H 0.31782 0.25283 0.50906 0.0
H1255 H 0.35814 0.27641 0.58486 0.0
H1256 H 0.66006 0.49214 0.30911 0.0
H1257 H 0.63723 0.38059 0.23671 0.0
H1258 H 0.70133 0.51713 0.24699 0.0
H1259 H 0.71022 0.47477 0.17953 0.0
Gd1260 Gd 0.05586 0.65156 1.01848 0.0
Gd1261 Gd 0.96153 0.60096 0.98095 0.0
C1262 C 0.8732 0.61119 0.06997 0.0
C1263 C 0.83723 0.54798 0.08058 0.0
C1264 C 0.8954 0.56649 1.04545 0.0
C1265 C 0.89952 0.60188 1.04864 0.0
C1266 C 0.86418 0.53926 0.06176 0.0
C1267 C 0.84182 0.58391 0.08491 0.0
C1268 C 0.8791 0.64772 0.07589 0.0
C1269 C 0.911 0.67425 0.06192 0.0
N1270 N 0.92933 0.62728 1.03167 0.0
C1271 C 0.93585 0.66366 1.0399 0.0
H1272 H 0.96034 0.68562 1.03103 0.0
C1273 C 0.91718 0.52312 1.02144 0.0
N1274 N 0.92133 0.55838 1.02562 0.0
C1275 C 0.88723 0.49574 1.03798 0.0
C1276 C 0.8604 0.50368 0.0578 0.0
H1277 H 0.93506 0.51416 1.0022 0.0
H1278 H 0.82101 0.59041 0.10021 0.0
H1279 H 0.04515 0.57188 0.93997 0.0
H1280 H 0.8596 0.65593 0.09221 0.0
H1281 H 0.91643 0.70297 0.0678 0.0
H1282 H 0.81284 0.52717 0.09223 0.0
H1283 H 0.10496 0.74434 1.0573 0.0
H1284 H 0.12917 0.60357 0.84417 0.0
H1285 H 0.07707 0.55431 0.87374 0.0
H1286 H 0.19236 0.73725 0.8929 0.0
H1287 H 0.88419 0.46797 1.0336 0.0
H1288 H 0.83665 0.48199 0.06932 0.0
H1289 H 0.17123 0.6716 0.85074 0.0
H1290 H 0.16117 0.79552 1.03647 0.0
N1291 N 0.07902 0.63048 0.9489 0.0
C1292 C 0.11538 0.61145 0.87359 0.0
C1293 C 0.08609 0.58356 0.89027 0.0
C1294 C 0.12678 0.64915 0.89528 0.0
C1295 C 0.10796 0.65807 0.93357 0.0
C1296 C 0.06832 0.59358 0.92828 0.0
N1297 N 0.10211 0.70347 0.99517 0.0
C1298 C 0.11954 0.6954 0.95694 0.0
C1299 C 0.1484 0.76795 1.01266 0.0
C1300 C 0.16448 0.76091 0.97093 0.0
C1301 C 0.11706 0.73884 1.02448 0.0
C1302 C 0.15067 0.72422 0.9431 0.0
H1303 H 0.18879 0.78366 0.96214 0.0
O1304 O 0.09705 0.68028 0.0812 0.0
O1305 O 0.0003 0.63174 1.04992 0.0
O1306 O 0.98151 0.65918 0.96934 0.0
O1307 O 0.04467 0.69133 0.99141 0.0
O1308 O 0.04077 0.68722 0.07564 0.0
O1309 O 0.09542 0.63391 1.02671 0.0
O1310 O 0.93285 0.54555 0.93417 0.0
O1311 O 0.01604 0.6141 0.95308 0.0
O1312 O 0.02968 0.60219 1.05009 0.0
O1313 O 0.98655 0.56389 0.98677 0.0
O1314 O 0.97874 0.61762 0.91019 0.0
O1315 O 0.91318 0.58509 0.93389 0.0
C1316 C 0.00759 0.66285 0.08045 0.0
C1317 C 0.16854 0.71539 0.90401 0.0
C1318 C 0.15664 0.67798 0.88018 0.0
C1319 C 0.11276 0.65987 0.06563 0.0
C1320 C 0.12792 0.64852 0.10023 0.0
C1321 C 0.16565 0.66743 0.11192 0.0
C1322 C 0.10574 0.61671 0.11728 0.0
C1323 C 0.12049 0.6047 0.14942 0.0
C1324 C 0.18124 0.65441 0.14045 0.0
C1325 C 0.15913 0.62338 0.15892 0.0
C1326 C 0.01455 0.68869 0.97312 0.0
C1327 C 0.01119 0.62155 0.91283 0.0
C1328 C 0.90966 0.55208 0.91388 0.0
C1329 C 0.90249 0.5382 0.86046 0.0
C1330 C 0.90433 0.5055 0.83835 0.0
C1331 C 0.89105 0.55505 0.83163 0.0
C1332 C 0.88137 0.53909 0.78158 0.0
C1333 C 0.89499 0.48995 0.78867 0.0
C1334 C 0.88345 0.50654 0.76029 0.0
C1335 C 0.00778 0.56886 1.02416 0.0
H1336 H 0.18309 0.69164 0.09793 0.0
H1337 H 0.07687 0.60247 0.10645 0.0
H1338 H 0.21055 0.66887 0.14916 0.0
H1339 H 0.17287 0.61581 0.18257 0.0
H1340 H 0.91229 0.4914 0.85964 0.0
H1341 H 0.88849 0.57965 0.84809 0.0
H1342 H 0.8959 0.46446 0.77252 0.0
H1343 H 0.87543 0.4936 0.7219 0.0
H1344 H 0.19386 0.14991 0.9717 0.0
H1345 H 0.10292 0.15946 1.035 0.0
H1346 H 0.06419 0.12178 0.95981 0.0
H1347 H 0.06007 0.09803 0.8723 0.0
H1348 H 0.15315 0.0968 0.80593 0.0
H1349 H 0.18682 0.11791 0.88588 0.0
C1350 C 0.16549 0.14344 0.96897 0.0
C1351 C 0.15144 0.15785 1.0084 0.0
C1352 C 0.14366 0.12284 0.92505 0.0
C1353 C 0.11441 0.14861 1.00508 0.0
C1354 C 0.09221 0.12713 0.96204 0.0
C1355 C 0.08696 0.10041 0.87576 0.0
C1356 C 0.10416 0.0957 0.83389 0.0
C1357 C 0.10696 0.11543 0.92129 0.0
C1358 C 0.13934 0.09972 0.83809 0.0
C1359 C 0.1588 0.11258 0.88366 0.0
H1360 H 0.05229 0.8129 0.1682 0.0
H1361 H 0.15981 0.83247 0.13381 0.0
H1362 H 0.14848 0.84229 1.05486 0.0
H1363 H 0.10503 0.83581 0.98997 0.0
H1364 H 0.00022 0.82297 1.02674 0.0
H1365 H 0.01161 0.81505 0.10652 0.0
C1366 C 0.0727 0.81732 0.14252 0.0
C1367 C 0.10631 0.81948 0.15683 0.0
C1368 C 0.06584 0.82231 0.09603 0.0
C1369 C 0.13296 0.82801 0.12351 0.0
C1370 C 0.12648 0.83364 0.078 0.0
C1371 C 0.08557 0.83365 1.01588 0.0
C1372 C 0.05243 0.83202 1.00136 0.0
C1373 C 0.09276 0.82992 0.06305 0.0
C1374 C 0.0265 0.82564 1.03603 0.0
C1375 C 0.03287 0.82065 0.08202 0.0
H1376 H 0.44968 0.8381 0.25285 0.0
H1377 H 0.55129 0.84755 0.30063 0.0
H1378 H 0.55524 0.89293 0.37509 0.0
H1379 H 0.51865 0.91062 0.43156 0.0
H1380 H 0.41369 0.89354 0.38014 0.0
H1381 H 0.42573 0.87603 0.29765 0.0
C1382 C 0.47418 0.85202 0.27723 0.0
C1383 C 0.50009 0.83969 0.27107 0.0
C1384 C 0.4762 0.87785 0.31849 0.0
C1385 C 0.5309 0.85674 0.30478 0.0
C1386 C 0.53316 0.88272 0.34708 0.0
C1387 C 0.49878 0.90483 0.4027 0.0
C1388 C 0.46378 0.90066 0.41262 0.0
C1389 C 0.5042 0.89087 0.35565 0.0
C1390 C 0.44009 0.89557 0.3741 0.0
C1391 C 0.44668 0.88475 0.32671 0.0
H1392 H 0.4145 0.18612 0.74915 0.0
H1393 H 0.47271 0.15813 0.84113 0.0
H1394 H 0.49413 0.13163 0.77053 0.0
H1395 H 0.50319 0.12208 0.68188 0.0
H1396 H 0.45492 0.16037 0.59156 0.0
H1397 H 0.42253 0.17488 0.65871 0.0
C1398 C 0.43004 0.17221 0.75386 0.0
C1399 C 0.43823 0.17124 0.80252 0.0
C1400 C 0.4446 0.1585 0.71163 0.0
C1401 C 0.46218 0.15645 0.80569 0.0
C1402 C 0.47559 0.14201 0.76456 0.0
C1403 C 0.48438 0.13214 0.67589 0.0
C1404 C 0.47906 0.13593 0.62788 0.0
C1405 C 0.46769 0.14333 0.7171 0.0
C1406 C 0.45651 0.15212 0.62426 0.0
C1407 C 0.43901 0.16215 0.66434 0.0
H1408 H -0.00378 0.89875 0.24409 0.0
H1409 H 0.97131 0.78305 0.21359 0.0
H1410 H 0.92405 0.7665 0.14999 0.0
H1411 H 0.89317 0.78602 0.09991 0.0
H1412 H 0.9202 0.90204 0.12648 0.0
H1413 H 0.96235 0.91751 0.19694 0.0
C1414 C 0.98076 0.87007 0.22287 0.0
C1415 C 0.98777 0.84222 0.23201 0.0
C1416 C 0.95324 0.8608 0.18732 0.0
C1417 C 0.96688 0.80492 0.20584 0.0
C1418 C 0.93955 0.79543 0.17022 0.0
C1419 C 0.90717 0.81434 0.12265 0.0
C1420 C 0.90368 0.84287 0.10916 0.0
C1421 C 0.93266 0.82318 0.16063 0.0
C1422 C 0.9222 0.87972 0.13744 0.0
C1423 C 0.9467 0.88861 0.17685 0.0
H1424 H 0.95362 0.12956 0.97505 0.0
H1425 H 0.03605 0.24115 0.9704 0.0
H1426 H 0.06639 0.24682 1.04729 0.0
H1427 H 0.07115 0.21971 0.11555 0.0
H1428 H -0.00581 0.10522 0.11369 0.0
H1429 H 0.96047 0.10127 1.04089 0.0
C1430 C 0.97838 0.15532 0.99017 0.0
C1431 C -0.00797 0.18507 0.96506 0.0
C1432 C -0.00339 0.15797 1.03444 0.0
C1433 C 0.02408 0.21786 0.98758 0.0
C1434 C 0.04179 0.22093 1.03186 0.0
C1435 C 0.04654 0.19392 0.1001 0.0
C1436 C 0.03413 0.16359 0.12385 0.0
C1437 C 0.02842 0.19121 1.05579 0.0
C1438 C 0.00346 0.12997 0.0998 0.0
C1439 C 0.98444 0.12756 1.05704 0.0
H1440 H 0.667 0.16857 0.85094 0.0
H1441 H 0.55823 0.14162 0.80364 0.0
H1442 H 0.55271 0.08747 0.74202 0.0
H1443 H 0.58802 0.06501 0.68772 0.0
H1444 H 0.69906 0.10033 0.73057 0.0
H1445 H 0.6929 0.12823 0.81297 0.0
C1446 C 0.64138 0.14982 0.8294 0.0
C1447 C 0.61324 0.15909 0.83149 0.0
C1448 C 0.63874 0.11937 0.79427 0.0
C1449 C 0.58026 0.13478 0.80231 0.0
C1450 C 0.57706 0.10379 0.76734 0.0
C1451 C 0.61081 0.07834 0.71547 0.0
C1452 C 0.64661 0.08996 0.70194 0.0
C1453 C 0.60752 0.09819 0.76036 0.0
C1454 C 0.67254 0.09725 0.73919 0.0
C1455 C 0.66944 0.11423 0.78616 0.0
H1456 H 0.64011 0.89666 0.46597 0.0
H1457 H 0.57313 0.78894 0.49609 0.0
H1458 H 0.58718 0.75827 0.42119 0.0
H1459 H 0.61258 0.76038 0.34258 0.0
H1460 H 0.69088 0.86619 0.31719 0.0
H1461 H 0.67814 0.8988 0.39194 0.0
C1462 C 0.62955 0.8666 0.45721 0.0
C1463 C 0.60506 0.84513 0.48837 0.0
C1464 C 0.63859 0.84859 0.41287 0.0
C1465 C 0.59182 0.80621 0.47416 0.0
C1466 C 0.59964 0.78856 0.43059 0.0
C1467 C 0.62725 0.79076 0.35254 0.0
C1468 C 0.65054 0.81034 0.31917 0.0
C1469 C 0.62198 0.8092 0.39869 0.0
C1470 C 0.6701 0.84965 0.33698 0.0
C1471 C 0.66338 0.86846 0.38163 0.0
H1472 H 0.61745 0.61367 0.36822 0.0
H1473 H 0.5666 0.68395 0.38974 0.0
H1474 H 0.59732 0.71407 0.47217 0.0
H1475 H 0.64092 0.7223 0.53597 0.0
H1476 H 0.69564 0.65569 0.51244 0.0
H1477 H 0.66108 0.62177 0.43242 0.0
C1478 C 0.61259 0.63498 0.39161 0.0
C1479 C 0.58964 0.64644 0.374 0.0
C1480 C 0.6313 0.65293 0.4379 0.0
C1481 C 0.58394 0.67465 0.40345 0.0
C1482 C 0.60158 0.6919 0.45018 0.0
C1483 C 0.64516 0.70036 0.51303 0.0
C1484 C 0.67059 0.69134 0.52907 0.0
C1485 C 0.62576 0.68168 0.46735 0.0
C1486 C 0.6763 0.66307 0.49985 0.0
C1487 C 0.65646 0.64366 0.45456 0.0
H1488 H 0.58866 0.29503 0.60919 0.0
H1489 H 0.62302 0.40808 0.69163 0.0
H1490 H 0.59984 0.42112 0.6256 0.0
H1491 H 0.56479 0.40047 0.54337 0.0
H1492 H 0.54418 0.29546 0.45347 0.0
H1493 H 0.56851 0.28126 0.5199 0.0
C1494 C 0.59159 0.32274 0.61325 0.0
C1495 C 0.60527 0.34886 0.65981 0.0
C1496 C 0.58045 0.33214 0.57196 0.0
C1497 C 0.60983 0.38512 0.66 0.0
C1498 C 0.59706 0.39341 0.62091 0.0
C1499 C 0.56617 0.37463 0.53731 0.0
C1500 C 0.55146 0.34828 0.49125 0.0
C1501 C 0.58126 0.36698 0.57662 0.0
C1502 C 0.55403 0.31543 0.48721 0.0
C1503 C 0.56791 0.30734 0.52583 0.0
H1504 H 0.95397 0.43022 0.91026 0.0
H1505 H 0.04669 0.42757 0.96642 0.0
H1506 H 0.06629 0.41958 0.88723 0.0
H1507 H 0.03653 0.37409 0.81027 0.0
H1508 H 0.9277 0.34771 0.76434 0.0
H1509 H 0.93231 0.40071 0.82512 0.0
C1510 C 0.97855 0.4278 0.90493 0.0
C1511 C -0.00585 0.42114 0.94247 0.0
C1512 C 0.98485 0.41442 0.85788 0.0
C1513 C 0.03024 0.42719 0.9375 0.0
C1514 C 0.04151 0.42179 0.89122 0.0
C1515 C 0.01473 0.38137 0.81238 0.0
C1516 C 0.98178 0.35703 0.78374 0.0
C1517 C 0.01567 0.40868 0.85166 0.0
C1518 C 0.95334 0.36602 0.78611 0.0
C1519 C 0.95597 0.39647 0.82127 0.0
H1520 H 0.98011 0.74852 0.27714 0.0
H1521 H 0.90109 0.63956 0.29411 0.0
H1522 H 0.91343 0.61113 0.21482 0.0
H1523 H 0.95147 0.61817 0.13928 0.0
H1524 H 0.02283 0.73152 0.12637 0.0
H1525 H 0.00937 0.75604 0.2042 0.0
C1526 C 0.96511 0.71827 0.26474 0.0
C1527 C 0.94101 0.69675 0.29571 0.0
C1528 C 0.97134 0.70247 0.21804 0.0
C1529 C 0.92149 0.65769 0.27492 0.0
C1530 C 0.92835 0.64129 0.22821 0.0
C1531 C 0.96334 0.64822 0.15283 0.0
C1532 C 0.9893 0.67261 0.12542 0.0
C1533 C 0.95398 0.66341 0.19922 0.0
C1534 C 0.00361 0.71143 0.14523 0.0
C1535 C -0.00441 0.7259 0.19038 0.0
H1536 H 0.39453 0.33743 0.64334 0.0
H1537 H 0.47527 0.31862 0.56249 0.0
H1538 H 0.51751 0.34655 0.63581 0.0
H1539 H 0.52956 0.37173 0.72386 0.0
H1540 H 0.44718 0.38576 0.80554 0.0
H1541 H 0.40749 0.36489 0.73072 0.0
C1542 C 0.42128 0.33926 0.64197 0.0
C1543 C 0.43177 0.32591 0.59802 0.0
C1544 C 0.4453 0.35514 0.68406 0.0
C1545 C 0.46673 0.32894 0.59617 0.0
C1546 C 0.49093 0.34499 0.63788 0.0
C1547 C 0.50351 0.37156 0.72469 0.0
C1548 C 0.49132 0.38097 0.76919 0.0
C1549 C 0.4804 0.35794 0.68203 0.0
C1550 C 0.45714 0.37955 0.77096 0.0
C1551 C 0.43434 0.36707 0.72848 0.0
H1552 H 0.5661 0.71909 0.60313 0.0
H1553 H 0.488 0.60904 0.61457 0.0
H1554 H 0.4511 0.60145 0.54263 0.0
H1555 H 0.44284 0.6253 0.4725 0.0
H1556 H 0.52673 0.73216 0.45435 0.0
H1557 H 0.55925 0.74168 0.53205 0.0
C1558 C 0.54017 0.69396 0.59129 0.0
C1559 C 0.52764 0.66639 0.61941 0.0
C1560 C 0.52053 0.68906 0.54707 0.0
C1561 C 0.49591 0.63268 0.59905 0.0
C1562 C 0.4756 0.62793 0.55611 0.0
C1563 C 0.46838 0.65087 0.48464 0.0
C1564 C 0.48195 0.67814 0.4556 0.0
C1565 C 0.4876 0.65597 0.52947 0.0
C1566 C 0.5149 0.71093 0.47479 0.0
C1567 C 0.53368 0.71631 0.51939 0.0
H1568 H 0.06207 0.64418 0.31148 0.0
H1569 H 0.16975 0.66717 0.35796 0.0
H1570 H 0.16329 0.61273 0.29844 0.0
H1571 H 0.1362 0.5733 0.21805 0.0
H1572 H 0.04325 0.57225 0.15636 0.0
H1573 H 0.03019 0.59569 0.2359 0.0
C1574 C 0.08346 0.63634 0.30942 0.0
C1575 C 0.1161 0.6593 0.3395 0.0
C1576 C 0.0813 0.60749 0.27127 0.0
C1577 C 0.14412 0.64962 0.33597 0.0
C1578 C 0.14045 0.61835 0.30167 0.0
C1579 C 0.11331 0.57879 0.22197 0.0
C1580 C 0.09608 0.57993 0.18096 0.0
C1581 C 0.11056 0.59923 0.2666 0.0
C1582 C 0.06138 0.57752 0.18689 0.0
C1583 C 0.05396 0.59161 0.23274 0.0
H1584 H 0.16316 0.36607 0.82566 0.0
H1585 H 0.12915 0.25028 0.81811 0.0
H1586 H 0.10806 0.25646 0.89835 0.0
H1587 H 0.09603 0.29336 0.9714 0.0
H1588 H 0.13431 0.41086 0.98522 0.0
H1589 H 0.15836 0.40606 0.9051 0.0
C1590 C 0.1527 0.34245 0.84174 0.0
C1591 C 0.14902 0.30744 0.81342 0.0
C1592 C 0.14107 0.34663 0.89045 0.0
C1593 C 0.13333 0.27755 0.8369 0.0
C1594 C 0.12092 0.28111 0.88369 0.0
C1595 C 0.10978 0.31823 0.95737 0.0
C1596 C 0.11243 0.35249 0.98569 0.0
C1597 C 0.12408 0.31528 0.91085 0.0
C1598 C 0.13124 0.38401 0.96563 0.0
C1599 C 0.14498 0.38111 0.91906 0.0
H1600 H 0.03724 0.26489 0.15715 0.0
H1601 H 0.15435 0.33467 0.18255 0.0
H1602 H 0.15381 0.31748 0.25953 0.0
H1603 H 0.11815 0.28514 0.32172 0.0
H1604 H 0.00268 0.22321 0.29952 0.0
H1605 H 0.00274 0.24286 0.22401 0.0
C1606 C 0.06281 0.27582 0.17859 0.0
C1607 C 0.09549 0.30233 0.16519 0.0
C1608 C 0.06187 0.26933 0.22452 0.0
C1609 C 0.12861 0.31481 0.19276 0.0
C1610 C 0.12829 0.30601 0.23741 0.0
C1611 C 0.0932 0.27621 0.29972 0.0
C1612 C 0.06117 0.24494 0.30563 0.0
C1613 C 0.09491 0.28456 0.25437 0.0
C1614 C 0.02849 0.24169 0.28793 0.0
C1615 C 0.02842 0.25116 0.24376 0.0
H1616 H 0.00228 0.77147 0.56183 0.0
H1617 H 0.9533 0.65211 0.50838 0.0
H1618 H 0.00576 0.65273 0.5441 0.0
H1619 H 0.06416 0.68656 0.51493 0.0
H1620 H 0.10875 0.80501 0.52704 0.0
H1621 H 0.06683 0.80749 0.58466 0.0
C1622 C 0.00314 0.74557 0.55918 0.0
C1623 C 0.97757 0.71284 0.52692 0.0
C1624 C 0.03592 0.74722 0.57157 0.0
C1625 C 0.97512 0.6785 0.52901 0.0
C1626 C 0.00523 0.67902 0.54976 0.0
C1627 C 0.06632 0.71338 0.5327 0.0
C1628 C 0.08926 0.74531 0.51598 0.0
C1629 C 0.03774 0.71325 0.55877 0.0
C1630 C 0.09164 0.7799 0.53886 0.0
C1631 C 0.06706 0.78114 0.57187 0.0
H1632 H 0.59601 0.7882 0.81221 0.0
H1633 H 0.48187 0.72137 0.78256 0.0
H1634 H 0.48408 0.73655 0.70293 0.0
H1635 H 0.52124 0.75894 0.63695 0.0
H1636 H 0.63878 0.82049 0.66439 0.0
H1637 H 0.6345 0.81152 0.74651 0.0
C1638 C 0.57198 0.77656 0.78711 0.0
C1639 C 0.54037 0.74507 0.79357 0.0
C1640 C 0.57542 0.78161 0.73975 0.0
C1641 C 0.50797 0.73926 0.77107 0.0
C1642 C 0.50923 0.74675 0.72517 0.0
C1643 C 0.546 0.7696 0.6603 0.0
C1644 C 0.58007 0.79237 0.64556 0.0
C1645 C 0.54338 0.7652 0.70763 0.0
C1646 C 0.61199 0.80379 0.67525 0.0
C1647 C 0.60966 0.79974 0.72284 0.0
H1648 H 0.57267 0.24711 1.0274 0.0
H1649 H 0.53777 0.17701 0.882 0.0
H1650 H 0.48387 0.13065 0.91032 0.0
H1651 H 0.43927 0.12242 0.96897 0.0
H1652 H 0.46127 0.20828 0.09311 0.0
H1653 H 0.52807 0.23378 0.08955 0.0
C1654 C 0.55215 0.22253 1.00178 0.0
C1655 C 0.55663 0.21629 0.95238 0.0
C1656 C 0.52047 0.19804 1.01739 0.0
C1657 C 0.53213 0.18325 0.91946 0.0
C1658 C 0.50264 0.15614 0.936 0.0
C1659 C 0.45944 0.14705 0.99468 0.0
C1660 C 0.44926 0.17233 1.02092 0.0
C1661 C 0.49525 0.16451 0.98393 0.0
C1662 C 0.47176 0.19624 0.0633 0.0
C1663 C 0.5092 0.20997 0.06159 0.0
H1664 H 0.08346 0.76868 0.80983 0.0
H1665 H 0.97361 0.71986 0.75594 0.0
H1666 H 0.95422 0.67865 0.81289 0.0
H1667 H 0.9676 0.67671 0.89765 0.0
H1668 H 0.07673 0.75177 0.96824 0.0
H1669 H 0.09812 0.76602 0.89193 0.0
C1670 C 0.05509 0.74986 0.81259 0.0
C1671 C 0.02842 0.75526 0.79299 0.0
C1672 C 0.04486 0.734 0.85253 0.0
C1673 C -0.00627 0.72301 0.78234 0.0
C1674 C 0.98251 0.69989 0.81509 0.0
C1675 C -0.00421 0.6975 0.89717 0.0
C1676 C 0.02098 0.71178 0.9383 0.0
C1677 C 0.00741 0.70936 0.85474 0.0
C1678 C 0.05705 0.73952 0.93687 0.0
C1679 C 0.06951 0.74798 0.89332 0.0
H1680 H 0.59172 0.72853 0.05884 0.0
H1681 H 0.63269 0.84763 0.09786 0.0
H1682 H 0.58413 0.83952 1.04251 0.0
H1683 H 0.527 0.80469 0.07674 0.0
H1684 H 0.48465 0.68721 0.06947 0.0
H1685 H 0.53016 0.68687 1.01356 0.0
C1686 C 0.58937 0.75272 1.05612 0.0
C1687 C 0.61113 0.78765 0.08839 0.0
C1688 C 0.55939 0.74735 1.02871 0.0
C1689 C 0.61314 0.81975 0.07777 0.0
C1690 C 0.58597 0.81488 1.04491 0.0
C1691 C 0.52587 0.77822 0.06107 0.0
C1692 C 0.5052 0.7472 0.08105 0.0
C1693 C 0.55472 0.77942 1.0348 0.0
C1694 C 0.50333 0.71271 0.05895 0.0
C1695 C 0.52862 0.71251 1.0262 0.0
H1696 H 0.47157 0.20131 0.47913 0.0
H1697 H 0.57896 0.2158 0.45612 0.0
H1698 H 0.58335 0.24473 0.39094 0.0
H1699 H 0.55674 0.26798 0.34126 0.0
H1700 H 0.45041 0.25594 0.3692 0.0
H1701 H 0.44264 0.21821 0.42401 0.0
C1702 C 0.496 0.21127 0.46009 0.0
C1703 C 0.5258 0.20839 0.47455 0.0
C1704 C 0.49664 0.22414 0.41892 0.0
C1705 C 0.55722 0.22107 0.44949 0.0
C1706 C 0.55874 0.23535 0.40957 0.0
C1707 C 0.53131 0.25552 0.35768 0.0
C1708 C 0.5047 0.26554 0.35151 0.0
C1709 C 0.52831 0.23643 0.39336 0.0
C1710 C 0.47141 0.24871 0.37212 0.0
C1711 C 0.46719 0.22771 0.40523 0.0
H1712 H 0.14088 0.33281 0.57258 0.0
H1713 H 0.09556 0.21346 0.54272 0.0
H1714 H 0.03488 0.205 0.5327 0.0
H1715 H 0.01257 0.23248 0.60342 0.0
H1716 H 0.05409 0.35209 0.64232 0.0
H1717 H 0.09993 0.36007 0.58558 0.0
C1718 C 0.11758 0.30495 0.5611 0.0
C1719 C 0.12069 0.27417 0.5668 0.0
C1720 C 0.08251 0.30075 0.56297 0.0
C1721 C 0.09263 0.2381 0.54444 0.0
C1722 C 0.05764 0.23321 0.53944 0.0
C1723 C 0.0296 0.26002 0.59677 0.0
C1724 C 0.03128 0.29161 0.62828 0.0
C1725 C 0.05331 0.26418 0.5609 0.0
C1726 C 0.05364 0.32734 0.61983 0.0
C1727 C 0.07907 0.33194 0.58612 0.0
H1728 H 0.07493 0.07763 0.07411 0.0
H1729 H 0.02694 0.011 0.17843 0.0
H1730 H 0.01286 0.95401 0.11691 0.0
H1731 H 0.01548 0.92256 1.03377 0.0
H1732 H 0.05896 0.98768 0.92689 0.0
H1733 H 0.07414 0.0452 0.98862 0.0
C1734 C 0.06176 0.05066 0.08341 0.0
C1735 C 0.05209 0.04882 0.13117 0.0
C1736 C 0.05323 0.01749 1.04726 0.0
C1737 C 0.03437 0.01342 0.14211 0.0
C1738 C 0.02643 0.98068 0.10686 0.0
C1739 C 0.02803 0.94924 1.0237 0.0
C1740 C 0.03728 0.9506 0.97571 0.0
C1741 C 0.03572 0.98227 0.05927 0.0
C1742 C 0.05292 0.98565 0.96373 0.0
C1743 C 0.06133 0.01868 0.99909 0.0
H1744 H 0.2407 0.75871 0.30015 0.0
H1745 H 0.2753 0.73275 0.42212 0.0
H1746 H 0.33036 0.73904 0.38488 0.0
H1747 H 0.36889 0.75223 0.3174 0.0
H1748 H 0.33342 0.77781 0.19579 0.0
H1749 H 0.27923 0.77272 0.2339 0.0
C1750 C 0.26022 0.75439 0.3187 0.0
C1751 C 0.25346 0.74455 0.36356 0.0
C1752 C 0.29209 0.75871 0.29747 0.0
C1753 C 0.27917 0.73918 0.38698 0.0
C1754 C 0.31096 0.74326 0.36594 0.0
C1755 C 0.34935 0.75683 0.2994 0.0
C1756 C 0.35562 0.76622 0.25422 0.0
C1757 C 0.31768 0.75299 0.32114 0.0
C1758 C 0.33003 0.77197 0.23127 0.0
C1759 C 0.29865 0.76845 0.25274 0.0
H1760 H 0.53652 0.01225 0.47444 0.0
H1761 H 0.48234 0.03027 0.60045 0.0
H1762 H 0.50636 0.99909 0.64176 0.0
H1763 H 0.54762 0.97256 0.64406 0.0
H1764 H 0.60756 0.96218 0.52091 0.0
H1765 H 0.57913 0.98811 0.47757 0.0
C1766 C 0.53035 0.00965 0.51119 0.0
C1767 C 0.50856 0.02403 0.53508 0.0
C1768 C 0.54679 0.99506 0.53581 0.0
C1769 C 0.49888 0.01893 0.58147 0.0
C1770 C 0.51328 1.00199 0.60533 0.0
C1771 C 0.55468 0.9764 0.60793 0.0
C1772 C 0.5796 0.9657 0.58558 0.0
C1773 C 0.53821 0.99113 0.58336 0.0
C1774 C 0.58878 0.97075 0.53892 0.0
C1775 C 0.57224 0.9851 0.51399 0.0
H1776 H 0.37219 0.26097 0.80131 0.0
H1777 H 0.31054 0.24364 0.92609 0.0
H1778 H 0.26259 0.24789 0.88614 0.0
H1779 H 0.2362 0.25393 0.8148 0.0
H1780 H 0.29867 0.27672 0.69197 0.0
H1781 H 0.34792 0.2734 0.7319 0.0
C1782 C 0.34865 0.25897 0.82002 0.0
C1783 C 0.34476 0.25119 0.86624 0.0
C1784 C 0.32089 0.26198 0.79694 0.0
C1785 C 0.31408 0.24894 0.89011 0.0
C1786 C 0.28641 0.25124 0.86727 0.0
C1787 C 0.26047 0.25784 0.79666 0.0
C1788 C 0.26349 0.26489 0.75029 0.0
C1789 C 0.2891 0.25697 0.82036 0.0
C1790 C 0.29552 0.27084 0.72763 0.0
C1791 C 0.3238 0.26909 0.7505 0.0
H1792 H 0.73478 0.25641 0.79075 0.0
H1793 H 0.76808 0.23101 0.91446 0.0
H1794 H 0.82335 0.23715 0.87881 0.0
H1795 H 0.86337 0.25279 0.81463 0.0
H1796 H 0.83119 0.2804 0.69235 0.0
H1797 H 0.77491 0.27222 0.72669 0.0
C1798 C 0.75408 0.25219 0.81 0.0
C1799 C 0.74717 0.24293 0.85507 0.0
C1800 C 0.78631 0.25703 0.79009 0.0
C1801 C 0.77228 0.23726 0.87928 0.0
C1802 C 0.80418 0.24129 0.85921 0.0
C1803 C 0.84401 0.25688 0.79529 0.0
C1804 C 0.85154 0.26749 0.75107 0.0
C1805 C 0.81158 0.25158 0.81492 0.0
C1806 C 0.82638 0.27298 0.72678 0.0
C1807 C 0.79395 0.26782 0.74613 0.0
H1808 H 0.86047 0.79965 0.37225 0.0
H1809 H 0.8213 0.68295 0.30359 0.0
H1810 H 0.76952 0.68019 0.26179 0.0
H1811 H 0.73526 0.711 0.24348 0.0
H1812 H 0.77372 0.82744 0.3127 0.0
H1813 H 0.82579 0.83044 0.35433 0.0
C1814 C 0.84095 0.77388 0.34745 0.0
C1815 C 0.84463 0.74153 0.34137 0.0
C1816 C 0.81094 0.77239 0.3234 0.0
C1817 C 0.81881 0.70816 0.30952 0.0
C1818 C 0.78914 0.70651 0.28547 0.0
C1819 C 0.75474 0.73682 0.26824 0.0
C1820 C 0.75094 0.76909 0.27423 0.0
C1821 C 0.78469 0.73835 0.29238 0.0
C1822 C 0.77654 0.80242 0.30637 0.0
C1823 C 0.80631 0.80416 0.33044 0.0
H1824 H 0.5092 0.55543 0.59142 0.0
H1825 H 0.61441 0.57933 0.65035 0.0
H1826 H 0.61446 0.53039 0.58422 0.0
H1827 H 0.58337 0.47922 0.51064 0.0
H1828 H 0.47799 0.45593 0.4528 0.0
H1829 H 0.47968 0.50678 0.51643 0.0
C1830 C 0.53212 0.54989 0.58967 0.0
C1831 C 0.56168 0.57073 0.6256 0.0
C1832 C 0.53212 0.5221 0.55137 0.0
C1833 C 0.59144 0.56368 0.62277 0.0
C1834 C 0.59146 0.53571 0.58505 0.0
C1835 C 0.56109 0.48571 0.51173 0.0
C1836 C 0.53053 0.46381 0.47729 0.0
C1837 C 0.56189 0.51464 0.54914 0.0
C1838 C 0.50166 0.47222 0.47922 0.0
C1839 C 0.50254 0.50123 0.51564 0.0
H1840 H 0.05306 0.54254 0.98898 0.0
H1841 H 0.97285 0.53113 0.09115 0.0
H1842 H 0.98878 0.49117 0.12573 0.0
H1843 H 0.02699 0.4619 0.1279 0.0
H1844 H 0.10824 0.4747 1.02681 0.0
H1845 H 0.09143 0.51366 0.99132 0.0
C1846 C 0.03812 0.53028 1.01748 0.0
C1847 C 0.01055 0.53802 1.03594 0.0
C1848 C 0.0487 0.50912 1.03844 0.0
C1849 C -0.00722 0.52363 0.07481 0.0
C1850 C 0.00238 0.5015 0.0951 0.0
C1851 C 0.04138 0.47352 0.09866 0.0
C1852 C 0.06925 0.4662 0.08045 0.0
C1853 C 0.03074 0.49465 0.07765 0.0
C1854 C 0.08753 0.48129 1.04229 0.0
C1855 C 0.07753 0.50294 1.02158 0.0
H1856 H 0.10156 0.12653 0.4048 0.0
H1857 H 0.10879 0.22212 0.36128 0.0
H1858 H 0.14575 0.26331 0.43553 0.0
H1859 H 0.17703 0.27426 0.51484 0.0
H1860 H 0.1725 0.18171 0.56105 0.0
H1861 H 0.13393 0.13834 0.48693 0.0
C1862 C 0.11109 0.15635 0.4114 0.0
C1863 C 0.10254 0.17042 0.37457 0.0
C1864 C 0.13243 0.18089 0.45657 0.0
C1865 C 0.11518 0.20946 0.38602 0.0
C1866 C 0.13655 0.23357 0.4296 0.0
C1867 C 0.1668 0.24441 0.50991 0.0
C1868 C 0.17343 0.23107 0.54896 0.0
C1869 C 0.14557 0.21983 0.46528 0.0
C1870 C 0.16277 0.19255 0.53739 0.0
C1871 C 0.14194 0.16781 0.49303 0.0
H1872 H 0.23975 0.82091 0.58892 0.0
H1873 H 0.16252 0.82204 0.49556 0.0
H1874 H 0.15982 0.87194 0.55253 0.0
H1875 H 0.17203 0.90872 0.63414 0.0
H1876 H 0.23445 0.89632 0.74039 0.0
H1877 H 0.24844 0.85531 0.67627 0.0
C1878 C 0.22308 0.83286 0.58082 0.0
C1879 C 0.20393 0.82047 0.53431 0.0
C1880 C 0.21778 0.85814 0.61812 0.0
C1881 C 0.1807 0.83431 0.52694 0.0
C1882 C 0.17814 0.86194 0.56108 0.0
C1883 C 0.18921 0.8975 0.64311 0.0
C1884 C 0.20287 0.90584 0.69109 0.0
C1885 C 0.19574 0.87329 0.60717 0.0
C1886 C 0.22404 0.89031 0.70307 0.0
C1887 C 0.23206 0.86706 0.66652 0.0
H1888 H 0.54559 0.91407 0.91464 0.0
H1889 H 0.46865 0.79581 0.87625 0.0
H1890 H 0.48752 0.79195 0.79399 0.0
H1891 H 0.52855 0.82137 0.73281 0.0
H1892 H 0.60103 0.94011 0.76967 0.0
H1893 H 0.58237 0.94421 0.85211 0.0
C1894 C 0.53303 0.88717 0.88859 0.0
C1895 C 0.50569 0.85514 0.90277 0.0
C1896 C 0.54419 0.88497 0.84086 0.0
C1897 C 0.4903 0.8208 0.86769 0.0
C1898 C 0.50133 0.81848 0.82031 0.0
C1899 C 0.54033 0.84798 0.75895 0.0
C1900 C 0.56632 0.88024 0.74443 0.0
C1901 C 0.52864 0.8502 0.80651 0.0
C1902 C 0.58084 0.91476 0.77901 0.0
C1903 C 0.57019 0.91709 0.82652 0.0
H1904 H 0.39852 0.08299 0.23413 0.0
H1905 H 0.28949 0.99579 0.2427 0.0
H1906 H 0.26556 0.01325 0.18124 0.0
H1907 H 0.27436 0.05593 0.13007 0.0
H1908 H 0.38192 0.14534 0.12296 0.0
H1909 H 0.4078 0.12468 0.17939 0.0
C1910 C 0.36947 0.06814 0.22301 0.0
C1911 C 0.3458 0.03838 0.24349 0.0
C1912 C 0.35564 0.07887 0.1883 0.0
C1913 C 0.30839 0.01866 0.22748 0.0
C1914 C 0.29459 0.02873 0.19252 0.0
C1915 C 0.30347 0.07085 0.14101 0.0
C1916 C 0.32618 0.10237 0.12356 0.0
C1917 C 0.31781 0.05915 0.17348 0.0
C1918 C 0.36399 0.12108 0.13654 0.0
C1919 C 0.37868 0.10937 0.1688 0.0
H1920 H 0.91967 0.72208 0.60508 0.0
H1921 H 0.93699 0.81785 0.5592 0.0
H1922 H 0.98216 0.85991 0.62794 0.0
H1923 H 0.01191 0.8685 0.70935 0.0
H1924 H 0.96905 0.77197 0.76938 0.0
H1925 H 0.93586 0.73172 0.69334 0.0
C1926 C 0.93372 0.7522 0.60943 0.0
C1927 C 0.93151 0.76717 0.56966 0.0
C1928 C 0.95322 0.77593 0.65541 0.0
C1929 C 0.94664 0.8061 0.58061 0.0
C1930 C 0.96972 0.82984 0.62327 0.0
C1931 C -0.00504 0.83873 0.70636 0.0
C1932 C -0.00556 0.82425 0.74751 0.0
C1933 C 0.97343 0.8151 0.66146 0.0
C1934 C 0.97189 0.78522 0.74066 0.0
C1935 C 0.95224 0.76152 0.69591 0.0
H1936 H 0.85134 0.15727 0.5808 0.0
H1937 H 0.96323 0.23677 0.58264 0.0
H1938 H 0.97176 0.1957 0.51492 0.0
H1939 H 0.94697 0.13833 0.45447 0.0
H1940 H 0.83246 0.05836 0.44155 0.0
H1941 H 0.82485 0.09684 0.51595 0.0
C1942 C 0.87785 0.16415 0.56795 0.0
C1943 C 0.90877 0.19771 0.59117 0.0
C1944 C 0.88143 0.14038 0.52672 0.0
C1945 C 0.94163 0.20867 0.57021 0.0
C1946 C 0.94573 0.18577 0.53022 0.0
C1947 C 0.92001 0.12949 0.467 0.0
C1948 C 0.89008 0.09639 0.44157 0.0
C1949 C 0.91589 0.15158 0.50839 0.0
C1950 C 0.85582 0.08435 0.46008 0.0
C1951 C 0.8515 0.1063 0.50248 0.0
H1952 H 0.58718 0.18864 0.24056 0.0
H1953 H 0.61015 0.09747 0.18636 0.0
H1954 H 0.58523 0.07136 0.25566 0.0
H1955 H 0.55968 0.07503 0.33591 0.0
H1956 H 0.5263 0.15808 0.38431 0.0
H1957 H 0.55138 0.18577 0.31487 0.0
C1958 C 0.58592 0.16252 0.24292 0.0
C1959 C 0.60148 0.14574 0.2068 0.0
C1960 C 0.57049 0.14654 0.28376 0.0
C1961 C 0.59902 0.11174 0.21248 0.0
C1962 C 0.58483 0.09663 0.25285 0.0
C1963 C 0.55844 0.09965 0.33196 0.0
C1964 C 0.54446 0.11701 0.36938 0.0
C1965 C 0.57122 0.11409 0.28962 0.0
C1966 C 0.54095 0.14712 0.3603 0.0
C1967 C 0.55435 0.16217 0.31928 0.0
H1968 H 0.72771 0.92071 0.83454 0.0
H1969 H 0.68692 0.97869 0.94283 0.0
H1970 H 0.70079 0.95322 1.00467 0.0
H1971 H 0.73231 0.92162 1.0294 0.0
H1972 H 0.77554 0.86644 0.92103 0.0
H1973 H 0.7522 0.883 0.85733 0.0
C1974 C 0.72116 0.92716 0.87146 0.0
C1975 C 0.7069 0.95197 0.88439 0.0
C1976 C 0.72987 0.9131 0.90675 0.0
C1977 C 0.6987 0.96027 0.93239 0.0
C1978 C 0.70646 0.94561 0.96762 0.0
C1979 C 0.73572 0.91242 0.99167 0.0
C1980 C 0.75599 0.89334 0.97976 0.0
C1981 C 0.72321 0.92303 0.9555 0.0
C1982 C 0.76048 0.88169 0.9309 0.0
C1983 C 0.74727 0.89124 0.8946 0.0
H1984 H 0.59596 0.73013 0.88617 0.0
H1985 H 0.57803 0.61868 0.87804 0.0
H1986 H 0.61362 0.64055 0.95716 0.0
H1987 H 0.65338 0.69313 1.02816 0.0
H1988 H 0.67412 0.80449 1.03115 0.0
H1989 H 0.63863 0.78214 0.95387 0.0
C1990 C 0.6001 0.71054 0.90127 0.0
C1991 C 0.58475 0.67263 0.87437 0.0
C1992 C 0.62184 0.72366 0.94677 0.0
C1993 C 0.59008 0.64807 0.89632 0.0
C1994 C 0.61046 0.66069 0.9422 0.0
C1995 C 0.64735 0.71193 1.01517 0.0
C1996 C 0.66279 0.75009 1.04203 0.0
C1997 C 0.62648 0.69857 0.96841 0.0
C1998 C 0.66095 0.77459 1.01557 0.0
C1999 C 0.64024 0.7618 0.97035 0.0
H2000 H 0.73231 0.42615 0.15586 0.0
H2001 H 0.61494 0.3634 0.15271 0.0
H2002 H 0.61281 0.31733 0.08227 0.0
H2003 H 0.6426 0.29702 1.01829 0.0
H2004 H 0.75987 0.35253 1.02472 0.0
H2005 H 0.76355 0.40175 0.09426 0.0
C2006 C 0.70627 0.4029 0.13873 0.0
C2007 C 0.67388 0.39819 0.15924 0.0
C2008 C 0.70494 0.37677 0.09706 0.0
C2009 C 0.64031 0.36745 0.1378 0.0
C2010 C 0.63888 0.34152 0.09681 0.0
C2011 C 0.66893 0.32048 1.03403 0.0
C2012 C 0.70086 0.32272 1.01514 0.0
C2013 C 0.67076 0.34646 0.07549 0.0
C2014 C 0.73497 0.35161 1.03773 0.0
C2015 C 0.73701 0.3793 0.07762 0.0
H2016 H 0.05026 0.426 0.27073 0.0
H2017 H 0.07572 0.33723 0.24145 0.0
H2018 H 0.0483 0.31661 0.31358 0.0
H2019 H 0.013 0.32129 0.38387 0.0
H2020 H -0.0057 0.41645 0.42 0.0
H2021 H 0.02084 0.43577 0.34697 0.0
C2022 C 0.04701 0.40022 0.27781 0.0
C2023 C 0.05934 0.37838 0.24472 0.0
C2024 C 0.03218 0.38976 0.32159 0.0
C2025 C 0.06054 0.3495 0.26057 0.0
C2026 C 0.04597 0.33879 0.30309 0.0
C2027 C 0.01519 0.34659 0.3764 0.0
C2028 C 0.00082 0.3668 0.40807 0.0
C2029 C 0.03077 0.35801 0.33362 0.0
C2030 C 0.00444 0.39968 0.39664 0.0
C2031 C 0.01958 0.41084 0.35435 0.0
H2032 H 0.91744 0.59825 0.7406 0.0
H2033 H 0.81013 0.51208 0.75612 0.0
H2034 H 0.78258 0.53355 0.70367 0.0
H2035 H 0.78909 0.57585 0.6524 0.0
H2036 H 0.89607 0.66129 0.63398 0.0
H2037 H 0.92395 0.64106 0.68814 0.0
C2038 C 0.88806 0.58455 0.73255 0.0
C2039 C 0.86559 0.55393 0.75208 0.0
C2040 C 0.87252 0.59673 0.70175 0.0
C2041 C 0.82765 0.53586 0.74142 0.0
C2042 C 0.81199 0.54804 0.71144 0.0
C2043 C 0.8185 0.59022 0.66057 0.0
C2044 C 0.84049 0.62022 0.63972 0.0
C2045 C 0.83416 0.5783 0.69127 0.0
C2046 C 0.87861 0.63808 0.64964 0.0
C2047 C 0.89451 0.62661 0.68069 0.0
H2048 H 0.52199 0.3186 0.20421 0.0
H2049 H 0.4545 0.36724 0.25533 0.0
H2050 H 0.40935 0.32758 0.185 0.0
H2051 H 0.39071 0.27909 0.10252 0.0
H2052 H 0.4753 0.25591 1.04449 0.0
H2053 H 0.51228 0.28704 0.11824 0.0
C2054 C 0.49709 0.32031 0.20098 0.0
C2055 C 0.48878 0.34153 0.24089 0.0
C2056 C 0.47455 0.30231 0.15601 0.0
C2057 C 0.45819 0.34579 0.2315 0.0
C2058 C 0.43341 0.32453 0.18887 0.0
C2059 C 0.41718 0.28062 0.10565 0.0
C2060 C 0.42799 0.26189 0.06489 0.0
C2061 C 0.44101 0.30197 0.15033 0.0
C2062 C 0.46346 0.26684 0.07203 0.0
C2063 C 0.48573 0.28554 0.11596 0.0
H2064 H 0.34616 0.64435 0.0735 0.0
H2065 H 0.44258 0.73913 1.05106 0.0
H2066 H 0.45209 0.70168 0.9805 0.0
H2067 H 0.44046 0.64082 0.93554 0.0
H2068 H 0.3416 0.54263 0.95023 0.0
H2069 H 0.32782 0.58123 1.01719 0.0
C2070 C 0.37064 0.65578 1.05552 0.0
C2071 C 0.39728 0.69345 0.0726 0.0
C2072 C 0.37608 0.63316 1.01456 0.0
C2073 C 0.4245 0.70957 1.04248 0.0
C2074 C 0.42958 0.68814 1.00145 0.0
C2075 C 0.41516 0.62751 0.95182 0.0
C2076 C 0.39249 0.58862 0.93781 0.0
C2077 C 0.4069 0.6496 0.98902 0.0
C2078 C 0.36029 0.57242 0.96098 0.0
C2079 C 0.35217 0.59452 0.99908 0.0
H2080 H 0.05743 0.59477 0.69822 0.0
H2081 H 0.1287 0.71415 0.74172 0.0
H2082 H 0.10682 0.71493 0.82279 0.0
H2083 H 0.06642 0.68119 0.88204 0.0
H2084 H -0.00328 0.56212 0.83788 0.0
H2085 H 0.01899 0.56153 0.75724 0.0
C2086 C 0.06838 0.62114 0.72526 0.0
C2087 C 0.09501 0.65445 0.71292 0.0
C2088 C 0.05589 0.6213 0.77227 0.0
C2089 C 0.10796 0.68813 0.74906 0.0
C2090 C 0.09553 0.68852 0.79585 0.0
C2091 C 0.05645 0.65519 0.85496 0.0
C2092 C 0.03069 0.62159 0.86719 0.0
C2093 C 0.06947 0.65525 0.80804 0.0
C2094 C 0.01756 0.58818 0.83071 0.0
C2095 C 0.03005 0.58795 0.7842 0.0
H2096 H 0.19977 0.46932 0.42761 0.0
H2097 H 0.2201 0.40778 0.29757 0.0
H2098 H 0.23619 0.3751 0.34547 0.0
H2099 H 0.25317 0.37055 0.42487 0.0
H2100 H 0.24104 0.43872 0.55513 0.0
H2101 H 0.21307 0.46191 0.50674 0.0
C2102 C 0.20766 0.44872 0.40966 0.0
C2103 C 0.2094 0.44175 0.3591 0.0
C2104 C 0.21874 0.43133 0.43763 0.0
C2105 C 0.21831 0.41383 0.33636 0.0
C2106 C 0.22793 0.39527 0.36382 0.0
C2107 C 0.24444 0.39051 0.44262 0.0
C2108 C 0.24973 0.40325 0.49341 0.0
C2109 C 0.22972 0.40496 0.41456 0.0
C2110 C 0.23721 0.42825 0.51605 0.0
C2111 C 0.22141 0.44178 0.48841 0.0
loop_
_geom_bond_atom_site_label_1
_geom_bond_atom_site_label_2
_geom_bond_distance
_geom_bond_site_symmetry_2
_ccdc_geom_bond_type
Gd0 N31 2.661 . S
Gd0 N37 2.601 . S
Gd0 O44 2.545 . S
Gd0 O45 2.606 1_655 S
Gd0 O47 2.429 . S
Gd0 O48 2.545 1_655 S
Gd0 O49 2.412 . S
Gd0 O51 2.356 1_655 S
Gd0 O52 2.324 1_655 S
Gd0 C59 2.828 . S
Gd1 N10 2.661 . S
Gd1 N14 2.601 . S
Gd1 O45 2.362 . S
Gd1 O46 2.324 . S
Gd1 O50 2.545 . S
Gd1 O51 2.628 . S
Gd1 O53 2.429 . S
Gd1 O54 2.545 . S
Gd1 O55 2.412 . S
Gd1 C68 2.828 . S
C2 C5 1.417 . S
C2 C7 1.431 . S
C2 C8 1.412 . S
C3 C6 1.437 . S
C3 C7 1.317 . S
C3 H22 0.929 . S
C4 C5 1.426 . S
C4 C6 1.413 . S
C4 N14 1.359 . S
C5 C2 1.417 . S
C5 C4 1.426 . S
C5 N10 1.350 . S
C6 C3 1.437 . S
C6 C4 1.413 . S
C6 C16 1.391 . S
C7 C2 1.431 . S
C7 C3 1.317 . S
C7 H18 0.930 . S
C8 C2 1.412 . S
C8 C9 1.355 . S
C8 H20 0.930 . S
C9 C8 1.355 . S
C9 C11 1.402 . S
C9 H21 0.930 . S
N10 Gd1 2.661 . S
N10 C5 1.350 . S
N10 C11 1.307 . S
C11 C9 1.402 . S
C11 N10 1.307 . S
C11 H12 0.930 . S
H12 C11 0.930 . S
C13 N14 1.334 . S
C13 C15 1.394 . S
C13 H17 0.930 . S
N14 Gd1 2.601 . S
N14 C4 1.359 . S
N14 C13 1.334 . S
C15 C13 1.394 . S
C15 C16 1.359 . S
C15 H27 0.930 . S
C16 C6 1.391 . S
C16 C15 1.359 . S
C16 H28 0.929 . S
H17 C13 0.930 . S
H18 C7 0.930 . S
H19 C36 0.930 . S
H20 C8 0.930 . S
H21 C9 0.930 . S
H22 C3 0.929 . S
H23 C41 0.930 . S
H24 C32 0.930 . S
H25 C33 0.930 . S
H26 C57 0.929 1_565 S
H27 C15 0.930 . S
H28 C16 0.929 . S
H29 C58 0.930 . S
H30 C39 0.930 . S
N31 Gd0 2.661 . S
N31 C35 1.350 . S
N31 C36 1.307 . S
C32 H24 0.930 . S
C32 C33 1.355 . S
C32 C34 1.412 . S
C33 H25 0.930 . S
C33 C32 1.355 . S
C33 C36 1.402 . S
C34 C32 1.412 . S
C34 C35 1.417 . S
C34 C58 1.431 . S
C35 N31 1.350 . S
C35 C34 1.417 . S
C35 C38 1.426 . S
C36 H19 0.930 . S
C36 N31 1.307 . S
C36 C33 1.402 . S
N37 Gd0 2.601 . S
N37 C38 1.359 . S
N37 C41 1.334 . S
C38 C35 1.426 . S
C38 N37 1.359 . S
C38 C42 1.413 . S
C39 H30 0.930 . S
C39 C40 1.359 . S
C39 C41 1.394 1_565 S
C40 C39 1.359 . S
C40 C42 1.391 1_565 S
C40 H43 0.929 . S
C41 H23 0.930 . S
C41 N37 1.334 . S
C41 C39 1.394 1_545 S
C42 C38 1.413 . S
C42 C40 1.391 1_545 S
C42 C57 1.437 . S
H43 C40 0.929 . S
O44 Gd0 2.545 . S
O44 C59 1.258 . S
O45 Gd0 2.606 1_455 S
O45 Gd1 2.362 . S
O45 C56 1.284 . S
O46 Gd1 2.324 . S
O46 C66 1.254 . S
O47 Gd0 2.429 . S
O47 C66 1.268 1_655 S
O48 Gd0 2.545 1_455 S
O48 C56 1.250 . S
O49 Gd0 2.412 . S
O49 C59 1.252 . S
O50 Gd1 2.545 . S
O50 C68 1.258 . S
O51 Gd0 2.356 1_455 S
O51 Gd1 2.628 . S
O51 C67 1.284 . S
O52 Gd0 2.324 1_455 S
O52 C75 1.254 . S
O53 Gd1 2.429 . S
O53 C75 1.268 . S
O54 Gd1 2.545 . S
O54 C67 1.261 . S
O55 Gd1 2.412 . S
O55 C68 1.252 . S
C56 O45 1.284 . S
C56 O48 1.250 . S
C57 H26 0.929 1_545 S
C57 C42 1.437 . S
C57 C58 1.317 . S
C58 H29 0.930 . S
C58 C34 1.431 . S
C58 C57 1.317 . S
C59 Gd0 2.828 . S
C59 O44 1.258 . S
C59 O49 1.252 . S
C59 C60 1.497 . S
C60 C59 1.497 . S
C60 C61 1.395 . S
C60 C62 1.380 . S
C61 C60 1.395 . S
C61 C64 1.398 . S
C61 H76 0.930 . S
C62 C60 1.380 . S
C62 C63 1.391 . S
C62 H77 0.930 . S
C63 C62 1.391 . S
C63 C65 1.387 . S
C64 C61 1.398 . S
C64 C65 1.380 . S
C64 H78 0.930 . S
C65 C63 1.387 . S
C65 C64 1.380 . S
C65 H79 0.930 . S
C66 O46 1.254 . S
C66 O47 1.268 1_455 S
C67 O51 1.284 . S
C67 O54 1.261 . S
C68 Gd1 2.828 . S
C68 O50 1.258 . S
C68 O55 1.252 . S
C68 C69 1.497 . S
C69 C68 1.497 . S
C69 C70 1.395 . S
C69 C71 1.380 1_554 S
C70 C69 1.395 . S
C70 C73 1.398 1_554 S
C70 H80 0.930 . S
C71 C69 1.380 1_556 S
C71 C72 1.391 . S
C71 H81 0.930 . S
C72 C71 1.391 . S
C72 C74 1.387 . S
C73 C70 1.398 1_556 S
C73 C74 1.380 . S
C73 H82 0.930 . S
C74 C72 1.387 . S
C74 C73 1.380 . S
C74 H83 0.930 . S
C75 O52 1.254 . S
C75 O53 1.268 . S
H76 C61 0.930 . S
H77 C62 0.930 . S
H78 C64 0.930 . S
H79 C65 0.930 . S
H80 C70 0.930 . S
H81 C71 0.930 . S
H82 C73 0.930 . S
H83 C74 0.930 . S
Gd84 N115 2.661 . S
Gd84 N121 2.601 . S
Gd84 O128 2.545 . S
Gd84 O129 2.606 . S
Gd84 O131 2.429 . S
Gd84 O132 2.545 . S
Gd84 O133 2.412 . S
Gd84 O135 2.362 . S
Gd84 O136 2.324 . S
Gd84 C143 2.828 . S
Gd85 N94 2.661 . S
Gd85 N98 2.601 . S
Gd85 O129 2.362 . S
Gd85 O130 2.324 . S
Gd85 O134 2.545 . S
Gd85 O135 2.606 . S
Gd85 O137 2.429 . S
Gd85 O138 2.545 . S
Gd85 O139 2.412 . S
Gd85 C152 2.828 . S
C86 C89 1.417 . S
C86 C91 1.431 . S
C86 C92 1.412 . S
C87 C90 1.437 . S
C87 C91 1.317 . S
C87 H106 0.929 . S
C88 C89 1.426 . S
C88 C90 1.413 . S
C88 N98 1.359 . S
C89 C86 1.417 . S
C89 C88 1.426 . S
C89 N94 1.350 . S
C90 C87 1.437 . S
C90 C88 1.413 . S
C90 C100 1.391 . S
C91 C86 1.431 . S
C91 C87 1.317 . S
C91 H102 0.930 . S
C92 C86 1.412 . S
C92 C93 1.355 . S
C92 H104 0.930 . S
C93 C92 1.355 . S
C93 C95 1.402 . S
C93 H105 0.930 . S
N94 Gd85 2.661 . S
N94 C89 1.350 . S
N94 C95 1.307 . S
C95 C93 1.402 . S
C95 N94 1.307 . S
C95 H96 0.930 . S
H96 C95 0.930 . S
C97 N98 1.334 . S
C97 C99 1.394 . S
C97 H101 0.930 . S
N98 Gd85 2.601 . S
N98 C88 1.359 . S
N98 C97 1.334 . S
C99 C97 1.394 . S
C99 C100 1.359 . S
C99 H111 0.930 . S
C100 C90 1.391 . S
C100 C99 1.359 . S
C100 H112 0.929 . S
H101 C97 0.930 . S
H102 C91 0.930 . S
H103 C120 0.930 . S
H104 C92 0.930 . S
H105 C93 0.930 . S
H106 C87 0.929 . S
H107 C125 0.930 . S
H108 C116 0.930 . S
H109 C117 0.930 . S
H110 C141 0.929 . S
H111 C99 0.930 . S
H112 C100 0.929 . S
H113 C142 0.930 . S
H114 C123 0.930 . S
N115 Gd84 2.661 . S
N115 C119 1.350 . S
N115 C120 1.307 . S
C116 H108 0.930 . S
C116 C117 1.355 . S
C116 C118 1.412 . S
C117 H109 0.930 . S
C117 C116 1.355 . S
C117 C120 1.402 . S
C118 C116 1.412 . S
C118 C119 1.417 . S
C118 C142 1.431 . S
C119 N115 1.350 . S
C119 C118 1.417 . S
C119 C122 1.426 . S
C120 H103 0.930 . S
C120 N115 1.307 . S
C120 C117 1.402 . S
N121 Gd84 2.601 . S
N121 C122 1.359 . S
N121 C125 1.334 . S
C122 C119 1.426 . S
C122 N121 1.359 . S
C122 C126 1.413 . S
C123 H114 0.930 . S
C123 C124 1.359 . S
C123 C125 1.394 . S
C124 C123 1.359 . S
C124 C126 1.391 . S
C124 H127 0.929 . S
C125 H107 0.930 . S
C125 N121 1.334 . S
C125 C123 1.394 . S
C126 C122 1.413 . S
C126 C124 1.391 . S
C126 C141 1.437 . S
H127 C124 0.929 . S
O128 Gd84 2.545 . S
O128 C143 1.258 . S
O129 Gd84 2.606 . S
O129 Gd85 2.362 . S
O129 C140 1.284 . S
O130 Gd85 2.324 . S
O130 C150 1.254 . S
O131 Gd84 2.429 . S
O131 C150 1.268 . S
O132 Gd84 2.545 . S
O132 C140 1.250 . S
O133 Gd84 2.412 . S
O133 C143 1.252 . S
O134 Gd85 2.545 . S
O134 C152 1.258 . S
O135 Gd84 2.362 . S
O135 Gd85 2.606 . S
O135 C151 1.284 . S
O136 Gd84 2.324 . S
O136 C159 1.254 . S
O137 Gd85 2.429 . S
O137 C159 1.268 . S
O138 Gd85 2.545 . S
O138 C151 1.250 . S
O139 Gd85 2.412 . S
O139 C152 1.252 . S
C140 O129 1.284 . S
C140 O132 1.250 . S
C141 H110 0.929 . S
C141 C126 1.437 . S
C141 C142 1.317 . S
C142 H113 0.930 . S
C142 C118 1.431 . S
C142 C141 1.317 . S
C143 Gd84 2.828 . S
C143 O128 1.258 . S
C143 O133 1.252 . S
C143 C144 1.497 . S
C144 C143 1.497 . S
C144 C145 1.395 . S
C144 C146 1.380 . S
C145 C144 1.395 . S
C145 C148 1.398 . S
C145 H160 0.930 . S
C146 C144 1.380 . S
C146 C147 1.391 . S
C146 H161 0.930 . S
C147 C146 1.391 . S
C147 C149 1.387 . S
C148 C145 1.398 . S
C148 C149 1.380 . S
C148 H162 0.930 . S
C149 C147 1.387 . S
C149 C148 1.380 . S
C149 H163 0.930 . S
C150 O130 1.254 . S
C150 O131 1.268 . S
C151 O135 1.284 . S
C151 O138 1.250 . S
C152 Gd85 2.828 . S
C152 O134 1.258 . S
C152 O139 1.252 . S
C152 C153 1.497 . S
C153 C152 1.497 . S
C153 C154 1.395 . S
C153 C155 1.380 . S
C154 C153 1.395 . S
C154 C157 1.398 . S
C154 H164 0.930 . S
C155 C153 1.380 . S
C155 C156 1.391 . S
C155 H165 0.930 . S
C156 C155 1.391 . S
C156 C158 1.387 . S
C157 C154 1.398 . S
C157 C158 1.380 . S
C157 H166 0.930 . S
C158 C156 1.387 . S
C158 C157 1.380 . S
C158 H167 0.930 . S
C159 O136 1.254 . S
C159 O137 1.268 . S
H160 C145 0.930 . S
H161 C146 0.930 . S
H162 C148 0.930 . S
H163 C149 0.930 . S
H164 C154 0.930 . S
H165 C155 0.930 . S
H166 C157 0.930 . S
H167 C158 0.930 . S
Gd168 N199 2.661 . S
Gd168 N205 2.601 1_565 S
Gd168 O212 2.545 1_565 S
Gd168 O213 2.606 . S
Gd168 O215 2.442 . S
Gd168 O216 2.545 . S
Gd168 O217 2.412 . S
Gd168 O219 2.362 . S
Gd168 O220 2.324 . S
Gd168 C227 2.828 . S
Gd169 N178 2.661 . S
Gd169 N182 2.601 . S
Gd169 O213 2.362 . S
Gd169 O214 2.324 . S
Gd169 O218 2.545 . S
Gd169 O219 2.606 . S
Gd169 O221 2.429 . S
Gd169 O222 2.545 . S
Gd169 O223 2.412 . S
Gd169 C236 2.828 . S
C170 C173 1.417 . S
C170 C175 1.431 . S
C170 C176 1.412 . S
C171 C174 1.437 . S
C171 C175 1.317 . S
C171 H190 0.929 . S
C172 C173 1.426 . S
C172 C174 1.413 . S
C172 N182 1.359 . S
C173 C170 1.417 . S
C173 C172 1.426 . S
C173 N178 1.350 . S
C174 C171 1.437 . S
C174 C172 1.413 . S
C174 C184 1.391 . S
C175 C170 1.431 . S
C175 C171 1.317 . S
C175 H186 0.930 . S
C176 C170 1.412 . S
C176 C177 1.355 . S
C176 H188 0.930 . S
C177 C176 1.355 . S
C177 C179 1.402 . S
C177 H189 0.930 . S
N178 Gd169 2.661 . S
N178 C173 1.350 . S
N178 C179 1.307 . S
C179 C177 1.402 . S
C179 N178 1.307 . S
C179 H180 0.930 . S
H180 C179 0.930 . S
C181 N182 1.334 . S
C181 C183 1.394 . S
C181 H185 0.930 . S
N182 Gd169 2.601 . S
N182 C172 1.359 . S
N182 C181 1.334 . S
C183 C181 1.394 . S
C183 C184 1.359 . S
C183 H195 0.930 . S
C184 C174 1.391 . S
C184 C183 1.359 . S
C184 H196 0.929 . S
H185 C181 0.930 . S
H186 C175 0.930 . S
H187 C204 0.930 . S
H188 C176 0.930 . S
H189 C177 0.930 . S
H190 C171 0.929 . S
H191 C209 0.930 . S
H192 C200 0.930 . S
H193 C201 0.930 . S
H194 C225 0.929 . S
H195 C183 0.930 . S
H196 C184 0.929 . S
H197 C226 0.930 . S
H198 C207 0.930 . S
N199 Gd168 2.661 . S
N199 C203 1.350 . S
N199 C204 1.307 . S
C200 H192 0.930 . S
C200 C201 1.355 . S
C200 C202 1.412 . S
C201 H193 0.930 . S
C201 C200 1.355 . S
C201 C204 1.402 . S
C202 C200 1.412 . S
C202 C203 1.417 . S
C202 C226 1.431 1_565 S
C203 N199 1.350 . S
C203 C202 1.417 . S
C203 C206 1.426 1_565 S
C204 H187 0.930 . S
C204 N199 1.307 . S
C204 C201 1.402 . S
N205 Gd168 2.601 1_545 S
N205 C206 1.359 . S
N205 C209 1.334 . S
C206 C203 1.426 1_545 S
C206 N205 1.359 . S
C206 C210 1.413 . S
C207 H198 0.930 . S
C207 C208 1.359 . S
C207 C209 1.394 . S
C208 C207 1.359 . S
C208 C210 1.391 . S
C208 H211 0.929 . S
C209 H191 0.930 . S
C209 N205 1.334 . S
C209 C207 1.394 . S
C210 C206 1.413 . S
C210 C208 1.391 . S
C210 C225 1.437 . S
H211 C208 0.929 . S
O212 Gd168 2.545 1_545 S
O212 C227 1.258 1_545 S
O213 Gd168 2.606 . S
O213 Gd169 2.362 . S
O213 C224 1.284 . S
O214 Gd169 2.324 . S
O214 C234 1.254 . S
O215 Gd168 2.442 . S
O215 C234 1.265 . S
O216 Gd168 2.545 . S
O216 C224 1.250 . S
O217 Gd168 2.412 . S
O217 C227 1.252 . S
O218 Gd169 2.545 . S
O218 C236 1.258 . S
O219 Gd168 2.362 . S
O219 Gd169 2.606 . S
O219 C235 1.284 . S
O220 Gd168 2.324 . S
O220 C243 1.254 . S
O221 Gd169 2.429 . S
O221 C243 1.268 . S
O222 Gd169 2.545 . S
O222 C235 1.250 . S
O223 Gd169 2.412 . S
O223 C236 1.252 . S
C224 O213 1.284 . S
C224 O216 1.250 . S
C225 H194 0.929 . S
C225 C210 1.437 . S
C225 C226 1.317 . S
C226 H197 0.930 . S
C226 C202 1.431 1_545 S
C226 C225 1.317 . S
C227 Gd168 2.828 . S
C227 O212 1.258 1_565 S
C227 O217 1.252 . S
C227 C228 1.498 1_565 S
C228 C227 1.498 1_545 S
C228 C229 1.401 . S
C228 C230 1.373 1_545 S
C229 C228 1.401 . S
C229 C232 1.398 . S
C229 H244 0.930 . S
C230 C228 1.373 1_565 S
C230 C231 1.391 . S
C230 H245 0.930 . S
C231 C230 1.391 . S
C231 C233 1.387 1_565 S
C232 C229 1.398 . S
C232 C233 1.380 . S
C232 H246 0.930 . S
C233 C231 1.387 1_545 S
C233 C232 1.380 . S
C233 H247 0.930 . S
C234 O214 1.254 . S
C234 O215 1.265 . S
C235 O219 1.284 . S
C235 O222 1.250 . S
C236 Gd169 2.828 . S
C236 O218 1.258 . S
C236 O223 1.252 . S
C236 C237 1.497 . S
C237 C236 1.497 . S
C237 C238 1.395 . S
C237 C239 1.380 . S
C238 C237 1.395 . S
C238 C241 1.398 . S
C238 H248 0.930 . S
C239 C237 1.380 . S
C239 C240 1.391 . S
C239 H249 0.930 . S
C240 C239 1.391 . S
C240 C242 1.387 . S
C241 C238 1.398 . S
C241 C242 1.380 . S
C241 H250 0.930 . S
C242 C240 1.387 . S
C242 C241 1.380 . S
C242 H251 0.930 . S
C243 O220 1.254 . S
C243 O221 1.268 . S
H244 C229 0.930 . S
H245 C230 0.930 . S
H246 C232 0.930 . S
H247 C233 0.930 . S
H248 C238 0.930 . S
H249 C239 0.930 . S
H250 C241 0.930 . S
H251 C242 0.930 . S
Gd252 N283 2.661 . S
Gd252 N289 2.601 . S
Gd252 O296 2.545 . S
Gd252 O297 2.606 . S
Gd252 O299 2.429 . S
Gd252 O300 2.545 . S
Gd252 O301 2.412 . S
Gd252 O303 2.362 . S
Gd252 O304 2.324 . S
Gd252 C311 2.828 . S
Gd253 N262 2.661 . S
Gd253 N266 2.601 . S
Gd253 O297 2.362 . S
Gd253 O298 2.324 . S
Gd253 O302 2.545 . S
Gd253 O303 2.606 . S
Gd253 O305 2.429 . S
Gd253 O306 2.545 . S
Gd253 O307 2.412 . S
Gd253 C320 2.828 . S
C254 C257 1.417 . S
C254 C259 1.431 . S
C254 C260 1.412 . S
C255 C258 1.437 . S
C255 C259 1.317 . S
C255 H274 0.929 1_545 S
C256 C257 1.426 . S
C256 C258 1.413 . S
C256 N266 1.359 . S
C257 C254 1.417 . S
C257 C256 1.426 . S
C257 N262 1.350 . S
C258 C255 1.437 . S
C258 C256 1.413 . S
C258 C268 1.391 . S
C259 C254 1.431 . S
C259 C255 1.317 . S
C259 H270 0.930 1_545 S
C260 C254 1.412 . S
C260 C261 1.355 . S
C260 H272 0.930 . S
C261 C260 1.355 . S
C261 C263 1.402 . S
C261 H273 0.930 . S
N262 Gd253 2.661 . S
N262 C257 1.350 . S
N262 C263 1.307 . S
C263 C261 1.402 . S
C263 N262 1.307 . S
C263 H264 0.930 . S
H264 C263 0.930 . S
C265 N266 1.334 . S
C265 C267 1.394 . S
C265 H269 0.930 . S
N266 Gd253 2.601 . S
N266 C256 1.359 . S
N266 C265 1.334 . S
C267 C265 1.394 . S
C267 C268 1.359 . S
C267 H279 0.930 . S
C268 C258 1.391 . S
C268 C267 1.359 . S
C268 H280 0.929 . S
H269 C265 0.930 . S
H270 C259 0.930 1_565 S
H271 C288 0.930 . S
H272 C260 0.930 . S
H273 C261 0.930 . S
H274 C255 0.929 1_565 S
H275 C293 0.930 . S
H276 C284 0.930 . S
H277 C285 0.930 . S
H278 C309 0.929 . S
H279 C267 0.930 . S
H280 C268 0.929 . S
H281 C310 0.930 . S
H282 C291 0.930 . S
N283 Gd252 2.661 . S
N283 C287 1.350 . S
N283 C288 1.307 . S
C284 H276 0.930 . S
C284 C285 1.355 . S
C284 C286 1.412 . S
C285 H277 0.930 . S
C285 C284 1.355 . S
C285 C288 1.402 . S
C286 C284 1.412 . S
C286 C287 1.417 . S
C286 C310 1.431 . S
C287 N283 1.350 . S
C287 C286 1.417 . S
C287 C290 1.426 . S
C288 H271 0.930 . S
C288 N283 1.307 . S
C288 C285 1.402 . S
N289 Gd252 2.601 . S
N289 C290 1.359 . S
N289 C293 1.334 . S
C290 C287 1.426 . S
C290 N289 1.359 . S
C290 C294 1.413 . S
C291 H282 0.930 . S
C291 C292 1.359 . S
C291 C293 1.394 . S
C292 C291 1.359 . S
C292 C294 1.391 . S
C292 H295 0.929 . S
C293 H275 0.930 . S
C293 N289 1.334 . S
C293 C291 1.394 . S
C294 C290 1.413 . S
C294 C292 1.391 . S
C294 C309 1.437 . S
H295 C292 0.929 . S
O296 Gd252 2.545 . S
O296 C311 1.258 . S
O297 Gd252 2.606 . S
O297 Gd253 2.362 . S
O297 C308 1.284 . S
O298 Gd253 2.324 . S
O298 C318 1.254 . S
O299 Gd252 2.429 . S
O299 C318 1.268 . S
O300 Gd252 2.545 . S
O300 C308 1.250 . S
O301 Gd252 2.412 . S
O301 C311 1.252 . S
O302 Gd253 2.545 . S
O302 C320 1.258 . S
O303 Gd252 2.362 . S
O303 Gd253 2.606 . S
O303 C319 1.284 . S
O304 Gd252 2.324 . S
O304 C327 1.254 . S
O305 Gd253 2.429 . S
O305 C327 1.268 . S
O306 Gd253 2.545 . S
O306 C319 1.250 . S
O307 Gd253 2.412 . S
O307 C320 1.252 . S
C308 O297 1.284 . S
C308 O300 1.250 . S
C309 H278 0.929 . S
C309 C294 1.437 . S
C309 C310 1.317 . S
C310 H281 0.930 . S
C310 C286 1.431 . S
C310 C309 1.317 . S
C311 Gd252 2.828 . S
C311 O296 1.258 . S
C311 O301 1.252 . S
C311 C312 1.497 . S
C312 C311 1.497 . S
C312 C313 1.395 . S
C312 C314 1.380 . S
C313 C312 1.395 . S
C313 C316 1.398 . S
C313 H328 0.930 . S
C314 C312 1.380 . S
C314 C315 1.391 . S
C314 H329 0.930 . S
C315 C314 1.391 . S
C315 C317 1.387 . S
C316 C313 1.398 . S
C316 C317 1.380 . S
C316 H330 0.930 . S
C317 C315 1.387 . S
C317 C316 1.380 . S
C317 H331 0.930 . S
C318 O298 1.254 . S
C318 O299 1.268 . S
C319 O303 1.284 . S
C319 O306 1.250 . S
C320 Gd253 2.828 . S
C320 O302 1.258 . S
C320 O307 1.252 . S
C320 C321 1.497 . S
C321 C320 1.497 . S
C321 C322 1.395 . S
C321 C323 1.380 1_556 S
C322 C321 1.395 . S
C322 C325 1.398 1_556 S
C322 H332 0.930 . S
C323 C321 1.380 1_554 S
C323 C324 1.391 . S
C323 H333 0.930 . S
C324 C323 1.391 . S
C324 C326 1.387 . S
C325 C322 1.398 1_554 S
C325 C326 1.380 . S
C325 H334 0.930 . S
C326 C324 1.387 . S
C326 C325 1.380 . S
C326 H335 0.930 . S
C327 O304 1.254 . S
C327 O305 1.268 . S
H328 C313 0.930 . S
H329 C314 0.930 . S
H330 C316 0.930 . S
H331 C317 0.930 . S
H332 C322 0.930 . S
H333 C323 0.930 . S
H334 C325 0.930 . S
H335 C326 0.930 . S
Gd336 N367 2.661 1_455 S
Gd336 N373 2.601 1_455 S
Gd336 O380 2.545 . S
Gd336 O381 2.606 . S
Gd336 O383 2.429 . S
Gd336 O384 2.545 . S
Gd336 O385 2.412 . S
Gd336 O387 2.362 . S
Gd336 O388 2.324 . S
Gd336 C395 2.828 1_455 S
Gd337 N346 2.661 . S
Gd337 N350 2.601 . S
Gd337 O381 2.362 . S
Gd337 O382 2.324 . S
Gd337 O386 2.545 . S
Gd337 O387 2.606 . S
Gd337 O389 2.429 . S
Gd337 O390 2.545 . S
Gd337 O391 2.412 . S
Gd337 C404 2.828 . S
C338 C341 1.417 . S
C338 C343 1.431 . S
C338 C344 1.412 . S
C339 C342 1.437 . S
C339 C343 1.317 . S
C339 H358 0.929 1_565 S
C340 C341 1.426 . S
C340 C342 1.413 . S
C340 N350 1.359 . S
C341 C338 1.417 . S
C341 C340 1.426 . S
C341 N346 1.350 . S
C342 C339 1.437 . S
C342 C340 1.413 . S
C342 C352 1.391 1_565 S
C343 C338 1.431 . S
C343 C339 1.317 . S
C343 H354 0.930 . S
C344 C338 1.412 . S
C344 C345 1.355 . S
C344 H356 0.930 . S
C345 C344 1.355 . S
C345 C347 1.402 . S
C345 H357 0.930 . S
N346 Gd337 2.661 . S
N346 C341 1.350 . S
N346 C347 1.307 . S
C347 C345 1.402 . S
C347 N346 1.307 . S
C347 H348 0.930 . S
H348 C347 0.930 . S
C349 N350 1.334 . S
C349 C351 1.394 1_565 S
C349 H353 0.930 . S
N350 Gd337 2.601 . S
N350 C340 1.359 . S
N350 C349 1.334 . S
C351 C349 1.394 1_545 S
C351 C352 1.359 . S
C351 H363 0.930 . S
C352 C342 1.391 1_545 S
C352 C351 1.359 . S
C352 H364 0.929 . S
H353 C349 0.930 . S
H354 C343 0.930 . S
H355 C372 0.930 1_455 S
H356 C344 0.930 . S
H357 C345 0.930 . S
H358 C339 0.929 1_545 S
H359 C377 0.930 . S
H360 C368 0.930 . S
H361 C369 0.930 . S
H362 C393 0.929 . S
H363 C351 0.930 . S
H364 C352 0.929 . S
H365 C394 0.930 . S
H366 C375 0.930 . S
N367 Gd336 2.661 1_655 S
N367 C371 1.350 . S
N367 C372 1.307 . S
C368 H360 0.930 . S
C368 C369 1.355 . S
C368 C370 1.412 . S
C369 H361 0.930 . S
C369 C368 1.355 . S
C369 C372 1.402 . S
C370 C368 1.412 . S
C370 C371 1.417 . S
C370 C394 1.431 . S
C371 N367 1.350 . S
C371 C370 1.417 . S
C371 C374 1.426 . S
C372 H355 0.930 1_655 S
C372 N367 1.307 . S
C372 C369 1.402 . S
N373 Gd336 2.601 1_655 S
N373 C374 1.359 . S
N373 C377 1.334 . S
C374 C371 1.426 . S
C374 N373 1.359 . S
C374 C378 1.413 . S
C375 H366 0.930 . S
C375 C376 1.359 . S
C375 C377 1.394 . S
C376 C375 1.359 . S
C376 C378 1.391 . S
C376 H379 0.929 . S
C377 H359 0.930 . S
C377 N373 1.334 . S
C377 C375 1.394 . S
C378 C374 1.413 . S
C378 C376 1.391 . S
C378 C393 1.437 . S
H379 C376 0.929 . S
O380 Gd336 2.545 . S
O380 C395 1.258 1_455 S
O381 Gd336 2.606 . S
O381 Gd337 2.362 . S
O381 C392 1.284 . S
O382 Gd337 2.324 . S
O382 C402 1.254 . S
O383 Gd336 2.429 . S
O383 C402 1.268 . S
O384 Gd336 2.545 . S
O384 C392 1.250 . S
O385 Gd336 2.412 . S
O385 C395 1.252 1_455 S
O386 Gd337 2.545 . S
O386 C404 1.258 . S
O387 Gd336 2.362 . S
O387 Gd337 2.606 . S
O387 C403 1.284 . S
O388 Gd336 2.324 . S
O388 C411 1.254 . S
O389 Gd337 2.429 . S
O389 C411 1.268 . S
O390 Gd337 2.545 . S
O390 C403 1.250 . S
O391 Gd337 2.412 . S
O391 C404 1.252 . S
C392 O381 1.284 . S
C392 O384 1.250 . S
C393 H362 0.929 . S
C393 C378 1.437 . S
C393 C394 1.317 . S
C394 H365 0.930 . S
C394 C370 1.431 . S
C394 C393 1.317 . S
C395 Gd336 2.828 1_655 S
C395 O380 1.258 1_655 S
C395 O385 1.252 1_655 S
C395 C396 1.497 . S
C396 C395 1.497 . S
C396 C397 1.395 . S
C396 C398 1.380 1_556 S
C397 C396 1.395 . S
C397 C400 1.398 1_556 S
C397 H412 0.930 . S
C398 C396 1.380 1_554 S
C398 C399 1.391 . S
C398 H413 0.923 1_655 S
C399 C398 1.391 . S
C399 C401 1.387 . S
C400 C397 1.398 1_554 S
C400 C401 1.380 . S
C400 H414 0.930 . S
C401 C399 1.387 . S
C401 C400 1.380 . S
C401 H415 0.930 . S
C402 O382 1.254 . S
C402 O383 1.268 . S
C403 O387 1.284 . S
C403 O390 1.250 . S
C404 Gd337 2.828 . S
C404 O386 1.258 . S
C404 O391 1.252 . S
C404 C405 1.497 . S
C405 C404 1.497 . S
C405 C406 1.395 . S
C405 C407 1.380 . S
C406 C405 1.395 . S
C406 C409 1.398 . S
C406 H416 0.930 . S
C407 C405 1.380 . S
C407 C408 1.391 . S
C407 H417 0.930 . S
C408 C407 1.391 . S
C408 C410 1.387 . S
C409 C406 1.398 . S
C409 C410 1.380 . S
C409 H418 0.930 . S
C410 C408 1.387 . S
C410 C409 1.380 . S
C410 H419 0.930 . S
C411 O388 1.254 . S
C411 O389 1.268 . S
H412 C397 0.930 . S
H413 C398 0.923 1_455 S
H414 C400 0.930 . S
H415 C401 0.930 . S
H416 C406 0.930 . S
H417 C407 0.930 . S
H418 C409 0.930 . S
H419 C410 0.930 . S
Gd420 N451 2.661 . S
Gd420 N457 2.601 . S
Gd420 O464 2.545 . S
Gd420 O465 2.606 . S
Gd420 O467 2.429 . S
Gd420 O468 2.545 . S
Gd420 O469 2.412 . S
Gd420 O471 2.362 . S
Gd420 O472 2.324 . S
Gd420 C479 2.828 . S
Gd421 N430 2.661 . S
Gd421 N434 2.601 . S
Gd421 O465 2.362 . S
Gd421 O466 2.324 . S
Gd421 O470 2.545 . S
Gd421 O471 2.606 . S
Gd421 O473 2.429 . S
Gd421 O474 2.545 . S
Gd421 O475 2.412 . S
Gd421 C488 2.828 . S
C422 C425 1.417 . S
C422 C427 1.431 . S
C422 C428 1.412 . S
C423 C426 1.437 . S
C423 C427 1.317 . S
C423 H442 0.929 . S
C424 C425 1.426 . S
C424 C426 1.413 . S
C424 N434 1.359 . S
C425 C422 1.417 . S
C425 C424 1.426 . S
C425 N430 1.350 . S
C426 C423 1.437 . S
C426 C424 1.413 . S
C426 C436 1.391 . S
C427 C422 1.431 . S
C427 C423 1.317 . S
C427 H438 0.930 . S
C428 C422 1.412 . S
C428 C429 1.355 . S
C428 H440 0.930 . S
C429 C428 1.355 . S
C429 C431 1.402 . S
C429 H441 0.930 . S
N430 Gd421 2.661 . S
N430 C425 1.350 . S
N430 C431 1.307 . S
C431 C429 1.402 . S
C431 N430 1.307 . S
C431 H432 0.930 . S
H432 C431 0.930 . S
C433 N434 1.334 . S
C433 C435 1.394 . S
C433 H437 0.930 . S
N434 Gd421 2.601 . S
N434 C424 1.359 . S
N434 C433 1.334 . S
C435 C433 1.394 . S
C435 C436 1.359 . S
C435 H447 0.930 . S
C436 C426 1.391 . S
C436 C435 1.359 . S
C436 H448 0.929 . S
H437 C433 0.930 . S
H438 C427 0.930 . S
H439 C456 0.930 . S
H440 C428 0.930 . S
H441 C429 0.930 . S
H442 C423 0.929 . S
H443 C461 0.930 . S
H444 C452 0.930 . S
H445 C453 0.930 . S
H446 C477 0.929 . S
H447 C435 0.930 . S
H448 C436 0.929 . S
H449 C478 0.930 . S
H450 C459 0.930 . S
N451 Gd420 2.661 . S
N451 C455 1.350 . S
N451 C456 1.307 . S
C452 H444 0.930 . S
C452 C453 1.355 . S
C452 C454 1.412 . S
C453 H445 0.930 . S
C453 C452 1.355 . S
C453 C456 1.402 . S
C454 C452 1.412 . S
C454 C455 1.417 . S
C454 C478 1.431 . S
C455 N451 1.350 . S
C455 C454 1.417 . S
C455 C458 1.426 . S
C456 H439 0.930 . S
C456 N451 1.307 . S
C456 C453 1.402 . S
N457 Gd420 2.601 . S
N457 C458 1.359 . S
N457 C461 1.334 . S
C458 C455 1.426 . S
C458 N457 1.359 . S
C458 C462 1.413 . S
C459 H450 0.930 . S
C459 C460 1.359 . S
C459 C461 1.394 . S
C460 C459 1.359 . S
C460 C462 1.391 . S
C460 H463 0.929 . S
C461 H443 0.930 . S
C461 N457 1.334 . S
C461 C459 1.394 . S
C462 C458 1.413 . S
C462 C460 1.391 . S
C462 C477 1.437 . S
H463 C460 0.929 . S
O464 Gd420 2.545 . S
O464 C479 1.258 . S
O465 Gd420 2.606 . S
O465 Gd421 2.362 . S
O465 C476 1.284 . S
O466 Gd421 2.324 . S
O466 C486 1.254 . S
O467 Gd420 2.429 . S
O467 C486 1.268 . S
O468 Gd420 2.545 . S
O468 C476 1.250 . S
O469 Gd420 2.412 . S
O469 C479 1.252 . S
O470 Gd421 2.545 . S
O470 C488 1.258 . S
O471 Gd420 2.362 . S
O471 Gd421 2.606 . S
O471 C487 1.284 . S
O472 Gd420 2.324 . S
O472 C495 1.254 . S
O473 Gd421 2.429 . S
O473 C495 1.268 . S
O474 Gd421 2.545 . S
O474 C487 1.250 . S
O475 Gd421 2.412 . S
O475 C488 1.252 . S
C476 O465 1.284 . S
C476 O468 1.250 . S
C477 H446 0.929 . S
C477 C462 1.437 . S
C477 C478 1.317 . S
C478 H449 0.930 . S
C478 C454 1.431 . S
C478 C477 1.317 . S
C479 Gd420 2.828 . S
C479 O464 1.258 . S
C479 O469 1.252 . S
C479 C480 1.497 . S
C480 C479 1.497 . S
C480 C481 1.395 . S
C480 C482 1.380 . S
C481 C480 1.395 . S
C481 C484 1.398 . S
C481 H496 0.930 . S
C482 C480 1.380 . S
C482 C483 1.391 . S
C482 H497 0.930 . S
C483 C482 1.391 . S
C483 C485 1.387 . S
C484 C481 1.398 . S
C484 C485 1.380 . S
C484 H498 0.930 . S
C485 C483 1.387 . S
C485 C484 1.380 . S
C485 H499 0.930 . S
C486 O466 1.254 . S
C486 O467 1.268 . S
C487 O471 1.284 . S
C487 O474 1.250 . S
C488 Gd421 2.828 . S
C488 O470 1.258 . S
C488 O475 1.252 . S
C488 C489 1.514 . S
C489 C488 1.514 . S
C489 C490 1.389 1_554 S
C489 C491 1.369 1_554 S
C490 C489 1.389 1_556 S
C490 C493 1.398 . S
C490 H500 0.930 1_556 S
C491 C489 1.369 1_556 S
C491 C492 1.391 . S
C491 H501 0.930 . S
C492 C491 1.391 . S
C492 C494 1.387 . S
C493 C490 1.398 . S
C493 C494 1.380 . S
C493 H502 0.930 . S
C494 C492 1.387 . S
C494 C493 1.380 . S
C494 H503 0.930 . S
C495 O472 1.254 . S
C495 O473 1.268 . S
H496 C481 0.930 . S
H497 C482 0.930 . S
H498 C484 0.930 . S
H499 C485 0.930 . S
H500 C490 0.930 1_554 S
H501 C491 0.930 . S
H502 C493 0.930 . S
H503 C494 0.930 . S
Gd504 N535 2.661 . S
Gd504 N541 2.601 . S
Gd504 O548 2.545 . S
Gd504 O549 2.606 . S
Gd504 O551 2.429 . S
Gd504 O552 2.545 . S
Gd504 O553 2.412 . S
Gd504 O555 2.362 . S
Gd504 O556 2.324 . S
Gd504 C563 2.828 . S
Gd505 N514 2.661 . S
Gd505 N518 2.601 1_545 S
Gd505 O549 2.362 . S
Gd505 O550 2.324 . S
Gd505 O554 2.545 1_545 S
Gd505 O555 2.606 . S
Gd505 O557 2.443 . S
Gd505 O558 2.545 . S
Gd505 O559 2.412 . S
Gd505 C572 2.828 . S
C506 C509 1.417 . S
C506 C511 1.431 1_545 S
C506 C512 1.412 . S
C507 C510 1.437 . S
C507 C511 1.317 . S
C507 H526 0.929 . S
C508 C509 1.426 1_565 S
C508 C510 1.413 . S
C508 N518 1.359 . S
C509 C506 1.417 . S
C509 C508 1.426 1_545 S
C509 N514 1.350 . S
C510 C507 1.437 . S
C510 C508 1.413 . S
C510 C520 1.391 . S
C511 C506 1.431 1_565 S
C511 C507 1.317 . S
C511 H522 0.930 . S
C512 C506 1.412 . S
C512 C513 1.355 . S
C512 H524 0.930 . S
C513 C512 1.355 . S
C513 C515 1.402 . S
C513 H525 0.930 . S
N514 Gd505 2.661 . S
N514 C509 1.350 . S
N514 C515 1.307 . S
C515 C513 1.402 . S
C515 N514 1.307 . S
C515 H516 0.930 . S
H516 C515 0.930 . S
C517 N518 1.334 . S
C517 C519 1.394 . S
C517 H521 0.930 . S
N518 Gd505 2.601 1_565 S
N518 C508 1.359 . S
N518 C517 1.334 . S
C519 C517 1.394 . S
C519 C520 1.359 . S
C519 H531 0.930 . S
C520 C510 1.391 . S
C520 C519 1.359 . S
C520 H532 0.929 . S
H521 C517 0.930 . S
H522 C511 0.930 . S
H523 C540 0.930 . S
H524 C512 0.930 . S
H525 C513 0.930 . S
H526 C507 0.929 . S
H527 C545 0.930 . S
H528 C536 0.930 . S
H529 C537 0.930 . S
H530 C561 0.929 . S
H531 C519 0.930 . S
H532 C520 0.929 . S
H533 C562 0.930 . S
H534 C543 0.930 . S
N535 Gd504 2.661 . S
N535 C539 1.350 . S
N535 C540 1.307 . S
C536 H528 0.930 . S
C536 C537 1.355 . S
C536 C538 1.412 . S
C537 H529 0.930 . S
C537 C536 1.355 . S
C537 C540 1.402 . S
C538 C536 1.412 . S
C538 C539 1.417 . S
C538 C562 1.431 . S
C539 N535 1.350 . S
C539 C538 1.417 . S
C539 C542 1.426 . S
C540 H523 0.930 . S
C540 N535 1.307 . S
C540 C537 1.402 . S
N541 Gd504 2.601 . S
N541 C542 1.359 . S
N541 C545 1.334 . S
C542 C539 1.426 . S
C542 N541 1.359 . S
C542 C546 1.413 . S
C543 H534 0.930 . S
C543 C544 1.359 . S
C543 C545 1.394 . S
C544 C543 1.359 . S
C544 C546 1.391 . S
C544 H547 0.929 . S
C545 H527 0.930 . S
C545 N541 1.334 . S
C545 C543 1.394 . S
C546 C542 1.413 . S
C546 C544 1.391 . S
C546 C561 1.437 . S
H547 C544 0.929 . S
O548 Gd504 2.545 . S
O548 C563 1.258 . S
O549 Gd504 2.606 . S
O549 Gd505 2.362 . S
O549 C560 1.284 . S
O550 Gd505 2.324 . S
O550 C570 1.254 . S
O551 Gd504 2.429 . S
O551 C570 1.268 . S
O552 Gd504 2.545 . S
O552 C560 1.250 . S
O553 Gd504 2.412 . S
O553 C563 1.252 . S
O554 Gd505 2.545 1_565 S
O554 C572 1.258 1_565 S
O555 Gd504 2.362 . S
O555 Gd505 2.606 . S
O555 C571 1.284 . S
O556 Gd504 2.324 . S
O556 C579 1.254 . S
O557 Gd505 2.443 . S
O557 C579 1.264 . S
O558 Gd505 2.545 . S
O558 C571 1.250 . S
O559 Gd505 2.412 . S
O559 C572 1.252 . S
C560 O549 1.284 . S
C560 O552 1.250 . S
C561 H530 0.929 . S
C561 C546 1.437 . S
C561 C562 1.317 . S
C562 H533 0.930 . S
C562 C538 1.431 . S
C562 C561 1.317 . S
C563 Gd504 2.828 . S
C563 O548 1.258 . S
C563 O553 1.252 . S
C563 C564 1.497 . S
C564 C563 1.497 . S
C564 C565 1.395 . S
C564 C566 1.380 . S
C565 C564 1.395 . S
C565 C568 1.398 . S
C565 H580 0.930 . S
C566 C564 1.380 . S
C566 C567 1.391 . S
C566 H581 0.930 . S
C567 C566 1.391 . S
C567 C569 1.387 . S
C568 C565 1.398 . S
C568 C569 1.380 . S
C568 H582 0.930 . S
C569 C567 1.387 . S
C569 C568 1.380 . S
C569 H583 0.930 . S
C570 O550 1.254 . S
C570 O551 1.268 . S
C571 O555 1.284 . S
C571 O558 1.250 . S
C572 Gd505 2.828 . S
C572 O554 1.258 1_545 S
C572 O559 1.252 . S
C572 C573 1.498 1_545 S
C573 C572 1.498 1_565 S
C573 C574 1.400 . S
C573 C575 1.374 1_565 S
C574 C573 1.400 . S
C574 C577 1.398 . S
C574 H584 0.930 . S
C575 C573 1.374 1_545 S
C575 C576 1.391 . S
C575 H585 0.930 . S
C576 C575 1.391 . S
C576 C578 1.387 1_545 S
C577 C574 1.398 . S
C577 C578 1.380 . S
C577 H586 0.930 . S
C578 C576 1.387 1_565 S
C578 C577 1.380 . S
C578 H587 0.930 . S
C579 O556 1.254 . S
C579 O557 1.264 . S
H580 C565 0.930 . S
H581 C566 0.930 . S
H582 C568 0.930 . S
H583 C569 0.930 . S
H584 C574 0.930 . S
H585 C575 0.930 . S
H586 C577 0.930 . S
H587 C578 0.930 . S
Gd588 N619 2.661 . S
Gd588 N625 2.601 . S
Gd588 O632 2.545 . S
Gd588 O633 2.606 . S
Gd588 O635 2.429 . S
Gd588 O636 2.545 . S
Gd588 O637 2.412 . S
Gd588 O639 2.362 . S
Gd588 O640 2.324 . S
Gd588 C647 2.828 . S
Gd589 N598 2.661 . S
Gd589 N602 2.601 . S
Gd589 O633 2.362 . S
Gd589 O634 2.324 . S
Gd589 O638 2.545 . S
Gd589 O639 2.606 . S
Gd589 O641 2.429 . S
Gd589 O642 2.545 . S
Gd589 O643 2.412 . S
Gd589 C656 2.828 . S
C590 C593 1.417 . S
C590 C595 1.431 . S
C590 C596 1.412 . S
C591 C594 1.437 . S
C591 C595 1.317 . S
C591 H610 0.929 . S
C592 C593 1.426 . S
C592 C594 1.413 . S
C592 N602 1.359 . S
C593 C590 1.417 . S
C593 C592 1.426 . S
C593 N598 1.350 . S
C594 C591 1.437 . S
C594 C592 1.413 . S
C594 C604 1.391 . S
C595 C590 1.431 . S
C595 C591 1.317 . S
C595 H606 0.930 . S
C596 C590 1.412 . S
C596 C597 1.355 . S
C596 H608 0.930 . S
C597 C596 1.355 . S
C597 C599 1.402 . S
C597 H609 0.930 . S
N598 Gd589 2.661 . S
N598 C593 1.350 . S
N598 C599 1.307 . S
C599 C597 1.402 . S
C599 N598 1.307 . S
C599 H600 0.930 . S
H600 C599 0.930 . S
C601 N602 1.334 . S
C601 C603 1.394 . S
C601 H605 0.930 . S
N602 Gd589 2.601 . S
N602 C592 1.359 . S
N602 C601 1.334 . S
C603 C601 1.394 . S
C603 C604 1.359 . S
C603 H615 0.930 . S
C604 C594 1.391 . S
C604 C603 1.359 . S
C604 H616 0.929 . S
H605 C601 0.930 . S
H606 C595 0.930 . S
H607 C624 0.930 . S
H608 C596 0.930 . S
H609 C597 0.930 . S
H610 C591 0.929 . S
H611 C629 0.930 . S
H612 C620 0.930 . S
H613 C621 0.930 . S
H614 C645 0.929 . S
H615 C603 0.930 . S
H616 C604 0.929 . S
H617 C646 0.930 . S
H618 C627 0.930 . S
N619 Gd588 2.661 . S
N619 C623 1.350 . S
N619 C624 1.307 . S
C620 H612 0.930 . S
C620 C621 1.355 . S
C620 C622 1.412 . S
C621 H613 0.930 . S
C621 C620 1.355 . S
C621 C624 1.402 . S
C622 C620 1.412 . S
C622 C623 1.417 . S
C622 C646 1.431 . S
C623 N619 1.350 . S
C623 C622 1.417 . S
C623 C626 1.426 . S
C624 H607 0.930 . S
C624 N619 1.307 . S
C624 C621 1.402 . S
N625 Gd588 2.601 . S
N625 C626 1.359 . S
N625 C629 1.334 . S
C626 C623 1.426 . S
C626 N625 1.359 . S
C626 C630 1.413 . S
C627 H618 0.930 . S
C627 C628 1.359 . S
C627 C629 1.394 . S
C628 C627 1.359 . S
C628 C630 1.391 . S
C628 H631 0.929 . S
C629 H611 0.930 . S
C629 N625 1.334 . S
C629 C627 1.394 . S
C630 C626 1.413 . S
C630 C628 1.391 . S
C630 C645 1.437 . S
H631 C628 0.929 . S
O632 Gd588 2.545 . S
O632 C647 1.258 . S
O633 Gd588 2.606 . S
O633 Gd589 2.362 . S
O633 C644 1.284 . S
O634 Gd589 2.324 . S
O634 C654 1.254 . S
O635 Gd588 2.429 . S
O635 C654 1.268 . S
O636 Gd588 2.545 . S
O636 C644 1.250 . S
O637 Gd588 2.412 . S
O637 C647 1.252 . S
O638 Gd589 2.545 . S
O638 C656 1.258 . S
O639 Gd588 2.362 . S
O639 Gd589 2.606 . S
O639 C655 1.284 . S
O640 Gd588 2.324 . S
O640 C663 1.254 . S
O641 Gd589 2.429 . S
O641 C663 1.268 . S
O642 Gd589 2.545 . S
O642 C655 1.250 . S
O643 Gd589 2.412 . S
O643 C656 1.252 . S
C644 O633 1.284 . S
C644 O636 1.250 . S
C645 H614 0.929 . S
C645 C630 1.437 . S
C645 C646 1.317 . S
C646 H617 0.930 . S
C646 C622 1.431 . S
C646 C645 1.317 . S
C647 Gd588 2.828 . S
C647 O632 1.258 . S
C647 O637 1.252 . S
C647 C648 1.497 . S
C648 C647 1.497 . S
C648 C649 1.395 . S
C648 C650 1.380 . S
C649 C648 1.395 . S
C649 C652 1.398 . S
C649 H664 0.930 . S
C650 C648 1.380 . S
C650 C651 1.391 . S
C650 H665 0.930 . S
C651 C650 1.391 . S
C651 C653 1.387 . S
C652 C649 1.398 . S
C652 C653 1.380 . S
C652 H666 0.930 . S
C653 C651 1.387 . S
C653 C652 1.380 . S
C653 H667 0.930 . S
C654 O634 1.254 . S
C654 O635 1.268 . S
C655 O639 1.284 . S
C655 O642 1.250 . S
C656 Gd589 2.828 . S
C656 O638 1.258 . S
C656 O643 1.252 . S
C656 C657 1.497 . S
C657 C656 1.497 . S
C657 C658 1.395 . S
C657 C659 1.380 . S
C658 C657 1.395 . S
C658 C661 1.398 . S
C658 H668 0.930 . S
C659 C657 1.380 . S
C659 C660 1.391 . S
C659 H669 0.930 . S
C660 C659 1.391 . S
C660 C662 1.387 . S
C661 C658 1.398 . S
C661 C662 1.380 . S
C661 H670 0.930 . S
C662 C660 1.387 . S
C662 C661 1.380 . S
C662 H671 0.930 . S
C663 O640 1.254 . S
C663 O641 1.268 . S
H664 C649 0.930 . S
H665 C650 0.930 . S
H666 C652 0.930 . S
H667 C653 0.930 . S
H668 C658 0.930 . S
H669 C659 0.930 . S
H670 C661 0.930 . S
H671 C662 0.930 . S
Gd672 N703 2.661 . S
Gd672 N709 2.601 . S
Gd672 O716 2.545 . S
Gd672 O717 2.606 . S
Gd672 O719 2.429 . S
Gd672 O720 2.545 . S
Gd672 O721 2.412 . S
Gd672 O723 2.362 . S
Gd672 O724 2.324 . S
Gd672 C731 2.828 . S
Gd673 N682 2.661 . S
Gd673 N686 2.601 . S
Gd673 O717 2.362 . S
Gd673 O718 2.324 . S
Gd673 O722 2.545 . S
Gd673 O723 2.606 . S
Gd673 O725 2.429 . S
Gd673 O726 2.545 . S
Gd673 O727 2.412 . S
Gd673 C740 2.828 . S
C674 C677 1.417 1_455 S
C674 C679 1.431 1_455 S
C674 C680 1.412 . S
C675 C678 1.437 . S
C675 C679 1.317 . S
C675 H694 0.929 . S
C676 C677 1.426 . S
C676 C678 1.413 . S
C676 N686 1.359 . S
C677 C674 1.417 1_655 S
C677 C676 1.426 . S
C677 N682 1.350 . S
C678 C675 1.437 . S
C678 C676 1.413 . S
C678 C688 1.391 . S
C679 C674 1.431 1_655 S
C679 C675 1.317 . S
C679 H690 0.930 1_655 S
C680 C674 1.412 . S
C680 C681 1.355 . S
C680 H692 0.930 . S
C681 C680 1.355 . S
C681 C683 1.402 . S
C681 H693 0.930 . S
N682 Gd673 2.661 . S
N682 C677 1.350 . S
N682 C683 1.307 1_655 S
C683 C681 1.402 . S
C683 N682 1.307 1_455 S
C683 H684 0.930 . S
H684 C683 0.930 . S
C685 N686 1.334 . S
C685 C687 1.394 . S
C685 H689 0.930 . S
N686 Gd673 2.601 . S
N686 C676 1.359 . S
N686 C685 1.334 . S
C687 C685 1.394 . S
C687 C688 1.359 . S
C687 H699 0.930 . S
C688 C678 1.391 . S
C688 C687 1.359 . S
C688 H700 0.929 . S
H689 C685 0.930 . S
H690 C679 0.930 1_455 S
H691 C708 0.930 . S
H692 C680 0.930 . S
H693 C681 0.930 . S
H694 C675 0.929 . S
H695 C713 0.930 1_455 S
H696 C704 0.930 . S
H697 C705 0.930 . S
H698 C729 0.929 . S
H699 C687 0.930 . S
H700 C688 0.929 . S
H701 C730 0.930 . S
H702 C711 0.930 1_455 S
N703 Gd672 2.661 . S
N703 C707 1.350 . S
N703 C708 1.307 . S
C704 H696 0.930 . S
C704 C705 1.355 . S
C704 C706 1.412 . S
C705 H697 0.930 . S
C705 C704 1.355 . S
C705 C708 1.402 . S
C706 C704 1.412 . S
C706 C707 1.417 . S
C706 C730 1.431 . S
C707 N703 1.350 . S
C707 C706 1.417 . S
C707 C710 1.426 . S
C708 H691 0.930 . S
C708 N703 1.307 . S
C708 C705 1.402 . S
N709 Gd672 2.601 . S
N709 C710 1.359 . S
N709 C713 1.334 . S
C710 C707 1.426 . S
C710 N709 1.359 . S
C710 C714 1.413 . S
C711 H702 0.930 1_655 S
C711 C712 1.359 . S
C711 C713 1.394 . S
C712 C711 1.359 . S
C712 C714 1.391 . S
C712 H715 0.929 . S
C713 H695 0.930 1_655 S
C713 N709 1.334 . S
C713 C711 1.394 . S
C714 C710 1.413 . S
C714 C712 1.391 . S
C714 C729 1.437 . S
H715 C712 0.929 . S
O716 Gd672 2.545 . S
O716 C731 1.258 . S
O717 Gd672 2.606 . S
O717 Gd673 2.362 . S
O717 C728 1.284 . S
O718 Gd673 2.324 . S
O718 C738 1.254 1_655 S
O719 Gd672 2.429 . S
O719 C738 1.268 1_655 S
O720 Gd672 2.545 . S
O720 C728 1.250 . S
O721 Gd672 2.412 . S
O721 C731 1.252 . S
O722 Gd673 2.545 . S
O722 C740 1.258 . S
O723 Gd672 2.362 . S
O723 Gd673 2.606 . S
O723 C739 1.284 . S
O724 Gd672 2.324 . S
O724 C747 1.254 . S
O725 Gd673 2.429 . S
O725 C747 1.268 . S
O726 Gd673 2.545 . S
O726 C739 1.250 . S
O727 Gd673 2.412 . S
O727 C740 1.252 . S
C728 O717 1.284 . S
C728 O720 1.250 . S
C729 H698 0.929 . S
C729 C714 1.437 . S
C729 C730 1.317 . S
C730 H701 0.930 . S
C730 C706 1.431 . S
C730 C729 1.317 . S
C731 Gd672 2.828 . S
C731 O716 1.258 . S
C731 O721 1.252 . S
C731 C732 1.497 . S
C732 C731 1.497 . S
C732 C733 1.395 . S
C732 C734 1.380 . S
C733 C732 1.395 . S
C733 C736 1.398 . S
C733 H748 0.930 . S
C734 C732 1.380 . S
C734 C735 1.391 . S
C734 H749 0.930 . S
C735 C734 1.391 . S
C735 C737 1.387 . S
C736 C733 1.398 . S
C736 C737 1.380 . S
C736 H750 0.930 . S
C737 C735 1.387 . S
C737 C736 1.380 . S
C737 H751 0.930 . S
C738 O718 1.254 1_455 S
C738 O719 1.268 1_455 S
C739 O723 1.284 . S
C739 O726 1.250 . S
C740 Gd673 2.828 . S
C740 O722 1.258 . S
C740 O727 1.252 . S
C740 C741 1.497 . S
C741 C740 1.497 . S
C741 C742 1.395 . S
C741 C743 1.380 . S
C742 C741 1.395 . S
C742 C745 1.398 . S
C742 H752 0.930 . S
C743 C741 1.380 . S
C743 C744 1.391 . S
C743 H753 0.930 . S
C744 C743 1.391 . S
C744 C746 1.387 . S
C745 C742 1.398 . S
C745 C746 1.380 . S
C745 H754 0.930 . S
C746 C744 1.387 . S
C746 C745 1.380 . S
C746 H755 0.930 . S
C747 O724 1.254 . S
C747 O725 1.268 . S
H748 C733 0.930 . S
H749 C734 0.930 . S
H750 C736 0.930 . S
H751 C737 0.930 . S
H752 C742 0.930 . S
H753 C743 0.930 . S
H754 C745 0.930 . S
H755 C746 0.930 . S
Gd756 N787 2.661 . S
Gd756 N793 2.601 . S
Gd756 O800 2.545 . S
Gd756 O801 2.606 . S
Gd756 O803 2.429 . S
Gd756 O804 2.545 . S
Gd756 O805 2.412 . S
Gd756 O807 2.362 . S
Gd756 O808 2.324 . S
Gd756 C815 2.828 . S
Gd757 N766 2.661 . S
Gd757 N770 2.601 . S
Gd757 O801 2.362 . S
Gd757 O802 2.324 . S
Gd757 O806 2.545 . S
Gd757 O807 2.606 . S
Gd757 O809 2.429 . S
Gd757 O810 2.545 . S
Gd757 O811 2.412 . S
Gd757 C824 2.828 . S
C758 C761 1.417 . S
C758 C763 1.431 . S
C758 C764 1.412 . S
C759 C762 1.437 . S
C759 C763 1.317 . S
C759 H778 0.929 . S
C760 C761 1.426 . S
C760 C762 1.413 . S
C760 N770 1.359 . S
C761 C758 1.417 . S
C761 C760 1.426 . S
C761 N766 1.350 . S
C762 C759 1.437 . S
C762 C760 1.413 . S
C762 C772 1.391 . S
C763 C758 1.431 . S
C763 C759 1.317 . S
C763 H774 0.930 . S
C764 C758 1.412 . S
C764 C765 1.355 . S
C764 H776 0.930 . S
C765 C764 1.355 . S
C765 C767 1.402 . S
C765 H777 0.930 . S
N766 Gd757 2.661 . S
N766 C761 1.350 . S
N766 C767 1.307 . S
C767 C765 1.402 . S
C767 N766 1.307 . S
C767 H768 0.930 . S
H768 C767 0.930 . S
C769 N770 1.334 . S
C769 C771 1.394 . S
C769 H773 0.930 . S
N770 Gd757 2.601 . S
N770 C760 1.359 . S
N770 C769 1.334 . S
C771 C769 1.394 . S
C771 C772 1.359 . S
C771 H783 0.930 . S
C772 C762 1.391 . S
C772 C771 1.359 . S
C772 H784 0.929 . S
H773 C769 0.930 . S
H774 C763 0.930 . S
H775 C792 0.930 . S
H776 C764 0.930 . S
H777 C765 0.930 . S
H778 C759 0.929 . S
H779 C797 0.930 . S
H780 C788 0.930 . S
H781 C789 0.930 . S
H782 C813 0.929 1_545 S
H783 C771 0.930 . S
H784 C772 0.929 . S
H785 C814 0.930 1_545 S
H786 C795 0.930 . S
N787 Gd756 2.661 . S
N787 C791 1.350 . S
N787 C792 1.307 . S
C788 H780 0.930 . S
C788 C789 1.355 . S
C788 C790 1.412 . S
C789 H781 0.930 . S
C789 C788 1.355 . S
C789 C792 1.402 . S
C790 C788 1.412 . S
C790 C791 1.417 . S
C790 C814 1.431 . S
C791 N787 1.350 . S
C791 C790 1.417 . S
C791 C794 1.426 . S
C792 H775 0.930 . S
C792 N787 1.307 . S
C792 C789 1.402 . S
N793 Gd756 2.601 . S
N793 C794 1.359 . S
N793 C797 1.334 . S
C794 C791 1.426 . S
C794 N793 1.359 . S
C794 C798 1.413 . S
C795 H786 0.930 . S
C795 C796 1.359 . S
C795 C797 1.394 . S
C796 C795 1.359 . S
C796 C798 1.391 . S
C796 H799 0.929 . S
C797 H779 0.930 . S
C797 N793 1.334 . S
C797 C795 1.394 . S
C798 C794 1.413 . S
C798 C796 1.391 . S
C798 C813 1.437 . S
H799 C796 0.929 . S
O800 Gd756 2.545 . S
O800 C815 1.258 . S
O801 Gd756 2.606 . S
O801 Gd757 2.362 . S
O801 C812 1.284 . S
O802 Gd757 2.324 . S
O802 C822 1.254 . S
O803 Gd756 2.429 . S
O803 C822 1.268 . S
O804 Gd756 2.545 . S
O804 C812 1.250 . S
O805 Gd756 2.412 . S
O805 C815 1.252 . S
O806 Gd757 2.545 . S
O806 C824 1.258 . S
O807 Gd756 2.362 . S
O807 Gd757 2.606 . S
O807 C823 1.284 . S
O808 Gd756 2.324 . S
O808 C831 1.254 . S
O809 Gd757 2.429 . S
O809 C831 1.268 . S
O810 Gd757 2.545 . S
O810 C823 1.250 . S
O811 Gd757 2.412 . S
O811 C824 1.252 . S
C812 O801 1.284 . S
C812 O804 1.250 . S
C813 H782 0.929 1_565 S
C813 C798 1.437 . S
C813 C814 1.317 . S
C814 H785 0.930 1_565 S
C814 C790 1.431 . S
C814 C813 1.317 . S
C815 Gd756 2.828 . S
C815 O800 1.258 . S
C815 O805 1.252 . S
C815 C816 1.497 . S
C816 C815 1.497 . S
C816 C817 1.395 . S
C816 C818 1.380 1_554 S
C817 C816 1.395 . S
C817 C820 1.398 1_554 S
C817 H832 0.930 . S
C818 C816 1.380 1_556 S
C818 C819 1.391 . S
C818 H833 0.930 . S
C819 C818 1.391 . S
C819 C821 1.387 . S
C820 C817 1.398 1_556 S
C820 C821 1.380 . S
C820 H834 0.930 . S
C821 C819 1.387 . S
C821 C820 1.380 . S
C821 H835 0.930 . S
C822 O802 1.254 . S
C822 O803 1.268 . S
C823 O807 1.284 . S
C823 O810 1.250 . S
C824 Gd757 2.828 . S
C824 O806 1.258 . S
C824 O811 1.252 . S
C824 C825 1.497 . S
C825 C824 1.497 . S
C825 C826 1.395 . S
C825 C827 1.380 . S
C826 C825 1.395 . S
C826 C829 1.398 . S
C826 H836 0.930 . S
C827 C825 1.380 . S
C827 C828 1.391 . S
C827 H837 0.930 . S
C828 C827 1.391 . S
C828 C830 1.387 . S
C829 C826 1.398 . S
C829 C830 1.380 . S
C829 H838 0.930 . S
C830 C828 1.387 . S
C830 C829 1.380 . S
C830 H839 0.930 . S
C831 O808 1.254 . S
C831 O809 1.268 . S
H832 C817 0.930 . S
H833 C818 0.930 . S
H834 C820 0.930 . S
H835 C821 0.930 . S
H836 C826 0.930 . S
H837 C827 0.930 . S
H838 C829 0.930 . S
H839 C830 0.930 . S
Gd840 N871 2.661 . S
Gd840 N877 2.601 . S
Gd840 O884 2.545 . S
Gd840 O885 2.606 . S
Gd840 O887 2.429 . S
Gd840 O888 2.545 . S
Gd840 O889 2.412 . S
Gd840 O891 2.362 . S
Gd840 O892 2.324 . S
Gd840 C899 2.828 . S
Gd841 N850 2.661 . S
Gd841 N854 2.601 . S
Gd841 O885 2.362 . S
Gd841 O886 2.324 . S
Gd841 O890 2.545 . S
Gd841 O891 2.606 . S
Gd841 O893 2.429 . S
Gd841 O894 2.545 . S
Gd841 O895 2.412 . S
Gd841 C908 2.828 . S
C842 C845 1.417 . S
C842 C847 1.431 . S
C842 C848 1.412 . S
C843 C846 1.437 . S
C843 C847 1.317 . S
C843 H862 0.929 . S
C844 C845 1.426 . S
C844 C846 1.413 . S
C844 N854 1.359 . S
C845 C842 1.417 . S
C845 C844 1.426 . S
C845 N850 1.350 . S
C846 C843 1.437 . S
C846 C844 1.413 . S
C846 C856 1.391 . S
C847 C842 1.431 . S
C847 C843 1.317 . S
C847 H858 0.930 . S
C848 C842 1.412 . S
C848 C849 1.355 . S
C848 H860 0.930 . S
C849 C848 1.355 . S
C849 C851 1.402 . S
C849 H861 0.930 . S
N850 Gd841 2.661 . S
N850 C845 1.350 . S
N850 C851 1.307 . S
C851 C849 1.402 . S
C851 N850 1.307 . S
C851 H852 0.930 . S
H852 C851 0.930 . S
C853 N854 1.334 . S
C853 C855 1.394 . S
C853 H857 0.930 . S
N854 Gd841 2.601 . S
N854 C844 1.359 . S
N854 C853 1.334 . S
C855 C853 1.394 . S
C855 C856 1.359 . S
C855 H867 0.930 . S
C856 C846 1.391 . S
C856 C855 1.359 . S
C856 H868 0.929 . S
H857 C853 0.930 . S
H858 C847 0.930 . S
H859 C876 0.930 . S
H860 C848 0.930 . S
H861 C849 0.930 . S
H862 C843 0.929 . S
H863 C881 0.930 . S
H864 C872 0.930 . S
H865 C873 0.930 . S
H866 C897 0.929 . S
H867 C855 0.930 . S
H868 C856 0.929 . S
H869 C898 0.930 . S
H870 C879 0.930 . S
N871 Gd840 2.661 . S
N871 C875 1.350 . S
N871 C876 1.307 . S
C872 H864 0.930 . S
C872 C873 1.355 . S
C872 C874 1.412 . S
C873 H865 0.930 . S
C873 C872 1.355 . S
C873 C876 1.402 . S
C874 C872 1.412 . S
C874 C875 1.417 . S
C874 C898 1.431 . S
C875 N871 1.350 . S
C875 C874 1.417 . S
C875 C878 1.426 . S
C876 H859 0.930 . S
C876 N871 1.307 . S
C876 C873 1.402 . S
N877 Gd840 2.601 . S
N877 C878 1.359 . S
N877 C881 1.334 . S
C878 C875 1.426 . S
C878 N877 1.359 . S
C878 C882 1.413 . S
C879 H870 0.930 . S
C879 C880 1.359 . S
C879 C881 1.394 . S
C880 C879 1.359 . S
C880 C882 1.391 . S
C880 H883 0.929 . S
C881 H863 0.930 . S
C881 N877 1.334 . S
C881 C879 1.394 . S
C882 C878 1.413 . S
C882 C880 1.391 . S
C882 C897 1.437 . S
H883 C880 0.929 . S
O884 Gd840 2.545 . S
O884 C899 1.258 . S
O885 Gd840 2.606 . S
O885 Gd841 2.362 . S
O885 C896 1.284 . S
O886 Gd841 2.324 . S
O886 C906 1.254 . S
O887 Gd840 2.429 . S
O887 C906 1.268 . S
O888 Gd840 2.545 . S
O888 C896 1.250 . S
O889 Gd840 2.412 . S
O889 C899 1.252 . S
O890 Gd841 2.545 . S
O890 C908 1.258 . S
O891 Gd840 2.362 . S
O891 Gd841 2.606 . S
O891 C907 1.284 . S
O892 Gd840 2.324 . S
O892 C915 1.254 . S
O893 Gd841 2.429 . S
O893 C915 1.268 . S
O894 Gd841 2.545 . S
O894 C907 1.250 . S
O895 Gd841 2.412 . S
O895 C908 1.252 . S
C896 O885 1.284 . S
C896 O888 1.250 . S
C897 H866 0.929 . S
C897 C882 1.437 . S
C897 C898 1.317 . S
C898 H869 0.930 . S
C898 C874 1.431 . S
C898 C897 1.317 . S
C899 Gd840 2.828 . S
C899 O884 1.258 . S
C899 O889 1.252 . S
C899 C900 1.514 . S
C900 C899 1.514 . S
C900 C901 1.389 1_556 S
C900 C902 1.369 1_556 S
C901 C900 1.389 1_554 S
C901 C904 1.398 . S
C901 H916 0.930 1_554 S
C902 C900 1.369 1_554 S
C902 C903 1.391 . S
C902 H917 0.930 . S
C903 C902 1.391 . S
C903 C905 1.387 . S
C904 C901 1.398 . S
C904 C905 1.380 . S
C904 H918 0.930 . S
C905 C903 1.387 . S
C905 C904 1.380 . S
C905 H919 0.930 . S
C906 O886 1.254 . S
C906 O887 1.268 . S
C907 O891 1.284 . S
C907 O894 1.250 . S
C908 Gd841 2.828 . S
C908 O890 1.258 . S
C908 O895 1.252 . S
C908 C909 1.497 . S
C909 C908 1.497 . S
C909 C910 1.395 . S
C909 C911 1.380 . S
C910 C909 1.395 . S
C910 C913 1.398 . S
C910 H920 0.930 . S
C911 C909 1.380 . S
C911 C912 1.391 . S
C911 H921 0.930 . S
C912 C911 1.391 . S
C912 C914 1.387 . S
C913 C910 1.398 . S
C913 C914 1.380 . S
C913 H922 0.930 . S
C914 C912 1.387 . S
C914 C913 1.380 . S
C914 H923 0.930 . S
C915 O892 1.254 . S
C915 O893 1.268 . S
H916 C901 0.930 1_556 S
H917 C902 0.930 . S
H918 C904 0.930 . S
H919 C905 0.930 . S
H920 C910 0.930 . S
H921 C911 0.930 . S
H922 C913 0.930 . S
H923 C914 0.930 . S
Gd924 N955 2.661 . S
Gd924 N961 2.601 . S
Gd924 O968 2.545 . S
Gd924 O969 2.606 . S
Gd924 O971 2.429 . S
Gd924 O972 2.545 . S
Gd924 O973 2.412 . S
Gd924 O975 2.362 . S
Gd924 O976 2.324 . S
Gd924 C983 2.828 . S
Gd925 N934 2.661 . S
Gd925 N938 2.601 . S
Gd925 O969 2.362 . S
Gd925 O970 2.324 . S
Gd925 O974 2.545 . S
Gd925 O975 2.606 . S
Gd925 O977 2.429 . S
Gd925 O978 2.545 . S
Gd925 O979 2.412 . S
Gd925 C992 2.828 . S
C926 C929 1.417 . S
C926 C931 1.431 . S
C926 C932 1.412 . S
C927 C930 1.437 . S
C927 C931 1.317 . S
C927 H946 0.929 . S
C928 C929 1.426 . S
C928 C930 1.413 . S
C928 N938 1.359 . S
C929 C926 1.417 . S
C929 C928 1.426 . S
C929 N934 1.350 . S
C930 C927 1.437 . S
C930 C928 1.413 . S
C930 C940 1.391 . S
C931 C926 1.431 . S
C931 C927 1.317 . S
C931 H942 0.930 . S
C932 C926 1.412 . S
C932 C933 1.355 . S
C932 H944 0.930 . S
C933 C932 1.355 . S
C933 C935 1.402 . S
C933 H945 0.930 . S
N934 Gd925 2.661 . S
N934 C929 1.350 . S
N934 C935 1.307 . S
C935 C933 1.402 . S
C935 N934 1.307 . S
C935 H936 0.930 . S
H936 C935 0.930 . S
C937 N938 1.334 . S
C937 C939 1.394 . S
C937 H941 0.930 . S
N938 Gd925 2.601 . S
N938 C928 1.359 . S
N938 C937 1.334 . S
C939 C937 1.394 . S
C939 C940 1.359 . S
C939 H951 0.930 . S
C940 C930 1.391 . S
C940 C939 1.359 . S
C940 H952 0.929 . S
H941 C937 0.930 . S
H942 C931 0.930 . S
H943 C960 0.930 . S
H944 C932 0.930 . S
H945 C933 0.930 . S
H946 C927 0.929 . S
H947 C965 0.930 . S
H948 C956 0.930 . S
H949 C957 0.930 . S
H950 C981 0.929 . S
H951 C939 0.930 . S
H952 C940 0.929 . S
H953 C982 0.930 . S
H954 C963 0.930 . S
N955 Gd924 2.661 . S
N955 C959 1.350 . S
N955 C960 1.307 . S
C956 H948 0.930 . S
C956 C957 1.355 . S
C956 C958 1.412 . S
C957 H949 0.930 . S
C957 C956 1.355 . S
C957 C960 1.402 . S
C958 C956 1.412 . S
C958 C959 1.417 . S
C958 C982 1.431 . S
C959 N955 1.350 . S
C959 C958 1.417 . S
C959 C962 1.426 . S
C960 H943 0.930 . S
C960 N955 1.307 . S
C960 C957 1.402 . S
N961 Gd924 2.601 . S
N961 C962 1.359 . S
N961 C965 1.334 1_655 S
C962 C959 1.426 . S
C962 N961 1.359 . S
C962 C966 1.413 1_655 S
C963 H954 0.930 . S
C963 C964 1.359 . S
C963 C965 1.394 . S
C964 C963 1.359 . S
C964 C966 1.391 . S
C964 H967 0.929 . S
C965 H947 0.930 . S
C965 N961 1.334 1_455 S
C965 C963 1.394 . S
C966 C962 1.413 1_455 S
C966 C964 1.391 . S
C966 C981 1.437 . S
H967 C964 0.929 . S
O968 Gd924 2.545 . S
O968 C983 1.258 . S
O969 Gd924 2.606 . S
O969 Gd925 2.362 . S
O969 C980 1.284 . S
O970 Gd925 2.324 . S
O970 C990 1.254 . S
O971 Gd924 2.429 . S
O971 C990 1.268 . S
O972 Gd924 2.545 . S
O972 C980 1.250 . S
O973 Gd924 2.412 . S
O973 C983 1.252 . S
O974 Gd925 2.545 . S
O974 C992 1.258 . S
O975 Gd924 2.362 . S
O975 Gd925 2.606 . S
O975 C991 1.284 . S
O976 Gd924 2.324 . S
O976 C999 1.254 . S
O977 Gd925 2.429 . S
O977 C999 1.268 . S
O978 Gd925 2.545 . S
O978 C991 1.250 . S
O979 Gd925 2.412 . S
O979 C992 1.252 . S
C980 O969 1.284 . S
C980 O972 1.250 . S
C981 H950 0.929 . S
C981 C966 1.437 . S
C981 C982 1.317 1_455 S
C982 H953 0.930 . S
C982 C958 1.431 . S
C982 C981 1.317 1_655 S
C983 Gd924 2.828 . S
C983 O968 1.258 . S
C983 O973 1.252 . S
C983 C984 1.497 . S
C984 C983 1.497 . S
C984 C985 1.382 1_655 S
C984 C986 1.380 . S
C985 C984 1.382 1_455 S
C985 C988 1.398 . S
C985 H1000 0.942 . S
C986 C984 1.380 . S
C986 C987 1.391 . S
C986 H1001 0.930 . S
C987 C986 1.391 . S
C987 C989 1.387 . S
C988 C985 1.398 . S
C988 C989 1.380 1_455 S
C988 H1002 0.930 . S
C989 C987 1.387 . S
C989 C988 1.380 1_655 S
C989 H1003 0.930 . S
C990 O970 1.254 . S
C990 O971 1.268 . S
C991 O975 1.284 . S
C991 O978 1.250 . S
C992 Gd925 2.828 . S
C992 O974 1.258 . S
C992 O979 1.252 . S
C992 C993 1.497 . S
C993 C992 1.497 . S
C993 C994 1.395 . S
C993 C995 1.380 . S
C994 C993 1.395 . S
C994 C997 1.398 . S
C994 H1004 0.930 . S
C995 C993 1.380 . S
C995 C996 1.391 . S
C995 H1005 0.930 . S
C996 C995 1.391 . S
C996 C998 1.387 . S
C997 C994 1.398 . S
C997 C998 1.380 . S
C997 H1006 0.930 . S
C998 C996 1.387 . S
C998 C997 1.380 . S
C998 H1007 0.930 . S
C999 O976 1.254 . S
C999 O977 1.268 . S
H1000 C985 0.942 . S
H1001 C986 0.930 . S
H1002 C988 0.930 . S
H1003 C989 0.930 . S
H1004 C994 0.930 . S
H1005 C995 0.930 . S
H1006 C997 0.930 . S
H1007 C998 0.930 . S
Gd1008 N1039 2.661 . S
Gd1008 N1045 2.601 . S
Gd1008 O1052 2.545 . S
Gd1008 O1053 2.606 . S
Gd1008 O1055 2.429 . S
Gd1008 O1056 2.545 . S
Gd1008 O1057 2.412 . S
Gd1008 O1059 2.362 . S
Gd1008 O1060 2.324 . S
Gd1008 C1067 2.828 . S
Gd1009 N1018 2.661 . S
Gd1009 N1022 2.601 . S
Gd1009 O1053 2.362 . S
Gd1009 O1054 2.324 . S
Gd1009 O1058 2.545 . S
Gd1009 O1059 2.606 . S
Gd1009 O1061 2.429 . S
Gd1009 O1062 2.545 . S
Gd1009 O1063 2.412 . S
Gd1009 C1076 2.828 . S
C1010 C1013 1.417 . S
C1010 C1015 1.431 . S
C1010 C1016 1.412 . S
C1011 C1014 1.437 . S
C1011 C1015 1.317 . S
C1011 H1030 0.929 . S
C1012 C1013 1.426 . S
C1012 C1014 1.413 . S
C1012 N1022 1.359 . S
C1013 C1010 1.417 . S
C1013 C1012 1.426 . S
C1013 N1018 1.350 . S
C1014 C1011 1.437 . S
C1014 C1012 1.413 . S
C1014 C1024 1.391 . S
C1015 C1010 1.431 . S
C1015 C1011 1.317 . S
C1015 H1026 0.930 . S
C1016 C1010 1.412 . S
C1016 C1017 1.355 . S
C1016 H1028 0.930 . S
C1017 C1016 1.355 . S
C1017 C1019 1.402 . S
C1017 H1029 0.930 . S
N1018 Gd1009 2.661 . S
N1018 C1013 1.350 . S
N1018 C1019 1.307 . S
C1019 C1017 1.402 . S
C1019 N1018 1.307 . S
C1019 H1020 0.930 . S
H1020 C1019 0.930 . S
C1021 N1022 1.334 . S
C1021 C1023 1.394 . S
C1021 H1025 0.930 . S
N1022 Gd1009 2.601 . S
N1022 C1012 1.359 . S
N1022 C1021 1.334 . S
C1023 C1021 1.394 . S
C1023 C1024 1.359 . S
C1023 H1035 0.930 . S
C1024 C1014 1.391 . S
C1024 C1023 1.359 . S
C1024 H1036 0.929 . S
H1025 C1021 0.930 . S
H1026 C1015 0.930 . S
H1027 C1044 0.930 . S
H1028 C1016 0.930 . S
H1029 C1017 0.930 . S
H1030 C1011 0.929 . S
H1031 C1049 0.930 . S
H1032 C1040 0.930 . S
H1033 C1041 0.930 . S
H1034 C1065 0.929 . S
H1035 C1023 0.930 . S
H1036 C1024 0.929 . S
H1037 C1066 0.930 . S
H1038 C1047 0.930 . S
N1039 Gd1008 2.661 . S
N1039 C1043 1.350 . S
N1039 C1044 1.307 . S
C1040 H1032 0.930 . S
C1040 C1041 1.355 . S
C1040 C1042 1.412 . S
C1041 H1033 0.930 . S
C1041 C1040 1.355 . S
C1041 C1044 1.402 . S
C1042 C1040 1.412 . S
C1042 C1043 1.417 . S
C1042 C1066 1.431 . S
C1043 N1039 1.350 . S
C1043 C1042 1.417 . S
C1043 C1046 1.426 . S
C1044 H1027 0.930 . S
C1044 N1039 1.307 . S
C1044 C1041 1.402 . S
N1045 Gd1008 2.601 . S
N1045 C1046 1.359 . S
N1045 C1049 1.334 . S
C1046 C1043 1.426 . S
C1046 N1045 1.359 . S
C1046 C1050 1.413 . S
C1047 H1038 0.930 . S
C1047 C1048 1.359 . S
C1047 C1049 1.394 . S
C1048 C1047 1.359 . S
C1048 C1050 1.391 . S
C1048 H1051 0.929 . S
C1049 H1031 0.930 . S
C1049 N1045 1.334 . S
C1049 C1047 1.394 . S
C1050 C1046 1.413 . S
C1050 C1048 1.391 . S
C1050 C1065 1.437 . S
H1051 C1048 0.929 . S
O1052 Gd1008 2.545 . S
O1052 C1067 1.258 . S
O1053 Gd1008 2.606 . S
O1053 Gd1009 2.362 . S
O1053 C1064 1.284 . S
O1054 Gd1009 2.324 . S
O1054 C1074 1.254 . S
O1055 Gd1008 2.429 . S
O1055 C1074 1.268 . S
O1056 Gd1008 2.545 . S
O1056 C1064 1.250 . S
O1057 Gd1008 2.412 . S
O1057 C1067 1.252 . S
O1058 Gd1009 2.545 . S
O1058 C1076 1.258 . S
O1059 Gd1008 2.362 . S
O1059 Gd1009 2.606 . S
O1059 C1075 1.284 . S
O1060 Gd1008 2.324 . S
O1060 C1083 1.254 . S
O1061 Gd1009 2.429 . S
O1061 C1083 1.268 . S
O1062 Gd1009 2.545 . S
O1062 C1075 1.250 . S
O1063 Gd1009 2.412 . S
O1063 C1076 1.252 . S
C1064 O1053 1.284 . S
C1064 O1056 1.250 . S
C1065 H1034 0.929 . S
C1065 C1050 1.437 . S
C1065 C1066 1.317 . S
C1066 H1037 0.930 . S
C1066 C1042 1.431 . S
C1066 C1065 1.317 . S
C1067 Gd1008 2.828 . S
C1067 O1052 1.258 . S
C1067 O1057 1.252 . S
C1067 C1068 1.497 . S
C1068 C1067 1.497 . S
C1068 C1069 1.395 . S
C1068 C1070 1.380 . S
C1069 C1068 1.395 . S
C1069 C1072 1.398 . S
C1069 H1084 0.930 . S
C1070 C1068 1.380 . S
C1070 C1071 1.391 . S
C1070 H1085 0.930 . S
C1071 C1070 1.391 . S
C1071 C1073 1.387 . S
C1072 C1069 1.398 . S
C1072 C1073 1.380 . S
C1072 H1086 0.930 . S
C1073 C1071 1.387 . S
C1073 C1072 1.380 . S
C1073 H1087 0.930 . S
C1074 O1054 1.254 . S
C1074 O1055 1.268 . S
C1075 O1059 1.284 . S
C1075 O1062 1.250 . S
C1076 Gd1009 2.828 . S
C1076 O1058 1.258 . S
C1076 O1063 1.252 . S
C1076 C1077 1.497 . S
C1077 C1076 1.497 . S
C1077 C1078 1.395 . S
C1077 C1079 1.380 . S
C1078 C1077 1.395 . S
C1078 C1081 1.398 . S
C1078 H1088 0.930 . S
C1079 C1077 1.380 . S
C1079 C1080 1.391 . S
C1079 H1089 0.930 . S
C1080 C1079 1.391 . S
C1080 C1082 1.387 . S
C1081 C1078 1.398 . S
C1081 C1082 1.380 . S
C1081 H1090 0.930 . S
C1082 C1080 1.387 . S
C1082 C1081 1.380 . S
C1082 H1091 0.930 . S
C1083 O1060 1.254 . S
C1083 O1061 1.268 . S
H1084 C1069 0.930 . S
H1085 C1070 0.930 . S
H1086 C1072 0.930 . S
H1087 C1073 0.930 . S
H1088 C1078 0.930 . S
H1089 C1079 0.930 . S
H1090 C1081 0.930 . S
H1091 C1082 0.930 . S
Gd1092 N1123 2.661 . S
Gd1092 N1129 2.601 . S
Gd1092 O1136 2.545 . S
Gd1092 O1137 2.606 . S
Gd1092 O1139 2.429 . S
Gd1092 O1140 2.545 . S
Gd1092 O1141 2.412 . S
Gd1092 O1143 2.362 . S
Gd1092 O1144 2.324 . S
Gd1092 C1151 2.828 . S
Gd1093 N1102 2.661 . S
Gd1093 N1106 2.601 . S
Gd1093 O1137 2.362 . S
Gd1093 O1138 2.324 . S
Gd1093 O1142 2.545 1_554 S
Gd1093 O1143 2.606 . S
Gd1093 O1145 2.429 . S
Gd1093 O1146 2.545 . S
Gd1093 O1147 2.412 . S
Gd1093 C1160 2.828 1_554 S
C1094 C1097 1.417 . S
C1094 C1099 1.431 . S
C1094 C1100 1.412 . S
C1095 C1098 1.437 . S
C1095 C1099 1.317 . S
C1095 H1114 0.929 . S
C1096 C1097 1.426 . S
C1096 C1098 1.413 . S
C1096 N1106 1.359 1_655 S
C1097 C1094 1.417 . S
C1097 C1096 1.426 . S
C1097 N1102 1.350 1_655 S
C1098 C1095 1.437 . S
C1098 C1096 1.413 . S
C1098 C1108 1.391 . S
C1099 C1094 1.431 . S
C1099 C1095 1.317 . S
C1099 H1110 0.930 . S
C1100 C1094 1.412 . S
C1100 C1101 1.355 . S
C1100 H1112 0.930 . S
C1101 C1100 1.355 . S
C1101 C1103 1.402 1_655 S
C1101 H1113 0.930 . S
N1102 Gd1093 2.661 . S
N1102 C1097 1.350 1_455 S
N1102 C1103 1.307 . S
C1103 C1101 1.402 1_455 S
C1103 N1102 1.307 . S
C1103 H1104 0.930 . S
H1104 C1103 0.930 . S
C1105 N1106 1.333 . S
C1105 C1107 1.392 1_455 S
C1105 H1109 0.933 . S
N1106 Gd1093 2.601 . S
N1106 C1096 1.359 1_455 S
N1106 C1105 1.333 . S
C1107 C1105 1.392 1_655 S
C1107 C1108 1.359 . S
C1107 H1119 0.930 . S
C1108 C1098 1.391 . S
C1108 C1107 1.359 . S
C1108 H1120 0.929 . S
H1109 C1105 0.933 . S
H1110 C1099 0.930 . S
H1111 C1128 0.930 . S
H1112 C1100 0.930 . S
H1113 C1101 0.930 . S
H1114 C1095 0.929 . S
H1115 C1133 0.930 . S
H1116 C1124 0.930 . S
H1117 C1125 0.930 . S
H1118 C1149 0.929 . S
H1119 C1107 0.930 . S
H1120 C1108 0.929 . S
H1121 C1150 0.930 . S
H1122 C1131 0.930 . S
N1123 Gd1092 2.661 . S
N1123 C1127 1.350 . S
N1123 C1128 1.307 . S
C1124 H1116 0.930 . S
C1124 C1125 1.355 . S
C1124 C1126 1.412 . S
C1125 H1117 0.930 . S
C1125 C1124 1.355 . S
C1125 C1128 1.402 . S
C1126 C1124 1.412 . S
C1126 C1127 1.417 . S
C1126 C1150 1.431 . S
C1127 N1123 1.350 . S
C1127 C1126 1.417 . S
C1127 C1130 1.426 . S
C1128 H1111 0.930 . S
C1128 N1123 1.307 . S
C1128 C1125 1.402 . S
N1129 Gd1092 2.601 . S
N1129 C1130 1.359 . S
N1129 C1133 1.334 . S
C1130 C1127 1.426 . S
C1130 N1129 1.359 . S
C1130 C1134 1.413 . S
C1131 H1122 0.930 . S
C1131 C1132 1.359 . S
C1131 C1133 1.394 . S
C1132 C1131 1.359 . S
C1132 C1134 1.391 . S
C1132 H1135 0.929 . S
C1133 H1115 0.930 . S
C1133 N1129 1.334 . S
C1133 C1131 1.394 . S
C1134 C1130 1.413 . S
C1134 C1132 1.391 . S
C1134 C1149 1.437 . S
H1135 C1132 0.929 . S
O1136 Gd1092 2.545 . S
O1136 C1151 1.258 . S
O1137 Gd1092 2.606 . S
O1137 Gd1093 2.362 . S
O1137 C1148 1.284 . S
O1138 Gd1093 2.324 . S
O1138 C1158 1.254 . S
O1139 Gd1092 2.429 . S
O1139 C1158 1.268 . S
O1140 Gd1092 2.545 . S
O1140 C1148 1.250 . S
O1141 Gd1092 2.412 . S
O1141 C1151 1.252 . S
O1142 Gd1093 2.545 1_556 S
O1142 C1160 1.258 . S
O1143 Gd1092 2.362 . S
O1143 Gd1093 2.606 . S
O1143 C1159 1.284 . S
O1144 Gd1092 2.324 . S
O1144 C1167 1.254 . S
O1145 Gd1093 2.429 . S
O1145 C1167 1.268 . S
O1146 Gd1093 2.545 . S
O1146 C1159 1.250 . S
O1147 Gd1093 2.412 . S
O1147 C1160 1.252 1_554 S
C1148 O1137 1.284 . S
C1148 O1140 1.250 . S
C1149 H1118 0.929 . S
C1149 C1134 1.437 . S
C1149 C1150 1.317 . S
C1150 H1121 0.930 . S
C1150 C1126 1.431 . S
C1150 C1149 1.317 . S
C1151 Gd1092 2.828 . S
C1151 O1136 1.258 . S
C1151 O1141 1.252 . S
C1151 C1152 1.497 . S
C1152 C1151 1.497 . S
C1152 C1153 1.395 . S
C1152 C1154 1.380 . S
C1153 C1152 1.395 . S
C1153 C1156 1.398 . S
C1153 H1168 0.930 . S
C1154 C1152 1.380 . S
C1154 C1155 1.391 . S
C1154 H1169 0.930 . S
C1155 C1154 1.391 . S
C1155 C1157 1.387 . S
C1156 C1153 1.398 . S
C1156 C1157 1.380 . S
C1156 H1170 0.930 . S
C1157 C1155 1.387 . S
C1157 C1156 1.380 . S
C1157 H1171 0.930 . S
C1158 O1138 1.254 . S
C1158 O1139 1.268 . S
C1159 O1143 1.284 . S
C1159 O1146 1.250 . S
C1160 Gd1093 2.828 1_556 S
C1160 O1142 1.258 . S
C1160 O1147 1.252 1_556 S
C1160 C1161 1.497 1_455 S
C1161 C1160 1.497 1_655 S
C1161 C1162 1.395 . S
C1161 C1163 1.380 1_655 S
C1162 C1161 1.395 . S
C1162 C1165 1.398 . S
C1162 H1172 0.930 . S
C1163 C1161 1.380 1_455 S
C1163 C1164 1.391 1_455 S
C1163 H1173 0.930 . S
C1164 C1163 1.391 1_655 S
C1164 C1166 1.387 . S
C1165 C1162 1.398 . S
C1165 C1166 1.380 . S
C1165 H1174 0.930 . S
C1166 C1164 1.387 . S
C1166 C1165 1.380 . S
C1166 H1175 0.930 . S
C1167 O1144 1.254 . S
C1167 O1145 1.268 . S
H1168 C1153 0.930 . S
H1169 C1154 0.930 . S
H1170 C1156 0.930 . S
H1171 C1157 0.930 . S
H1172 C1162 0.930 . S
H1173 C1163 0.930 . S
H1174 C1165 0.930 . S
H1175 C1166 0.930 . S
Gd1176 N1207 2.661 . S
Gd1176 N1213 2.601 . S
Gd1176 O1220 2.545 . S
Gd1176 O1221 2.606 . S
Gd1176 O1223 2.429 . S
Gd1176 O1224 2.545 . S
Gd1176 O1225 2.412 . S
Gd1176 O1227 2.362 . S
Gd1176 O1228 2.324 . S
Gd1176 C1235 2.828 . S
Gd1177 N1186 2.661 . S
Gd1177 N1190 2.601 . S
Gd1177 O1221 2.362 . S
Gd1177 O1222 2.324 . S
Gd1177 O1226 2.545 . S
Gd1177 O1227 2.606 . S
Gd1177 O1229 2.429 . S
Gd1177 O1230 2.545 . S
Gd1177 O1231 2.412 . S
Gd1177 C1244 2.828 . S
C1178 C1181 1.417 . S
C1178 C1183 1.431 . S
C1178 C1184 1.412 . S
C1179 C1182 1.437 . S
C1179 C1183 1.317 . S
C1179 H1198 0.929 . S
C1180 C1181 1.426 . S
C1180 C1182 1.413 . S
C1180 N1190 1.359 . S
C1181 C1178 1.417 . S
C1181 C1180 1.426 . S
C1181 N1186 1.350 . S
C1182 C1179 1.437 . S
C1182 C1180 1.413 . S
C1182 C1192 1.391 . S
C1183 C1178 1.431 . S
C1183 C1179 1.317 . S
C1183 H1194 0.930 . S
C1184 C1178 1.412 . S
C1184 C1185 1.355 . S
C1184 H1196 0.930 . S
C1185 C1184 1.355 . S
C1185 C1187 1.402 . S
C1185 H1197 0.930 . S
N1186 Gd1177 2.661 . S
N1186 C1181 1.350 . S
N1186 C1187 1.307 . S
C1187 C1185 1.402 . S
C1187 N1186 1.307 . S
C1187 H1188 0.930 . S
H1188 C1187 0.930 . S
C1189 N1190 1.334 . S
C1189 C1191 1.394 . S
C1189 H1193 0.930 . S
N1190 Gd1177 2.601 . S
N1190 C1180 1.359 . S
N1190 C1189 1.334 . S
C1191 C1189 1.394 . S
C1191 C1192 1.359 . S
C1191 H1203 0.930 . S
C1192 C1182 1.391 . S
C1192 C1191 1.359 . S
C1192 H1204 0.929 . S
H1193 C1189 0.930 . S
H1194 C1183 0.930 . S
H1195 C1212 0.930 . S
H1196 C1184 0.930 . S
H1197 C1185 0.930 . S
H1198 C1179 0.929 . S
H1199 C1217 0.930 . S
H1200 C1208 0.930 . S
H1201 C1209 0.930 . S
H1202 C1233 0.929 . S
H1203 C1191 0.930 . S
H1204 C1192 0.929 . S
H1205 C1234 0.930 . S
H1206 C1215 0.930 . S
N1207 Gd1176 2.661 . S
N1207 C1211 1.350 . S
N1207 C1212 1.307 . S
C1208 H1200 0.930 . S
C1208 C1209 1.355 . S
C1208 C1210 1.412 . S
C1209 H1201 0.930 . S
C1209 C1208 1.355 . S
C1209 C1212 1.402 . S
C1210 C1208 1.412 . S
C1210 C1211 1.417 . S
C1210 C1234 1.431 . S
C1211 N1207 1.350 . S
C1211 C1210 1.417 . S
C1211 C1214 1.426 . S
C1212 H1195 0.930 . S
C1212 N1207 1.307 . S
C1212 C1209 1.402 . S
N1213 Gd1176 2.601 . S
N1213 C1214 1.359 . S
N1213 C1217 1.334 . S
C1214 C1211 1.426 . S
C1214 N1213 1.359 . S
C1214 C1218 1.413 . S
C1215 H1206 0.930 . S
C1215 C1216 1.359 . S
C1215 C1217 1.394 . S
C1216 C1215 1.359 . S
C1216 C1218 1.391 . S
C1216 H1219 0.929 . S
C1217 H1199 0.930 . S
C1217 N1213 1.334 . S
C1217 C1215 1.394 . S
C1218 C1214 1.413 . S
C1218 C1216 1.391 . S
C1218 C1233 1.437 . S
H1219 C1216 0.929 . S
O1220 Gd1176 2.545 . S
O1220 C1235 1.258 . S
O1221 Gd1176 2.606 . S
O1221 Gd1177 2.362 . S
O1221 C1232 1.284 . S
O1222 Gd1177 2.324 . S
O1222 C1242 1.254 . S
O1223 Gd1176 2.429 . S
O1223 C1242 1.268 . S
O1224 Gd1176 2.545 . S
O1224 C1232 1.250 . S
O1225 Gd1176 2.412 . S
O1225 C1235 1.252 . S
O1226 Gd1177 2.545 . S
O1226 C1244 1.258 . S
O1227 Gd1176 2.362 . S
O1227 Gd1177 2.606 . S
O1227 C1243 1.284 . S
O1228 Gd1176 2.324 . S
O1228 C1251 1.254 . S
O1229 Gd1177 2.429 . S
O1229 C1251 1.268 . S
O1230 Gd1177 2.545 . S
O1230 C1243 1.250 . S
O1231 Gd1177 2.412 . S
O1231 C1244 1.252 . S
C1232 O1221 1.284 . S
C1232 O1224 1.250 . S
C1233 H1202 0.929 . S
C1233 C1218 1.437 . S
C1233 C1234 1.317 . S
C1234 H1205 0.930 . S
C1234 C1210 1.431 . S
C1234 C1233 1.317 . S
C1235 Gd1176 2.828 . S
C1235 O1220 1.258 . S
C1235 O1225 1.252 . S
C1235 C1236 1.497 . S
C1236 C1235 1.497 . S
C1236 C1237 1.395 . S
C1236 C1238 1.380 . S
C1237 C1236 1.395 . S
C1237 C1240 1.398 . S
C1237 H1252 0.930 . S
C1238 C1236 1.380 . S
C1238 C1239 1.391 . S
C1238 H1253 0.930 . S
C1239 C1238 1.391 . S
C1239 C1241 1.387 . S
C1240 C1237 1.398 . S
C1240 C1241 1.380 . S
C1240 H1254 0.930 . S
C1241 C1239 1.387 . S
C1241 C1240 1.380 . S
C1241 H1255 0.930 . S
C1242 O1222 1.254 . S
C1242 O1223 1.268 . S
C1243 O1227 1.284 . S
C1243 O1230 1.250 . S
C1244 Gd1177 2.828 . S
C1244 O1226 1.258 . S
C1244 O1231 1.252 . S
C1244 C1245 1.497 . S
C1245 C1244 1.497 . S
C1245 C1246 1.395 . S
C1245 C1247 1.380 . S
C1246 C1245 1.395 . S
C1246 C1249 1.398 . S
C1246 H1256 0.930 . S
C1247 C1245 1.380 . S
C1247 C1248 1.391 . S
C1247 H1257 0.930 . S
C1248 C1247 1.391 . S
C1248 C1250 1.387 . S
C1249 C1246 1.398 . S
C1249 C1250 1.380 . S
C1249 H1258 0.930 . S
C1250 C1248 1.387 . S
C1250 C1249 1.380 . S
C1250 H1259 0.930 . S
C1251 O1228 1.254 . S
C1251 O1229 1.268 . S
H1252 C1237 0.930 . S
H1253 C1238 0.930 . S
H1254 C1240 0.930 . S
H1255 C1241 0.930 . S
H1256 C1246 0.930 . S
H1257 C1247 0.930 . S
H1258 C1249 0.930 . S
H1259 C1250 0.930 . S
Gd1260 N1291 2.661 . S
Gd1260 N1297 2.601 . S
Gd1260 O1304 2.545 1_556 S
Gd1260 O1305 2.606 1_455 S
Gd1260 O1307 2.429 . S
Gd1260 O1308 2.545 . S
Gd1260 O1309 2.412 . S
Gd1260 O1311 2.362 . S
Gd1260 O1312 2.324 . S
Gd1260 C1319 2.828 1_556 S
Gd1261 N1270 2.661 . S
Gd1261 N1274 2.601 . S
Gd1261 O1305 2.362 . S
Gd1261 O1306 2.324 . S
Gd1261 O1310 2.545 . S
Gd1261 O1311 2.606 1_655 S
Gd1261 O1313 2.429 . S
Gd1261 O1314 2.545 . S
Gd1261 O1315 2.412 . S
Gd1261 C1328 2.828 . S
C1262 C1265 1.417 . S
C1262 C1267 1.431 . S
C1262 C1268 1.412 . S
C1263 C1266 1.437 . S
C1263 C1267 1.317 . S
C1263 H1282 0.929 . S
C1264 C1265 1.426 . S
C1264 C1266 1.413 . S
C1264 N1274 1.359 . S
C1265 C1262 1.417 . S
C1265 C1264 1.426 . S
C1265 N1270 1.350 . S
C1266 C1263 1.437 . S
C1266 C1264 1.413 . S
C1266 C1276 1.391 . S
C1267 C1262 1.431 . S
C1267 C1263 1.317 . S
C1267 H1278 0.930 . S
C1268 C1262 1.412 . S
C1268 C1269 1.355 . S
C1268 H1280 0.930 . S
C1269 C1268 1.355 . S
C1269 C1271 1.402 . S
C1269 H1281 0.930 . S
N1270 Gd1261 2.661 . S
N1270 C1265 1.350 . S
N1270 C1271 1.307 . S
C1271 C1269 1.402 . S
C1271 N1270 1.307 . S
C1271 H1272 0.930 . S
H1272 C1271 0.930 . S
C1273 N1274 1.334 . S
C1273 C1275 1.394 . S
C1273 H1277 0.930 . S
N1274 Gd1261 2.601 . S
N1274 C1264 1.359 . S
N1274 C1273 1.334 . S
C1275 C1273 1.394 . S
C1275 C1276 1.359 . S
C1275 H1287 0.930 . S
C1276 C1266 1.391 . S
C1276 C1275 1.359 . S
C1276 H1288 0.929 . S
H1277 C1273 0.930 . S
H1278 C1267 0.930 . S
H1279 C1296 0.930 . S
H1280 C1268 0.930 . S
H1281 C1269 0.930 . S
H1282 C1263 0.929 . S
H1283 C1301 0.930 . S
H1284 C1292 0.930 . S
H1285 C1293 0.930 . S
H1286 C1317 0.929 . S
H1287 C1275 0.930 . S
H1288 C1276 0.929 . S
H1289 C1318 0.930 . S
H1290 C1299 0.930 . S
N1291 Gd1260 2.661 . S
N1291 C1295 1.350 . S
N1291 C1296 1.307 . S
C1292 H1284 0.930 . S
C1292 C1293 1.355 . S
C1292 C1294 1.412 . S
C1293 H1285 0.930 . S
C1293 C1292 1.355 . S
C1293 C1296 1.402 . S
C1294 C1292 1.412 . S
C1294 C1295 1.417 . S
C1294 C1318 1.431 . S
C1295 N1291 1.350 . S
C1295 C1294 1.417 . S
C1295 C1298 1.426 . S
C1296 H1279 0.930 . S
C1296 N1291 1.307 . S
C1296 C1293 1.402 . S
N1297 Gd1260 2.601 . S
N1297 C1298 1.359 . S
N1297 C1301 1.334 . S
C1298 C1295 1.426 . S
C1298 N1297 1.359 . S
C1298 C1302 1.413 . S
C1299 H1290 0.930 . S
C1299 C1300 1.359 . S
C1299 C1301 1.394 . S
C1300 C1299 1.359 . S
C1300 C1302 1.391 . S
C1300 H1303 0.929 . S
C1301 H1283 0.930 . S
C1301 N1297 1.334 . S
C1301 C1299 1.394 . S
C1302 C1298 1.413 . S
C1302 C1300 1.391 . S
C1302 C1317 1.437 . S
H1303 C1300 0.929 . S
O1304 Gd1260 2.545 1_554 S
O1304 C1319 1.258 . S
O1305 Gd1260 2.606 1_655 S
O1305 Gd1261 2.362 . S
O1305 C1316 1.284 . S
O1306 Gd1261 2.324 . S
O1306 C1326 1.254 1_655 S
O1307 Gd1260 2.429 . S
O1307 C1326 1.268 . S
O1308 Gd1260 2.545 . S
O1308 C1316 1.250 1_455 S
O1309 Gd1260 2.412 . S
O1309 C1319 1.252 1_556 S
O1310 Gd1261 2.545 . S
O1310 C1328 1.258 . S
O1311 Gd1260 2.362 . S
O1311 Gd1261 2.606 1_455 S
O1311 C1327 1.284 . S
O1312 Gd1260 2.324 . S
O1312 C1335 1.254 1_455 S
O1313 Gd1261 2.429 . S
O1313 C1335 1.268 . S
O1314 Gd1261 2.545 . S
O1314 C1327 1.250 1_655 S
O1315 Gd1261 2.412 . S
O1315 C1328 1.252 . S
C1316 O1305 1.284 . S
C1316 O1308 1.250 1_655 S
C1317 H1286 0.929 . S
C1317 C1302 1.437 . S
C1317 C1318 1.317 . S
C1318 H1289 0.930 . S
C1318 C1294 1.431 . S
C1318 C1317 1.317 . S
C1319 Gd1260 2.828 1_554 S
C1319 O1304 1.258 . S
C1319 O1309 1.252 1_554 S
C1319 C1320 1.497 . S
C1320 C1319 1.497 . S
C1320 C1321 1.395 . S
C1320 C1322 1.380 . S
C1321 C1320 1.395 . S
C1321 C1324 1.398 . S
C1321 H1336 0.930 . S
C1322 C1320 1.380 . S
C1322 C1323 1.391 . S
C1322 H1337 0.930 . S
C1323 C1322 1.391 . S
C1323 C1325 1.387 . S
C1324 C1321 1.398 . S
C1324 C1325 1.380 . S
C1324 H1338 0.930 . S
C1325 C1323 1.387 . S
C1325 C1324 1.380 . S
C1325 H1339 0.930 . S
C1326 O1306 1.254 1_455 S
C1326 O1307 1.268 . S
C1327 O1311 1.284 . S
C1327 O1314 1.250 1_455 S
C1328 Gd1261 2.828 . S
C1328 O1310 1.258 . S
C1328 O1315 1.252 . S
C1328 C1329 1.497 . S
C1329 C1328 1.497 . S
C1329 C1330 1.395 . S
C1329 C1331 1.380 . S
C1330 C1329 1.395 . S
C1330 C1333 1.398 . S
C1330 H1340 0.930 . S
C1331 C1329 1.380 . S
C1331 C1332 1.391 . S
C1331 H1341 0.930 . S
C1332 C1331 1.391 . S
C1332 C1334 1.387 . S
C1333 C1330 1.398 . S
C1333 C1334 1.380 . S
C1333 H1342 0.930 . S
C1334 C1332 1.387 . S
C1334 C1333 1.380 . S
C1334 H1343 0.930 . S
C1335 O1312 1.254 1_655 S
C1335 O1313 1.268 . S
H1336 C1321 0.930 . S
H1337 C1322 0.930 . S
H1338 C1324 0.930 . S
H1339 C1325 0.930 . S
H1340 C1330 0.930 . S
H1341 C1331 0.930 . S
H1342 C1333 0.930 . S
H1343 C1334 0.930 . S
H1344 C1350 0.930 . S
H1345 C1353 0.930 . S
H1346 C1354 0.930 . S
H1347 C1355 0.930 . S
H1348 C1358 0.930 . S
H1349 C1359 0.930 . S
C1350 H1344 0.930 . S
C1350 C1351 1.355 . S
C1350 C1352 1.415 . S
C1351 C1350 1.355 . S
C1351 C1353 1.419 . S
C1352 C1350 1.415 . S
C1352 C1357 1.425 . S
C1352 C1359 1.409 . S
C1353 H1345 0.930 . S
C1353 C1351 1.419 . S
C1353 C1354 1.362 . S
C1354 H1346 0.930 . S
C1354 C1353 1.362 . S
C1354 C1357 1.409 . S
C1355 H1347 0.930 . S
C1355 C1356 1.355 . S
C1355 C1357 1.415 . S
C1356 C1355 1.355 . S
C1356 C1358 1.419 . S
C1357 C1352 1.425 . S
C1357 C1354 1.409 . S
C1357 C1355 1.415 . S
C1358 H1348 0.930 . S
C1358 C1356 1.419 . S
C1358 C1359 1.362 . S
C1359 H1349 0.930 . S
C1359 C1352 1.409 . S
C1359 C1358 1.362 . S
H1360 C1366 0.930 . S
H1361 C1369 0.930 . S
H1362 C1370 0.930 . S
H1363 C1371 0.930 1_556 S
H1364 C1374 0.930 . S
H1365 C1375 0.930 . S
C1366 H1360 0.930 . S
C1366 C1367 1.355 . S
C1366 C1368 1.415 . S
C1367 C1366 1.355 . S
C1367 C1369 1.419 . S
C1368 C1366 1.415 . S
C1368 C1373 1.425 . S
C1368 C1375 1.409 . S
C1369 H1361 0.930 . S
C1369 C1367 1.419 . S
C1369 C1370 1.362 . S
C1370 H1362 0.930 . S
C1370 C1369 1.362 . S
C1370 C1373 1.409 . S
C1371 H1363 0.930 1_554 S
C1371 C1372 1.355 1_554 S
C1371 C1373 1.415 . S
C1372 C1371 1.355 1_556 S
C1372 C1374 1.419 1_556 S
C1373 C1368 1.425 . S
C1373 C1370 1.409 . S
C1373 C1371 1.415 . S
C1374 H1364 0.930 . S
C1374 C1372 1.419 1_554 S
C1374 C1375 1.362 . S
C1375 H1365 0.930 . S
C1375 C1368 1.409 . S
C1375 C1374 1.362 . S
H1376 C1382 0.930 . S
H1377 C1385 0.930 . S
H1378 C1386 0.930 . S
H1379 C1387 0.930 . S
H1380 C1390 0.930 . S
H1381 C1391 0.930 . S
C1382 H1376 0.930 . S
C1382 C1383 1.355 . S
C1382 C1384 1.415 . S
C1383 C1382 1.355 . S
C1383 C1385 1.419 . S
C1384 C1382 1.415 . S
C1384 C1389 1.425 . S
C1384 C1391 1.409 . S
C1385 H1377 0.930 . S
C1385 C1383 1.419 . S
C1385 C1386 1.362 . S
C1386 H1378 0.930 . S
C1386 C1385 1.362 . S
C1386 C1389 1.409 . S
C1387 H1379 0.930 . S
C1387 C1388 1.355 . S
C1387 C1389 1.415 . S
C1388 C1387 1.355 . S
C1388 C1390 1.419 . S
C1389 C1384 1.425 . S
C1389 C1386 1.409 . S
C1389 C1387 1.415 . S
C1390 H1380 0.930 . S
C1390 C1388 1.419 . S
C1390 C1391 1.362 . S
C1391 H1381 0.930 . S
C1391 C1384 1.409 . S
C1391 C1390 1.362 . S
H1392 C1398 0.930 . S
H1393 C1401 0.930 . S
H1394 C1402 0.930 . S
H1395 C1403 0.930 . S
H1396 C1406 0.930 . S
H1397 C1407 0.930 . S
C1398 H1392 0.930 . S
C1398 C1399 1.355 . S
C1398 C1400 1.415 . S
C1399 C1398 1.355 . S
C1399 C1401 1.419 . S
C1400 C1398 1.415 . S
C1400 C1405 1.425 . S
C1400 C1407 1.409 . S
C1401 H1393 0.930 . S
C1401 C1399 1.419 . S
C1401 C1402 1.362 . S
C1402 H1394 0.930 . S
C1402 C1401 1.362 . S
C1402 C1405 1.409 . S
C1403 H1395 0.930 . S
C1403 C1404 1.355 . S
C1403 C1405 1.415 . S
C1404 C1403 1.355 . S
C1404 C1406 1.419 . S
C1405 C1400 1.425 . S
C1405 C1402 1.409 . S
C1405 C1403 1.415 . S
C1406 H1396 0.930 . S
C1406 C1404 1.419 . S
C1406 C1407 1.362 . S
C1407 H1397 0.930 . S
C1407 C1400 1.409 . S
C1407 C1406 1.362 . S
H1408 C1414 0.930 . S
H1409 C1417 0.930 . S
H1410 C1418 0.930 . S
H1411 C1419 0.930 . S
H1412 C1422 0.930 . S
H1413 C1423 0.930 . S
C1414 H1408 0.930 . S
C1414 C1415 1.355 . S
C1414 C1416 1.415 . S
C1415 C1414 1.355 . S
C1415 C1417 1.419 . S
C1416 C1414 1.415 . S
C1416 C1421 1.425 . S
C1416 C1423 1.409 . S
C1417 H1409 0.930 . S
C1417 C1415 1.419 . S
C1417 C1418 1.362 . S
C1418 H1410 0.930 . S
C1418 C1417 1.362 . S
C1418 C1421 1.409 . S
C1419 H1411 0.930 . S
C1419 C1420 1.355 . S
C1419 C1421 1.415 . S
C1420 C1419 1.355 . S
C1420 C1422 1.419 . S
C1421 C1416 1.425 . S
C1421 C1418 1.409 . S
C1421 C1419 1.415 . S
C1422 H1412 0.930 . S
C1422 C1420 1.419 . S
C1422 C1423 1.362 . S
C1423 H1413 0.930 . S
C1423 C1416 1.409 . S
C1423 C1422 1.362 . S
H1424 C1430 0.930 . S
H1425 C1433 0.930 . S
H1426 C1434 0.930 . S
H1427 C1435 0.930 . S
H1428 C1438 0.930 . S
H1429 C1439 0.930 . S
C1430 H1424 0.930 . S
C1430 C1431 1.355 . S
C1430 C1432 1.415 . S
C1431 C1430 1.355 . S
C1431 C1433 1.419 . S
C1432 C1430 1.415 . S
C1432 C1437 1.425 . S
C1432 C1439 1.409 . S
C1433 H1425 0.930 . S
C1433 C1431 1.419 . S
C1433 C1434 1.362 . S
C1434 H1426 0.930 . S
C1434 C1433 1.362 . S
C1434 C1437 1.409 . S
C1435 H1427 0.930 . S
C1435 C1436 1.355 1_556 S
C1435 C1437 1.415 . S
C1436 C1435 1.355 1_554 S
C1436 C1438 1.419 . S
C1437 C1432 1.425 . S
C1437 C1434 1.409 . S
C1437 C1435 1.415 . S
C1438 H1428 0.930 . S
C1438 C1436 1.419 . S
C1438 C1439 1.362 1_554 S
C1439 H1429 0.930 . S
C1439 C1432 1.409 . S
C1439 C1438 1.362 1_556 S
H1440 C1446 0.930 . S
H1441 C1449 0.930 . S
H1442 C1450 0.930 . S
H1443 C1451 0.930 . S
H1444 C1454 0.930 . S
H1445 C1455 0.930 . S
C1446 H1440 0.930 . S
C1446 C1447 1.355 . S
C1446 C1448 1.415 . S
C1447 C1446 1.355 . S
C1447 C1449 1.419 . S
C1448 C1446 1.415 . S
C1448 C1453 1.425 . S
C1448 C1455 1.409 . S
C1449 H1441 0.930 . S
C1449 C1447 1.419 . S
C1449 C1450 1.362 . S
C1450 H1442 0.930 . S
C1450 C1449 1.362 . S
C1450 C1453 1.409 . S
C1451 H1443 0.930 . S
C1451 C1452 1.355 . S
C1451 C1453 1.415 . S
C1452 C1451 1.355 . S
C1452 C1454 1.419 . S
C1453 C1448 1.425 . S
C1453 C1450 1.409 . S
C1453 C1451 1.415 . S
C1454 H1444 0.930 . S
C1454 C1452 1.419 . S
C1454 C1455 1.362 . S
C1455 H1445 0.930 . S
C1455 C1448 1.409 . S
C1455 C1454 1.362 . S
H1456 C1462 0.930 . S
H1457 C1465 0.930 . S
H1458 C1466 0.930 . S
H1459 C1467 0.930 . S
H1460 C1470 0.930 . S
H1461 C1471 0.930 . S
C1462 H1456 0.930 . S
C1462 C1463 1.355 . S
C1462 C1464 1.415 . S
C1463 C1462 1.355 . S
C1463 C1465 1.419 . S
C1464 C1462 1.415 . S
C1464 C1469 1.425 . S
C1464 C1471 1.409 . S
C1465 H1457 0.930 . S
C1465 C1463 1.419 . S
C1465 C1466 1.362 . S
C1466 H1458 0.930 . S
C1466 C1465 1.362 . S
C1466 C1469 1.409 . S
C1467 H1459 0.930 . S
C1467 C1468 1.355 . S
C1467 C1469 1.415 . S
C1468 C1467 1.355 . S
C1468 C1470 1.419 . S
C1469 C1464 1.425 . S
C1469 C1466 1.409 . S
C1469 C1467 1.415 . S
C1470 H1460 0.930 . S
C1470 C1468 1.419 . S
C1470 C1471 1.362 . S
C1471 H1461 0.930 . S
C1471 C1464 1.409 . S
C1471 C1470 1.362 . S
H1472 C1478 0.930 . S
H1473 C1481 0.930 . S
H1474 C1482 0.930 . S
H1475 C1483 0.930 . S
H1476 C1486 0.930 . S
H1477 C1487 0.930 . S
C1478 H1472 0.930 . S
C1478 C1479 1.355 . S
C1478 C1480 1.415 . S
C1479 C1478 1.355 . S
C1479 C1481 1.419 . S
C1480 C1478 1.415 . S
C1480 C1485 1.425 . S
C1480 C1487 1.409 . S
C1481 H1473 0.930 . S
C1481 C1479 1.419 . S
C1481 C1482 1.362 . S
C1482 H1474 0.930 . S
C1482 C1481 1.362 . S
C1482 C1485 1.409 . S
C1483 H1475 0.930 . S
C1483 C1484 1.355 . S
C1483 C1485 1.415 . S
C1484 C1483 1.355 . S
C1484 C1486 1.419 . S
C1485 C1480 1.425 . S
C1485 C1482 1.409 . S
C1485 C1483 1.415 . S
C1486 H1476 0.930 . S
C1486 C1484 1.419 . S
C1486 C1487 1.362 . S
C1487 H1477 0.930 . S
C1487 C1480 1.409 . S
C1487 C1486 1.362 . S
H1488 C1494 0.930 . S
H1489 C1497 0.930 . S
H1490 C1498 0.930 . S
H1491 C1499 0.930 . S
H1492 C1502 0.930 . S
H1493 C1503 0.930 . S
C1494 H1488 0.930 . S
C1494 C1495 1.355 . S
C1494 C1496 1.415 . S
C1495 C1494 1.355 . S
C1495 C1497 1.419 . S
C1496 C1494 1.415 . S
C1496 C1501 1.425 . S
C1496 C1503 1.409 . S
C1497 H1489 0.930 . S
C1497 C1495 1.419 . S
C1497 C1498 1.362 . S
C1498 H1490 0.930 . S
C1498 C1497 1.362 . S
C1498 C1501 1.409 . S
C1499 H1491 0.930 . S
C1499 C1500 1.355 . S
C1499 C1501 1.415 . S
C1500 C1499 1.355 . S
C1500 C1502 1.419 . S
C1501 C1496 1.425 . S
C1501 C1498 1.409 . S
C1501 C1499 1.415 . S
C1502 H1492 0.930 . S
C1502 C1500 1.419 . S
C1502 C1503 1.362 . S
C1503 H1493 0.930 . S
C1503 C1496 1.409 . S
C1503 C1502 1.362 . S
H1504 C1510 0.930 . S
H1505 C1513 0.930 . S
H1506 C1514 0.930 . S
H1507 C1515 0.930 . S
H1508 C1518 0.930 . S
H1509 C1519 0.930 . S
C1510 H1504 0.930 . S
C1510 C1511 1.355 . S
C1510 C1512 1.415 . S
C1511 C1510 1.355 . S
C1511 C1513 1.419 . S
C1512 C1510 1.415 . S
C1512 C1517 1.425 . S
C1512 C1519 1.409 . S
C1513 H1505 0.930 . S
C1513 C1511 1.419 . S
C1513 C1514 1.362 . S
C1514 H1506 0.930 . S
C1514 C1513 1.362 . S
C1514 C1517 1.409 . S
C1515 H1507 0.930 . S
C1515 C1516 1.355 . S
C1515 C1517 1.415 . S
C1516 C1515 1.355 . S
C1516 C1518 1.419 . S
C1517 C1512 1.425 . S
C1517 C1514 1.409 . S
C1517 C1515 1.415 . S
C1518 H1508 0.930 . S
C1518 C1516 1.419 . S
C1518 C1519 1.362 . S
C1519 H1509 0.930 . S
C1519 C1512 1.409 . S
C1519 C1518 1.362 . S
H1520 C1526 0.930 . S
H1521 C1529 0.930 . S
H1522 C1530 0.930 . S
H1523 C1531 0.930 . S
H1524 C1534 0.930 . S
H1525 C1535 0.930 . S
C1526 H1520 0.930 . S
C1526 C1527 1.355 . S
C1526 C1528 1.415 . S
C1527 C1526 1.355 . S
C1527 C1529 1.419 . S
C1528 C1526 1.415 . S
C1528 C1533 1.425 . S
C1528 C1535 1.409 . S
C1529 H1521 0.930 . S
C1529 C1527 1.419 . S
C1529 C1530 1.362 . S
C1530 H1522 0.930 . S
C1530 C1529 1.362 . S
C1530 C1533 1.409 . S
C1531 H1523 0.930 . S
C1531 C1532 1.355 . S
C1531 C1533 1.415 . S
C1532 C1531 1.355 . S
C1532 C1534 1.419 . S
C1533 C1528 1.425 . S
C1533 C1530 1.409 . S
C1533 C1531 1.415 . S
C1534 H1524 0.930 . S
C1534 C1532 1.419 . S
C1534 C1535 1.362 . S
C1535 H1525 0.930 . S
C1535 C1528 1.409 . S
C1535 C1534 1.362 . S
H1536 C1542 0.930 . S
H1537 C1545 0.930 . S
H1538 C1546 0.930 . S
H1539 C1547 0.930 . S
H1540 C1550 0.930 . S
H1541 C1551 0.930 . S
C1542 H1536 0.930 . S
C1542 C1543 1.355 . S
C1542 C1544 1.415 . S
C1543 C1542 1.355 . S
C1543 C1545 1.419 . S
C1544 C1542 1.415 . S
C1544 C1549 1.425 . S
C1544 C1551 1.409 . S
C1545 H1537 0.930 . S
C1545 C1543 1.419 . S
C1545 C1546 1.362 . S
C1546 H1538 0.930 . S
C1546 C1545 1.362 . S
C1546 C1549 1.409 . S
C1547 H1539 0.930 . S
C1547 C1548 1.355 . S
C1547 C1549 1.415 . S
C1548 C1547 1.355 . S
C1548 C1550 1.419 . S
C1549 C1544 1.425 . S
C1549 C1546 1.409 . S
C1549 C1547 1.415 . S
C1550 H1540 0.930 . S
C1550 C1548 1.419 . S
C1550 C1551 1.362 . S
C1551 H1541 0.930 . S
C1551 C1544 1.409 . S
C1551 C1550 1.362 . S
H1552 C1558 0.930 . S
H1553 C1561 0.930 . S
H1554 C1562 0.930 . S
H1555 C1563 0.930 . S
H1556 C1566 0.930 . S
H1557 C1567 0.930 . S
C1558 H1552 0.930 . S
C1558 C1559 1.355 . S
C1558 C1560 1.415 . S
C1559 C1558 1.355 . S
C1559 C1561 1.419 . S
C1560 C1558 1.415 . S
C1560 C1565 1.425 . S
C1560 C1567 1.409 . S
C1561 H1553 0.930 . S
C1561 C1559 1.419 . S
C1561 C1562 1.362 . S
C1562 H1554 0.930 . S
C1562 C1561 1.362 . S
C1562 C1565 1.409 . S
C1563 H1555 0.930 . S
C1563 C1564 1.355 . S
C1563 C1565 1.415 . S
C1564 C1563 1.355 . S
C1564 C1566 1.419 . S
C1565 C1560 1.425 . S
C1565 C1562 1.409 . S
C1565 C1563 1.415 . S
C1566 H1556 0.930 . S
C1566 C1564 1.419 . S
C1566 C1567 1.362 . S
C1567 H1557 0.930 . S
C1567 C1560 1.409 . S
C1567 C1566 1.362 . S
H1568 C1574 0.930 . S
H1569 C1577 0.930 . S
H1570 C1578 0.930 . S
H1571 C1579 0.930 . S
H1572 C1582 0.930 . S
H1573 C1583 0.930 . S
C1574 H1568 0.930 . S
C1574 C1575 1.355 . S
C1574 C1576 1.415 . S
C1575 C1574 1.355 . S
C1575 C1577 1.419 . S
C1576 C1574 1.415 . S
C1576 C1581 1.425 . S
C1576 C1583 1.409 . S
C1577 H1569 0.930 . S
C1577 C1575 1.419 . S
C1577 C1578 1.362 . S
C1578 H1570 0.930 . S
C1578 C1577 1.362 . S
C1578 C1581 1.409 . S
C1579 H1571 0.930 . S
C1579 C1580 1.355 . S
C1579 C1581 1.415 . S
C1580 C1579 1.355 . S
C1580 C1582 1.419 . S
C1581 C1576 1.425 . S
C1581 C1578 1.409 . S
C1581 C1579 1.415 . S
C1582 H1572 0.930 . S
C1582 C1580 1.419 . S
C1582 C1583 1.362 . S
C1583 H1573 0.930 . S
C1583 C1576 1.409 . S
C1583 C1582 1.362 . S
H1584 C1590 0.930 . S
H1585 C1593 0.930 . S
H1586 C1594 0.930 . S
H1587 C1595 0.930 . S
H1588 C1598 0.930 . S
H1589 C1599 0.930 . S
C1590 H1584 0.930 . S
C1590 C1591 1.355 . S
C1590 C1592 1.415 . S
C1591 C1590 1.355 . S
C1591 C1593 1.419 . S
C1592 C1590 1.415 . S
C1592 C1597 1.425 . S
C1592 C1599 1.409 . S
C1593 H1585 0.930 . S
C1593 C1591 1.419 . S
C1593 C1594 1.362 . S
C1594 H1586 0.930 . S
C1594 C1593 1.362 . S
C1594 C1597 1.409 . S
C1595 H1587 0.930 . S
C1595 C1596 1.355 . S
C1595 C1597 1.415 . S
C1596 C1595 1.355 . S
C1596 C1598 1.419 . S
C1597 C1592 1.425 . S
C1597 C1594 1.409 . S
C1597 C1595 1.415 . S
C1598 H1588 0.930 . S
C1598 C1596 1.419 . S
C1598 C1599 1.362 . S
C1599 H1589 0.930 . S
C1599 C1592 1.409 . S
C1599 C1598 1.362 . S
H1600 C1606 0.930 . S
H1601 C1609 0.930 . S
H1602 C1610 0.930 . S
H1603 C1611 0.930 . S
H1604 C1614 0.930 . S
H1605 C1615 0.930 . S
C1606 H1600 0.930 . S
C1606 C1607 1.355 . S
C1606 C1608 1.415 . S
C1607 C1606 1.355 . S
C1607 C1609 1.419 . S
C1608 C1606 1.415 . S
C1608 C1613 1.425 . S
C1608 C1615 1.409 . S
C1609 H1601 0.930 . S
C1609 C1607 1.419 . S
C1609 C1610 1.362 . S
C1610 H1602 0.930 . S
C1610 C1609 1.362 . S
C1610 C1613 1.409 . S
C1611 H1603 0.930 . S
C1611 C1612 1.355 . S
C1611 C1613 1.415 . S
C1612 C1611 1.355 . S
C1612 C1614 1.419 . S
C1613 C1608 1.425 . S
C1613 C1610 1.409 . S
C1613 C1611 1.415 . S
C1614 H1604 0.930 . S
C1614 C1612 1.419 . S
C1614 C1615 1.362 . S
C1615 H1605 0.930 . S
C1615 C1608 1.409 . S
C1615 C1614 1.362 . S
H1616 C1622 0.930 . S
H1617 C1625 0.930 . S
H1618 C1626 0.930 . S
H1619 C1627 0.930 . S
H1620 C1630 0.930 . S
H1621 C1631 0.930 . S
C1622 H1616 0.930 . S
C1622 C1623 1.355 . S
C1622 C1624 1.415 1_655 S
C1623 C1622 1.355 . S
C1623 C1625 1.419 . S
C1624 C1622 1.415 1_455 S
C1624 C1629 1.425 . S
C1624 C1631 1.409 . S
C1625 H1617 0.930 . S
C1625 C1623 1.419 . S
C1625 C1626 1.362 . S
C1626 H1618 0.930 . S
C1626 C1625 1.362 . S
C1626 C1629 1.409 1_655 S
C1627 H1619 0.930 . S
C1627 C1628 1.355 . S
C1627 C1629 1.415 . S
C1628 C1627 1.355 . S
C1628 C1630 1.419 . S
C1629 C1624 1.425 . S
C1629 C1626 1.409 1_455 S
C1629 C1627 1.415 . S
C1630 H1620 0.930 . S
C1630 C1628 1.419 . S
C1630 C1631 1.362 . S
C1631 H1621 0.930 . S
C1631 C1624 1.409 . S
C1631 C1630 1.362 . S
H1632 C1638 0.930 . S
H1633 C1641 0.930 . S
H1634 C1642 0.930 . S
H1635 C1643 0.930 . S
H1636 C1646 0.930 . S
H1637 C1647 0.930 . S
C1638 H1632 0.930 . S
C1638 C1639 1.355 . S
C1638 C1640 1.415 . S
C1639 C1638 1.355 . S
C1639 C1641 1.419 . S
C1640 C1638 1.415 . S
C1640 C1645 1.425 . S
C1640 C1647 1.409 . S
C1641 H1633 0.930 . S
C1641 C1639 1.419 . S
C1641 C1642 1.362 . S
C1642 H1634 0.930 . S
C1642 C1641 1.362 . S
C1642 C1645 1.409 . S
C1643 H1635 0.930 . S
C1643 C1644 1.355 . S
C1643 C1645 1.415 . S
C1644 C1643 1.355 . S
C1644 C1646 1.419 . S
C1645 C1640 1.425 . S
C1645 C1642 1.409 . S
C1645 C1643 1.415 . S
C1646 H1636 0.930 . S
C1646 C1644 1.419 . S
C1646 C1647 1.362 . S
C1647 H1637 0.930 . S
C1647 C1640 1.409 . S
C1647 C1646 1.362 . S
H1648 C1654 0.930 . S
H1649 C1657 0.930 . S
H1650 C1658 0.930 . S
H1651 C1659 0.930 . S
H1652 C1662 0.930 . S
H1653 C1663 0.930 . S
C1654 H1648 0.930 . S
C1654 C1655 1.355 . S
C1654 C1656 1.415 . S
C1655 C1654 1.355 . S
C1655 C1657 1.419 . S
C1656 C1654 1.415 . S
C1656 C1661 1.425 . S
C1656 C1663 1.409 . S
C1657 H1649 0.930 . S
C1657 C1655 1.419 . S
C1657 C1658 1.362 . S
C1658 H1650 0.930 . S
C1658 C1657 1.362 . S
C1658 C1661 1.409 . S
C1659 H1651 0.930 . S
C1659 C1660 1.355 . S
C1659 C1661 1.415 . S
C1660 C1659 1.355 . S
C1660 C1662 1.419 . S
C1661 C1656 1.425 . S
C1661 C1658 1.409 . S
C1661 C1659 1.415 . S
C1662 H1652 0.930 . S
C1662 C1660 1.419 . S
C1662 C1663 1.362 . S
C1663 H1653 0.930 . S
C1663 C1656 1.409 . S
C1663 C1662 1.362 . S
H1664 C1670 0.930 . S
H1665 C1673 0.930 . S
H1666 C1674 0.930 1_655 S
H1667 C1675 0.928 . S
H1668 C1678 0.930 . S
H1669 C1679 0.930 . S
C1670 H1664 0.930 . S
C1670 C1671 1.355 . S
C1670 C1672 1.415 . S
C1671 C1670 1.355 . S
C1671 C1673 1.419 . S
C1672 C1670 1.415 . S
C1672 C1677 1.425 . S
C1672 C1679 1.409 . S
C1673 H1665 0.930 . S
C1673 C1671 1.419 . S
C1673 C1674 1.362 . S
C1674 H1666 0.930 1_455 S
C1674 C1673 1.362 . S
C1674 C1677 1.409 . S
C1675 H1667 0.928 . S
C1675 C1676 1.356 1_655 S
C1675 C1677 1.415 1_655 S
C1676 C1675 1.356 1_455 S
C1676 C1678 1.419 . S
C1677 C1672 1.425 . S
C1677 C1674 1.409 . S
C1677 C1675 1.415 1_455 S
C1678 H1668 0.930 . S
C1678 C1676 1.419 . S
C1678 C1679 1.362 . S
C1679 H1669 0.930 . S
C1679 C1672 1.409 . S
C1679 C1678 1.362 . S
H1680 C1686 0.930 . S
H1681 C1689 0.930 . S
H1682 C1690 0.930 . S
H1683 C1691 0.930 . S
H1684 C1694 0.930 . S
H1685 C1695 0.930 . S
C1686 H1680 0.930 . S
C1686 C1687 1.355 . S
C1686 C1688 1.415 . S
C1687 C1686 1.355 . S
C1687 C1689 1.419 . S
C1688 C1686 1.415 . S
C1688 C1693 1.425 . S
C1688 C1695 1.409 . S
C1689 H1681 0.930 . S
C1689 C1687 1.419 . S
C1689 C1690 1.362 . S
C1690 H1682 0.930 . S
C1690 C1689 1.362 . S
C1690 C1693 1.409 . S
C1691 H1683 0.930 . S
C1691 C1692 1.355 . S
C1691 C1693 1.415 . S
C1692 C1691 1.355 . S
C1692 C1694 1.419 . S
C1693 C1688 1.425 . S
C1693 C1690 1.409 . S
C1693 C1691 1.415 . S
C1694 H1684 0.930 . S
C1694 C1692 1.419 . S
C1694 C1695 1.362 . S
C1695 H1685 0.930 . S
C1695 C1688 1.409 . S
C1695 C1694 1.362 . S
H1696 C1702 0.930 . S
H1697 C1705 0.930 . S
H1698 C1706 0.930 . S
H1699 C1707 0.930 . S
H1700 C1710 0.930 . S
H1701 C1711 0.930 . S
C1702 H1696 0.930 . S
C1702 C1703 1.355 . S
C1702 C1704 1.415 . S
C1703 C1702 1.355 . S
C1703 C1705 1.419 . S
C1704 C1702 1.415 . S
C1704 C1709 1.425 . S
C1704 C1711 1.409 . S
C1705 H1697 0.930 . S
C1705 C1703 1.419 . S
C1705 C1706 1.362 . S
C1706 H1698 0.930 . S
C1706 C1705 1.362 . S
C1706 C1709 1.409 . S
C1707 H1699 0.930 . S
C1707 C1708 1.355 . S
C1707 C1709 1.415 . S
C1708 C1707 1.355 . S
C1708 C1710 1.419 . S
C1709 C1704 1.425 . S
C1709 C1706 1.409 . S
C1709 C1707 1.415 . S
C1710 H1700 0.930 . S
C1710 C1708 1.419 . S
C1710 C1711 1.362 . S
C1711 H1701 0.930 . S
C1711 C1704 1.409 . S
C1711 C1710 1.362 . S
H1712 C1718 0.930 . S
H1713 C1721 0.930 . S
H1714 C1722 0.930 . S
H1715 C1723 0.930 . S
H1716 C1726 0.930 . S
H1717 C1727 0.930 . S
C1718 H1712 0.930 . S
C1718 C1719 1.355 . S
C1718 C1720 1.415 . S
C1719 C1718 1.355 . S
C1719 C1721 1.419 . S
C1720 C1718 1.415 . S
C1720 C1725 1.425 . S
C1720 C1727 1.409 . S
C1721 H1713 0.930 . S
C1721 C1719 1.419 . S
C1721 C1722 1.362 . S
C1722 H1714 0.930 . S
C1722 C1721 1.362 . S
C1722 C1725 1.409 . S
C1723 H1715 0.930 . S
C1723 C1724 1.355 . S
C1723 C1725 1.415 . S
C1724 C1723 1.355 . S
C1724 C1726 1.419 . S
C1725 C1720 1.425 . S
C1725 C1722 1.409 . S
C1725 C1723 1.415 . S
C1726 H1716 0.930 . S
C1726 C1724 1.419 . S
C1726 C1727 1.362 . S
C1727 H1717 0.930 . S
C1727 C1720 1.409 . S
C1727 C1726 1.362 . S
H1728 C1734 0.930 . S
H1729 C1737 0.930 . S
H1730 C1738 0.930 1_565 S
H1731 C1739 0.930 . S
H1732 C1742 0.930 . S
H1733 C1743 0.930 1_545 S
C1734 H1728 0.930 . S
C1734 C1735 1.355 . S
C1734 C1736 1.415 1_554 S
C1735 C1734 1.355 . S
C1735 C1737 1.419 . S
C1736 C1734 1.415 1_556 S
C1736 C1741 1.425 1_546 S
C1736 C1743 1.409 1_545 S
C1737 H1729 0.930 . S
C1737 C1735 1.419 . S
C1737 C1738 1.362 . S
C1738 H1730 0.930 1_545 S
C1738 C1737 1.362 . S
C1738 C1741 1.409 1_545 S
C1739 H1731 0.930 . S
C1739 C1740 1.355 . S
C1739 C1741 1.415 1_556 S
C1740 C1739 1.355 . S
C1740 C1742 1.419 . S
C1741 C1736 1.425 1_564 S
C1741 C1738 1.409 1_565 S
C1741 C1739 1.415 1_554 S
C1742 H1732 0.930 . S
C1742 C1740 1.419 . S
C1742 C1743 1.362 . S
C1743 H1733 0.930 1_565 S
C1743 C1736 1.409 1_565 S
C1743 C1742 1.362 . S
H1744 C1750 0.930 . S
H1745 C1753 0.930 . S
H1746 C1754 0.930 . S
H1747 C1755 0.930 . S
H1748 C1758 0.930 . S
H1749 C1759 0.930 . S
C1750 H1744 0.930 . S
C1750 C1751 1.355 . S
C1750 C1752 1.415 . S
C1751 C1750 1.355 . S
C1751 C1753 1.419 . S
C1752 C1750 1.415 . S
C1752 C1757 1.425 . S
C1752 C1759 1.409 . S
C1753 H1745 0.930 . S
C1753 C1751 1.419 . S
C1753 C1754 1.362 . S
C1754 H1746 0.930 . S
C1754 C1753 1.362 . S
C1754 C1757 1.409 . S
C1755 H1747 0.930 . S
C1755 C1756 1.355 . S
C1755 C1757 1.415 . S
C1756 C1755 1.355 . S
C1756 C1758 1.419 . S
C1757 C1752 1.425 . S
C1757 C1754 1.409 . S
C1757 C1755 1.415 . S
C1758 H1748 0.930 . S
C1758 C1756 1.419 . S
C1758 C1759 1.362 . S
C1759 H1749 0.930 . S
C1759 C1752 1.409 . S
C1759 C1758 1.362 . S
H1760 C1766 0.930 . S
H1761 C1769 0.930 . S
H1762 C1770 0.930 . S
H1763 C1771 0.930 . S
H1764 C1774 0.930 . S
H1765 C1775 0.930 . S
C1766 H1760 0.930 . S
C1766 C1767 1.351 1_565 S
C1766 C1768 1.415 . S
C1767 C1766 1.351 1_545 S
C1767 C1769 1.421 . S
C1768 C1766 1.415 . S
C1768 C1773 1.425 1_565 S
C1768 C1775 1.409 . S
C1769 H1761 0.930 . S
C1769 C1767 1.421 . S
C1769 C1770 1.362 . S
C1770 H1762 0.930 . S
C1770 C1769 1.362 . S
C1770 C1773 1.409 . S
C1771 H1763 0.930 . S
C1771 C1772 1.353 1_545 S
C1771 C1773 1.415 . S
C1772 C1771 1.353 1_565 S
C1772 C1774 1.421 . S
C1773 C1768 1.425 1_545 S
C1773 C1770 1.409 . S
C1773 C1771 1.415 . S
C1774 H1764 0.930 . S
C1774 C1772 1.421 . S
C1774 C1775 1.362 . S
C1775 H1765 0.930 . S
C1775 C1768 1.409 . S
C1775 C1774 1.362 . S
H1776 C1782 0.930 . S
H1777 C1785 0.930 . S
H1778 C1786 0.930 . S
H1779 C1787 0.930 . S
H1780 C1790 0.930 . S
H1781 C1791 0.930 . S
C1782 H1776 0.930 . S
C1782 C1783 1.355 . S
C1782 C1784 1.415 . S
C1783 C1782 1.355 . S
C1783 C1785 1.419 . S
C1784 C1782 1.415 . S
C1784 C1789 1.425 . S
C1784 C1791 1.409 . S
C1785 H1777 0.930 . S
C1785 C1783 1.419 . S
C1785 C1786 1.362 . S
C1786 H1778 0.930 . S
C1786 C1785 1.362 . S
C1786 C1789 1.409 . S
C1787 H1779 0.930 . S
C1787 C1788 1.355 . S
C1787 C1789 1.415 . S
C1788 C1787 1.355 . S
C1788 C1790 1.419 . S
C1789 C1784 1.425 . S
C1789 C1786 1.409 . S
C1789 C1787 1.415 . S
C1790 H1780 0.930 . S
C1790 C1788 1.419 . S
C1790 C1791 1.362 . S
C1791 H1781 0.930 . S
C1791 C1784 1.409 . S
C1791 C1790 1.362 . S
H1792 C1798 0.930 . S
H1793 C1801 0.930 . S
H1794 C1802 0.930 . S
H1795 C1803 0.930 . S
H1796 C1806 0.930 . S
H1797 C1807 0.930 . S
C1798 H1792 0.930 . S
C1798 C1799 1.355 . S
C1798 C1800 1.415 . S
C1799 C1798 1.355 . S
C1799 C1801 1.419 . S
C1800 C1798 1.415 . S
C1800 C1805 1.425 . S
C1800 C1807 1.409 . S
C1801 H1793 0.930 . S
C1801 C1799 1.419 . S
C1801 C1802 1.362 . S
C1802 H1794 0.930 . S
C1802 C1801 1.362 . S
C1802 C1805 1.409 . S
C1803 H1795 0.930 . S
C1803 C1804 1.355 . S
C1803 C1805 1.415 . S
C1804 C1803 1.355 . S
C1804 C1806 1.419 . S
C1805 C1800 1.425 . S
C1805 C1802 1.409 . S
C1805 C1803 1.415 . S
C1806 H1796 0.930 . S
C1806 C1804 1.419 . S
C1806 C1807 1.362 . S
C1807 H1797 0.930 . S
C1807 C1800 1.409 . S
C1807 C1806 1.362 . S
H1808 C1814 0.930 . S
H1809 C1817 0.930 . S
H1810 C1818 0.930 . S
H1811 C1819 0.930 . S
H1812 C1822 0.930 . S
H1813 C1823 0.930 . S
C1814 H1808 0.930 . S
C1814 C1815 1.355 . S
C1814 C1816 1.415 . S
C1815 C1814 1.355 . S
C1815 C1817 1.419 . S
C1816 C1814 1.415 . S
C1816 C1821 1.425 . S
C1816 C1823 1.409 . S
C1817 H1809 0.930 . S
C1817 C1815 1.419 . S
C1817 C1818 1.362 . S
C1818 H1810 0.930 . S
C1818 C1817 1.362 . S
C1818 C1821 1.409 . S
C1819 H1811 0.930 . S
C1819 C1820 1.355 . S
C1819 C1821 1.415 . S
C1820 C1819 1.355 . S
C1820 C1822 1.419 . S
C1821 C1816 1.425 . S
C1821 C1818 1.409 . S
C1821 C1819 1.415 . S
C1822 H1812 0.930 . S
C1822 C1820 1.419 . S
C1822 C1823 1.362 . S
C1823 H1813 0.930 . S
C1823 C1816 1.409 . S
C1823 C1822 1.362 . S
H1824 C1830 0.930 . S
H1825 C1833 0.930 . S
H1826 C1834 0.930 . S
H1827 C1835 0.930 . S
H1828 C1838 0.930 . S
H1829 C1839 0.930 . S
C1830 H1824 0.930 . S
C1830 C1831 1.355 . S
C1830 C1832 1.415 . S
C1831 C1830 1.355 . S
C1831 C1833 1.419 . S
C1832 C1830 1.415 . S
C1832 C1837 1.425 . S
C1832 C1839 1.409 . S
C1833 H1825 0.930 . S
C1833 C1831 1.419 . S
C1833 C1834 1.362 . S
C1834 H1826 0.930 . S
C1834 C1833 1.362 . S
C1834 C1837 1.409 . S
C1835 H1827 0.930 . S
C1835 C1836 1.355 . S
C1835 C1837 1.415 . S
C1836 C1835 1.355 . S
C1836 C1838 1.419 . S
C1837 C1832 1.425 . S
C1837 C1834 1.409 . S
C1837 C1835 1.415 . S
C1838 H1828 0.930 . S
C1838 C1836 1.419 . S
C1838 C1839 1.362 . S
C1839 H1829 0.930 . S
C1839 C1832 1.409 . S
C1839 C1838 1.362 . S
H1840 C1846 0.930 . S
H1841 C1849 0.930 . S
H1842 C1850 0.930 . S
H1843 C1851 0.930 . S
H1844 C1854 0.930 . S
H1845 C1855 0.930 . S
C1846 H1840 0.930 . S
C1846 C1847 1.355 . S
C1846 C1848 1.415 . S
C1847 C1846 1.355 . S
C1847 C1849 1.419 1_455 S
C1848 C1846 1.415 . S
C1848 C1853 1.425 1_556 S
C1848 C1855 1.409 . S
C1849 H1841 0.930 . S
C1849 C1847 1.419 1_655 S
C1849 C1850 1.362 1_656 S
C1850 H1842 0.930 . S
C1850 C1849 1.362 1_454 S
C1850 C1853 1.409 . S
C1851 H1843 0.930 . S
C1851 C1852 1.355 . S
C1851 C1853 1.415 . S
C1852 C1851 1.355 . S
C1852 C1854 1.419 . S
C1853 C1848 1.425 1_554 S
C1853 C1850 1.409 . S
C1853 C1851 1.415 . S
C1854 H1844 0.930 . S
C1854 C1852 1.419 . S
C1854 C1855 1.362 1_554 S
C1855 H1845 0.930 . S
C1855 C1848 1.409 . S
C1855 C1854 1.362 1_556 S
H1856 C1862 0.930 . S
H1857 C1865 0.930 . S
H1858 C1866 0.930 . S
H1859 C1867 0.930 . S
H1860 C1870 0.930 . S
H1861 C1871 0.930 . S
C1862 H1856 0.930 . S
C1862 C1863 1.355 . S
C1862 C1864 1.415 . S
C1863 C1862 1.355 . S
C1863 C1865 1.419 . S
C1864 C1862 1.415 . S
C1864 C1869 1.425 . S
C1864 C1871 1.409 . S
C1865 H1857 0.930 . S
C1865 C1863 1.419 . S
C1865 C1866 1.362 . S
C1866 H1858 0.930 . S
C1866 C1865 1.362 . S
C1866 C1869 1.409 . S
C1867 H1859 0.930 . S
C1867 C1868 1.355 . S
C1867 C1869 1.415 . S
C1868 C1867 1.355 . S
C1868 C1870 1.419 . S
C1869 C1864 1.425 . S
C1869 C1866 1.409 . S
C1869 C1867 1.415 . S
C1870 H1860 0.930 . S
C1870 C1868 1.419 . S
C1870 C1871 1.362 . S
C1871 H1861 0.930 . S
C1871 C1864 1.409 . S
C1871 C1870 1.362 . S
H1872 C1878 0.930 . S
H1873 C1881 0.930 . S
H1874 C1882 0.930 . S
H1875 C1883 0.930 . S
H1876 C1886 0.930 . S
H1877 C1887 0.930 . S
C1878 H1872 0.930 . S
C1878 C1879 1.355 . S
C1878 C1880 1.415 . S
C1879 C1878 1.355 . S
C1879 C1881 1.419 . S
C1880 C1878 1.415 . S
C1880 C1885 1.425 . S
C1880 C1887 1.409 . S
C1881 H1873 0.930 . S
C1881 C1879 1.419 . S
C1881 C1882 1.362 . S
C1882 H1874 0.930 . S
C1882 C1881 1.362 . S
C1882 C1885 1.409 . S
C1883 H1875 0.930 . S
C1883 C1884 1.355 . S
C1883 C1885 1.415 . S
C1884 C1883 1.355 . S
C1884 C1886 1.419 . S
C1885 C1880 1.425 . S
C1885 C1882 1.409 . S
C1885 C1883 1.415 . S
C1886 H1876 0.930 . S
C1886 C1884 1.419 . S
C1886 C1887 1.362 . S
C1887 H1877 0.930 . S
C1887 C1880 1.409 . S
C1887 C1886 1.362 . S
H1888 C1894 0.930 . S
H1889 C1897 0.930 . S
H1890 C1898 0.930 . S
H1891 C1899 0.930 . S
H1892 C1902 0.930 . S
H1893 C1903 0.930 . S
C1894 H1888 0.930 . S
C1894 C1895 1.355 . S
C1894 C1896 1.415 . S
C1895 C1894 1.355 . S
C1895 C1897 1.419 . S
C1896 C1894 1.415 . S
C1896 C1901 1.425 . S
C1896 C1903 1.409 . S
C1897 H1889 0.930 . S
C1897 C1895 1.419 . S
C1897 C1898 1.362 . S
C1898 H1890 0.930 . S
C1898 C1897 1.362 . S
C1898 C1901 1.409 . S
C1899 H1891 0.930 . S
C1899 C1900 1.355 . S
C1899 C1901 1.415 . S
C1900 C1899 1.355 . S
C1900 C1902 1.419 . S
C1901 C1896 1.425 . S
C1901 C1898 1.409 . S
C1901 C1899 1.415 . S
C1902 H1892 0.930 . S
C1902 C1900 1.419 . S
C1902 C1903 1.362 . S
C1903 H1893 0.930 . S
C1903 C1896 1.409 . S
C1903 C1902 1.362 . S
H1904 C1910 0.930 . S
H1905 C1913 0.930 . S
H1906 C1914 0.930 1_565 S
H1907 C1915 0.930 . S
H1908 C1918 0.930 . S
H1909 C1919 0.930 . S
C1910 H1904 0.930 . S
C1910 C1911 1.355 . S
C1910 C1912 1.415 . S
C1911 C1910 1.355 . S
C1911 C1913 1.419 1_545 S
C1912 C1910 1.415 . S
C1912 C1917 1.425 . S
C1912 C1919 1.409 . S
C1913 H1905 0.930 . S
C1913 C1911 1.419 1_565 S
C1913 C1914 1.362 1_565 S
C1914 H1906 0.930 1_545 S
C1914 C1913 1.362 1_545 S
C1914 C1917 1.409 . S
C1915 H1907 0.930 . S
C1915 C1916 1.355 . S
C1915 C1917 1.415 . S
C1916 C1915 1.355 . S
C1916 C1918 1.419 . S
C1917 C1912 1.425 . S
C1917 C1914 1.409 . S
C1917 C1915 1.415 . S
C1918 H1908 0.930 . S
C1918 C1916 1.419 . S
C1918 C1919 1.362 . S
C1919 H1909 0.930 . S
C1919 C1912 1.409 . S
C1919 C1918 1.362 . S
H1920 C1926 0.930 . S
H1921 C1929 0.930 . S
H1922 C1930 0.930 . S
H1923 C1931 0.930 . S
H1924 C1934 0.930 . S
H1925 C1935 0.930 . S
C1926 H1920 0.930 . S
C1926 C1927 1.355 . S
C1926 C1928 1.415 . S
C1927 C1926 1.355 . S
C1927 C1929 1.419 . S
C1928 C1926 1.415 . S
C1928 C1933 1.425 . S
C1928 C1935 1.409 . S
C1929 H1921 0.930 . S
C1929 C1927 1.419 . S
C1929 C1930 1.362 1_655 S
C1930 H1922 0.930 . S
C1930 C1929 1.362 1_455 S
C1930 C1933 1.409 1_455 S
C1931 H1923 0.930 . S
C1931 C1932 1.355 . S
C1931 C1933 1.415 1_455 S
C1932 C1931 1.355 . S
C1932 C1934 1.419 1_455 S
C1933 C1928 1.425 . S
C1933 C1930 1.409 1_655 S
C1933 C1931 1.415 1_655 S
C1934 H1924 0.930 . S
C1934 C1932 1.419 1_655 S
C1934 C1935 1.362 . S
C1935 H1925 0.930 . S
C1935 C1928 1.409 . S
C1935 C1934 1.362 . S
H1936 C1942 0.930 . S
H1937 C1945 0.930 . S
H1938 C1946 0.930 . S
H1939 C1947 0.930 . S
H1940 C1950 0.930 . S
H1941 C1951 0.930 . S
C1942 H1936 0.930 . S
C1942 C1943 1.355 . S
C1942 C1944 1.415 . S
C1943 C1942 1.355 . S
C1943 C1945 1.419 . S
C1944 C1942 1.415 . S
C1944 C1949 1.425 . S
C1944 C1951 1.409 . S
C1945 H1937 0.930 . S
C1945 C1943 1.419 . S
C1945 C1946 1.362 . S
C1946 H1938 0.930 . S
C1946 C1945 1.362 . S
C1946 C1949 1.409 . S
C1947 H1939 0.930 . S
C1947 C1948 1.355 . S
C1947 C1949 1.415 . S
C1948 C1947 1.355 . S
C1948 C1950 1.419 . S
C1949 C1944 1.425 . S
C1949 C1946 1.409 . S
C1949 C1947 1.415 . S
C1950 H1940 0.930 . S
C1950 C1948 1.419 . S
C1950 C1951 1.362 . S
C1951 H1941 0.930 . S
C1951 C1944 1.409 . S
C1951 C1950 1.362 . S
H1952 C1958 0.930 . S
H1953 C1961 0.930 . S
H1954 C1962 0.930 . S
H1955 C1963 0.930 . S
H1956 C1966 0.930 . S
H1957 C1967 0.930 . S
C1958 H1952 0.930 . S
C1958 C1959 1.355 . S
C1958 C1960 1.415 . S
C1959 C1958 1.355 . S
C1959 C1961 1.419 . S
C1960 C1958 1.415 . S
C1960 C1965 1.425 . S
C1960 C1967 1.409 . S
C1961 H1953 0.930 . S
C1961 C1959 1.419 . S
C1961 C1962 1.362 . S
C1962 H1954 0.930 . S
C1962 C1961 1.362 . S
C1962 C1965 1.409 . S
C1963 H1955 0.930 . S
C1963 C1964 1.355 . S
C1963 C1965 1.415 . S
C1964 C1963 1.355 . S
C1964 C1966 1.419 . S
C1965 C1960 1.425 . S
C1965 C1962 1.409 . S
C1965 C1963 1.415 . S
C1966 H1956 0.930 . S
C1966 C1964 1.419 . S
C1966 C1967 1.362 . S
C1967 H1957 0.930 . S
C1967 C1960 1.409 . S
C1967 C1966 1.362 . S
H1968 C1974 0.930 . S
H1969 C1977 0.930 . S
H1970 C1978 0.930 . S
H1971 C1979 0.930 . S
H1972 C1982 0.930 . S
H1973 C1983 0.930 . S
C1974 H1968 0.930 . S
C1974 C1975 1.355 . S
C1974 C1976 1.415 . S
C1975 C1974 1.355 . S
C1975 C1977 1.419 . S
C1976 C1974 1.415 . S
C1976 C1981 1.425 . S
C1976 C1983 1.409 . S
C1977 H1969 0.930 . S
C1977 C1975 1.419 . S
C1977 C1978 1.362 . S
C1978 H1970 0.930 . S
C1978 C1977 1.362 . S
C1978 C1981 1.409 . S
C1979 H1971 0.930 . S
C1979 C1980 1.355 . S
C1979 C1981 1.415 . S
C1980 C1979 1.355 . S
C1980 C1982 1.419 . S
C1981 C1976 1.425 . S
C1981 C1978 1.409 . S
C1981 C1979 1.415 . S
C1982 H1972 0.930 . S
C1982 C1980 1.419 . S
C1982 C1983 1.362 . S
C1983 H1973 0.930 . S
C1983 C1976 1.409 . S
C1983 C1982 1.362 . S
H1984 C1990 0.930 . S
H1985 C1993 0.930 . S
H1986 C1994 0.930 . S
H1987 C1995 0.930 . S
H1988 C1998 0.930 . S
H1989 C1999 0.930 . S
C1990 H1984 0.930 . S
C1990 C1991 1.355 . S
C1990 C1992 1.415 . S
C1991 C1990 1.355 . S
C1991 C1993 1.419 . S
C1992 C1990 1.415 . S
C1992 C1997 1.425 . S
C1992 C1999 1.409 . S
C1993 H1985 0.930 . S
C1993 C1991 1.419 . S
C1993 C1994 1.362 . S
C1994 H1986 0.930 . S
C1994 C1993 1.362 . S
C1994 C1997 1.409 . S
C1995 H1987 0.930 . S
C1995 C1996 1.355 . S
C1995 C1997 1.415 . S
C1996 C1995 1.355 . S
C1996 C1998 1.419 . S
C1997 C1992 1.425 . S
C1997 C1994 1.409 . S
C1997 C1995 1.415 . S
C1998 H1988 0.930 . S
C1998 C1996 1.419 . S
C1998 C1999 1.362 . S
C1999 H1989 0.930 . S
C1999 C1992 1.409 . S
C1999 C1998 1.362 . S
H2000 C2006 0.930 . S
H2001 C2009 0.930 . S
H2002 C2010 0.930 . S
H2003 C2011 0.930 . S
H2004 C2014 0.930 . S
H2005 C2015 0.930 . S
C2006 H2000 0.930 . S
C2006 C2007 1.355 . S
C2006 C2008 1.415 . S
C2007 C2006 1.355 . S
C2007 C2009 1.419 . S
C2008 C2006 1.415 . S
C2008 C2013 1.425 . S
C2008 C2015 1.409 . S
C2009 H2001 0.930 . S
C2009 C2007 1.419 . S
C2009 C2010 1.362 . S
C2010 H2002 0.930 . S
C2010 C2009 1.362 . S
C2010 C2013 1.409 . S
C2011 H2003 0.930 . S
C2011 C2012 1.355 . S
C2011 C2013 1.415 1_556 S
C2012 C2011 1.355 . S
C2012 C2014 1.419 1_556 S
C2013 C2008 1.425 . S
C2013 C2010 1.409 . S
C2013 C2011 1.415 1_554 S
C2014 H2004 0.930 . S
C2014 C2012 1.419 1_554 S
C2014 C2015 1.362 . S
C2015 H2005 0.930 . S
C2015 C2008 1.409 . S
C2015 C2014 1.362 . S
H2016 C2022 0.930 . S
H2017 C2025 0.930 . S
H2018 C2026 0.930 . S
H2019 C2027 0.930 . S
H2020 C2030 0.930 1_655 S
H2021 C2031 0.930 . S
C2022 H2016 0.930 . S
C2022 C2023 1.355 . S
C2022 C2024 1.415 . S
C2023 C2022 1.355 . S
C2023 C2025 1.419 . S
C2024 C2022 1.415 . S
C2024 C2029 1.425 . S
C2024 C2031 1.409 . S
C2025 H2017 0.930 . S
C2025 C2023 1.419 . S
C2025 C2026 1.362 . S
C2026 H2018 0.930 . S
C2026 C2025 1.362 . S
C2026 C2029 1.409 . S
C2027 H2019 0.930 . S
C2027 C2028 1.355 . S
C2027 C2029 1.415 . S
C2028 C2027 1.355 . S
C2028 C2030 1.419 . S
C2029 C2024 1.425 . S
C2029 C2026 1.409 . S
C2029 C2027 1.415 . S
C2030 H2020 0.930 1_455 S
C2030 C2028 1.419 . S
C2030 C2031 1.362 . S
C2031 H2021 0.930 . S
C2031 C2024 1.409 . S
C2031 C2030 1.362 . S
H2032 C2038 0.930 . S
H2033 C2041 0.930 . S
H2034 C2042 0.930 . S
H2035 C2043 0.930 . S
H2036 C2046 0.930 . S
H2037 C2047 0.930 . S
C2038 H2032 0.930 . S
C2038 C2039 1.355 . S
C2038 C2040 1.415 . S
C2039 C2038 1.355 . S
C2039 C2041 1.419 . S
C2040 C2038 1.415 . S
C2040 C2045 1.425 . S
C2040 C2047 1.409 . S
C2041 H2033 0.930 . S
C2041 C2039 1.419 . S
C2041 C2042 1.362 . S
C2042 H2034 0.930 . S
C2042 C2041 1.362 . S
C2042 C2045 1.409 . S
C2043 H2035 0.930 . S
C2043 C2044 1.355 . S
C2043 C2045 1.415 . S
C2044 C2043 1.355 . S
C2044 C2046 1.419 . S
C2045 C2040 1.425 . S
C2045 C2042 1.409 . S
C2045 C2043 1.415 . S
C2046 H2036 0.930 . S
C2046 C2044 1.419 . S
C2046 C2047 1.362 . S
C2047 H2037 0.930 . S
C2047 C2040 1.409 . S
C2047 C2046 1.362 . S
H2048 C2054 0.930 . S
H2049 C2057 0.930 . S
H2050 C2058 0.930 . S
H2051 C2059 0.930 . S
H2052 C2062 0.930 . S
H2053 C2063 0.930 . S
C2054 H2048 0.930 . S
C2054 C2055 1.355 . S
C2054 C2056 1.415 . S
C2055 C2054 1.355 . S
C2055 C2057 1.419 . S
C2056 C2054 1.415 . S
C2056 C2061 1.425 . S
C2056 C2063 1.409 . S
C2057 H2049 0.930 . S
C2057 C2055 1.419 . S
C2057 C2058 1.362 . S
C2058 H2050 0.930 . S
C2058 C2057 1.362 . S
C2058 C2061 1.409 . S
C2059 H2051 0.930 . S
C2059 C2060 1.355 . S
C2059 C2061 1.415 . S
C2060 C2059 1.355 . S
C2060 C2062 1.419 . S
C2061 C2056 1.425 . S
C2061 C2058 1.409 . S
C2061 C2059 1.415 . S
C2062 H2052 0.930 . S
C2062 C2060 1.419 . S
C2062 C2063 1.362 . S
C2063 H2053 0.930 . S
C2063 C2056 1.409 . S
C2063 C2062 1.362 . S
H2064 C2070 0.930 . S
H2065 C2073 0.930 . S
H2066 C2074 0.930 . S
H2067 C2075 0.930 . S
H2068 C2078 0.930 . S
H2069 C2079 0.930 . S
C2070 H2064 0.930 . S
C2070 C2071 1.355 . S
C2070 C2072 1.415 1_554 S
C2071 C2070 1.355 . S
C2071 C2073 1.419 . S
C2072 C2070 1.415 1_556 S
C2072 C2077 1.425 . S
C2072 C2079 1.409 . S
C2073 H2065 0.930 . S
C2073 C2071 1.419 . S
C2073 C2074 1.362 1_554 S
C2074 H2066 0.930 . S
C2074 C2073 1.362 1_556 S
C2074 C2077 1.409 . S
C2075 H2067 0.930 . S
C2075 C2076 1.355 . S
C2075 C2077 1.415 . S
C2076 C2075 1.355 . S
C2076 C2078 1.419 . S
C2077 C2072 1.425 . S
C2077 C2074 1.409 . S
C2077 C2075 1.415 . S
C2078 H2068 0.930 . S
C2078 C2076 1.419 . S
C2078 C2079 1.362 . S
C2079 H2069 0.930 . S
C2079 C2072 1.409 . S
C2079 C2078 1.362 . S
H2080 C2086 0.930 . S
H2081 C2089 0.930 . S
H2082 C2090 0.930 . S
H2083 C2091 0.930 . S
H2084 C2094 0.930 1_655 S
H2085 C2095 0.930 . S
C2086 H2080 0.930 . S
C2086 C2087 1.355 . S
C2086 C2088 1.415 . S
C2087 C2086 1.355 . S
C2087 C2089 1.419 . S
C2088 C2086 1.415 . S
C2088 C2093 1.425 . S
C2088 C2095 1.409 . S
C2089 H2081 0.930 . S
C2089 C2087 1.419 . S
C2089 C2090 1.362 . S
C2090 H2082 0.930 . S
C2090 C2089 1.362 . S
C2090 C2093 1.409 . S
C2091 H2083 0.930 . S
C2091 C2092 1.355 . S
C2091 C2093 1.415 . S
C2092 C2091 1.355 . S
C2092 C2094 1.419 . S
C2093 C2088 1.425 . S
C2093 C2090 1.409 . S
C2093 C2091 1.415 . S
C2094 H2084 0.930 1_455 S
C2094 C2092 1.419 . S
C2094 C2095 1.362 . S
C2095 H2085 0.930 . S
C2095 C2088 1.409 . S
C2095 C2094 1.362 . S
H2096 C2102 0.930 . S
H2097 C2105 0.930 . S
H2098 C2106 0.930 . S
H2099 C2107 0.930 . S
H2100 C2110 0.930 . S
H2101 C2111 0.930 . S
C2102 H2096 0.930 . S
C2102 C2103 1.355 . S
C2102 C2104 1.415 . S
C2103 C2102 1.355 . S
C2103 C2105 1.419 . S
C2104 C2102 1.415 . S
C2104 C2109 1.425 . S
C2104 C2111 1.409 . S
C2105 H2097 0.930 . S
C2105 C2103 1.419 . S
C2105 C2106 1.362 . S
C2106 H2098 0.930 . S
C2106 C2105 1.362 . S
C2106 C2109 1.409 . S
C2107 H2099 0.930 . S
C2107 C2108 1.355 . S
C2107 C2109 1.415 . S
C2108 C2107 1.355 . S
C2108 C2110 1.419 . S
C2109 C2104 1.425 . S
C2109 C2106 1.409 . S
C2109 C2107 1.415 . S
C2110 H2100 0.930 . S
C2110 C2108 1.419 . S
C2110 C2111 1.362 . S
C2111 H2101 0.930 . S
C2111 C2104 1.409 . S
C2111 C2110 1.362 . S
C1351 C72 0.866 . S
C1356 C660 0.902 . S
C1367 C156 2.380 . S
C1372 C392 2.715 . S
C1383 C476 0.453 . S
C1388 C240 0.865 . S
C1399 C308 3.084 . S
C1404 C560 3.158 . S
C1415 C987 0.910 . S
C1420 C399 1.038 . S
C1431 C735 2.326 . S
C1436 C67 2.746 1_655 S
C1447 C907 0.520 . S
C1452 C567 0.744 . S
C1463 C235 3.127 . S
C1468 C823 3.119 . S
C1479 C828 0.739 . S
C1484 C1080 0.929 . S
C1495 C912 2.332 . S
C1500 C1232 2.706 . S
C1511 C1164 0.616 . S
C1516 C728 0.635 . S
C1527 C980 3.118 . S
C1532 C1316 3.128 1_554 S
C1543 C1239 0.903 . S
C1548 C315 0.934 . S
C1559 C1075 2.743 . S
C1564 C483 2.295 . S
C1575 C151 0.661 . S
C1580 C1323 0.634 . S
C1591 C655 3.074 . S
C1596 C1159 3.168 1_556 S
C1607 C1167 1.267 . S
C1612 C75 1.042 . S
C1623 C990 0.681 . S
C1628 C159 0.740 . S
C1639 C1083 0.921 . S
C1644 C243 1.276 . S
C1655 C915 0.631 . S
C1660 C318 0.757 . S
C1671 C402 1.046 . S
C1676 C1326 1.235 . S
C1687 C831 0.746 . S
C1692 C486 0.674 . S
C1703 C570 1.267 . S
C1708 C1242 0.910 . S
C1719 C663 0.670 . S
C1724 C738 0.719 . S
C1735 C66 2.037 . S
C1740 C411 2.037 . S
C1751 C150 1.507 . S
C1756 C495 1.507 . S
C1767 C579 1.503 . S
C1772 C234 1.502 . S
C1783 C327 1.447 . S
C1788 C654 1.447 . S
C1799 C906 1.507 . S
C1804 C747 1.507 . S
C1815 C999 1.506 . S
C1820 C822 1.506 . S
C1831 C1074 2.022 . S
C1836 C1251 2.022 . S
C1847 C1335 1.565 1_455 S
C1852 C1158 1.565 . S
C1863 C56 2.976 . S
C1868 C644 2.940 . S
C1879 C140 0.861 . S
C1884 C408 0.840 . S
C1895 C492 2.154 . S
C1900 C224 2.129 . S
C1911 C576 0.482 . S
C1916 C324 0.708 . S
C1927 C991 2.924 . S
C1932 C403 2.980 . S
C1943 C739 0.825 . S
C1948 C63 0.827 . S
C1959 C903 2.148 . S
C1964 C571 2.139 . S
C1975 C231 0.630 . S
C1980 C819 0.504 . S
C1991 C1064 2.946 . S
C1996 C812 2.900 1_556 S
C2007 C1248 0.852 . S
C2012 C896 0.819 . S
C2023 C1148 2.141 . S
C2028 C744 2.148 1_455 S
C2039 C1332 0.476 . S
C2044 C996 0.679 . S
C2055 C1243 2.979 . S
C2060 C319 2.920 1_554 S
C2071 C487 0.837 . S
C2076 C1071 0.829 . S
C2087 C147 2.168 . S
C2092 C1327 2.129 . S
C2103 C1155 0.574 . S
C2108 C651 0.520 . S
