# Generated by pormake.
# Topology fcq, (5)-cn, num edge types: 1
# Building blocks:
#     Node 0, Type 0, BuildingBlock: BEQFEK_clean_sbu_0, # of connection points: 5
#     Node 1, Type 0, BuildingBlock: BEQFEK_clean_sbu_0, # of connection points: 5
#     Node 2, Type 0, BuildingBlock: BEQFEK_clean_sbu_0, # of connection points: 5
#     Node 3, Type 0, BuildingBlock: BEQFEK_clean_sbu_0, # of connection points: 5
#     Node 4, Type 0, BuildingBlock: BEQFEK_clean_sbu_0, # of connection points: 5
#     Node 5, Type 0, BuildingBlock: BEQFEK_clean_sbu_0, # of connection points: 5
#     Node 6, Type 0, BuildingBlock: BEQFEK_clean_sbu_0, # of connection points: 5
#     Node 7, Type 0, BuildingBlock: BEQFEK_clean_sbu_0, # of connection points: 5
#     Node 8, Type 0, BuildingBlock: BEQFEK_clean_sbu_0, # of connection points: 5
#     Node 9, Type 0, BuildingBlock: BEQFEK_clean_sbu_0, # of connection points: 5
#     Node 10, Type 0, BuildingBlock: BEQFEK_clean_sbu_0, # of connection points: 5
#     Node 11, Type 0, BuildingBlock: BEQFEK_clean_sbu_0, # of connection points: 5
#     Node 12, Type 0, BuildingBlock: BEQFEK_clean_sbu_0, # of connection points: 5
#     Node 13, Type 0, BuildingBlock: BEQFEK_clean_sbu_0, # of connection points: 5
#     Node 14, Type 0, BuildingBlock: BEQFEK_clean_sbu_0, # of connection points: 5
#     Node 15, Type 0, BuildingBlock: BEQFEK_clean_sbu_0, # of connection points: 5
#     Node 16, Type 0, BuildingBlock: BEQFEK_clean_sbu_0, # of connection points: 5
#     Node 17, Type 0, BuildingBlock: BEQFEK_clean_sbu_0, # of connection points: 5
#     Node 18, Type 0, BuildingBlock: BEQFEK_clean_sbu_0, # of connection points: 5
#     Node 19, Type 0, BuildingBlock: BEQFEK_clean_sbu_0, # of connection points: 5
#     Node 20, Type 0, BuildingBlock: BEQFEK_clean_sbu_0, # of connection points: 5
#     Node 21, Type 0, BuildingBlock: BEQFEK_clean_sbu_0, # of connection points: 5
#     Node 22, Type 0, BuildingBlock: BEQFEK_clean_sbu_0, # of connection points: 5
#     Node 23, Type 0, BuildingBlock: BEQFEK_clean_sbu_0, # of connection points: 5
#     Node 24, Type 0, BuildingBlock: BEQFEK_clean_sbu_0, # of connection points: 5
#     Node 25, Type 0, BuildingBlock: BEQFEK_clean_sbu_0, # of connection points: 5
#     Node 26, Type 0, BuildingBlock: BEQFEK_clean_sbu_0, # of connection points: 5
#     Node 27, Type 0, BuildingBlock: BEQFEK_clean_sbu_0, # of connection points: 5
#     Node 28, Type 0, BuildingBlock: BEQFEK_clean_sbu_0, # of connection points: 5
#     Node 29, Type 0, BuildingBlock: BEQFEK_clean_sbu_0, # of connection points: 5
#     Node 30, Type 0, BuildingBlock: BEQFEK_clean_sbu_0, # of connection points: 5
#     Node 31, Type 0, BuildingBlock: BEQFEK_clean_sbu_0, # of connection points: 5
#     Node 32, Type 0, BuildingBlock: BEQFEK_clean_sbu_0, # of connection points: 5
#     Node 33, Type 0, BuildingBlock: BEQFEK_clean_sbu_0, # of connection points: 5
#     Node 34, Type 0, BuildingBlock: BEQFEK_clean_sbu_0, # of connection points: 5
#     Node 35, Type 0, BuildingBlock: BEQFEK_clean_sbu_0, # of connection points: 5
#     Node 36, Type 0, BuildingBlock: BEQFEK_clean_sbu_0, # of connection points: 5
#     Node 37, Type 0, BuildingBlock: BEQFEK_clean_sbu_0, # of connection points: 5
#     Node 38, Type 0, BuildingBlock: BEQFEK_clean_sbu_0, # of connection points: 5
#     Node 39, Type 0, BuildingBlock: BEQFEK_clean_sbu_0, # of connection points: 5
#     Node 40, Type 0, BuildingBlock: BEQFEK_clean_sbu_0, # of connection points: 5
#     Node 41, Type 0, BuildingBlock: BEQFEK_clean_sbu_0, # of connection points: 5
#     Node 42, Type 0, BuildingBlock: BEQFEK_clean_sbu_0, # of connection points: 5
#     Node 43, Type 0, BuildingBlock: BEQFEK_clean_sbu_0, # of connection points: 5
#     Node 44, Type 0, BuildingBlock: BEQFEK_clean_sbu_0, # of connection points: 5
#     Node 45, Type 0, BuildingBlock: BEQFEK_clean_sbu_0, # of connection points: 5
#     Node 46, Type 0, BuildingBlock: BEQFEK_clean_sbu_0, # of connection points: 5
#     Node 47, Type 0, BuildingBlock: BEQFEK_clean_sbu_0, # of connection points: 5
#     Edge 48, Type (0, 0), BuildingBlock: AJUNOK_clean_linker_0, # of connection points: 2
#     Edge 49, Type (0, 0), BuildingBlock: AJUNOK_clean_linker_0, # of connection points: 2
#     Edge 50, Type (0, 0), BuildingBlock: AJUNOK_clean_linker_0, # of connection points: 2
#     Edge 51, Type (0, 0), BuildingBlock: AJUNOK_clean_linker_0, # of connection points: 2
#     Edge 52, Type (0, 0), BuildingBlock: AJUNOK_clean_linker_0, # of connection points: 2
#     Edge 53, Type (0, 0), BuildingBlock: AJUNOK_clean_linker_0, # of connection points: 2
#     Edge 54, Type (0, 0), BuildingBlock: AJUNOK_clean_linker_0, # of connection points: 2
#     Edge 55, Type (0, 0), BuildingBlock: AJUNOK_clean_linker_0, # of connection points: 2
#     Edge 56, Type (0, 0), BuildingBlock: AJUNOK_clean_linker_0, # of connection points: 2
#     Edge 57, Type (0, 0), BuildingBlock: AJUNOK_clean_linker_0, # of connection points: 2
#     Edge 58, Type (0, 0), BuildingBlock: AJUNOK_clean_linker_0, # of connection points: 2
#     Edge 59, Type (0, 0), BuildingBlock: AJUNOK_clean_linker_0, # of connection points: 2
#     Edge 60, Type (0, 0), BuildingBlock: AJUNOK_clean_linker_0, # of connection points: 2
#     Edge 61, Type (0, 0), BuildingBlock: AJUNOK_clean_linker_0, # of connection points: 2
#     Edge 62, Type (0, 0), BuildingBlock: AJUNOK_clean_linker_0, # of connection points: 2
#     Edge 63, Type (0, 0), BuildingBlock: AJUNOK_clean_linker_0, # of connection points: 2
#     Edge 64, Type (0, 0), BuildingBlock: AJUNOK_clean_linker_0, # of connection points: 2
#     Edge 65, Type (0, 0), BuildingBlock: AJUNOK_clean_linker_0, # of connection points: 2
#     Edge 66, Type (0, 0), BuildingBlock: AJUNOK_clean_linker_0, # of connection points: 2
#     Edge 67, Type (0, 0), BuildingBlock: AJUNOK_clean_linker_0, # of connection points: 2
#     Edge 68, Type (0, 0), BuildingBlock: AJUNOK_clean_linker_0, # of connection points: 2
#     Edge 69, Type (0, 0), BuildingBlock: AJUNOK_clean_linker_0, # of connection points: 2
#     Edge 70, Type (0, 0), BuildingBlock: AJUNOK_clean_linker_0, # of connection points: 2
#     Edge 71, Type (0, 0), BuildingBlock: AJUNOK_clean_linker_0, # of connection points: 2
#     Edge 72, Type (0, 0), BuildingBlock: AJUNOK_clean_linker_0, # of connection points: 2
#     Edge 73, Type (0, 0), BuildingBlock: AJUNOK_clean_linker_0, # of connection points: 2
#     Edge 74, Type (0, 0), BuildingBlock: AJUNOK_clean_linker_0, # of connection points: 2
#     Edge 75, Type (0, 0), BuildingBlock: AJUNOK_clean_linker_0, # of connection points: 2
#     Edge 76, Type (0, 0), BuildingBlock: AJUNOK_clean_linker_0, # of connection points: 2
#     Edge 77, Type (0, 0), BuildingBlock: AJUNOK_clean_linker_0, # of connection points: 2
#     Edge 78, Type (0, 0), BuildingBlock: AJUNOK_clean_linker_0, # of connection points: 2
#     Edge 79, Type (0, 0), BuildingBlock: AJUNOK_clean_linker_0, # of connection points: 2
#     Edge 80, Type (0, 0), BuildingBlock: AJUNOK_clean_linker_0, # of connection points: 2
#     Edge 81, Type (0, 0), BuildingBlock: AJUNOK_clean_linker_0, # of connection points: 2
#     Edge 82, Type (0, 0), BuildingBlock: AJUNOK_clean_linker_0, # of connection points: 2
#     Edge 83, Type (0, 0), BuildingBlock: AJUNOK_clean_linker_0, # of connection points: 2
#     Edge 84, Type (0, 0), BuildingBlock: AJUNOK_clean_linker_0, # of connection points: 2
#     Edge 85, Type (0, 0), BuildingBlock: AJUNOK_clean_linker_0, # of connection points: 2
#     Edge 86, Type (0, 0), BuildingBlock: AJUNOK_clean_linker_0, # of connection points: 2
#     Edge 87, Type (0, 0), BuildingBlock: AJUNOK_clean_linker_0, # of connection points: 2
#     Edge 88, Type (0, 0), BuildingBlock: AJUNOK_clean_linker_0, # of connection points: 2
#     Edge 89, Type (0, 0), BuildingBlock: AJUNOK_clean_linker_0, # of connection points: 2
#     Edge 90, Type (0, 0), BuildingBlock: AJUNOK_clean_linker_0, # of connection points: 2
#     Edge 91, Type (0, 0), BuildingBlock: AJUNOK_clean_linker_0, # of connection points: 2
#     Edge 92, Type (0, 0), BuildingBlock: AJUNOK_clean_linker_0, # of connection points: 2
#     Edge 93, Type (0, 0), BuildingBlock: AJUNOK_clean_linker_0, # of connection points: 2
#     Edge 94, Type (0, 0), BuildingBlock: AJUNOK_clean_linker_0, # of connection points: 2
#     Edge 95, Type (0, 0), BuildingBlock: AJUNOK_clean_linker_0, # of connection points: 2
#     Edge 96, Type (0, 0), BuildingBlock: AJUNOK_clean_linker_0, # of connection points: 2
#     Edge 97, Type (0, 0), BuildingBlock: AJUNOK_clean_linker_0, # of connection points: 2
#     Edge 98, Type (0, 0), BuildingBlock: AJUNOK_clean_linker_0, # of connection points: 2
#     Edge 99, Type (0, 0), BuildingBlock: AJUNOK_clean_linker_0, # of connection points: 2
#     Edge 100, Type (0, 0), BuildingBlock: AJUNOK_clean_linker_0, # of connection points: 2
#     Edge 101, Type (0, 0), BuildingBlock: AJUNOK_clean_linker_0, # of connection points: 2
#     Edge 102, Type (0, 0), BuildingBlock: AJUNOK_clean_linker_0, # of connection points: 2
#     Edge 103, Type (0, 0), BuildingBlock: AJUNOK_clean_linker_0, # of connection points: 2
#     Edge 104, Type (0, 0), BuildingBlock: AJUNOK_clean_linker_0, # of connection points: 2
#     Edge 105, Type (0, 0), BuildingBlock: AJUNOK_clean_linker_0, # of connection points: 2
#     Edge 106, Type (0, 0), BuildingBlock: AJUNOK_clean_linker_0, # of connection points: 2
#     Edge 107, Type (0, 0), BuildingBlock: AJUNOK_clean_linker_0, # of connection points: 2
#     Edge 108, Type (0, 0), BuildingBlock: AJUNOK_clean_linker_0, # of connection points: 2
#     Edge 109, Type (0, 0), BuildingBlock: AJUNOK_clean_linker_0, # of connection points: 2
#     Edge 110, Type (0, 0), BuildingBlock: AJUNOK_clean_linker_0, # of connection points: 2
#     Edge 111, Type (0, 0), BuildingBlock: AJUNOK_clean_linker_0, # of connection points: 2
#     Edge 112, Type (0, 0), BuildingBlock: AJUNOK_clean_linker_0, # of connection points: 2
#     Edge 113, Type (0, 0), BuildingBlock: AJUNOK_clean_linker_0, # of connection points: 2
#     Edge 114, Type (0, 0), BuildingBlock: AJUNOK_clean_linker_0, # of connection points: 2
#     Edge 115, Type (0, 0), BuildingBlock: AJUNOK_clean_linker_0, # of connection points: 2
#     Edge 116, Type (0, 0), BuildingBlock: AJUNOK_clean_linker_0, # of connection points: 2
#     Edge 117, Type (0, 0), BuildingBlock: AJUNOK_clean_linker_0, # of connection points: 2
#     Edge 118, Type (0, 0), BuildingBlock: AJUNOK_clean_linker_0, # of connection points: 2
#     Edge 119, Type (0, 0), BuildingBlock: AJUNOK_clean_linker_0, # of connection points: 2
#     Edge 120, Type (0, 0), BuildingBlock: AJUNOK_clean_linker_0, # of connection points: 2
#     Edge 121, Type (0, 0), BuildingBlock: AJUNOK_clean_linker_0, # of connection points: 2
#     Edge 122, Type (0, 0), BuildingBlock: AJUNOK_clean_linker_0, # of connection points: 2
#     Edge 123, Type (0, 0), BuildingBlock: AJUNOK_clean_linker_0, # of connection points: 2
#     Edge 124, Type (0, 0), BuildingBlock: AJUNOK_clean_linker_0, # of connection points: 2
#     Edge 125, Type (0, 0), BuildingBlock: AJUNOK_clean_linker_0, # of connection points: 2
#     Edge 126, Type (0, 0), BuildingBlock: AJUNOK_clean_linker_0, # of connection points: 2
#     Edge 127, Type (0, 0), BuildingBlock: AJUNOK_clean_linker_0, # of connection points: 2
#     Edge 128, Type (0, 0), BuildingBlock: AJUNOK_clean_linker_0, # of connection points: 2
#     Edge 129, Type (0, 0), BuildingBlock: AJUNOK_clean_linker_0, # of connection points: 2
#     Edge 130, Type (0, 0), BuildingBlock: AJUNOK_clean_linker_0, # of connection points: 2
#     Edge 131, Type (0, 0), BuildingBlock: AJUNOK_clean_linker_0, # of connection points: 2
#     Edge 132, Type (0, 0), BuildingBlock: AJUNOK_clean_linker_0, # of connection points: 2
#     Edge 133, Type (0, 0), BuildingBlock: AJUNOK_clean_linker_0, # of connection points: 2
#     Edge 134, Type (0, 0), BuildingBlock: AJUNOK_clean_linker_0, # of connection points: 2
#     Edge 135, Type (0, 0), BuildingBlock: AJUNOK_clean_linker_0, # of connection points: 2
#     Edge 136, Type (0, 0), BuildingBlock: AJUNOK_clean_linker_0, # of connection points: 2
#     Edge 137, Type (0, 0), BuildingBlock: AJUNOK_clean_linker_0, # of connection points: 2
#     Edge 138, Type (0, 0), BuildingBlock: AJUNOK_clean_linker_0, # of connection points: 2
#     Edge 139, Type (0, 0), BuildingBlock: AJUNOK_clean_linker_0, # of connection points: 2
#     Edge 140, Type (0, 0), BuildingBlock: AJUNOK_clean_linker_0, # of connection points: 2
#     Edge 141, Type (0, 0), BuildingBlock: AJUNOK_clean_linker_0, # of connection points: 2
#     Edge 142, Type (0, 0), BuildingBlock: AJUNOK_clean_linker_0, # of connection points: 2
#     Edge 143, Type (0, 0), BuildingBlock: AJUNOK_clean_linker_0, # of connection points: 2
#     Edge 144, Type (0, 0), BuildingBlock: AJUNOK_clean_linker_0, # of connection points: 2
#     Edge 145, Type (0, 0), BuildingBlock: AJUNOK_clean_linker_0, # of connection points: 2
#     Edge 146, Type (0, 0), BuildingBlock: AJUNOK_clean_linker_0, # of connection points: 2
#     Edge 147, Type (0, 0), BuildingBlock: AJUNOK_clean_linker_0, # of connection points: 2
#     Edge 148, Type (0, 0), BuildingBlock: AJUNOK_clean_linker_0, # of connection points: 2
#     Edge 149, Type (0, 0), BuildingBlock: AJUNOK_clean_linker_0, # of connection points: 2
#     Edge 150, Type (0, 0), BuildingBlock: AJUNOK_clean_linker_0, # of connection points: 2
#     Edge 151, Type (0, 0), BuildingBlock: AJUNOK_clean_linker_0, # of connection points: 2
#     Edge 152, Type (0, 0), BuildingBlock: AJUNOK_clean_linker_0, # of connection points: 2
#     Edge 153, Type (0, 0), BuildingBlock: AJUNOK_clean_linker_0, # of connection points: 2
#     Edge 154, Type (0, 0), BuildingBlock: AJUNOK_clean_linker_0, # of connection points: 2
#     Edge 155, Type (0, 0), BuildingBlock: AJUNOK_clean_linker_0, # of connection points: 2
#     Edge 156, Type (0, 0), BuildingBlock: AJUNOK_clean_linker_0, # of connection points: 2
#     Edge 157, Type (0, 0), BuildingBlock: AJUNOK_clean_linker_0, # of connection points: 2
#     Edge 158, Type (0, 0), BuildingBlock: AJUNOK_clean_linker_0, # of connection points: 2
#     Edge 159, Type (0, 0), BuildingBlock: AJUNOK_clean_linker_0, # of connection points: 2
#     Edge 160, Type (0, 0), BuildingBlock: AJUNOK_clean_linker_0, # of connection points: 2
#     Edge 161, Type (0, 0), BuildingBlock: AJUNOK_clean_linker_0, # of connection points: 2
#     Edge 162, Type (0, 0), BuildingBlock: AJUNOK_clean_linker_0, # of connection points: 2
#     Edge 163, Type (0, 0), BuildingBlock: AJUNOK_clean_linker_0, # of connection points: 2
#     Edge 164, Type (0, 0), BuildingBlock: AJUNOK_clean_linker_0, # of connection points: 2
#     Edge 165, Type (0, 0), BuildingBlock: AJUNOK_clean_linker_0, # of connection points: 2
#     Edge 166, Type (0, 0), BuildingBlock: AJUNOK_clean_linker_0, # of connection points: 2
#     Edge 167, Type (0, 0), BuildingBlock: AJUNOK_clean_linker_0, # of connection points: 2
# Relax obj value: 0.410
# Max RMSD: 0.246
# Mean RMSD: 0.246
data_MOF--net-fcq--node1-BEQFEK_clean_sbu_0--edge1-AJUNOK_clean_linker_0
_symmetry_space_group_name_H-M    P1
_symmetry_Int_Tables_number       1
_symmetry_cell_setting            triclinic
loop_
_symmetry_equiv_pos_as_xyz
'x, y, z'
_cell_length_a     54.069544
_cell_length_b     54.0745
_cell_length_c     54.074467
_cell_angle_alpha  90.025118
_cell_angle_beta   89.988632
_cell_angle_gamma 90.004347
loop_
_atom_site_label
_atom_site_type_symbol
_atom_site_fract_x
_atom_site_fract_y
_atom_site_fract_z
_atom_type_partial_charge
Co0 Co 0.18568 0.18706 0.42981 0.0
Co1 Co 0.14435 0.15882 0.40169 0.0
C2 C 0.14934 0.15463 0.4565 0.0
O3 O 0.16748 0.16963 0.45663 0.0
O4 O 0.13865 0.14875 0.4364 0.0
C5 C 0.2047 0.22088 0.46483 0.0
O6 O 0.18183 0.22076 0.47302 0.0
C7 C 0.09428 0.14269 0.39024 0.0
C8 C 0.09631 0.1353 0.35009 0.0
C9 C 0.08038 0.13513 0.37016 0.0
N10 N 0.11748 0.14701 0.38249 0.0
N11 N 0.11863 0.1425 0.35849 0.0
C12 C 0.08524 0.14777 0.41592 0.0
H13 H 0.09472 0.16424 0.42363 0.0
H14 H 0.06494 0.15079 0.41618 0.0
H15 H 0.08965 0.13171 0.42788 0.0
C16 C 0.16274 0.22988 0.40613 0.0
N17 N 0.16459 0.20539 0.4097 0.0
N18 N 0.14601 0.1941 0.39883 0.0
C19 C 0.13106 0.21141 0.38874 0.0
C20 C 0.14111 0.23464 0.39337 0.0
C21 C 0.18166 0.24843 0.41419 0.0
H22 H 0.20051 0.24067 0.41194 0.0
H23 H 0.17878 0.25307 0.43393 0.0
H24 H 0.18014 0.26572 0.40322 0.0
O25 O 0.20417 0.16305 0.41034 0.0
O26 O 0.17542 0.14149 0.3904 0.0
H27 H 0.10951 0.19381 0.36066 0.0
H28 H 0.09703 0.22306 0.37096 0.0
C29 C 0.10663 0.20596 0.37693 0.0
H30 H 0.0947 0.196 0.39026 0.0
H31 H 0.13455 0.14466 0.34781 0.0
O32 O 0.21004 0.20835 0.44573 0.0
C33 C 0.19801 0.14577 0.39569 0.0
Co34 Co 0.43905 0.55533 0.81538 0.0
Co35 Co 0.41078 0.59686 0.84336 0.0
C36 C 0.40624 0.59218 0.7889 0.0
O37 O 0.42086 0.57371 0.78913 0.0
O38 O 0.40058 0.60343 0.80879 0.0
C39 C 0.47225 0.53787 0.77924 0.0
O40 O 0.47209 0.56119 0.77243 0.0
C41 C 0.38746 0.64361 0.85792 0.0
C42 C 0.39961 0.64686 0.89679 0.0
C43 C 0.38773 0.65966 0.87802 0.0
N44 N 0.3997 0.62294 0.86426 0.0
N45 N 0.40636 0.62473 0.88769 0.0
C46 C 0.3736 0.64637 0.83412 0.0
H47 H 0.36498 0.62845 0.82908 0.0
H48 H 0.38667 0.65154 0.81917 0.0
H49 H 0.35884 0.66054 0.83564 0.0
C50 C 0.48199 0.57771 0.83981 0.0
N51 N 0.45754 0.5763 0.83553 0.0
N52 N 0.44631 0.59535 0.84566 0.0
C53 C 0.46377 0.6104 0.85543 0.0
C54 C 0.48674 0.59937 0.85244 0.0
C55 C 0.50071 0.55961 0.8304 0.0
H56 H 0.50541 0.56428 0.811 0.0
H57 H 0.518 0.56033 0.84141 0.0
H58 H 0.4931 0.54059 0.83105 0.0
O59 O 0.41552 0.53638 0.83493 0.0
O60 O 0.39353 0.56542 0.85395 0.0
H61 H 0.47558 0.64769 0.86349 0.0
H62 H 0.44312 0.64438 0.85631 0.0
C63 C 0.45911 0.63567 0.86571 0.0
H64 H 0.45526 0.63415 0.88579 0.0
H65 H 0.41635 0.61123 0.89715 0.0
O66 O 0.46014 0.53154 0.79831 0.0
C67 C 0.39795 0.54274 0.84914 0.0
Co68 Co 0.80601 0.30702 0.43031 0.0
Co69 Co 0.84606 0.33515 0.40003 0.0
C70 C 0.84471 0.33896 0.45507 0.0
O71 O 0.82621 0.32437 0.45575 0.0
O72 O 0.85481 0.34482 0.43457 0.0
C73 C 0.78811 0.27315 0.46645 0.0
O74 O 0.811 0.27346 0.47461 0.0
C75 C 0.89193 0.35768 0.38219 0.0
C76 C 0.89268 0.34547 0.34322 0.0
C77 C 0.90667 0.35716 0.36121 0.0
N78 N 0.87072 0.34582 0.3772 0.0
N79 N 0.87101 0.33907 0.3537 0.0
C80 C 0.89645 0.37154 0.40565 0.0
H81 H 0.87935 0.38167 0.4106 0.0
H82 H 0.90076 0.3583 0.42072 0.0
H83 H 0.91177 0.38505 0.4037 0.0
C84 C 0.82698 0.26409 0.40485 0.0
N85 N 0.8255 0.2886 0.40871 0.0
N86 N 0.84391 0.29977 0.39743 0.0
C87 C 0.85855 0.28228 0.38711 0.0
C88 C 0.84795 0.25931 0.39117 0.0
C89 C 0.80968 0.24526 0.4154 0.0
H90 H 0.79047 0.25241 0.41526 0.0
H91 H 0.8152 0.24112 0.4347 0.0
H92 H 0.81046 0.22777 0.40465 0.0
O93 O 0.78637 0.3313 0.41244 0.0
O94 O 0.81439 0.35298 0.39166 0.0
H95 H 0.88215 0.29046 0.35656 0.0
H96 H 0.89573 0.27024 0.37899 0.0
C97 C 0.88378 0.28677 0.37665 0.0
H98 H 0.89262 0.3028 0.38586 0.0
H99 H 0.85685 0.32918 0.34512 0.0
O100 O 0.78248 0.28583 0.44756 0.0
C101 C 0.79205 0.34896 0.39809 0.0
Co102 Co 0.55463 0.93723 0.81505 0.0
Co103 Co 0.58394 0.89668 0.84343 0.0
C104 C 0.58637 0.89981 0.78851 0.0
O105 O 0.57153 0.9181 0.78856 0.0
O106 O 0.59305 0.88954 0.80861 0.0
C107 C 0.52035 0.95571 0.77983 0.0
O108 O 0.52039 0.93281 0.7717 0.0
C109 C 0.60785 0.85019 0.85775 0.0
C110 C 0.5964 0.84696 0.89684 0.0
C111 C 0.60801 0.83418 0.87787 0.0
N112 N 0.59562 0.87082 0.86428 0.0
N113 N 0.58939 0.86904 0.88783 0.0
C114 C 0.6213 0.84745 0.83371 0.0
H115 H 0.62968 0.86542 0.82846 0.0
H116 H 0.60801 0.84212 0.81901 0.0
H117 H 0.63619 0.83339 0.835 0.0
C118 C 0.51251 0.91507 0.84082 0.0
N119 N 0.53689 0.9168 0.83631 0.0
N120 N 0.5485 0.89807 0.84661 0.0
C121 C 0.53136 0.8829 0.85672 0.0
C122 C 0.50822 0.89354 0.85376 0.0
C123 C 0.49335 0.93251 0.83113 0.0
H124 H 0.50045 0.95174 0.83152 0.0
H125 H 0.4888 0.92742 0.81179 0.0
H126 H 0.47611 0.93147 0.84221 0.0
O127 O 0.57885 0.95639 0.83343 0.0
O128 O 0.60115 0.92833 0.85345 0.0
H129 H 0.54073 0.85898 0.88666 0.0
H130 H 0.51993 0.84548 0.86477 0.0
C131 C 0.5364 0.85758 0.86668 0.0
H132 H 0.5522 0.84902 0.85682 0.0
H133 H 0.57947 0.8825 0.89745 0.0
O134 O 0.53308 0.96116 0.79876 0.0
C135 C 0.59649 0.95077 0.84783 0.0
Co136 Co 0.18995 0.80358 0.06422 0.0
Co137 Co 0.1474 0.83089 0.09127 0.0
C138 C 0.15114 0.83386 0.03695 0.0
O139 O 0.17042 0.82029 0.03761 0.0
O140 O 0.13976 0.83974 0.0567 0.0
C141 C 0.20815 0.76925 0.02935 0.0
O142 O 0.18483 0.76818 0.02261 0.0
C143 C 0.10139 0.85485 0.10685 0.0
C144 C 0.09704 0.8401 0.14471 0.0
C145 C 0.08514 0.85402 0.12677 0.0
N146 N 0.12132 0.84115 0.11247 0.0
N147 N 0.11888 0.83284 0.1353 0.0
C148 C 0.09954 0.87024 0.08393 0.0
H149 H 0.11805 0.87769 0.07911 0.0
H150 H 0.09326 0.85849 0.06832 0.0
H151 H 0.0865 0.88588 0.08648 0.0
C152 C 0.16855 0.76043 0.08872 0.0
N153 N 0.16976 0.78493 0.08483 0.0
N154 N 0.14998 0.79566 0.09392 0.0
C155 C 0.13453 0.77792 0.10233 0.0
C156 C 0.14605 0.75506 0.09965 0.0
C157 C 0.1886 0.74251 0.08212 0.0
H158 H 0.20695 0.75158 0.0834 0.0
H159 H 0.18581 0.73587 0.06293 0.0
H160 H 0.18818 0.72625 0.09465 0.0
O161 O 0.20826 0.82804 0.08311 0.0
O162 O 0.17833 0.84944 0.10136 0.0
H163 H 0.10572 0.78517 0.12848 0.0
H164 H 0.0965 0.76579 0.10317 0.0
C165 C 0.10781 0.78214 0.10831 0.0
H166 H 0.10073 0.79858 0.09832 0.0
H167 H 0.13175 0.82153 0.14414 0.0
O168 O 0.21414 0.78263 0.04767 0.0
C169 C 0.2012 0.84569 0.09685 0.0
Co170 Co 0.05662 0.55381 0.17914 0.0
Co171 Co 0.08432 0.5954 0.15119 0.0
C172 C 0.08937 0.59145 0.20547 0.0
O173 O 0.07487 0.57282 0.20527 0.0
O174 O 0.09484 0.60279 0.18554 0.0
C175 C 0.02185 0.53671 0.21428 0.0
O176 O 0.02182 0.55991 0.22152 0.0
C177 C 0.10752 0.64108 0.1338 0.0
C178 C 0.09309 0.64359 0.09565 0.0
C179 C 0.10654 0.6564 0.11328 0.0
N180 N 0.09438 0.62062 0.1289 0.0
N181 N 0.08623 0.62197 0.10589 0.0
C182 C 0.1225 0.64445 0.15677 0.0
H183 H 0.13195 0.62679 0.16111 0.0
H184 H 0.11008 0.64913 0.17242 0.0
H185 H 0.13663 0.65916 0.15452 0.0
C186 C 0.01344 0.57623 0.15541 0.0
N187 N 0.03797 0.57444 0.15894 0.0
N188 N 0.049 0.59393 0.14965 0.0
C189 C 0.03152 0.60981 0.14152 0.0
C190 C 0.00838 0.59889 0.14458 0.0
C191 C 0.99525 0.55637 0.16186 0.0
H192 H 0.00406 0.5379 0.16038 0.0
H193 H 0.9887 0.55906 0.18109 0.0
H194 H 0.97898 0.55712 0.14937 0.0
O195 O 0.08006 0.53463 0.15982 0.0
O196 O 0.10166 0.56396 0.14091 0.0
H197 H 0.03975 0.63803 0.11505 0.0
H198 H 0.02047 0.64817 0.14015 0.0
C199 C 0.0365 0.63632 0.13521 0.0
H200 H 0.05312 0.64304 0.14516 0.0
H201 H 0.07516 0.60856 0.09753 0.0
O202 O 0.03518 0.53037 0.19605 0.0
C203 C 0.09761 0.54123 0.14572 0.0
Co204 Co 0.80901 0.69058 0.06336 0.0
Co205 Co 0.84823 0.66204 0.09444 0.0
C206 C 0.84491 0.6554 0.03959 0.0
O207 O 0.82753 0.67123 0.03817 0.0
O208 O 0.8548 0.64995 0.06026 0.0
C209 C 0.79127 0.72326 0.02616 0.0
O210 O 0.81405 0.72204 0.01776 0.0
C211 C 0.89449 0.63898 0.1108 0.0
C212 C 0.89587 0.65017 0.15008 0.0
C213 C 0.90953 0.63879 0.13161 0.0
N214 N 0.87347 0.65095 0.11643 0.0
N215 N 0.87415 0.65708 0.14008 0.0
C216 C 0.89858 0.62575 0.08685 0.0
H217 H 0.88135 0.61599 0.08162 0.0
H218 H 0.90296 0.63936 0.07215 0.0
H219 H 0.91366 0.61192 0.08827 0.0
C220 C 0.83175 0.7336 0.0871 0.0
N221 N 0.82987 0.70907 0.08353 0.0
N222 N 0.84787 0.69766 0.09525 0.0
C223 C 0.86271 0.715 0.10553 0.0
C224 C 0.85261 0.73813 0.10103 0.0
C225 C 0.81467 0.75248 0.07626 0.0
H226 H 0.81961 0.75546 0.05658 0.0
H227 H 0.81617 0.77048 0.08599 0.0
H228 H 0.7953 0.74586 0.07731 0.0
O229 O 0.78901 0.66818 0.08317 0.0
O230 O 0.81606 0.64665 0.1053 0.0
H231 H 0.88335 0.70594 0.1379 0.0
H232 H 0.89918 0.72634 0.11716 0.0
C233 C 0.88682 0.70998 0.11811 0.0
H234 H 0.89619 0.69396 0.10941 0.0
H235 H 0.86017 0.6668 0.14914 0.0
O236 O 0.7857 0.71176 0.04581 0.0
C237 C 0.79388 0.65149 0.09892 0.0
Co238 Co 0.94009 0.93939 0.18082 0.0
Co239 Co 0.91169 0.89955 0.15063 0.0
C240 C 0.90625 0.90269 0.20541 0.0
O241 O 0.92169 0.92045 0.20661 0.0
O242 O 0.90067 0.89284 0.1848 0.0
C243 C 0.97356 0.95785 0.21719 0.0
O244 O 0.97314 0.93507 0.22565 0.0
C245 C 0.89327 0.85093 0.13626 0.0
C246 C 0.88956 0.85464 0.09572 0.0
C247 C 0.88659 0.83818 0.11511 0.0
N248 N 0.89974 0.874 0.12975 0.0
N249 N 0.89739 0.87617 0.10551 0.0
C250 C 0.89589 0.84074 0.16188 0.0
H251 H 0.91258 0.84853 0.17091 0.0
H252 H 0.89723 0.82026 0.16166 0.0
H253 H 0.87953 0.8462 0.17298 0.0
C254 C 0.9829 0.91705 0.15615 0.0
N255 N 0.95844 0.91882 0.16007 0.0
N256 N 0.94701 0.90073 0.14856 0.0
C257 C 0.96414 0.88599 0.13791 0.0
C258 C 0.9875 0.896 0.14229 0.0
C259 C 0.00149 0.93549 0.16518 0.0
H260 H 0.99364 0.95441 0.16428 0.0
H261 H 0.00629 0.9313 0.18467 0.0
H262 H 0.01863 0.93482 0.15391 0.0
O263 O 0.91671 0.95902 0.16163 0.0
O264 O 0.89526 0.93126 0.14027 0.0
H265 H 0.95009 0.86421 0.10806 0.0
H266 H 0.97515 0.84969 0.12482 0.0
C267 C 0.9584 0.86138 0.1266 0.0
H268 H 0.94484 0.85145 0.13825 0.0
H269 H 0.90152 0.89221 0.09563 0.0
O270 O 0.96136 0.9631 0.19786 0.0
C271 C 0.89968 0.95359 0.14641 0.0
Co272 Co 0.4329 0.188 0.18834 0.0
Co273 Co 0.403 0.14818 0.15956 0.0
C274 C 0.4581 0.15108 0.15546 0.0
O275 O 0.45909 0.16901 0.17072 0.0
O276 O 0.43752 0.14139 0.14951 0.0
C277 C 0.46884 0.20725 0.22182 0.0
O278 O 0.47788 0.18471 0.22121 0.0
C279 C 0.38979 0.09866 0.14278 0.0
C280 C 0.3499 0.1024 0.13471 0.0
C281 C 0.36929 0.08566 0.1347 0.0
N282 N 0.38292 0.12212 0.14723 0.0
N283 N 0.35908 0.12429 0.14229 0.0
C284 C 0.41498 0.08854 0.14824 0.0
H285 H 0.42293 0.09784 0.16471 0.0
H286 H 0.41427 0.06828 0.15145 0.0
H287 H 0.42731 0.09224 0.13228 0.0
C288 C 0.40868 0.16501 0.23092 0.0
N289 N 0.41205 0.1673 0.20643 0.0
N290 N 0.4002 0.1495 0.19485 0.0
C291 C 0.38951 0.13469 0.21191 0.0
C292 C 0.39486 0.14394 0.23532 0.0
C293 C 0.4182 0.18291 0.24979 0.0
H294 H 0.41617 0.2021 0.24286 0.0
H295 H 0.43808 0.17931 0.25321 0.0
H296 H 0.40805 0.18106 0.26754 0.0
O297 O 0.41414 0.2075 0.16442 0.0
O298 O 0.39292 0.17986 0.14268 0.0
H299 H 0.3606 0.11483 0.19366 0.0
H300 H 0.36984 0.10145 0.22286 0.0
C301 C 0.37652 0.11098 0.20599 0.0
H302 H 0.38937 0.09849 0.19606 0.0
H303 H 0.34902 0.14062 0.14442 0.0
O304 O 0.44926 0.21202 0.20982 0.0
C305 C 0.39924 0.20216 0.14709 0.0
Co306 Co 0.43778 0.31628 0.0553 0.0
Co307 Co 0.39869 0.34496 0.08602 0.0
C308 C 0.40179 0.28971 0.08818 0.0
O309 O 0.41946 0.28963 0.07263 0.0
O310 O 0.39198 0.30992 0.09527 0.0
C311 C 0.45568 0.28111 0.02057 0.0
O312 O 0.43294 0.27258 0.02147 0.0
C313 C 0.34942 0.35864 0.10265 0.0
C314 C 0.35448 0.39749 0.11428 0.0
C315 C 0.33693 0.37896 0.11195 0.0
N316 N 0.37324 0.36488 0.09953 0.0
N317 N 0.37623 0.38808 0.10662 0.0
C318 C 0.33872 0.33428 0.095 0.0
H319 H 0.34036 0.32106 0.1106 0.0
H320 H 0.34911 0.32667 0.07902 0.0
H321 H 0.3189 0.33618 0.09002 0.0
C322 C 0.41394 0.34217 0.01405 0.0
N323 N 0.41651 0.33743 0.0383 0.0
N324 N 0.39935 0.34931 0.0508 0.0
C325 C 0.38491 0.36169 0.03456 0.0
C326 C 0.3938 0.35747 0.01087 0.0
C327 C 0.42992 0.33162 0.99406 0.0
H328 H 0.44958 0.33205 -0.00016 0.0
H329 H 0.42442 0.31217 0.99062 0.0
H330 H 0.42784 0.34213 0.97655 0.0
O331 O 0.45786 0.33479 0.07912 0.0
O332 O 0.43055 0.35481 0.10234 0.0
H333 H 0.36723 0.39015 0.0556 0.0
H334 H 0.35456 0.38588 0.02494 0.0
C335 C 0.36241 0.37628 0.0413 0.0
H336 H 0.34823 0.3637 0.04908 0.0
H337 H 0.39301 0.39756 0.10587 0.0
O338 O 0.46118 0.30028 0.03292 0.0
C339 C 0.4528 0.34917 0.097 0.0
Co340 Co 0.5644 0.31095 0.18965 0.0
Co341 Co 0.59491 0.3492 0.15962 0.0
C342 C 0.53957 0.34808 0.15701 0.0
O343 O 0.53841 0.33044 0.17256 0.0
O344 O 0.56028 0.35722 0.15056 0.0
C345 C 0.52855 0.29217 0.22374 0.0
O346 O 0.51913 0.31455 0.22272 0.0
C347 C 0.61059 0.3983 0.14469 0.0
C348 C 0.64789 0.39142 0.12951 0.0
C349 C 0.63084 0.41 0.13419 0.0
N350 N 0.61553 0.37404 0.14622 0.0
N351 N 0.63781 0.36997 0.13705 0.0
C352 C 0.58752 0.4099 0.15467 0.0
H353 H 0.57983 0.39852 0.16991 0.0
H354 H 0.59124 0.42892 0.16146 0.0
H355 H 0.57348 0.41085 0.13973 0.0
C356 C 0.59162 0.33276 0.23118 0.0
N357 N 0.58665 0.33092 0.20691 0.0
N358 N 0.59942 0.34763 0.19469 0.0
C359 C 0.61265 0.36104 0.21113 0.0
C360 C 0.60811 0.35192 0.23465 0.0
C361 C 0.57961 0.3175 0.25089 0.0
H362 H 0.58001 0.29771 0.24555 0.0
H363 H 0.56006 0.32333 0.25293 0.0
H364 H 0.589 0.31976 0.26899 0.0
O365 O 0.58168 0.29064 0.16509 0.0
O366 O 0.60311 0.31746 0.14256 0.0
H367 H 0.64107 0.37773 0.18918 0.0
H368 H 0.63999 0.38852 0.22085 0.0
C369 C 0.62868 0.38265 0.20475 0.0
H370 H 0.61687 0.39835 0.19892 0.0
H371 H 0.64616 0.35261 0.13614 0.0
O372 O 0.54811 0.28742 0.2117 0.0
C373 C 0.59613 0.29546 0.1472 0.0
Co374 Co 0.55615 0.18191 0.05377 0.0
Co375 Co 0.5979 0.15447 0.08225 0.0
C376 C 0.59258 0.20877 0.08665 0.0
O377 O 0.57431 0.20846 0.07177 0.0
O378 O 0.6037 0.18894 0.09269 0.0
C379 C 0.53769 0.21735 0.02002 0.0
O380 O 0.56076 0.22496 0.01989 0.0
C381 C 0.6468 0.14093 0.10129 0.0
C382 C 0.64521 0.1001 0.09978 0.0
C383 C 0.66066 0.11978 0.10526 0.0
N384 N 0.62417 0.13409 0.09362 0.0
N385 N 0.62327 0.10967 0.09295 0.0
C386 C 0.65557 0.16717 0.10235 0.0
H387 H 0.64951 0.17719 0.08552 0.0
H388 H 0.676 0.16831 0.10381 0.0
H389 H 0.64713 0.17641 0.11862 0.0
C390 C 0.57946 0.15826 0.0111 0.0
N391 N 0.5775 0.16205 0.03555 0.0
N392 N 0.59657 0.15224 0.04692 0.0
C393 C 0.61219 0.14307 0.02971 0.0
C394 C 0.6017 0.14647 0.00641 0.0
C395 C 0.56009 0.16538 0.99264 0.0
H396 H 0.54143 0.16381 0.001 0.0
H397 H 0.56308 0.1848 0.98679 0.0
H398 H 0.56105 0.15336 0.97602 0.0
O399 O 0.53748 0.16223 0.07729 0.0
O400 O 0.56657 0.14328 0.09924 0.0
H401 H 0.63734 0.11535 0.04241 0.0
H402 H 0.64988 0.13515 0.01859 0.0
C403 C 0.63795 0.13457 0.03527 0.0
H404 H 0.64626 0.14654 0.04965 0.0
H405 H 0.60787 0.09957 0.08717 0.0
O406 O 0.53205 0.1983 0.03249 0.0
C407 C 0.54388 0.14794 0.09476 0.0
Co408 Co 0.43265 0.81005 0.30207 0.0
Co409 Co 0.40033 0.84601 0.33314 0.0
C410 C 0.45628 0.84777 0.33416 0.0
O411 O 0.45801 0.8313 0.31744 0.0
O412 O 0.43521 0.8548 0.34214 0.0
C413 C 0.46813 0.79283 0.26697 0.0
O414 O 0.47637 0.81568 0.26738 0.0
C415 C 0.38372 0.8913 0.35762 0.0
C416 C 0.3438 0.89115 0.34888 0.0
C417 C 0.36242 0.90562 0.35893 0.0
N418 N 0.37811 0.86999 0.34617 0.0
N419 N 0.35411 0.86971 0.34161 0.0
C420 C 0.40835 0.89634 0.36921 0.0
H421 H 0.41527 0.87926 0.3782 0.0
H422 H 0.42179 0.90173 0.35467 0.0
H423 H 0.40711 0.91115 0.38337 0.0
C424 C 0.40386 0.83059 0.26121 0.0
N425 N 0.40864 0.82838 0.28549 0.0
N426 N 0.39624 0.84527 0.29785 0.0
C427 C 0.38398 0.85958 0.28136 0.0
C428 C 0.38818 0.85038 0.25782 0.0
C429 C 0.41556 0.81534 0.2413 0.0
H430 H 0.43466 0.82205 0.23804 0.0
H431 H 0.4051 0.81684 0.2237 0.0
H432 H 0.41628 0.79567 0.24702 0.0
O433 O 0.41878 0.78965 0.3284 0.0
O434 O 0.39296 0.8135 0.34961 0.0
H435 H 0.37044 0.89568 0.27097 0.0
H436 H 0.38061 0.89296 0.30269 0.0
C437 C 0.37107 0.88331 0.28734 0.0
H438 H 0.35174 0.87924 0.29283 0.0
H439 H 0.34499 0.85534 0.3325 0.0
O440 O 0.44923 0.78723 0.27968 0.0
C441 C 0.4033 0.79267 0.34579 0.0
Co442 Co 0.05573 0.31431 0.93658 0.0
Co443 Co 0.09827 0.34114 0.90861 0.0
C444 C 0.09365 0.28652 0.90642 0.0
O445 O 0.07486 0.28708 0.92063 0.0
O446 O 0.1046 0.30631 0.9 0.0
C447 C 0.03592 0.28058 0.97151 0.0
O448 O 0.05883 0.27257 0.97264 0.0
C449 C 0.14809 0.35347 0.89113 0.0
C450 C 0.1467 0.3943 0.89003 0.0
C451 C 0.16226 0.37427 0.88646 0.0
N452 N 0.12517 0.36085 0.89734 0.0
N453 N 0.12441 0.38527 0.89648 0.0
C454 C 0.15676 0.32719 0.8921 0.0
H455 H 0.14965 0.31815 0.90908 0.0
H456 H 0.17724 0.32594 0.89197 0.0
H457 H 0.14931 0.31706 0.87589 0.0
C458 C 0.07699 0.34015 0.97902 0.0
N459 N 0.07602 0.33543 0.95467 0.0
N460 N 0.0955 0.34493 0.94372 0.0
C461 C 0.11042 0.35474 0.9612 0.0
C462 C 0.09903 0.35211 0.98419 0.0
C463 C 0.05698 0.33355 0.997 0.0
H464 H 0.03862 0.33492 0.98797 0.0
H465 H 0.05972 0.31432 0.00351 0.0
H466 H 0.05741 0.34603 0.0133 0.0
O467 O 0.03787 0.33253 0.91135 0.0
O468 O 0.06749 0.35132 0.88992 0.0
H469 H 0.13609 0.38194 0.94841 0.0
H470 H 0.14765 0.36313 0.9735 0.0
C471 C 0.13639 0.36303 0.95636 0.0
H472 H 0.14526 0.35049 0.94283 0.0
H473 H 0.10884 0.39577 0.90091 0.0
O474 O 0.0309 0.29892 0.95779 0.0
C475 C 0.04472 0.34624 0.89359 0.0
Co476 Co 0.55968 0.68775 0.30557 0.0
Co477 Co 0.58702 0.64545 0.33296 0.0
C478 C 0.53252 0.64881 0.33586 0.0
O479 O 0.53298 0.66806 0.32219 0.0
O480 O 0.55241 0.63761 0.34167 0.0
C481 C 0.52658 0.70803 0.26957 0.0
O482 O 0.5178 0.68544 0.26773 0.0
C483 C 0.60402 0.59918 0.35625 0.0
C484 C 0.64228 0.59722 0.34211 0.0
C485 C 0.62488 0.58408 0.35562 0.0
N486 N 0.60881 0.61975 0.34314 0.0
N487 N 0.63187 0.61867 0.33518 0.0
C488 C 0.58051 0.59522 0.37029 0.0
H489 H 0.57335 0.61321 0.37705 0.0
H490 H 0.56647 0.58695 0.35781 0.0
H491 H 0.58346 0.58284 0.38638 0.0
C492 C 0.5851 0.66688 0.26263 0.0
N493 N 0.58072 0.66782 0.28705 0.0
N494 N 0.58979 0.64802 0.29774 0.0
C495 C 0.59855 0.63276 0.27999 0.0
C496 C 0.59617 0.64445 0.25715 0.0
C497 C 0.57931 0.68737 0.24492 0.0
H498 H 0.58063 0.70552 0.25438 0.0
H499 H 0.56028 0.685 0.2377 0.0
H500 H 0.59229 0.68709 0.22902 0.0
O501 O 0.57817 0.70618 0.33009 0.0
O502 O 0.59685 0.67661 0.35154 0.0
H503 H 0.62488 0.60428 0.28779 0.0
H504 H 0.60018 0.5948 0.26772 0.0
C505 C 0.60478 0.6061 0.28423 0.0
H506 H 0.59451 0.59885 0.30042 0.0
H507 H 0.6402 0.63222 0.32426 0.0
O508 O 0.54417 0.71241 0.28443 0.0
C509 C 0.59197 0.6994 0.34777 0.0
Co510 Co 0.93445 0.1837 0.94117 0.0
Co511 Co 0.8982 0.15276 0.90929 0.0
C512 C 0.89883 0.20839 0.90704 0.0
O513 O 0.91571 0.20955 0.92338 0.0
O514 O 0.89047 0.18759 0.89972 0.0
C515 C 0.95189 0.21989 0.97558 0.0
O516 O 0.92949 0.22915 0.97384 0.0
C517 C 0.85002 0.13742 0.89131 0.0
C518 C 0.85724 0.09966 0.87739 0.0
C519 C 0.8388 0.11724 0.88019 0.0
N520 N 0.87402 0.1321 0.89468 0.0
N521 N 0.8783 0.10955 0.88627 0.0
C522 C 0.83804 0.16064 0.90047 0.0
H523 H 0.84741 0.16716 0.91753 0.0
H524 H 0.81807 0.15769 0.90419 0.0
H525 H 0.84009 0.17531 0.88627 0.0
C526 C 0.91025 0.15721 0.98172 0.0
N527 N 0.91356 0.1617 0.95753 0.0
N528 N 0.8978 0.14848 0.94453 0.0
C529 C 0.88368 0.13522 0.96036 0.0
C530 C 0.89118 0.14049 0.98434 0.0
C531 C 0.92456 0.16931 0.0021 0.0
H532 H 0.94458 0.16893 -0.0023 0.0
H533 H 0.9186 0.18885 0.00382 0.0
H534 H 0.92147 0.1599 0.02008 0.0
O535 O 0.95599 0.16616 0.91787 0.0
O536 O 0.9309 0.14401 0.89418 0.0
H537 H 0.86903 0.10604 0.93798 0.0
H538 H 0.85607 0.1076 0.96884 0.0
C539 C 0.86284 0.11865 0.95291 0.0
H540 H 0.84738 0.13002 0.94571 0.0
H541 H 0.8955 0.10086 0.88683 0.0
O542 O 0.95701 0.20011 0.96407 0.0
C543 C 0.95254 0.15117 0.90012 0.0
Co544 Co 0.18881 0.42926 0.1869 0.0
Co545 Co 0.16045 0.40061 0.14584 0.0
C546 C 0.15832 0.45553 0.14821 0.0
O547 O 0.17253 0.45561 0.167 0.0
O548 O 0.15196 0.43535 0.13787 0.0
C549 C 0.22287 0.46455 0.20602 0.0
O550 O 0.22298 0.47302 0.18325 0.0
C551 C 0.13734 0.38554 0.09928 0.0
C552 C 0.14866 0.34635 0.09687 0.0
C553 C 0.13727 0.36514 0.08366 0.0
N554 N 0.14928 0.37935 0.12015 0.0
N555 N 0.15546 0.35575 0.11886 0.0
C556 C 0.12413 0.40962 0.09586 0.0
H557 H 0.1154 0.41522 0.11357 0.0
H558 H 0.13765 0.42414 0.09059 0.0
H559 H 0.10956 0.40821 0.08149 0.0
C560 C 0.23134 0.40301 0.16595 0.0
N561 N 0.20694 0.40755 0.16717 0.0
N562 N 0.19572 0.39701 0.14834 0.0
C563 C 0.21312 0.38662 0.13368 0.0
C564 C 0.23604 0.38967 0.14473 0.0
C565 C 0.25023 0.41304 0.1835 0.0
H566 H 0.25462 0.43239 0.17832 0.0
H567 H 0.26758 0.4021 0.18266 0.0
H568 H 0.24294 0.41272 0.20266 0.0
O569 O 0.16377 0.41145 0.2057 0.0
O570 O 0.14209 0.39156 0.17701 0.0
H571 H 0.20446 0.35692 0.10914 0.0
H572 H 0.22544 0.37916 0.09643 0.0
C573 C 0.2087 0.37695 0.10812 0.0
H574 H 0.19304 0.38681 0.09933 0.0
H575 H 0.16517 0.34635 0.13262 0.0
O576 O 0.21001 0.44561 0.21114 0.0
C577 C 0.14603 0.39739 0.19952 0.0
Co578 Co 0.1899 0.56193 0.30783 0.0
Co579 Co 0.15972 0.58997 0.348 0.0
C580 C 0.15832 0.53481 0.34468 0.0
O581 O 0.17342 0.53496 0.32662 0.0
O582 O 0.15123 0.5549 0.35468 0.0
C583 C 0.22423 0.52695 0.28917 0.0
O584 O 0.22403 0.51876 0.31203 0.0
C585 C 0.14154 0.60244 0.39736 0.0
C586 C 0.13421 0.64251 0.3941 0.0
C587 C 0.1335 0.62287 0.41052 0.0
N588 N 0.14666 0.6096 0.37412 0.0
N589 N 0.14214 0.63355 0.37225 0.0
C590 C 0.14634 0.577 0.40717 0.0
H591 H 0.13094 0.56464 0.40157 0.0
H592 H 0.16369 0.56955 0.39915 0.0
H593 H 0.14774 0.57704 0.42765 0.0
C594 C 0.23127 0.58809 0.33072 0.0
N595 N 0.20698 0.58349 0.32857 0.0
N596 N 0.19493 0.59442 0.34664 0.0
C597 C 0.21158 0.60563 0.36157 0.0
C598 C 0.23517 0.60173 0.35201 0.0
C599 C 0.25045 0.57959 0.31263 0.0
H600 H 0.24331 0.58148 0.29349 0.0
H601 H 0.25476 0.55984 0.31598 0.0
H602 H 0.26775 0.59049 0.31452 0.0
O603 O 0.16532 0.57976 0.28851 0.0
O604 O 0.14237 0.59954 0.31626 0.0
H605 H 0.19313 0.63378 0.38226 0.0
H606 H 0.22199 0.62379 0.3958 0.0
C607 C 0.20525 0.61761 0.3857 0.0
H608 H 0.19493 0.60433 0.3974 0.0
H609 H 0.14487 0.64385 0.35616 0.0
O610 O 0.21194 0.54622 0.2839 0.0
C611 C 0.14729 0.59378 0.2939 0.0
Co612 Co 0.81488 0.55312 0.93494 0.0
Co613 Co 0.84551 0.58472 0.89819 0.0
C614 C 0.78966 0.58589 0.89866 0.0
O615 O 0.78838 0.56965 0.91566 0.0
O616 O 0.81052 0.59324 0.89058 0.0
C617 C 0.77985 0.51873 0.9552 0.0
O618 O 0.76933 0.51955 0.93331 0.0
C619 C 0.85953 0.60038 0.84891 0.0
C620 C 0.89634 0.61709 0.85477 0.0
C621 C 0.87895 0.61177 0.83667 0.0
N622 N 0.86521 0.59898 0.87302 0.0
N623 N 0.8872 0.60905 0.87649 0.0
C624 C 0.83663 0.58942 0.83787 0.0
H625 H 0.82994 0.5738 0.84937 0.0
H626 H 0.84016 0.58287 0.81873 0.0
H627 H 0.82192 0.60371 0.83733 0.0
C628 C 0.84253 0.51254 0.91194 0.0
N629 N 0.83747 0.53671 0.91465 0.0
N630 N 0.85048 0.54963 0.89866 0.0
C631 C 0.86406 0.53377 0.8849 0.0
C632 C 0.85945 0.50987 0.893 0.0
C633 C 0.83006 0.49227 0.92606 0.0
H634 H 0.81034 0.49139 0.92054 0.0
H635 H 0.83872 0.47402 0.92244 0.0
H636 H 0.83099 0.4963 0.94614 0.0
O637 O 0.83183 0.57759 0.95561 0.0
O638 O 0.85422 0.60094 0.93042 0.0
H639 H 0.89252 0.52543 0.85814 0.0
H640 H 0.86899 0.54672 0.84794 0.0
C641 C 0.88052 0.54106 0.86391 0.0
H642 H 0.89221 0.55696 0.86944 0.0
H643 H 0.89599 0.61027 0.8936 0.0
O644 O 0.79971 0.53065 0.95876 0.0
C645 C 0.84672 0.59539 0.95206 0.0
Co646 Co 0.80331 0.92992 0.30798 0.0
Co647 Co 0.83398 0.89932 0.34578 0.0
C648 C 0.83605 0.9549 0.34457 0.0
O649 O 0.82013 0.95615 0.32728 0.0
O650 O 0.84291 0.93412 0.3532 0.0
C651 C 0.76962 0.96582 0.28865 0.0
O652 O 0.77083 0.97549 0.31092 0.0
C653 C 0.84911 0.88595 0.39542 0.0
C654 C 0.86366 0.84808 0.39063 0.0
C655 C 0.85929 0.86626 0.4082 0.0
N656 N 0.84744 0.87969 0.37145 0.0
N657 N 0.85625 0.85707 0.36863 0.0
C658 C 0.8394 0.90967 0.40589 0.0
H659 H 0.82368 0.91651 0.39462 0.0
H660 H 0.83333 0.90717 0.42534 0.0
H661 H 0.85429 0.92379 0.40541 0.0
C662 C 0.76207 0.90318 0.3309 0.0
N663 N 0.78634 0.90775 0.32829 0.0
N664 N 0.79887 0.89474 0.34459 0.0
C665 C 0.78265 0.88162 0.35836 0.0
C666 C 0.75892 0.88659 0.35003 0.0
C667 C 0.74207 0.91574 0.31648 0.0
H668 H 0.74077 0.93531 0.32244 0.0
H669 H 0.72386 0.90672 0.31945 0.0
H670 H 0.74662 0.91529 0.29649 0.0
O671 O 0.82791 0.91248 0.28781 0.0
O672 O 0.85077 0.89054 0.31394 0.0
H673 H 0.77335 0.85482 0.3865 0.0
H674 H 0.79574 0.87787 0.39542 0.0
C675 C 0.7894 0.86588 0.38006 0.0
H676 H 0.80472 0.85326 0.37495 0.0
H677 H 0.85696 0.84773 0.35178 0.0
O678 O 0.78119 0.94591 0.28421 0.0
C679 C 0.84569 0.89772 0.29208 0.0
Co680 Co 0.67682 0.43902 0.44037 0.0
Co681 Co 0.6501 0.40992 0.39877 0.0
C682 C 0.70492 0.40817 0.40339 0.0
O683 O 0.70428 0.42279 0.42185 0.0
O684 O 0.68511 0.40145 0.39265 0.0
C685 C 0.71083 0.4741 0.45815 0.0
O686 O 0.71775 0.47442 0.43486 0.0
C687 C 0.63906 0.39275 0.34891 0.0
C688 C 0.59883 0.38572 0.35071 0.0
C689 C 0.61902 0.38516 0.33496 0.0
N690 N 0.63115 0.39748 0.37198 0.0
N691 N 0.60711 0.39314 0.373 0.0
C692 C 0.66484 0.39751 0.33998 0.0
H693 H 0.67214 0.41472 0.34843 0.0
H694 H 0.6655 0.39917 0.31954 0.0
H695 H 0.67692 0.38197 0.34577 0.0
C696 C 0.65127 0.48097 0.41773 0.0
N697 N 0.65578 0.45663 0.4195 0.0
N698 N 0.64573 0.44506 0.40065 0.0
C699 C 0.63534 0.46207 0.38555 0.0
C700 C 0.63882 0.48541 0.39584 0.0
C701 C 0.65829 0.4997 0.4369 0.0
H702 H 0.65644 0.49161 0.45565 0.0
H703 H 0.67777 0.50543 0.43417 0.0
H704 H 0.64643 0.5164 0.4355 0.0
O705 O 0.65865 0.41406 0.459 0.0
O706 O 0.64003 0.39184 0.42988 0.0
H707 H 0.60819 0.44427 0.36305 0.0
H708 H 0.61908 0.47332 0.35065 0.0
C709 C 0.6246 0.45634 0.36071 0.0
H710 H 0.6384 0.44616 0.34949 0.0
H711 H 0.59631 0.39568 0.38879 0.0
O712 O 0.69244 0.46093 0.46437 0.0
C713 C 0.64509 0.39601 0.45256 0.0
Co714 Co 0.30176 0.56263 0.68818 0.0
Co715 Co 0.33099 0.59278 0.64887 0.0
C716 C 0.33318 0.53772 0.64925 0.0
O717 O 0.31874 0.53703 0.66786 0.0
O718 O 0.33955 0.55824 0.63957 0.0
C719 C 0.26784 0.52627 0.70612 0.0
O720 O 0.26854 0.51764 0.68342 0.0
C721 C 0.355 0.61099 0.60362 0.0
C722 C 0.34647 0.65089 0.60563 0.0
C723 C 0.35709 0.63304 0.5906 0.0
N724 N 0.34308 0.61556 0.62494 0.0
N725 N 0.33848 0.63952 0.62625 0.0
C726 C 0.36563 0.58631 0.59701 0.0
H727 H 0.37373 0.57766 0.61373 0.0
H728 H 0.35067 0.57411 0.59002 0.0
H729 H 0.38035 0.58795 0.58282 0.0
C730 C 0.2596 0.58909 0.66677 0.0
N731 N 0.284 0.58474 0.66858 0.0
N732 N 0.29573 0.59647 0.65079 0.0
C733 C 0.27875 0.60784 0.63636 0.0
C734 C 0.25549 0.60377 0.64634 0.0
C735 C 0.24029 0.57809 0.68326 0.0
H736 H 0.24674 0.57827 0.70271 0.0
H737 H 0.23686 0.55869 0.67757 0.0
H738 H 0.22261 0.58845 0.6819 0.0
O739 O 0.32622 0.57993 0.70845 0.0
O740 O 0.34861 0.60031 0.68076 0.0
H741 H 0.28946 0.63956 0.6155 0.0
H742 H 0.26752 0.62005 0.60004 0.0
C743 C 0.28411 0.62005 0.61213 0.0
H744 H 0.29948 0.61044 0.60255 0.0
H745 H 0.32915 0.64797 0.64088 0.0
O746 O 0.28003 0.54559 0.71146 0.0
C747 C 0.34427 0.59392 0.70302 0.0
Co748 Co 0.81242 0.43941 0.55434 0.0
Co749 Co 0.84053 0.41192 0.59604 0.0
C750 C 0.78621 0.40784 0.59285 0.0
O751 O 0.78644 0.42186 0.5739 0.0
O752 O 0.80617 0.40211 0.60395 0.0
C753 C 0.7772 0.47407 0.53741 0.0
O754 O 0.77044 0.47441 0.56075 0.0
C755 C 0.85818 0.38879 0.64203 0.0
C756 C 0.89641 0.4031 0.64353 0.0
C757 C 0.87919 0.38958 0.65688 0.0
N758 N 0.86269 0.40184 0.62138 0.0
N759 N 0.88573 0.4099 0.62217 0.0
C760 C 0.83474 0.37473 0.64637 0.0
H761 H 0.8275 0.36761 0.62855 0.0
H762 H 0.82069 0.38731 0.65449 0.0
H763 H 0.8378 0.35887 0.65901 0.0
C764 C 0.83726 0.48246 0.5754 0.0
N765 N 0.83317 0.458 0.57436 0.0
N766 N 0.84263 0.44725 0.59393 0.0
C767 C 0.85146 0.46498 0.60917 0.0
C768 C 0.84864 0.48788 0.59769 0.0
C769 C 0.83079 0.50024 0.55518 0.0
H770 H 0.83194 0.49095 0.53693 0.0
H771 H 0.81166 0.50707 0.55792 0.0
H772 H 0.84348 0.51638 0.55539 0.0
O773 O 0.83139 0.41569 0.53537 0.0
O774 O 0.85064 0.39417 0.56457 0.0
H775 H 0.87853 0.4573 0.63697 0.0
H776 H 0.85377 0.47695 0.64719 0.0
C777 C 0.85834 0.46061 0.63564 0.0
H778 H 0.84844 0.44422 0.64298 0.0
H779 H 0.89385 0.42085 0.60852 0.0
O780 O 0.7953 0.46066 0.53087 0.0
C781 C 0.84567 0.39826 0.54186 0.0
Co782 Co 0.18117 0.05358 0.55674 0.0
Co783 Co 0.15363 0.08284 0.59759 0.0
C784 C 0.20845 0.08578 0.59347 0.0
O785 O 0.20799 0.07092 0.57518 0.0
O786 O 0.18854 0.09233 0.60425 0.0
C787 C 0.21585 0.01875 0.53853 0.0
O788 O 0.22386 0.01873 0.56147 0.0
C789 C 0.13886 0.10021 0.64666 0.0
C790 C 0.09881 0.1066 0.6415 0.0
C791 C 0.11755 0.10741 0.65895 0.0
N792 N 0.13296 0.09527 0.62304 0.0
N793 N 0.10903 0.09924 0.62003 0.0
C794 C 0.16403 0.09619 0.65748 0.0
H795 H 0.17332 0.08045 0.64817 0.0
H796 H 0.16291 0.0925 0.67763 0.0
H797 H 0.17538 0.11301 0.65444 0.0
C798 C 0.15626 0.01156 0.57965 0.0
N799 N 0.16046 0.03593 0.57773 0.0
N800 N 0.15003 0.04756 0.59634 0.0
C801 C 0.13966 0.03054 0.61145 0.0
C802 C 0.1436 0.00716 0.60142 0.0
C803 C 0.16367 0.9928 0.56065 0.0
H804 H 0.16159 0.00066 0.54183 0.0
H805 H 0.18328 0.98758 0.5634 0.0
H806 H 0.15219 0.97584 0.56222 0.0
O807 O 0.16238 0.07733 0.53741 0.0
O808 O 0.14344 0.0999 0.566 0.0
H809 H 0.11188 0.0483 0.63324 0.0
H810 H 0.12269 0.01938 0.64604 0.0
C811 C 0.12832 0.03636 0.63601 0.0
H812 H 0.1418 0.04669 0.64746 0.0
H813 H 0.09962 0.09651 0.60341 0.0
O814 O 0.19707 0.03165 0.53301 0.0
C815 C 0.14834 0.09512 0.54343 0.0
Co816 Co 0.6906 0.68707 0.92763 0.0
Co817 Co 0.64928 0.65887 0.89941 0.0
C818 C 0.65343 0.65491 0.95412 0.0
O819 O 0.67172 0.66978 0.95425 0.0
O820 O 0.64281 0.64895 0.934 0.0
C821 C 0.70917 0.72137 0.96267 0.0
O822 O 0.68611 0.72183 0.97032 0.0
C823 C 0.60008 0.64075 0.88606 0.0
C824 C 0.60323 0.63645 0.84553 0.0
C825 C 0.587 0.6338 0.86517 0.0
N826 N 0.62312 0.647 0.87914 0.0
N827 N 0.62491 0.64434 0.85491 0.0
C828 C 0.59026 0.64373 0.9118 0.0
H829 H 0.59838 0.66038 0.9206 0.0
H830 H 0.5698 0.64534 0.91183 0.0
H831 H 0.59565 0.6274 0.92296 0.0
C832 C 0.66872 0.72974 0.90265 0.0
N833 N 0.67004 0.70533 0.90687 0.0
N834 N 0.6511 0.69418 0.89654 0.0
C835 C 0.63618 0.71156 0.88655 0.0
C836 C 0.64697 0.73474 0.89008 0.0
C837 C 0.68823 0.74794 0.9101 0.0
H838 H 0.70679 0.7393 0.90884 0.0
H839 H 0.68501 0.75388 0.92945 0.0
H840 H 0.68774 0.76454 0.89804 0.0
O841 O 0.70944 0.66302 0.90869 0.0
O842 O 0.68066 0.64141 0.8889 0.0
H843 H 0.61234 0.69824 0.85799 0.0
H844 H 0.59926 0.7232 0.87607 0.0
C845 C 0.61081 0.70628 0.87681 0.0
H846 H 0.60149 0.69262 0.88885 0.0
H847 H 0.64085 0.64822 0.84475 0.0
O848 O 0.71472 0.70836 0.94395 0.0
C849 C 0.70326 0.64561 0.89422 0.0
Co850 Co 0.93623 0.05849 0.31559 0.0
Co851 Co 0.90539 0.09648 0.34568 0.0
C852 C 0.90268 0.09449 0.2903 0.0
O853 O 0.91864 0.07721 0.28937 0.0
O854 O 0.89591 0.10363 0.31091 0.0
C855 C 0.97054 0.04075 0.27976 0.0
O856 O 0.96924 0.06344 0.27117 0.0
C857 C 0.88976 0.14574 0.35989 0.0
C858 C 0.87538 0.14013 0.39771 0.0
C859 C 0.8795 0.15808 0.37986 0.0
N860 N 0.89169 0.1217 0.36569 0.0
N861 N 0.88299 0.11838 0.38828 0.0
C862 C 0.89929 0.15665 0.3363 0.0
H863 H 0.91481 0.14538 0.329 0.0
H864 H 0.90558 0.17598 0.33918 0.0
H865 H 0.88425 0.15662 0.32234 0.0
C866 C 0.97739 0.08176 0.34221 0.0
N867 N 0.95316 0.07931 0.3373 0.0
N868 N 0.94057 0.09591 0.34989 0.0
C869 C 0.95672 0.10986 0.36292 0.0
C870 C 0.98044 0.10121 0.35844 0.0
C871 C -0.00257 0.06661 0.33059 0.0
H872 H -0.00023 0.07241 0.31107 0.0
H873 H 0.01535 0.06908 0.34029 0.0
H874 H 0.99227 0.04678 0.33097 0.0
O875 O 0.91246 0.03797 0.3337 0.0
O876 O 0.88933 0.06444 0.35496 0.0
H877 H 0.96592 0.13794 0.38983 0.0
H878 H 0.94334 0.14679 0.36694 0.0
C879 C 0.94987 0.13142 0.37881 0.0
H880 H 0.93465 0.12613 0.39148 0.0
H881 H 0.88251 0.10136 0.39732 0.0
O882 O 0.95869 0.0353 0.29926 0.0
C883 C 0.89474 0.04244 0.34847 0.0
Co884 Co 0.30546 0.80651 0.92917 0.0
Co885 Co 0.34598 0.83495 0.90019 0.0
C886 C 0.34182 0.84017 0.95479 0.0
O887 O 0.32403 0.82472 0.95537 0.0
O888 O 0.35223 0.84592 0.9345 0.0
C889 C 0.28832 0.77147 0.9641 0.0
O890 O 0.31149 0.77148 0.97142 0.0
C891 C 0.39503 0.85249 0.88607 0.0
C892 C 0.39137 0.85644 0.84556 0.0
C893 C 0.40802 0.85871 0.8649 0.0
N894 N 0.37177 0.84672 0.87955 0.0
N895 N 0.36964 0.84923 0.85533 0.0
C896 C 0.40504 0.84979 0.91176 0.0
H897 H 0.39598 0.83407 0.92129 0.0
H898 H 0.42533 0.84672 0.91155 0.0
H899 H 0.40103 0.8669 0.92235 0.0
C900 C 0.32744 0.76392 0.90408 0.0
N901 N 0.32607 0.78831 0.90844 0.0
N902 N 0.34479 0.79958 0.89786 0.0
C903 C 0.35967 0.78229 0.88762 0.0
C904 C 0.34903 0.75906 0.89121 0.0
C905 C 0.30793 0.74563 0.91134 0.0
H906 H 0.28938 0.75432 0.91044 0.0
H907 H 0.31135 0.73924 0.93051 0.0
H908 H 0.30828 0.72927 0.89892 0.0
O909 O 0.28613 0.82996 0.91011 0.0
O910 O 0.31434 0.85164 0.88953 0.0
H911 H 0.38291 0.79611 0.8588 0.0
H912 H 0.39633 0.77078 0.87607 0.0
C913 C 0.38483 0.7877 0.87741 0.0
H914 H 0.39444 0.80109 0.88952 0.0
H915 H 0.35347 0.84559 0.84546 0.0
O916 O 0.28204 0.78486 0.94591 0.0
C917 C 0.29189 0.84719 0.89527 0.0
Co918 Co 0.05591 0.43823 0.31405 0.0
Co919 Co 0.0825 0.39537 0.34118 0.0
C920 C 0.08731 0.39959 0.28712 0.0
O921 O 0.07364 0.41883 0.28787 0.0
O922 O 0.09246 0.38762 0.30676 0.0
C923 C 0.02157 0.45645 0.27917 0.0
O924 O 0.02035 0.43314 0.27241 0.0
C925 C 0.10484 0.34925 0.35939 0.0
C926 C 0.08851 0.34701 0.39674 0.0
C927 C 0.10288 0.33397 0.37997 0.0
N928 N 0.09162 0.36984 0.36358 0.0
N929 N 0.08236 0.36863 0.38616 0.0
C930 C 0.12044 0.34558 0.33689 0.0
H931 H 0.12816 0.36365 0.33107 0.0
H932 H 0.10879 0.33822 0.32168 0.0
H933 H 0.13594 0.33264 0.34052 0.0
C934 C 0.01219 0.41684 0.33759 0.0
N935 N 0.03675 0.41797 0.33405 0.0
N936 N 0.04722 0.39796 0.34285 0.0
C937 C 0.02928 0.38242 0.35064 0.0
C938 C 0.0065 0.39412 0.34791 0.0
C939 C 0.99456 0.43734 0.33159 0.0
H940 H 0.00397 0.4555 0.33311 0.0
H941 H 0.98763 0.43503 0.31244 0.0
H942 H 0.97845 0.43695 0.34431 0.0
O943 O 0.07976 0.45655 0.33348 0.0
O944 O 0.10097 0.42635 0.35143 0.0
H945 H 0.03608 0.35309 0.37632 0.0
H946 H 0.01712 0.3444 0.35049 0.0
C947 C 0.03338 0.35558 0.35616 0.0
H948 H 0.05003 0.34871 0.34634 0.0
H949 H 0.071 0.38214 0.39394 0.0
O950 O 0.03523 0.46241 0.29727 0.0
C951 C 0.09737 0.44927 0.34713 0.0
Co952 Co 0.68723 0.30442 0.56519 0.0
Co953 Co 0.64616 0.33298 0.59355 0.0
C954 C 0.64893 0.33528 0.53862 0.0
O955 O 0.66768 0.32101 0.53872 0.0
O956 O 0.63837 0.34154 0.55872 0.0
C957 C 0.70592 0.27064 0.52972 0.0
O958 O 0.68289 0.27027 0.52199 0.0
C959 C 0.59961 0.35638 0.60855 0.0
C960 C 0.59772 0.34634 0.64811 0.0
C961 C 0.5843 0.3572 0.62917 0.0
N962 N 0.62053 0.34454 0.61479 0.0
N963 N 0.61954 0.33911 0.63859 0.0
C964 C 0.59586 0.36885 0.58413 0.0
H965 H 0.6134 0.3777 0.57824 0.0
H966 H 0.59075 0.35485 0.57002 0.0
H967 H 0.58128 0.38324 0.5852 0.0
C968 C 0.66618 0.26199 0.59152 0.0
N969 N 0.66725 0.28635 0.58669 0.0
N970 N 0.64844 0.29765 0.59718 0.0
C971 C 0.63389 0.28032 0.60786 0.0
C972 C 0.645 0.25737 0.60499 0.0
C973 C 0.68387 0.24318 0.58156 0.0
H974 H 0.67882 0.23881 0.56218 0.0
H975 H 0.68318 0.22576 0.59236 0.0
H976 H 0.70298 0.25058 0.58196 0.0
O977 O 0.70626 0.32918 0.58314 0.0
O978 O 0.67751 0.35117 0.60255 0.0
H979 H 0.61102 0.28993 0.63855 0.0
H980 H 0.59707 0.26831 0.61773 0.0
C981 C 0.60889 0.28505 0.61875 0.0
H982 H 0.59961 0.30045 0.60892 0.0
H983 H 0.63342 0.3297 0.64812 0.0
O984 O 0.71135 0.28322 0.54876 0.0
C985 C 0.70007 0.34711 0.59695 0.0
Co986 Co 0.55579 0.05451 0.68 0.0
Co987 Co 0.58506 0.0952 0.65195 0.0
C988 C 0.58826 0.09124 0.7067 0.0
O989 O 0.57322 0.07312 0.70662 0.0
O990 O 0.59473 0.10169 0.68664 0.0
C991 C 0.52137 0.03701 0.71528 0.0
O992 O 0.52143 0.06019 0.72256 0.0
C993 C 0.6041 0.14397 0.63867 0.0
C994 C 0.60829 0.14083 0.59812 0.0
C995 C 0.61111 0.15701 0.61778 0.0
N996 N 0.5976 0.12102 0.63171 0.0
N997 N 0.60025 0.1192 0.60748 0.0
C998 C 0.60124 0.15376 0.66442 0.0
H999 H 0.61713 0.14749 0.67579 0.0
H1000 H 0.58409 0.14636 0.67289 0.0
H1001 H 0.60055 0.17427 0.66463 0.0
C1002 C 0.51372 0.07734 0.65473 0.0
N1003 N 0.53808 0.07542 0.65911 0.0
N1004 N 0.54977 0.09393 0.6486 0.0
C1005 C 0.53286 0.10906 0.63813 0.0
C1006 C 0.50941 0.09893 0.64166 0.0
C1007 C 0.4949 0.05863 0.66264 0.0
H1008 H 0.50289 0.03977 0.66175 0.0
H1009 H 0.48918 0.06249 0.68195 0.0
H1010 H 0.47826 0.05943 0.65065 0.0
O1011 O 0.57979 0.03513 0.66138 0.0
O1012 O 0.6021 0.06357 0.64188 0.0
H1013 H 0.54757 0.13181 0.60938 0.0
H1014 H 0.52209 0.14575 0.62601 0.0
C1015 C 0.53882 0.13404 0.62781 0.0
H1016 H 0.55213 0.14358 0.64008 0.0
H1017 H 0.59614 0.10333 0.5973 0.0
O1018 O 0.53399 0.03093 0.69646 0.0
C1019 C 0.59758 0.04105 0.64726 0.0
Co1020 Co 0.30645 0.1878 0.56184 0.0
Co1021 Co 0.34877 0.16088 0.58973 0.0
C1022 C 0.34467 0.15612 0.53526 0.0
O1023 O 0.32576 0.17024 0.53555 0.0
O1024 O 0.35615 0.15082 0.55515 0.0
C1025 C 0.28759 0.22206 0.5268 0.0
O1026 O 0.31053 0.22268 0.51878 0.0
C1027 C 0.39524 0.13812 0.60632 0.0
C1028 C 0.39864 0.15332 0.64407 0.0
C1029 C 0.4112 0.13965 0.62639 0.0
N1030 N 0.37479 0.15122 0.61151 0.0
N1031 N 0.37669 0.15978 0.63432 0.0
C1032 C 0.39775 0.12225 0.58384 0.0
H1033 H 0.37966 0.11342 0.57992 0.0
H1034 H 0.40284 0.13393 0.56777 0.0
H1035 H 0.41185 0.10757 0.58648 0.0
C1036 C 0.32728 0.23128 0.58641 0.0
N1037 N 0.32655 0.20679 0.58228 0.0
N1038 N 0.34627 0.19628 0.59171 0.0
C1039 C 0.36126 0.21423 0.60061 0.0
C1040 C 0.34944 0.23698 0.59792 0.0
C1041 C 0.30691 0.24883 0.57982 0.0
H1042 H 0.28873 0.23943 0.58114 0.0
H1043 H 0.30957 0.25543 0.56059 0.0
H1044 H 0.30701 0.26513 0.59231 0.0
O1045 O 0.28793 0.16375 0.58097 0.0
O1046 O 0.31757 0.14264 0.60001 0.0
H1047 H 0.38943 0.20732 0.62753 0.0
H1048 H 0.39907 0.22686 0.60251 0.0
C1049 C 0.38785 0.21035 0.60732 0.0
H1050 H 0.39541 0.19401 0.5975 0.0
H1051 H 0.36338 0.17081 0.64289 0.0
O1052 O 0.28222 0.20865 0.54527 0.0
C1053 C 0.29476 0.14629 0.59505 0.0
Co1054 Co 0.43703 0.44117 0.67691 0.0
Co1055 Co 0.40918 0.39866 0.65015 0.0
C1056 C 0.40597 0.40304 0.70439 0.0
O1057 O 0.41993 0.42202 0.70351 0.0
O1058 O 0.39993 0.39144 0.6848 0.0
C1059 C 0.47155 0.4588 0.71183 0.0
O1060 O 0.47191 0.43552 0.71876 0.0
C1061 C 0.38645 0.35188 0.63432 0.0
C1062 C 0.39901 0.34973 0.59548 0.0
C1063 C 0.38677 0.33652 0.6137 0.0
N1064 N 0.39877 0.37272 0.62873 0.0
N1065 N 0.40583 0.37151 0.60537 0.0
C1066 C 0.37309 0.34802 0.65825 0.0
H1067 H 0.36427 0.36559 0.66414 0.0
H1068 H 0.38656 0.34259 0.67275 0.0
H1069 H 0.35863 0.33356 0.65651 0.0
C1070 C 0.47986 0.41929 0.65231 0.0
N1071 N 0.4554 0.42066 0.65635 0.0
N1072 N 0.44449 0.4009 0.64744 0.0
C1073 C 0.4621 0.38531 0.63896 0.0
C1074 C 0.48512 0.39666 0.6415 0.0
C1075 C 0.49783 0.43944 0.65852 0.0
H1076 H 0.48875 0.45776 0.65698 0.0
H1077 H 0.50448 0.437 0.67775 0.0
H1078 H 0.51405 0.43882 0.64596 0.0
O1079 O 0.41274 0.45969 0.65812 0.0
O1080 O 0.39095 0.42986 0.64016 0.0
H1081 H 0.45359 0.35702 0.61267 0.0
H1082 H 0.47384 0.34717 0.63712 0.0
C1083 C 0.45745 0.35873 0.63273 0.0
H1084 H 0.44128 0.35167 0.64318 0.0
H1085 H 0.41609 0.3852 0.59645 0.0
O1086 O 0.45834 0.46508 0.6935 0.0
C1087 C 0.39484 0.45272 0.64465 0.0
Co1088 Co 0.92615 0.68964 0.68895 0.0
Co1089 Co 0.89793 0.6488 0.66009 0.0
C1090 C 0.95258 0.65258 0.65638 0.0
O1091 O 0.95244 0.67093 0.67116 0.0
O1092 O 0.93259 0.64172 0.65029 0.0
C1093 C 0.96173 0.70701 0.7231 0.0
O1094 O 0.96925 0.6839 0.72266 0.0
C1095 C 0.88255 0.60262 0.63638 0.0
C1096 C 0.84334 0.60041 0.64774 0.0
C1097 C 0.86198 0.58724 0.63608 0.0
N1098 N 0.87657 0.62337 0.64864 0.0
N1099 N 0.85297 0.6222 0.65489 0.0
C1100 C 0.90672 0.59899 0.62338 0.0
H1101 H 0.91247 0.61659 0.61454 0.0
H1102 H 0.92111 0.5938 0.63705 0.0
H1103 H 0.90537 0.58449 0.60892 0.0
C1104 C 0.90171 0.66668 0.73149 0.0
N1105 N 0.90552 0.66882 0.70702 0.0
N1106 N 0.89511 0.65012 0.69548 0.0
C1107 C 0.88542 0.63471 0.71265 0.0
C1108 C 0.88903 0.64501 0.73584 0.0
C1109 C 0.9112 0.68423 0.75067 0.0
H1110 H 0.91069 0.70346 0.7436 0.0
H1111 H 0.93052 0.67926 0.75539 0.0
H1112 H 0.89997 0.68303 0.76782 0.0
O1113 O 0.90736 0.70902 0.66511 0.0
O1114 O 0.88814 0.68032 0.6429 0.0
H1115 H 0.8558 0.61029 0.70351 0.0
H1116 H 0.87831 0.59709 0.72393 0.0
C1117 C 0.87586 0.60924 0.70757 0.0
H1118 H 0.88561 0.601 0.69152 0.0
H1119 H 0.84373 0.63587 0.66489 0.0
O1120 O 0.94292 0.71315 0.71053 0.0
C1121 C 0.89338 0.70289 0.64727 0.0
Co1122 Co 0.93506 0.81401 0.55413 0.0
Co1123 Co 0.89586 0.84371 0.584 0.0
C1124 C 0.89791 0.78827 0.5859 0.0
O1125 O 0.91576 0.78752 0.57057 0.0
O1126 O 0.88871 0.8088 0.59279 0.0
C1127 C 0.95439 0.77857 0.52017 0.0
O1128 O 0.93192 0.76932 0.52088 0.0
C1129 C 0.84588 0.85627 0.59895 0.0
C1130 C 0.84961 0.89486 0.61181 0.0
C1131 C 0.83257 0.87601 0.60834 0.0
N1132 N 0.86966 0.86311 0.59688 0.0
N1133 N 0.87184 0.88618 0.60467 0.0
C1134 C 0.83599 0.83188 0.59034 0.0
H1135 H 0.84692 0.82503 0.57438 0.0
H1136 H 0.81624 0.8334 0.58497 0.0
H1137 H 0.83764 0.81823 0.60558 0.0
C1138 C 0.91233 0.84006 0.51241 0.0
N1139 N 0.91469 0.8358 0.53675 0.0
N1140 N 0.89762 0.84818 0.54889 0.0
C1141 C 0.88351 0.86049 0.53231 0.0
C1142 C 0.89243 0.85561 0.50876 0.0
C1143 C 0.92782 0.82829 0.49272 0.0
H1144 H 0.94757 0.82873 0.49817 0.0
H1145 H 0.92202 0.80877 0.49036 0.0
H1146 H 0.92561 0.83794 0.47474 0.0
O1147 O 0.95457 0.83169 0.57906 0.0
O1148 O 0.92734 0.85285 0.60142 0.0
H1149 H 0.86512 0.88849 0.55339 0.0
H1150 H 0.85367 0.88507 0.52214 0.0
C1151 C 0.86083 0.87502 0.53855 0.0
H1152 H 0.84629 0.8623 0.54538 0.0
H1153 H 0.88841 0.89604 0.60485 0.0
O1154 O 0.95912 0.79807 0.53232 0.0
C1155 C 0.94949 0.84616 0.59687 0.0
Co1156 Co 0.06337 0.8042 0.68818 0.0
Co1157 Co 0.09098 0.84622 0.66056 0.0
C1158 C 0.03684 0.84223 0.65621 0.0
O1159 O 0.03728 0.82331 0.67027 0.0
O1160 O 0.05663 0.85366 0.65053 0.0
C1161 C 0.02789 0.78675 0.72224 0.0
O1162 O 0.02123 0.81011 0.72279 0.0
C1163 C 0.10838 0.89271 0.63807 0.0
C1164 C 0.14655 0.89411 0.65251 0.0
C1165 C 0.12929 0.90771 0.6393 0.0
N1166 N 0.11301 0.87175 0.65062 0.0
N1167 N 0.13602 0.8725 0.65873 0.0
C1168 C 0.08488 0.89725 0.62418 0.0
H1169 H 0.07755 0.87955 0.61688 0.0
H1170 H 0.07091 0.90526 0.63692 0.0
H1171 H 0.08792 0.91007 0.60846 0.0
C1172 C 0.0869 0.8265 0.73141 0.0
N1173 N 0.08343 0.82483 0.70689 0.0
N1174 N 0.09278 0.84436 0.69593 0.0
C1175 C 0.10105 0.86007 0.71353 0.0
C1176 C 0.09788 0.84903 0.73657 0.0
C1177 C 0.08009 0.80674 0.74957 0.0
H1178 H 0.08143 0.78825 0.74079 0.0
H1179 H 0.06083 0.80967 0.75596 0.0
H1180 H 0.09245 0.80739 0.76595 0.0
O1181 O 0.08286 0.78536 0.6647 0.0
O1182 O 0.10137 0.81482 0.6429 0.0
H1183 H 0.12791 0.888 0.7056 0.0
H1184 H 0.10299 0.89827 0.72501 0.0
C1185 C 0.10772 0.88654 0.70883 0.0
H1186 H 0.09781 0.89358 0.69233 0.0
H1187 H 0.14417 0.85868 0.66944 0.0
O1188 O 0.04634 0.78044 0.70921 0.0
C1189 C 0.09689 0.79204 0.64713 0.0
Co1190 Co 0.05647 0.68121 0.55407 0.0
Co1191 Co 0.09414 0.6507 0.58486 0.0
C1192 C 0.09354 0.70625 0.58659 0.0
O1193 O 0.07598 0.7074 0.57094 0.0
O1194 O 0.10221 0.68547 0.59342 0.0
C1195 C 0.03845 0.71729 0.52011 0.0
O1196 O 0.06107 0.72608 0.52137 0.0
C1197 C 0.14316 0.63672 0.60146 0.0
C1198 C 0.13738 0.59918 0.61651 0.0
C1199 C 0.15522 0.6172 0.61279 0.0
N1200 N 0.11924 0.63066 0.59884 0.0
N1201 N 0.11583 0.60821 0.60788 0.0
C1202 C 0.15435 0.66002 0.59154 0.0
H1203 H 0.14443 0.66596 0.57458 0.0
H1204 H 0.17429 0.65743 0.58739 0.0
H1205 H 0.15239 0.67492 0.60549 0.0
C1206 C 0.07907 0.65373 0.51297 0.0
N1207 N 0.07667 0.65873 0.5372 0.0
N1208 N 0.09303 0.64589 0.5498 0.0
C1209 C 0.10672 0.63252 0.5337 0.0
C1210 C 0.09819 0.63708 0.50995 0.0
C1211 C 0.06435 0.66582 0.4929 0.0
H1212 H 0.07034 0.68534 0.49103 0.0
H1213 H 0.06698 0.65637 0.47487 0.0
H1214 H 0.04444 0.66556 0.4978 0.0
O1215 O 0.03576 0.66416 0.57863 0.0
O1216 O 0.06206 0.64263 0.60164 0.0
H1217 H 0.13456 0.6053 0.52468 0.0
H1218 H 0.14357 0.62821 0.54723 0.0
C1219 C 0.12811 0.61645 0.54067 0.0
H1220 H 0.12264 0.60393 0.55595 0.0
H1221 H 0.09885 0.59907 0.60807 0.0
O1222 O 0.03326 0.69754 0.53166 0.0
C1223 C 0.04015 0.64976 0.59666 0.0
Co1224 Co 0.93031 0.30516 0.80271 0.0
Co1225 Co 0.90348 0.34723 0.83128 0.0
C1226 C 0.95831 0.34207 0.83371 0.0
O1227 O 0.95767 0.32351 0.81922 0.0
O1228 O 0.93853 0.35303 0.84021 0.0
C1229 C 0.96492 0.28545 0.76873 0.0
O1230 O 0.97338 0.30823 0.76855 0.0
C1231 C 0.89219 0.39704 0.84908 0.0
C1232 C 0.85163 0.39552 0.85386 0.0
C1233 C 0.8719 0.41102 0.85595 0.0
N1234 N 0.88434 0.37418 0.84329 0.0
N1235 N 0.86008 0.37335 0.84628 0.0
C1236 C 0.91829 0.40577 0.84605 0.0
H1237 H 0.92624 0.39815 0.82874 0.0
H1238 H 0.91933 0.42627 0.84556 0.0
H1239 H 0.92953 0.39891 0.86178 0.0
C1240 C 0.90593 0.32807 0.7603 0.0
N1241 N 0.90993 0.32628 0.78473 0.0
N1242 N 0.89979 0.34523 0.7961 0.0
C1243 C 0.88985 0.36038 0.7789 0.0
C1244 C 0.89368 0.35003 0.75565 0.0
C1245 C 0.91333 0.30886 0.74177 0.0
H1246 H 0.91074 0.29012 0.74968 0.0
H1247 H 0.93311 0.31119 0.73697 0.0
H1248 H 0.90223 0.31056 0.72458 0.0
O1249 O 0.91134 0.28695 0.82733 0.0
O1250 O 0.89253 0.31626 0.8491 0.0
H1251 H 0.86191 0.38308 0.79516 0.0
H1252 H 0.87523 0.3959 0.76733 0.0
C1253 C 0.87925 0.38534 0.78444 0.0
H1254 H 0.89247 0.39599 0.79591 0.0
H1255 H 0.84928 0.35775 0.84275 0.0
O1256 O 0.94577 0.28048 0.78134 0.0
C1257 C 0.89736 0.29351 0.84502 0.0
Co1258 Co 0.55505 0.81485 0.43853 0.0
Co1259 Co 0.59578 0.84164 0.40828 0.0
C1260 C 0.59122 0.78672 0.40672 0.0
O1261 O 0.57308 0.78763 0.42167 0.0
O1262 O 0.60201 0.80641 0.39965 0.0
C1263 C 0.53861 0.78017 0.4736 0.0
O1264 O 0.56193 0.77336 0.47297 0.0
C1265 C 0.64565 0.85405 0.39205 0.0
C1266 C 0.6419 0.89344 0.38187 0.0
C1267 C 0.65886 0.87432 0.38372 0.0
N1268 N 0.62197 0.8609 0.39515 0.0
N1269 N 0.61978 0.88441 0.38888 0.0
C1270 C 0.6556 0.82916 0.39892 0.0
H1271 H 0.65289 0.81629 0.38316 0.0
H1272 H 0.64542 0.82171 0.4151 0.0
H1273 H 0.67564 0.83013 0.40328 0.0
C1274 C 0.57825 0.84152 0.47977 0.0
N1275 N 0.5764 0.83591 0.45563 0.0
N1276 N 0.59454 0.84652 0.44339 0.0
C1277 C 0.60907 0.85864 0.45974 0.0
C1278 C 0.59904 0.85589 0.48319 0.0
C1279 C 0.56115 0.83234 0.49951 0.0
H1280 H 0.54184 0.83231 0.49266 0.0
H1281 H 0.56644 0.81321 0.50463 0.0
H1282 H 0.5623 0.84402 0.51635 0.0
O1283 O 0.53563 0.83342 0.4142 0.0
O1284 O 0.56426 0.85195 0.3913 0.0
H1285 H 0.62869 0.88627 0.4394 0.0
H1286 H 0.64098 0.88051 0.46993 0.0
C1287 C 0.63254 0.87179 0.45337 0.0
H1288 H 0.64584 0.85845 0.44529 0.0
H1289 H 0.60331 0.8944 0.38987 0.0
O1290 O 0.53179 0.79872 0.46095 0.0
C1291 C 0.54165 0.84714 0.39609 0.0
Co1292 Co 0.06504 0.18594 0.80587 0.0
Co1293 Co 0.09473 0.14582 0.83458 0.0
C1294 C 0.04009 0.1497 0.8401 0.0
O1295 O 0.03929 0.16744 0.82463 0.0
O1296 O 0.06041 0.13916 0.84559 0.0
C1297 C 0.02854 0.20335 0.7725 0.0
O1298 O 0.02078 0.18035 0.77336 0.0
C1299 C 0.11046 0.09959 0.85776 0.0
C1300 C 0.14978 0.09778 0.84672 0.0
C1301 C 0.13108 0.08432 0.85794 0.0
N1302 N 0.11641 0.12057 0.84591 0.0
N1303 N 0.14008 0.11965 0.83989 0.0
C1304 C 0.08633 0.09568 0.87072 0.0
H1305 H 0.08101 0.11297 0.88034 0.0
H1306 H 0.07177 0.09129 0.85694 0.0
H1307 H 0.08754 0.08063 0.8846 0.0
C1308 C 0.08958 0.16316 0.76314 0.0
N1309 N 0.0856 0.16512 0.78761 0.0
N1310 N 0.09666 0.1468 0.79915 0.0
C1311 C 0.10693 0.13177 0.78198 0.0
C1312 C 0.10314 0.14202 0.75882 0.0
C1313 C 0.07929 0.18027 0.74399 0.0
H1314 H 0.07982 0.19961 0.75079 0.0
H1315 H 0.05983 0.17508 0.74011 0.0
H1316 H 0.08988 0.17895 0.72646 0.0
O1317 O 0.08409 0.2056 0.82936 0.0
O1318 O 0.10461 0.17748 0.85117 0.0
H1319 H 0.13794 0.10922 0.79129 0.0
H1320 H 0.11649 0.09469 0.77066 0.0
C1321 C 0.11801 0.10694 0.78707 0.0
H1322 H 0.10863 0.09806 0.80297 0.0
H1323 H 0.14933 0.13354 0.83021 0.0
O1324 O 0.04785 0.20932 0.78441 0.0
C1325 C 0.09868 0.19987 0.84683 0.0
Co1326 Co 0.44179 0.6762 0.44102 0.0
Co1327 Co 0.39551 0.65458 0.4152 0.0
C1328 C 0.40549 0.7066 0.40911 0.0
O1329 O 0.42522 0.70281 0.4215 0.0
O1330 O 0.3898 0.68938 0.40568 0.0
C1331 C 0.46052 0.71155 0.47374 0.0
O1332 O 0.43712 0.71811 0.47422 0.0
C1333 C 0.34835 0.63828 0.39261 0.0
C1334 C 0.34555 0.60073 0.40843 0.0
C1335 C 0.33287 0.61769 0.39398 0.0
N1336 N 0.36876 0.63366 0.40605 0.0
N1337 N 0.36711 0.61105 0.4151 0.0
C1338 C 0.34477 0.66139 0.37783 0.0
H1339 H 0.36293 0.66885 0.37188 0.0
H1340 H 0.33552 0.67551 0.38951 0.0
H1341 H 0.33327 0.65779 0.36123 0.0
C1342 C 0.41841 0.65608 0.48519 0.0
N1343 N 0.41948 0.65926 0.4606 0.0
N1344 N 0.39854 0.65238 0.45046 0.0
C1345 C 0.38275 0.6459 0.46871 0.0
C1346 C 0.3949 0.64802 0.49127 0.0
C1347 C 0.43992 0.65959 0.5023 0.0
H1348 H 0.45745 0.6552 0.49258 0.0
H1349 H 0.44073 0.67909 0.50851 0.0
H1350 H 0.43803 0.64763 0.51888 0.0
O1351 O 0.45835 0.65436 0.41818 0.0
O1352 O 0.42579 0.64333 0.39574 0.0
H1353 H 0.35288 0.6206 0.46342 0.0
H1354 H 0.34492 0.64746 0.48121 0.0
C1355 C 0.35577 0.64084 0.46509 0.0
H1356 H 0.34894 0.65004 0.44809 0.0
H1357 H 0.38043 0.60293 0.42645 0.0
O1358 O 0.46672 0.69263 0.4613 0.0
C1359 C 0.44914 0.64379 0.39938 0.0
Co1360 Co 0.6883 0.92665 0.68651 0.0
Co1361 Co 0.65736 0.89858 0.64701 0.0
C1362 C 0.6568 0.95396 0.65014 0.0
O1363 O 0.67226 0.9539 0.66788 0.0
O1364 O 0.64933 0.93382 0.64053 0.0
C1365 C 0.72315 0.96095 0.706 0.0
O1366 O 0.72274 0.97017 0.68352 0.0
C1367 C 0.64054 0.88707 0.59729 0.0
C1368 C 0.62893 0.84801 0.60047 0.0
C1369 C 0.63108 0.86743 0.58391 0.0
N1370 N 0.64374 0.87969 0.62078 0.0
N1371 N 0.63667 0.85636 0.62264 0.0
C1372 C 0.64836 0.9118 0.58762 0.0
H1373 H 0.6655 0.91796 0.59708 0.0
H1374 H 0.65152 0.91119 0.56735 0.0
H1375 H 0.63365 0.92553 0.59164 0.0
C1376 C 0.72918 0.89993 0.66297 0.0
N1377 N 0.70497 0.90482 0.66561 0.0
N1378 N 0.6924 0.8933 0.64825 0.0
C1379 C 0.70856 0.88109 0.63358 0.0
C1380 C 0.73228 0.88493 0.64256 0.0
C1381 C 0.74929 0.9109 0.67848 0.0
H1382 H 0.74393 0.91042 0.69826 0.0
H1383 H 0.75223 0.9304 0.67288 0.0
H1384 H 0.76695 0.90072 0.67605 0.0
O1385 O 0.66326 0.90921 0.70597 0.0
O1386 O 0.64008 0.88926 0.67855 0.0
H1387 H 0.68734 0.85374 0.61446 0.0
H1388 H 0.71811 0.85828 0.60215 0.0
C1389 C 0.7018 0.86768 0.61037 0.0
H1390 H 0.69422 0.881 0.59678 0.0
H1391 H 0.63751 0.84606 0.63892 0.0
O1392 O 0.71059 0.9417 0.71065 0.0
C1393 C 0.64504 0.89531 0.7008 0.0
Co1394 Co 0.68983 0.06072 0.80725 0.0
Co1395 Co 0.66238 0.09215 0.84696 0.0
C1396 C 0.65685 0.03718 0.84563 0.0
O1397 O 0.67162 0.03584 0.82731 0.0
O1398 O 0.65157 0.05793 0.85552 0.0
C1399 C 0.72214 0.02317 0.78937 0.0
O1400 O 0.72161 0.01528 0.81234 0.0
C1401 C 0.63984 0.11022 0.89275 0.0
C1402 C 0.6527 0.14898 0.89369 0.0
C1403 C 0.64064 0.13115 0.90759 0.0
N1404 N 0.65199 0.11508 0.87166 0.0
N1405 N 0.65907 0.13847 0.87203 0.0
C1406 C 0.62516 0.08718 0.89681 0.0
H1407 H 0.61545 0.08247 0.8794 0.0
H1408 H 0.63778 0.07171 0.90157 0.0
H1409 H 0.61117 0.08958 0.91163 0.0
C1410 C 0.73341 0.08524 0.82818 0.0
N1411 N 0.70883 0.08169 0.82691 0.0
N1412 N 0.69787 0.09373 0.84499 0.0
C1413 C 0.71558 0.10439 0.85913 0.0
C1414 C 0.73841 0.09965 0.84858 0.0
C1415 C 0.75196 0.07424 0.81084 0.0
H1416 H 0.74478 0.07466 0.79165 0.0
H1417 H 0.75543 0.05476 0.8162 0.0
H1418 H 0.76977 0.08442 0.81166 0.0
O1419 O 0.66615 0.07941 0.78746 0.0
O1420 O 0.64509 0.10112 0.81525 0.0
H1421 H 0.70802 0.13652 0.8808 0.0
H1422 H 0.72797 0.11466 0.89562 0.0
C1423 C 0.71139 0.1165 0.88366 0.0
H1424 H 0.69531 0.10808 0.89317 0.0
H1425 H 0.6691 0.14696 0.85791 0.0
O1426 O 0.71052 0.04274 0.78374 0.0
C1427 C 0.64899 0.09444 0.79297 0.0
Co1428 Co 0.31108 0.05569 0.43628 0.0
Co1429 Co 0.33968 0.08215 0.39424 0.0
C1430 C 0.28531 0.08709 0.39723 0.0
O1431 O 0.28525 0.07309 0.41623 0.0
O1432 O 0.30541 0.09242 0.3861 0.0
C1433 C 0.27665 0.02053 0.45526 0.0
O1434 O 0.26874 0.0191 0.43233 0.0
C1435 C 0.35859 0.10507 0.34862 0.0
C1436 C 0.39568 0.08817 0.34626 0.0
C1437 C 0.3793 0.10317 0.33345 0.0
N1438 N 0.36237 0.09122 0.36888 0.0
N1439 N 0.3848 0.08164 0.36762 0.0
C1440 C 0.33648 0.12128 0.34531 0.0
H1441 H 0.33058 0.1284 0.36361 0.0
H1442 H 0.32111 0.11028 0.33731 0.0
H1443 H 0.34063 0.13721 0.33308 0.0
C1444 C 0.3359 0.01206 0.41628 0.0
N1445 N 0.33185 0.03655 0.41678 0.0
N1446 N 0.34111 0.04681 0.39687 0.0
C1447 C 0.34957 0.02869 0.38186 0.0
C1448 C 0.34694 0.00606 0.39394 0.0
C1449 C 0.33001 0.99486 0.43717 0.0
H1450 H 0.33125 0.00477 0.45509 0.0
H1451 H 0.31097 0.98761 0.43492 0.0
H1452 H 0.34297 0.97895 0.43732 0.0
O1453 O 0.33 0.07969 0.45485 0.0
O1454 O 0.34988 0.10039 0.42549 0.0
H1455 H 0.37575 0.03514 0.35285 0.0
H1456 H 0.35012 0.01597 0.34404 0.0
C1457 C 0.35557 0.03241 0.35507 0.0
H1458 H 0.34585 0.04894 0.34779 0.0
H1459 H 0.39231 0.0699 0.38095 0.0
O1460 O 0.29441 0.03493 0.46047 0.0
C1461 C 0.34453 0.09683 0.4482 0.0
Co1462 Co 0.30564 0.4307 0.80888 0.0
Co1463 Co 0.33655 0.40094 0.84703 0.0
C1464 C 0.33778 0.45656 0.84555 0.0
O1465 O 0.32201 0.45748 0.8281 0.0
O1466 O 0.3448 0.4359 0.85431 0.0
C1467 C 0.27074 0.46547 0.79006 0.0
O1468 O 0.27145 0.47457 0.81258 0.0
C1469 C 0.35184 0.38876 0.89685 0.0
C1470 C 0.36747 0.35122 0.89288 0.0
C1471 C 0.36276 0.36973 0.90999 0.0
N1472 N 0.35033 0.38194 0.87303 0.0
N1473 N 0.35976 0.35951 0.87069 0.0
C1474 C 0.34111 0.41222 0.90693 0.0
H1475 H 0.32455 0.41765 0.89609 0.0
H1476 H 0.33609 0.41013 0.92672 0.0
H1477 H 0.35497 0.42724 0.9052 0.0
C1478 C 0.26472 0.40289 0.8314 0.0
N1479 N 0.2889 0.40822 0.82915 0.0
N1480 N 0.30155 0.39577 0.84578 0.0
C1481 C 0.28551 0.38244 0.85956 0.0
C1482 C 0.26176 0.38652 0.85076 0.0
C1483 C 0.24459 0.41478 0.81659 0.0
H1484 H 0.24958 0.41459 0.79671 0.0
H1485 H 0.24243 0.43425 0.82263 0.0
H1486 H 0.22664 0.40518 0.81908 0.0
O1487 O 0.33056 0.41362 0.78873 0.0
O1488 O 0.35361 0.39226 0.81519 0.0
H1489 H 0.30817 0.35469 0.8764 0.0
H1490 H 0.27663 0.3554 0.88761 0.0
C1491 C 0.29246 0.36689 0.88133 0.0
H1492 H 0.2983 0.37905 0.89677 0.0
H1493 H 0.3607 0.34982 0.85405 0.0
O1494 O 0.28319 0.44619 0.78517 0.0
C1495 C 0.34859 0.39924 0.79324 0.0
Co1496 Co 0.17849 0.93552 0.93874 0.0
Co1497 Co 0.14954 0.90876 0.89693 0.0
C1498 C 0.20402 0.90461 0.89918 0.0
O1499 O 0.20427 0.91853 0.91825 0.0
O1500 O 0.18381 0.89909 0.8884 0.0
C1501 C 0.21368 0.97002 0.95726 0.0
O1502 O 0.22111 0.9711 0.93415 0.0
C1503 C 0.13176 0.88665 0.85083 0.0
C1504 C 0.09377 0.90151 0.84858 0.0
C1505 C 0.1113 0.88821 0.83547 0.0
N1506 N 0.12696 0.89935 0.8716 0.0
N1507 N 0.10403 0.90776 0.87038 0.0
C1508 C 0.15454 0.87146 0.84718 0.0
H1509 H 0.15892 0.86184 0.86474 0.0
H1510 H 0.17027 0.88375 0.84245 0.0
H1511 H 0.15203 0.85747 0.83238 0.0
C1512 C 0.15375 0.97899 0.91839 0.0
N1513 N 0.15733 0.95445 0.91939 0.0
N1514 N 0.14775 0.94397 0.89972 0.0
C1515 C 0.13946 0.96189 0.88445 0.0
C1516 C 0.14266 0.9847 0.89602 0.0
C1517 C 0.16064 0.99662 0.93861 0.0
H1518 H 0.15934 0.98734 0.95686 0.0
H1519 H 0.1799 0.00305 0.93584 0.0
H1520 H 0.14829 0.01302 0.93845 0.0
O1521 O 0.16015 0.91103 0.95737 0.0
O1522 O 0.14029 0.89019 0.92807 0.0
H1523 H 0.11302 0.95472 0.85589 0.0
H1524 H 0.13833 0.97404 0.84642 0.0
C1525 C 0.13321 0.95773 0.85777 0.0
H1526 H 0.14306 0.94123 0.8506 0.0
H1527 H 0.09575 0.91861 0.88402 0.0
O1528 O 0.19546 0.95633 0.96283 0.0
C1529 C 0.14593 0.89361 0.95072 0.0
Co1530 Co 0.80416 0.06334 0.18539 0.0
Co1531 Co 0.83455 0.0946 0.14784 0.0
C1532 C 0.83831 0.03912 0.14956 0.0
O1533 O 0.82215 0.03744 0.16659 0.0
O1534 O 0.84466 0.06006 0.14097 0.0
C1535 C 0.7713 0.02644 0.20387 0.0
O1536 O 0.77327 0.01719 0.18149 0.0
C1537 C 0.84982 0.10707 0.09809 0.0
C1538 C 0.86358 0.14535 0.10183 0.0
C1539 C 0.85987 0.12651 0.08484 0.0
N1540 N 0.84783 0.114 0.12185 0.0
N1541 N 0.85618 0.13687 0.12405 0.0
C1542 C 0.84027 0.08304 0.08818 0.0
H1543 H 0.82373 0.07711 0.09879 0.0
H1544 H 0.83555 0.0846 0.06826 0.0
H1545 H 0.8547 0.06863 0.09044 0.0
C1546 C 0.76254 0.08912 0.16193 0.0
N1547 N 0.78687 0.08484 0.16461 0.0
N1548 N 0.79932 0.09803 0.14839 0.0
C1549 C 0.78302 0.1109 0.13451 0.0
C1550 C 0.7593 0.10568 0.14276 0.0
C1551 C 0.7427 0.0762 0.17627 0.0
H1552 H 0.74696 0.07711 0.1963 0.0
H1553 H 0.74213 0.05649 0.17065 0.0
H1554 H 0.72423 0.08448 0.17293 0.0
O1555 O 0.82777 0.08188 0.20585 0.0
O1556 O 0.85039 0.10438 0.17993 0.0
H1557 H 0.77362 0.13827 0.10695 0.0
H1558 H 0.79664 0.11595 0.09779 0.0
C1559 C 0.78979 0.12738 0.11336 0.0
H1560 H 0.80476 0.14017 0.11907 0.0
H1561 H 0.85651 0.14674 0.14061 0.0
O1562 O 0.78205 0.04671 0.20878 0.0
C1563 C 0.84507 0.09727 0.20178 0.0
Co1564 Co 0.31086 0.94174 0.05864 0.0
Co1565 Co 0.3413 0.91094 0.09618 0.0
C1566 C 0.28575 0.90831 0.09471 0.0
O1567 O 0.28456 0.92425 0.07742 0.0
O1568 O 0.30654 0.9017 0.10353 0.0
C1569 C 0.27514 0.97599 0.04047 0.0
O1570 O 0.2661 0.97484 0.063 0.0
C1571 C 0.35474 0.89477 0.14538 0.0
C1572 C 0.39239 0.87976 0.14014 0.0
C1573 C 0.3742 0.88369 0.15776 0.0
N1574 N 0.36103 0.89707 0.12149 0.0
N1575 N 0.38353 0.88803 0.1184 0.0
C1576 C 0.33133 0.90485 0.15619 0.0
H1577 H 0.32544 0.92161 0.14592 0.0
H1578 H 0.33373 0.90935 0.17608 0.0
H1579 H 0.31646 0.89084 0.15433 0.0
C1580 C 0.33765 0.98293 0.08182 0.0
N1581 N 0.33276 0.9587 0.07931 0.0
N1582 N 0.34567 0.94606 0.09559 0.0
C1583 C 0.35899 0.96215 0.10934 0.0
C1584 C 0.35427 0.98591 0.10095 0.0
C1585 C 0.32585 0.00302 0.0669 0.0
H1586 H 0.32628 -0.00195 0.04701 0.0
H1587 H 0.30629 0.00509 0.0727 0.0
H1588 H 0.3354 0.02099 0.06955 0.0
O1589 O 0.32869 0.91779 0.03795 0.0
O1590 O 0.35031 0.89469 0.06411 0.0
H1591 H 0.38781 0.93989 0.12483 0.0
H1592 H 0.38657 0.97113 0.13683 0.0
C1593 C 0.37535 0.95515 0.13049 0.0
H1594 H 0.3638 0.94857 0.1461 0.0
H1595 H 0.39285 0.88768 0.10152 0.0
O1596 O 0.29473 0.96414 0.03541 0.0
C1597 C 0.34347 0.90003 0.04221 0.0
Co1598 Co 0.68429 0.55795 0.059 0.0
Co1599 Co 0.65186 0.58656 0.09713 0.0
C1600 C 0.70699 0.59217 0.09651 0.0
O1601 O 0.70887 0.57668 0.07884 0.0
O1602 O 0.68597 0.59786 0.10559 0.0
C1603 C 0.72192 0.52509 0.0412 0.0
O1604 O 0.73088 0.52651 0.06374 0.0
C1605 C 0.63352 0.60896 0.14293 0.0
C1606 C 0.59433 0.59745 0.14265 0.0
C1607 C 0.61222 0.60859 0.15724 0.0
N1608 N 0.62875 0.5975 0.12143 0.0
N1609 N 0.60514 0.5912 0.12112 0.0
C1610 C 0.65721 0.62221 0.1482 0.0
H1611 H 0.66284 0.63249 0.13141 0.0
H1612 H 0.67188 0.60858 0.15263 0.0
H1613 H 0.65518 0.63558 0.16364 0.0
C1614 C 0.6604 0.51497 0.08148 0.0
N1615 N 0.66324 0.53953 0.07905 0.0
N1616 N 0.65059 0.55101 0.09638 0.0
C1617 C 0.64008 0.53372 0.11113 0.0
C1618 C 0.64581 0.51052 0.10189 0.0
C1619 C 0.6722 0.49594 0.06521 0.0
H1620 H 0.67153 0.50201 0.04565 0.0
H1621 H 0.69178 0.49352 0.07078 0.0
H1622 H 0.66271 0.47781 0.06695 0.0
O1623 O 0.66559 0.58083 0.03837 0.0
O1624 O 0.6428 0.60256 0.06473 0.0
H1625 H 0.6077 0.5428 0.13177 0.0
H1626 H 0.62852 0.52251 0.14767 0.0
C1627 C 0.6275 0.53881 0.13524 0.0
H1628 H 0.63616 0.55488 0.14455 0.0
H1629 H 0.59669 0.58165 0.10664 0.0
O1630 O 0.70215 0.53659 0.03598 0.0
C1631 C 0.65 0.5978 0.04279 0.0
C1632 C 0.11433 0.29197 0.3634 0.0
C1633 C 0.11219 0.30842 0.38355 0.0
C1634 C 0.12323 0.26783 0.36665 0.0
C1635 C 0.1296 0.25916 0.39022 0.0
H1636 H 0.10889 0.29755 0.345 0.0
H1637 H 0.12541 0.256 0.35062 0.0
S1638 S 0.12419 0.29331 0.44943 0.0
N1639 N 0.11564 0.31345 0.42815 0.0
N1640 N 0.13076 0.26763 0.43431 0.0
C1641 C 0.12622 0.27482 0.41065 0.0
C1642 C 0.11778 0.29951 0.40733 0.0
C1643 C 0.52092 0.62858 0.84279 0.0
C1644 C 0.51132 0.6097 0.85778 0.0
C1645 C 0.54545 0.63647 0.8455 0.0
C1646 C 0.561 0.62581 0.8634 0.0
H1647 H 0.50959 0.63677 0.82844 0.0
H1648 H 0.55236 0.65089 0.83343 0.0
S1649 S 0.54461 0.57506 0.9065 0.0
N1650 N 0.51895 0.58031 0.89078 0.0
N1651 N 0.56525 0.59484 0.89572 0.0
C1652 C 0.5515 0.60697 0.87856 0.0
C1653 C 0.52656 0.59898 0.87578 0.0
C1654 C 0.85569 0.22237 0.36495 0.0
C1655 C 0.85901 0.23481 0.38744 0.0
C1656 C 0.8629 0.19761 0.36238 0.0
C1657 C 0.8737 0.18467 0.38223 0.0
H1658 H 0.84662 0.23154 0.34962 0.0
H1659 H 0.85904 0.18832 0.34507 0.0
S1660 S 0.88717 0.20988 0.44459 0.0
N1661 N 0.87422 0.23311 0.42958 0.0
N1662 N 0.88812 0.18661 0.4248 0.0
C1663 C 0.87757 0.19726 0.40464 0.0
C1664 C 0.8702 0.22239 0.40721 0.0
C1665 C 0.44433 0.8832 0.87956 0.0
C1666 C 0.43421 0.86605 0.86281 0.0
C1667 C 0.46881 0.89128 0.87716 0.0
C1668 C 0.48386 0.88236 0.85802 0.0
H1669 H 0.43305 0.89104 0.89414 0.0
H1670 H 0.47582 0.90508 0.88989 0.0
S1671 S 0.46644 0.83732 0.80953 0.0
N1672 N 0.44128 0.84027 0.82662 0.0
N1673 N 0.48734 0.85573 0.82209 0.0
C1674 C 0.47416 0.86509 0.84134 0.0
C1675 C 0.44925 0.8569 0.8437 0.0
C1676 C 0.13674 0.71247 0.08463 0.0
C1677 C 0.1354 0.73022 0.10359 0.0
C1678 C 0.12738 0.68861 0.08802 0.0
C1679 C 0.11623 0.68173 0.11042 0.0
H1680 H 0.14491 0.71706 0.06695 0.0
H1681 H 0.12903 0.6754 0.07303 0.0
S1682 S 0.10564 0.72233 0.16478 0.0
N1683 N 0.12122 0.73974 0.14513 0.0
N1684 N 0.10186 0.69541 0.15086 0.0
C1685 C 0.11378 0.69965 0.12915 0.0
C1686 C 0.12378 0.7238 0.12586 0.0
C1687 C 0.94189 0.61757 0.15643 0.0
C1688 C 0.93506 0.62938 0.13435 0.0
C1689 C 0.96577 0.6082 0.15968 0.0
C1690 C 0.98363 0.60999 0.14086 0.0
H1691 H 0.92861 0.61534 0.17127 0.0
H1692 H 0.97025 0.59957 0.17717 0.0
S1693 S 0.9761 0.64192 0.08072 0.0
N1694 N 0.94915 0.64535 0.09466 0.0
N1695 N 0.99331 0.6255 0.09984 0.0
C1696 C 0.97731 0.62236 0.11895 0.0
C1697 C 0.95318 0.63258 0.11591 0.0
C1698 C 0.89005 0.79667 0.09552 0.0
C1699 C 0.87868 0.81223 0.11297 0.0
C1700 C 0.88232 0.77212 0.09259 0.0
C1701 C 0.86289 0.76257 0.10689 0.0
H1702 H 0.9049 0.80359 0.08398 0.0
H1703 H 0.89105 0.76076 0.07857 0.0
S1704 S 0.82642 0.79591 0.15425 0.0
N1705 N 0.8466 0.81652 0.14421 0.0
N1706 N 0.83223 0.77024 0.13872 0.0
C1707 C 0.85147 0.77781 0.12445 0.0
C1708 C 0.85934 0.80274 0.12749 0.0
C1709 C 0.02925 0.88326 0.15681 0.0
C1710 C 0.01205 0.88497 0.13741 0.0
C1711 C 0.05287 0.87356 0.15292 0.0
C1712 C 0.06014 0.86483 0.12955 0.0
H1713 H 0.0244 0.88934 0.17527 0.0
H1714 H 0.06555 0.87291 0.16842 0.0
S1715 S 0.02084 0.86268 0.07324 0.0
N1716 N 0.00348 0.87664 0.09413 0.0
N1717 N 0.04708 0.85598 0.08733 0.0
C1718 C 0.04273 0.86547 0.11017 0.0
C1719 C 0.01885 0.87609 0.114 0.0
C1720 C 0.36723 0.12638 0.26799 0.0
C1721 C 0.3911 0.13205 0.2596 0.0
C1722 C 0.36348 0.11678 0.29179 0.0
C1723 C 0.38341 0.11326 0.30825 0.0
H1724 H 0.35137 0.12959 0.25618 0.0
H1725 H 0.34484 0.11186 0.29704 0.0
S1726 S 0.44984 0.12304 0.29377 0.0
N1727 N 0.43515 0.13109 0.26827 0.0
N1728 N 0.42811 0.11474 0.31353 0.0
C1729 C 0.40746 0.11821 0.29962 0.0
C1730 C 0.41128 0.12732 0.27522 0.0
C1731 C 0.36842 0.3448 0.97498 0.0
C1732 C 0.38222 0.36322 0.98699 0.0
C1733 C 0.36159 0.34742 0.95015 0.0
C1734 C 0.3683 0.36857 0.93665 0.0
H1735 H 0.36384 0.32781 0.98456 0.0
H1736 H 0.35146 0.33256 0.9413 0.0
S1737 S 0.40517 0.4216 0.95976 0.0
N1738 N 0.40261 0.40301 0.98387 0.0
N1739 N 0.38993 0.40802 0.93702 0.0
C1740 C 0.3817 0.38734 0.94867 0.0
C1741 C 0.38865 0.38463 0.97395 0.0
C1742 C 0.5993 0.38199 0.26802 0.0
C1743 C 0.61432 0.36303 0.25862 0.0
C1744 C 0.6013 0.38943 0.29275 0.0
C1745 C 0.61855 0.37827 0.30863 0.0
H1746 H 0.58517 0.3903 0.25649 0.0
H1747 H 0.58899 0.40368 0.29961 0.0
S1748 S 0.66194 0.32766 0.29266 0.0
N1749 N 0.64684 0.33325 0.26669 0.0
N1750 N 0.65086 0.34734 0.31325 0.0
C1751 C 0.63411 0.35972 0.29921 0.0
C1752 C 0.63192 0.35205 0.27411 0.0
C1753 C 0.62121 0.15725 0.94007 0.0
C1754 C 0.63159 0.13447 0.93318 0.0
C1755 C 0.61215 0.16106 0.96398 0.0
C1756 C 0.6128 0.14213 0.98179 0.0
H1757 H 0.61985 0.1722 0.92681 0.0
H1758 H 0.60453 0.17902 0.9685 0.0
S1759 S 0.64089 0.08013 0.97414 0.0
N1760 N 0.64514 0.09385 0.94721 0.0
N1761 N 0.62571 0.10021 0.99141 0.0
C1762 C 0.62375 0.1195 0.97543 0.0
C1763 C 0.63371 0.11585 0.95128 0.0
C1764 C 0.39755 0.88337 0.19733 0.0
C1765 C 0.37601 0.87723 0.18416 0.0
C1766 C 0.40071 0.87582 0.22188 0.0
C1767 C 0.38244 0.86187 0.23392 0.0
H1768 H 0.41224 0.89371 0.18844 0.0
H1769 H 0.41789 0.88015 0.23124 0.0
S1770 S 0.32329 0.84002 0.20746 0.0
N1771 N 0.33648 0.85572 0.18481 0.0
N1772 N 0.34243 0.84185 0.2312 0.0
C1773 C 0.36071 0.85591 0.22121 0.0
C1774 C 0.35747 0.86353 0.1962 0.0
C1775 C 0.11719 0.34033 0.05068 0.0
C1776 C 0.12793 0.3628 0.05805 0.0
C1777 C 0.10839 0.33701 0.02663 0.0
C1778 C 0.10958 0.35616 0.00909 0.0
H1779 H 0.11547 0.32514 0.06364 0.0
H1780 H 0.10067 0.3192 0.02175 0.0
S1781 S 0.13858 0.41757 0.01797 0.0
N1782 N 0.14223 0.40342 0.04478 0.0
N1783 N 0.12328 0.39798 0.00023 0.0
C1784 C 0.12075 0.37855 0.01594 0.0
C1785 C 0.13046 0.3817 0.04029 0.0
C1786 C 0.58229 0.63663 0.21385 0.0
C1787 C 0.60061 0.63421 0.23216 0.0
C1788 C 0.5863 0.62829 0.18971 0.0
C1789 C 0.60866 0.61691 0.18304 0.0
H1790 H 0.56463 0.64499 0.21818 0.0
H1791 H 0.57184 0.63098 0.1761 0.0
S1792 S 0.66114 0.6029 0.22507 0.0
N1793 N 0.64142 0.6185 0.24239 0.0
N1794 N 0.64802 0.60054 0.1976 0.0
C1795 C 0.62658 0.61303 0.20154 0.0
C1796 C 0.62276 0.62221 0.22597 0.0
C1797 C 0.86461 0.15165 0.01985 0.0
C1798 C 0.87933 0.13392 0.00789 0.0
C1799 C 0.85774 0.14867 0.04463 0.0
C1800 C 0.86532 0.12783 0.05815 0.0
H1801 H 0.85939 0.16848 0.01032 0.0
H1802 H 0.84693 0.16306 0.05346 0.0
S1803 S 0.9046 0.07652 0.03513 0.0
N1804 N 0.90139 0.09504 0.01104 0.0
N1805 N 0.88863 0.08935 0.0578 0.0
C1806 C 0.87956 0.10967 0.04615 0.0
C1807 C 0.88655 0.11275 0.02091 0.0
C1808 C 0.29879 0.36212 0.13191 0.0
C1809 C 0.31049 0.38102 0.11836 0.0
C1810 C 0.27414 0.36454 0.13956 0.0
C1811 C 0.26055 0.38582 0.13375 0.0
H1812 H 0.30896 0.34579 0.13742 0.0
H1813 H 0.26591 0.35007 0.15071 0.0
S1814 S 0.28217 0.44006 0.0981 0.0
N1815 N 0.30631 0.42135 0.09893 0.0
N1816 N 0.25994 0.42579 0.11345 0.0
C1817 C 0.27177 0.40457 0.11986 0.0
C1818 C 0.29682 0.40221 0.11217 0.0
C1819 C 0.29115 0.63348 0.38004 0.0
C1820 C 0.30779 0.61367 0.38344 0.0
C1821 C 0.2674 0.62959 0.37027 0.0
C1822 C 0.25932 0.60571 0.36416 0.0
H1823 H 0.2962 0.6521 0.38525 0.0
H1824 H 0.25539 0.64534 0.36727 0.0
S1825 S 0.29412 0.54723 0.3723 0.0
N1826 N 0.31357 0.56904 0.3811 0.0
N1827 N 0.26851 0.56178 0.36441 0.0
C1828 C 0.27515 0.58566 0.36864 0.0
C1829 C 0.29945 0.58961 0.37796 0.0
C1830 C 0.85484 0.4536 0.85237 0.0
C1831 C 0.87127 0.43708 0.86384 0.0
C1832 C 0.85245 0.47798 0.86084 0.0
C1833 C 0.86621 0.48636 0.88119 0.0
H1834 H 0.84343 0.4475 0.83707 0.0
H1835 H 0.83894 0.48999 0.85219 0.0
S1836 S 0.91137 0.45036 0.91783 0.0
N1837 N 0.90152 0.4308 0.8965 0.0
N1838 N 0.89673 0.47665 0.91255 0.0
C1839 C 0.88302 0.47024 0.89249 0.0
C1840 C 0.88564 0.44552 0.88377 0.0
C1841 C 0.69671 0.85792 0.36284 0.0
C1842 C 0.68546 0.87593 0.3779 0.0
C1843 C 0.72129 0.86062 0.35499 0.0
C1844 C 0.73527 0.88122 0.36225 0.0
H1845 H 0.68613 0.84229 0.35612 0.0
H1846 H 0.72905 0.84713 0.34236 0.0
S1847 S 0.7151 0.93244 0.40292 0.0
N1848 N 0.69063 0.91427 0.4008 0.0
N1849 N 0.73689 0.91917 0.38609 0.0
C1850 C 0.72462 0.89876 0.37806 0.0
C1851 C 0.69963 0.89617 0.38586 0.0
C1852 C 0.612 0.518 0.37679 0.0
C1853 C 0.6355 0.50985 0.38411 0.0
C1854 C 0.60861 0.54195 0.3674 0.0
C1855 C 0.6285 0.55876 0.36565 0.0
H1856 H 0.59615 0.50587 0.37855 0.0
H1857 H 0.59031 0.54705 0.36119 0.0
S1858 S 0.69423 0.54501 0.38011 0.0
N1859 N 0.67936 0.51916 0.38655 0.0
N1860 N 0.67288 0.56462 0.3706 0.0
C1861 C 0.65223 0.55036 0.37226 0.0
C1862 C 0.65573 0.52585 0.38119 0.0
C1863 C 0.21932 0.59069 0.62139 0.0
C1864 C 0.23124 0.60905 0.63533 0.0
C1865 C 0.19476 0.59373 0.61375 0.0
C1866 C 0.1815 0.61526 0.61976 0.0
H1867 H 0.22882 0.5736 0.61702 0.0
H1868 H 0.186 0.57904 0.60332 0.0
S1869 S 0.20436 0.66802 0.65718 0.0
N1870 N 0.22821 0.649 0.65543 0.0
N1871 N 0.18185 0.65473 0.64138 0.0
C1872 C 0.19336 0.6338 0.63362 0.0
C1873 C 0.21836 0.63067 0.64135 0.0
C1874 C 0.83723 0.55468 0.61522 0.0
C1875 C 0.8595 0.56173 0.62658 0.0
C1876 C 0.83383 0.53066 0.60634 0.0
C1877 C 0.85268 0.51284 0.60815 0.0
H1878 H 0.82229 0.56786 0.61312 0.0
H1879 H 0.81617 0.526 0.59816 0.0
S1880 S 0.91344 0.52099 0.63872 0.0
N1881 N 0.89956 0.548 0.64192 0.0
N1882 N 0.894 0.50346 0.623 0.0
C1883 C 0.87484 0.51941 0.61992 0.0
C1884 C 0.87808 0.54373 0.62963 0.0
C1885 C 0.11663 0.97438 0.6199 0.0
C1886 C 0.14022 0.98272 0.6131 0.0
C1887 C 0.11315 0.95021 0.62868 0.0
C1888 C 0.13303 0.93337 0.63022 0.0
H1889 H 0.10077 0.98649 0.61812 0.0
H1890 H 0.09477 0.94495 0.63451 0.0
S1891 S 0.19897 0.94764 0.61721 0.0
N1892 N 0.18414 0.9736 0.61119 0.0
N1893 N 0.17751 0.92774 0.62587 0.0
C1894 C 0.15686 0.94199 0.62427 0.0
C1895 C 0.16044 0.96673 0.61604 0.0
C1896 C 0.63653 0.77678 0.90567 0.0
C1897 C 0.63616 0.75959 0.88615 0.0
C1898 C 0.62766 0.80082 0.90254 0.0
C1899 C 0.6176 0.80858 0.87989 0.0
H1900 H 0.64371 0.77162 0.92363 0.0
H1901 H 0.62878 0.81347 0.91805 0.0
S1902 S 0.60918 0.76946 0.82399 0.0
N1903 N 0.62403 0.75148 0.8437 0.0
N1904 N 0.60475 0.79592 0.83857 0.0
C1905 C 0.61585 0.79114 0.86057 0.0
C1906 C 0.62571 0.76681 0.86354 0.0
C1907 C 0.01372 0.13137 0.34962 0.0
C1908 C 0.00419 0.11265 0.36486 0.0
C1909 C 0.03837 0.13899 0.35187 0.0
C1910 C 0.05405 0.12825 0.36957 0.0
H1911 H 0.00237 0.13931 0.33515 0.0
H1912 H 0.04535 0.15301 0.33937 0.0
S1913 S 0.0377 0.07835 0.41361 0.0
N1914 N 0.01193 0.08354 0.39805 0.0
N1915 N 0.05835 0.09793 0.40248 0.0
C1916 C 0.04449 0.10996 0.38533 0.0
C1917 C 0.01946 0.10212 0.38291 0.0
C1918 C 0.36854 0.69298 0.9031 0.0
C1919 C 0.3782 0.68526 0.88025 0.0
C1920 C 0.35976 0.71702 0.90646 0.0
C1921 C 0.35982 0.73425 0.887 0.0
H1922 H 0.36768 0.68031 0.91859 0.0
H1923 H 0.35288 0.72214 0.92456 0.0
S1924 S 0.38557 0.72445 0.82429 0.0
N1925 N 0.39025 0.69795 0.83871 0.0
N1926 N 0.37113 0.74242 0.84433 0.0
C1927 C 0.36982 0.72706 0.86416 0.0
C1928 C 0.37959 0.70272 0.86094 0.0
C1929 C 0.93947 0.37746 0.33616 0.0
C1930 C 0.93243 0.36576 0.35823 0.0
C1931 C 0.9636 0.38617 0.33286 0.0
C1932 C 0.98148 0.3837 0.35159 0.0
H1933 H 0.92617 0.38014 0.32142 0.0
H1934 H 0.96827 0.39483 0.31543 0.0
S1935 S 0.97325 0.35179 0.41163 0.0
N1936 N 0.94614 0.34927 0.39783 0.0
N1937 N 0.9909 0.36769 0.39246 0.0
C1938 C 0.9749 0.3714 0.37345 0.0
C1939 C 0.9505 0.36195 0.37658 0.0
C1940 C 0.60793 0.19864 0.59843 0.0
C1941 C 0.61899 0.18303 0.61602 0.0
C1942 C 0.61565 0.22322 0.59577 0.0
C1943 C 0.63475 0.2328 0.61051 0.0
H1944 H 0.59333 0.19175 0.58656 0.0
H1945 H 0.60717 0.2346 0.58163 0.0
S1946 S 0.67039 0.19933 0.65836 0.0
N1947 N 0.65049 0.17868 0.64781 0.0
N1948 N 0.66479 0.22506 0.64289 0.0
C1949 C 0.64586 0.21749 0.6282 0.0
C1950 C 0.63802 0.19251 0.63094 0.0
C1951 C 0.44383 0.12073 0.65259 0.0
C1952 C 0.43652 0.12967 0.62934 0.0
C1953 C 0.46759 0.11132 0.6564 0.0
C1954 C 0.48492 0.11022 0.63703 0.0
H1955 H 0.43102 0.12084 0.668 0.0
H1956 H 0.47243 0.10487 0.67472 0.0
S1957 S 0.47611 0.13371 0.57332 0.0
N1958 N 0.44964 0.13958 0.58738 0.0
N1959 N 0.49365 0.11974 0.59405 0.0
C1960 C 0.47815 0.11958 0.61382 0.0
C1961 C 0.45408 0.12979 0.61007 0.0
C1962 C 0.35766 0.28023 0.58413 0.0
C1963 C 0.3594 0.26205 0.60263 0.0
C1964 C 0.3663 0.30427 0.58813 0.0
C1965 C 0.37723 0.31104 0.61071 0.0
H1966 H 0.34976 0.27582 0.56627 0.0
H1967 H 0.36436 0.31769 0.57338 0.0
S1968 S 0.38859 0.2695 0.66418 0.0
N1969 N 0.37354 0.25213 0.64408 0.0
N1970 N 0.39174 0.2968 0.65088 0.0
C1971 C 0.38 0.29277 0.62904 0.0
C1972 C 0.37066 0.26838 0.62515 0.0
C1973 C 0.52783 0.38798 0.6566 0.0
C1974 C 0.51 0.38584 0.63779 0.0
C1975 C 0.55179 0.37879 0.65345 0.0
C1976 C 0.55877 0.36679 0.6315 0.0
H1977 H 0.52324 0.39668 0.67403 0.0
H1978 H 0.56498 0.38122 0.66833 0.0
S1979 S 0.51791 0.35344 0.57793 0.0
N1980 N 0.50051 0.36987 0.5969 0.0
N1981 N 0.54489 0.35042 0.59189 0.0
C1982 C 0.54073 0.36335 0.61303 0.0
C1983 C 0.51648 0.37336 0.61598 0.0
C1984 C 0.86296 0.63469 0.77227 0.0
C1985 C 0.88582 0.63333 0.76014 0.0
C1986 C 0.86065 0.62709 0.79695 0.0
C1987 C 0.88114 0.6178 0.8101 0.0
H1988 H 0.84708 0.6426 0.76297 0.0
H1989 H 0.84298 0.62954 0.80601 0.0
S1990 S 0.94471 0.6096 0.78566 0.0
N1991 N 0.92902 0.62151 0.76232 0.0
N1992 N 0.92475 0.60685 0.80863 0.0
C1993 C 0.90394 0.61583 0.79778 0.0
C1994 C 0.90625 0.62363 0.77276 0.0
C1995 C 0.87636 0.88429 0.4473 0.0
C1996 C 0.8649 0.86447 0.43486 0.0
C1997 C 0.88394 0.88195 0.472 0.0
C1998 C 0.88017 0.85978 0.48488 0.0
H1999 H 0.88059 0.90128 0.4376 0.0
H2000 H 0.89378 0.89709 0.48068 0.0
S2001 S 0.84968 0.80315 0.46144 0.0
N2002 N 0.84907 0.8225 0.43781 0.0
N2003 N 0.8634 0.81819 0.48421 0.0
C2004 C 0.86798 0.84022 0.47303 0.0
C2005 C 0.86037 0.84253 0.44796 0.0
C2006 C 0.08587 0.86817 0.80284 0.0
C2007 C 0.10838 0.87896 0.80994 0.0
C2008 C 0.08254 0.85891 0.77893 0.0
C2009 C 0.10166 0.85999 0.76132 0.0
H2010 H 0.07079 0.86661 0.81595 0.0
H2011 H 0.06481 0.85091 0.77419 0.0
S2012 S 0.16312 0.88905 0.76974 0.0
N2013 N 0.14905 0.89293 0.79657 0.0
N2014 N 0.14341 0.87374 0.75215 0.0
C2015 C 0.124 0.87139 0.76792 0.0
C2016 C 0.12723 0.88129 0.79214 0.0
C2017 C 0.12846 0.64538 0.47655 0.0
C2018 C 0.10962 0.63038 0.48622 0.0
C2019 C 0.13648 0.64246 0.45208 0.0
C2020 C 0.12605 0.62427 0.43671 0.0
H2021 H 0.13629 0.66012 0.48765 0.0
H2022 H 0.15064 0.65474 0.445 0.0
S2023 S 0.07586 0.58069 0.45348 0.0
N2024 N 0.08061 0.59699 0.47889 0.0
N2025 N 0.09578 0.59125 0.43285 0.0
C2026 C 0.10755 0.60882 0.44641 0.0
C2027 C 0.0993 0.61195 0.47124 0.0
C2028 C 0.86328 0.37839 0.69925 0.0
C2029 C 0.88301 0.37977 0.68223 0.0
C2030 C 0.86682 0.36913 0.72321 0.0
C2031 C 0.89031 0.36157 0.73115 0.0
H2032 H 0.845 0.38478 0.69429 0.0
H2033 H 0.85107 0.36767 0.73552 0.0
S2034 S 0.94872 0.36471 0.69537 0.0
N2035 N 0.92726 0.37432 0.67592 0.0
N2036 N 0.93405 0.35858 0.72142 0.0
C2037 C 0.91041 0.36416 0.71493 0.0
C2038 C 0.90675 0.37297 0.69041 0.0
C2039 C 0.62686 0.84494 0.51787 0.0
C2040 C 0.6102 0.86176 0.50724 0.0
C2041 C 0.63397 0.84725 0.54267 0.0
C2042 C 0.62479 0.86657 0.55742 0.0
H2043 H 0.63355 0.82932 0.50724 0.0
H2044 H 0.64638 0.83359 0.55048 0.0
S2045 S 0.5804 0.91507 0.53806 0.0
N2046 N 0.58462 0.89812 0.51298 0.0
N2047 N 0.59806 0.90266 0.55968 0.0
C2048 C 0.60855 0.88382 0.54677 0.0
C2049 C 0.60122 0.88135 0.52159 0.0
C2050 C 0.12836 0.139 0.72055 0.0
C2051 C 0.10805 0.13096 0.73452 0.0
C2052 C 0.13169 0.13083 0.69619 0.0
C2053 C 0.1147 0.11451 0.68513 0.0
H2054 H 0.14133 0.15217 0.7283 0.0
H2055 H 0.14718 0.138 0.68571 0.0
S2056 S 0.05873 0.08796 0.71454 0.0
N2057 N 0.07098 0.10579 0.73612 0.0
N2058 N 0.07715 0.09028 0.69027 0.0
C2059 C 0.09447 0.10618 0.69915 0.0
C2060 C 0.09119 0.11441 0.72394 0.0
C2061 C 0.36325 0.61928 0.54669 0.0
C2062 C 0.36672 0.63719 0.5653 0.0
C2063 C 0.37222 0.62298 0.52267 0.0
C2064 C 0.38451 0.64492 0.51633 0.0
H2065 H 0.35327 0.60237 0.55051 0.0
H2066 H 0.36972 0.60851 0.50904 0.0
S2067 S 0.39502 0.69915 0.55699 0.0
N2068 N 0.38164 0.6785 0.57506 0.0
N2069 N 0.39714 0.68598 0.52953 0.0
C2070 C 0.38691 0.66353 0.53429 0.0
C2071 C 0.37822 0.65959 0.55884 0.0
C2072 C 0.79451 0.85767 0.6272 0.0
C2073 C 0.80594 0.87713 0.61421 0.0
C2074 C 0.76986 0.85953 0.63504 0.0
C2075 C 0.75596 0.8808 0.62992 0.0
H2076 H 0.80499 0.84142 0.63239 0.0
H2077 H 0.76199 0.8448 0.64611 0.0
S2078 S 0.77663 0.93616 0.5954 0.0
N2079 N 0.80104 0.91778 0.59568 0.0
N2080 N 0.75467 0.92117 0.61044 0.0
C2081 C 0.7668 0.89994 0.61624 0.0
C2082 C 0.79187 0.89816 0.60841 0.0
C2083 C 0.80046 0.09185 0.87932 0.0
C2084 C 0.81264 0.114 0.87322 0.0
C2085 C 0.77597 0.08769 0.87202 0.0
C2086 C 0.76301 0.10554 0.8584 0.0
H2087 H 0.80998 0.07759 0.88968 0.0
H2088 H 0.76725 0.07024 0.87662 0.0
S2089 S 0.78687 0.16564 0.83617 0.0
N2090 N 0.81023 0.15335 0.85154 0.0
N2091 N 0.76392 0.14558 0.83832 0.0
C2092 C 0.77484 0.12769 0.85216 0.0
C2093 C 0.79979 0.13193 0.85946 0.0
C2094 C 0.33327 0.96246 0.38738 0.0
C2095 C 0.35142 0.98083 0.38426 0.0
C2096 C 0.33723 0.9382 0.37936 0.0
C2097 C 0.35932 0.93144 0.36748 0.0
H2098 H 0.31572 0.96683 0.39595 0.0
H2099 H 0.32284 0.92462 0.38254 0.0
S2100 S 0.4113 0.97352 0.35174 0.0
N2101 N 0.39191 0.99092 0.36766 0.0
N2102 N 0.39819 0.94601 0.34996 0.0
C2103 C 0.37708 0.94997 0.36299 0.0
C2104 C 0.37338 0.97451 0.37196 0.0
C2105 C 0.1974 0.36122 0.85951 0.0
C2106 C 0.18857 0.37546 0.87941 0.0
C2107 C 0.22179 0.36379 0.85113 0.0
C2108 C 0.23807 0.38043 0.86262 0.0
H2109 H 0.1851 0.3488 0.84972 0.0
H2110 H 0.22769 0.35346 0.835 0.0
S2111 S 0.22444 0.42087 0.91614 0.0
N2112 N 0.19826 0.40599 0.91095 0.0
N2113 N 0.24423 0.41062 0.89522 0.0
C2114 C 0.22978 0.39406 0.88303 0.0
C2115 C 0.20492 0.39168 0.89139 0.0
C2116 C 0.1583 0.02726 0.88761 0.0
C2117 C 0.13923 0.00971 0.8855 0.0
C2118 C 0.15537 0.05133 0.8787 0.0
C2119 C 0.1334 0.05864 0.86698 0.0
H2120 H 0.17576 0.02238 0.89609 0.0
H2121 H 0.1704 0.06436 0.88114 0.0
S2122 S 0.07926 0.01855 0.85358 0.0
N2123 N 0.0981 0.00083 0.86978 0.0
N2124 N 0.09357 0.04536 0.85065 0.0
C2125 C 0.11471 0.04085 0.86344 0.0
C2126 C 0.11741 0.01653 0.87325 0.0
C2127 C 0.71883 0.12746 0.14334 0.0
C2128 C 0.7356 0.11193 0.13105 0.0
C2129 C 0.69471 0.13057 0.13442 0.0
C2130 C 0.68666 0.11796 0.11315 0.0
H2131 H 0.72418 0.1366 0.16036 0.0
H2132 H 0.68201 0.14217 0.14472 0.0
S2133 S 0.72402 0.07587 0.07404 0.0
N2134 N 0.74305 0.08449 0.09633 0.0
N2135 N 0.69755 0.09011 0.0796 0.0
C2136 C 0.70348 0.1028 0.10046 0.0
C2137 C 0.72808 0.0999 0.10938 0.0
C2138 C 0.34888 0.04456 0.13793 0.0
C2139 C 0.36765 0.05937 0.12775 0.0
C2140 C 0.34576 0.01999 0.13034 0.0
C2141 C 0.36118 0.00964 0.11222 0.0
H2142 H 0.33628 0.05216 0.15154 0.0
H2143 H 0.33055 0.00934 0.1379 0.0
S2144 S 0.4124 0.04075 0.07924 0.0
N2145 N 0.40161 0.06199 0.09838 0.0
N2146 N 0.39555 0.01572 0.08408 0.0
C2147 C 0.3802 0.02404 0.10215 0.0
C2148 C 0.3835 0.04899 0.10995 0.0
C2149 C 0.61452 0.45054 0.11872 0.0
C2150 C 0.63419 0.43652 0.12847 0.0
C2151 C 0.61804 0.47513 0.11133 0.0
C2152 C 0.64136 0.48626 0.11324 0.0
H2153 H 0.59657 0.44222 0.11573 0.0
H2154 H 0.60276 0.48512 0.10308 0.0
S2155 S 0.69842 0.45836 0.13869 0.0
N2156 N 0.67748 0.43621 0.14074 0.0
N2157 N 0.68405 0.48232 0.12637 0.0
C2158 C 0.66096 0.47281 0.12349 0.0
C2159 C 0.6574 0.4479 0.13115 0.0
C2160 C 0.23899 0.08995 0.39774 0.0
C2161 C 0.26195 0.09981 0.39023 0.0
C2162 C 0.21722 0.10408 0.39653 0.0
C2163 C 0.21777 0.12864 0.38808 0.0
H2164 H 0.23807 0.07172 0.406 0.0
H2165 H 0.20038 0.09653 0.40435 0.0
S2166 S 0.27203 0.16218 0.36324 0.0
N2167 N 0.28296 0.13485 0.3713 0.0
N2168 N 0.2422 0.16138 0.36971 0.0
C2169 C 0.24003 0.13799 0.37867 0.0
C2170 C 0.2621 0.12356 0.37953 0.0
C2171 C 0.34142 0.50285 0.84588 0.0
C2172 C 0.35075 0.47961 0.85317 0.0
C2173 C 0.35596 0.52431 0.84757 0.0
C2174 C 0.38039 0.52319 0.85631 0.0
H2175 H 0.32334 0.50426 0.83736 0.0
H2176 H 0.34883 0.54138 0.83985 0.0
S2177 S 0.41232 0.46813 0.88153 0.0
N2178 N 0.38496 0.45775 0.87283 0.0
N2179 N 0.41229 0.49798 0.87515 0.0
C2180 C 0.38915 0.50067 0.86568 0.0
C2181 C 0.3743 0.47889 0.86438 0.0
C2182 C 0.72809 0.37253 0.38533 0.0
C2183 C 0.72859 0.39606 0.39654 0.0
C2184 C 0.74952 0.35805 0.38366 0.0
C2185 C 0.77234 0.36685 0.39238 0.0
H2186 H 0.71073 0.36437 0.37954 0.0
H2187 H 0.74792 0.33924 0.37692 0.0
S2188 S 0.78446 0.42841 0.41992 0.0
N2189 N 0.75446 0.42845 0.41413 0.0
N2190 N 0.79482 0.4013 0.41034 0.0
C2191 C 0.7736 0.39112 0.40151 0.0
C2192 C 0.75169 0.40572 0.40375 0.0
C2193 C 0.65319 0.99099 0.84809 0.0
C2194 C 0.64307 0.01455 0.85292 0.0
C2195 C 0.63856 0.96953 0.84936 0.0
C2196 C 0.61326 0.97101 0.85513 0.0
H2197 H 0.67216 0.98927 0.84187 0.0
H2198 H 0.64656 0.95207 0.84365 0.0
S2199 S 0.57839 0.02749 0.87207 0.0
N2200 N 0.60662 0.03741 0.86609 0.0
N2201 N 0.5793 -0.00277 0.86818 0.0
C2202 C 0.60345 0.99406 0.86189 0.0
C2203 C 0.61832 0.01582 0.86088 0.0
C2204 C 0.21852 0.88819 0.09535 0.0
C2205 C 0.22016 0.86383 0.10418 0.0
C2206 C 0.23959 0.90334 0.09412 0.0
C2207 C 0.26293 0.89471 0.10193 0.0
H2208 H 0.20142 0.8948 0.08727 0.0
H2209 H 0.23782 0.92135 0.08552 0.0
S2210 S 0.27555 0.83362 0.13081 0.0
N2211 N 0.24586 0.83275 0.12373 0.0
N2212 N 0.28533 0.86123 0.12222 0.0
C2213 C 0.26409 0.87122 0.11323 0.0
C2214 C 0.24273 0.85575 0.11409 0.0
C2215 C 0.12162 0.47779 0.1313 0.0
C2216 C 0.14578 0.47883 0.14099 0.0
C2217 C 0.10666 0.49893 0.13048 0.0
C2218 C 0.11553 0.52196 0.13862 0.0
H2219 H 0.11339 0.46023 0.12634 0.0
H2220 H 0.08747 0.4969 0.12506 0.0
S2221 S 0.17867 0.53545 0.16155 0.0
N2222 N 0.17884 0.50541 0.15599 0.0
N2223 N 0.15078 0.54524 0.15384 0.0
C2224 C 0.14039 0.52378 0.14588 0.0
C2225 C 0.15551 0.50216 0.14723 0.0
C2226 C 0.75302 0.59544 0.10082 0.0
C2227 C 0.72943 0.60607 0.10405 0.0
C2228 C 0.77458 0.60987 0.10224 0.0
C2229 C 0.77319 0.63546 0.10654 0.0
H2230 H 0.75475 0.57614 0.0957 0.0
H2231 H 0.79216 0.60137 0.0977 0.0
S2232 S 0.71652 0.6718 0.1192 0.0
N2233 N 0.70647 0.64339 0.11431 0.0
N2234 N 0.74691 0.67036 0.11664 0.0
C2235 C 0.75001 0.64588 0.1118 0.0
C2236 C 0.72813 0.63122 0.11065 0.0
C2237 C 0.85755 0.9718 0.14583 0.0
C2238 C 0.88265 0.97363 0.13938 0.0
C2239 C 0.84266 0.99301 0.14741 0.0
C2240 C 0.8523 0.01666 0.14219 0.0
H2241 H 0.84996 0.95425 0.15184 0.0
H2242 H 0.82389 0.991 0.15414 0.0
S2243 S 0.91605 0.03034 0.12045 0.0
N2244 N 0.91584 0.00016 0.12507 0.0
N2245 N 0.88784 0.03996 0.12712 0.0
C2246 C 0.87676 0.01825 0.1333 0.0
C2247 C 0.89197 0.99673 0.13218 0.0
C2248 C 0.38554 0.24538 0.13974 0.0
C2249 C 0.39261 0.22234 0.12998 0.0
C2250 C 0.38639 0.26689 0.12529 0.0
C2251 C 0.39509 0.26624 0.10075 0.0
H2252 H 0.38079 0.24702 0.15914 0.0
H2253 H 0.38207 0.28438 0.13408 0.0
S2254 S 0.41315 0.20995 0.06579 0.0
N2255 N 0.40613 0.19964 0.09368 0.0
N2256 N 0.40835 0.24011 0.06657 0.0
C2257 C 0.40049 0.243 0.09027 0.0
C2258 C 0.39909 0.22102 0.10488 0.0
C2259 C 0.49338 0.34962 0.15345 0.0
C2260 C 0.51679 0.35509 0.14337 0.0
C2261 C 0.47193 0.3504 0.13882 0.0
C2262 C 0.47329 0.35623 0.11354 0.0
H2263 H 0.49177 0.34328 0.17239 0.0
H2264 H 0.45459 0.34435 0.14683 0.0
S2265 S 0.52923 0.37536 0.07892 0.0
N2266 N 0.53933 0.36962 0.10714 0.0
N2267 N 0.49914 0.3702 0.07965 0.0
C2268 C 0.49615 0.36361 0.10373 0.0
C2269 C 0.51789 0.36333 0.11867 0.0
C2270 C 0.60784 0.23092 0.12412 0.0
C2271 C 0.59872 0.23203 0.09974 0.0
C2272 C 0.60882 0.25212 0.13899 0.0
C2273 C 0.60151 0.27526 0.12977 0.0
H2274 H 0.61254 0.21331 0.13242 0.0
H2275 H 0.6141 0.25018 0.15822 0.0
S2276 S 0.5793 0.28875 0.06637 0.0
N2277 N 0.58432 0.25861 0.06642 0.0
N2278 N 0.58692 0.29857 0.09428 0.0
C2279 C 0.59434 0.27703 0.10488 0.0
C2280 C 0.59275 0.25536 0.08988 0.0
C2281 C 0.50432 0.15024 0.15153 0.0
C2282 C 0.48092 0.1437 0.14205 0.0
C2283 C 0.5257 0.14853 0.13688 0.0
C2284 C 0.5243 0.14056 0.11219 0.0
H2285 H 0.50594 0.15813 0.16988 0.0
H2286 H 0.54295 0.15566 0.14418 0.0
S2287 S 0.46852 0.11784 0.07959 0.0
N2288 N 0.45844 0.12588 0.10727 0.0
N2289 N 0.49854 0.12338 0.07977 0.0
C2290 C 0.50153 0.13197 0.10321 0.0
C2291 C 0.47984 0.13333 0.11815 0.0
C2292 C 0.4247 0.7437 0.39008 0.0
C2293 C 0.40305 0.73037 0.39564 0.0
C2294 C 0.42411 0.76431 0.37459 0.0
C2295 C 0.40183 0.77284 0.36438 0.0
H2296 H 0.44256 0.73756 0.39678 0.0
H2297 H 0.44143 0.77335 0.37008 0.0
S2298 S 0.33959 0.74635 0.37488 0.0
N2299 N 0.35832 0.72821 0.39084 0.0
N2300 N 0.35731 0.76771 0.36204 0.0
C2301 C 0.3798 0.76071 0.37072 0.0
C2302 C 0.3804 0.73924 0.38624 0.0
C2303 C 0.98156 0.36057 0.8691 0.0
C2304 C 0.98201 0.3489 0.84581 0.0
C2305 C 0.00292 0.3621 0.88369 0.0
C2306 C 0.02562 0.35268 0.87528 0.0
H2307 H 0.96425 0.36679 0.87704 0.0
H2308 H 0.00129 0.36913 0.90239 0.0
S2309 S 0.03769 0.32404 0.81421 0.0
N2310 N 0.00781 0.33041 0.81386 0.0
N2311 N 0.04802 0.3338 0.84126 0.0
C2312 C 0.02691 0.34321 0.85114 0.0
C2313 C 0.00506 0.34118 0.83641 0.0
C2314 C 0.6082 0.76272 0.37101 0.0
C2315 C 0.59743 0.76276 0.39473 0.0
C2316 C 0.60873 0.74116 0.35661 0.0
C2317 C 0.59919 0.71872 0.36562 0.0
H2318 H 0.61444 0.77982 0.36266 0.0
H2319 H 0.6151 0.74244 0.33764 0.0
S2320 S 0.57272 0.70791 0.42786 0.0
N2321 N 0.5797 0.73764 0.42763 0.0
N2322 N 0.58122 0.69709 0.40057 0.0
C2323 C 0.59065 0.7179 0.3901 0.0
C2324 C 0.58965 0.73995 0.40467 0.0
C2325 C 0.97259 0.14587 0.85879 0.0
C2326 C 0.97416 0.1446 0.88473 0.0
C2327 C 0.99406 0.14606 0.84412 0.0
C2328 C 0.0177 0.14431 0.85488 0.0
H2329 H 0.95484 0.14861 0.84991 0.0
H2330 H 0.9922 0.14867 0.82434 0.0
S2331 S 0.03146 0.13834 0.92186 0.0
N2332 N 0.001 0.13987 0.92042 0.0
N2333 N 0.04118 0.13977 0.89296 0.0
C2334 C 0.01932 0.14127 0.88066 0.0
C2335 C -0.00243 0.14153 0.89556 0.0
C2336 C 0.09078 0.40315 0.24097 0.0
C2337 C 0.09964 0.39311 0.26336 0.0
C2338 C 0.10482 0.40191 0.21916 0.0
C2339 C 0.12829 0.39079 0.21905 0.0
H2340 H 0.0735 0.41329 0.24058 0.0
H2341 H 0.09821 0.41154 0.20287 0.0
S2342 S 0.1587 0.35886 0.27135 0.0
N2343 N 0.13234 0.36906 0.28289 0.0
N2344 N 0.15879 0.36747 0.24206 0.0
C2345 C 0.13653 0.37906 0.24061 0.0
C2346 C 0.12216 0.37997 0.26272 0.0
C2347 C 0.10588 0.59235 0.27382 0.0
C2348 C 0.13055 0.60052 0.27347 0.0
C2349 C 0.092 0.59093 0.25186 0.0
C2350 C 0.10223 0.59795 0.22891 0.0
H2351 H 0.09796 0.58507 0.29072 0.0
H2352 H 0.07359 0.58306 0.2527 0.0
S2353 S 0.16529 0.62343 0.21909 0.0
N2354 N 0.16394 0.61774 0.24905 0.0
N2355 N 0.13797 0.61558 0.20797 0.0
C2356 C 0.12624 0.60808 0.22886 0.0
C2357 C 0.14038 0.6092 0.2511 0.0
C2358 C 0.84894 0.6515 0.99355 0.0
C2359 C 0.85113 0.64081 0.01721 0.0
C2360 C 0.85003 0.63692 0.97204 0.0
C2361 C 0.85279 0.61111 0.97356 0.0
H2362 H 0.84525 0.6711 0.99169 0.0
H2363 H 0.84679 0.64565 0.9543 0.0
S2364 S 0.8612 0.57426 0.03073 0.0
N2365 N 0.85796 0.60299 0.04056 0.0
N2366 N 0.85962 0.57571 0.00028 0.0
C2367 C 0.85646 0.60043 0.99695 0.0
C2368 C 0.85573 0.61525 0.01876 0.0
C2369 C 0.90216 0.9004 0.25156 0.0
C2370 C 0.89223 0.89567 0.22793 0.0
C2371 C 0.88752 0.89838 0.27293 0.0
C2372 C 0.86236 0.89205 0.27129 0.0
H2373 H 0.92104 0.90684 0.25346 0.0
H2374 H 0.89541 0.90374 0.29055 0.0
S2375 S 0.82799 0.87533 0.21444 0.0
N2376 N 0.85615 0.88196 0.20466 0.0
N2377 N 0.82866 0.87897 0.24475 0.0
C2378 C 0.85265 0.88572 0.24808 0.0
C2379 C 0.8676 0.8873 0.2264 0.0
C2380 C 0.63035 0.38659 0.49499 0.0
C2381 C 0.63876 0.37792 0.47197 0.0
C2382 C 0.63154 0.37169 0.51616 0.0
C2383 C 0.64186 0.3478 0.51522 0.0
H2384 H 0.62432 0.4056 0.49695 0.0
H2385 H 0.62621 0.3798 0.53368 0.0
S2386 S 0.66378 0.31551 0.45871 0.0
N2387 N 0.65525 0.34314 0.44885 0.0
N2388 N 0.65807 0.31521 0.48872 0.0
C2389 C 0.64858 0.33826 0.49192 0.0
C2390 C 0.64687 0.35331 0.47025 0.0
C2391 C 0.36827 0.60681 0.76713 0.0
C2392 C 0.39279 0.59812 0.76576 0.0
C2393 C 0.35305 0.60723 0.74615 0.0
C2394 C 0.36199 0.59974 0.72293 0.0
H2395 H 0.36014 0.61154 0.78481 0.0
H2396 H 0.33376 0.61222 0.74835 0.0
S2397 S 0.4256 0.5785 0.70875 0.0
N2398 N 0.42591 0.58394 0.73881 0.0
N2399 N 0.39741 0.58548 0.69926 0.0
C2400 C 0.38699 0.593 0.72087 0.0
C2401 C 0.40237 0.592 0.74233 0.0
C2402 C 0.84597 0.35629 0.52306 0.0
C2403 C 0.85362 0.3811 0.52225 0.0
C2404 C 0.84503 0.34195 0.50139 0.0
C2405 C 0.85196 0.35189 0.47827 0.0
H2406 H 0.83852 0.34864 0.54002 0.0
H2407 H 0.83732 0.32349 0.50253 0.0
S2408 S 0.87696 0.41498 0.46755 0.0
N2409 N 0.8709 0.41416 0.49745 0.0
N2410 N 0.86954 0.38736 0.45687 0.0
C2411 C 0.86194 0.37595 0.47788 0.0
C2412 C 0.86263 0.39053 0.49985 0.0
C2413 C 0.14912 0.13687 0.52436 0.0
C2414 C 0.14102 0.11221 0.52354 0.0
C2415 C 0.15018 0.15122 0.50274 0.0
C2416 C 0.14282 0.14146 0.4797 0.0
H2417 H 0.15672 0.14441 0.5413 0.0
H2418 H 0.15812 0.16958 0.50387 0.0
S2419 S 0.11655 0.07889 0.46893 0.0
N2420 N 0.12305 0.07945 0.49876 0.0
N2421 N 0.1243 0.10641 0.45824 0.0
C2422 C 0.13246 0.11755 0.47925 0.0
C2423 C 0.13179 0.1029 0.50116 0.0
C2424 C 0.74335 0.58927 0.89764 0.0
C2425 C 0.76666 0.59878 0.89075 0.0
C2426 C 0.72182 0.60368 0.89573 0.0
C2427 C 0.72293 0.62815 0.88712 0.0
H2428 H 0.74191 0.57114 0.90605 0.0
H2429 H 0.70469 0.59643 0.90319 0.0
S2430 S 0.77817 0.66049 0.86277 0.0
N2431 N 0.78859 0.63316 0.87149 0.0
N2432 N 0.74822 0.66026 0.86875 0.0
C2433 C 0.74554 0.63707 0.87808 0.0
C2434 C 0.7674 0.62236 0.87963 0.0
C2435 C 0.83899 0.00109 0.34675 0.0
C2436 C 0.84929 0.97775 0.35206 0.0
C2437 C 0.85324 0.02273 0.34834 0.0
C2438 C 0.87836 0.02166 0.35487 0.0
H2439 H 0.82019 0.00253 0.33997 0.0
H2440 H 0.84513 0.04006 0.34237 0.0
S2441 S 0.91333 0.966 0.37405 0.0
N2442 N 0.88545 0.95554 0.36728 0.0
N2443 N 0.91226 0.99615 0.36934 0.0
C2444 C 0.88834 -0.00115 0.3621 0.0
C2445 C 0.87377 0.97689 0.36099 0.0
C2446 C 0.2723 0.88865 0.89657 0.0
C2447 C 0.27187 0.86411 0.88802 0.0
C2448 C 0.25037 0.90245 0.89847 0.0
C2449 C 0.22737 0.89224 0.8916 0.0
H2450 H 0.28923 0.89641 0.90397 0.0
H2451 H 0.25124 0.92067 0.90676 0.0
S2452 S 0.21742 0.82972 0.86484 0.0
N2453 N 0.24743 0.83102 0.87029 0.0
N2454 N 0.20632 0.85686 0.87333 0.0
C2455 C 0.22726 0.8685 0.88084 0.0
C2456 C 0.2495 0.85444 0.87922 0.0
C2457 C 0.10736 0.49089 0.36351 0.0
C2458 C 0.11574 0.46809 0.35429 0.0
C2459 C 0.1223 0.51203 0.36252 0.0
C2460 C 0.14595 0.51127 0.35161 0.0
H2461 H 0.08845 0.49279 0.3699 0.0
H2462 H 0.11437 0.52945 0.36846 0.0
S2463 S 0.17766 0.45512 0.32797 0.0
N2464 N 0.15013 0.44518 0.33673 0.0
N2465 N 0.1782 0.48499 0.33435 0.0
C2466 C 0.15533 0.48807 0.3443 0.0
C2467 C 0.14021 0.46644 0.34578 0.0
C2468 C 0.76376 0.37142 0.61024 0.0
C2469 C 0.76283 0.39524 0.59976 0.0
C2470 C 0.74257 0.35653 0.6115 0.0
C2471 C 0.71957 0.36517 0.60304 0.0
H2472 H 0.78129 0.3634 0.61568 0.0
H2473 H 0.7445 0.33757 0.61768 0.0
S2474 S 0.70639 0.42737 0.57753 0.0
N2475 N 0.73639 0.42771 0.58326 0.0
N2476 N 0.69649 0.39982 0.58626 0.0
C2477 C 0.71788 0.3897 0.59473 0.0
C2478 C 0.73955 0.40472 0.59292 0.0
C2479 C 0.62021 0.97684 0.63376 0.0
C2480 C 0.64446 0.97749 0.64323 0.0
C2481 C 0.60566 -0.00174 0.6328 0.0
C2482 C 0.61505 0.02121 0.64058 0.0
H2483 H 0.61163 0.95939 0.62892 0.0
H2484 H 0.58642 0.99658 0.62747 0.0
S2485 S 0.6786 0.03369 0.66298 0.0
N2486 N 0.67814 0.0036 0.65775 0.0
N2487 N 0.65085 0.04394 0.65536 0.0
C2488 C 0.63998 0.0226 0.64772 0.0
C2489 C 0.65468 0.0007 0.64921 0.0
C2490 C 0.2315 0.12214 0.61037 0.0
C2491 C 0.23208 0.0983 0.5999 0.0
C2492 C 0.25279 0.13694 0.61112 0.0
C2493 C 0.27558 0.12822 0.60214 0.0
H2494 H 0.21414 0.13026 0.6162 0.0
H2495 H 0.25105 0.15595 0.61724 0.0
S2496 S 0.28796 0.06586 0.57659 0.0
N2497 N 0.25809 0.06565 0.58299 0.0
N2498 N 0.29814 0.09342 0.58498 0.0
C2499 C 0.27698 0.10364 0.5939 0.0
C2500 C 0.2552 0.08868 0.59263 0.0
C2501 C 0.38498 0.49503 0.62995 0.0
C2502 C 0.37651 0.47178 0.63794 0.0
C2503 C 0.36983 0.51601 0.63137 0.0
C2504 C 0.34586 0.51462 0.64145 0.0
H2505 H 0.40405 0.49733 0.62424 0.0
H2506 H 0.37783 0.53371 0.62654 0.0
S2507 S 0.31387 0.45734 0.66167 0.0
N2508 N 0.34174 0.44795 0.65339 0.0
N2509 N 0.3133 0.48744 0.65654 0.0
C2510 C 0.33646 0.49107 0.64747 0.0
C2511 C 0.35179 0.46962 0.64557 0.0
C2512 C 0.87985 0.74579 0.63824 0.0
C2513 C 0.88702 0.72243 0.62938 0.0
C2514 C 0.88119 0.76679 0.62314 0.0
C2515 C 0.89045 0.76527 0.59884 0.0
H2516 H 0.87473 0.7481 0.65748 0.0
H2517 H 0.87686 0.78457 0.63131 0.0
S2518 S 0.90853 0.70778 0.56597 0.0
N2519 N 0.90091 0.69843 0.59404 0.0
N2520 N 0.90402 0.73799 0.56571 0.0
C2521 C 0.89576 0.74169 0.58916 0.0
C2522 C 0.89388 0.72022 0.60443 0.0
C2523 C 0.01415 0.85831 0.61938 0.0
C2524 C 0.0134 0.84883 0.64361 0.0
C2525 C 0.99273 0.85945 0.60482 0.0
C2526 C 0.9697 0.85191 0.61423 0.0
H2527 H 0.03165 0.86309 0.61088 0.0
H2528 H 0.99442 0.86492 0.58562 0.0
S2529 S 0.95715 0.82894 0.67755 0.0
N2530 N 0.98728 0.83401 0.67712 0.0
N2531 N 0.94692 0.83689 0.64988 0.0
C2532 C 0.9683 0.84448 0.63906 0.0
C2533 C 0.99019 0.84274 0.65373 0.0
C2534 C 0.09578 0.77392 0.60497 0.0
C2535 C 0.10432 0.77266 0.62946 0.0
C2536 C 0.09416 0.75251 0.59033 0.0
C2537 C 0.10131 0.72921 0.59962 0.0
H2538 H 0.08811 0.79102 0.59788 0.0
H2539 H 0.08575 0.75402 0.57221 0.0
S2540 S 0.12929 0.71741 0.66128 0.0
N2541 N 0.12298 0.74728 0.66134 0.0
N2542 N 0.12072 0.70716 0.63382 0.0
C2543 C 0.1124 0.72837 0.62321 0.0
C2544 C 0.11366 0.75008 0.63816 0.0
C2545 C 0.99627 0.63788 0.60381 0.0
C2546 C 0.01948 0.64425 0.61362 0.0
C2547 C 0.97489 0.63852 0.61848 0.0
C2548 C 0.97586 0.64632 0.64331 0.0
H2549 H 0.99445 0.63358 0.58432 0.0
H2550 H 0.95727 0.63467 0.60975 0.0
S2551 S 0.03254 0.66293 0.67826 0.0
N2552 N 0.04259 0.65654 0.65012 0.0
N2553 N 0.00231 0.65852 0.67758 0.0
C2554 C -0.0008 0.65135 0.6537 0.0
C2555 C 0.02105 0.65011 0.63888 0.0
C2556 C 0.8833 0.25065 0.85367 0.0
C2557 C 0.89005 0.27408 0.86275 0.0
C2558 C 0.88382 0.2297 0.86891 0.0
C2559 C 0.89177 0.23131 0.89365 0.0
H2560 H 0.87917 0.24824 0.83421 0.0
H2561 H 0.87995 0.21188 0.8606 0.0
S2562 S 0.90792 0.28902 0.9272 0.0
N2563 N 0.90192 0.29823 0.8987 0.0
N2564 N 0.90341 0.25881 0.92735 0.0
C2565 C 0.89649 0.25498 0.90349 0.0
C2566 C 0.89549 0.2764 0.88803 0.0
C2567 C 0.47728 0.86071 0.37316 0.0
C2568 C 0.47901 0.85489 0.34784 0.0
C2569 C 0.49821 0.86029 0.38844 0.0
C2570 C 0.52174 0.85464 0.37889 0.0
H2571 H 0.45941 0.86348 0.38177 0.0
H2572 H 0.49572 0.86287 0.40816 0.0
S2573 S 0.53696 0.84246 0.31315 0.0
N2574 N 0.50668 0.84649 0.31334 0.0
N2575 N 0.54608 0.84623 0.34207 0.0
C2576 C 0.52416 0.85138 0.35323 0.0
C2577 C 0.50276 0.85137 0.33769 0.0
C2578 C 0.11174 0.26362 0.87068 0.0
C2579 C 0.10061 0.26296 0.89424 0.0
C2580 C 0.11332 0.24231 0.85604 0.0
C2581 C 0.10459 0.21947 0.86473 0.0
H2582 H 0.11747 0.28103 0.86261 0.0
H2583 H 0.11995 0.24401 0.8372 0.0
S2584 S 0.07716 0.20697 0.92628 0.0
N2585 N 0.08304 0.23695 0.92651 0.0
N2586 N 0.08668 0.19678 0.89909 0.0
C2587 C 0.09556 0.21804 0.88904 0.0
C2588 C 0.0934 0.23984 0.90379 0.0
C2589 C 0.50988 0.62782 0.37031 0.0
C2590 C 0.509 0.64154 0.34817 0.0
C2591 C 0.48918 0.62602 0.3858 0.0
C2592 C 0.46665 0.63731 0.37947 0.0
H2593 H 0.52717 0.62015 0.37686 0.0
H2594 H 0.49136 0.6174 0.40375 0.0
S2595 S 0.45316 0.67128 0.3215 0.0
N2596 N 0.48263 0.66361 0.31912 0.0
N2597 N 0.44365 0.65983 0.34817 0.0
C2598 C 0.46469 0.64866 0.35618 0.0
C2599 C 0.48591 0.6509 0.34055 0.0
C2600 C 0.62312 0.88364 0.76571 0.0
C2601 C 0.59876 0.8928 0.76505 0.0
C2602 C 0.6375 0.88235 0.74418 0.0
C2603 C 0.62784 0.88948 0.72114 0.0
H2604 H 0.63187 0.87928 0.78318 0.0
H2605 H 0.65679 0.87717 0.74581 0.0
S2606 S 0.56403 0.91119 0.70879 0.0
N2607 N 0.56478 0.9066 0.73897 0.0
N2608 N 0.59175 0.90355 0.69844 0.0
C2609 C 0.60286 0.89646 0.71983 0.0
C2610 C 0.58833 0.89829 0.74183 0.0
C2611 C 0.62547 0.10721 0.72889 0.0
C2612 C 0.60119 0.09782 0.72999 0.0
C2613 C 0.64038 0.10823 0.75006 0.0
C2614 C 0.63131 0.10068 0.7732 0.0
H2615 H 0.63373 0.11199 0.71127 0.0
H2616 H 0.6596 0.11355 0.74806 0.0
S2617 S 0.56806 0.07807 0.78678 0.0
N2618 N 0.568 0.0832 0.75666 0.0
N2619 N 0.59595 0.08583 0.79655 0.0
C2620 C 0.60645 0.09342 0.77501 0.0
C2621 C 0.59139 0.09181 0.75336 0.0
C2622 C 0.34398 0.13872 0.46717 0.0
C2623 C 0.35249 0.11418 0.46765 0.0
C2624 C 0.34317 0.15297 0.48892 0.0
C2625 C 0.35111 0.14323 0.51179 0.0
H2626 H 0.33585 0.14618 0.45045 0.0
H2627 H 0.33491 0.17121 0.48807 0.0
S2628 S 0.37797 0.08077 0.52168 0.0
N2629 N 0.37116 0.08151 0.49194 0.0
N2630 N 0.37013 0.10817 0.53263 0.0
C2631 C 0.36172 0.11943 0.51184 0.0
C2632 C 0.36225 0.10493 0.48981 0.0
C2633 C 0.35554 0.38607 0.74976 0.0
C2634 C 0.36546 0.39369 0.77255 0.0
C2635 C 0.36962 0.38711 0.728 0.0
C2636 C 0.39387 0.3966 0.72815 0.0
H2637 H 0.33632 0.38054 0.74854 0.0
H2638 H 0.36074 0.38223 0.71072 0.0
S2639 S 0.429 0.41689 0.78352 0.0
N2640 N 0.40158 0.40894 0.79442 0.0
N2641 N 0.42791 0.41165 0.75344 0.0
C2642 C 0.40448 0.40285 0.75109 0.0
C2643 C 0.3903 0.40121 0.77333 0.0
C2644 C 0.13012 0.88345 0.99246 0.0
C2645 C 0.13967 0.87521 0.96976 0.0
C2646 C 0.13187 0.86885 0.01379 0.0
C2647 C 0.14394 0.84577 0.01329 0.0
H2648 H 0.12282 0.90204 0.99412 0.0
H2649 H 0.12555 0.87667 0.03111 0.0
S2650 S 0.16934 0.81469 0.95757 0.0
N2651 N 0.1591 0.84156 0.94729 0.0
N2652 N 0.16298 0.81418 0.98745 0.0
C2653 C 0.15181 0.83652 0.99024 0.0
C2654 C 0.14952 0.85124 0.96842 0.0
C2655 C 0.88627 0.09786 0.22217 0.0
C2656 C 0.86101 0.10386 0.22288 0.0
C2657 C 0.90023 0.09649 0.24403 0.0
C2658 C 0.88948 0.10151 0.26726 0.0
H2659 H 0.89478 0.09218 0.20494 0.0
H2660 H 0.91921 0.09017 0.24285 0.0
S2661 S 0.82474 0.12173 0.27819 0.0
N2662 N 0.82637 0.11728 0.24803 0.0
N2663 N 0.85263 0.11562 0.28903 0.0
C2664 C 0.86478 0.10979 0.2678 0.0
C2665 C 0.85051 0.11067 0.24562 0.0
C2666 C 0.34379 0.85841 0.02254 0.0
C2667 C 0.34971 0.88368 0.0213 0.0
C2668 C 0.34272 0.8439 0.00101 0.0
C2669 C 0.34804 0.85408 0.97762 0.0
H2670 H 0.33806 0.85027 0.03993 0.0
H2671 H 0.33654 0.8249 0.00256 0.0
S2672 S 0.36767 0.91874 0.96527 0.0
N2673 N 0.36301 0.91781 0.99543 0.0
N2674 N 0.36189 0.89054 0.95507 0.0
C2675 C 0.35602 0.87886 0.97654 0.0
C2676 C 0.35657 0.89368 -0.00163 0.0
C2677 C 0.65265 0.65268 0.00044 0.0
C2678 C 0.64654 0.64211 0.97741 0.0
C2679 C 0.6509 0.63893 0.02241 0.0
C2680 C 0.64339 0.61406 0.02199 0.0
H2681 H 0.66004 0.67128 0.00137 0.0
H2682 H 0.65747 0.64715 0.03947 0.0
S2683 S 0.62278 0.57845 0.96724 0.0
N2684 N 0.63022 0.60589 0.95612 0.0
N2685 N 0.62773 0.58006 -0.00267 0.0
C2686 C 0.63562 0.60383 -0.00054 0.0
C2687 C 0.63695 0.61788 0.97717 0.0
C2688 C 0.24921 0.23087 0.47017 0.0
C2689 C 0.22516 0.23038 0.48017 0.0
C2690 C 0.26997 0.23133 0.48554 0.0
C2691 C 0.26721 0.23123 0.51134 0.0
H2692 H 0.2521 0.22865 0.45046 0.0
H2693 H 0.28805 0.22915 0.47718 0.0
S2694 S 0.20862 0.23796 0.54632 0.0
N2695 N 0.19996 0.23581 0.51712 0.0
N2696 N 0.23913 0.23661 0.54605 0.0
C2697 C 0.24346 0.23456 0.52137 0.0
C2698 C 0.22231 0.2342 0.50572 0.0
C2699 C 0.4813 0.49366 0.77071 0.0
C2700 C 0.48092 0.51831 0.76232 0.0
C2701 C 0.48124 0.47393 0.75401 0.0
C2702 C 0.4807 0.47831 0.72843 0.0
H2703 H 0.47951 0.48952 0.79023 0.0
H2704 H 0.47914 0.45537 0.76125 0.0
S2705 S 0.48701 0.539 0.69719 0.0
N2706 N 0.48563 0.54577 0.72694 0.0
N2707 N 0.48542 0.50856 0.69551 0.0
C2708 C 0.4839 0.50265 0.7199 0.0
C2709 C 0.48408 0.52275 0.7369 0.0
C2710 C 0.75053 0.26185 0.52337 0.0
C2711 C 0.72633 0.26211 0.51375 0.0
C2712 C 0.77107 0.26246 0.50769 0.0
C2713 C 0.76795 0.26343 0.48194 0.0
H2714 H 0.75366 0.26339 0.5431 0.0
H2715 H 0.78922 0.26467 0.51588 0.0
S2716 S 0.70895 0.25672 0.44761 0.0
N2717 N 0.7007 0.25758 0.477 0.0
N2718 N 0.73942 0.25871 0.44748 0.0
C2719 C 0.7441 0.25996 0.47215 0.0
C2720 C 0.72318 0.25925 0.48812 0.0
C2721 C 0.51104 0.99282 0.72228 0.0
C2722 C 0.51211 0.01715 0.73153 0.0
C2723 C 0.51069 0.97254 0.73827 0.0
C2724 C 0.51149 0.976 0.76399 0.0
H2725 H 0.51265 0.98933 0.70261 0.0
H2726 H 0.51227 0.95419 0.73035 0.0
S2727 S 0.50699 0.03577 0.79737 0.0
N2728 N 0.50839 0.0435 0.76787 0.0
N2729 N 0.50771 0.00525 0.79797 0.0
C2730 C 0.50892 0.00012 0.77339 0.0
C2731 C 0.5092 0.0208 0.7571 0.0
C2732 C 0.25245 0.76 0.02192 0.0
C2733 C 0.22801 0.76034 0.01295 0.0
C2734 C 0.27255 0.76048 0.00569 0.0
C2735 C 0.26872 0.76144 0.98005 0.0
H2736 H 0.2561 0.76165 0.04156 0.0
H2737 H 0.29092 0.76271 0.01338 0.0
S2738 S 0.20883 0.75475 0.94733 0.0
N2739 N 0.20137 0.75571 0.97693 0.0
N2740 N 0.23929 0.75669 0.94637 0.0
C2741 C 0.24463 0.75795 0.9709 0.0
C2742 C 0.22415 0.75734 0.98743 0.0
C2743 C 0.01198 0.50074 0.27223 0.0
C2744 C 0.01214 0.47634 0.26313 0.0
C2745 C 0.0119 0.5209 0.25608 0.0
C2746 C 0.01209 0.51715 0.23041 0.0
H2747 H 0.01422 0.50433 0.29182 0.0
H2748 H 0.01435 0.53924 0.26376 0.0
S2749 S 0.00457 0.45738 0.19766 0.0
N2750 N 0.00646 0.44981 0.22718 0.0
N2751 N 0.00636 0.48785 0.19677 0.0
C2752 C 0.00836 0.4931 0.22127 0.0
C2753 C 0.00833 0.47256 0.23772 0.0
C2754 C 0.75368 0.73093 0.96869 0.0
C2755 C 0.72946 0.73082 0.97828 0.0
C2756 C 0.77418 0.73154 0.9844 0.0
C2757 C 0.77103 0.73197 0.01016 0.0
H2758 H 0.75689 0.72838 0.94907 0.0
H2759 H 0.79237 0.72918 0.97635 0.0
S2760 S 0.71184 0.73964 0.04399 0.0
N2761 N 0.70367 0.73698 0.01469 0.0
N2762 N 0.74233 0.73817 0.04427 0.0
C2763 C 0.74711 0.73561 0.01972 0.0
C2764 C 0.72621 0.73505 0.00371 0.0
C2765 C 0.98069 0.99624 0.27425 0.0
C2766 C 0.98025 0.02035 0.26439 0.0
C2767 C 0.9816 0.97554 0.25878 0.0
C2768 C 0.98204 0.97837 0.23298 0.0
H2769 H 0.97815 0.99321 0.29389 0.0
H2770 H 0.97944 0.95742 0.26703 0.0
S2771 S 0.98912 0.0372 0.19847 0.0
N2772 N 0.98627 0.04571 0.22766 0.0
N2773 N 0.98797 0.00669 0.19856 0.0
C2774 C 0.98537 0.00221 0.22316 0.0
C2775 C 0.98451 0.02331 0.23892 0.0
C2776 C 0.47293 0.25196 0.2317 0.0
C2777 C 0.48361 0.22819 0.23128 0.0
C2778 C 0.48768 0.27316 0.23237 0.0
C2779 C 0.51357 0.27122 0.23259 0.0
H2780 H 0.45316 0.25429 0.22933 0.0
H2781 H 0.47879 0.29098 0.2302 0.0
S2782 S 0.55011 0.21361 0.23974 0.0
N2783 N 0.5212 0.2041 0.23713 0.0
N2784 N 0.54898 0.24409 0.23844 0.0
C2785 C 0.52422 0.24773 0.23601 0.0
C2786 C 0.50919 0.22611 0.23537 0.0
C2787 C 0.47276 0.23969 0.01063 0.0
C2788 C 0.47597 0.26545 0.01133 0.0
C2789 C 0.49322 0.22391 0.01061 0.0
C2790 C 0.51747 0.2334 0.0112 0.0
H2791 H 0.45454 0.23159 0.01257 0.0
H2792 H 0.48995 0.20421 0.01229 0.0
S2793 S 0.5353 0.29941 0.00557 0.0
N2794 N 0.5048 0.29972 0.00689 0.0
N2795 N 0.54337 0.26999 0.00689 0.0
C2796 C 0.5208 0.259 0.00817 0.0
C2797 C 0.49994 0.27508 0.00826 0.0
C2798 C 0.48733 0.72745 0.25599 0.0
C2799 C 0.51301 0.7292 0.25922 0.0
C2800 C 0.47278 0.74879 0.25522 0.0
C2801 C 0.48353 0.7724 0.25763 0.0
H2802 H 0.47813 0.70967 0.25669 0.0
H2803 H 0.45285 0.74666 0.25519 0.0
S2804 S 0.55061 0.78658 0.2584 0.0
N2805 N 0.54911 0.75608 0.25868 0.0
N2806 N 0.52168 0.7963 0.25737 0.0
C2807 C 0.5094 0.77436 0.25683 0.0
C2808 C 0.52422 0.75263 0.25766 0.0
C2809 C 0.99136 0.27621 0.98175 0.0
C2810 C 0.01525 0.26583 0.98147 0.0
C2811 C 0.97036 0.26121 0.98309 0.0
C2812 C 0.97265 0.23537 0.98407 0.0
H2813 H 0.98878 0.29586 0.97879 0.0
H2814 H 0.95241 0.26981 0.98079 0.0
S2815 S 0.03086 0.19976 0.99118 0.0
N2816 N 0.03993 0.22872 0.9878 0.0
N2817 N 0.00035 0.20047 0.99041 0.0
C2818 C 0.99633 0.22512 0.98751 0.0
C2819 C 0.01773 0.24041 0.98619 0.0
C2820 C 0.23298 0.50564 0.22379 0.0
C2821 C 0.23211 0.47985 0.22656 0.0
C2822 C 0.23332 0.52109 0.24451 0.0
C2823 C 0.23286 0.5112 0.26861 0.0
H2824 H 0.23096 0.51404 0.20571 0.0
H2825 H 0.23177 0.54085 0.2416 0.0
S2826 S 0.2381 0.44484 0.28522 0.0
N2827 N 0.23646 0.44507 0.25474 0.0
N2828 N 0.23712 0.47413 0.29381 0.0
C2829 C 0.23569 0.48552 0.27146 0.0
C2830 C 0.23525 0.46979 0.25033 0.0
C2831 C 0.72542 0.51212 -0.00273 0.0
C2832 C 0.73659 0.5147 0.02065 0.0
C2833 C 0.73971 0.5102 0.97582 0.0
C2834 C 0.76563 0.51088 0.97713 0.0
H2835 H 0.70554 0.5137 0.99525 0.0
H2836 H 0.73034 0.51069 0.95812 0.0
S2837 S 0.80362 0.50958 0.03428 0.0
N2838 N 0.77485 0.51206 0.04422 0.0
N2839 N 0.80179 0.50826 0.00383 0.0
C2840 C 0.77689 0.50962 0.00057 0.0
C2841 C 0.76232 0.51159 0.02244 0.0
C2842 C 0.76134 0.02165 0.24854 0.0
C2843 C 0.76224 0.0112 0.22469 0.0
C2844 C 0.76078 0.0067 0.26962 0.0
C2845 C 0.76115 0.98082 0.2675 0.0
H2846 H 0.76317 0.04144 0.25109 0.0
H2847 H 0.76244 0.01552 0.28753 0.0
S2848 S 0.75571 0.94459 0.20947 0.0
N2849 N 0.75769 0.97363 0.20025 0.0
N2850 N 0.75659 0.9455 0.23997 0.0
C2851 C 0.75837 0.97028 0.24386 0.0
C2852 C 0.7589 0.98551 0.22237 0.0
C2853 C 0.71855 0.48359 0.50239 0.0
C2854 C 0.7272 0.4835 0.47782 0.0
C2855 C 0.73506 0.48367 0.52226 0.0
C2856 C 0.76067 0.48358 0.51807 0.0
H2857 H 0.69903 0.4813 0.50633 0.0
H2858 H 0.72771 0.48118 0.54074 0.0
S2859 S 0.79237 0.49113 0.45775 0.0
N2860 N 0.76272 0.48923 0.4507 0.0
N2861 N 0.79379 0.4893 0.4882 0.0
C2862 C 0.76938 0.48728 0.49386 0.0
C2863 C 0.75257 0.48731 0.47362 0.0
C2864 C 0.26039 0.48483 0.72428 0.0
C2865 C 0.25914 0.51065 0.72663 0.0
C2866 C 0.26127 0.46979 0.74527 0.0
C2867 C 0.26092 0.48012 0.7692 0.0
H2868 H 0.26325 0.47633 0.70636 0.0
H2869 H 0.26448 0.45018 0.74266 0.0
S2870 S 0.24973 0.54603 0.78462 0.0
N2871 N 0.25158 0.54541 0.75415 0.0
N2872 N 0.25324 0.51711 0.79374 0.0
C2873 C 0.25582 0.50549 0.7716 0.0
C2874 C 0.25497 0.52081 0.7502 0.0
C2875 C 0.22108 0.00821 0.49421 0.0
C2876 C 0.23132 0.00941 0.51813 0.0
C2877 C 0.23622 0.00866 0.47327 0.0
C2878 C 0.26198 0.0104 0.47576 0.0
H2879 H 0.20124 0.00932 0.49157 0.0
H2880 H 0.22756 0.01032 0.45528 0.0
S2881 S 0.29795 0.00594 0.53396 0.0
N2882 N 0.26876 0.00631 0.54294 0.0
N2883 N 0.29727 0.00715 0.50346 0.0
C2884 C 0.27246 0.00765 0.49939 0.0
C2885 C 0.25705 0.0071 0.52072 0.0
C2886 C 0.02019 0.74262 0.73212 0.0
C2887 C 0.01143 0.76714 0.73159 0.0
C2888 C 0.00377 0.72268 0.73247 0.0
C2889 C 0.97813 0.72671 0.7322 0.0
H2890 H 0.03974 0.73874 0.73005 0.0
H2891 H 0.01125 0.7042 0.73039 0.0
S2892 S 0.94616 0.78706 0.73851 0.0
N2893 N 0.97579 0.7942 0.73659 0.0
N2894 N 0.94487 0.75658 0.73725 0.0
C2895 C 0.96931 0.75096 0.73542 0.0
C2896 C 0.98603 0.77129 0.73515 0.0
C2897 C 0.99382 0.72252 0.51043 0.0
C2898 C 0.01778 0.73275 0.51117 0.0
C2899 C 0.97288 0.73767 0.51041 0.0
C2900 C 0.97527 0.76352 0.51117 0.0
H2901 H 0.99113 0.70273 0.51203 0.0
H2902 H 0.9549 0.72901 0.51224 0.0
S2903 S 0.03354 0.79928 0.50546 0.0
N2904 N 0.04252 0.77013 0.50684 0.0
N2905 N 0.00304 0.79864 0.50677 0.0
C2906 C -0.00105 0.77388 0.5082 0.0
C2907 C 0.0203 0.75844 0.50816 0.0
C2908 C 0.0222 0.24749 0.76148 0.0
C2909 C 0.01263 0.2233 0.76281 0.0
C2910 C 0.00647 0.26795 0.76034 0.0
C2911 C 0.98069 0.26481 0.76058 0.0
H2912 H 0.04187 0.2508 0.76344 0.0
H2913 H 0.01457 0.28622 0.76176 0.0
S2914 S 0.94672 0.20539 0.75626 0.0
N2915 N 0.97608 0.19732 0.75859 0.0
N2916 N 0.94646 0.23592 0.75645 0.0
C2917 C 0.97107 0.24077 0.75824 0.0
C2918 C 0.9871 0.2199 0.75932 0.0
C2919 C 0.50483 0.7205 0.48198 0.0
C2920 C 0.48006 0.72852 0.48239 0.0
C2921 C 0.52429 0.73749 0.48218 0.0
C2922 C 0.51953 0.76301 0.48264 0.0
H2923 H 0.50923 0.70111 0.47941 0.0
H2924 H 0.54292 0.7306 0.47949 0.0
S2925 S 0.45852 0.79308 0.49121 0.0
N2926 N 0.45217 0.7633 0.48891 0.0
N2927 N 0.4889 0.79528 0.48907 0.0
C2928 C 0.49514 0.77106 0.48658 0.0
C2929 C 0.4753 0.75374 0.48654 0.0
C2930 C 0.73323 0.00181 0.72433 0.0
C2931 C 0.73193 0.97601 0.72696 0.0
C2932 C 0.7328 0.01718 0.7451 0.0
C2933 C 0.73114 0.00724 0.76911 0.0
H2934 H 0.73215 0.01031 0.70623 0.0
H2935 H 0.73167 0.03698 0.74218 0.0
S2936 S 0.73488 0.94081 0.78576 0.0
N2937 N 0.73468 0.94112 0.75523 0.0
N2938 N 0.73379 0.97009 0.79438 0.0
C2939 C 0.73353 0.98153 0.77201 0.0
C2940 C 0.73392 0.96586 0.75083 0.0
C2941 C 0.23368 0.98322 0.02229 0.0
C2942 C 0.2595 0.98412 0.01971 0.0
C2943 C 0.21848 0.98134 0.00148 0.0
C2944 C 0.22864 0.98048 0.97752 0.0
H2945 H 0.22525 0.98135 0.04037 0.0
H2946 H 0.19886 0.97844 0.00433 0.0
S2947 S 0.29451 0.99014 0.96103 0.0
N2948 N 0.29411 0.98998 0.99156 0.0
N2949 N 0.26548 0.98643 0.95232 0.0
C2950 C 0.25402 0.98523 0.97466 0.0
C2951 C 0.26951 0.98706 0.99588 0.0
loop_
_geom_bond_atom_site_label_1
_geom_bond_atom_site_label_2
_geom_bond_distance
_geom_bond_site_symmetry_2
_ccdc_geom_bond_type
Co0 O3 1.970 . S
Co0 N17 1.989 . S
Co0 O25 1.967 . S
Co0 O32 1.920 . S
Co1 O4 1.966 . S
Co1 N10 2.022 . S
Co1 N18 1.993 . S
Co1 O26 1.941 . S
C2 O3 1.258 . S
C2 O4 1.263 . S
O3 Co0 1.970 . S
O3 C2 1.258 . S
O4 Co1 1.966 . S
O4 C2 1.263 . S
C5 O6 1.235 . S
C5 O32 1.289 . S
O6 C5 1.235 . S
C7 C9 1.400 . S
C7 N10 1.351 . S
C7 C12 1.501 . S
C8 C9 1.387 . S
C8 N11 1.341 . S
C9 C7 1.400 . S
C9 C8 1.387 . S
N10 Co1 2.022 . S
N10 C7 1.351 . S
N10 N11 1.365 . S
N11 C8 1.341 . S
N11 N10 1.365 . S
N11 H31 0.862 . S
C12 C7 1.501 . S
C12 H13 0.961 . S
C12 H14 0.961 . S
C12 H15 0.960 . S
H13 C12 0.961 . S
H14 C12 0.961 . S
H15 C12 0.960 . S
C16 N17 1.342 . S
C16 C20 1.401 . S
C16 C21 1.499 . S
N17 Co0 1.989 . S
N17 C16 1.342 . S
N17 N18 1.388 . S
N18 Co1 1.993 . S
N18 N17 1.388 . S
N18 C19 1.346 . S
C19 N18 1.346 . S
C19 C20 1.396 . S
C19 C29 1.510 . S
C20 C16 1.401 . S
C20 C19 1.396 . S
C21 C16 1.499 . S
C21 H22 0.959 . S
C21 H23 0.960 . S
C21 H24 0.961 . S
H22 C21 0.959 . S
H23 C21 0.960 . S
H24 C21 0.961 . S
O25 Co0 1.967 . S
O25 C33 1.258 . S
O26 Co1 1.941 . S
O26 C33 1.266 . S
H27 C29 0.959 . S
H28 C29 0.961 . S
C29 C19 1.510 . S
C29 H27 0.959 . S
C29 H28 0.961 . S
C29 H30 0.960 . S
H30 C29 0.960 . S
H31 N11 0.862 . S
O32 Co0 1.920 . S
O32 C5 1.289 . S
C33 O25 1.258 . S
C33 O26 1.266 . S
Co34 O37 1.970 . S
Co34 N51 1.989 . S
Co34 O59 1.967 . S
Co34 O66 1.920 . S
Co35 O38 1.966 . S
Co35 N44 2.022 . S
Co35 N52 1.993 . S
Co35 O60 1.941 . S
C36 O37 1.258 . S
C36 O38 1.263 . S
O37 Co34 1.970 . S
O37 C36 1.258 . S
O38 Co35 1.966 . S
O38 C36 1.263 . S
C39 O40 1.235 . S
C39 O66 1.289 . S
O40 C39 1.235 . S
C41 C43 1.400 . S
C41 N44 1.351 . S
C41 C46 1.501 . S
C42 C43 1.387 . S
C42 N45 1.341 . S
C43 C41 1.400 . S
C43 C42 1.387 . S
N44 Co35 2.022 . S
N44 C41 1.351 . S
N44 N45 1.365 . S
N45 C42 1.341 . S
N45 N44 1.365 . S
N45 H65 0.862 . S
C46 C41 1.501 . S
C46 H47 0.961 . S
C46 H48 0.961 . S
C46 H49 0.960 . S
H47 C46 0.961 . S
H48 C46 0.961 . S
H49 C46 0.960 . S
C50 N51 1.342 . S
C50 C54 1.401 . S
C50 C55 1.499 . S
N51 Co34 1.989 . S
N51 C50 1.342 . S
N51 N52 1.388 . S
N52 Co35 1.993 . S
N52 N51 1.388 . S
N52 C53 1.346 . S
C53 N52 1.346 . S
C53 C54 1.396 . S
C53 C63 1.510 . S
C54 C50 1.401 . S
C54 C53 1.396 . S
C55 C50 1.499 . S
C55 H56 0.959 . S
C55 H57 0.960 . S
C55 H58 0.961 . S
H56 C55 0.959 . S
H57 C55 0.960 . S
H58 C55 0.961 . S
O59 Co34 1.967 . S
O59 C67 1.258 . S
O60 Co35 1.941 . S
O60 C67 1.266 . S
H61 C63 0.959 . S
H62 C63 0.961 . S
C63 C53 1.510 . S
C63 H61 0.959 . S
C63 H62 0.961 . S
C63 H64 0.960 . S
H64 C63 0.960 . S
H65 N45 0.862 . S
O66 Co34 1.920 . S
O66 C39 1.289 . S
C67 O59 1.258 . S
C67 O60 1.266 . S
Co68 O71 1.970 . S
Co68 N85 1.989 . S
Co68 O93 1.967 . S
Co68 O100 1.920 . S
Co69 O72 1.966 . S
Co69 N78 2.022 . S
Co69 N86 1.993 . S
Co69 O94 1.941 . S
C70 O71 1.258 . S
C70 O72 1.263 . S
O71 Co68 1.970 . S
O71 C70 1.258 . S
O72 Co69 1.966 . S
O72 C70 1.263 . S
C73 O74 1.235 . S
C73 O100 1.289 . S
O74 C73 1.235 . S
C75 C77 1.400 . S
C75 N78 1.351 . S
C75 C80 1.501 . S
C76 C77 1.387 . S
C76 N79 1.341 . S
C77 C75 1.400 . S
C77 C76 1.387 . S
N78 Co69 2.022 . S
N78 C75 1.351 . S
N78 N79 1.365 . S
N79 C76 1.341 . S
N79 N78 1.365 . S
N79 H99 0.862 . S
C80 C75 1.501 . S
C80 H81 0.961 . S
C80 H82 0.961 . S
C80 H83 0.960 . S
H81 C80 0.961 . S
H82 C80 0.961 . S
H83 C80 0.960 . S
C84 N85 1.342 . S
C84 C88 1.401 . S
C84 C89 1.499 . S
N85 Co68 1.989 . S
N85 C84 1.342 . S
N85 N86 1.388 . S
N86 Co69 1.993 . S
N86 N85 1.388 . S
N86 C87 1.346 . S
C87 N86 1.346 . S
C87 C88 1.396 . S
C87 C97 1.510 . S
C88 C84 1.401 . S
C88 C87 1.396 . S
C89 C84 1.499 . S
C89 H90 0.959 . S
C89 H91 0.960 . S
C89 H92 0.961 . S
H90 C89 0.959 . S
H91 C89 0.960 . S
H92 C89 0.961 . S
O93 Co68 1.967 . S
O93 C101 1.258 . S
O94 Co69 1.941 . S
O94 C101 1.266 . S
H95 C97 0.959 . S
H96 C97 0.961 . S
C97 C87 1.510 . S
C97 H95 0.959 . S
C97 H96 0.961 . S
C97 H98 0.960 . S
H98 C97 0.960 . S
H99 N79 0.862 . S
O100 Co68 1.920 . S
O100 C73 1.289 . S
C101 O93 1.258 . S
C101 O94 1.266 . S
Co102 O105 1.970 . S
Co102 N119 1.989 . S
Co102 O127 1.967 . S
Co102 O134 1.920 . S
Co103 O106 1.966 . S
Co103 N112 2.022 . S
Co103 N120 1.993 . S
Co103 O128 1.941 . S
C104 O105 1.258 . S
C104 O106 1.263 . S
O105 Co102 1.970 . S
O105 C104 1.258 . S
O106 Co103 1.966 . S
O106 C104 1.263 . S
C107 O108 1.235 . S
C107 O134 1.289 . S
O108 C107 1.235 . S
C109 C111 1.400 . S
C109 N112 1.351 . S
C109 C114 1.501 . S
C110 C111 1.387 . S
C110 N113 1.341 . S
C111 C109 1.400 . S
C111 C110 1.387 . S
N112 Co103 2.022 . S
N112 C109 1.351 . S
N112 N113 1.365 . S
N113 C110 1.341 . S
N113 N112 1.365 . S
N113 H133 0.862 . S
C114 C109 1.501 . S
C114 H115 0.961 . S
C114 H116 0.961 . S
C114 H117 0.960 . S
H115 C114 0.961 . S
H116 C114 0.961 . S
H117 C114 0.960 . S
C118 N119 1.342 . S
C118 C122 1.401 . S
C118 C123 1.499 . S
N119 Co102 1.989 . S
N119 C118 1.342 . S
N119 N120 1.388 . S
N120 Co103 1.993 . S
N120 N119 1.388 . S
N120 C121 1.346 . S
C121 N120 1.346 . S
C121 C122 1.396 . S
C121 C131 1.510 . S
C122 C118 1.401 . S
C122 C121 1.396 . S
C123 C118 1.499 . S
C123 H124 0.959 . S
C123 H125 0.960 . S
C123 H126 0.961 . S
H124 C123 0.959 . S
H125 C123 0.960 . S
H126 C123 0.961 . S
O127 Co102 1.967 . S
O127 C135 1.258 . S
O128 Co103 1.941 . S
O128 C135 1.266 . S
H129 C131 0.959 . S
H130 C131 0.961 . S
C131 C121 1.510 . S
C131 H129 0.959 . S
C131 H130 0.961 . S
C131 H132 0.960 . S
H132 C131 0.960 . S
H133 N113 0.862 . S
O134 Co102 1.920 . S
O134 C107 1.289 . S
C135 O127 1.258 . S
C135 O128 1.266 . S
Co136 O139 1.970 . S
Co136 N153 1.989 . S
Co136 O161 1.967 . S
Co136 O168 1.920 . S
Co137 O140 1.966 . S
Co137 N146 2.022 . S
Co137 N154 1.993 . S
Co137 O162 1.941 . S
C138 O139 1.258 . S
C138 O140 1.263 . S
O139 Co136 1.970 . S
O139 C138 1.258 . S
O140 Co137 1.966 . S
O140 C138 1.263 . S
C141 O142 1.235 . S
C141 O168 1.289 . S
O142 C141 1.235 . S
C143 C145 1.400 . S
C143 N146 1.351 . S
C143 C148 1.501 . S
C144 C145 1.387 . S
C144 N147 1.341 . S
C145 C143 1.400 . S
C145 C144 1.387 . S
N146 Co137 2.022 . S
N146 C143 1.351 . S
N146 N147 1.365 . S
N147 C144 1.341 . S
N147 N146 1.365 . S
N147 H167 0.862 . S
C148 C143 1.501 . S
C148 H149 0.961 . S
C148 H150 0.961 . S
C148 H151 0.960 . S
H149 C148 0.961 . S
H150 C148 0.961 . S
H151 C148 0.960 . S
C152 N153 1.342 . S
C152 C156 1.401 . S
C152 C157 1.499 . S
N153 Co136 1.989 . S
N153 C152 1.342 . S
N153 N154 1.388 . S
N154 Co137 1.993 . S
N154 N153 1.388 . S
N154 C155 1.346 . S
C155 N154 1.346 . S
C155 C156 1.396 . S
C155 C165 1.510 . S
C156 C152 1.401 . S
C156 C155 1.396 . S
C157 C152 1.499 . S
C157 H158 0.959 . S
C157 H159 0.960 . S
C157 H160 0.961 . S
H158 C157 0.959 . S
H159 C157 0.960 . S
H160 C157 0.961 . S
O161 Co136 1.967 . S
O161 C169 1.258 . S
O162 Co137 1.941 . S
O162 C169 1.266 . S
H163 C165 0.959 . S
H164 C165 0.961 . S
C165 C155 1.510 . S
C165 H163 0.959 . S
C165 H164 0.961 . S
C165 H166 0.960 . S
H166 C165 0.960 . S
H167 N147 0.862 . S
O168 Co136 1.920 . S
O168 C141 1.289 . S
C169 O161 1.258 . S
C169 O162 1.266 . S
Co170 O173 1.970 . S
Co170 N187 1.989 . S
Co170 O195 1.967 . S
Co170 O202 1.920 . S
Co171 O174 1.966 . S
Co171 N180 2.022 . S
Co171 N188 1.993 . S
Co171 O196 1.941 . S
C172 O173 1.258 . S
C172 O174 1.263 . S
O173 Co170 1.970 . S
O173 C172 1.258 . S
O174 Co171 1.966 . S
O174 C172 1.263 . S
C175 O176 1.235 . S
C175 O202 1.289 . S
O176 C175 1.235 . S
C177 C179 1.400 . S
C177 N180 1.351 . S
C177 C182 1.501 . S
C178 C179 1.387 . S
C178 N181 1.341 . S
C179 C177 1.400 . S
C179 C178 1.387 . S
N180 Co171 2.022 . S
N180 C177 1.351 . S
N180 N181 1.365 . S
N181 C178 1.341 . S
N181 N180 1.365 . S
N181 H201 0.862 . S
C182 C177 1.501 . S
C182 H183 0.961 . S
C182 H184 0.961 . S
C182 H185 0.960 . S
H183 C182 0.961 . S
H184 C182 0.961 . S
H185 C182 0.960 . S
C186 N187 1.342 . S
C186 C190 1.401 . S
C186 C191 1.499 . S
N187 Co170 1.989 . S
N187 C186 1.342 . S
N187 N188 1.388 . S
N188 Co171 1.993 . S
N188 N187 1.388 . S
N188 C189 1.346 . S
C189 N188 1.346 . S
C189 C190 1.396 . S
C189 C199 1.510 . S
C190 C186 1.401 . S
C190 C189 1.396 . S
C191 C186 1.499 . S
C191 H192 0.959 . S
C191 H193 0.960 1_455 S
C191 H194 0.951 1_455 S
H192 C191 0.959 . S
H193 C191 0.960 1_655 S
H194 C191 0.951 1_655 S
O195 Co170 1.967 . S
O195 C203 1.258 . S
O196 Co171 1.941 . S
O196 C203 1.266 . S
H197 C199 0.959 . S
H198 C199 0.961 . S
C199 C189 1.510 . S
C199 H197 0.959 . S
C199 H198 0.961 . S
C199 H200 0.960 . S
H200 C199 0.960 . S
H201 N181 0.862 . S
O202 Co170 1.920 . S
O202 C175 1.289 . S
C203 O195 1.258 . S
C203 O196 1.266 . S
Co204 O207 1.970 . S
Co204 N221 1.989 . S
Co204 O229 1.967 . S
Co204 O236 1.920 . S
Co205 O208 1.966 . S
Co205 N214 2.022 . S
Co205 N222 1.993 . S
Co205 O230 1.941 . S
C206 O207 1.258 . S
C206 O208 1.263 . S
O207 Co204 1.970 . S
O207 C206 1.258 . S
O208 Co205 1.966 . S
O208 C206 1.263 . S
C209 O210 1.235 . S
C209 O236 1.289 . S
O210 C209 1.235 . S
C211 C213 1.400 . S
C211 N214 1.351 . S
C211 C216 1.501 . S
C212 C213 1.387 . S
C212 N215 1.341 . S
C213 C211 1.400 . S
C213 C212 1.387 . S
N214 Co205 2.022 . S
N214 C211 1.351 . S
N214 N215 1.365 . S
N215 C212 1.341 . S
N215 N214 1.365 . S
N215 H235 0.862 . S
C216 C211 1.501 . S
C216 H217 0.961 . S
C216 H218 0.961 . S
C216 H219 0.960 . S
H217 C216 0.961 . S
H218 C216 0.961 . S
H219 C216 0.960 . S
C220 N221 1.342 . S
C220 C224 1.401 . S
C220 C225 1.499 . S
N221 Co204 1.989 . S
N221 C220 1.342 . S
N221 N222 1.388 . S
N222 Co205 1.993 . S
N222 N221 1.388 . S
N222 C223 1.346 . S
C223 N222 1.346 . S
C223 C224 1.396 . S
C223 C233 1.510 . S
C224 C220 1.401 . S
C224 C223 1.396 . S
C225 C220 1.499 . S
C225 H226 0.959 . S
C225 H227 0.960 . S
C225 H228 0.961 . S
H226 C225 0.959 . S
H227 C225 0.960 . S
H228 C225 0.961 . S
O229 Co204 1.967 . S
O229 C237 1.258 . S
O230 Co205 1.941 . S
O230 C237 1.266 . S
H231 C233 0.959 . S
H232 C233 0.961 . S
C233 C223 1.510 . S
C233 H231 0.959 . S
C233 H232 0.961 . S
C233 H234 0.960 . S
H234 C233 0.960 . S
H235 N215 0.862 . S
O236 Co204 1.920 . S
O236 C209 1.289 . S
C237 O229 1.258 . S
C237 O230 1.266 . S
Co238 O241 1.970 . S
Co238 N255 1.989 . S
Co238 O263 1.967 . S
Co238 O270 1.920 . S
Co239 O242 1.966 . S
Co239 N248 2.022 . S
Co239 N256 1.993 . S
Co239 O264 1.941 . S
C240 O241 1.258 . S
C240 O242 1.263 . S
O241 Co238 1.970 . S
O241 C240 1.258 . S
O242 Co239 1.966 . S
O242 C240 1.263 . S
C243 O244 1.235 . S
C243 O270 1.289 . S
O244 C243 1.235 . S
C245 C247 1.400 . S
C245 N248 1.351 . S
C245 C250 1.501 . S
C246 C247 1.387 . S
C246 N249 1.341 . S
C247 C245 1.400 . S
C247 C246 1.387 . S
N248 Co239 2.022 . S
N248 C245 1.351 . S
N248 N249 1.365 . S
N249 C246 1.341 . S
N249 N248 1.365 . S
N249 H269 0.862 . S
C250 C245 1.501 . S
C250 H251 0.961 . S
C250 H252 0.961 . S
C250 H253 0.960 . S
H251 C250 0.961 . S
H252 C250 0.961 . S
H253 C250 0.960 . S
C254 N255 1.342 . S
C254 C258 1.401 . S
C254 C259 1.499 . S
N255 Co238 1.989 . S
N255 C254 1.342 . S
N255 N256 1.388 . S
N256 Co239 1.993 . S
N256 N255 1.388 . S
N256 C257 1.346 . S
C257 N256 1.346 . S
C257 C258 1.396 . S
C257 C267 1.510 . S
C258 C254 1.401 . S
C258 C257 1.396 . S
C259 C254 1.499 . S
C259 H260 0.959 . S
C259 H261 0.960 1_655 S
C259 H262 0.951 1_655 S
H260 C259 0.959 . S
H261 C259 0.960 1_455 S
H262 C259 0.951 1_455 S
O263 Co238 1.967 . S
O263 C271 1.258 . S
O264 Co239 1.941 . S
O264 C271 1.266 . S
H265 C267 0.959 . S
H266 C267 0.961 . S
C267 C257 1.510 . S
C267 H265 0.959 . S
C267 H266 0.961 . S
C267 H268 0.960 . S
H268 C267 0.960 . S
H269 N249 0.862 . S
O270 Co238 1.920 . S
O270 C243 1.289 . S
C271 O263 1.258 . S
C271 O264 1.266 . S
Co272 O275 1.970 . S
Co272 N289 1.989 . S
Co272 O297 1.967 . S
Co272 O304 1.920 . S
Co273 O276 1.966 . S
Co273 N282 2.022 . S
Co273 N290 1.993 . S
Co273 O298 1.941 . S
C274 O275 1.258 . S
C274 O276 1.263 . S
O275 Co272 1.970 . S
O275 C274 1.258 . S
O276 Co273 1.966 . S
O276 C274 1.263 . S
C277 O278 1.235 . S
C277 O304 1.289 . S
O278 C277 1.235 . S
C279 C281 1.400 . S
C279 N282 1.351 . S
C279 C284 1.501 . S
C280 C281 1.387 . S
C280 N283 1.341 . S
C281 C279 1.400 . S
C281 C280 1.387 . S
N282 Co273 2.022 . S
N282 C279 1.351 . S
N282 N283 1.365 . S
N283 C280 1.341 . S
N283 N282 1.365 . S
N283 H303 0.862 . S
C284 C279 1.501 . S
C284 H285 0.961 . S
C284 H286 0.961 . S
C284 H287 0.960 . S
H285 C284 0.961 . S
H286 C284 0.961 . S
H287 C284 0.960 . S
C288 N289 1.342 . S
C288 C292 1.401 . S
C288 C293 1.499 . S
N289 Co272 1.989 . S
N289 C288 1.342 . S
N289 N290 1.388 . S
N290 Co273 1.993 . S
N290 N289 1.388 . S
N290 C291 1.346 . S
C291 N290 1.346 . S
C291 C292 1.396 . S
C291 C301 1.510 . S
C292 C288 1.401 . S
C292 C291 1.396 . S
C293 C288 1.499 . S
C293 H294 0.959 . S
C293 H295 0.960 . S
C293 H296 0.961 . S
H294 C293 0.959 . S
H295 C293 0.960 . S
H296 C293 0.961 . S
O297 Co272 1.967 . S
O297 C305 1.258 . S
O298 Co273 1.941 . S
O298 C305 1.266 . S
H299 C301 0.959 . S
H300 C301 0.961 . S
C301 C291 1.510 . S
C301 H299 0.959 . S
C301 H300 0.961 . S
C301 H302 0.960 . S
H302 C301 0.960 . S
H303 N283 0.862 . S
O304 Co272 1.920 . S
O304 C277 1.289 . S
C305 O297 1.258 . S
C305 O298 1.266 . S
Co306 O309 1.970 . S
Co306 N323 1.989 . S
Co306 O331 1.967 . S
Co306 O338 1.920 . S
Co307 O310 1.966 . S
Co307 N316 2.022 . S
Co307 N324 1.993 . S
Co307 O332 1.941 . S
C308 O309 1.258 . S
C308 O310 1.263 . S
O309 Co306 1.970 . S
O309 C308 1.258 . S
O310 Co307 1.966 . S
O310 C308 1.263 . S
C311 O312 1.235 . S
C311 O338 1.289 . S
O312 C311 1.235 . S
C313 C315 1.400 . S
C313 N316 1.351 . S
C313 C318 1.501 . S
C314 C315 1.387 . S
C314 N317 1.341 . S
C315 C313 1.400 . S
C315 C314 1.387 . S
N316 Co307 2.022 . S
N316 C313 1.351 . S
N316 N317 1.365 . S
N317 C314 1.341 . S
N317 N316 1.365 . S
N317 H337 0.862 . S
C318 C313 1.501 . S
C318 H319 0.961 . S
C318 H320 0.961 . S
C318 H321 0.960 . S
H319 C318 0.961 . S
H320 C318 0.961 . S
H321 C318 0.960 . S
C322 N323 1.342 . S
C322 C326 1.401 . S
C322 C327 1.499 . S
N323 Co306 1.989 . S
N323 C322 1.342 . S
N323 N324 1.388 . S
N324 Co307 1.993 . S
N324 N323 1.388 . S
N324 C325 1.346 . S
C325 N324 1.346 . S
C325 C326 1.396 . S
C325 C335 1.510 . S
C326 C322 1.401 . S
C326 C325 1.396 . S
C327 C322 1.499 . S
C327 H328 0.959 . S
C327 H329 0.960 1_554 S
C327 H330 0.951 1_554 S
H328 C327 0.959 . S
H329 C327 0.960 1_556 S
H330 C327 0.951 1_556 S
O331 Co306 1.967 . S
O331 C339 1.258 . S
O332 Co307 1.941 . S
O332 C339 1.266 . S
H333 C335 0.959 . S
H334 C335 0.961 . S
C335 C325 1.510 . S
C335 H333 0.959 . S
C335 H334 0.961 . S
C335 H336 0.960 . S
H336 C335 0.960 . S
H337 N317 0.862 . S
O338 Co306 1.920 . S
O338 C311 1.289 . S
C339 O331 1.258 . S
C339 O332 1.266 . S
Co340 O343 1.970 . S
Co340 N357 1.989 . S
Co340 O365 1.967 . S
Co340 O372 1.920 . S
Co341 O344 1.966 . S
Co341 N350 2.022 . S
Co341 N358 1.993 . S
Co341 O366 1.941 . S
C342 O343 1.258 . S
C342 O344 1.263 . S
O343 Co340 1.970 . S
O343 C342 1.258 . S
O344 Co341 1.966 . S
O344 C342 1.263 . S
C345 O346 1.235 . S
C345 O372 1.289 . S
O346 C345 1.235 . S
C347 C349 1.400 . S
C347 N350 1.351 . S
C347 C352 1.501 . S
C348 C349 1.387 . S
C348 N351 1.341 . S
C349 C347 1.400 . S
C349 C348 1.387 . S
N350 Co341 2.022 . S
N350 C347 1.351 . S
N350 N351 1.365 . S
N351 C348 1.341 . S
N351 N350 1.365 . S
N351 H371 0.862 . S
C352 C347 1.501 . S
C352 H353 0.961 . S
C352 H354 0.961 . S
C352 H355 0.960 . S
H353 C352 0.961 . S
H354 C352 0.961 . S
H355 C352 0.960 . S
C356 N357 1.342 . S
C356 C360 1.401 . S
C356 C361 1.499 . S
N357 Co340 1.989 . S
N357 C356 1.342 . S
N357 N358 1.388 . S
N358 Co341 1.993 . S
N358 N357 1.388 . S
N358 C359 1.346 . S
C359 N358 1.346 . S
C359 C360 1.396 . S
C359 C369 1.510 . S
C360 C356 1.401 . S
C360 C359 1.396 . S
C361 C356 1.499 . S
C361 H362 0.959 . S
C361 H363 0.960 . S
C361 H364 0.961 . S
H362 C361 0.959 . S
H363 C361 0.960 . S
H364 C361 0.961 . S
O365 Co340 1.967 . S
O365 C373 1.258 . S
O366 Co341 1.941 . S
O366 C373 1.266 . S
H367 C369 0.959 . S
H368 C369 0.961 . S
C369 C359 1.510 . S
C369 H367 0.959 . S
C369 H368 0.961 . S
C369 H370 0.960 . S
H370 C369 0.960 . S
H371 N351 0.862 . S
O372 Co340 1.920 . S
O372 C345 1.289 . S
C373 O365 1.258 . S
C373 O366 1.266 . S
Co374 O377 1.970 . S
Co374 N391 1.989 . S
Co374 O399 1.967 . S
Co374 O406 1.920 . S
Co375 O378 1.966 . S
Co375 N384 2.022 . S
Co375 N392 1.993 . S
Co375 O400 1.941 . S
C376 O377 1.258 . S
C376 O378 1.263 . S
O377 Co374 1.970 . S
O377 C376 1.258 . S
O378 Co375 1.966 . S
O378 C376 1.263 . S
C379 O380 1.235 . S
C379 O406 1.289 . S
O380 C379 1.235 . S
C381 C383 1.400 . S
C381 N384 1.351 . S
C381 C386 1.501 . S
C382 C383 1.387 . S
C382 N385 1.341 . S
C383 C381 1.400 . S
C383 C382 1.387 . S
N384 Co375 2.022 . S
N384 C381 1.351 . S
N384 N385 1.365 . S
N385 C382 1.341 . S
N385 N384 1.365 . S
N385 H405 0.862 . S
C386 C381 1.501 . S
C386 H387 0.961 . S
C386 H388 0.961 . S
C386 H389 0.960 . S
H387 C386 0.961 . S
H388 C386 0.961 . S
H389 C386 0.960 . S
C390 N391 1.342 . S
C390 C394 1.401 . S
C390 C395 1.499 . S
N391 Co374 1.989 . S
N391 C390 1.342 . S
N391 N392 1.388 . S
N392 Co375 1.993 . S
N392 N391 1.388 . S
N392 C393 1.346 . S
C393 N392 1.346 . S
C393 C394 1.396 . S
C393 C403 1.510 . S
C394 C390 1.401 . S
C394 C393 1.396 . S
C395 C390 1.499 . S
C395 H396 0.959 . S
C395 H397 0.960 1_554 S
C395 H398 0.951 1_554 S
H396 C395 0.959 . S
H397 C395 0.960 1_556 S
H398 C395 0.951 1_556 S
O399 Co374 1.967 . S
O399 C407 1.258 . S
O400 Co375 1.941 . S
O400 C407 1.266 . S
H401 C403 0.959 . S
H402 C403 0.961 . S
C403 C393 1.510 . S
C403 H401 0.959 . S
C403 H402 0.961 . S
C403 H404 0.960 . S
H404 C403 0.960 . S
H405 N385 0.862 . S
O406 Co374 1.920 . S
O406 C379 1.289 . S
C407 O399 1.258 . S
C407 O400 1.266 . S
Co408 O411 1.970 . S
Co408 N425 1.989 . S
Co408 O433 1.967 . S
Co408 O440 1.920 . S
Co409 O412 1.966 . S
Co409 N418 2.022 . S
Co409 N426 1.993 . S
Co409 O434 1.941 . S
C410 O411 1.258 . S
C410 O412 1.263 . S
O411 Co408 1.970 . S
O411 C410 1.258 . S
O412 Co409 1.966 . S
O412 C410 1.263 . S
C413 O414 1.235 . S
C413 O440 1.289 . S
O414 C413 1.235 . S
C415 C417 1.400 . S
C415 N418 1.351 . S
C415 C420 1.501 . S
C416 C417 1.387 . S
C416 N419 1.341 . S
C417 C415 1.400 . S
C417 C416 1.387 . S
N418 Co409 2.022 . S
N418 C415 1.351 . S
N418 N419 1.365 . S
N419 C416 1.341 . S
N419 N418 1.365 . S
N419 H439 0.862 . S
C420 C415 1.501 . S
C420 H421 0.961 . S
C420 H422 0.961 . S
C420 H423 0.960 . S
H421 C420 0.961 . S
H422 C420 0.961 . S
H423 C420 0.960 . S
C424 N425 1.342 . S
C424 C428 1.401 . S
C424 C429 1.499 . S
N425 Co408 1.989 . S
N425 C424 1.342 . S
N425 N426 1.388 . S
N426 Co409 1.993 . S
N426 N425 1.388 . S
N426 C427 1.346 . S
C427 N426 1.346 . S
C427 C428 1.396 . S
C427 C437 1.510 . S
C428 C424 1.401 . S
C428 C427 1.396 . S
C429 C424 1.499 . S
C429 H430 0.959 . S
C429 H431 0.960 . S
C429 H432 0.961 . S
H430 C429 0.959 . S
H431 C429 0.960 . S
H432 C429 0.961 . S
O433 Co408 1.967 . S
O433 C441 1.258 . S
O434 Co409 1.941 . S
O434 C441 1.266 . S
H435 C437 0.959 . S
H436 C437 0.961 . S
C437 C427 1.510 . S
C437 H435 0.959 . S
C437 H436 0.961 . S
C437 H438 0.960 . S
H438 C437 0.960 . S
H439 N419 0.862 . S
O440 Co408 1.920 . S
O440 C413 1.289 . S
C441 O433 1.258 . S
C441 O434 1.266 . S
Co442 O445 1.970 . S
Co442 N459 1.989 . S
Co442 O467 1.967 . S
Co442 O474 1.920 . S
Co443 O446 1.966 . S
Co443 N452 2.022 . S
Co443 N460 1.993 . S
Co443 O468 1.941 . S
C444 O445 1.258 . S
C444 O446 1.263 . S
O445 Co442 1.970 . S
O445 C444 1.258 . S
O446 Co443 1.966 . S
O446 C444 1.263 . S
C447 O448 1.235 . S
C447 O474 1.289 . S
O448 C447 1.235 . S
C449 C451 1.400 . S
C449 N452 1.351 . S
C449 C454 1.501 . S
C450 C451 1.387 . S
C450 N453 1.341 . S
C451 C449 1.400 . S
C451 C450 1.387 . S
N452 Co443 2.022 . S
N452 C449 1.351 . S
N452 N453 1.365 . S
N453 C450 1.341 . S
N453 N452 1.365 . S
N453 H473 0.862 . S
C454 C449 1.501 . S
C454 H455 0.961 . S
C454 H456 0.961 . S
C454 H457 0.960 . S
H455 C454 0.961 . S
H456 C454 0.961 . S
H457 C454 0.960 . S
C458 N459 1.342 . S
C458 C462 1.401 . S
C458 C463 1.499 . S
N459 Co442 1.989 . S
N459 C458 1.342 . S
N459 N460 1.388 . S
N460 Co443 1.993 . S
N460 N459 1.388 . S
N460 C461 1.346 . S
C461 N460 1.346 . S
C461 C462 1.396 . S
C461 C471 1.510 . S
C462 C458 1.401 . S
C462 C461 1.396 . S
C463 C458 1.499 . S
C463 H464 0.959 . S
C463 H465 0.960 1_556 S
C463 H466 0.951 1_556 S
H464 C463 0.959 . S
H465 C463 0.960 1_554 S
H466 C463 0.951 1_554 S
O467 Co442 1.967 . S
O467 C475 1.258 . S
O468 Co443 1.941 . S
O468 C475 1.266 . S
H469 C471 0.959 . S
H470 C471 0.961 . S
C471 C461 1.510 . S
C471 H469 0.959 . S
C471 H470 0.961 . S
C471 H472 0.960 . S
H472 C471 0.960 . S
H473 N453 0.862 . S
O474 Co442 1.920 . S
O474 C447 1.289 . S
C475 O467 1.258 . S
C475 O468 1.266 . S
Co476 O479 1.970 . S
Co476 N493 1.989 . S
Co476 O501 1.967 . S
Co476 O508 1.920 . S
Co477 O480 1.966 . S
Co477 N486 2.022 . S
Co477 N494 1.993 . S
Co477 O502 1.941 . S
C478 O479 1.258 . S
C478 O480 1.263 . S
O479 Co476 1.970 . S
O479 C478 1.258 . S
O480 Co477 1.966 . S
O480 C478 1.263 . S
C481 O482 1.235 . S
C481 O508 1.289 . S
O482 C481 1.235 . S
C483 C485 1.400 . S
C483 N486 1.351 . S
C483 C488 1.501 . S
C484 C485 1.387 . S
C484 N487 1.341 . S
C485 C483 1.400 . S
C485 C484 1.387 . S
N486 Co477 2.022 . S
N486 C483 1.351 . S
N486 N487 1.365 . S
N487 C484 1.341 . S
N487 N486 1.365 . S
N487 H507 0.862 . S
C488 C483 1.501 . S
C488 H489 0.961 . S
C488 H490 0.961 . S
C488 H491 0.960 . S
H489 C488 0.961 . S
H490 C488 0.961 . S
H491 C488 0.960 . S
C492 N493 1.342 . S
C492 C496 1.401 . S
C492 C497 1.499 . S
N493 Co476 1.989 . S
N493 C492 1.342 . S
N493 N494 1.388 . S
N494 Co477 1.993 . S
N494 N493 1.388 . S
N494 C495 1.346 . S
C495 N494 1.346 . S
C495 C496 1.396 . S
C495 C505 1.510 . S
C496 C492 1.401 . S
C496 C495 1.396 . S
C497 C492 1.499 . S
C497 H498 0.959 . S
C497 H499 0.960 . S
C497 H500 0.961 . S
H498 C497 0.959 . S
H499 C497 0.960 . S
H500 C497 0.961 . S
O501 Co476 1.967 . S
O501 C509 1.258 . S
O502 Co477 1.941 . S
O502 C509 1.266 . S
H503 C505 0.959 . S
H504 C505 0.961 . S
C505 C495 1.510 . S
C505 H503 0.959 . S
C505 H504 0.961 . S
C505 H506 0.960 . S
H506 C505 0.960 . S
H507 N487 0.862 . S
O508 Co476 1.920 . S
O508 C481 1.289 . S
C509 O501 1.258 . S
C509 O502 1.266 . S
Co510 O513 1.970 . S
Co510 N527 1.989 . S
Co510 O535 1.967 . S
Co510 O542 1.920 . S
Co511 O514 1.966 . S
Co511 N520 2.022 . S
Co511 N528 1.993 . S
Co511 O536 1.941 . S
C512 O513 1.258 . S
C512 O514 1.263 . S
O513 Co510 1.970 . S
O513 C512 1.258 . S
O514 Co511 1.966 . S
O514 C512 1.263 . S
C515 O516 1.235 . S
C515 O542 1.289 . S
O516 C515 1.235 . S
C517 C519 1.400 . S
C517 N520 1.351 . S
C517 C522 1.501 . S
C518 C519 1.387 . S
C518 N521 1.341 . S
C519 C517 1.400 . S
C519 C518 1.387 . S
N520 Co511 2.022 . S
N520 C517 1.351 . S
N520 N521 1.365 . S
N521 C518 1.341 . S
N521 N520 1.365 . S
N521 H541 0.862 . S
C522 C517 1.501 . S
C522 H523 0.961 . S
C522 H524 0.961 . S
C522 H525 0.960 . S
H523 C522 0.961 . S
H524 C522 0.961 . S
H525 C522 0.960 . S
C526 N527 1.342 . S
C526 C530 1.401 . S
C526 C531 1.499 . S
N527 Co510 1.989 . S
N527 C526 1.342 . S
N527 N528 1.388 . S
N528 Co511 1.993 . S
N528 N527 1.388 . S
N528 C529 1.346 . S
C529 N528 1.346 . S
C529 C530 1.396 . S
C529 C539 1.510 . S
C530 C526 1.401 . S
C530 C529 1.396 . S
C531 C526 1.499 . S
C531 H532 0.959 . S
C531 H533 0.960 1_556 S
C531 H534 0.951 1_556 S
H532 C531 0.959 . S
H533 C531 0.960 1_554 S
H534 C531 0.951 1_554 S
O535 Co510 1.967 . S
O535 C543 1.258 . S
O536 Co511 1.941 . S
O536 C543 1.266 . S
H537 C539 0.959 . S
H538 C539 0.961 . S
C539 C529 1.510 . S
C539 H537 0.959 . S
C539 H538 0.961 . S
C539 H540 0.960 . S
H540 C539 0.960 . S
H541 N521 0.862 . S
O542 Co510 1.920 . S
O542 C515 1.289 . S
C543 O535 1.258 . S
C543 O536 1.266 . S
Co544 O547 1.970 . S
Co544 N561 1.989 . S
Co544 O569 1.967 . S
Co544 O576 1.920 . S
Co545 O548 1.966 . S
Co545 N554 2.022 . S
Co545 N562 1.993 . S
Co545 O570 1.941 . S
C546 O547 1.258 . S
C546 O548 1.263 . S
O547 Co544 1.970 . S
O547 C546 1.258 . S
O548 Co545 1.966 . S
O548 C546 1.263 . S
C549 O550 1.235 . S
C549 O576 1.289 . S
O550 C549 1.235 . S
C551 C553 1.400 . S
C551 N554 1.351 . S
C551 C556 1.501 . S
C552 C553 1.387 . S
C552 N555 1.341 . S
C553 C551 1.400 . S
C553 C552 1.387 . S
N554 Co545 2.022 . S
N554 C551 1.351 . S
N554 N555 1.365 . S
N555 C552 1.341 . S
N555 N554 1.365 . S
N555 H575 0.862 . S
C556 C551 1.501 . S
C556 H557 0.961 . S
C556 H558 0.961 . S
C556 H559 0.960 . S
H557 C556 0.961 . S
H558 C556 0.961 . S
H559 C556 0.960 . S
C560 N561 1.342 . S
C560 C564 1.401 . S
C560 C565 1.499 . S
N561 Co544 1.989 . S
N561 C560 1.342 . S
N561 N562 1.388 . S
N562 Co545 1.993 . S
N562 N561 1.388 . S
N562 C563 1.346 . S
C563 N562 1.346 . S
C563 C564 1.396 . S
C563 C573 1.510 . S
C564 C560 1.401 . S
C564 C563 1.396 . S
C565 C560 1.499 . S
C565 H566 0.959 . S
C565 H567 0.960 . S
C565 H568 0.961 . S
H566 C565 0.959 . S
H567 C565 0.960 . S
H568 C565 0.961 . S
O569 Co544 1.967 . S
O569 C577 1.258 . S
O570 Co545 1.941 . S
O570 C577 1.266 . S
H571 C573 0.959 . S
H572 C573 0.961 . S
C573 C563 1.510 . S
C573 H571 0.959 . S
C573 H572 0.961 . S
C573 H574 0.960 . S
H574 C573 0.960 . S
H575 N555 0.862 . S
O576 Co544 1.920 . S
O576 C549 1.289 . S
C577 O569 1.258 . S
C577 O570 1.266 . S
Co578 O581 1.970 . S
Co578 N595 1.989 . S
Co578 O603 1.967 . S
Co578 O610 1.920 . S
Co579 O582 1.966 . S
Co579 N588 2.022 . S
Co579 N596 1.993 . S
Co579 O604 1.941 . S
C580 O581 1.258 . S
C580 O582 1.263 . S
O581 Co578 1.970 . S
O581 C580 1.258 . S
O582 Co579 1.966 . S
O582 C580 1.263 . S
C583 O584 1.235 . S
C583 O610 1.289 . S
O584 C583 1.235 . S
C585 C587 1.400 . S
C585 N588 1.351 . S
C585 C590 1.501 . S
C586 C587 1.387 . S
C586 N589 1.341 . S
C587 C585 1.400 . S
C587 C586 1.387 . S
N588 Co579 2.022 . S
N588 C585 1.351 . S
N588 N589 1.365 . S
N589 C586 1.341 . S
N589 N588 1.365 . S
N589 H609 0.862 . S
C590 C585 1.501 . S
C590 H591 0.961 . S
C590 H592 0.961 . S
C590 H593 0.960 . S
H591 C590 0.961 . S
H592 C590 0.961 . S
H593 C590 0.960 . S
C594 N595 1.342 . S
C594 C598 1.401 . S
C594 C599 1.499 . S
N595 Co578 1.989 . S
N595 C594 1.342 . S
N595 N596 1.388 . S
N596 Co579 1.993 . S
N596 N595 1.388 . S
N596 C597 1.346 . S
C597 N596 1.346 . S
C597 C598 1.396 . S
C597 C607 1.510 . S
C598 C594 1.401 . S
C598 C597 1.396 . S
C599 C594 1.499 . S
C599 H600 0.959 . S
C599 H601 0.960 . S
C599 H602 0.961 . S
H600 C599 0.959 . S
H601 C599 0.960 . S
H602 C599 0.961 . S
O603 Co578 1.967 . S
O603 C611 1.258 . S
O604 Co579 1.941 . S
O604 C611 1.266 . S
H605 C607 0.959 . S
H606 C607 0.961 . S
C607 C597 1.510 . S
C607 H605 0.959 . S
C607 H606 0.961 . S
C607 H608 0.960 . S
H608 C607 0.960 . S
H609 N589 0.862 . S
O610 Co578 1.920 . S
O610 C583 1.289 . S
C611 O603 1.258 . S
C611 O604 1.266 . S
Co612 O615 1.970 . S
Co612 N629 1.989 . S
Co612 O637 1.967 . S
Co612 O644 1.920 . S
Co613 O616 1.966 . S
Co613 N622 2.022 . S
Co613 N630 1.993 . S
Co613 O638 1.941 . S
C614 O615 1.258 . S
C614 O616 1.263 . S
O615 Co612 1.970 . S
O615 C614 1.258 . S
O616 Co613 1.966 . S
O616 C614 1.263 . S
C617 O618 1.235 . S
C617 O644 1.289 . S
O618 C617 1.235 . S
C619 C621 1.400 . S
C619 N622 1.351 . S
C619 C624 1.501 . S
C620 C621 1.387 . S
C620 N623 1.341 . S
C621 C619 1.400 . S
C621 C620 1.387 . S
N622 Co613 2.022 . S
N622 C619 1.351 . S
N622 N623 1.365 . S
N623 C620 1.341 . S
N623 N622 1.365 . S
N623 H643 0.862 . S
C624 C619 1.501 . S
C624 H625 0.961 . S
C624 H626 0.961 . S
C624 H627 0.960 . S
H625 C624 0.961 . S
H626 C624 0.961 . S
H627 C624 0.960 . S
C628 N629 1.342 . S
C628 C632 1.401 . S
C628 C633 1.499 . S
N629 Co612 1.989 . S
N629 C628 1.342 . S
N629 N630 1.388 . S
N630 Co613 1.993 . S
N630 N629 1.388 . S
N630 C631 1.346 . S
C631 N630 1.346 . S
C631 C632 1.396 . S
C631 C641 1.510 . S
C632 C628 1.401 . S
C632 C631 1.396 . S
C633 C628 1.499 . S
C633 H634 0.959 . S
C633 H635 0.960 . S
C633 H636 0.961 . S
H634 C633 0.959 . S
H635 C633 0.960 . S
H636 C633 0.961 . S
O637 Co612 1.967 . S
O637 C645 1.258 . S
O638 Co613 1.941 . S
O638 C645 1.266 . S
H639 C641 0.959 . S
H640 C641 0.961 . S
C641 C631 1.510 . S
C641 H639 0.959 . S
C641 H640 0.961 . S
C641 H642 0.960 . S
H642 C641 0.960 . S
H643 N623 0.862 . S
O644 Co612 1.920 . S
O644 C617 1.289 . S
C645 O637 1.258 . S
C645 O638 1.266 . S
Co646 O649 1.970 . S
Co646 N663 1.989 . S
Co646 O671 1.967 . S
Co646 O678 1.920 . S
Co647 O650 1.966 . S
Co647 N656 2.022 . S
Co647 N664 1.993 . S
Co647 O672 1.941 . S
C648 O649 1.258 . S
C648 O650 1.263 . S
O649 Co646 1.970 . S
O649 C648 1.258 . S
O650 Co647 1.966 . S
O650 C648 1.263 . S
C651 O652 1.235 . S
C651 O678 1.289 . S
O652 C651 1.235 . S
C653 C655 1.400 . S
C653 N656 1.351 . S
C653 C658 1.501 . S
C654 C655 1.387 . S
C654 N657 1.341 . S
C655 C653 1.400 . S
C655 C654 1.387 . S
N656 Co647 2.022 . S
N656 C653 1.351 . S
N656 N657 1.365 . S
N657 C654 1.341 . S
N657 N656 1.365 . S
N657 H677 0.862 . S
C658 C653 1.501 . S
C658 H659 0.961 . S
C658 H660 0.961 . S
C658 H661 0.960 . S
H659 C658 0.961 . S
H660 C658 0.961 . S
H661 C658 0.960 . S
C662 N663 1.342 . S
C662 C666 1.401 . S
C662 C667 1.499 . S
N663 Co646 1.989 . S
N663 C662 1.342 . S
N663 N664 1.388 . S
N664 Co647 1.993 . S
N664 N663 1.388 . S
N664 C665 1.346 . S
C665 N664 1.346 . S
C665 C666 1.396 . S
C665 C675 1.510 . S
C666 C662 1.401 . S
C666 C665 1.396 . S
C667 C662 1.499 . S
C667 H668 0.959 . S
C667 H669 0.960 . S
C667 H670 0.961 . S
H668 C667 0.959 . S
H669 C667 0.960 . S
H670 C667 0.961 . S
O671 Co646 1.967 . S
O671 C679 1.258 . S
O672 Co647 1.941 . S
O672 C679 1.266 . S
H673 C675 0.959 . S
H674 C675 0.961 . S
C675 C665 1.510 . S
C675 H673 0.959 . S
C675 H674 0.961 . S
C675 H676 0.960 . S
H676 C675 0.960 . S
H677 N657 0.862 . S
O678 Co646 1.920 . S
O678 C651 1.289 . S
C679 O671 1.258 . S
C679 O672 1.266 . S
Co680 O683 1.970 . S
Co680 N697 1.989 . S
Co680 O705 1.967 . S
Co680 O712 1.920 . S
Co681 O684 1.966 . S
Co681 N690 2.022 . S
Co681 N698 1.993 . S
Co681 O706 1.941 . S
C682 O683 1.258 . S
C682 O684 1.263 . S
O683 Co680 1.970 . S
O683 C682 1.258 . S
O684 Co681 1.966 . S
O684 C682 1.263 . S
C685 O686 1.235 . S
C685 O712 1.289 . S
O686 C685 1.235 . S
C687 C689 1.400 . S
C687 N690 1.351 . S
C687 C692 1.501 . S
C688 C689 1.387 . S
C688 N691 1.341 . S
C689 C687 1.400 . S
C689 C688 1.387 . S
N690 Co681 2.022 . S
N690 C687 1.351 . S
N690 N691 1.365 . S
N691 C688 1.341 . S
N691 N690 1.365 . S
N691 H711 0.862 . S
C692 C687 1.501 . S
C692 H693 0.961 . S
C692 H694 0.961 . S
C692 H695 0.960 . S
H693 C692 0.961 . S
H694 C692 0.961 . S
H695 C692 0.960 . S
C696 N697 1.342 . S
C696 C700 1.401 . S
C696 C701 1.499 . S
N697 Co680 1.989 . S
N697 C696 1.342 . S
N697 N698 1.388 . S
N698 Co681 1.993 . S
N698 N697 1.388 . S
N698 C699 1.346 . S
C699 N698 1.346 . S
C699 C700 1.396 . S
C699 C709 1.510 . S
C700 C696 1.401 . S
C700 C699 1.396 . S
C701 C696 1.499 . S
C701 H702 0.959 . S
C701 H703 0.960 . S
C701 H704 0.961 . S
H702 C701 0.959 . S
H703 C701 0.960 . S
H704 C701 0.961 . S
O705 Co680 1.967 . S
O705 C713 1.258 . S
O706 Co681 1.941 . S
O706 C713 1.266 . S
H707 C709 0.959 . S
H708 C709 0.961 . S
C709 C699 1.510 . S
C709 H707 0.959 . S
C709 H708 0.961 . S
C709 H710 0.960 . S
H710 C709 0.960 . S
H711 N691 0.862 . S
O712 Co680 1.920 . S
O712 C685 1.289 . S
C713 O705 1.258 . S
C713 O706 1.266 . S
Co714 O717 1.970 . S
Co714 N731 1.989 . S
Co714 O739 1.967 . S
Co714 O746 1.920 . S
Co715 O718 1.966 . S
Co715 N724 2.022 . S
Co715 N732 1.993 . S
Co715 O740 1.941 . S
C716 O717 1.258 . S
C716 O718 1.263 . S
O717 Co714 1.970 . S
O717 C716 1.258 . S
O718 Co715 1.966 . S
O718 C716 1.263 . S
C719 O720 1.235 . S
C719 O746 1.289 . S
O720 C719 1.235 . S
C721 C723 1.400 . S
C721 N724 1.351 . S
C721 C726 1.501 . S
C722 C723 1.387 . S
C722 N725 1.341 . S
C723 C721 1.400 . S
C723 C722 1.387 . S
N724 Co715 2.022 . S
N724 C721 1.351 . S
N724 N725 1.365 . S
N725 C722 1.341 . S
N725 N724 1.365 . S
N725 H745 0.862 . S
C726 C721 1.501 . S
C726 H727 0.961 . S
C726 H728 0.961 . S
C726 H729 0.960 . S
H727 C726 0.961 . S
H728 C726 0.961 . S
H729 C726 0.960 . S
C730 N731 1.342 . S
C730 C734 1.401 . S
C730 C735 1.499 . S
N731 Co714 1.989 . S
N731 C730 1.342 . S
N731 N732 1.388 . S
N732 Co715 1.993 . S
N732 N731 1.388 . S
N732 C733 1.346 . S
C733 N732 1.346 . S
C733 C734 1.396 . S
C733 C743 1.510 . S
C734 C730 1.401 . S
C734 C733 1.396 . S
C735 C730 1.499 . S
C735 H736 0.959 . S
C735 H737 0.960 . S
C735 H738 0.961 . S
H736 C735 0.959 . S
H737 C735 0.960 . S
H738 C735 0.961 . S
O739 Co714 1.967 . S
O739 C747 1.258 . S
O740 Co715 1.941 . S
O740 C747 1.266 . S
H741 C743 0.959 . S
H742 C743 0.961 . S
C743 C733 1.510 . S
C743 H741 0.959 . S
C743 H742 0.961 . S
C743 H744 0.960 . S
H744 C743 0.960 . S
H745 N725 0.862 . S
O746 Co714 1.920 . S
O746 C719 1.289 . S
C747 O739 1.258 . S
C747 O740 1.266 . S
Co748 O751 1.970 . S
Co748 N765 1.989 . S
Co748 O773 1.967 . S
Co748 O780 1.920 . S
Co749 O752 1.966 . S
Co749 N758 2.022 . S
Co749 N766 1.993 . S
Co749 O774 1.941 . S
C750 O751 1.258 . S
C750 O752 1.263 . S
O751 Co748 1.970 . S
O751 C750 1.258 . S
O752 Co749 1.966 . S
O752 C750 1.263 . S
C753 O754 1.235 . S
C753 O780 1.289 . S
O754 C753 1.235 . S
C755 C757 1.400 . S
C755 N758 1.351 . S
C755 C760 1.501 . S
C756 C757 1.387 . S
C756 N759 1.341 . S
C757 C755 1.400 . S
C757 C756 1.387 . S
N758 Co749 2.022 . S
N758 C755 1.351 . S
N758 N759 1.365 . S
N759 C756 1.341 . S
N759 N758 1.365 . S
N759 H779 0.862 . S
C760 C755 1.501 . S
C760 H761 0.961 . S
C760 H762 0.961 . S
C760 H763 0.960 . S
H761 C760 0.961 . S
H762 C760 0.961 . S
H763 C760 0.960 . S
C764 N765 1.342 . S
C764 C768 1.401 . S
C764 C769 1.499 . S
N765 Co748 1.989 . S
N765 C764 1.342 . S
N765 N766 1.388 . S
N766 Co749 1.993 . S
N766 N765 1.388 . S
N766 C767 1.346 . S
C767 N766 1.346 . S
C767 C768 1.396 . S
C767 C777 1.510 . S
C768 C764 1.401 . S
C768 C767 1.396 . S
C769 C764 1.499 . S
C769 H770 0.959 . S
C769 H771 0.960 . S
C769 H772 0.961 . S
H770 C769 0.959 . S
H771 C769 0.960 . S
H772 C769 0.961 . S
O773 Co748 1.967 . S
O773 C781 1.258 . S
O774 Co749 1.941 . S
O774 C781 1.266 . S
H775 C777 0.959 . S
H776 C777 0.961 . S
C777 C767 1.510 . S
C777 H775 0.959 . S
C777 H776 0.961 . S
C777 H778 0.960 . S
H778 C777 0.960 . S
H779 N759 0.862 . S
O780 Co748 1.920 . S
O780 C753 1.289 . S
C781 O773 1.258 . S
C781 O774 1.266 . S
Co782 O785 1.970 . S
Co782 N799 1.989 . S
Co782 O807 1.967 . S
Co782 O814 1.920 . S
Co783 O786 1.966 . S
Co783 N792 2.022 . S
Co783 N800 1.993 . S
Co783 O808 1.941 . S
C784 O785 1.258 . S
C784 O786 1.263 . S
O785 Co782 1.970 . S
O785 C784 1.258 . S
O786 Co783 1.966 . S
O786 C784 1.263 . S
C787 O788 1.235 . S
C787 O814 1.289 . S
O788 C787 1.235 . S
C789 C791 1.400 . S
C789 N792 1.351 . S
C789 C794 1.501 . S
C790 C791 1.387 . S
C790 N793 1.341 . S
C791 C789 1.400 . S
C791 C790 1.387 . S
N792 Co783 2.022 . S
N792 C789 1.351 . S
N792 N793 1.365 . S
N793 C790 1.341 . S
N793 N792 1.365 . S
N793 H813 0.862 . S
C794 C789 1.501 . S
C794 H795 0.961 . S
C794 H796 0.961 . S
C794 H797 0.960 . S
H795 C794 0.961 . S
H796 C794 0.961 . S
H797 C794 0.960 . S
C798 N799 1.342 . S
C798 C802 1.401 . S
C798 C803 1.499 . S
N799 Co782 1.989 . S
N799 C798 1.342 . S
N799 N800 1.388 . S
N800 Co783 1.993 . S
N800 N799 1.388 . S
N800 C801 1.346 . S
C801 N800 1.346 . S
C801 C802 1.396 . S
C801 C811 1.510 . S
C802 C798 1.401 . S
C802 C801 1.396 . S
C803 C798 1.499 . S
C803 H804 0.959 . S
C803 H805 0.960 1_545 S
C803 H806 0.951 1_545 S
H804 C803 0.959 . S
H805 C803 0.960 1_565 S
H806 C803 0.951 1_565 S
O807 Co782 1.967 . S
O807 C815 1.258 . S
O808 Co783 1.941 . S
O808 C815 1.266 . S
H809 C811 0.959 . S
H810 C811 0.961 . S
C811 C801 1.510 . S
C811 H809 0.959 . S
C811 H810 0.961 . S
C811 H812 0.960 . S
H812 C811 0.960 . S
H813 N793 0.862 . S
O814 Co782 1.920 . S
O814 C787 1.289 . S
C815 O807 1.258 . S
C815 O808 1.266 . S
Co816 O819 1.970 . S
Co816 N833 1.989 . S
Co816 O841 1.967 . S
Co816 O848 1.920 . S
Co817 O820 1.966 . S
Co817 N826 2.022 . S
Co817 N834 1.993 . S
Co817 O842 1.941 . S
C818 O819 1.258 . S
C818 O820 1.263 . S
O819 Co816 1.970 . S
O819 C818 1.258 . S
O820 Co817 1.966 . S
O820 C818 1.263 . S
C821 O822 1.235 . S
C821 O848 1.289 . S
O822 C821 1.235 . S
C823 C825 1.400 . S
C823 N826 1.351 . S
C823 C828 1.501 . S
C824 C825 1.387 . S
C824 N827 1.341 . S
C825 C823 1.400 . S
C825 C824 1.387 . S
N826 Co817 2.022 . S
N826 C823 1.351 . S
N826 N827 1.365 . S
N827 C824 1.341 . S
N827 N826 1.365 . S
N827 H847 0.862 . S
C828 C823 1.501 . S
C828 H829 0.961 . S
C828 H830 0.961 . S
C828 H831 0.960 . S
H829 C828 0.961 . S
H830 C828 0.961 . S
H831 C828 0.960 . S
C832 N833 1.342 . S
C832 C836 1.401 . S
C832 C837 1.499 . S
N833 Co816 1.989 . S
N833 C832 1.342 . S
N833 N834 1.388 . S
N834 Co817 1.993 . S
N834 N833 1.388 . S
N834 C835 1.346 . S
C835 N834 1.346 . S
C835 C836 1.396 . S
C835 C845 1.510 . S
C836 C832 1.401 . S
C836 C835 1.396 . S
C837 C832 1.499 . S
C837 H838 0.959 . S
C837 H839 0.960 . S
C837 H840 0.961 . S
H838 C837 0.959 . S
H839 C837 0.960 . S
H840 C837 0.961 . S
O841 Co816 1.967 . S
O841 C849 1.258 . S
O842 Co817 1.941 . S
O842 C849 1.266 . S
H843 C845 0.959 . S
H844 C845 0.961 . S
C845 C835 1.510 . S
C845 H843 0.959 . S
C845 H844 0.961 . S
C845 H846 0.960 . S
H846 C845 0.960 . S
H847 N827 0.862 . S
O848 Co816 1.920 . S
O848 C821 1.289 . S
C849 O841 1.258 . S
C849 O842 1.266 . S
Co850 O853 1.970 . S
Co850 N867 1.989 . S
Co850 O875 1.967 . S
Co850 O882 1.920 . S
Co851 O854 1.966 . S
Co851 N860 2.022 . S
Co851 N868 1.993 . S
Co851 O876 1.941 . S
C852 O853 1.258 . S
C852 O854 1.263 . S
O853 Co850 1.970 . S
O853 C852 1.258 . S
O854 Co851 1.966 . S
O854 C852 1.263 . S
C855 O856 1.235 . S
C855 O882 1.289 . S
O856 C855 1.235 . S
C857 C859 1.400 . S
C857 N860 1.351 . S
C857 C862 1.501 . S
C858 C859 1.387 . S
C858 N861 1.341 . S
C859 C857 1.400 . S
C859 C858 1.387 . S
N860 Co851 2.022 . S
N860 C857 1.351 . S
N860 N861 1.365 . S
N861 C858 1.341 . S
N861 N860 1.365 . S
N861 H881 0.862 . S
C862 C857 1.501 . S
C862 H863 0.961 . S
C862 H864 0.961 . S
C862 H865 0.960 . S
H863 C862 0.961 . S
H864 C862 0.961 . S
H865 C862 0.960 . S
C866 N867 1.342 . S
C866 C870 1.401 . S
C866 C871 1.499 . S
N867 Co850 1.989 . S
N867 C866 1.342 . S
N867 N868 1.388 . S
N868 Co851 1.993 . S
N868 N867 1.388 . S
N868 C869 1.346 . S
C869 N868 1.346 . S
C869 C870 1.396 . S
C869 C879 1.510 . S
C870 C866 1.401 . S
C870 C869 1.396 . S
C871 C866 1.499 . S
C871 H872 0.959 . S
C871 H873 0.960 1_655 S
C871 H874 0.951 1_655 S
H872 C871 0.959 . S
H873 C871 0.960 1_455 S
H874 C871 0.951 1_455 S
O875 Co850 1.967 . S
O875 C883 1.258 . S
O876 Co851 1.941 . S
O876 C883 1.266 . S
H877 C879 0.959 . S
H878 C879 0.961 . S
C879 C869 1.510 . S
C879 H877 0.959 . S
C879 H878 0.961 . S
C879 H880 0.960 . S
H880 C879 0.960 . S
H881 N861 0.862 . S
O882 Co850 1.920 . S
O882 C855 1.289 . S
C883 O875 1.258 . S
C883 O876 1.266 . S
Co884 O887 1.970 . S
Co884 N901 1.989 . S
Co884 O909 1.967 . S
Co884 O916 1.920 . S
Co885 O888 1.966 . S
Co885 N894 2.022 . S
Co885 N902 1.993 . S
Co885 O910 1.941 . S
C886 O887 1.258 . S
C886 O888 1.263 . S
O887 Co884 1.970 . S
O887 C886 1.258 . S
O888 Co885 1.966 . S
O888 C886 1.263 . S
C889 O890 1.235 . S
C889 O916 1.289 . S
O890 C889 1.235 . S
C891 C893 1.400 . S
C891 N894 1.351 . S
C891 C896 1.501 . S
C892 C893 1.387 . S
C892 N895 1.341 . S
C893 C891 1.400 . S
C893 C892 1.387 . S
N894 Co885 2.022 . S
N894 C891 1.351 . S
N894 N895 1.365 . S
N895 C892 1.341 . S
N895 N894 1.365 . S
N895 H915 0.862 . S
C896 C891 1.501 . S
C896 H897 0.961 . S
C896 H898 0.961 . S
C896 H899 0.960 . S
H897 C896 0.961 . S
H898 C896 0.961 . S
H899 C896 0.960 . S
C900 N901 1.342 . S
C900 C904 1.401 . S
C900 C905 1.499 . S
N901 Co884 1.989 . S
N901 C900 1.342 . S
N901 N902 1.388 . S
N902 Co885 1.993 . S
N902 N901 1.388 . S
N902 C903 1.346 . S
C903 N902 1.346 . S
C903 C904 1.396 . S
C903 C913 1.510 . S
C904 C900 1.401 . S
C904 C903 1.396 . S
C905 C900 1.499 . S
C905 H906 0.959 . S
C905 H907 0.960 . S
C905 H908 0.961 . S
H906 C905 0.959 . S
H907 C905 0.960 . S
H908 C905 0.961 . S
O909 Co884 1.967 . S
O909 C917 1.258 . S
O910 Co885 1.941 . S
O910 C917 1.266 . S
H911 C913 0.959 . S
H912 C913 0.961 . S
C913 C903 1.510 . S
C913 H911 0.959 . S
C913 H912 0.961 . S
C913 H914 0.960 . S
H914 C913 0.960 . S
H915 N895 0.862 . S
O916 Co884 1.920 . S
O916 C889 1.289 . S
C917 O909 1.258 . S
C917 O910 1.266 . S
Co918 O921 1.970 . S
Co918 N935 1.989 . S
Co918 O943 1.967 . S
Co918 O950 1.920 . S
Co919 O922 1.966 . S
Co919 N928 2.022 . S
Co919 N936 1.993 . S
Co919 O944 1.941 . S
C920 O921 1.258 . S
C920 O922 1.263 . S
O921 Co918 1.970 . S
O921 C920 1.258 . S
O922 Co919 1.966 . S
O922 C920 1.263 . S
C923 O924 1.235 . S
C923 O950 1.289 . S
O924 C923 1.235 . S
C925 C927 1.400 . S
C925 N928 1.351 . S
C925 C930 1.501 . S
C926 C927 1.387 . S
C926 N929 1.341 . S
C927 C925 1.400 . S
C927 C926 1.387 . S
N928 Co919 2.022 . S
N928 C925 1.351 . S
N928 N929 1.365 . S
N929 C926 1.341 . S
N929 N928 1.365 . S
N929 H949 0.862 . S
C930 C925 1.501 . S
C930 H931 0.961 . S
C930 H932 0.961 . S
C930 H933 0.960 . S
H931 C930 0.961 . S
H932 C930 0.961 . S
H933 C930 0.960 . S
C934 N935 1.342 . S
C934 C938 1.401 . S
C934 C939 1.499 . S
N935 Co918 1.989 . S
N935 C934 1.342 . S
N935 N936 1.388 . S
N936 Co919 1.993 . S
N936 N935 1.388 . S
N936 C937 1.346 . S
C937 N936 1.346 . S
C937 C938 1.396 . S
C937 C947 1.510 . S
C938 C934 1.401 . S
C938 C937 1.396 . S
C939 C934 1.499 . S
C939 H940 0.959 . S
C939 H941 0.960 1_455 S
C939 H942 0.951 1_455 S
H940 C939 0.959 . S
H941 C939 0.960 1_655 S
H942 C939 0.951 1_655 S
O943 Co918 1.967 . S
O943 C951 1.258 . S
O944 Co919 1.941 . S
O944 C951 1.266 . S
H945 C947 0.959 . S
H946 C947 0.961 . S
C947 C937 1.510 . S
C947 H945 0.959 . S
C947 H946 0.961 . S
C947 H948 0.960 . S
H948 C947 0.960 . S
H949 N929 0.862 . S
O950 Co918 1.920 . S
O950 C923 1.289 . S
C951 O943 1.258 . S
C951 O944 1.266 . S
Co952 O955 1.970 . S
Co952 N969 1.989 . S
Co952 O977 1.967 . S
Co952 O984 1.920 . S
Co953 O956 1.966 . S
Co953 N962 2.022 . S
Co953 N970 1.993 . S
Co953 O978 1.941 . S
C954 O955 1.258 . S
C954 O956 1.263 . S
O955 Co952 1.970 . S
O955 C954 1.258 . S
O956 Co953 1.966 . S
O956 C954 1.263 . S
C957 O958 1.235 . S
C957 O984 1.289 . S
O958 C957 1.235 . S
C959 C961 1.400 . S
C959 N962 1.351 . S
C959 C964 1.501 . S
C960 C961 1.387 . S
C960 N963 1.341 . S
C961 C959 1.400 . S
C961 C960 1.387 . S
N962 Co953 2.022 . S
N962 C959 1.351 . S
N962 N963 1.365 . S
N963 C960 1.341 . S
N963 N962 1.365 . S
N963 H983 0.862 . S
C964 C959 1.501 . S
C964 H965 0.961 . S
C964 H966 0.961 . S
C964 H967 0.960 . S
H965 C964 0.961 . S
H966 C964 0.961 . S
H967 C964 0.960 . S
C968 N969 1.342 . S
C968 C972 1.401 . S
C968 C973 1.499 . S
N969 Co952 1.989 . S
N969 C968 1.342 . S
N969 N970 1.388 . S
N970 Co953 1.993 . S
N970 N969 1.388 . S
N970 C971 1.346 . S
C971 N970 1.346 . S
C971 C972 1.396 . S
C971 C981 1.510 . S
C972 C968 1.401 . S
C972 C971 1.396 . S
C973 C968 1.499 . S
C973 H974 0.959 . S
C973 H975 0.960 . S
C973 H976 0.961 . S
H974 C973 0.959 . S
H975 C973 0.960 . S
H976 C973 0.961 . S
O977 Co952 1.967 . S
O977 C985 1.258 . S
O978 Co953 1.941 . S
O978 C985 1.266 . S
H979 C981 0.959 . S
H980 C981 0.961 . S
C981 C971 1.510 . S
C981 H979 0.959 . S
C981 H980 0.961 . S
C981 H982 0.960 . S
H982 C981 0.960 . S
H983 N963 0.862 . S
O984 Co952 1.920 . S
O984 C957 1.289 . S
C985 O977 1.258 . S
C985 O978 1.266 . S
Co986 O989 1.970 . S
Co986 N1003 1.989 . S
Co986 O1011 1.967 . S
Co986 O1018 1.920 . S
Co987 O990 1.966 . S
Co987 N996 2.022 . S
Co987 N1004 1.993 . S
Co987 O1012 1.941 . S
C988 O989 1.258 . S
C988 O990 1.263 . S
O989 Co986 1.970 . S
O989 C988 1.258 . S
O990 Co987 1.966 . S
O990 C988 1.263 . S
C991 O992 1.235 . S
C991 O1018 1.289 . S
O992 C991 1.235 . S
C993 C995 1.400 . S
C993 N996 1.351 . S
C993 C998 1.501 . S
C994 C995 1.387 . S
C994 N997 1.341 . S
C995 C993 1.400 . S
C995 C994 1.387 . S
N996 Co987 2.022 . S
N996 C993 1.351 . S
N996 N997 1.365 . S
N997 C994 1.341 . S
N997 N996 1.365 . S
N997 H1017 0.862 . S
C998 C993 1.501 . S
C998 H999 0.961 . S
C998 H1000 0.961 . S
C998 H1001 0.960 . S
H999 C998 0.961 . S
H1000 C998 0.961 . S
H1001 C998 0.960 . S
C1002 N1003 1.342 . S
C1002 C1006 1.401 . S
C1002 C1007 1.499 . S
N1003 Co986 1.989 . S
N1003 C1002 1.342 . S
N1003 N1004 1.388 . S
N1004 Co987 1.993 . S
N1004 N1003 1.388 . S
N1004 C1005 1.346 . S
C1005 N1004 1.346 . S
C1005 C1006 1.396 . S
C1005 C1015 1.510 . S
C1006 C1002 1.401 . S
C1006 C1005 1.396 . S
C1007 C1002 1.499 . S
C1007 H1008 0.959 . S
C1007 H1009 0.960 . S
C1007 H1010 0.961 . S
H1008 C1007 0.959 . S
H1009 C1007 0.960 . S
H1010 C1007 0.961 . S
O1011 Co986 1.967 . S
O1011 C1019 1.258 . S
O1012 Co987 1.941 . S
O1012 C1019 1.266 . S
H1013 C1015 0.959 . S
H1014 C1015 0.961 . S
C1015 C1005 1.510 . S
C1015 H1013 0.959 . S
C1015 H1014 0.961 . S
C1015 H1016 0.960 . S
H1016 C1015 0.960 . S
H1017 N997 0.862 . S
O1018 Co986 1.920 . S
O1018 C991 1.289 . S
C1019 O1011 1.258 . S
C1019 O1012 1.266 . S
Co1020 O1023 1.970 . S
Co1020 N1037 1.989 . S
Co1020 O1045 1.967 . S
Co1020 O1052 1.920 . S
Co1021 O1024 1.966 . S
Co1021 N1030 2.022 . S
Co1021 N1038 1.993 . S
Co1021 O1046 1.941 . S
C1022 O1023 1.258 . S
C1022 O1024 1.263 . S
O1023 Co1020 1.970 . S
O1023 C1022 1.258 . S
O1024 Co1021 1.966 . S
O1024 C1022 1.263 . S
C1025 O1026 1.235 . S
C1025 O1052 1.289 . S
O1026 C1025 1.235 . S
C1027 C1029 1.400 . S
C1027 N1030 1.351 . S
C1027 C1032 1.501 . S
C1028 C1029 1.387 . S
C1028 N1031 1.341 . S
C1029 C1027 1.400 . S
C1029 C1028 1.387 . S
N1030 Co1021 2.022 . S
N1030 C1027 1.351 . S
N1030 N1031 1.365 . S
N1031 C1028 1.341 . S
N1031 N1030 1.365 . S
N1031 H1051 0.862 . S
C1032 C1027 1.501 . S
C1032 H1033 0.961 . S
C1032 H1034 0.961 . S
C1032 H1035 0.960 . S
H1033 C1032 0.961 . S
H1034 C1032 0.961 . S
H1035 C1032 0.960 . S
C1036 N1037 1.342 . S
C1036 C1040 1.401 . S
C1036 C1041 1.499 . S
N1037 Co1020 1.989 . S
N1037 C1036 1.342 . S
N1037 N1038 1.388 . S
N1038 Co1021 1.993 . S
N1038 N1037 1.388 . S
N1038 C1039 1.346 . S
C1039 N1038 1.346 . S
C1039 C1040 1.396 . S
C1039 C1049 1.510 . S
C1040 C1036 1.401 . S
C1040 C1039 1.396 . S
C1041 C1036 1.499 . S
C1041 H1042 0.959 . S
C1041 H1043 0.960 . S
C1041 H1044 0.961 . S
H1042 C1041 0.959 . S
H1043 C1041 0.960 . S
H1044 C1041 0.961 . S
O1045 Co1020 1.967 . S
O1045 C1053 1.258 . S
O1046 Co1021 1.941 . S
O1046 C1053 1.266 . S
H1047 C1049 0.959 . S
H1048 C1049 0.961 . S
C1049 C1039 1.510 . S
C1049 H1047 0.959 . S
C1049 H1048 0.961 . S
C1049 H1050 0.960 . S
H1050 C1049 0.960 . S
H1051 N1031 0.862 . S
O1052 Co1020 1.920 . S
O1052 C1025 1.289 . S
C1053 O1045 1.258 . S
C1053 O1046 1.266 . S
Co1054 O1057 1.970 . S
Co1054 N1071 1.989 . S
Co1054 O1079 1.967 . S
Co1054 O1086 1.920 . S
Co1055 O1058 1.966 . S
Co1055 N1064 2.022 . S
Co1055 N1072 1.993 . S
Co1055 O1080 1.941 . S
C1056 O1057 1.258 . S
C1056 O1058 1.263 . S
O1057 Co1054 1.970 . S
O1057 C1056 1.258 . S
O1058 Co1055 1.966 . S
O1058 C1056 1.263 . S
C1059 O1060 1.235 . S
C1059 O1086 1.289 . S
O1060 C1059 1.235 . S
C1061 C1063 1.400 . S
C1061 N1064 1.351 . S
C1061 C1066 1.501 . S
C1062 C1063 1.387 . S
C1062 N1065 1.341 . S
C1063 C1061 1.400 . S
C1063 C1062 1.387 . S
N1064 Co1055 2.022 . S
N1064 C1061 1.351 . S
N1064 N1065 1.365 . S
N1065 C1062 1.341 . S
N1065 N1064 1.365 . S
N1065 H1085 0.862 . S
C1066 C1061 1.501 . S
C1066 H1067 0.961 . S
C1066 H1068 0.961 . S
C1066 H1069 0.960 . S
H1067 C1066 0.961 . S
H1068 C1066 0.961 . S
H1069 C1066 0.960 . S
C1070 N1071 1.342 . S
C1070 C1074 1.401 . S
C1070 C1075 1.499 . S
N1071 Co1054 1.989 . S
N1071 C1070 1.342 . S
N1071 N1072 1.388 . S
N1072 Co1055 1.993 . S
N1072 N1071 1.388 . S
N1072 C1073 1.346 . S
C1073 N1072 1.346 . S
C1073 C1074 1.396 . S
C1073 C1083 1.510 . S
C1074 C1070 1.401 . S
C1074 C1073 1.396 . S
C1075 C1070 1.499 . S
C1075 H1076 0.959 . S
C1075 H1077 0.960 . S
C1075 H1078 0.961 . S
H1076 C1075 0.959 . S
H1077 C1075 0.960 . S
H1078 C1075 0.961 . S
O1079 Co1054 1.967 . S
O1079 C1087 1.258 . S
O1080 Co1055 1.941 . S
O1080 C1087 1.266 . S
H1081 C1083 0.959 . S
H1082 C1083 0.961 . S
C1083 C1073 1.510 . S
C1083 H1081 0.959 . S
C1083 H1082 0.961 . S
C1083 H1084 0.960 . S
H1084 C1083 0.960 . S
H1085 N1065 0.862 . S
O1086 Co1054 1.920 . S
O1086 C1059 1.289 . S
C1087 O1079 1.258 . S
C1087 O1080 1.266 . S
Co1088 O1091 1.970 . S
Co1088 N1105 1.989 . S
Co1088 O1113 1.967 . S
Co1088 O1120 1.920 . S
Co1089 O1092 1.966 . S
Co1089 N1098 2.022 . S
Co1089 N1106 1.993 . S
Co1089 O1114 1.941 . S
C1090 O1091 1.258 . S
C1090 O1092 1.263 . S
O1091 Co1088 1.970 . S
O1091 C1090 1.258 . S
O1092 Co1089 1.966 . S
O1092 C1090 1.263 . S
C1093 O1094 1.235 . S
C1093 O1120 1.289 . S
O1094 C1093 1.235 . S
C1095 C1097 1.400 . S
C1095 N1098 1.351 . S
C1095 C1100 1.501 . S
C1096 C1097 1.387 . S
C1096 N1099 1.341 . S
C1097 C1095 1.400 . S
C1097 C1096 1.387 . S
N1098 Co1089 2.022 . S
N1098 C1095 1.351 . S
N1098 N1099 1.365 . S
N1099 C1096 1.341 . S
N1099 N1098 1.365 . S
N1099 H1119 0.862 . S
C1100 C1095 1.501 . S
C1100 H1101 0.961 . S
C1100 H1102 0.961 . S
C1100 H1103 0.960 . S
H1101 C1100 0.961 . S
H1102 C1100 0.961 . S
H1103 C1100 0.960 . S
C1104 N1105 1.342 . S
C1104 C1108 1.401 . S
C1104 C1109 1.499 . S
N1105 Co1088 1.989 . S
N1105 C1104 1.342 . S
N1105 N1106 1.388 . S
N1106 Co1089 1.993 . S
N1106 N1105 1.388 . S
N1106 C1107 1.346 . S
C1107 N1106 1.346 . S
C1107 C1108 1.396 . S
C1107 C1117 1.510 . S
C1108 C1104 1.401 . S
C1108 C1107 1.396 . S
C1109 C1104 1.499 . S
C1109 H1110 0.959 . S
C1109 H1111 0.960 . S
C1109 H1112 0.961 . S
H1110 C1109 0.959 . S
H1111 C1109 0.960 . S
H1112 C1109 0.961 . S
O1113 Co1088 1.967 . S
O1113 C1121 1.258 . S
O1114 Co1089 1.941 . S
O1114 C1121 1.266 . S
H1115 C1117 0.959 . S
H1116 C1117 0.961 . S
C1117 C1107 1.510 . S
C1117 H1115 0.959 . S
C1117 H1116 0.961 . S
C1117 H1118 0.960 . S
H1118 C1117 0.960 . S
H1119 N1099 0.862 . S
O1120 Co1088 1.920 . S
O1120 C1093 1.289 . S
C1121 O1113 1.258 . S
C1121 O1114 1.266 . S
Co1122 O1125 1.970 . S
Co1122 N1139 1.989 . S
Co1122 O1147 1.967 . S
Co1122 O1154 1.920 . S
Co1123 O1126 1.966 . S
Co1123 N1132 2.022 . S
Co1123 N1140 1.993 . S
Co1123 O1148 1.941 . S
C1124 O1125 1.258 . S
C1124 O1126 1.263 . S
O1125 Co1122 1.970 . S
O1125 C1124 1.258 . S
O1126 Co1123 1.966 . S
O1126 C1124 1.263 . S
C1127 O1128 1.235 . S
C1127 O1154 1.289 . S
O1128 C1127 1.235 . S
C1129 C1131 1.400 . S
C1129 N1132 1.351 . S
C1129 C1134 1.501 . S
C1130 C1131 1.387 . S
C1130 N1133 1.341 . S
C1131 C1129 1.400 . S
C1131 C1130 1.387 . S
N1132 Co1123 2.022 . S
N1132 C1129 1.351 . S
N1132 N1133 1.365 . S
N1133 C1130 1.341 . S
N1133 N1132 1.365 . S
N1133 H1153 0.862 . S
C1134 C1129 1.501 . S
C1134 H1135 0.961 . S
C1134 H1136 0.961 . S
C1134 H1137 0.960 . S
H1135 C1134 0.961 . S
H1136 C1134 0.961 . S
H1137 C1134 0.960 . S
C1138 N1139 1.342 . S
C1138 C1142 1.401 . S
C1138 C1143 1.499 . S
N1139 Co1122 1.989 . S
N1139 C1138 1.342 . S
N1139 N1140 1.388 . S
N1140 Co1123 1.993 . S
N1140 N1139 1.388 . S
N1140 C1141 1.346 . S
C1141 N1140 1.346 . S
C1141 C1142 1.396 . S
C1141 C1151 1.510 . S
C1142 C1138 1.401 . S
C1142 C1141 1.396 . S
C1143 C1138 1.499 . S
C1143 H1144 0.959 . S
C1143 H1145 0.960 . S
C1143 H1146 0.961 . S
H1144 C1143 0.959 . S
H1145 C1143 0.960 . S
H1146 C1143 0.961 . S
O1147 Co1122 1.967 . S
O1147 C1155 1.258 . S
O1148 Co1123 1.941 . S
O1148 C1155 1.266 . S
H1149 C1151 0.959 . S
H1150 C1151 0.961 . S
C1151 C1141 1.510 . S
C1151 H1149 0.959 . S
C1151 H1150 0.961 . S
C1151 H1152 0.960 . S
H1152 C1151 0.960 . S
H1153 N1133 0.862 . S
O1154 Co1122 1.920 . S
O1154 C1127 1.289 . S
C1155 O1147 1.258 . S
C1155 O1148 1.266 . S
Co1156 O1159 1.970 . S
Co1156 N1173 1.989 . S
Co1156 O1181 1.967 . S
Co1156 O1188 1.920 . S
Co1157 O1160 1.966 . S
Co1157 N1166 2.022 . S
Co1157 N1174 1.993 . S
Co1157 O1182 1.941 . S
C1158 O1159 1.258 . S
C1158 O1160 1.263 . S
O1159 Co1156 1.970 . S
O1159 C1158 1.258 . S
O1160 Co1157 1.966 . S
O1160 C1158 1.263 . S
C1161 O1162 1.235 . S
C1161 O1188 1.289 . S
O1162 C1161 1.235 . S
C1163 C1165 1.400 . S
C1163 N1166 1.351 . S
C1163 C1168 1.501 . S
C1164 C1165 1.387 . S
C1164 N1167 1.341 . S
C1165 C1163 1.400 . S
C1165 C1164 1.387 . S
N1166 Co1157 2.022 . S
N1166 C1163 1.351 . S
N1166 N1167 1.365 . S
N1167 C1164 1.341 . S
N1167 N1166 1.365 . S
N1167 H1187 0.862 . S
C1168 C1163 1.501 . S
C1168 H1169 0.961 . S
C1168 H1170 0.961 . S
C1168 H1171 0.960 . S
H1169 C1168 0.961 . S
H1170 C1168 0.961 . S
H1171 C1168 0.960 . S
C1172 N1173 1.342 . S
C1172 C1176 1.401 . S
C1172 C1177 1.499 . S
N1173 Co1156 1.989 . S
N1173 C1172 1.342 . S
N1173 N1174 1.388 . S
N1174 Co1157 1.993 . S
N1174 N1173 1.388 . S
N1174 C1175 1.346 . S
C1175 N1174 1.346 . S
C1175 C1176 1.396 . S
C1175 C1185 1.510 . S
C1176 C1172 1.401 . S
C1176 C1175 1.396 . S
C1177 C1172 1.499 . S
C1177 H1178 0.959 . S
C1177 H1179 0.960 . S
C1177 H1180 0.961 . S
H1178 C1177 0.959 . S
H1179 C1177 0.960 . S
H1180 C1177 0.961 . S
O1181 Co1156 1.967 . S
O1181 C1189 1.258 . S
O1182 Co1157 1.941 . S
O1182 C1189 1.266 . S
H1183 C1185 0.959 . S
H1184 C1185 0.961 . S
C1185 C1175 1.510 . S
C1185 H1183 0.959 . S
C1185 H1184 0.961 . S
C1185 H1186 0.960 . S
H1186 C1185 0.960 . S
H1187 N1167 0.862 . S
O1188 Co1156 1.920 . S
O1188 C1161 1.289 . S
C1189 O1181 1.258 . S
C1189 O1182 1.266 . S
Co1190 O1193 1.970 . S
Co1190 N1207 1.989 . S
Co1190 O1215 1.967 . S
Co1190 O1222 1.920 . S
Co1191 O1194 1.966 . S
Co1191 N1200 2.022 . S
Co1191 N1208 1.993 . S
Co1191 O1216 1.941 . S
C1192 O1193 1.258 . S
C1192 O1194 1.263 . S
O1193 Co1190 1.970 . S
O1193 C1192 1.258 . S
O1194 Co1191 1.966 . S
O1194 C1192 1.263 . S
C1195 O1196 1.235 . S
C1195 O1222 1.289 . S
O1196 C1195 1.235 . S
C1197 C1199 1.400 . S
C1197 N1200 1.351 . S
C1197 C1202 1.501 . S
C1198 C1199 1.387 . S
C1198 N1201 1.341 . S
C1199 C1197 1.400 . S
C1199 C1198 1.387 . S
N1200 Co1191 2.022 . S
N1200 C1197 1.351 . S
N1200 N1201 1.365 . S
N1201 C1198 1.341 . S
N1201 N1200 1.365 . S
N1201 H1221 0.862 . S
C1202 C1197 1.501 . S
C1202 H1203 0.961 . S
C1202 H1204 0.961 . S
C1202 H1205 0.960 . S
H1203 C1202 0.961 . S
H1204 C1202 0.961 . S
H1205 C1202 0.960 . S
C1206 N1207 1.342 . S
C1206 C1210 1.401 . S
C1206 C1211 1.499 . S
N1207 Co1190 1.989 . S
N1207 C1206 1.342 . S
N1207 N1208 1.388 . S
N1208 Co1191 1.993 . S
N1208 N1207 1.388 . S
N1208 C1209 1.346 . S
C1209 N1208 1.346 . S
C1209 C1210 1.396 . S
C1209 C1219 1.510 . S
C1210 C1206 1.401 . S
C1210 C1209 1.396 . S
C1211 C1206 1.499 . S
C1211 H1212 0.959 . S
C1211 H1213 0.960 . S
C1211 H1214 0.961 . S
H1212 C1211 0.959 . S
H1213 C1211 0.960 . S
H1214 C1211 0.961 . S
O1215 Co1190 1.967 . S
O1215 C1223 1.258 . S
O1216 Co1191 1.941 . S
O1216 C1223 1.266 . S
H1217 C1219 0.959 . S
H1218 C1219 0.961 . S
C1219 C1209 1.510 . S
C1219 H1217 0.959 . S
C1219 H1218 0.961 . S
C1219 H1220 0.960 . S
H1220 C1219 0.960 . S
H1221 N1201 0.862 . S
O1222 Co1190 1.920 . S
O1222 C1195 1.289 . S
C1223 O1215 1.258 . S
C1223 O1216 1.266 . S
Co1224 O1227 1.970 . S
Co1224 N1241 1.989 . S
Co1224 O1249 1.967 . S
Co1224 O1256 1.920 . S
Co1225 O1228 1.966 . S
Co1225 N1234 2.022 . S
Co1225 N1242 1.993 . S
Co1225 O1250 1.941 . S
C1226 O1227 1.258 . S
C1226 O1228 1.263 . S
O1227 Co1224 1.970 . S
O1227 C1226 1.258 . S
O1228 Co1225 1.966 . S
O1228 C1226 1.263 . S
C1229 O1230 1.235 . S
C1229 O1256 1.289 . S
O1230 C1229 1.235 . S
C1231 C1233 1.400 . S
C1231 N1234 1.351 . S
C1231 C1236 1.501 . S
C1232 C1233 1.387 . S
C1232 N1235 1.341 . S
C1233 C1231 1.400 . S
C1233 C1232 1.387 . S
N1234 Co1225 2.022 . S
N1234 C1231 1.351 . S
N1234 N1235 1.365 . S
N1235 C1232 1.341 . S
N1235 N1234 1.365 . S
N1235 H1255 0.862 . S
C1236 C1231 1.501 . S
C1236 H1237 0.961 . S
C1236 H1238 0.961 . S
C1236 H1239 0.960 . S
H1237 C1236 0.961 . S
H1238 C1236 0.961 . S
H1239 C1236 0.960 . S
C1240 N1241 1.342 . S
C1240 C1244 1.401 . S
C1240 C1245 1.499 . S
N1241 Co1224 1.989 . S
N1241 C1240 1.342 . S
N1241 N1242 1.388 . S
N1242 Co1225 1.993 . S
N1242 N1241 1.388 . S
N1242 C1243 1.346 . S
C1243 N1242 1.346 . S
C1243 C1244 1.396 . S
C1243 C1253 1.510 . S
C1244 C1240 1.401 . S
C1244 C1243 1.396 . S
C1245 C1240 1.499 . S
C1245 H1246 0.959 . S
C1245 H1247 0.960 . S
C1245 H1248 0.961 . S
H1246 C1245 0.959 . S
H1247 C1245 0.960 . S
H1248 C1245 0.961 . S
O1249 Co1224 1.967 . S
O1249 C1257 1.258 . S
O1250 Co1225 1.941 . S
O1250 C1257 1.266 . S
H1251 C1253 0.959 . S
H1252 C1253 0.961 . S
C1253 C1243 1.510 . S
C1253 H1251 0.959 . S
C1253 H1252 0.961 . S
C1253 H1254 0.960 . S
H1254 C1253 0.960 . S
H1255 N1235 0.862 . S
O1256 Co1224 1.920 . S
O1256 C1229 1.289 . S
C1257 O1249 1.258 . S
C1257 O1250 1.266 . S
Co1258 O1261 1.970 . S
Co1258 N1275 1.989 . S
Co1258 O1283 1.967 . S
Co1258 O1290 1.920 . S
Co1259 O1262 1.966 . S
Co1259 N1268 2.022 . S
Co1259 N1276 1.993 . S
Co1259 O1284 1.941 . S
C1260 O1261 1.258 . S
C1260 O1262 1.263 . S
O1261 Co1258 1.970 . S
O1261 C1260 1.258 . S
O1262 Co1259 1.966 . S
O1262 C1260 1.263 . S
C1263 O1264 1.235 . S
C1263 O1290 1.289 . S
O1264 C1263 1.235 . S
C1265 C1267 1.400 . S
C1265 N1268 1.351 . S
C1265 C1270 1.501 . S
C1266 C1267 1.387 . S
C1266 N1269 1.341 . S
C1267 C1265 1.400 . S
C1267 C1266 1.387 . S
N1268 Co1259 2.022 . S
N1268 C1265 1.351 . S
N1268 N1269 1.365 . S
N1269 C1266 1.341 . S
N1269 N1268 1.365 . S
N1269 H1289 0.862 . S
C1270 C1265 1.501 . S
C1270 H1271 0.961 . S
C1270 H1272 0.961 . S
C1270 H1273 0.960 . S
H1271 C1270 0.961 . S
H1272 C1270 0.961 . S
H1273 C1270 0.960 . S
C1274 N1275 1.342 . S
C1274 C1278 1.401 . S
C1274 C1279 1.499 . S
N1275 Co1258 1.989 . S
N1275 C1274 1.342 . S
N1275 N1276 1.388 . S
N1276 Co1259 1.993 . S
N1276 N1275 1.388 . S
N1276 C1277 1.346 . S
C1277 N1276 1.346 . S
C1277 C1278 1.396 . S
C1277 C1287 1.510 . S
C1278 C1274 1.401 . S
C1278 C1277 1.396 . S
C1279 C1274 1.499 . S
C1279 H1280 0.959 . S
C1279 H1281 0.960 . S
C1279 H1282 0.961 . S
H1280 C1279 0.959 . S
H1281 C1279 0.960 . S
H1282 C1279 0.961 . S
O1283 Co1258 1.967 . S
O1283 C1291 1.258 . S
O1284 Co1259 1.941 . S
O1284 C1291 1.266 . S
H1285 C1287 0.959 . S
H1286 C1287 0.961 . S
C1287 C1277 1.510 . S
C1287 H1285 0.959 . S
C1287 H1286 0.961 . S
C1287 H1288 0.960 . S
H1288 C1287 0.960 . S
H1289 N1269 0.862 . S
O1290 Co1258 1.920 . S
O1290 C1263 1.289 . S
C1291 O1283 1.258 . S
C1291 O1284 1.266 . S
Co1292 O1295 1.970 . S
Co1292 N1309 1.989 . S
Co1292 O1317 1.967 . S
Co1292 O1324 1.920 . S
Co1293 O1296 1.966 . S
Co1293 N1302 2.022 . S
Co1293 N1310 1.993 . S
Co1293 O1318 1.941 . S
C1294 O1295 1.258 . S
C1294 O1296 1.263 . S
O1295 Co1292 1.970 . S
O1295 C1294 1.258 . S
O1296 Co1293 1.966 . S
O1296 C1294 1.263 . S
C1297 O1298 1.235 . S
C1297 O1324 1.289 . S
O1298 C1297 1.235 . S
C1299 C1301 1.400 . S
C1299 N1302 1.351 . S
C1299 C1304 1.501 . S
C1300 C1301 1.387 . S
C1300 N1303 1.341 . S
C1301 C1299 1.400 . S
C1301 C1300 1.387 . S
N1302 Co1293 2.022 . S
N1302 C1299 1.351 . S
N1302 N1303 1.365 . S
N1303 C1300 1.341 . S
N1303 N1302 1.365 . S
N1303 H1323 0.862 . S
C1304 C1299 1.501 . S
C1304 H1305 0.961 . S
C1304 H1306 0.961 . S
C1304 H1307 0.960 . S
H1305 C1304 0.961 . S
H1306 C1304 0.961 . S
H1307 C1304 0.960 . S
C1308 N1309 1.342 . S
C1308 C1312 1.401 . S
C1308 C1313 1.499 . S
N1309 Co1292 1.989 . S
N1309 C1308 1.342 . S
N1309 N1310 1.388 . S
N1310 Co1293 1.993 . S
N1310 N1309 1.388 . S
N1310 C1311 1.346 . S
C1311 N1310 1.346 . S
C1311 C1312 1.396 . S
C1311 C1321 1.510 . S
C1312 C1308 1.401 . S
C1312 C1311 1.396 . S
C1313 C1308 1.499 . S
C1313 H1314 0.959 . S
C1313 H1315 0.960 . S
C1313 H1316 0.961 . S
H1314 C1313 0.959 . S
H1315 C1313 0.960 . S
H1316 C1313 0.961 . S
O1317 Co1292 1.967 . S
O1317 C1325 1.258 . S
O1318 Co1293 1.941 . S
O1318 C1325 1.266 . S
H1319 C1321 0.959 . S
H1320 C1321 0.961 . S
C1321 C1311 1.510 . S
C1321 H1319 0.959 . S
C1321 H1320 0.961 . S
C1321 H1322 0.960 . S
H1322 C1321 0.960 . S
H1323 N1303 0.862 . S
O1324 Co1292 1.920 . S
O1324 C1297 1.289 . S
C1325 O1317 1.258 . S
C1325 O1318 1.266 . S
Co1326 O1329 1.970 . S
Co1326 N1343 1.989 . S
Co1326 O1351 1.967 . S
Co1326 O1358 1.920 . S
Co1327 O1330 1.966 . S
Co1327 N1336 2.022 . S
Co1327 N1344 1.993 . S
Co1327 O1352 1.941 . S
C1328 O1329 1.258 . S
C1328 O1330 1.263 . S
O1329 Co1326 1.970 . S
O1329 C1328 1.258 . S
O1330 Co1327 1.966 . S
O1330 C1328 1.263 . S
C1331 O1332 1.235 . S
C1331 O1358 1.289 . S
O1332 C1331 1.235 . S
C1333 C1335 1.400 . S
C1333 N1336 1.351 . S
C1333 C1338 1.501 . S
C1334 C1335 1.387 . S
C1334 N1337 1.341 . S
C1335 C1333 1.400 . S
C1335 C1334 1.387 . S
N1336 Co1327 2.022 . S
N1336 C1333 1.351 . S
N1336 N1337 1.365 . S
N1337 C1334 1.341 . S
N1337 N1336 1.365 . S
N1337 H1357 0.862 . S
C1338 C1333 1.501 . S
C1338 H1339 0.961 . S
C1338 H1340 0.961 . S
C1338 H1341 0.960 . S
H1339 C1338 0.961 . S
H1340 C1338 0.961 . S
H1341 C1338 0.960 . S
C1342 N1343 1.342 . S
C1342 C1346 1.401 . S
C1342 C1347 1.499 . S
N1343 Co1326 1.989 . S
N1343 C1342 1.342 . S
N1343 N1344 1.388 . S
N1344 Co1327 1.993 . S
N1344 N1343 1.388 . S
N1344 C1345 1.346 . S
C1345 N1344 1.346 . S
C1345 C1346 1.396 . S
C1345 C1355 1.510 . S
C1346 C1342 1.401 . S
C1346 C1345 1.396 . S
C1347 C1342 1.499 . S
C1347 H1348 0.959 . S
C1347 H1349 0.960 . S
C1347 H1350 0.961 . S
H1348 C1347 0.959 . S
H1349 C1347 0.960 . S
H1350 C1347 0.961 . S
O1351 Co1326 1.967 . S
O1351 C1359 1.258 . S
O1352 Co1327 1.941 . S
O1352 C1359 1.266 . S
H1353 C1355 0.959 . S
H1354 C1355 0.961 . S
C1355 C1345 1.510 . S
C1355 H1353 0.959 . S
C1355 H1354 0.961 . S
C1355 H1356 0.960 . S
H1356 C1355 0.960 . S
H1357 N1337 0.862 . S
O1358 Co1326 1.920 . S
O1358 C1331 1.289 . S
C1359 O1351 1.258 . S
C1359 O1352 1.266 . S
Co1360 O1363 1.970 . S
Co1360 N1377 1.989 . S
Co1360 O1385 1.967 . S
Co1360 O1392 1.920 . S
Co1361 O1364 1.966 . S
Co1361 N1370 2.022 . S
Co1361 N1378 1.993 . S
Co1361 O1386 1.941 . S
C1362 O1363 1.258 . S
C1362 O1364 1.263 . S
O1363 Co1360 1.970 . S
O1363 C1362 1.258 . S
O1364 Co1361 1.966 . S
O1364 C1362 1.263 . S
C1365 O1366 1.235 . S
C1365 O1392 1.289 . S
O1366 C1365 1.235 . S
C1367 C1369 1.400 . S
C1367 N1370 1.351 . S
C1367 C1372 1.501 . S
C1368 C1369 1.387 . S
C1368 N1371 1.341 . S
C1369 C1367 1.400 . S
C1369 C1368 1.387 . S
N1370 Co1361 2.022 . S
N1370 C1367 1.351 . S
N1370 N1371 1.365 . S
N1371 C1368 1.341 . S
N1371 N1370 1.365 . S
N1371 H1391 0.862 . S
C1372 C1367 1.501 . S
C1372 H1373 0.961 . S
C1372 H1374 0.961 . S
C1372 H1375 0.960 . S
H1373 C1372 0.961 . S
H1374 C1372 0.961 . S
H1375 C1372 0.960 . S
C1376 N1377 1.342 . S
C1376 C1380 1.401 . S
C1376 C1381 1.499 . S
N1377 Co1360 1.989 . S
N1377 C1376 1.342 . S
N1377 N1378 1.388 . S
N1378 Co1361 1.993 . S
N1378 N1377 1.388 . S
N1378 C1379 1.346 . S
C1379 N1378 1.346 . S
C1379 C1380 1.396 . S
C1379 C1389 1.510 . S
C1380 C1376 1.401 . S
C1380 C1379 1.396 . S
C1381 C1376 1.499 . S
C1381 H1382 0.959 . S
C1381 H1383 0.960 . S
C1381 H1384 0.961 . S
H1382 C1381 0.959 . S
H1383 C1381 0.960 . S
H1384 C1381 0.961 . S
O1385 Co1360 1.967 . S
O1385 C1393 1.258 . S
O1386 Co1361 1.941 . S
O1386 C1393 1.266 . S
H1387 C1389 0.959 . S
H1388 C1389 0.961 . S
C1389 C1379 1.510 . S
C1389 H1387 0.959 . S
C1389 H1388 0.961 . S
C1389 H1390 0.960 . S
H1390 C1389 0.960 . S
H1391 N1371 0.862 . S
O1392 Co1360 1.920 . S
O1392 C1365 1.289 . S
C1393 O1385 1.258 . S
C1393 O1386 1.266 . S
Co1394 O1397 1.970 . S
Co1394 N1411 1.989 . S
Co1394 O1419 1.967 . S
Co1394 O1426 1.920 . S
Co1395 O1398 1.966 . S
Co1395 N1404 2.022 . S
Co1395 N1412 1.993 . S
Co1395 O1420 1.941 . S
C1396 O1397 1.258 . S
C1396 O1398 1.263 . S
O1397 Co1394 1.970 . S
O1397 C1396 1.258 . S
O1398 Co1395 1.966 . S
O1398 C1396 1.263 . S
C1399 O1400 1.235 . S
C1399 O1426 1.289 . S
O1400 C1399 1.235 . S
C1401 C1403 1.400 . S
C1401 N1404 1.351 . S
C1401 C1406 1.501 . S
C1402 C1403 1.387 . S
C1402 N1405 1.341 . S
C1403 C1401 1.400 . S
C1403 C1402 1.387 . S
N1404 Co1395 2.022 . S
N1404 C1401 1.351 . S
N1404 N1405 1.365 . S
N1405 C1402 1.341 . S
N1405 N1404 1.365 . S
N1405 H1425 0.862 . S
C1406 C1401 1.501 . S
C1406 H1407 0.961 . S
C1406 H1408 0.961 . S
C1406 H1409 0.960 . S
H1407 C1406 0.961 . S
H1408 C1406 0.961 . S
H1409 C1406 0.960 . S
C1410 N1411 1.342 . S
C1410 C1414 1.401 . S
C1410 C1415 1.499 . S
N1411 Co1394 1.989 . S
N1411 C1410 1.342 . S
N1411 N1412 1.388 . S
N1412 Co1395 1.993 . S
N1412 N1411 1.388 . S
N1412 C1413 1.346 . S
C1413 N1412 1.346 . S
C1413 C1414 1.396 . S
C1413 C1423 1.510 . S
C1414 C1410 1.401 . S
C1414 C1413 1.396 . S
C1415 C1410 1.499 . S
C1415 H1416 0.959 . S
C1415 H1417 0.960 . S
C1415 H1418 0.961 . S
H1416 C1415 0.959 . S
H1417 C1415 0.960 . S
H1418 C1415 0.961 . S
O1419 Co1394 1.967 . S
O1419 C1427 1.258 . S
O1420 Co1395 1.941 . S
O1420 C1427 1.266 . S
H1421 C1423 0.959 . S
H1422 C1423 0.961 . S
C1423 C1413 1.510 . S
C1423 H1421 0.959 . S
C1423 H1422 0.961 . S
C1423 H1424 0.960 . S
H1424 C1423 0.960 . S
H1425 N1405 0.862 . S
O1426 Co1394 1.920 . S
O1426 C1399 1.289 . S
C1427 O1419 1.258 . S
C1427 O1420 1.266 . S
Co1428 O1431 1.970 . S
Co1428 N1445 1.989 . S
Co1428 O1453 1.967 . S
Co1428 O1460 1.920 . S
Co1429 O1432 1.966 . S
Co1429 N1438 2.022 . S
Co1429 N1446 1.993 . S
Co1429 O1454 1.941 . S
C1430 O1431 1.258 . S
C1430 O1432 1.263 . S
O1431 Co1428 1.970 . S
O1431 C1430 1.258 . S
O1432 Co1429 1.966 . S
O1432 C1430 1.263 . S
C1433 O1434 1.235 . S
C1433 O1460 1.289 . S
O1434 C1433 1.235 . S
C1435 C1437 1.400 . S
C1435 N1438 1.351 . S
C1435 C1440 1.501 . S
C1436 C1437 1.387 . S
C1436 N1439 1.341 . S
C1437 C1435 1.400 . S
C1437 C1436 1.387 . S
N1438 Co1429 2.022 . S
N1438 C1435 1.351 . S
N1438 N1439 1.365 . S
N1439 C1436 1.341 . S
N1439 N1438 1.365 . S
N1439 H1459 0.862 . S
C1440 C1435 1.501 . S
C1440 H1441 0.961 . S
C1440 H1442 0.961 . S
C1440 H1443 0.960 . S
H1441 C1440 0.961 . S
H1442 C1440 0.961 . S
H1443 C1440 0.960 . S
C1444 N1445 1.342 . S
C1444 C1448 1.401 . S
C1444 C1449 1.499 . S
N1445 Co1428 1.989 . S
N1445 C1444 1.342 . S
N1445 N1446 1.388 . S
N1446 Co1429 1.993 . S
N1446 N1445 1.388 . S
N1446 C1447 1.346 . S
C1447 N1446 1.346 . S
C1447 C1448 1.396 . S
C1447 C1457 1.510 . S
C1448 C1444 1.401 . S
C1448 C1447 1.396 . S
C1449 C1444 1.499 . S
C1449 H1450 0.959 . S
C1449 H1451 0.960 1_545 S
C1449 H1452 0.951 1_545 S
H1450 C1449 0.959 . S
H1451 C1449 0.960 1_565 S
H1452 C1449 0.951 1_565 S
O1453 Co1428 1.967 . S
O1453 C1461 1.258 . S
O1454 Co1429 1.941 . S
O1454 C1461 1.266 . S
H1455 C1457 0.959 . S
H1456 C1457 0.961 . S
C1457 C1447 1.510 . S
C1457 H1455 0.959 . S
C1457 H1456 0.961 . S
C1457 H1458 0.960 . S
H1458 C1457 0.960 . S
H1459 N1439 0.862 . S
O1460 Co1428 1.920 . S
O1460 C1433 1.289 . S
C1461 O1453 1.258 . S
C1461 O1454 1.266 . S
Co1462 O1465 1.970 . S
Co1462 N1479 1.989 . S
Co1462 O1487 1.967 . S
Co1462 O1494 1.920 . S
Co1463 O1466 1.966 . S
Co1463 N1472 2.022 . S
Co1463 N1480 1.993 . S
Co1463 O1488 1.941 . S
C1464 O1465 1.258 . S
C1464 O1466 1.263 . S
O1465 Co1462 1.970 . S
O1465 C1464 1.258 . S
O1466 Co1463 1.966 . S
O1466 C1464 1.263 . S
C1467 O1468 1.235 . S
C1467 O1494 1.289 . S
O1468 C1467 1.235 . S
C1469 C1471 1.400 . S
C1469 N1472 1.351 . S
C1469 C1474 1.501 . S
C1470 C1471 1.387 . S
C1470 N1473 1.341 . S
C1471 C1469 1.400 . S
C1471 C1470 1.387 . S
N1472 Co1463 2.022 . S
N1472 C1469 1.351 . S
N1472 N1473 1.365 . S
N1473 C1470 1.341 . S
N1473 N1472 1.365 . S
N1473 H1493 0.862 . S
C1474 C1469 1.501 . S
C1474 H1475 0.961 . S
C1474 H1476 0.961 . S
C1474 H1477 0.960 . S
H1475 C1474 0.961 . S
H1476 C1474 0.961 . S
H1477 C1474 0.960 . S
C1478 N1479 1.342 . S
C1478 C1482 1.401 . S
C1478 C1483 1.499 . S
N1479 Co1462 1.989 . S
N1479 C1478 1.342 . S
N1479 N1480 1.388 . S
N1480 Co1463 1.993 . S
N1480 N1479 1.388 . S
N1480 C1481 1.346 . S
C1481 N1480 1.346 . S
C1481 C1482 1.396 . S
C1481 C1491 1.510 . S
C1482 C1478 1.401 . S
C1482 C1481 1.396 . S
C1483 C1478 1.499 . S
C1483 H1484 0.959 . S
C1483 H1485 0.960 . S
C1483 H1486 0.961 . S
H1484 C1483 0.959 . S
H1485 C1483 0.960 . S
H1486 C1483 0.961 . S
O1487 Co1462 1.967 . S
O1487 C1495 1.258 . S
O1488 Co1463 1.941 . S
O1488 C1495 1.266 . S
H1489 C1491 0.959 . S
H1490 C1491 0.961 . S
C1491 C1481 1.510 . S
C1491 H1489 0.959 . S
C1491 H1490 0.961 . S
C1491 H1492 0.960 . S
H1492 C1491 0.960 . S
H1493 N1473 0.862 . S
O1494 Co1462 1.920 . S
O1494 C1467 1.289 . S
C1495 O1487 1.258 . S
C1495 O1488 1.266 . S
Co1496 O1499 1.970 . S
Co1496 N1513 1.989 . S
Co1496 O1521 1.967 . S
Co1496 O1528 1.920 . S
Co1497 O1500 1.966 . S
Co1497 N1506 2.022 . S
Co1497 N1514 1.993 . S
Co1497 O1522 1.941 . S
C1498 O1499 1.258 . S
C1498 O1500 1.263 . S
O1499 Co1496 1.970 . S
O1499 C1498 1.258 . S
O1500 Co1497 1.966 . S
O1500 C1498 1.263 . S
C1501 O1502 1.235 . S
C1501 O1528 1.289 . S
O1502 C1501 1.235 . S
C1503 C1505 1.400 . S
C1503 N1506 1.351 . S
C1503 C1508 1.501 . S
C1504 C1505 1.387 . S
C1504 N1507 1.341 . S
C1505 C1503 1.400 . S
C1505 C1504 1.387 . S
N1506 Co1497 2.022 . S
N1506 C1503 1.351 . S
N1506 N1507 1.365 . S
N1507 C1504 1.341 . S
N1507 N1506 1.365 . S
N1507 H1527 0.862 . S
C1508 C1503 1.501 . S
C1508 H1509 0.961 . S
C1508 H1510 0.961 . S
C1508 H1511 0.960 . S
H1509 C1508 0.961 . S
H1510 C1508 0.961 . S
H1511 C1508 0.960 . S
C1512 N1513 1.342 . S
C1512 C1516 1.401 . S
C1512 C1517 1.499 . S
N1513 Co1496 1.989 . S
N1513 C1512 1.342 . S
N1513 N1514 1.388 . S
N1514 Co1497 1.993 . S
N1514 N1513 1.388 . S
N1514 C1515 1.346 . S
C1515 N1514 1.346 . S
C1515 C1516 1.396 . S
C1515 C1525 1.510 . S
C1516 C1512 1.401 . S
C1516 C1515 1.396 . S
C1517 C1512 1.499 . S
C1517 H1518 0.959 . S
C1517 H1519 0.960 1_565 S
C1517 H1520 0.951 1_565 S
H1518 C1517 0.959 . S
H1519 C1517 0.960 1_545 S
H1520 C1517 0.951 1_545 S
O1521 Co1496 1.967 . S
O1521 C1529 1.258 . S
O1522 Co1497 1.941 . S
O1522 C1529 1.266 . S
H1523 C1525 0.959 . S
H1524 C1525 0.961 . S
C1525 C1515 1.510 . S
C1525 H1523 0.959 . S
C1525 H1524 0.961 . S
C1525 H1526 0.960 . S
H1526 C1525 0.960 . S
H1527 N1507 0.862 . S
O1528 Co1496 1.920 . S
O1528 C1501 1.289 . S
C1529 O1521 1.258 . S
C1529 O1522 1.266 . S
Co1530 O1533 1.970 . S
Co1530 N1547 1.989 . S
Co1530 O1555 1.967 . S
Co1530 O1562 1.920 . S
Co1531 O1534 1.966 . S
Co1531 N1540 2.022 . S
Co1531 N1548 1.993 . S
Co1531 O1556 1.941 . S
C1532 O1533 1.258 . S
C1532 O1534 1.263 . S
O1533 Co1530 1.970 . S
O1533 C1532 1.258 . S
O1534 Co1531 1.966 . S
O1534 C1532 1.263 . S
C1535 O1536 1.235 . S
C1535 O1562 1.289 . S
O1536 C1535 1.235 . S
C1537 C1539 1.400 . S
C1537 N1540 1.351 . S
C1537 C1542 1.501 . S
C1538 C1539 1.387 . S
C1538 N1541 1.341 . S
C1539 C1537 1.400 . S
C1539 C1538 1.387 . S
N1540 Co1531 2.022 . S
N1540 C1537 1.351 . S
N1540 N1541 1.365 . S
N1541 C1538 1.341 . S
N1541 N1540 1.365 . S
N1541 H1561 0.862 . S
C1542 C1537 1.501 . S
C1542 H1543 0.961 . S
C1542 H1544 0.961 . S
C1542 H1545 0.960 . S
H1543 C1542 0.961 . S
H1544 C1542 0.961 . S
H1545 C1542 0.960 . S
C1546 N1547 1.342 . S
C1546 C1550 1.401 . S
C1546 C1551 1.499 . S
N1547 Co1530 1.989 . S
N1547 C1546 1.342 . S
N1547 N1548 1.388 . S
N1548 Co1531 1.993 . S
N1548 N1547 1.388 . S
N1548 C1549 1.346 . S
C1549 N1548 1.346 . S
C1549 C1550 1.396 . S
C1549 C1559 1.510 . S
C1550 C1546 1.401 . S
C1550 C1549 1.396 . S
C1551 C1546 1.499 . S
C1551 H1552 0.959 . S
C1551 H1553 0.960 . S
C1551 H1554 0.961 . S
H1552 C1551 0.959 . S
H1553 C1551 0.960 . S
H1554 C1551 0.961 . S
O1555 Co1530 1.967 . S
O1555 C1563 1.258 . S
O1556 Co1531 1.941 . S
O1556 C1563 1.266 . S
H1557 C1559 0.959 . S
H1558 C1559 0.961 . S
C1559 C1549 1.510 . S
C1559 H1557 0.959 . S
C1559 H1558 0.961 . S
C1559 H1560 0.960 . S
H1560 C1559 0.960 . S
H1561 N1541 0.862 . S
O1562 Co1530 1.920 . S
O1562 C1535 1.289 . S
C1563 O1555 1.258 . S
C1563 O1556 1.266 . S
Co1564 O1567 1.970 . S
Co1564 N1581 1.989 . S
Co1564 O1589 1.967 . S
Co1564 O1596 1.920 . S
Co1565 O1568 1.966 . S
Co1565 N1574 2.022 . S
Co1565 N1582 1.993 . S
Co1565 O1590 1.941 . S
C1566 O1567 1.258 . S
C1566 O1568 1.263 . S
O1567 Co1564 1.970 . S
O1567 C1566 1.258 . S
O1568 Co1565 1.966 . S
O1568 C1566 1.263 . S
C1569 O1570 1.235 . S
C1569 O1596 1.289 . S
O1570 C1569 1.235 . S
C1571 C1573 1.400 . S
C1571 N1574 1.351 . S
C1571 C1576 1.501 . S
C1572 C1573 1.387 . S
C1572 N1575 1.341 . S
C1573 C1571 1.400 . S
C1573 C1572 1.387 . S
N1574 Co1565 2.022 . S
N1574 C1571 1.351 . S
N1574 N1575 1.365 . S
N1575 C1572 1.341 . S
N1575 N1574 1.365 . S
N1575 H1595 0.862 . S
C1576 C1571 1.501 . S
C1576 H1577 0.961 . S
C1576 H1578 0.961 . S
C1576 H1579 0.960 . S
H1577 C1576 0.961 . S
H1578 C1576 0.961 . S
H1579 C1576 0.960 . S
C1580 N1581 1.342 . S
C1580 C1584 1.401 . S
C1580 C1585 1.499 . S
N1581 Co1564 1.989 . S
N1581 C1580 1.342 . S
N1581 N1582 1.388 . S
N1582 Co1565 1.993 . S
N1582 N1581 1.388 . S
N1582 C1583 1.346 . S
C1583 N1582 1.346 . S
C1583 C1584 1.396 . S
C1583 C1593 1.510 . S
C1584 C1580 1.401 . S
C1584 C1583 1.396 . S
C1585 C1580 1.499 . S
C1585 H1586 0.959 . S
C1585 H1587 0.960 1_565 S
C1585 H1588 0.951 1_565 S
H1586 C1585 0.959 . S
H1587 C1585 0.960 1_545 S
H1588 C1585 0.951 1_545 S
O1589 Co1564 1.967 . S
O1589 C1597 1.258 . S
O1590 Co1565 1.941 . S
O1590 C1597 1.266 . S
H1591 C1593 0.959 . S
H1592 C1593 0.961 . S
C1593 C1583 1.510 . S
C1593 H1591 0.959 . S
C1593 H1592 0.961 . S
C1593 H1594 0.960 . S
H1594 C1593 0.960 . S
H1595 N1575 0.862 . S
O1596 Co1564 1.920 . S
O1596 C1569 1.289 . S
C1597 O1589 1.258 . S
C1597 O1590 1.266 . S
Co1598 O1601 1.970 . S
Co1598 N1615 1.989 . S
Co1598 O1623 1.967 . S
Co1598 O1630 1.920 . S
Co1599 O1602 1.966 . S
Co1599 N1608 2.022 . S
Co1599 N1616 1.993 . S
Co1599 O1624 1.941 . S
C1600 O1601 1.258 . S
C1600 O1602 1.263 . S
O1601 Co1598 1.970 . S
O1601 C1600 1.258 . S
O1602 Co1599 1.966 . S
O1602 C1600 1.263 . S
C1603 O1604 1.235 . S
C1603 O1630 1.289 . S
O1604 C1603 1.235 . S
C1605 C1607 1.400 . S
C1605 N1608 1.351 . S
C1605 C1610 1.501 . S
C1606 C1607 1.387 . S
C1606 N1609 1.341 . S
C1607 C1605 1.400 . S
C1607 C1606 1.387 . S
N1608 Co1599 2.022 . S
N1608 C1605 1.351 . S
N1608 N1609 1.365 . S
N1609 C1606 1.341 . S
N1609 N1608 1.365 . S
N1609 H1629 0.862 . S
C1610 C1605 1.501 . S
C1610 H1611 0.961 . S
C1610 H1612 0.961 . S
C1610 H1613 0.960 . S
H1611 C1610 0.961 . S
H1612 C1610 0.961 . S
H1613 C1610 0.960 . S
C1614 N1615 1.342 . S
C1614 C1618 1.401 . S
C1614 C1619 1.499 . S
N1615 Co1598 1.989 . S
N1615 C1614 1.342 . S
N1615 N1616 1.388 . S
N1616 Co1599 1.993 . S
N1616 N1615 1.388 . S
N1616 C1617 1.346 . S
C1617 N1616 1.346 . S
C1617 C1618 1.396 . S
C1617 C1627 1.510 . S
C1618 C1614 1.401 . S
C1618 C1617 1.396 . S
C1619 C1614 1.499 . S
C1619 H1620 0.959 . S
C1619 H1621 0.960 . S
C1619 H1622 0.961 . S
H1620 C1619 0.959 . S
H1621 C1619 0.960 . S
H1622 C1619 0.961 . S
O1623 Co1598 1.967 . S
O1623 C1631 1.258 . S
O1624 Co1599 1.941 . S
O1624 C1631 1.266 . S
H1625 C1627 0.959 . S
H1626 C1627 0.961 . S
C1627 C1617 1.510 . S
C1627 H1625 0.959 . S
C1627 H1626 0.961 . S
C1627 H1628 0.960 . S
H1628 C1627 0.960 . S
H1629 N1609 0.862 . S
O1630 Co1598 1.920 . S
O1630 C1603 1.289 . S
C1631 O1623 1.258 . S
C1631 O1624 1.266 . S
C1632 C1633 1.369 . S
C1632 C1634 1.419 . S
C1632 H1636 0.930 . S
C1633 C1632 1.369 . S
C1633 C1642 1.429 . S
C1634 C1632 1.419 . S
C1634 C1635 1.363 . S
C1634 H1637 0.929 . S
C1635 C1634 1.363 . S
C1635 C1641 1.428 . S
H1636 C1632 0.930 . S
H1637 C1634 0.929 . S
S1638 N1639 1.613 . S
S1638 N1640 1.610 . S
N1639 S1638 1.613 . S
N1639 C1642 1.350 . S
N1640 S1638 1.610 . S
N1640 C1641 1.351 . S
C1641 C1635 1.428 . S
C1641 N1640 1.351 . S
C1641 C1642 1.434 . S
C1642 C1633 1.429 . S
C1642 N1639 1.350 . S
C1642 C1641 1.434 . S
C1643 C1644 1.369 . S
C1643 C1645 1.419 . S
C1643 H1647 0.930 . S
C1644 C1643 1.369 . S
C1644 C1653 1.429 . S
C1645 C1643 1.419 . S
C1645 C1646 1.363 . S
C1645 H1648 0.929 . S
C1646 C1645 1.363 . S
C1646 C1652 1.428 . S
H1647 C1643 0.930 . S
H1648 C1645 0.929 . S
S1649 N1650 1.613 . S
S1649 N1651 1.610 . S
N1650 S1649 1.613 . S
N1650 C1653 1.350 . S
N1651 S1649 1.610 . S
N1651 C1652 1.351 . S
C1652 C1646 1.428 . S
C1652 N1651 1.351 . S
C1652 C1653 1.434 . S
C1653 C1644 1.429 . S
C1653 N1650 1.350 . S
C1653 C1652 1.434 . S
C1654 C1655 1.369 . S
C1654 C1656 1.419 . S
C1654 H1658 0.930 . S
C1655 C1654 1.369 . S
C1655 C1664 1.429 . S
C1656 C1654 1.419 . S
C1656 C1657 1.363 . S
C1656 H1659 0.929 . S
C1657 C1656 1.363 . S
C1657 C1663 1.428 . S
H1658 C1654 0.930 . S
H1659 C1656 0.929 . S
S1660 N1661 1.613 . S
S1660 N1662 1.610 . S
N1661 S1660 1.613 . S
N1661 C1664 1.350 . S
N1662 S1660 1.610 . S
N1662 C1663 1.351 . S
C1663 C1657 1.428 . S
C1663 N1662 1.351 . S
C1663 C1664 1.434 . S
C1664 C1655 1.429 . S
C1664 N1661 1.350 . S
C1664 C1663 1.434 . S
C1665 C1666 1.369 . S
C1665 C1667 1.419 . S
C1665 H1669 0.930 . S
C1666 C1665 1.369 . S
C1666 C1675 1.429 . S
C1667 C1665 1.419 . S
C1667 C1668 1.363 . S
C1667 H1670 0.929 . S
C1668 C1667 1.363 . S
C1668 C1674 1.428 . S
H1669 C1665 0.930 . S
H1670 C1667 0.929 . S
S1671 N1672 1.613 . S
S1671 N1673 1.610 . S
N1672 S1671 1.613 . S
N1672 C1675 1.350 . S
N1673 S1671 1.610 . S
N1673 C1674 1.351 . S
C1674 C1668 1.428 . S
C1674 N1673 1.351 . S
C1674 C1675 1.434 . S
C1675 C1666 1.429 . S
C1675 N1672 1.350 . S
C1675 C1674 1.434 . S
C1676 C1677 1.369 . S
C1676 C1678 1.419 . S
C1676 H1680 0.930 . S
C1677 C1676 1.369 . S
C1677 C1686 1.429 . S
C1678 C1676 1.419 . S
C1678 C1679 1.363 . S
C1678 H1681 0.929 . S
C1679 C1678 1.363 . S
C1679 C1685 1.428 . S
H1680 C1676 0.930 . S
H1681 C1678 0.929 . S
S1682 N1683 1.613 . S
S1682 N1684 1.610 . S
N1683 S1682 1.613 . S
N1683 C1686 1.350 . S
N1684 S1682 1.610 . S
N1684 C1685 1.351 . S
C1685 C1679 1.428 . S
C1685 N1684 1.351 . S
C1685 C1686 1.434 . S
C1686 C1677 1.429 . S
C1686 N1683 1.350 . S
C1686 C1685 1.434 . S
C1687 C1688 1.369 . S
C1687 C1689 1.419 . S
C1687 H1691 0.930 . S
C1688 C1687 1.369 . S
C1688 C1697 1.429 . S
C1689 C1687 1.419 . S
C1689 C1690 1.363 . S
C1689 H1692 0.929 . S
C1690 C1689 1.363 . S
C1690 C1696 1.428 . S
H1691 C1687 0.930 . S
H1692 C1689 0.929 . S
S1693 N1694 1.613 . S
S1693 N1695 1.610 1_655 S
N1694 S1693 1.613 . S
N1694 C1697 1.350 . S
N1695 S1693 1.610 1_455 S
N1695 C1696 1.351 1_455 S
C1696 C1690 1.428 . S
C1696 N1695 1.351 1_655 S
C1696 C1697 1.434 . S
C1697 C1688 1.429 . S
C1697 N1694 1.350 . S
C1697 C1696 1.434 . S
C1698 C1699 1.369 . S
C1698 C1700 1.419 . S
C1698 H1702 0.930 . S
C1699 C1698 1.369 . S
C1699 C1708 1.429 . S
C1700 C1698 1.419 . S
C1700 C1701 1.363 . S
C1700 H1703 0.929 . S
C1701 C1700 1.363 . S
C1701 C1707 1.428 . S
H1702 C1698 0.930 . S
H1703 C1700 0.929 . S
S1704 N1705 1.613 . S
S1704 N1706 1.610 . S
N1705 S1704 1.613 . S
N1705 C1708 1.350 . S
N1706 S1704 1.610 . S
N1706 C1707 1.351 . S
C1707 C1701 1.428 . S
C1707 N1706 1.351 . S
C1707 C1708 1.434 . S
C1708 C1699 1.429 . S
C1708 N1705 1.350 . S
C1708 C1707 1.434 . S
C1709 C1710 1.369 . S
C1709 C1711 1.419 . S
C1709 H1713 0.930 . S
C1710 C1709 1.369 . S
C1710 C1719 1.429 . S
C1711 C1709 1.419 . S
C1711 C1712 1.363 . S
C1711 H1714 0.929 . S
C1712 C1711 1.363 . S
C1712 C1718 1.428 . S
H1713 C1709 0.930 . S
H1714 C1711 0.929 . S
S1715 N1716 1.595 1_455 S
S1715 N1717 1.653 . S
N1716 S1715 1.595 1_655 S
N1716 C1719 1.350 1_655 S
N1717 S1715 1.653 . S
N1717 C1718 1.351 . S
C1718 C1712 1.428 . S
C1718 N1717 1.351 . S
C1718 C1719 1.434 . S
C1719 C1710 1.429 . S
C1719 N1716 1.350 1_455 S
C1719 C1718 1.434 . S
C1720 C1721 1.369 . S
C1720 C1722 1.419 . S
C1720 H1724 0.930 . S
C1721 C1720 1.369 . S
C1721 C1730 1.429 . S
C1722 C1720 1.419 . S
C1722 C1723 1.363 . S
C1722 H1725 0.929 . S
C1723 C1722 1.363 . S
C1723 C1729 1.428 . S
H1724 C1720 0.930 . S
H1725 C1722 0.929 . S
S1726 N1727 1.613 . S
S1726 N1728 1.610 . S
N1727 S1726 1.613 . S
N1727 C1730 1.350 . S
N1728 S1726 1.610 . S
N1728 C1729 1.351 . S
C1729 C1723 1.428 . S
C1729 N1728 1.351 . S
C1729 C1730 1.434 . S
C1730 C1721 1.429 . S
C1730 N1727 1.350 . S
C1730 C1729 1.434 . S
C1731 C1732 1.369 . S
C1731 C1733 1.419 . S
C1731 H1735 0.930 . S
C1732 C1731 1.369 . S
C1732 C1741 1.429 . S
C1733 C1731 1.419 . S
C1733 C1734 1.363 . S
C1733 H1736 0.929 . S
C1734 C1733 1.363 . S
C1734 C1740 1.428 . S
H1735 C1731 0.930 . S
H1736 C1733 0.929 . S
S1737 N1738 1.613 . S
S1737 N1739 1.610 . S
N1738 S1737 1.613 . S
N1738 C1741 1.350 . S
N1739 S1737 1.610 . S
N1739 C1740 1.351 . S
C1740 C1734 1.428 . S
C1740 N1739 1.351 . S
C1740 C1741 1.434 . S
C1741 C1732 1.429 . S
C1741 N1738 1.350 . S
C1741 C1740 1.434 . S
C1742 C1743 1.369 . S
C1742 C1744 1.419 . S
C1742 H1746 0.930 . S
C1743 C1742 1.369 . S
C1743 C1752 1.429 . S
C1744 C1742 1.419 . S
C1744 C1745 1.363 . S
C1744 H1747 0.929 . S
C1745 C1744 1.363 . S
C1745 C1751 1.428 . S
H1746 C1742 0.930 . S
H1747 C1744 0.929 . S
S1748 N1749 1.613 . S
S1748 N1750 1.610 . S
N1749 S1748 1.613 . S
N1749 C1752 1.350 . S
N1750 S1748 1.610 . S
N1750 C1751 1.351 . S
C1751 C1745 1.428 . S
C1751 N1750 1.351 . S
C1751 C1752 1.434 . S
C1752 C1743 1.429 . S
C1752 N1749 1.350 . S
C1752 C1751 1.434 . S
C1753 C1754 1.369 . S
C1753 C1755 1.419 . S
C1753 H1757 0.930 . S
C1754 C1753 1.369 . S
C1754 C1763 1.429 . S
C1755 C1753 1.419 . S
C1755 C1756 1.363 . S
C1755 H1758 0.929 . S
C1756 C1755 1.363 . S
C1756 C1762 1.428 . S
H1757 C1753 0.930 . S
H1758 C1755 0.929 . S
S1759 N1760 1.613 1_554 S
S1759 N1761 1.610 . S
N1760 S1759 1.613 1_556 S
N1760 C1763 1.350 . S
N1761 S1759 1.610 . S
N1761 C1762 1.351 1_554 S
C1762 C1756 1.428 . S
C1762 N1761 1.351 1_556 S
C1762 C1763 1.434 . S
C1763 C1754 1.429 . S
C1763 N1760 1.350 . S
C1763 C1762 1.434 . S
C1764 C1765 1.369 . S
C1764 C1766 1.419 . S
C1764 H1768 0.930 . S
C1765 C1764 1.369 . S
C1765 C1774 1.429 . S
C1766 C1764 1.419 . S
C1766 C1767 1.363 . S
C1766 H1769 0.929 . S
C1767 C1766 1.363 . S
C1767 C1773 1.428 . S
H1768 C1764 0.930 . S
H1769 C1766 0.929 . S
S1770 N1771 1.613 . S
S1770 N1772 1.610 . S
N1771 S1770 1.613 . S
N1771 C1774 1.350 . S
N1772 S1770 1.610 . S
N1772 C1773 1.351 . S
C1773 C1767 1.428 . S
C1773 N1772 1.351 . S
C1773 C1774 1.434 . S
C1774 C1765 1.429 . S
C1774 N1771 1.350 . S
C1774 C1773 1.434 . S
C1775 C1776 1.369 . S
C1775 C1777 1.419 . S
C1775 H1779 0.930 . S
C1776 C1775 1.369 . S
C1776 C1785 1.429 . S
C1777 C1775 1.419 . S
C1777 C1778 1.363 . S
C1777 H1780 0.929 . S
C1778 C1777 1.363 . S
C1778 C1784 1.428 . S
H1779 C1775 0.930 . S
H1780 C1777 0.929 . S
S1781 N1782 1.613 1_556 S
S1781 N1783 1.610 . S
N1782 S1781 1.613 1_554 S
N1782 C1785 1.350 . S
N1783 S1781 1.610 . S
N1783 C1784 1.351 1_556 S
C1784 C1778 1.428 . S
C1784 N1783 1.351 1_554 S
C1784 C1785 1.434 . S
C1785 C1776 1.429 . S
C1785 N1782 1.350 . S
C1785 C1784 1.434 . S
C1786 C1787 1.369 . S
C1786 C1788 1.419 . S
C1786 H1790 0.930 . S
C1787 C1786 1.369 . S
C1787 C1796 1.429 . S
C1788 C1786 1.419 . S
C1788 C1789 1.363 . S
C1788 H1791 0.929 . S
C1789 C1788 1.363 . S
C1789 C1795 1.428 . S
H1790 C1786 0.930 . S
H1791 C1788 0.929 . S
S1792 N1793 1.613 . S
S1792 N1794 1.610 . S
N1793 S1792 1.613 . S
N1793 C1796 1.350 . S
N1794 S1792 1.610 . S
N1794 C1795 1.351 . S
C1795 C1789 1.428 . S
C1795 N1794 1.351 . S
C1795 C1796 1.434 . S
C1796 C1787 1.429 . S
C1796 N1793 1.350 . S
C1796 C1795 1.434 . S
C1797 C1798 1.369 . S
C1797 C1799 1.419 . S
C1797 H1801 0.930 . S
C1798 C1797 1.369 . S
C1798 C1807 1.429 . S
C1799 C1797 1.419 . S
C1799 C1800 1.363 . S
C1799 H1802 0.929 . S
C1800 C1799 1.363 . S
C1800 C1806 1.428 . S
H1801 C1797 0.930 . S
H1802 C1799 0.929 . S
S1803 N1804 1.639 . S
S1803 N1805 1.610 . S
N1804 S1803 1.639 . S
N1804 C1807 1.372 . S
N1805 S1803 1.610 . S
N1805 C1806 1.351 . S
C1806 C1800 1.428 . S
C1806 N1805 1.351 . S
C1806 C1807 1.434 . S
C1807 C1798 1.429 . S
C1807 N1804 1.372 . S
C1807 C1806 1.434 . S
C1808 C1809 1.369 . S
C1808 C1810 1.419 . S
C1808 H1812 0.930 . S
C1809 C1808 1.369 . S
C1809 C1818 1.429 . S
C1810 C1808 1.419 . S
C1810 C1811 1.363 . S
C1810 H1813 0.929 . S
C1811 C1810 1.363 . S
C1811 C1817 1.428 . S
H1812 C1808 0.930 . S
H1813 C1810 0.929 . S
S1814 N1815 1.613 . S
S1814 N1816 1.610 . S
N1815 S1814 1.613 . S
N1815 C1818 1.350 . S
N1816 S1814 1.610 . S
N1816 C1817 1.351 . S
C1817 C1811 1.428 . S
C1817 N1816 1.351 . S
C1817 C1818 1.434 . S
C1818 C1809 1.429 . S
C1818 N1815 1.350 . S
C1818 C1817 1.434 . S
C1819 C1820 1.369 . S
C1819 C1821 1.419 . S
C1819 H1823 0.930 . S
C1820 C1819 1.369 . S
C1820 C1829 1.429 . S
C1821 C1819 1.419 . S
C1821 C1822 1.363 . S
C1821 H1824 0.929 . S
C1822 C1821 1.363 . S
C1822 C1828 1.428 . S
H1823 C1819 0.930 . S
H1824 C1821 0.929 . S
S1825 N1826 1.613 . S
S1825 N1827 1.610 . S
N1826 S1825 1.613 . S
N1826 C1829 1.350 . S
N1827 S1825 1.610 . S
N1827 C1828 1.351 . S
C1828 C1822 1.428 . S
C1828 N1827 1.351 . S
C1828 C1829 1.434 . S
C1829 C1820 1.429 . S
C1829 N1826 1.350 . S
C1829 C1828 1.434 . S
C1830 C1831 1.369 . S
C1830 C1832 1.419 . S
C1830 H1834 0.930 . S
C1831 C1830 1.369 . S
C1831 C1840 1.429 . S
C1832 C1830 1.419 . S
C1832 C1833 1.363 . S
C1832 H1835 0.929 . S
C1833 C1832 1.363 . S
C1833 C1839 1.428 . S
H1834 C1830 0.930 . S
H1835 C1832 0.929 . S
S1836 N1837 1.613 . S
S1836 N1838 1.610 . S
N1837 S1836 1.613 . S
N1837 C1840 1.350 . S
N1838 S1836 1.610 . S
N1838 C1839 1.351 . S
C1839 C1833 1.428 . S
C1839 N1838 1.351 . S
C1839 C1840 1.434 . S
C1840 C1831 1.429 . S
C1840 N1837 1.350 . S
C1840 C1839 1.434 . S
C1841 C1842 1.369 . S
C1841 C1843 1.419 . S
C1841 H1845 0.930 . S
C1842 C1841 1.369 . S
C1842 C1851 1.429 . S
C1843 C1841 1.419 . S
C1843 C1844 1.363 . S
C1843 H1846 0.929 . S
C1844 C1843 1.363 . S
C1844 C1850 1.428 . S
H1845 C1841 0.930 . S
H1846 C1843 0.929 . S
S1847 N1848 1.613 . S
S1847 N1849 1.610 . S
N1848 S1847 1.613 . S
N1848 C1851 1.350 . S
N1849 S1847 1.610 . S
N1849 C1850 1.351 . S
C1850 C1844 1.428 . S
C1850 N1849 1.351 . S
C1850 C1851 1.434 . S
C1851 C1842 1.429 . S
C1851 N1848 1.350 . S
C1851 C1850 1.434 . S
C1852 C1853 1.369 . S
C1852 C1854 1.419 . S
C1852 H1856 0.930 . S
C1853 C1852 1.369 . S
C1853 C1862 1.429 . S
C1854 C1852 1.419 . S
C1854 C1855 1.363 . S
C1854 H1857 0.929 . S
C1855 C1854 1.363 . S
C1855 C1861 1.428 . S
H1856 C1852 0.930 . S
H1857 C1854 0.929 . S
S1858 N1859 1.613 . S
S1858 N1860 1.610 . S
N1859 S1858 1.613 . S
N1859 C1862 1.350 . S
N1860 S1858 1.610 . S
N1860 C1861 1.351 . S
C1861 C1855 1.428 . S
C1861 N1860 1.351 . S
C1861 C1862 1.434 . S
C1862 C1853 1.429 . S
C1862 N1859 1.350 . S
C1862 C1861 1.434 . S
C1863 C1864 1.369 . S
C1863 C1865 1.419 . S
C1863 H1867 0.930 . S
C1864 C1863 1.369 . S
C1864 C1873 1.429 . S
C1865 C1863 1.419 . S
C1865 C1866 1.363 . S
C1865 H1868 0.929 . S
C1866 C1865 1.363 . S
C1866 C1872 1.428 . S
H1867 C1863 0.930 . S
H1868 C1865 0.929 . S
S1869 N1870 1.613 . S
S1869 N1871 1.610 . S
N1870 S1869 1.613 . S
N1870 C1873 1.350 . S
N1871 S1869 1.610 . S
N1871 C1872 1.351 . S
C1872 C1866 1.428 . S
C1872 N1871 1.351 . S
C1872 C1873 1.434 . S
C1873 C1864 1.429 . S
C1873 N1870 1.350 . S
C1873 C1872 1.434 . S
C1874 C1875 1.369 . S
C1874 C1876 1.419 . S
C1874 H1878 0.930 . S
C1875 C1874 1.369 . S
C1875 C1884 1.429 . S
C1876 C1874 1.419 . S
C1876 C1877 1.363 . S
C1876 H1879 0.929 . S
C1877 C1876 1.363 . S
C1877 C1883 1.428 . S
H1878 C1874 0.930 . S
H1879 C1876 0.929 . S
S1880 N1881 1.613 . S
S1880 N1882 1.610 . S
N1881 S1880 1.613 . S
N1881 C1884 1.350 . S
N1882 S1880 1.610 . S
N1882 C1883 1.351 . S
C1883 C1877 1.428 . S
C1883 N1882 1.351 . S
C1883 C1884 1.434 . S
C1884 C1875 1.429 . S
C1884 N1881 1.350 . S
C1884 C1883 1.434 . S
C1885 C1886 1.369 . S
C1885 C1887 1.419 . S
C1885 H1889 0.930 1_565 S
C1886 C1885 1.369 . S
C1886 C1895 1.429 . S
C1887 C1885 1.419 . S
C1887 C1888 1.363 . S
C1887 H1890 0.929 . S
C1888 C1887 1.363 . S
C1888 C1894 1.428 . S
H1889 C1885 0.930 1_545 S
H1890 C1887 0.929 . S
S1891 N1892 1.613 . S
S1891 N1893 1.610 . S
N1892 S1891 1.613 . S
N1892 C1895 1.350 . S
N1893 S1891 1.610 . S
N1893 C1894 1.351 . S
C1894 C1888 1.428 . S
C1894 N1893 1.351 . S
C1894 C1895 1.434 . S
C1895 C1886 1.429 . S
C1895 N1892 1.350 . S
C1895 C1894 1.434 . S
C1896 C1897 1.369 . S
C1896 C1898 1.419 . S
C1896 H1900 0.930 . S
C1897 C1896 1.369 . S
C1897 C1906 1.429 . S
C1898 C1896 1.419 . S
C1898 C1899 1.363 . S
C1898 H1901 0.929 . S
C1899 C1898 1.363 . S
C1899 C1905 1.428 . S
H1900 C1896 0.930 . S
H1901 C1898 0.929 . S
S1902 N1903 1.613 . S
S1902 N1904 1.610 . S
N1903 S1902 1.613 . S
N1903 C1906 1.350 . S
N1904 S1902 1.610 . S
N1904 C1905 1.351 . S
C1905 C1899 1.428 . S
C1905 N1904 1.351 . S
C1905 C1906 1.434 . S
C1906 C1897 1.429 . S
C1906 N1903 1.350 . S
C1906 C1905 1.434 . S
C1907 C1908 1.369 . S
C1907 C1909 1.419 . S
C1907 H1911 0.930 1_455 S
C1908 C1907 1.369 . S
C1908 C1917 1.429 . S
C1909 C1907 1.419 . S
C1909 C1910 1.363 . S
C1909 H1912 0.929 . S
C1910 C1909 1.363 . S
C1910 C1916 1.428 . S
H1911 C1907 0.930 1_655 S
H1912 C1909 0.929 . S
S1913 N1914 1.613 . S
S1913 N1915 1.610 . S
N1914 S1913 1.613 . S
N1914 C1917 1.350 . S
N1915 S1913 1.610 . S
N1915 C1916 1.351 . S
C1916 C1910 1.428 . S
C1916 N1915 1.351 . S
C1916 C1917 1.434 . S
C1917 C1908 1.429 . S
C1917 N1914 1.350 . S
C1917 C1916 1.434 . S
C1918 C1919 1.369 . S
C1918 C1920 1.419 . S
C1918 H1922 0.930 . S
C1919 C1918 1.369 . S
C1919 C1928 1.429 . S
C1920 C1918 1.419 . S
C1920 C1921 1.363 . S
C1920 H1923 0.929 . S
C1921 C1920 1.363 . S
C1921 C1927 1.428 . S
H1922 C1918 0.930 . S
H1923 C1920 0.929 . S
S1924 N1925 1.613 . S
S1924 N1926 1.610 . S
N1925 S1924 1.613 . S
N1925 C1928 1.350 . S
N1926 S1924 1.610 . S
N1926 C1927 1.351 . S
C1927 C1921 1.428 . S
C1927 N1926 1.351 . S
C1927 C1928 1.434 . S
C1928 C1919 1.429 . S
C1928 N1925 1.350 . S
C1928 C1927 1.434 . S
C1929 C1930 1.369 . S
C1929 C1931 1.419 . S
C1929 H1933 0.930 . S
C1930 C1929 1.369 . S
C1930 C1939 1.429 . S
C1931 C1929 1.419 . S
C1931 C1932 1.363 . S
C1931 H1934 0.929 . S
C1932 C1931 1.363 . S
C1932 C1938 1.428 . S
H1933 C1929 0.930 . S
H1934 C1931 0.929 . S
S1935 N1936 1.613 . S
S1935 N1937 1.610 1_655 S
N1936 S1935 1.613 . S
N1936 C1939 1.350 . S
N1937 S1935 1.610 1_455 S
N1937 C1938 1.351 1_455 S
C1938 C1932 1.428 . S
C1938 N1937 1.351 1_655 S
C1938 C1939 1.434 . S
C1939 C1930 1.429 . S
C1939 N1936 1.350 . S
C1939 C1938 1.434 . S
C1940 C1941 1.369 . S
C1940 C1942 1.419 . S
C1940 H1944 0.930 . S
C1941 C1940 1.369 . S
C1941 C1950 1.429 . S
C1942 C1940 1.419 . S
C1942 C1943 1.363 . S
C1942 H1945 0.929 . S
C1943 C1942 1.363 . S
C1943 C1949 1.428 . S
H1944 C1940 0.930 . S
H1945 C1942 0.929 . S
S1946 N1947 1.613 . S
S1946 N1948 1.610 . S
N1947 S1946 1.613 . S
N1947 C1950 1.350 . S
N1948 S1946 1.610 . S
N1948 C1949 1.351 . S
C1949 C1943 1.428 . S
C1949 N1948 1.351 . S
C1949 C1950 1.434 . S
C1950 C1941 1.429 . S
C1950 N1947 1.350 . S
C1950 C1949 1.434 . S
C1951 C1952 1.369 . S
C1951 C1953 1.419 . S
C1951 H1955 0.930 . S
C1952 C1951 1.369 . S
C1952 C1961 1.429 . S
C1953 C1951 1.419 . S
C1953 C1954 1.363 . S
C1953 H1956 0.929 . S
C1954 C1953 1.363 . S
C1954 C1960 1.428 . S
H1955 C1951 0.930 . S
H1956 C1953 0.929 . S
S1957 N1958 1.613 . S
S1957 N1959 1.610 . S
N1958 S1957 1.613 . S
N1958 C1961 1.350 . S
N1959 S1957 1.610 . S
N1959 C1960 1.351 . S
C1960 C1954 1.428 . S
C1960 N1959 1.351 . S
C1960 C1961 1.434 . S
C1961 C1952 1.429 . S
C1961 N1958 1.350 . S
C1961 C1960 1.434 . S
C1962 C1963 1.369 . S
C1962 C1964 1.419 . S
C1962 H1966 0.930 . S
C1963 C1962 1.369 . S
C1963 C1972 1.429 . S
C1964 C1962 1.419 . S
C1964 C1965 1.363 . S
C1964 H1967 0.929 . S
C1965 C1964 1.363 . S
C1965 C1971 1.428 . S
H1966 C1962 0.930 . S
H1967 C1964 0.929 . S
S1968 N1969 1.613 . S
S1968 N1970 1.610 . S
N1969 S1968 1.613 . S
N1969 C1972 1.350 . S
N1970 S1968 1.610 . S
N1970 C1971 1.351 . S
C1971 C1965 1.428 . S
C1971 N1970 1.351 . S
C1971 C1972 1.434 . S
C1972 C1963 1.429 . S
C1972 N1969 1.350 . S
C1972 C1971 1.434 . S
C1973 C1974 1.369 . S
C1973 C1975 1.419 . S
C1973 H1977 0.930 . S
C1974 C1973 1.369 . S
C1974 C1983 1.429 . S
C1975 C1973 1.419 . S
C1975 C1976 1.363 . S
C1975 H1978 0.929 . S
C1976 C1975 1.363 . S
C1976 C1982 1.428 . S
H1977 C1973 0.930 . S
H1978 C1975 0.929 . S
S1979 N1980 1.613 . S
S1979 N1981 1.610 . S
N1980 S1979 1.613 . S
N1980 C1983 1.350 . S
N1981 S1979 1.610 . S
N1981 C1982 1.351 . S
C1982 C1976 1.428 . S
C1982 N1981 1.351 . S
C1982 C1983 1.434 . S
C1983 C1974 1.429 . S
C1983 N1980 1.350 . S
C1983 C1982 1.434 . S
C1984 C1985 1.369 . S
C1984 C1986 1.419 . S
C1984 H1988 0.930 . S
C1985 C1984 1.369 . S
C1985 C1994 1.429 . S
C1986 C1984 1.419 . S
C1986 C1987 1.363 . S
C1986 H1989 0.929 . S
C1987 C1986 1.363 . S
C1987 C1993 1.428 . S
H1988 C1984 0.930 . S
H1989 C1986 0.929 . S
S1990 N1991 1.613 . S
S1990 N1992 1.610 . S
N1991 S1990 1.613 . S
N1991 C1994 1.350 . S
N1992 S1990 1.610 . S
N1992 C1993 1.351 . S
C1993 C1987 1.428 . S
C1993 N1992 1.351 . S
C1993 C1994 1.434 . S
C1994 C1985 1.429 . S
C1994 N1991 1.350 . S
C1994 C1993 1.434 . S
C1995 C1996 1.369 . S
C1995 C1997 1.419 . S
C1995 H1999 0.930 . S
C1996 C1995 1.369 . S
C1996 C2005 1.429 . S
C1997 C1995 1.419 . S
C1997 C1998 1.363 . S
C1997 H2000 0.929 . S
C1998 C1997 1.363 . S
C1998 C2004 1.428 . S
H1999 C1995 0.930 . S
H2000 C1997 0.929 . S
S2001 N2002 1.613 . S
S2001 N2003 1.610 . S
N2002 S2001 1.613 . S
N2002 C2005 1.350 . S
N2003 S2001 1.610 . S
N2003 C2004 1.351 . S
C2004 C1998 1.428 . S
C2004 N2003 1.351 . S
C2004 C2005 1.434 . S
C2005 C1996 1.429 . S
C2005 N2002 1.350 . S
C2005 C2004 1.434 . S
C2006 C2007 1.369 . S
C2006 C2008 1.419 . S
C2006 H2010 0.930 . S
C2007 C2006 1.369 . S
C2007 C2016 1.429 . S
C2008 C2006 1.419 . S
C2008 C2009 1.363 . S
C2008 H2011 0.929 . S
C2009 C2008 1.363 . S
C2009 C2015 1.428 . S
H2010 C2006 0.930 . S
H2011 C2008 0.929 . S
S2012 N2013 1.613 . S
S2012 N2014 1.610 . S
N2013 S2012 1.613 . S
N2013 C2016 1.350 . S
N2014 S2012 1.610 . S
N2014 C2015 1.351 . S
C2015 C2009 1.428 . S
C2015 N2014 1.351 . S
C2015 C2016 1.434 . S
C2016 C2007 1.429 . S
C2016 N2013 1.350 . S
C2016 C2015 1.434 . S
C2017 C2018 1.369 . S
C2017 C2019 1.419 . S
C2017 H2021 0.930 . S
C2018 C2017 1.369 . S
C2018 C2027 1.429 . S
C2019 C2017 1.419 . S
C2019 C2020 1.363 . S
C2019 H2022 0.929 . S
C2020 C2019 1.363 . S
C2020 C2026 1.428 . S
H2021 C2017 0.930 . S
H2022 C2019 0.929 . S
S2023 N2024 1.613 . S
S2023 N2025 1.610 . S
N2024 S2023 1.613 . S
N2024 C2027 1.350 . S
N2025 S2023 1.610 . S
N2025 C2026 1.351 . S
C2026 C2020 1.428 . S
C2026 N2025 1.351 . S
C2026 C2027 1.434 . S
C2027 C2018 1.429 . S
C2027 N2024 1.350 . S
C2027 C2026 1.434 . S
C2028 C2029 1.369 . S
C2028 C2030 1.419 . S
C2028 H2032 0.930 . S
C2029 C2028 1.369 . S
C2029 C2038 1.429 . S
C2030 C2028 1.419 . S
C2030 C2031 1.363 . S
C2030 H2033 0.929 . S
C2031 C2030 1.363 . S
C2031 C2037 1.428 . S
H2032 C2028 0.930 . S
H2033 C2030 0.929 . S
S2034 N2035 1.613 . S
S2034 N2036 1.610 . S
N2035 S2034 1.613 . S
N2035 C2038 1.350 . S
N2036 S2034 1.610 . S
N2036 C2037 1.351 . S
C2037 C2031 1.428 . S
C2037 N2036 1.351 . S
C2037 C2038 1.434 . S
C2038 C2029 1.429 . S
C2038 N2035 1.350 . S
C2038 C2037 1.434 . S
C2039 C2040 1.369 . S
C2039 C2041 1.419 . S
C2039 H2043 0.930 . S
C2040 C2039 1.369 . S
C2040 C2049 1.429 . S
C2041 C2039 1.419 . S
C2041 C2042 1.363 . S
C2041 H2044 0.929 . S
C2042 C2041 1.363 . S
C2042 C2048 1.428 . S
H2043 C2039 0.930 . S
H2044 C2041 0.929 . S
S2045 N2046 1.613 . S
S2045 N2047 1.610 . S
N2046 S2045 1.613 . S
N2046 C2049 1.350 . S
N2047 S2045 1.610 . S
N2047 C2048 1.351 . S
C2048 C2042 1.428 . S
C2048 N2047 1.351 . S
C2048 C2049 1.434 . S
C2049 C2040 1.429 . S
C2049 N2046 1.350 . S
C2049 C2048 1.434 . S
C2050 C2051 1.369 . S
C2050 C2052 1.419 . S
C2050 H2054 0.930 . S
C2051 C2050 1.369 . S
C2051 C2060 1.429 . S
C2052 C2050 1.419 . S
C2052 C2053 1.363 . S
C2052 H2055 0.929 . S
C2053 C2052 1.363 . S
C2053 C2059 1.428 . S
H2054 C2050 0.930 . S
H2055 C2052 0.929 . S
S2056 N2057 1.613 . S
S2056 N2058 1.610 . S
N2057 S2056 1.613 . S
N2057 C2060 1.350 . S
N2058 S2056 1.610 . S
N2058 C2059 1.351 . S
C2059 C2053 1.428 . S
C2059 N2058 1.351 . S
C2059 C2060 1.434 . S
C2060 C2051 1.429 . S
C2060 N2057 1.350 . S
C2060 C2059 1.434 . S
C2061 C2062 1.369 . S
C2061 C2063 1.419 . S
C2061 H2065 0.930 . S
C2062 C2061 1.369 . S
C2062 C2071 1.429 . S
C2063 C2061 1.419 . S
C2063 C2064 1.363 . S
C2063 H2066 0.929 . S
C2064 C2063 1.363 . S
C2064 C2070 1.428 . S
H2065 C2061 0.930 . S
H2066 C2063 0.929 . S
S2067 N2068 1.613 . S
S2067 N2069 1.610 . S
N2068 S2067 1.613 . S
N2068 C2071 1.350 . S
N2069 S2067 1.610 . S
N2069 C2070 1.351 . S
C2070 C2064 1.428 . S
C2070 N2069 1.351 . S
C2070 C2071 1.434 . S
C2071 C2062 1.429 . S
C2071 N2068 1.350 . S
C2071 C2070 1.434 . S
C2072 C2073 1.369 . S
C2072 C2074 1.419 . S
C2072 H2076 0.930 . S
C2073 C2072 1.369 . S
C2073 C2082 1.429 . S
C2074 C2072 1.419 . S
C2074 C2075 1.363 . S
C2074 H2077 0.929 . S
C2075 C2074 1.363 . S
C2075 C2081 1.428 . S
H2076 C2072 0.930 . S
H2077 C2074 0.929 . S
S2078 N2079 1.613 . S
S2078 N2080 1.610 . S
N2079 S2078 1.613 . S
N2079 C2082 1.350 . S
N2080 S2078 1.610 . S
N2080 C2081 1.351 . S
C2081 C2075 1.428 . S
C2081 N2080 1.351 . S
C2081 C2082 1.434 . S
C2082 C2073 1.429 . S
C2082 N2079 1.350 . S
C2082 C2081 1.434 . S
C2083 C2084 1.369 . S
C2083 C2085 1.419 . S
C2083 H2087 0.930 . S
C2084 C2083 1.369 . S
C2084 C2093 1.429 . S
C2085 C2083 1.419 . S
C2085 C2086 1.363 . S
C2085 H2088 0.929 . S
C2086 C2085 1.363 . S
C2086 C2092 1.428 . S
H2087 C2083 0.930 . S
H2088 C2085 0.929 . S
S2089 N2090 1.613 . S
S2089 N2091 1.610 . S
N2090 S2089 1.613 . S
N2090 C2093 1.350 . S
N2091 S2089 1.610 . S
N2091 C2092 1.351 . S
C2092 C2086 1.428 . S
C2092 N2091 1.351 . S
C2092 C2093 1.434 . S
C2093 C2084 1.429 . S
C2093 N2090 1.350 . S
C2093 C2092 1.434 . S
C2094 C2095 1.369 . S
C2094 C2096 1.419 . S
C2094 H2098 0.930 . S
C2095 C2094 1.369 . S
C2095 C2104 1.429 . S
C2096 C2094 1.419 . S
C2096 C2097 1.363 . S
C2096 H2099 0.929 . S
C2097 C2096 1.363 . S
C2097 C2103 1.428 . S
H2098 C2094 0.930 . S
H2099 C2096 0.929 . S
S2100 N2101 1.613 . S
S2100 N2102 1.610 1_545 S
N2101 S2100 1.613 . S
N2101 C2104 1.350 1_545 S
N2102 S2100 1.610 1_565 S
N2102 C2103 1.351 . S
C2103 C2097 1.428 . S
C2103 N2102 1.351 . S
C2103 C2104 1.434 . S
C2104 C2095 1.429 . S
C2104 N2101 1.350 1_565 S
C2104 C2103 1.434 . S
C2105 C2106 1.369 . S
C2105 C2107 1.419 . S
C2105 H2109 0.930 . S
C2106 C2105 1.369 . S
C2106 C2115 1.429 . S
C2107 C2105 1.419 . S
C2107 C2108 1.363 . S
C2107 H2110 0.929 . S
C2108 C2107 1.363 . S
C2108 C2114 1.428 . S
H2109 C2105 0.930 . S
H2110 C2107 0.929 . S
S2111 N2112 1.613 . S
S2111 N2113 1.610 . S
N2112 S2111 1.613 . S
N2112 C2115 1.350 . S
N2113 S2111 1.610 . S
N2113 C2114 1.351 . S
C2114 C2108 1.428 . S
C2114 N2113 1.351 . S
C2114 C2115 1.434 . S
C2115 C2106 1.429 . S
C2115 N2112 1.350 . S
C2115 C2114 1.434 . S
C2116 C2117 1.369 . S
C2116 C2118 1.419 . S
C2116 H2120 0.930 . S
C2117 C2116 1.369 . S
C2117 C2126 1.429 . S
C2118 C2116 1.419 . S
C2118 C2119 1.363 . S
C2118 H2121 0.929 . S
C2119 C2118 1.363 . S
C2119 C2125 1.428 . S
H2120 C2116 0.930 . S
H2121 C2118 0.929 . S
S2122 N2123 1.613 . S
S2122 N2124 1.610 1_565 S
N2123 S2122 1.613 . S
N2123 C2126 1.350 1_565 S
N2124 S2122 1.610 1_545 S
N2124 C2125 1.351 . S
C2125 C2119 1.428 . S
C2125 N2124 1.351 . S
C2125 C2126 1.434 . S
C2126 C2117 1.429 . S
C2126 N2123 1.350 1_545 S
C2126 C2125 1.434 . S
C2127 C2128 1.369 . S
C2127 C2129 1.419 . S
C2127 H2131 0.930 . S
C2128 C2127 1.369 . S
C2128 C2137 1.429 . S
C2129 C2127 1.419 . S
C2129 C2130 1.363 . S
C2129 H2132 0.929 . S
C2130 C2129 1.363 . S
C2130 C2136 1.428 . S
H2131 C2127 0.930 . S
H2132 C2129 0.929 . S
S2133 N2134 1.613 . S
S2133 N2135 1.610 . S
N2134 S2133 1.613 . S
N2134 C2137 1.350 . S
N2135 S2133 1.610 . S
N2135 C2136 1.351 . S
C2136 C2130 1.428 . S
C2136 N2135 1.351 . S
C2136 C2137 1.434 . S
C2137 C2128 1.429 . S
C2137 N2134 1.350 . S
C2137 C2136 1.434 . S
C2138 C2139 1.369 . S
C2138 C2140 1.419 . S
C2138 H2142 0.930 . S
C2139 C2138 1.369 . S
C2139 C2148 1.429 . S
C2140 C2138 1.419 . S
C2140 C2141 1.363 . S
C2140 H2143 0.929 . S
C2141 C2140 1.363 . S
C2141 C2147 1.428 . S
H2142 C2138 0.930 . S
H2143 C2140 0.929 . S
S2144 N2145 1.613 . S
S2144 N2146 1.610 . S
N2145 S2144 1.613 . S
N2145 C2148 1.350 . S
N2146 S2144 1.610 . S
N2146 C2147 1.351 . S
C2147 C2141 1.428 . S
C2147 N2146 1.351 . S
C2147 C2148 1.434 . S
C2148 C2139 1.429 . S
C2148 N2145 1.350 . S
C2148 C2147 1.434 . S
C2149 C2150 1.369 . S
C2149 C2151 1.419 . S
C2149 H2153 0.930 . S
C2150 C2149 1.369 . S
C2150 C2159 1.429 . S
C2151 C2149 1.419 . S
C2151 C2152 1.363 . S
C2151 H2154 0.929 . S
C2152 C2151 1.363 . S
C2152 C2158 1.428 . S
H2153 C2149 0.930 . S
H2154 C2151 0.929 . S
S2155 N2156 1.613 . S
S2155 N2157 1.610 . S
N2156 S2155 1.613 . S
N2156 C2159 1.350 . S
N2157 S2155 1.610 . S
N2157 C2158 1.351 . S
C2158 C2152 1.428 . S
C2158 N2157 1.351 . S
C2158 C2159 1.434 . S
C2159 C2150 1.429 . S
C2159 N2156 1.350 . S
C2159 C2158 1.434 . S
C2160 C2161 1.369 . S
C2160 C2162 1.419 . S
C2160 H2164 0.930 . S
C2161 C2160 1.369 . S
C2161 C2170 1.429 . S
C2162 C2160 1.419 . S
C2162 C2163 1.363 . S
C2162 H2165 0.929 . S
C2163 C2162 1.363 . S
C2163 C2169 1.428 . S
H2164 C2160 0.930 . S
H2165 C2162 0.929 . S
S2166 N2167 1.613 . S
S2166 N2168 1.610 . S
N2167 S2166 1.613 . S
N2167 C2170 1.350 . S
N2168 S2166 1.610 . S
N2168 C2169 1.351 . S
C2169 C2163 1.428 . S
C2169 N2168 1.351 . S
C2169 C2170 1.434 . S
C2170 C2161 1.429 . S
C2170 N2167 1.350 . S
C2170 C2169 1.434 . S
C2171 C2172 1.369 . S
C2171 C2173 1.419 . S
C2171 H2175 0.930 . S
C2172 C2171 1.369 . S
C2172 C2181 1.429 . S
C2173 C2171 1.419 . S
C2173 C2174 1.363 . S
C2173 H2176 0.929 . S
C2174 C2173 1.363 . S
C2174 C2180 1.428 . S
H2175 C2171 0.930 . S
H2176 C2173 0.929 . S
S2177 N2178 1.613 . S
S2177 N2179 1.610 . S
N2178 S2177 1.613 . S
N2178 C2181 1.350 . S
N2179 S2177 1.610 . S
N2179 C2180 1.351 . S
C2180 C2174 1.428 . S
C2180 N2179 1.351 . S
C2180 C2181 1.434 . S
C2181 C2172 1.429 . S
C2181 N2178 1.350 . S
C2181 C2180 1.434 . S
C2182 C2183 1.369 . S
C2182 C2184 1.419 . S
C2182 H2186 0.930 . S
C2183 C2182 1.369 . S
C2183 C2192 1.429 . S
C2184 C2182 1.419 . S
C2184 C2185 1.363 . S
C2184 H2187 0.929 . S
C2185 C2184 1.363 . S
C2185 C2191 1.428 . S
H2186 C2182 0.930 . S
H2187 C2184 0.929 . S
S2188 N2189 1.613 . S
S2188 N2190 1.610 . S
N2189 S2188 1.613 . S
N2189 C2192 1.350 . S
N2190 S2188 1.610 . S
N2190 C2191 1.351 . S
C2191 C2185 1.428 . S
C2191 N2190 1.351 . S
C2191 C2192 1.434 . S
C2192 C2183 1.429 . S
C2192 N2189 1.350 . S
C2192 C2191 1.434 . S
C2193 C2194 1.401 . S
C2193 C2195 1.375 1_545 S
C2193 H2197 0.944 . S
C2194 C2193 1.401 . S
C2194 C2203 1.429 . S
C2195 C2193 1.375 1_565 S
C2195 C2196 1.363 . S
C2195 H2198 0.929 . S
C2196 C2195 1.363 . S
C2196 C2202 1.428 . S
H2197 C2193 0.944 . S
H2198 C2195 0.929 . S
S2199 N2200 1.613 . S
S2199 N2201 1.610 1_545 S
N2200 S2199 1.613 . S
N2200 C2203 1.350 . S
N2201 S2199 1.610 1_565 S
N2201 C2202 1.351 . S
C2202 C2196 1.428 . S
C2202 N2201 1.351 . S
C2202 C2203 1.434 1_565 S
C2203 C2194 1.429 . S
C2203 N2200 1.350 . S
C2203 C2202 1.434 1_545 S
C2204 C2205 1.369 . S
C2204 C2206 1.419 . S
C2204 H2208 0.930 . S
C2205 C2204 1.369 . S
C2205 C2214 1.429 . S
C2206 C2204 1.419 . S
C2206 C2207 1.363 . S
C2206 H2209 0.929 . S
C2207 C2206 1.363 . S
C2207 C2213 1.428 . S
H2208 C2204 0.930 . S
H2209 C2206 0.929 . S
S2210 N2211 1.613 . S
S2210 N2212 1.610 . S
N2211 S2210 1.613 . S
N2211 C2214 1.350 . S
N2212 S2210 1.610 . S
N2212 C2213 1.351 . S
C2213 C2207 1.428 . S
C2213 N2212 1.351 . S
C2213 C2214 1.434 . S
C2214 C2205 1.429 . S
C2214 N2211 1.350 . S
C2214 C2213 1.434 . S
C2215 C2216 1.369 . S
C2215 C2217 1.419 . S
C2215 H2219 0.930 . S
C2216 C2215 1.369 . S
C2216 C2225 1.429 . S
C2217 C2215 1.419 . S
C2217 C2218 1.363 . S
C2217 H2220 0.929 . S
C2218 C2217 1.363 . S
C2218 C2224 1.428 . S
H2219 C2215 0.930 . S
H2220 C2217 0.929 . S
S2221 N2222 1.613 . S
S2221 N2223 1.610 . S
N2222 S2221 1.613 . S
N2222 C2225 1.350 . S
N2223 S2221 1.610 . S
N2223 C2224 1.351 . S
C2224 C2218 1.428 . S
C2224 N2223 1.351 . S
C2224 C2225 1.434 . S
C2225 C2216 1.429 . S
C2225 N2222 1.350 . S
C2225 C2224 1.434 . S
C2226 C2227 1.369 . S
C2226 C2228 1.419 . S
C2226 H2230 0.930 . S
C2227 C2226 1.369 . S
C2227 C2236 1.429 . S
C2228 C2226 1.419 . S
C2228 C2229 1.363 . S
C2228 H2231 0.929 . S
C2229 C2228 1.363 . S
C2229 C2235 1.428 . S
H2230 C2226 0.930 . S
H2231 C2228 0.929 . S
S2232 N2233 1.613 . S
S2232 N2234 1.610 . S
N2233 S2232 1.613 . S
N2233 C2236 1.350 . S
N2234 S2232 1.610 . S
N2234 C2235 1.351 . S
C2235 C2229 1.428 . S
C2235 N2234 1.351 . S
C2235 C2236 1.434 . S
C2236 C2227 1.429 . S
C2236 N2233 1.350 . S
C2236 C2235 1.434 . S
C2237 C2238 1.369 . S
C2237 C2239 1.419 1_565 S
C2237 H2241 0.930 . S
C2238 C2237 1.369 . S
C2238 C2247 1.429 . S
C2239 C2237 1.419 1_545 S
C2239 C2240 1.363 . S
C2239 H2242 0.929 . S
C2240 C2239 1.363 . S
C2240 C2246 1.428 . S
H2241 C2237 0.930 . S
H2242 C2239 0.929 . S
S2243 N2244 1.613 . S
S2243 N2245 1.610 1_565 S
N2244 S2243 1.613 . S
N2244 C2247 1.350 . S
N2245 S2243 1.610 1_545 S
N2245 C2246 1.351 . S
C2246 C2240 1.428 . S
C2246 N2245 1.351 . S
C2246 C2247 1.434 1_545 S
C2247 C2238 1.429 . S
C2247 N2244 1.350 . S
C2247 C2246 1.434 1_565 S
C2248 C2249 1.369 . S
C2248 C2250 1.419 . S
C2248 H2252 0.930 . S
C2249 C2248 1.369 . S
C2249 C2258 1.429 . S
C2250 C2248 1.419 . S
C2250 C2251 1.363 . S
C2250 H2253 0.929 . S
C2251 C2250 1.363 . S
C2251 C2257 1.428 . S
H2252 C2248 0.930 . S
H2253 C2250 0.929 . S
S2254 N2255 1.613 . S
S2254 N2256 1.610 . S
N2255 S2254 1.613 . S
N2255 C2258 1.350 . S
N2256 S2254 1.610 . S
N2256 C2257 1.351 . S
C2257 C2251 1.428 . S
C2257 N2256 1.351 . S
C2257 C2258 1.434 . S
C2258 C2249 1.429 . S
C2258 N2255 1.350 . S
C2258 C2257 1.434 . S
C2259 C2260 1.369 . S
C2259 C2261 1.419 . S
C2259 H2263 0.930 . S
C2260 C2259 1.369 . S
C2260 C2269 1.429 . S
C2261 C2259 1.419 . S
C2261 C2262 1.363 . S
C2261 H2264 0.929 . S
C2262 C2261 1.363 . S
C2262 C2268 1.428 . S
H2263 C2259 0.930 . S
H2264 C2261 0.929 . S
S2265 N2266 1.613 . S
S2265 N2267 1.610 . S
N2266 S2265 1.613 . S
N2266 C2269 1.350 . S
N2267 S2265 1.610 . S
N2267 C2268 1.351 . S
C2268 C2262 1.428 . S
C2268 N2267 1.351 . S
C2268 C2269 1.434 . S
C2269 C2260 1.429 . S
C2269 N2266 1.350 . S
C2269 C2268 1.434 . S
C2270 C2271 1.369 . S
C2270 C2272 1.419 . S
C2270 H2274 0.930 . S
C2271 C2270 1.369 . S
C2271 C2280 1.429 . S
C2272 C2270 1.419 . S
C2272 C2273 1.363 . S
C2272 H2275 0.929 . S
C2273 C2272 1.363 . S
C2273 C2279 1.428 . S
H2274 C2270 0.930 . S
H2275 C2272 0.929 . S
S2276 N2277 1.613 . S
S2276 N2278 1.610 . S
N2277 S2276 1.613 . S
N2277 C2280 1.350 . S
N2278 S2276 1.610 . S
N2278 C2279 1.351 . S
C2279 C2273 1.428 . S
C2279 N2278 1.351 . S
C2279 C2280 1.434 . S
C2280 C2271 1.429 . S
C2280 N2277 1.350 . S
C2280 C2279 1.434 . S
C2281 C2282 1.369 . S
C2281 C2283 1.419 . S
C2281 H2285 0.930 . S
C2282 C2281 1.369 . S
C2282 C2291 1.429 . S
C2283 C2281 1.419 . S
C2283 C2284 1.363 . S
C2283 H2286 0.929 . S
C2284 C2283 1.363 . S
C2284 C2290 1.428 . S
H2285 C2281 0.930 . S
H2286 C2283 0.929 . S
S2287 N2288 1.613 . S
S2287 N2289 1.610 . S
N2288 S2287 1.613 . S
N2288 C2291 1.350 . S
N2289 S2287 1.610 . S
N2289 C2290 1.351 . S
C2290 C2284 1.428 . S
C2290 N2289 1.351 . S
C2290 C2291 1.434 . S
C2291 C2282 1.429 . S
C2291 N2288 1.350 . S
C2291 C2290 1.434 . S
C2292 C2293 1.369 . S
C2292 C2294 1.419 . S
C2292 H2296 0.930 . S
C2293 C2292 1.369 . S
C2293 C2302 1.429 . S
C2294 C2292 1.419 . S
C2294 C2295 1.363 . S
C2294 H2297 0.929 . S
C2295 C2294 1.363 . S
C2295 C2301 1.428 . S
H2296 C2292 0.930 . S
H2297 C2294 0.929 . S
S2298 N2299 1.613 . S
S2298 N2300 1.610 . S
N2299 S2298 1.613 . S
N2299 C2302 1.350 . S
N2300 S2298 1.610 . S
N2300 C2301 1.351 . S
C2301 C2295 1.428 . S
C2301 N2300 1.351 . S
C2301 C2302 1.434 . S
C2302 C2293 1.429 . S
C2302 N2299 1.350 . S
C2302 C2301 1.434 . S
C2303 C2304 1.369 . S
C2303 C2305 1.419 1_655 S
C2303 H2307 0.930 . S
C2304 C2303 1.369 . S
C2304 C2313 1.434 . S
C2305 C2303 1.419 1_455 S
C2305 C2306 1.363 . S
C2305 H2308 0.929 . S
C2306 C2305 1.363 . S
C2306 C2312 1.428 . S
H2307 C2303 0.930 . S
H2308 C2305 0.929 . S
S2309 N2310 1.613 1_455 S
S2309 N2311 1.610 . S
N2310 S2309 1.613 1_655 S
N2310 C2313 1.351 . S
N2311 S2309 1.610 . S
N2311 C2312 1.351 . S
C2312 C2306 1.428 . S
C2312 N2311 1.351 . S
C2312 C2313 1.427 1_455 S
C2313 C2304 1.434 . S
C2313 N2310 1.351 . S
C2313 C2312 1.427 1_655 S
C2314 C2315 1.369 . S
C2314 C2316 1.419 . S
C2314 H2318 0.930 . S
C2315 C2314 1.369 . S
C2315 C2324 1.429 . S
C2316 C2314 1.419 . S
C2316 C2317 1.363 . S
C2316 H2319 0.929 . S
C2317 C2316 1.363 . S
C2317 C2323 1.428 . S
H2318 C2314 0.930 . S
H2319 C2316 0.929 . S
S2320 N2321 1.613 . S
S2320 N2322 1.610 . S
N2321 S2320 1.613 . S
N2321 C2324 1.350 . S
N2322 S2320 1.610 . S
N2322 C2323 1.351 . S
C2323 C2317 1.428 . S
C2323 N2322 1.351 . S
C2323 C2324 1.434 . S
C2324 C2315 1.429 . S
C2324 N2321 1.350 . S
C2324 C2323 1.434 . S
C2325 C2326 1.369 . S
C2325 C2327 1.419 1_655 S
C2325 H2329 0.930 . S
C2326 C2325 1.369 . S
C2326 C2335 1.429 . S
C2327 C2325 1.419 1_455 S
C2327 C2328 1.363 . S
C2327 H2330 0.929 . S
C2328 C2327 1.363 . S
C2328 C2334 1.428 . S
H2329 C2325 0.930 . S
H2330 C2327 0.929 . S
S2331 N2332 1.608 1_455 S
S2331 N2333 1.614 . S
N2332 S2331 1.608 1_655 S
N2332 C2335 1.350 . S
N2333 S2331 1.614 . S
N2333 C2334 1.351 . S
C2334 C2328 1.428 . S
C2334 N2333 1.351 . S
C2334 C2335 1.434 1_455 S
C2335 C2326 1.429 . S
C2335 N2332 1.350 . S
C2335 C2334 1.434 1_655 S
C2336 C2337 1.369 . S
C2336 C2338 1.419 . S
C2336 H2340 0.930 . S
C2337 C2336 1.369 . S
C2337 C2346 1.429 . S
C2338 C2336 1.419 . S
C2338 C2339 1.363 . S
C2338 H2341 0.929 . S
C2339 C2338 1.363 . S
C2339 C2345 1.428 . S
H2340 C2336 0.930 . S
H2341 C2338 0.929 . S
S2342 N2343 1.613 . S
S2342 N2344 1.610 . S
N2343 S2342 1.613 . S
N2343 C2346 1.350 . S
N2344 S2342 1.610 . S
N2344 C2345 1.351 . S
C2345 C2339 1.428 . S
C2345 N2344 1.351 . S
C2345 C2346 1.434 . S
C2346 C2337 1.429 . S
C2346 N2343 1.350 . S
C2346 C2345 1.434 . S
C2347 C2348 1.369 . S
C2347 C2349 1.419 . S
C2347 H2351 0.930 . S
C2348 C2347 1.369 . S
C2348 C2357 1.429 . S
C2349 C2347 1.419 . S
C2349 C2350 1.363 . S
C2349 H2352 0.929 . S
C2350 C2349 1.363 . S
C2350 C2356 1.428 . S
H2351 C2347 0.930 . S
H2352 C2349 0.929 . S
S2353 N2354 1.613 . S
S2353 N2355 1.610 . S
N2354 S2353 1.613 . S
N2354 C2357 1.350 . S
N2355 S2353 1.610 . S
N2355 C2356 1.351 . S
C2356 C2350 1.428 . S
C2356 N2355 1.351 . S
C2356 C2357 1.434 . S
C2357 C2348 1.429 . S
C2357 N2354 1.350 . S
C2357 C2356 1.434 . S
C2358 C2359 1.369 . S
C2358 C2360 1.419 1_554 S
C2358 H2362 0.930 . S
C2359 C2358 1.369 . S
C2359 C2368 1.429 . S
C2360 C2358 1.419 1_556 S
C2360 C2361 1.363 . S
C2360 H2363 0.929 . S
C2361 C2360 1.363 . S
C2361 C2367 1.428 . S
H2362 C2358 0.930 . S
H2363 C2360 0.929 . S
S2364 N2365 1.613 . S
S2364 N2366 1.610 1_554 S
N2365 S2364 1.613 . S
N2365 C2368 1.350 . S
N2366 S2364 1.610 1_556 S
N2366 C2367 1.351 . S
C2367 C2361 1.428 . S
C2367 N2366 1.351 . S
C2367 C2368 1.434 1_556 S
C2368 C2359 1.429 . S
C2368 N2365 1.350 . S
C2368 C2367 1.434 1_554 S
C2369 C2370 1.369 . S
C2369 C2371 1.419 . S
C2369 H2373 0.930 . S
C2370 C2369 1.369 . S
C2370 C2379 1.429 . S
C2371 C2369 1.419 . S
C2371 C2372 1.363 . S
C2371 H2374 0.929 . S
C2372 C2371 1.363 . S
C2372 C2378 1.428 . S
H2373 C2369 0.930 . S
H2374 C2371 0.929 . S
S2375 N2376 1.613 . S
S2375 N2377 1.610 . S
N2376 S2375 1.613 . S
N2376 C2379 1.350 . S
N2377 S2375 1.610 . S
N2377 C2378 1.351 . S
C2378 C2372 1.428 . S
C2378 N2377 1.351 . S
C2378 C2379 1.434 . S
C2379 C2370 1.429 . S
C2379 N2376 1.350 . S
C2379 C2378 1.434 . S
C2380 C2381 1.369 . S
C2380 C2382 1.419 . S
C2380 H2384 0.930 . S
C2381 C2380 1.369 . S
C2381 C2390 1.429 . S
C2382 C2380 1.419 . S
C2382 C2383 1.363 . S
C2382 H2385 0.929 . S
C2383 C2382 1.363 . S
C2383 C2389 1.428 . S
H2384 C2380 0.930 . S
H2385 C2382 0.929 . S
S2386 N2387 1.613 . S
S2386 N2388 1.610 . S
N2387 S2386 1.613 . S
N2387 C2390 1.350 . S
N2388 S2386 1.610 . S
N2388 C2389 1.351 . S
C2389 C2383 1.428 . S
C2389 N2388 1.351 . S
C2389 C2390 1.434 . S
C2390 C2381 1.429 . S
C2390 N2387 1.350 . S
C2390 C2389 1.434 . S
C2391 C2392 1.369 . S
C2391 C2393 1.419 . S
C2391 H2395 0.930 . S
C2392 C2391 1.369 . S
C2392 C2401 1.429 . S
C2393 C2391 1.419 . S
C2393 C2394 1.363 . S
C2393 H2396 0.929 . S
C2394 C2393 1.363 . S
C2394 C2400 1.428 . S
H2395 C2391 0.930 . S
H2396 C2393 0.929 . S
S2397 N2398 1.613 . S
S2397 N2399 1.610 . S
N2398 S2397 1.613 . S
N2398 C2401 1.350 . S
N2399 S2397 1.610 . S
N2399 C2400 1.351 . S
C2400 C2394 1.428 . S
C2400 N2399 1.351 . S
C2400 C2401 1.434 . S
C2401 C2392 1.429 . S
C2401 N2398 1.350 . S
C2401 C2400 1.434 . S
C2402 C2403 1.369 . S
C2402 C2404 1.419 . S
C2402 H2406 0.930 . S
C2403 C2402 1.369 . S
C2403 C2412 1.429 . S
C2404 C2402 1.419 . S
C2404 C2405 1.363 . S
C2404 H2407 0.929 . S
C2405 C2404 1.363 . S
C2405 C2411 1.428 . S
H2406 C2402 0.930 . S
H2407 C2404 0.929 . S
S2408 N2409 1.613 . S
S2408 N2410 1.610 . S
N2409 S2408 1.613 . S
N2409 C2412 1.350 . S
N2410 S2408 1.610 . S
N2410 C2411 1.351 . S
C2411 C2405 1.428 . S
C2411 N2410 1.351 . S
C2411 C2412 1.434 . S
C2412 C2403 1.429 . S
C2412 N2409 1.350 . S
C2412 C2411 1.434 . S
C2413 C2414 1.369 . S
C2413 C2415 1.419 . S
C2413 H2417 0.930 . S
C2414 C2413 1.369 . S
C2414 C2423 1.429 . S
C2415 C2413 1.419 . S
C2415 C2416 1.363 . S
C2415 H2418 0.929 . S
C2416 C2415 1.363 . S
C2416 C2422 1.428 . S
H2417 C2413 0.930 . S
H2418 C2415 0.929 . S
S2419 N2420 1.613 . S
S2419 N2421 1.610 . S
N2420 S2419 1.613 . S
N2420 C2423 1.350 . S
N2421 S2419 1.610 . S
N2421 C2422 1.351 . S
C2422 C2416 1.428 . S
C2422 N2421 1.351 . S
C2422 C2423 1.434 . S
C2423 C2414 1.429 . S
C2423 N2420 1.350 . S
C2423 C2422 1.434 . S
C2424 C2425 1.369 . S
C2424 C2426 1.419 . S
C2424 H2428 0.930 . S
C2425 C2424 1.369 . S
C2425 C2434 1.429 . S
C2426 C2424 1.419 . S
C2426 C2427 1.363 . S
C2426 H2429 0.929 . S
C2427 C2426 1.363 . S
C2427 C2433 1.428 . S
H2428 C2424 0.930 . S
H2429 C2426 0.929 . S
S2430 N2431 1.613 . S
S2430 N2432 1.610 . S
N2431 S2430 1.613 . S
N2431 C2434 1.350 . S
N2432 S2430 1.610 . S
N2432 C2433 1.351 . S
C2433 C2427 1.428 . S
C2433 N2432 1.351 . S
C2433 C2434 1.434 . S
C2434 C2425 1.429 . S
C2434 N2431 1.350 . S
C2434 C2433 1.434 . S
C2435 C2436 1.369 . S
C2435 C2437 1.419 1_565 S
C2435 H2439 0.930 . S
C2436 C2435 1.369 . S
C2436 C2445 1.429 . S
C2437 C2435 1.419 1_545 S
C2437 C2438 1.363 . S
C2437 H2440 0.929 . S
C2438 C2437 1.363 . S
C2438 C2444 1.428 . S
H2439 C2435 0.930 . S
H2440 C2437 0.929 . S
S2441 N2442 1.613 1_545 S
S2441 N2443 1.610 . S
N2442 S2441 1.613 1_565 S
N2442 C2445 1.350 . S
N2443 S2441 1.610 . S
N2443 C2444 1.351 . S
C2444 C2438 1.428 . S
C2444 N2443 1.351 . S
C2444 C2445 1.434 1_545 S
C2445 C2436 1.429 . S
C2445 N2442 1.350 . S
C2445 C2444 1.434 1_565 S
C2446 C2447 1.369 . S
C2446 C2448 1.419 . S
C2446 H2450 0.930 . S
C2447 C2446 1.369 . S
C2447 C2456 1.429 . S
C2448 C2446 1.419 . S
C2448 C2449 1.363 . S
C2448 H2451 0.929 . S
C2449 C2448 1.363 . S
C2449 C2455 1.428 . S
H2450 C2446 0.930 . S
H2451 C2448 0.929 . S
S2452 N2453 1.613 . S
S2452 N2454 1.610 . S
N2453 S2452 1.613 . S
N2453 C2456 1.350 . S
N2454 S2452 1.610 . S
N2454 C2455 1.351 . S
C2455 C2449 1.428 . S
C2455 N2454 1.351 . S
C2455 C2456 1.434 . S
C2456 C2447 1.429 . S
C2456 N2453 1.350 . S
C2456 C2455 1.434 . S
C2457 C2458 1.369 . S
C2457 C2459 1.419 . S
C2457 H2461 0.930 . S
C2458 C2457 1.369 . S
C2458 C2467 1.429 . S
C2459 C2457 1.419 . S
C2459 C2460 1.363 . S
C2459 H2462 0.929 . S
C2460 C2459 1.363 . S
C2460 C2466 1.428 . S
H2461 C2457 0.930 . S
H2462 C2459 0.929 . S
S2463 N2464 1.613 . S
S2463 N2465 1.610 . S
N2464 S2463 1.613 . S
N2464 C2467 1.350 . S
N2465 S2463 1.610 . S
N2465 C2466 1.351 . S
C2466 C2460 1.428 . S
C2466 N2465 1.351 . S
C2466 C2467 1.434 . S
C2467 C2458 1.429 . S
C2467 N2464 1.350 . S
C2467 C2466 1.434 . S
C2468 C2469 1.369 . S
C2468 C2470 1.419 . S
C2468 H2472 0.930 . S
C2469 C2468 1.369 . S
C2469 C2478 1.429 . S
C2470 C2468 1.419 . S
C2470 C2471 1.363 . S
C2470 H2473 0.929 . S
C2471 C2470 1.363 . S
C2471 C2477 1.428 . S
H2472 C2468 0.930 . S
H2473 C2470 0.929 . S
S2474 N2475 1.613 . S
S2474 N2476 1.610 . S
N2475 S2474 1.613 . S
N2475 C2478 1.350 . S
N2476 S2474 1.610 . S
N2476 C2477 1.351 . S
C2477 C2471 1.428 . S
C2477 N2476 1.351 . S
C2477 C2478 1.434 . S
C2478 C2469 1.429 . S
C2478 N2475 1.350 . S
C2478 C2477 1.434 . S
C2479 C2480 1.369 . S
C2479 C2481 1.419 1_565 S
C2479 H2483 0.930 . S
C2480 C2479 1.369 . S
C2480 C2489 1.416 1_565 S
C2481 C2479 1.419 1_545 S
C2481 C2482 1.363 . S
C2481 H2484 0.929 . S
C2482 C2481 1.363 . S
C2482 C2488 1.428 . S
H2483 C2479 0.930 . S
H2484 C2481 0.929 . S
S2485 N2486 1.613 1_545 S
S2485 N2487 1.610 . S
N2486 S2485 1.613 1_565 S
N2486 C2489 1.347 1_565 S
N2487 S2485 1.610 . S
N2487 C2488 1.351 . S
C2488 C2482 1.428 . S
C2488 N2487 1.351 . S
C2488 C2489 1.451 . S
C2489 C2480 1.416 1_545 S
C2489 N2486 1.347 1_545 S
C2489 C2488 1.451 . S
C2490 C2491 1.369 . S
C2490 C2492 1.419 . S
C2490 H2494 0.930 . S
C2491 C2490 1.369 . S
C2491 C2500 1.429 . S
C2492 C2490 1.419 . S
C2492 C2493 1.363 . S
C2492 H2495 0.929 . S
C2493 C2492 1.363 . S
C2493 C2499 1.428 . S
H2494 C2490 0.930 . S
H2495 C2492 0.929 . S
S2496 N2497 1.613 . S
S2496 N2498 1.610 . S
N2497 S2496 1.613 . S
N2497 C2500 1.350 . S
N2498 S2496 1.610 . S
N2498 C2499 1.351 . S
C2499 C2493 1.428 . S
C2499 N2498 1.351 . S
C2499 C2500 1.434 . S
C2500 C2491 1.429 . S
C2500 N2497 1.350 . S
C2500 C2499 1.434 . S
C2501 C2502 1.369 . S
C2501 C2503 1.419 . S
C2501 H2505 0.930 . S
C2502 C2501 1.369 . S
C2502 C2511 1.429 . S
C2503 C2501 1.419 . S
C2503 C2504 1.363 . S
C2503 H2506 0.929 . S
C2504 C2503 1.363 . S
C2504 C2510 1.428 . S
H2505 C2501 0.930 . S
H2506 C2503 0.929 . S
S2507 N2508 1.613 . S
S2507 N2509 1.610 . S
N2508 S2507 1.613 . S
N2508 C2511 1.350 . S
N2509 S2507 1.610 . S
N2509 C2510 1.351 . S
C2510 C2504 1.428 . S
C2510 N2509 1.351 . S
C2510 C2511 1.434 . S
C2511 C2502 1.429 . S
C2511 N2508 1.350 . S
C2511 C2510 1.434 . S
C2512 C2513 1.369 . S
C2512 C2514 1.419 . S
C2512 H2516 0.930 . S
C2513 C2512 1.369 . S
C2513 C2522 1.429 . S
C2514 C2512 1.419 . S
C2514 C2515 1.363 . S
C2514 H2517 0.929 . S
C2515 C2514 1.363 . S
C2515 C2521 1.428 . S
H2516 C2512 0.930 . S
H2517 C2514 0.929 . S
S2518 N2519 1.613 . S
S2518 N2520 1.610 . S
N2519 S2518 1.613 . S
N2519 C2522 1.350 . S
N2520 S2518 1.610 . S
N2520 C2521 1.351 . S
C2521 C2515 1.428 . S
C2521 N2520 1.351 . S
C2521 C2522 1.434 . S
C2522 C2513 1.429 . S
C2522 N2519 1.350 . S
C2522 C2521 1.434 . S
C2523 C2524 1.369 . S
C2523 C2525 1.419 1_455 S
C2523 H2527 0.930 . S
C2524 C2523 1.369 . S
C2524 C2533 1.416 1_455 S
C2525 C2523 1.419 1_655 S
C2525 C2526 1.363 . S
C2525 H2528 0.929 . S
C2526 C2525 1.363 . S
C2526 C2532 1.428 . S
H2527 C2523 0.930 . S
H2528 C2525 0.929 . S
S2529 N2530 1.613 1_655 S
S2529 N2531 1.610 . S
N2530 S2529 1.613 1_455 S
N2530 C2533 1.347 1_455 S
N2531 S2529 1.610 . S
N2531 C2532 1.351 . S
C2532 C2526 1.428 . S
C2532 N2531 1.351 . S
C2532 C2533 1.451 . S
C2533 C2524 1.416 1_655 S
C2533 N2530 1.347 1_655 S
C2533 C2532 1.451 . S
C2534 C2535 1.369 . S
C2534 C2536 1.419 . S
C2534 H2538 0.930 . S
C2535 C2534 1.369 . S
C2535 C2544 1.429 . S
C2536 C2534 1.419 . S
C2536 C2537 1.363 . S
C2536 H2539 0.929 . S
C2537 C2536 1.363 . S
C2537 C2543 1.428 . S
H2538 C2534 0.930 . S
H2539 C2536 0.929 . S
S2540 N2541 1.613 . S
S2540 N2542 1.610 . S
N2541 S2540 1.613 . S
N2541 C2544 1.350 . S
N2542 S2540 1.610 . S
N2542 C2543 1.351 . S
C2543 C2537 1.428 . S
C2543 N2542 1.351 . S
C2543 C2544 1.434 . S
C2544 C2535 1.429 . S
C2544 N2541 1.350 . S
C2544 C2543 1.434 . S
C2545 C2546 1.369 . S
C2545 C2547 1.419 1_455 S
C2545 H2549 0.930 . S
C2546 C2545 1.369 . S
C2546 C2555 1.429 . S
C2547 C2545 1.419 1_655 S
C2547 C2548 1.363 . S
C2547 H2550 0.929 . S
C2548 C2547 1.363 . S
C2548 C2554 1.428 . S
H2549 C2545 0.930 . S
H2550 C2547 0.929 . S
S2551 N2552 1.613 . S
S2551 N2553 1.610 1_455 S
N2552 S2551 1.613 . S
N2552 C2555 1.350 . S
N2553 S2551 1.610 1_655 S
N2553 C2554 1.351 . S
C2554 C2548 1.428 . S
C2554 N2553 1.351 . S
C2554 C2555 1.434 1_655 S
C2555 C2546 1.429 . S
C2555 N2552 1.350 . S
C2555 C2554 1.434 1_455 S
C2556 C2557 1.369 . S
C2556 C2558 1.419 . S
C2556 H2560 0.930 . S
C2557 C2556 1.369 . S
C2557 C2566 1.429 . S
C2558 C2556 1.419 . S
C2558 C2559 1.363 . S
C2558 H2561 0.929 . S
C2559 C2558 1.363 . S
C2559 C2565 1.428 . S
H2560 C2556 0.930 . S
H2561 C2558 0.929 . S
S2562 N2563 1.613 . S
S2562 N2564 1.610 . S
N2563 S2562 1.613 . S
N2563 C2566 1.350 . S
N2564 S2562 1.610 . S
N2564 C2565 1.351 . S
C2565 C2559 1.428 . S
C2565 N2564 1.351 . S
C2565 C2566 1.434 . S
C2566 C2557 1.429 . S
C2566 N2563 1.350 . S
C2566 C2565 1.434 . S
C2567 C2568 1.369 . S
C2567 C2569 1.419 . S
C2567 H2571 0.930 . S
C2568 C2567 1.369 . S
C2568 C2577 1.429 . S
C2569 C2567 1.419 . S
C2569 C2570 1.363 . S
C2569 H2572 0.929 . S
C2570 C2569 1.363 . S
C2570 C2576 1.428 . S
H2571 C2567 0.930 . S
H2572 C2569 0.929 . S
S2573 N2574 1.613 . S
S2573 N2575 1.610 . S
N2574 S2573 1.613 . S
N2574 C2577 1.350 . S
N2575 S2573 1.610 . S
N2575 C2576 1.351 . S
C2576 C2570 1.428 . S
C2576 N2575 1.351 . S
C2576 C2577 1.434 . S
C2577 C2568 1.429 . S
C2577 N2574 1.350 . S
C2577 C2576 1.434 . S
C2578 C2579 1.369 . S
C2578 C2580 1.419 . S
C2578 H2582 0.930 . S
C2579 C2578 1.369 . S
C2579 C2588 1.429 . S
C2580 C2578 1.419 . S
C2580 C2581 1.363 . S
C2580 H2583 0.929 . S
C2581 C2580 1.363 . S
C2581 C2587 1.428 . S
H2582 C2578 0.930 . S
H2583 C2580 0.929 . S
S2584 N2585 1.613 . S
S2584 N2586 1.610 . S
N2585 S2584 1.613 . S
N2585 C2588 1.350 . S
N2586 S2584 1.610 . S
N2586 C2587 1.351 . S
C2587 C2581 1.428 . S
C2587 N2586 1.351 . S
C2587 C2588 1.434 . S
C2588 C2579 1.429 . S
C2588 N2585 1.350 . S
C2588 C2587 1.434 . S
C2589 C2590 1.369 . S
C2589 C2591 1.419 . S
C2589 H2593 0.930 . S
C2590 C2589 1.369 . S
C2590 C2599 1.429 . S
C2591 C2589 1.419 . S
C2591 C2592 1.363 . S
C2591 H2594 0.929 . S
C2592 C2591 1.363 . S
C2592 C2598 1.428 . S
H2593 C2589 0.930 . S
H2594 C2591 0.929 . S
S2595 N2596 1.613 . S
S2595 N2597 1.610 . S
N2596 S2595 1.613 . S
N2596 C2599 1.350 . S
N2597 S2595 1.610 . S
N2597 C2598 1.351 . S
C2598 C2592 1.428 . S
C2598 N2597 1.351 . S
C2598 C2599 1.434 . S
C2599 C2590 1.429 . S
C2599 N2596 1.350 . S
C2599 C2598 1.434 . S
C2600 C2601 1.369 . S
C2600 C2602 1.419 . S
C2600 H2604 0.930 . S
C2601 C2600 1.369 . S
C2601 C2610 1.429 . S
C2602 C2600 1.419 . S
C2602 C2603 1.363 . S
C2602 H2605 0.929 . S
C2603 C2602 1.363 . S
C2603 C2609 1.428 . S
H2604 C2600 0.930 . S
H2605 C2602 0.929 . S
S2606 N2607 1.613 . S
S2606 N2608 1.610 . S
N2607 S2606 1.613 . S
N2607 C2610 1.350 . S
N2608 S2606 1.610 . S
N2608 C2609 1.351 . S
C2609 C2603 1.428 . S
C2609 N2608 1.351 . S
C2609 C2610 1.434 . S
C2610 C2601 1.429 . S
C2610 N2607 1.350 . S
C2610 C2609 1.434 . S
C2611 C2612 1.369 . S
C2611 C2613 1.419 . S
C2611 H2615 0.930 . S
C2612 C2611 1.369 . S
C2612 C2621 1.429 . S
C2613 C2611 1.419 . S
C2613 C2614 1.363 . S
C2613 H2616 0.929 . S
C2614 C2613 1.363 . S
C2614 C2620 1.428 . S
H2615 C2611 0.930 . S
H2616 C2613 0.929 . S
S2617 N2618 1.613 . S
S2617 N2619 1.610 . S
N2618 S2617 1.613 . S
N2618 C2621 1.350 . S
N2619 S2617 1.610 . S
N2619 C2620 1.351 . S
C2620 C2614 1.428 . S
C2620 N2619 1.351 . S
C2620 C2621 1.434 . S
C2621 C2612 1.429 . S
C2621 N2618 1.350 . S
C2621 C2620 1.434 . S
C2622 C2623 1.369 . S
C2622 C2624 1.419 . S
C2622 H2626 0.930 . S
C2623 C2622 1.369 . S
C2623 C2632 1.429 . S
C2624 C2622 1.419 . S
C2624 C2625 1.363 . S
C2624 H2627 0.929 . S
C2625 C2624 1.363 . S
C2625 C2631 1.428 . S
H2626 C2622 0.930 . S
H2627 C2624 0.929 . S
S2628 N2629 1.613 . S
S2628 N2630 1.610 . S
N2629 S2628 1.613 . S
N2629 C2632 1.350 . S
N2630 S2628 1.610 . S
N2630 C2631 1.351 . S
C2631 C2625 1.428 . S
C2631 N2630 1.351 . S
C2631 C2632 1.434 . S
C2632 C2623 1.429 . S
C2632 N2629 1.350 . S
C2632 C2631 1.434 . S
C2633 C2634 1.369 . S
C2633 C2635 1.419 . S
C2633 H2637 0.930 . S
C2634 C2633 1.369 . S
C2634 C2643 1.429 . S
C2635 C2633 1.419 . S
C2635 C2636 1.363 . S
C2635 H2638 0.929 . S
C2636 C2635 1.363 . S
C2636 C2642 1.428 . S
H2637 C2633 0.930 . S
H2638 C2635 0.929 . S
S2639 N2640 1.613 . S
S2639 N2641 1.610 . S
N2640 S2639 1.613 . S
N2640 C2643 1.350 . S
N2641 S2639 1.610 . S
N2641 C2642 1.351 . S
C2642 C2636 1.428 . S
C2642 N2641 1.351 . S
C2642 C2643 1.434 . S
C2643 C2634 1.429 . S
C2643 N2640 1.350 . S
C2643 C2642 1.434 . S
C2644 C2645 1.369 . S
C2644 C2646 1.419 1_556 S
C2644 H2648 0.930 . S
C2645 C2644 1.369 . S
C2645 C2654 1.429 . S
C2646 C2644 1.419 1_554 S
C2646 C2647 1.363 . S
C2646 H2649 0.929 . S
C2647 C2646 1.363 . S
C2647 C2653 1.428 . S
H2648 C2644 0.930 . S
H2649 C2646 0.929 . S
S2650 N2651 1.613 . S
S2650 N2652 1.610 1_556 S
N2651 S2650 1.613 . S
N2651 C2654 1.350 . S
N2652 S2650 1.610 1_554 S
N2652 C2653 1.351 . S
C2653 C2647 1.428 . S
C2653 N2652 1.351 . S
C2653 C2654 1.434 1_554 S
C2654 C2645 1.429 . S
C2654 N2651 1.350 . S
C2654 C2653 1.434 1_556 S
C2655 C2656 1.369 . S
C2655 C2657 1.419 . S
C2655 H2659 0.930 . S
C2656 C2655 1.369 . S
C2656 C2665 1.429 . S
C2657 C2655 1.419 . S
C2657 C2658 1.363 . S
C2657 H2660 0.929 . S
C2658 C2657 1.363 . S
C2658 C2664 1.428 . S
H2659 C2655 0.930 . S
H2660 C2657 0.929 . S
S2661 N2662 1.613 . S
S2661 N2663 1.610 . S
N2662 S2661 1.613 . S
N2662 C2665 1.350 . S
N2663 S2661 1.610 . S
N2663 C2664 1.351 . S
C2664 C2658 1.428 . S
C2664 N2663 1.351 . S
C2664 C2665 1.434 . S
C2665 C2656 1.429 . S
C2665 N2662 1.350 . S
C2665 C2664 1.434 . S
C2666 C2667 1.369 . S
C2666 C2668 1.414 . S
C2666 H2670 0.930 . S
C2667 C2666 1.369 . S
C2667 C2676 1.429 . S
C2668 C2666 1.414 . S
C2668 C2669 1.367 1_554 S
C2668 H2671 0.930 1_554 S
C2669 C2668 1.367 1_556 S
C2669 C2675 1.428 . S
H2670 C2666 0.930 . S
H2671 C2668 0.930 1_556 S
S2672 N2673 1.613 1_556 S
S2672 N2674 1.610 . S
N2673 S2672 1.613 1_554 S
N2673 C2676 1.350 . S
N2674 S2672 1.610 . S
N2674 C2675 1.351 . S
C2675 C2669 1.428 . S
C2675 N2674 1.351 . S
C2675 C2676 1.434 1_556 S
C2676 C2667 1.429 . S
C2676 N2673 1.350 . S
C2676 C2675 1.434 1_554 S
C2677 C2678 1.369 . S
C2677 C2679 1.419 1_556 S
C2677 H2681 0.930 . S
C2678 C2677 1.369 . S
C2678 C2687 1.429 . S
C2679 C2677 1.419 1_554 S
C2679 C2680 1.363 . S
C2679 H2682 0.929 . S
C2680 C2679 1.363 . S
C2680 C2686 1.428 . S
H2681 C2677 0.930 . S
H2682 C2679 0.929 . S
S2683 N2684 1.613 . S
S2683 N2685 1.610 1_556 S
N2684 S2683 1.613 . S
N2684 C2687 1.350 . S
N2685 S2683 1.610 1_554 S
N2685 C2686 1.351 . S
C2686 C2680 1.428 . S
C2686 N2685 1.351 . S
C2686 C2687 1.434 1_554 S
C2687 C2678 1.429 . S
C2687 N2684 1.350 . S
C2687 C2686 1.434 1_556 S
C2688 C2689 1.369 . S
C2688 C2690 1.419 . S
C2688 H2692 0.930 . S
C2689 C2688 1.369 . S
C2689 C2698 1.429 . S
C2690 C2688 1.419 . S
C2690 C2691 1.363 . S
C2690 H2693 0.929 . S
C2691 C2690 1.363 . S
C2691 C2697 1.428 . S
H2692 C2688 0.930 . S
H2693 C2690 0.929 . S
S2694 N2695 1.613 . S
S2694 N2696 1.610 . S
N2695 S2694 1.613 . S
N2695 C2698 1.350 . S
N2696 S2694 1.610 . S
N2696 C2697 1.351 . S
C2697 C2691 1.428 . S
C2697 N2696 1.351 . S
C2697 C2698 1.434 . S
C2698 C2689 1.429 . S
C2698 N2695 1.350 . S
C2698 C2697 1.434 . S
C2699 C2700 1.369 . S
C2699 C2701 1.419 . S
C2699 H2703 0.930 . S
C2700 C2699 1.369 . S
C2700 C2709 1.429 . S
C2701 C2699 1.419 . S
C2701 C2702 1.363 . S
C2701 H2704 0.929 . S
C2702 C2701 1.363 . S
C2702 C2708 1.428 . S
H2703 C2699 0.930 . S
H2704 C2701 0.929 . S
S2705 N2706 1.613 . S
S2705 N2707 1.610 . S
N2706 S2705 1.613 . S
N2706 C2709 1.350 . S
N2707 S2705 1.610 . S
N2707 C2708 1.351 . S
C2708 C2702 1.428 . S
C2708 N2707 1.351 . S
C2708 C2709 1.434 . S
C2709 C2700 1.429 . S
C2709 N2706 1.350 . S
C2709 C2708 1.434 . S
C2710 C2711 1.369 . S
C2710 C2712 1.419 . S
C2710 H2714 0.930 . S
C2711 C2710 1.369 . S
C2711 C2720 1.429 . S
C2712 C2710 1.419 . S
C2712 C2713 1.363 . S
C2712 H2715 0.929 . S
C2713 C2712 1.363 . S
C2713 C2719 1.428 . S
H2714 C2710 0.930 . S
H2715 C2712 0.929 . S
S2716 N2717 1.613 . S
S2716 N2718 1.610 . S
N2717 S2716 1.613 . S
N2717 C2720 1.350 . S
N2718 S2716 1.610 . S
N2718 C2719 1.351 . S
C2719 C2713 1.428 . S
C2719 N2718 1.351 . S
C2719 C2720 1.434 . S
C2720 C2711 1.429 . S
C2720 N2717 1.350 . S
C2720 C2719 1.434 . S
C2721 C2722 1.371 . S
C2721 C2723 1.417 1_545 S
C2721 H2725 0.929 1_545 S
C2722 C2721 1.371 . S
C2722 C2731 1.429 . S
C2723 C2721 1.417 1_565 S
C2723 C2724 1.363 . S
C2723 H2726 0.929 . S
C2724 C2723 1.363 . S
C2724 C2730 1.397 1_565 S
H2725 C2721 0.929 1_565 S
H2726 C2723 0.929 . S
S2727 N2728 1.613 . S
S2727 N2729 1.610 . S
N2728 S2727 1.613 . S
N2728 C2731 1.350 . S
N2729 S2727 1.610 . S
N2729 C2730 1.358 . S
C2730 C2724 1.397 1_545 S
C2730 N2729 1.358 . S
C2730 C2731 1.464 . S
C2731 C2722 1.429 . S
C2731 N2728 1.350 . S
C2731 C2730 1.464 . S
C2732 C2733 1.369 . S
C2732 C2734 1.419 . S
C2732 H2736 0.930 . S
C2733 C2732 1.369 . S
C2733 C2742 1.429 1_554 S
C2734 C2732 1.419 . S
C2734 C2735 1.363 1_554 S
C2734 H2737 0.929 . S
C2735 C2734 1.363 1_556 S
C2735 C2741 1.428 . S
H2736 C2732 0.930 . S
H2737 C2734 0.929 . S
S2738 N2739 1.613 . S
S2738 N2740 1.610 . S
N2739 S2738 1.613 . S
N2739 C2742 1.350 . S
N2740 S2738 1.610 . S
N2740 C2741 1.351 . S
C2741 C2735 1.428 . S
C2741 N2740 1.351 . S
C2741 C2742 1.434 . S
C2742 C2733 1.429 1_556 S
C2742 N2739 1.350 . S
C2742 C2741 1.434 . S
C2743 C2744 1.369 . S
C2743 C2745 1.419 . S
C2743 H2747 0.930 . S
C2744 C2743 1.369 . S
C2744 C2753 1.429 . S
C2745 C2743 1.419 . S
C2745 C2746 1.363 . S
C2745 H2748 0.929 . S
C2746 C2745 1.363 . S
C2746 C2752 1.428 . S
H2747 C2743 0.930 . S
H2748 C2745 0.929 . S
S2749 N2750 1.630 . S
S2749 N2751 1.626 . S
N2750 S2749 1.630 . S
N2750 C2753 1.350 . S
N2751 S2749 1.626 . S
N2751 C2752 1.351 . S
C2752 C2746 1.428 . S
C2752 N2751 1.351 . S
C2752 C2753 1.434 . S
C2753 C2744 1.429 . S
C2753 N2750 1.350 . S
C2753 C2752 1.434 . S
C2754 C2755 1.369 . S
C2754 C2756 1.419 . S
C2754 H2758 0.930 . S
C2755 C2754 1.369 . S
C2755 C2764 1.429 1_556 S
C2756 C2754 1.419 . S
C2756 C2757 1.363 1_556 S
C2756 H2759 0.929 . S
C2757 C2756 1.363 1_554 S
C2757 C2763 1.428 . S
H2758 C2754 0.930 . S
H2759 C2756 0.929 . S
S2760 N2761 1.613 . S
S2760 N2762 1.610 . S
N2761 S2760 1.613 . S
N2761 C2764 1.350 . S
N2762 S2760 1.610 . S
N2762 C2763 1.351 . S
C2763 C2757 1.428 . S
C2763 N2762 1.351 . S
C2763 C2764 1.434 . S
C2764 C2755 1.429 1_554 S
C2764 N2761 1.350 . S
C2764 C2763 1.434 . S
C2765 C2766 1.332 1_565 S
C2765 C2767 1.452 . S
C2765 H2769 0.935 . S
C2766 C2765 1.332 1_545 S
C2766 C2775 1.429 . S
C2767 C2765 1.452 . S
C2767 C2768 1.363 . S
C2767 H2770 0.929 . S
C2768 C2767 1.363 . S
C2768 C2774 1.428 1_565 S
H2769 C2765 0.935 . S
H2770 C2767 0.929 . S
S2771 N2772 1.603 1_455 S
S2771 N2773 1.600 1_455 S
N2772 S2771 1.603 1_655 S
N2772 C2775 1.350 . S
N2773 S2771 1.600 1_655 S
N2773 C2774 1.351 . S
C2774 C2768 1.428 1_545 S
C2774 N2773 1.351 . S
C2774 C2775 1.434 . S
C2775 C2766 1.429 . S
C2775 N2772 1.350 . S
C2775 C2774 1.434 . S
C2776 C2777 1.369 . S
C2776 C2778 1.419 . S
C2776 H2780 0.930 . S
C2777 C2776 1.369 . S
C2777 C2786 1.429 . S
C2778 C2776 1.419 . S
C2778 C2779 1.363 . S
C2778 H2781 0.929 . S
C2779 C2778 1.363 . S
C2779 C2785 1.428 . S
H2780 C2776 0.930 . S
H2781 C2778 0.929 . S
S2782 N2783 1.613 . S
S2782 N2784 1.610 . S
N2783 S2782 1.613 . S
N2783 C2786 1.350 . S
N2784 S2782 1.610 . S
N2784 C2785 1.351 . S
C2785 C2779 1.428 . S
C2785 N2784 1.351 . S
C2785 C2786 1.434 . S
C2786 C2777 1.429 . S
C2786 N2783 1.350 . S
C2786 C2785 1.434 . S
C2787 C2788 1.369 . S
C2787 C2789 1.419 . S
C2787 H2791 0.930 . S
C2788 C2787 1.369 . S
C2788 C2797 1.429 . S
C2789 C2787 1.419 . S
C2789 C2790 1.363 . S
C2789 H2792 0.929 . S
C2790 C2789 1.363 . S
C2790 C2796 1.428 . S
H2791 C2787 0.930 . S
H2792 C2789 0.929 . S
S2793 N2794 1.624 . S
S2793 N2795 1.621 . S
N2794 S2793 1.624 . S
N2794 C2797 1.350 . S
N2795 S2793 1.621 . S
N2795 C2796 1.351 . S
C2796 C2790 1.428 . S
C2796 N2795 1.351 . S
C2796 C2797 1.434 . S
C2797 C2788 1.429 . S
C2797 N2794 1.350 . S
C2797 C2796 1.434 . S
C2798 C2799 1.369 . S
C2798 C2800 1.419 . S
C2798 H2802 0.930 . S
C2799 C2798 1.369 . S
C2799 C2808 1.429 . S
C2800 C2798 1.419 . S
C2800 C2801 1.363 . S
C2800 H2803 0.929 . S
C2801 C2800 1.363 . S
C2801 C2807 1.428 . S
H2802 C2798 0.930 . S
H2803 C2800 0.929 . S
S2804 N2805 1.613 . S
S2804 N2806 1.610 . S
N2805 S2804 1.613 . S
N2805 C2808 1.350 . S
N2806 S2804 1.610 . S
N2806 C2807 1.351 . S
C2807 C2801 1.428 . S
C2807 N2806 1.351 . S
C2807 C2808 1.434 . S
C2808 C2799 1.429 . S
C2808 N2805 1.350 . S
C2808 C2807 1.434 . S
C2809 C2810 1.369 1_655 S
C2809 C2811 1.419 . S
C2809 H2813 0.930 . S
C2810 C2809 1.369 1_455 S
C2810 C2819 1.429 . S
C2811 C2809 1.419 . S
C2811 C2812 1.363 . S
C2811 H2814 0.929 . S
C2812 C2811 1.363 . S
C2812 C2818 1.428 1_655 S
H2813 C2809 0.930 . S
H2814 C2811 0.929 . S
S2815 N2816 1.613 . S
S2815 N2817 1.610 . S
N2816 S2815 1.613 . S
N2816 C2819 1.350 . S
N2817 S2815 1.610 . S
N2817 C2818 1.351 . S
C2818 C2812 1.428 1_455 S
C2818 N2817 1.351 . S
C2818 C2819 1.434 . S
C2819 C2810 1.429 . S
C2819 N2816 1.350 . S
C2819 C2818 1.434 . S
C2820 C2821 1.369 . S
C2820 C2822 1.419 . S
C2820 H2824 0.930 . S
C2821 C2820 1.369 . S
C2821 C2830 1.429 . S
C2822 C2820 1.419 . S
C2822 C2823 1.363 . S
C2822 H2825 0.929 . S
C2823 C2822 1.363 . S
C2823 C2829 1.428 . S
H2824 C2820 0.930 . S
H2825 C2822 0.929 . S
S2826 N2827 1.613 . S
S2826 N2828 1.610 . S
N2827 S2826 1.613 . S
N2827 C2830 1.350 . S
N2828 S2826 1.610 . S
N2828 C2829 1.351 . S
C2829 C2823 1.428 . S
C2829 N2828 1.351 . S
C2829 C2830 1.434 . S
C2830 C2821 1.429 . S
C2830 N2827 1.350 . S
C2830 C2829 1.434 . S
C2831 C2832 1.369 . S
C2831 C2833 1.419 1_554 S
C2831 H2835 0.930 . S
C2832 C2831 1.369 . S
C2832 C2841 1.429 . S
C2833 C2831 1.419 1_556 S
C2833 C2834 1.363 . S
C2833 H2836 0.929 . S
C2834 C2833 1.363 . S
C2834 C2840 1.428 . S
H2835 C2831 0.930 . S
H2836 C2833 0.929 . S
S2837 N2838 1.613 . S
S2837 N2839 1.610 1_554 S
N2838 S2837 1.613 . S
N2838 C2841 1.350 . S
N2839 S2837 1.610 1_556 S
N2839 C2840 1.351 . S
C2840 C2834 1.428 . S
C2840 N2839 1.351 . S
C2840 C2841 1.434 1_556 S
C2841 C2832 1.429 . S
C2841 N2838 1.350 . S
C2841 C2840 1.434 1_554 S
C2842 C2843 1.369 . S
C2842 C2844 1.419 . S
C2842 H2846 0.930 . S
C2843 C2842 1.369 . S
C2843 C2852 1.429 1_545 S
C2844 C2842 1.419 . S
C2844 C2845 1.363 1_545 S
C2844 H2847 0.929 . S
C2845 C2844 1.363 1_565 S
C2845 C2851 1.428 . S
H2846 C2842 0.930 . S
H2847 C2844 0.929 . S
S2848 N2849 1.613 . S
S2848 N2850 1.610 . S
N2849 S2848 1.613 . S
N2849 C2852 1.350 . S
N2850 S2848 1.610 . S
N2850 C2851 1.351 . S
C2851 C2845 1.428 . S
C2851 N2850 1.351 . S
C2851 C2852 1.434 . S
C2852 C2843 1.429 1_565 S
C2852 N2849 1.350 . S
C2852 C2851 1.434 . S
C2853 C2854 1.369 . S
C2853 C2855 1.419 . S
C2853 H2857 0.930 . S
C2854 C2853 1.369 . S
C2854 C2863 1.429 . S
C2855 C2853 1.419 . S
C2855 C2856 1.363 . S
C2855 H2858 0.929 . S
C2856 C2855 1.363 . S
C2856 C2862 1.428 . S
H2857 C2853 0.930 . S
H2858 C2855 0.929 . S
S2859 N2860 1.613 . S
S2859 N2861 1.610 . S
N2860 S2859 1.613 . S
N2860 C2863 1.350 . S
N2861 S2859 1.610 . S
N2861 C2862 1.351 . S
C2862 C2856 1.428 . S
C2862 N2861 1.351 . S
C2862 C2863 1.434 . S
C2863 C2854 1.429 . S
C2863 N2860 1.350 . S
C2863 C2862 1.434 . S
C2864 C2865 1.369 . S
C2864 C2866 1.419 . S
C2864 H2868 0.930 . S
C2865 C2864 1.369 . S
C2865 C2874 1.429 . S
C2866 C2864 1.419 . S
C2866 C2867 1.363 . S
C2866 H2869 0.929 . S
C2867 C2866 1.363 . S
C2867 C2873 1.428 . S
H2868 C2864 0.930 . S
H2869 C2866 0.929 . S
S2870 N2871 1.613 . S
S2870 N2872 1.610 . S
N2871 S2870 1.613 . S
N2871 C2874 1.350 . S
N2872 S2870 1.610 . S
N2872 C2873 1.351 . S
C2873 C2867 1.428 . S
C2873 N2872 1.351 . S
C2873 C2874 1.434 . S
C2874 C2865 1.429 . S
C2874 N2871 1.350 . S
C2874 C2873 1.434 . S
C2875 C2876 1.369 . S
C2875 C2877 1.419 . S
C2875 H2879 0.930 . S
C2876 C2875 1.369 . S
C2876 C2885 1.429 . S
C2877 C2875 1.419 . S
C2877 C2878 1.363 . S
C2877 H2880 0.929 . S
C2878 C2877 1.363 . S
C2878 C2884 1.428 . S
H2879 C2875 0.930 . S
H2880 C2877 0.929 . S
S2881 N2882 1.613 . S
S2881 N2883 1.610 . S
N2882 S2881 1.613 . S
N2882 C2885 1.350 . S
N2883 S2881 1.610 . S
N2883 C2884 1.351 . S
C2884 C2878 1.428 . S
C2884 N2883 1.351 . S
C2884 C2885 1.434 . S
C2885 C2876 1.429 . S
C2885 N2882 1.350 . S
C2885 C2884 1.434 . S
C2886 C2887 1.369 . S
C2886 C2888 1.419 . S
C2886 H2890 0.930 . S
C2887 C2886 1.369 . S
C2887 C2896 1.429 1_455 S
C2888 C2886 1.419 . S
C2888 C2889 1.363 1_455 S
C2888 H2891 0.929 . S
C2889 C2888 1.363 1_655 S
C2889 C2895 1.428 . S
H2890 C2886 0.930 . S
H2891 C2888 0.929 . S
S2892 N2893 1.613 . S
S2892 N2894 1.610 . S
N2893 S2892 1.613 . S
N2893 C2896 1.350 . S
N2894 S2892 1.610 . S
N2894 C2895 1.351 . S
C2895 C2889 1.428 . S
C2895 N2894 1.351 . S
C2895 C2896 1.434 . S
C2896 C2887 1.429 1_655 S
C2896 N2893 1.350 . S
C2896 C2895 1.434 . S
C2897 C2898 1.369 . S
C2897 C2899 1.419 1_455 S
C2897 H2901 0.930 . S
C2898 C2897 1.369 . S
C2898 C2907 1.429 . S
C2899 C2897 1.419 1_655 S
C2899 C2900 1.363 . S
C2899 H2902 0.929 . S
C2900 C2899 1.363 . S
C2900 C2906 1.428 . S
H2901 C2897 0.930 . S
H2902 C2899 0.929 . S
S2903 N2904 1.613 . S
S2903 N2905 1.610 1_455 S
N2904 S2903 1.613 . S
N2904 C2907 1.350 . S
N2905 S2903 1.610 1_655 S
N2905 C2906 1.351 . S
C2906 C2900 1.428 . S
C2906 N2905 1.351 . S
C2906 C2907 1.434 1_655 S
C2907 C2898 1.429 . S
C2907 N2904 1.350 . S
C2907 C2906 1.434 1_455 S
C2908 C2909 1.369 . S
C2908 C2910 1.419 . S
C2908 H2912 0.930 . S
C2909 C2908 1.369 . S
C2909 C2918 1.429 1_455 S
C2910 C2908 1.419 . S
C2910 C2911 1.363 1_455 S
C2910 H2913 0.929 . S
C2911 C2910 1.363 1_655 S
C2911 C2917 1.428 . S
H2912 C2908 0.930 . S
H2913 C2910 0.929 . S
S2914 N2915 1.613 . S
S2914 N2916 1.610 . S
N2915 S2914 1.613 . S
N2915 C2918 1.350 . S
N2916 S2914 1.610 . S
N2916 C2917 1.351 . S
C2917 C2911 1.428 . S
C2917 N2916 1.351 . S
C2917 C2918 1.434 . S
C2918 C2909 1.429 1_655 S
C2918 N2915 1.350 . S
C2918 C2917 1.434 . S
C2919 C2920 1.369 . S
C2919 C2921 1.419 . S
C2919 H2923 0.930 . S
C2920 C2919 1.369 . S
C2920 C2929 1.429 . S
C2921 C2919 1.419 . S
C2921 C2922 1.363 . S
C2921 H2924 0.929 . S
C2922 C2921 1.363 . S
C2922 C2928 1.428 . S
H2923 C2919 0.930 . S
H2924 C2921 0.929 . S
S2925 N2926 1.613 . S
S2925 N2927 1.610 . S
N2926 S2925 1.613 . S
N2926 C2929 1.350 . S
N2927 S2925 1.610 . S
N2927 C2928 1.351 . S
C2928 C2922 1.428 . S
C2928 N2927 1.351 . S
C2928 C2929 1.434 . S
C2929 C2920 1.429 . S
C2929 N2926 1.350 . S
C2929 C2928 1.434 . S
C2930 C2931 1.369 . S
C2930 C2932 1.419 1_565 S
C2930 H2934 0.930 . S
C2931 C2930 1.369 . S
C2931 C2940 1.429 . S
C2932 C2930 1.419 1_545 S
C2932 C2933 1.363 . S
C2932 H2935 0.929 . S
C2933 C2932 1.363 . S
C2933 C2939 1.428 . S
H2934 C2930 0.930 . S
H2935 C2932 0.929 . S
S2936 N2937 1.613 . S
S2936 N2938 1.610 1_565 S
N2937 S2936 1.613 . S
N2937 C2940 1.350 . S
N2938 S2936 1.610 1_545 S
N2938 C2939 1.351 . S
C2939 C2933 1.428 . S
C2939 N2938 1.351 . S
C2939 C2940 1.434 1_545 S
C2940 C2931 1.429 . S
C2940 N2937 1.350 . S
C2940 C2939 1.434 1_565 S
C2941 C2942 1.369 . S
C2941 C2943 1.419 . S
C2941 H2945 0.930 . S
C2942 C2941 1.369 . S
C2942 C2951 1.429 1_554 S
C2943 C2941 1.419 . S
C2943 C2944 1.363 1_554 S
C2943 H2946 0.929 . S
C2944 C2943 1.363 1_556 S
C2944 C2950 1.428 . S
H2945 C2941 0.930 . S
H2946 C2943 0.929 . S
S2947 N2948 1.613 . S
S2947 N2949 1.610 . S
N2948 S2947 1.613 . S
N2948 C2951 1.350 . S
N2949 S2947 1.610 . S
N2949 C2950 1.351 . S
C2950 C2944 1.428 . S
C2950 N2949 1.351 . S
C2950 C2951 1.434 . S
C2951 C2942 1.429 1_556 S
C2951 N2948 1.350 . S
C2951 C2950 1.434 . S
C1633 C927 1.345 . S
C1635 C20 1.374 . S
C1644 C54 1.377 . S
C1646 C825 1.348 . S
C1655 C88 1.372 . S
C1657 C859 1.348 . S
C1666 C893 1.348 . S
C1668 C122 1.373 . S
C1677 C156 1.376 . S
C1679 C179 1.353 . S
C1688 C213 1.352 . S
C1690 C190 1.377 1_655 S
C1699 C247 1.349 . S
C1701 C224 1.377 . S
C1710 C258 1.375 1_455 S
C1712 C145 1.353 . S
C1721 C292 1.373 . S
C1723 C1437 1.346 . S
C1732 C326 1.378 1_556 S
C1734 C1471 1.350 . S
C1743 C360 1.378 . S
C1745 C689 1.350 . S
C1754 C1403 1.354 . S
C1756 C394 1.375 1_556 S
C1765 C1573 1.347 . S
C1767 C428 1.377 . S
C1776 C553 1.354 . S
C1778 C462 1.375 1_554 S
C1787 C496 1.375 . S
C1789 C1607 1.353 . S
C1798 C530 1.377 1_554 S
C1800 C1539 1.352 . S
C1809 C315 1.349 . S
C1811 C564 1.373 . S
C1820 C1335 1.345 . S
C1822 C598 1.374 . S
C1831 C1233 1.346 . S
C1833 C632 1.376 . S
C1842 C1267 1.351 . S
C1844 C666 1.373 . S
C1853 C700 1.375 . S
C1855 C485 1.346 . S
C1864 C734 1.378 . S
C1866 C1199 1.350 . S
C1875 C1097 1.353 . S
C1877 C768 1.376 . S
C1886 C802 1.375 1_565 S
C1888 C1165 1.346 . S
C1897 C836 1.376 . S
C1899 C111 1.353 . S
C1908 C870 1.377 1_455 S
C1910 C9 1.349 . S
C1919 C43 1.353 . S
C1921 C904 1.375 . S
C1930 C77 1.352 . S
C1932 C938 1.377 1_655 S
C1941 C995 1.347 . S
C1943 C972 1.376 . S
C1952 C1029 1.352 . S
C1954 C1006 1.377 . S
C1963 C1040 1.375 . S
C1965 C1063 1.353 . S
C1974 C1074 1.375 . S
C1976 C961 1.353 . S
C1985 C1108 1.372 . S
C1987 C621 1.348 . S
C1996 C655 1.350 . S
C1998 C1142 1.373 . S
C2007 C1505 1.353 . S
C2009 C1176 1.374 . S
C2018 C1210 1.377 . S
C2020 C587 1.348 . S
C2029 C757 1.345 . S
C2031 C1244 1.375 . S
C2040 C1278 1.377 . S
C2042 C1369 1.350 . S
C2051 C1312 1.372 . S
C2053 C791 1.349 . S
C2062 C723 1.346 . S
C2064 C1346 1.374 . S
C2073 C1131 1.349 . S
C2075 C1380 1.373 . S
C2084 C519 1.353 . S
C2086 C1414 1.377 . S
C2095 C1448 1.374 1_565 S
C2097 C417 1.353 . S
C2106 C451 1.348 . S
C2108 C1482 1.373 . S
C2117 C1516 1.374 1_545 S
C2119 C1301 1.352 . S
C2128 C1550 1.373 . S
C2130 C383 1.352 . S
C2139 C281 1.347 . S
C2141 C1584 1.377 1_545 S
C2150 C349 1.349 . S
C2152 C1618 1.373 . S
C2161 C1430 1.239 . S
C2163 C33 1.207 . S
C2172 C1464 1.239 . S
C2174 C67 1.214 . S
C2183 C682 1.232 . S
C2185 C101 1.209 . S
C2194 C1396 1.239 . S
C2196 C135 1.214 . S
C2205 C169 1.216 . S
C2207 C1566 1.238 . S
C2216 C546 1.232 . S
C2218 C203 1.215 . S
C2227 C1600 1.240 . S
C2229 C237 1.212 . S
C2238 C271 1.206 . S
C2240 C1532 1.235 . S
C2249 C305 1.205 . S
C2251 C308 1.236 . S
C2260 C342 1.237 . S
C2262 C339 1.216 . S
C2271 C376 1.231 . S
C2273 C373 1.209 . S
C2282 C274 1.240 . S
C2284 C407 1.208 . S
C2293 C1328 1.237 . S
C2295 C441 1.216 . S
C2304 C1226 1.231 . S
C2306 C475 1.214 . S
C2315 C1260 1.233 . S
C2317 C509 1.208 . S
C2326 C543 1.205 . S
C2328 C1294 1.236 . S
C2337 C920 1.238 . S
C2339 C577 1.215 . S
C2348 C611 1.216 . S
C2350 C172 1.238 . S
C2359 C206 1.239 . S
C2361 C645 1.207 . S
C2370 C240 1.236 . S
C2372 C679 1.207 . S
C2381 C713 1.206 . S
C2383 C954 1.234 . S
C2392 C36 1.233 . S
C2394 C747 1.207 . S
C2403 C781 1.211 . S
C2405 C70 1.239 . S
C2414 C815 1.209 . S
C2416 C2 1.239 . S
C2425 C614 1.239 . S
C2427 C849 1.214 . S
C2436 C648 1.236 . S
C2438 C883 1.216 . S
C2447 C917 1.218 . S
C2449 C1498 1.236 . S
C2458 C951 1.214 . S
C2460 C580 1.232 . S
C2469 C750 1.231 . S
C2471 C985 1.212 . S
C2480 C1362 1.231 . S
C2482 C1019 1.211 . S
C2491 C784 1.231 . S
C2493 C1053 1.211 . S
C2502 C1087 1.216 . S
C2504 C716 1.232 . S
C2513 C1121 1.212 . S
C2515 C1124 1.232 . S
C2524 C1158 1.231 . S
C2526 C1155 1.212 . S
C2535 C1189 1.216 . S
C2537 C1192 1.238 . S
C2546 C1223 1.210 . S
C2548 C1090 1.232 . S
C2557 C1257 1.213 . S
C2559 C512 1.232 . S
C2568 C410 1.235 . S
C2570 C1291 1.207 . S
C2579 C444 1.231 . S
C2581 C1325 1.211 . S
C2590 C478 1.231 . S
C2592 C1359 1.214 . S
C2601 C104 1.235 . S
C2603 C1393 1.216 . S
C2612 C988 1.236 . S
C2614 C1427 1.216 . S
C2623 C1461 1.206 . S
C2625 C1022 1.238 . S
C2634 C1495 1.209 . S
C2636 C1056 1.232 . S
C2645 C1529 1.209 . S
C2647 C138 1.233 . S
C2656 C1563 1.207 . S
C2658 C852 1.239 . S
C2667 C1597 1.208 . S
C2669 C886 1.239 . S
C2678 C818 1.240 . S
C2680 C1631 1.208 . S
C2689 C5 0.933 . S
C2691 C1025 0.940 . S
C2700 C39 0.936 . S
C2702 C1059 0.942 . S
C2711 C957 0.934 . S
C2713 C73 0.940 . S
C2722 C991 0.935 . S
C2724 C107 0.941 . S
C2733 C141 0.936 . S
C2735 C889 0.942 . S
C2744 C923 0.934 . S
C2746 C175 0.941 . S
C2755 C821 0.936 . S
C2757 C209 0.942 . S
C2766 C855 0.935 . S
C2768 C243 0.941 . S
C2777 C277 0.936 . S
C2779 C345 0.942 . S
C2788 C311 0.943 . S
C2790 C379 0.938 . S
C2799 C481 0.939 . S
C2801 C413 0.933 . S
C2810 C447 0.931 . S
C2812 C515 0.937 . S
C2821 C549 0.934 . S
C2823 C583 0.933 . S
C2832 C1603 0.934 . S
C2834 C617 0.933 . S
C2843 C1535 0.938 . S
C2845 C651 0.942 . S
C2854 C685 0.936 . S
C2856 C753 0.942 . S
C2865 C719 0.939 . S
C2867 C1467 0.934 . S
C2876 C787 0.934 . S
C2878 C1433 0.941 . S
C2887 C1161 0.936 . S
C2889 C1093 0.941 . S
C2898 C1195 0.933 . S
C2900 C1127 0.934 . S
C2909 C1297 0.936 . S
C2911 C1229 0.941 . S
C2920 C1331 0.935 . S
C2922 C1263 0.941 . S
C2931 C1365 0.931 . S
C2933 C1399 0.934 . S
C2942 C1569 0.943 . S
C2944 C1501 0.936 . S
