# Generated by pormake.
# Topology fne, (5)-cn, num edge types: 1
# Building blocks:
#     Node 0, Type 0, BuildingBlock: BEQFEK_clean_sbu_0, # of connection points: 5
#     Node 1, Type 0, BuildingBlock: BEQFEK_clean_sbu_0, # of connection points: 5
#     Node 2, Type 0, BuildingBlock: BEQFEK_clean_sbu_0, # of connection points: 5
#     Node 3, Type 0, BuildingBlock: BEQFEK_clean_sbu_0, # of connection points: 5
#     Node 4, Type 0, BuildingBlock: BEQFEK_clean_sbu_0, # of connection points: 5
#     Node 5, Type 0, BuildingBlock: BEQFEK_clean_sbu_0, # of connection points: 5
#     Edge 6, Type (0, 0), BuildingBlock: OJICUG_clean_linker_0, # of connection points: 2
#     Edge 7, Type (0, 0), BuildingBlock: OJICUG_clean_linker_0, # of connection points: 2
#     Edge 8, Type (0, 0), BuildingBlock: OJICUG_clean_linker_0, # of connection points: 2
#     Edge 9, Type (0, 0), BuildingBlock: OJICUG_clean_linker_0, # of connection points: 2
#     Edge 10, Type (0, 0), BuildingBlock: OJICUG_clean_linker_0, # of connection points: 2
#     Edge 11, Type (0, 0), BuildingBlock: OJICUG_clean_linker_0, # of connection points: 2
#     Edge 12, Type (0, 0), BuildingBlock: OJICUG_clean_linker_0, # of connection points: 2
#     Edge 13, Type (0, 0), BuildingBlock: OJICUG_clean_linker_0, # of connection points: 2
#     Edge 14, Type (0, 0), BuildingBlock: OJICUG_clean_linker_0, # of connection points: 2
#     Edge 15, Type (0, 0), BuildingBlock: OJICUG_clean_linker_0, # of connection points: 2
#     Edge 16, Type (0, 0), BuildingBlock: OJICUG_clean_linker_0, # of connection points: 2
#     Edge 17, Type (0, 0), BuildingBlock: OJICUG_clean_linker_0, # of connection points: 2
#     Edge 18, Type (0, 0), BuildingBlock: OJICUG_clean_linker_0, # of connection points: 2
#     Edge 19, Type (0, 0), BuildingBlock: OJICUG_clean_linker_0, # of connection points: 2
#     Edge 20, Type (0, 0), BuildingBlock: OJICUG_clean_linker_0, # of connection points: 2
# Relax obj value: 0.248
# Max RMSD: 0.191
# Mean RMSD: 0.191
data_MOF--net-fne--node1-BEQFEK_clean_sbu_0--edge1-OJICUG_clean_linker_0
_symmetry_space_group_name_H-M    P1
_symmetry_Int_Tables_number       1
_symmetry_cell_setting            triclinic
loop_
_symmetry_equiv_pos_as_xyz
'x, y, z'
_cell_length_a     32.88458
_cell_length_b     32.869396
_cell_length_c     14.769682
_cell_angle_alpha  89.713812
_cell_angle_beta   90.010693
_cell_angle_gamma 120.04441
loop_
_atom_site_label
_atom_site_type_symbol
_atom_site_fract_x
_atom_site_fract_y
_atom_site_fract_z
_atom_type_partial_charge
Co0 Co 0.51164 0.2164 0.90891 0.0
Co1 Co 0.48499 0.17099 0.10162 0.0
C2 C 0.57504 0.19215 0.00817 0.0
O3 O 0.56632 0.20969 0.93915 0.0
O4 O 0.5467 0.17616 0.07474 0.0
C5 C 0.5472 0.24061 0.7315 0.0
O6 O 0.58092 0.23462 0.76452 0.0
C7 C 0.50587 0.18095 0.29185 0.0
C8 C 0.4375 0.1327 0.35592 0.0
C9 C 0.48336 0.16709 0.37487 0.0
N10 N 0.47461 0.15659 0.22689 0.0
N11 N 0.43405 0.12696 0.26543 0.0
C12 C 0.55409 0.22144 0.273 0.0
H13 H 0.55622 0.23528 0.20348 0.0
H14 H 0.5636 0.25011 0.32247 0.0
H15 H 0.5799 0.20922 0.27891 0.0
C16 C 0.50037 0.29075 0.00043 0.0
N17 N 0.49955 0.24935 -0.0004 0.0
N18 N 0.48546 0.22878 0.07923 0.0
C19 C 0.47522 0.25581 0.13226 0.0
C20 C 0.48481 0.29614 0.08456 0.0
C21 C 0.51464 0.32356 0.92113 0.0
H22 H 0.49248 0.3046 0.86205 0.0
H23 H 0.55158 0.33501 0.9028 0.0
H24 H 0.51111 0.35473 0.93578 0.0
O25 O 0.45632 0.15334 0.89389 0.0
O26 O 0.43528 0.11918 0.02886 0.0
H27 H 0.43235 0.20612 0.23441 0.0
H28 H 0.44076 0.26377 0.25115 0.0
C29 C 0.45794 0.24411 0.22799 0.0
H30 H 0.4881 0.25359 0.27349 0.0
H31 H 0.40341 0.10493 0.22983 0.0
O32 O 0.51841 0.24284 0.78584 0.0
C33 C 0.42931 0.11839 0.94345 0.0
Co34 Co 0.47488 0.53842 0.23056 0.0
Co35 Co 0.48475 0.50255 0.41998 0.0
C36 C 0.55994 0.59465 0.34016 0.0
O37 O 0.53548 0.59035 0.27062 0.0
O38 O 0.54496 0.56324 0.4018 0.0
C39 C 0.4998 0.55632 0.0597 0.0
O40 O 0.53662 0.56229 0.10544 0.0
C41 C 0.4881 0.51698 0.61219 0.0
C42 C 0.48012 0.45123 0.66983 0.0
C43 C 0.48494 0.49426 0.69265 0.0
N44 N 0.48415 0.48838 0.54411 0.0
N45 N 0.47943 0.44907 0.57869 0.0
C46 C 0.49638 0.5658 0.60005 0.0
H47 H 0.49217 0.57285 0.52817 0.0
H48 H 0.47157 0.57091 0.64278 0.0
H49 H 0.53252 0.59135 0.62259 0.0
C50 C 0.39128 0.53478 0.32264 0.0
N51 N 0.42797 0.5272 0.31774 0.0
N52 N 0.43087 0.50825 0.39448 0.0
C53 C 0.39475 0.50073 0.44831 0.0
C54 C 0.36948 0.51884 0.40655 0.0
C55 C 0.37928 0.55917 0.25078 0.0
H56 H 0.34965 0.53245 0.21 0.0
H57 H 0.40981 0.57966 0.20528 0.0
H58 H 0.36797 0.58262 0.28177 0.0
O59 O 0.47924 0.48085 0.21313 0.0
O60 O 0.48421 0.4523 0.34633 0.0
H61 H 0.39316 0.4459 0.53144 0.0
H62 H 0.34221 0.45257 0.54196 0.0
C63 C 0.38097 0.47178 0.53344 0.0
H64 H 0.39634 0.4949 0.59289 0.0
H65 H 0.47583 0.42092 0.5402 0.0
O66 O 0.46386 0.55036 0.10378 0.0
C67 C 0.4824 0.45026 0.26045 0.0
Co68 Co 0.11395 0.49877 0.56733 0.0
Co69 Co 0.1627 0.51341 0.75499 0.0
C70 C 0.13654 0.58242 0.67647 0.0
O71 O 0.11731 0.55724 0.60736 0.0
O72 O 0.15561 0.56984 0.73698 0.0
C73 C 0.11954 0.52252 0.39592 0.0
O74 O 0.14767 0.56063 0.4414 0.0
C75 C 0.15099 0.51496 0.94799 0.0
C76 C 0.21291 0.51434 0.00417 0.0
C77 C 0.17206 0.51414 0.02813 0.0
N78 N 0.17738 0.51441 0.8792 0.0
N79 N 0.21445 0.51411 0.91296 0.0
C80 C 0.10734 0.51799 0.9368 0.0
H81 H 0.09683 0.51455 0.86466 0.0
H82 H 0.07822 0.48999 0.97707 0.0
H83 H 0.11374 0.55231 0.96286 0.0
C84 C 0.03956 0.41206 0.66287 0.0
N85 N 0.08229 0.45103 0.65575 0.0
N86 N 0.10582 0.45598 0.73097 0.0
C87 C 0.08 0.41902 0.78581 0.0
C88 C 0.03653 0.39088 0.74654 0.0
C89 C 0.00163 0.39746 0.59374 0.0
H90 H 0.00953 0.42705 0.5469 0.0
H91 H 0.96718 0.3851 0.62735 0.0
H92 H -0.00063 0.36785 0.55395 0.0
O93 O 0.17801 0.50892 0.54835 0.0
O94 O 0.21484 0.51921 0.67871 0.0
H95 H 0.08167 0.36887 0.87786 0.0
H96 H 0.08895 0.42105 0.93003 0.0
C97 C 0.09812 0.40753 0.86954 0.0
H98 H 0.13676 0.42311 0.86567 0.0
H99 H 0.24073 0.5138 0.87388 0.0
O100 O 0.09125 0.48563 0.4403 0.0
C101 C 0.21415 0.51647 0.59275 0.0
Co102 Co 0.79634 0.13868 0.90815 0.0
Co103 Co 0.82774 0.18749 0.09746 0.0
C104 C 0.7379 0.16935 0.0055 0.0
O105 O 0.74416 0.14939 0.93778 0.0
O106 O 0.76728 0.18529 0.07024 0.0
C107 C 0.76231 0.11738 0.72989 0.0
O108 O 0.73059 0.12659 0.76202 0.0
C109 C 0.80685 0.17681 0.28825 0.0
C110 C 0.87501 0.22451 0.35241 0.0
C111 C 0.82906 0.19008 0.37146 0.0
N112 N 0.83828 0.2016 0.22317 0.0
N113 N 0.87877 0.23082 0.26185 0.0
C114 C 0.7587 0.13641 0.26945 0.0
H115 H 0.75613 0.124 0.19892 0.0
H116 H 0.74987 0.10688 0.31707 0.0
H117 H 0.73263 0.14808 0.27862 0.0
C118 C 0.7993 0.06124 0.01105 0.0
N119 N 0.80587 0.10504 0.00258 0.0
N120 N 0.82322 0.12785 0.07875 0.0
C121 C 0.83038 0.10013 0.13626 0.0
C122 C 0.81406 0.05652 0.09693 0.0
C123 C 0.77747 0.02436 0.93978 0.0
H124 H 0.80573 0.02429 0.89885 0.0
H125 H 0.75529 0.03202 0.89418 0.0
H126 H 0.75613 0.98905 0.97111 0.0
O127 O 0.8535 0.20028 0.88994 0.0
O128 O 0.87843 0.2369 0.02118 0.0
H129 H 0.88368 0.15442 0.21859 0.0
H130 H 0.87642 0.09698 0.23657 0.0
C131 C 0.85755 0.11645 0.22276 0.0
H132 H 0.83321 0.10974 0.28003 0.0
H133 H 0.90955 0.253 0.22632 0.0
O134 O 0.78884 0.11179 0.78518 0.0
C135 C 0.88264 0.2356 0.93555 0.0
Co136 Co 0.83378 0.82075 0.2563 0.0
Co137 Co 0.81288 0.84896 0.44596 0.0
C138 C 0.74534 0.75777 0.35338 0.0
O139 O 0.77247 0.76621 0.28596 0.0
O140 O 0.75665 0.78659 0.41862 0.0
C141 C 0.82349 0.78674 0.07827 0.0
O142 O 0.78379 0.75264 0.11093 0.0
C143 C 0.80362 0.82791 0.63684 0.0
C144 C 0.82012 0.89502 0.70082 0.0
C145 C 0.81142 0.84995 0.71998 0.0
N146 N 0.8083 0.85867 0.57173 0.0
N147 N 0.81716 0.89846 0.61032 0.0
C148 C 0.7989 0.78098 0.61799 0.0
H149 H 0.80922 0.77924 0.5473 0.0
H150 H 0.82089 0.77388 0.66529 0.0
H151 H 0.76169 0.7532 0.62755 0.0
C152 C 0.91622 0.82892 0.35818 0.0
N153 N 0.87732 0.83263 0.35039 0.0
N154 N 0.8703 0.84861 0.42687 0.0
C155 C 0.90583 0.85783 0.48397 0.0
C156 C 0.93527 0.84429 0.44391 0.0
C157 C 0.9331 0.80888 0.28656 0.0
H158 H 0.96072 0.83808 0.24575 0.0
H159 H 0.9038 0.78577 0.24093 0.0
H160 H 0.94854 0.78885 0.31755 0.0
O161 O 0.82552 0.87561 0.23876 0.0
O162 O 0.81109 0.89835 0.37 0.0
H163 H 0.95323 0.90497 0.58479 0.0
H164 H 0.89816 0.85928 0.62784 0.0
C165 C 0.91497 0.88429 0.57091 0.0
H166 H 0.90104 0.90872 0.56734 0.0
H167 H 0.82393 0.92873 0.57473 0.0
O168 O 0.85448 0.81509 0.13312 0.0
C169 C 0.81697 0.90313 0.28441 0.0
Co170 Co 0.18884 0.85731 0.59261 0.0
Co171 Co 0.14197 0.83931 0.7841 0.0
C172 C 0.15833 0.76752 0.68986 0.0
O173 O 0.1773 0.7941 0.62164 0.0
O174 O 0.14345 0.78063 0.75684 0.0
C175 C 0.21225 0.84527 0.41515 0.0
O176 O 0.20469 0.80487 0.44804 0.0
C177 C 0.1527 0.82904 0.97457 0.0
C178 C 0.10543 0.85007 0.03881 0.0
C179 C 0.13958 0.83822 0.05766 0.0
N180 N 0.1281 0.83588 0.90969 0.0
N181 N 0.09912 0.84747 0.94839 0.0
C182 C 0.19273 0.82076 0.95548 0.0
H183 H 0.20522 0.8306 0.88473 0.0
H184 H 0.22229 0.84117 0.00267 0.0
H185 H 0.18062 0.78288 0.96503 0.0
C186 C 0.26697 0.93771 0.69056 0.0
N187 N 0.22338 0.90001 0.68556 0.0
N188 N 0.20176 0.89439 0.76351 0.0
C189 C 0.23019 0.92965 0.81916 0.0
C190 C 0.27291 0.95749 0.7761 0.0
C191 C 0.30246 0.95302 0.61598 0.0
H192 H 0.2999 0.97955 0.57337 0.0
H193 H 0.29536 0.92267 0.57271 0.0
H194 H 0.33857 0.96922 0.64386 0.0
O195 O 0.12776 0.85392 0.5768 0.0
O196 O 0.09222 0.84099 0.71001 0.0
H197 H 0.17719 0.92834 0.90631 0.0
H198 H 0.23477 0.97857 0.92116 0.0
C199 C 0.21518 0.94025 0.90751 0.0
H200 H 0.22266 0.92235 0.96336 0.0
H201 H 0.07713 0.85627 0.9129 0.0
O202 O 0.21588 0.87674 0.46967 0.0
C203 C 0.09288 0.84737 0.62466 0.0
C204 C 0.63785 0.1849 0.09026 0.0
C205 C 0.61755 0.18777 0.00848 0.0
H206 H 0.69256 0.1775 0.15348 0.0
C207 C 0.63727 0.18477 0.9262 0.0
H208 H 0.62333 0.18713 0.15464 0.0
C209 C 0.67601 0.17822 0.92557 0.0
C210 C 0.6965 0.17557 0.00718 0.0
H211 H 0.62215 0.18648 0.86212 0.0
H212 H 0.69024 0.17574 0.86103 0.0
C213 C 0.6774 0.17945 0.0896 0.0
C214 C 0.67733 0.69584 0.26875 0.0
C215 C 0.69849 0.71515 0.35215 0.0
H216 H 0.6168 0.6432 0.20005 0.0
C217 C 0.67394 0.69419 0.43273 0.0
H218 H 0.6952 0.71142 0.20553 0.0
C219 C 0.62899 0.65434 0.42958 0.0
C220 C 0.60762 0.63581 0.34579 0.0
H221 H 0.68956 0.70842 0.49793 0.0
H222 H 0.61064 0.63861 0.49235 0.0
C223 C 0.63224 0.65696 0.2656 0.0
C224 C 0.1459 0.65146 0.76569 0.0
C225 C 0.14004 0.62886 0.68215 0.0
H226 H 0.1555 0.71323 0.83394 0.0
C227 C 0.13945 0.65189 0.60224 0.0
H228 H 0.14642 0.6344 0.82828 0.0
C229 C 0.1457 0.69699 0.60533 0.0
C230 C 0.15163 0.71972 0.68852 0.0
H231 H 0.13529 0.63551 0.53681 0.0
H232 H 0.14553 0.71397 0.54237 0.0
C233 C 0.15102 0.69638 0.76894 0.0
C234 C 0.47266 0.19817 0.52101 0.0
C235 C 0.50132 0.18938 0.46349 0.0
H236 H 0.46536 0.22313 0.64986 0.0
C237 C 0.54697 0.20212 0.4912 0.0
H238 H 0.43749 0.18914 0.50062 0.0
C239 C 0.56317 0.22192 0.57634 0.0
C240 C 0.53395 0.22925 0.63544 0.0
H241 H 0.56959 0.19527 0.44844 0.0
H242 H 0.59789 0.22967 0.59724 0.0
C243 C 0.48893 0.21826 0.60591 0.0
C244 C 0.45582 0.5232 0.81901 0.0
C245 C 0.48938 0.5129 0.78415 0.0
H246 H 0.43251 0.54517 0.93518 0.0
C247 C 0.52738 0.51997 0.83746 0.0
H248 H 0.42615 0.51777 0.77817 0.0
C249 C 0.5317 0.53659 0.92531 0.0
C250 C 0.49736 0.54532 0.96245 0.0
H251 H 0.55368 0.51245 0.81118 0.0
H252 H 0.56127 0.54089 0.96508 0.0
C253 C 0.45952 0.53892 0.90824 0.0
C254 C 0.18636 0.55394 0.17559 0.0
C255 C 0.15672 0.51631 0.12036 0.0
H256 H 0.19707 0.58601 0.3046 0.0
C257 C 0.11314 0.48105 0.15408 0.0
H258 H 0.22003 0.58146 0.15055 0.0
C259 C 0.09992 0.48304 0.24347 0.0
C260 C 0.12982 0.52085 0.29911 0.0
H261 H 0.09001 0.45145 0.11217 0.0
H262 H 0.06681 0.45494 0.26923 0.0
C263 C 0.17285 0.55653 0.26359 0.0
C264 C 0.82184 0.13965 0.60575 0.0
C265 C 0.77653 0.12857 0.63378 0.0
H266 H 0.87412 0.16858 0.50114 0.0
C267 C 0.74779 0.13569 0.57282 0.0
H268 H 0.84512 0.13513 0.65128 0.0
C269 C 0.76459 0.15513 0.48718 0.0
C270 C 0.81045 0.16786 0.46066 0.0
H271 H 0.7129 0.12795 0.59255 0.0
H272 H 0.74224 0.16182 0.44317 0.0
C273 C 0.83874 0.15945 0.52029 0.0
C274 C 0.78602 0.78585 0.83618 0.0
C275 C 0.81676 0.83243 0.80908 0.0
H276 H 0.76484 0.73445 0.94197 0.0
C277 C 0.8527 0.86251 0.86805 0.0
H278 H 0.75756 0.76208 0.7927 0.0
C279 C 0.85719 0.84663 0.95345 0.0
C280 C 0.82528 0.80051 0.98209 0.0
H281 H 0.87714 0.8985 0.84846 0.0
H282 H 0.8843 0.87121 -0.00155 0.0
C283 C 0.79024 0.77004 0.92176 0.0
C284 C 0.19374 0.81164 0.25923 0.0
C285 C 0.20119 0.8479 0.31897 0.0
H286 H 0.16724 0.7794 0.13072 0.0
C287 C 0.19058 0.88234 0.28981 0.0
H288 H 0.20116 0.78434 0.27983 0.0
C289 C 0.17077 0.8792 0.20463 0.0
C290 C 0.16189 0.84205 0.14639 0.0
H291 H 0.19549 0.91055 0.33429 0.0
H292 H 0.16199 0.90562 0.18463 0.0
C293 C 0.17426 0.80874 0.1738 0.0
C294 C 0.5248 0.38071 0.12838 0.0
C295 C 0.4833 0.33717 0.12069 0.0
H296 H 0.55692 0.45107 0.18019 0.0
C297 C 0.44125 0.33175 0.15622 0.0
H298 H 0.5576 0.38556 0.10148 0.0
C299 C 0.44114 0.36851 0.20305 0.0
C300 C 0.48293 0.41138 0.21352 0.0
H301 H 0.40873 0.29861 0.14979 0.0
H302 H 0.4085 0.36348 0.23122 0.0
C303 C 0.52455 0.41775 0.17417 0.0
C304 C 0.33612 0.53849 0.53967 0.0
C305 C 0.33136 0.52362 0.4492 0.0
H306 H 0.30286 0.54735 0.65641 0.0
C307 C 0.28902 0.50987 0.40398 0.0
H308 H 0.36894 0.55061 0.57535 0.0
C309 C 0.25126 0.50871 0.45011 0.0
C310 C 0.25517 0.52097 0.54244 0.0
H311 H 0.28444 0.49818 0.33438 0.0
H312 H 0.21854 0.49677 0.41409 0.0
C313 C 0.29834 0.53678 0.58609 0.0
C314 C 0.93037 0.27134 0.79457 0.0
C315 C 0.92139 0.2757 0.88642 0.0
H316 H 0.97403 0.3043 0.6782 0.0
C317 C 0.94915 0.31885 0.92969 0.0
H318 H 0.90949 0.23858 0.7589 0.0
C319 C 0.9854 0.3565 0.88274 0.0
C320 C -0.00474 0.3517 0.792 0.0
H321 H 0.94274 0.32368 -0.00032 0.0
H322 H 0.00581 0.38954 0.91771 0.0
C323 C 0.96704 0.309 0.74786 0.0
C324 C 0.79562 0.00393 0.23188 0.0
C325 C 0.81115 0.01467 0.14154 0.0
H326 H 0.78578 0.96086 0.34843 0.0
C327 C 0.82661 0.98726 0.09737 0.0
H328 H 0.7825 0.0239 0.26695 0.0
C329 C 0.82796 0.95074 0.14371 0.0
C330 C 0.81409 0.94108 0.23536 0.0
H331 H 0.83909 -0.00502 0.02811 0.0
H332 H 0.84085 0.93071 0.10802 0.0
C333 C 0.7974 0.96778 0.27856 0.0
C334 C 0.05637 0.86126 0.48748 0.0
C335 C 0.05237 0.84627 0.57835 0.0
H336 H 0.02264 0.87283 0.37391 0.0
C337 C 0.00914 0.82915 0.62294 0.0
H338 H 0.0892 0.87459 0.45091 0.0
C339 C 0.97092 0.82735 0.57796 0.0
C340 C 0.97525 0.84332 0.48799 0.0
H341 H 0.00465 0.81671 0.69228 0.0
H342 H 0.93781 0.81332 0.61375 0.0
C343 C 0.0182 0.85991 0.44286 0.0
C344 C 0.32817 -0.0051 0.90541 0.0
C345 C 0.31502 -0.00216 0.81605 0.0
H346 H 0.3741 0.03066 0.01631 0.0
C347 C 0.34069 0.04007 0.76787 0.0
H348 H 0.30954 0.96239 0.9435 0.0
C349 C 0.37812 0.07902 0.80911 0.0
C350 C 0.39037 0.07658 0.89965 0.0
H351 H 0.33103 0.04345 0.69932 0.0
H352 H 0.39685 0.11135 0.77044 0.0
C353 C 0.3652 0.03394 0.94707 0.0
loop_
_geom_bond_atom_site_label_1
_geom_bond_atom_site_label_2
_geom_bond_distance
_geom_bond_site_symmetry_2
_ccdc_geom_bond_type
Co0 O3 1.970 . S
Co0 N17 1.989 . S
Co0 O25 1.967 . S
Co0 O32 1.920 . S
Co1 O4 1.966 . S
Co1 N10 2.022 . S
Co1 N18 1.993 . S
Co1 O26 1.941 . S
C2 O3 1.258 1_554 S
C2 O4 1.263 . S
O3 Co0 1.970 . S
O3 C2 1.258 1_556 S
O4 Co1 1.966 . S
O4 C2 1.263 . S
C5 O6 1.235 . S
C5 O32 1.289 . S
O6 C5 1.235 . S
C7 C9 1.400 . S
C7 N10 1.351 . S
C7 C12 1.501 . S
C8 C9 1.387 . S
C8 N11 1.341 . S
C9 C7 1.400 . S
C9 C8 1.387 . S
N10 Co1 2.022 . S
N10 C7 1.351 . S
N10 N11 1.365 . S
N11 C8 1.341 . S
N11 N10 1.365 . S
N11 H31 0.862 . S
C12 C7 1.501 . S
C12 H13 0.961 . S
C12 H14 0.961 . S
C12 H15 0.960 . S
H13 C12 0.961 . S
H14 C12 0.961 . S
H15 C12 0.960 . S
C16 N17 1.342 . S
C16 C20 1.401 1_556 S
C16 C21 1.499 . S
N17 Co0 1.989 . S
N17 C16 1.342 . S
N17 N18 1.388 1_556 S
N18 Co1 1.993 . S
N18 N17 1.388 1_554 S
N18 C19 1.346 . S
C19 N18 1.346 . S
C19 C20 1.396 . S
C19 C29 1.510 . S
C20 C16 1.401 1_554 S
C20 C19 1.396 . S
C21 C16 1.499 . S
C21 H22 0.959 . S
C21 H23 0.960 . S
C21 H24 0.961 . S
H22 C21 0.959 . S
H23 C21 0.960 . S
H24 C21 0.961 . S
O25 Co0 1.967 . S
O25 C33 1.258 . S
O26 Co1 1.941 . S
O26 C33 1.266 1_554 S
H27 C29 0.959 . S
H28 C29 0.961 . S
C29 C19 1.510 . S
C29 H27 0.959 . S
C29 H28 0.961 . S
C29 H30 0.960 . S
H30 C29 0.960 . S
H31 N11 0.862 . S
O32 Co0 1.920 . S
O32 C5 1.289 . S
C33 O25 1.258 . S
C33 O26 1.266 1_556 S
Co34 O37 1.970 . S
Co34 N51 1.989 . S
Co34 O59 1.967 . S
Co34 O66 1.920 . S
Co35 O38 1.966 . S
Co35 N44 2.022 . S
Co35 N52 1.993 . S
Co35 O60 1.941 . S
C36 O37 1.258 . S
C36 O38 1.263 . S
O37 Co34 1.970 . S
O37 C36 1.258 . S
O38 Co35 1.966 . S
O38 C36 1.263 . S
C39 O40 1.235 . S
C39 O66 1.289 . S
O40 C39 1.235 . S
C41 C43 1.400 . S
C41 N44 1.351 . S
C41 C46 1.501 . S
C42 C43 1.387 . S
C42 N45 1.341 . S
C43 C41 1.400 . S
C43 C42 1.387 . S
N44 Co35 2.022 . S
N44 C41 1.351 . S
N44 N45 1.365 . S
N45 C42 1.341 . S
N45 N44 1.365 . S
N45 H65 0.862 . S
C46 C41 1.501 . S
C46 H47 0.961 . S
C46 H48 0.961 . S
C46 H49 0.960 . S
H47 C46 0.961 . S
H48 C46 0.961 . S
H49 C46 0.960 . S
C50 N51 1.342 . S
C50 C54 1.401 . S
C50 C55 1.499 . S
N51 Co34 1.989 . S
N51 C50 1.342 . S
N51 N52 1.388 . S
N52 Co35 1.993 . S
N52 N51 1.388 . S
N52 C53 1.346 . S
C53 N52 1.346 . S
C53 C54 1.396 . S
C53 C63 1.510 . S
C54 C50 1.401 . S
C54 C53 1.396 . S
C55 C50 1.499 . S
C55 H56 0.959 . S
C55 H57 0.960 . S
C55 H58 0.961 . S
H56 C55 0.959 . S
H57 C55 0.960 . S
H58 C55 0.961 . S
O59 Co34 1.967 . S
O59 C67 1.258 . S
O60 Co35 1.941 . S
O60 C67 1.266 . S
H61 C63 0.959 . S
H62 C63 0.961 . S
C63 C53 1.510 . S
C63 H61 0.959 . S
C63 H62 0.961 . S
C63 H64 0.960 . S
H64 C63 0.960 . S
H65 N45 0.862 . S
O66 Co34 1.920 . S
O66 C39 1.289 . S
C67 O59 1.258 . S
C67 O60 1.266 . S
Co68 O71 1.970 . S
Co68 N85 1.989 . S
Co68 O93 1.967 . S
Co68 O100 1.920 . S
Co69 O72 1.966 . S
Co69 N78 2.022 . S
Co69 N86 1.993 . S
Co69 O94 1.941 . S
C70 O71 1.258 . S
C70 O72 1.263 . S
O71 Co68 1.970 . S
O71 C70 1.258 . S
O72 Co69 1.966 . S
O72 C70 1.263 . S
C73 O74 1.235 . S
C73 O100 1.289 . S
O74 C73 1.235 . S
C75 C77 1.400 1_556 S
C75 N78 1.351 . S
C75 C80 1.501 . S
C76 C77 1.387 . S
C76 N79 1.341 1_554 S
C77 C75 1.400 1_554 S
C77 C76 1.387 . S
N78 Co69 2.022 . S
N78 C75 1.351 . S
N78 N79 1.365 . S
N79 C76 1.341 1_556 S
N79 N78 1.365 . S
N79 H99 0.862 . S
C80 C75 1.501 . S
C80 H81 0.961 . S
C80 H82 0.961 . S
C80 H83 0.960 . S
H81 C80 0.961 . S
H82 C80 0.961 . S
H83 C80 0.960 . S
C84 N85 1.342 . S
C84 C88 1.401 . S
C84 C89 1.499 . S
N85 Co68 1.989 . S
N85 C84 1.342 . S
N85 N86 1.388 . S
N86 Co69 1.993 . S
N86 N85 1.388 . S
N86 C87 1.346 . S
C87 N86 1.346 . S
C87 C88 1.396 . S
C87 C97 1.510 . S
C88 C84 1.401 . S
C88 C87 1.396 . S
C89 C84 1.499 . S
C89 H90 0.959 . S
C89 H91 0.960 1_455 S
C89 H92 0.961 . S
H90 C89 0.959 . S
H91 C89 0.960 1_655 S
H92 C89 0.961 . S
O93 Co68 1.967 . S
O93 C101 1.258 . S
O94 Co69 1.941 . S
O94 C101 1.266 . S
H95 C97 0.959 . S
H96 C97 0.961 . S
C97 C87 1.510 . S
C97 H95 0.959 . S
C97 H96 0.961 . S
C97 H98 0.960 . S
H98 C97 0.960 . S
H99 N79 0.862 . S
O100 Co68 1.920 . S
O100 C73 1.289 . S
C101 O93 1.258 . S
C101 O94 1.266 . S
Co102 O105 1.970 . S
Co102 N119 1.989 . S
Co102 O127 1.967 . S
Co102 O134 1.920 . S
Co103 O106 1.966 . S
Co103 N112 2.022 . S
Co103 N120 1.993 . S
Co103 O128 1.941 . S
C104 O105 1.258 1_554 S
C104 O106 1.263 . S
O105 Co102 1.970 . S
O105 C104 1.258 1_556 S
O106 Co103 1.966 . S
O106 C104 1.263 . S
C107 O108 1.235 . S
C107 O134 1.289 . S
O108 C107 1.235 . S
C109 C111 1.400 . S
C109 N112 1.351 . S
C109 C114 1.501 . S
C110 C111 1.387 . S
C110 N113 1.341 . S
C111 C109 1.400 . S
C111 C110 1.387 . S
N112 Co103 2.022 . S
N112 C109 1.351 . S
N112 N113 1.365 . S
N113 C110 1.341 . S
N113 N112 1.365 . S
N113 H133 0.862 . S
C114 C109 1.501 . S
C114 H115 0.961 . S
C114 H116 0.961 . S
C114 H117 0.960 . S
H115 C114 0.961 . S
H116 C114 0.961 . S
H117 C114 0.960 . S
C118 N119 1.342 . S
C118 C122 1.401 1_556 S
C118 C123 1.499 . S
N119 Co102 1.989 . S
N119 C118 1.342 . S
N119 N120 1.388 1_556 S
N120 Co103 1.993 . S
N120 N119 1.388 1_554 S
N120 C121 1.346 . S
C121 N120 1.346 . S
C121 C122 1.396 . S
C121 C131 1.510 . S
C122 C118 1.401 1_554 S
C122 C121 1.396 . S
C123 C118 1.499 . S
C123 H124 0.959 . S
C123 H125 0.960 1_545 S
C123 H126 0.961 . S
H124 C123 0.959 . S
H125 C123 0.960 1_565 S
H126 C123 0.961 . S
O127 Co102 1.967 . S
O127 C135 1.258 . S
O128 Co103 1.941 . S
O128 C135 1.266 1_554 S
H129 C131 0.959 . S
H130 C131 0.961 . S
C131 C121 1.510 . S
C131 H129 0.959 . S
C131 H130 0.961 . S
C131 H132 0.960 . S
H132 C131 0.960 . S
H133 N113 0.862 . S
O134 Co102 1.920 . S
O134 C107 1.289 . S
C135 O127 1.258 . S
C135 O128 1.266 1_556 S
Co136 O139 1.970 . S
Co136 N153 1.989 . S
Co136 O161 1.967 . S
Co136 O168 1.920 . S
Co137 O140 1.966 . S
Co137 N146 2.022 . S
Co137 N154 1.993 . S
Co137 O162 1.941 . S
C138 O139 1.258 . S
C138 O140 1.263 . S
O139 Co136 1.970 . S
O139 C138 1.258 . S
O140 Co137 1.966 . S
O140 C138 1.263 . S
C141 O142 1.235 . S
C141 O168 1.289 . S
O142 C141 1.235 . S
C143 C145 1.400 . S
C143 N146 1.351 . S
C143 C148 1.501 . S
C144 C145 1.387 . S
C144 N147 1.341 . S
C145 C143 1.400 . S
C145 C144 1.387 . S
N146 Co137 2.022 . S
N146 C143 1.351 . S
N146 N147 1.365 . S
N147 C144 1.341 . S
N147 N146 1.365 . S
N147 H167 0.862 . S
C148 C143 1.501 . S
C148 H149 0.961 . S
C148 H150 0.961 . S
C148 H151 0.960 . S
H149 C148 0.961 . S
H150 C148 0.961 . S
H151 C148 0.960 . S
C152 N153 1.342 . S
C152 C156 1.401 . S
C152 C157 1.499 . S
N153 Co136 1.989 . S
N153 C152 1.342 . S
N153 N154 1.388 . S
N154 Co137 1.993 . S
N154 N153 1.388 . S
N154 C155 1.346 . S
C155 N154 1.346 . S
C155 C156 1.396 . S
C155 C165 1.510 . S
C156 C152 1.401 . S
C156 C155 1.396 . S
C157 C152 1.499 . S
C157 H158 0.959 . S
C157 H159 0.960 . S
C157 H160 0.949 1_655 S
H158 C157 0.959 . S
H159 C157 0.960 . S
H160 C157 0.949 1_455 S
O161 Co136 1.967 . S
O161 C169 1.258 . S
O162 Co137 1.941 . S
O162 C169 1.266 . S
H163 C165 0.959 . S
H164 C165 0.961 . S
C165 C155 1.510 . S
C165 H163 0.959 . S
C165 H164 0.961 . S
C165 H166 0.960 . S
H166 C165 0.960 . S
H167 N147 0.862 . S
O168 Co136 1.920 . S
O168 C141 1.289 . S
C169 O161 1.258 . S
C169 O162 1.266 . S
Co170 O173 1.970 . S
Co170 N187 1.989 . S
Co170 O195 1.967 . S
Co170 O202 1.920 . S
Co171 O174 1.966 . S
Co171 N180 2.022 . S
Co171 N188 1.993 . S
Co171 O196 1.941 . S
C172 O173 1.258 . S
C172 O174 1.263 . S
O173 Co170 1.970 . S
O173 C172 1.258 . S
O174 Co171 1.966 . S
O174 C172 1.263 . S
C175 O176 1.235 . S
C175 O202 1.289 . S
O176 C175 1.235 . S
C177 C179 1.400 1_556 S
C177 N180 1.351 . S
C177 C182 1.501 . S
C178 C179 1.387 . S
C178 N181 1.341 1_554 S
C179 C177 1.400 1_554 S
C179 C178 1.387 . S
N180 Co171 2.022 . S
N180 C177 1.351 . S
N180 N181 1.365 . S
N181 C178 1.341 1_556 S
N181 N180 1.365 . S
N181 H201 0.862 . S
C182 C177 1.501 . S
C182 H183 0.961 . S
C182 H184 0.961 . S
C182 H185 0.960 . S
H183 C182 0.961 . S
H184 C182 0.961 . S
H185 C182 0.960 . S
C186 N187 1.342 . S
C186 C190 1.401 . S
C186 C191 1.499 . S
N187 Co170 1.989 . S
N187 C186 1.342 . S
N187 N188 1.388 . S
N188 Co171 1.993 . S
N188 N187 1.388 . S
N188 C189 1.346 . S
C189 N188 1.346 . S
C189 C190 1.396 . S
C189 C199 1.510 . S
C190 C186 1.401 . S
C190 C189 1.396 . S
C191 C186 1.499 . S
C191 H192 0.959 . S
C191 H193 0.955 . S
C191 H194 0.961 1_565 S
H192 C191 0.959 . S
H193 C191 0.955 . S
H194 C191 0.961 1_545 S
O195 Co170 1.967 . S
O195 C203 1.258 . S
O196 Co171 1.941 . S
O196 C203 1.266 . S
H197 C199 0.959 . S
H198 C199 0.961 . S
C199 C189 1.510 . S
C199 H197 0.959 . S
C199 H198 0.961 . S
C199 H200 0.960 . S
H200 C199 0.960 . S
H201 N181 0.862 . S
O202 Co170 1.920 . S
O202 C175 1.289 . S
C203 O195 1.258 . S
C203 O196 1.266 . S
C204 C205 1.387 . S
C204 H208 0.950 . S
C204 C213 1.390 . S
C205 C204 1.387 . S
C205 C207 1.387 1_554 S
H206 C213 0.950 . S
C207 C205 1.387 1_556 S
C207 C209 1.390 . S
C207 H211 0.950 . S
H208 C204 0.950 . S
C209 C207 1.390 . S
C209 C210 1.387 1_556 S
C209 H212 0.950 . S
C210 C209 1.387 1_554 S
C210 C213 1.387 . S
H211 C207 0.950 . S
H212 C209 0.950 . S
C213 C204 1.390 . S
C213 H206 0.950 . S
C213 C210 1.387 . S
C214 C215 1.387 . S
C214 H218 0.950 . S
C214 C223 1.390 . S
C215 C214 1.387 . S
C215 C217 1.387 . S
H216 C223 0.950 . S
C217 C215 1.387 . S
C217 C219 1.390 . S
C217 H221 0.950 . S
H218 C214 0.950 . S
C219 C217 1.390 . S
C219 C220 1.387 . S
C219 H222 0.950 . S
C220 C219 1.387 . S
C220 C223 1.387 . S
H221 C217 0.950 . S
H222 C219 0.950 . S
C223 C214 1.390 . S
C223 H216 0.950 . S
C223 C220 1.387 . S
C224 C225 1.387 . S
C224 H228 0.950 . S
C224 C233 1.390 . S
C225 C224 1.387 . S
C225 C227 1.387 . S
H226 C233 0.950 . S
C227 C225 1.387 . S
C227 C229 1.390 . S
C227 H231 0.950 . S
H228 C224 0.950 . S
C229 C227 1.390 . S
C229 C230 1.387 . S
C229 H232 0.950 . S
C230 C229 1.387 . S
C230 C233 1.387 . S
H231 C227 0.950 . S
H232 C229 0.950 . S
C233 C224 1.390 . S
C233 H226 0.950 . S
C233 C230 1.387 . S
C234 C235 1.387 . S
C234 H238 0.950 . S
C234 C243 1.390 . S
C235 C234 1.387 . S
C235 C237 1.387 . S
H236 C243 0.950 . S
C237 C235 1.387 . S
C237 C239 1.390 . S
C237 H241 0.950 . S
H238 C234 0.950 . S
C239 C237 1.390 . S
C239 C240 1.387 . S
C239 H242 0.950 . S
C240 C239 1.387 . S
C240 C243 1.387 . S
H241 C237 0.950 . S
H242 C239 0.950 . S
C243 C234 1.390 . S
C243 H236 0.950 . S
C243 C240 1.387 . S
C244 C245 1.387 . S
C244 H248 0.950 . S
C244 C253 1.390 . S
C245 C244 1.387 . S
C245 C247 1.387 . S
H246 C253 0.950 . S
C247 C245 1.387 . S
C247 C249 1.390 . S
C247 H251 0.950 . S
H248 C244 0.950 . S
C249 C247 1.390 . S
C249 C250 1.387 . S
C249 H252 0.950 1_556 S
C250 C249 1.387 . S
C250 C253 1.387 . S
H251 C247 0.950 . S
H252 C249 0.950 1_554 S
C253 C244 1.390 . S
C253 H246 0.950 . S
C253 C250 1.387 . S
C254 C255 1.387 . S
C254 H258 0.950 . S
C254 C263 1.390 . S
C255 C254 1.387 . S
C255 C257 1.387 . S
H256 C263 0.950 . S
C257 C255 1.387 . S
C257 C259 1.390 . S
C257 H261 0.950 . S
H258 C254 0.950 . S
C259 C257 1.390 . S
C259 C260 1.387 . S
C259 H262 0.950 1_455 S
C260 C259 1.387 . S
C260 C263 1.387 . S
H261 C257 0.950 . S
H262 C259 0.950 1_655 S
C263 C254 1.390 . S
C263 H256 0.950 . S
C263 C260 1.387 . S
C264 C265 1.387 . S
C264 H268 0.950 . S
C264 C273 1.390 . S
C265 C264 1.387 . S
C265 C267 1.387 . S
H266 C273 0.950 . S
C267 C265 1.387 . S
C267 C269 1.390 . S
C267 H271 0.950 . S
H268 C264 0.950 . S
C269 C267 1.390 . S
C269 C270 1.387 . S
C269 H272 0.950 . S
C270 C269 1.387 . S
C270 C273 1.387 . S
H271 C267 0.950 . S
H272 C269 0.950 . S
C273 C264 1.390 . S
C273 H266 0.950 . S
C273 C270 1.387 . S
C274 C275 1.387 . S
C274 H278 0.950 . S
C274 C283 1.390 . S
C275 C274 1.387 . S
C275 C277 1.387 . S
H276 C283 0.950 . S
C277 C275 1.387 . S
C277 C279 1.390 . S
C277 H281 0.950 . S
H278 C274 0.950 . S
C279 C277 1.390 . S
C279 C280 1.387 . S
C279 H282 0.950 1_556 S
C280 C279 1.387 . S
C280 C283 1.387 . S
H281 C277 0.950 . S
H282 C279 0.950 1_554 S
C283 C274 1.390 . S
C283 H276 0.950 . S
C283 C280 1.387 . S
C284 C285 1.387 . S
C284 H288 0.950 . S
C284 C293 1.390 . S
C285 C284 1.387 . S
C285 C287 1.387 . S
H286 C293 0.950 . S
C287 C285 1.387 . S
C287 C289 1.390 . S
C287 H291 0.950 . S
H288 C284 0.950 . S
C289 C287 1.390 . S
C289 C290 1.387 . S
C289 H292 0.950 . S
C290 C289 1.387 . S
C290 C293 1.387 . S
H291 C287 0.950 . S
H292 C289 0.950 . S
C293 C284 1.390 . S
C293 H286 0.950 . S
C293 C290 1.387 . S
C294 C295 1.387 . S
C294 H298 0.950 . S
C294 C303 1.390 . S
C295 C294 1.387 . S
C295 C297 1.387 . S
H296 C303 0.950 . S
C297 C295 1.387 . S
C297 C299 1.390 . S
C297 H301 0.950 . S
H298 C294 0.950 . S
C299 C297 1.390 . S
C299 C300 1.387 . S
C299 H302 0.950 . S
C300 C299 1.387 . S
C300 C303 1.387 . S
H301 C297 0.950 . S
H302 C299 0.950 . S
C303 C294 1.390 . S
C303 H296 0.950 . S
C303 C300 1.387 . S
C304 C305 1.387 . S
C304 H308 0.950 . S
C304 C313 1.390 . S
C305 C304 1.387 . S
C305 C307 1.387 . S
H306 C313 0.950 . S
C307 C305 1.387 . S
C307 C309 1.390 . S
C307 H311 0.950 . S
H308 C304 0.950 . S
C309 C307 1.390 . S
C309 C310 1.387 . S
C309 H312 0.950 . S
C310 C309 1.387 . S
C310 C313 1.387 . S
H311 C307 0.950 . S
H312 C309 0.950 . S
C313 C304 1.390 . S
C313 H306 0.950 . S
C313 C310 1.387 . S
C314 C315 1.387 . S
C314 H318 0.950 . S
C314 C323 1.390 . S
C315 C314 1.387 . S
C315 C317 1.387 . S
H316 C323 0.950 . S
C317 C315 1.387 . S
C317 C319 1.390 . S
C317 H321 0.950 . S
H318 C314 0.950 . S
C319 C317 1.390 . S
C319 C320 1.387 . S
C319 H322 0.950 . S
C320 C319 1.387 . S
C320 C323 1.387 . S
H321 C317 0.950 . S
H322 C319 0.950 . S
C323 C314 1.390 . S
C323 H316 0.950 . S
C323 C320 1.387 . S
C324 C325 1.387 . S
C324 H328 0.950 . S
C324 C333 1.390 . S
C325 C324 1.387 . S
C325 C327 1.387 1_565 S
H326 C333 0.950 . S
C327 C325 1.387 1_545 S
C327 C329 1.390 1_545 S
C327 H331 0.950 . S
H328 C324 0.950 . S
C329 C327 1.390 1_565 S
C329 C330 1.387 . S
C329 H332 0.950 . S
C330 C329 1.387 . S
C330 C333 1.387 . S
H331 C327 0.950 . S
H332 C329 0.950 . S
C333 C324 1.390 . S
C333 H326 0.950 . S
C333 C330 1.387 . S
C334 C335 1.387 . S
C334 H338 0.950 . S
C334 C343 1.390 . S
C335 C334 1.387 . S
C335 C337 1.387 . S
H336 C343 0.950 . S
C337 C335 1.387 . S
C337 C339 1.390 . S
C337 H341 0.950 . S
H338 C334 0.950 . S
C339 C337 1.390 . S
C339 C340 1.387 . S
C339 H342 0.950 1_455 S
C340 C339 1.387 . S
C340 C343 1.387 . S
H341 C337 0.950 . S
H342 C339 0.950 1_655 S
C343 C334 1.390 . S
C343 H336 0.950 . S
C343 C340 1.387 . S
C344 C345 1.387 . S
C344 H348 0.950 . S
C344 C353 1.390 . S
C345 C344 1.387 . S
C345 C347 1.387 . S
H346 C353 0.950 . S
C347 C345 1.387 . S
C347 C349 1.390 . S
C347 H351 0.950 . S
H348 C344 0.950 . S
C349 C347 1.390 . S
C349 C350 1.387 . S
C349 H352 0.950 . S
C350 C349 1.387 . S
C350 C353 1.387 . S
H351 C347 0.950 . S
H352 C349 0.950 . S
C353 C344 1.390 . S
C353 H346 0.950 . S
C353 C350 1.387 . S
C205 C2 1.593 . S
C210 C104 1.593 . S
C215 C138 1.593 . S
C220 C36 1.593 . S
C225 C70 1.594 . S
C230 C172 1.594 . S
C235 C9 1.285 . S
C240 C5 1.280 . S
C245 C43 1.286 . S
C250 C39 1.283 1_556 S
C255 C77 1.283 . S
C260 C73 1.281 . S
C265 C107 1.280 . S
C270 C111 1.284 . S
C275 C145 1.286 . S
C280 C141 1.283 1_556 S
C285 C175 1.283 . S
C290 C179 1.284 . S
C295 C20 1.649 . S
C300 C67 1.676 . S
C305 C54 1.648 . S
C310 C101 1.674 . S
C315 C135 1.676 . S
C320 C88 1.650 1_655 S
C325 C122 1.648 1_565 S
C330 C169 1.675 . S
C335 C203 1.677 . S
C340 C156 1.650 1_455 S
C345 C190 1.648 1_545 S
C350 C33 1.675 . S
